# Generated by pormake.
# Topology zzz, (3,6)-cn, num edge types: 1
# Building blocks:
#     Node 0, Type 0, BuildingBlock: KAKCAD_clean_linker_0, # of connection points: 3
#     Node 1, Type 0, BuildingBlock: KAKCAD_clean_linker_0, # of connection points: 3
#     Node 2, Type 0, BuildingBlock: KAKCAD_clean_linker_0, # of connection points: 3
#     Node 3, Type 0, BuildingBlock: KAKCAD_clean_linker_0, # of connection points: 3
#     Node 4, Type 0, BuildingBlock: KAKCAD_clean_linker_0, # of connection points: 3
#     Node 5, Type 0, BuildingBlock: KAKCAD_clean_linker_0, # of connection points: 3
#     Node 6, Type 0, BuildingBlock: KAKCAD_clean_linker_0, # of connection points: 3
#     Node 7, Type 0, BuildingBlock: KAKCAD_clean_linker_0, # of connection points: 3
#     Node 8, Type 1, BuildingBlock: BETDEL_clean_sbu_0, # of connection points: 6
#     Node 9, Type 1, BuildingBlock: BETDEL_clean_sbu_0, # of connection points: 6
#     Node 10, Type 1, BuildingBlock: BETDEL_clean_sbu_0, # of connection points: 6
#     Node 11, Type 1, BuildingBlock: BETDEL_clean_sbu_0, # of connection points: 6
#     Edge 12, Type (0, 1), BuildingBlock: EZIPEK_clean_linker_0, # of connection points: 2
#     Edge 13, Type (0, 1), BuildingBlock: EZIPEK_clean_linker_0, # of connection points: 2
#     Edge 14, Type (0, 1), BuildingBlock: EZIPEK_clean_linker_0, # of connection points: 2
#     Edge 15, Type (0, 1), BuildingBlock: EZIPEK_clean_linker_0, # of connection points: 2
#     Edge 16, Type (0, 1), BuildingBlock: EZIPEK_clean_linker_0, # of connection points: 2
#     Edge 17, Type (0, 1), BuildingBlock: EZIPEK_clean_linker_0, # of connection points: 2
#     Edge 18, Type (0, 1), BuildingBlock: EZIPEK_clean_linker_0, # of connection points: 2
#     Edge 19, Type (0, 1), BuildingBlock: EZIPEK_clean_linker_0, # of connection points: 2
#     Edge 20, Type (0, 1), BuildingBlock: EZIPEK_clean_linker_0, # of connection points: 2
#     Edge 21, Type (0, 1), BuildingBlock: EZIPEK_clean_linker_0, # of connection points: 2
#     Edge 22, Type (0, 1), BuildingBlock: EZIPEK_clean_linker_0, # of connection points: 2
#     Edge 23, Type (0, 1), BuildingBlock: EZIPEK_clean_linker_0, # of connection points: 2
#     Edge 24, Type (0, 1), BuildingBlock: EZIPEK_clean_linker_0, # of connection points: 2
#     Edge 25, Type (0, 1), BuildingBlock: EZIPEK_clean_linker_0, # of connection points: 2
#     Edge 26, Type (0, 1), BuildingBlock: EZIPEK_clean_linker_0, # of connection points: 2
#     Edge 27, Type (0, 1), BuildingBlock: EZIPEK_clean_linker_0, # of connection points: 2
#     Edge 28, Type (0, 1), BuildingBlock: EZIPEK_clean_linker_0, # of connection points: 2
#     Edge 29, Type (0, 1), BuildingBlock: EZIPEK_clean_linker_0, # of connection points: 2
#     Edge 30, Type (0, 1), BuildingBlock: EZIPEK_clean_linker_0, # of connection points: 2
#     Edge 31, Type (0, 1), BuildingBlock: EZIPEK_clean_linker_0, # of connection points: 2
#     Edge 32, Type (0, 1), BuildingBlock: EZIPEK_clean_linker_0, # of connection points: 2
#     Edge 33, Type (0, 1), BuildingBlock: EZIPEK_clean_linker_0, # of connection points: 2
#     Edge 34, Type (0, 1), BuildingBlock: EZIPEK_clean_linker_0, # of connection points: 2
#     Edge 35, Type (0, 1), BuildingBlock: EZIPEK_clean_linker_0, # of connection points: 2
# Relax obj value: 0.347
# Max RMSD: 0.229
# Mean RMSD: 0.212
data_MOF--net-zzz--node1-BETDEL_clean_sbu_0--node2-KAKCAD_clean_linker_0--edge1-EZIPEK_clean_linker_0
_symmetry_space_group_name_H-M    P1
_symmetry_Int_Tables_number       1
_symmetry_cell_setting            triclinic
loop_
_symmetry_equiv_pos_as_xyz
'x, y, z'
_cell_length_a     44.293531
_cell_length_b     44.256238
_cell_length_c     15.577995
_cell_angle_alpha  90.975551
_cell_angle_beta   89.03906
_cell_angle_gamma 95.51336
loop_
_atom_site_label
_atom_site_type_symbol
_atom_site_fract_x
_atom_site_fract_y
_atom_site_fract_z
_atom_type_partial_charge
C0 C 0.82698 0.42965 0.84291 0.0
C1 C 0.84477 0.41077 0.88742 0.0
C2 C 0.79905 0.43635 0.87695 0.0
C3 C 0.7888 0.42435 0.95621 0.0
C4 C 0.8047 0.40204 0.99403 0.0
C5 C 0.8327 0.39533 0.95985 0.0
C6 C 0.76798 0.44137 0.00927 0.0
C7 C 0.74147 0.45113 0.97596 0.0
C8 C 0.72556 0.47285 0.02047 0.0
C9 C 0.73743 0.48555 0.09866 0.0
C10 C 0.7638 0.47516 0.13318 0.0
C11 C 0.77833 0.4529 0.08846 0.0
C12 C 0.77964 0.48851 0.21028 0.0
C13 C 0.79573 0.51743 0.20557 0.0
C14 C 0.78732 0.46867 0.27435 0.0
C15 C 0.81289 0.47591 0.32481 0.0
C16 C 0.83089 0.50345 0.31371 0.0
C17 C 0.69774 0.4828 0.98065 0.0
C18 C 0.69323 0.51374 0.97444 0.0
C19 C 0.67689 0.4612 0.94052 0.0
C20 C 0.65322 0.47025 0.89166 0.0
C21 C 0.64966 0.50112 0.882 0.0
C22 C 0.66937 0.52281 0.92557 0.0
C23 C 0.82106 0.52498 0.25761 0.0
H24 H 0.83601 0.44153 0.78642 0.0
H25 H 0.78738 0.45365 0.84656 0.0
H26 H 0.79709 0.39232 0.05493 0.0
H27 H 0.84617 0.38052 0.99443 0.0
H28 H 0.73401 0.44271 0.91331 0.0
H29 H 0.79962 0.44641 0.1124 0.0
H30 H 0.72626 0.50307 0.1324 0.0
H31 H 0.79071 0.53293 0.15581 0.0
H32 H 0.77555 0.44611 0.27865 0.0
H33 H 0.81982 0.45911 0.36829 0.0
H34 H 0.70891 0.53097 0.00398 0.0
H35 H 0.67936 0.43716 0.94503 0.0
H36 H 0.83453 0.54647 0.24862 0.0
H37 H 0.66687 0.54678 0.91936 0.0
H38 H 0.63812 0.45314 0.85945 0.0
C39 C 0.95479 0.82583 0.84802 0.0
C40 C 0.98659 0.82853 0.83992 0.0
C41 C 0.93947 0.79917 0.88022 0.0
C42 C 0.95581 0.77483 0.9027 0.0
C43 C 0.98693 0.77616 0.88208 0.0
C44 C 1.00229 0.803 0.85273 0.0
C45 C 0.94495 0.75478 0.97387 0.0
C46 C 0.95076 0.72436 0.97201 0.0
C47 C 0.957 0.70963 0.04803 0.0
C48 C 0.95961 0.7266 0.1261 0.0
C49 C 0.95291 0.75729 0.12767 0.0
C50 C 0.94145 0.76918 0.05317 0.0
C51 C 0.96351 0.77994 0.1959 0.0
C52 C 0.95774 0.77574 0.28426 0.0
C53 C 0.97794 0.80807 0.16922 0.0
C54 C 0.98325 0.83225 0.2264 0.0
C55 C 0.97649 0.82886 0.3141 0.0
C56 C 0.96468 0.67791 0.03804 0.0
C57 C 0.94089 0.65465 0.03105 0.0
C58 C 0.99351 0.67269 0.0051 0.0
C59 C 0.99763 0.64606 0.95801 0.0
C60 C 0.97296 0.62432 0.94323 0.0
C61 C 0.94502 0.62799 0.98421 0.0
C62 C 0.96469 0.79996 0.34327 0.0
H63 H 0.94227 0.84526 0.8374 0.0
H64 H 0.91556 0.7988 0.89636 0.0
H65 H 1.00022 0.75796 0.89966 0.0
H66 H 0.02679 0.80454 0.84638 0.0
H67 H 0.95327 0.71297 0.9104 0.0
H68 H 0.93604 0.79259 0.05398 0.0
H69 H 0.9683 0.71668 0.18262 0.0
H70 H 0.94709 0.75427 0.30716 0.0
H71 H 0.98415 0.81192 0.10243 0.0
H72 H 0.99277 0.85391 0.2016 0.0
H73 H 0.91829 0.65845 0.05377 0.0
H74 H 0.01197 0.6906 0.00753 0.0
H75 H 0.96 0.79646 0.411 0.0
H76 H 0.92563 0.61163 0.97291 0.0
H77 H 0.01927 0.64383 0.92629 0.0
C78 C 0.68358 0.04025 0.84948 0.0
C79 C 0.69234 0.06618 0.8015 0.0
C80 C 0.70402 0.02836 0.90247 0.0
C81 C 0.73349 0.04265 0.91075 0.0
C82 C 0.7428 0.06815 0.86083 0.0
C83 C 0.72225 0.07981 0.80559 0.0
C84 C 0.75241 0.03274 0.97975 0.0
C85 C 0.782 0.02569 0.96517 0.0
C86 C 0.79845 0.01404 0.0314 0.0
C87 C 0.7851 0.01043 0.11484 0.0
C88 C 0.75529 0.01874 0.1302 0.0
C89 C 0.73946 0.02912 0.06121 0.0
C90 C 0.73815 0.01659 0.214 0.0
C91 C 0.73268 0.98907 0.25806 0.0
C92 C 0.71967 0.03992 0.23469 0.0
C93 C 0.69277 0.03385 0.28133 0.0
C94 C 0.68537 0.00552 0.31969 0.0
C95 C 0.82914 0.0057 0.00722 0.0
C96 C 0.83143 0.97955 0.9558 0.0
C97 C 0.85365 0.02835 0.00787 0.0
C98 C 0.87869 0.02616 0.95244 0.0
C99 C 0.87948 1.00138 0.89491 0.0
C100 C 0.85637 0.9774 0.90014 0.0
C101 C 0.70714 0.98411 0.31344 0.0
H102 H 0.66074 0.02909 0.84558 0.0
H103 H 0.69647 0.00842 0.93937 0.0
H104 H 0.76545 0.07953 0.86671 0.0
H105 H 0.72942 0.09945 0.76722 0.0
H106 H 0.79195 0.02831 0.90127 0.0
H107 H 0.71619 0.03439 0.07056 0.0
H108 H 0.79767 1.00162 0.16633 0.0
H109 H 0.74659 0.97066 0.2447 0.0
H110 H 0.72369 0.06179 0.20412 0.0
H111 H 0.67708 0.05117 0.28367 0.0
H112 H 0.81248 0.96219 0.95221 0.0
H113 H 0.85207 0.04912 0.0448 0.0
H114 H 0.70298 0.96246 0.345 0.0
H115 H 0.85639 0.95817 0.85618 0.0
H116 H 0.89619 0.04498 0.94927 0.0
C117 C 0.51242 0.70921 0.38566 0.0
C118 C 0.53818 0.69373 0.36984 0.0
C119 C 0.50784 0.73505 0.33883 0.0
C120 C 0.52859 0.74544 0.27394 0.0
C121 C 0.55626 0.73237 0.26654 0.0
C122 C 0.56113 0.70677 0.31468 0.0
C123 C 0.51613 0.7582 0.19605 0.0
C124 C 0.52451 0.78764 0.1644 0.0
C125 C 0.51218 0.79659 0.08628 0.0
C126 C 0.49311 0.77527 0.03907 0.0
C127 C 0.48536 0.74604 0.0699 0.0
C128 C 0.49639 0.73804 0.14867 0.0
C129 C 0.46992 0.72177 0.01594 0.0
C130 C 0.44608 0.70221 0.05075 0.0
C131 C 0.48361 0.71389 0.93794 0.0
C132 C 0.47577 0.68552 0.90003 0.0
C133 C 0.45396 0.66493 0.93921 0.0
C134 C 0.51923 0.8274 0.04947 0.0
C135 C 0.49538 0.84298 0.01923 0.0
C136 C 0.54928 0.83923 0.03182 0.0
C137 C 0.55519 0.86491 0.97986 0.0
C138 C 0.53112 0.87901 0.94478 0.0
C139 C 0.50125 0.86843 0.96751 0.0
C140 C 0.43797 0.67394 0.01213 0.0
H141 H 0.49453 0.69969 0.42827 0.0
H142 H 0.48613 0.74435 0.34499 0.0
H143 H 0.57237 0.73945 0.21601 0.0
H144 H 0.58124 0.69522 0.30179 0.0
H145 H 0.54001 0.80334 0.20019 0.0
H146 H 0.49114 0.71498 0.17096 0.0
H147 H 0.48489 0.78117 0.97693 0.0
H148 H 0.43535 0.70787 0.11114 0.0
H149 H 0.50225 0.72844 0.91054 0.0
H150 H 0.48809 0.67886 0.8432 0.0
H151 H 0.472 0.83452 0.03224 0.0
H152 H 0.56809 0.8276 0.05367 0.0
H153 H 0.42092 0.65828 0.04253 0.0
H154 H 0.48236 0.87907 0.94194 0.0
H155 H 0.57843 0.87284 0.96353 0.0
C156 C 0.17468 0.60257 0.14613 0.0
C157 C 0.1611 0.58851 0.21889 0.0
C158 C 0.20096 0.59213 0.11047 0.0
C159 C 0.21407 0.56799 0.14832 0.0
C160 C 0.20213 0.55621 0.22607 0.0
C161 C 0.17567 0.56634 0.26095 0.0
C162 C 0.23593 0.55121 0.09907 0.0
C163 C 0.26273 0.54364 0.13539 0.0
C164 C 0.28237 0.52536 0.09039 0.0
C165 C 0.27286 0.51252 0.0096 0.0
C166 C 0.24521 0.51969 0.97407 0.0
C167 C 0.22767 0.53959 0.01846 0.0
C168 C 0.23138 0.50581 0.89477 0.0
C169 C 0.22787 0.52495 0.82508 0.0
C170 C 0.21128 0.47936 0.90284 0.0
C171 C 0.18617 0.47413 0.84883 0.0
C172 C 0.18084 0.49524 0.78579 0.0
C173 C 0.31197 0.52012 0.13127 0.0
C174 C 0.32638 0.5429 0.18505 0.0
C175 C 0.32513 0.49239 0.12309 0.0
C176 C 0.35093 0.48729 0.17086 0.0
C177 C 0.36346 0.5094 0.22982 0.0
C178 C 0.35103 0.53736 0.23493 0.0
C179 C 0.20275 0.51978 0.77131 0.0
H180 H 0.1637 0.61986 0.11349 0.0
H181 H 0.20992 0.6015 0.05041 0.0
H182 H 0.21173 0.53745 0.25589 0.0
H183 H 0.16545 0.55547 0.3176 0.0
H184 H 0.26789 0.55188 0.19987 0.0
H185 H 0.20615 0.54454 0.99216 0.0
H186 H 0.28672 0.49749 0.97457 0.0
H187 H 0.24245 0.54592 0.81871 0.0
H188 H 0.21285 0.46472 0.9573 0.0
H189 H 0.16948 0.45512 0.86137 0.0
H190 H 0.31821 0.56514 0.19056 0.0
H191 H 0.31502 0.4743 0.0822 0.0
H192 H 0.19905 0.5364 0.72328 0.0
H193 H 0.36036 0.55511 0.27836 0.0
H194 H 0.36042 0.4657 0.16413 0.0
C195 C 0.04748 0.19069 0.22947 0.0
C196 C 0.06493 0.16736 0.20326 0.0
C197 C 0.05371 0.21962 0.196 0.0
C198 C 0.07745 0.22546 0.13571 0.0
C199 C 0.09715 0.20291 0.11816 0.0
C200 C 0.09067 0.17383 0.15093 0.0
C201 C 0.07522 0.25006 0.07384 0.0
C202 C 0.06655 0.27829 0.10061 0.0
C203 C 0.05297 0.29705 0.04335 0.0
C204 C 0.04845 0.28703 0.95705 0.0
C205 C 0.05869 0.25909 0.92926 0.0
C206 C 0.07311 0.24179 0.98734 0.0
C207 C 0.04935 0.24253 0.84896 0.0
C208 C 0.0212 0.22486 0.85079 0.0
C209 C 0.07237 0.23327 0.79378 0.0
C210 C 0.06874 0.20504 0.75096 0.0
C211 C 0.04195 0.18573 0.76203 0.0
C212 C 0.04097 0.32502 0.07965 0.0
C213 C 0.024 0.32304 0.15689 0.0
C214 C 0.04966 0.35394 0.04612 0.0
C215 C 0.04315 0.3803 0.09216 0.0
C216 C 0.02825 0.378 0.17279 0.0
C217 C 0.01794 0.34911 0.203 0.0
C218 C 0.0176 0.19659 0.80822 0.0
H219 H 0.02783 0.18596 0.27117 0.0
H220 H 0.03795 0.23635 0.21036 0.0
H221 H 0.11573 0.20692 0.07236 0.0
H222 H 0.10465 0.15602 0.1317 0.0
H223 H 0.06854 0.28469 0.16794 0.0
H224 H 0.07869 0.21936 0.9671 0.0
H225 H 0.036 0.29996 0.91374 0.0
H226 H 1.00332 0.23097 0.89421 0.0
H227 H 0.09452 0.246 0.79266 0.0
H228 H 0.08768 0.19728 0.71471 0.0
H229 H 0.01655 0.30111 0.18382 0.0
H230 H 0.06277 0.35617 0.98688 0.0
H231 H 0.9966 0.18221 0.81677 0.0
H232 H 0.00593 0.34669 0.26405 0.0
H233 H 0.05084 0.4024 0.06681 0.0
C234 C 0.33053 0.89806 0.24071 0.0
C235 C 0.36012 0.91067 0.25792 0.0
C236 C 0.31114 0.91459 0.19408 0.0
C237 C 0.32155 0.94339 0.16264 0.0
C238 C 0.35158 0.95517 0.17675 0.0
C239 C 0.37061 0.93902 0.22425 0.0
C240 C 0.30118 0.96216 0.11818 0.0
C241 C 0.27416 0.96921 0.15735 0.0
C242 C 0.25546 0.9892 0.11938 0.0
C243 C 0.26568 0.00342 0.04134 0.0
C244 C 0.29342 0.99644 0.00233 0.0
C245 C 0.31042 0.97552 0.04078 0.0
C246 C 0.30738 0.0108 0.9239 0.0
C247 C 0.30719 0.99337 0.8475 0.0
C248 C 0.33022 0.03492 0.93416 0.0
C249 C 0.35394 0.03958 0.87348 0.0
C250 C 0.35523 0.02022 0.80137 0.0
C251 C 0.2262 0.99474 0.16525 0.0
C252 C 0.21122 0.97146 0.21541 0.0
C253 C 0.21419 0.02316 0.16649 0.0
C254 C 0.18886 0.02825 0.21931 0.0
C255 C 0.17571 0.00538 0.27416 0.0
C256 C 0.18729 0.97697 0.27076 0.0
C257 C 0.33085 0.99807 0.7867 0.0
H258 H 0.32223 0.87607 0.26572 0.0
H259 H 0.28803 0.90511 0.18322 0.0
H260 H 0.36001 0.97741 0.15369 0.0
H261 H 0.39339 0.94913 0.23717 0.0
H262 H 0.26853 0.95984 0.22003 0.0
H263 H 0.33173 0.97025 0.01127 0.0
H264 H 0.25234 0.01941 0.01116 0.0
H265 H 0.2905 0.97403 0.83912 0.0
H266 H 0.33153 0.04805 0.99355 0.0
H267 H 0.37245 0.05682 0.88612 0.0
H268 H 0.21839 0.94875 0.21382 0.0
H269 H 0.22481 0.0417 0.12882 0.0
H270 H 0.33133 0.9829 0.7315 0.0
H271 H 0.17756 0.95867 0.31095 0.0
H272 H 0.18007 0.05025 0.21918 0.0
C273 C 0.45768 0.30548 0.74376 0.0
C274 C 0.48486 0.32434 0.73214 0.0
C275 C 0.45748 0.27819 0.78889 0.0
C276 C 0.48455 0.2688 0.82102 0.0
C277 C 0.51206 0.2855 0.79805 0.0
C278 C 0.51218 0.31318 0.75564 0.0
C279 C 0.48348 0.25393 0.90592 0.0
C280 C 0.48703 0.22294 0.92066 0.0
C281 C 0.49039 0.21307 0.00612 0.0
C282 C 0.49073 0.23436 0.07423 0.0
C283 C 0.48723 0.26474 0.05909 0.0
C284 C 0.4828 0.27402 0.97573 0.0
C285 C 0.49238 0.28826 0.12646 0.0
C286 C 0.51952 0.29072 0.17269 0.0
C287 C 0.47343 0.31189 0.13129 0.0
C288 C 0.48284 0.33875 0.17437 0.0
C289 C 0.51102 0.34213 0.21479 0.0
C290 C 0.49477 0.18131 0.02929 0.0
C291 C 0.47039 0.15852 0.02624 0.0
C292 C 0.52056 0.17602 0.07628 0.0
C293 C 0.52094 0.14989 0.12533 0.0
C294 C 0.49564 0.12826 0.12807 0.0
C295 C 0.47091 0.13205 0.07482 0.0
C296 C 0.52873 0.31757 0.2173 0.0
H297 H 0.43631 0.3132 0.72491 0.0
H298 H 0.43587 0.26632 0.80724 0.0
H299 H 0.53321 0.27935 0.82355 0.0
H300 H 0.53355 0.32695 0.74676 0.0
H301 H 0.48809 0.20714 0.86709 0.0
H302 H 0.48125 0.29794 0.96385 0.0
H303 H 0.49412 0.22732 0.13948 0.0
H304 H 0.53458 0.27283 0.16922 0.0
H305 H 0.45231 0.31034 0.09664 0.0
H306 H 0.46865 0.35737 0.17352 0.0
H307 H 0.45003 0.16223 0.99197 0.0
H308 H 0.53952 0.19336 0.08057 0.0
H309 H 0.55025 0.31978 0.24993 0.0
H310 H 0.45123 0.11552 0.07534 0.0
H311 H 0.54036 0.1474 0.16511 0.0
Dy312 Dy 0.0341 0.98818 0.64122 0.0
C313 C 0.01406 0.05462 0.33898 0.0
C314 C 0.04157 0.94621 0.76415 0.0
Dy315 Dy 0.00907 0.01838 0.47903 0.0
O316 O 0.02201 0.96638 0.76833 0.0
O317 O 0.05785 0.95076 0.69491 0.0
O318 O 0.08121 0.00858 0.60868 0.0
O319 O 0.05026 0.99686 0.51029 0.0
C320 C 0.07679 0.00895 0.52623 0.0
C321 C 0.96486 0.00873 0.60203 0.0
O322 O 0.99799 0.97093 0.43314 0.0
O323 O 0.01308 0.9486 0.55879 0.0
O324 O 1.00051 0.06056 0.41081 0.0
O325 O 0.02319 0.02758 0.34177 0.0
O326 O 0.95988 0.01883 0.52576 0.0
O327 O 0.99216 1.00313 0.60183 0.0
O328 O 0.03122 0.03573 0.69233 0.0
O329 O 0.0339 0.05618 0.55606 0.0
C330 C 1.0013 0.94685 0.4803 0.0
C331 C 0.03406 0.05952 0.64073 0.0
Dy332 Dy 0.49916 0.97667 0.4933 0.0
C333 C 0.57866 0.07172 0.65555 0.0
C334 C 0.45636 0.93226 0.44304 0.0
Dy335 Dy 0.5321 0.0339 0.58915 0.0
O336 O 0.45193 0.96072 0.45398 0.0
O337 O 0.48424 0.92792 0.4595 0.0
O338 O 0.53931 0.96454 0.41056 0.0
O339 O 0.54391 1.0007 0.49507 0.0
C340 C 0.55859 0.9858 0.44172 0.0
C341 C 0.47139 0.0265 0.6159 0.0
O342 O 0.52047 0.05402 0.46293 0.0
O343 O 0.48926 0.01357 0.40367 0.0
O344 O 0.57121 0.06963 0.57545 0.0
O345 O 0.55904 0.05447 0.69998 0.0
O346 O 0.48811 0.05228 0.62531 0.0
O347 O 0.48923 0.00592 0.60454 0.0
O348 O 0.51015 0.95575 0.61709 0.0
O349 O 0.54336 0.99515 0.67236 0.0
C350 C 0.50232 0.04182 0.40178 0.0
C351 C 0.52975 0.96706 0.67528 0.0
Dy352 Dy 0.48969 0.52181 0.62821 0.0
C353 C 0.54015 0.46142 0.35611 0.0
C354 C 0.46921 0.55613 0.75934 0.0
Dy355 Dy 0.52576 0.49826 0.48981 0.0
O356 O 0.45391 0.53254 0.72564 0.0
O357 O 0.49597 0.56009 0.72416 0.0
O358 O 0.4463 0.50152 0.5698 0.0
O359 O 0.48221 0.51782 0.48931 0.0
C360 C 0.45565 0.50442 0.49082 0.0
C361 C 0.55955 0.51727 0.62734 0.0
O362 O 0.53433 0.54582 0.44607 0.0
O363 O 0.50901 0.56521 0.56262 0.0
O364 O 0.55105 0.46133 0.43267 0.0
O365 O 0.52357 0.4839 0.3508 0.0
O366 O 0.56915 0.51845 0.54788 0.0
O367 O 0.5334 0.50296 0.62883 0.0
O368 O 0.49272 0.47468 0.67874 0.0
O369 O 0.49952 0.45641 0.54278 0.0
C370 C 0.52507 0.56907 0.49002 0.0
C371 C 0.49355 0.45135 0.62468 0.0
Dy372 Dy 0.991 0.47759 0.61424 0.0
C373 C 0.05174 0.56883 0.38831 0.0
C374 C 0.95666 0.4476 0.73669 0.0
Dy375 Dy 0.01957 0.53086 0.50031 0.0
O376 O 0.98108 0.43803 0.70254 0.0
O377 O 0.95178 0.47381 0.70637 0.0
O378 O 0.99467 0.43854 0.52008 0.0
O379 O 0.01001 0.48246 0.48625 0.0
C380 C 0.00676 0.45542 0.4588 0.0
C381 C 0.99024 0.54786 0.64444 0.0
O382 O 0.97354 0.52387 0.44178 0.0
O383 O 0.95038 0.49149 0.545 0.0
O384 O 0.05129 0.57211 0.47131 0.0
O385 O 0.03533 0.54391 0.36728 0.0
O386 O 0.99281 0.56314 0.57369 0.0
O387 O 0.00627 0.52575 0.63613 0.0
O388 O 0.03811 0.48302 0.66703 0.0
O389 O 0.06099 0.51409 0.5597 0.0
C390 C 0.94921 0.50833 0.47558 0.0
C391 C 0.06244 0.49709 0.62885 0.0
C392 C 0.15127 0.03206 0.40183 0.0
C393 C 0.14938 0.00973 0.33432 0.0
C394 C 0.10457 0.98448 0.40573 0.0
C395 C 0.10264 0.00938 0.46279 0.0
N396 N 0.12461 0.05809 0.51474 0.0
N397 N 0.11833 0.96926 0.26276 0.0
C398 C 0.12614 0.03365 0.46066 0.0
C399 C 0.12401 0.98761 0.33308 0.0
N400 N 0.17751 0.05042 0.41337 0.0
N401 N 0.09071 0.95661 0.42558 0.0
H402 H 0.13113 0.97178 0.20602 0.0
H403 H 0.09897 0.95391 0.2587 0.0
H404 H 0.07824 0.9524 0.48223 0.0
H405 H 0.09523 0.93714 0.39079 0.0
H406 H 0.18124 0.06487 0.46639 0.0
H407 H 0.19671 0.04923 0.37441 0.0
H408 H 0.13947 0.07775 0.51065 0.0
H409 H 0.1068 0.0598 0.55868 0.0
C410 C 0.47411 0.10295 0.26365 0.0
C411 C 0.49453 0.10318 0.19206 0.0
C412 C 0.51853 0.0608 0.25442 0.0
C413 C 0.49772 0.06044 0.32487 0.0
N414 N 0.44985 0.07384 0.38064 0.0
N415 N 0.53153 0.078 0.10982 0.0
C416 C 0.47364 0.07924 0.32444 0.0
C417 C 0.51539 0.08075 0.18465 0.0
N418 N 0.45627 0.12621 0.27657 0.0
N419 N 0.54143 0.04222 0.25459 0.0
H420 H 0.52931 0.09189 0.05728 0.0
H421 H 0.54501 0.06042 0.09679 0.0
H422 H 0.54281 0.02562 0.3007 0.0
H423 H 0.55966 0.044 0.21132 0.0
H424 H 0.44346 0.12877 0.33247 0.0
H425 H 0.45634 0.14452 0.23536 0.0
H426 H 0.43029 0.08513 0.37888 0.0
H427 H 0.44826 0.05547 0.42208 0.0
C428 C 0.38734 0.48077 0.34894 0.0
C429 C 0.38949 0.50436 0.28733 0.0
C430 C 0.43341 0.52907 0.36324 0.0
C431 C 0.43382 0.50383 0.41814 0.0
N432 N 0.41394 0.45257 0.45111 0.0
N433 N 0.42105 0.54555 0.22231 0.0
C434 C 0.41174 0.47861 0.4068 0.0
C435 C 0.41483 0.52654 0.28974 0.0
N436 N 0.36136 0.46168 0.35683 0.0
N437 N 0.44808 0.55657 0.38505 0.0
H438 H 0.40848 0.54371 0.16607 0.0
H439 H 0.44059 0.5607 0.21921 0.0
H440 H 0.45922 0.56077 0.44297 0.0
H441 H 0.44571 0.57616 0.35042 0.0
H442 H 0.35758 0.44627 0.4066 0.0
H443 H 0.34237 0.46317 0.31919 0.0
H444 H 0.40019 0.43255 0.439 0.0
H445 H 0.43136 0.45013 0.49397 0.0
C446 C 0.04794 0.4217 0.27132 0.0
C447 C 0.02333 0.40512 0.22843 0.0
C448 C 0.98734 0.42785 0.32558 0.0
C449 C 0.01192 0.44384 0.36979 0.0
N450 N 0.06446 0.46353 0.36792 0.0
N451 N 0.97014 0.40019 0.19674 0.0
C452 C 0.04184 0.44351 0.33638 0.0
C453 C 0.99316 0.41092 0.24963 0.0
N454 N 0.07701 0.41515 0.2547 0.0
N455 N 0.95845 0.42798 0.35777 0.0
H456 H 0.97398 0.38806 0.14017 0.0
H457 H 0.94796 0.40589 0.20415 0.0
H458 H 0.95294 0.44161 0.40991 0.0
H459 H 0.94016 0.41374 0.33487 0.0
H460 H 0.09543 0.42385 0.29115 0.0
H461 H 0.08257 0.39929 0.20836 0.0
H462 H 0.08627 0.46617 0.3413 0.0
H463 H 0.06051 0.47969 0.41514 0.0
C464 C 0.8981 0.02361 0.75372 0.0
C465 C 0.90143 1.00286 0.82049 0.0
C466 C 0.94291 0.98252 0.73774 0.0
C467 C 0.94259 0.00623 0.6768 0.0
N468 N 0.9225 0.05356 0.64035 0.0
N469 N 0.9299 0.96518 0.88197 0.0
C470 C 0.92086 0.02789 0.68834 0.0
C471 C 0.92474 0.98312 0.81427 0.0
N472 N 0.87257 0.03865 0.75071 0.0
N473 N 0.959 0.9583 0.72059 0.0
H474 H 0.91692 0.9649 0.93852 0.0
H475 H 0.9486 0.95266 0.88477 0.0
H476 H 0.97144 0.95612 0.66421 0.0
H477 H 0.95748 0.93892 0.75808 0.0
H478 H 0.86734 0.05132 0.6981 0.0
H479 H 0.85506 0.03601 0.79633 0.0
H480 H 0.9095 0.07152 0.65406 0.0
H481 H 0.9387 0.05874 0.59275 0.0
C482 C 0.52947 0.93334 0.90014 0.0
C483 C 0.53643 0.90342 0.87925 0.0
C484 C 0.54734 0.91888 0.73011 0.0
C485 C 0.53567 0.94709 0.74805 0.0
N486 N 0.51275 0.98036 0.84904 0.0
N487 N 0.54908 0.86658 0.77153 0.0
C488 C 0.52634 0.95434 0.83309 0.0
C489 C 0.54495 0.89595 0.79361 0.0
N490 N 0.52603 0.9417 0.98431 0.0
N491 N 0.56108 0.9142 0.65244 0.0
H492 H 0.54749 0.849 0.81552 0.0
H493 H 0.55174 0.85915 0.70831 0.0
H494 H 0.56349 0.93071 0.60513 0.0
H495 H 0.57269 0.89531 0.63823 0.0
H496 H 0.52385 0.96395 0.0045 0.0
H497 H 0.52825 0.92683 0.03462 0.0
H498 H 0.50226 0.98512 0.90737 0.0
H499 H 0.50984 0.99626 0.802 0.0
C500 C 0.5947 0.50571 0.84761 0.0
C501 C 0.62586 0.51042 0.82345 0.0
C502 C 0.61154 0.53204 0.68774 0.0
C503 C 0.58081 0.52087 0.70257 0.0
N504 N 0.54191 0.50512 0.80718 0.0
N505 N 0.66411 0.52647 0.7171 0.0
C506 C 0.57196 0.51017 0.78601 0.0
C507 C 0.63435 0.52345 0.74294 0.0
N508 N 0.58706 0.49794 0.93034 0.0
N509 N 0.61879 0.55228 0.6237 0.0
H510 H 0.68165 0.52035 0.755 0.0
H511 H 0.67104 0.53263 0.65504 0.0
H512 H 0.60227 0.56164 0.58844 0.0
H513 H 0.64056 0.56299 0.61422 0.0
H514 H 0.56506 0.4962 0.95531 0.0
H515 H 0.60322 0.49506 0.97672 0.0
H516 H 0.53347 0.49286 0.86018 0.0
H517 H 0.52527 0.51451 0.77289 0.0
C518 C 0.96328 0.60918 0.78976 0.0
C519 C 0.97445 0.60189 0.87083 0.0
C520 C 0.98965 0.55368 0.80991 0.0
C521 C 0.97974 0.56198 0.72741 0.0
N522 N 0.94495 0.59059 0.65203 0.0
N523 N 0.99315 0.56535 0.96359 0.0
C524 C 0.96276 0.58753 0.72158 0.0
C525 C 0.98614 0.57351 0.88257 0.0
N526 N 0.95416 0.63738 0.77637 0.0
N527 N 1.00203 0.52689 0.81937 0.0
H528 H 0.99112 0.5796 0.01703 0.0
H529 H 0.99932 0.54407 0.97938 0.0
H530 H 0.99938 0.50927 0.77441 0.0
H531 H 0.01413 0.52159 0.87282 0.0
H532 H 0.94948 0.64515 0.71569 0.0
H533 H 0.95378 0.65411 0.82424 0.0
H534 H 0.92973 0.60706 0.64852 0.0
H535 H 0.94245 0.57447 0.6026 0.0
C536 C 0.02972 0.11989 0.1865 0.0
C537 C 0.05508 0.13584 0.22745 0.0
C538 C 0.05815 0.0934 0.32371 0.0
C539 C 0.03043 0.07949 0.29044 0.0
N540 N 0.99093 0.07785 0.1857 0.0
N541 N 0.09223 0.13929 0.33932 0.0
C542 C 0.01666 0.09217 0.22037 0.0
C543 C 0.0693 0.12281 0.29641 0.0
N544 N 0.01712 0.13086 0.11567 0.0
N545 N 0.07401 0.07841 0.38103 0.0
H546 H 0.10146 0.16075 0.32032 0.0
H547 H 0.10069 0.13278 0.39745 0.0
H548 H 0.06647 0.0571 0.40454 0.0
H549 H 0.09603 0.08586 0.39866 0.0
H550 H 0.02548 0.15083 0.08511 0.0
H551 H 0.02548 0.15083 0.08511 0.0
H552 H 0.97993 0.0868 0.13452 0.0
H553 H 0.98098 0.05703 0.20781 0.0
C554 C 0.40847 0.88884 0.2809 0.0
C555 C 0.38049 0.89649 0.31595 0.0
C556 C 0.40403 0.908 0.45361 0.0
C557 C 0.43266 0.90918 0.41195 0.0
N558 N 0.46343 0.8935 0.29351 0.0
N559 N 0.34985 0.90489 0.4421 0.0
C560 C 0.43537 0.89628 0.3286 0.0
C561 C 0.37761 0.90241 0.4049 0.0
N562 N 0.40895 0.87632 0.20029 0.0
N563 N 0.40152 0.91385 0.53923 0.0
H564 H 0.32973 0.90061 0.40843 0.0
H565 H 0.3472 0.91044 0.50704 0.0
H566 H 0.42027 0.91741 0.57911 0.0
H567 H 0.42027 0.91741 0.57911 0.0
H568 H 0.42821 0.86919 0.1701 0.0
H569 H 0.38896 0.87131 0.16603 0.0
H570 H 0.4673 0.8869 0.23019 0.0
H571 H 0.48318 0.89767 0.32897 0.0
C572 C 0.50343 0.38277 0.3212 0.0
C573 C 0.52129 0.37182 0.25397 0.0
C574 C 0.55282 0.42045 0.25212 0.0
C575 C 0.53224 0.43234 0.31112 0.0
N576 N 0.48272 0.42667 0.38126 0.0
N577 N 0.56032 0.38153 0.1447 0.0
C578 C 0.50596 0.41411 0.33963 0.0
C579 C 0.54544 0.39093 0.21637 0.0
N580 N 0.48419 0.36316 0.36797 0.0
N581 N 0.57925 0.43725 0.23045 0.0
H582 H 0.5554 0.3602 0.1161 0.0
H583 H 0.57592 0.39576 0.10978 0.0
H584 H 0.58447 0.45949 0.25273 0.0
H585 H 0.59659 0.42851 0.19468 0.0
H586 H 0.47286 0.36984 0.42329 0.0
H587 H 0.48225 0.33972 0.35697 0.0
H588 H 0.4622 0.41427 0.39666 0.0
H589 H 0.48216 0.44992 0.39069 0.0
C590 C 0.12534 0.61045 0.32307 0.0
C591 C 0.12992 0.59379 0.24618 0.0
C592 C 0.07596 0.57611 0.24341 0.0
C593 C 0.07359 0.58603 0.32954 0.0
N594 N 0.08928 0.62545 0.43156 0.0
N595 N 0.10944 0.5624 0.12809 0.0
C596 C 0.0962 0.60748 0.36335 0.0
C597 C 0.10498 0.57785 0.20328 0.0
N598 N 0.14923 0.62765 0.3592 0.0
N599 N 0.05036 0.56577 0.20023 0.0
H600 H 0.13029 0.56327 0.0958 0.0
H601 H 0.09282 0.54736 0.0999 0.0
H602 H 0.0288 0.56654 0.22784 0.0
H603 H 0.05018 0.5602 0.135 0.0
H604 H 0.14848 0.63771 0.41995 0.0
H605 H 0.17037 0.63117 0.32843 0.0
H606 H 0.10419 0.64267 0.45748 0.0
H607 H 0.06715 0.62529 0.45578 0.0
C608 C 1.0019 0.882 0.89235 0.0
C609 C 1.00398 0.85868 0.82881 0.0
C610 C 0.04461 0.89038 0.75774 0.0
C611 C 0.03631 0.91597 0.80499 0.0
N612 N 0.01064 0.93576 0.92781 0.0
N613 N 0.02583 0.8423 0.69454 0.0
C614 C 0.01609 0.91163 0.87604 0.0
C615 C 0.0251 0.86321 0.75985 0.0
N616 N 0.98766 0.87553 0.96933 0.0
N617 N 0.07138 0.89173 0.71275 0.0
H618 H 0.01092 0.82259 0.69155 0.0
H619 H 0.03917 0.84618 0.6393 0.0
H620 H 0.08767 0.91031 0.71817 0.0
H621 H 0.07908 0.87292 0.68111 0.0
H622 H 0.98774 0.89093 0.02062 0.0
H623 H 0.97831 0.8538 0.98534 0.0
H624 H 0.99328 0.93506 0.97386 0.0
H625 H 0.02352 0.95671 0.92327 0.0
C626 C 0.66022 0.05537 0.67708 0.0
C627 C 0.66976 0.07628 0.74251 0.0
C628 C 0.62248 0.10036 0.73096 0.0
C629 C 0.61079 0.0754 0.67959 0.0
N630 N 0.61717 0.02588 0.61649 0.0
N631 N 0.66107 0.11941 0.83254 0.0
C632 C 0.62938 0.05218 0.65478 0.0
C633 C 0.65149 0.09952 0.76849 0.0
N634 N 0.68043 0.03722 0.64106 0.0
N635 N 0.60572 0.12436 0.74477 0.0
H636 H 0.68259 0.11975 0.85895 0.0
H637 H 0.6474 0.13463 0.86156 0.0
H638 H 0.58421 0.12504 0.71889 0.0
H639 H 0.61398 0.14437 0.77603 0.0
H640 H 0.67518 0.02209 0.59038 0.0
H641 H 0.70331 0.03948 0.65743 0.0
H642 H 0.62915 0.00695 0.60663 0.0
H643 H 0.59436 0.02174 0.60108 0.0
C644 C 0.469 0.61207 0.94391 0.0
C645 C 0.45063 0.63305 0.908 0.0
C646 C 0.43488 0.59647 0.79399 0.0
C647 C 0.45749 0.57812 0.82067 0.0
N648 N 0.49393 0.56582 0.92396 0.0
N649 N 0.41468 0.64562 0.80359 0.0
C650 C 0.47353 0.58492 0.89757 0.0
C651 C 0.43265 0.62508 0.8353 0.0
N652 N 0.4824 0.61844 0.02149 0.0
N653 N 0.41605 0.58685 0.72832 0.0
H654 H 0.41153 0.6661 0.83511 0.0
H655 H 0.40384 0.64313 0.74481 0.0
H656 H 0.41731 0.56632 0.69556 0.0
H657 H 0.39747 0.59789 0.71053 0.0
H658 H 0.49391 0.60312 0.05512 0.0
H659 H 0.48027 0.63855 0.05589 0.0
H660 H 0.50927 0.57088 0.97319 0.0
H661 H 0.49599 0.54473 0.8945 0.0
C662 C 0.89763 0.43477 0.90766 0.0
C663 C 0.87757 0.41225 0.86649 0.0
C664 C 0.91528 0.40545 0.75345 0.0
C665 C 0.93419 0.42975 0.79074 0.0
N666 N 0.94848 0.46073 0.91395 0.0
N667 N 0.86987 0.37021 0.76741 0.0
C668 C 0.92706 0.44196 0.87202 0.0
C669 C 0.88746 0.39539 0.79531 0.0
N670 N 0.88781 0.45066 0.97712 0.0
N671 N 0.92282 0.39361 0.67525 0.0
H672 H 0.84932 0.36276 0.7975 0.0
H673 H 0.87671 0.35534 0.72007 0.0
H674 H 0.94342 0.39972 0.64398 0.0
H675 H 0.90825 0.37862 0.63955 0.0
H676 H 0.89996 0.46979 0.00347 0.0
H677 H 0.86666 0.4456 0.00653 0.0
H678 H 0.94581 0.46867 0.97663 0.0
H679 H 0.97024 0.46601 0.88824 0.0
C680 C 0.05683 0.13206 0.7735 0.0
C681 C 0.04017 0.15333 0.73154 0.0
C682 C 0.01632 0.11206 0.64161 0.0
C683 C 0.03564 0.09141 0.67595 0.0
N684 N 0.07844 0.08375 0.7641 0.0
N685 N 0.00809 0.16443 0.61523 0.0
C686 C 0.05699 0.1019 0.73937 0.0
C687 C 0.02111 0.14355 0.66251 0.0
N688 N 0.07178 0.14034 0.84754 0.0
N689 N 0.99232 0.10145 0.59205 0.0
H690 H 0.01103 0.18769 0.62863 0.0
H691 H 0.99675 0.15896 0.55815 0.0
H692 H 0.98714 0.07852 0.5778 0.0
H693 H 0.97567 0.11491 0.57291 0.0
H694 H 0.08153 0.12495 0.88582 0.0
H695 H 0.07205 0.16202 0.87502 0.0
H696 H 0.09651 0.09137 0.80331 0.0
H697 H 0.07994 0.06196 0.7389 0.0
C698 C 0.40294 0.99721 0.75414 0.0
C699 C 0.38358 0.02078 0.74713 0.0
C700 C 0.41998 0.04664 0.64502 0.0
C701 C 0.43888 0.02221 0.64907 0.0
N702 N 0.44045 0.96916 0.68332 0.0
N703 N 0.37041 0.06461 0.67247 0.0
C704 C 0.42801 0.99591 0.69614 0.0
C705 C 0.39115 0.04451 0.68847 0.0
N706 N 0.39795 0.97638 0.81787 0.0
N707 N 0.42946 0.07216 0.60013 0.0
H708 H 0.34932 0.06381 0.70363 0.0
H709 H 0.37293 0.08037 0.62339 0.0
H710 H 0.44839 0.07381 0.55956 0.0
H711 H 0.41908 0.09225 0.60539 0.0
H712 H 0.41337 0.9609 0.83225 0.0
H713 H 0.37999 0.97649 0.86202 0.0
H714 H 0.43248 0.94915 0.71393 0.0
H715 H 0.45487 0.96546 0.63189 0.0
C716 C 0.50374 0.3666 0.63163 0.0
C717 C 0.48499 0.35656 0.70213 0.0
C718 C 0.46853 0.4082 0.71639 0.0
C719 C 0.49077 0.41902 0.65462 0.0
N720 N 0.53619 0.40866 0.57521 0.0
N721 N 0.455 0.37074 0.82529 0.0
C722 C 0.51019 0.39824 0.61794 0.0
C723 C 0.46881 0.37816 0.74843 0.0
N724 N 0.51527 0.34602 0.57694 0.0
N725 N 0.44644 0.42594 0.74261 0.0
H726 H 0.45596 0.34976 0.85394 0.0
H727 H 0.44547 0.38661 0.86492 0.0
H728 H 0.44455 0.44744 0.71816 0.0
H729 H 0.42815 0.41792 0.78156 0.0
H730 H 0.52692 0.35236 0.52034 0.0
H731 H 0.51027 0.32264 0.58332 0.0
H732 H 0.55203 0.39438 0.55245 0.0
H733 H 0.54401 0.43161 0.57378 0.0
C734 C 0.12801 0.51182 0.7851 0.0
C735 C 0.15026 0.49474 0.7458 0.0
C736 C 0.11381 0.47679 0.63403 0.0
C737 C 0.09257 0.49585 0.66938 0.0
N738 N 0.08088 0.53496 0.77068 0.0
N739 N 0.16588 0.46348 0.62849 0.0
C740 C 0.10004 0.51425 0.74296 0.0
C741 C 0.14357 0.47789 0.66894 0.0
N742 N 0.13338 0.52527 0.86382 0.0
N743 N 0.10516 0.45698 0.56874 0.0
H744 H 0.18755 0.46323 0.65359 0.0
H745 H 0.16368 0.45351 0.56764 0.0
H746 H 0.08359 0.4556 0.54224 0.0
H747 H 0.11833 0.44034 0.54525 0.0
H748 H 0.11686 0.53494 0.90055 0.0
H749 H 0.15379 0.52478 0.896 0.0
H750 H 0.08641 0.55143 0.8178 0.0
H751 H 0.06024 0.53743 0.74161 0.0
C752 C 0.95964 0.86945 0.4191 0.0
C753 C 0.98302 0.85619 0.37184 0.0
C754 C 0.0152 0.90403 0.38501 0.0
C755 C 0.99385 0.9161 0.44109 0.0
N756 N 0.94646 0.90893 0.51961 0.0
N757 N 0.03638 0.85856 0.3357 0.0
C758 C 0.96643 0.89817 0.46173 0.0
C759 C 0.01196 0.87271 0.3641 0.0
N760 N 0.93058 0.85598 0.41841 0.0
N761 N 0.03748 0.92268 0.34652 0.0
H762 H 0.03498 0.83525 0.32255 0.0
H763 H 0.05836 0.86941 0.3345 0.0
H764 H 0.03904 0.94621 0.35442 0.0
H765 H 0.05181 0.91502 0.29878 0.0
H766 H 0.91219 0.86629 0.44402 0.0
H767 H 0.9243 0.83565 0.38596 0.0
H768 H 0.92781 0.89559 0.54457 0.0
H769 H 0.94955 0.93081 0.54582 0.0
C770 C 0.63602 0.97071 0.34507 0.0
C771 C 0.65419 0.99861 0.36065 0.0
C772 C 0.6086 0.01938 0.41889 0.0
C773 C 0.59195 0.99031 0.41762 0.0
N774 N 0.59554 0.93611 0.40249 0.0
N775 N 0.65794 0.04603 0.44149 0.0
C776 C 0.60743 0.96523 0.38827 0.0
C777 C 0.64059 0.02175 0.40749 0.0
N778 N 0.64431 0.95032 0.28451 0.0
N779 N 0.59416 0.04507 0.42451 0.0
H780 H 0.68159 0.04728 0.44136 0.0
H781 H 0.64872 0.06288 0.47829 0.0
H782 H 0.57076 0.04444 0.42366 0.0
H783 H 0.60555 0.06671 0.41863 0.0
H784 H 0.63028 0.93089 0.26788 0.0
H785 H 0.66277 0.9547 0.24286 0.0
H786 H 0.60734 0.91746 0.38643 0.0
H787 H 0.57614 0.9308 0.44006 0.0
C788 C 0.54514 0.65515 0.48443 0.0
C789 C 0.53816 0.6616 0.39851 0.0
C790 C 0.52397 0.60717 0.37011 0.0
C791 C 0.53168 0.60054 0.45586 0.0
N792 N 0.55654 0.61734 0.58717 0.0
N793 N 0.52519 0.64363 0.2553 0.0
C794 C 0.5442 0.62433 0.51096 0.0
C795 C 0.52914 0.63751 0.34002 0.0
N796 N 0.55221 0.67855 0.54117 0.0
N797 N 0.5099 0.58495 0.31854 0.0
H798 H 0.52599 0.66553 0.23129 0.0
H799 H 0.52307 0.627 0.20715 0.0
H800 H 0.5057 0.56235 0.33585 0.0
H801 H 0.49992 0.58915 0.26048 0.0
H802 H 0.55387 0.67567 0.60706 0.0
H803 H 0.5546 0.70124 0.52292 0.0
H804 H 0.56867 0.63324 0.6265 0.0
H805 H 0.55734 0.59507 0.60728 0.0
C806 C 0.8878 0.50329 0.30325 0.0
C807 C 0.86153 0.50779 0.35388 0.0
C808 C 0.8932 0.516 0.4822 0.0
C809 C 0.91918 0.50912 0.43298 0.0
N810 N 0.94021 0.49183 0.29864 0.0
N811 N 0.83838 0.51609 0.49203 0.0
C812 C 0.91629 0.50198 0.34377 0.0
C813 C 0.86405 0.51354 0.44349 0.0
N814 N 0.88552 0.49989 0.21605 0.0
N815 N 0.89649 0.52601 0.56537 0.0
H816 H 0.81698 0.51657 0.46538 0.0
H817 H 0.83786 0.51607 0.55885 0.0
H818 H 0.91704 0.52756 0.59728 0.0
H819 H 0.8794 0.53501 0.60138 0.0
H820 H 0.90417 0.50086 0.17429 0.0
H821 H 0.86494 0.49796 0.18403 0.0
H822 H 0.93852 0.48247 0.23697 0.0
H823 H 0.96139 0.48998 0.32489 0.0
loop_
_geom_bond_atom_site_label_1
_geom_bond_atom_site_label_2
_geom_bond_distance
_geom_bond_site_symmetry_2
_ccdc_geom_bond_type
C0 C1 1.386 . S
C0 C2 1.397 . S
C0 H24 0.931 . S
C1 C0 1.386 . S
C1 C5 1.397 . S
C2 C0 1.397 . S
C2 C3 1.384 . S
C2 H25 0.930 . S
C3 C2 1.384 . S
C3 C4 1.377 . S
C3 C6 1.481 . S
C4 C3 1.377 . S
C4 C5 1.389 . S
C4 H26 0.929 . S
C5 C1 1.397 . S
C5 C4 1.389 . S
C5 H27 0.931 . S
C6 C3 1.481 . S
C6 C7 1.387 . S
C6 C11 1.390 1_556 S
C7 C6 1.387 . S
C7 C8 1.401 1_556 S
C7 H28 0.930 . S
C8 C7 1.401 1_554 S
C8 C9 1.376 . S
C8 C17 1.511 1_554 S
C9 C8 1.376 . S
C9 C10 1.392 . S
C9 H30 0.931 . S
C10 C9 1.392 . S
C10 C11 1.361 . S
C10 C12 1.500 . S
C11 C6 1.390 1_554 S
C11 C10 1.361 . S
C11 H29 0.931 . S
C12 C10 1.500 . S
C12 C13 1.371 . S
C12 C14 1.365 . S
C13 C12 1.371 . S
C13 C23 1.386 . S
C13 H31 0.931 . S
C14 C12 1.365 . S
C14 C15 1.409 . S
C14 H32 0.929 . S
C15 C14 1.409 . S
C15 C16 1.380 . S
C15 H33 0.930 . S
C16 C15 1.380 . S
C16 C23 1.357 . S
C17 C8 1.511 1_556 S
C17 C18 1.341 . S
C17 C19 1.371 1_556 S
C18 C17 1.341 . S
C18 C22 1.394 . S
C18 H34 0.930 . S
C19 C17 1.371 1_554 S
C19 C20 1.392 . S
C19 H35 0.931 . S
C20 C19 1.392 . S
C20 C21 1.331 1_554 S
C20 H38 0.932 . S
C21 C20 1.331 1_556 S
C21 C22 1.336 . S
C22 C18 1.394 . S
C22 C21 1.336 . S
C22 H37 0.929 . S
C23 C13 1.386 . S
C23 C16 1.357 . S
C23 H36 0.928 . S
H24 C0 0.931 . S
H25 C2 0.930 . S
H26 C4 0.929 . S
H27 C5 0.931 . S
H28 C7 0.930 . S
H29 C11 0.931 . S
H30 C9 0.931 . S
H31 C13 0.931 . S
H32 C14 0.929 . S
H33 C15 0.930 . S
H34 C18 0.930 . S
H35 C19 0.931 . S
H36 C23 0.928 . S
H37 C22 0.929 . S
H38 C20 0.932 . S
C39 C40 1.386 . S
C39 C41 1.397 . S
C39 H63 0.931 . S
C40 C39 1.386 . S
C40 C44 1.397 . S
C41 C39 1.397 . S
C41 C42 1.384 . S
C41 H64 0.930 . S
C42 C41 1.384 . S
C42 C43 1.377 . S
C42 C45 1.481 . S
C43 C42 1.377 . S
C43 C44 1.389 . S
C43 H65 0.929 . S
C44 C40 1.397 . S
C44 C43 1.389 . S
C44 H66 0.931 . S
C45 C42 1.481 . S
C45 C46 1.387 . S
C45 C50 1.390 1_556 S
C46 C45 1.387 . S
C46 C47 1.401 1_556 S
C46 H67 0.930 . S
C47 C46 1.401 1_554 S
C47 C48 1.376 . S
C47 C56 1.511 1_554 S
C48 C47 1.376 . S
C48 C49 1.392 . S
C48 H69 0.931 . S
C49 C48 1.392 . S
C49 C50 1.361 . S
C49 C51 1.500 . S
C50 C45 1.390 1_554 S
C50 C49 1.361 . S
C50 H68 0.931 . S
C51 C49 1.500 . S
C51 C52 1.371 . S
C51 C53 1.365 . S
C52 C51 1.371 . S
C52 C62 1.386 . S
C52 H70 0.931 . S
C53 C51 1.365 . S
C53 C54 1.409 . S
C53 H71 0.929 . S
C54 C53 1.409 . S
C54 C55 1.380 . S
C54 H72 0.930 . S
C55 C54 1.380 . S
C55 C62 1.357 . S
C56 C47 1.511 1_556 S
C56 C57 1.341 . S
C56 C58 1.371 1_556 S
C57 C56 1.341 . S
C57 C61 1.394 . S
C57 H73 0.930 . S
C58 C56 1.371 1_554 S
C58 C59 1.392 . S
C58 H74 0.931 . S
C59 C58 1.392 . S
C59 C60 1.331 1_554 S
C59 H77 0.932 . S
C60 C59 1.331 1_556 S
C60 C61 1.336 . S
C61 C57 1.394 . S
C61 C60 1.336 . S
C61 H76 0.929 . S
C62 C52 1.386 . S
C62 C55 1.357 . S
C62 H75 0.928 . S
H63 C39 0.931 . S
H64 C41 0.930 . S
H65 C43 0.929 . S
H66 C44 0.931 . S
H67 C46 0.930 . S
H68 C50 0.931 . S
H69 C48 0.931 . S
H70 C52 0.931 . S
H71 C53 0.929 . S
H72 C54 0.930 . S
H73 C57 0.930 . S
H74 C58 0.931 . S
H75 C62 0.928 . S
H76 C61 0.929 . S
H77 C59 0.932 . S
C78 C79 1.395 . S
C78 C80 1.397 . S
C78 H102 0.931 . S
C79 C78 1.395 . S
C79 C83 1.389 1_565 S
C80 C78 1.397 . S
C80 C81 1.389 . S
C80 H103 0.930 . S
C81 C80 1.389 . S
C81 C82 1.372 1_565 S
C81 C84 1.478 . S
C82 C81 1.372 1_545 S
C82 C83 1.389 . S
C82 H104 0.929 . S
C83 C79 1.389 1_545 S
C83 C82 1.389 . S
C83 H105 0.931 . S
C84 C81 1.478 . S
C84 C85 1.392 . S
C84 C89 1.390 1_556 S
C85 C84 1.392 . S
C85 C86 1.399 1_556 S
C85 H106 0.930 . S
C86 C85 1.399 1_554 S
C86 C87 1.376 . S
C86 C95 1.516 . S
C87 C86 1.376 . S
C87 C88 1.393 . S
C87 H108 0.931 . S
C88 C87 1.393 . S
C88 C89 1.362 . S
C88 C90 1.499 1_565 S
C89 C84 1.390 1_554 S
C89 C88 1.362 . S
C89 H107 0.930 . S
C90 C88 1.499 1_545 S
C90 C91 1.359 1_545 S
C90 C92 1.378 . S
C91 C90 1.359 1_565 S
C91 C101 1.386 . S
C91 H109 0.931 . S
C92 C90 1.378 . S
C92 C93 1.409 . S
C92 H110 0.929 . S
C93 C92 1.409 . S
C93 C94 1.380 . S
C93 H111 0.930 . S
C94 C93 1.380 . S
C94 C101 1.357 1_545 S
C95 C86 1.516 . S
C95 C96 1.341 1_554 S
C95 C97 1.371 1_565 S
C96 C95 1.341 1_556 S
C96 C100 1.394 . S
C96 H112 0.930 . S
C97 C95 1.371 1_545 S
C97 C98 1.392 . S
C97 H113 0.931 . S
C98 C97 1.392 . S
C98 C99 1.322 1_544 S
C98 H116 0.932 . S
C99 C98 1.322 1_566 S
C99 C100 1.343 . S
C100 C96 1.394 . S
C100 C99 1.343 . S
C100 H115 0.929 . S
C101 C91 1.386 . S
C101 C94 1.357 1_565 S
C101 H114 0.928 . S
H102 C78 0.931 . S
H103 C80 0.930 . S
H104 C82 0.929 . S
H105 C83 0.931 . S
H106 C85 0.930 . S
H107 C89 0.930 . S
H108 C87 0.931 . S
H109 C91 0.931 . S
H110 C92 0.929 . S
H111 C93 0.930 . S
H112 C96 0.930 . S
H113 C97 0.931 . S
H114 C101 0.928 . S
H115 C100 0.929 . S
H116 C98 0.932 . S
C117 C118 1.386 . S
C117 C119 1.397 . S
C117 H141 0.931 . S
C118 C117 1.386 . S
C118 C122 1.397 . S
C119 C117 1.397 . S
C119 C120 1.384 . S
C119 H142 0.930 . S
C120 C119 1.384 . S
C120 C121 1.377 . S
C120 C123 1.481 . S
C121 C120 1.377 . S
C121 C122 1.389 . S
C121 H143 0.929 . S
C122 C118 1.397 . S
C122 C121 1.389 . S
C122 H144 0.931 . S
C123 C120 1.481 . S
C123 C124 1.387 . S
C123 C128 1.390 . S
C124 C123 1.387 . S
C124 C125 1.401 . S
C124 H145 0.930 . S
C125 C124 1.401 . S
C125 C126 1.376 1_554 S
C125 C134 1.511 . S
C126 C125 1.376 1_556 S
C126 C127 1.392 1_556 S
C126 H147 0.931 . S
C127 C126 1.392 1_554 S
C127 C128 1.361 . S
C127 C129 1.500 1_554 S
C128 C123 1.390 . S
C128 C127 1.361 . S
C128 H146 0.931 . S
C129 C127 1.500 1_556 S
C129 C130 1.371 . S
C129 C131 1.365 . S
C130 C129 1.371 . S
C130 C140 1.386 . S
C130 H148 0.931 . S
C131 C129 1.365 . S
C131 C132 1.409 . S
C131 H149 0.929 . S
C132 C131 1.409 . S
C132 C133 1.380 . S
C132 H150 0.930 . S
C133 C132 1.380 . S
C133 C140 1.357 . S
C134 C125 1.511 . S
C134 C135 1.341 . S
C134 C136 1.371 1_554 S
C135 C134 1.341 . S
C135 C139 1.394 . S
C135 H151 0.930 . S
C136 C134 1.371 1_556 S
C136 C137 1.392 . S
C136 H152 0.931 . S
C137 C136 1.392 . S
C137 C138 1.331 . S
C137 H155 0.932 . S
C138 C137 1.331 . S
C138 C139 1.336 1_556 S
C139 C135 1.394 . S
C139 C138 1.336 1_554 S
C139 H154 0.929 . S
C140 C130 1.386 . S
C140 C133 1.357 . S
C140 H153 0.928 . S
H141 C117 0.931 . S
H142 C119 0.930 . S
H143 C121 0.929 . S
H144 C122 0.931 . S
H145 C124 0.930 . S
H146 C128 0.931 . S
H147 C126 0.931 . S
H148 C130 0.931 . S
H149 C131 0.929 . S
H150 C132 0.930 . S
H151 C135 0.930 . S
H152 C136 0.931 . S
H153 C140 0.928 . S
H154 C139 0.929 . S
H155 C137 0.932 . S
C156 C157 1.386 . S
C156 C158 1.397 . S
C156 H180 0.931 . S
C157 C156 1.386 . S
C157 C161 1.397 . S
C158 C156 1.397 . S
C158 C159 1.384 . S
C158 H181 0.930 . S
C159 C158 1.384 . S
C159 C160 1.377 . S
C159 C162 1.481 . S
C160 C159 1.377 . S
C160 C161 1.389 . S
C160 H182 0.929 . S
C161 C157 1.397 . S
C161 C160 1.389 . S
C161 H183 0.931 . S
C162 C159 1.481 . S
C162 C163 1.387 . S
C162 C167 1.390 . S
C163 C162 1.387 . S
C163 C164 1.401 . S
C163 H184 0.930 . S
C164 C163 1.401 . S
C164 C165 1.369 1_554 S
C164 C173 1.511 . S
C165 C164 1.369 1_556 S
C165 C166 1.394 . S
C165 H186 0.937 . S
C166 C165 1.394 . S
C166 C167 1.361 1_556 S
C166 C168 1.500 . S
C167 C162 1.390 . S
C167 C166 1.361 1_554 S
C167 H185 0.931 . S
C168 C166 1.500 . S
C168 C169 1.371 . S
C168 C170 1.365 . S
C169 C168 1.371 . S
C169 C179 1.386 . S
C169 H187 0.931 . S
C170 C168 1.365 . S
C170 C171 1.409 . S
C170 H188 0.929 . S
C171 C170 1.409 . S
C171 C172 1.380 . S
C171 H189 0.930 . S
C172 C171 1.380 . S
C172 C179 1.357 . S
C173 C164 1.511 . S
C173 C174 1.341 . S
C173 C175 1.371 . S
C174 C173 1.341 . S
C174 C178 1.394 . S
C174 H190 0.930 . S
C175 C173 1.371 . S
C175 C176 1.392 . S
C175 H191 0.931 1_554 S
C176 C175 1.392 . S
C176 C177 1.331 . S
C176 H194 0.932 . S
C177 C176 1.331 . S
C177 C178 1.336 . S
C178 C174 1.394 . S
C178 C177 1.336 . S
C178 H193 0.929 . S
C179 C169 1.386 . S
C179 C172 1.357 . S
C179 H192 0.928 . S
H180 C156 0.931 . S
H181 C158 0.930 . S
H182 C160 0.929 . S
H183 C161 0.931 . S
H184 C163 0.930 . S
H185 C167 0.931 . S
H186 C165 0.937 . S
H187 C169 0.931 . S
H188 C170 0.929 . S
H189 C171 0.930 . S
H190 C174 0.930 . S
H191 C175 0.931 1_556 S
H192 C179 0.928 . S
H193 C178 0.929 . S
H194 C176 0.932 . S
C195 C196 1.386 . S
C195 C197 1.397 . S
C195 H219 0.931 . S
C196 C195 1.386 . S
C196 C200 1.397 . S
C197 C195 1.397 . S
C197 C198 1.384 . S
C197 H220 0.930 . S
C198 C197 1.384 . S
C198 C199 1.377 . S
C198 C201 1.481 . S
C199 C198 1.377 . S
C199 C200 1.389 . S
C199 H221 0.929 . S
C200 C196 1.397 . S
C200 C199 1.389 . S
C200 H222 0.931 . S
C201 C198 1.481 . S
C201 C202 1.387 . S
C201 C206 1.390 . S
C202 C201 1.387 . S
C202 C203 1.401 . S
C202 H223 0.930 . S
C203 C202 1.401 . S
C203 C204 1.376 . S
C203 C212 1.511 . S
C204 C203 1.376 . S
C204 C205 1.392 1_554 S
C204 H225 0.931 1_554 S
C205 C204 1.392 1_556 S
C205 C206 1.361 1_556 S
C205 C207 1.500 . S
C206 C201 1.390 . S
C206 C205 1.361 1_554 S
C206 H224 0.931 . S
C207 C205 1.500 . S
C207 C208 1.371 . S
C207 C209 1.365 . S
C208 C207 1.371 . S
C208 C218 1.386 . S
C208 H226 0.931 . S
C209 C207 1.365 . S
C209 C210 1.409 . S
C209 H227 0.929 . S
C210 C209 1.409 . S
C210 C211 1.380 . S
C210 H228 0.930 . S
C211 C210 1.380 . S
C211 C218 1.357 . S
C212 C203 1.511 . S
C212 C213 1.341 . S
C212 C214 1.371 . S
C213 C212 1.341 . S
C213 C217 1.394 . S
C213 H229 0.930 . S
C214 C212 1.371 . S
C214 C215 1.392 . S
C214 H230 0.931 . S
C215 C214 1.392 . S
C215 C216 1.331 . S
C215 H233 0.932 . S
C216 C215 1.331 . S
C216 C217 1.336 . S
C217 C213 1.394 . S
C217 C216 1.336 . S
C217 H232 0.929 . S
C218 C208 1.386 . S
C218 C211 1.357 . S
C218 H231 0.928 . S
H219 C195 0.931 . S
H220 C197 0.930 . S
H221 C199 0.929 . S
H222 C200 0.931 . S
H223 C202 0.930 . S
H224 C206 0.931 . S
H225 C204 0.931 1_556 S
H226 C208 0.931 . S
H227 C209 0.929 . S
H228 C210 0.930 . S
H229 C213 0.930 . S
H230 C214 0.931 . S
H231 C218 0.928 . S
H232 C217 0.929 . S
H233 C215 0.932 . S
C234 C235 1.389 . S
C234 C236 1.397 . S
C234 H258 0.931 . S
C235 C234 1.389 . S
C235 C239 1.394 1_565 S
C236 C234 1.397 . S
C236 C237 1.383 . S
C236 H259 0.930 . S
C237 C236 1.383 . S
C237 C238 1.378 1_565 S
C237 C240 1.483 . S
C238 C237 1.378 1_545 S
C238 C239 1.389 . S
C238 H260 0.929 . S
C239 C235 1.394 1_545 S
C239 C238 1.389 . S
C239 H261 0.931 . S
C240 C237 1.483 . S
C240 C241 1.386 . S
C240 C245 1.390 . S
C241 C240 1.386 . S
C241 C242 1.404 . S
C241 H262 0.930 . S
C242 C241 1.404 . S
C242 C243 1.376 1_554 S
C242 C251 1.510 . S
C243 C242 1.376 1_556 S
C243 C244 1.395 . S
C243 H264 0.930 . S
C244 C243 1.395 . S
C244 C245 1.360 1_556 S
C244 C246 1.499 1_565 S
C245 C240 1.390 . S
C245 C244 1.360 1_554 S
C245 H263 0.932 . S
C246 C244 1.499 1_545 S
C246 C247 1.359 1_545 S
C246 C248 1.378 . S
C247 C246 1.359 1_565 S
C247 C257 1.386 . S
C247 H265 0.931 . S
C248 C246 1.378 . S
C248 C249 1.409 . S
C248 H266 0.929 . S
C249 C248 1.409 . S
C249 C250 1.384 . S
C249 H267 0.930 . S
C250 C249 1.384 . S
C250 C257 1.354 1_545 S
C251 C242 1.510 . S
C251 C252 1.341 . S
C251 C253 1.371 1_565 S
C252 C251 1.341 . S
C252 C256 1.394 . S
C252 H268 0.930 . S
C253 C251 1.371 1_545 S
C253 C254 1.392 . S
C253 H269 0.931 1_554 S
C254 C253 1.392 . S
C254 C255 1.325 1_545 S
C254 H272 0.932 . S
C255 C254 1.325 1_565 S
C255 C256 1.344 . S
C256 C252 1.394 . S
C256 C255 1.344 . S
C256 H271 0.929 . S
C257 C247 1.386 . S
C257 C250 1.354 1_565 S
C257 H270 0.928 . S
H258 C234 0.931 . S
H259 C236 0.930 . S
H260 C238 0.929 . S
H261 C239 0.931 . S
H262 C241 0.930 . S
H263 C245 0.932 . S
H264 C243 0.930 . S
H265 C247 0.931 . S
H266 C248 0.929 . S
H267 C249 0.930 . S
H268 C252 0.930 . S
H269 C253 0.931 1_556 S
H270 C257 0.928 . S
H271 C256 0.929 . S
H272 C254 0.932 . S
C273 C274 1.386 . S
C273 C275 1.397 . S
C273 H297 0.931 . S
C274 C273 1.386 . S
C274 C278 1.397 . S
C275 C273 1.397 . S
C275 C276 1.384 . S
C275 H298 0.930 . S
C276 C275 1.384 . S
C276 C277 1.377 . S
C276 C279 1.481 . S
C277 C276 1.377 . S
C277 C278 1.389 . S
C277 H299 0.929 . S
C278 C274 1.397 . S
C278 C277 1.389 . S
C278 H300 0.931 . S
C279 C276 1.481 . S
C279 C280 1.387 . S
C279 C284 1.390 1_556 S
C280 C279 1.387 . S
C280 C281 1.401 1_556 S
C280 H301 0.930 . S
C281 C280 1.401 1_554 S
C281 C282 1.376 . S
C281 C290 1.511 . S
C282 C281 1.376 . S
C282 C283 1.392 . S
C282 H303 0.931 . S
C283 C282 1.392 . S
C283 C284 1.361 . S
C283 C285 1.500 . S
C284 C279 1.390 1_554 S
C284 C283 1.361 . S
C284 H302 0.931 1_554 S
C285 C283 1.500 . S
C285 C286 1.371 . S
C285 C287 1.365 . S
C286 C285 1.371 . S
C286 C296 1.386 . S
C286 H304 0.931 . S
C287 C285 1.365 . S
C287 C288 1.409 . S
C287 H305 0.929 . S
C288 C287 1.409 . S
C288 C289 1.380 . S
C288 H306 0.930 . S
C289 C288 1.380 . S
C289 C296 1.357 . S
C290 C281 1.511 . S
C290 C291 1.341 . S
C290 C292 1.371 . S
C291 C290 1.341 . S
C291 C295 1.394 . S
C291 H307 0.930 1_554 S
C292 C290 1.371 . S
C292 C293 1.392 . S
C292 H308 0.931 . S
C293 C292 1.392 . S
C293 C294 1.331 . S
C293 H311 0.932 . S
C294 C293 1.331 . S
C294 C295 1.336 . S
C295 C291 1.394 . S
C295 C294 1.336 . S
C295 H310 0.929 1_554 S
C296 C286 1.386 . S
C296 C289 1.357 . S
C296 H309 0.928 . S
H297 C273 0.931 . S
H298 C275 0.930 . S
H299 C277 0.929 . S
H300 C278 0.931 . S
H301 C280 0.930 . S
H302 C284 0.931 1_556 S
H303 C282 0.931 . S
H304 C286 0.931 . S
H305 C287 0.929 . S
H306 C288 0.930 . S
H307 C291 0.930 1_556 S
H308 C292 0.931 . S
H309 C296 0.928 . S
H310 C295 0.929 1_556 S
H311 C293 0.932 . S
Dy312 O316 2.398 . S
Dy312 O317 2.491 1_455 S
Dy312 O318 2.403 . S
Dy312 O319 2.664 1_565 S
Dy312 O323 2.326 . S
Dy312 O327 2.310 1_455 S
Dy312 O328 2.351 1_565 S
C313 O324 1.185 1_455 S
C313 O325 1.355 . S
C314 O316 1.185 . S
C314 O317 1.355 1_455 S
Dy315 O319 2.310 1_655 S
Dy315 O322 2.351 1_545 S
Dy315 O324 2.398 . S
Dy315 O325 2.491 1_655 S
Dy315 O326 2.403 . S
Dy315 O327 2.664 1_545 S
Dy315 O329 2.326 1_655 S
O316 Dy312 2.398 . S
O316 C314 1.185 . S
O317 Dy312 2.491 1_655 S
O317 C314 1.355 1_655 S
O318 Dy312 2.403 . S
O318 C320 1.254 . S
O319 Dy312 2.664 1_545 S
O319 Dy315 2.310 1_455 S
O319 C320 1.268 1_545 S
C320 O318 1.254 . S
C320 O319 1.268 1_565 S
C321 O326 1.254 . S
C321 O327 1.268 1_545 S
O322 Dy315 2.351 1_565 S
O322 C330 1.249 . S
O323 Dy312 2.326 . S
O323 C330 1.267 1_455 S
O324 C313 1.185 1_655 S
O324 Dy315 2.398 . S
O325 C313 1.355 . S
O325 Dy315 2.491 1_455 S
O326 Dy315 2.403 . S
O326 C321 1.254 . S
O327 Dy312 2.310 1_655 S
O327 Dy315 2.664 1_565 S
O327 C321 1.268 1_565 S
O328 Dy312 2.351 1_545 S
O328 C331 1.249 . S
O329 Dy315 2.326 1_455 S
O329 C331 1.267 . S
C330 O322 1.249 . S
C330 O323 1.267 1_655 S
C331 O328 1.249 . S
C331 O329 1.267 . S
Dy332 O336 2.398 . S
Dy332 O337 2.491 . S
Dy332 O338 2.403 . S
Dy332 O339 2.664 . S
Dy332 O343 2.326 1_565 S
Dy332 O347 2.310 1_565 S
Dy332 O348 2.351 . S
C333 O344 1.185 . S
C333 O345 1.355 . S
C334 O336 1.185 . S
C334 O337 1.355 . S
Dy335 O339 2.310 1_545 S
Dy335 O342 2.351 . S
Dy335 O344 2.398 . S
Dy335 O345 2.491 . S
Dy335 O346 2.403 . S
Dy335 O347 2.664 . S
Dy335 O349 2.326 1_545 S
O336 Dy332 2.398 . S
O336 C334 1.185 . S
O337 Dy332 2.491 . S
O337 C334 1.355 . S
O338 Dy332 2.403 . S
O338 C340 1.254 . S
O339 Dy332 2.664 . S
O339 Dy335 2.310 1_565 S
O339 C340 1.268 . S
C340 O338 1.254 . S
C340 O339 1.268 . S
C341 O346 1.254 . S
C341 O347 1.268 . S
O342 Dy335 2.351 . S
O342 C350 1.249 . S
O343 Dy332 2.326 1_545 S
O343 C350 1.267 . S
O344 C333 1.185 . S
O344 Dy335 2.398 . S
O345 C333 1.355 . S
O345 Dy335 2.491 . S
O346 Dy335 2.403 . S
O346 C341 1.254 . S
O347 Dy332 2.310 1_545 S
O347 Dy335 2.664 . S
O347 C341 1.268 . S
O348 Dy332 2.351 . S
O348 C351 1.249 . S
O349 Dy335 2.326 1_565 S
O349 C351 1.267 . S
C350 O342 1.249 . S
C350 O343 1.267 . S
C351 O348 1.249 . S
C351 O349 1.267 . S
Dy352 O356 2.398 . S
Dy352 O357 2.491 . S
Dy352 O358 2.403 . S
Dy352 O359 2.664 . S
Dy352 O363 2.326 . S
Dy352 O367 2.310 . S
Dy352 O368 2.351 . S
C353 O364 1.185 . S
C353 O365 1.355 . S
C354 O356 1.185 . S
C354 O357 1.355 . S
Dy355 O359 2.310 . S
Dy355 O362 2.351 . S
Dy355 O364 2.398 . S
Dy355 O365 2.491 . S
Dy355 O366 2.403 . S
Dy355 O367 2.664 . S
Dy355 O369 2.326 . S
O356 Dy352 2.398 . S
O356 C354 1.185 . S
O357 Dy352 2.491 . S
O357 C354 1.355 . S
O358 Dy352 2.403 . S
O358 C360 1.254 . S
O359 Dy352 2.664 . S
O359 Dy355 2.310 . S
O359 C360 1.268 . S
C360 O358 1.254 . S
C360 O359 1.268 . S
C361 O366 1.254 . S
C361 O367 1.268 . S
O362 Dy355 2.351 . S
O362 C370 1.249 . S
O363 Dy352 2.326 . S
O363 C370 1.267 . S
O364 C353 1.185 . S
O364 Dy355 2.398 . S
O365 C353 1.355 . S
O365 Dy355 2.491 . S
O366 Dy355 2.403 . S
O366 C361 1.254 . S
O367 Dy352 2.310 . S
O367 Dy355 2.664 . S
O367 C361 1.268 . S
O368 Dy352 2.351 . S
O368 C371 1.249 . S
O369 Dy355 2.326 . S
O369 C371 1.267 . S
C370 O362 1.249 . S
C370 O363 1.267 . S
C371 O368 1.249 . S
C371 O369 1.267 . S
Dy372 O376 2.398 . S
Dy372 O377 2.491 . S
Dy372 O378 2.409 . S
Dy372 O379 2.664 1_655 S
Dy372 O383 2.326 . S
Dy372 O387 2.310 . S
Dy372 O388 2.351 1_655 S
C373 O384 1.185 . S
C373 O385 1.355 . S
C374 O376 1.185 . S
C374 O377 1.355 . S
Dy375 O379 2.310 . S
Dy375 O382 2.351 1_455 S
Dy375 O384 2.398 . S
Dy375 O385 2.491 . S
Dy375 O386 2.403 . S
Dy375 O387 2.664 1_455 S
Dy375 O389 2.326 . S
O376 Dy372 2.398 . S
O376 C374 1.185 . S
O377 Dy372 2.491 . S
O377 C374 1.355 . S
O378 Dy372 2.409 . S
O378 C380 1.244 1_655 S
O379 Dy372 2.664 1_455 S
O379 Dy375 2.310 . S
O379 C380 1.268 . S
C380 O378 1.244 1_455 S
C380 O379 1.268 . S
C381 O386 1.254 1_655 S
C381 O387 1.268 . S
O382 Dy375 2.351 1_655 S
O382 C390 1.249 . S
O383 Dy372 2.326 . S
O383 C390 1.267 . S
O384 C373 1.185 . S
O384 Dy375 2.398 . S
O385 C373 1.355 . S
O385 Dy375 2.491 . S
O386 Dy375 2.403 . S
O386 C381 1.254 1_455 S
O387 Dy372 2.310 . S
O387 Dy375 2.664 1_655 S
O387 C381 1.268 . S
O388 Dy372 2.351 1_455 S
O388 C391 1.249 . S
O389 Dy375 2.326 . S
O389 C391 1.267 . S
C390 O382 1.249 . S
C390 O383 1.267 . S
C391 O388 1.249 . S
C391 O389 1.267 . S
C392 C393 1.338 1_545 S
C392 C398 1.379 . S
C392 N400 1.356 . S
C393 C392 1.338 1_565 S
C393 C399 1.389 . S
C394 C395 1.363 . S
C394 C399 1.379 . S
C394 N401 1.356 . S
C395 C394 1.363 . S
C395 C398 1.363 1_565 S
N396 C398 1.356 . S
N396 H408 0.984 . S
N396 H409 0.985 . S
N397 C399 1.356 . S
N397 H402 0.984 . S
N397 H403 0.985 . S
C398 C392 1.379 . S
C398 C395 1.363 1_545 S
C398 N396 1.356 . S
C399 C393 1.389 . S
C399 C394 1.379 . S
C399 N397 1.356 . S
N400 C392 1.356 . S
N400 H406 0.984 . S
N400 H407 0.984 . S
N401 C394 1.356 . S
N401 H404 0.984 . S
N401 H405 0.985 . S
H402 N397 0.984 . S
H403 N397 0.985 . S
H404 N401 0.984 . S
H405 N401 0.985 . S
H406 N400 0.984 . S
H407 N400 0.984 . S
H408 N396 0.984 . S
H409 N396 0.985 . S
C410 C411 1.363 . S
C410 C416 1.379 . S
C410 N418 1.356 . S
C411 C410 1.363 . S
C411 C417 1.363 . S
C412 C413 1.363 . S
C412 C417 1.379 . S
C412 N419 1.356 . S
C413 C412 1.363 . S
C413 C416 1.363 . S
N414 C416 1.356 . S
N414 H426 0.984 . S
N414 H427 0.985 . S
N415 C417 1.356 . S
N415 H420 0.984 . S
N415 H421 0.985 . S
C416 C410 1.379 . S
C416 C413 1.363 . S
C416 N414 1.356 . S
C417 C411 1.363 . S
C417 C412 1.379 . S
C417 N415 1.356 . S
N418 C410 1.356 . S
N418 H424 0.984 . S
N418 H425 0.984 . S
N419 C412 1.356 . S
N419 H422 0.984 . S
N419 H423 0.985 . S
H420 N415 0.984 . S
H421 N415 0.985 . S
H422 N419 0.984 . S
H423 N419 0.985 . S
H424 N418 0.984 . S
H425 N418 0.984 . S
H426 N414 0.984 . S
H427 N414 0.985 . S
C428 C429 1.363 . S
C428 C434 1.379 . S
C428 N436 1.356 . S
C429 C428 1.363 . S
C429 C435 1.363 . S
C430 C431 1.363 . S
C430 C435 1.379 . S
C430 N437 1.356 . S
C431 C430 1.363 . S
C431 C434 1.363 . S
N432 C434 1.356 . S
N432 H444 0.984 . S
N432 H445 0.985 . S
N433 C435 1.356 . S
N433 H438 0.984 . S
N433 H439 0.985 . S
C434 C428 1.379 . S
C434 C431 1.363 . S
C434 N432 1.356 . S
C435 C429 1.363 . S
C435 C430 1.379 . S
C435 N433 1.356 . S
N436 C428 1.356 . S
N436 H442 0.984 . S
N436 H443 0.984 . S
N437 C430 1.356 . S
N437 H440 0.984 . S
N437 H441 0.985 . S
H438 N433 0.984 . S
H439 N433 0.985 . S
H440 N437 0.984 . S
H441 N437 0.985 . S
H442 N436 0.984 . S
H443 N436 0.984 . S
H444 N432 0.984 . S
H445 N432 0.985 . S
C446 C447 1.363 . S
C446 C452 1.379 . S
C446 N454 1.356 . S
C447 C446 1.363 . S
C447 C453 1.363 . S
C448 C449 1.363 . S
C448 C453 1.379 . S
C448 N455 1.356 1_455 S
C449 C448 1.363 . S
C449 C452 1.363 . S
N450 C452 1.356 . S
N450 H462 0.984 . S
N450 H463 0.985 . S
N451 C453 1.356 . S
N451 H456 0.984 . S
N451 H457 0.985 . S
C452 C446 1.379 . S
C452 C449 1.363 . S
C452 N450 1.356 . S
C453 C447 1.363 . S
C453 C448 1.379 . S
C453 N451 1.356 . S
N454 C446 1.356 . S
N454 H460 0.984 . S
N454 H461 0.984 . S
N455 C448 1.356 1_655 S
N455 H458 0.984 . S
N455 H459 0.985 . S
H456 N451 0.984 . S
H457 N451 0.985 . S
H458 N455 0.984 . S
H459 N455 0.985 . S
H460 N454 0.984 . S
H461 N454 0.984 . S
H462 N450 0.984 . S
H463 N450 0.985 . S
C464 C465 1.363 . S
C464 C470 1.379 . S
C464 N472 1.356 . S
C465 C464 1.363 . S
C465 C471 1.363 1_545 S
C466 C467 1.363 1_565 S
C466 C471 1.379 . S
C466 N473 1.356 . S
C467 C466 1.363 1_545 S
C467 C470 1.363 . S
N468 C470 1.356 . S
N468 H480 0.984 . S
N468 H481 0.985 . S
N469 C471 1.356 . S
N469 H474 0.984 . S
N469 H475 0.985 . S
C470 C464 1.379 . S
C470 C467 1.363 . S
C470 N468 1.356 . S
C471 C465 1.363 1_565 S
C471 C466 1.379 . S
C471 N469 1.356 . S
N472 C464 1.356 . S
N472 H478 0.984 . S
N472 H479 0.984 . S
N473 C466 1.356 . S
N473 H476 0.984 . S
N473 H477 0.985 . S
H474 N469 0.984 . S
H475 N469 0.985 . S
H476 N473 0.984 . S
H477 N473 0.985 . S
H478 N472 0.984 . S
H479 N472 0.984 . S
H480 N468 0.984 . S
H481 N468 0.985 . S
C482 C483 1.363 . S
C482 C488 1.379 . S
C482 N490 1.356 . S
C483 C482 1.363 . S
C483 C489 1.363 . S
C484 C485 1.363 . S
C484 C489 1.379 . S
C484 N491 1.356 . S
C485 C484 1.363 . S
C485 C488 1.363 . S
N486 C488 1.356 . S
N486 H498 0.984 . S
N486 H499 0.985 . S
N487 C489 1.356 . S
N487 H492 0.984 . S
N487 H493 0.985 . S
C488 C482 1.379 . S
C488 C485 1.363 . S
C488 N486 1.356 . S
C489 C483 1.363 . S
C489 C484 1.379 . S
C489 N487 1.356 . S
N490 C482 1.356 . S
N490 H496 0.984 1_556 S
N490 H497 0.984 1_556 S
N491 C484 1.356 . S
N491 H494 0.984 . S
N491 H495 0.985 . S
H492 N487 0.984 . S
H493 N487 0.985 . S
H494 N491 0.984 . S
H495 N491 0.985 . S
H496 N490 0.984 1_554 S
H497 N490 0.984 1_554 S
H498 N486 0.984 . S
H499 N486 0.985 . S
C500 C501 1.363 . S
C500 C506 1.379 . S
C500 N508 1.356 . S
C501 C500 1.363 . S
C501 C507 1.363 . S
C502 C503 1.363 . S
C502 C507 1.379 . S
C502 N509 1.356 . S
C503 C502 1.363 . S
C503 C506 1.363 . S
N504 C506 1.356 . S
N504 H516 0.984 . S
N504 H517 0.985 . S
N505 C507 1.356 . S
N505 H510 0.984 . S
N505 H511 0.985 . S
C506 C500 1.379 . S
C506 C503 1.363 . S
C506 N504 1.356 . S
C507 C501 1.363 . S
C507 C502 1.379 . S
C507 N505 1.356 . S
N508 C500 1.356 . S
N508 H514 0.984 . S
N508 H515 0.984 . S
N509 C502 1.356 . S
N509 H512 0.984 . S
N509 H513 0.985 . S
H510 N505 0.984 . S
H511 N505 0.985 . S
H512 N509 0.984 . S
H513 N509 0.985 . S
H514 N508 0.984 . S
H515 N508 0.984 . S
H516 N504 0.984 . S
H517 N504 0.985 . S
C518 C519 1.363 . S
C518 C524 1.379 . S
C518 N526 1.356 . S
C519 C518 1.363 . S
C519 C525 1.363 . S
C520 C521 1.363 . S
C520 C525 1.379 . S
C520 N527 1.356 1_655 S
C521 C520 1.363 . S
C521 C524 1.363 . S
N522 C524 1.356 . S
N522 H534 0.984 . S
N522 H535 0.985 . S
N523 C525 1.356 . S
N523 H528 0.984 . S
N523 H529 0.985 . S
C524 C518 1.379 . S
C524 C521 1.363 . S
C524 N522 1.356 . S
C525 C519 1.363 . S
C525 C520 1.379 . S
C525 N523 1.356 . S
N526 C518 1.356 . S
N526 H532 0.984 . S
N526 H533 0.984 . S
N527 C520 1.356 1_455 S
N527 H530 0.984 . S
N527 H531 0.985 . S
H528 N523 0.984 . S
H529 N523 0.985 . S
H530 N527 0.984 . S
H531 N527 0.985 . S
H532 N526 0.984 . S
H533 N526 0.984 . S
H534 N522 0.984 . S
H535 N522 0.985 . S
C536 C537 1.363 . S
C536 C542 1.379 . S
C536 N544 1.356 . S
C537 C536 1.363 . S
C537 C543 1.363 . S
C538 C539 1.363 . S
C538 C543 1.379 . S
C538 N545 1.356 . S
C539 C538 1.363 . S
C539 C542 1.363 . S
N540 C542 1.380 . S
N540 H552 0.979 1_455 S
N540 H553 0.967 1_455 S
N541 C543 1.356 . S
N541 H546 0.984 . S
N541 H547 0.985 . S
C542 C536 1.379 . S
C542 C539 1.363 . S
C542 N540 1.380 . S
C543 C537 1.363 . S
C543 C538 1.379 . S
C543 N541 1.356 . S
N544 C536 1.356 . S
N544 H550 0.984 . S
N544 H551 0.984 . S
N545 C538 1.356 . S
N545 H548 0.984 . S
N545 H549 0.985 . S
H546 N541 0.984 . S
H547 N541 0.985 . S
H548 N545 0.984 . S
H549 N545 0.985 . S
H550 N544 0.984 . S
H551 N544 0.984 . S
H552 N540 0.979 1_655 S
H553 N540 0.967 1_655 S
C554 C555 1.362 1_565 S
C554 C560 1.379 . S
C554 N562 1.356 . S
C555 C554 1.362 1_545 S
C555 C561 1.362 1_545 S
C556 C557 1.363 . S
C556 C561 1.379 . S
C556 N563 1.356 . S
C557 C556 1.363 . S
C557 C560 1.363 . S
N558 C560 1.356 . S
N558 H570 0.984 . S
N558 H571 0.985 . S
N559 C561 1.356 1_545 S
N559 H564 0.984 . S
N559 H565 0.985 . S
C560 C554 1.379 . S
C560 C557 1.363 . S
C560 N558 1.356 . S
C561 C555 1.362 1_565 S
C561 C556 1.379 . S
C561 N559 1.356 1_565 S
N562 C554 1.356 . S
N562 H568 0.984 . S
N562 H569 0.984 1_565 S
N563 C556 1.356 . S
N563 H566 0.984 . S
N563 H567 0.985 . S
H564 N559 0.984 . S
H565 N559 0.985 . S
H566 N563 0.984 . S
H567 N563 0.985 . S
H568 N562 0.984 . S
H569 N562 0.984 1_545 S
H570 N558 0.984 . S
H571 N558 0.985 . S
C572 C573 1.363 . S
C572 C578 1.379 . S
C572 N580 1.356 . S
C573 C572 1.363 . S
C573 C579 1.363 . S
C574 C575 1.363 . S
C574 C579 1.379 . S
C574 N581 1.356 . S
C575 C574 1.363 . S
C575 C578 1.363 . S
N576 C578 1.356 . S
N576 H588 0.984 . S
N576 H589 0.985 . S
N577 C579 1.356 . S
N577 H582 0.984 . S
N577 H583 0.985 . S
C578 C572 1.379 . S
C578 C575 1.363 . S
C578 N576 1.356 . S
C579 C573 1.363 . S
C579 C574 1.379 . S
C579 N577 1.356 . S
N580 C572 1.356 . S
N580 H586 0.984 . S
N580 H587 0.984 . S
N581 C574 1.356 . S
N581 H584 0.984 . S
N581 H585 0.985 . S
H582 N577 0.984 . S
H583 N577 0.985 . S
H584 N581 0.984 . S
H585 N581 0.985 . S
H586 N580 0.984 . S
H587 N580 0.984 . S
H588 N576 0.984 . S
H589 N576 0.985 . S
C590 C591 1.363 . S
C590 C596 1.379 . S
C590 N598 1.356 . S
C591 C590 1.363 . S
C591 C597 1.363 . S
C592 C593 1.363 . S
C592 C597 1.379 . S
C592 N599 1.356 . S
C593 C592 1.363 . S
C593 C596 1.363 . S
N594 C596 1.356 . S
N594 H606 0.984 . S
N594 H607 0.985 . S
N595 C597 1.356 . S
N595 H600 0.984 . S
N595 H601 0.985 . S
C596 C590 1.379 . S
C596 C593 1.363 . S
C596 N594 1.356 . S
C597 C591 1.363 . S
C597 C592 1.379 . S
C597 N595 1.356 . S
N598 C590 1.356 . S
N598 H604 0.984 . S
N598 H605 0.984 . S
N599 C592 1.356 . S
N599 H602 0.984 . S
N599 H603 0.985 . S
H600 N595 0.984 . S
H601 N595 0.985 . S
H602 N599 0.984 . S
H603 N599 0.985 . S
H604 N598 0.984 . S
H605 N598 0.984 . S
H606 N594 0.984 . S
H607 N594 0.985 . S
C608 C609 1.363 . S
C608 C614 1.379 . S
C608 N616 1.356 . S
C609 C608 1.363 . S
C609 C615 1.363 . S
C610 C611 1.363 . S
C610 C615 1.379 . S
C610 N617 1.356 1_655 S
C611 C610 1.363 . S
C611 C614 1.363 . S
N612 C614 1.356 . S
N612 H624 0.984 . S
N612 H625 1.001 . S
N613 C615 1.356 . S
N613 H618 0.984 . S
N613 H619 0.985 . S
C614 C608 1.379 . S
C614 C611 1.363 . S
C614 N612 1.356 . S
C615 C609 1.363 . S
C615 C610 1.379 . S
C615 N613 1.356 . S
N616 C608 1.356 . S
N616 H622 0.984 . S
N616 H623 0.984 . S
N617 C610 1.356 1_455 S
N617 H620 0.984 . S
N617 H621 0.985 . S
H618 N613 0.984 . S
H619 N613 0.985 . S
H620 N617 0.984 . S
H621 N617 0.985 . S
H622 N616 0.984 . S
H623 N616 0.984 . S
H624 N612 0.984 . S
H625 N612 1.001 . S
C626 C627 1.363 1_545 S
C626 C632 1.379 . S
C626 N634 1.356 1_545 S
C627 C626 1.363 1_565 S
C627 C633 1.363 1_565 S
C628 C629 1.363 . S
C628 C633 1.379 . S
C628 N635 1.356 . S
C629 C628 1.363 . S
C629 C632 1.363 . S
N630 C632 1.356 . S
N630 H642 0.984 . S
N630 H643 0.985 . S
N631 C633 1.361 . S
N631 H636 0.979 1_545 S
N631 H637 0.986 . S
C632 C626 1.379 . S
C632 C629 1.363 . S
C632 N630 1.356 . S
C633 C627 1.363 1_545 S
C633 C628 1.379 . S
C633 N631 1.361 . S
N634 C626 1.356 1_565 S
N634 H640 0.984 . S
N634 H641 0.984 . S
N635 C628 1.356 . S
N635 H638 0.984 . S
N635 H639 0.985 . S
H636 N631 0.979 1_565 S
H637 N631 0.986 . S
H638 N635 0.984 . S
H639 N635 0.985 . S
H640 N634 0.984 . S
H641 N634 0.984 . S
H642 N630 0.984 . S
H643 N630 0.985 . S
C644 C645 1.363 . S
C644 C650 1.379 . S
C644 N652 1.356 . S
C645 C644 1.363 . S
C645 C651 1.363 . S
C646 C647 1.363 . S
C646 C651 1.379 . S
C646 N653 1.356 . S
C647 C646 1.363 . S
C647 C650 1.363 . S
N648 C650 1.356 . S
N648 H660 0.984 . S
N648 H661 0.985 . S
N649 C651 1.356 . S
N649 H654 0.984 . S
N649 H655 0.985 . S
C650 C644 1.379 . S
C650 C647 1.363 . S
C650 N648 1.356 . S
C651 C645 1.363 . S
C651 C646 1.379 . S
C651 N649 1.356 . S
N652 C644 1.356 . S
N652 H658 0.984 . S
N652 H659 0.984 . S
N653 C646 1.356 . S
N653 H656 0.984 . S
N653 H657 0.985 . S
H654 N649 0.984 . S
H655 N649 0.985 . S
H656 N653 0.984 . S
H657 N653 0.985 . S
H658 N652 0.984 . S
H659 N652 0.984 . S
H660 N648 0.984 . S
H661 N648 0.985 . S
C662 C663 1.363 . S
C662 C668 1.379 . S
C662 N670 1.356 . S
C663 C662 1.363 . S
C663 C669 1.363 . S
C664 C665 1.363 . S
C664 C669 1.379 . S
C664 N671 1.356 . S
C665 C664 1.363 . S
C665 C668 1.363 . S
N666 C668 1.356 . S
N666 H678 0.984 . S
N666 H679 0.985 . S
N667 C669 1.356 . S
N667 H672 0.984 . S
N667 H673 0.985 . S
C668 C662 1.379 . S
C668 C665 1.363 . S
C668 N666 1.356 . S
C669 C663 1.363 . S
C669 C664 1.379 . S
C669 N667 1.356 . S
N670 C662 1.356 . S
N670 H676 0.984 . S
N670 H677 0.984 . S
N671 C664 1.356 . S
N671 H674 0.984 . S
N671 H675 0.985 . S
H672 N667 0.984 . S
H673 N667 0.985 . S
H674 N671 0.984 . S
H675 N671 0.985 . S
H676 N670 0.984 . S
H677 N670 0.984 . S
H678 N666 0.984 . S
H679 N666 0.985 . S
C680 C681 1.363 . S
C680 C686 1.379 . S
C680 N688 1.356 . S
C681 C680 1.363 . S
C681 C687 1.363 . S
C682 C683 1.363 . S
C682 C687 1.379 . S
C682 N689 1.356 . S
C683 C682 1.363 . S
C683 C686 1.363 . S
N684 C686 1.356 . S
N684 H696 0.984 . S
N684 H697 0.985 . S
N685 C687 1.356 . S
N685 H690 0.984 . S
N685 H691 0.985 . S
C686 C680 1.379 . S
C686 C683 1.363 . S
C686 N684 1.356 . S
C687 C681 1.363 . S
C687 C682 1.379 . S
C687 N685 1.356 . S
N688 C680 1.356 . S
N688 H694 0.984 . S
N688 H695 0.984 . S
N689 C682 1.356 . S
N689 H692 0.984 . S
N689 H693 0.985 . S
H690 N685 0.984 . S
H691 N685 0.985 . S
H692 N689 0.984 . S
H693 N689 0.985 . S
H694 N688 0.984 . S
H695 N688 0.984 . S
H696 N684 0.984 . S
H697 N684 0.985 . S
C698 C699 1.363 1_565 S
C698 C704 1.379 . S
C698 N706 1.356 . S
C699 C698 1.363 1_545 S
C699 C705 1.363 . S
C700 C701 1.363 . S
C700 C705 1.379 . S
C700 N707 1.356 . S
C701 C700 1.363 . S
C701 C704 1.363 1_545 S
N702 C704 1.356 . S
N702 H714 0.984 . S
N702 H715 0.985 . S
N703 C705 1.356 . S
N703 H708 0.984 . S
N703 H709 0.985 . S
C704 C698 1.379 . S
C704 C701 1.363 1_565 S
C704 N702 1.356 . S
C705 C699 1.363 . S
C705 C700 1.379 . S
C705 N703 1.356 . S
N706 C698 1.356 . S
N706 H712 0.984 . S
N706 H713 0.984 . S
N707 C700 1.356 . S
N707 H710 0.984 . S
N707 H711 0.985 . S
H708 N703 0.984 . S
H709 N703 0.985 . S
H710 N707 0.984 . S
H711 N707 0.985 . S
H712 N706 0.984 . S
H713 N706 0.984 . S
H714 N702 0.984 . S
H715 N702 0.985 . S
C716 C717 1.363 . S
C716 C722 1.379 . S
C716 N724 1.356 . S
C717 C716 1.363 . S
C717 C723 1.363 . S
C718 C719 1.363 . S
C718 C723 1.379 . S
C718 N725 1.356 . S
C719 C718 1.363 . S
C719 C722 1.363 . S
N720 C722 1.356 . S
N720 H732 0.984 . S
N720 H733 0.985 . S
N721 C723 1.356 . S
N721 H726 0.984 . S
N721 H727 0.985 . S
C722 C716 1.379 . S
C722 C719 1.363 . S
C722 N720 1.356 . S
C723 C717 1.363 . S
C723 C718 1.379 . S
C723 N721 1.356 . S
N724 C716 1.356 . S
N724 H730 0.984 . S
N724 H731 0.984 . S
N725 C718 1.356 . S
N725 H728 0.984 . S
N725 H729 0.985 . S
H726 N721 0.984 . S
H727 N721 0.985 . S
H728 N725 0.984 . S
H729 N725 0.985 . S
H730 N724 0.984 . S
H731 N724 0.984 . S
H732 N720 0.984 . S
H733 N720 0.985 . S
C734 C735 1.363 . S
C734 C740 1.379 . S
C734 N742 1.356 . S
C735 C734 1.363 . S
C735 C741 1.363 . S
C736 C737 1.363 . S
C736 C741 1.379 . S
C736 N743 1.356 . S
C737 C736 1.363 . S
C737 C740 1.363 . S
N738 C740 1.356 . S
N738 H750 0.984 . S
N738 H751 0.985 . S
N739 C741 1.356 . S
N739 H744 0.984 . S
N739 H745 0.985 . S
C740 C734 1.379 . S
C740 C737 1.363 . S
C740 N738 1.356 . S
C741 C735 1.363 . S
C741 C736 1.379 . S
C741 N739 1.356 . S
N742 C734 1.356 . S
N742 H748 0.984 . S
N742 H749 0.984 . S
N743 C736 1.356 . S
N743 H746 0.984 . S
N743 H747 0.985 . S
H744 N739 0.984 . S
H745 N739 0.985 . S
H746 N743 0.984 . S
H747 N743 0.985 . S
H748 N742 0.984 . S
H749 N742 0.984 . S
H750 N738 0.984 . S
H751 N738 0.985 . S
C752 C753 1.363 . S
C752 C758 1.379 . S
C752 N760 1.356 . S
C753 C752 1.363 . S
C753 C759 1.363 . S
C754 C755 1.363 . S
C754 C759 1.379 . S
C754 N761 1.356 . S
C755 C754 1.363 . S
C755 C758 1.363 . S
N756 C758 1.356 . S
N756 H768 0.984 . S
N756 H769 0.985 . S
N757 C759 1.356 . S
N757 H762 0.984 . S
N757 H763 0.985 . S
C758 C752 1.379 . S
C758 C755 1.363 . S
C758 N756 1.356 . S
C759 C753 1.363 . S
C759 C754 1.379 . S
C759 N757 1.356 . S
N760 C752 1.356 . S
N760 H766 0.984 . S
N760 H767 0.984 . S
N761 C754 1.356 . S
N761 H764 0.984 . S
N761 H765 0.985 . S
H762 N757 0.984 . S
H763 N757 0.985 . S
H764 N761 0.984 . S
H765 N761 0.985 . S
H766 N760 0.984 . S
H767 N760 0.984 . S
H768 N756 0.984 . S
H769 N756 0.985 . S
C770 C771 1.363 . S
C770 C776 1.379 . S
C770 N778 1.356 . S
C771 C770 1.363 . S
C771 C777 1.363 1_565 S
C772 C773 1.363 1_545 S
C772 C777 1.379 . S
C772 N779 1.356 . S
C773 C772 1.363 1_565 S
C773 C776 1.363 . S
N774 C776 1.356 . S
N774 H786 0.984 . S
N774 H787 0.985 . S
N775 C777 1.356 . S
N775 H780 0.984 . S
N775 H781 0.985 . S
C776 C770 1.379 . S
C776 C773 1.363 . S
C776 N774 1.356 . S
C777 C771 1.363 1_545 S
C777 C772 1.379 . S
C777 N775 1.356 . S
N778 C770 1.356 . S
N778 H784 0.984 . S
N778 H785 0.984 . S
N779 C772 1.356 . S
N779 H782 0.984 . S
N779 H783 0.985 . S
H780 N775 0.984 . S
H781 N775 0.985 . S
H782 N779 0.984 . S
H783 N779 0.985 . S
H784 N778 0.984 . S
H785 N778 0.984 . S
H786 N774 0.984 . S
H787 N774 0.985 . S
C788 C789 1.363 . S
C788 C794 1.379 . S
C788 N796 1.356 . S
C789 C788 1.363 . S
C789 C795 1.363 . S
C790 C791 1.363 . S
C790 C795 1.379 . S
C790 N797 1.356 . S
C791 C790 1.363 . S
C791 C794 1.363 . S
N792 C794 1.356 . S
N792 H804 0.984 . S
N792 H805 0.985 . S
N793 C795 1.356 . S
N793 H798 0.984 . S
N793 H799 0.985 . S
C794 C788 1.379 . S
C794 C791 1.363 . S
C794 N792 1.356 . S
C795 C789 1.363 . S
C795 C790 1.379 . S
C795 N793 1.356 . S
N796 C788 1.356 . S
N796 H802 0.984 . S
N796 H803 0.984 . S
N797 C790 1.356 . S
N797 H800 0.984 . S
N797 H801 0.985 . S
H798 N793 0.984 . S
H799 N793 0.985 . S
H800 N797 0.984 . S
H801 N797 0.985 . S
H802 N796 0.984 . S
H803 N796 0.984 . S
H804 N792 0.984 . S
H805 N792 0.985 . S
C806 C807 1.363 . S
C806 C812 1.379 . S
C806 N814 1.356 . S
C807 C806 1.363 . S
C807 C813 1.363 . S
C808 C809 1.363 . S
C808 C813 1.379 . S
C808 N815 1.356 . S
C809 C808 1.363 . S
C809 C812 1.363 . S
N810 C812 1.356 . S
N810 H822 0.984 . S
N810 H823 0.985 . S
N811 C813 1.356 . S
N811 H816 0.984 . S
N811 H817 0.985 . S
C812 C806 1.379 . S
C812 C809 1.363 . S
C812 N810 1.356 . S
C813 C807 1.363 . S
C813 C808 1.379 . S
C813 N811 1.356 . S
N814 C806 1.356 . S
N814 H820 0.984 . S
N814 H821 0.984 . S
N815 C808 1.356 . S
N815 H818 0.984 . S
N815 H819 0.985 . S
H816 N811 0.984 . S
H817 N811 0.985 . S
H818 N815 0.984 . S
H819 N815 0.985 . S
H820 N814 0.984 . S
H821 N814 0.984 . S
H822 N810 0.984 . S
H823 N810 0.985 . S
C393 C255 1.888 . S
C395 C320 2.039 . S
C413 C350 2.520 . S
C411 C294 2.347 . S
C431 C360 2.144 . S
C429 C177 1.993 . S
C449 C380 2.077 . S
C447 C216 1.845 . S
C467 C321 2.039 . S
C465 C99 1.888 1_545 S
C483 C138 2.324 . S
C485 C351 2.521 . S
C501 C21 1.976 . S
C503 C361 2.144 . S
C519 C60 1.864 . S
C521 C381 2.077 . S
C539 C313 1.185 . S
C537 C196 1.089 . S
C557 C334 0.728 . S
C555 C235 0.732 1_545 S
C575 C353 1.412 . S
C573 C289 1.284 . S
C591 C157 0.809 . S
C593 C373 0.823 . S
C609 C40 1.103 . S
C611 C314 1.189 1_655 S
C629 C333 0.727 . S
C627 C79 0.730 . S
C647 C354 1.412 . S
C645 C133 1.292 . S
C663 C1 0.809 . S
C665 C374 0.823 . S
C681 C211 2.367 . S
C683 C331 2.693 . S
C699 C250 2.068 . S
C701 C341 2.445 . S
C719 C371 2.929 . S
C717 C274 2.565 . S
C737 C391 2.789 . S
C735 C172 2.469 . S
C753 C55 2.363 . S
C755 C330 2.701 . S
C773 C340 2.444 . S
C771 C94 2.068 1_565 S
C791 C370 2.929 . S
C789 C118 2.555 . S
C807 C16 2.475 . S
C809 C390 2.788 . S
