# Generated by pormake.
# Topology hwx, (6,3)-cn, num edge types: 1
# Building blocks:
#     Node 0, Type 0, BuildingBlock: OJICUG_clean_sbu_0, # of connection points: 6
#     Node 1, Type 0, BuildingBlock: OJICUG_clean_sbu_0, # of connection points: 6
#     Node 2, Type 0, BuildingBlock: OJICUG_clean_sbu_0, # of connection points: 6
#     Node 3, Type 0, BuildingBlock: OJICUG_clean_sbu_0, # of connection points: 6
#     Node 4, Type 1, BuildingBlock: VETTIZ_charged_linker_0, # of connection points: 3
#     Node 5, Type 1, BuildingBlock: VETTIZ_charged_linker_0, # of connection points: 3
#     Node 6, Type 1, BuildingBlock: VETTIZ_charged_linker_0, # of connection points: 3
#     Node 7, Type 1, BuildingBlock: VETTIZ_charged_linker_0, # of connection points: 3
#     Node 8, Type 1, BuildingBlock: VETTIZ_charged_linker_0, # of connection points: 3
#     Node 9, Type 1, BuildingBlock: VETTIZ_charged_linker_0, # of connection points: 3
#     Node 10, Type 1, BuildingBlock: VETTIZ_charged_linker_0, # of connection points: 3
#     Node 11, Type 1, BuildingBlock: VETTIZ_charged_linker_0, # of connection points: 3
#     Edge 12, Type (0, 1), BuildingBlock: XIVTED_clean_linker_0, # of connection points: 2
#     Edge 13, Type (0, 1), BuildingBlock: XIVTED_clean_linker_0, # of connection points: 2
#     Edge 14, Type (0, 1), BuildingBlock: XIVTED_clean_linker_0, # of connection points: 2
#     Edge 15, Type (0, 1), BuildingBlock: XIVTED_clean_linker_0, # of connection points: 2
#     Edge 16, Type (0, 1), BuildingBlock: XIVTED_clean_linker_0, # of connection points: 2
#     Edge 17, Type (0, 1), BuildingBlock: XIVTED_clean_linker_0, # of connection points: 2
#     Edge 18, Type (0, 1), BuildingBlock: XIVTED_clean_linker_0, # of connection points: 2
#     Edge 19, Type (0, 1), BuildingBlock: XIVTED_clean_linker_0, # of connection points: 2
#     Edge 20, Type (0, 1), BuildingBlock: XIVTED_clean_linker_0, # of connection points: 2
#     Edge 21, Type (0, 1), BuildingBlock: XIVTED_clean_linker_0, # of connection points: 2
#     Edge 22, Type (0, 1), BuildingBlock: XIVTED_clean_linker_0, # of connection points: 2
#     Edge 23, Type (0, 1), BuildingBlock: XIVTED_clean_linker_0, # of connection points: 2
#     Edge 24, Type (0, 1), BuildingBlock: XIVTED_clean_linker_0, # of connection points: 2
#     Edge 25, Type (0, 1), BuildingBlock: XIVTED_clean_linker_0, # of connection points: 2
#     Edge 26, Type (0, 1), BuildingBlock: XIVTED_clean_linker_0, # of connection points: 2
#     Edge 27, Type (0, 1), BuildingBlock: XIVTED_clean_linker_0, # of connection points: 2
#     Edge 28, Type (0, 1), BuildingBlock: XIVTED_clean_linker_0, # of connection points: 2
#     Edge 29, Type (0, 1), BuildingBlock: XIVTED_clean_linker_0, # of connection points: 2
#     Edge 30, Type (0, 1), BuildingBlock: XIVTED_clean_linker_0, # of connection points: 2
#     Edge 31, Type (0, 1), BuildingBlock: XIVTED_clean_linker_0, # of connection points: 2
#     Edge 32, Type (0, 1), BuildingBlock: XIVTED_clean_linker_0, # of connection points: 2
#     Edge 33, Type (0, 1), BuildingBlock: XIVTED_clean_linker_0, # of connection points: 2
#     Edge 34, Type (0, 1), BuildingBlock: XIVTED_clean_linker_0, # of connection points: 2
#     Edge 35, Type (0, 1), BuildingBlock: XIVTED_clean_linker_0, # of connection points: 2
# Relax obj value: 0.080
# Max RMSD: 0.104
# Mean RMSD: 0.097
data_MOF--net-hwx--node1-OJICUG_clean_sbu_0--node2-VETTIZ_charged_linker_0--edge1-XIVTED_clean_linker_0
_symmetry_space_group_name_H-M    P1
_symmetry_Int_Tables_number       1
_symmetry_cell_setting            triclinic
loop_
_symmetry_equiv_pos_as_xyz
'x, y, z'
_cell_length_a     60.8604
_cell_length_b     60.839665
_cell_length_c     27.666198
_cell_angle_alpha  90.089583
_cell_angle_beta   89.897813
_cell_angle_gamma 90.007993
loop_
_atom_site_label
_atom_site_type_symbol
_atom_site_fract_x
_atom_site_fract_y
_atom_site_fract_z
_atom_type_partial_charge
Sc0 Sc 0.21311 0.21744 0.04878 0.0
Sc1 Sc 0.18346 0.17859 0.98059 0.0
Sc2 Sc 0.2195 0.21591 0.92324 0.0
O3 O 0.20535 0.20392 0.98412 0.0
C4 C 0.21345 0.26013 0.98195 0.0
C5 C 0.16172 0.21145 0.0578 0.0
C6 C 0.16976 0.20829 0.89061 0.0
C7 C 0.20855 0.16659 0.07648 0.0
C8 C 0.25956 0.21407 -0.00203 0.0
C9 C 0.21954 0.16428 0.90268 0.0
O10 O 0.21417 0.25044 0.02239 0.0
O11 O 0.16118 0.1943 0.03129 0.0
O12 O 0.18873 0.21674 0.88556 0.0
O13 O 0.21304 0.18653 0.0855 0.0
O14 O 0.25163 0.21609 0.95566 0.0
O15 O 0.2033 0.15996 0.93007 0.0
O16 O 0.24774 0.2134 0.03594 0.0
O17 O 0.19934 0.16036 0.03765 0.0
O18 O 0.22705 0.18359 0.89728 0.0
O19 O 0.17912 0.22249 0.06534 0.0
O20 O 0.21382 0.24986 0.94201 0.0
O21 O 0.16524 0.19433 0.92336 0.0
Sc22 Sc 0.27537 0.71534 0.43848 0.0
Sc23 Sc 0.30991 0.68482 0.51601 0.0
Sc24 Sc 0.27202 0.72314 0.56324 0.0
O25 O 0.28587 0.70773 0.50591 0.0
C26 C 0.27651 0.76228 0.48659 0.0
C27 C 0.32683 0.70827 0.42073 0.0
C28 C 0.32274 0.72287 0.59087 0.0
C29 C 0.27903 0.66322 0.43497 0.0
C30 C 0.23029 0.71602 0.49817 0.0
C31 C 0.27778 0.67442 0.6039 0.0
O32 O 0.27975 0.75013 0.44982 0.0
O33 O 0.33065 0.69839 0.46023 0.0
O34 O 0.30358 0.73114 0.59201 0.0
O35 O 0.27019 0.6813 0.42266 0.0
O36 O 0.23921 0.71647 0.53955 0.0
O37 O 0.29214 0.66843 0.57319 0.0
O38 O 0.24127 0.71712 0.45915 0.0
O39 O 0.2945 0.66193 0.46592 0.0
O40 O 0.26991 0.69371 0.60511 0.0
O41 O 0.30776 0.71431 0.40795 0.0
O42 O 0.27222 0.7546 0.52824 0.0
O43 O 0.32745 0.70557 0.56695 0.0
Sc44 Sc 0.77301 0.77605 0.93305 0.0
Sc45 Sc 0.81003 0.81122 0.99307 0.0
Sc46 Sc 0.77391 0.77711 0.05859 0.0
O47 O 0.78575 0.78825 0.99489 0.0
C48 C 0.73025 0.78061 0.00012 0.0
C49 C 0.77564 0.82726 0.91288 0.0
C50 C 0.78269 0.82758 0.08368 0.0
C51 C 0.82347 0.78173 0.90334 0.0
C52 C 0.77547 0.73322 0.99493 0.0
C53 C 0.82549 0.77722 0.07458 0.0
O54 O 0.73992 0.77536 0.96099 0.0
O55 O 0.79254 0.83058 0.93923 0.0
O56 O 0.77528 0.8086 0.09323 0.0
O57 O 0.80397 0.77522 0.89579 0.0
O58 O 0.77112 0.74371 0.03352 0.0
O59 O 0.82935 0.7935 0.04673 0.0
O60 O 0.77886 0.74269 0.95473 0.0
O61 O 0.82867 0.79386 0.93885 0.0
O62 O 0.8064 0.76932 0.0813 0.0
O63 O 0.76652 0.80857 0.90831 0.0
O64 O 0.74054 0.78415 0.03925 0.0
O65 O 0.79455 0.83162 0.047 0.0
Sc66 Sc 0.71485 0.27868 0.56833 0.0
Sc67 Sc 0.67948 0.31541 0.50743 0.0
Sc68 Sc 0.71425 0.27946 0.44193 0.0
O69 O 0.70278 0.29123 0.50581 0.0
C70 C 0.75811 0.28226 0.50348 0.0
C71 C 0.71229 0.32992 0.59168 0.0
C72 C 0.70904 0.33057 0.41871 0.0
C73 C 0.66375 0.28374 0.59254 0.0
C74 C 0.71119 0.23555 0.50457 0.0
C75 C 0.66329 0.28465 0.42063 0.0
O76 O 0.74846 0.27988 0.54391 0.0
O77 O 0.69703 0.33421 0.5617 0.0
O78 O 0.71631 0.3114 0.41043 0.0
O79 O 0.68278 0.27587 0.59965 0.0
O80 O 0.71313 0.24563 0.46464 0.0
O81 O 0.65972 0.29937 0.45248 0.0
O82 O 0.71098 0.24533 0.54509 0.0
O83 O 0.65986 0.29833 0.56081 0.0
O84 O 0.68187 0.27569 0.41373 0.0
O85 O 0.71995 0.31072 0.59769 0.0
O86 O 0.74789 0.28289 0.46354 0.0
O87 O 0.69615 0.33514 0.45351 0.0
C88 C 0.2286 0.55158 0.86981 0.0
C89 C 0.23122 0.57453 0.87117 0.0
C90 C 0.23027 0.58551 0.91602 0.0
C91 C 0.22539 0.55082 0.95725 0.0
C92 C 0.22562 0.54012 0.91318 0.0
C93 C 0.22287 0.51567 0.91853 0.0
H94 H 0.21342 0.42725 0.06463 0.0
C95 C 0.22335 0.53411 0.9955 0.0
C96 C 0.22172 0.51349 0.97316 0.0
H97 H 0.21384 0.42906 0.90816 0.0
H98 H 0.21677 0.46844 0.9101 0.0
H99 H 0.25243 0.45981 0.07701 0.0
H100 H 0.18267 0.47188 0.08239 0.0
H101 H 0.19547 0.48444 0.13261 0.0
H102 H 0.19705 0.45511 0.12538 0.0
H103 H 0.23651 0.45365 0.12991 0.0
H104 H 0.24815 0.48059 0.12003 0.0
C105 C 0.24357 0.50436 0.89729 0.0
C106 C 0.20098 0.50897 0.89395 0.0
C107 C 0.2283 0.55767 0.17058 0.0
C108 C 0.2299 0.54609 0.21418 0.0
C109 C 0.22874 0.52298 0.21368 0.0
C110 C 0.22579 0.51158 0.16991 0.0
C111 C 0.22444 0.52347 0.12634 0.0
C112 C 0.22587 0.54613 0.12734 0.0
C113 C 0.22583 0.55611 0.07779 0.0
C114 C 0.22388 0.53574 0.04661 0.0
C115 C 0.2228 0.51668 0.07508 0.0
C116 C 0.24809 0.56813 0.07025 0.0
C117 C 0.20529 0.57102 0.07342 0.0
C118 C 0.21424 0.43608 0.03072 0.0
C119 C 0.21333 0.42489 0.98616 0.0
C120 C 0.21413 0.43718 0.94301 0.0
C121 C 0.21604 0.46009 0.94418 0.0
C122 C 0.21736 0.47093 0.98894 0.0
C123 C 0.21636 0.45897 0.03126 0.0
C124 C 0.21865 0.47325 0.07545 0.0
C125 C 0.22064 0.49581 0.05256 0.0
C126 C 0.21996 0.49429 0.00191 0.0
C127 C 0.23991 0.4665 0.10244 0.0
C128 C 0.19744 0.47107 0.10596 0.0
H129 H 0.22708 0.5831 0.99193 0.0
H130 H 0.22896 0.54274 0.8358 0.0
H131 H 0.18864 0.52242 0.89632 0.0
H132 H 0.19298 0.4948 0.91171 0.0
H133 H 0.2035 0.50516 0.85506 0.0
H134 H 0.25862 0.51391 0.90616 0.0
H135 H 0.24252 0.50309 0.85731 0.0
H136 H 0.24652 0.48784 0.91235 0.0
H137 H 0.22967 0.57544 0.16997 0.0
H138 H 0.23007 0.51382 0.2471 0.0
H139 H 0.2249 0.49398 0.17157 0.0
H140 H 0.2615 0.56004 0.09097 0.0
H141 H 0.24716 0.58549 0.08254 0.0
H142 H 0.25386 0.56771 0.03239 0.0
H143 H 0.19103 0.56371 0.09285 0.0
H144 H 0.19964 0.573 0.03575 0.0
H145 H 0.20838 0.58751 0.08932 0.0
H146 H 0.23243 0.60316 0.91806 0.0
C147 C 0.22734 0.5738 0.95898 0.0
C148 C 0.05315 0.70828 0.5117 0.0
C149 C 0.06652 0.70453 0.47094 0.0
C150 C 0.05651 0.70014 0.42603 0.0
C151 C 0.02058 0.7048 0.46195 0.0
C152 C 0.03028 0.70817 0.50643 0.0
C153 C 0.0136 0.71209 0.54572 0.0
H154 H 0.90693 0.72501 0.60867 0.0
C155 C 0.99663 0.70645 0.46821 0.0
C156 C 0.99234 0.71023 0.5174 0.0
H157 H 0.96416 0.73321 0.69945 0.0
H158 H 0.98755 0.72155 0.63352 0.0
H159 H 0.9281 0.75067 0.5211 0.0
H160 H 0.92137 0.68181 0.55258 0.0
H161 H 0.91806 0.68439 0.48977 0.0
H162 H 0.89886 0.69781 0.53005 0.0
H163 H 0.90222 0.73653 0.52027 0.0
H164 H 0.91957 0.73769 0.46777 0.0
C165 C 0.01719 0.73555 0.56615 0.0
C166 C 0.01584 0.69354 0.58361 0.0
C167 C 0.94719 0.71055 0.32099 0.0
C168 C 0.9243 0.71228 0.31615 0.0
C169 C 0.91083 0.71013 0.35732 0.0
C170 C 0.92008 0.70767 0.40319 0.0
C171 C 0.94302 0.70749 0.40797 0.0
C172 C 0.95617 0.70784 0.36721 0.0
C173 C 0.98014 0.70569 0.37943 0.0
C174 C 0.97918 0.70582 0.43438 0.0
C175 C 0.95743 0.70729 0.45072 0.0
C176 C 0.99233 0.72606 0.35928 0.0
C177 C 0.9886 0.68343 0.35913 0.0
C178 C 0.92451 0.72444 0.61454 0.0
C179 C 0.93366 0.73039 0.6593 0.0
C180 C 0.95661 0.7287 0.66545 0.0
C181 C 0.97019 0.72212 0.62694 0.0
C182 C 0.96077 0.71743 0.58167 0.0
C183 C 0.93825 0.71847 0.57632 0.0
C184 C 0.93102 0.71455 0.52518 0.0
C185 C 0.95295 0.71079 0.50049 0.0
C186 C 0.97031 0.71241 0.53369 0.0
C187 C 0.91949 0.73579 0.50732 0.0
C188 C 0.91643 0.69367 0.52401 0.0
H189 H 0.02705 0.69711 0.38617 0.0
H190 H 0.06026 0.71182 0.54671 0.0
H191 H 0.01863 0.67742 0.56555 0.0
H192 H 0.00086 0.6913 0.60559 0.0
H193 H 0.02996 0.69664 0.60807 0.0
H194 H 0.02305 0.74695 0.53744 0.0
H195 H 0.02967 0.73554 0.5954 0.0
H196 H 0.00192 0.74315 0.57981 0.0
H197 H 0.9578 0.71164 0.28962 0.0
H198 H 0.89313 0.71134 0.35425 0.0
H199 H 0.90901 0.70675 0.43332 0.0
H200 H 0.9833 0.74138 0.36879 0.0
H201 H 0.99365 0.72522 0.31927 0.0
H202 H 0.00902 0.72805 0.37405 0.0
H203 H 0.97491 0.6718 0.35145 0.0
H204 H -0.00085 0.67464 0.38538 0.0
H205 H -0.00215 0.68573 0.32487 0.0
H206 H 0.06636 0.69664 0.39431 0.0
C207 C 0.03365 0.70025 0.42136 0.0
C208 C 0.77103 0.44806 0.15483 0.0
C209 C 0.76678 0.42533 0.15576 0.0
C210 C 0.77131 0.41263 0.11425 0.0
C211 C 0.78015 0.44548 0.06952 0.0
C212 C 0.77775 0.45778 0.11125 0.0
C213 C 0.78183 0.48186 0.10235 0.0
H214 H 0.79036 0.56486 0.94187 0.0
C215 C 0.78402 0.46064 0.02895 0.0
C216 C 0.78542 0.48197 0.04788 0.0
H217 H 0.79432 0.56851 0.09787 0.0
H218 H 0.79236 0.52897 0.10283 0.0
H219 H 0.82432 0.52207 0.93155 0.0
H220 H 0.75414 0.53046 0.936 0.0
H221 H 0.75917 0.5087 0.89592 0.0
H222 H 0.76972 0.53571 0.88214 0.0
H223 H 0.80891 0.53504 0.88421 0.0
H224 H 0.8127 0.50567 0.88572 0.0
C225 C 0.80281 0.48876 0.13029 0.0
C226 C 0.76092 0.49475 0.11707 0.0
C227 C 0.77704 0.43178 0.85789 0.0
C228 C 0.7752 0.44215 0.81281 0.0
C229 C 0.77786 0.4651 0.80984 0.0
C230 C 0.7821 0.47755 0.85156 0.0
C231 C 0.78323 0.46695 0.89671 0.0
C232 C 0.78079 0.44442 0.89916 0.0
C233 C 0.78067 0.43603 0.95017 0.0
C234 C 0.78374 0.45724 0.97818 0.0
C235 C 0.78529 0.47525 0.94674 0.0
C236 C 0.80048 0.42028 0.95654 0.0
C237 C 0.75787 0.42537 0.95955 0.0
C238 C 0.79123 0.55719 0.97711 0.0
C239 C 0.79228 0.56988 0.01954 0.0
C240 C 0.79307 0.55915 0.06467 0.0
C241 C 0.79203 0.53619 0.06752 0.0
C242 C 0.7901 0.52384 0.02487 0.0
C243 C 0.7903 0.53431 0.98061 0.0
C244 C 0.78846 0.51849 0.93907 0.0
C245 C 0.78736 0.49679 0.96576 0.0
C246 C 0.7879 0.50006 0.01601 0.0
C247 C 0.80958 0.52039 0.90808 0.0
C248 C 0.76689 0.52355 0.91141 0.0
H249 H 0.78051 0.41207 0.04058 0.0
H250 H 0.76807 0.45816 0.18643 0.0
H251 H 0.746 0.48661 0.10226 0.0
H252 H 0.76063 0.5117 0.10316 0.0
H253 H 0.7592 0.49547 0.15702 0.0
H254 H 0.81368 0.47445 0.1376 0.0
H255 H 0.79863 0.49634 0.16569 0.0
H256 H 0.81318 0.50029 0.10933 0.0
H257 H 0.77451 0.41422 0.86138 0.0
H258 H 0.77647 0.47337 0.77533 0.0
H259 H 0.78383 0.49498 0.84718 0.0
H260 H 0.81449 0.42523 0.93306 0.0
H261 H 0.79602 0.40313 0.94687 0.0
H262 H 0.80721 0.4206 0.99366 0.0
H263 H 0.74464 0.43468 0.94089 0.0
H264 H 0.75293 0.42541 -0.00215 0.0
H265 H 0.75739 0.4082 0.94589 0.0
H266 H 0.76894 0.39498 0.11459 0.0
C267 C 0.77804 0.42256 0.07128 0.0
C268 C 0.0339 0.25788 0.31478 0.0
C269 C 0.05566 0.25097 0.30799 0.0
C270 C 0.06968 0.24871 0.34796 0.0
C271 C 0.04021 0.25975 0.40138 0.0
C272 C 0.0265 0.26213 0.3619 0.0
C273 C 0.00367 0.26895 0.37647 0.0
H274 H 0.93017 0.28944 0.55456 0.0
C275 C 0.02739 0.26472 0.44529 0.0
C276 C 0.00597 0.27009 0.43113 0.0
H277 H 0.91946 0.28852 0.3999 0.0
H278 H 0.95788 0.28189 0.38646 0.0
H279 H 0.95946 0.24762 0.55694 0.0
H280 H 0.97818 0.31591 0.55092 0.0
H281 H 0.99475 0.30263 0.59404 0.0
H282 H 0.96544 0.30373 0.603 0.0
H283 H 0.95763 0.26526 0.60884 0.0
H284 H 0.98264 0.25085 0.59387 0.0
C285 C 0.98754 0.25061 0.3604 0.0
C286 C -0.001 0.29183 0.35425 0.0
C287 C 0.06386 0.25786 0.6087 0.0
C288 C 0.0562 0.25975 0.65636 0.0
C289 C 0.03405 0.26534 0.66468 0.0
C290 C 0.01978 0.26918 0.62573 0.0
C291 C 0.02773 0.26708 0.57811 0.0
C292 C 0.04944 0.26145 0.57042 0.0
C293 C 0.05498 0.25897 0.51786 0.0
C294 C 0.03306 0.2643 0.49494 0.0
C295 C 0.01717 0.26914 0.53023 0.0
C296 C 0.06196 0.23476 0.50872 0.0
C297 C 0.07272 0.27631 0.50501 0.0
C298 C 0.93609 0.28783 0.51779 0.0
C299 C 0.92165 0.2895 0.4783 0.0
C300 C 0.93018 0.28762 0.43102 0.0
C301 C 0.95252 0.28351 0.42324 0.0
C302 C 0.96653 0.28102 0.46308 0.0
C303 C 0.95835 0.2835 0.50938 0.0
C304 C 0.97563 0.27984 0.54732 0.0
C305 C 0.99545 0.27457 0.51607 0.0
C306 C 0.98998 0.27524 0.46678 0.0
C307 C 0.96856 0.25999 0.57881 0.0
C308 C 0.97869 0.30155 0.57575 0.0
H309 H 0.07356 0.25103 0.42364 0.0
H310 H 0.02291 0.25969 0.28428 0.0
H311 H 0.0141 0.30215 0.35412 0.0
H312 H 0.98686 0.30144 0.37517 0.0
H313 H 0.99328 0.29032 0.31628 0.0
H314 H 0.99533 0.23412 0.36331 0.0
H315 H 0.98243 0.25288 0.32221 0.0
H316 H 0.97275 0.24955 0.38342 0.0
H317 H 0.08069 0.25309 0.60123 0.0
H318 H 0.02785 0.26686 0.70126 0.0
H319 H 0.0031 0.27345 0.63417 0.0
H320 H 0.054 0.22339 0.53493 0.0
H321 H 0.08002 0.2327 0.51238 0.0
H322 H 0.05676 0.22856 0.47295 0.0
H323 H 0.06958 0.29203 0.52444 0.0
H324 H 0.07281 0.28075 0.46633 0.0
H325 H 0.08936 0.27053 0.5154 0.0
H326 H 0.08655 0.24346 0.34292 0.0
C327 C 0.0621 0.25312 0.39464 0.0
C328 C 0.71724 0.95229 0.66273 0.0
C329 C 0.71882 0.92936 0.66755 0.0
C330 C 0.71653 0.91592 0.62638 0.0
C331 C 0.71346 0.94811 0.57588 0.0
C332 C 0.71422 0.96127 0.61659 0.0
C333 C 0.71178 0.98524 0.6044 0.0
H334 H 0.70648 0.06466 0.43414 0.0
C335 C 0.71228 0.96248 0.53318 0.0
C336 C 0.71078 0.98423 0.54952 0.0
H337 H 0.70233 0.07161 0.58969 0.0
H338 H 0.70471 0.03243 0.59885 0.0
H339 H 0.74502 0.03187 0.43603 0.0
H340 H 0.67556 0.01989 0.4241 0.0
H341 H 0.68955 0.00411 0.3801 0.0
H342 H 0.69167 0.03361 0.3788 0.0
H343 H 0.73108 0.0339 0.37918 0.0
H344 H 0.74226 0.00818 0.40043 0.0
C345 C 0.73257 -0.00255 0.62231 0.0
C346 C 0.68997 0.99367 0.62685 0.0
C347 C 0.72725 0.92993 0.36822 0.0
C348 C 0.73198 0.9393 0.32301 0.0
C349 C 0.72863 0.96205 0.31653 0.0
C350 C 0.72186 0.97534 0.35538 0.0
C351 C 0.71866 0.96581 0.40119 0.0
C352 C 0.72109 0.9434 0.40672 0.0
C353 C 0.71851 0.93612 0.45823 0.0
C354 C 0.71447 0.95796 0.4831 0.0
C355 C 0.71441 0.97526 0.44957 0.0
C356 C 0.74048 0.92542 0.47412 0.0
C357 C 0.69824 0.92074 0.46156 0.0
C358 C 0.70612 0.05777 0.4702 0.0
C359 C 0.70406 0.07135 0.51118 0.0
C360 C 0.70346 0.06159 0.5574 0.0
C361 C 0.70503 0.0388 0.56275 0.0
C362 C 0.70747 0.02554 0.52156 0.0
C363 C 0.70785 0.03502 0.47623 0.0
C364 C 0.71119 0.01833 0.43673 0.0
C365 C 0.71193 -0.00277 0.46585 0.0
C366 C 0.70996 0.00163 0.51552 0.0
C367 C 0.73342 0.02326 0.41136 0.0
C368 C 0.69104 0.01899 0.40276 0.0
H369 H 0.71264 0.9141 0.55055 0.0
H370 H 0.71847 0.96292 0.69406 0.0
H371 H 0.67796 0.98008 0.63212 0.0
H372 H 0.68137 0.00549 0.6031 0.0
H373 H 0.69278 0.00142 0.66269 0.0
H374 H 0.74762 0.98787 0.61339 0.0
H375 H 0.7321 -0.00023 0.66214 0.0
H376 H 0.7349 0.01363 0.60514 0.0
H377 H 0.72907 0.91243 0.37419 0.0
H378 H 0.73208 0.9697 0.28203 0.0
H379 H 0.72002 0.9926 0.34863 0.0
H380 H 0.75472 0.93496 0.46006 0.0
H381 H 0.7419 0.90838 0.45999 0.0
H382 H 0.74282 0.92499 0.51355 0.0
H383 H 0.686 0.92452 0.43291 0.0
H384 H 0.68909 0.9228 0.4959 0.0
H385 H 0.70304 0.90323 0.45733 0.0
H386 H 0.71767 0.8982 0.62939 0.0
C387 C 0.71379 0.92517 0.58062 0.0
C388 C 0.54655 0.22377 0.15633 0.0
C389 C 0.5693 0.22783 0.15632 0.0
C390 C 0.5816 0.22331 0.11424 0.0
C391 C 0.5483 0.21495 0.07081 0.0
C392 C 0.53638 0.21732 0.11308 0.0
C393 C 0.51216 0.21388 0.105 0.0
H394 H 0.42759 0.20961 0.9481 0.0
C395 C 0.53274 0.21189 0.03071 0.0
C396 C 0.51153 0.21101 0.05034 0.0
H397 H 0.42565 0.20166 0.10358 0.0
H398 H 0.46515 0.20382 0.10664 0.0
H399 H 0.46358 0.24597 0.9444 0.0
H400 H 0.46975 0.1756 0.93187 0.0
H401 H 0.48546 0.18809 0.88587 0.0
H402 H 0.45619 0.1923 0.88752 0.0
H403 H 0.45646 0.23169 0.88983 0.0
H404 H 0.48419 0.24078 0.90147 0.0
C405 C 0.49983 0.23487 0.12151 0.0
C406 C 0.50503 0.19269 0.13195 0.0
C407 C 0.56101 0.21937 0.85946 0.0
C408 C 0.55061 0.22265 0.81483 0.0
C409 C 0.52751 0.22172 0.81238 0.0
C410 C 0.51497 0.21771 0.85415 0.0
C411 C 0.52567 0.21502 0.89886 0.0
C412 C 0.54833 0.21589 0.90079 0.0
C413 C 0.557 0.21466 0.95146 0.0
C414 C 0.53578 0.21274 0.9799 0.0
C415 C 0.51751 0.21264 0.949 0.0
C416 C 0.56968 0.23631 0.96254 0.0
C417 C 0.571 0.1935 0.95585 0.0
C418 C 0.43562 0.20801 0.98282 0.0
C419 C 0.42336 0.20569 0.02572 0.0
C420 C 0.4346 0.20395 0.0701 0.0
C421 C 0.45755 0.20504 0.07184 0.0
C422 C 0.46945 0.20795 0.02884 0.0
C423 C 0.45854 0.20887 0.98518 0.0
C424 C 0.47403 0.21117 0.94305 0.0
C425 C 0.49603 0.21111 0.96873 0.0
C426 C 0.49316 0.20973 0.01904 0.0
C427 C 0.46936 0.23344 0.91792 0.0
C428 C 0.47124 0.19084 0.90993 0.0
H429 H 0.5814 0.2145 0.04035 0.0
H430 H 0.53675 0.22679 0.18835 0.0
H431 H 0.51926 0.18177 0.13971 0.0
H432 H 0.49373 0.18246 0.11005 0.0
H433 H 0.49706 0.19661 0.16707 0.0
H434 H 0.50803 0.2498 0.1069 0.0
H435 H 0.49963 0.23619 0.16156 0.0
H436 H 0.4827 0.23555 0.10878 0.0
H437 H 0.57871 0.22063 0.8627 0.0
H438 H 0.51921 0.22427 0.77825 0.0
H439 H 0.49744 0.2173 0.85023 0.0
H440 H 0.56518 0.24976 0.93721 0.0
H441 H 0.58773 0.23392 0.95963 0.0
H442 H 0.56579 0.24309 -0.00134 0.0
H443 H 0.56308 0.1796 0.93634 0.0
H444 H 0.57274 0.18784 0.99359 0.0
H445 H 0.5876 0.19592 0.93997 0.0
H446 H 0.59926 0.22559 0.11385 0.0
C447 C 0.57124 0.21687 0.07158 0.0
C448 C 0.27253 0.05033 0.33911 0.0
C449 C 0.26972 0.07328 0.3393 0.0
C450 C 0.27564 0.08531 0.38089 0.0
C451 C 0.28312 0.05157 0.4236 0.0
C452 C 0.27933 0.03985 0.38163 0.0
C453 C 0.28209 0.0155 0.38902 0.0
H454 H 0.29206 0.93024 0.54324 0.0
C455 C 0.28684 0.03578 0.46306 0.0
C456 C 0.28669 0.01462 0.443 0.0
H457 H 0.28886 0.92852 0.387 0.0
H458 H 0.28891 0.96809 0.38464 0.0
H459 H 0.32669 0.97256 0.55196 0.0
H460 H 0.25629 0.9656 0.55624 0.0
H461 H 0.2629 0.98693 0.59631 0.0
H462 H 0.27302 0.95954 0.60784 0.0
H463 H 0.3122 0.95851 0.59936 0.0
H464 H 0.31628 0.98781 0.60127 0.0
C465 C 0.30207 0.00769 0.35865 0.0
C466 C 0.26013 0.00407 0.37593 0.0
C467 C 0.28409 0.06314 0.6358 0.0
C468 C 0.28237 0.05244 0.68054 0.0
C469 C 0.2843 0.02938 0.68228 0.0
C470 C 0.28753 0.01716 0.6397 0.0
C471 C 0.28835 0.02811 0.59493 0.0
C472 C 0.28679 0.05076 0.59371 0.0
C473 C 0.28618 0.05965 0.54315 0.0
C474 C 0.28776 0.03861 0.51393 0.0
C475 C 0.28912 0.02021 0.54433 0.0
C476 C 0.30657 0.07455 0.53564 0.0
C477 C 0.26377 0.07143 0.53634 0.0
C478 C 0.29134 0.93836 0.50848 0.0
C479 C 0.29034 0.92617 0.46525 0.0
C480 C 0.28984 0.93746 0.4208 0.0
C481 C 0.2897 0.96046 0.41949 0.0
C482 C 0.28986 0.97234 0.46305 0.0
C483 C 0.29104 0.96132 0.50655 0.0
C484 C 0.29081 0.97669 0.5492 0.0
C485 C 0.28978 -0.00122 0.52398 0.0
C486 C 0.28891 0.99608 0.47358 0.0
C487 C 0.31255 0.97377 0.57736 0.0
C488 C 0.26981 0.97199 0.57938 0.0
H489 H 0.28595 0.08463 0.45381 0.0
H490 H 0.26844 0.04065 0.3075 0.0
H491 H 0.24599 0.01337 0.39125 0.0
H492 H 0.25869 0.98732 0.39067 0.0
H493 H 0.25793 0.00321 0.33612 0.0
H494 H 0.31383 0.02133 0.35172 0.0
H495 H 0.29682 0.00115 0.32299 0.0
H496 H 0.31192 0.99506 0.37757 0.0
H497 H 0.28213 0.0808 0.6332 0.0
H498 H 0.28302 0.02082 0.71648 0.0
H499 H 0.28871 -0.00037 0.64313 0.0
H500 H 0.32065 0.06896 0.5581 0.0
H501 H 0.30298 0.09185 0.54576 0.0
H502 H 0.31283 0.07403 0.49807 0.0
H503 H 0.25039 0.0623 0.55503 0.0
H504 H 0.2584 0.0724 0.49844 0.0
H505 H 0.2642 0.08832 0.55164 0.0
H506 H 0.27442 0.10308 0.38141 0.0
C507 C 0.28238 0.0746 0.42292 0.0
C508 C 0.55363 0.78908 0.02707 0.0
C509 C 0.56619 0.79372 0.98558 0.0
C510 C 0.55531 0.79835 0.9418 0.0
C511 C 0.52015 0.79196 0.98012 0.0
C512 C 0.53072 0.78839 0.02355 0.0
C513 C 0.5149 0.78309 0.06372 0.0
H514 H 0.41061 0.76115 0.13267 0.0
C515 C 0.49641 0.78901 0.98802 0.0
C516 C 0.49314 0.78422 0.03716 0.0
H517 H 0.46935 0.75765 0.21995 0.0
H518 H 0.49089 0.77178 0.15315 0.0
H519 H 0.42016 0.80621 0.08159 0.0
H520 H 0.43263 0.7393 0.03988 0.0
H521 H 0.42139 0.75283 0.98972 0.0
H522 H 0.40562 0.75099 0.04442 0.0
H523 H 0.39906 0.78929 0.05586 0.0
H524 H 0.41724 0.80552 0.01846 0.0
C525 C 0.51681 0.80121 0.10284 0.0
C526 C 0.52003 0.75957 0.08199 0.0
C527 C 0.44456 0.78557 0.84441 0.0
C528 C 0.42171 0.78264 0.8412 0.0
C529 C 0.40898 0.78273 0.88377 0.0
C530 C 0.41894 0.78444 0.92907 0.0
C531 C 0.44191 0.78593 0.93195 0.0
C532 C 0.45427 0.78746 0.89015 0.0
C533 C 0.47832 0.79057 0.90071 0.0
C534 C 0.47837 0.78919 0.95563 0.0
C535 C 0.45704 0.78601 0.97345 0.0
C536 C 0.48532 0.81364 0.88242 0.0
C537 C 0.4911 0.7713 0.87722 0.0
C538 C 0.42815 0.76331 0.13745 0.0
C539 C 0.43836 0.75788 0.18132 0.0
C540 C 0.4611 0.76163 0.18644 0.0
C541 C 0.47357 0.76968 0.1475 0.0
C542 C 0.4632 0.77388 0.103 0.0
C543 C 0.44078 0.77097 0.09893 0.0
C544 C 0.43246 0.77534 0.04883 0.0
C545 C 0.45363 0.7813 0.0231 0.0
C546 C 0.47158 0.78039 0.05487 0.0
C547 C 0.41626 0.79499 0.05098 0.0
C548 C 0.42235 0.75364 0.0294 0.0
H549 H 0.5251 0.80087 0.90446 0.0
H550 H 0.56144 0.78531 0.06121 0.0
H551 H 0.52534 0.74876 0.05166 0.0
H552 H 0.50558 0.75121 0.09758 0.0
H553 H 0.53344 0.75976 0.10916 0.0
H554 H 0.51917 0.81762 0.08592 0.0
H555 H 0.53105 0.79814 0.12695 0.0
H556 H 0.5018 0.80284 0.12503 0.0
H557 H 0.45463 0.78605 0.81211 0.0
H558 H 0.39133 0.78049 0.88215 0.0
H559 H 0.40842 0.78382 0.96016 0.0
H560 H 0.47101 0.8249 0.87877 0.0
H561 H 0.49342 0.81263 0.84646 0.0
H562 H 0.49645 0.8221 0.90806 0.0
H563 H 0.48288 0.75538 0.88526 0.0
H564 H 0.50804 0.76966 0.89075 0.0
H565 H 0.49182 0.77319 0.83732 0.0
H566 H 0.56455 0.80247 0.90957 0.0
C567 C 0.53239 0.79753 0.9389 0.0
H568 H 0.1516 0.25263 0.08944 0.0
H569 H 0.0582 0.2111 0.26446 0.0
H570 H 0.12598 0.18652 0.08342 0.0
H571 H 0.07368 0.27953 0.24426 0.0
H572 H 0.0798 0.20207 0.19218 0.0
H573 H 0.12057 0.26338 0.13988 0.0
C574 C 0.1393 0.24041 0.09843 0.0
C575 C 0.14154 0.21856 0.08292 0.0
C576 C 0.07806 0.21912 0.20277 0.0
C577 C 0.10603 0.23072 0.14107 0.0
C578 C 0.06571 0.22423 0.2438 0.0
C579 C 0.06427 0.24603 0.25967 0.0
C580 C 0.08934 0.23595 0.17837 0.0
C581 C 0.07444 0.26254 0.23263 0.0
C582 C 0.12151 0.24659 0.12704 0.0
C583 C 0.12494 0.2035 0.09492 0.0
N584 N 0.08685 0.25713 0.19356 0.0
N585 N 0.10805 0.20978 0.12407 0.0
H586 H 0.24403 0.68006 0.66776 0.0
H587 H 0.25977 0.56407 0.798 0.0
H588 H 0.29226 0.63226 0.62172 0.0
H589 H 0.21332 0.61362 0.84317 0.0
H590 H 0.26977 0.58702 0.7287 0.0
H591 H 0.23084 0.65436 0.72809 0.0
C592 C 0.25191 0.66414 0.67029 0.0
C593 C 0.26948 0.65843 0.6398 0.0
C594 C 0.25728 0.59277 0.75359 0.0
C595 C 0.25428 0.62875 0.70925 0.0
C596 C 0.25146 0.57964 0.79292 0.0
C597 C 0.23583 0.58708 0.82654 0.0
C598 C 0.24735 0.61344 0.74793 0.0
C599 C 0.22572 0.60744 0.81855 0.0
C600 C 0.24428 0.64941 0.7048 0.0
C601 C 0.27877 0.63742 0.64461 0.0
N602 N 0.23174 0.61995 0.78024 0.0
N603 N 0.27113 0.62335 0.67894 0.0
H604 H 0.86651 0.79359 0.09798 0.0
H605 H 0.89064 0.69159 0.2702 0.0
H606 H 0.82604 0.73549 0.10859 0.0
H607 H 0.9348 0.74668 0.25735 0.0
H608 H 0.86974 0.70545 0.20157 0.0
H609 H 0.89451 0.77519 0.14755 0.0
C610 C 0.86362 0.77695 0.11027 0.0
C611 C 0.84373 0.76626 0.10013 0.0
C612 C 0.88417 0.71442 0.21315 0.0
C613 C 0.87551 0.74516 0.1562 0.0
C614 C 0.89609 0.70645 0.25225 0.0
C615 C 0.91426 0.71814 0.26945 0.0
C616 C 0.89023 0.73448 0.19171 0.0
C617 C 0.92083 0.73722 0.24493 0.0
C618 C 0.87957 0.76645 0.13847 0.0
C619 C 0.84088 0.74461 0.11653 0.0
N620 N 0.90856 0.74506 0.2077 0.0
N621 N 0.85647 0.73491 0.14399 0.0
H622 H 0.75003 0.328 0.64405 0.0
H623 H 0.74216 0.45002 0.74802 0.0
H624 H 0.69869 0.37306 0.60176 0.0
H625 H 0.79356 0.40384 0.7822 0.0
H626 H 0.72784 0.42409 0.68769 0.0
H627 H 0.76748 0.35715 0.68944 0.0
C628 C 0.74231 0.34404 0.64444 0.0
C629 C 0.72264 0.34795 0.61944 0.0
C630 C 0.74244 0.4198 0.7079 0.0
C631 C 0.74282 0.38173 0.67169 0.0
C632 C 0.75071 0.43464 0.74196 0.0
C633 C 0.76892 0.42889 0.77028 0.0
C634 C 0.75253 0.39918 0.70237 0.0
C635 C 0.7793 0.40874 0.76149 0.0
C636 C 0.75242 0.36079 0.67025 0.0
C637 C 0.71373 0.36925 0.62079 0.0
N638 N 0.77084 0.39454 0.72866 0.0
N639 N 0.72382 0.38535 0.64688 0.0
H640 H 0.62099 0.27007 0.4365 0.0
H641 H 0.59805 0.26177 0.1529 0.0
H642 H 0.66724 0.28727 0.32457 0.0
H643 H 0.56452 0.21939 0.25397 0.0
H644 H 0.6179 0.2785 0.21956 0.0
H645 H 0.59477 0.25809 0.37342 0.0
C646 C 0.6254 0.2716 0.39871 0.0
C647 C 0.64618 0.27948 0.38526 0.0
C648 C 0.60619 0.26555 0.22729 0.0
C649 C 0.61668 0.26627 0.31405 0.0
C650 C 0.59496 0.25588 0.18922 0.0
C651 C 0.58011 0.23872 0.19781 0.0
C652 C 0.60258 0.25811 0.27456 0.0
C653 C 0.57607 0.23241 0.24585 0.0
C654 C 0.61061 0.2647 0.36298 0.0
C655 C 0.65138 0.2811 0.33616 0.0
N656 N 0.58747 0.24197 0.28264 0.0
N657 N 0.63674 0.27457 0.30237 0.0
H658 H 0.25864 0.16594 0.85436 0.0
H659 H 0.24997 0.04441 0.74701 0.0
H660 H 0.20613 0.12124 0.89157 0.0
H661 H 0.30126 0.09058 0.71147 0.0
H662 H 0.23621 0.07009 0.80842 0.0
H663 H 0.27649 0.13672 0.80918 0.0
C664 C 0.2508 0.14997 0.85302 0.0
C665 C 0.23064 0.14618 0.87634 0.0
C666 C 0.25067 0.07445 0.78769 0.0
C667 C 0.2512 0.11242 0.8244 0.0
C668 C 0.25864 0.05972 0.75299 0.0
C669 C 0.27664 0.06552 0.72392 0.0
C670 C 0.26082 0.09505 0.79318 0.0
C671 C 0.28715 0.08563 0.73272 0.0
C672 C 0.2611 0.13321 0.82732 0.0
C673 C 0.22155 0.12497 0.87385 0.0
N674 N 0.27895 0.09974 0.76619 0.0
N675 N 0.23181 0.10892 0.84795 0.0
H676 H 0.32513 0.70901 0.32301 0.0
H677 H 0.43967 0.76569 0.27963 0.0
H678 H 0.36988 0.71792 0.44224 0.0
H679 H 0.40716 0.72613 0.17157 0.0
H680 H 0.41441 0.75079 0.34093 0.0
H681 H 0.35456 0.71839 0.26701 0.0
C682 C 0.34123 0.7129 0.33735 0.0
C683 C 0.34512 0.71276 0.38723 0.0
C684 C 0.41306 0.74527 0.30382 0.0
C685 C 0.37885 0.72374 0.32335 0.0
C686 C 0.42744 0.75371 0.26892 0.0
C687 C 0.42516 0.74754 0.22024 0.0
C688 C 0.39629 0.73079 0.28959 0.0
C689 C 0.40906 0.73193 0.20835 0.0
C690 C 0.35805 0.71813 0.30539 0.0
C691 C 0.36631 0.71778 0.40392 0.0
N692 N 0.39508 0.72435 0.24259 0.0
N693 N 0.38242 0.72339 0.37198 0.0
H694 H 0.73365 0.82992 0.88076 0.0
H695 H 0.75268 0.93947 0.72836 0.0
H696 H 0.79426 0.86677 0.88552 0.0
H697 H 0.69746 0.89571 0.71203 0.0
H698 H 0.76516 0.91768 0.79777 0.0
H699 H 0.71744 0.8584 0.83107 0.0
C700 C 0.74359 0.84406 0.87135 0.0
C701 C 0.76553 0.84573 0.88642 0.0
C702 C 0.75013 0.91309 0.77946 0.0
C703 C 0.74695 0.87855 0.82913 0.0
C704 C 0.74294 0.92558 0.7402 0.0
C705 C 0.72417 0.91916 0.71441 0.0
C706 C 0.73834 0.89421 0.7929 0.0
C707 C 0.71217 0.901 0.73072 0.0
C708 C 0.73426 0.8604 0.84307 0.0
C709 C 0.77736 0.86473 0.87417 0.0
N710 N 0.71956 0.88906 0.76867 0.0
N711 N 0.768 0.88033 0.84556 0.0
H712 H 0.8181 0.77251 0.80805 0.0
H713 H 0.93635 0.72447 0.75826 0.0
H714 H 0.86763 0.77575 0.91932 0.0
H715 H 0.89816 0.75745 0.64863 0.0
H716 H 0.91063 0.73834 0.81976 0.0
H717 H 0.84618 0.76113 0.75022 0.0
C718 C 0.8349 0.77078 0.82032 0.0
C719 C 0.84059 0.7751 0.86847 0.0
C720 C 0.90807 0.74251 0.78215 0.0
C721 C 0.87273 0.76189 0.80257 0.0
C722 C 0.92272 0.73468 0.74707 0.0
C723 C 0.91921 0.73939 0.69795 0.0
C724 C 0.88972 0.75482 0.76777 0.0
C725 C 0.90118 0.75268 0.68569 0.0
C726 C 0.85092 0.7644 0.78726 0.0
C727 C 0.86265 0.7727 0.88237 0.0
N728 N 0.88701 0.75968 0.72022 0.0
N729 N 0.87798 0.76602 0.84957 0.0
H730 H 0.70531 0.32628 0.32274 0.0
H731 H 0.77562 0.4307 0.25309 0.0
H732 H 0.72483 0.37262 0.43261 0.0
H733 H 0.73282 0.39654 0.15401 0.0
H734 H 0.75862 0.41035 0.32045 0.0
H735 H 0.7169 0.35205 0.26074 0.0
C736 C 0.71195 0.34206 0.33365 0.0
C737 C 0.71423 0.34741 0.38256 0.0
C738 C 0.75288 0.40756 0.28393 0.0
C739 C 0.72788 0.37697 0.31183 0.0
C740 C 0.76256 0.41909 0.2456 0.0
C741 C 0.756 0.41484 0.19784 0.0
C742 C 0.73667 0.39174 0.27404 0.0
C743 C 0.73891 0.3998 0.19006 0.0
C744 C 0.7185 0.35681 0.29831 0.0
C745 C 0.72279 0.36806 0.39504 0.0
N746 N 0.73004 0.38867 0.22761 0.0
N747 N 0.72967 0.38208 0.35971 0.0
H748 H 0.1261 0.19623 0.88986 0.0
H749 H 0.09754 0.27568 0.66852 0.0
H750 H 0.17294 0.23836 0.81771 0.0
H751 H 0.04961 0.23304 0.73479 0.0
H752 H 0.12454 0.26403 0.72811 0.0
H753 H 0.09719 0.21063 0.83722 0.0
C754 C 0.13035 0.20841 0.86293 0.0
C755 C 0.15206 0.21599 0.85814 0.0
C756 C 0.1081 0.25729 0.73 0.0
C757 C 0.11903 0.23266 0.79827 0.0
C758 C 0.09269 0.26397 0.69602 0.0
C759 C 0.07143 0.25514 0.6966 0.0
C760 C 0.10229 0.2415 0.76473 0.0
C761 C 0.06585 0.24025 0.73329 0.0
C762 C 0.11381 0.21669 0.83306 0.0
C763 C 0.15652 0.23191 0.82277 0.0
N764 N 0.08129 0.23369 0.76572 0.0
N765 N 0.14018 0.23967 0.79429 0.0
H766 H 0.29863 0.62238 0.42783 0.0
H767 H 0.20439 0.57834 0.25179 0.0
H768 H 0.2396 0.65784 0.39049 0.0
H769 H 0.2645 0.54276 0.27673 0.0
H770 H 0.21451 0.60427 0.31527 0.0
H771 H 0.28439 0.59023 0.38398 0.0
C772 C 0.28264 0.62335 0.41084 0.0
C773 C 0.27047 0.64296 0.4121 0.0
C774 C 0.22542 0.59065 0.30754 0.0
C775 C 0.25408 0.60634 0.36249 0.0
C776 C 0.21954 0.57581 0.27151 0.0
C777 C 0.23371 0.55858 0.25911 0.0
C778 C 0.24582 0.58849 0.33078 0.0
C779 C 0.25316 0.55589 0.28554 0.0
C780 C 0.27453 0.60502 0.38587 0.0
C781 C 0.24979 0.64325 0.38972 0.0
N782 N 0.25887 0.57095 0.31974 0.0
N783 N 0.24236 0.62532 0.36571 0.0
H784 H 0.3208 0.76371 0.63125 0.0
H785 H 0.43417 0.75231 0.77358 0.0
H786 H 0.36415 0.70796 0.61483 0.0
H787 H 0.38474 0.80127 0.80363 0.0
H788 H 0.41255 0.73977 0.70406 0.0
H789 H 0.34773 0.78121 0.68319 0.0
C790 C 0.33603 0.75511 0.63846 0.0
C791 C 0.34001 0.73409 0.61931 0.0
C792 C 0.40662 0.75346 0.72546 0.0
C793 C 0.37107 0.75422 0.67909 0.0
C794 C 0.41901 0.76074 0.76481 0.0
C795 C 0.41106 0.7777 0.79449 0.0
C796 C 0.38625 0.76334 0.71578 0.0
C797 C 0.39127 0.78795 0.78196 0.0
C798 C 0.35145 0.7652 0.6681 0.0
C799 C 0.36028 0.72406 0.62922 0.0
N800 N 0.37946 0.78049 0.74379 0.0
N801 N 0.375 0.73413 0.65894 0.0
H802 H 0.77771 0.82444 0.18064 0.0
H803 H 0.72401 0.94016 0.22464 0.0
H804 H 0.7753 0.87117 0.0636 0.0
H805 H 0.76256 0.90694 0.33322 0.0
H806 H 0.73862 0.91454 0.16365 0.0
H807 H 0.76727 0.85351 0.23691 0.0
C808 C 0.775 0.84088 0.16686 0.0
C809 C 0.77736 0.84548 0.11755 0.0
C810 C 0.74391 0.91309 0.20087 0.0
C811 C 0.76515 0.87872 0.18156 0.0
C812 C 0.73563 0.92766 0.23561 0.0
C813 C 0.74164 0.92536 0.28436 0.0
C814 C 0.75801 0.89608 0.21532 0.0
C815 C 0.7568 0.90887 0.29648 0.0
C816 C 0.76916 0.85746 0.19896 0.0
C817 C 0.77376 0.86707 0.10152 0.0
N818 N 0.7642 0.89471 0.26238 0.0
N819 N 0.76753 0.88295 0.13348 0.0
H820 H 0.62074 0.29806 0.59855 0.0
H821 H 0.58744 0.20204 0.78226 0.0
H822 H 0.66465 0.2476 0.65059 0.0
H823 H 0.54497 0.25706 0.75224 0.0
H824 H 0.61358 0.21584 0.72274 0.0
H825 H 0.59086 0.28125 0.64546 0.0
C826 C 0.62413 0.28351 0.61977 0.0
C827 C 0.64533 0.27439 0.62096 0.0
C828 C 0.59846 0.22484 0.72869 0.0
C829 C 0.61124 0.25497 0.67391 0.0
C830 C 0.58351 0.2169 0.76251 0.0
C831 C 0.56418 0.22856 0.77241 0.0
C832 C 0.59416 0.24473 0.70477 0.0
C833 C 0.55972 0.24758 0.7455 0.0
C834 C 0.60706 0.2739 0.64638 0.0
C835 C 0.6487 0.25543 0.64886 0.0
N836 N 0.57477 0.25528 0.71324 0.0
N837 N 0.63189 0.24642 0.67412 0.0
H838 H 0.20659 0.17259 0.17295 0.0
H839 H 0.27568 0.06667 0.24128 0.0
H840 H 0.22371 0.12423 0.06508 0.0
H841 H 0.2387 0.10533 0.34409 0.0
H842 H 0.25798 0.08706 0.17528 0.0
H843 H 0.21946 0.14791 0.23569 0.0
C844 C 0.21296 0.15663 0.16258 0.0
C845 C 0.21423 0.15043 0.11389 0.0
C846 C 0.25371 0.09091 0.21235 0.0
C847 C 0.22931 0.12209 0.1856 0.0
C848 C 0.2638 0.07933 0.24996 0.0
C849 C 0.25902 0.08465 0.29828 0.0
C850 C 0.23887 0.10787 0.22341 0.0
C851 C 0.24345 0.10113 0.30749 0.0
C852 C 0.22026 0.1425 0.19841 0.0
C853 C 0.22244 0.12952 0.10237 0.0
N854 N 0.2341 0.11223 0.2705 0.0
N855 N 0.23001 0.11612 0.13808 0.0
H856 H 0.22274 0.28752 0.05713 0.0
H857 H 0.1909 0.39836 0.92222 0.0
H858 H 0.20245 0.28809 0.90757 0.0
H859 H 0.23383 0.39566 0.04632 0.0
H860 H 0.1906 0.35814 0.91979 0.0
H861 H 0.22198 0.32747 0.05776 0.0
C862 C 0.21804 0.29604 0.02438 0.0
C863 C 0.21269 0.28441 0.98214 0.0
C864 C 0.20005 0.36644 0.94748 0.0
C865 C 0.21177 0.33029 0.98281 0.0
C866 C 0.20032 0.38938 0.94884 0.0
C867 C 0.21238 0.4005 0.98463 0.0
C868 C 0.2117 0.35456 0.98246 0.0
C869 C 0.22393 0.38792 0.01866 0.0
C870 C 0.21772 0.31888 0.02476 0.0
C871 C 0.20681 0.29641 0.94081 0.0
N872 N 0.22324 0.36566 0.0168 0.0
N873 N 0.20643 0.31876 0.94221 0.0
H874 H 0.20128 0.70589 0.57074 0.0
H875 H 0.09532 0.72224 0.40569 0.0
H876 H 0.20426 0.7216 0.41862 0.0
H877 H 0.09306 0.69019 0.54483 0.0
H878 H 0.13513 0.72454 0.41216 0.0
H879 H 0.16136 0.7027 0.56446 0.0
C880 C 0.19356 0.70872 0.53605 0.0
C881 C 0.20615 0.71406 0.49514 0.0
C882 C 0.12594 0.71693 0.44121 0.0
C883 C 0.16053 0.71046 0.48784 0.0
C884 C 0.10319 0.71548 0.43743 0.0
C885 C 0.09079 0.70587 0.47465 0.0
C886 C 0.13642 0.70891 0.4827 0.0
C887 C 0.10191 0.69794 0.51549 0.0
C888 C 0.17079 0.7068 0.53249 0.0
C889 C 0.19525 0.71742 0.4511 0.0
N890 N 0.12412 0.69968 0.51847 0.0
N891 N 0.17306 0.71564 0.44868 0.0
H892 H 0.76294 0.70671 0.0696 0.0
H893 H 0.81218 0.59709 0.95343 0.0
H894 H 0.79264 0.7047 0.92769 0.0
H895 H 0.76976 0.59803 0.07875 0.0
H896 H 0.80792 0.63692 0.94642 0.0
H897 H 0.76787 0.66716 0.07629 0.0
C898 C 0.77045 0.69795 0.03972 0.0
C899 C 0.77737 0.70907 -0.00204 0.0
C900 C 0.7996 0.62837 0.97548 0.0
C901 C 0.78319 0.6637 0.00564 0.0
C902 C 0.80198 0.60565 0.97948 0.0
C903 C 0.79128 0.59418 0.01671 0.0
C904 C 0.78651 0.63969 0.00908 0.0
C905 C 0.77859 0.60618 0.04991 0.0
C906 C 0.77324 0.67534 0.0436 0.0
C907 C 0.78696 0.69679 0.96043 0.0
N908 N 0.77654 0.62827 0.04525 0.0
N909 N 0.78967 0.67474 0.96525 0.0
H910 H 0.78736 0.27313 0.57601 0.0
H911 H 0.89197 0.31362 0.42574 0.0
H912 H 0.7838 0.29758 0.42971 0.0
H913 H 0.89645 0.27001 0.54841 0.0
H914 H 0.85201 0.31352 0.43414 0.0
H915 H 0.82732 0.27737 0.57343 0.0
C916 C 0.79495 0.27943 0.54341 0.0
C917 C 0.78223 0.28483 0.50285 0.0
C918 C 0.8618 0.30409 0.45935 0.0
C919 C 0.82781 0.28991 0.49995 0.0
C920 C 0.88459 0.30408 0.45452 0.0
C921 C 0.89762 0.29163 0.4861 0.0
C922 C 0.85195 0.2917 0.49623 0.0
C923 C 0.88714 0.28002 0.52346 0.0
C924 C 0.81774 0.28182 0.54198 0.0
C925 C 0.79296 0.29298 0.46163 0.0
N926 N 0.8649 0.28025 0.52735 0.0
N927 N 0.81514 0.29529 0.46126 0.0
H928 H 0.69513 0.20925 0.5763 0.0
H929 H 0.72696 0.09718 0.44723 0.0
H930 H 0.7218 0.20693 0.4316 0.0
H931 H 0.67981 0.10096 0.56391 0.0
H932 H 0.72719 0.13723 0.44287 0.0
H933 H 0.69179 0.16928 0.57533 0.0
C934 C 0.70032 0.20033 0.54434 0.0
C935 C 0.70886 0.21142 0.50403 0.0
C936 C 0.71669 0.12924 0.46917 0.0
C937 C 0.7051 0.16572 0.50279 0.0
C938 C 0.71644 0.10637 0.47154 0.0
C939 C 0.70341 0.09562 0.50618 0.0
C940 C 0.70406 0.14147 0.50204 0.0
C941 C 0.69046 0.10849 0.5373 0.0
C942 C 0.69827 0.17754 0.54372 0.0
C943 C 0.71512 0.19903 0.46343 0.0
N944 N 0.69125 0.13075 0.53475 0.0
N945 N 0.71328 0.17679 0.46398 0.0
H946 H 0.28921 0.20319 0.92773 0.0
H947 H 0.39461 0.22444 0.09027 0.0
H948 H 0.2847 0.2201 0.07913 0.0
H949 H 0.39647 0.18684 0.95771 0.0
H950 H 0.35458 0.22533 0.08532 0.0
H951 H 0.32896 0.19996 0.93594 0.0
C952 C 0.29658 0.20629 0.9627 0.0
C953 C 0.28362 0.21202 0.0028 0.0
C954 C 0.36378 0.21679 0.0575 0.0
C955 C 0.32912 0.20834 0.01233 0.0
C956 C 0.38664 0.21616 0.0604 0.0
C957 C 0.399 0.20559 0.02426 0.0
C958 C 0.35321 0.20702 0.01792 0.0
C959 C 0.3877 0.19554 0.98592 0.0
C960 C 0.31926 0.2043 0.96739 0.0
C961 C 0.29407 0.21562 0.04731 0.0
N962 N 0.36546 0.19662 0.98361 0.0
N963 N 0.31626 0.21386 0.05082 0.0
H964 H 0.26279 0.79321 0.55127 0.0
H965 H 0.30978 0.89587 0.40476 0.0
H966 H 0.29353 0.78645 0.41115 0.0
H967 H 0.26676 0.90107 0.52858 0.0
H968 H 0.30592 0.85581 0.40769 0.0
H969 H 0.26619 0.83284 0.54499 0.0
C970 C 0.27026 0.80005 0.51906 0.0
C971 C 0.27793 0.78642 0.48168 0.0
C972 C 0.29735 0.86578 0.43414 0.0
C973 C 0.28191 0.83204 0.47435 0.0
C974 C 0.29948 0.88862 0.43245 0.0
C975 C 0.28868 0.90187 0.46668 0.0
C976 C 0.28439 0.85616 0.47042 0.0
C977 C 0.27576 0.89155 0.50205 0.0
C978 C 0.27214 0.82274 0.51547 0.0
C979 C 0.28734 0.79633 0.44075 0.0
N980 N 0.27403 0.86935 0.50303 0.0
N981 N 0.28917 0.81859 0.43826 0.0
H982 H 0.70297 0.79499 0.07295 0.0
H983 H 0.5939 0.77651 0.91761 0.0
H984 H 0.70233 0.77147 0.9255 0.0
H985 H 0.59387 0.80809 0.05752 0.0
H986 H 0.63374 0.77386 0.92126 0.0
H987 H 0.66299 0.79888 0.06974 0.0
C988 C 0.69446 0.7906 0.03997 0.0
C989 C 0.70607 0.78285 -0.00055 0.0
C990 C 0.62506 0.78146 0.95114 0.0
C991 C 0.66039 0.7873 0.9956 0.0
C992 C 0.60229 0.78313 0.94891 0.0
C993 C 0.59051 0.79266 0.9872 0.0
C994 C 0.63622 0.78925 0.99208 0.0
C995 C 0.60227 0.80043 0.02738 0.0
C996 C 0.67165 0.79289 0.03814 0.0
C997 C 0.69415 0.7775 0.95765 0.0
N998 N 0.62451 0.79853 0.02881 0.0
N999 N 0.672 0.7798 0.95688 0.0
loop_
_geom_bond_atom_site_label_1
_geom_bond_atom_site_label_2
_geom_bond_distance
_geom_bond_site_symmetry_2
_ccdc_geom_bond_type
Sc0 O3 2.025 . S
Sc0 O10 2.105 . S
Sc0 O13 2.105 . S
Sc0 O16 2.105 . S
Sc0 O19 2.105 . S
Sc1 O3 2.025 . S
Sc1 O11 2.105 . S
Sc1 O15 2.105 1_554 S
Sc1 O17 2.105 . S
Sc1 O21 2.105 1_554 S
Sc2 O3 2.025 1_556 S
Sc2 O12 2.105 . S
Sc2 O14 2.105 . S
Sc2 O18 2.105 . S
Sc2 O20 2.105 . S
O3 Sc0 2.025 . S
O3 Sc1 2.025 . S
O3 Sc2 2.025 1_554 S
C4 O10 1.268 . S
C4 O20 1.268 1_554 S
C5 O11 1.268 . S
C5 O19 1.268 . S
C6 O12 1.268 . S
C6 O21 1.268 . S
C7 O13 1.268 . S
C7 O17 1.268 . S
C8 O14 1.268 1_554 S
C8 O16 1.268 . S
C9 O15 1.268 . S
C9 O18 1.268 . S
O10 Sc0 2.105 . S
O10 C4 1.268 . S
O11 Sc1 2.105 . S
O11 C5 1.268 . S
O12 Sc2 2.105 . S
O12 C6 1.268 . S
O13 Sc0 2.105 . S
O13 C7 1.268 . S
O14 Sc2 2.105 . S
O14 C8 1.268 1_556 S
O15 Sc1 2.105 1_556 S
O15 C9 1.268 . S
O16 Sc0 2.105 . S
O16 C8 1.268 . S
O17 Sc1 2.105 . S
O17 C7 1.268 . S
O18 Sc2 2.105 . S
O18 C9 1.268 . S
O19 Sc0 2.105 . S
O19 C5 1.268 . S
O20 Sc2 2.105 . S
O20 C4 1.268 1_556 S
O21 Sc1 2.105 1_556 S
O21 C6 1.268 . S
Sc22 O25 2.025 . S
Sc22 O32 2.105 . S
Sc22 O35 2.105 . S
Sc22 O38 2.105 . S
Sc22 O41 2.105 . S
Sc23 O25 2.025 . S
Sc23 O33 2.105 . S
Sc23 O37 2.105 . S
Sc23 O39 2.105 . S
Sc23 O43 2.105 . S
Sc24 O25 2.025 . S
Sc24 O34 2.105 . S
Sc24 O36 2.105 . S
Sc24 O40 2.105 . S
Sc24 O42 2.105 . S
O25 Sc22 2.025 . S
O25 Sc23 2.025 . S
O25 Sc24 2.025 . S
C26 O32 1.268 . S
C26 O42 1.268 . S
C27 O33 1.268 . S
C27 O41 1.268 . S
C28 O34 1.268 . S
C28 O43 1.268 . S
C29 O35 1.268 . S
C29 O39 1.268 . S
C30 O36 1.268 . S
C30 O38 1.268 . S
C31 O37 1.268 . S
C31 O40 1.268 . S
O32 Sc22 2.105 . S
O32 C26 1.268 . S
O33 Sc23 2.105 . S
O33 C27 1.268 . S
O34 Sc24 2.105 . S
O34 C28 1.268 . S
O35 Sc22 2.105 . S
O35 C29 1.268 . S
O36 Sc24 2.105 . S
O36 C30 1.268 . S
O37 Sc23 2.105 . S
O37 C31 1.268 . S
O38 Sc22 2.105 . S
O38 C30 1.268 . S
O39 Sc23 2.105 . S
O39 C29 1.268 . S
O40 Sc24 2.105 . S
O40 C31 1.268 . S
O41 Sc22 2.105 . S
O41 C27 1.268 . S
O42 Sc24 2.105 . S
O42 C26 1.268 . S
O43 Sc23 2.105 . S
O43 C28 1.268 . S
Sc44 O47 2.025 1_556 S
Sc44 O54 2.105 . S
Sc44 O57 2.105 . S
Sc44 O60 2.105 . S
Sc44 O63 2.105 . S
Sc45 O47 2.025 . S
Sc45 O55 2.105 1_554 S
Sc45 O59 2.105 . S
Sc45 O61 2.105 1_554 S
Sc45 O65 2.105 . S
Sc46 O47 2.025 . S
Sc46 O56 2.105 . S
Sc46 O58 2.105 . S
Sc46 O62 2.105 . S
Sc46 O64 2.105 . S
O47 Sc44 2.025 1_554 S
O47 Sc45 2.025 . S
O47 Sc46 2.025 . S
C48 O54 1.268 1_554 S
C48 O64 1.268 . S
C49 O55 1.268 . S
C49 O63 1.268 . S
C50 O56 1.268 . S
C50 O65 1.268 . S
C51 O57 1.268 . S
C51 O61 1.268 . S
C52 O58 1.268 . S
C52 O60 1.268 1_554 S
C53 O59 1.268 . S
C53 O62 1.268 . S
O54 Sc44 2.105 . S
O54 C48 1.268 1_556 S
O55 Sc45 2.105 1_556 S
O55 C49 1.268 . S
O56 Sc46 2.105 . S
O56 C50 1.268 . S
O57 Sc44 2.105 . S
O57 C51 1.268 . S
O58 Sc46 2.105 . S
O58 C52 1.268 . S
O59 Sc45 2.105 . S
O59 C53 1.268 . S
O60 Sc44 2.105 . S
O60 C52 1.268 1_556 S
O61 Sc45 2.105 1_556 S
O61 C51 1.268 . S
O62 Sc46 2.105 . S
O62 C53 1.268 . S
O63 Sc44 2.105 . S
O63 C49 1.268 . S
O64 Sc46 2.105 . S
O64 C48 1.268 . S
O65 Sc45 2.105 . S
O65 C50 1.268 . S
Sc66 O69 2.025 . S
Sc66 O76 2.105 . S
Sc66 O79 2.105 . S
Sc66 O82 2.105 . S
Sc66 O85 2.105 . S
Sc67 O69 2.025 . S
Sc67 O77 2.105 . S
Sc67 O81 2.105 . S
Sc67 O83 2.105 . S
Sc67 O87 2.105 . S
Sc68 O69 2.025 . S
Sc68 O78 2.105 . S
Sc68 O80 2.105 . S
Sc68 O84 2.105 . S
Sc68 O86 2.105 . S
O69 Sc66 2.025 . S
O69 Sc67 2.025 . S
O69 Sc68 2.025 . S
C70 O76 1.268 . S
C70 O86 1.268 . S
C71 O77 1.268 . S
C71 O85 1.268 . S
C72 O78 1.268 . S
C72 O87 1.268 . S
C73 O79 1.268 . S
C73 O83 1.268 . S
C74 O80 1.268 . S
C74 O82 1.268 . S
C75 O81 1.268 . S
C75 O84 1.268 . S
O76 Sc66 2.105 . S
O76 C70 1.268 . S
O77 Sc67 2.105 . S
O77 C71 1.268 . S
O78 Sc68 2.105 . S
O78 C72 1.268 . S
O79 Sc66 2.105 . S
O79 C73 1.268 . S
O80 Sc68 2.105 . S
O80 C74 1.268 . S
O81 Sc67 2.105 . S
O81 C75 1.268 . S
O82 Sc66 2.105 . S
O82 C74 1.268 . S
O83 Sc67 2.105 . S
O83 C73 1.268 . S
O84 Sc68 2.105 . S
O84 C75 1.268 . S
O85 Sc66 2.105 . S
O85 C71 1.268 . S
O86 Sc68 2.105 . S
O86 C70 1.268 . S
O87 Sc67 2.105 . S
O87 C72 1.268 . S
C88 C89 1.391 . S
C88 C92 1.391 . S
C88 H130 0.948 . S
C89 C88 1.391 . S
C89 C90 1.391 . S
C90 C89 1.391 . S
C90 H146 0.947 . S
C90 C147 1.392 . S
C91 C92 1.391 . S
C91 C95 1.397 . S
C91 C147 1.419 . S
C92 C88 1.391 . S
C92 C91 1.391 . S
C92 C93 1.399 . S
C93 C92 1.399 . S
C93 C96 1.396 . S
C93 C105 1.453 . S
C93 C106 1.684 . S
H94 C118 0.948 . S
C95 C91 1.397 . S
C95 C96 1.394 . S
C95 C114 1.723 1_556 S
C96 C93 1.396 . S
C96 C95 1.394 . S
C96 C126 1.723 . S
H97 C120 0.947 . S
H98 C121 0.948 . S
H99 C127 0.982 . S
H100 C128 0.979 . S
H101 C128 0.980 . S
H102 C128 0.983 . S
H103 C127 0.979 . S
H104 C127 0.977 . S
C105 C93 1.453 . S
C105 H134 0.982 . S
C105 H135 0.979 . S
C105 H136 0.977 . S
C106 C93 1.684 . S
C106 H131 0.979 . S
C106 H132 0.980 . S
C106 H133 0.983 . S
C107 C108 1.391 . S
C107 C112 1.391 . S
C107 H137 0.948 . S
C108 C107 1.391 . S
C108 C109 1.391 . S
C109 C108 1.391 . S
C109 C110 1.392 . S
C109 H138 0.947 . S
C110 C109 1.392 . S
C110 C111 1.419 . S
C110 H139 0.948 . S
C111 C110 1.419 . S
C111 C112 1.391 . S
C111 C115 1.397 . S
C112 C107 1.391 . S
C112 C111 1.391 . S
C112 C113 1.399 . S
C113 C112 1.399 . S
C113 C114 1.396 . S
C113 C116 1.453 . S
C113 C117 1.684 . S
C114 C95 1.723 1_554 S
C114 C113 1.396 . S
C114 C115 1.394 . S
C115 C111 1.397 . S
C115 C114 1.394 . S
C115 C125 1.723 . S
C116 C113 1.453 . S
C116 H140 0.982 . S
C116 H141 0.979 . S
C116 H142 0.977 1_554 S
C117 C113 1.684 . S
C117 H143 0.979 . S
C117 H144 0.980 1_554 S
C117 H145 0.983 . S
C118 H94 0.948 . S
C118 C119 1.391 1_554 S
C118 C123 1.391 . S
C119 C118 1.391 1_556 S
C119 C120 1.391 . S
C120 H97 0.947 . S
C120 C119 1.391 . S
C120 C121 1.392 . S
C121 H98 0.948 . S
C121 C120 1.392 . S
C121 C122 1.419 . S
C122 C121 1.419 . S
C122 C123 1.391 1_556 S
C122 C126 1.397 . S
C123 C118 1.391 . S
C123 C122 1.391 1_554 S
C123 C124 1.399 . S
C124 C123 1.399 . S
C124 C125 1.396 . S
C124 C127 1.453 . S
C124 C128 1.684 . S
C125 C115 1.723 . S
C125 C124 1.396 . S
C125 C126 1.394 1_554 S
C126 C96 1.723 . S
C126 C122 1.397 . S
C126 C125 1.394 1_556 S
C127 H99 0.982 . S
C127 H103 0.979 . S
C127 H104 0.977 . S
C127 C124 1.453 . S
C128 H100 0.979 . S
C128 H101 0.980 . S
C128 H102 0.983 . S
C128 C124 1.684 . S
H129 C147 0.948 . S
H130 C88 0.948 . S
H131 C106 0.979 . S
H132 C106 0.980 . S
H133 C106 0.983 . S
H134 C105 0.982 . S
H135 C105 0.979 . S
H136 C105 0.977 . S
H137 C107 0.948 . S
H138 C109 0.947 . S
H139 C110 0.948 . S
H140 C116 0.982 . S
H141 C116 0.979 . S
H142 C116 0.977 1_556 S
H143 C117 0.979 . S
H144 C117 0.980 1_556 S
H145 C117 0.983 . S
H146 C90 0.947 . S
C147 C90 1.392 . S
C147 C91 1.419 . S
C147 H129 0.948 . S
C148 C149 1.391 . S
C148 C152 1.391 . S
C148 H190 0.948 . S
C149 C148 1.391 . S
C149 C150 1.391 . S
C150 C149 1.391 . S
C150 H206 0.947 . S
C150 C207 1.392 . S
C151 C152 1.391 . S
C151 C155 1.397 . S
C151 C207 1.419 . S
C152 C148 1.391 . S
C152 C151 1.391 . S
C152 C153 1.399 . S
C153 C152 1.399 . S
C153 C156 1.394 1_455 S
C153 C165 1.453 . S
C153 C166 1.684 . S
H154 C178 0.948 . S
C155 C151 1.397 . S
C155 C156 1.394 1_455 S
C155 C174 1.723 1_455 S
C156 C153 1.394 1_655 S
C156 C155 1.394 1_655 S
C156 C186 1.726 . S
H157 C180 0.947 . S
H158 C181 0.948 . S
H159 C187 0.982 . S
H160 C188 0.979 . S
H161 C188 0.980 . S
H162 C188 0.983 . S
H163 C187 0.979 . S
H164 C187 0.977 . S
C165 C153 1.453 . S
C165 H194 0.982 . S
C165 H195 0.979 . S
C165 H196 0.977 . S
C166 C153 1.684 . S
C166 H191 0.979 . S
C166 H192 0.980 . S
C166 H193 0.983 . S
C167 C168 1.391 . S
C167 C172 1.391 . S
C167 H197 0.948 . S
C168 C167 1.391 . S
C168 C169 1.391 . S
C169 C168 1.391 . S
C169 C170 1.392 . S
C169 H198 0.947 . S
C170 C169 1.392 . S
C170 C171 1.419 . S
C170 H199 0.948 . S
C171 C170 1.419 . S
C171 C172 1.391 . S
C171 C175 1.397 . S
C172 C167 1.391 . S
C172 C171 1.391 . S
C172 C173 1.399 . S
C173 C172 1.399 . S
C173 C174 1.396 . S
C173 C176 1.420 1_655 S
C173 C177 1.689 . S
C174 C155 1.723 1_655 S
C174 C173 1.396 . S
C174 C175 1.394 . S
C175 C171 1.397 . S
C175 C174 1.394 . S
C175 C185 1.723 . S
C176 C173 1.420 1_455 S
C176 H200 0.971 1_455 S
C176 H201 0.981 . S
C176 H202 1.023 . S
C177 C173 1.689 . S
C177 H203 0.983 . S
C177 H204 0.971 1_655 S
C177 H205 0.983 . S
C178 H154 0.948 . S
C178 C179 1.391 . S
C178 C183 1.391 . S
C179 C178 1.391 . S
C179 C180 1.391 . S
C180 H157 0.947 . S
C180 C179 1.391 . S
C180 C181 1.392 . S
C181 H158 0.948 . S
C181 C180 1.392 . S
C181 C182 1.419 . S
C182 C181 1.419 . S
C182 C183 1.391 . S
C182 C186 1.397 . S
C183 C178 1.391 . S
C183 C182 1.391 . S
C183 C184 1.399 . S
C184 C183 1.399 . S
C184 C185 1.396 . S
C184 C187 1.453 . S
C184 C188 1.684 . S
C185 C175 1.723 . S
C185 C184 1.396 . S
C185 C186 1.394 . S
C186 C156 1.726 . S
C186 C182 1.397 . S
C186 C185 1.394 . S
C187 H159 0.982 . S
C187 H163 0.979 . S
C187 H164 0.977 . S
C187 C184 1.453 . S
C188 H160 0.979 . S
C188 H161 0.980 . S
C188 H162 0.983 . S
C188 C184 1.684 . S
H189 C207 0.948 . S
H190 C148 0.948 . S
H191 C166 0.979 . S
H192 C166 0.980 . S
H193 C166 0.983 . S
H194 C165 0.982 . S
H195 C165 0.979 . S
H196 C165 0.977 . S
H197 C167 0.948 . S
H198 C169 0.947 . S
H199 C170 0.948 . S
H200 C176 0.971 1_655 S
H201 C176 0.981 . S
H202 C176 1.023 . S
H203 C177 0.983 . S
H204 C177 0.971 1_455 S
H205 C177 0.983 . S
H206 C150 0.947 . S
C207 C150 1.392 . S
C207 C151 1.419 . S
C207 H189 0.948 . S
C208 C209 1.391 . S
C208 C212 1.391 . S
C208 H250 0.948 . S
C209 C208 1.391 . S
C209 C210 1.391 . S
C210 C209 1.391 . S
C210 H266 0.947 . S
C210 C267 1.392 . S
C211 C212 1.391 . S
C211 C215 1.397 . S
C211 C267 1.419 . S
C212 C208 1.391 . S
C212 C211 1.391 . S
C212 C213 1.399 . S
C213 C212 1.399 . S
C213 C216 1.396 . S
C213 C225 1.453 . S
C213 C226 1.684 . S
H214 C238 0.948 . S
C215 C211 1.397 . S
C215 C216 1.394 . S
C215 C234 1.723 1_554 S
C216 C213 1.396 . S
C216 C215 1.394 . S
C216 C246 1.723 . S
H217 C240 0.947 . S
H218 C241 0.948 . S
H219 C247 0.982 . S
H220 C248 0.979 . S
H221 C248 0.980 . S
H222 C248 0.983 . S
H223 C247 0.979 . S
H224 C247 0.977 . S
C225 C213 1.453 . S
C225 H254 0.982 . S
C225 H255 0.979 . S
C225 H256 0.977 . S
C226 C213 1.684 . S
C226 H251 0.979 . S
C226 H252 0.980 . S
C226 H253 0.983 . S
C227 C228 1.391 . S
C227 C232 1.391 . S
C227 H257 0.948 . S
C228 C227 1.391 . S
C228 C229 1.391 . S
C229 C228 1.391 . S
C229 C230 1.392 . S
C229 H258 0.947 . S
C230 C229 1.392 . S
C230 C231 1.419 . S
C230 H259 0.948 . S
C231 C230 1.419 . S
C231 C232 1.391 . S
C231 C235 1.397 . S
C232 C227 1.391 . S
C232 C231 1.391 . S
C232 C233 1.399 . S
C233 C232 1.399 . S
C233 C234 1.396 . S
C233 C236 1.453 . S
C233 C237 1.684 . S
C234 C215 1.723 1_556 S
C234 C233 1.396 . S
C234 C235 1.394 . S
C235 C231 1.397 . S
C235 C234 1.394 . S
C235 C245 1.723 . S
C236 C233 1.453 . S
C236 H260 0.982 . S
C236 H261 0.979 . S
C236 H262 0.977 1_556 S
C237 C233 1.684 . S
C237 H263 0.979 . S
C237 H264 0.980 1_556 S
C237 H265 0.983 . S
C238 H214 0.948 . S
C238 C239 1.391 1_556 S
C238 C243 1.391 . S
C239 C238 1.391 1_554 S
C239 C240 1.391 . S
C240 H217 0.947 . S
C240 C239 1.391 . S
C240 C241 1.392 . S
C241 H218 0.948 . S
C241 C240 1.392 . S
C241 C242 1.419 . S
C242 C241 1.419 . S
C242 C243 1.391 1_554 S
C242 C246 1.397 . S
C243 C238 1.391 . S
C243 C242 1.391 1_556 S
C243 C244 1.399 . S
C244 C243 1.399 . S
C244 C245 1.396 . S
C244 C247 1.453 . S
C244 C248 1.684 . S
C245 C235 1.723 . S
C245 C244 1.396 . S
C245 C246 1.394 1_556 S
C246 C216 1.723 . S
C246 C242 1.397 . S
C246 C245 1.394 1_554 S
C247 H219 0.982 . S
C247 H223 0.979 . S
C247 H224 0.977 . S
C247 C244 1.453 . S
C248 H220 0.979 . S
C248 H221 0.980 . S
C248 H222 0.983 . S
C248 C244 1.684 . S
H249 C267 0.948 . S
H250 C208 0.948 . S
H251 C226 0.979 . S
H252 C226 0.980 . S
H253 C226 0.983 . S
H254 C225 0.982 . S
H255 C225 0.979 . S
H256 C225 0.977 . S
H257 C227 0.948 . S
H258 C229 0.947 . S
H259 C230 0.948 . S
H260 C236 0.982 . S
H261 C236 0.979 . S
H262 C236 0.977 1_554 S
H263 C237 0.979 . S
H264 C237 0.980 1_554 S
H265 C237 0.983 . S
H266 C210 0.947 . S
C267 C210 1.392 . S
C267 C211 1.419 . S
C267 H249 0.948 . S
C268 C269 1.391 . S
C268 C272 1.391 . S
C268 H310 0.948 . S
C269 C268 1.391 . S
C269 C270 1.391 . S
C270 C269 1.391 . S
C270 H326 0.947 . S
C270 C327 1.392 . S
C271 C272 1.391 . S
C271 C275 1.397 . S
C271 C327 1.419 . S
C272 C268 1.391 . S
C272 C271 1.391 . S
C272 C273 1.399 . S
C273 C272 1.399 . S
C273 C276 1.396 . S
C273 C285 1.420 1_455 S
C273 C286 1.689 . S
H274 C298 0.948 . S
C275 C271 1.397 . S
C275 C276 1.394 . S
C275 C294 1.723 . S
C276 C273 1.396 . S
C276 C275 1.394 . S
C276 C306 1.723 1_455 S
H277 C300 0.947 . S
H278 C301 0.948 . S
H279 C307 0.982 . S
H280 C308 0.979 . S
H281 C308 0.980 . S
H282 C308 0.983 . S
H283 C307 0.979 . S
H284 C307 0.977 . S
C285 C273 1.420 1_655 S
C285 H314 0.971 1_655 S
C285 H315 0.981 . S
C285 H316 1.022 . S
C286 C273 1.689 . S
C286 H311 0.983 . S
C286 H312 0.970 1_455 S
C286 H313 0.983 . S
C287 C288 1.391 . S
C287 C292 1.391 . S
C287 H317 0.948 . S
C288 C287 1.391 . S
C288 C289 1.391 . S
C289 C288 1.391 . S
C289 C290 1.392 . S
C289 H318 0.947 . S
C290 C289 1.392 . S
C290 C291 1.419 . S
C290 H319 0.948 . S
C291 C290 1.419 . S
C291 C292 1.391 . S
C291 C295 1.397 . S
C292 C287 1.391 . S
C292 C291 1.391 . S
C292 C293 1.399 . S
C293 C292 1.399 . S
C293 C294 1.396 . S
C293 C296 1.453 . S
C293 C297 1.684 . S
C294 C275 1.723 . S
C294 C293 1.396 . S
C294 C295 1.394 . S
C295 C291 1.397 . S
C295 C294 1.394 . S
C295 C305 1.726 . S
C296 C293 1.453 . S
C296 H320 0.982 . S
C296 H321 0.979 . S
C296 H322 0.977 . S
C297 C293 1.684 . S
C297 H323 0.979 . S
C297 H324 0.980 . S
C297 H325 0.983 . S
C298 H274 0.948 . S
C298 C299 1.391 . S
C298 C303 1.391 . S
C299 C298 1.391 . S
C299 C300 1.391 . S
C300 H277 0.947 . S
C300 C299 1.391 . S
C300 C301 1.392 . S
C301 H278 0.948 . S
C301 C300 1.392 . S
C301 C302 1.419 . S
C302 C301 1.419 . S
C302 C303 1.391 . S
C302 C306 1.397 . S
C303 C298 1.391 . S
C303 C302 1.391 . S
C303 C304 1.399 . S
C304 C303 1.399 . S
C304 C305 1.394 1_655 S
C304 C307 1.453 . S
C304 C308 1.684 . S
C305 C295 1.726 . S
C305 C304 1.394 1_455 S
C305 C306 1.394 1_455 S
C306 C276 1.723 1_655 S
C306 C302 1.397 . S
C306 C305 1.394 1_655 S
C307 H279 0.982 . S
C307 H283 0.979 . S
C307 H284 0.977 . S
C307 C304 1.453 . S
C308 H280 0.979 . S
C308 H281 0.980 . S
C308 H282 0.983 . S
C308 C304 1.684 . S
H309 C327 0.948 . S
H310 C268 0.948 . S
H311 C286 0.983 . S
H312 C286 0.970 1_655 S
H313 C286 0.983 . S
H314 C285 0.971 1_455 S
H315 C285 0.981 . S
H316 C285 1.022 . S
H317 C287 0.948 . S
H318 C289 0.947 . S
H319 C290 0.948 . S
H320 C296 0.982 . S
H321 C296 0.979 . S
H322 C296 0.977 . S
H323 C297 0.979 . S
H324 C297 0.980 . S
H325 C297 0.983 . S
H326 C270 0.947 . S
C327 C270 1.392 . S
C327 C271 1.419 . S
C327 H309 0.948 . S
C328 C329 1.391 . S
C328 C332 1.391 . S
C328 H370 0.948 . S
C329 C328 1.391 . S
C329 C330 1.391 . S
C330 C329 1.391 . S
C330 H386 0.947 . S
C330 C387 1.392 . S
C331 C332 1.391 . S
C331 C335 1.397 . S
C331 C387 1.419 . S
C332 C328 1.391 . S
C332 C331 1.391 . S
C332 C333 1.399 . S
C333 C332 1.399 . S
C333 C336 1.396 . S
C333 C345 1.420 1_565 S
C333 C346 1.689 . S
H334 C358 0.948 . S
C335 C331 1.397 . S
C335 C336 1.394 . S
C335 C354 1.723 . S
C336 C333 1.396 . S
C336 C335 1.394 . S
C336 C366 1.723 1_565 S
H337 C360 0.947 . S
H338 C361 0.948 . S
H339 C367 0.982 . S
H340 C368 0.979 . S
H341 C368 0.980 . S
H342 C368 0.983 . S
H343 C367 0.979 . S
H344 C367 0.977 . S
C345 C333 1.420 1_545 S
C345 H374 0.971 1_545 S
C345 H375 0.981 . S
C345 H376 1.023 . S
C346 C333 1.689 . S
C346 H371 0.983 . S
C346 H372 0.970 1_565 S
C346 H373 0.983 . S
C347 C348 1.391 . S
C347 C352 1.391 . S
C347 H377 0.948 . S
C348 C347 1.391 . S
C348 C349 1.391 . S
C349 C348 1.391 . S
C349 C350 1.392 . S
C349 H378 0.947 . S
C350 C349 1.392 . S
C350 C351 1.419 . S
C350 H379 0.948 . S
C351 C350 1.419 . S
C351 C352 1.391 . S
C351 C355 1.397 . S
C352 C347 1.391 . S
C352 C351 1.391 . S
C352 C353 1.399 . S
C353 C352 1.399 . S
C353 C354 1.396 . S
C353 C356 1.453 . S
C353 C357 1.684 . S
C354 C335 1.723 . S
C354 C353 1.396 . S
C354 C355 1.394 . S
C355 C351 1.397 . S
C355 C354 1.394 . S
C355 C365 1.726 . S
C356 C353 1.453 . S
C356 H380 0.982 . S
C356 H381 0.979 . S
C356 H382 0.977 . S
C357 C353 1.684 . S
C357 H383 0.979 . S
C357 H384 0.980 . S
C357 H385 0.983 . S
C358 H334 0.948 . S
C358 C359 1.391 . S
C358 C363 1.391 . S
C359 C358 1.391 . S
C359 C360 1.391 . S
C360 H337 0.947 . S
C360 C359 1.391 . S
C360 C361 1.392 . S
C361 H338 0.948 . S
C361 C360 1.392 . S
C361 C362 1.419 . S
C362 C361 1.419 . S
C362 C363 1.391 . S
C362 C366 1.397 . S
C363 C358 1.391 . S
C363 C362 1.391 . S
C363 C364 1.399 . S
C364 C363 1.399 . S
C364 C365 1.394 1_545 S
C364 C367 1.453 . S
C364 C368 1.684 . S
C365 C355 1.726 . S
C365 C364 1.394 1_565 S
C365 C366 1.394 1_565 S
C366 C336 1.723 1_545 S
C366 C362 1.397 . S
C366 C365 1.394 1_545 S
C367 H339 0.982 . S
C367 H343 0.979 . S
C367 H344 0.977 . S
C367 C364 1.453 . S
C368 H340 0.979 . S
C368 H341 0.980 . S
C368 H342 0.983 . S
C368 C364 1.684 . S
H369 C387 0.948 . S
H370 C328 0.948 . S
H371 C346 0.983 . S
H372 C346 0.970 1_545 S
H373 C346 0.983 . S
H374 C345 0.971 1_565 S
H375 C345 0.981 . S
H376 C345 1.023 . S
H377 C347 0.948 . S
H378 C349 0.947 . S
H379 C350 0.948 . S
H380 C356 0.982 . S
H381 C356 0.979 . S
H382 C356 0.977 . S
H383 C357 0.979 . S
H384 C357 0.980 . S
H385 C357 0.983 . S
H386 C330 0.947 . S
C387 C330 1.392 . S
C387 C331 1.419 . S
C387 H369 0.948 . S
C388 C389 1.391 . S
C388 C392 1.391 . S
C388 H430 0.948 . S
C389 C388 1.391 . S
C389 C390 1.391 . S
C390 C389 1.391 . S
C390 H446 0.947 . S
C390 C447 1.392 . S
C391 C392 1.391 . S
C391 C395 1.397 . S
C391 C447 1.419 . S
C392 C388 1.391 . S
C392 C391 1.391 . S
C392 C393 1.399 . S
C393 C392 1.399 . S
C393 C396 1.396 . S
C393 C405 1.453 . S
C393 C406 1.684 . S
H394 C418 0.948 . S
C395 C391 1.397 . S
C395 C396 1.394 . S
C395 C414 1.723 1_554 S
C396 C393 1.396 . S
C396 C395 1.394 . S
C396 C426 1.723 . S
H397 C420 0.947 . S
H398 C421 0.948 . S
H399 C427 0.982 . S
H400 C428 0.979 . S
H401 C428 0.980 . S
H402 C428 0.983 . S
H403 C427 0.979 . S
H404 C427 0.977 . S
C405 C393 1.453 . S
C405 H434 0.982 . S
C405 H435 0.979 . S
C405 H436 0.977 . S
C406 C393 1.684 . S
C406 H431 0.979 . S
C406 H432 0.980 . S
C406 H433 0.983 . S
C407 C408 1.391 . S
C407 C412 1.391 . S
C407 H437 0.948 . S
C408 C407 1.391 . S
C408 C409 1.391 . S
C409 C408 1.391 . S
C409 C410 1.392 . S
C409 H438 0.947 . S
C410 C409 1.392 . S
C410 C411 1.419 . S
C410 H439 0.948 . S
C411 C410 1.419 . S
C411 C412 1.391 . S
C411 C415 1.397 . S
C412 C407 1.391 . S
C412 C411 1.391 . S
C412 C413 1.399 . S
C413 C412 1.399 . S
C413 C414 1.396 . S
C413 C416 1.453 . S
C413 C417 1.684 . S
C414 C395 1.723 1_556 S
C414 C413 1.396 . S
C414 C415 1.394 . S
C415 C411 1.397 . S
C415 C414 1.394 . S
C415 C425 1.723 . S
C416 C413 1.453 . S
C416 H440 0.982 . S
C416 H441 0.979 . S
C416 H442 0.977 1_556 S
C417 C413 1.684 . S
C417 H443 0.979 . S
C417 H444 0.980 1_556 S
C417 H445 0.983 . S
C418 H394 0.948 . S
C418 C419 1.391 1_556 S
C418 C423 1.391 . S
C419 C418 1.391 1_554 S
C419 C420 1.391 . S
C420 H397 0.947 . S
C420 C419 1.391 . S
C420 C421 1.392 . S
C421 H398 0.948 . S
C421 C420 1.392 . S
C421 C422 1.419 . S
C422 C421 1.419 . S
C422 C423 1.391 1_554 S
C422 C426 1.397 . S
C423 C418 1.391 . S
C423 C422 1.391 1_556 S
C423 C424 1.399 . S
C424 C423 1.399 . S
C424 C425 1.396 . S
C424 C427 1.453 . S
C424 C428 1.684 . S
C425 C415 1.723 . S
C425 C424 1.396 . S
C425 C426 1.394 1_556 S
C426 C396 1.723 . S
C426 C422 1.397 . S
C426 C425 1.394 1_554 S
C427 H399 0.982 . S
C427 H403 0.979 . S
C427 H404 0.977 . S
C427 C424 1.453 . S
C428 H400 0.979 . S
C428 H401 0.980 . S
C428 H402 0.983 . S
C428 C424 1.684 . S
H429 C447 0.948 . S
H430 C388 0.948 . S
H431 C406 0.979 . S
H432 C406 0.980 . S
H433 C406 0.983 . S
H434 C405 0.982 . S
H435 C405 0.979 . S
H436 C405 0.977 . S
H437 C407 0.948 . S
H438 C409 0.947 . S
H439 C410 0.948 . S
H440 C416 0.982 . S
H441 C416 0.979 . S
H442 C416 0.977 1_554 S
H443 C417 0.979 . S
H444 C417 0.980 1_554 S
H445 C417 0.983 . S
H446 C390 0.947 . S
C447 C390 1.392 . S
C447 C391 1.419 . S
C447 H429 0.948 . S
C448 C449 1.391 . S
C448 C452 1.391 . S
C448 H490 0.948 . S
C449 C448 1.391 . S
C449 C450 1.391 . S
C450 C449 1.391 . S
C450 H506 0.947 . S
C450 C507 1.392 . S
C451 C452 1.391 . S
C451 C455 1.397 . S
C451 C507 1.419 . S
C452 C448 1.391 . S
C452 C451 1.391 . S
C452 C453 1.399 . S
C453 C452 1.399 . S
C453 C456 1.396 . S
C453 C465 1.453 . S
C453 C466 1.684 1_545 S
H454 C478 0.948 . S
C455 C451 1.397 . S
C455 C456 1.394 . S
C455 C474 1.723 . S
C456 C453 1.396 . S
C456 C455 1.394 . S
C456 C486 1.723 1_545 S
H457 C480 0.947 . S
H458 C481 0.948 . S
H459 C487 0.982 . S
H460 C488 0.979 . S
H461 C488 0.980 . S
H462 C488 0.983 . S
H463 C487 0.979 . S
H464 C487 0.977 . S
C465 C453 1.453 . S
C465 H494 0.982 . S
C465 H495 0.979 . S
C465 H496 0.977 1_545 S
C466 C453 1.684 1_565 S
C466 H491 0.979 . S
C466 H492 0.980 . S
C466 H493 0.983 . S
C467 C468 1.391 . S
C467 C472 1.391 . S
C467 H497 0.948 . S
C468 C467 1.391 . S
C468 C469 1.391 . S
C469 C468 1.391 . S
C469 C470 1.392 . S
C469 H498 0.947 . S
C470 C469 1.392 . S
C470 C471 1.419 . S
C470 H499 0.948 . S
C471 C470 1.419 . S
C471 C472 1.391 . S
C471 C475 1.397 . S
C472 C467 1.391 . S
C472 C471 1.391 . S
C472 C473 1.399 . S
C473 C472 1.399 . S
C473 C474 1.396 . S
C473 C476 1.453 . S
C473 C477 1.684 . S
C474 C455 1.723 . S
C474 C473 1.396 . S
C474 C475 1.394 . S
C475 C471 1.397 . S
C475 C474 1.394 . S
C475 C485 1.746 . S
C476 C473 1.453 . S
C476 H500 0.982 . S
C476 H501 0.979 . S
C476 H502 0.977 . S
C477 C473 1.684 . S
C477 H503 0.979 . S
C477 H504 0.980 . S
C477 H505 0.983 . S
C478 H454 0.948 . S
C478 C479 1.391 . S
C478 C483 1.391 . S
C479 C478 1.391 . S
C479 C480 1.391 . S
C480 H457 0.947 . S
C480 C479 1.391 . S
C480 C481 1.392 . S
C481 H458 0.948 . S
C481 C480 1.392 . S
C481 C482 1.419 . S
C482 C481 1.419 . S
C482 C483 1.391 . S
C482 C486 1.397 . S
C483 C478 1.391 . S
C483 C482 1.391 . S
C483 C484 1.399 . S
C484 C483 1.399 . S
C484 C485 1.376 1_565 S
C484 C487 1.453 . S
C484 C488 1.684 . S
C485 C475 1.746 . S
C485 C484 1.376 1_545 S
C485 C486 1.390 1_545 S
C486 C456 1.723 1_565 S
C486 C482 1.397 . S
C486 C485 1.390 1_565 S
C487 H459 0.982 . S
C487 H463 0.979 . S
C487 H464 0.977 . S
C487 C484 1.453 . S
C488 H460 0.979 . S
C488 H461 0.980 . S
C488 H462 0.983 . S
C488 C484 1.684 . S
H489 C507 0.948 . S
H490 C448 0.948 . S
H491 C466 0.979 . S
H492 C466 0.980 . S
H493 C466 0.983 . S
H494 C465 0.982 . S
H495 C465 0.979 . S
H496 C465 0.977 1_565 S
H497 C467 0.948 . S
H498 C469 0.947 . S
H499 C470 0.948 . S
H500 C476 0.982 . S
H501 C476 0.979 . S
H502 C476 0.977 . S
H503 C477 0.979 . S
H504 C477 0.980 . S
H505 C477 0.983 . S
H506 C450 0.947 . S
C507 C450 1.392 . S
C507 C451 1.419 . S
C507 H489 0.948 . S
C508 C509 1.391 1_554 S
C508 C512 1.391 . S
C508 H550 0.948 . S
C509 C508 1.391 1_556 S
C509 C510 1.391 . S
C510 C509 1.391 . S
C510 H566 0.947 . S
C510 C567 1.392 . S
C511 C512 1.391 1_556 S
C511 C515 1.397 . S
C511 C567 1.419 . S
C512 C508 1.391 . S
C512 C511 1.391 1_554 S
C512 C513 1.399 . S
C513 C512 1.399 . S
C513 C516 1.396 . S
C513 C525 1.453 . S
C513 C526 1.684 . S
H514 C538 0.948 . S
C515 C511 1.397 . S
C515 C516 1.394 1_556 S
C515 C534 1.723 . S
C516 C513 1.396 . S
C516 C515 1.394 1_554 S
C516 C546 1.723 . S
H517 C540 0.947 . S
H518 C541 0.948 . S
H519 C547 0.982 . S
H520 C548 0.979 . S
H521 C548 0.980 1_556 S
H522 C548 0.983 . S
H523 C547 0.979 . S
H524 C547 0.977 1_556 S
C525 C513 1.453 . S
C525 H554 0.982 . S
C525 H555 0.979 . S
C525 H556 0.977 . S
C526 C513 1.684 . S
C526 H551 0.979 . S
C526 H552 0.980 . S
C526 H553 0.983 . S
C527 C528 1.391 . S
C527 C532 1.391 . S
C527 H557 0.948 . S
C528 C527 1.391 . S
C528 C529 1.391 . S
C529 C528 1.391 . S
C529 C530 1.392 . S
C529 H558 0.947 . S
C530 C529 1.392 . S
C530 C531 1.419 . S
C530 H559 0.948 . S
C531 C530 1.419 . S
C531 C532 1.391 . S
C531 C535 1.397 . S
C532 C527 1.391 . S
C532 C531 1.391 . S
C532 C533 1.399 . S
C533 C532 1.399 . S
C533 C534 1.396 . S
C533 C536 1.453 . S
C533 C537 1.684 . S
C534 C515 1.723 . S
C534 C533 1.396 . S
C534 C535 1.394 . S
C535 C531 1.397 . S
C535 C534 1.394 . S
C535 C545 1.723 1_556 S
C536 C533 1.453 . S
C536 H560 0.982 . S
C536 H561 0.979 . S
C536 H562 0.977 . S
C537 C533 1.684 . S
C537 H563 0.979 . S
C537 H564 0.980 . S
C537 H565 0.983 . S
C538 H514 0.948 . S
C538 C539 1.391 . S
C538 C543 1.391 . S
C539 C538 1.391 . S
C539 C540 1.391 . S
C540 H517 0.947 . S
C540 C539 1.391 . S
C540 C541 1.392 . S
C541 H518 0.948 . S
C541 C540 1.392 . S
C541 C542 1.419 . S
C542 C541 1.419 . S
C542 C543 1.391 . S
C542 C546 1.397 . S
C543 C538 1.391 . S
C543 C542 1.391 . S
C543 C544 1.399 . S
C544 C543 1.399 . S
C544 C545 1.396 . S
C544 C547 1.453 . S
C544 C548 1.684 . S
C545 C535 1.723 1_554 S
C545 C544 1.396 . S
C545 C546 1.394 . S
C546 C516 1.723 . S
C546 C542 1.397 . S
C546 C545 1.394 . S
C547 H519 0.982 . S
C547 H523 0.979 . S
C547 H524 0.977 1_554 S
C547 C544 1.453 . S
C548 H520 0.979 . S
C548 H521 0.980 1_554 S
C548 H522 0.983 . S
C548 C544 1.684 . S
H549 C567 0.948 . S
H550 C508 0.948 . S
H551 C526 0.979 . S
H552 C526 0.980 . S
H553 C526 0.983 . S
H554 C525 0.982 . S
H555 C525 0.979 . S
H556 C525 0.977 . S
H557 C527 0.948 . S
H558 C529 0.947 . S
H559 C530 0.948 . S
H560 C536 0.982 . S
H561 C536 0.979 . S
H562 C536 0.977 . S
H563 C537 0.979 . S
H564 C537 0.980 . S
H565 C537 0.983 . S
H566 C510 0.947 . S
C567 C510 1.392 . S
C567 C511 1.419 . S
C567 H549 0.948 . S
H568 C574 0.930 . S
H569 C578 0.930 . S
H570 C583 0.929 . S
H571 C581 0.929 . S
H572 C576 0.929 . S
H573 C582 0.929 . S
C574 H568 0.930 . S
C574 C575 1.367 . S
C574 C582 1.378 . S
C575 C574 1.367 . S
C575 C583 1.433 . S
C576 H572 0.929 . S
C576 C578 1.378 . S
C576 C580 1.350 . S
C577 C580 1.463 . S
C577 C582 1.350 . S
C577 N585 1.427 . S
C578 H569 0.930 . S
C578 C576 1.378 . S
C578 C579 1.367 . S
C579 C578 1.367 . S
C579 C581 1.433 . S
C580 C576 1.350 . S
C580 C577 1.463 . S
C580 N584 1.427 . S
C581 H571 0.929 . S
C581 C579 1.433 . S
C581 N584 1.384 . S
C582 H573 0.929 . S
C582 C574 1.378 . S
C582 C577 1.350 . S
C583 H570 0.929 . S
C583 C575 1.433 . S
C583 N585 1.384 . S
N584 C580 1.427 . S
N584 C581 1.384 . S
N585 C577 1.427 . S
N585 C583 1.384 . S
H586 C592 0.930 . S
H587 C596 0.930 . S
H588 C601 0.929 . S
H589 C599 0.929 . S
H590 C594 0.929 . S
H591 C600 0.929 . S
C592 H586 0.930 . S
C592 C593 1.367 . S
C592 C600 1.378 . S
C593 C592 1.367 . S
C593 C601 1.433 . S
C594 H590 0.929 . S
C594 C596 1.378 . S
C594 C598 1.350 . S
C595 C598 1.463 . S
C595 C600 1.350 . S
C595 N603 1.427 . S
C596 H587 0.930 . S
C596 C594 1.378 . S
C596 C597 1.367 . S
C597 C596 1.367 . S
C597 C599 1.433 . S
C598 C594 1.350 . S
C598 C595 1.463 . S
C598 N602 1.427 . S
C599 H589 0.929 . S
C599 C597 1.433 . S
C599 N602 1.384 . S
C600 H591 0.929 . S
C600 C592 1.378 . S
C600 C595 1.350 . S
C601 H588 0.929 . S
C601 C593 1.433 . S
C601 N603 1.384 . S
N602 C598 1.427 . S
N602 C599 1.384 . S
N603 C595 1.427 . S
N603 C601 1.384 . S
H604 C610 0.930 . S
H605 C614 0.930 . S
H606 C619 0.929 . S
H607 C617 0.929 . S
H608 C612 0.929 . S
H609 C618 0.929 . S
C610 H604 0.930 . S
C610 C611 1.367 . S
C610 C618 1.378 . S
C611 C610 1.367 . S
C611 C619 1.433 . S
C612 H608 0.929 . S
C612 C614 1.378 . S
C612 C616 1.350 . S
C613 C616 1.463 . S
C613 C618 1.350 . S
C613 N621 1.427 . S
C614 H605 0.930 . S
C614 C612 1.378 . S
C614 C615 1.367 . S
C615 C614 1.367 . S
C615 C617 1.433 . S
C616 C612 1.350 . S
C616 C613 1.463 . S
C616 N620 1.427 . S
C617 H607 0.929 . S
C617 C615 1.433 . S
C617 N620 1.384 . S
C618 H609 0.929 . S
C618 C610 1.378 . S
C618 C613 1.350 . S
C619 H606 0.929 . S
C619 C611 1.433 . S
C619 N621 1.384 . S
N620 C616 1.427 . S
N620 C617 1.384 . S
N621 C613 1.427 . S
N621 C619 1.384 . S
H622 C628 0.930 . S
H623 C632 0.930 . S
H624 C637 0.929 . S
H625 C635 0.929 . S
H626 C630 0.929 . S
H627 C636 0.929 . S
C628 H622 0.930 . S
C628 C629 1.367 . S
C628 C636 1.378 . S
C629 C628 1.367 . S
C629 C637 1.433 . S
C630 H626 0.929 . S
C630 C632 1.378 . S
C630 C634 1.350 . S
C631 C634 1.463 . S
C631 C636 1.350 . S
C631 N639 1.427 . S
C632 H623 0.930 . S
C632 C630 1.378 . S
C632 C633 1.367 . S
C633 C632 1.367 . S
C633 C635 1.433 . S
C634 C630 1.350 . S
C634 C631 1.463 . S
C634 N638 1.427 . S
C635 H625 0.929 . S
C635 C633 1.433 . S
C635 N638 1.384 . S
C636 H627 0.929 . S
C636 C628 1.378 . S
C636 C631 1.350 . S
C637 H624 0.929 . S
C637 C629 1.433 . S
C637 N639 1.384 . S
N638 C634 1.427 . S
N638 C635 1.384 . S
N639 C631 1.427 . S
N639 C637 1.384 . S
H640 C646 0.930 . S
H641 C650 0.930 . S
H642 C655 0.929 . S
H643 C653 0.929 . S
H644 C648 0.929 . S
H645 C654 0.929 . S
C646 H640 0.930 . S
C646 C647 1.367 . S
C646 C654 1.378 . S
C647 C646 1.367 . S
C647 C655 1.433 . S
C648 H644 0.929 . S
C648 C650 1.378 . S
C648 C652 1.350 . S
C649 C652 1.463 . S
C649 C654 1.350 . S
C649 N657 1.427 . S
C650 H641 0.930 . S
C650 C648 1.378 . S
C650 C651 1.367 . S
C651 C650 1.367 . S
C651 C653 1.433 . S
C652 C648 1.350 . S
C652 C649 1.463 . S
C652 N656 1.427 . S
C653 H643 0.929 . S
C653 C651 1.433 . S
C653 N656 1.384 . S
C654 H645 0.929 . S
C654 C646 1.378 . S
C654 C649 1.350 . S
C655 H642 0.929 . S
C655 C647 1.433 . S
C655 N657 1.384 . S
N656 C652 1.427 . S
N656 C653 1.384 . S
N657 C649 1.427 . S
N657 C655 1.384 . S
H658 C664 0.930 . S
H659 C668 0.930 . S
H660 C673 0.929 . S
H661 C671 0.929 . S
H662 C666 0.929 . S
H663 C672 0.929 . S
C664 H658 0.930 . S
C664 C665 1.367 . S
C664 C672 1.378 . S
C665 C664 1.367 . S
C665 C673 1.433 . S
C666 H662 0.929 . S
C666 C668 1.378 . S
C666 C670 1.350 . S
C667 C670 1.463 . S
C667 C672 1.350 . S
C667 N675 1.427 . S
C668 H659 0.930 . S
C668 C666 1.378 . S
C668 C669 1.367 . S
C669 C668 1.367 . S
C669 C671 1.433 . S
C670 C666 1.350 . S
C670 C667 1.463 . S
C670 N674 1.427 . S
C671 H661 0.929 . S
C671 C669 1.433 . S
C671 N674 1.384 . S
C672 H663 0.929 . S
C672 C664 1.378 . S
C672 C667 1.350 . S
C673 H660 0.929 . S
C673 C665 1.433 . S
C673 N675 1.384 . S
N674 C670 1.427 . S
N674 C671 1.384 . S
N675 C667 1.427 . S
N675 C673 1.384 . S
H676 C682 0.930 . S
H677 C686 0.930 . S
H678 C691 0.929 . S
H679 C689 0.929 . S
H680 C684 0.929 . S
H681 C690 0.929 . S
C682 H676 0.930 . S
C682 C683 1.367 . S
C682 C690 1.378 . S
C683 C682 1.367 . S
C683 C691 1.433 . S
C684 H680 0.929 . S
C684 C686 1.378 . S
C684 C688 1.350 . S
C685 C688 1.463 . S
C685 C690 1.350 . S
C685 N693 1.427 . S
C686 H677 0.930 . S
C686 C684 1.378 . S
C686 C687 1.367 . S
C687 C686 1.367 . S
C687 C689 1.433 . S
C688 C684 1.350 . S
C688 C685 1.463 . S
C688 N692 1.427 . S
C689 H679 0.929 . S
C689 C687 1.433 . S
C689 N692 1.384 . S
C690 H681 0.929 . S
C690 C682 1.378 . S
C690 C685 1.350 . S
C691 H678 0.929 . S
C691 C683 1.433 . S
C691 N693 1.384 . S
N692 C688 1.427 . S
N692 C689 1.384 . S
N693 C685 1.427 . S
N693 C691 1.384 . S
H694 C700 0.930 . S
H695 C704 0.930 . S
H696 C709 0.929 . S
H697 C707 0.929 . S
H698 C702 0.929 . S
H699 C708 0.929 . S
C700 H694 0.930 . S
C700 C701 1.367 . S
C700 C708 1.378 . S
C701 C700 1.367 . S
C701 C709 1.433 . S
C702 H698 0.929 . S
C702 C704 1.378 . S
C702 C706 1.350 . S
C703 C706 1.463 . S
C703 C708 1.350 . S
C703 N711 1.427 . S
C704 H695 0.930 . S
C704 C702 1.378 . S
C704 C705 1.367 . S
C705 C704 1.367 . S
C705 C707 1.433 . S
C706 C702 1.350 . S
C706 C703 1.463 . S
C706 N710 1.427 . S
C707 H697 0.929 . S
C707 C705 1.433 . S
C707 N710 1.384 . S
C708 H699 0.929 . S
C708 C700 1.378 . S
C708 C703 1.350 . S
C709 H696 0.929 . S
C709 C701 1.433 . S
C709 N711 1.384 . S
N710 C706 1.427 . S
N710 C707 1.384 . S
N711 C703 1.427 . S
N711 C709 1.384 . S
H712 C718 0.930 . S
H713 C722 0.930 . S
H714 C727 0.929 . S
H715 C725 0.929 . S
H716 C720 0.929 . S
H717 C726 0.929 . S
C718 H712 0.930 . S
C718 C719 1.367 . S
C718 C726 1.378 . S
C719 C718 1.367 . S
C719 C727 1.433 . S
C720 H716 0.929 . S
C720 C722 1.378 . S
C720 C724 1.350 . S
C721 C724 1.463 . S
C721 C726 1.350 . S
C721 N729 1.427 . S
C722 H713 0.930 . S
C722 C720 1.378 . S
C722 C723 1.367 . S
C723 C722 1.367 . S
C723 C725 1.433 . S
C724 C720 1.350 . S
C724 C721 1.463 . S
C724 N728 1.427 . S
C725 H715 0.929 . S
C725 C723 1.433 . S
C725 N728 1.384 . S
C726 H717 0.929 . S
C726 C718 1.378 . S
C726 C721 1.350 . S
C727 H714 0.929 . S
C727 C719 1.433 . S
C727 N729 1.384 . S
N728 C724 1.427 . S
N728 C725 1.384 . S
N729 C721 1.427 . S
N729 C727 1.384 . S
H730 C736 0.930 . S
H731 C740 0.930 . S
H732 C745 0.929 . S
H733 C743 0.929 . S
H734 C738 0.929 . S
H735 C744 0.929 . S
C736 H730 0.930 . S
C736 C737 1.367 . S
C736 C744 1.378 . S
C737 C736 1.367 . S
C737 C745 1.433 . S
C738 H734 0.929 . S
C738 C740 1.378 . S
C738 C742 1.350 . S
C739 C742 1.463 . S
C739 C744 1.350 . S
C739 N747 1.427 . S
C740 H731 0.930 . S
C740 C738 1.378 . S
C740 C741 1.367 . S
C741 C740 1.367 . S
C741 C743 1.433 . S
C742 C738 1.350 . S
C742 C739 1.463 . S
C742 N746 1.427 . S
C743 H733 0.929 . S
C743 C741 1.433 . S
C743 N746 1.384 . S
C744 H735 0.929 . S
C744 C736 1.378 . S
C744 C739 1.350 . S
C745 H732 0.929 . S
C745 C737 1.433 . S
C745 N747 1.384 . S
N746 C742 1.427 . S
N746 C743 1.384 . S
N747 C739 1.427 . S
N747 C745 1.384 . S
H748 C754 0.930 . S
H749 C758 0.930 . S
H750 C763 0.929 . S
H751 C761 0.929 . S
H752 C756 0.929 . S
H753 C762 0.929 . S
C754 H748 0.930 . S
C754 C755 1.367 . S
C754 C762 1.378 . S
C755 C754 1.367 . S
C755 C763 1.433 . S
C756 H752 0.929 . S
C756 C758 1.378 . S
C756 C760 1.350 . S
C757 C760 1.463 . S
C757 C762 1.350 . S
C757 N765 1.427 . S
C758 H749 0.930 . S
C758 C756 1.378 . S
C758 C759 1.367 . S
C759 C758 1.367 . S
C759 C761 1.433 . S
C760 C756 1.350 . S
C760 C757 1.463 . S
C760 N764 1.427 . S
C761 H751 0.929 . S
C761 C759 1.433 . S
C761 N764 1.384 . S
C762 H753 0.929 . S
C762 C754 1.378 . S
C762 C757 1.350 . S
C763 H750 0.929 . S
C763 C755 1.433 . S
C763 N765 1.384 . S
N764 C760 1.427 . S
N764 C761 1.384 . S
N765 C757 1.427 . S
N765 C763 1.384 . S
H766 C772 0.930 . S
H767 C776 0.930 . S
H768 C781 0.929 . S
H769 C779 0.929 . S
H770 C774 0.929 . S
H771 C780 0.929 . S
C772 H766 0.930 . S
C772 C773 1.367 . S
C772 C780 1.378 . S
C773 C772 1.367 . S
C773 C781 1.433 . S
C774 H770 0.929 . S
C774 C776 1.378 . S
C774 C778 1.350 . S
C775 C778 1.463 . S
C775 C780 1.350 . S
C775 N783 1.427 . S
C776 H767 0.930 . S
C776 C774 1.378 . S
C776 C777 1.367 . S
C777 C776 1.367 . S
C777 C779 1.433 . S
C778 C774 1.350 . S
C778 C775 1.463 . S
C778 N782 1.427 . S
C779 H769 0.929 . S
C779 C777 1.433 . S
C779 N782 1.384 . S
C780 H771 0.929 . S
C780 C772 1.378 . S
C780 C775 1.350 . S
C781 H768 0.929 . S
C781 C773 1.433 . S
C781 N783 1.384 . S
N782 C778 1.427 . S
N782 C779 1.384 . S
N783 C775 1.427 . S
N783 C781 1.384 . S
H784 C790 0.930 . S
H785 C794 0.930 . S
H786 C799 0.929 . S
H787 C797 0.929 . S
H788 C792 0.929 . S
H789 C798 0.929 . S
C790 H784 0.930 . S
C790 C791 1.367 . S
C790 C798 1.378 . S
C791 C790 1.367 . S
C791 C799 1.433 . S
C792 H788 0.929 . S
C792 C794 1.378 . S
C792 C796 1.350 . S
C793 C796 1.463 . S
C793 C798 1.350 . S
C793 N801 1.427 . S
C794 H785 0.930 . S
C794 C792 1.378 . S
C794 C795 1.367 . S
C795 C794 1.367 . S
C795 C797 1.433 . S
C796 C792 1.350 . S
C796 C793 1.463 . S
C796 N800 1.427 . S
C797 H787 0.929 . S
C797 C795 1.433 . S
C797 N800 1.384 . S
C798 H789 0.929 . S
C798 C790 1.378 . S
C798 C793 1.350 . S
C799 H786 0.929 . S
C799 C791 1.433 . S
C799 N801 1.384 . S
N800 C796 1.427 . S
N800 C797 1.384 . S
N801 C793 1.427 . S
N801 C799 1.384 . S
H802 C808 0.930 . S
H803 C812 0.930 . S
H804 C817 0.929 . S
H805 C815 0.929 . S
H806 C810 0.929 . S
H807 C816 0.929 . S
C808 H802 0.930 . S
C808 C809 1.367 . S
C808 C816 1.378 . S
C809 C808 1.367 . S
C809 C817 1.433 . S
C810 H806 0.929 . S
C810 C812 1.378 . S
C810 C814 1.350 . S
C811 C814 1.463 . S
C811 C816 1.350 . S
C811 N819 1.427 . S
C812 H803 0.930 . S
C812 C810 1.378 . S
C812 C813 1.367 . S
C813 C812 1.367 . S
C813 C815 1.433 . S
C814 C810 1.350 . S
C814 C811 1.463 . S
C814 N818 1.427 . S
C815 H805 0.929 . S
C815 C813 1.433 . S
C815 N818 1.384 . S
C816 H807 0.929 . S
C816 C808 1.378 . S
C816 C811 1.350 . S
C817 H804 0.929 . S
C817 C809 1.433 . S
C817 N819 1.384 . S
N818 C814 1.427 . S
N818 C815 1.384 . S
N819 C811 1.427 . S
N819 C817 1.384 . S
H820 C826 0.930 . S
H821 C830 0.930 . S
H822 C835 0.929 . S
H823 C833 0.929 . S
H824 C828 0.929 . S
H825 C834 0.929 . S
C826 H820 0.930 . S
C826 C827 1.367 . S
C826 C834 1.378 . S
C827 C826 1.367 . S
C827 C835 1.433 . S
C828 H824 0.929 . S
C828 C830 1.378 . S
C828 C832 1.350 . S
C829 C832 1.463 . S
C829 C834 1.350 . S
C829 N837 1.427 . S
C830 H821 0.930 . S
C830 C828 1.378 . S
C830 C831 1.367 . S
C831 C830 1.367 . S
C831 C833 1.433 . S
C832 C828 1.350 . S
C832 C829 1.463 . S
C832 N836 1.427 . S
C833 H823 0.929 . S
C833 C831 1.433 . S
C833 N836 1.384 . S
C834 H825 0.929 . S
C834 C826 1.378 . S
C834 C829 1.350 . S
C835 H822 0.929 . S
C835 C827 1.433 . S
C835 N837 1.384 . S
N836 C832 1.427 . S
N836 C833 1.384 . S
N837 C829 1.427 . S
N837 C835 1.384 . S
H838 C844 0.930 . S
H839 C848 0.930 . S
H840 C853 0.929 . S
H841 C851 0.929 . S
H842 C846 0.929 . S
H843 C852 0.929 . S
C844 H838 0.930 . S
C844 C845 1.367 . S
C844 C852 1.378 . S
C845 C844 1.367 . S
C845 C853 1.433 . S
C846 H842 0.929 . S
C846 C848 1.378 . S
C846 C850 1.350 . S
C847 C850 1.463 . S
C847 C852 1.350 . S
C847 N855 1.427 . S
C848 H839 0.930 . S
C848 C846 1.378 . S
C848 C849 1.367 . S
C849 C848 1.367 . S
C849 C851 1.433 . S
C850 C846 1.350 . S
C850 C847 1.463 . S
C850 N854 1.427 . S
C851 H841 0.929 . S
C851 C849 1.433 . S
C851 N854 1.384 . S
C852 H843 0.929 . S
C852 C844 1.378 . S
C852 C847 1.350 . S
C853 H840 0.929 . S
C853 C845 1.433 . S
C853 N855 1.384 . S
N854 C850 1.427 . S
N854 C851 1.384 . S
N855 C847 1.427 . S
N855 C853 1.384 . S
H856 C862 0.930 . S
H857 C866 0.930 . S
H858 C871 0.929 . S
H859 C869 0.929 . S
H860 C864 0.929 . S
H861 C870 0.929 . S
C862 H856 0.930 . S
C862 C863 1.367 . S
C862 C870 1.378 . S
C863 C862 1.367 . S
C863 C871 1.433 1_554 S
C864 H860 0.929 . S
C864 C866 1.378 . S
C864 C868 1.350 . S
C865 C868 1.463 1_554 S
C865 C870 1.350 . S
C865 N873 1.427 1_554 S
C866 H857 0.930 . S
C866 C864 1.378 . S
C866 C867 1.386 . S
C867 C866 1.386 . S
C867 C869 1.414 1_556 S
C868 C864 1.350 . S
C868 C865 1.463 1_556 S
C868 N872 1.427 1_556 S
C869 H859 0.929 . S
C869 C867 1.414 1_554 S
C869 N872 1.384 . S
C870 H861 0.929 . S
C870 C862 1.378 . S
C870 C865 1.350 . S
C871 H858 0.929 . S
C871 C863 1.433 1_556 S
C871 N873 1.384 . S
N872 C868 1.427 1_554 S
N872 C869 1.384 . S
N873 C865 1.427 1_556 S
N873 C871 1.384 . S
H874 C880 0.930 . S
H875 C884 0.930 . S
H876 C889 0.929 . S
H877 C887 0.929 . S
H878 C882 0.929 . S
H879 C888 0.929 . S
C880 H874 0.930 . S
C880 C881 1.367 . S
C880 C888 1.378 . S
C881 C880 1.367 . S
C881 C889 1.433 . S
C882 H878 0.929 . S
C882 C884 1.378 . S
C882 C886 1.350 . S
C883 C886 1.463 . S
C883 C888 1.350 . S
C883 N891 1.427 . S
C884 H875 0.930 . S
C884 C882 1.378 . S
C884 C885 1.367 . S
C885 C884 1.367 . S
C885 C887 1.433 . S
C886 C882 1.350 . S
C886 C883 1.463 . S
C886 N890 1.427 . S
C887 H877 0.929 . S
C887 C885 1.433 . S
C887 N890 1.384 . S
C888 H879 0.929 . S
C888 C880 1.378 . S
C888 C883 1.350 . S
C889 H876 0.929 . S
C889 C881 1.433 . S
C889 N891 1.384 . S
N890 C886 1.427 . S
N890 C887 1.384 . S
N891 C883 1.427 . S
N891 C889 1.384 . S
H892 C898 0.930 . S
H893 C902 0.930 . S
H894 C907 0.929 . S
H895 C905 0.929 . S
H896 C900 0.929 . S
H897 C906 0.929 . S
C898 H892 0.930 . S
C898 C899 1.384 . S
C898 C906 1.378 . S
C899 C898 1.384 . S
C899 C907 1.416 1_554 S
C900 H896 0.929 . S
C900 C902 1.378 . S
C900 C904 1.350 . S
C901 C904 1.463 1_554 S
C901 C906 1.350 . S
C901 N909 1.427 1_554 S
C902 H893 0.930 . S
C902 C900 1.378 . S
C902 C903 1.380 . S
C903 C902 1.380 . S
C903 C905 1.420 1_556 S
C904 C900 1.350 . S
C904 C901 1.463 1_556 S
C904 N908 1.427 1_556 S
C905 H895 0.929 . S
C905 C903 1.420 1_554 S
C905 N908 1.384 . S
C906 H897 0.929 . S
C906 C898 1.378 . S
C906 C901 1.350 . S
C907 H894 0.929 . S
C907 C899 1.416 1_556 S
C907 N909 1.384 . S
N908 C904 1.427 1_554 S
N908 C905 1.384 . S
N909 C901 1.427 1_556 S
N909 C907 1.384 . S
H910 C916 0.930 . S
H911 C920 0.930 . S
H912 C925 0.929 . S
H913 C923 0.929 . S
H914 C918 0.929 . S
H915 C924 0.929 . S
C916 H910 0.930 . S
C916 C917 1.367 . S
C916 C924 1.378 . S
C917 C916 1.367 . S
C917 C925 1.433 . S
C918 H914 0.929 . S
C918 C920 1.378 . S
C918 C922 1.350 . S
C919 C922 1.463 . S
C919 C924 1.350 . S
C919 N927 1.427 . S
C920 H911 0.930 . S
C920 C918 1.378 . S
C920 C921 1.367 . S
C921 C920 1.367 . S
C921 C923 1.433 . S
C922 C918 1.350 . S
C922 C919 1.463 . S
C922 N926 1.427 . S
C923 H913 0.929 . S
C923 C921 1.433 . S
C923 N926 1.384 . S
C924 H915 0.929 . S
C924 C916 1.378 . S
C924 C919 1.350 . S
C925 H912 0.929 . S
C925 C917 1.433 . S
C925 N927 1.384 . S
N926 C922 1.427 . S
N926 C923 1.384 . S
N927 C919 1.427 . S
N927 C925 1.384 . S
H928 C934 0.930 . S
H929 C938 0.930 . S
H930 C943 0.929 . S
H931 C941 0.929 . S
H932 C936 0.929 . S
H933 C942 0.929 . S
C934 H928 0.930 . S
C934 C935 1.367 . S
C934 C942 1.378 . S
C935 C934 1.367 . S
C935 C943 1.433 . S
C936 H932 0.929 . S
C936 C938 1.378 . S
C936 C940 1.350 . S
C937 C940 1.463 . S
C937 C942 1.350 . S
C937 N945 1.427 . S
C938 H929 0.930 . S
C938 C936 1.378 . S
C938 C939 1.367 . S
C939 C938 1.367 . S
C939 C941 1.433 . S
C940 C936 1.350 . S
C940 C937 1.463 . S
C940 N944 1.427 . S
C941 H931 0.929 . S
C941 C939 1.433 . S
C941 N944 1.384 . S
C942 H933 0.929 . S
C942 C934 1.378 . S
C942 C937 1.350 . S
C943 H930 0.929 . S
C943 C935 1.433 . S
C943 N945 1.384 . S
N944 C940 1.427 . S
N944 C941 1.384 . S
N945 C937 1.427 . S
N945 C943 1.384 . S
H946 C952 0.930 . S
H947 C956 0.930 . S
H948 C961 0.929 . S
H949 C959 0.929 . S
H950 C954 0.929 . S
H951 C960 0.929 . S
C952 H946 0.930 . S
C952 C953 1.385 . S
C952 C960 1.378 . S
C953 C952 1.385 . S
C953 C961 1.414 1_556 S
C954 H950 0.929 . S
C954 C956 1.378 . S
C954 C958 1.350 . S
C955 C958 1.463 1_556 S
C955 C960 1.350 . S
C955 N963 1.427 1_556 S
C956 H947 0.930 . S
C956 C954 1.378 . S
C956 C957 1.367 . S
C957 C956 1.367 . S
C957 C959 1.433 1_554 S
C958 C954 1.350 . S
C958 C955 1.463 1_554 S
C958 N962 1.427 1_554 S
C959 H949 0.929 . S
C959 C957 1.433 1_556 S
C959 N962 1.384 . S
C960 H951 0.929 . S
C960 C952 1.378 . S
C960 C955 1.350 . S
C961 H948 0.929 . S
C961 C953 1.414 1_554 S
C961 N963 1.384 . S
N962 C958 1.427 1_556 S
N962 C959 1.384 . S
N963 C955 1.427 1_554 S
N963 C961 1.384 . S
H964 C970 0.930 . S
H965 C974 0.930 . S
H966 C979 0.929 . S
H967 C977 0.929 . S
H968 C972 0.929 . S
H969 C978 0.929 . S
C970 H964 0.930 . S
C970 C971 1.367 . S
C970 C978 1.378 . S
C971 C970 1.367 . S
C971 C979 1.433 . S
C972 H968 0.929 . S
C972 C974 1.378 . S
C972 C976 1.350 . S
C973 C976 1.463 . S
C973 C978 1.350 . S
C973 N981 1.427 . S
C974 H965 0.930 . S
C974 C972 1.378 . S
C974 C975 1.367 . S
C975 C974 1.367 . S
C975 C977 1.433 . S
C976 C972 1.350 . S
C976 C973 1.463 . S
C976 N980 1.427 . S
C977 H967 0.929 . S
C977 C975 1.433 . S
C977 N980 1.384 . S
C978 H969 0.929 . S
C978 C970 1.378 . S
C978 C973 1.350 . S
C979 H966 0.929 . S
C979 C971 1.433 . S
C979 N981 1.384 . S
N980 C976 1.427 . S
N980 C977 1.384 . S
N981 C973 1.427 . S
N981 C979 1.384 . S
H982 C988 0.930 . S
H983 C992 0.930 . S
H984 C997 0.929 . S
H985 C995 0.929 . S
H986 C990 0.929 . S
H987 C996 0.929 . S
C988 H982 0.930 . S
C988 C989 1.366 . S
C988 C996 1.378 . S
C989 C988 1.366 . S
C989 C997 1.434 1_556 S
C990 H986 0.929 . S
C990 C992 1.378 . S
C990 C994 1.350 . S
C991 C994 1.462 1_556 S
C991 C996 1.350 . S
C991 N999 1.427 1_556 S
C992 H983 0.930 . S
C992 C990 1.378 . S
C992 C993 1.367 . S
C993 C992 1.367 . S
C993 C995 1.433 1_554 S
C994 C990 1.350 . S
C994 C991 1.462 1_554 S
C994 N998 1.427 1_554 S
C995 H985 0.929 . S
C995 C993 1.433 1_556 S
C995 N998 1.384 . S
C996 H987 0.929 . S
C996 C988 1.378 . S
C996 C991 1.350 . S
C997 H984 0.929 . S
C997 C989 1.434 1_554 S
C997 N999 1.384 . S
N998 C994 1.427 1_556 S
N998 C995 1.384 . S
N999 C991 1.427 1_554 S
N999 C997 1.384 . S
C575 C5 1.485 . S
C579 C269 1.428 . S
C593 C31 1.479 . S
C597 C89 1.444 . S
C615 C168 1.438 . S
C611 C53 1.477 . S
C629 C71 1.478 . S
C633 C228 1.466 . S
C651 C389 1.428 . S
C647 C75 1.483 . S
C669 C468 1.463 . S
C665 C9 1.480 . S
C687 C539 1.472 . S
C683 C27 1.475 . S
C705 C329 1.443 . S
C701 C49 1.479 . S
C719 C51 1.477 . S
C723 C179 1.500 . S
C737 C72 1.476 . S
C741 C209 1.411 . S
C755 C6 1.477 . S
C759 C288 1.500 . S
C777 C108 1.497 . S
C773 C29 1.475 . S
C791 C28 1.477 . S
C795 C528 1.414 . S
C813 C348 1.497 . S
C809 C50 1.475 . S
C831 C408 1.498 . S
C827 C73 1.484 . S
C845 C7 1.476 . S
C849 C449 1.411 . S
C867 C119 1.489 . S
C863 C4 1.500 . S
C885 C149 1.489 . S
C881 C30 1.503 . S
C899 C52 1.499 . S
C903 C239 1.463 1_556 S
C917 C70 1.498 . S
C921 C299 1.491 . S
C939 C359 1.492 . S
C935 C74 1.503 . S
C953 C8 1.501 1_556 S
C957 C419 1.486 . S
C971 C26 1.499 . S
C975 C479 1.458 . S
C989 C48 1.504 1_556 S
C993 C509 1.454 1_554 S
