# Generated by pormake.
# Topology apo, (3,6)-cn, num edge types: 1
# Building blocks:
#     Node 0, Type 0, BuildingBlock: BETDIP_clean_linker_0, # of connection points: 3
#     Node 1, Type 0, BuildingBlock: BETDIP_clean_linker_0, # of connection points: 3
#     Node 2, Type 0, BuildingBlock: BETDIP_clean_linker_0, # of connection points: 3
#     Node 3, Type 0, BuildingBlock: BETDIP_clean_linker_0, # of connection points: 3
#     Node 4, Type 0, BuildingBlock: BETDIP_clean_linker_0, # of connection points: 3
#     Node 5, Type 0, BuildingBlock: BETDIP_clean_linker_0, # of connection points: 3
#     Node 6, Type 0, BuildingBlock: BETDIP_clean_linker_0, # of connection points: 3
#     Node 7, Type 0, BuildingBlock: BETDIP_clean_linker_0, # of connection points: 3
#     Node 8, Type 1, BuildingBlock: KUMBOL_clean_sbu_1, # of connection points: 6
#     Node 9, Type 1, BuildingBlock: KUMBOL_clean_sbu_1, # of connection points: 6
#     Node 10, Type 1, BuildingBlock: KUMBOL_clean_sbu_1, # of connection points: 6
#     Node 11, Type 1, BuildingBlock: KUMBOL_clean_sbu_1, # of connection points: 6
#     Edge 12, Type (0, 1), BuildingBlock: MIFKUJ_clean_linker_0, # of connection points: 2
#     Edge 13, Type (0, 1), BuildingBlock: MIFKUJ_clean_linker_0, # of connection points: 2
#     Edge 14, Type (0, 1), BuildingBlock: MIFKUJ_clean_linker_0, # of connection points: 2
#     Edge 15, Type (0, 1), BuildingBlock: MIFKUJ_clean_linker_0, # of connection points: 2
#     Edge 16, Type (0, 1), BuildingBlock: MIFKUJ_clean_linker_0, # of connection points: 2
#     Edge 17, Type (0, 1), BuildingBlock: MIFKUJ_clean_linker_0, # of connection points: 2
#     Edge 18, Type (0, 1), BuildingBlock: MIFKUJ_clean_linker_0, # of connection points: 2
#     Edge 19, Type (0, 1), BuildingBlock: MIFKUJ_clean_linker_0, # of connection points: 2
#     Edge 20, Type (0, 1), BuildingBlock: MIFKUJ_clean_linker_0, # of connection points: 2
#     Edge 21, Type (0, 1), BuildingBlock: MIFKUJ_clean_linker_0, # of connection points: 2
#     Edge 22, Type (0, 1), BuildingBlock: MIFKUJ_clean_linker_0, # of connection points: 2
#     Edge 23, Type (0, 1), BuildingBlock: MIFKUJ_clean_linker_0, # of connection points: 2
#     Edge 24, Type (0, 1), BuildingBlock: MIFKUJ_clean_linker_0, # of connection points: 2
#     Edge 25, Type (0, 1), BuildingBlock: MIFKUJ_clean_linker_0, # of connection points: 2
#     Edge 26, Type (0, 1), BuildingBlock: MIFKUJ_clean_linker_0, # of connection points: 2
#     Edge 27, Type (0, 1), BuildingBlock: MIFKUJ_clean_linker_0, # of connection points: 2
#     Edge 28, Type (0, 1), BuildingBlock: MIFKUJ_clean_linker_0, # of connection points: 2
#     Edge 29, Type (0, 1), BuildingBlock: MIFKUJ_clean_linker_0, # of connection points: 2
#     Edge 30, Type (0, 1), BuildingBlock: MIFKUJ_clean_linker_0, # of connection points: 2
#     Edge 31, Type (0, 1), BuildingBlock: MIFKUJ_clean_linker_0, # of connection points: 2
#     Edge 32, Type (0, 1), BuildingBlock: MIFKUJ_clean_linker_0, # of connection points: 2
#     Edge 33, Type (0, 1), BuildingBlock: MIFKUJ_clean_linker_0, # of connection points: 2
#     Edge 34, Type (0, 1), BuildingBlock: MIFKUJ_clean_linker_0, # of connection points: 2
#     Edge 35, Type (0, 1), BuildingBlock: MIFKUJ_clean_linker_0, # of connection points: 2
# Relax obj value: 0.038
# Max RMSD: 0.187
# Mean RMSD: 0.149
data_MOF--net-apo--node1-KUMBOL_clean_sbu_1--node2-BETDIP_clean_linker_0--edge1-MIFKUJ_clean_linker_0
_symmetry_space_group_name_H-M    P1
_symmetry_Int_Tables_number       1
_symmetry_cell_setting            triclinic
loop_
_symmetry_equiv_pos_as_xyz
'x, y, z'
_cell_length_a     35.578869
_cell_length_b     55.107585
_cell_length_c     64.856044
_cell_angle_alpha  89.874681
_cell_angle_beta   89.97177
_cell_angle_gamma 90.330023
loop_
_atom_site_label
_atom_site_type_symbol
_atom_site_fract_x
_atom_site_fract_y
_atom_site_fract_z
_atom_type_partial_charge
H0 H 0.28293 0.3467 0.4406 0.0
H1 H 0.2931 0.37952 0.38068 0.0
H2 H 0.34592 0.41319 0.43272 0.0
H3 H 0.24288 0.35857 0.37323 0.0
C4 C 0.24254 0.3423 0.38266 0.0
C5 C 0.2933 0.36133 0.43092 0.0
C6 C 0.31569 0.37995 0.43944 0.0
C7 C 0.2842 0.36119 0.40988 0.0
C8 C 0.29882 0.37961 0.39703 0.0
C9 C 0.32105 0.39845 0.40517 0.0
C10 C 0.32905 0.39857 0.4264 0.0
N11 N 0.26093 0.34208 0.40217 0.0
H12 H 0.2177 0.16013 0.94191 0.0
H13 H 0.20921 0.12847 0.88158 0.0
H14 H 0.16494 0.0903 0.93424 0.0
H15 H 0.26932 0.14634 0.87983 0.0
C16 C 0.2622 0.16425 0.88558 0.0
C17 C 0.20853 0.1454 0.93204 0.0
C18 C 0.1901 0.1251 0.9406 0.0
C19 C 0.21689 0.14624 0.91089 0.0
C20 C 0.20465 0.12721 0.89805 0.0
C21 C 0.18553 0.10697 0.90625 0.0
C22 C 0.17894 0.10599 0.92761 0.0
N23 N 0.23769 0.16629 0.90284 0.0
H24 H 0.7822 0.16827 0.57809 0.0
H25 H 0.78933 0.13366 0.63745 0.0
H26 H 0.84976 0.10429 0.58612 0.0
H27 H 0.73536 0.15164 0.64317 0.0
C28 C 0.73649 0.16882 0.63498 0.0
C29 C 0.79271 0.15374 0.58775 0.0
C30 C 0.81739 0.13641 0.5795 0.0
C31 C 0.78181 0.15275 0.60851 0.0
C32 C 0.7965 0.13439 0.62127 0.0
C33 C 0.82073 0.11673 0.61326 0.0
C34 C 0.83094 0.11783 0.59235 0.0
N35 N 0.757 0.17084 0.6162 0.0
H36 H 0.72606 0.33542 0.07844 0.0
H37 H 0.71532 0.37269 0.13633 0.0
H38 H 0.65623 0.39879 0.08336 0.0
H39 H 0.76646 0.35436 0.14488 0.0
C40 C 0.76798 0.33748 0.13637 0.0
C41 C 0.71466 0.3502 0.08743 0.0
C42 C 0.68939 0.36663 0.07835 0.0
C43 C 0.72501 0.35244 0.1082 0.0
C44 C 0.70935 0.37122 0.12006 0.0
C45 C 0.68464 0.38802 0.11119 0.0
C46 C 0.67474 0.38557 0.09036 0.0
N47 N 0.7502 0.33513 0.11681 0.0
H48 H 0.7179 0.66258 0.57782 0.0
H49 H 0.70769 0.62805 0.63712 0.0
H50 H 0.64581 0.60002 0.58573 0.0
H51 H 0.71906 0.66545 0.64859 0.0
C52 C 0.7393 0.67328 0.63791 0.0
C53 C 0.70555 0.6486 0.58748 0.0
C54 C 0.68099 0.63117 0.57892 0.0
C55 C 0.71445 0.64818 0.60856 0.0
C56 C 0.69995 0.62937 0.62102 0.0
C57 C 0.67513 0.61207 0.61281 0.0
C58 C 0.66538 0.61328 0.5919 0.0
N59 N 0.73818 0.66675 0.6167 0.0
H60 H 0.77907 0.84881 0.07475 0.0
H61 H 0.78779 0.87902 0.1356 0.0
H62 H 0.84314 0.91415 0.08482 0.0
H63 H 0.7326 0.86116 0.14054 0.0
C64 C 0.73303 0.84465 0.13146 0.0
C65 C 0.78941 0.86292 0.08492 0.0
C66 C 0.81356 0.88116 0.07728 0.0
C67 C 0.77863 0.86255 0.10573 0.0
C68 C 0.79363 0.88011 0.11927 0.0
C69 C 0.81745 0.89869 0.11194 0.0
C70 C 0.82638 0.89928 0.09084 0.0
N71 N 0.75371 0.84386 0.11267 0.0
H72 H 0.22986 0.83765 0.43907 0.0
H73 H 0.22115 0.87393 0.38052 0.0
H74 H 0.17578 0.90718 0.43481 0.0
H75 H 0.22714 0.83703 0.36783 0.0
C76 C 0.24605 0.82759 0.3782 0.0
C77 C 0.22041 0.85295 0.42995 0.0
C78 C 0.20235 0.87253 0.43956 0.0
C79 C 0.22677 0.85298 0.40863 0.0
C80 C 0.21511 0.87305 0.39684 0.0
C81 C 0.19653 0.89264 0.40612 0.0
C82 C 0.19056 0.89233 0.42754 0.0
N83 N 0.24585 0.83295 0.39965 0.0
H84 H 0.27855 0.66705 0.9393 0.0
H85 H 0.28783 0.63278 0.88025 0.0
H86 H 0.33741 0.59935 0.93365 0.0
H87 H 0.23054 0.65013 0.87572 0.0
C88 C 0.23508 0.66803 0.8823 0.0
C89 C 0.2885 0.65212 0.92995 0.0
C90 C 0.30956 0.63338 0.93901 0.0
C91 C 0.27919 0.65149 0.90898 0.0
C92 C 0.29265 0.63241 0.89671 0.0
C93 C 0.31363 0.61336 0.90537 0.0
C94 C 0.32151 0.61391 0.92666 0.0
N95 N 0.25709 0.67055 0.9005 0.0
C96 C 0.89063 0.08706 0.27898 0.0
C97 C 0.89841 0.04824 0.29607 0.0
C98 C 0.91271 0.07124 0.29038 0.0
C99 C 0.86203 0.04134 0.28994 0.0
C100 C 0.85386 0.08036 0.27306 0.0
C101 C 0.83977 0.05738 0.27853 0.0
N102 N 0.90545 0.10878 0.27322 0.0
C103 C 0.88434 0.12537 0.26282 0.0
C104 C 0.83248 0.09691 0.26168 0.0
C105 C 0.8477 0.11959 0.25668 0.0
Gd106 Gd 0.04827 0.11848 0.24115 0.0
Gd107 Gd 0.96613 0.11743 0.28489 0.0
N108 N 0.94782 0.07845 0.29615 0.0
C109 C 0.92096 0.03292 0.30793 0.0
C110 C 0.96872 0.06423 0.309 0.0
C111 C 0.95612 0.04104 0.31455 0.0
H112 H 0.99473 0.07077 0.31547 0.0
H113 H 0.97327 0.02953 0.32416 0.0
H114 H 0.03504 0.17283 0.22038 0.0
H115 H 0.89569 0.14308 0.25932 0.0
H116 H 0.06819 0.21241 0.21829 0.0
H117 H 0.91114 0.01504 0.31248 0.0
H118 H 0.8507 0.0237 0.29411 0.0
H119 H 0.11152 0.07901 0.26149 0.0
H120 H 0.80413 0.09244 0.25685 0.0
H121 H 0.83118 0.13267 0.2482 0.0
H122 H 0.18154 0.20005 0.25696 0.0
H123 H 0.81169 0.05185 0.27402 0.0
H124 H 0.2063 0.11996 0.28213 0.0
H125 H 0.17264 0.08083 0.27893 0.0
N126 N 0.10734 0.11733 0.25755 0.0
C127 C 0.12642 0.13883 0.25804 0.0
C128 C 0.12435 0.09651 0.26405 0.0
C129 C 0.1786 0.11949 0.27521 0.0
C130 C 0.15966 0.09736 0.27347 0.0
C131 C 0.16246 0.1405 0.26701 0.0
H132 H 0.20957 0.1644 0.27359 0.0
N133 N 0.07645 0.15681 0.23955 0.0
C134 C 0.11089 0.159 0.24842 0.0
C135 C 0.11478 0.20071 0.23698 0.0
C136 C 0.13073 0.1812 0.24767 0.0
C137 C 0.0615 0.17533 0.22828 0.0
C138 C 0.08024 0.19765 0.22702 0.0
O139 O 0.95324 0.09959 0.25398 0.0
O140 O 0.01084 0.08547 0.24305 0.0
O141 O 0.04033 0.11986 0.20783 0.0
O142 O 0.09212 0.10624 0.2205 0.0
O143 O 0.02203 0.10001 0.29242 0.0
O144 O 0.0452 0.08496 0.26165 0.0
O145 O 0.03973 0.14965 0.26351 0.0
O146 O 0.0245 0.13 0.29324 0.0
O147 O 0.9432 0.11794 0.31599 0.0
O148 O 0.94376 0.15072 0.29762 0.0
O149 O 0.99252 0.1346 0.23193 0.0
O150 O 0.96686 0.14898 0.26247 0.0
C151 C 0.97392 0.0852 0.24245 0.0
C152 C 0.04135 0.08394 0.28186 0.0
C153 C 0.07416 0.09141 0.18792 0.0
C154 C 0.08561 0.08011 0.152 0.0
C155 C 0.06984 0.04925 0.17762 0.0
C156 C 0.0682 0.06694 0.19295 0.0
C157 C 0.0784 0.05571 0.1573 0.0
C158 C 0.08299 0.09791 0.16751 0.0
C159 C 0.0729 0.11033 0.20384 0.0
C160 C 0.16597 0.1831 0.25725 0.0
C161 C 0.18184 0.1628 0.26683 0.0
H162 H 0.1292 0.21805 0.236 0.0
C163 C 0.04169 0.14779 0.28364 0.0
C164 C 0.9703 0.14935 0.2422 0.0
C165 C 0.95225 0.1548 0.33376 0.0
C166 C 0.95221 0.16182 0.37098 0.0
C167 C 0.99483 0.18453 0.34871 0.0
C168 C 0.98058 0.17247 0.33149 0.0
C169 C 0.98092 0.17921 0.36835 0.0
C170 C 0.93796 0.14969 0.35354 0.0
C171 C 0.93778 0.14126 0.31578 0.0
H172 H 0.06468 0.03043 0.18153 0.0
H173 H 0.06205 0.06156 0.20868 0.0
H174 H 0.0793 0.04158 0.14574 0.0
H175 H 0.08881 0.11677 0.1639 0.0
H176 H 0.01669 0.19811 0.34683 0.0
H177 H 0.99176 0.17697 0.31644 0.0
H178 H 0.99217 0.18902 0.38144 0.0
H179 H 0.91616 0.13602 0.35536 0.0
C180 C 0.62346 0.39366 0.76108 0.0
C181 C 0.63572 0.43707 0.75971 0.0
C182 C 0.61161 0.41739 0.76429 0.0
C183 C 0.67167 0.43261 0.75166 0.0
C184 C 0.65978 0.38913 0.75333 0.0
C185 C 0.68365 0.40872 0.74848 0.0
N186 N 0.59982 0.37503 0.76593 0.0
C187 C 0.61129 0.35153 0.76447 0.0
C188 C 0.67116 0.36501 0.75091 0.0
C189 C 0.64692 0.34614 0.75667 0.0
Gd190 Gd 0.44675 0.38224 0.74244 0.0
Gd191 Gd 0.5402 0.38612 0.77771 0.0
N192 N 0.57621 0.4212 0.77154 0.0
C193 C 0.62288 0.46066 0.76328 0.0
C194 C 0.56406 0.44411 0.77579 0.0
C195 C 0.58703 0.46417 0.7715 0.0
H196 H 0.53655 0.44703 0.78221 0.0
H197 H 0.57706 0.48234 0.77453 0.0
H198 H 0.47356 0.32732 0.72339 0.0
H199 H 0.59307 0.33696 0.76956 0.0
H200 H 0.45891 0.28438 0.72942 0.0
H201 H 0.64051 0.47627 0.7599 0.0
H202 H 0.69049 0.44751 0.74793 0.0
H203 H 0.37915 0.41359 0.76572 0.0
H204 H 0.69882 0.36078 0.74497 0.0
H205 H 0.65577 0.32746 0.75527 0.0
H206 H 0.34925 0.28583 0.77226 0.0
H207 H 0.71159 0.40559 0.74241 0.0
H208 H 0.29966 0.36327 0.79131 0.0
H209 H 0.32087 0.40555 0.78536 0.0
N210 N 0.39071 0.37632 0.76072 0.0
C211 C 0.3792 0.35297 0.76338 0.0
C212 C 0.37015 0.39511 0.7683 0.0
C213 C 0.32514 0.36671 0.7826 0.0
C214 C 0.33709 0.3906 0.77936 0.0
C215 C 0.34622 0.34753 0.77459 0.0
H216 H 0.31056 0.31868 0.7864 0.0
N217 N 0.43312 0.34032 0.7448 0.0
C218 C 0.40128 0.33446 0.75546 0.0
C219 C 0.4123 0.29182 0.74951 0.0
C220 C 0.3904 0.31001 0.75838 0.0
C221 C 0.45216 0.32272 0.73443 0.0
C222 C 0.44289 0.29825 0.73716 0.0
O223 O 0.5428 0.40617 0.74721 0.0
O224 O 0.48247 0.41528 0.73596 0.0
O225 O 0.43514 0.37298 0.71044 0.0
O226 O 0.40065 0.39922 0.72596 0.0
O227 O 0.49331 0.41197 0.78598 0.0
O228 O 0.4499 0.41798 0.75935 0.0
O229 O 0.44651 0.37294 0.77666 0.0
O230 O 0.5022 0.35349 0.77995 0.0
O231 O 0.52883 0.39067 0.81048 0.0
O232 O 0.58291 0.37763 0.80026 0.0
O233 O 0.50209 0.36774 0.72995 0.0
O234 O 0.52907 0.35255 0.75923 0.0
C235 C 0.51906 0.41881 0.73602 0.0
C236 C 0.4652 0.42377 0.77728 0.0
C237 C 0.41314 0.40568 0.69053 0.0
C238 C 0.41057 0.41273 0.65326 0.0
C239 C 0.43287 0.44451 0.6763 0.0
C240 C 0.42695 0.42937 0.69325 0.0
C241 C 0.42485 0.43629 0.65644 0.0
C242 C 0.40475 0.39746 0.67049 0.0
C243 C 0.40905 0.38924 0.70841 0.0
C244 C 0.3578 0.30451 0.76973 0.0
C245 C 0.3357 0.32321 0.77774 0.0
H246 H 0.40501 0.27283 0.75145 0.0
C247 C 0.46698 0.35602 0.78529 0.0
C248 C 0.52671 0.35358 0.73909 0.0
C249 C 0.56079 0.36258 0.83166 0.0
C250 C 0.57628 0.34903 0.86629 0.0
C251 C 0.55497 0.31998 0.84072 0.0
C252 C 0.5516 0.33861 0.82624 0.0
C253 C 0.56782 0.32511 0.86058 0.0
C254 C 0.57267 0.3678 0.8518 0.0
C255 C 0.56123 0.38176 0.81596 0.0
H256 H 0.44366 0.46272 0.67856 0.0
H257 H 0.43317 0.43613 0.70851 0.0
H258 H 0.42923 0.44856 0.64358 0.0
H259 H 0.39435 0.37912 0.66831 0.0
H260 H 0.54824 0.30148 0.83643 0.0
H261 H 0.54285 0.33425 0.8107 0.0
H262 H 0.57135 0.31048 0.87153 0.0
H263 H 0.58003 0.38626 0.85604 0.0
C264 C 0.88293 0.8638 0.76555 0.0
C265 C 0.88232 0.82223 0.77834 0.0
C266 C 0.90106 0.84456 0.77525 0.0
C267 C 0.84521 0.81937 0.77143 0.0
C268 C 0.84537 0.86102 0.75895 0.0
C269 C 0.82675 0.83874 0.7619 0.0
N270 N 0.90128 0.88547 0.76348 0.0
C271 C 0.88266 0.90533 0.75615 0.0
C272 C 0.82712 0.88098 0.75024 0.0
C273 C 0.84578 0.90323 0.74896 0.0
Gd274 Gd 0.03875 0.88867 0.73095 0.0
Gd275 Gd 0.96218 0.88656 0.77767 0.0
N276 N 0.93714 0.84767 0.78165 0.0
C277 C 0.90137 0.80351 0.7885 0.0
C278 C 0.95538 0.8299 0.7923 0.0
C279 C 0.93798 0.80742 0.79562 0.0
H280 H 0.98328 0.83316 0.79827 0.0
H281 H 0.95266 0.79322 0.80383 0.0
H282 H 0.0051 0.93032 0.6977 0.0
H283 H 0.89523 0.92313 0.75652 0.0
H284 H 0.02275 0.97075 0.68457 0.0
H285 H 0.88791 0.78609 0.79116 0.0
H286 H 0.8303 0.80236 0.77369 0.0
H287 H 0.11277 0.86828 0.75725 0.0
H288 H 0.79822 0.87965 0.74514 0.0
H289 H 0.83139 0.91898 0.74298 0.0
H290 H 0.146 0.98453 0.71228 0.0
H291 H 0.7977 0.8365 0.75735 0.0
H292 H 0.20033 0.92177 0.75379 0.0
H293 H 0.17709 0.88188 0.76611 0.0
N294 N 0.0994 0.90056 0.74094 0.0
C295 C 0.11206 0.92208 0.73334 0.0
C296 C 0.12249 0.88588 0.75216 0.0
C297 C 0.17205 0.91593 0.74997 0.0
C298 C 0.15899 0.89345 0.75703 0.0
C299 C 0.14863 0.93051 0.73787 0.0
H300 H 0.18842 0.96005 0.73375 0.0
N301 N 0.05338 0.92688 0.71677 0.0
C302 C 0.08805 0.93588 0.72129 0.0
C303 C 0.07585 0.97143 0.70051 0.0
C304 C 0.10015 0.95848 0.71337 0.0
C305 C 0.03074 0.93865 0.70307 0.0
C306 C 0.04116 0.96132 0.69513 0.0
O307 O 0.96743 0.85532 0.75495 0.0
O308 O 0.97958 0.87586 0.72527 0.0
O309 O 0.05293 0.88644 0.69847 0.0
O310 O 0.06318 0.85573 0.71837 0.0
O311 O 0.02018 0.87235 0.78471 0.0
O312 O 0.04085 0.85713 0.75339 0.0
O313 O 0.05452 0.90787 0.76086 0.0
O314 O 0.99793 0.9202 0.77472 0.0
O315 O 0.97263 0.88507 0.81076 0.0
O316 O 0.9202 0.89925 0.79926 0.0
O317 O 0.98147 0.90558 0.72593 0.0
O318 O 0.96148 0.92029 0.7574 0.0
C319 C 0.96464 0.85726 0.73484 0.0
C320 C 0.04109 0.85757 0.77372 0.0
C321 C 0.10535 0.86267 0.69037 0.0
C322 C 0.14395 0.86435 0.65925 0.0
C323 C 0.17328 0.85948 0.6928 0.0
C324 C 0.13801 0.85972 0.70225 0.0
C325 C 0.17634 0.862 0.67144 0.0
C326 C 0.10848 0.8646 0.66881 0.0
C327 C 0.06807 0.86514 0.70009 0.0
C328 C 0.13631 0.96717 0.71815 0.0
C329 C 0.16051 0.95319 0.73033 0.0
H330 H 0.08405 0.98888 0.69415 0.0
C331 C 0.03476 0.92144 0.77352 0.0
C332 C 0.96468 0.92215 0.73719 0.0
C333 C 0.9404 0.91328 0.83172 0.0
C334 C 0.93121 0.92355 0.86795 0.0
C335 C 0.9472 0.95499 0.843 0.0
C336 C 0.94706 0.93782 0.82719 0.0
C337 C 0.93946 0.94794 0.86329 0.0
C338 C 0.93213 0.90626 0.85204 0.0
C339 C 0.94047 0.89476 0.81547 0.0
H340 H 0.19834 0.8574 0.70208 0.0
H341 H 0.13639 0.85771 0.71879 0.0
H342 H 0.20394 0.86174 0.66438 0.0
H343 H 0.0834 0.86686 0.65952 0.0
H344 H 0.95288 0.97387 0.83949 0.0
H345 H 0.95237 0.94364 0.81149 0.0
H346 H 0.93886 0.96165 0.87523 0.0
H347 H 0.92627 0.88734 0.85546 0.0
C348 C 0.62937 0.63184 0.26064 0.0
C349 C 0.63919 0.67315 0.27263 0.0
C350 C 0.61582 0.65263 0.27006 0.0
C351 C 0.67621 0.67263 0.26522 0.0
C352 C 0.66684 0.63114 0.25355 0.0
C353 C 0.69003 0.65163 0.25583 0.0
N354 N 0.60715 0.61167 0.26013 0.0
C355 C 0.62157 0.59001 0.25377 0.0
C356 C 0.68061 0.60944 0.24546 0.0
C357 C 0.65795 0.58872 0.24574 0.0
Gd358 Gd 0.4643 0.61954 0.23249 0.0
Gd359 Gd 0.54735 0.6156 0.2753 0.0
N360 N 0.58041 0.65224 0.27787 0.0
C361 C 0.62515 0.69317 0.28338 0.0
C362 C 0.56716 0.6712 0.28923 0.0
C363 C 0.58905 0.69212 0.29184 0.0
H364 H 0.5397 0.6701 0.29629 0.0
H365 H 0.57829 0.70726 0.30061 0.0
H366 H 0.48581 0.5792 0.19539 0.0
H367 H 0.60583 0.57342 0.25559 0.0
H368 H 0.46629 0.53816 0.18459 0.0
H369 H 0.64227 0.70926 0.28567 0.0
H370 H 0.69474 0.6881 0.2673 0.0
H371 H 0.39424 0.64149 0.26078 0.0
H372 H 0.7092 0.60823 0.23978 0.0
H373 H 0.66892 0.57155 0.24044 0.0
H374 H 0.35778 0.52111 0.22618 0.0
H375 H 0.71915 0.651 0.25107 0.0
H376 H 0.31151 0.58546 0.2688 0.0
H377 H 0.33384 0.62723 0.27569 0.0
N378 N 0.40633 0.60771 0.24666 0.0
C379 C 0.3937 0.58514 0.24181 0.0
C380 C 0.38468 0.62317 0.25795 0.0
C381 C 0.33812 0.59149 0.26247 0.0
C382 C 0.35058 0.61515 0.26634 0.0
C383 C 0.35947 0.57625 0.24983 0.0
H384 H 0.32105 0.54558 0.25043 0.0
N385 N 0.44616 0.58122 0.21981 0.0
C386 C 0.41455 0.57135 0.22818 0.0
C387 C 0.42099 0.53597 0.20658 0.0
C388 C 0.40137 0.54832 0.22198 0.0
C389 C 0.46356 0.57009 0.20367 0.0
C390 C 0.45192 0.54707 0.19716 0.0
O391 O 0.54402 0.64768 0.25315 0.0
O392 O 0.5229 0.63098 0.22302 0.0
O393 O 0.43769 0.62257 0.20213 0.0
O394 O 0.44207 0.65418 0.22234 0.0
O395 O 0.49396 0.63443 0.28512 0.0
O396 O 0.47029 0.65078 0.25485 0.0
O397 O 0.45367 0.60352 0.2643 0.0
O398 O 0.50786 0.58358 0.27223 0.0
O399 O 0.54006 0.61801 0.30868 0.0
O400 O 0.58492 0.5966 0.29603 0.0
O401 O 0.5182 0.60063 0.22316 0.0
O402 O 0.54098 0.58378 0.25334 0.0
C403 C 0.54374 0.64689 0.23289 0.0
C404 C 0.4734 0.65045 0.27511 0.0
C405 C 0.41142 0.66066 0.18925 0.0
C406 C 0.38994 0.66798 0.1539 0.0
C407 C 0.3794 0.69813 0.18062 0.0
C408 C 0.39721 0.68336 0.19505 0.0
C409 C 0.37582 0.69057 0.16021 0.0
C410 C 0.40742 0.65291 0.16864 0.0
C411 C 0.43072 0.64548 0.20476 0.0
C412 C 0.36816 0.53886 0.23063 0.0
C413 C 0.34722 0.55282 0.24449 0.0
H414 H 0.41148 0.51837 0.20121 0.0
C415 C 0.47108 0.58476 0.2721 0.0
C416 C 0.53703 0.58373 0.23312 0.0
C417 C 0.598 0.61816 0.32662 0.0
C418 C 0.61641 0.63151 0.3611 0.0
C419 C 0.65605 0.64092 0.33163 0.0
C420 C 0.63126 0.62852 0.31876 0.0
C421 C 0.64865 0.64254 0.35265 0.0
C422 C 0.59092 0.61941 0.34795 0.0
C423 C 0.57087 0.60623 0.31259 0.0
H424 H 0.36837 0.71555 0.18527 0.0
H425 H 0.39974 0.68972 0.21079 0.0
H426 H 0.36168 0.70238 0.14937 0.0
H427 H 0.41871 0.63555 0.16397 0.0
H428 H 0.68139 0.64898 0.32532 0.0
H429 H 0.63843 0.62686 0.30269 0.0
H430 H 0.66884 0.65174 0.36245 0.0
H431 H 0.56579 0.61104 0.35428 0.0
H432 H 0.16025 0.89027 0.36908 0.0
H433 H 0.13782 0.92383 0.34784 0.0
H434 H 0.17927 0.97499 0.3928 0.0
H435 H 0.20161 0.94137 0.41423 0.0
H436 H 0.11107 0.98721 0.3805 0.0
H437 H 0.22539 0.96578 0.34673 0.0
H438 H 0.27111 0.93844 0.33034 0.0
H439 H 0.19051 0.92045 0.28347 0.0
H440 H 0.14409 0.94742 0.29975 0.0
H441 H 0.07935 0.08983 0.31769 0.0
H442 H 0.11011 0.05863 0.33839 0.0
H443 H 0.07792 0.00444 0.29363 0.0
H444 H 0.04905 0.03609 0.27228 0.0
H445 H 0.14451 0.99493 0.3065 0.0
H446 H 0.02864 0.01445 0.3427 0.0
H447 H 0.9837 0.04195 0.35986 0.0
H448 H 0.06936 0.06409 0.40251 0.0
H449 H 0.11471 0.03684 0.38561 0.0
C450 C 0.16493 0.90867 0.37436 0.0
C451 C 0.18291 0.91317 0.39328 0.0
C452 C 0.15212 0.92785 0.36218 0.0
C453 C 0.15737 0.95197 0.36855 0.0
C454 C 0.17498 0.95653 0.38755 0.0
C455 C 0.18764 0.93732 0.3998 0.0
C456 C 0.14362 0.97235 0.3556 0.0
C457 C 0.11882 0.9891 0.36439 0.0
C458 C 0.15321 0.97462 0.33448 0.0
C459 C 0.18114 0.95847 0.32458 0.0
C460 C 0.21731 0.95586 0.33302 0.0
C461 C 0.24337 0.94045 0.32373 0.0
C462 C 0.23369 0.92767 0.30591 0.0
C463 C 0.19795 0.93033 0.29729 0.0
C464 C 0.17177 0.9457 0.30653 0.0
C465 C 0.07909 0.07125 0.31226 0.0
C466 C 0.06167 0.06521 0.29354 0.0
C467 C 0.09639 0.05338 0.32417 0.0
C468 C 0.09542 0.02898 0.31794 0.0
C469 C 0.07887 0.02308 0.29887 0.0
C470 C 0.0624 0.04111 0.28668 0.0
C471 C 0.11142 0.0096 0.3313 0.0
C472 C 0.13676 0.99306 0.3226 0.0
C473 C 0.10243 0.00757 0.35255 0.0
C474 C 0.07508 0.02382 0.36276 0.0
C475 C 0.03786 0.02533 0.35565 0.0
C476 C 0.01235 0.04082 0.36533 0.0
C477 C 0.02374 0.05483 0.38215 0.0
C478 C 0.0606 0.05327 0.38944 0.0
C479 C 0.08617 0.03777 0.37986 0.0
H480 H 0.00396 0.06683 0.38959 0.0
H481 H 0.2539 0.91575 0.29874 0.0
H482 H 0.38074 0.5889 0.90838 0.0
H483 H 0.40457 0.55714 0.88595 0.0
H484 H 0.3046 0.56184 0.84855 0.0
H485 H 0.27912 0.59216 0.87191 0.0
H486 H 0.32224 0.51729 0.85124 0.0
H487 H 0.39257 0.58868 0.83443 0.0
H488 H 0.43226 0.62469 0.84092 0.0
H489 H 0.51983 0.57915 0.86458 0.0
H490 H 0.48046 0.54288 0.85848 0.0
H491 H 0.40679 0.45388 0.76637 0.0
H492 H 0.37976 0.48681 0.78677 0.0
H493 H 0.46248 0.47489 0.83421 0.0
H494 H 0.48914 0.44176 0.81434 0.0
H495 H 0.45225 0.52419 0.82407 0.0
H496 H 0.37814 0.45265 0.84054 0.0
H497 H 0.33763 0.41768 0.83187 0.0
H498 H 0.25561 0.46567 0.80583 0.0
H499 H 0.29601 0.50092 0.81397 0.0
C500 C 0.36337 0.58291 0.89565 0.0
C501 C 0.32799 0.59339 0.89198 0.0
C502 C 0.3774 0.56496 0.88257 0.0
C503 C 0.35689 0.55746 0.86517 0.0
C504 C 0.32121 0.56743 0.86173 0.0
C505 C 0.30685 0.58505 0.87502 0.0
C506 C 0.37262 0.53925 0.85058 0.0
C507 C 0.35047 0.51907 0.84508 0.0
C508 C 0.40959 0.54131 0.84255 0.0
C509 C 0.43342 0.56308 0.84616 0.0
C510 C 0.4202 0.58636 0.84114 0.0
C511 C 0.44265 0.60682 0.84473 0.0
C512 C 0.47851 0.60422 0.8532 0.0
C513 C 0.49203 0.58114 0.85804 0.0
C514 C 0.46967 0.56062 0.8545 0.0
C515 C 0.41917 0.45815 0.78117 0.0
C516 C 0.44987 0.44483 0.78877 0.0
C517 C 0.40373 0.47704 0.79278 0.0
C518 C 0.41896 0.48314 0.81207 0.0
C519 C 0.45028 0.47045 0.81937 0.0
C520 C 0.46542 0.45143 0.80795 0.0
C521 C 0.40198 0.50235 0.825 0.0
C522 C 0.42392 0.52265 0.83017 0.0
C523 C 0.36467 0.5006 0.83241 0.0
C524 C 0.34028 0.47941 0.82768 0.0
C525 C 0.35162 0.45574 0.83281 0.0
C526 C 0.32865 0.43587 0.82802 0.0
C527 C 0.29408 0.43946 0.81831 0.0
C528 C 0.28241 0.46292 0.81335 0.0
C529 C 0.30533 0.48285 0.81804 0.0
H530 H 0.27631 0.42405 0.81464 0.0
H531 H 0.49585 0.62008 0.85597 0.0
H532 H 0.60138 0.60018 0.61827 0.0
H533 H 0.57523 0.56747 0.63977 0.0
H534 H 0.68718 0.54704 0.65811 0.0
H535 H 0.71343 0.58005 0.63692 0.0
H536 H 0.63612 0.50752 0.64356 0.0
H537 H 0.64263 0.57458 0.69156 0.0
H538 H 0.63012 0.61649 0.70278 0.0
H539 H 0.51133 0.60357 0.69784 0.0
H540 H 0.52317 0.56167 0.68629 0.0
H541 H 0.59098 0.42357 0.7218 0.0
H542 H 0.61776 0.45697 0.70189 0.0
H543 H 0.50908 0.49131 0.69966 0.0
H544 H 0.48306 0.45906 0.72135 0.0
H545 H 0.5587 0.52423 0.70554 0.0
H546 H 0.54824 0.45905 0.65753 0.0
H547 H 0.55669 0.41741 0.64458 0.0
H548 H 0.67656 0.42662 0.64668 0.0
H549 H 0.66883 0.46824 0.65991 0.0
C550 C 0.62033 0.58871 0.62693 0.0
C551 C 0.65936 0.59258 0.62603 0.0
C552 C 0.60541 0.57012 0.6392 0.0
C553 C 0.62933 0.55493 0.65049 0.0
C554 C 0.66834 0.55862 0.64947 0.0
C555 C 0.68324 0.57749 0.6375 0.0
C556 C 0.61352 0.53513 0.66333 0.0
C557 C 0.6196 0.51107 0.65729 0.0
C558 C 0.59094 0.53995 0.68076 0.0
C559 C 0.5838 0.56507 0.68785 0.0
C560 C 0.61385 0.58074 0.69269 0.0
C561 C 0.60688 0.60448 0.69914 0.0
C562 C 0.56996 0.61271 0.70097 0.0
C563 C 0.53992 0.59718 0.6964 0.0
C564 C 0.54674 0.57343 0.68991 0.0
C565 C 0.57286 0.43838 0.71732 0.0
C566 C 0.53476 0.43853 0.72304 0.0
C567 C 0.58811 0.45733 0.70564 0.0
C568 C 0.56531 0.47647 0.69882 0.0
C569 C 0.52724 0.47669 0.70458 0.0
C570 C 0.5122 0.45801 0.7167 0.0
C571 C 0.58125 0.49634 0.68588 0.0
C572 C 0.57518 0.5205 0.69185 0.0
C573 C 0.60318 0.49161 0.66809 0.0
C574 C 0.60796 0.4667 0.65988 0.0
C575 C 0.57641 0.45215 0.65534 0.0
C576 C 0.58107 0.42856 0.64794 0.0
C577 C 0.61714 0.41935 0.64486 0.0
C578 C 0.64864 0.43377 0.6491 0.0
C579 C 0.64414 0.45738 0.65652 0.0
H580 H 0.6207 0.40107 0.63915 0.0
H581 H 0.56462 0.63109 0.70597 0.0
H582 H 0.78413 0.91968 0.14588 0.0
H583 H 0.81011 0.95089 0.16843 0.0
H584 H 0.91153 0.95289 0.13194 0.0
H585 H 0.88722 0.92027 0.11048 0.0
H586 H 0.93067 0.95695 0.16916 0.0
H587 H 0.83749 0.9969 0.12824 0.0
H588 H 0.77465 1.0036 0.11332 0.0
H589 H 0.72836 0.01213 0.17401 0.0
H590 H 0.79087 0.00516 0.18931 0.0
H591 H 0.99555 0.07287 0.20382 0.0
H592 H 0.96877 0.04132 0.1815 0.0
H593 H 0.88233 0.02749 0.22673 0.0
H594 H 0.91044 0.05789 0.24924 0.0
H595 H 0.8556 0.03009 0.18532 0.0
H596 H 0.95301 0.99126 0.22519 0.0
H597 H 0.01774 0.98691 0.23817 0.0
H598 H 0.05827 0.9786 0.17623 0.0
H599 H 0.99387 0.98352 0.16283 0.0
C600 C 0.81223 0.92641 0.14282 0.0
C601 C 0.83329 0.9175 0.12611 0.0
C602 C 0.82686 0.94461 0.15558 0.0
C603 C 0.86249 0.95479 0.15164 0.0
C604 C 0.88387 0.94556 0.13527 0.0
C605 C 0.86962 0.92705 0.12279 0.0
C606 C 0.87768 0.97498 0.1645 0.0
C607 C 0.91433 0.97306 0.17241 0.0
C608 C 0.85638 0.99598 0.16907 0.0
C609 C 0.81878 1.00026 0.15992 0.0
C610 C 0.81386 1.00004 0.13841 0.0
C611 C 0.77831 0.00391 0.12988 0.0
C612 C 0.74751 0.00823 0.14271 0.0
C613 C 0.75223 0.00875 0.16409 0.0
C614 C 0.78771 0.00486 0.1727 0.0
C615 C 0.97126 0.06279 0.20906 0.0
C616 C 0.95543 0.06767 0.22843 0.0
C617 C 0.95569 0.04501 0.19624 0.0
C618 C 0.92368 0.03195 0.20254 0.0
C619 C 0.90695 0.03743 0.22153 0.0
C620 C 0.92286 0.05501 0.23439 0.0
C621 C 0.90838 0.01197 0.18972 0.0
C622 C 0.87178 0.01395 0.18192 0.0
C623 C 0.92997 0.99127 0.18491 0.0
C624 C 0.96864 0.988 0.19299 0.0
C625 C 0.97576 0.98873 0.21432 0.0
C626 C 0.01239 0.98615 0.22175 0.0
C627 C 0.04211 0.98253 0.20803 0.0
C628 C 0.03522 0.98141 0.18684 0.0
C629 C 0.99867 0.98414 0.17932 0.0
H630 H 0.07046 0.98055 0.21381 0.0
H631 H 0.72001 0.01122 0.13608 0.0
H632 H 0.85067 0.12102 0.65193 0.0
H633 H 0.87329 0.08851 0.67446 0.0
H634 H 0.84635 0.03569 0.62768 0.0
H635 H 0.82328 0.06811 0.60516 0.0
H636 H 0.82226 0.02145 0.66634 0.0
H637 H 0.93512 0.05194 0.63484 0.0
H638 H 0.98153 0.08311 0.6246 0.0
H639 H 0.00133 0.10034 0.68822 0.0
H640 H 0.95458 0.06949 0.69884 0.0
H641 H 0.93009 0.92106 0.69986 0.0
H642 H 0.90315 0.9552 0.68089 0.0
H643 H 0.93038 1.0031 0.73131 0.0
H644 H 0.95743 0.96881 0.75043 0.0
H645 H 0.95322 0.02091 0.69268 0.0
H646 H 0.84135 0.98981 0.72426 0.0
H647 H 0.79594 0.95802 0.73445 0.0
H648 H 0.77558 0.94129 0.67079 0.0
H649 H 0.82096 0.973 0.6602 0.0
C650 C 0.84944 0.10246 0.64649 0.0
C651 C 0.83525 0.0971 0.62677 0.0
C652 C 0.86256 0.08394 0.65932 0.0
C653 C 0.86168 0.0597 0.6527 0.0
C654 C 0.84729 0.05427 0.63308 0.0
C655 C 0.83442 0.07281 0.62018 0.0
C656 C 0.87574 0.04 0.66624 0.0
C657 C 0.85099 0.02121 0.67193 0.0
C658 C 0.91296 0.04001 0.67395 0.0
C659 C 0.94101 0.05861 0.66762 0.0
C660 C 0.94909 0.06254 0.64664 0.0
C661 C 0.97551 0.08011 0.64077 0.0
C662 C 0.99428 0.09375 0.65575 0.0
C663 C 0.98671 0.08979 0.67664 0.0
C664 C 0.96027 0.07226 0.68259 0.0
C665 C 0.93008 0.93885 0.70694 0.0
C666 C 0.94595 0.94241 0.72653 0.0
C667 C 0.91459 0.9583 0.69614 0.0
C668 C 0.91469 0.98165 0.70472 0.0
C669 C 0.93005 0.9852 0.72444 0.0
C670 C 0.94524 0.96564 0.73537 0.0
C671 C 0.89978 1.00237 0.6927 0.0
C672 C 0.92439 0.02131 0.68724 0.0
C673 C 0.86246 1.0025 0.6852 0.0
C674 C 0.83476 0.98365 0.69144 0.0
C675 C 0.82734 0.97926 0.71243 0.0
C676 C 0.80156 0.96128 0.71828 0.0
C677 C 0.78304 0.94755 0.70328 0.0
C678 C 0.79001 0.95191 0.68239 0.0
C679 C 0.81566 0.96995 0.67645 0.0
H680 H 0.7632 0.93357 0.70785 0.0
H681 H 0.01475 0.10733 0.65117 0.0
H682 H 0.61215 0.40428 0.11285 0.0
H683 H 0.58747 0.43769 0.13363 0.0
H684 H 0.69796 0.45033 0.15892 0.0
H685 H 0.72291 0.41729 0.13794 0.0
H686 H 0.58562 0.44402 0.17548 0.0
H687 H 0.70916 0.51165 0.1654 0.0
H688 H 0.75795 0.52202 0.13975 0.0
H689 H 0.68764 0.49459 0.09121 0.0
H690 H 0.63825 0.48439 0.11652 0.0
H691 H 0.56 0.53934 0.24717 0.0
H692 H 0.58731 0.50638 0.22714 0.0
H693 H 0.5772 0.54942 0.17173 0.0
H694 H 0.55339 0.58319 0.19199 0.0
H695 H 0.63834 0.52729 0.16965 0.0
H696 H 0.51205 0.5005 0.18776 0.0
H697 H 0.46074 0.49029 0.21198 0.0
H698 H 0.53029 0.437 0.24117 0.0
H699 H 0.58211 0.44693 0.21725 0.0
C700 C 0.6312 0.41432 0.12273 0.0
C701 C 0.66947 0.40821 0.12375 0.0
C702 C 0.61702 0.43324 0.1347 0.0
C703 C 0.64093 0.44655 0.14771 0.0
C704 C 0.6791 0.44041 0.14884 0.0
C705 C 0.69325 0.42145 0.13696 0.0
C706 C 0.62603 0.46693 0.16007 0.0
C707 C 0.59703 0.46227 0.1742 0.0
C708 C 0.64083 0.49071 0.15829 0.0
C709 C 0.6702 0.49702 0.1429 0.0
C710 C 0.70408 0.50791 0.14925 0.0
C711 C 0.73184 0.51375 0.13477 0.0
C712 C 0.72595 0.50889 0.11388 0.0
C713 C 0.69223 0.49826 0.10741 0.0
C714 C 0.66437 0.49241 0.12182 0.0
C715 C 0.56406 0.54188 0.23075 0.0
C716 C 0.55404 0.56379 0.22112 0.0
C717 C 0.57921 0.52288 0.21925 0.0
C718 C 0.5834 0.52507 0.19777 0.0
C719 C 0.57405 0.54713 0.18823 0.0
C720 C 0.56 0.56637 0.19981 0.0
C721 C 0.59757 0.50455 0.18512 0.0
C722 C 0.6267 0.50912 0.17097 0.0
C723 C 0.58241 0.48075 0.18666 0.0
C724 C 0.55103 0.4746 0.20082 0.0
C725 C 0.51643 0.48668 0.1994 0.0
C726 C 0.48727 0.48096 0.21307 0.0
C727 C 0.49229 0.46312 0.22813 0.0
C728 C 0.52645 0.45085 0.22951 0.0
C729 C 0.55569 0.45647 0.21588 0.0
H730 H 0.46968 0.45877 0.23871 0.0
H731 H 0.74749 0.51342 0.10269 0.0
H732 H 0.3534 0.39365 0.36709 0.0
H733 H 0.37619 0.42581 0.34415 0.0
H734 H 0.34541 0.47961 0.38921 0.0
H735 H 0.32178 0.44751 0.41208 0.0
H736 H 0.32345 0.49256 0.35038 0.0
H737 H 0.43628 0.46425 0.38287 0.0
H738 H 0.48241 0.43358 0.39381 0.0
H739 H 0.5023 0.41451 0.3306 0.0
H740 H 0.45587 0.44484 0.31929 0.0
H741 H 0.42023 0.59178 0.30278 0.0
H742 H 0.39184 0.5608 0.32499 0.0
H743 H 0.44366 0.50481 0.28825 0.0
H744 H 0.47469 0.53605 0.26732 0.0
H745 H 0.45432 0.49321 0.32414 0.0
H746 H 0.33573 0.51716 0.29164 0.0
H747 H 0.28508 0.54498 0.28092 0.0
H748 H 0.27591 0.57162 0.3428 0.0
H749 H 0.32537 0.54332 0.35408 0.0
C750 C 0.35129 0.41234 0.37208 0.0
C751 C 0.33578 0.41801 0.39143 0.0
C752 C 0.3646 0.43069 0.35902 0.0
C753 C 0.36282 0.45513 0.36503 0.0
C754 C 0.34716 0.46089 0.38427 0.0
C755 C 0.33395 0.44251 0.39739 0.0
C756 C 0.377 0.47466 0.35113 0.0
C757 C 0.35218 0.49287 0.34476 0.0
C758 C 0.41423 0.4748 0.34348 0.0
C759 C 0.44234 0.45667 0.35025 0.0
C760 C 0.45028 0.45339 0.37131 0.0
C761 C 0.47652 0.43609 0.37758 0.0
C762 C 0.49521 0.42207 0.36291 0.0
C763 C 0.48777 0.42537 0.34194 0.0
C764 C 0.46152 0.44262 0.33559 0.0
C765 C 0.42508 0.57281 0.29941 0.0
C766 C 0.44975 0.56616 0.28355 0.0
C767 C 0.40849 0.55501 0.31196 0.0
C768 C 0.41498 0.53018 0.3083 0.0
C769 C 0.43828 0.52371 0.29165 0.0
C770 C 0.45593 0.54152 0.27962 0.0
C771 C 0.40048 0.51104 0.32273 0.0
C772 C 0.42541 0.49291 0.32945 0.0
C773 C 0.36323 0.51085 0.33055 0.0
C774 C 0.33446 0.52836 0.32363 0.0
C775 C 0.32305 0.52907 0.30291 0.0
C776 C 0.29449 0.54483 0.29676 0.0
C777 C 0.27771 0.56027 0.31108 0.0
C778 C 0.28904 0.55974 0.33169 0.0
C779 C 0.31707 0.54369 0.33802 0.0
H780 H 0.25576 0.57254 0.30622 0.0
H781 H 0.51551 0.40868 0.36779 0.0
H782 H 0.22097 0.08767 0.87238 0.0
H783 H 0.19838 0.05525 0.84978 0.0
H784 H 0.09843 0.04769 0.88688 0.0
H785 H 0.11992 0.08068 0.90909 0.0
H786 H 0.13328 1.00287 0.87684 0.0
H787 H 0.09135 0.07648 0.84363 0.0
H788 H 0.10004 0.11718 0.82841 0.0
H789 H 0.17635 0.08802 0.78367 0.0
H790 H 0.16853 0.04718 0.79882 0.0
H791 H 0.01715 0.93184 0.81295 0.0
H792 H 0.04444 0.96294 0.83516 0.0
H793 H 0.12687 0.97927 0.78813 0.0
H794 H 0.09629 0.95017 0.76522 0.0
H795 H 0.10505 0.01915 0.80321 0.0
H796 H 0.14643 0.94538 0.83479 0.0
H797 H 0.1385 0.90432 0.84943 0.0
H798 H 0.0666 0.93265 0.8967 0.0
H799 H 0.07376 0.97385 0.8822 0.0
C800 C 0.19396 0.07935 0.87563 0.0
C801 C 0.17229 0.08691 0.8926 0.0
C802 C 0.18125 0.06069 0.86277 0.0
C803 C 0.14674 0.04911 0.86667 0.0
C804 C 0.12528 0.0563 0.8837 0.0
C805 C 0.13774 0.07512 0.89643 0.0
C806 C 0.13255 0.0298 0.85277 0.0
C807 C 0.12682 0.0064 0.86077 0.0
C808 C 0.12513 0.03432 0.8317 0.0
C809 C 0.12968 0.05883 0.82251 0.0
C810 C 0.11024 0.07879 0.83066 0.0
C811 C 0.11496 0.10187 0.82203 0.0
C812 C 0.13882 0.1052 0.80512 0.0
C813 C 0.15793 0.08542 0.79678 0.0
C814 C 0.15335 0.0623 0.80538 0.0
C815 C 0.04044 0.94253 0.80725 0.0
C816 C 0.05423 0.93877 0.78727 0.0
C817 C 0.05675 0.9599 0.82012 0.0
C818 C 0.08837 0.97325 0.81357 0.0
C819 C 0.10266 0.96917 0.79367 0.0
C820 C 0.08559 0.95219 0.78062 0.0
C821 C 0.10561 0.99197 0.8272 0.0
C822 C 0.11188 0.01537 0.81919 0.0
C823 C 0.11397 0.98733 0.84822 0.0
C824 C 0.11049 0.96269 0.85734 0.0
C825 C 0.12886 0.94284 0.84828 0.0
C826 C 0.1245 0.91954 0.85655 0.0
C827 C 0.10203 0.91588 0.87397 0.0
C828 C 0.08402 0.93552 0.88321 0.0
C829 C 0.08828 0.95886 0.87501 0.0
H830 H 0.09861 0.89781 0.88032 0.0
H831 H 0.14243 0.12308 0.79846 0.0
H832 H 0.15759 0.15889 0.96582 0.0
H833 H 0.14014 0.15398 1.0022 0.0
H834 H 0.18897 0.08246 1.00241 0.0
H835 H 0.20551 0.08712 0.96606 0.0
H836 H 0.12314 0.08031 0.01927 0.0
H837 H 0.23036 0.13318 0.02698 0.0
H838 H 0.2684 0.17005 0.02087 0.0
H839 H 0.1797 0.21407 0.04522 0.0
H840 H 0.14091 0.17747 0.05123 0.0
H841 H 0.13165 0.05513 0.12576 0.0
H842 H 0.14877 0.06541 0.09036 0.0
H843 H 0.08328 0.13082 0.09413 0.0
H844 H 0.06517 0.1204 0.12952 0.0
H845 H 0.15359 0.13815 0.07541 0.0
H846 H 0.04779 0.08447 0.06886 0.0
H847 H 0.01099 0.0472 0.07545 0.0
H848 H 0.09899 0.00425 0.04902 0.0
H849 H 0.13658 0.04126 0.04255 0.0
C850 C 0.165 0.14229 0.97376 0.0
C851 C 0.18271 0.12334 0.9631 0.0
C852 C 0.15507 0.13949 0.99456 0.0
C853 C 0.16333 0.11785 1.00516 0.0
C854 C 0.18202 0.09924 0.9946 0.0
C855 C 0.19151 0.10193 0.97383 0.0
C856 C 0.15108 0.11392 0.0269 0.0
C857 C 0.13028 0.09286 0.03155 0.0
C858 C 0.15927 0.1306 0.04292 0.0
C859 C 0.18258 0.15261 0.03935 0.0
C860 C 0.21885 0.15074 0.03088 0.0
C861 C 0.24057 0.17159 0.02746 0.0
C862 C 0.22644 0.1944 0.0326 0.0
C863 C 0.19059 0.1964 0.04122 0.0
C864 C 0.16874 0.17561 0.04465 0.0
C865 C 0.12044 0.07157 0.11905 0.0
C866 C 0.09666 0.08678 0.13051 0.0
C867 C 0.13049 0.0775 0.09882 0.0
C868 C 0.11704 0.09877 0.08953 0.0
C869 C 0.09402 0.11433 0.10101 0.0
C870 C 0.08378 0.10835 0.12126 0.0
C871 C 0.1265 0.10435 0.0677 0.0
C872 C 0.1465 0.12571 0.06305 0.0
C873 C 0.1178 0.0879 0.05165 0.0
C874 C 0.09514 0.06562 0.05538 0.0
C875 C 0.05942 0.06706 0.06459 0.0
C876 C 0.0384 0.04599 0.06828 0.0
C877 C 0.05268 0.02337 0.0627 0.0
C878 C 0.08798 0.02179 0.05336 0.0
C879 C 0.10914 0.04281 0.04966 0.0
H880 H 0.03636 0.00707 0.06557 0.0
H881 H 0.2433 0.21051 0.02994 0.0
H882 H 0.27048 0.36708 0.47219 0.0
H883 H 0.2859 0.36791 0.50887 0.0
H884 H 0.39692 0.39488 0.49447 0.0
H885 H 0.38247 0.39282 0.45774 0.0
H886 H 0.40159 0.36268 0.52409 0.0
H887 H 0.32398 0.43251 0.51155 0.0
H888 H 0.26735 0.45405 0.49972 0.0
H889 H 0.1997 0.4133 0.5425 0.0
H890 H 0.2559 0.39129 0.5544 0.0
H891 H 0.45272 0.41891 0.61836 0.0
H892 H 0.43552 0.40885 0.58292 0.0
H893 H 0.33097 0.37782 0.60435 0.0
H894 H 0.34779 0.38828 0.63993 0.0
H895 H 0.32028 0.40864 0.57214 0.0
H896 H 0.40044 0.34148 0.58677 0.0
H897 H 0.45809 0.32121 0.5987 0.0
H898 H 0.52221 0.35827 0.55206 0.0
H899 H 0.46502 0.37904 0.54003 0.0
C900 C 0.29839 0.37286 0.47676 0.0
C901 C 0.32511 0.38005 0.4619 0.0
C902 C 0.30703 0.37359 0.49782 0.0
C903 C 0.34239 0.38186 0.50454 0.0
C904 C 0.36937 0.38855 0.48974 0.0
C905 C 0.36088 0.38763 0.46869 0.0
C906 C 0.35125 0.38395 0.52694 0.0
C907 C 0.38397 0.37293 0.53454 0.0
C908 C 0.32784 0.39679 0.54078 0.0
C909 C 0.29406 0.41007 0.5337 0.0
C910 C 0.29698 0.42802 0.51832 0.0
C911 C 0.26497 0.44033 0.51162 0.0
C912 C 0.22993 0.435 0.52031 0.0
C913 C 0.22685 0.41739 0.53576 0.0
C914 C 0.25877 0.405 0.5425 0.0
C915 C 0.42611 0.40986 0.61555 0.0
C916 C 0.40154 0.40449 0.63197 0.0
C917 C 0.41644 0.40393 0.59528 0.0
C918 C 0.38204 0.39242 0.59094 0.0
C919 C 0.3577 0.38664 0.60733 0.0
C920 C 0.36746 0.39247 0.62766 0.0
C921 C 0.37083 0.38764 0.56921 0.0
C922 C 0.33769 0.39819 0.56173 0.0
C923 C 0.394 0.37452 0.55547 0.0
C924 C 0.42845 0.36197 0.56261 0.0
C925 C 0.42687 0.34546 0.57916 0.0
C926 C 0.45947 0.33385 0.58592 0.0
C927 C 0.4938 0.33849 0.57618 0.0
C928 C 0.49559 0.3547 0.55961 0.0
C929 C 0.46309 0.36638 0.5528 0.0
H930 H 0.51901 0.32948 0.58144 0.0
H931 H 0.20518 0.44456 0.51511 0.0
H932 H 0.73447 0.35657 0.04517 0.0
H933 H 0.71618 0.35414 0.00884 0.0
H934 H 0.60134 0.36956 0.02538 0.0
H935 H 0.6192 0.37135 0.06174 0.0
H936 H 0.60466 0.33378 0.99728 0.0
H937 H 0.65767 0.4135 1.0054 0.0
H938 H 0.70616 0.44346 0.01519 0.0
H939 H 0.7833 0.41176 0.97217 0.0
H940 H 0.7354 0.38137 0.96232 0.0
H941 H 0.53483 0.36458 0.89867 0.0
H942 H 0.55551 0.36902 0.93463 0.0
H943 H 0.66789 0.3485 0.91701 0.0
H944 H 0.64708 0.34406 0.88106 0.0
H945 H 0.66665 0.38682 0.94532 0.0
H946 H 0.61292 0.30735 0.937 0.0
H947 H 0.56337 0.27855 0.92637 0.0
H948 H 0.48693 0.31037 0.9697 0.0
H949 H 0.53585 0.33973 0.9803 0.0
C950 C 0.70525 0.35916 0.04109 0.0
C951 C 0.67832 0.36428 0.05633 0.0
C952 C 0.6949 0.35799 0.02031 0.0
C953 C 0.65747 0.36198 0.01437 0.0
C954 C 0.6304 0.36652 0.02959 0.0
C955 C 0.64072 0.36773 0.05035 0.0
C956 C 0.64647 0.36163 0.99228 0.0
C957 C 0.61793 0.34558 0.98598 0.0
C958 C 0.66427 0.3767 0.97744 0.0
C959 C 0.69308 0.395 0.98328 0.0
C960 C 0.68507 0.41279 0.99815 0.0
C961 C 0.71243 0.42987 1.00369 0.0
C962 C 0.74783 0.42947 0.99435 0.0
C963 C 0.75589 0.41203 0.97941 0.0
C964 C 0.72864 0.39488 0.97383 0.0
C965 C 0.56401 0.3614 0.90254 0.0
C966 C 0.58952 0.35406 0.88735 0.0
C967 C 0.57577 0.36384 0.92299 0.0
C968 C 0.61317 0.35889 0.92848 0.0
C969 C 0.63897 0.35243 0.91308 0.0
C970 C 0.62713 0.34985 0.89265 0.0
C971 C 0.62481 0.35909 0.95043 0.0
C972 C 0.65346 0.37503 0.95666 0.0
C973 C 0.6071 0.34396 0.96523 0.0
C974 C 0.57795 0.3259 0.9593 0.0
C975 C 0.58548 0.30832 0.94417 0.0
C976 C 0.55751 0.29189 0.93815 0.0
C977 C 0.52199 0.29267 0.94731 0.0
C978 C 0.51444 0.30982 0.96259 0.0
C979 C 0.54228 0.32636 0.96861 0.0
H980 H 0.50036 0.27995 0.94261 0.0
H981 H 0.76897 0.44272 0.99866 0.0
H982 H 0.88853 0.13152 0.56429 0.0
H983 H 0.90913 0.13441 0.52839 0.0
H984 H 0.79504 0.14785 0.50929 0.0
H985 H 0.7741 0.14471 0.54526 0.0
H986 H 0.83272 0.11447 0.48387 0.0
H987 H 0.85299 0.19408 0.51193 0.0
H988 H 0.8771 0.2237 0.53719 0.0
H989 H 0.99014 0.20112 0.52469 0.0
H990 H 0.96665 0.1711 0.49956 0.0
H991 H 0.87856 0.15762 0.38279 0.0
H992 H 0.85391 0.15166 0.4177 0.0
H993 H 0.96715 0.14815 0.44129 0.0
H994 H 0.99183 0.15451 0.4065 0.0
H995 H 0.92753 0.1768 0.4644 0.0
H996 H 0.90865 0.09702 0.43682 0.0
H997 H 0.88563 0.06649 0.41204 0.0
H998 H 0.77183 0.088 0.42384 0.0
H999 H 0.79422 0.11891 0.44848 0.0
C1000 C 0.86776 0.13488 0.55244 0.0
C1001 C 0.82969 0.13793 0.55762 0.0
C1002 C 0.8796 0.13667 0.53195 0.0
C1003 C 0.85366 0.14152 0.51619 0.0
C1004 C 0.81552 0.14413 0.52122 0.0
C1005 C 0.80366 0.14253 0.54177 0.0
C1006 C 0.86665 0.14436 0.49455 0.0
C1007 C 0.85306 0.1283 0.4795 0.0
C1008 C 0.89381 0.16204 0.489 0.0
C1009 C 0.90803 0.18019 0.50401 0.0
C1010 C 0.88297 0.1953 0.51469 0.0
C1011 C 0.89653 0.21218 0.52896 0.0
C1012 C 0.93512 0.21425 0.53258 0.0
C1013 C 0.96025 0.19948 0.52189 0.0
C1014 C 0.94683 0.18254 0.50761 0.0
C1015 C 0.89816 0.15527 0.3954 0.0
C1016 C 0.93713 0.15661 0.39192 0.0
C1017 C 0.88405 0.15183 0.41536 0.0
C1018 C 0.90864 0.14927 0.43217 0.0
C1019 C 0.94758 0.15018 0.42862 0.0
C1020 C 0.96166 0.15384 0.40873 0.0
C1021 C 0.894 0.14671 0.45359 0.0
C1022 C 0.9072 0.16292 0.46866 0.0
C1023 C 0.86669 0.12904 0.45914 0.0
C1024 C 0.85315 0.11046 0.44434 0.0
C1025 C 0.87874 0.09538 0.434 0.0
C1026 C 0.8658 0.07798 0.42001 0.0
C1027 C 0.8273 0.07535 0.41633 0.0
C1028 C 0.80165 0.09008 0.42668 0.0
C1029 C 0.81445 0.10753 0.44067 0.0
H1030 H 0.81733 0.06186 0.40549 0.0
H1031 H 0.94557 0.22734 0.54363 0.0
H1032 H 0.77228 0.87003 0.04251 0.0
H1033 H 0.7922 0.87376 1.00642 0.0
H1034 H 0.90185 0.89786 0.02616 0.0
H1035 H 0.88295 0.89324 0.06209 0.0
H1036 H 0.86527 0.92896 0.99693 0.0
H1037 H 0.89581 0.84445 1.00756 0.0
H1038 H 0.88161 0.80202 0.01701 0.0
H1039 H 0.79812 0.79833 0.96932 0.0
H1040 H 0.81145 0.84089 0.95978 0.0
H1041 H 0.96647 0.93509 0.90407 0.0
H1042 H 0.94635 0.92493 0.93915 0.0
H1043 H 0.85033 0.88631 0.91481 0.0
H1044 H 0.87107 0.89583 0.87969 0.0
H1045 H 0.87641 0.86223 0.94611 0.0
H1046 H 0.84352 0.94494 0.93478 0.0
H1047 H 0.85347 0.98777 0.92502 0.0
H1048 H 0.93474 0.99582 0.97349 0.0
H1049 H 0.92566 0.95292 0.98336 0.0
C1050 C 0.80085 0.87566 0.0392 0.0
C1051 C 0.82582 0.88164 0.05528 0.0
C1052 C 0.81212 0.87789 0.01856 0.0
C1053 C 0.84841 0.88623 0.01367 0.0
C1054 C 0.87361 0.89161 0.02963 0.0
C1055 C 0.8626 0.8891 0.05017 0.0
C1056 C 0.85989 0.89051 0.99198 0.0
C1057 C 0.86813 0.91436 0.98585 0.0
C1058 C 0.8623 0.87153 0.97742 0.0
C1059 C 0.85433 0.84594 0.98312 0.0
C1060 C 0.87416 0.83467 0.99923 0.0
C1061 C 0.86633 0.81058 1.00457 0.0
C1062 C 0.8389 0.79751 0.99382 0.0
C1063 C 0.81931 0.80849 0.97766 0.0
C1064 C 0.82701 0.83259 0.97227 0.0
C1065 C 0.94114 0.92438 0.90624 0.0
C1066 C 0.9202 0.91638 0.88919 0.0
C1067 C 0.92957 0.91863 0.92628 0.0
C1068 C 0.89634 0.90526 0.92969 0.0
C1069 C 0.87599 0.89668 0.91262 0.0
C1070 C 0.88786 0.90212 0.89256 0.0
C1071 C 0.88241 0.90075 0.95102 0.0
C1072 C 0.87352 0.87689 0.95711 0.0
C1073 C 0.87872 0.91981 0.96551 0.0
C1074 C 0.88416 0.94565 0.95968 0.0
C1075 C 0.86371 0.9558 0.94327 0.0
C1076 C 0.86917 0.98009 0.93772 0.0
C1077 C 0.89479 0.99449 0.94859 0.0
C1078 C 0.91494 0.98463 0.96506 0.0
C1079 C 0.90963 0.96034 0.97065 0.0
H1080 H 0.89897 0.0133 0.94428 0.0
H1081 H 0.83288 0.77885 0.99798 0.0
H1082 H 0.67221 0.59214 0.55323 0.0
H1083 H 0.65478 0.59215 0.51695 0.0
H1084 H 0.65319 0.67043 0.51694 0.0
H1085 H 0.66844 0.67055 0.55373 0.0
H1086 H 0.59548 0.65389 0.49582 0.0
H1087 H 0.72738 0.63768 0.49603 0.0
H1088 H 0.78572 0.61675 0.50597 0.0
H1089 H 0.74256 0.54995 0.48127 0.0
H1090 H 0.68371 0.57042 0.47143 0.0
H1091 H 0.6192 0.67044 0.3869 0.0
H1092 H 0.6227 0.66975 0.4246 0.0
H1093 H 0.60759 0.59203 0.42417 0.0
H1094 H 0.60396 0.59268 0.38637 0.0
H1095 H 0.67145 0.6075 0.44547 0.0
H1096 H 0.54003 0.62607 0.44341 0.0
H1097 H 0.48397 0.64887 0.43257 0.0
H1098 H 0.52933 0.71369 0.45974 0.0
H1099 H 0.58596 0.69136 0.47049 0.0
C1100 C 0.66769 0.60941 0.54565 0.0
C1101 C 0.67168 0.63136 0.55651 0.0
C1102 C 0.65816 0.60937 0.52478 0.0
C1103 C 0.65318 0.63129 0.51408 0.0
C1104 C 0.657 0.65327 0.52484 0.0
C1105 C 0.66616 0.65332 0.54583 0.0
C1106 C 0.64404 0.6312 0.4917 0.0
C1107 C 0.61237 0.64399 0.48479 0.0
C1108 C 0.66561 0.6179 0.47729 0.0
C1109 C 0.70098 0.60553 0.48318 0.0
C1110 C 0.73021 0.61848 0.49286 0.0
C1111 C 0.76339 0.60671 0.49845 0.0
C1112 C 0.7678 0.58202 0.4943 0.0
C1113 C 0.73907 0.56907 0.4845 0.0
C1114 C 0.70581 0.58075 0.4789 0.0
C1115 C 0.6158 0.65329 0.39491 0.0
C1116 C 0.61135 0.63161 0.38378 0.0
C1117 C 0.61771 0.65292 0.41642 0.0
C1118 C 0.61542 0.63084 0.42717 0.0
C1119 C 0.60936 0.60926 0.41614 0.0
C1120 C 0.60701 0.60966 0.3946 0.0
C1121 C 0.62292 0.63011 0.44966 0.0
C1122 C 0.65442 0.61725 0.45656 0.0
C1123 C 0.60152 0.64362 0.46395 0.0
C1124 C 0.56741 0.65707 0.45759 0.0
C1125 C 0.53821 0.64523 0.44692 0.0
C1126 C 0.5063 0.65806 0.44083 0.0
C1127 C 0.50313 0.68273 0.44542 0.0
C1128 C 0.53184 0.69459 0.45617 0.0
C1129 C 0.56384 0.68185 0.46229 0.0
H1130 H 0.4784 0.69263 0.44068 0.0
H1131 H 0.79352 0.57294 0.49864 0.0
H1132 H 0.30508 0.59674 0.96762 0.0
H1133 H 0.32182 0.59849 1.00427 0.0
H1134 H 0.35313 0.67379 0.99736 0.0
H1135 H 0.33678 0.6721 0.96073 0.0
H1136 H 0.40555 0.64754 0.01964 0.0
H1137 H 0.27095 0.65912 0.01886 0.0
H1138 H 0.20548 0.64802 0.01048 0.0
H1139 H 0.2165 0.58184 0.04497 0.0
H1140 H 0.28226 0.59241 0.05332 0.0
H1141 H 0.40348 0.69573 0.1198 0.0
H1142 H 0.39317 0.68517 0.08376 0.0
H1143 H 0.35886 0.61299 0.10182 0.0
H1144 H 0.36839 0.62371 0.13821 0.0
H1145 H 0.31047 0.63212 0.07419 0.0
H1146 H 0.44258 0.62184 0.07798 0.0
H1147 H 0.50816 0.63234 0.08658 0.0
H1148 H 0.50295 0.69447 0.04664 0.0
H1149 H 0.43713 0.68455 0.03802 0.0
C1150 C 0.31572 0.61362 0.97391 0.0
C1151 C 0.31949 0.63431 0.9613 0.0
C1152 C 0.32508 0.61463 0.99486 0.0
C1153 C 0.33855 0.63631 1.00359 0.0
C1154 C 0.34278 0.65688 0.99097 0.0
C1155 C 0.33314 0.65594 0.97008 0.0
C1156 C 0.348 0.63775 0.02589 0.0
C1157 C 0.38471 0.64436 0.03158 0.0
C1158 C 0.32116 0.63276 0.04148 0.0
C1159 C 0.28164 0.62642 0.0365 0.0
C1160 C 0.25952 0.6421 0.0245 0.0
C1161 C 0.22234 0.63593 0.01979 0.0
C1162 C 0.20688 0.6142 0.02713 0.0
C1163 C 0.22854 0.59864 0.03925 0.0
C1164 C 0.26575 0.60471 0.04399 0.0
C1165 C 0.39377 0.67758 0.11614 0.0
C1166 C 0.38655 0.6606 0.1319 0.0
C1167 C 0.38821 0.67149 0.09548 0.0
C1168 C 0.37553 0.64821 0.09001 0.0
C1169 C 0.36876 0.63104 0.10566 0.0
C1170 C 0.37447 0.63713 0.12643 0.0
C1171 C 0.36789 0.64242 0.06798 0.0
C1172 C 0.33152 0.63499 0.06231 0.0
C1173 C 0.39513 0.6465 0.0524 0.0
C1174 C 0.43479 0.65254 0.05747 0.0
C1175 C 0.45531 0.63785 0.07115 0.0
C1176 C 0.49255 0.64368 0.076 0.0
C1177 C 0.50969 0.66409 0.06719 0.0
C1178 C 0.48963 0.67868 0.05346 0.0
C1179 C 0.45236 0.67294 0.04856 0.0
H1180 H 0.53852 0.66857 0.07098 0.0
H1181 H 0.17809 0.60946 0.02348 0.0
H1182 H 0.17166 0.83598 0.46271 0.0
H1183 H 0.15987 0.83576 0.49999 0.0
H1184 H 0.20593 0.9081 0.50457 0.0
H1185 H 0.21749 0.9085 0.46727 0.0
H1186 H 0.2339 0.8741 0.53444 0.0
H1187 H 0.11626 0.90285 0.50697 0.0
H1188 H 0.06046 0.90078 0.4845 0.0
H1189 H 0.02798 0.83307 0.51234 0.0
H1190 H 0.08393 0.83456 0.53478 0.0
H1191 H 0.18421 0.89792 0.63757 0.0
H1192 H 0.19184 0.90074 0.60013 0.0
H1193 H 0.12052 0.83771 0.59256 0.0
H1194 H 0.11128 0.83579 0.63 0.0
H1195 H 0.1053 0.86729 0.56361 0.0
H1196 H 0.22119 0.83626 0.58997 0.0
H1197 H 0.2777 0.83552 0.61197 0.0
H1198 H 0.31482 0.9032 0.58585 0.0
H1199 H 0.25826 0.90451 0.56389 0.0
C1200 C 0.17936 0.85179 0.4717 0.0
C1201 C 0.19547 0.87227 0.46213 0.0
C1202 C 0.17244 0.85169 0.49294 0.0
C1203 C 0.18187 0.87196 0.50498 0.0
C1204 C 0.19839 0.89231 0.49551 0.0
C1205 C 0.20481 0.89255 0.47424 0.0
C1206 C 0.17488 0.87183 0.52752 0.0
C1207 C 0.20578 0.87294 0.54088 0.0
C1208 C 0.13826 0.86954 0.53581 0.0
C1209 C 0.10449 0.8687 0.52241 0.0
C1210 C 0.0974 0.88741 0.50818 0.0
C1211 C 0.06571 0.88636 0.49547 0.0
C1212 C 0.04074 0.86677 0.49695 0.0
C1213 C 0.04737 0.84822 0.51119 0.0
C1214 C 0.07905 0.84917 0.52392 0.0
C1215 C 0.17007 0.88478 0.62784 0.0
C1216 C 0.14738 0.86655 0.63657 0.0
C1217 C 0.17461 0.88627 0.60646 0.0
C1218 C 0.15754 0.86906 0.59344 0.0
C1219 C 0.13412 0.85116 0.60221 0.0
C1220 C 0.12888 0.85002 0.62357 0.0
C1221 C 0.16442 0.86954 0.57076 0.0
C1222 C 0.1335 0.86846 0.5573 0.0
C1223 C 0.20115 0.8714 0.56235 0.0
C1224 C 0.23531 0.87059 0.57544 0.0
C1225 C 0.24129 0.85106 0.58902 0.0
C1226 C 0.27334 0.85053 0.60147 0.0
C1227 C 0.29979 0.86933 0.60035 0.0
C1228 C 0.29429 0.88867 0.58672 0.0
C1229 C 0.26226 0.8893 0.57426 0.0
H1230 H 0.32458 0.86889 0.61 0.0
H1231 H 0.01622 0.86599 0.4871 0.0
H1232 H 0.21091 0.33748 0.34512 0.0
H1233 H 0.17516 0.30315 0.33149 0.0
H1234 H 0.18895 0.26503 0.38916 0.0
H1235 H 0.22588 0.29923 0.40268 0.0
H1236 H 0.19859 0.23474 0.35855 0.0
H1237 H 0.10396 0.29154 0.37562 0.0
H1238 H 0.0719 0.33106 0.37671 0.0
H1239 H 0.06045 0.33028 0.31081 0.0
H1240 H 0.09293 0.2909 0.30929 0.0
H1241 H 0.06704 0.14458 0.32338 0.0
H1242 H 0.09872 0.17609 0.34357 0.0
H1243 H 0.09401 0.22459 0.29129 0.0
H1244 H 0.05988 0.19386 0.27174 0.0
H1245 H 0.07605 0.24809 0.32405 0.0
H1246 H 0.1783 0.19142 0.30844 0.0
H1247 H 0.20922 0.15139 0.30967 0.0
H1248 H 0.20224 0.15116 0.37568 0.0
H1249 H 0.17142 0.19115 0.37492 0.0
C1250 C 0.20629 0.32178 0.3549 0.0
C1251 C 0.22102 0.32108 0.37496 0.0
C1252 C 0.18564 0.30221 0.34715 0.0
C1253 C 0.17864 0.28163 0.35941 0.0
C1254 C 0.19378 0.28074 0.37943 0.0
C1255 C 0.21481 0.30031 0.38715 0.0
C1256 C 0.1561 0.26101 0.35104 0.0
C1257 C 0.17152 0.23762 0.35127 0.0
C1258 C 0.12075 0.26464 0.34152 0.0
C1259 C 0.10116 0.28834 0.34234 0.0
C1260 C 0.09486 0.29988 0.36135 0.0
C1261 C 0.07657 0.32224 0.36204 0.0
C1262 C 0.06422 0.3332 0.34383 0.0
C1263 C 0.07006 0.32178 0.3249 0.0
C1264 C 0.08837 0.29942 0.32411 0.0
C1265 C 0.07281 0.16198 0.31622 0.0
C1266 C 0.06167 0.16658 0.29578 0.0
C1267 C 0.09127 0.17992 0.32772 0.0
C1268 C 0.09961 0.20264 0.31887 0.0
C1269 C 0.0882 0.20721 0.29849 0.0
C1270 C 0.06913 0.18949 0.28718 0.0
C1271 C 0.11926 0.22203 0.33076 0.0
C1272 C 0.10309 0.24521 0.33136 0.0
C1273 C 0.15363 0.2181 0.34127 0.0
C1274 C 0.17228 0.19414 0.34161 0.0
C1275 C 0.1832 0.18275 0.32319 0.0
C1276 C 0.2007 0.1601 0.3238 0.0
C1277 C 0.20744 0.1487 0.34269 0.0
C1278 C 0.19693 0.15998 0.36105 0.0
C1279 C 0.17955 0.18266 0.36055 0.0
H1280 H 0.22095 0.13115 0.34309 0.0
H1281 H 0.05005 0.35051 0.34441 0.0
H1282 H 0.247 0.2129 0.89075 0.0
H1283 H 0.28121 0.24739 0.87538 0.0
H1284 H 0.35678 0.19779 0.84535 0.0
H1285 H 0.32237 0.16339 0.86028 0.0
H1286 H 0.39247 0.23658 0.86753 0.0
H1287 H 0.29412 0.22293 0.81747 0.0
H1288 H 0.22848 0.21908 0.8057 0.0
H1289 H 0.2062 0.29182 0.82568 0.0
H1290 H 0.27159 0.29598 0.83788 0.0
H1291 H 0.48809 0.30926 0.79313 0.0
H1292 H 0.45411 0.27882 0.81351 0.0
H1293 H 0.37069 0.33219 0.82934 0.0
H1294 H 0.40459 0.36262 0.80895 0.0
H1295 H 0.33706 0.29327 0.81667 0.0
H1296 H 0.43165 0.30854 0.86675 0.0
H1297 H 0.49283 0.31247 0.88436 0.0
H1298 H 0.52011 0.23923 0.86791 0.0
H1299 H 0.45917 0.23487 0.85016 0.0
C1300 C 0.2709 0.20941 0.88086 0.0
C1301 C 0.28222 0.1855 0.87675 0.0
C1302 C 0.29029 0.22909 0.87204 0.0
C1303 C 0.32148 0.22511 0.8592 0.0
C1304 C 0.33282 0.20124 0.85522 0.0
C1305 C 0.31314 0.18164 0.86373 0.0
C1306 C 0.34305 0.2457 0.85022 0.0
C1307 C 0.38061 0.24885 0.85619 0.0
C1308 C 0.32697 0.26219 0.83607 0.0
C1309 C 0.2876 0.25963 0.82887 0.0
C1310 C 0.27511 0.238 0.81959 0.0
C1311 C 0.23797 0.23579 0.81278 0.0
C1312 C 0.21314 0.25516 0.81502 0.0
C1313 C 0.22543 0.27681 0.82401 0.0
C1314 C 0.26252 0.2791 0.83087 0.0
C1315 C 0.46292 0.31461 0.80131 0.0
C1316 C 0.44885 0.33827 0.79935 0.0
C1317 C 0.44352 0.2972 0.813 0.0
C1318 C 0.40985 0.30318 0.82311 0.0
C1319 C 0.39653 0.32707 0.8217 0.0
C1320 C 0.4159 0.34445 0.81002 0.0
C1321 C 0.38705 0.28412 0.83371 0.0
C1322 C 0.34916 0.28116 0.82803 0.0
C1323 C 0.40269 0.268 0.84838 0.0
C1324 C 0.44094 0.27144 0.857 0.0
C1325 C 0.45097 0.29342 0.86657 0.0
C1326 C 0.48547 0.29565 0.87673 0.0
C1327 C 0.5102 0.27604 0.87735 0.0
C1328 C 0.50084 0.25435 0.86748 0.0
C1329 C 0.46633 0.25198 0.8574 0.0
H1330 H 0.53655 0.27759 0.88557 0.0
H1331 H 0.18441 0.25342 0.80972 0.0
H1332 H 0.72399 0.21398 0.61784 0.0
H1333 H 0.68755 0.24723 0.63283 0.0
H1334 H 0.66542 0.2034 0.68677 0.0
H1335 H 0.70081 0.17004 0.67161 0.0
H1336 H 0.60362 0.22454 0.67502 0.0
H1337 H 0.73197 0.25093 0.68573 0.0
H1338 H 0.79632 0.26208 0.67499 0.0
H1339 H 0.75263 0.31872 0.63643 0.0
H1340 H 0.68796 0.3077 0.64675 0.0
H1341 H 0.55029 0.30866 0.75055 0.0
H1342 H 0.58526 0.2794 0.72994 0.0
H1343 H 0.58567 0.32919 0.67853 0.0
H1344 H 0.55085 0.35883 0.6993 0.0
H1345 H 0.65562 0.30738 0.68519 0.0
H1346 H 0.52763 0.28255 0.67636 0.0
H1347 H 0.4634 0.27142 0.68728 0.0
H1348 H 0.50689 0.21201 0.72277 0.0
H1349 H 0.57144 0.22289 0.71216 0.0
C1350 C 0.71136 0.21149 0.63289 0.0
C1351 C 0.71519 0.18944 0.64361 0.0
C1352 C 0.69069 0.23054 0.64149 0.0
C1353 C 0.67398 0.22794 0.66104 0.0
C1354 C 0.67792 0.20587 0.67167 0.0
C1355 C 0.69823 0.18684 0.66303 0.0
C1356 C 0.65177 0.24785 0.67048 0.0
C1357 C 0.61521 0.24257 0.67739 0.0
C1358 C 0.66628 0.27167 0.67301 0.0
C1359 C 0.70513 0.2783 0.66682 0.0
C1360 C 0.73608 0.26563 0.67483 0.0
C1361 C 0.7726 0.27195 0.66884 0.0
C1362 C 0.77855 0.29104 0.65499 0.0
C1363 C 0.74798 0.3039 0.64713 0.0
C1364 C 0.71139 0.29764 0.65305 0.0
C1365 C 0.55817 0.3135 0.73493 0.0
C1366 C 0.54819 0.33609 0.72656 0.0
C1367 C 0.57787 0.29668 0.72312 0.0
C1368 C 0.58782 0.30205 0.70265 0.0
C1369 C 0.57822 0.3247 0.69429 0.0
C1370 C 0.55824 0.34153 0.7061 0.0
C1371 C 0.60804 0.28377 0.69014 0.0
C1372 C 0.64405 0.28938 0.68262 0.0
C1373 C 0.59313 0.2602 0.68708 0.0
C1374 C 0.55438 0.25363 0.69356 0.0
C1375 C 0.52352 0.2672 0.68658 0.0
C1376 C 0.48705 0.26088 0.69266 0.0
C1377 C 0.48107 0.24101 0.7057 0.0
C1378 C 0.51156 0.22738 0.71265 0.0
C1379 C 0.54808 0.23358 0.70657 0.0
H1380 H 0.45282 0.23621 0.71045 0.0
H1381 H 0.80685 0.29591 0.65037 0.0
H1382 H 0.79402 0.29571 0.11817 0.0
H1383 H 0.82924 0.26299 0.13481 0.0
H1384 H 0.82164 0.30047 0.19307 0.0
H1385 H 0.78823 0.33364 0.17624 0.0
H1386 H 0.88785 0.28458 0.18957 0.0
H1387 H 0.76616 0.24832 0.17952 0.0
H1388 H 0.71048 0.23503 0.15983 0.0
H1389 H 0.77972 0.1889 0.12264 0.0
H1390 H 0.83591 0.20216 0.14196 0.0
H1391 H 0.93152 0.18811 0.25746 0.0
H1392 H 0.89771 0.21907 0.23806 0.0
H1393 H 0.92799 0.18413 0.18104 0.0
H1394 H 0.96174 0.15287 0.20031 0.0
H1395 H 0.85266 0.19777 0.18248 0.0
H1396 H 0.97436 0.23447 0.19488 0.0
H1397 H 0.02767 0.24771 0.21649 0.0
H1398 H 0.95397 0.29262 0.25209 0.0
H1399 H 0.90018 0.27966 0.23069 0.0
C1400 C 0.79986 0.29687 0.13452 0.0
C1401 C 0.7884 0.31713 0.14598 0.0
C1402 C 0.8198 0.27811 0.14406 0.0
C1403 C 0.82772 0.27902 0.16531 0.0
C1404 C 0.81603 0.29929 0.17668 0.0
C1405 C 0.79683 0.3182 0.16708 0.0
C1406 C 0.84888 0.25928 0.17575 0.0
C1407 C 0.87975 0.26565 0.18816 0.0
C1408 C 0.83902 0.23444 0.17366 0.0
C1409 C 0.80529 0.22644 0.16203 0.0
C1410 C 0.76955 0.23549 0.16704 0.0
C1411 C 0.73789 0.22793 0.15596 0.0
C1412 C 0.74157 0.21118 0.13995 0.0
C1413 C 0.77692 0.2019 0.13502 0.0
C1414 C 0.80867 0.20942 0.14604 0.0
C1415 C 0.93099 0.18692 0.2408 0.0
C1416 C 0.94947 0.16802 0.23045 0.0
C1417 C 0.91174 0.20471 0.22973 0.0
C1418 C 0.91067 0.20402 0.20811 0.0
C1419 C 0.92856 0.185 0.19773 0.0
C1420 C 0.94796 0.16722 0.20878 0.0
C1421 C 0.891 0.22325 0.1964 0.0
C1422 C 0.86061 0.21675 0.18375 0.0
C1423 C 0.90083 0.24801 0.19853 0.0
C1424 C 0.93322 0.25596 0.21128 0.0
C1425 C 0.96949 0.24706 0.20739 0.0
C1426 C 0.99979 0.25452 0.21959 0.0
C1427 C 0.99419 0.27087 0.23572 0.0
C1428 C 0.95828 0.27992 0.23961 0.0
C1429 C 0.92789 0.27259 0.22741 0.0
H1430 H 0.01769 0.27658 0.24516 0.0
H1431 H 0.71703 0.20535 0.1314 0.0
H1432 H 0.79379 0.6993 0.61685 0.0
H1433 H 0.83412 0.73171 0.63068 0.0
H1434 H 0.78251 0.72273 0.69044 0.0
H1435 H 0.74213 0.6906 0.6767 0.0
H1436 H 0.78619 0.76972 0.67953 0.0
H1437 H 0.87028 0.70113 0.68039 0.0
H1438 H 0.90525 0.66719 0.66497 0.0
H1439 H 0.96208 0.71676 0.6242 0.0
H1440 H 0.92705 0.75098 0.63922 0.0
H1441 H 0.93815 0.81292 0.74772 0.0
H1442 H 0.8987 0.78438 0.72848 0.0
H1443 H 0.90763 0.82982 0.67455 0.0
H1444 H 0.94415 0.85959 0.69422 0.0
H1445 H 0.92553 0.76757 0.67917 0.0
H1446 H 0.84011 0.83648 0.67863 0.0
H1447 H 0.8018 0.86942 0.69306 0.0
H1448 H 0.74417 0.81829 0.73202 0.0
H1449 H 0.78371 0.78524 0.71868 0.0
C1450 C 0.79116 0.70423 0.63293 0.0
C1451 C 0.76477 0.6925 0.64573 0.0
C1452 C 0.81431 0.72267 0.64083 0.0
C1453 C 0.81143 0.72959 0.66162 0.0
C1454 C 0.78517 0.71776 0.67435 0.0
C1455 C 0.76218 0.69938 0.6665 0.0
C1456 C 0.83492 0.74951 0.67024 0.0
C1457 C 0.81668 0.76918 0.67952 0.0
C1458 C 0.8747 0.74912 0.66977 0.0
C1459 C 0.89573 0.72856 0.66076 0.0
C1460 C 0.88999 0.70476 0.66801 0.0
C1461 C 0.90987 0.68548 0.65937 0.0
C1462 C 0.93578 0.6898 0.64357 0.0
C1463 C 0.94194 0.71343 0.63641 0.0
C1464 C 0.9221 0.73277 0.64499 0.0
C1465 C 0.93059 0.81731 0.73203 0.0
C1466 C 0.94303 0.83903 0.72284 0.0
C1467 C 0.90848 0.80082 0.72096 0.0
C1468 C 0.89947 0.80536 0.70027 0.0
C1469 C 0.91346 0.82635 0.69067 0.0
C1470 C 0.93457 0.84323 0.70193 0.0
C1471 C 0.87667 0.78754 0.68862 0.0
C1472 C 0.89506 0.76821 0.67892 0.0
C1473 C 0.83697 0.78825 0.68863 0.0
C1474 C 0.81565 0.80846 0.69802 0.0
C1475 C 0.82027 0.83237 0.6908 0.0
C1476 C 0.79811 0.85105 0.69868 0.0
C1477 C 0.7706 0.84595 0.71346 0.0
C1478 C 0.76552 0.82222 0.72058 0.0
C1479 C 0.78807 0.80356 0.71302 0.0
H1480 H 0.75312 0.86038 0.71935 0.0
H1481 H 0.95115 0.67485 0.6369 0.0
H1482 H 0.71513 0.80195 0.11137 0.0
H1483 H 0.68172 0.76662 0.12589 0.0
H1484 H 0.67109 0.80383 0.18399 0.0
H1485 H 0.70363 0.83923 0.16951 0.0
H1486 H 0.7042 0.75557 0.18516 0.0
H1487 H 0.59705 0.79874 0.1575 0.0
H1488 H 0.56031 0.81788 0.12972 0.0
H1489 H 0.55649 0.75026 0.097 0.0
H1490 H 0.59376 0.7308 0.12445 0.0
H1491 H 0.57529 0.68934 0.24661 0.0
H1492 H 0.61132 0.71923 0.22698 0.0
H1493 H 0.59471 0.67726 0.17167 0.0
H1494 H 0.56012 0.64652 0.19155 0.0
H1495 H 0.57797 0.72482 0.16553 0.0
H1496 H 0.68281 0.68104 0.18916 0.0
H1497 H 0.7314 0.66098 0.21011 0.0
H1498 H 0.74648 0.72604 0.24554 0.0
H1499 H 0.69797 0.74651 0.22477 0.0
C1500 C 0.70543 0.80261 0.12719 0.0
C1501 C 0.71209 0.82327 0.1394 0.0
C1502 C 0.68621 0.7825 0.13541 0.0
C1503 C 0.67385 0.78269 0.15598 0.0
C1504 C 0.6803 0.80337 0.16807 0.0
C1505 C 0.69889 0.82354 0.15979 0.0
C1506 C 0.65638 0.76089 0.16552 0.0
C1507 C 0.67634 0.74902 0.18112 0.0
C1508 C 0.62094 0.75168 0.15941 0.0
C1509 C 0.59862 0.7634 0.1429 0.0
C1510 C 0.58876 0.78802 0.14427 0.0
C1511 C 0.56774 0.79891 0.12861 0.0
C1512 C 0.55619 0.78532 0.11157 0.0
C1513 C 0.56554 0.76078 0.11018 0.0
C1514 C 0.58659 0.74981 0.12579 0.0
C1515 C 0.58026 0.68601 0.23044 0.0
C1516 C 0.56549 0.66519 0.22083 0.0
C1517 C 0.6007 0.70325 0.21915 0.0
C1518 C 0.60617 0.70039 0.19786 0.0
C1519 C 0.59108 0.6798 0.18811 0.0
C1520 C 0.57118 0.66228 0.1995 0.0
C1521 C 0.62542 0.7198 0.18575 0.0
C1522 C 0.60584 0.73127 0.16964 0.0
C1523 C 0.66168 0.7284 0.19106 0.0
C1524 C 0.68654 0.71523 0.20552 0.0
C1525 C 0.69594 0.69092 0.20168 0.0
C1526 C 0.72383 0.67958 0.21334 0.0
C1527 C 0.74231 0.69233 0.22898 0.0
C1528 C 0.73237 0.71626 0.2333 0.0
C1529 C 0.70467 0.72773 0.2216 0.0
H1530 H 0.76411 0.68359 0.23789 0.0
H1531 H 0.53989 0.79378 0.09946 0.0
H1532 H 0.25378 0.81614 0.33803 0.0
H1533 H 0.29356 0.785 0.32273 0.0
H1534 H 0.33302 0.76474 0.38324 0.0
H1535 H 0.29377 0.79639 0.39861 0.0
H1536 H 0.3901 0.76577 0.3564 0.0
H1537 H 0.26809 0.72972 0.35794 0.0
H1538 H 0.19968 0.72699 0.35226 0.0
H1539 H 0.21657 0.73343 0.28691 0.0
H1540 H 0.28508 0.73655 0.29221 0.0
H1541 H 0.46987 0.65552 0.31716 0.0
H1542 H 0.43225 0.68448 0.33676 0.0
H1543 H 0.39053 0.71508 0.28001 0.0
H1544 H 0.4278 0.68628 0.2603 0.0
H1545 H 0.33429 0.7061 0.3079 0.0
H1546 H 0.45723 0.74395 0.3074 0.0
H1547 H 0.52556 0.74464 0.31374 0.0
H1548 H 0.50639 0.73272 0.37836 0.0
H1549 H 0.43792 0.73154 0.37234 0.0
C1550 C 0.27094 0.80502 0.34806 0.0
C1551 C 0.27052 0.80857 0.36948 0.0
C1552 C 0.29354 0.78717 0.33933 0.0
C1553 C 0.31583 0.77222 0.35186 0.0
C1554 C 0.31594 0.77598 0.37328 0.0
C1555 C 0.29343 0.79402 0.38204 0.0
C1556 C 0.33887 0.75275 0.34242 0.0
C1557 C 0.37779 0.75247 0.34606 0.0
C1558 C 0.32293 0.73551 0.32877 0.0
C1559 C 0.28172 0.73357 0.3255 0.0
C1560 C 0.25721 0.73074 0.34236 0.0
C1561 C 0.21841 0.72909 0.33921 0.0
C1562 C 0.20378 0.73009 0.31924 0.0
C1563 C 0.22794 0.73268 0.30237 0.0
C1564 C 0.26676 0.73436 0.30544 0.0
C1565 C 0.45283 0.66847 0.30883 0.0
C1566 C 0.45187 0.66852 0.28713 0.0
C1567 C 0.43139 0.68504 0.32007 0.0
C1568 C 0.4087 0.70198 0.30983 0.0
C1569 C 0.40778 0.70211 0.28821 0.0
C1570 C 0.42926 0.68566 0.27697 0.0
C1571 C 0.38548 0.71949 0.32152 0.0
C1572 C 0.3465 0.71932 0.31835 0.0
C1573 C 0.40135 0.73613 0.3357 0.0
C1574 C 0.44246 0.73742 0.33939 0.0
C1575 C 0.46759 0.74132 0.32295 0.0
C1576 C 0.50635 0.74181 0.32648 0.0
C1577 C 0.52031 0.73867 0.34643 0.0
C1578 C 0.49554 0.73512 0.36291 0.0
C1579 C 0.45675 0.73455 0.35945 0.0
H1580 H 0.55033 0.73902 0.34913 0.0
H1581 H 0.17374 0.72881 0.31683 0.0
H1582 H 0.19194 0.66711 0.84812 0.0
H1583 H 0.16183 0.70115 0.83055 0.0
H1584 H 0.20653 0.75038 0.8761 0.0
H1585 H 0.23656 0.71622 0.8939 0.0
H1586 H 0.13192 0.75957 0.86692 0.0
H1587 H 0.24685 0.74758 0.82935 0.0
H1588 H 0.2939 0.7237 0.81036 0.0
H1589 H 0.21102 0.70485 0.76494 0.0
H1590 H 0.16333 0.72836 0.78381 0.0
H1591 H 0.07765 0.86373 0.81019 0.0
H1592 H 0.11483 0.8338 0.82906 0.0
H1593 H 0.09175 0.78078 0.78172 0.0
H1594 H 0.05661 0.81121 0.76224 0.0
H1595 H 0.15939 0.77543 0.79308 0.0
H1596 H 0.04338 0.78402 0.83084 0.0
H1597 H 0.99462 0.80723 0.84913 0.0
H1598 H 0.07628 0.8309 0.89361 0.0
H1599 H 0.12565 0.80808 0.8754 0.0
C1600 C 0.1953 0.6852 0.8544 0.0
C1601 C 0.21668 0.68903 0.8723 0.0
C1602 C 0.17821 0.70463 0.84432 0.0
C1603 C 0.18232 0.72836 0.85186 0.0
C1604 C 0.2031 0.73222 0.86999 0.0
C1605 C 0.22031 0.71271 0.8801 0.0
C1606 C 0.16496 0.74901 0.84065 0.0
C1607 C 0.1383 0.76331 0.85086 0.0
C1608 C 0.17269 0.75353 0.81957 0.0
C1609 C 0.20145 0.7396 0.80808 0.0
C1610 C 0.2386 0.73822 0.81538 0.0
C1611 C 0.26539 0.72477 0.80463 0.0
C1612 C 0.25544 0.71273 0.78648 0.0
C1613 C 0.21869 0.71418 0.77901 0.0
C1614 C 0.19178 0.72759 0.78971 0.0
C1615 C 0.08069 0.84568 0.80383 0.0
C1616 C 0.06413 0.83967 0.78486 0.0
C1617 C 0.10175 0.82853 0.81467 0.0
C1618 C 0.10543 0.80475 0.80712 0.0
C1619 C 0.08935 0.79893 0.78794 0.0
C1620 C 0.06919 0.81629 0.77683 0.0
C1621 C 0.12565 0.78582 0.81919 0.0
C1622 C 0.15298 0.77183 0.80916 0.0
C1623 C 0.11813 0.78138 0.84036 0.0
C1624 C 0.08825 0.7945 0.85167 0.0
C1625 C 0.05094 0.79422 0.84449 0.0
C1626 C 0.02321 0.80732 0.85484 0.0
C1627 C 0.03236 0.82056 0.87251 0.0
C1628 C 0.06924 0.82064 0.87992 0.0
C1629 C 0.0971 0.80761 0.8696 0.0
H1630 H 0.01087 0.83073 0.88047 0.0
H1631 H 0.27621 0.70231 0.77818 0.0
loop_
_geom_bond_atom_site_label_1
_geom_bond_atom_site_label_2
_geom_bond_distance
_geom_bond_site_symmetry_2
_ccdc_geom_bond_type
H0 C5 0.930 . S
H1 C8 0.930 . S
H2 C10 0.930 . S
H3 C4 1.016 . S
C4 H3 1.016 . S
C4 N11 1.286 . S
C5 H0 0.930 . S
C5 C6 1.397 . S
C5 C7 1.361 . S
C6 C5 1.397 . S
C6 C10 1.390 . S
C7 C5 1.361 . S
C7 C8 1.393 . S
C7 N11 1.413 . S
C8 H1 0.930 . S
C8 C7 1.393 . S
C8 C9 1.399 . S
C9 C8 1.399 . S
C9 C10 1.381 . S
C10 H2 0.930 . S
C10 C6 1.390 . S
C10 C9 1.381 . S
N11 C4 1.286 . S
N11 C7 1.413 . S
H12 C17 0.930 . S
H13 C20 0.930 . S
H14 C22 0.930 . S
H15 C16 1.016 . S
C16 H15 1.016 . S
C16 N23 1.286 . S
C17 H12 0.930 . S
C17 C18 1.397 . S
C17 C19 1.361 . S
C18 C17 1.397 . S
C18 C22 1.390 . S
C19 C17 1.361 . S
C19 C20 1.393 . S
C19 N23 1.413 . S
C20 H13 0.930 . S
C20 C19 1.393 . S
C20 C21 1.399 . S
C21 C20 1.399 . S
C21 C22 1.381 . S
C22 H14 0.930 . S
C22 C18 1.390 . S
C22 C21 1.381 . S
N23 C16 1.286 . S
N23 C19 1.413 . S
H24 C29 0.930 . S
H25 C32 0.930 . S
H26 C34 0.930 . S
H27 C28 1.016 . S
C28 H27 1.016 . S
C28 N35 1.286 . S
C29 H24 0.930 . S
C29 C30 1.397 . S
C29 C31 1.361 . S
C30 C29 1.397 . S
C30 C34 1.390 . S
C31 C29 1.361 . S
C31 C32 1.393 . S
C31 N35 1.413 . S
C32 H25 0.930 . S
C32 C31 1.393 . S
C32 C33 1.399 . S
C33 C32 1.399 . S
C33 C34 1.381 . S
C34 H26 0.930 . S
C34 C30 1.390 . S
C34 C33 1.381 . S
N35 C28 1.286 . S
N35 C31 1.413 . S
H36 C41 0.930 . S
H37 C44 0.930 . S
H38 C46 0.930 . S
H39 C40 1.016 . S
C40 H39 1.016 . S
C40 N47 1.286 . S
C41 H36 0.930 . S
C41 C42 1.397 . S
C41 C43 1.361 . S
C42 C41 1.397 . S
C42 C46 1.390 . S
C43 C41 1.361 . S
C43 C44 1.393 . S
C43 N47 1.413 . S
C44 H37 0.930 . S
C44 C43 1.393 . S
C44 C45 1.399 . S
C45 C44 1.399 . S
C45 C46 1.381 . S
C46 H38 0.930 . S
C46 C42 1.390 . S
C46 C45 1.381 . S
N47 C40 1.286 . S
N47 C43 1.413 . S
H48 C53 0.930 . S
H49 C56 0.930 . S
H50 C58 0.930 . S
H51 C52 1.016 . S
C52 H51 1.016 . S
C52 N59 1.286 . S
C53 H48 0.930 . S
C53 C54 1.397 . S
C53 C55 1.361 . S
C54 C53 1.397 . S
C54 C58 1.390 . S
C55 C53 1.361 . S
C55 C56 1.393 . S
C55 N59 1.413 . S
C56 H49 0.930 . S
C56 C55 1.393 . S
C56 C57 1.399 . S
C57 C56 1.399 . S
C57 C58 1.381 . S
C58 H50 0.930 . S
C58 C54 1.390 . S
C58 C57 1.381 . S
N59 C52 1.286 . S
N59 C55 1.413 . S
H60 C65 0.930 . S
H61 C68 0.930 . S
H62 C70 0.930 . S
H63 C64 1.016 . S
C64 H63 1.016 . S
C64 N71 1.286 . S
C65 H60 0.930 . S
C65 C66 1.397 . S
C65 C67 1.361 . S
C66 C65 1.397 . S
C66 C70 1.390 . S
C67 C65 1.361 . S
C67 C68 1.393 . S
C67 N71 1.413 . S
C68 H61 0.930 . S
C68 C67 1.393 . S
C68 C69 1.399 . S
C69 C68 1.399 . S
C69 C70 1.381 . S
C70 H62 0.930 . S
C70 C66 1.390 . S
C70 C69 1.381 . S
N71 C64 1.286 . S
N71 C67 1.413 . S
H72 C77 0.930 . S
H73 C80 0.930 . S
H74 C82 0.930 . S
H75 C76 1.016 . S
C76 H75 1.016 . S
C76 N83 1.286 . S
C77 H72 0.930 . S
C77 C78 1.397 . S
C77 C79 1.361 . S
C78 C77 1.397 . S
C78 C82 1.390 . S
C79 C77 1.361 . S
C79 C80 1.393 . S
C79 N83 1.413 . S
C80 H73 0.930 . S
C80 C79 1.393 . S
C80 C81 1.399 . S
C81 C80 1.399 . S
C81 C82 1.381 . S
C82 H74 0.930 . S
C82 C78 1.390 . S
C82 C81 1.381 . S
N83 C76 1.286 . S
N83 C79 1.413 . S
H84 C89 0.930 . S
H85 C92 0.930 . S
H86 C94 0.930 . S
H87 C88 1.016 . S
C88 H87 1.016 . S
C88 N95 1.286 . S
C89 H84 0.930 . S
C89 C90 1.397 . S
C89 C91 1.361 . S
C90 C89 1.397 . S
C90 C94 1.390 . S
C91 C89 1.361 . S
C91 C92 1.393 . S
C91 N95 1.413 . S
C92 H85 0.930 . S
C92 C91 1.393 . S
C92 C93 1.399 . S
C93 C92 1.399 . S
C93 C94 1.381 . S
C94 H86 0.930 . S
C94 C90 1.390 . S
C94 C93 1.381 . S
N95 C88 1.286 . S
N95 C91 1.413 . S
C96 C98 1.422 . S
C96 C100 1.415 . S
C96 N102 1.369 . S
C97 C98 1.421 . S
C97 C99 1.417 . S
C97 C109 1.422 . S
C98 C96 1.422 . S
C98 C97 1.421 . S
C98 N108 1.359 . S
C99 C97 1.417 . S
C99 C101 1.329 . S
C99 H118 0.930 . S
C100 C96 1.415 . S
C100 C101 1.437 . S
C100 C104 1.413 . S
C101 C99 1.329 . S
C101 C100 1.437 . S
C101 H123 0.929 . S
N102 C96 1.369 . S
N102 C103 1.338 . S
N102 Gd107 2.622 . S
C103 N102 1.338 . S
C103 C105 1.378 . S
C103 H115 0.929 . S
C104 C100 1.413 . S
C104 C105 1.348 . S
C104 H120 0.931 . S
C105 C103 1.378 . S
C105 C104 1.348 . S
C105 H121 0.930 . S
Gd106 N126 2.622 . S
Gd106 N133 2.570 . S
Gd106 O140 2.353 . S
Gd106 O141 2.468 . S
Gd106 O142 2.427 . S
Gd106 O144 2.388 . S
Gd106 O145 2.386 . S
Gd106 O149 2.311 . S
Gd106 C159 2.805 . S
Gd107 N102 2.622 . S
Gd107 N108 2.570 . S
Gd107 O139 2.386 . S
Gd107 O143 2.307 1_655 S
Gd107 O146 2.353 1_655 S
Gd107 O147 2.468 . S
Gd107 O148 2.427 . S
Gd107 O150 2.388 . S
Gd107 C171 2.805 . S
N108 C98 1.359 . S
N108 Gd107 2.570 . S
N108 C110 1.343 . S
C109 C97 1.422 . S
C109 C111 1.321 . S
C109 H117 0.931 . S
C110 N108 1.343 . S
C110 C111 1.390 . S
C110 H112 0.931 . S
C111 C109 1.321 . S
C111 C110 1.390 . S
C111 H113 0.930 . S
H112 C110 0.931 . S
H113 C111 0.930 . S
H114 C137 0.931 . S
H115 C103 0.929 . S
H116 C138 0.930 . S
H117 C109 0.931 . S
H118 C99 0.930 . S
H119 C128 0.929 . S
H120 C104 0.931 . S
H121 C105 0.930 . S
H122 C160 0.930 . S
H123 C101 0.929 . S
H124 C129 0.931 . S
H125 C130 0.930 . S
N126 Gd106 2.622 . S
N126 C127 1.369 . S
N126 C128 1.338 . S
C127 N126 1.369 . S
C127 C131 1.415 . S
C127 C134 1.422 . S
C128 H119 0.929 . S
C128 N126 1.338 . S
C128 C130 1.378 . S
C129 H124 0.931 . S
C129 C130 1.348 . S
C129 C131 1.413 . S
C130 H125 0.930 . S
C130 C128 1.378 . S
C130 C129 1.348 . S
C131 C127 1.415 . S
C131 C129 1.413 . S
C131 C161 1.437 . S
H132 C161 0.929 . S
N133 Gd106 2.570 . S
N133 C134 1.359 . S
N133 C137 1.343 . S
C134 C127 1.422 . S
C134 N133 1.359 . S
C134 C136 1.421 . S
C135 C136 1.422 . S
C135 C138 1.321 . S
C135 H162 0.931 . S
C136 C134 1.421 . S
C136 C135 1.422 . S
C136 C160 1.417 . S
C137 H114 0.931 . S
C137 N133 1.343 . S
C137 C138 1.390 . S
C138 H116 0.930 . S
C138 C135 1.321 . S
C138 C137 1.390 . S
O139 Gd107 2.386 . S
O139 C151 1.265 . S
O140 Gd106 2.353 . S
O140 C151 1.242 1_455 S
O141 Gd106 2.468 . S
O141 C159 1.263 . S
O142 Gd106 2.427 . S
O142 C159 1.252 . S
O143 Gd107 2.307 1_455 S
O143 C152 1.261 . S
O144 Gd106 2.388 . S
O144 C152 1.252 . S
O145 Gd106 2.386 . S
O145 C163 1.265 . S
O146 Gd107 2.353 1_455 S
O146 C163 1.242 . S
O147 Gd107 2.468 . S
O147 C171 1.263 . S
O148 Gd107 2.427 . S
O148 C171 1.252 . S
O149 Gd106 2.311 . S
O149 C164 1.256 1_455 S
O150 Gd107 2.388 . S
O150 C164 1.252 . S
C151 O139 1.265 . S
C151 O140 1.242 1_655 S
C152 O143 1.261 . S
C152 O144 1.252 . S
C153 C156 1.394 . S
C153 C158 1.370 . S
C153 C159 1.500 . S
C154 C157 1.383 . S
C154 C158 1.395 . S
C155 C156 1.396 . S
C155 C157 1.365 . S
C155 H172 0.929 . S
C156 C153 1.394 . S
C156 C155 1.396 . S
C156 H173 0.930 . S
C157 C154 1.383 . S
C157 C155 1.365 . S
C157 H174 0.931 . S
C158 C153 1.370 . S
C158 C154 1.395 . S
C158 H175 0.930 . S
C159 Gd106 2.805 . S
C159 O141 1.263 . S
C159 O142 1.252 . S
C159 C153 1.500 . S
C160 H122 0.930 . S
C160 C136 1.417 . S
C160 C161 1.329 . S
C161 C131 1.437 . S
C161 H132 0.929 . S
C161 C160 1.329 . S
H162 C135 0.931 . S
C163 O145 1.265 . S
C163 O146 1.242 . S
C164 O149 1.256 1_655 S
C164 O150 1.252 . S
C165 C168 1.394 . S
C165 C170 1.370 . S
C165 C171 1.500 . S
C166 C169 1.383 . S
C166 C170 1.395 . S
C167 C168 1.396 . S
C167 C169 1.365 . S
C167 H176 0.929 . S
C168 C165 1.394 . S
C168 C167 1.396 . S
C168 H177 0.930 . S
C169 C166 1.383 . S
C169 C167 1.365 . S
C169 H178 0.931 . S
C170 C165 1.370 . S
C170 C166 1.395 . S
C170 H179 0.930 . S
C171 Gd107 2.805 . S
C171 O147 1.263 . S
C171 O148 1.252 . S
C171 C165 1.500 . S
H172 C155 0.929 . S
H173 C156 0.930 . S
H174 C157 0.931 . S
H175 C158 0.930 . S
H176 C167 0.929 . S
H177 C168 0.930 . S
H178 C169 0.931 . S
H179 C170 0.930 . S
C180 C182 1.422 . S
C180 C184 1.415 . S
C180 N186 1.369 . S
C181 C182 1.421 . S
C181 C183 1.417 . S
C181 C193 1.422 . S
C182 C180 1.422 . S
C182 C181 1.421 . S
C182 N192 1.359 . S
C183 C181 1.417 . S
C183 C185 1.329 . S
C183 H202 0.930 . S
C184 C180 1.415 . S
C184 C185 1.437 . S
C184 C188 1.413 . S
C185 C183 1.329 . S
C185 C184 1.437 . S
C185 H207 0.929 . S
N186 C180 1.369 . S
N186 C187 1.338 . S
N186 Gd191 2.622 . S
C187 N186 1.338 . S
C187 C189 1.378 . S
C187 H199 0.929 . S
C188 C184 1.413 . S
C188 C189 1.348 . S
C188 H204 0.931 . S
C189 C187 1.378 . S
C189 C188 1.348 . S
C189 H205 0.930 . S
Gd190 N210 2.622 . S
Gd190 N217 2.570 . S
Gd190 O224 2.353 . S
Gd190 O225 2.468 . S
Gd190 O226 2.427 . S
Gd190 O228 2.388 . S
Gd190 O229 2.386 . S
Gd190 O233 2.307 . S
Gd190 C243 2.805 . S
Gd191 N186 2.622 . S
Gd191 N192 2.570 . S
Gd191 O223 2.386 . S
Gd191 O227 2.307 . S
Gd191 O230 2.353 . S
Gd191 O231 2.468 . S
Gd191 O232 2.427 . S
Gd191 O234 2.388 . S
Gd191 C255 2.805 . S
N192 C182 1.359 . S
N192 Gd191 2.570 . S
N192 C194 1.343 . S
C193 C181 1.422 . S
C193 C195 1.321 . S
C193 H201 0.931 . S
C194 N192 1.343 . S
C194 C195 1.390 . S
C194 H196 0.931 . S
C195 C193 1.321 . S
C195 C194 1.390 . S
C195 H197 0.930 . S
H196 C194 0.931 . S
H197 C195 0.930 . S
H198 C221 0.931 . S
H199 C187 0.929 . S
H200 C222 0.930 . S
H201 C193 0.931 . S
H202 C183 0.930 . S
H203 C212 0.929 . S
H204 C188 0.931 . S
H205 C189 0.930 . S
H206 C244 0.930 . S
H207 C185 0.929 . S
H208 C213 0.931 . S
H209 C214 0.930 . S
N210 Gd190 2.622 . S
N210 C211 1.369 . S
N210 C212 1.338 . S
C211 N210 1.369 . S
C211 C215 1.415 . S
C211 C218 1.422 . S
C212 H203 0.929 . S
C212 N210 1.338 . S
C212 C214 1.378 . S
C213 H208 0.931 . S
C213 C214 1.348 . S
C213 C215 1.413 . S
C214 H209 0.930 . S
C214 C212 1.378 . S
C214 C213 1.348 . S
C215 C211 1.415 . S
C215 C213 1.413 . S
C215 C245 1.437 . S
H216 C245 0.929 . S
N217 Gd190 2.570 . S
N217 C218 1.359 . S
N217 C221 1.343 . S
C218 C211 1.422 . S
C218 N217 1.359 . S
C218 C220 1.421 . S
C219 C220 1.422 . S
C219 C222 1.321 . S
C219 H246 0.931 . S
C220 C218 1.421 . S
C220 C219 1.422 . S
C220 C244 1.417 . S
C221 H198 0.931 . S
C221 N217 1.343 . S
C221 C222 1.390 . S
C222 H200 0.930 . S
C222 C219 1.321 . S
C222 C221 1.390 . S
O223 Gd191 2.386 . S
O223 C235 1.265 . S
O224 Gd190 2.353 . S
O224 C235 1.242 . S
O225 Gd190 2.468 . S
O225 C243 1.263 . S
O226 Gd190 2.427 . S
O226 C243 1.252 . S
O227 Gd191 2.307 . S
O227 C236 1.261 . S
O228 Gd190 2.388 . S
O228 C236 1.252 . S
O229 Gd190 2.386 . S
O229 C247 1.265 . S
O230 Gd191 2.353 . S
O230 C247 1.242 . S
O231 Gd191 2.468 . S
O231 C255 1.263 . S
O232 Gd191 2.427 . S
O232 C255 1.252 . S
O233 Gd190 2.307 . S
O233 C248 1.261 . S
O234 Gd191 2.388 . S
O234 C248 1.252 . S
C235 O223 1.265 . S
C235 O224 1.242 . S
C236 O227 1.261 . S
C236 O228 1.252 . S
C237 C240 1.394 . S
C237 C242 1.370 . S
C237 C243 1.500 . S
C238 C241 1.383 . S
C238 C242 1.395 . S
C239 C240 1.396 . S
C239 C241 1.365 . S
C239 H256 0.929 . S
C240 C237 1.394 . S
C240 C239 1.396 . S
C240 H257 0.930 . S
C241 C238 1.383 . S
C241 C239 1.365 . S
C241 H258 0.931 . S
C242 C237 1.370 . S
C242 C238 1.395 . S
C242 H259 0.930 . S
C243 Gd190 2.805 . S
C243 O225 1.263 . S
C243 O226 1.252 . S
C243 C237 1.500 . S
C244 H206 0.930 . S
C244 C220 1.417 . S
C244 C245 1.329 . S
C245 C215 1.437 . S
C245 H216 0.929 . S
C245 C244 1.329 . S
H246 C219 0.931 . S
C247 O229 1.265 . S
C247 O230 1.242 . S
C248 O233 1.261 . S
C248 O234 1.252 . S
C249 C252 1.394 . S
C249 C254 1.370 . S
C249 C255 1.500 . S
C250 C253 1.383 . S
C250 C254 1.395 . S
C251 C252 1.396 . S
C251 C253 1.365 . S
C251 H260 0.929 . S
C252 C249 1.394 . S
C252 C251 1.396 . S
C252 H261 0.930 . S
C253 C250 1.383 . S
C253 C251 1.365 . S
C253 H262 0.931 . S
C254 C249 1.370 . S
C254 C250 1.395 . S
C254 H263 0.930 . S
C255 Gd191 2.805 . S
C255 O231 1.263 . S
C255 O232 1.252 . S
C255 C249 1.500 . S
H256 C239 0.929 . S
H257 C240 0.930 . S
H258 C241 0.931 . S
H259 C242 0.930 . S
H260 C251 0.929 . S
H261 C252 0.930 . S
H262 C253 0.931 . S
H263 C254 0.930 . S
C264 C266 1.422 . S
C264 C268 1.415 . S
C264 N270 1.369 . S
C265 C266 1.421 . S
C265 C267 1.417 . S
C265 C277 1.422 . S
C266 C264 1.422 . S
C266 C265 1.421 . S
C266 N276 1.359 . S
C267 C265 1.417 . S
C267 C269 1.329 . S
C267 H286 0.930 . S
C268 C264 1.415 . S
C268 C269 1.437 . S
C268 C272 1.413 . S
C269 C267 1.329 . S
C269 C268 1.437 . S
C269 H291 0.929 . S
N270 C264 1.369 . S
N270 C271 1.338 . S
N270 Gd275 2.622 . S
C271 N270 1.338 . S
C271 C273 1.378 . S
C271 H283 0.929 . S
C272 C268 1.413 . S
C272 C273 1.348 . S
C272 H288 0.931 . S
C273 C271 1.378 . S
C273 C272 1.348 . S
C273 H289 0.930 . S
Gd274 N294 2.622 . S
Gd274 N301 2.570 . S
Gd274 O308 2.353 . S
Gd274 O309 2.468 . S
Gd274 O310 2.427 . S
Gd274 O312 2.388 . S
Gd274 O313 2.386 . S
Gd274 O317 2.307 . S
Gd274 C327 2.805 . S
Gd275 N270 2.622 . S
Gd275 N276 2.570 . S
Gd275 O307 2.386 . S
Gd275 O311 2.307 1_655 S
Gd275 O314 2.353 1_655 S
Gd275 O315 2.468 . S
Gd275 O316 2.427 . S
Gd275 O318 2.388 . S
Gd275 C339 2.805 . S
N276 C266 1.359 . S
N276 Gd275 2.570 . S
N276 C278 1.343 . S
C277 C265 1.422 . S
C277 C279 1.321 . S
C277 H285 0.931 . S
C278 N276 1.343 . S
C278 C279 1.390 . S
C278 H280 0.931 . S
C279 C277 1.321 . S
C279 C278 1.390 . S
C279 H281 0.930 . S
H280 C278 0.931 . S
H281 C279 0.930 . S
H282 C305 0.931 . S
H283 C271 0.929 . S
H284 C306 0.930 . S
H285 C277 0.931 . S
H286 C267 0.930 . S
H287 C296 0.929 . S
H288 C272 0.931 . S
H289 C273 0.930 . S
H290 C328 0.930 . S
H291 C269 0.929 . S
H292 C297 0.931 . S
H293 C298 0.930 . S
N294 Gd274 2.622 . S
N294 C295 1.369 . S
N294 C296 1.338 . S
C295 N294 1.369 . S
C295 C299 1.415 . S
C295 C302 1.422 . S
C296 H287 0.929 . S
C296 N294 1.338 . S
C296 C298 1.378 . S
C297 H292 0.931 . S
C297 C298 1.348 . S
C297 C299 1.413 . S
C298 H293 0.930 . S
C298 C296 1.378 . S
C298 C297 1.348 . S
C299 C295 1.415 . S
C299 C297 1.413 . S
C299 C329 1.437 . S
H300 C329 0.929 . S
N301 Gd274 2.570 . S
N301 C302 1.359 . S
N301 C305 1.343 . S
C302 C295 1.422 . S
C302 N301 1.359 . S
C302 C304 1.421 . S
C303 C304 1.422 . S
C303 C306 1.321 . S
C303 H330 0.931 . S
C304 C302 1.421 . S
C304 C303 1.422 . S
C304 C328 1.417 . S
C305 H282 0.931 . S
C305 N301 1.343 . S
C305 C306 1.390 . S
C306 H284 0.930 . S
C306 C303 1.321 . S
C306 C305 1.390 . S
O307 Gd275 2.386 . S
O307 C319 1.265 . S
O308 Gd274 2.353 . S
O308 C319 1.242 1_455 S
O309 Gd274 2.468 . S
O309 C327 1.263 . S
O310 Gd274 2.427 . S
O310 C327 1.252 . S
O311 Gd275 2.307 1_455 S
O311 C320 1.261 . S
O312 Gd274 2.388 . S
O312 C320 1.252 . S
O313 Gd274 2.386 . S
O313 C331 1.265 . S
O314 Gd275 2.353 1_455 S
O314 C331 1.242 . S
O315 Gd275 2.468 . S
O315 C339 1.263 . S
O316 Gd275 2.427 . S
O316 C339 1.252 . S
O317 Gd274 2.307 . S
O317 C332 1.261 1_455 S
O318 Gd275 2.388 . S
O318 C332 1.252 . S
C319 O307 1.265 . S
C319 O308 1.242 1_655 S
C320 O311 1.261 . S
C320 O312 1.252 . S
C321 C324 1.394 . S
C321 C326 1.370 . S
C321 C327 1.500 . S
C322 C325 1.383 . S
C322 C326 1.395 . S
C323 C324 1.396 . S
C323 C325 1.365 . S
C323 H340 0.929 . S
C324 C321 1.394 . S
C324 C323 1.396 . S
C324 H341 0.930 . S
C325 C322 1.383 . S
C325 C323 1.365 . S
C325 H342 0.931 . S
C326 C321 1.370 . S
C326 C322 1.395 . S
C326 H343 0.930 . S
C327 Gd274 2.805 . S
C327 O309 1.263 . S
C327 O310 1.252 . S
C327 C321 1.500 . S
C328 H290 0.930 . S
C328 C304 1.417 . S
C328 C329 1.329 . S
C329 C299 1.437 . S
C329 H300 0.929 . S
C329 C328 1.329 . S
H330 C303 0.931 . S
C331 O313 1.265 . S
C331 O314 1.242 . S
C332 O317 1.261 1_655 S
C332 O318 1.252 . S
C333 C336 1.394 . S
C333 C338 1.370 . S
C333 C339 1.500 . S
C334 C337 1.383 . S
C334 C338 1.395 . S
C335 C336 1.396 . S
C335 C337 1.365 . S
C335 H344 0.929 . S
C336 C333 1.394 . S
C336 C335 1.396 . S
C336 H345 0.930 . S
C337 C334 1.383 . S
C337 C335 1.365 . S
C337 H346 0.931 . S
C338 C333 1.370 . S
C338 C334 1.395 . S
C338 H347 0.930 . S
C339 Gd275 2.805 . S
C339 O315 1.263 . S
C339 O316 1.252 . S
C339 C333 1.500 . S
H340 C323 0.929 . S
H341 C324 0.930 . S
H342 C325 0.931 . S
H343 C326 0.930 . S
H344 C335 0.929 . S
H345 C336 0.930 . S
H346 C337 0.931 . S
H347 C338 0.930 . S
C348 C350 1.422 . S
C348 C352 1.415 . S
C348 N354 1.369 . S
C349 C350 1.421 . S
C349 C351 1.417 . S
C349 C361 1.422 . S
C350 C348 1.422 . S
C350 C349 1.421 . S
C350 N360 1.359 . S
C351 C349 1.417 . S
C351 C353 1.329 . S
C351 H370 0.930 . S
C352 C348 1.415 . S
C352 C353 1.437 . S
C352 C356 1.413 . S
C353 C351 1.329 . S
C353 C352 1.437 . S
C353 H375 0.929 . S
N354 C348 1.369 . S
N354 C355 1.338 . S
N354 Gd359 2.622 . S
C355 N354 1.338 . S
C355 C357 1.378 . S
C355 H367 0.929 . S
C356 C352 1.413 . S
C356 C357 1.348 . S
C356 H372 0.931 . S
C357 C355 1.378 . S
C357 C356 1.348 . S
C357 H373 0.930 . S
Gd358 N378 2.622 . S
Gd358 N385 2.570 . S
Gd358 O392 2.353 . S
Gd358 O393 2.468 . S
Gd358 O394 2.427 . S
Gd358 O396 2.388 . S
Gd358 O397 2.386 . S
Gd358 O401 2.307 . S
Gd358 C411 2.805 . S
Gd359 N354 2.622 . S
Gd359 N360 2.570 . S
Gd359 O391 2.386 . S
Gd359 O395 2.307 . S
Gd359 O398 2.353 . S
Gd359 O399 2.468 . S
Gd359 O400 2.427 . S
Gd359 O402 2.388 . S
Gd359 C423 2.805 . S
N360 C350 1.359 . S
N360 Gd359 2.570 . S
N360 C362 1.343 . S
C361 C349 1.422 . S
C361 C363 1.321 . S
C361 H369 0.931 . S
C362 N360 1.343 . S
C362 C363 1.390 . S
C362 H364 0.931 . S
C363 C361 1.321 . S
C363 C362 1.390 . S
C363 H365 0.930 . S
H364 C362 0.931 . S
H365 C363 0.930 . S
H366 C389 0.931 . S
H367 C355 0.929 . S
H368 C390 0.930 . S
H369 C361 0.931 . S
H370 C351 0.930 . S
H371 C380 0.929 . S
H372 C356 0.931 . S
H373 C357 0.930 . S
H374 C412 0.930 . S
H375 C353 0.929 . S
H376 C381 0.931 . S
H377 C382 0.930 . S
N378 Gd358 2.622 . S
N378 C379 1.369 . S
N378 C380 1.338 . S
C379 N378 1.369 . S
C379 C383 1.415 . S
C379 C386 1.422 . S
C380 H371 0.929 . S
C380 N378 1.338 . S
C380 C382 1.378 . S
C381 H376 0.931 . S
C381 C382 1.348 . S
C381 C383 1.413 . S
C382 H377 0.930 . S
C382 C380 1.378 . S
C382 C381 1.348 . S
C383 C379 1.415 . S
C383 C381 1.413 . S
C383 C413 1.437 . S
H384 C413 0.929 . S
N385 Gd358 2.570 . S
N385 C386 1.359 . S
N385 C389 1.343 . S
C386 C379 1.422 . S
C386 N385 1.359 . S
C386 C388 1.421 . S
C387 C388 1.422 . S
C387 C390 1.321 . S
C387 H414 0.931 . S
C388 C386 1.421 . S
C388 C387 1.422 . S
C388 C412 1.417 . S
C389 H366 0.931 . S
C389 N385 1.343 . S
C389 C390 1.390 . S
C390 H368 0.930 . S
C390 C387 1.321 . S
C390 C389 1.390 . S
O391 Gd359 2.386 . S
O391 C403 1.265 . S
O392 Gd358 2.353 . S
O392 C403 1.242 . S
O393 Gd358 2.468 . S
O393 C411 1.263 . S
O394 Gd358 2.427 . S
O394 C411 1.252 . S
O395 Gd359 2.307 . S
O395 C404 1.261 . S
O396 Gd358 2.388 . S
O396 C404 1.252 . S
O397 Gd358 2.386 . S
O397 C415 1.265 . S
O398 Gd359 2.353 . S
O398 C415 1.242 . S
O399 Gd359 2.468 . S
O399 C423 1.263 . S
O400 Gd359 2.427 . S
O400 C423 1.252 . S
O401 Gd358 2.307 . S
O401 C416 1.261 . S
O402 Gd359 2.388 . S
O402 C416 1.252 . S
C403 O391 1.265 . S
C403 O392 1.242 . S
C404 O395 1.261 . S
C404 O396 1.252 . S
C405 C408 1.394 . S
C405 C410 1.370 . S
C405 C411 1.500 . S
C406 C409 1.383 . S
C406 C410 1.395 . S
C407 C408 1.396 . S
C407 C409 1.365 . S
C407 H424 0.929 . S
C408 C405 1.394 . S
C408 C407 1.396 . S
C408 H425 0.930 . S
C409 C406 1.383 . S
C409 C407 1.365 . S
C409 H426 0.931 . S
C410 C405 1.370 . S
C410 C406 1.395 . S
C410 H427 0.930 . S
C411 Gd358 2.805 . S
C411 O393 1.263 . S
C411 O394 1.252 . S
C411 C405 1.500 . S
C412 H374 0.930 . S
C412 C388 1.417 . S
C412 C413 1.329 . S
C413 C383 1.437 . S
C413 H384 0.929 . S
C413 C412 1.329 . S
H414 C387 0.931 . S
C415 O397 1.265 . S
C415 O398 1.242 . S
C416 O401 1.261 . S
C416 O402 1.252 . S
C417 C420 1.394 . S
C417 C422 1.370 . S
C417 C423 1.500 . S
C418 C421 1.383 . S
C418 C422 1.395 . S
C419 C420 1.396 . S
C419 C421 1.365 . S
C419 H428 0.929 . S
C420 C417 1.394 . S
C420 C419 1.396 . S
C420 H429 0.930 . S
C421 C418 1.383 . S
C421 C419 1.365 . S
C421 H430 0.931 . S
C422 C417 1.370 . S
C422 C418 1.395 . S
C422 H431 0.930 . S
C423 Gd359 2.805 . S
C423 O399 1.263 . S
C423 O400 1.252 . S
C423 C417 1.500 . S
H424 C407 0.929 . S
H425 C408 0.930 . S
H426 C409 0.931 . S
H427 C410 0.930 . S
H428 C419 0.929 . S
H429 C420 0.930 . S
H430 C421 0.931 . S
H431 C422 0.930 . S
H432 C450 0.951 . S
H433 C452 0.951 . S
H434 C454 0.950 . S
H435 C455 0.950 . S
H436 C457 0.950 . S
H437 C460 0.950 . S
H438 C461 0.950 . S
H439 C463 0.950 . S
H440 C464 0.950 . S
H441 C465 0.951 . S
H442 C467 0.951 . S
H443 C469 0.950 1_565 S
H444 C470 0.950 . S
H445 C472 0.950 . S
H446 C475 0.950 1_565 S
H447 C476 0.950 1_655 S
H448 C478 0.950 . S
H449 C479 0.950 . S
C450 H432 0.951 . S
C450 C451 1.366 . S
C450 C452 1.388 . S
C451 C450 1.366 . S
C451 C455 1.385 . S
C452 H433 0.951 . S
C452 C450 1.388 . S
C452 C453 1.366 . S
C453 C452 1.366 . S
C453 C454 1.414 . S
C453 C456 1.499 . S
C454 H434 0.950 . S
C454 C453 1.414 . S
C454 C455 1.374 . S
C455 H435 0.950 . S
C455 C451 1.385 . S
C455 C454 1.374 . S
C456 C453 1.499 . S
C456 C457 1.373 . S
C456 C458 1.389 . S
C457 H436 0.950 . S
C457 C456 1.373 . S
C457 C473 1.377 . S
C458 C456 1.389 . S
C458 C459 1.524 . S
C458 C472 1.377 . S
C459 C458 1.524 . S
C459 C460 1.397 . S
C459 C464 1.363 . S
C460 H437 0.950 . S
C460 C459 1.397 . S
C460 C461 1.334 . S
C461 H438 0.950 . S
C461 C460 1.334 . S
C461 C462 1.287 . S
C462 C461 1.287 . S
C462 C463 1.524 . S
C462 H481 0.913 . S
C463 H439 0.950 . S
C463 C462 1.524 . S
C463 C464 1.415 . S
C464 H440 0.950 . S
C464 C459 1.363 . S
C464 C463 1.415 . S
C465 H441 0.951 . S
C465 C466 1.366 . S
C465 C467 1.388 . S
C466 C465 1.366 . S
C466 C470 1.385 . S
C467 H442 0.951 . S
C467 C465 1.388 . S
C467 C468 1.366 . S
C468 C467 1.366 . S
C468 C469 1.414 . S
C468 C471 1.499 1_545 S
C469 H443 0.950 1_545 S
C469 C468 1.414 . S
C469 C470 1.374 . S
C470 H444 0.950 . S
C470 C466 1.385 . S
C470 C469 1.374 . S
C471 C468 1.499 1_565 S
C471 C472 1.373 . S
C471 C473 1.389 . S
C472 H445 0.950 . S
C472 C458 1.377 . S
C472 C471 1.373 . S
C473 C457 1.377 . S
C473 C471 1.389 . S
C473 C474 1.524 1_565 S
C474 C473 1.524 1_545 S
C474 C475 1.397 . S
C474 C479 1.363 . S
C475 H446 0.950 1_545 S
C475 C474 1.397 . S
C475 C476 1.334 . S
C476 H447 0.950 1_455 S
C476 C475 1.334 . S
C476 C477 1.287 . S
C477 C476 1.287 . S
C477 C478 1.524 . S
C477 H480 0.999 1_455 S
C478 H448 0.950 . S
C478 C477 1.524 . S
C478 C479 1.415 . S
C479 H449 0.950 . S
C479 C474 1.363 . S
C479 C478 1.415 . S
H480 C477 0.999 1_655 S
H481 C462 0.913 . S
H482 C500 0.951 . S
H483 C502 0.951 . S
H484 C504 0.950 . S
H485 C505 0.950 . S
H486 C507 0.950 . S
H487 C510 0.950 . S
H488 C511 0.950 . S
H489 C513 0.950 . S
H490 C514 0.950 . S
H491 C515 0.951 . S
H492 C517 0.951 . S
H493 C519 0.950 . S
H494 C520 0.950 . S
H495 C522 0.950 . S
H496 C525 0.950 . S
H497 C526 0.950 . S
H498 C528 0.950 . S
H499 C529 0.950 . S
C500 H482 0.951 . S
C500 C501 1.366 . S
C500 C502 1.388 . S
C501 C500 1.366 . S
C501 C505 1.385 . S
C502 H483 0.951 . S
C502 C500 1.388 . S
C502 C503 1.366 . S
C503 C502 1.366 . S
C503 C504 1.414 . S
C503 C506 1.499 . S
C504 H484 0.950 . S
C504 C503 1.414 . S
C504 C505 1.374 . S
C505 H485 0.950 . S
C505 C501 1.385 . S
C505 C504 1.374 . S
C506 C503 1.499 . S
C506 C507 1.373 . S
C506 C508 1.389 . S
C507 H486 0.950 . S
C507 C506 1.373 . S
C507 C523 1.377 . S
C508 C506 1.389 . S
C508 C509 1.524 . S
C508 C522 1.377 . S
C509 C508 1.524 . S
C509 C510 1.397 . S
C509 C514 1.363 . S
C510 H487 0.950 . S
C510 C509 1.397 . S
C510 C511 1.334 . S
C511 H488 0.950 . S
C511 C510 1.334 . S
C511 C512 1.287 . S
C512 C511 1.287 . S
C512 C513 1.524 . S
C512 H531 0.913 . S
C513 H489 0.950 . S
C513 C512 1.524 . S
C513 C514 1.415 . S
C514 H490 0.950 . S
C514 C509 1.363 . S
C514 C513 1.415 . S
C515 H491 0.951 . S
C515 C516 1.366 . S
C515 C517 1.388 . S
C516 C515 1.366 . S
C516 C520 1.385 . S
C517 H492 0.951 . S
C517 C515 1.388 . S
C517 C518 1.366 . S
C518 C517 1.366 . S
C518 C519 1.414 . S
C518 C521 1.499 . S
C519 H493 0.950 . S
C519 C518 1.414 . S
C519 C520 1.374 . S
C520 H494 0.950 . S
C520 C516 1.385 . S
C520 C519 1.374 . S
C521 C518 1.499 . S
C521 C522 1.373 . S
C521 C523 1.389 . S
C522 H495 0.950 . S
C522 C508 1.377 . S
C522 C521 1.373 . S
C523 C507 1.377 . S
C523 C521 1.389 . S
C523 C524 1.524 . S
C524 C523 1.524 . S
C524 C525 1.397 . S
C524 C529 1.363 . S
C525 H496 0.950 . S
C525 C524 1.397 . S
C525 C526 1.334 . S
C526 H497 0.950 . S
C526 C525 1.334 . S
C526 C527 1.287 . S
C527 C526 1.287 . S
C527 C528 1.524 . S
C527 H530 0.999 . S
C528 H498 0.950 . S
C528 C527 1.524 . S
C528 C529 1.415 . S
C529 H499 0.950 . S
C529 C524 1.363 . S
C529 C528 1.415 . S
H530 C527 0.999 . S
H531 C512 0.913 . S
H532 C550 0.951 . S
H533 C552 0.951 . S
H534 C554 0.950 . S
H535 C555 0.950 . S
H536 C557 0.950 . S
H537 C560 0.950 . S
H538 C561 0.950 . S
H539 C563 0.950 . S
H540 C564 0.950 . S
H541 C565 0.951 . S
H542 C567 0.951 . S
H543 C569 0.950 . S
H544 C570 0.950 . S
H545 C572 0.950 . S
H546 C575 0.950 . S
H547 C576 0.950 . S
H548 C578 0.950 . S
H549 C579 0.950 . S
C550 H532 0.951 . S
C550 C551 1.366 . S
C550 C552 1.388 . S
C551 C550 1.366 . S
C551 C555 1.385 . S
C552 H533 0.951 . S
C552 C550 1.388 . S
C552 C553 1.366 . S
C553 C552 1.366 . S
C553 C554 1.414 . S
C553 C556 1.499 . S
C554 H534 0.950 . S
C554 C553 1.414 . S
C554 C555 1.374 . S
C555 H535 0.950 . S
C555 C551 1.385 . S
C555 C554 1.374 . S
C556 C553 1.499 . S
C556 C557 1.373 . S
C556 C558 1.389 . S
C557 H536 0.950 . S
C557 C556 1.373 . S
C557 C573 1.377 . S
C558 C556 1.389 . S
C558 C559 1.524 . S
C558 C572 1.377 . S
C559 C558 1.524 . S
C559 C560 1.397 . S
C559 C564 1.363 . S
C560 H537 0.950 . S
C560 C559 1.397 . S
C560 C561 1.334 . S
C561 H538 0.950 . S
C561 C560 1.334 . S
C561 C562 1.287 . S
C562 C561 1.287 . S
C562 C563 1.524 . S
C562 H581 0.913 . S
C563 H539 0.950 . S
C563 C562 1.524 . S
C563 C564 1.415 . S
C564 H540 0.950 . S
C564 C559 1.363 . S
C564 C563 1.415 . S
C565 H541 0.951 . S
C565 C566 1.366 . S
C565 C567 1.388 . S
C566 C565 1.366 . S
C566 C570 1.385 . S
C567 H542 0.951 . S
C567 C565 1.388 . S
C567 C568 1.366 . S
C568 C567 1.366 . S
C568 C569 1.414 . S
C568 C571 1.499 . S
C569 H543 0.950 . S
C569 C568 1.414 . S
C569 C570 1.374 . S
C570 H544 0.950 . S
C570 C566 1.385 . S
C570 C569 1.374 . S
C571 C568 1.499 . S
C571 C572 1.373 . S
C571 C573 1.389 . S
C572 H545 0.950 . S
C572 C558 1.377 . S
C572 C571 1.373 . S
C573 C557 1.377 . S
C573 C571 1.389 . S
C573 C574 1.524 . S
C574 C573 1.524 . S
C574 C575 1.397 . S
C574 C579 1.363 . S
C575 H546 0.950 . S
C575 C574 1.397 . S
C575 C576 1.334 . S
C576 H547 0.950 . S
C576 C575 1.334 . S
C576 C577 1.287 . S
C577 C576 1.287 . S
C577 C578 1.524 . S
C577 H580 0.999 . S
C578 H548 0.950 . S
C578 C577 1.524 . S
C578 C579 1.415 . S
C579 H549 0.950 . S
C579 C574 1.363 . S
C579 C578 1.415 . S
H580 C577 0.999 . S
H581 C562 0.913 . S
H582 C600 0.951 . S
H583 C602 0.951 . S
H584 C604 0.950 . S
H585 C605 0.950 . S
H586 C607 0.950 . S
H587 C610 0.950 . S
H588 C611 0.950 . S
H589 C613 0.950 . S
H590 C614 0.950 . S
H591 C615 0.951 . S
H592 C617 0.951 . S
H593 C619 0.950 . S
H594 C620 0.950 . S
H595 C622 0.950 1_545 S
H596 C625 0.950 . S
H597 C626 0.950 . S
H598 C628 0.950 . S
H599 C629 0.950 . S
C600 H582 0.951 . S
C600 C601 1.366 . S
C600 C602 1.388 . S
C601 C600 1.366 . S
C601 C605 1.385 . S
C602 H583 0.951 . S
C602 C600 1.388 . S
C602 C603 1.366 . S
C603 C602 1.366 . S
C603 C604 1.414 . S
C603 C606 1.499 . S
C604 H584 0.950 . S
C604 C603 1.414 . S
C604 C605 1.374 . S
C605 H585 0.950 . S
C605 C601 1.385 . S
C605 C604 1.374 . S
C606 C603 1.499 . S
C606 C607 1.373 . S
C606 C608 1.389 . S
C607 H586 0.950 . S
C607 C606 1.373 . S
C607 C623 1.377 . S
C608 C606 1.389 . S
C608 C609 1.524 . S
C608 C622 1.377 . S
C609 C608 1.524 . S
C609 C610 1.397 . S
C609 C614 1.363 . S
C610 H587 0.950 . S
C610 C609 1.397 . S
C610 C611 1.334 . S
C611 H588 0.950 . S
C611 C610 1.334 . S
C611 C612 1.287 . S
C612 C611 1.287 . S
C612 C613 1.524 . S
C612 H631 0.913 . S
C613 H589 0.950 . S
C613 C612 1.524 . S
C613 C614 1.415 . S
C614 H590 0.950 . S
C614 C609 1.363 . S
C614 C613 1.415 . S
C615 H591 0.951 . S
C615 C616 1.366 . S
C615 C617 1.388 . S
C616 C615 1.366 . S
C616 C620 1.385 . S
C617 H592 0.951 . S
C617 C615 1.388 . S
C617 C618 1.366 . S
C618 C617 1.366 . S
C618 C619 1.414 . S
C618 C621 1.499 1_545 S
C619 H593 0.950 . S
C619 C618 1.414 . S
C619 C620 1.374 . S
C620 H594 0.950 . S
C620 C616 1.385 . S
C620 C619 1.374 . S
C621 C618 1.499 1_565 S
C621 C622 1.373 . S
C621 C623 1.389 . S
C622 H595 0.950 1_565 S
C622 C608 1.377 . S
C622 C621 1.373 . S
C623 C607 1.377 . S
C623 C621 1.389 . S
C623 C624 1.524 . S
C624 C623 1.524 . S
C624 C625 1.397 . S
C624 C629 1.363 . S
C625 H596 0.950 . S
C625 C624 1.397 . S
C625 C626 1.334 1_655 S
C626 H597 0.950 . S
C626 C625 1.334 1_455 S
C626 C627 1.287 . S
C627 C626 1.287 . S
C627 C628 1.524 . S
C627 H630 0.999 . S
C628 H598 0.950 . S
C628 C627 1.524 . S
C628 C629 1.415 1_455 S
C629 H599 0.950 . S
C629 C624 1.363 . S
C629 C628 1.415 1_655 S
H630 C627 0.999 . S
H631 C612 0.913 . S
H632 C650 0.951 . S
H633 C652 0.951 . S
H634 C654 0.950 . S
H635 C655 0.950 . S
H636 C657 0.950 . S
H637 C660 0.950 . S
H638 C661 0.950 . S
H639 C663 0.950 1_455 S
H640 C664 0.950 . S
H641 C665 0.951 . S
H642 C667 0.951 . S
H643 C669 0.950 1_545 S
H644 C670 0.950 . S
H645 C672 0.950 . S
H646 C675 0.950 . S
H647 C676 0.950 . S
H648 C678 0.950 . S
H649 C679 0.950 . S
C650 H632 0.951 . S
C650 C651 1.366 . S
C650 C652 1.388 . S
C651 C650 1.366 . S
C651 C655 1.385 . S
C652 H633 0.951 . S
C652 C650 1.388 . S
C652 C653 1.366 . S
C653 C652 1.366 . S
C653 C654 1.414 . S
C653 C656 1.499 . S
C654 H634 0.950 . S
C654 C653 1.414 . S
C654 C655 1.374 . S
C655 H635 0.950 . S
C655 C651 1.385 . S
C655 C654 1.374 . S
C656 C653 1.499 . S
C656 C657 1.373 . S
C656 C658 1.389 . S
C657 H636 0.950 . S
C657 C656 1.373 . S
C657 C673 1.377 . S
C658 C656 1.389 . S
C658 C659 1.524 . S
C658 C672 1.377 . S
C659 C658 1.524 . S
C659 C660 1.397 . S
C659 C664 1.363 . S
C660 H637 0.950 . S
C660 C659 1.397 . S
C660 C661 1.334 . S
C661 H638 0.950 . S
C661 C660 1.334 . S
C661 C662 1.287 . S
C662 C661 1.287 . S
C662 C663 1.524 . S
C662 H681 0.913 . S
C663 H639 0.950 1_655 S
C663 C662 1.524 . S
C663 C664 1.415 . S
C664 H640 0.950 . S
C664 C659 1.363 . S
C664 C663 1.415 . S
C665 H641 0.951 . S
C665 C666 1.366 . S
C665 C667 1.388 . S
C666 C665 1.366 . S
C666 C670 1.385 . S
C667 H642 0.951 . S
C667 C665 1.388 . S
C667 C668 1.366 . S
C668 C667 1.366 . S
C668 C669 1.414 . S
C668 C671 1.499 1_565 S
C669 H643 0.950 1_565 S
C669 C668 1.414 . S
C669 C670 1.374 . S
C670 H644 0.950 . S
C670 C666 1.385 . S
C670 C669 1.374 . S
C671 C668 1.499 1_545 S
C671 C672 1.373 . S
C671 C673 1.389 . S
C672 H645 0.950 . S
C672 C658 1.377 . S
C672 C671 1.373 . S
C673 C657 1.377 . S
C673 C671 1.389 . S
C673 C674 1.524 . S
C674 C673 1.524 . S
C674 C675 1.397 . S
C674 C679 1.363 1_545 S
C675 H646 0.950 . S
C675 C674 1.397 . S
C675 C676 1.334 . S
C676 H647 0.950 . S
C676 C675 1.334 . S
C676 C677 1.287 1_545 S
C677 C676 1.287 1_565 S
C677 C678 1.524 . S
C677 H680 0.999 . S
C678 H648 0.950 . S
C678 C677 1.524 . S
C678 C679 1.415 . S
C679 H649 0.950 . S
C679 C674 1.363 1_565 S
C679 C678 1.415 . S
H680 C677 0.999 . S
H681 C662 0.913 . S
H682 C700 0.951 . S
H683 C702 0.951 . S
H684 C704 0.950 . S
H685 C705 0.950 . S
H686 C707 0.950 . S
H687 C710 0.950 . S
H688 C711 0.950 . S
H689 C713 0.950 . S
H690 C714 0.950 . S
H691 C715 0.951 . S
H692 C717 0.951 . S
H693 C719 0.950 . S
H694 C720 0.950 . S
H695 C722 0.950 . S
H696 C725 0.950 . S
H697 C726 0.950 . S
H698 C728 0.950 . S
H699 C729 0.950 . S
C700 H682 0.951 . S
C700 C701 1.366 . S
C700 C702 1.388 . S
C701 C700 1.366 . S
C701 C705 1.385 . S
C702 H683 0.951 . S
C702 C700 1.388 . S
C702 C703 1.366 . S
C703 C702 1.366 . S
C703 C704 1.414 . S
C703 C706 1.499 . S
C704 H684 0.950 . S
C704 C703 1.414 . S
C704 C705 1.374 . S
C705 H685 0.950 . S
C705 C701 1.385 . S
C705 C704 1.374 . S
C706 C703 1.499 . S
C706 C707 1.373 . S
C706 C708 1.389 . S
C707 H686 0.950 . S
C707 C706 1.373 . S
C707 C723 1.377 . S
C708 C706 1.389 . S
C708 C709 1.524 . S
C708 C722 1.377 . S
C709 C708 1.524 . S
C709 C710 1.397 . S
C709 C714 1.363 . S
C710 H687 0.950 . S
C710 C709 1.397 . S
C710 C711 1.334 . S
C711 H688 0.950 . S
C711 C710 1.334 . S
C711 C712 1.287 . S
C712 C711 1.287 . S
C712 C713 1.524 . S
C712 H731 0.913 . S
C713 H689 0.950 . S
C713 C712 1.524 . S
C713 C714 1.415 . S
C714 H690 0.950 . S
C714 C709 1.363 . S
C714 C713 1.415 . S
C715 H691 0.951 . S
C715 C716 1.366 . S
C715 C717 1.388 . S
C716 C715 1.366 . S
C716 C720 1.385 . S
C717 H692 0.951 . S
C717 C715 1.388 . S
C717 C718 1.366 . S
C718 C717 1.366 . S
C718 C719 1.414 . S
C718 C721 1.499 . S
C719 H693 0.950 . S
C719 C718 1.414 . S
C719 C720 1.374 . S
C720 H694 0.950 . S
C720 C716 1.385 . S
C720 C719 1.374 . S
C721 C718 1.499 . S
C721 C722 1.373 . S
C721 C723 1.389 . S
C722 H695 0.950 . S
C722 C708 1.377 . S
C722 C721 1.373 . S
C723 C707 1.377 . S
C723 C721 1.389 . S
C723 C724 1.524 . S
C724 C723 1.524 . S
C724 C725 1.397 . S
C724 C729 1.363 . S
C725 H696 0.950 . S
C725 C724 1.397 . S
C725 C726 1.334 . S
C726 H697 0.950 . S
C726 C725 1.334 . S
C726 C727 1.287 . S
C727 C726 1.287 . S
C727 C728 1.524 . S
C727 H730 0.999 . S
C728 H698 0.950 . S
C728 C727 1.524 . S
C728 C729 1.415 . S
C729 H699 0.950 . S
C729 C724 1.363 . S
C729 C728 1.415 . S
H730 C727 0.999 . S
H731 C712 0.913 . S
H732 C750 0.951 . S
H733 C752 0.951 . S
H734 C754 0.950 . S
H735 C755 0.950 . S
H736 C757 0.950 . S
H737 C760 0.950 . S
H738 C761 0.950 . S
H739 C763 0.950 . S
H740 C764 0.950 . S
H741 C765 0.951 . S
H742 C767 0.951 . S
H743 C769 0.950 . S
H744 C770 0.950 . S
H745 C772 0.950 . S
H746 C775 0.950 . S
H747 C776 0.950 . S
H748 C778 0.950 . S
H749 C779 0.950 . S
C750 H732 0.951 . S
C750 C751 1.366 . S
C750 C752 1.388 . S
C751 C750 1.366 . S
C751 C755 1.385 . S
C752 H733 0.951 . S
C752 C750 1.388 . S
C752 C753 1.366 . S
C753 C752 1.366 . S
C753 C754 1.414 . S
C753 C756 1.499 . S
C754 H734 0.950 . S
C754 C753 1.414 . S
C754 C755 1.374 . S
C755 H735 0.950 . S
C755 C751 1.385 . S
C755 C754 1.374 . S
C756 C753 1.499 . S
C756 C757 1.373 . S
C756 C758 1.389 . S
C757 H736 0.950 . S
C757 C756 1.373 . S
C757 C773 1.377 . S
C758 C756 1.389 . S
C758 C759 1.524 . S
C758 C772 1.377 . S
C759 C758 1.524 . S
C759 C760 1.397 . S
C759 C764 1.363 . S
C760 H737 0.950 . S
C760 C759 1.397 . S
C760 C761 1.334 . S
C761 H738 0.950 . S
C761 C760 1.334 . S
C761 C762 1.287 . S
C762 C761 1.287 . S
C762 C763 1.524 . S
C762 H781 0.913 . S
C763 H739 0.950 . S
C763 C762 1.524 . S
C763 C764 1.415 . S
C764 H740 0.950 . S
C764 C759 1.363 . S
C764 C763 1.415 . S
C765 H741 0.951 . S
C765 C766 1.366 . S
C765 C767 1.388 . S
C766 C765 1.366 . S
C766 C770 1.385 . S
C767 H742 0.951 . S
C767 C765 1.388 . S
C767 C768 1.366 . S
C768 C767 1.366 . S
C768 C769 1.414 . S
C768 C771 1.499 . S
C769 H743 0.950 . S
C769 C768 1.414 . S
C769 C770 1.374 . S
C770 H744 0.950 . S
C770 C766 1.385 . S
C770 C769 1.374 . S
C771 C768 1.499 . S
C771 C772 1.373 . S
C771 C773 1.389 . S
C772 H745 0.950 . S
C772 C758 1.377 . S
C772 C771 1.373 . S
C773 C757 1.377 . S
C773 C771 1.389 . S
C773 C774 1.524 . S
C774 C773 1.524 . S
C774 C775 1.397 . S
C774 C779 1.363 . S
C775 H746 0.950 . S
C775 C774 1.397 . S
C775 C776 1.334 . S
C776 H747 0.950 . S
C776 C775 1.334 . S
C776 C777 1.287 . S
C777 C776 1.287 . S
C777 C778 1.524 . S
C777 H780 0.999 . S
C778 H748 0.950 . S
C778 C777 1.524 . S
C778 C779 1.415 . S
C779 H749 0.950 . S
C779 C774 1.363 . S
C779 C778 1.415 . S
H780 C777 0.999 . S
H781 C762 0.913 . S
H782 C800 0.951 . S
H783 C802 0.951 . S
H784 C804 0.950 . S
H785 C805 0.950 . S
H786 C807 0.950 . S
H787 C810 0.950 . S
H788 C811 0.950 . S
H789 C813 0.950 . S
H790 C814 0.950 . S
H791 C815 0.951 . S
H792 C817 0.951 . S
H793 C819 0.950 . S
H794 C820 0.950 . S
H795 C822 0.950 . S
H796 C825 0.950 . S
H797 C826 0.950 . S
H798 C828 0.950 . S
H799 C829 0.950 . S
C800 H782 0.951 . S
C800 C801 1.366 . S
C800 C802 1.388 . S
C801 C800 1.366 . S
C801 C805 1.385 . S
C802 H783 0.951 . S
C802 C800 1.388 . S
C802 C803 1.366 . S
C803 C802 1.366 . S
C803 C804 1.414 . S
C803 C806 1.499 . S
C804 H784 0.950 . S
C804 C803 1.414 . S
C804 C805 1.374 . S
C805 H785 0.950 . S
C805 C801 1.385 . S
C805 C804 1.374 . S
C806 C803 1.499 . S
C806 C807 1.373 . S
C806 C808 1.389 . S
C807 H786 0.950 . S
C807 C806 1.373 . S
C807 C823 1.361 1_545 S
C808 C806 1.389 . S
C808 C809 1.524 . S
C808 C822 1.377 . S
C809 C808 1.524 . S
C809 C810 1.397 . S
C809 C814 1.363 . S
C810 H787 0.950 . S
C810 C809 1.397 . S
C810 C811 1.334 . S
C811 H788 0.950 . S
C811 C810 1.334 . S
C811 C812 1.287 . S
C812 C811 1.287 . S
C812 C813 1.524 . S
C812 H831 0.913 . S
C813 H789 0.950 . S
C813 C812 1.524 . S
C813 C814 1.415 . S
C814 H790 0.950 . S
C814 C809 1.363 . S
C814 C813 1.415 . S
C815 H791 0.951 . S
C815 C816 1.366 . S
C815 C817 1.388 . S
C816 C815 1.366 . S
C816 C820 1.385 . S
C817 H792 0.951 . S
C817 C815 1.388 . S
C817 C818 1.366 . S
C818 C817 1.366 . S
C818 C819 1.414 . S
C818 C821 1.499 1_565 S
C819 H793 0.950 . S
C819 C818 1.414 . S
C819 C820 1.374 . S
C820 H794 0.950 . S
C820 C816 1.385 . S
C820 C819 1.374 . S
C821 C818 1.499 1_545 S
C821 C822 1.373 . S
C821 C823 1.385 1_545 S
C822 H795 0.950 . S
C822 C808 1.377 . S
C822 C821 1.373 . S
C823 C807 1.361 1_565 S
C823 C821 1.385 1_565 S
C823 C824 1.545 . S
C824 C823 1.545 . S
C824 C825 1.397 . S
C824 C829 1.363 . S
C825 H796 0.950 . S
C825 C824 1.397 . S
C825 C826 1.334 . S
C826 H797 0.950 . S
C826 C825 1.334 . S
C826 C827 1.287 . S
C827 C826 1.287 . S
C827 C828 1.524 . S
C827 H830 0.999 . S
C828 H798 0.950 . S
C828 C827 1.524 . S
C828 C829 1.415 . S
C829 H799 0.950 . S
C829 C824 1.363 . S
C829 C828 1.415 . S
H830 C827 0.999 . S
H831 C812 0.913 . S
H832 C850 0.951 . S
H833 C852 0.951 . S
H834 C854 0.950 . S
H835 C855 0.950 . S
H836 C857 0.950 . S
H837 C860 0.950 . S
H838 C861 0.950 . S
H839 C863 0.950 . S
H840 C864 0.950 . S
H841 C865 0.951 . S
H842 C867 0.951 . S
H843 C869 0.950 . S
H844 C870 0.950 . S
H845 C872 0.950 . S
H846 C875 0.950 . S
H847 C876 0.950 . S
H848 C878 0.950 . S
H849 C879 0.950 . S
C850 H832 0.951 . S
C850 C851 1.366 . S
C850 C852 1.388 . S
C851 C850 1.366 . S
C851 C855 1.385 . S
C852 H833 0.951 . S
C852 C850 1.388 . S
C852 C853 1.366 . S
C853 C852 1.366 . S
C853 C854 1.414 . S
C853 C856 1.499 1_556 S
C854 H834 0.950 . S
C854 C853 1.414 . S
C854 C855 1.374 . S
C855 H835 0.950 . S
C855 C851 1.385 . S
C855 C854 1.374 . S
C856 C853 1.499 1_554 S
C856 C857 1.373 . S
C856 C858 1.389 . S
C857 H836 0.950 . S
C857 C856 1.373 . S
C857 C873 1.377 . S
C858 C856 1.389 . S
C858 C859 1.524 . S
C858 C872 1.377 . S
C859 C858 1.524 . S
C859 C860 1.397 . S
C859 C864 1.363 . S
C860 H837 0.950 . S
C860 C859 1.397 . S
C860 C861 1.334 . S
C861 H838 0.950 . S
C861 C860 1.334 . S
C861 C862 1.287 . S
C862 C861 1.287 . S
C862 C863 1.524 . S
C862 H881 0.913 . S
C863 H839 0.950 . S
C863 C862 1.524 . S
C863 C864 1.415 . S
C864 H840 0.950 . S
C864 C859 1.363 . S
C864 C863 1.415 . S
C865 H841 0.951 . S
C865 C866 1.366 . S
C865 C867 1.388 . S
C866 C865 1.366 . S
C866 C870 1.385 . S
C867 H842 0.951 . S
C867 C865 1.388 . S
C867 C868 1.366 . S
C868 C867 1.366 . S
C868 C869 1.414 . S
C868 C871 1.499 . S
C869 H843 0.950 . S
C869 C868 1.414 . S
C869 C870 1.374 . S
C870 H844 0.950 . S
C870 C866 1.385 . S
C870 C869 1.374 . S
C871 C868 1.499 . S
C871 C872 1.373 . S
C871 C873 1.389 . S
C872 H845 0.950 . S
C872 C858 1.377 . S
C872 C871 1.373 . S
C873 C857 1.377 . S
C873 C871 1.389 . S
C873 C874 1.524 . S
C874 C873 1.524 . S
C874 C875 1.397 . S
C874 C879 1.363 . S
C875 H846 0.950 . S
C875 C874 1.397 . S
C875 C876 1.334 . S
C876 H847 0.950 . S
C876 C875 1.334 . S
C876 C877 1.287 . S
C877 C876 1.287 . S
C877 C878 1.524 . S
C877 H880 0.999 . S
C878 H848 0.950 . S
C878 C877 1.524 . S
C878 C879 1.415 . S
C879 H849 0.950 . S
C879 C874 1.363 . S
C879 C878 1.415 . S
H880 C877 0.999 . S
H881 C862 0.913 . S
H882 C900 0.951 . S
H883 C902 0.951 . S
H884 C904 0.950 . S
H885 C905 0.950 . S
H886 C907 0.950 . S
H887 C910 0.950 . S
H888 C911 0.950 . S
H889 C913 0.950 . S
H890 C914 0.950 . S
H891 C915 0.951 . S
H892 C917 0.951 . S
H893 C919 0.950 . S
H894 C920 0.950 . S
H895 C922 0.950 . S
H896 C925 0.950 . S
H897 C926 0.950 . S
H898 C928 0.950 . S
H899 C929 0.950 . S
C900 H882 0.951 . S
C900 C901 1.366 . S
C900 C902 1.388 . S
C901 C900 1.366 . S
C901 C905 1.385 . S
C902 H883 0.951 . S
C902 C900 1.388 . S
C902 C903 1.366 . S
C903 C902 1.366 . S
C903 C904 1.414 . S
C903 C906 1.499 . S
C904 H884 0.950 . S
C904 C903 1.414 . S
C904 C905 1.374 . S
C905 H885 0.950 . S
C905 C901 1.385 . S
C905 C904 1.374 . S
C906 C903 1.499 . S
C906 C907 1.373 . S
C906 C908 1.389 . S
C907 H886 0.950 . S
C907 C906 1.373 . S
C907 C923 1.377 . S
C908 C906 1.389 . S
C908 C909 1.524 . S
C908 C922 1.377 . S
C909 C908 1.524 . S
C909 C910 1.397 . S
C909 C914 1.363 . S
C910 H887 0.950 . S
C910 C909 1.397 . S
C910 C911 1.334 . S
C911 H888 0.950 . S
C911 C910 1.334 . S
C911 C912 1.287 . S
C912 C911 1.287 . S
C912 C913 1.524 . S
C912 H931 0.913 . S
C913 H889 0.950 . S
C913 C912 1.524 . S
C913 C914 1.415 . S
C914 H890 0.950 . S
C914 C909 1.363 . S
C914 C913 1.415 . S
C915 H891 0.951 . S
C915 C916 1.366 . S
C915 C917 1.388 . S
C916 C915 1.366 . S
C916 C920 1.385 . S
C917 H892 0.951 . S
C917 C915 1.388 . S
C917 C918 1.366 . S
C918 C917 1.366 . S
C918 C919 1.414 . S
C918 C921 1.499 . S
C919 H893 0.950 . S
C919 C918 1.414 . S
C919 C920 1.374 . S
C920 H894 0.950 . S
C920 C916 1.385 . S
C920 C919 1.374 . S
C921 C918 1.499 . S
C921 C922 1.373 . S
C921 C923 1.389 . S
C922 H895 0.950 . S
C922 C908 1.377 . S
C922 C921 1.373 . S
C923 C907 1.377 . S
C923 C921 1.389 . S
C923 C924 1.524 . S
C924 C923 1.524 . S
C924 C925 1.397 . S
C924 C929 1.363 . S
C925 H896 0.950 . S
C925 C924 1.397 . S
C925 C926 1.334 . S
C926 H897 0.950 . S
C926 C925 1.334 . S
C926 C927 1.287 . S
C927 C926 1.287 . S
C927 C928 1.524 . S
C927 H930 0.999 . S
C928 H898 0.950 . S
C928 C927 1.524 . S
C928 C929 1.415 . S
C929 H899 0.950 . S
C929 C924 1.363 . S
C929 C928 1.415 . S
H930 C927 0.999 . S
H931 C912 0.913 . S
H932 C950 0.951 . S
H933 C952 0.951 1_556 S
H934 C954 0.950 . S
H935 C955 0.950 . S
H936 C957 0.950 . S
H937 C960 0.950 1_554 S
H938 C961 0.950 . S
H939 C963 0.950 . S
H940 C964 0.950 . S
H941 C965 0.951 . S
H942 C967 0.951 . S
H943 C969 0.950 . S
H944 C970 0.950 . S
H945 C972 0.950 . S
H946 C975 0.950 . S
H947 C976 0.950 . S
H948 C978 0.950 . S
H949 C979 0.950 . S
C950 H932 0.951 . S
C950 C951 1.366 . S
C950 C952 1.388 . S
C951 C950 1.366 . S
C951 C955 1.385 . S
C952 H933 0.951 1_554 S
C952 C950 1.388 . S
C952 C953 1.366 . S
C953 C952 1.366 . S
C953 C954 1.414 . S
C953 C956 1.499 1_554 S
C954 H934 0.950 . S
C954 C953 1.414 . S
C954 C955 1.374 . S
C955 H935 0.950 . S
C955 C951 1.385 . S
C955 C954 1.374 . S
C956 C953 1.499 1_556 S
C956 C957 1.373 . S
C956 C958 1.389 . S
C957 H936 0.950 . S
C957 C956 1.373 . S
C957 C973 1.377 . S
C958 C956 1.389 . S
C958 C959 1.524 . S
C958 C972 1.377 . S
C959 C958 1.524 . S
C959 C960 1.397 . S
C959 C964 1.363 . S
C960 H937 0.950 1_556 S
C960 C959 1.397 . S
C960 C961 1.334 1_556 S
C961 H938 0.950 . S
C961 C960 1.334 1_554 S
C961 C962 1.287 1_554 S
C962 C961 1.287 1_556 S
C962 C963 1.524 . S
C962 H981 0.913 . S
C963 H939 0.950 . S
C963 C962 1.524 . S
C963 C964 1.415 . S
C964 H940 0.950 . S
C964 C959 1.363 . S
C964 C963 1.415 . S
C965 H941 0.951 . S
C965 C966 1.366 . S
C965 C967 1.388 . S
C966 C965 1.366 . S
C966 C970 1.385 . S
C967 H942 0.951 . S
C967 C965 1.388 . S
C967 C968 1.366 . S
C968 C967 1.366 . S
C968 C969 1.414 . S
C968 C971 1.499 . S
C969 H943 0.950 . S
C969 C968 1.414 . S
C969 C970 1.374 . S
C970 H944 0.950 . S
C970 C966 1.385 . S
C970 C969 1.374 . S
C971 C968 1.499 . S
C971 C972 1.373 . S
C971 C973 1.389 . S
C972 H945 0.950 . S
C972 C958 1.377 . S
C972 C971 1.373 . S
C973 C957 1.377 . S
C973 C971 1.389 . S
C973 C974 1.524 . S
C974 C973 1.524 . S
C974 C975 1.397 . S
C974 C979 1.363 . S
C975 H946 0.950 . S
C975 C974 1.397 . S
C975 C976 1.334 . S
C976 H947 0.950 . S
C976 C975 1.334 . S
C976 C977 1.287 . S
C977 C976 1.287 . S
C977 C978 1.524 . S
C977 H980 0.999 . S
C978 H948 0.950 . S
C978 C977 1.524 . S
C978 C979 1.415 . S
C979 H949 0.950 . S
C979 C974 1.363 . S
C979 C978 1.415 . S
H980 C977 0.999 . S
H981 C962 0.913 . S
H982 C1000 0.951 . S
H983 C1002 0.951 . S
H984 C1004 0.950 . S
H985 C1005 0.950 . S
H986 C1007 0.950 . S
H987 C1010 0.950 . S
H988 C1011 0.950 . S
H989 C1013 0.950 . S
H990 C1014 0.950 . S
H991 C1015 0.951 . S
H992 C1017 0.951 . S
H993 C1019 0.950 . S
H994 C1020 0.950 . S
H995 C1022 0.950 . S
H996 C1025 0.950 . S
H997 C1026 0.950 . S
H998 C1028 0.950 . S
H999 C1029 0.950 . S
C1000 H982 0.951 . S
C1000 C1001 1.366 . S
C1000 C1002 1.388 . S
C1001 C1000 1.366 . S
C1001 C1005 1.385 . S
C1002 H983 0.951 . S
C1002 C1000 1.388 . S
C1002 C1003 1.366 . S
C1003 C1002 1.366 . S
C1003 C1004 1.414 . S
C1003 C1006 1.499 . S
C1004 H984 0.950 . S
C1004 C1003 1.414 . S
C1004 C1005 1.374 . S
C1005 H985 0.950 . S
C1005 C1001 1.385 . S
C1005 C1004 1.374 . S
C1006 C1003 1.499 . S
C1006 C1007 1.373 . S
C1006 C1008 1.389 . S
C1007 H986 0.950 . S
C1007 C1006 1.373 . S
C1007 C1023 1.377 . S
C1008 C1006 1.389 . S
C1008 C1009 1.524 . S
C1008 C1022 1.377 . S
C1009 C1008 1.524 . S
C1009 C1010 1.397 . S
C1009 C1014 1.363 . S
C1010 H987 0.950 . S
C1010 C1009 1.397 . S
C1010 C1011 1.334 . S
C1011 H988 0.950 . S
C1011 C1010 1.334 . S
C1011 C1012 1.287 . S
C1012 C1011 1.287 . S
C1012 C1013 1.524 . S
C1012 H1031 0.913 . S
C1013 H989 0.950 . S
C1013 C1012 1.524 . S
C1013 C1014 1.415 . S
C1014 H990 0.950 . S
C1014 C1009 1.363 . S
C1014 C1013 1.415 . S
C1015 H991 0.951 . S
C1015 C1016 1.366 . S
C1015 C1017 1.388 . S
C1016 C1015 1.366 . S
C1016 C1020 1.385 . S
C1017 H992 0.951 . S
C1017 C1015 1.388 . S
C1017 C1018 1.366 . S
C1018 C1017 1.366 . S
C1018 C1019 1.414 . S
C1018 C1021 1.499 . S
C1019 H993 0.950 . S
C1019 C1018 1.414 . S
C1019 C1020 1.374 . S
C1020 H994 0.950 . S
C1020 C1016 1.385 . S
C1020 C1019 1.374 . S
C1021 C1018 1.499 . S
C1021 C1022 1.373 . S
C1021 C1023 1.389 . S
C1022 H995 0.950 . S
C1022 C1008 1.377 . S
C1022 C1021 1.373 . S
C1023 C1007 1.377 . S
C1023 C1021 1.389 . S
C1023 C1024 1.524 . S
C1024 C1023 1.524 . S
C1024 C1025 1.397 . S
C1024 C1029 1.363 . S
C1025 H996 0.950 . S
C1025 C1024 1.397 . S
C1025 C1026 1.334 . S
C1026 H997 0.950 . S
C1026 C1025 1.334 . S
C1026 C1027 1.287 . S
C1027 C1026 1.287 . S
C1027 C1028 1.524 . S
C1027 H1030 0.999 . S
C1028 H998 0.950 . S
C1028 C1027 1.524 . S
C1028 C1029 1.415 . S
C1029 H999 0.950 . S
C1029 C1024 1.363 . S
C1029 C1028 1.415 . S
H1030 C1027 0.999 . S
H1031 C1012 0.913 . S
H1032 C1050 0.951 . S
H1033 C1052 0.951 1_556 S
H1034 C1054 0.950 . S
H1035 C1055 0.950 . S
H1036 C1057 0.950 . S
H1037 C1060 0.950 1_554 S
H1038 C1061 0.950 . S
H1039 C1063 0.950 . S
H1040 C1064 0.950 . S
H1041 C1065 0.951 . S
H1042 C1067 0.951 . S
H1043 C1069 0.950 . S
H1044 C1070 0.950 . S
H1045 C1072 0.950 . S
H1046 C1075 0.950 . S
H1047 C1076 0.950 . S
H1048 C1078 0.950 . S
H1049 C1079 0.950 . S
C1050 H1032 0.951 . S
C1050 C1051 1.366 . S
C1050 C1052 1.388 . S
C1051 C1050 1.366 . S
C1051 C1055 1.385 . S
C1052 H1033 0.951 1_554 S
C1052 C1050 1.388 . S
C1052 C1053 1.366 . S
C1053 C1052 1.366 . S
C1053 C1054 1.414 . S
C1053 C1056 1.499 1_554 S
C1054 H1034 0.950 . S
C1054 C1053 1.414 . S
C1054 C1055 1.374 . S
C1055 H1035 0.950 . S
C1055 C1051 1.385 . S
C1055 C1054 1.374 . S
C1056 C1053 1.499 1_556 S
C1056 C1057 1.373 . S
C1056 C1058 1.389 . S
C1057 H1036 0.950 . S
C1057 C1056 1.373 . S
C1057 C1073 1.377 . S
C1058 C1056 1.389 . S
C1058 C1059 1.524 . S
C1058 C1072 1.377 . S
C1059 C1058 1.524 . S
C1059 C1060 1.397 . S
C1059 C1064 1.363 . S
C1060 H1037 0.950 1_556 S
C1060 C1059 1.397 . S
C1060 C1061 1.334 1_556 S
C1061 H1038 0.950 . S
C1061 C1060 1.334 1_554 S
C1061 C1062 1.287 1_554 S
C1062 C1061 1.287 1_556 S
C1062 C1063 1.524 . S
C1062 H1081 0.913 1_556 S
C1063 H1039 0.950 . S
C1063 C1062 1.524 . S
C1063 C1064 1.415 . S
C1064 H1040 0.950 . S
C1064 C1059 1.363 . S
C1064 C1063 1.415 . S
C1065 H1041 0.951 . S
C1065 C1066 1.366 . S
C1065 C1067 1.388 . S
C1066 C1065 1.366 . S
C1066 C1070 1.385 . S
C1067 H1042 0.951 . S
C1067 C1065 1.388 . S
C1067 C1068 1.366 . S
C1068 C1067 1.366 . S
C1068 C1069 1.414 . S
C1068 C1071 1.499 . S
C1069 H1043 0.950 . S
C1069 C1068 1.414 . S
C1069 C1070 1.374 . S
C1070 H1044 0.950 . S
C1070 C1066 1.385 . S
C1070 C1069 1.374 . S
C1071 C1068 1.499 . S
C1071 C1072 1.373 . S
C1071 C1073 1.389 . S
C1072 H1045 0.950 . S
C1072 C1058 1.377 . S
C1072 C1071 1.373 . S
C1073 C1057 1.377 . S
C1073 C1071 1.389 . S
C1073 C1074 1.524 . S
C1074 C1073 1.524 . S
C1074 C1075 1.397 . S
C1074 C1079 1.363 . S
C1075 H1046 0.950 . S
C1075 C1074 1.397 . S
C1075 C1076 1.334 . S
C1076 H1047 0.950 . S
C1076 C1075 1.334 . S
C1076 C1077 1.287 . S
C1077 C1076 1.287 . S
C1077 C1078 1.524 . S
C1077 H1080 0.999 . S
C1078 H1048 0.950 . S
C1078 C1077 1.524 . S
C1078 C1079 1.415 . S
C1079 H1049 0.950 . S
C1079 C1074 1.363 . S
C1079 C1078 1.415 . S
H1080 C1077 0.999 . S
H1081 C1062 0.913 1_554 S
H1082 C1100 0.951 . S
H1083 C1102 0.951 . S
H1084 C1104 0.950 . S
H1085 C1105 0.950 . S
H1086 C1107 0.950 . S
H1087 C1110 0.950 . S
H1088 C1111 0.950 . S
H1089 C1113 0.950 . S
H1090 C1114 0.950 . S
H1091 C1115 0.951 . S
H1092 C1117 0.951 . S
H1093 C1119 0.950 . S
H1094 C1120 0.950 . S
H1095 C1122 0.950 . S
H1096 C1125 0.950 . S
H1097 C1126 0.950 . S
H1098 C1128 0.950 . S
H1099 C1129 0.950 . S
C1100 H1082 0.951 . S
C1100 C1101 1.366 . S
C1100 C1102 1.388 . S
C1101 C1100 1.366 . S
C1101 C1105 1.385 . S
C1102 H1083 0.951 . S
C1102 C1100 1.388 . S
C1102 C1103 1.366 . S
C1103 C1102 1.366 . S
C1103 C1104 1.414 . S
C1103 C1106 1.499 . S
C1104 H1084 0.950 . S
C1104 C1103 1.414 . S
C1104 C1105 1.374 . S
C1105 H1085 0.950 . S
C1105 C1101 1.385 . S
C1105 C1104 1.374 . S
C1106 C1103 1.499 . S
C1106 C1107 1.373 . S
C1106 C1108 1.389 . S
C1107 H1086 0.950 . S
C1107 C1106 1.373 . S
C1107 C1123 1.377 . S
C1108 C1106 1.389 . S
C1108 C1109 1.524 . S
C1108 C1122 1.377 . S
C1109 C1108 1.524 . S
C1109 C1110 1.397 . S
C1109 C1114 1.363 . S
C1110 H1087 0.950 . S
C1110 C1109 1.397 . S
C1110 C1111 1.334 . S
C1111 H1088 0.950 . S
C1111 C1110 1.334 . S
C1111 C1112 1.287 . S
C1112 C1111 1.287 . S
C1112 C1113 1.524 . S
C1112 H1131 0.913 . S
C1113 H1089 0.950 . S
C1113 C1112 1.524 . S
C1113 C1114 1.415 . S
C1114 H1090 0.950 . S
C1114 C1109 1.363 . S
C1114 C1113 1.415 . S
C1115 H1091 0.951 . S
C1115 C1116 1.366 . S
C1115 C1117 1.388 . S
C1116 C1115 1.366 . S
C1116 C1120 1.385 . S
C1117 H1092 0.951 . S
C1117 C1115 1.388 . S
C1117 C1118 1.366 . S
C1118 C1117 1.366 . S
C1118 C1119 1.414 . S
C1118 C1121 1.499 . S
C1119 H1093 0.950 . S
C1119 C1118 1.414 . S
C1119 C1120 1.374 . S
C1120 H1094 0.950 . S
C1120 C1116 1.385 . S
C1120 C1119 1.374 . S
C1121 C1118 1.499 . S
C1121 C1122 1.373 . S
C1121 C1123 1.389 . S
C1122 H1095 0.950 . S
C1122 C1108 1.377 . S
C1122 C1121 1.373 . S
C1123 C1107 1.377 . S
C1123 C1121 1.389 . S
C1123 C1124 1.524 . S
C1124 C1123 1.524 . S
C1124 C1125 1.397 . S
C1124 C1129 1.363 . S
C1125 H1096 0.950 . S
C1125 C1124 1.397 . S
C1125 C1126 1.334 . S
C1126 H1097 0.950 . S
C1126 C1125 1.334 . S
C1126 C1127 1.287 . S
C1127 C1126 1.287 . S
C1127 C1128 1.524 . S
C1127 H1130 0.999 . S
C1128 H1098 0.950 . S
C1128 C1127 1.524 . S
C1128 C1129 1.415 . S
C1129 H1099 0.950 . S
C1129 C1124 1.363 . S
C1129 C1128 1.415 . S
H1130 C1127 0.999 . S
H1131 C1112 0.913 . S
H1132 C1150 0.951 . S
H1133 C1152 0.951 . S
H1134 C1154 0.950 . S
H1135 C1155 0.950 . S
H1136 C1157 0.950 . S
H1137 C1160 0.950 . S
H1138 C1161 0.950 . S
H1139 C1163 0.950 . S
H1140 C1164 0.950 . S
H1141 C1165 0.951 . S
H1142 C1167 0.951 . S
H1143 C1169 0.950 . S
H1144 C1170 0.950 . S
H1145 C1172 0.950 . S
H1146 C1175 0.950 . S
H1147 C1176 0.950 . S
H1148 C1178 0.950 . S
H1149 C1179 0.950 . S
C1150 H1132 0.951 . S
C1150 C1151 1.366 . S
C1150 C1152 1.388 . S
C1151 C1150 1.366 . S
C1151 C1155 1.385 . S
C1152 H1133 0.951 . S
C1152 C1150 1.388 . S
C1152 C1153 1.366 . S
C1153 C1152 1.366 . S
C1153 C1154 1.414 . S
C1153 C1156 1.499 1_556 S
C1154 H1134 0.950 . S
C1154 C1153 1.414 . S
C1154 C1155 1.374 . S
C1155 H1135 0.950 . S
C1155 C1151 1.385 . S
C1155 C1154 1.374 . S
C1156 C1153 1.499 1_554 S
C1156 C1157 1.373 . S
C1156 C1158 1.389 . S
C1157 H1136 0.950 . S
C1157 C1156 1.373 . S
C1157 C1173 1.377 . S
C1158 C1156 1.389 . S
C1158 C1159 1.524 . S
C1158 C1172 1.377 . S
C1159 C1158 1.524 . S
C1159 C1160 1.397 . S
C1159 C1164 1.363 . S
C1160 H1137 0.950 . S
C1160 C1159 1.397 . S
C1160 C1161 1.334 . S
C1161 H1138 0.950 . S
C1161 C1160 1.334 . S
C1161 C1162 1.287 . S
C1162 C1161 1.287 . S
C1162 C1163 1.524 . S
C1162 H1181 0.913 . S
C1163 H1139 0.950 . S
C1163 C1162 1.524 . S
C1163 C1164 1.415 . S
C1164 H1140 0.950 . S
C1164 C1159 1.363 . S
C1164 C1163 1.415 . S
C1165 H1141 0.951 . S
C1165 C1166 1.366 . S
C1165 C1167 1.388 . S
C1166 C1165 1.366 . S
C1166 C1170 1.385 . S
C1167 H1142 0.951 . S
C1167 C1165 1.388 . S
C1167 C1168 1.366 . S
C1168 C1167 1.366 . S
C1168 C1169 1.414 . S
C1168 C1171 1.499 . S
C1169 H1143 0.950 . S
C1169 C1168 1.414 . S
C1169 C1170 1.374 . S
C1170 H1144 0.950 . S
C1170 C1166 1.385 . S
C1170 C1169 1.374 . S
C1171 C1168 1.499 . S
C1171 C1172 1.373 . S
C1171 C1173 1.389 . S
C1172 H1145 0.950 . S
C1172 C1158 1.377 . S
C1172 C1171 1.373 . S
C1173 C1157 1.377 . S
C1173 C1171 1.389 . S
C1173 C1174 1.524 . S
C1174 C1173 1.524 . S
C1174 C1175 1.397 . S
C1174 C1179 1.363 . S
C1175 H1146 0.950 . S
C1175 C1174 1.397 . S
C1175 C1176 1.334 . S
C1176 H1147 0.950 . S
C1176 C1175 1.334 . S
C1176 C1177 1.287 . S
C1177 C1176 1.287 . S
C1177 C1178 1.524 . S
C1177 H1180 0.999 . S
C1178 H1148 0.950 . S
C1178 C1177 1.524 . S
C1178 C1179 1.415 . S
C1179 H1149 0.950 . S
C1179 C1174 1.363 . S
C1179 C1178 1.415 . S
H1180 C1177 0.999 . S
H1181 C1162 0.913 . S
H1182 C1200 0.951 . S
H1183 C1202 0.951 . S
H1184 C1204 0.950 . S
H1185 C1205 0.950 . S
H1186 C1207 0.950 . S
H1187 C1210 0.950 . S
H1188 C1211 0.950 . S
H1189 C1213 0.950 . S
H1190 C1214 0.950 . S
H1191 C1215 0.951 . S
H1192 C1217 0.951 . S
H1193 C1219 0.950 . S
H1194 C1220 0.950 . S
H1195 C1222 0.950 . S
H1196 C1225 0.950 . S
H1197 C1226 0.950 . S
H1198 C1228 0.950 . S
H1199 C1229 0.950 . S
C1200 H1182 0.951 . S
C1200 C1201 1.366 . S
C1200 C1202 1.388 . S
C1201 C1200 1.366 . S
C1201 C1205 1.385 . S
C1202 H1183 0.951 . S
C1202 C1200 1.388 . S
C1202 C1203 1.366 . S
C1203 C1202 1.366 . S
C1203 C1204 1.414 . S
C1203 C1206 1.499 . S
C1204 H1184 0.950 . S
C1204 C1203 1.414 . S
C1204 C1205 1.374 . S
C1205 H1185 0.950 . S
C1205 C1201 1.385 . S
C1205 C1204 1.374 . S
C1206 C1203 1.499 . S
C1206 C1207 1.373 . S
C1206 C1208 1.389 . S
C1207 H1186 0.950 . S
C1207 C1206 1.373 . S
C1207 C1223 1.377 . S
C1208 C1206 1.389 . S
C1208 C1209 1.524 . S
C1208 C1222 1.377 . S
C1209 C1208 1.524 . S
C1209 C1210 1.397 . S
C1209 C1214 1.363 . S
C1210 H1187 0.950 . S
C1210 C1209 1.397 . S
C1210 C1211 1.334 . S
C1211 H1188 0.950 . S
C1211 C1210 1.334 . S
C1211 C1212 1.287 . S
C1212 C1211 1.287 . S
C1212 C1213 1.524 . S
C1212 H1231 0.913 . S
C1213 H1189 0.950 . S
C1213 C1212 1.524 . S
C1213 C1214 1.415 . S
C1214 H1190 0.950 . S
C1214 C1209 1.363 . S
C1214 C1213 1.415 . S
C1215 H1191 0.951 . S
C1215 C1216 1.366 . S
C1215 C1217 1.388 . S
C1216 C1215 1.366 . S
C1216 C1220 1.385 . S
C1217 H1192 0.951 . S
C1217 C1215 1.388 . S
C1217 C1218 1.366 . S
C1218 C1217 1.366 . S
C1218 C1219 1.414 . S
C1218 C1221 1.499 . S
C1219 H1193 0.950 . S
C1219 C1218 1.414 . S
C1219 C1220 1.374 . S
C1220 H1194 0.950 . S
C1220 C1216 1.385 . S
C1220 C1219 1.374 . S
C1221 C1218 1.499 . S
C1221 C1222 1.373 . S
C1221 C1223 1.389 . S
C1222 H1195 0.950 . S
C1222 C1208 1.377 . S
C1222 C1221 1.373 . S
C1223 C1207 1.377 . S
C1223 C1221 1.389 . S
C1223 C1224 1.524 . S
C1224 C1223 1.524 . S
C1224 C1225 1.397 . S
C1224 C1229 1.363 . S
C1225 H1196 0.950 . S
C1225 C1224 1.397 . S
C1225 C1226 1.334 . S
C1226 H1197 0.950 . S
C1226 C1225 1.334 . S
C1226 C1227 1.287 . S
C1227 C1226 1.287 . S
C1227 C1228 1.524 . S
C1227 H1230 0.999 . S
C1228 H1198 0.950 . S
C1228 C1227 1.524 . S
C1228 C1229 1.415 . S
C1229 H1199 0.950 . S
C1229 C1224 1.363 . S
C1229 C1228 1.415 . S
H1230 C1227 0.999 . S
H1231 C1212 0.913 . S
H1232 C1250 0.951 . S
H1233 C1252 0.951 . S
H1234 C1254 0.950 . S
H1235 C1255 0.950 . S
H1236 C1257 0.950 . S
H1237 C1260 0.950 . S
H1238 C1261 0.950 . S
H1239 C1263 0.950 . S
H1240 C1264 0.950 . S
H1241 C1265 0.951 . S
H1242 C1267 0.951 . S
H1243 C1269 0.950 . S
H1244 C1270 0.950 . S
H1245 C1272 0.950 . S
H1246 C1275 0.950 . S
H1247 C1276 0.950 . S
H1248 C1278 0.950 . S
H1249 C1279 0.950 . S
C1250 H1232 0.951 . S
C1250 C1251 1.366 . S
C1250 C1252 1.388 . S
C1251 C1250 1.366 . S
C1251 C1255 1.385 . S
C1252 H1233 0.951 . S
C1252 C1250 1.388 . S
C1252 C1253 1.366 . S
C1253 C1252 1.366 . S
C1253 C1254 1.414 . S
C1253 C1256 1.499 . S
C1254 H1234 0.950 . S
C1254 C1253 1.414 . S
C1254 C1255 1.374 . S
C1255 H1235 0.950 . S
C1255 C1251 1.385 . S
C1255 C1254 1.374 . S
C1256 C1253 1.499 . S
C1256 C1257 1.373 . S
C1256 C1258 1.389 . S
C1257 H1236 0.950 . S
C1257 C1256 1.373 . S
C1257 C1273 1.377 . S
C1258 C1256 1.389 . S
C1258 C1259 1.524 . S
C1258 C1272 1.377 . S
C1259 C1258 1.524 . S
C1259 C1260 1.397 . S
C1259 C1264 1.363 . S
C1260 H1237 0.950 . S
C1260 C1259 1.397 . S
C1260 C1261 1.334 . S
C1261 H1238 0.950 . S
C1261 C1260 1.334 . S
C1261 C1262 1.287 . S
C1262 C1261 1.287 . S
C1262 C1263 1.524 . S
C1262 H1281 0.913 . S
C1263 H1239 0.950 . S
C1263 C1262 1.524 . S
C1263 C1264 1.415 . S
C1264 H1240 0.950 . S
C1264 C1259 1.363 . S
C1264 C1263 1.415 . S
C1265 H1241 0.951 . S
C1265 C1266 1.366 . S
C1265 C1267 1.388 . S
C1266 C1265 1.366 . S
C1266 C1270 1.385 . S
C1267 H1242 0.951 . S
C1267 C1265 1.388 . S
C1267 C1268 1.366 . S
C1268 C1267 1.366 . S
C1268 C1269 1.414 . S
C1268 C1271 1.499 . S
C1269 H1243 0.950 . S
C1269 C1268 1.414 . S
C1269 C1270 1.374 . S
C1270 H1244 0.950 . S
C1270 C1266 1.385 . S
C1270 C1269 1.374 . S
C1271 C1268 1.499 . S
C1271 C1272 1.373 . S
C1271 C1273 1.389 . S
C1272 H1245 0.950 . S
C1272 C1258 1.377 . S
C1272 C1271 1.373 . S
C1273 C1257 1.377 . S
C1273 C1271 1.389 . S
C1273 C1274 1.524 . S
C1274 C1273 1.524 . S
C1274 C1275 1.397 . S
C1274 C1279 1.363 . S
C1275 H1246 0.950 . S
C1275 C1274 1.397 . S
C1275 C1276 1.334 . S
C1276 H1247 0.950 . S
C1276 C1275 1.334 . S
C1276 C1277 1.287 . S
C1277 C1276 1.287 . S
C1277 C1278 1.524 . S
C1277 H1280 0.999 . S
C1278 H1248 0.950 . S
C1278 C1277 1.524 . S
C1278 C1279 1.415 . S
C1279 H1249 0.950 . S
C1279 C1274 1.363 . S
C1279 C1278 1.415 . S
H1280 C1277 0.999 . S
H1281 C1262 0.913 . S
H1282 C1300 0.951 . S
H1283 C1302 0.951 . S
H1284 C1304 0.950 . S
H1285 C1305 0.950 . S
H1286 C1307 0.950 . S
H1287 C1310 0.950 . S
H1288 C1311 0.950 . S
H1289 C1313 0.950 . S
H1290 C1314 0.950 . S
H1291 C1315 0.951 . S
H1292 C1317 0.951 . S
H1293 C1319 0.950 . S
H1294 C1320 0.950 . S
H1295 C1322 0.950 . S
H1296 C1325 0.950 . S
H1297 C1326 0.950 . S
H1298 C1328 0.950 . S
H1299 C1329 0.950 . S
C1300 H1282 0.951 . S
C1300 C1301 1.366 . S
C1300 C1302 1.388 . S
C1301 C1300 1.366 . S
C1301 C1305 1.385 . S
C1302 H1283 0.951 . S
C1302 C1300 1.388 . S
C1302 C1303 1.366 . S
C1303 C1302 1.366 . S
C1303 C1304 1.414 . S
C1303 C1306 1.499 . S
C1304 H1284 0.950 . S
C1304 C1303 1.414 . S
C1304 C1305 1.374 . S
C1305 H1285 0.950 . S
C1305 C1301 1.385 . S
C1305 C1304 1.374 . S
C1306 C1303 1.499 . S
C1306 C1307 1.373 . S
C1306 C1308 1.389 . S
C1307 H1286 0.950 . S
C1307 C1306 1.373 . S
C1307 C1323 1.377 . S
C1308 C1306 1.389 . S
C1308 C1309 1.524 . S
C1308 C1322 1.377 . S
C1309 C1308 1.524 . S
C1309 C1310 1.397 . S
C1309 C1314 1.363 . S
C1310 H1287 0.950 . S
C1310 C1309 1.397 . S
C1310 C1311 1.334 . S
C1311 H1288 0.950 . S
C1311 C1310 1.334 . S
C1311 C1312 1.287 . S
C1312 C1311 1.287 . S
C1312 C1313 1.524 . S
C1312 H1331 0.913 . S
C1313 H1289 0.950 . S
C1313 C1312 1.524 . S
C1313 C1314 1.415 . S
C1314 H1290 0.950 . S
C1314 C1309 1.363 . S
C1314 C1313 1.415 . S
C1315 H1291 0.951 . S
C1315 C1316 1.366 . S
C1315 C1317 1.388 . S
C1316 C1315 1.366 . S
C1316 C1320 1.385 . S
C1317 H1292 0.951 . S
C1317 C1315 1.388 . S
C1317 C1318 1.366 . S
C1318 C1317 1.366 . S
C1318 C1319 1.414 . S
C1318 C1321 1.499 . S
C1319 H1293 0.950 . S
C1319 C1318 1.414 . S
C1319 C1320 1.374 . S
C1320 H1294 0.950 . S
C1320 C1316 1.385 . S
C1320 C1319 1.374 . S
C1321 C1318 1.499 . S
C1321 C1322 1.373 . S
C1321 C1323 1.389 . S
C1322 H1295 0.950 . S
C1322 C1308 1.377 . S
C1322 C1321 1.373 . S
C1323 C1307 1.377 . S
C1323 C1321 1.389 . S
C1323 C1324 1.524 . S
C1324 C1323 1.524 . S
C1324 C1325 1.397 . S
C1324 C1329 1.363 . S
C1325 H1296 0.950 . S
C1325 C1324 1.397 . S
C1325 C1326 1.334 . S
C1326 H1297 0.950 . S
C1326 C1325 1.334 . S
C1326 C1327 1.287 . S
C1327 C1326 1.287 . S
C1327 C1328 1.524 . S
C1327 H1330 0.999 . S
C1328 H1298 0.950 . S
C1328 C1327 1.524 . S
C1328 C1329 1.415 . S
C1329 H1299 0.950 . S
C1329 C1324 1.363 . S
C1329 C1328 1.415 . S
H1330 C1327 0.999 . S
H1331 C1312 0.913 . S
H1332 C1350 0.951 . S
H1333 C1352 0.951 . S
H1334 C1354 0.950 . S
H1335 C1355 0.950 . S
H1336 C1357 0.950 . S
H1337 C1360 0.950 . S
H1338 C1361 0.950 . S
H1339 C1363 0.950 . S
H1340 C1364 0.950 . S
H1341 C1365 0.951 . S
H1342 C1367 0.951 . S
H1343 C1369 0.950 . S
H1344 C1370 0.950 . S
H1345 C1372 0.950 . S
H1346 C1375 0.950 . S
H1347 C1376 0.950 . S
H1348 C1378 0.950 . S
H1349 C1379 0.950 . S
C1350 H1332 0.951 . S
C1350 C1351 1.366 . S
C1350 C1352 1.388 . S
C1351 C1350 1.366 . S
C1351 C1355 1.385 . S
C1352 H1333 0.951 . S
C1352 C1350 1.388 . S
C1352 C1353 1.366 . S
C1353 C1352 1.366 . S
C1353 C1354 1.414 . S
C1353 C1356 1.499 . S
C1354 H1334 0.950 . S
C1354 C1353 1.414 . S
C1354 C1355 1.374 . S
C1355 H1335 0.950 . S
C1355 C1351 1.385 . S
C1355 C1354 1.374 . S
C1356 C1353 1.499 . S
C1356 C1357 1.373 . S
C1356 C1358 1.389 . S
C1357 H1336 0.950 . S
C1357 C1356 1.373 . S
C1357 C1373 1.377 . S
C1358 C1356 1.389 . S
C1358 C1359 1.524 . S
C1358 C1372 1.377 . S
C1359 C1358 1.524 . S
C1359 C1360 1.397 . S
C1359 C1364 1.363 . S
C1360 H1337 0.950 . S
C1360 C1359 1.397 . S
C1360 C1361 1.334 . S
C1361 H1338 0.950 . S
C1361 C1360 1.334 . S
C1361 C1362 1.287 . S
C1362 C1361 1.287 . S
C1362 C1363 1.524 . S
C1362 H1381 0.913 . S
C1363 H1339 0.950 . S
C1363 C1362 1.524 . S
C1363 C1364 1.415 . S
C1364 H1340 0.950 . S
C1364 C1359 1.363 . S
C1364 C1363 1.415 . S
C1365 H1341 0.951 . S
C1365 C1366 1.366 . S
C1365 C1367 1.388 . S
C1366 C1365 1.366 . S
C1366 C1370 1.385 . S
C1367 H1342 0.951 . S
C1367 C1365 1.388 . S
C1367 C1368 1.366 . S
C1368 C1367 1.366 . S
C1368 C1369 1.414 . S
C1368 C1371 1.499 . S
C1369 H1343 0.950 . S
C1369 C1368 1.414 . S
C1369 C1370 1.374 . S
C1370 H1344 0.950 . S
C1370 C1366 1.385 . S
C1370 C1369 1.374 . S
C1371 C1368 1.499 . S
C1371 C1372 1.373 . S
C1371 C1373 1.389 . S
C1372 H1345 0.950 . S
C1372 C1358 1.377 . S
C1372 C1371 1.373 . S
C1373 C1357 1.377 . S
C1373 C1371 1.389 . S
C1373 C1374 1.524 . S
C1374 C1373 1.524 . S
C1374 C1375 1.397 . S
C1374 C1379 1.363 . S
C1375 H1346 0.950 . S
C1375 C1374 1.397 . S
C1375 C1376 1.334 . S
C1376 H1347 0.950 . S
C1376 C1375 1.334 . S
C1376 C1377 1.287 . S
C1377 C1376 1.287 . S
C1377 C1378 1.524 . S
C1377 H1380 0.999 . S
C1378 H1348 0.950 . S
C1378 C1377 1.524 . S
C1378 C1379 1.415 . S
C1379 H1349 0.950 . S
C1379 C1374 1.363 . S
C1379 C1378 1.415 . S
H1380 C1377 0.999 . S
H1381 C1362 0.913 . S
H1382 C1400 0.951 . S
H1383 C1402 0.951 . S
H1384 C1404 0.950 . S
H1385 C1405 0.950 . S
H1386 C1407 0.950 . S
H1387 C1410 0.950 . S
H1388 C1411 0.950 . S
H1389 C1413 0.950 . S
H1390 C1414 0.950 . S
H1391 C1415 0.951 . S
H1392 C1417 0.951 . S
H1393 C1419 0.950 . S
H1394 C1420 0.950 . S
H1395 C1422 0.950 . S
H1396 C1425 0.950 . S
H1397 C1426 0.950 1_455 S
H1398 C1428 0.950 . S
H1399 C1429 0.950 . S
C1400 H1382 0.951 . S
C1400 C1401 1.366 . S
C1400 C1402 1.388 . S
C1401 C1400 1.366 . S
C1401 C1405 1.385 . S
C1402 H1383 0.951 . S
C1402 C1400 1.388 . S
C1402 C1403 1.366 . S
C1403 C1402 1.366 . S
C1403 C1404 1.414 . S
C1403 C1406 1.499 . S
C1404 H1384 0.950 . S
C1404 C1403 1.414 . S
C1404 C1405 1.374 . S
C1405 H1385 0.950 . S
C1405 C1401 1.385 . S
C1405 C1404 1.374 . S
C1406 C1403 1.499 . S
C1406 C1407 1.373 . S
C1406 C1408 1.389 . S
C1407 H1386 0.950 . S
C1407 C1406 1.373 . S
C1407 C1423 1.377 . S
C1408 C1406 1.389 . S
C1408 C1409 1.524 . S
C1408 C1422 1.377 . S
C1409 C1408 1.524 . S
C1409 C1410 1.397 . S
C1409 C1414 1.363 . S
C1410 H1387 0.950 . S
C1410 C1409 1.397 . S
C1410 C1411 1.334 . S
C1411 H1388 0.950 . S
C1411 C1410 1.334 . S
C1411 C1412 1.287 . S
C1412 C1411 1.287 . S
C1412 C1413 1.524 . S
C1412 H1431 0.913 . S
C1413 H1389 0.950 . S
C1413 C1412 1.524 . S
C1413 C1414 1.415 . S
C1414 H1390 0.950 . S
C1414 C1409 1.363 . S
C1414 C1413 1.415 . S
C1415 H1391 0.951 . S
C1415 C1416 1.366 . S
C1415 C1417 1.388 . S
C1416 C1415 1.366 . S
C1416 C1420 1.385 . S
C1417 H1392 0.951 . S
C1417 C1415 1.388 . S
C1417 C1418 1.366 . S
C1418 C1417 1.366 . S
C1418 C1419 1.414 . S
C1418 C1421 1.499 . S
C1419 H1393 0.950 . S
C1419 C1418 1.414 . S
C1419 C1420 1.374 . S
C1420 H1394 0.950 . S
C1420 C1416 1.385 . S
C1420 C1419 1.374 . S
C1421 C1418 1.499 . S
C1421 C1422 1.373 . S
C1421 C1423 1.389 . S
C1422 H1395 0.950 . S
C1422 C1408 1.377 . S
C1422 C1421 1.373 . S
C1423 C1407 1.377 . S
C1423 C1421 1.389 . S
C1423 C1424 1.524 . S
C1424 C1423 1.524 . S
C1424 C1425 1.397 . S
C1424 C1429 1.363 . S
C1425 H1396 0.950 . S
C1425 C1424 1.397 . S
C1425 C1426 1.334 . S
C1426 H1397 0.950 1_655 S
C1426 C1425 1.334 . S
C1426 C1427 1.287 . S
C1427 C1426 1.287 . S
C1427 C1428 1.524 . S
C1427 H1430 0.999 . S
C1428 H1398 0.950 . S
C1428 C1427 1.524 . S
C1428 C1429 1.415 . S
C1429 H1399 0.950 . S
C1429 C1424 1.363 . S
C1429 C1428 1.415 . S
H1430 C1427 0.999 . S
H1431 C1412 0.913 . S
H1432 C1450 0.951 . S
H1433 C1452 0.951 . S
H1434 C1454 0.950 . S
H1435 C1455 0.950 . S
H1436 C1457 0.950 . S
H1437 C1460 0.950 . S
H1438 C1461 0.950 . S
H1439 C1463 0.938 1_455 S
H1440 C1464 0.950 . S
H1441 C1465 0.951 . S
H1442 C1467 0.951 . S
H1443 C1469 0.950 . S
H1444 C1470 0.950 . S
H1445 C1472 0.950 . S
H1446 C1475 0.950 . S
H1447 C1476 0.950 . S
H1448 C1478 0.950 . S
H1449 C1479 0.950 . S
C1450 H1432 0.951 . S
C1450 C1451 1.366 . S
C1450 C1452 1.388 . S
C1451 C1450 1.366 . S
C1451 C1455 1.385 . S
C1452 H1433 0.951 . S
C1452 C1450 1.388 . S
C1452 C1453 1.366 . S
C1453 C1452 1.366 . S
C1453 C1454 1.414 . S
C1453 C1456 1.499 . S
C1454 H1434 0.950 . S
C1454 C1453 1.414 . S
C1454 C1455 1.374 . S
C1455 H1435 0.950 . S
C1455 C1451 1.385 . S
C1455 C1454 1.374 . S
C1456 C1453 1.499 . S
C1456 C1457 1.373 . S
C1456 C1458 1.389 . S
C1457 H1436 0.950 . S
C1457 C1456 1.373 . S
C1457 C1473 1.377 . S
C1458 C1456 1.389 . S
C1458 C1459 1.524 . S
C1458 C1472 1.377 . S
C1459 C1458 1.524 . S
C1459 C1460 1.397 . S
C1459 C1464 1.363 . S
C1460 H1437 0.950 . S
C1460 C1459 1.397 . S
C1460 C1461 1.334 . S
C1461 H1438 0.950 . S
C1461 C1460 1.334 . S
C1461 C1462 1.287 . S
C1462 C1461 1.287 . S
C1462 C1463 1.524 . S
C1462 H1481 0.913 . S
C1463 H1439 0.938 1_655 S
C1463 C1462 1.524 . S
C1463 C1464 1.415 . S
C1464 H1440 0.950 . S
C1464 C1459 1.363 . S
C1464 C1463 1.415 . S
C1465 H1441 0.951 . S
C1465 C1466 1.366 . S
C1465 C1467 1.388 . S
C1466 C1465 1.366 . S
C1466 C1470 1.385 . S
C1467 H1442 0.951 . S
C1467 C1465 1.388 . S
C1467 C1468 1.366 . S
C1468 C1467 1.366 . S
C1468 C1469 1.414 . S
C1468 C1471 1.499 . S
C1469 H1443 0.950 . S
C1469 C1468 1.414 . S
C1469 C1470 1.374 . S
C1470 H1444 0.950 . S
C1470 C1466 1.385 . S
C1470 C1469 1.374 . S
C1471 C1468 1.499 . S
C1471 C1472 1.373 . S
C1471 C1473 1.389 . S
C1472 H1445 0.950 . S
C1472 C1458 1.377 . S
C1472 C1471 1.373 . S
C1473 C1457 1.377 . S
C1473 C1471 1.389 . S
C1473 C1474 1.524 . S
C1474 C1473 1.524 . S
C1474 C1475 1.397 . S
C1474 C1479 1.363 . S
C1475 H1446 0.950 . S
C1475 C1474 1.397 . S
C1475 C1476 1.334 . S
C1476 H1447 0.950 . S
C1476 C1475 1.334 . S
C1476 C1477 1.287 . S
C1477 C1476 1.287 . S
C1477 C1478 1.524 . S
C1477 H1480 0.999 . S
C1478 H1448 0.950 . S
C1478 C1477 1.524 . S
C1478 C1479 1.415 . S
C1479 H1449 0.950 . S
C1479 C1474 1.363 . S
C1479 C1478 1.415 . S
H1480 C1477 0.999 . S
H1481 C1462 0.913 . S
H1482 C1500 0.951 . S
H1483 C1502 0.951 . S
H1484 C1504 0.950 . S
H1485 C1505 0.950 . S
H1486 C1507 0.950 . S
H1487 C1510 0.950 . S
H1488 C1511 0.950 . S
H1489 C1513 0.950 . S
H1490 C1514 0.950 . S
H1491 C1515 0.951 . S
H1492 C1517 0.951 . S
H1493 C1519 0.950 . S
H1494 C1520 0.950 . S
H1495 C1522 0.950 . S
H1496 C1525 0.950 . S
H1497 C1526 0.950 . S
H1498 C1528 0.950 . S
H1499 C1529 0.950 . S
C1500 H1482 0.951 . S
C1500 C1501 1.366 . S
C1500 C1502 1.388 . S
C1501 C1500 1.366 . S
C1501 C1505 1.385 . S
C1502 H1483 0.951 . S
C1502 C1500 1.388 . S
C1502 C1503 1.366 . S
C1503 C1502 1.366 . S
C1503 C1504 1.414 . S
C1503 C1506 1.499 . S
C1504 H1484 0.950 . S
C1504 C1503 1.414 . S
C1504 C1505 1.374 . S
C1505 H1485 0.950 . S
C1505 C1501 1.385 . S
C1505 C1504 1.374 . S
C1506 C1503 1.499 . S
C1506 C1507 1.373 . S
C1506 C1508 1.389 . S
C1507 H1486 0.950 . S
C1507 C1506 1.373 . S
C1507 C1523 1.377 . S
C1508 C1506 1.389 . S
C1508 C1509 1.524 . S
C1508 C1522 1.377 . S
C1509 C1508 1.524 . S
C1509 C1510 1.397 . S
C1509 C1514 1.363 . S
C1510 H1487 0.950 . S
C1510 C1509 1.397 . S
C1510 C1511 1.334 . S
C1511 H1488 0.950 . S
C1511 C1510 1.334 . S
C1511 C1512 1.287 . S
C1512 C1511 1.287 . S
C1512 C1513 1.524 . S
C1512 H1531 0.913 . S
C1513 H1489 0.950 . S
C1513 C1512 1.524 . S
C1513 C1514 1.415 . S
C1514 H1490 0.950 . S
C1514 C1509 1.363 . S
C1514 C1513 1.415 . S
C1515 H1491 0.951 . S
C1515 C1516 1.366 . S
C1515 C1517 1.388 . S
C1516 C1515 1.366 . S
C1516 C1520 1.385 . S
C1517 H1492 0.951 . S
C1517 C1515 1.388 . S
C1517 C1518 1.366 . S
C1518 C1517 1.366 . S
C1518 C1519 1.414 . S
C1518 C1521 1.499 . S
C1519 H1493 0.950 . S
C1519 C1518 1.414 . S
C1519 C1520 1.374 . S
C1520 H1494 0.950 . S
C1520 C1516 1.385 . S
C1520 C1519 1.374 . S
C1521 C1518 1.499 . S
C1521 C1522 1.373 . S
C1521 C1523 1.389 . S
C1522 H1495 0.950 . S
C1522 C1508 1.377 . S
C1522 C1521 1.373 . S
C1523 C1507 1.377 . S
C1523 C1521 1.389 . S
C1523 C1524 1.524 . S
C1524 C1523 1.524 . S
C1524 C1525 1.397 . S
C1524 C1529 1.363 . S
C1525 H1496 0.950 . S
C1525 C1524 1.397 . S
C1525 C1526 1.334 . S
C1526 H1497 0.950 . S
C1526 C1525 1.334 . S
C1526 C1527 1.287 . S
C1527 C1526 1.287 . S
C1527 C1528 1.524 . S
C1527 H1530 0.999 . S
C1528 H1498 0.950 . S
C1528 C1527 1.524 . S
C1528 C1529 1.415 . S
C1529 H1499 0.950 . S
C1529 C1524 1.363 . S
C1529 C1528 1.415 . S
H1530 C1527 0.999 . S
H1531 C1512 0.913 . S
H1532 C1550 0.951 . S
H1533 C1552 0.951 . S
H1534 C1554 0.950 . S
H1535 C1555 0.950 . S
H1536 C1557 0.950 . S
H1537 C1560 0.950 . S
H1538 C1561 0.950 . S
H1539 C1563 0.950 . S
H1540 C1564 0.950 . S
H1541 C1565 0.951 . S
H1542 C1567 0.951 . S
H1543 C1569 0.950 . S
H1544 C1570 0.950 . S
H1545 C1572 0.950 . S
H1546 C1575 0.950 . S
H1547 C1576 0.950 . S
H1548 C1578 0.950 . S
H1549 C1579 0.950 . S
C1550 H1532 0.951 . S
C1550 C1551 1.366 . S
C1550 C1552 1.388 . S
C1551 C1550 1.366 . S
C1551 C1555 1.385 . S
C1552 H1533 0.951 . S
C1552 C1550 1.388 . S
C1552 C1553 1.366 . S
C1553 C1552 1.366 . S
C1553 C1554 1.414 . S
C1553 C1556 1.499 . S
C1554 H1534 0.950 . S
C1554 C1553 1.414 . S
C1554 C1555 1.374 . S
C1555 H1535 0.950 . S
C1555 C1551 1.385 . S
C1555 C1554 1.374 . S
C1556 C1553 1.499 . S
C1556 C1557 1.373 . S
C1556 C1558 1.389 . S
C1557 H1536 0.950 . S
C1557 C1556 1.373 . S
C1557 C1573 1.377 . S
C1558 C1556 1.389 . S
C1558 C1559 1.524 . S
C1558 C1572 1.377 . S
C1559 C1558 1.524 . S
C1559 C1560 1.397 . S
C1559 C1564 1.363 . S
C1560 H1537 0.950 . S
C1560 C1559 1.397 . S
C1560 C1561 1.334 . S
C1561 H1538 0.950 . S
C1561 C1560 1.334 . S
C1561 C1562 1.287 . S
C1562 C1561 1.287 . S
C1562 C1563 1.524 . S
C1562 H1581 0.913 . S
C1563 H1539 0.950 . S
C1563 C1562 1.524 . S
C1563 C1564 1.415 . S
C1564 H1540 0.950 . S
C1564 C1559 1.363 . S
C1564 C1563 1.415 . S
C1565 H1541 0.951 . S
C1565 C1566 1.366 . S
C1565 C1567 1.388 . S
C1566 C1565 1.366 . S
C1566 C1570 1.385 . S
C1567 H1542 0.951 . S
C1567 C1565 1.388 . S
C1567 C1568 1.366 . S
C1568 C1567 1.366 . S
C1568 C1569 1.414 . S
C1568 C1571 1.499 . S
C1569 H1543 0.950 . S
C1569 C1568 1.414 . S
C1569 C1570 1.374 . S
C1570 H1544 0.950 . S
C1570 C1566 1.385 . S
C1570 C1569 1.374 . S
C1571 C1568 1.499 . S
C1571 C1572 1.373 . S
C1571 C1573 1.389 . S
C1572 H1545 0.950 . S
C1572 C1558 1.377 . S
C1572 C1571 1.373 . S
C1573 C1557 1.377 . S
C1573 C1571 1.389 . S
C1573 C1574 1.524 . S
C1574 C1573 1.524 . S
C1574 C1575 1.397 . S
C1574 C1579 1.363 . S
C1575 H1546 0.950 . S
C1575 C1574 1.397 . S
C1575 C1576 1.334 . S
C1576 H1547 0.950 . S
C1576 C1575 1.334 . S
C1576 C1577 1.287 . S
C1577 C1576 1.287 . S
C1577 C1578 1.524 . S
C1577 H1580 0.999 . S
C1578 H1548 0.950 . S
C1578 C1577 1.524 . S
C1578 C1579 1.415 . S
C1579 H1549 0.950 . S
C1579 C1574 1.363 . S
C1579 C1578 1.415 . S
H1580 C1577 0.999 . S
H1581 C1562 0.913 . S
H1582 C1600 0.951 . S
H1583 C1602 0.951 . S
H1584 C1604 0.950 . S
H1585 C1605 0.950 . S
H1586 C1607 0.950 . S
H1587 C1610 0.950 . S
H1588 C1611 0.950 . S
H1589 C1613 0.950 . S
H1590 C1614 0.950 . S
H1591 C1615 0.951 . S
H1592 C1617 0.951 . S
H1593 C1619 0.950 . S
H1594 C1620 0.950 . S
H1595 C1622 0.950 . S
H1596 C1625 0.950 . S
H1597 C1626 0.950 . S
H1598 C1628 0.950 . S
H1599 C1629 0.950 . S
C1600 H1582 0.951 . S
C1600 C1601 1.366 . S
C1600 C1602 1.388 . S
C1601 C1600 1.366 . S
C1601 C1605 1.385 . S
C1602 H1583 0.951 . S
C1602 C1600 1.388 . S
C1602 C1603 1.366 . S
C1603 C1602 1.366 . S
C1603 C1604 1.414 . S
C1603 C1606 1.499 . S
C1604 H1584 0.950 . S
C1604 C1603 1.414 . S
C1604 C1605 1.374 . S
C1605 H1585 0.950 . S
C1605 C1601 1.385 . S
C1605 C1604 1.374 . S
C1606 C1603 1.499 . S
C1606 C1607 1.373 . S
C1606 C1608 1.389 . S
C1607 H1586 0.950 . S
C1607 C1606 1.373 . S
C1607 C1623 1.377 . S
C1608 C1606 1.389 . S
C1608 C1609 1.524 . S
C1608 C1622 1.377 . S
C1609 C1608 1.524 . S
C1609 C1610 1.397 . S
C1609 C1614 1.363 . S
C1610 H1587 0.950 . S
C1610 C1609 1.397 . S
C1610 C1611 1.334 . S
C1611 H1588 0.950 . S
C1611 C1610 1.334 . S
C1611 C1612 1.287 . S
C1612 C1611 1.287 . S
C1612 C1613 1.524 . S
C1612 H1631 0.913 . S
C1613 H1589 0.950 . S
C1613 C1612 1.524 . S
C1613 C1614 1.415 . S
C1614 H1590 0.950 . S
C1614 C1609 1.363 . S
C1614 C1613 1.415 . S
C1615 H1591 0.951 . S
C1615 C1616 1.366 . S
C1615 C1617 1.388 . S
C1616 C1615 1.366 . S
C1616 C1620 1.385 . S
C1617 H1592 0.951 . S
C1617 C1615 1.388 . S
C1617 C1618 1.366 . S
C1618 C1617 1.366 . S
C1618 C1619 1.414 . S
C1618 C1621 1.499 . S
C1619 H1593 0.950 . S
C1619 C1618 1.414 . S
C1619 C1620 1.374 . S
C1620 H1594 0.950 . S
C1620 C1616 1.385 . S
C1620 C1619 1.374 . S
C1621 C1618 1.499 . S
C1621 C1622 1.373 . S
C1621 C1623 1.389 . S
C1622 H1595 0.950 . S
C1622 C1608 1.377 . S
C1622 C1621 1.373 . S
C1623 C1607 1.377 . S
C1623 C1621 1.389 . S
C1623 C1624 1.524 . S
C1624 C1623 1.524 . S
C1624 C1625 1.397 . S
C1624 C1629 1.363 . S
C1625 H1596 0.950 . S
C1625 C1624 1.397 . S
C1625 C1626 1.334 . S
C1626 H1597 0.950 . S
C1626 C1625 1.334 . S
C1626 C1627 1.287 . S
C1627 C1626 1.287 . S
C1627 C1628 1.524 . S
C1627 H1630 0.999 . S
C1628 H1598 0.950 . S
C1628 C1627 1.524 . S
C1628 C1629 1.415 . S
C1629 H1599 0.950 . S
C1629 C1624 1.363 . S
C1629 C1628 1.415 . S
H1630 C1627 0.999 . S
H1631 C1612 0.913 . S
C451 C81 1.699 . S
C466 C152 1.679 . S
C516 C236 1.680 . S
C501 C93 1.700 . S
C566 C235 1.689 . S
C551 C57 1.690 . S
C601 C69 1.690 . S
C616 C151 1.688 . S
C666 C332 1.680 . S
C651 C33 1.696 . S
C716 C416 1.680 . S
C701 C45 1.695 . S
C751 C9 1.686 . S
C766 C415 1.689 . S
C801 C21 1.686 . S
C816 C331 1.689 . S
C866 C154 1.470 . S
C851 C18 1.627 . S
C916 C238 1.469 . S
C901 C6 1.627 . S
C966 C250 1.431 . S
C951 C42 1.640 . S
C1016 C166 1.430 . S
C1001 C30 1.640 . S
C1066 C334 1.471 . S
C1051 C66 1.635 . S
C1101 C54 1.635 . S
C1116 C418 1.469 . S
C1166 C406 1.430 . S
C1151 C90 1.647 . S
C1201 C78 1.647 . S
C1216 C322 1.432 . S
C1266 C163 1.561 . S
C1251 C4 1.545 . S
C1316 C247 1.561 . S
C1301 C16 1.545 . S
C1351 C28 1.540 . S
C1366 C248 1.529 . S
C1416 C164 1.530 . S
C1401 C40 1.540 . S
C1466 C319 1.561 . S
C1451 C52 1.540 . S
C1501 C64 1.540 . S
C1516 C403 1.561 . S
C1551 C76 1.536 . S
C1566 C404 1.529 . S
C1601 C88 1.536 . S
C1616 C320 1.529 . S
