# Generated by pormake.
# Topology eea, (3,6)-cn, num edge types: 1
# Building blocks:
#     Node 0, Type 0, BuildingBlock: PAMTOO_clean_linker_0, # of connection points: 3
#     Node 1, Type 0, BuildingBlock: PAMTOO_clean_linker_0, # of connection points: 3
#     Node 2, Type 0, BuildingBlock: PAMTOO_clean_linker_0, # of connection points: 3
#     Node 3, Type 0, BuildingBlock: PAMTOO_clean_linker_0, # of connection points: 3
#     Node 4, Type 0, BuildingBlock: PAMTOO_clean_linker_0, # of connection points: 3
#     Node 5, Type 0, BuildingBlock: PAMTOO_clean_linker_0, # of connection points: 3
#     Node 6, Type 0, BuildingBlock: PAMTOO_clean_linker_0, # of connection points: 3
#     Node 7, Type 0, BuildingBlock: PAMTOO_clean_linker_0, # of connection points: 3
#     Node 8, Type 0, BuildingBlock: PAMTOO_clean_linker_0, # of connection points: 3
#     Node 9, Type 0, BuildingBlock: PAMTOO_clean_linker_0, # of connection points: 3
#     Node 10, Type 0, BuildingBlock: PAMTOO_clean_linker_0, # of connection points: 3
#     Node 11, Type 0, BuildingBlock: PAMTOO_clean_linker_0, # of connection points: 3
#     Node 12, Type 0, BuildingBlock: PAMTOO_clean_linker_0, # of connection points: 3
#     Node 13, Type 0, BuildingBlock: PAMTOO_clean_linker_0, # of connection points: 3
#     Node 14, Type 0, BuildingBlock: PAMTOO_clean_linker_0, # of connection points: 3
#     Node 15, Type 0, BuildingBlock: PAMTOO_clean_linker_0, # of connection points: 3
#     Node 16, Type 0, BuildingBlock: PAMTOO_clean_linker_0, # of connection points: 3
#     Node 17, Type 0, BuildingBlock: PAMTOO_clean_linker_0, # of connection points: 3
#     Node 18, Type 1, BuildingBlock: CIFDUS_clean_sbu_1, # of connection points: 6
#     Node 19, Type 1, BuildingBlock: CIFDUS_clean_sbu_1, # of connection points: 6
#     Node 20, Type 1, BuildingBlock: CIFDUS_clean_sbu_1, # of connection points: 6
#     Node 21, Type 1, BuildingBlock: CIFDUS_clean_sbu_1, # of connection points: 6
#     Node 22, Type 1, BuildingBlock: CIFDUS_clean_sbu_1, # of connection points: 6
#     Node 23, Type 1, BuildingBlock: CIFDUS_clean_sbu_1, # of connection points: 6
#     Node 24, Type 1, BuildingBlock: CIFDUS_clean_sbu_1, # of connection points: 6
#     Node 25, Type 1, BuildingBlock: CIFDUS_clean_sbu_1, # of connection points: 6
#     Node 26, Type 1, BuildingBlock: CIFDUS_clean_sbu_1, # of connection points: 6
#     Edge 27, Type (0, 1), BuildingBlock: XIVTED_clean_linker_0, # of connection points: 2
#     Edge 28, Type (0, 1), BuildingBlock: XIVTED_clean_linker_0, # of connection points: 2
#     Edge 29, Type (0, 1), BuildingBlock: XIVTED_clean_linker_0, # of connection points: 2
#     Edge 30, Type (0, 1), BuildingBlock: XIVTED_clean_linker_0, # of connection points: 2
#     Edge 31, Type (0, 1), BuildingBlock: XIVTED_clean_linker_0, # of connection points: 2
#     Edge 32, Type (0, 1), BuildingBlock: XIVTED_clean_linker_0, # of connection points: 2
#     Edge 33, Type (0, 1), BuildingBlock: XIVTED_clean_linker_0, # of connection points: 2
#     Edge 34, Type (0, 1), BuildingBlock: XIVTED_clean_linker_0, # of connection points: 2
#     Edge 35, Type (0, 1), BuildingBlock: XIVTED_clean_linker_0, # of connection points: 2
#     Edge 36, Type (0, 1), BuildingBlock: XIVTED_clean_linker_0, # of connection points: 2
#     Edge 37, Type (0, 1), BuildingBlock: XIVTED_clean_linker_0, # of connection points: 2
#     Edge 38, Type (0, 1), BuildingBlock: XIVTED_clean_linker_0, # of connection points: 2
#     Edge 39, Type (0, 1), BuildingBlock: XIVTED_clean_linker_0, # of connection points: 2
#     Edge 40, Type (0, 1), BuildingBlock: XIVTED_clean_linker_0, # of connection points: 2
#     Edge 41, Type (0, 1), BuildingBlock: XIVTED_clean_linker_0, # of connection points: 2
#     Edge 42, Type (0, 1), BuildingBlock: XIVTED_clean_linker_0, # of connection points: 2
#     Edge 43, Type (0, 1), BuildingBlock: XIVTED_clean_linker_0, # of connection points: 2
#     Edge 44, Type (0, 1), BuildingBlock: XIVTED_clean_linker_0, # of connection points: 2
#     Edge 45, Type (0, 1), BuildingBlock: XIVTED_clean_linker_0, # of connection points: 2
#     Edge 46, Type (0, 1), BuildingBlock: XIVTED_clean_linker_0, # of connection points: 2
#     Edge 47, Type (0, 1), BuildingBlock: XIVTED_clean_linker_0, # of connection points: 2
#     Edge 48, Type (0, 1), BuildingBlock: XIVTED_clean_linker_0, # of connection points: 2
#     Edge 49, Type (0, 1), BuildingBlock: XIVTED_clean_linker_0, # of connection points: 2
#     Edge 50, Type (0, 1), BuildingBlock: XIVTED_clean_linker_0, # of connection points: 2
#     Edge 51, Type (0, 1), BuildingBlock: XIVTED_clean_linker_0, # of connection points: 2
#     Edge 52, Type (0, 1), BuildingBlock: XIVTED_clean_linker_0, # of connection points: 2
#     Edge 53, Type (0, 1), BuildingBlock: XIVTED_clean_linker_0, # of connection points: 2
#     Edge 54, Type (0, 1), BuildingBlock: XIVTED_clean_linker_0, # of connection points: 2
#     Edge 55, Type (0, 1), BuildingBlock: XIVTED_clean_linker_0, # of connection points: 2
#     Edge 56, Type (0, 1), BuildingBlock: XIVTED_clean_linker_0, # of connection points: 2
#     Edge 57, Type (0, 1), BuildingBlock: XIVTED_clean_linker_0, # of connection points: 2
#     Edge 58, Type (0, 1), BuildingBlock: XIVTED_clean_linker_0, # of connection points: 2
#     Edge 59, Type (0, 1), BuildingBlock: XIVTED_clean_linker_0, # of connection points: 2
#     Edge 60, Type (0, 1), BuildingBlock: XIVTED_clean_linker_0, # of connection points: 2
#     Edge 61, Type (0, 1), BuildingBlock: XIVTED_clean_linker_0, # of connection points: 2
#     Edge 62, Type (0, 1), BuildingBlock: XIVTED_clean_linker_0, # of connection points: 2
#     Edge 63, Type (0, 1), BuildingBlock: XIVTED_clean_linker_0, # of connection points: 2
#     Edge 64, Type (0, 1), BuildingBlock: XIVTED_clean_linker_0, # of connection points: 2
#     Edge 65, Type (0, 1), BuildingBlock: XIVTED_clean_linker_0, # of connection points: 2
#     Edge 66, Type (0, 1), BuildingBlock: XIVTED_clean_linker_0, # of connection points: 2
#     Edge 67, Type (0, 1), BuildingBlock: XIVTED_clean_linker_0, # of connection points: 2
#     Edge 68, Type (0, 1), BuildingBlock: XIVTED_clean_linker_0, # of connection points: 2
#     Edge 69, Type (0, 1), BuildingBlock: XIVTED_clean_linker_0, # of connection points: 2
#     Edge 70, Type (0, 1), BuildingBlock: XIVTED_clean_linker_0, # of connection points: 2
#     Edge 71, Type (0, 1), BuildingBlock: XIVTED_clean_linker_0, # of connection points: 2
#     Edge 72, Type (0, 1), BuildingBlock: XIVTED_clean_linker_0, # of connection points: 2
#     Edge 73, Type (0, 1), BuildingBlock: XIVTED_clean_linker_0, # of connection points: 2
#     Edge 74, Type (0, 1), BuildingBlock: XIVTED_clean_linker_0, # of connection points: 2
#     Edge 75, Type (0, 1), BuildingBlock: XIVTED_clean_linker_0, # of connection points: 2
#     Edge 76, Type (0, 1), BuildingBlock: XIVTED_clean_linker_0, # of connection points: 2
#     Edge 77, Type (0, 1), BuildingBlock: XIVTED_clean_linker_0, # of connection points: 2
#     Edge 78, Type (0, 1), BuildingBlock: XIVTED_clean_linker_0, # of connection points: 2
#     Edge 79, Type (0, 1), BuildingBlock: XIVTED_clean_linker_0, # of connection points: 2
#     Edge 80, Type (0, 1), BuildingBlock: XIVTED_clean_linker_0, # of connection points: 2
# Relax obj value: 0.085
# Max RMSD: 0.116
# Mean RMSD: 0.099
data_MOF--net-eea--node1-CIFDUS_clean_sbu_1--node2-PAMTOO_clean_linker_0--edge1-XIVTED_clean_linker_0
_symmetry_space_group_name_H-M    P1
_symmetry_Int_Tables_number       1
_symmetry_cell_setting            triclinic
loop_
_symmetry_equiv_pos_as_xyz
'x, y, z'
_cell_length_a     58.365756
_cell_length_b     57.684851
_cell_length_c     44.506841
_cell_angle_alpha  89.870379
_cell_angle_beta   89.973186
_cell_angle_gamma 119.94614
loop_
_atom_site_label
_atom_site_type_symbol
_atom_site_fract_x
_atom_site_fract_y
_atom_site_fract_z
_atom_type_partial_charge
H0 H 0.23687 0.071 0.41106 0.0
H1 H 0.23372 0.14381 0.41821 0.0
H2 H 0.18208 0.08246 0.35723 0.0
H3 H 0.20099 0.13979 0.33371 0.0
C4 C 0.20711 0.14965 0.35602 0.0
O5 O 0.19679 0.13046 0.37831 0.0
H6 H 0.22914 0.1606 0.35674 0.0
C7 C 0.22856 0.08334 0.40435 0.0
C8 C 0.20802 0.07343 0.38321 0.0
C9 C 0.23799 0.10855 0.41748 0.0
C10 C 0.22744 0.12456 0.4079 0.0
C11 C 0.2077 0.11537 0.38588 0.0
C12 C 0.19802 0.08983 0.37344 0.0
H13 H 0.92078 0.1614 0.40706 0.0
H14 H 0.85993 0.07879 0.40063 0.0
H15 H 0.92717 0.11009 0.34172 0.0
H16 H 0.87549 0.05844 0.31357 0.0
C17 C 0.86504 0.05654 0.33511 0.0
O18 O 0.88334 0.0673 0.35791 0.0
H19 H 0.85384 0.06741 0.33244 0.0
C20 C 0.91225 0.14221 0.39581 0.0
C21 C 0.92657 0.13849 0.37281 0.0
C22 C 0.88806 0.12088 0.40592 0.0
C23 C 0.87815 0.09568 0.39254 0.0
C24 C 0.89201 0.09202 0.36903 0.0
C25 C 0.916 0.11346 0.35891 0.0
H26 H 0.83881 0.76598 0.39747 0.0
H27 H 0.91411 0.77035 0.40934 0.0
H28 H 0.90102 0.80783 0.33284 0.0
H29 H 0.93291 0.78293 0.31915 0.0
C30 C 0.94259 0.78496 0.34129 0.0
O31 O 0.93538 0.79889 0.36063 0.0
H32 H 0.93605 0.76464 0.35048 0.0
C33 C 0.85868 0.77228 0.38963 0.0
C34 C 0.86778 0.78701 0.36291 0.0
C35 C 0.87522 0.76629 0.40674 0.0
C36 C 0.90094 0.77459 0.39631 0.0
C37 C 0.91015 0.78944 0.36959 0.0
C38 C 0.89363 0.79583 0.35307 0.0
H39 H 0.09213 0.24991 0.60793 0.0
H40 H 0.15873 0.23753 0.61673 0.0
H41 H 0.09854 0.20797 0.68483 0.0
H42 H 0.15315 0.22624 0.70954 0.0
C43 C 0.16238 0.22495 0.6882 0.0
O44 O 0.14273 0.21102 0.66738 0.0
H45 H 0.17614 0.24558 0.67995 0.0
C46 C 0.1029 0.24234 0.62059 0.0
C47 C 0.09259 0.22892 0.64801 0.0
C48 C 0.12675 0.24554 0.60909 0.0
C49 C 0.14049 0.23554 0.62547 0.0
C50 C 0.13024 0.22199 0.65267 0.0
C51 C 0.10633 0.21862 0.66384 0.0
H52 H 0.76908 0.85015 0.60232 0.0
H53 H 0.7881 0.93215 0.61075 0.0
H54 H 0.83227 0.90415 0.66061 0.0
H55 H 0.83043 0.95395 0.69343 0.0
C56 C 0.81941 0.95474 0.67345 0.0
O57 O 0.82651 0.9453 0.64878 0.0
H58 H 0.79791 0.94211 0.6786 0.0
C59 C 0.78079 0.86971 0.6124 0.0
C60 C 0.80126 0.87429 0.63248 0.0
C61 C 0.77592 0.89044 0.60428 0.0
C62 C 0.79135 0.91584 0.61697 0.0
C63 C 0.8112 0.92047 0.63763 0.0
C64 C 0.81614 0.89983 0.64541 0.0
H65 H 0.17356 0.93699 0.60389 0.0
H66 H 0.09969 0.86317 0.6088 0.0
H67 H 0.11537 0.92673 0.67025 0.0
H68 H 0.08305 0.87042 0.69823 0.0
C69 C 0.07513 0.85957 0.6767 0.0
O70 O 0.08095 0.87799 0.65391 0.0
H71 H 0.08441 0.84714 0.67207 0.0
C72 C 0.1546 0.92468 0.61478 0.0
C73 C 0.14653 0.9353 0.63814 0.0
C74 C 0.13792 0.89884 0.60408 0.0
C75 C 0.11312 0.88291 0.61755 0.0
C76 C 0.10539 0.89277 0.64201 0.0
C77 C 0.12207 0.91891 0.65228 0.0
H78 H 0.90401 0.40544 0.74772 0.0
H79 H 0.89807 0.47644 0.75573 0.0
H80 H 0.85038 0.41644 0.69093 0.0
H81 H 0.86749 0.47309 0.66888 0.0
C82 C 0.8732 0.48277 0.69132 0.0
O83 O 0.86264 0.46338 0.71338 0.0
H84 H 0.89521 0.49387 0.69247 0.0
C85 C 0.8957 0.41756 0.74007 0.0
C86 C 0.87604 0.40768 0.71789 0.0
C87 C 0.90363 0.44213 0.75392 0.0
C88 C 0.89254 0.45764 0.74468 0.0
C89 C 0.87384 0.44867 0.72145 0.0
C90 C 0.86559 0.4237 0.70803 0.0
H91 H 0.59711 0.4984 0.73493 0.0
H92 H 0.53393 0.41644 0.73818 0.0
H93 H 0.59082 0.44291 0.66654 0.0
H94 H 0.5373 0.39753 0.64634 0.0
C95 C 0.52884 0.39215 0.66938 0.0
O96 O 0.54915 0.40196 0.68994 0.0
H97 H 0.51591 0.40101 0.67297 0.0
C98 C 0.58659 0.47859 0.72511 0.0
C99 C 0.5962 0.47325 0.69863 0.0
C100 C 0.56415 0.4582 0.73967 0.0
C101 C 0.55094 0.43255 0.72696 0.0
C102 C 0.56059 0.42715 0.70062 0.0
C103 C 0.58321 0.44742 0.68656 0.0
H104 H 0.50562 0.104 0.73308 0.0
H105 H 0.58046 0.10743 0.74532 0.0
H106 H 0.56783 0.14443 0.66801 0.0
H107 H 0.60064 0.11966 0.65493 0.0
C108 C 0.60895 0.1207 0.6777 0.0
O109 O 0.60198 0.13533 0.6963 0.0
H110 H 0.60078 0.10002 0.68661 0.0
C111 C 0.52551 0.11021 0.72539 0.0
C112 C 0.53467 0.12459 0.69841 0.0
C113 C 0.54184 0.10399 0.74263 0.0
C114 C 0.56748 0.11189 0.73222 0.0
C115 C 0.57682 0.12644 0.70532 0.0
C116 C 0.56046 0.13296 0.68859 0.0
H117 H 0.75722 0.58602 0.94696 0.0
H118 H 0.82384 0.5736 0.95394 0.0
H119 H 0.76609 0.54661 0.02474 0.0
H120 H 0.82127 0.56017 0.04872 0.0
C121 C 0.82965 0.56237 0.02577 0.0
O122 O 0.80926 0.54846 0.00577 0.0
H123 H 0.8409 0.58405 0.01996 0.0
C124 C 0.76843 0.57892 0.95956 0.0
C125 C 0.75908 0.56649 0.98762 0.0
C126 C 0.79177 0.58159 0.94726 0.0
C127 C 0.80602 0.57204 0.9634 0.0
C128 C 0.79667 0.55945 0.99131 0.0
C129 C 0.77326 0.55663 0.00331 0.0
H130 H 0.43629 0.18238 0.93674 0.0
H131 H 0.45267 0.26358 0.94477 0.0
H132 H 0.49921 0.23803 0.99406 0.0
H133 H 0.49484 0.28535 0.02701 0.0
C134 C 0.48485 0.28754 0.00684 0.0
O135 O 0.49186 0.27821 0.98201 0.0
H136 H 0.46313 0.27575 0.01102 0.0
C137 C 0.44751 0.20206 0.94668 0.0
C138 C 0.46839 0.20743 0.96642 0.0
C139 C 0.44169 0.22213 0.93853 0.0
C140 C 0.45658 0.24771 0.95101 0.0
C141 C 0.4769 0.25314 0.97136 0.0
C142 C 0.48276 0.23312 0.97912 0.0
H143 H 0.84219 0.26659 0.93627 0.0
H144 H 0.76448 0.19763 0.9378 0.0
H145 H 0.78729 0.25789 0.00609 0.0
H146 H 0.75018 0.20244 0.02993 0.0
C147 C 0.7423 0.19262 0.00789 0.0
O148 O 0.74895 0.21216 0.9862 0.0
H149 H 0.75109 0.1799 0.00239 0.0
C150 C 0.82327 0.25495 0.94748 0.0
C151 C 0.81742 0.26517 0.97305 0.0
C152 C 0.80453 0.23075 0.93473 0.0
C153 C 0.77936 0.2162 0.94782 0.0
C154 C 0.77337 0.22583 0.97392 0.0
C155 C 0.7923 0.25037 0.98635 0.0
H156 H 0.56375 0.73144 0.08299 0.0
H157 H 0.56588 0.80678 0.09007 0.0
H158 H 0.51445 0.74846 0.02578 0.0
H159 H 0.53759 0.80647 0.00453 0.0
C160 C 0.54172 0.81582 0.02718 0.0
O161 O 0.5301 0.79609 0.04877 0.0
H162 H 0.56358 0.82718 0.03022 0.0
C163 C 0.55683 0.74483 0.07568 0.0
C164 C 0.53766 0.73665 0.05304 0.0
C165 C 0.5671 0.76992 0.08927 0.0
C166 C 0.55861 0.78753 0.07934 0.0
C167 C 0.53972 0.77984 0.05639 0.0
C168 C 0.52943 0.75449 0.04304 0.0
H169 H 0.25834 0.8323 0.06821 0.0
H170 H 0.19968 0.74867 0.0747 0.0
H171 H 0.26141 0.77508 0.0089 0.0
H172 H 0.2111 0.72529 0.98701 0.0
C173 C 0.20086 0.72302 0.0088 0.0
O174 O 0.21942 0.73378 0.03135 0.0
H175 H 0.18946 0.73375 0.00671 0.0
C176 C 0.24979 0.81195 0.06008 0.0
C177 C 0.26236 0.80635 0.03653 0.0
C178 C 0.22731 0.7913 0.07438 0.0
C179 C 0.21712 0.76491 0.0643 0.0
C180 C 0.22937 0.75924 0.04069 0.0
C181 C 0.25203 0.77982 0.02701 0.0
H182 H 0.17288 0.43482 0.06647 0.0
H183 H 0.24827 0.43933 0.07767 0.0
H184 H 0.23358 0.47396 -0.00048 0.0
H185 H 0.26706 0.45116 0.98566 0.0
C186 C 0.27496 0.45127 0.00844 0.0
O187 O 0.26855 0.46602 0.02753 0.0
H188 H 0.26602 0.43028 0.01663 0.0
C189 C 0.19269 0.4411 0.0584 0.0
C190 C 0.20113 0.45464 0.03089 0.0
C191 C 0.2095 0.43559 0.0756 0.0
C192 C 0.23497 0.4434 0.06468 0.0
C193 C 0.24363 0.45729 0.03727 0.0
C194 C 0.22678 0.46312 0.02055 0.0
H195 H 0.42239 0.91193 0.27353 0.0
H196 H 0.49341 0.90856 0.28923 0.0
H197 H 0.43204 0.87849 0.356 0.0
H198 H 0.48976 0.89783 0.3828 0.0
C199 C 0.49786 0.89817 0.36008 0.0
O200 O 0.47722 0.88317 0.34079 0.0
H201 H 0.5095 0.9193 0.35227 0.0
C202 C 0.43423 0.90689 0.28799 0.0
C203 C 0.42433 0.89491 0.31611 0.0
C204 C 0.45939 0.91243 0.27846 0.0
C205 C 0.47437 0.90526 0.29684 0.0
C206 C 0.46441 0.89305 0.32478 0.0
C207 C 0.43975 0.88845 0.33464 0.0
H208 H 0.10326 0.52025 0.26861 0.0
H209 H 0.13183 0.60489 0.27279 0.0
H210 H 0.16613 0.56988 0.32933 0.0
H211 H 0.17101 0.62403 0.35879 0.0
C212 C 0.16003 0.62463 0.33868 0.0
O213 O 0.16687 0.61442 0.31443 0.0
H214 H 0.13855 0.6123 0.34405 0.0
C215 C 0.11607 0.53968 0.27853 0.0
C216 C 0.13462 0.54223 0.30026 0.0
C217 C 0.11498 0.56215 0.26824 0.0
C218 C 0.13234 0.58733 0.28047 0.0
C219 C 0.15043 0.59001 0.30276 0.0
C220 C 0.15182 0.56756 0.31239 0.0
H221 H 0.50768 0.60495 0.26959 0.0
H222 H 0.43365 0.53126 0.27463 0.0
H223 H 0.4497 0.59508 0.33588 0.0
H224 H 0.41559 0.5384 0.36427 0.0
C225 C 0.40903 0.52776 0.34243 0.0
O226 O 0.41514 0.54634 0.31975 0.0
H227 H 0.41931 0.51613 0.33871 0.0
C228 C 0.48873 0.59264 0.28049 0.0
C229 C 0.48073 0.60342 0.3037 0.0
C230 C 0.47198 0.56683 0.26972 0.0
C231 C 0.44718 0.55101 0.2833 0.0
C232 C 0.43959 0.56096 0.30783 0.0
C233 C 0.45634 0.58714 0.31798 0.0
O234 O 0.45731 0.97346 0.00478 0.0
Mn235 Mn 0.49535 0.00686 0.01029 0.0
O236 O 0.42932 0.98284 0.02964 0.0
Mn237 Mn 0.45506 0.01233 0.04966 0.0
O238 O 0.53327 0.0402 0.0155 0.0
O239 O 0.51079 0.98362 -0.00172 0.0
Mn240 Mn 0.53475 0.00056 0.97023 0.0
O241 O 0.49415 0.01815 0.96519 0.0
O242 O 0.56047 0.03249 0.98656 0.0
O243 O 0.49658 0.9955 0.05493 0.0
O244 O 0.47055 0.00583 0.08229 0.0
O245 O 0.53501 0.96935 0.9764 0.0
O246 O 0.51696 0.00369 0.93794 0.0
C247 C 0.47508 0.04952 0.02703 0.0
C248 C 0.43384 0.968 0.01237 0.0
C249 C 0.55625 0.04689 0.00486 0.0
C250 C 0.51677 0.96485 0.99589 0.0
C251 C 0.50194 0.0137 0.93982 0.0
C252 C 0.48697 0.99751 0.08016 0.0
O253 O 0.48032 0.03034 0.02315 0.0
O254 O 0.45646 0.04456 0.04616 0.0
O255 O 0.04072 0.48724 0.00796 0.0
Mn256 Mn 0.00846 0.49323 0.01267 0.0
O257 O 0.03136 0.45021 0.0344 0.0
Mn258 Mn 0.00308 0.44834 0.05545 0.0
O259 O 0.97649 0.49976 0.01623 0.0
O260 O 0.03109 0.53041 -0.00285 0.0
Mn261 Mn 0.01627 0.53653 0.96624 0.0
O262 O 0.99612 0.47781 0.96911 0.0
O263 O 0.98391 0.5307 0.98045 0.0
O264 O 0.02031 0.50823 0.05632 0.0
O265 O 0.01077 0.47275 0.08595 0.0
O266 O 0.04747 0.56802 0.97295 0.0
O267 O 0.01441 0.51281 0.93748 0.0
C268 C 0.96592 0.43237 0.03311 0.0
C269 C 0.04576 0.46888 0.01602 0.0
C270 C 0.96984 0.51462 0.00135 0.0
C271 C 0.05026 0.55461 0.99455 0.0
C272 C 0.00215 0.48777 0.94244 0.0
C273 C 0.01857 0.49752 0.08225 0.0
O274 O 0.98567 0.45606 0.02877 0.0
O275 O 0.97003 0.4184 0.05291 0.0
O276 O 0.56198 0.52924 0.01025 0.0
Mn277 Mn 0.52299 0.52146 0.00457 0.0
O278 O 0.58832 0.56691 0.98469 0.0
Mn279 Mn 0.56132 0.56484 0.96127 0.0
O280 O 0.48386 0.51299 0.00086 0.0
O281 O 0.51015 0.4847 0.02159 0.0
Mn282 Mn 0.49086 0.48025 0.05355 0.0
O283 O 0.52526 0.53833 0.04737 0.0
O284 O 0.46358 0.48563 0.04051 0.0
O285 O 0.52099 0.50479 0.96212 0.0
O286 O 0.54838 0.53882 0.93189 0.0
O287 O 0.49008 0.44827 0.04832 0.0
O288 O 0.51394 0.505 0.08031 0.0
C289 C 0.53838 0.58117 0.97772 0.0
C290 C 0.58497 0.54866 0.00321 0.0
C291 C 0.46365 0.4995 0.01801 0.0
C292 C 0.50499 0.46038 0.02542 0.0
C293 C 0.52405 0.52969 0.07437 0.0
C294 C 0.53173 0.51424 0.93643 0.0
O295 O 0.53501 0.55805 0.98604 0.0
O296 O 0.55679 0.5938 0.95791 0.0
O297 O 0.12503 0.30618 0.34009 0.0
Mn298 Mn 0.16232 0.34025 0.34315 0.0
O299 O 0.10521 0.30974 0.38165 0.0
Mn300 Mn 0.13039 0.34477 0.39066 0.0
O301 O 0.19998 0.37433 0.34632 0.0
O302 O 0.17828 0.31831 0.32904 0.0
Mn303 Mn 0.20033 0.33447 0.29936 0.0
O304 O 0.15859 0.35111 0.29862 0.0
O305 O 0.22592 0.3671 0.31444 0.0
O306 O 0.16721 0.32828 0.38653 0.0
O307 O 0.15531 0.3493 0.41859 0.0
O308 O 0.20138 0.30354 0.30617 0.0
O309 O 0.17988 0.33623 0.26915 0.0
C310 C 0.13458 0.37683 0.36573 0.0
C311 C 0.10556 0.29687 0.3586 0.0
C312 C 0.22238 0.38138 0.33368 0.0
C313 C 0.18429 0.29965 0.32693 0.0
C314 C 0.165 0.34629 0.27255 0.0
C315 C 0.16683 0.33625 0.41327 0.0
O316 O 0.14535 0.36267 0.35693 0.0
O317 O 0.12072 0.36961 0.39029 0.0
O318 O 0.70866 0.82426 0.34189 0.0
Mn319 Mn 0.67416 0.82625 0.34731 0.0
O320 O 0.70312 0.78786 0.36705 0.0
Mn321 Mn 0.67226 0.78091 0.38642 0.0
O322 O 0.63988 0.82877 0.35233 0.0
O323 O 0.69473 0.86475 0.33527 0.0
Mn324 Mn 0.67838 0.87241 0.30739 0.0
O325 O 0.66418 0.81416 0.30218 0.0
O326 O 0.64624 0.86422 0.32421 0.0
O327 O 0.68393 0.83859 0.39209 0.0
O328 O 0.67619 0.8023 0.419 0.0
O329 O 0.70906 0.90399 0.31548 0.0
O330 O 0.67667 0.8517 0.27517 0.0
C331 C 0.63519 0.76307 0.36384 0.0
C332 C 0.71641 0.8079 0.34988 0.0
C333 C 0.63249 0.84486 0.34211 0.0
C334 C 0.71325 0.88937 0.33425 0.0
C335 C 0.66816 0.82667 0.27692 0.0
C336 C 0.68214 0.82672 0.41721 0.0
O337 O 0.65368 0.7876 0.36015 0.0
O338 O 0.64103 0.74922 0.38197 0.0
O339 O 0.22668 0.85832 0.34394 0.0
Mn340 Mn 0.18969 0.85547 0.33718 0.0
O341 O 0.25754 0.89856 0.32661 0.0
Mn342 Mn 0.23428 0.9027 0.30227 0.0
O343 O 0.15254 0.85205 0.33123 0.0
O344 O 0.17258 0.81653 0.34865 0.0
Mn345 Mn 0.14911 0.80953 0.37712 0.0
O346 O 0.19025 0.86736 0.3821 0.0
O347 O 0.12473 0.81785 0.36132 0.0
O348 O 0.1894 0.8442 0.2924 0.0
O349 O 0.22158 0.88072 0.26898 0.0
O350 O 0.1474 0.7775 0.36919 0.0
O351 O 0.1681 0.82978 0.40946 0.0
C352 C 0.2109 0.91829 0.31984 0.0
C353 C 0.25086 0.87702 0.34096 0.0
C354 C 0.12955 0.83651 0.34258 0.0
C355 C 0.16586 0.79154 0.34995 0.0
C356 C 0.18295 0.85497 0.40747 0.0
C357 C 0.20264 0.85654 0.26876 0.0
O358 O 0.20631 0.89421 0.32462 0.0
O359 O 0.23163 0.93303 0.30366 0.0
O360 O 0.79068 0.6401 0.67063 0.0
Mn361 Mn 0.82836 0.67374 0.67669 0.0
O362 O 0.76193 0.6487 0.69494 0.0
Mn363 Mn 0.78719 0.67796 0.71579 0.0
O364 O 0.8661 0.70723 0.6822 0.0
O365 O 0.84432 0.65118 0.66458 0.0
Mn366 Mn 0.86817 0.66781 0.63645 0.0
O367 O 0.82732 0.68524 0.63169 0.0
O368 O 0.89346 0.7 0.65281 0.0
O369 O 0.82937 0.66197 0.72117 0.0
O370 O 0.80231 0.67094 0.74848 0.0
O371 O 0.8685 0.63665 0.64356 0.0
O372 O 0.84984 0.67043 0.6044 0.0
C373 C 0.80718 0.71556 0.69388 0.0
C374 C 0.76701 0.63425 0.6777 0.0
C375 C 0.88909 0.71416 0.67136 0.0
C376 C 0.85032 0.63246 0.663 0.0
C377 C 0.83488 0.68052 0.60632 0.0
C378 C 0.81914 0.66315 0.7463 0.0
O379 O 0.81276 0.69665 0.68979 0.0
O380 O 0.78831 0.7101 0.71283 0.0
O381 O 0.37476 0.15763 0.66876 0.0
Mn382 Mn 0.34083 0.15978 0.68009 0.0
O383 O 0.36796 0.11796 0.6861 0.0
Mn384 Mn 0.33954 0.11097 0.71028 0.0
O385 O 0.30662 0.16137 0.69152 0.0
O386 O 0.36194 0.19917 0.67187 0.0
Mn387 Mn 0.34157 0.21022 0.65619 0.0
O388 O 0.32876 0.15297 0.63501 0.0
O389 O 0.31653 0.2039 0.685 0.0
O390 O 0.35272 0.16793 0.72489 0.0
O391 O 0.34665 0.12982 0.74592 0.0
O392 O 0.37465 0.24 0.65788 0.0
O393 O 0.32949 0.191 0.62092 0.0
C394 C 0.30124 0.09563 0.69137 0.0
C395 C 0.38138 0.13949 0.67118 0.0
C396 C 0.30161 0.18049 0.69518 0.0
C397 C 0.38117 0.22341 0.66914 0.0
C398 C 0.32545 0.16753 0.61534 0.0
C399 C 0.35247 0.1542 0.74775 0.0
O400 O 0.31995 0.12022 0.68887 0.0
O401 O 0.30761 0.08021 0.7059 0.0
O402 O 0.8953 0.1945 0.67366 0.0
Mn403 Mn 0.85689 0.18894 0.66851 0.0
O404 O 0.92294 0.23219 0.64875 0.0
Mn405 Mn 0.89669 0.23315 0.62681 0.0
O406 O 0.81843 0.18276 0.66491 0.0
O407 O 0.84216 0.15122 0.68369 0.0
Mn408 Mn 0.82222 0.14657 0.7152 0.0
O409 O 0.85961 0.20449 0.71215 0.0
O410 O 0.79593 0.1534 0.70223 0.0
O411 O 0.85393 0.17378 0.62491 0.0
O412 O 0.88165 0.2088 0.59606 0.0
O413 O 0.81998 0.11409 0.70907 0.0
O414 O 0.84475 0.16962 0.74361 0.0
C415 C 0.87533 0.25035 0.64552 0.0
C416 C 0.91872 0.21317 0.66653 0.0
C417 C 0.79742 0.16884 0.68076 0.0
C418 C 0.83579 0.12643 0.68687 0.0
C419 C 0.85653 0.19462 0.73879 0.0
C420 C 0.86408 0.18431 0.5993 0.0
O421 O 0.87093 0.22655 0.65221 0.0
O422 O 0.89412 0.26339 0.62624 0.0
H423 H 0.27133 0.85479 0.01604 0.0
H424 H 0.42745 0.91747 0.01014 0.0
H425 H 0.30931 0.80757 0.02684 0.0
H426 H 0.38689 0.96155 0.9941 0.0
H427 H 0.38479 0.87555 0.00746 0.0
H428 H 0.31342 0.8926 -0.00022 0.0
C429 C 0.28856 0.85237 0.01471 0.0
C430 C 0.28697 0.82819 0.02312 0.0
C431 C 0.38533 0.89438 0.00382 0.0
C432 C 0.33539 0.87145 0.00485 0.0
C433 C 0.40968 0.91824 0.00509 0.0
C434 C 0.41051 0.94289 0.00271 0.0
C435 C 0.36188 0.8954 0.00013 0.0
C436 C 0.38697 0.9429 0.99646 0.0
C437 C 0.3126 0.87391 0.00534 0.0
C438 C 0.30977 0.82594 0.02058 0.0
N439 N 0.36362 0.91959 0.99579 0.0
N440 N 0.33318 0.84745 0.01213 0.0
H441 H 0.20389 0.50263 0.02107 0.0
H442 H 0.04962 0.4266 -0.00341 0.0
H443 H 0.15607 0.41826 0.00354 0.0
H444 H 0.09571 0.5119 0.00949 0.0
H445 H 0.09007 0.42547 0.98662 0.0
H446 H 0.16708 0.50887 0.00491 0.0
C447 C 0.1859 0.48562 0.01281 0.0
C448 C 0.18268 0.4599 0.01376 0.0
C449 C 0.09148 0.44457 0.99117 0.0
C450 C 0.14061 0.46662 0.99594 0.0
C451 C 0.06836 0.44517 -0.00311 0.0
C452 C 0.06953 0.46928 0.00442 0.0
C453 C 0.11604 0.46814 0.99391 0.0
C454 C 0.09414 0.49288 0.00402 0.0
C455 C 0.16488 0.48911 0.00377 0.0
C456 C 0.15908 0.43837 0.00323 0.0
N457 N 0.1166 0.49166 -0.0004 0.0
N458 N 0.13879 0.44215 0.99516 0.0
H459 H 0.53033 0.72051 0.99404 0.0
H460 H 0.5248 0.58464 0.03603 0.0
H461 H 0.51972 0.69026 0.0847 0.0
H462 H 0.52088 0.60852 0.94528 0.0
H463 H 0.51501 0.61885 0.0545 0.0
H464 H 0.51969 0.6763 0.97539 0.0
C465 C 0.52517 0.7044 0.00995 0.0
C466 C 0.52638 0.70914 0.04092 0.0
C467 C 0.51552 0.61609 0.0305 0.0
C468 C 0.51461 0.65867 0.01996 0.0
C469 C 0.52074 0.59628 0.02003 0.0
C470 C 0.52371 0.59392 0.98918 0.0
C471 C 0.51359 0.63363 0.00986 0.0
C472 C 0.51891 0.60994 0.96931 0.0
C473 C 0.51921 0.67917 -0.00063 0.0
C474 C 0.51961 0.68756 0.06062 0.0
N475 N 0.51459 0.62943 0.97996 0.0
N476 N 0.51446 0.66343 0.04986 0.0
H477 H 0.87058 0.28538 0.97819 0.0
H478 H 0.91719 0.42021 0.05214 0.0
H479 H 0.81001 0.30648 0.99193 0.0
H480 H 0.95955 0.41294 0.97692 0.0
H481 H 0.87692 0.38017 0.03507 0.0
H482 H 0.90421 0.332 0.9857 0.0
C483 C 0.86433 0.29982 0.9829 0.0
C484 C 0.83742 0.29212 0.98376 0.0
C485 C 0.89475 0.38804 0.02162 0.0
C486 C 0.8759 0.34544 0.9927 0.0
C487 C 0.91757 0.41104 0.03106 0.0
C488 C 0.9415 0.41981 0.01571 0.0
C489 C 0.89642 0.37353 -0.00262 0.0
C490 C 0.94134 0.40687 0.98911 0.0
C491 C 0.88353 0.32641 0.98693 0.0
C492 C 0.83053 0.31158 0.99103 0.0
N493 N 0.91931 0.38376 0.98128 0.0
N494 N 0.84974 0.3375 0.99534 0.0
H495 H 0.71569 0.52019 0.00648 0.0
H496 H 0.62992 0.59236 0.0215 0.0
H497 H 0.74558 0.60483 0.99606 0.0
H498 H 0.59496 0.50717 0.00984 0.0
H499 H 0.67315 0.59606 0.02754 0.0
H500 H 0.67248 0.51437 0.02111 0.0
C501 C 0.71322 0.53757 0.00781 0.0
C502 C 0.73398 0.56298 -0.00024 0.0
C503 C 0.65602 0.57646 0.02414 0.0
C504 C 0.68503 0.55656 0.01659 0.0
C505 C 0.63134 0.57434 0.02084 0.0
C506 C 0.60904 0.5495 0.01467 0.0
C507 C 0.65851 0.55365 0.02065 0.0
C508 C 0.61179 0.5267 0.01443 0.0
C509 C 0.68863 0.53424 0.01607 0.0
C510 C 0.7299 0.58487 0.0017 0.0
N511 N 0.63628 0.52938 0.0167 0.0
N512 N 0.70586 0.58113 0.00977 0.0
H513 H 0.46894 0.17121 0.9268 0.0
H514 H 0.50604 0.0971 0.053 0.0
H515 H 0.48514 0.19612 0.01949 0.0
H516 H 0.47036 0.06064 0.96867 0.0
H517 H 0.51022 0.13924 0.03559 0.0
H518 H 0.47883 0.13561 0.9375 0.0
C519 C 0.4745 0.16921 0.94945 0.0
C520 C 0.47577 0.18655 0.9724 0.0
C521 C 0.50223 0.12232 0.02046 0.0
C522 C 0.48796 0.14618 0.98448 0.0
C523 C 0.50034 0.09843 0.03016 0.0
C524 C 0.48828 0.07561 0.01198 0.0
C525 C 0.49168 0.12326 0.99246 0.0
C526 C 0.48035 0.07802 0.98301 0.0
C527 C 0.48041 0.149 0.95541 0.0
C528 C 0.48396 0.18338 0.00103 0.0
N529 N 0.48176 0.10135 0.97427 0.0
N530 N 0.48958 0.16351 0.00628 0.0
H531 H 0.70621 0.17569 0.96173 0.0
H532 H 0.58603 0.06446 0.05617 0.0
H533 H 0.71146 0.16776 0.05746 0.0
H534 H 0.57888 0.08825 0.96648 0.0
H535 H 0.63068 0.1039 0.05943 0.0
H536 H 0.65874 0.14471 0.96435 0.0
C537 C 0.69725 0.16776 0.98341 0.0
C538 C 0.71266 0.17484 0.00954 0.0
C539 C 0.61907 0.10085 0.03934 0.0
C540 C 0.65827 0.13859 0.01267 0.0
C541 C 0.59356 0.07855 0.03764 0.0
C542 C 0.57893 0.07343 0.0111 0.0
C543 C 0.62989 0.11767 0.01411 0.0
C544 C 0.58963 0.09174 0.98736 0.0
C545 C 0.67011 0.15002 0.98494 0.0
C546 C 0.70013 0.16318 0.0369 0.0
N547 N 0.61456 0.11285 0.98927 0.0
N548 N 0.67365 0.1455 0.03777 0.0
H549 H 0.85089 0.54746 0.07243 0.0
H550 H 0.93347 0.50856 0.96045 0.0
H551 H 0.85111 0.55341 0.97584 0.0
H552 H 0.94923 0.51831 0.05554 0.0
H553 H 0.89618 0.51579 0.96786 0.0
H554 H 0.88155 0.52993 0.06858 0.0
C555 C 0.85726 0.54487 0.05046 0.0
C556 C 0.84826 0.55149 0.02435 0.0
C557 C 0.90756 0.51613 0.98725 0.0
C558 C 0.88294 0.53149 0.0198 0.0
C559 C 0.92871 0.51184 0.98302 0.0
C560 C 0.94445 0.51319 0.00739 0.0
C561 C 0.90235 0.5223 0.01602 0.0
C562 C 0.93744 0.51719 0.03624 0.0
C563 C 0.87466 0.53487 0.04828 0.0
C564 C 0.85733 0.5482 0.99645 0.0
N565 N 0.91704 0.52208 0.03977 0.0
N566 N 0.87407 0.53835 0.99493 0.0
H567 H 0.53062 0.33235 0.02415 0.0
H568 H 0.47807 0.43052 0.97761 0.0
H569 H 0.45779 0.30786 0.97667 0.0
H570 H 0.54743 0.45385 0.03134 0.0
H571 H 0.47736 0.389 0.96455 0.0
H572 H 0.54277 0.37923 0.01676 0.0
C573 C 0.51723 0.33695 0.01215 0.0
C574 C 0.49286 0.31639 0.00178 0.0
C575 C 0.49334 0.40358 0.97832 0.0
C576 C 0.50672 0.36981 0.99269 0.0
C577 C 0.49405 0.42754 0.98524 0.0
C578 C 0.5129 0.44553 0.00544 0.0
C579 C 0.51146 0.39761 0.99211 0.0
C580 C 0.53272 0.44048 0.01546 0.0
C581 C 0.52421 0.36366 0.00773 0.0
C582 C 0.47648 0.32326 0.98563 0.0
N583 N 0.53114 0.41667 0.00929 0.0
N584 N 0.48354 0.3494 0.98191 0.0
H585 H 0.2005 0.67877 0.98571 0.0
H586 H 0.05653 0.58201 0.04594 0.0
H587 H 0.1593 0.70201 0.04824 0.0
H588 H 0.09751 0.55873 0.98333 0.0
H589 H 0.09856 0.62145 0.05923 0.0
H590 H 0.16761 0.63175 0.99454 0.0
C591 C 0.18455 0.67385 0.00146 0.0
C592 C 0.182 0.6941 0.01562 0.0
C593 C 0.09861 0.60726 0.04337 0.0
C594 C 0.14453 0.64053 0.02617 0.0
C595 C 0.07466 0.58449 0.03623 0.0
C596 C 0.07375 0.56733 0.01351 0.0
C597 C 0.12149 0.61298 0.02706 0.0
C598 C 0.09757 0.57158 0.00107 0.0
C599 C 0.16589 0.64706 0.00668 0.0
C600 C 0.16145 0.68684 0.03638 0.0
N601 N 0.12045 0.59442 0.00737 0.0
N602 N 0.14322 0.66063 0.04069 0.0
H603 H 0.30695 0.45972 0.95916 0.0
H604 H 0.43656 0.50945 0.05987 0.0
H605 H 0.30976 0.46863 0.05545 0.0
H606 H 0.43495 0.49088 0.9659 0.0
H607 H 0.39192 0.50235 0.05578 0.0
H608 H 0.35494 0.47707 0.95874 0.0
C609 C 0.31776 0.46566 0.98013 0.0
C610 C 0.30453 0.46321 0.00735 0.0
C611 C 0.40128 0.50003 0.03589 0.0
C612 C 0.35913 0.48282 0.00707 0.0
C613 C 0.42681 0.50422 0.03821 0.0
C614 C 0.43919 0.50045 0.01325 0.0
C615 C 0.38773 0.49153 0.00848 0.0
C616 C 0.42593 0.49394 0.98562 0.0
C617 C 0.34508 0.47552 0.97988 0.0
C618 C 0.31928 0.47064 0.03395 0.0
N619 N 0.40062 0.48924 0.98404 0.0
N620 N 0.34573 0.48012 0.03312 0.0
H621 H 0.55555 0.85649 0.06763 0.0
H622 H 0.47781 0.91596 0.97945 0.0
H623 H 0.50356 0.81789 0.99281 0.0
H624 H 0.53371 0.95785 0.04995 0.0
H625 H 0.47776 0.87493 0.99342 0.0
H626 H 0.54039 0.88925 0.06931 0.0
C627 C 0.5408 0.85488 0.0517 0.0
C628 C 0.53119 0.8349 0.02964 0.0
C629 C 0.48937 0.89281 0.0066 0.0
C630 C 0.5135 0.872 0.03155 0.0
C631 C 0.48893 0.91611 -0.00097 0.0
C632 C 0.50564 0.9402 0.01373 0.0
C633 C 0.50698 0.89381 0.02878 0.0
C634 C 0.52031 0.93955 0.0383 0.0
C635 C 0.53207 0.87347 0.05271 0.0
C636 C 0.51178 0.83331 0.00983 0.0
N637 N 0.52117 0.91689 0.04463 0.0
N638 N 0.50381 0.8518 0.01101 0.0
H639 H 0.96595 0.15801 0.41321 0.0
H640 H 0.07268 0.27543 0.30968 0.0
H641 H 0.95006 0.16562 0.32027 0.0
H642 H 0.08648 0.25759 0.39968 0.0
H643 H 0.02951 0.23359 0.30985 0.0
H644 H 0.0116 0.19299 0.40614 0.0
C645 C 0.97223 0.16722 0.39125 0.0
C646 C 0.95432 0.15928 0.3674 0.0
C647 C 0.04227 0.23862 0.32927 0.0
C648 C 0.00671 0.1996 0.35891 0.0
C649 C 0.06689 0.2623 0.32907 0.0
C650 C 0.08287 0.26981 0.35479 0.0
C651 C 0.03393 0.22265 0.35538 0.0
C652 C 0.07454 0.2525 0.37952 0.0
C653 C 0.99834 0.18711 0.3871 0.0
C654 C 0.96342 0.17144 0.33922 0.0
N655 N 0.05063 0.22991 0.37927 0.0
N656 N 0.98903 0.19134 0.33578 0.0
H657 H 0.82336 0.75524 0.3309 0.0
H658 H 0.72984 0.79173 0.29876 0.0
H659 H 0.87246 0.83608 0.36184 0.0
H660 H 0.76151 0.83426 0.38162 0.0
H661 H 0.77138 0.79126 0.29048 0.0
H662 H 0.78923 0.76615 0.31673 0.0
C663 C 0.82724 0.77555 0.3336 0.0
C664 C 0.85059 0.79492 0.34727 0.0
C665 C 0.76934 0.80114 0.31012 0.0
C666 C 0.81179 0.80736 0.33193 0.0
C667 C 0.74589 0.8016 0.31469 0.0
C668 C 0.74261 0.81308 0.34083 0.0
C669 C 0.7893 0.81218 0.33199 0.0
C670 C 0.7636 0.8254 0.36111 0.0
C671 C 0.80789 0.78181 0.32546 0.0
C672 C 0.85468 0.82079 0.35107 0.0
N673 N 0.78608 0.82445 0.35639 0.0
N674 N 0.8351 0.82611 0.3442 0.0
H675 H 0.19752 0.05368 0.32559 0.0
H676 H 0.19673 0.92264 0.37703 0.0
H677 H 0.19242 0.02939 0.41819 0.0
H678 H 0.19007 0.94097 0.28479 0.0
H679 H 0.18496 0.95603 0.39299 0.0
H680 H 0.18572 0.00829 0.31008 0.0
C681 C 0.19338 0.03863 0.34261 0.0
C682 C 0.19652 0.04535 0.37314 0.0
C683 C 0.18516 0.95215 0.36923 0.0
C684 C 0.18329 0.99361 0.35578 0.0
C685 C 0.19142 0.93274 0.36024 0.0
C686 C 0.1942 0.92914 0.3297 0.0
C687 C 0.18222 0.96821 0.34737 0.0
C688 C 0.1881 0.94333 0.30862 0.0
C689 C 0.18669 0.01273 0.33383 0.0
C690 C 0.19087 0.02513 0.39436 0.0
N691 N 0.18294 0.96267 0.31781 0.0
N692 N 0.18497 0.00033 0.3853 0.0
H693 H 0.50597 0.64542 0.26484 0.0
H694 H 0.59008 0.74744 0.39435 0.0
H695 H 0.49369 0.62696 0.35954 0.0
H696 H 0.62055 0.74823 0.30612 0.0
H697 H 0.54628 0.71223 0.37821 0.0
H698 H 0.53955 0.69125 0.277 0.0
C699 C 0.51019 0.65107 0.28824 0.0
C700 C 0.49761 0.63212 0.31126 0.0
C701 C 0.56229 0.72085 0.36203 0.0
C702 C 0.53547 0.68472 0.32517 0.0
C703 C 0.58713 0.74112 0.37107 0.0
C704 C 0.60861 0.75104 0.35118 0.0
C705 C 0.5591 0.71041 0.33296 0.0
C706 C 0.60418 0.74173 0.32161 0.0
C707 C 0.5292 0.67727 0.29508 0.0
C708 C 0.50311 0.64083 0.34113 0.0
N709 N 0.57991 0.72158 0.31343 0.0
N710 N 0.52195 0.66648 0.34726 0.0
H711 H 0.37863 0.86395 0.28583 0.0
H712 H 0.29417 0.91014 0.37371 0.0
H713 H 0.40883 0.90931 0.3674 0.0
H714 H 0.25752 0.83502 0.32648 0.0
H715 H 0.33598 0.90986 0.37405 0.0
H716 H 0.33392 0.85328 0.30041 0.0
C717 C 0.37573 0.87157 0.30686 0.0
C718 C 0.39728 0.88772 0.32534 0.0
C719 C 0.31862 0.89303 0.36441 0.0
C720 C 0.34646 0.87571 0.34212 0.0
C721 C 0.29478 0.89312 0.36437 0.0
C722 C 0.27253 0.87256 0.35008 0.0
C723 C 0.32033 0.87272 0.34908 0.0
C724 C 0.27427 0.85112 0.3379 0.0
C725 C 0.35027 0.86526 0.31533 0.0
C726 C 0.39261 0.89688 0.35255 0.0
N727 N 0.29803 0.8521 0.33694 0.0
N728 N 0.36769 0.89113 0.35992 0.0
H729 H 0.17775 0.53511 0.29978 0.0
H730 H 0.09302 0.38371 0.35692 0.0
H731 H 0.09449 0.49469 0.32047 0.0
H732 H 0.17608 0.41981 0.33639 0.0
H733 H 0.09343 0.42373 0.33952 0.0
H734 H 0.17824 0.49349 0.31076 0.0
C735 C 0.15969 0.51755 0.307 0.0
C736 C 0.13605 0.51825 0.30934 0.0
C737 C 0.1116 0.423 0.33832 0.0
C738 C 0.13637 0.47075 0.32153 0.0
C739 C 0.11132 0.4 0.34806 0.0
C740 C 0.13457 0.39849 0.34809 0.0
C741 C 0.13541 0.44506 0.3287 0.0
C742 C 0.15771 0.42017 0.33648 0.0
C743 C 0.15992 0.4938 0.31297 0.0
C744 C 0.11309 0.49493 0.31829 0.0
N745 N 0.15766 0.44284 0.32756 0.0
N746 N 0.11386 0.47222 0.32409 0.0
H747 H 0.3758 0.50602 0.29431 0.0
H748 H 0.24956 0.40088 0.38655 0.0
H749 H 0.37594 0.50456 0.39117 0.0
H750 H 0.24837 0.42051 0.29335 0.0
H751 H 0.29471 0.43955 0.39075 0.0
H752 H 0.32849 0.47438 0.29471 0.0
C753 C 0.36574 0.49926 0.31571 0.0
C754 C 0.37963 0.5085 0.34275 0.0
C755 C 0.28428 0.43574 0.3696 0.0
C756 C 0.32537 0.47158 0.34349 0.0
C757 C 0.2585 0.41391 0.36733 0.0
C758 C 0.24544 0.40777 0.33959 0.0
C759 C 0.29684 0.45108 0.34383 0.0
C760 C 0.25791 0.42473 0.31511 0.0
C761 C 0.33869 0.48117 0.31598 0.0
C762 C 0.36576 0.49832 0.36985 0.0
N763 N 0.28297 0.4454 0.31771 0.0
N764 N 0.33934 0.4803 0.36957 0.0
H765 H 0.51922 0.88612 0.40908 0.0
H766 H 0.59095 0.82852 0.30527 0.0
H767 H 0.51736 0.8841 0.31222 0.0
H768 H 0.61677 0.85526 0.39566 0.0
H769 H 0.55429 0.83701 0.31225 0.0
H770 H 0.54768 0.86583 0.40838 0.0
C771 C 0.52471 0.88126 0.38774 0.0
C772 C 0.51572 0.88639 0.36066 0.0
C773 C 0.56758 0.84048 0.33085 0.0
C774 C 0.54763 0.86303 0.35973 0.0
C775 C 0.58821 0.83527 0.32699 0.0
C776 C 0.60657 0.84109 0.35001 0.0
C777 C 0.56562 0.852 0.35778 0.0
C778 C 0.60267 0.85028 0.37758 0.0
C779 C 0.54079 0.86965 0.38737 0.0
C780 C 0.5236 0.88011 0.33358 0.0
N781 N 0.58275 0.85591 0.38062 0.0
N782 N 0.53895 0.86862 0.33383 0.0
H783 H 0.1329 0.64114 0.30256 0.0
H784 H 0.21082 0.79036 0.36113 0.0
H785 H 0.20175 0.67191 0.35918 0.0
H786 H 0.14411 0.76019 0.30147 0.0
H787 H 0.21481 0.75088 0.35069 0.0
H788 H 0.14208 0.68689 0.29365 0.0
C789 C 0.15011 0.65763 0.31285 0.0
C790 C 0.1664 0.65283 0.33192 0.0
C791 C 0.19987 0.75329 0.33897 0.0
C792 C 0.17709 0.70525 0.32201 0.0
C793 C 0.19797 0.77613 0.34447 0.0
C794 C 0.17715 0.77843 0.33206 0.0
C795 C 0.18055 0.7326 0.32124 0.0
C796 C 0.16053 0.75912 0.31131 0.0
C797 C 0.15542 0.68375 0.30774 0.0
C798 C 0.18853 0.67483 0.34465 0.0
N799 N 0.16215 0.73666 0.30709 0.0
N800 N 0.19303 0.70006 0.33979 0.0
H801 H 0.86322 0.01148 0.31194 0.0
H802 H 0.7241 0.91677 0.38627 0.0
H803 H 0.82463 0.03664 0.37591 0.0
H804 H 0.75873 0.89149 0.31762 0.0
H805 H 0.76722 0.95626 0.39516 0.0
H806 H 0.83096 0.96468 0.32347 0.0
C807 C 0.84795 0.00705 0.32849 0.0
C808 C 0.84599 0.02775 0.34243 0.0
C809 C 0.76571 0.94165 0.37887 0.0
C810 C 0.80949 0.97452 0.35625 0.0
C811 C 0.74118 0.9188 0.37429 0.0
C812 C 0.73799 0.90113 0.35106 0.0
C813 C 0.78685 0.94692 0.35957 0.0
C814 C 0.76053 0.90481 0.33574 0.0
C815 C 0.82972 0.98041 0.33528 0.0
C816 C 0.82636 0.02113 0.36426 0.0
N817 N 0.78393 0.92779 0.33956 0.0
N818 N 0.80866 0.99508 0.37024 0.0
H819 H 0.97141 0.78942 0.29062 0.0
H820 H 0.1091 0.85903 0.37847 0.0
H821 H 0.98085 0.81181 0.38408 0.0
H822 H 0.09839 0.82072 0.29262 0.0
H823 H 0.06441 0.85246 0.37505 0.0
H824 H 0.01959 0.8097 0.28613 0.0
C825 C 0.98369 0.79902 0.31003 0.0
C826 C 0.97222 0.79938 0.33761 0.0
C827 C 0.07199 0.84604 0.35657 0.0
C828 C 0.02713 0.82235 0.33275 0.0
C829 C 0.09757 0.85011 0.35837 0.0
C830 C 0.10729 0.84059 0.33566 0.0
C831 C 0.05591 0.83195 0.33207 0.0
C832 C 0.09155 0.82861 0.31036 0.0
C833 C 0.01112 0.81055 0.30747 0.0
C834 C 0.98892 0.81153 0.36227 0.0
N835 N 0.06639 0.82426 0.3094 0.0
N836 N 0.0155 0.82251 0.35924 0.0
H837 H 0.22691 0.19318 0.39336 0.0
H838 H 0.14301 0.25043 0.31589 0.0
H839 H 0.16499 0.15002 0.32889 0.0
H840 H 0.20594 0.29494 0.37861 0.0
H841 H 0.14263 0.20945 0.33094 0.0
H842 H 0.21302 0.22683 0.39716 0.0
C843 C 0.21027 0.19078 0.38016 0.0
C844 C 0.1975 0.1693 0.36018 0.0
C845 C 0.15593 0.22797 0.34226 0.0
C846 C 0.18124 0.20737 0.36459 0.0
C847 C 0.15574 0.25128 0.33408 0.0
C848 C 0.17443 0.27595 0.34619 0.0
C849 C 0.17531 0.22958 0.36227 0.0
C850 C 0.19107 0.27617 0.369 0.0
C851 C 0.20225 0.20986 0.38242 0.0
C852 C 0.17569 0.16666 0.34406 0.0
N853 N 0.1916 0.25344 0.3758 0.0
N854 N 0.16848 0.18566 0.34629 0.0
H855 H 0.60469 0.51931 0.67198 0.0
H856 H 0.76135 0.5841 0.67648 0.0
H857 H 0.64358 0.47499 0.69523 0.0
H858 H 0.72046 0.62729 0.65705 0.0
H859 H 0.71914 0.54186 0.67244 0.0
H860 H 0.64721 0.55678 0.65566 0.0
C861 C 0.62226 0.51748 0.67326 0.0
C862 C 0.62091 0.49435 0.68506 0.0
C863 C 0.71953 0.56057 0.66835 0.0
C864 C 0.66963 0.53711 0.66723 0.0
C865 C 0.74363 0.5846 0.6704 0.0
C866 C 0.74416 0.60906 0.66745 0.0
C867 C 0.69606 0.56124 0.66322 0.0
C868 C 0.72072 0.60877 0.65987 0.0
C869 C 0.64651 0.53878 0.66398 0.0
C870 C 0.64403 0.49265 0.6862 0.0
N871 N 0.69759 0.58528 0.65838 0.0
N872 N 0.66759 0.51397 0.67786 0.0
H873 H 0.53919 0.17358 0.69019 0.0
H874 H 0.389 0.10446 0.63864 0.0
H875 H 0.48967 0.0901 0.66922 0.0
H876 H 0.43082 0.18327 0.67739 0.0
H877 H 0.4307 0.10467 0.63343 0.0
H878 H 0.50464 0.18227 0.67095 0.0
C879 C 0.52132 0.15728 0.68071 0.0
C880 C 0.517 0.13111 0.68132 0.0
C881 C 0.43096 0.12223 0.64241 0.0
C882 C 0.47765 0.14072 0.65956 0.0
C883 C 0.40719 0.1222 0.64513 0.0
C884 C 0.40656 0.14376 0.65873 0.0
C885 C 0.45421 0.14375 0.65401 0.0
C886 C 0.43057 0.16626 0.6668 0.0
C887 C 0.50163 0.16218 0.66988 0.0
C888 C 0.49355 0.11052 0.66917 0.0
N889 N 0.45346 0.16543 0.66501 0.0
N890 N 0.47465 0.11572 0.65903 0.0
H891 H 0.86669 0.38941 0.65964 0.0
H892 H 0.86479 0.25568 0.70429 0.0
H893 H 0.86209 0.36295 0.7513 0.0
H894 H 0.85569 0.27595 0.6136 0.0
H895 H 0.85596 0.29054 0.72276 0.0
H896 H 0.85585 0.34473 0.64249 0.0
C897 C 0.86294 0.37406 0.67612 0.0
C898 C 0.86582 0.38 0.70686 0.0
C899 C 0.85508 0.28683 0.69883 0.0
C900 C 0.85366 0.32899 0.68759 0.0
C901 C 0.8597 0.26663 0.68841 0.0
C902 C 0.86088 0.26305 0.6575 0.0
C903 C 0.85203 0.30358 0.67803 0.0
C904 C 0.85498 0.27827 0.63767 0.0
C905 C 0.85681 0.34856 0.66639 0.0
C906 C 0.86076 0.35937 0.72732 0.0
N907 N 0.85131 0.2982 0.64821 0.0
N908 N 0.85532 0.33494 0.71734 0.0
H909 H 0.15907 0.95785 0.69438 0.0
H910 H 0.28245 0.08809 0.63407 0.0
H911 H 0.17203 0.97795 0.60011 0.0
H912 H 0.25851 0.07622 0.72692 0.0
H913 H 0.23811 0.05244 0.62008 0.0
H914 H 0.19136 0.00429 0.70651 0.0
C915 C 0.16839 0.97212 0.67627 0.0
C916 C 0.16336 0.9639 0.64623 0.0
C917 C 0.24219 0.05826 0.64344 0.0
C918 C 0.20046 0.01697 0.6598 0.0
C919 C 0.26739 0.07891 0.65129 0.0
C920 C 0.27389 0.08494 0.68159 0.0
C921 C 0.22386 0.04344 0.66623 0.0
C922 C 0.25403 0.07204 0.70326 0.0
C923 C 0.18684 0.99865 0.68315 0.0
C924 C 0.17598 0.98326 0.62361 0.0
N925 N 0.23006 0.05143 0.69527 0.0
N926 N 0.19425 0.00876 0.63084 0.0
H927 H 0.04864 0.18228 0.66531 0.0
H928 H 0.96382 0.25506 0.6873 0.0
H929 H 0.07882 0.26711 0.65671 0.0
H930 H 0.92779 0.17071 0.66886 0.0
H931 H 0.00678 0.25781 0.6914 0.0
H932 H 0.00531 0.17634 0.67979 0.0
C933 C 0.0462 0.19966 0.66692 0.0
C934 C 0.06714 0.22519 0.65951 0.0
C935 C 0.98947 0.23857 0.68695 0.0
C936 C 0.01803 0.21862 0.67629 0.0
C937 C 0.96493 0.23695 0.68483 0.0
C938 C 0.94237 0.2127 0.67736 0.0
C939 C 0.99161 0.21584 0.6811 0.0
C940 C 0.94478 0.18979 0.67461 0.0
C941 C 0.02154 0.19625 0.6751 0.0
C942 C 0.06305 0.24706 0.66185 0.0
N943 N 0.96915 0.192 0.67589 0.0
N944 N 0.03898 0.24326 0.66994 0.0
H945 H 0.8009 0.83728 0.59327 0.0
H946 H 0.83681 0.76304 0.72062 0.0
H947 H 0.81689 0.86236 0.68592 0.0
H948 H 0.80338 0.72707 0.63534 0.0
H949 H 0.84076 0.80505 0.70318 0.0
H950 H 0.8104 0.80143 0.60437 0.0
C951 C 0.8063 0.83525 0.61599 0.0
C952 C 0.80776 0.8528 0.63878 0.0
C953 C 0.83329 0.78827 0.68787 0.0
C954 C 0.81946 0.81214 0.65133 0.0
C955 C 0.83153 0.76446 0.69762 0.0
C956 C 0.82018 0.74181 0.67917 0.0
C957 C 0.82327 0.7893 0.65954 0.0
C958 C 0.81279 0.74433 0.64994 0.0
C959 C 0.81201 0.81491 0.62218 0.0
C960 C 0.81565 0.84953 0.66755 0.0
N961 N 0.81403 0.76757 0.64114 0.0
N962 N 0.82107 0.82956 0.673 0.0
H963 H 0.04542 0.83468 0.72693 0.0
H964 H 0.9104 0.75655 0.63428 0.0
H965 H 0.03809 0.84147 0.63134 0.0
H966 H 0.92003 0.73055 0.72176 0.0
H967 H 0.9547 0.79557 0.63806 0.0
H968 H 0.99759 0.8029 0.72972 0.0
C969 C 0.03366 0.82979 0.70666 0.0
C970 C 0.0456 0.84123 0.679 0.0
C971 C 0.94701 0.78168 0.65675 0.0
C972 C 0.99118 0.805 0.68197 0.0
C973 C 0.92164 0.75964 0.65473 0.0
C974 C 0.91168 0.74065 0.67787 0.0
C975 C 0.96267 0.78455 0.68195 0.0
C976 C 0.92706 0.74508 0.70367 0.0
C977 C 0.00646 0.81168 0.70826 0.0
C978 C 0.02965 0.83369 0.65325 0.0
N979 N 0.95204 0.76651 0.70492 0.0
N980 N 0.00331 0.81618 0.6554 0.0
H981 H 0.17528 0.19713 0.64769 0.0
H982 H 0.29046 0.20364 0.74153 0.0
H983 H 0.18673 0.22304 0.74002 0.0
H984 H 0.25449 0.14732 0.6693 0.0
H985 H 0.25116 0.20845 0.74439 0.0
H986 H 0.2036 0.17773 0.65603 0.0
C987 C 0.18331 0.19823 0.66991 0.0
C988 C 0.17813 0.2111 0.69346 0.0
C989 C 0.25143 0.19434 0.72858 0.0
C990 C 0.21114 0.18958 0.70292 0.0
C991 C 0.27371 0.19139 0.72721 0.0
C992 C 0.27547 0.17494 0.70531 0.0
C993 C 0.2313 0.18144 0.7072 0.0
C994 C 0.25362 0.15993 0.68673 0.0
C995 C 0.19943 0.18709 0.67468 0.0
C996 C 0.18987 0.21283 0.72147 0.0
N997 N 0.23267 0.1641 0.68751 0.0
N998 N 0.20604 0.20239 0.72539 0.0
H999 H 0.78959 0.97152 0.64285 0.0
H1000 H 0.8801 0.12281 0.69073 0.0
H1001 H 0.864 0.00163 0.68881 0.0
H1002 H 0.8073 0.09354 0.64182 0.0
H1003 H 0.88016 0.0814 0.67927 0.0
H1004 H 0.79975 0.0176 0.63363 0.0
C1005 C 0.80809 0.98794 0.65094 0.0
C1006 C 0.82569 0.98294 0.66729 0.0
C1007 C 0.86463 0.08434 0.67006 0.0
C1008 C 0.83774 0.03562 0.65649 0.0
C1009 C 0.86493 0.10826 0.67608 0.0
C1010 C 0.84371 0.11148 0.66709 0.0
C1011 C 0.84269 0.0635 0.65539 0.0
C1012 C 0.82411 0.09177 0.64893 0.0
C1013 C 0.81401 0.01421 0.64551 0.0
C1014 C 0.84967 0.00476 0.67672 0.0
N1015 N 0.82367 0.06827 0.64431 0.0
N1016 N 0.85486 0.03017 0.67153 0.0
H1017 H 0.5024 0.36455 0.71955 0.0
H1018 H 0.41993 0.22998 0.63112 0.0
H1019 H 0.51819 0.35249 0.62804 0.0
H1020 H 0.40478 0.24191 0.72271 0.0
H1021 H 0.46397 0.26932 0.63461 0.0
H1022 H 0.47368 0.3162 0.72531 0.0
C1023 C 0.49994 0.35158 0.70079 0.0
C1024 C 0.51239 0.36237 0.67325 0.0
C1025 C 0.45151 0.26277 0.65443 0.0
C1026 C 0.47958 0.30712 0.67948 0.0
C1027 C 0.42656 0.23994 0.65261 0.0
C1028 C 0.40879 0.23295 0.67664 0.0
C1029 C 0.45835 0.27866 0.68039 0.0
C1030 C 0.41804 0.24669 0.70376 0.0
C1031 C 0.48371 0.324 0.70408 0.0
C1032 C 0.50873 0.34487 0.64957 0.0
N1033 N 0.44193 0.26945 0.70467 0.0
N1034 N 0.49238 0.3181 0.65311 0.0
H1035 H 0.6454 0.14527 0.72279 0.0
H1036 H 0.76836 0.15867 0.62891 0.0
H1037 H 0.63968 0.12362 0.62932 0.0
H1038 H 0.77167 0.18174 0.7215 0.0
H1039 H 0.72299 0.15119 0.62578 0.0
H1040 H 0.69307 0.16331 0.72051 0.0
C1041 C 0.65429 0.1447 0.70163 0.0
C1042 C 0.63866 0.1335 0.67602 0.0
C1043 C 0.73387 0.15842 0.64658 0.0
C1044 C 0.69333 0.15345 0.67337 0.0
C1045 C 0.75979 0.16293 0.64823 0.0
C1046 C 0.77354 0.17075 0.67551 0.0
C1047 C 0.7219 0.16179 0.67243 0.0
C1048 C 0.76156 0.1756 0.7001 0.0
C1049 C 0.68154 0.15495 0.70032 0.0
C1050 C 0.65114 0.13255 0.64942 0.0
N1051 N 0.73639 0.17082 0.69806 0.0
N1052 N 0.67774 0.14231 0.64878 0.0
H1053 H 0.89203 0.52584 0.72919 0.0
H1054 H 0.80917 0.58352 0.6503 0.0
H1055 H 0.83145 0.48317 0.66315 0.0
H1056 H 0.87005 0.62687 0.71562 0.0
H1057 H 0.80867 0.54236 0.66481 0.0
H1058 H 0.87769 0.55912 0.73293 0.0
C1059 C 0.87558 0.52347 0.71564 0.0
C1060 C 0.86331 0.50222 0.69528 0.0
C1061 C 0.82151 0.56064 0.6768 0.0
C1062 C 0.84654 0.53989 0.6996 0.0
C1063 C 0.82136 0.58404 0.66893 0.0
C1064 C 0.8396 0.60849 0.68191 0.0
C1065 C 0.84037 0.56196 0.69742 0.0
C1066 C 0.85553 0.60828 0.70531 0.0
C1067 C 0.8673 0.54234 0.71786 0.0
C1068 C 0.84175 0.49962 0.67865 0.0
N1069 N 0.85608 0.58552 0.71181 0.0
N1070 N 0.83428 0.51844 0.68086 0.0
H1071 H 0.44668 0.88837 0.2238 0.0
H1072 H 0.50035 0.02264 0.13397 0.0
H1073 H 0.49428 0.96476 0.26633 0.0
H1074 H 0.48518 0.94986 0.09 0.0
H1075 H 0.49933 0.00236 0.18263 0.0
H1076 H 0.46047 0.91019 0.1744 0.0
C1077 C 0.46033 0.90971 0.22258 0.0
C1078 C 0.46945 0.92491 0.24886 0.0
C1079 C 0.49682 0.99099 0.16235 0.0
C1080 C 0.48499 0.94999 0.19287 0.0
C1081 C 0.49749 0.00259 0.13462 0.0
C1082 C 0.49293 0.98787 0.10809 0.0
C1083 C 0.49072 0.96419 0.1636 0.0
C1084 C 0.48903 0.96189 0.11002 0.0
C1085 C 0.46827 0.92212 0.19452 0.0
C1086 C 0.48693 0.95247 0.2464 0.0
N1087 N 0.48744 0.95061 0.13742 0.0
N1088 N 0.49389 0.96424 0.21884 0.0
H1089 H 0.12609 0.59358 0.21805 0.0
H1090 H 0.99544 0.48415 0.13701 0.0
H1091 H 0.06294 0.52401 0.26144 0.0
H1092 H 0.06138 0.54784 0.08972 0.0
H1093 H 0.01507 0.50578 0.18455 0.0
H1094 H 0.09831 0.58406 0.17342 0.0
C1095 C 0.10617 0.57663 0.21842 0.0
C1096 C 0.09695 0.55927 0.24326 0.0
C1097 C 0.02509 0.51537 0.16383 0.0
C1098 C 0.06522 0.54817 0.19227 0.0
C1099 C 0.01384 0.50308 0.13668 0.0
C1100 C 0.02706 0.51409 0.10953 0.0
C1101 C 0.05003 0.53863 0.1639 0.0
C1102 C 0.05065 0.53873 0.11024 0.0
C1103 C 0.09038 0.57115 0.19289 0.0
C1104 C 0.07103 0.53757 0.24251 0.0
N1105 N 0.06173 0.54995 0.13712 0.0
N1106 N 0.0562 0.53246 0.2173 0.0
H1107 H 0.4453 0.55276 0.21682 0.0
H1108 H 0.55221 0.53607 0.12517 0.0
H1109 H 0.51691 0.56464 0.25877 0.0
H1110 H 0.49883 0.55767 0.08359 0.0
H1111 H 0.54039 0.54576 0.1745 0.0
H1112 H 0.46297 0.54994 0.16784 0.0
C1113 C 0.46447 0.55408 0.21572 0.0
C1114 C 0.47965 0.55875 0.24172 0.0
C1115 C 0.53184 0.54914 0.15454 0.0
C1116 C 0.50028 0.55639 0.18595 0.0
C1117 C 0.53894 0.54408 0.12641 0.0
C1118 C 0.52667 0.54639 0.10038 0.0
C1119 C 0.51185 0.55584 0.15654 0.0
C1120 C 0.50906 0.55611 0.10311 0.0
C1121 C 0.47476 0.55302 0.18779 0.0
C1122 C 0.50461 0.56089 0.23913 0.0
N1123 N 0.50165 0.55987 0.13081 0.0
N1124 N 0.51419 0.55968 0.21169 0.0
H1125 H 0.95376 0.44991 0.75767 0.0
H1126 H 0.95093 0.44852 0.93691 0.0
H1127 H 0.89126 0.44837 0.81079 0.0
H1128 H 0.02419 0.4908 0.88767 0.0
H1129 H 0.92695 0.43469 0.88917 0.0
H1130 H 0.97867 0.45457 0.80409 0.0
C1131 C 0.94553 0.45093 0.77912 0.0
C1132 C 0.92071 0.44921 0.78063 0.0
C1133 C 0.94835 0.4464 0.88889 0.0
C1134 C 0.94819 0.4531 0.83333 0.0
C1135 C 0.96204 0.45384 0.91607 0.0
C1136 C 0.98949 0.47091 0.91607 0.0
C1137 C 0.96232 0.45586 0.86176 0.0
C1138 C 0.00296 0.47769 0.88845 0.0
C1139 C 0.95954 0.45329 0.80546 0.0
C1140 C 0.91056 0.45013 0.80881 0.0
N1141 N 0.9892 0.47043 0.86228 0.0
N1142 N 0.92425 0.45179 0.83412 0.0
H1143 H 0.59533 0.47804 0.78883 0.0
H1144 H 0.49894 0.50266 0.8883 0.0
H1145 H 0.51542 0.449 0.75861 0.0
H1146 H 0.55811 0.48781 0.92673 0.0
H1147 H 0.50373 0.48458 0.84011 0.0
H1148 H 0.58276 0.4854 0.83877 0.0
C1149 C 0.57513 0.47332 0.79277 0.0
C1150 C 0.55639 0.46303 0.76966 0.0
C1151 C 0.51508 0.48457 0.85935 0.0
C1152 C 0.54183 0.47133 0.8267 0.0
C1153 C 0.51217 0.4946 0.88681 0.0
C1154 C 0.52782 0.49615 0.91143 0.0
C1155 C 0.53444 0.47703 0.85648 0.0
C1156 C 0.54536 0.48641 0.9083 0.0
C1157 C 0.5679 0.47725 0.8213 0.0
C1158 C 0.53039 0.45696 0.77596 0.0
N1159 N 0.54858 0.47771 0.88115 0.0
N1160 N 0.52389 0.46152 0.80388 0.0
H1161 H 0.51938 0.11662 0.78906 0.0
H1162 H 0.49199 0.98876 0.88615 0.0
H1163 H 0.54179 0.05895 0.76204 0.0
H1164 H 0.50196 0.06058 0.92789 0.0
H1165 H 0.49794 0.00974 0.83696 0.0
H1166 H 0.50284 0.09251 0.83691 0.0
C1167 C 0.52069 0.0988 0.7932 0.0
C1168 C 0.53206 0.08977 0.7717 0.0
C1169 C 0.49832 0.02076 0.8568 0.0
C1170 C 0.51278 0.06198 0.82589 0.0
C1171 C 0.49463 0.00871 0.88486 0.0
C1172 C 0.49664 0.02304 0.91113 0.0
C1173 C 0.50406 0.04737 0.85487 0.0
C1174 C 0.50006 0.0488 0.90819 0.0
C1175 C 0.51128 0.08513 0.82043 0.0
C1176 C 0.5334 0.06669 0.77813 0.0
N1177 N 0.50407 0.06037 0.88047 0.0
N1178 N 0.52376 0.05353 0.80459 0.0
H1179 H 0.10069 0.23029 0.55581 0.0
H1180 H 0.19178 0.35947 0.46562 0.0
H1181 H 0.17476 0.28896 0.59476 0.0
H1182 H 0.14946 0.28331 0.4209 0.0
H1183 H 0.186 0.33604 0.51358 0.0
H1184 H 0.11653 0.25129 0.50645 0.0
C1185 C 0.12031 0.2476 0.55386 0.0
C1186 C 0.13646 0.25802 0.57924 0.0
C1187 C 0.17866 0.32449 0.49314 0.0
C1188 C 0.15461 0.28215 0.52311 0.0
C1189 C 0.18212 0.33783 0.46581 0.0
C1190 C 0.1713 0.32326 0.43934 0.0
C1191 C 0.16344 0.29648 0.49403 0.0
C1192 C 0.15843 0.29525 0.44077 0.0
C1193 C 0.12942 0.25939 0.52574 0.0
C1194 C 0.16179 0.28038 0.57562 0.0
N1195 N 0.15424 0.28272 0.46782 0.0
N1196 N 0.16998 0.29201 0.54809 0.0
H1197 H 0.72528 0.84865 0.59902 0.0
H1198 H 0.71874 0.87957 0.42674 0.0
H1199 H 0.78217 0.92197 0.55551 0.0
H1200 H 0.66126 0.80782 0.47233 0.0
H1201 H 0.73663 0.90016 0.47568 0.0
H1202 H 0.69633 0.83791 0.55542 0.0
C1203 C 0.73149 0.86263 0.58039 0.0
C1204 C 0.75633 0.88596 0.58058 0.0
C1205 C 0.71972 0.88011 0.47498 0.0
C1206 C 0.72353 0.87375 0.53045 0.0
C1207 C 0.70944 0.86847 0.44706 0.0
C1208 C 0.68895 0.84181 0.44559 0.0
C1209 C 0.70937 0.86488 0.50138 0.0
C1210 C 0.67754 0.82824 0.47253 0.0
C1211 C 0.71496 0.85658 0.55554 0.0
C1212 C 0.76323 0.90369 0.55617 0.0
N1213 N 0.68817 0.83976 0.49928 0.0
N1214 N 0.74714 0.89698 0.53182 0.0
H1215 H 0.17691 0.88628 0.59651 0.0
H1216 H 0.17085 0.89387 0.41788 0.0
H1217 H 0.11761 0.89518 0.54866 0.0
H1218 H 0.20056 0.84724 0.46101 0.0
H1219 H 0.16202 0.90621 0.46736 0.0
H1220 H 0.1941 0.88052 0.54818 0.0
C1221 C 0.16729 0.88651 0.57579 0.0
C1222 C 0.14555 0.89062 0.57629 0.0
C1223 C 0.17111 0.89383 0.46597 0.0
C1224 C 0.16577 0.88557 0.52146 0.0
C1225 C 0.17671 0.88732 0.43778 0.0
C1226 C 0.18672 0.86982 0.4355 0.0
C1227 C 0.17572 0.88285 0.49191 0.0
C1228 C 0.19299 0.86095 0.462 0.0
C1229 C 0.17722 0.88354 0.54837 0.0
C1230 C 0.13407 0.89149 0.54904 0.0
N1231 N 0.18717 0.86738 0.48922 0.0
N1232 N 0.14446 0.88921 0.52265 0.0
H1233 H 0.61422 0.816 0.09977 0.0
H1234 H 0.62513 0.77723 0.26736 0.0
H1235 H 0.56089 0.73846 0.1377 0.0
H1236 H 0.68938 0.84374 0.22137 0.0
H1237 H 0.60317 0.76025 0.21913 0.0
H1238 H 0.64319 0.82576 0.14352 0.0
C1239 C 0.60866 0.80108 0.11731 0.0
C1240 C 0.58515 0.77646 0.11523 0.0
C1241 C 0.6224 0.77821 0.21947 0.0
C1242 C 0.61803 0.7873 0.16512 0.0
C1243 C 0.63513 0.78761 0.24703 0.0
C1244 C 0.65902 0.81189 0.24839 0.0
C1245 C 0.6335 0.7935 0.19329 0.0
C1246 C 0.67077 0.82505 0.2213 0.0
C1247 C 0.62528 0.80649 0.14209 0.0
C1248 C 0.57895 0.75764 0.13837 0.0
N1249 N 0.65765 0.816 0.19492 0.0
N1250 N 0.59515 0.76354 0.16246 0.0
H1251 H 0.21863 0.83342 0.08246 0.0
H1252 H 0.1858 0.80349 0.25758 0.0
H1253 H 0.20958 0.76276 0.12695 0.0
H1254 H 0.20669 0.87825 0.21369 0.0
H1255 H 0.1847 0.78389 0.20818 0.0
H1256 H 0.20491 0.84585 0.12863 0.0
C1257 C 0.21359 0.82042 0.10189 0.0
C1258 C 0.21568 0.79724 0.10095 0.0
C1259 C 0.1891 0.80446 0.2094 0.0
C1260 C 0.19985 0.81128 0.15396 0.0
C1261 C 0.18956 0.81555 0.23752 0.0
C1262 C 0.19677 0.8426 0.23964 0.0
C1263 C 0.19569 0.82056 0.18345 0.0
C1264 C 0.20152 0.85743 0.21304 0.0
C1265 C 0.20564 0.82745 0.12823 0.0
C1266 C 0.20826 0.78081 0.12663 0.0
N1267 N 0.20114 0.8463 0.18613 0.0
N1268 N 0.201 0.78832 0.15222 0.0
H1269 H 0.20829 0.39 0.09481 0.0
H1270 H 0.16737 0.39446 0.26249 0.0
H1271 H 0.18879 0.44965 0.12251 0.0
H1272 H 0.15199 0.3215 0.2187 0.0
H1273 H 0.17506 0.41615 0.21294 0.0
H1274 H 0.19015 0.36614 0.14229 0.0
C1275 C 0.20036 0.39813 0.11104 0.0
C1276 C 0.20007 0.42179 0.1049 0.0
C1277 C 0.16928 0.39518 0.21422 0.0
C1278 C 0.17922 0.39469 0.15908 0.0
C1279 C 0.16449 0.38271 0.24243 0.0
C1280 C 0.15921 0.35622 0.24462 0.0
C1281 C 0.16909 0.38105 0.18839 0.0
C1282 C 0.15623 0.34203 0.21795 0.0
C1283 C 0.18974 0.3844 0.13794 0.0
C1284 C 0.18929 0.43139 0.12651 0.0
N1285 N 0.16179 0.35476 0.19102 0.0
N1286 N 0.1795 0.41794 0.15281 0.0
H1287 H 0.7664 0.56019 0.89484 0.0
H1288 H 0.84014 0.68968 0.79842 0.0
H1289 H 0.83572 0.62845 0.93074 0.0
H1290 H 0.80775 0.61217 0.75708 0.0
H1291 H 0.83795 0.66917 0.84755 0.0
H1292 H 0.77893 0.57984 0.84436 0.0
C1293 C 0.78438 0.57925 0.89193 0.0
C1294 C 0.80012 0.59279 0.91673 0.0
C1295 C 0.83196 0.65677 0.82763 0.0
C1296 C 0.81436 0.61548 0.85946 0.0
C1297 C 0.83333 0.66845 0.79968 0.0
C1298 C 0.82445 0.65255 0.77383 0.0
C1299 C 0.82066 0.62889 0.82975 0.0
C1300 C 0.81518 0.62508 0.77653 0.0
C1301 C 0.79159 0.59035 0.86322 0.0
C1302 C 0.82318 0.61745 0.91201 0.0
N1303 N 0.81296 0.61397 0.80415 0.0
N1304 N 0.82944 0.62827 0.88391 0.0
H1305 H 0.44642 0.25392 0.89042 0.0
H1306 H 0.33591 0.12985 0.80212 0.0
H1307 H 0.39251 0.17809 0.93165 0.0
H1308 H 0.38431 0.20733 0.76137 0.0
H1309 H 0.35106 0.14975 0.85148 0.0
H1310 H 0.41859 0.24048 0.84565 0.0
C1311 C 0.42836 0.2347 0.89037 0.0
C1312 C 0.42209 0.21681 0.91451 0.0
C1313 C 0.35822 0.16255 0.83183 0.0
C1314 C 0.3905 0.20109 0.86311 0.0
C1315 C 0.34968 0.15114 0.80361 0.0
C1316 C 0.35938 0.1669 0.77761 0.0
C1317 C 0.37705 0.18985 0.83413 0.0
C1318 C 0.37663 0.19446 0.78087 0.0
C1319 C 0.41256 0.22697 0.86469 0.0
C1320 C 0.39847 0.19218 0.91318 0.0
N1321 N 0.38535 0.20502 0.80863 0.0
N1322 N 0.38379 0.18486 0.88769 0.0
H1323 H 0.84333 0.21858 0.92579 0.0
H1324 H 0.83611 0.22726 0.747 0.0
H1325 H 0.78348 0.22758 0.87935 0.0
H1326 H 0.88026 0.19568 0.79155 0.0
H1327 H 0.82398 0.23706 0.79607 0.0
H1328 H 0.86192 0.21616 0.87728 0.0
C1329 C 0.83376 0.21936 0.90525 0.0
C1330 C 0.81162 0.22277 0.90634 0.0
C1331 C 0.83689 0.22862 0.79509 0.0
C1332 C 0.83337 0.22131 0.85102 0.0
C1333 C 0.84438 0.22368 0.76709 0.0
C1334 C 0.85936 0.21086 0.76535 0.0
C1335 C 0.84458 0.22075 0.82134 0.0
C1336 C 0.86881 0.20576 0.79207 0.0
C1337 C 0.84455 0.21837 0.87766 0.0
C1338 C 0.80025 0.22437 0.87929 0.0
N1339 N 0.86097 0.21038 0.81904 0.0
N1340 N 0.81139 0.22383 0.85265 0.0
H1341 H 0.27865 0.15893 0.43111 0.0
H1342 H 0.31175 0.11807 0.59058 0.0
H1343 H 0.24026 0.07708 0.46255 0.0
H1344 H 0.31939 0.19476 0.56902 0.0
H1345 H 0.29561 0.10314 0.53907 0.0
H1346 H 0.3048 0.17273 0.47719 0.0
C1347 C 0.27582 0.14383 0.44752 0.0
C1348 C 0.25679 0.11688 0.4431 0.0
C1349 C 0.30105 0.12326 0.54585 0.0
C1350 C 0.28692 0.13249 0.49568 0.0
C1351 C 0.31016 0.13174 0.57517 0.0
C1352 C 0.31668 0.15759 0.58439 0.0
C1353 C 0.29884 0.14091 0.52577 0.0
C1354 C 0.31451 0.17458 0.56327 0.0
C1355 C 0.29085 0.15169 0.47373 0.0
C1356 C 0.25467 0.09809 0.46484 0.0
N1357 N 0.30575 0.16592 0.53514 0.0
N1358 N 0.26933 0.10629 0.49036 0.0
H1359 H 0.87625 0.16046 0.41509 0.0
H1360 H 0.85521 0.13317 0.59083 0.0
H1361 H 0.87046 0.09025 0.45695 0.0
H1362 H 0.85555 0.19925 0.54498 0.0
H1363 H 0.8528 0.11238 0.54179 0.0
H1364 H 0.8611 0.1706 0.46172 0.0
C1365 C 0.87142 0.14699 0.43407 0.0
C1366 C 0.87485 0.12467 0.43234 0.0
C1367 C 0.85281 0.13114 0.54255 0.0
C1368 C 0.85789 0.13629 0.48607 0.0
C1369 C 0.85399 0.14286 0.5705 0.0
C1370 C 0.85599 0.16808 0.57174 0.0
C1371 C 0.8536 0.14486 0.51598 0.0
C1372 C 0.85449 0.17996 0.54486 0.0
C1373 C 0.86273 0.15272 0.46071 0.0
C1374 C 0.86806 0.10768 0.45743 0.0
N1375 N 0.85373 0.16844 0.51813 0.0
N1376 N 0.86034 0.11409 0.48349 0.0
H1377 H 0.87611 0.72193 0.4267 0.0
H1378 H 0.8353 0.72753 0.59425 0.0
H1379 H 0.85267 0.77901 0.45294 0.0
H1380 H 0.82449 0.65524 0.55285 0.0
H1381 H 0.84146 0.7478 0.54403 0.0
H1382 H 0.85943 0.69873 0.47479 0.0
C1383 C 0.8675 0.72957 0.44267 0.0
C1384 C 0.86572 0.75233 0.43594 0.0
C1385 C 0.83705 0.72726 0.54599 0.0
C1386 C 0.84661 0.72603 0.49088 0.0
C1387 C 0.83317 0.7156 0.57459 0.0
C1388 C 0.82953 0.68976 0.57763 0.0
C1389 C 0.83761 0.713 0.52065 0.0
C1390 C 0.82751 0.67533 0.55145 0.0
C1391 C 0.85776 0.71623 0.46994 0.0
C1392 C 0.85423 0.76137 0.4573 0.0
N1393 N 0.8321 0.6873 0.52414 0.0
N1394 N 0.84532 0.74835 0.48399 0.0
loop_
_geom_bond_atom_site_label_1
_geom_bond_atom_site_label_2
_geom_bond_distance
_geom_bond_site_symmetry_2
_ccdc_geom_bond_type
H0 C7 0.929 . S
H1 C10 0.930 . S
H2 C12 0.929 . S
H3 C4 0.969 . S
C4 H3 0.969 . S
C4 O5 1.550 . S
C4 H6 0.973 . S
O5 C4 1.550 . S
O5 C11 1.412 . S
H6 C4 0.973 . S
C7 H0 0.929 . S
C7 C8 1.400 . S
C7 C9 1.364 . S
C8 C7 1.400 . S
C8 C12 1.377 . S
C9 C7 1.364 . S
C9 C10 1.374 . S
C10 H1 0.930 . S
C10 C9 1.374 . S
C10 C11 1.383 . S
C11 O5 1.412 . S
C11 C10 1.383 . S
C11 C12 1.394 . S
C12 H2 0.929 . S
C12 C8 1.377 . S
C12 C11 1.394 . S
H13 C20 0.929 . S
H14 C23 0.930 . S
H15 C25 0.929 . S
H16 C17 0.969 . S
C17 H16 0.969 . S
C17 O18 1.550 . S
C17 H19 0.973 . S
O18 C17 1.550 . S
O18 C24 1.412 . S
H19 C17 0.973 . S
C20 H13 0.929 . S
C20 C21 1.400 . S
C20 C22 1.364 . S
C21 C20 1.400 . S
C21 C25 1.377 . S
C22 C20 1.364 . S
C22 C23 1.374 . S
C23 H14 0.930 . S
C23 C22 1.374 . S
C23 C24 1.383 . S
C24 O18 1.412 . S
C24 C23 1.383 . S
C24 C25 1.394 . S
C25 H15 0.929 . S
C25 C21 1.377 . S
C25 C24 1.394 . S
H26 C33 0.929 . S
H27 C36 0.930 . S
H28 C38 0.929 . S
H29 C30 0.969 . S
C30 H29 0.969 . S
C30 O31 1.550 . S
C30 H32 0.973 . S
O31 C30 1.550 . S
O31 C37 1.412 . S
H32 C30 0.973 . S
C33 H26 0.929 . S
C33 C34 1.400 . S
C33 C35 1.364 . S
C34 C33 1.400 . S
C34 C38 1.377 . S
C35 C33 1.364 . S
C35 C36 1.374 . S
C36 H27 0.930 . S
C36 C35 1.374 . S
C36 C37 1.383 . S
C37 O31 1.412 . S
C37 C36 1.383 . S
C37 C38 1.394 . S
C38 H28 0.929 . S
C38 C34 1.377 . S
C38 C37 1.394 . S
H39 C46 0.929 . S
H40 C49 0.930 . S
H41 C51 0.929 . S
H42 C43 0.969 . S
C43 H42 0.969 . S
C43 O44 1.550 . S
C43 H45 0.973 . S
O44 C43 1.550 . S
O44 C50 1.412 . S
H45 C43 0.973 . S
C46 H39 0.929 . S
C46 C47 1.400 . S
C46 C48 1.364 . S
C47 C46 1.400 . S
C47 C51 1.377 . S
C48 C46 1.364 . S
C48 C49 1.374 . S
C49 H40 0.930 . S
C49 C48 1.374 . S
C49 C50 1.383 . S
C50 O44 1.412 . S
C50 C49 1.383 . S
C50 C51 1.394 . S
C51 H41 0.929 . S
C51 C47 1.377 . S
C51 C50 1.394 . S
H52 C59 0.929 . S
H53 C62 0.930 . S
H54 C64 0.929 . S
H55 C56 0.969 . S
C56 H55 0.969 . S
C56 O57 1.550 . S
C56 H58 0.973 . S
O57 C56 1.550 . S
O57 C63 1.412 . S
H58 C56 0.973 . S
C59 H52 0.929 . S
C59 C60 1.400 . S
C59 C61 1.364 . S
C60 C59 1.400 . S
C60 C64 1.377 . S
C61 C59 1.364 . S
C61 C62 1.374 . S
C62 H53 0.930 . S
C62 C61 1.374 . S
C62 C63 1.383 . S
C63 O57 1.412 . S
C63 C62 1.383 . S
C63 C64 1.394 . S
C64 H54 0.929 . S
C64 C60 1.377 . S
C64 C63 1.394 . S
H65 C72 0.929 . S
H66 C75 0.930 . S
H67 C77 0.929 . S
H68 C69 0.969 . S
C69 H68 0.969 . S
C69 O70 1.550 . S
C69 H71 0.973 . S
O70 C69 1.550 . S
O70 C76 1.412 . S
H71 C69 0.973 . S
C72 H65 0.929 . S
C72 C73 1.400 . S
C72 C74 1.364 . S
C73 C72 1.400 . S
C73 C77 1.377 . S
C74 C72 1.364 . S
C74 C75 1.374 . S
C75 H66 0.930 . S
C75 C74 1.374 . S
C75 C76 1.383 . S
C76 O70 1.412 . S
C76 C75 1.383 . S
C76 C77 1.394 . S
C77 H67 0.929 . S
C77 C73 1.377 . S
C77 C76 1.394 . S
H78 C85 0.929 . S
H79 C88 0.930 . S
H80 C90 0.929 . S
H81 C82 0.969 . S
C82 H81 0.969 . S
C82 O83 1.550 . S
C82 H84 0.973 . S
O83 C82 1.550 . S
O83 C89 1.412 . S
H84 C82 0.973 . S
C85 H78 0.929 . S
C85 C86 1.400 . S
C85 C87 1.364 . S
C86 C85 1.400 . S
C86 C90 1.377 . S
C87 C85 1.364 . S
C87 C88 1.374 . S
C88 H79 0.930 . S
C88 C87 1.374 . S
C88 C89 1.383 . S
C89 O83 1.412 . S
C89 C88 1.383 . S
C89 C90 1.394 . S
C90 H80 0.929 . S
C90 C86 1.377 . S
C90 C89 1.394 . S
H91 C98 0.929 . S
H92 C101 0.930 . S
H93 C103 0.929 . S
H94 C95 0.969 . S
C95 H94 0.969 . S
C95 O96 1.550 . S
C95 H97 0.973 . S
O96 C95 1.550 . S
O96 C102 1.412 . S
H97 C95 0.973 . S
C98 H91 0.929 . S
C98 C99 1.400 . S
C98 C100 1.364 . S
C99 C98 1.400 . S
C99 C103 1.377 . S
C100 C98 1.364 . S
C100 C101 1.374 . S
C101 H92 0.930 . S
C101 C100 1.374 . S
C101 C102 1.383 . S
C102 O96 1.412 . S
C102 C101 1.383 . S
C102 C103 1.394 . S
C103 H93 0.929 . S
C103 C99 1.377 . S
C103 C102 1.394 . S
H104 C111 0.929 . S
H105 C114 0.930 . S
H106 C116 0.929 . S
H107 C108 0.969 . S
C108 H107 0.969 . S
C108 O109 1.550 . S
C108 H110 0.973 . S
O109 C108 1.550 . S
O109 C115 1.412 . S
H110 C108 0.973 . S
C111 H104 0.929 . S
C111 C112 1.400 . S
C111 C113 1.364 . S
C112 C111 1.400 . S
C112 C116 1.377 . S
C113 C111 1.364 . S
C113 C114 1.374 . S
C114 H105 0.930 . S
C114 C113 1.374 . S
C114 C115 1.383 . S
C115 O109 1.412 . S
C115 C114 1.383 . S
C115 C116 1.394 . S
C116 H106 0.929 . S
C116 C112 1.377 . S
C116 C115 1.394 . S
H117 C124 0.929 . S
H118 C127 0.930 . S
H119 C129 0.929 . S
H120 C121 0.969 . S
C121 H120 0.969 . S
C121 O122 1.550 . S
C121 H123 0.973 1_554 S
O122 C121 1.550 . S
O122 C128 1.412 . S
H123 C121 0.973 1_556 S
C124 H117 0.929 . S
C124 C125 1.403 . S
C124 C126 1.364 . S
C125 C124 1.403 . S
C125 C129 1.375 1_556 S
C126 C124 1.364 . S
C126 C127 1.374 . S
C127 H118 0.930 . S
C127 C126 1.374 . S
C127 C128 1.383 1_556 S
C128 O122 1.412 . S
C128 C127 1.383 1_554 S
C128 C129 1.394 . S
C129 H119 0.929 . S
C129 C125 1.375 1_554 S
C129 C128 1.394 . S
H130 C137 0.929 . S
H131 C140 0.930 . S
H132 C142 0.929 . S
H133 C134 0.969 . S
C134 H133 0.969 . S
C134 O135 1.550 . S
C134 H136 0.973 1_554 S
O135 C134 1.550 . S
O135 C141 1.412 . S
H136 C134 0.973 1_556 S
C137 H130 0.929 . S
C137 C138 1.400 1_556 S
C137 C139 1.364 . S
C138 C137 1.400 1_554 S
C138 C142 1.377 . S
C139 C137 1.364 . S
C139 C140 1.374 . S
C140 H131 0.930 . S
C140 C139 1.374 . S
C140 C141 1.383 1_556 S
C141 O135 1.412 . S
C141 C140 1.383 1_554 S
C141 C142 1.394 . S
C142 H132 0.929 . S
C142 C138 1.377 . S
C142 C141 1.394 . S
H143 C150 0.929 . S
H144 C153 0.930 . S
H145 C155 0.929 . S
H146 C147 0.969 . S
C147 H146 0.969 . S
C147 O148 1.550 . S
C147 H149 0.973 1_554 S
O148 C147 1.550 . S
O148 C154 1.412 1_554 S
H149 C147 0.973 1_556 S
C150 H143 0.929 . S
C150 C151 1.400 . S
C150 C152 1.364 . S
C151 C150 1.400 . S
C151 C155 1.377 1_556 S
C152 C150 1.364 . S
C152 C153 1.374 . S
C153 H144 0.930 . S
C153 C152 1.374 . S
C153 C154 1.383 . S
C154 O148 1.412 1_556 S
C154 C153 1.383 . S
C154 C155 1.394 1_556 S
C155 H145 0.929 . S
C155 C151 1.377 1_554 S
C155 C154 1.394 1_554 S
H156 C163 0.929 . S
H157 C166 0.930 . S
H158 C168 0.929 1_556 S
H159 C160 0.969 . S
C160 H159 0.969 . S
C160 O161 1.550 . S
C160 H162 0.973 . S
O161 C160 1.550 . S
O161 C167 1.412 . S
H162 C160 0.973 . S
C163 H156 0.929 . S
C163 C164 1.400 . S
C163 C165 1.364 . S
C164 C163 1.400 . S
C164 C168 1.377 . S
C165 C163 1.364 . S
C165 C166 1.374 . S
C166 H157 0.930 . S
C166 C165 1.374 . S
C166 C167 1.383 . S
C167 O161 1.412 . S
C167 C166 1.383 . S
C167 C168 1.394 . S
C168 H158 0.929 1_554 S
C168 C164 1.377 . S
C168 C167 1.394 . S
H169 C176 0.929 . S
H170 C179 0.930 . S
H171 C181 0.929 1_556 S
H172 C173 0.969 . S
C173 H172 0.969 . S
C173 O174 1.550 . S
C173 H175 0.973 . S
O174 C173 1.550 . S
O174 C180 1.412 . S
H175 C173 0.973 . S
C176 H169 0.929 . S
C176 C177 1.400 . S
C176 C178 1.364 . S
C177 C176 1.400 . S
C177 C181 1.377 . S
C178 C176 1.364 . S
C178 C179 1.374 . S
C179 H170 0.930 . S
C179 C178 1.374 . S
C179 C180 1.383 . S
C180 O174 1.412 . S
C180 C179 1.383 . S
C180 C181 1.394 . S
C181 H171 0.929 1_554 S
C181 C177 1.377 . S
C181 C180 1.394 . S
H182 C189 0.929 . S
H183 C192 0.930 . S
H184 C194 0.929 1_556 S
H185 C186 0.969 . S
C186 H185 0.969 . S
C186 O187 1.550 . S
C186 H188 0.973 . S
O187 C186 1.550 . S
O187 C193 1.412 . S
H188 C186 0.973 . S
C189 H182 0.929 . S
C189 C190 1.400 . S
C189 C191 1.364 . S
C190 C189 1.400 . S
C190 C194 1.377 . S
C191 C189 1.364 . S
C191 C192 1.374 . S
C192 H183 0.930 . S
C192 C191 1.374 . S
C192 C193 1.383 . S
C193 O187 1.412 . S
C193 C192 1.383 . S
C193 C194 1.394 . S
C194 H184 0.929 1_554 S
C194 C190 1.377 . S
C194 C193 1.394 . S
H195 C202 0.929 . S
H196 C205 0.930 . S
H197 C207 0.929 . S
H198 C199 0.969 . S
C199 H198 0.969 . S
C199 O200 1.550 . S
C199 H201 0.973 . S
O200 C199 1.550 . S
O200 C206 1.412 . S
H201 C199 0.973 . S
C202 H195 0.929 . S
C202 C203 1.400 . S
C202 C204 1.364 . S
C203 C202 1.400 . S
C203 C207 1.377 . S
C204 C202 1.364 . S
C204 C205 1.374 . S
C205 H196 0.930 . S
C205 C204 1.374 . S
C205 C206 1.383 . S
C206 O200 1.412 . S
C206 C205 1.383 . S
C206 C207 1.394 . S
C207 H197 0.929 . S
C207 C203 1.377 . S
C207 C206 1.394 . S
H208 C215 0.929 . S
H209 C218 0.930 . S
H210 C220 0.929 . S
H211 C212 0.969 . S
C212 H211 0.969 . S
C212 O213 1.550 . S
C212 H214 0.973 . S
O213 C212 1.550 . S
O213 C219 1.412 . S
H214 C212 0.973 . S
C215 H208 0.929 . S
C215 C216 1.400 . S
C215 C217 1.364 . S
C216 C215 1.400 . S
C216 C220 1.377 . S
C217 C215 1.364 . S
C217 C218 1.374 . S
C218 H209 0.930 . S
C218 C217 1.374 . S
C218 C219 1.383 . S
C219 O213 1.412 . S
C219 C218 1.383 . S
C219 C220 1.394 . S
C220 H210 0.929 . S
C220 C216 1.377 . S
C220 C219 1.394 . S
H221 C228 0.929 . S
H222 C231 0.930 . S
H223 C233 0.929 . S
H224 C225 0.969 . S
C225 H224 0.969 . S
C225 O226 1.550 . S
C225 H227 0.973 . S
O226 C225 1.550 . S
O226 C232 1.412 . S
H227 C225 0.973 . S
C228 H221 0.929 . S
C228 C229 1.400 . S
C228 C230 1.364 . S
C229 C228 1.400 . S
C229 C233 1.377 . S
C230 C228 1.364 . S
C230 C231 1.374 . S
C231 H222 0.930 . S
C231 C230 1.374 . S
C231 C232 1.383 . S
C232 O226 1.412 . S
C232 C231 1.383 . S
C232 C233 1.394 . S
C233 H223 0.929 . S
C233 C229 1.377 . S
C233 C232 1.394 . S
O234 Mn235 2.163 1_565 S
O234 C248 1.244 . S
Mn235 O234 2.163 1_545 S
Mn235 O238 2.160 . S
Mn235 O239 2.221 1_545 S
Mn235 O241 2.163 1_554 S
Mn235 O243 2.160 . S
Mn235 O253 2.221 . S
O236 Mn237 2.087 1_565 S
O236 C248 1.256 . S
Mn237 O236 2.087 1_545 S
Mn237 O244 2.089 1_545 S
Mn237 O253 2.290 . S
Mn237 O254 2.251 . S
O238 Mn235 2.160 . S
O238 C249 1.239 . S
O239 Mn235 2.221 1_565 S
O239 Mn240 2.290 1_564 S
O239 C250 1.278 1_554 S
Mn240 O239 2.290 1_546 S
Mn240 O242 2.089 . S
Mn240 O245 2.251 1_545 S
Mn240 O246 2.087 . S
O241 Mn235 2.163 1_556 S
O241 C251 1.244 . S
O242 Mn240 2.089 . S
O242 C249 1.256 1_556 S
O243 Mn235 2.160 . S
O243 C252 1.239 1_545 S
O244 Mn237 2.089 1_565 S
O244 C252 1.256 . S
O245 Mn240 2.251 1_565 S
O245 C250 1.241 . S
O246 Mn240 2.087 . S
O246 C251 1.256 . S
C247 O253 1.278 . S
C247 O254 1.241 . S
C248 O234 1.244 . S
C248 O236 1.256 . S
C249 O238 1.239 . S
C249 O242 1.256 1_554 S
C250 O239 1.278 1_556 S
C250 O245 1.241 . S
C251 O241 1.244 . S
C251 O246 1.256 . S
C252 O243 1.239 1_565 S
C252 O244 1.256 . S
O253 Mn235 2.221 . S
O253 Mn237 2.290 . S
O253 C247 1.278 . S
O254 Mn237 2.251 . S
O254 C247 1.241 . S
O255 Mn256 2.163 . S
O255 C269 1.244 . S
Mn256 O255 2.163 . S
Mn256 O259 2.160 1_455 S
Mn256 O260 2.221 . S
Mn256 O262 2.163 1_454 S
Mn256 O264 2.160 . S
Mn256 O274 2.221 1_455 S
O257 Mn258 2.087 . S
O257 C269 1.256 . S
Mn258 O257 2.087 . S
Mn258 O265 2.089 . S
Mn258 O274 2.290 1_455 S
Mn258 O275 2.251 1_455 S
O259 Mn256 2.160 1_655 S
O259 C270 1.239 . S
O260 Mn256 2.221 . S
O260 Mn261 2.290 1_554 S
O260 C271 1.278 1_554 S
Mn261 O260 2.290 1_556 S
Mn261 O263 2.089 1_455 S
Mn261 O266 2.251 . S
Mn261 O267 2.087 . S
O262 Mn256 2.163 1_656 S
O262 C272 1.244 . S
O263 Mn261 2.089 1_655 S
O263 C270 1.256 1_556 S
O264 Mn256 2.160 . S
O264 C273 1.239 . S
O265 Mn258 2.089 . S
O265 C273 1.256 . S
O266 Mn261 2.251 . S
O266 C271 1.241 . S
O267 Mn261 2.087 . S
O267 C272 1.256 1_455 S
C268 O274 1.278 . S
C268 O275 1.241 . S
C269 O255 1.244 . S
C269 O257 1.256 . S
C270 O259 1.239 . S
C270 O263 1.256 1_554 S
C271 O260 1.278 1_556 S
C271 O266 1.241 . S
C272 O262 1.244 . S
C272 O267 1.256 1_655 S
C273 O264 1.239 . S
C273 O265 1.256 . S
O274 Mn256 2.221 1_655 S
O274 Mn258 2.290 1_655 S
O274 C268 1.278 . S
O275 Mn258 2.251 1_655 S
O275 C268 1.241 . S
O276 Mn277 2.163 . S
O276 C290 1.244 . S
Mn277 O276 2.163 . S
Mn277 O280 2.163 . S
Mn277 O281 2.221 . S
Mn277 O283 2.163 . S
Mn277 O285 2.160 1_554 S
Mn277 O295 2.221 1_554 S
O278 Mn279 2.087 . S
O278 C290 1.256 1_556 S
Mn279 O278 2.087 . S
Mn279 O286 2.089 . S
Mn279 O295 2.290 . S
Mn279 O296 2.251 1_556 S
O280 Mn277 2.163 . S
O280 C291 1.252 . S
O281 Mn277 2.221 . S
O281 Mn282 2.290 . S
O281 C292 1.278 . S
Mn282 O281 2.290 . S
Mn282 O284 2.089 . S
Mn282 O287 2.251 . S
Mn282 O288 2.087 . S
O283 Mn277 2.163 . S
O283 C293 1.244 . S
O284 Mn282 2.089 . S
O284 C291 1.256 . S
O285 Mn277 2.160 1_556 S
O285 C294 1.239 . S
O286 Mn279 2.089 . S
O286 C294 1.256 . S
O287 Mn282 2.251 . S
O287 C292 1.241 . S
O288 Mn282 2.087 . S
O288 C293 1.256 . S
C289 O295 1.278 1_554 S
C289 O296 1.241 . S
C290 O276 1.244 . S
C290 O278 1.256 1_554 S
C291 O280 1.252 . S
C291 O284 1.256 . S
C292 O281 1.278 . S
C292 O287 1.241 . S
C293 O283 1.244 . S
C293 O288 1.256 . S
C294 O285 1.239 . S
C294 O286 1.256 . S
O295 Mn277 2.221 1_556 S
O295 Mn279 2.290 . S
O295 C289 1.278 1_556 S
O296 Mn279 2.251 1_554 S
O296 C289 1.241 . S
O297 Mn298 2.163 . S
O297 C311 1.244 . S
Mn298 O297 2.163 . S
Mn298 O301 2.160 . S
Mn298 O302 2.221 . S
Mn298 O304 2.163 . S
Mn298 O306 2.160 . S
Mn298 O316 2.221 . S
O299 Mn300 2.087 . S
O299 C311 1.256 . S
Mn300 O299 2.087 . S
Mn300 O307 2.089 . S
Mn300 O316 2.290 . S
Mn300 O317 2.251 . S
O301 Mn298 2.160 . S
O301 C312 1.239 . S
O302 Mn298 2.221 . S
O302 Mn303 2.290 . S
O302 C313 1.278 . S
Mn303 O302 2.290 . S
Mn303 O305 2.089 . S
Mn303 O308 2.251 . S
Mn303 O309 2.087 . S
O304 Mn298 2.163 . S
O304 C314 1.244 . S
O305 Mn303 2.089 . S
O305 C312 1.256 . S
O306 Mn298 2.160 . S
O306 C315 1.239 . S
O307 Mn300 2.089 . S
O307 C315 1.256 . S
O308 Mn303 2.251 . S
O308 C313 1.241 . S
O309 Mn303 2.087 . S
O309 C314 1.256 . S
C310 O316 1.278 . S
C310 O317 1.241 . S
C311 O297 1.244 . S
C311 O299 1.256 . S
C312 O301 1.239 . S
C312 O305 1.256 . S
C313 O302 1.278 . S
C313 O308 1.241 . S
C314 O304 1.244 . S
C314 O309 1.256 . S
C315 O306 1.239 . S
C315 O307 1.256 . S
O316 Mn298 2.221 . S
O316 Mn300 2.290 . S
O316 C310 1.278 . S
O317 Mn300 2.251 . S
O317 C310 1.241 . S
O318 Mn319 2.163 . S
O318 C332 1.244 . S
Mn319 O318 2.163 . S
Mn319 O322 2.160 . S
Mn319 O323 2.221 . S
Mn319 O325 2.163 . S
Mn319 O327 2.160 . S
Mn319 O337 2.221 . S
O320 Mn321 2.087 . S
O320 C332 1.256 . S
Mn321 O320 2.087 . S
Mn321 O328 2.089 . S
Mn321 O337 2.290 . S
Mn321 O338 2.251 . S
O322 Mn319 2.160 . S
O322 C333 1.239 . S
O323 Mn319 2.221 . S
O323 Mn324 2.290 . S
O323 C334 1.278 . S
Mn324 O323 2.290 . S
Mn324 O326 2.089 . S
Mn324 O329 2.251 . S
Mn324 O330 2.087 . S
O325 Mn319 2.163 . S
O325 C335 1.244 . S
O326 Mn324 2.089 . S
O326 C333 1.256 . S
O327 Mn319 2.160 . S
O327 C336 1.239 . S
O328 Mn321 2.089 . S
O328 C336 1.256 . S
O329 Mn324 2.251 . S
O329 C334 1.241 . S
O330 Mn324 2.087 . S
O330 C335 1.256 . S
C331 O337 1.278 . S
C331 O338 1.241 . S
C332 O318 1.244 . S
C332 O320 1.256 . S
C333 O322 1.239 . S
C333 O326 1.256 . S
C334 O323 1.278 . S
C334 O329 1.241 . S
C335 O325 1.244 . S
C335 O330 1.256 . S
C336 O327 1.239 . S
C336 O328 1.256 . S
O337 Mn319 2.221 . S
O337 Mn321 2.290 . S
O337 C331 1.278 . S
O338 Mn321 2.251 . S
O338 C331 1.241 . S
O339 Mn340 2.163 . S
O339 C353 1.244 . S
Mn340 O339 2.163 . S
Mn340 O343 2.160 . S
Mn340 O344 2.221 . S
Mn340 O346 2.163 . S
Mn340 O348 2.160 . S
Mn340 O358 2.221 . S
O341 Mn342 2.087 . S
O341 C353 1.256 . S
Mn342 O341 2.087 . S
Mn342 O349 2.089 . S
Mn342 O358 2.290 . S
Mn342 O359 2.251 . S
O343 Mn340 2.160 . S
O343 C354 1.239 . S
O344 Mn340 2.221 . S
O344 Mn345 2.290 . S
O344 C355 1.278 . S
Mn345 O344 2.290 . S
Mn345 O347 2.089 . S
Mn345 O350 2.251 . S
Mn345 O351 2.087 . S
O346 Mn340 2.163 . S
O346 C356 1.244 . S
O347 Mn345 2.089 . S
O347 C354 1.256 . S
O348 Mn340 2.160 . S
O348 C357 1.239 . S
O349 Mn342 2.089 . S
O349 C357 1.256 . S
O350 Mn345 2.251 . S
O350 C355 1.241 . S
O351 Mn345 2.087 . S
O351 C356 1.256 . S
C352 O358 1.278 . S
C352 O359 1.241 . S
C353 O339 1.244 . S
C353 O341 1.256 . S
C354 O343 1.239 . S
C354 O347 1.256 . S
C355 O344 1.278 . S
C355 O350 1.241 . S
C356 O346 1.244 . S
C356 O351 1.256 . S
C357 O348 1.239 . S
C357 O349 1.256 . S
O358 Mn340 2.221 . S
O358 Mn342 2.290 . S
O358 C352 1.278 . S
O359 Mn342 2.251 . S
O359 C352 1.241 . S
O360 Mn361 2.163 . S
O360 C374 1.244 . S
Mn361 O360 2.163 . S
Mn361 O364 2.160 . S
Mn361 O365 2.221 . S
Mn361 O367 2.163 . S
Mn361 O369 2.160 . S
Mn361 O379 2.221 . S
O362 Mn363 2.087 . S
O362 C374 1.256 . S
Mn363 O362 2.087 . S
Mn363 O370 2.089 . S
Mn363 O379 2.290 . S
Mn363 O380 2.251 . S
O364 Mn361 2.160 . S
O364 C375 1.239 . S
O365 Mn361 2.221 . S
O365 Mn366 2.290 . S
O365 C376 1.278 . S
Mn366 O365 2.290 . S
Mn366 O368 2.089 . S
Mn366 O371 2.251 . S
Mn366 O372 2.087 . S
O367 Mn361 2.163 . S
O367 C377 1.244 . S
O368 Mn366 2.089 . S
O368 C375 1.256 . S
O369 Mn361 2.160 . S
O369 C378 1.239 . S
O370 Mn363 2.089 . S
O370 C378 1.256 . S
O371 Mn366 2.251 . S
O371 C376 1.241 . S
O372 Mn366 2.087 . S
O372 C377 1.256 . S
C373 O379 1.278 . S
C373 O380 1.241 . S
C374 O360 1.244 . S
C374 O362 1.256 . S
C375 O364 1.239 . S
C375 O368 1.256 . S
C376 O365 1.278 . S
C376 O371 1.241 . S
C377 O367 1.244 . S
C377 O372 1.256 . S
C378 O369 1.239 . S
C378 O370 1.256 . S
O379 Mn361 2.221 . S
O379 Mn363 2.290 . S
O379 C373 1.278 . S
O380 Mn363 2.251 . S
O380 C373 1.241 . S
O381 Mn382 2.163 . S
O381 C395 1.244 . S
Mn382 O381 2.163 . S
Mn382 O385 2.160 . S
Mn382 O386 2.221 . S
Mn382 O388 2.163 . S
Mn382 O390 2.160 . S
Mn382 O400 2.221 . S
O383 Mn384 2.087 . S
O383 C395 1.256 . S
Mn384 O383 2.087 . S
Mn384 O391 2.089 . S
Mn384 O400 2.290 . S
Mn384 O401 2.251 . S
O385 Mn382 2.160 . S
O385 C396 1.239 . S
O386 Mn382 2.221 . S
O386 Mn387 2.290 . S
O386 C397 1.278 . S
Mn387 O386 2.290 . S
Mn387 O389 2.089 . S
Mn387 O392 2.251 . S
Mn387 O393 2.087 . S
O388 Mn382 2.163 . S
O388 C398 1.244 . S
O389 Mn387 2.089 . S
O389 C396 1.256 . S
O390 Mn382 2.160 . S
O390 C399 1.239 . S
O391 Mn384 2.089 . S
O391 C399 1.256 . S
O392 Mn387 2.251 . S
O392 C397 1.241 . S
O393 Mn387 2.087 . S
O393 C398 1.256 . S
C394 O400 1.278 . S
C394 O401 1.241 . S
C395 O381 1.244 . S
C395 O383 1.256 . S
C396 O385 1.239 . S
C396 O389 1.256 . S
C397 O386 1.278 . S
C397 O392 1.241 . S
C398 O388 1.244 . S
C398 O393 1.256 . S
C399 O390 1.239 . S
C399 O391 1.256 . S
O400 Mn382 2.221 . S
O400 Mn384 2.290 . S
O400 C394 1.278 . S
O401 Mn384 2.251 . S
O401 C394 1.241 . S
O402 Mn403 2.163 . S
O402 C416 1.244 . S
Mn403 O402 2.163 . S
Mn403 O406 2.160 . S
Mn403 O407 2.221 . S
Mn403 O409 2.163 . S
Mn403 O411 2.160 . S
Mn403 O421 2.221 . S
O404 Mn405 2.087 . S
O404 C416 1.256 . S
Mn405 O404 2.087 . S
Mn405 O412 2.089 . S
Mn405 O421 2.290 . S
Mn405 O422 2.251 . S
O406 Mn403 2.160 . S
O406 C417 1.239 . S
O407 Mn403 2.221 . S
O407 Mn408 2.290 . S
O407 C418 1.278 . S
Mn408 O407 2.290 . S
Mn408 O410 2.089 . S
Mn408 O413 2.251 . S
Mn408 O414 2.087 . S
O409 Mn403 2.163 . S
O409 C419 1.244 . S
O410 Mn408 2.089 . S
O410 C417 1.256 . S
O411 Mn403 2.160 . S
O411 C420 1.239 . S
O412 Mn405 2.089 . S
O412 C420 1.256 . S
O413 Mn408 2.251 . S
O413 C418 1.241 . S
O414 Mn408 2.087 . S
O414 C419 1.256 . S
C415 O421 1.278 . S
C415 O422 1.241 . S
C416 O402 1.244 . S
C416 O404 1.256 . S
C417 O406 1.239 . S
C417 O410 1.256 . S
C418 O407 1.278 . S
C418 O413 1.241 . S
C419 O409 1.244 . S
C419 O414 1.256 . S
C420 O411 1.239 . S
C420 O412 1.256 . S
O421 Mn403 2.221 . S
O421 Mn405 2.290 . S
O421 C415 1.278 . S
O422 Mn405 2.251 . S
O422 C415 1.241 . S
H423 C429 0.930 . S
H424 C433 0.930 . S
H425 C438 0.929 . S
H426 C436 0.929 . S
H427 C431 0.929 . S
H428 C437 0.929 . S
C429 H423 0.930 . S
C429 C430 1.367 1_556 S
C429 C437 1.378 . S
C430 C429 1.367 1_554 S
C430 C438 1.433 . S
C431 H427 0.929 . S
C431 C433 1.378 . S
C431 C435 1.350 . S
C432 C435 1.463 . S
C432 C437 1.350 1_554 S
C432 N440 1.427 . S
C433 H424 0.930 . S
C433 C431 1.378 . S
C433 C434 1.367 . S
C434 C433 1.367 . S
C434 C436 1.433 1_554 S
C435 C431 1.350 . S
C435 C432 1.463 . S
C435 N439 1.427 1_554 S
C436 H426 0.929 . S
C436 C434 1.433 1_556 S
C436 N439 1.384 . S
C437 H428 0.929 . S
C437 C429 1.378 . S
C437 C432 1.350 1_556 S
C438 H425 0.929 . S
C438 C430 1.433 . S
C438 N440 1.384 . S
N439 C435 1.427 1_556 S
N439 C436 1.384 . S
N440 C432 1.427 . S
N440 C438 1.384 . S
H441 C447 0.930 . S
H442 C451 0.942 . S
H443 C456 0.929 1_556 S
H444 C454 0.929 . S
H445 C449 0.918 1_556 S
H446 C455 0.929 . S
C447 H441 0.930 . S
C447 C448 1.367 . S
C447 C455 1.378 . S
C448 C447 1.367 . S
C448 C456 1.433 . S
C449 H445 0.918 1_554 S
C449 C451 1.377 1_554 S
C449 C453 1.361 . S
C450 C453 1.463 . S
C450 C455 1.350 . S
C450 N458 1.427 . S
C451 H442 0.942 . S
C451 C449 1.377 1_556 S
C451 C452 1.356 1_556 S
C452 C451 1.356 1_554 S
C452 C454 1.433 . S
C453 C449 1.361 . S
C453 C450 1.463 . S
C453 N457 1.427 . S
C454 H444 0.929 . S
C454 C452 1.433 . S
C454 N457 1.384 . S
C455 H446 0.929 . S
C455 C447 1.378 . S
C455 C450 1.350 . S
C456 H443 0.929 1_554 S
C456 C448 1.433 . S
C456 N458 1.384 . S
N457 C453 1.427 . S
N457 C454 1.384 . S
N458 C450 1.427 . S
N458 C456 1.384 . S
H459 C465 0.930 . S
H460 C469 0.930 . S
H461 C474 0.929 . S
H462 C472 0.929 . S
H463 C467 0.929 . S
H464 C473 0.929 . S
C465 H459 0.930 . S
C465 C466 1.367 1_556 S
C465 C473 1.378 . S
C466 C465 1.367 1_554 S
C466 C474 1.433 . S
C467 H463 0.929 . S
C467 C469 1.378 . S
C467 C471 1.350 . S
C468 C471 1.463 . S
C468 C473 1.350 1_554 S
C468 N476 1.427 . S
C469 H460 0.930 . S
C469 C467 1.378 . S
C469 C470 1.367 . S
C470 C469 1.367 . S
C470 C472 1.433 1_554 S
C471 C467 1.350 . S
C471 C468 1.463 . S
C471 N475 1.427 1_554 S
C472 H462 0.929 . S
C472 C470 1.433 1_556 S
C472 N475 1.384 . S
C473 H464 0.929 . S
C473 C465 1.378 . S
C473 C468 1.350 1_556 S
C474 H461 0.929 . S
C474 C466 1.433 . S
C474 N476 1.384 . S
N475 C471 1.427 1_556 S
N475 C472 1.384 . S
N476 C468 1.427 . S
N476 C474 1.384 . S
H477 C483 0.930 . S
H478 C487 0.930 . S
H479 C492 0.929 . S
H480 C490 0.929 . S
H481 C485 0.929 . S
H482 C491 0.929 . S
C483 H477 0.930 . S
C483 C484 1.367 1_556 S
C483 C491 1.378 . S
C484 C483 1.367 1_554 S
C484 C492 1.433 . S
C485 H481 0.929 . S
C485 C487 1.378 . S
C485 C489 1.350 . S
C486 C489 1.463 . S
C486 C491 1.350 1_554 S
C486 N494 1.427 . S
C487 H478 0.930 . S
C487 C485 1.378 . S
C487 C488 1.367 . S
C488 C487 1.367 . S
C488 C490 1.433 1_554 S
C489 C485 1.350 . S
C489 C486 1.463 . S
C489 N493 1.427 1_554 S
C490 H480 0.929 . S
C490 C488 1.433 1_556 S
C490 N493 1.384 . S
C491 H482 0.929 . S
C491 C483 1.378 . S
C491 C486 1.350 1_556 S
C492 H479 0.929 . S
C492 C484 1.433 . S
C492 N494 1.384 . S
N493 C489 1.427 1_556 S
N493 C490 1.384 . S
N494 C486 1.427 . S
N494 C492 1.384 . S
H495 C501 0.930 . S
H496 C505 0.930 . S
H497 C510 0.929 . S
H498 C508 0.929 . S
H499 C503 0.929 . S
H500 C509 0.929 . S
C501 H495 0.930 . S
C501 C502 1.367 1_556 S
C501 C509 1.378 . S
C502 C501 1.367 1_554 S
C502 C510 1.433 . S
C503 H499 0.929 . S
C503 C505 1.378 . S
C503 C507 1.350 . S
C504 C507 1.463 . S
C504 C509 1.350 1_554 S
C504 N512 1.427 . S
C505 H496 0.930 . S
C505 C503 1.378 . S
C505 C506 1.367 . S
C506 C505 1.367 . S
C506 C508 1.433 1_554 S
C507 C503 1.350 . S
C507 C504 1.463 . S
C507 N511 1.427 1_554 S
C508 H498 0.929 . S
C508 C506 1.433 1_556 S
C508 N511 1.384 . S
C509 H500 0.929 . S
C509 C501 1.378 . S
C509 C504 1.350 1_556 S
C510 H497 0.929 . S
C510 C502 1.433 . S
C510 N512 1.384 . S
N511 C507 1.427 1_556 S
N511 C508 1.384 . S
N512 C504 1.427 . S
N512 C510 1.384 . S
H513 C519 0.930 . S
H514 C523 0.930 . S
H515 C528 0.929 . S
H516 C526 0.929 . S
H517 C521 0.929 . S
H518 C527 0.929 . S
C519 H513 0.930 . S
C519 C520 1.367 1_556 S
C519 C527 1.378 . S
C520 C519 1.367 1_554 S
C520 C528 1.433 . S
C521 H517 0.929 . S
C521 C523 1.378 . S
C521 C525 1.350 . S
C522 C525 1.463 . S
C522 C527 1.350 1_554 S
C522 N530 1.427 . S
C523 H514 0.930 . S
C523 C521 1.378 . S
C523 C524 1.367 . S
C524 C523 1.367 . S
C524 C526 1.433 1_554 S
C525 C521 1.350 . S
C525 C522 1.463 . S
C525 N529 1.427 1_554 S
C526 H516 0.929 . S
C526 C524 1.433 1_556 S
C526 N529 1.384 . S
C527 H518 0.929 . S
C527 C519 1.378 . S
C527 C522 1.350 1_556 S
C528 H515 0.929 . S
C528 C520 1.433 . S
C528 N530 1.384 . S
N529 C525 1.427 1_556 S
N529 C526 1.384 . S
N530 C522 1.427 . S
N530 C528 1.384 . S
H531 C537 0.930 . S
H532 C541 0.930 . S
H533 C546 0.929 . S
H534 C544 0.929 . S
H535 C539 0.929 . S
H536 C545 0.929 . S
C537 H531 0.930 . S
C537 C538 1.367 1_556 S
C537 C545 1.378 . S
C538 C537 1.367 1_554 S
C538 C546 1.433 . S
C539 H535 0.929 . S
C539 C541 1.378 . S
C539 C543 1.350 . S
C540 C543 1.463 . S
C540 C545 1.350 1_554 S
C540 N548 1.427 . S
C541 H532 0.930 . S
C541 C539 1.378 . S
C541 C542 1.367 . S
C542 C541 1.367 . S
C542 C544 1.433 1_554 S
C543 C539 1.350 . S
C543 C540 1.463 . S
C543 N547 1.427 1_554 S
C544 H534 0.929 . S
C544 C542 1.433 1_556 S
C544 N547 1.384 . S
C545 H536 0.929 . S
C545 C537 1.378 . S
C545 C540 1.350 1_556 S
C546 H533 0.929 . S
C546 C538 1.433 . S
C546 N548 1.384 . S
N547 C543 1.427 1_556 S
N547 C544 1.384 . S
N548 C540 1.427 . S
N548 C546 1.384 . S
H549 C555 0.930 . S
H550 C559 0.930 . S
H551 C564 0.929 . S
H552 C562 0.929 . S
H553 C557 0.929 . S
H554 C563 0.929 . S
C555 H549 0.930 . S
C555 C556 1.367 . S
C555 C563 1.378 . S
C556 C555 1.367 . S
C556 C564 1.433 1_554 S
C557 H553 0.929 . S
C557 C559 1.378 . S
C557 C561 1.350 1_556 S
C558 C561 1.463 . S
C558 C563 1.350 . S
C558 N566 1.427 1_554 S
C559 H550 0.930 . S
C559 C557 1.378 . S
C559 C560 1.367 1_556 S
C560 C559 1.367 1_554 S
C560 C562 1.433 . S
C561 C557 1.350 1_554 S
C561 C558 1.463 . S
C561 N565 1.427 . S
C562 H552 0.929 . S
C562 C560 1.433 . S
C562 N565 1.384 . S
C563 H554 0.929 . S
C563 C555 1.378 . S
C563 C558 1.350 . S
C564 H551 0.929 . S
C564 C556 1.433 1_556 S
C564 N566 1.384 . S
N565 C561 1.427 . S
N565 C562 1.384 . S
N566 C558 1.427 1_556 S
N566 C564 1.384 . S
H567 C573 0.930 . S
H568 C577 0.930 . S
H569 C582 0.929 . S
H570 C580 0.929 . S
H571 C575 0.929 . S
H572 C581 0.929 . S
C573 H567 0.930 . S
C573 C574 1.367 . S
C573 C581 1.378 . S
C574 C573 1.367 . S
C574 C582 1.433 . S
C575 H571 0.929 . S
C575 C577 1.378 . S
C575 C579 1.350 . S
C576 C579 1.463 . S
C576 C581 1.350 . S
C576 N584 1.427 . S
C577 H568 0.930 . S
C577 C575 1.378 . S
C577 C578 1.367 . S
C578 C577 1.367 . S
C578 C580 1.433 . S
C579 C575 1.350 . S
C579 C576 1.463 . S
C579 N583 1.427 . S
C580 H570 0.929 . S
C580 C578 1.433 . S
C580 N583 1.384 . S
C581 H572 0.929 . S
C581 C573 1.378 . S
C581 C576 1.350 . S
C582 H569 0.929 . S
C582 C574 1.433 . S
C582 N584 1.384 . S
N583 C579 1.427 . S
N583 C580 1.384 . S
N584 C576 1.427 . S
N584 C582 1.384 . S
H585 C591 0.930 . S
H586 C595 0.930 . S
H587 C600 0.929 . S
H588 C598 0.929 . S
H589 C593 0.929 . S
H590 C599 0.929 . S
C591 H585 0.930 . S
C591 C592 1.367 1_556 S
C591 C599 1.378 . S
C592 C591 1.367 1_554 S
C592 C600 1.433 . S
C593 H589 0.929 . S
C593 C595 1.378 . S
C593 C597 1.350 . S
C594 C597 1.463 . S
C594 C599 1.350 1_554 S
C594 N602 1.427 . S
C595 H586 0.930 . S
C595 C593 1.378 . S
C595 C596 1.367 . S
C596 C595 1.367 . S
C596 C598 1.433 1_554 S
C597 C593 1.350 . S
C597 C594 1.463 . S
C597 N601 1.427 1_554 S
C598 H588 0.929 . S
C598 C596 1.433 1_556 S
C598 N601 1.384 . S
C599 H590 0.929 . S
C599 C591 1.378 . S
C599 C594 1.350 1_556 S
C600 H587 0.929 . S
C600 C592 1.433 . S
C600 N602 1.384 . S
N601 C597 1.427 1_556 S
N601 C598 1.384 . S
N602 C594 1.427 . S
N602 C600 1.384 . S
H603 C609 0.930 . S
H604 C613 0.930 . S
H605 C618 0.929 . S
H606 C616 0.929 . S
H607 C611 0.929 . S
H608 C617 0.929 . S
C609 H603 0.930 . S
C609 C610 1.367 1_556 S
C609 C617 1.378 . S
C610 C609 1.367 1_554 S
C610 C618 1.433 . S
C611 H607 0.929 . S
C611 C613 1.378 . S
C611 C615 1.350 . S
C612 C615 1.463 . S
C612 C617 1.350 1_554 S
C612 N620 1.427 . S
C613 H604 0.930 . S
C613 C611 1.378 . S
C613 C614 1.367 . S
C614 C613 1.367 . S
C614 C616 1.433 1_554 S
C615 C611 1.350 . S
C615 C612 1.463 . S
C615 N619 1.427 1_554 S
C616 H606 0.929 . S
C616 C614 1.433 1_556 S
C616 N619 1.384 . S
C617 H608 0.929 . S
C617 C609 1.378 . S
C617 C612 1.350 1_556 S
C618 H605 0.929 . S
C618 C610 1.433 . S
C618 N620 1.384 . S
N619 C615 1.427 1_556 S
N619 C616 1.384 . S
N620 C612 1.427 . S
N620 C618 1.384 . S
H621 C627 0.930 . S
H622 C631 0.930 . S
H623 C636 0.929 . S
H624 C634 0.929 . S
H625 C629 0.929 . S
H626 C635 0.929 . S
C627 H621 0.930 . S
C627 C628 1.367 . S
C627 C635 1.378 . S
C628 C627 1.367 . S
C628 C636 1.433 1_554 S
C629 H625 0.929 . S
C629 C631 1.378 . S
C629 C633 1.350 1_556 S
C630 C633 1.463 . S
C630 C635 1.350 . S
C630 N638 1.427 1_554 S
C631 H622 0.930 . S
C631 C629 1.378 . S
C631 C632 1.367 1_556 S
C632 C631 1.367 1_554 S
C632 C634 1.433 . S
C633 C629 1.350 1_554 S
C633 C630 1.463 . S
C633 N637 1.427 . S
C634 H624 0.929 . S
C634 C632 1.433 . S
C634 N637 1.384 . S
C635 H626 0.929 . S
C635 C627 1.378 . S
C635 C630 1.350 . S
C636 H623 0.929 . S
C636 C628 1.433 1_556 S
C636 N638 1.384 . S
N637 C633 1.427 . S
N637 C634 1.384 . S
N638 C630 1.427 1_556 S
N638 C636 1.384 . S
H639 C645 0.930 . S
H640 C649 0.930 . S
H641 C654 0.929 . S
H642 C652 0.929 . S
H643 C647 0.929 . S
H644 C653 0.929 . S
C645 H639 0.930 . S
C645 C646 1.367 . S
C645 C653 1.378 . S
C646 C645 1.367 . S
C646 C654 1.433 . S
C647 H643 0.929 . S
C647 C649 1.378 . S
C647 C651 1.350 . S
C648 C651 1.463 1_655 S
C648 C653 1.350 . S
C648 N656 1.427 . S
C649 H640 0.930 . S
C649 C647 1.378 . S
C649 C650 1.367 . S
C650 C649 1.367 . S
C650 C652 1.433 . S
C651 C647 1.350 . S
C651 C648 1.463 1_455 S
C651 N655 1.427 . S
C652 H642 0.929 . S
C652 C650 1.433 . S
C652 N655 1.384 . S
C653 H644 0.929 . S
C653 C645 1.378 . S
C653 C648 1.350 . S
C654 H641 0.929 . S
C654 C646 1.433 . S
C654 N656 1.384 . S
N655 C651 1.427 . S
N655 C652 1.384 . S
N656 C648 1.427 . S
N656 C654 1.384 . S
H657 C663 0.930 . S
H658 C667 0.930 . S
H659 C672 0.929 . S
H660 C670 0.929 . S
H661 C665 0.929 . S
H662 C671 0.929 . S
C663 H657 0.930 . S
C663 C664 1.367 . S
C663 C671 1.378 . S
C664 C663 1.367 . S
C664 C672 1.433 . S
C665 H661 0.929 . S
C665 C667 1.378 . S
C665 C669 1.350 . S
C666 C669 1.463 . S
C666 C671 1.350 . S
C666 N674 1.427 . S
C667 H658 0.930 . S
C667 C665 1.378 . S
C667 C668 1.367 . S
C668 C667 1.367 . S
C668 C670 1.433 . S
C669 C665 1.350 . S
C669 C666 1.463 . S
C669 N673 1.427 . S
C670 H660 0.929 . S
C670 C668 1.433 . S
C670 N673 1.384 . S
C671 H662 0.929 . S
C671 C663 1.378 . S
C671 C666 1.350 . S
C672 H659 0.929 . S
C672 C664 1.433 . S
C672 N674 1.384 . S
N673 C669 1.427 . S
N673 C670 1.384 . S
N674 C666 1.427 . S
N674 C672 1.384 . S
H675 C681 0.930 . S
H676 C685 0.930 . S
H677 C690 0.929 . S
H678 C688 0.929 . S
H679 C683 0.929 . S
H680 C689 0.929 . S
C681 H675 0.930 . S
C681 C682 1.367 . S
C681 C689 1.378 . S
C682 C681 1.367 . S
C682 C690 1.433 . S
C683 H679 0.929 . S
C683 C685 1.378 . S
C683 C687 1.350 . S
C684 C687 1.463 1_545 S
C684 C689 1.350 . S
C684 N692 1.427 . S
C685 H676 0.930 . S
C685 C683 1.378 . S
C685 C686 1.367 . S
C686 C685 1.367 . S
C686 C688 1.433 . S
C687 C683 1.350 . S
C687 C684 1.463 1_565 S
C687 N691 1.427 . S
C688 H678 0.929 . S
C688 C686 1.433 . S
C688 N691 1.384 . S
C689 H680 0.929 . S
C689 C681 1.378 . S
C689 C684 1.350 . S
C690 H677 0.929 . S
C690 C682 1.433 . S
C690 N692 1.384 . S
N691 C687 1.427 . S
N691 C688 1.384 . S
N692 C684 1.427 . S
N692 C690 1.384 . S
H693 C699 0.930 . S
H694 C703 0.930 . S
H695 C708 0.929 . S
H696 C706 0.929 . S
H697 C701 0.929 . S
H698 C707 0.929 . S
C699 H693 0.930 . S
C699 C700 1.367 . S
C699 C707 1.378 . S
C700 C699 1.367 . S
C700 C708 1.433 . S
C701 H697 0.929 . S
C701 C703 1.378 . S
C701 C705 1.350 . S
C702 C705 1.463 . S
C702 C707 1.350 . S
C702 N710 1.427 . S
C703 H694 0.930 . S
C703 C701 1.378 . S
C703 C704 1.367 . S
C704 C703 1.367 . S
C704 C706 1.433 . S
C705 C701 1.350 . S
C705 C702 1.463 . S
C705 N709 1.427 . S
C706 H696 0.929 . S
C706 C704 1.433 . S
C706 N709 1.384 . S
C707 H698 0.929 . S
C707 C699 1.378 . S
C707 C702 1.350 . S
C708 H695 0.929 . S
C708 C700 1.433 . S
C708 N710 1.384 . S
N709 C705 1.427 . S
N709 C706 1.384 . S
N710 C702 1.427 . S
N710 C708 1.384 . S
H711 C717 0.930 . S
H712 C721 0.930 . S
H713 C726 0.929 . S
H714 C724 0.929 . S
H715 C719 0.929 . S
H716 C725 0.929 . S
C717 H711 0.930 . S
C717 C718 1.367 . S
C717 C725 1.378 . S
C718 C717 1.367 . S
C718 C726 1.433 . S
C719 H715 0.929 . S
C719 C721 1.378 . S
C719 C723 1.350 . S
C720 C723 1.463 . S
C720 C725 1.350 . S
C720 N728 1.427 . S
C721 H712 0.930 . S
C721 C719 1.378 . S
C721 C722 1.367 . S
C722 C721 1.367 . S
C722 C724 1.433 . S
C723 C719 1.350 . S
C723 C720 1.463 . S
C723 N727 1.427 . S
C724 H714 0.929 . S
C724 C722 1.433 . S
C724 N727 1.384 . S
C725 H716 0.929 . S
C725 C717 1.378 . S
C725 C720 1.350 . S
C726 H713 0.929 . S
C726 C718 1.433 . S
C726 N728 1.384 . S
N727 C723 1.427 . S
N727 C724 1.384 . S
N728 C720 1.427 . S
N728 C726 1.384 . S
H729 C735 0.930 . S
H730 C739 0.930 . S
H731 C744 0.929 . S
H732 C742 0.929 . S
H733 C737 0.929 . S
H734 C743 0.929 . S
C735 H729 0.930 . S
C735 C736 1.367 . S
C735 C743 1.378 . S
C736 C735 1.367 . S
C736 C744 1.433 . S
C737 H733 0.929 . S
C737 C739 1.378 . S
C737 C741 1.350 . S
C738 C741 1.463 . S
C738 C743 1.350 . S
C738 N746 1.427 . S
C739 H730 0.930 . S
C739 C737 1.378 . S
C739 C740 1.367 . S
C740 C739 1.367 . S
C740 C742 1.433 . S
C741 C737 1.350 . S
C741 C738 1.463 . S
C741 N745 1.427 . S
C742 H732 0.929 . S
C742 C740 1.433 . S
C742 N745 1.384 . S
C743 H734 0.929 . S
C743 C735 1.378 . S
C743 C738 1.350 . S
C744 H731 0.929 . S
C744 C736 1.433 . S
C744 N746 1.384 . S
N745 C741 1.427 . S
N745 C742 1.384 . S
N746 C738 1.427 . S
N746 C744 1.384 . S
H747 C753 0.930 . S
H748 C757 0.930 . S
H749 C762 0.929 . S
H750 C760 0.929 . S
H751 C755 0.929 . S
H752 C761 0.929 . S
C753 H747 0.930 . S
C753 C754 1.367 . S
C753 C761 1.378 . S
C754 C753 1.367 . S
C754 C762 1.433 . S
C755 H751 0.929 . S
C755 C757 1.378 . S
C755 C759 1.350 . S
C756 C759 1.463 . S
C756 C761 1.350 . S
C756 N764 1.427 . S
C757 H748 0.930 . S
C757 C755 1.378 . S
C757 C758 1.367 . S
C758 C757 1.367 . S
C758 C760 1.433 . S
C759 C755 1.350 . S
C759 C756 1.463 . S
C759 N763 1.427 . S
C760 H750 0.929 . S
C760 C758 1.433 . S
C760 N763 1.384 . S
C761 H752 0.929 . S
C761 C753 1.378 . S
C761 C756 1.350 . S
C762 H749 0.929 . S
C762 C754 1.433 . S
C762 N764 1.384 . S
N763 C759 1.427 . S
N763 C760 1.384 . S
N764 C756 1.427 . S
N764 C762 1.384 . S
H765 C771 0.930 . S
H766 C775 0.930 . S
H767 C780 0.929 . S
H768 C778 0.929 . S
H769 C773 0.929 . S
H770 C779 0.929 . S
C771 H765 0.930 . S
C771 C772 1.367 . S
C771 C779 1.378 . S
C772 C771 1.367 . S
C772 C780 1.433 . S
C773 H769 0.929 . S
C773 C775 1.378 . S
C773 C777 1.350 . S
C774 C777 1.463 . S
C774 C779 1.350 . S
C774 N782 1.427 . S
C775 H766 0.930 . S
C775 C773 1.378 . S
C775 C776 1.367 . S
C776 C775 1.367 . S
C776 C778 1.433 . S
C777 C773 1.350 . S
C777 C774 1.463 . S
C777 N781 1.427 . S
C778 H768 0.929 . S
C778 C776 1.433 . S
C778 N781 1.384 . S
C779 H770 0.929 . S
C779 C771 1.378 . S
C779 C774 1.350 . S
C780 H767 0.929 . S
C780 C772 1.433 . S
C780 N782 1.384 . S
N781 C777 1.427 . S
N781 C778 1.384 . S
N782 C774 1.427 . S
N782 C780 1.384 . S
H783 C789 0.930 . S
H784 C793 0.930 . S
H785 C798 0.929 . S
H786 C796 0.929 . S
H787 C791 0.929 . S
H788 C797 0.929 . S
C789 H783 0.930 . S
C789 C790 1.367 . S
C789 C797 1.378 . S
C790 C789 1.367 . S
C790 C798 1.433 . S
C791 H787 0.929 . S
C791 C793 1.378 . S
C791 C795 1.350 . S
C792 C795 1.463 . S
C792 C797 1.350 . S
C792 N800 1.427 . S
C793 H784 0.930 . S
C793 C791 1.378 . S
C793 C794 1.367 . S
C794 C793 1.367 . S
C794 C796 1.433 . S
C795 C791 1.350 . S
C795 C792 1.463 . S
C795 N799 1.427 . S
C796 H786 0.929 . S
C796 C794 1.433 . S
C796 N799 1.384 . S
C797 H788 0.929 . S
C797 C789 1.378 . S
C797 C792 1.350 . S
C798 H785 0.929 . S
C798 C790 1.433 . S
C798 N800 1.384 . S
N799 C795 1.427 . S
N799 C796 1.384 . S
N800 C792 1.427 . S
N800 C798 1.384 . S
H801 C807 0.930 . S
H802 C811 0.930 . S
H803 C816 0.929 . S
H804 C814 0.929 . S
H805 C809 0.929 . S
H806 C815 0.929 . S
C807 H801 0.930 . S
C807 C808 1.367 . S
C807 C815 1.378 1_545 S
C808 C807 1.367 . S
C808 C816 1.433 . S
C809 H805 0.929 . S
C809 C811 1.378 . S
C809 C813 1.350 . S
C810 C813 1.463 . S
C810 C815 1.350 . S
C810 N818 1.427 . S
C811 H802 0.930 . S
C811 C809 1.378 . S
C811 C812 1.367 . S
C812 C811 1.367 . S
C812 C814 1.433 . S
C813 C809 1.350 . S
C813 C810 1.463 . S
C813 N817 1.427 . S
C814 H804 0.929 . S
C814 C812 1.433 . S
C814 N817 1.384 . S
C815 H806 0.929 . S
C815 C807 1.378 1_565 S
C815 C810 1.350 . S
C816 H803 0.929 . S
C816 C808 1.433 . S
C816 N818 1.384 1_545 S
N817 C813 1.427 . S
N817 C814 1.384 . S
N818 C810 1.427 . S
N818 C816 1.384 1_565 S
H819 C825 0.930 . S
H820 C829 0.930 . S
H821 C834 0.929 . S
H822 C832 0.929 . S
H823 C827 0.929 . S
H824 C833 0.929 . S
C825 H819 0.930 . S
C825 C826 1.367 . S
C825 C833 1.378 1_655 S
C826 C825 1.367 . S
C826 C834 1.433 . S
C827 H823 0.929 . S
C827 C829 1.378 . S
C827 C831 1.350 . S
C828 C831 1.463 . S
C828 C833 1.350 . S
C828 N836 1.427 . S
C829 H820 0.930 . S
C829 C827 1.378 . S
C829 C830 1.367 . S
C830 C829 1.367 . S
C830 C832 1.433 . S
C831 C827 1.350 . S
C831 C828 1.463 . S
C831 N835 1.427 . S
C832 H822 0.929 . S
C832 C830 1.433 . S
C832 N835 1.384 . S
C833 H824 0.929 . S
C833 C825 1.378 1_455 S
C833 C828 1.350 . S
C834 H821 0.929 . S
C834 C826 1.433 . S
C834 N836 1.384 1_655 S
N835 C831 1.427 . S
N835 C832 1.384 . S
N836 C828 1.427 . S
N836 C834 1.384 1_455 S
H837 C843 0.930 . S
H838 C847 0.930 . S
H839 C852 0.929 . S
H840 C850 0.929 . S
H841 C845 0.929 . S
H842 C851 0.929 . S
C843 H837 0.930 . S
C843 C844 1.367 . S
C843 C851 1.378 . S
C844 C843 1.367 . S
C844 C852 1.433 . S
C845 H841 0.929 . S
C845 C847 1.378 . S
C845 C849 1.350 . S
C846 C849 1.463 . S
C846 C851 1.350 . S
C846 N854 1.427 . S
C847 H838 0.930 . S
C847 C845 1.378 . S
C847 C848 1.367 . S
C848 C847 1.367 . S
C848 C850 1.433 . S
C849 C845 1.350 . S
C849 C846 1.463 . S
C849 N853 1.427 . S
C850 H840 0.929 . S
C850 C848 1.433 . S
C850 N853 1.384 . S
C851 H842 0.929 . S
C851 C843 1.378 . S
C851 C846 1.350 . S
C852 H839 0.929 . S
C852 C844 1.433 . S
C852 N854 1.384 . S
N853 C849 1.427 . S
N853 C850 1.384 . S
N854 C846 1.427 . S
N854 C852 1.384 . S
H855 C861 0.930 . S
H856 C865 0.930 . S
H857 C870 0.929 . S
H858 C868 0.929 . S
H859 C863 0.929 . S
H860 C869 0.929 . S
C861 H855 0.930 . S
C861 C862 1.367 . S
C861 C869 1.378 . S
C862 C861 1.367 . S
C862 C870 1.433 . S
C863 H859 0.929 . S
C863 C865 1.378 . S
C863 C867 1.350 . S
C864 C867 1.463 . S
C864 C869 1.350 . S
C864 N872 1.427 . S
C865 H856 0.930 . S
C865 C863 1.378 . S
C865 C866 1.367 . S
C866 C865 1.367 . S
C866 C868 1.433 . S
C867 C863 1.350 . S
C867 C864 1.463 . S
C867 N871 1.427 . S
C868 H858 0.929 . S
C868 C866 1.433 . S
C868 N871 1.384 . S
C869 H860 0.929 . S
C869 C861 1.378 . S
C869 C864 1.350 . S
C870 H857 0.929 . S
C870 C862 1.433 . S
C870 N872 1.384 . S
N871 C867 1.427 . S
N871 C868 1.384 . S
N872 C864 1.427 . S
N872 C870 1.384 . S
H873 C879 0.930 . S
H874 C883 0.930 . S
H875 C888 0.929 . S
H876 C886 0.929 . S
H877 C881 0.929 . S
H878 C887 0.929 . S
C879 H873 0.930 . S
C879 C880 1.367 . S
C879 C887 1.378 . S
C880 C879 1.367 . S
C880 C888 1.433 . S
C881 H877 0.929 . S
C881 C883 1.378 . S
C881 C885 1.350 . S
C882 C885 1.463 . S
C882 C887 1.350 . S
C882 N890 1.427 . S
C883 H874 0.930 . S
C883 C881 1.378 . S
C883 C884 1.367 . S
C884 C883 1.367 . S
C884 C886 1.433 . S
C885 C881 1.350 . S
C885 C882 1.463 . S
C885 N889 1.427 . S
C886 H876 0.929 . S
C886 C884 1.433 . S
C886 N889 1.384 . S
C887 H878 0.929 . S
C887 C879 1.378 . S
C887 C882 1.350 . S
C888 H875 0.929 . S
C888 C880 1.433 . S
C888 N890 1.384 . S
N889 C885 1.427 . S
N889 C886 1.384 . S
N890 C882 1.427 . S
N890 C888 1.384 . S
H891 C897 0.930 . S
H892 C901 0.930 . S
H893 C906 0.929 . S
H894 C904 0.929 . S
H895 C899 0.929 . S
H896 C905 0.929 . S
C897 H891 0.930 . S
C897 C898 1.367 . S
C897 C905 1.378 . S
C898 C897 1.367 . S
C898 C906 1.433 . S
C899 H895 0.929 . S
C899 C901 1.378 . S
C899 C903 1.350 . S
C900 C903 1.463 . S
C900 C905 1.350 . S
C900 N908 1.427 . S
C901 H892 0.930 . S
C901 C899 1.378 . S
C901 C902 1.367 . S
C902 C901 1.367 . S
C902 C904 1.433 . S
C903 C899 1.350 . S
C903 C900 1.463 . S
C903 N907 1.427 . S
C904 H894 0.929 . S
C904 C902 1.433 . S
C904 N907 1.384 . S
C905 H896 0.929 . S
C905 C897 1.378 . S
C905 C900 1.350 . S
C906 H893 0.929 . S
C906 C898 1.433 . S
C906 N908 1.384 . S
N907 C903 1.427 . S
N907 C904 1.384 . S
N908 C900 1.427 . S
N908 C906 1.384 . S
H909 C915 0.930 . S
H910 C919 0.930 . S
H911 C924 0.929 . S
H912 C922 0.929 . S
H913 C917 0.929 . S
H914 C923 0.929 . S
C915 H909 0.930 . S
C915 C916 1.367 . S
C915 C923 1.378 . S
C916 C915 1.367 . S
C916 C924 1.433 . S
C917 H913 0.929 . S
C917 C919 1.378 . S
C917 C921 1.350 . S
C918 C921 1.463 1_565 S
C918 C923 1.350 . S
C918 N926 1.427 . S
C919 H910 0.930 . S
C919 C917 1.378 . S
C919 C920 1.367 . S
C920 C919 1.367 . S
C920 C922 1.433 . S
C921 C917 1.350 . S
C921 C918 1.463 1_545 S
C921 N925 1.427 . S
C922 H912 0.929 . S
C922 C920 1.433 . S
C922 N925 1.384 . S
C923 H914 0.929 . S
C923 C915 1.378 . S
C923 C918 1.350 . S
C924 H911 0.929 . S
C924 C916 1.433 . S
C924 N926 1.384 . S
N925 C921 1.427 . S
N925 C922 1.384 . S
N926 C918 1.427 . S
N926 C924 1.384 . S
H927 C933 0.930 . S
H928 C937 0.930 . S
H929 C942 0.929 . S
H930 C940 0.929 . S
H931 C935 0.929 1_455 S
H932 C941 0.929 . S
C933 H927 0.930 . S
C933 C934 1.367 . S
C933 C941 1.378 . S
C934 C933 1.367 . S
C934 C942 1.433 . S
C935 H931 0.929 1_655 S
C935 C937 1.378 . S
C935 C939 1.350 . S
C936 C939 1.463 1_455 S
C936 C941 1.350 . S
C936 N944 1.427 . S
C937 H928 0.930 . S
C937 C935 1.378 . S
C937 C938 1.367 . S
C938 C937 1.367 . S
C938 C940 1.433 . S
C939 C935 1.350 . S
C939 C936 1.463 1_655 S
C939 N943 1.427 . S
C940 H930 0.929 . S
C940 C938 1.433 . S
C940 N943 1.384 . S
C941 H932 0.929 . S
C941 C933 1.378 . S
C941 C936 1.350 . S
C942 H929 0.929 . S
C942 C934 1.433 . S
C942 N944 1.384 . S
N943 C939 1.427 . S
N943 C940 1.384 . S
N944 C936 1.427 . S
N944 C942 1.384 . S
H945 C951 0.930 . S
H946 C955 0.930 . S
H947 C960 0.929 . S
H948 C958 0.929 . S
H949 C953 0.929 . S
H950 C959 0.929 . S
C951 H945 0.930 . S
C951 C952 1.367 . S
C951 C959 1.378 . S
C952 C951 1.367 . S
C952 C960 1.433 . S
C953 H949 0.929 . S
C953 C955 1.378 . S
C953 C957 1.350 . S
C954 C957 1.463 . S
C954 C959 1.350 . S
C954 N962 1.427 . S
C955 H946 0.930 . S
C955 C953 1.378 . S
C955 C956 1.367 . S
C956 C955 1.367 . S
C956 C958 1.433 . S
C957 C953 1.350 . S
C957 C954 1.463 . S
C957 N961 1.427 . S
C958 H948 0.929 . S
C958 C956 1.433 . S
C958 N961 1.384 . S
C959 H950 0.929 . S
C959 C951 1.378 . S
C959 C954 1.350 . S
C960 H947 0.929 . S
C960 C952 1.433 . S
C960 N962 1.384 . S
N961 C957 1.427 . S
N961 C958 1.384 . S
N962 C954 1.427 . S
N962 C960 1.384 . S
H963 C969 0.930 . S
H964 C973 0.930 . S
H965 C978 0.929 . S
H966 C976 0.929 . S
H967 C971 0.929 . S
H968 C977 0.929 1_655 S
C969 H963 0.930 . S
C969 C970 1.367 . S
C969 C977 1.378 . S
C970 C969 1.367 . S
C970 C978 1.433 . S
C971 H967 0.929 . S
C971 C973 1.378 . S
C971 C975 1.350 . S
C972 C975 1.463 . S
C972 C977 1.350 1_655 S
C972 N980 1.427 1_655 S
C973 H964 0.930 . S
C973 C971 1.378 . S
C973 C974 1.367 . S
C974 C973 1.367 . S
C974 C976 1.433 . S
C975 C971 1.350 . S
C975 C972 1.463 . S
C975 N979 1.427 . S
C976 H966 0.929 . S
C976 C974 1.433 . S
C976 N979 1.384 . S
C977 H968 0.929 1_455 S
C977 C969 1.378 . S
C977 C972 1.350 1_455 S
C978 H965 0.929 . S
C978 C970 1.433 . S
C978 N980 1.384 . S
N979 C975 1.427 . S
N979 C976 1.384 . S
N980 C972 1.427 1_455 S
N980 C978 1.384 . S
H981 C987 0.930 . S
H982 C991 0.930 . S
H983 C996 0.929 . S
H984 C994 0.929 . S
H985 C989 0.929 . S
H986 C995 0.929 . S
C987 H981 0.930 . S
C987 C988 1.367 . S
C987 C995 1.378 . S
C988 C987 1.367 . S
C988 C996 1.433 . S
C989 H985 0.929 . S
C989 C991 1.378 . S
C989 C993 1.350 . S
C990 C993 1.463 . S
C990 C995 1.350 . S
C990 N998 1.427 . S
C991 H982 0.930 . S
C991 C989 1.378 . S
C991 C992 1.367 . S
C992 C991 1.367 . S
C992 C994 1.433 . S
C993 C989 1.350 . S
C993 C990 1.463 . S
C993 N997 1.427 . S
C994 H984 0.929 . S
C994 C992 1.433 . S
C994 N997 1.384 . S
C995 H986 0.929 . S
C995 C987 1.378 . S
C995 C990 1.350 . S
C996 H983 0.929 . S
C996 C988 1.433 . S
C996 N998 1.384 . S
N997 C993 1.427 . S
N997 C994 1.384 . S
N998 C990 1.427 . S
N998 C996 1.384 . S
H999 C1005 0.930 . S
H1000 C1009 0.930 . S
H1001 C1014 0.929 . S
H1002 C1012 0.929 . S
H1003 C1007 0.929 . S
H1004 C1013 0.929 . S
C1005 H999 0.930 . S
C1005 C1006 1.367 . S
C1005 C1013 1.378 1_565 S
C1006 C1005 1.367 . S
C1006 C1014 1.433 . S
C1007 H1003 0.929 . S
C1007 C1009 1.378 . S
C1007 C1011 1.350 . S
C1008 C1011 1.463 . S
C1008 C1013 1.350 . S
C1008 N1016 1.427 . S
C1009 H1000 0.930 . S
C1009 C1007 1.378 . S
C1009 C1010 1.367 . S
C1010 C1009 1.367 . S
C1010 C1012 1.433 . S
C1011 C1007 1.350 . S
C1011 C1008 1.463 . S
C1011 N1015 1.427 . S
C1012 H1002 0.929 . S
C1012 C1010 1.433 . S
C1012 N1015 1.384 . S
C1013 H1004 0.929 . S
C1013 C1005 1.378 1_545 S
C1013 C1008 1.350 . S
C1014 H1001 0.929 . S
C1014 C1006 1.433 . S
C1014 N1016 1.384 1_565 S
N1015 C1011 1.427 . S
N1015 C1012 1.384 . S
N1016 C1008 1.427 . S
N1016 C1014 1.384 1_545 S
H1017 C1023 0.930 . S
H1018 C1027 0.930 . S
H1019 C1032 0.929 . S
H1020 C1030 0.929 . S
H1021 C1025 0.929 . S
H1022 C1031 0.929 . S
C1023 H1017 0.930 . S
C1023 C1024 1.367 . S
C1023 C1031 1.378 . S
C1024 C1023 1.367 . S
C1024 C1032 1.433 . S
C1025 H1021 0.929 . S
C1025 C1027 1.378 . S
C1025 C1029 1.350 . S
C1026 C1029 1.463 . S
C1026 C1031 1.350 . S
C1026 N1034 1.427 . S
C1027 H1018 0.930 . S
C1027 C1025 1.378 . S
C1027 C1028 1.367 . S
C1028 C1027 1.367 . S
C1028 C1030 1.433 . S
C1029 C1025 1.350 . S
C1029 C1026 1.463 . S
C1029 N1033 1.427 . S
C1030 H1020 0.929 . S
C1030 C1028 1.433 . S
C1030 N1033 1.384 . S
C1031 H1022 0.929 . S
C1031 C1023 1.378 . S
C1031 C1026 1.350 . S
C1032 H1019 0.929 . S
C1032 C1024 1.433 . S
C1032 N1034 1.384 . S
N1033 C1029 1.427 . S
N1033 C1030 1.384 . S
N1034 C1026 1.427 . S
N1034 C1032 1.384 . S
H1035 C1041 0.930 . S
H1036 C1045 0.930 . S
H1037 C1050 0.929 . S
H1038 C1048 0.929 . S
H1039 C1043 0.929 . S
H1040 C1049 0.929 . S
C1041 H1035 0.930 . S
C1041 C1042 1.367 . S
C1041 C1049 1.378 . S
C1042 C1041 1.367 . S
C1042 C1050 1.433 . S
C1043 H1039 0.929 . S
C1043 C1045 1.378 . S
C1043 C1047 1.350 . S
C1044 C1047 1.463 . S
C1044 C1049 1.350 . S
C1044 N1052 1.427 . S
C1045 H1036 0.930 . S
C1045 C1043 1.378 . S
C1045 C1046 1.367 . S
C1046 C1045 1.367 . S
C1046 C1048 1.433 . S
C1047 C1043 1.350 . S
C1047 C1044 1.463 . S
C1047 N1051 1.427 . S
C1048 H1038 0.929 . S
C1048 C1046 1.433 . S
C1048 N1051 1.384 . S
C1049 H1040 0.929 . S
C1049 C1041 1.378 . S
C1049 C1044 1.350 . S
C1050 H1037 0.929 . S
C1050 C1042 1.433 . S
C1050 N1052 1.384 . S
N1051 C1047 1.427 . S
N1051 C1048 1.384 . S
N1052 C1044 1.427 . S
N1052 C1050 1.384 . S
H1053 C1059 0.930 . S
H1054 C1063 0.930 . S
H1055 C1068 0.929 . S
H1056 C1066 0.929 . S
H1057 C1061 0.929 . S
H1058 C1067 0.929 . S
C1059 H1053 0.930 . S
C1059 C1060 1.367 . S
C1059 C1067 1.378 . S
C1060 C1059 1.367 . S
C1060 C1068 1.433 . S
C1061 H1057 0.929 . S
C1061 C1063 1.378 . S
C1061 C1065 1.350 . S
C1062 C1065 1.463 . S
C1062 C1067 1.350 . S
C1062 N1070 1.427 . S
C1063 H1054 0.930 . S
C1063 C1061 1.378 . S
C1063 C1064 1.367 . S
C1064 C1063 1.367 . S
C1064 C1066 1.433 . S
C1065 C1061 1.350 . S
C1065 C1062 1.463 . S
C1065 N1069 1.427 . S
C1066 H1056 0.929 . S
C1066 C1064 1.433 . S
C1066 N1069 1.384 . S
C1067 H1058 0.929 . S
C1067 C1059 1.378 . S
C1067 C1062 1.350 . S
C1068 H1055 0.929 . S
C1068 C1060 1.433 . S
C1068 N1070 1.384 . S
N1069 C1065 1.427 . S
N1069 C1066 1.384 . S
N1070 C1062 1.427 . S
N1070 C1068 1.384 . S
H1071 C1077 0.930 . S
H1072 C1081 0.930 . S
H1073 C1086 0.929 . S
H1074 C1084 0.929 . S
H1075 C1079 0.929 1_545 S
H1076 C1085 0.929 . S
C1077 H1071 0.930 . S
C1077 C1078 1.367 . S
C1077 C1085 1.378 . S
C1078 C1077 1.367 . S
C1078 C1086 1.433 . S
C1079 H1075 0.929 1_565 S
C1079 C1081 1.378 1_565 S
C1079 C1083 1.350 . S
C1080 C1083 1.463 . S
C1080 C1085 1.350 . S
C1080 N1088 1.427 . S
C1081 H1072 0.930 . S
C1081 C1079 1.378 1_545 S
C1081 C1082 1.367 1_545 S
C1082 C1081 1.367 1_565 S
C1082 C1084 1.433 . S
C1083 C1079 1.350 . S
C1083 C1080 1.463 . S
C1083 N1087 1.427 . S
C1084 H1074 0.929 . S
C1084 C1082 1.433 . S
C1084 N1087 1.384 . S
C1085 H1076 0.929 . S
C1085 C1077 1.378 . S
C1085 C1080 1.350 . S
C1086 H1073 0.929 . S
C1086 C1078 1.433 . S
C1086 N1088 1.384 . S
N1087 C1083 1.427 . S
N1087 C1084 1.384 . S
N1088 C1080 1.427 . S
N1088 C1086 1.384 . S
H1089 C1095 0.930 . S
H1090 C1099 0.930 1_655 S
H1091 C1104 0.929 . S
H1092 C1102 0.929 . S
H1093 C1097 0.929 . S
H1094 C1103 0.929 . S
C1095 H1089 0.930 . S
C1095 C1096 1.367 . S
C1095 C1103 1.378 . S
C1096 C1095 1.367 . S
C1096 C1104 1.433 . S
C1097 H1093 0.929 . S
C1097 C1099 1.378 . S
C1097 C1101 1.350 . S
C1098 C1101 1.463 . S
C1098 C1103 1.350 . S
C1098 N1106 1.427 . S
C1099 H1090 0.930 1_455 S
C1099 C1097 1.378 . S
C1099 C1100 1.367 . S
C1100 C1099 1.367 . S
C1100 C1102 1.433 . S
C1101 C1097 1.350 . S
C1101 C1098 1.463 . S
C1101 N1105 1.427 . S
C1102 H1092 0.929 . S
C1102 C1100 1.433 . S
C1102 N1105 1.384 . S
C1103 H1094 0.929 . S
C1103 C1095 1.378 . S
C1103 C1098 1.350 . S
C1104 H1091 0.929 . S
C1104 C1096 1.433 . S
C1104 N1106 1.384 . S
N1105 C1101 1.427 . S
N1105 C1102 1.384 . S
N1106 C1098 1.427 . S
N1106 C1104 1.384 . S
H1107 C1113 0.930 . S
H1108 C1117 0.930 . S
H1109 C1122 0.929 . S
H1110 C1120 0.929 . S
H1111 C1115 0.929 . S
H1112 C1121 0.929 . S
C1113 H1107 0.930 . S
C1113 C1114 1.367 . S
C1113 C1121 1.378 . S
C1114 C1113 1.367 . S
C1114 C1122 1.433 . S
C1115 H1111 0.929 . S
C1115 C1117 1.378 . S
C1115 C1119 1.350 . S
C1116 C1119 1.463 . S
C1116 C1121 1.350 . S
C1116 N1124 1.427 . S
C1117 H1108 0.930 . S
C1117 C1115 1.378 . S
C1117 C1118 1.367 . S
C1118 C1117 1.367 . S
C1118 C1120 1.433 . S
C1119 C1115 1.350 . S
C1119 C1116 1.463 . S
C1119 N1123 1.427 . S
C1120 H1110 0.929 . S
C1120 C1118 1.433 . S
C1120 N1123 1.384 . S
C1121 H1112 0.929 . S
C1121 C1113 1.378 . S
C1121 C1116 1.350 . S
C1122 H1109 0.929 . S
C1122 C1114 1.433 . S
C1122 N1124 1.384 . S
N1123 C1119 1.427 . S
N1123 C1120 1.384 . S
N1124 C1116 1.427 . S
N1124 C1122 1.384 . S
H1125 C1131 0.930 . S
H1126 C1135 0.930 . S
H1127 C1140 0.929 . S
H1128 C1138 0.929 1_455 S
H1129 C1133 0.929 . S
H1130 C1139 0.929 . S
C1131 H1125 0.930 . S
C1131 C1132 1.367 . S
C1131 C1139 1.378 . S
C1132 C1131 1.367 . S
C1132 C1140 1.433 . S
C1133 H1129 0.929 . S
C1133 C1135 1.378 . S
C1133 C1137 1.350 . S
C1134 C1137 1.463 . S
C1134 C1139 1.350 . S
C1134 N1142 1.427 . S
C1135 H1126 0.930 . S
C1135 C1133 1.378 . S
C1135 C1136 1.367 . S
C1136 C1135 1.367 . S
C1136 C1138 1.433 . S
C1137 C1133 1.350 . S
C1137 C1134 1.463 . S
C1137 N1141 1.427 . S
C1138 H1128 0.929 1_655 S
C1138 C1136 1.433 . S
C1138 N1141 1.384 . S
C1139 H1130 0.929 . S
C1139 C1131 1.378 . S
C1139 C1134 1.350 . S
C1140 H1127 0.929 . S
C1140 C1132 1.433 . S
C1140 N1142 1.384 . S
N1141 C1137 1.427 . S
N1141 C1138 1.384 . S
N1142 C1134 1.427 . S
N1142 C1140 1.384 . S
H1143 C1149 0.930 . S
H1144 C1153 0.930 . S
H1145 C1158 0.929 . S
H1146 C1156 0.929 . S
H1147 C1151 0.929 . S
H1148 C1157 0.929 . S
C1149 H1143 0.930 . S
C1149 C1150 1.367 . S
C1149 C1157 1.378 . S
C1150 C1149 1.367 . S
C1150 C1158 1.433 . S
C1151 H1147 0.929 . S
C1151 C1153 1.378 . S
C1151 C1155 1.350 . S
C1152 C1155 1.463 . S
C1152 C1157 1.350 . S
C1152 N1160 1.427 . S
C1153 H1144 0.930 . S
C1153 C1151 1.378 . S
C1153 C1154 1.367 . S
C1154 C1153 1.367 . S
C1154 C1156 1.433 . S
C1155 C1151 1.350 . S
C1155 C1152 1.463 . S
C1155 N1159 1.427 . S
C1156 H1146 0.929 . S
C1156 C1154 1.433 . S
C1156 N1159 1.384 . S
C1157 H1148 0.929 . S
C1157 C1149 1.378 . S
C1157 C1152 1.350 . S
C1158 H1145 0.929 . S
C1158 C1150 1.433 . S
C1158 N1160 1.384 . S
N1159 C1155 1.427 . S
N1159 C1156 1.384 . S
N1160 C1152 1.427 . S
N1160 C1158 1.384 . S
H1161 C1167 0.930 . S
H1162 C1171 0.930 . S
H1163 C1176 0.929 . S
H1164 C1174 0.929 . S
H1165 C1169 0.929 . S
H1166 C1175 0.929 . S
C1167 H1161 0.930 . S
C1167 C1168 1.367 . S
C1167 C1175 1.378 . S
C1168 C1167 1.367 . S
C1168 C1176 1.433 . S
C1169 H1165 0.929 . S
C1169 C1171 1.378 . S
C1169 C1173 1.350 . S
C1170 C1173 1.463 . S
C1170 C1175 1.350 . S
C1170 N1178 1.427 . S
C1171 H1162 0.930 . S
C1171 C1169 1.378 . S
C1171 C1172 1.367 . S
C1172 C1171 1.367 . S
C1172 C1174 1.433 . S
C1173 C1169 1.350 . S
C1173 C1170 1.463 . S
C1173 N1177 1.427 . S
C1174 H1164 0.929 . S
C1174 C1172 1.433 . S
C1174 N1177 1.384 . S
C1175 H1166 0.929 . S
C1175 C1167 1.378 . S
C1175 C1170 1.350 . S
C1176 H1163 0.929 . S
C1176 C1168 1.433 . S
C1176 N1178 1.384 . S
N1177 C1173 1.427 . S
N1177 C1174 1.384 . S
N1178 C1170 1.427 . S
N1178 C1176 1.384 . S
H1179 C1185 0.930 . S
H1180 C1189 0.930 . S
H1181 C1194 0.929 . S
H1182 C1192 0.929 . S
H1183 C1187 0.929 . S
H1184 C1193 0.929 . S
C1185 H1179 0.930 . S
C1185 C1186 1.367 . S
C1185 C1193 1.378 . S
C1186 C1185 1.367 . S
C1186 C1194 1.433 . S
C1187 H1183 0.929 . S
C1187 C1189 1.378 . S
C1187 C1191 1.350 . S
C1188 C1191 1.463 . S
C1188 C1193 1.350 . S
C1188 N1196 1.427 . S
C1189 H1180 0.930 . S
C1189 C1187 1.378 . S
C1189 C1190 1.367 . S
C1190 C1189 1.367 . S
C1190 C1192 1.433 . S
C1191 C1187 1.350 . S
C1191 C1188 1.463 . S
C1191 N1195 1.427 . S
C1192 H1182 0.929 . S
C1192 C1190 1.433 . S
C1192 N1195 1.384 . S
C1193 H1184 0.929 . S
C1193 C1185 1.378 . S
C1193 C1188 1.350 . S
C1194 H1181 0.929 . S
C1194 C1186 1.433 . S
C1194 N1196 1.384 . S
N1195 C1191 1.427 . S
N1195 C1192 1.384 . S
N1196 C1188 1.427 . S
N1196 C1194 1.384 . S
H1197 C1203 0.930 . S
H1198 C1207 0.930 . S
H1199 C1212 0.929 . S
H1200 C1210 0.929 . S
H1201 C1205 0.929 . S
H1202 C1211 0.929 . S
C1203 H1197 0.930 . S
C1203 C1204 1.367 . S
C1203 C1211 1.378 . S
C1204 C1203 1.367 . S
C1204 C1212 1.433 . S
C1205 H1201 0.929 . S
C1205 C1207 1.378 . S
C1205 C1209 1.350 . S
C1206 C1209 1.463 . S
C1206 C1211 1.350 . S
C1206 N1214 1.427 . S
C1207 H1198 0.930 . S
C1207 C1205 1.378 . S
C1207 C1208 1.367 . S
C1208 C1207 1.367 . S
C1208 C1210 1.433 . S
C1209 C1205 1.350 . S
C1209 C1206 1.463 . S
C1209 N1213 1.427 . S
C1210 H1200 0.929 . S
C1210 C1208 1.433 . S
C1210 N1213 1.384 . S
C1211 H1202 0.929 . S
C1211 C1203 1.378 . S
C1211 C1206 1.350 . S
C1212 H1199 0.929 . S
C1212 C1204 1.433 . S
C1212 N1214 1.384 . S
N1213 C1209 1.427 . S
N1213 C1210 1.384 . S
N1214 C1206 1.427 . S
N1214 C1212 1.384 . S
H1215 C1221 0.930 . S
H1216 C1225 0.930 . S
H1217 C1230 0.929 . S
H1218 C1228 0.929 . S
H1219 C1223 0.929 . S
H1220 C1229 0.929 . S
C1221 H1215 0.930 . S
C1221 C1222 1.367 . S
C1221 C1229 1.378 . S
C1222 C1221 1.367 . S
C1222 C1230 1.433 . S
C1223 H1219 0.929 . S
C1223 C1225 1.378 . S
C1223 C1227 1.350 . S
C1224 C1227 1.463 . S
C1224 C1229 1.350 . S
C1224 N1232 1.427 . S
C1225 H1216 0.930 . S
C1225 C1223 1.378 . S
C1225 C1226 1.367 . S
C1226 C1225 1.367 . S
C1226 C1228 1.433 . S
C1227 C1223 1.350 . S
C1227 C1224 1.463 . S
C1227 N1231 1.427 . S
C1228 H1218 0.929 . S
C1228 C1226 1.433 . S
C1228 N1231 1.384 . S
C1229 H1220 0.929 . S
C1229 C1221 1.378 . S
C1229 C1224 1.350 . S
C1230 H1217 0.929 . S
C1230 C1222 1.433 . S
C1230 N1232 1.384 . S
N1231 C1227 1.427 . S
N1231 C1228 1.384 . S
N1232 C1224 1.427 . S
N1232 C1230 1.384 . S
H1233 C1239 0.930 . S
H1234 C1243 0.930 . S
H1235 C1248 0.929 . S
H1236 C1246 0.929 . S
H1237 C1241 0.929 . S
H1238 C1247 0.929 . S
C1239 H1233 0.930 . S
C1239 C1240 1.367 . S
C1239 C1247 1.378 . S
C1240 C1239 1.367 . S
C1240 C1248 1.433 . S
C1241 H1237 0.929 . S
C1241 C1243 1.378 . S
C1241 C1245 1.350 . S
C1242 C1245 1.463 . S
C1242 C1247 1.350 . S
C1242 N1250 1.427 . S
C1243 H1234 0.930 . S
C1243 C1241 1.378 . S
C1243 C1244 1.367 . S
C1244 C1243 1.367 . S
C1244 C1246 1.433 . S
C1245 C1241 1.350 . S
C1245 C1242 1.463 . S
C1245 N1249 1.427 . S
C1246 H1236 0.929 . S
C1246 C1244 1.433 . S
C1246 N1249 1.384 . S
C1247 H1238 0.929 . S
C1247 C1239 1.378 . S
C1247 C1242 1.350 . S
C1248 H1235 0.929 . S
C1248 C1240 1.433 . S
C1248 N1250 1.384 . S
N1249 C1245 1.427 . S
N1249 C1246 1.384 . S
N1250 C1242 1.427 . S
N1250 C1248 1.384 . S
H1251 C1257 0.930 . S
H1252 C1261 0.930 . S
H1253 C1266 0.929 . S
H1254 C1264 0.929 . S
H1255 C1259 0.929 . S
H1256 C1265 0.929 . S
C1257 H1251 0.930 . S
C1257 C1258 1.367 . S
C1257 C1265 1.378 . S
C1258 C1257 1.367 . S
C1258 C1266 1.433 . S
C1259 H1255 0.929 . S
C1259 C1261 1.378 . S
C1259 C1263 1.350 . S
C1260 C1263 1.463 . S
C1260 C1265 1.350 . S
C1260 N1268 1.427 . S
C1261 H1252 0.930 . S
C1261 C1259 1.378 . S
C1261 C1262 1.367 . S
C1262 C1261 1.367 . S
C1262 C1264 1.433 . S
C1263 C1259 1.350 . S
C1263 C1260 1.463 . S
C1263 N1267 1.427 . S
C1264 H1254 0.929 . S
C1264 C1262 1.433 . S
C1264 N1267 1.384 . S
C1265 H1256 0.929 . S
C1265 C1257 1.378 . S
C1265 C1260 1.350 . S
C1266 H1253 0.929 . S
C1266 C1258 1.433 . S
C1266 N1268 1.384 . S
N1267 C1263 1.427 . S
N1267 C1264 1.384 . S
N1268 C1260 1.427 . S
N1268 C1266 1.384 . S
H1269 C1275 0.930 . S
H1270 C1279 0.930 . S
H1271 C1284 0.929 . S
H1272 C1282 0.929 . S
H1273 C1277 0.929 . S
H1274 C1283 0.929 . S
C1275 H1269 0.930 . S
C1275 C1276 1.367 . S
C1275 C1283 1.378 . S
C1276 C1275 1.367 . S
C1276 C1284 1.433 . S
C1277 H1273 0.929 . S
C1277 C1279 1.378 . S
C1277 C1281 1.350 . S
C1278 C1281 1.463 . S
C1278 C1283 1.350 . S
C1278 N1286 1.427 . S
C1279 H1270 0.930 . S
C1279 C1277 1.378 . S
C1279 C1280 1.367 . S
C1280 C1279 1.367 . S
C1280 C1282 1.433 . S
C1281 C1277 1.350 . S
C1281 C1278 1.463 . S
C1281 N1285 1.427 . S
C1282 H1272 0.929 . S
C1282 C1280 1.433 . S
C1282 N1285 1.384 . S
C1283 H1274 0.929 . S
C1283 C1275 1.378 . S
C1283 C1278 1.350 . S
C1284 H1271 0.929 . S
C1284 C1276 1.433 . S
C1284 N1286 1.384 . S
N1285 C1281 1.427 . S
N1285 C1282 1.384 . S
N1286 C1278 1.427 . S
N1286 C1284 1.384 . S
H1287 C1293 0.930 . S
H1288 C1297 0.930 . S
H1289 C1302 0.929 . S
H1290 C1300 0.929 . S
H1291 C1295 0.929 . S
H1292 C1301 0.929 . S
C1293 H1287 0.930 . S
C1293 C1294 1.367 . S
C1293 C1301 1.378 . S
C1294 C1293 1.367 . S
C1294 C1302 1.433 . S
C1295 H1291 0.929 . S
C1295 C1297 1.378 . S
C1295 C1299 1.350 . S
C1296 C1299 1.463 . S
C1296 C1301 1.350 . S
C1296 N1304 1.427 . S
C1297 H1288 0.930 . S
C1297 C1295 1.378 . S
C1297 C1298 1.367 . S
C1298 C1297 1.367 . S
C1298 C1300 1.433 . S
C1299 C1295 1.350 . S
C1299 C1296 1.463 . S
C1299 N1303 1.427 . S
C1300 H1290 0.929 . S
C1300 C1298 1.433 . S
C1300 N1303 1.384 . S
C1301 H1292 0.929 . S
C1301 C1293 1.378 . S
C1301 C1296 1.350 . S
C1302 H1289 0.929 . S
C1302 C1294 1.433 . S
C1302 N1304 1.384 . S
N1303 C1299 1.427 . S
N1303 C1300 1.384 . S
N1304 C1296 1.427 . S
N1304 C1302 1.384 . S
H1305 C1311 0.930 . S
H1306 C1315 0.930 . S
H1307 C1320 0.929 . S
H1308 C1318 0.929 . S
H1309 C1313 0.929 . S
H1310 C1319 0.929 . S
C1311 H1305 0.930 . S
C1311 C1312 1.367 . S
C1311 C1319 1.378 . S
C1312 C1311 1.367 . S
C1312 C1320 1.433 . S
C1313 H1309 0.929 . S
C1313 C1315 1.378 . S
C1313 C1317 1.350 . S
C1314 C1317 1.463 . S
C1314 C1319 1.350 . S
C1314 N1322 1.427 . S
C1315 H1306 0.930 . S
C1315 C1313 1.378 . S
C1315 C1316 1.367 . S
C1316 C1315 1.367 . S
C1316 C1318 1.433 . S
C1317 C1313 1.350 . S
C1317 C1314 1.463 . S
C1317 N1321 1.427 . S
C1318 H1308 0.929 . S
C1318 C1316 1.433 . S
C1318 N1321 1.384 . S
C1319 H1310 0.929 . S
C1319 C1311 1.378 . S
C1319 C1314 1.350 . S
C1320 H1307 0.929 . S
C1320 C1312 1.433 . S
C1320 N1322 1.384 . S
N1321 C1317 1.427 . S
N1321 C1318 1.384 . S
N1322 C1314 1.427 . S
N1322 C1320 1.384 . S
H1323 C1329 0.930 . S
H1324 C1333 0.930 . S
H1325 C1338 0.929 . S
H1326 C1336 0.929 . S
H1327 C1331 0.929 . S
H1328 C1337 0.929 . S
C1329 H1323 0.930 . S
C1329 C1330 1.367 . S
C1329 C1337 1.378 . S
C1330 C1329 1.367 . S
C1330 C1338 1.433 . S
C1331 H1327 0.929 . S
C1331 C1333 1.378 . S
C1331 C1335 1.350 . S
C1332 C1335 1.463 . S
C1332 C1337 1.350 . S
C1332 N1340 1.427 . S
C1333 H1324 0.930 . S
C1333 C1331 1.378 . S
C1333 C1334 1.367 . S
C1334 C1333 1.367 . S
C1334 C1336 1.433 . S
C1335 C1331 1.350 . S
C1335 C1332 1.463 . S
C1335 N1339 1.427 . S
C1336 H1326 0.929 . S
C1336 C1334 1.433 . S
C1336 N1339 1.384 . S
C1337 H1328 0.929 . S
C1337 C1329 1.378 . S
C1337 C1332 1.350 . S
C1338 H1325 0.929 . S
C1338 C1330 1.433 . S
C1338 N1340 1.384 . S
N1339 C1335 1.427 . S
N1339 C1336 1.384 . S
N1340 C1332 1.427 . S
N1340 C1338 1.384 . S
H1341 C1347 0.930 . S
H1342 C1351 0.930 . S
H1343 C1356 0.929 . S
H1344 C1354 0.929 . S
H1345 C1349 0.929 . S
H1346 C1355 0.929 . S
C1347 H1341 0.930 . S
C1347 C1348 1.367 . S
C1347 C1355 1.378 . S
C1348 C1347 1.367 . S
C1348 C1356 1.433 . S
C1349 H1345 0.929 . S
C1349 C1351 1.378 . S
C1349 C1353 1.350 . S
C1350 C1353 1.463 . S
C1350 C1355 1.350 . S
C1350 N1358 1.427 . S
C1351 H1342 0.930 . S
C1351 C1349 1.378 . S
C1351 C1352 1.367 . S
C1352 C1351 1.367 . S
C1352 C1354 1.433 . S
C1353 C1349 1.350 . S
C1353 C1350 1.463 . S
C1353 N1357 1.427 . S
C1354 H1344 0.929 . S
C1354 C1352 1.433 . S
C1354 N1357 1.384 . S
C1355 H1346 0.929 . S
C1355 C1347 1.378 . S
C1355 C1350 1.350 . S
C1356 H1343 0.929 . S
C1356 C1348 1.433 . S
C1356 N1358 1.384 . S
N1357 C1353 1.427 . S
N1357 C1354 1.384 . S
N1358 C1350 1.427 . S
N1358 C1356 1.384 . S
H1359 C1365 0.930 . S
H1360 C1369 0.930 . S
H1361 C1374 0.929 . S
H1362 C1372 0.929 . S
H1363 C1367 0.929 . S
H1364 C1373 0.929 . S
C1365 H1359 0.930 . S
C1365 C1366 1.367 . S
C1365 C1373 1.378 . S
C1366 C1365 1.367 . S
C1366 C1374 1.433 . S
C1367 H1363 0.929 . S
C1367 C1369 1.378 . S
C1367 C1371 1.350 . S
C1368 C1371 1.463 . S
C1368 C1373 1.350 . S
C1368 N1376 1.427 . S
C1369 H1360 0.930 . S
C1369 C1367 1.378 . S
C1369 C1370 1.367 . S
C1370 C1369 1.367 . S
C1370 C1372 1.433 . S
C1371 C1367 1.350 . S
C1371 C1368 1.463 . S
C1371 N1375 1.427 . S
C1372 H1362 0.929 . S
C1372 C1370 1.433 . S
C1372 N1375 1.384 . S
C1373 H1364 0.929 . S
C1373 C1365 1.378 . S
C1373 C1368 1.350 . S
C1374 H1361 0.929 . S
C1374 C1366 1.433 . S
C1374 N1376 1.384 . S
N1375 C1371 1.427 . S
N1375 C1372 1.384 . S
N1376 C1368 1.427 . S
N1376 C1374 1.384 . S
H1377 C1383 0.930 . S
H1378 C1387 0.930 . S
H1379 C1392 0.929 . S
H1380 C1390 0.929 . S
H1381 C1385 0.929 . S
H1382 C1391 0.929 . S
C1383 H1377 0.930 . S
C1383 C1384 1.367 . S
C1383 C1391 1.378 . S
C1384 C1383 1.367 . S
C1384 C1392 1.433 . S
C1385 H1381 0.929 . S
C1385 C1387 1.378 . S
C1385 C1389 1.350 . S
C1386 C1389 1.463 . S
C1386 C1391 1.350 . S
C1386 N1394 1.427 . S
C1387 H1378 0.930 . S
C1387 C1385 1.378 . S
C1387 C1388 1.367 . S
C1388 C1387 1.367 . S
C1388 C1390 1.433 . S
C1389 C1385 1.350 . S
C1389 C1386 1.463 . S
C1389 N1393 1.427 . S
C1390 H1380 0.929 . S
C1390 C1388 1.433 . S
C1390 N1393 1.384 . S
C1391 H1382 0.929 . S
C1391 C1383 1.378 . S
C1391 C1386 1.350 . S
C1392 H1379 0.929 . S
C1392 C1384 1.433 . S
C1392 N1394 1.384 . S
N1393 C1389 1.427 . S
N1393 C1390 1.384 . S
N1394 C1386 1.427 . S
N1394 C1392 1.384 . S
C430 C177 1.438 . S
C434 C248 1.416 . S
C448 C190 1.412 . S
C452 C269 1.386 . S
C466 C164 1.381 . S
C470 C289 1.247 . S
C484 C151 1.371 1_554 S
C488 C268 1.230 . S
C506 C290 1.400 . S
C502 C125 1.428 1_554 S
C520 C138 1.387 . S
C524 C247 1.231 . S
C542 C249 1.413 . S
C538 C147 1.394 . S
C560 C270 1.396 . S
C556 C121 1.396 . S
C574 C134 1.456 . S
C578 C292 1.262 . S
C592 C173 1.432 . S
C596 C271 1.270 1_554 S
C610 C186 1.384 . S
C614 C291 1.382 . S
C632 C250 1.267 1_554 S
C628 C160 1.438 . S
C650 C311 1.416 . S
C646 C21 1.428 . S
C664 C34 1.412 . S
C668 C332 1.397 . S
C682 C8 1.382 . S
C686 C352 1.242 . S
C700 C229 1.367 . S
C704 C331 1.211 . S
C718 C203 1.426 . S
C722 C353 1.408 . S
C736 C216 1.390 . S
C740 C310 1.225 . S
C754 C225 1.395 . S
C758 C312 1.411 . S
C772 C199 1.395 . S
C776 C333 1.397 . S
C794 C355 1.279 . S
C790 C212 1.442 . S
C808 C17 1.432 . S
C812 C334 1.268 . S
C830 C354 1.380 . S
C826 C30 1.385 . S
C844 C4 1.437 . S
C848 C313 1.284 . S
C866 C374 1.414 . S
C862 C99 1.439 . S
C880 C112 1.413 . S
C884 C395 1.385 . S
C902 C415 1.247 . S
C898 C86 1.380 . S
C920 C394 1.236 . S
C916 C73 1.377 . S
C938 C416 1.399 . S
C934 C47 1.429 . S
C952 C60 1.388 . S
C956 C373 1.226 . S
C970 C69 1.413 . S
C974 C375 1.396 . S
C988 C43 1.376 . S
C992 C396 1.411 . S
C1010 C418 1.290 . S
C1006 C56 1.449 . S
C1024 C95 1.417 . S
C1028 C397 1.251 . S
C1042 C108 1.374 . S
C1046 C417 1.386 . S
C1060 C82 1.438 . S
C1064 C376 1.287 . S
C1078 C204 1.490 . S
C1082 C252 1.482 . S
C1100 C273 1.510 . S
C1096 C217 1.523 . S
C1114 C230 1.551 . S
C1118 C293 1.501 . S
C1132 C87 1.614 . S
C1136 C272 1.556 . S
C1150 C100 1.554 . S
C1154 C294 1.546 . S
C1172 C251 1.523 . S
C1168 C113 1.578 . S
C1186 C48 1.489 . S
C1190 C315 1.483 . S
C1204 C61 1.526 . S
C1208 C336 1.513 . S
C1222 C74 1.554 . S
C1226 C356 1.501 . S
C1240 C165 1.617 . S
C1244 C335 1.565 . S
C1262 C357 1.543 . S
C1258 C178 1.557 . S
C1276 C191 1.585 . S
C1280 C314 1.535 . S
C1294 C126 1.490 . S
C1298 C378 1.482 . S
C1312 C139 1.523 . S
C1316 C399 1.510 . S
C1334 C419 1.493 . S
C1330 C152 1.550 . S
C1348 C9 1.616 . S
C1352 C398 1.565 . S
C1366 C22 1.558 . S
C1370 C420 1.542 . S
C1384 C35 1.585 . S
C1388 C377 1.537 . S
