# Generated by pormake.
# Topology llk, (3,12)-cn, num edge types: 1
# Building blocks:
#     Node 0, Type 0, BuildingBlock: CUQRIR_clean_linker_1, # of connection points: 3
#     Node 1, Type 0, BuildingBlock: CUQRIR_clean_linker_1, # of connection points: 3
#     Node 2, Type 0, BuildingBlock: CUQRIR_clean_linker_1, # of connection points: 3
#     Node 3, Type 0, BuildingBlock: CUQRIR_clean_linker_1, # of connection points: 3
#     Node 4, Type 0, BuildingBlock: CUQRIR_clean_linker_1, # of connection points: 3
#     Node 5, Type 0, BuildingBlock: CUQRIR_clean_linker_1, # of connection points: 3
#     Node 6, Type 0, BuildingBlock: CUQRIR_clean_linker_1, # of connection points: 3
#     Node 7, Type 0, BuildingBlock: CUQRIR_clean_linker_1, # of connection points: 3
#     Node 8, Type 0, BuildingBlock: CUQRIR_clean_linker_1, # of connection points: 3
#     Node 9, Type 0, BuildingBlock: CUQRIR_clean_linker_1, # of connection points: 3
#     Node 10, Type 0, BuildingBlock: CUQRIR_clean_linker_1, # of connection points: 3
#     Node 11, Type 0, BuildingBlock: CUQRIR_clean_linker_1, # of connection points: 3
#     Node 12, Type 0, BuildingBlock: CUQRIR_clean_linker_1, # of connection points: 3
#     Node 13, Type 0, BuildingBlock: CUQRIR_clean_linker_1, # of connection points: 3
#     Node 14, Type 0, BuildingBlock: CUQRIR_clean_linker_1, # of connection points: 3
#     Node 15, Type 0, BuildingBlock: CUQRIR_clean_linker_1, # of connection points: 3
#     Node 16, Type 0, BuildingBlock: CUQRIR_clean_linker_1, # of connection points: 3
#     Node 17, Type 0, BuildingBlock: CUQRIR_clean_linker_1, # of connection points: 3
#     Node 18, Type 0, BuildingBlock: CUQRIR_clean_linker_1, # of connection points: 3
#     Node 19, Type 0, BuildingBlock: CUQRIR_clean_linker_1, # of connection points: 3
#     Node 20, Type 0, BuildingBlock: CUQRIR_clean_linker_1, # of connection points: 3
#     Node 21, Type 0, BuildingBlock: CUQRIR_clean_linker_1, # of connection points: 3
#     Node 22, Type 0, BuildingBlock: CUQRIR_clean_linker_1, # of connection points: 3
#     Node 23, Type 0, BuildingBlock: CUQRIR_clean_linker_1, # of connection points: 3
#     Node 24, Type 1, BuildingBlock: QEWDON_clean_sbu_0, # of connection points: 12
#     Node 25, Type 1, BuildingBlock: QEWDON_clean_sbu_0, # of connection points: 12
#     Node 26, Type 1, BuildingBlock: QEWDON_clean_sbu_0, # of connection points: 12
#     Node 27, Type 1, BuildingBlock: QEWDON_clean_sbu_0, # of connection points: 12
#     Node 28, Type 1, BuildingBlock: QEWDON_clean_sbu_0, # of connection points: 12
#     Node 29, Type 1, BuildingBlock: QEWDON_clean_sbu_0, # of connection points: 12
#     Edge 30, Type (0, 1), BuildingBlock: MIFKUJ_clean_linker_0, # of connection points: 2
#     Edge 31, Type (0, 1), BuildingBlock: MIFKUJ_clean_linker_0, # of connection points: 2
#     Edge 32, Type (0, 1), BuildingBlock: MIFKUJ_clean_linker_0, # of connection points: 2
#     Edge 33, Type (0, 1), BuildingBlock: MIFKUJ_clean_linker_0, # of connection points: 2
#     Edge 34, Type (0, 1), BuildingBlock: MIFKUJ_clean_linker_0, # of connection points: 2
#     Edge 35, Type (0, 1), BuildingBlock: MIFKUJ_clean_linker_0, # of connection points: 2
#     Edge 36, Type (0, 1), BuildingBlock: MIFKUJ_clean_linker_0, # of connection points: 2
#     Edge 37, Type (0, 1), BuildingBlock: MIFKUJ_clean_linker_0, # of connection points: 2
#     Edge 38, Type (0, 1), BuildingBlock: MIFKUJ_clean_linker_0, # of connection points: 2
#     Edge 39, Type (0, 1), BuildingBlock: MIFKUJ_clean_linker_0, # of connection points: 2
#     Edge 40, Type (0, 1), BuildingBlock: MIFKUJ_clean_linker_0, # of connection points: 2
#     Edge 41, Type (0, 1), BuildingBlock: MIFKUJ_clean_linker_0, # of connection points: 2
#     Edge 42, Type (0, 1), BuildingBlock: MIFKUJ_clean_linker_0, # of connection points: 2
#     Edge 43, Type (0, 1), BuildingBlock: MIFKUJ_clean_linker_0, # of connection points: 2
#     Edge 44, Type (0, 1), BuildingBlock: MIFKUJ_clean_linker_0, # of connection points: 2
#     Edge 45, Type (0, 1), BuildingBlock: MIFKUJ_clean_linker_0, # of connection points: 2
#     Edge 46, Type (0, 1), BuildingBlock: MIFKUJ_clean_linker_0, # of connection points: 2
#     Edge 47, Type (0, 1), BuildingBlock: MIFKUJ_clean_linker_0, # of connection points: 2
#     Edge 48, Type (0, 1), BuildingBlock: MIFKUJ_clean_linker_0, # of connection points: 2
#     Edge 49, Type (0, 1), BuildingBlock: MIFKUJ_clean_linker_0, # of connection points: 2
#     Edge 50, Type (0, 1), BuildingBlock: MIFKUJ_clean_linker_0, # of connection points: 2
#     Edge 51, Type (0, 1), BuildingBlock: MIFKUJ_clean_linker_0, # of connection points: 2
#     Edge 52, Type (0, 1), BuildingBlock: MIFKUJ_clean_linker_0, # of connection points: 2
#     Edge 53, Type (0, 1), BuildingBlock: MIFKUJ_clean_linker_0, # of connection points: 2
#     Edge 54, Type (0, 1), BuildingBlock: MIFKUJ_clean_linker_0, # of connection points: 2
#     Edge 55, Type (0, 1), BuildingBlock: MIFKUJ_clean_linker_0, # of connection points: 2
#     Edge 56, Type (0, 1), BuildingBlock: MIFKUJ_clean_linker_0, # of connection points: 2
#     Edge 57, Type (0, 1), BuildingBlock: MIFKUJ_clean_linker_0, # of connection points: 2
#     Edge 58, Type (0, 1), BuildingBlock: MIFKUJ_clean_linker_0, # of connection points: 2
#     Edge 59, Type (0, 1), BuildingBlock: MIFKUJ_clean_linker_0, # of connection points: 2
#     Edge 60, Type (0, 1), BuildingBlock: MIFKUJ_clean_linker_0, # of connection points: 2
#     Edge 61, Type (0, 1), BuildingBlock: MIFKUJ_clean_linker_0, # of connection points: 2
#     Edge 62, Type (0, 1), BuildingBlock: MIFKUJ_clean_linker_0, # of connection points: 2
#     Edge 63, Type (0, 1), BuildingBlock: MIFKUJ_clean_linker_0, # of connection points: 2
#     Edge 64, Type (0, 1), BuildingBlock: MIFKUJ_clean_linker_0, # of connection points: 2
#     Edge 65, Type (0, 1), BuildingBlock: MIFKUJ_clean_linker_0, # of connection points: 2
#     Edge 66, Type (0, 1), BuildingBlock: MIFKUJ_clean_linker_0, # of connection points: 2
#     Edge 67, Type (0, 1), BuildingBlock: MIFKUJ_clean_linker_0, # of connection points: 2
#     Edge 68, Type (0, 1), BuildingBlock: MIFKUJ_clean_linker_0, # of connection points: 2
#     Edge 69, Type (0, 1), BuildingBlock: MIFKUJ_clean_linker_0, # of connection points: 2
#     Edge 70, Type (0, 1), BuildingBlock: MIFKUJ_clean_linker_0, # of connection points: 2
#     Edge 71, Type (0, 1), BuildingBlock: MIFKUJ_clean_linker_0, # of connection points: 2
#     Edge 72, Type (0, 1), BuildingBlock: MIFKUJ_clean_linker_0, # of connection points: 2
#     Edge 73, Type (0, 1), BuildingBlock: MIFKUJ_clean_linker_0, # of connection points: 2
#     Edge 74, Type (0, 1), BuildingBlock: MIFKUJ_clean_linker_0, # of connection points: 2
#     Edge 75, Type (0, 1), BuildingBlock: MIFKUJ_clean_linker_0, # of connection points: 2
#     Edge 76, Type (0, 1), BuildingBlock: MIFKUJ_clean_linker_0, # of connection points: 2
#     Edge 77, Type (0, 1), BuildingBlock: MIFKUJ_clean_linker_0, # of connection points: 2
#     Edge 78, Type (0, 1), BuildingBlock: MIFKUJ_clean_linker_0, # of connection points: 2
#     Edge 79, Type (0, 1), BuildingBlock: MIFKUJ_clean_linker_0, # of connection points: 2
#     Edge 80, Type (0, 1), BuildingBlock: MIFKUJ_clean_linker_0, # of connection points: 2
#     Edge 81, Type (0, 1), BuildingBlock: MIFKUJ_clean_linker_0, # of connection points: 2
#     Edge 82, Type (0, 1), BuildingBlock: MIFKUJ_clean_linker_0, # of connection points: 2
#     Edge 83, Type (0, 1), BuildingBlock: MIFKUJ_clean_linker_0, # of connection points: 2
#     Edge 84, Type (0, 1), BuildingBlock: MIFKUJ_clean_linker_0, # of connection points: 2
#     Edge 85, Type (0, 1), BuildingBlock: MIFKUJ_clean_linker_0, # of connection points: 2
#     Edge 86, Type (0, 1), BuildingBlock: MIFKUJ_clean_linker_0, # of connection points: 2
#     Edge 87, Type (0, 1), BuildingBlock: MIFKUJ_clean_linker_0, # of connection points: 2
#     Edge 88, Type (0, 1), BuildingBlock: MIFKUJ_clean_linker_0, # of connection points: 2
#     Edge 89, Type (0, 1), BuildingBlock: MIFKUJ_clean_linker_0, # of connection points: 2
#     Edge 90, Type (0, 1), BuildingBlock: MIFKUJ_clean_linker_0, # of connection points: 2
#     Edge 91, Type (0, 1), BuildingBlock: MIFKUJ_clean_linker_0, # of connection points: 2
#     Edge 92, Type (0, 1), BuildingBlock: MIFKUJ_clean_linker_0, # of connection points: 2
#     Edge 93, Type (0, 1), BuildingBlock: MIFKUJ_clean_linker_0, # of connection points: 2
#     Edge 94, Type (0, 1), BuildingBlock: MIFKUJ_clean_linker_0, # of connection points: 2
#     Edge 95, Type (0, 1), BuildingBlock: MIFKUJ_clean_linker_0, # of connection points: 2
#     Edge 96, Type (0, 1), BuildingBlock: MIFKUJ_clean_linker_0, # of connection points: 2
#     Edge 97, Type (0, 1), BuildingBlock: MIFKUJ_clean_linker_0, # of connection points: 2
#     Edge 98, Type (0, 1), BuildingBlock: MIFKUJ_clean_linker_0, # of connection points: 2
#     Edge 99, Type (0, 1), BuildingBlock: MIFKUJ_clean_linker_0, # of connection points: 2
#     Edge 100, Type (0, 1), BuildingBlock: MIFKUJ_clean_linker_0, # of connection points: 2
#     Edge 101, Type (0, 1), BuildingBlock: MIFKUJ_clean_linker_0, # of connection points: 2
# Relax obj value: 0.112
# Max RMSD: 0.218
# Mean RMSD: 0.172
data_MOF--net-llk--node1-QEWDON_clean_sbu_0--node2-CUQRIR_clean_linker_1--edge1-MIFKUJ_clean_linker_0
_symmetry_space_group_name_H-M    P1
_symmetry_Int_Tables_number       1
_symmetry_cell_setting            triclinic
loop_
_symmetry_equiv_pos_as_xyz
'x, y, z'
_cell_length_a     56.874921
_cell_length_b     57.647505
_cell_length_c     55.376882
_cell_angle_alpha  90.07788
_cell_angle_beta   90.063396
_cell_angle_gamma 89.696057
loop_
_atom_site_label
_atom_site_type_symbol
_atom_site_fract_x
_atom_site_fract_y
_atom_site_fract_z
_atom_type_partial_charge
C0 C 0.03736 0.26038 0.26329 0.0
N1 N 0.02988 0.2828 0.2625 0.0
N2 N 0.03585 0.25192 0.28611 0.0
C3 C 0.04668 0.24707 0.24195 0.0
C4 C 0.02685 0.26987 0.29904 0.0
N5 N 0.02325 0.28862 0.28473 0.0
C6 C 0.02125 0.26917 0.3257 0.0
H7 H 0.04601 0.22809 0.24487 0.0
H8 H 0.0653 0.2519 0.23899 0.0
H9 H 0.0366 0.25159 0.22542 0.0
H10 H 0.02901 0.28444 0.33491 0.0
H11 H 0.02734 0.2532 0.33479 0.0
H12 H 0.00193 0.26993 0.32815 0.0
C13 C 0.7635 0.04074 0.23041 0.0
N14 N 0.74112 0.0334 0.2278 0.0
N15 N 0.77325 0.03127 0.25044 0.0
C16 C 0.77465 0.0593 0.21542 0.0
C17 C 0.75609 0.01753 0.25934 0.0
N18 N 0.7364 0.01919 0.24592 0.0
C19 C 0.75741 0.00495 0.28317 0.0
H20 H 0.79404 0.05706 0.21512 0.0
H21 H 0.77054 0.07644 0.22357 0.0
H22 H 0.7676 0.05904 0.19673 0.0
H23 H 0.74941 0.01595 0.29747 0.0
H24 H 0.77591 0.00102 0.28815 0.0
H25 H 0.74729 0.98857 0.28223 0.0
C26 C 0.01892 0.76793 0.24542 0.0
N27 N 0.02186 0.76701 0.26972 0.0
N28 N 0.01721 0.74623 0.23615 0.0
C29 C 0.01593 0.78987 0.23116 0.0
C30 C 0.01914 0.73219 0.25555 0.0
N31 N 0.02178 0.74477 0.2759 0.0
C32 C 0.01817 0.70611 0.25455 0.0
H33 H 0.00394 0.80196 0.24082 0.0
H34 H 0.00895 0.78632 0.21281 0.0
H35 H 0.03325 0.79847 0.22948 0.0
H36 H 0.02475 0.69956 0.23694 0.0
H37 H -0.00037 0.70056 0.25662 0.0
H38 H 0.02868 0.6983 0.26937 0.0
C39 C 0.2522 0.99862 0.22136 0.0
N40 N 0.27505 0.00406 0.22553 0.0
N41 N 0.23867 0.00517 0.2403 0.0
C42 C 0.24297 0.98656 0.1993 0.0
C43 C 0.25402 0.015 0.25584 0.0
N44 N 0.27606 0.01414 0.24707 0.0
C45 C 0.24796 0.02278 0.28106 0.0
H46 H 0.22398 0.99038 0.19679 0.0
H47 H 0.24512 0.96755 0.20159 0.0
H48 H 0.25281 0.99201 0.183 0.0
H49 H 0.25154 0.00839 0.29386 0.0
H50 H 0.22915 0.02769 0.28233 0.0
H51 H 0.25894 0.03778 0.28642 0.0
C52 C -0.00112 0.77228 0.7574 0.0
N53 N 0.99416 0.7491 0.75833 0.0
N54 N 0.99187 0.78137 0.73595 0.0
C55 C 0.01026 0.78626 0.77709 0.0
C56 C 0.98209 0.76325 0.72426 0.0
N57 N 0.98378 0.74365 0.7375 0.0
C58 C 0.97228 0.76439 0.69891 0.0
H59 H 0.00556 0.80487 0.77558 0.0
H60 H 0.02965 0.78475 0.77544 0.0
H61 H 0.00481 0.77994 0.79513 0.0
H62 H 0.98404 0.75468 0.68647 0.0
H63 H 0.9702 0.78247 0.69244 0.0
H64 H 0.95471 0.75623 0.69824 0.0
C65 C 0.25437 0.99811 0.78349 0.0
N66 N 0.27722 0.99173 0.78291 0.0
N67 N 0.24424 0.99405 0.76183 0.0
C68 C 0.24289 0.01093 0.80393 0.0
C69 C 0.26188 0.98521 0.74815 0.0
N70 N 0.28201 0.98392 0.76093 0.0
C71 C 0.26047 0.98181 0.72121 0.0
H72 H 0.24961 0.00444 0.82151 0.0
H73 H 0.22349 0.00908 0.80312 0.0
H74 H 0.24731 0.0296 0.80251 0.0
H75 H 0.26436 0.99851 0.71212 0.0
H76 H 0.24259 0.97625 0.71574 0.0
H77 H 0.27356 0.96874 0.71509 0.0
C78 C 0.01702 0.26726 0.76619 0.0
N79 N 0.01058 0.26646 0.7426 0.0
N80 N 0.01551 0.28929 0.7747 0.0
C81 C 0.02517 0.24677 0.78069 0.0
C82 C 0.00771 0.30175 0.75559 0.0
N83 N 0.0046 0.28788 0.73616 0.0
C84 C 0.00396 0.32767 0.75549 0.0
H85 H 0.01567 0.2309 0.77502 0.0
H86 H 0.02254 0.24981 0.8003 0.0
H87 H 0.0442 0.24396 0.77738 0.0
H88 H 0.00974 0.33612 0.77242 0.0
H89 H 0.98498 0.33146 0.75309 0.0
H90 H 0.01347 0.33548 0.74004 0.0
C91 C 0.7843 0.03626 0.78443 0.0
N92 N 0.76167 0.04267 0.78081 0.0
N93 N 0.79706 0.04005 0.76423 0.0
C94 C 0.79325 0.02398 0.80649 0.0
C95 C 0.78128 0.04911 0.74847 0.0
N96 N 0.75965 0.05033 0.75836 0.0
C97 C 0.78635 0.05442 0.72238 0.0
H98 H 0.81235 0.02699 0.80893 0.0
H99 H 0.7904 0.00507 0.80424 0.0
H100 H 0.78354 0.02984 0.82278 0.0
H101 H 0.78278 0.03881 0.71125 0.0
H102 H 0.80502 0.05939 0.71997 0.0
H103 H 0.77473 0.06864 0.71591 0.0
C104 C 0.24523 0.26641 0.01525 0.0
N105 N 0.26907 0.26716 0.01353 0.0
N106 N 0.2365 0.28746 0.02165 0.0
C107 C 0.23028 0.24597 0.0086 0.0
C108 C 0.25565 0.30106 0.0235 0.0
N109 N 0.27533 0.28884 0.01863 0.0
C110 C 0.25503 0.32661 0.0291 0.0
H111 H 0.23938 0.23465 0.99531 0.0
H112 H 0.21317 0.25178 0.00104 0.0
H113 H 0.22666 0.23572 0.02512 0.0
H114 H 0.23905 0.33127 0.03954 0.0
H115 H 0.25485 0.33648 0.01192 0.0
H116 H 0.2709 0.33171 0.03946 0.0
C117 C 0.22846 0.77138 0.01443 0.0
N118 N 0.25213 0.77262 0.01789 0.0
N119 N 0.22041 0.75005 0.02056 0.0
C120 C 0.21326 0.79053 0.00458 0.0
C121 C 0.23985 0.73867 0.02824 0.0
N122 N 0.25904 0.75216 0.02645 0.0
C123 C 0.24046 0.71358 0.03592 0.0
H124 H 0.19469 0.78835 0.01016 0.0
H125 H 0.21394 0.79007 0.98457 0.0
H126 H 0.21963 0.80767 0.01084 0.0
H127 H 0.24603 0.70269 0.02039 0.0
H128 H 0.22293 0.70776 0.0422 0.0
H129 H 0.2534 0.711 0.05068 0.0
C130 C 0.7669 0.25861 0.977 0.0
N131 N 0.77843 0.27878 0.98007 0.0
N132 N 0.78091 0.24034 0.98232 0.0
C133 C 0.74124 0.25667 0.97066 0.0
C134 C 0.80161 0.25009 0.98866 0.0
N135 N 0.80016 0.27351 0.9871 0.0
C136 C 0.82226 0.237 -0.00113 0.0
H137 H 0.73074 0.25592 0.98751 0.0
H138 H 0.73803 0.2405 0.96032 0.0
H139 H 0.7353 0.27186 0.95993 0.0
H140 H 0.83568 0.23477 0.98452 0.0
H141 H 0.81707 0.21956 0.00536 0.0
H142 H 0.83037 0.24692 0.01389 0.0
C143 C 0.74751 0.77723 0.97546 0.0
N144 N 0.75683 0.75579 0.97855 0.0
N145 N 0.76129 0.79373 0.98542 0.0
C146 C 0.72325 0.7819 0.96548 0.0
C147 C 0.77988 0.78161 0.99412 0.0
N148 N 0.77738 0.75862 0.98966 0.0
C149 C 0.79944 0.79203 0.00879 0.0
H150 H 0.72372 0.79696 0.95306 0.0
H151 H 0.71112 0.78631 0.98051 0.0
H152 H 0.71635 0.76665 0.95554 0.0
H153 H 0.79328 0.80754 0.01887 0.0
H154 H 0.81364 0.79761 0.99642 0.0
H155 H 0.80681 0.77912 0.02163 0.0
C156 C 0.54051 0.75551 0.74103 0.0
N157 N 0.53972 0.77901 0.74195 0.0
N158 N 0.54781 0.74671 0.76242 0.0
C159 C 0.5335 0.74097 0.71972 0.0
C160 C 0.55116 0.76564 0.77638 0.0
N161 N 0.54637 0.78529 0.76401 0.0
C162 C 0.55597 0.76473 0.80308 0.0
H163 H 0.51429 0.73781 0.72048 0.0
H164 H 0.54267 0.72393 0.72019 0.0
H165 H 0.53759 0.75 0.70256 0.0
H166 H 0.56842 0.75039 0.80718 0.0
H167 H 0.53926 0.76129 0.81274 0.0
H168 H 0.56333 0.78135 0.80973 0.0
C169 C 0.30494 0.5345 0.74098 0.0
N170 N 0.28109 0.53375 0.7407 0.0
N171 N 0.31287 0.53814 0.76373 0.0
C172 C 0.3205 0.53 0.71957 0.0
C173 C 0.29317 0.53938 0.77727 0.0
N174 N 0.27392 0.53679 0.76333 0.0
C175 C 0.29282 0.54208 0.80428 0.0
H176 H 0.31213 0.51755 0.70695 0.0
H177 H 0.33791 0.52318 0.72531 0.0
H178 H 0.3233 0.54656 0.70983 0.0
H179 H 0.27674 0.55147 0.8102 0.0
H180 H 0.30862 0.55147 0.81072 0.0
H181 H 0.29276 0.5246 0.81264 0.0
C182 C 0.48482 0.26713 0.73886 0.0
N183 N 0.48439 0.26619 0.76341 0.0
N184 N 0.47896 0.24635 0.7292 0.0
C185 C 0.49317 0.28747 0.7243 0.0
C186 C 0.47526 0.23271 0.74858 0.0
N187 N 0.47858 0.24458 0.76934 0.0
C188 C 0.47036 0.20711 0.74712 0.0
H189 H 0.47783 0.29853 0.71957 0.0
H190 H 0.5015 0.2816 0.70722 0.0
H191 H 0.50588 0.29803 0.73476 0.0
H192 H 0.48729 0.19754 0.74583 0.0
H193 H 0.45987 0.20316 0.73076 0.0
H194 H 0.46083 0.20106 0.76339 0.0
C195 C 0.72496 0.5019 0.74604 0.0
N196 N 0.74862 0.50375 0.74895 0.0
N197 N 0.71419 0.50084 0.76788 0.0
C198 C 0.71236 0.50211 0.72226 0.0
C199 C 0.73196 0.50197 0.78396 0.0
N200 N 0.7527 0.50372 0.77257 0.0
C201 C 0.72891 0.50205 0.81093 0.0
H202 H 0.72157 0.51349 0.70923 0.0
H203 H 0.69388 0.50801 0.7245 0.0
H204 H 0.71226 0.48424 0.7148 0.0
H205 H 0.71363 0.49133 0.81607 0.0
H206 H 0.72549 0.52009 0.81702 0.0
H207 H 0.74484 0.49551 0.82031 0.0
C208 C 0.49898 0.27628 0.25961 0.0
N209 N 0.49624 0.25294 0.26052 0.0
N210 N 0.4948 0.28423 0.237 0.0
C211 C 0.50643 0.2912 0.28046 0.0
C212 C 0.4896 0.26493 0.22417 0.0
N213 N 0.49023 0.24591 0.23849 0.0
C214 C 0.48579 0.26447 0.1972 0.0
H215 H 0.49935 0.28431 0.29767 0.0
H216 H 0.50043 0.30938 0.27789 0.0
H217 H 0.5259 0.29106 0.28159 0.0
H218 H 0.49034 0.28113 0.18846 0.0
H219 H 0.46699 0.26101 0.19342 0.0
H220 H 0.49638 0.25035 0.1889 0.0
C221 C 0.73545 0.50242 0.27691 0.0
N222 N 0.75919 0.50253 0.27869 0.0
N223 N 0.72878 0.50733 0.25405 0.0
C224 C 0.71885 0.49746 0.29731 0.0
C225 C 0.74914 0.51012 0.24194 0.0
N226 N 0.76762 0.50731 0.2569 0.0
C227 C 0.75079 0.51483 0.21529 0.0
H228 H 0.70227 0.48979 0.29049 0.0
H229 H 0.71447 0.51399 0.30657 0.0
H230 H 0.72713 0.48559 0.31063 0.0
H231 H 0.7462 0.53329 0.21197 0.0
H232 H 0.73794 0.50399 0.20534 0.0
H233 H 0.76868 0.51136 0.20817 0.0
C234 C 0.54848 0.76574 0.28394 0.0
N235 N 0.54796 0.76746 0.25947 0.0
N236 N 0.5539 0.78643 0.29411 0.0
C237 C 0.54193 0.74443 0.29797 0.0
C238 C 0.55634 0.80081 0.27506 0.0
N239 N 0.55255 0.78945 0.25405 0.0
C240 C 0.56015 0.82659 0.2772 0.0
H241 H 0.53541 0.74898 0.31625 0.0
H242 H 0.55777 0.7333 0.30011 0.0
H243 H 0.52834 0.73434 0.28819 0.0
H244 H 0.57322 0.83038 0.29152 0.0
H245 H 0.54333 0.83508 0.28235 0.0
H246 H 0.56639 0.83411 0.25994 0.0
C247 C 0.29673 0.53431 0.26222 0.0
N248 N 0.27386 0.52879 0.25831 0.0
N249 N 0.31068 0.5248 0.24498 0.0
C250 C 0.30523 0.55067 0.28146 0.0
C251 C 0.29546 0.5134 0.23051 0.0
N252 N 0.27314 0.516 0.2383 0.0
C253 C 0.30209 0.5028 0.20658 0.0
H254 H 0.29126 0.56333 0.28638 0.0
H255 H 0.32116 0.56008 0.27552 0.0
H256 H 0.30995 0.54052 0.29777 0.0
H257 H 0.31844 0.49239 0.20846 0.0
H258 H 0.30549 0.51694 0.1935 0.0
H259 H 0.28794 0.49153 0.19943 0.0
C260 C 0.76219 0.7767 0.50439 0.0
N261 N 0.78561 0.77388 0.5005 0.0
N262 N 0.75519 0.79856 0.49844 0.0
C263 C 0.74664 0.75879 0.5157 0.0
C264 C 0.77518 0.80851 0.49013 0.0
N265 N 0.79363 0.79372 0.49163 0.0
C266 C 0.77691 0.83293 0.48076 0.0
H267 H 0.73643 0.75005 0.50127 0.0
H268 H 0.73401 0.76709 0.52833 0.0
H269 H 0.75713 0.7455 0.52548 0.0
H270 H 0.78379 0.84418 0.49533 0.0
H271 H 0.75956 0.83962 0.47472 0.0
H272 H 0.78936 0.83379 0.4654 0.0
C273 C 0.75999 0.26233 0.4974 0.0
N274 N 0.78398 0.26215 0.49779 0.0
N275 N 0.75148 0.24055 0.49415 0.0
C276 C 0.74488 0.28367 0.5002 0.0
C277 C 0.77102 0.22712 0.49277 0.0
N278 N 0.79067 0.24009 0.49526 0.0
C279 C 0.77062 0.20118 0.48866 0.0
H280 H 0.7535 0.2965 0.5122 0.0
H281 H 0.7273 0.27949 0.50748 0.0
H282 H 0.74221 0.29167 0.4822 0.0
H283 H 0.76348 0.1975 0.47045 0.0
H284 H 0.75886 0.19291 0.50207 0.0
H285 H 0.78816 0.19288 0.48939 0.0
C286 C 0.23268 0.75696 0.50162 0.0
N287 N 0.24669 0.77568 0.49858 0.0
N288 N 0.24405 0.73991 0.51385 0.0
C289 C 0.20733 0.75571 0.49354 0.0
C290 C 0.26587 0.74867 0.51757 0.0
N291 N 0.26745 0.77041 0.50827 0.0
C292 C 0.28499 0.73675 0.53166 0.0
H293 H 0.19662 0.76831 0.50403 0.0
H294 H 0.19986 0.73812 0.49548 0.0
H295 H 0.20592 0.76026 0.47418 0.0
H296 H 0.28326 0.71765 0.53073 0.0
H297 H 0.28365 0.74206 0.55087 0.0
H298 H 0.30256 0.74187 0.52485 0.0
C299 C 0.23785 0.25941 0.54807 0.0
N300 N 0.25079 0.23992 0.54514 0.0
N301 N 0.24883 0.27799 0.53851 0.0
C302 C 0.21292 0.25976 0.55726 0.0
C303 C 0.26936 0.26913 0.53002 0.0
N304 N 0.27052 0.24586 0.53394 0.0
C305 C 0.28769 0.28325 0.51735 0.0
H306 H 0.20115 0.25301 0.54293 0.0
H307 H 0.20721 0.27757 0.56224 0.0
H308 H 0.21122 0.24838 0.57328 0.0
H309 H 0.28665 0.30169 0.52303 0.0
H310 H 0.28454 0.28244 0.4976 0.0
H311 H 0.30556 0.2764 0.52122 0.0
Zn312 Zn 0.97471 0.98908 0.46011 0.0
Zn313 Zn 0.9761 0.04474 0.46684 0.0
O314 O 0.99565 0.01547 0.46948 0.0
H315 H 0.01119 0.01362 0.47626 0.0
C316 C 0.95382 0.96982 0.50471 0.0
O317 O 0.9421 0.98654 0.49388 0.0
Zn318 Zn 0.0664 0.05005 0.54707 0.0
Zn319 Zn 0.05519 0.99558 0.54821 0.0
O320 O 0.04051 0.02736 0.55179 0.0
H321 H 0.02815 0.02962 0.56347 0.0
Zn322 Zn 0.96867 0.00909 0.53431 0.0
O323 O -0.0027 0.02926 0.52932 0.0
Zn324 Zn 0.99084 0.05667 0.55098 0.0
H325 H 0.00871 0.02838 0.51646 0.0
Zn326 Zn 0.05793 0.98728 0.47024 0.0
O327 O 0.0566 0.01745 0.48854 0.0
H328 H 0.04931 0.01849 0.50424 0.0
Zn329 Zn 0.05776 0.04247 0.46322 0.0
C330 C 0.08502 0.95972 0.50437 0.0
O331 O 0.0919 0.98051 0.51096 0.0
O332 O 0.9471 0.0014 0.44056 0.0
O333 O 0.94427 0.03858 0.4515 0.0
O334 O 0.08933 0.99692 0.56072 0.0
O335 O 0.09591 0.03498 0.56007 0.0
O336 O 0.9541 0.01454 0.56762 0.0
O337 O 0.973 0.04592 0.58075 0.0
C338 C 0.01433 0.06582 0.44338 0.0
O339 O 0.07302 0.9917 0.43704 0.0
O340 O 0.07187 0.03012 0.43203 0.0
O341 O 0.0352 0.96821 0.56147 0.0
C342 C 0.93667 0.02095 0.43998 0.0
O343 O 0.98825 0.95799 0.44758 0.0
C344 C 0.03729 0.0838 0.56992 0.0
O345 O 0.96735 0.97493 0.52217 0.0
C346 C 0.10264 0.01428 0.56453 0.0
O347 O 0.06944 0.95792 0.48805 0.0
C348 C 0.96751 0.07673 0.51023 0.0
O349 O 0.99209 0.06666 0.44397 0.0
O350 O 0.02473 0.05242 0.45807 0.0
C351 C 0.95858 0.0293 0.5841 0.0
O352 O 0.05883 0.07909 0.56614 0.0
O353 O 0.02208 0.07066 0.56023 0.0
C354 C 0.07897 0.07162 0.49806 0.0
O355 O 0.97167 0.08009 0.53251 0.0
O356 O 0.97512 0.05833 0.50029 0.0
C357 C 0.07707 0.00977 0.42458 0.0
O358 O 0.07655 0.06953 0.47537 0.0
O359 O 0.06898 0.0568 0.51151 0.0
C360 C 0.02051 0.97232 0.57826 0.0
O361 O 0.0176 0.99374 0.58578 0.0
C362 C 0.00723 0.95641 0.4356 0.0
O363 O 0.02013 0.97501 0.43254 0.0
Zn364 Zn 0.48065 0.05988 0.03476 0.0
Zn365 Zn 0.48232 0.06172 0.97747 0.0
O366 O 0.48568 0.03999 0.00521 0.0
H367 H 0.49218 0.02448 0.00506 0.0
C368 C 0.53277 0.07526 0.06639 0.0
O369 O 0.52339 0.08146 0.04568 0.0
Zn370 Zn 0.54201 0.9743 0.96563 0.0
Zn371 Zn 0.53835 0.97533 0.02294 0.0
O372 O 0.53749 0.99606 0.99318 0.0
H373 H 0.52917 0.01063 0.99191 0.0
Zn374 Zn 0.56512 0.05214 0.03343 0.0
O375 O 0.54425 0.05242 0.00413 0.0
Zn376 Zn 0.56445 0.0542 0.97449 0.0
H377 H 0.52737 0.05288 0.00526 0.0
Zn378 Zn 0.47007 0.96884 0.03223 0.0
O379 O 0.48834 0.97057 0.0011 0.0
H380 H 0.50326 0.96282 -0.00111 0.0
Zn381 Zn 0.46357 0.97612 0.97594 0.0
C382 C 0.50442 0.94307 0.06013 0.0
O383 O 0.51109 0.93738 0.03821 0.0
O384 O 0.45904 0.08768 0.02725 0.0
O385 O 0.46259 0.08998 0.98727 0.0
O386 O 0.55864 0.94624 0.01675 0.0
O387 O 0.56096 0.94638 0.97669 0.0
O388 O 0.59623 0.06738 0.0248 0.0
O389 O 0.59722 0.06574 0.98442 0.0
C390 C 0.45932 0.02367 0.95153 0.0
O391 O 0.43842 0.95337 0.026 0.0
O392 O 0.4322 0.96156 0.98727 0.0
O393 O 0.54873 0.99144 0.0544 0.0
C394 C 0.45426 0.09745 0.00722 0.0
O395 O 0.47245 0.04261 0.06608 0.0
C396 C 0.56932 0.00976 0.94146 0.0
O397 O 0.55072 0.06205 0.06631 0.0
C398 C 0.5665 0.9377 0.99713 0.0
O399 O 0.4874 0.95719 0.06276 0.0
C400 C 0.52753 0.08006 0.95079 0.0
O401 O 0.4649 0.04503 0.9514 0.0
O402 O 0.46476 0.01114 0.96966 0.0
C403 C 0.60651 0.07109 0.00476 0.0
O404 O 0.56135 0.98925 0.93993 0.0
O405 O 0.56297 0.02213 0.9594 0.0
C406 C 0.49472 0.95655 0.94098 0.0
O407 O 0.54971 0.077 0.95093 0.0
O408 O 0.51538 0.06885 0.96607 0.0
C409 C 0.42572 0.95221 0.0071 0.0
O410 O 0.47301 0.95848 0.9459 0.0
O411 O 0.50922 0.96687 0.95465 0.0
C412 C 0.56893 1.00031 0.05174 0.0
O413 O 0.57883 0.99934 0.03032 0.0
C414 C 0.46358 0.02251 0.06433 0.0
O415 O 0.46165 0.01301 0.04286 0.0
Zn416 Zn 0.97107 0.49846 0.97496 0.0
Zn417 Zn 0.96808 0.55429 0.97016 0.0
O418 O 0.99054 0.528 0.97617 0.0
H419 H 0.00363 0.52969 0.98712 0.0
C420 C 0.96165 0.45765 0.02791 0.0
O421 O 0.98253 0.46018 0.01816 0.0
Zn422 Zn 0.05118 0.54233 0.04035 0.0
Zn423 Zn 0.0446 0.48702 0.04598 0.0
O424 O 0.02613 0.51741 0.04219 0.0
H425 H 0.01075 0.51851 0.03486 0.0
Zn426 Zn 0.97072 0.50254 0.05386 0.0
O427 O 0.96446 0.52911 0.03094 0.0
Zn428 Zn 0.96936 0.55688 0.05204 0.0
H429 H 0.95343 0.5277 0.01774 0.0
Zn430 Zn 0.05481 0.49057 0.94649 0.0
O431 O 0.04548 0.51589 0.96966 0.0
H432 H 0.04152 0.51309 0.98636 0.0
Zn433 Zn 0.04829 0.54637 0.95248 0.0
C434 C 0.06421 0.45125 0.97994 0.0
O435 O 0.04395 0.45739 0.98945 0.0
O436 O 0.93895 0.50395 0.95911 0.0
O437 O 0.93839 0.54232 0.95466 0.0
O438 O 0.07709 0.49322 0.06011 0.0
O439 O 0.08135 0.5314 0.05664 0.0
O440 O 0.96202 0.5117 0.08868 0.0
O441 O 0.95618 0.54978 0.08527 0.0
C442 C 0.00332 0.57584 0.94098 0.0
O443 O 0.06852 0.50402 0.91503 0.0
O444 O 0.06385 0.54221 0.91975 0.0
O445 O 0.03128 0.45653 0.06113 0.0
C446 C 0.92915 0.52243 0.95147 0.0
O447 O 0.98644 0.46778 0.96284 0.0
C448 C 0.01934 0.57618 0.06044 0.0
O449 O 0.95419 0.47255 0.043 0.0
C450 C 0.08891 0.5116 0.06354 0.0
O451 O 0.07195 0.46222 0.9617 0.0
C452 C 0.95138 0.58373 0.01404 0.0
O453 O 0.98184 0.57742 0.94694 0.0
O454 O 0.01578 0.56018 0.95092 0.0
C455 C 0.95535 0.53106 0.09754 0.0
O456 O 0.04093 0.57148 0.05721 0.0
O457 O 0.00433 0.56151 0.05309 0.0
C458 C 0.0676 0.56652 0.99533 0.0
O459 O 0.95228 0.584 0.03693 0.0
O460 O 0.96267 0.56796 0.00298 0.0
C461 C 0.07095 0.52476 0.90744 0.0
O462 O 0.06766 0.56796 0.97246 0.0
O463 O 0.05635 0.55017 0.00538 0.0
C464 C 0.01591 0.45537 0.07775 0.0
O465 O 0.00489 0.47439 0.08449 0.0
C466 C 0.00066 0.46787 0.94515 0.0
O467 O 0.00705 0.48784 0.9359 0.0
Zn468 Zn 0.49535 0.47945 0.98276 0.0
Zn469 Zn 0.49171 0.48154 0.04004 0.0
O470 O 0.49522 0.50183 0.0108 0.0
H471 H 0.48997 0.51761 0.00844 0.0
C472 C 0.5405 0.42899 0.94806 0.0
O473 O 0.54802 0.41881 0.96785 0.0
Zn474 Zn 0.55065 0.55981 0.04991 0.0
Zn475 Zn 0.54419 0.54831 0.99412 0.0
O476 O 0.53157 0.54017 0.02774 0.0
H477 H 0.52658 0.5249 0.03257 0.0
Zn478 Zn 0.56246 0.4675 0.97284 0.0
O479 O 0.54599 0.47579 0.00376 0.0
Zn480 Zn 0.56979 0.47633 0.03079 0.0
H481 H 0.52958 0.47208 0.00549 0.0
Zn482 Zn 0.48227 0.56861 0.98448 0.0
O483 O 0.50488 0.57425 0.01281 0.0
H484 H 0.49646 0.57215 -0.00217 0.0
Zn485 Zn 0.48429 0.56813 0.04138 0.0
C486 C 0.51019 0.57679 0.9387 0.0
O487 O 0.52673 0.56375 0.94828 0.0
O488 O 0.47616 0.45038 0.9911 0.0
O489 O 0.47147 0.45388 0.03095 0.0
O490 O 0.56849 0.57485 0.9933 0.0
O491 O 0.5732 0.58116 0.03258 0.0
O492 O 0.59487 0.45413 0.98053 0.0
O493 O 0.60162 0.46357 0.0191 0.0
C494 C 0.47621 0.52244 0.06706 0.0
O495 O 0.44884 0.57949 0.99338 0.0
O496 O 0.45203 0.58073 0.03333 0.0
O497 O 0.55218 0.52338 0.96817 0.0
C498 C 0.46754 0.44333 0.011 0.0
O499 O 0.48739 0.49448 0.94991 0.0
C500 C 0.57427 0.517 0.06468 0.0
O501 O 0.54385 0.45063 0.94558 0.0
C502 C 0.57834 0.58548 0.01067 0.0
O503 O 0.4913 0.58046 0.95034 0.0
C504 C 0.53618 0.45569 0.06133 0.0
O505 O 0.47793 0.5004 0.06739 0.0
O506 O 0.48334 0.5336 0.04869 0.0
C507 C 0.60808 0.45436 -0.00089 0.0
O508 O 0.56916 0.53788 0.06994 0.0
O509 O 0.56997 0.50925 0.0436 0.0
C510 C 0.51402 0.5892 0.08145 0.0
O511 O 0.55814 0.45525 0.05721 0.0
O512 O 0.52391 0.47001 0.04916 0.0
C513 C 0.44032 0.58433 0.01403 0.0
O514 O 0.49467 0.58643 0.07034 0.0
O515 O 0.53307 0.57981 0.07423 0.0
C516 C 0.57427 0.52049 0.96641 0.0
O517 O 0.58789 0.52998 0.98283 0.0
C518 C 0.46697 0.50348 0.9496 0.0
O519 O 0.45411 0.5025 0.96928 0.0
Zn520 Zn 0.9803 0.49888 0.48309 0.0
Zn521 Zn 0.96871 0.55349 0.47857 0.0
O522 O 0.99331 0.5311 0.4901 0.0
H523 H 0.00591 0.53501 0.50105 0.0
C524 C 0.93071 0.46367 0.51938 0.0
O525 O 0.91845 0.48302 0.52066 0.0
Zn526 Zn 0.05711 0.54136 0.54324 0.0
Zn527 Zn 0.0583 0.48643 0.5416 0.0
O528 O 0.03622 0.51389 0.54 0.0
H529 H 0.01981 0.51351 0.5355 0.0
Zn530 Zn 0.96447 0.49417 0.5428 0.0
O531 O 0.96179 0.52568 0.5263 0.0
Zn532 Zn 0.96884 0.54846 0.55306 0.0
H533 H 0.95069 0.52838 0.51338 0.0
Zn534 Zn 0.05908 0.49106 0.45562 0.0
O535 O 0.05062 0.51761 0.47782 0.0
H536 H 0.04312 0.51539 0.49325 0.0
Zn537 Zn 0.05132 0.54712 0.45874 0.0
C538 C 0.09148 0.4661 0.48714 0.0
O539 O 0.09579 0.48749 0.49398 0.0
O540 O 0.94751 0.49936 0.46744 0.0
O541 O 0.941 0.53722 0.46326 0.0
O542 O 0.08843 0.49392 0.56073 0.0
O543 O 0.0877 0.53259 0.56003 0.0
O544 O 0.94984 0.49805 0.57612 0.0
O545 O 0.95356 0.53576 0.5842 0.0
C546 C 0.00447 0.57317 0.44767 0.0
O547 O 0.07334 0.50305 0.42392 0.0
O548 O 0.06674 0.54119 0.42605 0.0
O549 O 0.04347 0.45453 0.54828 0.0
C550 C 0.9348 0.5162 0.46024 0.0
O551 O 0.00022 0.47472 0.46463 0.0
C552 C 0.01796 0.56666 0.56557 0.0
O553 O 0.95206 0.46387 0.52625 0.0
C554 C 0.09745 0.51346 0.56605 0.0
O555 O 0.07587 0.46258 0.4711 0.0
C556 C 0.94888 0.58548 0.52347 0.0
O557 O 0.98288 0.57423 0.45349 0.0
O558 O 0.0175 0.55809 0.45784 0.0
C559 C 0.94641 0.51544 0.58987 0.0
O560 O 0.04017 0.56508 0.56328 0.0
O561 O 0.00462 0.55251 0.55445 0.0
C562 C 0.07391 0.5692 0.49878 0.0
O563 O 0.95277 0.57911 0.54511 0.0
O564 O 0.95658 0.57307 0.50619 0.0
C565 C 0.07505 0.52339 0.41511 0.0
O566 O 0.07151 0.57059 0.47607 0.0
O567 O 0.06268 0.55341 0.50977 0.0
C568 C 0.02313 0.45337 0.55764 0.0
O569 O 0.01137 0.47263 0.56182 0.0
C570 C 0.00749 0.48017 0.44372 0.0
O571 O 0.00559 0.50184 0.43662 0.0
Zn572 Zn 0.46552 0.99994 0.47054 0.0
Zn573 Zn 0.46376 0.05477 0.47393 0.0
O574 O 0.48642 0.02817 0.47083 0.0
H575 H 0.49971 0.02732 0.46008 0.0
C576 C 0.44181 0.94976 0.51721 0.0
O577 O 0.44772 0.96172 0.49801 0.0
Zn578 Zn 0.55766 0.04802 0.53934 0.0
Zn579 Zn 0.55656 0.99179 0.54705 0.0
O580 O 0.53763 0.01941 0.53555 0.0
H581 H 0.52209 0.01855 0.52855 0.0
Zn582 Zn 0.47087 0.9839 0.54827 0.0
O583 O 0.47158 0.01478 0.52984 0.0
Zn584 Zn 0.47374 0.04053 0.55462 0.0
H585 H 0.47118 0.99936 0.53661 0.0
Zn586 Zn 0.54222 0.99871 0.46794 0.0
O587 O 0.53656 0.03017 0.48465 0.0
H588 H 0.53885 0.01459 0.47861 0.0
Zn589 Zn 0.54075 0.0557 0.45978 0.0
C590 C 0.57904 0.9701 0.49042 0.0
O591 O 0.59051 0.98949 0.48666 0.0
O592 O 0.43335 0.00817 0.45587 0.0
O593 O 0.43419 0.04677 0.45569 0.0
O594 O 0.5856 0.00314 0.56522 0.0
O595 O 0.58813 0.04096 0.55715 0.0
O596 O 0.46821 0.98935 0.58491 0.0
O597 O 0.46683 0.02785 0.58787 0.0
C598 C 0.49704 0.08498 0.44941 0.0
O599 O 0.55602 0.00372 0.43407 0.0
O600 O 0.55885 0.04239 0.43223 0.0
O601 O 0.5404 0.96628 0.56741 0.0
C602 C 0.42431 0.02767 0.45014 0.0
O603 O 0.48075 0.97132 0.45386 0.0
C604 C 0.5185 0.0704 0.56313 0.0
O605 O 0.44937 0.95599 0.53785 0.0
C606 C 0.5959 0.02257 0.56727 0.0
O607 O 0.5572 0.96953 0.48541 0.0
C608 C 0.44555 0.06947 0.52496 0.0
O609 O 0.47692 0.08383 0.45926 0.0
O610 O 0.50873 0.0662 0.44753 0.0
C611 C 0.46568 0.00774 0.59743 0.0
O612 O 0.54049 0.07114 0.55945 0.0
O613 O 0.50679 0.05377 0.55396 0.0
C614 C 0.5664 0.08058 0.49503 0.0
O615 O 0.44919 0.06459 0.54699 0.0
O616 O 0.458 0.05891 0.50934 0.0
C617 C 0.56262 0.02223 0.42362 0.0
O618 O 0.55962 0.08226 0.47327 0.0
O619 O 0.56025 0.06265 0.50667 0.0
C620 C 0.52475 0.95133 0.56256 0.0
O621 O 0.51542 0.95062 0.54086 0.0
C622 C 0.49532 0.9573 0.46342 0.0
O623 O 0.5016 0.96025 0.48605 0.0
H624 H 0.23811 0.21833 0.50468 0.0
H625 H 0.20963 0.18662 0.50182 0.0
H626 H 0.2099 0.18015 0.57939 0.0
H627 H 0.23821 0.2123 0.58215 0.0
H628 H 0.20861 0.13514 0.53586 0.0
H629 H 0.16844 0.20083 0.57837 0.0
H630 H 0.16003 0.24261 0.58344 0.0
H631 H 0.14046 0.24752 0.5087 0.0
H632 H 0.14882 0.20574 0.50323 0.0
H633 H 0.10181 0.07286 0.5416 0.0
H634 H 0.13169 0.10043 0.55454 0.0
H635 H 0.12086 0.13972 0.48921 0.0
H636 H 0.09103 0.11199 0.47612 0.0
H637 H 0.12763 0.16761 0.53096 0.0
H638 H 0.16364 0.10391 0.48819 0.0
H639 H 0.17105 0.06247 0.47996 0.0
H640 H 0.19911 0.05382 0.55143 0.0
H641 H 0.19165 0.09524 0.56014 0.0
C642 C 0.23278 0.20941 0.52096 0.0
C643 C 0.24023 0.21742 0.54359 0.0
C644 C 0.21646 0.19153 0.51937 0.0
C645 C 0.20764 0.18133 0.54042 0.0
C646 C 0.21659 0.18793 0.563 0.0
C647 C 0.23277 0.20604 0.56458 0.0
C648 C 0.18717 0.16591 0.53865 0.0
C649 C 0.19084 0.14207 0.5354 0.0
C650 C 0.16417 0.1752 0.53723 0.0
C651 C 0.15948 0.2003 0.54035 0.0
C652 C 0.16253 0.21089 0.56299 0.0
C653 C 0.15764 0.23451 0.56597 0.0
C654 C 0.14972 0.24771 0.5464 0.0
C655 C 0.1466 0.23728 0.52384 0.0
C656 C 0.15136 0.21363 0.5208 0.0
C657 C 0.10539 0.08754 0.53025 0.0
C658 C 0.09423 0.09005 0.5078 0.0
C659 C 0.12254 0.10327 0.53761 0.0
C660 C 0.1286 0.12192 0.52268 0.0
C661 C 0.11642 0.12537 0.50095 0.0
C662 C 0.09949 0.10947 0.49347 0.0
C663 C 0.14893 0.13667 0.52865 0.0
C664 C 0.14529 0.16048 0.53218 0.0
C665 C 0.17196 0.12734 0.53017 0.0
C666 C 0.17688 0.10258 0.52489 0.0
C667 C 0.17127 0.09313 0.50219 0.0
C668 C 0.1755 0.06967 0.49742 0.0
C669 C 0.1855 0.05551 0.51518 0.0
C670 C 0.19136 0.06481 0.5377 0.0
C671 C 0.18717 0.08829 0.54255 0.0
H672 H 0.18874 0.03733 0.51147 0.0
H673 H 0.14604 0.26602 0.54872 0.0
H674 H 0.82822 0.25093 0.46721 0.0
H675 H 0.86646 0.23085 0.46703 0.0
H676 H 0.8425 0.18704 0.52534 0.0
H677 H 0.80638 0.20948 0.52766 0.0
H678 H 0.88322 0.18741 0.53077 0.0
H679 H 0.8395 0.17625 0.45475 0.0
H680 H 0.82165 0.18954 0.41649 0.0
H681 H 0.8881 0.21711 0.39392 0.0
H682 H 0.90625 0.20411 0.43213 0.0
H683 H 0.92123 0.07571 0.50009 0.0
H684 H 0.89666 0.1098 0.49141 0.0
H685 H 0.95885 0.1516 0.4838 0.0
H686 H 0.98344 0.11759 0.49311 0.0
H687 H 0.90728 0.15726 0.4505 0.0
H688 H 0.949 0.1609 0.53058 0.0
H689 H 0.96195 0.13989 0.56712 0.0
H690 H 0.89093 0.1185 0.58044 0.0
H691 H 0.87769 0.13903 0.54372 0.0
C692 C 0.83168 0.23745 0.48036 0.0
C693 C 0.81427 0.23107 0.49695 0.0
C694 C 0.85331 0.22565 0.48001 0.0
C695 C 0.85719 0.20644 0.4953 0.0
C696 C 0.84027 0.2015 0.51307 0.0
C697 C 0.81942 0.21414 0.5143 0.0
C698 C 0.87766 0.19029 0.49222 0.0
C699 C 0.88831 0.18103 0.51309 0.0
C700 C 0.88503 0.18182 0.46927 0.0
C701 C 0.87412 0.18948 0.44634 0.0
C702 C 0.85025 0.18521 0.44163 0.0
C703 C 0.84009 0.19269 0.41997 0.0
C704 C 0.85372 0.20423 0.40282 0.0
C705 C 0.87755 0.20823 0.40724 0.0
C706 C 0.88778 0.20081 0.42887 0.0
C707 C 0.9296 0.09194 0.49543 0.0
C708 C 0.95406 0.0942 0.49698 0.0
C709 C 0.91562 0.11136 0.49056 0.0
C710 C 0.92604 0.1331 0.48707 0.0
C711 C 0.9506 0.13488 0.48628 0.0
C712 C 0.96457 0.11551 0.49152 0.0
C713 C 0.91138 0.15418 0.48891 0.0
C714 C 0.90218 0.16423 0.46795 0.0
C715 C 0.90453 0.16274 0.51173 0.0
C716 C 0.91241 0.15138 0.53437 0.0
C717 C 0.93619 0.15163 0.54126 0.0
C718 C 0.94358 0.1398 0.56199 0.0
C719 C 0.92728 0.12784 0.57607 0.0
C720 C 0.90354 0.12777 0.56952 0.0
C721 C 0.89609 0.13951 0.54877 0.0
H722 H 0.93304 0.11866 0.59208 0.0
H723 H 0.84582 0.21001 0.38607 0.0
H724 H 0.81906 0.80428 0.53055 0.0
H725 H 0.85614 0.82524 0.53138 0.0
H726 H 0.85722 0.82557 0.45344 0.0
H727 H 0.82123 0.80203 0.45294 0.0
H728 H 0.9008 0.82791 0.4691 0.0
H729 H 0.83034 0.87253 0.48712 0.0
H730 H 0.79361 0.8828 0.50848 0.0
H731 H 0.83057 0.88308 0.5761 0.0
H732 H 0.86763 0.87346 0.55507 0.0
H733 H 0.93342 0.95218 0.46399 0.0
H734 H 0.91622 0.91355 0.45921 0.0
H735 H 0.94287 0.89391 0.52917 0.0
H736 H 0.96066 0.93219 0.53386 0.0
H737 H 0.88879 0.89927 0.51782 0.0
H738 H 0.96128 0.86241 0.49566 0.0
H739 H -0.00284 0.85557 0.47174 0.0
H740 H 0.9553 0.84281 0.40861 0.0
H741 H 0.91912 0.85007 0.43203 0.0
C742 C 0.82809 0.80746 0.51371 0.0
C743 C 0.81777 0.80103 0.49174 0.0
C744 C 0.84895 0.82001 0.5141 0.0
C745 C 0.85906 0.82779 0.49247 0.0
C746 C 0.84969 0.81997 0.4704 0.0
C747 C 0.8292 0.80655 0.47007 0.0
C748 C 0.87729 0.84623 0.49305 0.0
C749 C 0.89812 0.84358 0.47961 0.0
C750 C 0.87396 0.86671 0.50686 0.0
C751 C 0.85164 0.87205 0.51957 0.0
C752 C 0.83058 0.87468 0.50655 0.0
C753 C 0.80974 0.88045 0.51858 0.0
C754 C 0.80971 0.88333 0.54364 0.0
C755 C 0.83059 0.88075 0.5567 0.0
C756 C 0.85154 0.8753 0.54473 0.0
C757 C 0.93626 0.93938 0.47801 0.0
C758 C 0.94807 0.94532 0.49945 0.0
C759 C 0.92661 0.91727 0.47515 0.0
C760 C 0.92842 0.9009 0.49378 0.0
C761 C 0.94159 0.90624 0.51446 0.0
C762 C 0.95164 0.92817 0.51714 0.0
C763 C 0.91229 0.88088 0.49409 0.0
C764 C 0.89163 0.88345 0.50754 0.0
C765 C 0.9157 0.86074 0.4799 0.0
C766 C 0.93745 0.85707 0.46558 0.0
C767 C 0.9597 0.85852 0.4766 0.0
C768 C 0.9801 0.85444 0.46315 0.0
C769 C 0.9785 0.84867 0.43871 0.0
C770 C 0.9565 0.84717 0.42759 0.0
C771 C 0.93603 0.8513 0.44094 0.0
H772 H 0.99431 0.84544 0.42834 0.0
H773 H 0.79353 0.88768 0.55291 0.0
H774 H 0.222 0.79338 0.46075 0.0
H775 H 0.19543 0.82649 0.46345 0.0
H776 H 0.22733 0.84583 0.53144 0.0
H777 H 0.25071 0.81056 0.5305 0.0
H778 H 0.18702 0.84755 0.53955 0.0
H779 H 0.2271 0.87861 0.4707 0.0
H780 H 0.24368 0.88051 0.42961 0.0
H781 H 0.17526 0.86859 0.39928 0.0
H782 H 0.15836 0.86617 0.44013 0.0
H783 H 0.12213 0.95745 0.53592 0.0
H784 H 0.15099 0.92593 0.53876 0.0
H785 H 0.10861 0.88404 0.49124 0.0
H786 H 0.07966 0.91525 0.48836 0.0
H787 H 0.1547 0.89646 0.4739 0.0
H788 H 0.12237 0.85216 0.54632 0.0
H789 H 0.10884 0.84967 0.58862 0.0
H790 H 0.16589 0.89295 0.6113 0.0
H791 H 0.18037 0.89482 0.56928 0.0
C792 C 0.22325 0.80479 0.4762 0.0
C793 C 0.23781 0.79899 0.49575 0.0
C794 C 0.20842 0.82416 0.47752 0.0
C795 C 0.20915 0.83903 0.49772 0.0
C796 C 0.226 0.83465 0.51578 0.0
C797 C 0.23983 0.81466 0.51503 0.0
C798 C 0.19054 0.85696 0.50184 0.0
C799 C 0.1806 0.85858 0.52511 0.0
C800 C 0.18121 0.87112 0.48315 0.0
C801 C 0.19151 0.87203 0.45854 0.0
C802 C 0.21564 0.87616 0.45528 0.0
C803 C 0.22508 0.87735 0.43201 0.0
C804 C 0.21055 0.87461 0.41185 0.0
C805 C 0.18652 0.87066 0.4149 0.0
C806 C 0.177 0.86938 0.43811 0.0
C807 C 0.11858 0.94126 0.52668 0.0
C808 C 0.09892 0.93905 0.51141 0.0
C809 C 0.13504 0.92323 0.52844 0.0
C810 C 0.13197 0.90282 0.51502 0.0
C811 C 0.11127 0.89974 0.50167 0.0
C812 C 0.09477 0.91764 0.50002 0.0
C813 C 0.15191 0.88674 0.51125 0.0
C814 C 0.16183 0.88553 0.48811 0.0
C815 C 0.16173 0.8735 0.53003 0.0
C816 C 0.15214 0.87395 0.55476 0.0
C817 C 0.13185 0.86133 0.56034 0.0
C818 C 0.12414 0.85988 0.58426 0.0
C819 C 0.13628 0.87147 0.60258 0.0
C820 C 0.1564 0.8842 0.59707 0.0
C821 C 0.16447 0.88531 0.57326 0.0
H822 H 0.13019 0.87043 0.62105 0.0
H823 H 0.21789 0.8756 0.39386 0.0
H824 H 0.45671 0.22532 0.21155 0.0
H825 H 0.46138 0.18955 0.18858 0.0
H826 H 0.5272 0.17615 0.22521 0.0
H827 H 0.52372 0.21337 0.24582 0.0
H828 H 0.53522 0.17063 0.18308 0.0
H829 H 0.4717 0.14105 0.22963 0.0
H830 H 0.4325 0.14101 0.24862 0.0
H831 H 0.39986 0.14471 0.17877 0.0
H832 H 0.43884 0.14511 0.15936 0.0
H833 H 0.55077 0.06941 0.11188 0.0
H834 H 0.5408 0.09175 0.14809 0.0
H835 H 0.48578 0.12712 0.10885 0.0
H836 H 0.49581 0.10515 0.0725 0.0
H837 H 0.47322 0.11595 0.15687 0.0
H838 H 0.53759 0.15351 0.11319 0.0
H839 H 0.57722 0.15626 0.09529 0.0
H840 H 0.6082 0.13595 0.16282 0.0
H841 H 0.56874 0.13315 0.18112 0.0
C842 C 0.47202 0.21453 0.21479 0.0
C843 C 0.48998 0.22221 0.23016 0.0
C844 C 0.47451 0.19378 0.202 0.0
C845 C 0.49454 0.17968 0.20527 0.0
C846 C 0.51154 0.18654 0.22229 0.0
C847 C 0.50942 0.2077 0.23438 0.0
C848 C 0.49934 0.15976 0.18872 0.0
C849 C 0.52173 0.15828 0.17808 0.0
C850 C 0.48176 0.14382 0.18143 0.0
C851 C 0.45824 0.14318 0.19304 0.0
C852 C 0.45617 0.14194 0.21832 0.0
C853 C 0.43398 0.14186 0.22916 0.0
C854 C 0.41371 0.14287 0.21491 0.0
C855 C 0.41558 0.1439 0.18978 0.0
C856 C 0.43772 0.14401 0.17885 0.0
C857 C 0.53637 0.08176 0.11102 0.0
C858 C 0.52443 0.0859 0.08918 0.0
C859 C 0.53069 0.09447 0.13174 0.0
C860 C 0.51276 0.11128 0.13102 0.0
C861 C 0.49972 0.11427 0.10973 0.0
C862 C 0.50555 0.10175 0.08895 0.0
C863 C 0.50885 0.12718 0.15167 0.0
C864 C 0.48669 0.12795 0.16276 0.0
C865 C 0.52669 0.14228 0.15975 0.0
C866 C 0.55027 0.14293 0.14843 0.0
C867 C 0.55286 0.14946 0.12414 0.0
C868 C 0.57528 0.1512 0.11399 0.0
C869 C 0.59521 0.14644 0.12796 0.0
C870 C 0.59275 0.13975 0.15206 0.0
C871 C 0.57039 0.13813 0.16234 0.0
H872 H 0.61255 0.14778 0.12006 0.0
H873 H 0.39655 0.14284 0.22334 0.0
H874 H 0.79799 0.47282 0.2474 0.0
H875 H 0.83703 0.47654 0.22945 0.0
H876 H 0.82829 0.55105 0.2284 0.0
H877 H 0.79035 0.54705 0.24875 0.0
H878 H 0.84503 0.48912 0.18802 0.0
H879 H 0.87514 0.58 0.21859 0.0
H880 H 0.87694 0.60432 0.25525 0.0
H881 H 0.87853 0.54321 0.29949 0.0
H882 H 0.87627 0.51855 0.26311 0.0
H883 H 0.92499 0.56367 0.1155 0.0
H884 H 0.89836 0.55897 0.1498 0.0
H885 H 0.9314 0.49359 0.16709 0.0
H886 H 0.95765 0.49774 0.13246 0.0
H887 H 0.90638 0.54851 0.20199 0.0
H888 H 0.89994 0.46301 0.16843 0.0
H889 H 0.89946 0.43822 0.132 0.0
H890 H 0.85252 0.48621 0.09706 0.0
H891 H 0.85318 0.51147 0.13317 0.0
C892 C 0.80521 0.48995 0.24471 0.0
C893 C 0.79187 0.50969 0.25034 0.0
C894 C 0.82728 0.49213 0.234 0.0
C895 C 0.83596 0.51411 0.22774 0.0
C896 C 0.82261 0.53393 0.23375 0.0
C897 C 0.80087 0.53171 0.24521 0.0
C898 C 0.8572 0.51603 0.21219 0.0
C899 C 0.85869 0.50173 0.19164 0.0
C900 C 0.8749 0.53283 0.2162 0.0
C901 C 0.87545 0.54748 0.23817 0.0
C902 C 0.87582 0.57178 0.23616 0.0
C903 C 0.87682 0.58561 0.25688 0.0
C904 C 0.87781 0.57531 0.27969 0.0
C905 C 0.87765 0.55116 0.28182 0.0
C906 C 0.87631 0.53725 0.26117 0.0
C907 C 0.92694 0.54852 0.12689 0.0
C908 C 0.94316 0.5309 0.12107 0.0
C909 C 0.91166 0.54584 0.14641 0.0
C910 C 0.91257 0.52564 0.16047 0.0
C911 C 0.93004 0.50897 0.15597 0.0
C912 C 0.94512 0.51148 0.13631 0.0
C913 C 0.89415 0.52131 0.17863 0.0
C914 C 0.89297 0.53547 0.19916 0.0
C915 C 0.877 0.50406 0.17501 0.0
C916 C 0.87689 0.4892 0.15324 0.0
C917 C 0.8897 0.46832 0.15286 0.0
C918 C 0.88941 0.45421 0.1323 0.0
C919 C 0.87605 0.46068 0.11218 0.0
C920 C 0.86298 0.48129 0.11259 0.0
C921 C 0.86339 0.49555 0.13305 0.0
H922 H 0.87576 0.4497 0.09631 0.0
H923 H 0.87866 0.58604 0.29571 0.0
H924 H 0.51622 0.81751 0.24566 0.0
H925 H 0.51068 0.84292 0.21095 0.0
H926 H 0.57184 0.81252 0.17692 0.0
H927 H 0.57793 0.78772 0.21277 0.0
H928 H 0.57341 0.85823 0.17377 0.0
H929 H 0.51412 0.80196 0.15695 0.0
H930 H 0.48027 0.77683 0.16586 0.0
H931 H 0.43753 0.83682 0.18056 0.0
H932 H 0.47121 0.86231 0.1722 0.0
H933 H 0.54217 0.91363 0.06114 0.0
H934 H 0.55366 0.88767 0.09403 0.0
H935 H 0.49965 0.9175 0.13925 0.0
H936 H 0.48806 0.94354 0.10653 0.0
H937 H 0.49612 0.87006 0.13395 0.0
H938 H 0.55541 0.92598 0.15334 0.0
H939 H 0.58902 0.95165 0.14516 0.0
H940 H 0.63123 0.89274 0.12515 0.0
H941 H 0.59776 0.86672 0.13289 0.0
C942 C 0.52817 0.81605 0.23051 0.0
C943 C 0.5474 0.8008 0.2316 0.0
C944 C 0.525 0.83046 0.21066 0.0
C945 C 0.54065 0.82945 0.1911 0.0
C946 C 0.55951 0.81354 0.19178 0.0
C947 C 0.56288 0.79927 0.21199 0.0
C948 C 0.53774 0.846 0.17078 0.0
C949 C 0.55665 0.86048 0.16468 0.0
C950 C 0.51569 0.84937 0.15934 0.0
C951 C 0.49527 0.83405 0.16406 0.0
C952 C 0.49754 0.80979 0.16222 0.0
C953 C 0.47838 0.79548 0.16717 0.0
C954 C 0.45677 0.80522 0.17379 0.0
C955 C 0.45427 0.8293 0.17543 0.0
C956 C 0.4734 0.84369 0.17056 0.0
C957 C 0.53305 0.91499 0.07825 0.0
C958 C 0.51401 0.9304 0.08114 0.0
C959 C 0.53971 0.9002 0.09704 0.0
C960 C 0.52741 0.90061 0.11897 0.0
C961 C 0.50928 0.9169 0.12238 0.0
C962 C 0.50273 0.93179 0.10368 0.0
C963 C 0.53162 0.88242 0.1373 0.0
C964 C 0.51294 0.86762 0.1429 0.0
C965 C 0.55383 0.87878 0.14817 0.0
C966 C 0.57398 0.89441 0.14345 0.0
C967 C 0.57178 0.91851 0.14697 0.0
C968 C 0.59083 0.93312 0.14247 0.0
C969 C 0.61223 0.92384 0.1346 0.0
C970 C 0.61463 0.89991 0.13124 0.0
C971 C 0.59564 0.88522 0.1357 0.0
H972 H 0.62695 0.93518 0.13115 0.0
H973 H 0.44196 0.79412 0.17762 0.0
H974 H 0.23723 0.48541 0.23985 0.0
H975 H 0.20409 0.48338 0.211 0.0
H976 H 0.23221 0.54213 0.17252 0.0
H977 H 0.26485 0.54406 0.20126 0.0
H978 H 0.18452 0.54547 0.17896 0.0
H979 H 0.24244 0.48859 0.15263 0.0
H980 H 0.26756 0.45406 0.15847 0.0
H981 H 0.20643 0.41256 0.17169 0.0
H982 H 0.18096 0.44697 0.16631 0.0
H983 H 0.12471 0.54304 0.06791 0.0
H984 H 0.15654 0.54238 0.09774 0.0
H985 H 0.13113 0.47705 0.12512 0.0
H986 H 0.10034 0.47697 0.09469 0.0
H987 H 0.17578 0.47609 0.12665 0.0
H988 H 0.11737 0.53182 0.15182 0.0
H989 H 0.09168 0.56615 0.14726 0.0
H990 H 0.1522 0.60944 0.138 0.0
H991 H 0.17825 0.57531 0.14221 0.0
C992 C 0.23603 0.49779 0.22521 0.0
C993 C 0.25331 0.51478 0.22239 0.0
C994 C 0.21728 0.4967 0.20885 0.0
C995 C 0.21585 0.51258 0.18962 0.0
C996 C 0.23297 0.5298 0.18726 0.0
C997 C 0.25159 0.53082 0.20346 0.0
C998 C 0.19719 0.51101 0.17116 0.0
C999 C 0.18261 0.53036 0.16742 0.0
C1000 C 0.19453 0.49112 0.15651 0.0
C1001 C 0.20982 0.47038 0.15931 0.0
C1002 C 0.23437 0.47213 0.15694 0.0
C1003 C 0.24867 0.45258 0.16015 0.0
C1004 C 0.2386 0.43114 0.16549 0.0
C1005 C 0.21421 0.42919 0.16757 0.0
C1006 C 0.19983 0.4487 0.16444 0.0
C1007 C 0.12623 0.52838 0.08002 0.0
C1008 C 0.10999 0.51014 0.07902 0.0
C1009 C 0.14426 0.52809 0.0972 0.0
C1010 C 0.14583 0.50996 0.11411 0.0
C1011 C 0.13025 0.49127 0.11236 0.0
C1012 C 0.11264 0.49126 0.09489 0.0
C1013 C 0.16309 0.51069 0.13418 0.0
C1014 C 0.17744 0.49117 0.13826 0.0
C1015 C 0.16539 0.53039 0.14932 0.0
C1016 C 0.14975 0.55098 0.14713 0.0
C1017 C 0.12519 0.54864 0.1487 0.0
C1018 C 0.11057 0.56807 0.14618 0.0
C1019 C 0.1203 0.58995 0.14229 0.0
C1020 C 0.14469 0.59247 0.14099 0.0
C1021 C 0.15939 0.5731 0.14347 0.0
H1022 H 0.10895 0.60496 0.14032 0.0
H1023 H 0.2497 0.41602 0.16798 0.0
H1024 H 0.5733 0.82361 0.76767 0.0
H1025 H 0.56483 0.85795 0.79258 0.0
H1026 H 0.4986 0.82764 0.81361 0.0
H1027 H 0.50637 0.79463 0.787 0.0
H1028 H 0.49193 0.86986 0.81239 0.0
H1029 H 0.55314 0.82321 0.84751 0.0
H1030 H 0.59154 0.80317 0.84857 0.0
H1031 H 0.62685 0.86828 0.83973 0.0
H1032 H 0.5886 0.88868 0.83829 0.0
H1033 H 0.47621 0.91491 0.93048 0.0
H1034 H 0.48621 0.88908 0.89719 0.0
H1035 H 0.53872 0.93734 0.87279 0.0
H1036 H 0.52985 0.96272 0.90755 0.0
H1037 H 0.55316 0.89067 0.87239 0.0
H1038 H 0.48224 0.92791 0.82096 0.0
H1039 H 0.44057 0.94025 0.81911 0.0
H1040 H 0.42148 0.88451 0.86636 0.0
H1041 H 0.46267 0.87084 0.86692 0.0
C1042 C 0.5566 0.82493 0.77692 0.0
C1043 C 0.54026 0.8069 0.77533 0.0
C1044 C 0.55191 0.84426 0.79149 0.0
C1045 C 0.53132 0.8452 0.80556 0.0
C1046 C 0.5146 0.82749 0.80301 0.0
C1047 C 0.51897 0.80863 0.78788 0.0
C1048 C 0.52758 0.86363 0.82406 0.0
C1049 C 0.5054 0.87429 0.82547 0.0
C1050 C 0.54502 0.8696 0.84131 0.0
C1051 C 0.56803 0.85743 0.84253 0.0
C1052 C 0.5691 0.83324 0.84568 0.0
C1053 C 0.59083 0.82181 0.84635 0.0
C1054 C 0.61162 0.83444 0.84416 0.0
C1055 C 0.61072 0.85852 0.84138 0.0
C1056 C 0.58903 0.87003 0.84064 0.0
C1057 C 0.48989 0.92004 0.91799 0.0
C1058 C 0.50213 0.94087 0.92137 0.0
C1059 C 0.49526 0.90546 0.89868 0.0
C1060 C 0.51228 0.91182 0.88169 0.0
C1061 C 0.52511 0.93235 0.88539 0.0
C1062 C 0.52017 0.94673 0.90525 0.0
C1063 C 0.51741 0.89632 0.8609 0.0
C1064 C 0.53991 0.88638 0.85901 0.0
C1065 C 0.49995 0.89003 0.84392 0.0
C1066 C 0.47561 0.89905 0.8449 0.0
C1067 C 0.46917 0.91853 0.83122 0.0
C1068 C 0.44561 0.92558 0.83015 0.0
C1069 C 0.4285 0.91359 0.84315 0.0
C1070 C 0.43479 0.89405 0.85664 0.0
C1071 C 0.45818 0.88652 0.85714 0.0
H1072 H 0.41033 0.91923 0.84247 0.0
H1073 H 0.62843 0.82556 0.84466 0.0
H1074 H 0.25356 0.50034 0.78413 0.0
H1075 H 0.21426 0.49893 0.80206 0.0
H1076 H 0.20305 0.57069 0.78236 0.0
H1077 H 0.24179 0.57115 0.76275 0.0
H1078 H 0.19938 0.51869 0.83839 0.0
H1079 H 0.14711 0.586 0.78247 0.0
H1080 H 0.14328 0.59973 0.74044 0.0
H1081 H 0.16683 0.53339 0.71433 0.0
H1082 H 0.17102 0.51937 0.7562 0.0
H1083 H 0.09242 0.56485 0.8932 0.0
H1084 H 0.12295 0.56851 0.86232 0.0
H1085 H 0.11256 0.49724 0.84152 0.0
H1086 H 0.08234 0.49319 0.87254 0.0
H1087 H 0.12472 0.54991 0.80481 0.0
H1088 H 0.15462 0.47976 0.8568 0.0
H1089 H 0.15561 0.46268 0.8977 0.0
H1090 H 0.17417 0.5289 0.92763 0.0
H1091 H 0.17302 0.54633 0.88686 0.0
C1092 C 0.24227 0.5155 0.78319 0.0
C1093 C 0.25017 0.53569 0.7719 0.0
C1094 C 0.21996 0.51483 0.79351 0.0
C1095 C 0.20544 0.53465 0.79349 0.0
C1096 C 0.21348 0.55494 0.78208 0.0
C1097 C 0.23561 0.55533 0.77107 0.0
C1098 C 0.18291 0.53442 0.80715 0.0
C1099 C 0.18313 0.52529 0.83069 0.0
C1100 C 0.16152 0.54332 0.79761 0.0
C1101 C 0.15952 0.55172 0.77243 0.0
C1102 C 0.15149 0.57437 0.76774 0.0
C1103 C 0.14931 0.58222 0.74396 0.0
C1104 C 0.15483 0.56745 0.72473 0.0
C1105 C 0.16262 0.54483 0.72925 0.0
C1106 C 0.16505 0.53698 0.75299 0.0
C1107 C 0.09611 0.55014 0.88159 0.0
C1108 C 0.08517 0.52862 0.8855 0.0
C1109 C 0.1135 0.55231 0.86394 0.0
C1110 C 0.1199 0.53313 0.84979 0.0
C1111 C 0.10774 0.51221 0.85231 0.0
C1112 C 0.09055 0.50993 0.87009 0.0
C1113 C 0.14157 0.53377 0.83526 0.0
C1114 C 0.14115 0.54323 0.812 0.0
C1115 C 0.16269 0.52462 0.8446 0.0
C1116 C 0.16376 0.51426 0.86896 0.0
C1117 C 0.15895 0.4906 0.87215 0.0
C1118 C 0.15947 0.48089 0.89527 0.0
C1119 C 0.16497 0.49469 0.91525 0.0
C1120 C 0.16991 0.51824 0.91214 0.0
C1121 C 0.16929 0.52804 0.88906 0.0
H1122 H 0.16539 0.48715 0.93314 0.0
H1123 H 0.15307 0.57353 0.70633 0.0
H1124 H 0.44918 0.24487 0.80782 0.0
H1125 H 0.45189 0.21852 0.84297 0.0
H1126 H 0.51808 0.19224 0.81615 0.0
H1127 H 0.51538 0.21857 0.78161 0.0
H1128 H 0.48233 0.15818 0.82317 0.0
H1129 H 0.51875 0.22344 0.86249 0.0
H1130 H 0.52194 0.26256 0.88008 0.0
H1131 H 0.46537 0.24761 0.92882 0.0
H1132 H 0.46128 0.20862 0.91095 0.0
H1133 H 0.54554 0.09226 0.9073 0.0
H1134 H 0.53024 0.12087 0.87885 0.0
H1135 H 0.47061 0.13324 0.92525 0.0
H1136 H 0.48607 0.10449 0.95389 0.0
H1137 H 0.49348 0.17399 0.91045 0.0
H1138 H 0.46038 0.10705 0.87422 0.0
H1139 H 0.45921 0.06713 0.85822 0.0
H1140 H 0.51053 0.08478 0.80458 0.0
H1141 H 0.51231 0.1247 0.82048 0.0
C1142 C 0.46456 0.23393 0.81006 0.0
C1143 C 0.48216 0.23359 0.79233 0.0
C1144 C 0.46606 0.21886 0.82993 0.0
C1145 C 0.48508 0.20329 0.83195 0.0
C1146 C 0.50321 0.20401 0.81484 0.0
C1147 C 0.50179 0.21909 0.79529 0.0
C1148 C 0.48551 0.1847 0.85039 0.0
C1149 C 0.48477 0.16162 0.84227 0.0
C1150 C 0.48786 0.18926 0.87536 0.0
C1151 C 0.48944 0.2132 0.88509 0.0
C1152 C 0.50663 0.22863 0.87659 0.0
C1153 C 0.50869 0.25076 0.8867 0.0
C1154 C 0.49391 0.25753 0.90559 0.0
C1155 C 0.47683 0.24231 0.9142 0.0
C1156 C 0.47456 0.22024 0.90401 0.0
C1157 C 0.52903 0.10085 0.91137 0.0
C1158 C 0.51686 0.09599 0.93284 0.0
C1159 C 0.52024 0.11714 0.89502 0.0
C1160 C 0.49919 0.12906 0.89984 0.0
C1161 C 0.48682 0.12412 0.92112 0.0
C1162 C 0.49552 0.10755 0.93739 0.0
C1163 C 0.49115 0.14753 0.88309 0.0
C1164 C 0.49041 0.17054 0.89145 0.0
C1165 C 0.48748 0.14296 0.85828 0.0
C1166 C 0.48657 0.11888 0.84867 0.0
C1167 C 0.47157 0.10238 0.85914 0.0
C1168 C 0.47077 0.07975 0.85006 0.0
C1169 C 0.4848 0.07341 0.83041 0.0
C1170 C 0.49966 0.08971 0.8198 0.0
C1171 C 0.50055 0.11235 0.82883 0.0
H1172 H 0.48413 0.05589 0.82339 0.0
H1173 H 0.49573 0.27455 0.91362 0.0
H1174 H 0.77474 0.54148 0.78856 0.0
H1175 H 0.8083 0.5423 0.81607 0.0
H1176 H 0.81097 0.46735 0.81491 0.0
H1177 H 0.77892 0.46703 0.78522 0.0
H1178 H 0.80595 0.5285 0.8585 0.0
H1179 H 0.86114 0.44686 0.83933 0.0
H1180 H 0.87333 0.42236 0.80492 0.0
H1181 H 0.86955 0.48129 0.75773 0.0
H1182 H 0.85729 0.50612 0.79183 0.0
H1183 H 0.89854 0.48629 0.94764 0.0
H1184 H 0.86941 0.48011 0.91542 0.0
H1185 H 0.88645 0.54673 0.88511 0.0
H1186 H 0.91509 0.55325 0.91719 0.0
H1187 H 0.8818 0.4856 0.85924 0.0
H1188 H 0.84664 0.56726 0.88436 0.0
H1189 H 0.83557 0.59171 0.91927 0.0
H1190 H 0.80102 0.53365 0.95206 0.0
H1191 H 0.81239 0.50881 0.91752 0.0
C1192 C 0.78353 0.52537 0.79316 0.0
C1193 C 0.7751 0.50427 0.78432 0.0
C1194 C 0.80237 0.52573 0.80918 0.0
C1195 C 0.81227 0.50489 0.81763 0.0
C1196 C 0.80416 0.4837 0.80825 0.0
C1197 C 0.78588 0.48346 0.79139 0.0
C1198 C 0.8289 0.50559 0.83825 0.0
C1199 C 0.82264 0.51929 0.85829 0.0
C1200 C 0.85033 0.49291 0.83869 0.0
C1201 C 0.85812 0.47829 0.8181 0.0
C1202 C 0.86298 0.4546 0.82162 0.0
C1203 C 0.86981 0.44063 0.80215 0.0
C1204 C 0.87206 0.45023 0.77912 0.0
C1205 C 0.8676 0.47384 0.77553 0.0
C1206 C 0.86065 0.48785 0.79491 0.0
C1207 C 0.89575 0.49972 0.93428 0.0
C1208 C 0.90896 0.52026 0.93496 0.0
C1209 C 0.87933 0.49609 0.91589 0.0
C1210 C 0.87604 0.51293 0.89801 0.0
C1211 C 0.88876 0.53364 0.89894 0.0
C1212 C 0.90494 0.5374 0.9174 0.0
C1213 C 0.85906 0.50928 0.87836 0.0
C1214 C 0.86509 0.49477 0.85896 0.0
C1215 C 0.83757 0.5214 0.87812 0.0
C1216 C 0.83037 0.53628 0.89854 0.0
C1217 C 0.8367 0.55978 0.89907 0.0
C1218 C 0.83045 0.57366 0.91879 0.0
C1219 C 0.81759 0.56424 0.93787 0.0
C1220 C 0.81101 0.54091 0.93729 0.0
C1221 C 0.81742 0.52691 0.91771 0.0
H1222 H 0.81272 0.57502 0.9531 0.0
H1223 H 0.87732 0.4394 0.76406 0.0
H1224 H 0.76045 0.71461 0.95462 0.0
H1225 H 0.73407 0.68102 0.95928 0.0
H1226 H 0.69345 0.71966 0.01181 0.0
H1227 H 0.72095 0.75153 0.00888 0.0
H1228 H 0.69612 0.67994 0.02684 0.0
H1229 H 0.67906 0.71051 0.9458 0.0
H1230 H 0.69029 0.72 0.90393 0.0
H1231 H 0.71051 0.64907 0.89168 0.0
H1232 H 0.69958 0.63924 0.93355 0.0
H1233 H 0.5848 0.62805 0.03071 0.0
H1234 H 0.61734 0.65473 0.02351 0.0
H1235 H 0.64813 0.60565 0.97351 0.0
H1236 H 0.61444 0.57997 0.97917 0.0
H1237 H 0.65533 0.64504 0.95666 0.0
H1238 H 0.66661 0.61519 0.0385 0.0
H1239 H 0.65752 0.60821 0.08149 0.0
H1240 H 0.6472 0.68127 0.09268 0.0
H1241 H 0.65602 0.68866 0.04982 0.0
C1242 C 0.74596 0.71552 0.96726 0.0
C1243 C 0.74234 0.73558 0.98115 0.0
C1244 C 0.73077 0.69655 0.96977 0.0
C1245 C 0.71135 0.69788 0.98556 0.0
C1246 C 0.7082 0.71797 -0.00045 0.0
C1247 C 0.72374 0.73633 -0.00228 0.0
C1248 C 0.69393 0.67882 0.98803 0.0
C1249 C 0.68706 0.67249 0.01143 0.0
C1250 C 0.68263 0.66833 0.96805 0.0
C1251 C 0.68871 0.6742 0.94281 0.0
C1252 C 0.68595 0.69698 0.93417 0.0
C1253 C 0.69227 0.70241 0.91046 0.0
C1254 C 0.70116 0.68516 0.89517 0.0
C1255 C 0.70365 0.66242 0.90354 0.0
C1256 C 0.69738 0.6569 0.92724 0.0
C1257 C 0.59846 0.62316 0.01804 0.0
C1258 C 0.59726 0.60204 0.00552 0.0
C1259 C 0.61723 0.63824 0.01414 0.0
C1260 C 0.63576 0.63193 -0.00142 0.0
C1261 C 0.63422 0.61094 0.98571 0.0
C1262 C 0.615 0.59626 0.98894 0.0
C1263 C 0.65661 0.6472 0.99556 0.0
C1264 C 0.66437 0.65246 0.97208 0.0
C1265 C 0.66845 0.6572 0.01552 0.0
C1266 C 0.66197 0.65245 0.04096 0.0
C1267 C 0.66219 0.62972 0.05009 0.0
C1268 C 0.65714 0.62571 0.07445 0.0
C1269 C 0.65195 0.64431 0.08979 0.0
C1270 C 0.65135 0.6669 0.08079 0.0
C1271 C 0.65639 0.67101 0.0565 0.0
H1272 H 0.64861 0.6413 0.10873 0.0
H1273 H 0.70608 0.68941 0.87683 0.0
H1274 H 0.28886 0.74219 0.0627 0.0
H1275 H 0.32286 0.7159 0.05983 0.0
H1276 H 0.31313 0.71204 0.98256 0.0
H1277 H 0.28005 0.73919 0.98562 0.0
H1278 H 0.31817 0.67323 0.04697 0.0
H1279 H 0.3618 0.69079 0.95434 0.0
H1280 H 0.37121 0.72381 0.92785 0.0
H1281 H 0.37307 0.76928 0.98927 0.0
H1282 H 0.36414 0.73646 0.01622 0.0
H1283 H 0.41093 0.59682 0.97694 0.0
H1284 H 0.37989 0.62629 0.97823 0.0
H1285 H 0.39039 0.63397 0.05501 0.0
H1286 H 0.42075 0.60415 0.05407 0.0
H1287 H 0.38515 0.67072 0.98978 0.0
H1288 H 0.34231 0.65226 0.08243 0.0
H1289 H 0.33328 0.6186 0.10822 0.0
H1290 H 0.32924 0.57487 0.04555 0.0
H1291 H 0.33799 0.6083 0.01937 0.0
C1292 C 0.2949 0.73655 0.04511 0.0
C1293 C 0.28233 0.74276 0.02433 0.0
C1294 C 0.31403 0.72135 0.04343 0.0
C1295 C 0.32057 0.71191 0.02098 0.0
C1296 C 0.30883 0.71937 2e-05 0.0
C1297 C 0.29 0.73489 0.00171 0.0
C1298 C 0.3374 0.69217 0.01988 0.0
C1299 C 0.33308 0.67293 0.03477 0.0
C1300 C 0.35625 0.69128 0.00322 0.0
C1301 C 0.36209 0.71115 0.98729 0.0
C1302 C 0.36436 0.7078 0.96223 0.0
C1303 C 0.36961 0.72649 0.94713 0.0
C1304 C 0.37273 0.74862 0.95688 0.0
C1305 C 0.37064 0.75212 0.98176 0.0
C1306 C 0.36546 0.73348 0.99695 0.0
C1307 C 0.40619 0.60433 0.99421 0.0
C1308 C 0.41841 0.59819 0.01539 0.0
C1309 C 0.38859 0.62132 0.99486 0.0
C1310 C 0.38287 0.63238 0.01669 0.0
C1311 C 0.39427 0.62547 0.03801 0.0
C1312 C 0.41167 0.60838 0.03742 0.0
C1313 C 0.36603 0.65208 0.01708 0.0
C1314 C 0.37026 0.67118 0.00201 0.0
C1315 C 0.34701 0.65286 0.03346 0.0
C1316 C 0.34096 0.63277 0.04897 0.0
C1317 C 0.33933 0.63549 0.07415 0.0
C1318 C 0.33431 0.61644 0.08884 0.0
C1319 C 0.33075 0.5946 0.07854 0.0
C1320 C 0.33208 0.59178 0.05351 0.0
C1321 C 0.33709 0.61077 0.03874 0.0
H1322 H 0.32693 0.57986 0.08995 0.0
H1323 H 0.37676 0.76307 0.94515 0.0
H1324 H 0.31117 0.2865 0.05032 0.0
H1325 H 0.34844 0.30814 0.04773 0.0
H1326 H 0.3276 0.33479 0.97811 0.0
H1327 H 0.29018 0.31389 0.98127 0.0
H1328 H 0.37877 0.31998 0.98431 0.0
H1329 H 0.31608 0.36838 0.01654 0.0
H1330 H 0.28354 0.37703 0.04445 0.0
H1331 H 0.33032 0.36972 0.10494 0.0
H1332 H 0.36316 0.36069 0.07726 0.0
H1333 H 0.44659 0.42324 0.97176 0.0
H1334 H 0.41734 0.39244 0.97166 0.0
H1335 H 0.4231 0.38707 0.04894 0.0
H1336 H 0.45197 0.41816 0.04949 0.0
H1337 H 0.38079 0.3882 0.03898 0.0
H1338 H 0.44556 0.34471 0.00563 0.0
H1339 H 0.47766 0.33622 0.97698 0.0
H1340 H 0.4281 0.33375 0.91852 0.0
H1341 H 0.39572 0.34259 0.94674 0.0
C1342 C 0.31495 0.29669 0.03439 0.0
C1343 C 0.29825 0.29868 0.01592 0.0
C1344 C 0.33608 0.3089 0.03285 0.0
C1345 C 0.3407 0.32286 0.01264 0.0
C1346 C 0.32442 0.32388 0.99367 0.0
C1347 C 0.30314 0.31215 0.9955 0.0
C1348 C 0.36095 0.33872 0.01254 0.0
C1349 C 0.37938 0.33495 0.99619 0.0
C1350 C 0.36159 0.35803 0.02819 0.0
C1351 C 0.34196 0.3635 0.04487 0.0
C1352 C 0.31937 0.36835 0.0358 0.0
C1353 C 0.30088 0.3734 0.05158 0.0
C1354 C 0.3048 0.37381 0.07649 0.0
C1355 C 0.32728 0.3693 0.08564 0.0
C1356 C 0.34585 0.36423 0.06992 0.0
C1357 C 0.44193 0.41523 0.98876 0.0
C1358 C 0.45158 0.42319 0.01067 0.0
C1359 C 0.42528 0.39748 0.98864 0.0
C1360 C 0.41837 0.38702 0.01037 0.0
C1361 C 0.42844 0.39465 0.03207 0.0
C1362 C 0.44486 0.41251 0.03231 0.0
C1363 C 0.39933 0.36948 0.01097 0.0
C1364 C 0.38077 0.37305 0.02733 0.0
C1365 C 0.39875 0.34998 0.9953 0.0
C1366 C 0.41822 0.34454 0.9783 0.0
C1367 C 0.44151 0.34253 0.98664 0.0
C1368 C 0.45976 0.33763 0.97048 0.0
C1369 C 0.45493 0.33451 0.94594 0.0
C1370 C 0.43182 0.3362 0.93752 0.0
C1371 C 0.41351 0.34114 0.95361 0.0
H1372 H 0.46908 0.33075 0.93347 0.0
H1373 H 0.29045 0.37772 0.08868 0.0
H1374 H 0.78553 0.317 0.95286 0.0
H1375 H 0.76372 0.35408 0.95597 0.0
H1376 H 0.72423 0.32657 0.01593 0.0
H1377 H 0.74631 0.29022 0.01306 0.0
H1378 H 0.71732 0.36057 0.95003 0.0
H1379 H 0.70854 0.36745 0.05457 0.0
H1380 H 0.73252 0.35856 0.09052 0.0
H1381 H 0.79562 0.36602 0.04881 0.0
H1382 H 0.77207 0.37537 0.0127 0.0
H1383 H 0.61171 0.41103 0.98208 0.0
H1384 H 0.64668 0.38677 0.97915 0.0
H1385 H 0.68842 0.44182 0.00984 0.0
H1386 H 0.65261 0.46576 0.01439 0.0
H1387 H 0.70273 0.40248 0.02697 0.0
H1388 H 0.68821 0.42861 0.94594 0.0
H1389 H 0.66366 0.43614 0.90998 0.0
H1390 H 0.64868 0.36344 0.90391 0.0
H1391 H 0.673 0.35548 0.93987 0.0
C1392 C 0.77239 0.31926 0.96681 0.0
C1393 C 0.76725 0.30102 0.9826 0.0
C1394 C 0.75997 0.34025 0.96859 0.0
C1395 C 0.74253 0.34316 0.98635 0.0
C1396 C 0.73789 0.32494 0.0024 0.0
C1397 C 0.75025 0.30415 0.00063 0.0
C1398 C 0.72769 0.36434 0.98722 0.0
C1399 C 0.71441 0.37004 0.96672 0.0
C1400 C 0.72412 0.37682 0.00896 0.0
C1401 C 0.73848 0.37209 0.03087 0.0
C1402 C 0.72753 0.36746 0.0531 0.0
C1403 C 0.74106 0.36227 0.07351 0.0
C1404 C 0.76557 0.36171 0.07195 0.0
C1405 C 0.77662 0.36643 0.05 0.0
C1406 C 0.76319 0.37168 0.02955 0.0
C1407 C 0.62837 0.41797 0.98818 0.0
C1408 C 0.62967 0.44032 -0.0019 0.0
C1409 C 0.6484 0.40418 0.98631 0.0
C1410 C 0.6704 0.41277 0.99335 0.0
C1411 C 0.67168 0.43496 0.00393 0.0
C1412 C 0.65134 0.44861 0.00651 0.0
C1413 C 0.69172 0.39814 0.99 0.0
C1414 C 0.70614 0.39358 0.01006 0.0
C1415 C 0.69649 0.3868 0.96777 0.0
C1416 C 0.68246 0.39147 0.94562 0.0
C1417 C 0.67969 0.41423 0.93692 0.0
C1418 C 0.6658 0.41858 0.91655 0.0
C1419 C 0.65461 0.40028 0.90468 0.0
C1420 C 0.65739 0.37759 0.91308 0.0
C1421 C 0.6713 0.37314 0.93341 0.0
H1422 H 0.64379 0.40369 0.88897 0.0
H1423 H 0.776 0.35762 0.08776 0.0
H1424 H 0.02077 0.7152 0.73132 0.0
H1425 H 0.02295 0.68344 0.70198 0.0
H1426 H 0.94864 0.69129 0.68773 0.0
H1427 H 0.9463 0.72146 0.71877 0.0
H1428 H 0.95815 0.65024 0.67921 0.0
H1429 H 0.9934 0.72022 0.65421 0.0
H1430 H 0.01946 0.75424 0.65583 0.0
H1431 H 0.08002 0.70956 0.65264 0.0
H1432 H 0.05435 0.67523 0.65144 0.0
H1433 H 0.99234 0.60541 0.55453 0.0
H1434 H 0.98321 0.63786 0.58217 0.0
H1435 H 0.01563 0.60028 0.64082 0.0
H1436 H 0.02506 0.56826 0.61332 0.0
H1437 H 0.02328 0.66054 0.62056 0.0
H1438 H 0.96368 0.60129 0.67555 0.0
H1439 H 0.936 0.56964 0.66657 0.0
H1440 H 0.9178 0.60194 0.59917 0.0
H1441 H 0.9449 0.63407 0.60812 0.0
C1442 C 0.0048 0.70929 0.72268 0.0
C1443 C 0.98348 0.72096 0.72669 0.0
C1444 C 0.00608 0.69153 0.70556 0.0
C1445 C 0.9862 0.68578 0.6917 0.0
C1446 C 0.96436 0.69569 0.69775 0.0
C1447 C 0.96299 0.71294 0.71541 0.0
C1448 C 0.98847 0.67084 0.66991 0.0
C1449 C 0.9723 0.6528 0.6664 0.0
C1450 C 0.00633 0.67451 0.65238 0.0
C1451 C 0.02192 0.69511 0.653 0.0
C1452 C 0.01228 0.71763 0.65404 0.0
C1453 C 0.02698 0.73697 0.65488 0.0
C1454 C 0.05137 0.73406 0.65442 0.0
C1455 C 0.06112 0.71179 0.65306 0.0
C1456 C 0.0465 0.69237 0.6523 0.0
C1457 C -0.00306 0.60399 0.57346 0.0
C1458 C 0.00874 0.58425 0.58215 0.0
C1459 C 0.99215 0.6226 0.58904 0.0
C1460 C -0.00104 0.62138 0.61339 0.0
C1461 C 0.01038 0.60148 0.62204 0.0
C1462 C 0.01545 0.58315 0.60647 0.0
C1463 C 0.99335 0.64014 0.63059 0.0
C1464 C 0.00897 0.65861 0.63333 0.0
C1465 C 0.97426 0.63789 0.64653 0.0
C1466 C 0.95638 0.61986 0.64242 0.0
C1467 C 0.95355 0.60172 0.65898 0.0
C1468 C 0.93806 0.58366 0.65381 0.0
C1469 C 0.92545 0.58363 0.63211 0.0
C1470 C 0.92781 0.60189 0.61581 0.0
C1471 C 0.94312 0.62004 0.62098 0.0
H1472 H 0.91348 0.56971 0.62802 0.0
H1473 H 0.06272 0.74906 0.65506 0.0
H1474 H 0.30351 0.02248 0.74719 0.0
H1475 H 0.34091 0.02551 0.72575 0.0
H1476 H 0.34817 0.95091 0.72705 0.0
H1477 H 0.31094 0.94819 0.74982 0.0
H1478 H 0.39085 0.97252 0.73276 0.0
H1479 H 0.32582 0.97628 0.67886 0.0
H1480 H 0.2874 0.98984 0.66365 0.0
H1481 H 0.31491 0.05851 0.65478 0.0
H1482 H 0.35339 0.04549 0.67046 0.0
H1483 H 0.45957 0.96795 0.62352 0.0
H1484 H 0.43406 0.96356 0.65852 0.0
H1485 H 0.42552 0.03785 0.6627 0.0
H1486 H 0.45082 0.04248 0.62753 0.0
H1487 H 0.38423 0.01459 0.6549 0.0
H1488 H 0.45066 0.00838 0.70903 0.0
H1489 H 0.48868 0.99217 0.72249 0.0
H1490 H 0.45813 0.92438 0.72729 0.0
H1491 H 0.41994 0.94016 0.71365 0.0
C1492 C 0.31356 0.00688 0.74346 0.0
C1493 C 0.30487 0.98517 0.7502 0.0
C1494 C 0.33471 0.00854 0.7311 0.0
C1495 C 0.34711 0.98841 0.72455 0.0
C1496 C 0.33883 0.96663 0.73201 0.0
C1497 C 0.31769 0.96503 0.74481 0.0
C1498 C 0.36752 0.99031 0.70822 0.0
C1499 C 0.38942 0.9815 0.71561 0.0
C1500 C 0.36554 0.00207 0.68588 0.0
C1501 C 0.34247 0.00994 0.67607 0.0
C1502 C 0.32365 0.99432 0.67385 0.0
C1503 C 0.30185 0.00191 0.66513 0.0
C1504 C 0.29871 0.02503 0.6583 0.0
C1505 C 0.31737 0.04061 0.66012 0.0
C1506 C 0.33918 0.03313 0.66892 0.0
C1507 C 0.4529 0.98344 0.63232 0.0
C1508 C 0.45676 0.00555 0.62237 0.0
C1509 C 0.43839 0.98087 0.65242 0.0
C1510 C 0.42774 1.00037 0.66298 0.0
C1511 C 0.43351 0.02259 0.65464 0.0
C1512 C 0.44803 0.02519 0.63456 0.0
C1513 C 0.40778 0.99745 0.67972 0.0
C1514 C 0.38577 0.00583 0.67217 0.0
C1515 C 0.40965 0.98487 0.70154 0.0
C1516 C 0.43248 0.97543 0.71015 0.0
C1517 C 0.45208 0.99 0.71283 0.0
C1518 C 0.47365 0.98089 0.72053 0.0
C1519 C 0.47583 0.95726 0.7257 0.0
C1520 C 0.45641 0.94269 0.72329 0.0
C1521 C 0.43478 0.95172 0.71563 0.0
H1522 H 0.49255 0.95024 0.73161 0.0
H1523 H 0.28182 0.03087 0.65155 0.0
H1524 H 0.96756 0.31237 0.7196 0.0
H1525 H 0.96654 0.33479 0.68235 0.0
H1526 H 0.03207 0.303 0.66028 0.0
H1527 H 0.03384 0.28217 0.69858 0.0
H1528 H 0.03686 0.34422 0.65472 0.0
H1529 H 0.97233 0.29599 0.62754 0.0
H1530 H 0.93427 0.27605 0.63168 0.0
H1531 H 0.90011 0.34118 0.64634 0.0
H1532 H 0.93808 0.36139 0.64264 0.0
H1533 H 0.04186 0.41028 0.55014 0.0
H1534 H 0.03338 0.37513 0.573 0.0
H1535 H 0.97774 0.41099 0.61084 0.0
H1536 H 0.98576 0.44612 0.58768 0.0
H1537 H 0.96775 0.36455 0.60413 0.0
H1538 H 0.03237 0.41163 0.63358 0.0
H1539 H 0.07024 0.43195 0.62966 0.0
H1540 H 0.10443 0.3678 0.61102 0.0
H1541 H 0.06666 0.34715 0.61455 0.0
C1542 C 0.98142 0.30992 0.70645 0.0
C1543 C 0.00085 0.29582 0.71187 0.0
C1544 C 0.98069 0.32243 0.68492 0.0
C1545 C -0.00102 0.32031 0.66797 0.0
C1546 C 0.01757 0.3048 0.67279 0.0
C1547 C 0.01853 0.29271 0.69457 0.0
C1548 C 0.00046 0.33648 0.64708 0.0
C1549 C 0.02185 0.348 0.64325 0.0
C1550 C 0.98078 0.3423 0.63251 0.0
C1551 C 0.958 0.33017 0.63475 0.0
C1552 C 0.95671 0.30601 0.63174 0.0
C1553 C 0.93516 0.29466 0.63401 0.0
C1554 C 0.91478 0.30734 0.63925 0.0
C1555 C 0.91591 0.33138 0.64227 0.0
C1556 C 0.93742 0.34278 0.64003 0.0
C1557 C 0.02745 0.41054 0.56291 0.0
C1558 C 0.01484 0.43111 0.56755 0.0
C1559 C 0.02262 0.39044 0.57593 0.0
C1560 C 0.00534 0.39069 0.59399 0.0
C1561 C 0.99127 0.41052 0.59707 0.0
C1562 C -0.00405 0.43062 0.5839 0.0
C1563 C 0.00413 0.37161 0.61176 0.0
C1564 C 0.98282 0.35996 0.61519 0.0
C1565 C 0.02391 0.36551 0.62595 0.0
C1566 C 0.04666 0.3779 0.62406 0.0
C1567 C 0.04793 0.40189 0.62849 0.0
C1568 C 0.06938 0.41346 0.62636 0.0
C1569 C 0.08972 0.40119 0.62003 0.0
C1570 C 0.08866 0.3773 0.61588 0.0
C1571 C 0.06724 0.36565 0.61796 0.0
H1572 H 0.1063 0.41017 0.61838 0.0
H1573 H 0.8981 0.29853 0.64098 0.0
H1574 H 0.74632 0.0113 0.73719 0.0
H1575 H 0.71487 0.00673 0.70754 0.0
H1576 H 0.69383 0.07802 0.71919 0.0
H1577 H 0.72645 0.08266 0.74819 0.0
H1578 H 0.67068 0.00867 0.70412 0.0
H1579 H 0.67617 0.10133 0.66653 0.0
H1580 H 0.70405 0.13397 0.66495 0.0
H1581 H 0.76214 0.08626 0.66959 0.0
H1582 H 0.7346 0.05337 0.67094 0.0
H1583 H 0.58439 0.02057 0.61372 0.0
H1584 H 0.60989 0.02529 0.64877 0.0
H1585 H 0.66964 0.0337 0.6015 0.0
H1586 H 0.64352 0.03026 0.56615 0.0
H1587 H 0.67232 0.06359 0.63528 0.0
H1588 H 0.65816 0.98156 0.63543 0.0
H1589 H 0.63493 0.94554 0.63525 0.0
H1590 H 0.6013 0.9661 0.70134 0.0
H1591 H 0.62407 0.0024 0.70172 0.0
C1592 C 0.73466 0.0258 0.73352 0.0
C1593 C 0.73871 0.04737 0.74435 0.0
C1594 C 0.71669 0.02322 0.71675 0.0
C1595 C 0.70229 0.04217 0.71073 0.0
C1596 C 0.70514 0.06333 0.72312 0.0
C1597 C 0.72353 0.066 0.7397 0.0
C1598 C 0.6859 0.03997 0.69004 0.0
C1599 C 0.67082 0.02081 0.68919 0.0
C1600 C 0.68662 0.05539 0.6702 0.0
C1601 C 0.70333 0.07498 0.66907 0.0
C1602 C 0.69489 0.09784 0.66713 0.0
C1603 C 0.71063 0.11637 0.66629 0.0
C1604 C 0.73484 0.1122 0.66723 0.0
C1605 C 0.74338 0.08948 0.66892 0.0
C1606 C 0.72772 0.07089 0.66974 0.0
C1607 C 0.60302 0.0234 0.61091 0.0
C1608 C 0.61221 0.02501 0.58749 0.0
C1609 C 0.61759 0.02589 0.6309 0.0
C1610 C 0.64178 0.02934 0.62784 0.0
C1611 C 0.65101 0.03096 0.60429 0.0
C1612 C 0.63623 0.02897 0.58416 0.0
C1613 C 0.65716 0.03215 0.64925 0.0
C1614 C 0.67194 0.05152 0.6503 0.0
C1615 C 0.65673 0.01644 0.66893 0.0
C1616 C 0.64271 0.99478 0.6685 0.0
C1617 C 0.64567 0.97849 0.64981 0.0
C1618 C 0.6326 0.958 0.64969 0.0
C1619 C 0.61662 0.95355 0.66824 0.0
C1620 C 0.61368 0.96957 0.68697 0.0
C1621 C 0.62667 0.99009 0.68716 0.0
H1622 H 0.60654 0.93768 0.66813 0.0
H1623 H 0.74699 0.12657 0.66661 0.0
H1624 H 0.98631 0.30271 0.31184 0.0
H1625 H 0.98423 0.33827 0.33524 0.0
H1626 H 0.04485 0.36443 0.29709 0.0
H1627 H 0.04906 0.32697 0.27673 0.0
H1628 H 0.05221 0.37478 0.33811 0.0
H1629 H 0.98236 0.38661 0.29323 0.0
H1630 H 0.94398 0.37798 0.27462 0.0
H1631 H 0.91371 0.36794 0.3448 0.0
H1632 H 0.95197 0.37615 0.36385 0.0
H1633 H 0.02866 0.4847 0.39963 0.0
H1634 H 0.03146 0.45514 0.36778 0.0
H1635 H -0.00034 0.40504 0.41517 0.0
H1636 H -0.0028 0.43416 0.44715 0.0
H1637 H 0.97818 0.41209 0.36561 0.0
H1638 H 0.05386 0.39931 0.4074 0.0
H1639 H 0.09099 0.41609 0.42228 0.0
H1640 H 0.1091 0.43649 0.35014 0.0
H1641 H 0.07187 0.42018 0.3349 0.0
C1642 C -0.00072 0.316 0.30867 0.0
C1643 C 0.01827 0.31183 0.29313 0.0
C1644 C -0.00224 0.33672 0.32162 0.0
C1645 C 0.01427 0.3545 0.31799 0.0
C1646 C 0.03201 0.35106 0.30062 0.0
C1647 C 0.0342 0.32979 0.2886 0.0
C1648 C 0.01433 0.37548 0.33391 0.0
C1649 C 0.03593 0.38311 0.34355 0.0
C1650 C 0.99327 0.38677 0.34134 0.0
C1651 C 0.97013 0.38189 0.32996 0.0
C1652 C 0.96756 0.38243 0.3047 0.0
C1653 C 0.94581 0.37762 0.29407 0.0
C1654 C 0.92643 0.37239 0.30852 0.0
C1655 C 0.92874 0.372 0.33363 0.0
C1656 C 0.95045 0.37677 0.34436 0.0
C1657 C 0.02263 0.46728 0.40337 0.0
C1658 C 0.01269 0.46176 0.42588 0.0
C1659 C 0.02413 0.4505 0.38515 0.0
C1660 C 0.01548 0.42808 0.38913 0.0
C1661 C 0.00623 0.42234 0.41177 0.0
C1662 C 0.00506 0.43895 0.43008 0.0
C1663 C 0.01572 0.41053 0.36967 0.0
C1664 C 0.99425 0.4037 0.35957 0.0
C1665 C 0.03685 0.40068 0.36108 0.0
C1666 C 0.06002 0.40869 0.37004 0.0
C1667 C 0.06576 0.40737 0.39472 0.0
C1668 C 0.08679 0.41686 0.40322 0.0
C1669 C 0.10231 0.42748 0.38716 0.0
C1670 C 0.09702 0.42832 0.36254 0.0
C1671 C 0.07598 0.41893 0.35396 0.0
H1672 H 0.11847 0.43503 0.39376 0.0
H1673 H 0.90961 0.36866 0.30025 0.0
H1674 H 0.71409 0.05368 0.26769 0.0
H1675 H 0.67856 0.05114 0.29214 0.0
H1676 H 0.67357 0.9782 0.27525 0.0
H1677 H 0.70912 0.98116 0.24992 0.0
H1678 H 0.63313 0.03868 0.28638 0.0
H1679 H 0.66374 0.95194 0.32201 0.0
H1680 H 0.70061 0.9297 0.32777 0.0
H1681 H 0.73802 0.99296 0.34117 0.0
H1682 H 0.70141 0.01549 0.33527 0.0
H1683 H 0.55108 0.00417 0.37997 0.0
H1684 H 0.57678 0.00182 0.34425 0.0
H1685 H 0.63334 0.03235 0.38524 0.0
H1686 H 0.60736 0.03596 0.42035 0.0
H1687 H 0.64421 0.98922 0.3589 0.0
H1688 H 0.61396 0.06629 0.35144 0.0
H1689 H 0.58337 0.09672 0.34984 0.0
H1690 H 0.55328 0.06464 0.28706 0.0
H1691 H 0.58356 0.03378 0.28853 0.0
C1692 C 0.70465 0.03743 0.26835 0.0
C1693 C 0.71359 0.01777 0.25659 0.0
C1694 C 0.68454 0.03593 0.28235 0.0
C1695 C 0.67338 0.01454 0.28523 0.0
C1696 C 0.68193 0.99488 0.27297 0.0
C1697 C 0.70201 0.99652 0.25857 0.0
C1698 C 0.65479 0.01265 0.30354 0.0
C1699 C 0.63517 0.02745 0.30196 0.0
C1700 C 0.65813 0.99879 0.32427 0.0
C1701 C 0.67997 0.98529 0.32816 0.0
C1702 C 0.67985 0.96102 0.32627 0.0
C1703 C 0.70069 0.9484 0.32947 0.0
C1704 C 0.72165 0.95991 0.33482 0.0
C1705 C 0.72181 0.98407 0.33698 0.0
C1706 C 0.70105 0.99676 0.33363 0.0
C1707 C 0.56897 0.01045 0.3811 0.0
C1708 C 0.5775 0.02029 0.40248 0.0
C1709 C 0.58352 0.00911 0.3609 0.0
C1710 C 0.60683 0.01673 0.36244 0.0
C1711 C 0.61538 0.02626 0.38397 0.0
C1712 C 0.60064 0.02836 0.40383 0.0
C1713 C 0.62243 0.01498 0.34154 0.0
C1714 C 0.64157 0.99966 0.34282 0.0
C1715 C 0.61924 0.02925 0.32111 0.0
C1716 C 0.60078 0.04752 0.32031 0.0
C1717 C 0.60063 0.06554 0.33749 0.0
C1718 C 0.58341 0.08292 0.33656 0.0
C1719 C 0.56633 0.08257 0.31841 0.0
C1720 C 0.56648 0.06485 0.30115 0.0
C1721 C 0.58367 0.04741 0.30202 0.0
H1722 H 0.55305 0.09608 0.31766 0.0
H1723 H 0.73775 0.95012 0.33732 0.0
H1724 H 0.05809 0.74652 0.30711 0.0
H1725 H 0.06192 0.72351 0.34445 0.0
H1726 H 0.9909 0.69894 0.33484 0.0
H1727 H 0.98723 0.72213 0.29811 0.0
H1728 H 0.00044 0.70389 0.38158 0.0
H1729 H 0.03875 0.67036 0.3105 0.0
H1730 H 0.06798 0.67028 0.27762 0.0
H1731 H 0.12389 0.67502 0.32956 0.0
H1732 H 0.09491 0.67547 0.36275 0.0
H1733 H 0.98124 0.59059 0.4094 0.0
H1734 H 0.99155 0.62469 0.38584 0.0
H1735 H 0.05764 0.62947 0.42377 0.0
H1736 H 0.04734 0.59492 0.44743 0.0
H1737 H 0.05914 0.64044 0.37226 0.0
H1738 H 0.01694 0.6625 0.44358 0.0
H1739 H 0.98508 0.65883 0.47349 0.0
H1740 H 0.93378 0.67314 0.4185 0.0
H1741 H 0.96527 0.67648 0.38815 0.0
C1742 C 0.04321 0.7367 0.31361 0.0
C1743 C 0.02248 0.73566 0.29996 0.0
C1744 C 0.04539 0.72354 0.33473 0.0
C1745 C 0.02682 0.70921 0.34218 0.0
C1746 C 0.00546 0.70982 0.32947 0.0
C1747 C 0.00334 0.72293 0.3085 0.0
C1748 C 0.03007 0.69135 0.36111 0.0
C1749 C 0.01344 0.69016 0.37974 0.0
C1750 C 0.04733 0.67364 0.35896 0.0
C1751 C 0.0647 0.67326 0.33905 0.0
C1752 C 0.05728 0.67155 0.31488 0.0
C1753 C 0.07378 0.67143 0.2962 0.0
C1754 C 0.09777 0.67273 0.30149 0.0
C1755 C 0.1053 0.67409 0.32549 0.0
C1756 C 0.08885 0.67429 0.34424 0.0
C1757 C -0.00179 0.59857 0.41236 0.0
C1758 C 0.01348 0.59024 0.43032 0.0
C1759 C 0.00403 0.61809 0.39898 0.0
C1760 C 0.02506 0.62987 0.40355 0.0
C1761 C 0.04123 0.62064 0.42017 0.0
C1762 C 0.03544 0.60085 0.43354 0.0
C1763 C 0.02888 0.65259 0.39195 0.0
C1764 C 0.04678 0.65465 0.37476 0.0
C1765 C 0.01252 0.67093 0.39515 0.0
C1766 C 0.99352 0.66972 0.41356 0.0
C1767 C -0.00114 0.6648 0.43784 0.0
C1768 C 0.98086 0.66275 0.45487 0.0
C1769 C 0.95742 0.66575 0.44791 0.0
C1770 C 0.95195 0.67086 0.42389 0.0
C1771 C 0.96988 0.67287 0.40676 0.0
H1772 H 0.94351 0.66411 0.46112 0.0
H1773 H 0.11053 0.67261 0.28701 0.0
H1774 H 0.30179 0.05064 0.26151 0.0
H1775 H 0.33006 0.05056 0.29525 0.0
H1776 H 0.32134 0.97666 0.30286 0.0
H1777 H 0.29398 0.97673 0.26846 0.0
H1778 H 0.30863 0.01374 0.34498 0.0
H1779 H 0.36686 0.97957 0.29382 0.0
H1780 H 0.39068 0.97569 0.25689 0.0
H1781 H 0.4211 0.04257 0.2699 0.0
H1782 H 0.39703 0.04706 0.3067 0.0
H1783 H 0.39408 0.99239 0.43977 0.0
H1784 H 0.36874 0.9895 0.40416 0.0
H1785 H 0.38617 0.05965 0.38444 0.0
H1786 H 0.41114 0.06297 0.4202 0.0
H1787 H 0.39544 0.02161 0.34793 0.0
H1788 H 0.33578 0.05436 0.40043 0.0
H1789 H 0.31232 0.05572 0.4378 0.0
H1790 H 0.28521 0.98784 0.42265 0.0
H1791 H 0.30885 0.98592 0.38534 0.0
C1792 C 0.30686 0.03437 0.26979 0.0
C1793 C 0.2963 0.01364 0.26246 0.0
C1794 C 0.32275 0.0343 0.28903 0.0
C1795 C 0.32769 0.01358 0.30132 0.0
C1796 C 0.31786 0.99272 0.29333 0.0
C1797 C 0.30247 0.99272 0.27375 0.0
C1798 C 0.34067 0.01435 0.32425 0.0
C1799 C 0.32764 0.01514 0.34572 0.0
C1800 C 0.36535 0.01633 0.32493 0.0
C1801 C 0.37982 0.01383 0.30279 0.0
C1802 C 0.37834 0.99362 0.28862 0.0
C1803 C 0.39196 0.99126 0.26775 0.0
C1804 C 0.40732 0.00892 0.26098 0.0
C1805 C 0.40913 0.02894 0.27512 0.0
C1806 C 0.3955 0.0314 0.29599 0.0
C1807 C 0.39201 0.00742 0.42821 0.0
C1808 C 0.40474 0.02784 0.43267 0.0
C1809 C 0.37767 0.00568 0.40785 0.0
C1810 C 0.37605 0.02424 0.39162 0.0
C1811 C 0.38752 0.0451 0.39674 0.0
C1812 C 0.40155 0.04702 0.41731 0.0
C1813 C 0.36335 0.02139 0.36865 0.0
C1814 C 0.37644 0.02017 0.34719 0.0
C1815 C 0.33873 0.01864 0.368 0.0
C1816 C 0.32425 0.0199 0.39022 0.0
C1817 C 0.32497 0.03964 0.40516 0.0
C1818 C 0.31161 0.04053 0.42632 0.0
C1819 C 0.29732 0.02185 0.43263 0.0
C1820 C 0.29631 0.00228 0.41775 0.0
C1821 C 0.30967 0.00129 0.39659 0.0
H1822 H 0.28699 0.02257 0.44902 0.0
H1823 H 0.41787 0.00706 0.24484 0.0
H1824 H 0.06781 0.24295 0.32068 0.0
H1825 H 0.07114 0.2073 0.34393 0.0
H1826 H 0.0242 0.17337 0.29373 0.0
H1827 H 0.01824 0.21036 0.27287 0.0
H1828 H 0.00978 0.16295 0.33249 0.0
H1829 H 0.09021 0.16056 0.30573 0.0
H1830 H 0.1301 0.17565 0.29849 0.0
H1831 H 0.13889 0.18796 0.37445 0.0
H1832 H 0.099 0.17318 0.38213 0.0
H1833 H 0.01274 0.05882 0.39532 0.0
H1834 H 0.02524 0.08585 0.36384 0.0
H1835 H 0.05458 0.13083 0.41832 0.0
H1836 H 0.04285 0.10316 0.44981 0.0
H1837 H 0.07989 0.13244 0.37548 0.0
H1838 H -0.00232 0.13771 0.40003 0.0
H1839 H 0.95836 0.12103 0.40678 0.0
H1840 H 0.95438 0.10132 0.33207 0.0
H1841 H 0.9938 0.11765 0.32497 0.0
C1842 C 0.05854 0.22768 0.3145 0.0
C1843 C 0.04255 0.22941 0.29526 0.0
C1844 C 0.06069 0.20707 0.3276 0.0
C1845 C 0.04815 0.18714 0.32069 0.0
C1846 C 0.03393 0.18839 0.29983 0.0
C1847 C 0.03078 0.20941 0.28757 0.0
C1848 C 0.04741 0.16616 0.33669 0.0
C1849 C 0.02538 0.15604 0.34121 0.0
C1850 C 0.06744 0.15722 0.34906 0.0
C1851 C 0.09155 0.16586 0.34447 0.0
C1852 C 0.10062 0.16657 0.32087 0.0
C1853 C 0.12324 0.17506 0.3167 0.0
C1854 C 0.137 0.18279 0.33599 0.0
C1855 C 0.12822 0.18196 0.35952 0.0
C1856 C 0.10563 0.17348 0.3638 0.0
C1857 C 0.0226 0.0741 0.40042 0.0
C1858 C 0.0269 0.07903 0.42482 0.0
C1859 C 0.0296 0.08959 0.38249 0.0
C1860 C 0.04033 0.11065 0.38876 0.0
C1861 C 0.04626 0.11473 0.41306 0.0
C1862 C 0.03961 0.09896 0.43102 0.0
C1863 C 0.04255 0.12947 0.37055 0.0
C1864 C 0.06464 0.13924 0.36602 0.0
C1865 C 0.0227 0.13794 0.35783 0.0
C1866 C -0.00126 0.12873 0.36201 0.0
C1867 C 0.98844 0.12976 0.38507 0.0
C1868 C 0.96614 0.12036 0.38896 0.0
C1869 C 0.95391 0.11007 0.36988 0.0
C1870 C 0.96389 0.10927 0.34684 0.0
C1871 C 0.98618 0.11861 0.34287 0.0
H1872 H 0.93667 0.10276 0.37293 0.0
H1873 H 0.15449 0.18939 0.33271 0.0
H1874 H 0.76895 0.05583 0.29101 0.0
H1875 H 0.79883 0.05925 0.32214 0.0
H1876 H 0.85069 0.03149 0.27275 0.0
H1877 H 0.81966 0.02573 0.24243 0.0
H1878 H 0.85261 0.00822 0.3102 0.0
H1879 H 0.84953 0.09144 0.30014 0.0
H1880 H 0.83041 0.12985 0.29718 0.0
H1881 H 0.80155 0.12159 0.36825 0.0
H1882 H 0.82022 0.08304 0.37152 0.0
H1883 H 0.94475 0.01392 0.39325 0.0
H1884 H 0.91837 0.02102 0.35943 0.0
H1885 H 0.86388 0.04276 0.40897 0.0
H1886 H 0.89126 0.03714 0.44307 0.0
H1887 H 0.86434 0.06993 0.37141 0.0
H1888 H 0.8654 0.98675 0.38086 0.0
H1889 H 0.88442 0.94837 0.38478 0.0
H1890 H 0.9166 0.95668 0.31525 0.0
H1891 H 0.898 0.99521 0.31102 0.0
C1892 C 0.78694 0.05114 0.28669 0.0
C1893 C 0.79217 0.0403 0.26464 0.0
C1894 C 0.80412 0.05331 0.30441 0.0
C1895 C 0.82723 0.04582 0.2999 0.0
C1896 C 0.83297 0.03727 0.27676 0.0
C1897 C 0.81543 0.03424 0.25932 0.0
C1898 C 0.84419 0.04351 0.3202 0.0
C1899 C 0.85556 0.022 0.32319 0.0
C1900 C 0.84728 0.061 0.33796 0.0
C1901 C 0.8362 0.08429 0.33601 0.0
C1902 C 0.83901 0.09776 0.31508 0.0
C1903 C 0.82826 0.11957 0.31336 0.0
C1904 C 0.81475 0.12814 0.33249 0.0
C1905 C 0.81201 0.11495 0.35343 0.0
C1906 C 0.82271 0.09314 0.35525 0.0
C1907 C 0.92707 0.0201 0.39688 0.0
C1908 C 0.9197 0.02464 0.42057 0.0
C1909 C 0.91199 0.02404 0.37759 0.0
C1910 C 0.88892 0.03172 0.3817 0.0
C1911 C 0.88158 0.0366 0.40546 0.0
C1912 C 0.89704 0.03331 0.42485 0.0
C1913 C 0.87276 0.03489 0.36101 0.0
C1914 C 0.86149 0.05638 0.35812 0.0
C1915 C 0.86964 0.01738 0.34336 0.0
C1916 C 0.8804 0.99394 0.34569 0.0
C1917 C 0.87659 0.98043 0.36644 0.0
C1918 C 0.88731 0.95864 0.36872 0.0
C1919 C 0.90174 0.95011 0.3503 0.0
C1920 C 0.90542 0.9633 0.32951 0.0
C1921 C 0.89476 0.9851 0.32714 0.0
H1922 H 0.91005 0.93327 0.35212 0.0
H1923 H 0.80644 0.14502 0.33111 0.0
H1924 H 0.99039 0.77494 0.3049 0.0
H1925 H 0.99064 0.80679 0.33432 0.0
H1926 H 0.0535 0.83397 0.3015 0.0
H1927 H 0.05329 0.80174 0.27218 0.0
H1928 H 0.05517 0.83304 0.35252 0.0
H1929 H 0.00292 0.85925 0.28954 0.0
H1930 H 0.96916 0.85624 0.26176 0.0
H1931 H 0.92221 0.85032 0.3221 0.0
H1932 H 0.95575 0.85291 0.35024 0.0
H1933 H 0.04588 0.94645 0.40769 0.0
H1934 H 0.05122 0.91298 0.38085 0.0
H1935 H 0.98525 0.88499 0.40508 0.0
H1936 H 0.97994 0.91781 0.43222 0.0
H1937 H 0.98687 0.88665 0.35767 0.0
H1938 H 0.0374 0.86254 0.42114 0.0
H1939 H 0.07025 0.86351 0.45009 0.0
H1940 H 0.11971 0.8618 0.39164 0.0
H1941 H 0.08719 0.86244 0.36221 0.0
C1942 C 0.00426 0.78772 0.30413 0.0
C1943 C 0.02181 0.78611 0.28644 0.0
C1944 C 0.00437 0.80589 0.3208 0.0
C1945 C 0.02203 0.8228 0.31999 0.0
C1946 C 0.03974 0.82108 0.30241 0.0
C1947 C 0.03953 0.8029 0.28562 0.0
C1948 C 0.02164 0.84243 0.33732 0.0
C1949 C 0.04048 0.84509 0.35347 0.0
C1950 C 0.00208 0.85758 0.33891 0.0
C1951 C 0.98189 0.85606 0.32199 0.0
C1952 C 0.98543 0.8571 0.29688 0.0
C1953 C 0.96632 0.85551 0.28107 0.0
C1954 C 0.94356 0.85304 0.29016 0.0
C1955 C 0.93985 0.85221 0.31508 0.0
C1956 C 0.9589 0.85375 0.33097 0.0
C1957 C 0.03277 0.93289 0.40769 0.0
C1958 C 0.01243 0.93487 0.42201 0.0
C1959 C 0.03589 0.91377 0.39238 0.0
C1960 C 0.01872 0.89639 0.39113 0.0
C1961 C -0.00117 0.89803 0.40598 0.0
C1962 C 0.99582 0.91689 0.42146 0.0
C1963 C 0.02041 0.87737 0.37314 0.0
C1964 C 0.00174 0.87479 0.35677 0.0
C1965 C 0.04006 0.86221 0.37162 0.0
C1966 C 0.05973 0.86295 0.38936 0.0
C1967 C 0.05524 0.863 0.41437 0.0
C1968 C 0.07384 0.8633 0.4309 0.0
C1969 C 0.09706 0.863 0.42271 0.0
C1970 C 0.10171 0.8624 0.39796 0.0
C1971 C 0.0832 0.8626 0.38133 0.0
H1972 H 0.11143 0.86306 0.43554 0.0
H1973 H 0.92879 0.85182 0.27789 0.0
H1974 H 0.19579 0.02048 0.22642 0.0
H1975 H 0.15957 0.01471 0.24977 0.0
H1976 H 0.19697 0.96694 0.29636 0.0
H1977 H 0.23166 0.97075 0.27128 0.0
H1978 H 0.15718 0.95662 0.3018 0.0
H1979 H 0.19285 0.0323 0.3056 0.0
H1980 H 0.2074 0.06957 0.28969 0.0
H1981 H 0.13832 0.08594 0.26309 0.0
H1982 H 0.12353 0.0486 0.27859 0.0
H1983 H 0.11873 0.98833 0.41853 0.0
H1984 H 0.14087 0.98362 0.38109 0.0
H1985 H 0.08552 0.01884 0.34192 0.0
H1986 H 0.06428 0.02529 0.38002 0.0
H1987 H 0.12682 0.03334 0.32819 0.0
H1988 H 0.09582 0.95441 0.34372 0.0
H1989 H 0.09236 0.92169 0.37225 0.0
H1990 H 0.16752 0.91542 0.37544 0.0
H1991 H 0.17149 0.94812 0.34716 0.0
C1992 C 0.19559 0.00778 0.24081 0.0
C1993 C 0.21629 0.99617 0.24738 0.0
C1994 C 0.17515 0.00486 0.25453 0.0
C1995 C 0.17573 0.99132 0.27571 0.0
C1996 C 0.19579 0.97769 0.28038 0.0
C1997 C 0.21571 0.97979 0.26602 0.0
C1998 C 0.15722 0.99343 0.29467 0.0
C1999 C 0.15053 0.97345 0.30743 0.0
C2000 C 0.14846 0.01531 0.30245 0.0
C2001 C 0.15726 0.03754 0.29276 0.0
C2002 C 0.18089 0.04377 0.29609 0.0
C2003 C 0.18915 0.0649 0.28721 0.0
C2004 C 0.17382 0.08005 0.27525 0.0
C2005 C 0.15019 0.07413 0.27224 0.0
C2006 C 0.14187 0.05299 0.28104 0.0
C2007 C 0.11136 0.99501 0.40185 0.0
C2008 C 0.08986 0.00697 0.40186 0.0
C2009 C 0.12384 0.99208 0.38044 0.0
C2010 C 0.11443 1.00003 0.35848 0.0
C2011 C 0.09294 0.01224 0.35859 0.0
C2012 C 0.08084 0.01593 0.38023 0.0
C2013 C 0.12758 0.99672 0.33561 0.0
C2014 C 0.133 0.01648 0.32207 0.0
C2015 C 0.13666 0.97487 0.32831 0.0
C2016 C 0.13392 0.95373 0.3433 0.0
C2017 C 0.11158 0.9459 0.35032 0.0
C2018 C 0.10955 0.92742 0.36653 0.0
C2019 C 0.1297 0.91659 0.37569 0.0
C2020 C 0.15193 0.92384 0.36832 0.0
C2021 C 0.15408 0.94228 0.35214 0.0
H2022 H 0.12815 0.90271 0.38865 0.0
H2023 H 0.18023 0.09642 0.26842 0.0
H2024 H 0.97951 0.82542 0.74825 0.0
H2025 H 0.98481 0.85996 0.72304 0.0
H2026 H 0.02182 0.81807 0.67036 0.0
H2027 H 0.01978 0.78504 0.69739 0.0
H2028 H 0.03709 0.85492 0.66355 0.0
H2029 H 0.95548 0.83388 0.67346 0.0
H2030 H 0.9182 0.8271 0.69503 0.0
H2031 H 0.91747 0.89786 0.71939 0.0
H2032 H 0.9549 0.90496 0.6983 0.0
H2033 H 0.01517 0.92702 0.56434 0.0
H2034 H 0.00545 0.89423 0.59057 0.0
H2035 H 0.99505 0.94128 0.65028 0.0
H2036 H 0.00314 0.97409 0.62395 0.0
H2037 H 0.9649 0.90209 0.65137 0.0
H2038 H 0.05093 0.91852 0.64118 0.0
H2039 H 0.08151 0.92546 0.61041 0.0
H2040 H 0.06635 0.85969 0.57756 0.0
H2041 H 0.03594 0.85228 0.60833 0.0
C2042 C 0.98974 0.82407 0.73183 0.0
C2043 C -0.00092 0.80263 0.72457 0.0
C2044 C 0.9922 0.84362 0.717 0.0
C2045 C 0.00261 0.8416 0.69395 0.0
C2046 C 0.01347 0.82044 0.68776 0.0
C2047 C 0.01226 0.80143 0.70319 0.0
C2048 C 0.00133 0.86075 0.67572 0.0
C2049 C 0.02108 0.86491 0.66098 0.0
C2050 C 0.98059 0.87419 0.67178 0.0
C2051 C 0.95816 0.86984 0.6846 0.0
C2052 C 0.94745 0.84793 0.68357 0.0
C2053 C 0.92629 0.84404 0.69571 0.0
C2054 C 0.91553 0.86201 0.70866 0.0
C2055 C 0.92586 0.88393 0.70944 0.0
C2056 C 0.94706 0.88789 0.69743 0.0
C2057 C 0.01013 0.93038 0.58289 0.0
C2058 C 0.01038 0.95304 0.59225 0.0
C2059 C 0.00461 0.91166 0.59784 0.0
C2060 C 2e-05 0.91533 0.62249 0.0
C2061 C -0.00155 0.93807 0.63132 0.0
C2062 C 0.00329 0.95681 0.61625 0.0
C2063 C 0.00034 0.89579 0.63984 0.0
C2064 C 0.98065 0.89182 0.6543 0.0
C2065 C 0.02066 0.88195 0.64298 0.0
C2066 C 0.04137 0.88479 0.62711 0.0
C2067 C 0.05453 0.90535 0.62769 0.0
C2068 C 0.07171 0.90942 0.61018 0.0
C2069 C 0.07584 0.89305 0.59203 0.0
C2070 C 0.06319 0.87232 0.59168 0.0
C2071 C 0.04613 0.86809 0.60926 0.0
H2072 H 0.08879 0.89647 0.57819 0.0
H2073 H 0.89914 0.85897 0.71802 0.0
H2074 H 0.24104 0.03645 0.74294 0.0
H2075 H 0.21512 0.04548 0.70898 0.0
H2076 H 0.17568 0.98325 0.72332 0.0
H2077 H 0.20233 0.97399 0.75672 0.0
H2078 H 0.20049 0.98155 0.68151 0.0
H2079 H 0.14959 0.03812 0.72128 0.0
H2080 H 0.14186 0.07399 0.74435 0.0
H2081 H 0.17636 0.11404 0.68965 0.0
H2082 H 0.18454 0.0784 0.6664 0.0
H2083 H 0.11457 0.97695 0.59198 0.0
H2084 H 0.14231 0.977 0.6252 0.0
H2085 H 0.16781 0.04408 0.60288 0.0
H2086 H 0.13908 0.04461 0.57004 0.0
H2087 H 0.15505 0.04698 0.64671 0.0
H2088 H 0.20295 0.99362 0.60481 0.0
H2089 H 0.21469 0.95929 0.58108 0.0
H2090 H 0.19212 0.91469 0.63848 0.0
H2091 H 0.17938 0.94862 0.66217 0.0
C2092 C 0.22585 0.02563 0.73972 0.0
C2093 C 0.22354 0.00451 0.75204 0.0
C2094 C 0.21114 0.03068 0.72025 0.0
C2095 C 0.19376 0.01479 0.71342 0.0
C2096 C 0.18915 0.99561 0.72827 0.0
C2097 C 0.2041 0.99043 0.74748 0.0
C2098 C 0.18468 0.01493 0.68844 0.0
C2099 C 0.19007 0.99561 0.67397 0.0
C2100 C 0.1729 0.03414 0.6782 0.0
C2101 C 0.16785 0.05555 0.6922 0.0
C2102 C 0.15569 0.05455 0.71427 0.0
C2103 C 0.15119 0.07486 0.72736 0.0
C2104 C 0.15866 0.09627 0.71851 0.0
C2105 C 0.17059 0.09745 0.6965 0.0
C2106 C 0.17513 0.0772 0.68335 0.0
C2107 C 0.1266 0.99138 0.59357 0.0
C2108 C 0.12429 0.01101 0.57877 0.0
C2109 C 0.1426 0.99136 0.61261 0.0
C2110 C 0.15704 0.01066 0.61672 0.0
C2111 C 0.1566 0.02915 0.60025 0.0
C2112 C 0.14027 0.02937 0.58142 0.0
C2113 C 0.16963 0.01288 0.64002 0.0
C2114 C 0.16537 0.0328 0.65412 0.0
C2115 C 0.18295 0.99437 0.64981 0.0
C2116 C 0.19003 0.97377 0.63525 0.0
C2117 C 0.20015 0.9765 0.61225 0.0
C2118 C 0.20697 0.95707 0.59878 0.0
C2119 C 0.20403 0.9348 0.60819 0.0
C2120 C 0.19424 0.93192 0.6311 0.0
C2121 C 0.18718 0.95126 0.64456 0.0
H2122 H 0.20943 0.91979 0.59778 0.0
H2123 H 0.15517 0.11197 0.72867 0.0
H2124 H 0.0473 0.23939 0.72977 0.0
H2125 H 0.04718 0.20832 0.69919 0.0
H2126 H 0.97269 0.21838 0.68872 0.0
H2127 H 0.97302 0.24984 0.71891 0.0
H2128 H 0.9927 0.16791 0.69451 0.0
H2129 H 0.99531 0.23688 0.64448 0.0
H2130 H 0.00938 0.275 0.63064 0.0
H2131 H 0.07993 0.24847 0.62658 0.0
H2132 H 0.06615 0.20998 0.63984 0.0
H2133 H 0.99324 0.09662 0.58638 0.0
H2134 H 0.98389 0.12753 0.61557 0.0
H2135 H 0.05752 0.14465 0.62035 0.0
H2136 H 0.06685 0.11442 0.59127 0.0
H2137 H 0.03213 0.1827 0.61621 0.0
H2138 H 0.02901 0.11277 0.66412 0.0
H2139 H 0.01479 0.07437 0.67692 0.0
H2140 H 0.94519 0.10217 0.68621 0.0
H2141 H 0.95894 0.14071 0.67311 0.0
C2142 C 0.03091 0.2346 0.72119 0.0
C2143 C 0.01012 0.24663 0.72675 0.0
C2144 C 0.03085 0.21706 0.70368 0.0
C2145 C 0.00991 0.21108 0.69176 0.0
C2146 C 0.98898 0.22268 0.6978 0.0
C2147 C 0.98916 0.24052 0.71498 0.0
C2148 C 0.01021 0.19321 0.67248 0.0
C2149 C 0.00094 0.17116 0.67719 0.0
C2150 C 0.02118 0.19742 0.65009 0.0
C2151 C 0.02976 0.22071 0.6434 0.0
C2152 C 0.01385 0.23926 0.64087 0.0
C2153 C 0.02174 0.26087 0.63296 0.0
C2154 C 0.04555 0.26422 0.62791 0.0
C2155 C 0.06151 0.24588 0.63057 0.0
C2156 C 0.05365 0.22413 0.63813 0.0
C2157 C 0.00737 0.1071 0.5936 0.0
C2158 C 0.0308 0.10302 0.58651 0.0
C2159 C 0.00203 0.12463 0.61039 0.0
C2160 C 0.02004 0.1383 0.62036 0.0
C2161 C 0.04331 0.13439 0.61295 0.0
C2162 C 0.04862 0.11702 0.59628 0.0
C2163 C 0.01515 0.15698 0.63827 0.0
C2164 C 0.02359 0.17932 0.63335 0.0
C2165 C 0.00341 0.1529 0.66043 0.0
C2166 C 0.99495 0.12956 0.66736 0.0
C2167 C 0.01061 0.11063 0.66856 0.0
C2168 C 0.00265 0.08886 0.67594 0.0
C2169 C 0.97912 0.08586 0.68237 0.0
C2170 C 0.96342 0.10455 0.68121 0.0
C2171 C 0.97128 0.12635 0.6738 0.0
H2172 H 0.97311 0.06911 0.6885 0.0
H2173 H 0.05161 0.281 0.62186 0.0
H2174 H 0.84023 0.05215 0.78003 0.0
H2175 H 0.87738 0.04229 0.75964 0.0
H2176 H 0.83943 0.99706 0.71117 0.0
H2177 H 0.80328 0.00522 0.73309 0.0
H2178 H 0.88015 0.9825 0.71141 0.0
H2179 H 0.84733 0.0602 0.7028 0.0
H2180 H 0.83469 0.09875 0.71746 0.0
H2181 H 0.90448 0.11186 0.7437 0.0
H2182 H 0.91739 0.07323 0.72946 0.0
H2183 H 0.91712 0.00785 0.59315 0.0
H2184 H 0.89747 0.00337 0.63193 0.0
H2185 H 0.95454 0.03886 0.66728 0.0
H2186 H 0.97384 0.04451 0.62819 0.0
H2187 H 0.91372 0.05599 0.68071 0.0
H2188 H 0.94508 0.97854 0.67282 0.0
H2189 H 0.95201 0.94169 0.65146 0.0
H2190 H 0.87776 0.92935 0.64827 0.0
H2191 H 0.87024 0.96644 0.66915 0.0
C2192 C 0.84028 0.03928 0.76576 0.0
C2193 C 0.81912 0.02977 0.75759 0.0
C2194 C 0.86134 0.03387 0.7539 0.0
C2195 C 0.86109 0.01976 0.7331 0.0
C2196 C 0.84025 0.00822 0.7269 0.0
C2197 C 0.81952 0.01296 0.73929 0.0
C2198 C 0.88089 0.01967 0.71557 0.0
C2199 C 0.88755 0.99857 0.70475 0.0
C2200 C 0.89088 0.04058 0.70694 0.0
C2201 C 0.88318 0.06375 0.71549 0.0
C2202 C 0.85989 0.07127 0.71187 0.0
C2203 C 0.8527 0.09312 0.72008 0.0
C2204 C 0.86875 0.1077 0.73161 0.0
C2205 C 0.89205 0.1005 0.73487 0.0
C2206 C 0.8993 0.07863 0.72677 0.0
C2207 C 0.92554 0.01465 0.6092 0.0
C2208 C 0.94694 0.02662 0.60767 0.0
C2209 C 0.91442 0.01185 0.6314 0.0
C2210 C 0.92479 0.02039 0.6526 0.0
C2211 C 0.94631 0.03213 0.65114 0.0
C2212 C 0.95724 0.03539 0.62883 0.0
C2213 C 0.91206 0.01897 0.67586 0.0
C2214 C 0.90688 0.03982 0.68779 0.0
C2215 C 0.90256 0.99795 0.68465 0.0
C2216 C 0.90712 0.97533 0.67259 0.0
C2217 C 0.93021 0.96802 0.66752 0.0
C2218 C 0.93425 0.94707 0.65548 0.0
C2219 C 0.91539 0.93311 0.64857 0.0
C2220 C 0.89238 0.94012 0.65369 0.0
C2221 C 0.88822 0.96112 0.66565 0.0
H2222 H 0.91861 0.91689 0.63925 0.0
H2223 H 0.86316 0.12462 0.73795 0.0
H2224 H 0.30784 0.03602 0.21748 0.0
H2225 H 0.34297 0.03236 0.19281 0.0
H2226 H 0.32221 0.96328 0.17183 0.0
H2227 H 0.28805 0.96612 0.19889 0.0
H2228 H 0.3683 0.96449 0.17653 0.0
H2229 H 0.3126 0.01128 0.13429 0.0
H2230 H 0.28368 0.04278 0.12827 0.0
H2231 H 0.3369 0.09344 0.14296 0.0
H2232 H 0.36607 0.06225 0.14942 0.0
H2233 H 0.43777 0.98257 0.06561 0.0
H2234 H 0.40888 0.97209 0.09637 0.0
H2235 H 0.43125 0.02971 0.14029 0.0
H2236 H 0.46026 0.04023 0.10989 0.0
H2237 H 0.38302 0.03023 0.12092 0.0
H2238 H 0.43893 0.98091 0.16243 0.0
H2239 H 0.46709 0.94831 0.16421 0.0
H2240 H 0.41208 0.90068 0.1459 0.0
H2241 H 0.38366 0.93307 0.14349 0.0
C2242 C 0.31097 0.01991 0.20792 0.0
C2243 C 0.29506 0.00152 0.20981 0.0
C2244 C 0.33089 0.01791 0.19358 0.0
C2245 C 0.33489 0.99781 0.17985 0.0
C2246 C 0.31932 0.97908 0.18203 0.0
C2247 C 0.29959 0.98085 0.1971 0.0
C2248 C 0.35499 0.99705 0.16281 0.0
C2249 C 0.37135 0.97868 0.16411 0.0
C2250 C 0.35898 0.01554 0.14651 0.0
C2251 C 0.34149 0.03439 0.14248 0.0
C2252 C 0.31811 0.02913 0.13637 0.0
C2253 C 0.30167 0.04693 0.13287 0.0
C2254 C 0.30844 0.07009 0.13527 0.0
C2255 C 0.33168 0.0755 0.14112 0.0
C2256 C 0.34818 0.05776 0.14467 0.0
C2257 C 0.43708 0.99256 0.08216 0.0
C2258 C 0.45089 0.01256 0.08508 0.0
C2259 C 0.42063 0.98647 0.09973 0.0
C2260 C 0.41789 1.00029 0.12038 0.0
C2261 C 0.43316 0.01891 0.12437 0.0
C2262 C 0.44968 0.02491 0.10694 0.0
C2263 C 0.39662 0.99824 0.13536 0.0
C2264 C 0.37989 0.01602 0.13334 0.0
C2265 C 0.3922 0.97903 0.15045 0.0
C2266 C 0.40919 0.95948 0.15249 0.0
C2267 C 0.43286 0.96352 0.15854 0.0
C2268 C 0.44888 0.94507 0.15971 0.0
C2269 C 0.4414 0.92244 0.1551 0.0
C2270 C 0.41786 0.91822 0.14942 0.0
C2271 C 0.40178 0.93662 0.14816 0.0
H2272 H 0.45383 0.90818 0.15599 0.0
H2273 H 0.29569 0.08385 0.13255 0.0
H2274 H 0.99119 0.30595 0.24801 0.0
H2275 H 0.98758 0.3325 0.21361 0.0
H2276 H 0.0602 0.31948 0.19525 0.0
H2277 H 0.06389 0.29357 0.23022 0.0
H2278 H 0.05178 0.36384 0.19265 0.0
H2279 H 0.01438 0.29698 0.16141 0.0
H2280 H 0.98704 0.26399 0.15964 0.0
H2281 H 0.92821 0.31096 0.16086 0.0
H2282 H 0.95521 0.34426 0.16302 0.0
H2283 H 0.04542 0.41775 0.07766 0.0
H2284 H 0.04608 0.38558 0.10636 0.0
H2285 H 0.98293 0.41187 0.13978 0.0
H2286 H 0.98235 0.44454 0.1114 0.0
H2287 H 0.98706 0.35956 0.13263 0.0
H2288 H 0.02758 0.42636 0.16641 0.0
H2289 H 0.0567 0.45785 0.16437 0.0
H2290 H 0.11209 0.40783 0.15454 0.0
H2291 H 0.08321 0.37604 0.15614 0.0
C2292 C 0.0063 0.30876 0.23651 0.0
C2293 C 0.02772 0.29755 0.24152 0.0
C2294 C 0.00421 0.32376 0.21676 0.0
C2295 C 0.02351 0.32778 0.20151 0.0
C2296 C 0.04499 0.31658 0.20659 0.0
C2297 C 0.04706 0.3016 0.2264 0.0
C2298 C 0.02153 0.3444 0.18094 0.0
C2299 C 0.03779 0.36262 0.17939 0.0
C2300 C 0.00318 0.3431 0.1636 0.0
C2301 C 0.98684 0.32312 0.16266 0.0
C2302 C 0.99561 0.30028 0.16157 0.0
C2303 C 0.98018 0.28152 0.16044 0.0
C2304 C 0.95591 0.28537 0.16021 0.0
C2305 C 0.94702 0.308 0.16108 0.0
C2306 C 0.96238 0.32683 0.16225 0.0
C2307 C 0.03139 0.41653 0.0908 0.0
C2308 C 0.01393 0.43388 0.09237 0.0
C2309 C 0.03184 0.39811 0.10722 0.0
C2310 C 0.01467 0.39645 0.12529 0.0
C2311 C -0.00366 0.41286 0.12595 0.0
C2312 C -0.00392 0.43154 0.10977 0.0
C2313 C 0.01709 0.37886 0.14473 0.0
C2314 C 0.00098 0.36058 0.14599 0.0
C2315 C 0.03579 0.37981 0.16155 0.0
C2316 C 0.05321 0.39886 0.16114 0.0
C2317 C 0.04595 0.42209 0.16363 0.0
C2318 C 0.06241 0.43999 0.16258 0.0
C2319 C 0.08622 0.43485 0.15925 0.0
C2320 C 0.09363 0.41179 0.15708 0.0
C2321 C 0.07723 0.39382 0.15807 0.0
H2322 H 0.09894 0.44873 0.1584 0.0
H2323 H 0.94398 0.27082 0.15929 0.0
H2324 H 0.70825 0.06753 0.22702 0.0
H2325 H 0.67323 0.06801 0.20077 0.0
H2326 H 0.70211 0.01081 0.15996 0.0
H2327 H 0.73633 0.0097 0.18694 0.0
H2328 H 0.66614 0.0704 0.14823 0.0
H2329 H 0.6741 0.97617 0.16326 0.0
H2330 H 0.68024 0.94712 0.19548 0.0
H2331 H 0.63823 0.9881 0.24403 0.0
H2332 H 0.63271 0.01774 0.21237 0.0
H2333 H 0.61267 0.0188 0.05109 0.0
H2334 H 0.63662 0.03029 0.08531 0.0
H2335 H 0.57982 0.01412 0.13395 0.0
H2336 H 0.55564 0.00187 0.09947 0.0
H2337 H 0.62124 0.99667 0.15035 0.0
H2338 H 0.59401 0.07157 0.12992 0.0
H2339 H 0.58144 0.10209 0.10144 0.0
H2340 H 0.65069 0.10372 0.07099 0.0
H2341 H 0.66345 0.07259 0.09883 0.0
C2342 C 0.70717 0.05544 0.21211 0.0
C2343 C 0.72471 0.03849 0.20884 0.0
C2344 C 0.68725 0.05567 0.19723 0.0
C2345 C 0.68488 0.03904 0.17888 0.0
C2346 C 0.70338 0.02341 0.17442 0.0
C2347 C 0.72304 0.023 0.18947 0.0
C2348 C 0.66278 0.03685 0.16501 0.0
C2349 C 0.65618 0.05441 0.14884 0.0
C2350 C 0.64908 0.01653 0.16654 0.0
C2351 C 0.65316 0.99912 0.18562 0.0
C2352 C 0.66639 0.97901 0.1809 0.0
C2353 C 0.66983 0.96251 0.19907 0.0
C2354 C 0.65968 0.96577 0.22181 0.0
C2355 C 0.64622 0.98564 0.22648 0.0
C2356 C 0.64313 0.00239 0.20852 0.0
C2357 C 0.60509 0.01786 0.069 0.0
C2358 C 0.58226 0.00939 0.07256 0.0
C2359 C 0.61879 0.02458 0.08858 0.0
C2360 C 0.6099 0.02335 0.11216 0.0
C2361 C 0.58696 0.01525 0.11587 0.0
C2362 C 0.57317 0.00838 0.09617 0.0
C2363 C 0.62536 0.02969 0.13262 0.0
C2364 C 0.63075 0.01294 0.15009 0.0
C2365 C 0.63718 0.0512 0.13301 0.0
C2366 C 0.62986 0.07025 0.11674 0.0
C2367 C 0.60658 0.07852 0.11719 0.0
C2368 C 0.59937 0.09578 0.10109 0.0
C2369 C 0.61535 0.10511 0.0847 0.0
C2370 C 0.63845 0.09678 0.08397 0.0
C2371 C 0.64571 0.07937 0.09991 0.0
H2372 H 0.6098 0.11881 0.07263 0.0
H2373 H 0.66222 0.95291 0.2358 0.0
H2374 H 0.04673 0.74133 0.1988 0.0
H2375 H 0.03916 0.7182 0.16239 0.0
H2376 H 0.9669 0.70981 0.18438 0.0
H2377 H 0.97486 0.73263 0.22094 0.0
H2378 H 0.98688 0.66915 0.17688 0.0
H2379 H 0.98128 0.73939 0.13183 0.0
H2380 H 0.99326 0.77813 0.11778 0.0
H2381 H 0.05694 0.74931 0.08856 0.0
H2382 H 0.04552 0.71044 0.1027 0.0
H2383 H 0.97624 0.58971 0.07898 0.0
H2384 H 0.96777 0.62454 0.10289 0.0
H2385 H 0.03967 0.64656 0.09439 0.0
H2386 H 0.04803 0.61237 0.07023 0.0
H2387 H 0.01117 0.68297 0.09215 0.0
H2388 H 0.02126 0.61596 0.14465 0.0
H2389 H 0.01119 0.57669 0.15883 0.0
H2390 H 0.94083 0.59944 0.1745 0.0
H2391 H 0.95045 0.63883 0.16018 0.0
C2392 C 0.02906 0.73533 0.19516 0.0
C2393 C 0.01124 0.73889 0.2122 0.0
C2394 C 0.0247 0.72208 0.17447 0.0
C2395 C 0.00239 0.71231 0.17056 0.0
C2396 C 0.9842 0.7172 0.18695 0.0
C2397 C 0.98863 0.73037 0.20763 0.0
C2398 C -0.00098 0.69463 0.15132 0.0
C2399 C 0.9916 0.67238 0.1582 0.0
C2400 C 0.00564 0.69864 0.12707 0.0
C2401 C 0.01257 0.722 0.11845 0.0
C2402 C -0.00209 0.74133 0.12255 0.0
C2403 C 0.00459 0.76332 0.11454 0.0
C2404 C 0.02585 0.76619 0.10231 0.0
C2405 C 0.04047 0.74706 0.09802 0.0
C2406 C 0.03387 0.72504 0.10599 0.0
C2407 C 0.99009 0.60213 0.08186 0.0
C2408 C 0.01285 0.59804 0.07291 0.0
C2409 C 0.98527 0.62202 0.09562 0.0
C2410 C 0.00319 0.63803 0.10071 0.0
C2411 C 0.02555 0.6345 0.09074 0.0
C2412 C 0.03033 0.61477 0.07704 0.0
C2413 C -0.0004 0.65751 0.1179 0.0
C2414 C 0.00581 0.68001 0.11068 0.0
C2415 C 0.99212 0.65372 0.14193 0.0
C2416 C 0.98648 0.63023 0.15108 0.0
C2417 C 0.00361 0.61255 0.15102 0.0
C2418 C -0.00201 0.59029 0.15909 0.0
C2419 C 0.97535 0.58555 0.16747 0.0
C2420 C 0.95834 0.60312 0.16795 0.0
C2421 C 0.96387 0.62542 0.15988 0.0
H2422 H 0.971 0.56829 0.17363 0.0
H2423 H 0.03099 0.78322 0.09613 0.0
H2424 H 0.29074 0.96024 0.81523 0.0
H2425 H 0.32472 0.96311 0.84265 0.0
H2426 H 0.33786 0.03247 0.81696 0.0
H2427 H 0.30307 0.02991 0.79057 0.0
H2428 H 0.37892 0.99492 0.81838 0.0
H2429 H 0.32094 0.03774 0.86374 0.0
H2430 H 0.28184 0.04424 0.88174 0.0
H2431 H 0.29004 0.98266 0.92454 0.0
H2432 H 0.32908 0.97558 0.9064 0.0
H2433 H 0.45654 0.042 0.90651 0.0
H2434 H 0.42789 0.03244 0.87544 0.0
H2435 H 0.40322 0.97523 0.91861 0.0
H2436 H 0.43103 0.98559 0.95029 0.0
H2437 H 0.3686 0.00425 0.90684 0.0
H2438 H 0.43378 0.96926 0.8661 0.0
H2439 H 0.47386 0.96895 0.84941 0.0
H2440 H 0.45368 0.01996 0.79684 0.0
H2441 H 0.4138 0.02164 0.81406 0.0
C2442 C 0.30067 0.9762 0.81604 0.0
C2443 C 0.29453 0.99494 0.80127 0.0
C2444 C 0.32009 0.97774 0.8313 0.0
C2445 C 0.3338 0.99787 0.8314 0.0
C2446 C 0.32751 0.01674 0.8168 0.0
C2447 C 0.30769 0.01539 0.80203 0.0
C2448 C 0.35425 0.99935 0.84749 0.0
C2449 C 0.3769 0.99715 0.83772 0.0
C2450 C 0.35121 0.00189 0.87258 0.0
C2451 C 0.32772 0.00592 0.88342 0.0
C2452 C 0.31426 0.02541 0.87673 0.0
C2453 C 0.29215 0.02924 0.88701 0.0
C2454 C 0.28341 0.01381 0.90419 0.0
C2455 C 0.2968 0.99455 0.91116 0.0
C2456 C 0.31892 0.99061 0.90088 0.0
C2457 C 0.44535 0.02707 0.90919 0.0
C2458 C 0.44599 0.01447 0.93091 0.0
C2459 C 0.42909 0.02155 0.89132 0.0
C2460 C 0.41351 0.00309 0.89473 0.0
C2461 C 0.41519 0.98952 0.91567 0.0
C2462 C 0.43128 0.99524 0.93367 0.0
C2463 C 0.39369 0.99982 0.87795 0.0
C2464 C 0.37094 0.00169 0.88757 0.0
C2465 C 0.39686 0.99748 0.85268 0.0
C2466 C 0.42068 0.99574 0.8416 0.0
C2467 C 0.43789 0.98069 0.8512 0.0
C2468 C 0.46065 0.98033 0.84169 0.0
C2469 C 0.4663 0.99439 0.82205 0.0
C2470 C 0.44926 0.00902 0.81202 0.0
C2471 C 0.42658 0.00977 0.82175 0.0
H2472 H 0.48388 0.99394 0.81459 0.0
H2473 H 0.2663 0.01683 0.91217 0.0
H2474 H 0.98959 0.28451 0.81483 0.0
H2475 H 0.99179 0.30963 0.8506 0.0
H2476 H 0.05425 0.34156 0.82182 0.0
H2477 H 0.05249 0.31557 0.78679 0.0
H2478 H 0.05634 0.34411 0.86862 0.0
H2479 H -0.0014 0.36419 0.80949 0.0
H2480 H 0.96471 0.35847 0.78232 0.0
H2481 H 0.92071 0.34337 0.8432 0.0
H2482 H 0.95438 0.34901 0.87075 0.0
H2483 H 0.03405 0.46098 0.91028 0.0
H2484 H 0.04084 0.42572 0.88646 0.0
H2485 H 0.98807 0.39006 0.92791 0.0
H2486 H 0.98128 0.42509 0.95189 0.0
H2487 H 0.98161 0.38821 0.87705 0.0
H2488 H 0.04292 0.37734 0.93584 0.0
H2489 H 0.07778 0.3897 0.95853 0.0
H2490 H 0.1175 0.3935 0.89278 0.0
H2491 H 0.08252 0.38176 0.86948 0.0
C2492 C 0.00434 0.29616 0.81686 0.0
C2493 C 0.02084 0.2983 0.79826 0.0
C2494 C 0.00545 0.31074 0.83705 0.0
C2495 C 0.02274 0.32807 0.83854 0.0
C2496 C 0.04064 0.32851 0.82108 0.0
C2497 C 0.03973 0.31362 0.80114 0.0
C2498 C 0.0205 0.3474 0.85632 0.0
C2499 C 0.04002 0.35378 0.87041 0.0
C2500 C -0.0007 0.36028 0.85858 0.0
C2501 C 0.97905 0.35672 0.84213 0.0
C2502 C 0.98173 0.35947 0.81705 0.0
C2503 C 0.96257 0.35628 0.80159 0.0
C2504 C 0.94062 0.3504 0.81101 0.0
C2505 C 0.93775 0.34785 0.83593 0.0
C2506 C 0.95685 0.35108 0.85148 0.0
C2507 C 0.02414 0.44553 0.91455 0.0
C2508 C 0.00704 0.44588 0.93289 0.0
C2509 C 0.02807 0.42539 0.90096 0.0
C2510 C 0.01491 0.40531 0.90541 0.0
C2511 C -0.00163 0.4054 0.92418 0.0
C2512 C 0.99461 0.42542 0.93794 0.0
C2513 C 0.01728 0.38467 0.88953 0.0
C2514 C -0.0022 0.37825 0.87558 0.0
C2515 C 0.03874 0.37241 0.88684 0.0
C2516 C 0.06 0.37881 0.90088 0.0
C2517 C 0.059 0.38099 0.92615 0.0
C2518 C 0.07881 0.38793 0.93914 0.0
C2519 C 0.09989 0.3924 0.92714 0.0
C2520 C 0.10116 0.39 0.90207 0.0
C2521 C 0.08133 0.38322 0.88895 0.0
H2522 H 0.11525 0.39768 0.93726 0.0
H2523 H 0.92581 0.34793 0.79901 0.0
H2524 H 0.74129 0.00333 0.79642 0.0
H2525 H 0.70549 0.0008 0.82147 0.0
H2526 H 0.70255 0.07551 0.82559 0.0
H2527 H 0.73791 0.07786 0.80021 0.0
H2528 H 0.70051 0.04751 0.87152 0.0
H2529 H 0.66672 0.05354 0.7906 0.0
H2530 H 0.66216 0.03967 0.7487 0.0
H2531 H 0.63792 0.97386 0.77462 0.0
H2532 H 0.64269 0.98717 0.81667 0.0
H2533 H 0.59299 0.05163 0.93791 0.0
H2534 H 0.62408 0.06125 0.90881 0.0
H2535 H 0.6152 0.99446 0.87472 0.0
H2536 H 0.5841 0.9853 0.90261 0.0
H2537 H 0.62267 0.02196 0.8417 0.0
H2538 H 0.65764 0.00816 0.91781 0.0
H2539 H 0.67171 0.01062 0.95979 0.0
H2540 H 0.70242 0.07701 0.94499 0.0
H2541 H 0.6869 0.07583 0.90364 0.0
C2542 C 0.733 0.01905 0.80303 0.0
C2543 C 0.74226 0.04077 0.79709 0.0
C2544 C 0.71257 0.01766 0.81698 0.0
C2545 C 0.70144 0.03801 0.82514 0.0
C2546 C 0.71092 0.05967 0.81935 0.0
C2547 C 0.73105 0.06103 0.80512 0.0
C2548 C 0.68051 0.0368 0.84073 0.0
C2549 C 0.68324 0.04244 0.86511 0.0
C2550 C 0.65856 0.02901 0.83219 0.0
C2551 C 0.65521 0.02132 0.80682 0.0
C2552 C 0.66059 0.03606 0.78738 0.0
C2553 C 0.65795 0.0283 0.76359 0.0
C2554 C 0.64981 0.00589 0.75902 0.0
C2555 C 0.64422 0.99121 0.7782 0.0
C2556 C 0.64686 0.99887 0.802 0.0
C2557 C 0.59749 0.03923 0.92398 0.0
C2558 C 0.58615 0.01765 0.92279 0.0
C2559 C 0.61536 0.04465 0.90743 0.0
C2560 C 0.62226 0.02846 0.88967 0.0
C2561 C 0.61025 0.00736 0.88806 0.0
C2562 C 0.59242 0.00209 0.90424 0.0
C2563 C 0.64243 0.03265 0.87314 0.0
C2564 C 0.63965 0.02757 0.84839 0.0
C2565 C 0.66479 0.03977 0.88164 0.0
C2566 C 0.67067 0.0421 0.90765 0.0
C2567 C 0.66657 0.0237 0.92376 0.0
C2568 C 0.67485 0.02485 0.9475 0.0
C2569 C 0.68781 0.04402 0.95517 0.0
C2570 C 0.69206 0.0623 0.93925 0.0
C2571 C 0.68326 0.06154 0.91575 0.0
H2572 H 0.6946 0.04467 0.97342 0.0
H2573 H 0.64776 0.99988 0.74064 0.0
H2574 H 0.96613 0.7135 0.77102 0.0
H2575 H 0.97307 0.68446 0.8017 0.0
H2576 H 0.03574 0.72061 0.82426 0.0
H2577 H 0.03149 0.74659 0.78997 0.0
H2578 H 0.04531 0.68222 0.83318 0.0
H2579 H 0.97416 0.71962 0.85646 0.0
H2580 H 0.93388 0.73547 0.85331 0.0
H2581 H 0.90752 0.66761 0.83681 0.0
H2582 H 0.94764 0.6514 0.83965 0.0
H2583 H 0.03184 0.61367 0.94563 0.0
H2584 H 0.03597 0.64504 0.91568 0.0
H2585 H -0.00386 0.60485 0.86436 0.0
H2586 H 0.99212 0.57379 0.89405 0.0
H2587 H 0.97681 0.64907 0.87593 0.0
H2588 H 0.05405 0.61488 0.8551 0.0
H2589 H 0.09486 0.60376 0.86503 0.0
H2590 H 0.10937 0.6735 0.88761 0.0
H2591 H 0.0686 0.68503 0.87792 0.0
C2592 C 0.98173 0.71499 0.7821 0.0
C2593 C -0.00203 0.73286 0.77805 0.0
C2594 C 0.98532 0.69867 0.80038 0.0
C2595 C 0.00431 0.70068 0.81657 0.0
C2596 C 0.02066 0.71854 0.81251 0.0
C2597 C 0.01788 0.73398 0.79313 0.0
C2598 C 0.00745 0.68367 0.83695 0.0
C2599 C 0.0302 0.67547 0.84272 0.0
C2600 C 0.98808 0.6746 0.85008 0.0
C2601 C 0.96394 0.68434 0.84814 0.0
C2602 C 0.95979 0.70812 0.85203 0.0
C2603 C 0.93698 0.71715 0.85032 0.0
C2604 C 0.91817 0.70256 0.84483 0.0
C2605 C 0.92211 0.6789 0.84103 0.0
C2606 C 0.94487 0.66977 0.84274 0.0
C2607 C 0.02495 0.61124 0.92756 0.0
C2608 C 0.01208 0.59123 0.92186 0.0
C2609 C 0.02711 0.62919 0.91056 0.0
C2610 C 0.01626 0.62731 0.8878 0.0
C2611 C 0.00465 0.60668 0.88177 0.0
C2612 C 0.00253 0.58886 0.89864 0.0
C2613 C 0.01428 0.64748 0.87118 0.0
C2614 C 0.99173 0.65628 0.86637 0.0
C2615 C 0.03386 0.65789 0.86001 0.0
C2616 C 0.05826 0.65078 0.86588 0.0
C2617 C 0.0659 0.6278 0.86232 0.0
C2618 C 0.08905 0.62145 0.86783 0.0
C2619 C 0.10472 0.63793 0.87684 0.0
C2620 C 0.09725 0.66078 0.88051 0.0
C2621 C 0.07414 0.66724 0.87497 0.0
H2622 H 0.12265 0.63299 0.88103 0.0
H2623 H 0.90052 0.70959 0.84353 0.0
H2624 H 0.21608 0.31069 0.98576 0.0
H2625 H 0.18003 0.33401 0.98876 0.0
H2626 H 0.168 0.30739 0.0604 0.0
H2627 H 0.20455 0.2842 0.05737 0.0
H2628 H 0.12501 0.31705 0.01781 0.0
H2629 H 0.18093 0.3495 0.07378 0.0
H2630 H 0.22065 0.35988 0.08793 0.0
H2631 H 0.23069 0.40202 0.02495 0.0
H2632 H 0.19107 0.39166 0.0103 0.0
H2633 H 0.05174 0.42123 0.01625 0.0
H2634 H 0.07553 0.38964 0.03334 0.0
H2635 H 0.1321 0.40665 0.98475 0.0
H2636 H 0.10883 0.43832 0.96804 0.0
H2637 H 0.14807 0.39915 0.03021 0.0
H2638 H 0.09734 0.35006 0.97116 0.0
H2639 H 0.05742 0.33905 0.95771 0.0
H2640 H 0.0364 0.32959 0.03149 0.0
H2641 H 0.07624 0.34036 0.04523 0.0
C2642 C 0.20517 0.3092 0.0017 0.0
C2643 C 0.21266 0.29562 0.02121 0.0
C2644 C 0.18475 0.32253 0.00349 0.0
C2645 C 0.17149 0.32241 0.02482 0.0
C2646 C 0.178 0.30755 0.04377 0.0
C2647 C 0.19866 0.29428 0.04201 0.0
C2648 C 0.15296 0.34021 0.02782 0.0
C2649 C 0.12979 0.33494 0.0213 0.0
C2650 C 0.15924 0.36348 0.03238 0.0
C2651 C 0.18314 0.36966 0.04087 0.0
C2652 C 0.19171 0.36079 0.06284 0.0
C2653 C 0.21415 0.36674 0.07099 0.0
C2654 C 0.22817 0.38161 0.05735 0.0
C2655 C 0.21979 0.39052 0.0355 0.0
C2656 C 0.19732 0.38465 0.02728 0.0
C2657 C 0.06927 0.41821 0.00923 0.0
C2658 C 0.07832 0.43218 0.99062 0.0
C2659 C 0.08277 0.40005 0.01892 0.0
C2660 C 0.1055 0.39556 0.01011 0.0
C2661 C 0.11463 0.40978 0.99187 0.0
C2662 C 0.10123 0.42786 0.98224 0.0
C2663 C 0.12018 0.37616 0.01943 0.0
C2664 C 0.14287 0.38121 0.02787 0.0
C2665 C 0.11325 0.3527 0.01733 0.0
C2666 C 0.08949 0.34625 0.00914 0.0
C2667 C 0.0841 0.34573 0.98443 0.0
C2668 C 0.06155 0.33952 0.97678 0.0
C2669 C 0.04434 0.33381 0.99373 0.0
C2670 C 0.04971 0.3341 0.01837 0.0
C2671 C 0.07226 0.34019 0.02609 0.0
H2672 H 0.02688 0.32906 0.98778 0.0
H2673 H 0.24548 0.38628 0.06378 0.0
H2674 H 0.17705 0.75956 0.03871 0.0
H2675 H 0.14236 0.73453 0.03501 0.0
H2676 H 0.18181 0.68886 0.98789 0.0
H2677 H 0.21468 0.71545 0.98914 0.0
H2678 H 0.14225 0.6835 0.9756 0.0
H2679 H 0.17458 0.68631 0.0586 0.0
H2680 H 0.18348 0.70619 0.09704 0.0
H2681 H 0.11067 0.72489 0.10491 0.0
H2682 H 0.10142 0.70527 0.06643 0.0
H2683 H 0.11429 0.5713 0.00152 0.0
H2684 H 0.13433 0.60778 0.01047 0.0
H2685 H 0.06763 0.64035 0.02612 0.0
H2686 H 0.04755 0.60365 0.01733 0.0
H2687 H 0.11108 0.65701 0.05451 0.0
H2688 H 0.08077 0.64543 0.97243 0.0
H2689 H 0.07561 0.61943 0.93737 0.0
H2690 H 0.15044 0.61252 0.93047 0.0
H2691 H 0.1561 0.63831 0.96558 0.0
C2692 C 0.17769 0.74471 0.02675 0.0
C2693 C 0.19848 0.73917 0.01438 0.0
C2694 C 0.15811 0.73004 0.02507 0.0
C2695 C 0.15959 0.70901 0.01208 0.0
C2696 C 0.17989 0.7047 -0.00176 0.0
C2697 C 0.19884 0.71986 -0.001 0.0
C2698 C 0.14138 0.69042 0.01397 0.0
C2699 C 0.13558 0.67788 0.99297 0.0
C2700 C 0.1318 0.68304 0.03641 0.0
C2701 C 0.13738 0.69459 0.05958 0.0
C2702 C 0.16051 0.69472 0.06853 0.0
C2703 C 0.16561 0.70595 0.0903 0.0
C2704 C 0.14767 0.71686 0.10337 0.0
C2705 C 0.12457 0.71649 0.09475 0.0
C2706 C 0.11938 0.70532 0.07298 0.0
C2707 C 0.10408 0.58592 0.00809 0.0
C2708 C 0.07951 0.58472 0.00911 0.0
C2709 C 0.11548 0.60676 0.01306 0.0
C2710 C 0.10239 0.62678 0.01863 0.0
C2711 C 0.07801 0.62506 0.02194 0.0
C2712 C 0.06659 0.6041 0.01706 0.0
C2713 C 0.11369 0.64978 0.01654 0.0
C2714 C 0.11769 0.66308 0.03728 0.0
C2715 C 0.12226 0.65755 0.99403 0.0
C2716 C 0.11884 0.64373 0.97167 0.0
C2717 C 0.09612 0.63842 0.96337 0.0
C2718 C 0.0931 0.62367 0.94356 0.0
C2719 C 0.11266 0.61418 0.93186 0.0
C2720 C 0.13531 0.61981 0.93962 0.0
C2721 C 0.13843 0.63456 0.95941 0.0
H2722 H 0.11027 0.60252 0.91674 0.0
H2723 H 0.15165 0.72556 0.1202 0.0
H2724 H 0.26844 0.22403 0.03278 0.0
H2725 H 0.29788 0.19351 0.02753 0.0
H2726 H 0.33738 0.23835 0.98029 0.0
H2727 H 0.30576 0.2668 0.98197 0.0
H2728 H 0.34657 0.19987 0.96647 0.0
H2729 H 0.34613 0.22954 0.04863 0.0
H2730 H 0.32832 0.23834 0.08825 0.0
H2731 H 0.3127 0.16619 0.09837 0.0
H2732 H 0.33019 0.15702 0.05872 0.0
H2733 H 0.4557 0.13976 0.98483 0.0
H2734 H 0.42458 0.16946 0.9844 0.0
H2735 H 0.38002 0.12417 0.02614 0.0
H2736 H 0.4118 0.09573 0.02842 0.0
H2737 H 0.37473 0.16392 0.0425 0.0
H2738 H 0.37725 0.13555 0.95854 0.0
H2739 H 0.39839 0.12871 0.92024 0.0
H2740 H 0.41373 0.20139 0.91497 0.0
H2741 H 0.39287 0.2086 0.95332 0.0
C2742 C 0.28302 0.22702 0.02065 0.0
C2743 C 0.28517 0.24825 0.0085 0.0
C2744 C 0.30023 0.20977 0.01811 0.0
C2745 C 0.32075 0.21397 0.00462 0.0
C2746 C 0.32213 0.23465 0.99131 0.0
C2747 C 0.30426 0.25129 0.99276 0.0
C2748 C 0.34109 0.1974 0.00497 0.0
C2749 C 0.35278 0.19222 0.9832 0.0
C2750 C 0.34943 0.18712 0.02664 0.0
C2751 C 0.33931 0.19264 0.05066 0.0
C2752 C 0.33886 0.21558 0.0593 0.0
C2753 C 0.3288 0.22062 0.08175 0.0
C2754 C 0.31935 0.20284 0.09579 0.0
C2755 C 0.32001 0.17996 0.08747 0.0
C2756 C 0.33001 0.17482 0.06503 0.0
C2757 C 0.43928 0.13642 0.99405 0.0
C2758 C 0.43608 0.11568 0.00682 0.0
C2759 C 0.42137 0.15322 0.99357 0.0
C2760 C 0.39958 0.14895 0.00477 0.0
C2761 C 0.39657 0.12804 0.01739 0.0
C2762 C 0.41472 0.11176 0.0187 0.0
C2763 C 0.37989 0.16613 0.00404 0.0
C2764 C 0.36841 0.17154 0.02578 0.0
C2765 C 0.37208 0.17689 0.98245 0.0
C2766 C 0.38362 0.17258 0.95885 0.0
C2767 C 0.38511 0.15005 0.94918 0.0
C2768 C 0.39708 0.14612 0.92749 0.0
C2769 C 0.40745 0.16459 0.91521 0.0
C2770 C 0.40571 0.18709 0.9245 0.0
C2771 C 0.39378 0.19111 0.94618 0.0
H2772 H 0.41681 0.16149 0.8985 0.0
H2773 H 0.31155 0.20679 0.11315 0.0
H2774 H 0.84303 0.27497 0.96702 0.0
H2775 H 0.8732 0.30473 0.9734 0.0
H2776 H 0.82797 0.33923 0.02476 0.0
H2777 H 0.79841 0.30885 0.01934 0.0
H2778 H 0.84551 0.36755 0.98543 0.0
H2779 H 0.87212 0.31432 0.04654 0.0
H2780 H 0.88554 0.27668 0.06267 0.0
H2781 H 0.94446 0.27716 0.01427 0.0
H2782 H 0.93117 0.31467 -0.00244 0.0
H2783 H 0.91613 0.45101 0.0411 0.0
H2784 H 0.89071 0.41867 0.03091 0.0
H2785 H 0.94652 0.3874 0.98917 0.0
H2786 H 0.97239 0.41996 -0.00058 0.0
H2787 H 0.9254 0.35637 0.01976 0.0
H2788 H 0.90024 0.40932 0.95915 0.0
H2789 H 0.88676 0.44605 0.94113 0.0
H2790 H 0.82578 0.44588 0.9868 0.0
H2791 H 0.83885 0.40895 0.00501 0.0
C2792 C 0.83986 0.28868 0.98001 0.0
C2793 C 0.81839 0.28994 0.99241 0.0
C2794 C 0.85696 0.30563 0.98358 0.0
C2795 C 0.85267 0.32415 -0.00056 0.0
C2796 C 0.83146 0.3251 0.01232 0.0
C2797 C 0.81456 0.30792 0.00908 0.0
C2798 C 0.8697 0.34327 0.00156 0.0
C2799 C 0.8629 0.36522 0.99318 0.0
C2800 C 0.89263 0.33985 0.01079 0.0
C2801 C 0.90047 0.31715 0.02056 0.0
C2802 C 0.88777 0.30627 0.03911 0.0
C2803 C 0.89539 0.28499 0.04842 0.0
C2804 C 0.91579 0.27449 0.03944 0.0
C2805 C 0.92863 0.28528 0.02116 0.0
C2806 C 0.92106 0.30655 0.01177 0.0
C2807 C 0.92308 0.43734 0.02968 0.0
C2808 C 0.94635 0.43802 0.02113 0.0
C2809 C 0.90842 0.41892 0.02373 0.0
C2810 C 0.91664 0.40078 0.00908 0.0
C2811 C 0.93984 0.40132 0.00044 0.0
C2812 C 0.95457 0.4199 0.00629 0.0
C2813 C 0.90109 0.38084 0.00399 0.0
C2814 C 0.90812 0.3587 0.01177 0.0
C2815 C 0.87838 0.38402 0.99404 0.0
C2816 C 0.87067 0.4065 0.98363 0.0
C2817 C 0.88408 0.41723 0.96553 0.0
C2818 C 0.87646 0.43807 0.95523 0.0
C2819 C 0.85551 0.44844 0.96295 0.0
C2820 C 0.84204 0.43788 0.98089 0.0
C2821 C 0.8495 0.41694 0.99114 0.0
H2822 H 0.84966 0.4646 0.95497 0.0
H2823 H 0.92169 0.25804 0.0467 0.0
H2824 H 0.75378 0.83218 0.95924 0.0
H2825 H 0.72425 0.86175 0.96904 0.0
H2826 H 0.71678 0.83245 0.04029 0.0
H2827 H 0.74613 0.80275 0.03013 0.0
H2828 H 0.67662 0.83093 0.01644 0.0
H2829 H 0.73205 0.8891 0.03375 0.0
H2830 H 0.76716 0.91347 0.02867 0.0
H2831 H 0.73866 0.94126 0.9629 0.0
H2832 H 0.70351 0.91679 0.96736 0.0
H2833 H 0.58102 0.91247 0.0364 0.0
H2834 H 0.61761 0.89023 0.04023 0.0
H2835 H 0.63297 0.90268 0.96515 0.0
H2836 H 0.59639 0.92464 0.96099 0.0
H2837 H 0.67006 0.91494 -0.00165 0.0
H2838 H 0.61752 0.85138 0.97951 0.0
H2839 H 0.58246 0.82716 0.98587 0.0
H2840 H 0.60641 0.81027 0.05732 0.0
H2841 H 0.64149 0.83467 0.05147 0.0
C2842 C 0.74674 0.83298 0.97738 0.0
C2843 C 0.75217 0.81546 0.994 0.0
C2844 C 0.72979 0.84975 0.98299 0.0
C2845 C 0.71815 0.8492 0.00537 0.0
C2846 C 0.72549 0.83317 0.02292 0.0
C2847 C 0.74244 0.81643 0.01726 0.0
C2848 C 0.69581 0.86222 0.00853 0.0
C2849 C 0.67531 0.84944 0.01312 0.0
C2850 C 0.694 0.88625 0.00374 0.0
C2851 C 0.71518 0.90095 0.00082 0.0
C2852 C 0.73334 0.90024 0.01808 0.0
C2853 C 0.75324 0.91411 0.01533 0.0
C2854 C 0.75516 0.92887 0.99545 0.0
C2855 C 0.73716 0.92981 0.97829 0.0
C2856 C 0.71722 0.91596 0.98094 0.0
C2857 C 0.5919 0.91004 0.02056 0.0
C2858 C 0.58576 0.92038 -0.00161 0.0
C2859 C 0.61286 0.89745 0.02283 0.0
C2860 C 0.62806 0.89514 0.00304 0.0
C2861 C 0.62152 0.90452 0.98067 0.0
C2862 C 0.60047 0.91685 0.97829 0.0
C2863 C 0.65113 0.88348 0.00567 0.0
C2864 C 0.67161 0.89653 0.00214 0.0
C2865 C 0.653 0.85976 0.01166 0.0
C2866 C 0.63196 0.84506 0.01517 0.0
C2867 C 0.61519 0.84267 0.99666 0.0
C2868 C 0.59535 0.82888 0.00015 0.0
C2869 C 0.59217 0.81725 0.02202 0.0
C2870 C 0.60888 0.81933 0.04041 0.0
C2871 C 0.62875 0.83313 0.03701 0.0
H2872 H 0.5768 0.80657 0.02468 0.0
H2873 H 0.77058 0.93961 0.99337 0.0
H2874 H 0.77314 0.71653 0.01172 0.0
H2875 H 0.8019 0.68503 0.01105 0.0
H2876 H 0.85192 0.73022 0.97638 0.0
H2877 H 0.82194 0.76058 0.9741 0.0
H2878 H 0.8564 0.69249 0.95632 0.0
H2879 H 0.85269 0.71203 0.04063 0.0
H2880 H 0.83433 0.71893 0.08035 0.0
H2881 H 0.80887 0.64895 0.0813 0.0
H2882 H 0.82687 0.6417 0.04146 0.0
H2883 H 0.9589 0.62821 0.00025 0.0
H2884 H 0.92824 0.65697 0.99051 0.0
H2885 H 0.87573 0.60335 0.99352 0.0
H2886 H 0.90644 0.57456 0.0026 0.0
H2887 H 0.8721 0.64331 0.02796 0.0
H2888 H 0.88061 0.62469 0.94351 0.0
H2889 H 0.90331 0.6192 0.90603 0.0
H2890 H 0.92459 0.69052 0.90808 0.0
H2891 H 0.90234 0.69636 0.94589 0.0
C2892 C 0.79009 0.71955 0.00349 0.0
C2893 C 0.79516 0.74088 0.99251 0.0
C2894 C 0.8068 0.70166 0.00361 0.0
C2895 C 0.82938 0.70517 0.99393 0.0
C2896 C 0.83467 0.72687 0.98384 0.0
C2897 C 0.81767 0.74439 0.98288 0.0
C2898 C 0.84732 0.68618 0.99363 0.0
C2899 C 0.85997 0.68202 0.97217 0.0
C2900 C 0.85189 0.67203 0.01406 0.0
C2901 C 0.84092 0.67641 0.03795 0.0
C2902 C 0.84303 0.69817 0.04923 0.0
C2903 C 0.83272 0.70213 0.07178 0.0
C2904 C 0.82039 0.68441 0.08331 0.0
C2905 C 0.81839 0.66267 0.07233 0.0
C2906 C 0.82866 0.65862 0.04978 0.0
C2907 C 0.94094 0.62251 -0.00225 0.0
C2908 C 0.93489 0.59929 0.00174 0.0
C2909 C 0.92347 0.63888 0.99234 0.0
C2910 C 0.89979 0.6322 0.99137 0.0
C2911 C 0.89394 0.60875 0.99409 0.0
C2912 C 0.91144 0.59235 -0.00091 0.0
C2913 C 0.88102 0.65002 0.99091 0.0
C2914 C 0.86832 0.6539 0.01222 0.0
C2915 C 0.87692 0.66426 0.97063 0.0
C2916 C 0.89002 0.66089 0.94771 0.0
C2917 C 0.89031 0.63916 0.93612 0.0
C2918 C 0.90306 0.63599 0.91479 0.0
C2919 C 0.91547 0.65447 0.90476 0.0
C2920 C 0.91502 0.67621 0.91593 0.0
C2921 C 0.90232 0.67946 0.93731 0.0
H2922 H 0.92542 0.65192 0.88833 0.0
H2923 H 0.81243 0.68751 0.10077 0.0
H2924 H 0.2542 0.80332 0.98029 0.0
H2925 H 0.28022 0.83689 0.97696 0.0
H2926 H 0.31299 0.8181 0.04461 0.0
H2927 H 0.28533 0.78632 0.04908 0.0
H2928 H 0.30888 0.86071 0.04516 0.0
H2929 H 0.33719 0.80806 0.98401 0.0
H2930 H 0.33425 0.7835 0.94765 0.0
H2931 H 0.31547 0.84305 0.90518 0.0
H2932 H 0.31778 0.86791 0.94141 0.0
H2933 H 0.41671 0.91817 0.03953 0.0
H2934 H 0.38532 0.88995 0.03893 0.0
H2935 H 0.35569 0.92252 0.97564 0.0
H2936 H 0.38831 0.95038 0.9753 0.0
H2937 H 0.35483 0.87672 0.97104 0.0
H2938 H 0.33153 0.92922 0.03556 0.0
H2939 H 0.33915 0.95121 0.07301 0.0
H2940 H 0.35398 0.88776 0.11071 0.0
H2941 H 0.34667 0.86541 0.07346 0.0
C2942 C 0.26657 0.80674 0.99468 0.0
C2943 C 0.26755 0.79231 0.01511 0.0
C2944 C 0.28182 0.82569 0.99256 0.0
C2945 C 0.29895 0.83003 0.01037 0.0
C2946 C 0.29999 0.81536 0.03059 0.0
C2947 C 0.28436 0.79695 0.03302 0.0
C2948 C 0.31565 0.8499 0.0085 0.0
C2949 C 0.31902 0.864 0.02895 0.0
C2950 C 0.32867 0.85474 0.98727 0.0
C2951 C 0.32739 0.8398 0.96548 0.0
C2952 C 0.33227 0.8159 0.96696 0.0
C2953 C 0.33074 0.80192 0.94637 0.0
C2954 C 0.32468 0.8117 0.92413 0.0
C2955 C 0.32013 0.83549 0.92243 0.0
C2956 C 0.32152 0.84953 0.94298 0.0
C2957 C 0.40339 0.91967 0.02561 0.0
C2958 C 0.40487 0.93684 0.00765 0.0
C2959 C 0.38532 0.90345 0.02535 0.0
C2960 C 0.36766 0.90439 0.00765 0.0
C2961 C 0.36898 0.92154 0.98964 0.0
C2962 C 0.38751 0.93755 0.98954 0.0
C2963 C 0.34833 0.88701 0.00784 0.0
C2964 C 0.34444 0.87349 0.9871 0.0
C2965 C 0.33526 0.88224 0.02902 0.0
C2966 C 0.33857 0.89566 0.05169 0.0
C2967 C 0.33638 0.91997 0.05184 0.0
C2968 C 0.34069 0.93249 0.07303 0.0
C2969 C 0.34705 0.92089 0.09421 0.0
C2970 C 0.34901 0.89673 0.0943 0.0
C2971 C 0.34472 0.88412 0.07317 0.0
H2972 H 0.35045 0.93064 0.11056 0.0
H2973 H 0.32353 0.80086 0.90821 0.0
H2974 H 0.78278 0.20116 0.95593 0.0
H2975 H 0.75842 0.16662 0.96271 0.0
H2976 H 0.73281 0.19696 0.02916 0.0
H2977 H 0.75821 0.2304 0.02287 0.0
H2978 H 0.73263 0.15465 0.0354 0.0
H2979 H 0.70364 0.20301 0.97294 0.0
H2980 H 0.70296 0.22509 0.93483 0.0
H2981 H 0.71375 0.16217 0.89466 0.0
H2982 H 0.71463 0.13971 0.93258 0.0
H2983 H 0.61479 0.10904 0.03163 0.0
H2984 H 0.65 0.13328 0.03205 0.0
H2985 H 0.68211 0.08857 0.97925 0.0
H2986 H 0.6465 0.06429 0.97833 0.0
H2987 H 0.68061 0.13528 0.96643 0.0
H2988 H 0.71143 0.09026 0.03862 0.0
H2989 H 0.70938 0.07568 0.08054 0.0
H2990 H 0.68539 0.14248 0.10492 0.0
H2991 H 0.6877 0.15747 0.06325 0.0
C2992 C 0.77265 0.19973 0.97239 0.0
C2993 C 0.77221 0.21804 0.98899 0.0
C2994 C 0.75848 0.18032 0.97612 0.0
C2995 C 0.74322 0.17949 0.9961 0.0
C2996 C 0.74432 0.19711 0.01359 0.0
C2997 C 0.75883 0.21615 0.0101 0.0
C2998 C 0.72475 0.16151 -0.00203 0.0
C2999 C 0.72127 0.15051 0.02026 0.0
C3000 C 0.70955 0.15627 0.97843 0.0
C3001 C 0.70957 0.16973 0.95561 0.0
C3002 C 0.70611 0.19391 0.956 0.0
C3003 C 0.70563 0.20648 0.93444 0.0
C3004 C 0.70845 0.19506 0.91236 0.0
C3005 C 0.71166 0.17101 0.91179 0.0
C3006 C 0.71214 0.15834 0.9333 0.0
C3007 C 0.62966 0.10405 0.0206 0.0
C3008 C 0.62829 0.08464 0.00531 0.0
C3009 C 0.64972 0.11787 0.02085 0.0
C3010 C 0.66879 0.11232 0.00593 0.0
C3011 C 0.66752 0.09279 0.99087 0.0
C3012 C 0.64732 0.07909 0.99035 0.0
C3013 C 0.68879 0.12841 0.00371 0.0
C3014 C 0.69235 0.13919 0.98134 0.0
C3015 C 0.70311 0.13451 0.02352 0.0
C3016 C 0.69962 0.12488 0.04794 0.0
C3017 C 0.70552 0.10172 0.05293 0.0
C3018 C 0.70456 0.09347 0.07666 0.0
C3019 C 0.69751 0.10822 0.09541 0.0
C3020 C 0.6911 0.13115 0.09044 0.0
C3021 C 0.69228 0.13953 0.06681 0.0
H3022 H 0.69675 0.10179 0.11375 0.0
H3023 H 0.70804 0.20482 0.89568 0.0
H3024 H 0.50705 0.72865 0.7767 0.0
H3025 H 0.50225 0.69376 0.80159 0.0
H3026 H 0.57633 0.67889 0.7947 0.0
H3027 H 0.58108 0.71423 0.77014 0.0
H3028 H 0.53667 0.63748 0.79381 0.0
H3029 H 0.57351 0.69962 0.84075 0.0
H3030 H 0.57767 0.74031 0.85391 0.0
H3031 H 0.5055 0.74147 0.87659 0.0
H3032 H 0.50097 0.70073 0.86359 0.0
H3033 H 0.55018 0.57746 0.91096 0.0
H3034 H 0.55723 0.60096 0.87477 0.0
H3035 H 0.48637 0.62758 0.87849 0.0
H3036 H 0.47894 0.60392 0.91413 0.0
H3037 H 0.52752 0.66124 0.87953 0.0
H3038 H 0.49139 0.59854 0.83559 0.0
H3039 H 0.48624 0.55818 0.82186 0.0
H3040 H 0.55644 0.55762 0.79339 0.0
H3041 H 0.56207 0.59798 0.80715 0.0
C3042 C 0.52203 0.71736 0.7798 0.0
C3043 C 0.54433 0.72369 0.77144 0.0
C3044 C 0.51935 0.69759 0.794 0.0
C3045 C 0.53894 0.6838 0.79984 0.0
C3046 C 0.561 0.68922 0.7901 0.0
C3047 C 0.56371 0.70924 0.77612 0.0
C3048 C 0.53674 0.66605 0.8189 0.0
C3049 C 0.5351 0.64253 0.81261 0.0
C3050 C 0.53428 0.6728 0.8433 0.0
C3051 C 0.53685 0.69727 0.85099 0.0
C3052 C 0.5585 0.70863 0.84839 0.0
C3053 C 0.56096 0.73164 0.85594 0.0
C3054 C 0.54184 0.74349 0.866 0.0
C3055 C 0.52028 0.73229 0.86873 0.0
C3056 C 0.51778 0.70921 0.86137 0.0
C3057 C 0.53598 0.58802 0.90383 0.0
C3058 C 0.51405 0.58896 0.91554 0.0
C3059 C 0.54003 0.60136 0.88315 0.0
C3060 C 0.52229 0.61592 0.87407 0.0
C3061 C 0.50023 0.61637 0.88526 0.0
C3062 C 0.49607 0.60287 0.90567 0.0
C3063 C 0.52736 0.63256 0.85454 0.0
C3064 C 0.52945 0.65602 0.86079 0.0
C3065 C 0.53028 0.62564 0.83023 0.0
C3066 C 0.52723 0.60119 0.8226 0.0
C3067 C 0.50582 0.58973 0.82665 0.0
C3068 C 0.50276 0.56691 0.81872 0.0
C3069 C 0.52095 0.55541 0.80662 0.0
C3070 C 0.54232 0.56662 0.80263 0.0
C3071 C 0.54545 0.58946 0.81048 0.0
H3072 H 0.51854 0.53775 0.80046 0.0
H3073 H 0.54375 0.76135 0.87171 0.0
H3074 H 0.3433 0.57346 0.76645 0.0
H3075 H 0.37977 0.57397 0.79048 0.0
H3076 H 0.37024 0.50146 0.8071 0.0
H3077 H 0.33421 0.50117 0.78287 0.0
H3078 H 0.38048 0.5676 0.83718 0.0
H3079 H 0.41991 0.47502 0.82144 0.0
H3080 H 0.42733 0.44829 0.78749 0.0
H3081 H 0.42803 0.50571 0.7382 0.0
H3082 H 0.42097 0.53286 0.7719 0.0
H3083 H 0.42122 0.51401 0.94077 0.0
H3084 H 0.40373 0.52683 0.90304 0.0
H3085 H 0.47231 0.52847 0.86985 0.0
H3086 H 0.49003 0.51464 0.90767 0.0
H3087 H 0.44279 0.50723 0.8415 0.0
H3088 H 0.44104 0.5796 0.88231 0.0
H3089 H 0.43421 0.60604 0.91669 0.0
H3090 H 0.36044 0.59084 0.91473 0.0
H3091 H 0.36679 0.56405 0.88061 0.0
C3092 C 0.3497 0.55754 0.77454 0.0
C3093 C 0.33646 0.53719 0.77274 0.0
C3094 C 0.37032 0.55782 0.78834 0.0
C3095 C 0.3779 0.5377 0.80045 0.0
C3096 C 0.36515 0.51706 0.79752 0.0
C3097 C 0.3446 0.51684 0.78375 0.0
C3098 C 0.3969 0.53879 0.81882 0.0
C3099 C 0.39437 0.55465 0.83793 0.0
C3100 C 0.41534 0.52222 0.8196 0.0
C3101 C 0.41982 0.50599 0.79923 0.0
C3102 C 0.42181 0.48199 0.80339 0.0
C3103 C 0.42591 0.46675 0.78418 0.0
C3104 C 0.42812 0.4753 0.7607 0.0
C3105 C 0.42626 0.49911 0.75639 0.0
C3106 C 0.42217 0.51443 0.77554 0.0
C3107 C 0.43269 0.51734 0.92558 0.0
C3108 C 0.45699 0.51323 0.92717 0.0
C3109 C 0.42266 0.52487 0.904 0.0
C3110 C 0.43674 0.52902 0.88368 0.0
C3111 C 0.46114 0.52545 0.88534 0.0
C3112 C 0.47121 0.51757 0.90692 0.0
C3113 C 0.42545 0.53516 0.86037 0.0
C3114 C 0.4294 0.52065 0.84039 0.0
C3115 C 0.40844 0.55311 0.85871 0.0
C3116 C 0.40442 0.56978 0.87883 0.0
C3117 C 0.42336 0.58185 0.88922 0.0
C3118 C 0.41958 0.59688 0.90869 0.0
C3119 C 0.39692 0.60011 0.91787 0.0
C3120 C 0.37798 0.58836 0.90757 0.0
C3121 C 0.38165 0.57329 0.88811 0.0
H3122 H 0.39405 0.61173 0.93297 0.0
H3123 H 0.43128 0.46346 0.74585 0.0
H3124 H 0.51298 0.26658 0.80302 0.0
H3125 H 0.5169 0.29786 0.83262 0.0
H3126 H 0.47099 0.34114 0.78993 0.0
H3127 H 0.46512 0.30901 0.76144 0.0
H3128 H 0.5227 0.35821 0.81081 0.0
H3129 H 0.44477 0.33107 0.82689 0.0
H3130 H 0.41395 0.30233 0.83502 0.0
H3131 H 0.44865 0.2828 0.90079 0.0
H3132 H 0.48059 0.31041 0.89226 0.0
H3133 H 0.52363 0.44412 0.90425 0.0
H3134 H 0.50913 0.42031 0.87077 0.0
H3135 H 0.52 0.3586 0.91347 0.0
H3136 H 0.53382 0.38221 0.94706 0.0
H3137 H 0.48049 0.35514 0.88912 0.0
H3138 H 0.56083 0.3781 0.86966 0.0
H3139 H 0.5916 0.40731 0.86243 0.0
H3140 H 0.55059 0.43664 0.8048 0.0
H3141 H 0.51949 0.40768 0.81182 0.0
C3142 C 0.50317 0.28245 0.80024 0.0
C3143 C 0.4883 0.2851 0.78012 0.0
C3144 C 0.50572 0.30045 0.81698 0.0
C3145 C 0.49405 0.32169 0.81353 0.0
C3146 C 0.48004 0.32481 0.79295 0.0
C3147 C 0.47685 0.30654 0.77663 0.0
C3148 C 0.49649 0.34041 0.83169 0.0
C3149 C 0.51319 0.35783 0.82778 0.0
C3150 C 0.48416 0.33973 0.85384 0.0
C3151 C 0.46548 0.3224 0.85856 0.0
C3152 C 0.4463 0.32013 0.84268 0.0
C3153 C 0.42858 0.30405 0.84739 0.0
C3154 C 0.42955 0.29047 0.86824 0.0
C3155 C 0.44821 0.29299 0.88442 0.0
C3156 C 0.46618 0.30877 0.87958 0.0
C3157 C 0.52271 0.42549 0.90657 0.0
C3158 C 0.53009 0.41505 0.92827 0.0
C3159 C 0.51453 0.41189 0.88736 0.0
C3160 C 0.51385 0.3876 0.88941 0.0
C3161 C 0.5204 0.37729 0.91138 0.0
C3162 C 0.5284 0.39083 0.93059 0.0
C3163 C 0.50724 0.37259 0.86862 0.0
C3164 C 0.48978 0.35578 0.87203 0.0
C3165 C 0.51884 0.37386 0.84602 0.0
C3166 C 0.53779 0.39085 0.84138 0.0
C3167 C 0.55837 0.39082 0.85548 0.0
C3168 C 0.57586 0.40732 0.85142 0.0
C3169 C 0.57304 0.42383 0.83318 0.0
C3170 C 0.55275 0.42383 0.81891 0.0
C3171 C 0.53521 0.40736 0.82289 0.0
H3172 H 0.5866 0.43659 0.83009 0.0
H3173 H 0.41571 0.27817 0.87198 0.0
H3174 H 0.68621 0.53564 0.78186 0.0
H3175 H 0.65423 0.53091 0.81102 0.0
H3176 H 0.65685 0.45687 0.80039 0.0
H3177 H 0.68921 0.46175 0.77148 0.0
H3178 H 0.60742 0.50209 0.81411 0.0
H3179 H 0.67294 0.44406 0.83983 0.0
H3180 H 0.71489 0.43421 0.84566 0.0
H3181 H 0.72705 0.50139 0.87674 0.0
H3182 H 0.68529 0.51177 0.87051 0.0
H3183 H 0.55349 0.49377 0.93119 0.0
H3184 H 0.57098 0.48121 0.89282 0.0
H3185 H 0.63521 0.51662 0.91177 0.0
H3186 H 0.61877 0.52693 0.95061 0.0
H3187 H 0.64709 0.48097 0.89088 0.0
H3188 H 0.58533 0.53925 0.87082 0.0
H3189 H 0.54359 0.55133 0.87118 0.0
H3190 H 0.52455 0.4892 0.83338 0.0
H3191 H 0.56615 0.47683 0.8326 0.0
C3192 C 0.67889 0.51854 0.78465 0.0
C3193 C 0.68987 0.49907 0.77433 0.0
C3194 C 0.6609 0.51579 0.80156 0.0
C3195 C 0.65359 0.49349 0.80822 0.0
C3196 C 0.6625 0.47419 0.79569 0.0
C3197 C 0.68059 0.47699 0.77883 0.0
C3198 C 0.63972 0.49056 0.83062 0.0
C3199 C 0.61592 0.49711 0.83089 0.0
C3200 C 0.65084 0.48436 0.85254 0.0
C3201 C 0.67622 0.47885 0.85415 0.0
C3202 C 0.6847 0.45688 0.8474 0.0
C3203 C 0.70839 0.45115 0.85094 0.0
C3204 C 0.72363 0.46716 0.86156 0.0
C3205 C 0.71525 0.489 0.86853 0.0
C3206 C 0.69163 0.49486 0.86483 0.0
C3207 C 0.57155 0.49827 0.9273 0.0
C3208 C 0.58481 0.51111 0.94402 0.0
C3209 C 0.58142 0.49144 0.90519 0.0
C3210 C 0.60433 0.49836 0.89897 0.0
C3211 C 0.61758 0.51086 0.91597 0.0
C3212 C 0.60809 0.51685 0.93829 0.0
C3213 C 0.61487 0.49342 0.87483 0.0
C3214 C 0.6382 0.48543 0.87415 0.0
C3215 C 0.60339 0.49875 0.85274 0.0
C3216 C 0.57873 0.50699 0.85192 0.0
C3217 C 0.57222 0.52822 0.86255 0.0
C3218 C 0.54861 0.53508 0.8629 0.0
C3219 C 0.53143 0.5209 0.85267 0.0
C3220 C 0.53786 0.50006 0.84151 0.0
C3221 C 0.56144 0.49316 0.84101 0.0
H3222 H 0.51315 0.52617 0.85315 0.0
H3223 H 0.74194 0.46268 0.86434 0.0
H3224 H 0.53311 0.2973 0.21294 0.0
H3225 H 0.5367 0.33153 0.18737 0.0
H3226 H 0.46931 0.35631 0.21287 0.0
H3227 H 0.46544 0.32101 0.23752 0.0
H3228 H 0.46885 0.35992 0.16783 0.0
H3229 H 0.52414 0.38632 0.22427 0.0
H3230 H 0.5577 0.38664 0.25247 0.0
H3231 H 0.60492 0.37121 0.19413 0.0
H3232 H 0.57162 0.37039 0.16562 0.0
H3233 H 0.4951 0.45888 0.08814 0.0
H3234 H 0.48308 0.43293 0.12125 0.0
H3235 H 0.54254 0.38848 0.10613 0.0
H3236 H 0.55475 0.41429 0.07398 0.0
H3237 H 0.54302 0.40093 0.1509 0.0
H3238 H 0.48286 0.36631 0.09895 0.0
H3239 H 0.44699 0.36367 0.07418 0.0
H3240 H 0.40802 0.40076 0.12847 0.0
H3241 H 0.44364 0.40288 0.1539 0.0
C3242 C 0.51953 0.31052 0.21361 0.0
C3243 C 0.49917 0.30686 0.22724 0.0
C3244 C 0.52152 0.33015 0.19905 0.0
C3245 C 0.50341 0.34687 0.19828 0.0
C3246 C 0.48356 0.34377 0.21308 0.0
C3247 C 0.48142 0.32382 0.22736 0.0
C3248 C 0.50431 0.36597 0.1801 0.0
C3249 C 0.4849 0.36956 0.16475 0.0
C3250 C 0.52519 0.37847 0.17566 0.0
C3251 C 0.54531 0.37813 0.19282 0.0
C3252 C 0.54164 0.38272 0.21749 0.0
C3253 C 0.56064 0.38306 0.23352 0.0
C3254 C 0.58342 0.37891 0.22511 0.0
C3255 C 0.58726 0.37439 0.20063 0.0
C3256 C 0.56832 0.37399 0.18452 0.0
C3257 C 0.50527 0.44331 0.09167 0.0
C3258 C 0.52608 0.43883 0.0787 0.0
C3259 C 0.49834 0.42842 0.11052 0.0
C3260 C 0.51198 0.40873 0.11637 0.0
C3261 C 0.53181 0.40361 0.10224 0.0
C3262 C 0.53883 0.41848 0.08382 0.0
C3263 C 0.50789 0.39487 0.13875 0.0
C3264 C 0.5268 0.39214 0.15479 0.0
C3265 C 0.4864 0.38395 0.14429 0.0
C3266 C 0.46588 0.38507 0.12805 0.0
C3267 C 0.46672 0.37423 0.10537 0.0
C3268 C 0.44637 0.37266 0.09133 0.0
C3269 C 0.42521 0.38221 0.09966 0.0
C3270 C 0.42441 0.39343 0.12202 0.0
C3271 C 0.44463 0.39471 0.1363 0.0
H3272 H 0.40937 0.38076 0.08894 0.0
H3273 H 0.59811 0.37924 0.23754 0.0
H3274 H 0.70516 0.46908 0.24261 0.0
H3275 H 0.67285 0.46706 0.21341 0.0
H3276 H 0.66944 0.54192 0.21162 0.0
H3277 H 0.70256 0.54364 0.24011 0.0
H3278 H 0.62909 0.48068 0.20764 0.0
H3279 H 0.65888 0.55965 0.15713 0.0
H3280 H 0.69347 0.58488 0.15205 0.0
H3281 H 0.73937 0.52645 0.16304 0.0
H3282 H 0.705 0.50095 0.16856 0.0
H3283 H 0.55539 0.51183 0.10861 0.0
H3284 H 0.57764 0.50388 0.14513 0.0
H3285 H 0.63728 0.4829 0.10197 0.0
H3286 H 0.61498 0.49179 0.06511 0.0
H3287 H 0.64842 0.51788 0.12948 0.0
H3288 H 0.61092 0.44387 0.14797 0.0
H3289 H 0.57833 0.41711 0.15509 0.0
H3290 H 0.54849 0.46435 0.20699 0.0
H3291 H 0.58156 0.49119 0.2005 0.0
C3292 C 0.69681 0.48497 0.23655 0.0
C3293 C 0.70593 0.50647 0.24342 0.0
C3294 C 0.67853 0.48389 0.21983 0.0
C3295 C 0.66918 0.50436 0.20989 0.0
C3296 C 0.67682 0.52593 0.21862 0.0
C3297 C 0.69538 0.52696 0.23508 0.0
C3298 C 0.65328 0.50279 0.18881 0.0
C3299 C 0.63325 0.48889 0.19055 0.0
C3300 C 0.6587 0.51345 0.16652 0.0
C3301 C 0.67946 0.52849 0.16337 0.0
C3302 C 0.67638 0.55223 0.15848 0.0
C3303 C 0.69592 0.56657 0.15563 0.0
C3304 C 0.7186 0.55728 0.15736 0.0
C3305 C 0.72178 0.53363 0.1619 0.0
C3306 C 0.7023 0.51925 0.16498 0.0
C3307 C 0.57287 0.50442 0.10694 0.0
C3308 C 0.58363 0.50254 0.08421 0.0
C3309 C 0.58561 0.49982 0.12788 0.0
C3310 C 0.60925 0.49296 0.12639 0.0
C3311 C 0.61908 0.48833 0.10353 0.0
C3312 C 0.6063 0.49309 0.08247 0.0
C3313 C 0.62456 0.49499 0.14799 0.0
C3314 C 0.64428 0.50946 0.14646 0.0
C3315 C 0.61881 0.48495 0.17049 0.0
C3316 C 0.59846 0.46953 0.17356 0.0
C3317 C 0.59726 0.44861 0.16071 0.0
C3318 C 0.57871 0.43339 0.16474 0.0
C3319 C 0.56108 0.4391 0.18137 0.0
C3320 C 0.5621 0.45999 0.19409 0.0
C3321 C 0.58081 0.47513 0.19035 0.0
H3322 H 0.54666 0.42742 0.18459 0.0
H3323 H 0.73372 0.5684 0.1551 0.0
H3324 H 0.51611 0.76661 0.22271 0.0
H3325 H 0.51022 0.73539 0.19346 0.0
H3326 H 0.56313 0.6942 0.22973 0.0
H3327 H 0.57043 0.72635 0.2576 0.0
H3328 H 0.56862 0.68741 0.18547 0.0
H3329 H 0.50121 0.68494 0.23564 0.0
H3330 H 0.46626 0.6996 0.25723 0.0
H3331 H 0.43366 0.71733 0.18971 0.0
H3332 H 0.46857 0.70305 0.16771 0.0
H3333 H 0.53893 0.5841 0.1232 0.0
H3334 H 0.5428 0.61221 0.15615 0.0
H3335 H 0.49655 0.65942 0.11835 0.0
H3336 H 0.49128 0.63056 0.08633 0.0
H3337 H 0.48804 0.66124 0.16513 0.0
H3338 H 0.56097 0.66195 0.11665 0.0
H3339 H 0.5938 0.63925 0.09925 0.0
H3340 H 0.61501 0.61789 0.17029 0.0
H3341 H 0.58224 0.64029 0.18807 0.0
C3342 C 0.52681 0.7511 0.22411 0.0
C3343 C 0.54384 0.74894 0.24238 0.0
C3344 C 0.52314 0.73302 0.20764 0.0
C3345 C 0.5359 0.71209 0.20954 0.0
C3346 C 0.55298 0.71004 0.22779 0.0
C3347 C 0.55698 0.7283 0.2439 0.0
C3348 C 0.53162 0.69245 0.19248 0.0
C3349 C 0.55096 0.68163 0.18127 0.0
C3350 C 0.50866 0.68455 0.18692 0.0
C3351 C 0.48761 0.69315 0.20004 0.0
C3352 C 0.48666 0.69213 0.2254 0.0
C3353 C 0.46685 0.70034 0.23771 0.0
C3354 C 0.44778 0.70945 0.22485 0.0
C3355 C 0.44846 0.7103 0.19965 0.0
C3356 C 0.46825 0.70213 0.18724 0.0
C3357 C 0.5294 0.60039 0.12214 0.0
C3358 C 0.51494 0.60528 0.10221 0.0
C3359 C 0.53178 0.61655 0.14083 0.0
C3360 C 0.52058 0.63833 0.13942 0.0
C3361 C 0.50555 0.64288 0.11981 0.0
C3362 C 0.50252 0.62638 0.10153 0.0
C3363 C 0.52494 0.65667 0.15788 0.0
C3364 C 0.50563 0.6672 0.16934 0.0
C3365 C 0.54794 0.66381 0.16423 0.0
C3366 C 0.5691 0.65266 0.15365 0.0
C3367 C 0.57278 0.65258 0.12854 0.0
C3368 C 0.5913 0.63968 0.11862 0.0
C3369 C 0.60631 0.62696 0.13366 0.0
C3370 C 0.60328 0.62765 0.15868 0.0
C3371 C 0.5848 0.6405 0.16869 0.0
H3372 H 0.62024 0.61648 0.12596 0.0
H3373 H 0.43245 0.7158 0.23442 0.0
H3374 H 0.32042 0.56601 0.22552 0.0
H3375 H 0.35384 0.57385 0.19879 0.0
H3376 H 0.38416 0.50754 0.21738 0.0
H3377 H 0.35058 0.49976 0.24407 0.0
H3378 H 0.41165 0.56519 0.20556 0.0
H3379 H 0.37675 0.48727 0.17425 0.0
H3380 H 0.34169 0.46341 0.16591 0.0
H3381 H 0.30675 0.52251 0.13488 0.0
H3382 H 0.34163 0.54667 0.14317 0.0
H3383 H 0.48748 0.51791 0.11424 0.0
H3384 H 0.46305 0.5292 0.14875 0.0
H3385 H 0.41405 0.56278 0.10044 0.0
H3386 H 0.43861 0.55158 0.06594 0.0
H3387 H 0.39503 0.52657 0.12724 0.0
H3388 H 0.43715 0.59629 0.14207 0.0
H3389 H 0.47089 0.622 0.14884 0.0
H3390 H 0.4917 0.58163 0.21044 0.0
H3391 H 0.4578 0.55575 0.20418 0.0
C3392 C 0.3349 0.55376 0.22484 0.0
C3393 C 0.33331 0.53248 0.237 0.0
C3394 C 0.35379 0.5581 0.20944 0.0
C3395 C 0.37129 0.54121 0.20612 0.0
C3396 C 0.3708 0.52079 0.21987 0.0
C3397 C 0.35185 0.51645 0.23524 0.0
C3398 C 0.38785 0.54334 0.1858 0.0
C3399 C 0.40825 0.55662 0.18847 0.0
C3400 C 0.3829 0.53279 0.16338 0.0
C3401 C 0.36159 0.51873 0.1595 0.0
C3402 C 0.36149 0.49515 0.16581 0.0
C3403 C 0.34173 0.48157 0.161 0.0
C3404 C 0.32203 0.49141 0.1498 0.0
C3405 C 0.32203 0.51489 0.1435 0.0
C3406 C 0.34176 0.52855 0.1483 0.0
C3407 C 0.47196 0.5285 0.11116 0.0
C3408 C 0.46498 0.53419 0.08759 0.0
C3409 C 0.45808 0.535 0.13084 0.0
C3410 C 0.4368 0.54689 0.12714 0.0
C3411 C 0.43055 0.55383 0.10367 0.0
C3412 C 0.44466 0.54763 0.08401 0.0
C3413 C 0.41938 0.54807 0.14693 0.0
C3414 C 0.39862 0.53533 0.14421 0.0
C3415 C 0.42415 0.55912 0.16922 0.0
C3416 C 0.44506 0.57399 0.17254 0.0
C3417 C 0.44906 0.59274 0.1569 0.0
C3418 C 0.46819 0.6074 0.16071 0.0
C3419 C 0.48355 0.6034 0.17998 0.0
C3420 C 0.4798 0.58471 0.19551 0.0
C3421 C 0.46056 0.57009 0.19191 0.0
H3422 H 0.49828 0.61484 0.18301 0.0
H3423 H 0.30673 0.48089 0.14612 0.0
H3424 H 0.75718 0.47597 0.71026 0.0
H3425 H 0.7913 0.47808 0.68322 0.0
H3426 H 0.81601 0.53809 0.7225 0.0
H3427 H 0.78025 0.53803 0.74626 0.0
H3428 H 0.82812 0.54502 0.68277 0.0
H3429 H 0.83596 0.47522 0.72921 0.0
H3430 H 0.82503 0.43674 0.7449 0.0
H3431 H 0.82414 0.40939 0.67272 0.0
H3432 H 0.83499 0.44774 0.65662 0.0
H3433 H 0.94569 0.53596 0.63492 0.0
H3434 H 0.91337 0.53406 0.66465 0.0
H3435 H 0.8761 0.48688 0.61802 0.0
H3436 H 0.90806 0.48831 0.58901 0.0
H3437 H 0.87301 0.47346 0.66375 0.0
H3438 H 0.85359 0.55153 0.62212 0.0
H3439 H 0.86076 0.59276 0.61241 0.0
H3440 H 0.88716 0.60426 0.68404 0.0
H3441 H 0.87973 0.56326 0.69425 0.0
C3442 C 0.76966 0.48993 0.71247 0.0
C3443 C 0.76659 0.50642 0.73086 0.0
C3444 C 0.78948 0.49084 0.69744 0.0
C3445 C 0.80705 0.50763 0.70136 0.0
C3446 C 0.80314 0.52471 0.71905 0.0
C3447 C 0.78287 0.52444 0.73308 0.0
C3448 C 0.82943 0.50783 0.68722 0.0
C3449 C 0.83803 0.52927 0.67915 0.0
C3450 C 0.84265 0.48746 0.68208 0.0
C3451 C 0.83617 0.46438 0.69172 0.0
C3452 C 0.83341 0.461 0.7167 0.0
C3453 C 0.82722 0.43921 0.72566 0.0
C3454 C 0.82385 0.42064 0.70981 0.0
C3455 C 0.82674 0.42379 0.68497 0.0
C3456 C 0.83296 0.44554 0.67593 0.0
C3457 C 0.93059 0.52516 0.63125 0.0
C3458 C 0.92922 0.51257 0.60961 0.0
C3459 C 0.91212 0.52419 0.64807 0.0
C3460 C 0.89202 0.51085 0.64324 0.0
C3461 C 0.89129 0.49745 0.62212 0.0
C3462 C 0.90969 0.49821 0.60558 0.0
C3463 C 0.87146 0.51058 0.65975 0.0
C3464 C 0.86314 0.48909 0.66801 0.0
C3465 C 0.85897 0.53094 0.66601 0.0
C3466 C 0.8665 0.55438 0.65877 0.0
C3467 C 0.86127 0.56281 0.63561 0.0
C3468 C 0.8651 0.58618 0.63012 0.0
C3469 C 0.8743 0.60113 0.6476 0.0
C3470 C 0.87991 0.59271 0.67056 0.0
C3471 C 0.87592 0.56944 0.67619 0.0
H3472 H 0.87729 0.61918 0.64329 0.0
H3473 H 0.81902 0.40379 0.71677 0.0
H3474 H 0.56436 0.81536 0.72615 0.0
H3475 H 0.55254 0.84369 0.69545 0.0
H3476 H 0.48834 0.80597 0.68331 0.0
H3477 H 0.49957 0.77833 0.71529 0.0
H3478 H 0.5215 0.82109 0.63952 0.0
H3479 H 0.47682 0.84788 0.70823 0.0
H3480 H 0.47216 0.85845 0.75112 0.0
H3481 H 0.52319 0.91248 0.74306 0.0
H3482 H 0.52861 0.90187 0.70026 0.0
H3483 H 0.49424 0.91446 0.55891 0.0
H3484 H 0.48766 0.88394 0.58901 0.0
H3485 H 0.53581 0.91791 0.63768 0.0
H3486 H 0.54195 0.94844 0.6083 0.0
H3487 H 0.50085 0.9019 0.66246 0.0
H3488 H 0.55273 0.87193 0.60051 0.0
H3489 H 0.56377 0.86132 0.55884 0.0
H3490 H 0.50558 0.81428 0.55506 0.0
H3491 H 0.49405 0.82484 0.59664 0.0
C3492 C 0.54756 0.81341 0.71722 0.0
C3493 C 0.53281 0.79487 0.72313 0.0
C3494 C 0.54094 0.8294 0.69959 0.0
C3495 C 0.51957 0.82689 0.68725 0.0
C3496 C 0.50492 0.8081 0.69267 0.0
C3497 C 0.51138 0.79231 0.71075 0.0
C3498 C 0.5129 0.8442 0.66878 0.0
C3499 C 0.51632 0.83862 0.64438 0.0
C3500 C 0.50685 0.86716 0.67538 0.0
C3501 C 0.50328 0.8739 0.70104 0.0
C3502 C 0.48723 0.86186 0.71565 0.0
C3503 C 0.48443 0.86788 0.73995 0.0
C3504 C 0.49741 0.88608 0.74983 0.0
C3505 C 0.51317 0.89835 0.7354 0.0
C3506 C 0.5161 0.89234 0.71111 0.0
C3507 C 0.50318 0.91552 0.57615 0.0
C3508 C 0.51881 0.93376 0.58107 0.0
C3509 C 0.49947 0.89804 0.5933 0.0
C3510 C 0.51147 0.89846 0.61553 0.0
C3511 C 0.5263 0.91717 0.62073 0.0
C3512 C 0.5299 0.9346 0.60377 0.0
C3513 C 0.50998 0.87901 0.63306 0.0
C3514 C 0.50522 0.88421 0.65738 0.0
C3515 C 0.5154 0.85583 0.62647 0.0
C3516 C 0.52234 0.84941 0.60153 0.0
C3517 C 0.54219 0.85946 0.59071 0.0
C3518 C 0.54855 0.85343 0.56713 0.0
C3519 C 0.53533 0.8372 0.55428 0.0
C3520 C 0.51577 0.82689 0.56502 0.0
C3521 C 0.50931 0.83289 0.58859 0.0
H3522 H 0.54028 0.83255 0.53603 0.0
H3523 H 0.49522 0.89072 0.76865 0.0
H3524 H 0.28106 0.55665 0.6982 0.0
H3525 H 0.25369 0.55121 0.66443 0.0
H3526 H 0.21856 0.49728 0.70441 0.0
H3527 H 0.24751 0.501 0.73666 0.0
H3528 H 0.21821 0.48552 0.66075 0.0
H3529 H 0.20244 0.55739 0.70165 0.0
H3530 H 0.20933 0.59697 0.71671 0.0
H3531 H 0.21958 0.62092 0.64409 0.0
H3532 H 0.21277 0.58139 0.62861 0.0
H3533 H 0.10624 0.48734 0.60557 0.0
H3534 H 0.13968 0.49007 0.63303 0.0
H3535 H 0.17038 0.5427 0.58761 0.0
H3536 H 0.1358 0.54128 0.56122 0.0
H3537 H 0.17517 0.55494 0.63124 0.0
H3538 H 0.18976 0.48117 0.59098 0.0
H3539 H 0.17692 0.44233 0.57771 0.0
H3540 H 0.16576 0.42243 0.65147 0.0
H3541 H 0.17827 0.46119 0.66517 0.0
C3542 C 0.26777 0.54334 0.69942 0.0
C3543 C 0.26594 0.52966 0.72027 0.0
C3544 C 0.25195 0.54041 0.6803 0.0
C3545 C 0.23354 0.5243 0.6821 0.0
C3546 C 0.23239 0.51001 0.70259 0.0
C3547 C 0.24864 0.51245 0.72129 0.0
C3548 C 0.21494 0.52274 0.66326 0.0
C3549 C 0.20878 0.50073 0.65437 0.0
C3550 C 0.20274 0.54258 0.65459 0.0
C3551 C 0.20716 0.56633 0.66398 0.0
C3552 C 0.20616 0.57106 0.68889 0.0
C3553 C 0.21008 0.5935 0.6975 0.0
C3554 C 0.21492 0.61146 0.68137 0.0
C3555 C 0.21583 0.60699 0.65658 0.0
C3556 C 0.21191 0.58456 0.64788 0.0
C3557 C 0.12027 0.49933 0.60139 0.0
C3558 C 0.11864 0.51397 0.58125 0.0
C3559 C 0.13948 0.50077 0.61698 0.0
C3560 C 0.15801 0.51611 0.61209 0.0
C3561 C 0.15643 0.53062 0.59174 0.0
C3562 C 0.13675 0.52977 0.57662 0.0
C3563 C 0.17849 0.51778 0.62875 0.0
C3564 C 0.18493 0.5398 0.63728 0.0
C3565 C 0.19074 0.49796 0.6373 0.0
C3566 C 0.18485 0.47414 0.62909 0.0
C3567 C 0.18464 0.46848 0.60437 0.0
C3568 C 0.17736 0.44651 0.59677 0.0
C3569 C 0.17041 0.42999 0.61373 0.0
C3570 C 0.1711 0.43527 0.63835 0.0
C3571 C 0.17835 0.45721 0.64605 0.0
H3572 H 0.16445 0.41312 0.60781 0.0
H3573 H 0.21796 0.62883 0.68807 0.0
H3574 H 0.44693 0.24562 0.69341 0.0
H3575 H 0.44948 0.22192 0.65648 0.0
H3576 H 0.52052 0.20239 0.67552 0.0
H3577 H 0.51798 0.2267 0.71173 0.0
H3578 H 0.51741 0.204 0.62866 0.0
H3579 H 0.47033 0.16884 0.69264 0.0
H3580 H 0.43702 0.16626 0.72106 0.0
H3581 H 0.38831 0.17357 0.66221 0.0
H3582 H 0.42134 0.17604 0.63345 0.0
H3583 H 0.53656 0.08756 0.6042 0.0
H3584 H 0.52554 0.12357 0.62454 0.0
H3585 H 0.46704 0.13212 0.5757 0.0
H3586 H 0.47879 0.09634 0.5545 0.0
H3587 H 0.45817 0.14108 0.62803 0.0
H3588 H 0.50853 0.16392 0.56389 0.0
H3589 H 0.54352 0.16148 0.53773 0.0
H3590 H 0.58813 0.17491 0.59869 0.0
H3591 H 0.55347 0.17697 0.62533 0.0
C3592 C 0.46331 0.23698 0.68898 0.0
C3593 C 0.48237 0.23801 0.70501 0.0
C3594 C 0.46471 0.22321 0.66814 0.0
C3595 C 0.48503 0.20991 0.66344 0.0
C3596 C 0.50465 0.21243 0.67865 0.0
C3597 C 0.5033 0.22635 0.69926 0.0
C3598 C 0.48529 0.19151 0.6445 0.0
C3599 C 0.5044 0.19031 0.62846 0.0
C3600 C 0.46803 0.17384 0.64371 0.0
C3601 C 0.44824 0.17294 0.661 0.0
C3602 C 0.4525 0.17006 0.68582 0.0
C3603 C 0.43369 0.16855 0.70196 0.0
C3604 C 0.41058 0.1699 0.69346 0.0
C3605 C 0.40622 0.17262 0.66878 0.0
C3606 C 0.42496 0.17402 0.65255 0.0
C3607 C 0.52101 0.09682 0.59813 0.0
C3608 C 0.50807 0.08882 0.57821 0.0
C3609 C 0.51488 0.11748 0.60962 0.0
C3610 C 0.49569 0.1306 0.60141 0.0
C3611 C 0.48192 0.12216 0.58227 0.0
C3612 C 0.48827 0.10147 0.57053 0.0
C3613 C 0.49064 0.15325 0.61296 0.0
C3614 C 0.47073 0.15519 0.62765 0.0
C3615 C 0.50735 0.17137 0.61271 0.0
C3616 C 0.52832 0.17047 0.59668 0.0
C3617 C 0.5258 0.16618 0.57178 0.0
C3618 C 0.54559 0.16488 0.55685 0.0
C3619 C 0.56803 0.16801 0.56655 0.0
C3620 C 0.57073 0.17249 0.5912 0.0
C3621 C 0.551 0.17375 0.60622 0.0
H3622 H 0.58333 0.16699 0.55497 0.0
H3623 H 0.39605 0.16874 0.706 0.0
H3624 H 0.75659 0.52982 0.31792 0.0
H3625 H 0.78291 0.52889 0.35306 0.0
H3626 H 0.81984 0.47035 0.32204 0.0
H3627 H 0.79199 0.47001 0.28841 0.0
H3628 H 0.81962 0.46542 0.36742 0.0
H3629 H 0.83586 0.52814 0.3145 0.0
H3630 H 0.82659 0.56336 0.29117 0.0
H3631 H 0.81473 0.60118 0.35691 0.0
H3632 H 0.82281 0.56588 0.38068 0.0
H3633 H 0.92922 0.48143 0.42778 0.0
H3634 H 0.89704 0.47662 0.39912 0.0
H3635 H 0.86052 0.5347 0.43154 0.0
H3636 H 0.89368 0.54059 0.45908 0.0
H3637 H 0.85999 0.5394 0.38581 0.0
H3638 H 0.84479 0.4715 0.43752 0.0
H3639 H 0.85617 0.43444 0.45656 0.0
H3640 H 0.87235 0.40552 0.38704 0.0
H3641 H 0.86116 0.4424 0.36757 0.0
C3642 C 0.77005 0.51652 0.31905 0.0
C3643 C 0.77298 0.50047 0.30026 0.0
C3644 C 0.78517 0.51609 0.33891 0.0
C3645 C 0.80386 0.50005 0.33977 0.0
C3646 C 0.8058 0.48312 0.32162 0.0
C3647 C 0.79026 0.48319 0.30217 0.0
C3648 C 0.82222 0.5017 0.35867 0.0
C3649 C 0.82851 0.48159 0.3714 0.0
C3650 C 0.83396 0.52277 0.3637 0.0
C3651 C 0.8297 0.54423 0.34941 0.0
C3652 C 0.83106 0.54389 0.32403 0.0
C3653 C 0.82596 0.56387 0.3107 0.0
C3654 C 0.82014 0.58451 0.32255 0.0
C3655 C 0.81925 0.58517 0.34775 0.0
C3656 C 0.82397 0.56514 0.36116 0.0
C3657 C 0.9141 0.49289 0.42904 0.0
C3658 C 0.91379 0.51131 0.44565 0.0
C3659 C 0.89562 0.49005 0.41273 0.0
C3660 C 0.87604 0.505 0.4134 0.0
C3661 C 0.8754 0.52291 0.43066 0.0
C3662 C 0.89424 0.52622 0.44645 0.0
C3663 C 0.85705 0.5032 0.39506 0.0
C3664 C 0.85083 0.52331 0.38216 0.0
C3665 C 0.84595 0.48196 0.38929 0.0
C3666 C 0.85228 0.45975 0.40114 0.0
C3667 C 0.85085 0.45726 0.42633 0.0
C3668 C 0.85728 0.43627 0.43718 0.0
C3669 C 0.86511 0.41769 0.42303 0.0
C3670 C 0.86634 0.41995 0.39797 0.0
C3671 C 0.8599 0.44085 0.38702 0.0
H3672 H 0.87023 0.40153 0.43139 0.0
H3673 H 0.81633 0.6 0.3122 0.0
H3674 H 0.58759 0.79914 0.32529 0.0
H3675 H 0.58154 0.82332 0.36135 0.0
H3676 H 0.50644 0.81706 0.35249 0.0
H3677 H 0.51273 0.79284 0.3166 0.0
H3678 H 0.56066 0.86462 0.35674 0.0
H3679 H 0.47905 0.82908 0.40651 0.0
H3680 H 0.46157 0.79154 0.41754 0.0
H3681 H 0.52976 0.75927 0.41524 0.0
H3682 H 0.54773 0.79673 0.40461 0.0
H3683 H 0.49114 0.95044 0.41488 0.0
H3684 H 0.50547 0.91761 0.39114 0.0
H3685 H 0.53512 0.88688 0.45536 0.0
H3686 H 0.52063 0.91973 0.47941 0.0
H3687 H 0.50907 0.85587 0.4282 0.0
H3688 H 0.56804 0.9129 0.41585 0.0
H3689 H 0.58773 0.94891 0.40364 0.0
H3690 H 0.56524 0.93857 0.33042 0.0
H3691 H 0.54502 0.90264 0.34219 0.0
C3692 C 0.5699 0.80212 0.33184 0.0
C3693 C 0.5506 0.79403 0.31858 0.0
C3694 C 0.56641 0.81606 0.35222 0.0
C3695 C 0.54354 0.82202 0.35964 0.0
C3696 C 0.52424 0.81242 0.34739 0.0
C3697 C 0.52778 0.79852 0.32699 0.0
C3698 C 0.53983 0.84089 0.37755 0.0
C3699 C 0.54944 0.86272 0.37243 0.0
C3700 C 0.52528 0.83832 0.39806 0.0
C3701 C 0.51471 0.8157 0.40456 0.0
C3702 C 0.49034 0.814 0.40845 0.0
C3703 C 0.48034 0.79273 0.41462 0.0
C3704 C 0.49454 0.77301 0.417 0.0
C3705 C 0.51878 0.77455 0.41329 0.0
C3706 C 0.52888 0.79579 0.40716 0.0
C3707 C 0.50075 0.93675 0.424 0.0
C3708 C 0.50474 0.93768 0.44906 0.0
C3709 C 0.50902 0.91805 0.41036 0.0
C3710 C 0.52144 0.89989 0.42147 0.0
C3711 C 0.52554 0.90074 0.44647 0.0
C3712 C 0.51737 0.91955 0.46014 0.0
C3713 C 0.52943 0.87972 0.40698 0.0
C3714 C 0.52045 0.85775 0.41263 0.0
C3715 C 0.54431 0.88226 0.38669 0.0
C3716 C 0.555 0.90488 0.37996 0.0
C3717 C 0.56697 0.91838 0.3972 0.0
C3718 C 0.57831 0.93878 0.39033 0.0
C3719 C 0.57786 0.9459 0.36625 0.0
C3720 C 0.56567 0.93293 0.34906 0.0
C3721 C 0.55428 0.91253 0.35583 0.0
H3722 H 0.58713 0.96135 0.36086 0.0
H3723 H 0.48676 0.75655 0.42177 0.0
H3724 H 0.23104 0.54707 0.24571 0.0
H3725 H 0.19577 0.54668 0.27004 0.0
H3726 H 0.23702 0.52624 0.33217 0.0
H3727 H 0.27147 0.52204 0.30634 0.0
H3728 H 0.20239 0.5044 0.3362 0.0
H3729 H 0.20874 0.58536 0.31922 0.0
H3730 H 0.21256 0.62086 0.29473 0.0
H3731 H 0.14797 0.60517 0.25812 0.0
H3732 H 0.1439 0.56945 0.28219 0.0
H3733 H 0.09674 0.56325 0.40106 0.0
H3734 H 0.12945 0.56659 0.37296 0.0
H3735 H 0.12167 0.49453 0.35331 0.0
H3736 H 0.08953 0.49081 0.38225 0.0
H3737 H 0.13914 0.56349 0.32905 0.0
H3738 H 0.17222 0.46872 0.34463 0.0
H3739 H 0.17434 0.43977 0.37745 0.0
H3740 H 0.16858 0.4941 0.43026 0.0
H3741 H 0.16644 0.52331 0.39782 0.0
C3742 C 0.23252 0.54171 0.26432 0.0
C3743 C 0.25399 0.53368 0.27381 0.0
C3744 C 0.21232 0.54231 0.27859 0.0
C3745 C 0.21341 0.53672 0.30328 0.0
C3746 C 0.23534 0.53036 0.31317 0.0
C3747 C 0.25525 0.52842 0.29851 0.0
C3748 C 0.19166 0.53611 0.31844 0.0
C3749 C 0.18875 0.51752 0.3346 0.0
C3750 C 0.17366 0.55323 0.31695 0.0
C3751 C 0.17613 0.57464 0.30236 0.0
C3752 C 0.19544 0.58941 0.30583 0.0
C3753 C 0.19763 0.60958 0.29204 0.0
C3754 C 0.18055 0.61524 0.27485 0.0
C3755 C 0.1612 0.60076 0.27143 0.0
C3756 C 0.15893 0.58057 0.28515 0.0
C3757 C 0.10163 0.54822 0.39039 0.0
C3758 C 0.0907 0.5267 0.39409 0.0
C3759 C 0.12043 0.55014 0.37433 0.0
C3760 C 0.12848 0.53067 0.36143 0.0
C3761 C 0.11627 0.50964 0.36359 0.0
C3762 C 0.09772 0.5076 0.37996 0.0
C3763 C 0.15033 0.53212 0.34678 0.0
C3764 C 0.15303 0.5506 0.33059 0.0
C3765 C 0.16884 0.51581 0.34936 0.0
C3766 C 0.16898 0.49814 0.36881 0.0
C3767 C 0.17132 0.47444 0.36325 0.0
C3768 C 0.17253 0.45801 0.38178 0.0
C3769 C 0.17167 0.46513 0.40591 0.0
C3770 C 0.16922 0.48863 0.41156 0.0
C3771 C 0.16791 0.50511 0.39313 0.0
H3772 H 0.1731 0.45251 0.42026 0.0
H3773 H 0.18228 0.63086 0.2642 0.0
H3774 H 0.53557 0.24615 0.28706 0.0
H3775 H 0.5405 0.21896 0.32107 0.0
H3776 H 0.46782 0.19903 0.31426 0.0
H3777 H 0.46319 0.2257 0.27989 0.0
H3778 H 0.48664 0.21271 0.36412 0.0
H3779 H 0.4988 0.1615 0.29555 0.0
H3780 H 0.51759 0.14791 0.258 0.0
H3781 H 0.58494 0.14749 0.29316 0.0
H3782 H 0.56644 0.16088 0.33105 0.0
H3783 H 0.46428 0.11411 0.43086 0.0
H3784 H 0.46906 0.1441 0.40106 0.0
H3785 H 0.54404 0.13223 0.40056 0.0
H3786 H 0.53905 0.10028 0.42967 0.0
H3787 H 0.53012 0.13817 0.35679 0.0
H3788 H 0.51566 0.18292 0.42806 0.0
H3789 H 0.49512 0.19339 0.46577 0.0
H3790 H 0.43157 0.20633 0.42598 0.0
H3791 H 0.45162 0.19569 0.38807 0.0
C3792 C 0.5207 0.23604 0.29307 0.0
C3793 C 0.49894 0.23804 0.28122 0.0
C3794 C 0.52354 0.22046 0.31227 0.0
C3795 C 0.50452 0.207 0.32012 0.0
C3796 C 0.48269 0.20927 0.30847 0.0
C3797 C 0.48002 0.22445 0.28896 0.0
C3798 C 0.50713 0.19078 0.34074 0.0
C3799 C 0.4961 0.19638 0.3626 0.0
C3800 C 0.52007 0.16986 0.33888 0.0
C3801 C 0.53132 0.16259 0.31597 0.0
C3802 C 0.51766 0.15884 0.29517 0.0
C3803 C 0.52824 0.15107 0.27386 0.0
C3804 C 0.55249 0.14711 0.27309 0.0
C3805 C 0.56618 0.1507 0.29372 0.0
C3806 C 0.55565 0.1583 0.31515 0.0
C3807 C 0.48195 0.11794 0.42482 0.0
C3808 C 0.50137 0.10489 0.43302 0.0
C3809 C 0.48466 0.13539 0.40775 0.0
C3810 C 0.507 0.14118 0.39902 0.0
C3811 C 0.52661 0.12833 0.40721 0.0
C3812 C 0.5238 0.11017 0.42394 0.0
C3813 C 0.5092 0.15976 0.38036 0.0
C3814 C 0.52113 0.15471 0.35875 0.0
C3815 C 0.49709 0.1813 0.3825 0.0
C3816 C 0.48517 0.18845 0.40521 0.0
C3817 C 0.4973 0.18797 0.42735 0.0
C3818 C 0.48573 0.19392 0.44877 0.0
C3819 C 0.46206 0.20051 0.44827 0.0
C3820 C 0.44992 0.20126 0.42634 0.0
C3821 C 0.4614 0.19533 0.40487 0.0
H3822 H 0.45312 0.20504 0.46488 0.0
H3823 H 0.56065 0.14112 0.25655 0.0
H3824 H 0.7501 0.83888 0.52251 0.0
H3825 H 0.71481 0.86235 0.52601 0.0
H3826 H 0.6743 0.80735 0.4934 0.0
H3827 H 0.71074 0.78501 0.48706 0.0
H3828 H 0.65861 0.84255 0.47575 0.0
H3829 H 0.67062 0.82695 0.55805 0.0
H3830 H 0.69184 0.82229 0.59659 0.0
H3831 H 0.70811 0.89493 0.59708 0.0
H3832 H 0.68728 0.90001 0.55838 0.0
H3833 H 0.56363 0.92479 0.49082 0.0
H3834 H 0.58718 0.88969 0.49821 0.0
H3835 H 0.64782 0.93206 0.5129 0.0
H3836 H 0.62449 0.96697 0.5058 0.0
H3837 H 0.645 0.89609 0.5445 0.0
H3838 H 0.63848 0.9049 0.45504 0.0
H3839 H 0.61686 0.90525 0.41634 0.0
H3840 H 0.58499 0.84009 0.43404 0.0
H3841 H 0.60662 0.83928 0.47275 0.0
C3842 C 0.73369 0.83186 0.5159 0.0
C3843 C 0.7333 0.81035 0.50399 0.0
C3844 C 0.71324 0.84511 0.51846 0.0
C3845 C 0.69139 0.83667 0.51052 0.0
C3846 C 0.69077 0.81448 0.49973 0.0
C3847 C 0.71155 0.80153 0.49632 0.0
C3848 C 0.66991 0.85195 0.51167 0.0
C3849 C 0.65539 0.85374 0.49117 0.0
C3850 C 0.66511 0.86667 0.53171 0.0
C3851 C 0.67741 0.86383 0.55522 0.0
C3852 C 0.67879 0.84193 0.56632 0.0
C3853 C 0.69076 0.83921 0.5882 0.0
C3854 C 0.70133 0.8583 0.59927 0.0
C3855 C 0.69989 0.88016 0.5885 0.0
C3856 C 0.68795 0.88298 0.56661 0.0
C3857 C 0.5819 0.92662 0.49592 0.0
C3858 C 0.59218 0.94875 0.49753 0.0
C3859 C 0.5954 0.9065 0.49999 0.0
C3860 C 0.61943 0.90814 0.50579 0.0
C3861 C 0.62937 0.93025 0.50841 0.0
C3862 C 0.61598 0.95027 0.50427 0.0
C3863 C 0.6348 0.88718 0.50828 0.0
C3864 C 0.64805 0.88434 0.5295 0.0
C3865 C 0.63784 0.87094 0.48934 0.0
C3866 C 0.62402 0.87211 0.46675 0.0
C3867 C 0.62671 0.89076 0.45073 0.0
C3868 C 0.61456 0.89098 0.42877 0.0
C3869 C 0.59966 0.87265 0.42273 0.0
C3870 C 0.59663 0.85421 0.43873 0.0
C3871 C 0.60887 0.85383 0.46062 0.0
H3872 H 0.59058 0.87265 0.40558 0.0
H3873 H 0.71062 0.85615 0.61619 0.0
H3874 H 0.71938 0.2454 0.53005 0.0
H3875 H 0.68209 0.2247 0.53359 0.0
H3876 H 0.69497 0.19227 0.46439 0.0
H3877 H 0.72956 0.21633 0.45916 0.0
H3878 H 0.65403 0.19134 0.46712 0.0
H3879 H 0.7102 0.16933 0.52965 0.0
H3880 H 0.73572 0.17652 0.56494 0.0
H3881 H 0.67593 0.19956 0.60595 0.0
H3882 H 0.65012 0.19272 0.57082 0.0
H3883 H 0.60821 0.0777 0.51915 0.0
H3884 H 0.63636 0.10958 0.52416 0.0
H3885 H 0.58387 0.15821 0.49913 0.0
H3886 H 0.55627 0.12638 0.49309 0.0
H3887 H 0.64218 0.15179 0.54568 0.0
H3888 H 0.60223 0.18888 0.45927 0.0
H3889 H 0.58133 0.17449 0.42308 0.0
H3890 H 0.61924 0.11 0.42743 0.0
H3891 H 0.64011 0.12395 0.46372 0.0
C3892 C 0.71352 0.2347 0.51515 0.0
C3893 C 0.72754 0.23222 0.49444 0.0
C3894 C 0.69253 0.22221 0.51747 0.0
C3895 C 0.68602 0.20566 0.49994 0.0
C3896 C 0.69935 0.20448 0.47854 0.0
C3897 C 0.71945 0.21804 0.47562 0.0
C3898 C 0.66632 0.18877 0.50402 0.0
C3899 C 0.65167 0.18289 0.48443 0.0
C3900 C 0.66285 0.17707 0.52639 0.0
C3901 C 0.6783 0.18073 0.54759 0.0
C3902 C 0.70253 0.17596 0.5462 0.0
C3903 C 0.71704 0.18 0.56615 0.0
C3904 C 0.70746 0.18854 0.58765 0.0
C3905 C 0.68333 0.19298 0.58928 0.0
C3906 C 0.66876 0.18901 0.56937 0.0
C3907 C 0.6025 0.09532 0.51558 0.0
C3908 C 0.58018 0.09965 0.50564 0.0
C3909 C 0.6186 0.11353 0.51833 0.0
C3910 C 0.61244 0.13623 0.5114 0.0
C3911 C 0.58924 0.14079 0.50401 0.0
C3912 C 0.57339 0.12263 0.50079 0.0
C3913 C 0.63073 0.15449 0.5088 0.0
C3914 C 0.64483 0.16053 0.52857 0.0
C3915 C 0.63465 0.16546 0.48634 0.0
C3916 C 0.62266 0.15745 0.46411 0.0
C3917 C 0.60617 0.17171 0.45236 0.0
C3918 C 0.59426 0.16358 0.43193 0.0
C3919 C 0.59897 0.14136 0.42296 0.0
C3920 C 0.61557 0.12719 0.43441 0.0
C3921 C 0.62737 0.13516 0.45494 0.0
H3922 H 0.58977 0.13512 0.40713 0.0
H3923 H 0.71873 0.19169 0.60306 0.0
H3924 H 0.81856 0.76485 0.53461 0.0
H3925 H 0.8461 0.73206 0.5352 0.0
H3926 H 0.81016 0.70166 0.47442 0.0
H3927 H 0.78341 0.7355 0.47293 0.0
H3928 H 0.82436 0.66993 0.51708 0.0
H3929 H 0.85347 0.72231 0.45783 0.0
H3930 H 0.86346 0.76106 0.4423 0.0
H3931 H 0.91568 0.76865 0.49774 0.0
H3932 H 0.9056 0.7301 0.514 0.0
H3933 H 0.9217 0.59388 0.48371 0.0
H3934 H 0.89361 0.62581 0.47764 0.0
H3935 H 0.91458 0.65591 0.54555 0.0
H3936 H 0.94204 0.62353 0.55226 0.0
H3937 H 0.90721 0.68676 0.49512 0.0
H3938 H 0.87368 0.6345 0.556 0.0
H3939 H 0.86302 0.5953 0.56966 0.0
H3940 H 0.81786 0.58716 0.50811 0.0
H3941 H 0.82907 0.62601 0.4935 0.0
C3942 C 0.81678 0.75139 0.52117 0.0
C3943 C 0.79943 0.75299 0.50323 0.0
C3944 C 0.83229 0.73251 0.52172 0.0
C3945 C 0.83032 0.71457 0.50469 0.0
C3946 C 0.81201 0.71537 0.48767 0.0
C3947 C 0.79679 0.73459 0.48683 0.0
C3948 C 0.84834 0.69583 0.50406 0.0
C3949 C 0.84238 0.67353 0.51199 0.0
C3950 C 0.87187 0.70054 0.49742 0.0
C3951 C 0.87858 0.72342 0.48732 0.0
C3952 C 0.86694 0.73232 0.46687 0.0
C3953 C 0.87263 0.75424 0.45791 0.0
C3954 C 0.89015 0.76733 0.46907 0.0
C3955 C 0.90208 0.75849 0.48915 0.0
C3956 C 0.89639 0.73659 0.49825 0.0
C3957 C 0.92055 0.60745 0.49722 0.0
C3958 C 0.93399 0.60614 0.51853 0.0
C3959 C 0.90449 0.62565 0.49371 0.0
C3960 C 0.90201 0.64315 0.51117 0.0
C3961 C 0.91628 0.64256 0.53186 0.0
C3962 C 0.93187 0.62403 0.53571 0.0
C3963 C 0.88331 0.66106 0.50871 0.0
C3964 C 0.88915 0.68317 0.50009 0.0
C3965 C 0.85962 0.65611 0.51447 0.0
C3966 C 0.85253 0.63298 0.52345 0.0
C3967 C 0.86175 0.62423 0.54518 0.0
C3968 C 0.85555 0.6021 0.55315 0.0
C3969 C 0.83975 0.58875 0.5398 0.0
C3970 C 0.83014 0.5975 0.51841 0.0
C3971 C 0.83647 0.61955 0.51024 0.0
H3972 H 0.83493 0.57164 0.54604 0.0
H3973 H 0.89453 0.7843 0.46211 0.0
H3974 H 0.29224 0.78541 0.54709 0.0
H3975 H 0.3235 0.81473 0.54715 0.0
H3976 H 0.31822 0.8202 0.46968 0.0
H3977 H 0.28675 0.79107 0.46975 0.0
H3978 H 0.3659 0.81904 0.48738 0.0
H3979 H 0.29519 0.86372 0.49686 0.0
H3980 H 0.25667 0.87485 0.51376 0.0
H3981 H 0.28712 0.87941 0.5846 0.0
H3982 H 0.32602 0.86888 0.56793 0.0
H3983 H 0.42441 0.92932 0.47604 0.0
H3984 H 0.39668 0.89697 0.47327 0.0
H3985 H 0.39498 0.89236 0.55096 0.0
H3986 H 0.42256 0.92453 0.5539 0.0
H3987 H 0.35095 0.89268 0.53139 0.0
H3988 H 0.42435 0.85267 0.51766 0.0
H3989 H 0.46206 0.84519 0.49709 0.0
H3990 H 0.42556 0.83271 0.43046 0.0
H3991 H 0.3876 0.84052 0.45055 0.0
C3992 C 0.29817 0.79252 0.53009 0.0
C3993 C 0.28744 0.78579 0.50836 0.0
C3994 C 0.31583 0.8094 0.53012 0.0
C3995 C 0.32322 0.81965 0.50839 0.0
C3996 C 0.31292 0.81245 0.48662 0.0
C3997 C 0.29501 0.79587 0.48665 0.0
C3998 C 0.34097 0.83854 0.50859 0.0
C3999 C 0.3626 0.83525 0.49679 0.0
C4000 C 0.33673 0.85963 0.5209 0.0
C4001 C 0.31338 0.86525 0.53122 0.0
C4002 C 0.2936 0.8669 0.51607 0.0
C4003 C 0.27174 0.87321 0.52559 0.0
C4004 C 0.26937 0.87758 0.5503 0.0
C4005 C 0.28895 0.87592 0.56549 0.0
C4006 C 0.31095 0.86993 0.55599 0.0
C4007 C 0.41822 0.92134 0.49253 0.0
C4008 C 0.4257 0.9296 0.5152 0.0
C4009 C 0.40244 0.90278 0.49091 0.0
C4010 C 0.39381 0.89213 0.51192 0.0
C4011 C 0.40138 0.90027 0.53451 0.0
C4012 C 0.41721 0.91868 0.53614 0.0
C4013 C 0.37618 0.87314 0.51056 0.0
C4014 C 0.35444 0.87645 0.52208 0.0
C4015 C 0.38031 0.85225 0.49765 0.0
C4016 C 0.40312 0.84744 0.48557 0.0
C4017 C 0.42435 0.84854 0.49857 0.0
C4018 C 0.44578 0.84421 0.487 0.0
C4019 C 0.44621 0.83856 0.46246 0.0
C4020 C 0.4252 0.83715 0.44946 0.0
C4021 C 0.40372 0.84152 0.46093 0.0
H4022 H 0.46281 0.83521 0.45355 0.0
H4023 H 0.25239 0.88237 0.55764 0.0
H4024 H 0.25672 0.32187 0.55401 0.0
H4025 H 0.23153 0.35589 0.54591 0.0
H4026 H 0.18738 0.3135 0.5003 0.0
H4027 H 0.21365 0.28062 0.50678 0.0
H4028 H 0.18809 0.35115 0.48125 0.0
H4029 H 0.17505 0.32954 0.56385 0.0
H4030 H 0.18557 0.32147 0.60626 0.0
H4031 H 0.21096 0.39107 0.61444 0.0
H4032 H 0.20077 0.39948 0.57199 0.0
H4033 H 0.08509 0.41953 0.48004 0.0
H4034 H 0.112 0.38803 0.49094 0.0
H4035 H 0.15875 0.43733 0.52432 0.0
H4036 H 0.1315 0.46878 0.51435 0.0
H4037 H 0.15786 0.39807 0.54971 0.0
H4038 H 0.1642 0.41689 0.46326 0.0
H4039 H 0.1486 0.42016 0.42178 0.0
H4040 H 0.12905 0.34845 0.42272 0.0
H4041 H 0.14401 0.34476 0.46436 0.0
C4042 C 0.24202 0.32028 0.54169 0.0
C4043 C 0.23701 0.29885 0.53092 0.0
C4044 C 0.22735 0.3395 0.53742 0.0
C4045 C 0.20705 0.33726 0.52297 0.0
C4046 C 0.2028 0.31592 0.5115 0.0
C4047 C 0.21779 0.29709 0.51517 0.0
C4048 C 0.1899 0.35671 0.51972 0.0
C4049 C 0.18134 0.36115 0.49637 0.0
C4050 C 0.18108 0.37011 0.53925 0.0
C4051 C 0.18739 0.36506 0.5647 0.0
C4052 C 0.18303 0.34307 0.57465 0.0
C4053 C 0.1889 0.33845 0.5987 0.0
C4054 C 0.19898 0.35573 0.61301 0.0
C4055 C 0.20321 0.37768 0.60331 0.0
C4056 C 0.19737 0.38239 0.57927 0.0
C4057 C 0.10097 0.42364 0.48995 0.0
C4058 C 0.10635 0.44671 0.49596 0.0
C4059 C 0.1164 0.40562 0.49607 0.0
C4060 C 0.13778 0.41039 0.50779 0.0
C4061 C 0.14252 0.43324 0.51503 0.0
C4062 C 0.12693 0.45122 0.50924 0.0
C4063 C 0.15578 0.3919 0.5114 0.0
C4064 C 0.16464 0.3879 0.53472 0.0
C4065 C 0.16415 0.37813 0.492 0.0
C4066 C 0.15514 0.38059 0.46697 0.0
C4067 C 0.15647 0.40186 0.45468 0.0
C4068 C 0.14776 0.40378 0.43113 0.0
C4069 C 0.13798 0.38454 0.4196 0.0
C4070 C 0.13669 0.36333 0.43165 0.0
C4071 C 0.14525 0.36131 0.45521 0.0
H4072 H 0.1314 0.38604 0.40133 0.0
H4073 H 0.20348 0.35214 0.63164 0.0
H4074 H 0.28685 0.21235 0.56294 0.0
H4075 H 0.3179 0.18421 0.55461 0.0
H4076 H 0.32896 0.21506 0.48461 0.0
H4077 H 0.29621 0.24207 0.49222 0.0
H4078 H 0.33427 0.17023 0.48049 0.0
H4079 H 0.3665 0.22581 0.53425 0.0
H4080 H 0.36908 0.25114 0.57006 0.0
H4081 H 0.3691 0.19146 0.61636 0.0
H4082 H 0.36604 0.16578 0.58089 0.0
H4083 H 0.44195 0.09786 0.48472 0.0
H4084 H 0.41424 0.13041 0.47913 0.0
H4085 H 0.38017 0.11252 0.54609 0.0
H4086 H 0.40775 0.08074 0.55187 0.0
H4087 H 0.39317 0.15731 0.54525 0.0
H4088 H 0.35527 0.10266 0.48914 0.0
H4089 H 0.35565 0.07845 0.45232 0.0
H4090 H 0.37061 0.13848 0.40929 0.0
H4091 H 0.37061 0.16298 0.44589 0.0
C4092 C 0.29577 0.21301 0.54569 0.0
C4093 C 0.28944 0.22979 0.52851 0.0
C4094 C 0.31374 0.19708 0.54102 0.0
C4095 C 0.32644 0.19791 0.51927 0.0
C4096 C 0.31974 0.21426 0.50169 0.0
C4097 C 0.30129 0.22997 0.50621 0.0
C4098 C 0.34664 0.18166 0.51539 0.0
C4099 C 0.34736 0.16767 0.49451 0.0
C4100 C 0.36408 0.17842 0.5334 0.0
C4101 C 0.36593 0.19386 0.55485 0.0
C4102 C 0.36689 0.21809 0.55206 0.0
C4103 C 0.36843 0.23251 0.57232 0.0
C4104 C 0.36921 0.22292 0.59547 0.0
C4105 C 0.36847 0.19887 0.59842 0.0
C4106 C 0.36685 0.18437 0.57824 0.0
C4107 C 0.42829 0.10069 0.49795 0.0
C4108 C 0.42722 0.08688 0.51884 0.0
C4109 C 0.41247 0.1193 0.49477 0.0
C4110 C 0.39521 0.12404 0.51232 0.0
C4111 C 0.39347 0.10941 0.53244 0.0
C4112 C 0.40927 0.09118 0.5357 0.0
C4113 C 0.37975 0.14494 0.51129 0.0
C4114 C 0.38018 0.16007 0.53115 0.0
C4115 C 0.36373 0.14931 0.49225 0.0
C4116 C 0.36314 0.13461 0.47027 0.0
C4117 C 0.35876 0.11067 0.47184 0.0
C4118 C 0.35889 0.0969 0.45102 0.0
C4119 C 0.36321 0.10691 0.4285 0.0
C4120 C 0.36729 0.13074 0.42675 0.0
C4121 C 0.3672 0.14457 0.44751 0.0
H4122 H 0.36334 0.09622 0.41241 0.0
H4123 H 0.37043 0.23412 0.61112 0.0
H4124 H 0.78134 0.30297 0.47353 0.0
H4125 H 0.80741 0.33606 0.47703 0.0
H4126 H 0.85095 0.29759 0.52709 0.0
H4127 H 0.82227 0.26638 0.52701 0.0
H4128 H 0.85536 0.33578 0.54065 0.0
H4129 H 0.86228 0.30978 0.45933 0.0
H4130 H 0.85053 0.29852 0.41807 0.0
H4131 H 0.8221 0.36669 0.40599 0.0
H4132 H 0.83323 0.3782 0.44732 0.0
H4133 H 0.94786 0.41914 0.52366 0.0
H4134 H 0.92609 0.38288 0.51811 0.0
H4135 H 0.86463 0.42184 0.49688 0.0
H4136 H 0.88625 0.45804 0.50181 0.0
H4137 H 0.87445 0.38148 0.46764 0.0
H4138 H 0.86911 0.40334 0.55414 0.0
H4139 H 0.88959 0.41256 0.59228 0.0
H4140 H 0.92556 0.34689 0.58952 0.0
H4141 H 0.90526 0.33734 0.55149 0.0
C4142 C 0.79604 0.30186 0.48587 0.0
C4143 C 0.79966 0.28186 0.4999 0.0
C4144 C 0.81153 0.32061 0.48731 0.0
C4145 C 0.83205 0.31933 0.50154 0.0
C4146 C 0.83554 0.29933 0.51573 0.0
C4147 C 0.81929 0.28114 0.51535 0.0
C4148 C 0.84942 0.33894 0.50216 0.0
C4149 C 0.85965 0.34533 0.52441 0.0
C4150 C 0.85562 0.35183 0.48122 0.0
C4151 C 0.84846 0.34479 0.4565 0.0
C4152 C 0.85335 0.3223 0.44794 0.0
C4153 C 0.8468 0.31588 0.42453 0.0
C4154 C 0.83554 0.33186 0.40943 0.0
C4155 C 0.83078 0.35431 0.41771 0.0
C4156 C 0.8372 0.36079 0.44112 0.0
C4157 C 0.92984 0.41998 0.51737 0.0
C4158 C 0.91878 0.44154 0.51328 0.0
C4159 C 0.91739 0.39924 0.51433 0.0
C4160 C 0.89369 0.39968 0.50715 0.0
C4161 C 0.88294 0.4211 0.50219 0.0
C4162 C 0.89532 0.4418 0.50518 0.0
C4163 C 0.87951 0.3781 0.50579 0.0
C4164 C 0.86999 0.3715 0.48351 0.0
C4165 C 0.87482 0.36443 0.52635 0.0
C4166 C 0.88573 0.36966 0.55001 0.0
C4167 C 0.8813 0.39085 0.56178 0.0
C4168 C 0.89288 0.39613 0.58337 0.0
C4169 C 0.90885 0.38032 0.59337 0.0
C4170 C 0.91311 0.3591 0.5819 0.0
C4171 C 0.90152 0.35371 0.56037 0.0
H4172 H 0.91794 0.38455 0.60995 0.0
H4173 H 0.83053 0.32687 0.3913 0.0
H4174 H 0.2563 0.69498 0.50597 0.0
H4175 H 0.23192 0.6611 0.51483 0.0
H4176 H 0.18101 0.70583 0.54968 0.0
H4177 H 0.20711 0.7387 0.54394 0.0
H4178 H 0.17289 0.66896 0.56686 0.0
H4179 H 0.18272 0.68902 0.48326 0.0
H4180 H 0.20457 0.69611 0.44554 0.0
H4181 H 0.22994 0.62581 0.44599 0.0
H4182 H 0.20843 0.61839 0.48388 0.0
H4183 H 0.07568 0.61576 0.49355 0.0
H4184 H 0.10757 0.64156 0.50614 0.0
H4185 H 0.14225 0.58428 0.54151 0.0
H4186 H 0.11006 0.55848 0.5292 0.0
H4187 H 0.16015 0.6227 0.49248 0.0
H4188 H 0.14153 0.60738 0.58005 0.0
H4189 H 0.11155 0.60684 0.61224 0.0
H4190 H 0.0932 0.67759 0.5965 0.0
H4191 H 0.12284 0.67838 0.56396 0.0
C4192 C 0.24048 0.69723 0.51658 0.0
C4193 C 0.23332 0.71945 0.52392 0.0
C4194 C 0.22617 0.67797 0.52116 0.0
C4195 C 0.20376 0.68087 0.53171 0.0
C4196 C 0.19788 0.70281 0.54117 0.0
C4197 C 0.21277 0.72172 0.5378 0.0
C4198 C 0.18552 0.66214 0.53069 0.0
C4199 C 0.17039 0.65883 0.55056 0.0
C4200 C 0.18148 0.64891 0.5094 0.0
C4201 C 0.19422 0.65324 0.48651 0.0
C4202 C 0.19303 0.67511 0.47534 0.0
C4203 C 0.20536 0.67919 0.45395 0.0
C4204 C 0.21869 0.66144 0.44341 0.0
C4205 C 0.21965 0.63955 0.4542 0.0
C4206 C 0.2074 0.6354 0.47563 0.0
C4207 C 0.08968 0.6089 0.50481 0.0
C4208 C 0.09016 0.58528 0.51101 0.0
C4209 C 0.10789 0.62361 0.51191 0.0
C4210 C 0.12709 0.61491 0.52503 0.0
C4211 C 0.1273 0.59146 0.53191 0.0
C4212 C 0.10883 0.57678 0.52511 0.0
C4213 C 0.14809 0.62971 0.52852 0.0
C4214 C 0.16338 0.63245 0.50893 0.0
C4215 C 0.15145 0.64323 0.54947 0.0
C4216 C 0.13423 0.64286 0.56949 0.0
C4217 C 0.13097 0.62274 0.58334 0.0
C4218 C 0.11407 0.62241 0.60167 0.0
C4219 C 0.10043 0.64215 0.60637 0.0
C4220 C 0.10375 0.6623 0.59283 0.0
C4221 C 0.12061 0.66271 0.57448 0.0
H4222 H 0.08732 0.64185 0.62052 0.0
H4223 H 0.22823 0.66463 0.42686 0.0
loop_
_geom_bond_atom_site_label_1
_geom_bond_atom_site_label_2
_geom_bond_distance
_geom_bond_site_symmetry_2
_ccdc_geom_bond_type
C0 N1 1.317 . S
C0 N2 1.348 . S
C0 C3 1.485 . S
N1 C0 1.317 . S
N1 N5 1.370 . S
N2 C0 1.348 . S
N2 C4 1.346 . S
C3 C0 1.485 . S
C3 H7 0.960 . S
C3 H8 0.961 . S
C3 H9 0.960 . S
C4 N2 1.346 . S
C4 N5 1.307 . S
C4 C6 1.486 . S
N5 N1 1.370 . S
N5 C4 1.307 . S
C6 C4 1.486 . S
C6 H10 0.960 . S
C6 H11 0.960 . S
C6 H12 0.959 . S
H7 C3 0.960 . S
H8 C3 0.961 . S
H9 C3 0.960 . S
H10 C6 0.960 . S
H11 C6 0.960 . S
H12 C6 0.959 . S
C13 N14 1.317 . S
C13 N15 1.348 . S
C13 C16 1.485 . S
N14 C13 1.317 . S
N14 N18 1.370 . S
N15 C13 1.348 . S
N15 C17 1.346 . S
C16 C13 1.485 . S
C16 H20 0.960 . S
C16 H21 0.961 . S
C16 H22 0.960 . S
C17 N15 1.346 . S
C17 N18 1.307 . S
C17 C19 1.486 . S
N18 N14 1.370 . S
N18 C17 1.307 . S
C19 C17 1.486 . S
C19 H23 0.960 . S
C19 H24 0.960 . S
C19 H25 0.959 . S
H20 C16 0.960 . S
H21 C16 0.961 . S
H22 C16 0.960 . S
H23 C19 0.960 . S
H24 C19 0.960 . S
H25 C19 0.959 . S
C26 N27 1.317 . S
C26 N28 1.348 . S
C26 C29 1.485 . S
N27 C26 1.317 . S
N27 N31 1.370 . S
N28 C26 1.348 . S
N28 C30 1.346 . S
C29 C26 1.485 . S
C29 H33 0.960 . S
C29 H34 0.961 . S
C29 H35 0.960 . S
C30 N28 1.346 . S
C30 N31 1.307 . S
C30 C32 1.486 . S
N31 N27 1.370 . S
N31 C30 1.307 . S
C32 C30 1.486 . S
C32 H36 0.960 . S
C32 H37 0.960 . S
C32 H38 0.959 . S
H33 C29 0.960 . S
H34 C29 0.961 . S
H35 C29 0.960 . S
H36 C32 0.960 . S
H37 C32 0.960 . S
H38 C32 0.959 . S
C39 N40 1.317 . S
C39 N41 1.348 . S
C39 C42 1.484 1_545 S
N40 C39 1.317 . S
N40 N44 1.371 . S
N41 C39 1.348 . S
N41 C43 1.346 . S
C42 C39 1.484 1_565 S
C42 H46 0.960 1_565 S
C42 H47 0.961 . S
C42 H48 0.960 . S
C43 N41 1.346 . S
C43 N44 1.307 . S
C43 C45 1.486 . S
N44 N40 1.371 . S
N44 C43 1.307 . S
C45 C43 1.486 . S
C45 H49 0.960 1_545 S
C45 H50 0.960 . S
C45 H51 0.959 . S
H46 C42 0.960 1_545 S
H47 C42 0.961 . S
H48 C42 0.960 . S
H49 C45 0.960 1_565 S
H50 C45 0.960 . S
H51 C45 0.959 . S
C52 N53 1.317 . S
C52 N54 1.348 . S
C52 C55 1.485 . S
N53 C52 1.317 . S
N53 N57 1.371 . S
N54 C52 1.348 . S
N54 C56 1.347 . S
C55 C52 1.485 . S
C55 H59 0.960 1_455 S
C55 H60 0.961 . S
C55 H61 0.960 . S
C56 N54 1.347 . S
C56 N57 1.307 . S
C56 C58 1.486 . S
N57 N53 1.371 . S
N57 C56 1.307 . S
C58 C56 1.486 . S
C58 H62 0.966 . S
C58 H63 0.955 1_455 S
C58 H64 0.957 1_455 S
H59 C55 0.960 1_655 S
H60 C55 0.961 . S
H61 C55 0.960 . S
H62 C58 0.966 . S
H63 C58 0.955 1_655 S
H64 C58 0.957 1_655 S
C65 N66 1.317 . S
C65 N67 1.348 . S
C65 C68 1.485 . S
N66 C65 1.317 . S
N66 N70 1.370 . S
N67 C65 1.348 . S
N67 C69 1.346 . S
C68 C65 1.485 . S
C68 H72 0.960 1_545 S
C68 H73 0.961 . S
C68 H74 0.960 . S
C69 N67 1.346 . S
C69 N70 1.307 . S
C69 C71 1.486 . S
N70 N66 1.370 . S
N70 C69 1.307 . S
C71 C69 1.486 . S
C71 H75 0.960 . S
C71 H76 0.960 1_545 S
C71 H77 0.959 1_545 S
H72 C68 0.960 1_565 S
H73 C68 0.961 . S
H74 C68 0.960 . S
H75 C71 0.960 . S
H76 C71 0.960 1_565 S
H77 C71 0.959 1_565 S
C78 N79 1.317 . S
C78 N80 1.348 . S
C78 C81 1.485 . S
N79 C78 1.317 . S
N79 N83 1.370 . S
N80 C78 1.348 . S
N80 C82 1.346 . S
C81 C78 1.485 . S
C81 H85 0.960 . S
C81 H86 0.961 . S
C81 H87 0.960 . S
C82 N80 1.346 . S
C82 N83 1.307 . S
C82 C84 1.486 . S
N83 N79 1.370 . S
N83 C82 1.307 . S
C84 C82 1.486 . S
C84 H88 0.960 . S
C84 H89 0.960 . S
C84 H90 0.959 . S
H85 C81 0.960 . S
H86 C81 0.961 . S
H87 C81 0.960 . S
H88 C84 0.960 . S
H89 C84 0.960 . S
H90 C84 0.959 . S
C91 N92 1.317 . S
C91 N93 1.348 . S
C91 C94 1.485 . S
N92 C91 1.317 . S
N92 N96 1.370 . S
N93 C91 1.348 . S
N93 C95 1.346 . S
C94 C91 1.485 . S
C94 H98 0.960 . S
C94 H99 0.961 . S
C94 H100 0.960 . S
C95 N93 1.346 . S
C95 N96 1.307 . S
C95 C97 1.486 . S
N96 N92 1.370 . S
N96 C95 1.307 . S
C97 C95 1.486 . S
C97 H101 0.960 . S
C97 H102 0.960 . S
C97 H103 0.959 . S
H98 C94 0.960 . S
H99 C94 0.961 . S
H100 C94 0.960 . S
H101 C97 0.960 . S
H102 C97 0.960 . S
H103 C97 0.959 . S
C104 N105 1.317 . S
C104 N106 1.348 . S
C104 C107 1.485 . S
N105 C104 1.317 . S
N105 N109 1.370 . S
N106 C104 1.348 . S
N106 C108 1.346 . S
C107 C104 1.485 . S
C107 H111 0.960 . S
C107 H112 0.961 . S
C107 H113 0.960 . S
C108 N106 1.346 . S
C108 N109 1.307 . S
C108 C110 1.486 . S
N109 N105 1.370 . S
N109 C108 1.307 . S
C110 C108 1.486 . S
C110 H114 0.960 . S
C110 H115 0.960 . S
C110 H116 0.959 . S
H111 C107 0.960 . S
H112 C107 0.961 . S
H113 C107 0.960 . S
H114 C110 0.960 . S
H115 C110 0.960 . S
H116 C110 0.959 . S
C117 N118 1.317 . S
C117 N119 1.348 . S
C117 C120 1.485 . S
N118 C117 1.317 . S
N118 N122 1.370 . S
N119 C117 1.348 . S
N119 C121 1.346 . S
C120 C117 1.485 . S
C120 H124 0.960 . S
C120 H125 0.961 . S
C120 H126 0.960 . S
C121 N119 1.346 . S
C121 N122 1.307 . S
C121 C123 1.486 . S
N122 N118 1.370 . S
N122 C121 1.307 . S
C123 C121 1.486 . S
C123 H127 0.960 . S
C123 H128 0.960 . S
C123 H129 0.959 . S
H124 C120 0.960 . S
H125 C120 0.961 . S
H126 C120 0.960 . S
H127 C123 0.960 . S
H128 C123 0.960 . S
H129 C123 0.959 . S
C130 N131 1.317 . S
C130 N132 1.350 . S
C130 C133 1.485 . S
N131 C130 1.317 . S
N131 N135 1.370 . S
N132 C130 1.350 . S
N132 C134 1.345 1_556 S
C133 C130 1.485 . S
C133 H137 0.960 1_556 S
C133 H138 0.961 . S
C133 H139 0.960 . S
C134 N132 1.345 1_554 S
C134 N135 1.307 1_554 S
C134 C136 1.486 . S
N135 N131 1.370 . S
N135 C134 1.307 1_556 S
C136 C134 1.486 . S
C136 H140 0.925 1_554 S
C136 H141 0.989 . S
C136 H142 0.967 . S
H137 C133 0.960 1_554 S
H138 C133 0.961 . S
H139 C133 0.960 . S
H140 C136 0.925 1_556 S
H141 C136 0.989 . S
H142 C136 0.967 . S
C143 N144 1.317 . S
C143 N145 1.348 . S
C143 C146 1.485 . S
N144 C143 1.317 . S
N144 N148 1.370 . S
N145 C143 1.348 . S
N145 C147 1.346 . S
C146 C143 1.485 . S
C146 H150 0.960 1_554 S
C146 H151 0.961 . S
C146 H152 0.960 . S
C147 N145 1.346 . S
C147 N148 1.307 . S
C147 C149 1.486 . S
N148 N144 1.370 . S
N148 C147 1.307 . S
C149 C147 1.486 . S
C149 H153 0.960 . S
C149 H154 0.960 1_554 S
C149 H155 0.957 1_554 S
H150 C146 0.960 1_556 S
H151 C146 0.961 . S
H152 C146 0.960 . S
H153 C149 0.960 . S
H154 C149 0.960 1_556 S
H155 C149 0.957 1_556 S
C156 N157 1.317 . S
C156 N158 1.348 . S
C156 C159 1.485 . S
N157 C156 1.317 . S
N157 N161 1.370 . S
N158 C156 1.348 . S
N158 C160 1.346 . S
C159 C156 1.485 . S
C159 H163 0.960 . S
C159 H164 0.961 . S
C159 H165 0.960 . S
C160 N158 1.346 . S
C160 N161 1.307 . S
C160 C162 1.486 . S
N161 N157 1.370 . S
N161 C160 1.307 . S
C162 C160 1.486 . S
C162 H166 0.960 . S
C162 H167 0.960 . S
C162 H168 0.959 . S
H163 C159 0.960 . S
H164 C159 0.961 . S
H165 C159 0.960 . S
H166 C162 0.960 . S
H167 C162 0.960 . S
H168 C162 0.959 . S
C169 N170 1.317 . S
C169 N171 1.348 . S
C169 C172 1.485 . S
N170 C169 1.317 . S
N170 N174 1.370 . S
N171 C169 1.348 . S
N171 C173 1.346 . S
C172 C169 1.485 . S
C172 H176 0.960 . S
C172 H177 0.961 . S
C172 H178 0.960 . S
C173 N171 1.346 . S
C173 N174 1.307 . S
C173 C175 1.486 . S
N174 N170 1.370 . S
N174 C173 1.307 . S
C175 C173 1.486 . S
C175 H179 0.960 . S
C175 H180 0.960 . S
C175 H181 0.959 . S
H176 C172 0.960 . S
H177 C172 0.961 . S
H178 C172 0.960 . S
H179 C175 0.960 . S
H180 C175 0.960 . S
H181 C175 0.959 . S
C182 N183 1.317 . S
C182 N184 1.348 . S
C182 C185 1.485 . S
N183 C182 1.317 . S
N183 N187 1.370 . S
N184 C182 1.348 . S
N184 C186 1.346 . S
C185 C182 1.485 . S
C185 H189 0.960 . S
C185 H190 0.961 . S
C185 H191 0.960 . S
C186 N184 1.346 . S
C186 N187 1.307 . S
C186 C188 1.486 . S
N187 N183 1.370 . S
N187 C186 1.307 . S
C188 C186 1.486 . S
C188 H192 0.960 . S
C188 H193 0.960 . S
C188 H194 0.959 . S
H189 C185 0.960 . S
H190 C185 0.961 . S
H191 C185 0.960 . S
H192 C188 0.960 . S
H193 C188 0.960 . S
H194 C188 0.959 . S
C195 N196 1.317 . S
C195 N197 1.348 . S
C195 C198 1.485 . S
N196 C195 1.317 . S
N196 N200 1.370 . S
N197 C195 1.348 . S
N197 C199 1.346 . S
C198 C195 1.485 . S
C198 H202 0.960 . S
C198 H203 0.961 . S
C198 H204 0.960 . S
C199 N197 1.346 . S
C199 N200 1.307 . S
C199 C201 1.486 . S
N200 N196 1.370 . S
N200 C199 1.307 . S
C201 C199 1.486 . S
C201 H205 0.960 . S
C201 H206 0.960 . S
C201 H207 0.959 . S
H202 C198 0.960 . S
H203 C198 0.961 . S
H204 C198 0.960 . S
H205 C201 0.960 . S
H206 C201 0.960 . S
H207 C201 0.959 . S
C208 N209 1.317 . S
C208 N210 1.348 . S
C208 C211 1.485 . S
N209 C208 1.317 . S
N209 N213 1.370 . S
N210 C208 1.348 . S
N210 C212 1.346 . S
C211 C208 1.485 . S
C211 H215 0.960 . S
C211 H216 0.961 . S
C211 H217 0.960 . S
C212 N210 1.346 . S
C212 N213 1.307 . S
C212 C214 1.486 . S
N213 N209 1.370 . S
N213 C212 1.307 . S
C214 C212 1.486 . S
C214 H218 0.960 . S
C214 H219 0.960 . S
C214 H220 0.959 . S
H215 C211 0.960 . S
H216 C211 0.961 . S
H217 C211 0.960 . S
H218 C214 0.960 . S
H219 C214 0.960 . S
H220 C214 0.959 . S
C221 N222 1.317 . S
C221 N223 1.348 . S
C221 C224 1.485 . S
N222 C221 1.317 . S
N222 N226 1.370 . S
N223 C221 1.348 . S
N223 C225 1.346 . S
C224 C221 1.485 . S
C224 H228 0.960 . S
C224 H229 0.961 . S
C224 H230 0.960 . S
C225 N223 1.346 . S
C225 N226 1.307 . S
C225 C227 1.486 . S
N226 N222 1.370 . S
N226 C225 1.307 . S
C227 C225 1.486 . S
C227 H231 0.960 . S
C227 H232 0.960 . S
C227 H233 0.959 . S
H228 C224 0.960 . S
H229 C224 0.961 . S
H230 C224 0.960 . S
H231 C227 0.960 . S
H232 C227 0.960 . S
H233 C227 0.959 . S
C234 N235 1.317 . S
C234 N236 1.348 . S
C234 C237 1.485 . S
N235 C234 1.317 . S
N235 N239 1.370 . S
N236 C234 1.348 . S
N236 C238 1.346 . S
C237 C234 1.485 . S
C237 H241 0.960 . S
C237 H242 0.961 . S
C237 H243 0.960 . S
C238 N236 1.346 . S
C238 N239 1.307 . S
C238 C240 1.486 . S
N239 N235 1.370 . S
N239 C238 1.307 . S
C240 C238 1.486 . S
C240 H244 0.960 . S
C240 H245 0.960 . S
C240 H246 0.959 . S
H241 C237 0.960 . S
H242 C237 0.961 . S
H243 C237 0.960 . S
H244 C240 0.960 . S
H245 C240 0.960 . S
H246 C240 0.959 . S
C247 N248 1.317 . S
C247 N249 1.348 . S
C247 C250 1.485 . S
N248 C247 1.317 . S
N248 N252 1.370 . S
N249 C247 1.348 . S
N249 C251 1.346 . S
C250 C247 1.485 . S
C250 H254 0.960 . S
C250 H255 0.961 . S
C250 H256 0.960 . S
C251 N249 1.346 . S
C251 N252 1.307 . S
C251 C253 1.486 . S
N252 N248 1.370 . S
N252 C251 1.307 . S
C253 C251 1.486 . S
C253 H257 0.960 . S
C253 H258 0.960 . S
C253 H259 0.959 . S
H254 C250 0.960 . S
H255 C250 0.961 . S
H256 C250 0.960 . S
H257 C253 0.960 . S
H258 C253 0.960 . S
H259 C253 0.959 . S
C260 N261 1.317 . S
C260 N262 1.348 . S
C260 C263 1.485 . S
N261 C260 1.317 . S
N261 N265 1.370 . S
N262 C260 1.348 . S
N262 C264 1.346 . S
C263 C260 1.485 . S
C263 H267 0.960 . S
C263 H268 0.961 . S
C263 H269 0.960 . S
C264 N262 1.346 . S
C264 N265 1.307 . S
C264 C266 1.486 . S
N265 N261 1.370 . S
N265 C264 1.307 . S
C266 C264 1.486 . S
C266 H270 0.960 . S
C266 H271 0.960 . S
C266 H272 0.959 . S
H267 C263 0.960 . S
H268 C263 0.961 . S
H269 C263 0.960 . S
H270 C266 0.960 . S
H271 C266 0.960 . S
H272 C266 0.959 . S
C273 N274 1.317 . S
C273 N275 1.348 . S
C273 C276 1.485 . S
N274 C273 1.317 . S
N274 N278 1.370 . S
N275 C273 1.348 . S
N275 C277 1.346 . S
C276 C273 1.485 . S
C276 H280 0.960 . S
C276 H281 0.961 . S
C276 H282 0.960 . S
C277 N275 1.346 . S
C277 N278 1.307 . S
C277 C279 1.486 . S
N278 N274 1.370 . S
N278 C277 1.307 . S
C279 C277 1.486 . S
C279 H283 0.960 . S
C279 H284 0.960 . S
C279 H285 0.959 . S
H280 C276 0.960 . S
H281 C276 0.961 . S
H282 C276 0.960 . S
H283 C279 0.960 . S
H284 C279 0.960 . S
H285 C279 0.959 . S
C286 N287 1.317 . S
C286 N288 1.348 . S
C286 C289 1.485 . S
N287 C286 1.317 . S
N287 N291 1.370 . S
N288 C286 1.348 . S
N288 C290 1.346 . S
C289 C286 1.485 . S
C289 H293 0.960 . S
C289 H294 0.961 . S
C289 H295 0.960 . S
C290 N288 1.346 . S
C290 N291 1.307 . S
C290 C292 1.486 . S
N291 N287 1.370 . S
N291 C290 1.307 . S
C292 C290 1.486 . S
C292 H296 0.960 . S
C292 H297 0.960 . S
C292 H298 0.959 . S
H293 C289 0.960 . S
H294 C289 0.961 . S
H295 C289 0.960 . S
H296 C292 0.960 . S
H297 C292 0.960 . S
H298 C292 0.959 . S
C299 N300 1.317 . S
C299 N301 1.348 . S
C299 C302 1.485 . S
N300 C299 1.317 . S
N300 N304 1.370 . S
N301 C299 1.348 . S
N301 C303 1.346 . S
C302 C299 1.485 . S
C302 H306 0.960 . S
C302 H307 0.961 . S
C302 H308 0.960 . S
C303 N301 1.346 . S
C303 N304 1.307 . S
C303 C305 1.486 . S
N304 N300 1.370 . S
N304 C303 1.307 . S
C305 C303 1.486 . S
C305 H309 0.960 . S
C305 H310 0.960 . S
C305 H311 0.959 . S
H306 C302 0.960 . S
H307 C302 0.961 . S
H308 C302 0.960 . S
H309 C305 0.960 . S
H310 C305 0.960 . S
H311 C305 0.959 . S
Zn312 O314 1.933 1_665 S
Zn312 O332 1.985 . S
Zn312 O343 1.955 1_655 S
Zn313 O314 1.911 1_655 S
Zn313 O333 1.970 . S
Zn313 O349 1.945 1_655 S
Zn313 O356 1.981 . S
O314 Zn312 1.933 1_445 S
O314 Zn313 1.911 1_455 S
O314 H315 0.841 . S
H315 O314 0.841 . S
C316 O317 1.246 . S
C316 O345 1.276 . S
O317 C316 1.246 . S
Zn318 O320 1.911 . S
Zn318 O335 1.970 . S
Zn318 O352 1.945 . S
Zn318 O359 1.981 . S
Zn319 O320 1.933 1_565 S
Zn319 O334 1.985 . S
Zn319 O341 1.955 . S
O320 Zn318 1.911 . S
O320 Zn319 1.933 1_545 S
O320 H321 0.841 . S
H321 O320 0.841 . S
Zn322 O323 1.933 1_565 S
Zn322 O336 1.985 . S
Zn322 O345 1.955 . S
O323 Zn322 1.933 1_545 S
O323 Zn324 1.911 . S
O323 H325 0.841 . S
Zn324 O323 1.911 . S
Zn324 O337 1.970 . S
Zn324 O353 1.981 1_655 S
Zn324 O355 1.945 . S
H325 O323 0.841 . S
Zn326 O327 1.933 1_565 S
Zn326 O339 1.985 . S
Zn326 O347 1.955 . S
O327 Zn326 1.933 1_545 S
O327 H328 0.841 . S
O327 Zn329 1.911 . S
H328 O327 0.841 . S
Zn329 O327 1.911 . S
Zn329 O340 1.970 . S
Zn329 O350 1.981 . S
Zn329 O358 1.945 . S
C330 O331 1.246 . S
C330 O347 1.276 . S
O331 C330 1.246 . S
O332 Zn312 1.985 . S
O332 C342 1.245 1_565 S
O333 Zn313 1.970 . S
O333 C342 1.263 . S
O334 Zn319 1.985 . S
O334 C346 1.245 1_565 S
O335 Zn318 1.970 . S
O335 C346 1.263 . S
O336 Zn322 1.985 . S
O336 C351 1.245 1_565 S
O337 Zn324 1.970 . S
O337 C351 1.263 . S
C338 O349 1.262 . S
C338 O350 1.245 . S
O339 Zn326 1.985 . S
O339 C357 1.245 1_565 S
O340 Zn329 1.970 . S
O340 C357 1.263 . S
O341 Zn319 1.955 . S
O341 C360 1.276 . S
C342 O332 1.245 1_545 S
C342 O333 1.263 . S
O343 Zn312 1.955 1_455 S
O343 C362 1.276 . S
C344 O352 1.262 . S
C344 O353 1.245 . S
O345 C316 1.276 . S
O345 Zn322 1.955 . S
C346 O334 1.245 1_545 S
C346 O335 1.263 . S
O347 Zn326 1.955 . S
O347 C330 1.276 . S
C348 O355 1.262 . S
C348 O356 1.245 . S
O349 Zn313 1.945 1_455 S
O349 C338 1.262 . S
O350 Zn329 1.981 . S
O350 C338 1.245 . S
C351 O336 1.245 1_545 S
C351 O337 1.263 . S
O352 Zn318 1.945 . S
O352 C344 1.262 . S
O353 Zn324 1.981 1_455 S
O353 C344 1.245 . S
C354 O358 1.262 . S
C354 O359 1.245 . S
O355 Zn324 1.945 . S
O355 C348 1.262 . S
O356 Zn313 1.981 . S
O356 C348 1.245 . S
C357 O339 1.245 1_545 S
C357 O340 1.263 . S
O358 Zn329 1.945 . S
O358 C354 1.262 . S
O359 Zn318 1.981 . S
O359 C354 1.245 . S
C360 O341 1.276 . S
C360 O361 1.246 . S
O361 C360 1.246 . S
C362 O343 1.276 . S
C362 O363 1.246 . S
O363 C362 1.246 . S
Zn364 O366 1.933 . S
Zn364 O384 1.985 . S
Zn364 O395 1.955 . S
Zn365 O366 1.911 1_556 S
Zn365 O385 1.970 . S
Zn365 O401 1.945 . S
Zn365 O408 1.981 . S
O366 Zn364 1.933 . S
O366 Zn365 1.911 1_554 S
O366 H367 0.841 . S
H367 O366 0.841 . S
C368 O369 1.246 . S
C368 O397 1.276 . S
O369 C368 1.246 . S
Zn370 O372 1.911 1_556 S
Zn370 O387 1.970 . S
Zn370 O404 1.945 . S
Zn370 O411 1.981 . S
Zn371 O372 1.933 . S
Zn371 O386 1.985 . S
Zn371 O393 1.955 . S
O372 Zn370 1.911 1_554 S
O372 Zn371 1.933 . S
O372 H373 0.841 1_565 S
H373 O372 0.841 1_545 S
Zn374 O375 1.933 . S
Zn374 O388 1.985 . S
Zn374 O397 1.955 . S
O375 Zn374 1.933 . S
O375 Zn376 1.911 1_554 S
O375 H377 0.841 . S
Zn376 O375 1.911 1_556 S
Zn376 O389 1.970 . S
Zn376 O405 1.981 . S
Zn376 O407 1.945 . S
H377 O375 0.841 . S
Zn378 O379 1.933 . S
Zn378 O391 1.985 . S
Zn378 O399 1.955 . S
O379 Zn378 1.933 . S
O379 H380 0.841 . S
O379 Zn381 1.911 1_554 S
H380 O379 0.841 . S
Zn381 O379 1.911 1_556 S
Zn381 O392 1.970 . S
Zn381 O402 1.981 1_565 S
Zn381 O410 1.945 . S
C382 O383 1.246 . S
C382 O399 1.276 . S
O383 C382 1.246 . S
O384 Zn364 1.985 . S
O384 C394 1.245 . S
O385 Zn365 1.970 . S
O385 C394 1.263 1_556 S
O386 Zn371 1.985 . S
O386 C398 1.245 . S
O387 Zn370 1.970 . S
O387 C398 1.263 1_556 S
O388 Zn374 1.985 . S
O388 C403 1.245 . S
O389 Zn376 1.970 . S
O389 C403 1.263 1_556 S
C390 O401 1.262 . S
C390 O402 1.245 . S
O391 Zn378 1.985 . S
O391 C409 1.245 . S
O392 Zn381 1.970 . S
O392 C409 1.263 1_556 S
O393 Zn371 1.955 . S
O393 C412 1.276 1_565 S
C394 O384 1.245 . S
C394 O385 1.263 1_554 S
O395 Zn364 1.955 . S
O395 C414 1.276 . S
C396 O404 1.262 1_545 S
C396 O405 1.245 . S
O397 C368 1.276 . S
O397 Zn374 1.955 . S
C398 O386 1.245 . S
C398 O387 1.263 1_554 S
O399 Zn378 1.955 . S
O399 C382 1.276 . S
C400 O407 1.262 . S
C400 O408 1.245 . S
O401 Zn365 1.945 . S
O401 C390 1.262 . S
O402 Zn381 1.981 1_545 S
O402 C390 1.245 . S
C403 O388 1.245 . S
C403 O389 1.263 1_554 S
O404 Zn370 1.945 . S
O404 C396 1.262 1_565 S
O405 Zn376 1.981 . S
O405 C396 1.245 . S
C406 O410 1.262 . S
C406 O411 1.245 . S
O407 Zn376 1.945 . S
O407 C400 1.262 . S
O408 Zn365 1.981 . S
O408 C400 1.245 . S
C409 O391 1.245 . S
C409 O392 1.263 1_554 S
O410 Zn381 1.945 . S
O410 C406 1.262 . S
O411 Zn370 1.981 . S
O411 C406 1.245 . S
C412 O393 1.276 1_545 S
C412 O413 1.246 . S
O413 C412 1.246 . S
C414 O395 1.276 . S
C414 O415 1.246 . S
O415 C414 1.246 . S
Zn416 O418 1.933 . S
Zn416 O436 1.985 . S
Zn416 O447 1.955 . S
Zn417 O418 1.911 . S
Zn417 O437 1.970 . S
Zn417 O453 1.945 . S
Zn417 O460 1.981 . S
O418 Zn416 1.933 . S
O418 Zn417 1.911 . S
O418 H419 0.841 1_655 S
H419 O418 0.841 1_455 S
C420 O421 1.246 1_554 S
C420 O449 1.276 . S
O421 C420 1.246 1_556 S
Zn422 O424 1.911 . S
Zn422 O439 1.970 . S
Zn422 O456 1.945 . S
Zn422 O463 1.981 . S
Zn423 O424 1.933 . S
Zn423 O438 1.985 . S
Zn423 O445 1.955 . S
O424 Zn422 1.911 . S
O424 Zn423 1.933 . S
O424 H425 0.841 . S
H425 O424 0.841 . S
Zn426 O427 1.933 . S
Zn426 O440 1.985 . S
Zn426 O449 1.955 . S
O427 Zn426 1.933 . S
O427 Zn428 1.911 . S
O427 H429 0.841 . S
Zn428 O427 1.911 . S
Zn428 O441 1.970 . S
Zn428 O457 1.981 . S
Zn428 O459 1.945 . S
H429 O427 0.841 . S
Zn430 O431 1.933 . S
Zn430 O443 1.985 . S
Zn430 O451 1.955 . S
O431 Zn430 1.933 . S
O431 H432 0.841 1_556 S
O431 Zn433 1.911 . S
H432 O431 0.841 1_554 S
Zn433 O431 1.911 . S
Zn433 O444 1.970 . S
Zn433 O454 1.981 . S
Zn433 O462 1.945 . S
C434 O435 1.246 . S
C434 O451 1.276 1_554 S
O435 C434 1.246 . S
O436 Zn416 1.985 . S
O436 C446 1.245 . S
O437 Zn417 1.970 . S
O437 C446 1.263 . S
O438 Zn423 1.985 . S
O438 C450 1.245 . S
O439 Zn422 1.970 . S
O439 C450 1.263 . S
O440 Zn426 1.985 . S
O440 C455 1.245 . S
O441 Zn428 1.970 . S
O441 C455 1.263 . S
C442 O453 1.262 1_455 S
C442 O454 1.245 . S
O443 Zn430 1.985 . S
O443 C461 1.245 . S
O444 Zn433 1.970 . S
O444 C461 1.263 . S
O445 Zn423 1.955 . S
O445 C464 1.276 . S
C446 O436 1.245 . S
C446 O437 1.263 . S
O447 Zn416 1.955 . S
O447 C466 1.276 1_655 S
C448 O456 1.262 . S
C448 O457 1.245 1_455 S
O449 C420 1.276 . S
O449 Zn426 1.955 . S
C450 O438 1.245 . S
C450 O439 1.263 . S
O451 Zn430 1.955 . S
O451 C434 1.276 1_556 S
C452 O459 1.262 . S
C452 O460 1.245 1_554 S
O453 Zn417 1.945 . S
O453 C442 1.262 1_655 S
O454 Zn433 1.981 . S
O454 C442 1.245 . S
C455 O440 1.245 . S
C455 O441 1.263 . S
O456 Zn422 1.945 . S
O456 C448 1.262 . S
O457 Zn428 1.981 . S
O457 C448 1.245 1_655 S
C458 O462 1.262 1_554 S
C458 O463 1.245 . S
O459 Zn428 1.945 . S
O459 C452 1.262 . S
O460 Zn417 1.981 . S
O460 C452 1.245 1_556 S
C461 O443 1.245 . S
C461 O444 1.263 . S
O462 Zn433 1.945 . S
O462 C458 1.262 1_556 S
O463 Zn422 1.981 . S
O463 C458 1.245 . S
C464 O445 1.276 . S
C464 O465 1.242 1_455 S
O465 C464 1.242 1_655 S
C466 O447 1.276 1_455 S
C466 O467 1.246 . S
O467 C466 1.246 . S
Zn468 O470 1.933 1_556 S
Zn468 O488 1.985 . S
Zn468 O499 1.955 . S
Zn469 O470 1.911 . S
Zn469 O489 1.970 . S
Zn469 O505 1.945 . S
Zn469 O512 1.981 . S
O470 Zn468 1.933 1_554 S
O470 Zn469 1.911 . S
O470 H471 0.841 . S
H471 O470 0.841 . S
C472 O473 1.246 . S
C472 O501 1.276 . S
O473 C472 1.246 . S
Zn474 O476 1.911 . S
Zn474 O491 1.970 . S
Zn474 O508 1.945 . S
Zn474 O515 1.981 . S
Zn475 O476 1.933 1_556 S
Zn475 O490 1.985 . S
Zn475 O497 1.955 . S
O476 Zn474 1.911 . S
O476 Zn475 1.933 1_554 S
O476 H477 0.841 . S
H477 O476 0.841 . S
Zn478 O479 1.933 1_556 S
Zn478 O492 1.985 . S
Zn478 O501 1.955 . S
O479 Zn478 1.933 1_554 S
O479 Zn480 1.911 . S
O479 H481 0.841 . S
Zn480 O479 1.911 . S
Zn480 O493 1.970 . S
Zn480 O509 1.981 . S
Zn480 O511 1.945 . S
H481 O479 0.841 . S
Zn482 O483 1.933 1_556 S
Zn482 O495 1.985 . S
Zn482 O503 1.955 . S
O483 Zn482 1.933 1_554 S
O483 H484 0.841 . S
O483 Zn485 1.911 . S
H484 O483 0.841 . S
Zn485 O483 1.911 . S
Zn485 O496 1.970 . S
Zn485 O506 1.981 . S
Zn485 O514 1.945 . S
C486 O487 1.246 . S
C486 O503 1.276 . S
O487 C486 1.246 . S
O488 Zn468 1.985 . S
O488 C498 1.245 1_556 S
O489 Zn469 1.970 . S
O489 C498 1.263 . S
O490 Zn475 1.985 . S
O490 C502 1.245 1_556 S
O491 Zn474 1.970 . S
O491 C502 1.263 . S
O492 Zn478 1.985 . S
O492 C507 1.245 1_556 S
O493 Zn480 1.970 . S
O493 C507 1.263 . S
C494 O505 1.262 . S
C494 O506 1.245 . S
O495 Zn482 1.985 . S
O495 C513 1.245 1_556 S
O496 Zn485 1.970 . S
O496 C513 1.263 . S
O497 Zn475 1.955 . S
O497 C516 1.276 . S
C498 O488 1.245 1_554 S
C498 O489 1.263 . S
O499 Zn468 1.955 . S
O499 C518 1.276 . S
C500 O508 1.262 . S
C500 O509 1.245 . S
O501 C472 1.276 . S
O501 Zn478 1.955 . S
C502 O490 1.245 1_554 S
C502 O491 1.263 . S
O503 Zn482 1.955 . S
O503 C486 1.276 . S
C504 O511 1.262 . S
C504 O512 1.245 . S
O505 Zn469 1.945 . S
O505 C494 1.262 . S
O506 Zn485 1.981 . S
O506 C494 1.245 . S
C507 O492 1.245 1_554 S
C507 O493 1.263 . S
O508 Zn474 1.945 . S
O508 C500 1.262 . S
O509 Zn480 1.981 . S
O509 C500 1.245 . S
C510 O514 1.262 . S
C510 O515 1.245 . S
O511 Zn480 1.945 . S
O511 C504 1.262 . S
O512 Zn469 1.981 . S
O512 C504 1.245 . S
C513 O495 1.245 1_554 S
C513 O496 1.263 . S
O514 Zn485 1.945 . S
O514 C510 1.262 . S
O515 Zn474 1.981 . S
O515 C510 1.245 . S
C516 O497 1.276 . S
C516 O517 1.246 . S
O517 C516 1.246 . S
C518 O499 1.276 . S
C518 O519 1.246 . S
O519 C518 1.246 . S
Zn520 O522 1.919 1_655 S
Zn520 O540 1.985 . S
Zn520 O551 1.955 1_655 S
Zn521 O522 1.889 1_655 S
Zn521 O541 1.970 . S
Zn521 O557 1.945 . S
Zn521 O564 1.981 . S
O522 Zn520 1.919 1_455 S
O522 Zn521 1.889 1_455 S
O522 H523 0.889 . S
H523 O522 0.889 . S
C524 O525 1.246 . S
C524 O553 1.276 . S
O525 C524 1.246 . S
Zn526 O528 1.911 . S
Zn526 O543 1.970 . S
Zn526 O560 1.945 . S
Zn526 O567 1.981 . S
Zn527 O528 1.933 . S
Zn527 O542 1.985 . S
Zn527 O549 1.955 . S
O528 Zn526 1.911 . S
O528 Zn527 1.933 . S
O528 H529 0.841 . S
H529 O528 0.841 . S
Zn530 O531 1.933 . S
Zn530 O544 1.985 . S
Zn530 O553 1.955 . S
O531 Zn530 1.933 . S
O531 Zn532 1.911 . S
O531 H533 0.841 . S
Zn532 O531 1.911 . S
Zn532 O545 1.970 . S
Zn532 O561 1.981 1_655 S
Zn532 O563 1.945 . S
H533 O531 0.841 . S
Zn534 O535 1.933 . S
Zn534 O547 1.985 . S
Zn534 O555 1.955 . S
O535 Zn534 1.933 . S
O535 H536 0.841 . S
O535 Zn537 1.911 . S
H536 O535 0.841 . S
Zn537 O535 1.911 . S
Zn537 O548 1.970 . S
Zn537 O558 1.981 . S
Zn537 O566 1.945 . S
C538 O539 1.246 . S
C538 O555 1.276 . S
O539 C538 1.246 . S
O540 Zn520 1.985 . S
O540 C550 1.245 . S
O541 Zn521 1.970 . S
O541 C550 1.263 . S
O542 Zn527 1.985 . S
O542 C554 1.245 . S
O543 Zn526 1.970 . S
O543 C554 1.263 . S
O544 Zn530 1.985 . S
O544 C559 1.245 . S
O545 Zn532 1.970 . S
O545 C559 1.263 . S
C546 O557 1.262 1_455 S
C546 O558 1.245 . S
O547 Zn534 1.985 . S
O547 C565 1.245 . S
O548 Zn537 1.970 . S
O548 C565 1.263 . S
O549 Zn527 1.955 . S
O549 C568 1.276 . S
C550 O540 1.245 . S
C550 O541 1.263 . S
O551 Zn520 1.955 1_455 S
O551 C570 1.276 . S
C552 O560 1.262 . S
C552 O561 1.245 . S
O553 C524 1.276 . S
O553 Zn530 1.955 . S
C554 O542 1.245 . S
C554 O543 1.263 . S
O555 Zn534 1.955 . S
O555 C538 1.276 . S
C556 O563 1.262 . S
C556 O564 1.245 . S
O557 Zn521 1.945 . S
O557 C546 1.262 1_655 S
O558 Zn537 1.981 . S
O558 C546 1.245 . S
C559 O544 1.245 . S
C559 O545 1.263 . S
O560 Zn526 1.945 . S
O560 C552 1.262 . S
O561 Zn532 1.981 1_455 S
O561 C552 1.245 . S
C562 O566 1.262 . S
C562 O567 1.245 . S
O563 Zn532 1.945 . S
O563 C556 1.262 . S
O564 Zn521 1.981 . S
O564 C556 1.245 . S
C565 O547 1.245 . S
C565 O548 1.263 . S
O566 Zn537 1.945 . S
O566 C562 1.262 . S
O567 Zn526 1.981 . S
O567 C562 1.245 . S
C568 O549 1.276 . S
C568 O569 1.246 . S
O569 C568 1.246 . S
C570 O551 1.276 . S
C570 O571 1.246 . S
O571 C570 1.246 . S
Zn572 O574 1.933 1_565 S
Zn572 O592 1.985 . S
Zn572 O603 1.955 . S
Zn573 O574 1.911 . S
Zn573 O593 1.970 . S
Zn573 O609 1.945 . S
Zn573 O616 1.981 . S
O574 Zn572 1.933 1_545 S
O574 Zn573 1.911 . S
O574 H575 0.841 . S
H575 O574 0.841 . S
C576 O577 1.246 . S
C576 O605 1.276 . S
O577 C576 1.246 . S
Zn578 O580 1.911 . S
Zn578 O595 1.970 . S
Zn578 O612 1.945 . S
Zn578 O619 1.981 . S
Zn579 O580 1.933 1_565 S
Zn579 O594 1.989 . S
Zn579 O601 1.955 . S
O580 Zn578 1.911 . S
O580 Zn579 1.933 1_545 S
O580 H581 0.841 . S
H581 O580 0.841 . S
Zn582 O583 1.933 1_565 S
Zn582 O596 1.985 . S
Zn582 O605 1.955 . S
O583 Zn582 1.933 1_545 S
O583 Zn584 1.911 . S
O583 H585 0.841 . S
Zn584 O583 1.911 . S
Zn584 O597 1.970 . S
Zn584 O613 1.981 . S
Zn584 O615 1.945 . S
H585 O583 0.841 . S
Zn586 O587 1.933 1_565 S
Zn586 O599 1.984 . S
Zn586 O607 1.955 . S
O587 Zn586 1.933 1_545 S
O587 H588 0.841 . S
O587 Zn589 1.911 . S
H588 O587 0.841 . S
Zn589 O587 1.911 . S
Zn589 O600 1.970 . S
Zn589 O610 1.981 . S
Zn589 O618 1.945 . S
C590 O591 1.246 . S
C590 O607 1.276 . S
O591 C590 1.246 . S
O592 Zn572 1.985 . S
O592 C602 1.245 1_565 S
O593 Zn573 1.970 . S
O593 C602 1.263 . S
O594 Zn579 1.989 . S
O594 C606 1.231 1_565 S
O595 Zn578 1.970 . S
O595 C606 1.263 . S
O596 Zn582 1.985 . S
O596 C611 1.245 1_565 S
O597 Zn584 1.970 . S
O597 C611 1.263 . S
C598 O609 1.262 . S
C598 O610 1.245 . S
O599 Zn586 1.984 . S
O599 C617 1.249 1_565 S
O600 Zn589 1.970 . S
O600 C617 1.263 . S
O601 Zn579 1.955 . S
O601 C620 1.276 . S
C602 O592 1.245 1_545 S
C602 O593 1.263 . S
O603 Zn572 1.955 . S
O603 C622 1.276 . S
C604 O612 1.262 . S
C604 O613 1.245 . S
O605 C576 1.276 . S
O605 Zn582 1.955 . S
C606 O594 1.231 1_545 S
C606 O595 1.263 . S
O607 Zn586 1.955 . S
O607 C590 1.276 . S
C608 O615 1.262 . S
C608 O616 1.245 . S
O609 Zn573 1.945 . S
O609 C598 1.262 . S
O610 Zn589 1.981 . S
O610 C598 1.245 . S
C611 O596 1.245 1_545 S
C611 O597 1.263 . S
O612 Zn578 1.945 . S
O612 C604 1.262 . S
O613 Zn584 1.981 . S
O613 C604 1.245 . S
C614 O618 1.262 . S
C614 O619 1.245 . S
O615 Zn584 1.945 . S
O615 C608 1.262 . S
O616 Zn573 1.981 . S
O616 C608 1.245 . S
C617 O599 1.249 1_545 S
C617 O600 1.263 . S
O618 Zn589 1.945 . S
O618 C614 1.262 . S
O619 Zn578 1.981 . S
O619 C614 1.245 . S
C620 O601 1.276 . S
C620 O621 1.246 . S
O621 C620 1.246 . S
C622 O603 1.276 . S
C622 O623 1.246 . S
O623 C622 1.246 . S
H624 C642 0.951 . S
H625 C644 0.951 . S
H626 C646 0.950 . S
H627 C647 0.950 . S
H628 C649 0.950 . S
H629 C652 0.950 . S
H630 C653 0.950 . S
H631 C655 0.950 . S
H632 C656 0.950 . S
H633 C657 0.951 . S
H634 C659 0.951 . S
H635 C661 0.950 . S
H636 C662 0.950 . S
H637 C664 0.950 . S
H638 C667 0.950 . S
H639 C668 0.950 . S
H640 C670 0.950 . S
H641 C671 0.950 . S
C642 H624 0.951 . S
C642 C643 1.366 . S
C642 C644 1.388 . S
C643 C642 1.366 . S
C643 C647 1.385 . S
C644 H625 0.951 . S
C644 C642 1.388 . S
C644 C645 1.366 . S
C645 C644 1.366 . S
C645 C646 1.414 . S
C645 C648 1.499 . S
C646 H626 0.950 . S
C646 C645 1.414 . S
C646 C647 1.374 . S
C647 H627 0.950 . S
C647 C643 1.385 . S
C647 C646 1.374 . S
C648 C645 1.499 . S
C648 C649 1.373 . S
C648 C650 1.389 . S
C649 H628 0.950 . S
C649 C648 1.373 . S
C649 C665 1.377 . S
C650 C648 1.389 . S
C650 C651 1.524 . S
C650 C664 1.377 . S
C651 C650 1.524 . S
C651 C652 1.397 . S
C651 C656 1.363 . S
C652 H629 0.950 . S
C652 C651 1.397 . S
C652 C653 1.334 . S
C653 H630 0.950 . S
C653 C652 1.334 . S
C653 C654 1.287 . S
C654 C653 1.287 . S
C654 C655 1.524 . S
C654 H673 0.913 . S
C655 H631 0.950 . S
C655 C654 1.524 . S
C655 C656 1.415 . S
C656 H632 0.950 . S
C656 C651 1.363 . S
C656 C655 1.415 . S
C657 H633 0.951 . S
C657 C658 1.366 . S
C657 C659 1.388 . S
C658 C657 1.366 . S
C658 C662 1.385 . S
C659 H634 0.951 . S
C659 C657 1.388 . S
C659 C660 1.366 . S
C660 C659 1.366 . S
C660 C661 1.414 . S
C660 C663 1.499 . S
C661 H635 0.950 . S
C661 C660 1.414 . S
C661 C662 1.374 . S
C662 H636 0.950 . S
C662 C658 1.385 . S
C662 C661 1.374 . S
C663 C660 1.499 . S
C663 C664 1.373 . S
C663 C665 1.389 . S
C664 H637 0.950 . S
C664 C650 1.377 . S
C664 C663 1.373 . S
C665 C649 1.377 . S
C665 C663 1.389 . S
C665 C666 1.524 . S
C666 C665 1.524 . S
C666 C667 1.397 . S
C666 C671 1.363 . S
C667 H638 0.950 . S
C667 C666 1.397 . S
C667 C668 1.334 . S
C668 H639 0.950 . S
C668 C667 1.334 . S
C668 C669 1.287 . S
C669 C668 1.287 . S
C669 C670 1.524 . S
C669 H672 0.999 . S
C670 H640 0.950 . S
C670 C669 1.524 . S
C670 C671 1.415 . S
C671 H641 0.950 . S
C671 C666 1.363 . S
C671 C670 1.415 . S
H672 C669 0.999 . S
H673 C654 0.913 . S
H674 C692 0.951 . S
H675 C694 0.951 . S
H676 C696 0.950 . S
H677 C697 0.950 . S
H678 C699 0.950 . S
H679 C702 0.950 . S
H680 C703 0.950 . S
H681 C705 0.950 . S
H682 C706 0.950 . S
H683 C707 0.951 . S
H684 C709 0.951 . S
H685 C711 0.950 . S
H686 C712 0.950 . S
H687 C714 0.950 . S
H688 C717 0.950 . S
H689 C718 0.950 . S
H690 C720 0.950 . S
H691 C721 0.950 . S
C692 H674 0.951 . S
C692 C693 1.366 . S
C692 C694 1.388 . S
C693 C692 1.366 . S
C693 C697 1.385 . S
C694 H675 0.951 . S
C694 C692 1.388 . S
C694 C695 1.366 . S
C695 C694 1.366 . S
C695 C696 1.414 . S
C695 C698 1.499 . S
C696 H676 0.950 . S
C696 C695 1.414 . S
C696 C697 1.374 . S
C697 H677 0.950 . S
C697 C693 1.385 . S
C697 C696 1.374 . S
C698 C695 1.499 . S
C698 C699 1.373 . S
C698 C700 1.389 . S
C699 H678 0.950 . S
C699 C698 1.373 . S
C699 C715 1.377 . S
C700 C698 1.389 . S
C700 C701 1.524 . S
C700 C714 1.377 . S
C701 C700 1.524 . S
C701 C702 1.397 . S
C701 C706 1.363 . S
C702 H679 0.950 . S
C702 C701 1.397 . S
C702 C703 1.334 . S
C703 H680 0.950 . S
C703 C702 1.334 . S
C703 C704 1.287 . S
C704 C703 1.287 . S
C704 C705 1.524 . S
C704 H723 0.913 . S
C705 H681 0.950 . S
C705 C704 1.524 . S
C705 C706 1.415 . S
C706 H682 0.950 . S
C706 C701 1.363 . S
C706 C705 1.415 . S
C707 H683 0.951 . S
C707 C708 1.366 . S
C707 C709 1.388 . S
C708 C707 1.366 . S
C708 C712 1.385 . S
C709 H684 0.951 . S
C709 C707 1.388 . S
C709 C710 1.366 . S
C710 C709 1.366 . S
C710 C711 1.414 . S
C710 C713 1.499 . S
C711 H685 0.950 . S
C711 C710 1.414 . S
C711 C712 1.374 . S
C712 H686 0.950 . S
C712 C708 1.385 . S
C712 C711 1.374 . S
C713 C710 1.499 . S
C713 C714 1.373 . S
C713 C715 1.389 . S
C714 H687 0.950 . S
C714 C700 1.377 . S
C714 C713 1.373 . S
C715 C699 1.377 . S
C715 C713 1.389 . S
C715 C716 1.524 . S
C716 C715 1.524 . S
C716 C717 1.397 . S
C716 C721 1.363 . S
C717 H688 0.950 . S
C717 C716 1.397 . S
C717 C718 1.334 . S
C718 H689 0.950 . S
C718 C717 1.334 . S
C718 C719 1.287 . S
C719 C718 1.287 . S
C719 C720 1.524 . S
C719 H722 0.999 . S
C720 H690 0.950 . S
C720 C719 1.524 . S
C720 C721 1.415 . S
C721 H691 0.950 . S
C721 C716 1.363 . S
C721 C720 1.415 . S
H722 C719 0.999 . S
H723 C704 0.913 . S
H724 C742 0.951 . S
H725 C744 0.951 . S
H726 C746 0.950 . S
H727 C747 0.950 . S
H728 C749 0.950 . S
H729 C752 0.950 . S
H730 C753 0.950 . S
H731 C755 0.950 . S
H732 C756 0.950 . S
H733 C757 0.951 . S
H734 C759 0.951 . S
H735 C761 0.950 . S
H736 C762 0.950 . S
H737 C764 0.950 . S
H738 C767 0.950 . S
H739 C768 0.950 . S
H740 C770 0.950 . S
H741 C771 0.950 . S
C742 H724 0.951 . S
C742 C743 1.366 . S
C742 C744 1.388 . S
C743 C742 1.366 . S
C743 C747 1.385 . S
C744 H725 0.951 . S
C744 C742 1.388 . S
C744 C745 1.366 . S
C745 C744 1.366 . S
C745 C746 1.414 . S
C745 C748 1.499 . S
C746 H726 0.950 . S
C746 C745 1.414 . S
C746 C747 1.374 . S
C747 H727 0.950 . S
C747 C743 1.385 . S
C747 C746 1.374 . S
C748 C745 1.499 . S
C748 C749 1.373 . S
C748 C750 1.389 . S
C749 H728 0.950 . S
C749 C748 1.373 . S
C749 C765 1.377 . S
C750 C748 1.389 . S
C750 C751 1.524 . S
C750 C764 1.377 . S
C751 C750 1.524 . S
C751 C752 1.397 . S
C751 C756 1.363 . S
C752 H729 0.950 . S
C752 C751 1.397 . S
C752 C753 1.334 . S
C753 H730 0.950 . S
C753 C752 1.334 . S
C753 C754 1.287 . S
C754 C753 1.287 . S
C754 C755 1.524 . S
C754 H773 0.913 . S
C755 H731 0.950 . S
C755 C754 1.524 . S
C755 C756 1.415 . S
C756 H732 0.950 . S
C756 C751 1.363 . S
C756 C755 1.415 . S
C757 H733 0.951 . S
C757 C758 1.366 . S
C757 C759 1.388 . S
C758 C757 1.366 . S
C758 C762 1.385 . S
C759 H734 0.951 . S
C759 C757 1.388 . S
C759 C760 1.366 . S
C760 C759 1.366 . S
C760 C761 1.414 . S
C760 C763 1.499 . S
C761 H735 0.950 . S
C761 C760 1.414 . S
C761 C762 1.374 . S
C762 H736 0.950 . S
C762 C758 1.385 . S
C762 C761 1.374 . S
C763 C760 1.499 . S
C763 C764 1.373 . S
C763 C765 1.389 . S
C764 H737 0.950 . S
C764 C750 1.377 . S
C764 C763 1.373 . S
C765 C749 1.377 . S
C765 C763 1.389 . S
C765 C766 1.524 . S
C766 C765 1.524 . S
C766 C767 1.397 . S
C766 C771 1.363 . S
C767 H738 0.950 . S
C767 C766 1.397 . S
C767 C768 1.334 . S
C768 H739 0.950 . S
C768 C767 1.334 . S
C768 C769 1.287 . S
C769 C768 1.287 . S
C769 C770 1.524 . S
C769 H772 0.999 . S
C770 H740 0.950 . S
C770 C769 1.524 . S
C770 C771 1.415 . S
C771 H741 0.950 . S
C771 C766 1.363 . S
C771 C770 1.415 . S
H772 C769 0.999 . S
H773 C754 0.913 . S
H774 C792 0.951 . S
H775 C794 0.951 . S
H776 C796 0.950 . S
H777 C797 0.950 . S
H778 C799 0.950 . S
H779 C802 0.950 . S
H780 C803 0.950 . S
H781 C805 0.950 . S
H782 C806 0.950 . S
H783 C807 0.951 . S
H784 C809 0.951 . S
H785 C811 0.950 . S
H786 C812 0.950 . S
H787 C814 0.950 . S
H788 C817 0.950 . S
H789 C818 0.950 . S
H790 C820 0.950 . S
H791 C821 0.950 . S
C792 H774 0.951 . S
C792 C793 1.366 . S
C792 C794 1.388 . S
C793 C792 1.366 . S
C793 C797 1.385 . S
C794 H775 0.951 . S
C794 C792 1.388 . S
C794 C795 1.366 . S
C795 C794 1.366 . S
C795 C796 1.414 . S
C795 C798 1.499 . S
C796 H776 0.950 . S
C796 C795 1.414 . S
C796 C797 1.374 . S
C797 H777 0.950 . S
C797 C793 1.385 . S
C797 C796 1.374 . S
C798 C795 1.499 . S
C798 C799 1.373 . S
C798 C800 1.389 . S
C799 H778 0.950 . S
C799 C798 1.373 . S
C799 C815 1.377 . S
C800 C798 1.389 . S
C800 C801 1.524 . S
C800 C814 1.377 . S
C801 C800 1.524 . S
C801 C802 1.397 . S
C801 C806 1.363 . S
C802 H779 0.950 . S
C802 C801 1.397 . S
C802 C803 1.334 . S
C803 H780 0.950 . S
C803 C802 1.334 . S
C803 C804 1.287 . S
C804 C803 1.287 . S
C804 C805 1.524 . S
C804 H823 0.913 . S
C805 H781 0.950 . S
C805 C804 1.524 . S
C805 C806 1.415 . S
C806 H782 0.950 . S
C806 C801 1.363 . S
C806 C805 1.415 . S
C807 H783 0.951 . S
C807 C808 1.366 . S
C807 C809 1.388 . S
C808 C807 1.366 . S
C808 C812 1.385 . S
C809 H784 0.951 . S
C809 C807 1.388 . S
C809 C810 1.366 . S
C810 C809 1.366 . S
C810 C811 1.414 . S
C810 C813 1.499 . S
C811 H785 0.950 . S
C811 C810 1.414 . S
C811 C812 1.374 . S
C812 H786 0.950 . S
C812 C808 1.385 . S
C812 C811 1.374 . S
C813 C810 1.499 . S
C813 C814 1.373 . S
C813 C815 1.389 . S
C814 H787 0.950 . S
C814 C800 1.377 . S
C814 C813 1.373 . S
C815 C799 1.377 . S
C815 C813 1.389 . S
C815 C816 1.524 . S
C816 C815 1.524 . S
C816 C817 1.397 . S
C816 C821 1.363 . S
C817 H788 0.950 . S
C817 C816 1.397 . S
C817 C818 1.334 . S
C818 H789 0.950 . S
C818 C817 1.334 . S
C818 C819 1.287 . S
C819 C818 1.287 . S
C819 C820 1.524 . S
C819 H822 0.999 . S
C820 H790 0.950 . S
C820 C819 1.524 . S
C820 C821 1.415 . S
C821 H791 0.950 . S
C821 C816 1.363 . S
C821 C820 1.415 . S
H822 C819 0.999 . S
H823 C804 0.913 . S
H824 C842 0.951 . S
H825 C844 0.951 . S
H826 C846 0.950 . S
H827 C847 0.950 . S
H828 C849 0.950 . S
H829 C852 0.950 . S
H830 C853 0.950 . S
H831 C855 0.950 . S
H832 C856 0.950 . S
H833 C857 0.951 . S
H834 C859 0.951 . S
H835 C861 0.950 . S
H836 C862 0.950 . S
H837 C864 0.950 . S
H838 C867 0.950 . S
H839 C868 0.950 . S
H840 C870 0.950 . S
H841 C871 0.950 . S
C842 H824 0.951 . S
C842 C843 1.366 . S
C842 C844 1.388 . S
C843 C842 1.366 . S
C843 C847 1.385 . S
C844 H825 0.951 . S
C844 C842 1.388 . S
C844 C845 1.366 . S
C845 C844 1.366 . S
C845 C846 1.414 . S
C845 C848 1.499 . S
C846 H826 0.950 . S
C846 C845 1.414 . S
C846 C847 1.374 . S
C847 H827 0.950 . S
C847 C843 1.385 . S
C847 C846 1.374 . S
C848 C845 1.499 . S
C848 C849 1.373 . S
C848 C850 1.389 . S
C849 H828 0.950 . S
C849 C848 1.373 . S
C849 C865 1.377 . S
C850 C848 1.389 . S
C850 C851 1.524 . S
C850 C864 1.377 . S
C851 C850 1.524 . S
C851 C852 1.397 . S
C851 C856 1.363 . S
C852 H829 0.950 . S
C852 C851 1.397 . S
C852 C853 1.334 . S
C853 H830 0.950 . S
C853 C852 1.334 . S
C853 C854 1.287 . S
C854 C853 1.287 . S
C854 C855 1.524 . S
C854 H873 0.913 . S
C855 H831 0.950 . S
C855 C854 1.524 . S
C855 C856 1.415 . S
C856 H832 0.950 . S
C856 C851 1.363 . S
C856 C855 1.415 . S
C857 H833 0.951 . S
C857 C858 1.366 . S
C857 C859 1.388 . S
C858 C857 1.366 . S
C858 C862 1.385 . S
C859 H834 0.951 . S
C859 C857 1.388 . S
C859 C860 1.366 . S
C860 C859 1.366 . S
C860 C861 1.414 . S
C860 C863 1.499 . S
C861 H835 0.950 . S
C861 C860 1.414 . S
C861 C862 1.374 . S
C862 H836 0.950 . S
C862 C858 1.385 . S
C862 C861 1.374 . S
C863 C860 1.499 . S
C863 C864 1.373 . S
C863 C865 1.389 . S
C864 H837 0.950 . S
C864 C850 1.377 . S
C864 C863 1.373 . S
C865 C849 1.377 . S
C865 C863 1.389 . S
C865 C866 1.524 . S
C866 C865 1.524 . S
C866 C867 1.397 . S
C866 C871 1.363 . S
C867 H838 0.950 . S
C867 C866 1.397 . S
C867 C868 1.334 . S
C868 H839 0.950 . S
C868 C867 1.334 . S
C868 C869 1.287 . S
C869 C868 1.287 . S
C869 C870 1.524 . S
C869 H872 0.999 . S
C870 H840 0.950 . S
C870 C869 1.524 . S
C870 C871 1.415 . S
C871 H841 0.950 . S
C871 C866 1.363 . S
C871 C870 1.415 . S
H872 C869 0.999 . S
H873 C854 0.913 . S
H874 C892 0.951 . S
H875 C894 0.951 . S
H876 C896 0.950 . S
H877 C897 0.950 . S
H878 C899 0.950 . S
H879 C902 0.950 . S
H880 C903 0.950 . S
H881 C905 0.950 . S
H882 C906 0.950 . S
H883 C907 0.951 . S
H884 C909 0.951 . S
H885 C911 0.950 . S
H886 C912 0.950 . S
H887 C914 0.950 . S
H888 C917 0.950 . S
H889 C918 0.950 . S
H890 C920 0.950 . S
H891 C921 0.950 . S
C892 H874 0.951 . S
C892 C893 1.366 . S
C892 C894 1.388 . S
C893 C892 1.366 . S
C893 C897 1.385 . S
C894 H875 0.951 . S
C894 C892 1.388 . S
C894 C895 1.366 . S
C895 C894 1.366 . S
C895 C896 1.414 . S
C895 C898 1.499 . S
C896 H876 0.950 . S
C896 C895 1.414 . S
C896 C897 1.374 . S
C897 H877 0.950 . S
C897 C893 1.385 . S
C897 C896 1.374 . S
C898 C895 1.499 . S
C898 C899 1.373 . S
C898 C900 1.389 . S
C899 H878 0.950 . S
C899 C898 1.373 . S
C899 C915 1.377 . S
C900 C898 1.389 . S
C900 C901 1.524 . S
C900 C914 1.377 . S
C901 C900 1.524 . S
C901 C902 1.397 . S
C901 C906 1.363 . S
C902 H879 0.950 . S
C902 C901 1.397 . S
C902 C903 1.334 . S
C903 H880 0.950 . S
C903 C902 1.334 . S
C903 C904 1.287 . S
C904 C903 1.287 . S
C904 C905 1.524 . S
C904 H923 0.913 . S
C905 H881 0.950 . S
C905 C904 1.524 . S
C905 C906 1.415 . S
C906 H882 0.950 . S
C906 C901 1.363 . S
C906 C905 1.415 . S
C907 H883 0.951 . S
C907 C908 1.366 . S
C907 C909 1.388 . S
C908 C907 1.366 . S
C908 C912 1.385 . S
C909 H884 0.951 . S
C909 C907 1.388 . S
C909 C910 1.366 . S
C910 C909 1.366 . S
C910 C911 1.414 . S
C910 C913 1.499 . S
C911 H885 0.950 . S
C911 C910 1.414 . S
C911 C912 1.374 . S
C912 H886 0.950 . S
C912 C908 1.385 . S
C912 C911 1.374 . S
C913 C910 1.499 . S
C913 C914 1.373 . S
C913 C915 1.389 . S
C914 H887 0.950 . S
C914 C900 1.377 . S
C914 C913 1.373 . S
C915 C899 1.377 . S
C915 C913 1.389 . S
C915 C916 1.524 . S
C916 C915 1.524 . S
C916 C917 1.397 . S
C916 C921 1.363 . S
C917 H888 0.950 . S
C917 C916 1.397 . S
C917 C918 1.334 . S
C918 H889 0.950 . S
C918 C917 1.334 . S
C918 C919 1.287 . S
C919 C918 1.287 . S
C919 C920 1.524 . S
C919 H922 0.999 . S
C920 H890 0.950 . S
C920 C919 1.524 . S
C920 C921 1.415 . S
C921 H891 0.950 . S
C921 C916 1.363 . S
C921 C920 1.415 . S
H922 C919 0.999 . S
H923 C904 0.913 . S
H924 C942 0.951 . S
H925 C944 0.951 . S
H926 C946 0.950 . S
H927 C947 0.950 . S
H928 C949 0.950 . S
H929 C952 0.950 . S
H930 C953 0.950 . S
H931 C955 0.950 . S
H932 C956 0.950 . S
H933 C957 0.951 . S
H934 C959 0.951 . S
H935 C961 0.950 . S
H936 C962 0.950 . S
H937 C964 0.950 . S
H938 C967 0.950 . S
H939 C968 0.950 . S
H940 C970 0.950 . S
H941 C971 0.950 . S
C942 H924 0.951 . S
C942 C943 1.366 . S
C942 C944 1.388 . S
C943 C942 1.366 . S
C943 C947 1.385 . S
C944 H925 0.951 . S
C944 C942 1.388 . S
C944 C945 1.366 . S
C945 C944 1.366 . S
C945 C946 1.414 . S
C945 C948 1.499 . S
C946 H926 0.950 . S
C946 C945 1.414 . S
C946 C947 1.374 . S
C947 H927 0.950 . S
C947 C943 1.385 . S
C947 C946 1.374 . S
C948 C945 1.499 . S
C948 C949 1.373 . S
C948 C950 1.389 . S
C949 H928 0.950 . S
C949 C948 1.373 . S
C949 C965 1.377 . S
C950 C948 1.389 . S
C950 C951 1.524 . S
C950 C964 1.377 . S
C951 C950 1.524 . S
C951 C952 1.397 . S
C951 C956 1.363 . S
C952 H929 0.950 . S
C952 C951 1.397 . S
C952 C953 1.334 . S
C953 H930 0.950 . S
C953 C952 1.334 . S
C953 C954 1.287 . S
C954 C953 1.287 . S
C954 C955 1.524 . S
C954 H973 0.913 . S
C955 H931 0.950 . S
C955 C954 1.524 . S
C955 C956 1.415 . S
C956 H932 0.950 . S
C956 C951 1.363 . S
C956 C955 1.415 . S
C957 H933 0.951 . S
C957 C958 1.366 . S
C957 C959 1.388 . S
C958 C957 1.366 . S
C958 C962 1.385 . S
C959 H934 0.951 . S
C959 C957 1.388 . S
C959 C960 1.366 . S
C960 C959 1.366 . S
C960 C961 1.414 . S
C960 C963 1.499 . S
C961 H935 0.950 . S
C961 C960 1.414 . S
C961 C962 1.374 . S
C962 H936 0.950 . S
C962 C958 1.385 . S
C962 C961 1.374 . S
C963 C960 1.499 . S
C963 C964 1.373 . S
C963 C965 1.389 . S
C964 H937 0.950 . S
C964 C950 1.377 . S
C964 C963 1.373 . S
C965 C949 1.377 . S
C965 C963 1.389 . S
C965 C966 1.524 . S
C966 C965 1.524 . S
C966 C967 1.397 . S
C966 C971 1.363 . S
C967 H938 0.950 . S
C967 C966 1.397 . S
C967 C968 1.334 . S
C968 H939 0.950 . S
C968 C967 1.334 . S
C968 C969 1.287 . S
C969 C968 1.287 . S
C969 C970 1.524 . S
C969 H972 0.999 . S
C970 H940 0.950 . S
C970 C969 1.524 . S
C970 C971 1.415 . S
C971 H941 0.950 . S
C971 C966 1.363 . S
C971 C970 1.415 . S
H972 C969 0.999 . S
H973 C954 0.913 . S
H974 C992 0.951 . S
H975 C994 0.951 . S
H976 C996 0.950 . S
H977 C997 0.950 . S
H978 C999 0.950 . S
H979 C1002 0.950 . S
H980 C1003 0.950 . S
H981 C1005 0.950 . S
H982 C1006 0.950 . S
H983 C1007 0.951 . S
H984 C1009 0.951 . S
H985 C1011 0.950 . S
H986 C1012 0.950 . S
H987 C1014 0.950 . S
H988 C1017 0.950 . S
H989 C1018 0.950 . S
H990 C1020 0.950 . S
H991 C1021 0.950 . S
C992 H974 0.951 . S
C992 C993 1.366 . S
C992 C994 1.388 . S
C993 C992 1.366 . S
C993 C997 1.385 . S
C994 H975 0.951 . S
C994 C992 1.388 . S
C994 C995 1.366 . S
C995 C994 1.366 . S
C995 C996 1.414 . S
C995 C998 1.499 . S
C996 H976 0.950 . S
C996 C995 1.414 . S
C996 C997 1.374 . S
C997 H977 0.950 . S
C997 C993 1.385 . S
C997 C996 1.374 . S
C998 C995 1.499 . S
C998 C999 1.373 . S
C998 C1000 1.389 . S
C999 H978 0.950 . S
C999 C998 1.373 . S
C999 C1015 1.377 . S
C1000 C998 1.389 . S
C1000 C1001 1.524 . S
C1000 C1014 1.377 . S
C1001 C1000 1.524 . S
C1001 C1002 1.397 . S
C1001 C1006 1.363 . S
C1002 H979 0.950 . S
C1002 C1001 1.397 . S
C1002 C1003 1.334 . S
C1003 H980 0.950 . S
C1003 C1002 1.334 . S
C1003 C1004 1.287 . S
C1004 C1003 1.287 . S
C1004 C1005 1.524 . S
C1004 H1023 0.913 . S
C1005 H981 0.950 . S
C1005 C1004 1.524 . S
C1005 C1006 1.415 . S
C1006 H982 0.950 . S
C1006 C1001 1.363 . S
C1006 C1005 1.415 . S
C1007 H983 0.951 . S
C1007 C1008 1.366 . S
C1007 C1009 1.388 . S
C1008 C1007 1.366 . S
C1008 C1012 1.385 . S
C1009 H984 0.951 . S
C1009 C1007 1.388 . S
C1009 C1010 1.366 . S
C1010 C1009 1.366 . S
C1010 C1011 1.414 . S
C1010 C1013 1.499 . S
C1011 H985 0.950 . S
C1011 C1010 1.414 . S
C1011 C1012 1.374 . S
C1012 H986 0.950 . S
C1012 C1008 1.385 . S
C1012 C1011 1.374 . S
C1013 C1010 1.499 . S
C1013 C1014 1.373 . S
C1013 C1015 1.389 . S
C1014 H987 0.950 . S
C1014 C1000 1.377 . S
C1014 C1013 1.373 . S
C1015 C999 1.377 . S
C1015 C1013 1.389 . S
C1015 C1016 1.524 . S
C1016 C1015 1.524 . S
C1016 C1017 1.397 . S
C1016 C1021 1.363 . S
C1017 H988 0.950 . S
C1017 C1016 1.397 . S
C1017 C1018 1.334 . S
C1018 H989 0.950 . S
C1018 C1017 1.334 . S
C1018 C1019 1.287 . S
C1019 C1018 1.287 . S
C1019 C1020 1.524 . S
C1019 H1022 0.999 . S
C1020 H990 0.950 . S
C1020 C1019 1.524 . S
C1020 C1021 1.415 . S
C1021 H991 0.950 . S
C1021 C1016 1.363 . S
C1021 C1020 1.415 . S
H1022 C1019 0.999 . S
H1023 C1004 0.913 . S
H1024 C1042 0.951 . S
H1025 C1044 0.951 . S
H1026 C1046 0.950 . S
H1027 C1047 0.950 . S
H1028 C1049 0.950 . S
H1029 C1052 0.950 . S
H1030 C1053 0.950 . S
H1031 C1055 0.950 . S
H1032 C1056 0.950 . S
H1033 C1057 0.951 . S
H1034 C1059 0.951 . S
H1035 C1061 0.950 . S
H1036 C1062 0.950 . S
H1037 C1064 0.950 . S
H1038 C1067 0.950 . S
H1039 C1068 0.950 . S
H1040 C1070 0.950 . S
H1041 C1071 0.950 . S
C1042 H1024 0.951 . S
C1042 C1043 1.366 . S
C1042 C1044 1.388 . S
C1043 C1042 1.366 . S
C1043 C1047 1.385 . S
C1044 H1025 0.951 . S
C1044 C1042 1.388 . S
C1044 C1045 1.366 . S
C1045 C1044 1.366 . S
C1045 C1046 1.414 . S
C1045 C1048 1.499 . S
C1046 H1026 0.950 . S
C1046 C1045 1.414 . S
C1046 C1047 1.374 . S
C1047 H1027 0.950 . S
C1047 C1043 1.385 . S
C1047 C1046 1.374 . S
C1048 C1045 1.499 . S
C1048 C1049 1.373 . S
C1048 C1050 1.389 . S
C1049 H1028 0.950 . S
C1049 C1048 1.373 . S
C1049 C1065 1.377 . S
C1050 C1048 1.389 . S
C1050 C1051 1.524 . S
C1050 C1064 1.377 . S
C1051 C1050 1.524 . S
C1051 C1052 1.397 . S
C1051 C1056 1.363 . S
C1052 H1029 0.950 . S
C1052 C1051 1.397 . S
C1052 C1053 1.334 . S
C1053 H1030 0.950 . S
C1053 C1052 1.334 . S
C1053 C1054 1.287 . S
C1054 C1053 1.287 . S
C1054 C1055 1.524 . S
C1054 H1073 0.913 . S
C1055 H1031 0.950 . S
C1055 C1054 1.524 . S
C1055 C1056 1.415 . S
C1056 H1032 0.950 . S
C1056 C1051 1.363 . S
C1056 C1055 1.415 . S
C1057 H1033 0.951 . S
C1057 C1058 1.366 . S
C1057 C1059 1.388 . S
C1058 C1057 1.366 . S
C1058 C1062 1.385 . S
C1059 H1034 0.951 . S
C1059 C1057 1.388 . S
C1059 C1060 1.366 . S
C1060 C1059 1.366 . S
C1060 C1061 1.414 . S
C1060 C1063 1.499 . S
C1061 H1035 0.950 . S
C1061 C1060 1.414 . S
C1061 C1062 1.374 . S
C1062 H1036 0.950 . S
C1062 C1058 1.385 . S
C1062 C1061 1.374 . S
C1063 C1060 1.499 . S
C1063 C1064 1.373 . S
C1063 C1065 1.389 . S
C1064 H1037 0.950 . S
C1064 C1050 1.377 . S
C1064 C1063 1.373 . S
C1065 C1049 1.377 . S
C1065 C1063 1.389 . S
C1065 C1066 1.524 . S
C1066 C1065 1.524 . S
C1066 C1067 1.397 . S
C1066 C1071 1.363 . S
C1067 H1038 0.950 . S
C1067 C1066 1.397 . S
C1067 C1068 1.334 . S
C1068 H1039 0.950 . S
C1068 C1067 1.334 . S
C1068 C1069 1.287 . S
C1069 C1068 1.287 . S
C1069 C1070 1.524 . S
C1069 H1072 0.999 . S
C1070 H1040 0.950 . S
C1070 C1069 1.524 . S
C1070 C1071 1.415 . S
C1071 H1041 0.950 . S
C1071 C1066 1.363 . S
C1071 C1070 1.415 . S
H1072 C1069 0.999 . S
H1073 C1054 0.913 . S
H1074 C1092 0.951 . S
H1075 C1094 0.951 . S
H1076 C1096 0.950 . S
H1077 C1097 0.950 . S
H1078 C1099 0.950 . S
H1079 C1102 0.950 . S
H1080 C1103 0.950 . S
H1081 C1105 0.950 . S
H1082 C1106 0.950 . S
H1083 C1107 0.951 . S
H1084 C1109 0.951 . S
H1085 C1111 0.950 . S
H1086 C1112 0.950 . S
H1087 C1114 0.950 . S
H1088 C1117 0.950 . S
H1089 C1118 0.950 . S
H1090 C1120 0.950 . S
H1091 C1121 0.950 . S
C1092 H1074 0.951 . S
C1092 C1093 1.366 . S
C1092 C1094 1.388 . S
C1093 C1092 1.366 . S
C1093 C1097 1.385 . S
C1094 H1075 0.951 . S
C1094 C1092 1.388 . S
C1094 C1095 1.366 . S
C1095 C1094 1.366 . S
C1095 C1096 1.414 . S
C1095 C1098 1.499 . S
C1096 H1076 0.950 . S
C1096 C1095 1.414 . S
C1096 C1097 1.374 . S
C1097 H1077 0.950 . S
C1097 C1093 1.385 . S
C1097 C1096 1.374 . S
C1098 C1095 1.499 . S
C1098 C1099 1.373 . S
C1098 C1100 1.389 . S
C1099 H1078 0.950 . S
C1099 C1098 1.373 . S
C1099 C1115 1.377 . S
C1100 C1098 1.389 . S
C1100 C1101 1.524 . S
C1100 C1114 1.377 . S
C1101 C1100 1.524 . S
C1101 C1102 1.397 . S
C1101 C1106 1.363 . S
C1102 H1079 0.950 . S
C1102 C1101 1.397 . S
C1102 C1103 1.334 . S
C1103 H1080 0.950 . S
C1103 C1102 1.334 . S
C1103 C1104 1.287 . S
C1104 C1103 1.287 . S
C1104 C1105 1.524 . S
C1104 H1123 0.913 . S
C1105 H1081 0.950 . S
C1105 C1104 1.524 . S
C1105 C1106 1.415 . S
C1106 H1082 0.950 . S
C1106 C1101 1.363 . S
C1106 C1105 1.415 . S
C1107 H1083 0.951 . S
C1107 C1108 1.366 . S
C1107 C1109 1.388 . S
C1108 C1107 1.366 . S
C1108 C1112 1.385 . S
C1109 H1084 0.951 . S
C1109 C1107 1.388 . S
C1109 C1110 1.366 . S
C1110 C1109 1.366 . S
C1110 C1111 1.414 . S
C1110 C1113 1.499 . S
C1111 H1085 0.950 . S
C1111 C1110 1.414 . S
C1111 C1112 1.374 . S
C1112 H1086 0.950 . S
C1112 C1108 1.385 . S
C1112 C1111 1.374 . S
C1113 C1110 1.499 . S
C1113 C1114 1.373 . S
C1113 C1115 1.389 . S
C1114 H1087 0.950 . S
C1114 C1100 1.377 . S
C1114 C1113 1.373 . S
C1115 C1099 1.377 . S
C1115 C1113 1.389 . S
C1115 C1116 1.524 . S
C1116 C1115 1.524 . S
C1116 C1117 1.397 . S
C1116 C1121 1.363 . S
C1117 H1088 0.950 . S
C1117 C1116 1.397 . S
C1117 C1118 1.334 . S
C1118 H1089 0.950 . S
C1118 C1117 1.334 . S
C1118 C1119 1.287 . S
C1119 C1118 1.287 . S
C1119 C1120 1.524 . S
C1119 H1122 0.999 . S
C1120 H1090 0.950 . S
C1120 C1119 1.524 . S
C1120 C1121 1.415 . S
C1121 H1091 0.950 . S
C1121 C1116 1.363 . S
C1121 C1120 1.415 . S
H1122 C1119 0.999 . S
H1123 C1104 0.913 . S
H1124 C1142 0.951 . S
H1125 C1144 0.951 . S
H1126 C1146 0.950 . S
H1127 C1147 0.950 . S
H1128 C1149 0.950 . S
H1129 C1152 0.950 . S
H1130 C1153 0.950 . S
H1131 C1155 0.950 . S
H1132 C1156 0.950 . S
H1133 C1157 0.951 . S
H1134 C1159 0.951 . S
H1135 C1161 0.950 . S
H1136 C1162 0.950 . S
H1137 C1164 0.950 . S
H1138 C1167 0.950 . S
H1139 C1168 0.950 . S
H1140 C1170 0.950 . S
H1141 C1171 0.950 . S
C1142 H1124 0.951 . S
C1142 C1143 1.366 . S
C1142 C1144 1.388 . S
C1143 C1142 1.366 . S
C1143 C1147 1.385 . S
C1144 H1125 0.951 . S
C1144 C1142 1.388 . S
C1144 C1145 1.366 . S
C1145 C1144 1.366 . S
C1145 C1146 1.414 . S
C1145 C1148 1.499 . S
C1146 H1126 0.950 . S
C1146 C1145 1.414 . S
C1146 C1147 1.374 . S
C1147 H1127 0.950 . S
C1147 C1143 1.385 . S
C1147 C1146 1.374 . S
C1148 C1145 1.499 . S
C1148 C1149 1.373 . S
C1148 C1150 1.389 . S
C1149 H1128 0.950 . S
C1149 C1148 1.373 . S
C1149 C1165 1.377 . S
C1150 C1148 1.389 . S
C1150 C1151 1.524 . S
C1150 C1164 1.377 . S
C1151 C1150 1.524 . S
C1151 C1152 1.397 . S
C1151 C1156 1.363 . S
C1152 H1129 0.950 . S
C1152 C1151 1.397 . S
C1152 C1153 1.334 . S
C1153 H1130 0.950 . S
C1153 C1152 1.334 . S
C1153 C1154 1.287 . S
C1154 C1153 1.287 . S
C1154 C1155 1.524 . S
C1154 H1173 0.913 . S
C1155 H1131 0.950 . S
C1155 C1154 1.524 . S
C1155 C1156 1.415 . S
C1156 H1132 0.950 . S
C1156 C1151 1.363 . S
C1156 C1155 1.415 . S
C1157 H1133 0.951 . S
C1157 C1158 1.366 . S
C1157 C1159 1.388 . S
C1158 C1157 1.366 . S
C1158 C1162 1.385 . S
C1159 H1134 0.951 . S
C1159 C1157 1.388 . S
C1159 C1160 1.366 . S
C1160 C1159 1.366 . S
C1160 C1161 1.414 . S
C1160 C1163 1.499 . S
C1161 H1135 0.950 . S
C1161 C1160 1.414 . S
C1161 C1162 1.374 . S
C1162 H1136 0.950 . S
C1162 C1158 1.385 . S
C1162 C1161 1.374 . S
C1163 C1160 1.499 . S
C1163 C1164 1.373 . S
C1163 C1165 1.389 . S
C1164 H1137 0.950 . S
C1164 C1150 1.377 . S
C1164 C1163 1.373 . S
C1165 C1149 1.377 . S
C1165 C1163 1.389 . S
C1165 C1166 1.524 . S
C1166 C1165 1.524 . S
C1166 C1167 1.397 . S
C1166 C1171 1.363 . S
C1167 H1138 0.950 . S
C1167 C1166 1.397 . S
C1167 C1168 1.334 . S
C1168 H1139 0.950 . S
C1168 C1167 1.334 . S
C1168 C1169 1.287 . S
C1169 C1168 1.287 . S
C1169 C1170 1.524 . S
C1169 H1172 0.999 . S
C1170 H1140 0.950 . S
C1170 C1169 1.524 . S
C1170 C1171 1.415 . S
C1171 H1141 0.950 . S
C1171 C1166 1.363 . S
C1171 C1170 1.415 . S
H1172 C1169 0.999 . S
H1173 C1154 0.913 . S
H1174 C1192 0.951 . S
H1175 C1194 0.951 . S
H1176 C1196 0.950 . S
H1177 C1197 0.950 . S
H1178 C1199 0.950 . S
H1179 C1202 0.950 . S
H1180 C1203 0.950 . S
H1181 C1205 0.950 . S
H1182 C1206 0.950 . S
H1183 C1207 0.951 . S
H1184 C1209 0.951 . S
H1185 C1211 0.950 . S
H1186 C1212 0.950 . S
H1187 C1214 0.950 . S
H1188 C1217 0.950 . S
H1189 C1218 0.950 . S
H1190 C1220 0.950 . S
H1191 C1221 0.950 . S
C1192 H1174 0.951 . S
C1192 C1193 1.366 . S
C1192 C1194 1.388 . S
C1193 C1192 1.366 . S
C1193 C1197 1.385 . S
C1194 H1175 0.951 . S
C1194 C1192 1.388 . S
C1194 C1195 1.366 . S
C1195 C1194 1.366 . S
C1195 C1196 1.414 . S
C1195 C1198 1.499 . S
C1196 H1176 0.950 . S
C1196 C1195 1.414 . S
C1196 C1197 1.374 . S
C1197 H1177 0.950 . S
C1197 C1193 1.385 . S
C1197 C1196 1.374 . S
C1198 C1195 1.499 . S
C1198 C1199 1.373 . S
C1198 C1200 1.389 . S
C1199 H1178 0.950 . S
C1199 C1198 1.373 . S
C1199 C1215 1.377 . S
C1200 C1198 1.389 . S
C1200 C1201 1.524 . S
C1200 C1214 1.377 . S
C1201 C1200 1.524 . S
C1201 C1202 1.397 . S
C1201 C1206 1.363 . S
C1202 H1179 0.950 . S
C1202 C1201 1.397 . S
C1202 C1203 1.334 . S
C1203 H1180 0.950 . S
C1203 C1202 1.334 . S
C1203 C1204 1.287 . S
C1204 C1203 1.287 . S
C1204 C1205 1.524 . S
C1204 H1223 0.913 . S
C1205 H1181 0.950 . S
C1205 C1204 1.524 . S
C1205 C1206 1.415 . S
C1206 H1182 0.950 . S
C1206 C1201 1.363 . S
C1206 C1205 1.415 . S
C1207 H1183 0.951 . S
C1207 C1208 1.366 . S
C1207 C1209 1.388 . S
C1208 C1207 1.366 . S
C1208 C1212 1.385 . S
C1209 H1184 0.951 . S
C1209 C1207 1.388 . S
C1209 C1210 1.366 . S
C1210 C1209 1.366 . S
C1210 C1211 1.414 . S
C1210 C1213 1.499 . S
C1211 H1185 0.950 . S
C1211 C1210 1.414 . S
C1211 C1212 1.374 . S
C1212 H1186 0.950 . S
C1212 C1208 1.385 . S
C1212 C1211 1.374 . S
C1213 C1210 1.499 . S
C1213 C1214 1.373 . S
C1213 C1215 1.389 . S
C1214 H1187 0.950 . S
C1214 C1200 1.377 . S
C1214 C1213 1.373 . S
C1215 C1199 1.377 . S
C1215 C1213 1.389 . S
C1215 C1216 1.524 . S
C1216 C1215 1.524 . S
C1216 C1217 1.397 . S
C1216 C1221 1.363 . S
C1217 H1188 0.950 . S
C1217 C1216 1.397 . S
C1217 C1218 1.334 . S
C1218 H1189 0.950 . S
C1218 C1217 1.334 . S
C1218 C1219 1.287 . S
C1219 C1218 1.287 . S
C1219 C1220 1.524 . S
C1219 H1222 0.999 . S
C1220 H1190 0.950 . S
C1220 C1219 1.524 . S
C1220 C1221 1.415 . S
C1221 H1191 0.950 . S
C1221 C1216 1.363 . S
C1221 C1220 1.415 . S
H1222 C1219 0.999 . S
H1223 C1204 0.913 . S
H1224 C1242 0.953 . S
H1225 C1244 0.951 . S
H1226 C1246 0.950 . S
H1227 C1247 0.950 . S
H1228 C1249 0.950 . S
H1229 C1252 0.950 . S
H1230 C1253 0.950 . S
H1231 C1255 0.950 . S
H1232 C1256 0.950 . S
H1233 C1257 0.951 . S
H1234 C1259 0.951 . S
H1235 C1261 0.960 . S
H1236 C1262 0.950 . S
H1237 C1264 0.950 . S
H1238 C1267 0.950 . S
H1239 C1268 0.950 . S
H1240 C1270 0.950 . S
H1241 C1271 0.950 . S
C1242 H1224 0.953 . S
C1242 C1243 1.364 1_556 S
C1242 C1244 1.388 . S
C1243 C1242 1.364 1_554 S
C1243 C1247 1.385 . S
C1244 H1225 0.951 . S
C1244 C1242 1.388 . S
C1244 C1245 1.365 1_556 S
C1245 C1244 1.365 1_554 S
C1245 C1246 1.414 . S
C1245 C1248 1.499 . S
C1246 H1226 0.950 . S
C1246 C1245 1.414 . S
C1246 C1247 1.374 . S
C1247 H1227 0.950 . S
C1247 C1243 1.385 . S
C1247 C1246 1.374 . S
C1248 C1245 1.499 . S
C1248 C1249 1.373 . S
C1248 C1250 1.389 1_554 S
C1249 H1228 0.950 . S
C1249 C1248 1.373 . S
C1249 C1265 1.377 . S
C1250 C1248 1.389 1_556 S
C1250 C1251 1.524 . S
C1250 C1264 1.377 . S
C1251 C1250 1.524 . S
C1251 C1252 1.397 . S
C1251 C1256 1.363 . S
C1252 H1229 0.950 . S
C1252 C1251 1.397 . S
C1252 C1253 1.334 . S
C1253 H1230 0.950 . S
C1253 C1252 1.334 . S
C1253 C1254 1.287 . S
C1254 C1253 1.287 . S
C1254 C1255 1.524 . S
C1254 H1273 0.913 . S
C1255 H1231 0.950 . S
C1255 C1254 1.524 . S
C1255 C1256 1.415 . S
C1256 H1232 0.950 . S
C1256 C1251 1.363 . S
C1256 C1255 1.415 . S
C1257 H1233 0.951 . S
C1257 C1258 1.366 . S
C1257 C1259 1.388 . S
C1258 C1257 1.366 . S
C1258 C1262 1.385 . S
C1259 H1234 0.951 . S
C1259 C1257 1.388 . S
C1259 C1260 1.366 . S
C1260 C1259 1.366 . S
C1260 C1261 1.414 . S
C1260 C1263 1.499 . S
C1261 H1235 0.960 . S
C1261 C1260 1.414 . S
C1261 C1262 1.374 . S
C1262 H1236 0.950 . S
C1262 C1258 1.385 . S
C1262 C1261 1.374 . S
C1263 C1260 1.499 . S
C1263 C1264 1.373 1_554 S
C1263 C1265 1.389 . S
C1264 H1237 0.950 . S
C1264 C1250 1.377 . S
C1264 C1263 1.373 1_556 S
C1265 C1249 1.377 . S
C1265 C1263 1.389 . S
C1265 C1266 1.524 . S
C1266 C1265 1.524 . S
C1266 C1267 1.397 . S
C1266 C1271 1.363 . S
C1267 H1238 0.950 . S
C1267 C1266 1.397 . S
C1267 C1268 1.334 . S
C1268 H1239 0.950 . S
C1268 C1267 1.334 . S
C1268 C1269 1.287 . S
C1269 C1268 1.287 . S
C1269 C1270 1.524 . S
C1269 H1272 0.999 . S
C1270 H1240 0.950 . S
C1270 C1269 1.524 . S
C1270 C1271 1.415 . S
C1271 H1241 0.950 . S
C1271 C1266 1.363 . S
C1271 C1270 1.415 . S
H1272 C1269 0.999 . S
H1273 C1254 0.913 . S
H1274 C1292 0.951 . S
H1275 C1294 0.951 . S
H1276 C1296 0.950 . S
H1277 C1297 0.950 . S
H1278 C1299 0.950 . S
H1279 C1302 0.950 . S
H1280 C1303 0.950 . S
H1281 C1305 0.950 . S
H1282 C1306 0.950 . S
H1283 C1307 0.951 . S
H1284 C1309 0.951 . S
H1285 C1311 0.950 . S
H1286 C1312 0.950 . S
H1287 C1314 0.930 1_556 S
H1288 C1317 0.950 . S
H1289 C1318 0.950 . S
H1290 C1320 0.950 . S
H1291 C1321 0.950 . S
C1292 H1274 0.951 . S
C1292 C1293 1.366 . S
C1292 C1294 1.388 . S
C1293 C1292 1.366 . S
C1293 C1297 1.385 . S
C1294 H1275 0.951 . S
C1294 C1292 1.388 . S
C1294 C1295 1.366 . S
C1295 C1294 1.366 . S
C1295 C1296 1.414 . S
C1295 C1298 1.499 . S
C1296 H1276 0.950 . S
C1296 C1295 1.414 . S
C1296 C1297 1.374 . S
C1297 H1277 0.950 . S
C1297 C1293 1.385 . S
C1297 C1296 1.374 . S
C1298 C1295 1.499 . S
C1298 C1299 1.373 . S
C1298 C1300 1.383 1_554 S
C1299 H1278 0.950 . S
C1299 C1298 1.373 . S
C1299 C1315 1.377 . S
C1300 C1298 1.383 1_556 S
C1300 C1301 1.532 . S
C1300 C1314 1.375 1_556 S
C1301 C1300 1.532 . S
C1301 C1302 1.397 . S
C1301 C1306 1.363 . S
C1302 H1279 0.950 . S
C1302 C1301 1.397 . S
C1302 C1303 1.334 . S
C1303 H1280 0.950 . S
C1303 C1302 1.334 . S
C1303 C1304 1.287 . S
C1304 C1303 1.287 . S
C1304 C1305 1.524 . S
C1304 H1323 0.913 . S
C1305 H1281 0.950 . S
C1305 C1304 1.524 . S
C1305 C1306 1.415 . S
C1306 H1282 0.950 . S
C1306 C1301 1.363 . S
C1306 C1305 1.415 . S
C1307 H1283 0.951 . S
C1307 C1308 1.366 . S
C1307 C1309 1.388 . S
C1308 C1307 1.366 . S
C1308 C1312 1.385 . S
C1309 H1284 0.951 . S
C1309 C1307 1.388 . S
C1309 C1310 1.366 . S
C1310 C1309 1.366 . S
C1310 C1311 1.414 . S
C1310 C1313 1.499 . S
C1311 H1285 0.950 . S
C1311 C1310 1.414 . S
C1311 C1312 1.374 . S
C1312 H1286 0.950 . S
C1312 C1308 1.385 . S
C1312 C1311 1.374 . S
C1313 C1310 1.499 . S
C1313 C1314 1.396 . S
C1313 C1315 1.389 . S
C1314 H1287 0.930 1_554 S
C1314 C1300 1.375 1_554 S
C1314 C1313 1.396 . S
C1315 C1299 1.377 . S
C1315 C1313 1.389 . S
C1315 C1316 1.524 . S
C1316 C1315 1.524 . S
C1316 C1317 1.397 . S
C1316 C1321 1.363 . S
C1317 H1288 0.950 . S
C1317 C1316 1.397 . S
C1317 C1318 1.334 . S
C1318 H1289 0.950 . S
C1318 C1317 1.334 . S
C1318 C1319 1.287 . S
C1319 C1318 1.287 . S
C1319 C1320 1.524 . S
C1319 H1322 0.999 . S
C1320 H1290 0.950 . S
C1320 C1319 1.524 . S
C1320 C1321 1.415 . S
C1321 H1291 0.950 . S
C1321 C1316 1.363 . S
C1321 C1320 1.415 . S
H1322 C1319 0.999 . S
H1323 C1304 0.913 . S
H1324 C1342 0.951 . S
H1325 C1344 0.951 . S
H1326 C1346 0.950 . S
H1327 C1347 0.950 . S
H1328 C1349 0.950 . S
H1329 C1352 0.950 . S
H1330 C1353 0.950 . S
H1331 C1355 0.950 . S
H1332 C1356 0.950 . S
H1333 C1357 0.951 . S
H1334 C1359 0.951 . S
H1335 C1361 0.950 . S
H1336 C1362 0.950 . S
H1337 C1364 0.950 . S
H1338 C1367 0.950 1_554 S
H1339 C1368 0.950 . S
H1340 C1370 0.950 . S
H1341 C1371 0.950 . S
C1342 H1324 0.951 . S
C1342 C1343 1.366 . S
C1342 C1344 1.388 . S
C1343 C1342 1.366 . S
C1343 C1347 1.385 1_554 S
C1344 H1325 0.951 . S
C1344 C1342 1.388 . S
C1344 C1345 1.366 . S
C1345 C1344 1.366 . S
C1345 C1346 1.414 1_554 S
C1345 C1348 1.499 . S
C1346 H1326 0.950 . S
C1346 C1345 1.414 1_556 S
C1346 C1347 1.374 . S
C1347 H1327 0.950 . S
C1347 C1343 1.385 1_556 S
C1347 C1346 1.374 . S
C1348 C1345 1.499 . S
C1348 C1349 1.373 1_554 S
C1348 C1350 1.389 . S
C1349 H1328 0.950 . S
C1349 C1348 1.373 1_556 S
C1349 C1365 1.377 . S
C1350 C1348 1.389 . S
C1350 C1351 1.524 . S
C1350 C1364 1.377 . S
C1351 C1350 1.524 . S
C1351 C1352 1.397 . S
C1351 C1356 1.363 . S
C1352 H1329 0.950 . S
C1352 C1351 1.397 . S
C1352 C1353 1.334 . S
C1353 H1330 0.950 . S
C1353 C1352 1.334 . S
C1353 C1354 1.287 . S
C1354 C1353 1.287 . S
C1354 C1355 1.524 . S
C1354 H1373 0.913 . S
C1355 H1331 0.950 . S
C1355 C1354 1.524 . S
C1355 C1356 1.415 . S
C1356 H1332 0.950 . S
C1356 C1351 1.363 . S
C1356 C1355 1.415 . S
C1357 H1333 0.951 . S
C1357 C1358 1.366 1_556 S
C1357 C1359 1.388 . S
C1358 C1357 1.366 1_554 S
C1358 C1362 1.385 . S
C1359 H1334 0.951 . S
C1359 C1357 1.388 . S
C1359 C1360 1.366 1_556 S
C1360 C1359 1.366 1_554 S
C1360 C1361 1.414 . S
C1360 C1363 1.499 . S
C1361 H1335 0.950 . S
C1361 C1360 1.414 . S
C1361 C1362 1.374 . S
C1362 H1336 0.950 . S
C1362 C1358 1.385 . S
C1362 C1361 1.374 . S
C1363 C1360 1.499 . S
C1363 C1364 1.373 . S
C1363 C1365 1.389 1_554 S
C1364 H1337 0.950 . S
C1364 C1350 1.377 . S
C1364 C1363 1.373 . S
C1365 C1349 1.377 . S
C1365 C1363 1.389 1_556 S
C1365 C1366 1.524 . S
C1366 C1365 1.524 . S
C1366 C1367 1.397 . S
C1366 C1371 1.363 . S
C1367 H1338 0.950 1_556 S
C1367 C1366 1.397 . S
C1367 C1368 1.334 . S
C1368 H1339 0.950 . S
C1368 C1367 1.334 . S
C1368 C1369 1.287 . S
C1369 C1368 1.287 . S
C1369 C1370 1.524 . S
C1369 H1372 0.999 . S
C1370 H1340 0.950 . S
C1370 C1369 1.524 . S
C1370 C1371 1.415 . S
C1371 H1341 0.950 . S
C1371 C1366 1.363 . S
C1371 C1370 1.415 . S
H1372 C1369 0.999 . S
H1373 C1354 0.913 . S
H1374 C1392 0.951 . S
H1375 C1394 0.951 . S
H1376 C1396 0.950 . S
H1377 C1397 0.950 . S
H1378 C1399 0.950 . S
H1379 C1402 0.950 . S
H1380 C1403 0.950 . S
H1381 C1405 0.950 . S
H1382 C1406 0.950 . S
H1383 C1407 0.951 . S
H1384 C1409 0.954 . S
H1385 C1411 0.950 . S
H1386 C1412 0.950 . S
H1387 C1414 0.950 . S
H1388 C1417 0.950 . S
H1389 C1418 0.950 . S
H1390 C1420 0.950 . S
H1391 C1421 0.950 . S
C1392 H1374 0.951 . S
C1392 C1393 1.372 . S
C1392 C1394 1.388 . S
C1393 C1392 1.372 . S
C1393 C1397 1.381 1_554 S
C1394 H1375 0.951 . S
C1394 C1392 1.388 . S
C1394 C1395 1.366 . S
C1395 C1394 1.366 . S
C1395 C1396 1.414 1_554 S
C1395 C1398 1.499 . S
C1396 H1376 0.950 . S
C1396 C1395 1.414 1_556 S
C1396 C1397 1.374 . S
C1397 H1377 0.950 . S
C1397 C1393 1.381 1_556 S
C1397 C1396 1.374 . S
C1398 C1395 1.499 . S
C1398 C1399 1.373 1_554 S
C1398 C1400 1.389 . S
C1399 H1378 0.950 . S
C1399 C1398 1.373 1_556 S
C1399 C1415 1.377 . S
C1400 C1398 1.389 . S
C1400 C1401 1.524 . S
C1400 C1414 1.377 . S
C1401 C1400 1.524 . S
C1401 C1402 1.397 . S
C1401 C1406 1.363 . S
C1402 H1379 0.950 . S
C1402 C1401 1.397 . S
C1402 C1403 1.334 . S
C1403 H1380 0.950 . S
C1403 C1402 1.334 . S
C1403 C1404 1.287 . S
C1404 C1403 1.287 . S
C1404 C1405 1.524 . S
C1404 H1423 0.913 . S
C1405 H1381 0.950 . S
C1405 C1404 1.524 . S
C1405 C1406 1.415 . S
C1406 H1382 0.950 . S
C1406 C1401 1.363 . S
C1406 C1405 1.415 . S
C1407 H1383 0.951 . S
C1407 C1408 1.366 . S
C1407 C1409 1.388 . S
C1408 C1407 1.366 . S
C1408 C1412 1.385 . S
C1409 H1384 0.954 . S
C1409 C1407 1.388 . S
C1409 C1410 1.366 . S
C1410 C1409 1.366 . S
C1410 C1411 1.414 . S
C1410 C1413 1.499 . S
C1411 H1385 0.950 . S
C1411 C1410 1.414 . S
C1411 C1412 1.374 . S
C1412 H1386 0.950 . S
C1412 C1408 1.385 . S
C1412 C1411 1.374 . S
C1413 C1410 1.499 . S
C1413 C1414 1.373 . S
C1413 C1415 1.389 1_554 S
C1414 H1387 0.950 . S
C1414 C1400 1.377 . S
C1414 C1413 1.373 . S
C1415 C1399 1.377 . S
C1415 C1413 1.389 1_556 S
C1415 C1416 1.524 . S
C1416 C1415 1.524 . S
C1416 C1417 1.397 . S
C1416 C1421 1.363 . S
C1417 H1388 0.950 . S
C1417 C1416 1.397 . S
C1417 C1418 1.334 . S
C1418 H1389 0.950 . S
C1418 C1417 1.334 . S
C1418 C1419 1.287 . S
C1419 C1418 1.287 . S
C1419 C1420 1.524 . S
C1419 H1422 0.999 . S
C1420 H1390 0.950 . S
C1420 C1419 1.524 . S
C1420 C1421 1.415 . S
C1421 H1391 0.950 . S
C1421 C1416 1.363 . S
C1421 C1420 1.415 . S
H1422 C1419 0.999 . S
H1423 C1404 0.913 . S
H1424 C1442 0.951 . S
H1425 C1444 0.951 . S
H1426 C1446 0.950 . S
H1427 C1447 0.950 . S
H1428 C1449 0.950 . S
H1429 C1452 0.950 . S
H1430 C1453 0.950 . S
H1431 C1455 0.950 . S
H1432 C1456 0.950 . S
H1433 C1457 0.951 . S
H1434 C1459 0.951 . S
H1435 C1461 0.950 . S
H1436 C1462 0.950 . S
H1437 C1464 0.950 . S
H1438 C1467 0.999 . S
H1439 C1468 0.950 . S
H1440 C1470 0.950 . S
H1441 C1471 0.950 . S
C1442 H1424 0.951 . S
C1442 C1443 1.388 . S
C1442 C1444 1.388 . S
C1443 C1442 1.388 . S
C1443 C1447 1.364 1_455 S
C1444 H1425 0.951 . S
C1444 C1442 1.388 . S
C1444 C1445 1.366 . S
C1445 C1444 1.366 . S
C1445 C1446 1.414 1_455 S
C1445 C1448 1.499 . S
C1446 H1426 0.950 . S
C1446 C1445 1.414 1_655 S
C1446 C1447 1.374 . S
C1447 H1427 0.950 . S
C1447 C1443 1.364 1_655 S
C1447 C1446 1.374 . S
C1448 C1445 1.499 . S
C1448 C1449 1.373 1_455 S
C1448 C1450 1.389 . S
C1449 H1428 0.950 . S
C1449 C1448 1.373 1_655 S
C1449 C1465 1.377 . S
C1450 C1448 1.389 . S
C1450 C1451 1.524 . S
C1450 C1464 1.377 . S
C1451 C1450 1.524 . S
C1451 C1452 1.397 . S
C1451 C1456 1.363 . S
C1452 H1429 0.950 . S
C1452 C1451 1.397 . S
C1452 C1453 1.334 . S
C1453 H1430 0.950 . S
C1453 C1452 1.334 . S
C1453 C1454 1.287 . S
C1454 C1453 1.287 . S
C1454 C1455 1.524 . S
C1454 H1473 0.913 . S
C1455 H1431 0.950 . S
C1455 C1454 1.524 . S
C1455 C1456 1.415 . S
C1456 H1432 0.950 . S
C1456 C1451 1.363 . S
C1456 C1455 1.415 . S
C1457 H1433 0.951 . S
C1457 C1458 1.366 1_655 S
C1457 C1459 1.388 . S
C1458 C1457 1.366 1_455 S
C1458 C1462 1.385 . S
C1459 H1434 0.951 . S
C1459 C1457 1.388 . S
C1459 C1460 1.366 1_655 S
C1460 C1459 1.366 1_455 S
C1460 C1461 1.414 . S
C1460 C1463 1.499 . S
C1461 H1435 0.950 . S
C1461 C1460 1.414 . S
C1461 C1462 1.374 . S
C1462 H1436 0.950 . S
C1462 C1458 1.385 . S
C1462 C1461 1.374 . S
C1463 C1460 1.499 . S
C1463 C1464 1.373 . S
C1463 C1465 1.389 1_455 S
C1464 H1437 0.950 . S
C1464 C1450 1.377 . S
C1464 C1463 1.373 . S
C1465 C1449 1.377 . S
C1465 C1463 1.389 1_655 S
C1465 C1466 1.524 . S
C1466 C1465 1.524 . S
C1466 C1467 1.397 . S
C1466 C1471 1.363 . S
C1467 H1438 0.999 . S
C1467 C1466 1.397 . S
C1467 C1468 1.334 . S
C1468 H1439 0.950 . S
C1468 C1467 1.334 . S
C1468 C1469 1.287 . S
C1469 C1468 1.287 . S
C1469 C1470 1.524 . S
C1469 H1472 0.999 . S
C1470 H1440 0.950 . S
C1470 C1469 1.524 . S
C1470 C1471 1.415 . S
C1471 H1441 0.950 . S
C1471 C1466 1.363 . S
C1471 C1470 1.415 . S
H1472 C1469 0.999 . S
H1473 C1454 0.913 . S
H1474 C1492 0.951 . S
H1475 C1494 0.951 . S
H1476 C1496 0.950 . S
H1477 C1497 0.950 . S
H1478 C1499 0.950 . S
H1479 C1502 0.950 1_565 S
H1480 C1503 0.950 . S
H1481 C1505 0.950 . S
H1482 C1506 0.950 . S
H1483 C1507 0.951 . S
H1484 C1509 0.951 . S
H1485 C1511 0.950 . S
H1486 C1512 0.950 . S
H1487 C1514 0.950 . S
H1488 C1517 0.950 . S
H1489 C1518 0.950 1_545 S
H1490 C1520 0.950 . S
H1491 C1521 0.950 . S
C1492 H1474 0.951 . S
C1492 C1493 1.366 . S
C1492 C1494 1.388 . S
C1493 C1492 1.366 . S
C1493 C1497 1.385 1_545 S
C1494 H1475 0.951 . S
C1494 C1492 1.388 . S
C1494 C1495 1.366 . S
C1495 C1494 1.366 . S
C1495 C1496 1.414 1_545 S
C1495 C1498 1.499 . S
C1496 H1476 0.950 . S
C1496 C1495 1.414 1_565 S
C1496 C1497 1.374 . S
C1497 H1477 0.950 . S
C1497 C1493 1.385 1_565 S
C1497 C1496 1.374 . S
C1498 C1495 1.499 . S
C1498 C1499 1.373 1_545 S
C1498 C1500 1.389 . S
C1499 H1478 0.950 . S
C1499 C1498 1.373 1_565 S
C1499 C1515 1.377 . S
C1500 C1498 1.389 . S
C1500 C1501 1.524 . S
C1500 C1514 1.377 . S
C1501 C1500 1.524 . S
C1501 C1502 1.397 . S
C1501 C1506 1.363 . S
C1502 H1479 0.950 1_545 S
C1502 C1501 1.397 . S
C1502 C1503 1.334 . S
C1503 H1480 0.950 . S
C1503 C1502 1.334 . S
C1503 C1504 1.287 . S
C1504 C1503 1.287 . S
C1504 C1505 1.524 . S
C1504 H1523 0.913 . S
C1505 H1481 0.950 . S
C1505 C1504 1.524 . S
C1505 C1506 1.415 . S
C1506 H1482 0.950 . S
C1506 C1501 1.363 . S
C1506 C1505 1.415 . S
C1507 H1483 0.951 . S
C1507 C1508 1.366 1_565 S
C1507 C1509 1.388 . S
C1508 C1507 1.366 1_545 S
C1508 C1512 1.385 . S
C1509 H1484 0.951 . S
C1509 C1507 1.388 . S
C1509 C1510 1.366 1_565 S
C1510 C1509 1.366 1_545 S
C1510 C1511 1.414 . S
C1510 C1513 1.499 . S
C1511 H1485 0.950 . S
C1511 C1510 1.414 . S
C1511 C1512 1.374 . S
C1512 H1486 0.950 . S
C1512 C1508 1.385 . S
C1512 C1511 1.374 . S
C1513 C1510 1.499 . S
C1513 C1514 1.373 . S
C1513 C1515 1.389 1_545 S
C1514 H1487 0.950 . S
C1514 C1500 1.377 . S
C1514 C1513 1.373 . S
C1515 C1499 1.377 . S
C1515 C1513 1.389 1_565 S
C1515 C1516 1.524 . S
C1516 C1515 1.524 . S
C1516 C1517 1.397 1_565 S
C1516 C1521 1.363 . S
C1517 H1488 0.950 . S
C1517 C1516 1.397 1_545 S
C1517 C1518 1.334 1_545 S
C1518 H1489 0.950 1_565 S
C1518 C1517 1.334 1_565 S
C1518 C1519 1.287 . S
C1519 C1518 1.287 . S
C1519 C1520 1.524 . S
C1519 H1522 0.999 . S
C1520 H1490 0.950 . S
C1520 C1519 1.524 . S
C1520 C1521 1.415 . S
C1521 H1491 0.950 . S
C1521 C1516 1.363 . S
C1521 C1520 1.415 . S
H1522 C1519 0.999 . S
H1523 C1504 0.913 . S
H1524 C1542 0.951 1_655 S
H1525 C1544 0.951 1_655 S
H1526 C1546 0.950 . S
H1527 C1547 0.950 . S
H1528 C1549 0.950 . S
H1529 C1552 0.950 . S
H1530 C1553 0.950 . S
H1531 C1555 0.950 . S
H1532 C1556 0.950 . S
H1533 C1557 0.951 . S
H1534 C1559 0.951 . S
H1535 C1561 0.951 1_655 S
H1536 C1562 0.975 . S
H1537 C1564 0.950 . S
H1538 C1567 0.950 . S
H1539 C1568 0.950 . S
H1540 C1570 0.950 . S
H1541 C1571 0.950 . S
C1542 H1524 0.951 1_455 S
C1542 C1543 1.366 . S
C1542 C1544 1.388 . S
C1543 C1542 1.366 . S
C1543 C1547 1.385 . S
C1544 H1525 0.951 1_455 S
C1544 C1542 1.388 . S
C1544 C1545 1.366 . S
C1545 C1544 1.366 . S
C1545 C1546 1.414 . S
C1545 C1548 1.499 . S
C1546 H1526 0.950 . S
C1546 C1545 1.414 . S
C1546 C1547 1.374 . S
C1547 H1527 0.950 . S
C1547 C1543 1.385 . S
C1547 C1546 1.374 . S
C1548 C1545 1.499 . S
C1548 C1549 1.373 . S
C1548 C1550 1.389 1_455 S
C1549 H1528 0.950 . S
C1549 C1548 1.373 . S
C1549 C1565 1.377 . S
C1550 C1548 1.389 1_655 S
C1550 C1551 1.524 . S
C1550 C1564 1.377 . S
C1551 C1550 1.524 . S
C1551 C1552 1.397 . S
C1551 C1556 1.363 . S
C1552 H1529 0.950 . S
C1552 C1551 1.397 . S
C1552 C1553 1.334 . S
C1553 H1530 0.950 . S
C1553 C1552 1.334 . S
C1553 C1554 1.287 . S
C1554 C1553 1.287 . S
C1554 C1555 1.524 . S
C1554 H1573 0.913 . S
C1555 H1531 0.950 . S
C1555 C1554 1.524 . S
C1555 C1556 1.415 . S
C1556 H1532 0.950 . S
C1556 C1551 1.363 . S
C1556 C1555 1.415 . S
C1557 H1533 0.951 . S
C1557 C1558 1.366 . S
C1557 C1559 1.388 . S
C1558 C1557 1.366 . S
C1558 C1562 1.361 1_455 S
C1559 H1534 0.951 . S
C1559 C1557 1.388 . S
C1559 C1560 1.366 . S
C1560 C1559 1.366 . S
C1560 C1561 1.413 . S
C1560 C1563 1.499 . S
C1561 H1535 0.951 1_455 S
C1561 C1560 1.413 . S
C1561 C1562 1.373 1_455 S
C1562 H1536 0.975 . S
C1562 C1558 1.361 1_655 S
C1562 C1561 1.373 1_655 S
C1563 C1560 1.499 . S
C1563 C1564 1.373 1_455 S
C1563 C1565 1.389 . S
C1564 H1537 0.950 . S
C1564 C1550 1.377 . S
C1564 C1563 1.373 1_655 S
C1565 C1549 1.377 . S
C1565 C1563 1.389 . S
C1565 C1566 1.524 . S
C1566 C1565 1.524 . S
C1566 C1567 1.397 . S
C1566 C1571 1.363 . S
C1567 H1538 0.950 . S
C1567 C1566 1.397 . S
C1567 C1568 1.334 . S
C1568 H1539 0.950 . S
C1568 C1567 1.334 . S
C1568 C1569 1.287 . S
C1569 C1568 1.287 . S
C1569 C1570 1.524 . S
C1569 H1572 0.999 . S
C1570 H1540 0.950 . S
C1570 C1569 1.524 . S
C1570 C1571 1.415 . S
C1571 H1541 0.950 . S
C1571 C1566 1.363 . S
C1571 C1570 1.415 . S
H1572 C1569 0.999 . S
H1573 C1554 0.913 . S
H1574 C1592 0.951 . S
H1575 C1594 0.951 . S
H1576 C1596 0.950 . S
H1577 C1597 0.950 . S
H1578 C1599 0.950 1_565 S
H1579 C1602 0.950 . S
H1580 C1603 0.950 . S
H1581 C1605 0.950 . S
H1582 C1606 0.950 . S
H1583 C1607 0.951 . S
H1584 C1609 0.951 . S
H1585 C1611 0.950 . S
H1586 C1612 0.950 . S
H1587 C1614 0.950 . S
H1588 C1617 0.950 . S
H1589 C1618 0.950 . S
H1590 C1620 0.950 . S
H1591 C1621 0.950 . S
C1592 H1574 0.951 . S
C1592 C1593 1.366 . S
C1592 C1594 1.388 . S
C1593 C1592 1.366 . S
C1593 C1597 1.385 . S
C1594 H1575 0.951 . S
C1594 C1592 1.388 . S
C1594 C1595 1.366 . S
C1595 C1594 1.366 . S
C1595 C1596 1.414 . S
C1595 C1598 1.499 . S
C1596 H1576 0.950 . S
C1596 C1595 1.414 . S
C1596 C1597 1.374 . S
C1597 H1577 0.950 . S
C1597 C1593 1.385 . S
C1597 C1596 1.374 . S
C1598 C1595 1.499 . S
C1598 C1599 1.373 . S
C1598 C1600 1.389 . S
C1599 H1578 0.950 1_545 S
C1599 C1598 1.373 . S
C1599 C1615 1.377 . S
C1600 C1598 1.389 . S
C1600 C1601 1.524 . S
C1600 C1614 1.377 . S
C1601 C1600 1.524 . S
C1601 C1602 1.397 . S
C1601 C1606 1.363 . S
C1602 H1579 0.950 . S
C1602 C1601 1.397 . S
C1602 C1603 1.334 . S
C1603 H1580 0.950 . S
C1603 C1602 1.334 . S
C1603 C1604 1.287 . S
C1604 C1603 1.287 . S
C1604 C1605 1.524 . S
C1604 H1623 0.913 . S
C1605 H1581 0.950 . S
C1605 C1604 1.524 . S
C1605 C1606 1.415 . S
C1606 H1582 0.950 . S
C1606 C1601 1.363 . S
C1606 C1605 1.415 . S
C1607 H1583 0.951 . S
C1607 C1608 1.366 . S
C1607 C1609 1.388 . S
C1608 C1607 1.366 . S
C1608 C1612 1.385 . S
C1609 H1584 0.951 . S
C1609 C1607 1.388 . S
C1609 C1610 1.366 . S
C1610 C1609 1.366 . S
C1610 C1611 1.414 . S
C1610 C1613 1.499 . S
C1611 H1585 0.950 . S
C1611 C1610 1.414 . S
C1611 C1612 1.374 . S
C1612 H1586 0.950 . S
C1612 C1608 1.385 . S
C1612 C1611 1.374 . S
C1613 C1610 1.499 . S
C1613 C1614 1.373 . S
C1613 C1615 1.389 . S
C1614 H1587 0.950 . S
C1614 C1600 1.377 . S
C1614 C1613 1.373 . S
C1615 C1599 1.377 . S
C1615 C1613 1.389 . S
C1615 C1616 1.524 1_545 S
C1616 C1615 1.524 1_565 S
C1616 C1617 1.397 . S
C1616 C1621 1.363 . S
C1617 H1588 0.950 . S
C1617 C1616 1.397 . S
C1617 C1618 1.334 . S
C1618 H1589 0.950 . S
C1618 C1617 1.334 . S
C1618 C1619 1.287 . S
C1619 C1618 1.287 . S
C1619 C1620 1.524 . S
C1619 H1622 0.999 . S
C1620 H1590 0.950 . S
C1620 C1619 1.524 . S
C1620 C1621 1.415 . S
C1621 H1591 0.950 . S
C1621 C1616 1.363 . S
C1621 C1620 1.415 . S
H1622 C1619 0.999 . S
H1623 C1604 0.913 . S
H1624 C1642 0.951 . S
H1625 C1644 0.951 . S
H1626 C1646 0.950 . S
H1627 C1647 0.950 . S
H1628 C1649 0.950 . S
H1629 C1652 0.950 . S
H1630 C1653 0.950 . S
H1631 C1655 0.950 . S
H1632 C1656 0.950 . S
H1633 C1657 0.951 . S
H1634 C1659 0.951 . S
H1635 C1661 0.950 . S
H1636 C1662 0.950 . S
H1637 C1664 0.950 1_655 S
H1638 C1667 0.950 . S
H1639 C1668 0.950 . S
H1640 C1670 0.950 . S
H1641 C1671 0.950 . S
C1642 H1624 0.951 . S
C1642 C1643 1.366 . S
C1642 C1644 1.388 . S
C1643 C1642 1.366 . S
C1643 C1647 1.385 . S
C1644 H1625 0.951 . S
C1644 C1642 1.388 . S
C1644 C1645 1.366 . S
C1645 C1644 1.366 . S
C1645 C1646 1.414 . S
C1645 C1648 1.499 . S
C1646 H1626 0.950 . S
C1646 C1645 1.414 . S
C1646 C1647 1.374 . S
C1647 H1627 0.950 . S
C1647 C1643 1.385 . S
C1647 C1646 1.374 . S
C1648 C1645 1.499 . S
C1648 C1649 1.373 . S
C1648 C1650 1.389 . S
C1649 H1628 0.950 . S
C1649 C1648 1.373 . S
C1649 C1665 1.377 . S
C1650 C1648 1.389 . S
C1650 C1651 1.524 1_455 S
C1650 C1664 1.377 . S
C1651 C1650 1.524 1_655 S
C1651 C1652 1.397 . S
C1651 C1656 1.363 . S
C1652 H1629 0.950 . S
C1652 C1651 1.397 . S
C1652 C1653 1.334 . S
C1653 H1630 0.950 . S
C1653 C1652 1.334 . S
C1653 C1654 1.287 . S
C1654 C1653 1.287 . S
C1654 C1655 1.524 . S
C1654 H1673 0.913 . S
C1655 H1631 0.950 . S
C1655 C1654 1.524 . S
C1655 C1656 1.415 . S
C1656 H1632 0.950 . S
C1656 C1651 1.363 . S
C1656 C1655 1.415 . S
C1657 H1633 0.951 . S
C1657 C1658 1.366 . S
C1657 C1659 1.388 . S
C1658 C1657 1.366 . S
C1658 C1662 1.385 . S
C1659 H1634 0.951 . S
C1659 C1657 1.388 . S
C1659 C1660 1.366 . S
C1660 C1659 1.366 . S
C1660 C1661 1.414 . S
C1660 C1663 1.499 . S
C1661 H1635 0.950 . S
C1661 C1660 1.414 . S
C1661 C1662 1.374 . S
C1662 H1636 0.950 . S
C1662 C1658 1.385 . S
C1662 C1661 1.374 . S
C1663 C1660 1.499 . S
C1663 C1664 1.373 . S
C1663 C1665 1.389 . S
C1664 H1637 0.950 1_455 S
C1664 C1650 1.377 . S
C1664 C1663 1.373 . S
C1665 C1649 1.377 . S
C1665 C1663 1.389 . S
C1665 C1666 1.524 . S
C1666 C1665 1.524 . S
C1666 C1667 1.397 . S
C1666 C1671 1.363 . S
C1667 H1638 0.950 . S
C1667 C1666 1.397 . S
C1667 C1668 1.334 . S
C1668 H1639 0.950 . S
C1668 C1667 1.334 . S
C1668 C1669 1.287 . S
C1669 C1668 1.287 . S
C1669 C1670 1.524 . S
C1669 H1672 0.999 . S
C1670 H1640 0.950 . S
C1670 C1669 1.524 . S
C1670 C1671 1.415 . S
C1671 H1641 0.950 . S
C1671 C1666 1.363 . S
C1671 C1670 1.415 . S
H1672 C1669 0.999 . S
H1673 C1654 0.913 . S
H1674 C1692 0.951 . S
H1675 C1694 0.951 . S
H1676 C1696 0.950 . S
H1677 C1697 0.950 . S
H1678 C1699 0.950 . S
H1679 C1702 0.950 . S
H1680 C1703 0.950 . S
H1681 C1705 0.950 . S
H1682 C1706 0.950 1_545 S
H1683 C1707 0.951 . S
H1684 C1709 0.951 . S
H1685 C1711 0.950 . S
H1686 C1712 0.950 . S
H1687 C1714 0.950 . S
H1688 C1717 0.950 . S
H1689 C1718 0.950 . S
H1690 C1720 0.950 . S
H1691 C1721 0.950 . S
C1692 H1674 0.951 . S
C1692 C1693 1.366 . S
C1692 C1694 1.388 . S
C1693 C1692 1.366 . S
C1693 C1697 1.385 . S
C1694 H1675 0.951 . S
C1694 C1692 1.388 . S
C1694 C1695 1.366 . S
C1695 C1694 1.366 . S
C1695 C1696 1.414 . S
C1695 C1698 1.499 . S
C1696 H1676 0.950 . S
C1696 C1695 1.414 . S
C1696 C1697 1.374 . S
C1697 H1677 0.950 . S
C1697 C1693 1.385 . S
C1697 C1696 1.374 . S
C1698 C1695 1.499 . S
C1698 C1699 1.373 . S
C1698 C1700 1.389 . S
C1699 H1678 0.950 . S
C1699 C1698 1.373 . S
C1699 C1715 1.377 . S
C1700 C1698 1.389 . S
C1700 C1701 1.524 1_545 S
C1700 C1714 1.377 . S
C1701 C1700 1.524 1_565 S
C1701 C1702 1.397 . S
C1701 C1706 1.363 . S
C1702 H1679 0.950 . S
C1702 C1701 1.397 . S
C1702 C1703 1.334 . S
C1703 H1680 0.950 . S
C1703 C1702 1.334 . S
C1703 C1704 1.287 . S
C1704 C1703 1.287 . S
C1704 C1705 1.524 . S
C1704 H1723 0.913 . S
C1705 H1681 0.950 . S
C1705 C1704 1.524 . S
C1705 C1706 1.415 . S
C1706 H1682 0.950 1_565 S
C1706 C1701 1.363 . S
C1706 C1705 1.415 . S
C1707 H1683 0.951 . S
C1707 C1708 1.366 . S
C1707 C1709 1.388 . S
C1708 C1707 1.366 . S
C1708 C1712 1.385 . S
C1709 H1684 0.951 . S
C1709 C1707 1.388 . S
C1709 C1710 1.366 . S
C1710 C1709 1.366 . S
C1710 C1711 1.414 . S
C1710 C1713 1.499 . S
C1711 H1685 0.950 . S
C1711 C1710 1.414 . S
C1711 C1712 1.374 . S
C1712 H1686 0.950 . S
C1712 C1708 1.385 . S
C1712 C1711 1.374 . S
C1713 C1710 1.499 . S
C1713 C1714 1.373 . S
C1713 C1715 1.389 . S
C1714 H1687 0.950 . S
C1714 C1700 1.377 . S
C1714 C1713 1.373 . S
C1715 C1699 1.377 . S
C1715 C1713 1.389 . S
C1715 C1716 1.524 . S
C1716 C1715 1.524 . S
C1716 C1717 1.397 . S
C1716 C1721 1.363 . S
C1717 H1688 0.950 . S
C1717 C1716 1.397 . S
C1717 C1718 1.334 . S
C1718 H1689 0.950 . S
C1718 C1717 1.334 . S
C1718 C1719 1.287 . S
C1719 C1718 1.287 . S
C1719 C1720 1.524 . S
C1719 H1722 0.999 . S
C1720 H1690 0.950 . S
C1720 C1719 1.524 . S
C1720 C1721 1.415 . S
C1721 H1691 0.950 . S
C1721 C1716 1.363 . S
C1721 C1720 1.415 . S
H1722 C1719 0.999 . S
H1723 C1704 0.913 . S
H1724 C1742 0.951 . S
H1725 C1744 0.951 . S
H1726 C1746 0.950 1_655 S
H1727 C1747 0.950 1_655 S
H1728 C1749 0.950 1_655 S
H1729 C1752 0.950 . S
H1730 C1753 0.950 . S
H1731 C1755 0.950 . S
H1732 C1756 0.950 . S
H1733 C1757 0.951 1_655 S
H1734 C1759 0.951 1_655 S
H1735 C1761 0.950 . S
H1736 C1762 0.950 . S
H1737 C1764 0.950 . S
H1738 C1767 0.950 1_455 S
H1739 C1768 0.950 . S
H1740 C1770 0.950 . S
H1741 C1771 0.950 . S
C1742 H1724 0.951 . S
C1742 C1743 1.366 . S
C1742 C1744 1.388 . S
C1743 C1742 1.366 . S
C1743 C1747 1.385 . S
C1744 H1725 0.951 . S
C1744 C1742 1.388 . S
C1744 C1745 1.366 . S
C1745 C1744 1.366 . S
C1745 C1746 1.414 . S
C1745 C1748 1.499 . S
C1746 H1726 0.950 1_455 S
C1746 C1745 1.414 . S
C1746 C1747 1.374 . S
C1747 H1727 0.950 1_455 S
C1747 C1743 1.385 . S
C1747 C1746 1.374 . S
C1748 C1745 1.499 . S
C1748 C1749 1.373 . S
C1748 C1750 1.389 . S
C1749 H1728 0.950 1_455 S
C1749 C1748 1.373 . S
C1749 C1765 1.377 . S
C1750 C1748 1.389 . S
C1750 C1751 1.524 . S
C1750 C1764 1.377 . S
C1751 C1750 1.524 . S
C1751 C1752 1.397 . S
C1751 C1756 1.363 . S
C1752 H1729 0.950 . S
C1752 C1751 1.397 . S
C1752 C1753 1.334 . S
C1753 H1730 0.950 . S
C1753 C1752 1.334 . S
C1753 C1754 1.287 . S
C1754 C1753 1.287 . S
C1754 C1755 1.524 . S
C1754 H1773 0.913 . S
C1755 H1731 0.950 . S
C1755 C1754 1.524 . S
C1755 C1756 1.415 . S
C1756 H1732 0.950 . S
C1756 C1751 1.363 . S
C1756 C1755 1.415 . S
C1757 H1733 0.951 1_455 S
C1757 C1758 1.366 . S
C1757 C1759 1.388 . S
C1758 C1757 1.366 . S
C1758 C1762 1.385 . S
C1759 H1734 0.951 1_455 S
C1759 C1757 1.388 . S
C1759 C1760 1.366 . S
C1760 C1759 1.366 . S
C1760 C1761 1.414 . S
C1760 C1763 1.499 . S
C1761 H1735 0.950 . S
C1761 C1760 1.414 . S
C1761 C1762 1.374 . S
C1762 H1736 0.950 . S
C1762 C1758 1.385 . S
C1762 C1761 1.374 . S
C1763 C1760 1.499 . S
C1763 C1764 1.373 . S
C1763 C1765 1.389 . S
C1764 H1737 0.950 . S
C1764 C1750 1.377 . S
C1764 C1763 1.373 . S
C1765 C1749 1.377 . S
C1765 C1763 1.389 . S
C1765 C1766 1.524 1_455 S
C1766 C1765 1.524 1_655 S
C1766 C1767 1.397 . S
C1766 C1771 1.363 . S
C1767 H1738 0.950 1_655 S
C1767 C1766 1.397 . S
C1767 C1768 1.334 . S
C1768 H1739 0.950 . S
C1768 C1767 1.334 . S
C1768 C1769 1.287 . S
C1769 C1768 1.287 . S
C1769 C1770 1.524 . S
C1769 H1772 0.999 . S
C1770 H1740 0.950 . S
C1770 C1769 1.524 . S
C1770 C1771 1.415 . S
C1771 H1741 0.950 . S
C1771 C1766 1.363 . S
C1771 C1770 1.415 . S
H1772 C1769 0.999 . S
H1773 C1754 0.913 . S
H1774 C1792 0.951 . S
H1775 C1794 0.951 . S
H1776 C1796 0.950 . S
H1777 C1797 0.950 . S
H1778 C1799 0.950 . S
H1779 C1802 0.950 . S
H1780 C1803 0.950 . S
H1781 C1805 0.950 . S
H1782 C1806 0.950 . S
H1783 C1807 0.951 . S
H1784 C1809 0.951 . S
H1785 C1811 0.950 . S
H1786 C1812 0.950 . S
H1787 C1814 0.950 . S
H1788 C1817 0.950 . S
H1789 C1818 0.950 . S
H1790 C1820 0.950 1_565 S
H1791 C1821 0.958 . S
C1792 H1774 0.951 . S
C1792 C1793 1.366 . S
C1792 C1794 1.388 . S
C1793 C1792 1.366 . S
C1793 C1797 1.385 1_545 S
C1794 H1775 0.951 . S
C1794 C1792 1.388 . S
C1794 C1795 1.366 . S
C1795 C1794 1.366 . S
C1795 C1796 1.414 1_545 S
C1795 C1798 1.499 . S
C1796 H1776 0.950 . S
C1796 C1795 1.414 1_565 S
C1796 C1797 1.374 . S
C1797 H1777 0.950 . S
C1797 C1793 1.385 1_565 S
C1797 C1796 1.374 . S
C1798 C1795 1.499 . S
C1798 C1799 1.373 . S
C1798 C1800 1.389 . S
C1799 H1778 0.950 . S
C1799 C1798 1.373 . S
C1799 C1815 1.377 . S
C1800 C1798 1.389 . S
C1800 C1801 1.524 . S
C1800 C1814 1.377 . S
C1801 C1800 1.524 . S
C1801 C1802 1.397 1_545 S
C1801 C1806 1.363 . S
C1802 H1779 0.950 . S
C1802 C1801 1.397 1_565 S
C1802 C1803 1.334 . S
C1803 H1780 0.950 . S
C1803 C1802 1.334 . S
C1803 C1804 1.287 . S
C1804 C1803 1.287 . S
C1804 C1805 1.524 1_565 S
C1804 H1823 0.913 . S
C1805 H1781 0.950 . S
C1805 C1804 1.524 1_545 S
C1805 C1806 1.415 . S
C1806 H1782 0.950 . S
C1806 C1801 1.363 . S
C1806 C1805 1.415 . S
C1807 H1783 0.951 . S
C1807 C1808 1.366 1_565 S
C1807 C1809 1.388 . S
C1808 C1807 1.366 1_545 S
C1808 C1812 1.385 . S
C1809 H1784 0.951 . S
C1809 C1807 1.388 . S
C1809 C1810 1.366 1_565 S
C1810 C1809 1.366 1_545 S
C1810 C1811 1.414 . S
C1810 C1813 1.499 . S
C1811 H1785 0.950 . S
C1811 C1810 1.414 . S
C1811 C1812 1.374 . S
C1812 H1786 0.950 . S
C1812 C1808 1.385 . S
C1812 C1811 1.374 . S
C1813 C1810 1.499 . S
C1813 C1814 1.373 . S
C1813 C1815 1.389 . S
C1814 H1787 0.950 . S
C1814 C1800 1.377 . S
C1814 C1813 1.373 . S
C1815 C1799 1.377 . S
C1815 C1813 1.389 . S
C1815 C1816 1.524 . S
C1816 C1815 1.524 . S
C1816 C1817 1.397 . S
C1816 C1821 1.357 1_545 S
C1817 H1788 0.950 . S
C1817 C1816 1.397 . S
C1817 C1818 1.334 . S
C1818 H1789 0.950 . S
C1818 C1817 1.334 . S
C1818 C1819 1.287 . S
C1819 C1818 1.287 . S
C1819 C1820 1.524 . S
C1819 H1822 0.999 . S
C1820 H1790 0.950 1_545 S
C1820 C1819 1.524 . S
C1820 C1821 1.413 1_545 S
C1821 H1791 0.958 . S
C1821 C1816 1.357 1_565 S
C1821 C1820 1.413 1_565 S
H1822 C1819 0.999 . S
H1823 C1804 0.913 . S
H1824 C1842 0.951 . S
H1825 C1844 0.951 . S
H1826 C1846 0.950 . S
H1827 C1847 0.950 . S
H1828 C1849 0.950 . S
H1829 C1852 0.950 . S
H1830 C1853 0.950 . S
H1831 C1855 0.950 . S
H1832 C1856 0.950 . S
H1833 C1857 0.951 . S
H1834 C1859 0.951 . S
H1835 C1861 0.950 . S
H1836 C1862 0.950 . S
H1837 C1864 0.950 . S
H1838 C1867 0.950 . S
H1839 C1868 0.950 . S
H1840 C1870 0.950 . S
H1841 C1871 0.950 1_455 S
C1842 H1824 0.951 . S
C1842 C1843 1.366 . S
C1842 C1844 1.388 . S
C1843 C1842 1.366 . S
C1843 C1847 1.385 . S
C1844 H1825 0.951 . S
C1844 C1842 1.388 . S
C1844 C1845 1.366 . S
C1845 C1844 1.366 . S
C1845 C1846 1.414 . S
C1845 C1848 1.499 . S
C1846 H1826 0.950 . S
C1846 C1845 1.414 . S
C1846 C1847 1.374 . S
C1847 H1827 0.950 . S
C1847 C1843 1.385 . S
C1847 C1846 1.374 . S
C1848 C1845 1.499 . S
C1848 C1849 1.373 . S
C1848 C1850 1.389 . S
C1849 H1828 0.950 . S
C1849 C1848 1.373 . S
C1849 C1865 1.377 . S
C1850 C1848 1.389 . S
C1850 C1851 1.524 . S
C1850 C1864 1.377 . S
C1851 C1850 1.524 . S
C1851 C1852 1.397 . S
C1851 C1856 1.363 . S
C1852 H1829 0.950 . S
C1852 C1851 1.397 . S
C1852 C1853 1.334 . S
C1853 H1830 0.950 . S
C1853 C1852 1.334 . S
C1853 C1854 1.287 . S
C1854 C1853 1.287 . S
C1854 C1855 1.524 . S
C1854 H1873 0.913 . S
C1855 H1831 0.950 . S
C1855 C1854 1.524 . S
C1855 C1856 1.415 . S
C1856 H1832 0.950 . S
C1856 C1851 1.363 . S
C1856 C1855 1.415 . S
C1857 H1833 0.951 . S
C1857 C1858 1.366 . S
C1857 C1859 1.388 . S
C1858 C1857 1.366 . S
C1858 C1862 1.385 . S
C1859 H1834 0.951 . S
C1859 C1857 1.388 . S
C1859 C1860 1.366 . S
C1860 C1859 1.366 . S
C1860 C1861 1.414 . S
C1860 C1863 1.499 . S
C1861 H1835 0.950 . S
C1861 C1860 1.414 . S
C1861 C1862 1.374 . S
C1862 H1836 0.950 . S
C1862 C1858 1.385 . S
C1862 C1861 1.374 . S
C1863 C1860 1.499 . S
C1863 C1864 1.373 . S
C1863 C1865 1.389 . S
C1864 H1837 0.950 . S
C1864 C1850 1.377 . S
C1864 C1863 1.373 . S
C1865 C1849 1.377 . S
C1865 C1863 1.389 . S
C1865 C1866 1.524 1_455 S
C1866 C1865 1.524 1_655 S
C1866 C1867 1.397 . S
C1866 C1871 1.363 . S
C1867 H1838 0.950 . S
C1867 C1866 1.397 . S
C1867 C1868 1.334 . S
C1868 H1839 0.950 . S
C1868 C1867 1.334 . S
C1868 C1869 1.287 . S
C1869 C1868 1.287 . S
C1869 C1870 1.524 . S
C1869 H1872 0.999 . S
C1870 H1840 0.950 . S
C1870 C1869 1.524 . S
C1870 C1871 1.415 . S
C1871 H1841 0.950 1_655 S
C1871 C1866 1.363 . S
C1871 C1870 1.415 . S
H1872 C1869 0.999 . S
H1873 C1854 0.913 . S
H1874 C1892 0.951 . S
H1875 C1894 0.951 . S
H1876 C1896 0.950 . S
H1877 C1897 0.950 . S
H1878 C1899 0.950 . S
H1879 C1902 0.950 . S
H1880 C1903 0.950 . S
H1881 C1905 0.950 . S
H1882 C1906 0.950 . S
H1883 C1907 0.951 . S
H1884 C1909 0.951 . S
H1885 C1911 0.950 . S
H1886 C1912 0.950 . S
H1887 C1914 0.950 . S
H1888 C1917 0.950 . S
H1889 C1918 0.950 . S
H1890 C1920 0.950 . S
H1891 C1921 0.951 1_545 S
C1892 H1874 0.951 . S
C1892 C1893 1.366 . S
C1892 C1894 1.388 . S
C1893 C1892 1.366 . S
C1893 C1897 1.385 . S
C1894 H1875 0.951 . S
C1894 C1892 1.388 . S
C1894 C1895 1.366 . S
C1895 C1894 1.366 . S
C1895 C1896 1.414 . S
C1895 C1898 1.499 . S
C1896 H1876 0.950 . S
C1896 C1895 1.414 . S
C1896 C1897 1.374 . S
C1897 H1877 0.950 . S
C1897 C1893 1.385 . S
C1897 C1896 1.374 . S
C1898 C1895 1.499 . S
C1898 C1899 1.373 . S
C1898 C1900 1.389 . S
C1899 H1878 0.950 . S
C1899 C1898 1.373 . S
C1899 C1915 1.377 . S
C1900 C1898 1.389 . S
C1900 C1901 1.524 . S
C1900 C1914 1.377 . S
C1901 C1900 1.524 . S
C1901 C1902 1.397 . S
C1901 C1906 1.363 . S
C1902 H1879 0.950 . S
C1902 C1901 1.397 . S
C1902 C1903 1.334 . S
C1903 H1880 0.950 . S
C1903 C1902 1.334 . S
C1903 C1904 1.287 . S
C1904 C1903 1.287 . S
C1904 C1905 1.524 . S
C1904 H1923 0.913 . S
C1905 H1881 0.950 . S
C1905 C1904 1.524 . S
C1905 C1906 1.415 . S
C1906 H1882 0.950 . S
C1906 C1901 1.363 . S
C1906 C1905 1.415 . S
C1907 H1883 0.951 . S
C1907 C1908 1.366 . S
C1907 C1909 1.388 . S
C1908 C1907 1.366 . S
C1908 C1912 1.385 . S
C1909 H1884 0.951 . S
C1909 C1907 1.388 . S
C1909 C1910 1.366 . S
C1910 C1909 1.366 . S
C1910 C1911 1.414 . S
C1910 C1913 1.499 . S
C1911 H1885 0.950 . S
C1911 C1910 1.414 . S
C1911 C1912 1.374 . S
C1912 H1886 0.950 . S
C1912 C1908 1.385 . S
C1912 C1911 1.374 . S
C1913 C1910 1.499 . S
C1913 C1914 1.373 . S
C1913 C1915 1.389 . S
C1914 H1887 0.950 . S
C1914 C1900 1.377 . S
C1914 C1913 1.373 . S
C1915 C1899 1.377 . S
C1915 C1913 1.389 . S
C1915 C1916 1.524 1_545 S
C1916 C1915 1.524 1_565 S
C1916 C1917 1.397 . S
C1916 C1921 1.363 . S
C1917 H1888 0.950 . S
C1917 C1916 1.397 . S
C1917 C1918 1.334 . S
C1918 H1889 0.950 . S
C1918 C1917 1.334 . S
C1918 C1919 1.287 . S
C1919 C1918 1.287 . S
C1919 C1920 1.524 . S
C1919 H1922 0.999 . S
C1920 H1890 0.950 . S
C1920 C1919 1.524 . S
C1920 C1921 1.415 . S
C1921 H1891 0.951 1_565 S
C1921 C1916 1.363 . S
C1921 C1920 1.415 . S
H1922 C1919 0.999 . S
H1923 C1904 0.913 . S
H1924 C1942 0.951 1_655 S
H1925 C1944 0.951 1_655 S
H1926 C1946 0.950 . S
H1927 C1947 0.950 . S
H1928 C1949 0.950 . S
H1929 C1952 0.950 1_455 S
H1930 C1953 0.950 . S
H1931 C1955 0.950 . S
H1932 C1956 0.950 . S
H1933 C1957 0.951 . S
H1934 C1959 0.951 . S
H1935 C1961 0.934 1_655 S
H1936 C1962 0.950 . S
H1937 C1964 0.950 1_655 S
H1938 C1967 0.950 . S
H1939 C1968 0.950 . S
H1940 C1970 0.950 . S
H1941 C1971 0.950 . S
C1942 H1924 0.951 1_455 S
C1942 C1943 1.366 . S
C1942 C1944 1.388 . S
C1943 C1942 1.366 . S
C1943 C1947 1.385 . S
C1944 H1925 0.951 1_455 S
C1944 C1942 1.388 . S
C1944 C1945 1.366 . S
C1945 C1944 1.366 . S
C1945 C1946 1.414 . S
C1945 C1948 1.499 . S
C1946 H1926 0.950 . S
C1946 C1945 1.414 . S
C1946 C1947 1.374 . S
C1947 H1927 0.950 . S
C1947 C1943 1.385 . S
C1947 C1946 1.374 . S
C1948 C1945 1.499 . S
C1948 C1949 1.373 . S
C1948 C1950 1.389 . S
C1949 H1928 0.950 . S
C1949 C1948 1.373 . S
C1949 C1965 1.377 . S
C1950 C1948 1.389 . S
C1950 C1951 1.524 1_455 S
C1950 C1964 1.377 . S
C1951 C1950 1.524 1_655 S
C1951 C1952 1.397 . S
C1951 C1956 1.363 . S
C1952 H1929 0.950 1_655 S
C1952 C1951 1.397 . S
C1952 C1953 1.334 . S
C1953 H1930 0.950 . S
C1953 C1952 1.334 . S
C1953 C1954 1.287 . S
C1954 C1953 1.287 . S
C1954 C1955 1.524 . S
C1954 H1973 0.913 . S
C1955 H1931 0.950 . S
C1955 C1954 1.524 . S
C1955 C1956 1.415 . S
C1956 H1932 0.950 . S
C1956 C1951 1.363 . S
C1956 C1955 1.415 . S
C1957 H1933 0.951 . S
C1957 C1958 1.366 . S
C1957 C1959 1.388 . S
C1958 C1957 1.366 . S
C1958 C1962 1.385 . S
C1959 H1934 0.951 . S
C1959 C1957 1.388 . S
C1959 C1960 1.366 . S
C1960 C1959 1.366 . S
C1960 C1961 1.414 . S
C1960 C1963 1.499 . S
C1961 H1935 0.934 1_455 S
C1961 C1960 1.414 . S
C1961 C1962 1.374 . S
C1962 H1936 0.950 . S
C1962 C1958 1.385 . S
C1962 C1961 1.374 . S
C1963 C1960 1.499 . S
C1963 C1964 1.373 . S
C1963 C1965 1.389 . S
C1964 H1937 0.950 1_455 S
C1964 C1950 1.377 . S
C1964 C1963 1.373 . S
C1965 C1949 1.377 . S
C1965 C1963 1.389 . S
C1965 C1966 1.524 . S
C1966 C1965 1.524 . S
C1966 C1967 1.397 . S
C1966 C1971 1.363 . S
C1967 H1938 0.950 . S
C1967 C1966 1.397 . S
C1967 C1968 1.334 . S
C1968 H1939 0.950 . S
C1968 C1967 1.334 . S
C1968 C1969 1.287 . S
C1969 C1968 1.287 . S
C1969 C1970 1.524 . S
C1969 H1972 0.999 . S
C1970 H1940 0.950 . S
C1970 C1969 1.524 . S
C1970 C1971 1.415 . S
C1971 H1941 0.950 . S
C1971 C1966 1.363 . S
C1971 C1970 1.415 . S
H1972 C1969 0.999 . S
H1973 C1954 0.913 . S
H1974 C1992 0.951 . S
H1975 C1994 0.951 . S
H1976 C1996 0.952 . S
H1977 C1997 0.950 1_565 S
H1978 C1999 0.950 . S
H1979 C2002 0.950 . S
H1980 C2003 0.950 . S
H1981 C2005 0.950 . S
H1982 C2006 0.950 . S
H1983 C2007 0.951 . S
H1984 C2009 0.951 . S
H1985 C2011 0.950 . S
H1986 C2012 0.950 . S
H1987 C2014 0.950 . S
H1988 C2017 0.950 . S
H1989 C2018 0.950 . S
H1990 C2020 0.950 . S
H1991 C2021 0.950 . S
C1992 H1974 0.951 . S
C1992 C1993 1.366 . S
C1992 C1994 1.388 . S
C1993 C1992 1.366 . S
C1993 C1997 1.384 . S
C1994 H1975 0.951 . S
C1994 C1992 1.388 . S
C1994 C1995 1.366 . S
C1995 C1994 1.366 . S
C1995 C1996 1.414 . S
C1995 C1998 1.499 . S
C1996 H1976 0.952 . S
C1996 C1995 1.414 . S
C1996 C1997 1.374 . S
C1997 H1977 0.950 1_545 S
C1997 C1993 1.384 . S
C1997 C1996 1.374 . S
C1998 C1995 1.499 . S
C1998 C1999 1.373 1_545 S
C1998 C2000 1.389 . S
C1999 H1978 0.950 . S
C1999 C1998 1.373 1_565 S
C1999 C2015 1.377 . S
C2000 C1998 1.389 . S
C2000 C2001 1.524 . S
C2000 C2014 1.377 . S
C2001 C2000 1.524 . S
C2001 C2002 1.397 . S
C2001 C2006 1.363 . S
C2002 H1979 0.950 . S
C2002 C2001 1.397 . S
C2002 C2003 1.334 . S
C2003 H1980 0.950 . S
C2003 C2002 1.334 . S
C2003 C2004 1.287 . S
C2004 C2003 1.287 . S
C2004 C2005 1.524 . S
C2004 H2023 0.913 . S
C2005 H1981 0.950 . S
C2005 C2004 1.524 . S
C2005 C2006 1.415 . S
C2006 H1982 0.950 . S
C2006 C2001 1.363 . S
C2006 C2005 1.415 . S
C2007 H1983 0.951 . S
C2007 C2008 1.366 . S
C2007 C2009 1.388 . S
C2008 C2007 1.366 . S
C2008 C2012 1.385 . S
C2009 H1984 0.951 . S
C2009 C2007 1.388 . S
C2009 C2010 1.366 . S
C2010 C2009 1.366 . S
C2010 C2011 1.414 . S
C2010 C2013 1.499 . S
C2011 H1985 0.950 . S
C2011 C2010 1.414 . S
C2011 C2012 1.374 . S
C2012 H1986 0.950 . S
C2012 C2008 1.385 . S
C2012 C2011 1.374 . S
C2013 C2010 1.499 . S
C2013 C2014 1.373 . S
C2013 C2015 1.389 1_545 S
C2014 H1987 0.950 . S
C2014 C2000 1.377 . S
C2014 C2013 1.373 . S
C2015 C1999 1.377 . S
C2015 C2013 1.389 1_565 S
C2015 C2016 1.524 . S
C2016 C2015 1.524 . S
C2016 C2017 1.397 . S
C2016 C2021 1.363 . S
C2017 H1988 0.950 . S
C2017 C2016 1.397 . S
C2017 C2018 1.334 . S
C2018 H1989 0.950 . S
C2018 C2017 1.334 . S
C2018 C2019 1.287 . S
C2019 C2018 1.287 . S
C2019 C2020 1.524 . S
C2019 H2022 0.999 . S
C2020 H1990 0.950 . S
C2020 C2019 1.524 . S
C2020 C2021 1.415 . S
C2021 H1991 0.950 . S
C2021 C2016 1.363 . S
C2021 C2020 1.415 . S
H2022 C2019 0.999 . S
H2023 C2004 0.913 . S
H2024 C2042 0.951 . S
H2025 C2044 0.951 . S
H2026 C2046 0.950 . S
H2027 C2047 0.954 . S
H2028 C2049 0.950 . S
H2029 C2052 0.950 . S
H2030 C2053 0.950 . S
H2031 C2055 0.950 . S
H2032 C2056 0.950 . S
H2033 C2057 0.951 . S
H2034 C2059 0.951 . S
H2035 C2061 0.950 . S
H2036 C2062 0.950 . S
H2037 C2064 0.950 . S
H2038 C2067 0.950 . S
H2039 C2068 0.950 . S
H2040 C2070 0.950 . S
H2041 C2071 0.950 . S
C2042 H2024 0.951 . S
C2042 C2043 1.366 . S
C2042 C2044 1.388 . S
C2043 C2042 1.366 . S
C2043 C2047 1.385 . S
C2044 H2025 0.951 . S
C2044 C2042 1.388 . S
C2044 C2045 1.366 . S
C2045 C2044 1.366 . S
C2045 C2046 1.414 . S
C2045 C2048 1.499 . S
C2046 H2026 0.950 . S
C2046 C2045 1.414 . S
C2046 C2047 1.374 . S
C2047 H2027 0.954 . S
C2047 C2043 1.385 . S
C2047 C2046 1.374 . S
C2048 C2045 1.499 . S
C2048 C2049 1.373 . S
C2048 C2050 1.389 1_455 S
C2049 H2028 0.950 . S
C2049 C2048 1.373 . S
C2049 C2065 1.377 . S
C2050 C2048 1.389 1_655 S
C2050 C2051 1.524 . S
C2050 C2064 1.377 . S
C2051 C2050 1.524 . S
C2051 C2052 1.397 . S
C2051 C2056 1.363 . S
C2052 H2029 0.950 . S
C2052 C2051 1.397 . S
C2052 C2053 1.334 . S
C2053 H2030 0.950 . S
C2053 C2052 1.334 . S
C2053 C2054 1.287 . S
C2054 C2053 1.287 . S
C2054 C2055 1.524 . S
C2054 H2073 0.913 . S
C2055 H2031 0.950 . S
C2055 C2054 1.524 . S
C2055 C2056 1.415 . S
C2056 H2032 0.950 . S
C2056 C2051 1.363 . S
C2056 C2055 1.415 . S
C2057 H2033 0.951 . S
C2057 C2058 1.366 . S
C2057 C2059 1.388 . S
C2058 C2057 1.366 . S
C2058 C2062 1.385 . S
C2059 H2034 0.951 . S
C2059 C2057 1.388 . S
C2059 C2060 1.366 . S
C2060 C2059 1.366 . S
C2060 C2061 1.414 . S
C2060 C2063 1.499 . S
C2061 H2035 0.950 . S
C2061 C2060 1.414 . S
C2061 C2062 1.374 . S
C2062 H2036 0.950 . S
C2062 C2058 1.385 . S
C2062 C2061 1.374 . S
C2063 C2060 1.499 . S
C2063 C2064 1.373 1_455 S
C2063 C2065 1.389 . S
C2064 H2037 0.950 . S
C2064 C2050 1.377 . S
C2064 C2063 1.373 1_655 S
C2065 C2049 1.377 . S
C2065 C2063 1.389 . S
C2065 C2066 1.524 . S
C2066 C2065 1.524 . S
C2066 C2067 1.397 . S
C2066 C2071 1.363 . S
C2067 H2038 0.950 . S
C2067 C2066 1.397 . S
C2067 C2068 1.334 . S
C2068 H2039 0.950 . S
C2068 C2067 1.334 . S
C2068 C2069 1.287 . S
C2069 C2068 1.287 . S
C2069 C2070 1.524 . S
C2069 H2072 0.999 . S
C2070 H2040 0.950 . S
C2070 C2069 1.524 . S
C2070 C2071 1.415 . S
C2071 H2041 0.950 . S
C2071 C2066 1.363 . S
C2071 C2070 1.415 . S
H2072 C2069 0.999 . S
H2073 C2054 0.913 . S
H2074 C2092 0.951 . S
H2075 C2094 0.951 . S
H2076 C2096 0.950 . S
H2077 C2097 0.950 . S
H2078 C2099 0.950 . S
H2079 C2102 0.950 . S
H2080 C2103 0.950 . S
H2081 C2105 0.950 . S
H2082 C2106 0.950 . S
H2083 C2107 0.951 . S
H2084 C2109 0.951 . S
H2085 C2111 0.950 . S
H2086 C2112 0.950 . S
H2087 C2114 0.950 . S
H2088 C2117 0.950 . S
H2089 C2118 0.950 . S
H2090 C2120 0.950 . S
H2091 C2121 0.950 . S
C2092 H2074 0.951 . S
C2092 C2093 1.366 . S
C2092 C2094 1.388 . S
C2093 C2092 1.366 . S
C2093 C2097 1.385 1_545 S
C2094 H2075 0.951 . S
C2094 C2092 1.388 . S
C2094 C2095 1.366 . S
C2095 C2094 1.366 . S
C2095 C2096 1.414 1_545 S
C2095 C2098 1.499 . S
C2096 H2076 0.950 . S
C2096 C2095 1.414 1_565 S
C2096 C2097 1.374 . S
C2097 H2077 0.950 . S
C2097 C2093 1.385 1_565 S
C2097 C2096 1.374 . S
C2098 C2095 1.499 . S
C2098 C2099 1.373 1_545 S
C2098 C2100 1.389 . S
C2099 H2078 0.950 . S
C2099 C2098 1.373 1_565 S
C2099 C2115 1.377 . S
C2100 C2098 1.389 . S
C2100 C2101 1.524 . S
C2100 C2114 1.377 . S
C2101 C2100 1.524 . S
C2101 C2102 1.397 . S
C2101 C2106 1.363 . S
C2102 H2079 0.950 . S
C2102 C2101 1.397 . S
C2102 C2103 1.334 . S
C2103 H2080 0.950 . S
C2103 C2102 1.334 . S
C2103 C2104 1.287 . S
C2104 C2103 1.287 . S
C2104 C2105 1.524 . S
C2104 H2123 0.913 . S
C2105 H2081 0.950 . S
C2105 C2104 1.524 . S
C2105 C2106 1.415 . S
C2106 H2082 0.950 . S
C2106 C2101 1.363 . S
C2106 C2105 1.415 . S
C2107 H2083 0.951 . S
C2107 C2108 1.366 1_565 S
C2107 C2109 1.388 . S
C2108 C2107 1.366 1_545 S
C2108 C2112 1.385 . S
C2109 H2084 0.951 . S
C2109 C2107 1.388 . S
C2109 C2110 1.366 1_565 S
C2110 C2109 1.366 1_545 S
C2110 C2111 1.414 . S
C2110 C2113 1.499 . S
C2111 H2085 0.950 . S
C2111 C2110 1.414 . S
C2111 C2112 1.374 . S
C2112 H2086 0.950 . S
C2112 C2108 1.385 . S
C2112 C2111 1.374 . S
C2113 C2110 1.499 . S
C2113 C2114 1.373 . S
C2113 C2115 1.389 1_545 S
C2114 H2087 0.950 . S
C2114 C2100 1.377 . S
C2114 C2113 1.373 . S
C2115 C2099 1.377 . S
C2115 C2113 1.389 1_565 S
C2115 C2116 1.524 . S
C2116 C2115 1.524 . S
C2116 C2117 1.397 . S
C2116 C2121 1.363 . S
C2117 H2088 0.950 . S
C2117 C2116 1.397 . S
C2117 C2118 1.334 . S
C2118 H2089 0.950 . S
C2118 C2117 1.334 . S
C2118 C2119 1.287 . S
C2119 C2118 1.287 . S
C2119 C2120 1.524 . S
C2119 H2122 0.999 . S
C2120 H2090 0.950 . S
C2120 C2119 1.524 . S
C2120 C2121 1.415 . S
C2121 H2091 0.950 . S
C2121 C2116 1.363 . S
C2121 C2120 1.415 . S
H2122 C2119 0.999 . S
H2123 C2104 0.913 . S
H2124 C2142 0.951 . S
H2125 C2144 0.951 . S
H2126 C2146 0.950 1_655 S
H2127 C2147 0.950 1_655 S
H2128 C2149 0.950 . S
H2129 C2152 0.950 . S
H2130 C2153 0.950 . S
H2131 C2155 0.950 . S
H2132 C2156 0.950 . S
H2133 C2157 0.951 1_655 S
H2134 C2159 0.951 1_655 S
H2135 C2161 0.950 . S
H2136 C2162 0.950 . S
H2137 C2164 0.950 . S
H2138 C2167 0.950 . S
H2139 C2168 0.950 . S
H2140 C2170 0.950 . S
H2141 C2171 0.950 . S
C2142 H2124 0.951 . S
C2142 C2143 1.366 . S
C2142 C2144 1.388 . S
C2143 C2142 1.366 . S
C2143 C2147 1.385 . S
C2144 H2125 0.951 . S
C2144 C2142 1.388 . S
C2144 C2145 1.366 . S
C2145 C2144 1.366 . S
C2145 C2146 1.414 . S
C2145 C2148 1.499 . S
C2146 H2126 0.950 1_455 S
C2146 C2145 1.414 . S
C2146 C2147 1.374 . S
C2147 H2127 0.950 1_455 S
C2147 C2143 1.385 . S
C2147 C2146 1.374 . S
C2148 C2145 1.499 . S
C2148 C2149 1.373 . S
C2148 C2150 1.389 . S
C2149 H2128 0.950 . S
C2149 C2148 1.373 . S
C2149 C2165 1.377 . S
C2150 C2148 1.389 . S
C2150 C2151 1.524 . S
C2150 C2164 1.377 . S
C2151 C2150 1.524 . S
C2151 C2152 1.397 . S
C2151 C2156 1.363 . S
C2152 H2129 0.950 . S
C2152 C2151 1.397 . S
C2152 C2153 1.334 . S
C2153 H2130 0.950 . S
C2153 C2152 1.334 . S
C2153 C2154 1.287 . S
C2154 C2153 1.287 . S
C2154 C2155 1.524 . S
C2154 H2173 0.913 . S
C2155 H2131 0.950 . S
C2155 C2154 1.524 . S
C2155 C2156 1.415 . S
C2156 H2132 0.950 . S
C2156 C2151 1.363 . S
C2156 C2155 1.415 . S
C2157 H2133 0.951 1_455 S
C2157 C2158 1.366 . S
C2157 C2159 1.388 . S
C2158 C2157 1.366 . S
C2158 C2162 1.385 . S
C2159 H2134 0.951 1_455 S
C2159 C2157 1.388 . S
C2159 C2160 1.366 . S
C2160 C2159 1.366 . S
C2160 C2161 1.414 . S
C2160 C2163 1.499 . S
C2161 H2135 0.950 . S
C2161 C2160 1.414 . S
C2161 C2162 1.374 . S
C2162 H2136 0.950 . S
C2162 C2158 1.385 . S
C2162 C2161 1.374 . S
C2163 C2160 1.499 . S
C2163 C2164 1.373 . S
C2163 C2165 1.389 . S
C2164 H2137 0.950 . S
C2164 C2150 1.377 . S
C2164 C2163 1.373 . S
C2165 C2149 1.377 . S
C2165 C2163 1.389 . S
C2165 C2166 1.524 . S
C2166 C2165 1.524 . S
C2166 C2167 1.397 . S
C2166 C2171 1.363 1_455 S
C2167 H2138 0.950 . S
C2167 C2166 1.397 . S
C2167 C2168 1.334 . S
C2168 H2139 0.950 . S
C2168 C2167 1.334 . S
C2168 C2169 1.287 1_455 S
C2169 C2168 1.287 1_655 S
C2169 C2170 1.524 . S
C2169 H2172 0.999 . S
C2170 H2140 0.950 . S
C2170 C2169 1.524 . S
C2170 C2171 1.415 . S
C2171 H2141 0.950 . S
C2171 C2166 1.363 1_655 S
C2171 C2170 1.415 . S
H2172 C2169 0.999 . S
H2173 C2154 0.913 . S
H2174 C2192 0.951 . S
H2175 C2194 0.951 . S
H2176 C2196 0.950 . S
H2177 C2197 0.950 . S
H2178 C2199 0.950 1_565 S
H2179 C2202 0.950 . S
H2180 C2203 0.950 . S
H2181 C2205 0.950 . S
H2182 C2206 0.950 . S
H2183 C2207 0.951 . S
H2184 C2209 0.951 . S
H2185 C2211 0.950 . S
H2186 C2212 0.950 . S
H2187 C2214 0.950 . S
H2188 C2217 0.950 . S
H2189 C2218 0.950 . S
H2190 C2220 0.950 . S
H2191 C2221 0.950 . S
C2192 H2174 0.951 . S
C2192 C2193 1.366 . S
C2192 C2194 1.388 . S
C2193 C2192 1.366 . S
C2193 C2197 1.385 . S
C2194 H2175 0.951 . S
C2194 C2192 1.388 . S
C2194 C2195 1.366 . S
C2195 C2194 1.366 . S
C2195 C2196 1.414 . S
C2195 C2198 1.499 . S
C2196 H2176 0.950 . S
C2196 C2195 1.414 . S
C2196 C2197 1.374 . S
C2197 H2177 0.950 . S
C2197 C2193 1.385 . S
C2197 C2196 1.374 . S
C2198 C2195 1.499 . S
C2198 C2199 1.373 . S
C2198 C2200 1.389 . S
C2199 H2178 0.950 1_545 S
C2199 C2198 1.373 . S
C2199 C2215 1.377 . S
C2200 C2198 1.389 . S
C2200 C2201 1.524 . S
C2200 C2214 1.377 . S
C2201 C2200 1.524 . S
C2201 C2202 1.397 . S
C2201 C2206 1.363 . S
C2202 H2179 0.950 . S
C2202 C2201 1.397 . S
C2202 C2203 1.334 . S
C2203 H2180 0.950 . S
C2203 C2202 1.334 . S
C2203 C2204 1.287 . S
C2204 C2203 1.287 . S
C2204 C2205 1.524 . S
C2204 H2223 0.913 . S
C2205 H2181 0.950 . S
C2205 C2204 1.524 . S
C2205 C2206 1.415 . S
C2206 H2182 0.950 . S
C2206 C2201 1.363 . S
C2206 C2205 1.415 . S
C2207 H2183 0.951 . S
C2207 C2208 1.366 . S
C2207 C2209 1.388 . S
C2208 C2207 1.366 . S
C2208 C2212 1.385 . S
C2209 H2184 0.951 . S
C2209 C2207 1.388 . S
C2209 C2210 1.366 . S
C2210 C2209 1.366 . S
C2210 C2211 1.414 . S
C2210 C2213 1.499 . S
C2211 H2185 0.950 . S
C2211 C2210 1.414 . S
C2211 C2212 1.374 . S
C2212 H2186 0.950 . S
C2212 C2208 1.385 . S
C2212 C2211 1.374 . S
C2213 C2210 1.499 . S
C2213 C2214 1.373 . S
C2213 C2215 1.389 . S
C2214 H2187 0.950 . S
C2214 C2200 1.377 . S
C2214 C2213 1.373 . S
C2215 C2199 1.377 . S
C2215 C2213 1.389 . S
C2215 C2216 1.524 1_545 S
C2216 C2215 1.524 1_565 S
C2216 C2217 1.397 . S
C2216 C2221 1.363 . S
C2217 H2188 0.950 . S
C2217 C2216 1.397 . S
C2217 C2218 1.334 . S
C2218 H2189 0.950 . S
C2218 C2217 1.334 . S
C2218 C2219 1.287 . S
C2219 C2218 1.287 . S
C2219 C2220 1.524 . S
C2219 H2222 0.999 . S
C2220 H2190 0.950 . S
C2220 C2219 1.524 . S
C2220 C2221 1.415 . S
C2221 H2191 0.950 . S
C2221 C2216 1.363 . S
C2221 C2220 1.415 . S
H2222 C2219 0.999 . S
H2223 C2204 0.913 . S
H2224 C2242 0.951 . S
H2225 C2244 0.951 . S
H2226 C2246 0.950 . S
H2227 C2247 0.950 . S
H2228 C2249 0.950 . S
H2229 C2252 0.950 . S
H2230 C2253 0.950 . S
H2231 C2255 0.950 . S
H2232 C2256 0.950 . S
H2233 C2257 0.951 . S
H2234 C2259 0.951 . S
H2235 C2261 0.950 . S
H2236 C2262 0.950 . S
H2237 C2264 0.950 . S
H2238 C2267 0.950 . S
H2239 C2268 0.950 . S
H2240 C2270 0.950 . S
H2241 C2271 0.950 . S
C2242 H2224 0.951 . S
C2242 C2243 1.366 . S
C2242 C2244 1.388 . S
C2243 C2242 1.366 . S
C2243 C2247 1.385 1_545 S
C2244 H2225 0.951 . S
C2244 C2242 1.388 . S
C2244 C2245 1.366 . S
C2245 C2244 1.366 . S
C2245 C2246 1.414 1_545 S
C2245 C2248 1.499 . S
C2246 H2226 0.950 . S
C2246 C2245 1.414 1_565 S
C2246 C2247 1.374 . S
C2247 H2227 0.950 . S
C2247 C2243 1.385 1_565 S
C2247 C2246 1.374 . S
C2248 C2245 1.499 . S
C2248 C2249 1.373 1_545 S
C2248 C2250 1.389 . S
C2249 H2228 0.950 . S
C2249 C2248 1.373 1_565 S
C2249 C2265 1.377 . S
C2250 C2248 1.389 . S
C2250 C2251 1.524 . S
C2250 C2264 1.377 . S
C2251 C2250 1.524 . S
C2251 C2252 1.397 . S
C2251 C2256 1.363 . S
C2252 H2229 0.950 . S
C2252 C2251 1.397 . S
C2252 C2253 1.334 . S
C2253 H2230 0.950 . S
C2253 C2252 1.334 . S
C2253 C2254 1.287 . S
C2254 C2253 1.287 . S
C2254 C2255 1.524 . S
C2254 H2273 0.913 . S
C2255 H2231 0.950 . S
C2255 C2254 1.524 . S
C2255 C2256 1.415 . S
C2256 H2232 0.950 . S
C2256 C2251 1.363 . S
C2256 C2255 1.415 . S
C2257 H2233 0.951 . S
C2257 C2258 1.366 1_565 S
C2257 C2259 1.388 . S
C2258 C2257 1.366 1_545 S
C2258 C2262 1.385 . S
C2259 H2234 0.951 . S
C2259 C2257 1.388 . S
C2259 C2260 1.366 1_565 S
C2260 C2259 1.366 1_545 S
C2260 C2261 1.414 . S
C2260 C2263 1.499 . S
C2261 H2235 0.950 . S
C2261 C2260 1.414 . S
C2261 C2262 1.374 . S
C2262 H2236 0.950 . S
C2262 C2258 1.385 . S
C2262 C2261 1.374 . S
C2263 C2260 1.499 . S
C2263 C2264 1.373 . S
C2263 C2265 1.389 1_545 S
C2264 H2237 0.950 . S
C2264 C2250 1.377 . S
C2264 C2263 1.373 . S
C2265 C2249 1.377 . S
C2265 C2263 1.389 1_565 S
C2265 C2266 1.524 . S
C2266 C2265 1.524 . S
C2266 C2267 1.397 . S
C2266 C2271 1.363 . S
C2267 H2238 0.950 . S
C2267 C2266 1.397 . S
C2267 C2268 1.334 . S
C2268 H2239 0.950 . S
C2268 C2267 1.334 . S
C2268 C2269 1.287 . S
C2269 C2268 1.287 . S
C2269 C2270 1.524 . S
C2269 H2272 0.999 . S
C2270 H2240 0.950 . S
C2270 C2269 1.524 . S
C2270 C2271 1.415 . S
C2271 H2241 0.950 . S
C2271 C2266 1.363 . S
C2271 C2270 1.415 . S
H2272 C2269 0.999 . S
H2273 C2254 0.913 . S
H2274 C2292 0.913 1_655 S
H2275 C2294 0.951 1_655 S
H2276 C2296 0.950 . S
H2277 C2297 0.950 . S
H2278 C2299 0.950 . S
H2279 C2302 0.925 1_455 S
H2280 C2303 0.950 . S
H2281 C2305 0.950 . S
H2282 C2306 0.950 . S
H2283 C2307 0.951 . S
H2284 C2309 0.951 . S
H2285 C2311 0.950 . S
H2286 C2312 0.950 . S
H2287 C2314 0.950 1_655 S
H2288 C2317 0.950 . S
H2289 C2318 0.950 . S
H2290 C2320 0.950 . S
H2291 C2321 0.950 . S
C2292 H2274 0.913 1_455 S
C2292 C2293 1.366 . S
C2292 C2294 1.388 . S
C2293 C2292 1.366 . S
C2293 C2297 1.385 . S
C2294 H2275 0.951 1_455 S
C2294 C2292 1.388 . S
C2294 C2295 1.366 . S
C2295 C2294 1.366 . S
C2295 C2296 1.414 . S
C2295 C2298 1.499 . S
C2296 H2276 0.950 . S
C2296 C2295 1.414 . S
C2296 C2297 1.374 . S
C2297 H2277 0.950 . S
C2297 C2293 1.385 . S
C2297 C2296 1.374 . S
C2298 C2295 1.499 . S
C2298 C2299 1.373 . S
C2298 C2300 1.389 . S
C2299 H2278 0.950 . S
C2299 C2298 1.373 . S
C2299 C2315 1.377 . S
C2300 C2298 1.389 . S
C2300 C2301 1.524 1_455 S
C2300 C2314 1.377 . S
C2301 C2300 1.524 1_655 S
C2301 C2302 1.407 . S
C2301 C2306 1.363 . S
C2302 H2279 0.925 1_655 S
C2302 C2301 1.407 . S
C2302 C2303 1.348 . S
C2303 H2280 0.950 . S
C2303 C2302 1.348 . S
C2303 C2304 1.287 . S
C2304 C2303 1.287 . S
C2304 C2305 1.524 . S
C2304 H2323 0.913 . S
C2305 H2281 0.950 . S
C2305 C2304 1.524 . S
C2305 C2306 1.415 . S
C2306 H2282 0.950 . S
C2306 C2301 1.363 . S
C2306 C2305 1.415 . S
C2307 H2283 0.951 . S
C2307 C2308 1.366 . S
C2307 C2309 1.388 . S
C2308 C2307 1.366 . S
C2308 C2312 1.385 1_455 S
C2309 H2284 0.951 . S
C2309 C2307 1.388 . S
C2309 C2310 1.366 . S
C2310 C2309 1.366 . S
C2310 C2311 1.414 1_455 S
C2310 C2313 1.499 . S
C2311 H2285 0.950 . S
C2311 C2310 1.414 1_655 S
C2311 C2312 1.374 . S
C2312 H2286 0.950 . S
C2312 C2308 1.385 1_655 S
C2312 C2311 1.374 . S
C2313 C2310 1.499 . S
C2313 C2314 1.373 . S
C2313 C2315 1.389 . S
C2314 H2287 0.950 1_455 S
C2314 C2300 1.377 . S
C2314 C2313 1.373 . S
C2315 C2299 1.377 . S
C2315 C2313 1.389 . S
C2315 C2316 1.524 . S
C2316 C2315 1.524 . S
C2316 C2317 1.397 . S
C2316 C2321 1.363 . S
C2317 H2288 0.950 . S
C2317 C2316 1.397 . S
C2317 C2318 1.334 . S
C2318 H2289 0.950 . S
C2318 C2317 1.334 . S
C2318 C2319 1.287 . S
C2319 C2318 1.287 . S
C2319 C2320 1.524 . S
C2319 H2322 0.999 . S
C2320 H2290 0.950 . S
C2320 C2319 1.524 . S
C2320 C2321 1.415 . S
C2321 H2291 0.950 . S
C2321 C2316 1.363 . S
C2321 C2320 1.415 . S
H2322 C2319 0.999 . S
H2323 C2304 0.913 . S
H2324 C2342 0.951 . S
H2325 C2344 0.951 . S
H2326 C2346 0.950 . S
H2327 C2347 0.950 . S
H2328 C2349 0.950 . S
H2329 C2352 0.950 . S
H2330 C2353 0.950 . S
H2331 C2355 0.950 . S
H2332 C2356 0.950 . S
H2333 C2357 0.951 . S
H2334 C2359 0.951 . S
H2335 C2361 0.950 . S
H2336 C2362 0.950 . S
H2337 C2364 0.950 . S
H2338 C2367 0.950 . S
H2339 C2368 0.950 . S
H2340 C2370 0.950 . S
H2341 C2371 0.950 . S
C2342 H2324 0.951 . S
C2342 C2343 1.366 . S
C2342 C2344 1.388 . S
C2343 C2342 1.366 . S
C2343 C2347 1.385 . S
C2344 H2325 0.951 . S
C2344 C2342 1.388 . S
C2344 C2345 1.366 . S
C2345 C2344 1.366 . S
C2345 C2346 1.414 . S
C2345 C2348 1.499 . S
C2346 H2326 0.950 . S
C2346 C2345 1.414 . S
C2346 C2347 1.374 . S
C2347 H2327 0.950 . S
C2347 C2343 1.385 . S
C2347 C2346 1.374 . S
C2348 C2345 1.499 . S
C2348 C2349 1.373 . S
C2348 C2350 1.389 . S
C2349 H2328 0.950 . S
C2349 C2348 1.373 . S
C2349 C2365 1.377 . S
C2350 C2348 1.389 . S
C2350 C2351 1.524 1_545 S
C2350 C2364 1.377 . S
C2351 C2350 1.524 1_565 S
C2351 C2352 1.397 . S
C2351 C2356 1.363 . S
C2352 H2329 0.950 . S
C2352 C2351 1.397 . S
C2352 C2353 1.334 . S
C2353 H2330 0.950 . S
C2353 C2352 1.334 . S
C2353 C2354 1.287 . S
C2354 C2353 1.287 . S
C2354 C2355 1.524 . S
C2354 H2373 0.913 . S
C2355 H2331 0.950 . S
C2355 C2354 1.524 . S
C2355 C2356 1.415 . S
C2356 H2332 0.950 . S
C2356 C2351 1.363 . S
C2356 C2355 1.415 . S
C2357 H2333 0.951 . S
C2357 C2358 1.366 . S
C2357 C2359 1.388 . S
C2358 C2357 1.366 . S
C2358 C2362 1.385 . S
C2359 H2334 0.951 . S
C2359 C2357 1.388 . S
C2359 C2360 1.366 . S
C2360 C2359 1.366 . S
C2360 C2361 1.414 . S
C2360 C2363 1.499 . S
C2361 H2335 0.950 . S
C2361 C2360 1.414 . S
C2361 C2362 1.374 . S
C2362 H2336 0.950 . S
C2362 C2358 1.385 . S
C2362 C2361 1.374 . S
C2363 C2360 1.499 . S
C2363 C2364 1.373 . S
C2363 C2365 1.389 . S
C2364 H2337 0.950 . S
C2364 C2350 1.377 . S
C2364 C2363 1.373 . S
C2365 C2349 1.377 . S
C2365 C2363 1.389 . S
C2365 C2366 1.524 . S
C2366 C2365 1.524 . S
C2366 C2367 1.397 . S
C2366 C2371 1.363 . S
C2367 H2338 0.950 . S
C2367 C2366 1.397 . S
C2367 C2368 1.334 . S
C2368 H2339 0.950 . S
C2368 C2367 1.334 . S
C2368 C2369 1.287 . S
C2369 C2368 1.287 . S
C2369 C2370 1.524 . S
C2369 H2372 0.999 . S
C2370 H2340 0.950 . S
C2370 C2369 1.524 . S
C2370 C2371 1.415 . S
C2371 H2341 0.950 . S
C2371 C2366 1.363 . S
C2371 C2370 1.415 . S
H2372 C2369 0.999 . S
H2373 C2354 0.913 . S
H2374 C2392 0.951 . S
H2375 C2394 0.951 . S
H2376 C2396 0.950 . S
H2377 C2397 0.988 . S
H2378 C2399 0.962 . S
H2379 C2402 0.950 1_655 S
H2380 C2403 0.950 . S
H2381 C2405 0.950 . S
H2382 C2406 0.950 . S
H2383 C2407 0.951 . S
H2384 C2409 0.951 . S
H2385 C2411 0.950 . S
H2386 C2412 0.950 . S
H2387 C2414 0.950 . S
H2388 C2417 0.950 . S
H2389 C2418 0.950 . S
H2390 C2420 0.950 . S
H2391 C2421 0.950 . S
C2392 H2374 0.951 . S
C2392 C2393 1.366 . S
C2392 C2394 1.388 . S
C2393 C2392 1.366 . S
C2393 C2397 1.343 1_455 S
C2394 H2375 0.951 . S
C2394 C2392 1.388 . S
C2394 C2395 1.366 . S
C2395 C2394 1.366 . S
C2395 C2396 1.414 1_455 S
C2395 C2398 1.499 . S
C2396 H2376 0.950 . S
C2396 C2395 1.414 1_655 S
C2396 C2397 1.379 . S
C2397 H2377 0.988 . S
C2397 C2393 1.343 1_655 S
C2397 C2396 1.379 . S
C2398 C2395 1.499 . S
C2398 C2399 1.373 . S
C2398 C2400 1.389 . S
C2399 H2378 0.962 . S
C2399 C2398 1.373 . S
C2399 C2415 1.377 . S
C2400 C2398 1.389 . S
C2400 C2401 1.524 . S
C2400 C2414 1.377 . S
C2401 C2400 1.524 . S
C2401 C2402 1.397 . S
C2401 C2406 1.363 . S
C2402 H2379 0.950 1_455 S
C2402 C2401 1.397 . S
C2402 C2403 1.334 . S
C2403 H2380 0.950 . S
C2403 C2402 1.334 . S
C2403 C2404 1.287 . S
C2404 C2403 1.287 . S
C2404 C2405 1.524 . S
C2404 H2423 0.913 . S
C2405 H2381 0.950 . S
C2405 C2404 1.524 . S
C2405 C2406 1.415 . S
C2406 H2382 0.950 . S
C2406 C2401 1.363 . S
C2406 C2405 1.415 . S
C2407 H2383 0.951 . S
C2407 C2408 1.366 1_655 S
C2407 C2409 1.388 . S
C2408 C2407 1.366 1_455 S
C2408 C2412 1.385 . S
C2409 H2384 0.951 . S
C2409 C2407 1.388 . S
C2409 C2410 1.366 1_655 S
C2410 C2409 1.366 1_455 S
C2410 C2411 1.414 . S
C2410 C2413 1.499 . S
C2411 H2385 0.950 . S
C2411 C2410 1.414 . S
C2411 C2412 1.374 . S
C2412 H2386 0.950 . S
C2412 C2408 1.385 . S
C2412 C2411 1.374 . S
C2413 C2410 1.499 . S
C2413 C2414 1.373 . S
C2413 C2415 1.389 . S
C2414 H2387 0.950 . S
C2414 C2400 1.377 . S
C2414 C2413 1.373 . S
C2415 C2399 1.377 . S
C2415 C2413 1.389 . S
C2415 C2416 1.524 1_455 S
C2416 C2415 1.524 1_655 S
C2416 C2417 1.397 1_655 S
C2416 C2421 1.363 . S
C2417 H2388 0.950 . S
C2417 C2416 1.397 1_455 S
C2417 C2418 1.334 . S
C2418 H2389 0.950 . S
C2418 C2417 1.334 . S
C2418 C2419 1.287 1_455 S
C2419 C2418 1.287 1_655 S
C2419 C2420 1.524 . S
C2419 H2422 0.999 . S
C2420 H2390 0.950 . S
C2420 C2419 1.524 . S
C2420 C2421 1.415 . S
C2421 H2391 0.950 . S
C2421 C2416 1.363 . S
C2421 C2420 1.415 . S
H2422 C2419 0.999 . S
H2423 C2404 0.913 . S
H2424 C2442 0.951 . S
H2425 C2444 0.951 . S
H2426 C2446 0.950 . S
H2427 C2447 0.950 . S
H2428 C2449 0.946 1_565 S
H2429 C2452 0.950 . S
H2430 C2453 0.950 . S
H2431 C2455 0.950 . S
H2432 C2456 0.950 1_565 S
H2433 C2457 0.951 . S
H2434 C2459 0.951 . S
H2435 C2461 0.950 . S
H2436 C2462 0.950 . S
H2437 C2464 0.950 . S
H2438 C2467 0.950 . S
H2439 C2468 0.950 . S
H2440 C2470 0.950 . S
H2441 C2471 0.964 . S
C2442 H2424 0.951 . S
C2442 C2443 1.366 1_565 S
C2442 C2444 1.388 . S
C2443 C2442 1.366 1_545 S
C2443 C2447 1.385 . S
C2444 H2425 0.951 . S
C2444 C2442 1.388 . S
C2444 C2445 1.366 1_565 S
C2445 C2444 1.366 1_545 S
C2445 C2446 1.414 . S
C2445 C2448 1.499 . S
C2446 H2426 0.950 . S
C2446 C2445 1.414 . S
C2446 C2447 1.374 . S
C2447 H2427 0.950 . S
C2447 C2443 1.385 . S
C2447 C2446 1.374 . S
C2448 C2445 1.499 . S
C2448 C2449 1.379 . S
C2448 C2450 1.389 . S
C2449 H2428 0.946 1_545 S
C2449 C2448 1.379 . S
C2449 C2465 1.376 1_545 S
C2450 C2448 1.389 . S
C2450 C2451 1.524 . S
C2450 C2464 1.377 . S
C2451 C2450 1.524 . S
C2451 C2452 1.397 . S
C2451 C2456 1.363 . S
C2452 H2429 0.950 . S
C2452 C2451 1.397 . S
C2452 C2453 1.334 . S
C2453 H2430 0.950 . S
C2453 C2452 1.334 . S
C2453 C2454 1.287 . S
C2454 C2453 1.287 . S
C2454 C2455 1.524 . S
C2454 H2473 0.913 . S
C2455 H2431 0.950 . S
C2455 C2454 1.524 . S
C2455 C2456 1.415 . S
C2456 H2432 0.950 1_545 S
C2456 C2451 1.363 . S
C2456 C2455 1.415 . S
C2457 H2433 0.951 . S
C2457 C2458 1.366 . S
C2457 C2459 1.388 . S
C2458 C2457 1.366 . S
C2458 C2462 1.385 1_545 S
C2459 H2434 0.951 . S
C2459 C2457 1.388 . S
C2459 C2460 1.366 . S
C2460 C2459 1.366 . S
C2460 C2461 1.414 1_545 S
C2460 C2463 1.499 . S
C2461 H2435 0.950 . S
C2461 C2460 1.414 1_565 S
C2461 C2462 1.374 . S
C2462 H2436 0.950 . S
C2462 C2458 1.385 1_565 S
C2462 C2461 1.374 . S
C2463 C2460 1.499 . S
C2463 C2464 1.373 . S
C2463 C2465 1.385 1_545 S
C2464 H2437 0.950 . S
C2464 C2450 1.377 . S
C2464 C2463 1.373 . S
C2465 C2449 1.376 1_565 S
C2465 C2463 1.385 1_565 S
C2465 C2466 1.531 . S
C2466 C2465 1.531 . S
C2466 C2467 1.397 . S
C2466 C2471 1.356 1_565 S
C2467 H2438 0.950 . S
C2467 C2466 1.397 . S
C2467 C2468 1.334 . S
C2468 H2439 0.950 . S
C2468 C2467 1.334 . S
C2468 C2469 1.287 . S
C2469 C2468 1.287 . S
C2469 C2470 1.524 . S
C2469 H2472 0.999 . S
C2470 H2440 0.950 . S
C2470 C2469 1.524 . S
C2470 C2471 1.409 1_565 S
C2471 H2441 0.964 . S
C2471 C2466 1.356 1_545 S
C2471 C2470 1.409 1_545 S
H2472 C2469 0.999 . S
H2473 C2454 0.913 . S
H2474 C2492 0.951 1_655 S
H2475 C2494 0.951 1_655 S
H2476 C2496 0.950 . S
H2477 C2497 0.950 . S
H2478 C2499 0.950 . S
H2479 C2502 0.950 1_455 S
H2480 C2503 0.950 . S
H2481 C2505 0.950 . S
H2482 C2506 0.950 . S
H2483 C2507 0.951 . S
H2484 C2509 0.951 . S
H2485 C2511 0.950 1_655 S
H2486 C2512 0.950 1_655 S
H2487 C2514 0.950 1_655 S
H2488 C2517 0.950 . S
H2489 C2518 0.950 . S
H2490 C2520 0.950 . S
H2491 C2521 0.950 . S
C2492 H2474 0.951 1_455 S
C2492 C2493 1.366 . S
C2492 C2494 1.388 . S
C2493 C2492 1.366 . S
C2493 C2497 1.385 . S
C2494 H2475 0.951 1_455 S
C2494 C2492 1.388 . S
C2494 C2495 1.366 . S
C2495 C2494 1.366 . S
C2495 C2496 1.414 . S
C2495 C2498 1.499 . S
C2496 H2476 0.950 . S
C2496 C2495 1.414 . S
C2496 C2497 1.374 . S
C2497 H2477 0.950 . S
C2497 C2493 1.385 . S
C2497 C2496 1.374 . S
C2498 C2495 1.499 . S
C2498 C2499 1.373 . S
C2498 C2500 1.389 . S
C2499 H2478 0.950 . S
C2499 C2498 1.373 . S
C2499 C2515 1.377 . S
C2500 C2498 1.389 . S
C2500 C2501 1.524 1_455 S
C2500 C2514 1.377 . S
C2501 C2500 1.524 1_655 S
C2501 C2502 1.397 . S
C2501 C2506 1.363 . S
C2502 H2479 0.950 1_655 S
C2502 C2501 1.397 . S
C2502 C2503 1.334 . S
C2503 H2480 0.950 . S
C2503 C2502 1.334 . S
C2503 C2504 1.287 . S
C2504 C2503 1.287 . S
C2504 C2505 1.524 . S
C2504 H2523 0.913 . S
C2505 H2481 0.950 . S
C2505 C2504 1.524 . S
C2505 C2506 1.415 . S
C2506 H2482 0.950 . S
C2506 C2501 1.363 . S
C2506 C2505 1.415 . S
C2507 H2483 0.951 . S
C2507 C2508 1.366 . S
C2507 C2509 1.388 . S
C2508 C2507 1.366 . S
C2508 C2512 1.385 . S
C2509 H2484 0.951 . S
C2509 C2507 1.388 . S
C2509 C2510 1.366 . S
C2510 C2509 1.366 . S
C2510 C2511 1.414 . S
C2510 C2513 1.499 . S
C2511 H2485 0.950 1_455 S
C2511 C2510 1.414 . S
C2511 C2512 1.374 . S
C2512 H2486 0.950 1_455 S
C2512 C2508 1.385 . S
C2512 C2511 1.374 . S
C2513 C2510 1.499 . S
C2513 C2514 1.373 . S
C2513 C2515 1.389 . S
C2514 H2487 0.950 1_455 S
C2514 C2500 1.377 . S
C2514 C2513 1.373 . S
C2515 C2499 1.377 . S
C2515 C2513 1.389 . S
C2515 C2516 1.524 . S
C2516 C2515 1.524 . S
C2516 C2517 1.397 . S
C2516 C2521 1.363 . S
C2517 H2488 0.950 . S
C2517 C2516 1.397 . S
C2517 C2518 1.334 . S
C2518 H2489 0.950 . S
C2518 C2517 1.334 . S
C2518 C2519 1.287 . S
C2519 C2518 1.287 . S
C2519 C2520 1.524 . S
C2519 H2522 0.999 . S
C2520 H2490 0.950 . S
C2520 C2519 1.524 . S
C2520 C2521 1.415 . S
C2521 H2491 0.950 . S
C2521 C2516 1.363 . S
C2521 C2520 1.415 . S
H2522 C2519 0.999 . S
H2523 C2504 0.913 . S
H2524 C2542 0.951 1_565 S
H2525 C2544 0.951 1_565 S
H2526 C2546 0.950 . S
H2527 C2547 0.950 . S
H2528 C2549 0.950 . S
H2529 C2552 0.950 . S
H2530 C2553 0.950 . S
H2531 C2555 0.950 . S
H2532 C2556 0.950 . S
H2533 C2557 0.951 . S
H2534 C2559 0.951 . S
H2535 C2561 0.950 1_565 S
H2536 C2562 0.950 1_565 S
H2537 C2564 0.950 . S
H2538 C2567 0.950 . S
H2539 C2568 0.950 . S
H2540 C2570 0.950 . S
H2541 C2571 0.950 . S
C2542 H2524 0.951 1_545 S
C2542 C2543 1.366 . S
C2542 C2544 1.388 . S
C2543 C2542 1.366 . S
C2543 C2547 1.385 . S
C2544 H2525 0.951 1_545 S
C2544 C2542 1.388 . S
C2544 C2545 1.366 . S
C2545 C2544 1.366 . S
C2545 C2546 1.414 . S
C2545 C2548 1.499 . S
C2546 H2526 0.950 . S
C2546 C2545 1.414 . S
C2546 C2547 1.374 . S
C2547 H2527 0.950 . S
C2547 C2543 1.385 . S
C2547 C2546 1.374 . S
C2548 C2545 1.499 . S
C2548 C2549 1.373 . S
C2548 C2550 1.389 . S
C2549 H2528 0.950 . S
C2549 C2548 1.373 . S
C2549 C2565 1.377 . S
C2550 C2548 1.389 . S
C2550 C2551 1.534 . S
C2550 C2564 1.377 . S
C2551 C2550 1.534 . S
C2551 C2552 1.407 . S
C2551 C2556 1.344 1_545 S
C2552 H2529 0.950 . S
C2552 C2551 1.407 . S
C2552 C2553 1.334 . S
C2553 H2530 0.950 . S
C2553 C2552 1.334 . S
C2553 C2554 1.287 1_545 S
C2554 C2553 1.287 1_565 S
C2554 C2555 1.524 . S
C2554 H2573 0.913 . S
C2555 H2531 0.950 . S
C2555 C2554 1.524 . S
C2555 C2556 1.415 . S
C2556 H2532 0.950 . S
C2556 C2551 1.344 1_565 S
C2556 C2555 1.415 . S
C2557 H2533 0.951 . S
C2557 C2558 1.366 . S
C2557 C2559 1.388 . S
C2558 C2557 1.366 . S
C2558 C2562 1.385 . S
C2559 H2534 0.951 . S
C2559 C2557 1.388 . S
C2559 C2560 1.366 . S
C2560 C2559 1.366 . S
C2560 C2561 1.414 . S
C2560 C2563 1.499 . S
C2561 H2535 0.950 1_545 S
C2561 C2560 1.414 . S
C2561 C2562 1.374 . S
C2562 H2536 0.950 1_545 S
C2562 C2558 1.385 . S
C2562 C2561 1.374 . S
C2563 C2560 1.499 . S
C2563 C2564 1.373 . S
C2563 C2565 1.389 . S
C2564 H2537 0.950 . S
C2564 C2550 1.377 . S
C2564 C2563 1.373 . S
C2565 C2549 1.377 . S
C2565 C2563 1.389 . S
C2565 C2566 1.524 . S
C2566 C2565 1.524 . S
C2566 C2567 1.397 . S
C2566 C2571 1.363 . S
C2567 H2538 0.950 . S
C2567 C2566 1.397 . S
C2567 C2568 1.334 . S
C2568 H2539 0.950 . S
C2568 C2567 1.334 . S
C2568 C2569 1.287 . S
C2569 C2568 1.287 . S
C2569 C2570 1.524 . S
C2569 H2572 0.999 . S
C2570 H2540 0.950 . S
C2570 C2569 1.524 . S
C2570 C2571 1.415 . S
C2571 H2541 0.950 . S
C2571 C2566 1.363 . S
C2571 C2570 1.415 . S
H2572 C2569 0.999 . S
H2573 C2554 0.913 . S
H2574 C2592 0.951 . S
H2575 C2594 0.951 . S
H2576 C2596 0.950 . S
H2577 C2597 0.950 . S
H2578 C2599 0.950 . S
H2579 C2602 0.950 . S
H2580 C2603 0.950 . S
H2581 C2605 0.950 . S
H2582 C2606 0.950 . S
H2583 C2607 0.951 . S
H2584 C2609 0.951 . S
H2585 C2611 0.950 1_655 S
H2586 C2612 0.950 1_655 S
H2587 C2614 0.950 . S
H2588 C2617 0.950 . S
H2589 C2618 0.950 . S
H2590 C2620 0.950 . S
H2591 C2621 0.950 . S
C2592 H2574 0.951 . S
C2592 C2593 1.359 1_655 S
C2592 C2594 1.388 . S
C2593 C2592 1.359 1_455 S
C2593 C2597 1.392 . S
C2594 H2575 0.951 . S
C2594 C2592 1.388 . S
C2594 C2595 1.366 1_655 S
C2595 C2594 1.366 1_455 S
C2595 C2596 1.414 . S
C2595 C2598 1.499 . S
C2596 H2576 0.950 . S
C2596 C2595 1.414 . S
C2596 C2597 1.374 . S
C2597 H2577 0.950 . S
C2597 C2593 1.392 . S
C2597 C2596 1.374 . S
C2598 C2595 1.499 . S
C2598 C2599 1.373 . S
C2598 C2600 1.389 1_455 S
C2599 H2578 0.950 . S
C2599 C2598 1.373 . S
C2599 C2615 1.377 . S
C2600 C2598 1.389 1_655 S
C2600 C2601 1.524 . S
C2600 C2614 1.377 . S
C2601 C2600 1.524 . S
C2601 C2602 1.397 . S
C2601 C2606 1.363 . S
C2602 H2579 0.950 . S
C2602 C2601 1.397 . S
C2602 C2603 1.334 . S
C2603 H2580 0.950 . S
C2603 C2602 1.334 . S
C2603 C2604 1.287 . S
C2604 C2603 1.287 . S
C2604 C2605 1.524 . S
C2604 H2623 0.913 . S
C2605 H2581 0.950 . S
C2605 C2604 1.524 . S
C2605 C2606 1.415 . S
C2606 H2582 0.950 . S
C2606 C2601 1.363 . S
C2606 C2605 1.415 . S
C2607 H2583 0.951 . S
C2607 C2608 1.366 . S
C2607 C2609 1.388 . S
C2608 C2607 1.366 . S
C2608 C2612 1.385 . S
C2609 H2584 0.951 . S
C2609 C2607 1.388 . S
C2609 C2610 1.366 . S
C2610 C2609 1.366 . S
C2610 C2611 1.414 . S
C2610 C2613 1.499 . S
C2611 H2585 0.950 1_455 S
C2611 C2610 1.414 . S
C2611 C2612 1.374 . S
C2612 H2586 0.950 1_455 S
C2612 C2608 1.385 . S
C2612 C2611 1.374 . S
C2613 C2610 1.499 . S
C2613 C2614 1.373 1_455 S
C2613 C2615 1.389 . S
C2614 H2587 0.950 . S
C2614 C2600 1.377 . S
C2614 C2613 1.373 1_655 S
C2615 C2599 1.377 . S
C2615 C2613 1.389 . S
C2615 C2616 1.524 . S
C2616 C2615 1.524 . S
C2616 C2617 1.397 . S
C2616 C2621 1.363 . S
C2617 H2588 0.950 . S
C2617 C2616 1.397 . S
C2617 C2618 1.334 . S
C2618 H2589 0.950 . S
C2618 C2617 1.334 . S
C2618 C2619 1.287 . S
C2619 C2618 1.287 . S
C2619 C2620 1.524 . S
C2619 H2622 0.999 . S
C2620 H2590 0.950 . S
C2620 C2619 1.524 . S
C2620 C2621 1.415 . S
C2621 H2591 0.950 . S
C2621 C2616 1.363 . S
C2621 C2620 1.415 . S
H2622 C2619 0.999 . S
H2623 C2604 0.913 . S
H2624 C2642 0.951 . S
H2625 C2644 0.951 . S
H2626 C2646 0.950 . S
H2627 C2647 0.950 . S
H2628 C2649 0.950 1_556 S
H2629 C2652 0.950 . S
H2630 C2653 0.950 . S
H2631 C2655 0.950 . S
H2632 C2656 0.950 . S
H2633 C2657 0.951 . S
H2634 C2659 0.951 . S
H2635 C2661 0.950 . S
H2636 C2662 0.950 . S
H2637 C2664 0.950 . S
H2638 C2667 0.950 . S
H2639 C2668 0.950 . S
H2640 C2670 0.950 . S
H2641 C2671 0.950 1_554 S
C2642 H2624 0.951 . S
C2642 C2643 1.366 . S
C2642 C2644 1.388 . S
C2643 C2642 1.366 . S
C2643 C2647 1.385 . S
C2644 H2625 0.951 . S
C2644 C2642 1.388 . S
C2644 C2645 1.366 . S
C2645 C2644 1.366 . S
C2645 C2646 1.414 . S
C2645 C2648 1.499 . S
C2646 H2626 0.950 . S
C2646 C2645 1.414 . S
C2646 C2647 1.374 . S
C2647 H2627 0.950 . S
C2647 C2643 1.385 . S
C2647 C2646 1.374 . S
C2648 C2645 1.499 . S
C2648 C2649 1.373 . S
C2648 C2650 1.389 . S
C2649 H2628 0.950 1_554 S
C2649 C2648 1.373 . S
C2649 C2665 1.377 . S
C2650 C2648 1.389 . S
C2650 C2651 1.524 . S
C2650 C2664 1.377 . S
C2651 C2650 1.524 . S
C2651 C2652 1.397 . S
C2651 C2656 1.363 . S
C2652 H2629 0.950 . S
C2652 C2651 1.397 . S
C2652 C2653 1.334 . S
C2653 H2630 0.950 . S
C2653 C2652 1.334 . S
C2653 C2654 1.287 . S
C2654 C2653 1.287 . S
C2654 C2655 1.524 . S
C2654 H2673 0.913 . S
C2655 H2631 0.950 . S
C2655 C2654 1.524 . S
C2655 C2656 1.415 . S
C2656 H2632 0.950 . S
C2656 C2651 1.363 . S
C2656 C2655 1.415 . S
C2657 H2633 0.951 . S
C2657 C2658 1.366 . S
C2657 C2659 1.388 . S
C2658 C2657 1.366 . S
C2658 C2662 1.385 . S
C2659 H2634 0.951 . S
C2659 C2657 1.388 . S
C2659 C2660 1.366 . S
C2660 C2659 1.366 . S
C2660 C2661 1.414 . S
C2660 C2663 1.499 . S
C2661 H2635 0.950 . S
C2661 C2660 1.414 . S
C2661 C2662 1.374 . S
C2662 H2636 0.950 . S
C2662 C2658 1.385 . S
C2662 C2661 1.374 . S
C2663 C2660 1.499 . S
C2663 C2664 1.373 . S
C2663 C2665 1.389 . S
C2664 H2637 0.950 . S
C2664 C2650 1.377 . S
C2664 C2663 1.373 . S
C2665 C2649 1.377 . S
C2665 C2663 1.389 . S
C2665 C2666 1.524 1_554 S
C2666 C2665 1.524 1_556 S
C2666 C2667 1.397 . S
C2666 C2671 1.363 . S
C2667 H2638 0.950 . S
C2667 C2666 1.397 . S
C2667 C2668 1.334 . S
C2668 H2639 0.950 . S
C2668 C2667 1.334 . S
C2668 C2669 1.287 . S
C2669 C2668 1.287 . S
C2669 C2670 1.524 . S
C2669 H2672 0.999 . S
C2670 H2640 0.950 . S
C2670 C2669 1.524 . S
C2670 C2671 1.415 . S
C2671 H2641 0.950 1_556 S
C2671 C2666 1.363 . S
C2671 C2670 1.415 . S
H2672 C2669 0.999 . S
H2673 C2654 0.913 . S
H2674 C2692 0.951 . S
H2675 C2694 0.951 . S
H2676 C2696 0.950 . S
H2677 C2697 0.950 . S
H2678 C2699 0.981 . S
H2679 C2702 0.950 . S
H2680 C2703 0.950 . S
H2681 C2705 0.950 . S
H2682 C2706 0.950 . S
H2683 C2707 0.951 . S
H2684 C2709 0.951 . S
H2685 C2711 0.950 . S
H2686 C2712 0.950 . S
H2687 C2714 0.950 . S
H2688 C2717 0.950 . S
H2689 C2718 0.950 . S
H2690 C2720 0.950 . S
H2691 C2721 0.950 . S
C2692 H2674 0.951 . S
C2692 C2693 1.366 . S
C2692 C2694 1.388 . S
C2693 C2692 1.366 . S
C2693 C2697 1.385 . S
C2694 H2675 0.951 . S
C2694 C2692 1.388 . S
C2694 C2695 1.366 . S
C2695 C2694 1.366 . S
C2695 C2696 1.414 . S
C2695 C2698 1.499 . S
C2696 H2676 0.950 . S
C2696 C2695 1.414 . S
C2696 C2697 1.374 . S
C2697 H2677 0.950 . S
C2697 C2693 1.385 . S
C2697 C2696 1.374 . S
C2698 C2695 1.499 . S
C2698 C2699 1.340 1_554 S
C2698 C2700 1.389 . S
C2699 H2678 0.981 . S
C2699 C2698 1.340 1_556 S
C2699 C2715 1.380 . S
C2700 C2698 1.389 . S
C2700 C2701 1.524 . S
C2700 C2714 1.377 . S
C2701 C2700 1.524 . S
C2701 C2702 1.397 . S
C2701 C2706 1.363 . S
C2702 H2679 0.950 . S
C2702 C2701 1.397 . S
C2702 C2703 1.334 . S
C2703 H2680 0.950 . S
C2703 C2702 1.334 . S
C2703 C2704 1.287 . S
C2704 C2703 1.287 . S
C2704 C2705 1.524 . S
C2704 H2723 0.913 . S
C2705 H2681 0.950 . S
C2705 C2704 1.524 . S
C2705 C2706 1.415 . S
C2706 H2682 0.950 . S
C2706 C2701 1.363 . S
C2706 C2705 1.415 . S
C2707 H2683 0.951 . S
C2707 C2708 1.366 . S
C2707 C2709 1.388 . S
C2708 C2707 1.366 . S
C2708 C2712 1.385 . S
C2709 H2684 0.951 . S
C2709 C2707 1.388 . S
C2709 C2710 1.366 . S
C2710 C2709 1.366 . S
C2710 C2711 1.414 . S
C2710 C2713 1.499 . S
C2711 H2685 0.950 . S
C2711 C2710 1.414 . S
C2711 C2712 1.374 . S
C2712 H2686 0.950 . S
C2712 C2708 1.385 . S
C2712 C2711 1.374 . S
C2713 C2710 1.499 . S
C2713 C2714 1.373 . S
C2713 C2715 1.389 1_554 S
C2714 H2687 0.950 . S
C2714 C2700 1.377 . S
C2714 C2713 1.373 . S
C2715 C2699 1.380 . S
C2715 C2713 1.389 1_556 S
C2715 C2716 1.524 . S
C2716 C2715 1.524 . S
C2716 C2717 1.397 . S
C2716 C2721 1.363 . S
C2717 H2688 0.950 . S
C2717 C2716 1.397 . S
C2717 C2718 1.334 . S
C2718 H2689 0.950 . S
C2718 C2717 1.334 . S
C2718 C2719 1.287 . S
C2719 C2718 1.287 . S
C2719 C2720 1.524 . S
C2719 H2722 0.999 . S
C2720 H2690 0.950 . S
C2720 C2719 1.524 . S
C2720 C2721 1.415 . S
C2721 H2691 0.950 . S
C2721 C2716 1.363 . S
C2721 C2720 1.415 . S
H2722 C2719 0.999 . S
H2723 C2704 0.913 . S
H2724 C2742 0.951 . S
H2725 C2744 0.951 . S
H2726 C2746 0.950 . S
H2727 C2747 0.950 . S
H2728 C2749 0.950 . S
H2729 C2752 0.950 . S
H2730 C2753 0.950 . S
H2731 C2755 0.950 . S
H2732 C2756 0.950 . S
H2733 C2757 0.951 . S
H2734 C2759 0.951 . S
H2735 C2761 0.950 . S
H2736 C2762 0.950 . S
H2737 C2764 0.950 . S
H2738 C2767 0.950 . S
H2739 C2768 0.950 . S
H2740 C2770 0.950 . S
H2741 C2771 0.950 . S
C2742 H2724 0.951 . S
C2742 C2743 1.366 . S
C2742 C2744 1.388 . S
C2743 C2742 1.366 . S
C2743 C2747 1.385 . S
C2744 H2725 0.951 . S
C2744 C2742 1.388 . S
C2744 C2745 1.366 . S
C2745 C2744 1.366 . S
C2745 C2746 1.414 . S
C2745 C2748 1.499 . S
C2746 H2726 0.950 . S
C2746 C2745 1.414 . S
C2746 C2747 1.374 . S
C2747 H2727 0.950 . S
C2747 C2743 1.385 . S
C2747 C2746 1.374 . S
C2748 C2745 1.499 . S
C2748 C2749 1.373 1_554 S
C2748 C2750 1.389 . S
C2749 H2728 0.950 . S
C2749 C2748 1.373 1_556 S
C2749 C2765 1.377 . S
C2750 C2748 1.389 . S
C2750 C2751 1.524 . S
C2750 C2764 1.377 . S
C2751 C2750 1.524 . S
C2751 C2752 1.397 . S
C2751 C2756 1.363 . S
C2752 H2729 0.950 . S
C2752 C2751 1.397 . S
C2752 C2753 1.334 . S
C2753 H2730 0.950 . S
C2753 C2752 1.334 . S
C2753 C2754 1.287 . S
C2754 C2753 1.287 . S
C2754 C2755 1.524 . S
C2754 H2773 0.913 . S
C2755 H2731 0.950 . S
C2755 C2754 1.524 . S
C2755 C2756 1.415 . S
C2756 H2732 0.950 . S
C2756 C2751 1.363 . S
C2756 C2755 1.415 . S
C2757 H2733 0.951 . S
C2757 C2758 1.366 . S
C2757 C2759 1.388 . S
C2758 C2757 1.366 . S
C2758 C2762 1.385 . S
C2759 H2734 0.951 . S
C2759 C2757 1.388 . S
C2759 C2760 1.366 . S
C2760 C2759 1.366 . S
C2760 C2761 1.414 . S
C2760 C2763 1.499 . S
C2761 H2735 0.950 . S
C2761 C2760 1.414 . S
C2761 C2762 1.374 . S
C2762 H2736 0.950 . S
C2762 C2758 1.385 . S
C2762 C2761 1.374 . S
C2763 C2760 1.499 . S
C2763 C2764 1.373 . S
C2763 C2765 1.389 1_554 S
C2764 H2737 0.950 . S
C2764 C2750 1.377 . S
C2764 C2763 1.373 . S
C2765 C2749 1.377 . S
C2765 C2763 1.389 1_556 S
C2765 C2766 1.524 . S
C2766 C2765 1.524 . S
C2766 C2767 1.397 . S
C2766 C2771 1.363 . S
C2767 H2738 0.950 . S
C2767 C2766 1.397 . S
C2767 C2768 1.334 . S
C2768 H2739 0.950 . S
C2768 C2767 1.334 . S
C2768 C2769 1.287 . S
C2769 C2768 1.287 . S
C2769 C2770 1.524 . S
C2769 H2772 0.999 . S
C2770 H2740 0.950 . S
C2770 C2769 1.524 . S
C2770 C2771 1.415 . S
C2771 H2741 0.950 . S
C2771 C2766 1.363 . S
C2771 C2770 1.415 . S
H2772 C2769 0.999 . S
H2773 C2754 0.913 . S
H2774 C2792 0.951 . S
H2775 C2794 0.951 . S
H2776 C2796 0.950 . S
H2777 C2797 0.950 . S
H2778 C2799 0.950 . S
H2779 C2802 0.950 . S
H2780 C2803 0.950 . S
H2781 C2805 0.950 . S
H2782 C2806 0.950 . S
H2783 C2807 0.951 . S
H2784 C2809 0.951 . S
H2785 C2811 0.950 . S
H2786 C2812 0.950 . S
H2787 C2814 0.950 . S
H2788 C2817 0.950 . S
H2789 C2818 0.950 . S
H2790 C2820 0.950 . S
H2791 C2821 0.950 . S
C2792 H2774 0.951 . S
C2792 C2793 1.367 1_556 S
C2792 C2794 1.388 . S
C2793 C2792 1.367 1_554 S
C2793 C2797 1.383 . S
C2794 H2775 0.951 . S
C2794 C2792 1.388 . S
C2794 C2795 1.366 1_556 S
C2795 C2794 1.366 1_554 S
C2795 C2796 1.414 . S
C2795 C2798 1.499 . S
C2796 H2776 0.950 . S
C2796 C2795 1.414 . S
C2796 C2797 1.374 . S
C2797 H2777 0.950 . S
C2797 C2793 1.383 . S
C2797 C2796 1.374 . S
C2798 C2795 1.499 . S
C2798 C2799 1.373 1_554 S
C2798 C2800 1.389 . S
C2799 H2778 0.950 . S
C2799 C2798 1.373 1_556 S
C2799 C2815 1.377 . S
C2800 C2798 1.389 . S
C2800 C2801 1.524 . S
C2800 C2814 1.377 . S
C2801 C2800 1.524 . S
C2801 C2802 1.397 . S
C2801 C2806 1.363 . S
C2802 H2779 0.950 . S
C2802 C2801 1.397 . S
C2802 C2803 1.334 . S
C2803 H2780 0.950 . S
C2803 C2802 1.334 . S
C2803 C2804 1.287 . S
C2804 C2803 1.287 . S
C2804 C2805 1.524 . S
C2804 H2823 0.913 . S
C2805 H2781 0.950 . S
C2805 C2804 1.524 . S
C2805 C2806 1.415 . S
C2806 H2782 0.950 . S
C2806 C2801 1.363 . S
C2806 C2805 1.415 . S
C2807 H2783 0.951 . S
C2807 C2808 1.366 . S
C2807 C2809 1.388 . S
C2808 C2807 1.366 . S
C2808 C2812 1.385 1_554 S
C2809 H2784 0.951 . S
C2809 C2807 1.388 . S
C2809 C2810 1.359 1_554 S
C2810 C2809 1.359 1_556 S
C2810 C2811 1.420 . S
C2810 C2813 1.498 . S
C2811 H2785 0.950 . S
C2811 C2810 1.420 . S
C2811 C2812 1.374 . S
C2812 H2786 0.950 . S
C2812 C2808 1.385 1_556 S
C2812 C2811 1.374 . S
C2813 C2810 1.498 . S
C2813 C2814 1.356 1_556 S
C2813 C2815 1.405 . S
C2814 H2787 0.950 . S
C2814 C2800 1.377 . S
C2814 C2813 1.356 1_554 S
C2815 C2799 1.377 . S
C2815 C2813 1.405 . S
C2815 C2816 1.524 . S
C2816 C2815 1.524 . S
C2816 C2817 1.397 . S
C2816 C2821 1.363 . S
C2817 H2788 0.950 . S
C2817 C2816 1.397 . S
C2817 C2818 1.334 . S
C2818 H2789 0.950 . S
C2818 C2817 1.334 . S
C2818 C2819 1.287 . S
C2819 C2818 1.287 . S
C2819 C2820 1.524 . S
C2819 H2822 0.999 . S
C2820 H2790 0.950 . S
C2820 C2819 1.524 . S
C2820 C2821 1.415 . S
C2821 H2791 0.950 . S
C2821 C2816 1.363 . S
C2821 C2820 1.415 . S
H2822 C2819 0.999 . S
H2823 C2804 0.913 . S
H2824 C2842 0.951 . S
H2825 C2844 0.951 . S
H2826 C2846 0.950 . S
H2827 C2847 0.950 . S
H2828 C2849 0.950 . S
H2829 C2852 0.950 . S
H2830 C2853 0.950 . S
H2831 C2855 0.950 . S
H2832 C2856 0.950 . S
H2833 C2857 0.951 . S
H2834 C2859 0.951 . S
H2835 C2861 0.950 . S
H2836 C2862 0.950 . S
H2837 C2864 0.950 1_556 S
H2838 C2867 0.950 . S
H2839 C2868 0.950 . S
H2840 C2870 0.950 . S
H2841 C2871 0.950 . S
C2842 H2824 0.951 . S
C2842 C2843 1.366 1_556 S
C2842 C2844 1.388 . S
C2843 C2842 1.366 1_554 S
C2843 C2847 1.385 . S
C2844 H2825 0.951 . S
C2844 C2842 1.388 . S
C2844 C2845 1.366 1_556 S
C2845 C2844 1.366 1_554 S
C2845 C2846 1.414 . S
C2845 C2848 1.499 . S
C2846 H2826 0.950 . S
C2846 C2845 1.414 . S
C2846 C2847 1.374 . S
C2847 H2827 0.950 . S
C2847 C2843 1.385 . S
C2847 C2846 1.374 . S
C2848 C2845 1.499 . S
C2848 C2849 1.373 . S
C2848 C2850 1.389 . S
C2849 H2828 0.950 . S
C2849 C2848 1.373 . S
C2849 C2865 1.377 . S
C2850 C2848 1.389 . S
C2850 C2851 1.524 . S
C2850 C2864 1.377 . S
C2851 C2850 1.524 . S
C2851 C2852 1.397 . S
C2851 C2856 1.363 1_554 S
C2852 H2829 0.950 . S
C2852 C2851 1.397 . S
C2852 C2853 1.334 . S
C2853 H2830 0.950 . S
C2853 C2852 1.334 . S
C2853 C2854 1.287 . S
C2854 C2853 1.287 . S
C2854 C2855 1.524 1_554 S
C2854 H2873 0.913 . S
C2855 H2831 0.950 . S
C2855 C2854 1.524 1_556 S
C2855 C2856 1.415 . S
C2856 H2832 0.950 . S
C2856 C2851 1.363 1_556 S
C2856 C2855 1.415 . S
C2857 H2833 0.951 . S
C2857 C2858 1.366 . S
C2857 C2859 1.388 . S
C2858 C2857 1.366 . S
C2858 C2862 1.385 1_554 S
C2859 H2834 0.951 . S
C2859 C2857 1.388 . S
C2859 C2860 1.366 . S
C2860 C2859 1.366 . S
C2860 C2861 1.414 1_554 S
C2860 C2863 1.499 . S
C2861 H2835 0.950 . S
C2861 C2860 1.414 1_556 S
C2861 C2862 1.374 . S
C2862 H2836 0.950 . S
C2862 C2858 1.385 1_556 S
C2862 C2861 1.374 . S
C2863 C2860 1.499 . S
C2863 C2864 1.373 . S
C2863 C2865 1.389 . S
C2864 H2837 0.950 1_554 S
C2864 C2850 1.377 . S
C2864 C2863 1.373 . S
C2865 C2849 1.377 . S
C2865 C2863 1.389 . S
C2865 C2866 1.524 . S
C2866 C2865 1.524 . S
C2866 C2867 1.397 1_554 S
C2866 C2871 1.363 . S
C2867 H2838 0.950 . S
C2867 C2866 1.397 1_556 S
C2867 C2868 1.334 . S
C2868 H2839 0.950 . S
C2868 C2867 1.334 . S
C2868 C2869 1.287 1_556 S
C2869 C2868 1.287 1_554 S
C2869 C2870 1.524 . S
C2869 H2872 0.999 . S
C2870 H2840 0.950 . S
C2870 C2869 1.524 . S
C2870 C2871 1.415 . S
C2871 H2841 0.950 . S
C2871 C2866 1.363 . S
C2871 C2870 1.415 . S
H2872 C2869 0.999 . S
H2873 C2854 0.913 . S
H2874 C2892 0.951 . S
H2875 C2894 0.951 . S
H2876 C2896 0.944 1_556 S
H2877 C2897 0.946 1_556 S
H2878 C2899 0.950 . S
H2879 C2902 0.950 . S
H2880 C2903 0.950 . S
H2881 C2905 0.950 . S
H2882 C2906 0.950 . S
H2883 C2907 0.950 1_556 S
H2884 C2909 0.953 . S
H2885 C2911 0.950 . S
H2886 C2912 0.950 . S
H2887 C2914 0.950 . S
H2888 C2917 0.950 . S
H2889 C2918 0.950 . S
H2890 C2920 0.950 . S
H2891 C2921 0.950 . S
C2892 H2874 0.951 . S
C2892 C2893 1.366 . S
C2892 C2894 1.388 . S
C2893 C2892 1.366 . S
C2893 C2897 1.389 . S
C2894 H2875 0.951 . S
C2894 C2892 1.388 . S
C2894 C2895 1.366 . S
C2895 C2894 1.366 . S
C2895 C2896 1.423 . S
C2895 C2898 1.499 . S
C2896 H2876 0.944 1_554 S
C2896 C2895 1.423 . S
C2896 C2897 1.374 . S
C2897 H2877 0.946 1_554 S
C2897 C2893 1.389 . S
C2897 C2896 1.374 . S
C2898 C2895 1.499 . S
C2898 C2899 1.373 1_554 S
C2898 C2900 1.389 . S
C2899 H2878 0.950 . S
C2899 C2898 1.373 1_556 S
C2899 C2915 1.377 . S
C2900 C2898 1.389 . S
C2900 C2901 1.524 . S
C2900 C2914 1.377 . S
C2901 C2900 1.524 . S
C2901 C2902 1.397 . S
C2901 C2906 1.363 . S
C2902 H2879 0.950 . S
C2902 C2901 1.397 . S
C2902 C2903 1.334 . S
C2903 H2880 0.950 . S
C2903 C2902 1.334 . S
C2903 C2904 1.287 . S
C2904 C2903 1.287 . S
C2904 C2905 1.524 . S
C2904 H2923 0.913 . S
C2905 H2881 0.950 . S
C2905 C2904 1.524 . S
C2905 C2906 1.415 . S
C2906 H2882 0.950 . S
C2906 C2901 1.363 . S
C2906 C2905 1.415 . S
C2907 H2883 0.950 1_554 S
C2907 C2908 1.367 . S
C2907 C2909 1.387 1_554 S
C2908 C2907 1.367 . S
C2908 C2912 1.385 . S
C2909 H2884 0.953 . S
C2909 C2907 1.387 1_556 S
C2909 C2910 1.364 1_556 S
C2910 C2909 1.364 1_554 S
C2910 C2911 1.414 . S
C2910 C2913 1.499 . S
C2911 H2885 0.950 . S
C2911 C2910 1.414 . S
C2911 C2912 1.374 . S
C2912 H2886 0.950 . S
C2912 C2908 1.385 . S
C2912 C2911 1.374 . S
C2913 C2910 1.499 . S
C2913 C2914 1.373 . S
C2913 C2915 1.389 1_554 S
C2914 H2887 0.950 . S
C2914 C2900 1.377 . S
C2914 C2913 1.373 . S
C2915 C2899 1.377 . S
C2915 C2913 1.389 1_556 S
C2915 C2916 1.524 . S
C2916 C2915 1.524 . S
C2916 C2917 1.397 . S
C2916 C2921 1.363 . S
C2917 H2888 0.950 . S
C2917 C2916 1.397 . S
C2917 C2918 1.334 . S
C2918 H2889 0.950 . S
C2918 C2917 1.334 . S
C2918 C2919 1.287 . S
C2919 C2918 1.287 . S
C2919 C2920 1.524 . S
C2919 H2922 0.999 . S
C2920 H2890 0.950 . S
C2920 C2919 1.524 . S
C2920 C2921 1.415 . S
C2921 H2891 0.950 . S
C2921 C2916 1.363 . S
C2921 C2920 1.415 . S
H2922 C2919 0.999 . S
H2923 C2904 0.913 . S
H2924 C2942 0.951 1_556 S
H2925 C2944 0.951 1_556 S
H2926 C2946 0.950 . S
H2927 C2947 0.950 . S
H2928 C2949 0.950 . S
H2929 C2952 0.950 . S
H2930 C2953 0.950 . S
H2931 C2955 0.950 . S
H2932 C2956 0.950 . S
H2933 C2957 0.951 . S
H2934 C2959 0.951 . S
H2935 C2961 0.950 . S
H2936 C2962 0.950 . S
H2937 C2964 0.950 . S
H2938 C2967 0.950 . S
H2939 C2968 0.950 . S
H2940 C2970 0.950 . S
H2941 C2971 0.950 . S
C2942 H2924 0.951 1_554 S
C2942 C2943 1.366 . S
C2942 C2944 1.388 . S
C2943 C2942 1.366 . S
C2943 C2947 1.385 . S
C2944 H2925 0.951 1_554 S
C2944 C2942 1.388 . S
C2944 C2945 1.366 . S
C2945 C2944 1.366 . S
C2945 C2946 1.414 . S
C2945 C2948 1.499 . S
C2946 H2926 0.950 . S
C2946 C2945 1.414 . S
C2946 C2947 1.374 . S
C2947 H2927 0.950 . S
C2947 C2943 1.385 . S
C2947 C2946 1.374 . S
C2948 C2945 1.499 . S
C2948 C2949 1.373 . S
C2948 C2950 1.389 1_554 S
C2949 H2928 0.950 . S
C2949 C2948 1.373 . S
C2949 C2965 1.377 . S
C2950 C2948 1.389 1_556 S
C2950 C2951 1.524 . S
C2950 C2964 1.377 . S
C2951 C2950 1.524 . S
C2951 C2952 1.397 . S
C2951 C2956 1.363 . S
C2952 H2929 0.950 . S
C2952 C2951 1.397 . S
C2952 C2953 1.334 . S
C2953 H2930 0.950 . S
C2953 C2952 1.334 . S
C2953 C2954 1.287 . S
C2954 C2953 1.287 . S
C2954 C2955 1.524 . S
C2954 H2973 0.913 . S
C2955 H2931 0.950 . S
C2955 C2954 1.524 . S
C2955 C2956 1.415 . S
C2956 H2932 0.950 . S
C2956 C2951 1.363 . S
C2956 C2955 1.415 . S
C2957 H2933 0.951 . S
C2957 C2958 1.366 . S
C2957 C2959 1.388 . S
C2958 C2957 1.366 . S
C2958 C2962 1.385 1_554 S
C2959 H2934 0.951 . S
C2959 C2957 1.388 . S
C2959 C2960 1.366 . S
C2960 C2959 1.366 . S
C2960 C2961 1.414 1_554 S
C2960 C2963 1.499 . S
C2961 H2935 0.950 . S
C2961 C2960 1.414 1_556 S
C2961 C2962 1.374 . S
C2962 H2936 0.950 . S
C2962 C2958 1.385 1_556 S
C2962 C2961 1.374 . S
C2963 C2960 1.499 . S
C2963 C2964 1.373 1_554 S
C2963 C2965 1.389 . S
C2964 H2937 0.950 . S
C2964 C2950 1.377 . S
C2964 C2963 1.373 1_556 S
C2965 C2949 1.377 . S
C2965 C2963 1.389 . S
C2965 C2966 1.524 . S
C2966 C2965 1.524 . S
C2966 C2967 1.397 . S
C2966 C2971 1.363 . S
C2967 H2938 0.950 . S
C2967 C2966 1.397 . S
C2967 C2968 1.334 . S
C2968 H2939 0.950 . S
C2968 C2967 1.334 . S
C2968 C2969 1.287 . S
C2969 C2968 1.287 . S
C2969 C2970 1.524 . S
C2969 H2972 0.999 . S
C2970 H2940 0.950 . S
C2970 C2969 1.524 . S
C2970 C2971 1.415 . S
C2971 H2941 0.950 . S
C2971 C2966 1.363 . S
C2971 C2970 1.415 . S
H2972 C2969 0.999 . S
H2973 C2954 0.913 . S
H2974 C2992 0.951 . S
H2975 C2994 0.951 . S
H2976 C2996 0.950 . S
H2977 C2997 0.950 . S
H2978 C2999 0.950 . S
H2979 C3002 0.950 . S
H2980 C3003 0.950 . S
H2981 C3005 0.950 . S
H2982 C3006 0.950 . S
H2983 C3007 0.951 . S
H2984 C3009 0.951 . S
H2985 C3011 0.950 . S
H2986 C3012 0.950 . S
H2987 C3014 0.950 . S
H2988 C3017 0.950 . S
H2989 C3018 0.950 . S
H2990 C3020 0.950 . S
H2991 C3021 0.950 . S
C2992 H2974 0.951 . S
C2992 C2993 1.361 1_556 S
C2992 C2994 1.388 . S
C2993 C2992 1.361 1_554 S
C2993 C2997 1.389 . S
C2994 H2975 0.951 . S
C2994 C2992 1.388 . S
C2994 C2995 1.366 1_556 S
C2995 C2994 1.366 1_554 S
C2995 C2996 1.414 . S
C2995 C2998 1.499 . S
C2996 H2976 0.950 . S
C2996 C2995 1.414 . S
C2996 C2997 1.374 . S
C2997 H2977 0.950 . S
C2997 C2993 1.389 . S
C2997 C2996 1.374 . S
C2998 C2995 1.499 . S
C2998 C2999 1.373 . S
C2998 C3000 1.389 1_554 S
C2999 H2978 0.950 . S
C2999 C2998 1.373 . S
C2999 C3015 1.377 . S
C3000 C2998 1.389 1_556 S
C3000 C3001 1.524 . S
C3000 C3014 1.377 . S
C3001 C3000 1.524 . S
C3001 C3002 1.397 . S
C3001 C3006 1.363 . S
C3002 H2979 0.950 . S
C3002 C3001 1.397 . S
C3002 C3003 1.334 . S
C3003 H2980 0.950 . S
C3003 C3002 1.334 . S
C3003 C3004 1.287 . S
C3004 C3003 1.287 . S
C3004 C3005 1.524 . S
C3004 H3023 0.913 . S
C3005 H2981 0.950 . S
C3005 C3004 1.524 . S
C3005 C3006 1.415 . S
C3006 H2982 0.950 . S
C3006 C3001 1.363 . S
C3006 C3005 1.415 . S
C3007 H2983 0.951 . S
C3007 C3008 1.366 . S
C3007 C3009 1.388 . S
C3008 C3007 1.366 . S
C3008 C3012 1.385 1_554 S
C3009 H2984 0.951 . S
C3009 C3007 1.388 . S
C3009 C3010 1.366 . S
C3010 C3009 1.366 . S
C3010 C3011 1.414 1_554 S
C3010 C3013 1.499 . S
C3011 H2985 0.950 . S
C3011 C3010 1.414 1_556 S
C3011 C3012 1.374 . S
C3012 H2986 0.950 . S
C3012 C3008 1.385 1_556 S
C3012 C3011 1.374 . S
C3013 C3010 1.499 . S
C3013 C3014 1.373 1_554 S
C3013 C3015 1.389 . S
C3014 H2987 0.950 . S
C3014 C3000 1.377 . S
C3014 C3013 1.373 1_556 S
C3015 C2999 1.377 . S
C3015 C3013 1.389 . S
C3015 C3016 1.524 . S
C3016 C3015 1.524 . S
C3016 C3017 1.397 . S
C3016 C3021 1.363 . S
C3017 H2988 0.950 . S
C3017 C3016 1.397 . S
C3017 C3018 1.334 . S
C3018 H2989 0.950 . S
C3018 C3017 1.334 . S
C3018 C3019 1.287 . S
C3019 C3018 1.287 . S
C3019 C3020 1.524 . S
C3019 H3022 0.999 . S
C3020 H2990 0.950 . S
C3020 C3019 1.524 . S
C3020 C3021 1.415 . S
C3021 H2991 0.950 . S
C3021 C3016 1.363 . S
C3021 C3020 1.415 . S
H3022 C3019 0.999 . S
H3023 C3004 0.913 . S
H3024 C3042 0.951 . S
H3025 C3044 0.951 . S
H3026 C3046 0.950 . S
H3027 C3047 0.950 . S
H3028 C3049 0.950 . S
H3029 C3052 0.950 . S
H3030 C3053 0.950 . S
H3031 C3055 0.950 . S
H3032 C3056 0.950 . S
H3033 C3057 0.951 . S
H3034 C3059 0.951 . S
H3035 C3061 0.950 . S
H3036 C3062 0.950 . S
H3037 C3064 0.950 . S
H3038 C3067 0.950 . S
H3039 C3068 0.950 . S
H3040 C3070 0.950 . S
H3041 C3071 0.950 . S
C3042 H3024 0.951 . S
C3042 C3043 1.366 . S
C3042 C3044 1.388 . S
C3043 C3042 1.366 . S
C3043 C3047 1.385 . S
C3044 H3025 0.951 . S
C3044 C3042 1.388 . S
C3044 C3045 1.366 . S
C3045 C3044 1.366 . S
C3045 C3046 1.414 . S
C3045 C3048 1.499 . S
C3046 H3026 0.950 . S
C3046 C3045 1.414 . S
C3046 C3047 1.374 . S
C3047 H3027 0.950 . S
C3047 C3043 1.385 . S
C3047 C3046 1.374 . S
C3048 C3045 1.499 . S
C3048 C3049 1.373 . S
C3048 C3050 1.389 . S
C3049 H3028 0.950 . S
C3049 C3048 1.373 . S
C3049 C3065 1.377 . S
C3050 C3048 1.389 . S
C3050 C3051 1.524 . S
C3050 C3064 1.377 . S
C3051 C3050 1.524 . S
C3051 C3052 1.397 . S
C3051 C3056 1.363 . S
C3052 H3029 0.950 . S
C3052 C3051 1.397 . S
C3052 C3053 1.334 . S
C3053 H3030 0.950 . S
C3053 C3052 1.334 . S
C3053 C3054 1.287 . S
C3054 C3053 1.287 . S
C3054 C3055 1.524 . S
C3054 H3073 0.913 . S
C3055 H3031 0.950 . S
C3055 C3054 1.524 . S
C3055 C3056 1.415 . S
C3056 H3032 0.950 . S
C3056 C3051 1.363 . S
C3056 C3055 1.415 . S
C3057 H3033 0.951 . S
C3057 C3058 1.366 . S
C3057 C3059 1.388 . S
C3058 C3057 1.366 . S
C3058 C3062 1.385 . S
C3059 H3034 0.951 . S
C3059 C3057 1.388 . S
C3059 C3060 1.366 . S
C3060 C3059 1.366 . S
C3060 C3061 1.414 . S
C3060 C3063 1.499 . S
C3061 H3035 0.950 . S
C3061 C3060 1.414 . S
C3061 C3062 1.374 . S
C3062 H3036 0.950 . S
C3062 C3058 1.385 . S
C3062 C3061 1.374 . S
C3063 C3060 1.499 . S
C3063 C3064 1.373 . S
C3063 C3065 1.389 . S
C3064 H3037 0.950 . S
C3064 C3050 1.377 . S
C3064 C3063 1.373 . S
C3065 C3049 1.377 . S
C3065 C3063 1.389 . S
C3065 C3066 1.524 . S
C3066 C3065 1.524 . S
C3066 C3067 1.397 . S
C3066 C3071 1.363 . S
C3067 H3038 0.950 . S
C3067 C3066 1.397 . S
C3067 C3068 1.334 . S
C3068 H3039 0.950 . S
C3068 C3067 1.334 . S
C3068 C3069 1.287 . S
C3069 C3068 1.287 . S
C3069 C3070 1.524 . S
C3069 H3072 0.999 . S
C3070 H3040 0.950 . S
C3070 C3069 1.524 . S
C3070 C3071 1.415 . S
C3071 H3041 0.950 . S
C3071 C3066 1.363 . S
C3071 C3070 1.415 . S
H3072 C3069 0.999 . S
H3073 C3054 0.913 . S
H3074 C3092 0.951 . S
H3075 C3094 0.951 . S
H3076 C3096 0.950 . S
H3077 C3097 0.950 . S
H3078 C3099 0.950 . S
H3079 C3102 0.950 . S
H3080 C3103 0.950 . S
H3081 C3105 0.950 . S
H3082 C3106 0.950 . S
H3083 C3107 0.951 . S
H3084 C3109 0.951 . S
H3085 C3111 0.950 . S
H3086 C3112 0.950 . S
H3087 C3114 0.950 . S
H3088 C3117 0.950 . S
H3089 C3118 0.950 . S
H3090 C3120 0.950 . S
H3091 C3121 0.950 . S
C3092 H3074 0.951 . S
C3092 C3093 1.366 . S
C3092 C3094 1.388 . S
C3093 C3092 1.366 . S
C3093 C3097 1.385 . S
C3094 H3075 0.951 . S
C3094 C3092 1.388 . S
C3094 C3095 1.366 . S
C3095 C3094 1.366 . S
C3095 C3096 1.414 . S
C3095 C3098 1.499 . S
C3096 H3076 0.950 . S
C3096 C3095 1.414 . S
C3096 C3097 1.374 . S
C3097 H3077 0.950 . S
C3097 C3093 1.385 . S
C3097 C3096 1.374 . S
C3098 C3095 1.499 . S
C3098 C3099 1.373 . S
C3098 C3100 1.389 . S
C3099 H3078 0.950 . S
C3099 C3098 1.373 . S
C3099 C3115 1.377 . S
C3100 C3098 1.389 . S
C3100 C3101 1.524 . S
C3100 C3114 1.377 . S
C3101 C3100 1.524 . S
C3101 C3102 1.397 . S
C3101 C3106 1.363 . S
C3102 H3079 0.950 . S
C3102 C3101 1.397 . S
C3102 C3103 1.334 . S
C3103 H3080 0.950 . S
C3103 C3102 1.334 . S
C3103 C3104 1.287 . S
C3104 C3103 1.287 . S
C3104 C3105 1.524 . S
C3104 H3123 0.913 . S
C3105 H3081 0.950 . S
C3105 C3104 1.524 . S
C3105 C3106 1.415 . S
C3106 H3082 0.950 . S
C3106 C3101 1.363 . S
C3106 C3105 1.415 . S
C3107 H3083 0.951 . S
C3107 C3108 1.366 . S
C3107 C3109 1.388 . S
C3108 C3107 1.366 . S
C3108 C3112 1.385 . S
C3109 H3084 0.951 . S
C3109 C3107 1.388 . S
C3109 C3110 1.366 . S
C3110 C3109 1.366 . S
C3110 C3111 1.414 . S
C3110 C3113 1.499 . S
C3111 H3085 0.950 . S
C3111 C3110 1.414 . S
C3111 C3112 1.374 . S
C3112 H3086 0.950 . S
C3112 C3108 1.385 . S
C3112 C3111 1.374 . S
C3113 C3110 1.499 . S
C3113 C3114 1.373 . S
C3113 C3115 1.389 . S
C3114 H3087 0.950 . S
C3114 C3100 1.377 . S
C3114 C3113 1.373 . S
C3115 C3099 1.377 . S
C3115 C3113 1.389 . S
C3115 C3116 1.524 . S
C3116 C3115 1.524 . S
C3116 C3117 1.397 . S
C3116 C3121 1.363 . S
C3117 H3088 0.950 . S
C3117 C3116 1.397 . S
C3117 C3118 1.334 . S
C3118 H3089 0.950 . S
C3118 C3117 1.334 . S
C3118 C3119 1.287 . S
C3119 C3118 1.287 . S
C3119 C3120 1.524 . S
C3119 H3122 0.999 . S
C3120 H3090 0.950 . S
C3120 C3119 1.524 . S
C3120 C3121 1.415 . S
C3121 H3091 0.950 . S
C3121 C3116 1.363 . S
C3121 C3120 1.415 . S
H3122 C3119 0.999 . S
H3123 C3104 0.913 . S
H3124 C3142 0.951 . S
H3125 C3144 0.951 . S
H3126 C3146 0.950 . S
H3127 C3147 0.950 . S
H3128 C3149 0.950 . S
H3129 C3152 0.950 . S
H3130 C3153 0.950 . S
H3131 C3155 0.950 . S
H3132 C3156 0.950 . S
H3133 C3157 0.951 . S
H3134 C3159 0.951 . S
H3135 C3161 0.950 . S
H3136 C3162 0.950 . S
H3137 C3164 0.950 . S
H3138 C3167 0.950 . S
H3139 C3168 0.950 . S
H3140 C3170 0.950 . S
H3141 C3171 0.950 . S
C3142 H3124 0.951 . S
C3142 C3143 1.366 . S
C3142 C3144 1.388 . S
C3143 C3142 1.366 . S
C3143 C3147 1.385 . S
C3144 H3125 0.951 . S
C3144 C3142 1.388 . S
C3144 C3145 1.366 . S
C3145 C3144 1.366 . S
C3145 C3146 1.414 . S
C3145 C3148 1.499 . S
C3146 H3126 0.950 . S
C3146 C3145 1.414 . S
C3146 C3147 1.374 . S
C3147 H3127 0.950 . S
C3147 C3143 1.385 . S
C3147 C3146 1.374 . S
C3148 C3145 1.499 . S
C3148 C3149 1.373 . S
C3148 C3150 1.389 . S
C3149 H3128 0.950 . S
C3149 C3148 1.373 . S
C3149 C3165 1.377 . S
C3150 C3148 1.389 . S
C3150 C3151 1.524 . S
C3150 C3164 1.377 . S
C3151 C3150 1.524 . S
C3151 C3152 1.397 . S
C3151 C3156 1.363 . S
C3152 H3129 0.950 . S
C3152 C3151 1.397 . S
C3152 C3153 1.334 . S
C3153 H3130 0.950 . S
C3153 C3152 1.334 . S
C3153 C3154 1.287 . S
C3154 C3153 1.287 . S
C3154 C3155 1.524 . S
C3154 H3173 0.913 . S
C3155 H3131 0.950 . S
C3155 C3154 1.524 . S
C3155 C3156 1.415 . S
C3156 H3132 0.950 . S
C3156 C3151 1.363 . S
C3156 C3155 1.415 . S
C3157 H3133 0.951 . S
C3157 C3158 1.366 . S
C3157 C3159 1.388 . S
C3158 C3157 1.366 . S
C3158 C3162 1.385 . S
C3159 H3134 0.951 . S
C3159 C3157 1.388 . S
C3159 C3160 1.366 . S
C3160 C3159 1.366 . S
C3160 C3161 1.414 . S
C3160 C3163 1.499 . S
C3161 H3135 0.950 . S
C3161 C3160 1.414 . S
C3161 C3162 1.374 . S
C3162 H3136 0.950 . S
C3162 C3158 1.385 . S
C3162 C3161 1.374 . S
C3163 C3160 1.499 . S
C3163 C3164 1.373 . S
C3163 C3165 1.389 . S
C3164 H3137 0.950 . S
C3164 C3150 1.377 . S
C3164 C3163 1.373 . S
C3165 C3149 1.377 . S
C3165 C3163 1.389 . S
C3165 C3166 1.524 . S
C3166 C3165 1.524 . S
C3166 C3167 1.397 . S
C3166 C3171 1.363 . S
C3167 H3138 0.950 . S
C3167 C3166 1.397 . S
C3167 C3168 1.334 . S
C3168 H3139 0.950 . S
C3168 C3167 1.334 . S
C3168 C3169 1.287 . S
C3169 C3168 1.287 . S
C3169 C3170 1.524 . S
C3169 H3172 0.999 . S
C3170 H3140 0.950 . S
C3170 C3169 1.524 . S
C3170 C3171 1.415 . S
C3171 H3141 0.950 . S
C3171 C3166 1.363 . S
C3171 C3170 1.415 . S
H3172 C3169 0.999 . S
H3173 C3154 0.913 . S
H3174 C3192 0.951 . S
H3175 C3194 0.951 . S
H3176 C3196 0.950 . S
H3177 C3197 0.950 . S
H3178 C3199 0.950 . S
H3179 C3202 0.950 . S
H3180 C3203 0.950 . S
H3181 C3205 0.950 . S
H3182 C3206 0.950 . S
H3183 C3207 0.951 . S
H3184 C3209 0.951 . S
H3185 C3211 0.950 . S
H3186 C3212 0.950 . S
H3187 C3214 0.950 . S
H3188 C3217 0.950 . S
H3189 C3218 0.950 . S
H3190 C3220 0.950 . S
H3191 C3221 0.950 . S
C3192 H3174 0.951 . S
C3192 C3193 1.366 . S
C3192 C3194 1.388 . S
C3193 C3192 1.366 . S
C3193 C3197 1.385 . S
C3194 H3175 0.951 . S
C3194 C3192 1.388 . S
C3194 C3195 1.366 . S
C3195 C3194 1.366 . S
C3195 C3196 1.414 . S
C3195 C3198 1.499 . S
C3196 H3176 0.950 . S
C3196 C3195 1.414 . S
C3196 C3197 1.374 . S
C3197 H3177 0.950 . S
C3197 C3193 1.385 . S
C3197 C3196 1.374 . S
C3198 C3195 1.499 . S
C3198 C3199 1.373 . S
C3198 C3200 1.389 . S
C3199 H3178 0.950 . S
C3199 C3198 1.373 . S
C3199 C3215 1.377 . S
C3200 C3198 1.389 . S
C3200 C3201 1.524 . S
C3200 C3214 1.377 . S
C3201 C3200 1.524 . S
C3201 C3202 1.397 . S
C3201 C3206 1.363 . S
C3202 H3179 0.950 . S
C3202 C3201 1.397 . S
C3202 C3203 1.334 . S
C3203 H3180 0.950 . S
C3203 C3202 1.334 . S
C3203 C3204 1.287 . S
C3204 C3203 1.287 . S
C3204 C3205 1.524 . S
C3204 H3223 0.913 . S
C3205 H3181 0.950 . S
C3205 C3204 1.524 . S
C3205 C3206 1.415 . S
C3206 H3182 0.950 . S
C3206 C3201 1.363 . S
C3206 C3205 1.415 . S
C3207 H3183 0.951 . S
C3207 C3208 1.366 . S
C3207 C3209 1.388 . S
C3208 C3207 1.366 . S
C3208 C3212 1.385 . S
C3209 H3184 0.951 . S
C3209 C3207 1.388 . S
C3209 C3210 1.366 . S
C3210 C3209 1.366 . S
C3210 C3211 1.414 . S
C3210 C3213 1.499 . S
C3211 H3185 0.950 . S
C3211 C3210 1.414 . S
C3211 C3212 1.374 . S
C3212 H3186 0.950 . S
C3212 C3208 1.385 . S
C3212 C3211 1.374 . S
C3213 C3210 1.499 . S
C3213 C3214 1.373 . S
C3213 C3215 1.389 . S
C3214 H3187 0.950 . S
C3214 C3200 1.377 . S
C3214 C3213 1.373 . S
C3215 C3199 1.377 . S
C3215 C3213 1.389 . S
C3215 C3216 1.524 . S
C3216 C3215 1.524 . S
C3216 C3217 1.397 . S
C3216 C3221 1.363 . S
C3217 H3188 0.950 . S
C3217 C3216 1.397 . S
C3217 C3218 1.334 . S
C3218 H3189 0.950 . S
C3218 C3217 1.334 . S
C3218 C3219 1.287 . S
C3219 C3218 1.287 . S
C3219 C3220 1.524 . S
C3219 H3222 0.999 . S
C3220 H3190 0.950 . S
C3220 C3219 1.524 . S
C3220 C3221 1.415 . S
C3221 H3191 0.950 . S
C3221 C3216 1.363 . S
C3221 C3220 1.415 . S
H3222 C3219 0.999 . S
H3223 C3204 0.913 . S
H3224 C3242 0.951 . S
H3225 C3244 0.951 . S
H3226 C3246 0.950 . S
H3227 C3247 0.950 . S
H3228 C3249 0.950 . S
H3229 C3252 0.950 . S
H3230 C3253 0.950 . S
H3231 C3255 0.950 . S
H3232 C3256 0.950 . S
H3233 C3257 0.951 . S
H3234 C3259 0.951 . S
H3235 C3261 0.950 . S
H3236 C3262 0.950 . S
H3237 C3264 0.950 . S
H3238 C3267 0.950 . S
H3239 C3268 0.950 . S
H3240 C3270 0.950 . S
H3241 C3271 0.950 . S
C3242 H3224 0.951 . S
C3242 C3243 1.366 . S
C3242 C3244 1.388 . S
C3243 C3242 1.366 . S
C3243 C3247 1.385 . S
C3244 H3225 0.951 . S
C3244 C3242 1.388 . S
C3244 C3245 1.366 . S
C3245 C3244 1.366 . S
C3245 C3246 1.414 . S
C3245 C3248 1.499 . S
C3246 H3226 0.950 . S
C3246 C3245 1.414 . S
C3246 C3247 1.374 . S
C3247 H3227 0.950 . S
C3247 C3243 1.385 . S
C3247 C3246 1.374 . S
C3248 C3245 1.499 . S
C3248 C3249 1.373 . S
C3248 C3250 1.389 . S
C3249 H3228 0.950 . S
C3249 C3248 1.373 . S
C3249 C3265 1.377 . S
C3250 C3248 1.389 . S
C3250 C3251 1.524 . S
C3250 C3264 1.377 . S
C3251 C3250 1.524 . S
C3251 C3252 1.397 . S
C3251 C3256 1.363 . S
C3252 H3229 0.950 . S
C3252 C3251 1.397 . S
C3252 C3253 1.334 . S
C3253 H3230 0.950 . S
C3253 C3252 1.334 . S
C3253 C3254 1.287 . S
C3254 C3253 1.287 . S
C3254 C3255 1.524 . S
C3254 H3273 0.913 . S
C3255 H3231 0.950 . S
C3255 C3254 1.524 . S
C3255 C3256 1.415 . S
C3256 H3232 0.950 . S
C3256 C3251 1.363 . S
C3256 C3255 1.415 . S
C3257 H3233 0.951 . S
C3257 C3258 1.366 . S
C3257 C3259 1.388 . S
C3258 C3257 1.366 . S
C3258 C3262 1.385 . S
C3259 H3234 0.951 . S
C3259 C3257 1.388 . S
C3259 C3260 1.366 . S
C3260 C3259 1.366 . S
C3260 C3261 1.414 . S
C3260 C3263 1.499 . S
C3261 H3235 0.950 . S
C3261 C3260 1.414 . S
C3261 C3262 1.374 . S
C3262 H3236 0.950 . S
C3262 C3258 1.385 . S
C3262 C3261 1.374 . S
C3263 C3260 1.499 . S
C3263 C3264 1.373 . S
C3263 C3265 1.389 . S
C3264 H3237 0.950 . S
C3264 C3250 1.377 . S
C3264 C3263 1.373 . S
C3265 C3249 1.377 . S
C3265 C3263 1.389 . S
C3265 C3266 1.524 . S
C3266 C3265 1.524 . S
C3266 C3267 1.397 . S
C3266 C3271 1.363 . S
C3267 H3238 0.950 . S
C3267 C3266 1.397 . S
C3267 C3268 1.334 . S
C3268 H3239 0.950 . S
C3268 C3267 1.334 . S
C3268 C3269 1.287 . S
C3269 C3268 1.287 . S
C3269 C3270 1.524 . S
C3269 H3272 0.999 . S
C3270 H3240 0.950 . S
C3270 C3269 1.524 . S
C3270 C3271 1.415 . S
C3271 H3241 0.950 . S
C3271 C3266 1.363 . S
C3271 C3270 1.415 . S
H3272 C3269 0.999 . S
H3273 C3254 0.913 . S
H3274 C3292 0.951 . S
H3275 C3294 0.951 . S
H3276 C3296 0.950 . S
H3277 C3297 0.950 . S
H3278 C3299 0.950 . S
H3279 C3302 0.950 . S
H3280 C3303 0.950 . S
H3281 C3305 0.950 . S
H3282 C3306 0.950 . S
H3283 C3307 0.951 . S
H3284 C3309 0.951 . S
H3285 C3311 0.950 . S
H3286 C3312 0.950 . S
H3287 C3314 0.950 . S
H3288 C3317 0.950 . S
H3289 C3318 0.950 . S
H3290 C3320 0.950 . S
H3291 C3321 0.950 . S
C3292 H3274 0.951 . S
C3292 C3293 1.366 . S
C3292 C3294 1.388 . S
C3293 C3292 1.366 . S
C3293 C3297 1.385 . S
C3294 H3275 0.951 . S
C3294 C3292 1.388 . S
C3294 C3295 1.366 . S
C3295 C3294 1.366 . S
C3295 C3296 1.414 . S
C3295 C3298 1.499 . S
C3296 H3276 0.950 . S
C3296 C3295 1.414 . S
C3296 C3297 1.374 . S
C3297 H3277 0.950 . S
C3297 C3293 1.385 . S
C3297 C3296 1.374 . S
C3298 C3295 1.499 . S
C3298 C3299 1.373 . S
C3298 C3300 1.389 . S
C3299 H3278 0.950 . S
C3299 C3298 1.373 . S
C3299 C3315 1.377 . S
C3300 C3298 1.389 . S
C3300 C3301 1.524 . S
C3300 C3314 1.377 . S
C3301 C3300 1.524 . S
C3301 C3302 1.397 . S
C3301 C3306 1.363 . S
C3302 H3279 0.950 . S
C3302 C3301 1.397 . S
C3302 C3303 1.334 . S
C3303 H3280 0.950 . S
C3303 C3302 1.334 . S
C3303 C3304 1.287 . S
C3304 C3303 1.287 . S
C3304 C3305 1.524 . S
C3304 H3323 0.913 . S
C3305 H3281 0.950 . S
C3305 C3304 1.524 . S
C3305 C3306 1.415 . S
C3306 H3282 0.950 . S
C3306 C3301 1.363 . S
C3306 C3305 1.415 . S
C3307 H3283 0.951 . S
C3307 C3308 1.366 . S
C3307 C3309 1.388 . S
C3308 C3307 1.366 . S
C3308 C3312 1.385 . S
C3309 H3284 0.951 . S
C3309 C3307 1.388 . S
C3309 C3310 1.366 . S
C3310 C3309 1.366 . S
C3310 C3311 1.414 . S
C3310 C3313 1.499 . S
C3311 H3285 0.950 . S
C3311 C3310 1.414 . S
C3311 C3312 1.374 . S
C3312 H3286 0.950 . S
C3312 C3308 1.385 . S
C3312 C3311 1.374 . S
C3313 C3310 1.499 . S
C3313 C3314 1.373 . S
C3313 C3315 1.389 . S
C3314 H3287 0.950 . S
C3314 C3300 1.377 . S
C3314 C3313 1.373 . S
C3315 C3299 1.377 . S
C3315 C3313 1.389 . S
C3315 C3316 1.524 . S
C3316 C3315 1.524 . S
C3316 C3317 1.397 . S
C3316 C3321 1.363 . S
C3317 H3288 0.950 . S
C3317 C3316 1.397 . S
C3317 C3318 1.334 . S
C3318 H3289 0.950 . S
C3318 C3317 1.334 . S
C3318 C3319 1.287 . S
C3319 C3318 1.287 . S
C3319 C3320 1.524 . S
C3319 H3322 0.999 . S
C3320 H3290 0.950 . S
C3320 C3319 1.524 . S
C3320 C3321 1.415 . S
C3321 H3291 0.950 . S
C3321 C3316 1.363 . S
C3321 C3320 1.415 . S
H3322 C3319 0.999 . S
H3323 C3304 0.913 . S
H3324 C3342 0.951 . S
H3325 C3344 0.951 . S
H3326 C3346 0.950 . S
H3327 C3347 0.950 . S
H3328 C3349 0.950 . S
H3329 C3352 0.950 . S
H3330 C3353 0.950 . S
H3331 C3355 0.950 . S
H3332 C3356 0.950 . S
H3333 C3357 0.951 . S
H3334 C3359 0.951 . S
H3335 C3361 0.950 . S
H3336 C3362 0.950 . S
H3337 C3364 0.950 . S
H3338 C3367 0.950 . S
H3339 C3368 0.950 . S
H3340 C3370 0.950 . S
H3341 C3371 0.950 . S
C3342 H3324 0.951 . S
C3342 C3343 1.366 . S
C3342 C3344 1.388 . S
C3343 C3342 1.366 . S
C3343 C3347 1.385 . S
C3344 H3325 0.951 . S
C3344 C3342 1.388 . S
C3344 C3345 1.366 . S
C3345 C3344 1.366 . S
C3345 C3346 1.414 . S
C3345 C3348 1.499 . S
C3346 H3326 0.950 . S
C3346 C3345 1.414 . S
C3346 C3347 1.374 . S
C3347 H3327 0.950 . S
C3347 C3343 1.385 . S
C3347 C3346 1.374 . S
C3348 C3345 1.499 . S
C3348 C3349 1.373 . S
C3348 C3350 1.389 . S
C3349 H3328 0.950 . S
C3349 C3348 1.373 . S
C3349 C3365 1.377 . S
C3350 C3348 1.389 . S
C3350 C3351 1.524 . S
C3350 C3364 1.377 . S
C3351 C3350 1.524 . S
C3351 C3352 1.397 . S
C3351 C3356 1.363 . S
C3352 H3329 0.950 . S
C3352 C3351 1.397 . S
C3352 C3353 1.334 . S
C3353 H3330 0.950 . S
C3353 C3352 1.334 . S
C3353 C3354 1.287 . S
C3354 C3353 1.287 . S
C3354 C3355 1.524 . S
C3354 H3373 0.913 . S
C3355 H3331 0.950 . S
C3355 C3354 1.524 . S
C3355 C3356 1.415 . S
C3356 H3332 0.950 . S
C3356 C3351 1.363 . S
C3356 C3355 1.415 . S
C3357 H3333 0.951 . S
C3357 C3358 1.366 . S
C3357 C3359 1.388 . S
C3358 C3357 1.366 . S
C3358 C3362 1.385 . S
C3359 H3334 0.951 . S
C3359 C3357 1.388 . S
C3359 C3360 1.366 . S
C3360 C3359 1.366 . S
C3360 C3361 1.414 . S
C3360 C3363 1.499 . S
C3361 H3335 0.950 . S
C3361 C3360 1.414 . S
C3361 C3362 1.374 . S
C3362 H3336 0.950 . S
C3362 C3358 1.385 . S
C3362 C3361 1.374 . S
C3363 C3360 1.499 . S
C3363 C3364 1.373 . S
C3363 C3365 1.389 . S
C3364 H3337 0.950 . S
C3364 C3350 1.377 . S
C3364 C3363 1.373 . S
C3365 C3349 1.377 . S
C3365 C3363 1.389 . S
C3365 C3366 1.524 . S
C3366 C3365 1.524 . S
C3366 C3367 1.397 . S
C3366 C3371 1.363 . S
C3367 H3338 0.950 . S
C3367 C3366 1.397 . S
C3367 C3368 1.334 . S
C3368 H3339 0.950 . S
C3368 C3367 1.334 . S
C3368 C3369 1.287 . S
C3369 C3368 1.287 . S
C3369 C3370 1.524 . S
C3369 H3372 0.999 . S
C3370 H3340 0.950 . S
C3370 C3369 1.524 . S
C3370 C3371 1.415 . S
C3371 H3341 0.950 . S
C3371 C3366 1.363 . S
C3371 C3370 1.415 . S
H3372 C3369 0.999 . S
H3373 C3354 0.913 . S
H3374 C3392 0.951 . S
H3375 C3394 0.951 . S
H3376 C3396 0.950 . S
H3377 C3397 0.950 . S
H3378 C3399 0.950 . S
H3379 C3402 0.950 . S
H3380 C3403 0.950 . S
H3381 C3405 0.950 . S
H3382 C3406 0.950 . S
H3383 C3407 0.951 . S
H3384 C3409 0.951 . S
H3385 C3411 0.950 . S
H3386 C3412 0.950 . S
H3387 C3414 0.950 . S
H3388 C3417 0.950 . S
H3389 C3418 0.950 . S
H3390 C3420 0.950 . S
H3391 C3421 0.950 . S
C3392 H3374 0.951 . S
C3392 C3393 1.366 . S
C3392 C3394 1.388 . S
C3393 C3392 1.366 . S
C3393 C3397 1.385 . S
C3394 H3375 0.951 . S
C3394 C3392 1.388 . S
C3394 C3395 1.366 . S
C3395 C3394 1.366 . S
C3395 C3396 1.414 . S
C3395 C3398 1.499 . S
C3396 H3376 0.950 . S
C3396 C3395 1.414 . S
C3396 C3397 1.374 . S
C3397 H3377 0.950 . S
C3397 C3393 1.385 . S
C3397 C3396 1.374 . S
C3398 C3395 1.499 . S
C3398 C3399 1.373 . S
C3398 C3400 1.389 . S
C3399 H3378 0.950 . S
C3399 C3398 1.373 . S
C3399 C3415 1.377 . S
C3400 C3398 1.389 . S
C3400 C3401 1.524 . S
C3400 C3414 1.377 . S
C3401 C3400 1.524 . S
C3401 C3402 1.397 . S
C3401 C3406 1.363 . S
C3402 H3379 0.950 . S
C3402 C3401 1.397 . S
C3402 C3403 1.334 . S
C3403 H3380 0.950 . S
C3403 C3402 1.334 . S
C3403 C3404 1.287 . S
C3404 C3403 1.287 . S
C3404 C3405 1.524 . S
C3404 H3423 0.913 . S
C3405 H3381 0.950 . S
C3405 C3404 1.524 . S
C3405 C3406 1.415 . S
C3406 H3382 0.950 . S
C3406 C3401 1.363 . S
C3406 C3405 1.415 . S
C3407 H3383 0.951 . S
C3407 C3408 1.366 . S
C3407 C3409 1.388 . S
C3408 C3407 1.366 . S
C3408 C3412 1.385 . S
C3409 H3384 0.951 . S
C3409 C3407 1.388 . S
C3409 C3410 1.366 . S
C3410 C3409 1.366 . S
C3410 C3411 1.414 . S
C3410 C3413 1.499 . S
C3411 H3385 0.950 . S
C3411 C3410 1.414 . S
C3411 C3412 1.374 . S
C3412 H3386 0.950 . S
C3412 C3408 1.385 . S
C3412 C3411 1.374 . S
C3413 C3410 1.499 . S
C3413 C3414 1.373 . S
C3413 C3415 1.389 . S
C3414 H3387 0.950 . S
C3414 C3400 1.377 . S
C3414 C3413 1.373 . S
C3415 C3399 1.377 . S
C3415 C3413 1.389 . S
C3415 C3416 1.524 . S
C3416 C3415 1.524 . S
C3416 C3417 1.397 . S
C3416 C3421 1.363 . S
C3417 H3388 0.950 . S
C3417 C3416 1.397 . S
C3417 C3418 1.334 . S
C3418 H3389 0.950 . S
C3418 C3417 1.334 . S
C3418 C3419 1.287 . S
C3419 C3418 1.287 . S
C3419 C3420 1.524 . S
C3419 H3422 0.999 . S
C3420 H3390 0.950 . S
C3420 C3419 1.524 . S
C3420 C3421 1.415 . S
C3421 H3391 0.950 . S
C3421 C3416 1.363 . S
C3421 C3420 1.415 . S
H3422 C3419 0.999 . S
H3423 C3404 0.913 . S
H3424 C3442 0.951 . S
H3425 C3444 0.951 . S
H3426 C3446 0.950 . S
H3427 C3447 0.950 . S
H3428 C3449 0.950 . S
H3429 C3452 0.950 . S
H3430 C3453 0.950 . S
H3431 C3455 0.950 . S
H3432 C3456 0.950 . S
H3433 C3457 0.951 . S
H3434 C3459 0.951 . S
H3435 C3461 0.950 . S
H3436 C3462 0.950 . S
H3437 C3464 0.950 . S
H3438 C3467 0.950 . S
H3439 C3468 0.950 . S
H3440 C3470 0.950 . S
H3441 C3471 0.950 . S
C3442 H3424 0.951 . S
C3442 C3443 1.366 . S
C3442 C3444 1.388 . S
C3443 C3442 1.366 . S
C3443 C3447 1.385 . S
C3444 H3425 0.951 . S
C3444 C3442 1.388 . S
C3444 C3445 1.366 . S
C3445 C3444 1.366 . S
C3445 C3446 1.414 . S
C3445 C3448 1.499 . S
C3446 H3426 0.950 . S
C3446 C3445 1.414 . S
C3446 C3447 1.374 . S
C3447 H3427 0.950 . S
C3447 C3443 1.385 . S
C3447 C3446 1.374 . S
C3448 C3445 1.499 . S
C3448 C3449 1.373 . S
C3448 C3450 1.389 . S
C3449 H3428 0.950 . S
C3449 C3448 1.373 . S
C3449 C3465 1.377 . S
C3450 C3448 1.389 . S
C3450 C3451 1.524 . S
C3450 C3464 1.377 . S
C3451 C3450 1.524 . S
C3451 C3452 1.397 . S
C3451 C3456 1.363 . S
C3452 H3429 0.950 . S
C3452 C3451 1.397 . S
C3452 C3453 1.334 . S
C3453 H3430 0.950 . S
C3453 C3452 1.334 . S
C3453 C3454 1.287 . S
C3454 C3453 1.287 . S
C3454 C3455 1.524 . S
C3454 H3473 0.913 . S
C3455 H3431 0.950 . S
C3455 C3454 1.524 . S
C3455 C3456 1.415 . S
C3456 H3432 0.950 . S
C3456 C3451 1.363 . S
C3456 C3455 1.415 . S
C3457 H3433 0.951 . S
C3457 C3458 1.366 . S
C3457 C3459 1.388 . S
C3458 C3457 1.366 . S
C3458 C3462 1.385 . S
C3459 H3434 0.951 . S
C3459 C3457 1.388 . S
C3459 C3460 1.366 . S
C3460 C3459 1.366 . S
C3460 C3461 1.414 . S
C3460 C3463 1.499 . S
C3461 H3435 0.950 . S
C3461 C3460 1.414 . S
C3461 C3462 1.374 . S
C3462 H3436 0.950 . S
C3462 C3458 1.385 . S
C3462 C3461 1.374 . S
C3463 C3460 1.499 . S
C3463 C3464 1.373 . S
C3463 C3465 1.389 . S
C3464 H3437 0.950 . S
C3464 C3450 1.377 . S
C3464 C3463 1.373 . S
C3465 C3449 1.377 . S
C3465 C3463 1.389 . S
C3465 C3466 1.524 . S
C3466 C3465 1.524 . S
C3466 C3467 1.397 . S
C3466 C3471 1.363 . S
C3467 H3438 0.950 . S
C3467 C3466 1.397 . S
C3467 C3468 1.334 . S
C3468 H3439 0.950 . S
C3468 C3467 1.334 . S
C3468 C3469 1.287 . S
C3469 C3468 1.287 . S
C3469 C3470 1.524 . S
C3469 H3472 0.999 . S
C3470 H3440 0.950 . S
C3470 C3469 1.524 . S
C3470 C3471 1.415 . S
C3471 H3441 0.950 . S
C3471 C3466 1.363 . S
C3471 C3470 1.415 . S
H3472 C3469 0.999 . S
H3473 C3454 0.913 . S
H3474 C3492 0.951 . S
H3475 C3494 0.951 . S
H3476 C3496 0.950 . S
H3477 C3497 0.950 . S
H3478 C3499 0.950 . S
H3479 C3502 0.950 . S
H3480 C3503 0.950 . S
H3481 C3505 0.950 . S
H3482 C3506 0.950 . S
H3483 C3507 0.951 . S
H3484 C3509 0.951 . S
H3485 C3511 0.950 . S
H3486 C3512 0.950 . S
H3487 C3514 0.950 . S
H3488 C3517 0.950 . S
H3489 C3518 0.950 . S
H3490 C3520 0.950 . S
H3491 C3521 0.950 . S
C3492 H3474 0.951 . S
C3492 C3493 1.366 . S
C3492 C3494 1.388 . S
C3493 C3492 1.366 . S
C3493 C3497 1.385 . S
C3494 H3475 0.951 . S
C3494 C3492 1.388 . S
C3494 C3495 1.366 . S
C3495 C3494 1.366 . S
C3495 C3496 1.414 . S
C3495 C3498 1.499 . S
C3496 H3476 0.950 . S
C3496 C3495 1.414 . S
C3496 C3497 1.374 . S
C3497 H3477 0.950 . S
C3497 C3493 1.385 . S
C3497 C3496 1.374 . S
C3498 C3495 1.499 . S
C3498 C3499 1.373 . S
C3498 C3500 1.389 . S
C3499 H3478 0.950 . S
C3499 C3498 1.373 . S
C3499 C3515 1.377 . S
C3500 C3498 1.389 . S
C3500 C3501 1.524 . S
C3500 C3514 1.377 . S
C3501 C3500 1.524 . S
C3501 C3502 1.397 . S
C3501 C3506 1.363 . S
C3502 H3479 0.950 . S
C3502 C3501 1.397 . S
C3502 C3503 1.334 . S
C3503 H3480 0.950 . S
C3503 C3502 1.334 . S
C3503 C3504 1.287 . S
C3504 C3503 1.287 . S
C3504 C3505 1.524 . S
C3504 H3523 0.913 . S
C3505 H3481 0.950 . S
C3505 C3504 1.524 . S
C3505 C3506 1.415 . S
C3506 H3482 0.950 . S
C3506 C3501 1.363 . S
C3506 C3505 1.415 . S
C3507 H3483 0.951 . S
C3507 C3508 1.366 . S
C3507 C3509 1.388 . S
C3508 C3507 1.366 . S
C3508 C3512 1.385 . S
C3509 H3484 0.951 . S
C3509 C3507 1.388 . S
C3509 C3510 1.366 . S
C3510 C3509 1.366 . S
C3510 C3511 1.414 . S
C3510 C3513 1.499 . S
C3511 H3485 0.950 . S
C3511 C3510 1.414 . S
C3511 C3512 1.374 . S
C3512 H3486 0.950 . S
C3512 C3508 1.385 . S
C3512 C3511 1.374 . S
C3513 C3510 1.499 . S
C3513 C3514 1.373 . S
C3513 C3515 1.389 . S
C3514 H3487 0.950 . S
C3514 C3500 1.377 . S
C3514 C3513 1.373 . S
C3515 C3499 1.377 . S
C3515 C3513 1.389 . S
C3515 C3516 1.524 . S
C3516 C3515 1.524 . S
C3516 C3517 1.397 . S
C3516 C3521 1.363 . S
C3517 H3488 0.950 . S
C3517 C3516 1.397 . S
C3517 C3518 1.334 . S
C3518 H3489 0.950 . S
C3518 C3517 1.334 . S
C3518 C3519 1.287 . S
C3519 C3518 1.287 . S
C3519 C3520 1.524 . S
C3519 H3522 0.999 . S
C3520 H3490 0.950 . S
C3520 C3519 1.524 . S
C3520 C3521 1.415 . S
C3521 H3491 0.950 . S
C3521 C3516 1.363 . S
C3521 C3520 1.415 . S
H3522 C3519 0.999 . S
H3523 C3504 0.913 . S
H3524 C3542 0.951 . S
H3525 C3544 0.951 . S
H3526 C3546 0.950 . S
H3527 C3547 0.950 . S
H3528 C3549 0.950 . S
H3529 C3552 0.950 . S
H3530 C3553 0.950 . S
H3531 C3555 0.950 . S
H3532 C3556 0.950 . S
H3533 C3557 0.951 . S
H3534 C3559 0.951 . S
H3535 C3561 0.950 . S
H3536 C3562 0.950 . S
H3537 C3564 0.950 . S
H3538 C3567 0.950 . S
H3539 C3568 0.950 . S
H3540 C3570 0.950 . S
H3541 C3571 0.950 . S
C3542 H3524 0.951 . S
C3542 C3543 1.366 . S
C3542 C3544 1.388 . S
C3543 C3542 1.366 . S
C3543 C3547 1.385 . S
C3544 H3525 0.951 . S
C3544 C3542 1.388 . S
C3544 C3545 1.366 . S
C3545 C3544 1.366 . S
C3545 C3546 1.414 . S
C3545 C3548 1.499 . S
C3546 H3526 0.950 . S
C3546 C3545 1.414 . S
C3546 C3547 1.374 . S
C3547 H3527 0.950 . S
C3547 C3543 1.385 . S
C3547 C3546 1.374 . S
C3548 C3545 1.499 . S
C3548 C3549 1.373 . S
C3548 C3550 1.389 . S
C3549 H3528 0.950 . S
C3549 C3548 1.373 . S
C3549 C3565 1.377 . S
C3550 C3548 1.389 . S
C3550 C3551 1.524 . S
C3550 C3564 1.377 . S
C3551 C3550 1.524 . S
C3551 C3552 1.397 . S
C3551 C3556 1.363 . S
C3552 H3529 0.950 . S
C3552 C3551 1.397 . S
C3552 C3553 1.334 . S
C3553 H3530 0.950 . S
C3553 C3552 1.334 . S
C3553 C3554 1.287 . S
C3554 C3553 1.287 . S
C3554 C3555 1.524 . S
C3554 H3573 0.913 . S
C3555 H3531 0.950 . S
C3555 C3554 1.524 . S
C3555 C3556 1.415 . S
C3556 H3532 0.950 . S
C3556 C3551 1.363 . S
C3556 C3555 1.415 . S
C3557 H3533 0.951 . S
C3557 C3558 1.366 . S
C3557 C3559 1.388 . S
C3558 C3557 1.366 . S
C3558 C3562 1.385 . S
C3559 H3534 0.951 . S
C3559 C3557 1.388 . S
C3559 C3560 1.366 . S
C3560 C3559 1.366 . S
C3560 C3561 1.414 . S
C3560 C3563 1.499 . S
C3561 H3535 0.950 . S
C3561 C3560 1.414 . S
C3561 C3562 1.374 . S
C3562 H3536 0.950 . S
C3562 C3558 1.385 . S
C3562 C3561 1.374 . S
C3563 C3560 1.499 . S
C3563 C3564 1.373 . S
C3563 C3565 1.389 . S
C3564 H3537 0.950 . S
C3564 C3550 1.377 . S
C3564 C3563 1.373 . S
C3565 C3549 1.377 . S
C3565 C3563 1.389 . S
C3565 C3566 1.524 . S
C3566 C3565 1.524 . S
C3566 C3567 1.397 . S
C3566 C3571 1.363 . S
C3567 H3538 0.950 . S
C3567 C3566 1.397 . S
C3567 C3568 1.334 . S
C3568 H3539 0.950 . S
C3568 C3567 1.334 . S
C3568 C3569 1.287 . S
C3569 C3568 1.287 . S
C3569 C3570 1.524 . S
C3569 H3572 0.999 . S
C3570 H3540 0.950 . S
C3570 C3569 1.524 . S
C3570 C3571 1.415 . S
C3571 H3541 0.950 . S
C3571 C3566 1.363 . S
C3571 C3570 1.415 . S
H3572 C3569 0.999 . S
H3573 C3554 0.913 . S
H3574 C3592 0.951 . S
H3575 C3594 0.951 . S
H3576 C3596 0.950 . S
H3577 C3597 0.950 . S
H3578 C3599 0.950 . S
H3579 C3602 0.950 . S
H3580 C3603 0.950 . S
H3581 C3605 0.950 . S
H3582 C3606 0.950 . S
H3583 C3607 0.951 . S
H3584 C3609 0.951 . S
H3585 C3611 0.950 . S
H3586 C3612 0.950 . S
H3587 C3614 0.950 . S
H3588 C3617 0.950 . S
H3589 C3618 0.950 . S
H3590 C3620 0.950 . S
H3591 C3621 0.950 . S
C3592 H3574 0.951 . S
C3592 C3593 1.366 . S
C3592 C3594 1.388 . S
C3593 C3592 1.366 . S
C3593 C3597 1.385 . S
C3594 H3575 0.951 . S
C3594 C3592 1.388 . S
C3594 C3595 1.366 . S
C3595 C3594 1.366 . S
C3595 C3596 1.414 . S
C3595 C3598 1.499 . S
C3596 H3576 0.950 . S
C3596 C3595 1.414 . S
C3596 C3597 1.374 . S
C3597 H3577 0.950 . S
C3597 C3593 1.385 . S
C3597 C3596 1.374 . S
C3598 C3595 1.499 . S
C3598 C3599 1.373 . S
C3598 C3600 1.389 . S
C3599 H3578 0.950 . S
C3599 C3598 1.373 . S
C3599 C3615 1.377 . S
C3600 C3598 1.389 . S
C3600 C3601 1.524 . S
C3600 C3614 1.377 . S
C3601 C3600 1.524 . S
C3601 C3602 1.397 . S
C3601 C3606 1.363 . S
C3602 H3579 0.950 . S
C3602 C3601 1.397 . S
C3602 C3603 1.334 . S
C3603 H3580 0.950 . S
C3603 C3602 1.334 . S
C3603 C3604 1.287 . S
C3604 C3603 1.287 . S
C3604 C3605 1.524 . S
C3604 H3623 0.913 . S
C3605 H3581 0.950 . S
C3605 C3604 1.524 . S
C3605 C3606 1.415 . S
C3606 H3582 0.950 . S
C3606 C3601 1.363 . S
C3606 C3605 1.415 . S
C3607 H3583 0.951 . S
C3607 C3608 1.366 . S
C3607 C3609 1.388 . S
C3608 C3607 1.366 . S
C3608 C3612 1.385 . S
C3609 H3584 0.951 . S
C3609 C3607 1.388 . S
C3609 C3610 1.366 . S
C3610 C3609 1.366 . S
C3610 C3611 1.414 . S
C3610 C3613 1.499 . S
C3611 H3585 0.950 . S
C3611 C3610 1.414 . S
C3611 C3612 1.374 . S
C3612 H3586 0.950 . S
C3612 C3608 1.385 . S
C3612 C3611 1.374 . S
C3613 C3610 1.499 . S
C3613 C3614 1.373 . S
C3613 C3615 1.389 . S
C3614 H3587 0.950 . S
C3614 C3600 1.377 . S
C3614 C3613 1.373 . S
C3615 C3599 1.377 . S
C3615 C3613 1.389 . S
C3615 C3616 1.524 . S
C3616 C3615 1.524 . S
C3616 C3617 1.397 . S
C3616 C3621 1.363 . S
C3617 H3588 0.950 . S
C3617 C3616 1.397 . S
C3617 C3618 1.334 . S
C3618 H3589 0.950 . S
C3618 C3617 1.334 . S
C3618 C3619 1.287 . S
C3619 C3618 1.287 . S
C3619 C3620 1.524 . S
C3619 H3622 0.999 . S
C3620 H3590 0.950 . S
C3620 C3619 1.524 . S
C3620 C3621 1.415 . S
C3621 H3591 0.950 . S
C3621 C3616 1.363 . S
C3621 C3620 1.415 . S
H3622 C3619 0.999 . S
H3623 C3604 0.913 . S
H3624 C3642 0.951 . S
H3625 C3644 0.951 . S
H3626 C3646 0.950 . S
H3627 C3647 0.950 . S
H3628 C3649 0.950 . S
H3629 C3652 0.950 . S
H3630 C3653 0.950 . S
H3631 C3655 0.950 . S
H3632 C3656 0.950 . S
H3633 C3657 0.951 . S
H3634 C3659 0.951 . S
H3635 C3661 0.950 . S
H3636 C3662 0.950 . S
H3637 C3664 0.950 . S
H3638 C3667 0.950 . S
H3639 C3668 0.950 . S
H3640 C3670 0.950 . S
H3641 C3671 0.950 . S
C3642 H3624 0.951 . S
C3642 C3643 1.366 . S
C3642 C3644 1.388 . S
C3643 C3642 1.366 . S
C3643 C3647 1.385 . S
C3644 H3625 0.951 . S
C3644 C3642 1.388 . S
C3644 C3645 1.366 . S
C3645 C3644 1.366 . S
C3645 C3646 1.414 . S
C3645 C3648 1.499 . S
C3646 H3626 0.950 . S
C3646 C3645 1.414 . S
C3646 C3647 1.374 . S
C3647 H3627 0.950 . S
C3647 C3643 1.385 . S
C3647 C3646 1.374 . S
C3648 C3645 1.499 . S
C3648 C3649 1.373 . S
C3648 C3650 1.389 . S
C3649 H3628 0.950 . S
C3649 C3648 1.373 . S
C3649 C3665 1.377 . S
C3650 C3648 1.389 . S
C3650 C3651 1.524 . S
C3650 C3664 1.377 . S
C3651 C3650 1.524 . S
C3651 C3652 1.397 . S
C3651 C3656 1.363 . S
C3652 H3629 0.950 . S
C3652 C3651 1.397 . S
C3652 C3653 1.334 . S
C3653 H3630 0.950 . S
C3653 C3652 1.334 . S
C3653 C3654 1.287 . S
C3654 C3653 1.287 . S
C3654 C3655 1.524 . S
C3654 H3673 0.913 . S
C3655 H3631 0.950 . S
C3655 C3654 1.524 . S
C3655 C3656 1.415 . S
C3656 H3632 0.950 . S
C3656 C3651 1.363 . S
C3656 C3655 1.415 . S
C3657 H3633 0.951 . S
C3657 C3658 1.366 . S
C3657 C3659 1.388 . S
C3658 C3657 1.366 . S
C3658 C3662 1.385 . S
C3659 H3634 0.951 . S
C3659 C3657 1.388 . S
C3659 C3660 1.366 . S
C3660 C3659 1.366 . S
C3660 C3661 1.414 . S
C3660 C3663 1.499 . S
C3661 H3635 0.950 . S
C3661 C3660 1.414 . S
C3661 C3662 1.374 . S
C3662 H3636 0.950 . S
C3662 C3658 1.385 . S
C3662 C3661 1.374 . S
C3663 C3660 1.499 . S
C3663 C3664 1.373 . S
C3663 C3665 1.389 . S
C3664 H3637 0.950 . S
C3664 C3650 1.377 . S
C3664 C3663 1.373 . S
C3665 C3649 1.377 . S
C3665 C3663 1.389 . S
C3665 C3666 1.524 . S
C3666 C3665 1.524 . S
C3666 C3667 1.397 . S
C3666 C3671 1.363 . S
C3667 H3638 0.950 . S
C3667 C3666 1.397 . S
C3667 C3668 1.334 . S
C3668 H3639 0.950 . S
C3668 C3667 1.334 . S
C3668 C3669 1.287 . S
C3669 C3668 1.287 . S
C3669 C3670 1.524 . S
C3669 H3672 0.999 . S
C3670 H3640 0.950 . S
C3670 C3669 1.524 . S
C3670 C3671 1.415 . S
C3671 H3641 0.950 . S
C3671 C3666 1.363 . S
C3671 C3670 1.415 . S
H3672 C3669 0.999 . S
H3673 C3654 0.913 . S
H3674 C3692 0.951 . S
H3675 C3694 0.951 . S
H3676 C3696 0.950 . S
H3677 C3697 0.950 . S
H3678 C3699 0.950 . S
H3679 C3702 0.950 . S
H3680 C3703 0.950 . S
H3681 C3705 0.950 . S
H3682 C3706 0.950 . S
H3683 C3707 0.951 . S
H3684 C3709 0.951 . S
H3685 C3711 0.950 . S
H3686 C3712 0.950 . S
H3687 C3714 0.950 . S
H3688 C3717 0.950 . S
H3689 C3718 0.950 . S
H3690 C3720 0.950 . S
H3691 C3721 0.950 . S
C3692 H3674 0.951 . S
C3692 C3693 1.366 . S
C3692 C3694 1.388 . S
C3693 C3692 1.366 . S
C3693 C3697 1.385 . S
C3694 H3675 0.951 . S
C3694 C3692 1.388 . S
C3694 C3695 1.366 . S
C3695 C3694 1.366 . S
C3695 C3696 1.414 . S
C3695 C3698 1.499 . S
C3696 H3676 0.950 . S
C3696 C3695 1.414 . S
C3696 C3697 1.374 . S
C3697 H3677 0.950 . S
C3697 C3693 1.385 . S
C3697 C3696 1.374 . S
C3698 C3695 1.499 . S
C3698 C3699 1.373 . S
C3698 C3700 1.389 . S
C3699 H3678 0.950 . S
C3699 C3698 1.373 . S
C3699 C3715 1.377 . S
C3700 C3698 1.389 . S
C3700 C3701 1.524 . S
C3700 C3714 1.377 . S
C3701 C3700 1.524 . S
C3701 C3702 1.397 . S
C3701 C3706 1.363 . S
C3702 H3679 0.950 . S
C3702 C3701 1.397 . S
C3702 C3703 1.334 . S
C3703 H3680 0.950 . S
C3703 C3702 1.334 . S
C3703 C3704 1.287 . S
C3704 C3703 1.287 . S
C3704 C3705 1.524 . S
C3704 H3723 0.913 . S
C3705 H3681 0.950 . S
C3705 C3704 1.524 . S
C3705 C3706 1.415 . S
C3706 H3682 0.950 . S
C3706 C3701 1.363 . S
C3706 C3705 1.415 . S
C3707 H3683 0.951 . S
C3707 C3708 1.366 . S
C3707 C3709 1.388 . S
C3708 C3707 1.366 . S
C3708 C3712 1.385 . S
C3709 H3684 0.951 . S
C3709 C3707 1.388 . S
C3709 C3710 1.366 . S
C3710 C3709 1.366 . S
C3710 C3711 1.414 . S
C3710 C3713 1.499 . S
C3711 H3685 0.950 . S
C3711 C3710 1.414 . S
C3711 C3712 1.374 . S
C3712 H3686 0.950 . S
C3712 C3708 1.385 . S
C3712 C3711 1.374 . S
C3713 C3710 1.499 . S
C3713 C3714 1.373 . S
C3713 C3715 1.389 . S
C3714 H3687 0.950 . S
C3714 C3700 1.377 . S
C3714 C3713 1.373 . S
C3715 C3699 1.377 . S
C3715 C3713 1.389 . S
C3715 C3716 1.524 . S
C3716 C3715 1.524 . S
C3716 C3717 1.397 . S
C3716 C3721 1.363 . S
C3717 H3688 0.950 . S
C3717 C3716 1.397 . S
C3717 C3718 1.334 . S
C3718 H3689 0.950 . S
C3718 C3717 1.334 . S
C3718 C3719 1.287 . S
C3719 C3718 1.287 . S
C3719 C3720 1.524 . S
C3719 H3722 0.999 . S
C3720 H3690 0.950 . S
C3720 C3719 1.524 . S
C3720 C3721 1.415 . S
C3721 H3691 0.950 . S
C3721 C3716 1.363 . S
C3721 C3720 1.415 . S
H3722 C3719 0.999 . S
H3723 C3704 0.913 . S
H3724 C3742 0.951 . S
H3725 C3744 0.951 . S
H3726 C3746 0.950 . S
H3727 C3747 0.950 . S
H3728 C3749 0.950 . S
H3729 C3752 0.950 . S
H3730 C3753 0.950 . S
H3731 C3755 0.950 . S
H3732 C3756 0.950 . S
H3733 C3757 0.951 . S
H3734 C3759 0.951 . S
H3735 C3761 0.950 . S
H3736 C3762 0.950 . S
H3737 C3764 0.950 . S
H3738 C3767 0.950 . S
H3739 C3768 0.950 . S
H3740 C3770 0.950 . S
H3741 C3771 0.950 . S
C3742 H3724 0.951 . S
C3742 C3743 1.366 . S
C3742 C3744 1.388 . S
C3743 C3742 1.366 . S
C3743 C3747 1.385 . S
C3744 H3725 0.951 . S
C3744 C3742 1.388 . S
C3744 C3745 1.366 . S
C3745 C3744 1.366 . S
C3745 C3746 1.414 . S
C3745 C3748 1.499 . S
C3746 H3726 0.950 . S
C3746 C3745 1.414 . S
C3746 C3747 1.374 . S
C3747 H3727 0.950 . S
C3747 C3743 1.385 . S
C3747 C3746 1.374 . S
C3748 C3745 1.499 . S
C3748 C3749 1.373 . S
C3748 C3750 1.389 . S
C3749 H3728 0.950 . S
C3749 C3748 1.373 . S
C3749 C3765 1.377 . S
C3750 C3748 1.389 . S
C3750 C3751 1.524 . S
C3750 C3764 1.377 . S
C3751 C3750 1.524 . S
C3751 C3752 1.397 . S
C3751 C3756 1.363 . S
C3752 H3729 0.950 . S
C3752 C3751 1.397 . S
C3752 C3753 1.334 . S
C3753 H3730 0.950 . S
C3753 C3752 1.334 . S
C3753 C3754 1.287 . S
C3754 C3753 1.287 . S
C3754 C3755 1.524 . S
C3754 H3773 0.913 . S
C3755 H3731 0.950 . S
C3755 C3754 1.524 . S
C3755 C3756 1.415 . S
C3756 H3732 0.950 . S
C3756 C3751 1.363 . S
C3756 C3755 1.415 . S
C3757 H3733 0.951 . S
C3757 C3758 1.366 . S
C3757 C3759 1.388 . S
C3758 C3757 1.366 . S
C3758 C3762 1.385 . S
C3759 H3734 0.951 . S
C3759 C3757 1.388 . S
C3759 C3760 1.366 . S
C3760 C3759 1.366 . S
C3760 C3761 1.414 . S
C3760 C3763 1.499 . S
C3761 H3735 0.950 . S
C3761 C3760 1.414 . S
C3761 C3762 1.374 . S
C3762 H3736 0.950 . S
C3762 C3758 1.385 . S
C3762 C3761 1.374 . S
C3763 C3760 1.499 . S
C3763 C3764 1.373 . S
C3763 C3765 1.389 . S
C3764 H3737 0.950 . S
C3764 C3750 1.377 . S
C3764 C3763 1.373 . S
C3765 C3749 1.377 . S
C3765 C3763 1.389 . S
C3765 C3766 1.524 . S
C3766 C3765 1.524 . S
C3766 C3767 1.397 . S
C3766 C3771 1.363 . S
C3767 H3738 0.950 . S
C3767 C3766 1.397 . S
C3767 C3768 1.334 . S
C3768 H3739 0.950 . S
C3768 C3767 1.334 . S
C3768 C3769 1.287 . S
C3769 C3768 1.287 . S
C3769 C3770 1.524 . S
C3769 H3772 0.999 . S
C3770 H3740 0.950 . S
C3770 C3769 1.524 . S
C3770 C3771 1.415 . S
C3771 H3741 0.950 . S
C3771 C3766 1.363 . S
C3771 C3770 1.415 . S
H3772 C3769 0.999 . S
H3773 C3754 0.913 . S
H3774 C3792 0.951 . S
H3775 C3794 0.951 . S
H3776 C3796 0.950 . S
H3777 C3797 0.950 . S
H3778 C3799 0.950 . S
H3779 C3802 0.950 . S
H3780 C3803 0.950 . S
H3781 C3805 0.950 . S
H3782 C3806 0.950 . S
H3783 C3807 0.951 . S
H3784 C3809 0.951 . S
H3785 C3811 0.950 . S
H3786 C3812 0.950 . S
H3787 C3814 0.950 . S
H3788 C3817 0.950 . S
H3789 C3818 0.950 . S
H3790 C3820 0.950 . S
H3791 C3821 0.950 . S
C3792 H3774 0.951 . S
C3792 C3793 1.366 . S
C3792 C3794 1.388 . S
C3793 C3792 1.366 . S
C3793 C3797 1.385 . S
C3794 H3775 0.951 . S
C3794 C3792 1.388 . S
C3794 C3795 1.366 . S
C3795 C3794 1.366 . S
C3795 C3796 1.414 . S
C3795 C3798 1.499 . S
C3796 H3776 0.950 . S
C3796 C3795 1.414 . S
C3796 C3797 1.374 . S
C3797 H3777 0.950 . S
C3797 C3793 1.385 . S
C3797 C3796 1.374 . S
C3798 C3795 1.499 . S
C3798 C3799 1.373 . S
C3798 C3800 1.389 . S
C3799 H3778 0.950 . S
C3799 C3798 1.373 . S
C3799 C3815 1.377 . S
C3800 C3798 1.389 . S
C3800 C3801 1.524 . S
C3800 C3814 1.377 . S
C3801 C3800 1.524 . S
C3801 C3802 1.397 . S
C3801 C3806 1.363 . S
C3802 H3779 0.950 . S
C3802 C3801 1.397 . S
C3802 C3803 1.334 . S
C3803 H3780 0.950 . S
C3803 C3802 1.334 . S
C3803 C3804 1.287 . S
C3804 C3803 1.287 . S
C3804 C3805 1.524 . S
C3804 H3823 0.913 . S
C3805 H3781 0.950 . S
C3805 C3804 1.524 . S
C3805 C3806 1.415 . S
C3806 H3782 0.950 . S
C3806 C3801 1.363 . S
C3806 C3805 1.415 . S
C3807 H3783 0.951 . S
C3807 C3808 1.366 . S
C3807 C3809 1.388 . S
C3808 C3807 1.366 . S
C3808 C3812 1.385 . S
C3809 H3784 0.951 . S
C3809 C3807 1.388 . S
C3809 C3810 1.366 . S
C3810 C3809 1.366 . S
C3810 C3811 1.414 . S
C3810 C3813 1.499 . S
C3811 H3785 0.950 . S
C3811 C3810 1.414 . S
C3811 C3812 1.374 . S
C3812 H3786 0.950 . S
C3812 C3808 1.385 . S
C3812 C3811 1.374 . S
C3813 C3810 1.499 . S
C3813 C3814 1.373 . S
C3813 C3815 1.389 . S
C3814 H3787 0.950 . S
C3814 C3800 1.377 . S
C3814 C3813 1.373 . S
C3815 C3799 1.377 . S
C3815 C3813 1.389 . S
C3815 C3816 1.524 . S
C3816 C3815 1.524 . S
C3816 C3817 1.397 . S
C3816 C3821 1.363 . S
C3817 H3788 0.950 . S
C3817 C3816 1.397 . S
C3817 C3818 1.334 . S
C3818 H3789 0.950 . S
C3818 C3817 1.334 . S
C3818 C3819 1.287 . S
C3819 C3818 1.287 . S
C3819 C3820 1.524 . S
C3819 H3822 0.999 . S
C3820 H3790 0.950 . S
C3820 C3819 1.524 . S
C3820 C3821 1.415 . S
C3821 H3791 0.950 . S
C3821 C3816 1.363 . S
C3821 C3820 1.415 . S
H3822 C3819 0.999 . S
H3823 C3804 0.913 . S
H3824 C3842 0.951 . S
H3825 C3844 0.951 . S
H3826 C3846 0.950 . S
H3827 C3847 0.950 . S
H3828 C3849 0.950 . S
H3829 C3852 0.950 . S
H3830 C3853 0.950 . S
H3831 C3855 0.950 . S
H3832 C3856 0.950 . S
H3833 C3857 0.951 . S
H3834 C3859 0.951 . S
H3835 C3861 0.950 . S
H3836 C3862 0.950 . S
H3837 C3864 0.950 . S
H3838 C3867 0.950 . S
H3839 C3868 0.950 . S
H3840 C3870 0.950 . S
H3841 C3871 0.950 . S
C3842 H3824 0.951 . S
C3842 C3843 1.366 . S
C3842 C3844 1.388 . S
C3843 C3842 1.366 . S
C3843 C3847 1.385 . S
C3844 H3825 0.951 . S
C3844 C3842 1.388 . S
C3844 C3845 1.366 . S
C3845 C3844 1.366 . S
C3845 C3846 1.414 . S
C3845 C3848 1.499 . S
C3846 H3826 0.950 . S
C3846 C3845 1.414 . S
C3846 C3847 1.374 . S
C3847 H3827 0.950 . S
C3847 C3843 1.385 . S
C3847 C3846 1.374 . S
C3848 C3845 1.499 . S
C3848 C3849 1.373 . S
C3848 C3850 1.389 . S
C3849 H3828 0.950 . S
C3849 C3848 1.373 . S
C3849 C3865 1.377 . S
C3850 C3848 1.389 . S
C3850 C3851 1.524 . S
C3850 C3864 1.377 . S
C3851 C3850 1.524 . S
C3851 C3852 1.397 . S
C3851 C3856 1.363 . S
C3852 H3829 0.950 . S
C3852 C3851 1.397 . S
C3852 C3853 1.334 . S
C3853 H3830 0.950 . S
C3853 C3852 1.334 . S
C3853 C3854 1.287 . S
C3854 C3853 1.287 . S
C3854 C3855 1.524 . S
C3854 H3873 0.913 . S
C3855 H3831 0.950 . S
C3855 C3854 1.524 . S
C3855 C3856 1.415 . S
C3856 H3832 0.950 . S
C3856 C3851 1.363 . S
C3856 C3855 1.415 . S
C3857 H3833 0.951 . S
C3857 C3858 1.366 . S
C3857 C3859 1.388 . S
C3858 C3857 1.366 . S
C3858 C3862 1.385 . S
C3859 H3834 0.951 . S
C3859 C3857 1.388 . S
C3859 C3860 1.366 . S
C3860 C3859 1.366 . S
C3860 C3861 1.414 . S
C3860 C3863 1.499 . S
C3861 H3835 0.950 . S
C3861 C3860 1.414 . S
C3861 C3862 1.374 . S
C3862 H3836 0.950 . S
C3862 C3858 1.385 . S
C3862 C3861 1.374 . S
C3863 C3860 1.499 . S
C3863 C3864 1.373 . S
C3863 C3865 1.389 . S
C3864 H3837 0.950 . S
C3864 C3850 1.377 . S
C3864 C3863 1.373 . S
C3865 C3849 1.377 . S
C3865 C3863 1.389 . S
C3865 C3866 1.524 . S
C3866 C3865 1.524 . S
C3866 C3867 1.397 . S
C3866 C3871 1.363 . S
C3867 H3838 0.950 . S
C3867 C3866 1.397 . S
C3867 C3868 1.334 . S
C3868 H3839 0.950 . S
C3868 C3867 1.334 . S
C3868 C3869 1.287 . S
C3869 C3868 1.287 . S
C3869 C3870 1.524 . S
C3869 H3872 0.999 . S
C3870 H3840 0.950 . S
C3870 C3869 1.524 . S
C3870 C3871 1.415 . S
C3871 H3841 0.950 . S
C3871 C3866 1.363 . S
C3871 C3870 1.415 . S
H3872 C3869 0.999 . S
H3873 C3854 0.913 . S
H3874 C3892 0.951 . S
H3875 C3894 0.951 . S
H3876 C3896 0.950 . S
H3877 C3897 0.950 . S
H3878 C3899 0.950 . S
H3879 C3902 0.950 . S
H3880 C3903 0.950 . S
H3881 C3905 0.950 . S
H3882 C3906 0.950 . S
H3883 C3907 0.951 . S
H3884 C3909 0.951 . S
H3885 C3911 0.950 . S
H3886 C3912 0.950 . S
H3887 C3914 0.950 . S
H3888 C3917 0.950 . S
H3889 C3918 0.950 . S
H3890 C3920 0.950 . S
H3891 C3921 0.950 . S
C3892 H3874 0.951 . S
C3892 C3893 1.366 . S
C3892 C3894 1.388 . S
C3893 C3892 1.366 . S
C3893 C3897 1.385 . S
C3894 H3875 0.951 . S
C3894 C3892 1.388 . S
C3894 C3895 1.366 . S
C3895 C3894 1.366 . S
C3895 C3896 1.414 . S
C3895 C3898 1.499 . S
C3896 H3876 0.950 . S
C3896 C3895 1.414 . S
C3896 C3897 1.374 . S
C3897 H3877 0.950 . S
C3897 C3893 1.385 . S
C3897 C3896 1.374 . S
C3898 C3895 1.499 . S
C3898 C3899 1.373 . S
C3898 C3900 1.389 . S
C3899 H3878 0.950 . S
C3899 C3898 1.373 . S
C3899 C3915 1.377 . S
C3900 C3898 1.389 . S
C3900 C3901 1.524 . S
C3900 C3914 1.377 . S
C3901 C3900 1.524 . S
C3901 C3902 1.397 . S
C3901 C3906 1.363 . S
C3902 H3879 0.950 . S
C3902 C3901 1.397 . S
C3902 C3903 1.334 . S
C3903 H3880 0.950 . S
C3903 C3902 1.334 . S
C3903 C3904 1.287 . S
C3904 C3903 1.287 . S
C3904 C3905 1.524 . S
C3904 H3923 0.913 . S
C3905 H3881 0.950 . S
C3905 C3904 1.524 . S
C3905 C3906 1.415 . S
C3906 H3882 0.950 . S
C3906 C3901 1.363 . S
C3906 C3905 1.415 . S
C3907 H3883 0.951 . S
C3907 C3908 1.366 . S
C3907 C3909 1.388 . S
C3908 C3907 1.366 . S
C3908 C3912 1.385 . S
C3909 H3884 0.951 . S
C3909 C3907 1.388 . S
C3909 C3910 1.366 . S
C3910 C3909 1.366 . S
C3910 C3911 1.414 . S
C3910 C3913 1.499 . S
C3911 H3885 0.950 . S
C3911 C3910 1.414 . S
C3911 C3912 1.374 . S
C3912 H3886 0.950 . S
C3912 C3908 1.385 . S
C3912 C3911 1.374 . S
C3913 C3910 1.499 . S
C3913 C3914 1.373 . S
C3913 C3915 1.389 . S
C3914 H3887 0.950 . S
C3914 C3900 1.377 . S
C3914 C3913 1.373 . S
C3915 C3899 1.377 . S
C3915 C3913 1.389 . S
C3915 C3916 1.524 . S
C3916 C3915 1.524 . S
C3916 C3917 1.397 . S
C3916 C3921 1.363 . S
C3917 H3888 0.950 . S
C3917 C3916 1.397 . S
C3917 C3918 1.334 . S
C3918 H3889 0.950 . S
C3918 C3917 1.334 . S
C3918 C3919 1.287 . S
C3919 C3918 1.287 . S
C3919 C3920 1.524 . S
C3919 H3922 0.999 . S
C3920 H3890 0.950 . S
C3920 C3919 1.524 . S
C3920 C3921 1.415 . S
C3921 H3891 0.950 . S
C3921 C3916 1.363 . S
C3921 C3920 1.415 . S
H3922 C3919 0.999 . S
H3923 C3904 0.913 . S
H3924 C3942 0.951 . S
H3925 C3944 0.951 . S
H3926 C3946 0.950 . S
H3927 C3947 0.950 . S
H3928 C3949 0.950 . S
H3929 C3952 0.950 . S
H3930 C3953 0.950 . S
H3931 C3955 0.950 . S
H3932 C3956 0.950 . S
H3933 C3957 0.951 . S
H3934 C3959 0.951 . S
H3935 C3961 0.950 . S
H3936 C3962 0.950 . S
H3937 C3964 0.950 . S
H3938 C3967 0.950 . S
H3939 C3968 0.950 . S
H3940 C3970 0.950 . S
H3941 C3971 0.950 . S
C3942 H3924 0.951 . S
C3942 C3943 1.366 . S
C3942 C3944 1.388 . S
C3943 C3942 1.366 . S
C3943 C3947 1.385 . S
C3944 H3925 0.951 . S
C3944 C3942 1.388 . S
C3944 C3945 1.366 . S
C3945 C3944 1.366 . S
C3945 C3946 1.414 . S
C3945 C3948 1.499 . S
C3946 H3926 0.950 . S
C3946 C3945 1.414 . S
C3946 C3947 1.374 . S
C3947 H3927 0.950 . S
C3947 C3943 1.385 . S
C3947 C3946 1.374 . S
C3948 C3945 1.499 . S
C3948 C3949 1.373 . S
C3948 C3950 1.389 . S
C3949 H3928 0.950 . S
C3949 C3948 1.373 . S
C3949 C3965 1.377 . S
C3950 C3948 1.389 . S
C3950 C3951 1.524 . S
C3950 C3964 1.377 . S
C3951 C3950 1.524 . S
C3951 C3952 1.397 . S
C3951 C3956 1.363 . S
C3952 H3929 0.950 . S
C3952 C3951 1.397 . S
C3952 C3953 1.334 . S
C3953 H3930 0.950 . S
C3953 C3952 1.334 . S
C3953 C3954 1.287 . S
C3954 C3953 1.287 . S
C3954 C3955 1.524 . S
C3954 H3973 0.913 . S
C3955 H3931 0.950 . S
C3955 C3954 1.524 . S
C3955 C3956 1.415 . S
C3956 H3932 0.950 . S
C3956 C3951 1.363 . S
C3956 C3955 1.415 . S
C3957 H3933 0.951 . S
C3957 C3958 1.366 . S
C3957 C3959 1.388 . S
C3958 C3957 1.366 . S
C3958 C3962 1.385 . S
C3959 H3934 0.951 . S
C3959 C3957 1.388 . S
C3959 C3960 1.366 . S
C3960 C3959 1.366 . S
C3960 C3961 1.414 . S
C3960 C3963 1.499 . S
C3961 H3935 0.950 . S
C3961 C3960 1.414 . S
C3961 C3962 1.374 . S
C3962 H3936 0.950 . S
C3962 C3958 1.385 . S
C3962 C3961 1.374 . S
C3963 C3960 1.499 . S
C3963 C3964 1.373 . S
C3963 C3965 1.389 . S
C3964 H3937 0.950 . S
C3964 C3950 1.377 . S
C3964 C3963 1.373 . S
C3965 C3949 1.377 . S
C3965 C3963 1.389 . S
C3965 C3966 1.524 . S
C3966 C3965 1.524 . S
C3966 C3967 1.397 . S
C3966 C3971 1.363 . S
C3967 H3938 0.950 . S
C3967 C3966 1.397 . S
C3967 C3968 1.334 . S
C3968 H3939 0.950 . S
C3968 C3967 1.334 . S
C3968 C3969 1.287 . S
C3969 C3968 1.287 . S
C3969 C3970 1.524 . S
C3969 H3972 0.999 . S
C3970 H3940 0.950 . S
C3970 C3969 1.524 . S
C3970 C3971 1.415 . S
C3971 H3941 0.950 . S
C3971 C3966 1.363 . S
C3971 C3970 1.415 . S
H3972 C3969 0.999 . S
H3973 C3954 0.913 . S
H3974 C3992 0.951 . S
H3975 C3994 0.951 . S
H3976 C3996 0.950 . S
H3977 C3997 0.950 . S
H3978 C3999 0.950 . S
H3979 C4002 0.950 . S
H3980 C4003 0.950 . S
H3981 C4005 0.950 . S
H3982 C4006 0.950 . S
H3983 C4007 0.951 . S
H3984 C4009 0.951 . S
H3985 C4011 0.950 . S
H3986 C4012 0.950 . S
H3987 C4014 0.950 . S
H3988 C4017 0.950 . S
H3989 C4018 0.950 . S
H3990 C4020 0.950 . S
H3991 C4021 0.950 . S
C3992 H3974 0.951 . S
C3992 C3993 1.366 . S
C3992 C3994 1.388 . S
C3993 C3992 1.366 . S
C3993 C3997 1.385 . S
C3994 H3975 0.951 . S
C3994 C3992 1.388 . S
C3994 C3995 1.366 . S
C3995 C3994 1.366 . S
C3995 C3996 1.414 . S
C3995 C3998 1.499 . S
C3996 H3976 0.950 . S
C3996 C3995 1.414 . S
C3996 C3997 1.374 . S
C3997 H3977 0.950 . S
C3997 C3993 1.385 . S
C3997 C3996 1.374 . S
C3998 C3995 1.499 . S
C3998 C3999 1.373 . S
C3998 C4000 1.389 . S
C3999 H3978 0.950 . S
C3999 C3998 1.373 . S
C3999 C4015 1.377 . S
C4000 C3998 1.389 . S
C4000 C4001 1.524 . S
C4000 C4014 1.377 . S
C4001 C4000 1.524 . S
C4001 C4002 1.397 . S
C4001 C4006 1.363 . S
C4002 H3979 0.950 . S
C4002 C4001 1.397 . S
C4002 C4003 1.334 . S
C4003 H3980 0.950 . S
C4003 C4002 1.334 . S
C4003 C4004 1.287 . S
C4004 C4003 1.287 . S
C4004 C4005 1.524 . S
C4004 H4023 0.913 . S
C4005 H3981 0.950 . S
C4005 C4004 1.524 . S
C4005 C4006 1.415 . S
C4006 H3982 0.950 . S
C4006 C4001 1.363 . S
C4006 C4005 1.415 . S
C4007 H3983 0.951 . S
C4007 C4008 1.366 . S
C4007 C4009 1.388 . S
C4008 C4007 1.366 . S
C4008 C4012 1.385 . S
C4009 H3984 0.951 . S
C4009 C4007 1.388 . S
C4009 C4010 1.366 . S
C4010 C4009 1.366 . S
C4010 C4011 1.414 . S
C4010 C4013 1.499 . S
C4011 H3985 0.950 . S
C4011 C4010 1.414 . S
C4011 C4012 1.374 . S
C4012 H3986 0.950 . S
C4012 C4008 1.385 . S
C4012 C4011 1.374 . S
C4013 C4010 1.499 . S
C4013 C4014 1.373 . S
C4013 C4015 1.389 . S
C4014 H3987 0.950 . S
C4014 C4000 1.377 . S
C4014 C4013 1.373 . S
C4015 C3999 1.377 . S
C4015 C4013 1.389 . S
C4015 C4016 1.524 . S
C4016 C4015 1.524 . S
C4016 C4017 1.397 . S
C4016 C4021 1.363 . S
C4017 H3988 0.950 . S
C4017 C4016 1.397 . S
C4017 C4018 1.334 . S
C4018 H3989 0.950 . S
C4018 C4017 1.334 . S
C4018 C4019 1.287 . S
C4019 C4018 1.287 . S
C4019 C4020 1.524 . S
C4019 H4022 0.999 . S
C4020 H3990 0.950 . S
C4020 C4019 1.524 . S
C4020 C4021 1.415 . S
C4021 H3991 0.950 . S
C4021 C4016 1.363 . S
C4021 C4020 1.415 . S
H4022 C4019 0.999 . S
H4023 C4004 0.913 . S
H4024 C4042 0.951 . S
H4025 C4044 0.951 . S
H4026 C4046 0.950 . S
H4027 C4047 0.950 . S
H4028 C4049 0.950 . S
H4029 C4052 0.950 . S
H4030 C4053 0.950 . S
H4031 C4055 0.950 . S
H4032 C4056 0.950 . S
H4033 C4057 0.951 . S
H4034 C4059 0.951 . S
H4035 C4061 0.950 . S
H4036 C4062 0.950 . S
H4037 C4064 0.950 . S
H4038 C4067 0.950 . S
H4039 C4068 0.950 . S
H4040 C4070 0.950 . S
H4041 C4071 0.950 . S
C4042 H4024 0.951 . S
C4042 C4043 1.366 . S
C4042 C4044 1.388 . S
C4043 C4042 1.366 . S
C4043 C4047 1.385 . S
C4044 H4025 0.951 . S
C4044 C4042 1.388 . S
C4044 C4045 1.366 . S
C4045 C4044 1.366 . S
C4045 C4046 1.414 . S
C4045 C4048 1.499 . S
C4046 H4026 0.950 . S
C4046 C4045 1.414 . S
C4046 C4047 1.374 . S
C4047 H4027 0.950 . S
C4047 C4043 1.385 . S
C4047 C4046 1.374 . S
C4048 C4045 1.499 . S
C4048 C4049 1.373 . S
C4048 C4050 1.389 . S
C4049 H4028 0.950 . S
C4049 C4048 1.373 . S
C4049 C4065 1.377 . S
C4050 C4048 1.389 . S
C4050 C4051 1.524 . S
C4050 C4064 1.377 . S
C4051 C4050 1.524 . S
C4051 C4052 1.397 . S
C4051 C4056 1.363 . S
C4052 H4029 0.950 . S
C4052 C4051 1.397 . S
C4052 C4053 1.334 . S
C4053 H4030 0.950 . S
C4053 C4052 1.334 . S
C4053 C4054 1.287 . S
C4054 C4053 1.287 . S
C4054 C4055 1.524 . S
C4054 H4073 0.913 . S
C4055 H4031 0.950 . S
C4055 C4054 1.524 . S
C4055 C4056 1.415 . S
C4056 H4032 0.950 . S
C4056 C4051 1.363 . S
C4056 C4055 1.415 . S
C4057 H4033 0.951 . S
C4057 C4058 1.366 . S
C4057 C4059 1.388 . S
C4058 C4057 1.366 . S
C4058 C4062 1.385 . S
C4059 H4034 0.951 . S
C4059 C4057 1.388 . S
C4059 C4060 1.366 . S
C4060 C4059 1.366 . S
C4060 C4061 1.414 . S
C4060 C4063 1.499 . S
C4061 H4035 0.950 . S
C4061 C4060 1.414 . S
C4061 C4062 1.374 . S
C4062 H4036 0.950 . S
C4062 C4058 1.385 . S
C4062 C4061 1.374 . S
C4063 C4060 1.499 . S
C4063 C4064 1.373 . S
C4063 C4065 1.389 . S
C4064 H4037 0.950 . S
C4064 C4050 1.377 . S
C4064 C4063 1.373 . S
C4065 C4049 1.377 . S
C4065 C4063 1.389 . S
C4065 C4066 1.524 . S
C4066 C4065 1.524 . S
C4066 C4067 1.397 . S
C4066 C4071 1.363 . S
C4067 H4038 0.950 . S
C4067 C4066 1.397 . S
C4067 C4068 1.334 . S
C4068 H4039 0.950 . S
C4068 C4067 1.334 . S
C4068 C4069 1.287 . S
C4069 C4068 1.287 . S
C4069 C4070 1.524 . S
C4069 H4072 0.999 . S
C4070 H4040 0.950 . S
C4070 C4069 1.524 . S
C4070 C4071 1.415 . S
C4071 H4041 0.950 . S
C4071 C4066 1.363 . S
C4071 C4070 1.415 . S
H4072 C4069 0.999 . S
H4073 C4054 0.913 . S
H4074 C4092 0.951 . S
H4075 C4094 0.951 . S
H4076 C4096 0.950 . S
H4077 C4097 0.950 . S
H4078 C4099 0.950 . S
H4079 C4102 0.950 . S
H4080 C4103 0.950 . S
H4081 C4105 0.950 . S
H4082 C4106 0.950 . S
H4083 C4107 0.951 . S
H4084 C4109 0.951 . S
H4085 C4111 0.950 . S
H4086 C4112 0.950 . S
H4087 C4114 0.950 . S
H4088 C4117 0.950 . S
H4089 C4118 0.950 . S
H4090 C4120 0.950 . S
H4091 C4121 0.950 . S
C4092 H4074 0.951 . S
C4092 C4093 1.366 . S
C4092 C4094 1.388 . S
C4093 C4092 1.366 . S
C4093 C4097 1.385 . S
C4094 H4075 0.951 . S
C4094 C4092 1.388 . S
C4094 C4095 1.366 . S
C4095 C4094 1.366 . S
C4095 C4096 1.414 . S
C4095 C4098 1.499 . S
C4096 H4076 0.950 . S
C4096 C4095 1.414 . S
C4096 C4097 1.374 . S
C4097 H4077 0.950 . S
C4097 C4093 1.385 . S
C4097 C4096 1.374 . S
C4098 C4095 1.499 . S
C4098 C4099 1.373 . S
C4098 C4100 1.389 . S
C4099 H4078 0.950 . S
C4099 C4098 1.373 . S
C4099 C4115 1.377 . S
C4100 C4098 1.389 . S
C4100 C4101 1.524 . S
C4100 C4114 1.377 . S
C4101 C4100 1.524 . S
C4101 C4102 1.397 . S
C4101 C4106 1.363 . S
C4102 H4079 0.950 . S
C4102 C4101 1.397 . S
C4102 C4103 1.334 . S
C4103 H4080 0.950 . S
C4103 C4102 1.334 . S
C4103 C4104 1.287 . S
C4104 C4103 1.287 . S
C4104 C4105 1.524 . S
C4104 H4123 0.913 . S
C4105 H4081 0.950 . S
C4105 C4104 1.524 . S
C4105 C4106 1.415 . S
C4106 H4082 0.950 . S
C4106 C4101 1.363 . S
C4106 C4105 1.415 . S
C4107 H4083 0.951 . S
C4107 C4108 1.366 . S
C4107 C4109 1.388 . S
C4108 C4107 1.366 . S
C4108 C4112 1.385 . S
C4109 H4084 0.951 . S
C4109 C4107 1.388 . S
C4109 C4110 1.366 . S
C4110 C4109 1.366 . S
C4110 C4111 1.414 . S
C4110 C4113 1.499 . S
C4111 H4085 0.950 . S
C4111 C4110 1.414 . S
C4111 C4112 1.374 . S
C4112 H4086 0.950 . S
C4112 C4108 1.385 . S
C4112 C4111 1.374 . S
C4113 C4110 1.499 . S
C4113 C4114 1.373 . S
C4113 C4115 1.389 . S
C4114 H4087 0.950 . S
C4114 C4100 1.377 . S
C4114 C4113 1.373 . S
C4115 C4099 1.377 . S
C4115 C4113 1.389 . S
C4115 C4116 1.524 . S
C4116 C4115 1.524 . S
C4116 C4117 1.397 . S
C4116 C4121 1.363 . S
C4117 H4088 0.950 . S
C4117 C4116 1.397 . S
C4117 C4118 1.334 . S
C4118 H4089 0.950 . S
C4118 C4117 1.334 . S
C4118 C4119 1.287 . S
C4119 C4118 1.287 . S
C4119 C4120 1.524 . S
C4119 H4122 0.999 . S
C4120 H4090 0.950 . S
C4120 C4119 1.524 . S
C4120 C4121 1.415 . S
C4121 H4091 0.950 . S
C4121 C4116 1.363 . S
C4121 C4120 1.415 . S
H4122 C4119 0.999 . S
H4123 C4104 0.913 . S
H4124 C4142 0.951 . S
H4125 C4144 0.951 . S
H4126 C4146 0.950 . S
H4127 C4147 0.950 . S
H4128 C4149 0.950 . S
H4129 C4152 0.950 . S
H4130 C4153 0.950 . S
H4131 C4155 0.950 . S
H4132 C4156 0.950 . S
H4133 C4157 0.951 . S
H4134 C4159 0.951 . S
H4135 C4161 0.950 . S
H4136 C4162 0.950 . S
H4137 C4164 0.950 . S
H4138 C4167 0.950 . S
H4139 C4168 0.950 . S
H4140 C4170 0.950 . S
H4141 C4171 0.950 . S
C4142 H4124 0.951 . S
C4142 C4143 1.366 . S
C4142 C4144 1.388 . S
C4143 C4142 1.366 . S
C4143 C4147 1.385 . S
C4144 H4125 0.951 . S
C4144 C4142 1.388 . S
C4144 C4145 1.366 . S
C4145 C4144 1.366 . S
C4145 C4146 1.414 . S
C4145 C4148 1.499 . S
C4146 H4126 0.950 . S
C4146 C4145 1.414 . S
C4146 C4147 1.374 . S
C4147 H4127 0.950 . S
C4147 C4143 1.385 . S
C4147 C4146 1.374 . S
C4148 C4145 1.499 . S
C4148 C4149 1.373 . S
C4148 C4150 1.389 . S
C4149 H4128 0.950 . S
C4149 C4148 1.373 . S
C4149 C4165 1.377 . S
C4150 C4148 1.389 . S
C4150 C4151 1.524 . S
C4150 C4164 1.377 . S
C4151 C4150 1.524 . S
C4151 C4152 1.397 . S
C4151 C4156 1.363 . S
C4152 H4129 0.950 . S
C4152 C4151 1.397 . S
C4152 C4153 1.334 . S
C4153 H4130 0.950 . S
C4153 C4152 1.334 . S
C4153 C4154 1.287 . S
C4154 C4153 1.287 . S
C4154 C4155 1.524 . S
C4154 H4173 0.913 . S
C4155 H4131 0.950 . S
C4155 C4154 1.524 . S
C4155 C4156 1.415 . S
C4156 H4132 0.950 . S
C4156 C4151 1.363 . S
C4156 C4155 1.415 . S
C4157 H4133 0.951 . S
C4157 C4158 1.366 . S
C4157 C4159 1.388 . S
C4158 C4157 1.366 . S
C4158 C4162 1.385 . S
C4159 H4134 0.951 . S
C4159 C4157 1.388 . S
C4159 C4160 1.366 . S
C4160 C4159 1.366 . S
C4160 C4161 1.414 . S
C4160 C4163 1.499 . S
C4161 H4135 0.950 . S
C4161 C4160 1.414 . S
C4161 C4162 1.374 . S
C4162 H4136 0.950 . S
C4162 C4158 1.385 . S
C4162 C4161 1.374 . S
C4163 C4160 1.499 . S
C4163 C4164 1.373 . S
C4163 C4165 1.389 . S
C4164 H4137 0.950 . S
C4164 C4150 1.377 . S
C4164 C4163 1.373 . S
C4165 C4149 1.377 . S
C4165 C4163 1.389 . S
C4165 C4166 1.524 . S
C4166 C4165 1.524 . S
C4166 C4167 1.397 . S
C4166 C4171 1.363 . S
C4167 H4138 0.950 . S
C4167 C4166 1.397 . S
C4167 C4168 1.334 . S
C4168 H4139 0.950 . S
C4168 C4167 1.334 . S
C4168 C4169 1.287 . S
C4169 C4168 1.287 . S
C4169 C4170 1.524 . S
C4169 H4172 0.999 . S
C4170 H4140 0.950 . S
C4170 C4169 1.524 . S
C4170 C4171 1.415 . S
C4171 H4141 0.950 . S
C4171 C4166 1.363 . S
C4171 C4170 1.415 . S
H4172 C4169 0.999 . S
H4173 C4154 0.913 . S
H4174 C4192 0.951 . S
H4175 C4194 0.951 . S
H4176 C4196 0.950 . S
H4177 C4197 0.950 . S
H4178 C4199 0.950 . S
H4179 C4202 0.950 . S
H4180 C4203 0.950 . S
H4181 C4205 0.950 . S
H4182 C4206 0.950 . S
H4183 C4207 0.951 . S
H4184 C4209 0.951 . S
H4185 C4211 0.950 . S
H4186 C4212 0.950 . S
H4187 C4214 0.950 . S
H4188 C4217 0.950 . S
H4189 C4218 0.950 . S
H4190 C4220 0.950 . S
H4191 C4221 0.950 . S
C4192 H4174 0.951 . S
C4192 C4193 1.366 . S
C4192 C4194 1.388 . S
C4193 C4192 1.366 . S
C4193 C4197 1.385 . S
C4194 H4175 0.951 . S
C4194 C4192 1.388 . S
C4194 C4195 1.366 . S
C4195 C4194 1.366 . S
C4195 C4196 1.414 . S
C4195 C4198 1.499 . S
C4196 H4176 0.950 . S
C4196 C4195 1.414 . S
C4196 C4197 1.374 . S
C4197 H4177 0.950 . S
C4197 C4193 1.385 . S
C4197 C4196 1.374 . S
C4198 C4195 1.499 . S
C4198 C4199 1.373 . S
C4198 C4200 1.389 . S
C4199 H4178 0.950 . S
C4199 C4198 1.373 . S
C4199 C4215 1.377 . S
C4200 C4198 1.389 . S
C4200 C4201 1.524 . S
C4200 C4214 1.377 . S
C4201 C4200 1.524 . S
C4201 C4202 1.397 . S
C4201 C4206 1.363 . S
C4202 H4179 0.950 . S
C4202 C4201 1.397 . S
C4202 C4203 1.334 . S
C4203 H4180 0.950 . S
C4203 C4202 1.334 . S
C4203 C4204 1.287 . S
C4204 C4203 1.287 . S
C4204 C4205 1.524 . S
C4204 H4223 0.913 . S
C4205 H4181 0.950 . S
C4205 C4204 1.524 . S
C4205 C4206 1.415 . S
C4206 H4182 0.950 . S
C4206 C4201 1.363 . S
C4206 C4205 1.415 . S
C4207 H4183 0.951 . S
C4207 C4208 1.366 . S
C4207 C4209 1.388 . S
C4208 C4207 1.366 . S
C4208 C4212 1.385 . S
C4209 H4184 0.951 . S
C4209 C4207 1.388 . S
C4209 C4210 1.366 . S
C4210 C4209 1.366 . S
C4210 C4211 1.414 . S
C4210 C4213 1.499 . S
C4211 H4185 0.950 . S
C4211 C4210 1.414 . S
C4211 C4212 1.374 . S
C4212 H4186 0.950 . S
C4212 C4208 1.385 . S
C4212 C4211 1.374 . S
C4213 C4210 1.499 . S
C4213 C4214 1.373 . S
C4213 C4215 1.389 . S
C4214 H4187 0.950 . S
C4214 C4200 1.377 . S
C4214 C4213 1.373 . S
C4215 C4199 1.377 . S
C4215 C4213 1.389 . S
C4215 C4216 1.524 . S
C4216 C4215 1.524 . S
C4216 C4217 1.397 . S
C4216 C4221 1.363 . S
C4217 H4188 0.950 . S
C4217 C4216 1.397 . S
C4217 C4218 1.334 . S
C4218 H4189 0.950 . S
C4218 C4217 1.334 . S
C4218 C4219 1.287 . S
C4219 C4218 1.287 . S
C4219 C4220 1.524 . S
C4219 H4222 0.999 . S
C4220 H4190 0.950 . S
C4220 C4219 1.524 . S
C4220 C4221 1.415 . S
C4221 H4191 0.950 . S
C4221 C4216 1.363 . S
C4221 C4220 1.415 . S
H4222 C4219 0.999 . S
H4223 C4204 0.913 . S
C658 C354 1.143 . S
C643 N300 1.167 . S
C693 N278 1.461 . S
C708 C348 1.415 . S
C758 C316 1.555 . S
C743 N265 1.614 . S
C793 N287 1.356 . S
C808 C330 1.302 . S
C858 C368 1.753 . S
C843 N213 1.818 . S
C908 C455 1.200 . S
C893 N226 1.201 . S
C943 N239 1.859 . S
C958 C382 1.807 . S
C1008 C450 1.097 . S
C993 N252 1.095 . S
C1043 N161 1.881 . S
C1058 C406 1.826 . S
C1108 C461 1.523 . S
C1093 N174 1.544 . S
C1143 N187 1.796 . S
C1158 C400 1.756 . S
C1193 N200 0.904 . S
C1208 C446 0.905 . S
C1258 C502 0.938 . S
C1243 N144 0.933 . S
C1293 N122 1.613 . S
C1308 C513 1.623 . S
C1343 N109 1.299 . S
C1358 C498 1.294 . S
C1408 C507 1.417 . S
C1393 N131 1.414 1_554 S
C1443 N57 1.293 . S
C1458 C552 1.259 . S
C1493 N70 0.439 . S
C1508 C611 0.419 . S
C1543 N83 1.473 . S
C1558 C568 1.425 . S
C1593 N96 1.044 . S
C1608 C606 1.047 . S
C1658 C570 1.415 . S
C1643 N5 1.472 . S
C1708 C617 0.610 . S
C1693 N18 0.607 . S
C1743 N31 1.305 . S
C1758 C546 1.279 . S
C1808 C602 0.779 . S
C1793 N44 0.779 . S
C1858 C338 1.206 . S
C1843 N2 1.231 . S
C1893 N15 1.233 . S
C1908 C342 1.247 . S
C1943 N27 1.761 . S
C1958 C362 1.661 . S
C1993 N41 0.708 . S
C2008 C357 0.705 . S
C2043 N54 1.293 . S
C2058 C360 1.267 . S
C2108 C346 0.958 . S
C2093 N67 0.946 . S
C2143 N79 1.692 . S
C2158 C344 1.618 . S
C2208 C351 0.937 . S
C2193 N93 0.933 . S
C2258 C414 1.606 . S
C2243 N40 1.709 . S
C2293 N1 1.991 . S
C2308 C464 1.863 . S
C2358 C412 1.351 . S
C2343 N14 1.422 . S
C2408 C448 1.354 . S
C2393 N28 1.385 . S
C2443 N66 1.312 . S
C2458 C390 1.254 . S
C2508 C466 1.423 . S
C2493 N80 1.451 . S
C2558 C396 1.568 . S
C2543 N92 1.647 . S
C2608 C442 1.776 . S
C2593 N53 1.867 . S
C2658 C434 1.491 . S
C2643 N106 1.522 . S
C2693 N119 1.309 . S
C2708 C458 1.298 . S
C2758 C394 1.525 . S
C2743 N105 1.550 . S
C2808 C420 1.536 . S
C2793 N135 1.613 1_554 S
C2843 N145 0.895 . S
C2858 C398 0.909 . S
C2893 N148 1.719 . S
C2908 C452 1.649 . S
C2958 C409 1.775 . S
C2943 N118 1.796 . S
C3008 C403 1.267 . S
C2993 N132 1.217 1_554 S
C3058 C486 1.594 . S
C3043 N158 1.624 . S
C3108 C518 1.444 . S
C3093 N171 1.468 . S
C3143 N183 2.089 . S
C3158 C472 2.002 . S
C3208 C516 0.889 . S
C3193 N197 0.897 . S
C3258 C504 1.569 . S
C3243 N210 1.575 . S
C3293 N223 1.118 . S
C3308 C500 1.128 . S
C3343 N235 2.108 . S
C3358 C510 2.018 . S
C3408 C494 1.092 . S
C3393 N249 1.119 . S
C3458 C559 1.467 . S
C3443 N196 1.500 . S
C3493 N157 1.664 . S
C3508 C620 1.571 . S
C3558 C554 1.178 . S
C3543 N170 1.189 . S
C3608 C604 1.151 . S
C3593 N184 1.135 . S
C3658 C550 1.116 . S
C3643 N222 1.124 . S
C3693 N236 1.128 . S
C3708 C622 1.139 . S
C3758 C565 1.443 . S
C3743 N248 1.468 . S
C3808 C598 1.428 . S
C3793 N209 1.488 . S
C3858 C590 1.646 . S
C3843 N262 1.699 . S
C3893 N275 1.790 . S
C3908 C614 1.717 . S
C3958 C556 1.729 . S
C3943 N261 1.804 . S
C3993 N291 2.125 . S
C4008 C576 1.987 . S
C4058 C538 1.250 . S
C4043 N301 1.270 . S
C4108 C608 1.771 . S
C4093 N304 1.865 . S
C4158 C524 1.734 . S
C4143 N274 1.834 . S
C4193 N288 1.189 . S
C4208 C562 1.173 . S
