# Generated by pormake.
# Topology zzz, (3,6)-cn, num edge types: 1
# Building blocks:
#     Node 0, Type 0, BuildingBlock: KAKCAD_clean_linker_0, # of connection points: 3
#     Node 1, Type 0, BuildingBlock: KAKCAD_clean_linker_0, # of connection points: 3
#     Node 2, Type 0, BuildingBlock: KAKCAD_clean_linker_0, # of connection points: 3
#     Node 3, Type 0, BuildingBlock: KAKCAD_clean_linker_0, # of connection points: 3
#     Node 4, Type 0, BuildingBlock: KAKCAD_clean_linker_0, # of connection points: 3
#     Node 5, Type 0, BuildingBlock: KAKCAD_clean_linker_0, # of connection points: 3
#     Node 6, Type 0, BuildingBlock: KAKCAD_clean_linker_0, # of connection points: 3
#     Node 7, Type 0, BuildingBlock: KAKCAD_clean_linker_0, # of connection points: 3
#     Node 8, Type 1, BuildingBlock: BETDEL_clean_sbu_0, # of connection points: 6
#     Node 9, Type 1, BuildingBlock: BETDEL_clean_sbu_0, # of connection points: 6
#     Node 10, Type 1, BuildingBlock: BETDEL_clean_sbu_0, # of connection points: 6
#     Node 11, Type 1, BuildingBlock: BETDEL_clean_sbu_0, # of connection points: 6
#     Edge 12, Type (0, 1), BuildingBlock: TEMPAE_clean_linker_10, # of connection points: 2
#     Edge 13, Type (0, 1), BuildingBlock: TEMPAE_clean_linker_10, # of connection points: 2
#     Edge 14, Type (0, 1), BuildingBlock: TEMPAE_clean_linker_10, # of connection points: 2
#     Edge 15, Type (0, 1), BuildingBlock: TEMPAE_clean_linker_10, # of connection points: 2
#     Edge 16, Type (0, 1), BuildingBlock: TEMPAE_clean_linker_10, # of connection points: 2
#     Edge 17, Type (0, 1), BuildingBlock: TEMPAE_clean_linker_10, # of connection points: 2
#     Edge 18, Type (0, 1), BuildingBlock: TEMPAE_clean_linker_10, # of connection points: 2
#     Edge 19, Type (0, 1), BuildingBlock: TEMPAE_clean_linker_10, # of connection points: 2
#     Edge 20, Type (0, 1), BuildingBlock: TEMPAE_clean_linker_10, # of connection points: 2
#     Edge 21, Type (0, 1), BuildingBlock: TEMPAE_clean_linker_10, # of connection points: 2
#     Edge 22, Type (0, 1), BuildingBlock: TEMPAE_clean_linker_10, # of connection points: 2
#     Edge 23, Type (0, 1), BuildingBlock: TEMPAE_clean_linker_10, # of connection points: 2
#     Edge 24, Type (0, 1), BuildingBlock: TEMPAE_clean_linker_10, # of connection points: 2
#     Edge 25, Type (0, 1), BuildingBlock: TEMPAE_clean_linker_10, # of connection points: 2
#     Edge 26, Type (0, 1), BuildingBlock: TEMPAE_clean_linker_10, # of connection points: 2
#     Edge 27, Type (0, 1), BuildingBlock: TEMPAE_clean_linker_10, # of connection points: 2
#     Edge 28, Type (0, 1), BuildingBlock: TEMPAE_clean_linker_10, # of connection points: 2
#     Edge 29, Type (0, 1), BuildingBlock: TEMPAE_clean_linker_10, # of connection points: 2
#     Edge 30, Type (0, 1), BuildingBlock: TEMPAE_clean_linker_10, # of connection points: 2
#     Edge 31, Type (0, 1), BuildingBlock: TEMPAE_clean_linker_10, # of connection points: 2
#     Edge 32, Type (0, 1), BuildingBlock: TEMPAE_clean_linker_10, # of connection points: 2
#     Edge 33, Type (0, 1), BuildingBlock: TEMPAE_clean_linker_10, # of connection points: 2
#     Edge 34, Type (0, 1), BuildingBlock: TEMPAE_clean_linker_10, # of connection points: 2
#     Edge 35, Type (0, 1), BuildingBlock: TEMPAE_clean_linker_10, # of connection points: 2
# Relax obj value: 0.332
# Max RMSD: 0.227
# Mean RMSD: 0.209
data_MOF--net-zzz--node1-BETDEL_clean_sbu_0--node2-KAKCAD_clean_linker_0--edge1-TEMPAE_clean_linker_10
_symmetry_space_group_name_H-M    P1
_symmetry_Int_Tables_number       1
_symmetry_cell_setting            triclinic
loop_
_symmetry_equiv_pos_as_xyz
'x, y, z'
_cell_length_a     57.513449
_cell_length_b     57.258747
_cell_length_c     20.161156
_cell_angle_alpha  91.271401
_cell_angle_beta   89.438822
_cell_angle_gamma 95.927797
loop_
_atom_site_label
_atom_site_type_symbol
_atom_site_fract_x
_atom_site_fract_y
_atom_site_fract_z
_atom_type_partial_charge
C0 C 0.8073 0.43897 0.83442 0.0
C1 C 0.81801 0.42067 0.86331 0.0
C2 C 0.79024 0.44997 0.86882 0.0
C3 C 0.78355 0.44309 0.93315 0.0
C4 C 0.79247 0.42335 0.95957 0.0
C5 C 0.80946 0.41213 0.92476 0.0
C6 C 0.77075 0.45899 0.97563 0.0
C7 C 0.7524 0.47011 0.94998 0.0
C8 C 0.74352 0.48889 0.98444 0.0
C9 C 0.75285 0.49619 0.04704 0.0
C10 C 0.77104 0.48465 0.07425 0.0
C11 C 0.77962 0.46607 0.038 0.0
C12 C 0.78355 0.49276 0.13633 0.0
C13 C 0.79322 0.51617 0.14478 0.0
C14 C 0.79008 0.47598 0.1805 0.0
C15 C 0.80763 0.48182 0.22708 0.0
C16 C 0.81889 0.50483 0.23227 0.0
C17 C 0.7255 0.50105 0.95067 0.0
C18 C 0.72995 0.50884 0.88568 0.0
C19 C 0.70272 0.5008 0.97661 0.0
C20 C 0.68438 0.50641 0.93618 0.0
C21 C 0.68863 0.51217 0.86928 0.0
C22 C 0.71174 0.51424 0.84541 0.0
C23 C 0.81059 0.52218 0.19253 0.0
H24 H 0.81351 0.44637 0.78775 0.0
H25 H 0.7839 0.46526 0.84729 0.0
H26 H 0.78731 0.41748 0.00877 0.0
H27 H 0.81692 0.39775 0.94782 0.0
H28 H 0.7455 0.46464 0.90156 0.0
H29 H 0.79465 0.45825 0.05625 0.0
H30 H 0.74646 0.51099 0.07332 0.0
H31 H 0.7886 0.52951 0.11147 0.0
H32 H 0.78283 0.4578 0.17556 0.0
H33 H 0.81336 0.46773 0.25564 0.0
H34 H 0.74738 0.50924 0.86455 0.0
H35 H 0.6988 0.49463 0.02628 0.0
H36 H 0.81819 0.54025 0.19613 0.0
H37 H 0.71556 0.51894 0.79439 0.0
H38 H 0.6667 0.50464 0.95578 0.0
C39 C 0.98671 0.79817 0.95266 0.0
C40 C 0.99699 0.81807 0.98797 0.0
C41 C 0.97957 0.77733 0.9856 0.0
C42 C 0.98279 0.77596 0.05431 0.0
C43 C 0.99373 0.79565 0.08887 0.0
C44 C 1.00034 0.81647 0.05649 0.0
C45 C 0.97496 0.75438 0.09135 0.0
C46 C 0.97827 0.73192 0.06629 0.0
C47 C 0.97425 0.71208 0.10666 0.0
C48 C 0.96767 0.7151 0.17387 0.0
C49 C 0.96398 0.73764 0.19851 0.0
C50 C 0.96632 0.75663 0.15586 0.0
C51 C 0.96256 0.744 0.26975 0.0
C52 C 0.94187 0.75217 0.29415 0.0
C53 C 0.98373 0.75214 0.30051 0.0
C54 C 0.98478 0.77102 0.34597 0.0
C55 C 0.96448 0.78167 0.36351 0.0
C56 C 0.97814 0.68871 0.07773 0.0
C57 C 0.96002 0.67027 0.07592 0.0
C58 C 0.99915 0.68578 0.04393 0.0
C59 C 1.00161 0.66539 0.00629 0.0
C60 C 0.98306 0.64742 0.00109 0.0
C61 C 0.9624 0.64986 0.03759 0.0
C62 C 0.94278 0.7706 0.34132 0.0
H63 H 0.98422 0.79863 0.89956 0.0
H64 H 0.97127 0.76247 0.95751 0.0
H65 H 0.99723 0.7951 0.14147 0.0
H66 H 0.0078 0.83142 0.08577 0.0
H67 H 0.98466 0.7299 0.01595 0.0
H68 H 0.96326 0.77388 0.17539 0.0
H69 H 0.96623 0.70032 0.20683 0.0
H70 H 0.92531 0.74634 0.27092 0.0
H71 H 1.0 0.74642 0.28183 0.0
H72 H 1.00192 0.77865 0.36134 0.0
H73 H 0.9436 0.67217 0.1012 0.0
H74 H 0.0134 0.69973 0.04452 0.0
H75 H 0.92657 0.7774 0.35585 0.0
H76 H 0.94785 0.63627 0.03509 0.0
H77 H 0.01766 0.6643 0.97839 0.0
C78 C 0.7299 0.03447 0.87368 0.0
C79 C 0.71387 0.05048 0.8914 0.0
C80 C 0.74464 0.02673 0.92117 0.0
C81 C 0.74358 0.03481 0.98735 0.0
C82 C 0.72879 0.05216 0.0039 0.0
C83 C 0.71409 0.05999 0.95623 0.0
C84 C 0.75571 0.02304 0.0397 0.0
C85 C 0.77839 0.01687 0.02915 0.0
C86 C 0.78868 0.0027 0.074 0.0
C87 C 0.77603 0.99464 0.13091 0.0
C88 C 0.75343 0.00146 0.14296 0.0
C89 C 0.74357 0.01564 0.09732 0.0
C90 C 0.73858 0.99315 0.19992 0.0
C91 C 0.72339 0.97245 0.19279 0.0
C92 C 0.73495 0.00875 0.25289 0.0
C93 C 0.71573 0.00436 0.29583 0.0
C94 C 0.69952 0.98447 0.28588 0.0
C95 C 0.81226 0.99608 0.05679 0.0
C96 C 0.81463 0.97467 0.02335 0.0
C97 C 0.83129 0.01354 0.05746 0.0
C98 C 0.8517 0.01032 0.02155 0.0
C99 C 0.85345 0.98968 0.9834 0.0
C100 C 0.83507 0.97145 0.98713 0.0
C101 C 0.70406 0.96814 0.23531 0.0
H102 H 0.73014 0.027 0.82385 0.0
H103 H 0.75573 0.01325 0.9069 0.0
H104 H 0.72783 0.05889 0.05439 0.0
H105 H 0.70181 0.07227 0.97121 0.0
H106 H 0.78792 0.0226 0.98471 0.0
H107 H 0.7258 0.0199 0.1053 0.0
H108 H 0.78363 0.98329 0.16513 0.0
H109 H 0.72549 0.96046 0.15134 0.0
H110 H 0.74605 0.02514 0.25822 0.0
H111 H 0.71268 0.01738 0.33382 0.0
H112 H 0.79997 0.96119 0.02077 0.0
H113 H 0.82972 0.03034 0.08196 0.0
H114 H 0.69205 0.95255 0.22668 0.0
H115 H 0.83573 0.95539 0.95808 0.0
H116 H 0.86564 0.02456 0.02078 0.0
C117 C 0.51588 0.72145 0.31805 0.0
C118 C 0.53216 0.71071 0.35602 0.0
C119 C 0.52343 0.73909 0.2732 0.0
C120 C 0.54732 0.74664 0.26655 0.0
C121 C 0.56299 0.73865 0.31173 0.0
C122 C 0.55561 0.7207 0.35528 0.0
C123 C 0.5566 0.75417 0.20078 0.0
C124 C 0.55278 0.77556 0.17165 0.0
C125 C 0.56045 0.78007 0.10586 0.0
C126 C 0.57207 0.76308 0.07066 0.0
C127 C 0.57484 0.74127 0.09819 0.0
C128 C 0.56735 0.73733 0.16355 0.0
C129 C 0.58156 0.72108 0.05682 0.0
C130 C 0.57402 0.71814 0.99078 0.0
C131 C 0.59155 0.70244 0.08635 0.0
C132 C 0.59031 0.68035 0.05517 0.0
C133 C 0.58008 0.67668 0.99225 0.0
C134 C 0.55504 0.8014 0.07041 0.0
C135 C 0.54676 0.79905 0.00494 0.0
C136 C 0.55936 0.82406 0.0989 0.0
C137 C 0.55657 0.84396 0.06126 0.0
C138 C 0.54947 0.84147 0.99458 0.0
C139 C 0.54409 0.81877 0.96756 0.0
C140 C 0.57375 0.69632 0.95847 0.0
H141 H 0.49751 0.71504 0.31903 0.0
H142 H 0.51098 0.74485 0.23873 0.0
H143 H 0.58156 0.74403 0.3071 0.0
H144 H 0.56891 0.71323 0.3831 0.0
H145 H 0.54335 0.78814 0.19898 0.0
H146 H 0.5682 0.72022 0.18482 0.0
H147 H 0.57823 0.76659 0.02055 0.0
H148 H 0.56651 0.73201 0.96546 0.0
H149 H 0.59864 0.70433 0.13596 0.0
H150 H 0.59583 0.66594 0.08282 0.0
H151 H 0.54267 0.78184 0.98202 0.0
H152 H 0.56573 0.82641 0.14923 0.0
H153 H 0.56707 0.6946 0.9084 0.0
H154 H 0.53797 0.81623 0.91701 0.0
H155 H 0.56075 0.86125 0.0835 0.0
C156 C 0.21944 0.5912 0.22163 0.0
C157 C 0.2045 0.60295 0.18213 0.0
C158 C 0.23885 0.58193 0.19351 0.0
C159 C 0.24359 0.58415 0.1254 0.0
C160 C 0.23072 0.59879 0.08831 0.0
C161 C 0.21132 0.60815 0.1165 0.0
C162 C 0.25711 0.56666 0.09136 0.0
C163 C 0.27787 0.56022 0.11808 0.0
C164 C 0.28733 0.53971 0.09554 0.0
C165 C 0.27562 0.52548 0.04547 0.0
C166 C 0.25515 0.53232 0.01718 0.0
C167 C 0.24639 0.553 0.03958 0.0
C168 C 0.24037 0.51731 0.97022 0.0
C169 C 0.24224 0.52144 0.90187 0.0
C170 C 0.22003 0.50465 0.99495 0.0
C171 C 0.20109 0.49807 0.95324 0.0
C172 C 0.20222 0.50382 0.88584 0.0
C173 C 0.30817 0.53261 0.12983 0.0
C174 C 0.32792 0.54893 0.13919 0.0
C175 C 0.30733 0.51081 0.16084 0.0
C176 C 0.32535 0.50594 0.20318 0.0
C177 C 0.3447 0.52266 0.21453 0.0
C178 C 0.34604 0.54396 0.18068 0.0
C179 C 0.22337 0.51451 0.85979 0.0
H180 H 0.21479 0.58679 0.27234 0.0
H181 H 0.24838 0.5707 0.22343 0.0
H182 H 0.23428 0.60111 0.03586 0.0
H183 H 0.20049 0.61766 0.08527 0.0
H184 H 0.28595 0.57046 0.15918 0.0
H185 H 0.22987 0.55734 0.02013 0.0
H186 H 0.28211 0.50914 0.0296 0.0
H187 H 0.25748 0.53176 0.88208 0.0
H188 H 0.21797 0.5018 0.04774 0.0
H189 H 0.18501 0.48978 0.97448 0.0
H190 H 0.32896 0.56591 0.11605 0.0
H191 H 0.2922 0.49802 0.15507 0.0
H192 H 0.22462 0.51929 0.80809 0.0
H193 H 0.3606 0.55727 0.18867 0.0
H194 H 0.32393 0.48929 0.22816 0.0
C195 C 0.01187 0.2043 0.18017 0.0
C196 C 0.02665 0.18657 0.18856 0.0
C197 C 0.0198 0.22461 0.14624 0.0
C198 C 0.04251 0.22728 0.11942 0.0
C199 C 0.0577 0.21016 0.13104 0.0
C200 C 0.04988 0.19001 0.16584 0.0
C201 C 0.04881 0.24568 0.07048 0.0
C202 C 0.04567 0.26915 0.08438 0.0
C203 C 0.04844 0.28603 0.03437 0.0
C204 C 0.05417 0.27889 0.96907 0.0
C205 C 0.05747 0.25517 0.95519 0.0
C206 C 0.05517 0.23898 0.00649 0.0
C207 C 0.06009 0.24528 0.88732 0.0
C208 C 0.04041 0.24199 0.84629 0.0
C209 C 0.07901 0.23218 0.87366 0.0
C210 C 0.07717 0.21422 0.82521 0.0
C211 C 0.05634 0.20899 0.78939 0.0
C212 C 0.04456 0.31068 0.05237 0.0
C213 C 0.02507 0.315 0.09156 0.0
C214 C 0.06158 0.32945 0.03928 0.0
C215 C 0.0599 0.3517 0.06882 0.0
C216 C 0.04114 0.35557 0.11196 0.0
C217 C 0.02344 0.33702 0.1212 0.0
C218 C 0.03854 0.224 0.79771 0.0
H219 H 0.99394 0.20205 0.1978 0.0
H220 H 0.00772 0.23749 0.13722 0.0
H221 H 0.07526 0.21187 0.11051 0.0
H222 H 0.06156 0.17652 0.1716 0.0
H223 H 0.04087 0.27421 0.13443 0.0
H224 H 0.05663 0.22055 0.99529 0.0
H225 H 0.05545 0.29144 0.92944 0.0
H226 H 0.02544 0.25159 0.85643 0.0
H227 H 0.09422 0.23413 0.90538 0.0
H228 H 0.09123 0.20308 0.82049 0.0
H229 H 0.01155 0.30092 0.10212 0.0
H230 H 0.07682 0.32662 0.00935 0.0
H231 H 0.02246 0.22079 0.76997 0.0
H232 H 0.00886 0.33897 0.15451 0.0
H233 H 0.07368 0.36562 0.05952 0.0
C234 C 0.29076 0.95419 0.23093 0.0
C235 C 0.31301 0.96638 0.24052 0.0
C236 C 0.27632 0.96056 0.18025 0.0
C237 C 0.28399 0.97911 0.13816 0.0
C238 C 0.30615 0.99134 0.14833 0.0
C239 C 0.3205 0.98498 0.19854 0.0
C240 C 0.26917 0.98602 0.08368 0.0
C241 C 0.24539 0.98812 0.09404 0.0
C242 C 0.2318 0.99686 0.04448 0.0
C243 C 0.24239 0.00366 0.98328 0.0
C244 C 0.26623 1.00087 0.97196 0.0
C245 C 0.27924 0.99194 0.02208 0.0
C246 C 0.27909 0.00789 0.91036 0.0
C247 C 0.28324 0.9906 0.86234 0.0
C248 C 0.29327 0.02936 0.91036 0.0
C249 C 0.31243 0.03276 0.86697 0.0
C250 C 0.31782 0.01473 0.82263 0.0
C251 C 0.20692 0.99937 0.0606 0.0
C252 C 0.19252 0.97974 0.08276 0.0
C253 C 0.19893 0.02167 0.06738 0.0
C254 C 0.17766 0.0244 0.10013 0.0
C255 C 0.16397 0.00486 0.12647 0.0
C256 C 0.17132 0.98241 0.1151 0.0
C257 C 0.30233 0.99406 0.81847 0.0
H258 H 0.28451 0.93982 0.26264 0.0
H259 H 0.25935 0.95077 0.17337 0.0
H260 H 0.31243 0.00596 0.1175 0.0
H261 H 0.3377 0.99447 0.20369 0.0
H262 H 0.23756 0.98386 0.14201 0.0
H263 H 0.29758 0.98995 0.01317 0.0
H264 H 0.23226 0.01085 0.94513 0.0
H265 H 0.27298 0.97364 0.86267 0.0
H266 H 0.29081 0.04271 0.94798 0.0
H267 H 0.32389 0.04897 0.87095 0.0
H268 H 0.1984 0.96238 0.07877 0.0
H269 H 0.20985 0.03712 0.05152 0.0
H270 H 0.30607 0.97978 0.78523 0.0
H271 H 0.16153 0.96696 0.13515 0.0
H272 H 0.17242 0.04192 0.1072 0.0
C273 C 0.45466 0.27244 0.78954 0.0
C274 C 0.47545 0.28766 0.79491 0.0
C275 C 0.44931 0.25475 0.83572 0.0
C276 C 0.46477 0.25171 0.88747 0.0
C277 C 0.48671 0.26496 0.88809 0.0
C278 C 0.49201 0.28279 0.84232 0.0
C279 C 0.45508 0.24262 0.95102 0.0
C280 C 0.45812 0.2202 0.97459 0.0
C281 C 0.44987 0.21375 0.03861 0.0
C282 C 0.43943 0.23027 0.0789 0.0
C283 C 0.43692 0.2528 0.05599 0.0
C284 C 0.4443 0.25849 0.99155 0.0
C285 C 0.43046 0.27192 0.10116 0.0
C286 C 0.41717 0.28921 0.07733 0.0
C287 C 0.44174 0.27578 0.16253 0.0
C288 C 0.44208 0.29757 0.19522 0.0
C289 C 0.43127 0.3158 0.16678 0.0
C290 C 0.45335 0.19059 0.06681 0.0
C291 C 0.43506 0.17808 0.102 0.0
C292 C 0.47546 0.18219 0.06561 0.0
C293 C 0.47951 0.16249 0.10226 0.0
C294 C 0.4615 0.15078 0.14063 0.0
C295 C 0.43906 0.1584 0.1383 0.0
C296 C 0.41776 0.31107 0.10957 0.0
H297 H 0.44173 0.2753 0.75268 0.0
H298 H 0.43209 0.24507 0.835 0.0
H299 H 0.49867 0.26334 0.92856 0.0
H300 H 0.50815 0.29413 0.84837 0.0
H301 H 0.46688 0.20803 0.94373 0.0
H302 H 0.44323 0.27613 0.974 0.0
H303 H 0.43412 0.22594 0.12928 0.0
H304 H 0.40796 0.28653 0.03073 0.0
H305 H 0.45222 0.26288 0.18204 0.0
H306 H 0.45266 0.30082 0.23929 0.0
H307 H 0.41775 0.18397 0.10311 0.0
H308 H 0.48993 0.19159 0.0394 0.0
H309 H 0.40901 0.32479 0.08732 0.0
H310 H 0.42467 0.14949 0.16594 0.0
H311 H 0.49704 0.15717 0.10318 0.0
Dy312 Dy 0.02351 0.98759 0.61844 0.0
C313 C 0.98282 0.03326 0.39843 0.0
C314 C 0.03327 0.96318 0.72706 0.0
Dy315 Dy 0.99536 0.00669 0.49959 0.0
O316 O 0.04112 0.95979 0.66756 0.0
O317 O 0.02055 0.98071 0.72803 0.0
O318 O 0.05886 0.98868 0.56615 0.0
O319 O 0.02991 0.99806 0.51811 0.0
C320 C 0.0512 0.99564 0.5102 0.0
C321 C 0.96964 0.9915 0.60516 0.0
O322 O 0.9956 0.96906 0.46752 0.0
O323 O 1.00196 0.95613 0.57389 0.0
O324 O 0.97454 0.03381 0.45851 0.0
O325 O 0.99728 0.01727 0.39284 0.0
O326 O 0.96165 0.99073 0.5448 0.0
O327 O 0.99006 0.002 0.60588 0.0
O328 O 0.03013 0.02577 0.64436 0.0
O329 O 0.01462 0.03923 0.54692 0.0
C330 C 0.99601 0.95202 0.51094 0.0
C331 C 0.02563 0.043 0.60469 0.0
Dy332 Dy 0.49437 0.97858 0.53632 0.0
C333 C 0.56538 0.04421 0.65095 0.0
C334 C 0.45518 0.9531 0.48904 0.0
Dy335 Dy 0.52696 0.01785 0.60222 0.0
O336 O 0.47445 0.9578 0.45546 0.0
O337 O 0.45759 0.96196 0.54859 0.0
O338 O 0.52521 0.95926 0.5069 0.0
O339 O 0.52876 0.99613 0.51294 0.0
C340 C 0.53969 0.97829 0.50425 0.0
C341 C 0.4815 0.01817 0.63251 0.0
O342 O 0.51869 0.03688 0.51178 0.0
O343 O 0.48704 0.01069 0.47977 0.0
O344 O 0.54588 0.03944 0.68336 0.0
O345 O 0.56372 0.03478 0.59189 0.0
O346 O 0.4959 0.03724 0.62964 0.0
O347 O 0.49259 1.00041 0.62506 0.0
O348 O 0.5026 0.95958 0.62671 0.0
O349 O 0.53415 0.98578 0.65949 0.0
C350 C 0.50028 0.03099 0.47373 0.0
C351 C 0.52084 0.9655 0.66535 0.0
Dy352 Dy 0.5055 0.50827 0.63934 0.0
C353 C 0.5019 0.46381 0.37734 0.0
C354 C 0.5263 0.52939 0.74756 0.0
Dy355 Dy 0.5109 0.48836 0.49272 0.0
O356 O 0.50476 0.51925 0.74786 0.0
O357 O 0.53583 0.52733 0.6895 0.0
O358 O 0.47173 0.52297 0.61403 0.0
O359 O 0.48263 0.49408 0.5608 0.0
C360 C 0.46798 0.50898 0.56233 0.0
C361 C 0.55025 0.50032 0.56134 0.0
O362 O 0.50877 0.5262 0.47137 0.0
O363 O 0.51535 0.5405 0.57946 0.0
O364 O 0.51925 0.46124 0.41656 0.0
O365 O 0.49008 0.48044 0.40016 0.0
O366 O 0.54956 0.50202 0.49701 0.0
O367 O 0.53092 0.49115 0.58208 0.0
O368 O 0.49993 0.46997 0.66179 0.0
O369 O 0.50048 0.4557 0.55168 0.0
C370 C 0.5129 0.54371 0.5151 0.0
C371 C 0.49814 0.45242 0.61691 0.0
Dy372 Dy 1.00104 0.48883 0.58803 0.0
C373 C 0.0574 0.5434 0.39481 0.0
C374 C 0.97034 0.46409 0.6704 0.0
Dy375 Dy 0.02823 0.52505 0.49141 0.0
O376 O 0.97946 0.45565 0.61713 0.0
O377 O 0.97811 0.48606 0.67902 0.0
O378 O 0.02111 0.46094 0.54315 0.0
O379 O 0.01286 0.48855 0.48401 0.0
C380 C 0.02361 0.4704 0.48516 0.0
C381 C 0.01468 0.54731 0.60268 0.0
O382 O 0.99304 0.52074 0.44293 0.0
O383 O 0.97189 0.50172 0.52942 0.0
O384 O 0.03894 0.55264 0.4164 0.0
O385 O 0.05951 0.52387 0.42492 0.0
O386 O 0.02568 0.55815 0.55384 0.0
O387 O 0.01166 0.52585 0.5871 0.0
O388 O 0.03475 0.49544 0.64246 0.0
O389 O 0.05659 0.51301 0.55517 0.0
C390 C 0.97305 0.51257 0.47172 0.0
C391 C 0.05497 0.50362 0.61508 0.0
C392 C 0.14498 0.02577 0.2205 0.0
C393 C 0.14362 0.00775 0.17179 0.0
C394 C 0.12791 0.02633 0.27086 0.0
C395 C 0.10906 0.00835 0.27316 0.0
C396 C 0.10672 0.99107 0.22162 0.0
C397 C 0.12394 0.99102 0.17157 0.0
C398 C 0.13089 0.04533 0.3241 0.0
C399 C 0.08681 0.97171 0.22167 0.0
C400 C 0.08691 0.98975 0.44429 0.0
C401 C 0.06557 0.99947 0.44921 0.0
C402 C 0.10103 0.99251 0.3873 0.0
C403 C 0.09389 0.00569 0.33385 0.0
C404 C 0.0725 0.01597 0.33897 0.0
C405 C 0.05847 0.01255 0.39648 0.0
C406 C 0.1236 0.98114 0.38423 0.0
C407 C 0.06429 0.0304 0.28373 0.0
H408 H 0.1601 0.03873 0.22172 0.0
H409 H 0.12241 0.97731 0.13348 0.0
H410 H 0.11412 0.05285 0.33371 0.0
H411 H 0.13615 0.03768 0.37107 0.0
H412 H 0.14442 0.05974 0.31053 0.0
H413 H 0.08604 0.96111 0.17475 0.0
H414 H 0.08896 0.95985 0.26349 0.0
H415 H 0.0699 0.97913 0.22919 0.0
H416 H 0.09247 0.97961 0.48495 0.0
H417 H 0.04219 0.0204 0.40059 0.0
H418 H 0.13859 0.99471 0.37733 0.0
H419 H 0.12343 0.96879 0.341 0.0
H420 H 0.12656 0.97134 0.42981 0.0
H421 H 0.04983 0.04068 0.30014 0.0
H422 H 0.05794 0.01856 0.24201 0.0
H423 H 0.07886 0.04269 0.26453 0.0
C424 C 0.45683 0.13131 0.2509 0.0
C425 C 0.46635 0.13179 0.18647 0.0
C426 C 0.46181 0.11422 0.29603 0.0
C427 C 0.47675 0.0971 0.27655 0.0
C428 C 0.4862 0.09725 0.21136 0.0
C429 C 0.48094 0.11461 0.16716 0.0
C430 C 0.45146 0.1148 0.36513 0.0
C431 C 0.50213 0.07924 0.18862 0.0
C432 C 0.50817 0.06914 0.41463 0.0
C433 C 0.49436 0.04766 0.42245 0.0
C434 C 0.50281 0.08518 0.36677 0.0
C435 C 0.48315 0.07969 0.32545 0.0
C436 C 0.46923 0.05798 0.33259 0.0
C437 C 0.47498 0.04224 0.38097 0.0
C438 C 0.51807 0.10815 0.36096 0.0
C439 C 0.44811 0.05147 0.28957 0.0
H440 H 0.44588 0.14474 0.26679 0.0
H441 H 0.4882 0.11471 0.11735 0.0
H442 H 0.44168 0.09759 0.37626 0.0
H443 H 0.46567 0.11799 0.40207 0.0
H444 H 0.43945 0.12869 0.37169 0.0
H445 H 0.50737 0.08121 0.1357 0.0
H446 H 0.51814 0.0809 0.21935 0.0
H447 H 0.49332 0.06127 0.19539 0.0
H448 H 0.52321 0.07355 0.44616 0.0
H449 H 0.46419 0.02572 0.38637 0.0
H450 H 0.50756 0.12302 0.37148 0.0
H451 H 0.52497 0.11012 0.30959 0.0
H452 H 0.53306 0.10953 0.39568 0.0
H453 H 0.43518 0.06437 0.29781 0.0
H454 H 0.43949 0.03364 0.29995 0.0
H455 H 0.45327 0.05213 0.23642 0.0
C456 C 0.35598 0.51067 0.32787 0.0
C457 C 0.36272 0.51869 0.26457 0.0
C458 C 0.37265 0.50855 0.37741 0.0
C459 C 0.39669 0.51436 0.3632 0.0
C460 C 0.40364 0.52194 0.29888 0.0
C461 C 0.38659 0.52415 0.25053 0.0
C462 C 0.36446 0.5006 0.44541 0.0
C463 C 0.42912 0.5279 0.28132 0.0
C464 C 0.43878 0.53095 0.50562 0.0
C465 C 0.44934 0.5102 0.51287 0.0
C466 C 0.42157 0.53254 0.45726 0.0
C467 C 0.41459 0.5128 0.41573 0.0
C468 C 0.42496 0.49166 0.42385 0.0
C469 C 0.4423 0.49066 0.47206 0.0
C470 C 0.41102 0.55542 0.4502 0.0
C471 C 0.41769 0.47009 0.38163 0.0
H472 H 0.33756 0.50673 0.33936 0.0
H473 H 0.39192 0.53017 0.20156 0.0
H474 H 0.37315 0.48505 0.4596 0.0
H475 H 0.36942 0.51473 0.48272 0.0
H476 H 0.34523 0.49604 0.4479 0.0
H477 H 0.43168 0.53316 0.22884 0.0
H478 H 0.43683 0.54247 0.31394 0.0
H479 H 0.43892 0.51254 0.2898 0.0
H480 H 0.44427 0.5461 0.53701 0.0
H481 H 0.45024 0.47449 0.4782 0.0
H482 H 0.39176 0.55251 0.45648 0.0
H483 H 0.41457 0.56226 0.39965 0.0
H484 H 0.41806 0.569 0.48701 0.0
H485 H 0.39886 0.46446 0.38954 0.0
H486 H 0.4278 0.45517 0.39305 0.0
H487 H 0.42007 0.47424 0.32838 0.0
C488 C 0.01944 0.38631 0.16993 0.0
C489 C 0.04079 0.37783 0.15234 0.0
C490 C 0.01827 0.40413 0.21851 0.0
C491 C 0.03905 0.41436 0.24911 0.0
C492 C 0.06085 0.4075 0.22716 0.0
C493 C 0.06147 0.38916 0.1797 0.0
C494 C 0.9946 0.41074 0.24052 0.0
C495 C 0.08349 0.4185 0.25683 0.0
C496 C 0.03217 0.46752 0.36284 0.0
C497 C 0.03006 0.45704 0.42512 0.0
C498 C 0.03629 0.45415 0.30515 0.0
C499 C 0.03757 0.42963 0.3098 0.0
C500 C 0.03599 0.41917 0.37293 0.0
C501 C 0.0326 0.43305 0.42973 0.0
C502 C 0.03865 0.46615 0.23921 0.0
C503 C 0.03687 0.39308 0.38038 0.0
H504 H 0.00339 0.37829 0.14775 0.0
H505 H 0.07811 0.38288 0.16698 0.0
H506 H 0.99102 0.40493 0.29212 0.0
H507 H 0.99431 0.43006 0.24054 0.0
H508 H 0.9803 0.40258 0.20829 0.0
H509 H 0.09888 0.41448 0.22654 0.0
H510 H 0.08348 0.43784 0.26159 0.0
H511 H 0.08542 0.41169 0.30734 0.0
H512 H 0.03031 0.48609 0.35909 0.0
H513 H 0.03098 0.42482 0.4777 0.0
H514 H 0.02264 0.46136 0.20966 0.0
H515 H 0.0536 0.46026 0.21041 0.0
H516 H 0.04119 0.48558 0.24524 0.0
H517 H 0.02226 0.38328 0.35262 0.0
H518 H 0.03561 0.38773 0.43304 0.0
H519 H 0.05339 0.38772 0.35898 0.0
C520 C 0.87983 0.00782 0.8946 0.0
C521 C 0.87292 0.98839 0.93415 0.0
C522 C 0.8968 0.00673 0.8444 0.0
C523 C 0.90734 0.98569 0.83311 0.0
C524 C 0.90091 0.96615 0.87379 0.0
C525 C 0.88367 0.96768 0.92352 0.0
C526 C 0.90293 0.02795 0.80201 0.0
C527 C 0.91195 0.94352 0.86398 0.0
C528 C 0.93099 0.97864 0.65759 0.0
C529 C 0.95456 0.9873 0.66479 0.0
C530 C 0.91567 0.97705 0.71245 0.0
C531 C 0.92414 0.98405 0.77641 0.0
C532 C 0.94822 0.99162 0.78445 0.0
C533 C 0.96309 0.99337 0.72847 0.0
C534 C 0.89015 0.96896 0.70137 0.0
C535 C 0.95811 0.99889 0.85172 0.0
H536 H 0.87134 0.02376 0.90134 0.0
H537 H 0.87857 0.95263 0.95401 0.0
H538 H 0.92204 0.03318 0.80326 0.0
H539 H 0.89822 0.02355 0.74964 0.0
H540 H 0.89375 0.04323 0.81855 0.0
H541 H 0.90613 0.93044 0.90216 0.0
H542 H 0.90739 0.93575 0.81432 0.0
H543 H 0.93128 0.947 0.86567 0.0
H544 H 0.92429 0.97384 0.60854 0.0
H545 H 0.98121 1.00025 0.73438 0.0
H546 H 0.87953 0.98376 0.71175 0.0
H547 H 0.88413 0.95476 0.73599 0.0
H548 H 0.88667 0.96244 0.64974 0.0
H549 H 0.95166 0.01573 0.86793 0.0
H550 H 0.97753 1.00125 0.85111 0.0
H551 H 0.95215 0.98562 0.88913 0.0
C552 C 0.55721 0.86199 0.88707 0.0
C553 C 0.54807 0.86217 0.95187 0.0
C554 C 0.55429 0.88019 0.84339 0.0
C555 C 0.54185 0.8991 0.86479 0.0
C556 C 0.5334 0.8999 0.93105 0.0
C557 C 0.53669 0.88145 0.97393 0.0
C558 C 0.56377 0.87869 0.77347 0.0
C559 C 0.52004 0.91974 0.95577 0.0
C560 C 0.54635 0.95327 0.75662 0.0
C561 C 0.52621 0.94892 0.71755 0.0
C562 C 0.5515 0.93748 0.80566 0.0
C563 C 0.53612 0.91688 0.81607 0.0
C564 C 0.51564 0.9126 0.77745 0.0
C565 C 0.51097 0.92859 0.72874 0.0
C566 C 0.57356 0.94263 0.84559 0.0
C567 C 0.49875 0.89089 0.78689 0.0
H568 H 0.56641 0.84735 0.87011 0.0
H569 H 0.52954 0.88165 0.02386 0.0
H570 H 0.54907 0.87642 0.7379 0.0
H571 H 0.57458 0.89523 0.76108 0.0
H572 H 0.57455 0.86381 0.76614 0.0
H573 H 0.51645 0.9189 0.00995 0.0
H574 H 0.52992 0.93692 0.94492 0.0
H575 H 0.50312 0.91901 0.92941 0.0
H576 H 0.55824 0.96892 0.74857 0.0
H577 H 0.49529 0.92505 0.69931 0.0
H578 H 0.58529 0.9287 0.83588 0.0
H579 H 0.56934 0.94252 0.89939 0.0
H580 H 0.58317 0.95987 0.83354 0.0
H581 H 0.50764 0.87496 0.77536 0.0
H582 H 0.48313 0.89059 0.75475 0.0
H583 H 0.49283 0.88983 0.83938 0.0
C584 C 0.65086 0.52723 0.83573 0.0
C585 C 0.66902 0.51325 0.82217 0.0
C586 C 0.63207 0.52753 0.79152 0.0
C587 C 0.63112 0.51303 0.73339 0.0
C588 C 0.64953 0.49899 0.71955 0.0
C589 C 0.66831 0.49945 0.76369 0.0
C590 C 0.61306 0.54308 0.80747 0.0
C591 C 0.64898 0.48274 0.65941 0.0
C592 C 0.57177 0.49108 0.66203 0.0
C593 C 0.57122 0.50401 0.60387 0.0
C594 C 0.59098 0.4941 0.70475 0.0
C595 C 0.61006 0.51085 0.68989 0.0
C596 C 0.60943 0.52435 0.63181 0.0
C597 C 0.5901 0.52054 0.58888 0.0
C598 C 0.59101 0.47896 0.76518 0.0
C599 C 0.62913 0.54282 0.61524 0.0
H600 H 0.65142 0.53798 0.88074 0.0
H601 H 0.68216 0.48836 0.75349 0.0
H602 H 0.60961 0.55348 0.76355 0.0
H603 H 0.59661 0.53212 0.81976 0.0
H604 H 0.61765 0.5553 0.85 0.0
H605 H 0.66504 0.47358 0.65452 0.0
H606 H 0.63366 0.46934 0.66281 0.0
H607 H 0.64698 0.49272 0.61364 0.0
H608 H 0.55718 0.47827 0.67385 0.0
H609 H 0.58955 0.53076 0.54441 0.0
H610 H 0.59276 0.49015 0.8108 0.0
H611 H 0.60624 0.46854 0.76297 0.0
H612 H 0.57482 0.46669 0.76949 0.0
H613 H 0.63215 0.55548 0.65753 0.0
H614 H 0.6255 0.55263 0.5702 0.0
H615 H 0.64554 0.53452 0.60701 0.0
C616 C 0.96639 0.62043 0.90943 0.0
C617 C 0.98482 0.62744 0.95303 0.0
C618 C 0.96922 0.60448 0.85656 0.0
C619 C 0.99099 0.59532 0.84692 0.0
C620 C 0.0091 0.6011 0.89343 0.0
C621 C 0.0058 0.61706 0.94581 0.0
C622 C 0.94941 0.59872 0.80843 0.0
C623 C 0.03253 0.59163 0.88546 0.0
C624 C 0.99819 0.54617 0.71903 0.0
C625 C 0.00749 0.55898 0.6648 0.0
C626 C 0.99227 0.55766 0.77851 0.0
C627 C 0.99597 0.58251 0.78379 0.0
C628 C 0.00517 0.59545 0.7287 0.0
C629 C 0.01078 0.58354 0.67011 0.0
C630 C 0.98245 0.54322 0.83592 0.0
C631 C 0.00942 0.62194 0.73186 0.0
H632 H 0.95017 0.62843 0.9142 0.0
H633 H 0.01999 0.62206 0.97992 0.0
H634 H 0.95375 0.60768 0.76097 0.0
H635 H 0.94687 0.57957 0.79733 0.0
H636 H 0.9327 0.60444 0.82774 0.0
H637 H 0.0437 0.59543 0.92985 0.0
H638 H 0.03023 0.57237 0.87615 0.0
H639 H 0.04185 0.59971 0.84187 0.0
H640 H 0.99591 0.52721 0.71539 0.0
H641 H 0.01798 0.59357 0.62835 0.0
H642 H 0.96594 0.54967 0.85405 0.0
H643 H 0.99496 0.54512 0.87769 0.0
H644 H 0.97897 0.52428 0.82228 0.0
H645 H 0.99294 0.62956 0.74464 0.0
H646 H 0.01624 0.6294 0.68424 0.0
H647 H 0.0222 0.62754 0.77145 0.0
C648 C 0.02919 0.15365 0.26628 0.0
C649 C 0.01737 0.16372 0.21566 0.0
C650 C 0.02102 0.13149 0.29026 0.0
C651 C 1.00084 0.11901 0.26186 0.0
C652 C 0.98893 0.12908 0.21042 0.0
C653 C 0.99725 0.15145 0.18824 0.0
C654 C 0.03401 0.12142 0.34592 0.0
C655 C 0.96759 0.11611 0.17843 0.0
C656 C 0.99655 0.05403 0.29602 0.0
C657 C 0.98239 0.05293 0.35296 0.0
C658 C 1.00148 0.07522 0.26267 0.0
C659 C 0.99208 0.09564 0.28739 0.0
C660 C 0.97622 0.09407 0.34156 0.0
C661 C 0.97141 0.07262 0.37343 0.0
C662 C 0.01817 0.07613 0.20431 0.0
C663 C 0.96599 0.11547 0.36976 0.0
H664 H 0.04474 0.1632 0.28733 0.0
H665 H 0.98836 0.15914 0.14826 0.0
H666 H 0.02186 0.11669 0.38771 0.0
H667 H 0.04116 0.10509 0.32841 0.0
H668 H 0.04866 0.13389 0.36478 0.0
H669 H 0.96048 0.12633 0.13848 0.0
H670 H 0.97201 0.09909 0.15703 0.0
H671 H 0.95369 0.11211 0.21625 0.0
H672 H 0.00498 0.03875 0.28006 0.0
H673 H 0.96042 0.07179 0.41749 0.0
H674 H 0.03534 0.08513 0.21978 0.0
H675 H 0.01161 0.08633 0.16358 0.0
H676 H 0.02094 0.0583 0.18497 0.0
H677 H 0.97996 0.12715 0.39493 0.0
H678 H 0.9518 0.11078 0.40635 0.0
H679 H 0.95897 0.12563 0.3297 0.0
C680 C 0.34293 0.97698 0.32771 0.0
C681 C 0.32905 0.95953 0.29214 0.0
C682 C 0.36138 0.97133 0.36692 0.0
C683 C 0.36569 0.94753 0.37202 0.0
C684 C 0.35035 0.92963 0.34157 0.0
C685 C 0.33227 0.93586 0.30128 0.0
C686 C 0.37728 0.99103 0.39874 0.0
C687 C 0.35389 0.90403 0.3478 0.0
C688 C 0.43025 0.9438 0.39049 0.0
C689 C 0.43241 0.94505 0.45953 0.0
C690 C 0.40822 0.94259 0.36093 0.0
C691 C 0.38797 0.94215 0.40169 0.0
C692 C 0.38998 0.94075 0.47133 0.0
C693 C 0.4123 0.94246 0.49963 0.0
C694 C 0.40686 0.94428 0.28643 0.0
C695 C 0.36872 0.93933 0.51609 0.0
H696 H 0.34003 0.99525 0.32239 0.0
H697 H 0.32155 0.92225 0.27415 0.0
H698 H 0.37909 0.98803 0.4525 0.0
H699 H 0.39499 0.99155 0.37606 0.0
H700 H 0.37077 0.00846 0.39265 0.0
H701 H 0.33766 0.89247 0.33611 0.0
H702 H 0.36774 0.89951 0.31253 0.0
H703 H 0.3596 0.90025 0.39852 0.0
H704 H 0.44582 0.9457 0.35951 0.0
H705 H 0.41399 0.94319 0.55319 0.0
H706 H 0.40156 0.96172 0.27368 0.0
H707 H 0.39347 0.93076 0.2661 0.0
H708 H 0.42386 0.9421 0.26165 0.0
H709 H 0.36124 0.95644 0.51727 0.0
H710 H 0.37297 0.93497 0.56771 0.0
H711 H 0.35501 0.92592 0.49673 0.0
C712 C 0.44726 0.35688 0.1444 0.0
C713 C 0.43761 0.34029 0.1898 0.0
C714 C 0.45725 0.37906 0.16604 0.0
C715 C 0.45726 0.38482 0.23457 0.0
C716 C 0.44629 0.36863 0.28022 0.0
C717 C 0.43682 0.34639 0.25731 0.0
C718 C 0.46886 0.39582 0.11606 0.0
C719 C 0.44542 0.37447 0.35357 0.0
C720 C 0.50465 0.42627 0.31512 0.0
C721 C 0.49287 0.44613 0.32744 0.0
C722 C 0.49369 0.40664 0.28094 0.0
C723 C 0.47034 0.4069 0.2595 0.0
C724 C 0.45907 0.42764 0.26718 0.0
C725 C 0.47061 0.44714 0.30073 0.0
C726 C 0.50657 0.3851 0.27167 0.0
C727 C 0.43422 0.42879 0.24512 0.0
H728 H 0.44818 0.35203 0.09221 0.0
H729 H 0.42931 0.33354 0.29227 0.0
H730 H 0.46227 0.41329 0.12186 0.0
H731 H 0.48798 0.39829 0.12499 0.0
H732 H 0.46586 0.38936 0.06417 0.0
H733 H 0.43445 0.36086 0.38153 0.0
H734 H 0.46336 0.37606 0.37411 0.0
H735 H 0.43837 0.39164 0.36191 0.0
H736 H 0.52196 0.42555 0.33535 0.0
H737 H 0.46161 0.46263 0.3096 0.0
H738 H 0.50496 0.37834 0.21974 0.0
H739 H 0.49868 0.37102 0.30433 0.0
H740 H 0.52541 0.3887 0.28384 0.0
H741 H 0.43073 0.44715 0.23591 0.0
H742 H 0.42214 0.42182 0.28491 0.0
H743 H 0.43014 0.41807 0.19943 0.0
C744 C 0.17507 0.60915 0.27175 0.0
C745 C 0.18003 0.60459 0.20475 0.0
C746 C 0.15259 0.60323 0.29793 0.0
C747 C 0.13471 0.59274 0.25584 0.0
C748 C 0.13888 0.59089 0.18681 0.0
C749 C 0.16154 0.59677 0.16206 0.0
C750 C 0.14873 0.60585 0.37176 0.0
C751 C 0.12017 0.58024 0.14002 0.0
C752 C 0.09541 0.54398 0.33557 0.0
C753 C 0.07556 0.55519 0.35163 0.0
C754 C 0.11448 0.55592 0.30273 0.0
C755 C 0.1136 0.57966 0.28534 0.0
C756 C 0.09312 0.59075 0.29864 0.0
C757 C 0.07429 0.57835 0.33192 0.0
C758 C 0.13592 0.54333 0.2889 0.0
C759 C 0.09146 0.61592 0.28019 0.0
H760 H 0.18915 0.61568 0.30473 0.0
H761 H 0.16508 0.59309 0.11019 0.0
H762 H 0.13176 0.61279 0.3825 0.0
H763 H 0.14819 0.58835 0.39468 0.0
H764 H 0.16291 0.61768 0.39561 0.0
H765 H 0.12453 0.58451 0.08757 0.0
H766 H 0.11837 0.56085 0.14444 0.0
H767 H 0.10299 0.58642 0.1527 0.0
H768 H 0.09638 0.52604 0.35064 0.0
H769 H 0.05891 0.58705 0.34446 0.0
H770 H 0.15107 0.55229 0.31629 0.0
H771 H 0.14037 0.54391 0.23527 0.0
H772 H 0.13346 0.52467 0.30378 0.0
H773 H 0.10291 0.62776 0.31312 0.0
H774 H 0.07332 0.62082 0.2851 0.0
H775 H 0.09762 0.619 0.2285 0.0
C776 C 0.0239 0.85513 0.97533 0.0
C777 C 0.004 0.8406 0.95439 0.0
C778 C 0.03011 0.87694 0.94657 0.0
C779 C 0.01663 0.88406 0.89394 0.0
C780 C 0.99672 0.86945 0.87184 0.0
C781 C 0.99047 0.84803 0.90291 0.0
C782 C 0.05124 0.89227 0.97204 0.0
C783 C 0.98219 0.87629 0.81472 0.0
C784 C 0.01897 0.94664 0.83509 0.0
C785 C 0.03313 0.94542 0.77851 0.0
C786 C 0.0145 0.92712 0.87592 0.0
C787 C 0.02416 0.906 0.85871 0.0
C788 C 0.03966 0.90528 0.80401 0.0
C789 C 0.04416 0.92513 0.76499 0.0
C790 C 0.99834 0.92865 0.93494 0.0
C791 C 0.05006 0.88301 0.78348 0.0
H792 H 0.03481 0.84941 0.01405 0.0
H793 H 0.97485 0.83721 0.88713 0.0
H794 H 0.06501 0.89396 0.93306 0.0
H795 H 0.04653 0.9102 0.98405 0.0
H796 H 0.05866 0.88508 0.01702 0.0
H797 H 0.97529 0.89332 0.82611 0.0
H798 H 0.99326 0.87862 0.76946 0.0
H799 H 0.96724 0.86294 0.80362 0.0
H800 H 0.0104 0.96234 0.84544 0.0
H801 H 0.05516 0.92419 0.72122 0.0
H802 H 0.0057 0.92094 0.97911 0.0
H803 H 0.9813 0.91843 0.92413 0.0
H804 H 0.99512 0.94707 0.94714 0.0
H805 H 0.05861 0.87564 0.82621 0.0
H806 H 0.06312 0.8859 0.74273 0.0
H807 H 0.03593 0.86962 0.7664 0.0
C808 C 0.68822 0.07691 0.83549 0.0
C809 C 0.69469 0.05434 0.8459 0.0
C810 C 0.66832 0.08007 0.79815 0.0
C811 C 0.6544 0.06014 0.77247 0.0
C812 C 0.66132 0.0374 0.78129 0.0
C813 C 0.68146 0.03482 0.81749 0.0
C814 C 0.66179 0.10459 0.78802 0.0
C815 C 0.64682 0.01563 0.75539 0.0
C816 C 0.58917 0.05682 0.7499 0.0
C817 C 0.58754 0.0541 0.68092 0.0
C818 C 0.61103 0.0608 0.78052 0.0
C819 C 0.63158 0.06244 0.74087 0.0
C820 C 0.62984 0.06208 0.67087 0.0
C821 C 0.60776 0.05767 0.64162 0.0
C822 C 0.61212 0.06085 0.85534 0.0
C823 C 0.6513 0.06429 0.62687 0.0
H824 H 0.69854 0.09201 0.85731 0.0
H825 H 0.68624 0.01733 0.82638 0.0
H826 H 0.65756 0.10702 0.73519 0.0
H827 H 0.64593 0.10734 0.81772 0.0
H828 H 0.67602 0.11822 0.80314 0.0
H829 H 0.62925 0.01426 0.77912 0.0
H830 H 0.6443 0.01673 0.70113 0.0
H831 H 0.65499 0.99931 0.76522 0.0
H832 H 0.5735 0.05413 0.78027 0.0
H833 H 0.60646 0.05576 0.5881 0.0
H834 H 0.62461 0.0755 0.87404 0.0
H835 H 0.61846 0.04422 0.87146 0.0
H836 H 0.59476 0.06239 0.87873 0.0
H837 H 0.64705 0.06886 0.57541 0.0
H838 H 0.65902 0.04731 0.62484 0.0
H839 H 0.66475 0.07784 0.6469 0.0
C840 C 0.58666 0.63376 0.97996 0.0
C841 C 0.57362 0.65243 0.96516 0.0
C842 C 0.57968 0.61077 0.95713 0.0
C843 C 0.55985 0.60654 0.91593 0.0
C844 C 0.54659 0.62519 0.90101 0.0
C845 C 0.55327 0.64767 0.92712 0.0
C846 C 0.594 0.59129 0.97579 0.0
C847 C 0.5258 0.62168 0.85515 0.0
C848 C 0.55702 0.5606 0.77954 0.0
C849 C 0.53723 0.54573 0.79824 0.0
C850 C 0.56542 0.57979 0.81938 0.0
C851 C 0.55442 0.58359 0.88105 0.0
C852 C 0.53599 0.56721 0.90349 0.0
C853 C 0.52717 0.54863 0.86094 0.0
C854 C 0.58477 0.59704 0.79277 0.0
C855 C 0.52487 0.57002 0.97085 0.0
H856 H 0.60248 0.63701 0.00886 0.0
H857 H 0.54237 0.66151 0.91742 0.0
H858 H 0.58313 0.57415 0.97873 0.0
H859 H 0.60784 0.58958 0.93784 0.0
H860 H 0.60275 0.5952 0.02425 0.0
H861 H 0.51757 0.63815 0.84792 0.0
H862 H 0.53134 0.61507 0.80591 0.0
H863 H 0.51239 0.60834 0.87524 0.0
H864 H 0.56509 0.55824 0.73135 0.0
H865 H 0.51209 0.53693 0.87579 0.0
H866 H 0.59978 0.59876 0.82721 0.0
H867 H 0.57851 0.61465 0.78891 0.0
H868 H 0.59109 0.59167 0.74303 0.0
H869 H 0.53847 0.57488 0.00883 0.0
H870 H 0.51421 0.55369 0.98598 0.0
H871 H 0.51332 0.58437 0.96989 0.0
C872 C 0.85935 0.41168 0.87741 0.0
C873 C 0.8405 0.41409 0.83511 0.0
C874 C 0.88235 0.41345 0.85292 0.0
C875 C 0.88653 0.41846 0.78529 0.0
C876 C 0.8675 0.41777 0.74108 0.0
C877 C 0.84464 0.41507 0.76647 0.0
C878 C 0.90223 0.41253 0.90077 0.0
C879 C 0.87119 0.42272 0.66829 0.0
C880 C 0.93594 0.46481 0.7448 0.0
C881 C 0.95101 0.45178 0.70811 0.0
C882 C 0.9152 0.45394 0.77185 0.0
C883 C 0.90986 0.4293 0.76378 0.0
C884 C 0.92595 0.41582 0.73101 0.0
C885 C 0.94619 0.42733 0.70227 0.0
C886 C 0.8984 0.46906 0.80584 0.0
C887 C 0.92146 0.38946 0.72363 0.0
H888 H 0.85653 0.41062 0.9305 0.0
H889 H 0.8301 0.4159 0.73309 0.0
H890 H 0.91664 0.40371 0.87738 0.0
H891 H 0.90933 0.43067 0.91517 0.0
H892 H 0.89637 0.40313 0.94657 0.0
H893 H 0.8548 0.41899 0.63951 0.0
H894 H 0.87772 0.4415 0.66241 0.0
H895 H 0.88454 0.41208 0.64676 0.0
H896 H 0.9397 0.48374 0.74914 0.0
H897 H 0.95801 0.41724 0.67416 0.0
H898 H 0.89484 0.4632 0.85733 0.0
H899 H 0.88149 0.46725 0.7792 0.0
H900 H 0.90522 0.48794 0.8077 0.0
H901 H 0.91189 0.38165 0.76719 0.0
H902 H 0.93808 0.38131 0.71716 0.0
H903 H 0.91068 0.38493 0.67898 0.0
C904 C 0.06986 0.17696 0.71465 0.0
C905 C 0.052 0.18618 0.75176 0.0
C906 C 0.06669 0.15414 0.6864 0.0
C907 C 0.04516 0.14013 0.69552 0.0
C908 C 0.02684 0.14959 0.73111 0.0
C909 C 0.03047 0.17241 0.75873 0.0
C910 C 0.08662 0.14479 0.64842 0.0
C911 C 0.00358 0.13531 0.742 0.0
C912 C 0.02777 0.08639 0.5852 0.0
C913 C 0.03232 0.06785 0.62618 0.0
C914 C 0.03239 0.10996 0.60637 0.0
C915 C 0.04191 0.11528 0.67007 0.0
C916 C 0.04716 0.09673 0.71098 0.0
C917 C 0.04231 0.07328 0.68862 0.0
C918 C 0.02658 0.12917 0.56108 0.0
C919 C 0.05732 0.10162 0.77926 0.0
H920 H 0.0865 0.18747 0.70855 0.0
H921 H 0.01668 0.17906 0.78836 0.0
H922 H 0.09249 0.12963 0.67464 0.0
H923 H 0.08071 0.13834 0.59846 0.0
H924 H 0.10179 0.15827 0.64268 0.0
H925 H 0.99076 0.14558 0.76804 0.0
H926 H 0.99608 0.12875 0.69378 0.0
H927 H 0.00609 0.11975 0.77193 0.0
H928 H 0.02017 0.08254 0.53669 0.0
H929 H 0.04595 0.0592 0.72075 0.0
H930 H 0.04257 0.14108 0.55042 0.0
H931 H 0.01388 0.13989 0.58582 0.0
H932 H 0.01902 0.12211 0.51332 0.0
H933 H 0.07348 0.11394 0.77618 0.0
H934 H 0.06154 0.08537 0.8036 0.0
H935 H 0.0447 0.11018 0.81116 0.0
C936 C 0.34306 0.00958 0.72092 0.0
C937 C 0.34099 0.01619 0.78804 0.0
C938 C 0.36517 0.00989 0.68975 0.0
C939 C 0.3857 0.01652 0.72693 0.0
C940 C 0.38364 0.0231 0.79472 0.0
C941 C 0.3614 0.02302 0.82415 0.0
C942 C 0.36657 0.00316 0.61709 0.0
C943 C 0.40501 0.02976 0.83675 0.0
C944 C 0.44449 0.99644 0.67485 0.0
C945 C 0.45649 0.01731 0.65186 0.0
C946 C 0.42119 0.99571 0.69731 0.0
C947 C 0.40946 0.01629 0.696 0.0
C948 C 0.42123 0.03716 0.67019 0.0
C949 C 0.44467 0.03747 0.64905 0.0
C950 C 0.40947 0.97314 0.72489 0.0
C951 C 0.40926 0.05933 0.66649 0.0
H952 H 0.32737 0.0043 0.69274 0.0
H953 H 0.36001 0.02766 0.87636 0.0
H954 H 0.37736 0.98831 0.61006 0.0
H955 H 0.34906 0.99805 0.59534 0.0
H956 H 0.37528 0.01813 0.5891 0.0
H957 H 0.40044 0.03424 0.88884 0.0
H958 H 0.4161 0.01501 0.83698 0.0
H959 H 0.41567 0.04507 0.8154 0.0
H960 H 0.45357 0.98081 0.6773 0.0
H961 H 0.45381 0.05358 0.63068 0.0
H962 H 0.39264 0.96806 0.69943 0.0
H963 H 0.40546 0.97575 0.77834 0.0
H964 H 0.42055 0.95841 0.71943 0.0
H965 H 0.39211 0.05562 0.64164 0.0
H966 H 0.41994 0.07334 0.63919 0.0
H967 H 0.40586 0.06604 0.71733 0.0
C968 C 0.45921 0.32351 0.75252 0.0
C969 C 0.47833 0.31029 0.7587 0.0
C970 C 0.46193 0.34613 0.72615 0.0
C971 C 0.48436 0.35601 0.70579 0.0
C972 C 0.50363 0.34257 0.70995 0.0
C973 C 0.50038 0.31988 0.7362 0.0
C974 C 0.44089 0.3598 0.72238 0.0
C975 C 0.52783 0.35244 0.68857 0.0
C976 C 0.48888 0.40917 0.59429 0.0
C977 C 0.49397 0.42783 0.64005 0.0
C978 C 0.48569 0.38575 0.61487 0.0
C979 C 0.48778 0.38077 0.68289 0.0
C980 C 0.49283 0.39949 0.72938 0.0
C981 C 0.49578 0.42277 0.70748 0.0
C982 C 0.48009 0.36635 0.56378 0.0
C983 C 0.49523 0.39493 0.80236 0.0
H984 H 0.44217 0.3166 0.77093 0.0
H985 H 0.51523 0.30979 0.74014 0.0
H986 H 0.44319 0.3753 0.75658 0.0
H987 H 0.43918 0.36643 0.67157 0.0
H988 H 0.4244 0.34905 0.73583 0.0
H989 H 0.54076 0.3394 0.69206 0.0
H990 H 0.52755 0.35846 0.63668 0.0
H991 H 0.53377 0.36798 0.72022 0.0
H992 H 0.48735 0.41281 0.54207 0.0
H993 H 0.49983 0.43698 0.74325 0.0
H994 H 0.46321 0.35617 0.57632 0.0
H995 H 0.49371 0.35398 0.56405 0.0
H996 H 0.47894 0.37316 0.51285 0.0
H997 H 0.47876 0.38565 0.82175 0.0
H998 H 0.49938 0.41138 0.83208 0.0
H999 H 0.50927 0.38335 0.80976 0.0
C1000 C 0.17939 0.49005 0.78384 0.0
C1001 C 0.18056 0.50178 0.84564 0.0
C1002 C 0.15902 0.48896 0.74514 0.0
C1003 C 0.13968 0.50048 0.76798 0.0
C1004 C 0.14092 0.51247 0.83026 0.0
C1005 C 0.1612 0.51273 0.86855 0.0
C1006 C 0.1582 0.47553 0.67981 0.0
C1007 C 0.12101 0.5255 0.85585 0.0
C1008 C 0.09629 0.51872 0.6422 0.0
C1009 C 0.0768 0.50236 0.65292 0.0
C1010 C 0.11688 0.51822 0.67895 0.0
C1011 C 0.11829 0.50054 0.72642 0.0
C1012 C 0.09886 0.48361 0.73621 0.0
C1013 C 0.07825 0.48492 0.70003 0.0
C1014 C 0.13692 0.537 0.66817 0.0
C1015 C 0.0998 0.46416 0.78515 0.0
H1016 H 0.19436 0.48159 0.76611 0.0
H1017 H 0.16222 0.52214 0.91589 0.0
H1018 H 0.14274 0.46221 0.67872 0.0
H1019 H 0.15629 0.48766 0.63855 0.0
H1020 H 0.17418 0.46652 0.67073 0.0
H1021 H 0.12483 0.53415 0.90498 0.0
H1022 H 0.11736 0.53911 0.82013 0.0
H1023 H 0.10487 0.51324 0.86039 0.0
H1024 H 0.09524 0.53234 0.60617 0.0
H1025 H 0.06333 0.47208 0.70809 0.0
H1026 H 0.15297 0.52885 0.65396 0.0
H1027 H 0.14068 0.54713 0.71508 0.0
H1028 H 0.13314 0.54939 0.629 0.0
H1029 H 0.11525 0.45451 0.77461 0.0
H1030 H 0.08383 0.45147 0.78372 0.0
H1031 H 0.10179 0.4717 0.83617 0.0
C1032 C 0.95056 0.82194 0.37871 0.0
C1033 C 0.96639 0.80582 0.3953 0.0
C1034 C 0.95381 0.84555 0.40041 0.0
C1035 C 0.97385 0.85371 0.43767 0.0
C1036 C 0.98959 0.83758 0.4562 0.0
C1037 C 0.98541 0.81383 0.43608 0.0
C1038 C 0.93613 0.86194 0.38152 0.0
C1039 C 0.0114 0.84559 0.49502 0.0
C1040 C 0.99557 0.91883 0.42766 0.0
C1041 C 0.98911 0.92733 0.4901 0.0
C1042 C 0.99088 0.89487 0.41016 0.0
C1043 C 0.97874 0.87923 0.45538 0.0
C1044 C 0.97149 0.88798 0.51763 0.0
C1045 C 0.97711 0.91182 0.53464 0.0
C1046 C 0.99947 0.88618 0.34401 0.0
C1047 C 0.95778 0.87218 0.56633 0.0
H1048 H 0.93601 0.81651 0.34635 0.0
H1049 H 0.99751 0.8017 0.45109 0.0
H1050 H 0.9309 0.87212 0.4257 0.0
H1051 H 0.94402 0.87472 0.34508 0.0
H1052 H 0.92019 0.85239 0.35928 0.0
H1053 H 0.02189 0.8309 0.50564 0.0
H1054 H 0.02246 0.859 0.46665 0.0
H1055 H 0.00675 0.85399 0.54273 0.0
H1056 H 0.00507 0.93074 0.39347 0.0
H1057 H 0.97196 0.9184 0.58286 0.0
H1058 H 0.98452 0.87822 0.31405 0.0
H1059 H 0.01121 0.87227 0.35176 0.0
H1060 H 0.00911 0.90045 0.31517 0.0
H1061 H 0.94196 0.86321 0.54211 0.0
H1062 H 0.9523 0.88199 0.61099 0.0
H1063 H 0.96849 0.85835 0.58251 0.0
C1064 C 0.65579 0.97658 0.28872 0.0
C1065 C 0.67682 0.9821 0.32311 0.0
C1066 C 0.63404 0.97585 0.32147 0.0
C1067 C 0.63314 0.98046 0.39074 0.0
C1068 C 0.65431 0.98565 0.42609 0.0
C1069 C 0.67586 0.9866 0.3918 0.0
C1070 C 0.61196 0.97066 0.28149 0.0
C1071 C 0.65417 0.99037 0.50005 0.0
C1072 C 0.57606 1.00032 0.45862 0.0
C1073 C 0.5642 0.97912 0.47981 0.0
C1074 C 0.59871 1.00113 0.43119 0.0
C1075 C 0.60995 0.98027 0.42539 0.0
C1076 C 0.59834 0.95897 0.44897 0.0
C1077 C 0.57555 0.95862 0.47541 0.0
C1078 C 0.61028 0.02419 0.40627 0.0
C1079 C 0.60981 0.93642 0.44495 0.0
H1080 H 0.65629 0.97354 0.23549 0.0
H1081 H 0.69202 0.99081 0.41877 0.0
H1082 H 0.60131 0.95504 0.30114 0.0
H1083 H 0.60124 0.98567 0.28602 0.0
H1084 H 0.61563 0.96737 0.22808 0.0
H1085 H 0.6453 0.00631 0.51148 0.0
H1086 H 0.64415 0.97552 0.52557 0.0
H1087 H 0.67209 0.99297 0.52083 0.0
H1088 H 0.56735 0.01623 0.46167 0.0
H1089 H 0.56653 0.94222 0.49217 0.0
H1090 H 0.6131 0.02283 0.35185 0.0
H1091 H 0.62768 0.02833 0.42935 0.0
H1092 H 0.59966 0.03899 0.41698 0.0
H1093 H 0.61223 0.93121 0.39221 0.0
H1094 H 0.5993 0.92179 0.47021 0.0
H1095 H 0.62739 0.93903 0.46773 0.0
C1096 C 0.50886 0.67083 0.35876 0.0
C1097 C 0.52574 0.68741 0.38783 0.0
C1098 C 0.50505 0.64772 0.38165 0.0
C1099 C 0.51898 0.64056 0.43341 0.0
C1100 C 0.53548 0.65725 0.4645 0.0
C1101 C 0.53828 0.68051 0.44238 0.0
C1102 C 0.48665 0.63072 0.34867 0.0
C1103 C 0.55097 0.65029 0.51922 0.0
C1104 C 0.50133 0.58429 0.52671 0.0
C1105 C 0.51397 0.56813 0.49242 0.0
C1106 C 0.50227 0.60775 0.50698 0.0
C1107 C 0.51695 0.61544 0.45325 0.0
C1108 C 0.52987 0.59912 0.4187 0.0
C1109 C 0.52786 0.57552 0.43794 0.0
C1110 C 0.48746 0.62425 0.54336 0.0
C1111 C 0.5462 0.60671 0.36234 0.0
H1112 H 0.4992 0.67545 0.31602 0.0
H1113 H 0.55089 0.69309 0.46687 0.0
H1114 H 0.49518 0.61742 0.31903 0.0
H1115 H 0.47544 0.62121 0.38656 0.0
H1116 H 0.47533 0.63968 0.31523 0.0
H1117 H 0.56282 0.66538 0.53874 0.0
H1118 H 0.5402 0.64266 0.56082 0.0
H1119 H 0.56176 0.63655 0.50029 0.0
H1120 H 0.49038 0.57843 0.56847 0.0
H1121 H 0.53773 0.563 0.41177 0.0
H1122 H 0.47634 0.63242 0.50767 0.0
H1123 H 0.49881 0.63867 0.56791 0.0
H1124 H 0.47602 0.61519 0.58161 0.0
H1125 H 0.53628 0.61369 0.32164 0.0
H1126 H 0.55557 0.59206 0.34205 0.0
H1127 H 0.55931 0.62109 0.37963 0.0
C1128 C 0.85896 0.52623 0.25379 0.0
C1129 C 0.84044 0.50985 0.27398 0.0
C1130 C 0.88037 0.52898 0.28777 0.0
C1131 C 0.88382 0.51449 0.34207 0.0
C1132 C 0.86508 0.49847 0.3641 0.0
C1133 C 0.84357 0.49673 0.33085 0.0
C1134 C 0.8996 0.54689 0.26404 0.0
C1135 C 0.86806 0.48235 0.42104 0.0
C1136 C 0.94602 0.5012 0.37814 0.0
C1137 C 0.95096 0.51434 0.43656 0.0
C1138 C 0.92425 0.50111 0.34691 0.0
C1139 C 0.90732 0.51512 0.37365 0.0
C1140 C 0.91266 0.52906 0.43159 0.0
C1141 C 0.93426 0.52812 0.46313 0.0
C1142 C 0.9191 0.48545 0.28648 0.0
C1143 C 0.89552 0.54487 0.46041 0.0
H1144 H 0.85718 0.53637 0.20976 0.0
H1145 H 0.82936 0.48455 0.34874 0.0
H1146 H 0.90724 0.55761 0.30652 0.0
H1147 H 0.91383 0.53779 0.24084 0.0
H1148 H 0.89325 0.55882 0.22708 0.0
H1149 H 0.85173 0.47101 0.43259 0.0
H1150 H 0.88202 0.47092 0.40867 0.0
H1151 H 0.87361 0.49274 0.46625 0.0
H1152 H 0.95893 0.49036 0.35819 0.0
H1153 H 0.93819 0.53827 0.50843 0.0
H1154 H 0.91496 0.4961 0.24371 0.0
H1155 H 0.90352 0.47283 0.29611 0.0
H1156 H 0.934 0.47541 0.27246 0.0
H1157 H 0.88993 0.55648 0.42154 0.0
H1158 H 0.90305 0.55597 0.5024 0.0
H1159 H 0.87964 0.53416 0.47836 0.0
loop_
_geom_bond_atom_site_label_1
_geom_bond_atom_site_label_2
_geom_bond_distance
_geom_bond_site_symmetry_2
_ccdc_geom_bond_type
C0 C1 1.386 . S
C0 C2 1.397 . S
C0 H24 0.931 . S
C1 C0 1.386 . S
C1 C5 1.397 . S
C2 C0 1.397 . S
C2 C3 1.384 . S
C2 H25 0.930 . S
C3 C2 1.384 . S
C3 C4 1.377 . S
C3 C6 1.481 . S
C4 C3 1.377 . S
C4 C5 1.389 . S
C4 H26 0.929 . S
C5 C1 1.397 . S
C5 C4 1.389 . S
C5 H27 0.931 . S
C6 C3 1.481 . S
C6 C7 1.387 . S
C6 C11 1.390 1_556 S
C7 C6 1.387 . S
C7 C8 1.401 1_556 S
C7 H28 0.930 . S
C8 C7 1.401 1_554 S
C8 C9 1.376 . S
C8 C17 1.511 1_554 S
C9 C8 1.376 . S
C9 C10 1.392 . S
C9 H30 0.931 . S
C10 C9 1.392 . S
C10 C11 1.361 . S
C10 C12 1.500 . S
C11 C6 1.390 1_554 S
C11 C10 1.361 . S
C11 H29 0.931 . S
C12 C10 1.500 . S
C12 C13 1.371 . S
C12 C14 1.365 . S
C13 C12 1.371 . S
C13 C23 1.386 . S
C13 H31 0.931 . S
C14 C12 1.365 . S
C14 C15 1.409 . S
C14 H32 0.929 . S
C15 C14 1.409 . S
C15 C16 1.380 . S
C15 H33 0.930 . S
C16 C15 1.380 . S
C16 C23 1.357 . S
C17 C8 1.511 1_556 S
C17 C18 1.341 . S
C17 C19 1.371 1_556 S
C18 C17 1.341 . S
C18 C22 1.394 . S
C18 H34 0.930 . S
C19 C17 1.371 1_554 S
C19 C20 1.392 . S
C19 H35 0.931 . S
C20 C19 1.392 . S
C20 C21 1.331 1_554 S
C20 H38 0.932 . S
C21 C20 1.331 1_556 S
C21 C22 1.336 . S
C22 C18 1.394 . S
C22 C21 1.336 . S
C22 H37 0.929 . S
C23 C13 1.386 . S
C23 C16 1.357 . S
C23 H36 0.928 . S
H24 C0 0.931 . S
H25 C2 0.930 . S
H26 C4 0.929 . S
H27 C5 0.931 . S
H28 C7 0.930 . S
H29 C11 0.931 . S
H30 C9 0.931 . S
H31 C13 0.931 . S
H32 C14 0.929 . S
H33 C15 0.930 . S
H34 C18 0.930 . S
H35 C19 0.931 . S
H36 C23 0.928 . S
H37 C22 0.929 . S
H38 C20 0.932 . S
C39 C40 1.386 . S
C39 C41 1.397 . S
C39 H63 0.931 . S
C40 C39 1.386 . S
C40 C44 1.397 . S
C41 C39 1.397 . S
C41 C42 1.384 . S
C41 H64 0.930 . S
C42 C41 1.384 . S
C42 C43 1.377 . S
C42 C45 1.481 . S
C43 C42 1.377 . S
C43 C44 1.389 . S
C43 H65 0.929 . S
C44 C40 1.397 . S
C44 C43 1.389 . S
C44 H66 0.931 . S
C45 C42 1.481 . S
C45 C46 1.387 . S
C45 C50 1.390 1_556 S
C46 C45 1.387 . S
C46 C47 1.401 . S
C46 H67 0.930 . S
C47 C46 1.401 . S
C47 C48 1.376 1_556 S
C47 C56 1.511 . S
C48 C47 1.376 1_554 S
C48 C49 1.392 . S
C48 H69 0.931 . S
C49 C48 1.392 . S
C49 C50 1.361 . S
C49 C51 1.500 . S
C50 C45 1.390 1_554 S
C50 C49 1.361 . S
C50 H68 0.931 . S
C51 C49 1.500 . S
C51 C52 1.371 . S
C51 C53 1.365 . S
C52 C51 1.371 . S
C52 C62 1.386 . S
C52 H70 0.931 . S
C53 C51 1.365 . S
C53 C54 1.409 . S
C53 H71 0.929 . S
C54 C53 1.409 . S
C54 C55 1.380 . S
C54 H72 0.930 . S
C55 C54 1.380 . S
C55 C62 1.357 . S
C56 C47 1.511 . S
C56 C57 1.341 . S
C56 C58 1.371 1_556 S
C57 C56 1.341 . S
C57 C61 1.394 . S
C57 H73 0.930 . S
C58 C56 1.371 1_554 S
C58 C59 1.392 . S
C58 H74 0.931 . S
C59 C58 1.392 . S
C59 C60 1.331 1_554 S
C59 H77 0.932 . S
C60 C59 1.331 1_556 S
C60 C61 1.336 . S
C61 C57 1.394 . S
C61 C60 1.336 . S
C61 H76 0.929 . S
C62 C52 1.386 . S
C62 C55 1.357 . S
C62 H75 0.928 . S
H63 C39 0.931 . S
H64 C41 0.930 . S
H65 C43 0.929 . S
H66 C44 0.931 . S
H67 C46 0.930 . S
H68 C50 0.931 . S
H69 C48 0.931 . S
H70 C52 0.931 . S
H71 C53 0.929 . S
H72 C54 0.930 . S
H73 C57 0.930 . S
H74 C58 0.931 . S
H75 C62 0.928 . S
H76 C61 0.929 . S
H77 C59 0.932 . S
C78 C79 1.395 . S
C78 C80 1.397 . S
C78 H102 0.931 . S
C79 C78 1.395 . S
C79 C83 1.389 1_565 S
C80 C78 1.397 . S
C80 C81 1.389 . S
C80 H103 0.930 . S
C81 C80 1.389 . S
C81 C82 1.372 1_565 S
C81 C84 1.478 . S
C82 C81 1.372 1_545 S
C82 C83 1.389 . S
C82 H104 0.929 . S
C83 C79 1.389 1_545 S
C83 C82 1.389 . S
C83 H105 0.931 . S
C84 C81 1.478 . S
C84 C85 1.392 . S
C84 C89 1.390 1_556 S
C85 C84 1.392 . S
C85 C86 1.399 1_556 S
C85 H106 0.930 . S
C86 C85 1.399 1_554 S
C86 C87 1.376 . S
C86 C95 1.516 . S
C87 C86 1.376 . S
C87 C88 1.387 . S
C87 H108 0.938 . S
C88 C87 1.387 . S
C88 C89 1.362 . S
C88 C90 1.499 1_565 S
C89 C84 1.390 1_554 S
C89 C88 1.362 . S
C89 H107 0.930 . S
C90 C88 1.499 1_545 S
C90 C91 1.360 1_545 S
C90 C92 1.377 . S
C91 C90 1.360 1_565 S
C91 C101 1.386 . S
C91 H109 0.931 . S
C92 C90 1.377 . S
C92 C93 1.409 . S
C92 H110 0.929 . S
C93 C92 1.409 . S
C93 C94 1.379 . S
C93 H111 0.930 . S
C94 C93 1.379 . S
C94 C101 1.358 1_545 S
C95 C86 1.516 . S
C95 C96 1.341 1_554 S
C95 C97 1.371 1_565 S
C96 C95 1.341 1_556 S
C96 C100 1.394 . S
C96 H112 0.930 . S
C97 C95 1.371 1_545 S
C97 C98 1.392 . S
C97 H113 0.931 . S
C98 C97 1.392 . S
C98 C99 1.322 1_544 S
C98 H116 0.932 . S
C99 C98 1.322 1_566 S
C99 C100 1.343 . S
C100 C96 1.394 . S
C100 C99 1.343 . S
C100 H115 0.929 . S
C101 C91 1.386 . S
C101 C94 1.358 1_565 S
C101 H114 0.928 . S
H102 C78 0.931 . S
H103 C80 0.930 . S
H104 C82 0.929 . S
H105 C83 0.931 . S
H106 C85 0.930 . S
H107 C89 0.930 . S
H108 C87 0.938 . S
H109 C91 0.931 . S
H110 C92 0.929 . S
H111 C93 0.930 . S
H112 C96 0.930 . S
H113 C97 0.931 . S
H114 C101 0.928 . S
H115 C100 0.929 . S
H116 C98 0.932 . S
C117 C118 1.386 . S
C117 C119 1.397 . S
C117 H141 0.931 . S
C118 C117 1.386 . S
C118 C122 1.397 . S
C119 C117 1.397 . S
C119 C120 1.384 . S
C119 H142 0.930 . S
C120 C119 1.384 . S
C120 C121 1.377 . S
C120 C123 1.481 . S
C121 C120 1.377 . S
C121 C122 1.389 . S
C121 H143 0.929 . S
C122 C118 1.397 . S
C122 C121 1.389 . S
C122 H144 0.931 . S
C123 C120 1.481 . S
C123 C124 1.387 . S
C123 C128 1.390 . S
C124 C123 1.387 . S
C124 C125 1.401 . S
C124 H145 0.930 . S
C125 C124 1.401 . S
C125 C126 1.376 1_554 S
C125 C134 1.511 . S
C126 C125 1.376 1_556 S
C126 C127 1.392 1_556 S
C126 H147 0.931 . S
C127 C126 1.392 1_554 S
C127 C128 1.361 . S
C127 C129 1.500 1_554 S
C128 C123 1.390 . S
C128 C127 1.361 . S
C128 H146 0.931 . S
C129 C127 1.500 1_556 S
C129 C130 1.371 . S
C129 C131 1.365 . S
C130 C129 1.371 . S
C130 C140 1.386 . S
C130 H148 0.931 . S
C131 C129 1.365 . S
C131 C132 1.409 . S
C131 H149 0.929 1_556 S
C132 C131 1.409 . S
C132 C133 1.380 . S
C132 H150 0.930 . S
C133 C132 1.380 . S
C133 C140 1.357 . S
C134 C125 1.511 . S
C134 C135 1.341 . S
C134 C136 1.371 1_554 S
C135 C134 1.341 . S
C135 C139 1.394 . S
C135 H151 0.930 . S
C136 C134 1.371 1_556 S
C136 C137 1.392 . S
C136 H152 0.931 . S
C137 C136 1.392 . S
C137 C138 1.331 1_556 S
C137 H155 0.932 . S
C138 C137 1.331 1_554 S
C138 C139 1.336 . S
C139 C135 1.394 . S
C139 C138 1.336 . S
C139 H154 0.929 . S
C140 C130 1.386 . S
C140 C133 1.357 . S
C140 H153 0.928 . S
H141 C117 0.931 . S
H142 C119 0.930 . S
H143 C121 0.929 . S
H144 C122 0.931 . S
H145 C124 0.930 . S
H146 C128 0.931 . S
H147 C126 0.931 . S
H148 C130 0.931 . S
H149 C131 0.929 1_554 S
H150 C132 0.930 . S
H151 C135 0.930 . S
H152 C136 0.931 . S
H153 C140 0.928 . S
H154 C139 0.929 . S
H155 C137 0.932 . S
C156 C157 1.386 . S
C156 C158 1.397 . S
C156 H180 0.931 . S
C157 C156 1.386 . S
C157 C161 1.397 . S
C158 C156 1.397 . S
C158 C159 1.384 . S
C158 H181 0.930 . S
C159 C158 1.384 . S
C159 C160 1.377 . S
C159 C162 1.481 . S
C160 C159 1.377 . S
C160 C161 1.389 . S
C160 H182 0.929 . S
C161 C157 1.397 . S
C161 C160 1.389 . S
C161 H183 0.931 . S
C162 C159 1.481 . S
C162 C163 1.387 . S
C162 C167 1.390 . S
C163 C162 1.387 . S
C163 C164 1.401 . S
C163 H184 0.930 . S
C164 C163 1.401 . S
C164 C165 1.376 . S
C164 C173 1.511 . S
C165 C164 1.376 . S
C165 C166 1.392 . S
C165 H186 0.931 . S
C166 C165 1.392 . S
C166 C167 1.361 . S
C166 C168 1.500 1_554 S
C167 C162 1.390 . S
C167 C166 1.361 . S
C167 H185 0.931 . S
C168 C166 1.500 1_556 S
C168 C169 1.371 . S
C168 C170 1.365 . S
C169 C168 1.371 . S
C169 C179 1.386 . S
C169 H187 0.931 . S
C170 C168 1.365 . S
C170 C171 1.409 . S
C170 H188 0.929 . S
C171 C170 1.409 . S
C171 C172 1.380 . S
C171 H189 0.930 . S
C172 C171 1.380 . S
C172 C179 1.357 . S
C173 C164 1.511 . S
C173 C174 1.341 . S
C173 C175 1.371 . S
C174 C173 1.341 . S
C174 C178 1.394 . S
C174 H190 0.930 . S
C175 C173 1.371 . S
C175 C176 1.392 . S
C175 H191 0.931 . S
C176 C175 1.392 . S
C176 C177 1.331 . S
C176 H194 0.932 . S
C177 C176 1.331 . S
C177 C178 1.336 . S
C178 C174 1.394 . S
C178 C177 1.336 . S
C178 H193 0.929 . S
C179 C169 1.386 . S
C179 C172 1.357 . S
C179 H192 0.928 . S
H180 C156 0.931 . S
H181 C158 0.930 . S
H182 C160 0.929 . S
H183 C161 0.931 . S
H184 C163 0.930 . S
H185 C167 0.931 . S
H186 C165 0.931 . S
H187 C169 0.931 . S
H188 C170 0.929 . S
H189 C171 0.930 . S
H190 C174 0.930 . S
H191 C175 0.931 . S
H192 C179 0.928 . S
H193 C178 0.929 . S
H194 C176 0.932 . S
C195 C196 1.386 . S
C195 C197 1.397 . S
C195 H219 0.931 . S
C196 C195 1.386 . S
C196 C200 1.397 . S
C197 C195 1.397 . S
C197 C198 1.384 . S
C197 H220 0.930 . S
C198 C197 1.384 . S
C198 C199 1.377 . S
C198 C201 1.481 . S
C199 C198 1.377 . S
C199 C200 1.389 . S
C199 H221 0.929 . S
C200 C196 1.397 . S
C200 C199 1.389 . S
C200 H222 0.931 . S
C201 C198 1.481 . S
C201 C202 1.387 . S
C201 C206 1.390 . S
C202 C201 1.387 . S
C202 C203 1.401 . S
C202 H223 0.930 . S
C203 C202 1.401 . S
C203 C204 1.376 . S
C203 C212 1.511 . S
C204 C203 1.376 . S
C204 C205 1.392 . S
C204 H225 0.931 . S
C205 C204 1.392 . S
C205 C206 1.361 . S
C205 C207 1.500 1_554 S
C206 C201 1.390 . S
C206 C205 1.361 . S
C206 H224 0.931 . S
C207 C205 1.500 1_556 S
C207 C208 1.371 . S
C207 C209 1.365 . S
C208 C207 1.371 . S
C208 C218 1.386 . S
C208 H226 0.931 . S
C209 C207 1.365 . S
C209 C210 1.409 . S
C209 H227 0.929 . S
C210 C209 1.409 . S
C210 C211 1.380 . S
C210 H228 0.930 . S
C211 C210 1.380 . S
C211 C218 1.357 . S
C212 C203 1.511 . S
C212 C213 1.341 . S
C212 C214 1.371 . S
C213 C212 1.341 . S
C213 C217 1.394 . S
C213 H229 0.930 . S
C214 C212 1.371 . S
C214 C215 1.392 . S
C214 H230 0.931 . S
C215 C214 1.392 . S
C215 C216 1.331 . S
C215 H233 0.932 . S
C216 C215 1.331 . S
C216 C217 1.336 . S
C217 C213 1.394 . S
C217 C216 1.336 . S
C217 H232 0.929 . S
C218 C208 1.386 . S
C218 C211 1.357 . S
C218 H231 0.928 . S
H219 C195 0.931 . S
H220 C197 0.930 . S
H221 C199 0.929 . S
H222 C200 0.931 . S
H223 C202 0.930 . S
H224 C206 0.931 . S
H225 C204 0.931 . S
H226 C208 0.931 . S
H227 C209 0.929 . S
H228 C210 0.930 . S
H229 C213 0.930 . S
H230 C214 0.931 . S
H231 C218 0.928 . S
H232 C217 0.929 . S
H233 C215 0.932 . S
C234 C235 1.387 . S
C234 C236 1.397 . S
C234 H258 0.931 . S
C235 C234 1.387 . S
C235 C239 1.396 1_565 S
C236 C234 1.397 . S
C236 C237 1.382 . S
C236 H259 0.930 . S
C237 C236 1.382 . S
C237 C238 1.379 1_565 S
C237 C240 1.483 . S
C238 C237 1.379 1_545 S
C238 C239 1.389 . S
C238 H260 0.929 . S
C239 C235 1.396 1_545 S
C239 C238 1.389 . S
C239 H261 0.931 . S
C240 C237 1.483 . S
C240 C241 1.386 . S
C240 C245 1.390 . S
C241 C240 1.386 . S
C241 C242 1.404 . S
C241 H262 0.930 . S
C242 C241 1.404 . S
C242 C243 1.376 . S
C242 C251 1.510 . S
C243 C242 1.376 . S
C243 C244 1.395 1_565 S
C243 H264 0.930 1_554 S
C244 C243 1.395 1_545 S
C244 C245 1.361 1_545 S
C244 C246 1.500 1_554 S
C245 C240 1.390 . S
C245 C244 1.361 1_565 S
C245 H263 0.932 . S
C246 C244 1.500 1_556 S
C246 C247 1.359 1_545 S
C246 C248 1.378 . S
C247 C246 1.359 1_565 S
C247 C257 1.386 . S
C247 H265 0.931 . S
C248 C246 1.378 . S
C248 C249 1.409 . S
C248 H266 0.929 . S
C249 C248 1.409 . S
C249 C250 1.384 . S
C249 H267 0.930 . S
C250 C249 1.384 . S
C250 C257 1.354 1_545 S
C251 C242 1.510 . S
C251 C252 1.341 . S
C251 C253 1.371 1_565 S
C252 C251 1.341 . S
C252 C256 1.394 . S
C252 H268 0.930 . S
C253 C251 1.371 1_545 S
C253 C254 1.392 . S
C253 H269 0.931 . S
C254 C253 1.392 . S
C254 C255 1.326 1_545 S
C254 H272 0.932 . S
C255 C254 1.326 1_565 S
C255 C256 1.343 . S
C256 C252 1.394 . S
C256 C255 1.343 . S
C256 H271 0.929 . S
C257 C247 1.386 . S
C257 C250 1.354 1_565 S
C257 H270 0.928 . S
H258 C234 0.931 . S
H259 C236 0.930 . S
H260 C238 0.929 . S
H261 C239 0.931 . S
H262 C241 0.930 . S
H263 C245 0.932 . S
H264 C243 0.930 1_556 S
H265 C247 0.931 . S
H266 C248 0.929 . S
H267 C249 0.930 . S
H268 C252 0.930 . S
H269 C253 0.931 . S
H270 C257 0.928 . S
H271 C256 0.929 . S
H272 C254 0.932 . S
C273 C274 1.386 . S
C273 C275 1.397 . S
C273 H297 0.931 . S
C274 C273 1.386 . S
C274 C278 1.397 . S
C275 C273 1.397 . S
C275 C276 1.384 . S
C275 H298 0.930 . S
C276 C275 1.384 . S
C276 C277 1.377 . S
C276 C279 1.481 . S
C277 C276 1.377 . S
C277 C278 1.389 . S
C277 H299 0.929 . S
C278 C274 1.397 . S
C278 C277 1.389 . S
C278 H300 0.931 . S
C279 C276 1.481 . S
C279 C280 1.387 1_556 S
C279 C284 1.390 1_556 S
C280 C279 1.387 1_554 S
C280 C281 1.401 . S
C280 H301 0.930 1_554 S
C281 C280 1.401 . S
C281 C282 1.376 . S
C281 C290 1.511 . S
C282 C281 1.376 . S
C282 C283 1.392 . S
C282 H303 0.931 . S
C283 C282 1.392 . S
C283 C284 1.361 . S
C283 C285 1.500 . S
C284 C279 1.390 1_554 S
C284 C283 1.361 . S
C284 H302 0.931 . S
C285 C283 1.500 . S
C285 C286 1.371 . S
C285 C287 1.365 . S
C286 C285 1.371 . S
C286 C296 1.386 . S
C286 H304 0.931 . S
C287 C285 1.365 . S
C287 C288 1.409 . S
C287 H305 0.929 . S
C288 C287 1.409 . S
C288 C289 1.380 . S
C288 H306 0.930 . S
C289 C288 1.380 . S
C289 C296 1.357 . S
C290 C281 1.511 . S
C290 C291 1.341 . S
C290 C292 1.371 . S
C291 C290 1.341 . S
C291 C295 1.394 . S
C291 H307 0.936 . S
C292 C290 1.371 . S
C292 C293 1.392 . S
C292 H308 0.931 . S
C293 C292 1.392 . S
C293 C294 1.331 . S
C293 H311 0.932 . S
C294 C293 1.331 . S
C294 C295 1.336 . S
C295 C291 1.394 . S
C295 C294 1.336 . S
C295 H310 0.929 . S
C296 C286 1.386 . S
C296 C289 1.357 . S
C296 H309 0.928 . S
H297 C273 0.931 . S
H298 C275 0.930 . S
H299 C277 0.929 . S
H300 C278 0.931 . S
H301 C280 0.930 1_556 S
H302 C284 0.931 . S
H303 C282 0.931 . S
H304 C286 0.931 . S
H305 C287 0.929 . S
H306 C288 0.930 . S
H307 C291 0.936 . S
H308 C292 0.931 . S
H309 C296 0.928 . S
H310 C295 0.929 . S
H311 C293 0.932 . S
Dy312 O316 2.398 . S
Dy312 O317 2.491 1_455 S
Dy312 O318 2.403 . S
Dy312 O319 2.664 1_565 S
Dy312 O323 2.326 . S
Dy312 O327 2.310 1_455 S
Dy312 O328 2.351 1_565 S
C313 O324 1.185 1_455 S
C313 O325 1.355 . S
C314 O316 1.185 . S
C314 O317 1.355 1_455 S
Dy315 O319 2.310 1_655 S
Dy315 O322 2.351 1_545 S
Dy315 O324 2.398 . S
Dy315 O325 2.491 1_655 S
Dy315 O326 2.403 . S
Dy315 O327 2.664 1_545 S
Dy315 O329 2.326 1_655 S
O316 Dy312 2.398 . S
O316 C314 1.185 . S
O317 Dy312 2.491 1_655 S
O317 C314 1.355 1_655 S
O318 Dy312 2.403 . S
O318 C320 1.254 . S
O319 Dy312 2.664 1_545 S
O319 Dy315 2.310 1_455 S
O319 C320 1.268 1_545 S
C320 O318 1.254 . S
C320 O319 1.268 1_565 S
C321 O326 1.254 . S
C321 O327 1.268 1_545 S
O322 Dy315 2.351 1_565 S
O322 C330 1.249 . S
O323 Dy312 2.326 . S
O323 C330 1.267 1_455 S
O324 C313 1.185 1_655 S
O324 Dy315 2.398 . S
O325 C313 1.355 . S
O325 Dy315 2.491 1_455 S
O326 Dy315 2.403 . S
O326 C321 1.254 . S
O327 Dy312 2.310 1_655 S
O327 Dy315 2.664 1_565 S
O327 C321 1.268 1_565 S
O328 Dy312 2.351 1_545 S
O328 C331 1.249 . S
O329 Dy315 2.326 1_455 S
O329 C331 1.267 . S
C330 O322 1.249 . S
C330 O323 1.267 1_655 S
C331 O328 1.249 . S
C331 O329 1.267 . S
Dy332 O336 2.398 . S
Dy332 O337 2.491 . S
Dy332 O338 2.403 . S
Dy332 O339 2.664 . S
Dy332 O343 2.326 1_565 S
Dy332 O347 2.310 1_565 S
Dy332 O348 2.351 . S
C333 O344 1.185 . S
C333 O345 1.355 . S
C334 O336 1.185 . S
C334 O337 1.355 . S
Dy335 O339 2.310 1_545 S
Dy335 O342 2.351 . S
Dy335 O344 2.398 . S
Dy335 O345 2.491 . S
Dy335 O346 2.403 . S
Dy335 O347 2.664 . S
Dy335 O349 2.326 1_545 S
O336 Dy332 2.398 . S
O336 C334 1.185 . S
O337 Dy332 2.491 . S
O337 C334 1.355 . S
O338 Dy332 2.403 . S
O338 C340 1.254 . S
O339 Dy332 2.664 . S
O339 Dy335 2.310 1_565 S
O339 C340 1.268 . S
C340 O338 1.254 . S
C340 O339 1.268 . S
C341 O346 1.254 . S
C341 O347 1.268 . S
O342 Dy335 2.351 . S
O342 C350 1.249 . S
O343 Dy332 2.326 1_545 S
O343 C350 1.267 . S
O344 C333 1.185 . S
O344 Dy335 2.398 . S
O345 C333 1.355 . S
O345 Dy335 2.491 . S
O346 Dy335 2.403 . S
O346 C341 1.254 . S
O347 Dy332 2.310 1_545 S
O347 Dy335 2.664 . S
O347 C341 1.268 . S
O348 Dy332 2.351 . S
O348 C351 1.249 . S
O349 Dy335 2.326 1_565 S
O349 C351 1.267 . S
C350 O342 1.249 . S
C350 O343 1.267 . S
C351 O348 1.249 . S
C351 O349 1.267 . S
Dy352 O356 2.398 . S
Dy352 O357 2.491 . S
Dy352 O358 2.403 . S
Dy352 O359 2.664 . S
Dy352 O363 2.326 . S
Dy352 O367 2.310 . S
Dy352 O368 2.351 . S
C353 O364 1.185 . S
C353 O365 1.355 . S
C354 O356 1.185 . S
C354 O357 1.355 . S
Dy355 O359 2.310 . S
Dy355 O362 2.351 . S
Dy355 O364 2.398 . S
Dy355 O365 2.491 . S
Dy355 O366 2.403 . S
Dy355 O367 2.664 . S
Dy355 O369 2.326 . S
O356 Dy352 2.398 . S
O356 C354 1.185 . S
O357 Dy352 2.491 . S
O357 C354 1.355 . S
O358 Dy352 2.403 . S
O358 C360 1.254 . S
O359 Dy352 2.664 . S
O359 Dy355 2.310 . S
O359 C360 1.268 . S
C360 O358 1.254 . S
C360 O359 1.268 . S
C361 O366 1.254 . S
C361 O367 1.268 . S
O362 Dy355 2.351 . S
O362 C370 1.249 . S
O363 Dy352 2.326 . S
O363 C370 1.267 . S
O364 C353 1.185 . S
O364 Dy355 2.398 . S
O365 C353 1.355 . S
O365 Dy355 2.491 . S
O366 Dy355 2.403 . S
O366 C361 1.254 . S
O367 Dy352 2.310 . S
O367 Dy355 2.664 . S
O367 C361 1.268 . S
O368 Dy352 2.351 . S
O368 C371 1.249 . S
O369 Dy355 2.326 . S
O369 C371 1.267 . S
C370 O362 1.249 . S
C370 O363 1.267 . S
C371 O368 1.249 . S
C371 O369 1.267 . S
Dy372 O376 2.398 . S
Dy372 O377 2.491 . S
Dy372 O378 2.403 1_655 S
Dy372 O379 2.664 1_655 S
Dy372 O383 2.326 . S
Dy372 O387 2.310 . S
Dy372 O388 2.351 1_655 S
C373 O384 1.185 . S
C373 O385 1.355 . S
C374 O376 1.185 . S
C374 O377 1.355 . S
Dy375 O379 2.310 . S
Dy375 O382 2.351 1_455 S
Dy375 O384 2.398 . S
Dy375 O385 2.491 . S
Dy375 O386 2.403 . S
Dy375 O387 2.664 1_455 S
Dy375 O389 2.326 . S
O376 Dy372 2.398 . S
O376 C374 1.185 . S
O377 Dy372 2.491 . S
O377 C374 1.355 . S
O378 Dy372 2.403 1_455 S
O378 C380 1.254 . S
O379 Dy372 2.664 1_455 S
O379 Dy375 2.310 . S
O379 C380 1.268 . S
C380 O378 1.254 . S
C380 O379 1.268 . S
C381 O386 1.254 1_655 S
C381 O387 1.268 . S
O382 Dy375 2.351 1_655 S
O382 C390 1.249 . S
O383 Dy372 2.326 . S
O383 C390 1.267 . S
O384 C373 1.185 . S
O384 Dy375 2.398 . S
O385 C373 1.355 . S
O385 Dy375 2.491 . S
O386 Dy375 2.403 . S
O386 C381 1.254 1_455 S
O387 Dy372 2.310 . S
O387 Dy375 2.664 1_655 S
O387 C381 1.268 . S
O388 Dy372 2.351 1_455 S
O388 C391 1.249 . S
O389 Dy375 2.326 . S
O389 C391 1.267 . S
C390 O382 1.249 . S
C390 O383 1.267 . S
C391 O388 1.249 . S
C391 O389 1.267 . S
C392 C393 1.391 . S
C392 C394 1.394 . S
C392 H408 0.931 . S
C393 C392 1.391 . S
C393 C397 1.376 1_545 S
C394 C392 1.394 . S
C394 C395 1.369 . S
C394 C398 1.531 . S
C395 C394 1.369 . S
C395 C396 1.410 1_545 S
C395 C403 1.503 . S
C396 C395 1.410 1_565 S
C396 C397 1.392 . S
C396 C399 1.511 . S
C397 C393 1.376 1_565 S
C397 C396 1.392 . S
C397 H409 0.929 . S
C398 C394 1.531 . S
C398 H410 0.960 . S
C398 H411 0.962 . S
C398 H412 0.960 . S
C399 C396 1.511 . S
C399 H413 0.961 . S
C399 H414 0.961 . S
C399 H415 0.961 . S
C400 C401 1.370 . S
C400 C402 1.363 . S
C400 H416 0.931 . S
C401 C400 1.370 . S
C401 C405 1.408 1_565 S
C402 C400 1.363 . S
C402 C403 1.370 1_565 S
C402 C406 1.524 . S
C403 C395 1.503 . S
C403 C402 1.370 1_545 S
C403 C404 1.403 . S
C404 C403 1.403 . S
C404 C405 1.404 . S
C404 C407 1.539 . S
C405 C401 1.408 1_545 S
C405 C404 1.404 . S
C405 H417 0.930 . S
C406 C402 1.524 . S
C406 H418 0.956 . S
C406 H419 0.961 . S
C406 H420 0.961 . S
C407 C404 1.539 . S
C407 H421 0.958 . S
C407 H422 0.961 . S
C407 H423 0.960 . S
H408 C392 0.931 . S
H409 C397 0.929 . S
H410 C398 0.960 . S
H411 C398 0.962 . S
H412 C398 0.960 . S
H413 C399 0.961 . S
H414 C399 0.961 . S
H415 C399 0.961 . S
H416 C400 0.931 . S
H417 C405 0.930 . S
H418 C406 0.956 . S
H419 C406 0.961 . S
H420 C406 0.961 . S
H421 C407 0.958 . S
H422 C407 0.961 . S
H423 C407 0.960 . S
C424 C425 1.391 . S
C424 C426 1.394 . S
C424 H440 0.931 . S
C425 C424 1.391 . S
C425 C429 1.376 . S
C426 C424 1.394 . S
C426 C427 1.369 . S
C426 C430 1.531 . S
C427 C426 1.369 . S
C427 C428 1.410 . S
C427 C435 1.503 . S
C428 C427 1.410 . S
C428 C429 1.392 . S
C428 C431 1.511 . S
C429 C425 1.376 . S
C429 C428 1.392 . S
C429 H441 0.929 . S
C430 C426 1.531 . S
C430 H442 0.960 . S
C430 H443 0.962 . S
C430 H444 0.960 . S
C431 C428 1.511 . S
C431 H445 0.961 . S
C431 H446 0.961 . S
C431 H447 0.961 . S
C432 C433 1.370 . S
C432 C434 1.363 . S
C432 H448 0.931 . S
C433 C432 1.370 . S
C433 C437 1.408 . S
C434 C432 1.363 . S
C434 C435 1.370 . S
C434 C438 1.524 . S
C435 C427 1.503 . S
C435 C434 1.370 . S
C435 C436 1.403 . S
C436 C435 1.403 . S
C436 C437 1.404 . S
C436 C439 1.539 . S
C437 C433 1.408 . S
C437 C436 1.404 . S
C437 H449 0.930 . S
C438 C434 1.524 . S
C438 H450 0.956 . S
C438 H451 0.961 . S
C438 H452 0.961 . S
C439 C436 1.539 . S
C439 H453 0.958 . S
C439 H454 0.961 . S
C439 H455 0.960 . S
H440 C424 0.931 . S
H441 C429 0.929 . S
H442 C430 0.960 . S
H443 C430 0.962 . S
H444 C430 0.960 . S
H445 C431 0.961 . S
H446 C431 0.961 . S
H447 C431 0.961 . S
H448 C432 0.931 . S
H449 C437 0.930 . S
H450 C438 0.956 . S
H451 C438 0.961 . S
H452 C438 0.961 . S
H453 C439 0.958 . S
H454 C439 0.961 . S
H455 C439 0.960 . S
C456 C457 1.391 . S
C456 C458 1.394 . S
C456 H472 0.931 . S
C457 C456 1.391 . S
C457 C461 1.376 . S
C458 C456 1.394 . S
C458 C459 1.369 . S
C458 C462 1.531 . S
C459 C458 1.369 . S
C459 C460 1.410 . S
C459 C467 1.503 . S
C460 C459 1.410 . S
C460 C461 1.392 . S
C460 C463 1.511 . S
C461 C457 1.376 . S
C461 C460 1.392 . S
C461 H473 0.929 . S
C462 C458 1.531 . S
C462 H474 0.960 . S
C462 H475 0.962 . S
C462 H476 0.960 . S
C463 C460 1.511 . S
C463 H477 0.961 . S
C463 H478 0.961 . S
C463 H479 0.961 . S
C464 C465 1.370 . S
C464 C466 1.363 . S
C464 H480 0.931 . S
C465 C464 1.370 . S
C465 C469 1.408 . S
C466 C464 1.363 . S
C466 C467 1.370 . S
C466 C470 1.524 . S
C467 C459 1.503 . S
C467 C466 1.370 . S
C467 C468 1.403 . S
C468 C467 1.403 . S
C468 C469 1.404 . S
C468 C471 1.539 . S
C469 C465 1.408 . S
C469 C468 1.404 . S
C469 H481 0.930 . S
C470 C466 1.524 . S
C470 H482 0.956 . S
C470 H483 0.961 . S
C470 H484 0.961 . S
C471 C468 1.539 . S
C471 H485 0.958 . S
C471 H486 0.961 . S
C471 H487 0.960 . S
H472 C456 0.931 . S
H473 C461 0.929 . S
H474 C462 0.960 . S
H475 C462 0.962 . S
H476 C462 0.960 . S
H477 C463 0.961 . S
H478 C463 0.961 . S
H479 C463 0.961 . S
H480 C464 0.931 . S
H481 C469 0.930 . S
H482 C470 0.956 . S
H483 C470 0.961 . S
H484 C470 0.961 . S
H485 C471 0.958 . S
H486 C471 0.961 . S
H487 C471 0.960 . S
C488 C489 1.391 . S
C488 C490 1.394 . S
C488 H504 0.931 . S
C489 C488 1.391 . S
C489 C493 1.376 . S
C490 C488 1.394 . S
C490 C491 1.369 . S
C490 C494 1.531 . S
C491 C490 1.369 . S
C491 C492 1.410 . S
C491 C499 1.503 . S
C492 C491 1.410 . S
C492 C493 1.392 . S
C492 C495 1.511 . S
C493 C489 1.376 . S
C493 C492 1.392 . S
C493 H505 0.929 . S
C494 C490 1.531 . S
C494 H506 0.960 . S
C494 H507 0.962 . S
C494 H508 0.960 . S
C495 C492 1.511 . S
C495 H509 0.961 . S
C495 H510 0.961 . S
C495 H511 0.961 . S
C496 C497 1.370 . S
C496 C498 1.363 . S
C496 H512 0.931 . S
C497 C496 1.370 . S
C497 C501 1.408 . S
C498 C496 1.363 . S
C498 C499 1.370 . S
C498 C502 1.524 . S
C499 C491 1.503 . S
C499 C498 1.370 . S
C499 C500 1.403 . S
C500 C499 1.403 . S
C500 C501 1.404 . S
C500 C503 1.539 . S
C501 C497 1.408 . S
C501 C500 1.404 . S
C501 H513 0.930 . S
C502 C498 1.524 . S
C502 H514 0.956 . S
C502 H515 0.961 . S
C502 H516 0.961 . S
C503 C500 1.539 . S
C503 H517 0.958 . S
C503 H518 0.961 . S
C503 H519 0.960 . S
H504 C488 0.931 . S
H505 C493 0.929 . S
H506 C494 0.960 . S
H507 C494 0.962 . S
H508 C494 0.960 . S
H509 C495 0.961 . S
H510 C495 0.961 . S
H511 C495 0.961 . S
H512 C496 0.931 . S
H513 C501 0.930 . S
H514 C502 0.956 . S
H515 C502 0.961 . S
H516 C502 0.961 . S
H517 C503 0.958 . S
H518 C503 0.961 . S
H519 C503 0.960 . S
C520 C521 1.391 . S
C520 C522 1.394 . S
C520 H536 0.931 . S
C521 C520 1.391 . S
C521 C525 1.376 1_545 S
C522 C520 1.394 . S
C522 C523 1.369 . S
C522 C526 1.531 . S
C523 C522 1.369 . S
C523 C524 1.410 1_545 S
C523 C531 1.503 . S
C524 C523 1.410 1_565 S
C524 C525 1.392 . S
C524 C527 1.511 . S
C525 C521 1.376 1_565 S
C525 C524 1.392 . S
C525 H537 0.929 . S
C526 C522 1.531 . S
C526 H538 0.960 . S
C526 H539 0.962 . S
C526 H540 0.960 . S
C527 C524 1.511 . S
C527 H541 0.961 . S
C527 H542 0.961 . S
C527 H543 0.961 . S
C528 C529 1.370 1_565 S
C528 C530 1.363 . S
C528 H544 0.931 . S
C529 C528 1.370 1_545 S
C529 C533 1.408 . S
C530 C528 1.363 . S
C530 C531 1.370 1_565 S
C530 C534 1.524 . S
C531 C523 1.503 . S
C531 C530 1.370 1_545 S
C531 C532 1.403 . S
C532 C531 1.403 . S
C532 C533 1.404 . S
C532 C535 1.539 . S
C533 C529 1.408 . S
C533 C532 1.404 . S
C533 H545 0.930 . S
C534 C530 1.524 . S
C534 H546 0.956 . S
C534 H547 0.961 . S
C534 H548 0.961 . S
C535 C532 1.539 . S
C535 H549 0.958 . S
C535 H550 0.961 . S
C535 H551 0.960 . S
H536 C520 0.931 . S
H537 C525 0.929 . S
H538 C526 0.960 . S
H539 C526 0.962 . S
H540 C526 0.960 . S
H541 C527 0.961 . S
H542 C527 0.961 . S
H543 C527 0.961 . S
H544 C528 0.931 . S
H545 C533 0.930 . S
H546 C534 0.956 . S
H547 C534 0.961 . S
H548 C534 0.961 . S
H549 C535 0.958 . S
H550 C535 0.961 . S
H551 C535 0.960 . S
C552 C553 1.391 . S
C552 C554 1.394 . S
C552 H568 0.931 . S
C553 C552 1.391 . S
C553 C557 1.376 . S
C554 C552 1.394 . S
C554 C555 1.369 . S
C554 C558 1.531 . S
C555 C554 1.369 . S
C555 C556 1.410 . S
C555 C563 1.503 . S
C556 C555 1.410 . S
C556 C557 1.392 . S
C556 C559 1.511 . S
C557 C553 1.376 . S
C557 C556 1.392 . S
C557 H569 0.929 . S
C558 C554 1.531 . S
C558 H570 0.960 . S
C558 H571 0.962 . S
C558 H572 0.960 . S
C559 C556 1.511 . S
C559 H573 0.961 . S
C559 H574 0.961 . S
C559 H575 0.961 . S
C560 C561 1.370 . S
C560 C562 1.363 . S
C560 H576 0.931 . S
C561 C560 1.370 . S
C561 C565 1.408 . S
C562 C560 1.363 . S
C562 C563 1.370 . S
C562 C566 1.524 . S
C563 C555 1.503 . S
C563 C562 1.370 . S
C563 C564 1.403 . S
C564 C563 1.403 . S
C564 C565 1.404 . S
C564 C567 1.539 . S
C565 C561 1.408 . S
C565 C564 1.404 . S
C565 H577 0.930 . S
C566 C562 1.524 . S
C566 H578 0.956 . S
C566 H579 0.961 . S
C566 H580 0.961 . S
C567 C564 1.539 . S
C567 H581 0.958 . S
C567 H582 0.961 . S
C567 H583 0.960 . S
H568 C552 0.931 . S
H569 C557 0.929 . S
H570 C558 0.960 . S
H571 C558 0.962 . S
H572 C558 0.960 . S
H573 C559 0.961 . S
H574 C559 0.961 . S
H575 C559 0.961 . S
H576 C560 0.931 . S
H577 C565 0.930 . S
H578 C566 0.956 . S
H579 C566 0.961 . S
H580 C566 0.961 . S
H581 C567 0.958 . S
H582 C567 0.961 . S
H583 C567 0.960 . S
C584 C585 1.391 . S
C584 C586 1.394 . S
C584 H600 0.931 . S
C585 C584 1.391 . S
C585 C589 1.376 . S
C586 C584 1.394 . S
C586 C587 1.369 . S
C586 C590 1.531 . S
C587 C586 1.369 . S
C587 C588 1.410 . S
C587 C595 1.503 . S
C588 C587 1.410 . S
C588 C589 1.392 . S
C588 C591 1.511 . S
C589 C585 1.376 . S
C589 C588 1.392 . S
C589 H601 0.929 . S
C590 C586 1.531 . S
C590 H602 0.960 . S
C590 H603 0.962 . S
C590 H604 0.960 . S
C591 C588 1.511 . S
C591 H605 0.961 . S
C591 H606 0.961 . S
C591 H607 0.961 . S
C592 C593 1.370 . S
C592 C594 1.363 . S
C592 H608 0.931 . S
C593 C592 1.370 . S
C593 C597 1.408 . S
C594 C592 1.363 . S
C594 C595 1.370 . S
C594 C598 1.524 . S
C595 C587 1.503 . S
C595 C594 1.370 . S
C595 C596 1.403 . S
C596 C595 1.403 . S
C596 C597 1.404 . S
C596 C599 1.539 . S
C597 C593 1.408 . S
C597 C596 1.404 . S
C597 H609 0.930 . S
C598 C594 1.524 . S
C598 H610 0.956 . S
C598 H611 0.961 . S
C598 H612 0.961 . S
C599 C596 1.539 . S
C599 H613 0.958 . S
C599 H614 0.961 . S
C599 H615 0.960 . S
H600 C584 0.931 . S
H601 C589 0.929 . S
H602 C590 0.960 . S
H603 C590 0.962 . S
H604 C590 0.960 . S
H605 C591 0.961 . S
H606 C591 0.961 . S
H607 C591 0.961 . S
H608 C592 0.931 . S
H609 C597 0.930 . S
H610 C598 0.956 . S
H611 C598 0.961 . S
H612 C598 0.961 . S
H613 C599 0.958 . S
H614 C599 0.961 . S
H615 C599 0.960 . S
C616 C617 1.391 . S
C616 C618 1.394 . S
C616 H632 0.931 . S
C617 C616 1.391 . S
C617 C621 1.376 . S
C618 C616 1.394 . S
C618 C619 1.369 . S
C618 C622 1.531 . S
C619 C618 1.369 . S
C619 C620 1.410 . S
C619 C627 1.503 . S
C620 C619 1.410 . S
C620 C621 1.392 . S
C620 C623 1.511 . S
C621 C617 1.376 . S
C621 C620 1.392 . S
C621 H633 0.929 . S
C622 C618 1.531 . S
C622 H634 0.960 . S
C622 H635 0.962 . S
C622 H636 0.960 . S
C623 C620 1.511 . S
C623 H637 0.961 . S
C623 H638 0.961 . S
C623 H639 0.961 . S
C624 C625 1.370 . S
C624 C626 1.363 . S
C624 H640 0.931 . S
C625 C624 1.370 . S
C625 C629 1.430 . S
C626 C624 1.363 . S
C626 C627 1.370 . S
C626 C630 1.524 . S
C627 C619 1.503 . S
C627 C626 1.370 . S
C627 C628 1.403 . S
C628 C627 1.403 . S
C628 C629 1.426 . S
C628 C631 1.539 1_655 S
C629 C625 1.430 . S
C629 C628 1.426 . S
C629 H641 0.888 1_655 S
C630 C626 1.524 . S
C630 H642 0.956 . S
C630 H643 0.961 . S
C630 H644 0.961 . S
C631 C628 1.539 1_455 S
C631 H645 0.969 . S
C631 H646 0.961 . S
C631 H647 0.969 . S
H632 C616 0.931 . S
H633 C621 0.929 . S
H634 C622 0.960 . S
H635 C622 0.962 . S
H636 C622 0.960 . S
H637 C623 0.961 . S
H638 C623 0.961 . S
H639 C623 0.961 . S
H640 C624 0.931 . S
H641 C629 0.888 1_455 S
H642 C630 0.956 . S
H643 C630 0.961 . S
H644 C630 0.961 . S
H645 C631 0.969 . S
H646 C631 0.961 . S
H647 C631 0.969 . S
C648 C649 1.391 . S
C648 C650 1.394 . S
C648 H664 0.931 . S
C649 C648 1.391 . S
C649 C653 1.376 . S
C650 C648 1.394 . S
C650 C651 1.369 . S
C650 C654 1.531 . S
C651 C650 1.369 . S
C651 C652 1.410 . S
C651 C659 1.503 . S
C652 C651 1.410 . S
C652 C653 1.392 . S
C652 C655 1.511 . S
C653 C649 1.376 . S
C653 C652 1.392 . S
C653 H665 0.929 . S
C654 C650 1.531 . S
C654 H666 0.960 . S
C654 H667 0.962 . S
C654 H668 0.960 . S
C655 C652 1.511 . S
C655 H669 0.961 . S
C655 H670 0.961 . S
C655 H671 0.961 . S
C656 C657 1.370 . S
C656 C658 1.363 . S
C656 H672 0.931 . S
C657 C656 1.370 . S
C657 C661 1.408 . S
C658 C656 1.363 . S
C658 C659 1.370 . S
C658 C662 1.524 . S
C659 C651 1.503 . S
C659 C658 1.370 . S
C659 C660 1.403 . S
C660 C659 1.403 . S
C660 C661 1.404 . S
C660 C663 1.539 . S
C661 C657 1.408 . S
C661 C660 1.404 . S
C661 H673 0.930 1_455 S
C662 C658 1.524 . S
C662 H674 0.956 . S
C662 H675 0.961 . S
C662 H676 0.961 . S
C663 C660 1.539 . S
C663 H677 0.958 . S
C663 H678 0.984 . S
C663 H679 0.960 . S
H664 C648 0.931 . S
H665 C653 0.929 . S
H666 C654 0.960 . S
H667 C654 0.962 . S
H668 C654 0.960 . S
H669 C655 0.961 . S
H670 C655 0.961 . S
H671 C655 0.961 . S
H672 C656 0.931 . S
H673 C661 0.930 1_655 S
H674 C662 0.956 . S
H675 C662 0.961 . S
H676 C662 0.961 . S
H677 C663 0.958 . S
H678 C663 0.984 . S
H679 C663 0.960 . S
C680 C681 1.391 . S
C680 C682 1.394 . S
C680 H696 0.931 . S
C681 C680 1.391 . S
C681 C685 1.376 1_545 S
C682 C680 1.394 . S
C682 C683 1.369 1_545 S
C682 C686 1.531 . S
C683 C682 1.369 1_565 S
C683 C684 1.410 . S
C683 C691 1.503 . S
C684 C683 1.410 . S
C684 C685 1.392 . S
C684 C687 1.511 . S
C685 C681 1.376 1_565 S
C685 C684 1.392 . S
C685 H697 0.929 . S
C686 C682 1.531 . S
C686 H698 0.960 . S
C686 H699 0.962 . S
C686 H700 0.960 . S
C687 C684 1.511 . S
C687 H701 0.961 . S
C687 H702 0.961 . S
C687 H703 0.961 . S
C688 C689 1.370 . S
C688 C690 1.363 . S
C688 H704 0.931 . S
C689 C688 1.370 . S
C689 C693 1.411 . S
C690 C688 1.363 . S
C690 C691 1.370 . S
C690 C694 1.524 . S
C691 C683 1.503 . S
C691 C690 1.370 . S
C691 C692 1.403 1_565 S
C692 C691 1.403 1_545 S
C692 C693 1.403 1_545 S
C692 C695 1.539 . S
C693 C689 1.411 . S
C693 C692 1.403 1_565 S
C693 H705 0.929 1_565 S
C694 C690 1.524 . S
C694 H706 0.956 . S
C694 H707 0.961 . S
C694 H708 0.961 . S
C695 C692 1.539 . S
C695 H709 0.958 . S
C695 H710 0.961 . S
C695 H711 0.960 . S
H696 C680 0.931 . S
H697 C685 0.929 . S
H698 C686 0.960 . S
H699 C686 0.962 . S
H700 C686 0.960 . S
H701 C687 0.961 . S
H702 C687 0.961 . S
H703 C687 0.961 . S
H704 C688 0.931 . S
H705 C693 0.929 1_545 S
H706 C694 0.956 . S
H707 C694 0.961 . S
H708 C694 0.961 . S
H709 C695 0.958 . S
H710 C695 0.961 . S
H711 C695 0.960 . S
C712 C713 1.391 . S
C712 C714 1.394 . S
C712 H728 0.931 . S
C713 C712 1.391 . S
C713 C717 1.376 . S
C714 C712 1.394 . S
C714 C715 1.369 . S
C714 C718 1.531 . S
C715 C714 1.369 . S
C715 C716 1.410 . S
C715 C723 1.503 . S
C716 C715 1.410 . S
C716 C717 1.392 . S
C716 C719 1.511 . S
C717 C713 1.376 . S
C717 C716 1.392 . S
C717 H729 0.929 . S
C718 C714 1.531 . S
C718 H730 0.960 . S
C718 H731 0.962 . S
C718 H732 0.960 . S
C719 C716 1.511 . S
C719 H733 0.961 . S
C719 H734 0.961 . S
C719 H735 0.961 . S
C720 C721 1.370 . S
C720 C722 1.363 . S
C720 H736 0.931 . S
C721 C720 1.370 . S
C721 C725 1.408 . S
C722 C720 1.363 . S
C722 C723 1.370 . S
C722 C726 1.524 . S
C723 C715 1.503 . S
C723 C722 1.370 . S
C723 C724 1.403 . S
C724 C723 1.403 . S
C724 C725 1.404 . S
C724 C727 1.539 . S
C725 C721 1.408 . S
C725 C724 1.404 . S
C725 H737 0.930 . S
C726 C722 1.524 . S
C726 H738 0.956 . S
C726 H739 0.961 . S
C726 H740 0.961 . S
C727 C724 1.539 . S
C727 H741 0.958 . S
C727 H742 0.961 . S
C727 H743 0.960 . S
H728 C712 0.931 . S
H729 C717 0.929 . S
H730 C718 0.960 . S
H731 C718 0.962 . S
H732 C718 0.960 . S
H733 C719 0.961 . S
H734 C719 0.961 . S
H735 C719 0.961 . S
H736 C720 0.931 . S
H737 C725 0.930 . S
H738 C726 0.956 . S
H739 C726 0.961 . S
H740 C726 0.961 . S
H741 C727 0.958 . S
H742 C727 0.961 . S
H743 C727 0.960 . S
C744 C745 1.391 . S
C744 C746 1.394 . S
C744 H760 0.931 . S
C745 C744 1.391 . S
C745 C749 1.376 . S
C746 C744 1.394 . S
C746 C747 1.369 . S
C746 C750 1.531 . S
C747 C746 1.369 . S
C747 C748 1.410 . S
C747 C755 1.503 . S
C748 C747 1.410 . S
C748 C749 1.392 . S
C748 C751 1.511 . S
C749 C745 1.376 . S
C749 C748 1.392 . S
C749 H761 0.929 . S
C750 C746 1.531 . S
C750 H762 0.960 . S
C750 H763 0.962 . S
C750 H764 0.960 . S
C751 C748 1.511 . S
C751 H765 0.961 . S
C751 H766 0.961 . S
C751 H767 0.961 . S
C752 C753 1.370 . S
C752 C754 1.363 . S
C752 H768 0.931 . S
C753 C752 1.370 . S
C753 C757 1.408 . S
C754 C752 1.363 . S
C754 C755 1.370 . S
C754 C758 1.524 . S
C755 C747 1.503 . S
C755 C754 1.370 . S
C755 C756 1.403 . S
C756 C755 1.403 . S
C756 C757 1.404 . S
C756 C759 1.539 . S
C757 C753 1.408 . S
C757 C756 1.404 . S
C757 H769 0.930 . S
C758 C754 1.524 . S
C758 H770 0.956 . S
C758 H771 0.961 . S
C758 H772 0.961 . S
C759 C756 1.539 . S
C759 H773 0.958 . S
C759 H774 0.961 . S
C759 H775 0.960 . S
H760 C744 0.931 . S
H761 C749 0.929 . S
H762 C750 0.960 . S
H763 C750 0.962 . S
H764 C750 0.960 . S
H765 C751 0.961 . S
H766 C751 0.961 . S
H767 C751 0.961 . S
H768 C752 0.931 . S
H769 C757 0.930 . S
H770 C758 0.956 . S
H771 C758 0.961 . S
H772 C758 0.961 . S
H773 C759 0.958 . S
H774 C759 0.961 . S
H775 C759 0.960 . S
C776 C777 1.391 . S
C776 C778 1.394 . S
C776 H792 0.931 . S
C777 C776 1.391 . S
C777 C781 1.376 . S
C778 C776 1.394 . S
C778 C779 1.369 . S
C778 C782 1.531 . S
C779 C778 1.369 . S
C779 C780 1.410 . S
C779 C787 1.503 . S
C780 C779 1.410 . S
C780 C781 1.392 . S
C780 C783 1.511 . S
C781 C777 1.376 . S
C781 C780 1.392 . S
C781 H793 0.929 . S
C782 C778 1.531 . S
C782 H794 0.960 . S
C782 H795 0.962 . S
C782 H796 0.960 . S
C783 C780 1.511 . S
C783 H797 0.961 . S
C783 H798 0.961 . S
C783 H799 0.961 . S
C784 C785 1.373 . S
C784 C786 1.363 . S
C784 H800 0.931 1_655 S
C785 C784 1.373 . S
C785 C789 1.416 . S
C786 C784 1.363 . S
C786 C787 1.370 . S
C786 C790 1.524 . S
C787 C779 1.503 . S
C787 C786 1.370 . S
C787 C788 1.403 . S
C788 C787 1.403 . S
C788 C789 1.404 . S
C788 C791 1.539 . S
C789 C785 1.416 . S
C789 C788 1.404 . S
C789 H801 0.930 . S
C790 C786 1.524 . S
C790 H802 0.956 . S
C790 H803 0.961 . S
C790 H804 0.961 . S
C791 C788 1.539 . S
C791 H805 0.958 . S
C791 H806 0.961 . S
C791 H807 0.960 . S
H792 C776 0.931 . S
H793 C781 0.929 . S
H794 C782 0.960 . S
H795 C782 0.962 . S
H796 C782 0.960 . S
H797 C783 0.961 . S
H798 C783 0.961 . S
H799 C783 0.961 . S
H800 C784 0.931 1_455 S
H801 C789 0.930 . S
H802 C790 0.956 . S
H803 C790 0.961 . S
H804 C790 0.961 . S
H805 C791 0.958 . S
H806 C791 0.961 . S
H807 C791 0.960 . S
C808 C809 1.390 1_545 S
C808 C810 1.394 . S
C808 H824 0.931 . S
C809 C808 1.390 1_565 S
C809 C813 1.377 . S
C810 C808 1.394 . S
C810 C811 1.369 . S
C810 C814 1.531 . S
C811 C810 1.369 . S
C811 C812 1.410 1_545 S
C811 C819 1.503 . S
C812 C811 1.410 1_565 S
C812 C813 1.392 . S
C812 C815 1.511 . S
C813 C809 1.377 . S
C813 C812 1.392 . S
C813 H825 0.929 . S
C814 C810 1.531 . S
C814 H826 0.960 . S
C814 H827 0.962 . S
C814 H828 0.960 . S
C815 C812 1.511 . S
C815 H829 0.961 . S
C815 H830 0.961 . S
C815 H831 0.961 . S
C816 C817 1.370 . S
C816 C818 1.361 1_545 S
C816 H832 0.931 1_545 S
C817 C816 1.370 . S
C817 C821 1.408 . S
C818 C816 1.361 1_565 S
C818 C819 1.367 1_565 S
C818 C822 1.530 . S
C819 C811 1.503 . S
C819 C818 1.367 1_545 S
C819 C820 1.403 . S
C820 C819 1.403 . S
C820 C821 1.404 . S
C820 C823 1.539 . S
C821 C817 1.408 . S
C821 C820 1.404 . S
C821 H833 0.930 . S
C822 C818 1.530 . S
C822 H834 0.956 . S
C822 H835 0.961 . S
C822 H836 0.961 . S
C823 C820 1.539 . S
C823 H837 0.958 . S
C823 H838 0.961 . S
C823 H839 0.960 . S
H824 C808 0.931 . S
H825 C813 0.929 . S
H826 C814 0.960 . S
H827 C814 0.962 . S
H828 C814 0.960 . S
H829 C815 0.961 . S
H830 C815 0.961 . S
H831 C815 0.961 . S
H832 C816 0.931 1_565 S
H833 C821 0.930 . S
H834 C822 0.956 . S
H835 C822 0.961 . S
H836 C822 0.961 . S
H837 C823 0.958 . S
H838 C823 0.961 . S
H839 C823 0.960 . S
C840 C841 1.391 . S
C840 C842 1.394 . S
C840 H856 0.931 . S
C841 C840 1.391 . S
C841 C845 1.376 . S
C842 C840 1.394 . S
C842 C843 1.369 . S
C842 C846 1.531 . S
C843 C842 1.369 . S
C843 C844 1.410 . S
C843 C851 1.503 . S
C844 C843 1.410 . S
C844 C845 1.392 . S
C844 C847 1.511 . S
C845 C841 1.376 . S
C845 C844 1.392 . S
C845 H857 0.929 . S
C846 C842 1.531 . S
C846 H858 0.960 . S
C846 H859 0.962 . S
C846 H860 0.960 . S
C847 C844 1.511 . S
C847 H861 0.961 . S
C847 H862 0.961 . S
C847 H863 0.961 . S
C848 C849 1.370 . S
C848 C850 1.363 . S
C848 H864 0.931 . S
C849 C848 1.370 . S
C849 C853 1.408 . S
C850 C848 1.363 . S
C850 C851 1.370 . S
C850 C854 1.524 . S
C851 C843 1.503 . S
C851 C850 1.370 . S
C851 C852 1.403 . S
C852 C851 1.403 . S
C852 C853 1.404 . S
C852 C855 1.539 . S
C853 C849 1.408 . S
C853 C852 1.404 . S
C853 H865 0.930 . S
C854 C850 1.524 . S
C854 H866 0.956 . S
C854 H867 0.961 . S
C854 H868 0.961 . S
C855 C852 1.539 . S
C855 H869 0.958 . S
C855 H870 0.961 . S
C855 H871 0.960 . S
H856 C840 0.931 . S
H857 C845 0.929 . S
H858 C846 0.960 . S
H859 C846 0.962 . S
H860 C846 0.960 . S
H861 C847 0.961 . S
H862 C847 0.961 . S
H863 C847 0.961 . S
H864 C848 0.931 . S
H865 C853 0.930 . S
H866 C854 0.956 . S
H867 C854 0.961 . S
H868 C854 0.961 . S
H869 C855 0.958 . S
H870 C855 0.961 . S
H871 C855 0.960 . S
C872 C873 1.391 . S
C872 C874 1.394 . S
C872 H888 0.931 . S
C873 C872 1.391 . S
C873 C877 1.376 . S
C874 C872 1.394 . S
C874 C875 1.369 . S
C874 C878 1.531 . S
C875 C874 1.369 . S
C875 C876 1.410 . S
C875 C883 1.503 . S
C876 C875 1.410 . S
C876 C877 1.392 . S
C876 C879 1.511 . S
C877 C873 1.376 . S
C877 C876 1.392 . S
C877 H889 0.929 . S
C878 C874 1.531 . S
C878 H890 0.960 . S
C878 H891 0.962 . S
C878 H892 0.960 . S
C879 C876 1.511 . S
C879 H893 0.961 . S
C879 H894 0.961 . S
C879 H895 0.961 . S
C880 C881 1.370 . S
C880 C882 1.363 . S
C880 H896 0.931 . S
C881 C880 1.370 . S
C881 C885 1.408 . S
C882 C880 1.363 . S
C882 C883 1.370 . S
C882 C886 1.524 . S
C883 C875 1.503 . S
C883 C882 1.370 . S
C883 C884 1.403 . S
C884 C883 1.403 . S
C884 C885 1.404 . S
C884 C887 1.539 . S
C885 C881 1.408 . S
C885 C884 1.404 . S
C885 H897 0.930 . S
C886 C882 1.524 . S
C886 H898 0.956 . S
C886 H899 0.961 . S
C886 H900 0.961 . S
C887 C884 1.539 . S
C887 H901 0.958 . S
C887 H902 0.961 . S
C887 H903 0.960 . S
H888 C872 0.931 . S
H889 C877 0.929 . S
H890 C878 0.960 . S
H891 C878 0.962 . S
H892 C878 0.960 . S
H893 C879 0.961 . S
H894 C879 0.961 . S
H895 C879 0.961 . S
H896 C880 0.931 . S
H897 C885 0.930 . S
H898 C886 0.956 . S
H899 C886 0.961 . S
H900 C886 0.961 . S
H901 C887 0.958 . S
H902 C887 0.961 . S
H903 C887 0.960 . S
C904 C905 1.391 . S
C904 C906 1.394 . S
C904 H920 0.931 . S
C905 C904 1.391 . S
C905 C909 1.376 . S
C906 C904 1.394 . S
C906 C907 1.369 . S
C906 C910 1.531 . S
C907 C906 1.369 . S
C907 C908 1.410 . S
C907 C915 1.503 . S
C908 C907 1.410 . S
C908 C909 1.392 . S
C908 C911 1.511 . S
C909 C905 1.376 . S
C909 C908 1.392 . S
C909 H921 0.929 . S
C910 C906 1.531 . S
C910 H922 0.960 . S
C910 H923 0.962 . S
C910 H924 0.960 . S
C911 C908 1.511 . S
C911 H925 0.961 . S
C911 H926 0.961 . S
C911 H927 0.961 . S
C912 C913 1.370 . S
C912 C914 1.363 . S
C912 H928 0.931 . S
C913 C912 1.370 . S
C913 C917 1.408 . S
C914 C912 1.363 . S
C914 C915 1.370 . S
C914 C918 1.524 . S
C915 C907 1.503 . S
C915 C914 1.370 . S
C915 C916 1.403 . S
C916 C915 1.403 . S
C916 C917 1.404 . S
C916 C919 1.539 . S
C917 C913 1.408 . S
C917 C916 1.404 . S
C917 H929 0.930 . S
C918 C914 1.524 . S
C918 H930 0.956 . S
C918 H931 0.961 . S
C918 H932 0.961 . S
C919 C916 1.539 . S
C919 H933 0.958 . S
C919 H934 0.961 . S
C919 H935 0.960 . S
H920 C904 0.931 . S
H921 C909 0.929 . S
H922 C910 0.960 . S
H923 C910 0.962 . S
H924 C910 0.960 . S
H925 C911 0.961 . S
H926 C911 0.961 . S
H927 C911 0.961 . S
H928 C912 0.931 . S
H929 C917 0.930 . S
H930 C918 0.956 . S
H931 C918 0.961 . S
H932 C918 0.961 . S
H933 C919 0.958 . S
H934 C919 0.961 . S
H935 C919 0.960 . S
C936 C937 1.391 . S
C936 C938 1.394 . S
C936 H952 0.931 . S
C937 C936 1.391 . S
C937 C941 1.376 . S
C938 C936 1.394 . S
C938 C939 1.369 . S
C938 C942 1.531 . S
C939 C938 1.369 . S
C939 C940 1.410 . S
C939 C947 1.503 . S
C940 C939 1.410 . S
C940 C941 1.392 . S
C940 C943 1.511 . S
C941 C937 1.376 . S
C941 C940 1.392 . S
C941 H953 0.929 . S
C942 C938 1.531 . S
C942 H954 0.960 . S
C942 H955 0.962 1_545 S
C942 H956 0.960 . S
C943 C940 1.511 . S
C943 H957 0.962 . S
C943 H958 0.961 . S
C943 H959 0.961 . S
C944 C945 1.370 1_565 S
C944 C946 1.363 . S
C944 H960 0.931 . S
C945 C944 1.370 1_545 S
C945 C949 1.408 . S
C946 C944 1.363 . S
C946 C947 1.370 1_565 S
C946 C950 1.524 . S
C947 C939 1.503 . S
C947 C946 1.370 1_545 S
C947 C948 1.403 . S
C948 C947 1.403 . S
C948 C949 1.404 . S
C948 C951 1.539 . S
C949 C945 1.408 . S
C949 C948 1.404 . S
C949 H961 0.930 . S
C950 C946 1.524 . S
C950 H962 0.956 . S
C950 H963 0.961 . S
C950 H964 0.961 . S
C951 C948 1.539 . S
C951 H965 0.958 . S
C951 H966 0.961 . S
C951 H967 0.960 . S
H952 C936 0.931 . S
H953 C941 0.929 . S
H954 C942 0.960 . S
H955 C942 0.962 1_565 S
H956 C942 0.960 . S
H957 C943 0.962 . S
H958 C943 0.961 . S
H959 C943 0.961 . S
H960 C944 0.931 . S
H961 C949 0.930 . S
H962 C950 0.956 . S
H963 C950 0.961 . S
H964 C950 0.961 . S
H965 C951 0.958 . S
H966 C951 0.961 . S
H967 C951 0.960 . S
C968 C969 1.391 . S
C968 C970 1.394 . S
C968 H984 0.931 . S
C969 C968 1.391 . S
C969 C973 1.376 . S
C970 C968 1.394 . S
C970 C971 1.369 . S
C970 C974 1.531 . S
C971 C970 1.369 . S
C971 C972 1.410 . S
C971 C979 1.503 . S
C972 C971 1.410 . S
C972 C973 1.392 . S
C972 C975 1.511 . S
C973 C969 1.376 . S
C973 C972 1.392 . S
C973 H985 0.929 . S
C974 C970 1.531 . S
C974 H986 0.960 . S
C974 H987 0.962 . S
C974 H988 0.960 . S
C975 C972 1.511 . S
C975 H989 0.961 . S
C975 H990 0.961 . S
C975 H991 0.961 . S
C976 C977 1.370 . S
C976 C978 1.363 . S
C976 H992 0.931 . S
C977 C976 1.370 . S
C977 C981 1.408 . S
C978 C976 1.363 . S
C978 C979 1.370 . S
C978 C982 1.524 . S
C979 C971 1.503 . S
C979 C978 1.370 . S
C979 C980 1.403 . S
C980 C979 1.403 . S
C980 C981 1.404 . S
C980 C983 1.539 . S
C981 C977 1.408 . S
C981 C980 1.404 . S
C981 H993 0.930 . S
C982 C978 1.524 . S
C982 H994 0.956 . S
C982 H995 0.961 . S
C982 H996 0.961 . S
C983 C980 1.539 . S
C983 H997 0.958 . S
C983 H998 0.961 . S
C983 H999 0.960 . S
H984 C968 0.931 . S
H985 C973 0.929 . S
H986 C974 0.960 . S
H987 C974 0.962 . S
H988 C974 0.960 . S
H989 C975 0.961 . S
H990 C975 0.961 . S
H991 C975 0.961 . S
H992 C976 0.931 . S
H993 C981 0.930 . S
H994 C982 0.956 . S
H995 C982 0.961 . S
H996 C982 0.961 . S
H997 C983 0.958 . S
H998 C983 0.961 . S
H999 C983 0.960 . S
C1000 C1001 1.391 . S
C1000 C1002 1.394 . S
C1000 H1016 0.931 . S
C1001 C1000 1.391 . S
C1001 C1005 1.376 . S
C1002 C1000 1.394 . S
C1002 C1003 1.369 . S
C1002 C1006 1.531 . S
C1003 C1002 1.369 . S
C1003 C1004 1.410 . S
C1003 C1011 1.503 . S
C1004 C1003 1.410 . S
C1004 C1005 1.392 . S
C1004 C1007 1.511 . S
C1005 C1001 1.376 . S
C1005 C1004 1.392 . S
C1005 H1017 0.929 . S
C1006 C1002 1.531 . S
C1006 H1018 0.960 . S
C1006 H1019 0.962 . S
C1006 H1020 0.960 . S
C1007 C1004 1.511 . S
C1007 H1021 0.961 . S
C1007 H1022 0.961 . S
C1007 H1023 0.961 . S
C1008 C1009 1.370 . S
C1008 C1010 1.363 . S
C1008 H1024 0.931 . S
C1009 C1008 1.370 . S
C1009 C1013 1.408 . S
C1010 C1008 1.363 . S
C1010 C1011 1.370 . S
C1010 C1014 1.524 . S
C1011 C1003 1.503 . S
C1011 C1010 1.370 . S
C1011 C1012 1.403 . S
C1012 C1011 1.403 . S
C1012 C1013 1.404 . S
C1012 C1015 1.539 . S
C1013 C1009 1.408 . S
C1013 C1012 1.404 . S
C1013 H1025 0.930 . S
C1014 C1010 1.524 . S
C1014 H1026 0.956 . S
C1014 H1027 0.961 . S
C1014 H1028 0.961 . S
C1015 C1012 1.539 . S
C1015 H1029 0.958 . S
C1015 H1030 0.961 . S
C1015 H1031 0.960 . S
H1016 C1000 0.931 . S
H1017 C1005 0.929 . S
H1018 C1006 0.960 . S
H1019 C1006 0.962 . S
H1020 C1006 0.960 . S
H1021 C1007 0.961 . S
H1022 C1007 0.961 . S
H1023 C1007 0.961 . S
H1024 C1008 0.931 . S
H1025 C1013 0.930 . S
H1026 C1014 0.956 . S
H1027 C1014 0.961 . S
H1028 C1014 0.961 . S
H1029 C1015 0.958 . S
H1030 C1015 0.961 . S
H1031 C1015 0.960 . S
C1032 C1033 1.391 . S
C1032 C1034 1.394 . S
C1032 H1048 0.931 . S
C1033 C1032 1.391 . S
C1033 C1037 1.376 . S
C1034 C1032 1.394 . S
C1034 C1035 1.369 . S
C1034 C1038 1.531 . S
C1035 C1034 1.369 . S
C1035 C1036 1.410 . S
C1035 C1043 1.503 . S
C1036 C1035 1.410 . S
C1036 C1037 1.392 . S
C1036 C1039 1.511 . S
C1037 C1033 1.376 . S
C1037 C1036 1.392 . S
C1037 H1049 0.929 . S
C1038 C1034 1.531 . S
C1038 H1050 0.960 . S
C1038 H1051 0.962 . S
C1038 H1052 0.960 . S
C1039 C1036 1.511 . S
C1039 H1053 0.961 . S
C1039 H1054 0.961 . S
C1039 H1055 0.961 . S
C1040 C1041 1.370 . S
C1040 C1042 1.363 . S
C1040 H1056 0.931 . S
C1041 C1040 1.370 . S
C1041 C1045 1.408 . S
C1042 C1040 1.363 . S
C1042 C1043 1.370 . S
C1042 C1046 1.524 . S
C1043 C1035 1.503 . S
C1043 C1042 1.370 . S
C1043 C1044 1.403 . S
C1044 C1043 1.403 . S
C1044 C1045 1.404 . S
C1044 C1047 1.539 . S
C1045 C1041 1.408 . S
C1045 C1044 1.404 . S
C1045 H1057 0.930 . S
C1046 C1042 1.524 . S
C1046 H1058 0.956 . S
C1046 H1059 0.961 . S
C1046 H1060 0.961 . S
C1047 C1044 1.539 . S
C1047 H1061 0.958 . S
C1047 H1062 0.961 . S
C1047 H1063 0.960 . S
H1048 C1032 0.931 . S
H1049 C1037 0.929 . S
H1050 C1038 0.960 . S
H1051 C1038 0.962 . S
H1052 C1038 0.960 . S
H1053 C1039 0.961 . S
H1054 C1039 0.961 . S
H1055 C1039 0.961 . S
H1056 C1040 0.931 . S
H1057 C1045 0.930 . S
H1058 C1046 0.956 . S
H1059 C1046 0.961 . S
H1060 C1046 0.961 . S
H1061 C1047 0.958 . S
H1062 C1047 0.961 . S
H1063 C1047 0.960 . S
C1064 C1065 1.391 . S
C1064 C1066 1.394 . S
C1064 H1080 0.931 . S
C1065 C1064 1.391 . S
C1065 C1069 1.376 1_565 S
C1066 C1064 1.394 . S
C1066 C1067 1.369 . S
C1066 C1070 1.531 . S
C1067 C1066 1.369 . S
C1067 C1068 1.410 1_565 S
C1067 C1075 1.503 . S
C1068 C1067 1.410 1_545 S
C1068 C1069 1.392 . S
C1068 C1071 1.511 . S
C1069 C1065 1.376 1_545 S
C1069 C1068 1.392 . S
C1069 H1081 0.929 . S
C1070 C1066 1.531 . S
C1070 H1082 0.960 . S
C1070 H1083 0.962 . S
C1070 H1084 0.960 . S
C1071 C1068 1.511 . S
C1071 H1085 0.961 . S
C1071 H1086 0.961 . S
C1071 H1087 0.961 . S
C1072 C1073 1.370 1_545 S
C1072 C1074 1.363 . S
C1072 H1088 0.931 . S
C1073 C1072 1.370 1_565 S
C1073 C1077 1.408 . S
C1074 C1072 1.363 . S
C1074 C1075 1.370 1_545 S
C1074 C1078 1.524 . S
C1075 C1067 1.503 . S
C1075 C1074 1.370 1_565 S
C1075 C1076 1.403 . S
C1076 C1075 1.403 . S
C1076 C1077 1.404 . S
C1076 C1079 1.539 . S
C1077 C1073 1.408 . S
C1077 C1076 1.404 . S
C1077 H1089 0.930 . S
C1078 C1074 1.524 . S
C1078 H1090 0.956 1_545 S
C1078 H1091 0.961 . S
C1078 H1092 0.961 . S
C1079 C1076 1.539 . S
C1079 H1093 0.958 . S
C1079 H1094 0.961 . S
C1079 H1095 0.960 . S
H1080 C1064 0.931 . S
H1081 C1069 0.929 . S
H1082 C1070 0.960 . S
H1083 C1070 0.962 . S
H1084 C1070 0.960 . S
H1085 C1071 0.961 . S
H1086 C1071 0.961 . S
H1087 C1071 0.961 . S
H1088 C1072 0.931 . S
H1089 C1077 0.930 . S
H1090 C1078 0.956 1_565 S
H1091 C1078 0.961 . S
H1092 C1078 0.961 . S
H1093 C1079 0.958 . S
H1094 C1079 0.961 . S
H1095 C1079 0.960 . S
C1096 C1097 1.391 . S
C1096 C1098 1.394 . S
C1096 H1112 0.931 . S
C1097 C1096 1.391 . S
C1097 C1101 1.376 . S
C1098 C1096 1.394 . S
C1098 C1099 1.369 . S
C1098 C1102 1.531 . S
C1099 C1098 1.369 . S
C1099 C1100 1.410 . S
C1099 C1107 1.503 . S
C1100 C1099 1.410 . S
C1100 C1101 1.392 . S
C1100 C1103 1.511 . S
C1101 C1097 1.376 . S
C1101 C1100 1.392 . S
C1101 H1113 0.929 . S
C1102 C1098 1.531 . S
C1102 H1114 0.960 . S
C1102 H1115 0.962 . S
C1102 H1116 0.960 . S
C1103 C1100 1.511 . S
C1103 H1117 0.961 . S
C1103 H1118 0.961 . S
C1103 H1119 0.961 . S
C1104 C1105 1.370 . S
C1104 C1106 1.363 . S
C1104 H1120 0.931 . S
C1105 C1104 1.370 . S
C1105 C1109 1.408 . S
C1106 C1104 1.363 . S
C1106 C1107 1.370 . S
C1106 C1110 1.524 . S
C1107 C1099 1.503 . S
C1107 C1106 1.370 . S
C1107 C1108 1.403 . S
C1108 C1107 1.403 . S
C1108 C1109 1.404 . S
C1108 C1111 1.539 . S
C1109 C1105 1.408 . S
C1109 C1108 1.404 . S
C1109 H1121 0.930 . S
C1110 C1106 1.524 . S
C1110 H1122 0.956 . S
C1110 H1123 0.961 . S
C1110 H1124 0.961 . S
C1111 C1108 1.539 . S
C1111 H1125 0.958 . S
C1111 H1126 0.961 . S
C1111 H1127 0.960 . S
H1112 C1096 0.931 . S
H1113 C1101 0.929 . S
H1114 C1102 0.960 . S
H1115 C1102 0.962 . S
H1116 C1102 0.960 . S
H1117 C1103 0.961 . S
H1118 C1103 0.961 . S
H1119 C1103 0.961 . S
H1120 C1104 0.931 . S
H1121 C1109 0.930 . S
H1122 C1110 0.956 . S
H1123 C1110 0.961 . S
H1124 C1110 0.961 . S
H1125 C1111 0.958 . S
H1126 C1111 0.961 . S
H1127 C1111 0.960 . S
C1128 C1129 1.391 . S
C1128 C1130 1.394 . S
C1128 H1144 0.931 . S
C1129 C1128 1.391 . S
C1129 C1133 1.376 . S
C1130 C1128 1.394 . S
C1130 C1131 1.369 . S
C1130 C1134 1.531 . S
C1131 C1130 1.369 . S
C1131 C1132 1.410 . S
C1131 C1139 1.503 . S
C1132 C1131 1.410 . S
C1132 C1133 1.392 . S
C1132 C1135 1.511 . S
C1133 C1129 1.376 . S
C1133 C1132 1.392 . S
C1133 H1145 0.929 . S
C1134 C1130 1.531 . S
C1134 H1146 0.960 . S
C1134 H1147 0.962 . S
C1134 H1148 0.960 . S
C1135 C1132 1.511 . S
C1135 H1149 0.961 . S
C1135 H1150 0.961 . S
C1135 H1151 0.961 . S
C1136 C1137 1.370 . S
C1136 C1138 1.363 . S
C1136 H1152 0.931 . S
C1137 C1136 1.370 . S
C1137 C1141 1.408 . S
C1138 C1136 1.363 . S
C1138 C1139 1.370 . S
C1138 C1142 1.524 . S
C1139 C1131 1.503 . S
C1139 C1138 1.370 . S
C1139 C1140 1.403 . S
C1140 C1139 1.403 . S
C1140 C1141 1.404 . S
C1140 C1143 1.539 . S
C1141 C1137 1.408 . S
C1141 C1140 1.404 . S
C1141 H1153 0.930 . S
C1142 C1138 1.524 . S
C1142 H1154 0.956 . S
C1142 H1155 0.961 . S
C1142 H1156 0.961 . S
C1143 C1140 1.539 . S
C1143 H1157 0.958 . S
C1143 H1158 0.961 . S
C1143 H1159 0.960 . S
H1144 C1128 0.931 . S
H1145 C1133 0.929 . S
H1146 C1134 0.960 . S
H1147 C1134 0.962 . S
H1148 C1134 0.960 . S
H1149 C1135 0.961 . S
H1150 C1135 0.961 . S
H1151 C1135 0.961 . S
H1152 C1136 0.931 . S
H1153 C1141 0.930 . S
H1154 C1142 0.956 . S
H1155 C1142 0.961 . S
H1156 C1142 0.961 . S
H1157 C1143 0.958 . S
H1158 C1143 0.961 . S
H1159 C1143 0.960 . S
C393 C255 1.725 1_545 S
C401 C320 1.790 . S
C433 C350 2.408 . S
C425 C294 2.305 . S
C465 C360 1.882 . S
C457 C177 1.781 . S
C497 C380 1.774 . S
C489 C216 1.623 . S
C529 C321 1.785 . S
C521 C99 1.730 1_545 S
C553 C138 2.268 1_556 S
C561 C351 2.411 . S
C585 C21 1.762 . S
C593 C361 1.882 . S
C617 C60 1.628 . S
C625 C381 1.775 . S
C657 C313 0.814 . S
C649 C196 0.776 . S
C689 C334 0.266 . S
C681 C235 0.497 1_545 S
C721 C353 1.076 . S
C713 C289 1.080 . S
C745 C157 0.542 . S
C753 C373 0.531 . S
C777 C40 0.843 . S
C785 C314 0.799 1_655 S
C817 C333 0.259 . S
C809 C79 0.478 . S
C849 C354 1.089 . S
C841 C133 0.981 . S
C873 C1 0.626 . S
C881 C374 0.544 . S
C905 C211 2.230 . S
C913 C331 2.478 . S
C937 C250 1.777 . S
C945 C341 2.003 . S
C977 C371 2.691 . S
C969 C274 2.408 . S
C1009 C391 2.555 . S
C1001 C172 2.321 . S
C1033 C55 2.289 . S
C1041 C330 2.488 . S
C1073 C340 2.003 . S
C1065 C94 1.819 1_565 S
C1105 C370 2.693 . S
C1097 C118 2.428 . S
C1129 C16 2.344 . S
C1137 C390 2.554 . S
