# Generated by pormake.
# Topology eea, (3,6)-cn, num edge types: 1
# Building blocks:
#     Node 0, Type 0, BuildingBlock: QEWDON_clean_linker_0, # of connection points: 3
#     Node 1, Type 0, BuildingBlock: QEWDON_clean_linker_0, # of connection points: 3
#     Node 2, Type 0, BuildingBlock: QEWDON_clean_linker_0, # of connection points: 3
#     Node 3, Type 0, BuildingBlock: QEWDON_clean_linker_0, # of connection points: 3
#     Node 4, Type 0, BuildingBlock: QEWDON_clean_linker_0, # of connection points: 3
#     Node 5, Type 0, BuildingBlock: QEWDON_clean_linker_0, # of connection points: 3
#     Node 6, Type 0, BuildingBlock: QEWDON_clean_linker_0, # of connection points: 3
#     Node 7, Type 0, BuildingBlock: QEWDON_clean_linker_0, # of connection points: 3
#     Node 8, Type 0, BuildingBlock: QEWDON_clean_linker_0, # of connection points: 3
#     Node 9, Type 0, BuildingBlock: QEWDON_clean_linker_0, # of connection points: 3
#     Node 10, Type 0, BuildingBlock: QEWDON_clean_linker_0, # of connection points: 3
#     Node 11, Type 0, BuildingBlock: QEWDON_clean_linker_0, # of connection points: 3
#     Node 12, Type 0, BuildingBlock: QEWDON_clean_linker_0, # of connection points: 3
#     Node 13, Type 0, BuildingBlock: QEWDON_clean_linker_0, # of connection points: 3
#     Node 14, Type 0, BuildingBlock: QEWDON_clean_linker_0, # of connection points: 3
#     Node 15, Type 0, BuildingBlock: QEWDON_clean_linker_0, # of connection points: 3
#     Node 16, Type 0, BuildingBlock: QEWDON_clean_linker_0, # of connection points: 3
#     Node 17, Type 0, BuildingBlock: QEWDON_clean_linker_0, # of connection points: 3
#     Node 18, Type 1, BuildingBlock: KUMBOL_clean_sbu_0, # of connection points: 6
#     Node 19, Type 1, BuildingBlock: KUMBOL_clean_sbu_0, # of connection points: 6
#     Node 20, Type 1, BuildingBlock: KUMBOL_clean_sbu_0, # of connection points: 6
#     Node 21, Type 1, BuildingBlock: KUMBOL_clean_sbu_0, # of connection points: 6
#     Node 22, Type 1, BuildingBlock: KUMBOL_clean_sbu_0, # of connection points: 6
#     Node 23, Type 1, BuildingBlock: KUMBOL_clean_sbu_0, # of connection points: 6
#     Node 24, Type 1, BuildingBlock: KUMBOL_clean_sbu_0, # of connection points: 6
#     Node 25, Type 1, BuildingBlock: KUMBOL_clean_sbu_0, # of connection points: 6
#     Node 26, Type 1, BuildingBlock: KUMBOL_clean_sbu_0, # of connection points: 6
#     Edge 27, Type (0, 1), BuildingBlock: MIFKUJ_clean_linker_0, # of connection points: 2
#     Edge 28, Type (0, 1), BuildingBlock: MIFKUJ_clean_linker_0, # of connection points: 2
#     Edge 29, Type (0, 1), BuildingBlock: MIFKUJ_clean_linker_0, # of connection points: 2
#     Edge 30, Type (0, 1), BuildingBlock: MIFKUJ_clean_linker_0, # of connection points: 2
#     Edge 31, Type (0, 1), BuildingBlock: MIFKUJ_clean_linker_0, # of connection points: 2
#     Edge 32, Type (0, 1), BuildingBlock: MIFKUJ_clean_linker_0, # of connection points: 2
#     Edge 33, Type (0, 1), BuildingBlock: MIFKUJ_clean_linker_0, # of connection points: 2
#     Edge 34, Type (0, 1), BuildingBlock: MIFKUJ_clean_linker_0, # of connection points: 2
#     Edge 35, Type (0, 1), BuildingBlock: MIFKUJ_clean_linker_0, # of connection points: 2
#     Edge 36, Type (0, 1), BuildingBlock: MIFKUJ_clean_linker_0, # of connection points: 2
#     Edge 37, Type (0, 1), BuildingBlock: MIFKUJ_clean_linker_0, # of connection points: 2
#     Edge 38, Type (0, 1), BuildingBlock: MIFKUJ_clean_linker_0, # of connection points: 2
#     Edge 39, Type (0, 1), BuildingBlock: MIFKUJ_clean_linker_0, # of connection points: 2
#     Edge 40, Type (0, 1), BuildingBlock: MIFKUJ_clean_linker_0, # of connection points: 2
#     Edge 41, Type (0, 1), BuildingBlock: MIFKUJ_clean_linker_0, # of connection points: 2
#     Edge 42, Type (0, 1), BuildingBlock: MIFKUJ_clean_linker_0, # of connection points: 2
#     Edge 43, Type (0, 1), BuildingBlock: MIFKUJ_clean_linker_0, # of connection points: 2
#     Edge 44, Type (0, 1), BuildingBlock: MIFKUJ_clean_linker_0, # of connection points: 2
#     Edge 45, Type (0, 1), BuildingBlock: MIFKUJ_clean_linker_0, # of connection points: 2
#     Edge 46, Type (0, 1), BuildingBlock: MIFKUJ_clean_linker_0, # of connection points: 2
#     Edge 47, Type (0, 1), BuildingBlock: MIFKUJ_clean_linker_0, # of connection points: 2
#     Edge 48, Type (0, 1), BuildingBlock: MIFKUJ_clean_linker_0, # of connection points: 2
#     Edge 49, Type (0, 1), BuildingBlock: MIFKUJ_clean_linker_0, # of connection points: 2
#     Edge 50, Type (0, 1), BuildingBlock: MIFKUJ_clean_linker_0, # of connection points: 2
#     Edge 51, Type (0, 1), BuildingBlock: MIFKUJ_clean_linker_0, # of connection points: 2
#     Edge 52, Type (0, 1), BuildingBlock: MIFKUJ_clean_linker_0, # of connection points: 2
#     Edge 53, Type (0, 1), BuildingBlock: MIFKUJ_clean_linker_0, # of connection points: 2
#     Edge 54, Type (0, 1), BuildingBlock: MIFKUJ_clean_linker_0, # of connection points: 2
#     Edge 55, Type (0, 1), BuildingBlock: MIFKUJ_clean_linker_0, # of connection points: 2
#     Edge 56, Type (0, 1), BuildingBlock: MIFKUJ_clean_linker_0, # of connection points: 2
#     Edge 57, Type (0, 1), BuildingBlock: MIFKUJ_clean_linker_0, # of connection points: 2
#     Edge 58, Type (0, 1), BuildingBlock: MIFKUJ_clean_linker_0, # of connection points: 2
#     Edge 59, Type (0, 1), BuildingBlock: MIFKUJ_clean_linker_0, # of connection points: 2
#     Edge 60, Type (0, 1), BuildingBlock: MIFKUJ_clean_linker_0, # of connection points: 2
#     Edge 61, Type (0, 1), BuildingBlock: MIFKUJ_clean_linker_0, # of connection points: 2
#     Edge 62, Type (0, 1), BuildingBlock: MIFKUJ_clean_linker_0, # of connection points: 2
#     Edge 63, Type (0, 1), BuildingBlock: MIFKUJ_clean_linker_0, # of connection points: 2
#     Edge 64, Type (0, 1), BuildingBlock: MIFKUJ_clean_linker_0, # of connection points: 2
#     Edge 65, Type (0, 1), BuildingBlock: MIFKUJ_clean_linker_0, # of connection points: 2
#     Edge 66, Type (0, 1), BuildingBlock: MIFKUJ_clean_linker_0, # of connection points: 2
#     Edge 67, Type (0, 1), BuildingBlock: MIFKUJ_clean_linker_0, # of connection points: 2
#     Edge 68, Type (0, 1), BuildingBlock: MIFKUJ_clean_linker_0, # of connection points: 2
#     Edge 69, Type (0, 1), BuildingBlock: MIFKUJ_clean_linker_0, # of connection points: 2
#     Edge 70, Type (0, 1), BuildingBlock: MIFKUJ_clean_linker_0, # of connection points: 2
#     Edge 71, Type (0, 1), BuildingBlock: MIFKUJ_clean_linker_0, # of connection points: 2
#     Edge 72, Type (0, 1), BuildingBlock: MIFKUJ_clean_linker_0, # of connection points: 2
#     Edge 73, Type (0, 1), BuildingBlock: MIFKUJ_clean_linker_0, # of connection points: 2
#     Edge 74, Type (0, 1), BuildingBlock: MIFKUJ_clean_linker_0, # of connection points: 2
#     Edge 75, Type (0, 1), BuildingBlock: MIFKUJ_clean_linker_0, # of connection points: 2
#     Edge 76, Type (0, 1), BuildingBlock: MIFKUJ_clean_linker_0, # of connection points: 2
#     Edge 77, Type (0, 1), BuildingBlock: MIFKUJ_clean_linker_0, # of connection points: 2
#     Edge 78, Type (0, 1), BuildingBlock: MIFKUJ_clean_linker_0, # of connection points: 2
#     Edge 79, Type (0, 1), BuildingBlock: MIFKUJ_clean_linker_0, # of connection points: 2
#     Edge 80, Type (0, 1), BuildingBlock: MIFKUJ_clean_linker_0, # of connection points: 2
# Relax obj value: 0.043
# Max RMSD: 0.200
# Mean RMSD: 0.144
data_MOF--net-eea--node1-KUMBOL_clean_sbu_0--node2-QEWDON_clean_linker_0--edge1-MIFKUJ_clean_linker_0
_symmetry_space_group_name_H-M    P1
_symmetry_Int_Tables_number       1
_symmetry_cell_setting            triclinic
loop_
_symmetry_equiv_pos_as_xyz
'x, y, z'
_cell_length_a     75.10658
_cell_length_b     76.598406
_cell_length_c     78.686645
_cell_angle_alpha  90.170007
_cell_angle_beta   90.265081
_cell_angle_gamma 119.93963
loop_
_atom_site_label
_atom_site_type_symbol
_atom_site_fract_x
_atom_site_fract_y
_atom_site_fract_z
_atom_type_partial_charge
H0 H 0.20095 0.10852 0.4253 0.0
C1 C 0.20195 0.09644 0.41902 0.0
C2 C 0.21434 0.0893 0.42611 0.0
C3 C 0.18987 0.08725 0.40448 0.0
H4 H 0.22401 0.06722 0.42381 0.0
C5 C 0.21468 0.07292 0.41831 0.0
C6 C 0.20271 0.06347 0.40378 0.0
C7 C 0.19057 0.07095 0.39685 0.0
C8 C 0.17533 0.09359 0.39797 0.0
H9 H 0.18155 0.06402 0.38548 0.0
C10 C 0.18107 0.11413 0.39679 0.0
C11 C 0.16685 0.11981 0.39111 0.0
C12 C 0.15522 0.07887 0.3933 0.0
H13 H 0.1502 0.06298 0.39434 0.0
C14 C 0.14118 0.08443 0.38758 0.0
H15 H 0.19649 0.12564 0.40036 0.0
C16 C 0.1469 0.10472 0.38649 0.0
H17 H 0.13573 0.10861 0.38184 0.0
H18 H 0.12576 0.07296 0.38403 0.0
H19 H 0.90642 0.0936 0.42647 0.0
C20 C 0.91843 0.10671 0.42012 0.0
C21 C 0.92537 0.12595 0.42712 0.0
C22 C 0.92735 0.10427 0.4053 0.0
H23 H 0.94734 0.15756 0.42507 0.0
C24 C 0.94143 0.14288 0.41917 0.0
C25 C 0.95064 0.14086 0.40431 0.0
C26 C 0.94324 0.12145 0.39738 0.0
C27 C 0.92134 0.08373 0.39888 0.0
H28 H 0.94988 0.11962 0.3858 0.0
C29 C 0.90054 0.06829 0.39791 0.0
C30 C 0.89535 0.04868 0.39264 0.0
C31 C 0.93673 0.07929 0.39428 0.0
H32 H 0.95282 0.09069 0.39513 0.0
C33 C 0.93161 0.05996 0.38897 0.0
H34 H 0.88847 0.07145 0.40135 0.0
C35 C 0.91111 0.04473 0.3882 0.0
H36 H 0.90753 0.02986 0.38393 0.0
H37 H 0.94361 0.05673 0.38552 0.0
H38 H 0.92205 0.80842 0.42056 0.0
C39 C 0.9086 0.80822 0.41527 0.0
C40 C 0.89022 0.79952 0.42464 0.0
C41 C 0.91003 0.81777 0.39965 0.0
H42 H 0.859 0.7936 0.42538 0.0
C43 C 0.87305 0.80008 0.41807 0.0
C44 C 0.87387 0.80914 0.40235 0.0
C45 C 0.8924 0.81777 0.39322 0.0
C46 C 0.93017 0.82928 0.39064 0.0
H47 H 0.8931 0.82455 0.381 0.0
C48 C 0.94437 0.82221 0.38927 0.0
C49 C 0.96292 0.83342 0.38017 0.0
C50 C 0.93534 0.84799 0.38337 0.0
H51 H 0.92527 0.85425 0.38459 0.0
C52 C 0.95366 0.8591 0.37461 0.0
H53 H 0.94078 0.80788 0.39477 0.0
C54 C 0.96728 0.85188 0.37293 0.0
H55 H 0.98146 0.86093 0.36611 0.0
H56 H 0.95736 0.87346 0.36911 0.0
H57 H 0.11778 0.20474 0.6077 0.0
C58 C 0.10458 0.20494 0.61297 0.0
C59 C 0.09564 0.21455 0.60395 0.0
C60 C 0.09628 0.19523 0.62852 0.0
H61 H 0.07055 0.22073 0.60335 0.0
C62 C 0.07796 0.21399 0.61048 0.0
C63 C 0.06946 0.20457 0.62597 0.0
C64 C 0.07899 0.1957 0.63511 0.0
C65 C 0.10446 0.18327 0.63731 0.0
H66 H 0.07244 0.18857 0.64712 0.0
C67 C 0.12571 0.1894 0.63769 0.0
C68 C 0.13273 0.17774 0.64632 0.0
C69 C 0.09055 0.16503 0.64523 0.0
H70 H 0.07416 0.15936 0.64472 0.0
C71 C 0.09745 0.15354 0.65364 0.0
H72 H 0.13677 0.20335 0.63172 0.0
C73 C 0.11831 0.15984 0.65427 0.0
H74 H 0.12317 0.15045 0.66077 0.0
H75 H 0.08651 0.13956 0.65963 0.0
H76 H 0.82038 0.92269 0.58956 0.0
C77 C 0.82023 0.90998 0.59571 0.0
C78 C 0.80704 0.89038 0.58953 0.0
C79 C 0.83407 0.91336 0.60909 0.0
H80 H 0.79744 0.8589 0.5924 0.0
C81 C 0.80753 0.87404 0.59712 0.0
C82 C 0.82124 0.87709 0.61049 0.0
C83 C 0.83442 0.89678 0.61642 0.0
C84 C 0.84895 0.93426 0.6148 0.0
H85 H 0.84486 0.89916 0.62686 0.0
C86 C 0.84292 0.94891 0.61668 0.0
C87 C 0.85726 0.96877 0.62176 0.0
C88 C 0.86952 0.93975 0.61809 0.0
H89 H 0.87474 0.92898 0.61648 0.0
C90 C 0.88372 0.95932 0.62319 0.0
H91 H 0.82712 0.94488 0.61417 0.0
C92 C 0.87769 0.97372 0.62504 0.0
H93 H 0.88901 0.98871 0.62928 0.0
H94 H 0.8995 0.96334 0.62572 0.0
H95 H 0.08963 0.88998 0.59854 0.0
C96 C 0.10291 0.90343 0.60344 0.0
C97 C 0.12206 0.91083 0.59543 0.0
C98 C 0.10078 0.91359 0.61755 0.0
H99 H 0.15376 0.9346 0.59534 0.0
C100 C 0.13907 0.9286 0.60164 0.0
C101 C 0.13734 0.93894 0.6157 0.0
C102 C 0.11821 0.93117 0.6237 0.0
C103 C 0.08031 0.90667 0.62545 0.0
H104 H 0.11678 0.93912 0.63455 0.0
C105 C 0.06639 0.88605 0.6285 0.0
C106 C 0.04763 0.88014 0.63679 0.0
C107 C 0.07473 0.92101 0.63025 0.0
H108 H 0.08475 0.93687 0.62771 0.0
C109 C 0.05609 0.9151 0.63829 0.0
H110 H 0.07037 0.87474 0.62498 0.0
C111 C 0.04269 0.89484 0.64167 0.0
H112 H 0.02831 0.89058 0.64799 0.0
H113 H 0.05204 0.92631 0.64194 0.0
H114 H 0.86818 0.44634 0.76282 0.0
C115 C 0.86821 0.43361 0.75679 0.0
C116 C 0.88068 0.42634 0.76341 0.0
C117 C 0.85524 0.42412 0.74275 0.0
H118 H 0.88875 0.40312 0.76145 0.0
C119 C 0.88007 0.40943 0.75576 0.0
C120 C 0.86763 0.39999 0.74144 0.0
C121 C 0.85535 0.40759 0.73498 0.0
C122 C 0.8404 0.43039 0.73699 0.0
H123 H 0.84577 0.40065 0.72388 0.0
C124 C 0.84638 0.45088 0.73493 0.0
C125 C 0.8318 0.45642 0.73018 0.0
C126 C 0.81974 0.41565 0.73408 0.0
H127 H 0.81463 0.39981 0.73578 0.0
C128 C 0.80532 0.4212 0.72939 0.0
H129 H 0.86225 0.46245 0.737 0.0
C130 C 0.81127 0.44147 0.72752 0.0
H131 H 0.79988 0.44552 0.72386 0.0
H132 H 0.78945 0.40973 0.7273 0.0
H133 H 0.5753 0.42795 0.75697 0.0
C134 C 0.5874 0.44109 0.75072 0.0
C135 C 0.59485 0.46021 0.75813 0.0
C136 C 0.59587 0.4388 0.73555 0.0
H137 H 0.61741 0.49166 0.75658 0.0
C138 C 0.61105 0.47713 0.75032 0.0
C139 C 0.61975 0.4753 0.73509 0.0
C140 C 0.61179 0.45603 0.72771 0.0
C141 C 0.58918 0.41833 0.72854 0.0
H142 H 0.61797 0.45435 0.71581 0.0
C143 C 0.56825 0.40316 0.72807 0.0
C144 C 0.56239 0.38361 0.72212 0.0
C145 C 0.60405 0.41367 0.72282 0.0
H146 H 0.62025 0.42483 0.72328 0.0
C147 C 0.59829 0.39443 0.7168 0.0
H148 H 0.55659 0.40649 0.7324 0.0
C149 C 0.57766 0.37949 0.71647 0.0
H150 H 0.57361 0.36471 0.71159 0.0
H151 H 0.6099 0.39105 0.71244 0.0
H152 H 0.58249 0.13455 0.75114 0.0
C153 C 0.56933 0.13451 0.7454 0.0
C154 C 0.54974 0.12308 0.75273 0.0
C155 C 0.57227 0.14675 0.7312 0.0
H156 H 0.51796 0.11556 0.75118 0.0
C157 C 0.5329 0.12359 0.74524 0.0
C158 C 0.53534 0.13541 0.73085 0.0
C159 C 0.55512 0.14693 0.72394 0.0
C160 C 0.59346 0.16133 0.7253 0.0
H161 H 0.55727 0.15629 0.71297 0.0
C162 C 0.60852 0.15568 0.72229 0.0
C163 C 0.62858 0.17019 0.71699 0.0
C164 C 0.59883 0.18159 0.72325 0.0
H165 H 0.5878 0.18647 0.72575 0.0
C166 C 0.6186 0.19595 0.71845 0.0
H167 H 0.60447 0.14007 0.72366 0.0
C168 C 0.63334 0.19038 0.71543 0.0
H169 H 0.64864 0.2021 0.71202 0.0
H170 H 0.62257 0.21155 0.71718 0.0
H171 H 0.78792 0.54107 0.93741 0.0
C172 C 0.77509 0.54118 0.94354 0.0
C173 C 0.76683 0.55256 0.93653 0.0
C174 C 0.76622 0.52913 0.95793 0.0
H175 H 0.74291 0.5602 0.93868 0.0
C176 C 0.74981 0.55213 0.94442 0.0
C177 C 0.74074 0.54038 0.95894 0.0
C178 C 0.74915 0.52897 0.96559 0.0
C179 C 0.77285 0.51463 0.96358 0.0
H180 H 0.74227 0.5197 0.97668 0.0
C181 C 0.79377 0.5204 0.96642 0.0
C182 C 0.79929 0.50594 0.97152 0.0
C183 C 0.75774 0.49433 0.96557 0.0
H184 H 0.74168 0.48938 0.9632 0.0
C185 C 0.76311 0.48002 0.97011 0.0
H186 H 0.80552 0.53606 0.96509 0.0
C187 C 0.7836 0.48569 0.97298 0.0
H188 H 0.78713 0.47401 0.97622 0.0
H189 H 0.7513 0.46438 0.97133 0.0
H190 H 0.4906 0.25977 0.9256 0.0
C191 C 0.49014 0.24686 0.93166 0.0
C192 C 0.47678 0.22741 0.92532 0.0
C193 C 0.50325 0.24981 0.94551 0.0
H194 H 0.46672 0.1958 0.928 0.0
C195 C 0.47646 0.2108 0.93316 0.0
C196 C 0.48941 0.21341 0.94702 0.0
C197 C 0.50277 0.23298 0.95312 0.0
C198 C 0.518 0.27052 0.9516 0.0
H199 H 0.51266 0.23508 0.96393 0.0
C200 C 0.51191 0.28511 0.95337 0.0
C201 C 0.52608 0.30487 0.9587 0.0
C202 C 0.53844 0.27592 0.95533 0.0
H203 H 0.54365 0.26512 0.95388 0.0
C204 C 0.55252 0.29546 0.96064 0.0
H205 H 0.49618 0.2811 0.95057 0.0
C206 C 0.54644 0.30987 0.9623 0.0
H207 H 0.55762 0.32485 0.96666 0.0
H208 H 0.56824 0.29947 0.96346 0.0
H209 H 0.76119 0.22352 0.93607 0.0
C210 C 0.77413 0.23665 0.94174 0.0
C211 C 0.79359 0.24517 0.93405 0.0
C212 C 0.77124 0.24533 0.95651 0.0
H213 H 0.82483 0.26982 0.9349 0.0
C214 C 0.81013 0.2626 0.94129 0.0
C215 C 0.8077 0.27136 0.95616 0.0
C216 C 0.78823 0.2624 0.96377 0.0
C217 C 0.75039 0.23754 0.96396 0.0
H218 H 0.78625 0.26875 0.97545 0.0
C219 C 0.73644 0.21668 0.96573 0.0
C220 C 0.71728 0.20998 0.9736 0.0
C221 C 0.74445 0.25135 0.96957 0.0
H222 H 0.75451 0.26742 0.96802 0.0
C223 C 0.72542 0.24468 0.97716 0.0
H224 H 0.74068 0.20576 0.96155 0.0
C225 C 0.71198 0.22416 0.9793 0.0
H226 H 0.69729 0.2193 0.9853 0.0
H227 H 0.7211 0.25549 0.98145 0.0
H228 H 0.53976 0.78463 0.09345 0.0
C229 C 0.53961 0.77163 0.08781 0.0
C230 C 0.55399 0.76614 0.09322 0.0
C231 C 0.52447 0.75998 0.07565 0.0
H232 H 0.56428 0.74461 0.09012 0.0
C233 C 0.55338 0.74906 0.08593 0.0
C234 C 0.53845 0.73724 0.07372 0.0
C235 C 0.52407 0.74287 0.06861 0.0
C236 C 0.50811 0.76478 0.07135 0.0
H237 H 0.5122 0.73366 0.05946 0.0
C238 C 0.51292 0.78472 0.06796 0.0
C239 C 0.49718 0.78919 0.0649 0.0
C240 C 0.48739 0.74941 0.07134 0.0
H241 H 0.48321 0.73399 0.07411 0.0
C242 C 0.47178 0.75389 0.06827 0.0
H243 H 0.52882 0.79673 0.0678 0.0
C244 C 0.47662 0.77369 0.06516 0.0
H245 H 0.46432 0.77692 0.06284 0.0
H246 H 0.45588 0.74198 0.06842 0.0
H247 H 0.24125 0.76218 0.09143 0.0
C248 C 0.25375 0.77545 0.08567 0.0
C249 C 0.26016 0.79452 0.09289 0.0
C250 C 0.26361 0.77341 0.07127 0.0
H251 H 0.28228 0.82622 0.09169 0.0
C252 C 0.27679 0.81166 0.08568 0.0
C253 C 0.28694 0.81003 0.07131 0.0
C254 C 0.27996 0.79086 0.06406 0.0
C255 C 0.25773 0.7531 0.06421 0.0
H256 H 0.28725 0.78953 0.05268 0.0
C257 C 0.237 0.73746 0.06318 0.0
C258 C 0.23187 0.71835 0.05649 0.0
C259 C 0.2732 0.74923 0.0586 0.0
H260 H 0.28928 0.76063 0.05959 0.0
C261 C 0.26822 0.73053 0.05181 0.0
H262 H 0.22492 0.74015 0.06756 0.0
C263 C 0.24779 0.71526 0.05066 0.0
H264 H 0.24449 0.70104 0.045 0.0
H265 H 0.28029 0.72785 0.0474 0.0
H266 H 0.2554 0.47705 0.09244 0.0
C267 C 0.24208 0.47654 0.08657 0.0
C268 C 0.2228 0.466 0.0946 0.0
C269 C 0.24435 0.48699 0.07128 0.0
H270 H 0.19126 0.45917 0.09382 0.0
C271 C 0.20578 0.46617 0.08717 0.0
C272 C 0.20743 0.47609 0.07177 0.0
C273 C 0.22673 0.48613 0.06382 0.0
C274 C 0.26519 0.50045 0.06385 0.0
H275 H 0.22809 0.49352 0.05179 0.0
C276 C 0.28107 0.49545 0.06369 0.0
C277 C 0.30066 0.50902 0.05685 0.0
C278 C 0.2694 0.51916 0.05718 0.0
H279 H 0.25803 0.5239 0.05754 0.0
C280 C 0.28841 0.53227 0.05017 0.0
H281 H 0.27828 0.48124 0.0689 0.0
C282 C 0.30382 0.52726 0.0499 0.0
H283 H 0.31831 0.53776 0.04409 0.0
H284 H 0.29126 0.54649 0.04495 0.0
H285 H 0.44748 0.86153 0.26374 0.0
C286 C 0.43467 0.86191 0.26964 0.0
C287 C 0.42546 0.87169 0.2613 0.0
C288 C 0.42661 0.85149 0.28494 0.0
H289 H 0.40119 0.87897 0.26243 0.0
C290 C 0.40811 0.87116 0.2686 0.0
C291 C 0.39972 0.86091 0.28387 0.0
C292 C 0.4093 0.8514 0.29207 0.0
C293 C 0.43475 0.83888 0.29249 0.0
H294 H 0.40284 0.84335 0.30378 0.0
C295 C 0.45605 0.84527 0.29296 0.0
C296 C 0.46292 0.8323 0.29917 0.0
C297 C 0.42073 0.81954 0.29856 0.0
H298 H 0.40433 0.81387 0.29806 0.0
C299 C 0.42754 0.8069 0.30489 0.0
H300 H 0.46716 0.86006 0.28834 0.0
C301 C 0.44841 0.81316 0.30513 0.0
H302 H 0.45328 0.80299 0.31006 0.0
H303 H 0.41653 0.79206 0.30945 0.0
H304 H 0.1585 0.58867 0.25924 0.0
C305 C 0.15823 0.57562 0.26481 0.0
C306 C 0.14379 0.55624 0.25898 0.0
C307 C 0.17263 0.57828 0.27748 0.0
H308 H 0.13289 0.52444 0.26135 0.0
C309 C 0.14366 0.53938 0.26612 0.0
C310 C 0.15803 0.54172 0.27871 0.0
C311 C 0.17244 0.56123 0.28433 0.0
C312 C 0.1885 0.59889 0.28295 0.0
H313 H 0.1834 0.56314 0.29419 0.0
C314 C 0.18331 0.61394 0.28615 0.0
C315 C 0.19859 0.63364 0.29066 0.0
C316 C 0.20913 0.60377 0.28454 0.0
H317 H 0.21363 0.59261 0.28198 0.0
C318 C 0.22429 0.62325 0.28906 0.0
H319 H 0.16746 0.61037 0.28503 0.0
C320 C 0.21911 0.63812 0.29203 0.0
H321 H 0.23114 0.6531 0.29562 0.0
H322 H 0.24014 0.62685 0.29018 0.0
H323 H 0.419 0.55853 0.26471 0.0
C324 C 0.43256 0.57112 0.27032 0.0
C325 C 0.45163 0.57841 0.26229 0.0
C326 C 0.43072 0.58093 0.28479 0.0
H327 H 0.48378 0.6006 0.26297 0.0
C328 C 0.46907 0.59528 0.26909 0.0
C329 C 0.46773 0.60522 0.28366 0.0
C330 C 0.44848 0.59779 0.29148 0.0
C331 C 0.41007 0.57497 0.29188 0.0
H332 H 0.44715 0.60554 0.30252 0.0
C333 C 0.39468 0.55453 0.29364 0.0
C334 C 0.37495 0.54939 0.29959 0.0
C335 C 0.40541 0.59005 0.29632 0.0
H336 H 0.41663 0.60585 0.29479 0.0
C337 C 0.38603 0.58501 0.30237 0.0
H338 H 0.39795 0.5427 0.29026 0.0
C339 C 0.3709 0.56488 0.30397 0.0
H340 H 0.35601 0.5614 0.30879 0.0
H341 H 0.38268 0.59678 0.30572 0.0
Gd342 Gd 0.5064 0.01416 0.03312 0.0
Gd343 Gd 0.49677 0.99742 0.98794 0.0
C344 C 0.43008 0.95224 0.97402 0.0
C345 C 0.43217 0.92264 0.9661 0.0
C346 C 0.46285 0.95334 0.97521 0.0
C347 C 0.45135 0.96268 0.97762 0.0
C348 C 0.45349 0.93341 0.96893 0.0
C349 C 0.4205 0.93206 0.9686 0.0
C350 C 0.41921 0.96259 0.97547 0.0
C351 C 0.42951 0.98281 0.98029 0.0
N352 N 0.46111 0.98225 0.98272 0.0
C353 C 0.45056 0.99251 0.98376 0.0
H354 H 0.45808 0.00812 0.98749 0.0
C355 C 0.49584 0.95702 0.97231 0.0
N356 N 0.48346 0.96431 0.97764 0.0
C357 C 0.48729 0.93724 0.9663 0.0
C358 C 0.46598 0.92523 0.96489 0.0
H359 H 0.51236 0.96643 0.97316 0.0
H360 H 0.40418 0.92378 0.96583 0.0
H361 H 0.55126 0.01455 0.03481 0.0
H362 H 0.40302 0.95533 0.97245 0.0
H363 H 0.42124 0.99099 0.98128 0.0
H364 H 0.42468 0.90726 0.96142 0.0
H365 H 0.47995 0.03447 0.04939 0.0
H366 H 0.59749 0.07192 0.05368 0.0
H367 H 0.58714 0.03766 0.04302 0.0
H368 H 0.56013 0.10569 0.06647 0.0
H369 H 0.49714 0.93133 0.96264 0.0
H370 H 0.45938 0.90998 0.96004 0.0
H371 H 0.58757 0.09767 0.06136 0.0
H372 H 0.48658 0.06646 0.06274 0.0
N373 N 0.54133 0.03568 0.03986 0.0
C374 C 0.58179 0.06197 0.04962 0.0
C375 C 0.57597 0.04261 0.04379 0.0
C376 C 0.56705 0.06795 0.05097 0.0
C377 C 0.54663 0.05418 0.04614 0.0
C378 C 0.55552 0.02951 0.03916 0.0
N379 N 0.51158 0.04419 0.04586 0.0
C380 C 0.53125 0.05866 0.04911 0.0
C381 C 0.4993 0.06453 0.05886 0.0
C382 C 0.5195 0.08006 0.06137 0.0
C383 C 0.49559 0.04644 0.05133 0.0
C384 C 0.53579 0.07705 0.05687 0.0
H385 H 0.52234 0.09398 0.06736 0.0
O386 O 0.48701 0.00271 0.05552 0.0
O387 O 0.48462 0.99237 0.01417 0.0
O388 O 0.49369 0.02522 0.992 0.0
O389 O 0.50433 0.03882 0.01939 0.0
O390 O 0.47218 0.00261 0.03208 0.0
O391 O 0.51375 0.99932 0.05313 0.0
O392 O 0.51484 0.0021 0.96513 0.0
O393 O 0.51891 0.01913 0.00677 0.0
O394 O 0.51579 0.99072 0.0278 0.0
O395 O 0.49918 0.9735 0.00282 0.0
O396 O 0.53059 0.0075 0.98921 0.0
O397 O 0.49334 0.01307 0.96624 0.0
C398 C 0.4679 0.99043 0.01941 0.0
C399 C 0.55629 0.09138 0.06067 0.0
C400 C 0.57191 0.08681 0.05776 0.0
C401 C 0.49867 0.9968 0.06285 0.0
C402 C 0.50398 0.00243 0.08085 0.0
C403 C 0.51769 0.02249 0.08541 0.0
C404 C 0.49595 0.98758 0.09355 0.0
C405 C 0.50185 0.99276 0.1107 0.0
C406 C 0.52336 0.02776 0.10236 0.0
C407 C 0.51557 0.01303 0.11493 0.0
C408 C 0.49786 0.0392 0.00379 0.0
C409 C 0.53534 0.02024 1.00157 0.0
C410 C 0.50615 0.01061 0.95681 0.0
C411 C 0.49937 0.00351 0.93922 0.0
C412 C 0.48654 0.98295 0.93576 0.0
C413 C 0.50566 0.01738 0.92572 0.0
C414 C 0.4992 0.01067 0.90887 0.0
C415 C 0.48025 0.97618 0.91918 0.0
C416 C 0.48656 0.98986 0.90583 0.0
C417 C 0.50886 0.97504 0.01734 0.0
H418 H 0.52415 0.03406 0.0759 0.0
H419 H 0.48555 0.97201 0.09004 0.0
H420 H 0.53393 0.0433 0.10575 0.0
H421 H 0.52017 0.01754 0.12801 0.0
H422 H 0.48141 0.97204 0.94579 0.0
H423 H 0.51532 0.03332 0.9284 0.0
H424 H 0.47049 0.96024 0.91666 0.0
H425 H 0.48168 0.98405 0.89306 0.0
Gd426 Gd 0.99985 0.50108 0.03532 0.0
Gd427 Gd 0.01971 0.50077 0.99246 0.0
C428 C 0.07578 0.49332 0.98466 0.0
C429 C 0.10107 0.52633 0.97423 0.0
C430 C 0.06645 0.5191 0.98081 0.0
C431 C 0.06124 0.49982 0.98568 0.0
C432 C 0.08626 0.53242 0.97463 0.0
C433 C 0.09584 0.50682 0.97927 0.0
C434 C 0.0696 0.47334 0.98878 0.0
C435 C 0.04921 0.46025 0.99323 0.0
N436 N 0.0417 0.48716 0.99077 0.0
C437 C 0.03533 0.46738 0.99397 0.0
H438 H 0.01968 0.45709 0.99755 0.0
C439 C 0.05534 0.54234 0.97454 0.0
N440 N 0.05175 0.52444 0.98126 0.0
C441 C 0.07478 0.55609 0.9683 0.0
C442 C 0.09039 0.55122 0.96855 0.0
H443 H 0.04333 0.54619 0.97441 0.0
H444 H 0.10728 0.50217 0.97858 0.0
H445 H 1.00049 0.54494 0.02974 0.0
H446 H 0.08033 0.46779 0.98825 0.0
H447 H 0.04419 0.44469 0.99619 0.0
H448 H 0.11645 0.53643 0.96969 0.0
H449 H 0.97564 0.45568 0.05335 0.0
H450 H 0.94042 0.53544 0.03976 0.0
H451 H 0.9765 0.55796 0.03135 0.0
H452 H 0.90331 0.46675 0.05809 0.0
H453 H 0.07766 0.57038 0.96325 0.0
H454 H 0.10539 0.56181 0.96361 0.0
H455 H 0.91302 0.50118 0.04928 0.0
H456 H 0.94104 0.43166 0.06422 0.0
N457 N 0.97819 0.51507 0.03675 0.0
C458 C 0.95087 0.52957 0.03901 0.0
C459 C 0.97125 0.54235 0.03432 0.0
C460 C 0.94437 0.50952 0.04309 0.0
C461 C 0.95864 0.50268 0.04198 0.0
C462 C 0.98483 0.53488 0.03344 0.0
N463 N 0.96766 0.47775 0.04652 0.0
C464 C 0.95317 0.48336 0.04693 0.0
C465 C 0.94422 0.44612 0.05933 0.0
C466 C 0.92883 0.4513 0.05909 0.0
C467 C 0.96378 0.45975 0.05323 0.0
C468 C 0.93329 0.47025 0.05311 0.0
H469 H 0.91372 0.44077 0.0639 0.0
O470 O 0.00902 0.49621 0.06026 0.0
O471 O 0.0231 0.49837 0.02017 0.0
O472 O 0.99571 0.4692 1.00106 0.0
O473 O 0.97571 0.47364 0.02134 0.0
O474 O 0.01186 0.47962 0.04071 0.0
O475 O 0.01322 0.52553 0.05376 0.0
O476 O 0.0093 0.50535 0.96801 0.0
O477 O 0.99625 0.50324 0.00759 0.0
O478 O 0.02438 0.53266 0.02686 0.0
O479 O 0.04407 0.5278 0.00654 0.0
O480 O 0.00786 0.52238 0.98732 0.0
O481 O 0.00734 0.47674 0.97357 0.0
C482 C 0.02488 0.48526 0.02846 0.0
C483 C 0.91873 0.47667 0.05354 0.0
C484 C 0.92427 0.49627 0.04855 0.0
C485 C 0.01445 0.51431 0.06564 0.0
C486 C 0.00695 0.51564 0.08254 0.0
C487 C 0.98675 0.51163 0.08475 0.0
C488 C 0.02003 0.52049 0.09672 0.0
C489 C 0.01296 0.5211 0.11317 0.0
C490 C 0.9796 0.51221 0.10094 0.0
C491 C 0.99252 0.5168 0.11508 0.0
C492 C 0.97845 0.46259 0.0098 0.0
C493 C 0.99457 0.51646 0.99937 0.0
C494 C 1.00494 0.48773 0.96215 0.0
C495 C 0.0125 0.48761 0.945 0.0
C496 C 0.03317 0.49354 0.9423 0.0
C497 C 0.99902 0.4824 0.93107 0.0
C498 C 0.00615 0.48339 0.91436 0.0
C499 C 0.04041 0.49459 0.92584 0.0
C500 C 0.02709 0.48971 0.91195 0.0
C501 C 0.04166 0.53893 0.01818 0.0
H502 H 0.9765 0.50797 0.07401 0.0
H503 H 0.03573 0.5239 0.09485 0.0
H504 H 0.96393 0.50892 0.10257 0.0
H505 H 0.98636 0.51665 0.12752 0.0
H506 H 0.04373 0.4975 0.95286 0.0
H507 H 0.98298 0.47749 0.93334 0.0
H508 H 0.05645 0.49939 0.92382 0.0
H509 H 0.03331 0.49116 0.89932 0.0
Gd510 Gd 0.51259 0.51653 0.98921 0.0
Gd511 Gd 0.51929 0.50851 0.03391 0.0
C512 C 0.57945 0.51193 0.04971 0.0
C513 C 0.56836 0.47691 0.05598 0.0
C514 C 0.54347 0.48662 0.04719 0.0
C515 C 0.55899 0.50643 0.04571 0.0
C516 C 0.54788 0.4717 0.05273 0.0
C517 C 0.58413 0.49699 0.05445 0.0
C518 C 0.5945 0.53234 0.04923 0.0
C519 C 0.58881 0.54671 0.04546 0.0
N520 N 0.55389 0.52049 0.04123 0.0
C521 C 0.56827 0.5405 0.0417 0.0
H522 H 0.56407 0.55172 0.03868 0.0
C523 C 0.50775 0.46341 0.04745 0.0
N524 N 0.52386 0.48216 0.04407 0.0
C525 C 0.51135 0.44807 0.05288 0.0
C526 C 0.53152 0.45214 0.05529 0.0
H527 H 0.49215 0.46018 0.04543 0.0
H528 H 0.5998 0.50089 0.05739 0.0
H529 H 0.46543 0.47392 0.98788 0.0
H530 H 0.61042 0.53719 0.05214 0.0
H531 H 0.60026 0.56256 0.04537 0.0
H532 H 0.57211 0.46563 0.06008 0.0
H533 H 0.54245 0.56428 0.97521 0.0
H534 H 0.42394 0.48863 0.96355 0.0
H535 H 0.4309 0.46389 0.9776 0.0
H536 H 0.46614 0.55746 0.94774 0.0
H537 H 0.49857 0.43315 0.05522 0.0
H538 H 0.53425 0.44022 0.05952 0.0
H539 H 0.43758 0.52314 0.95159 0.0
H540 H 0.53809 0.58978 0.95995 0.0
N541 N 0.47825 0.50488 0.98109 0.0
C542 C 0.43921 0.49339 0.96844 0.0
C543 C 0.44309 0.47936 0.9763 0.0
C544 C 0.4552 0.51321 0.96644 0.0
C545 C 0.47483 0.51871 0.97309 0.0
C546 C 0.46287 0.48524 0.9822 0.0
N547 N 0.51043 0.54264 0.97556 0.0
C548 C 0.49129 0.53805 0.97031 0.0
C549 C 0.52481 0.57534 0.96281 0.0
C550 C 0.50525 0.57113 0.95775 0.0
C551 C 0.52719 0.56074 0.97146 0.0
C552 C 0.48828 0.55222 0.96115 0.0
H553 H 0.5035 0.58238 0.9508 0.0
O554 O 0.53076 0.5061 0.97554 0.0
O555 O 0.534 0.51656 0.00861 0.0
O556 O 0.52841 0.54137 0.02956 0.0
O557 O 0.51579 0.54373 0.00292 0.0
O558 O 0.54615 0.54027 0.99202 0.0
O559 O 0.50914 0.51134 0.96183 0.0
O560 O 0.49942 0.49881 0.05597 0.0
O561 O 0.49827 0.51027 0.01482 0.0
O562 O 0.49913 0.48334 0.99524 0.0
O563 O 0.51944 0.48425 0.01789 0.0
O564 O 0.48492 0.48718 0.03191 0.0
O565 O 0.52652 0.52852 0.05567 0.0
C566 C 0.55061 0.53193 0.00429 0.0
C567 C 0.46866 0.54685 0.95495 0.0
C568 C 0.4523 0.52733 0.95734 0.0
C569 C 0.52382 0.50714 0.96068 0.0
C570 C 0.53929 0.51794 0.94749 0.0
C571 C 0.55488 0.53795 0.95017 0.0
C572 C 0.53847 0.50831 0.93202 0.0
C573 C 0.55298 0.51878 0.91925 0.0
C574 C 0.5693 0.54833 0.93758 0.0
C575 C 0.56833 0.53887 0.92217 0.0
C576 C 0.52369 0.55114 0.01809 0.0
C577 C 0.48117 0.49593 0.01957 0.0
C578 C 0.51111 0.51523 0.06459 0.0
C579 C 0.51565 0.51246 0.08226 0.0
C580 C 0.52978 0.50606 0.08587 0.0
C581 C 0.5055 0.51594 0.09569 0.0
C582 C 0.50928 0.51283 0.11266 0.0
C583 C 0.53359 0.50293 0.10263 0.0
C584 C 0.5234 0.50623 0.11596 0.0
C585 C 0.50793 0.47521 0.0044 0.0
H586 H 0.55599 0.54564 0.96195 0.0
H587 H 0.52652 0.49282 0.92987 0.0
H588 H 0.58127 0.56376 0.93978 0.0
H589 H 0.57978 0.54717 0.9126 0.0
H590 H 0.53787 0.50349 0.07579 0.0
H591 H 0.49451 0.52081 0.0929 0.0
H592 H 0.54453 0.498 0.10531 0.0
H593 H 0.52684 0.50396 0.12887 0.0
Gd594 Gd 0.17396 0.34481 0.37067 0.0
Gd595 Gd 0.16412 0.32892 0.32559 0.0
C596 C 0.10602 0.27295 0.30705 0.0
C597 C 0.11903 0.25081 0.29874 0.0
C598 C 0.14229 0.28434 0.30988 0.0
C599 C 0.12602 0.28774 0.31201 0.0
C600 C 0.13907 0.26597 0.30297 0.0
C601 C 0.10254 0.25432 0.30073 0.0
C602 C 0.09024 0.27756 0.30811 0.0
C603 C 0.09465 0.2966 0.31381 0.0
N604 N 0.12993 0.30593 0.31807 0.0
C605 C 0.11474 0.31076 0.31861 0.0
H606 H 0.118 0.32544 0.32296 0.0
C607 C 0.17828 0.29765 0.3102 0.0
N608 N 0.16147 0.29945 0.31379 0.0
C609 C 0.17586 0.27965 0.30354 0.0
C610 C 0.15615 0.26363 0.30009 0.0
H611 H 0.19355 0.30994 0.3129 0.0
H612 H 0.08723 0.2427 0.297 0.0
H613 H 0.21994 0.34772 0.37139 0.0
H614 H 0.07476 0.26671 0.30412 0.0
H615 H 0.08263 0.30045 0.31445 0.0
H616 H 0.1162 0.23654 0.29352 0.0
H617 H 0.14569 0.36447 0.38439 0.0
H618 H 0.26445 0.40561 0.39075 0.0
H619 H 0.25565 0.37205 0.3795 0.0
H620 H 0.22375 0.43515 0.40654 0.0
H621 H 0.18919 0.27818 0.30102 0.0
H622 H 0.15433 0.24973 0.29485 0.0
H623 H 0.25238 0.42904 0.40088 0.0
H624 H 0.1508 0.3957 0.3981 0.0
N625 N 0.20863 0.36757 0.37718 0.0
C626 C 0.24875 0.39508 0.387 0.0
C627 C 0.24383 0.37612 0.38073 0.0
C628 C 0.23319 0.39986 0.38905 0.0
C629 C 0.21302 0.38562 0.38391 0.0
C630 C 0.22353 0.36238 0.37608 0.0
N631 N 0.17763 0.37442 0.38304 0.0
C632 C 0.19697 0.38911 0.38705 0.0
C633 C 0.16392 0.39405 0.39505 0.0
C634 C 0.18376 0.40945 0.39904 0.0
C635 C 0.16108 0.3764 0.38727 0.0
C636 C 0.20057 0.40695 0.39533 0.0
H637 H 0.18591 0.42298 0.40531 0.0
O638 O 0.15549 0.33311 0.39347 0.0
O639 O 0.15187 0.32302 0.35186 0.0
O640 O 0.15299 0.35082 0.33263 0.0
O641 O 0.17298 0.36943 0.35585 0.0
O642 O 0.13956 0.33251 0.37046 0.0
O643 O 0.18256 0.33034 0.39019 0.0
O644 O 0.18311 0.34116 0.30317 0.0
O645 O 0.18571 0.35068 0.34439 0.0
O646 O 0.18477 0.32258 0.36375 0.0
O647 O 0.1647 0.30428 0.34052 0.0
O648 O 0.19873 0.34208 0.3261 0.0
O649 O 0.15548 0.3431 0.30584 0.0
C650 C 0.13515 0.32076 0.35747 0.0
C651 C 0.22067 0.42136 0.40016 0.0
C652 C 0.23699 0.41791 0.39688 0.0
C653 C 0.16777 0.32768 0.40038 0.0
C654 C 0.1736 0.33368 0.41828 0.0
C655 C 0.18879 0.35343 0.42236 0.0
C656 C 0.16389 0.31969 0.43144 0.0
C657 C 0.16914 0.32558 0.44859 0.0
C658 C 0.19411 0.35932 0.43925 0.0
C659 C 0.18435 0.34555 0.45229 0.0
C660 C 0.16157 0.36735 0.34226 0.0
C661 C 0.20284 0.35403 0.33891 0.0
C662 C 0.1708 0.34641 0.29603 0.0
C663 C 0.16578 0.34087 0.278 0.0
C664 C 0.15396 0.32058 0.27319 0.0
C665 C 0.17285 0.35591 0.26545 0.0
C666 C 0.16803 0.35066 0.24814 0.0
C667 C 0.14925 0.31526 0.25614 0.0
C668 C 0.15623 0.33013 0.24369 0.0
C669 C 0.17622 0.30623 0.35394 0.0
H670 H 0.19658 0.36431 0.41252 0.0
H671 H 0.15209 0.30441 0.42836 0.0
H672 H 0.20587 0.37461 0.44225 0.0
H673 H 0.18891 0.35046 0.46531 0.0
H674 H 0.1484 0.30884 0.2826 0.0
H675 H 0.18183 0.37161 0.26919 0.0
H676 H 0.1402 0.29954 0.25253 0.0
H677 H 0.15257 0.3255 0.23052 0.0
Gd678 Gd 0.66411 0.83062 0.36542 0.0
Gd679 Gd 0.68497 0.83192 0.32262 0.0
C680 C 0.74113 0.82427 0.31668 0.0
C681 C 0.76646 0.85686 0.30554 0.0
C682 C 0.73186 0.84993 0.31173 0.0
C683 C 0.72661 0.83084 0.31722 0.0
C684 C 0.7516 0.86288 0.30522 0.0
C685 C 0.76125 0.83761 0.31133 0.0
C686 C 0.73479 0.80432 0.32102 0.0
C687 C 0.71423 0.79125 0.32503 0.0
N688 N 0.70693 0.81824 0.32201 0.0
C689 C 0.70036 0.79842 0.32522 0.0
H690 H 0.68456 0.78816 0.32844 0.0
C691 C 0.72031 0.87223 0.30328 0.0
N692 N 0.71706 0.85515 0.31139 0.0
C693 C 0.73963 0.88556 0.29657 0.0
C694 C 0.75548 0.88107 0.29787 0.0
H695 H 0.7081 0.87578 0.3024 0.0
H696 H 0.77269 0.83293 0.31104 0.0
H697 H 0.66499 0.87458 0.35907 0.0
H698 H 0.74549 0.79872 0.32088 0.0
H699 H 0.70907 0.77568 0.32805 0.0
H700 H 0.78181 0.86671 0.30082 0.0
H701 H 0.64062 0.78718 0.3862 0.0
H702 H 0.60443 0.86493 0.36673 0.0
H703 H 0.64086 0.88748 0.35926 0.0
H704 H 0.56756 0.79732 0.38761 0.0
H705 H 0.74231 0.89932 0.2905 0.0
H706 H 0.77042 0.8914 0.29265 0.0
H707 H 0.57701 0.83104 0.37697 0.0
H708 H 0.60636 0.76405 0.3982 0.0
N709 N 0.64245 0.84471 0.36591 0.0
C710 C 0.61498 0.85915 0.36669 0.0
C711 C 0.63554 0.87193 0.36251 0.0
C712 C 0.60846 0.83925 0.37133 0.0
C713 C 0.62279 0.83245 0.37093 0.0
C714 C 0.64921 0.86452 0.36244 0.0
N715 N 0.63202 0.80803 0.3771 0.0
C716 C 0.61739 0.81346 0.3767 0.0
C717 C 0.6092 0.77783 0.39208 0.0
C718 C 0.59353 0.78256 0.39075 0.0
C719 C 0.62856 0.79095 0.38533 0.0
C720 C 0.59763 0.80075 0.38328 0.0
H721 H 0.57856 0.77239 0.396 0.0
O722 O 0.67297 0.82561 0.39049 0.0
O723 O 0.68816 0.82916 0.35036 0.0
O724 O 0.66008 0.80009 0.32957 0.0
O725 O 0.64083 0.80188 0.35221 0.0
O726 O 0.67657 0.80954 0.3704 0.0
O727 O 0.67703 0.85486 0.38397 0.0
O728 O 0.67508 0.837 0.29805 0.0
O729 O 0.66064 0.83298 0.33764 0.0
O730 O 0.68907 0.86243 0.35823 0.0
O731 O 0.70861 0.85992 0.33629 0.0
O732 O 0.67266 0.85315 0.31796 0.0
O733 O 0.67426 0.80879 0.30302 0.0
C734 C 0.69007 0.81601 0.35848 0.0
C735 C 0.58292 0.80698 0.38284 0.0
C736 C 0.58832 0.82619 0.37681 0.0
C737 C 0.67816 0.84365 0.39588 0.0
C738 C 0.6704 0.84498 0.41265 0.0
C739 C 0.6506 0.84221 0.41452 0.0
C740 C 0.68311 0.84925 0.42698 0.0
C741 C 0.67616 0.85079 0.44321 0.0
C742 C 0.64355 0.84362 0.43056 0.0
C743 C 0.65621 0.84788 0.44484 0.0
C744 C 0.64344 0.79223 0.33927 0.0
C745 C 0.65886 0.84628 0.32964 0.0
C746 C 0.67204 0.82 0.2917 0.0
C747 C 0.68117 0.82129 0.27494 0.0
C748 C 0.70157 0.82564 0.27349 0.0
C749 C 0.66955 0.81881 0.26018 0.0
C750 C 0.67832 0.82097 0.24397 0.0
C751 C 0.71049 0.82811 0.25755 0.0
C752 C 0.69906 0.82595 0.24288 0.0
C753 C 0.70609 0.86984 0.34902 0.0
H754 H 0.64066 0.83908 0.40362 0.0
H755 H 0.69852 0.85169 0.42542 0.0
H756 H 0.62822 0.8414 0.43193 0.0
H757 H 0.65031 0.84869 0.45717 0.0
H758 H 0.71062 0.82716 0.28464 0.0
H759 H 0.65363 0.81493 0.26141 0.0
H760 H 0.72635 0.83174 0.25656 0.0
H761 H 0.70653 0.82826 0.2307 0.0
Gd762 Gd 0.1724 0.84131 0.32222 0.0
Gd763 Gd 0.18543 0.83491 0.36627 0.0
C764 C 0.2469 0.84006 0.38056 0.0
C765 C 0.23663 0.80581 0.38891 0.0
C766 C 0.21101 0.81437 0.37968 0.0
C767 C 0.22622 0.834 0.37687 0.0
C768 C 0.21596 0.80014 0.38609 0.0
C769 C 0.25209 0.82577 0.38619 0.0
C770 C 0.26164 0.86044 0.37908 0.0
C771 C 0.25562 0.8742 0.37408 0.0
N772 N 0.22065 0.84743 0.37152 0.0
C773 C 0.23494 0.86743 0.37048 0.0
H774 H 0.23055 0.87829 0.3667 0.0
C775 C 0.17549 0.79129 0.38229 0.0
N776 N 0.1912 0.8096 0.3773 0.0
C777 C 0.1796 0.77653 0.38842 0.0
C778 C 0.19993 0.78087 0.39009 0.0
H779 H 0.15975 0.78787 0.38102 0.0
H780 H 0.26793 0.83011 0.3889 0.0
H781 H 0.128 0.79722 0.32119 0.0
H782 H 0.27757 0.86575 0.38227 0.0
H783 H 0.26684 0.89005 0.37312 0.0
H784 H 0.24078 0.79505 0.39367 0.0
H785 H 0.19691 0.88925 0.30932 0.0
H786 H 0.07918 0.80922 0.31073 0.0
H787 H 0.09107 0.78505 0.31703 0.0
H788 H 0.11452 0.88029 0.30013 0.0
H789 H 0.1671 0.76185 0.39189 0.0
H790 H 0.20309 0.76948 0.39498 0.0
H791 H 0.08807 0.84488 0.30463 0.0
H792 H 0.18835 0.9152 0.30045 0.0
N793 N 0.13699 0.82805 0.31754 0.0
C794 C 0.09544 0.81465 0.31246 0.0
C795 C 0.1021 0.80096 0.31598 0.0
C796 C 0.1099 0.83512 0.3108 0.0
C797 C 0.13086 0.84141 0.31329 0.0
C798 C 0.12308 0.80793 0.3183 0.0
N799 N 0.16571 0.86653 0.31258 0.0
C800 C 0.14569 0.8613 0.31078 0.0
C801 C 0.17621 0.90011 0.30336 0.0
C802 C 0.15565 0.89522 0.30224 0.0
C803 C 0.181 0.8854 0.3083 0.0
C804 C 0.14007 0.87553 0.3057 0.0
H805 H 0.15197 0.90662 0.29835 0.0
O806 O 0.18959 0.85022 0.29867 0.0
O807 O 0.19584 0.8411 0.33942 0.0
O808 O 0.19517 0.86765 0.36019 0.0
O809 O 0.17336 0.86597 0.33834 0.0
O810 O 0.20664 0.8633 0.32137 0.0
O811 O 0.16368 0.81996 0.30132 0.0
O812 O 0.16722 0.82764 0.38926 0.0
O813 O 0.16208 0.83478 0.34891 0.0
O814 O 0.16441 0.80886 0.32705 0.0
O815 O 0.18291 0.80881 0.35114 0.0
O816 O 0.1511 0.81296 0.36719 0.0
O817 O 0.19441 0.85694 0.3867 0.0
C818 C 0.21208 0.85546 0.33336 0.0
C819 C 0.11918 0.86954 0.30387 0.0
C820 C 0.10411 0.84938 0.30642 0.0
C821 C 0.17768 0.83299 0.29118 0.0
C822 C 0.17092 0.83395 0.27381 0.0
C823 C 0.15685 0.84059 0.27088 0.0
C824 C 0.17872 0.82826 0.25998 0.0
C825 C 0.17265 0.82932 0.2432 0.0
C826 C 0.15077 0.84172 0.25434 0.0
C827 C 0.15862 0.83621 0.24058 0.0
C828 C 0.18568 0.87537 0.35134 0.0
C829 C 0.14576 0.82052 0.35492 0.0
C830 C 0.1796 0.84475 0.39667 0.0
C831 C 0.18536 0.84354 0.41433 0.0
C832 C 0.19855 0.83603 0.41797 0.0
C833 C 0.17737 0.8497 0.42772 0.0
C834 C 0.1825 0.84831 0.44475 0.0
C835 C 0.20357 0.83444 0.43474 0.0
C836 C 0.19558 0.84044 0.44805 0.0
C837 C 0.17219 0.80041 0.33712 0.0
H838 H 0.15062 0.84493 0.28132 0.0
H839 H 0.18936 0.82285 0.26236 0.0
H840 H 0.14001 0.847 0.25217 0.0
H841 H 0.15392 0.83765 0.22788 0.0
H842 H 0.20492 0.83134 0.40788 0.0
H843 H 0.16742 0.85578 0.42483 0.0
H844 H 0.21364 0.82847 0.43745 0.0
H845 H 0.1995 0.83871 0.46096 0.0
Gd846 Gd 0.84064 0.68215 0.70222 0.0
Gd847 Gd 0.83189 0.66561 0.65714 0.0
C848 C 0.77199 0.61097 0.63909 0.0
C849 C 0.78357 0.58806 0.62971 0.0
C850 C 0.808 0.62107 0.64116 0.0
C851 C 0.79231 0.62515 0.64388 0.0
C852 C 0.80393 0.60273 0.63358 0.0
C853 C 0.76762 0.59219 0.63244 0.0
C854 C 0.75686 0.61642 0.64045 0.0
C855 C 0.76219 0.63569 0.64621 0.0
N856 N 0.79715 0.64357 0.65006 0.0
C857 C 0.78257 0.64923 0.65076 0.0
H858 H 0.78645 0.66409 0.65509 0.0
C859 C 0.84378 0.63386 0.6395 0.0
N860 N 0.82749 0.63582 0.64456 0.0
C861 C 0.84056 0.61587 0.6321 0.0
C862 C 0.82053 0.60009 0.62939 0.0
H863 H 0.85931 0.646 0.64158 0.0
H864 H 0.75206 0.58103 0.62887 0.0
H865 H 0.88569 0.6833 0.70528 0.0
H866 H 0.7412 0.60609 0.63653 0.0
H867 H 0.75066 0.64019 0.64703 0.0
H868 H 0.7801 0.57378 0.62404 0.0
H869 H 0.81312 0.7033 0.71444 0.0
H870 H 0.93086 0.74152 0.72364 0.0
H871 H 0.92139 0.70716 0.71385 0.0
H872 H 0.89235 0.77496 0.73306 0.0
H873 H 0.85352 0.61419 0.6285 0.0
H874 H 0.81807 0.58622 0.62354 0.0
H875 H 0.92016 0.76705 0.72992 0.0
H876 H 0.81909 0.73585 0.72601 0.0
N877 N 0.87521 0.70413 0.70942 0.0
C878 C 0.91528 0.73122 0.7195 0.0
C879 C 0.90995 0.71181 0.71414 0.0
C880 C 0.90026 0.73689 0.72012 0.0
C881 C 0.88003 0.72275 0.7151 0.0
C882 C 0.88967 0.6983 0.7093 0.0
N883 N 0.84491 0.71256 0.71328 0.0
C884 C 0.86439 0.72714 0.71702 0.0
C885 C 0.83198 0.73363 0.72348 0.0
C886 C 0.85203 0.74911 0.72673 0.0
C887 C 0.82864 0.71522 0.71695 0.0
C888 C 0.86852 0.74586 0.72379 0.0
H889 H 0.85456 0.76331 0.7319 0.0
O890 O 0.82134 0.67181 0.72469 0.0
O891 O 0.81919 0.65994 0.68332 0.0
O892 O 0.82148 0.68828 0.66322 0.0
O893 O 0.84068 0.70678 0.6867 0.0
O894 O 0.80639 0.67016 0.70096 0.0
O895 O 0.84815 0.66834 0.72303 0.0
O896 O 0.85201 0.67825 0.63533 0.0
O897 O 0.85351 0.68733 0.67619 0.0
O898 O 0.85002 0.65855 0.69709 0.0
O899 O 0.83422 0.64149 0.67171 0.0
O900 O 0.86607 0.67713 0.65838 0.0
O901 O 0.82423 0.67995 0.63681 0.0
C902 C 0.80233 0.65781 0.68845 0.0
C903 C 0.88883 0.76042 0.72797 0.0
C904 C 0.90466 0.75591 0.72618 0.0
C905 C 0.83309 0.66636 0.73256 0.0
C906 C 0.83836 0.67303 0.75042 0.0
C907 C 0.85286 0.69312 0.75418 0.0
C908 C 0.82897 0.65932 0.76384 0.0
C909 C 0.83392 0.6658 0.78092 0.0
C910 C 0.8579 0.69959 0.77097 0.0
C911 C 0.84853 0.6861 0.78425 0.0
C912 C 0.82998 0.70486 0.67273 0.0
C913 C 0.87029 0.6892 0.67113 0.0
C914 C 0.83995 0.68333 0.62753 0.0
C915 C 0.83565 0.67748 0.60946 0.0
C916 C 0.8225 0.65728 0.60493 0.0
C917 C 0.84496 0.692 0.59658 0.0
C918 C 0.84149 0.68616 0.57931 0.0
C919 C 0.81893 0.65146 0.58789 0.0
C920 C 0.82842 0.66574 0.57516 0.0
C921 C 0.84359 0.64302 0.68644 0.0
H922 H 0.86037 0.7038 0.74416 0.0
H923 H 0.8177 0.64378 0.76099 0.0
H924 H 0.86917 0.71514 0.77371 0.0
H925 H 0.85297 0.69151 0.79718 0.0
H926 H 0.81498 0.64598 0.61455 0.0
H927 H 0.85511 0.70767 0.59998 0.0
H928 H 0.80877 0.63581 0.58455 0.0
H929 H 0.82531 0.66087 0.562 0.0
Gd930 Gd 0.33261 0.16562 0.69595 0.0
Gd931 Gd 0.35274 0.17003 0.65271 0.0
C932 C 0.40698 0.1597 0.6451 0.0
C933 C 0.43441 0.19326 0.63788 0.0
C934 C 0.39994 0.18724 0.64321 0.0
C935 C 0.39328 0.16719 0.64647 0.0
C936 C 0.42044 0.2004 0.63843 0.0
C937 C 0.4277 0.17295 0.64123 0.0
C938 C 0.39932 0.13903 0.64717 0.0
C939 C 0.37834 0.1263 0.64983 0.0
N940 N 0.37313 0.15477 0.65001 0.0
C941 C 0.36534 0.13443 0.65101 0.0
H942 H 0.3492 0.12442 0.65322 0.0
C943 C 0.39113 0.21248 0.63839 0.0
N944 N 0.38602 0.19359 0.64375 0.0
C945 C 0.41131 0.22612 0.63362 0.0
C946 C 0.42611 0.22015 0.63387 0.0
H947 H 0.37972 0.21715 0.63838 0.0
H948 H 0.43851 0.16753 0.64033 0.0
H949 H 0.3359 0.2123 0.69412 0.0
H950 H 0.40936 0.13269 0.6463 0.0
H951 H 0.37218 0.11024 0.6511 0.0
H952 H 0.45029 0.2032 0.63443 0.0
H953 H 0.3069 0.12043 0.71459 0.0
H954 H 0.27582 0.20325 0.70145 0.0
H955 H 0.31268 0.22575 0.69574 0.0
H956 H 0.23614 0.13396 0.71682 0.0
H957 H 0.41544 0.24124 0.62981 0.0
H958 H 0.44171 0.23073 0.63013 0.0
H959 H 0.24734 0.16893 0.70891 0.0
H960 H 0.27185 0.09734 0.72491 0.0
N961 N 0.31262 0.18162 0.69829 0.0
C962 C 0.286 0.19706 0.7008 0.0
C963 C 0.3068 0.2098 0.6976 0.0
C964 C 0.27874 0.17663 0.70376 0.0
C965 C 0.29261 0.16926 0.70264 0.0
C966 C 0.32001 0.2019 0.69664 0.0
N967 N 0.30006 0.14301 0.70684 0.0
C968 C 0.28616 0.14942 0.70695 0.0
C969 C 0.27561 0.11187 0.71978 0.0
C970 C 0.26064 0.11755 0.71875 0.0
C971 C 0.29547 0.12502 0.71403 0.0
C972 C 0.26592 0.13667 0.71265 0.0
H973 H 0.24526 0.10734 0.72325 0.0
O974 O 0.35938 0.17748 0.71277 0.0
O975 O 0.35537 0.16344 0.67975 0.0
O976 O 0.32641 0.13817 0.6567 0.0
O977 O 0.31035 0.13649 0.68261 0.0
O978 O 0.34105 0.14105 0.69747 0.0
O979 O 0.32966 0.16835 0.72318 0.0
O980 O 0.34758 0.17983 0.62821 0.0
O981 O 0.32866 0.17044 0.6687 0.0
O982 O 0.35592 0.19811 0.68948 0.0
O983 O 0.37647 0.19524 0.66891 0.0
O984 O 0.34115 0.1922 0.65029 0.0
O985 O 0.33939 0.14862 0.63198 0.0
C986 C 0.35524 0.14824 0.68606 0.0
C987 C 0.25183 0.14365 0.71275 0.0
C988 C 0.25822 0.16357 0.70828 0.0
C989 C 0.34882 0.17445 0.72653 0.0
C990 C 0.35279 0.16398 0.74042 0.0
C991 C 0.34658 0.14345 0.73899 0.0
C992 C 0.36232 0.17443 0.7555 0.0
C993 C 0.36525 0.16428 0.76916 0.0
C994 C 0.3498 0.13345 0.75236 0.0
C995 C 0.35899 0.14373 0.76738 0.0
C996 C 0.3114 0.12873 0.66782 0.0
C997 C 0.32729 0.18458 0.66188 0.0
C998 C 0.34079 0.16216 0.62119 0.0
C999 C 0.34899 0.16175 0.6044 0.0
C1000 C 0.36842 0.16357 0.60268 0.0
C1001 C 0.3368 0.15868 0.58992 0.0
C1002 C 0.34375 0.157 0.57377 0.0
C1003 C 0.37551 0.16214 0.58665 0.0
C1004 C 0.36321 0.15873 0.57225 0.0
C1005 C 0.37353 0.2053 0.6812 0.0
H1006 H 0.33909 0.13501 0.72768 0.0
H1007 H 0.36701 0.19026 0.75672 0.0
H1008 H 0.34503 0.11763 0.7511 0.0
H1009 H 0.36143 0.13564 0.77757 0.0
H1010 H 0.37799 0.16585 0.61368 0.0
H1011 H 0.32166 0.15701 0.59127 0.0
H1012 H 0.39049 0.16348 0.58539 0.0
H1013 H 0.3689 0.15751 0.55994 0.0
Gd1014 Gd 0.83725 0.17758 0.65763 0.0
Gd1015 Gd 0.85264 0.17326 0.70131 0.0
C1016 C 0.91534 0.17914 0.71133 0.0
C1017 C 0.90603 0.14488 0.7189 0.0
C1018 C 0.8795 0.15325 0.7124 0.0
C1019 C 0.89434 0.17298 0.70936 0.0
C1020 C 0.88512 0.13906 0.71761 0.0
C1021 C 0.92112 0.16489 0.71573 0.0
C1022 C 0.92986 0.19952 0.70923 0.0
C1023 C 0.92322 0.21326 0.70586 0.0
N1024 N 0.88819 0.18634 0.70521 0.0
C1025 C 0.9022 0.20641 0.70411 0.0
H1026 H 0.89732 0.21718 0.70136 0.0
C1027 C 0.84425 0.12955 0.71592 0.0
N1028 N 0.85948 0.14818 0.71106 0.0
C1029 C 0.84904 0.11492 0.72111 0.0
C1030 C 0.86956 0.11961 0.72176 0.0
H1031 H 0.82836 0.12583 0.71529 0.0
H1032 H 0.93719 0.16928 0.7171 0.0
H1033 H 0.79326 0.13106 0.6587 0.0
H1034 H 0.94615 0.20485 0.71054 0.0
H1035 H 0.9343 0.22911 0.70451 0.0
H1036 H 0.91068 0.13415 0.7227 0.0
H1037 H 0.8587 0.2254 0.64327 0.0
H1038 H 0.74263 0.13995 0.64873 0.0
H1039 H 0.75638 0.1175 0.65564 0.0
H1040 H 0.77379 0.20982 0.6353 0.0
H1041 H 0.83692 0.10003 0.72457 0.0
H1042 H 0.87324 0.10826 0.72581 0.0
H1043 H 0.74924 0.17435 0.64144 0.0
H1044 H 0.84724 0.24866 0.63322 0.0
N1045 N 0.80123 0.16165 0.65411 0.0
C1046 C 0.75908 0.14618 0.65003 0.0
C1047 C 0.76678 0.13346 0.65393 0.0
C1048 C 0.77269 0.16667 0.64742 0.0
C1049 C 0.79401 0.1741 0.64936 0.0
C1050 C 0.78797 0.14139 0.65569 0.0
N1051 N 0.82839 0.20108 0.6474 0.0
C1052 C 0.80791 0.19428 0.64599 0.0
C1053 C 0.83603 0.23343 0.63678 0.0
C1054 C 0.8151 0.22706 0.63611 0.0
C1055 C 0.84246 0.22012 0.64225 0.0
C1056 C 0.80074 0.20725 0.64052 0.0
H1057 H 0.81017 0.23745 0.63189 0.0
O1058 O 0.85327 0.16749 0.64062 0.0
O1059 O 0.86208 0.18012 0.67435 0.0
O1060 O 0.86101 0.20569 0.69601 0.0
O1061 O 0.84143 0.20459 0.67242 0.0
O1062 O 0.87079 0.20208 0.65613 0.0
O1063 O 0.83057 0.17389 0.63051 0.0
O1064 O 0.83574 0.16544 0.72498 0.0
O1065 O 0.82822 0.17231 0.68469 0.0
O1066 O 0.82778 0.14523 0.66426 0.0
O1067 O 0.85121 0.14829 0.68519 0.0
O1068 O 0.81838 0.15124 0.70357 0.0
O1069 O 0.86246 0.19509 0.72198 0.0
C1070 C 0.87751 0.19515 0.66801 0.0
C1071 C 0.77954 0.2 0.63927 0.0
C1072 C 0.76556 0.17979 0.64274 0.0
C1073 C 0.84476 0.16951 0.62694 0.0
C1074 C 0.85869 0.18107 0.613 0.0
C1075 C 0.87046 0.20214 0.6141 0.0
C1076 C 0.85981 0.17122 0.59825 0.0
C1077 C 0.87217 0.18251 0.58452 0.0
C1078 C 0.8828 0.21333 0.60063 0.0
C1079 C 0.88354 0.20364 0.58588 0.0
C1080 C 0.85272 0.2137 0.68603 0.0
C1081 C 0.81233 0.15837 0.69145 0.0
C1082 C 0.84824 0.18262 0.73227 0.0
C1083 C 0.85481 0.18148 0.74965 0.0
C1084 C 0.86805 0.17386 0.75266 0.0
C1085 C 0.84737 0.18764 0.76344 0.0
C1086 C 0.853 0.18609 0.78026 0.0
C1087 C 0.87363 0.17218 0.76923 0.0
C1088 C 0.86613 0.17814 0.78294 0.0
C1089 C 0.83839 0.13832 0.67256 0.0
H1090 H 0.87001 0.21001 0.62528 0.0
H1091 H 0.85077 0.15494 0.59731 0.0
H1092 H 0.89179 0.22958 0.60162 0.0
H1093 H 0.89335 0.21267 0.57562 0.0
H1094 H 0.87396 0.16912 0.74223 0.0
H1095 H 0.83738 0.19379 0.76099 0.0
H1096 H 0.88372 0.16611 0.77147 0.0
H1097 H 0.87045 0.17627 0.79567 0.0
H1098 H 0.32229 0.81298 0.05839 0.0
H1099 H 0.3521 0.84266 0.0469 0.0
H1100 H 0.32353 0.87831 0.0575 0.0
H1101 H 0.29315 0.84843 0.06814 0.0
H1102 H 0.34042 0.8877 0.02765 0.0
H1103 H 0.36371 0.88005 0.08284 0.0
H1104 H 0.37092 0.86234 0.10563 0.0
H1105 H 0.41115 0.8537 0.07247 0.0
H1106 H 0.40408 0.87122 0.04946 0.0
H1107 H 0.43015 0.98545 0.02549 0.0
H1108 H 0.39832 0.95385 0.03066 0.0
H1109 H 0.42893 0.9205 0.01841 0.0
H1110 H 0.46095 0.95213 0.0139 0.0
H1111 H 0.41104 0.90924 0.04795 0.0
H1112 H 0.37886 0.90714 0.99149 0.0
H1113 H 0.36848 0.92131 0.96778 0.0
H1114 H 0.346 0.94825 0.00336 0.0
H1115 H 0.35548 0.9335 0.0272 0.0
C1116 C 0.32217 0.82705 0.05808 0.0
C1117 C 0.3052 0.82821 0.06423 0.0
C1118 C 0.33942 0.84413 0.05172 0.0
C1119 C 0.34031 0.86289 0.05158 0.0
C1120 C 0.32333 0.86407 0.05754 0.0
C1121 C 0.30599 0.84696 0.06378 0.0
C1122 C 0.35869 0.8812 0.04491 0.0
C1123 C 0.35582 0.8925 0.03228 0.0
C1124 C 0.37894 0.8873 0.05051 0.0
C1125 C 0.38318 0.87675 0.06437 0.0
C1126 C 0.37398 0.87424 0.08037 0.0
C1127 C 0.37807 0.86427 0.09335 0.0
C1128 C 0.39142 0.85683 0.09048 0.0
C1129 C 0.4008 0.85944 0.07468 0.0
C1130 C 0.39677 0.86941 0.06167 0.0
C1131 C 0.42991 0.97133 0.02347 0.0
C1132 C 0.44797 0.97128 0.01903 0.0
C1133 C 0.41163 0.95323 0.02628 0.0
C1134 C 0.41101 0.93464 0.02472 0.0
C1135 C 0.4289 0.93458 0.01961 0.0
C1136 C 0.44721 0.9527 0.01691 0.0
C1137 C 0.39275 0.91571 0.03068 0.0
C1138 C 0.39564 0.90434 0.04326 0.0
C1139 C 0.37252 0.90952 0.02509 0.0
C1140 C 0.36822 0.91961 0.01104 0.0
C1141 C 0.37188 0.91625 0.9942 0.0
C1142 C 0.36591 0.92414 0.98076 0.0
C1143 C 0.35677 0.93583 0.98406 0.0
C1144 C 0.35322 0.93933 1.00081 0.0
C1145 C 0.35869 0.93105 0.01428 0.0
H1146 H 0.35236 0.94209 0.97364 0.0
H1147 H 0.39454 0.84908 0.10052 0.0
H1148 H 0.1668 0.4461 0.07164 0.0
H1149 H 0.13687 0.44806 0.06227 0.0
H1150 H 0.17638 0.50909 0.04563 0.0
H1151 H 0.20639 0.50763 0.05587 0.0
H1152 H 0.14552 0.5076 0.06142 0.0
H1153 H 0.15069 0.46761 0.01721 0.0
H1154 H 0.15362 0.43962 0.00465 0.0
H1155 H 0.09603 0.39687 0.0268 0.0
H1156 H 0.09288 0.4246 0.03969 0.0
H1157 H 0.06455 0.51431 0.02143 0.0
H1158 H 0.09585 0.51263 0.02555 0.0
H1159 H 0.05995 0.45236 0.04514 0.0
H1160 H 0.02839 0.45371 0.04009 0.0
H1161 H 0.08996 0.45458 0.02594 0.0
H1162 H 0.08664 0.49554 0.07167 0.0
H1163 H 0.08342 0.52405 0.08265 0.0
H1164 H 0.13795 0.56562 0.05592 0.0
H1165 H 0.14139 0.53733 0.04467 0.0
C1166 C 0.16921 0.46002 0.06606 0.0
C1167 C 0.18918 0.47672 0.06461 0.0
C1168 C 0.152 0.46103 0.06048 0.0
C1169 C 0.15422 0.47865 0.05298 0.0
C1170 C 0.17414 0.49527 0.0513 0.0
C1171 C 0.19138 0.49433 0.05701 0.0
C1172 C 0.13575 0.47995 0.04753 0.0
C1173 C 0.13357 0.49613 0.05345 0.0
C1174 C 0.11983 0.4649 0.03731 0.0
C1175 C 0.12164 0.44819 0.02954 0.0
C1176 C 0.13872 0.45223 0.01951 0.0
C1177 C 0.14041 0.43642 0.01231 0.0
C1178 C 0.12504 0.41648 0.01496 0.0
C1179 C 0.10793 0.41232 0.02478 0.0
C1180 C 0.10617 0.42808 0.03201 0.0
C1181 C 0.06324 0.50054 0.02623 0.0
C1182 C 0.04391 0.48396 0.03001 0.0
C1183 C 0.08124 0.49968 0.02884 0.0
C1184 C 0.08043 0.48246 0.03592 0.0
C1185 C 0.06108 0.46581 0.03963 0.0
C1186 C 0.04304 0.46661 0.03681 0.0
C1187 C 0.09969 0.48202 0.04005 0.0
C1188 C 0.102 0.46604 0.03387 0.0
C1189 C 0.11579 0.4973 0.04994 0.0
C1190 C 0.1142 0.51433 0.05726 0.0
C1191 C 0.09793 0.51077 0.06814 0.0
C1192 C 0.09606 0.52688 0.0744 0.0
C1193 C 0.11045 0.54663 0.06996 0.0
C1194 C 0.12682 0.55032 0.05935 0.0
C1195 C 0.12877 0.53426 0.05306 0.0
H1196 H 0.10894 0.55908 0.07476 0.0
H1197 H 0.12638 0.40426 0.00938 0.0
H1198 H 0.53024 0.72244 0.041 0.0
H1199 H 0.52856 0.69161 0.0302 0.0
H1200 H 0.54301 0.67918 0.08022 0.0
H1201 H 0.54407 0.70947 0.09122 0.0
H1202 H 0.56613 0.6747 0.05447 0.0
H1203 H 0.49524 0.65415 0.06663 0.0
H1204 H 0.46365 0.6563 0.06415 0.0
H1205 H 0.46216 0.64659 0.01026 0.0
H1206 H 0.49394 0.64468 0.0124 0.0
H1207 H 0.54011 0.57258 0.04758 0.0
H1208 H 0.54357 0.60491 0.0556 0.0
H1209 H 0.51839 0.60801 0.00704 0.0
H1210 H 0.51385 0.57525 0.9993 0.0
H1211 H 0.50174 0.61853 0.03031 0.0
H1212 H 0.57102 0.63751 0.01732 0.0
H1213 H 0.60301 0.63597 0.01869 0.0
H1214 H 0.60861 0.64969 0.07206 0.0
H1215 H 0.57648 0.65103 0.07108 0.0
C1216 C 0.53286 0.71305 0.04974 0.0
C1217 C 0.53739 0.71854 0.06697 0.0
C1218 C 0.532 0.6955 0.04352 0.0
C1219 C 0.53568 0.68314 0.05442 0.0
C1220 C 0.5403 0.6886 0.07157 0.0
C1221 C 0.54099 0.70601 0.07781 0.0
C1222 C 0.53448 0.66432 0.0481 0.0
C1223 C 0.55202 0.66232 0.04931 0.0
C1224 C 0.51624 0.64847 0.04092 0.0
C1225 C 0.49709 0.64951 0.03965 0.0
C1226 C 0.48828 0.65265 0.05424 0.0
C1227 C 0.47032 0.6538 0.05289 0.0
C1228 C 0.46094 0.65165 0.03705 0.0
C1229 C 0.46947 0.64829 0.02252 0.0
C1230 C 0.48744 0.64717 0.02379 0.0
C1231 C 0.5354 0.58015 0.03854 0.0
C1232 C 0.52695 0.57134 0.02267 0.0
C1233 C 0.53752 0.59876 0.04312 0.0
C1234 C 0.53158 0.60913 0.03181 0.0
C1235 C 0.52319 0.60039 0.01596 0.0
C1236 C 0.52081 0.58168 0.01147 0.0
C1237 C 0.53339 0.62873 0.03676 0.0
C1238 C 0.51595 0.63091 0.03531 0.0
C1239 C 0.55182 0.64486 0.04352 0.0
C1240 C 0.57123 0.6442 0.04415 0.0
C1241 C 0.57899 0.64006 0.02938 0.0
C1242 C 0.59716 0.63924 0.03008 0.0
C1243 C 0.60781 0.64268 0.04546 0.0
C1244 C 0.60033 0.64701 0.06016 0.0
C1245 C 0.58215 0.64782 0.05953 0.0
H1246 H 0.62187 0.64204 0.04598 0.0
H1247 H 0.44703 0.65253 0.03604 0.0
H1248 H 0.80673 0.30355 0.97076 0.0
H1249 H 0.83547 0.33492 0.98146 0.0
H1250 H 0.87749 0.31443 0.96748 0.0
H1251 H 0.84865 0.28242 0.95769 0.0
H1252 H 0.88926 0.33333 0.99649 0.0
H1253 H 0.87042 0.34854 0.9428 0.0
H1254 H 0.84728 0.34983 0.92114 0.0
H1255 H 0.83395 0.38631 0.95442 0.0
H1256 H 0.85681 0.385 0.97638 0.0
H1257 H 0.97955 0.43157 0.9933 0.0
H1258 H 0.95046 0.39845 0.98582 0.0
H1259 H 0.90891 0.41437 0.00967 0.0
H1260 H 0.93787 0.44739 0.01739 0.0
H1261 H 0.89723 0.39803 0.97598 0.0
H1262 H 0.91804 0.38309 0.02935 0.0
H1263 H 0.9428 0.38237 0.04961 0.0
H1264 H 0.95435 0.34588 0.01485 0.0
H1265 H 0.92989 0.34666 0.99425 0.0
C1266 C 0.82201 0.30548 0.97022 0.0
C1267 C 0.82526 0.29035 0.96325 0.0
C1268 C 0.83853 0.32362 0.97615 0.0
C1269 C 0.85878 0.3273 0.97498 0.0
C1270 C 0.86206 0.31206 0.96843 0.0
C1271 C 0.84552 0.29381 0.96266 0.0
C1272 C 0.87652 0.34711 0.98035 0.0
C1273 C 0.8911 0.34744 0.99182 0.0
C1274 C 0.8789 0.36564 0.97448 0.0
C1275 C 0.86517 0.3665 0.9613 0.0
C1276 C 0.86244 0.35671 0.94555 0.0
C1277 C 0.84939 0.35746 0.93321 0.0
C1278 C 0.83911 0.3681 0.93642 0.0
C1279 C 0.8419 0.37805 0.95196 0.0
C1280 C 0.85491 0.37732 0.96435 0.0
C1281 C 0.96425 0.42798 0.99706 0.0
C1282 C 0.96107 0.44213 0.00599 0.0
C1283 C 0.94764 0.40903 0.99281 0.0
C1284 C 0.92753 0.40394 0.99721 0.0
C1285 C 0.92431 0.41799 0.00615 0.0
C1286 C 0.94091 0.43683 0.01063 0.0
C1287 C 0.9098 0.38416 0.99209 0.0
C1288 C 0.89529 0.38387 0.98064 0.0
C1289 C 0.90768 0.36571 0.99777 0.0
C1290 C 0.92228 0.36511 0.01019 0.0
C1291 C 0.926 0.37506 0.02596 0.0
C1292 C 0.93995 0.37462 0.03752 0.0
C1293 C 0.95018 0.36413 0.0335 0.0
C1294 C 0.94643 0.35402 0.01793 0.0
C1295 C 0.93251 0.35445 0.00632 0.0
H1296 H 0.96098 0.3638 0.04247 0.0
H1297 H 0.82901 0.36867 0.92685 0.0
H1298 H 0.73209 0.57101 0.96343 0.0
H1299 H 0.7004 0.56876 0.97379 0.0
H1300 H 0.67474 0.50505 0.98205 0.0
H1301 H 0.70618 0.50707 0.97115 0.0
H1302 H 0.64708 0.51174 0.96699 0.0
H1303 H 0.69099 0.5395 0.01554 0.0
H1304 H 0.72232 0.56325 0.03134 0.0
H1305 H 0.71251 0.61215 0.01804 0.0
H1306 H 0.68126 0.58872 1.00194 0.0
H1307 H 0.55858 0.50081 0.00833 0.0
H1308 H 0.59126 0.5017 0.0041 0.0
H1309 H 0.62072 0.56534 0.99371 0.0
H1310 H 0.5881 0.56459 0.9985 0.0
H1311 H 0.64621 0.55718 0.01163 0.0
H1312 H 0.60468 0.53025 0.96091 0.0
H1313 H 0.57342 0.50686 0.94494 0.0
H1314 H 0.57863 0.45664 0.96263 0.0
H1315 H 0.61004 0.47979 0.97875 0.0
C1316 C 0.71972 0.55648 0.96742 0.0
C1317 C 0.72183 0.53923 0.96643 0.0
C1318 C 0.70161 0.55525 0.97353 0.0
C1319 C 0.68511 0.53676 0.97893 0.0
C1320 C 0.6872 0.51953 0.97805 0.0
C1321 C 0.70533 0.52075 0.97195 0.0
C1322 C 0.6655 0.53533 0.98492 0.0
C1323 C 0.64691 0.52146 0.97697 0.0
C1324 C 0.66512 0.54824 0.99771 0.0
C1325 C 0.68388 0.56237 0.00741 0.0
C1326 C 0.6956 0.55534 0.01587 0.0
C1327 C 0.71333 0.56874 0.0249 0.0
C1328 C 0.71943 0.5892 0.02566 0.0
C1329 C 0.70778 0.5963 0.01742 0.0
C1330 C 0.69004 0.58296 0.00836 0.0
C1331 C 0.57212 0.5151 0.0056 0.0
C1332 C 0.57081 0.53272 0.00403 0.0
C1333 C 0.5908 0.51555 0.00297 0.0
C1334 C 0.60851 0.53354 0.99831 0.0
C1335 C 0.60735 0.55127 0.99728 0.0
C1336 C 0.58869 0.55083 1.00001 0.0
C1337 C 0.62791 0.53373 0.9936 0.0
C1338 C 0.64642 0.54737 1.00176 0.0
C1339 C 0.62826 0.52064 0.98099 0.0
C1340 C 0.60959 0.50672 0.97114 0.0
C1341 C 0.59911 0.51421 0.96145 0.0
C1342 C 0.58137 0.501 0.95236 0.0
C1343 C 0.57395 0.48026 0.95282 0.0
C1344 C 0.58437 0.4727 0.9623 0.0
C1345 C 0.60218 0.48586 0.97138 0.0
H1346 H 0.56018 0.47007 0.9458 0.0
H1347 H 0.73316 0.59955 0.03266 0.0
H1348 H 0.45629 0.17706 0.95533 0.0
H1349 H 0.45641 0.14736 0.96658 0.0
H1350 H 0.52271 0.17983 0.96654 0.0
H1351 H 0.52265 0.20962 0.95554 0.0
H1352 H 0.46929 0.12437 0.95387 0.0
H1353 H 0.5414 0.16342 0.99785 0.0
H1354 H 0.55932 0.19376 0.01598 0.0
H1355 H 0.5032 0.19511 0.02176 0.0
H1356 H 0.48489 0.16464 0.00387 0.0
H1357 H 0.50383 0.05598 0.97235 0.0
H1358 H 0.50142 0.08545 0.96399 0.0
H1359 H 0.48494 0.09142 0.01528 0.0
H1360 H 0.48773 0.06223 0.02368 0.0
H1361 H 0.51073 0.12681 0.00405 0.0
H1362 H 0.44886 0.07136 0.98242 0.0
H1363 H 0.42778 0.0397 0.96653 0.0
H1364 H 0.45703 0.06898 0.92005 0.0
H1365 H 0.47852 0.10075 0.93571 0.0
C1366 C 0.47089 0.17786 0.95778 0.0
C1367 C 0.48947 0.19569 0.95461 0.0
C1368 C 0.47094 0.16089 0.9642 0.0
C1369 C 0.48956 0.16137 0.96755 0.0
C1370 C 0.50814 0.17918 0.96439 0.0
C1371 C 0.5081 0.19621 0.95811 0.0
C1372 C 0.48956 0.14309 0.97391 0.0
C1373 C 0.47832 0.12491 0.96487 0.0
C1374 C 0.50098 0.14362 0.98847 0.0
C1375 C 0.51183 0.16186 0.99938 0.0
C1376 C 0.53287 0.17015 0.00305 0.0
C1377 C 0.5431 0.18738 0.01327 0.0
C1378 C 0.53242 0.1964 0.01997 0.0
C1379 C 0.51147 0.18816 0.01651 0.0
C1380 C 0.50117 0.17093 0.00631 0.0
C1381 C 0.49963 0.06355 0.98183 0.0
C1382 C 0.49608 0.05685 0.99874 0.0
C1383 C 0.49821 0.08037 0.97703 0.0
C1384 C 0.49276 0.09057 0.98895 0.0
C1385 C 0.48927 0.0839 0.00585 0.0
C1386 C 0.49094 0.06723 0.01069 0.0
C1387 C 0.49078 0.1082 0.98383 0.0
C1388 C 0.50166 0.12626 0.99308 0.0
C1389 C 0.47853 0.1074 0.96977 0.0
C1390 C 0.46542 0.0884 0.96026 0.0
C1391 C 0.45088 0.07102 0.96882 0.0
C1392 C 0.43885 0.05306 0.95986 0.0
C1393 C 0.4411 0.05232 0.9423 0.0
C1394 C 0.45533 0.06957 0.93366 0.0
C1395 C 0.46742 0.08757 0.94257 0.0
H1396 H 0.43178 0.0384 0.93538 0.0
H1397 H 0.54037 0.20974 0.02788 0.0
H1398 H 0.69623 0.18094 0.94957 0.0
H1399 H 0.66707 0.14685 0.95444 0.0
H1400 H 0.67552 0.15676 0.00858 0.0
H1401 H 0.70433 0.19079 0.00372 0.0
H1402 H 0.66596 0.11759 0.99869 0.0
H1403 H 0.64174 0.16485 0.99006 0.0
H1404 H 0.63809 0.19052 0.97403 0.0
H1405 H 0.60961 0.14876 0.93267 0.0
H1406 H 0.6134 0.12293 0.94837 0.0
H1407 H 0.54488 0.059 0.0093 0.0
H1408 H 0.57814 0.08972 0.00621 0.0
H1409 H 0.60457 0.05423 0.9886 0.0
H1410 H 0.57174 0.02349 0.99294 0.0
H1411 H 0.59783 0.10592 0.97952 0.0
H1412 H 0.65197 0.07546 0.99004 0.0
H1413 H 0.65657 0.05166 0.0081 0.0
H1414 H 0.62586 0.06261 0.04913 0.0
H1415 H 0.62098 0.08639 0.03112 0.0
C1416 C 0.69212 0.17557 0.96247 0.0
C1417 C 0.7025 0.18834 0.97628 0.0
C1418 C 0.67543 0.1562 0.96525 0.0
C1419 C 0.66905 0.14932 0.98188 0.0
C1420 C 0.6802 0.16172 0.99566 0.0
C1421 C 0.69663 0.18112 0.99288 0.0
C1422 C 0.64989 0.12993 0.98509 0.0
C1423 C 0.65106 0.11496 0.9944 0.0
C1424 C 0.63042 0.12657 0.9797 0.0
C1425 C 0.62808 0.14205 0.97029 0.0
C1426 C 0.63487 0.1612 0.97748 0.0
C1427 C 0.63275 0.17577 0.96847 0.0
C1428 C 0.62368 0.17129 0.95232 0.0
C1429 C 0.61667 0.15222 0.94517 0.0
C1430 C 0.6188 0.13761 0.95412 0.0
C1431 C 0.55798 0.05772 0.0054 0.0
C1432 C 0.55581 0.03878 1.0018 0.0
C1433 C 0.57699 0.07533 0.00341 0.0
C1434 C 0.59415 0.07447 0.99733 0.0
C1435 C 0.59194 0.05548 0.99381 0.0
C1436 C 0.57306 0.03786 0.99615 0.0
C1437 C 0.61371 0.09344 0.99339 0.0
C1438 C 0.61267 0.10837 0.98378 0.0
C1439 C 0.63329 0.09684 0.99862 0.0
C1440 C 0.63577 0.08232 0.00925 0.0
C1441 C 0.64611 0.07267 0.00289 0.0
C1442 C 0.64874 0.05918 0.01308 0.0
C1443 C 0.64134 0.05549 0.02971 0.0
C1444 C 0.63135 0.0653 0.03618 0.0
C1445 C 0.62852 0.07865 0.02598 0.0
H1446 H 0.64346 0.04512 0.03761 0.0
H1447 H 0.62204 0.18259 0.94537 0.0
H1448 H 0.8128 0.49056 0.9966 0.0
H1449 H 0.84687 0.49528 1.00093 0.0
H1450 H 0.87017 0.5392 0.96076 0.0
H1451 H 0.83533 0.53331 0.95543 0.0
H1452 H 0.88659 0.51707 0.95738 0.0
H1453 H 0.88039 0.5512 0.00539 0.0
H1454 H 0.86506 0.55688 0.03095 0.0
H1455 H 0.86629 0.50775 0.05597 0.0
H1456 H 0.88133 0.50154 0.03047 0.0
H1457 H 0.99063 0.54709 0.98605 0.0
H1458 H 0.95888 0.54823 0.98102 0.0
H1459 H 0.9235 0.48912 0.00277 0.0
H1460 H 0.95493 0.48751 0.00699 0.0
H1461 H 0.91573 0.5228 0.01517 0.0
H1462 H 0.92023 0.48835 0.96503 0.0
H1463 H 0.93772 0.48521 0.93974 0.0
H1464 H 0.94237 0.53918 0.91917 0.0
H1465 H 0.92524 0.54286 0.94452 0.0
C1466 C 0.82505 0.50116 0.98853 0.0
C1467 C 0.82105 0.51131 0.97545 0.0
C1468 C 0.84477 0.50412 0.99125 0.0
C1469 C 0.86143 0.51786 0.98139 0.0
C1470 C 0.85769 0.52852 0.96861 0.0
C1471 C 0.83775 0.52531 0.96568 0.0
C1472 C 0.88235 0.52023 0.98409 0.0
C1473 C 0.89307 0.51875 0.97002 0.0
C1474 C 0.89101 0.5222 1.00058 0.0
C1475 C 0.88182 0.52579 0.01593 0.0
C1476 C 0.87723 0.54149 0.01629 0.0
C1477 C 0.86861 0.54482 0.03078 0.0
C1478 C 0.86465 0.53265 0.04506 0.0
C1479 C 0.86934 0.51715 0.04489 0.0
C1480 C 0.87792 0.51372 0.03042 0.0
C1481 C 0.97607 0.53439 0.98982 0.0
C1482 C 0.9754 0.51748 0.99745 0.0
C1483 C 0.95797 0.53504 0.98691 0.0
C1484 C 0.93883 0.51882 0.99161 0.0
C1485 C 0.9381 0.50189 0.99916 0.0
C1486 C 0.95614 0.50106 1.00173 0.0
C1487 C 0.91953 0.51938 0.98858 0.0
C1488 C 0.90922 0.5214 0.00258 0.0
C1489 C 0.9115 0.51829 0.97207 0.0
C1490 C 0.9217 0.51603 0.95679 0.0
C1491 C 0.92519 0.49968 0.95521 0.0
C1492 C 0.935 0.49777 0.94085 0.0
C1493 C 0.94121 0.51202 0.92788 0.0
C1494 C 0.93759 0.52818 0.92924 0.0
C1495 C 0.92783 0.53018 0.94361 0.0
H1496 H 0.94878 0.51051 0.91676 0.0
H1497 H 0.85799 0.53527 0.05627 0.0
H1498 H 0.49115 0.30029 0.97364 0.0
H1499 H 0.48203 0.32635 0.97905 0.0
H1500 H 0.53774 0.3703 0.95454 0.0
H1501 H 0.54669 0.34427 0.94878 0.0
H1502 H 0.50249 0.35883 0.9985 0.0
H1503 H 0.53044 0.40739 0.93689 0.0
H1504 H 0.53141 0.40258 0.90598 0.0
H1505 H 0.48177 0.34167 0.91015 0.0
H1506 H 0.4802 0.34621 0.94102 0.0
H1507 H 0.53151 0.45929 0.01442 0.0
H1508 H 0.52919 0.42794 0.00513 0.0
H1509 H 0.47765 0.41563 0.97275 0.0
H1510 H 0.48019 0.4475 0.98176 0.0
H1511 H 0.5033 0.4074 0.9565 0.0
H1512 H 0.47065 0.38984 0.01059 0.0
H1513 H 0.46725 0.39423 0.04125 0.0
H1514 H 0.52164 0.39085 0.05152 0.0
H1515 H 0.52549 0.38665 0.0209 0.0
C1516 C 0.50124 0.31542 0.96911 0.0
C1517 C 0.51969 0.32024 0.96085 0.0
C1518 C 0.49607 0.33032 0.97229 0.0
C1519 C 0.50913 0.35026 0.96712 0.0
C1520 C 0.52728 0.35498 0.95846 0.0
C1521 C 0.53249 0.34013 0.95533 0.0
C1522 C 0.50474 0.36648 0.97196 0.0
C1523 C 0.50249 0.36933 0.98928 0.0
C1524 C 0.50442 0.38003 0.95992 0.0
C1525 C 0.50535 0.3771 0.94134 0.0
C1526 C 0.51968 0.39298 0.93122 0.0
C1527 C 0.52034 0.39031 0.91369 0.0
C1528 C 0.50671 0.37181 0.90611 0.0
C1529 C 0.49237 0.35596 0.91604 0.0
C1530 C 0.49162 0.35857 0.93357 0.0
C1531 C 0.51949 0.44986 0.00547 0.0
C1532 C 0.50583 0.45577 0.999 0.0
C1533 C 0.51818 0.43188 1.00017 0.0
C1534 C 0.50298 0.4192 0.98849 0.0
C1535 C 0.48942 0.42513 0.98185 0.0
C1536 C 0.49085 0.44329 0.98705 0.0
C1537 C 0.50173 0.40005 0.98303 0.0
C1538 C 0.503 0.39669 0.96565 0.0
C1539 C 0.50086 0.38585 0.99497 0.0
C1540 C 0.49837 0.38798 0.01344 0.0
C1541 C 0.48191 0.39008 0.01938 0.0
C1542 C 0.47989 0.39251 0.03675 0.0
C1543 C 0.4942 0.39278 0.04832 0.0
C1544 C 0.51054 0.39059 0.04254 0.0
C1545 C 0.51262 0.38813 0.02519 0.0
H1546 H 0.49265 0.39473 0.06176 0.0
H1547 H 0.50723 0.36978 0.89254 0.0
H1548 H 0.19708 0.72013 0.04797 0.0
H1549 H 0.16225 0.6917 0.04297 0.0
H1550 H 0.18286 0.65013 0.05629 0.0
H1551 H 0.21724 0.67821 0.06212 0.0
H1552 H 0.16125 0.64978 0.01955 0.0
H1553 H 0.15726 0.64743 0.08242 0.0
H1554 H 0.15865 0.66357 0.10995 0.0
H1555 H 0.111 0.67507 0.09317 0.0
H1556 H 0.10957 0.65926 0.06542 0.0
H1557 H 0.08197 0.55053 0.01417 0.0
H1558 H 0.11185 0.58253 0.02173 0.0
H1559 H 0.07233 0.60521 0.03808 0.0
H1560 H 0.04211 0.57232 0.03165 0.0
H1561 H 0.10182 0.61899 0.05866 0.0
H1562 H 0.10149 0.62022 0.99844 0.0
H1563 H 0.09987 0.60868 0.96889 0.0
H1564 H 0.15379 0.60394 0.9775 0.0
H1565 H 0.15575 0.61547 0.00711 0.0
C1566 C 0.1941 0.70498 0.05026 0.0
C1567 C 0.21013 0.70152 0.05522 0.0
C1568 C 0.17421 0.68876 0.04731 0.0
C1569 C 0.17008 0.66887 0.04922 0.0
C1570 C 0.18579 0.6654 0.05471 0.0
C1571 C 0.2055 0.68151 0.05789 0.0
C1572 C 0.14996 0.65153 0.04417 0.0
C1573 C 0.14824 0.64292 0.02809 0.0
C1574 C 0.1328 0.64322 0.05505 0.0
C1575 C 0.13351 0.65243 0.07179 0.0
C1576 C 0.14724 0.6536 0.08454 0.0
C1577 C 0.148 0.66263 0.10019 0.0
C1578 C 0.13498 0.67042 0.10328 0.0
C1579 C 0.12111 0.66908 0.09075 0.0
C1580 C 0.12031 0.66008 0.07506 0.0
C1581 C 0.07957 0.56231 0.01933 0.0
C1582 C 0.05963 0.55891 0.0222 0.0
C1583 C 0.09675 0.58078 0.02353 0.0
C1584 C 0.09453 0.5967 0.03004 0.0
C1585 C 0.07457 0.5933 0.03299 0.0
C1586 C 0.05729 0.57452 0.02925 0.0
C1587 C 0.11312 0.61657 0.03406 0.0
C1588 C 0.11462 0.62579 0.04993 0.0
C1589 C 0.12996 0.62586 0.02274 0.0
C1590 C 0.1287 0.61862 0.00502 0.0
C1591 C 0.11293 0.61661 0.99406 0.0
C1592 C 0.11199 0.61013 0.97729 0.0
C1593 C 0.12672 0.60559 0.97132 0.0
C1594 C 0.14242 0.60751 0.98212 0.0
C1595 C 0.1435 0.61409 0.99889 0.0
H1596 H 0.12596 0.60059 0.95832 0.0
H1597 H 0.13561 0.67742 0.11541 0.0
H1598 H 0.29998 0.47344 0.0488 0.0
H1599 H 0.32982 0.46909 0.04331 0.0
H1600 H 0.37061 0.53096 0.05759 0.0
H1601 H 0.3412 0.53519 0.06376 0.0
H1602 H 0.37548 0.51816 0.02297 0.0
H1603 H 0.37212 0.50132 0.08228 0.0
H1604 H 0.35534 0.48204 0.10809 0.0
H1605 H 0.34468 0.42747 0.08355 0.0
H1606 H 0.36119 0.44642 0.0575 0.0
H1607 H 0.47494 0.52824 0.01598 0.0
H1608 H 0.44338 0.5289 0.02195 0.0
H1609 H 0.41095 0.46436 0.02853 0.0
H1610 H 0.4429 0.46402 0.02364 0.0
H1611 H 0.4005 0.47749 0.05268 0.0
H1612 H 0.39429 0.49095 0.99232 0.0
H1613 H 0.40382 0.50778 0.96449 0.0
H1614 H 0.42967 0.56557 0.9891 0.0
H1615 H 0.4192 0.54892 0.01703 0.0
C1616 C 0.31528 0.48593 0.05125 0.0
C1617 C 0.31811 0.50477 0.05643 0.0
C1618 C 0.33234 0.48346 0.04801 0.0
C1619 C 0.35247 0.49979 0.04985 0.0
C1620 C 0.35526 0.51821 0.05593 0.0
C1621 C 0.33836 0.52059 0.05937 0.0
C1622 C 0.37065 0.49848 0.044 0.0
C1623 C 0.38108 0.5094 0.02956 0.0
C1624 C 0.37765 0.48666 0.05227 0.0
C1625 C 0.36764 0.47524 0.06787 0.0
C1626 C 0.36599 0.48518 0.08232 0.0
C1627 C 0.35659 0.47432 0.09701 0.0
C1628 C 0.34888 0.45353 0.09744 0.0
C1629 C 0.35062 0.44357 0.08319 0.0
C1630 C 0.36001 0.45436 0.06846 0.0
C1631 C 0.46096 0.51415 0.01829 0.0
C1632 C 0.4614 0.49605 0.01929 0.0
C1633 C 0.44274 0.51448 0.02162 0.0
C1634 C 0.42439 0.49664 0.02564 0.0
C1635 C 0.42473 0.47842 0.02566 0.0
C1636 C 0.443 0.47818 0.02272 0.0
C1637 C 0.40547 0.49707 0.03132 0.0
C1638 C 0.39491 0.48612 0.04588 0.0
C1639 C 0.39808 0.50863 0.02302 0.0
C1640 C 0.40636 0.51876 0.00668 0.0
C1641 C 0.40225 0.50725 0.99177 0.0
C1642 C 0.40757 0.51674 0.97599 0.0
C1643 C 0.41754 0.53776 0.97503 0.0
C1644 C 0.42202 0.54931 0.98986 0.0
C1645 C 0.41621 0.53985 0.00565 0.0
H1646 H 0.42172 0.54508 0.96279 0.0
H1647 H 0.3416 0.44515 0.10883 0.0
H1648 H 0.49137 0.81412 0.08576 0.0
H1649 H 0.49651 0.84757 0.07912 0.0
H1650 H 0.51748 0.84362 0.02898 0.0
H1651 H 0.51332 0.81061 0.03607 0.0
H1652 H 0.53918 0.88022 0.03971 0.0
H1653 H 0.46627 0.83315 0.03788 0.0
H1654 H 0.43291 0.80696 0.04902 0.0
H1655 H 0.43747 0.84648 0.08974 0.0
H1656 H 0.47092 0.87286 0.07889 0.0
H1657 H 0.51624 0.94961 0.99787 0.0
H1658 H 0.51694 0.91951 0.00723 0.0
H1659 H 0.50692 0.93134 0.05889 0.0
H1660 H 0.50597 0.96128 0.04956 0.0
H1661 H 0.48049 0.89182 0.04835 0.0
H1662 H 0.55253 0.93966 0.04874 0.0
H1663 H 0.58519 0.966 0.03672 0.0
H1664 H 0.58159 0.92493 0.99779 0.0
H1665 H 0.54871 0.89841 0.00943 0.0
C1666 C 0.49734 0.82062 0.07344 0.0
C1667 C 0.50196 0.80997 0.06139 0.0
C1668 C 0.50011 0.83961 0.06957 0.0
C1669 C 0.50691 0.84797 0.05338 0.0
C1670 C 0.51214 0.83751 0.04153 0.0
C1671 C 0.50977 0.81868 0.04554 0.0
C1672 C 0.50803 0.86729 0.0486 0.0
C1673 C 0.52624 0.88263 0.04143 0.0
C1674 C 0.49133 0.87072 0.05115 0.0
C1675 C 0.47119 0.85489 0.05766 0.0
C1676 C 0.46021 0.8362 0.04926 0.0
C1677 C 0.44127 0.82134 0.05551 0.0
C1678 C 0.43309 0.82505 0.0701 0.0
C1679 C 0.44383 0.84363 0.07845 0.0
C1680 C 0.46276 0.85855 0.07224 0.0
C1681 C 0.5141 0.94576 0.01117 0.0
C1682 C 0.51091 0.95773 0.02293 0.0
C1683 C 0.51472 0.92868 0.01655 0.0
C1684 C 0.51204 0.92324 0.03377 0.0
C1685 C 0.50906 0.9353 0.04556 0.0
C1686 C 0.50868 0.95248 0.04021 0.0
C1687 C 0.51151 0.90454 0.03939 0.0
C1688 C 0.49341 0.88936 0.04671 0.0
C1689 C 0.52822 0.90123 0.03685 0.0
C1690 C 0.54804 0.91711 0.02986 0.0
C1691 C 0.5586 0.93629 0.03753 0.0
C1692 C 0.57718 0.95125 0.0308 0.0
C1693 C 0.58544 0.94716 0.01647 0.0
C1694 C 0.57516 0.92808 0.00887 0.0
C1695 C 0.55656 0.91308 0.01554 0.0
H1696 H 0.59982 0.95875 0.01128 0.0
H1697 H 0.41842 0.81353 0.07491 0.0
H1698 H 0.98473 0.14314 0.38917 0.0
H1699 H 0.01452 0.17272 0.37763 0.0
H1700 H 0.98814 0.20945 0.39153 0.0
H1701 H 0.95759 0.17967 0.40201 0.0
H1702 H 1.00558 0.22151 0.36261 0.0
H1703 H 0.02728 0.20765 0.41555 0.0
H1704 H 0.03287 0.18736 0.43693 0.0
H1705 H 0.07179 0.17865 0.40227 0.0
H1706 H 0.06621 0.19867 0.38058 0.0
H1707 H 0.09814 0.31681 0.36446 0.0
H1708 H 0.06559 0.28566 0.36856 0.0
H1709 H 0.09381 0.25115 0.35277 0.0
H1710 H 0.12664 0.28231 0.34952 0.0
H1711 H 0.07523 0.23737 0.38134 0.0
H1712 H 0.05132 0.25123 0.328 0.0
H1713 H 0.04469 0.27199 0.3077 0.0
H1714 H 0.01025 0.2826 0.34564 0.0
H1715 H 0.01651 0.26177 0.36603 0.0
C1716 C 0.98499 0.15739 0.38949 0.0
C1717 C 0.96862 0.15888 0.39664 0.0
C1718 C 1.00227 0.17443 0.3831 0.0
C1719 C 1.0039 0.19351 0.38401 0.0
C1720 C 0.9874 0.19498 0.39076 0.0
C1721 C 0.96998 0.1779 0.39694 0.0
C1722 C 0.02281 0.21192 0.37811 0.0
C1723 C 0.02079 0.22504 0.36685 0.0
C1724 C 0.04278 0.21654 0.38338 0.0
C1725 C 0.04614 0.20447 0.39638 0.0
C1726 C 0.0369 0.20127 0.41244 0.0
C1727 C 0.04009 0.18984 0.42462 0.0
C1728 C 0.05263 0.18167 0.42094 0.0
C1729 C 0.06205 0.18495 0.40508 0.0
C1730 C 0.05889 0.19635 0.39285 0.0
C1731 C 0.09724 0.30257 0.36146 0.0
C1732 C 0.11488 0.30206 0.35638 0.0
C1733 C 0.07854 0.28472 0.36369 0.0
C1734 C 0.07701 0.2659 0.36079 0.0
C1735 C 0.09448 0.26542 0.35505 0.0
C1736 C 0.11326 0.28329 0.353 0.0
C1737 C 0.05804 0.24687 0.36567 0.0
C1738 C 0.06004 0.23371 0.3769 0.0
C1739 C 0.03806 0.2424 0.36062 0.0
C1740 C 0.03462 0.25521 0.34853 0.0
C1741 C 0.04252 0.25819 0.332 0.0
C1742 C 0.03874 0.26986 0.32049 0.0
C1743 C 0.02721 0.27873 0.32543 0.0
C1744 C 0.01925 0.27578 0.34185 0.0
C1745 C 0.02281 0.26397 0.35335 0.0
H1746 H 0.02436 0.2878 0.31651 0.0
H1747 H 0.05508 0.17284 0.43039 0.0
H1748 H 0.83307 0.77991 0.40373 0.0
H1749 H 0.80318 0.78214 0.39454 0.0
H1750 H 0.843 0.84253 0.37664 0.0
H1751 H 0.87301 0.84069 0.38642 0.0
H1752 H 0.8118 0.84125 0.3931 0.0
H1753 H 0.8179 0.802 0.34884 0.0
H1754 H 0.82131 0.77436 0.33615 0.0
H1755 H 0.76355 0.73097 0.35765 0.0
H1756 H 0.75992 0.75835 0.37068 0.0
H1757 H 0.72958 0.84647 0.3526 0.0
H1758 H 0.7615 0.84598 0.3574 0.0
H1759 H 0.72676 0.78515 0.37608 0.0
H1760 H 0.69472 0.78532 0.37044 0.0
H1761 H 0.75688 0.78833 0.35709 0.0
H1762 H 0.75255 0.8286 0.40296 0.0
H1763 H 0.74908 0.85685 0.41422 0.0
H1764 H 0.80394 0.89901 0.38818 0.0
H1765 H 0.80762 0.87099 0.37663 0.0
C1766 C 0.83553 0.79373 0.39792 0.0
C1767 C 0.85557 0.81011 0.39585 0.0
C1768 C 0.81836 0.79491 0.39248 0.0
C1769 C 0.82071 0.81243 0.38467 0.0
C1770 C 0.84069 0.82881 0.38256 0.0
C1771 C 0.85789 0.82765 0.38802 0.0
C1772 C 0.80231 0.81374 0.37909 0.0
C1773 C 0.79995 0.8298 0.38503 0.0
C1774 C 0.78662 0.79876 0.36869 0.0
C1775 C 0.78874 0.78224 0.36087 0.0
C1776 C 0.806 0.78656 0.35098 0.0
C1777 C 0.80796 0.77094 0.34371 0.0
C1778 C 0.79268 0.75092 0.34613 0.0
C1779 C 0.77538 0.74648 0.3558 0.0
C1780 C 0.77336 0.76205 0.36312 0.0
C1781 C 0.72872 0.83287 0.35742 0.0
C1782 C 0.70959 0.81573 0.36072 0.0
C1783 C 0.74704 0.83268 0.3604 0.0
C1784 C 0.7467 0.8156 0.36733 0.0
C1785 C 0.72755 0.79851 0.37068 0.0
C1786 C 0.70923 0.79862 0.36752 0.0
C1787 C 0.76616 0.81555 0.37142 0.0
C1788 C 0.76876 0.79977 0.36515 0.0
C1789 C 0.78211 0.83084 0.38144 0.0
C1790 C 0.78027 0.8477 0.38884 0.0
C1791 C 0.76385 0.8439 0.39962 0.0
C1792 C 0.76184 0.85987 0.40604 0.0
C1793 C 0.77626 0.87971 0.40189 0.0
C1794 C 0.79278 0.88364 0.39138 0.0
C1795 C 0.79486 0.86772 0.38492 0.0
H1796 H 0.77464 0.89205 0.40683 0.0
H1797 H 0.79422 0.73884 0.34048 0.0
H1798 H 0.16928 0.02954 0.39089 0.0
H1799 H 0.16755 0.99856 0.38099 0.0
H1800 H 0.23225 0.02387 0.3915 0.0
H1801 H 0.23442 0.05545 0.40041 0.0
H1802 H 0.22322 0.00279 0.36361 0.0
H1803 H 0.19413 0.99061 0.41911 0.0
H1804 H 0.1711 0.98936 0.44189 0.0
H1805 H 0.11859 0.94737 0.41255 0.0
H1806 H 0.14129 0.94861 0.38946 0.0
H1807 H 0.21758 0.90568 0.3693 0.0
H1808 H 0.22154 0.93844 0.37745 0.0
H1809 H 0.16359 0.92211 0.35334 0.0
H1810 H 0.15974 0.88973 0.34479 0.0
H1811 H 0.17013 0.93837 0.38868 0.0
H1812 H 0.20073 0.95172 0.33293 0.0
H1813 H 0.22478 0.95213 0.31152 0.0
H1814 H 0.27593 0.99137 0.34345 0.0
H1815 H 0.25213 0.99089 0.36522 0.0
C1816 C 0.18327 0.02875 0.39077 0.0
C1817 C 0.20197 0.04504 0.3966 0.0
C1818 C 0.18219 0.01085 0.38532 0.0
C1819 C 0.19966 0.00865 0.38588 0.0
C1820 C 0.2185 0.02511 0.39109 0.0
C1821 C 0.21966 0.04311 0.39636 0.0
C1822 C 0.19817 0.98906 0.38136 0.0
C1823 C 0.21176 0.98877 0.36928 0.0
C1824 C 0.18313 0.97063 0.38862 0.0
C1825 C 0.16942 0.96989 0.40247 0.0
C1826 C 0.17766 0.98125 0.41744 0.0
C1827 C 0.16467 0.98052 0.43042 0.0
C1828 C 0.14339 0.96834 0.42864 0.0
C1829 C 0.13507 0.95683 0.41389 0.0
C1830 C 0.148 0.95754 0.40086 0.0
C1831 C 0.20573 0.90912 0.36572 0.0
C1832 C 0.1884 0.89517 0.35636 0.0
C1833 C 0.20802 0.9278 0.37035 0.0
C1834 C 0.19285 0.93262 0.36597 0.0
C1835 C 0.17544 0.91863 0.35683 0.0
C1836 C 0.17334 0.90018 0.3519 0.0
C1837 C 0.195 0.95224 0.37093 0.0
C1838 C 0.18157 0.95247 0.3831 0.0
C1839 C 0.21032 0.97058 0.36395 0.0
C1840 C 0.22464 0.97108 0.35079 0.0
C1841 C 0.2171 0.96028 0.33547 0.0
C1842 C 0.23069 0.96055 0.32325 0.0
C1843 C 0.25187 0.97173 0.32614 0.0
C1844 C 0.25951 0.9827 0.34124 0.0
C1845 C 0.24598 0.98243 0.35352 0.0
H1846 H 0.26237 0.97193 0.31667 0.0
H1847 H 0.13336 0.96779 0.43872 0.0
H1848 H 0.47921 0.61716 0.3169 0.0
H1849 H 0.50922 0.64807 0.32726 0.0
H1850 H 0.52842 0.66619 0.27566 0.0
H1851 H 0.49826 0.63574 0.26517 0.0
H1852 H 0.56055 0.67135 0.2966 0.0
H1853 H 0.50585 0.68722 0.29717 0.0
H1854 H 0.47177 0.68185 0.30516 0.0
H1855 H 0.48833 0.68668 0.35797 0.0
H1856 H 0.52242 0.69179 0.3503 0.0
H1857 H 0.6352 0.77402 0.30807 0.0
H1858 H 0.60589 0.74179 0.29958 0.0
H1859 H 0.58356 0.73194 0.35109 0.0
H1860 H 0.61239 0.7646 0.35939 0.0
H1861 H 0.55293 0.72134 0.33136 0.0
H1862 H 0.60756 0.70633 0.33173 0.0
H1863 H 0.64161 0.71104 0.32458 0.0
H1864 H 0.62552 0.70343 0.27157 0.0
H1865 H 0.59145 0.69894 0.27838 0.0
C1866 C 0.48969 0.62779 0.30773 0.0
C1867 C 0.48623 0.62384 0.29016 0.0
C1868 C 0.50691 0.64542 0.31369 0.0
C1869 C 0.52105 0.65949 0.30223 0.0
C1870 C 0.51779 0.65551 0.28474 0.0
C1871 C 0.50055 0.63798 0.27877 0.0
C1872 C 0.53915 0.67849 0.30839 0.0
C1873 C 0.55891 0.68239 0.30407 0.0
C1874 C 0.53704 0.69262 0.31855 0.0
C1875 C 0.5166 0.68968 0.32316 0.0
C1876 C 0.50216 0.68698 0.31049 0.0
C1877 C 0.48286 0.68401 0.31496 0.0
C1878 C 0.47787 0.68387 0.33206 0.0
C1879 C 0.4922 0.68676 0.34473 0.0
C1880 C 0.51152 0.68971 0.34033 0.0
C1881 C 0.62419 0.76492 0.31766 0.0
C1882 C 0.62629 0.77193 0.33451 0.0
C1883 C 0.6074 0.74638 0.31278 0.0
C1884 C 0.59257 0.7341 0.32473 0.0
C1885 C 0.59472 0.74104 0.34158 0.0
C1886 C 0.61131 0.75976 0.34637 0.0
C1887 C 0.57452 0.71437 0.31955 0.0
C1888 C 0.5547 0.7103 0.32401 0.0
C1889 C 0.57661 0.69996 0.30969 0.0
C1890 C 0.59701 0.70246 0.30556 0.0
C1891 C 0.61132 0.70577 0.31854 0.0
C1892 C 0.63062 0.7084 0.31455 0.0
C1893 C 0.63574 0.70758 0.29763 0.0
C1894 C 0.62154 0.70408 0.28467 0.0
C1895 C 0.60222 0.70147 0.28859 0.0
H1896 H 0.6507 0.70963 0.29456 0.0
H1897 H 0.46291 0.68157 0.3355 0.0
H1898 H 0.39053 0.86451 0.31712 0.0
H1899 H 0.35906 0.8625 0.32812 0.0
H1900 H 0.33409 0.85258 0.27728 0.0
H1901 H 0.3652 0.85411 0.26628 0.0
H1902 H 0.34207 0.88549 0.32234 0.0
H1903 H 0.28249 0.823 0.27819 0.0
H1904 H 0.27697 0.79216 0.2635 0.0
H1905 H 0.31482 0.78482 0.30057 0.0
H1906 H 0.32037 0.81547 0.31558 0.0
H1907 H 0.24817 0.88698 0.32298 0.0
H1908 H 0.28037 0.88761 0.31721 0.0
H1909 H 0.25436 0.82703 0.33627 0.0
H1910 H 0.22158 0.82582 0.3406 0.0
H1911 H 0.27255 0.82811 0.30966 0.0
H1912 H 0.29925 0.87337 0.35844 0.0
H1913 H 0.30569 0.90275 0.37615 0.0
H1914 H 0.33434 0.94201 0.33382 0.0
H1915 H 0.32816 0.91286 0.31603 0.0
C1916 C 0.37826 0.8617 0.3083 0.0
C1917 C 0.3805 0.85953 0.29079 0.0
C1918 C 0.3603 0.86068 0.3146 0.0
C1919 C 0.34404 0.85723 0.30358 0.0
C1920 C 0.34623 0.855 0.28611 0.0
C1921 C 0.36418 0.8561 0.27981 0.0
C1922 C 0.32502 0.85644 0.31023 0.0
C1923 C 0.32687 0.8729 0.3196 0.0
C1924 C 0.30511 0.83998 0.3069 0.0
C1925 C 0.302 0.82163 0.29789 0.0
C1926 C 0.28962 0.81479 0.2832 0.0
C1927 C 0.28648 0.79735 0.27482 0.0
C1928 C 0.29559 0.78657 0.28107 0.0
C1929 C 0.30784 0.79322 0.29571 0.0
C1930 C 0.31102 0.81065 0.30414 0.0
C1931 C 0.24945 0.8739 0.32619 0.0
C1932 C 0.23242 0.85653 0.33265 0.0
C1933 C 0.26802 0.87433 0.32304 0.0
C1934 C 0.27024 0.85751 0.32657 0.0
C1935 C 0.25329 0.84028 0.33341 0.0
C1936 C 0.23454 0.83968 0.33616 0.0
C1937 C 0.28948 0.85727 0.32177 0.0
C1938 C 0.2877 0.84067 0.31257 0.0
C1939 C 0.30949 0.87349 0.32545 0.0
C1940 C 0.31292 0.89097 0.33593 0.0
C1941 C 0.30667 0.88827 0.35295 0.0
C1942 C 0.31038 0.90486 0.36299 0.0
C1943 C 0.32024 0.9242 0.35607 0.0
C1944 C 0.32661 0.92701 0.33915 0.0
C1945 C 0.3231 0.91048 0.32911 0.0
H1946 H 0.32304 0.93702 0.36385 0.0
H1947 H 0.29312 0.77306 0.27458 0.0
H1948 H 0.12537 0.50586 0.28875 0.0
H1949 H 0.12598 0.47629 0.29977 0.0
H1950 H 0.19196 0.50748 0.29519 0.0
H1951 H 0.19144 0.53704 0.28398 0.0
H1952 H 0.1739 0.46823 0.28337 0.0
H1953 H 0.17185 0.50364 0.33311 0.0
H1954 H 0.15831 0.52037 0.35153 0.0
H1955 H 0.10061 0.46522 0.3549 0.0
H1956 H 0.11372 0.44823 0.33629 0.0
H1957 H 0.17825 0.40459 0.35739 0.0
H1958 H 0.17711 0.43405 0.34714 0.0
H1959 H 0.14007 0.39967 0.30432 0.0
H1960 H 0.14068 0.36992 0.3146 0.0
H1961 H 0.14548 0.44153 0.34038 0.0
H1962 H 0.15806 0.43117 0.26928 0.0
H1963 H 0.17375 0.41543 0.25203 0.0
H1964 H 0.21475 0.42302 0.29316 0.0
H1965 H 0.19936 0.43873 0.31064 0.0
C1966 C 0.14 0.50638 0.29001 0.0
C1967 C 0.15837 0.52382 0.28558 0.0
C1968 C 0.14033 0.48951 0.29637 0.0
C1969 C 0.15903 0.48972 0.29838 0.0
C1970 C 0.17737 0.507 0.29374 0.0
C1971 C 0.17706 0.52393 0.2875 0.0
C1972 C 0.15947 0.47204 0.30558 0.0
C1973 C 0.16763 0.46235 0.29581 0.0
C1974 C 0.1516 0.46457 0.32193 0.0
C1975 C 0.14371 0.47472 0.33318 0.0
C1976 C 0.15622 0.49512 0.33767 0.0
C1977 C 0.14863 0.50464 0.34816 0.0
C1978 C 0.12859 0.49388 0.35434 0.0
C1979 C 0.11612 0.47355 0.35008 0.0
C1980 C 0.12363 0.46396 0.33957 0.0
C1981 C 0.16954 0.40311 0.34595 0.0
C1982 C 0.1595 0.38479 0.33687 0.0
C1983 C 0.16899 0.42004 0.34008 0.0
C1984 C 0.15873 0.4191 0.32488 0.0
C1985 C 0.14827 0.40075 0.31599 0.0
C1986 C 0.1486 0.38375 0.32194 0.0
C1987 C 0.15952 0.4375 0.31805 0.0
C1988 C 0.15162 0.44733 0.3279 0.0
C1989 C 0.16789 0.44524 0.30188 0.0
C1990 C 0.17747 0.43607 0.29132 0.0
C1991 C 0.17048 0.42956 0.27462 0.0
C1992 C 0.17929 0.42061 0.26481 0.0
C1993 C 0.19522 0.41825 0.2715 0.0
C1994 C 0.20238 0.42481 0.28802 0.0
C1995 C 0.19359 0.43371 0.29789 0.0
H1996 H 0.20205 0.41138 0.26388 0.0
H1997 H 0.12275 0.50128 0.36247 0.0
H1998 H 0.37679 0.51828 0.31515 0.0
H1999 H 0.34796 0.4846 0.32142 0.0
H2000 H 0.30675 0.49891 0.29444 0.0
H2001 H 0.33536 0.53253 0.28845 0.0
H2002 H 0.29113 0.48379 0.32368 0.0
H2003 H 0.32084 0.46484 0.27877 0.0
H2004 H 0.34834 0.4627 0.26358 0.0
H2005 H 0.35556 0.43116 0.30568 0.0
H2006 H 0.32828 0.43336 0.32123 0.0
H2007 H 0.20193 0.387 0.32793 0.0
H2008 H 0.23081 0.41936 0.32012 0.0
H2009 H 0.27271 0.40028 0.33848 0.0
H2010 H 0.2435 0.36671 0.34375 0.0
H2011 H 0.28845 0.4187 0.31343 0.0
H2012 H 0.25719 0.43933 0.35865 0.0
H2013 H 0.22956 0.44317 0.37188 0.0
H2014 H 0.22431 0.47204 0.32717 0.0
H2015 H 0.25176 0.46838 0.31351 0.0
C2016 C 0.36163 0.51405 0.3103 0.0
C2017 C 0.3583 0.52807 0.30141 0.0
C2018 C 0.34515 0.49481 0.31389 0.0
C2019 C 0.32509 0.48914 0.30843 0.0
C2020 C 0.32199 0.50291 0.29894 0.0
C2021 C 0.33837 0.52212 0.29549 0.0
C2022 C 0.3071 0.46944 0.31337 0.0
C2023 C 0.29047 0.46951 0.32135 0.0
C2024 C 0.30627 0.45081 0.31056 0.0
C2025 C 0.32267 0.44946 0.30123 0.0
C2026 C 0.32841 0.4576 0.28485 0.0
C2027 C 0.34394 0.45635 0.27617 0.0
C2028 C 0.35373 0.44685 0.28368 0.0
C2029 C 0.34798 0.43854 0.29989 0.0
C2030 C 0.33248 0.43977 0.30863 0.0
C2031 C 0.21731 0.38993 0.33072 0.0
C2032 C 0.22047 0.37468 0.33734 0.0
C2033 C 0.23398 0.40863 0.32633 0.0
C2034 C 0.25431 0.413 0.3293 0.0
C2035 C 0.25735 0.39766 0.33611 0.0
C2036 C 0.24064 0.37853 0.33949 0.0
C2037 C 0.27239 0.43287 0.32428 0.0
C2038 C 0.28909 0.43289 0.31611 0.0
C2039 C 0.27318 0.45164 0.32679 0.0
C2040 C 0.25649 0.45351 0.33504 0.0
C2041 C 0.25008 0.4464 0.3516 0.0
C2042 C 0.23443 0.4485 0.35916 0.0
C2043 C 0.22516 0.45771 0.35038 0.0
C2044 C 0.2315 0.4649 0.33397 0.0
C2045 C 0.24711 0.46284 0.3263 0.0
H2046 H 0.21313 0.45938 0.35635 0.0
H2047 H 0.36574 0.44589 0.27694 0.0
H2048 H 0.48036 0.81283 0.28373 0.0
H2049 H 0.51491 0.81794 0.28825 0.0
H2050 H 0.52967 0.86889 0.32076 0.0
H2051 H 0.49493 0.86382 0.31611 0.0
H2052 H 0.55421 0.84824 0.28305 0.0
H2053 H 0.55881 0.86561 0.35497 0.0
H2054 H 0.53571 0.85979 0.37913 0.0
H2055 H 0.48793 0.80701 0.35433 0.0
H2056 H 0.51084 0.81232 0.33017 0.0
H2057 H 0.65398 0.87645 0.31663 0.0
H2058 H 0.62176 0.87629 0.31079 0.0
H2059 H 0.58738 0.81603 0.3306 0.0
H2060 H 0.61949 0.81593 0.33598 0.0
H2061 H 0.57317 0.84204 0.34232 0.0
H2062 H 0.58962 0.82076 0.29025 0.0
H2063 H 0.61185 0.8235 0.26624 0.0
H2064 H 0.61538 0.87895 0.25111 0.0
H2065 H 0.59344 0.87671 0.27523 0.0
C2066 C 0.49114 0.8254 0.29153 0.0
C2067 C 0.48499 0.83797 0.29952 0.0
C2068 C 0.51089 0.82831 0.29412 0.0
C2069 C 0.52489 0.84366 0.30499 0.0
C2070 C 0.51911 0.85683 0.31242 0.0
C2071 C 0.49934 0.85406 0.30965 0.0
C2072 C 0.54493 0.84492 0.30925 0.0
C2073 C 0.55841 0.8471 0.29603 0.0
C2074 C 0.55035 0.84299 0.32616 0.0
C2075 C 0.53645 0.83957 0.34064 0.0
C2076 C 0.54338 0.85276 0.35468 0.0
C2077 C 0.53032 0.84953 0.36839 0.0
C2078 C 0.51033 0.8331 0.36823 0.0
C2079 C 0.50338 0.81979 0.3544 0.0
C2080 C 0.51639 0.82292 0.34068 0.0
C2081 C 0.63953 0.86322 0.31982 0.0
C2082 C 0.6393 0.84641 0.32717 0.0
C2083 C 0.62115 0.86314 0.31648 0.0
C2084 C 0.60213 0.84618 0.32032 0.0
C2085 C 0.60186 0.82935 0.32766 0.0
C2086 C 0.62024 0.82935 0.3308 0.0
C2087 C 0.58251 0.84572 0.31616 0.0
C2088 C 0.5691 0.84356 0.32938 0.0
C2089 C 0.57702 0.84738 0.29925 0.0
C2090 C 0.59007 0.84869 0.28466 0.0
C2091 C 0.59529 0.83363 0.2819 0.0
C2092 C 0.60781 0.83507 0.26825 0.0
C2093 C 0.61506 0.85141 0.25718 0.0
C2094 C 0.60977 0.86631 0.25971 0.0
C2095 C 0.59729 0.86497 0.27336 0.0
H2096 H 0.62475 0.85249 0.24662 0.0
H2097 H 0.50024 0.83064 0.37884 0.0
H2098 H 0.1682 0.63161 0.31102 0.0
H2099 H 0.16136 0.65885 0.31816 0.0
H2100 H 0.21015 0.69884 0.28479 0.0
H2101 H 0.21738 0.67181 0.27808 0.0
H2102 H 0.21363 0.71761 0.3126 0.0
H2103 H 0.15745 0.67842 0.27497 0.0
H2104 H 0.12717 0.64783 0.26382 0.0
H2105 H 0.09487 0.64219 0.31021 0.0
H2106 H 0.12507 0.6726 0.32173 0.0
H2107 H 0.18478 0.79369 0.30695 0.0
H2108 H 0.18711 0.76399 0.2985 0.0
H2109 H 0.15911 0.73513 0.34572 0.0
H2110 H 0.15721 0.76502 0.35435 0.0
H2111 H 0.14441 0.71085 0.31118 0.0
H2112 H 0.203 0.75205 0.34783 0.0
H2113 H 0.23396 0.78339 0.35681 0.0
H2114 H 0.26234 0.78609 0.30895 0.0
H2115 H 0.23132 0.75512 0.29943 0.0
C2116 C 0.17728 0.64616 0.30508 0.0
C2117 C 0.19334 0.64962 0.29402 0.0
C2118 C 0.17334 0.66172 0.30912 0.0
C2119 C 0.18511 0.68093 0.30191 0.0
C2120 C 0.2009 0.68423 0.2906 0.0
C2121 C 0.20502 0.66877 0.28675 0.0
C2122 C 0.1816 0.69783 0.30662 0.0
C2123 C 0.1985 0.71614 0.31206 0.0
C2124 C 0.16183 0.69594 0.30618 0.0
C2125 C 0.14361 0.67768 0.29928 0.0
C2126 C 0.14395 0.67057 0.28285 0.0
C2127 C 0.12679 0.65327 0.27645 0.0
C2128 C 0.10913 0.64304 0.28632 0.0
C2129 C 0.10857 0.65012 0.30259 0.0
C2130 C 0.1257 0.66739 0.30905 0.0
C2131 C 0.17885 0.78085 0.31537 0.0
C2132 C 0.17091 0.78155 0.33131 0.0
C2133 C 0.18025 0.76399 0.31059 0.0
C2134 C 0.17335 0.74747 0.32153 0.0
C2135 C 0.16452 0.74777 0.33713 0.0
C2136 C 0.16356 0.76484 0.34209 0.0
C2137 C 0.17641 0.73038 0.31704 0.0
C2138 C 0.15946 0.71215 0.31168 0.0
C2139 C 0.19619 0.73244 0.31722 0.0
C2140 C 0.21468 0.75137 0.32282 0.0
C2141 C 0.21568 0.75951 0.33908 0.0
C2142 C 0.23329 0.7772 0.3443 0.0
C2143 C 0.25011 0.78675 0.33345 0.0
C2144 C 0.2493 0.77872 0.31731 0.0
C2145 C 0.23169 0.76111 0.31199 0.0
H2146 H 0.26382 0.80031 0.33756 0.0
H2147 H 0.09586 0.62966 0.28134 0.0
H2148 H 0.87875 0.01119 0.40625 0.0
H2149 H 0.84465 0.98225 0.40081 0.0
H2150 H 0.82909 0.01946 0.37025 0.0
H2151 H 0.86316 0.04869 0.3761 0.0
H2152 H 0.79591 0.99233 0.38689 0.0
H2153 H 0.84681 0.99054 0.35194 0.0
H2154 H 0.87922 0.99115 0.34552 0.0
H2155 H 0.85992 0.93786 0.37532 0.0
H2156 H 0.82754 0.93715 0.38216 0.0
H2157 H 0.74146 0.89305 0.33132 0.0
H2158 H 0.77097 0.92487 0.3396 0.0
H2159 H 0.74182 0.9229 0.38727 0.0
H2160 H 0.71138 0.8917 0.3783 0.0
H2161 H 0.79719 0.93343 0.36191 0.0
H2162 H 0.76201 0.96919 0.40529 0.0
H2163 H 0.7297 0.96993 0.40827 0.0
H2164 H 0.71747 0.95786 0.35488 0.0
H2165 H 0.74982 0.9573 0.35156 0.0
C2166 C 0.86793 0.01326 0.39859 0.0
C2167 C 0.87366 0.03212 0.39143 0.0
C2168 C 0.84846 0.9967 0.39545 0.0
C2169 C 0.83443 0.99852 0.38478 0.0
C2170 C 0.83966 0.01764 0.37845 0.0
C2171 C 0.85911 0.03433 0.3818 0.0
C2172 C 0.8151 0.98023 0.37923 0.0
C2173 C 0.79615 0.97943 0.38142 0.0
C2174 C 0.81537 0.96351 0.37176 0.0
C2175 C 0.83484 0.9639 0.3677 0.0
C2176 C 0.84956 0.97905 0.35724 0.0
C2177 C 0.86791 0.9794 0.35351 0.0
C2178 C 0.87165 0.96458 0.36004 0.0
C2179 C 0.85702 0.94935 0.37029 0.0
C2180 C 0.83866 0.94896 0.3741 0.0
C2181 C 0.74095 0.89958 0.34331 0.0
C2182 C 0.72371 0.88987 0.35388 0.0
C2183 C 0.75807 0.91779 0.3482 0.0
C2184 C 0.75874 0.9266 0.36404 0.0
C2185 C 0.74161 0.91685 0.37477 0.0
C2186 C 0.72418 0.89885 0.36964 0.0
C2187 C 0.77779 0.94538 0.36946 0.0
C2188 C 0.79679 0.94626 0.36734 0.0
C2189 C 0.77754 0.96236 0.37645 0.0
C2190 C 0.75824 0.96302 0.37822 0.0
C2191 C 0.75246 0.96679 0.39418 0.0
C2192 C 0.73414 0.96715 0.39593 0.0
C2193 C 0.72151 0.96388 0.38178 0.0
C2194 C 0.72723 0.96032 0.36584 0.0
C2195 C 0.74555 0.95996 0.36402 0.0
H2196 H 0.70731 0.96414 0.38317 0.0
H2197 H 0.88587 0.96487 0.35713 0.0
H2198 H 0.97979 0.83036 0.35057 0.0
H2199 H 0.00895 0.82494 0.34686 0.0
H2200 H 0.01059 0.81633 0.40086 0.0
H2201 H 0.98129 0.82195 0.40463 0.0
H2202 H 0.04865 0.84261 0.38894 0.0
H2203 H 0.9949 0.7768 0.37339 0.0
H2204 H 0.96382 0.75165 0.3581 0.0
H2205 H 0.99492 0.77226 0.31046 0.0
H2206 H 0.02612 0.79774 0.32544 0.0
H2207 H 0.1085 0.78816 0.36176 0.0
H2208 H 0.07585 0.78745 0.36633 0.0
H2209 H 0.10513 0.85078 0.35466 0.0
H2210 H 0.13777 0.85163 0.35077 0.0
H2211 H 0.05066 0.79458 0.3476 0.0
H2212 H 0.0853 0.87321 0.37864 0.0
H2213 H 0.11656 0.89713 0.3945 0.0
H2214 H 0.12286 0.84802 0.4136 0.0
H2215 H 0.09151 0.8238 0.39801 0.0
C2216 C 0.98613 0.82696 0.36164 0.0
C2217 C 0.97819 0.82654 0.3779 0.0
C2218 C 1.00281 0.82383 0.3595 0.0
C2219 C 0.01204 0.82017 0.37356 0.0
C2220 C 1.00377 0.81913 0.3898 0.0
C2221 C 0.98689 0.82213 0.39194 0.0
C2222 C 0.0309 0.81848 0.37124 0.0
C2223 C 0.04901 0.83202 0.37997 0.0
C2224 C 0.03152 0.80462 0.3596 0.0
C2225 C 0.0128 0.7893 0.35054 0.0
C2226 C 0.99507 0.77608 0.35964 0.0
C2227 C 0.97744 0.76174 0.35103 0.0
C2228 C 0.97738 0.76038 0.33332 0.0
C2229 C 0.99498 0.77334 0.32418 0.0
C2230 C 0.01265 0.78772 0.33272 0.0
C2231 C 0.10787 0.80186 0.36 0.0
C2232 C 0.12565 0.81985 0.35555 0.0
C2233 C 0.0892 0.80145 0.36259 0.0
C2234 C 0.08797 0.8191 0.36104 0.0
C2235 C 0.10565 0.83699 0.3562 0.0
C2236 C 0.12433 0.83742 0.35372 0.0
C2237 C 0.06844 0.81892 0.36508 0.0
C2238 C 0.05024 0.80509 0.35664 0.0
C2239 C 0.06769 0.83234 0.37713 0.0
C2240 C 0.08613 0.84671 0.38706 0.0
C2241 C 0.09327 0.86751 0.38632 0.0
C2242 C 0.11103 0.88112 0.39523 0.0
C2243 C 0.12171 0.8741 0.40501 0.0
C2244 C 0.1146 0.85344 0.40598 0.0
C2245 C 0.09684 0.83977 0.3971 0.0
H2246 H 0.13548 0.88466 0.41186 0.0
H2247 H 0.96372 0.74927 0.32667 0.0
H2248 H 0.20179 0.15103 0.37751 0.0
H2249 H 0.20939 0.18578 0.37299 0.0
H2250 H 0.15204 0.17162 0.39662 0.0
H2251 H 0.1446 0.13717 0.40143 0.0
H2252 H 0.18823 0.19824 0.35382 0.0
H2253 H 0.15615 0.21272 0.41622 0.0
H2254 H 0.15409 0.20439 0.44666 0.0
H2255 H 0.20684 0.19692 0.44203 0.0
H2256 H 0.20942 0.2055 0.41164 0.0
H2257 H 0.15468 0.26777 0.3417 0.0
H2258 H 0.15859 0.23911 0.34924 0.0
H2259 H 0.20816 0.27664 0.38361 0.0
H2260 H 0.20403 0.30553 0.37636 0.0
H2261 H 0.18349 0.24198 0.3981 0.0
H2262 H 0.21745 0.26105 0.34458 0.0
H2263 H 0.22108 0.27056 0.31435 0.0
H2264 H 0.16886 0.21316 0.30165 0.0
H2265 H 0.16478 0.20337 0.33184 0.0
C2266 C 0.19102 0.15547 0.38202 0.0
C2267 C 0.17256 0.14135 0.38976 0.0
C2268 C 0.19531 0.17527 0.37934 0.0
C2269 C 0.18135 0.18136 0.38454 0.0
C2270 C 0.16318 0.16739 0.39268 0.0
C2271 C 0.15886 0.14764 0.39529 0.0
C2272 C 0.18496 0.20184 0.38058 0.0
C2273 C 0.18739 0.20788 0.36353 0.0
C2274 C 0.18418 0.2146 0.39326 0.0
C2275 C 0.18287 0.20962 0.4116 0.0
C2276 C 0.16738 0.2094 0.42171 0.0
C2277 C 0.1661 0.20462 0.43896 0.0
C2278 C 0.18029 0.20008 0.44627 0.0
C2279 C 0.19582 0.20037 0.43635 0.0
C2280 C 0.19717 0.20517 0.4191 0.0
C2281 C 0.16659 0.27007 0.35073 0.0
C2282 C 0.1792 0.28905 0.35829 0.0
C2283 C 0.16883 0.25361 0.35502 0.0
C2284 C 0.18393 0.25575 0.36676 0.0
C2285 C 0.19647 0.27464 0.37444 0.0
C2286 C 0.19412 0.29115 0.37026 0.0
C2287 C 0.1861 0.23805 0.37129 0.0
C2288 C 0.18468 0.23249 0.38843 0.0
C2289 C 0.18809 0.22586 0.35872 0.0
C2290 C 0.19078 0.2315 0.34049 0.0
C2291 C 0.20671 0.25047 0.33535 0.0
C2292 C 0.20886 0.2559 0.31822 0.0
C2293 C 0.19523 0.24246 0.30609 0.0
C2294 C 0.17944 0.22354 0.31106 0.0
C2295 C 0.17723 0.21802 0.32817 0.0
H2296 H 0.19687 0.24672 0.29284 0.0
H2297 H 0.17927 0.19636 0.45962 0.0
H2298 H 0.65283 0.47743 0.71807 0.0
H2299 H 0.68241 0.5071 0.70643 0.0
H2300 H 0.65801 0.54426 0.72415 0.0
H2301 H 0.62754 0.51447 0.73452 0.0
H2302 H 0.67383 0.5572 0.69523 0.0
H2303 H 0.69851 0.5394 0.7454 0.0
H2304 H 0.70515 0.51722 0.76381 0.0
H2305 H 0.74077 0.51073 0.72435 0.0
H2306 H 0.73422 0.53274 0.70569 0.0
H2307 H 0.76512 0.65256 0.6969 0.0
H2308 H 0.73329 0.62091 0.7013 0.0
H2309 H 0.76248 0.58802 0.68346 0.0
H2310 H 0.79481 0.61972 0.68038 0.0
H2311 H 0.74408 0.57177 0.71043 0.0
H2312 H 0.71878 0.58938 0.66022 0.0
H2313 H 0.71166 0.61146 0.64191 0.0
H2314 H 0.67738 0.61862 0.68212 0.0
H2315 H 0.68423 0.59658 0.70056 0.0
C2316 C 0.65346 0.49181 0.71922 0.0
C2317 C 0.63767 0.49339 0.72741 0.0
C2318 C 0.67066 0.50891 0.71279 0.0
C2319 C 0.67283 0.52812 0.71475 0.0
C2320 C 0.65689 0.52969 0.72256 0.0
C2321 C 0.63951 0.51258 0.7287 0.0
C2322 C 0.6916 0.54662 0.70875 0.0
C2323 C 0.68919 0.56044 0.69871 0.0
C2324 C 0.71176 0.55077 0.71285 0.0
C2325 C 0.71569 0.53755 0.7241 0.0
C2326 C 0.70765 0.53314 0.74063 0.0
C2327 C 0.71144 0.52063 0.75112 0.0
C2328 C 0.72336 0.51254 0.74525 0.0
C2329 C 0.73156 0.517 0.7289 0.0
C2330 C 0.72783 0.5295 0.71836 0.0
C2331 C 0.76461 0.63857 0.69361 0.0
C2332 C 0.78238 0.63869 0.68797 0.0
C2333 C 0.74628 0.62041 0.69597 0.0
C2334 C 0.74514 0.60187 0.69242 0.0
C2335 C 0.76279 0.60203 0.68624 0.0
C2336 C 0.78127 0.62021 0.68426 0.0
C2337 C 0.72637 0.58243 0.69689 0.0
C2338 C 0.72876 0.56844 0.70675 0.0
C2339 C 0.7062 0.57818 0.69272 0.0
C2340 C 0.70226 0.5916 0.68177 0.0
C2341 C 0.70992 0.59587 0.66515 0.0
C2342 C 0.70587 0.60829 0.65476 0.0
C2343 C 0.69423 0.61654 0.6609 0.0
C2344 C 0.68646 0.61227 0.6774 0.0
C2345 C 0.69035 0.59976 0.68779 0.0
H2346 H 0.69115 0.62618 0.65284 0.0
H2347 H 0.72628 0.50286 0.75339 0.0
H2348 H 0.49571 0.10457 0.72592 0.0
H2349 H 0.46585 0.10681 0.71643 0.0
H2350 H 0.50418 0.171 0.71035 0.0
H2351 H 0.53405 0.16893 0.72019 0.0
H2352 H 0.46967 0.16227 0.72707 0.0
H2353 H 0.48549 0.13915 0.67582 0.0
H2354 H 0.49273 0.1169 0.65802 0.0
H2355 H 0.43335 0.06673 0.66959 0.0
H2356 H 0.42587 0.08863 0.68767 0.0
H2357 H 0.39547 0.17831 0.68451 0.0
H2358 H 0.42619 0.17591 0.69033 0.0
H2359 H 0.38824 0.11226 0.6996 0.0
H2360 H 0.35734 0.11465 0.69372 0.0
H2361 H 0.42278 0.12099 0.68035 0.0
H2362 H 0.40754 0.14292 0.73256 0.0
H2363 H 0.40061 0.16411 0.75198 0.0
H2364 H 0.45849 0.21563 0.73921 0.0
H2365 H 0.46575 0.19477 0.71961 0.0
C2366 C 0.49782 0.11918 0.72253 0.0
C2367 C 0.51737 0.13657 0.72383 0.0
C2368 C 0.48072 0.12041 0.71696 0.0
C2369 C 0.48269 0.13906 0.71251 0.0
C2370 C 0.50221 0.15642 0.71364 0.0
C2371 C 0.51935 0.15518 0.71914 0.0
C2372 C 0.46428 0.14057 0.70739 0.0
C2373 C 0.45965 0.15349 0.71665 0.0
C2374 C 0.45076 0.1287 0.69411 0.0
C2375 C 0.4552 0.1155 0.68324 0.0
C2376 C 0.47404 0.12334 0.67469 0.0
C2377 C 0.47818 0.1108 0.66453 0.0
C2378 C 0.46353 0.09041 0.66271 0.0
C2379 C 0.4447 0.08253 0.67103 0.0
C2380 C 0.44049 0.095 0.68122 0.0
C2381 C 0.39366 0.16374 0.68752 0.0
C2382 C 0.37398 0.14656 0.68832 0.0
C2383 C 0.41125 0.16241 0.69099 0.0
C2384 C 0.40959 0.14391 0.69549 0.0
C2385 C 0.38995 0.12668 0.6961 0.0
C2386 C 0.37231 0.12805 0.69277 0.0
C2387 C 0.42828 0.1427 0.70004 0.0
C2388 C 0.43291 0.12984 0.69069 0.0
C2389 C 0.44179 0.15455 0.71329 0.0
C2390 C 0.43711 0.16732 0.72451 0.0
C2391 C 0.41868 0.15882 0.73373 0.0
C2392 C 0.41472 0.17075 0.74481 0.0
C2393 C 0.4291 0.19118 0.74683 0.0
C2394 C 0.44739 0.19979 0.73764 0.0
C2395 C 0.45145 0.18791 0.72656 0.0
H2396 H 0.42618 0.20031 0.75561 0.0
H2397 H 0.46676 0.08072 0.65484 0.0
H2398 H 0.8991 0.39159 0.73849 0.0
H2399 H 0.89717 0.36065 0.72844 0.0
H2400 H 0.8331 0.33642 0.7158 0.0
H2401 H 0.83441 0.3666 0.72728 0.0
H2402 H 0.83655 0.30873 0.72975 0.0
H2403 H 0.87386 0.35418 0.68506 0.0
H2404 H 0.90114 0.38516 0.67192 0.0
H2405 H 0.94688 0.37219 0.69109 0.0
H2406 H 0.91989 0.34125 0.70454 0.0
H2407 H 0.82836 0.22921 0.67704 0.0
H2408 H 0.83205 0.26157 0.68547 0.0
H2409 H 0.88712 0.27593 0.71363 0.0
H2410 H 0.88343 0.24333 0.70541 0.0
H2411 H 0.88844 0.30821 0.69128 0.0
H2412 H 0.84845 0.26161 0.73582 0.0
H2413 H 0.81952 0.23013 0.7468 0.0
H2414 H 0.77666 0.24518 0.72451 0.0
H2415 H 0.80534 0.27661 0.71316 0.0
C2416 C 0.88449 0.37964 0.73376 0.0
C2417 C 0.86689 0.38172 0.73383 0.0
C2418 C 0.88351 0.362 0.72771 0.0
C2419 C 0.86507 0.3462 0.72107 0.0
C2420 C 0.84755 0.34836 0.72081 0.0
C2421 C 0.84841 0.36583 0.72719 0.0
C2422 C 0.86379 0.32711 0.71507 0.0
C2423 C 0.84777 0.30871 0.72112 0.0
C2424 C 0.87857 0.32689 0.70402 0.0
C2425 C 0.89485 0.34549 0.69595 0.0
C2426 C 0.88974 0.35801 0.68658 0.0
C2427 C 0.90516 0.37555 0.67906 0.0
C2428 C 0.92573 0.38067 0.68071 0.0
C2429 C 0.93094 0.36822 0.68985 0.0
C2430 C 0.91559 0.35067 0.69741 0.0
C2431 C 0.84141 0.23931 0.68487 0.0
C2432 C 0.85566 0.23373 0.69053 0.0
C2433 C 0.84342 0.25776 0.68973 0.0
C2434 C 0.85981 0.27107 0.70018 0.0
C2435 C 0.87438 0.26582 0.70552 0.0
C2436 C 0.8722 0.24719 0.70088 0.0
C2437 C 0.86129 0.29017 0.70596 0.0
C2438 C 0.8773 0.30844 0.69987 0.0
C2439 C 0.84629 0.29028 0.71667 0.0
C2440 C 0.82905 0.27138 0.72351 0.0
C2441 C 0.83286 0.25811 0.73312 0.0
C2442 C 0.8165 0.24029 0.73944 0.0
C2443 C 0.79627 0.23566 0.73634 0.0
C2444 C 0.79234 0.2488 0.72689 0.0
C2445 C 0.80864 0.26662 0.72053 0.0
H2446 H 0.78362 0.22194 0.74133 0.0
H2447 H 0.93764 0.39426 0.67487 0.0
H2448 H 0.15042 0.95138 0.64846 0.0
H2449 H 0.18019 0.98307 0.6579 0.0
H2450 H 0.19478 0.00174 0.60573 0.0
H2451 H 0.16512 0.97017 0.59623 0.0
H2452 H 0.22867 0.00969 0.62282 0.0
H2453 H 0.17188 0.02091 0.63187 0.0
H2454 H 0.13828 0.01342 0.64325 0.0
H2455 H 0.16079 0.01732 0.69418 0.0
H2456 H 0.19446 0.02455 0.68309 0.0
H2457 H 0.2984 0.11386 0.63582 0.0
H2458 H 0.26924 0.08128 0.62761 0.0
H2459 H 0.25655 0.06514 0.68045 0.0
H2460 H 0.28568 0.09774 0.68868 0.0
H2461 H 0.22192 0.05538 0.66379 0.0
H2462 H 0.27914 0.04511 0.65464 0.0
H2463 H 0.31283 0.05308 0.64311 0.0
H2464 H 0.28957 0.04767 0.59226 0.0
H2465 H 0.2558 0.03995 0.60349 0.0
C2466 C 0.15989 0.96231 0.63901 0.0
C2467 C 0.15538 0.95821 0.62159 0.0
C2468 C 0.17692 0.98042 0.64442 0.0
C2469 C 0.18967 0.99491 0.63254 0.0
C2470 C 0.18525 0.9908 0.61515 0.0
C2471 C 0.16829 0.97269 0.60973 0.0
C2472 C 0.20767 0.01434 0.63814 0.0
C2473 C 0.22714 0.01978 0.63164 0.0
C2474 C 0.20583 0.02733 0.64995 0.0
C2475 C 0.18562 0.02306 0.65664 0.0
C2476 C 0.16962 0.02001 0.64549 0.0
C2477 C 0.15057 0.01584 0.65189 0.0
C2478 C 0.14738 0.01484 0.66942 0.0
C2479 C 0.16327 0.01807 0.6806 0.0
C2480 C 0.18234 0.02221 0.67427 0.0
C2481 C 0.28954 0.10331 0.64571 0.0
C2482 C 0.29433 0.10849 0.66296 0.0
C2483 C 0.27284 0.08466 0.64099 0.0
C2484 C 0.26075 0.07062 0.6534 0.0
C2485 C 0.26557 0.07572 0.67063 0.0
C2486 C 0.2822 0.09444 0.67534 0.0
C2487 C 0.2429 0.05077 0.64842 0.0
C2488 C 0.22347 0.04525 0.65504 0.0
C2489 C 0.24477 0.03771 0.6367 0.0
C2490 C 0.26499 0.04211 0.62991 0.0
C2491 C 0.28125 0.04574 0.641 0.0
C2492 C 0.30035 0.0502 0.63452 0.0
C2493 C 0.30335 0.05092 0.61697 0.0
C2494 C 0.28723 0.04712 0.60586 0.0
C2495 C 0.26809 0.04268 0.61227 0.0
H2496 H 0.31816 0.05438 0.61197 0.0
H2497 H 0.13262 0.01161 0.67435 0.0
H2498 H 0.06139 0.21575 0.65695 0.0
H2499 H 0.02963 0.21478 0.6659 0.0
H2500 H 1.00154 0.18824 0.61758 0.0
H2501 H 0.0335 0.19018 0.60842 0.0
H2502 H 0.99131 0.21366 0.62391 0.0
H2503 H 0.99069 0.16166 0.65778 0.0
H2504 H 1.00364 0.14637 0.67839 0.0
H2505 H 1.00581 0.18688 0.71725 0.0
H2506 H 0.99315 0.20261 0.6968 0.0
H2507 H 0.88728 0.1653 0.67137 0.0
H2508 H 0.92039 0.16748 0.66636 0.0
H2509 H 0.94715 0.23072 0.65513 0.0
H2510 H 0.91384 0.2285 0.66012 0.0
H2511 H 0.95784 0.18699 0.67941 0.0
H2512 H 0.98097 0.24317 0.62347 0.0
H2513 H 0.96438 0.25206 0.60057 0.0
H2514 H 0.9116 0.19264 0.60237 0.0
H2515 H 0.92785 0.18345 0.62521 0.0
C2516 C 0.04835 0.20965 0.64832 0.0
C2517 C 0.04995 0.20312 0.63197 0.0
C2518 C 0.03013 0.20899 0.65346 0.0
C2519 C 0.01289 0.20125 0.64253 0.0
C2520 C 0.0145 0.19444 0.62628 0.0
C2521 C 0.03279 0.19549 0.62104 0.0
C2522 C 0.99336 0.20069 0.64762 0.0
C2523 C 0.98414 0.20787 0.6361 0.0
C2524 C 0.98351 0.19283 0.66339 0.0
C2525 C 0.99123 0.18349 0.67569 0.0
C2526 C 0.99411 0.16743 0.67068 0.0
C2527 C 1.00137 0.15866 0.68234 0.0
C2528 C 1.00562 0.1657 0.6991 0.0
C2529 C 1.00257 0.18148 0.70425 0.0
C2530 C 0.99535 0.19033 0.69263 0.0
C2531 C 0.90029 0.17977 0.66818 0.0
C2532 C 0.89803 0.19684 0.66647 0.0
C2533 C 0.91926 0.18099 0.66526 0.0
C2534 C 0.93636 0.19923 0.66026 0.0
C2535 C 0.9342 0.2164 0.65881 0.0
C2536 C 0.91519 0.21517 0.66172 0.0
C2537 C 0.95605 0.19999 0.65571 0.0
C2538 C 0.96525 0.19292 0.66731 0.0
C2539 C 0.96549 0.20717 0.63975 0.0
C2540 C 0.95554 0.21272 0.62616 0.0
C2541 C 0.96581 0.23204 0.61898 0.0
C2542 C 0.95645 0.23714 0.60602 0.0
C2543 C 0.9369 0.22297 0.60006 0.0
C2544 C 0.92666 0.20368 0.60706 0.0
C2545 C 0.93592 0.19853 0.62004 0.0
H2546 H 0.92976 0.22695 0.58998 0.0
H2547 H 0.01122 0.15888 0.70812 0.0
H2548 H 0.78927 0.84056 0.62007 0.0
H2549 H 0.79097 0.81157 0.63118 0.0
H2550 H 0.8571 0.84529 0.62834 0.0
H2551 H 0.85549 0.8743 0.61713 0.0
H2552 H 0.84059 0.80647 0.61526 0.0
H2553 H 0.83553 0.83918 0.66571 0.0
H2554 H 0.82034 0.85416 0.68433 0.0
H2555 H 0.76397 0.79753 0.68608 0.0
H2556 H 0.77874 0.78227 0.66725 0.0
H2557 H 0.84704 0.74228 0.68748 0.0
H2558 H 0.84519 0.77147 0.6776 0.0
H2559 H 0.80776 0.7369 0.635 0.0
H2560 H 0.80901 0.70733 0.64502 0.0
H2561 H 0.81141 0.77707 0.67144 0.0
H2562 H 0.82567 0.76976 0.60042 0.0
H2563 H 0.84245 0.75564 0.5826 0.0
H2564 H 0.88386 0.76356 0.62356 0.0
H2565 H 0.86756 0.77801 0.64151 0.0
C2566 C 0.80416 0.84177 0.6218 0.0
C2567 C 0.82225 0.85972 0.61778 0.0
C2568 C 0.80512 0.82525 0.6282 0.0
C2569 C 0.82417 0.82631 0.63063 0.0
C2570 C 0.84225 0.84416 0.62655 0.0
C2571 C 0.84131 0.86076 0.62029 0.0
C2572 C 0.82522 0.80881 0.63748 0.0
C2573 C 0.83418 0.80002 0.62753 0.0
C2574 C 0.81707 0.80053 0.65356 0.0
C2575 C 0.80818 0.80964 0.66494 0.0
C2576 C 0.81984 0.82996 0.66995 0.0
C2577 C 0.81131 0.8385 0.68056 0.0
C2578 C 0.79118 0.82682 0.68635 0.0
C2579 C 0.77955 0.80656 0.68157 0.0
C2580 C 0.788 0.79796 0.67094 0.0
C2581 C 0.83804 0.74067 0.6762 0.0
C2582 C 0.82799 0.72231 0.66717 0.0
C2583 C 0.83709 0.75745 0.67054 0.0
C2584 C 0.82642 0.75636 0.65555 0.0
C2585 C 0.81618 0.73806 0.64656 0.0
C2586 C 0.8169 0.72117 0.65234 0.0
C2587 C 0.82646 0.77456 0.64911 0.0
C2588 C 0.81772 0.78346 0.65914 0.0
C2589 C 0.83501 0.78306 0.63318 0.0
C2590 C 0.84522 0.77475 0.62237 0.0
C2591 C 0.83841 0.76856 0.6056 0.0
C2592 C 0.84782 0.76048 0.59548 0.0
C2593 C 0.86414 0.7586 0.60197 0.0
C2594 C 0.87115 0.76491 0.61857 0.0
C2595 C 0.86181 0.77303 0.62873 0.0
H2596 H 0.87138 0.75231 0.59413 0.0
H2597 H 0.78461 0.83345 0.69457 0.0
H2598 H 0.02659 0.84895 0.61449 0.0
H2599 H 0.99813 0.81504 0.62116 0.0
H2600 H 0.00696 0.82977 0.67461 0.0
H2601 H 0.03503 0.86364 0.66795 0.0
H2602 H 0.99922 0.79025 0.66703 0.0
H2603 H 0.97223 0.83455 0.65489 0.0
H2604 H 0.96639 0.85786 0.63734 0.0
H2605 H 0.93725 0.81215 0.59887 0.0
H2606 H 0.94327 0.78868 0.61607 0.0
H2607 H 0.87838 0.72768 0.67833 0.0
H2608 H 0.91091 0.75894 0.67495 0.0
H2609 H 0.93963 0.72491 0.65902 0.0
H2610 H 0.90741 0.69358 0.66365 0.0
H2611 H 0.92967 0.774 0.64757 0.0
H2612 H 0.98878 0.74975 0.66058 0.0
H2613 H 0.99498 0.72761 0.67947 0.0
H2614 H 0.95996 0.73522 0.71878 0.0
H2615 H 0.95345 0.75734 0.69997 0.0
C2616 C 0.02268 0.84472 0.62765 0.0
C2617 C 0.03296 0.85878 0.64073 0.0
C2618 C 0.00639 0.82545 0.63144 0.0
C2619 C 1.00037 0.81995 0.64838 0.0
C2620 C 0.01138 0.83368 0.66147 0.0
C2621 C 0.02738 0.85299 0.65767 0.0
C2622 C 0.98182 0.80045 0.65254 0.0
C2623 C 0.98401 0.78662 0.66271 0.0
C2624 C 0.96195 0.7958 0.64706 0.0
C2625 C 0.95848 0.80996 0.63666 0.0
C2626 C 0.96481 0.82955 0.6426 0.0
C2627 C 0.96142 0.84277 0.63273 0.0
C2628 C 0.95153 0.83652 0.61697 0.0
C2629 C 0.94497 0.817 0.61106 0.0
C2630 C 0.94838 0.80373 0.62085 0.0
C2631 C 0.8918 0.7268 0.67483 0.0
C2632 C 0.89043 0.7081 0.67172 0.0
C2633 C 0.91041 0.74475 0.67264 0.0
C2634 C 0.92797 0.74446 0.66684 0.0
C2635 C 0.92664 0.72573 0.66396 0.0
C2636 C 0.90813 0.70777 0.6665 0.0
C2637 C 0.9469 0.76369 0.66231 0.0
C2638 C 0.94484 0.77748 0.65191 0.0
C2639 C 0.96687 0.76835 0.66765 0.0
C2640 C 0.97039 0.75489 0.67887 0.0
C2641 C 0.98235 0.74662 0.67324 0.0
C2642 C 0.98587 0.73406 0.68389 0.0
C2643 C 0.97772 0.72989 0.70027 0.0
C2644 C 0.96605 0.7383 0.70602 0.0
C2645 C 0.96234 0.75073 0.69536 0.0
H2646 H 0.98052 0.72024 0.70853 0.0
H2647 H 0.94889 0.84677 0.60936 0.0
H2648 H 0.15502 0.1799 0.67446 0.0
H2649 H 0.18936 0.18387 0.67575 0.0
H2650 H 0.19484 0.19191 0.62143 0.0
H2651 H 0.16017 0.18776 0.62009 0.0
H2652 H 0.20569 0.16444 0.63194 0.0
H2653 H 0.22278 0.23136 0.64795 0.0
H2654 H 0.21995 0.2574 0.66425 0.0
H2655 H 0.23403 0.23684 0.71039 0.0
H2656 H 0.23665 0.21048 0.6944 0.0
H2657 H 0.32334 0.21674 0.65303 0.0
H2658 H 0.29155 0.21796 0.64908 0.0
H2659 H 0.256 0.15524 0.66273 0.0
H2660 H 0.28774 0.15392 0.66629 0.0
H2661 H 0.26159 0.21237 0.67025 0.0
H2662 H 0.21072 0.13335 0.64133 0.0
H2663 H 0.21467 0.10814 0.6247 0.0
H2664 H 0.26983 0.15519 0.60239 0.0
H2665 H 0.26609 0.1807 0.61875 0.0
C2666 C 0.16366 0.18282 0.6628 0.0
C2667 C 0.15487 0.18354 0.64716 0.0
C2668 C 0.18334 0.18513 0.66356 0.0
C2669 C 0.1948 0.18823 0.6487 0.0
C2670 C 0.18632 0.18952 0.63308 0.0
C2671 C 0.1666 0.18736 0.63233 0.0
C2672 C 0.21516 0.18918 0.64953 0.0
C2673 C 0.21794 0.17501 0.64025 0.0
C2674 C 0.23127 0.20297 0.66032 0.0
C2675 C 0.22973 0.21882 0.66998 0.0
C2676 C 0.22511 0.23228 0.66159 0.0
C2677 C 0.22357 0.24712 0.67077 0.0
C2678 C 0.22676 0.24874 0.68835 0.0
C2679 C 0.23154 0.23555 0.69678 0.0
C2680 C 0.23307 0.22067 0.68766 0.0
C2681 C 0.30871 0.20325 0.65521 0.0
C2682 C 0.30801 0.18537 0.66031 0.0
C2683 C 0.29056 0.20396 0.65299 0.0
C2684 C 0.27129 0.18668 0.6555 0.0
C2685 C 0.2706 0.16873 0.6605 0.0
C2686 C 0.28876 0.16803 0.66271 0.0
C2687 C 0.252 0.18749 0.65284 0.0
C2688 C 0.24939 0.2019 0.66185 0.0
C2689 C 0.23613 0.17403 0.6417 0.0
C2690 C 0.23818 0.1589 0.63137 0.0
C2691 C 0.22361 0.13832 0.63279 0.0
C2692 C 0.22584 0.12398 0.62344 0.0
C2693 C 0.24253 0.13005 0.61254 0.0
C2694 C 0.25695 0.1505 0.61089 0.0
C2695 C 0.2548 0.1649 0.62021 0.0
H2696 H 0.24426 0.11892 0.60538 0.0
H2697 H 0.22557 0.26025 0.69544 0.0
H2698 H 0.87838 0.00829 0.61218 0.0
H2699 H 0.87066 0.03487 0.61914 0.0
H2700 H 0.81427 0.99121 0.64295 0.0
H2701 H 0.82229 0.96458 0.63655 0.0
H2702 H 0.84105 0.04358 0.61256 0.0
H2703 H 0.80761 0.01278 0.67862 0.0
H2704 H 0.809 0.99063 0.70068 0.0
H2705 H 0.86916 0.005 0.68402 0.0
H2706 H 0.86822 0.02742 0.66203 0.0
H2707 H 0.81101 0.11046 0.64973 0.0
H2708 H 0.80986 0.07958 0.63974 0.0
H2709 H 0.86126 0.09215 0.67238 0.0
H2710 H 0.86241 0.12271 0.68247 0.0
H2711 H 0.83365 0.05369 0.67388 0.0
H2712 H 0.86698 0.10257 0.62933 0.0
H2713 H 0.86933 0.12702 0.60785 0.0
H2714 H 0.81604 0.08051 0.58222 0.0
H2715 H 0.81329 0.05582 0.60361 0.0
C2716 C 0.86431 0.00431 0.61888 0.0
C2717 C 0.85112 0.98435 0.62406 0.0
C2718 C 0.8598 0.01951 0.62268 0.0
C2719 C 0.84202 0.01512 0.63177 0.0
C2720 C 0.82822 0.99501 0.63612 0.0
C2721 C 0.83275 0.97977 0.63234 0.0
C2722 C 0.83893 0.03184 0.63779 0.0
C2723 C 0.83923 0.04569 0.62595 0.0
C2724 C 0.83687 0.03482 0.65528 0.0
C2725 C 0.83771 0.02155 0.66856 0.0
C2726 C 0.82114 0.01123 0.67971 0.0
C2727 C 0.82186 0.99864 0.69219 0.0
C2728 C 0.83913 0.99635 0.6937 0.0
C2729 C 0.85576 0.00672 0.68279 0.0
C2730 C 0.85513 0.01936 0.67031 0.0
C2731 C 0.82196 0.10656 0.65487 0.0
C2732 C 0.8367 0.11903 0.66702 0.0
C2733 C 0.82133 0.08894 0.64909 0.0
C2734 C 0.83557 0.0836 0.65521 0.0
C2735 C 0.85004 0.09587 0.66752 0.0
C2736 C 0.85064 0.11337 0.67333 0.0
C2737 C 0.83587 0.06551 0.64869 0.0
C2738 C 0.83507 0.0514 0.66045 0.0
C2739 C 0.83797 0.06261 0.63118 0.0
C2740 C 0.83981 0.07739 0.61816 0.0
C2741 C 0.85572 0.09758 0.61915 0.0
C2742 C 0.85715 0.11148 0.60696 0.0
C2743 C 0.84286 0.10532 0.59365 0.0
C2744 C 0.82714 0.08525 0.59249 0.0
C2745 C 0.82564 0.07129 0.60463 0.0
H2746 H 0.84395 0.11607 0.58423 0.0
H2747 H 0.83964 0.98658 0.70336 0.0
H2748 H 0.54609 0.34487 0.733 0.0
H2749 H 0.51129 0.31682 0.72815 0.0
H2750 H 0.4943 0.35734 0.70481 0.0
H2751 H 0.52931 0.38553 0.70948 0.0
H2752 H 0.47199 0.30712 0.73662 0.0
H2753 H 0.46472 0.33239 0.66956 0.0
H2754 H 0.48683 0.35398 0.64648 0.0
H2755 H 0.53546 0.34383 0.66305 0.0
H2756 H 0.51354 0.32197 0.68605 0.0
H2757 H 0.37343 0.23419 0.70209 0.0
H2758 H 0.40295 0.26666 0.71052 0.0
H2759 H 0.44277 0.25368 0.6803 0.0
H2760 H 0.41361 0.22144 0.67191 0.0
H2761 H 0.4517 0.29193 0.67592 0.0
H2762 H 0.4378 0.24631 0.72271 0.0
H2763 H 0.41563 0.22311 0.7449 0.0
H2764 H 0.41148 0.27128 0.76899 0.0
H2765 H 0.4329 0.29463 0.74651 0.0
C2766 C 0.53487 0.34785 0.727 0.0
C2767 C 0.54049 0.36736 0.72143 0.0
C2768 C 0.51494 0.33183 0.72436 0.0
C2769 C 0.50023 0.33492 0.71596 0.0
C2770 C 0.50545 0.35459 0.71121 0.0
C2771 C 0.52542 0.37069 0.71395 0.0
C2772 C 0.48022 0.31725 0.71085 0.0
C2773 C 0.46742 0.3039 0.72337 0.0
C2774 C 0.47435 0.31288 0.69354 0.0
C2775 C 0.48758 0.32578 0.67964 0.0
C2776 C 0.48012 0.33474 0.66824 0.0
C2777 C 0.49261 0.34702 0.65517 0.0
C2778 C 0.51256 0.35034 0.65334 0.0
C2779 C 0.52003 0.34131 0.66452 0.0
C2780 C 0.50759 0.329 0.67758 0.0
C2781 C 0.38845 0.2383 0.69716 0.0
C2782 C 0.39105 0.22526 0.68614 0.0
C2783 C 0.40531 0.25686 0.70201 0.0
C2784 C 0.4251 0.26261 0.69605 0.0
C2785 C 0.42765 0.24969 0.68494 0.0
C2786 C 0.41088 0.23121 0.68011 0.0
C2787 C 0.44341 0.28174 0.70167 0.0
C2788 C 0.45598 0.29534 0.68921 0.0
C2789 C 0.44915 0.28612 0.71902 0.0
C2790 C 0.43677 0.27219 0.73279 0.0
C2791 C 0.43204 0.25194 0.73265 0.0
C2792 C 0.41961 0.23875 0.74529 0.0
C2793 C 0.41221 0.24572 0.75838 0.0
C2794 C 0.41721 0.2659 0.75883 0.0
C2795 C 0.42943 0.2791 0.74611 0.0
H2796 H 0.40261 0.23549 0.76816 0.0
H2797 H 0.52222 0.35986 0.64323 0.0
H2798 H 0.65732 0.1855 0.69174 0.0
H2799 H 0.68659 0.18084 0.68734 0.0
H2800 H 0.66597 0.13725 0.72778 0.0
H2801 H 0.63716 0.14308 0.73316 0.0
H2802 H 0.70483 0.15962 0.73107 0.0
H2803 H 0.66328 0.12494 0.68323 0.0
H2804 H 0.64184 0.11906 0.65769 0.0
H2805 H 0.69281 0.16793 0.6324 0.0
H2806 H 0.71449 0.17432 0.65788 0.0
H2807 H 0.77596 0.12707 0.70191 0.0
H2808 H 0.74322 0.12648 0.70599 0.0
H2809 H 0.77075 0.1875 0.6879 0.0
H2810 H 0.80369 0.18852 0.68468 0.0
H2811 H 0.72733 0.15294 0.67341 0.0
H2812 H 0.76758 0.18786 0.72368 0.0
H2813 H 0.78847 0.1905 0.74885 0.0
H2814 H 0.73801 0.13666 0.76921 0.0
H2815 H 0.71698 0.13341 0.74391 0.0
C2816 C 0.65896 0.17498 0.69985 0.0
C2817 C 0.64488 0.1649 0.71301 0.0
C2818 C 0.67566 0.17206 0.69709 0.0
C2819 C 0.67855 0.15845 0.70702 0.0
C2820 C 0.66419 0.14785 0.71988 0.0
C2821 C 0.64753 0.15102 0.72284 0.0
C2822 C 0.69706 0.15615 0.70436 0.0
C2823 C 0.70945 0.1578 0.71845 0.0
C2824 C 0.70348 0.15395 0.6879 0.0
C2825 C 0.69046 0.15023 0.67255 0.0
C2826 C 0.66988 0.13455 0.67228 0.0
C2827 C 0.65768 0.13111 0.6578 0.0
C2828 C 0.66594 0.14315 0.64345 0.0
C2829 C 0.68642 0.15863 0.64353 0.0
C2830 C 0.69868 0.16216 0.65799 0.0
C2831 C 0.77495 0.1403 0.69871 0.0
C2832 C 0.79223 0.15763 0.69247 0.0
C2833 C 0.75628 0.13994 0.70105 0.0
C2834 C 0.75454 0.15689 0.69715 0.0
C2835 C 0.77173 0.1742 0.69086 0.0
C2836 C 0.79051 0.1747 0.68889 0.0
C2837 C 0.73491 0.15674 0.7 0.0
C2838 C 0.72243 0.1546 0.68596 0.0
C2839 C 0.72825 0.15812 0.71647 0.0
C2840 C 0.7408 0.16023 0.73178 0.0
C2841 C 0.76102 0.17643 0.73341 0.0
C2842 C 0.77288 0.17807 0.74772 0.0
C2843 C 0.7646 0.16373 0.7606 0.0
C2844 C 0.74442 0.14774 0.75921 0.0
C2845 C 0.73253 0.14598 0.74487 0.0
H2846 H 0.77379 0.16504 0.77169 0.0
H2847 H 0.65648 0.14045 0.63224 0.0
H2848 H 0.82425 0.47987 0.75143 0.0
H2849 H 0.82967 0.51366 0.7458 0.0
H2850 H 0.85631 0.51376 0.69726 0.0
H2851 H 0.85166 0.48031 0.70331 0.0
H2852 H 0.87599 0.5499 0.70999 0.0
H2853 H 0.80469 0.50126 0.70202 0.0
H2854 H 0.77043 0.47341 0.70971 0.0
H2855 H 0.76721 0.50894 0.75061 0.0
H2856 H 0.80158 0.53692 0.7433 0.0
H2857 H 0.85234 0.61851 0.6671 0.0
H2858 H 0.8535 0.5886 0.67628 0.0
H2859 H 0.84084 0.59858 0.72769 0.0
H2860 H 0.83974 0.62856 0.71853 0.0
H2861 H 0.8149 0.55844 0.71451 0.0
H2862 H 0.88636 0.60808 0.72038 0.0
H2863 H 0.91961 0.63583 0.7106 0.0
H2864 H 0.92122 0.59785 0.6711 0.0
H2865 H 0.88778 0.56994 0.68048 0.0
C2866 C 0.83165 0.48738 0.73974 0.0
C2867 C 0.83764 0.47771 0.72781 0.0
C2868 C 0.83456 0.50655 0.73644 0.0
C2869 C 0.84298 0.51612 0.72091 0.0
C2870 C 0.84974 0.50672 0.70929 0.0
C2871 C 0.84712 0.48766 0.71273 0.0
C2872 C 0.84389 0.53544 0.71647 0.0
C2873 C 0.86256 0.55166 0.71084 0.0
C2874 C 0.82646 0.53794 0.71775 0.0
C2875 C 0.80582 0.52109 0.72224 0.0
C2876 C 0.79676 0.50307 0.71275 0.0
C2877 C 0.7773 0.48727 0.71702 0.0
C2878 C 0.76668 0.48938 0.73068 0.0
C2879 C 0.77549 0.5073 0.74007 0.0
C2880 C 0.79494 0.52314 0.73586 0.0
C2881 C 0.84978 0.61433 0.6803 0.0
C2882 C 0.84583 0.62581 0.69203 0.0
C2883 C 0.85062 0.59734 0.68559 0.0
C2884 C 0.84729 0.59142 0.70267 0.0
C2885 C 0.8435 0.60294 0.71445 0.0
C2886 C 0.843 0.62012 0.70921 0.0
C2887 C 0.84692 0.57273 0.70809 0.0
C2888 C 0.82832 0.55664 0.71382 0.0
C2889 C 0.8643 0.57027 0.70664 0.0
C2890 C 0.88447 0.58698 0.70104 0.0
C2891 C 0.89371 0.60569 0.70951 0.0
C2892 C 0.91261 0.62144 0.70406 0.0
C2893 C 0.9225 0.61862 0.69021 0.0
C2894 C 0.91353 0.60002 0.68181 0.0
C2895 C 0.89461 0.58422 0.68721 0.0
H2896 H 0.93713 0.63084 0.68601 0.0
H2897 H 0.7516 0.47715 0.73395 0.0
H2898 H 0.46567 0.89536 0.25162 0.0
H2899 H 0.47859 0.91326 0.22478 0.0
H2900 H 0.41641 0.88975 0.20672 0.0
H2901 H 0.40341 0.87123 0.23323 0.0
H2902 H 0.44032 0.88958 0.18153 0.0
H2903 H 0.44392 0.93754 0.22286 0.0
H2904 H 0.45381 0.95615 0.25008 0.0
H2905 H 0.51758 0.97997 0.2384 0.0
H2906 H 0.50805 0.96128 0.2112 0.0
H2907 H 0.46211 0.96291 0.11628 0.0
H2908 H 0.44904 0.93993 0.14052 0.0
H2909 H 0.51083 0.96478 0.16005 0.0
H2910 H 0.52383 0.98792 0.13607 0.0
H2911 H 0.48676 0.96359 0.18425 0.0
H2912 H 0.48284 0.91606 0.14212 0.0
H2913 H 0.47242 0.89775 0.11475 0.0
H2914 H 0.4089 0.87352 0.12755 0.0
H2915 H 0.41893 0.89185 0.1549 0.0
C2916 C 0.45474 0.89377 0.24186 0.0
C2917 C 0.43348 0.88202 0.24471 0.0
C2918 C 0.46215 0.90415 0.22655 0.0
C2919 C 0.44848 0.90312 0.21379 0.0
C2920 C 0.42728 0.89088 0.21637 0.0
C2921 C 0.41986 0.88047 0.23164 0.0
C2922 C 0.45622 0.9154 0.19806 0.0
C2923 C 0.45033 0.90579 0.18211 0.0
C2924 C 0.4695 0.93652 0.19876 0.0
C2925 C 0.47527 0.94785 0.21508 0.0
C2926 C 0.46005 0.94663 0.22615 0.0
C2927 C 0.46559 0.95721 0.24157 0.0
C2928 C 0.48631 0.96919 0.24599 0.0
C2929 C 0.50153 0.97066 0.23497 0.0
C2930 C 0.49607 0.96009 0.21955 0.0
C2931 C 0.4729 0.96321 0.12561 0.0
C2932 C 0.49397 0.97731 0.12433 0.0
C2933 C 0.46543 0.95005 0.13947 0.0
C2934 C 0.47895 0.95052 0.15215 0.0
C2935 C 0.50006 0.96417 0.15053 0.0
C2936 C 0.50748 0.97741 0.13682 0.0
C2937 C 0.47113 0.93779 0.16765 0.0
C2938 C 0.47689 0.94735 0.18361 0.0
C2939 C 0.45771 0.91666 0.1669 0.0
C2940 C 0.45165 0.90548 0.15051 0.0
C2941 C 0.46665 0.90693 0.13905 0.0
C2942 C 0.46081 0.89652 0.12355 0.0
C2943 C 0.44001 0.88452 0.11939 0.0
C2944 C 0.425 0.88284 0.13076 0.0
C2945 C 0.43076 0.8932 0.14628 0.0
H2946 H 0.43554 0.8765 0.10737 0.0
H2947 H 0.49057 0.97737 0.25793 0.0
H2948 H 0.15297 0.5766 0.22897 0.0
H2949 H 0.12984 0.57132 0.20511 0.0
H2950 H 0.07924 0.52471 0.23314 0.0
H2951 H 0.1025 0.52969 0.25693 0.0
H2952 H 0.07769 0.51239 0.20238 0.0
H2953 H 0.0848 0.57228 0.22708 0.0
H2954 H 0.10303 0.60684 0.23874 0.0
H2955 H 0.13148 0.62945 0.19043 0.0
H2956 H 0.11365 0.59497 0.17853 0.0
H2957 H 0.01489 0.54283 0.14165 0.0
H2958 H 0.03576 0.54879 0.16716 0.0
H2959 H 0.06407 0.51752 0.14422 0.0
H2960 H 0.04227 0.51027 0.11914 0.0
H2961 H 0.07432 0.56847 0.17408 0.0
H2962 H 0.07659 0.49375 0.17351 0.0
H2963 H 0.05483 0.45841 0.16427 0.0
H2964 H 1.001 0.46411 0.16877 0.0
H2965 H 0.02239 0.49938 0.17825 0.0
C2966 C 0.13686 0.5654 0.23011 0.0
C2967 C 0.1295 0.55362 0.24483 0.0
C2968 C 0.12364 0.5624 0.21647 0.0
C2969 C 0.10271 0.54778 0.21738 0.0
C2970 C 0.09532 0.53606 0.23212 0.0
C2971 C 0.1086 0.53892 0.2457 0.0
C2972 C 0.0887 0.5443 0.20274 0.0
C2973 C 0.07694 0.52466 0.19622 0.0
C2974 C 0.08733 0.56021 0.19488 0.0
C2975 C 0.09802 0.581 0.20195 0.0
C2976 C 0.09506 0.5846 0.21897 0.0
C2977 C 0.1053 0.60418 0.22562 0.0
C2978 C 0.11844 0.62032 0.21534 0.0
C2979 C 0.12132 0.61692 0.19838 0.0
C2980 C 0.11113 0.59737 0.19167 0.0
C2981 C 0.02532 0.53693 0.1421 0.0
C2982 C 0.02665 0.52584 0.12834 0.0
C2983 C 0.03745 0.54058 0.15665 0.0
C2984 C 0.0513 0.53335 0.15777 0.0
C2985 C 0.0532 0.5229 0.14384 0.0
C2986 C 0.04089 0.519 0.12937 0.0
C2987 C 0.06359 0.5366 0.17356 0.0
C2988 C 0.07505 0.5562 0.18026 0.0
C2989 C 0.06416 0.52055 0.18194 0.0
C2990 C 0.05113 0.49927 0.17643 0.0
C2991 C 0.0601 0.48743 0.17259 0.0
C2992 C 0.04784 0.46742 0.1673 0.0
C2993 C 0.02656 0.45904 0.16588 0.0
C2994 C 0.01749 0.47064 0.16981 0.0
C2995 C 0.02968 0.49065 0.17513 0.0
H2996 H 0.01709 0.44355 0.16177 0.0
H2997 H 0.12636 0.63547 0.22052 0.0
H2998 H 0.43941 0.53884 0.25595 0.0
H2999 H 0.44475 0.52443 0.22977 0.0
H3000 H 0.47278 0.58296 0.20633 0.0
H3001 H 0.4678 0.59742 0.23247 0.0
H3002 H 0.44391 0.54957 0.18478 0.0
H3003 H 0.50327 0.56993 0.22162 0.0
H3004 H 0.52016 0.56985 0.24854 0.0
H3005 H 0.49447 0.50579 0.24445 0.0
H3006 H 0.47716 0.50546 0.21761 0.0
H3007 H 0.50378 0.54524 0.11727 0.0
H3008 H 0.48929 0.55299 0.14199 0.0
H3009 H 0.47689 0.49707 0.1652 0.0
H3010 H 0.49165 0.48943 0.1406 0.0
H3011 H 0.4944 0.5258 0.18735 0.0
H3012 H 0.43771 0.50471 0.14964 0.0
H3013 H 0.41937 0.50323 0.12313 0.0
H3014 H 0.43741 0.56568 0.1289 0.0
H3015 H 0.45611 0.56761 0.15534 0.0
C3016 C 0.44651 0.54852 0.24512 0.0
C3017 C 0.45336 0.56923 0.24622 0.0
C3018 C 0.44956 0.54032 0.23023 0.0
C3019 C 0.45919 0.55267 0.21616 0.0
C3020 C 0.46528 0.57319 0.21703 0.0
C3021 C 0.46256 0.58143 0.23198 0.0
C3022 C 0.46418 0.5446 0.20088 0.0
C3023 C 0.45503 0.54446 0.18526 0.0
C3024 C 0.47823 0.53742 0.20166 0.0
C3025 C 0.48873 0.53764 0.21773 0.0
C3026 C 0.50107 0.5558 0.22654 0.0
C3027 C 0.51075 0.55584 0.24177 0.0
C3028 C 0.50834 0.53782 0.24823 0.0
C3029 C 0.49629 0.51973 0.23945 0.0
C3030 C 0.48655 0.51961 0.22423 0.0
C3031 C 0.49765 0.53445 0.12752 0.0
C3032 C 0.49892 0.51676 0.12701 0.0
C3033 C 0.48932 0.53887 0.14165 0.0
C3034 C 0.4818 0.52554 0.15545 0.0
C3035 C 0.48263 0.50763 0.15476 0.0
C3036 C 0.4911 0.5033 0.14071 0.0
C3037 C 0.47429 0.53087 0.17101 0.0
C3038 C 0.48304 0.5306 0.18676 0.0
C3039 C 0.45965 0.53739 0.17034 0.0
C3040 C 0.44847 0.53634 0.15441 0.0
C3041 C 0.43792 0.51817 0.14518 0.0
C3042 C 0.42743 0.51724 0.13018 0.0
C3043 C 0.42726 0.53436 0.12431 0.0
C3044 C 0.43757 0.55243 0.13345 0.0
C3045 C 0.44809 0.55345 0.14846 0.0
H3046 H 0.41912 0.5336 0.11269 0.0
H3047 H 0.51585 0.53787 0.26002 0.0
H3048 H 0.91965 0.4335 0.76936 0.0
H3049 H 0.93927 0.44451 0.79589 0.0
H3050 H 0.89116 0.45147 0.81887 0.0
H3051 H 0.87105 0.43987 0.79245 0.0
H3052 H 0.93303 0.48339 0.82675 0.0
H3053 H 0.89074 0.41126 0.82787 0.0
H3054 H 0.87633 0.37694 0.81608 0.0
H3055 H 0.93684 0.38441 0.81351 0.0
H3056 H 0.95166 0.41892 0.82504 0.0
H3057 H 0.97332 0.48972 0.91013 0.0
H3058 H 0.95014 0.48056 0.88576 0.0
H3059 H 0.98428 0.45693 0.85998 0.0
H3060 H 0.00643 0.46449 0.88478 0.0
H3061 H 0.94615 0.43287 0.85474 0.0
H3062 H 0.98909 0.50527 0.85119 0.0
H3063 H 1.00455 0.54013 0.86203 0.0
H3064 H 0.94448 0.53289 0.8684 0.0
H3065 H 0.92866 0.49792 0.85773 0.0
C3066 C 0.91321 0.43739 0.78003 0.0
C3067 C 0.89364 0.43553 0.77884 0.0
C3068 C 0.9245 0.44378 0.79515 0.0
C3069 C 0.91654 0.44857 0.80936 0.0
C3070 C 0.89754 0.44783 0.808 0.0
C3071 C 0.88612 0.44127 0.79288 0.0
C3072 C 0.92755 0.45302 0.82587 0.0
C3073 C 0.93568 0.47231 0.83305 0.0
C3074 C 0.93122 0.4386 0.83388 0.0
C3075 C 0.92232 0.41774 0.82719 0.0
C3076 C 0.90099 0.40564 0.82468 0.0
C3077 C 0.89275 0.38615 0.81805 0.0
C3078 C 0.90567 0.37852 0.81401 0.0
C3079 C 0.92685 0.39035 0.81664 0.0
C3080 C 0.93518 0.40987 0.82323 0.0
C3081 C 0.97574 0.48227 0.89942 0.0
C3082 C 0.99192 0.47797 0.89948 0.0
C3083 C 0.96261 0.47732 0.88533 0.0
C3084 C 0.96566 0.46839 0.87084 0.0
C3085 C 0.98164 0.4639 0.87095 0.0
C3086 C 0.99451 0.4685 0.88511 0.0
C3087 C 0.95223 0.46352 0.85554 0.0
C3088 C 0.9435 0.44403 0.84857 0.0
C3089 C 0.94821 0.47784 0.84766 0.0
C3090 C 0.9577 0.49894 0.85382 0.0
C3091 C 0.97918 0.5111 0.85498 0.0
C3092 C 0.98801 0.53087 0.86108 0.0
C3093 C 0.9755 0.5387 0.86594 0.0
C3094 C 0.95414 0.5268 0.86464 0.0
C3095 C 0.94524 0.50701 0.85855 0.0
H3096 H 0.98236 0.55401 0.87068 0.0
H3097 H 0.89925 0.36342 0.80888 0.0
H3098 H 0.58331 0.48781 0.7659 0.0
H3099 H 0.57274 0.4941 0.79352 0.0
H3100 H 0.57733 0.44473 0.81501 0.0
H3101 H 0.5876 0.43816 0.78724 0.0
H3102 H 0.54487 0.44627 0.82819 0.0
H3103 H 0.61629 0.49242 0.82006 0.0
H3104 H 0.64684 0.51784 0.80478 0.0
H3105 H 0.623 0.55843 0.80552 0.0
H3106 H 0.59213 0.53313 0.82057 0.0
H3107 H 0.55292 0.48342 0.91413 0.0
H3108 H 0.55697 0.46993 0.88698 0.0
H3109 H 0.55616 0.51881 0.8605 0.0
H3110 H 0.55275 0.53255 0.88757 0.0
H3111 H 0.58757 0.51572 0.85079 0.0
H3112 H 0.51517 0.46795 0.85902 0.0
H3113 H 0.48561 0.4421 0.87501 0.0
H3114 H 0.51269 0.40424 0.87538 0.0
H3115 H 0.54254 0.42997 0.85956 0.0
C3116 C 0.58191 0.47821 0.77649 0.0
C3117 C 0.58649 0.46264 0.77448 0.0
C3118 C 0.57587 0.4818 0.79226 0.0
C3119 C 0.57463 0.47013 0.80643 0.0
C3120 C 0.57823 0.45395 0.80428 0.0
C3121 C 0.5841 0.45022 0.78842 0.0
C3122 C 0.57084 0.47571 0.8236 0.0
C3123 C 0.55431 0.46139 0.83324 0.0
C3124 C 0.58315 0.49544 0.83019 0.0
C3125 C 0.60182 0.51081 0.82132 0.0
C3126 C 0.6175 0.50672 0.81687 0.0
C3127 C 0.63487 0.52111 0.80825 0.0
C3128 C 0.63683 0.53972 0.80415 0.0
C3129 C 0.62145 0.544 0.80869 0.0
C3130 C 0.60401 0.52965 0.81728 0.0
C3131 C 0.55323 0.49101 0.90244 0.0
C3132 C 0.55258 0.50902 0.90288 0.0
C3133 C 0.55551 0.4833 0.88694 0.0
C3134 C 0.5568 0.4933 0.87164 0.0
C3135 C 0.55532 0.51087 0.87211 0.0
C3136 C 0.55333 0.51869 0.88755 0.0
C3137 C 0.56114 0.48651 0.85522 0.0
C3138 C 0.578 0.5006 0.84577 0.0
C3139 C 0.54925 0.46654 0.84896 0.0
C3140 C 0.53117 0.45096 0.85824 0.0
C3141 C 0.51487 0.45416 0.8626 0.0
C3142 C 0.49806 0.43952 0.87162 0.0
C3143 C 0.4973 0.42157 0.87625 0.0
C3144 C 0.51331 0.41817 0.8718 0.0
C3145 C 0.53016 0.43276 0.86279 0.0
H3146 H 0.48429 0.41026 0.88325 0.0
H3147 H 0.6503 0.55084 0.79747 0.0
H3148 H 0.51726 0.08636 0.76179 0.0
H3149 H 0.51088 0.06973 0.78934 0.0
H3150 H 0.56935 0.11706 0.80788 0.0
H3151 H 0.57561 0.13424 0.78055 0.0
H3152 H 0.56029 0.07732 0.81717 0.0
H3153 H 0.52937 0.11906 0.8193 0.0
H3154 H 0.50743 0.13227 0.8088 0.0
H3155 H 0.45446 0.07306 0.81136 0.0
H3156 H 0.47616 0.05943 0.82163 0.0
H3157 H 0.53679 0.0445 0.90308 0.0
H3158 H 0.54742 0.06613 0.87796 0.0
H3159 H 0.4868 0.0302 0.85625 0.0
H3160 H 0.47583 0.00935 0.88157 0.0
H3161 H 0.49946 0.06741 0.8496 0.0
H3162 H 0.52947 0.02477 0.8449 0.0
H3163 H 0.55066 0.01018 0.85417 0.0
H3164 H 0.6042 0.06914 0.85537 0.0
H3165 H 0.58326 0.08411 0.8463 0.0
C3166 C 0.52878 0.09333 0.77171 0.0
C3167 C 0.54689 0.1118 0.7689 0.0
C3168 C 0.52513 0.08373 0.78744 0.0
C3169 C 0.53954 0.09227 0.80072 0.0
C3170 C 0.55802 0.1102 0.7978 0.0
C3171 C 0.56162 0.11995 0.7821 0.0
C3172 C 0.53486 0.0828 0.8178 0.0
C3173 C 0.54719 0.07541 0.82441 0.0
C3174 C 0.51755 0.08001 0.8271 0.0
C3175 C 0.50443 0.0882 0.8211 0.0
C3176 C 0.51307 0.10883 0.8175 0.0
C3177 C 0.50067 0.11639 0.81161 0.0
C3178 C 0.47957 0.1035 0.80938 0.0
C3179 C 0.47082 0.08302 0.81308 0.0
C3180 C 0.48316 0.07537 0.81895 0.0
C3181 C 0.52563 0.04143 0.89309 0.0
C3182 C 0.50551 0.02497 0.8943 0.0
C3183 C 0.5318 0.05367 0.87861 0.0
C3184 C 0.51806 0.04958 0.86497 0.0
C3185 C 0.49778 0.03365 0.86648 0.0
C3186 C 0.49157 0.02157 0.88095 0.0
C3187 C 0.52465 0.06148 0.84893 0.0
C3188 C 0.51268 0.0694 0.84249 0.0
C3189 C 0.54215 0.06454 0.83971 0.0
C3190 C 0.55476 0.05557 0.84512 0.0
C3191 C 0.54574 0.03463 0.84727 0.0
C3192 C 0.55771 0.0263 0.85246 0.0
C3193 C 0.57876 0.03873 0.85541 0.0
C3194 C 0.58789 0.05953 0.85312 0.0
C3195 C 0.57598 0.06795 0.84794 0.0
H3196 H 0.588 0.03225 0.85943 0.0
H3197 H 0.47 0.10939 0.80482 0.0
H3198 H 0.10896 0.20121 0.57698 0.0
H3199 H 0.12055 0.21718 0.54917 0.0
H3200 H 0.11292 0.26677 0.56576 0.0
H3201 H 0.10138 0.25094 0.59347 0.0
H3202 H 0.09596 0.25388 0.53523 0.0
H3203 H 0.16074 0.27086 0.56189 0.0
H3204 H 0.18553 0.26354 0.57623 0.0
H3205 H 0.1841 0.22801 0.53337 0.0
H3206 H 0.15907 0.23491 0.51887 0.0
H3207 H 0.15373 0.33199 0.47773 0.0
H3208 H 0.13989 0.30984 0.50226 0.0
H3209 H 0.14786 0.26454 0.47633 0.0
H3210 H 0.162 0.28689 0.45166 0.0
H3211 H 0.16278 0.27105 0.50929 0.0
H3212 H 0.10048 0.25678 0.48153 0.0
H3213 H 0.07592 0.26436 0.46714 0.0
H3214 H 0.07263 0.29471 0.51196 0.0
H3215 H 0.09741 0.28756 0.52655 0.0
C3216 C 0.11005 0.21566 0.57477 0.0
C3217 C 0.10417 0.22476 0.58744 0.0
C3218 C 0.11663 0.22476 0.55885 0.0
C3219 C 0.11764 0.24322 0.55533 0.0
C3220 C 0.11213 0.25246 0.56808 0.0
C3221 C 0.10552 0.24338 0.58393 0.0
C3222 C 0.12393 0.25284 0.53832 0.0
C3223 C 0.11066 0.25778 0.52965 0.0
C3224 C 0.14278 0.25732 0.53069 0.0
C3225 C 0.15785 0.25321 0.53938 0.0
C3226 C 0.16558 0.26135 0.55559 0.0
C3227 C 0.1797 0.2573 0.56373 0.0
C3228 C 0.18633 0.24527 0.55574 0.0
C3229 C 0.17891 0.2373 0.53956 0.0
C3230 C 0.16477 0.24128 0.53137 0.0
C3231 C 0.15245 0.31728 0.4772 0.0
C3232 C 0.159 0.31121 0.46277 0.0
C3233 C 0.14442 0.30457 0.4912 0.0
C3234 C 0.14272 0.28546 0.49112 0.0
C3235 C 0.149 0.27921 0.47666 0.0
C3236 C 0.15692 0.2919 0.46253 0.0
C3237 C 0.13502 0.27252 0.50646 0.0
C3238 C 0.14799 0.26693 0.5148 0.0
C3239 C 0.11588 0.26742 0.51381 0.0
C3240 C 0.10094 0.27175 0.50509 0.0
C3241 C 0.09465 0.26521 0.48828 0.0
C3242 C 0.08067 0.2694 0.48009 0.0
C3243 C 0.07275 0.28005 0.48862 0.0
C3244 C 0.07878 0.28648 0.50537 0.0
C3245 C 0.09278 0.28233 0.51361 0.0
H3246 H 0.06192 0.28328 0.48226 0.0
H3247 H 0.19727 0.24215 0.56206 0.0
H3248 H 0.80036 0.86581 0.56215 0.0
H3249 H 0.77817 0.86027 0.53756 0.0
H3250 H 0.76133 0.90223 0.5582 0.0
H3251 H 0.78316 0.90746 0.58315 0.0
H3252 H 0.72805 0.86825 0.54593 0.0
H3253 H 0.79498 0.91625 0.52604 0.0
H3254 H 0.83192 0.93001 0.52071 0.0
H3255 H 0.81825 0.87889 0.48921 0.0
H3256 H 0.78122 0.86466 0.49455 0.0
H3257 H 0.68155 0.87643 0.46957 0.0
H3258 H 0.70373 0.88397 0.49456 0.0
H3259 H 0.72375 0.84353 0.47609 0.0
H3260 H 0.70153 0.83583 0.45111 0.0
H3261 H 0.7557 0.87831 0.48741 0.0
H3262 H 0.689 0.82972 0.50812 0.0
H3263 H 0.65204 0.81575 0.51351 0.0
H3264 H 0.6653 0.86787 0.54346 0.0
H3265 H 0.70234 0.88229 0.53805 0.0
C3266 C 0.79178 0.87372 0.56156 0.0
C3267 C 0.79347 0.88704 0.57462 0.0
C3268 C 0.77926 0.87069 0.54741 0.0
C3269 C 0.76828 0.88101 0.54595 0.0
C3270 C 0.76974 0.89417 0.55904 0.0
C3271 C 0.78231 0.89724 0.57322 0.0
C3272 C 0.75517 0.87789 0.5308 0.0
C3273 C 0.73415 0.87076 0.53314 0.0
C3274 C 0.76307 0.88075 0.51411 0.0
C3275 C 0.78533 0.8893 0.51083 0.0
C3276 C 0.79986 0.90786 0.51809 0.0
C3277 C 0.82081 0.91576 0.51505 0.0
C3278 C 0.82743 0.90531 0.50466 0.0
C3279 C 0.8131 0.88696 0.49727 0.0
C3280 C 0.79213 0.87898 0.50028 0.0
C3281 C 0.69052 0.86899 0.47091 0.0
C3282 C 0.6897 0.85546 0.45838 0.0
C3283 C 0.70322 0.87335 0.48518 0.0
C3284 C 0.71524 0.86416 0.48728 0.0
C3285 C 0.71463 0.85082 0.47472 0.0
C3286 C 0.70196 0.84648 0.46043 0.0
C3287 C 0.72854 0.86851 0.50252 0.0
C3288 C 0.74962 0.87588 0.5002 0.0
C3289 C 0.72069 0.86585 0.51922 0.0
C3290 C 0.69842 0.85718 0.52253 0.0
C3291 C 0.68402 0.83828 0.51574 0.0
C3292 C 0.66306 0.83026 0.51882 0.0
C3293 C 0.65632 0.84094 0.52878 0.0
C3294 C 0.67054 0.85963 0.53573 0.0
C3295 C 0.69152 0.86773 0.53267 0.0
H3296 H 0.64008 0.83471 0.53116 0.0
H3297 H 0.84366 0.91146 0.50232 0.0
H3298 H 0.15353 0.90386 0.58833 0.0
H3299 H 0.1603 0.89212 0.56156 0.0
H3300 H 0.10296 0.88303 0.541 0.0
H3301 H 0.09624 0.89526 0.56774 0.0
H3302 H 0.11281 0.85171 0.53249 0.0
H3303 H 0.14243 0.92353 0.53022 0.0
H3304 H 0.16297 0.9582 0.54131 0.0
H3305 H 0.21688 0.95226 0.54202 0.0
H3306 H 0.19657 0.91741 0.53121 0.0
H3307 H 0.14391 0.84373 0.4483 0.0
H3308 H 0.13063 0.85381 0.4725 0.0
H3309 H 0.18913 0.87728 0.49812 0.0
H3310 H 0.20277 0.86826 0.47375 0.0
H3311 H 0.1754 0.9021 0.50242 0.0
H3312 H 0.1463 0.83014 0.50752 0.0
H3313 H 0.12634 0.79478 0.49789 0.0
H3314 H 0.07238 0.80026 0.49284 0.0
H3315 H 0.09211 0.83576 0.50224 0.0
C3316 C 0.14229 0.8993 0.57815 0.0
C3317 C 0.12449 0.9008 0.58009 0.0
C3318 C 0.14615 0.89251 0.56289 0.0
C3319 C 0.13227 0.887 0.54924 0.0
C3320 C 0.11387 0.88727 0.5514 0.0
C3321 C 0.11003 0.89419 0.5667 0.0
C3322 C 0.13785 0.8823 0.53246 0.0
C3323 C 0.12627 0.86278 0.52572 0.0
C3324 C 0.15559 0.8967 0.52381 0.0
C3325 C 0.16794 0.9178 0.53002 0.0
C3326 C 0.15864 0.92956 0.53285 0.0
C3327 C 0.17024 0.94925 0.53908 0.0
C3328 C 0.19121 0.95742 0.5424 0.0
C3329 C 0.20063 0.94592 0.53945 0.0
C3330 C 0.18908 0.9262 0.53326 0.0
C3331 C 0.15404 0.8513 0.45898 0.0
C3332 C 0.17438 0.85499 0.45911 0.0
C3333 C 0.14634 0.85685 0.47291 0.0
C3334 C 0.15876 0.86601 0.4873 0.0
C3335 C 0.17919 0.87014 0.48724 0.0
C3336 C 0.18691 0.86475 0.47333 0.0
C3337 C 0.15068 0.87128 0.50254 0.0
C3338 C 0.16178 0.891 0.50902 0.0
C3339 C 0.13261 0.85699 0.51098 0.0
C3340 C 0.12073 0.83566 0.50538 0.0
C3341 C 0.13021 0.82385 0.50423 0.0
C3342 C 0.11894 0.80377 0.49884 0.0
C3343 C 0.09812 0.7953 0.49471 0.0
C3344 C 0.08852 0.80686 0.49601 0.0
C3345 C 0.09973 0.82695 0.50138 0.0
H3346 H 0.08942 0.77975 0.49054 0.0
H3347 H 0.20016 0.97266 0.54723 0.0
H3348 H 0.54686 0.78147 0.12236 0.0
H3349 H 0.56921 0.79489 0.14737 0.0
H3350 H 0.61582 0.78763 0.12195 0.0
H3351 H 0.59409 0.77515 0.09656 0.0
H3352 H 0.60055 0.76689 0.15483 0.0
H3353 H 0.62703 0.83191 0.12811 0.0
H3354 H 0.62399 0.85952 0.11502 0.0
H3355 H 0.59743 0.86676 0.16083 0.0
H3356 H 0.60004 0.83897 0.17412 0.0
H3357 H 0.68034 0.80368 0.21404 0.0
H3358 H 0.66012 0.798 0.18834 0.0
H3359 H 0.62667 0.82338 0.21255 0.0
H3360 H 0.648 0.83058 0.23805 0.0
H3361 H 0.63346 0.83509 0.18092 0.0
H3362 H 0.60614 0.77162 0.20818 0.0
H3363 H 0.60659 0.74313 0.22227 0.0
H3364 H 0.63064 0.73125 0.17704 0.0
H3365 H 0.63061 0.75986 0.16275 0.0
C3366 C 0.56211 0.78332 0.12183 0.0
C3367 C 0.56857 0.777 0.10746 0.0
C3368 C 0.5748 0.79088 0.1362 0.0
C3369 C 0.59405 0.7921 0.13648 0.0
C3370 C 0.60093 0.78667 0.12196 0.0
C3371 C 0.58842 0.77942 0.10751 0.0
C3372 C 0.60619 0.7972 0.1524 0.0
C3373 C 0.608 0.78186 0.16044 0.0
C3374 C 0.61506 0.81649 0.16001 0.0
C3375 C 0.61351 0.8332 0.15204 0.0
C3376 C 0.62034 0.83924 0.13533 0.0
C3377 C 0.61874 0.85496 0.12789 0.0
C3378 C 0.61046 0.86484 0.13706 0.0
C3379 C 0.60381 0.85906 0.15372 0.0
C3380 C 0.60536 0.84334 0.16122 0.0
C3381 C 0.669 0.80846 0.21389 0.0
C3382 C 0.66586 0.81759 0.22823 0.0
C3383 C 0.65719 0.80491 0.1992 0.0
C3384 C 0.64155 0.80985 0.19861 0.0
C3385 C 0.63856 0.81929 0.21275 0.0
C3386 C 0.65062 0.82317 0.22741 0.0
C3387 C 0.62823 0.80484 0.18326 0.0
C3388 C 0.62603 0.8201 0.17536 0.0
C3389 C 0.61856 0.7853 0.17592 0.0
C3390 C 0.61853 0.76801 0.18444 0.0
C3391 C 0.61166 0.76302 0.20127 0.0
C3392 C 0.61182 0.74684 0.20929 0.0
C3393 C 0.61868 0.73542 0.20057 0.0
C3394 C 0.62535 0.74013 0.18379 0.0
C3395 C 0.62524 0.75632 0.17572 0.0
H3396 H 0.61879 0.72289 0.20679 0.0
H3397 H 0.60925 0.87701 0.13128 0.0
H3398 H 0.24964 0.77197 0.12193 0.0
H3399 H 0.23403 0.77646 0.1476 0.0
H3400 H 0.23193 0.82628 0.12418 0.0
H3401 H 0.24782 0.82203 0.09862 0.0
H3402 H 0.24532 0.83611 0.15509 0.0
H3403 H 0.18832 0.779 0.1289 0.0
H3404 H 0.16963 0.74511 0.11594 0.0
H3405 H 0.17558 0.71908 0.16236 0.0
H3406 H 0.19457 0.75286 0.17553 0.0
H3407 H 0.15243 0.80938 0.21405 0.0
H3408 H 0.16681 0.80246 0.18889 0.0
H3409 H 0.2259 0.82818 0.21385 0.0
H3410 H 0.21192 0.83617 0.23873 0.0
H3411 H 0.18336 0.78043 0.18186 0.0
H3412 H 0.26385 0.85182 0.18524 0.0
H3413 H 0.28016 0.88672 0.19614 0.0
H3414 H 0.22275 0.88589 0.19156 0.0
H3415 H 0.20618 0.8511 0.18044 0.0
C3416 C 0.24564 0.78374 0.12221 0.0
C3417 C 0.24993 0.79664 0.10825 0.0
C3418 C 0.23671 0.78629 0.13689 0.0
C3419 C 0.23162 0.80161 0.13781 0.0
C3420 C 0.23579 0.81441 0.12383 0.0
C3421 C 0.24486 0.81197 0.10922 0.0
C3422 C 0.22238 0.80465 0.15345 0.0
C3423 C 0.23179 0.8239 0.16094 0.0
C3424 C 0.20453 0.78883 0.16099 0.0
C3425 C 0.19305 0.76849 0.15314 0.0
C3426 C 0.18578 0.76606 0.1363 0.0
C3427 C 0.17511 0.74687 0.12893 0.0
C3428 C 0.17147 0.72995 0.13831 0.0
C3429 C 0.17844 0.7322 0.1551 0.0
C3430 C 0.18914 0.75136 0.16253 0.0
C3431 C 0.16855 0.81376 0.21416 0.0
C3432 C 0.18106 0.82361 0.22839 0.0
C3433 C 0.17669 0.80957 0.19981 0.0
C3434 C 0.19752 0.81504 0.19933 0.0
C3435 C 0.20987 0.82411 0.21377 0.0
C3436 C 0.20177 0.82848 0.22809 0.0
C3437 C 0.20639 0.81186 0.18354 0.0
C3438 C 0.19695 0.79259 0.17604 0.0
C3439 C 0.22388 0.82778 0.17569 0.0
C3440 C 0.23375 0.84879 0.18219 0.0
C3441 C 0.25474 0.85912 0.18651 0.0
C3442 C 0.26402 0.87887 0.19273 0.0
C3443 C 0.25248 0.88849 0.1946 0.0
C3444 C 0.23165 0.8784 0.19018 0.0
C3445 C 0.2223 0.85866 0.18393 0.0
H3446 H 0.25969 0.90378 0.19943 0.0
H3447 H 0.16321 0.71511 0.13257 0.0
H3448 H 0.24919 0.4781 0.12225 0.0
H3449 H 0.24311 0.46181 0.15008 0.0
H3450 H 0.1842 0.41428 0.13252 0.0
H3451 H 0.19039 0.42993 0.10461 0.0
H3452 H 0.18273 0.432 0.16378 0.0
H3453 H 0.22195 0.40493 0.13678 0.0
H3454 H 0.25245 0.40779 0.1225 0.0
H3455 H 0.29004 0.44007 0.16552 0.0
H3456 H 0.25979 0.43764 0.17996 0.0
H3457 H 0.14646 0.35166 0.22047 0.0
H3458 H 0.15888 0.37497 0.19674 0.0
H3459 H 0.21806 0.40889 0.22133 0.0
H3460 H 0.2059 0.38487 0.24492 0.0
H3461 H 0.22326 0.40349 0.18909 0.0
H3462 H 0.18498 0.42843 0.2176 0.0
H3463 H 0.15565 0.42761 0.23234 0.0
H3464 H 0.11792 0.40214 0.18788 0.0
H3465 H 0.14697 0.40275 0.17287 0.0
C3466 C 0.23513 0.46397 0.12418 0.0
C3467 C 0.22021 0.45546 0.11115 0.0
C3468 C 0.23162 0.45475 0.14015 0.0
C3469 C 0.21312 0.43691 0.14342 0.0
C3470 C 0.19848 0.42816 0.13035 0.0
C3471 C 0.20204 0.4372 0.11439 0.0
C3472 C 0.20856 0.42745 0.16051 0.0
C3473 C 0.1915 0.42565 0.16929 0.0
C3474 C 0.22053 0.41994 0.16802 0.0
C3475 C 0.23866 0.42132 0.15936 0.0
C3476 C 0.23676 0.4128 0.14313 0.0
C3477 C 0.25399 0.41431 0.13501 0.0
C3478 C 0.27319 0.42417 0.14307 0.0
C3479 C 0.27517 0.43248 0.15928 0.0
C3480 C 0.25799 0.43103 0.16744 0.0
C3481 C 0.16214 0.36406 0.22088 0.0
C3482 C 0.17521 0.36627 0.23459 0.0
C3483 C 0.16917 0.37758 0.20735 0.0
C3484 C 0.18938 0.3939 0.20726 0.0
C3485 C 0.20239 0.39646 0.2211 0.0
C3486 C 0.19536 0.38282 0.23466 0.0
C3487 C 0.19698 0.40746 0.19221 0.0
C3488 C 0.21462 0.41009 0.18378 0.0
C3489 C 0.18573 0.41604 0.18513 0.0
C3490 C 0.16814 0.41553 0.19414 0.0
C3491 C 0.17039 0.42253 0.211 0.0
C3492 C 0.15383 0.42213 0.2194 0.0
C3493 C 0.13492 0.41475 0.21108 0.0
C3494 C 0.13257 0.40784 0.19431 0.0
C3495 C 0.14909 0.40827 0.18583 0.0
H3496 H 0.12212 0.41444 0.21761 0.0
H3497 H 0.28651 0.42532 0.13677 0.0
H3498 H 0.7734 0.59009 0.92837 0.0
H3499 H 0.78372 0.60716 0.90098 0.0
H3500 H 0.78864 0.55752 0.88039 0.0
H3501 H 0.77822 0.54028 0.90776 0.0
H3502 H 0.82009 0.59301 0.86989 0.0
H3503 H 0.74694 0.56224 0.87142 0.0
H3504 H 0.71347 0.55412 0.88353 0.0
H3505 H 0.73107 0.61675 0.88292 0.0
H3506 H 0.76479 0.62529 0.87103 0.0
H3507 H 0.82696 0.62716 0.78443 0.0
H3508 H 0.81417 0.6056 0.8096 0.0
H3509 H 0.80694 0.65139 0.83548 0.0
H3510 H 0.81915 0.67266 0.81033 0.0
H3511 H 0.7752 0.61497 0.84201 0.0
H3512 H 0.84916 0.64578 0.84232 0.0
H3513 H 0.88274 0.6539 0.83042 0.0
H3514 H 0.86336 0.5909 0.82746 0.0
H3515 H 0.82955 0.5824 0.83915 0.0
C3516 C 0.77666 0.58278 0.91802 0.0
C3517 C 0.77486 0.56374 0.92028 0.0
C3518 C 0.78256 0.59256 0.90235 0.0
C3519 C 0.78663 0.58349 0.8885 0.0
C3520 C 0.78554 0.56481 0.89086 0.0
C3521 C 0.77967 0.55502 0.90656 0.0
C3522 C 0.79166 0.59337 0.87152 0.0
C3523 C 0.81011 0.59752 0.86367 0.0
C3524 C 0.77879 0.59951 0.86345 0.0
C3525 C 0.75846 0.59442 0.87047 0.0
C3526 C 0.74373 0.5743 0.87398 0.0
C3527 C 0.72471 0.56961 0.88079 0.0
C3528 C 0.72016 0.58491 0.88402 0.0
C3529 C 0.73462 0.60492 0.88042 0.0
C3530 C 0.75369 0.60968 0.87363 0.0
C3531 C 0.82232 0.63246 0.79539 0.0
C3532 C 0.82428 0.65172 0.79542 0.0
C3533 C 0.81519 0.62022 0.80983 0.0
C3534 C 0.8099 0.62699 0.82458 0.0
C3535 C 0.81102 0.64584 0.82433 0.0
C3536 C 0.81815 0.65806 0.80996 0.0
C3537 C 0.80378 0.61491 0.8405 0.0
C3538 C 0.7851 0.61031 0.84816 0.0
C3539 C 0.81642 0.60835 0.84837 0.0
C3540 C 0.83676 0.61345 0.84143 0.0
C3541 C 0.85201 0.63366 0.83901 0.0
C3542 C 0.87109 0.63833 0.83233 0.0
C3543 C 0.87516 0.62293 0.82814 0.0
C3544 C 0.86017 0.60282 0.83068 0.0
C3545 C 0.84105 0.59806 0.83734 0.0
H3546 H 0.88994 0.62657 0.82297 0.0
H3547 H 0.70543 0.58126 0.8893 0.0
H3548 H 0.48777 0.24954 0.89602 0.0
H3549 H 0.46762 0.24246 0.86982 0.0
H3550 H 0.4169 0.1911 0.89347 0.0
H3551 H 0.43682 0.19823 0.91979 0.0
H3552 H 0.42751 0.18165 0.86327 0.0
H3553 H 0.41413 0.23283 0.88486 0.0
H3554 H 0.42358 0.26648 0.89607 0.0
H3555 H 0.45628 0.29369 0.85017 0.0
H3556 H 0.44727 0.26021 0.83877 0.0
H3557 H 0.35199 0.15139 0.80123 0.0
H3558 H 0.37022 0.16608 0.82788 0.0
H3559 H 0.41858 0.21553 0.80037 0.0
H3560 H 0.40014 0.20091 0.77355 0.0
H3561 H 0.41055 0.22753 0.83169 0.0
H3562 H 0.42489 0.17747 0.81013 0.0
H3563 H 0.41629 0.14426 0.79841 0.0
H3564 H 0.38352 0.11563 0.84393 0.0
H3565 H 0.39163 0.14866 0.85582 0.0
C3566 C 0.47216 0.23701 0.89578 0.0
C3567 C 0.46392 0.22438 0.90997 0.0
C3568 C 0.46068 0.23297 0.88078 0.0
C3569 C 0.44076 0.21628 0.87972 0.0
C3570 C 0.43228 0.20402 0.89402 0.0
C3571 C 0.44371 0.20807 0.90901 0.0
C3572 C 0.42931 0.21061 0.86337 0.0
C3573 C 0.42354 0.19158 0.85651 0.0
C3574 C 0.42485 0.22389 0.85423 0.0
C3575 C 0.4302 0.24402 0.86104 0.0
C3576 C 0.42349 0.246 0.87721 0.0
C3577 C 0.42874 0.26504 0.88359 0.0
C3578 C 0.44058 0.28222 0.87386 0.0
C3579 C 0.44714 0.28038 0.85771 0.0
C3580 C 0.44194 0.26137 0.85127 0.0
C3581 C 0.36641 0.1655 0.80088 0.0
C3582 C 0.3749 0.17482 0.78532 0.0
C3583 C 0.37677 0.1739 0.8161 0.0
C3584 C 0.39595 0.19165 0.81605 0.0
C3585 C 0.40384 0.20176 0.80065 0.0
C3586 C 0.39334 0.1934 0.78537 0.0
C3587 C 0.4084 0.19842 0.83187 0.0
C3588 C 0.4145 0.21764 0.83852 0.0
C3589 C 0.4134 0.18541 0.84081 0.0
C3590 C 0.40872 0.16553 0.8338 0.0
C3591 C 0.41573 0.16408 0.81759 0.0
C3592 C 0.41095 0.14529 0.81092 0.0
C3593 C 0.39933 0.12785 0.82041 0.0
C3594 C 0.3925 0.12916 0.8366 0.0
C3595 C 0.39719 0.14792 0.84331 0.0
H3596 H 0.39564 0.11331 0.81522 0.0
H3597 H 0.44463 0.29695 0.87882 0.0
H3598 H 0.82625 0.24041 0.9259 0.0
H3599 H 0.83346 0.22993 0.89868 0.0
H3600 H 0.77545 0.21974 0.87876 0.0
H3601 H 0.76824 0.23064 0.90595 0.0
H3602 H 0.78497 0.18947 0.86935 0.0
H3603 H 0.81615 0.26133 0.86824 0.0
H3604 H 0.83739 0.29585 0.87946 0.0
H3605 H 0.89056 0.28869 0.87921 0.0
H3606 H 0.86957 0.25399 0.86823 0.0
H3607 H 0.81473 0.1821 0.78464 0.0
H3608 H 0.80221 0.19219 0.8093 0.0
H3609 H 0.86089 0.21409 0.83427 0.0
H3610 H 0.87386 0.20519 0.80938 0.0
H3611 H 0.84809 0.23936 0.83961 0.0
H3612 H 0.81693 0.16694 0.84344 0.0
H3613 H 0.79603 0.13198 0.83301 0.0
H3614 H 0.74342 0.13979 0.82862 0.0
H3615 H 0.76408 0.17488 0.83885 0.0
C3616 C 0.81499 0.23596 0.91575 0.0
C3617 C 0.79678 0.23663 0.91806 0.0
C3618 C 0.81912 0.2299 0.90021 0.0
C3619 C 0.80513 0.22434 0.88662 0.0
C3620 C 0.78647 0.22402 0.88908 0.0
C3621 C 0.78235 0.23018 0.90465 0.0
C3622 C 0.81059 0.21977 0.86971 0.0
C3623 C 0.79857 0.20045 0.86268 0.0
C3624 C 0.8285 0.23403 0.86115 0.0
C3625 C 0.84124 0.255 0.86753 0.0
C3626 C 0.83234 0.26706 0.87068 0.0
C3627 C 0.84434 0.28667 0.87699 0.0
C3628 C 0.8653 0.29445 0.88007 0.0
C3629 C 0.87432 0.28264 0.87682 0.0
C3630 C 0.86238 0.26301 0.87054 0.0
C3631 C 0.82509 0.18934 0.79527 0.0
C3632 C 0.84529 0.19264 0.79502 0.0
C3633 C 0.8178 0.19488 0.80948 0.0
C3634 C 0.83047 0.20359 0.82383 0.0
C3635 C 0.85075 0.2073 0.82343 0.0
C3636 C 0.85809 0.20197 0.80922 0.0
C3637 C 0.82279 0.20883 0.83936 0.0
C3638 C 0.83438 0.22836 0.84615 0.0
C3639 C 0.80457 0.19471 0.84773 0.0
C3640 C 0.79209 0.17358 0.84174 0.0
C3641 C 0.80093 0.16123 0.84015 0.0
C3642 C 0.78913 0.14139 0.83429 0.0
C3643 C 0.76842 0.13369 0.83011 0.0
C3644 C 0.75946 0.14579 0.83184 0.0
C3645 C 0.77121 0.16564 0.83768 0.0
H3646 H 0.75931 0.11833 0.82557 0.0
H3647 H 0.87457 0.30963 0.88496 0.0
H3648 H 0.23588 0.12927 0.43548 0.0
H3649 H 0.25634 0.14385 0.46132 0.0
H3650 H 0.24106 0.08445 0.47818 0.0
H3651 H 0.21966 0.06974 0.45302 0.0
H3652 H 0.24032 0.10491 0.5041 0.0
H3653 H 0.28789 0.1178 0.45833 0.0
H3654 H 0.30388 0.13114 0.43053 0.0
H3655 H 0.32094 0.19108 0.44681 0.0
H3656 H 0.30482 0.17804 0.47465 0.0
H3657 H 0.33342 0.12732 0.55024 0.0
H3658 H 0.31031 0.1193 0.52569 0.0
H3659 H 0.30117 0.16903 0.53843 0.0
H3660 H 0.32391 0.17685 0.56332 0.0
H3661 H 0.3138 0.15714 0.49868 0.0
H3662 H 0.2639 0.1421 0.54494 0.0
H3663 H 0.24983 0.12726 0.57288 0.0
H3664 H 0.23912 0.06968 0.55519 0.0
H3665 H 0.25344 0.08433 0.52719 0.0
C3666 C 0.23663 0.11929 0.44481 0.0
C3667 C 0.22634 0.09833 0.44202 0.0
C3668 C 0.24851 0.12767 0.45951 0.0
C3669 C 0.25057 0.11529 0.47158 0.0
C3670 C 0.23983 0.09435 0.46904 0.0
C3671 C 0.2278 0.08597 0.45449 0.0
C3672 C 0.26427 0.12398 0.48667 0.0
C3673 C 0.25635 0.11638 0.50284 0.0
C3674 C 0.28521 0.13908 0.48518 0.0
C3675 C 0.29494 0.14692 0.46848 0.0
C3676 C 0.29492 0.1338 0.45593 0.0
C3677 C 0.30402 0.14131 0.44018 0.0
C3678 C 0.31336 0.16194 0.43688 0.0
C3679 C 0.31367 0.1751 0.44936 0.0
C3680 C 0.30456 0.16767 0.46513 0.0
C3681 C 0.32656 0.1366 0.54774 0.0
C3682 C 0.33039 0.15269 0.55863 0.0
C3683 C 0.31338 0.13199 0.53378 0.0
C3684 C 0.30406 0.14355 0.53037 0.0
C3685 C 0.30818 0.1599 0.54097 0.0
C3686 C 0.32109 0.16431 0.55514 0.0
C3687 C 0.28972 0.13808 0.51584 0.0
C3688 C 0.29761 0.14607 0.49984 0.0
C3689 C 0.26884 0.12327 0.51741 0.0
C3690 C 0.25994 0.11435 0.53408 0.0
C3691 C 0.25873 0.12633 0.54708 0.0
C3692 C 0.25067 0.11794 0.56291 0.0
C3693 C 0.24365 0.09755 0.56584 0.0
C3694 C 0.2446 0.08548 0.55291 0.0
C3695 C 0.25267 0.09382 0.53706 0.0
H3696 H 0.23742 0.09108 0.57811 0.0
H3697 H 0.32041 0.16772 0.42468 0.0
H3698 H 0.91214 0.15253 0.43385 0.0
H3699 H 0.90045 0.15864 0.46101 0.0
H3700 H 0.90792 0.11166 0.48412 0.0
H3701 H 0.91912 0.10514 0.45678 0.0
H3702 H 0.87475 0.11087 0.49657 0.0
H3703 H 0.94469 0.1615 0.48884 0.0
H3704 H 0.97446 0.18828 0.47375 0.0
H3705 H 0.94539 0.22436 0.47249 0.0
H3706 H 0.91529 0.19765 0.48736 0.0
H3707 H 0.87895 0.15064 0.58137 0.0
H3708 H 0.8854 0.1374 0.55505 0.0
H3709 H 0.87555 0.17948 0.52586 0.0
H3710 H 0.86905 0.19259 0.55199 0.0
H3711 H 0.91132 0.18138 0.51785 0.0
H3712 H 0.84062 0.12888 0.52586 0.0
H3713 H 0.8121 0.10171 0.5418 0.0
H3714 H 0.84476 0.06905 0.54418 0.0
H3715 H 0.87362 0.09616 0.52845 0.0
C3716 C 0.91115 0.14343 0.44471 0.0
C3717 C 0.9167 0.12848 0.44325 0.0
C3718 C 0.90451 0.14694 0.46023 0.0
C3719 C 0.90372 0.13591 0.47473 0.0
C3720 C 0.90846 0.12041 0.47315 0.0
C3721 C 0.91486 0.1167 0.45753 0.0
C3722 C 0.89885 0.14124 0.49162 0.0
C3723 C 0.88291 0.12624 0.50132 0.0
C3724 C 0.90948 0.16128 0.49788 0.0
C3725 C 0.92766 0.17749 0.48909 0.0
C3726 C 0.94459 0.17509 0.48525 0.0
C3727 C 0.96153 0.19026 0.47674 0.0
C3728 C 0.9618 0.20799 0.47213 0.0
C3729 C 0.94515 0.21061 0.47606 0.0
C3730 C 0.92815 0.19546 0.48454 0.0
C3731 C 0.87771 0.1567 0.56929 0.0
C3732 C 0.87357 0.17267 0.56871 0.0
C3733 C 0.88146 0.14919 0.55428 0.0
C3734 C 0.881 0.15749 0.53848 0.0
C3735 C 0.87613 0.17294 0.5379 0.0
C3736 C 0.87242 0.18042 0.55283 0.0
C3737 C 0.88683 0.15117 0.52256 0.0
C3738 C 0.90314 0.166 0.5131 0.0
C3739 C 0.87674 0.13096 0.51672 0.0
C3740 C 0.85935 0.11463 0.5261 0.0
C3741 C 0.84179 0.11598 0.52989 0.0
C3742 C 0.82555 0.10058 0.53887 0.0
C3743 C 0.82662 0.08367 0.544 0.0
C3744 C 0.84395 0.08215 0.54019 0.0
C3745 C 0.86024 0.09752 0.53123 0.0
H3746 H 0.814 0.07172 0.55087 0.0
H3747 H 0.97493 0.21971 0.46554 0.0
H3748 H 0.87469 0.8055 0.45404 0.0
H3749 H 0.87017 0.7886 0.48133 0.0
H3750 H 0.89806 0.7557 0.46091 0.0
H3751 H 0.90255 0.77256 0.43347 0.0
H3752 H 0.8612 0.73118 0.47709 0.0
H3753 H 0.9239 0.79253 0.48924 0.0
H3754 H 0.94658 0.82935 0.49113 0.0
H3755 H 0.90516 0.8334 0.52622 0.0
H3756 H 0.88205 0.79662 0.52435 0.0
H3757 H 0.86303 0.68398 0.55248 0.0
H3758 H 0.87495 0.70571 0.52754 0.0
H3759 H 0.85295 0.74316 0.54932 0.0
H3760 H 0.84143 0.72157 0.57459 0.0
H3761 H 0.8877 0.76594 0.53251 0.0
H3762 H 0.82428 0.70606 0.51973 0.0
H3763 H 0.80024 0.66948 0.51784 0.0
H3764 H 0.84104 0.66297 0.48373 0.0
H3765 H 0.86549 0.69949 0.48561 0.0
C3766 C 0.87994 0.79472 0.45538 0.0
C3767 C 0.88889 0.79028 0.44156 0.0
C3768 C 0.87748 0.78518 0.47103 0.0
C3769 C 0.88386 0.77094 0.47322 0.0
C3770 C 0.89306 0.76667 0.45953 0.0
C3771 C 0.89572 0.77637 0.44389 0.0
C3772 C 0.87992 0.75977 0.48951 0.0
C3773 C 0.8673 0.73875 0.48917 0.0
C3774 C 0.88726 0.76971 0.50536 0.0
C3775 C 0.90114 0.79183 0.50653 0.0
C3776 C 0.91953 0.80129 0.49725 0.0
C3777 C 0.93248 0.82215 0.49834 0.0
C3778 C 0.92729 0.83371 0.50875 0.0
C3779 C 0.90915 0.82443 0.51814 0.0
C3780 C 0.89613 0.80357 0.51708 0.0
C3781 C 0.86097 0.69699 0.55203 0.0
C3782 C 0.85114 0.701 0.56539 0.0
C3783 C 0.86771 0.70937 0.53774 0.0
C3784 C 0.86438 0.7258 0.53629 0.0
C3785 C 0.85558 0.7305 0.55005 0.0
C3786 C 0.84904 0.71821 0.5645 0.0
C3787 C 0.8691 0.7373 0.52007 0.0
C3788 C 0.88171 0.75835 0.52042 0.0
C3789 C 0.86154 0.72744 0.5042 0.0
C3790 C 0.84681 0.70549 0.50294 0.0
C3791 C 0.82819 0.69681 0.51192 0.0
C3792 C 0.81448 0.67609 0.51084 0.0
C3793 C 0.81913 0.6639 0.50071 0.0
C3794 C 0.83747 0.67242 0.49159 0.0
C3795 C 0.85126 0.69314 0.49265 0.0
H3796 H 0.80849 0.64786 0.49989 0.0
H3797 H 0.93734 0.84986 0.50958 0.0
loop_
_geom_bond_atom_site_label_1
_geom_bond_atom_site_label_2
_geom_bond_distance
_geom_bond_site_symmetry_2
_ccdc_geom_bond_type
H0 C1 0.949 . S
C1 H0 0.949 . S
C1 C2 1.395 . S
C1 C3 1.391 . S
C2 C1 1.395 . S
C2 C5 1.390 . S
C3 C1 1.391 . S
C3 C7 1.387 . S
C3 C8 1.491 . S
H4 C5 0.950 . S
C5 C2 1.390 . S
C5 H4 0.950 . S
C5 C6 1.378 . S
C6 C5 1.378 . S
C6 C7 1.409 . S
C7 C3 1.387 . S
C7 C6 1.409 . S
C7 H9 0.951 . S
C8 C3 1.491 . S
C8 C10 1.382 . S
C8 C12 1.404 . S
H9 C7 0.951 . S
C10 C8 1.382 . S
C10 C11 1.390 . S
C10 H15 0.949 . S
C11 C10 1.390 . S
C11 C16 1.399 . S
C12 C8 1.404 . S
C12 H13 0.950 . S
C12 C14 1.375 . S
H13 C12 0.950 . S
C14 C12 1.375 . S
C14 C16 1.382 . S
C14 H18 0.950 . S
H15 C10 0.949 . S
C16 C11 1.399 . S
C16 C14 1.382 . S
C16 H17 0.952 . S
H17 C16 0.952 . S
H18 C14 0.950 . S
H19 C20 0.949 . S
C20 H19 0.949 . S
C20 C21 1.395 . S
C20 C22 1.391 . S
C21 C20 1.395 . S
C21 C24 1.390 . S
C22 C20 1.391 . S
C22 C26 1.387 . S
C22 C27 1.491 . S
H23 C24 0.950 . S
C24 C21 1.390 . S
C24 H23 0.950 . S
C24 C25 1.378 . S
C25 C24 1.378 . S
C25 C26 1.409 . S
C26 C22 1.387 . S
C26 C25 1.409 . S
C26 H28 0.951 . S
C27 C22 1.491 . S
C27 C29 1.382 . S
C27 C31 1.404 . S
H28 C26 0.951 . S
C29 C27 1.382 . S
C29 C30 1.390 . S
C29 H34 0.949 . S
C30 C29 1.390 . S
C30 C35 1.399 . S
C31 C27 1.404 . S
C31 H32 0.950 . S
C31 C33 1.375 . S
H32 C31 0.950 . S
C33 C31 1.375 . S
C33 C35 1.382 . S
C33 H37 0.950 . S
H34 C29 0.949 . S
C35 C30 1.399 . S
C35 C33 1.382 . S
C35 H36 0.952 . S
H36 C35 0.952 . S
H37 C33 0.950 . S
H38 C39 0.949 . S
C39 H38 0.949 . S
C39 C40 1.395 . S
C39 C41 1.391 . S
C40 C39 1.395 . S
C40 C43 1.390 . S
C41 C39 1.391 . S
C41 C45 1.387 . S
C41 C46 1.491 . S
H42 C43 0.950 . S
C43 C40 1.390 . S
C43 H42 0.950 . S
C43 C44 1.378 . S
C44 C43 1.378 . S
C44 C45 1.409 . S
C45 C41 1.387 . S
C45 C44 1.409 . S
C45 H47 0.951 . S
C46 C41 1.491 . S
C46 C48 1.382 . S
C46 C50 1.404 . S
H47 C45 0.951 . S
C48 C46 1.382 . S
C48 C49 1.390 . S
C48 H53 0.949 . S
C49 C48 1.390 . S
C49 C54 1.399 . S
C50 C46 1.404 . S
C50 H51 0.950 . S
C50 C52 1.375 . S
H51 C50 0.950 . S
C52 C50 1.375 . S
C52 C54 1.382 . S
C52 H56 0.950 . S
H53 C48 0.949 . S
C54 C49 1.399 . S
C54 C52 1.382 . S
C54 H55 0.952 . S
H55 C54 0.952 . S
H56 C52 0.950 . S
H57 C58 0.949 . S
C58 H57 0.949 . S
C58 C59 1.395 . S
C58 C60 1.391 . S
C59 C58 1.395 . S
C59 C62 1.390 . S
C60 C58 1.391 . S
C60 C64 1.387 . S
C60 C65 1.491 . S
H61 C62 0.950 . S
C62 C59 1.390 . S
C62 H61 0.950 . S
C62 C63 1.378 . S
C63 C62 1.378 . S
C63 C64 1.409 . S
C64 C60 1.387 . S
C64 C63 1.409 . S
C64 H66 0.951 . S
C65 C60 1.491 . S
C65 C67 1.382 . S
C65 C69 1.404 . S
H66 C64 0.951 . S
C67 C65 1.382 . S
C67 C68 1.390 . S
C67 H72 0.949 . S
C68 C67 1.390 . S
C68 C73 1.399 . S
C69 C65 1.404 . S
C69 H70 0.950 . S
C69 C71 1.375 . S
H70 C69 0.950 . S
C71 C69 1.375 . S
C71 C73 1.382 . S
C71 H75 0.950 . S
H72 C67 0.949 . S
C73 C68 1.399 . S
C73 C71 1.382 . S
C73 H74 0.952 . S
H74 C73 0.952 . S
H75 C71 0.950 . S
H76 C77 0.949 . S
C77 H76 0.949 . S
C77 C78 1.395 . S
C77 C79 1.391 . S
C78 C77 1.395 . S
C78 C81 1.390 . S
C79 C77 1.391 . S
C79 C83 1.387 . S
C79 C84 1.491 . S
H80 C81 0.950 . S
C81 C78 1.390 . S
C81 H80 0.950 . S
C81 C82 1.378 . S
C82 C81 1.378 . S
C82 C83 1.409 . S
C83 C79 1.387 . S
C83 C82 1.409 . S
C83 H85 0.951 . S
C84 C79 1.491 . S
C84 C86 1.382 . S
C84 C88 1.404 . S
H85 C83 0.951 . S
C86 C84 1.382 . S
C86 C87 1.390 . S
C86 H91 0.949 . S
C87 C86 1.390 . S
C87 C92 1.399 . S
C88 C84 1.404 . S
C88 H89 0.950 . S
C88 C90 1.375 . S
H89 C88 0.950 . S
C90 C88 1.375 . S
C90 C92 1.382 . S
C90 H94 0.950 . S
H91 C86 0.949 . S
C92 C87 1.399 . S
C92 C90 1.382 . S
C92 H93 0.952 . S
H93 C92 0.952 . S
H94 C90 0.950 . S
H95 C96 0.949 . S
C96 H95 0.949 . S
C96 C97 1.395 . S
C96 C98 1.391 . S
C97 C96 1.395 . S
C97 C100 1.390 . S
C98 C96 1.391 . S
C98 C102 1.387 . S
C98 C103 1.491 . S
H99 C100 0.950 . S
C100 C97 1.390 . S
C100 H99 0.950 . S
C100 C101 1.378 . S
C101 C100 1.378 . S
C101 C102 1.409 . S
C102 C98 1.387 . S
C102 C101 1.409 . S
C102 H104 0.951 . S
C103 C98 1.491 . S
C103 C105 1.382 . S
C103 C107 1.404 . S
H104 C102 0.951 . S
C105 C103 1.382 . S
C105 C106 1.390 . S
C105 H110 0.949 . S
C106 C105 1.390 . S
C106 C111 1.399 . S
C107 C103 1.404 . S
C107 H108 0.950 . S
C107 C109 1.375 . S
H108 C107 0.950 . S
C109 C107 1.375 . S
C109 C111 1.382 . S
C109 H113 0.950 . S
H110 C105 0.949 . S
C111 C106 1.399 . S
C111 C109 1.382 . S
C111 H112 0.952 . S
H112 C111 0.952 . S
H113 C109 0.950 . S
H114 C115 0.949 . S
C115 H114 0.949 . S
C115 C116 1.395 . S
C115 C117 1.391 . S
C116 C115 1.395 . S
C116 C119 1.390 . S
C117 C115 1.391 . S
C117 C121 1.387 . S
C117 C122 1.491 . S
H118 C119 0.950 . S
C119 C116 1.390 . S
C119 H118 0.950 . S
C119 C120 1.378 . S
C120 C119 1.378 . S
C120 C121 1.409 . S
C121 C117 1.387 . S
C121 C120 1.409 . S
C121 H123 0.951 . S
C122 C117 1.491 . S
C122 C124 1.382 . S
C122 C126 1.404 . S
H123 C121 0.951 . S
C124 C122 1.382 . S
C124 C125 1.390 . S
C124 H129 0.949 . S
C125 C124 1.390 . S
C125 C130 1.399 . S
C126 C122 1.404 . S
C126 H127 0.950 . S
C126 C128 1.375 . S
H127 C126 0.950 . S
C128 C126 1.375 . S
C128 C130 1.382 . S
C128 H132 0.950 . S
H129 C124 0.949 . S
C130 C125 1.399 . S
C130 C128 1.382 . S
C130 H131 0.952 . S
H131 C130 0.952 . S
H132 C128 0.950 . S
H133 C134 0.949 . S
C134 H133 0.949 . S
C134 C135 1.395 . S
C134 C136 1.391 . S
C135 C134 1.395 . S
C135 C138 1.390 . S
C136 C134 1.391 . S
C136 C140 1.387 . S
C136 C141 1.491 . S
H137 C138 0.950 . S
C138 C135 1.390 . S
C138 H137 0.950 . S
C138 C139 1.378 . S
C139 C138 1.378 . S
C139 C140 1.409 . S
C140 C136 1.387 . S
C140 C139 1.409 . S
C140 H142 0.951 . S
C141 C136 1.491 . S
C141 C143 1.382 . S
C141 C145 1.404 . S
H142 C140 0.951 . S
C143 C141 1.382 . S
C143 C144 1.390 . S
C143 H148 0.949 . S
C144 C143 1.390 . S
C144 C149 1.399 . S
C145 C141 1.404 . S
C145 H146 0.950 . S
C145 C147 1.375 . S
H146 C145 0.950 . S
C147 C145 1.375 . S
C147 C149 1.382 . S
C147 H151 0.950 . S
H148 C143 0.949 . S
C149 C144 1.399 . S
C149 C147 1.382 . S
C149 H150 0.952 . S
H150 C149 0.952 . S
H151 C147 0.950 . S
H152 C153 0.949 . S
C153 H152 0.949 . S
C153 C154 1.395 . S
C153 C155 1.391 . S
C154 C153 1.395 . S
C154 C157 1.390 . S
C155 C153 1.391 . S
C155 C159 1.387 . S
C155 C160 1.491 . S
H156 C157 0.950 . S
C157 C154 1.390 . S
C157 H156 0.950 . S
C157 C158 1.378 . S
C158 C157 1.378 . S
C158 C159 1.409 . S
C159 C155 1.387 . S
C159 C158 1.409 . S
C159 H161 0.951 . S
C160 C155 1.491 . S
C160 C162 1.382 . S
C160 C164 1.404 . S
H161 C159 0.951 . S
C162 C160 1.382 . S
C162 C163 1.390 . S
C162 H167 0.949 . S
C163 C162 1.390 . S
C163 C168 1.399 . S
C164 C160 1.404 . S
C164 H165 0.950 . S
C164 C166 1.375 . S
H165 C164 0.950 . S
C166 C164 1.375 . S
C166 C168 1.382 . S
C166 H170 0.950 . S
H167 C162 0.949 . S
C168 C163 1.399 . S
C168 C166 1.382 . S
C168 H169 0.952 . S
H169 C168 0.952 . S
H170 C166 0.950 . S
H171 C172 0.949 . S
C172 H171 0.949 . S
C172 C173 1.395 . S
C172 C174 1.391 . S
C173 C172 1.395 . S
C173 C176 1.390 . S
C174 C172 1.391 . S
C174 C178 1.387 . S
C174 C179 1.491 . S
H175 C176 0.950 . S
C176 C173 1.390 . S
C176 H175 0.950 . S
C176 C177 1.378 . S
C177 C176 1.378 . S
C177 C178 1.409 . S
C178 C174 1.387 . S
C178 C177 1.409 . S
C178 H180 0.951 . S
C179 C174 1.491 . S
C179 C181 1.382 . S
C179 C183 1.404 . S
H180 C178 0.951 . S
C181 C179 1.382 . S
C181 C182 1.390 . S
C181 H186 0.949 . S
C182 C181 1.390 . S
C182 C187 1.399 . S
C183 C179 1.404 . S
C183 H184 0.950 . S
C183 C185 1.375 . S
H184 C183 0.950 . S
C185 C183 1.375 . S
C185 C187 1.382 . S
C185 H189 0.950 . S
H186 C181 0.949 . S
C187 C182 1.399 . S
C187 C185 1.382 . S
C187 H188 0.952 . S
H188 C187 0.952 . S
H189 C185 0.950 . S
H190 C191 0.949 . S
C191 H190 0.949 . S
C191 C192 1.395 . S
C191 C193 1.391 . S
C192 C191 1.395 . S
C192 C195 1.390 . S
C193 C191 1.391 . S
C193 C197 1.387 . S
C193 C198 1.491 . S
H194 C195 0.950 . S
C195 C192 1.390 . S
C195 H194 0.950 . S
C195 C196 1.378 . S
C196 C195 1.378 . S
C196 C197 1.409 . S
C197 C193 1.387 . S
C197 C196 1.409 . S
C197 H199 0.951 . S
C198 C193 1.491 . S
C198 C200 1.382 . S
C198 C202 1.404 . S
H199 C197 0.951 . S
C200 C198 1.382 . S
C200 C201 1.390 . S
C200 H205 0.949 . S
C201 C200 1.390 . S
C201 C206 1.399 . S
C202 C198 1.404 . S
C202 H203 0.950 . S
C202 C204 1.375 . S
H203 C202 0.950 . S
C204 C202 1.375 . S
C204 C206 1.382 . S
C204 H208 0.950 . S
H205 C200 0.949 . S
C206 C201 1.399 . S
C206 C204 1.382 . S
C206 H207 0.952 . S
H207 C206 0.952 . S
H208 C204 0.950 . S
H209 C210 0.949 . S
C210 H209 0.949 . S
C210 C211 1.395 . S
C210 C212 1.391 . S
C211 C210 1.395 . S
C211 C214 1.390 . S
C212 C210 1.391 . S
C212 C216 1.387 . S
C212 C217 1.491 . S
H213 C214 0.950 . S
C214 C211 1.390 . S
C214 H213 0.950 . S
C214 C215 1.378 . S
C215 C214 1.378 . S
C215 C216 1.409 . S
C216 C212 1.387 . S
C216 C215 1.409 . S
C216 H218 0.951 . S
C217 C212 1.491 . S
C217 C219 1.382 . S
C217 C221 1.404 . S
H218 C216 0.951 . S
C219 C217 1.382 . S
C219 C220 1.390 . S
C219 H224 0.949 . S
C220 C219 1.390 . S
C220 C225 1.399 . S
C221 C217 1.404 . S
C221 H222 0.950 . S
C221 C223 1.375 . S
H222 C221 0.950 . S
C223 C221 1.375 . S
C223 C225 1.382 . S
C223 H227 0.950 . S
H224 C219 0.949 . S
C225 C220 1.399 . S
C225 C223 1.382 . S
C225 H226 0.952 . S
H226 C225 0.952 . S
H227 C223 0.950 . S
H228 C229 0.949 . S
C229 H228 0.949 . S
C229 C230 1.395 . S
C229 C231 1.391 . S
C230 C229 1.395 . S
C230 C233 1.390 . S
C231 C229 1.391 . S
C231 C235 1.387 . S
C231 C236 1.491 . S
H232 C233 0.950 . S
C233 C230 1.390 . S
C233 H232 0.950 . S
C233 C234 1.378 . S
C234 C233 1.378 . S
C234 C235 1.409 . S
C235 C231 1.387 . S
C235 C234 1.409 . S
C235 H237 0.951 . S
C236 C231 1.491 . S
C236 C238 1.382 . S
C236 C240 1.404 . S
H237 C235 0.951 . S
C238 C236 1.382 . S
C238 C239 1.390 . S
C238 H243 0.949 . S
C239 C238 1.390 . S
C239 C244 1.399 . S
C240 C236 1.404 . S
C240 H241 0.950 . S
C240 C242 1.375 . S
H241 C240 0.950 . S
C242 C240 1.375 . S
C242 C244 1.382 . S
C242 H246 0.950 . S
H243 C238 0.949 . S
C244 C239 1.399 . S
C244 C242 1.382 . S
C244 H245 0.952 . S
H245 C244 0.952 . S
H246 C242 0.950 . S
H247 C248 0.949 . S
C248 H247 0.949 . S
C248 C249 1.395 . S
C248 C250 1.391 . S
C249 C248 1.395 . S
C249 C252 1.390 . S
C250 C248 1.391 . S
C250 C254 1.387 . S
C250 C255 1.491 . S
H251 C252 0.950 . S
C252 C249 1.390 . S
C252 H251 0.950 . S
C252 C253 1.378 . S
C253 C252 1.378 . S
C253 C254 1.409 . S
C254 C250 1.387 . S
C254 C253 1.409 . S
C254 H256 0.951 . S
C255 C250 1.491 . S
C255 C257 1.382 . S
C255 C259 1.404 . S
H256 C254 0.951 . S
C257 C255 1.382 . S
C257 C258 1.390 . S
C257 H262 0.949 . S
C258 C257 1.390 . S
C258 C263 1.399 . S
C259 C255 1.404 . S
C259 H260 0.950 . S
C259 C261 1.375 . S
H260 C259 0.950 . S
C261 C259 1.375 . S
C261 C263 1.382 . S
C261 H265 0.950 . S
H262 C257 0.949 . S
C263 C258 1.399 . S
C263 C261 1.382 . S
C263 H264 0.952 . S
H264 C263 0.952 . S
H265 C261 0.950 . S
H266 C267 0.949 . S
C267 H266 0.949 . S
C267 C268 1.395 . S
C267 C269 1.391 . S
C268 C267 1.395 . S
C268 C271 1.390 . S
C269 C267 1.391 . S
C269 C273 1.387 . S
C269 C274 1.491 . S
H270 C271 0.950 . S
C271 C268 1.390 . S
C271 H270 0.950 . S
C271 C272 1.378 . S
C272 C271 1.378 . S
C272 C273 1.409 . S
C273 C269 1.387 . S
C273 C272 1.409 . S
C273 H275 0.951 . S
C274 C269 1.491 . S
C274 C276 1.382 . S
C274 C278 1.404 . S
H275 C273 0.951 . S
C276 C274 1.382 . S
C276 C277 1.390 . S
C276 H281 0.949 . S
C277 C276 1.390 . S
C277 C282 1.399 . S
C278 C274 1.404 . S
C278 H279 0.950 . S
C278 C280 1.375 . S
H279 C278 0.950 . S
C280 C278 1.375 . S
C280 C282 1.382 . S
C280 H284 0.950 . S
H281 C276 0.949 . S
C282 C277 1.399 . S
C282 C280 1.382 . S
C282 H283 0.952 . S
H283 C282 0.952 . S
H284 C280 0.950 . S
H285 C286 0.949 . S
C286 H285 0.949 . S
C286 C287 1.395 . S
C286 C288 1.391 . S
C287 C286 1.395 . S
C287 C290 1.390 . S
C288 C286 1.391 . S
C288 C292 1.387 . S
C288 C293 1.491 . S
H289 C290 0.950 . S
C290 C287 1.390 . S
C290 H289 0.950 . S
C290 C291 1.378 . S
C291 C290 1.378 . S
C291 C292 1.409 . S
C292 C288 1.387 . S
C292 C291 1.409 . S
C292 H294 0.951 . S
C293 C288 1.491 . S
C293 C295 1.382 . S
C293 C297 1.404 . S
H294 C292 0.951 . S
C295 C293 1.382 . S
C295 C296 1.390 . S
C295 H300 0.949 . S
C296 C295 1.390 . S
C296 C301 1.399 . S
C297 C293 1.404 . S
C297 H298 0.950 . S
C297 C299 1.375 . S
H298 C297 0.950 . S
C299 C297 1.375 . S
C299 C301 1.382 . S
C299 H303 0.950 . S
H300 C295 0.949 . S
C301 C296 1.399 . S
C301 C299 1.382 . S
C301 H302 0.952 . S
H302 C301 0.952 . S
H303 C299 0.950 . S
H304 C305 0.949 . S
C305 H304 0.949 . S
C305 C306 1.395 . S
C305 C307 1.391 . S
C306 C305 1.395 . S
C306 C309 1.390 . S
C307 C305 1.391 . S
C307 C311 1.387 . S
C307 C312 1.491 . S
H308 C309 0.950 . S
C309 C306 1.390 . S
C309 H308 0.950 . S
C309 C310 1.378 . S
C310 C309 1.378 . S
C310 C311 1.409 . S
C311 C307 1.387 . S
C311 C310 1.409 . S
C311 H313 0.951 . S
C312 C307 1.491 . S
C312 C314 1.382 . S
C312 C316 1.404 . S
H313 C311 0.951 . S
C314 C312 1.382 . S
C314 C315 1.390 . S
C314 H319 0.949 . S
C315 C314 1.390 . S
C315 C320 1.399 . S
C316 C312 1.404 . S
C316 H317 0.950 . S
C316 C318 1.375 . S
H317 C316 0.950 . S
C318 C316 1.375 . S
C318 C320 1.382 . S
C318 H322 0.950 . S
H319 C314 0.949 . S
C320 C315 1.399 . S
C320 C318 1.382 . S
C320 H321 0.952 . S
H321 C320 0.952 . S
H322 C318 0.950 . S
H323 C324 0.949 . S
C324 H323 0.949 . S
C324 C325 1.395 . S
C324 C326 1.391 . S
C325 C324 1.395 . S
C325 C328 1.390 . S
C326 C324 1.391 . S
C326 C330 1.387 . S
C326 C331 1.491 . S
H327 C328 0.950 . S
C328 C325 1.390 . S
C328 H327 0.950 . S
C328 C329 1.378 . S
C329 C328 1.378 . S
C329 C330 1.409 . S
C330 C326 1.387 . S
C330 C329 1.409 . S
C330 H332 0.951 . S
C331 C326 1.491 . S
C331 C333 1.382 . S
C331 C335 1.404 . S
H332 C330 0.951 . S
C333 C331 1.382 . S
C333 C334 1.390 . S
C333 H338 0.949 . S
C334 C333 1.390 . S
C334 C339 1.399 . S
C335 C331 1.404 . S
C335 H336 0.950 . S
C335 C337 1.375 . S
H336 C335 0.950 . S
C337 C335 1.375 . S
C337 C339 1.382 . S
C337 H341 0.950 . S
H338 C333 0.949 . S
C339 C334 1.399 . S
C339 C337 1.382 . S
C339 H340 0.952 . S
H340 C339 0.952 . S
H341 C337 0.950 . S
Gd342 N373 2.661 . S
Gd342 N379 2.601 . S
Gd342 O386 2.545 . S
Gd342 O387 2.606 1_545 S
Gd342 O389 2.429 . S
Gd342 O390 2.545 1_545 S
Gd342 O391 2.412 1_545 S
Gd342 O393 2.362 . S
Gd342 O394 2.324 1_545 S
Gd342 C401 2.831 . S
Gd343 N352 2.661 . S
Gd343 N356 2.601 . S
Gd343 O387 2.362 1_556 S
Gd343 O388 2.324 1_565 S
Gd343 O392 2.545 . S
Gd343 O393 2.606 1_566 S
Gd343 O395 2.429 . S
Gd343 O396 2.545 1_565 S
Gd343 O397 2.412 1_565 S
Gd343 C410 2.828 1_565 S
C344 C347 1.417 . S
C344 C349 1.431 . S
C344 C350 1.412 . S
C345 C348 1.437 . S
C345 C349 1.317 . S
C345 H364 0.929 . S
C346 C347 1.426 . S
C346 C348 1.413 . S
C346 N356 1.359 . S
C347 C344 1.417 . S
C347 C346 1.426 . S
C347 N352 1.350 . S
C348 C345 1.437 . S
C348 C346 1.413 . S
C348 C358 1.391 . S
C349 C344 1.431 . S
C349 C345 1.317 . S
C349 H360 0.930 . S
C350 C344 1.412 . S
C350 C351 1.355 . S
C350 H362 0.930 . S
C351 C350 1.355 . S
C351 C353 1.402 . S
C351 H363 0.930 . S
N352 Gd343 2.661 . S
N352 C347 1.350 . S
N352 C353 1.307 . S
C353 C351 1.402 . S
C353 N352 1.307 . S
C353 H354 0.930 1_565 S
H354 C353 0.930 1_545 S
C355 N356 1.334 . S
C355 C357 1.394 . S
C355 H359 0.930 . S
N356 Gd343 2.601 . S
N356 C346 1.359 . S
N356 C355 1.334 . S
C357 C355 1.394 . S
C357 C358 1.359 . S
C357 H369 0.930 . S
C358 C348 1.391 . S
C358 C357 1.359 . S
C358 H370 0.929 . S
H359 C355 0.930 . S
H360 C349 0.930 . S
H361 C378 0.930 . S
H362 C350 0.930 . S
H363 C351 0.930 . S
H364 C345 0.929 . S
H365 C383 0.930 . S
H366 C374 0.930 . S
H367 C375 0.930 . S
H368 C399 0.929 . S
H369 C357 0.930 . S
H370 C358 0.929 . S
H371 C400 0.930 . S
H372 C381 0.930 . S
N373 Gd342 2.661 . S
N373 C377 1.350 . S
N373 C378 1.307 . S
C374 H366 0.930 . S
C374 C375 1.355 . S
C374 C376 1.412 . S
C375 H367 0.930 . S
C375 C374 1.355 . S
C375 C378 1.402 . S
C376 C374 1.412 . S
C376 C377 1.417 . S
C376 C400 1.431 . S
C377 N373 1.350 . S
C377 C376 1.417 . S
C377 C380 1.426 . S
C378 H361 0.930 . S
C378 N373 1.307 . S
C378 C375 1.402 . S
N379 Gd342 2.601 . S
N379 C380 1.359 . S
N379 C383 1.334 . S
C380 C377 1.426 . S
C380 N379 1.359 . S
C380 C384 1.413 . S
C381 H372 0.930 . S
C381 C382 1.359 . S
C381 C383 1.394 . S
C382 C381 1.359 . S
C382 C384 1.391 . S
C382 H385 0.929 . S
C383 H365 0.930 . S
C383 N379 1.334 . S
C383 C381 1.394 . S
C384 C380 1.413 . S
C384 C382 1.391 . S
C384 C399 1.437 . S
H385 C382 0.929 . S
O386 Gd342 2.545 . S
O386 C401 1.274 . S
O387 Gd342 2.606 1_565 S
O387 Gd343 2.362 1_554 S
O387 C398 1.284 . S
O388 Gd343 2.324 1_545 S
O388 C408 1.254 1_556 S
O389 Gd342 2.429 . S
O389 C408 1.268 . S
O390 Gd342 2.545 1_565 S
O390 C398 1.250 . S
O391 Gd342 2.412 1_565 S
O391 C401 1.239 1_565 S
O392 Gd343 2.545 . S
O392 C410 1.258 1_565 S
O393 Gd342 2.362 . S
O393 Gd343 2.606 1_544 S
O393 C409 1.284 1_554 S
O394 Gd342 2.324 1_565 S
O394 C417 1.254 . S
O395 Gd343 2.429 . S
O395 C417 1.268 1_556 S
O396 Gd343 2.545 1_545 S
O396 C409 1.250 . S
O397 Gd343 2.412 1_545 S
O397 C410 1.252 . S
C398 O387 1.284 . S
C398 O390 1.250 . S
C399 H368 0.929 . S
C399 C384 1.437 . S
C399 C400 1.317 . S
C400 H371 0.930 . S
C400 C376 1.431 . S
C400 C399 1.317 . S
C401 Gd342 2.831 . S
C401 O386 1.274 . S
C401 O391 1.239 1_545 S
C401 C402 1.493 1_545 S
C402 C401 1.493 1_565 S
C402 C403 1.395 1_565 S
C402 C404 1.380 . S
C403 C402 1.395 1_545 S
C403 C406 1.398 1_545 S
C403 H418 0.930 . S
C404 C402 1.380 . S
C404 C405 1.391 . S
C404 H419 0.930 . S
C405 C404 1.391 . S
C405 C407 1.387 . S
C406 C403 1.398 1_565 S
C406 C407 1.380 . S
C406 H420 0.930 1_565 S
C407 C405 1.387 . S
C407 C406 1.380 . S
C407 H421 0.930 . S
C408 O388 1.254 1_554 S
C408 O389 1.268 . S
C409 O393 1.284 1_556 S
C409 O396 1.250 . S
C410 Gd343 2.828 1_545 S
C410 O392 1.258 1_545 S
C410 O397 1.252 . S
C410 C411 1.497 . S
C411 C410 1.497 . S
C411 C412 1.440 . S
C411 C413 1.380 . S
C412 C411 1.440 . S
C412 C415 1.413 . S
C412 H422 0.872 1_545 S
C413 C411 1.380 . S
C413 C414 1.391 . S
C413 H423 0.930 . S
C414 C413 1.391 . S
C414 C416 1.387 . S
C415 C412 1.413 . S
C415 C416 1.380 . S
C415 H424 0.921 1_545 S
C416 C414 1.387 . S
C416 C415 1.380 . S
C416 H425 0.930 . S
C417 O394 1.254 . S
C417 O395 1.268 1_554 S
H418 C403 0.930 . S
H419 C404 0.930 . S
H420 C406 0.930 1_545 S
H421 C407 0.930 . S
H422 C412 0.872 1_565 S
H423 C413 0.930 . S
H424 C415 0.921 1_565 S
H425 C416 0.930 . S
Gd426 N457 2.661 . S
Gd426 N463 2.601 . S
Gd426 O470 2.545 . S
Gd426 O471 2.606 1_655 S
Gd426 O473 2.429 . S
Gd426 O474 2.545 1_655 S
Gd426 O475 2.412 1_655 S
Gd426 O477 2.362 . S
Gd426 O478 2.324 1_655 S
Gd426 C485 2.828 1_655 S
Gd427 N436 2.661 . S
Gd427 N440 2.601 . S
Gd427 O471 2.362 1_556 S
Gd427 O472 2.324 1_455 S
Gd427 O476 2.545 . S
Gd427 O477 2.606 1_456 S
Gd427 O479 2.429 . S
Gd427 O480 2.545 1_455 S
Gd427 O481 2.412 1_455 S
Gd427 C494 2.828 . S
C428 C431 1.417 . S
C428 C433 1.431 . S
C428 C434 1.412 . S
C429 C432 1.437 . S
C429 C433 1.317 . S
C429 H448 0.929 . S
C430 C431 1.426 . S
C430 C432 1.413 . S
C430 N440 1.359 . S
C431 C428 1.417 . S
C431 C430 1.426 . S
C431 N436 1.350 . S
C432 C429 1.437 . S
C432 C430 1.413 . S
C432 C442 1.391 . S
C433 C428 1.431 . S
C433 C429 1.317 . S
C433 H444 0.930 . S
C434 C428 1.412 . S
C434 C435 1.355 . S
C434 H446 0.930 . S
C435 C434 1.355 . S
C435 C437 1.402 . S
C435 H447 0.930 . S
N436 Gd427 2.661 . S
N436 C431 1.350 . S
N436 C437 1.307 . S
C437 C435 1.402 . S
C437 N436 1.307 . S
C437 H438 0.930 . S
H438 C437 0.930 . S
C439 N440 1.334 . S
C439 C441 1.394 . S
C439 H443 0.930 . S
N440 Gd427 2.601 . S
N440 C430 1.359 . S
N440 C439 1.334 . S
C441 C439 1.394 . S
C441 C442 1.359 . S
C441 H453 0.930 . S
C442 C432 1.391 . S
C442 C441 1.359 . S
C442 H454 0.929 . S
H443 C439 0.930 . S
H444 C433 0.930 . S
H445 C462 0.930 1_455 S
H446 C434 0.930 . S
H447 C435 0.930 . S
H448 C429 0.929 . S
H449 C467 0.930 . S
H450 C458 0.930 . S
H451 C459 0.930 . S
H452 C483 0.929 . S
H453 C441 0.930 . S
H454 C442 0.929 . S
H455 C484 0.930 . S
H456 C465 0.930 . S
N457 Gd426 2.661 . S
N457 C461 1.350 . S
N457 C462 1.307 . S
C458 H450 0.930 . S
C458 C459 1.355 . S
C458 C460 1.412 . S
C459 H451 0.930 . S
C459 C458 1.355 . S
C459 C462 1.402 . S
C460 C458 1.412 . S
C460 C461 1.417 . S
C460 C484 1.431 . S
C461 N457 1.350 . S
C461 C460 1.417 . S
C461 C464 1.426 . S
C462 H445 0.930 1_655 S
C462 N457 1.307 . S
C462 C459 1.402 . S
N463 Gd426 2.601 . S
N463 C464 1.359 . S
N463 C467 1.334 . S
C464 C461 1.426 . S
C464 N463 1.359 . S
C464 C468 1.413 . S
C465 H456 0.930 . S
C465 C466 1.359 . S
C465 C467 1.394 . S
C466 C465 1.359 . S
C466 C468 1.391 . S
C466 H469 0.929 . S
C467 H449 0.930 . S
C467 N463 1.334 . S
C467 C465 1.394 . S
C468 C464 1.413 . S
C468 C466 1.391 . S
C468 C483 1.437 . S
H469 C466 0.929 . S
O470 Gd426 2.545 . S
O470 C485 1.258 1_655 S
O471 Gd426 2.606 1_455 S
O471 Gd427 2.362 1_554 S
O471 C482 1.284 . S
O472 Gd427 2.324 1_655 S
O472 C492 1.254 1_556 S
O473 Gd426 2.429 . S
O473 C492 1.268 . S
O474 Gd426 2.545 1_455 S
O474 C482 1.250 . S
O475 Gd426 2.412 1_455 S
O475 C485 1.252 . S
O476 Gd427 2.545 . S
O476 C494 1.258 . S
O477 Gd426 2.362 . S
O477 Gd427 2.606 1_654 S
O477 C493 1.284 1_554 S
O478 Gd426 2.324 1_455 S
O478 C501 1.254 . S
O479 Gd427 2.429 . S
O479 C501 1.268 1_556 S
O480 Gd427 2.545 1_655 S
O480 C493 1.250 . S
O481 Gd427 2.412 1_655 S
O481 C494 1.252 1_655 S
C482 O471 1.284 . S
C482 O474 1.250 . S
C483 H452 0.929 . S
C483 C468 1.437 . S
C483 C484 1.317 . S
C484 H455 0.930 . S
C484 C460 1.431 . S
C484 C483 1.317 . S
C485 Gd426 2.828 1_455 S
C485 O470 1.258 1_455 S
C485 O475 1.252 . S
C485 C486 1.497 . S
C486 C485 1.497 . S
C486 C487 1.391 1_455 S
C486 C488 1.380 . S
C487 C486 1.391 1_655 S
C487 C490 1.393 1_655 S
C487 H502 0.939 . S
C488 C486 1.380 . S
C488 C489 1.391 . S
C488 H503 0.930 . S
C489 C488 1.391 . S
C489 C491 1.387 . S
C490 C487 1.393 1_455 S
C490 C491 1.380 . S
C490 H504 0.930 1_455 S
C491 C489 1.387 . S
C491 C490 1.380 . S
C491 H505 0.930 . S
C492 O472 1.254 1_554 S
C492 O473 1.268 . S
C493 O477 1.284 1_556 S
C493 O480 1.250 . S
C494 Gd427 2.828 . S
C494 O476 1.258 . S
C494 O481 1.252 1_455 S
C494 C495 1.497 1_455 S
C495 C494 1.497 1_655 S
C495 C496 1.395 1_655 S
C495 C497 1.380 . S
C496 C495 1.395 1_455 S
C496 C499 1.398 . S
C496 H506 0.930 . S
C497 C495 1.380 . S
C497 C498 1.391 . S
C497 H507 0.930 . S
C498 C497 1.391 . S
C498 C500 1.387 . S
C499 C496 1.398 . S
C499 C500 1.380 1_455 S
C499 H508 0.930 . S
C500 C498 1.387 . S
C500 C499 1.380 1_655 S
C500 H509 0.930 . S
C501 O478 1.254 . S
C501 O479 1.268 1_554 S
H502 C487 0.939 . S
H503 C488 0.930 . S
H504 C490 0.930 1_655 S
H505 C491 0.930 . S
H506 C496 0.930 . S
H507 C497 0.930 . S
H508 C499 0.930 . S
H509 C500 0.930 . S
Gd510 N541 2.661 . S
Gd510 N547 2.601 . S
Gd510 O554 2.545 . S
Gd510 O555 2.606 1_556 S
Gd510 O557 2.426 . S
Gd510 O558 2.545 . S
Gd510 O559 2.412 . S
Gd510 O561 2.362 1_556 S
Gd510 O562 2.324 . S
Gd510 C569 2.828 . S
Gd511 N520 2.661 . S
Gd511 N524 2.601 . S
Gd511 O555 2.362 . S
Gd511 O556 2.324 . S
Gd511 O560 2.545 . S
Gd511 O561 2.606 . S
Gd511 O563 2.429 . S
Gd511 O564 2.545 . S
Gd511 O565 2.412 . S
Gd511 C578 2.828 . S
C512 C515 1.417 . S
C512 C517 1.431 . S
C512 C518 1.412 . S
C513 C516 1.437 . S
C513 C517 1.317 . S
C513 H532 0.929 . S
C514 C515 1.426 . S
C514 C516 1.413 . S
C514 N524 1.359 . S
C515 C512 1.417 . S
C515 C514 1.426 . S
C515 N520 1.350 . S
C516 C513 1.437 . S
C516 C514 1.413 . S
C516 C526 1.391 . S
C517 C512 1.431 . S
C517 C513 1.317 . S
C517 H528 0.930 . S
C518 C512 1.412 . S
C518 C519 1.355 . S
C518 H530 0.930 . S
C519 C518 1.355 . S
C519 C521 1.402 . S
C519 H531 0.930 . S
N520 Gd511 2.661 . S
N520 C515 1.350 . S
N520 C521 1.307 . S
C521 C519 1.402 . S
C521 N520 1.307 . S
C521 H522 0.930 . S
H522 C521 0.930 . S
C523 N524 1.334 . S
C523 C525 1.394 . S
C523 H527 0.930 . S
N524 Gd511 2.601 . S
N524 C514 1.359 . S
N524 C523 1.334 . S
C525 C523 1.394 . S
C525 C526 1.359 . S
C525 H537 0.930 . S
C526 C516 1.391 . S
C526 C525 1.359 . S
C526 H538 0.929 . S
H527 C523 0.930 . S
H528 C517 0.930 . S
H529 C546 0.930 . S
H530 C518 0.930 . S
H531 C519 0.930 . S
H532 C513 0.929 . S
H533 C551 0.930 . S
H534 C542 0.930 . S
H535 C543 0.930 . S
H536 C567 0.929 . S
H537 C525 0.930 . S
H538 C526 0.929 . S
H539 C568 0.930 . S
H540 C549 0.930 . S
N541 Gd510 2.661 . S
N541 C545 1.350 . S
N541 C546 1.307 . S
C542 H534 0.930 . S
C542 C543 1.355 . S
C542 C544 1.412 . S
C543 H535 0.930 . S
C543 C542 1.355 . S
C543 C546 1.402 . S
C544 C542 1.412 . S
C544 C545 1.417 . S
C544 C568 1.431 . S
C545 N541 1.350 . S
C545 C544 1.417 . S
C545 C548 1.426 . S
C546 H529 0.930 . S
C546 N541 1.307 . S
C546 C543 1.402 . S
N547 Gd510 2.601 . S
N547 C548 1.359 . S
N547 C551 1.334 . S
C548 C545 1.426 . S
C548 N547 1.359 . S
C548 C552 1.413 . S
C549 H540 0.930 . S
C549 C550 1.359 . S
C549 C551 1.394 . S
C550 C549 1.359 . S
C550 C552 1.391 . S
C550 H553 0.929 . S
C551 H533 0.930 . S
C551 N547 1.334 . S
C551 C549 1.394 . S
C552 C548 1.413 . S
C552 C550 1.391 . S
C552 C567 1.437 . S
H553 C550 0.929 . S
O554 Gd510 2.545 . S
O554 C569 1.258 . S
O555 Gd510 2.606 1_554 S
O555 Gd511 2.362 . S
O555 C566 1.284 1_554 S
O556 Gd511 2.324 . S
O556 C576 1.254 . S
O557 Gd510 2.426 . S
O557 C576 1.274 1_556 S
O558 Gd510 2.545 . S
O558 C566 1.250 . S
O559 Gd510 2.412 . S
O559 C569 1.252 . S
O560 Gd511 2.545 . S
O560 C578 1.258 . S
O561 Gd510 2.362 1_554 S
O561 Gd511 2.606 . S
O561 C577 1.284 . S
O562 Gd510 2.324 . S
O562 C585 1.254 1_556 S
O563 Gd511 2.429 . S
O563 C585 1.268 . S
O564 Gd511 2.545 . S
O564 C577 1.250 . S
O565 Gd511 2.412 . S
O565 C578 1.252 . S
C566 O555 1.284 1_556 S
C566 O558 1.250 . S
C567 H536 0.929 . S
C567 C552 1.437 . S
C567 C568 1.317 . S
C568 H539 0.930 . S
C568 C544 1.431 . S
C568 C567 1.317 . S
C569 Gd510 2.828 . S
C569 O554 1.258 . S
C569 O559 1.252 . S
C569 C570 1.497 . S
C570 C569 1.497 . S
C570 C571 1.395 . S
C570 C572 1.380 . S
C571 C570 1.395 . S
C571 C574 1.398 . S
C571 H586 0.930 . S
C572 C570 1.380 . S
C572 C573 1.391 . S
C572 H587 0.930 . S
C573 C572 1.391 . S
C573 C575 1.387 . S
C574 C571 1.398 . S
C574 C575 1.380 . S
C574 H588 0.930 . S
C575 C573 1.387 . S
C575 C574 1.380 . S
C575 H589 0.930 . S
C576 O556 1.254 . S
C576 O557 1.274 1_554 S
C577 O561 1.284 . S
C577 O564 1.250 . S
C578 Gd511 2.828 . S
C578 O560 1.258 . S
C578 O565 1.252 . S
C578 C579 1.497 . S
C579 C578 1.497 . S
C579 C580 1.395 . S
C579 C581 1.380 . S
C580 C579 1.395 . S
C580 C583 1.398 . S
C580 H590 0.930 . S
C581 C579 1.380 . S
C581 C582 1.391 . S
C581 H591 0.930 . S
C582 C581 1.391 . S
C582 C584 1.387 . S
C583 C580 1.398 . S
C583 C584 1.380 . S
C583 H592 0.930 . S
C584 C582 1.387 . S
C584 C583 1.380 . S
C584 H593 0.930 . S
C585 O562 1.254 1_554 S
C585 O563 1.268 . S
H586 C571 0.930 . S
H587 C572 0.930 . S
H588 C574 0.930 . S
H589 C575 0.930 . S
H590 C580 0.930 . S
H591 C581 0.930 . S
H592 C583 0.930 . S
H593 C584 0.930 . S
Gd594 N625 2.661 . S
Gd594 N631 2.601 . S
Gd594 O638 2.545 . S
Gd594 O639 2.606 . S
Gd594 O641 2.429 . S
Gd594 O642 2.545 . S
Gd594 O643 2.412 . S
Gd594 O645 2.362 . S
Gd594 O646 2.324 . S
Gd594 C653 2.828 . S
Gd595 N604 2.661 . S
Gd595 N608 2.601 . S
Gd595 O639 2.362 . S
Gd595 O640 2.324 . S
Gd595 O644 2.545 . S
Gd595 O645 2.606 . S
Gd595 O647 2.429 . S
Gd595 O648 2.545 . S
Gd595 O649 2.412 . S
Gd595 C662 2.828 . S
C596 C599 1.417 . S
C596 C601 1.431 . S
C596 C602 1.412 . S
C597 C600 1.437 . S
C597 C601 1.317 . S
C597 H616 0.929 . S
C598 C599 1.426 . S
C598 C600 1.413 . S
C598 N608 1.359 . S
C599 C596 1.417 . S
C599 C598 1.426 . S
C599 N604 1.350 . S
C600 C597 1.437 . S
C600 C598 1.413 . S
C600 C610 1.391 . S
C601 C596 1.431 . S
C601 C597 1.317 . S
C601 H612 0.930 . S
C602 C596 1.412 . S
C602 C603 1.355 . S
C602 H614 0.930 . S
C603 C602 1.355 . S
C603 C605 1.402 . S
C603 H615 0.930 . S
N604 Gd595 2.661 . S
N604 C599 1.350 . S
N604 C605 1.307 . S
C605 C603 1.402 . S
C605 N604 1.307 . S
C605 H606 0.930 . S
H606 C605 0.930 . S
C607 N608 1.334 . S
C607 C609 1.394 . S
C607 H611 0.930 . S
N608 Gd595 2.601 . S
N608 C598 1.359 . S
N608 C607 1.334 . S
C609 C607 1.394 . S
C609 C610 1.359 . S
C609 H621 0.930 . S
C610 C600 1.391 . S
C610 C609 1.359 . S
C610 H622 0.929 . S
H611 C607 0.930 . S
H612 C601 0.930 . S
H613 C630 0.930 . S
H614 C602 0.930 . S
H615 C603 0.930 . S
H616 C597 0.929 . S
H617 C635 0.930 . S
H618 C626 0.930 . S
H619 C627 0.930 . S
H620 C651 0.929 . S
H621 C609 0.930 . S
H622 C610 0.929 . S
H623 C652 0.930 . S
H624 C633 0.930 . S
N625 Gd594 2.661 . S
N625 C629 1.350 . S
N625 C630 1.307 . S
C626 H618 0.930 . S
C626 C627 1.355 . S
C626 C628 1.412 . S
C627 H619 0.930 . S
C627 C626 1.355 . S
C627 C630 1.402 . S
C628 C626 1.412 . S
C628 C629 1.417 . S
C628 C652 1.431 . S
C629 N625 1.350 . S
C629 C628 1.417 . S
C629 C632 1.426 . S
C630 H613 0.930 . S
C630 N625 1.307 . S
C630 C627 1.402 . S
N631 Gd594 2.601 . S
N631 C632 1.359 . S
N631 C635 1.334 . S
C632 C629 1.426 . S
C632 N631 1.359 . S
C632 C636 1.413 . S
C633 H624 0.930 . S
C633 C634 1.359 . S
C633 C635 1.394 . S
C634 C633 1.359 . S
C634 C636 1.391 . S
C634 H637 0.929 . S
C635 H617 0.930 . S
C635 N631 1.334 . S
C635 C633 1.394 . S
C636 C632 1.413 . S
C636 C634 1.391 . S
C636 C651 1.437 . S
H637 C634 0.929 . S
O638 Gd594 2.545 . S
O638 C653 1.258 . S
O639 Gd594 2.606 . S
O639 Gd595 2.362 . S
O639 C650 1.284 . S
O640 Gd595 2.324 . S
O640 C660 1.254 . S
O641 Gd594 2.429 . S
O641 C660 1.268 . S
O642 Gd594 2.545 . S
O642 C650 1.250 . S
O643 Gd594 2.412 . S
O643 C653 1.252 . S
O644 Gd595 2.545 . S
O644 C662 1.258 . S
O645 Gd594 2.362 . S
O645 Gd595 2.606 . S
O645 C661 1.284 . S
O646 Gd594 2.324 . S
O646 C669 1.254 . S
O647 Gd595 2.429 . S
O647 C669 1.268 . S
O648 Gd595 2.545 . S
O648 C661 1.250 . S
O649 Gd595 2.412 . S
O649 C662 1.252 . S
C650 O639 1.284 . S
C650 O642 1.250 . S
C651 H620 0.929 . S
C651 C636 1.437 . S
C651 C652 1.317 . S
C652 H623 0.930 . S
C652 C628 1.431 . S
C652 C651 1.317 . S
C653 Gd594 2.828 . S
C653 O638 1.258 . S
C653 O643 1.252 . S
C653 C654 1.497 . S
C654 C653 1.497 . S
C654 C655 1.395 . S
C654 C656 1.380 . S
C655 C654 1.395 . S
C655 C658 1.398 . S
C655 H670 0.930 . S
C656 C654 1.380 . S
C656 C657 1.391 . S
C656 H671 0.930 . S
C657 C656 1.391 . S
C657 C659 1.387 . S
C658 C655 1.398 . S
C658 C659 1.380 . S
C658 H672 0.930 . S
C659 C657 1.387 . S
C659 C658 1.380 . S
C659 H673 0.930 . S
C660 O640 1.254 . S
C660 O641 1.268 . S
C661 O645 1.284 . S
C661 O648 1.250 . S
C662 Gd595 2.828 . S
C662 O644 1.258 . S
C662 O649 1.252 . S
C662 C663 1.497 . S
C663 C662 1.497 . S
C663 C664 1.395 . S
C663 C665 1.380 . S
C664 C663 1.395 . S
C664 C667 1.398 . S
C664 H674 0.930 . S
C665 C663 1.380 . S
C665 C666 1.391 . S
C665 H675 0.930 . S
C666 C665 1.391 . S
C666 C668 1.387 . S
C667 C664 1.398 . S
C667 C668 1.380 . S
C667 H676 0.930 . S
C668 C666 1.387 . S
C668 C667 1.380 . S
C668 H677 0.930 . S
C669 O646 1.254 . S
C669 O647 1.268 . S
H670 C655 0.930 . S
H671 C656 0.930 . S
H672 C658 0.930 . S
H673 C659 0.930 . S
H674 C664 0.930 . S
H675 C665 0.930 . S
H676 C667 0.930 . S
H677 C668 0.930 . S
Gd678 N709 2.661 . S
Gd678 N715 2.601 . S
Gd678 O722 2.545 . S
Gd678 O723 2.606 . S
Gd678 O725 2.429 . S
Gd678 O726 2.545 . S
Gd678 O727 2.412 . S
Gd678 O729 2.362 . S
Gd678 O730 2.324 . S
Gd678 C737 2.828 . S
Gd679 N688 2.661 . S
Gd679 N692 2.601 . S
Gd679 O723 2.362 . S
Gd679 O724 2.324 . S
Gd679 O728 2.545 . S
Gd679 O729 2.606 . S
Gd679 O731 2.429 . S
Gd679 O732 2.545 . S
Gd679 O733 2.412 . S
Gd679 C746 2.828 . S
C680 C683 1.417 . S
C680 C685 1.431 . S
C680 C686 1.412 . S
C681 C684 1.437 . S
C681 C685 1.317 . S
C681 H700 0.929 . S
C682 C683 1.426 . S
C682 C684 1.413 . S
C682 N692 1.359 . S
C683 C680 1.417 . S
C683 C682 1.426 . S
C683 N688 1.350 . S
C684 C681 1.437 . S
C684 C682 1.413 . S
C684 C694 1.391 . S
C685 C680 1.431 . S
C685 C681 1.317 . S
C685 H696 0.930 . S
C686 C680 1.412 . S
C686 C687 1.355 . S
C686 H698 0.930 . S
C687 C686 1.355 . S
C687 C689 1.402 . S
C687 H699 0.930 . S
N688 Gd679 2.661 . S
N688 C683 1.350 . S
N688 C689 1.307 . S
C689 C687 1.402 . S
C689 N688 1.307 . S
C689 H690 0.930 . S
H690 C689 0.930 . S
C691 N692 1.334 . S
C691 C693 1.394 . S
C691 H695 0.930 . S
N692 Gd679 2.601 . S
N692 C682 1.359 . S
N692 C691 1.334 . S
C693 C691 1.394 . S
C693 C694 1.359 . S
C693 H705 0.930 . S
C694 C684 1.391 . S
C694 C693 1.359 . S
C694 H706 0.929 . S
H695 C691 0.930 . S
H696 C685 0.930 . S
H697 C714 0.930 . S
H698 C686 0.930 . S
H699 C687 0.930 . S
H700 C681 0.929 . S
H701 C719 0.930 . S
H702 C710 0.930 . S
H703 C711 0.930 . S
H704 C735 0.929 . S
H705 C693 0.930 . S
H706 C694 0.929 . S
H707 C736 0.930 . S
H708 C717 0.930 . S
N709 Gd678 2.661 . S
N709 C713 1.350 . S
N709 C714 1.307 . S
C710 H702 0.930 . S
C710 C711 1.355 . S
C710 C712 1.412 . S
C711 H703 0.930 . S
C711 C710 1.355 . S
C711 C714 1.402 . S
C712 C710 1.412 . S
C712 C713 1.417 . S
C712 C736 1.431 . S
C713 N709 1.350 . S
C713 C712 1.417 . S
C713 C716 1.426 . S
C714 H697 0.930 . S
C714 N709 1.307 . S
C714 C711 1.402 . S
N715 Gd678 2.601 . S
N715 C716 1.359 . S
N715 C719 1.334 . S
C716 C713 1.426 . S
C716 N715 1.359 . S
C716 C720 1.413 . S
C717 H708 0.930 . S
C717 C718 1.359 . S
C717 C719 1.394 . S
C718 C717 1.359 . S
C718 C720 1.391 . S
C718 H721 0.929 . S
C719 H701 0.930 . S
C719 N715 1.334 . S
C719 C717 1.394 . S
C720 C716 1.413 . S
C720 C718 1.391 . S
C720 C735 1.437 . S
H721 C718 0.929 . S
O722 Gd678 2.545 . S
O722 C737 1.258 . S
O723 Gd678 2.606 . S
O723 Gd679 2.362 . S
O723 C734 1.284 . S
O724 Gd679 2.324 . S
O724 C744 1.254 . S
O725 Gd678 2.429 . S
O725 C744 1.268 . S
O726 Gd678 2.545 . S
O726 C734 1.250 . S
O727 Gd678 2.412 . S
O727 C737 1.252 . S
O728 Gd679 2.545 . S
O728 C746 1.258 . S
O729 Gd678 2.362 . S
O729 Gd679 2.606 . S
O729 C745 1.284 . S
O730 Gd678 2.324 . S
O730 C753 1.254 . S
O731 Gd679 2.429 . S
O731 C753 1.268 . S
O732 Gd679 2.545 . S
O732 C745 1.250 . S
O733 Gd679 2.412 . S
O733 C746 1.252 . S
C734 O723 1.284 . S
C734 O726 1.250 . S
C735 H704 0.929 . S
C735 C720 1.437 . S
C735 C736 1.317 . S
C736 H707 0.930 . S
C736 C712 1.431 . S
C736 C735 1.317 . S
C737 Gd678 2.828 . S
C737 O722 1.258 . S
C737 O727 1.252 . S
C737 C738 1.497 . S
C738 C737 1.497 . S
C738 C739 1.395 . S
C738 C740 1.380 . S
C739 C738 1.395 . S
C739 C742 1.398 . S
C739 H754 0.930 . S
C740 C738 1.380 . S
C740 C741 1.391 . S
C740 H755 0.930 . S
C741 C740 1.391 . S
C741 C743 1.387 . S
C742 C739 1.398 . S
C742 C743 1.380 . S
C742 H756 0.930 . S
C743 C741 1.387 . S
C743 C742 1.380 . S
C743 H757 0.930 . S
C744 O724 1.254 . S
C744 O725 1.268 . S
C745 O729 1.284 . S
C745 O732 1.250 . S
C746 Gd679 2.828 . S
C746 O728 1.258 . S
C746 O733 1.252 . S
C746 C747 1.497 . S
C747 C746 1.497 . S
C747 C748 1.395 . S
C747 C749 1.380 . S
C748 C747 1.395 . S
C748 C751 1.398 . S
C748 H758 0.930 . S
C749 C747 1.380 . S
C749 C750 1.391 . S
C749 H759 0.930 . S
C750 C749 1.391 . S
C750 C752 1.387 . S
C751 C748 1.398 . S
C751 C752 1.380 . S
C751 H760 0.930 . S
C752 C750 1.387 . S
C752 C751 1.380 . S
C752 H761 0.930 . S
C753 O730 1.254 . S
C753 O731 1.268 . S
H754 C739 0.930 . S
H755 C740 0.930 . S
H756 C742 0.930 . S
H757 C743 0.930 . S
H758 C748 0.930 . S
H759 C749 0.930 . S
H760 C751 0.930 . S
H761 C752 0.930 . S
Gd762 N793 2.661 . S
Gd762 N799 2.601 . S
Gd762 O806 2.545 . S
Gd762 O807 2.606 . S
Gd762 O809 2.429 . S
Gd762 O810 2.545 . S
Gd762 O811 2.412 . S
Gd762 O813 2.362 . S
Gd762 O814 2.324 . S
Gd762 C821 2.828 . S
Gd763 N772 2.661 . S
Gd763 N776 2.601 . S
Gd763 O807 2.362 . S
Gd763 O808 2.324 . S
Gd763 O812 2.545 . S
Gd763 O813 2.606 . S
Gd763 O815 2.429 . S
Gd763 O816 2.545 . S
Gd763 O817 2.412 . S
Gd763 C830 2.828 . S
C764 C767 1.417 . S
C764 C769 1.431 . S
C764 C770 1.412 . S
C765 C768 1.437 . S
C765 C769 1.317 . S
C765 H784 0.929 . S
C766 C767 1.426 . S
C766 C768 1.413 . S
C766 N776 1.359 . S
C767 C764 1.417 . S
C767 C766 1.426 . S
C767 N772 1.350 . S
C768 C765 1.437 . S
C768 C766 1.413 . S
C768 C778 1.391 . S
C769 C764 1.431 . S
C769 C765 1.317 . S
C769 H780 0.930 . S
C770 C764 1.412 . S
C770 C771 1.355 . S
C770 H782 0.930 . S
C771 C770 1.355 . S
C771 C773 1.402 . S
C771 H783 0.930 . S
N772 Gd763 2.661 . S
N772 C767 1.350 . S
N772 C773 1.307 . S
C773 C771 1.402 . S
C773 N772 1.307 . S
C773 H774 0.930 . S
H774 C773 0.930 . S
C775 N776 1.334 . S
C775 C777 1.394 . S
C775 H779 0.930 . S
N776 Gd763 2.601 . S
N776 C766 1.359 . S
N776 C775 1.334 . S
C777 C775 1.394 . S
C777 C778 1.359 . S
C777 H789 0.930 . S
C778 C768 1.391 . S
C778 C777 1.359 . S
C778 H790 0.929 . S
H779 C775 0.930 . S
H780 C769 0.930 . S
H781 C798 0.930 . S
H782 C770 0.930 . S
H783 C771 0.930 . S
H784 C765 0.929 . S
H785 C803 0.930 . S
H786 C794 0.930 . S
H787 C795 0.930 . S
H788 C819 0.929 . S
H789 C777 0.930 . S
H790 C778 0.929 . S
H791 C820 0.930 . S
H792 C801 0.930 . S
N793 Gd762 2.661 . S
N793 C797 1.350 . S
N793 C798 1.307 . S
C794 H786 0.930 . S
C794 C795 1.355 . S
C794 C796 1.412 . S
C795 H787 0.930 . S
C795 C794 1.355 . S
C795 C798 1.402 . S
C796 C794 1.412 . S
C796 C797 1.417 . S
C796 C820 1.431 . S
C797 N793 1.350 . S
C797 C796 1.417 . S
C797 C800 1.426 . S
C798 H781 0.930 . S
C798 N793 1.307 . S
C798 C795 1.402 . S
N799 Gd762 2.601 . S
N799 C800 1.359 . S
N799 C803 1.334 . S
C800 C797 1.426 . S
C800 N799 1.359 . S
C800 C804 1.413 . S
C801 H792 0.930 . S
C801 C802 1.359 . S
C801 C803 1.394 . S
C802 C801 1.359 . S
C802 C804 1.391 . S
C802 H805 0.929 . S
C803 H785 0.930 . S
C803 N799 1.334 . S
C803 C801 1.394 . S
C804 C800 1.413 . S
C804 C802 1.391 . S
C804 C819 1.437 . S
H805 C802 0.929 . S
O806 Gd762 2.545 . S
O806 C821 1.258 . S
O807 Gd762 2.606 . S
O807 Gd763 2.362 . S
O807 C818 1.284 . S
O808 Gd763 2.324 . S
O808 C828 1.254 . S
O809 Gd762 2.429 . S
O809 C828 1.268 . S
O810 Gd762 2.545 . S
O810 C818 1.250 . S
O811 Gd762 2.412 . S
O811 C821 1.252 . S
O812 Gd763 2.545 . S
O812 C830 1.258 . S
O813 Gd762 2.362 . S
O813 Gd763 2.606 . S
O813 C829 1.284 . S
O814 Gd762 2.324 . S
O814 C837 1.254 . S
O815 Gd763 2.429 . S
O815 C837 1.268 . S
O816 Gd763 2.545 . S
O816 C829 1.250 . S
O817 Gd763 2.412 . S
O817 C830 1.252 . S
C818 O807 1.284 . S
C818 O810 1.250 . S
C819 H788 0.929 . S
C819 C804 1.437 . S
C819 C820 1.317 . S
C820 H791 0.930 . S
C820 C796 1.431 . S
C820 C819 1.317 . S
C821 Gd762 2.828 . S
C821 O806 1.258 . S
C821 O811 1.252 . S
C821 C822 1.497 . S
C822 C821 1.497 . S
C822 C823 1.395 . S
C822 C824 1.380 . S
C823 C822 1.395 . S
C823 C826 1.398 . S
C823 H838 0.930 . S
C824 C822 1.380 . S
C824 C825 1.391 . S
C824 H839 0.930 . S
C825 C824 1.391 . S
C825 C827 1.387 . S
C826 C823 1.398 . S
C826 C827 1.380 . S
C826 H840 0.930 . S
C827 C825 1.387 . S
C827 C826 1.380 . S
C827 H841 0.930 . S
C828 O808 1.254 . S
C828 O809 1.268 . S
C829 O813 1.284 . S
C829 O816 1.250 . S
C830 Gd763 2.828 . S
C830 O812 1.258 . S
C830 O817 1.252 . S
C830 C831 1.497 . S
C831 C830 1.497 . S
C831 C832 1.395 . S
C831 C833 1.380 . S
C832 C831 1.395 . S
C832 C835 1.398 . S
C832 H842 0.930 . S
C833 C831 1.380 . S
C833 C834 1.391 . S
C833 H843 0.930 . S
C834 C833 1.391 . S
C834 C836 1.387 . S
C835 C832 1.398 . S
C835 C836 1.380 . S
C835 H844 0.930 . S
C836 C834 1.387 . S
C836 C835 1.380 . S
C836 H845 0.930 . S
C837 O814 1.254 . S
C837 O815 1.268 . S
H838 C823 0.930 . S
H839 C824 0.930 . S
H840 C826 0.930 . S
H841 C827 0.930 . S
H842 C832 0.930 . S
H843 C833 0.930 . S
H844 C835 0.930 . S
H845 C836 0.930 . S
Gd846 N877 2.661 . S
Gd846 N883 2.601 . S
Gd846 O890 2.545 . S
Gd846 O891 2.606 . S
Gd846 O893 2.429 . S
Gd846 O894 2.545 . S
Gd846 O895 2.412 . S
Gd846 O897 2.362 . S
Gd846 O898 2.324 . S
Gd846 C905 2.828 . S
Gd847 N856 2.661 . S
Gd847 N860 2.601 . S
Gd847 O891 2.362 . S
Gd847 O892 2.324 . S
Gd847 O896 2.545 . S
Gd847 O897 2.606 . S
Gd847 O899 2.429 . S
Gd847 O900 2.545 . S
Gd847 O901 2.412 . S
Gd847 C914 2.828 . S
C848 C851 1.417 . S
C848 C853 1.431 . S
C848 C854 1.412 . S
C849 C852 1.437 . S
C849 C853 1.317 . S
C849 H868 0.929 . S
C850 C851 1.426 . S
C850 C852 1.413 . S
C850 N860 1.359 . S
C851 C848 1.417 . S
C851 C850 1.426 . S
C851 N856 1.350 . S
C852 C849 1.437 . S
C852 C850 1.413 . S
C852 C862 1.391 . S
C853 C848 1.431 . S
C853 C849 1.317 . S
C853 H864 0.930 . S
C854 C848 1.412 . S
C854 C855 1.355 . S
C854 H866 0.930 . S
C855 C854 1.355 . S
C855 C857 1.402 . S
C855 H867 0.930 . S
N856 Gd847 2.661 . S
N856 C851 1.350 . S
N856 C857 1.307 . S
C857 C855 1.402 . S
C857 N856 1.307 . S
C857 H858 0.930 . S
H858 C857 0.930 . S
C859 N860 1.334 . S
C859 C861 1.394 . S
C859 H863 0.930 . S
N860 Gd847 2.601 . S
N860 C850 1.359 . S
N860 C859 1.334 . S
C861 C859 1.394 . S
C861 C862 1.359 . S
C861 H873 0.930 . S
C862 C852 1.391 . S
C862 C861 1.359 . S
C862 H874 0.929 . S
H863 C859 0.930 . S
H864 C853 0.930 . S
H865 C882 0.930 . S
H866 C854 0.930 . S
H867 C855 0.930 . S
H868 C849 0.929 . S
H869 C887 0.930 . S
H870 C878 0.930 . S
H871 C879 0.930 . S
H872 C903 0.929 . S
H873 C861 0.930 . S
H874 C862 0.929 . S
H875 C904 0.930 . S
H876 C885 0.930 . S
N877 Gd846 2.661 . S
N877 C881 1.350 . S
N877 C882 1.307 . S
C878 H870 0.930 . S
C878 C879 1.355 . S
C878 C880 1.412 . S
C879 H871 0.930 . S
C879 C878 1.355 . S
C879 C882 1.402 . S
C880 C878 1.412 . S
C880 C881 1.417 . S
C880 C904 1.431 . S
C881 N877 1.350 . S
C881 C880 1.417 . S
C881 C884 1.426 . S
C882 H865 0.930 . S
C882 N877 1.307 . S
C882 C879 1.402 . S
N883 Gd846 2.601 . S
N883 C884 1.359 . S
N883 C887 1.334 . S
C884 C881 1.426 . S
C884 N883 1.359 . S
C884 C888 1.413 . S
C885 H876 0.930 . S
C885 C886 1.359 . S
C885 C887 1.394 . S
C886 C885 1.359 . S
C886 C888 1.391 . S
C886 H889 0.929 . S
C887 H869 0.930 . S
C887 N883 1.334 . S
C887 C885 1.394 . S
C888 C884 1.413 . S
C888 C886 1.391 . S
C888 C903 1.437 . S
H889 C886 0.929 . S
O890 Gd846 2.545 . S
O890 C905 1.258 . S
O891 Gd846 2.606 . S
O891 Gd847 2.362 . S
O891 C902 1.284 . S
O892 Gd847 2.324 . S
O892 C912 1.254 . S
O893 Gd846 2.429 . S
O893 C912 1.268 . S
O894 Gd846 2.545 . S
O894 C902 1.250 . S
O895 Gd846 2.412 . S
O895 C905 1.252 . S
O896 Gd847 2.545 . S
O896 C914 1.258 . S
O897 Gd846 2.362 . S
O897 Gd847 2.606 . S
O897 C913 1.284 . S
O898 Gd846 2.324 . S
O898 C921 1.254 . S
O899 Gd847 2.429 . S
O899 C921 1.268 . S
O900 Gd847 2.545 . S
O900 C913 1.250 . S
O901 Gd847 2.412 . S
O901 C914 1.252 . S
C902 O891 1.284 . S
C902 O894 1.250 . S
C903 H872 0.929 . S
C903 C888 1.437 . S
C903 C904 1.317 . S
C904 H875 0.930 . S
C904 C880 1.431 . S
C904 C903 1.317 . S
C905 Gd846 2.828 . S
C905 O890 1.258 . S
C905 O895 1.252 . S
C905 C906 1.497 . S
C906 C905 1.497 . S
C906 C907 1.395 . S
C906 C908 1.380 . S
C907 C906 1.395 . S
C907 C910 1.398 . S
C907 H922 0.930 . S
C908 C906 1.380 . S
C908 C909 1.391 . S
C908 H923 0.930 . S
C909 C908 1.391 . S
C909 C911 1.387 . S
C910 C907 1.398 . S
C910 C911 1.380 . S
C910 H924 0.930 . S
C911 C909 1.387 . S
C911 C910 1.380 . S
C911 H925 0.930 . S
C912 O892 1.254 . S
C912 O893 1.268 . S
C913 O897 1.284 . S
C913 O900 1.250 . S
C914 Gd847 2.828 . S
C914 O896 1.258 . S
C914 O901 1.252 . S
C914 C915 1.497 . S
C915 C914 1.497 . S
C915 C916 1.395 . S
C915 C917 1.380 . S
C916 C915 1.395 . S
C916 C919 1.398 . S
C916 H926 0.930 . S
C917 C915 1.380 . S
C917 C918 1.391 . S
C917 H927 0.930 . S
C918 C917 1.391 . S
C918 C920 1.387 . S
C919 C916 1.398 . S
C919 C920 1.380 . S
C919 H928 0.930 . S
C920 C918 1.387 . S
C920 C919 1.380 . S
C920 H929 0.930 . S
C921 O898 1.254 . S
C921 O899 1.268 . S
H922 C907 0.930 . S
H923 C908 0.930 . S
H924 C910 0.930 . S
H925 C911 0.930 . S
H926 C916 0.930 . S
H927 C917 0.930 . S
H928 C919 0.930 . S
H929 C920 0.930 . S
Gd930 N961 2.661 . S
Gd930 N967 2.601 . S
Gd930 O974 2.545 . S
Gd930 O975 2.606 . S
Gd930 O977 2.429 . S
Gd930 O978 2.545 . S
Gd930 O979 2.412 . S
Gd930 O981 2.362 . S
Gd930 O982 2.324 . S
Gd930 C989 2.828 . S
Gd931 N940 2.661 . S
Gd931 N944 2.601 . S
Gd931 O975 2.362 . S
Gd931 O976 2.324 . S
Gd931 O980 2.545 . S
Gd931 O981 2.606 . S
Gd931 O983 2.429 . S
Gd931 O984 2.545 . S
Gd931 O985 2.412 . S
Gd931 C998 2.828 . S
C932 C935 1.417 . S
C932 C937 1.431 . S
C932 C938 1.412 . S
C933 C936 1.437 . S
C933 C937 1.317 . S
C933 H952 0.929 . S
C934 C935 1.426 . S
C934 C936 1.413 . S
C934 N944 1.359 . S
C935 C932 1.417 . S
C935 C934 1.426 . S
C935 N940 1.350 . S
C936 C933 1.437 . S
C936 C934 1.413 . S
C936 C946 1.391 . S
C937 C932 1.431 . S
C937 C933 1.317 . S
C937 H948 0.930 . S
C938 C932 1.412 . S
C938 C939 1.355 . S
C938 H950 0.930 . S
C939 C938 1.355 . S
C939 C941 1.402 . S
C939 H951 0.930 . S
N940 Gd931 2.661 . S
N940 C935 1.350 . S
N940 C941 1.307 . S
C941 C939 1.402 . S
C941 N940 1.307 . S
C941 H942 0.930 . S
H942 C941 0.930 . S
C943 N944 1.334 . S
C943 C945 1.394 . S
C943 H947 0.930 . S
N944 Gd931 2.601 . S
N944 C934 1.359 . S
N944 C943 1.334 . S
C945 C943 1.394 . S
C945 C946 1.359 . S
C945 H957 0.930 . S
C946 C936 1.391 . S
C946 C945 1.359 . S
C946 H958 0.929 . S
H947 C943 0.930 . S
H948 C937 0.930 . S
H949 C966 0.930 . S
H950 C938 0.930 . S
H951 C939 0.930 . S
H952 C933 0.929 . S
H953 C971 0.930 . S
H954 C962 0.930 . S
H955 C963 0.930 . S
H956 C987 0.929 . S
H957 C945 0.930 . S
H958 C946 0.929 . S
H959 C988 0.930 . S
H960 C969 0.930 . S
N961 Gd930 2.661 . S
N961 C965 1.350 . S
N961 C966 1.307 . S
C962 H954 0.930 . S
C962 C963 1.355 . S
C962 C964 1.412 . S
C963 H955 0.930 . S
C963 C962 1.355 . S
C963 C966 1.402 . S
C964 C962 1.412 . S
C964 C965 1.417 . S
C964 C988 1.431 . S
C965 N961 1.350 . S
C965 C964 1.417 . S
C965 C968 1.426 . S
C966 H949 0.930 . S
C966 N961 1.307 . S
C966 C963 1.402 . S
N967 Gd930 2.601 . S
N967 C968 1.359 . S
N967 C971 1.334 . S
C968 C965 1.426 . S
C968 N967 1.359 . S
C968 C972 1.413 . S
C969 H960 0.930 . S
C969 C970 1.359 . S
C969 C971 1.394 . S
C970 C969 1.359 . S
C970 C972 1.391 . S
C970 H973 0.929 . S
C971 H953 0.930 . S
C971 N967 1.334 . S
C971 C969 1.394 . S
C972 C968 1.413 . S
C972 C970 1.391 . S
C972 C987 1.437 . S
H973 C970 0.929 . S
O974 Gd930 2.545 . S
O974 C989 1.258 . S
O975 Gd930 2.606 . S
O975 Gd931 2.362 . S
O975 C986 1.284 . S
O976 Gd931 2.324 . S
O976 C996 1.254 . S
O977 Gd930 2.429 . S
O977 C996 1.268 . S
O978 Gd930 2.545 . S
O978 C986 1.250 . S
O979 Gd930 2.412 . S
O979 C989 1.252 . S
O980 Gd931 2.545 . S
O980 C998 1.258 . S
O981 Gd930 2.362 . S
O981 Gd931 2.606 . S
O981 C997 1.284 . S
O982 Gd930 2.324 . S
O982 C1005 1.254 . S
O983 Gd931 2.429 . S
O983 C1005 1.268 . S
O984 Gd931 2.545 . S
O984 C997 1.250 . S
O985 Gd931 2.412 . S
O985 C998 1.252 . S
C986 O975 1.284 . S
C986 O978 1.250 . S
C987 H956 0.929 . S
C987 C972 1.437 . S
C987 C988 1.317 . S
C988 H959 0.930 . S
C988 C964 1.431 . S
C988 C987 1.317 . S
C989 Gd930 2.828 . S
C989 O974 1.258 . S
C989 O979 1.252 . S
C989 C990 1.497 . S
C990 C989 1.497 . S
C990 C991 1.395 . S
C990 C992 1.380 . S
C991 C990 1.395 . S
C991 C994 1.398 . S
C991 H1006 0.930 . S
C992 C990 1.380 . S
C992 C993 1.391 . S
C992 H1007 0.930 . S
C993 C992 1.391 . S
C993 C995 1.387 . S
C994 C991 1.398 . S
C994 C995 1.380 . S
C994 H1008 0.930 . S
C995 C993 1.387 . S
C995 C994 1.380 . S
C995 H1009 0.930 . S
C996 O976 1.254 . S
C996 O977 1.268 . S
C997 O981 1.284 . S
C997 O984 1.250 . S
C998 Gd931 2.828 . S
C998 O980 1.258 . S
C998 O985 1.252 . S
C998 C999 1.497 . S
C999 C998 1.497 . S
C999 C1000 1.395 . S
C999 C1001 1.380 . S
C1000 C999 1.395 . S
C1000 C1003 1.398 . S
C1000 H1010 0.930 . S
C1001 C999 1.380 . S
C1001 C1002 1.391 . S
C1001 H1011 0.930 . S
C1002 C1001 1.391 . S
C1002 C1004 1.387 . S
C1003 C1000 1.398 . S
C1003 C1004 1.380 . S
C1003 H1012 0.930 . S
C1004 C1002 1.387 . S
C1004 C1003 1.380 . S
C1004 H1013 0.930 . S
C1005 O982 1.254 . S
C1005 O983 1.268 . S
H1006 C991 0.930 . S
H1007 C992 0.930 . S
H1008 C994 0.930 . S
H1009 C995 0.930 . S
H1010 C1000 0.930 . S
H1011 C1001 0.930 . S
H1012 C1003 0.930 . S
H1013 C1004 0.930 . S
Gd1014 N1045 2.661 . S
Gd1014 N1051 2.601 . S
Gd1014 O1058 2.545 . S
Gd1014 O1059 2.606 . S
Gd1014 O1061 2.429 . S
Gd1014 O1062 2.545 . S
Gd1014 O1063 2.412 . S
Gd1014 O1065 2.362 . S
Gd1014 O1066 2.324 . S
Gd1014 C1073 2.828 . S
Gd1015 N1024 2.661 . S
Gd1015 N1028 2.601 . S
Gd1015 O1059 2.362 . S
Gd1015 O1060 2.324 . S
Gd1015 O1064 2.545 . S
Gd1015 O1065 2.606 . S
Gd1015 O1067 2.429 . S
Gd1015 O1068 2.545 . S
Gd1015 O1069 2.412 . S
Gd1015 C1082 2.828 . S
C1016 C1019 1.417 . S
C1016 C1021 1.431 . S
C1016 C1022 1.412 . S
C1017 C1020 1.437 . S
C1017 C1021 1.317 . S
C1017 H1036 0.929 . S
C1018 C1019 1.426 . S
C1018 C1020 1.413 . S
C1018 N1028 1.359 . S
C1019 C1016 1.417 . S
C1019 C1018 1.426 . S
C1019 N1024 1.350 . S
C1020 C1017 1.437 . S
C1020 C1018 1.413 . S
C1020 C1030 1.391 . S
C1021 C1016 1.431 . S
C1021 C1017 1.317 . S
C1021 H1032 0.930 . S
C1022 C1016 1.412 . S
C1022 C1023 1.355 . S
C1022 H1034 0.930 . S
C1023 C1022 1.355 . S
C1023 C1025 1.402 . S
C1023 H1035 0.930 . S
N1024 Gd1015 2.661 . S
N1024 C1019 1.350 . S
N1024 C1025 1.307 . S
C1025 C1023 1.402 . S
C1025 N1024 1.307 . S
C1025 H1026 0.930 . S
H1026 C1025 0.930 . S
C1027 N1028 1.334 . S
C1027 C1029 1.394 . S
C1027 H1031 0.930 . S
N1028 Gd1015 2.601 . S
N1028 C1018 1.359 . S
N1028 C1027 1.334 . S
C1029 C1027 1.394 . S
C1029 C1030 1.359 . S
C1029 H1041 0.930 . S
C1030 C1020 1.391 . S
C1030 C1029 1.359 . S
C1030 H1042 0.929 . S
H1031 C1027 0.930 . S
H1032 C1021 0.930 . S
H1033 C1050 0.930 . S
H1034 C1022 0.930 . S
H1035 C1023 0.930 . S
H1036 C1017 0.929 . S
H1037 C1055 0.930 . S
H1038 C1046 0.930 . S
H1039 C1047 0.930 . S
H1040 C1071 0.929 . S
H1041 C1029 0.930 . S
H1042 C1030 0.929 . S
H1043 C1072 0.930 . S
H1044 C1053 0.930 . S
N1045 Gd1014 2.661 . S
N1045 C1049 1.350 . S
N1045 C1050 1.307 . S
C1046 H1038 0.930 . S
C1046 C1047 1.355 . S
C1046 C1048 1.412 . S
C1047 H1039 0.930 . S
C1047 C1046 1.355 . S
C1047 C1050 1.402 . S
C1048 C1046 1.412 . S
C1048 C1049 1.417 . S
C1048 C1072 1.431 . S
C1049 N1045 1.350 . S
C1049 C1048 1.417 . S
C1049 C1052 1.426 . S
C1050 H1033 0.930 . S
C1050 N1045 1.307 . S
C1050 C1047 1.402 . S
N1051 Gd1014 2.601 . S
N1051 C1052 1.359 . S
N1051 C1055 1.334 . S
C1052 C1049 1.426 . S
C1052 N1051 1.359 . S
C1052 C1056 1.413 . S
C1053 H1044 0.930 . S
C1053 C1054 1.359 . S
C1053 C1055 1.394 . S
C1054 C1053 1.359 . S
C1054 C1056 1.391 . S
C1054 H1057 0.929 . S
C1055 H1037 0.930 . S
C1055 N1051 1.334 . S
C1055 C1053 1.394 . S
C1056 C1052 1.413 . S
C1056 C1054 1.391 . S
C1056 C1071 1.437 . S
H1057 C1054 0.929 . S
O1058 Gd1014 2.545 . S
O1058 C1073 1.258 . S
O1059 Gd1014 2.606 . S
O1059 Gd1015 2.362 . S
O1059 C1070 1.284 . S
O1060 Gd1015 2.324 . S
O1060 C1080 1.254 . S
O1061 Gd1014 2.429 . S
O1061 C1080 1.268 . S
O1062 Gd1014 2.545 . S
O1062 C1070 1.250 . S
O1063 Gd1014 2.412 . S
O1063 C1073 1.252 . S
O1064 Gd1015 2.545 . S
O1064 C1082 1.258 . S
O1065 Gd1014 2.362 . S
O1065 Gd1015 2.606 . S
O1065 C1081 1.284 . S
O1066 Gd1014 2.324 . S
O1066 C1089 1.254 . S
O1067 Gd1015 2.429 . S
O1067 C1089 1.268 . S
O1068 Gd1015 2.545 . S
O1068 C1081 1.250 . S
O1069 Gd1015 2.412 . S
O1069 C1082 1.252 . S
C1070 O1059 1.284 . S
C1070 O1062 1.250 . S
C1071 H1040 0.929 . S
C1071 C1056 1.437 . S
C1071 C1072 1.317 . S
C1072 H1043 0.930 . S
C1072 C1048 1.431 . S
C1072 C1071 1.317 . S
C1073 Gd1014 2.828 . S
C1073 O1058 1.258 . S
C1073 O1063 1.252 . S
C1073 C1074 1.497 . S
C1074 C1073 1.497 . S
C1074 C1075 1.395 . S
C1074 C1076 1.380 . S
C1075 C1074 1.395 . S
C1075 C1078 1.398 . S
C1075 H1090 0.930 . S
C1076 C1074 1.380 . S
C1076 C1077 1.391 . S
C1076 H1091 0.930 . S
C1077 C1076 1.391 . S
C1077 C1079 1.387 . S
C1078 C1075 1.398 . S
C1078 C1079 1.380 . S
C1078 H1092 0.930 . S
C1079 C1077 1.387 . S
C1079 C1078 1.380 . S
C1079 H1093 0.930 . S
C1080 O1060 1.254 . S
C1080 O1061 1.268 . S
C1081 O1065 1.284 . S
C1081 O1068 1.250 . S
C1082 Gd1015 2.828 . S
C1082 O1064 1.258 . S
C1082 O1069 1.252 . S
C1082 C1083 1.497 . S
C1083 C1082 1.497 . S
C1083 C1084 1.395 . S
C1083 C1085 1.380 . S
C1084 C1083 1.395 . S
C1084 C1087 1.398 . S
C1084 H1094 0.930 . S
C1085 C1083 1.380 . S
C1085 C1086 1.391 . S
C1085 H1095 0.930 . S
C1086 C1085 1.391 . S
C1086 C1088 1.387 . S
C1087 C1084 1.398 . S
C1087 C1088 1.380 . S
C1087 H1096 0.930 . S
C1088 C1086 1.387 . S
C1088 C1087 1.380 . S
C1088 H1097 0.930 . S
C1089 O1066 1.254 . S
C1089 O1067 1.268 . S
H1090 C1075 0.930 . S
H1091 C1076 0.930 . S
H1092 C1078 0.930 . S
H1093 C1079 0.930 . S
H1094 C1084 0.930 . S
H1095 C1085 0.930 . S
H1096 C1087 0.930 . S
H1097 C1088 0.930 . S
H1098 C1116 0.951 . S
H1099 C1118 0.951 . S
H1100 C1120 0.950 . S
H1101 C1121 0.950 . S
H1102 C1123 0.950 . S
H1103 C1126 0.950 . S
H1104 C1127 0.950 . S
H1105 C1129 0.950 . S
H1106 C1130 0.950 . S
H1107 C1131 0.951 . S
H1108 C1133 0.951 . S
H1109 C1135 0.950 . S
H1110 C1136 0.950 . S
H1111 C1138 0.950 . S
H1112 C1141 0.950 . S
H1113 C1142 0.950 . S
H1114 C1144 0.950 . S
H1115 C1145 0.949 . S
C1116 H1098 0.951 . S
C1116 C1117 1.366 . S
C1116 C1118 1.388 . S
C1117 C1116 1.366 . S
C1117 C1121 1.385 . S
C1118 H1099 0.951 . S
C1118 C1116 1.388 . S
C1118 C1119 1.366 . S
C1119 C1118 1.366 . S
C1119 C1120 1.414 . S
C1119 C1122 1.499 . S
C1120 H1100 0.950 . S
C1120 C1119 1.414 . S
C1120 C1121 1.374 . S
C1121 H1101 0.950 . S
C1121 C1117 1.385 . S
C1121 C1120 1.374 . S
C1122 C1119 1.499 . S
C1122 C1123 1.373 . S
C1122 C1124 1.389 . S
C1123 H1102 0.950 . S
C1123 C1122 1.373 . S
C1123 C1139 1.377 . S
C1124 C1122 1.389 . S
C1124 C1125 1.524 . S
C1124 C1138 1.377 . S
C1125 C1124 1.524 . S
C1125 C1126 1.397 . S
C1125 C1130 1.363 . S
C1126 H1103 0.950 . S
C1126 C1125 1.397 . S
C1126 C1127 1.334 . S
C1127 H1104 0.950 . S
C1127 C1126 1.334 . S
C1127 C1128 1.287 . S
C1128 C1127 1.287 . S
C1128 C1129 1.524 . S
C1128 H1147 0.913 . S
C1129 H1105 0.950 . S
C1129 C1128 1.524 . S
C1129 C1130 1.415 . S
C1130 H1106 0.950 . S
C1130 C1125 1.363 . S
C1130 C1129 1.415 . S
C1131 H1107 0.951 . S
C1131 C1132 1.366 . S
C1131 C1133 1.388 . S
C1132 C1131 1.366 . S
C1132 C1136 1.385 . S
C1133 H1108 0.951 . S
C1133 C1131 1.388 . S
C1133 C1134 1.366 . S
C1134 C1133 1.366 . S
C1134 C1135 1.414 . S
C1134 C1137 1.499 . S
C1135 H1109 0.950 . S
C1135 C1134 1.414 . S
C1135 C1136 1.374 . S
C1136 H1110 0.950 . S
C1136 C1132 1.385 . S
C1136 C1135 1.374 . S
C1137 C1134 1.499 . S
C1137 C1138 1.373 . S
C1137 C1139 1.389 . S
C1138 H1111 0.950 . S
C1138 C1124 1.377 . S
C1138 C1137 1.373 . S
C1139 C1123 1.377 . S
C1139 C1137 1.389 . S
C1139 C1140 1.524 . S
C1140 C1139 1.524 . S
C1140 C1141 1.397 1_554 S
C1140 C1145 1.363 1_554 S
C1141 H1112 0.950 . S
C1141 C1140 1.397 1_556 S
C1141 C1142 1.334 . S
C1142 H1113 0.950 . S
C1142 C1141 1.334 . S
C1142 C1143 1.287 . S
C1143 C1142 1.287 . S
C1143 C1144 1.524 . S
C1143 H1146 0.999 . S
C1144 H1114 0.950 . S
C1144 C1143 1.524 . S
C1144 C1145 1.415 . S
C1145 H1115 0.949 . S
C1145 C1140 1.363 1_556 S
C1145 C1144 1.415 . S
H1146 C1143 0.999 . S
H1147 C1128 0.913 . S
H1148 C1166 0.951 . S
H1149 C1168 0.951 . S
H1150 C1170 0.950 . S
H1151 C1171 0.950 . S
H1152 C1173 0.950 . S
H1153 C1176 0.950 . S
H1154 C1177 0.950 . S
H1155 C1179 0.950 . S
H1156 C1180 0.950 . S
H1157 C1181 0.951 . S
H1158 C1183 0.951 . S
H1159 C1185 0.950 . S
H1160 C1186 0.950 . S
H1161 C1188 0.950 . S
H1162 C1191 0.950 . S
H1163 C1192 0.950 . S
H1164 C1194 0.950 . S
H1165 C1195 0.950 . S
C1166 H1148 0.951 . S
C1166 C1167 1.366 . S
C1166 C1168 1.388 . S
C1167 C1166 1.366 . S
C1167 C1171 1.385 . S
C1168 H1149 0.951 . S
C1168 C1166 1.388 . S
C1168 C1169 1.366 . S
C1169 C1168 1.366 . S
C1169 C1170 1.414 . S
C1169 C1172 1.499 . S
C1170 H1150 0.950 . S
C1170 C1169 1.414 . S
C1170 C1171 1.374 . S
C1171 H1151 0.950 . S
C1171 C1167 1.385 . S
C1171 C1170 1.374 . S
C1172 C1169 1.499 . S
C1172 C1173 1.373 . S
C1172 C1174 1.389 . S
C1173 H1152 0.950 . S
C1173 C1172 1.373 . S
C1173 C1189 1.377 . S
C1174 C1172 1.389 . S
C1174 C1175 1.524 . S
C1174 C1188 1.377 . S
C1175 C1174 1.524 . S
C1175 C1176 1.397 . S
C1175 C1180 1.363 . S
C1176 H1153 0.950 . S
C1176 C1175 1.397 . S
C1176 C1177 1.334 . S
C1177 H1154 0.950 . S
C1177 C1176 1.334 . S
C1177 C1178 1.287 . S
C1178 C1177 1.287 . S
C1178 C1179 1.524 . S
C1178 H1197 0.913 . S
C1179 H1155 0.950 . S
C1179 C1178 1.524 . S
C1179 C1180 1.415 . S
C1180 H1156 0.950 . S
C1180 C1175 1.363 . S
C1180 C1179 1.415 . S
C1181 H1157 0.951 . S
C1181 C1182 1.366 . S
C1181 C1183 1.388 . S
C1182 C1181 1.366 . S
C1182 C1186 1.385 . S
C1183 H1158 0.951 . S
C1183 C1181 1.388 . S
C1183 C1184 1.366 . S
C1184 C1183 1.366 . S
C1184 C1185 1.414 . S
C1184 C1187 1.499 . S
C1185 H1159 0.950 . S
C1185 C1184 1.414 . S
C1185 C1186 1.374 . S
C1186 H1160 0.950 . S
C1186 C1182 1.385 . S
C1186 C1185 1.374 . S
C1187 C1184 1.499 . S
C1187 C1188 1.373 . S
C1187 C1189 1.389 . S
C1188 H1161 0.950 . S
C1188 C1174 1.377 . S
C1188 C1187 1.373 . S
C1189 C1173 1.377 . S
C1189 C1187 1.389 . S
C1189 C1190 1.524 . S
C1190 C1189 1.524 . S
C1190 C1191 1.397 . S
C1190 C1195 1.363 . S
C1191 H1162 0.950 . S
C1191 C1190 1.397 . S
C1191 C1192 1.334 . S
C1192 H1163 0.950 . S
C1192 C1191 1.334 . S
C1192 C1193 1.287 . S
C1193 C1192 1.287 . S
C1193 C1194 1.524 . S
C1193 H1196 0.999 . S
C1194 H1164 0.950 . S
C1194 C1193 1.524 . S
C1194 C1195 1.415 . S
C1195 H1165 0.950 . S
C1195 C1190 1.363 . S
C1195 C1194 1.415 . S
H1196 C1193 0.999 . S
H1197 C1178 0.913 . S
H1198 C1216 0.951 . S
H1199 C1218 0.951 . S
H1200 C1220 0.950 . S
H1201 C1221 0.950 . S
H1202 C1223 0.950 . S
H1203 C1226 0.950 . S
H1204 C1227 0.961 . S
H1205 C1229 0.950 . S
H1206 C1230 0.950 . S
H1207 C1231 0.951 . S
H1208 C1233 0.951 . S
H1209 C1235 0.950 . S
H1210 C1236 0.950 . S
H1211 C1238 0.950 . S
H1212 C1241 0.950 . S
H1213 C1242 0.950 . S
H1214 C1244 0.950 . S
H1215 C1245 0.950 . S
C1216 H1198 0.951 . S
C1216 C1217 1.366 . S
C1216 C1218 1.388 . S
C1217 C1216 1.366 . S
C1217 C1221 1.385 . S
C1218 H1199 0.951 . S
C1218 C1216 1.388 . S
C1218 C1219 1.366 . S
C1219 C1218 1.366 . S
C1219 C1220 1.414 . S
C1219 C1222 1.499 . S
C1220 H1200 0.950 . S
C1220 C1219 1.414 . S
C1220 C1221 1.374 . S
C1221 H1201 0.950 . S
C1221 C1217 1.385 . S
C1221 C1220 1.374 . S
C1222 C1219 1.499 . S
C1222 C1223 1.373 . S
C1222 C1224 1.389 . S
C1223 H1202 0.950 . S
C1223 C1222 1.373 . S
C1223 C1239 1.377 . S
C1224 C1222 1.389 . S
C1224 C1225 1.524 . S
C1224 C1238 1.377 . S
C1225 C1224 1.524 . S
C1225 C1226 1.397 . S
C1225 C1230 1.363 1_554 S
C1226 H1203 0.950 . S
C1226 C1225 1.397 . S
C1226 C1227 1.334 1_554 S
C1227 H1204 0.961 . S
C1227 C1226 1.334 1_556 S
C1227 C1228 1.287 . S
C1228 C1227 1.287 . S
C1228 C1229 1.524 . S
C1228 H1247 0.913 . S
C1229 H1205 0.950 . S
C1229 C1228 1.524 . S
C1229 C1230 1.415 . S
C1230 H1206 0.950 . S
C1230 C1225 1.363 1_556 S
C1230 C1229 1.415 . S
C1231 H1207 0.951 . S
C1231 C1232 1.366 . S
C1231 C1233 1.388 . S
C1232 C1231 1.366 . S
C1232 C1236 1.385 . S
C1233 H1208 0.951 . S
C1233 C1231 1.388 . S
C1233 C1234 1.366 . S
C1234 C1233 1.366 . S
C1234 C1235 1.414 . S
C1234 C1237 1.499 . S
C1235 H1209 0.950 . S
C1235 C1234 1.414 . S
C1235 C1236 1.374 . S
C1236 H1210 0.950 . S
C1236 C1232 1.385 . S
C1236 C1235 1.374 . S
C1237 C1234 1.499 . S
C1237 C1238 1.373 . S
C1237 C1239 1.389 . S
C1238 H1211 0.950 . S
C1238 C1224 1.377 . S
C1238 C1237 1.373 . S
C1239 C1223 1.377 . S
C1239 C1237 1.389 . S
C1239 C1240 1.524 . S
C1240 C1239 1.524 . S
C1240 C1241 1.397 . S
C1240 C1245 1.363 . S
C1241 H1212 0.950 . S
C1241 C1240 1.397 . S
C1241 C1242 1.334 . S
C1242 H1213 0.950 . S
C1242 C1241 1.334 . S
C1242 C1243 1.287 . S
C1243 C1242 1.287 . S
C1243 C1244 1.524 . S
C1243 H1246 0.999 . S
C1244 H1214 0.950 . S
C1244 C1243 1.524 . S
C1244 C1245 1.415 . S
C1245 H1215 0.950 . S
C1245 C1240 1.363 . S
C1245 C1244 1.415 . S
H1246 C1243 0.999 . S
H1247 C1228 0.913 . S
H1248 C1266 0.951 . S
H1249 C1268 0.951 . S
H1250 C1270 0.950 . S
H1251 C1271 0.950 . S
H1252 C1273 0.950 . S
H1253 C1276 0.950 . S
H1254 C1277 0.950 . S
H1255 C1279 0.950 . S
H1256 C1280 0.950 . S
H1257 C1281 0.951 . S
H1258 C1283 0.951 . S
H1259 C1285 0.950 . S
H1260 C1286 0.950 . S
H1261 C1288 0.950 . S
H1262 C1291 0.950 . S
H1263 C1292 0.950 . S
H1264 C1294 0.950 . S
H1265 C1295 0.950 . S
C1266 H1248 0.951 . S
C1266 C1267 1.366 . S
C1266 C1268 1.388 . S
C1267 C1266 1.366 . S
C1267 C1271 1.385 . S
C1268 H1249 0.951 . S
C1268 C1266 1.388 . S
C1268 C1269 1.366 . S
C1269 C1268 1.366 . S
C1269 C1270 1.414 . S
C1269 C1272 1.499 . S
C1270 H1250 0.950 . S
C1270 C1269 1.414 . S
C1270 C1271 1.374 . S
C1271 H1251 0.950 . S
C1271 C1267 1.385 . S
C1271 C1270 1.374 . S
C1272 C1269 1.499 . S
C1272 C1273 1.373 . S
C1272 C1274 1.389 . S
C1273 H1252 0.950 . S
C1273 C1272 1.373 . S
C1273 C1289 1.377 . S
C1274 C1272 1.389 . S
C1274 C1275 1.524 . S
C1274 C1288 1.377 . S
C1275 C1274 1.524 . S
C1275 C1276 1.397 . S
C1275 C1280 1.363 . S
C1276 H1253 0.950 . S
C1276 C1275 1.397 . S
C1276 C1277 1.334 . S
C1277 H1254 0.950 . S
C1277 C1276 1.334 . S
C1277 C1278 1.287 . S
C1278 C1277 1.287 . S
C1278 C1279 1.524 . S
C1278 H1297 0.913 . S
C1279 H1255 0.950 . S
C1279 C1278 1.524 . S
C1279 C1280 1.415 . S
C1280 H1256 0.950 . S
C1280 C1275 1.363 . S
C1280 C1279 1.415 . S
C1281 H1257 0.951 . S
C1281 C1282 1.366 . S
C1281 C1283 1.388 . S
C1282 C1281 1.366 . S
C1282 C1286 1.385 . S
C1283 H1258 0.951 . S
C1283 C1281 1.388 . S
C1283 C1284 1.366 . S
C1284 C1283 1.366 . S
C1284 C1285 1.414 . S
C1284 C1287 1.499 . S
C1285 H1259 0.950 . S
C1285 C1284 1.414 . S
C1285 C1286 1.374 . S
C1286 H1260 0.950 . S
C1286 C1282 1.385 . S
C1286 C1285 1.374 . S
C1287 C1284 1.499 . S
C1287 C1288 1.373 . S
C1287 C1289 1.389 . S
C1288 H1261 0.950 . S
C1288 C1274 1.377 . S
C1288 C1287 1.373 . S
C1289 C1273 1.377 . S
C1289 C1287 1.389 . S
C1289 C1290 1.524 1_556 S
C1290 C1289 1.524 1_554 S
C1290 C1291 1.397 . S
C1290 C1295 1.363 . S
C1291 H1262 0.950 . S
C1291 C1290 1.397 . S
C1291 C1292 1.334 . S
C1292 H1263 0.950 . S
C1292 C1291 1.334 . S
C1292 C1293 1.287 . S
C1293 C1292 1.287 . S
C1293 C1294 1.524 . S
C1293 H1296 0.999 . S
C1294 H1264 0.950 . S
C1294 C1293 1.524 . S
C1294 C1295 1.415 . S
C1295 H1265 0.950 . S
C1295 C1290 1.363 . S
C1295 C1294 1.415 . S
H1296 C1293 0.999 . S
H1297 C1278 0.913 . S
H1298 C1316 0.951 . S
H1299 C1318 0.951 . S
H1300 C1320 0.950 . S
H1301 C1321 0.950 . S
H1302 C1323 0.950 . S
H1303 C1326 0.918 1_556 S
H1304 C1327 0.950 . S
H1305 C1329 0.950 . S
H1306 C1330 0.950 . S
H1307 C1331 0.951 . S
H1308 C1333 0.951 . S
H1309 C1335 0.967 . S
H1310 C1336 0.950 . S
H1311 C1338 0.950 1_554 S
H1312 C1341 0.950 . S
H1313 C1342 0.950 . S
H1314 C1344 0.950 . S
H1315 C1345 0.950 . S
C1316 H1298 0.951 . S
C1316 C1317 1.366 . S
C1316 C1318 1.388 . S
C1317 C1316 1.366 . S
C1317 C1321 1.385 . S
C1318 H1299 0.951 . S
C1318 C1316 1.388 . S
C1318 C1319 1.366 . S
C1319 C1318 1.366 . S
C1319 C1320 1.414 . S
C1319 C1322 1.499 . S
C1320 H1300 0.950 . S
C1320 C1319 1.414 . S
C1320 C1321 1.374 . S
C1321 H1301 0.950 . S
C1321 C1317 1.385 . S
C1321 C1320 1.374 . S
C1322 C1319 1.499 . S
C1322 C1323 1.373 . S
C1322 C1324 1.389 . S
C1323 H1302 0.950 . S
C1323 C1322 1.373 . S
C1323 C1339 1.377 . S
C1324 C1322 1.389 . S
C1324 C1325 1.524 1_556 S
C1324 C1338 1.377 . S
C1325 C1324 1.524 1_554 S
C1325 C1326 1.397 . S
C1325 C1330 1.363 . S
C1326 H1303 0.918 1_554 S
C1326 C1325 1.397 . S
C1326 C1327 1.334 . S
C1327 H1304 0.950 . S
C1327 C1326 1.334 . S
C1327 C1328 1.287 . S
C1328 C1327 1.287 . S
C1328 C1329 1.524 . S
C1328 H1347 0.913 . S
C1329 H1305 0.950 . S
C1329 C1328 1.524 . S
C1329 C1330 1.415 . S
C1330 H1306 0.950 . S
C1330 C1325 1.363 . S
C1330 C1329 1.415 . S
C1331 H1307 0.951 . S
C1331 C1332 1.406 . S
C1331 C1333 1.388 . S
C1332 C1331 1.406 . S
C1332 C1336 1.364 1_556 S
C1333 H1308 0.951 . S
C1333 C1331 1.388 . S
C1333 C1334 1.366 . S
C1334 C1333 1.366 . S
C1334 C1335 1.387 1_556 S
C1334 C1337 1.499 . S
C1335 H1309 0.967 . S
C1335 C1334 1.387 1_554 S
C1335 C1336 1.386 . S
C1336 H1310 0.950 . S
C1336 C1332 1.364 1_554 S
C1336 C1335 1.386 . S
C1337 C1334 1.499 . S
C1337 C1338 1.373 . S
C1337 C1339 1.389 . S
C1338 H1311 0.950 1_556 S
C1338 C1324 1.377 . S
C1338 C1337 1.373 . S
C1339 C1323 1.377 . S
C1339 C1337 1.389 . S
C1339 C1340 1.524 . S
C1340 C1339 1.524 . S
C1340 C1341 1.397 . S
C1340 C1345 1.363 . S
C1341 H1312 0.950 . S
C1341 C1340 1.397 . S
C1341 C1342 1.334 . S
C1342 H1313 0.950 . S
C1342 C1341 1.334 . S
C1342 C1343 1.287 . S
C1343 C1342 1.287 . S
C1343 C1344 1.524 . S
C1343 H1346 0.999 . S
C1344 H1314 0.950 . S
C1344 C1343 1.524 . S
C1344 C1345 1.415 . S
C1345 H1315 0.950 . S
C1345 C1340 1.363 . S
C1345 C1344 1.415 . S
H1346 C1343 0.999 . S
H1347 C1328 0.913 . S
H1348 C1366 0.951 . S
H1349 C1368 0.951 . S
H1350 C1370 0.950 . S
H1351 C1371 0.950 . S
H1352 C1373 0.950 . S
H1353 C1376 0.950 . S
H1354 C1377 0.950 . S
H1355 C1379 0.950 . S
H1356 C1380 0.950 . S
H1357 C1381 0.951 . S
H1358 C1383 0.951 . S
H1359 C1385 0.950 . S
H1360 C1386 0.950 . S
H1361 C1388 0.992 . S
H1362 C1391 0.950 . S
H1363 C1392 0.950 . S
H1364 C1394 0.950 . S
H1365 C1395 0.950 . S
C1366 H1348 0.951 . S
C1366 C1367 1.366 . S
C1366 C1368 1.388 . S
C1367 C1366 1.366 . S
C1367 C1371 1.385 . S
C1368 H1349 0.951 . S
C1368 C1366 1.388 . S
C1368 C1369 1.366 . S
C1369 C1368 1.366 . S
C1369 C1370 1.414 . S
C1369 C1372 1.499 . S
C1370 H1350 0.950 . S
C1370 C1369 1.414 . S
C1370 C1371 1.374 . S
C1371 H1351 0.950 . S
C1371 C1367 1.385 . S
C1371 C1370 1.374 . S
C1372 C1369 1.499 . S
C1372 C1373 1.373 . S
C1372 C1374 1.389 . S
C1373 H1352 0.950 . S
C1373 C1372 1.373 . S
C1373 C1389 1.377 . S
C1374 C1372 1.389 . S
C1374 C1375 1.524 1_556 S
C1374 C1388 1.369 1_556 S
C1375 C1374 1.524 1_554 S
C1375 C1376 1.397 . S
C1375 C1380 1.363 . S
C1376 H1353 0.950 . S
C1376 C1375 1.397 . S
C1376 C1377 1.334 . S
C1377 H1354 0.950 . S
C1377 C1376 1.334 . S
C1377 C1378 1.287 . S
C1378 C1377 1.287 . S
C1378 C1379 1.524 . S
C1378 H1397 0.913 . S
C1379 H1355 0.950 . S
C1379 C1378 1.524 . S
C1379 C1380 1.415 . S
C1380 H1356 0.950 . S
C1380 C1375 1.363 . S
C1380 C1379 1.415 . S
C1381 H1357 0.951 . S
C1381 C1382 1.378 . S
C1381 C1383 1.388 . S
C1382 C1381 1.378 . S
C1382 C1386 1.377 1_556 S
C1383 H1358 0.951 . S
C1383 C1381 1.388 . S
C1383 C1384 1.366 . S
C1384 C1383 1.366 . S
C1384 C1385 1.414 1_556 S
C1384 C1387 1.499 . S
C1385 H1359 0.950 . S
C1385 C1384 1.414 1_554 S
C1385 C1386 1.374 . S
C1386 H1360 0.950 . S
C1386 C1382 1.377 1_554 S
C1386 C1385 1.374 . S
C1387 C1384 1.499 . S
C1387 C1388 1.341 1_556 S
C1387 C1389 1.389 . S
C1388 H1361 0.992 . S
C1388 C1374 1.369 1_554 S
C1388 C1387 1.341 1_554 S
C1389 C1373 1.377 . S
C1389 C1387 1.389 . S
C1389 C1390 1.524 . S
C1390 C1389 1.524 . S
C1390 C1391 1.397 . S
C1390 C1395 1.363 . S
C1391 H1362 0.950 . S
C1391 C1390 1.397 . S
C1391 C1392 1.334 . S
C1392 H1363 0.950 . S
C1392 C1391 1.334 . S
C1392 C1393 1.287 . S
C1393 C1392 1.287 . S
C1393 C1394 1.524 . S
C1393 H1396 0.999 . S
C1394 H1364 0.950 . S
C1394 C1393 1.524 . S
C1394 C1395 1.415 . S
C1395 H1365 0.950 . S
C1395 C1390 1.363 . S
C1395 C1394 1.415 . S
H1396 C1393 0.999 . S
H1397 C1378 0.913 . S
H1398 C1416 0.951 . S
H1399 C1418 0.951 . S
H1400 C1420 0.950 1_554 S
H1401 C1421 0.950 . S
H1402 C1423 0.950 1_554 S
H1403 C1426 0.950 . S
H1404 C1427 0.950 . S
H1405 C1429 0.950 . S
H1406 C1430 0.950 . S
H1407 C1431 0.951 . S
H1408 C1433 0.951 . S
H1409 C1435 0.950 . S
H1410 C1436 0.950 . S
H1411 C1438 0.950 . S
H1412 C1441 0.950 . S
H1413 C1442 0.950 . S
H1414 C1444 0.950 . S
H1415 C1445 0.950 . S
C1416 H1398 0.951 . S
C1416 C1417 1.366 . S
C1416 C1418 1.388 . S
C1417 C1416 1.366 . S
C1417 C1421 1.385 . S
C1418 H1399 0.951 . S
C1418 C1416 1.388 . S
C1418 C1419 1.366 . S
C1419 C1418 1.366 . S
C1419 C1420 1.414 . S
C1419 C1422 1.499 . S
C1420 H1400 0.950 1_556 S
C1420 C1419 1.414 . S
C1420 C1421 1.374 . S
C1421 H1401 0.950 . S
C1421 C1417 1.385 . S
C1421 C1420 1.374 . S
C1422 C1419 1.499 . S
C1422 C1423 1.373 . S
C1422 C1424 1.389 . S
C1423 H1402 0.950 1_556 S
C1423 C1422 1.373 . S
C1423 C1439 1.377 1_556 S
C1424 C1422 1.389 . S
C1424 C1425 1.524 . S
C1424 C1438 1.377 . S
C1425 C1424 1.524 . S
C1425 C1426 1.397 . S
C1425 C1430 1.363 . S
C1426 H1403 0.950 . S
C1426 C1425 1.397 . S
C1426 C1427 1.334 . S
C1427 H1404 0.950 . S
C1427 C1426 1.334 . S
C1427 C1428 1.287 . S
C1428 C1427 1.287 . S
C1428 C1429 1.524 . S
C1428 H1447 0.913 . S
C1429 H1405 0.950 . S
C1429 C1428 1.524 . S
C1429 C1430 1.415 . S
C1430 H1406 0.950 . S
C1430 C1425 1.363 . S
C1430 C1429 1.415 . S
C1431 H1407 0.951 . S
C1431 C1432 1.366 1_554 S
C1431 C1433 1.388 . S
C1432 C1431 1.366 1_556 S
C1432 C1436 1.385 . S
C1433 H1408 0.951 . S
C1433 C1431 1.388 . S
C1433 C1434 1.366 1_554 S
C1434 C1433 1.366 1_556 S
C1434 C1435 1.414 . S
C1434 C1437 1.499 . S
C1435 H1409 0.950 . S
C1435 C1434 1.414 . S
C1435 C1436 1.374 . S
C1436 H1410 0.950 . S
C1436 C1432 1.385 . S
C1436 C1435 1.374 . S
C1437 C1434 1.499 . S
C1437 C1438 1.373 . S
C1437 C1439 1.389 1_556 S
C1438 H1411 0.950 . S
C1438 C1424 1.377 . S
C1438 C1437 1.373 . S
C1439 C1423 1.377 1_554 S
C1439 C1437 1.389 1_554 S
C1439 C1440 1.524 . S
C1440 C1439 1.524 . S
C1440 C1441 1.397 . S
C1440 C1445 1.363 . S
C1441 H1412 0.950 . S
C1441 C1440 1.397 . S
C1441 C1442 1.334 . S
C1442 H1413 0.950 . S
C1442 C1441 1.334 . S
C1442 C1443 1.287 . S
C1443 C1442 1.287 . S
C1443 C1444 1.524 . S
C1443 H1446 0.999 . S
C1444 H1414 0.950 . S
C1444 C1443 1.524 . S
C1444 C1445 1.415 . S
C1445 H1415 0.950 . S
C1445 C1440 1.363 . S
C1445 C1444 1.415 . S
H1446 C1443 0.999 . S
H1447 C1428 0.913 . S
H1448 C1466 0.951 . S
H1449 C1468 0.951 . S
H1450 C1470 0.950 . S
H1451 C1471 0.950 . S
H1452 C1473 0.950 . S
H1453 C1476 0.950 . S
H1454 C1477 0.950 . S
H1455 C1479 0.950 . S
H1456 C1480 0.950 . S
H1457 C1481 0.951 . S
H1458 C1483 0.951 . S
H1459 C1485 0.948 1_554 S
H1460 C1486 0.950 . S
H1461 C1488 0.923 1_554 S
H1462 C1491 0.950 . S
H1463 C1492 0.950 . S
H1464 C1494 0.950 . S
H1465 C1495 0.950 . S
C1466 H1448 0.951 . S
C1466 C1467 1.366 . S
C1466 C1468 1.388 . S
C1467 C1466 1.366 . S
C1467 C1471 1.385 . S
C1468 H1449 0.951 . S
C1468 C1466 1.388 . S
C1468 C1469 1.366 . S
C1469 C1468 1.366 . S
C1469 C1470 1.414 . S
C1469 C1472 1.499 . S
C1470 H1450 0.950 . S
C1470 C1469 1.414 . S
C1470 C1471 1.374 . S
C1471 H1451 0.950 . S
C1471 C1467 1.385 . S
C1471 C1470 1.374 . S
C1472 C1469 1.499 . S
C1472 C1473 1.373 . S
C1472 C1474 1.389 . S
C1473 H1452 0.950 . S
C1473 C1472 1.373 . S
C1473 C1489 1.377 . S
C1474 C1472 1.389 . S
C1474 C1475 1.524 1_556 S
C1474 C1488 1.381 . S
C1475 C1474 1.524 1_554 S
C1475 C1476 1.397 . S
C1475 C1480 1.363 . S
C1476 H1453 0.950 . S
C1476 C1475 1.397 . S
C1476 C1477 1.334 . S
C1477 H1454 0.950 . S
C1477 C1476 1.334 . S
C1477 C1478 1.287 . S
C1478 C1477 1.287 . S
C1478 C1479 1.524 . S
C1478 H1497 0.913 . S
C1479 H1455 0.950 . S
C1479 C1478 1.524 . S
C1479 C1480 1.415 . S
C1480 H1456 0.950 . S
C1480 C1475 1.363 . S
C1480 C1479 1.415 . S
C1481 H1457 0.951 . S
C1481 C1482 1.366 . S
C1481 C1483 1.388 . S
C1482 C1481 1.366 . S
C1482 C1486 1.385 1_556 S
C1483 H1458 0.951 . S
C1483 C1481 1.388 . S
C1483 C1484 1.366 . S
C1484 C1483 1.366 . S
C1484 C1485 1.418 . S
C1484 C1487 1.499 . S
C1485 H1459 0.948 1_556 S
C1485 C1484 1.418 . S
C1485 C1486 1.372 1_556 S
C1486 H1460 0.950 . S
C1486 C1482 1.385 1_554 S
C1486 C1485 1.372 1_554 S
C1487 C1484 1.499 . S
C1487 C1488 1.396 . S
C1487 C1489 1.389 . S
C1488 H1461 0.923 1_556 S
C1488 C1474 1.381 . S
C1488 C1487 1.396 . S
C1489 C1473 1.377 . S
C1489 C1487 1.389 . S
C1489 C1490 1.524 . S
C1490 C1489 1.524 . S
C1490 C1491 1.397 . S
C1490 C1495 1.363 . S
C1491 H1462 0.950 . S
C1491 C1490 1.397 . S
C1491 C1492 1.334 . S
C1492 H1463 0.950 . S
C1492 C1491 1.334 . S
C1492 C1493 1.287 . S
C1493 C1492 1.287 . S
C1493 C1494 1.524 . S
C1493 H1496 0.999 . S
C1494 H1464 0.950 . S
C1494 C1493 1.524 . S
C1494 C1495 1.415 . S
C1495 H1465 0.950 . S
C1495 C1490 1.363 . S
C1495 C1494 1.415 . S
H1496 C1493 0.999 . S
H1497 C1478 0.913 . S
H1498 C1516 0.951 . S
H1499 C1518 0.951 . S
H1500 C1520 0.950 . S
H1501 C1521 0.950 . S
H1502 C1523 0.950 1_554 S
H1503 C1526 0.950 . S
H1504 C1527 0.950 . S
H1505 C1529 0.950 . S
H1506 C1530 0.950 . S
H1507 C1531 0.951 . S
H1508 C1533 0.951 . S
H1509 C1535 0.958 . S
H1510 C1536 0.950 . S
H1511 C1538 0.950 . S
H1512 C1541 0.950 . S
H1513 C1542 0.950 . S
H1514 C1544 0.950 . S
H1515 C1545 0.950 . S
C1516 H1498 0.951 . S
C1516 C1517 1.366 . S
C1516 C1518 1.388 . S
C1517 C1516 1.366 . S
C1517 C1521 1.385 . S
C1518 H1499 0.951 . S
C1518 C1516 1.388 . S
C1518 C1519 1.366 . S
C1519 C1518 1.366 . S
C1519 C1520 1.414 . S
C1519 C1522 1.499 . S
C1520 H1500 0.950 . S
C1520 C1519 1.414 . S
C1520 C1521 1.374 . S
C1521 H1501 0.950 . S
C1521 C1517 1.385 . S
C1521 C1520 1.374 . S
C1522 C1519 1.499 . S
C1522 C1523 1.373 . S
C1522 C1524 1.389 . S
C1523 H1502 0.950 1_556 S
C1523 C1522 1.373 . S
C1523 C1539 1.369 1_556 S
C1524 C1522 1.389 . S
C1524 C1525 1.524 . S
C1524 C1538 1.377 . S
C1525 C1524 1.524 . S
C1525 C1526 1.397 . S
C1525 C1530 1.363 . S
C1526 H1503 0.950 . S
C1526 C1525 1.397 . S
C1526 C1527 1.334 . S
C1527 H1504 0.950 . S
C1527 C1526 1.334 . S
C1527 C1528 1.287 . S
C1528 C1527 1.287 . S
C1528 C1529 1.524 . S
C1528 H1547 0.913 . S
C1529 H1505 0.950 . S
C1529 C1528 1.524 . S
C1529 C1530 1.415 . S
C1530 H1506 0.950 . S
C1530 C1525 1.363 . S
C1530 C1529 1.415 . S
C1531 H1507 0.951 . S
C1531 C1532 1.349 1_556 S
C1531 C1533 1.388 . S
C1532 C1531 1.349 1_554 S
C1532 C1536 1.396 . S
C1533 H1508 0.951 . S
C1533 C1531 1.388 . S
C1533 C1534 1.366 . S
C1534 C1533 1.366 . S
C1534 C1535 1.401 1_556 S
C1534 C1537 1.499 . S
C1535 H1509 0.958 . S
C1535 C1534 1.401 1_554 S
C1535 C1536 1.382 . S
C1536 H1510 0.950 . S
C1536 C1532 1.396 . S
C1536 C1535 1.382 . S
C1537 C1534 1.499 . S
C1537 C1538 1.373 . S
C1537 C1539 1.376 1_556 S
C1538 H1511 0.950 . S
C1538 C1524 1.377 . S
C1538 C1537 1.373 . S
C1539 C1523 1.369 1_554 S
C1539 C1537 1.376 1_554 S
C1539 C1540 1.548 . S
C1540 C1539 1.548 . S
C1540 C1541 1.397 . S
C1540 C1545 1.363 . S
C1541 H1512 0.950 . S
C1541 C1540 1.397 . S
C1541 C1542 1.334 . S
C1542 H1513 0.950 . S
C1542 C1541 1.334 . S
C1542 C1543 1.287 . S
C1543 C1542 1.287 . S
C1543 C1544 1.524 . S
C1543 H1546 0.999 . S
C1544 H1514 0.950 . S
C1544 C1543 1.524 . S
C1544 C1545 1.415 . S
C1545 H1515 0.950 . S
C1545 C1540 1.363 . S
C1545 C1544 1.415 . S
H1546 C1543 0.999 . S
H1547 C1528 0.913 . S
H1548 C1566 0.951 . S
H1549 C1568 0.951 . S
H1550 C1570 0.950 . S
H1551 C1571 0.950 . S
H1552 C1573 0.950 . S
H1553 C1576 0.950 . S
H1554 C1577 0.950 . S
H1555 C1579 0.950 . S
H1556 C1580 0.950 . S
H1557 C1581 0.951 . S
H1558 C1583 0.951 . S
H1559 C1585 0.950 . S
H1560 C1586 0.950 . S
H1561 C1588 0.950 . S
H1562 C1591 0.950 . S
H1563 C1592 0.950 . S
H1564 C1594 0.950 . S
H1565 C1595 0.950 . S
C1566 H1548 0.951 . S
C1566 C1567 1.366 . S
C1566 C1568 1.388 . S
C1567 C1566 1.366 . S
C1567 C1571 1.385 . S
C1568 H1549 0.951 . S
C1568 C1566 1.388 . S
C1568 C1569 1.366 . S
C1569 C1568 1.366 . S
C1569 C1570 1.414 . S
C1569 C1572 1.499 . S
C1570 H1550 0.950 . S
C1570 C1569 1.414 . S
C1570 C1571 1.374 . S
C1571 H1551 0.950 . S
C1571 C1567 1.385 . S
C1571 C1570 1.374 . S
C1572 C1569 1.499 . S
C1572 C1573 1.373 . S
C1572 C1574 1.389 . S
C1573 H1552 0.950 . S
C1573 C1572 1.373 . S
C1573 C1589 1.377 . S
C1574 C1572 1.389 . S
C1574 C1575 1.524 . S
C1574 C1588 1.377 . S
C1575 C1574 1.524 . S
C1575 C1576 1.397 . S
C1575 C1580 1.363 . S
C1576 H1553 0.950 . S
C1576 C1575 1.397 . S
C1576 C1577 1.334 . S
C1577 H1554 0.950 . S
C1577 C1576 1.334 . S
C1577 C1578 1.287 . S
C1578 C1577 1.287 . S
C1578 C1579 1.524 . S
C1578 H1597 0.913 . S
C1579 H1555 0.950 . S
C1579 C1578 1.524 . S
C1579 C1580 1.415 . S
C1580 H1556 0.950 . S
C1580 C1575 1.363 . S
C1580 C1579 1.415 . S
C1581 H1557 0.951 . S
C1581 C1582 1.366 . S
C1581 C1583 1.388 . S
C1582 C1581 1.366 . S
C1582 C1586 1.385 . S
C1583 H1558 0.951 . S
C1583 C1581 1.388 . S
C1583 C1584 1.366 . S
C1584 C1583 1.366 . S
C1584 C1585 1.414 . S
C1584 C1587 1.499 . S
C1585 H1559 0.950 . S
C1585 C1584 1.414 . S
C1585 C1586 1.374 . S
C1586 H1560 0.950 . S
C1586 C1582 1.385 . S
C1586 C1585 1.374 . S
C1587 C1584 1.499 . S
C1587 C1588 1.373 . S
C1587 C1589 1.389 . S
C1588 H1561 0.950 . S
C1588 C1574 1.377 . S
C1588 C1587 1.373 . S
C1589 C1573 1.377 . S
C1589 C1587 1.389 . S
C1589 C1590 1.524 . S
C1590 C1589 1.524 . S
C1590 C1591 1.397 1_554 S
C1590 C1595 1.363 . S
C1591 H1562 0.950 . S
C1591 C1590 1.397 1_556 S
C1591 C1592 1.334 . S
C1592 H1563 0.950 . S
C1592 C1591 1.334 . S
C1592 C1593 1.287 . S
C1593 C1592 1.287 . S
C1593 C1594 1.524 . S
C1593 H1596 0.999 . S
C1594 H1564 0.950 . S
C1594 C1593 1.524 . S
C1594 C1595 1.415 1_556 S
C1595 H1565 0.950 . S
C1595 C1590 1.363 . S
C1595 C1594 1.415 1_554 S
H1596 C1593 0.999 . S
H1597 C1578 0.913 . S
H1598 C1616 0.951 . S
H1599 C1618 0.951 . S
H1600 C1620 0.950 . S
H1601 C1621 0.950 . S
H1602 C1623 0.950 . S
H1603 C1626 0.950 . S
H1604 C1627 0.950 . S
H1605 C1629 0.950 . S
H1606 C1630 0.950 . S
H1607 C1631 0.951 . S
H1608 C1633 0.951 . S
H1609 C1635 0.950 . S
H1610 C1636 0.950 . S
H1611 C1638 0.950 . S
H1612 C1641 0.950 . S
H1613 C1642 0.950 . S
H1614 C1644 0.950 . S
H1615 C1645 0.950 1_554 S
C1616 H1598 0.951 . S
C1616 C1617 1.366 . S
C1616 C1618 1.388 . S
C1617 C1616 1.366 . S
C1617 C1621 1.385 . S
C1618 H1599 0.951 . S
C1618 C1616 1.388 . S
C1618 C1619 1.366 . S
C1619 C1618 1.366 . S
C1619 C1620 1.414 . S
C1619 C1622 1.499 . S
C1620 H1600 0.950 . S
C1620 C1619 1.414 . S
C1620 C1621 1.374 . S
C1621 H1601 0.950 . S
C1621 C1617 1.385 . S
C1621 C1620 1.374 . S
C1622 C1619 1.499 . S
C1622 C1623 1.373 . S
C1622 C1624 1.389 . S
C1623 H1602 0.950 . S
C1623 C1622 1.373 . S
C1623 C1639 1.377 . S
C1624 C1622 1.389 . S
C1624 C1625 1.524 . S
C1624 C1638 1.377 . S
C1625 C1624 1.524 . S
C1625 C1626 1.397 . S
C1625 C1630 1.363 . S
C1626 H1603 0.950 . S
C1626 C1625 1.397 . S
C1626 C1627 1.334 . S
C1627 H1604 0.950 . S
C1627 C1626 1.334 . S
C1627 C1628 1.287 . S
C1628 C1627 1.287 . S
C1628 C1629 1.524 . S
C1628 H1647 0.913 . S
C1629 H1605 0.950 . S
C1629 C1628 1.524 . S
C1629 C1630 1.415 . S
C1630 H1606 0.950 . S
C1630 C1625 1.363 . S
C1630 C1629 1.415 . S
C1631 H1607 0.951 . S
C1631 C1632 1.366 . S
C1631 C1633 1.388 . S
C1632 C1631 1.366 . S
C1632 C1636 1.385 . S
C1633 H1608 0.951 . S
C1633 C1631 1.388 . S
C1633 C1634 1.366 . S
C1634 C1633 1.366 . S
C1634 C1635 1.414 . S
C1634 C1637 1.499 . S
C1635 H1609 0.950 . S
C1635 C1634 1.414 . S
C1635 C1636 1.374 . S
C1636 H1610 0.950 . S
C1636 C1632 1.385 . S
C1636 C1635 1.374 . S
C1637 C1634 1.499 . S
C1637 C1638 1.373 . S
C1637 C1639 1.389 . S
C1638 H1611 0.950 . S
C1638 C1624 1.377 . S
C1638 C1637 1.373 . S
C1639 C1623 1.377 . S
C1639 C1637 1.389 . S
C1639 C1640 1.524 . S
C1640 C1639 1.524 . S
C1640 C1641 1.397 1_554 S
C1640 C1645 1.363 1_554 S
C1641 H1612 0.950 . S
C1641 C1640 1.397 1_556 S
C1641 C1642 1.334 . S
C1642 H1613 0.950 . S
C1642 C1641 1.334 . S
C1642 C1643 1.287 . S
C1643 C1642 1.287 . S
C1643 C1644 1.524 . S
C1643 H1646 0.999 . S
C1644 H1614 0.950 . S
C1644 C1643 1.524 . S
C1644 C1645 1.415 . S
C1645 H1615 0.950 1_556 S
C1645 C1640 1.363 1_556 S
C1645 C1644 1.415 . S
H1646 C1643 0.999 . S
H1647 C1628 0.913 . S
H1648 C1666 0.951 . S
H1649 C1668 0.951 . S
H1650 C1670 0.950 . S
H1651 C1671 0.950 . S
H1652 C1673 0.950 . S
H1653 C1676 0.950 . S
H1654 C1677 0.950 . S
H1655 C1679 0.950 . S
H1656 C1680 0.950 . S
H1657 C1681 0.951 1_556 S
H1658 C1683 0.951 . S
H1659 C1685 0.950 . S
H1660 C1686 0.950 . S
H1661 C1688 0.950 . S
H1662 C1691 0.950 . S
H1663 C1692 0.950 . S
H1664 C1694 0.950 . S
H1665 C1695 0.950 . S
C1666 H1648 0.951 . S
C1666 C1667 1.366 . S
C1666 C1668 1.388 . S
C1667 C1666 1.366 . S
C1667 C1671 1.385 . S
C1668 H1649 0.951 . S
C1668 C1666 1.388 . S
C1668 C1669 1.366 . S
C1669 C1668 1.366 . S
C1669 C1670 1.414 . S
C1669 C1672 1.499 . S
C1670 H1650 0.950 . S
C1670 C1669 1.414 . S
C1670 C1671 1.374 . S
C1671 H1651 0.950 . S
C1671 C1667 1.385 . S
C1671 C1670 1.374 . S
C1672 C1669 1.499 . S
C1672 C1673 1.373 . S
C1672 C1674 1.389 . S
C1673 H1652 0.950 . S
C1673 C1672 1.373 . S
C1673 C1689 1.377 . S
C1674 C1672 1.389 . S
C1674 C1675 1.524 . S
C1674 C1688 1.377 . S
C1675 C1674 1.524 . S
C1675 C1676 1.397 . S
C1675 C1680 1.363 . S
C1676 H1653 0.950 . S
C1676 C1675 1.397 . S
C1676 C1677 1.334 . S
C1677 H1654 0.950 . S
C1677 C1676 1.334 . S
C1677 C1678 1.287 . S
C1678 C1677 1.287 . S
C1678 C1679 1.524 . S
C1678 H1697 0.913 . S
C1679 H1655 0.950 . S
C1679 C1678 1.524 . S
C1679 C1680 1.415 . S
C1680 H1656 0.950 . S
C1680 C1675 1.363 . S
C1680 C1679 1.415 . S
C1681 H1657 0.951 1_554 S
C1681 C1682 1.366 . S
C1681 C1683 1.388 . S
C1682 C1681 1.366 . S
C1682 C1686 1.385 . S
C1683 H1658 0.951 . S
C1683 C1681 1.388 . S
C1683 C1684 1.366 . S
C1684 C1683 1.366 . S
C1684 C1685 1.414 . S
C1684 C1687 1.499 . S
C1685 H1659 0.950 . S
C1685 C1684 1.414 . S
C1685 C1686 1.374 . S
C1686 H1660 0.950 . S
C1686 C1682 1.385 . S
C1686 C1685 1.374 . S
C1687 C1684 1.499 . S
C1687 C1688 1.373 . S
C1687 C1689 1.389 . S
C1688 H1661 0.950 . S
C1688 C1674 1.377 . S
C1688 C1687 1.373 . S
C1689 C1673 1.377 . S
C1689 C1687 1.389 . S
C1689 C1690 1.524 . S
C1690 C1689 1.524 . S
C1690 C1691 1.397 . S
C1690 C1695 1.363 . S
C1691 H1662 0.950 . S
C1691 C1690 1.397 . S
C1691 C1692 1.334 . S
C1692 H1663 0.950 . S
C1692 C1691 1.334 . S
C1692 C1693 1.287 . S
C1693 C1692 1.287 . S
C1693 C1694 1.524 . S
C1693 H1696 0.999 . S
C1694 H1664 0.950 . S
C1694 C1693 1.524 . S
C1694 C1695 1.415 . S
C1695 H1665 0.950 . S
C1695 C1690 1.363 . S
C1695 C1694 1.415 . S
H1696 C1693 0.999 . S
H1697 C1678 0.913 . S
H1698 C1716 0.951 . S
H1699 C1718 0.951 . S
H1700 C1720 0.950 . S
H1701 C1721 0.950 . S
H1702 C1723 0.950 . S
H1703 C1726 0.955 . S
H1704 C1727 0.950 1_655 S
H1705 C1729 0.950 . S
H1706 C1730 0.950 . S
H1707 C1731 0.951 . S
H1708 C1733 0.951 . S
H1709 C1735 0.950 . S
H1710 C1736 0.950 . S
H1711 C1738 0.950 . S
H1712 C1741 0.950 . S
H1713 C1742 0.950 . S
H1714 C1744 0.950 . S
H1715 C1745 0.950 . S
C1716 H1698 0.951 . S
C1716 C1717 1.366 . S
C1716 C1718 1.388 . S
C1717 C1716 1.366 . S
C1717 C1721 1.385 . S
C1718 H1699 0.951 . S
C1718 C1716 1.388 . S
C1718 C1719 1.366 . S
C1719 C1718 1.366 . S
C1719 C1720 1.414 . S
C1719 C1722 1.499 . S
C1720 H1700 0.950 . S
C1720 C1719 1.414 . S
C1720 C1721 1.374 . S
C1721 H1701 0.950 . S
C1721 C1717 1.385 . S
C1721 C1720 1.374 . S
C1722 C1719 1.499 . S
C1722 C1723 1.373 . S
C1722 C1724 1.389 1_655 S
C1723 H1702 0.950 . S
C1723 C1722 1.373 . S
C1723 C1739 1.377 1_655 S
C1724 C1722 1.389 1_455 S
C1724 C1725 1.524 . S
C1724 C1738 1.377 . S
C1725 C1724 1.524 . S
C1725 C1726 1.394 1_455 S
C1725 C1730 1.363 . S
C1726 H1703 0.955 . S
C1726 C1725 1.394 1_655 S
C1726 C1727 1.332 1_655 S
C1727 H1704 0.950 1_455 S
C1727 C1726 1.332 1_455 S
C1727 C1728 1.287 . S
C1728 C1727 1.287 . S
C1728 C1729 1.524 . S
C1728 H1747 0.913 . S
C1729 H1705 0.950 . S
C1729 C1728 1.524 . S
C1729 C1730 1.415 . S
C1730 H1706 0.950 . S
C1730 C1725 1.363 . S
C1730 C1729 1.415 . S
C1731 H1707 0.951 . S
C1731 C1732 1.366 . S
C1731 C1733 1.388 . S
C1732 C1731 1.366 . S
C1732 C1736 1.385 . S
C1733 H1708 0.951 . S
C1733 C1731 1.388 . S
C1733 C1734 1.366 . S
C1734 C1733 1.366 . S
C1734 C1735 1.414 . S
C1734 C1737 1.499 . S
C1735 H1709 0.950 . S
C1735 C1734 1.414 . S
C1735 C1736 1.374 . S
C1736 H1710 0.950 . S
C1736 C1732 1.385 . S
C1736 C1735 1.374 . S
C1737 C1734 1.499 . S
C1737 C1738 1.373 . S
C1737 C1739 1.389 . S
C1738 H1711 0.950 . S
C1738 C1724 1.377 . S
C1738 C1737 1.373 . S
C1739 C1723 1.377 1_455 S
C1739 C1737 1.389 . S
C1739 C1740 1.524 1_455 S
C1740 C1739 1.524 1_655 S
C1740 C1741 1.397 1_655 S
C1740 C1745 1.363 . S
C1741 H1712 0.950 . S
C1741 C1740 1.397 1_455 S
C1741 C1742 1.334 . S
C1742 H1713 0.950 . S
C1742 C1741 1.334 . S
C1742 C1743 1.287 1_455 S
C1743 C1742 1.287 1_655 S
C1743 C1744 1.524 . S
C1743 H1746 0.999 . S
C1744 H1714 0.950 . S
C1744 C1743 1.524 . S
C1744 C1745 1.415 . S
C1745 H1715 0.950 . S
C1745 C1740 1.363 . S
C1745 C1744 1.415 . S
H1746 C1743 0.999 . S
H1747 C1728 0.913 . S
H1748 C1766 0.951 . S
H1749 C1768 0.951 . S
H1750 C1770 0.950 . S
H1751 C1771 0.950 . S
H1752 C1773 0.950 . S
H1753 C1776 0.950 . S
H1754 C1777 0.950 . S
H1755 C1779 0.950 . S
H1756 C1780 0.950 . S
H1757 C1781 0.951 . S
H1758 C1783 0.951 . S
H1759 C1785 0.950 . S
H1760 C1786 0.950 . S
H1761 C1788 0.950 . S
H1762 C1791 0.950 . S
H1763 C1792 0.950 . S
H1764 C1794 0.950 . S
H1765 C1795 0.950 . S
C1766 H1748 0.951 . S
C1766 C1767 1.366 . S
C1766 C1768 1.388 . S
C1767 C1766 1.366 . S
C1767 C1771 1.385 . S
C1768 H1749 0.951 . S
C1768 C1766 1.388 . S
C1768 C1769 1.366 . S
C1769 C1768 1.366 . S
C1769 C1770 1.414 . S
C1769 C1772 1.499 . S
C1770 H1750 0.950 . S
C1770 C1769 1.414 . S
C1770 C1771 1.374 . S
C1771 H1751 0.950 . S
C1771 C1767 1.385 . S
C1771 C1770 1.374 . S
C1772 C1769 1.499 . S
C1772 C1773 1.373 . S
C1772 C1774 1.389 . S
C1773 H1752 0.950 . S
C1773 C1772 1.373 . S
C1773 C1789 1.377 . S
C1774 C1772 1.389 . S
C1774 C1775 1.524 . S
C1774 C1788 1.377 . S
C1775 C1774 1.524 . S
C1775 C1776 1.397 . S
C1775 C1780 1.363 . S
C1776 H1753 0.950 . S
C1776 C1775 1.397 . S
C1776 C1777 1.334 . S
C1777 H1754 0.950 . S
C1777 C1776 1.334 . S
C1777 C1778 1.287 . S
C1778 C1777 1.287 . S
C1778 C1779 1.524 . S
C1778 H1797 0.913 . S
C1779 H1755 0.950 . S
C1779 C1778 1.524 . S
C1779 C1780 1.415 . S
C1780 H1756 0.950 . S
C1780 C1775 1.363 . S
C1780 C1779 1.415 . S
C1781 H1757 0.951 . S
C1781 C1782 1.366 . S
C1781 C1783 1.388 . S
C1782 C1781 1.366 . S
C1782 C1786 1.385 . S
C1783 H1758 0.951 . S
C1783 C1781 1.388 . S
C1783 C1784 1.366 . S
C1784 C1783 1.366 . S
C1784 C1785 1.414 . S
C1784 C1787 1.499 . S
C1785 H1759 0.950 . S
C1785 C1784 1.414 . S
C1785 C1786 1.374 . S
C1786 H1760 0.950 . S
C1786 C1782 1.385 . S
C1786 C1785 1.374 . S
C1787 C1784 1.499 . S
C1787 C1788 1.373 . S
C1787 C1789 1.389 . S
C1788 H1761 0.950 . S
C1788 C1774 1.377 . S
C1788 C1787 1.373 . S
C1789 C1773 1.377 . S
C1789 C1787 1.389 . S
C1789 C1790 1.524 . S
C1790 C1789 1.524 . S
C1790 C1791 1.397 . S
C1790 C1795 1.363 . S
C1791 H1762 0.950 . S
C1791 C1790 1.397 . S
C1791 C1792 1.334 . S
C1792 H1763 0.950 . S
C1792 C1791 1.334 . S
C1792 C1793 1.287 . S
C1793 C1792 1.287 . S
C1793 C1794 1.524 . S
C1793 H1796 0.999 . S
C1794 H1764 0.950 . S
C1794 C1793 1.524 . S
C1794 C1795 1.415 . S
C1795 H1765 0.950 . S
C1795 C1790 1.363 . S
C1795 C1794 1.415 . S
H1796 C1793 0.999 . S
H1797 C1778 0.913 . S
H1798 C1816 0.951 . S
H1799 C1818 0.951 . S
H1800 C1820 0.950 . S
H1801 C1821 0.950 . S
H1802 C1823 0.950 . S
H1803 C1826 0.950 . S
H1804 C1827 0.950 . S
H1805 C1829 0.950 . S
H1806 C1830 0.950 . S
H1807 C1831 0.951 . S
H1808 C1833 0.951 . S
H1809 C1835 0.950 . S
H1810 C1836 0.950 . S
H1811 C1838 0.950 . S
H1812 C1841 0.950 . S
H1813 C1842 0.950 . S
H1814 C1844 0.950 . S
H1815 C1845 0.950 . S
C1816 H1798 0.951 . S
C1816 C1817 1.366 . S
C1816 C1818 1.388 . S
C1817 C1816 1.366 . S
C1817 C1821 1.385 . S
C1818 H1799 0.951 . S
C1818 C1816 1.388 . S
C1818 C1819 1.366 . S
C1819 C1818 1.366 . S
C1819 C1820 1.414 . S
C1819 C1822 1.499 . S
C1820 H1800 0.950 . S
C1820 C1819 1.414 . S
C1820 C1821 1.374 . S
C1821 H1801 0.950 . S
C1821 C1817 1.385 . S
C1821 C1820 1.374 . S
C1822 C1819 1.499 . S
C1822 C1823 1.373 . S
C1822 C1824 1.389 . S
C1823 H1802 0.950 . S
C1823 C1822 1.373 . S
C1823 C1839 1.377 . S
C1824 C1822 1.389 . S
C1824 C1825 1.524 . S
C1824 C1838 1.377 1_545 S
C1825 C1824 1.524 . S
C1825 C1826 1.397 . S
C1825 C1830 1.363 1_545 S
C1826 H1803 0.950 . S
C1826 C1825 1.397 . S
C1826 C1827 1.334 . S
C1827 H1804 0.950 . S
C1827 C1826 1.334 . S
C1827 C1828 1.287 . S
C1828 C1827 1.287 . S
C1828 C1829 1.524 1_545 S
C1828 H1847 0.913 . S
C1829 H1805 0.950 . S
C1829 C1828 1.524 1_565 S
C1829 C1830 1.415 . S
C1830 H1806 0.950 . S
C1830 C1825 1.363 1_565 S
C1830 C1829 1.415 . S
C1831 H1807 0.951 . S
C1831 C1832 1.366 . S
C1831 C1833 1.388 . S
C1832 C1831 1.366 . S
C1832 C1836 1.385 . S
C1833 H1808 0.951 . S
C1833 C1831 1.388 . S
C1833 C1834 1.366 . S
C1834 C1833 1.366 . S
C1834 C1835 1.414 . S
C1834 C1837 1.499 . S
C1835 H1809 0.950 . S
C1835 C1834 1.414 . S
C1835 C1836 1.374 . S
C1836 H1810 0.950 . S
C1836 C1832 1.385 . S
C1836 C1835 1.374 . S
C1837 C1834 1.499 . S
C1837 C1838 1.373 . S
C1837 C1839 1.389 1_565 S
C1838 H1811 0.950 . S
C1838 C1824 1.377 1_565 S
C1838 C1837 1.373 . S
C1839 C1823 1.377 . S
C1839 C1837 1.389 1_545 S
C1839 C1840 1.524 . S
C1840 C1839 1.524 . S
C1840 C1841 1.397 1_545 S
C1840 C1845 1.363 . S
C1841 H1812 0.950 . S
C1841 C1840 1.397 1_565 S
C1841 C1842 1.334 . S
C1842 H1813 0.950 . S
C1842 C1841 1.334 . S
C1842 C1843 1.287 1_565 S
C1843 C1842 1.287 1_545 S
C1843 C1844 1.524 . S
C1843 H1846 0.999 . S
C1844 H1814 0.950 . S
C1844 C1843 1.524 . S
C1844 C1845 1.415 . S
C1845 H1815 0.950 . S
C1845 C1840 1.363 . S
C1845 C1844 1.415 . S
H1846 C1843 0.999 . S
H1847 C1828 0.913 . S
H1848 C1866 0.951 . S
H1849 C1868 0.951 . S
H1850 C1870 0.950 . S
H1851 C1871 0.950 . S
H1852 C1873 0.950 . S
H1853 C1876 0.950 . S
H1854 C1877 0.950 . S
H1855 C1879 0.950 . S
H1856 C1880 0.950 . S
H1857 C1881 0.951 . S
H1858 C1883 0.951 . S
H1859 C1885 0.950 . S
H1860 C1886 0.950 . S
H1861 C1888 0.950 . S
H1862 C1891 0.950 . S
H1863 C1892 0.950 . S
H1864 C1894 0.950 . S
H1865 C1895 0.950 . S
C1866 H1848 0.951 . S
C1866 C1867 1.366 . S
C1866 C1868 1.388 . S
C1867 C1866 1.366 . S
C1867 C1871 1.385 . S
C1868 H1849 0.951 . S
C1868 C1866 1.388 . S
C1868 C1869 1.366 . S
C1869 C1868 1.366 . S
C1869 C1870 1.414 . S
C1869 C1872 1.499 . S
C1870 H1850 0.950 . S
C1870 C1869 1.414 . S
C1870 C1871 1.374 . S
C1871 H1851 0.950 . S
C1871 C1867 1.385 . S
C1871 C1870 1.374 . S
C1872 C1869 1.499 . S
C1872 C1873 1.373 . S
C1872 C1874 1.389 . S
C1873 H1852 0.950 . S
C1873 C1872 1.373 . S
C1873 C1889 1.377 . S
C1874 C1872 1.389 . S
C1874 C1875 1.524 . S
C1874 C1888 1.377 . S
C1875 C1874 1.524 . S
C1875 C1876 1.397 . S
C1875 C1880 1.363 . S
C1876 H1853 0.950 . S
C1876 C1875 1.397 . S
C1876 C1877 1.334 . S
C1877 H1854 0.950 . S
C1877 C1876 1.334 . S
C1877 C1878 1.287 . S
C1878 C1877 1.287 . S
C1878 C1879 1.524 . S
C1878 H1897 0.913 . S
C1879 H1855 0.950 . S
C1879 C1878 1.524 . S
C1879 C1880 1.415 . S
C1880 H1856 0.950 . S
C1880 C1875 1.363 . S
C1880 C1879 1.415 . S
C1881 H1857 0.951 . S
C1881 C1882 1.366 . S
C1881 C1883 1.388 . S
C1882 C1881 1.366 . S
C1882 C1886 1.385 . S
C1883 H1858 0.951 . S
C1883 C1881 1.388 . S
C1883 C1884 1.366 . S
C1884 C1883 1.366 . S
C1884 C1885 1.414 . S
C1884 C1887 1.499 . S
C1885 H1859 0.950 . S
C1885 C1884 1.414 . S
C1885 C1886 1.374 . S
C1886 H1860 0.950 . S
C1886 C1882 1.385 . S
C1886 C1885 1.374 . S
C1887 C1884 1.499 . S
C1887 C1888 1.373 . S
C1887 C1889 1.389 . S
C1888 H1861 0.950 . S
C1888 C1874 1.377 . S
C1888 C1887 1.373 . S
C1889 C1873 1.377 . S
C1889 C1887 1.389 . S
C1889 C1890 1.524 . S
C1890 C1889 1.524 . S
C1890 C1891 1.397 . S
C1890 C1895 1.363 . S
C1891 H1862 0.950 . S
C1891 C1890 1.397 . S
C1891 C1892 1.334 . S
C1892 H1863 0.950 . S
C1892 C1891 1.334 . S
C1892 C1893 1.287 . S
C1893 C1892 1.287 . S
C1893 C1894 1.524 . S
C1893 H1896 0.999 . S
C1894 H1864 0.950 . S
C1894 C1893 1.524 . S
C1894 C1895 1.415 . S
C1895 H1865 0.950 . S
C1895 C1890 1.363 . S
C1895 C1894 1.415 . S
H1896 C1893 0.999 . S
H1897 C1878 0.913 . S
H1898 C1916 0.951 . S
H1899 C1918 0.951 . S
H1900 C1920 0.950 . S
H1901 C1921 0.950 . S
H1902 C1923 0.950 . S
H1903 C1926 0.950 . S
H1904 C1927 0.950 . S
H1905 C1929 0.950 . S
H1906 C1930 0.950 . S
H1907 C1931 0.951 . S
H1908 C1933 0.951 . S
H1909 C1935 0.950 . S
H1910 C1936 0.950 . S
H1911 C1938 0.950 . S
H1912 C1941 0.950 . S
H1913 C1942 0.950 . S
H1914 C1944 0.950 . S
H1915 C1945 0.950 . S
C1916 H1898 0.951 . S
C1916 C1917 1.366 . S
C1916 C1918 1.388 . S
C1917 C1916 1.366 . S
C1917 C1921 1.385 . S
C1918 H1899 0.951 . S
C1918 C1916 1.388 . S
C1918 C1919 1.366 . S
C1919 C1918 1.366 . S
C1919 C1920 1.414 . S
C1919 C1922 1.499 . S
C1920 H1900 0.950 . S
C1920 C1919 1.414 . S
C1920 C1921 1.374 . S
C1921 H1901 0.950 . S
C1921 C1917 1.385 . S
C1921 C1920 1.374 . S
C1922 C1919 1.499 . S
C1922 C1923 1.373 . S
C1922 C1924 1.389 . S
C1923 H1902 0.950 . S
C1923 C1922 1.373 . S
C1923 C1939 1.377 . S
C1924 C1922 1.389 . S
C1924 C1925 1.524 . S
C1924 C1938 1.377 . S
C1925 C1924 1.524 . S
C1925 C1926 1.397 . S
C1925 C1930 1.363 . S
C1926 H1903 0.950 . S
C1926 C1925 1.397 . S
C1926 C1927 1.334 . S
C1927 H1904 0.950 . S
C1927 C1926 1.334 . S
C1927 C1928 1.287 . S
C1928 C1927 1.287 . S
C1928 C1929 1.524 . S
C1928 H1947 0.913 . S
C1929 H1905 0.950 . S
C1929 C1928 1.524 . S
C1929 C1930 1.415 . S
C1930 H1906 0.950 . S
C1930 C1925 1.363 . S
C1930 C1929 1.415 . S
C1931 H1907 0.951 . S
C1931 C1932 1.366 . S
C1931 C1933 1.388 . S
C1932 C1931 1.366 . S
C1932 C1936 1.385 . S
C1933 H1908 0.951 . S
C1933 C1931 1.388 . S
C1933 C1934 1.366 . S
C1934 C1933 1.366 . S
C1934 C1935 1.414 . S
C1934 C1937 1.499 . S
C1935 H1909 0.950 . S
C1935 C1934 1.414 . S
C1935 C1936 1.374 . S
C1936 H1910 0.950 . S
C1936 C1932 1.385 . S
C1936 C1935 1.374 . S
C1937 C1934 1.499 . S
C1937 C1938 1.373 . S
C1937 C1939 1.389 . S
C1938 H1911 0.950 . S
C1938 C1924 1.377 . S
C1938 C1937 1.373 . S
C1939 C1923 1.377 . S
C1939 C1937 1.389 . S
C1939 C1940 1.524 . S
C1940 C1939 1.524 . S
C1940 C1941 1.397 . S
C1940 C1945 1.363 . S
C1941 H1912 0.950 . S
C1941 C1940 1.397 . S
C1941 C1942 1.334 . S
C1942 H1913 0.950 . S
C1942 C1941 1.334 . S
C1942 C1943 1.287 . S
C1943 C1942 1.287 . S
C1943 C1944 1.524 . S
C1943 H1946 0.999 . S
C1944 H1914 0.950 . S
C1944 C1943 1.524 . S
C1944 C1945 1.415 . S
C1945 H1915 0.950 . S
C1945 C1940 1.363 . S
C1945 C1944 1.415 . S
H1946 C1943 0.999 . S
H1947 C1928 0.913 . S
H1948 C1966 0.951 . S
H1949 C1968 0.951 . S
H1950 C1970 0.950 . S
H1951 C1971 0.950 . S
H1952 C1973 0.950 . S
H1953 C1976 0.950 . S
H1954 C1977 0.950 . S
H1955 C1979 0.950 . S
H1956 C1980 0.950 . S
H1957 C1981 0.951 . S
H1958 C1983 0.951 . S
H1959 C1985 0.950 . S
H1960 C1986 0.950 . S
H1961 C1988 0.950 . S
H1962 C1991 0.950 . S
H1963 C1992 0.950 . S
H1964 C1994 0.950 . S
H1965 C1995 0.950 . S
C1966 H1948 0.951 . S
C1966 C1967 1.366 . S
C1966 C1968 1.388 . S
C1967 C1966 1.366 . S
C1967 C1971 1.385 . S
C1968 H1949 0.951 . S
C1968 C1966 1.388 . S
C1968 C1969 1.366 . S
C1969 C1968 1.366 . S
C1969 C1970 1.414 . S
C1969 C1972 1.499 . S
C1970 H1950 0.950 . S
C1970 C1969 1.414 . S
C1970 C1971 1.374 . S
C1971 H1951 0.950 . S
C1971 C1967 1.385 . S
C1971 C1970 1.374 . S
C1972 C1969 1.499 . S
C1972 C1973 1.373 . S
C1972 C1974 1.389 . S
C1973 H1952 0.950 . S
C1973 C1972 1.373 . S
C1973 C1989 1.377 . S
C1974 C1972 1.389 . S
C1974 C1975 1.524 . S
C1974 C1988 1.377 . S
C1975 C1974 1.524 . S
C1975 C1976 1.397 . S
C1975 C1980 1.363 . S
C1976 H1953 0.950 . S
C1976 C1975 1.397 . S
C1976 C1977 1.334 . S
C1977 H1954 0.950 . S
C1977 C1976 1.334 . S
C1977 C1978 1.287 . S
C1978 C1977 1.287 . S
C1978 C1979 1.524 . S
C1978 H1997 0.913 . S
C1979 H1955 0.950 . S
C1979 C1978 1.524 . S
C1979 C1980 1.415 . S
C1980 H1956 0.950 . S
C1980 C1975 1.363 . S
C1980 C1979 1.415 . S
C1981 H1957 0.951 . S
C1981 C1982 1.366 . S
C1981 C1983 1.388 . S
C1982 C1981 1.366 . S
C1982 C1986 1.385 . S
C1983 H1958 0.951 . S
C1983 C1981 1.388 . S
C1983 C1984 1.366 . S
C1984 C1983 1.366 . S
C1984 C1985 1.414 . S
C1984 C1987 1.499 . S
C1985 H1959 0.950 . S
C1985 C1984 1.414 . S
C1985 C1986 1.374 . S
C1986 H1960 0.950 . S
C1986 C1982 1.385 . S
C1986 C1985 1.374 . S
C1987 C1984 1.499 . S
C1987 C1988 1.373 . S
C1987 C1989 1.389 . S
C1988 H1961 0.950 . S
C1988 C1974 1.377 . S
C1988 C1987 1.373 . S
C1989 C1973 1.377 . S
C1989 C1987 1.389 . S
C1989 C1990 1.524 . S
C1990 C1989 1.524 . S
C1990 C1991 1.397 . S
C1990 C1995 1.363 . S
C1991 H1962 0.950 . S
C1991 C1990 1.397 . S
C1991 C1992 1.334 . S
C1992 H1963 0.950 . S
C1992 C1991 1.334 . S
C1992 C1993 1.287 . S
C1993 C1992 1.287 . S
C1993 C1994 1.524 . S
C1993 H1996 0.999 . S
C1994 H1964 0.950 . S
C1994 C1993 1.524 . S
C1994 C1995 1.415 . S
C1995 H1965 0.950 . S
C1995 C1990 1.363 . S
C1995 C1994 1.415 . S
H1996 C1993 0.999 . S
H1997 C1978 0.913 . S
H1998 C2016 0.951 . S
H1999 C2018 0.951 . S
H2000 C2020 0.950 . S
H2001 C2021 0.950 . S
H2002 C2023 0.950 . S
H2003 C2026 0.950 . S
H2004 C2027 0.950 . S
H2005 C2029 0.950 . S
H2006 C2030 0.950 . S
H2007 C2031 0.951 . S
H2008 C2033 0.951 . S
H2009 C2035 0.950 . S
H2010 C2036 0.950 . S
H2011 C2038 0.950 . S
H2012 C2041 0.950 . S
H2013 C2042 0.950 . S
H2014 C2044 0.950 . S
H2015 C2045 0.950 . S
C2016 H1998 0.951 . S
C2016 C2017 1.366 . S
C2016 C2018 1.388 . S
C2017 C2016 1.366 . S
C2017 C2021 1.385 . S
C2018 H1999 0.951 . S
C2018 C2016 1.388 . S
C2018 C2019 1.366 . S
C2019 C2018 1.366 . S
C2019 C2020 1.414 . S
C2019 C2022 1.499 . S
C2020 H2000 0.950 . S
C2020 C2019 1.414 . S
C2020 C2021 1.374 . S
C2021 H2001 0.950 . S
C2021 C2017 1.385 . S
C2021 C2020 1.374 . S
C2022 C2019 1.499 . S
C2022 C2023 1.373 . S
C2022 C2024 1.389 . S
C2023 H2002 0.950 . S
C2023 C2022 1.373 . S
C2023 C2039 1.377 . S
C2024 C2022 1.389 . S
C2024 C2025 1.524 . S
C2024 C2038 1.377 . S
C2025 C2024 1.524 . S
C2025 C2026 1.397 . S
C2025 C2030 1.363 . S
C2026 H2003 0.950 . S
C2026 C2025 1.397 . S
C2026 C2027 1.334 . S
C2027 H2004 0.950 . S
C2027 C2026 1.334 . S
C2027 C2028 1.287 . S
C2028 C2027 1.287 . S
C2028 C2029 1.524 . S
C2028 H2047 0.913 . S
C2029 H2005 0.950 . S
C2029 C2028 1.524 . S
C2029 C2030 1.415 . S
C2030 H2006 0.950 . S
C2030 C2025 1.363 . S
C2030 C2029 1.415 . S
C2031 H2007 0.951 . S
C2031 C2032 1.366 . S
C2031 C2033 1.388 . S
C2032 C2031 1.366 . S
C2032 C2036 1.385 . S
C2033 H2008 0.951 . S
C2033 C2031 1.388 . S
C2033 C2034 1.366 . S
C2034 C2033 1.366 . S
C2034 C2035 1.414 . S
C2034 C2037 1.499 . S
C2035 H2009 0.950 . S
C2035 C2034 1.414 . S
C2035 C2036 1.374 . S
C2036 H2010 0.950 . S
C2036 C2032 1.385 . S
C2036 C2035 1.374 . S
C2037 C2034 1.499 . S
C2037 C2038 1.373 . S
C2037 C2039 1.389 . S
C2038 H2011 0.950 . S
C2038 C2024 1.377 . S
C2038 C2037 1.373 . S
C2039 C2023 1.377 . S
C2039 C2037 1.389 . S
C2039 C2040 1.524 . S
C2040 C2039 1.524 . S
C2040 C2041 1.397 . S
C2040 C2045 1.363 . S
C2041 H2012 0.950 . S
C2041 C2040 1.397 . S
C2041 C2042 1.334 . S
C2042 H2013 0.950 . S
C2042 C2041 1.334 . S
C2042 C2043 1.287 . S
C2043 C2042 1.287 . S
C2043 C2044 1.524 . S
C2043 H2046 0.999 . S
C2044 H2014 0.950 . S
C2044 C2043 1.524 . S
C2044 C2045 1.415 . S
C2045 H2015 0.950 . S
C2045 C2040 1.363 . S
C2045 C2044 1.415 . S
H2046 C2043 0.999 . S
H2047 C2028 0.913 . S
H2048 C2066 0.951 . S
H2049 C2068 0.951 . S
H2050 C2070 0.950 . S
H2051 C2071 0.950 . S
H2052 C2073 0.950 . S
H2053 C2076 0.950 . S
H2054 C2077 0.950 . S
H2055 C2079 0.950 . S
H2056 C2080 0.950 . S
H2057 C2081 0.951 . S
H2058 C2083 0.951 . S
H2059 C2085 0.950 . S
H2060 C2086 0.950 . S
H2061 C2088 0.950 . S
H2062 C2091 0.950 . S
H2063 C2092 0.950 . S
H2064 C2094 0.950 . S
H2065 C2095 0.950 . S
C2066 H2048 0.951 . S
C2066 C2067 1.366 . S
C2066 C2068 1.388 . S
C2067 C2066 1.366 . S
C2067 C2071 1.385 . S
C2068 H2049 0.951 . S
C2068 C2066 1.388 . S
C2068 C2069 1.366 . S
C2069 C2068 1.366 . S
C2069 C2070 1.414 . S
C2069 C2072 1.499 . S
C2070 H2050 0.950 . S
C2070 C2069 1.414 . S
C2070 C2071 1.374 . S
C2071 H2051 0.950 . S
C2071 C2067 1.385 . S
C2071 C2070 1.374 . S
C2072 C2069 1.499 . S
C2072 C2073 1.373 . S
C2072 C2074 1.389 . S
C2073 H2052 0.950 . S
C2073 C2072 1.373 . S
C2073 C2089 1.377 . S
C2074 C2072 1.389 . S
C2074 C2075 1.524 . S
C2074 C2088 1.377 . S
C2075 C2074 1.524 . S
C2075 C2076 1.397 . S
C2075 C2080 1.363 . S
C2076 H2053 0.950 . S
C2076 C2075 1.397 . S
C2076 C2077 1.334 . S
C2077 H2054 0.950 . S
C2077 C2076 1.334 . S
C2077 C2078 1.287 . S
C2078 C2077 1.287 . S
C2078 C2079 1.524 . S
C2078 H2097 0.913 . S
C2079 H2055 0.950 . S
C2079 C2078 1.524 . S
C2079 C2080 1.415 . S
C2080 H2056 0.950 . S
C2080 C2075 1.363 . S
C2080 C2079 1.415 . S
C2081 H2057 0.951 . S
C2081 C2082 1.366 . S
C2081 C2083 1.388 . S
C2082 C2081 1.366 . S
C2082 C2086 1.385 . S
C2083 H2058 0.951 . S
C2083 C2081 1.388 . S
C2083 C2084 1.366 . S
C2084 C2083 1.366 . S
C2084 C2085 1.414 . S
C2084 C2087 1.499 . S
C2085 H2059 0.950 . S
C2085 C2084 1.414 . S
C2085 C2086 1.374 . S
C2086 H2060 0.950 . S
C2086 C2082 1.385 . S
C2086 C2085 1.374 . S
C2087 C2084 1.499 . S
C2087 C2088 1.373 . S
C2087 C2089 1.389 . S
C2088 H2061 0.950 . S
C2088 C2074 1.377 . S
C2088 C2087 1.373 . S
C2089 C2073 1.377 . S
C2089 C2087 1.389 . S
C2089 C2090 1.524 . S
C2090 C2089 1.524 . S
C2090 C2091 1.397 . S
C2090 C2095 1.363 . S
C2091 H2062 0.950 . S
C2091 C2090 1.397 . S
C2091 C2092 1.334 . S
C2092 H2063 0.950 . S
C2092 C2091 1.334 . S
C2092 C2093 1.287 . S
C2093 C2092 1.287 . S
C2093 C2094 1.524 . S
C2093 H2096 0.999 . S
C2094 H2064 0.950 . S
C2094 C2093 1.524 . S
C2094 C2095 1.415 . S
C2095 H2065 0.950 . S
C2095 C2090 1.363 . S
C2095 C2094 1.415 . S
H2096 C2093 0.999 . S
H2097 C2078 0.913 . S
H2098 C2116 0.951 . S
H2099 C2118 0.951 . S
H2100 C2120 0.950 . S
H2101 C2121 0.950 . S
H2102 C2123 0.950 . S
H2103 C2126 0.950 . S
H2104 C2127 0.950 . S
H2105 C2129 0.950 . S
H2106 C2130 0.950 . S
H2107 C2131 0.951 . S
H2108 C2133 0.951 . S
H2109 C2135 0.950 . S
H2110 C2136 0.950 . S
H2111 C2138 0.950 . S
H2112 C2141 0.950 . S
H2113 C2142 0.950 . S
H2114 C2144 0.950 . S
H2115 C2145 0.950 . S
C2116 H2098 0.951 . S
C2116 C2117 1.366 . S
C2116 C2118 1.388 . S
C2117 C2116 1.366 . S
C2117 C2121 1.385 . S
C2118 H2099 0.951 . S
C2118 C2116 1.388 . S
C2118 C2119 1.366 . S
C2119 C2118 1.366 . S
C2119 C2120 1.414 . S
C2119 C2122 1.499 . S
C2120 H2100 0.950 . S
C2120 C2119 1.414 . S
C2120 C2121 1.374 . S
C2121 H2101 0.950 . S
C2121 C2117 1.385 . S
C2121 C2120 1.374 . S
C2122 C2119 1.499 . S
C2122 C2123 1.373 . S
C2122 C2124 1.389 . S
C2123 H2102 0.950 . S
C2123 C2122 1.373 . S
C2123 C2139 1.377 . S
C2124 C2122 1.389 . S
C2124 C2125 1.524 . S
C2124 C2138 1.377 . S
C2125 C2124 1.524 . S
C2125 C2126 1.397 . S
C2125 C2130 1.363 . S
C2126 H2103 0.950 . S
C2126 C2125 1.397 . S
C2126 C2127 1.334 . S
C2127 H2104 0.950 . S
C2127 C2126 1.334 . S
C2127 C2128 1.287 . S
C2128 C2127 1.287 . S
C2128 C2129 1.524 . S
C2128 H2147 0.913 . S
C2129 H2105 0.950 . S
C2129 C2128 1.524 . S
C2129 C2130 1.415 . S
C2130 H2106 0.950 . S
C2130 C2125 1.363 . S
C2130 C2129 1.415 . S
C2131 H2107 0.951 . S
C2131 C2132 1.366 . S
C2131 C2133 1.388 . S
C2132 C2131 1.366 . S
C2132 C2136 1.385 . S
C2133 H2108 0.951 . S
C2133 C2131 1.388 . S
C2133 C2134 1.366 . S
C2134 C2133 1.366 . S
C2134 C2135 1.414 . S
C2134 C2137 1.499 . S
C2135 H2109 0.950 . S
C2135 C2134 1.414 . S
C2135 C2136 1.374 . S
C2136 H2110 0.950 . S
C2136 C2132 1.385 . S
C2136 C2135 1.374 . S
C2137 C2134 1.499 . S
C2137 C2138 1.373 . S
C2137 C2139 1.389 . S
C2138 H2111 0.950 . S
C2138 C2124 1.377 . S
C2138 C2137 1.373 . S
C2139 C2123 1.377 . S
C2139 C2137 1.389 . S
C2139 C2140 1.524 . S
C2140 C2139 1.524 . S
C2140 C2141 1.397 . S
C2140 C2145 1.363 . S
C2141 H2112 0.950 . S
C2141 C2140 1.397 . S
C2141 C2142 1.334 . S
C2142 H2113 0.950 . S
C2142 C2141 1.334 . S
C2142 C2143 1.287 . S
C2143 C2142 1.287 . S
C2143 C2144 1.524 . S
C2143 H2146 0.999 . S
C2144 H2114 0.950 . S
C2144 C2143 1.524 . S
C2144 C2145 1.415 . S
C2145 H2115 0.950 . S
C2145 C2140 1.363 . S
C2145 C2144 1.415 . S
H2146 C2143 0.999 . S
H2147 C2128 0.913 . S
H2148 C2166 0.951 . S
H2149 C2168 0.951 . S
H2150 C2170 0.950 . S
H2151 C2171 0.950 . S
H2152 C2173 0.950 . S
H2153 C2176 0.950 . S
H2154 C2177 0.950 . S
H2155 C2179 0.950 . S
H2156 C2180 0.950 . S
H2157 C2181 0.951 . S
H2158 C2183 0.951 . S
H2159 C2185 0.950 . S
H2160 C2186 0.950 . S
H2161 C2188 0.950 . S
H2162 C2191 0.950 . S
H2163 C2192 0.950 . S
H2164 C2194 0.950 . S
H2165 C2195 0.950 . S
C2166 H2148 0.951 . S
C2166 C2167 1.366 . S
C2166 C2168 1.388 1_545 S
C2167 C2166 1.366 . S
C2167 C2171 1.385 . S
C2168 H2149 0.951 . S
C2168 C2166 1.388 1_565 S
C2168 C2169 1.366 . S
C2169 C2168 1.366 . S
C2169 C2170 1.414 . S
C2169 C2172 1.499 . S
C2170 H2150 0.950 . S
C2170 C2169 1.414 . S
C2170 C2171 1.374 1_565 S
C2171 H2151 0.950 . S
C2171 C2167 1.385 . S
C2171 C2170 1.374 1_545 S
C2172 C2169 1.499 . S
C2172 C2173 1.373 . S
C2172 C2174 1.389 . S
C2173 H2152 0.950 . S
C2173 C2172 1.373 . S
C2173 C2189 1.377 . S
C2174 C2172 1.389 . S
C2174 C2175 1.524 . S
C2174 C2188 1.377 . S
C2175 C2174 1.524 . S
C2175 C2176 1.397 . S
C2175 C2180 1.363 . S
C2176 H2153 0.950 . S
C2176 C2175 1.397 . S
C2176 C2177 1.334 . S
C2177 H2154 0.950 . S
C2177 C2176 1.334 . S
C2177 C2178 1.287 . S
C2178 C2177 1.287 . S
C2178 C2179 1.524 . S
C2178 H2197 0.913 . S
C2179 H2155 0.950 . S
C2179 C2178 1.524 . S
C2179 C2180 1.415 . S
C2180 H2156 0.950 . S
C2180 C2175 1.363 . S
C2180 C2179 1.415 . S
C2181 H2157 0.951 . S
C2181 C2182 1.366 . S
C2181 C2183 1.388 . S
C2182 C2181 1.366 . S
C2182 C2186 1.385 . S
C2183 H2158 0.951 . S
C2183 C2181 1.388 . S
C2183 C2184 1.366 . S
C2184 C2183 1.366 . S
C2184 C2185 1.414 . S
C2184 C2187 1.499 . S
C2185 H2159 0.950 . S
C2185 C2184 1.414 . S
C2185 C2186 1.374 . S
C2186 H2160 0.950 . S
C2186 C2182 1.385 . S
C2186 C2185 1.374 . S
C2187 C2184 1.499 . S
C2187 C2188 1.373 . S
C2187 C2189 1.389 . S
C2188 H2161 0.950 . S
C2188 C2174 1.377 . S
C2188 C2187 1.373 . S
C2189 C2173 1.377 . S
C2189 C2187 1.389 . S
C2189 C2190 1.524 . S
C2190 C2189 1.524 . S
C2190 C2191 1.397 . S
C2190 C2195 1.363 . S
C2191 H2162 0.950 . S
C2191 C2190 1.397 . S
C2191 C2192 1.334 . S
C2192 H2163 0.950 . S
C2192 C2191 1.334 . S
C2192 C2193 1.287 . S
C2193 C2192 1.287 . S
C2193 C2194 1.524 . S
C2193 H2196 0.999 . S
C2194 H2164 0.950 . S
C2194 C2193 1.524 . S
C2194 C2195 1.415 . S
C2195 H2165 0.950 . S
C2195 C2190 1.363 . S
C2195 C2194 1.415 . S
H2196 C2193 0.999 . S
H2197 C2178 0.913 . S
H2198 C2216 0.951 1_655 S
H2199 C2218 0.951 . S
H2200 C2220 0.950 . S
H2201 C2221 0.950 . S
H2202 C2223 0.950 . S
H2203 C2226 0.950 . S
H2204 C2227 0.950 . S
H2205 C2229 0.950 . S
H2206 C2230 0.950 . S
H2207 C2231 0.951 . S
H2208 C2233 0.951 . S
H2209 C2235 0.950 . S
H2210 C2236 0.950 . S
H2211 C2238 0.950 . S
H2212 C2241 0.950 . S
H2213 C2242 0.950 . S
H2214 C2244 0.950 . S
H2215 C2245 0.950 . S
C2216 H2198 0.951 1_455 S
C2216 C2217 1.366 1_455 S
C2216 C2218 1.388 . S
C2217 C2216 1.366 1_655 S
C2217 C2221 1.385 1_655 S
C2218 H2199 0.951 . S
C2218 C2216 1.388 . S
C2218 C2219 1.366 . S
C2219 C2218 1.366 . S
C2219 C2220 1.414 . S
C2219 C2222 1.499 . S
C2220 H2200 0.950 . S
C2220 C2219 1.414 . S
C2220 C2221 1.374 . S
C2221 H2201 0.950 . S
C2221 C2217 1.385 1_455 S
C2221 C2220 1.374 . S
C2222 C2219 1.499 . S
C2222 C2223 1.373 . S
C2222 C2224 1.389 . S
C2223 H2202 0.950 . S
C2223 C2222 1.373 . S
C2223 C2239 1.377 . S
C2224 C2222 1.389 . S
C2224 C2225 1.524 . S
C2224 C2238 1.377 . S
C2225 C2224 1.524 . S
C2225 C2226 1.397 . S
C2225 C2230 1.363 . S
C2226 H2203 0.950 . S
C2226 C2225 1.397 . S
C2226 C2227 1.334 . S
C2227 H2204 0.950 . S
C2227 C2226 1.334 . S
C2227 C2228 1.287 . S
C2228 C2227 1.287 . S
C2228 C2229 1.524 . S
C2228 H2247 0.913 . S
C2229 H2205 0.950 . S
C2229 C2228 1.524 . S
C2229 C2230 1.415 . S
C2230 H2206 0.950 . S
C2230 C2225 1.363 . S
C2230 C2229 1.415 . S
C2231 H2207 0.951 . S
C2231 C2232 1.366 . S
C2231 C2233 1.388 . S
C2232 C2231 1.366 . S
C2232 C2236 1.385 . S
C2233 H2208 0.951 . S
C2233 C2231 1.388 . S
C2233 C2234 1.366 . S
C2234 C2233 1.366 . S
C2234 C2235 1.414 . S
C2234 C2237 1.499 . S
C2235 H2209 0.950 . S
C2235 C2234 1.414 . S
C2235 C2236 1.374 . S
C2236 H2210 0.950 . S
C2236 C2232 1.385 . S
C2236 C2235 1.374 . S
C2237 C2234 1.499 . S
C2237 C2238 1.373 . S
C2237 C2239 1.389 . S
C2238 H2211 0.950 . S
C2238 C2224 1.377 . S
C2238 C2237 1.373 . S
C2239 C2223 1.377 . S
C2239 C2237 1.389 . S
C2239 C2240 1.524 . S
C2240 C2239 1.524 . S
C2240 C2241 1.397 . S
C2240 C2245 1.363 . S
C2241 H2212 0.950 . S
C2241 C2240 1.397 . S
C2241 C2242 1.334 . S
C2242 H2213 0.950 . S
C2242 C2241 1.334 . S
C2242 C2243 1.287 . S
C2243 C2242 1.287 . S
C2243 C2244 1.524 . S
C2243 H2246 0.999 . S
C2244 H2214 0.950 . S
C2244 C2243 1.524 . S
C2244 C2245 1.415 . S
C2245 H2215 0.950 . S
C2245 C2240 1.363 . S
C2245 C2244 1.415 . S
H2246 C2243 0.999 . S
H2247 C2228 0.913 . S
H2248 C2266 0.951 . S
H2249 C2268 0.951 . S
H2250 C2270 0.950 . S
H2251 C2271 0.950 . S
H2252 C2273 0.950 . S
H2253 C2276 0.950 . S
H2254 C2277 0.950 . S
H2255 C2279 0.950 . S
H2256 C2280 0.950 . S
H2257 C2281 0.951 . S
H2258 C2283 0.951 . S
H2259 C2285 0.950 . S
H2260 C2286 0.950 . S
H2261 C2288 0.950 . S
H2262 C2291 0.950 . S
H2263 C2292 0.950 . S
H2264 C2294 0.950 . S
H2265 C2295 0.950 . S
C2266 H2248 0.951 . S
C2266 C2267 1.366 . S
C2266 C2268 1.388 . S
C2267 C2266 1.366 . S
C2267 C2271 1.385 . S
C2268 H2249 0.951 . S
C2268 C2266 1.388 . S
C2268 C2269 1.366 . S
C2269 C2268 1.366 . S
C2269 C2270 1.414 . S
C2269 C2272 1.499 . S
C2270 H2250 0.950 . S
C2270 C2269 1.414 . S
C2270 C2271 1.374 . S
C2271 H2251 0.950 . S
C2271 C2267 1.385 . S
C2271 C2270 1.374 . S
C2272 C2269 1.499 . S
C2272 C2273 1.373 . S
C2272 C2274 1.389 . S
C2273 H2252 0.950 . S
C2273 C2272 1.373 . S
C2273 C2289 1.377 . S
C2274 C2272 1.389 . S
C2274 C2275 1.524 . S
C2274 C2288 1.377 . S
C2275 C2274 1.524 . S
C2275 C2276 1.397 . S
C2275 C2280 1.363 . S
C2276 H2253 0.950 . S
C2276 C2275 1.397 . S
C2276 C2277 1.334 . S
C2277 H2254 0.950 . S
C2277 C2276 1.334 . S
C2277 C2278 1.287 . S
C2278 C2277 1.287 . S
C2278 C2279 1.524 . S
C2278 H2297 0.913 . S
C2279 H2255 0.950 . S
C2279 C2278 1.524 . S
C2279 C2280 1.415 . S
C2280 H2256 0.950 . S
C2280 C2275 1.363 . S
C2280 C2279 1.415 . S
C2281 H2257 0.951 . S
C2281 C2282 1.366 . S
C2281 C2283 1.388 . S
C2282 C2281 1.366 . S
C2282 C2286 1.385 . S
C2283 H2258 0.951 . S
C2283 C2281 1.388 . S
C2283 C2284 1.366 . S
C2284 C2283 1.366 . S
C2284 C2285 1.414 . S
C2284 C2287 1.499 . S
C2285 H2259 0.950 . S
C2285 C2284 1.414 . S
C2285 C2286 1.374 . S
C2286 H2260 0.950 . S
C2286 C2282 1.385 . S
C2286 C2285 1.374 . S
C2287 C2284 1.499 . S
C2287 C2288 1.373 . S
C2287 C2289 1.389 . S
C2288 H2261 0.950 . S
C2288 C2274 1.377 . S
C2288 C2287 1.373 . S
C2289 C2273 1.377 . S
C2289 C2287 1.389 . S
C2289 C2290 1.524 . S
C2290 C2289 1.524 . S
C2290 C2291 1.397 . S
C2290 C2295 1.363 . S
C2291 H2262 0.950 . S
C2291 C2290 1.397 . S
C2291 C2292 1.334 . S
C2292 H2263 0.950 . S
C2292 C2291 1.334 . S
C2292 C2293 1.287 . S
C2293 C2292 1.287 . S
C2293 C2294 1.524 . S
C2293 H2296 0.999 . S
C2294 H2264 0.950 . S
C2294 C2293 1.524 . S
C2294 C2295 1.415 . S
C2295 H2265 0.950 . S
C2295 C2290 1.363 . S
C2295 C2294 1.415 . S
H2296 C2293 0.999 . S
H2297 C2278 0.913 . S
H2298 C2316 0.951 . S
H2299 C2318 0.951 . S
H2300 C2320 0.950 . S
H2301 C2321 0.950 . S
H2302 C2323 0.950 . S
H2303 C2326 0.950 . S
H2304 C2327 0.950 . S
H2305 C2329 0.950 . S
H2306 C2330 0.950 . S
H2307 C2331 0.951 . S
H2308 C2333 0.951 . S
H2309 C2335 0.950 . S
H2310 C2336 0.950 . S
H2311 C2338 0.950 . S
H2312 C2341 0.950 . S
H2313 C2342 0.950 . S
H2314 C2344 0.950 . S
H2315 C2345 0.950 . S
C2316 H2298 0.951 . S
C2316 C2317 1.366 . S
C2316 C2318 1.388 . S
C2317 C2316 1.366 . S
C2317 C2321 1.385 . S
C2318 H2299 0.951 . S
C2318 C2316 1.388 . S
C2318 C2319 1.366 . S
C2319 C2318 1.366 . S
C2319 C2320 1.414 . S
C2319 C2322 1.499 . S
C2320 H2300 0.950 . S
C2320 C2319 1.414 . S
C2320 C2321 1.374 . S
C2321 H2301 0.950 . S
C2321 C2317 1.385 . S
C2321 C2320 1.374 . S
C2322 C2319 1.499 . S
C2322 C2323 1.373 . S
C2322 C2324 1.389 . S
C2323 H2302 0.950 . S
C2323 C2322 1.373 . S
C2323 C2339 1.377 . S
C2324 C2322 1.389 . S
C2324 C2325 1.524 . S
C2324 C2338 1.377 . S
C2325 C2324 1.524 . S
C2325 C2326 1.397 . S
C2325 C2330 1.363 . S
C2326 H2303 0.950 . S
C2326 C2325 1.397 . S
C2326 C2327 1.334 . S
C2327 H2304 0.950 . S
C2327 C2326 1.334 . S
C2327 C2328 1.287 . S
C2328 C2327 1.287 . S
C2328 C2329 1.524 . S
C2328 H2347 0.913 . S
C2329 H2305 0.950 . S
C2329 C2328 1.524 . S
C2329 C2330 1.415 . S
C2330 H2306 0.950 . S
C2330 C2325 1.363 . S
C2330 C2329 1.415 . S
C2331 H2307 0.951 . S
C2331 C2332 1.366 . S
C2331 C2333 1.388 . S
C2332 C2331 1.366 . S
C2332 C2336 1.385 . S
C2333 H2308 0.951 . S
C2333 C2331 1.388 . S
C2333 C2334 1.366 . S
C2334 C2333 1.366 . S
C2334 C2335 1.414 . S
C2334 C2337 1.499 . S
C2335 H2309 0.950 . S
C2335 C2334 1.414 . S
C2335 C2336 1.374 . S
C2336 H2310 0.950 . S
C2336 C2332 1.385 . S
C2336 C2335 1.374 . S
C2337 C2334 1.499 . S
C2337 C2338 1.373 . S
C2337 C2339 1.389 . S
C2338 H2311 0.950 . S
C2338 C2324 1.377 . S
C2338 C2337 1.373 . S
C2339 C2323 1.377 . S
C2339 C2337 1.389 . S
C2339 C2340 1.524 . S
C2340 C2339 1.524 . S
C2340 C2341 1.397 . S
C2340 C2345 1.363 . S
C2341 H2312 0.950 . S
C2341 C2340 1.397 . S
C2341 C2342 1.334 . S
C2342 H2313 0.950 . S
C2342 C2341 1.334 . S
C2342 C2343 1.287 . S
C2343 C2342 1.287 . S
C2343 C2344 1.524 . S
C2343 H2346 0.999 . S
C2344 H2314 0.950 . S
C2344 C2343 1.524 . S
C2344 C2345 1.415 . S
C2345 H2315 0.950 . S
C2345 C2340 1.363 . S
C2345 C2344 1.415 . S
H2346 C2343 0.999 . S
H2347 C2328 0.913 . S
H2348 C2366 0.951 . S
H2349 C2368 0.951 . S
H2350 C2370 0.950 . S
H2351 C2371 0.950 . S
H2352 C2373 0.950 . S
H2353 C2376 0.950 . S
H2354 C2377 0.950 . S
H2355 C2379 0.950 . S
H2356 C2380 0.950 . S
H2357 C2381 0.951 . S
H2358 C2383 0.951 . S
H2359 C2385 0.950 . S
H2360 C2386 0.950 . S
H2361 C2388 0.950 . S
H2362 C2391 0.950 . S
H2363 C2392 0.950 . S
H2364 C2394 0.950 . S
H2365 C2395 0.950 . S
C2366 H2348 0.951 . S
C2366 C2367 1.366 . S
C2366 C2368 1.388 . S
C2367 C2366 1.366 . S
C2367 C2371 1.385 . S
C2368 H2349 0.951 . S
C2368 C2366 1.388 . S
C2368 C2369 1.366 . S
C2369 C2368 1.366 . S
C2369 C2370 1.414 . S
C2369 C2372 1.499 . S
C2370 H2350 0.950 . S
C2370 C2369 1.414 . S
C2370 C2371 1.374 . S
C2371 H2351 0.950 . S
C2371 C2367 1.385 . S
C2371 C2370 1.374 . S
C2372 C2369 1.499 . S
C2372 C2373 1.373 . S
C2372 C2374 1.389 . S
C2373 H2352 0.950 . S
C2373 C2372 1.373 . S
C2373 C2389 1.377 . S
C2374 C2372 1.389 . S
C2374 C2375 1.524 . S
C2374 C2388 1.377 . S
C2375 C2374 1.524 . S
C2375 C2376 1.397 . S
C2375 C2380 1.363 . S
C2376 H2353 0.950 . S
C2376 C2375 1.397 . S
C2376 C2377 1.334 . S
C2377 H2354 0.950 . S
C2377 C2376 1.334 . S
C2377 C2378 1.287 . S
C2378 C2377 1.287 . S
C2378 C2379 1.524 . S
C2378 H2397 0.913 . S
C2379 H2355 0.950 . S
C2379 C2378 1.524 . S
C2379 C2380 1.415 . S
C2380 H2356 0.950 . S
C2380 C2375 1.363 . S
C2380 C2379 1.415 . S
C2381 H2357 0.951 . S
C2381 C2382 1.366 . S
C2381 C2383 1.388 . S
C2382 C2381 1.366 . S
C2382 C2386 1.385 . S
C2383 H2358 0.951 . S
C2383 C2381 1.388 . S
C2383 C2384 1.366 . S
C2384 C2383 1.366 . S
C2384 C2385 1.414 . S
C2384 C2387 1.499 . S
C2385 H2359 0.950 . S
C2385 C2384 1.414 . S
C2385 C2386 1.374 . S
C2386 H2360 0.950 . S
C2386 C2382 1.385 . S
C2386 C2385 1.374 . S
C2387 C2384 1.499 . S
C2387 C2388 1.373 . S
C2387 C2389 1.389 . S
C2388 H2361 0.950 . S
C2388 C2374 1.377 . S
C2388 C2387 1.373 . S
C2389 C2373 1.377 . S
C2389 C2387 1.389 . S
C2389 C2390 1.524 . S
C2390 C2389 1.524 . S
C2390 C2391 1.397 . S
C2390 C2395 1.363 . S
C2391 H2362 0.950 . S
C2391 C2390 1.397 . S
C2391 C2392 1.334 . S
C2392 H2363 0.950 . S
C2392 C2391 1.334 . S
C2392 C2393 1.287 . S
C2393 C2392 1.287 . S
C2393 C2394 1.524 . S
C2393 H2396 0.999 . S
C2394 H2364 0.950 . S
C2394 C2393 1.524 . S
C2394 C2395 1.415 . S
C2395 H2365 0.950 . S
C2395 C2390 1.363 . S
C2395 C2394 1.415 . S
H2396 C2393 0.999 . S
H2397 C2378 0.913 . S
H2398 C2416 0.951 . S
H2399 C2418 0.951 . S
H2400 C2420 0.950 . S
H2401 C2421 0.950 . S
H2402 C2423 0.950 . S
H2403 C2426 0.950 . S
H2404 C2427 0.950 . S
H2405 C2429 0.950 . S
H2406 C2430 0.950 . S
H2407 C2431 0.951 . S
H2408 C2433 0.951 . S
H2409 C2435 0.950 . S
H2410 C2436 0.950 . S
H2411 C2438 0.950 . S
H2412 C2441 0.950 . S
H2413 C2442 0.950 . S
H2414 C2444 0.950 . S
H2415 C2445 0.950 . S
C2416 H2398 0.951 . S
C2416 C2417 1.366 . S
C2416 C2418 1.388 . S
C2417 C2416 1.366 . S
C2417 C2421 1.385 . S
C2418 H2399 0.951 . S
C2418 C2416 1.388 . S
C2418 C2419 1.366 . S
C2419 C2418 1.366 . S
C2419 C2420 1.414 . S
C2419 C2422 1.499 . S
C2420 H2400 0.950 . S
C2420 C2419 1.414 . S
C2420 C2421 1.374 . S
C2421 H2401 0.950 . S
C2421 C2417 1.385 . S
C2421 C2420 1.374 . S
C2422 C2419 1.499 . S
C2422 C2423 1.373 . S
C2422 C2424 1.389 . S
C2423 H2402 0.950 . S
C2423 C2422 1.373 . S
C2423 C2439 1.377 . S
C2424 C2422 1.389 . S
C2424 C2425 1.524 . S
C2424 C2438 1.377 . S
C2425 C2424 1.524 . S
C2425 C2426 1.397 . S
C2425 C2430 1.363 . S
C2426 H2403 0.950 . S
C2426 C2425 1.397 . S
C2426 C2427 1.334 . S
C2427 H2404 0.950 . S
C2427 C2426 1.334 . S
C2427 C2428 1.287 . S
C2428 C2427 1.287 . S
C2428 C2429 1.524 . S
C2428 H2447 0.913 . S
C2429 H2405 0.950 . S
C2429 C2428 1.524 . S
C2429 C2430 1.415 . S
C2430 H2406 0.950 . S
C2430 C2425 1.363 . S
C2430 C2429 1.415 . S
C2431 H2407 0.951 . S
C2431 C2432 1.366 . S
C2431 C2433 1.388 . S
C2432 C2431 1.366 . S
C2432 C2436 1.385 . S
C2433 H2408 0.951 . S
C2433 C2431 1.388 . S
C2433 C2434 1.366 . S
C2434 C2433 1.366 . S
C2434 C2435 1.414 . S
C2434 C2437 1.499 . S
C2435 H2409 0.950 . S
C2435 C2434 1.414 . S
C2435 C2436 1.374 . S
C2436 H2410 0.950 . S
C2436 C2432 1.385 . S
C2436 C2435 1.374 . S
C2437 C2434 1.499 . S
C2437 C2438 1.373 . S
C2437 C2439 1.389 . S
C2438 H2411 0.950 . S
C2438 C2424 1.377 . S
C2438 C2437 1.373 . S
C2439 C2423 1.377 . S
C2439 C2437 1.389 . S
C2439 C2440 1.524 . S
C2440 C2439 1.524 . S
C2440 C2441 1.397 . S
C2440 C2445 1.363 . S
C2441 H2412 0.950 . S
C2441 C2440 1.397 . S
C2441 C2442 1.334 . S
C2442 H2413 0.950 . S
C2442 C2441 1.334 . S
C2442 C2443 1.287 . S
C2443 C2442 1.287 . S
C2443 C2444 1.524 . S
C2443 H2446 0.999 . S
C2444 H2414 0.950 . S
C2444 C2443 1.524 . S
C2444 C2445 1.415 . S
C2445 H2415 0.950 . S
C2445 C2440 1.363 . S
C2445 C2444 1.415 . S
H2446 C2443 0.999 . S
H2447 C2428 0.913 . S
H2448 C2466 0.951 . S
H2449 C2468 0.951 . S
H2450 C2470 0.950 . S
H2451 C2471 0.950 . S
H2452 C2473 0.950 . S
H2453 C2476 0.950 . S
H2454 C2477 0.950 . S
H2455 C2479 0.950 . S
H2456 C2480 0.950 . S
H2457 C2481 0.951 . S
H2458 C2483 0.951 . S
H2459 C2485 0.950 . S
H2460 C2486 0.950 . S
H2461 C2488 0.950 . S
H2462 C2491 0.950 . S
H2463 C2492 0.950 . S
H2464 C2494 0.950 . S
H2465 C2495 0.950 . S
C2466 H2448 0.951 . S
C2466 C2467 1.366 . S
C2466 C2468 1.388 . S
C2467 C2466 1.366 . S
C2467 C2471 1.385 . S
C2468 H2449 0.951 . S
C2468 C2466 1.388 . S
C2468 C2469 1.366 . S
C2469 C2468 1.366 . S
C2469 C2470 1.414 . S
C2469 C2472 1.499 . S
C2470 H2450 0.950 . S
C2470 C2469 1.414 . S
C2470 C2471 1.374 . S
C2471 H2451 0.950 . S
C2471 C2467 1.385 . S
C2471 C2470 1.374 . S
C2472 C2469 1.499 . S
C2472 C2473 1.373 . S
C2472 C2474 1.389 . S
C2473 H2452 0.950 . S
C2473 C2472 1.373 . S
C2473 C2489 1.377 1_565 S
C2474 C2472 1.389 . S
C2474 C2475 1.524 . S
C2474 C2488 1.377 1_565 S
C2475 C2474 1.524 . S
C2475 C2476 1.397 . S
C2475 C2480 1.363 . S
C2476 H2453 0.950 . S
C2476 C2475 1.397 . S
C2476 C2477 1.334 . S
C2477 H2454 0.950 . S
C2477 C2476 1.334 . S
C2477 C2478 1.287 . S
C2478 C2477 1.287 . S
C2478 C2479 1.524 . S
C2478 H2497 0.913 . S
C2479 H2455 0.950 . S
C2479 C2478 1.524 . S
C2479 C2480 1.415 . S
C2480 H2456 0.950 . S
C2480 C2475 1.363 . S
C2480 C2479 1.415 . S
C2481 H2457 0.951 . S
C2481 C2482 1.366 . S
C2481 C2483 1.388 . S
C2482 C2481 1.366 . S
C2482 C2486 1.385 . S
C2483 H2458 0.951 . S
C2483 C2481 1.388 . S
C2483 C2484 1.366 . S
C2484 C2483 1.366 . S
C2484 C2485 1.414 . S
C2484 C2487 1.499 . S
C2485 H2459 0.950 . S
C2485 C2484 1.414 . S
C2485 C2486 1.374 . S
C2486 H2460 0.950 . S
C2486 C2482 1.385 . S
C2486 C2485 1.374 . S
C2487 C2484 1.499 . S
C2487 C2488 1.373 . S
C2487 C2489 1.389 . S
C2488 H2461 0.950 . S
C2488 C2474 1.377 1_545 S
C2488 C2487 1.373 . S
C2489 C2473 1.377 1_545 S
C2489 C2487 1.389 . S
C2489 C2490 1.524 . S
C2490 C2489 1.524 . S
C2490 C2491 1.397 . S
C2490 C2495 1.363 . S
C2491 H2462 0.950 . S
C2491 C2490 1.397 . S
C2491 C2492 1.334 . S
C2492 H2463 0.950 . S
C2492 C2491 1.334 . S
C2492 C2493 1.287 . S
C2493 C2492 1.287 . S
C2493 C2494 1.524 . S
C2493 H2496 0.999 . S
C2494 H2464 0.950 . S
C2494 C2493 1.524 . S
C2494 C2495 1.415 . S
C2495 H2465 0.950 . S
C2495 C2490 1.363 . S
C2495 C2494 1.415 . S
H2496 C2493 0.999 . S
H2497 C2478 0.913 . S
H2498 C2516 0.951 . S
H2499 C2518 0.951 . S
H2500 C2520 0.950 . S
H2501 C2521 0.950 . S
H2502 C2523 0.950 . S
H2503 C2526 0.950 . S
H2504 C2527 0.950 . S
H2505 C2529 0.950 . S
H2506 C2530 0.950 . S
H2507 C2531 0.951 . S
H2508 C2533 0.951 . S
H2509 C2535 0.950 . S
H2510 C2536 0.950 . S
H2511 C2538 0.950 . S
H2512 C2541 0.950 . S
H2513 C2542 0.950 . S
H2514 C2544 0.950 . S
H2515 C2545 0.950 . S
C2516 H2498 0.951 . S
C2516 C2517 1.366 . S
C2516 C2518 1.388 . S
C2517 C2516 1.366 . S
C2517 C2521 1.385 . S
C2518 H2499 0.951 . S
C2518 C2516 1.388 . S
C2518 C2519 1.366 . S
C2519 C2518 1.366 . S
C2519 C2520 1.414 . S
C2519 C2522 1.499 . S
C2520 H2500 0.950 . S
C2520 C2519 1.414 . S
C2520 C2521 1.374 . S
C2521 H2501 0.950 . S
C2521 C2517 1.385 . S
C2521 C2520 1.374 . S
C2522 C2519 1.499 . S
C2522 C2523 1.373 . S
C2522 C2524 1.389 . S
C2523 H2502 0.950 . S
C2523 C2522 1.373 . S
C2523 C2539 1.377 1_455 S
C2524 C2522 1.389 . S
C2524 C2525 1.524 . S
C2524 C2538 1.377 1_455 S
C2525 C2524 1.524 . S
C2525 C2526 1.397 . S
C2525 C2530 1.363 . S
C2526 H2503 0.950 . S
C2526 C2525 1.397 . S
C2526 C2527 1.334 . S
C2527 H2504 0.950 . S
C2527 C2526 1.334 . S
C2527 C2528 1.287 . S
C2528 C2527 1.287 . S
C2528 C2529 1.524 . S
C2528 H2547 0.913 . S
C2529 H2505 0.950 . S
C2529 C2528 1.524 . S
C2529 C2530 1.415 . S
C2530 H2506 0.950 . S
C2530 C2525 1.363 . S
C2530 C2529 1.415 . S
C2531 H2507 0.951 . S
C2531 C2532 1.366 . S
C2531 C2533 1.388 . S
C2532 C2531 1.366 . S
C2532 C2536 1.385 . S
C2533 H2508 0.951 . S
C2533 C2531 1.388 . S
C2533 C2534 1.366 . S
C2534 C2533 1.366 . S
C2534 C2535 1.414 . S
C2534 C2537 1.499 . S
C2535 H2509 0.950 . S
C2535 C2534 1.414 . S
C2535 C2536 1.374 . S
C2536 H2510 0.950 . S
C2536 C2532 1.385 . S
C2536 C2535 1.374 . S
C2537 C2534 1.499 . S
C2537 C2538 1.373 . S
C2537 C2539 1.389 . S
C2538 H2511 0.950 . S
C2538 C2524 1.377 1_655 S
C2538 C2537 1.373 . S
C2539 C2523 1.377 1_655 S
C2539 C2537 1.389 . S
C2539 C2540 1.524 . S
C2540 C2539 1.524 . S
C2540 C2541 1.397 . S
C2540 C2545 1.363 . S
C2541 H2512 0.950 . S
C2541 C2540 1.397 . S
C2541 C2542 1.334 . S
C2542 H2513 0.950 . S
C2542 C2541 1.334 . S
C2542 C2543 1.287 . S
C2543 C2542 1.287 . S
C2543 C2544 1.524 . S
C2543 H2546 0.999 . S
C2544 H2514 0.950 . S
C2544 C2543 1.524 . S
C2544 C2545 1.415 . S
C2545 H2515 0.950 . S
C2545 C2540 1.363 . S
C2545 C2544 1.415 . S
H2546 C2543 0.999 . S
H2547 C2528 0.913 . S
H2548 C2566 0.951 . S
H2549 C2568 0.951 . S
H2550 C2570 0.950 . S
H2551 C2571 0.950 . S
H2552 C2573 0.950 . S
H2553 C2576 0.950 . S
H2554 C2577 0.950 . S
H2555 C2579 0.950 . S
H2556 C2580 0.950 . S
H2557 C2581 0.951 . S
H2558 C2583 0.951 . S
H2559 C2585 0.950 . S
H2560 C2586 0.950 . S
H2561 C2588 0.950 . S
H2562 C2591 0.950 . S
H2563 C2592 0.950 . S
H2564 C2594 0.950 . S
H2565 C2595 0.950 . S
C2566 H2548 0.951 . S
C2566 C2567 1.366 . S
C2566 C2568 1.388 . S
C2567 C2566 1.366 . S
C2567 C2571 1.385 . S
C2568 H2549 0.951 . S
C2568 C2566 1.388 . S
C2568 C2569 1.366 . S
C2569 C2568 1.366 . S
C2569 C2570 1.414 . S
C2569 C2572 1.499 . S
C2570 H2550 0.950 . S
C2570 C2569 1.414 . S
C2570 C2571 1.374 . S
C2571 H2551 0.950 . S
C2571 C2567 1.385 . S
C2571 C2570 1.374 . S
C2572 C2569 1.499 . S
C2572 C2573 1.373 . S
C2572 C2574 1.389 . S
C2573 H2552 0.950 . S
C2573 C2572 1.373 . S
C2573 C2589 1.377 . S
C2574 C2572 1.389 . S
C2574 C2575 1.524 . S
C2574 C2588 1.377 . S
C2575 C2574 1.524 . S
C2575 C2576 1.397 . S
C2575 C2580 1.363 . S
C2576 H2553 0.950 . S
C2576 C2575 1.397 . S
C2576 C2577 1.334 . S
C2577 H2554 0.950 . S
C2577 C2576 1.334 . S
C2577 C2578 1.287 . S
C2578 C2577 1.287 . S
C2578 C2579 1.524 . S
C2578 H2597 0.913 . S
C2579 H2555 0.950 . S
C2579 C2578 1.524 . S
C2579 C2580 1.415 . S
C2580 H2556 0.950 . S
C2580 C2575 1.363 . S
C2580 C2579 1.415 . S
C2581 H2557 0.951 . S
C2581 C2582 1.366 . S
C2581 C2583 1.388 . S
C2582 C2581 1.366 . S
C2582 C2586 1.385 . S
C2583 H2558 0.951 . S
C2583 C2581 1.388 . S
C2583 C2584 1.366 . S
C2584 C2583 1.366 . S
C2584 C2585 1.414 . S
C2584 C2587 1.499 . S
C2585 H2559 0.950 . S
C2585 C2584 1.414 . S
C2585 C2586 1.374 . S
C2586 H2560 0.950 . S
C2586 C2582 1.385 . S
C2586 C2585 1.374 . S
C2587 C2584 1.499 . S
C2587 C2588 1.373 . S
C2587 C2589 1.389 . S
C2588 H2561 0.950 . S
C2588 C2574 1.377 . S
C2588 C2587 1.373 . S
C2589 C2573 1.377 . S
C2589 C2587 1.389 . S
C2589 C2590 1.524 . S
C2590 C2589 1.524 . S
C2590 C2591 1.397 . S
C2590 C2595 1.363 . S
C2591 H2562 0.950 . S
C2591 C2590 1.397 . S
C2591 C2592 1.334 . S
C2592 H2563 0.950 . S
C2592 C2591 1.334 . S
C2592 C2593 1.287 . S
C2593 C2592 1.287 . S
C2593 C2594 1.524 . S
C2593 H2596 0.999 . S
C2594 H2564 0.950 . S
C2594 C2593 1.524 . S
C2594 C2595 1.415 . S
C2595 H2565 0.950 . S
C2595 C2590 1.363 . S
C2595 C2594 1.415 . S
H2596 C2593 0.999 . S
H2597 C2578 0.913 . S
H2598 C2616 0.948 1_455 S
H2599 C2618 0.951 . S
H2600 C2620 0.950 . S
H2601 C2621 0.950 . S
H2602 C2623 0.950 . S
H2603 C2626 0.950 . S
H2604 C2627 0.950 . S
H2605 C2629 0.950 . S
H2606 C2630 0.950 . S
H2607 C2631 0.951 . S
H2608 C2633 0.951 . S
H2609 C2635 0.950 . S
H2610 C2636 0.950 . S
H2611 C2638 0.950 . S
H2612 C2641 0.950 . S
H2613 C2642 0.950 . S
H2614 C2644 0.950 . S
H2615 C2645 0.950 . S
C2616 H2598 0.948 1_655 S
C2616 C2617 1.363 1_655 S
C2616 C2618 1.394 . S
C2617 C2616 1.363 1_455 S
C2617 C2621 1.385 . S
C2618 H2599 0.951 . S
C2618 C2616 1.394 . S
C2618 C2619 1.366 . S
C2619 C2618 1.366 . S
C2619 C2620 1.414 . S
C2619 C2622 1.499 . S
C2620 H2600 0.950 . S
C2620 C2619 1.414 . S
C2620 C2621 1.374 1_655 S
C2621 H2601 0.950 . S
C2621 C2617 1.385 . S
C2621 C2620 1.374 1_455 S
C2622 C2619 1.499 . S
C2622 C2623 1.373 . S
C2622 C2624 1.389 . S
C2623 H2602 0.950 . S
C2623 C2622 1.373 . S
C2623 C2639 1.377 . S
C2624 C2622 1.389 . S
C2624 C2625 1.524 . S
C2624 C2638 1.377 . S
C2625 C2624 1.524 . S
C2625 C2626 1.397 . S
C2625 C2630 1.363 . S
C2626 H2603 0.950 . S
C2626 C2625 1.397 . S
C2626 C2627 1.334 . S
C2627 H2604 0.950 . S
C2627 C2626 1.334 . S
C2627 C2628 1.287 . S
C2628 C2627 1.287 . S
C2628 C2629 1.524 . S
C2628 H2647 0.913 . S
C2629 H2605 0.950 . S
C2629 C2628 1.524 . S
C2629 C2630 1.415 . S
C2630 H2606 0.950 . S
C2630 C2625 1.363 . S
C2630 C2629 1.415 . S
C2631 H2607 0.951 . S
C2631 C2632 1.366 . S
C2631 C2633 1.388 . S
C2632 C2631 1.366 . S
C2632 C2636 1.385 . S
C2633 H2608 0.951 . S
C2633 C2631 1.388 . S
C2633 C2634 1.366 . S
C2634 C2633 1.366 . S
C2634 C2635 1.414 . S
C2634 C2637 1.499 . S
C2635 H2609 0.950 . S
C2635 C2634 1.414 . S
C2635 C2636 1.374 . S
C2636 H2610 0.950 . S
C2636 C2632 1.385 . S
C2636 C2635 1.374 . S
C2637 C2634 1.499 . S
C2637 C2638 1.373 . S
C2637 C2639 1.389 . S
C2638 H2611 0.950 . S
C2638 C2624 1.377 . S
C2638 C2637 1.373 . S
C2639 C2623 1.377 . S
C2639 C2637 1.389 . S
C2639 C2640 1.524 . S
C2640 C2639 1.524 . S
C2640 C2641 1.397 . S
C2640 C2645 1.363 . S
C2641 H2612 0.950 . S
C2641 C2640 1.397 . S
C2641 C2642 1.334 . S
C2642 H2613 0.950 . S
C2642 C2641 1.334 . S
C2642 C2643 1.287 . S
C2643 C2642 1.287 . S
C2643 C2644 1.524 . S
C2643 H2646 0.999 . S
C2644 H2614 0.950 . S
C2644 C2643 1.524 . S
C2644 C2645 1.415 . S
C2645 H2615 0.950 . S
C2645 C2640 1.363 . S
C2645 C2644 1.415 . S
H2646 C2643 0.999 . S
H2647 C2628 0.913 . S
H2648 C2666 0.951 . S
H2649 C2668 0.951 . S
H2650 C2670 0.950 . S
H2651 C2671 0.950 . S
H2652 C2673 0.950 . S
H2653 C2676 0.950 . S
H2654 C2677 0.950 . S
H2655 C2679 0.950 . S
H2656 C2680 0.950 . S
H2657 C2681 0.951 . S
H2658 C2683 0.951 . S
H2659 C2685 0.950 . S
H2660 C2686 0.950 . S
H2661 C2688 0.950 . S
H2662 C2691 0.950 . S
H2663 C2692 0.950 . S
H2664 C2694 0.950 . S
H2665 C2695 0.950 . S
C2666 H2648 0.951 . S
C2666 C2667 1.366 . S
C2666 C2668 1.388 . S
C2667 C2666 1.366 . S
C2667 C2671 1.385 . S
C2668 H2649 0.951 . S
C2668 C2666 1.388 . S
C2668 C2669 1.366 . S
C2669 C2668 1.366 . S
C2669 C2670 1.414 . S
C2669 C2672 1.499 . S
C2670 H2650 0.950 . S
C2670 C2669 1.414 . S
C2670 C2671 1.374 . S
C2671 H2651 0.950 . S
C2671 C2667 1.385 . S
C2671 C2670 1.374 . S
C2672 C2669 1.499 . S
C2672 C2673 1.373 . S
C2672 C2674 1.389 . S
C2673 H2652 0.950 . S
C2673 C2672 1.373 . S
C2673 C2689 1.377 . S
C2674 C2672 1.389 . S
C2674 C2675 1.524 . S
C2674 C2688 1.377 . S
C2675 C2674 1.524 . S
C2675 C2676 1.397 . S
C2675 C2680 1.363 . S
C2676 H2653 0.950 . S
C2676 C2675 1.397 . S
C2676 C2677 1.334 . S
C2677 H2654 0.950 . S
C2677 C2676 1.334 . S
C2677 C2678 1.287 . S
C2678 C2677 1.287 . S
C2678 C2679 1.524 . S
C2678 H2697 0.913 . S
C2679 H2655 0.950 . S
C2679 C2678 1.524 . S
C2679 C2680 1.415 . S
C2680 H2656 0.950 . S
C2680 C2675 1.363 . S
C2680 C2679 1.415 . S
C2681 H2657 0.951 . S
C2681 C2682 1.366 . S
C2681 C2683 1.388 . S
C2682 C2681 1.366 . S
C2682 C2686 1.385 . S
C2683 H2658 0.951 . S
C2683 C2681 1.388 . S
C2683 C2684 1.366 . S
C2684 C2683 1.366 . S
C2684 C2685 1.414 . S
C2684 C2687 1.499 . S
C2685 H2659 0.950 . S
C2685 C2684 1.414 . S
C2685 C2686 1.374 . S
C2686 H2660 0.950 . S
C2686 C2682 1.385 . S
C2686 C2685 1.374 . S
C2687 C2684 1.499 . S
C2687 C2688 1.373 . S
C2687 C2689 1.389 . S
C2688 H2661 0.950 . S
C2688 C2674 1.377 . S
C2688 C2687 1.373 . S
C2689 C2673 1.377 . S
C2689 C2687 1.389 . S
C2689 C2690 1.524 . S
C2690 C2689 1.524 . S
C2690 C2691 1.397 . S
C2690 C2695 1.363 . S
C2691 H2662 0.950 . S
C2691 C2690 1.397 . S
C2691 C2692 1.334 . S
C2692 H2663 0.950 . S
C2692 C2691 1.334 . S
C2692 C2693 1.287 . S
C2693 C2692 1.287 . S
C2693 C2694 1.524 . S
C2693 H2696 0.999 . S
C2694 H2664 0.950 . S
C2694 C2693 1.524 . S
C2694 C2695 1.415 . S
C2695 H2665 0.950 . S
C2695 C2690 1.363 . S
C2695 C2694 1.415 . S
H2696 C2693 0.999 . S
H2697 C2678 0.913 . S
H2698 C2716 0.951 . S
H2699 C2718 0.951 . S
H2700 C2720 0.950 . S
H2701 C2721 0.950 . S
H2702 C2723 0.950 . S
H2703 C2726 0.950 . S
H2704 C2727 0.950 . S
H2705 C2729 0.950 . S
H2706 C2730 0.950 . S
H2707 C2731 0.951 . S
H2708 C2733 0.951 . S
H2709 C2735 0.950 . S
H2710 C2736 0.950 . S
H2711 C2738 0.950 . S
H2712 C2741 0.950 . S
H2713 C2742 0.950 . S
H2714 C2744 0.950 . S
H2715 C2745 0.950 . S
C2716 H2698 0.951 . S
C2716 C2717 1.366 1_545 S
C2716 C2718 1.388 . S
C2717 C2716 1.366 1_565 S
C2717 C2721 1.385 . S
C2718 H2699 0.951 . S
C2718 C2716 1.388 . S
C2718 C2719 1.366 . S
C2719 C2718 1.366 . S
C2719 C2720 1.414 . S
C2719 C2722 1.499 . S
C2720 H2700 0.950 . S
C2720 C2719 1.414 . S
C2720 C2721 1.374 1_545 S
C2721 H2701 0.950 . S
C2721 C2717 1.385 . S
C2721 C2720 1.374 1_565 S
C2722 C2719 1.499 . S
C2722 C2723 1.373 . S
C2722 C2724 1.389 . S
C2723 H2702 0.950 . S
C2723 C2722 1.373 . S
C2723 C2739 1.377 . S
C2724 C2722 1.389 . S
C2724 C2725 1.524 . S
C2724 C2738 1.377 . S
C2725 C2724 1.524 . S
C2725 C2726 1.397 . S
C2725 C2730 1.363 . S
C2726 H2703 0.950 . S
C2726 C2725 1.397 . S
C2726 C2727 1.334 . S
C2727 H2704 0.950 . S
C2727 C2726 1.334 . S
C2727 C2728 1.287 . S
C2728 C2727 1.287 . S
C2728 C2729 1.524 . S
C2728 H2747 0.913 . S
C2729 H2705 0.950 . S
C2729 C2728 1.524 . S
C2729 C2730 1.415 . S
C2730 H2706 0.950 . S
C2730 C2725 1.363 . S
C2730 C2729 1.415 . S
C2731 H2707 0.951 . S
C2731 C2732 1.366 . S
C2731 C2733 1.388 . S
C2732 C2731 1.366 . S
C2732 C2736 1.385 . S
C2733 H2708 0.951 . S
C2733 C2731 1.388 . S
C2733 C2734 1.366 . S
C2734 C2733 1.366 . S
C2734 C2735 1.414 . S
C2734 C2737 1.499 . S
C2735 H2709 0.950 . S
C2735 C2734 1.414 . S
C2735 C2736 1.374 . S
C2736 H2710 0.950 . S
C2736 C2732 1.385 . S
C2736 C2735 1.374 . S
C2737 C2734 1.499 . S
C2737 C2738 1.373 . S
C2737 C2739 1.389 . S
C2738 H2711 0.950 . S
C2738 C2724 1.377 . S
C2738 C2737 1.373 . S
C2739 C2723 1.377 . S
C2739 C2737 1.389 . S
C2739 C2740 1.524 . S
C2740 C2739 1.524 . S
C2740 C2741 1.397 . S
C2740 C2745 1.363 . S
C2741 H2712 0.950 . S
C2741 C2740 1.397 . S
C2741 C2742 1.334 . S
C2742 H2713 0.950 . S
C2742 C2741 1.334 . S
C2742 C2743 1.287 . S
C2743 C2742 1.287 . S
C2743 C2744 1.524 . S
C2743 H2746 0.999 . S
C2744 H2714 0.950 . S
C2744 C2743 1.524 . S
C2744 C2745 1.415 . S
C2745 H2715 0.950 . S
C2745 C2740 1.363 . S
C2745 C2744 1.415 . S
H2746 C2743 0.999 . S
H2747 C2728 0.913 . S
H2748 C2766 0.951 . S
H2749 C2768 0.951 . S
H2750 C2770 0.950 . S
H2751 C2771 0.950 . S
H2752 C2773 0.950 . S
H2753 C2776 0.950 . S
H2754 C2777 0.950 . S
H2755 C2779 0.950 . S
H2756 C2780 0.950 . S
H2757 C2781 0.951 . S
H2758 C2783 0.951 . S
H2759 C2785 0.950 . S
H2760 C2786 0.950 . S
H2761 C2788 0.950 . S
H2762 C2791 0.950 . S
H2763 C2792 0.950 . S
H2764 C2794 0.950 . S
H2765 C2795 0.950 . S
C2766 H2748 0.951 . S
C2766 C2767 1.366 . S
C2766 C2768 1.388 . S
C2767 C2766 1.366 . S
C2767 C2771 1.385 . S
C2768 H2749 0.951 . S
C2768 C2766 1.388 . S
C2768 C2769 1.366 . S
C2769 C2768 1.366 . S
C2769 C2770 1.414 . S
C2769 C2772 1.499 . S
C2770 H2750 0.950 . S
C2770 C2769 1.414 . S
C2770 C2771 1.374 . S
C2771 H2751 0.950 . S
C2771 C2767 1.385 . S
C2771 C2770 1.374 . S
C2772 C2769 1.499 . S
C2772 C2773 1.373 . S
C2772 C2774 1.389 . S
C2773 H2752 0.950 . S
C2773 C2772 1.373 . S
C2773 C2789 1.377 . S
C2774 C2772 1.389 . S
C2774 C2775 1.524 . S
C2774 C2788 1.377 . S
C2775 C2774 1.524 . S
C2775 C2776 1.397 . S
C2775 C2780 1.363 . S
C2776 H2753 0.950 . S
C2776 C2775 1.397 . S
C2776 C2777 1.334 . S
C2777 H2754 0.950 . S
C2777 C2776 1.334 . S
C2777 C2778 1.287 . S
C2778 C2777 1.287 . S
C2778 C2779 1.524 . S
C2778 H2797 0.913 . S
C2779 H2755 0.950 . S
C2779 C2778 1.524 . S
C2779 C2780 1.415 . S
C2780 H2756 0.950 . S
C2780 C2775 1.363 . S
C2780 C2779 1.415 . S
C2781 H2757 0.951 . S
C2781 C2782 1.366 . S
C2781 C2783 1.388 . S
C2782 C2781 1.366 . S
C2782 C2786 1.385 . S
C2783 H2758 0.951 . S
C2783 C2781 1.388 . S
C2783 C2784 1.366 . S
C2784 C2783 1.366 . S
C2784 C2785 1.414 . S
C2784 C2787 1.499 . S
C2785 H2759 0.950 . S
C2785 C2784 1.414 . S
C2785 C2786 1.374 . S
C2786 H2760 0.950 . S
C2786 C2782 1.385 . S
C2786 C2785 1.374 . S
C2787 C2784 1.499 . S
C2787 C2788 1.373 . S
C2787 C2789 1.389 . S
C2788 H2761 0.950 . S
C2788 C2774 1.377 . S
C2788 C2787 1.373 . S
C2789 C2773 1.377 . S
C2789 C2787 1.389 . S
C2789 C2790 1.524 . S
C2790 C2789 1.524 . S
C2790 C2791 1.397 . S
C2790 C2795 1.363 . S
C2791 H2762 0.950 . S
C2791 C2790 1.397 . S
C2791 C2792 1.334 . S
C2792 H2763 0.950 . S
C2792 C2791 1.334 . S
C2792 C2793 1.287 . S
C2793 C2792 1.287 . S
C2793 C2794 1.524 . S
C2793 H2796 0.999 . S
C2794 H2764 0.950 . S
C2794 C2793 1.524 . S
C2794 C2795 1.415 . S
C2795 H2765 0.950 . S
C2795 C2790 1.363 . S
C2795 C2794 1.415 . S
H2796 C2793 0.999 . S
H2797 C2778 0.913 . S
H2798 C2816 0.951 . S
H2799 C2818 0.951 . S
H2800 C2820 0.950 . S
H2801 C2821 0.950 . S
H2802 C2823 0.950 . S
H2803 C2826 0.950 . S
H2804 C2827 0.950 . S
H2805 C2829 0.950 . S
H2806 C2830 0.950 . S
H2807 C2831 0.951 . S
H2808 C2833 0.951 . S
H2809 C2835 0.950 . S
H2810 C2836 0.950 . S
H2811 C2838 0.950 . S
H2812 C2841 0.950 . S
H2813 C2842 0.950 . S
H2814 C2844 0.950 . S
H2815 C2845 0.950 . S
C2816 H2798 0.951 . S
C2816 C2817 1.366 . S
C2816 C2818 1.388 . S
C2817 C2816 1.366 . S
C2817 C2821 1.385 . S
C2818 H2799 0.951 . S
C2818 C2816 1.388 . S
C2818 C2819 1.366 . S
C2819 C2818 1.366 . S
C2819 C2820 1.414 . S
C2819 C2822 1.499 . S
C2820 H2800 0.950 . S
C2820 C2819 1.414 . S
C2820 C2821 1.374 . S
C2821 H2801 0.950 . S
C2821 C2817 1.385 . S
C2821 C2820 1.374 . S
C2822 C2819 1.499 . S
C2822 C2823 1.373 . S
C2822 C2824 1.389 . S
C2823 H2802 0.950 . S
C2823 C2822 1.373 . S
C2823 C2839 1.377 . S
C2824 C2822 1.389 . S
C2824 C2825 1.524 . S
C2824 C2838 1.377 . S
C2825 C2824 1.524 . S
C2825 C2826 1.397 . S
C2825 C2830 1.363 . S
C2826 H2803 0.950 . S
C2826 C2825 1.397 . S
C2826 C2827 1.334 . S
C2827 H2804 0.950 . S
C2827 C2826 1.334 . S
C2827 C2828 1.287 . S
C2828 C2827 1.287 . S
C2828 C2829 1.524 . S
C2828 H2847 0.913 . S
C2829 H2805 0.950 . S
C2829 C2828 1.524 . S
C2829 C2830 1.415 . S
C2830 H2806 0.950 . S
C2830 C2825 1.363 . S
C2830 C2829 1.415 . S
C2831 H2807 0.951 . S
C2831 C2832 1.366 . S
C2831 C2833 1.388 . S
C2832 C2831 1.366 . S
C2832 C2836 1.385 . S
C2833 H2808 0.951 . S
C2833 C2831 1.388 . S
C2833 C2834 1.366 . S
C2834 C2833 1.366 . S
C2834 C2835 1.414 . S
C2834 C2837 1.499 . S
C2835 H2809 0.950 . S
C2835 C2834 1.414 . S
C2835 C2836 1.374 . S
C2836 H2810 0.950 . S
C2836 C2832 1.385 . S
C2836 C2835 1.374 . S
C2837 C2834 1.499 . S
C2837 C2838 1.373 . S
C2837 C2839 1.389 . S
C2838 H2811 0.950 . S
C2838 C2824 1.377 . S
C2838 C2837 1.373 . S
C2839 C2823 1.377 . S
C2839 C2837 1.389 . S
C2839 C2840 1.524 . S
C2840 C2839 1.524 . S
C2840 C2841 1.397 . S
C2840 C2845 1.363 . S
C2841 H2812 0.950 . S
C2841 C2840 1.397 . S
C2841 C2842 1.334 . S
C2842 H2813 0.950 . S
C2842 C2841 1.334 . S
C2842 C2843 1.287 . S
C2843 C2842 1.287 . S
C2843 C2844 1.524 . S
C2843 H2846 0.999 . S
C2844 H2814 0.950 . S
C2844 C2843 1.524 . S
C2844 C2845 1.415 . S
C2845 H2815 0.950 . S
C2845 C2840 1.363 . S
C2845 C2844 1.415 . S
H2846 C2843 0.999 . S
H2847 C2828 0.913 . S
H2848 C2866 0.951 . S
H2849 C2868 0.951 . S
H2850 C2870 0.950 . S
H2851 C2871 0.950 . S
H2852 C2873 0.950 . S
H2853 C2876 0.950 . S
H2854 C2877 0.950 . S
H2855 C2879 0.950 . S
H2856 C2880 0.950 . S
H2857 C2881 0.951 . S
H2858 C2883 0.951 . S
H2859 C2885 0.950 . S
H2860 C2886 0.950 . S
H2861 C2888 0.950 . S
H2862 C2891 0.950 . S
H2863 C2892 0.950 . S
H2864 C2894 0.950 . S
H2865 C2895 0.950 . S
C2866 H2848 0.951 . S
C2866 C2867 1.366 . S
C2866 C2868 1.388 . S
C2867 C2866 1.366 . S
C2867 C2871 1.385 . S
C2868 H2849 0.951 . S
C2868 C2866 1.388 . S
C2868 C2869 1.366 . S
C2869 C2868 1.366 . S
C2869 C2870 1.414 . S
C2869 C2872 1.499 . S
C2870 H2850 0.950 . S
C2870 C2869 1.414 . S
C2870 C2871 1.374 . S
C2871 H2851 0.950 . S
C2871 C2867 1.385 . S
C2871 C2870 1.374 . S
C2872 C2869 1.499 . S
C2872 C2873 1.373 . S
C2872 C2874 1.389 . S
C2873 H2852 0.950 . S
C2873 C2872 1.373 . S
C2873 C2889 1.377 . S
C2874 C2872 1.389 . S
C2874 C2875 1.524 . S
C2874 C2888 1.377 . S
C2875 C2874 1.524 . S
C2875 C2876 1.397 . S
C2875 C2880 1.363 . S
C2876 H2853 0.950 . S
C2876 C2875 1.397 . S
C2876 C2877 1.334 . S
C2877 H2854 0.950 . S
C2877 C2876 1.334 . S
C2877 C2878 1.287 . S
C2878 C2877 1.287 . S
C2878 C2879 1.524 . S
C2878 H2897 0.913 . S
C2879 H2855 0.950 . S
C2879 C2878 1.524 . S
C2879 C2880 1.415 . S
C2880 H2856 0.950 . S
C2880 C2875 1.363 . S
C2880 C2879 1.415 . S
C2881 H2857 0.951 . S
C2881 C2882 1.366 . S
C2881 C2883 1.388 . S
C2882 C2881 1.366 . S
C2882 C2886 1.385 . S
C2883 H2858 0.951 . S
C2883 C2881 1.388 . S
C2883 C2884 1.366 . S
C2884 C2883 1.366 . S
C2884 C2885 1.414 . S
C2884 C2887 1.499 . S
C2885 H2859 0.950 . S
C2885 C2884 1.414 . S
C2885 C2886 1.374 . S
C2886 H2860 0.950 . S
C2886 C2882 1.385 . S
C2886 C2885 1.374 . S
C2887 C2884 1.499 . S
C2887 C2888 1.373 . S
C2887 C2889 1.389 . S
C2888 H2861 0.950 . S
C2888 C2874 1.377 . S
C2888 C2887 1.373 . S
C2889 C2873 1.377 . S
C2889 C2887 1.389 . S
C2889 C2890 1.524 . S
C2890 C2889 1.524 . S
C2890 C2891 1.397 . S
C2890 C2895 1.363 . S
C2891 H2862 0.950 . S
C2891 C2890 1.397 . S
C2891 C2892 1.334 . S
C2892 H2863 0.950 . S
C2892 C2891 1.334 . S
C2892 C2893 1.287 . S
C2893 C2892 1.287 . S
C2893 C2894 1.524 . S
C2893 H2896 0.999 . S
C2894 H2864 0.950 . S
C2894 C2893 1.524 . S
C2894 C2895 1.415 . S
C2895 H2865 0.950 . S
C2895 C2890 1.363 . S
C2895 C2894 1.415 . S
H2896 C2893 0.999 . S
H2897 C2878 0.913 . S
H2898 C2916 0.951 . S
H2899 C2918 0.951 . S
H2900 C2920 0.950 . S
H2901 C2921 0.950 . S
H2902 C2923 0.950 . S
H2903 C2926 0.950 . S
H2904 C2927 0.950 . S
H2905 C2929 0.950 . S
H2906 C2930 0.950 . S
H2907 C2931 0.951 . S
H2908 C2933 0.951 . S
H2909 C2935 0.950 . S
H2910 C2936 0.950 . S
H2911 C2938 0.950 . S
H2912 C2941 0.950 . S
H2913 C2942 0.950 . S
H2914 C2944 0.950 . S
H2915 C2945 0.950 . S
C2916 H2898 0.951 . S
C2916 C2917 1.366 . S
C2916 C2918 1.388 . S
C2917 C2916 1.366 . S
C2917 C2921 1.385 . S
C2918 H2899 0.951 . S
C2918 C2916 1.388 . S
C2918 C2919 1.366 . S
C2919 C2918 1.366 . S
C2919 C2920 1.414 . S
C2919 C2922 1.499 . S
C2920 H2900 0.950 . S
C2920 C2919 1.414 . S
C2920 C2921 1.374 . S
C2921 H2901 0.950 . S
C2921 C2917 1.385 . S
C2921 C2920 1.374 . S
C2922 C2919 1.499 . S
C2922 C2923 1.373 . S
C2922 C2924 1.389 . S
C2923 H2902 0.950 . S
C2923 C2922 1.373 . S
C2923 C2939 1.377 . S
C2924 C2922 1.389 . S
C2924 C2925 1.524 . S
C2924 C2938 1.377 . S
C2925 C2924 1.524 . S
C2925 C2926 1.397 . S
C2925 C2930 1.363 . S
C2926 H2903 0.950 . S
C2926 C2925 1.397 . S
C2926 C2927 1.334 . S
C2927 H2904 0.950 . S
C2927 C2926 1.334 . S
C2927 C2928 1.287 . S
C2928 C2927 1.287 . S
C2928 C2929 1.524 . S
C2928 H2947 0.913 . S
C2929 H2905 0.950 . S
C2929 C2928 1.524 . S
C2929 C2930 1.415 . S
C2930 H2906 0.950 . S
C2930 C2925 1.363 . S
C2930 C2929 1.415 . S
C2931 H2907 0.951 . S
C2931 C2932 1.366 . S
C2931 C2933 1.388 . S
C2932 C2931 1.366 . S
C2932 C2936 1.385 . S
C2933 H2908 0.951 . S
C2933 C2931 1.388 . S
C2933 C2934 1.366 . S
C2934 C2933 1.366 . S
C2934 C2935 1.414 . S
C2934 C2937 1.499 . S
C2935 H2909 0.950 . S
C2935 C2934 1.414 . S
C2935 C2936 1.374 . S
C2936 H2910 0.950 . S
C2936 C2932 1.385 . S
C2936 C2935 1.374 . S
C2937 C2934 1.499 . S
C2937 C2938 1.373 . S
C2937 C2939 1.389 . S
C2938 H2911 0.950 . S
C2938 C2924 1.377 . S
C2938 C2937 1.373 . S
C2939 C2923 1.377 . S
C2939 C2937 1.389 . S
C2939 C2940 1.524 . S
C2940 C2939 1.524 . S
C2940 C2941 1.397 . S
C2940 C2945 1.363 . S
C2941 H2912 0.950 . S
C2941 C2940 1.397 . S
C2941 C2942 1.334 . S
C2942 H2913 0.950 . S
C2942 C2941 1.334 . S
C2942 C2943 1.287 . S
C2943 C2942 1.287 . S
C2943 C2944 1.524 . S
C2943 H2946 0.999 . S
C2944 H2914 0.950 . S
C2944 C2943 1.524 . S
C2944 C2945 1.415 . S
C2945 H2915 0.950 . S
C2945 C2940 1.363 . S
C2945 C2944 1.415 . S
H2946 C2943 0.999 . S
H2947 C2928 0.913 . S
H2948 C2966 0.951 . S
H2949 C2968 0.951 . S
H2950 C2970 0.950 . S
H2951 C2971 0.950 . S
H2952 C2973 0.950 . S
H2953 C2976 0.950 . S
H2954 C2977 0.950 . S
H2955 C2979 0.950 . S
H2956 C2980 0.950 . S
H2957 C2981 0.951 . S
H2958 C2983 0.951 . S
H2959 C2985 0.950 . S
H2960 C2986 0.950 . S
H2961 C2988 0.950 . S
H2962 C2991 0.950 . S
H2963 C2992 0.950 . S
H2964 C2994 0.950 . S
H2965 C2995 0.950 . S
C2966 H2948 0.951 . S
C2966 C2967 1.366 . S
C2966 C2968 1.388 . S
C2967 C2966 1.366 . S
C2967 C2971 1.385 . S
C2968 H2949 0.951 . S
C2968 C2966 1.388 . S
C2968 C2969 1.366 . S
C2969 C2968 1.366 . S
C2969 C2970 1.414 . S
C2969 C2972 1.499 . S
C2970 H2950 0.950 . S
C2970 C2969 1.414 . S
C2970 C2971 1.374 . S
C2971 H2951 0.950 . S
C2971 C2967 1.385 . S
C2971 C2970 1.374 . S
C2972 C2969 1.499 . S
C2972 C2973 1.373 . S
C2972 C2974 1.389 . S
C2973 H2952 0.950 . S
C2973 C2972 1.373 . S
C2973 C2989 1.377 . S
C2974 C2972 1.389 . S
C2974 C2975 1.524 . S
C2974 C2988 1.377 . S
C2975 C2974 1.524 . S
C2975 C2976 1.397 . S
C2975 C2980 1.363 . S
C2976 H2953 0.950 . S
C2976 C2975 1.397 . S
C2976 C2977 1.334 . S
C2977 H2954 0.950 . S
C2977 C2976 1.334 . S
C2977 C2978 1.287 . S
C2978 C2977 1.287 . S
C2978 C2979 1.524 . S
C2978 H2997 0.913 . S
C2979 H2955 0.950 . S
C2979 C2978 1.524 . S
C2979 C2980 1.415 . S
C2980 H2956 0.950 . S
C2980 C2975 1.363 . S
C2980 C2979 1.415 . S
C2981 H2957 0.951 . S
C2981 C2982 1.366 . S
C2981 C2983 1.388 . S
C2982 C2981 1.366 . S
C2982 C2986 1.385 . S
C2983 H2958 0.951 . S
C2983 C2981 1.388 . S
C2983 C2984 1.366 . S
C2984 C2983 1.366 . S
C2984 C2985 1.414 . S
C2984 C2987 1.499 . S
C2985 H2959 0.950 . S
C2985 C2984 1.414 . S
C2985 C2986 1.374 . S
C2986 H2960 0.950 . S
C2986 C2982 1.385 . S
C2986 C2985 1.374 . S
C2987 C2984 1.499 . S
C2987 C2988 1.373 . S
C2987 C2989 1.389 . S
C2988 H2961 0.950 . S
C2988 C2974 1.377 . S
C2988 C2987 1.373 . S
C2989 C2973 1.377 . S
C2989 C2987 1.389 . S
C2989 C2990 1.524 . S
C2990 C2989 1.524 . S
C2990 C2991 1.397 . S
C2990 C2995 1.363 . S
C2991 H2962 0.950 . S
C2991 C2990 1.397 . S
C2991 C2992 1.334 . S
C2992 H2963 0.950 . S
C2992 C2991 1.334 . S
C2992 C2993 1.287 . S
C2993 C2992 1.287 . S
C2993 C2994 1.524 . S
C2993 H2996 0.999 . S
C2994 H2964 0.950 . S
C2994 C2993 1.524 . S
C2994 C2995 1.415 . S
C2995 H2965 0.950 . S
C2995 C2990 1.363 . S
C2995 C2994 1.415 . S
H2996 C2993 0.999 . S
H2997 C2978 0.913 . S
H2998 C3016 0.951 . S
H2999 C3018 0.951 . S
H3000 C3020 0.950 . S
H3001 C3021 0.950 . S
H3002 C3023 0.950 . S
H3003 C3026 0.950 . S
H3004 C3027 0.950 . S
H3005 C3029 0.950 . S
H3006 C3030 0.950 . S
H3007 C3031 0.951 . S
H3008 C3033 0.951 . S
H3009 C3035 0.950 . S
H3010 C3036 0.950 . S
H3011 C3038 0.950 . S
H3012 C3041 0.950 . S
H3013 C3042 0.950 . S
H3014 C3044 0.950 . S
H3015 C3045 0.950 . S
C3016 H2998 0.951 . S
C3016 C3017 1.366 . S
C3016 C3018 1.388 . S
C3017 C3016 1.366 . S
C3017 C3021 1.385 . S
C3018 H2999 0.951 . S
C3018 C3016 1.388 . S
C3018 C3019 1.366 . S
C3019 C3018 1.366 . S
C3019 C3020 1.414 . S
C3019 C3022 1.499 . S
C3020 H3000 0.950 . S
C3020 C3019 1.414 . S
C3020 C3021 1.374 . S
C3021 H3001 0.950 . S
C3021 C3017 1.385 . S
C3021 C3020 1.374 . S
C3022 C3019 1.499 . S
C3022 C3023 1.373 . S
C3022 C3024 1.389 . S
C3023 H3002 0.950 . S
C3023 C3022 1.373 . S
C3023 C3039 1.377 . S
C3024 C3022 1.389 . S
C3024 C3025 1.524 . S
C3024 C3038 1.377 . S
C3025 C3024 1.524 . S
C3025 C3026 1.397 . S
C3025 C3030 1.363 . S
C3026 H3003 0.950 . S
C3026 C3025 1.397 . S
C3026 C3027 1.334 . S
C3027 H3004 0.950 . S
C3027 C3026 1.334 . S
C3027 C3028 1.287 . S
C3028 C3027 1.287 . S
C3028 C3029 1.524 . S
C3028 H3047 0.913 . S
C3029 H3005 0.950 . S
C3029 C3028 1.524 . S
C3029 C3030 1.415 . S
C3030 H3006 0.950 . S
C3030 C3025 1.363 . S
C3030 C3029 1.415 . S
C3031 H3007 0.951 . S
C3031 C3032 1.366 . S
C3031 C3033 1.388 . S
C3032 C3031 1.366 . S
C3032 C3036 1.385 . S
C3033 H3008 0.951 . S
C3033 C3031 1.388 . S
C3033 C3034 1.366 . S
C3034 C3033 1.366 . S
C3034 C3035 1.414 . S
C3034 C3037 1.499 . S
C3035 H3009 0.950 . S
C3035 C3034 1.414 . S
C3035 C3036 1.374 . S
C3036 H3010 0.950 . S
C3036 C3032 1.385 . S
C3036 C3035 1.374 . S
C3037 C3034 1.499 . S
C3037 C3038 1.373 . S
C3037 C3039 1.389 . S
C3038 H3011 0.950 . S
C3038 C3024 1.377 . S
C3038 C3037 1.373 . S
C3039 C3023 1.377 . S
C3039 C3037 1.389 . S
C3039 C3040 1.524 . S
C3040 C3039 1.524 . S
C3040 C3041 1.397 . S
C3040 C3045 1.363 . S
C3041 H3012 0.950 . S
C3041 C3040 1.397 . S
C3041 C3042 1.334 . S
C3042 H3013 0.950 . S
C3042 C3041 1.334 . S
C3042 C3043 1.287 . S
C3043 C3042 1.287 . S
C3043 C3044 1.524 . S
C3043 H3046 0.999 . S
C3044 H3014 0.950 . S
C3044 C3043 1.524 . S
C3044 C3045 1.415 . S
C3045 H3015 0.950 . S
C3045 C3040 1.363 . S
C3045 C3044 1.415 . S
H3046 C3043 0.999 . S
H3047 C3028 0.913 . S
H3048 C3066 0.951 . S
H3049 C3068 0.951 . S
H3050 C3070 0.950 . S
H3051 C3071 0.950 . S
H3052 C3073 0.950 . S
H3053 C3076 0.950 . S
H3054 C3077 0.950 . S
H3055 C3079 0.950 . S
H3056 C3080 0.950 . S
H3057 C3081 0.951 . S
H3058 C3083 0.951 . S
H3059 C3085 0.950 . S
H3060 C3086 0.950 . S
H3061 C3088 0.950 . S
H3062 C3091 0.950 . S
H3063 C3092 0.950 1_455 S
H3064 C3094 0.950 . S
H3065 C3095 0.950 . S
C3066 H3048 0.951 . S
C3066 C3067 1.366 . S
C3066 C3068 1.388 . S
C3067 C3066 1.366 . S
C3067 C3071 1.385 . S
C3068 H3049 0.951 . S
C3068 C3066 1.388 . S
C3068 C3069 1.366 . S
C3069 C3068 1.366 . S
C3069 C3070 1.414 . S
C3069 C3072 1.499 . S
C3070 H3050 0.950 . S
C3070 C3069 1.414 . S
C3070 C3071 1.374 . S
C3071 H3051 0.950 . S
C3071 C3067 1.385 . S
C3071 C3070 1.374 . S
C3072 C3069 1.499 . S
C3072 C3073 1.373 . S
C3072 C3074 1.389 . S
C3073 H3052 0.950 . S
C3073 C3072 1.373 . S
C3073 C3089 1.377 . S
C3074 C3072 1.389 . S
C3074 C3075 1.524 . S
C3074 C3088 1.377 . S
C3075 C3074 1.524 . S
C3075 C3076 1.397 . S
C3075 C3080 1.363 . S
C3076 H3053 0.950 . S
C3076 C3075 1.397 . S
C3076 C3077 1.334 . S
C3077 H3054 0.950 . S
C3077 C3076 1.334 . S
C3077 C3078 1.287 . S
C3078 C3077 1.287 . S
C3078 C3079 1.524 . S
C3078 H3097 0.913 . S
C3079 H3055 0.950 . S
C3079 C3078 1.524 . S
C3079 C3080 1.415 . S
C3080 H3056 0.950 . S
C3080 C3075 1.363 . S
C3080 C3079 1.415 . S
C3081 H3057 0.951 . S
C3081 C3082 1.366 . S
C3081 C3083 1.388 . S
C3082 C3081 1.366 . S
C3082 C3086 1.385 . S
C3083 H3058 0.951 . S
C3083 C3081 1.388 . S
C3083 C3084 1.366 . S
C3084 C3083 1.366 . S
C3084 C3085 1.414 . S
C3084 C3087 1.499 . S
C3085 H3059 0.950 . S
C3085 C3084 1.414 . S
C3085 C3086 1.374 . S
C3086 H3060 0.950 . S
C3086 C3082 1.385 . S
C3086 C3085 1.374 . S
C3087 C3084 1.499 . S
C3087 C3088 1.373 . S
C3087 C3089 1.389 . S
C3088 H3061 0.950 . S
C3088 C3074 1.377 . S
C3088 C3087 1.373 . S
C3089 C3073 1.377 . S
C3089 C3087 1.389 . S
C3089 C3090 1.524 . S
C3090 C3089 1.524 . S
C3090 C3091 1.397 . S
C3090 C3095 1.363 . S
C3091 H3062 0.950 . S
C3091 C3090 1.397 . S
C3091 C3092 1.334 . S
C3092 H3063 0.950 1_655 S
C3092 C3091 1.334 . S
C3092 C3093 1.287 . S
C3093 C3092 1.287 . S
C3093 C3094 1.524 . S
C3093 H3096 1.008 . S
C3094 H3064 0.950 . S
C3094 C3093 1.524 . S
C3094 C3095 1.415 . S
C3095 H3065 0.950 . S
C3095 C3090 1.363 . S
C3095 C3094 1.415 . S
H3096 C3093 1.008 . S
H3097 C3078 0.913 . S
H3098 C3116 0.951 . S
H3099 C3118 0.951 . S
H3100 C3120 0.950 . S
H3101 C3121 0.950 . S
H3102 C3123 0.950 . S
H3103 C3126 0.950 . S
H3104 C3127 0.950 . S
H3105 C3129 0.950 . S
H3106 C3130 0.950 . S
H3107 C3131 0.951 . S
H3108 C3133 0.951 . S
H3109 C3135 0.950 . S
H3110 C3136 0.950 . S
H3111 C3138 0.950 . S
H3112 C3141 0.950 . S
H3113 C3142 0.950 . S
H3114 C3144 0.950 . S
H3115 C3145 0.950 . S
C3116 H3098 0.951 . S
C3116 C3117 1.366 . S
C3116 C3118 1.388 . S
C3117 C3116 1.366 . S
C3117 C3121 1.385 . S
C3118 H3099 0.951 . S
C3118 C3116 1.388 . S
C3118 C3119 1.366 . S
C3119 C3118 1.366 . S
C3119 C3120 1.414 . S
C3119 C3122 1.499 . S
C3120 H3100 0.950 . S
C3120 C3119 1.414 . S
C3120 C3121 1.374 . S
C3121 H3101 0.950 . S
C3121 C3117 1.385 . S
C3121 C3120 1.374 . S
C3122 C3119 1.499 . S
C3122 C3123 1.373 . S
C3122 C3124 1.389 . S
C3123 H3102 0.950 . S
C3123 C3122 1.373 . S
C3123 C3139 1.377 . S
C3124 C3122 1.389 . S
C3124 C3125 1.524 . S
C3124 C3138 1.377 . S
C3125 C3124 1.524 . S
C3125 C3126 1.397 . S
C3125 C3130 1.363 . S
C3126 H3103 0.950 . S
C3126 C3125 1.397 . S
C3126 C3127 1.334 . S
C3127 H3104 0.950 . S
C3127 C3126 1.334 . S
C3127 C3128 1.287 . S
C3128 C3127 1.287 . S
C3128 C3129 1.524 . S
C3128 H3147 0.913 . S
C3129 H3105 0.950 . S
C3129 C3128 1.524 . S
C3129 C3130 1.415 . S
C3130 H3106 0.950 . S
C3130 C3125 1.363 . S
C3130 C3129 1.415 . S
C3131 H3107 0.951 . S
C3131 C3132 1.366 . S
C3131 C3133 1.388 . S
C3132 C3131 1.366 . S
C3132 C3136 1.385 . S
C3133 H3108 0.951 . S
C3133 C3131 1.388 . S
C3133 C3134 1.366 . S
C3134 C3133 1.366 . S
C3134 C3135 1.414 . S
C3134 C3137 1.499 . S
C3135 H3109 0.950 . S
C3135 C3134 1.414 . S
C3135 C3136 1.374 . S
C3136 H3110 0.950 . S
C3136 C3132 1.385 . S
C3136 C3135 1.374 . S
C3137 C3134 1.499 . S
C3137 C3138 1.373 . S
C3137 C3139 1.389 . S
C3138 H3111 0.950 . S
C3138 C3124 1.377 . S
C3138 C3137 1.373 . S
C3139 C3123 1.377 . S
C3139 C3137 1.389 . S
C3139 C3140 1.524 . S
C3140 C3139 1.524 . S
C3140 C3141 1.397 . S
C3140 C3145 1.363 . S
C3141 H3112 0.950 . S
C3141 C3140 1.397 . S
C3141 C3142 1.334 . S
C3142 H3113 0.950 . S
C3142 C3141 1.334 . S
C3142 C3143 1.287 . S
C3143 C3142 1.287 . S
C3143 C3144 1.524 . S
C3143 H3146 0.999 . S
C3144 H3114 0.950 . S
C3144 C3143 1.524 . S
C3144 C3145 1.415 . S
C3145 H3115 0.950 . S
C3145 C3140 1.363 . S
C3145 C3144 1.415 . S
H3146 C3143 0.999 . S
H3147 C3128 0.913 . S
H3148 C3166 0.951 . S
H3149 C3168 0.951 . S
H3150 C3170 0.950 . S
H3151 C3171 0.950 . S
H3152 C3173 0.950 . S
H3153 C3176 0.950 . S
H3154 C3177 0.950 . S
H3155 C3179 0.950 . S
H3156 C3180 0.950 . S
H3157 C3181 0.951 . S
H3158 C3183 0.951 . S
H3159 C3185 0.950 . S
H3160 C3186 0.950 . S
H3161 C3188 0.950 . S
H3162 C3191 0.950 . S
H3163 C3192 0.950 . S
H3164 C3194 0.950 . S
H3165 C3195 0.950 . S
C3166 H3148 0.951 . S
C3166 C3167 1.366 . S
C3166 C3168 1.388 . S
C3167 C3166 1.366 . S
C3167 C3171 1.385 . S
C3168 H3149 0.951 . S
C3168 C3166 1.388 . S
C3168 C3169 1.366 . S
C3169 C3168 1.366 . S
C3169 C3170 1.414 . S
C3169 C3172 1.499 . S
C3170 H3150 0.950 . S
C3170 C3169 1.414 . S
C3170 C3171 1.374 . S
C3171 H3151 0.950 . S
C3171 C3167 1.385 . S
C3171 C3170 1.374 . S
C3172 C3169 1.499 . S
C3172 C3173 1.373 . S
C3172 C3174 1.389 . S
C3173 H3152 0.950 . S
C3173 C3172 1.373 . S
C3173 C3189 1.377 . S
C3174 C3172 1.389 . S
C3174 C3175 1.524 . S
C3174 C3188 1.377 . S
C3175 C3174 1.524 . S
C3175 C3176 1.397 . S
C3175 C3180 1.363 . S
C3176 H3153 0.950 . S
C3176 C3175 1.397 . S
C3176 C3177 1.334 . S
C3177 H3154 0.950 . S
C3177 C3176 1.334 . S
C3177 C3178 1.287 . S
C3178 C3177 1.287 . S
C3178 C3179 1.524 . S
C3178 H3197 0.913 . S
C3179 H3155 0.950 . S
C3179 C3178 1.524 . S
C3179 C3180 1.415 . S
C3180 H3156 0.950 . S
C3180 C3175 1.363 . S
C3180 C3179 1.415 . S
C3181 H3157 0.951 . S
C3181 C3182 1.366 . S
C3181 C3183 1.388 . S
C3182 C3181 1.366 . S
C3182 C3186 1.385 . S
C3183 H3158 0.951 . S
C3183 C3181 1.388 . S
C3183 C3184 1.366 . S
C3184 C3183 1.366 . S
C3184 C3185 1.414 . S
C3184 C3187 1.499 . S
C3185 H3159 0.950 . S
C3185 C3184 1.414 . S
C3185 C3186 1.374 . S
C3186 H3160 0.950 . S
C3186 C3182 1.385 . S
C3186 C3185 1.374 . S
C3187 C3184 1.499 . S
C3187 C3188 1.373 . S
C3187 C3189 1.389 . S
C3188 H3161 0.950 . S
C3188 C3174 1.377 . S
C3188 C3187 1.373 . S
C3189 C3173 1.377 . S
C3189 C3187 1.389 . S
C3189 C3190 1.524 . S
C3190 C3189 1.524 . S
C3190 C3191 1.397 . S
C3190 C3195 1.363 . S
C3191 H3162 0.950 . S
C3191 C3190 1.397 . S
C3191 C3192 1.334 . S
C3192 H3163 0.950 . S
C3192 C3191 1.334 . S
C3192 C3193 1.287 . S
C3193 C3192 1.287 . S
C3193 C3194 1.524 . S
C3193 H3196 0.999 . S
C3194 H3164 0.950 . S
C3194 C3193 1.524 . S
C3194 C3195 1.415 . S
C3195 H3165 0.950 . S
C3195 C3190 1.363 . S
C3195 C3194 1.415 . S
H3196 C3193 0.999 . S
H3197 C3178 0.913 . S
H3198 C3216 0.951 . S
H3199 C3218 0.951 . S
H3200 C3220 0.950 . S
H3201 C3221 0.950 . S
H3202 C3223 0.950 . S
H3203 C3226 0.950 . S
H3204 C3227 0.950 . S
H3205 C3229 0.950 . S
H3206 C3230 0.950 . S
H3207 C3231 0.951 . S
H3208 C3233 0.951 . S
H3209 C3235 0.950 . S
H3210 C3236 0.950 . S
H3211 C3238 0.950 . S
H3212 C3241 0.950 . S
H3213 C3242 0.950 . S
H3214 C3244 0.950 . S
H3215 C3245 0.950 . S
C3216 H3198 0.951 . S
C3216 C3217 1.366 . S
C3216 C3218 1.388 . S
C3217 C3216 1.366 . S
C3217 C3221 1.385 . S
C3218 H3199 0.951 . S
C3218 C3216 1.388 . S
C3218 C3219 1.366 . S
C3219 C3218 1.366 . S
C3219 C3220 1.414 . S
C3219 C3222 1.499 . S
C3220 H3200 0.950 . S
C3220 C3219 1.414 . S
C3220 C3221 1.374 . S
C3221 H3201 0.950 . S
C3221 C3217 1.385 . S
C3221 C3220 1.374 . S
C3222 C3219 1.499 . S
C3222 C3223 1.373 . S
C3222 C3224 1.389 . S
C3223 H3202 0.950 . S
C3223 C3222 1.373 . S
C3223 C3239 1.377 . S
C3224 C3222 1.389 . S
C3224 C3225 1.524 . S
C3224 C3238 1.377 . S
C3225 C3224 1.524 . S
C3225 C3226 1.397 . S
C3225 C3230 1.363 . S
C3226 H3203 0.950 . S
C3226 C3225 1.397 . S
C3226 C3227 1.334 . S
C3227 H3204 0.950 . S
C3227 C3226 1.334 . S
C3227 C3228 1.287 . S
C3228 C3227 1.287 . S
C3228 C3229 1.524 . S
C3228 H3247 0.913 . S
C3229 H3205 0.950 . S
C3229 C3228 1.524 . S
C3229 C3230 1.415 . S
C3230 H3206 0.950 . S
C3230 C3225 1.363 . S
C3230 C3229 1.415 . S
C3231 H3207 0.951 . S
C3231 C3232 1.366 . S
C3231 C3233 1.388 . S
C3232 C3231 1.366 . S
C3232 C3236 1.385 . S
C3233 H3208 0.951 . S
C3233 C3231 1.388 . S
C3233 C3234 1.366 . S
C3234 C3233 1.366 . S
C3234 C3235 1.414 . S
C3234 C3237 1.499 . S
C3235 H3209 0.950 . S
C3235 C3234 1.414 . S
C3235 C3236 1.374 . S
C3236 H3210 0.950 . S
C3236 C3232 1.385 . S
C3236 C3235 1.374 . S
C3237 C3234 1.499 . S
C3237 C3238 1.373 . S
C3237 C3239 1.389 . S
C3238 H3211 0.950 . S
C3238 C3224 1.377 . S
C3238 C3237 1.373 . S
C3239 C3223 1.377 . S
C3239 C3237 1.389 . S
C3239 C3240 1.524 . S
C3240 C3239 1.524 . S
C3240 C3241 1.397 . S
C3240 C3245 1.363 . S
C3241 H3212 0.950 . S
C3241 C3240 1.397 . S
C3241 C3242 1.334 . S
C3242 H3213 0.950 . S
C3242 C3241 1.334 . S
C3242 C3243 1.287 . S
C3243 C3242 1.287 . S
C3243 C3244 1.524 . S
C3243 H3246 0.999 . S
C3244 H3214 0.950 . S
C3244 C3243 1.524 . S
C3244 C3245 1.415 . S
C3245 H3215 0.950 . S
C3245 C3240 1.363 . S
C3245 C3244 1.415 . S
H3246 C3243 0.999 . S
H3247 C3228 0.913 . S
H3248 C3266 0.951 . S
H3249 C3268 0.951 . S
H3250 C3270 0.950 . S
H3251 C3271 0.950 . S
H3252 C3273 0.950 . S
H3253 C3276 0.950 . S
H3254 C3277 0.950 . S
H3255 C3279 0.950 . S
H3256 C3280 0.950 . S
H3257 C3281 0.951 . S
H3258 C3283 0.951 . S
H3259 C3285 0.950 . S
H3260 C3286 0.950 . S
H3261 C3288 0.950 . S
H3262 C3291 0.950 . S
H3263 C3292 0.950 . S
H3264 C3294 0.950 . S
H3265 C3295 0.950 . S
C3266 H3248 0.951 . S
C3266 C3267 1.366 . S
C3266 C3268 1.388 . S
C3267 C3266 1.366 . S
C3267 C3271 1.385 . S
C3268 H3249 0.951 . S
C3268 C3266 1.388 . S
C3268 C3269 1.366 . S
C3269 C3268 1.366 . S
C3269 C3270 1.414 . S
C3269 C3272 1.499 . S
C3270 H3250 0.950 . S
C3270 C3269 1.414 . S
C3270 C3271 1.374 . S
C3271 H3251 0.950 . S
C3271 C3267 1.385 . S
C3271 C3270 1.374 . S
C3272 C3269 1.499 . S
C3272 C3273 1.373 . S
C3272 C3274 1.389 . S
C3273 H3252 0.950 . S
C3273 C3272 1.373 . S
C3273 C3289 1.377 . S
C3274 C3272 1.389 . S
C3274 C3275 1.524 . S
C3274 C3288 1.377 . S
C3275 C3274 1.524 . S
C3275 C3276 1.397 . S
C3275 C3280 1.363 . S
C3276 H3253 0.950 . S
C3276 C3275 1.397 . S
C3276 C3277 1.334 . S
C3277 H3254 0.950 . S
C3277 C3276 1.334 . S
C3277 C3278 1.287 . S
C3278 C3277 1.287 . S
C3278 C3279 1.524 . S
C3278 H3297 0.913 . S
C3279 H3255 0.950 . S
C3279 C3278 1.524 . S
C3279 C3280 1.415 . S
C3280 H3256 0.950 . S
C3280 C3275 1.363 . S
C3280 C3279 1.415 . S
C3281 H3257 0.951 . S
C3281 C3282 1.366 . S
C3281 C3283 1.388 . S
C3282 C3281 1.366 . S
C3282 C3286 1.385 . S
C3283 H3258 0.951 . S
C3283 C3281 1.388 . S
C3283 C3284 1.366 . S
C3284 C3283 1.366 . S
C3284 C3285 1.414 . S
C3284 C3287 1.499 . S
C3285 H3259 0.950 . S
C3285 C3284 1.414 . S
C3285 C3286 1.374 . S
C3286 H3260 0.950 . S
C3286 C3282 1.385 . S
C3286 C3285 1.374 . S
C3287 C3284 1.499 . S
C3287 C3288 1.373 . S
C3287 C3289 1.389 . S
C3288 H3261 0.950 . S
C3288 C3274 1.377 . S
C3288 C3287 1.373 . S
C3289 C3273 1.377 . S
C3289 C3287 1.389 . S
C3289 C3290 1.524 . S
C3290 C3289 1.524 . S
C3290 C3291 1.397 . S
C3290 C3295 1.363 . S
C3291 H3262 0.950 . S
C3291 C3290 1.397 . S
C3291 C3292 1.334 . S
C3292 H3263 0.950 . S
C3292 C3291 1.334 . S
C3292 C3293 1.287 . S
C3293 C3292 1.287 . S
C3293 C3294 1.524 . S
C3293 H3296 0.999 . S
C3294 H3264 0.950 . S
C3294 C3293 1.524 . S
C3294 C3295 1.415 . S
C3295 H3265 0.950 . S
C3295 C3290 1.363 . S
C3295 C3294 1.415 . S
H3296 C3293 0.999 . S
H3297 C3278 0.913 . S
H3298 C3316 0.951 . S
H3299 C3318 0.951 . S
H3300 C3320 0.950 . S
H3301 C3321 0.950 . S
H3302 C3323 0.950 . S
H3303 C3326 0.950 . S
H3304 C3327 0.950 . S
H3305 C3329 0.950 . S
H3306 C3330 0.950 . S
H3307 C3331 0.951 . S
H3308 C3333 0.951 . S
H3309 C3335 0.950 . S
H3310 C3336 0.950 . S
H3311 C3338 0.950 . S
H3312 C3341 0.950 . S
H3313 C3342 0.950 . S
H3314 C3344 0.950 . S
H3315 C3345 0.950 . S
C3316 H3298 0.951 . S
C3316 C3317 1.366 . S
C3316 C3318 1.388 . S
C3317 C3316 1.366 . S
C3317 C3321 1.385 . S
C3318 H3299 0.951 . S
C3318 C3316 1.388 . S
C3318 C3319 1.366 . S
C3319 C3318 1.366 . S
C3319 C3320 1.414 . S
C3319 C3322 1.499 . S
C3320 H3300 0.950 . S
C3320 C3319 1.414 . S
C3320 C3321 1.374 . S
C3321 H3301 0.950 . S
C3321 C3317 1.385 . S
C3321 C3320 1.374 . S
C3322 C3319 1.499 . S
C3322 C3323 1.373 . S
C3322 C3324 1.389 . S
C3323 H3302 0.950 . S
C3323 C3322 1.373 . S
C3323 C3339 1.377 . S
C3324 C3322 1.389 . S
C3324 C3325 1.524 . S
C3324 C3338 1.377 . S
C3325 C3324 1.524 . S
C3325 C3326 1.397 . S
C3325 C3330 1.363 . S
C3326 H3303 0.950 . S
C3326 C3325 1.397 . S
C3326 C3327 1.334 . S
C3327 H3304 0.950 . S
C3327 C3326 1.334 . S
C3327 C3328 1.287 . S
C3328 C3327 1.287 . S
C3328 C3329 1.524 . S
C3328 H3347 0.913 . S
C3329 H3305 0.950 . S
C3329 C3328 1.524 . S
C3329 C3330 1.415 . S
C3330 H3306 0.950 . S
C3330 C3325 1.363 . S
C3330 C3329 1.415 . S
C3331 H3307 0.951 . S
C3331 C3332 1.366 . S
C3331 C3333 1.388 . S
C3332 C3331 1.366 . S
C3332 C3336 1.385 . S
C3333 H3308 0.951 . S
C3333 C3331 1.388 . S
C3333 C3334 1.366 . S
C3334 C3333 1.366 . S
C3334 C3335 1.414 . S
C3334 C3337 1.499 . S
C3335 H3309 0.950 . S
C3335 C3334 1.414 . S
C3335 C3336 1.374 . S
C3336 H3310 0.950 . S
C3336 C3332 1.385 . S
C3336 C3335 1.374 . S
C3337 C3334 1.499 . S
C3337 C3338 1.373 . S
C3337 C3339 1.389 . S
C3338 H3311 0.950 . S
C3338 C3324 1.377 . S
C3338 C3337 1.373 . S
C3339 C3323 1.377 . S
C3339 C3337 1.389 . S
C3339 C3340 1.524 . S
C3340 C3339 1.524 . S
C3340 C3341 1.397 . S
C3340 C3345 1.363 . S
C3341 H3312 0.950 . S
C3341 C3340 1.397 . S
C3341 C3342 1.334 . S
C3342 H3313 0.950 . S
C3342 C3341 1.334 . S
C3342 C3343 1.287 . S
C3343 C3342 1.287 . S
C3343 C3344 1.524 . S
C3343 H3346 0.999 . S
C3344 H3314 0.950 . S
C3344 C3343 1.524 . S
C3344 C3345 1.415 . S
C3345 H3315 0.950 . S
C3345 C3340 1.363 . S
C3345 C3344 1.415 . S
H3346 C3343 0.999 . S
H3347 C3328 0.913 . S
H3348 C3366 0.951 . S
H3349 C3368 0.951 . S
H3350 C3370 0.950 . S
H3351 C3371 0.950 . S
H3352 C3373 0.950 . S
H3353 C3376 0.950 . S
H3354 C3377 0.950 . S
H3355 C3379 0.950 . S
H3356 C3380 0.950 . S
H3357 C3381 0.951 . S
H3358 C3383 0.951 . S
H3359 C3385 0.950 . S
H3360 C3386 0.950 . S
H3361 C3388 0.950 . S
H3362 C3391 0.950 . S
H3363 C3392 0.950 . S
H3364 C3394 0.950 . S
H3365 C3395 0.950 . S
C3366 H3348 0.951 . S
C3366 C3367 1.366 . S
C3366 C3368 1.388 . S
C3367 C3366 1.366 . S
C3367 C3371 1.385 . S
C3368 H3349 0.951 . S
C3368 C3366 1.388 . S
C3368 C3369 1.366 . S
C3369 C3368 1.366 . S
C3369 C3370 1.414 . S
C3369 C3372 1.499 . S
C3370 H3350 0.950 . S
C3370 C3369 1.414 . S
C3370 C3371 1.374 . S
C3371 H3351 0.950 . S
C3371 C3367 1.385 . S
C3371 C3370 1.374 . S
C3372 C3369 1.499 . S
C3372 C3373 1.373 . S
C3372 C3374 1.389 . S
C3373 H3352 0.950 . S
C3373 C3372 1.373 . S
C3373 C3389 1.377 . S
C3374 C3372 1.389 . S
C3374 C3375 1.524 . S
C3374 C3388 1.377 . S
C3375 C3374 1.524 . S
C3375 C3376 1.397 . S
C3375 C3380 1.363 . S
C3376 H3353 0.950 . S
C3376 C3375 1.397 . S
C3376 C3377 1.334 . S
C3377 H3354 0.950 . S
C3377 C3376 1.334 . S
C3377 C3378 1.287 . S
C3378 C3377 1.287 . S
C3378 C3379 1.524 . S
C3378 H3397 0.913 . S
C3379 H3355 0.950 . S
C3379 C3378 1.524 . S
C3379 C3380 1.415 . S
C3380 H3356 0.950 . S
C3380 C3375 1.363 . S
C3380 C3379 1.415 . S
C3381 H3357 0.951 . S
C3381 C3382 1.366 . S
C3381 C3383 1.388 . S
C3382 C3381 1.366 . S
C3382 C3386 1.385 . S
C3383 H3358 0.951 . S
C3383 C3381 1.388 . S
C3383 C3384 1.366 . S
C3384 C3383 1.366 . S
C3384 C3385 1.414 . S
C3384 C3387 1.499 . S
C3385 H3359 0.950 . S
C3385 C3384 1.414 . S
C3385 C3386 1.374 . S
C3386 H3360 0.950 . S
C3386 C3382 1.385 . S
C3386 C3385 1.374 . S
C3387 C3384 1.499 . S
C3387 C3388 1.373 . S
C3387 C3389 1.389 . S
C3388 H3361 0.950 . S
C3388 C3374 1.377 . S
C3388 C3387 1.373 . S
C3389 C3373 1.377 . S
C3389 C3387 1.389 . S
C3389 C3390 1.524 . S
C3390 C3389 1.524 . S
C3390 C3391 1.397 . S
C3390 C3395 1.363 . S
C3391 H3362 0.950 . S
C3391 C3390 1.397 . S
C3391 C3392 1.334 . S
C3392 H3363 0.950 . S
C3392 C3391 1.334 . S
C3392 C3393 1.287 . S
C3393 C3392 1.287 . S
C3393 C3394 1.524 . S
C3393 H3396 0.999 . S
C3394 H3364 0.950 . S
C3394 C3393 1.524 . S
C3394 C3395 1.415 . S
C3395 H3365 0.950 . S
C3395 C3390 1.363 . S
C3395 C3394 1.415 . S
H3396 C3393 0.999 . S
H3397 C3378 0.913 . S
H3398 C3416 0.951 . S
H3399 C3418 0.951 . S
H3400 C3420 0.950 . S
H3401 C3421 0.950 . S
H3402 C3423 0.950 . S
H3403 C3426 0.950 . S
H3404 C3427 0.950 . S
H3405 C3429 0.950 . S
H3406 C3430 0.950 . S
H3407 C3431 0.951 . S
H3408 C3433 0.951 . S
H3409 C3435 0.950 . S
H3410 C3436 0.950 . S
H3411 C3438 0.950 . S
H3412 C3441 0.950 . S
H3413 C3442 0.950 . S
H3414 C3444 0.950 . S
H3415 C3445 0.950 . S
C3416 H3398 0.951 . S
C3416 C3417 1.366 . S
C3416 C3418 1.388 . S
C3417 C3416 1.366 . S
C3417 C3421 1.385 . S
C3418 H3399 0.951 . S
C3418 C3416 1.388 . S
C3418 C3419 1.366 . S
C3419 C3418 1.366 . S
C3419 C3420 1.414 . S
C3419 C3422 1.499 . S
C3420 H3400 0.950 . S
C3420 C3419 1.414 . S
C3420 C3421 1.374 . S
C3421 H3401 0.950 . S
C3421 C3417 1.385 . S
C3421 C3420 1.374 . S
C3422 C3419 1.499 . S
C3422 C3423 1.373 . S
C3422 C3424 1.389 . S
C3423 H3402 0.950 . S
C3423 C3422 1.373 . S
C3423 C3439 1.377 . S
C3424 C3422 1.389 . S
C3424 C3425 1.524 . S
C3424 C3438 1.377 . S
C3425 C3424 1.524 . S
C3425 C3426 1.397 . S
C3425 C3430 1.363 . S
C3426 H3403 0.950 . S
C3426 C3425 1.397 . S
C3426 C3427 1.334 . S
C3427 H3404 0.950 . S
C3427 C3426 1.334 . S
C3427 C3428 1.287 . S
C3428 C3427 1.287 . S
C3428 C3429 1.524 . S
C3428 H3447 0.913 . S
C3429 H3405 0.950 . S
C3429 C3428 1.524 . S
C3429 C3430 1.415 . S
C3430 H3406 0.950 . S
C3430 C3425 1.363 . S
C3430 C3429 1.415 . S
C3431 H3407 0.951 . S
C3431 C3432 1.366 . S
C3431 C3433 1.388 . S
C3432 C3431 1.366 . S
C3432 C3436 1.385 . S
C3433 H3408 0.951 . S
C3433 C3431 1.388 . S
C3433 C3434 1.366 . S
C3434 C3433 1.366 . S
C3434 C3435 1.414 . S
C3434 C3437 1.499 . S
C3435 H3409 0.950 . S
C3435 C3434 1.414 . S
C3435 C3436 1.374 . S
C3436 H3410 0.950 . S
C3436 C3432 1.385 . S
C3436 C3435 1.374 . S
C3437 C3434 1.499 . S
C3437 C3438 1.373 . S
C3437 C3439 1.389 . S
C3438 H3411 0.950 . S
C3438 C3424 1.377 . S
C3438 C3437 1.373 . S
C3439 C3423 1.377 . S
C3439 C3437 1.389 . S
C3439 C3440 1.524 . S
C3440 C3439 1.524 . S
C3440 C3441 1.397 . S
C3440 C3445 1.363 . S
C3441 H3412 0.950 . S
C3441 C3440 1.397 . S
C3441 C3442 1.334 . S
C3442 H3413 0.950 . S
C3442 C3441 1.334 . S
C3442 C3443 1.287 . S
C3443 C3442 1.287 . S
C3443 C3444 1.524 . S
C3443 H3446 0.999 . S
C3444 H3414 0.950 . S
C3444 C3443 1.524 . S
C3444 C3445 1.415 . S
C3445 H3415 0.950 . S
C3445 C3440 1.363 . S
C3445 C3444 1.415 . S
H3446 C3443 0.999 . S
H3447 C3428 0.913 . S
H3448 C3466 0.951 . S
H3449 C3468 0.951 . S
H3450 C3470 0.950 . S
H3451 C3471 0.950 . S
H3452 C3473 0.950 . S
H3453 C3476 0.950 . S
H3454 C3477 0.950 . S
H3455 C3479 0.950 . S
H3456 C3480 0.950 . S
H3457 C3481 0.951 . S
H3458 C3483 0.951 . S
H3459 C3485 0.950 . S
H3460 C3486 0.950 . S
H3461 C3488 0.950 . S
H3462 C3491 0.950 . S
H3463 C3492 0.950 . S
H3464 C3494 0.950 . S
H3465 C3495 0.950 . S
C3466 H3448 0.951 . S
C3466 C3467 1.366 . S
C3466 C3468 1.388 . S
C3467 C3466 1.366 . S
C3467 C3471 1.385 . S
C3468 H3449 0.951 . S
C3468 C3466 1.388 . S
C3468 C3469 1.366 . S
C3469 C3468 1.366 . S
C3469 C3470 1.414 . S
C3469 C3472 1.499 . S
C3470 H3450 0.950 . S
C3470 C3469 1.414 . S
C3470 C3471 1.374 . S
C3471 H3451 0.950 . S
C3471 C3467 1.385 . S
C3471 C3470 1.374 . S
C3472 C3469 1.499 . S
C3472 C3473 1.373 . S
C3472 C3474 1.389 . S
C3473 H3452 0.950 . S
C3473 C3472 1.373 . S
C3473 C3489 1.377 . S
C3474 C3472 1.389 . S
C3474 C3475 1.524 . S
C3474 C3488 1.377 . S
C3475 C3474 1.524 . S
C3475 C3476 1.397 . S
C3475 C3480 1.363 . S
C3476 H3453 0.950 . S
C3476 C3475 1.397 . S
C3476 C3477 1.334 . S
C3477 H3454 0.950 . S
C3477 C3476 1.334 . S
C3477 C3478 1.287 . S
C3478 C3477 1.287 . S
C3478 C3479 1.524 . S
C3478 H3497 0.913 . S
C3479 H3455 0.950 . S
C3479 C3478 1.524 . S
C3479 C3480 1.415 . S
C3480 H3456 0.950 . S
C3480 C3475 1.363 . S
C3480 C3479 1.415 . S
C3481 H3457 0.951 . S
C3481 C3482 1.366 . S
C3481 C3483 1.388 . S
C3482 C3481 1.366 . S
C3482 C3486 1.385 . S
C3483 H3458 0.951 . S
C3483 C3481 1.388 . S
C3483 C3484 1.366 . S
C3484 C3483 1.366 . S
C3484 C3485 1.414 . S
C3484 C3487 1.499 . S
C3485 H3459 0.950 . S
C3485 C3484 1.414 . S
C3485 C3486 1.374 . S
C3486 H3460 0.950 . S
C3486 C3482 1.385 . S
C3486 C3485 1.374 . S
C3487 C3484 1.499 . S
C3487 C3488 1.373 . S
C3487 C3489 1.389 . S
C3488 H3461 0.950 . S
C3488 C3474 1.377 . S
C3488 C3487 1.373 . S
C3489 C3473 1.377 . S
C3489 C3487 1.389 . S
C3489 C3490 1.524 . S
C3490 C3489 1.524 . S
C3490 C3491 1.397 . S
C3490 C3495 1.363 . S
C3491 H3462 0.950 . S
C3491 C3490 1.397 . S
C3491 C3492 1.334 . S
C3492 H3463 0.950 . S
C3492 C3491 1.334 . S
C3492 C3493 1.287 . S
C3493 C3492 1.287 . S
C3493 C3494 1.524 . S
C3493 H3496 0.999 . S
C3494 H3464 0.950 . S
C3494 C3493 1.524 . S
C3494 C3495 1.415 . S
C3495 H3465 0.950 . S
C3495 C3490 1.363 . S
C3495 C3494 1.415 . S
H3496 C3493 0.999 . S
H3497 C3478 0.913 . S
H3498 C3516 0.951 . S
H3499 C3518 0.951 . S
H3500 C3520 0.950 . S
H3501 C3521 0.950 . S
H3502 C3523 0.950 . S
H3503 C3526 0.950 . S
H3504 C3527 0.950 . S
H3505 C3529 0.950 . S
H3506 C3530 0.950 . S
H3507 C3531 0.951 . S
H3508 C3533 0.951 . S
H3509 C3535 0.950 . S
H3510 C3536 0.950 . S
H3511 C3538 0.950 . S
H3512 C3541 0.950 . S
H3513 C3542 0.950 . S
H3514 C3544 0.950 . S
H3515 C3545 0.950 . S
C3516 H3498 0.951 . S
C3516 C3517 1.366 . S
C3516 C3518 1.388 . S
C3517 C3516 1.366 . S
C3517 C3521 1.385 . S
C3518 H3499 0.951 . S
C3518 C3516 1.388 . S
C3518 C3519 1.366 . S
C3519 C3518 1.366 . S
C3519 C3520 1.414 . S
C3519 C3522 1.499 . S
C3520 H3500 0.950 . S
C3520 C3519 1.414 . S
C3520 C3521 1.374 . S
C3521 H3501 0.950 . S
C3521 C3517 1.385 . S
C3521 C3520 1.374 . S
C3522 C3519 1.499 . S
C3522 C3523 1.373 . S
C3522 C3524 1.389 . S
C3523 H3502 0.950 . S
C3523 C3522 1.373 . S
C3523 C3539 1.377 . S
C3524 C3522 1.389 . S
C3524 C3525 1.524 . S
C3524 C3538 1.377 . S
C3525 C3524 1.524 . S
C3525 C3526 1.397 . S
C3525 C3530 1.363 . S
C3526 H3503 0.950 . S
C3526 C3525 1.397 . S
C3526 C3527 1.334 . S
C3527 H3504 0.950 . S
C3527 C3526 1.334 . S
C3527 C3528 1.287 . S
C3528 C3527 1.287 . S
C3528 C3529 1.524 . S
C3528 H3547 0.913 . S
C3529 H3505 0.950 . S
C3529 C3528 1.524 . S
C3529 C3530 1.415 . S
C3530 H3506 0.950 . S
C3530 C3525 1.363 . S
C3530 C3529 1.415 . S
C3531 H3507 0.951 . S
C3531 C3532 1.366 . S
C3531 C3533 1.388 . S
C3532 C3531 1.366 . S
C3532 C3536 1.385 . S
C3533 H3508 0.951 . S
C3533 C3531 1.388 . S
C3533 C3534 1.366 . S
C3534 C3533 1.366 . S
C3534 C3535 1.414 . S
C3534 C3537 1.499 . S
C3535 H3509 0.950 . S
C3535 C3534 1.414 . S
C3535 C3536 1.374 . S
C3536 H3510 0.950 . S
C3536 C3532 1.385 . S
C3536 C3535 1.374 . S
C3537 C3534 1.499 . S
C3537 C3538 1.373 . S
C3537 C3539 1.389 . S
C3538 H3511 0.950 . S
C3538 C3524 1.377 . S
C3538 C3537 1.373 . S
C3539 C3523 1.377 . S
C3539 C3537 1.389 . S
C3539 C3540 1.524 . S
C3540 C3539 1.524 . S
C3540 C3541 1.397 . S
C3540 C3545 1.363 . S
C3541 H3512 0.950 . S
C3541 C3540 1.397 . S
C3541 C3542 1.334 . S
C3542 H3513 0.950 . S
C3542 C3541 1.334 . S
C3542 C3543 1.287 . S
C3543 C3542 1.287 . S
C3543 C3544 1.524 . S
C3543 H3546 0.999 . S
C3544 H3514 0.950 . S
C3544 C3543 1.524 . S
C3544 C3545 1.415 . S
C3545 H3515 0.950 . S
C3545 C3540 1.363 . S
C3545 C3544 1.415 . S
H3546 C3543 0.999 . S
H3547 C3528 0.913 . S
H3548 C3566 0.951 . S
H3549 C3568 0.951 . S
H3550 C3570 0.950 . S
H3551 C3571 0.950 . S
H3552 C3573 0.950 . S
H3553 C3576 0.950 . S
H3554 C3577 0.950 . S
H3555 C3579 0.950 . S
H3556 C3580 0.950 . S
H3557 C3581 0.951 . S
H3558 C3583 0.951 . S
H3559 C3585 0.950 . S
H3560 C3586 0.950 . S
H3561 C3588 0.950 . S
H3562 C3591 0.950 . S
H3563 C3592 0.950 . S
H3564 C3594 0.950 . S
H3565 C3595 0.950 . S
C3566 H3548 0.951 . S
C3566 C3567 1.366 . S
C3566 C3568 1.388 . S
C3567 C3566 1.366 . S
C3567 C3571 1.385 . S
C3568 H3549 0.951 . S
C3568 C3566 1.388 . S
C3568 C3569 1.366 . S
C3569 C3568 1.366 . S
C3569 C3570 1.414 . S
C3569 C3572 1.499 . S
C3570 H3550 0.950 . S
C3570 C3569 1.414 . S
C3570 C3571 1.374 . S
C3571 H3551 0.950 . S
C3571 C3567 1.385 . S
C3571 C3570 1.374 . S
C3572 C3569 1.499 . S
C3572 C3573 1.373 . S
C3572 C3574 1.389 . S
C3573 H3552 0.950 . S
C3573 C3572 1.373 . S
C3573 C3589 1.377 . S
C3574 C3572 1.389 . S
C3574 C3575 1.524 . S
C3574 C3588 1.377 . S
C3575 C3574 1.524 . S
C3575 C3576 1.397 . S
C3575 C3580 1.363 . S
C3576 H3553 0.950 . S
C3576 C3575 1.397 . S
C3576 C3577 1.334 . S
C3577 H3554 0.950 . S
C3577 C3576 1.334 . S
C3577 C3578 1.287 . S
C3578 C3577 1.287 . S
C3578 C3579 1.524 . S
C3578 H3597 0.913 . S
C3579 H3555 0.950 . S
C3579 C3578 1.524 . S
C3579 C3580 1.415 . S
C3580 H3556 0.950 . S
C3580 C3575 1.363 . S
C3580 C3579 1.415 . S
C3581 H3557 0.951 . S
C3581 C3582 1.366 . S
C3581 C3583 1.388 . S
C3582 C3581 1.366 . S
C3582 C3586 1.385 . S
C3583 H3558 0.951 . S
C3583 C3581 1.388 . S
C3583 C3584 1.366 . S
C3584 C3583 1.366 . S
C3584 C3585 1.414 . S
C3584 C3587 1.499 . S
C3585 H3559 0.950 . S
C3585 C3584 1.414 . S
C3585 C3586 1.374 . S
C3586 H3560 0.950 . S
C3586 C3582 1.385 . S
C3586 C3585 1.374 . S
C3587 C3584 1.499 . S
C3587 C3588 1.373 . S
C3587 C3589 1.389 . S
C3588 H3561 0.950 . S
C3588 C3574 1.377 . S
C3588 C3587 1.373 . S
C3589 C3573 1.377 . S
C3589 C3587 1.389 . S
C3589 C3590 1.524 . S
C3590 C3589 1.524 . S
C3590 C3591 1.397 . S
C3590 C3595 1.363 . S
C3591 H3562 0.950 . S
C3591 C3590 1.397 . S
C3591 C3592 1.334 . S
C3592 H3563 0.950 . S
C3592 C3591 1.334 . S
C3592 C3593 1.287 . S
C3593 C3592 1.287 . S
C3593 C3594 1.524 . S
C3593 H3596 0.999 . S
C3594 H3564 0.950 . S
C3594 C3593 1.524 . S
C3594 C3595 1.415 . S
C3595 H3565 0.950 . S
C3595 C3590 1.363 . S
C3595 C3594 1.415 . S
H3596 C3593 0.999 . S
H3597 C3578 0.913 . S
H3598 C3616 0.951 . S
H3599 C3618 0.951 . S
H3600 C3620 0.950 . S
H3601 C3621 0.950 . S
H3602 C3623 0.950 . S
H3603 C3626 0.950 . S
H3604 C3627 0.950 . S
H3605 C3629 0.950 . S
H3606 C3630 0.950 . S
H3607 C3631 0.951 . S
H3608 C3633 0.951 . S
H3609 C3635 0.950 . S
H3610 C3636 0.950 . S
H3611 C3638 0.950 . S
H3612 C3641 0.950 . S
H3613 C3642 0.950 . S
H3614 C3644 0.950 . S
H3615 C3645 0.950 . S
C3616 H3598 0.951 . S
C3616 C3617 1.366 . S
C3616 C3618 1.388 . S
C3617 C3616 1.366 . S
C3617 C3621 1.385 . S
C3618 H3599 0.951 . S
C3618 C3616 1.388 . S
C3618 C3619 1.366 . S
C3619 C3618 1.366 . S
C3619 C3620 1.414 . S
C3619 C3622 1.499 . S
C3620 H3600 0.950 . S
C3620 C3619 1.414 . S
C3620 C3621 1.374 . S
C3621 H3601 0.950 . S
C3621 C3617 1.385 . S
C3621 C3620 1.374 . S
C3622 C3619 1.499 . S
C3622 C3623 1.373 . S
C3622 C3624 1.389 . S
C3623 H3602 0.950 . S
C3623 C3622 1.373 . S
C3623 C3639 1.377 . S
C3624 C3622 1.389 . S
C3624 C3625 1.524 . S
C3624 C3638 1.377 . S
C3625 C3624 1.524 . S
C3625 C3626 1.397 . S
C3625 C3630 1.363 . S
C3626 H3603 0.950 . S
C3626 C3625 1.397 . S
C3626 C3627 1.334 . S
C3627 H3604 0.950 . S
C3627 C3626 1.334 . S
C3627 C3628 1.287 . S
C3628 C3627 1.287 . S
C3628 C3629 1.524 . S
C3628 H3647 0.913 . S
C3629 H3605 0.950 . S
C3629 C3628 1.524 . S
C3629 C3630 1.415 . S
C3630 H3606 0.950 . S
C3630 C3625 1.363 . S
C3630 C3629 1.415 . S
C3631 H3607 0.951 . S
C3631 C3632 1.366 . S
C3631 C3633 1.388 . S
C3632 C3631 1.366 . S
C3632 C3636 1.385 . S
C3633 H3608 0.951 . S
C3633 C3631 1.388 . S
C3633 C3634 1.366 . S
C3634 C3633 1.366 . S
C3634 C3635 1.414 . S
C3634 C3637 1.499 . S
C3635 H3609 0.950 . S
C3635 C3634 1.414 . S
C3635 C3636 1.374 . S
C3636 H3610 0.950 . S
C3636 C3632 1.385 . S
C3636 C3635 1.374 . S
C3637 C3634 1.499 . S
C3637 C3638 1.373 . S
C3637 C3639 1.389 . S
C3638 H3611 0.950 . S
C3638 C3624 1.377 . S
C3638 C3637 1.373 . S
C3639 C3623 1.377 . S
C3639 C3637 1.389 . S
C3639 C3640 1.524 . S
C3640 C3639 1.524 . S
C3640 C3641 1.397 . S
C3640 C3645 1.363 . S
C3641 H3612 0.950 . S
C3641 C3640 1.397 . S
C3641 C3642 1.334 . S
C3642 H3613 0.950 . S
C3642 C3641 1.334 . S
C3642 C3643 1.287 . S
C3643 C3642 1.287 . S
C3643 C3644 1.524 . S
C3643 H3646 0.999 . S
C3644 H3614 0.950 . S
C3644 C3643 1.524 . S
C3644 C3645 1.415 . S
C3645 H3615 0.950 . S
C3645 C3640 1.363 . S
C3645 C3644 1.415 . S
H3646 C3643 0.999 . S
H3647 C3628 0.913 . S
H3648 C3666 0.951 . S
H3649 C3668 0.951 . S
H3650 C3670 0.950 . S
H3651 C3671 0.950 . S
H3652 C3673 0.950 . S
H3653 C3676 0.950 . S
H3654 C3677 0.950 . S
H3655 C3679 0.950 . S
H3656 C3680 0.950 . S
H3657 C3681 0.951 . S
H3658 C3683 0.951 . S
H3659 C3685 0.950 . S
H3660 C3686 0.950 . S
H3661 C3688 0.950 . S
H3662 C3691 0.950 . S
H3663 C3692 0.950 . S
H3664 C3694 0.950 . S
H3665 C3695 0.950 . S
C3666 H3648 0.951 . S
C3666 C3667 1.366 . S
C3666 C3668 1.388 . S
C3667 C3666 1.366 . S
C3667 C3671 1.385 . S
C3668 H3649 0.951 . S
C3668 C3666 1.388 . S
C3668 C3669 1.366 . S
C3669 C3668 1.366 . S
C3669 C3670 1.414 . S
C3669 C3672 1.499 . S
C3670 H3650 0.950 . S
C3670 C3669 1.414 . S
C3670 C3671 1.374 . S
C3671 H3651 0.950 . S
C3671 C3667 1.385 . S
C3671 C3670 1.374 . S
C3672 C3669 1.499 . S
C3672 C3673 1.373 . S
C3672 C3674 1.389 . S
C3673 H3652 0.950 . S
C3673 C3672 1.373 . S
C3673 C3689 1.377 . S
C3674 C3672 1.389 . S
C3674 C3675 1.524 . S
C3674 C3688 1.377 . S
C3675 C3674 1.524 . S
C3675 C3676 1.397 . S
C3675 C3680 1.363 . S
C3676 H3653 0.950 . S
C3676 C3675 1.397 . S
C3676 C3677 1.334 . S
C3677 H3654 0.950 . S
C3677 C3676 1.334 . S
C3677 C3678 1.287 . S
C3678 C3677 1.287 . S
C3678 C3679 1.524 . S
C3678 H3697 0.913 . S
C3679 H3655 0.950 . S
C3679 C3678 1.524 . S
C3679 C3680 1.415 . S
C3680 H3656 0.950 . S
C3680 C3675 1.363 . S
C3680 C3679 1.415 . S
C3681 H3657 0.951 . S
C3681 C3682 1.366 . S
C3681 C3683 1.388 . S
C3682 C3681 1.366 . S
C3682 C3686 1.385 . S
C3683 H3658 0.951 . S
C3683 C3681 1.388 . S
C3683 C3684 1.366 . S
C3684 C3683 1.366 . S
C3684 C3685 1.414 . S
C3684 C3687 1.499 . S
C3685 H3659 0.950 . S
C3685 C3684 1.414 . S
C3685 C3686 1.374 . S
C3686 H3660 0.950 . S
C3686 C3682 1.385 . S
C3686 C3685 1.374 . S
C3687 C3684 1.499 . S
C3687 C3688 1.373 . S
C3687 C3689 1.389 . S
C3688 H3661 0.950 . S
C3688 C3674 1.377 . S
C3688 C3687 1.373 . S
C3689 C3673 1.377 . S
C3689 C3687 1.389 . S
C3689 C3690 1.524 . S
C3690 C3689 1.524 . S
C3690 C3691 1.397 . S
C3690 C3695 1.363 . S
C3691 H3662 0.950 . S
C3691 C3690 1.397 . S
C3691 C3692 1.334 . S
C3692 H3663 0.950 . S
C3692 C3691 1.334 . S
C3692 C3693 1.287 . S
C3693 C3692 1.287 . S
C3693 C3694 1.524 . S
C3693 H3696 0.999 . S
C3694 H3664 0.950 . S
C3694 C3693 1.524 . S
C3694 C3695 1.415 . S
C3695 H3665 0.950 . S
C3695 C3690 1.363 . S
C3695 C3694 1.415 . S
H3696 C3693 0.999 . S
H3697 C3678 0.913 . S
H3698 C3716 0.951 . S
H3699 C3718 0.951 . S
H3700 C3720 0.950 . S
H3701 C3721 0.950 . S
H3702 C3723 0.950 . S
H3703 C3726 0.950 . S
H3704 C3727 0.950 . S
H3705 C3729 0.950 . S
H3706 C3730 0.950 . S
H3707 C3731 0.951 . S
H3708 C3733 0.951 . S
H3709 C3735 0.950 . S
H3710 C3736 0.950 . S
H3711 C3738 0.950 . S
H3712 C3741 0.950 . S
H3713 C3742 0.950 . S
H3714 C3744 0.950 . S
H3715 C3745 0.950 . S
C3716 H3698 0.951 . S
C3716 C3717 1.366 . S
C3716 C3718 1.388 . S
C3717 C3716 1.366 . S
C3717 C3721 1.385 . S
C3718 H3699 0.951 . S
C3718 C3716 1.388 . S
C3718 C3719 1.366 . S
C3719 C3718 1.366 . S
C3719 C3720 1.414 . S
C3719 C3722 1.499 . S
C3720 H3700 0.950 . S
C3720 C3719 1.414 . S
C3720 C3721 1.374 . S
C3721 H3701 0.950 . S
C3721 C3717 1.385 . S
C3721 C3720 1.374 . S
C3722 C3719 1.499 . S
C3722 C3723 1.373 . S
C3722 C3724 1.389 . S
C3723 H3702 0.950 . S
C3723 C3722 1.373 . S
C3723 C3739 1.377 . S
C3724 C3722 1.389 . S
C3724 C3725 1.524 . S
C3724 C3738 1.377 . S
C3725 C3724 1.524 . S
C3725 C3726 1.397 . S
C3725 C3730 1.363 . S
C3726 H3703 0.950 . S
C3726 C3725 1.397 . S
C3726 C3727 1.334 . S
C3727 H3704 0.950 . S
C3727 C3726 1.334 . S
C3727 C3728 1.287 . S
C3728 C3727 1.287 . S
C3728 C3729 1.524 . S
C3728 H3747 0.913 . S
C3729 H3705 0.950 . S
C3729 C3728 1.524 . S
C3729 C3730 1.415 . S
C3730 H3706 0.950 . S
C3730 C3725 1.363 . S
C3730 C3729 1.415 . S
C3731 H3707 0.951 . S
C3731 C3732 1.366 . S
C3731 C3733 1.388 . S
C3732 C3731 1.366 . S
C3732 C3736 1.385 . S
C3733 H3708 0.951 . S
C3733 C3731 1.388 . S
C3733 C3734 1.366 . S
C3734 C3733 1.366 . S
C3734 C3735 1.414 . S
C3734 C3737 1.499 . S
C3735 H3709 0.950 . S
C3735 C3734 1.414 . S
C3735 C3736 1.374 . S
C3736 H3710 0.950 . S
C3736 C3732 1.385 . S
C3736 C3735 1.374 . S
C3737 C3734 1.499 . S
C3737 C3738 1.373 . S
C3737 C3739 1.389 . S
C3738 H3711 0.950 . S
C3738 C3724 1.377 . S
C3738 C3737 1.373 . S
C3739 C3723 1.377 . S
C3739 C3737 1.389 . S
C3739 C3740 1.524 . S
C3740 C3739 1.524 . S
C3740 C3741 1.397 . S
C3740 C3745 1.363 . S
C3741 H3712 0.950 . S
C3741 C3740 1.397 . S
C3741 C3742 1.334 . S
C3742 H3713 0.950 . S
C3742 C3741 1.334 . S
C3742 C3743 1.287 . S
C3743 C3742 1.287 . S
C3743 C3744 1.524 . S
C3743 H3746 0.999 . S
C3744 H3714 0.950 . S
C3744 C3743 1.524 . S
C3744 C3745 1.415 . S
C3745 H3715 0.950 . S
C3745 C3740 1.363 . S
C3745 C3744 1.415 . S
H3746 C3743 0.999 . S
H3747 C3728 0.913 . S
H3748 C3766 0.951 . S
H3749 C3768 0.951 . S
H3750 C3770 0.950 . S
H3751 C3771 0.950 . S
H3752 C3773 0.950 . S
H3753 C3776 0.950 . S
H3754 C3777 0.950 . S
H3755 C3779 0.950 . S
H3756 C3780 0.950 . S
H3757 C3781 0.951 . S
H3758 C3783 0.951 . S
H3759 C3785 0.950 . S
H3760 C3786 0.950 . S
H3761 C3788 0.950 . S
H3762 C3791 0.950 . S
H3763 C3792 0.950 . S
H3764 C3794 0.950 . S
H3765 C3795 0.950 . S
C3766 H3748 0.951 . S
C3766 C3767 1.366 . S
C3766 C3768 1.388 . S
C3767 C3766 1.366 . S
C3767 C3771 1.385 . S
C3768 H3749 0.951 . S
C3768 C3766 1.388 . S
C3768 C3769 1.366 . S
C3769 C3768 1.366 . S
C3769 C3770 1.414 . S
C3769 C3772 1.499 . S
C3770 H3750 0.950 . S
C3770 C3769 1.414 . S
C3770 C3771 1.374 . S
C3771 H3751 0.950 . S
C3771 C3767 1.385 . S
C3771 C3770 1.374 . S
C3772 C3769 1.499 . S
C3772 C3773 1.373 . S
C3772 C3774 1.389 . S
C3773 H3752 0.950 . S
C3773 C3772 1.373 . S
C3773 C3789 1.377 . S
C3774 C3772 1.389 . S
C3774 C3775 1.524 . S
C3774 C3788 1.377 . S
C3775 C3774 1.524 . S
C3775 C3776 1.397 . S
C3775 C3780 1.363 . S
C3776 H3753 0.950 . S
C3776 C3775 1.397 . S
C3776 C3777 1.334 . S
C3777 H3754 0.950 . S
C3777 C3776 1.334 . S
C3777 C3778 1.287 . S
C3778 C3777 1.287 . S
C3778 C3779 1.524 . S
C3778 H3797 0.913 . S
C3779 H3755 0.950 . S
C3779 C3778 1.524 . S
C3779 C3780 1.415 . S
C3780 H3756 0.950 . S
C3780 C3775 1.363 . S
C3780 C3779 1.415 . S
C3781 H3757 0.951 . S
C3781 C3782 1.366 . S
C3781 C3783 1.388 . S
C3782 C3781 1.366 . S
C3782 C3786 1.385 . S
C3783 H3758 0.951 . S
C3783 C3781 1.388 . S
C3783 C3784 1.366 . S
C3784 C3783 1.366 . S
C3784 C3785 1.414 . S
C3784 C3787 1.499 . S
C3785 H3759 0.950 . S
C3785 C3784 1.414 . S
C3785 C3786 1.374 . S
C3786 H3760 0.950 . S
C3786 C3782 1.385 . S
C3786 C3785 1.374 . S
C3787 C3784 1.499 . S
C3787 C3788 1.373 . S
C3787 C3789 1.389 . S
C3788 H3761 0.950 . S
C3788 C3774 1.377 . S
C3788 C3787 1.373 . S
C3789 C3773 1.377 . S
C3789 C3787 1.389 . S
C3789 C3790 1.524 . S
C3790 C3789 1.524 . S
C3790 C3791 1.397 . S
C3790 C3795 1.363 . S
C3791 H3762 0.950 . S
C3791 C3790 1.397 . S
C3791 C3792 1.334 . S
C3792 H3763 0.950 . S
C3792 C3791 1.334 . S
C3792 C3793 1.287 . S
C3793 C3792 1.287 . S
C3793 C3794 1.524 . S
C3793 H3796 0.999 . S
C3794 H3764 0.950 . S
C3794 C3793 1.524 . S
C3794 C3795 1.415 . S
C3795 H3765 0.950 . S
C3795 C3790 1.363 . S
C3795 C3794 1.415 . S
H3796 C3793 0.999 . S
H3797 C3778 0.913 . S
C1117 C253 1.439 . S
C1132 C398 1.383 . S
C1167 C272 1.471 . S
C1182 C482 1.418 . S
C1217 C234 1.425 . S
C1232 C576 1.429 . S
C1267 C215 1.410 . S
C1282 C492 1.414 1_556 S
C1332 C566 1.374 . S
C1317 C177 1.426 . S
C1367 C196 1.381 . S
C1382 C408 1.380 1_556 S
C1432 C409 1.482 . S
C1417 C220 1.462 . S
C1482 C493 1.506 . S
C1467 C182 1.486 . S
C1517 C201 1.477 . S
C1532 C585 1.538 . S
C1567 C258 1.444 . S
C1582 C501 1.485 . S
C1617 C277 1.432 . S
C1632 C577 1.449 . S
C1682 C417 1.467 . S
C1667 C239 1.425 . S
C1732 C650 1.384 . S
C1717 C25 1.439 . S
C1767 C44 1.470 . S
C1782 C734 1.418 . S
C1817 C6 1.426 . S
C1832 C828 1.430 . S
C1867 C329 1.409 . S
C1882 C744 1.413 . S
C1917 C291 1.426 . S
C1932 C818 1.369 . S
C1967 C310 1.381 . S
C1982 C660 1.385 . S
C2017 C334 1.461 . S
C2032 C661 1.482 . S
C2067 C296 1.486 . S
C2082 C745 1.506 . S
C2132 C837 1.520 . S
C2117 C315 1.477 . S
C2167 C30 1.446 . S
C2182 C753 1.486 . S
C2232 C829 1.449 . S
C2217 C49 1.432 . S
C2267 C11 1.423 . S
C2282 C669 1.466 . S
C2332 C902 1.384 . S
C2317 C139 1.439 . S
C2367 C158 1.470 . S
C2382 C986 1.418 . S
C2432 C1080 1.429 . S
C2417 C120 1.426 . S
C2482 C996 1.413 . S
C2467 C101 1.409 . S
C2532 C1070 1.370 . S
C2517 C63 1.426 . S
C2567 C82 1.381 . S
C2582 C912 1.385 . S
C2617 C106 1.463 . S
C2632 C913 1.483 . S
C2667 C68 1.486 . S
C2682 C997 1.506 . S
C2732 C1089 1.520 . S
C2717 C87 1.478 . S
C2767 C144 1.446 . S
C2782 C1005 1.486 . S
C2817 C163 1.432 . S
C2832 C1081 1.450 . S
C2867 C125 1.424 . S
C2882 C921 1.466 . S
C2917 C287 1.653 . S
C2932 C405 1.531 . S
C2982 C489 1.596 . S
C2967 C306 1.738 . S
C3017 C325 1.665 . S
C3032 C582 1.467 . S
C3067 C116 1.699 . S
C3082 C498 1.492 . S
C3117 C135 1.687 . S
C3132 C573 1.551 . S
C3182 C414 1.431 . S
C3167 C154 1.614 . S
C3217 C59 1.653 . S
C3232 C657 1.531 . S
C3267 C78 1.738 . S
C3282 C741 1.596 . S
C3317 C97 1.665 . S
C3332 C834 1.469 . S
C3367 C230 1.699 . S
C3382 C750 1.490 . S
C3432 C825 1.551 . S
C3417 C249 1.686 . S
C3467 C268 1.614 . S
C3482 C666 1.430 . S
C3517 C173 1.654 . S
C3532 C909 1.532 . S
C3567 C192 1.738 . S
C3582 C993 1.595 . S
C3632 C1086 1.469 . S
C3617 C211 1.665 . S
C3667 C2 1.699 . S
C3682 C1002 1.490 . S
C3717 C21 1.687 . S
C3732 C1077 1.551 . S
C3767 C40 1.614 . S
C3782 C918 1.431 . S
