# Generated by pormake.
# Topology pyr, (3,6)-cn, num edge types: 1
# Building blocks:
#     Node 0, Type 0, BuildingBlock: BETDAH_clean_linker_0, # of connection points: 3
#     Node 1, Type 0, BuildingBlock: BETDAH_clean_linker_0, # of connection points: 3
#     Node 2, Type 0, BuildingBlock: BETDAH_clean_linker_0, # of connection points: 3
#     Node 3, Type 0, BuildingBlock: BETDAH_clean_linker_0, # of connection points: 3
#     Node 4, Type 0, BuildingBlock: BETDAH_clean_linker_0, # of connection points: 3
#     Node 5, Type 0, BuildingBlock: BETDAH_clean_linker_0, # of connection points: 3
#     Node 6, Type 0, BuildingBlock: BETDAH_clean_linker_0, # of connection points: 3
#     Node 7, Type 0, BuildingBlock: BETDAH_clean_linker_0, # of connection points: 3
#     Node 8, Type 1, BuildingBlock: BETDAH_clean_sbu_0, # of connection points: 6
#     Node 9, Type 1, BuildingBlock: BETDAH_clean_sbu_0, # of connection points: 6
#     Node 10, Type 1, BuildingBlock: BETDAH_clean_sbu_0, # of connection points: 6
#     Node 11, Type 1, BuildingBlock: BETDAH_clean_sbu_0, # of connection points: 6
#     Edge 12, Type (0, 1), BuildingBlock: AJUNOK_clean_linker_0, # of connection points: 2
#     Edge 13, Type (0, 1), BuildingBlock: AJUNOK_clean_linker_0, # of connection points: 2
#     Edge 14, Type (0, 1), BuildingBlock: AJUNOK_clean_linker_0, # of connection points: 2
#     Edge 15, Type (0, 1), BuildingBlock: AJUNOK_clean_linker_0, # of connection points: 2
#     Edge 16, Type (0, 1), BuildingBlock: AJUNOK_clean_linker_0, # of connection points: 2
#     Edge 17, Type (0, 1), BuildingBlock: AJUNOK_clean_linker_0, # of connection points: 2
#     Edge 18, Type (0, 1), BuildingBlock: AJUNOK_clean_linker_0, # of connection points: 2
#     Edge 19, Type (0, 1), BuildingBlock: AJUNOK_clean_linker_0, # of connection points: 2
#     Edge 20, Type (0, 1), BuildingBlock: AJUNOK_clean_linker_0, # of connection points: 2
#     Edge 21, Type (0, 1), BuildingBlock: AJUNOK_clean_linker_0, # of connection points: 2
#     Edge 22, Type (0, 1), BuildingBlock: AJUNOK_clean_linker_0, # of connection points: 2
#     Edge 23, Type (0, 1), BuildingBlock: AJUNOK_clean_linker_0, # of connection points: 2
#     Edge 24, Type (0, 1), BuildingBlock: AJUNOK_clean_linker_0, # of connection points: 2
#     Edge 25, Type (0, 1), BuildingBlock: AJUNOK_clean_linker_0, # of connection points: 2
#     Edge 26, Type (0, 1), BuildingBlock: AJUNOK_clean_linker_0, # of connection points: 2
#     Edge 27, Type (0, 1), BuildingBlock: AJUNOK_clean_linker_0, # of connection points: 2
#     Edge 28, Type (0, 1), BuildingBlock: AJUNOK_clean_linker_0, # of connection points: 2
#     Edge 29, Type (0, 1), BuildingBlock: AJUNOK_clean_linker_0, # of connection points: 2
#     Edge 30, Type (0, 1), BuildingBlock: AJUNOK_clean_linker_0, # of connection points: 2
#     Edge 31, Type (0, 1), BuildingBlock: AJUNOK_clean_linker_0, # of connection points: 2
#     Edge 32, Type (0, 1), BuildingBlock: AJUNOK_clean_linker_0, # of connection points: 2
#     Edge 33, Type (0, 1), BuildingBlock: AJUNOK_clean_linker_0, # of connection points: 2
#     Edge 34, Type (0, 1), BuildingBlock: AJUNOK_clean_linker_0, # of connection points: 2
#     Edge 35, Type (0, 1), BuildingBlock: AJUNOK_clean_linker_0, # of connection points: 2
# Relax obj value: 0.211
# Max RMSD: 0.195
# Mean RMSD: 0.143
data_MOF--net-pyr--node1-BETDAH_clean_sbu_0--node2-BETDAH_clean_linker_0--edge1-AJUNOK_clean_linker_0
_symmetry_space_group_name_H-M    P1
_symmetry_Int_Tables_number       1
_symmetry_cell_setting            triclinic
loop_
_symmetry_equiv_pos_as_xyz
'x, y, z'
_cell_length_a     27.695303
_cell_length_b     30.183165
_cell_length_c     27.578482
_cell_angle_alpha  91.976964
_cell_angle_beta   89.476027
_cell_angle_gamma 110.02874
loop_
_atom_site_label
_atom_site_type_symbol
_atom_site_fract_x
_atom_site_fract_y
_atom_site_fract_z
_atom_type_partial_charge
H0 H 0.42597 0.28322 0.32292 0.0
H1 H 0.49023 0.36403 0.19761 0.0
H2 H 0.38096 0.40028 0.28789 0.0
C3 C 0.43139 0.31369 0.30096 0.0
C4 C 0.39986 0.34074 0.30928 0.0
C5 C 0.46354 0.32088 0.26025 0.0
C6 C 0.46785 0.35929 0.23067 0.0
C7 C 0.43848 0.38846 0.24058 0.0
C8 C 0.40564 0.37964 0.28098 0.0
N9 N 0.43711 0.42214 0.20626 0.0
C10 C 0.39421 0.43588 0.20154 0.0
H11 H 0.34005 0.90413 0.76115 0.0
H12 H 0.19927 0.92245 0.71955 0.0
H13 H 0.29189 0.88293 0.61184 0.0
C14 C 0.31232 0.90332 0.73331 0.0
C15 C 0.32192 0.89359 0.68491 0.0
C16 C 0.26806 0.91327 0.74618 0.0
C17 C 0.23288 0.91338 0.71007 0.0
C18 C 0.24121 0.90155 0.66162 0.0
C19 C 0.28518 0.89091 0.64939 0.0
N20 N 0.2076 0.90328 0.62418 0.0
C21 C 0.19017 0.94099 0.62241 0.0
H22 H 0.73703 0.38022 1.01193 0.0
H23 H 0.73478 0.48884 0.91363 0.0
H24 H 0.60696 0.35858 0.91911 0.0
C25 C 0.71878 0.39236 0.98316 0.0
C26 C 0.66972 0.36286 0.96686 0.0
C27 C 0.74321 0.43834 0.96514 0.0
C28 C 0.71726 0.45417 0.92825 0.0
C29 C 0.6678 0.42518 0.91124 0.0
C30 C 0.64504 0.38031 0.9314 0.0
N31 N 0.63605 0.43966 0.87826 0.0
C32 C 0.64609 0.47334 0.84159 0.0
H33 H 0.81299 0.80806 0.50935 0.0
H34 H 0.94518 0.82743 0.41916 0.0
H35 H 0.82447 0.69158 0.42032 0.0
C36 C 0.83343 0.79422 0.4825 0.0
C37 C 0.81233 0.74629 0.46719 0.0
C38 C 0.88148 0.82395 0.46622 0.0
C39 C 0.90721 0.80561 0.43069 0.0
C40 C 0.88661 0.75841 0.4122 0.0
C41 C 0.83881 0.72868 0.43099 0.0
N42 N 0.92108 0.74025 0.38533 0.0
C43 C 0.91461 0.71347 0.3413 0.0
H44 H 0.74613 0.799 0.90909 0.0
H45 H 0.62741 0.75643 1.01694 0.0
H46 H 0.6341 0.86708 0.91937 0.0
C47 C 0.71027 0.80017 0.92431 0.0
C48 C 0.69119 0.83456 0.90895 0.0
C49 C 0.68782 0.77182 0.96327 0.0
C50 C 0.64391 0.77678 0.98552 0.0
C51 C 0.62363 0.8106 0.96939 0.0
C52 C 0.64748 0.83926 0.93073 0.0
N53 N 0.5825 0.81839 0.99524 0.0
C54 C 0.57525 0.86184 0.99571 0.0
H55 H 0.8199 0.21554 0.47378 0.0
H56 H 0.89775 0.30026 0.59689 0.0
H57 H 0.82042 0.3573 0.49396 0.0
C58 C 0.83066 0.2484 0.49507 0.0
C59 C 0.81622 0.28569 0.47949 0.0
C60 C 0.85973 0.2533 0.53728 0.0
C61 C 0.87483 0.29606 0.56428 0.0
C62 C 0.86016 0.33346 0.54954 0.0
C63 C 0.83124 0.32838 0.5065 0.0
N64 N 0.87346 0.37525 0.57915 0.0
C65 C 0.84235 0.40265 0.57986 0.0
H66 H 0.34293 0.83967 0.20296 0.0
H67 H 0.34427 0.71971 0.28473 0.0
H68 H 0.47292 0.84942 0.29125 0.0
C69 C 0.36139 0.82337 0.22768 0.0
C70 C 0.41103 0.85029 0.24474 0.0
C71 C 0.33662 0.77544 0.24018 0.0
C72 C 0.36127 0.75633 0.27532 0.0
C73 C 0.4101 0.78349 0.29528 0.0
C74 C 0.43437 0.82966 0.27854 0.0
N75 N 0.4416 0.76333 0.32234 0.0
C76 C 0.4324 0.7362 0.36459 0.0
H77 H 0.25104 0.40951 0.69233 0.0
H78 H 0.24342 0.51186 0.80294 0.0
H79 H 0.12695 0.37343 0.79466 0.0
C80 C 0.2312 0.41914 0.72274 0.0
C81 C 0.18561 0.38569 0.73978 0.0
C82 C 0.25247 0.46481 0.74443 0.0
C83 C 0.22765 0.47707 0.78581 0.0
C84 C 0.18196 0.44368 0.80431 0.0
C85 C 0.16207 0.39859 0.78087 0.0
N86 N 0.15392 0.45149 0.84622 0.0
C87 C 0.15688 0.49146 0.87581 0.0
Ho88 Ho 0.05273 0.12469 0.55205 0.0
Ho89 Ho 1.00982 0.08833 0.65014 0.0
C90 C 0.09061 0.19645 0.6435 0.0
C91 C 0.07259 0.15733 0.46631 0.0
C92 C 0.11648 0.19528 0.44758 0.0
C93 C 0.1152 0.21025 0.40037 0.0
C94 C 0.15951 0.2418 0.38023 0.0
C95 C 0.20562 0.25798 0.40695 0.0
C96 C 0.20562 0.24595 0.4556 0.0
C97 C 0.16115 0.21475 0.47588 0.0
C98 C 0.11485 0.09284 0.60539 0.0
C99 C 0.9759 1.01484 0.55895 0.0
C100 C 0.98565 0.06138 0.73721 0.0
C101 C 0.93809 1.02989 0.7587 0.0
C102 C 0.91364 0.98368 0.74014 0.0
C103 C 0.86785 0.95491 0.76068 0.0
C104 C 0.84554 0.97215 0.79958 0.0
C105 C 0.86928 1.01886 0.81696 0.0
C106 C 0.91526 1.04737 0.79684 0.0
C107 C 0.94713 0.11676 0.59473 0.0
O108 O 0.08377 0.19273 0.59595 0.0
O109 O 0.0723 0.15868 0.67052 0.0
O110 O 0.08293 0.1206 0.48035 0.0
O111 O 0.04378 0.17066 0.49712 0.0
O112 O 0.13132 0.12805 0.57666 0.0
O113 O 0.06685 0.07566 0.6021 0.0
O114 O 0.98157 1.01945 0.60679 0.0
O115 O 0.99393 1.05227 0.53128 0.0
O116 O 0.98254 0.10049 0.72107 0.0
O117 O 1.01087 1.04207 0.70794 0.0
O118 O 0.93076 0.08245 0.62435 0.0
O119 O 0.99477 0.136 0.59955 0.0
H120 H 0.08071 0.19601 0.37845 0.0
H121 H 0.15866 0.25132 0.3428 0.0
H122 H 0.24075 0.25805 0.47679 0.0
H123 H 0.16233 0.20395 0.51277 0.0
H124 H 0.9301 0.96954 0.71023 0.0
H125 H 0.851 0.91873 0.74727 0.0
H126 H 0.85277 1.03301 0.84685 0.0
H127 H 0.93312 0.08314 0.81116 0.0
Ho128 Ho 0.59353 0.11783 0.12163 0.0
Ho129 Ho 0.48984 0.09605 0.09192 0.0
C130 C 0.52276 0.16679 0.17893 0.0
C131 C 0.68674 0.15708 0.15327 0.0
C132 C 0.70858 0.18519 0.19764 0.0
C133 C 0.70386 0.22961 0.20771 0.0
C134 C 0.71861 0.25242 0.25301 0.0
C135 C 0.73783 0.23085 0.28863 0.0
C136 C 0.74487 0.18775 0.27774 0.0
C137 C 0.73063 0.16524 0.23257 0.0
C138 C 0.5299 1.03471 0.15874 0.0
C139 C 0.56068 1.04451 1.036 0.0
C140 C 0.39422 0.05818 0.06588 0.0
C141 C 0.36562 1.03745 1.02141 0.0
C142 C 0.31862 1.00023 1.02453 0.0
C143 C 0.29189 0.9788 0.98238 0.0
C144 C 0.31187 0.99459 0.93668 0.0
C145 C 0.35851 1.03244 0.93376 0.0
C146 C 0.38536 0.05356 0.97579 0.0
C147 C 0.55389 0.17836 1.05344 0.0
O148 O 0.56942 0.17204 0.1638 0.0
O149 O 0.48396 0.13016 0.16339 0.0
O150 O 0.65905 0.11322 0.16021 0.0
O151 O 0.66582 0.17627 0.12174 0.0
O152 O 0.57557 1.04251 0.14176 0.0
O153 O 0.51966 0.07278 0.15691 0.0
O154 O 0.5138 1.04301 1.04741 0.0
O155 O 0.60077 0.0789 1.05354 0.0
O156 O 0.41959 0.10339 0.06619 0.0
O157 O 0.42072 1.0346 0.08447 0.0
O158 O 0.508 0.17109 0.06959 0.0
O159 O 0.56368 0.14024 1.05622 0.0
H160 H 0.6875 0.24609 0.18124 0.0
H161 H 0.71338 0.28591 0.2608 0.0
H162 H 0.76046 0.17101 0.30469 0.0
H163 H 0.73511 0.13131 0.22555 0.0
H164 H 0.30298 0.98734 0.05955 0.0
H165 H 0.256 0.94964 0.9854 0.0
H166 H 0.37504 1.0447 0.89884 0.0
H167 H 0.42186 0.08196 0.97263 0.0
Ho168 Ho 0.52106 0.56126 0.57729 0.0
Ho169 Ho 0.54118 0.64726 0.64046 0.0
C170 C 0.58002 0.56666 0.68188 0.0
C171 C 0.53152 0.49116 0.52855 0.0
C172 C 0.57756 0.47753 0.52805 0.0
C173 C 0.62651 0.51274 0.52812 0.0
C174 C 0.67031 0.50131 0.53603 0.0
C175 C 0.66599 0.45466 0.54467 0.0
C176 C 0.61728 0.41915 0.54319 0.0
C177 C 0.57327 0.43057 0.535 0.0
C178 C 0.43823 0.56068 0.63223 0.0
C179 C 0.49262 0.64607 0.53119 0.0
C180 C 0.52816 0.70923 0.70063 0.0
C181 C 0.52738 0.75677 0.69487 0.0
C182 C 0.51257 0.7798 0.73403 0.0
C183 C 0.49588 0.8175 0.72576 0.0
C184 C 0.49339 0.83179 0.67819 0.0
C185 C 0.51414 0.81239 0.63995 0.0
C186 C 0.53131 0.77498 0.6483 0.0
C187 C 0.62501 0.66464 0.5808 0.0
O188 O 0.57059 0.54742 0.63732 0.0
O189 O 0.56854 0.6048 0.69324 0.0
O190 O 0.50762 0.48629 0.57013 0.0
O191 O 0.53693 0.53151 0.50918 0.0
O192 O 0.43611 0.5466 0.58707 0.0
O193 O 0.48486 0.57456 0.64583 0.0
O194 O 0.49985 0.66555 0.57585 0.0
O195 O 0.50268 0.6068 0.52176 0.0
O196 O 0.57254 0.70357 0.69422 0.0
O197 O 0.49025 0.67631 0.67853 0.0
O198 O 0.61932 0.69329 0.61444 0.0
O199 O 0.58582 0.62742 0.58098 0.0
H200 H 0.63094 0.5495 0.52401 0.0
H201 H 0.70744 0.52925 0.53723 0.0
H202 H 0.61323 0.38276 0.54911 0.0
H203 H 0.53585 0.40311 0.53584 0.0
H204 H 0.5094 0.76599 0.77013 0.0
H205 H 0.4795 0.83181 0.75565 0.0
H206 H 0.51267 0.82327 0.60316 0.0
H207 H 0.54304 0.75753 0.61776 0.0
Ho208 Ho 0.03523 0.56481 0.13502 0.0
Ho209 Ho 0.03712 0.65139 0.08019 0.0
C210 C 0.13715 0.66341 0.14477 0.0
C211 C 0.0601 0.49853 0.17344 0.0
C212 C 0.10922 0.48996 0.17842 0.0
C213 C 0.14613 0.50127 0.1413 0.0
C214 C 0.19235 0.49272 0.14633 0.0
C215 C 0.20298 0.47321 0.18882 0.0
C216 C 0.16655 0.46324 0.2265 0.0
C217 C 0.12001 0.47129 0.22119 0.0
C218 C 0.97933 0.61473 0.17851 0.0
C219 C 0.94105 0.55189 0.06248 0.0
C220 C 1.00902 0.72115 0.05727 0.0
C221 C 0.95752 0.72395 1.04843 0.0
C222 C 0.91803 0.70958 0.08314 0.0
C223 C 0.86865 0.70963 0.07263 0.0
C224 C 0.85761 0.72317 1.02699 0.0
C225 C 0.89723 0.7379 0.99259 0.0
C226 C 0.94662 0.73834 1.00324 0.0
C227 C 0.08332 0.60131 1.02187 0.0
O228 O 0.11514 0.61786 0.15396 0.0
O229 O 0.11438 0.68542 0.11682 0.0
O230 O 0.05614 0.53466 0.19842 0.0
O231 O 0.04179 0.49549 0.12946 0.0
O232 O 0.96608 0.56903 0.17702 0.0
O233 O 1.0224 0.63118 0.1572 0.0
O234 O 0.95697 0.59866 0.06389 0.0
O235 O 0.96864 0.52952 0.0834 0.0
O236 O 0.02415 0.69575 1.02536 0.0
O237 O 1.02 0.7141 0.10174 0.0
O238 O 0.07995 0.64183 1.01188 0.0
O239 O 0.06438 0.59141 0.06396 0.0
H240 H 0.13928 0.51666 0.10832 0.0
H241 H 0.21956 0.50088 0.11667 0.0
H242 H 0.17414 0.44954 0.26027 0.0
H243 H 0.09249 0.46309 0.25061 0.0
H244 H 0.92502 0.69776 0.11819 0.0
H245 H 0.83887 0.69839 0.09985 0.0
H246 H 0.89016 0.74968 0.95755 0.0
H247 H 0.97628 0.74948 0.97588 0.0
C248 C 0.33818 0.34325 0.37591 0.0
C249 C 0.35136 0.31986 0.33574 0.0
C250 C 0.2906 0.32334 0.39914 0.0
C251 C 0.25481 0.28024 0.38191 0.0
H252 H 0.36477 0.37676 0.38942 0.0
H253 H 0.28156 0.34177 0.4304 0.0
S254 S 0.27119 0.20628 0.27723 0.0
N255 N 0.32467 0.25243 0.27901 0.0
N256 N 0.23621 0.21476 0.32298 0.0
C257 C 0.26774 0.25696 0.34163 0.0
C258 C 0.31578 0.27693 0.31837 0.0
C259 C 0.26584 0.97531 0.80672 0.0
C260 C 0.2631 0.92857 0.79678 0.0
C261 C 0.27792 0.9957 0.85342 0.0
C262 C 0.28704 0.96977 0.89155 0.0
H263 H 0.26299 0.99739 0.77748 0.0
H264 H 0.28323 1.03277 0.85911 0.0
S265 S 0.27715 0.84408 0.8852 0.0
N266 N 0.26449 0.85532 0.82946 0.0
N267 N 0.28726 0.89362 0.91738 0.0
C268 C 0.27977 0.92178 0.88294 0.0
C269 C 0.26774 0.90115 0.83542 0.0
C270 C 0.63968 0.54635 0.80289 0.0
C271 C 0.6364 0.49862 0.79923 0.0
C272 C 0.62273 0.56824 0.76476 0.0
C273 C 0.60159 0.54364 0.72084 0.0
H274 H 0.65408 0.5667 0.83606 0.0
H275 H 0.62552 0.60474 0.7702 0.0
S276 S 0.58161 0.41695 0.69424 0.0
N277 N 0.60855 0.42715 0.74857 0.0
N278 N 0.57765 0.46763 0.67765 0.0
C279 C 0.5987 0.49595 0.71684 0.0
C280 C 0.61567 0.47373 0.75569 0.0
C281 C 0.9711 0.71202 0.26998 0.0
C282 C 0.92597 0.68984 0.2967 0.0
C283 C 0.98703 0.68851 0.23082 0.0
C284 C 0.95884 0.64135 0.21657 0.0
H285 H 0.99529 0.74761 0.28031 0.0
H286 H 1.02271 0.70705 0.21262 0.0
S287 S 0.83594 0.56812 0.27269 0.0
N288 N 0.85219 0.61853 0.30444 0.0
N289 N 0.88139 0.5745 0.23155 0.0
C290 C 0.91267 0.61938 0.24214 0.0
C291 C 0.89651 0.64343 0.28193 0.0
C292 C 0.44879 0.23525 0.24396 0.0
C293 C 0.48268 0.28237 0.24371 0.0
C294 C 0.46328 0.19797 0.22559 0.0
C295 C 0.51228 0.20596 0.20579 0.0
H296 H 0.40977 0.22698 0.25685 0.0
H297 H 0.43504 0.16271 0.22544 0.0
S298 S 0.61666 0.32243 0.19842 0.0
N299 N 0.56844 0.33474 0.22413 0.0
N300 N 0.59575 0.26468 0.18849 0.0
C301 C 0.54735 0.25272 0.20659 0.0
C302 C 0.53245 0.29089 0.22551 0.0
C303 C 0.14466 0.99166 0.65656 0.0
C304 C 0.17651 0.98259 0.62075 0.0
C305 C 0.12826 1.03047 0.65344 0.0
C306 C 0.14379 0.0614 0.61478 0.0
H307 H 0.13099 0.96782 0.68614 0.0
H308 H 0.10142 1.03514 0.68022 0.0
S309 S 0.22982 0.05331 0.51355 0.0
N310 N 0.22525 1.00778 0.54713 0.0
N311 N 0.19477 0.08117 0.54113 0.0
C312 C 0.17795 0.05381 0.58016 0.0
C313 C 0.19418 1.01405 0.58317 0.0
C314 C 0.83271 0.44955 0.99884 0.0
C315 C 0.79475 0.46924 0.98716 0.0
C316 C 0.87914 0.47608 1.02299 0.0
C317 C 0.89077 0.52412 1.03677 0.0
H318 H 0.82652 0.41291 0.98929 0.0
H319 H 0.90633 0.45862 1.03071 0.0
S320 S 0.80434 0.593 1.01711 0.0
N321 N 0.77226 0.54025 0.99332 0.0
N322 N 0.85904 0.58998 1.03724 0.0
C323 C 0.85342 0.54448 1.02505 0.0
C324 C 0.8059 0.5173 1.0007 0.0
C325 C 0.71805 0.69159 0.47204 0.0
C326 C 0.76601 0.7155 0.49468 0.0
C327 C 0.67247 0.67154 0.49968 0.0
C328 C 0.67312 0.6751 0.55093 0.0
H329 H 0.71518 0.69074 0.43287 0.0
H330 H 0.63615 0.65593 0.48079 0.0
S331 S 0.78931 0.72817 0.62776 0.0
N332 N 0.8113 0.73606 0.57173 0.0
N333 N 0.72674 0.70054 0.62266 0.0
C334 C 0.72121 0.69636 0.5736 0.0
C335 C 0.76721 0.71586 0.54584 0.0
C336 C 0.3454 0.48814 0.18231 0.0
C337 C 0.34634 0.44509 0.199 0.0
C338 C 0.29895 0.49709 0.17945 0.0
C339 C 0.25193 0.46333 0.19344 0.0
H340 H 0.3807 0.51501 0.17129 0.0
H341 H 0.29992 0.53086 0.16649 0.0
S342 S 0.23479 0.34446 0.23901 0.0
N343 N 0.29714 0.36815 0.22915 0.0
N344 N 0.20989 0.38462 0.22398 0.0
C345 C 0.25281 0.4201 0.2104 0.0
C346 C 0.30004 0.41104 0.21304 0.0
C347 C 0.59074 0.30345 1.00441 0.0
C348 C 0.64215 0.31513 0.9889 0.0
C349 C 0.56352 0.25958 1.0248 0.0
C350 C 0.5856 0.22417 1.03038 0.0
H351 H 0.57128 0.32884 1.00138 0.0
H352 H 0.52434 0.25346 1.03633 0.0
S353 S 0.71885 0.23554 0.99483 0.0
N354 N 0.7141 0.28664 0.98057 0.0
N355 N 0.66266 0.2042 1.0178 0.0
C356 C 0.63691 0.23502 1.01479 0.0
C357 C 0.66511 0.28027 0.99453 0.0
C358 C 0.92698 0.91322 0.46236 0.0
C359 C 0.90621 0.87251 0.48997 0.0
C360 C 0.94854 0.95882 0.48463 0.0
C361 C 0.95091 0.96605 0.53568 0.0
H362 H 0.92594 0.90991 0.42313 0.0
H363 H 0.96375 0.98866 0.46144 0.0
S364 S 0.90499 0.8706 0.62471 0.0
N365 N 0.89196 0.84256 0.57141 0.0
N366 N 0.93154 0.92701 0.61289 0.0
C367 C 0.93089 0.92534 0.56357 0.0
C368 C 0.90891 0.87913 0.54093 0.0
C369 C 0.36752 0.84336 0.64679 0.0
C370 C 0.36994 0.88497 0.67255 0.0
C371 C 0.41026 0.82882 0.64452 0.0
C372 C 0.45654 0.85547 0.66787 0.0
H373 H 0.33142 0.82004 0.63168 0.0
H374 H 0.4056 0.79444 0.6282 0.0
S375 S 0.48535 0.97149 0.73151 0.0
N376 N 0.42454 0.9565 0.71487 0.0
N377 N 0.50457 0.92795 0.7118 0.0
C378 C 0.46084 0.8991 0.68989 0.0
C379 C 0.41754 0.91422 0.69181 0.0
C380 C 0.76756 0.90578 0.90334 0.0
C381 C 0.72503 0.87263 0.88004 0.0
C382 C 0.80521 0.93888 0.87692 0.0
C383 C 0.80159 0.94003 0.8262 0.0
H384 H 0.77266 0.90492 0.94219 0.0
H385 H 0.83852 0.96241 0.89625 0.0
S386 S 0.69454 0.86303 0.74898 0.0
N387 N 0.67901 0.84407 0.80446 0.0
N388 N 0.74982 0.90723 0.75404 0.0
C389 C 0.7579 0.90817 0.80264 0.0
C390 C 0.71945 0.87425 0.82981 0.0
C391 C 0.81094 0.30689 0.39362 0.0
C392 C 0.78786 0.27954 0.43334 0.0
C393 C 0.79195 0.29312 0.34641 0.0
C394 C 0.74954 0.25173 0.33801 0.0
H395 H 0.84606 0.33683 0.39859 0.0
H396 H 0.81268 0.3129 0.31614 0.0
S397 S 0.67051 0.17316 0.43071 0.0
N398 N 0.71652 0.21331 0.46202 0.0
N399 N 0.68106 0.18732 0.37329 0.0
C400 C 0.72356 0.2267 0.37785 0.0
C401 C 0.74267 0.2407 0.42564 0.0
C402 C 0.45626 0.67131 0.40167 0.0
C403 C 0.44102 0.71122 0.40771 0.0
C404 C 0.47172 0.65049 0.44144 0.0
C405 C 0.47345 0.66858 0.48981 0.0
H406 H 0.4575 0.65652 0.36552 0.0
H407 H 0.4835 0.62028 0.43378 0.0
S408 S 0.43576 0.77225 0.52566 0.0
N409 N 0.42771 0.76758 0.46621 0.0
N410 N 0.45624 0.7291 0.54049 0.0
C411 C 0.45737 0.70823 0.4963 0.0
C412 C 0.44147 0.72929 0.45561 0.0
C413 C 0.15113 0.5685 0.91009 0.0
C414 C 0.14318 0.52021 0.91479 0.0
C415 C 0.13286 0.59422 0.94549 0.0
C416 C 0.10564 0.57306 0.98735 0.0
H417 H 0.17062 0.58638 0.87836 0.0
H418 H 0.13949 0.63111 0.93948 0.0
S419 S 0.07334 0.44697 1.0159 0.0
N420 N 0.10568 0.45214 0.96453 0.0
N421 N 0.07122 0.49994 1.02986 0.0
C422 C 0.0979 0.52485 0.99239 0.0
C423 C 0.11658 0.49871 0.95649 0.0
C424 C 0.52623 0.91647 0.99432 0.0
C425 C 0.57327 0.90908 0.99803 0.0
C426 C 0.52329 0.96168 1.00221 0.0
C427 C 0.5673 1.00098 1.0145 0.0
H428 H 0.49122 0.88691 0.98713 0.0
H429 H 0.48567 0.96518 1.00132 0.0
S430 S 0.70071 0.99956 1.02269 0.0
N431 N 0.66529 0.94412 1.00996 0.0
N432 N 0.66041 1.02919 1.02508 0.0
C433 C 0.61518 0.99407 1.01496 0.0
C434 C 0.61795 0.94799 1.00685 0.0
C435 C 0.90397 0.19595 0.51806 0.0
C436 C 0.87639 0.21425 0.55139 0.0
C437 C 0.92368 0.16133 0.5315 0.0
C438 C 0.91591 0.1437 0.57834 0.0
H439 H 0.91201 0.20978 0.48199 0.0
H440 H 0.94637 0.14924 0.50556 0.0
S441 S 0.8421 0.17663 0.67728 0.0
N442 N 0.83888 0.20982 0.63186 0.0
N443 N 0.87624 0.14441 0.65719 0.0
C444 C 0.88606 0.15971 0.61116 0.0
C445 C 0.86634 0.19531 0.59767 0.0
C446 C 0.2471 0.7107 0.23921 0.0
C447 C 0.28651 0.74546 0.21455 0.0
C448 C 0.19979 0.68389 0.21636 0.0
C449 C 0.18872 0.69087 0.16784 0.0
H450 H 0.25229 0.70461 0.27694 0.0
H451 H 0.17101 0.6582 0.23742 0.0
S452 S 0.27992 0.77188 0.08402 0.0
N453 N 0.31203 0.78016 0.13561 0.0
N454 N 0.22286 0.73262 0.09484 0.0
C455 C 0.22785 0.72449 0.14238 0.0
C456 C 0.27651 0.75088 0.16503 0.0
C457 C 0.29752 0.5083 0.67139 0.0
C458 C 0.29974 0.49837 0.72078 0.0
C459 C 0.34224 0.53048 0.64425 0.0
C460 C 0.39181 0.5439 0.66487 0.0
H461 H 0.26075 0.49685 0.65286 0.0
H462 H 0.3379 0.53562 0.60607 0.0
S463 S 0.41949 0.52735 0.79324 0.0
N464 N 0.35612 0.50504 0.78955 0.0
N465 N 0.43999 0.54698 0.73892 0.0
C466 C 0.39465 0.5361 0.71483 0.0
C467 C 0.34882 0.51331 0.74258 0.0
C468 C 0.7404 0.76091 1.0315 0.0
C469 C 0.71808 0.74569 0.98553 0.0
C470 C 0.78353 0.75042 1.04639 0.0
C471 C 0.80583 0.72461 1.01565 0.0
H472 H 0.72747 0.78465 1.05419 0.0
H473 H 0.80186 0.76574 0.08048 0.0
S474 S 0.75513 0.6686 0.89618 0.0
N475 N 0.71633 0.69747 0.91283 0.0
N476 N 0.79739 0.67781 0.94062 0.0
C477 C 0.7807 0.70532 0.97176 0.0
C478 C 0.73672 0.71574 0.95681 0.0
C479 C 0.42111 0.93532 0.22199 0.0
C480 C 0.44089 0.89781 0.22332 0.0
C481 C 0.44943 0.97954 0.20167 0.0
C482 C 0.4986 0.98816 0.18103 0.0
H483 H 0.3836 0.93063 0.23727 0.0
H484 H 0.43256 1.00705 0.20203 0.0
S485 S 0.56563 0.90017 0.1707 0.0
N486 N 0.51169 0.87211 0.19913 0.0
N487 N 0.56389 0.95324 0.16107 0.0
C488 C 0.51793 0.95034 0.18117 0.0
C489 C 0.48952 0.90592 0.20216 0.0
C490 C 0.14225 0.29611 0.74125 0.0
C491 C 0.16247 0.33752 0.71446 0.0
C492 C 0.12033 0.25096 0.71832 0.0
C493 C 0.11725 0.24465 0.66727 0.0
H494 H 0.14362 0.29847 0.78052 0.0
H495 H 0.10514 0.22075 0.74104 0.0
S496 S 0.16342 0.34139 0.57973 0.0
N497 N 0.17645 0.36871 0.6334 0.0
N498 N 0.13692 0.28479 0.59071 0.0
C499 C 0.13762 0.28578 0.64002 0.0
C500 C 0.15971 0.33171 0.66337 0.0
C501 C 0.79942 0.44715 0.53489 0.0
C502 C 0.80163 0.42139 0.57559 0.0
C503 C 0.7555 0.45845 0.52546 0.0
C504 C 0.71245 0.44361 0.55616 0.0
H505 H 0.83102 0.45719 0.50938 0.0
H506 H 0.75457 0.47764 0.4932 0.0
S507 S 0.70134 0.37735 0.66889 0.0
N508 N 0.75903 0.38282 0.64772 0.0
N509 N 0.67623 0.40408 0.63024 0.0
C510 C 0.71507 0.41882 0.59768 0.0
C511 C 0.75987 0.40768 0.60736 0.0
loop_
_geom_bond_atom_site_label_1
_geom_bond_atom_site_label_2
_geom_bond_distance
_geom_bond_site_symmetry_2
_ccdc_geom_bond_type
H0 C3 0.929 . S
H1 C6 0.929 . S
H2 C8 0.930 . S
C3 H0 0.929 . S
C3 C4 1.398 . S
C3 C5 1.396 . S
C4 C3 1.398 . S
C4 C8 1.407 . S
C5 C3 1.396 . S
C5 C6 1.394 . S
C6 H1 0.929 . S
C6 C5 1.394 . S
C6 C7 1.382 . S
C7 C6 1.382 . S
C7 C8 1.392 . S
C7 N9 1.420 . S
C8 H2 0.930 . S
C8 C4 1.407 . S
C8 C7 1.392 . S
N9 C7 1.420 . S
N9 C10 1.244 . S
C10 N9 1.244 . S
H11 C14 0.929 . S
H12 C17 0.929 . S
H13 C19 0.930 . S
C14 H11 0.929 . S
C14 C15 1.398 . S
C14 C16 1.396 . S
C15 C14 1.398 . S
C15 C19 1.407 . S
C16 C14 1.396 . S
C16 C17 1.394 . S
C17 H12 0.929 . S
C17 C16 1.394 . S
C17 C18 1.382 . S
C18 C17 1.382 . S
C18 C19 1.392 . S
C18 N20 1.420 . S
C19 H13 0.930 . S
C19 C15 1.407 . S
C19 C18 1.392 . S
N20 C18 1.420 . S
N20 C21 1.244 . S
C21 N20 1.244 . S
H22 C25 0.929 . S
H23 C28 0.929 . S
H24 C30 0.930 . S
C25 H22 0.929 . S
C25 C26 1.398 . S
C25 C27 1.396 . S
C26 C25 1.398 . S
C26 C30 1.407 . S
C27 C25 1.396 . S
C27 C28 1.394 . S
C28 H23 0.929 . S
C28 C27 1.394 . S
C28 C29 1.382 . S
C29 C28 1.382 . S
C29 C30 1.392 . S
C29 N31 1.420 . S
C30 H24 0.930 . S
C30 C26 1.407 . S
C30 C29 1.392 . S
N31 C29 1.420 . S
N31 C32 1.244 . S
C32 N31 1.244 . S
H33 C36 0.929 . S
H34 C39 0.929 . S
H35 C41 0.930 . S
C36 H33 0.929 . S
C36 C37 1.398 . S
C36 C38 1.396 . S
C37 C36 1.398 . S
C37 C41 1.407 . S
C38 C36 1.396 . S
C38 C39 1.394 . S
C39 H34 0.929 . S
C39 C38 1.394 . S
C39 C40 1.382 . S
C40 C39 1.382 . S
C40 C41 1.392 . S
C40 N42 1.420 . S
C41 H35 0.930 . S
C41 C37 1.407 . S
C41 C40 1.392 . S
N42 C40 1.420 . S
N42 C43 1.244 . S
C43 N42 1.244 . S
H44 C47 0.929 . S
H45 C50 0.929 . S
H46 C52 0.930 . S
C47 H44 0.929 . S
C47 C48 1.398 . S
C47 C49 1.396 . S
C48 C47 1.398 . S
C48 C52 1.407 . S
C49 C47 1.396 . S
C49 C50 1.394 . S
C50 H45 0.929 . S
C50 C49 1.394 . S
C50 C51 1.382 . S
C51 C50 1.382 . S
C51 C52 1.392 . S
C51 N53 1.420 . S
C52 H46 0.930 . S
C52 C48 1.407 . S
C52 C51 1.392 . S
N53 C51 1.420 . S
N53 C54 1.244 . S
C54 N53 1.244 . S
H55 C58 0.929 . S
H56 C61 0.929 . S
H57 C63 0.930 . S
C58 H55 0.929 . S
C58 C59 1.398 . S
C58 C60 1.396 . S
C59 C58 1.398 . S
C59 C63 1.407 . S
C60 C58 1.396 . S
C60 C61 1.394 . S
C61 H56 0.929 . S
C61 C60 1.394 . S
C61 C62 1.382 . S
C62 C61 1.382 . S
C62 C63 1.392 . S
C62 N64 1.420 . S
C63 H57 0.930 . S
C63 C59 1.407 . S
C63 C62 1.392 . S
N64 C62 1.420 . S
N64 C65 1.244 . S
C65 N64 1.244 . S
H66 C69 0.929 . S
H67 C72 0.929 . S
H68 C74 0.930 . S
C69 H66 0.929 . S
C69 C70 1.398 . S
C69 C71 1.396 . S
C70 C69 1.398 . S
C70 C74 1.407 . S
C71 C69 1.396 . S
C71 C72 1.394 . S
C72 H67 0.929 . S
C72 C71 1.394 . S
C72 C73 1.382 . S
C73 C72 1.382 . S
C73 C74 1.392 . S
C73 N75 1.420 . S
C74 H68 0.930 . S
C74 C70 1.407 . S
C74 C73 1.392 . S
N75 C73 1.420 . S
N75 C76 1.244 . S
C76 N75 1.244 . S
H77 C80 0.929 . S
H78 C83 0.929 . S
H79 C85 0.930 . S
C80 H77 0.929 . S
C80 C81 1.398 . S
C80 C82 1.396 . S
C81 C80 1.398 . S
C81 C85 1.407 . S
C82 C80 1.396 . S
C82 C83 1.394 . S
C83 H78 0.929 . S
C83 C82 1.394 . S
C83 C84 1.382 . S
C84 C83 1.382 . S
C84 C85 1.392 . S
C84 N86 1.420 . S
C85 H79 0.930 . S
C85 C81 1.407 . S
C85 C84 1.392 . S
N86 C84 1.420 . S
N86 C87 1.244 . S
C87 N86 1.244 . S
Ho88 C91 2.811 . S
Ho88 O108 2.322 . S
Ho88 O110 2.378 . S
Ho88 O111 2.524 . S
Ho88 O112 2.381 . S
Ho88 O113 2.669 . S
Ho88 O115 2.346 1_445 S
Ho88 O119 2.305 1_455 S
Ho89 C100 2.811 1_545 S
Ho89 O109 2.346 1_655 S
Ho89 O113 2.305 1_655 S
Ho89 O114 2.322 1_545 S
Ho89 O116 2.378 1_545 S
Ho89 O117 2.524 1_545 S
Ho89 O118 2.381 . S
Ho89 O119 2.669 . S
C90 O108 1.259 . S
C90 O109 1.268 . S
C91 Ho88 2.811 . S
C91 C92 1.488 . S
C91 O110 1.215 . S
C91 O111 1.289 . S
C92 C91 1.488 . S
C92 C93 1.348 . S
C92 C97 1.413 . S
C93 C92 1.348 . S
C93 C94 1.442 . S
C93 H120 0.930 . S
C94 C93 1.442 . S
C94 C95 1.381 . S
C94 H121 0.931 . S
C95 C94 1.381 . S
C95 C96 1.321 . S
C96 C95 1.321 . S
C96 C97 1.403 . S
C96 H122 0.934 . S
C97 C92 1.413 . S
C97 C96 1.403 . S
C97 H123 0.930 . S
C98 O112 1.275 1_565 S
C98 O113 1.256 1_565 S
C99 O114 1.259 . S
C99 O115 1.268 . S
C100 Ho89 2.811 1_565 S
C100 C101 1.488 . S
C100 O116 1.215 . S
C100 O117 1.289 . S
C101 C100 1.488 . S
C101 C102 1.348 . S
C101 C106 1.413 . S
C102 C101 1.348 . S
C102 C103 1.442 . S
C102 H124 0.930 . S
C103 C102 1.442 . S
C103 C104 1.381 . S
C103 H125 0.931 . S
C104 C103 1.381 . S
C104 C105 1.321 . S
C105 C104 1.321 . S
C105 C106 1.403 . S
C105 H126 0.934 . S
C106 C101 1.413 . S
C106 C105 1.403 . S
C106 H127 0.930 . S
C107 O118 1.275 . S
C107 O119 1.256 . S
O108 Ho88 2.322 . S
O108 C90 1.259 . S
O109 Ho89 2.346 1_455 S
O109 C90 1.268 . S
O110 Ho88 2.378 . S
O110 C91 1.215 . S
O111 Ho88 2.524 . S
O111 C91 1.289 . S
O112 Ho88 2.381 . S
O112 C98 1.275 1_545 S
O113 Ho88 2.669 . S
O113 Ho89 2.305 1_455 S
O113 C98 1.256 1_545 S
O114 Ho89 2.322 1_565 S
O114 C99 1.259 . S
O115 Ho88 2.346 1_665 S
O115 C99 1.268 . S
O116 Ho89 2.378 1_565 S
O116 C100 1.215 . S
O117 Ho89 2.524 1_565 S
O117 C100 1.289 . S
O118 Ho89 2.381 . S
O118 C107 1.275 . S
O119 Ho88 2.305 1_655 S
O119 Ho89 2.669 . S
O119 C107 1.256 . S
H120 C93 0.930 . S
H121 C94 0.931 . S
H122 C96 0.934 . S
H123 C97 0.930 . S
H124 C102 0.930 . S
H125 C103 0.931 . S
H126 C105 0.934 . S
H127 C106 0.930 . S
Ho128 C131 2.811 . S
Ho128 O148 2.322 . S
Ho128 O150 2.378 . S
Ho128 O151 2.524 . S
Ho128 O152 2.381 1_545 S
Ho128 O153 2.669 1_545 S
Ho128 O155 2.346 1_545 S
Ho128 O159 2.305 . S
Ho129 C140 2.811 1_544 S
Ho129 O149 2.346 . S
Ho129 O153 2.305 1_545 S
Ho129 O154 2.322 1_554 S
Ho129 O156 2.378 1_554 S
Ho129 O157 2.524 1_544 S
Ho129 O158 2.381 1_554 S
Ho129 O159 2.669 . S
C130 O148 1.259 . S
C130 O149 1.268 . S
C131 Ho128 2.811 . S
C131 C132 1.488 . S
C131 O150 1.215 . S
C131 O151 1.289 . S
C132 C131 1.488 . S
C132 C133 1.348 . S
C132 C137 1.413 . S
C133 C132 1.348 . S
C133 C134 1.442 . S
C133 H160 0.930 . S
C134 C133 1.442 . S
C134 C135 1.381 . S
C134 H161 0.931 . S
C135 C134 1.381 . S
C135 C136 1.321 . S
C136 C135 1.321 . S
C136 C137 1.403 . S
C136 H162 0.934 . S
C137 C132 1.413 . S
C137 C136 1.403 . S
C137 H163 0.930 . S
C138 O152 1.275 . S
C138 O153 1.256 . S
C139 O154 1.253 1_564 S
C139 O155 1.282 . S
C140 Ho129 2.811 1_566 S
C140 C141 1.488 . S
C140 O156 1.215 1_565 S
C140 O157 1.289 . S
C141 C140 1.488 . S
C141 C142 1.348 . S
C141 C146 1.413 . S
C142 C141 1.348 . S
C142 C143 1.442 . S
C142 H164 0.930 . S
C143 C142 1.442 . S
C143 C144 1.381 . S
C143 H165 0.931 . S
C144 C143 1.381 . S
C144 C145 1.321 . S
C145 C144 1.321 . S
C145 C146 1.403 . S
C145 H166 0.934 . S
C146 C141 1.413 . S
C146 C145 1.403 . S
C146 H167 0.930 1_565 S
C147 O158 1.275 1_554 S
C147 O159 1.256 . S
O148 Ho128 2.322 . S
O148 C130 1.259 . S
O149 Ho129 2.346 . S
O149 C130 1.268 . S
O150 Ho128 2.378 . S
O150 C131 1.215 . S
O151 Ho128 2.524 . S
O151 C131 1.289 . S
O152 Ho128 2.381 1_565 S
O152 C138 1.275 . S
O153 Ho128 2.669 1_565 S
O153 Ho129 2.305 1_565 S
O153 C138 1.256 . S
O154 Ho129 2.322 1_556 S
O154 C139 1.253 1_546 S
O155 Ho128 2.346 1_565 S
O155 C139 1.282 . S
O156 Ho129 2.378 1_556 S
O156 C140 1.215 1_545 S
O157 Ho129 2.524 1_566 S
O157 C140 1.289 . S
O158 Ho129 2.381 1_556 S
O158 C147 1.275 1_556 S
O159 Ho128 2.305 . S
O159 Ho129 2.669 . S
O159 C147 1.256 . S
H160 C133 0.930 . S
H161 C134 0.931 . S
H162 C136 0.934 . S
H163 C137 0.930 . S
H164 C142 0.930 . S
H165 C143 0.931 . S
H166 C145 0.934 . S
H167 C146 0.930 1_545 S
Ho168 C171 2.811 . S
Ho168 O188 2.322 . S
Ho168 O190 2.378 . S
Ho168 O191 2.524 . S
Ho168 O192 2.381 . S
Ho168 O193 2.669 . S
Ho168 O195 2.346 . S
Ho168 O199 2.305 . S
Ho169 C180 2.811 . S
Ho169 O189 2.346 . S
Ho169 O193 2.305 . S
Ho169 O194 2.322 . S
Ho169 O196 2.378 . S
Ho169 O197 2.524 . S
Ho169 O198 2.381 . S
Ho169 O199 2.669 . S
C170 O188 1.259 . S
C170 O189 1.268 . S
C171 Ho168 2.811 . S
C171 C172 1.488 . S
C171 O190 1.215 . S
C171 O191 1.289 . S
C172 C171 1.488 . S
C172 C173 1.348 . S
C172 C177 1.413 . S
C173 C172 1.348 . S
C173 C174 1.442 . S
C173 H200 0.930 . S
C174 C173 1.442 . S
C174 C175 1.381 . S
C174 H201 0.931 . S
C175 C174 1.381 . S
C175 C176 1.321 . S
C176 C175 1.321 . S
C176 C177 1.403 . S
C176 H202 0.934 . S
C177 C172 1.413 . S
C177 C176 1.403 . S
C177 H203 0.930 . S
C178 O192 1.275 . S
C178 O193 1.256 . S
C179 O194 1.259 . S
C179 O195 1.268 . S
C180 Ho169 2.811 . S
C180 C181 1.488 . S
C180 O196 1.215 . S
C180 O197 1.289 . S
C181 C180 1.488 . S
C181 C182 1.348 . S
C181 C186 1.413 . S
C182 C181 1.348 . S
C182 C183 1.442 . S
C182 H204 0.930 . S
C183 C182 1.442 . S
C183 C184 1.381 . S
C183 H205 0.931 . S
C184 C183 1.381 . S
C184 C185 1.321 . S
C185 C184 1.321 . S
C185 C186 1.403 . S
C185 H206 0.934 . S
C186 C181 1.413 . S
C186 C185 1.403 . S
C186 H207 0.930 . S
C187 O198 1.275 . S
C187 O199 1.256 . S
O188 Ho168 2.322 . S
O188 C170 1.259 . S
O189 Ho169 2.346 . S
O189 C170 1.268 . S
O190 Ho168 2.378 . S
O190 C171 1.215 . S
O191 Ho168 2.524 . S
O191 C171 1.289 . S
O192 Ho168 2.381 . S
O192 C178 1.275 . S
O193 Ho168 2.669 . S
O193 Ho169 2.305 . S
O193 C178 1.256 . S
O194 Ho169 2.322 . S
O194 C179 1.259 . S
O195 Ho168 2.346 . S
O195 C179 1.268 . S
O196 Ho169 2.378 . S
O196 C180 1.215 . S
O197 Ho169 2.524 . S
O197 C180 1.289 . S
O198 Ho169 2.381 . S
O198 C187 1.275 . S
O199 Ho168 2.305 . S
O199 Ho169 2.669 . S
O199 C187 1.256 . S
H200 C173 0.930 . S
H201 C174 0.931 . S
H202 C176 0.934 . S
H203 C177 0.930 . S
H204 C182 0.930 . S
H205 C183 0.931 . S
H206 C185 0.934 . S
H207 C186 0.930 . S
Ho208 C211 2.811 . S
Ho208 O228 2.322 . S
Ho208 O230 2.378 . S
Ho208 O231 2.524 . S
Ho208 O232 2.381 1_455 S
Ho208 O233 2.669 1_455 S
Ho208 O235 2.346 1_455 S
Ho208 O239 2.305 1_554 S
Ho209 C220 2.811 1_455 S
Ho209 O229 2.346 1_556 S
Ho209 O233 2.305 1_456 S
Ho209 O234 2.322 1_455 S
Ho209 O236 2.378 1_455 S
Ho209 O237 2.524 1_455 S
Ho209 O238 2.381 . S
Ho209 O239 2.669 . S
C210 O228 1.259 . S
C210 O229 1.268 . S
C211 Ho208 2.811 . S
C211 C212 1.488 . S
C211 O230 1.215 . S
C211 O231 1.289 . S
C212 C211 1.488 . S
C212 C213 1.348 . S
C212 C217 1.413 . S
C213 C212 1.348 . S
C213 C214 1.442 . S
C213 H240 0.930 . S
C214 C213 1.442 . S
C214 C215 1.381 . S
C214 H241 0.931 . S
C215 C214 1.381 . S
C215 C216 1.321 . S
C216 C215 1.321 . S
C216 C217 1.403 . S
C216 H242 0.934 . S
C217 C212 1.413 . S
C217 C216 1.403 . S
C217 H243 0.930 . S
C218 O232 1.275 . S
C218 O233 1.256 . S
C219 O234 1.259 . S
C219 O235 1.268 1_556 S
C220 Ho209 2.811 1_655 S
C220 C221 1.488 . S
C220 O236 1.215 . S
C220 O237 1.289 . S
C221 C220 1.488 . S
C221 C222 1.348 . S
C221 C226 1.413 . S
C222 C221 1.348 . S
C222 C223 1.442 . S
C222 H244 0.930 . S
C223 C222 1.442 . S
C223 C224 1.381 . S
C223 H245 0.931 . S
C224 C223 1.381 . S
C224 C225 1.321 . S
C225 C224 1.321 . S
C225 C226 1.403 . S
C225 H246 0.934 . S
C226 C221 1.413 . S
C226 C225 1.403 . S
C226 H247 0.930 . S
C227 O238 1.275 . S
C227 O239 1.256 . S
O228 Ho208 2.322 . S
O228 C210 1.259 . S
O229 Ho209 2.346 1_554 S
O229 C210 1.268 . S
O230 Ho208 2.378 . S
O230 C211 1.215 . S
O231 Ho208 2.524 . S
O231 C211 1.289 . S
O232 Ho208 2.381 1_655 S
O232 C218 1.275 . S
O233 Ho208 2.669 1_655 S
O233 Ho209 2.305 1_654 S
O233 C218 1.256 . S
O234 Ho209 2.322 1_655 S
O234 C219 1.259 . S
O235 Ho208 2.346 1_655 S
O235 C219 1.268 1_554 S
O236 Ho209 2.378 1_655 S
O236 C220 1.215 . S
O237 Ho209 2.524 1_655 S
O237 C220 1.289 . S
O238 Ho209 2.381 . S
O238 C227 1.275 . S
O239 Ho208 2.305 1_556 S
O239 Ho209 2.669 . S
O239 C227 1.256 . S
H240 C213 0.930 . S
H241 C214 0.931 . S
H242 C216 0.934 . S
H243 C217 0.930 . S
H244 C222 0.930 . S
H245 C223 0.931 . S
H246 C225 0.934 . S
H247 C226 0.930 . S
C248 C249 1.369 . S
C248 C250 1.419 . S
C248 H252 0.930 . S
C249 C248 1.369 . S
C249 C258 1.429 . S
C250 C248 1.419 . S
C250 C251 1.363 . S
C250 H253 0.929 . S
C251 C250 1.363 . S
C251 C257 1.428 . S
H252 C248 0.930 . S
H253 C250 0.929 . S
S254 N255 1.613 . S
S254 N256 1.610 . S
N255 S254 1.613 . S
N255 C258 1.350 . S
N256 S254 1.610 . S
N256 C257 1.351 . S
C257 C251 1.428 . S
C257 N256 1.351 . S
C257 C258 1.434 . S
C258 C249 1.429 . S
C258 N255 1.350 . S
C258 C257 1.434 . S
C259 C260 1.369 . S
C259 C261 1.419 . S
C259 H263 0.930 . S
C260 C259 1.369 . S
C260 C269 1.429 . S
C261 C259 1.419 . S
C261 C262 1.363 . S
C261 H264 0.929 . S
C262 C261 1.363 . S
C262 C268 1.428 . S
H263 C259 0.930 . S
H264 C261 0.929 . S
S265 N266 1.613 . S
S265 N267 1.610 . S
N266 S265 1.613 . S
N266 C269 1.350 . S
N267 S265 1.610 . S
N267 C268 1.351 . S
C268 C262 1.428 . S
C268 N267 1.351 . S
C268 C269 1.434 . S
C269 C260 1.429 . S
C269 N266 1.350 . S
C269 C268 1.434 . S
C270 C271 1.369 . S
C270 C272 1.419 . S
C270 H274 0.930 . S
C271 C270 1.369 . S
C271 C280 1.429 . S
C272 C270 1.419 . S
C272 C273 1.363 . S
C272 H275 0.929 . S
C273 C272 1.363 . S
C273 C279 1.428 . S
H274 C270 0.930 . S
H275 C272 0.929 . S
S276 N277 1.613 . S
S276 N278 1.610 . S
N277 S276 1.613 . S
N277 C280 1.350 . S
N278 S276 1.610 . S
N278 C279 1.351 . S
C279 C273 1.428 . S
C279 N278 1.351 . S
C279 C280 1.434 . S
C280 C271 1.429 . S
C280 N277 1.350 . S
C280 C279 1.434 . S
C281 C282 1.369 . S
C281 C283 1.419 . S
C281 H285 0.930 . S
C282 C281 1.369 . S
C282 C291 1.429 . S
C283 C281 1.419 . S
C283 C284 1.363 . S
C283 H286 0.929 1_655 S
C284 C283 1.363 . S
C284 C290 1.428 . S
H285 C281 0.930 . S
H286 C283 0.929 1_455 S
S287 N288 1.613 . S
S287 N289 1.610 . S
N288 S287 1.613 . S
N288 C291 1.350 . S
N289 S287 1.610 . S
N289 C290 1.351 . S
C290 C284 1.428 . S
C290 N289 1.351 . S
C290 C291 1.434 . S
C291 C282 1.429 . S
C291 N288 1.350 . S
C291 C290 1.434 . S
C292 C293 1.369 . S
C292 C294 1.419 . S
C292 H296 0.930 . S
C293 C292 1.369 . S
C293 C302 1.429 . S
C294 C292 1.419 . S
C294 C295 1.363 . S
C294 H297 0.929 . S
C295 C294 1.363 . S
C295 C301 1.428 . S
H296 C292 0.930 . S
H297 C294 0.929 . S
S298 N299 1.613 . S
S298 N300 1.610 . S
N299 S298 1.613 . S
N299 C302 1.350 . S
N300 S298 1.610 . S
N300 C301 1.351 . S
C301 C295 1.428 . S
C301 N300 1.351 . S
C301 C302 1.434 . S
C302 C293 1.429 . S
C302 N299 1.350 . S
C302 C301 1.434 . S
C303 C304 1.369 . S
C303 C305 1.419 . S
C303 H307 0.930 . S
C304 C303 1.369 . S
C304 C313 1.429 . S
C305 C303 1.419 . S
C305 C306 1.363 . S
C305 H308 0.929 . S
C306 C305 1.363 . S
C306 C312 1.428 . S
H307 C303 0.930 . S
H308 C305 0.929 . S
S309 N310 1.613 . S
S309 N311 1.610 . S
N310 S309 1.613 . S
N310 C313 1.350 . S
N311 S309 1.610 . S
N311 C312 1.351 . S
C312 C306 1.428 . S
C312 N311 1.351 . S
C312 C313 1.434 . S
C313 C304 1.429 . S
C313 N310 1.350 . S
C313 C312 1.434 . S
C314 C315 1.369 . S
C314 C316 1.419 . S
C314 H318 0.930 . S
C315 C314 1.369 . S
C315 C324 1.429 . S
C316 C314 1.419 . S
C316 C317 1.363 . S
C316 H319 0.929 . S
C317 C316 1.363 . S
C317 C323 1.428 . S
H318 C314 0.930 . S
H319 C316 0.929 . S
S320 N321 1.613 . S
S320 N322 1.610 . S
N321 S320 1.613 . S
N321 C324 1.350 . S
N322 S320 1.610 . S
N322 C323 1.351 . S
C323 C317 1.428 . S
C323 N322 1.351 . S
C323 C324 1.434 . S
C324 C315 1.429 . S
C324 N321 1.350 . S
C324 C323 1.434 . S
C325 C326 1.369 . S
C325 C327 1.419 . S
C325 H329 0.930 . S
C326 C325 1.369 . S
C326 C335 1.429 . S
C327 C325 1.419 . S
C327 C328 1.363 . S
C327 H330 0.929 . S
C328 C327 1.363 . S
C328 C334 1.428 . S
H329 C325 0.930 . S
H330 C327 0.929 . S
S331 N332 1.613 . S
S331 N333 1.610 . S
N332 S331 1.613 . S
N332 C335 1.350 . S
N333 S331 1.610 . S
N333 C334 1.351 . S
C334 C328 1.428 . S
C334 N333 1.351 . S
C334 C335 1.434 . S
C335 C326 1.429 . S
C335 N332 1.350 . S
C335 C334 1.434 . S
C336 C337 1.369 . S
C336 C338 1.419 . S
C336 H340 0.930 . S
C337 C336 1.369 . S
C337 C346 1.429 . S
C338 C336 1.419 . S
C338 C339 1.363 . S
C338 H341 0.929 . S
C339 C338 1.363 . S
C339 C345 1.428 . S
H340 C336 0.930 . S
H341 C338 0.929 . S
S342 N343 1.613 . S
S342 N344 1.610 . S
N343 S342 1.613 . S
N343 C346 1.350 . S
N344 S342 1.610 . S
N344 C345 1.351 . S
C345 C339 1.428 . S
C345 N344 1.351 . S
C345 C346 1.434 . S
C346 C337 1.429 . S
C346 N343 1.350 . S
C346 C345 1.434 . S
C347 C348 1.369 . S
C347 C349 1.419 . S
C347 H351 0.930 . S
C348 C347 1.369 . S
C348 C357 1.429 . S
C349 C347 1.419 . S
C349 C350 1.363 . S
C349 H352 0.929 1_556 S
C350 C349 1.363 . S
C350 C356 1.428 . S
H351 C347 0.930 . S
H352 C349 0.929 1_554 S
S353 N354 1.613 . S
S353 N355 1.610 . S
N354 S353 1.613 . S
N354 C357 1.350 . S
N355 S353 1.610 . S
N355 C356 1.351 . S
C356 C350 1.428 . S
C356 N355 1.351 . S
C356 C357 1.434 . S
C357 C348 1.429 . S
C357 N354 1.350 . S
C357 C356 1.434 . S
C358 C359 1.369 . S
C358 C360 1.419 . S
C358 H362 0.930 . S
C359 C358 1.369 . S
C359 C368 1.429 . S
C360 C358 1.419 . S
C360 C361 1.363 . S
C360 H363 0.929 . S
C361 C360 1.363 . S
C361 C367 1.428 . S
H362 C358 0.930 . S
H363 C360 0.929 . S
S364 N365 1.613 . S
S364 N366 1.610 . S
N365 S364 1.613 . S
N365 C368 1.350 . S
N366 S364 1.610 . S
N366 C367 1.351 . S
C367 C361 1.428 . S
C367 N366 1.351 . S
C367 C368 1.434 . S
C368 C359 1.429 . S
C368 N365 1.350 . S
C368 C367 1.434 . S
C369 C370 1.369 . S
C369 C371 1.419 . S
C369 H373 0.930 . S
C370 C369 1.369 . S
C370 C379 1.429 . S
C371 C369 1.419 . S
C371 C372 1.363 . S
C371 H374 0.929 . S
C372 C371 1.363 . S
C372 C378 1.428 . S
H373 C369 0.930 . S
H374 C371 0.929 . S
S375 N376 1.613 . S
S375 N377 1.610 . S
N376 S375 1.613 . S
N376 C379 1.350 . S
N377 S375 1.610 . S
N377 C378 1.351 . S
C378 C372 1.428 . S
C378 N377 1.351 . S
C378 C379 1.434 . S
C379 C370 1.429 . S
C379 N376 1.350 . S
C379 C378 1.434 . S
C380 C381 1.369 . S
C380 C382 1.419 . S
C380 H384 0.930 . S
C381 C380 1.369 . S
C381 C390 1.429 . S
C382 C380 1.419 . S
C382 C383 1.363 . S
C382 H385 0.929 . S
C383 C382 1.363 . S
C383 C389 1.428 . S
H384 C380 0.930 . S
H385 C382 0.929 . S
S386 N387 1.613 . S
S386 N388 1.610 . S
N387 S386 1.613 . S
N387 C390 1.350 . S
N388 S386 1.610 . S
N388 C389 1.351 . S
C389 C383 1.428 . S
C389 N388 1.351 . S
C389 C390 1.434 . S
C390 C381 1.429 . S
C390 N387 1.350 . S
C390 C389 1.434 . S
C391 C392 1.369 . S
C391 C393 1.419 . S
C391 H395 0.930 . S
C392 C391 1.369 . S
C392 C401 1.429 . S
C393 C391 1.419 . S
C393 C394 1.363 . S
C393 H396 0.929 . S
C394 C393 1.363 . S
C394 C400 1.428 . S
H395 C391 0.930 . S
H396 C393 0.929 . S
S397 N398 1.613 . S
S397 N399 1.610 . S
N398 S397 1.613 . S
N398 C401 1.350 . S
N399 S397 1.610 . S
N399 C400 1.351 . S
C400 C394 1.428 . S
C400 N399 1.351 . S
C400 C401 1.434 . S
C401 C392 1.429 . S
C401 N398 1.350 . S
C401 C400 1.434 . S
C402 C403 1.369 . S
C402 C404 1.419 . S
C402 H406 0.930 . S
C403 C402 1.369 . S
C403 C412 1.429 . S
C404 C402 1.419 . S
C404 C405 1.363 . S
C404 H407 0.929 . S
C405 C404 1.363 . S
C405 C411 1.428 . S
H406 C402 0.930 . S
H407 C404 0.929 . S
S408 N409 1.613 . S
S408 N410 1.610 . S
N409 S408 1.613 . S
N409 C412 1.350 . S
N410 S408 1.610 . S
N410 C411 1.351 . S
C411 C405 1.428 . S
C411 N410 1.351 . S
C411 C412 1.434 . S
C412 C403 1.429 . S
C412 N409 1.350 . S
C412 C411 1.434 . S
C413 C414 1.369 . S
C413 C415 1.419 . S
C413 H417 0.930 . S
C414 C413 1.369 . S
C414 C423 1.429 . S
C415 C413 1.419 . S
C415 C416 1.363 . S
C415 H418 0.929 . S
C416 C415 1.363 . S
C416 C422 1.428 . S
H417 C413 0.930 . S
H418 C415 0.929 . S
S419 N420 1.613 . S
S419 N421 1.610 . S
N420 S419 1.613 . S
N420 C423 1.350 . S
N421 S419 1.610 . S
N421 C422 1.351 . S
C422 C416 1.428 . S
C422 N421 1.351 . S
C422 C423 1.434 . S
C423 C414 1.429 . S
C423 N420 1.350 . S
C423 C422 1.434 . S
C424 C425 1.369 . S
C424 C426 1.419 . S
C424 H428 0.930 . S
C425 C424 1.369 . S
C425 C434 1.429 . S
C426 C424 1.419 . S
C426 C427 1.363 . S
C426 H429 0.929 . S
C427 C426 1.363 . S
C427 C433 1.428 . S
H428 C424 0.930 . S
H429 C426 0.929 . S
S430 N431 1.613 1_554 S
S430 N432 1.610 . S
N431 S430 1.613 1_556 S
N431 C434 1.350 . S
N432 S430 1.610 . S
N432 C433 1.351 1_554 S
C433 C427 1.428 . S
C433 N432 1.351 1_556 S
C433 C434 1.434 . S
C434 C425 1.429 . S
C434 N431 1.350 . S
C434 C433 1.434 . S
C435 C436 1.369 . S
C435 C437 1.419 . S
C435 H439 0.930 . S
C436 C435 1.369 . S
C436 C445 1.429 . S
C437 C435 1.419 . S
C437 C438 1.363 . S
C437 H440 0.929 . S
C438 C437 1.363 . S
C438 C444 1.428 . S
H439 C435 0.930 . S
H440 C437 0.929 . S
S441 N442 1.613 . S
S441 N443 1.610 . S
N442 S441 1.613 . S
N442 C445 1.350 . S
N443 S441 1.610 . S
N443 C444 1.351 . S
C444 C438 1.428 . S
C444 N443 1.351 . S
C444 C445 1.434 . S
C445 C436 1.429 . S
C445 N442 1.350 . S
C445 C444 1.434 . S
C446 C447 1.369 . S
C446 C448 1.419 . S
C446 H450 0.930 . S
C447 C446 1.369 . S
C447 C456 1.429 . S
C448 C446 1.419 . S
C448 C449 1.363 . S
C448 H451 0.929 . S
C449 C448 1.363 . S
C449 C455 1.428 . S
H450 C446 0.930 . S
H451 C448 0.929 . S
S452 N453 1.613 . S
S452 N454 1.610 . S
N453 S452 1.613 . S
N453 C456 1.350 . S
N454 S452 1.610 . S
N454 C455 1.351 . S
C455 C449 1.428 . S
C455 N454 1.351 . S
C455 C456 1.434 . S
C456 C447 1.429 . S
C456 N453 1.350 . S
C456 C455 1.434 . S
C457 C458 1.369 . S
C457 C459 1.419 . S
C457 H461 0.930 . S
C458 C457 1.369 . S
C458 C467 1.429 . S
C459 C457 1.419 . S
C459 C460 1.363 . S
C459 H462 0.929 . S
C460 C459 1.363 . S
C460 C466 1.428 . S
H461 C457 0.930 . S
H462 C459 0.929 . S
S463 N464 1.613 . S
S463 N465 1.610 . S
N464 S463 1.613 . S
N464 C467 1.350 . S
N465 S463 1.610 . S
N465 C466 1.351 . S
C466 C460 1.428 . S
C466 N465 1.351 . S
C466 C467 1.434 . S
C467 C458 1.429 . S
C467 N464 1.350 . S
C467 C466 1.434 . S
C468 C469 1.369 . S
C468 C470 1.419 . S
C468 H472 0.930 . S
C469 C468 1.369 . S
C469 C478 1.429 . S
C470 C468 1.419 . S
C470 C471 1.363 . S
C470 H473 0.929 . S
C471 C470 1.363 . S
C471 C477 1.428 . S
H472 C468 0.930 . S
H473 C470 0.929 . S
S474 N475 1.613 . S
S474 N476 1.610 . S
N475 S474 1.613 . S
N475 C478 1.350 . S
N476 S474 1.610 . S
N476 C477 1.351 . S
C477 C471 1.428 . S
C477 N476 1.351 . S
C477 C478 1.434 . S
C478 C469 1.429 . S
C478 N475 1.350 . S
C478 C477 1.434 . S
C479 C480 1.369 . S
C479 C481 1.419 . S
C479 H483 0.930 . S
C480 C479 1.369 . S
C480 C489 1.429 . S
C481 C479 1.419 . S
C481 C482 1.363 . S
C481 H484 0.929 . S
C482 C481 1.363 . S
C482 C488 1.428 . S
H483 C479 0.930 . S
H484 C481 0.929 . S
S485 N486 1.613 . S
S485 N487 1.610 . S
N486 S485 1.613 . S
N486 C489 1.350 . S
N487 S485 1.610 . S
N487 C488 1.351 . S
C488 C482 1.428 . S
C488 N487 1.351 . S
C488 C489 1.434 . S
C489 C480 1.429 . S
C489 N486 1.350 . S
C489 C488 1.434 . S
C490 C491 1.369 . S
C490 C492 1.419 . S
C490 H494 0.930 . S
C491 C490 1.369 . S
C491 C500 1.429 . S
C492 C490 1.419 . S
C492 C493 1.363 . S
C492 H495 0.929 . S
C493 C492 1.363 . S
C493 C499 1.428 . S
H494 C490 0.930 . S
H495 C492 0.929 . S
S496 N497 1.613 . S
S496 N498 1.610 . S
N497 S496 1.613 . S
N497 C500 1.350 . S
N498 S496 1.610 . S
N498 C499 1.351 . S
C499 C493 1.428 . S
C499 N498 1.351 . S
C499 C500 1.434 . S
C500 C491 1.429 . S
C500 N497 1.350 . S
C500 C499 1.434 . S
C501 C502 1.369 . S
C501 C503 1.419 . S
C501 H505 0.930 . S
C502 C501 1.369 . S
C502 C511 1.429 . S
C503 C501 1.419 . S
C503 C504 1.363 . S
C503 H506 0.929 . S
C504 C503 1.363 . S
C504 C510 1.428 . S
H505 C501 0.930 . S
H506 C503 0.929 . S
S507 N508 1.613 . S
S507 N509 1.610 . S
N508 S507 1.613 . S
N508 C511 1.350 . S
N509 S507 1.610 . S
N509 C510 1.351 . S
C510 C504 1.428 . S
C510 N509 1.351 . S
C510 C511 1.434 . S
C511 C502 1.429 . S
C511 N508 1.350 . S
C511 C510 1.434 . S
C249 C4 1.127 . S
C251 C95 1.158 . S
C260 C16 1.259 . S
C262 C144 1.288 . S
C273 C170 2.158 . S
C271 C32 2.199 . S
C282 C43 2.372 . S
C284 C218 2.324 . S
C295 C130 2.530 . S
C293 C5 2.365 . S
C306 C98 0.537 . S
C304 C21 0.584 . S
C317 C219 1.962 . S
C315 C27 2.016 . S
C328 C187 1.752 . S
C326 C37 1.743 . S
C337 C10 1.446 . S
C339 C215 1.490 . S
C350 C147 2.523 1_556 S
C348 C26 2.603 . S
C359 C38 2.143 . S
C361 C99 2.145 . S
C370 C15 1.311 . S
C372 C184 1.351 . S
C383 C104 1.237 . S
C381 C48 1.227 . S
C392 C59 1.185 . S
C394 C135 1.178 . S
C403 C76 2.506 . S
C405 C179 2.457 . S
C414 C87 2.235 . S
C416 C227 2.229 . S
C425 C54 1.907 . S
C427 C139 2.067 1_556 S
C438 C107 1.296 . S
C436 C60 1.329 . S
C449 C210 1.853 . S
C447 C71 1.891 . S
C460 C178 1.708 . S
C458 C82 1.771 . S
C469 C49 1.670 . S
C471 C224 1.806 . S
C482 C138 2.045 . S
C480 C70 2.123 . S
C493 C90 2.534 . S
C491 C81 2.543 . S
C502 C65 1.084 . S
C504 C175 1.107 . S
