# Generated by pormake.
# Topology tsx, (6,3)-cn, num edge types: 1
# Building blocks:
#     Node 0, Type 0, BuildingBlock: FUNLAD_clean_sbu_0, # of connection points: 6
#     Node 1, Type 0, BuildingBlock: FUNLAD_clean_sbu_0, # of connection points: 6
#     Node 2, Type 1, BuildingBlock: VETTIZ_charged_linker_0, # of connection points: 3
#     Node 3, Type 1, BuildingBlock: VETTIZ_charged_linker_0, # of connection points: 3
#     Node 4, Type 1, BuildingBlock: VETTIZ_charged_linker_0, # of connection points: 3
#     Node 5, Type 1, BuildingBlock: VETTIZ_charged_linker_0, # of connection points: 3
#     Edge 6, Type (0, 1), BuildingBlock: TEMPAE_clean_linker_10, # of connection points: 2
#     Edge 7, Type (0, 1), BuildingBlock: TEMPAE_clean_linker_10, # of connection points: 2
#     Edge 8, Type (0, 1), BuildingBlock: TEMPAE_clean_linker_10, # of connection points: 2
#     Edge 9, Type (0, 1), BuildingBlock: TEMPAE_clean_linker_10, # of connection points: 2
#     Edge 10, Type (0, 1), BuildingBlock: TEMPAE_clean_linker_10, # of connection points: 2
#     Edge 11, Type (0, 1), BuildingBlock: TEMPAE_clean_linker_10, # of connection points: 2
#     Edge 12, Type (0, 1), BuildingBlock: TEMPAE_clean_linker_10, # of connection points: 2
#     Edge 13, Type (0, 1), BuildingBlock: TEMPAE_clean_linker_10, # of connection points: 2
#     Edge 14, Type (0, 1), BuildingBlock: TEMPAE_clean_linker_10, # of connection points: 2
#     Edge 15, Type (0, 1), BuildingBlock: TEMPAE_clean_linker_10, # of connection points: 2
#     Edge 16, Type (0, 1), BuildingBlock: TEMPAE_clean_linker_10, # of connection points: 2
#     Edge 17, Type (0, 1), BuildingBlock: TEMPAE_clean_linker_10, # of connection points: 2
# Relax obj value: 0.169
# Max RMSD: 0.157
# Mean RMSD: 0.092
data_MOF--net-tsx--node1-FUNLAD_clean_sbu_0--node2-VETTIZ_charged_linker_0--edge1-TEMPAE_clean_linker_10
_symmetry_space_group_name_H-M    P1
_symmetry_Int_Tables_number       1
_symmetry_cell_setting            triclinic
loop_
_symmetry_equiv_pos_as_xyz
'x, y, z'
_cell_length_a     23.057296
_cell_length_b     25.475425
_cell_length_c     51.089109
_cell_angle_alpha  90.98059
_cell_angle_beta   91.977921
_cell_angle_gamma 90.099045
loop_
_atom_site_label
_atom_site_type_symbol
_atom_site_fract_x
_atom_site_fract_y
_atom_site_fract_z
_atom_type_partial_charge
C0 C 0.96086 0.94869 0.992 0.0
N1 N 0.03125 0.03812 0.05298 0.0
C2 C 0.97527 0.03816 0.0606 0.0
C3 C 0.96295 0.03608 0.08698 0.0
C4 C 0.00866 0.03498 0.10565 0.0
C5 C 0.06605 0.03769 0.09756 0.0
C6 C 0.07652 0.03882 0.0708 0.0
Zn7 Zn 0.04363 0.0308 0.01401 0.0
C8 C 0.12927 0.94987 0.00019 0.0
N9 N 0.05848 0.01157 0.93201 0.0
C10 C 0.01505 0.99359 0.91554 0.0
C11 C 0.1127 0.0202 0.92331 0.0
C12 C 0.12486 0.01128 0.89714 0.0
C13 C 0.0815 0.99119 0.87973 0.0
C14 C 0.02585 0.98236 0.88932 0.0
Zn15 Zn 0.04632 0.02083 0.97108 0.0
O16 O 0.97926 0.97371 0.01222 0.0
C17 C 0.95927 0.09946 0.98371 0.0
O18 O 0.98315 0.95804 0.97015 0.0
H19 H 0.14717 0.03329 0.93672 0.0
H20 H 0.9399 0.03796 0.04615 0.0
H21 H 0.97226 0.9868 0.92281 0.0
O22 O 0.97945 0.09007 0.00666 0.0
O23 O 0.97957 0.07482 0.96426 0.0
H24 H 0.12061 0.03865 0.06422 0.0
O25 O 0.10794 0.08497 0.97312 0.0
O26 O 0.10776 0.08868 0.01599 0.0
O27 O 0.11256 0.96596 0.97782 0.0
O28 O 0.10739 0.97026 0.02051 0.0
C29 C 0.12641 0.10577 -0.00534 0.0
H30 H 0.91821 0.03433 0.09274 0.0
H31 H 0.10217 0.03675 0.11168 0.0
H32 H 0.16801 0.02013 0.89078 0.0
H33 H 0.99106 0.96605 0.87695 0.0
C34 C 0.4232 0.44885 0.48676 0.0
N35 N 0.48828 0.52753 0.55273 0.0
C36 C 0.43197 0.53085 0.55969 0.0
C37 C 0.41783 0.52965 0.5859 0.0
C38 C 0.46183 0.52345 0.60526 0.0
C39 C 0.51975 0.52032 0.59754 0.0
C40 C 0.53209 0.52288 0.57102 0.0
Zn41 Zn 0.50388 0.52657 0.51386 0.0
C42 C 0.589 0.44914 0.49813 0.0
N43 N 0.52381 0.52343 0.43201 0.0
C44 C 0.47997 0.52151 0.41351 0.0
C45 C 0.5803 0.51868 0.42547 0.0
C46 C 0.59447 0.50909 0.3996 0.0
C47 C 0.55013 0.50529 0.38028 0.0
C48 C 0.49234 0.51281 0.38722 0.0
Zn49 Zn 0.50807 0.52694 0.47077 0.0
O50 O 0.44349 0.46536 0.50877 0.0
C51 C 0.42083 0.60188 0.4855 0.0
O52 O 0.44109 0.46877 0.46586 0.0
H53 H 0.6145 0.52065 0.44047 0.0
H54 H 0.3976 0.53376 0.54487 0.0
H55 H 0.43541 0.52519 0.41924 0.0
O56 O 0.4363 0.58355 0.50767 0.0
O57 O 0.44606 0.58584 0.46519 0.0
H58 H 0.57653 0.52017 0.56502 0.0
O59 O 0.57373 0.58634 0.4763 0.0
O60 O 0.56453 0.58766 0.51888 0.0
O61 O 0.56941 0.46631 0.47643 0.0
O62 O 0.57099 0.46928 0.51927 0.0
C63 C 0.58782 0.60577 0.49874 0.0
H64 H 0.37272 0.53332 0.59084 0.0
H65 H 0.55513 0.51473 0.61169 0.0
H66 H 0.63953 0.504 0.39478 0.0
H67 H 0.45716 0.50997 0.37265 0.0
C68 C 0.04676 0.86473 0.45701 0.0
C69 C 0.07148 0.82119 0.44429 0.0
C70 C 0.05413 0.80923 0.41815 0.0
C71 C 0.99392 0.88682 0.41679 0.0
C72 C 0.00759 0.89661 0.44294 0.0
C73 C 0.97636 0.94416 0.4532 0.0
H74 H 0.82137 0.16439 0.42676 0.0
C75 C 0.9569 0.92997 0.40711 0.0
C76 C 0.94521 0.96327 0.42844 0.0
H77 H 0.86845 0.10396 0.50279 0.0
H78 H 0.91424 0.02794 0.48216 0.0
H79 H 0.93713 0.13554 0.3985 0.0
H80 H 0.77437 0.05481 0.40365 0.0
H81 H 0.79614 0.0467 0.37121 0.0
H82 H 0.78329 0.11189 0.38407 0.0
H83 H 0.87407 0.15372 0.37925 0.0
H84 H 0.92432 0.10481 0.36791 0.0
C85 C 0.02203 0.98435 0.46372 0.0
C86 C 0.93344 0.92594 0.47386 0.0
C87 C 0.92931 0.95284 0.30919 0.0
C88 C 0.90876 0.99492 0.29406 0.0
C89 C 0.88057 0.03701 0.30657 0.0
C90 C 0.87576 0.03842 0.3338 0.0
C91 C 0.90017 0.99776 0.34877 0.0
C92 C 0.92545 0.95545 0.3364 0.0
C93 C 0.95237 0.91752 0.35543 0.0
C94 C 0.93939 0.94434 0.38133 0.0
C95 C 0.90893 0.99127 0.37725 0.0
C96 C 0.01838 0.91545 0.35053 0.0
C97 C 0.92062 0.86402 0.352 0.0
C98 C 0.84198 0.13495 0.43897 0.0
C99 C 0.84291 0.14026 0.46635 0.0
C100 C 0.86846 0.10059 0.48168 0.0
C101 C 0.89424 0.05666 0.46979 0.0
C102 C 0.89297 0.05188 0.44235 0.0
C103 C 0.86622 0.09026 0.42748 0.0
C104 C 0.86577 0.07734 0.39872 0.0
C105 C 0.89588 0.02447 0.39879 0.0
C106 C 0.91295 0.01015 0.42432 0.0
C107 C 0.90172 0.12 0.38517 0.0
C108 C 0.80172 0.07272 0.38863 0.0
H109 H 0.00479 0.83106 0.3844 0.0
H110 H 0.05824 0.87404 0.4773 0.0
H111 H 0.89188 0.9475 0.47249 0.0
H112 H 0.95287 0.93013 0.49398 0.0
H113 H 0.92095 0.88399 0.47089 0.0
H114 H 0.00348 0.02378 0.4666 0.0
H115 H 0.05711 0.98895 0.44951 0.0
H116 H 0.04232 0.97138 0.48255 0.0
H117 H 0.95028 0.91945 0.30016 0.0
H118 H 0.86466 0.07019 0.2955 0.0
H119 H 0.85518 0.07215 0.34218 0.0
H120 H 0.03562 0.95552 0.34718 0.0
H121 H 0.02726 0.8909 0.33294 0.0
H122 H 0.04468 0.90051 0.36715 0.0
H123 H 0.87509 0.86917 0.34456 0.0
H124 H 0.91671 0.84347 0.37078 0.0
H125 H 0.94276 0.83793 0.33787 0.0
H126 H 0.07253 0.77592 0.40793 0.0
C127 C 0.01528 0.8416 0.40441 0.0
C128 C 0.08146 0.17137 0.53418 0.0
C129 C 0.13002 0.20133 0.54261 0.0
C130 C 0.15697 0.19158 0.56717 0.0
C131 C 0.08999 0.12032 0.57389 0.0
C132 C 0.06171 0.13146 0.55034 0.0
C133 C 0.01084 0.09527 0.54476 0.0
H134 H 0.88792 0.85954 0.56843 0.0
C135 C 0.0627 0.0734 0.58472 0.0
C136 C 0.01654 0.05784 0.56761 0.0
H137 H 0.83157 0.9709 0.51017 0.0
H138 H 0.90192 0.03448 0.52819 0.0
H139 H 0.02664 0.8802 0.57072 0.0
H140 H 0.88263 0.94068 0.61244 0.0
H141 H 0.94225 0.95081 0.63424 0.0
H142 H 0.92209 0.88479 0.62401 0.0
H143 H 0.98281 0.84347 0.59238 0.0
H144 H 0.04485 0.88023 0.60461 0.0
C145 C 0.0192 0.06751 0.5181 0.0
C146 C 0.95487 0.12843 0.546 0.0
C147 C 0.13905 1.00028 0.67099 0.0
C148 C 0.11832 0.96008 0.68686 0.0
C149 C 0.0761 0.92497 0.67602 0.0
C150 C 0.05273 0.93161 0.65072 0.0
C151 C 0.07033 0.97453 0.63614 0.0
C152 C 0.11346 0.00755 0.64608 0.0
C153 C 0.12395 0.05293 0.62837 0.0
C154 C 0.07781 0.04293 0.60691 0.0
C155 C 0.04741 0.99654 0.61142 0.0
C156 C 0.18617 0.0474 0.6181 0.0
C157 C 0.11278 0.10471 0.64381 0.0
C158 C 0.89159 0.89725 0.55912 0.0
C159 C 0.85668 0.90929 0.53701 0.0
C160 C 0.85948 0.96016 0.5267 0.0
C161 C 0.90034 0.99679 0.53697 0.0
C162 C 0.93787 0.98269 0.5579 0.0
C163 C 0.93093 0.93453 0.56939 0.0
C164 C 0.9678 0.92893 0.59388 0.0
C165 C 0.00181 0.97989 0.59396 0.0
C166 C 0.98511 0.01104 0.57258 0.0
C167 C 0.00761 0.88055 0.59045 0.0
C168 C 0.92696 0.92583 0.61741 0.0
H169 H 0.16072 0.14498 0.60099 0.0
H170 H 0.05991 0.17857 0.51541 0.0
H171 H 0.91614 0.10474 0.54991 0.0
H172 H 0.94726 0.15044 0.52761 0.0
H173 H 0.9582 0.15766 0.56242 0.0
H174 H 0.06483 0.05409 0.51642 0.0
H175 H 0.00911 0.09445 0.5017 0.0
H176 H 0.99223 0.0321 0.5154 0.0
H177 H 0.17229 0.02742 0.6782 0.0
H178 H 0.05816 0.89397 0.6875 0.0
H179 H 0.02028 0.90403 0.64392 0.0
H180 H 0.19796 0.00537 0.61536 0.0
H181 H 0.21872 0.06531 0.6321 0.0
H182 H 0.19095 0.06469 0.59862 0.0
H183 H 0.07706 0.09964 0.65766 0.0
H184 H 0.09826 0.13715 0.63112 0.0
H185 H 0.15206 0.11741 0.65545 0.0
H186 H 0.19458 0.21427 0.57389 0.0
C187 C 0.13747 0.15111 0.58277 0.0
C188 C 0.59579 0.37176 0.95062 0.0
C189 C 0.6441 0.35517 0.93658 0.0
C190 C 0.65016 0.37204 0.91071 0.0
C191 C 0.55977 0.41945 0.91275 0.0
C192 C 0.55509 0.40542 0.93859 0.0
C193 C 0.50548 0.43357 0.95123 0.0
H194 H 0.28641 0.61052 0.93925 0.0
C195 C 0.51157 0.45476 0.9059 0.0
C196 C 0.48467 0.46941 0.92906 0.0
H197 H 0.41846 0.61503 0.0011 0.0
H198 H 0.47486 0.55248 0.97642 0.0
H199 H 0.38011 0.62383 0.90173 0.0
H200 H 0.29168 0.47929 0.91835 0.0
H201 H 0.29766 0.48422 0.88418 0.0
H202 H 0.25648 0.53271 0.90175 0.0
H203 H 0.30663 0.61138 0.8905 0.0
H204 H 0.3674 0.59002 0.87199 0.0
C205 C 0.52798 0.46234 0.97609 0.0
C206 C 0.4578 0.39377 0.95759 0.0
C207 C 0.44949 0.47001 0.81035 0.0
C208 C 0.3992 0.48913 0.79749 0.0
C209 C 0.35365 0.50863 0.8126 0.0
C210 C 0.35904 0.5104 0.84003 0.0
C211 C 0.41065 0.4929 0.85244 0.0
C212 C 0.45389 0.47147 0.83763 0.0
C213 C 0.50407 0.45137 0.85403 0.0
C214 C 0.48456 0.46584 0.88127 0.0
C215 C 0.43039 0.49102 0.88017 0.0
C216 C 0.55995 0.48125 0.84698 0.0
C217 C 0.50725 0.39128 0.84932 0.0
C218 C 0.32435 0.59403 0.94911 0.0
C219 C 0.34561 0.61552 0.97316 0.0
C220 C 0.39921 0.59728 0.98352 0.0
C221 C 0.43059 0.55857 0.97027 0.0
C222 C 0.40671 0.53481 0.94746 0.0
C223 C 0.35651 0.55542 0.93616 0.0
C224 C 0.3511 0.54221 0.90728 0.0
C225 C 0.40619 0.51076 0.90349 0.0
C226 C 0.43547 0.50281 0.92755 0.0
C227 C 0.35087 0.59424 0.89187 0.0
C228 C 0.29618 0.50806 0.9024 0.0
H229 H 0.61569 0.41669 0.87923 0.0
H230 H 0.59109 0.36005 0.97071 0.0
H231 H 0.41923 0.41441 0.96513 0.0
H232 H 0.47387 0.36593 0.97269 0.0
H233 H 0.44369 0.37076 0.93979 0.0
H234 H 0.55445 0.49708 0.97119 0.0
H235 H 0.55498 0.43661 0.98887 0.0
H236 H 0.49103 0.47359 0.98799 0.0
H237 H 0.48572 0.45537 0.79945 0.0
H238 H 0.31396 0.5227 0.80321 0.0
H239 H 0.3232 0.52591 0.85053 0.0
H240 H 0.54981 0.5196 0.83779 0.0
H241 H 0.58593 0.45807 0.83299 0.0
H242 H 0.58749 0.49146 0.86453 0.0
H243 H 0.5176 0.3821 0.82866 0.0
H244 H 0.46489 0.37256 0.85329 0.0
H245 H 0.54023 0.37179 0.86177 0.0
H246 H 0.68722 0.35997 0.89961 0.0
C247 C 0.60845 0.40434 0.89881 0.0
C248 C 0.62961 0.66151 0.04186 0.0
C249 C 0.68099 0.68499 0.05205 0.0
C250 C 0.70004 0.67383 0.07787 0.0
C251 C 0.62249 0.61077 0.08144 0.0
C252 C 0.6013 0.62415 0.05683 0.0
C253 C 0.54991 0.59079 0.04821 0.0
H254 H 0.42555 0.35058 0.05686 0.0
C255 C 0.59052 0.56423 0.08981 0.0
C256 C 0.54901 0.55078 0.07002 0.0
H257 H 0.37248 0.47285 0.00377 0.0
H258 H 0.43877 0.53401 0.02683 0.0
H259 H 0.56445 0.37506 0.06425 0.0
H260 H 0.41108 0.41964 0.10375 0.0
H261 H 0.46636 0.4268 0.12798 0.0
H262 H 0.45162 0.36292 0.11337 0.0
H263 H 0.52014 0.33196 0.08262 0.0
H264 H 0.57837 0.36928 0.09829 0.0
C265 C 0.56202 0.56567 0.02134 0.0
C266 C 0.49559 0.62617 0.04813 0.0
C267 C 0.6327 0.48578 0.17872 0.0
C268 C 0.61245 0.44003 0.19057 0.0
C269 C 0.58428 0.40122 0.1747 0.0
C270 C 0.57091 0.41031 0.14826 0.0
C271 C 0.58645 0.4584 0.13748 0.0
C272 C 0.61958 0.49394 0.15219 0.0
C273 C 0.63575 0.54116 0.13668 0.0
C274 C 0.60005 0.5311 0.11153 0.0
C275 C 0.5715 0.48268 0.1122 0.0
C276 C 0.70212 0.53904 0.13234 0.0
C277 C 0.61569 0.59151 0.15112 0.0
C278 C 0.42958 0.39008 0.04957 0.0
C279 C 0.39639 0.40624 0.02765 0.0
C280 C 0.39909 0.45914 0.02014 0.0
C281 C 0.43763 0.49436 0.03333 0.0
C282 C 0.47371 0.47638 0.05401 0.0
C283 C 0.46677 0.42576 0.06264 0.0
C284 C 0.49975 0.41597 0.08784 0.0
C285 C 0.53105 0.46792 0.09195 0.0
C286 C 0.51752 0.50276 0.0716 0.0
C287 C 0.54288 0.37047 0.08323 0.0
C288 C 0.45533 0.4055 0.1094 0.0
H289 H 0.688 0.62975 0.11196 0.0
H290 H 0.61378 0.66988 0.02217 0.0
H291 H 0.45483 0.60361 0.04865 0.0
H292 H 0.49418 0.6518 0.03074 0.0
H293 H 0.49596 0.65208 0.06589 0.0
H294 H 0.60593 0.54765 0.02144 0.0
H295 H 0.55927 0.59514 0.00557 0.0
H296 H 0.53118 0.5343 0.01627 0.0
H297 H 0.65505 0.51631 0.1901 0.0
H298 H 0.57029 0.36465 0.18298 0.0
H299 H 0.54758 0.38015 0.13744 0.0
H300 H 0.72123 0.50025 0.13735 0.0
H301 H 0.7259 0.56898 0.14461 0.0
H302 H 0.71237 0.5447 0.11152 0.0
H303 H 0.57048 0.58677 0.15766 0.0
H304 H 0.61547 0.62635 0.13854 0.0
H305 H 0.64405 0.60015 0.16869 0.0
H306 H 0.73844 0.69279 0.08646 0.0
C307 C 0.67099 0.63702 0.0926 0.0
C308 C 0.18298 0.17493 0.97188 0.0
C309 C 0.16713 0.15091 -0.00487 0.0
C310 C 0.21969 0.21917 0.97251 0.0
C311 C 0.24108 0.23959 -0.00307 0.0
C312 C 0.22539 0.2153 0.0204 0.0
C313 C 0.18867 0.17141 0.0192 0.0
C314 C 0.23549 0.2441 0.94713 0.0
C315 C 0.24757 0.23557 0.04687 0.0
C316 C 0.37944 0.31761 0.00756 0.0
C317 C 0.35779 0.36746 0.01387 0.0
C318 C 0.34205 0.27641 -0.00022 0.0
C319 C 0.28147 0.28528 -0.00158 0.0
C320 C 0.2598 0.33672 0.00254 0.0
C321 C 0.29838 0.3774 0.0102 0.0
C322 C 0.36716 0.22244 -0.00472 0.0
C323 C 0.19554 0.34788 0.00104 0.0
H324 H 0.16631 0.15948 0.9532 0.0
H325 H 0.17671 0.1532 0.03727 0.0
H326 H 0.22188 0.28585 0.94714 0.0
H327 H 0.28325 0.24353 0.94518 0.0
H328 H 0.21489 0.22375 0.92978 0.0
H329 H 0.23065 0.21258 0.06325 0.0
H330 H 0.29568 0.23401 0.04799 0.0
H331 H 0.23482 0.27721 0.04964 0.0
H332 H 0.42559 0.31017 0.01003 0.0
H333 H 0.2816 0.41595 0.01506 0.0
H334 H 0.34686 0.20341 0.97755 0.0
H335 H 0.35792 0.19739 0.01221 0.0
H336 H 0.41491 0.22377 -0.00693 0.0
H337 H 0.17478 0.3285 0.9835 0.0
H338 H 0.18645 0.39067 0.0004 0.0
H339 H 0.17505 0.33173 0.01852 0.0
C340 C 0.19617 0.88709 0.97877 0.0
C341 C 0.16954 0.90452 0.00162 0.0
C342 C 0.22747 0.84007 0.9781 0.0
C343 C 0.23289 0.80952 0.00092 0.0
C344 C 0.20878 0.8281 0.02449 0.0
C345 C 0.1772 0.87544 0.02457 0.0
C346 C 0.2526 0.82199 0.95254 0.0
C347 C 0.21434 0.79698 0.04931 0.0
C348 C 0.25558 0.66569 0.98406 0.0
C349 C 0.31634 0.66207 0.98493 0.0
C350 C 0.22754 0.71256 0.99098 0.0
C351 C 0.26099 0.75692 -0.00077 0.0
C352 C 0.32204 0.75235 0.00208 0.0
C353 C 0.34902 0.70518 -0.00527 0.0
C354 C 0.16231 0.71564 0.98769 0.0
C355 C 0.35931 0.79841 0.01111 0.0
H356 H 0.191 0.90944 0.96097 0.0
H357 H 0.15673 0.88857 0.0423 0.0
H358 H 0.29968 0.81411 0.95532 0.0
H359 H 0.2315 0.78473 0.94581 0.0
H360 H 0.24653 0.85135 0.93685 0.0
H361 H 0.19958 0.81962 0.06661 0.0
H362 H 0.18782 0.7607 0.04713 0.0
H363 H 0.26003 0.78479 0.05301 0.0
H364 H 0.22989 0.63235 0.97701 0.0
H365 H 0.39598 0.70332 -0.0047 0.0
H366 H 0.15069 0.74113 0.97091 0.0
H367 H 0.14335 0.73353 0.00538 0.0
H368 H 0.14221 0.67643 0.98397 0.0
H369 H 0.36156 0.82706 -0.00494 0.0
H370 H 0.40422 0.78617 0.01669 0.0
H371 H 0.34018 0.81889 0.02809 0.0
C372 C 0.88481 0.90918 0.01863 0.0
C373 C 0.91343 0.91019 -0.00517 0.0
C374 C 0.84242 0.8716 0.02324 0.0
C375 C 0.82779 0.83377 0.00353 0.0
C376 C 0.85439 0.8358 0.97895 0.0
C377 C 0.89715 0.87414 0.97486 0.0
C378 C 0.81523 0.87109 0.04976 0.0
C379 C 0.83933 0.79638 0.95741 0.0
C380 C 0.77716 0.71079 0.03561 0.0
C381 C 0.71703 0.71872 0.03571 0.0
C382 C 0.8135 0.74566 0.02304 0.0
C383 C 0.78909 0.78962 0.01021 0.0
C384 C 0.72797 0.79548 0.0084 0.0
C385 C 0.6925 0.75983 0.02122 0.0
C386 C 0.87837 0.73772 0.02539 0.0
C387 C 0.70031 0.84151 -0.00536 0.0
H388 H 0.89627 0.93738 0.03409 0.0
H389 H 0.91876 0.875 0.95636 0.0
H390 H 0.76723 0.87154 0.04745 0.0
H391 H 0.82754 0.83454 0.06006 0.0
H392 H 0.82906 0.90513 0.06237 0.0
H393 H 0.85667 0.8081 0.93834 0.0
H394 H 0.85786 0.75762 0.96261 0.0
H395 H 0.7916 0.79141 0.95512 0.0
H396 H 0.79607 0.67809 0.04618 0.0
H397 H 0.64594 0.76575 0.02105 0.0
H398 H 0.89766 0.76768 0.03913 0.0
H399 H 0.89838 0.74282 0.00617 0.0
H400 H 0.8899 0.69822 0.03282 0.0
H401 H 0.7056 0.87725 0.00723 0.0
H402 H 0.65319 0.83505 0.99049 0.0
H403 H 0.72175 0.84914 0.97597 0.0
C404 C 0.88377 0.14142 0.9549 0.0
C405 C 0.91187 0.13785 0.97959 0.0
C406 C 0.83869 0.1773 0.95046 0.0
C407 C 0.82155 0.21089 0.97114 0.0
C408 C 0.84941 0.20737 -0.00383 0.0
C409 C 0.89414 0.17065 0.00015 0.0
C410 C 0.80976 0.17958 0.92351 0.0
C411 C 0.83259 0.24291 0.01859 0.0
C412 C 0.74784 0.33447 0.9471 0.0
C413 C 0.6891 0.32114 0.94869 0.0
C414 C 0.79149 0.30007 0.95576 0.0
C415 C 0.77594 0.25091 0.96598 0.0
C416 C 0.71662 0.2383 0.96878 0.0
C417 C 0.67378 0.27382 0.96022 0.0
C418 C 0.85423 0.31533 0.95281 0.0
C419 C 0.69836 0.18614 0.97944 0.0
H420 H 0.89687 0.11595 0.93896 0.0
H421 H 0.91563 0.16807 0.01929 0.0
H422 H 0.76223 0.17396 0.92485 0.0
H423 H 0.81677 0.21881 0.91504 0.0
H424 H 0.82664 0.1493 0.90986 0.0
H425 H 0.85715 0.23404 0.03708 0.0
H426 H 0.84073 0.28443 0.0136 0.0
H427 H 0.78552 0.23907 0.02198 0.0
H428 H 0.75961 0.37148 0.93853 0.0
H429 H 0.6283 0.26352 0.96138 0.0
H430 H 0.87366 0.29001 0.93757 0.0
H431 H 0.8794 0.30915 0.9714 0.0
H432 H 0.85905 0.35696 0.94712 0.0
H433 H 0.70904 0.1543 0.96532 0.0
H434 H 0.65108 0.18458 0.98288 0.0
H435 H 0.72247 0.17806 -0.00191 0.0
C436 C 0.64966 0.67521 0.4792 0.0
C437 C 0.62872 0.65068 0.50141 0.0
C438 C 0.68641 0.71926 0.48167 0.0
C439 C 0.70272 0.73904 0.50693 0.0
C440 C 0.68196 0.71426 0.52938 0.0
C441 C 0.64524 0.6705 0.52635 0.0
C442 C 0.70772 0.74466 0.4573 0.0
C443 C 0.6987 0.73389 0.55668 0.0
C444 C 0.84014 0.81754 0.52086 0.0
C445 C 0.81811 0.8681 0.52519 0.0
C446 C 0.80337 0.77567 0.51342 0.0
C447 C 0.74301 0.78457 0.51023 0.0
C448 C 0.72098 0.83624 0.51293 0.0
C449 C 0.75894 0.87757 0.52035 0.0
C450 C 0.82879 0.72136 0.51051 0.0
C451 C 0.65692 0.84734 0.50951 0.0
H452 H 0.63692 0.66031 0.45984 0.0
H453 H 0.62931 0.65189 0.54363 0.0
H454 H 0.69466 0.78655 0.45701 0.0
H455 H 0.75582 0.74364 0.45734 0.0
H456 H 0.69046 0.72493 0.43909 0.0
H457 H 0.67822 0.71064 0.57209 0.0
H458 H 0.74651 0.73212 0.55982 0.0
H459 H 0.68569 0.77556 0.55909 0.0
H460 H 0.88616 0.81043 0.52415 0.0
H461 H 0.74188 0.91666 0.52367 0.0
H462 H 0.81288 0.7024 0.49192 0.0
H463 H 0.81461 0.69656 0.52676 0.0
H464 H 0.877 0.72203 0.51086 0.0
H465 H 0.6392 0.82886 0.49111 0.0
H466 H 0.64767 0.89011 0.50915 0.0
H467 H 0.63358 0.83001 0.52593 0.0
C468 C 0.62973 0.37075 0.4759 0.0
C469 C 0.62948 0.40408 0.49803 0.0
C470 C 0.66728 0.32776 0.47465 0.0
C471 C 0.70675 0.31821 0.49586 0.0
C472 C 0.70681 0.35159 0.51836 0.0
C473 C 0.66756 0.39391 0.51933 0.0
C474 C 0.66483 0.29271 0.45045 0.0
C475 C 0.7491 0.34323 0.54109 0.0
C476 C 0.7663 0.17956 0.49387 0.0
C477 C 0.81477 0.18628 0.47849 0.0
C478 C 0.73258 0.22284 0.50136 0.0
C479 C 0.74855 0.27393 0.49365 0.0
C480 C 0.80031 0.28106 0.47997 0.0
C481 C 0.83238 0.23703 0.47223 0.0
C482 C 0.67731 0.21333 0.51556 0.0
C483 C 0.81964 0.33484 0.47183 0.0
H484 H 0.59993 0.37797 0.45947 0.0
H485 H 0.66757 0.41967 0.53644 0.0
H486 H 0.70666 0.29466 0.44041 0.0
H487 H 0.65806 0.25127 0.456 0.0
H488 H 0.62951 0.30396 0.43632 0.0
H489 H 0.74243 0.37156 0.55749 0.0
H490 H 0.74486 0.30279 0.5485 0.0
H491 H 0.79415 0.34756 0.53445 0.0
H492 H 0.75264 0.14016 0.49856 0.0
H493 H 0.87017 0.24207 0.46046 0.0
H494 H 0.63956 0.21874 0.50181 0.0
H495 H 0.67292 0.24202 0.53194 0.0
H496 H 0.67539 0.173 0.52343 0.0
H497 H 0.7911 0.34845 0.4554 0.0
H498 H 0.86512 0.33471 0.46532 0.0
H499 H 0.816 0.36362 0.48824 0.0
C500 C 0.32834 0.41096 0.47016 0.0
C501 C 0.37842 0.40757 0.48636 0.0
C502 C 0.28091 0.37719 0.47368 0.0
C503 C 0.28456 0.33896 0.49351 0.0
C504 C 0.33693 0.33314 0.50849 0.0
C505 C 0.38287 0.36791 0.50492 0.0
C506 C 0.22577 0.38485 0.45746 0.0
C507 C 0.34336 0.29223 0.52946 0.0
C508 C 0.16251 0.29243 0.53445 0.0
C509 C 0.1563 0.2404 0.52561 0.0
C510 C 0.19984 0.32702 0.52218 0.0
C511 C 0.23268 0.30855 0.50097 0.0
C512 C 0.22268 0.25729 0.49059 0.0
C513 C 0.1842 0.22375 0.50302 0.0
C514 C 0.20824 0.3817 0.53354 0.0
C515 C 0.2568 0.23604 0.46809 0.0
H516 H 0.32484 0.44201 0.45594 0.0
H517 H 0.42189 0.36516 0.51731 0.0
H518 H 0.20688 0.34655 0.45093 0.0
H519 H 0.19331 0.40503 0.46959 0.0
H520 H 0.23313 0.40905 0.43998 0.0
H521 H 0.38869 0.28938 0.53741 0.0
H522 H 0.31484 0.30228 0.54587 0.0
H523 H 0.32974 0.25311 0.52158 0.0
H524 H 0.14073 0.3051 0.55194 0.0
H525 H 0.17956 0.18327 0.49635 0.0
H526 H 0.20968 0.41093 0.51773 0.0
H527 H 0.25027 0.38382 0.54478 0.0
H528 H 0.17313 0.39274 0.54693 0.0
H529 H 0.26126 0.26597 0.45278 0.0
H530 H 0.23623 0.2003 0.45909 0.0
H531 H 0.30113 0.22563 0.47537 0.0
C532 C 0.35832 0.66276 0.45916 0.0
C533 C 0.37166 0.63899 0.48317 0.0
C534 C 0.30918 0.69465 0.45595 0.0
C535 C 0.27218 0.7027 0.47721 0.0
C536 C 0.28624 0.68008 0.50172 0.0
C537 C 0.33598 0.64859 0.50444 0.0
C538 C 0.29599 0.71851 0.42955 0.0
C539 C 0.24774 0.68766 0.52478 0.0
C540 C 0.16708 0.81606 0.46865 0.0
C541 C 0.11856 0.79037 0.45712 0.0
C542 C 0.21663 0.78774 0.47661 0.0
C543 C 0.2173 0.73249 0.47309 0.0
C544 C 0.16693 0.70613 0.46309 0.0
C545 C 0.11823 0.73544 0.45511 0.0
C546 C 0.26948 0.81727 0.48715 0.0
C547 C 0.16558 0.6472 0.4594 0.0
H548 H 0.38581 0.65578 0.44268 0.0
H549 H 0.34594 0.63028 0.52306 0.0
H550 H 0.25472 0.7021 0.42109 0.0
H551 H 0.29021 0.76158 0.43172 0.0
H552 H 0.33083 0.7109 0.41549 0.0
H553 H 0.26696 0.67071 0.54299 0.0
H554 H 0.2395 0.73003 0.52831 0.0
H555 H 0.20509 0.66862 0.52044 0.0
H556 H 0.16761 0.85858 0.47003 0.0
H557 H 0.08046 0.71552 0.44646 0.0
H558 H 0.30369 0.81594 0.4724 0.0
H559 H 0.28749 0.79862 0.50512 0.0
H560 H 0.25967 0.85905 0.49173 0.0
H561 H 0.19509 0.63556 0.44362 0.0
H562 H 0.12133 0.63235 0.45405 0.0
H563 H 0.18125 0.62773 0.47756 0.0
C564 C 0.01052 0.06666 0.152 0.0
C565 C 0.99584 0.02778 0.1333 0.0
C566 C 0.99525 0.06109 0.17813 0.0
C567 C 0.96593 0.01503 0.18555 0.0
C568 C 0.95216 0.97521 0.16671 0.0
C569 C 0.96679 0.98238 0.14067 0.0
C570 C 0.00972 0.10465 0.19769 0.0
C571 C 0.92216 0.92508 0.17407 0.0
C572 C 0.97593 0.9809 0.25727 0.0
C573 C 0.9216 0.99733 0.26588 0.0
C574 C 0.99047 0.98556 0.23106 0.0
C575 C 0.95018 0.00821 0.21312 0.0
C576 C 0.89516 0.02461 0.22154 0.0
C577 C 0.88131 0.01856 0.24782 0.0
C578 C 0.04927 0.96694 0.22265 0.0
C579 C 0.85132 0.04926 0.20288 0.0
H580 H 0.03266 0.10184 0.14601 0.0
H581 H 0.95584 0.95238 0.126 0.0
H582 H 0.96946 0.11904 0.20667 0.0
H583 H 0.03839 0.08962 0.21374 0.0
H584 H 0.03168 0.13829 0.18861 0.0
H585 H 0.91562 0.89762 0.15709 0.0
H586 H 0.94815 0.90494 0.18957 0.0
H587 H 0.87927 0.93416 0.1822 0.0
H588 H 0.00788 0.96553 0.27117 0.0
H589 H 0.83904 0.03076 0.25425 0.0
H590 H 0.07479 1.00064 0.21576 0.0
H591 H 0.04416 0.93857 0.206 0.0
H592 H 0.07443 0.94784 0.23878 0.0
H593 H 0.87009 0.08506 0.19441 0.0
H594 H 0.81057 0.06014 0.21259 0.0
H595 H 0.84053 0.02173 0.18636 0.0
C596 C 0.15034 0.96462 0.84468 0.0
C597 C 0.09439 0.98006 0.8518 0.0
C598 C 0.1641 0.95793 0.81832 0.0
C599 C 0.12028 0.96455 0.79867 0.0
C600 C 0.06313 0.97747 0.80568 0.0
C601 C 0.0512 0.98616 0.83207 0.0
C602 C 0.22591 0.94575 0.81149 0.0
C603 C 0.01476 0.98351 0.78523 0.0
C604 C 0.14277 0.0065 0.72953 0.0
C605 C 0.13345 0.95917 0.71545 0.0
C606 C 0.14444 0.00783 0.75693 0.0
C607 C 0.13411 0.96117 0.77061 0.0
C608 C 0.12922 0.91273 0.75679 0.0
C609 C 0.13045 0.91218 0.72937 0.0
C610 C 0.15239 0.06001 0.77111 0.0
C611 C 0.11713 0.86217 0.77064 0.0
H612 H 0.18384 0.95821 0.85965 0.0
H613 H 0.00815 0.99896 0.83705 0.0
H614 H 0.22748 0.91063 0.79842 0.0
H615 H 0.24402 0.97906 0.80065 0.0
H616 H 0.25419 0.93887 0.82914 0.0
H617 H 0.97167 0.98796 0.79409 0.0
H618 H 0.0229 0.01861 0.77333 0.0
H619 H 0.0132 0.9489 0.77173 0.0
H620 H 0.14487 0.04335 0.71937 0.0
H621 H 0.12562 0.87507 0.71886 0.0
H622 H 0.18156 0.05597 0.78869 0.0
H623 H 0.10981 0.07415 0.77781 0.0
H624 H 0.17062 0.09027 0.7583 0.0
H625 H 0.14514 0.85852 0.78858 0.0
H626 H 0.12368 0.82718 0.75781 0.0
H627 H 0.07141 0.86222 0.77677 0.0
C628 C 0.39609 0.49301 0.64008 0.0
C629 C 0.44699 0.51907 0.63321 0.0
C630 C 0.38151 0.48839 0.66632 0.0
C631 C 0.41961 0.50887 0.68621 0.0
C632 C 0.47104 0.53512 0.67953 0.0
C633 C 0.48374 0.54049 0.65309 0.0
C634 C 0.32576 0.46099 0.67276 0.0
C635 C 0.5132 0.55673 0.70031 0.0
C636 C 0.37374 0.53496 0.75566 0.0
C637 C 0.39634 0.49084 0.76848 0.0
C638 C 0.37834 0.54018 0.72853 0.0
C639 C 0.40728 0.50088 0.71411 0.0
C640 C 0.42779 0.4552 0.7267 0.0
C641 C 0.42124 0.45038 0.75367 0.0
C642 C 0.35455 0.58877 0.71553 0.0
C643 C 0.4594 0.41266 0.71199 0.0
H644 H 0.36789 0.47535 0.62497 0.0
H645 H 0.52253 0.56156 0.64803 0.0
H646 H 0.33567 0.42423 0.68332 0.0
H647 H 0.30003 0.48621 0.68593 0.0
H648 H 0.29867 0.45106 0.65496 0.0
H649 H 0.55137 0.57591 0.69181 0.0
H650 H 0.49116 0.58582 0.71292 0.0
H651 H 0.52881 0.52456 0.71312 0.0
H652 H 0.35475 0.56656 0.76694 0.0
H653 H 0.4374 0.41552 0.76334 0.0
H654 H 0.32821 0.57794 0.69766 0.0
H655 H 0.39094 0.61372 0.70936 0.0
H656 H 0.32729 0.61239 0.72882 0.0
H657 H 0.43265 0.39852 0.69484 0.0
H658 H 0.47045 0.37861 0.7245 0.0
H659 H 0.50017 0.42886 0.70444 0.0
C660 C 0.59644 0.44602 0.34799 0.0
C661 C 0.56433 0.49145 0.35316 0.0
C662 C 0.60969 0.43174 0.32229 0.0
C663 C 0.5912 0.46432 0.3015 0.0
C664 C 0.55964 0.5108 0.30674 0.0
C665 C 0.54598 0.52351 0.33258 0.0
C666 C 0.64215 0.38131 0.31732 0.0
C667 C 0.53997 0.54691 0.28505 0.0
C668 C 0.65835 0.4596 0.23501 0.0
C669 C 0.6133 0.43651 0.21959 0.0
C670 C 0.65314 0.46676 0.26209 0.0
C671 C 0.6024 0.44911 0.27404 0.0
C672 C 0.55928 0.42154 0.25904 0.0
C673 C 0.56488 0.41614 0.23195 0.0
C674 C 0.69995 0.49654 0.27752 0.0
C675 C 0.50515 0.401 0.27125 0.0
H676 H 0.61012 0.42113 0.36406 0.0
H677 H 0.52154 0.55882 0.33677 0.0
H678 H 0.61444 0.35408 0.30517 0.0
H679 H 0.68159 0.38919 0.30618 0.0
H680 H 0.65523 0.36141 0.33577 0.0
H681 H 0.51867 0.5829 0.29262 0.0
H682 H 0.57759 0.5587 0.27349 0.0
H683 H 0.50884 0.52603 0.27147 0.0
H684 H 0.69661 0.47425 0.22577 0.0
H685 H 0.52934 0.39879 0.22037 0.0
H686 H 0.71234 0.47566 0.29574 0.0
H687 H 0.68313 0.53565 0.28339 0.0
H688 H 0.73941 0.50237 0.26602 0.0
H689 H 0.51632 0.37996 0.28957 0.0
H690 H 0.48019 0.37399 0.25776 0.0
H691 H 0.4767 0.4344 0.27644 0.0
loop_
_geom_bond_atom_site_label_1
_geom_bond_atom_site_label_2
_geom_bond_distance
_geom_bond_site_symmetry_2
_ccdc_geom_bond_type
C0 O16 1.251 . S
C0 O18 1.254 1_554 S
N1 C2 1.333 1_445 S
N1 C6 1.307 . S
N1 Zn7 2.020 . S
C2 N1 1.333 1_665 S
C2 C3 1.379 . S
C2 H20 0.952 . S
C3 C2 1.379 . S
C3 C4 1.390 1_665 S
C3 H30 0.949 . S
C4 C3 1.390 1_445 S
C4 C5 1.357 . S
C5 C4 1.357 . S
C5 C6 1.370 . S
C5 H31 0.950 . S
C6 N1 1.307 . S
C6 C5 1.370 . S
C6 H24 0.948 . S
Zn7 N1 2.020 . S
Zn7 O16 2.039 1_445 S
Zn7 O22 2.034 1_455 S
Zn7 O26 2.025 . S
Zn7 O28 2.024 1_545 S
C8 O27 1.246 1_554 S
C8 O28 1.249 . S
N9 C10 1.307 1_445 S
N9 C11 1.333 . S
N9 Zn15 2.020 . S
C10 N9 1.307 1_665 S
C10 C14 1.370 . S
C10 H21 0.948 . S
C11 N9 1.333 . S
C11 C12 1.379 . S
C11 H19 0.952 . S
C12 C11 1.379 . S
C12 C13 1.390 . S
C12 H32 0.949 . S
C13 C12 1.390 . S
C13 C14 1.357 1_445 S
C14 C10 1.370 . S
C14 C13 1.357 1_665 S
C14 H33 0.950 . S
Zn15 N9 2.020 . S
Zn15 O18 2.025 1_445 S
Zn15 O23 2.024 1_455 S
Zn15 O25 2.039 . S
Zn15 O27 2.034 1_545 S
O16 C0 1.251 . S
O16 Zn7 2.039 1_665 S
C17 O22 1.246 . S
C17 O23 1.249 1_554 S
O18 C0 1.254 1_556 S
O18 Zn15 2.025 1_665 S
H19 C11 0.952 . S
H20 C2 0.952 . S
H21 C10 0.948 . S
O22 Zn7 2.034 1_655 S
O22 C17 1.246 . S
O23 Zn15 2.024 1_655 S
O23 C17 1.249 1_556 S
H24 C6 0.948 . S
O25 Zn15 2.039 . S
O25 C29 1.251 1_556 S
O26 Zn7 2.025 . S
O26 C29 1.254 . S
O27 C8 1.246 1_556 S
O27 Zn15 2.034 1_565 S
O28 Zn7 2.024 1_565 S
O28 C8 1.249 . S
C29 O25 1.251 1_554 S
C29 O26 1.254 . S
H30 C3 0.949 . S
H31 C5 0.950 . S
H32 C12 0.949 . S
H33 C14 0.950 . S
C34 O50 1.251 . S
C34 O52 1.254 . S
N35 C36 1.333 . S
N35 C40 1.307 . S
N35 Zn41 2.020 . S
C36 N35 1.333 . S
C36 C37 1.379 . S
C36 H54 0.952 . S
C37 C36 1.379 . S
C37 C38 1.390 . S
C37 H64 0.949 . S
C38 C37 1.390 . S
C38 C39 1.357 . S
C39 C38 1.357 . S
C39 C40 1.370 . S
C39 H65 0.950 . S
C40 N35 1.307 . S
C40 C39 1.370 . S
C40 H58 0.948 . S
Zn41 N35 2.020 . S
Zn41 O50 2.039 . S
Zn41 O56 2.034 . S
Zn41 O60 2.025 . S
Zn41 O62 2.024 . S
C42 O61 1.246 . S
C42 O62 1.249 . S
N43 C44 1.307 . S
N43 C45 1.333 . S
N43 Zn49 2.020 . S
C44 N43 1.307 . S
C44 C48 1.370 . S
C44 H55 0.948 . S
C45 N43 1.333 . S
C45 C46 1.379 . S
C45 H53 0.952 . S
C46 C45 1.379 . S
C46 C47 1.390 . S
C46 H66 0.949 . S
C47 C46 1.390 . S
C47 C48 1.357 . S
C48 C44 1.370 . S
C48 C47 1.357 . S
C48 H67 0.950 . S
Zn49 N43 2.020 . S
Zn49 O52 2.025 . S
Zn49 O57 2.024 . S
Zn49 O59 2.039 . S
Zn49 O61 2.034 . S
O50 C34 1.251 . S
O50 Zn41 2.039 . S
C51 O56 1.246 . S
C51 O57 1.249 . S
O52 C34 1.254 . S
O52 Zn49 2.025 . S
H53 C45 0.952 . S
H54 C36 0.952 . S
H55 C44 0.948 . S
O56 Zn41 2.034 . S
O56 C51 1.246 . S
O57 Zn49 2.024 . S
O57 C51 1.249 . S
H58 C40 0.948 . S
O59 Zn49 2.039 . S
O59 C63 1.251 . S
O60 Zn41 2.025 . S
O60 C63 1.254 . S
O61 C42 1.246 . S
O61 Zn49 2.034 . S
O62 Zn41 2.024 . S
O62 C42 1.249 . S
C63 O59 1.251 . S
C63 O60 1.254 . S
H64 C37 0.949 . S
H65 C39 0.950 . S
H66 C46 0.949 . S
H67 C48 0.950 . S
C68 C69 1.391 . S
C68 C72 1.391 . S
C68 H110 0.948 . S
C69 C68 1.391 . S
C69 C70 1.391 . S
C70 C69 1.391 . S
C70 H126 0.947 . S
C70 C127 1.392 . S
C71 C72 1.391 . S
C71 C75 1.397 . S
C71 C127 1.419 . S
C72 C68 1.391 . S
C72 C71 1.391 . S
C72 C73 1.399 . S
C73 C72 1.399 . S
C73 C76 1.396 . S
C73 C85 1.453 1_565 S
C73 C86 1.684 1_455 S
H74 C98 0.948 . S
C75 C71 1.397 . S
C75 C76 1.394 . S
C75 C94 1.723 . S
C76 C73 1.396 . S
C76 C75 1.394 . S
C76 C106 1.723 1_465 S
H77 C100 0.947 . S
H78 C101 0.948 . S
H79 C107 0.982 . S
H80 C108 0.979 . S
H81 C108 0.980 . S
H82 C108 0.983 . S
H83 C107 0.979 . S
H84 C107 0.977 . S
C85 C73 1.453 1_545 S
C85 H114 0.982 . S
C85 H115 0.979 1_545 S
C85 H116 0.977 . S
C86 C73 1.684 1_655 S
C86 H111 0.979 . S
C86 H112 0.980 . S
C86 H113 0.983 1_655 S
C87 C88 1.391 1_465 S
C87 C92 1.391 . S
C87 H117 0.948 . S
C88 C87 1.391 1_645 S
C88 C89 1.391 . S
C89 C88 1.391 . S
C89 C90 1.392 . S
C89 H118 0.947 . S
C90 C89 1.392 . S
C90 C91 1.419 . S
C90 H119 0.948 . S
C91 C90 1.419 . S
C91 C92 1.391 1_645 S
C91 C95 1.397 . S
C92 C87 1.391 . S
C92 C91 1.391 1_465 S
C92 C93 1.399 . S
C93 C92 1.399 . S
C93 C94 1.396 . S
C93 C96 1.453 . S
C93 C97 1.684 . S
C94 C75 1.723 . S
C94 C93 1.396 . S
C94 C95 1.394 1_465 S
C95 C91 1.397 . S
C95 C94 1.394 1_645 S
C95 C105 1.723 . S
C96 C93 1.453 . S
C96 H120 0.982 . S
C96 H121 0.979 . S
C96 H122 0.977 . S
C97 C93 1.684 . S
C97 H123 0.979 . S
C97 H124 0.980 . S
C97 H125 0.983 . S
C98 H74 0.948 . S
C98 C99 1.391 . S
C98 C103 1.391 . S
C99 C98 1.391 . S
C99 C100 1.391 . S
C100 H77 0.947 . S
C100 C99 1.391 . S
C100 C101 1.392 . S
C101 H78 0.948 . S
C101 C100 1.392 . S
C101 C102 1.419 . S
C102 C101 1.419 . S
C102 C103 1.391 . S
C102 C106 1.397 . S
C103 C98 1.391 . S
C103 C102 1.391 . S
C103 C104 1.399 . S
C104 C103 1.399 . S
C104 C105 1.396 . S
C104 C107 1.453 . S
C104 C108 1.684 . S
C105 C95 1.723 . S
C105 C104 1.396 . S
C105 C106 1.394 . S
C106 C76 1.723 1_645 S
C106 C102 1.397 . S
C106 C105 1.394 . S
C107 H79 0.982 . S
C107 H83 0.979 . S
C107 H84 0.977 . S
C107 C104 1.453 . S
C108 H80 0.979 . S
C108 H81 0.980 . S
C108 H82 0.983 . S
C108 C104 1.684 . S
H109 C127 0.948 . S
H110 C68 0.948 . S
H111 C86 0.979 . S
H112 C86 0.980 . S
H113 C86 0.983 1_455 S
H114 C85 0.982 . S
H115 C85 0.979 1_565 S
H116 C85 0.977 . S
H117 C87 0.948 . S
H118 C89 0.947 . S
H119 C90 0.948 . S
H120 C96 0.982 . S
H121 C96 0.979 . S
H122 C96 0.977 . S
H123 C97 0.979 . S
H124 C97 0.980 . S
H125 C97 0.983 . S
H126 C70 0.947 . S
C127 C70 1.392 . S
C127 C71 1.419 . S
C127 H109 0.948 . S
C128 C129 1.391 . S
C128 C132 1.391 . S
C128 H170 0.948 . S
C129 C128 1.391 . S
C129 C130 1.391 . S
C130 C129 1.391 . S
C130 H186 0.947 . S
C130 C187 1.392 . S
C131 C132 1.391 . S
C131 C135 1.397 . S
C131 C187 1.419 . S
C132 C128 1.391 . S
C132 C131 1.391 . S
C132 C133 1.399 . S
C133 C132 1.399 . S
C133 C136 1.396 . S
C133 C145 1.453 . S
C133 C146 1.677 1_455 S
H134 C158 0.948 . S
C135 C131 1.397 . S
C135 C136 1.394 . S
C135 C154 1.723 . S
C136 C133 1.396 . S
C136 C135 1.394 . S
C136 C166 1.723 1_445 S
H137 C160 0.947 . S
H138 C161 0.948 . S
H139 C167 0.982 . S
H140 C168 0.979 . S
H141 C168 0.980 . S
H142 C168 0.983 . S
H143 C167 0.979 . S
H144 C167 0.977 . S
C145 C133 1.453 . S
C145 H174 0.982 1_545 S
C145 H175 0.979 . S
C145 H176 0.977 1_545 S
C146 C133 1.677 1_655 S
C146 H171 0.985 . S
C146 H172 0.986 . S
C146 H173 0.977 1_655 S
C147 C148 1.391 . S
C147 C152 1.391 . S
C147 H177 0.948 . S
C148 C147 1.391 . S
C148 C149 1.391 1_445 S
C149 C148 1.391 1_665 S
C149 C150 1.392 . S
C149 H178 0.947 . S
C150 C149 1.392 . S
C150 C151 1.419 1_655 S
C150 H179 0.948 . S
C151 C150 1.419 1_455 S
C151 C152 1.391 1_565 S
C151 C155 1.396 1_565 S
C152 C147 1.391 . S
C152 C151 1.391 1_545 S
C152 C153 1.399 . S
C153 C152 1.399 . S
C153 C154 1.396 . S
C153 C156 1.453 . S
C153 C157 1.684 . S
C154 C135 1.723 . S
C154 C153 1.396 . S
C154 C155 1.410 . S
C155 C151 1.396 1_545 S
C155 C154 1.410 . S
C155 C165 1.710 1_445 S
C156 C153 1.453 . S
C156 H180 0.982 . S
C156 H181 0.979 . S
C156 H182 0.977 . S
C157 C153 1.684 . S
C157 H183 0.979 . S
C157 H184 0.980 . S
C157 H185 0.983 . S
C158 H134 0.948 . S
C158 C159 1.391 . S
C158 C163 1.391 . S
C159 C158 1.391 . S
C159 C160 1.391 . S
C160 H137 0.947 . S
C160 C159 1.391 . S
C160 C161 1.392 . S
C161 H138 0.948 . S
C161 C160 1.392 . S
C161 C162 1.419 . S
C162 C161 1.419 . S
C162 C163 1.391 . S
C162 C166 1.397 . S
C163 C158 1.391 . S
C163 C162 1.391 . S
C163 C164 1.399 . S
C164 C163 1.399 . S
C164 C165 1.396 . S
C164 C167 1.453 . S
C164 C168 1.684 . S
C165 C155 1.710 1_665 S
C165 C164 1.396 . S
C165 C166 1.394 . S
C166 C136 1.723 1_665 S
C166 C162 1.397 . S
C166 C165 1.394 . S
C167 H139 0.982 . S
C167 H143 0.979 . S
C167 H144 0.977 . S
C167 C164 1.453 . S
C168 H140 0.979 . S
C168 H141 0.980 . S
C168 H142 0.983 . S
C168 C164 1.684 . S
H169 C187 0.948 . S
H170 C128 0.948 . S
H171 C146 0.985 . S
H172 C146 0.986 . S
H173 C146 0.977 1_455 S
H174 C145 0.982 1_565 S
H175 C145 0.979 . S
H176 C145 0.977 1_565 S
H177 C147 0.948 . S
H178 C149 0.947 . S
H179 C150 0.948 . S
H180 C156 0.982 . S
H181 C156 0.979 . S
H182 C156 0.977 . S
H183 C157 0.979 . S
H184 C157 0.980 . S
H185 C157 0.983 . S
H186 C130 0.947 . S
C187 C130 1.392 . S
C187 C131 1.419 . S
C187 H169 0.948 . S
C188 C189 1.397 . S
C188 C192 1.399 . S
C188 H230 0.935 1_556 S
C189 C188 1.397 . S
C189 C190 1.391 . S
C190 C189 1.391 . S
C190 H246 0.947 . S
C190 C247 1.392 . S
C191 C192 1.391 . S
C191 C195 1.397 . S
C191 C247 1.419 . S
C192 C188 1.399 . S
C192 C191 1.391 . S
C192 C193 1.399 . S
C193 C192 1.399 . S
C193 C196 1.396 . S
C193 C205 1.453 1_556 S
C193 C206 1.684 1_556 S
H194 C218 0.948 . S
C195 C191 1.397 . S
C195 C196 1.394 . S
C195 C214 1.723 . S
C196 C193 1.396 . S
C196 C195 1.394 . S
C196 C226 1.723 . S
H197 C220 0.947 . S
H198 C221 0.948 1_554 S
H199 C227 0.982 . S
H200 C228 0.979 . S
H201 C228 0.980 . S
H202 C228 0.983 . S
H203 C227 0.979 . S
H204 C227 0.977 . S
C205 C193 1.453 1_554 S
C205 H234 0.981 . S
C205 H235 0.979 . S
C205 H236 0.977 . S
C206 C193 1.684 1_554 S
C206 H231 0.979 . S
C206 H232 0.980 . S
C206 H233 0.983 . S
C207 C208 1.391 . S
C207 C212 1.391 . S
C207 H237 0.948 . S
C208 C207 1.391 . S
C208 C209 1.391 . S
C209 C208 1.391 . S
C209 C210 1.392 . S
C209 H238 0.947 . S
C210 C209 1.392 . S
C210 C211 1.419 . S
C210 H239 0.948 . S
C211 C210 1.419 . S
C211 C212 1.391 . S
C211 C215 1.397 . S
C212 C207 1.391 . S
C212 C211 1.391 . S
C212 C213 1.399 . S
C213 C212 1.399 . S
C213 C214 1.396 . S
C213 C216 1.453 . S
C213 C217 1.684 . S
C214 C195 1.723 . S
C214 C213 1.396 . S
C214 C215 1.394 . S
C215 C211 1.397 . S
C215 C214 1.394 . S
C215 C225 1.723 . S
C216 C213 1.453 . S
C216 H240 0.982 . S
C216 H241 0.979 . S
C216 H242 0.977 . S
C217 C213 1.684 . S
C217 H243 0.979 . S
C217 H244 0.980 . S
C217 H245 0.983 . S
C218 H194 0.948 . S
C218 C219 1.391 . S
C218 C223 1.391 . S
C219 C218 1.391 . S
C219 C220 1.391 1_556 S
C220 H197 0.947 . S
C220 C219 1.391 1_554 S
C220 C221 1.392 1_554 S
C221 H198 0.948 1_556 S
C221 C220 1.392 1_556 S
C221 C222 1.419 . S
C222 C221 1.419 . S
C222 C223 1.391 . S
C222 C226 1.397 . S
C223 C218 1.391 . S
C223 C222 1.391 . S
C223 C224 1.399 . S
C224 C223 1.399 . S
C224 C225 1.396 . S
C224 C227 1.453 . S
C224 C228 1.684 . S
C225 C215 1.723 . S
C225 C224 1.396 . S
C225 C226 1.394 . S
C226 C196 1.723 . S
C226 C222 1.397 . S
C226 C225 1.394 . S
C227 H199 0.982 . S
C227 H203 0.979 . S
C227 H204 0.977 . S
C227 C224 1.453 . S
C228 H200 0.979 . S
C228 H201 0.980 . S
C228 H202 0.983 . S
C228 C224 1.684 . S
H229 C247 0.948 . S
H230 C188 0.935 1_554 S
H231 C206 0.979 . S
H232 C206 0.980 . S
H233 C206 0.983 . S
H234 C205 0.981 . S
H235 C205 0.979 . S
H236 C205 0.977 . S
H237 C207 0.948 . S
H238 C209 0.947 . S
H239 C210 0.948 . S
H240 C216 0.982 . S
H241 C216 0.979 . S
H242 C216 0.977 . S
H243 C217 0.979 . S
H244 C217 0.980 . S
H245 C217 0.983 . S
H246 C190 0.947 . S
C247 C190 1.392 . S
C247 C191 1.419 . S
C247 H229 0.948 . S
C248 C249 1.391 . S
C248 C252 1.391 . S
C248 H290 0.948 1_554 S
C249 C248 1.391 . S
C249 C250 1.391 . S
C250 C249 1.391 . S
C250 H306 0.947 . S
C250 C307 1.392 . S
C251 C252 1.391 . S
C251 C255 1.397 . S
C251 C307 1.419 . S
C252 C248 1.391 . S
C252 C251 1.391 . S
C252 C253 1.399 . S
C253 C252 1.399 . S
C253 C256 1.396 . S
C253 C265 1.453 1_554 S
C253 C266 1.684 1_554 S
H254 C278 0.948 . S
C255 C251 1.397 . S
C255 C256 1.394 . S
C255 C274 1.723 . S
C256 C253 1.396 . S
C256 C255 1.394 . S
C256 C286 1.723 . S
H257 C280 0.947 . S
H258 C281 0.948 1_556 S
H259 C287 0.982 . S
H260 C288 0.979 . S
H261 C288 0.980 . S
H262 C288 0.983 . S
H263 C287 0.979 . S
H264 C287 0.977 . S
C265 C253 1.453 1_556 S
C265 H294 0.982 1_556 S
C265 H295 0.979 . S
C265 H296 0.977 . S
C266 C253 1.684 1_556 S
C266 H291 0.979 . S
C266 H292 0.980 . S
C266 H293 0.983 . S
C267 C268 1.391 . S
C267 C272 1.391 . S
C267 H297 0.948 . S
C268 C267 1.391 . S
C268 C269 1.391 . S
C269 C268 1.391 . S
C269 C270 1.392 . S
C269 H298 0.947 . S
C270 C269 1.392 . S
C270 C271 1.419 . S
C270 H299 0.948 . S
C271 C270 1.419 . S
C271 C272 1.391 . S
C271 C275 1.397 . S
C272 C267 1.391 . S
C272 C271 1.391 . S
C272 C273 1.399 . S
C273 C272 1.399 . S
C273 C274 1.396 . S
C273 C276 1.453 . S
C273 C277 1.684 . S
C274 C255 1.723 . S
C274 C273 1.396 . S
C274 C275 1.394 . S
C275 C271 1.397 . S
C275 C274 1.394 . S
C275 C285 1.723 . S
C276 C273 1.453 . S
C276 H300 0.982 . S
C276 H301 0.979 . S
C276 H302 0.977 . S
C277 C273 1.684 . S
C277 H303 0.979 . S
C277 H304 0.980 . S
C277 H305 0.983 . S
C278 H254 0.948 . S
C278 C279 1.391 . S
C278 C283 1.391 . S
C279 C278 1.391 . S
C279 C280 1.391 1_554 S
C280 H257 0.947 . S
C280 C279 1.391 1_556 S
C280 C281 1.392 1_556 S
C281 H258 0.948 1_554 S
C281 C280 1.392 1_554 S
C281 C282 1.419 . S
C282 C281 1.419 . S
C282 C283 1.391 . S
C282 C286 1.397 . S
C283 C278 1.391 . S
C283 C282 1.391 . S
C283 C284 1.399 . S
C284 C283 1.399 . S
C284 C285 1.396 . S
C284 C287 1.453 . S
C284 C288 1.684 . S
C285 C275 1.723 . S
C285 C284 1.396 . S
C285 C286 1.394 . S
C286 C256 1.723 . S
C286 C282 1.397 . S
C286 C285 1.394 . S
C287 H259 0.982 . S
C287 H263 0.979 . S
C287 H264 0.977 . S
C287 C284 1.453 . S
C288 H260 0.979 . S
C288 H261 0.980 . S
C288 H262 0.983 . S
C288 C284 1.684 . S
H289 C307 0.948 . S
H290 C248 0.948 1_556 S
H291 C266 0.979 . S
H292 C266 0.980 . S
H293 C266 0.983 . S
H294 C265 0.982 1_554 S
H295 C265 0.979 . S
H296 C265 0.977 . S
H297 C267 0.948 . S
H298 C269 0.947 . S
H299 C270 0.948 . S
H300 C276 0.982 . S
H301 C276 0.979 . S
H302 C276 0.977 . S
H303 C277 0.979 . S
H304 C277 0.980 . S
H305 C277 0.983 . S
H306 C250 0.947 . S
C307 C250 1.392 . S
C307 C251 1.419 . S
C307 H289 0.948 . S
C308 C309 1.391 1_556 S
C308 C310 1.394 . S
C308 H324 0.931 . S
C309 C308 1.391 1_554 S
C309 C313 1.376 . S
C310 C308 1.394 . S
C310 C311 1.369 1_556 S
C310 C314 1.531 . S
C311 C310 1.369 1_554 S
C311 C312 1.410 . S
C311 C319 1.503 . S
C312 C311 1.410 . S
C312 C313 1.392 . S
C312 C315 1.511 . S
C313 C309 1.376 . S
C313 C312 1.392 . S
C313 H325 0.929 . S
C314 C310 1.531 . S
C314 H326 0.960 . S
C314 H327 0.962 . S
C314 H328 0.960 . S
C315 C312 1.511 . S
C315 H329 0.961 . S
C315 H330 0.961 . S
C315 H331 0.961 . S
C316 C317 1.370 1_556 S
C316 C318 1.363 . S
C316 H332 0.931 . S
C317 C316 1.370 1_554 S
C317 C321 1.408 . S
C318 C316 1.363 . S
C318 C319 1.370 1_556 S
C318 C322 1.524 . S
C319 C311 1.503 . S
C319 C318 1.370 1_554 S
C319 C320 1.403 . S
C320 C319 1.403 . S
C320 C321 1.404 . S
C320 C323 1.539 . S
C321 C317 1.408 . S
C321 C320 1.404 . S
C321 H333 0.930 . S
C322 C318 1.524 . S
C322 H334 0.956 . S
C322 H335 0.961 . S
C322 H336 0.961 . S
C323 C320 1.539 . S
C323 H337 0.958 . S
C323 H338 0.961 . S
C323 H339 0.960 . S
H324 C308 0.931 . S
H325 C313 0.929 . S
H326 C314 0.960 . S
H327 C314 0.962 . S
H328 C314 0.960 . S
H329 C315 0.961 . S
H330 C315 0.961 . S
H331 C315 0.961 . S
H332 C316 0.931 . S
H333 C321 0.930 . S
H334 C322 0.956 . S
H335 C322 0.961 . S
H336 C322 0.961 . S
H337 C323 0.958 . S
H338 C323 0.961 . S
H339 C323 0.960 . S
C340 C341 1.391 1_556 S
C340 C342 1.394 . S
C340 H356 0.931 . S
C341 C340 1.391 1_554 S
C341 C345 1.376 . S
C342 C340 1.394 . S
C342 C343 1.345 1_556 S
C342 C346 1.531 . S
C343 C342 1.345 1_554 S
C343 C344 1.435 . S
C343 C351 1.503 1_554 S
C344 C343 1.435 . S
C344 C345 1.392 . S
C344 C347 1.511 . S
C345 C341 1.376 . S
C345 C344 1.392 . S
C345 H357 0.929 . S
C346 C342 1.531 . S
C346 H358 0.960 . S
C346 H359 0.962 . S
C346 H360 0.960 . S
C347 C344 1.511 . S
C347 H361 0.961 . S
C347 H362 0.961 . S
C347 H363 0.961 . S
C348 C349 1.370 . S
C348 C350 1.363 . S
C348 H364 0.931 . S
C349 C348 1.370 . S
C349 C353 1.407 1_556 S
C350 C348 1.363 . S
C350 C351 1.370 . S
C350 C354 1.524 . S
C351 C343 1.503 1_556 S
C351 C350 1.370 . S
C351 C352 1.403 1_556 S
C352 C351 1.403 1_554 S
C352 C353 1.405 . S
C352 C355 1.539 . S
C353 C349 1.407 1_554 S
C353 C352 1.405 . S
C353 H365 0.931 . S
C354 C350 1.524 . S
C354 H366 0.956 . S
C354 H367 0.961 1_556 S
C354 H368 0.961 . S
C355 C352 1.539 . S
C355 H369 0.958 1_554 S
C355 H370 0.961 . S
C355 H371 0.960 . S
H356 C340 0.931 . S
H357 C345 0.929 . S
H358 C346 0.960 . S
H359 C346 0.962 . S
H360 C346 0.960 . S
H361 C347 0.961 . S
H362 C347 0.961 . S
H363 C347 0.961 . S
H364 C348 0.931 . S
H365 C353 0.931 . S
H366 C354 0.956 . S
H367 C354 0.961 1_554 S
H368 C354 0.961 . S
H369 C355 0.958 1_556 S
H370 C355 0.961 . S
H371 C355 0.960 . S
C372 C373 1.391 . S
C372 C374 1.394 . S
C372 H388 0.931 . S
C373 C372 1.391 . S
C373 C377 1.376 1_554 S
C374 C372 1.394 . S
C374 C375 1.364 1_554 S
C374 C378 1.531 . S
C375 C374 1.364 1_556 S
C375 C376 1.415 . S
C375 C383 1.501 1_556 S
C376 C375 1.415 . S
C376 C377 1.392 . S
C376 C379 1.511 . S
C377 C373 1.376 1_556 S
C377 C376 1.392 . S
C377 H389 0.929 . S
C378 C374 1.531 . S
C378 H390 0.960 . S
C378 H391 0.962 . S
C378 H392 0.960 . S
C379 C376 1.511 . S
C379 H393 0.961 . S
C379 H394 0.961 . S
C379 H395 0.961 . S
C380 C381 1.370 . S
C380 C382 1.363 . S
C380 H396 0.931 . S
C381 C380 1.370 . S
C381 C385 1.408 1_554 S
C382 C380 1.363 . S
C382 C383 1.370 . S
C382 C386 1.524 . S
C383 C375 1.501 1_554 S
C383 C382 1.370 . S
C383 C384 1.403 1_554 S
C384 C383 1.403 1_556 S
C384 C385 1.404 . S
C384 C387 1.539 . S
C385 C381 1.408 1_556 S
C385 C384 1.404 . S
C385 H397 0.930 . S
C386 C382 1.524 . S
C386 H398 0.956 . S
C386 H399 0.961 . S
C386 H400 0.961 . S
C387 C384 1.539 . S
C387 H401 0.958 . S
C387 H402 0.961 . S
C387 H403 0.960 . S
H388 C372 0.931 . S
H389 C377 0.929 . S
H390 C378 0.960 . S
H391 C378 0.962 . S
H392 C378 0.960 . S
H393 C379 0.961 . S
H394 C379 0.961 . S
H395 C379 0.961 . S
H396 C380 0.931 . S
H397 C385 0.930 . S
H398 C386 0.956 . S
H399 C386 0.961 . S
H400 C386 0.961 . S
H401 C387 0.958 . S
H402 C387 0.961 . S
H403 C387 0.960 . S
C404 C405 1.391 1_556 S
C404 C406 1.394 . S
C404 H420 0.931 . S
C405 C404 1.391 1_554 S
C405 C409 1.376 . S
C406 C404 1.394 . S
C406 C407 1.369 1_556 S
C406 C410 1.531 . S
C407 C406 1.369 1_554 S
C407 C408 1.410 . S
C407 C415 1.503 . S
C408 C407 1.410 . S
C408 C409 1.392 . S
C408 C411 1.511 . S
C409 C405 1.376 . S
C409 C408 1.392 . S
C409 H421 0.929 . S
C410 C406 1.531 . S
C410 H422 0.960 . S
C410 H423 0.962 . S
C410 H424 0.960 . S
C411 C408 1.511 . S
C411 H425 0.961 . S
C411 H426 0.961 . S
C411 H427 0.961 . S
C412 C413 1.365 1_556 S
C412 C414 1.363 . S
C412 H428 0.931 . S
C413 C412 1.365 1_554 S
C413 C417 1.413 . S
C414 C412 1.363 . S
C414 C415 1.370 1_556 S
C414 C418 1.524 . S
C415 C407 1.503 . S
C415 C414 1.370 1_554 S
C415 C416 1.403 . S
C416 C415 1.403 . S
C416 C417 1.404 . S
C416 C419 1.539 . S
C417 C413 1.413 . S
C417 C416 1.404 . S
C417 H429 0.930 . S
C418 C414 1.524 . S
C418 H430 0.956 . S
C418 H431 0.961 . S
C418 H432 0.961 . S
C419 C416 1.539 . S
C419 H433 0.958 . S
C419 H434 0.961 . S
C419 H435 0.960 . S
H420 C404 0.931 . S
H421 C409 0.929 . S
H422 C410 0.960 . S
H423 C410 0.962 . S
H424 C410 0.960 . S
H425 C411 0.961 . S
H426 C411 0.961 . S
H427 C411 0.961 . S
H428 C412 0.931 . S
H429 C417 0.930 . S
H430 C418 0.956 . S
H431 C418 0.961 . S
H432 C418 0.961 . S
H433 C419 0.958 . S
H434 C419 0.961 . S
H435 C419 0.960 . S
C436 C437 1.391 . S
C436 C438 1.394 . S
C436 H452 0.931 . S
C437 C436 1.391 . S
C437 C441 1.376 . S
C438 C436 1.394 . S
C438 C439 1.369 . S
C438 C442 1.531 . S
C439 C438 1.369 . S
C439 C440 1.410 . S
C439 C447 1.503 . S
C440 C439 1.410 . S
C440 C441 1.392 . S
C440 C443 1.511 . S
C441 C437 1.376 . S
C441 C440 1.392 . S
C441 H453 0.929 . S
C442 C438 1.531 . S
C442 H454 0.960 . S
C442 H455 0.962 . S
C442 H456 0.960 . S
C443 C440 1.511 . S
C443 H457 0.961 . S
C443 H458 0.961 . S
C443 H459 0.961 . S
C444 C445 1.370 . S
C444 C446 1.363 . S
C444 H460 0.931 . S
C445 C444 1.370 . S
C445 C449 1.408 . S
C446 C444 1.363 . S
C446 C447 1.370 . S
C446 C450 1.524 . S
C447 C439 1.503 . S
C447 C446 1.370 . S
C447 C448 1.403 . S
C448 C447 1.403 . S
C448 C449 1.404 . S
C448 C451 1.539 . S
C449 C445 1.408 . S
C449 C448 1.404 . S
C449 H461 0.930 . S
C450 C446 1.524 . S
C450 H462 0.956 . S
C450 H463 0.961 . S
C450 H464 0.961 . S
C451 C448 1.539 . S
C451 H465 0.958 . S
C451 H466 0.961 . S
C451 H467 0.960 . S
H452 C436 0.931 . S
H453 C441 0.929 . S
H454 C442 0.960 . S
H455 C442 0.962 . S
H456 C442 0.960 . S
H457 C443 0.961 . S
H458 C443 0.961 . S
H459 C443 0.961 . S
H460 C444 0.931 . S
H461 C449 0.930 . S
H462 C450 0.956 . S
H463 C450 0.961 . S
H464 C450 0.961 . S
H465 C451 0.958 . S
H466 C451 0.961 . S
H467 C451 0.960 . S
C468 C469 1.391 . S
C468 C470 1.394 . S
C468 H484 0.931 . S
C469 C468 1.391 . S
C469 C473 1.376 . S
C470 C468 1.394 . S
C470 C471 1.369 . S
C470 C474 1.531 . S
C471 C470 1.369 . S
C471 C472 1.410 . S
C471 C479 1.503 . S
C472 C471 1.410 . S
C472 C473 1.392 . S
C472 C475 1.511 . S
C473 C469 1.376 . S
C473 C472 1.392 . S
C473 H485 0.929 . S
C474 C470 1.531 . S
C474 H486 0.960 . S
C474 H487 0.962 . S
C474 H488 0.960 . S
C475 C472 1.511 . S
C475 H489 0.961 . S
C475 H490 0.961 . S
C475 H491 0.961 . S
C476 C477 1.370 . S
C476 C478 1.363 . S
C476 H492 0.931 . S
C477 C476 1.370 . S
C477 C481 1.408 . S
C478 C476 1.363 . S
C478 C479 1.370 . S
C478 C482 1.524 . S
C479 C471 1.503 . S
C479 C478 1.370 . S
C479 C480 1.403 . S
C480 C479 1.403 . S
C480 C481 1.404 . S
C480 C483 1.539 . S
C481 C477 1.408 . S
C481 C480 1.404 . S
C481 H493 0.930 . S
C482 C478 1.524 . S
C482 H494 0.956 . S
C482 H495 0.961 . S
C482 H496 0.961 . S
C483 C480 1.539 . S
C483 H497 0.958 . S
C483 H498 0.961 . S
C483 H499 0.960 . S
H484 C468 0.931 . S
H485 C473 0.929 . S
H486 C474 0.960 . S
H487 C474 0.962 . S
H488 C474 0.960 . S
H489 C475 0.961 . S
H490 C475 0.961 . S
H491 C475 0.961 . S
H492 C476 0.931 . S
H493 C481 0.930 . S
H494 C482 0.956 . S
H495 C482 0.961 . S
H496 C482 0.961 . S
H497 C483 0.958 . S
H498 C483 0.961 . S
H499 C483 0.960 . S
C500 C501 1.391 . S
C500 C502 1.394 . S
C500 H516 0.931 . S
C501 C500 1.391 . S
C501 C505 1.376 . S
C502 C500 1.394 . S
C502 C503 1.369 . S
C502 C506 1.531 . S
C503 C502 1.369 . S
C503 C504 1.410 . S
C503 C511 1.503 . S
C504 C503 1.410 . S
C504 C505 1.392 . S
C504 C507 1.511 . S
C505 C501 1.376 . S
C505 C504 1.392 . S
C505 H517 0.929 . S
C506 C502 1.531 . S
C506 H518 0.960 . S
C506 H519 0.962 . S
C506 H520 0.960 . S
C507 C504 1.511 . S
C507 H521 0.961 . S
C507 H522 0.961 . S
C507 H523 0.961 . S
C508 C509 1.370 . S
C508 C510 1.363 . S
C508 H524 0.931 . S
C509 C508 1.370 . S
C509 C513 1.408 . S
C510 C508 1.363 . S
C510 C511 1.370 . S
C510 C514 1.524 . S
C511 C503 1.503 . S
C511 C510 1.370 . S
C511 C512 1.403 . S
C512 C511 1.403 . S
C512 C513 1.404 . S
C512 C515 1.539 . S
C513 C509 1.408 . S
C513 C512 1.404 . S
C513 H525 0.930 . S
C514 C510 1.524 . S
C514 H526 0.956 . S
C514 H527 0.961 . S
C514 H528 0.961 . S
C515 C512 1.539 . S
C515 H529 0.958 . S
C515 H530 0.961 . S
C515 H531 0.960 . S
H516 C500 0.931 . S
H517 C505 0.929 . S
H518 C506 0.960 . S
H519 C506 0.962 . S
H520 C506 0.960 . S
H521 C507 0.961 . S
H522 C507 0.961 . S
H523 C507 0.961 . S
H524 C508 0.931 . S
H525 C513 0.930 . S
H526 C514 0.956 . S
H527 C514 0.961 . S
H528 C514 0.961 . S
H529 C515 0.958 . S
H530 C515 0.961 . S
H531 C515 0.960 . S
C532 C533 1.391 . S
C532 C534 1.394 . S
C532 H548 0.931 . S
C533 C532 1.391 . S
C533 C537 1.376 . S
C534 C532 1.394 . S
C534 C535 1.369 . S
C534 C538 1.531 . S
C535 C534 1.369 . S
C535 C536 1.410 . S
C535 C543 1.503 . S
C536 C535 1.410 . S
C536 C537 1.392 . S
C536 C539 1.511 . S
C537 C533 1.376 . S
C537 C536 1.392 . S
C537 H549 0.929 . S
C538 C534 1.531 . S
C538 H550 0.960 . S
C538 H551 0.962 . S
C538 H552 0.960 . S
C539 C536 1.511 . S
C539 H553 0.961 . S
C539 H554 0.961 . S
C539 H555 0.961 . S
C540 C541 1.370 . S
C540 C542 1.363 . S
C540 H556 0.931 . S
C541 C540 1.370 . S
C541 C545 1.408 . S
C542 C540 1.363 . S
C542 C543 1.370 . S
C542 C546 1.524 . S
C543 C535 1.503 . S
C543 C542 1.370 . S
C543 C544 1.403 . S
C544 C543 1.403 . S
C544 C545 1.404 . S
C544 C547 1.539 . S
C545 C541 1.408 . S
C545 C544 1.404 . S
C545 H557 0.930 . S
C546 C542 1.524 . S
C546 H558 0.956 . S
C546 H559 0.961 . S
C546 H560 0.961 . S
C547 C544 1.539 . S
C547 H561 0.958 . S
C547 H562 0.961 . S
C547 H563 0.960 . S
H548 C532 0.931 . S
H549 C537 0.929 . S
H550 C538 0.960 . S
H551 C538 0.962 . S
H552 C538 0.960 . S
H553 C539 0.961 . S
H554 C539 0.961 . S
H555 C539 0.961 . S
H556 C540 0.931 . S
H557 C545 0.930 . S
H558 C546 0.956 . S
H559 C546 0.961 . S
H560 C546 0.961 . S
H561 C547 0.958 . S
H562 C547 0.961 . S
H563 C547 0.960 . S
C564 C565 1.391 . S
C564 C566 1.394 . S
C564 H580 0.931 . S
C565 C564 1.391 . S
C565 C569 1.376 1_445 S
C566 C564 1.394 . S
C566 C567 1.369 1_455 S
C566 C570 1.531 . S
C567 C566 1.369 1_655 S
C567 C568 1.410 1_545 S
C567 C575 1.503 . S
C568 C567 1.410 1_565 S
C568 C569 1.392 . S
C568 C571 1.511 . S
C569 C565 1.376 1_665 S
C569 C568 1.392 . S
C569 H581 0.929 . S
C570 C566 1.531 . S
C570 H582 0.960 . S
C570 H583 0.962 . S
C570 H584 0.960 . S
C571 C568 1.511 . S
C571 H585 0.961 . S
C571 H586 0.961 . S
C571 H587 0.961 . S
C572 C573 1.370 1_465 S
C572 C574 1.363 . S
C572 H588 0.931 . S
C573 C572 1.370 1_645 S
C573 C577 1.408 . S
C574 C572 1.363 . S
C574 C575 1.370 1_465 S
C574 C578 1.524 . S
C575 C567 1.503 . S
C575 C574 1.370 1_645 S
C575 C576 1.403 . S
C576 C575 1.403 . S
C576 C577 1.404 . S
C576 C579 1.539 . S
C577 C573 1.408 . S
C577 C576 1.404 . S
C577 H589 0.930 . S
C578 C574 1.524 . S
C578 H590 0.956 . S
C578 H591 0.961 . S
C578 H592 0.961 . S
C579 C576 1.539 . S
C579 H593 0.958 . S
C579 H594 0.961 . S
C579 H595 0.960 . S
H580 C564 0.931 . S
H581 C569 0.929 . S
H582 C570 0.960 . S
H583 C570 0.962 . S
H584 C570 0.960 . S
H585 C571 0.961 . S
H586 C571 0.961 . S
H587 C571 0.961 . S
H588 C572 0.931 . S
H589 C577 0.930 . S
H590 C578 0.956 . S
H591 C578 0.961 . S
H592 C578 0.961 . S
H593 C579 0.958 . S
H594 C579 0.961 . S
H595 C579 0.960 . S
C596 C597 1.391 1_565 S
C596 C598 1.394 . S
C596 H612 0.931 . S
C597 C596 1.391 1_545 S
C597 C601 1.376 1_455 S
C598 C596 1.394 . S
C598 C599 1.359 1_565 S
C598 C602 1.531 . S
C599 C598 1.359 1_545 S
C599 C600 1.420 1_455 S
C599 C607 1.505 . S
C600 C599 1.420 1_655 S
C600 C601 1.392 . S
C600 C603 1.511 . S
C601 C597 1.376 1_655 S
C601 C600 1.392 . S
C601 H613 0.929 . S
C602 C598 1.531 . S
C602 H614 0.960 . S
C602 H615 0.962 . S
C602 H616 0.960 . S
C603 C600 1.511 . S
C603 H617 0.961 . S
C603 H618 0.961 . S
C603 H619 0.961 . S
C604 C605 1.370 . S
C604 C606 1.363 . S
C604 H620 0.931 . S
C605 C604 1.370 . S
C605 C609 1.408 1_445 S
C606 C604 1.363 . S
C606 C607 1.370 . S
C606 C610 1.524 . S
C607 C599 1.505 . S
C607 C606 1.370 . S
C607 C608 1.403 1_445 S
C608 C607 1.403 1_665 S
C608 C609 1.404 . S
C608 C611 1.539 . S
C609 C605 1.408 1_665 S
C609 C608 1.404 . S
C609 H621 0.930 . S
C610 C606 1.524 . S
C610 H622 0.956 . S
C610 H623 0.961 . S
C610 H624 0.961 . S
C611 C608 1.539 . S
C611 H625 0.958 . S
C611 H626 0.961 . S
C611 H627 0.960 . S
H612 C596 0.931 . S
H613 C601 0.929 . S
H614 C602 0.960 . S
H615 C602 0.962 . S
H616 C602 0.960 . S
H617 C603 0.961 . S
H618 C603 0.961 . S
H619 C603 0.961 . S
H620 C604 0.931 . S
H621 C609 0.930 . S
H622 C610 0.956 . S
H623 C610 0.961 . S
H624 C610 0.961 . S
H625 C611 0.958 . S
H626 C611 0.961 . S
H627 C611 0.960 . S
C628 C629 1.391 . S
C628 C630 1.394 . S
C628 H644 0.931 . S
C629 C628 1.391 . S
C629 C633 1.376 . S
C630 C628 1.394 . S
C630 C631 1.369 . S
C630 C634 1.531 . S
C631 C630 1.369 . S
C631 C632 1.410 . S
C631 C639 1.503 . S
C632 C631 1.410 . S
C632 C633 1.392 . S
C632 C635 1.511 . S
C633 C629 1.376 . S
C633 C632 1.392 . S
C633 H645 0.929 . S
C634 C630 1.531 . S
C634 H646 0.960 . S
C634 H647 0.962 . S
C634 H648 0.960 . S
C635 C632 1.511 . S
C635 H649 0.961 . S
C635 H650 0.961 . S
C635 H651 0.961 . S
C636 C637 1.370 . S
C636 C638 1.363 . S
C636 H652 0.931 . S
C637 C636 1.370 . S
C637 C641 1.408 . S
C638 C636 1.363 . S
C638 C639 1.370 . S
C638 C642 1.524 . S
C639 C631 1.503 . S
C639 C638 1.370 . S
C639 C640 1.403 . S
C640 C639 1.403 . S
C640 C641 1.404 . S
C640 C643 1.539 . S
C641 C637 1.408 . S
C641 C640 1.404 . S
C641 H653 0.930 . S
C642 C638 1.524 . S
C642 H654 0.956 . S
C642 H655 0.961 . S
C642 H656 0.961 . S
C643 C640 1.539 . S
C643 H657 0.958 . S
C643 H658 0.961 . S
C643 H659 0.960 . S
H644 C628 0.931 . S
H645 C633 0.929 . S
H646 C634 0.960 . S
H647 C634 0.962 . S
H648 C634 0.960 . S
H649 C635 0.961 . S
H650 C635 0.961 . S
H651 C635 0.961 . S
H652 C636 0.931 . S
H653 C641 0.930 . S
H654 C642 0.956 . S
H655 C642 0.961 . S
H656 C642 0.961 . S
H657 C643 0.958 . S
H658 C643 0.961 . S
H659 C643 0.960 . S
C660 C661 1.391 . S
C660 C662 1.394 . S
C660 H676 0.931 . S
C661 C660 1.391 . S
C661 C665 1.376 . S
C662 C660 1.394 . S
C662 C663 1.369 . S
C662 C666 1.531 . S
C663 C662 1.369 . S
C663 C664 1.410 . S
C663 C671 1.503 . S
C664 C663 1.410 . S
C664 C665 1.392 . S
C664 C667 1.511 . S
C665 C661 1.376 . S
C665 C664 1.392 . S
C665 H677 0.929 . S
C666 C662 1.531 . S
C666 H678 0.960 . S
C666 H679 0.962 . S
C666 H680 0.960 . S
C667 C664 1.511 . S
C667 H681 0.961 . S
C667 H682 0.961 . S
C667 H683 0.961 . S
C668 C669 1.370 . S
C668 C670 1.363 . S
C668 H684 0.931 . S
C669 C668 1.370 . S
C669 C673 1.408 . S
C670 C668 1.363 . S
C670 C671 1.370 . S
C670 C674 1.524 . S
C671 C663 1.503 . S
C671 C670 1.370 . S
C671 C672 1.403 . S
C672 C671 1.403 . S
C672 C673 1.404 . S
C672 C675 1.539 . S
C673 C669 1.408 . S
C673 C672 1.404 . S
C673 H685 0.930 . S
C674 C670 1.524 . S
C674 H686 0.956 . S
C674 H687 0.961 . S
C674 H688 0.961 . S
C675 C672 1.539 . S
C675 H689 0.958 . S
C675 H690 0.961 . S
C675 H691 0.960 . S
H676 C660 0.931 . S
H677 C665 0.929 . S
H678 C666 0.960 . S
H679 C666 0.962 . S
H680 C666 0.960 . S
H681 C667 0.961 . S
H682 C667 0.961 . S
H683 C667 0.961 . S
H684 C668 0.931 . S
H685 C673 0.930 . S
H686 C674 0.956 . S
H687 C674 0.961 . S
H688 C674 0.961 . S
H689 C675 0.958 . S
H690 C675 0.961 . S
H691 C675 0.960 . S
C317 C279 1.475 . S
C309 C29 1.494 . S
C341 C8 1.472 . S
C349 C219 1.476 . S
C373 C0 1.466 . S
C381 C249 1.370 . S
C405 C17 1.480 . S
C413 C189 1.379 1_554 S
C437 C63 1.497 . S
C445 C159 1.480 . S
C469 C42 1.477 . S
C477 C99 1.467 . S
C509 C129 1.371 . S
C501 C34 1.466 . S
C541 C69 1.385 . S
C533 C51 1.484 . S
C565 C4 1.479 . S
C573 C88 1.456 . S
C597 C13 1.473 . S
C605 C148 1.448 . S
C637 C208 1.472 . S
C629 C38 1.482 . S
C661 C47 1.473 . S
C669 C268 1.447 . S
