# Generated by pormake.
# Topology cml, (3,6)-cn, num edge types: 1
# Building blocks:
#     Node 0, Type 0, BuildingBlock: MIDCAF_clean_linker_0, # of connection points: 3
#     Node 1, Type 0, BuildingBlock: MIDCAF_clean_linker_0, # of connection points: 3
#     Node 2, Type 0, BuildingBlock: MIDCAF_clean_linker_0, # of connection points: 3
#     Node 3, Type 0, BuildingBlock: MIDCAF_clean_linker_0, # of connection points: 3
#     Node 4, Type 0, BuildingBlock: MIDCAF_clean_linker_0, # of connection points: 3
#     Node 5, Type 0, BuildingBlock: MIDCAF_clean_linker_0, # of connection points: 3
#     Node 6, Type 0, BuildingBlock: MIDCAF_clean_linker_0, # of connection points: 3
#     Node 7, Type 0, BuildingBlock: MIDCAF_clean_linker_0, # of connection points: 3
#     Node 8, Type 1, BuildingBlock: IZENUY_clean_sbu_0, # of connection points: 6
#     Node 9, Type 1, BuildingBlock: IZENUY_clean_sbu_0, # of connection points: 6
#     Node 10, Type 1, BuildingBlock: IZENUY_clean_sbu_0, # of connection points: 6
#     Node 11, Type 1, BuildingBlock: IZENUY_clean_sbu_0, # of connection points: 6
#     Edge 12, Type (0, 1), BuildingBlock: XIVTED_clean_linker_0, # of connection points: 2
#     Edge 13, Type (0, 1), BuildingBlock: XIVTED_clean_linker_0, # of connection points: 2
#     Edge 14, Type (0, 1), BuildingBlock: XIVTED_clean_linker_0, # of connection points: 2
#     Edge 15, Type (0, 1), BuildingBlock: XIVTED_clean_linker_0, # of connection points: 2
#     Edge 16, Type (0, 1), BuildingBlock: XIVTED_clean_linker_0, # of connection points: 2
#     Edge 17, Type (0, 1), BuildingBlock: XIVTED_clean_linker_0, # of connection points: 2
#     Edge 18, Type (0, 1), BuildingBlock: XIVTED_clean_linker_0, # of connection points: 2
#     Edge 19, Type (0, 1), BuildingBlock: XIVTED_clean_linker_0, # of connection points: 2
#     Edge 20, Type (0, 1), BuildingBlock: XIVTED_clean_linker_0, # of connection points: 2
#     Edge 21, Type (0, 1), BuildingBlock: XIVTED_clean_linker_0, # of connection points: 2
#     Edge 22, Type (0, 1), BuildingBlock: XIVTED_clean_linker_0, # of connection points: 2
#     Edge 23, Type (0, 1), BuildingBlock: XIVTED_clean_linker_0, # of connection points: 2
#     Edge 24, Type (0, 1), BuildingBlock: XIVTED_clean_linker_0, # of connection points: 2
#     Edge 25, Type (0, 1), BuildingBlock: XIVTED_clean_linker_0, # of connection points: 2
#     Edge 26, Type (0, 1), BuildingBlock: XIVTED_clean_linker_0, # of connection points: 2
#     Edge 27, Type (0, 1), BuildingBlock: XIVTED_clean_linker_0, # of connection points: 2
#     Edge 28, Type (0, 1), BuildingBlock: XIVTED_clean_linker_0, # of connection points: 2
#     Edge 29, Type (0, 1), BuildingBlock: XIVTED_clean_linker_0, # of connection points: 2
#     Edge 30, Type (0, 1), BuildingBlock: XIVTED_clean_linker_0, # of connection points: 2
#     Edge 31, Type (0, 1), BuildingBlock: XIVTED_clean_linker_0, # of connection points: 2
#     Edge 32, Type (0, 1), BuildingBlock: XIVTED_clean_linker_0, # of connection points: 2
#     Edge 33, Type (0, 1), BuildingBlock: XIVTED_clean_linker_0, # of connection points: 2
#     Edge 34, Type (0, 1), BuildingBlock: XIVTED_clean_linker_0, # of connection points: 2
#     Edge 35, Type (0, 1), BuildingBlock: XIVTED_clean_linker_0, # of connection points: 2
# Relax obj value: 0.057
# Max RMSD: 0.072
# Mean RMSD: 0.069
data_MOF--net-cml--node1-IZENUY_clean_sbu_0--node2-MIDCAF_clean_linker_0--edge1-XIVTED_clean_linker_0
_symmetry_space_group_name_H-M    P1
_symmetry_Int_Tables_number       1
_symmetry_cell_setting            triclinic
loop_
_symmetry_equiv_pos_as_xyz
'x, y, z'
_cell_length_a     43.349782
_cell_length_b     50.32998
_cell_length_c     46.837343
_cell_angle_alpha  89.970367
_cell_angle_beta   90.043299
_cell_angle_gamma 90.106346
loop_
_atom_site_label
_atom_site_type_symbol
_atom_site_fract_x
_atom_site_fract_y
_atom_site_fract_z
_atom_type_partial_charge
C0 C 0.32443 0.3947 0.10393 0.0
C1 C 0.32031 0.36943 0.11611 0.0
C2 C 0.30335 0.35022 0.10094 0.0
C3 C 0.29112 0.35609 0.07401 0.0
H4 H 0.23993 0.32487 0.00733 0.0
H5 H 0.20637 0.29398 0.98222 0.0
H6 H 0.19317 0.35168 0.91499 0.0
H7 H 0.22737 0.38242 0.93969 0.0
H8 H 0.268 0.43424 0.93912 0.0
H9 H 0.28833 0.47333 0.91477 0.0
H10 H 0.34288 0.49246 0.98926 0.0
H11 H 0.32214 0.45399 0.01382 0.0
H12 H 0.31641 0.42014 0.06828 0.0
H13 H 0.33776 0.40983 0.11483 0.0
H14 H 0.29958 0.33063 0.10988 0.0
H15 H 0.27843 0.34076 0.06277 0.0
N16 N 0.26611 0.36982 0.01817 0.0
N17 N 0.26475 0.39851 0.97867 0.0
N18 N 0.29267 0.41037 0.01952 0.0
C19 C 0.25615 0.37532 0.99125 0.0
C20 C 0.28303 0.41613 0.99266 0.0
C21 C 0.28432 0.38733 0.03248 0.0
C22 C 0.23624 0.35624 0.97567 0.0
C23 C 0.22998 0.33101 0.98717 0.0
C24 C 0.21062 0.3133 0.9728 0.0
C25 C 0.19691 0.32043 0.94668 0.0
C26 C 0.20362 0.34545 0.93491 0.0
C27 C 0.22309 0.36315 0.94921 0.0
C28 C 0.29358 0.4408 0.9784 0.0
C29 C 0.2841 0.44692 0.95042 0.0
C30 C 0.29584 0.46927 0.93639 0.0
C31 C 0.31729 0.48598 0.95002 0.0
C32 C 0.32605 0.48026 0.97826 0.0
C33 C 0.3143 0.458 0.99229 0.0
C34 C 0.29579 0.38125 0.0616 0.0
C35 C 0.31236 0.40053 0.07704 0.0
C36 C 0.67513 0.60228 0.60101 0.0
C37 C 0.67785 0.62765 0.61325 0.0
C38 C 0.69448 0.64737 0.59857 0.0
C39 C 0.70777 0.64191 0.57201 0.0
H40 H 0.75413 0.67637 0.50355 0.0
H41 H 0.78663 0.70869 0.47935 0.0
H42 H 0.81725 0.64777 0.42085 0.0
H43 H 0.78375 0.61573 0.44434 0.0
H44 H 0.73202 0.56755 0.43522 0.0
H45 H 0.71147 0.52896 0.40998 0.0
H46 H 0.6631 0.50482 0.48637 0.0
H47 H 0.684 0.54272 0.51169 0.0
H48 H 0.68525 0.57715 0.56559 0.0
H49 H 0.66211 0.58675 0.61158 0.0
H50 H 0.69717 0.66705 0.60759 0.0
H51 H 0.72016 0.65762 0.56111 0.0
N52 N 0.73543 0.62888 0.51718 0.0
N53 N 0.7384 0.60078 0.47726 0.0
N54 N 0.70929 0.58814 0.51712 0.0
C55 C 0.74636 0.62383 0.49052 0.0
C56 C 0.71979 0.58284 0.49044 0.0
C57 C 0.71699 0.61103 0.53068 0.0
C58 C 0.76635 0.64344 0.4759 0.0
C59 C 0.76779 0.66986 0.48551 0.0
C60 C 0.78658 0.6884 0.47169 0.0
C61 C 0.8047 0.6809 0.44814 0.0
C62 C 0.80323 0.65443 0.43857 0.0
C63 C 0.78415 0.63597 0.45218 0.0
C64 C 0.70953 0.55841 0.47548 0.0
C65 C 0.7173 0.55383 0.44673 0.0
C66 C 0.7054 0.53179 0.43219 0.0
C67 C 0.6856 0.51382 0.44612 0.0
C68 C 0.67865 0.518 0.47507 0.0
C69 C 0.69048 0.53996 0.48956 0.0
C70 C 0.70447 0.61665 0.55949 0.0
C71 C 0.68823 0.59686 0.57446 0.0
C72 C 0.66767 0.39039 0.1029 0.0
C73 C 0.67374 0.3658 0.11595 0.0
C74 C 0.69286 0.34753 0.10183 0.0
C75 C 0.7056 0.35375 0.0752 0.0
H76 H 0.75141 0.32122 0.00566 0.0
H77 H 0.78574 0.29025 0.98191 0.0
H78 H 0.81661 0.353 0.9256 0.0
H79 H 0.78121 0.38374 0.94865 0.0
H80 H 0.72572 0.42946 0.93862 0.0
H81 H 0.7041 0.46764 0.91359 0.0
H82 H 0.65665 0.49128 0.99054 0.0
H83 H 0.67853 0.45357 0.0157 0.0
H84 H 0.67483 0.41568 0.06696 0.0
H85 H 0.65259 0.40474 0.11295 0.0
H86 H 0.69811 0.32848 0.11144 0.0
H87 H 0.72016 0.3392 0.06485 0.0
N88 N 0.73138 0.3679 0.02001 0.0
N89 N 0.73406 0.39675 0.98069 0.0
N90 N 0.70362 0.40776 0.02024 0.0
C91 C 0.74263 0.37375 0.99366 0.0
C92 C 0.71449 0.41387 0.99386 0.0
C93 C 0.71196 0.38488 0.03351 0.0
C94 C 0.76362 0.35498 0.97911 0.0
C95 C 0.76551 0.32843 0.98821 0.0
C96 C 0.78536 0.31068 0.97465 0.0
C97 C 0.80417 0.3191 0.9519 0.0
C98 C 0.80217 0.34567 0.94274 0.0
C99 C 0.78199 0.36337 0.95609 0.0
C100 C 0.70368 0.43824 0.97915 0.0
C101 C 0.71097 0.44295 0.95033 0.0
C102 C 0.69847 0.46477 0.93591 0.0
C103 C 0.67854 0.48241 0.95003 0.0
C104 C 0.67219 0.47824 0.9791 0.0
C105 C 0.68458 0.45643 0.99348 0.0
C106 C 0.69931 0.37833 0.06207 0.0
C107 C 0.68028 0.39658 0.07634 0.0
C108 C 0.31237 0.60428 0.6146 0.0
C109 C 0.30729 0.62977 0.62584 0.0
C110 C 0.28898 0.64773 0.61029 0.0
C111 C 0.2765 0.64043 0.58382 0.0
H112 H 0.20461 0.65509 0.52315 0.0
H113 H 0.1712 0.68509 0.49684 0.0
H114 H 0.19965 0.64871 0.41754 0.0
H115 H 0.23226 0.61799 0.444 0.0
H116 H 0.25563 0.55129 0.45649 0.0
H117 H 0.28278 0.51505 0.43204 0.0
H118 H 0.35709 0.52079 0.49302 0.0
H119 H 0.33011 0.55635 0.51776 0.0
H120 H 0.30507 0.57736 0.58014 0.0
H121 H 0.32677 0.59008 0.62574 0.0
H122 H 0.28452 0.66747 0.61849 0.0
H123 H 0.26295 0.65484 0.57211 0.0
N124 N 0.25116 0.62308 0.52885 0.0
N125 N 0.25501 0.59491 0.48899 0.0
N126 N 0.28387 0.58615 0.53021 0.0
C127 C 0.24261 0.61671 0.50172 0.0
C128 C 0.27564 0.57951 0.5032 0.0
C129 C 0.27173 0.60777 0.54326 0.0
C130 C 0.22125 0.63419 0.48571 0.0
C131 C 0.20368 0.65339 0.50011 0.0
C132 C 0.18465 0.67075 0.48496 0.0
C133 C 0.18295 0.66958 0.45498 0.0
C134 C 0.20011 0.65004 0.44061 0.0
C135 C 0.21894 0.63247 0.45581 0.0
C136 C 0.29076 0.55675 0.489 0.0
C137 C 0.27763 0.54464 0.46479 0.0
C138 C 0.29299 0.52387 0.45092 0.0
C139 C 0.32193 0.51535 0.46073 0.0
C140 C 0.3348 0.52714 0.48509 0.0
C141 C 0.31927 0.54745 0.49924 0.0
C142 C 0.28239 0.61512 0.57229 0.0
C143 C 0.30011 0.59705 0.58822 0.0
C144 C 0.80868 0.89858 0.11071 0.0
C145 C 0.81669 0.8728 0.11962 0.0
C146 C 0.80794 0.85111 0.10246 0.0
C147 C 0.79333 0.85528 0.07618 0.0
H148 H 0.71954 0.83029 0.01559 0.0
H149 H 0.68811 0.79866 0.98921 0.0
H150 H 0.71839 0.83376 0.90972 0.0
H151 H 0.74887 0.86605 0.93616 0.0
H152 H 0.78968 0.91929 0.93835 0.0
H153 H 0.81484 0.95673 0.91504 0.0
H154 H 0.81804 0.9985 0.99566 0.0
H155 H 0.79423 0.96055 0.01912 0.0
H156 H 0.7899 0.92296 0.07762 0.0
H157 H 0.81421 0.91571 0.12375 0.0
H158 H 0.81385 0.83099 0.10854 0.0
H159 H 0.78821 0.83827 0.06281 0.0
N160 N 0.76149 0.86717 0.02201 0.0
N161 N 0.76332 0.89379 0.98086 0.0
N162 N 0.78569 0.90886 0.0234 0.0
C163 C 0.75422 0.87105 0.99406 0.0
C164 C 0.77891 0.91284 0.99544 0.0
C165 C 0.77721 0.88607 0.0368 0.0
C166 C 0.73656 0.8508 0.97801 0.0
C167 C 0.71963 0.83117 0.99248 0.0
C168 C 0.70173 0.8129 0.9773 0.0
C169 C 0.70064 0.81363 0.94728 0.0
C170 C 0.7182 0.8329 0.93282 0.0
C171 C 0.73581 0.85135 0.94801 0.0
C172 C 0.7904 0.93683 0.98065 0.0
C173 C 0.79545 0.93661 0.95102 0.0
C174 C 0.80975 0.95817 0.93761 0.0
C175 C 0.81891 0.98055 0.9535 0.0
C176 C 0.81212 0.98131 0.98286 0.0
C177 C 0.79829 0.95961 0.99632 0.0
C178 C 0.78755 0.88122 0.06643 0.0
C179 C 0.79456 0.90275 0.08433 0.0
C180 C 0.17821 0.09971 0.60744 0.0
C181 C 0.17966 0.12565 0.6184 0.0
C182 C 0.19543 0.14528 0.60277 0.0
C183 C 0.20916 0.1391 0.57657 0.0
H184 H 0.26253 0.17003 0.51185 0.0
H185 H 0.29473 0.20199 0.48682 0.0
H186 H 0.31248 0.1441 0.42078 0.0
H187 H 0.27962 0.11223 0.44542 0.0
H188 H 0.23912 0.05952 0.44428 0.0
H189 H 0.21958 0.0201 0.42001 0.0
H190 H 0.1683 0.99851 0.49563 0.0
H191 H 0.18823 0.03738 0.5201 0.0
H192 H 0.18974 0.07341 0.57339 0.0
H193 H 0.16587 0.08421 0.61876 0.0
H194 H 0.19713 0.16541 0.61079 0.0
H195 H 0.22087 0.15474 0.56493 0.0
N196 N 0.23797 0.12458 0.52266 0.0
N197 N 0.24213 0.09508 0.48406 0.0
N198 N 0.21338 0.08314 0.5244 0.0
C199 C 0.24917 0.11885 0.49625 0.0
C200 C 0.22424 0.07711 0.49803 0.0
C201 C 0.22013 0.10677 0.53691 0.0
C202 C 0.26854 0.13844 0.48078 0.0
C203 C 0.27322 0.16405 0.49198 0.0
C204 C 0.29182 0.18239 0.47766 0.0
C205 C 0.30634 0.17558 0.45186 0.0
C206 C 0.30136 0.15011 0.44044 0.0
C207 C 0.28265 0.13176 0.45471 0.0
C208 C 0.21499 0.05187 0.48407 0.0
C209 C 0.22399 0.0462 0.45588 0.0
C210 C 0.2127 0.02365 0.44191 0.0
C211 C 0.1922 0.00625 0.4558 0.0
C212 C 0.18431 0.0113 0.48437 0.0
C213 C 0.19558 0.0338 0.49834 0.0
C214 C 0.20716 0.11322 0.56536 0.0
C215 C 0.19173 0.09357 0.58126 0.0
C216 C 0.16338 0.88251 0.09344 0.0
C217 C 0.17864 0.86584 0.11283 0.0
C218 C 0.20906 0.85794 0.10716 0.0
C219 C 0.22375 0.86616 0.08203 0.0
H220 H 0.28647 0.83934 0.01954 0.0
H221 H 0.32127 0.80915 0.99506 0.0
H222 H 0.31393 0.85654 0.9184 0.0
H223 H 0.27979 0.88716 0.94303 0.0
H224 H 0.23821 0.9383 0.9424 0.0
H225 H 0.21539 0.97599 0.91738 0.0
H226 H 0.16335 0.99594 0.99297 0.0
H227 H 0.18633 0.95873 0.01811 0.0
H228 H 0.16572 0.90396 0.05416 0.0
H229 H 0.13998 0.889 0.09754 0.0
H230 H 0.22122 0.84508 0.1219 0.0
H231 H 0.2471 0.85957 0.07791 0.0
N232 N 0.24544 0.87627 0.02335 0.0
N233 N 0.24761 0.90579 0.98457 0.0
N234 N 0.21366 0.91386 0.02242 0.0
C235 C 0.25764 0.88328 0.99767 0.0
C236 C 0.22579 0.92131 0.99694 0.0
C237 C 0.22337 0.89147 0.03578 0.0
C238 C 0.28018 0.86568 0.98327 0.0
C239 C 0.29237 0.84345 0.99751 0.0
C240 C 0.3122 0.826 0.9834 0.0
C241 C 0.32022 0.83028 0.95468 0.0
C242 C 0.30851 0.85279 0.94061 0.0
C243 C 0.28879 0.87031 0.95475 0.0
C244 C 0.21394 0.94529 0.98223 0.0
C245 C 0.22217 0.95089 0.95381 0.0
C246 C 0.209 0.97242 0.9394 0.0
C247 C 0.1875 0.98889 0.95316 0.0
C248 C 0.18011 0.98383 0.98185 0.0
C249 C 0.19313 0.96229 0.9962 0.0
C250 C 0.20846 0.88294 0.06263 0.0
C251 C 0.17822 0.89118 0.06874 0.0
C252 C 0.82891 0.1061 0.60278 0.0
C253 C 0.82172 0.12986 0.61701 0.0
C254 C 0.80248 0.14841 0.60336 0.0
C255 C 0.79093 0.14335 0.57595 0.0
H256 H 0.72903 0.16969 0.51443 0.0
H257 H 0.69326 0.19973 0.49089 0.0
H258 H 0.70376 0.15596 0.41217 0.0
H259 H 0.739 0.12548 0.4358 0.0
H260 H 0.78057 0.07376 0.43424 0.0
H261 H 0.8036 0.03634 0.40887 0.0
H262 H 0.85248 0.01386 0.48556 0.0
H263 H 0.82924 0.05059 0.51097 0.0
H264 H 0.82394 0.08264 0.56519 0.0
H265 H 0.84409 0.09157 0.61242 0.0
H266 H 0.79636 0.16683 0.61386 0.0
H267 H 0.77639 0.15814 0.56592 0.0
N268 N 0.76784 0.13128 0.51881 0.0
N269 N 0.77003 0.10526 0.47724 0.0
N270 N 0.79881 0.09326 0.5175 0.0
C271 C 0.75873 0.12672 0.49142 0.0
C272 C 0.79007 0.0884 0.49018 0.0
C273 C 0.78788 0.11458 0.532 0.0
C274 C 0.73697 0.1451 0.47707 0.0
C275 C 0.72376 0.16641 0.49211 0.0
C276 C 0.70336 0.18377 0.47855 0.0
C277 C 0.6957 0.18031 0.44962 0.0
C278 C 0.70886 0.159 0.43458 0.0
C279 C 0.72922 0.14159 0.44813 0.0
C280 C 0.80304 0.06529 0.47468 0.0
C281 C 0.79606 0.06073 0.44574 0.0
C282 C 0.80937 0.03936 0.43114 0.0
C283 C 0.82979 0.02206 0.44521 0.0
C284 C 0.83644 0.0265 0.47418 0.0
C285 C 0.82323 0.04778 0.48872 0.0
C286 C 0.79859 0.11971 0.56158 0.0
C287 C 0.81751 0.10109 0.57548 0.0
Fe288 Fe 0.00086 0.81158 0.31423 0.0
Fe289 Fe 0.00347 0.84172 0.37136 0.0
O290 O 0.00423 0.84179 0.33357 0.0
Fe291 Fe 0.00844 0.8722 0.31499 0.0
O292 O 0.98561 0.86181 0.28405 0.0
O293 O 0.96623 0.82309 0.29608 0.0
O294 O 0.97538 0.79538 0.34031 0.0
C295 C 0.95877 0.80481 0.36009 0.0
C296 C 0.04624 0.84052 0.28353 0.0
O297 O 0.96567 0.82647 0.37198 0.0
C298 C 0.04858 0.87866 0.36201 0.0
O299 O 0.03514 0.79799 0.3311 0.0
O300 O 0.02284 0.80963 0.37494 0.0
O301 O 0.04404 0.86104 0.29881 0.0
O302 O 0.02587 0.82243 0.28465 0.0
C303 C 0.96761 0.88662 0.35653 0.0
O304 O 0.04138 0.85692 0.37359 0.0
O305 O 0.03203 0.88836 0.34239 0.0
C306 C 0.03943 0.79659 0.35772 0.0
O307 O 0.9838 0.87384 0.37437 0.0
O308 O 0.97306 0.8852 0.33012 0.0
C309 C 0.96495 0.84418 0.28155 0.0
Fe310 Fe -0.00066 0.15691 0.8739 0.0
Fe311 Fe -5e-05 0.12484 0.81857 0.0
O312 O -0.00067 0.15593 0.83615 0.0
Fe313 Fe -0.00115 0.18598 0.81628 0.0
O314 O 0.0346 0.19735 0.83274 0.0
O315 O 0.02025 0.18829 0.87654 0.0
O316 O 0.0363 0.14023 0.87562 0.0
C317 C 0.04159 0.11786 0.86455 0.0
C318 C 0.95731 0.19554 0.86209 0.0
O319 O 0.02354 0.10829 0.84588 0.0
C320 C 0.95879 0.15542 0.78502 0.0
O321 O 0.97828 0.12567 0.87854 0.0
O322 O 0.96407 0.1145 0.83529 0.0
O323 O 0.97486 0.20398 0.84235 0.0
O324 O 0.96254 0.17367 0.87434 0.0
C325 C 0.04018 0.15314 0.78527 0.0
O326 O 0.97674 0.13583 0.78813 0.0
O327 O 0.96323 0.17685 0.79837 0.0
C328 C 0.96017 0.11346 0.86193 0.0
O329 O 0.03568 0.13298 0.8007 0.0
O330 O 0.02249 0.17312 0.78674 0.0
C331 C 0.03848 0.19955 0.85933 0.0
Fe332 Fe 0.49662 0.31231 0.31694 0.0
Fe333 Fe 0.49975 0.34287 0.37368 0.0
O334 O 0.49807 0.3428 0.33596 0.0
Fe335 Fe 0.49784 0.37336 0.31727 0.0
O336 O 0.46067 0.36587 0.30159 0.0
O337 O 0.47241 0.32536 0.28783 0.0
O338 O 0.46117 0.3024 0.33476 0.0
C339 C 0.45797 0.30105 0.3615 0.0
C340 C 0.53644 0.34105 0.28369 0.0
O341 O 0.47676 0.31262 0.37803 0.0
C342 C 0.54103 0.38397 0.35808 0.0
O343 O 0.52058 0.29395 0.34272 0.0
O344 O 0.53547 0.32441 0.37346 0.0
O345 O 0.51848 0.36066 0.28618 0.0
O346 O 0.53203 0.32003 0.29781 0.0
C347 C 0.45986 0.38388 0.36497 0.0
O348 O 0.52339 0.37307 0.37619 0.0
O349 O 0.53508 0.38274 0.33177 0.0
C350 C 0.53923 0.30215 0.36166 0.0
O351 O 0.46395 0.36145 0.37635 0.0
O352 O 0.47726 0.39179 0.34503 0.0
C353 C 0.455 0.34557 0.28669 0.0
Fe354 Fe 0.49961 0.65806 0.87023 0.0
Fe355 Fe 0.49875 0.6264 0.81448 0.0
O356 O 0.49937 0.6573 0.83248 0.0
Fe357 Fe 0.49978 0.68742 0.81267 0.0
O358 O 0.53635 0.69729 0.8283 0.0
O359 O 0.52326 0.68814 0.87262 0.0
O360 O 0.53526 0.63942 0.87198 0.0
C361 C 0.5394 0.61699 0.86073 0.0
C362 C 0.46018 0.69897 0.85923 0.0
O363 O 0.52133 0.60855 0.84151 0.0
C364 C 0.4578 0.65817 0.78244 0.0
O365 O 0.476 0.62806 0.87459 0.0
O366 O 0.46257 0.61705 0.83094 0.0
O367 O 0.47785 0.70655 0.83926 0.0
O368 O 0.46404 0.67675 0.87109 0.0
C369 C 0.53954 0.65375 0.78122 0.0
O370 O 0.47597 0.63857 0.78428 0.0
O371 O 0.46316 0.67946 0.79578 0.0
C372 C 0.45783 0.61646 0.85746 0.0
O373 O 0.53487 0.63375 0.79683 0.0
O374 O 0.5219 0.67378 0.78253 0.0
C375 C 0.5415 0.69864 0.85478 0.0
H376 H 0.19033 0.30981 0.88924 0.0
H377 H 0.05165 0.20779 0.91536 0.0
H378 H 0.15245 0.28986 0.97176 0.0
H379 H 0.08091 0.23095 0.83075 0.0
H380 H 0.09063 0.23657 0.93566 0.0
H381 H 0.15234 0.28027 0.8668 0.0
C382 C 0.17403 0.29928 0.90263 0.0
C383 C 0.17469 0.30224 0.93247 0.0
C384 C 0.08863 0.23549 0.91264 0.0
C385 C 0.13146 0.26835 0.90698 0.0
C386 C 0.06627 0.21899 0.90094 0.0
C387 C 0.06278 0.21703 0.87122 0.0
C388 C 0.10793 0.25029 0.89462 0.0
C389 C 0.0827 0.23194 0.85378 0.0
C390 C 0.15247 0.28236 0.88981 0.0
C391 C 0.15325 0.28788 0.94876 0.0
N392 N 0.10446 0.24803 0.86576 0.0
N393 N 0.13259 0.27162 0.93581 0.0
H394 H 0.81832 0.68546 0.39093 0.0
H395 H 0.92757 0.81212 0.41031 0.0
H396 H 0.83842 0.72112 0.47278 0.0
H397 H 0.93187 0.76058 0.33672 0.0
H398 H 0.88813 0.7832 0.43094 0.0
H399 H 0.85392 0.7168 0.36846 0.0
C400 C 0.83024 0.69977 0.40424 0.0
C401 C 0.82538 0.70046 0.4339 0.0
C402 C 0.89765 0.7783 0.41024 0.0
C403 C 0.86564 0.73678 0.4081 0.0
C404 C 0.92007 0.79484 0.39837 0.0
C405 C 0.93325 0.78864 0.37183 0.0
C406 C 0.88807 0.75554 0.39535 0.0
C407 C 0.92255 0.76599 0.35735 0.0
C408 C 0.85041 0.71775 0.39133 0.0
C409 C 0.84099 0.71996 0.44984 0.0
N410 N 0.90059 0.75023 0.36932 0.0
N411 N 0.86039 0.73732 0.43674 0.0
H412 H 0.83812 0.27963 0.9773 0.0
H413 H 0.93383 0.24117 0.83854 0.0
H414 H 0.82055 0.31569 0.89516 0.0
H415 H 0.92542 0.18985 0.91208 0.0
H416 H 0.89551 0.271 0.85966 0.0
H417 H 0.87358 0.24877 0.95453 0.0
C418 C 0.84143 0.28096 0.95444 0.0
C419 C 0.82606 0.3003 0.93816 0.0
C420 C 0.90198 0.25311 0.87103 0.0
C421 C 0.86737 0.26525 0.91204 0.0
C422 C 0.92388 0.23612 0.85905 0.0
C423 C 0.93296 0.21303 0.87361 0.0
C424 C 0.88943 0.24713 0.89791 0.0
C425 C 0.91916 0.20742 0.90006 0.0
C426 C 0.86186 0.26338 0.94148 0.0
C427 C 0.83211 0.3014 0.90869 0.0
N428 N 0.8983 0.22446 0.91144 0.0
N429 N 0.85238 0.28418 0.89658 0.0
H430 H 0.17435 0.72242 0.46657 0.0
H431 H 0.06531 0.75232 0.33282 0.0
H432 H 0.14815 0.66136 0.40641 0.0
H433 H 0.06666 0.79938 0.40983 0.0
H434 H 0.10225 0.7215 0.35496 0.0
H435 H 0.14128 0.75367 0.44137 0.0
C436 C 0.16152 0.71547 0.44817 0.0
C437 C 0.16377 0.68901 0.43892 0.0
C438 C 0.09443 0.73863 0.36688 0.0
C439 C 0.12631 0.72507 0.4095 0.0
C440 C 0.07351 0.75625 0.35426 0.0
C441 C 0.06274 0.77829 0.36962 0.0
C442 C 0.10494 0.74347 0.39479 0.0
C443 C 0.07408 0.78247 0.39733 0.0
C444 C 0.14279 0.73343 0.43368 0.0
C445 C 0.1473 0.68155 0.41429 0.0
N446 N 0.09457 0.76527 0.40898 0.0
N447 N 0.12919 0.69948 0.40045 0.0
H448 H 0.68866 0.76114 0.95904 0.0
H449 H 0.57294 0.73921 0.82825 0.0
H450 H 0.66656 0.82334 0.89883 0.0
H451 H 0.56996 0.69336 0.90612 0.0
H452 H 0.61481 0.76612 0.84872 0.0
H453 H 0.65236 0.73185 0.93455 0.0
C454 C 0.67621 0.76869 0.94071 0.0
C455 C 0.68048 0.79492 0.93125 0.0
C456 C 0.60499 0.75007 0.86119 0.0
C457 C 0.63937 0.76122 0.90278 0.0
C458 C 0.58124 0.7347 0.84952 0.0
C459 C 0.56779 0.71426 0.86567 0.0
C460 C 0.61559 0.74457 0.88891 0.0
C461 C 0.57941 0.70918 0.8931 0.0
C462 C 0.65563 0.75189 0.92666 0.0
C463 C 0.66429 0.80326 0.90681 0.0
N464 N 0.60264 0.72423 0.90385 0.0
N465 N 0.64436 0.78649 0.89347 0.0
H466 H 0.31265 0.18552 0.39429 0.0
H467 H 0.4446 0.29471 0.41793 0.0
H468 H 0.34822 0.20917 0.47659 0.0
H469 H 0.41652 0.26794 0.33422 0.0
H470 H 0.40686 0.26508 0.43924 0.0
H471 H 0.34841 0.21671 0.37145 0.0
C472 C 0.32799 0.1972 0.40756 0.0
C473 C 0.32735 0.19473 0.43745 0.0
C474 C 0.40885 0.26563 0.4162 0.0
C475 C 0.36806 0.2306 0.41146 0.0
C476 C 0.43046 0.2826 0.40395 0.0
C477 C 0.43396 0.28372 0.37418 0.0
C478 C 0.39041 0.24951 0.39867 0.0
C479 C 0.41471 0.26766 0.35727 0.0
C480 C 0.34828 0.21509 0.3945 0.0
C481 C 0.34748 0.21065 0.45355 0.0
N482 N 0.3938 0.25112 0.36977 0.0
N483 N 0.36697 0.22783 0.44036 0.0
H484 H 0.36609 0.84078 0.91576 0.0
H485 H 0.41578 0.68871 0.89931 0.0
H486 H 0.31986 0.77589 0.95841 0.0
H487 H 0.45277 0.7519 0.84707 0.0
H488 H 0.38076 0.72047 0.92147 0.0
H489 H 0.39845 0.80868 0.8907 0.0
C490 C 0.36259 0.81979 0.91975 0.0
C491 C 0.34023 0.81107 0.93933 0.0
C492 C 0.39642 0.72738 0.90506 0.0
C493 C 0.37748 0.77421 0.91091 0.0
C494 C 0.41647 0.70924 0.8924 0.0
C495 C 0.43741 0.71766 0.87139 0.0
C496 C 0.39741 0.7542 0.89684 0.0
C497 C 0.43708 0.74451 0.8632 0.0
C498 C 0.38117 0.80148 0.9055 0.0
C499 C 0.33712 0.78361 0.94392 0.0
N500 N 0.41754 0.76185 0.87608 0.0
N501 N 0.35557 0.76619 0.92988 0.0
H502 H 0.69197 0.23442 0.45541 0.0
H503 H 0.54958 0.24995 0.3477 0.0
H504 H 0.65 0.16845 0.41099 0.0
H505 H 0.58488 0.31373 0.40013 0.0
H506 H 0.58883 0.22046 0.36765 0.0
H507 H 0.65517 0.26435 0.43267 0.0
C508 C 0.67494 0.2262 0.44097 0.0
C509 C 0.674 0.19882 0.43526 0.0
C510 C 0.58801 0.24093 0.37472 0.0
C511 C 0.63198 0.2331 0.40881 0.0
C512 C 0.56565 0.25781 0.3633 0.0
C513 C 0.56377 0.28433 0.37239 0.0
C514 C 0.60874 0.25066 0.3953 0.0
C515 C 0.58528 0.29339 0.39262 0.0
C516 C 0.65403 0.24333 0.42785 0.0
C517 C 0.6518 0.18942 0.41584 0.0
N518 N 0.60679 0.27657 0.40342 0.0
N519 N 0.63163 0.20651 0.40339 0.0
H520 H 0.33164 0.53564 0.9703 0.0
H521 H 0.42259 0.5794 0.82931 0.0
H522 H 0.33691 0.48723 0.89437 0.0
H523 H 0.43553 0.61581 0.91195 0.0
H524 H 0.38346 0.55011 0.8501 0.0
H525 H 0.36195 0.5699 0.94622 0.0
C526 C 0.33902 0.53226 0.94852 0.0
C527 C 0.33207 0.50834 0.93449 0.0
C528 C 0.39477 0.56463 0.8636 0.0
C529 C 0.36652 0.54759 0.90674 0.0
C530 C 0.41707 0.58137 0.85176 0.0
C531 C 0.43267 0.59982 0.86903 0.0
C532 C 0.38785 0.56656 0.89281 0.0
C533 C 0.42441 0.60162 0.89793 0.0
C534 C 0.35623 0.55186 0.93477 0.0
C535 C 0.34159 0.50537 0.906 0.0
N536 N 0.40266 0.58512 0.90893 0.0
N537 N 0.35857 0.52467 0.89314 0.0
H538 H 0.67485 0.46293 0.46463 0.0
H539 H 0.57358 0.42203 0.3286 0.0
H540 H 0.66177 0.51429 0.39177 0.0
H541 H 0.56747 0.38368 0.41088 0.0
H542 H 0.61383 0.45138 0.34765 0.0
H543 H 0.64365 0.42896 0.44109 0.0
C544 C 0.66558 0.46702 0.4436 0.0
C545 C 0.67055 0.49169 0.43037 0.0
C546 C 0.60377 0.43641 0.36142 0.0
C547 C 0.63502 0.45276 0.4032 0.0
C548 C 0.58086 0.41964 0.35057 0.0
C549 C 0.56686 0.40063 0.36831 0.0
C550 C 0.61294 0.43389 0.39007 0.0
C551 C 0.5773 0.39831 0.39657 0.0
C552 C 0.64784 0.44758 0.43016 0.0
C553 C 0.65862 0.49557 0.40277 0.0
N554 N 0.59962 0.4148 0.40658 0.0
N555 N 0.64115 0.4764 0.3902 0.0
H556 H 0.65279 0.48026 0.89672 0.0
H557 H 0.57785 0.6252 0.90656 0.0
H558 H 0.66775 0.53368 0.96747 0.0
H559 H 0.55622 0.56806 0.84072 0.0
H560 H 0.61547 0.59408 0.92638 0.0
H561 H 0.62247 0.51455 0.87292 0.0
C562 C 0.6501 0.49936 0.90707 0.0
C563 C 0.66271 0.50404 0.93422 0.0
C564 C 0.60258 0.58843 0.90752 0.0
C565 C 0.62751 0.54329 0.90726 0.0
C566 C 0.58109 0.60619 0.89618 0.0
C567 C 0.56356 0.59913 0.87211 0.0
C568 C 0.60666 0.56347 0.89466 0.0
C569 C 0.56894 0.57427 0.85947 0.0
C570 C 0.63256 0.51887 0.89356 0.0
C571 C 0.65806 0.52906 0.94675 0.0
N572 N 0.58989 0.55733 0.87096 0.0
N573 N 0.6407 0.5477 0.93325 0.0
H574 H 0.30566 0.46408 0.44772 0.0
H575 H 0.45769 0.43743 0.35705 0.0
H576 H 0.37882 0.52147 0.43793 0.0
H577 H 0.41097 0.37345 0.40085 0.0
H578 H 0.42221 0.46895 0.37872 0.0
H579 H 0.33782 0.43087 0.42301 0.0
C580 C 0.32837 0.46965 0.44015 0.0
C581 C 0.33983 0.49535 0.44482 0.0
C582 C 0.41968 0.448 0.38354 0.0
C583 C 0.37617 0.45802 0.41658 0.0
C584 C 0.43984 0.42994 0.3711 0.0
C585 C 0.43744 0.40274 0.37732 0.0
C586 C 0.39659 0.43886 0.40205 0.0
C587 C 0.41378 0.39428 0.39571 0.0
C588 C 0.34667 0.45077 0.42628 0.0
C589 C 0.36935 0.50176 0.43482 0.0
N590 N 0.39415 0.41233 0.40745 0.0
N591 N 0.38646 0.48325 0.42104 0.0
H592 H 0.86681 0.0084 0.97708 0.0
H593 H 0.91655 0.08289 0.83421 0.0
H594 H 0.81415 0.00145 0.89906 0.0
H595 H 0.95036 0.10306 0.91825 0.0
H596 H 0.87986 0.05182 0.85626 0.0
H597 H 0.89864 0.04214 0.95471 0.0
C598 C 0.86155 0.01422 0.95536 0.0
C599 C 0.83748 0.00209 0.94008 0.0
C600 C 0.89524 0.06321 0.86978 0.0
C601 C 0.87474 0.04047 0.9139 0.0
C602 C 0.91622 0.08087 0.85723 0.0
C603 C 0.93677 0.09544 0.87437 0.0
C604 C 0.89508 0.06003 0.89959 0.0
C605 C 0.93517 0.09216 0.9041 0.0
C606 C 0.87999 0.03342 0.94248 0.0
C607 C 0.83262 0.01002 0.91162 0.0
N608 N 0.91489 0.07472 0.91569 0.0
N609 N 0.8512 0.02863 0.89938 0.0
H610 H 0.17909 0.95563 0.47454 0.0
H611 H 0.07411 0.92321 0.33875 0.0
H612 H 0.16992 0.00696 0.40116 0.0
H613 H 0.08201 0.87065 0.41127 0.0
H614 H 0.11363 0.9517 0.35942 0.0
H615 H 0.14802 0.92202 0.44998 0.0
C616 C 0.17076 0.95976 0.45319 0.0
C617 C 0.17694 0.98427 0.44 0.0
C618 C 0.10691 0.93387 0.37079 0.0
C619 C 0.14146 0.94589 0.41177 0.0
C620 C 0.08425 0.91758 0.35901 0.0
C621 C 0.07439 0.89468 0.37349 0.0
C622 C 0.11979 0.92738 0.3974 0.0
C623 C 0.08873 0.88823 0.39947 0.0
C624 C 0.15312 0.94053 0.43916 0.0
C625 C 0.166 0.98833 0.41213 0.0
N626 N 0.11051 0.90466 0.41076 0.0
N627 N 0.14858 0.96946 0.39909 0.0
H628 H 0.16383 0.98676 0.89905 0.0
H629 H 0.07942 0.12763 0.91048 0.0
H630 H 0.17347 0.03931 0.97132 0.0
H631 H 0.06188 0.07023 0.84387 0.0
H632 H 0.11911 0.09827 0.92997 0.0
H633 H 0.13214 0.02012 0.87525 0.0
C634 C 0.1597 0.0055 0.90974 0.0
C635 C 0.17115 0.01017 0.93731 0.0
C636 C 0.10666 0.09219 0.91101 0.0
C637 C 0.13441 0.04831 0.91036 0.0
C638 C 0.08401 0.10894 0.89985 0.0
C639 C 0.067 0.10124 0.8757 0.0
C640 C 0.11244 0.06762 0.89784 0.0
C641 C 0.07412 0.07687 0.86272 0.0
C642 C 0.14137 0.02446 0.89622 0.0
C643 C 0.16469 0.03471 0.95025 0.0
N644 N 0.09617 0.0609 0.87404 0.0
N645 N 0.14659 0.0528 0.93674 0.0
H646 H 0.84053 0.97152 0.46436 0.0
H647 H 0.93845 0.9271 0.32772 0.0
H648 H 0.85405 0.02215 0.39099 0.0
H649 H 0.94239 0.8881 0.40977 0.0
H650 H 0.90087 0.95858 0.34729 0.0
H651 H 0.87092 0.93705 0.44108 0.0
C652 C 0.84983 0.97537 0.4433 0.0
C653 C 0.84511 -6e-05 0.4298 0.0
C654 C 0.90992 0.94304 0.36091 0.0
C655 C 0.87976 0.9604 0.40288 0.0
C656 C 0.9313 0.92506 0.34976 0.0
C657 C 0.94384 0.90513 0.36724 0.0
C658 C 0.9008 0.94083 0.38958 0.0
C659 C 0.93366 0.90335 0.39561 0.0
C660 C 0.8671 0.95565 0.42998 0.0
C661 C 0.85704 0.00351 0.40217 0.0
N662 N 0.9128 0.92098 0.40588 0.0
N663 N 0.87404 0.98402 0.3897 0.0
H664 H 0.35074 0.32387 0.13147 0.0
H665 H 0.41326 0.38555 0.2777 0.0
H666 H 0.32356 0.40051 0.16406 0.0
H667 H 0.44066 0.30872 0.24558 0.0
H668 H 0.37619 0.38925 0.23872 0.0
H669 H 0.37934 0.31574 0.1756 0.0
C670 C 0.35039 0.33882 0.14808 0.0
C671 C 0.33497 0.36303 0.14393 0.0
C672 C 0.39015 0.37149 0.24029 0.0
C673 C 0.36804 0.35402 0.19435 0.0
C674 C 0.41136 0.36936 0.26258 0.0
C675 C 0.43043 0.34692 0.26476 0.0
C676 C 0.38799 0.3511 0.21992 0.0
C677 C 0.42665 0.32648 0.24464 0.0
C678 C 0.3669 0.33424 0.17321 0.0
C679 C 0.3356 0.38179 0.1661 0.0
N680 N 0.40607 0.32917 0.22293 0.0
N681 N 0.35206 0.37697 0.19024 0.0
H682 H 0.67494 0.59668 0.66129 0.0
H683 H 0.55292 0.69061 0.7398 0.0
H684 H 0.6447 0.67205 0.62748 0.0
H685 H 0.58091 0.61371 0.77144 0.0
H686 H 0.59023 0.68632 0.701 0.0
H687 H 0.64447 0.60474 0.70422 0.0
C688 C 0.66197 0.61498 0.66296 0.0
C689 C 0.66212 0.6336 0.64064 0.0
C690 C 0.58832 0.67046 0.71654 0.0
C691 C 0.62721 0.64302 0.68979 0.0
C692 C 0.56701 0.67289 0.73872 0.0
C693 C 0.56349 0.65235 0.75876 0.0
C694 C 0.60625 0.64734 0.71436 0.0
C695 C 0.58257 0.62994 0.75634 0.0
C696 C 0.64466 0.61963 0.68752 0.0
C697 C 0.64537 0.65721 0.64421 0.0
N698 N 0.60296 0.62798 0.73446 0.0
N699 N 0.62837 0.66114 0.6682 0.0
H700 H 0.64747 0.31862 0.13311 0.0
H701 H 0.56588 0.38554 0.2662 0.0
H702 H 0.6671 0.39819 0.16236 0.0
H703 H 0.56382 0.30072 0.25296 0.0
H704 H 0.60407 0.38974 0.22849 0.0
H705 H 0.61849 0.31044 0.17719 0.0
C706 C 0.64611 0.33422 0.14898 0.0
C707 C 0.65932 0.35929 0.14384 0.0
C708 C 0.59556 0.37013 0.23389 0.0
C709 C 0.62593 0.35017 0.19399 0.0
C710 C 0.5736 0.36774 0.25534 0.0
C711 C 0.56143 0.34278 0.26244 0.0
C712 C 0.60517 0.34744 0.21896 0.0
C713 C 0.5726 0.32034 0.24802 0.0
C714 C 0.62948 0.32956 0.17407 0.0
C715 C 0.65666 0.3788 0.16507 0.0
N716 N 0.59359 0.32323 0.22659 0.0
N717 N 0.64002 0.37391 0.18901 0.0
H718 H 0.33622 0.67698 0.63859 0.0
H719 H 0.42696 0.61341 0.76779 0.0
H720 H 0.31389 0.60038 0.67461 0.0
H721 H 0.42806 0.69802 0.75292 0.0
H722 H 0.38518 0.60886 0.73339 0.0
H723 H 0.36864 0.68635 0.68031 0.0
C724 C 0.33761 0.66236 0.65551 0.0
C725 C 0.32273 0.63765 0.65287 0.0
C726 C 0.39429 0.6285 0.73776 0.0
C727 C 0.36016 0.64806 0.70025 0.0
C728 C 0.4183 0.63108 0.75727 0.0
C729 C 0.43118 0.65609 0.76293 0.0
C730 C 0.38333 0.65103 0.72332 0.0
C731 C 0.41878 0.67836 0.74904 0.0
C732 C 0.35624 0.66768 0.67923 0.0
C733 C 0.32556 0.6194 0.67538 0.0
N734 N 0.39577 0.67527 0.72948 0.0
N735 N 0.34425 0.62482 0.69788 0.0
H736 H 0.86461 0.90396 0.13737 0.0
H737 H 0.91811 0.80982 0.26567 0.0
H738 H 0.81493 0.83249 0.15988 0.0
H739 H 0.95703 0.8869 0.24671 0.0
H740 H 0.88006 0.81671 0.22743 0.0
H741 H 0.89844 0.89716 0.17785 0.0
C742 C 0.86044 0.887 0.15108 0.0
C743 C 0.83653 0.86894 0.14525 0.0
C744 C 0.89692 0.83208 0.2318 0.0
C745 C 0.87616 0.86057 0.19164 0.0
C746 C 0.91865 0.82816 0.25357 0.0
C747 C 0.941 0.84771 0.2593 0.0
C748 C 0.89769 0.85567 0.21572 0.0
C749 C 0.94049 0.87113 0.24303 0.0
C750 C 0.88005 0.88298 0.17416 0.0
C751 C 0.83314 0.84685 0.16341 0.0
N752 N 0.91934 0.87436 0.22202 0.0
N753 N 0.85279 0.84324 0.18579 0.0
H754 H 0.17835 0.0967 0.66789 0.0
H755 H 0.05216 0.18928 0.74267 0.0
H756 H 0.14435 0.16939 0.63056 0.0
H757 H 0.08338 0.11433 0.77698 0.0
H758 H 0.08969 0.18496 0.70399 0.0
H759 H 0.14763 0.10545 0.71049 0.0
C760 C 0.16449 0.11457 0.66871 0.0
C761 C 0.16366 0.1322 0.6455 0.0
C762 C 0.08844 0.16955 0.7201 0.0
C763 C 0.12843 0.14241 0.69429 0.0
C764 C 0.06703 0.17201 0.74222 0.0
C765 C 0.06434 0.15199 0.76296 0.0
C766 C 0.10732 0.14693 0.71873 0.0
C767 C 0.08436 0.13014 0.76132 0.0
C768 C 0.14702 0.11961 0.69309 0.0
C769 C 0.14577 0.15531 0.64799 0.0
N770 N 0.10483 0.12813 0.73952 0.0
N771 N 0.12863 0.15963 0.67184 0.0
H772 H 0.12356 0.84016 0.11623 0.0
H773 H 0.09949 0.86968 0.27994 0.0
H774 H 0.19683 0.87196 0.16833 0.0
H775 H 0.04655 0.81007 0.23516 0.0
H776 H 0.13518 0.87175 0.23951 0.0
H777 H 0.09429 0.82977 0.15951 0.0
C778 C 0.13354 0.84469 0.13689 0.0
C779 C 0.16248 0.85697 0.13889 0.0
C780 C 0.11598 0.85798 0.23874 0.0
C781 C 0.12911 0.84558 0.18832 0.0
C782 C 0.09554 0.85686 0.26173 0.0
C783 C 0.06985 0.83985 0.26079 0.0
C784 C 0.11034 0.84235 0.21447 0.0
C785 C 0.06599 0.82352 0.23676 0.0
C786 C 0.11694 0.8387 0.16153 0.0
C787 C 0.17457 0.8624 0.16604 0.0
N788 N 0.08575 0.82547 0.21437 0.0
N789 N 0.1576 0.85703 0.18977 0.0
H790 H 0.82896 0.09546 0.66178 0.0
H791 H 0.92857 0.19592 0.75713 0.0
H792 H 0.84605 0.17679 0.63704 0.0
H793 H 0.93225 0.11047 0.76417 0.0
H794 H 0.89003 0.19128 0.71895 0.0
H795 H 0.8581 0.10298 0.7056 0.0
C796 C 0.83872 0.11496 0.66563 0.0
C797 C 0.83552 0.13539 0.64544 0.0
C798 C 0.89918 0.17361 0.72905 0.0
C799 C 0.86875 0.14419 0.69576 0.0
C800 C 0.92106 0.17623 0.75085 0.0
C801 C 0.93388 0.15352 0.76357 0.0
C802 C 0.88981 0.14814 0.72032 0.0
C803 C 0.92331 0.1285 0.75467 0.0
C804 C 0.85528 0.11925 0.69069 0.0
C805 C 0.84794 0.16047 0.65199 0.0
N806 N 0.90197 0.12649 0.73358 0.0
N807 N 0.8643 0.16411 0.67649 0.0
loop_
_geom_bond_atom_site_label_1
_geom_bond_atom_site_label_2
_geom_bond_distance
_geom_bond_site_symmetry_2
_ccdc_geom_bond_type
C0 C1 1.384 . S
C0 H13 0.947 . S
C0 C35 1.382 . S
C1 C0 1.384 . S
C1 C2 1.378 . S
C2 C1 1.378 . S
C2 C3 1.378 . S
C2 H14 0.952 . S
C3 C2 1.378 . S
C3 H15 0.950 . S
C3 C34 1.383 . S
H4 C23 0.950 1_554 S
H5 C24 0.946 1_554 S
H6 C26 0.953 . S
H7 C27 0.945 . S
H8 C29 0.952 . S
H9 C30 0.949 . S
H10 C32 0.950 . S
H11 C33 0.948 1_554 S
H12 C35 0.951 . S
H13 C0 0.947 . S
H14 C2 0.952 . S
H15 C3 0.950 . S
N16 C19 1.382 1_554 S
N16 C21 1.363 . S
N17 C19 1.371 . S
N17 C20 1.372 . S
N18 C20 1.361 1_554 S
N18 C21 1.377 . S
C19 N16 1.382 1_556 S
C19 N17 1.371 . S
C19 C22 1.480 . S
C20 N17 1.372 . S
C20 N18 1.361 1_556 S
C20 C28 1.457 . S
C21 N16 1.363 . S
C21 N18 1.377 . S
C21 C34 1.479 . S
C22 C19 1.480 . S
C22 C23 1.381 . S
C22 C27 1.385 . S
C23 H4 0.950 1_556 S
C23 C22 1.381 . S
C23 C24 1.387 . S
C24 H5 0.946 1_556 S
C24 C23 1.387 . S
C24 C25 1.384 . S
C25 C24 1.384 . S
C25 C26 1.377 . S
C26 H6 0.953 . S
C26 C25 1.377 . S
C26 C27 1.369 . S
C27 H7 0.945 . S
C27 C22 1.385 . S
C27 C26 1.369 . S
C28 C20 1.457 . S
C28 C29 1.372 . S
C28 C33 1.364 . S
C29 H8 0.952 . S
C29 C28 1.372 . S
C29 C30 1.389 . S
C30 H9 0.949 . S
C30 C29 1.389 . S
C30 C31 1.387 . S
C31 C30 1.387 . S
C31 C32 1.372 . S
C32 H10 0.950 . S
C32 C31 1.372 . S
C32 C33 1.379 . S
C33 H11 0.948 1_556 S
C33 C28 1.364 . S
C33 C32 1.379 . S
C34 C3 1.383 . S
C34 C21 1.479 . S
C34 C35 1.398 . S
C35 C0 1.382 . S
C35 H12 0.951 . S
C35 C34 1.398 . S
C36 C37 1.384 . S
C36 H49 0.947 . S
C36 C71 1.382 . S
C37 C36 1.384 . S
C37 C38 1.378 . S
C38 C37 1.378 . S
C38 C39 1.378 . S
C38 H50 0.952 . S
C39 C38 1.378 . S
C39 H51 0.950 . S
C39 C70 1.383 . S
H40 C59 0.947 . S
H41 C60 0.946 . S
H42 C62 0.953 . S
H43 C63 0.945 . S
H44 C65 0.952 . S
H45 C66 0.949 . S
H46 C68 0.950 . S
H47 C69 0.948 . S
H48 C71 0.951 . S
H49 C36 0.947 . S
H50 C38 0.952 . S
H51 C39 0.950 . S
N52 C55 1.382 . S
N52 C57 1.363 . S
N53 C55 1.371 . S
N53 C56 1.372 . S
N54 C56 1.361 . S
N54 C57 1.377 . S
C55 N52 1.382 . S
C55 N53 1.371 . S
C55 C58 1.480 . S
C56 N53 1.372 . S
C56 N54 1.361 . S
C56 C64 1.457 . S
C57 N52 1.363 . S
C57 N54 1.377 . S
C57 C70 1.479 . S
C58 C55 1.480 . S
C58 C59 1.383 . S
C58 C63 1.385 . S
C59 H40 0.947 . S
C59 C58 1.383 . S
C59 C60 1.388 . S
C60 H41 0.946 . S
C60 C59 1.388 . S
C60 C61 1.384 . S
C61 C60 1.384 . S
C61 C62 1.377 . S
C62 H42 0.953 . S
C62 C61 1.377 . S
C62 C63 1.369 . S
C63 H43 0.945 . S
C63 C58 1.385 . S
C63 C62 1.369 . S
C64 C56 1.457 . S
C64 C65 1.372 . S
C64 C69 1.364 . S
C65 H44 0.952 . S
C65 C64 1.372 . S
C65 C66 1.389 . S
C66 H45 0.949 . S
C66 C65 1.389 . S
C66 C67 1.387 . S
C67 C66 1.387 . S
C67 C68 1.372 . S
C68 H46 0.950 . S
C68 C67 1.372 . S
C68 C69 1.379 . S
C69 H47 0.948 . S
C69 C64 1.364 . S
C69 C68 1.379 . S
C70 C39 1.383 . S
C70 C57 1.479 . S
C70 C71 1.398 . S
C71 C36 1.382 . S
C71 H48 0.951 . S
C71 C70 1.398 . S
C72 C73 1.384 . S
C72 H85 0.947 . S
C72 C107 1.382 . S
C73 C72 1.384 . S
C73 C74 1.378 . S
C74 C73 1.378 . S
C74 C75 1.378 . S
C74 H86 0.952 . S
C75 C74 1.378 . S
C75 H87 0.950 . S
C75 C106 1.383 . S
H76 C95 0.959 . S
H77 C96 0.946 . S
H78 C98 0.953 . S
H79 C99 0.945 . S
H80 C101 0.952 . S
H81 C102 0.949 . S
H82 C104 0.950 . S
H83 C105 0.948 1_554 S
H84 C107 0.951 . S
H85 C72 0.947 . S
H86 C74 0.952 . S
H87 C75 0.950 . S
N88 C91 1.382 1_554 S
N88 C93 1.363 . S
N89 C91 1.371 . S
N89 C92 1.372 . S
N90 C92 1.361 1_554 S
N90 C93 1.377 . S
C91 N88 1.382 1_556 S
C91 N89 1.371 . S
C91 C94 1.480 . S
C92 N89 1.372 . S
C92 N90 1.361 1_556 S
C92 C100 1.457 . S
C93 N88 1.363 . S
C93 N90 1.377 . S
C93 C106 1.479 . S
C94 C91 1.480 . S
C94 C95 1.376 1_556 S
C94 C99 1.385 . S
C95 H76 0.959 . S
C95 C94 1.376 1_554 S
C95 C96 1.383 1_554 S
C96 H77 0.946 . S
C96 C95 1.383 1_556 S
C96 C97 1.384 . S
C97 C96 1.384 . S
C97 C98 1.377 . S
C98 H78 0.953 . S
C98 C97 1.377 . S
C98 C99 1.369 . S
C99 H79 0.945 . S
C99 C94 1.385 . S
C99 C98 1.369 . S
C100 C92 1.457 . S
C100 C101 1.372 . S
C100 C105 1.364 . S
C101 H80 0.952 . S
C101 C100 1.372 . S
C101 C102 1.389 . S
C102 H81 0.949 . S
C102 C101 1.389 . S
C102 C103 1.387 . S
C103 C102 1.387 . S
C103 C104 1.372 . S
C104 H82 0.950 . S
C104 C103 1.372 . S
C104 C105 1.379 . S
C105 H83 0.948 1_556 S
C105 C100 1.364 . S
C105 C104 1.379 . S
C106 C75 1.383 . S
C106 C93 1.479 . S
C106 C107 1.398 . S
C107 C72 1.382 . S
C107 H84 0.951 . S
C107 C106 1.398 . S
C108 C109 1.384 . S
C108 H121 0.947 . S
C108 C143 1.382 . S
C109 C108 1.384 . S
C109 C110 1.378 . S
C110 C109 1.378 . S
C110 C111 1.378 . S
C110 H122 0.952 . S
C111 C110 1.378 . S
C111 H123 0.950 . S
C111 C142 1.383 . S
H112 C131 0.947 . S
H113 C132 0.946 . S
H114 C134 0.953 . S
H115 C135 0.945 . S
H116 C137 0.952 . S
H117 C138 0.949 . S
H118 C140 0.950 . S
H119 C141 0.948 . S
H120 C143 0.951 . S
H121 C108 0.947 . S
H122 C110 0.952 . S
H123 C111 0.950 . S
N124 C127 1.382 . S
N124 C129 1.363 . S
N125 C127 1.371 . S
N125 C128 1.372 . S
N126 C128 1.361 . S
N126 C129 1.377 . S
C127 N124 1.382 . S
C127 N125 1.371 . S
C127 C130 1.480 . S
C128 N125 1.372 . S
C128 N126 1.361 . S
C128 C136 1.457 . S
C129 N124 1.363 . S
C129 N126 1.377 . S
C129 C142 1.479 . S
C130 C127 1.480 . S
C130 C131 1.383 . S
C130 C135 1.385 . S
C131 H112 0.947 . S
C131 C130 1.383 . S
C131 C132 1.388 . S
C132 H113 0.946 . S
C132 C131 1.388 . S
C132 C133 1.384 . S
C133 C132 1.384 . S
C133 C134 1.377 . S
C134 H114 0.953 . S
C134 C133 1.377 . S
C134 C135 1.369 . S
C135 H115 0.945 . S
C135 C130 1.385 . S
C135 C134 1.369 . S
C136 C128 1.457 . S
C136 C137 1.372 . S
C136 C141 1.364 . S
C137 H116 0.952 . S
C137 C136 1.372 . S
C137 C138 1.389 . S
C138 H117 0.949 . S
C138 C137 1.389 . S
C138 C139 1.387 . S
C139 C138 1.387 . S
C139 C140 1.372 . S
C140 H118 0.950 . S
C140 C139 1.372 . S
C140 C141 1.379 . S
C141 H119 0.948 . S
C141 C136 1.364 . S
C141 C140 1.379 . S
C142 C111 1.383 . S
C142 C129 1.479 . S
C142 C143 1.398 . S
C143 C108 1.382 . S
C143 H120 0.951 . S
C143 C142 1.398 . S
C144 C145 1.384 . S
C144 H157 0.947 . S
C144 C179 1.382 . S
C145 C144 1.384 . S
C145 C146 1.378 . S
C146 C145 1.378 . S
C146 C147 1.378 . S
C146 H158 0.952 . S
C147 C146 1.378 . S
C147 H159 0.950 . S
C147 C178 1.383 . S
H148 C167 0.950 1_554 S
H149 C168 0.946 1_554 S
H150 C170 0.953 . S
H151 C171 0.945 . S
H152 C173 0.952 . S
H153 C174 0.949 . S
H154 C176 0.950 . S
H155 C177 0.948 1_554 S
H156 C179 0.951 . S
H157 C144 0.947 . S
H158 C146 0.952 . S
H159 C147 0.950 . S
N160 C163 1.382 1_554 S
N160 C165 1.363 . S
N161 C163 1.371 . S
N161 C164 1.372 . S
N162 C164 1.361 1_554 S
N162 C165 1.377 . S
C163 N160 1.382 1_556 S
C163 N161 1.371 . S
C163 C166 1.480 . S
C164 N161 1.372 . S
C164 N162 1.361 1_556 S
C164 C172 1.457 . S
C165 N160 1.363 . S
C165 N162 1.377 . S
C165 C178 1.479 . S
C166 C163 1.480 . S
C166 C167 1.381 . S
C166 C171 1.385 . S
C167 H148 0.950 1_556 S
C167 C166 1.381 . S
C167 C168 1.387 . S
C168 H149 0.946 1_556 S
C168 C167 1.387 . S
C168 C169 1.384 . S
C169 C168 1.384 . S
C169 C170 1.377 . S
C170 H150 0.953 . S
C170 C169 1.377 . S
C170 C171 1.369 . S
C171 H151 0.945 . S
C171 C166 1.385 . S
C171 C170 1.369 . S
C172 C164 1.457 . S
C172 C173 1.372 . S
C172 C177 1.364 . S
C173 H152 0.952 . S
C173 C172 1.372 . S
C173 C174 1.389 . S
C174 H153 0.949 . S
C174 C173 1.389 . S
C174 C175 1.387 . S
C175 C174 1.387 . S
C175 C176 1.372 . S
C176 H154 0.950 . S
C176 C175 1.372 . S
C176 C177 1.379 . S
C177 H155 0.948 1_556 S
C177 C172 1.364 . S
C177 C176 1.379 . S
C178 C147 1.383 . S
C178 C165 1.479 . S
C178 C179 1.398 . S
C179 C144 1.382 . S
C179 H156 0.951 . S
C179 C178 1.398 . S
C180 C181 1.384 . S
C180 H193 0.947 . S
C180 C215 1.382 . S
C181 C180 1.384 . S
C181 C182 1.378 . S
C182 C181 1.378 . S
C182 C183 1.378 . S
C182 H194 0.952 . S
C183 C182 1.378 . S
C183 H195 0.950 . S
C183 C214 1.383 . S
H184 C203 0.947 . S
H185 C204 0.946 . S
H186 C206 0.953 . S
H187 C207 0.945 . S
H188 C209 0.952 . S
H189 C210 0.949 . S
H190 C212 0.950 . S
H191 C213 0.948 . S
H192 C215 0.951 . S
H193 C180 0.947 . S
H194 C182 0.952 . S
H195 C183 0.950 . S
N196 C199 1.382 . S
N196 C201 1.363 . S
N197 C199 1.371 . S
N197 C200 1.372 . S
N198 C200 1.361 . S
N198 C201 1.377 . S
C199 N196 1.382 . S
C199 N197 1.371 . S
C199 C202 1.480 . S
C200 N197 1.372 . S
C200 N198 1.361 . S
C200 C208 1.457 . S
C201 N196 1.363 . S
C201 N198 1.377 . S
C201 C214 1.479 . S
C202 C199 1.480 . S
C202 C203 1.383 . S
C202 C207 1.385 . S
C203 H184 0.947 . S
C203 C202 1.383 . S
C203 C204 1.388 . S
C204 H185 0.946 . S
C204 C203 1.388 . S
C204 C205 1.384 . S
C205 C204 1.384 . S
C205 C206 1.377 . S
C206 H186 0.953 . S
C206 C205 1.377 . S
C206 C207 1.369 . S
C207 H187 0.945 . S
C207 C202 1.385 . S
C207 C206 1.369 . S
C208 C200 1.457 . S
C208 C209 1.372 . S
C208 C213 1.364 . S
C209 H188 0.952 . S
C209 C208 1.372 . S
C209 C210 1.389 . S
C210 H189 0.949 . S
C210 C209 1.389 . S
C210 C211 1.387 . S
C211 C210 1.387 . S
C211 C212 1.372 . S
C212 H190 0.950 . S
C212 C211 1.372 . S
C212 C213 1.379 . S
C213 H191 0.948 . S
C213 C208 1.364 . S
C213 C212 1.379 . S
C214 C183 1.383 . S
C214 C201 1.479 . S
C214 C215 1.398 . S
C215 C180 1.382 . S
C215 H192 0.951 . S
C215 C214 1.398 . S
C216 C217 1.384 . S
C216 H229 0.947 . S
C216 C251 1.382 . S
C217 C216 1.384 . S
C217 C218 1.378 . S
C218 C217 1.378 . S
C218 C219 1.378 . S
C218 H230 0.952 . S
C219 C218 1.378 . S
C219 H231 0.950 . S
C219 C250 1.383 . S
H220 C239 0.959 . S
H221 C240 0.946 . S
H222 C242 0.953 . S
H223 C243 0.945 . S
H224 C245 0.952 . S
H225 C246 0.949 . S
H226 C248 0.950 . S
H227 C249 0.948 1_554 S
H228 C251 0.951 . S
H229 C216 0.947 . S
H230 C218 0.952 . S
H231 C219 0.950 . S
N232 C235 1.382 1_554 S
N232 C237 1.363 . S
N233 C235 1.371 . S
N233 C236 1.372 . S
N234 C236 1.361 1_554 S
N234 C237 1.377 . S
C235 N232 1.382 1_556 S
C235 N233 1.371 . S
C235 C238 1.480 . S
C236 N233 1.372 . S
C236 N234 1.361 1_556 S
C236 C244 1.457 . S
C237 N232 1.363 . S
C237 N234 1.377 . S
C237 C250 1.479 . S
C238 C235 1.480 . S
C238 C239 1.376 1_556 S
C238 C243 1.385 . S
C239 H220 0.959 . S
C239 C238 1.376 1_554 S
C239 C240 1.383 1_554 S
C240 H221 0.946 . S
C240 C239 1.383 1_556 S
C240 C241 1.384 . S
C241 C240 1.384 . S
C241 C242 1.377 . S
C242 H222 0.953 . S
C242 C241 1.377 . S
C242 C243 1.369 . S
C243 H223 0.945 . S
C243 C238 1.385 . S
C243 C242 1.369 . S
C244 C236 1.457 . S
C244 C245 1.372 . S
C244 C249 1.364 . S
C245 H224 0.952 . S
C245 C244 1.372 . S
C245 C246 1.389 . S
C246 H225 0.949 . S
C246 C245 1.389 . S
C246 C247 1.387 . S
C247 C246 1.387 . S
C247 C248 1.372 . S
C248 H226 0.950 . S
C248 C247 1.372 . S
C248 C249 1.379 . S
C249 H227 0.948 1_556 S
C249 C244 1.364 . S
C249 C248 1.379 . S
C250 C219 1.383 . S
C250 C237 1.479 . S
C250 C251 1.398 . S
C251 C216 1.382 . S
C251 H228 0.951 . S
C251 C250 1.398 . S
C252 C253 1.384 . S
C252 H265 0.947 . S
C252 C287 1.382 . S
C253 C252 1.384 . S
C253 C254 1.378 . S
C254 C253 1.378 . S
C254 C255 1.378 . S
C254 H266 0.952 . S
C255 C254 1.378 . S
C255 H267 0.950 . S
C255 C286 1.383 . S
H256 C275 0.947 . S
H257 C276 0.946 . S
H258 C278 0.953 . S
H259 C279 0.945 . S
H260 C281 0.952 . S
H261 C282 0.949 . S
H262 C284 0.950 . S
H263 C285 0.948 . S
H264 C287 0.951 . S
H265 C252 0.947 . S
H266 C254 0.952 . S
H267 C255 0.950 . S
N268 C271 1.382 . S
N268 C273 1.363 . S
N269 C271 1.371 . S
N269 C272 1.372 . S
N270 C272 1.361 . S
N270 C273 1.377 . S
C271 N268 1.382 . S
C271 N269 1.371 . S
C271 C274 1.480 . S
C272 N269 1.372 . S
C272 N270 1.361 . S
C272 C280 1.457 . S
C273 N268 1.363 . S
C273 N270 1.377 . S
C273 C286 1.479 . S
C274 C271 1.480 . S
C274 C275 1.383 . S
C274 C279 1.385 . S
C275 H256 0.947 . S
C275 C274 1.383 . S
C275 C276 1.388 . S
C276 H257 0.946 . S
C276 C275 1.388 . S
C276 C277 1.384 . S
C277 C276 1.384 . S
C277 C278 1.377 . S
C278 H258 0.953 . S
C278 C277 1.377 . S
C278 C279 1.369 . S
C279 H259 0.945 . S
C279 C274 1.385 . S
C279 C278 1.369 . S
C280 C272 1.457 . S
C280 C281 1.372 . S
C280 C285 1.364 . S
C281 H260 0.952 . S
C281 C280 1.372 . S
C281 C282 1.389 . S
C282 H261 0.949 . S
C282 C281 1.389 . S
C282 C283 1.387 . S
C283 C282 1.387 . S
C283 C284 1.372 . S
C284 H262 0.950 . S
C284 C283 1.372 . S
C284 C285 1.379 . S
C285 H263 0.948 . S
C285 C280 1.364 . S
C285 C284 1.379 . S
C286 C255 1.383 . S
C286 C273 1.479 . S
C286 C287 1.398 . S
C287 C252 1.382 . S
C287 H264 0.951 . S
C287 C286 1.398 . S
Fe288 O290 1.918 . S
Fe288 O293 1.997 1_455 S
Fe288 O294 2.002 1_455 S
Fe288 O299 1.976 . S
Fe288 O302 1.996 . S
Fe289 O290 1.918 . S
Fe289 O297 1.997 1_455 S
Fe289 O300 1.996 . S
Fe289 O304 1.976 . S
Fe289 O307 2.002 1_455 S
O290 Fe288 1.918 . S
O290 Fe289 1.918 . S
O290 Fe291 1.918 . S
Fe291 O290 1.918 . S
Fe291 O292 2.002 1_455 S
Fe291 O301 1.976 . S
Fe291 O305 1.996 . S
Fe291 O308 1.997 1_455 S
O292 Fe291 2.002 1_655 S
O292 C309 1.295 . S
O293 Fe288 1.997 1_655 S
O293 C309 1.235 . S
O294 Fe288 2.002 1_655 S
O294 C295 1.295 . S
C295 O294 1.295 . S
C295 O297 1.235 . S
C296 O301 1.287 . S
C296 O302 1.255 . S
O297 Fe289 1.997 1_655 S
O297 C295 1.235 . S
C298 O304 1.287 . S
C298 O305 1.255 . S
O299 Fe288 1.976 . S
O299 C306 1.287 . S
O300 Fe289 1.996 . S
O300 C306 1.255 . S
O301 Fe291 1.976 . S
O301 C296 1.287 . S
O302 Fe288 1.996 . S
O302 C296 1.255 . S
C303 O307 1.295 . S
C303 O308 1.235 . S
O304 Fe289 1.976 . S
O304 C298 1.287 . S
O305 Fe291 1.996 . S
O305 C298 1.255 . S
C306 O299 1.287 . S
C306 O300 1.255 . S
O307 Fe289 2.002 1_655 S
O307 C303 1.295 . S
O308 Fe291 1.997 1_655 S
O308 C303 1.235 . S
C309 O292 1.295 . S
C309 O293 1.235 . S
Fe310 O312 1.919 . S
Fe310 O315 1.982 1_655 S
Fe310 O316 1.987 1_655 S
Fe310 O321 1.991 . S
Fe310 O324 2.010 . S
Fe311 O312 1.919 . S
Fe311 O319 1.982 1_655 S
Fe311 O322 2.010 . S
Fe311 O326 1.991 . S
Fe311 O329 1.988 1_655 S
O312 Fe310 1.919 . S
O312 Fe311 1.919 . S
O312 Fe313 1.919 . S
Fe313 O312 1.919 . S
Fe313 O314 1.988 1_655 S
Fe313 O323 1.990 . S
Fe313 O327 2.010 . S
Fe313 O330 1.982 1_655 S
O314 Fe313 1.988 1_455 S
O314 C331 1.295 . S
O315 Fe310 1.982 1_455 S
O315 C331 1.235 . S
O316 Fe310 1.987 1_455 S
O316 C317 1.295 . S
C317 O316 1.295 . S
C317 O319 1.235 . S
C318 O323 1.287 . S
C318 O324 1.255 . S
O319 Fe311 1.982 1_455 S
O319 C317 1.235 . S
C320 O326 1.287 . S
C320 O327 1.255 . S
O321 Fe310 1.991 . S
O321 C328 1.287 . S
O322 Fe311 2.010 . S
O322 C328 1.255 . S
O323 Fe313 1.990 . S
O323 C318 1.287 . S
O324 Fe310 2.010 . S
O324 C318 1.255 . S
C325 O329 1.295 . S
C325 O330 1.235 . S
O326 Fe311 1.991 . S
O326 C320 1.287 . S
O327 Fe313 2.010 . S
O327 C320 1.255 . S
C328 O321 1.287 . S
C328 O322 1.255 . S
O329 Fe311 1.988 1_455 S
O329 C325 1.295 . S
O330 Fe313 1.982 1_455 S
O330 C325 1.235 . S
C331 O314 1.295 . S
C331 O315 1.235 . S
Fe332 O334 1.918 . S
Fe332 O337 1.997 . S
Fe332 O338 2.002 . S
Fe332 O343 1.976 . S
Fe332 O346 1.996 . S
Fe333 O334 1.918 . S
Fe333 O341 1.997 . S
Fe333 O344 1.996 . S
Fe333 O348 1.976 . S
Fe333 O351 2.002 . S
O334 Fe332 1.918 . S
O334 Fe333 1.918 . S
O334 Fe335 1.918 . S
Fe335 O334 1.918 . S
Fe335 O336 2.002 . S
Fe335 O345 1.976 . S
Fe335 O349 1.996 . S
Fe335 O352 1.997 . S
O336 Fe335 2.002 . S
O336 C353 1.295 . S
O337 Fe332 1.997 . S
O337 C353 1.235 . S
O338 Fe332 2.002 . S
O338 C339 1.295 . S
C339 O338 1.295 . S
C339 O341 1.235 . S
C340 O345 1.287 . S
C340 O346 1.255 . S
O341 Fe333 1.997 . S
O341 C339 1.235 . S
C342 O348 1.287 . S
C342 O349 1.255 . S
O343 Fe332 1.976 . S
O343 C350 1.287 . S
O344 Fe333 1.996 . S
O344 C350 1.255 . S
O345 Fe335 1.976 . S
O345 C340 1.287 . S
O346 Fe332 1.996 . S
O346 C340 1.255 . S
C347 O351 1.295 . S
C347 O352 1.235 . S
O348 Fe333 1.976 . S
O348 C342 1.287 . S
O349 Fe335 1.996 . S
O349 C342 1.255 . S
C350 O343 1.287 . S
C350 O344 1.255 . S
O351 Fe333 2.002 . S
O351 C347 1.295 . S
O352 Fe335 1.997 . S
O352 C347 1.235 . S
C353 O336 1.295 . S
C353 O337 1.235 . S
Fe354 O356 1.918 . S
Fe354 O359 1.997 . S
Fe354 O360 2.002 . S
Fe354 O365 1.976 . S
Fe354 O368 1.996 . S
Fe355 O356 1.918 . S
Fe355 O363 1.997 . S
Fe355 O366 1.996 . S
Fe355 O370 1.976 . S
Fe355 O373 2.002 . S
O356 Fe354 1.918 . S
O356 Fe355 1.918 . S
O356 Fe357 1.918 . S
Fe357 O356 1.918 . S
Fe357 O358 2.002 . S
Fe357 O367 1.976 . S
Fe357 O371 1.996 . S
Fe357 O374 1.997 . S
O358 Fe357 2.002 . S
O358 C375 1.295 . S
O359 Fe354 1.997 . S
O359 C375 1.235 . S
O360 Fe354 2.002 . S
O360 C361 1.295 . S
C361 O360 1.295 . S
C361 O363 1.235 . S
C362 O367 1.287 . S
C362 O368 1.255 . S
O363 Fe355 1.997 . S
O363 C361 1.235 . S
C364 O370 1.287 . S
C364 O371 1.255 . S
O365 Fe354 1.976 . S
O365 C372 1.287 . S
O366 Fe355 1.996 . S
O366 C372 1.255 . S
O367 Fe357 1.976 . S
O367 C362 1.287 . S
O368 Fe354 1.996 . S
O368 C362 1.255 . S
C369 O373 1.295 . S
C369 O374 1.235 . S
O370 Fe355 1.976 . S
O370 C364 1.287 . S
O371 Fe357 1.996 . S
O371 C364 1.255 . S
C372 O365 1.287 . S
C372 O366 1.255 . S
O373 Fe355 2.002 . S
O373 C369 1.295 . S
O374 Fe357 1.997 . S
O374 C369 1.235 . S
C375 O358 1.295 . S
C375 O359 1.235 . S
H376 C382 0.930 . S
H377 C386 0.930 . S
H378 C391 0.929 . S
H379 C389 0.929 . S
H380 C384 0.929 . S
H381 C390 0.929 . S
C382 H376 0.930 . S
C382 C383 1.367 . S
C382 C390 1.378 . S
C383 C382 1.367 . S
C383 C391 1.433 . S
C384 H380 0.929 . S
C384 C386 1.378 . S
C384 C388 1.350 . S
C385 C388 1.463 . S
C385 C390 1.350 . S
C385 N393 1.427 . S
C386 H377 0.930 . S
C386 C384 1.378 . S
C386 C387 1.367 . S
C387 C386 1.367 . S
C387 C389 1.433 . S
C388 C384 1.350 . S
C388 C385 1.463 . S
C388 N392 1.427 . S
C389 H379 0.929 . S
C389 C387 1.433 . S
C389 N392 1.384 . S
C390 H381 0.929 . S
C390 C382 1.378 . S
C390 C385 1.350 . S
C391 H378 0.929 . S
C391 C383 1.433 . S
C391 N393 1.384 . S
N392 C388 1.427 . S
N392 C389 1.384 . S
N393 C385 1.427 . S
N393 C391 1.384 . S
H394 C400 0.930 . S
H395 C404 0.930 . S
H396 C409 0.929 . S
H397 C407 0.929 . S
H398 C402 0.929 . S
H399 C408 0.929 . S
C400 H394 0.930 . S
C400 C401 1.367 . S
C400 C408 1.378 . S
C401 C400 1.367 . S
C401 C409 1.433 . S
C402 H398 0.929 . S
C402 C404 1.378 . S
C402 C406 1.350 . S
C403 C406 1.463 . S
C403 C408 1.350 . S
C403 N411 1.427 . S
C404 H395 0.930 . S
C404 C402 1.378 . S
C404 C405 1.367 . S
C405 C404 1.367 . S
C405 C407 1.433 . S
C406 C402 1.350 . S
C406 C403 1.463 . S
C406 N410 1.427 . S
C407 H397 0.929 . S
C407 C405 1.433 . S
C407 N410 1.384 . S
C408 H399 0.929 . S
C408 C400 1.378 . S
C408 C403 1.350 . S
C409 H396 0.929 . S
C409 C401 1.433 . S
C409 N411 1.384 . S
N410 C406 1.427 . S
N410 C407 1.384 . S
N411 C403 1.427 . S
N411 C409 1.384 . S
H412 C418 0.930 . S
H413 C422 0.930 . S
H414 C427 0.929 . S
H415 C425 0.929 . S
H416 C420 0.929 . S
H417 C426 0.929 . S
C418 H412 0.930 . S
C418 C419 1.367 . S
C418 C426 1.378 . S
C419 C418 1.367 . S
C419 C427 1.433 . S
C420 H416 0.929 . S
C420 C422 1.378 . S
C420 C424 1.350 . S
C421 C424 1.463 . S
C421 C426 1.350 . S
C421 N429 1.427 . S
C422 H413 0.930 . S
C422 C420 1.378 . S
C422 C423 1.367 . S
C423 C422 1.367 . S
C423 C425 1.433 . S
C424 C420 1.350 . S
C424 C421 1.463 . S
C424 N428 1.427 . S
C425 H415 0.929 . S
C425 C423 1.433 . S
C425 N428 1.384 . S
C426 H417 0.929 . S
C426 C418 1.378 . S
C426 C421 1.350 . S
C427 H414 0.929 . S
C427 C419 1.433 . S
C427 N429 1.384 . S
N428 C424 1.427 . S
N428 C425 1.384 . S
N429 C421 1.427 . S
N429 C427 1.384 . S
H430 C436 0.930 . S
H431 C440 0.930 . S
H432 C445 0.929 . S
H433 C443 0.929 . S
H434 C438 0.929 . S
H435 C444 0.929 . S
C436 H430 0.930 . S
C436 C437 1.367 . S
C436 C444 1.378 . S
C437 C436 1.367 . S
C437 C445 1.433 . S
C438 H434 0.929 . S
C438 C440 1.378 . S
C438 C442 1.350 . S
C439 C442 1.463 . S
C439 C444 1.350 . S
C439 N447 1.427 . S
C440 H431 0.930 . S
C440 C438 1.378 . S
C440 C441 1.367 . S
C441 C440 1.367 . S
C441 C443 1.433 . S
C442 C438 1.350 . S
C442 C439 1.463 . S
C442 N446 1.427 . S
C443 H433 0.929 . S
C443 C441 1.433 . S
C443 N446 1.384 . S
C444 H435 0.929 . S
C444 C436 1.378 . S
C444 C439 1.350 . S
C445 H432 0.929 . S
C445 C437 1.433 . S
C445 N447 1.384 . S
N446 C442 1.427 . S
N446 C443 1.384 . S
N447 C439 1.427 . S
N447 C445 1.384 . S
H448 C454 0.930 . S
H449 C458 0.930 . S
H450 C463 0.929 . S
H451 C461 0.929 . S
H452 C456 0.929 . S
H453 C462 0.929 . S
C454 H448 0.930 . S
C454 C455 1.367 . S
C454 C462 1.378 . S
C455 C454 1.367 . S
C455 C463 1.433 . S
C456 H452 0.929 . S
C456 C458 1.378 . S
C456 C460 1.350 . S
C457 C460 1.463 . S
C457 C462 1.350 . S
C457 N465 1.427 . S
C458 H449 0.930 . S
C458 C456 1.378 . S
C458 C459 1.367 . S
C459 C458 1.367 . S
C459 C461 1.433 . S
C460 C456 1.350 . S
C460 C457 1.463 . S
C460 N464 1.427 . S
C461 H451 0.929 . S
C461 C459 1.433 . S
C461 N464 1.384 . S
C462 H453 0.929 . S
C462 C454 1.378 . S
C462 C457 1.350 . S
C463 H450 0.929 . S
C463 C455 1.433 . S
C463 N465 1.384 . S
N464 C460 1.427 . S
N464 C461 1.384 . S
N465 C457 1.427 . S
N465 C463 1.384 . S
H466 C472 0.930 . S
H467 C476 0.930 . S
H468 C481 0.929 . S
H469 C479 0.929 . S
H470 C474 0.929 . S
H471 C480 0.929 . S
C472 H466 0.930 . S
C472 C473 1.367 . S
C472 C480 1.378 . S
C473 C472 1.367 . S
C473 C481 1.433 . S
C474 H470 0.929 . S
C474 C476 1.378 . S
C474 C478 1.350 . S
C475 C478 1.463 . S
C475 C480 1.350 . S
C475 N483 1.427 . S
C476 H467 0.930 . S
C476 C474 1.378 . S
C476 C477 1.367 . S
C477 C476 1.367 . S
C477 C479 1.433 . S
C478 C474 1.350 . S
C478 C475 1.463 . S
C478 N482 1.427 . S
C479 H469 0.929 . S
C479 C477 1.433 . S
C479 N482 1.384 . S
C480 H471 0.929 . S
C480 C472 1.378 . S
C480 C475 1.350 . S
C481 H468 0.929 . S
C481 C473 1.433 . S
C481 N483 1.384 . S
N482 C478 1.427 . S
N482 C479 1.384 . S
N483 C475 1.427 . S
N483 C481 1.384 . S
H484 C490 0.930 . S
H485 C494 0.930 . S
H486 C499 0.929 . S
H487 C497 0.929 . S
H488 C492 0.929 . S
H489 C498 0.929 . S
C490 H484 0.930 . S
C490 C491 1.367 . S
C490 C498 1.378 . S
C491 C490 1.367 . S
C491 C499 1.433 . S
C492 H488 0.929 . S
C492 C494 1.378 . S
C492 C496 1.350 . S
C493 C496 1.463 . S
C493 C498 1.350 . S
C493 N501 1.427 . S
C494 H485 0.930 . S
C494 C492 1.378 . S
C494 C495 1.367 . S
C495 C494 1.367 . S
C495 C497 1.433 . S
C496 C492 1.350 . S
C496 C493 1.463 . S
C496 N500 1.427 . S
C497 H487 0.929 . S
C497 C495 1.433 . S
C497 N500 1.384 . S
C498 H489 0.929 . S
C498 C490 1.378 . S
C498 C493 1.350 . S
C499 H486 0.929 . S
C499 C491 1.433 . S
C499 N501 1.384 . S
N500 C496 1.427 . S
N500 C497 1.384 . S
N501 C493 1.427 . S
N501 C499 1.384 . S
H502 C508 0.930 . S
H503 C512 0.930 . S
H504 C517 0.929 . S
H505 C515 0.929 . S
H506 C510 0.929 . S
H507 C516 0.929 . S
C508 H502 0.930 . S
C508 C509 1.367 . S
C508 C516 1.378 . S
C509 C508 1.367 . S
C509 C517 1.433 . S
C510 H506 0.929 . S
C510 C512 1.378 . S
C510 C514 1.350 . S
C511 C514 1.463 . S
C511 C516 1.350 . S
C511 N519 1.427 . S
C512 H503 0.930 . S
C512 C510 1.378 . S
C512 C513 1.367 . S
C513 C512 1.367 . S
C513 C515 1.433 . S
C514 C510 1.350 . S
C514 C511 1.463 . S
C514 N518 1.427 . S
C515 H505 0.929 . S
C515 C513 1.433 . S
C515 N518 1.384 . S
C516 H507 0.929 . S
C516 C508 1.378 . S
C516 C511 1.350 . S
C517 H504 0.929 . S
C517 C509 1.433 . S
C517 N519 1.384 . S
N518 C514 1.427 . S
N518 C515 1.384 . S
N519 C511 1.427 . S
N519 C517 1.384 . S
H520 C526 0.930 . S
H521 C530 0.930 . S
H522 C535 0.929 . S
H523 C533 0.929 . S
H524 C528 0.929 . S
H525 C534 0.929 . S
C526 H520 0.930 . S
C526 C527 1.367 . S
C526 C534 1.378 . S
C527 C526 1.367 . S
C527 C535 1.433 . S
C528 H524 0.929 . S
C528 C530 1.378 . S
C528 C532 1.350 . S
C529 C532 1.463 . S
C529 C534 1.350 . S
C529 N537 1.427 . S
C530 H521 0.930 . S
C530 C528 1.378 . S
C530 C531 1.367 . S
C531 C530 1.367 . S
C531 C533 1.433 . S
C532 C528 1.350 . S
C532 C529 1.463 . S
C532 N536 1.427 . S
C533 H523 0.929 . S
C533 C531 1.433 . S
C533 N536 1.384 . S
C534 H525 0.929 . S
C534 C526 1.378 . S
C534 C529 1.350 . S
C535 H522 0.929 . S
C535 C527 1.433 . S
C535 N537 1.384 . S
N536 C532 1.427 . S
N536 C533 1.384 . S
N537 C529 1.427 . S
N537 C535 1.384 . S
H538 C544 0.930 . S
H539 C548 0.930 . S
H540 C553 0.929 . S
H541 C551 0.929 . S
H542 C546 0.929 . S
H543 C552 0.929 . S
C544 H538 0.930 . S
C544 C545 1.367 . S
C544 C552 1.378 . S
C545 C544 1.367 . S
C545 C553 1.433 . S
C546 H542 0.929 . S
C546 C548 1.378 . S
C546 C550 1.350 . S
C547 C550 1.463 . S
C547 C552 1.350 . S
C547 N555 1.427 . S
C548 H539 0.930 . S
C548 C546 1.378 . S
C548 C549 1.367 . S
C549 C548 1.367 . S
C549 C551 1.433 . S
C550 C546 1.350 . S
C550 C547 1.463 . S
C550 N554 1.427 . S
C551 H541 0.929 . S
C551 C549 1.433 . S
C551 N554 1.384 . S
C552 H543 0.929 . S
C552 C544 1.378 . S
C552 C547 1.350 . S
C553 H540 0.929 . S
C553 C545 1.433 . S
C553 N555 1.384 . S
N554 C550 1.427 . S
N554 C551 1.384 . S
N555 C547 1.427 . S
N555 C553 1.384 . S
H556 C562 0.930 . S
H557 C566 0.930 . S
H558 C571 0.929 . S
H559 C569 0.929 . S
H560 C564 0.929 . S
H561 C570 0.929 . S
C562 H556 0.930 . S
C562 C563 1.367 . S
C562 C570 1.378 . S
C563 C562 1.367 . S
C563 C571 1.433 . S
C564 H560 0.929 . S
C564 C566 1.378 . S
C564 C568 1.350 . S
C565 C568 1.463 . S
C565 C570 1.350 . S
C565 N573 1.427 . S
C566 H557 0.930 . S
C566 C564 1.378 . S
C566 C567 1.367 . S
C567 C566 1.367 . S
C567 C569 1.433 . S
C568 C564 1.350 . S
C568 C565 1.463 . S
C568 N572 1.427 . S
C569 H559 0.929 . S
C569 C567 1.433 . S
C569 N572 1.384 . S
C570 H561 0.929 . S
C570 C562 1.378 . S
C570 C565 1.350 . S
C571 H558 0.929 . S
C571 C563 1.433 . S
C571 N573 1.384 . S
N572 C568 1.427 . S
N572 C569 1.384 . S
N573 C565 1.427 . S
N573 C571 1.384 . S
H574 C580 0.930 . S
H575 C584 0.930 . S
H576 C589 0.929 . S
H577 C587 0.929 . S
H578 C582 0.929 . S
H579 C588 0.929 . S
C580 H574 0.930 . S
C580 C581 1.367 . S
C580 C588 1.378 . S
C581 C580 1.367 . S
C581 C589 1.433 . S
C582 H578 0.929 . S
C582 C584 1.378 . S
C582 C586 1.350 . S
C583 C586 1.463 . S
C583 C588 1.350 . S
C583 N591 1.427 . S
C584 H575 0.930 . S
C584 C582 1.378 . S
C584 C585 1.367 . S
C585 C584 1.367 . S
C585 C587 1.433 . S
C586 C582 1.350 . S
C586 C583 1.463 . S
C586 N590 1.427 . S
C587 H577 0.929 . S
C587 C585 1.433 . S
C587 N590 1.384 . S
C588 H579 0.929 . S
C588 C580 1.378 . S
C588 C583 1.350 . S
C589 H576 0.929 . S
C589 C581 1.433 . S
C589 N591 1.384 . S
N590 C586 1.427 . S
N590 C587 1.384 . S
N591 C583 1.427 . S
N591 C589 1.384 . S
H592 C598 0.914 1_565 S
H593 C602 0.930 . S
H594 C607 0.929 . S
H595 C605 0.929 . S
H596 C600 0.929 . S
H597 C606 0.929 . S
C598 H592 0.914 1_545 S
C598 C599 1.370 . S
C598 C606 1.392 . S
C599 C598 1.370 . S
C599 C607 1.433 . S
C600 H596 0.929 . S
C600 C602 1.378 . S
C600 C604 1.350 . S
C601 C604 1.463 . S
C601 C606 1.350 . S
C601 N609 1.427 . S
C602 H593 0.930 . S
C602 C600 1.378 . S
C602 C603 1.367 . S
C603 C602 1.367 . S
C603 C605 1.433 . S
C604 C600 1.350 . S
C604 C601 1.463 . S
C604 N608 1.427 . S
C605 H595 0.929 . S
C605 C603 1.433 . S
C605 N608 1.384 . S
C606 H597 0.929 . S
C606 C598 1.392 . S
C606 C601 1.350 . S
C607 H594 0.929 . S
C607 C599 1.433 . S
C607 N609 1.384 . S
N608 C604 1.427 . S
N608 C605 1.384 . S
N609 C601 1.427 . S
N609 C607 1.384 . S
H610 C616 0.930 . S
H611 C620 0.930 . S
H612 C625 0.929 . S
H613 C623 0.929 . S
H614 C618 0.929 . S
H615 C624 0.929 . S
C616 H610 0.930 . S
C616 C617 1.367 . S
C616 C624 1.378 . S
C617 C616 1.367 . S
C617 C625 1.433 1_565 S
C618 H614 0.929 . S
C618 C620 1.378 . S
C618 C622 1.350 . S
C619 C622 1.463 . S
C619 C624 1.350 . S
C619 N627 1.427 . S
C620 H611 0.930 . S
C620 C618 1.378 . S
C620 C621 1.367 . S
C621 C620 1.367 . S
C621 C623 1.433 . S
C622 C618 1.350 . S
C622 C619 1.463 . S
C622 N626 1.427 . S
C623 H613 0.929 . S
C623 C621 1.433 . S
C623 N626 1.384 . S
C624 H615 0.929 . S
C624 C616 1.378 . S
C624 C619 1.350 . S
C625 H612 0.929 . S
C625 C617 1.433 1_545 S
C625 N627 1.384 1_545 S
N626 C622 1.427 . S
N626 C623 1.384 . S
N627 C619 1.427 . S
N627 C625 1.384 1_565 S
H628 C634 0.959 . S
H629 C638 0.930 . S
H630 C643 0.929 . S
H631 C641 0.929 . S
H632 C636 0.929 . S
H633 C642 0.929 . S
C634 H628 0.959 . S
C634 C635 1.357 1_565 S
C634 C642 1.359 1_565 S
C635 C634 1.357 1_545 S
C635 C643 1.433 . S
C636 H632 0.929 . S
C636 C638 1.378 . S
C636 C640 1.350 . S
C637 C640 1.463 . S
C637 C642 1.350 . S
C637 N645 1.427 . S
C638 H629 0.930 . S
C638 C636 1.378 . S
C638 C639 1.367 . S
C639 C638 1.367 . S
C639 C641 1.433 . S
C640 C636 1.350 . S
C640 C637 1.463 . S
C640 N644 1.427 . S
C641 H631 0.929 . S
C641 C639 1.433 . S
C641 N644 1.384 . S
C642 H633 0.929 . S
C642 C634 1.359 1_545 S
C642 C637 1.350 . S
C643 H630 0.929 . S
C643 C635 1.433 . S
C643 N645 1.384 . S
N644 C640 1.427 . S
N644 C641 1.384 . S
N645 C637 1.427 . S
N645 C643 1.384 . S
H646 C652 0.930 . S
H647 C656 0.930 . S
H648 C661 0.929 1_545 S
H649 C659 0.929 . S
H650 C654 0.929 . S
H651 C660 0.929 . S
C652 H646 0.930 . S
C652 C653 1.367 . S
C652 C660 1.378 . S
C653 C652 1.367 . S
C653 C661 1.433 . S
C654 H650 0.929 . S
C654 C656 1.378 . S
C654 C658 1.350 . S
C655 C658 1.463 . S
C655 C660 1.350 . S
C655 N663 1.427 . S
C656 H647 0.930 . S
C656 C654 1.378 . S
C656 C657 1.367 . S
C657 C656 1.367 . S
C657 C659 1.433 . S
C658 C654 1.350 . S
C658 C655 1.463 . S
C658 N662 1.427 . S
C659 H649 0.929 . S
C659 C657 1.433 . S
C659 N662 1.384 . S
C660 H651 0.929 . S
C660 C652 1.378 . S
C660 C655 1.350 . S
C661 H648 0.929 1_565 S
C661 C653 1.433 . S
C661 N663 1.384 . S
N662 C658 1.427 . S
N662 C659 1.384 . S
N663 C655 1.427 . S
N663 C661 1.384 . S
H664 C670 0.930 . S
H665 C674 0.930 . S
H666 C679 0.929 . S
H667 C677 0.929 . S
H668 C672 0.929 . S
H669 C678 0.929 . S
C670 H664 0.930 . S
C670 C671 1.367 . S
C670 C678 1.378 . S
C671 C670 1.367 . S
C671 C679 1.433 . S
C672 H668 0.929 . S
C672 C674 1.378 . S
C672 C676 1.350 . S
C673 C676 1.463 . S
C673 C678 1.350 . S
C673 N681 1.427 . S
C674 H665 0.930 . S
C674 C672 1.378 . S
C674 C675 1.367 . S
C675 C674 1.367 . S
C675 C677 1.433 . S
C676 C672 1.350 . S
C676 C673 1.463 . S
C676 N680 1.427 . S
C677 H667 0.929 . S
C677 C675 1.433 . S
C677 N680 1.384 . S
C678 H669 0.929 . S
C678 C670 1.378 . S
C678 C673 1.350 . S
C679 H666 0.929 . S
C679 C671 1.433 . S
C679 N681 1.384 . S
N680 C676 1.427 . S
N680 C677 1.384 . S
N681 C673 1.427 . S
N681 C679 1.384 . S
H682 C688 0.930 . S
H683 C692 0.930 . S
H684 C697 0.929 . S
H685 C695 0.929 . S
H686 C690 0.929 . S
H687 C696 0.929 . S
C688 H682 0.930 . S
C688 C689 1.367 . S
C688 C696 1.378 . S
C689 C688 1.367 . S
C689 C697 1.433 . S
C690 H686 0.929 . S
C690 C692 1.378 . S
C690 C694 1.350 . S
C691 C694 1.463 . S
C691 C696 1.350 . S
C691 N699 1.427 . S
C692 H683 0.930 . S
C692 C690 1.378 . S
C692 C693 1.367 . S
C693 C692 1.367 . S
C693 C695 1.433 . S
C694 C690 1.350 . S
C694 C691 1.463 . S
C694 N698 1.427 . S
C695 H685 0.929 . S
C695 C693 1.433 . S
C695 N698 1.384 . S
C696 H687 0.929 . S
C696 C688 1.378 . S
C696 C691 1.350 . S
C697 H684 0.929 . S
C697 C689 1.433 . S
C697 N699 1.384 . S
N698 C694 1.427 . S
N698 C695 1.384 . S
N699 C691 1.427 . S
N699 C697 1.384 . S
H700 C706 0.930 . S
H701 C710 0.930 . S
H702 C715 0.929 . S
H703 C713 0.929 . S
H704 C708 0.929 . S
H705 C714 0.929 . S
C706 H700 0.930 . S
C706 C707 1.367 . S
C706 C714 1.378 . S
C707 C706 1.367 . S
C707 C715 1.433 . S
C708 H704 0.929 . S
C708 C710 1.378 . S
C708 C712 1.350 . S
C709 C712 1.463 . S
C709 C714 1.350 . S
C709 N717 1.427 . S
C710 H701 0.930 . S
C710 C708 1.378 . S
C710 C711 1.367 . S
C711 C710 1.367 . S
C711 C713 1.433 . S
C712 C708 1.350 . S
C712 C709 1.463 . S
C712 N716 1.427 . S
C713 H703 0.929 . S
C713 C711 1.433 . S
C713 N716 1.384 . S
C714 H705 0.929 . S
C714 C706 1.378 . S
C714 C709 1.350 . S
C715 H702 0.929 . S
C715 C707 1.433 . S
C715 N717 1.384 . S
N716 C712 1.427 . S
N716 C713 1.384 . S
N717 C709 1.427 . S
N717 C715 1.384 . S
H718 C724 0.930 . S
H719 C728 0.930 . S
H720 C733 0.929 . S
H721 C731 0.929 . S
H722 C726 0.929 . S
H723 C732 0.929 . S
C724 H718 0.930 . S
C724 C725 1.367 . S
C724 C732 1.378 . S
C725 C724 1.367 . S
C725 C733 1.433 . S
C726 H722 0.929 . S
C726 C728 1.378 . S
C726 C730 1.350 . S
C727 C730 1.463 . S
C727 C732 1.350 . S
C727 N735 1.427 . S
C728 H719 0.930 . S
C728 C726 1.378 . S
C728 C729 1.367 . S
C729 C728 1.367 . S
C729 C731 1.433 . S
C730 C726 1.350 . S
C730 C727 1.463 . S
C730 N734 1.427 . S
C731 H721 0.929 . S
C731 C729 1.433 . S
C731 N734 1.384 . S
C732 H723 0.929 . S
C732 C724 1.378 . S
C732 C727 1.350 . S
C733 H720 0.929 . S
C733 C725 1.433 . S
C733 N735 1.384 . S
N734 C730 1.427 . S
N734 C731 1.384 . S
N735 C727 1.427 . S
N735 C733 1.384 . S
H736 C742 0.930 . S
H737 C746 0.930 . S
H738 C751 0.929 . S
H739 C749 0.929 . S
H740 C744 0.929 . S
H741 C750 0.929 . S
C742 H736 0.930 . S
C742 C743 1.367 . S
C742 C750 1.378 . S
C743 C742 1.367 . S
C743 C751 1.433 . S
C744 H740 0.929 . S
C744 C746 1.378 . S
C744 C748 1.350 . S
C745 C748 1.463 . S
C745 C750 1.350 . S
C745 N753 1.427 . S
C746 H737 0.930 . S
C746 C744 1.378 . S
C746 C747 1.367 . S
C747 C746 1.367 . S
C747 C749 1.433 . S
C748 C744 1.350 . S
C748 C745 1.463 . S
C748 N752 1.427 . S
C749 H739 0.929 . S
C749 C747 1.433 . S
C749 N752 1.384 . S
C750 H741 0.929 . S
C750 C742 1.378 . S
C750 C745 1.350 . S
C751 H738 0.929 . S
C751 C743 1.433 . S
C751 N753 1.384 . S
N752 C748 1.427 . S
N752 C749 1.384 . S
N753 C745 1.427 . S
N753 C751 1.384 . S
H754 C760 0.930 . S
H755 C764 0.930 . S
H756 C769 0.929 . S
H757 C767 0.929 . S
H758 C762 0.929 . S
H759 C768 0.929 . S
C760 H754 0.930 . S
C760 C761 1.367 . S
C760 C768 1.378 . S
C761 C760 1.367 . S
C761 C769 1.433 . S
C762 H758 0.929 . S
C762 C764 1.378 . S
C762 C766 1.350 . S
C763 C766 1.463 . S
C763 C768 1.350 . S
C763 N771 1.427 . S
C764 H755 0.930 . S
C764 C762 1.378 . S
C764 C765 1.367 . S
C765 C764 1.367 . S
C765 C767 1.433 . S
C766 C762 1.350 . S
C766 C763 1.463 . S
C766 N770 1.427 . S
C767 H757 0.929 . S
C767 C765 1.433 . S
C767 N770 1.384 . S
C768 H759 0.929 . S
C768 C760 1.378 . S
C768 C763 1.350 . S
C769 H756 0.929 . S
C769 C761 1.433 . S
C769 N771 1.384 . S
N770 C766 1.427 . S
N770 C767 1.384 . S
N771 C763 1.427 . S
N771 C769 1.384 . S
H772 C778 0.930 . S
H773 C782 0.930 . S
H774 C787 0.929 . S
H775 C785 0.929 . S
H776 C780 0.929 . S
H777 C786 0.929 . S
C778 H772 0.930 . S
C778 C779 1.367 . S
C778 C786 1.378 . S
C779 C778 1.367 . S
C779 C787 1.433 . S
C780 H776 0.929 . S
C780 C782 1.378 . S
C780 C784 1.350 . S
C781 C784 1.463 . S
C781 C786 1.350 . S
C781 N789 1.427 . S
C782 H773 0.930 . S
C782 C780 1.378 . S
C782 C783 1.367 . S
C783 C782 1.367 . S
C783 C785 1.433 . S
C784 C780 1.350 . S
C784 C781 1.463 . S
C784 N788 1.427 . S
C785 H775 0.929 . S
C785 C783 1.433 . S
C785 N788 1.384 . S
C786 H777 0.929 . S
C786 C778 1.378 . S
C786 C781 1.350 . S
C787 H774 0.929 . S
C787 C779 1.433 . S
C787 N789 1.384 . S
N788 C784 1.427 . S
N788 C785 1.384 . S
N789 C781 1.427 . S
N789 C787 1.384 . S
H790 C796 0.930 . S
H791 C800 0.930 . S
H792 C805 0.929 . S
H793 C803 0.929 . S
H794 C798 0.929 . S
H795 C804 0.929 . S
C796 H790 0.930 . S
C796 C797 1.367 . S
C796 C804 1.378 . S
C797 C796 1.367 . S
C797 C805 1.433 . S
C798 H794 0.929 . S
C798 C800 1.378 . S
C798 C802 1.350 . S
C799 C802 1.463 . S
C799 C804 1.350 . S
C799 N807 1.427 . S
C800 H791 0.930 . S
C800 C798 1.378 . S
C800 C801 1.367 . S
C801 C800 1.367 . S
C801 C803 1.433 . S
C802 C798 1.350 . S
C802 C799 1.463 . S
C802 N806 1.427 . S
C803 H793 0.929 . S
C803 C801 1.433 . S
C803 N806 1.384 . S
C804 H795 0.929 . S
C804 C796 1.378 . S
C804 C799 1.350 . S
C805 H792 0.929 . S
C805 C797 1.433 . S
C805 N807 1.384 . S
N806 C802 1.427 . S
N806 C803 1.384 . S
N807 C799 1.427 . S
N807 C805 1.384 . S
C383 C25 1.527 . S
C387 C331 1.534 . S
C405 C295 1.534 . S
C401 C61 1.527 . S
C423 C318 1.531 . S
C419 C97 1.540 . S
C441 C306 1.530 . S
C437 C133 1.539 . S
C459 C375 1.539 . S
C455 C169 1.533 . S
C477 C339 1.534 . S
C473 C205 1.527 . S
C491 C241 1.539 . S
C495 C362 1.529 . S
C513 C350 1.530 . S
C509 C277 1.540 . S
C527 C31 1.491 . S
C531 C372 1.531 . S
C549 C342 1.531 . S
C545 C67 1.490 . S
C563 C103 1.546 . S
C567 C361 1.561 . S
C581 C139 1.551 . S
C585 C347 1.557 . S
C603 C328 1.533 . S
C599 C175 1.484 1_545 S
C617 C211 1.496 1_565 S
C621 C298 1.531 . S
C639 C317 1.562 . S
C635 C247 1.545 1_545 S
C657 C303 1.560 . S
C653 C283 1.545 1_565 S
C675 C353 1.530 . S
C671 C1 1.507 . S
C693 C369 1.532 . S
C689 C37 1.513 . S
C707 C73 1.498 . S
C711 C340 1.503 . S
C729 C364 1.503 . S
C725 C109 1.500 . S
C747 C309 1.533 . S
C743 C145 1.509 . S
C761 C181 1.514 . S
C765 C325 1.532 . S
C779 C217 1.495 . S
C783 C296 1.506 . S
C797 C253 1.500 . S
C801 C320 1.506 . S
