# Generated by pormake.
# Topology pyr, (3,6)-cn, num edge types: 1
# Building blocks:
#     Node 0, Type 0, BuildingBlock: INOVEN_clean_linker_0, # of connection points: 3
#     Node 1, Type 0, BuildingBlock: INOVEN_clean_linker_0, # of connection points: 3
#     Node 2, Type 0, BuildingBlock: INOVEN_clean_linker_0, # of connection points: 3
#     Node 3, Type 0, BuildingBlock: INOVEN_clean_linker_0, # of connection points: 3
#     Node 4, Type 0, BuildingBlock: INOVEN_clean_linker_0, # of connection points: 3
#     Node 5, Type 0, BuildingBlock: INOVEN_clean_linker_0, # of connection points: 3
#     Node 6, Type 0, BuildingBlock: INOVEN_clean_linker_0, # of connection points: 3
#     Node 7, Type 0, BuildingBlock: INOVEN_clean_linker_0, # of connection points: 3
#     Node 8, Type 1, BuildingBlock: FUNLAD_clean_sbu_0, # of connection points: 6
#     Node 9, Type 1, BuildingBlock: FUNLAD_clean_sbu_0, # of connection points: 6
#     Node 10, Type 1, BuildingBlock: FUNLAD_clean_sbu_0, # of connection points: 6
#     Node 11, Type 1, BuildingBlock: FUNLAD_clean_sbu_0, # of connection points: 6
#     Edge 12, Type (0, 1), BuildingBlock: CIFDUS_clean_linker_0, # of connection points: 2
#     Edge 13, Type (0, 1), BuildingBlock: CIFDUS_clean_linker_0, # of connection points: 2
#     Edge 14, Type (0, 1), BuildingBlock: CIFDUS_clean_linker_0, # of connection points: 2
#     Edge 15, Type (0, 1), BuildingBlock: CIFDUS_clean_linker_0, # of connection points: 2
#     Edge 16, Type (0, 1), BuildingBlock: CIFDUS_clean_linker_0, # of connection points: 2
#     Edge 17, Type (0, 1), BuildingBlock: CIFDUS_clean_linker_0, # of connection points: 2
#     Edge 18, Type (0, 1), BuildingBlock: CIFDUS_clean_linker_0, # of connection points: 2
#     Edge 19, Type (0, 1), BuildingBlock: CIFDUS_clean_linker_0, # of connection points: 2
#     Edge 20, Type (0, 1), BuildingBlock: CIFDUS_clean_linker_0, # of connection points: 2
#     Edge 21, Type (0, 1), BuildingBlock: CIFDUS_clean_linker_0, # of connection points: 2
#     Edge 22, Type (0, 1), BuildingBlock: CIFDUS_clean_linker_0, # of connection points: 2
#     Edge 23, Type (0, 1), BuildingBlock: CIFDUS_clean_linker_0, # of connection points: 2
#     Edge 24, Type (0, 1), BuildingBlock: CIFDUS_clean_linker_0, # of connection points: 2
#     Edge 25, Type (0, 1), BuildingBlock: CIFDUS_clean_linker_0, # of connection points: 2
#     Edge 26, Type (0, 1), BuildingBlock: CIFDUS_clean_linker_0, # of connection points: 2
#     Edge 27, Type (0, 1), BuildingBlock: CIFDUS_clean_linker_0, # of connection points: 2
#     Edge 28, Type (0, 1), BuildingBlock: CIFDUS_clean_linker_0, # of connection points: 2
#     Edge 29, Type (0, 1), BuildingBlock: CIFDUS_clean_linker_0, # of connection points: 2
#     Edge 30, Type (0, 1), BuildingBlock: CIFDUS_clean_linker_0, # of connection points: 2
#     Edge 31, Type (0, 1), BuildingBlock: CIFDUS_clean_linker_0, # of connection points: 2
#     Edge 32, Type (0, 1), BuildingBlock: CIFDUS_clean_linker_0, # of connection points: 2
#     Edge 33, Type (0, 1), BuildingBlock: CIFDUS_clean_linker_0, # of connection points: 2
#     Edge 34, Type (0, 1), BuildingBlock: CIFDUS_clean_linker_0, # of connection points: 2
#     Edge 35, Type (0, 1), BuildingBlock: CIFDUS_clean_linker_0, # of connection points: 2
# Relax obj value: 0.230
# Max RMSD: 0.208
# Mean RMSD: 0.129
data_MOF--net-pry--node1-FUNLAD_clean_sbu_0--node2-INOVEN_clean_linker_0--edge1-CIFDUS_clean_linker_0
_symmetry_space_group_name_H-M    P1
_symmetry_Int_Tables_number       1
_symmetry_cell_setting            triclinic
loop_
_symmetry_equiv_pos_as_xyz
'x, y, z'
_cell_length_a     29.55651
_cell_length_b     32.267539
_cell_length_c     33.244
_cell_angle_alpha  89.705981
_cell_angle_beta   90.511964
_cell_angle_gamma 85.663739
loop_
_atom_site_label
_atom_site_type_symbol
_atom_site_fract_x
_atom_site_fract_y
_atom_site_fract_z
_atom_type_partial_charge
H0 H 0.09501 0.24805 0.27192 0.0
H1 H 0.19314 0.14193 0.27148 0.0
H2 H 0.18611 0.22954 0.17302 0.0
N3 N 0.12028 0.28188 0.20304 0.0
N4 N 0.12893 0.29092 0.16741 0.0
C5 C 0.12263 0.22977 0.25775 0.0
C6 C 0.14105 0.19235 0.27605 0.0
C7 C 0.13887 0.24353 0.22072 0.0
C8 C 0.17428 0.21947 0.20191 0.0
C9 C 0.19489 0.18304 0.21993 0.0
C10 C 0.1774 0.16947 0.25683 0.0
H11 H 0.38277 0.86613 0.69138 0.0
H12 H 0.47517 0.86775 0.79207 0.0
H13 H 0.36167 0.96032 0.78041 0.0
N14 N 0.32981 0.92857 0.71045 0.0
N15 N 0.30767 0.96272 0.71442 0.0
C16 C 0.39461 0.88047 0.71856 0.0
C17 C 0.43326 0.8631 0.73879 0.0
C18 C 0.36941 0.91535 0.73285 0.0
C19 C 0.38234 0.93393 0.76894 0.0
C20 C 0.42041 0.91687 0.79127 0.0
C21 C 0.44571 0.88115 0.77574 0.0
H22 H 0.5733 0.48561 1.03998 0.0
H23 H 0.70851 0.44781 0.08055 0.0
H24 H 0.6761 0.57167 1.03562 0.0
N25 N 0.59607 0.55754 1.0091 0.0
N26 N 0.55848 0.54851 0.9958 0.0
C27 C 0.6069 0.49365 0.04875 0.0
C28 C 0.63872 0.46228 0.06272 0.0
C29 C 0.62044 0.53315 1.03875 0.0
C30 C 0.66517 0.5423 0.0464 0.0
C31 C 0.69748 0.51151 0.06082 0.0
C32 C 0.68353 0.47202 0.07038 0.0
H33 H 0.88519 0.5713 0.47495 0.0
H34 H 0.86025 0.65504 0.57394 0.0
H35 H 0.98022 0.66043 0.50331 0.0
N36 N 0.95578 0.60765 0.44824 0.0
N37 N 0.9939 0.61931 0.43986 0.0
C38 C 0.8968 0.59429 0.4955 0.0
C39 C 0.86894 0.60897 0.52727 0.0
C40 C 0.93733 0.61232 0.48726 0.0
C41 C 0.9511 0.64412 0.51206 0.0
C42 C 0.92269 0.66073 0.54243 0.0
C43 C 0.88297 0.64139 0.55138 0.0
H44 H 0.86265 0.9784 0.84185 0.0
H45 H 0.98085 0.89038 0.84367 0.0
H46 H 0.88527 0.89272 0.94031 0.0
N47 N 0.82769 0.95349 0.9105 0.0
N48 N 0.81031 0.93439 0.93854 0.0
C49 C 0.88373 0.95366 0.85636 0.0
C50 C 0.92385 0.93703 0.83764 0.0
C51 C 0.86929 0.93743 0.89296 0.0
C52 C 0.89605 0.90508 0.91187 0.0
C53 C 0.93636 0.88801 0.89475 0.0
C54 C 0.94981 0.90357 0.85713 0.0
H55 H 0.58121 0.22373 0.35321 0.0
H56 H 0.69804 0.13502 0.36136 0.0
H57 H 0.67939 0.23323 0.44797 0.0
N58 N 0.6023 0.26932 0.41668 0.0
N59 N 0.60968 0.28344 0.45095 0.0
C60 C 0.61238 0.21198 0.36807 0.0
C61 C 0.63706 0.17598 0.35329 0.0
C62 C 0.62712 0.23249 0.40254 0.0
C63 C 0.66767 0.21735 0.42166 0.0
C64 C 0.69403 0.18274 0.40682 0.0
C65 C 0.67789 0.16159 0.37315 0.0
H66 H 0.50819 0.6428 0.11955 0.0
H67 H 0.40119 0.66559 1.03258 0.0
H68 H 0.40161 0.56004 0.11151 0.0
N69 N 0.47025 0.5851 0.15787 0.0
N70 N 0.44251 0.5691 0.18005 0.0
C71 C 0.4798 0.63171 0.10289 0.0
C72 C 0.45865 0.65691 0.07279 0.0
C73 C 0.45876 0.59761 0.11793 0.0
C74 C 0.41929 0.58522 0.09884 0.0
C75 C 0.39902 0.60905 0.06714 0.0
C76 C 0.41904 0.64481 0.05416 0.0
H77 H 0.05065 0.48435 0.58021 0.0
H78 H 0.18013 0.4775 0.52217 0.0
H79 H 0.14264 0.5781 0.60236 0.0
N80 N 0.06822 0.54744 0.6279 0.0
N81 N 0.03869 0.5261 0.6422 0.0
C82 C 0.08138 0.49869 0.57238 0.0
C83 C 0.11327 0.47717 0.54769 0.0
C84 C 0.09207 0.53473 0.59269 0.0
C85 C 0.13338 0.55156 0.58508 0.0
C86 C 0.16514 0.53133 0.55925 0.0
C87 C 0.1545 0.49462 0.53994 0.0
C88 C 0.04568 0.08516 0.47587 0.0
N89 N 0.01735 0.16532 0.57136 0.0
C90 C 0.05862 0.17657 0.55952 0.0
C91 C 0.06659 0.21808 0.55488 0.0
C92 C 0.03221 0.24907 0.56341 0.0
C93 C 0.99042 0.2368 0.57763 0.0
C94 C 0.98352 0.1944 0.58108 0.0
Zn95 Zn 1.00853 0.10398 0.5621 0.0
C96 C 0.92274 0.09074 0.51883 0.0
N97 N 1.00177 0.97739 0.533 0.0
C98 C 0.03586 0.95009 0.52021 0.0
C99 C 0.96242 0.96404 0.54725 0.0
C100 C 0.95716 0.92195 0.55159 0.0
C101 C 0.99199 0.89265 0.53974 0.0
C102 C 0.03143 0.90726 0.52289 0.0
Zn103 Zn 1.00914 0.03863 0.54244 0.0
O104 O 0.03738 0.11228 0.50297 0.0
C105 C 0.09394 0.05213 0.58621 0.0
O106 O 0.03698 0.0478 0.48328 0.0
H107 H 0.93588 0.98615 0.55771 0.0
H108 H 0.08486 0.15328 0.5509 0.0
H109 H 0.06708 0.96145 0.50943 0.0
O110 O 0.07367 0.08815 0.5881 0.0
O111 O 0.0753 1.02398 0.56689 0.0
H112 H 0.95071 0.1848 0.58979 0.0
O113 O 0.98331 0.02966 0.60207 0.0
O114 O 0.97987 0.09443 0.62157 0.0
O115 O 0.94199 0.05411 0.51795 0.0
O116 O 0.94296 0.11914 0.53634 0.0
C117 C 0.97475 0.05628 0.62951 0.0
H118 H 0.09889 0.22546 0.54276 0.0
H119 H 0.96305 0.25956 0.58511 0.0
H120 H 0.9266 0.91283 0.56576 0.0
H121 H 0.05891 0.886 0.51259 0.0
C122 C 0.58747 0.04252 1.03744 0.0
N123 N 0.51812 0.1598 1.03426 0.0
C124 C 0.56095 0.17025 1.04248 0.0
C125 C 0.57121 0.21141 1.04157 0.0
C126 C 0.53722 0.24269 1.03213 0.0
C127 C 0.49374 0.23111 1.02156 0.0
C128 C 0.48484 0.18908 1.02284 0.0
Zn129 Zn 0.50569 0.10142 0.05267 0.0
C130 C 0.46735 0.04753 0.99303 0.0
N131 N 0.48975 0.98228 0.1016 0.0
C132 C 0.52415 0.95481 0.1144 0.0
C133 C 0.44761 0.96987 0.09386 0.0
C134 C 0.43917 0.92821 0.09711 0.0
C135 C 0.47448 0.89876 0.10814 0.0
C136 C 0.51722 0.91252 0.11779 0.0
Zn137 Zn 0.50083 0.0406 0.08254 0.0
O138 O 0.56931 0.07863 1.03019 0.0
C139 C 0.54131 0.09468 0.14116 0.0
O140 O 0.56688 1.01847 0.06023 0.0
H141 H 0.42108 0.99187 0.08258 0.0
H142 H 0.58666 0.1471 0.05302 0.0
H143 H 0.55752 0.96531 0.11996 0.0
O144 O 0.53496 0.1168 0.10957 0.0
O145 O 0.53053 0.05717 0.14017 0.0
H146 H 0.45082 0.18023 1.01708 0.0
O147 O 0.43427 0.06453 0.10518 0.0
O148 O 0.44197 0.1239 0.0749 0.0
O149 O 0.47277 1.02421 1.02405 0.0
O150 O 0.47647 0.08541 0.99593 0.0
C151 C 0.41904 0.1018 0.09757 0.0
H152 H 0.60486 0.2187 0.05098 0.0
H153 H 0.46661 0.25432 1.01387 0.0
H154 H 0.40593 0.91892 0.08873 0.0
H155 H 0.54523 0.89073 0.12672 0.0
C156 C 0.53516 0.49218 0.56714 0.0
N157 N 0.53381 0.55608 0.67874 0.0
C158 C 0.51301 0.52914 0.70273 0.0
C159 C 0.51846 0.53081 0.74467 0.0
C160 C 0.54498 0.56088 0.76163 0.0
C161 C 0.5659 0.58788 0.73582 0.0
C162 C 0.56044 0.58455 0.69466 0.0
Zn163 Zn 0.52203 0.56479 0.61865 0.0
C164 C 0.60938 0.58489 0.5783 0.0
N165 N 0.50212 0.59713 0.49556 0.0
C166 C 0.47744 0.56843 0.4775 0.0
C167 C 0.52171 0.62648 0.47357 0.0
C168 C 0.51782 0.62673 0.4315 0.0
C169 C 0.49428 0.596 0.41202 0.0
C170 C 0.47361 0.56694 0.4359 0.0
Zn171 Zn 0.51372 0.58719 0.55565 0.0
O172 O 0.53531 0.50035 0.60462 0.0
C173 C 0.42643 0.56603 0.59485 0.0
O174 O 0.52686 0.52185 0.54219 0.0
H175 H 0.54144 0.64885 0.48852 0.0
H176 H 0.49139 0.50718 0.6895 0.0
H177 H 0.46227 0.54513 0.49529 0.0
O178 O 0.4517 0.55669 0.62525 0.0
O179 O 0.44401 0.57941 0.56309 0.0
H180 H 0.57603 0.60643 0.67552 0.0
O181 O 0.5015 0.65285 0.57085 0.0
O182 O 0.50877 0.62889 0.63233 0.0
O183 O 0.58354 0.59444 0.54842 0.0
O184 O 0.59228 0.57248 0.61068 0.0
C185 C 0.50178 0.65963 0.60866 0.0
H186 H 0.50198 0.50909 0.76347 0.0
H187 H 0.5855 0.61239 0.7472 0.0
H188 H 0.53372 0.65029 0.41454 0.0
H189 H 0.45605 0.54198 0.4228 0.0
C190 C 0.0222 0.6736 1.00464 0.0
N191 N 0.02645 0.63709 0.12794 0.0
C192 C 0.0494 0.66802 0.14443 0.0
C193 C 0.04402 0.67778 0.1853 0.0
C194 C 1.01424 0.65581 0.2084 0.0
C195 C 0.99081 0.62469 0.19048 0.0
C196 C 0.9978 0.61548 0.15033 0.0
Zn197 Zn 0.03548 0.61465 0.07113 0.0
C198 C 0.9476 0.58594 1.04141 0.0
N199 N 0.04982 0.55601 0.95753 0.0
C200 C 0.08108 0.57341 0.93431 0.0
C201 C 0.01686 0.53429 0.94056 0.0
C202 C 1.01157 0.53344 0.89874 0.0
C203 C 0.04122 0.55428 0.8743 0.0
C204 C 0.07793 0.57215 0.89266 0.0
Zn205 Zn 0.04349 0.57789 1.01511 0.0
O206 O 0.02303 0.67548 1.04298 0.0
C207 C 0.13102 0.60781 0.04731 0.0
O208 O 0.02944 0.63824 0.98821 0.0
H209 H 0.99239 0.52029 0.95923 0.0
H210 H 0.07261 0.68431 0.12627 0.0
H211 H 0.10652 0.59142 0.94762 0.0
O212 O 0.1047 0.62318 0.07419 0.0
O213 O 0.11495 0.58696 1.0189 0.0
H214 H 0.98114 0.58993 0.1375 0.0
O215 O 0.05709 0.51822 1.04133 0.0
O216 O 0.04844 0.55219 0.09801 0.0
O217 O 0.97223 0.56851 1.01434 0.0
O218 O 0.96572 0.60763 0.0677 0.0
C219 C 0.05656 0.51782 0.07959 0.0
H220 H 0.06287 0.70179 0.19867 0.0
H221 H 0.96825 0.60669 0.2078 0.0
H222 H 0.98291 0.51888 0.88608 0.0
H223 H 0.10285 0.58709 0.87514 0.0
H224 H 0.12566 0.11271 0.30079 0.0
H225 H 0.11657 0.23979 0.34165 0.0
H226 H 0.08681 0.21802 0.40592 0.0
H227 H 0.06302 0.1633 0.45105 0.0
H228 H 0.07137 0.03597 0.41113 0.0
H229 H 0.10194 0.05737 0.34662 0.0
C230 C 0.11748 0.13566 0.32382 0.0
C231 C 0.12331 0.17808 0.31582 0.0
C232 C 0.10016 0.12285 0.36115 0.0
C233 C 0.11192 0.20714 0.34625 0.0
C234 C 0.09507 0.19465 0.38331 0.0
C235 C 0.07151 0.14006 0.42834 0.0
C236 C 0.06473 0.09789 0.43632 0.0
C237 C 0.0889 0.15264 0.39112 0.0
C238 C 0.07606 0.06855 0.40615 0.0
C239 C 0.09361 0.08084 0.36911 0.0
H240 H 0.41749 0.9995 0.81313 0.0
H241 H 0.44877 0.87592 0.86082 0.0
H242 H 0.46412 0.90491 0.92686 0.0
H243 H 0.46841 0.96536 0.9718 0.0
H244 H 0.43876 0.08903 0.92393 0.0
H245 H 0.42227 0.06002 0.85798 0.0
C246 C 0.42745 0.97877 0.83794 0.0
C247 C 0.43192 0.9353 0.83145 0.0
C248 C 0.43619 0.99575 0.87621 0.0
C249 C 0.4456 0.90936 0.86427 0.0
C250 C 0.45404 0.92598 0.90234 0.0
C251 C 0.45794 0.98606 0.94708 0.0
C252 C 0.4545 0.02954 0.95328 0.0
C253 C 0.44933 0.96911 0.90878 0.0
C254 C 0.44154 0.05559 0.92042 0.0
C255 C 0.43221 0.03895 0.88252 0.0
H256 H 0.60769 0.58423 0.94021 0.0
H257 H 0.47569 0.54242 0.96455 0.0
H258 H 0.45715 0.54539 0.89225 0.0
H259 H 0.4835 0.55071 0.82185 0.0
H260 H 0.6219 0.57967 0.80095 0.0
H261 H 0.63317 0.59032 0.87215 0.0
C262 C 0.57427 0.57698 0.92995 0.0
C263 C 0.54284 0.5633 0.95757 0.0
C264 C 0.56565 0.57529 0.88871 0.0
C265 C 0.50005 0.55351 0.94368 0.0
C266 C 0.4899 0.55446 0.9024 0.0
C267 C 0.51619 0.55903 0.83291 0.0
C268 C 0.55153 0.56486 0.80575 0.0
C269 C 0.52332 0.56346 0.87452 0.0
C270 C 0.59359 0.57599 0.82077 0.0
C271 C 0.60025 0.58198 0.86163 0.0
H272 H 0.93937 0.65074 0.38198 0.0
H273 H 0.07654 0.60377 0.4083 0.0
H274 H 0.09803 0.61672 0.33813 0.0
H275 H 0.07514 0.6372 0.26823 0.0
H276 H 0.93781 0.68632 0.24441 0.0
H277 H 0.91889 0.6782 0.31525 0.0
C278 C 0.97381 0.64289 0.37206 0.0
C279 C 1.00611 0.62476 0.39926 0.0
C280 C 0.98585 0.6518 0.3326 0.0
C281 C 0.05112 0.6166 0.38711 0.0
C282 C 0.06332 0.62435 0.3473 0.0
C283 C 0.04163 0.6474 0.27907 0.0
C284 C 1.00788 0.66266 0.25166 0.0
C285 C 0.03078 0.64163 0.31967 0.0
C286 C 0.96424 0.67504 0.26541 0.0
C287 C 0.95332 0.66984 0.30564 0.0
H288 H 0.26205 0.21632 0.17681 0.0
H289 H 0.22023 0.09839 0.21876 0.0
H290 H 0.2855 0.06261 0.18548 0.0
H291 H 0.35455 0.06477 0.14288 0.0
H292 H 0.39028 0.18361 0.09757 0.0
H293 H 0.32654 0.21838 0.13239 0.0
C294 C 0.26622 0.18269 0.17817 0.0
C295 C 0.23534 0.16041 0.20025 0.0
C296 C 0.3029 0.16216 0.15786 0.0
C297 C 0.24325 0.1168 0.20252 0.0
C298 C 0.28052 0.09615 0.1831 0.0
C299 C 0.34816 0.09822 0.14043 0.0
C300 C 0.37753 0.12131 0.11737 0.0
C301 C 0.31058 0.11848 0.16044 0.0
C302 C 0.36849 0.16473 0.11472 0.0
C303 C 0.33198 0.18486 0.13486 0.0
H304 H 0.26571 0.03776 0.70238 0.0
H305 H 0.26117 0.90862 0.6711 0.0
H306 H 0.196 0.92545 0.62719 0.0
H307 H 0.13966 0.97651 0.5977 0.0
H308 H 0.1434 0.1061 0.62806 0.0
H309 H 0.20941 0.08962 0.67154 0.0
C310 C 0.25018 1.01349 0.68597 0.0
C311 C 0.26836 0.97224 0.68996 0.0
C312 C 0.21272 1.02344 0.66024 0.0
C313 C 0.24812 0.94079 0.66846 0.0
C314 C 0.21078 0.95035 0.64325 0.0
C315 C 0.15514 1.00124 0.61349 0.0
C316 C 0.13654 0.04246 0.60948 0.0
C317 C 0.19288 0.99155 0.63876 0.0
C318 C 0.15699 0.07405 0.63047 0.0
C319 C 0.19469 0.06465 0.65553 0.0
H320 H 0.74072 0.57961 0.08275 0.0
H321 H 0.76386 0.45856 1.02888 0.0
H322 H 0.84253 0.47169 1.01586 0.0
H323 H 0.90485 0.5181 1.01863 0.0
H324 H 0.88207 0.63853 0.07367 0.0
H325 H 0.80309 0.62562 0.08627 0.0
C326 C 0.7631 0.55606 0.06838 0.0
C327 C 0.74651 0.51805 0.0573 0.0
C328 C 0.80822 0.56399 0.06043 0.0
C329 C 0.77595 0.48776 1.03867 0.0
C330 C 0.82085 0.49543 1.03066 0.0
C331 C 0.88234 0.54166 1.03286 0.0
C332 C 0.89899 0.57932 0.04483 0.0
C333 C 0.83727 0.53357 1.04107 0.0
C334 C 0.86984 0.60933 0.06401 0.0
C335 C 0.82477 0.60191 0.07142 0.0
H336 H 0.82129 0.59377 0.59488 0.0
H337 H 0.80887 0.60072 0.46551 0.0
H338 H 0.72773 0.59314 0.46985 0.0
H339 H 0.65923 0.58958 0.51042 0.0
H340 H 0.67101 0.58368 0.63986 0.0
H341 H 0.75312 0.58664 0.63544 0.0
C342 C 0.80084 0.59319 0.56765 0.0
C343 C 0.82128 0.59758 0.52999 0.0
C344 C 0.75388 0.58983 0.57036 0.0
C345 C 0.79436 0.59655 0.49491 0.0
C346 C 0.74774 0.59282 0.49735 0.0
C347 C 0.67977 0.58903 0.53766 0.0
C348 C 0.65902 0.58687 0.57539 0.0
C349 C 0.727 0.59032 0.53492 0.0
C350 C 0.68615 0.58553 0.61041 0.0
C351 C 0.73312 0.58714 0.60793 0.0
H352 H 0.0935 0.36422 0.20052 0.0
H353 H 0.1316 0.30341 0.08956 0.0
H354 H 0.11132 0.36751 0.05187 0.0
H355 H 0.08508 0.44139 0.05027 0.0
H356 H 0.04949 0.5043 0.16099 0.0
H357 H 0.06631 0.43947 0.19867 0.0
C358 C 0.09682 0.36501 0.16809 0.0
C359 C 0.11361 0.32889 0.14757 0.0
C360 C 0.08581 0.40258 0.14652 0.0
C361 C 0.11843 0.33073 0.10571 0.0
C362 C 0.10697 0.3674 0.08421 0.0
C363 C 0.08077 0.44101 0.08263 0.0
C364 C 0.06596 0.47797 0.10256 0.0
C365 C 0.09096 0.40365 0.10424 0.0
C366 C 0.0609 0.47654 0.14465 0.0
C367 C 0.0705 0.43934 0.16632 0.0
H368 H 0.56013 0.42809 0.08333 0.0
H369 H 0.69198 0.39809 1.03137 0.0
H370 H 0.67078 0.32895 1.01494 0.0
H371 H 0.61422 0.2781 1.01215 0.0
H372 H 0.48255 0.30609 0.06475 0.0
H373 H 0.50327 0.37593 0.08154 0.0
C374 C 0.5843 0.40627 0.06871 0.0
C375 C 0.62777 0.41828 0.05914 0.0
C376 C 0.57147 0.36672 0.05815 0.0
C377 C 0.65874 0.38955 1.04021 0.0
C378 C 0.6464 0.35014 1.03007 0.0
C379 C 0.59005 0.29935 1.02749 0.0
C380 C 0.54699 0.28678 1.03728 0.0
C381 C 0.60273 0.33865 1.03839 0.0
C382 C 0.51573 0.31512 0.0563 0.0
C383 C 0.5278 0.35484 0.06648 0.0
H384 H 0.99995 0.69742 0.56374 0.0
H385 H 0.85563 0.723 0.54513 0.0
H386 H 0.86475 0.79691 0.54353 0.0
H387 H 0.91403 0.85285 0.53642 0.0
H388 H 0.05836 0.83012 0.55724 0.0
H389 H 0.049 0.75612 0.56613 0.0
C390 C 0.97043 0.7193 0.56033 0.0
C391 C 0.92727 0.70447 0.55441 0.0
C392 C 0.97601 0.76208 0.55792 0.0
C393 C 0.88924 0.73322 0.55038 0.0
C394 C 0.89446 0.77565 0.54863 0.0
C395 C 0.94355 0.83226 0.54409 0.0
C396 C 0.9869 0.84747 0.54586 0.0
C397 C 0.93782 0.7902 0.55069 0.0
C398 C 0.02463 0.81945 0.55458 0.0
C399 C 0.01926 0.77711 0.5603 0.0
H400 H 0.45198 0.84679 0.65955 0.0
H401 H 0.46773 0.79198 0.77801 0.0
H402 H 0.49286 0.72511 0.74794 0.0
H403 H 0.50286 0.68068 0.6881 0.0
H404 H 0.48247 0.73456 0.56956 0.0
H405 H 0.46556 0.8031 0.59967 0.0
C406 C 0.46103 0.82029 0.67896 0.0
C407 C 0.45726 0.82463 0.72124 0.0
C408 C 0.47377 0.78152 0.66135 0.0
C409 C 0.47042 0.78998 0.7456 0.0
C410 C 0.48426 0.7515 0.72831 0.0
C411 C 0.49491 0.70736 0.66864 0.0
C412 C 0.49358 0.70211 0.62635 0.0
C413 C 0.48481 0.74665 0.68623 0.0
C414 C 0.48353 0.73738 0.60199 0.0
C415 C 0.47391 0.77664 0.61928 0.0
H416 H 0.91899 1.01854 0.81054 0.0
H417 H 0.95816 0.89325 0.77277 0.0
H418 H 0.97611 0.91892 0.70602 0.0
H419 H 0.97975 0.97641 0.65762 0.0
H420 H 0.94253 0.10221 0.69472 0.0
H421 H 0.92421 0.07681 0.76193 0.0
C422 C 0.93131 0.99674 0.78772 0.0
C423 C 0.9371 0.95372 0.7972 0.0
C424 C 0.94165 1.01183 0.74897 0.0
C425 C 0.95383 0.92638 0.76701 0.0
C426 C 0.9638 0.94107 0.72854 0.0
C427 C 0.96742 0.99847 0.68024 0.0
C428 C 0.96222 0.04139 0.67061 0.0
C429 C 0.95766 0.98366 0.71907 0.0
C430 C 0.94673 0.06914 0.70087 0.0
C431 C 0.9363 0.05455 0.73945 0.0
H432 H 0.60503 0.21001 0.28199 0.0
H433 H 0.63267 0.09202 0.34198 0.0
H434 H 0.60559 0.05597 0.28273 0.0
H435 H 0.5731 0.05794 0.21306 0.0
H436 H 0.54892 0.17694 0.15354 0.0
H437 H 0.5751 0.21196 0.21284 0.0
C438 C 0.60489 0.17641 0.28227 0.0
C439 C 0.62073 0.15394 0.31673 0.0
C440 C 0.58976 0.15578 0.24782 0.0
C441 C 0.62095 0.11026 0.31596 0.0
C442 C 0.60527 0.08957 0.28203 0.0
C443 C 0.57359 0.0915 0.21308 0.0
C444 C 0.55877 0.11446 0.17845 0.0
C445 C 0.58948 0.11195 0.24763 0.0
C446 C 0.56006 0.15807 0.17933 0.0
C447 C 0.57503 0.17838 0.21345 0.0
H448 H 0.51623 0.58932 0.22285 0.0
H449 H 0.38491 0.54054 0.23152 0.0
H450 H 0.38833 0.54555 0.305 0.0
H451 H 0.42557 0.56952 0.36536 0.0
H452 H 0.55934 0.61447 0.35736 0.0
H453 H 0.55699 0.60714 0.28446 0.0
C454 C 0.48882 0.57895 0.24087 0.0
C455 C 0.45019 0.56439 0.22205 0.0
C456 C 0.49084 0.58251 0.28291 0.0
C457 C 0.41496 0.55135 0.24569 0.0
C458 C 0.41672 0.55472 0.2875 0.0
C459 C 0.45479 0.57696 0.34804 0.0
C460 C 0.49253 0.5927 0.36729 0.0
C461 C 0.45405 0.57115 0.3063 0.0
C462 C 0.52931 0.60321 0.34364 0.0
C463 C 0.52832 0.59845 0.30188 0.0
H464 H 0.04738 0.59312 0.6894 0.0
H465 H 0.99274 0.4734 0.68293 0.0
H466 H 0.98423 0.47221 0.75617 0.0
H467 H 1.00573 0.49978 0.82176 0.0
H468 H 0.05673 0.62171 0.82756 0.0
H469 H 0.05419 0.62704 0.75469 0.0
C470 C 0.03239 0.56739 0.70398 0.0
C471 C 0.0214 0.53289 0.68133 0.0
C472 C 0.02844 0.56669 0.74591 0.0
C473 C 1.00137 0.5001 0.70023 0.0
C474 C 0.99713 0.4992 0.742 0.0
C475 C 0.0153 0.52796 0.80731 0.0
C476 C 0.0333 0.55943 0.83026 0.0
C477 C 1.01267 0.53145 0.76525 0.0
C478 C 0.045 0.59592 0.81069 0.0
C479 C 0.04296 0.59937 0.76895 0.0
H480 H 0.76473 1.01079 0.93272 0.0
H481 H 0.76548 0.89059 0.98955 0.0
H482 H 0.69649 0.91279 1.02647 0.0
H483 H 0.63566 0.96657 1.04239 0.0
H484 H 0.63656 0.08758 0.9865 0.0
H485 H 0.70492 0.06511 0.94987 0.0
C486 C 0.74959 0.98949 0.95302 0.0
C487 C 0.76968 0.94888 0.95829 0.0
C488 C 0.71028 1.00273 0.97455 0.0
C489 C 0.75013 0.92184 0.98505 0.0
C490 C 0.71086 0.93456 1.00617 0.0
C491 C 0.65095 0.98808 1.02238 0.0
C492 C 0.63075 1.02869 1.01733 0.0
C493 C 0.69058 0.97499 1.00123 0.0
C494 C 0.65117 0.0561 0.99114 0.0
C495 C 0.69036 0.04328 0.96998 0.0
H496 H 0.73282 0.10457 0.42626 0.0
H497 H 0.75779 0.23457 0.43011 0.0
H498 H 0.82887 0.21791 0.46614 0.0
H499 H 0.88398 0.16699 0.4976 0.0
H500 H 0.86216 0.0365 0.49193 0.0
H501 H 0.79039 0.05273 0.45578 0.0
C502 C 0.75405 0.12916 0.43464 0.0
C503 C 0.73931 0.17088 0.42593 0.0
C504 C 0.79552 0.11933 0.45537 0.0
C505 C 0.76749 0.20229 0.43713 0.0
C506 C 0.8084 0.1928 0.45767 0.0
C507 C 0.86345 0.14205 0.4887 0.0
C508 C 0.8784 0.1006 0.49787 0.0
C509 C 0.82257 0.15154 0.46735 0.0
C510 C 0.85151 0.06873 0.48546 0.0
C511 C 0.81042 0.07798 0.46468 0.0
H512 H 0.32744 0.66333 0.07842 0.0
H513 H 0.36463 0.54117 1.03221 0.0
H514 H 0.28427 0.53088 1.01869 0.0
H515 H 0.20298 0.55593 1.02365 0.0
H516 H 0.16758 0.67598 0.07601 0.0
H517 H 0.24767 0.68813 0.08323 0.0
C518 C 0.31788 0.63474 0.06474 0.0
C519 C 0.35153 0.60328 0.05562 0.0
C520 C 0.27198 0.6287 0.05844 0.0
C521 C 0.33901 0.56588 1.03902 0.0
C522 C 0.29321 0.56004 1.03144 0.0
C523 C 0.21301 0.58483 1.03624 0.0
C524 C 0.17961 0.61507 0.04925 0.0
C525 C 0.25931 0.59109 1.0415 0.0
C526 C 0.19279 0.65221 0.06601 0.0
C527 C 0.23851 0.6592 0.0701 0.0
H528 H 0.22009 0.53779 0.62371 0.0
H529 H 0.21648 0.54889 0.49446 0.0
H530 H 0.29712 0.56215 0.49438 0.0
H531 H 0.36876 0.56772 0.53096 0.0
H532 H 0.37342 0.55262 0.66009 0.0
H533 H 0.29194 0.5437 0.66043 0.0
C534 C 0.23689 0.54386 0.59564 0.0
C535 C 0.21251 0.54309 0.55915 0.0
C536 C 0.28331 0.55027 0.59585 0.0
C537 C 0.2347 0.54977 0.52283 0.0
C538 C 0.28068 0.55717 0.52283 0.0
C539 C 0.35196 0.56271 0.55926 0.0
C540 C 0.37712 0.56092 0.5955 0.0
C541 C 0.30539 0.55704 0.55913 0.0
C542 C 0.35487 0.55402 0.63181 0.0
C543 C 0.30829 0.54901 0.63201 0.0
H544 H 0.96197 0.80846 0.87034 0.0
H545 H 0.96767 0.89051 0.97172 0.0
H546 H 0.99566 0.83241 1.01486 0.0
H547 H 1.01259 0.75675 1.02549 0.0
H548 H 1.00718 0.67483 0.9236 0.0
H549 H 0.98535 0.73365 0.8797 0.0
C550 C 0.97052 0.81373 0.90159 0.0
C551 C 0.96278 0.85393 0.91763 0.0
C552 C 0.98598 0.7798 0.92663 0.0
C553 C 0.97338 0.85996 0.9585 0.0
C554 C 0.98911 0.82662 0.98334 0.0
C555 C 1.00691 0.75178 0.99367 0.0
C556 C 1.01124 0.71101 0.97832 0.0
C557 C 0.99446 0.78612 0.96807 0.0
C558 C 1.004 0.70558 0.93671 0.0
C559 C 0.99147 0.73936 0.91132 0.0
H560 H 0.40487 0.7195 0.10091 0.0
H561 H 0.53495 0.69168 0.04604 0.0
H562 H 0.5524 0.7647 0.05345 0.0
H563 H 0.52999 0.83613 0.07641 0.0
H564 H 0.40135 0.86107 0.1355 0.0
H565 H 0.38396 0.78914 0.12594 0.0
C566 C 0.43668 0.72975 0.0899 0.0
C567 C 0.46816 0.70103 0.07194 0.0
C568 C 0.44686 0.7709 0.09564 0.0
C569 C 0.50998 0.71383 0.05909 0.0
C570 C 0.51998 0.75531 0.06369 0.0
C571 C 0.49852 0.8256 0.08777 0.0
C572 C 0.46689 0.85394 0.10649 0.0
C573 C 0.48877 0.78404 0.08228 0.0
C574 C 0.42599 0.83998 0.1206 0.0
C575 C 0.41599 0.79891 0.11512 0.0
H576 H 0.03721 0.44066 0.52328 0.0
H577 H 0.17728 0.41291 0.55852 0.0
H578 H 0.16416 0.33996 0.56637 0.0
H579 H 0.11127 0.28636 0.57254 0.0
H580 H 0.97114 0.312 0.53633 0.0
H581 H 0.98541 0.38421 0.52231 0.0
C582 C 0.06504 0.41843 0.53185 0.0
C583 C 0.10809 0.43241 0.5404 0.0
C584 C 0.05688 0.37656 0.53792 0.0
C585 C 0.14395 0.40318 0.55111 0.0
C586 C 0.13629 0.36145 0.55642 0.0
C587 C 0.08386 0.30725 0.56069 0.0
C588 C 0.0401 0.29345 0.55571 0.0
C589 C 0.09258 0.34819 0.55137 0.0
C590 C 1.00496 0.32174 0.54141 0.0
C591 C 1.01323 0.36295 0.53277 0.0
H592 H 0.61168 0.3083 0.52631 0.0
H593 H 0.56099 0.34471 0.40857 0.0
H594 H 0.53185 0.41239 0.43484 0.0
H595 H 0.52426 0.46256 0.4909 0.0
H596 H 0.57347 0.42506 0.60922 0.0
H597 H 0.59923 0.35658 0.58339 0.0
C598 C 0.5937 0.33101 0.50666 0.0
C599 C 0.58841 0.3215 0.46574 0.0
C600 C 0.57694 0.36973 0.52209 0.0
C601 C 0.56526 0.35108 0.44026 0.0
C602 C 0.54878 0.38987 0.4553 0.0
C603 C 0.54032 0.43932 0.51116 0.0
C604 C 0.5471 0.44925 0.55205 0.0
C605 C 0.55492 0.39976 0.49608 0.0
C606 C 0.56771 0.41848 0.57774 0.0
C607 C 0.58262 0.37927 0.56293 0.0
loop_
_geom_bond_atom_site_label_1
_geom_bond_atom_site_label_2
_geom_bond_distance
_geom_bond_site_symmetry_2
_ccdc_geom_bond_type
H0 C5 0.929 . S
H1 C10 0.931 . S
H2 C8 0.930 . S
N3 N4 1.234 . S
N3 C7 1.453 . S
N4 N3 1.234 . S
C5 H0 0.929 . S
C5 C6 1.373 . S
C5 C7 1.368 . S
C6 C5 1.373 . S
C6 C10 1.397 . S
C7 N3 1.453 . S
C7 C5 1.368 . S
C7 C8 1.373 . S
C8 H2 0.930 . S
C8 C7 1.373 . S
C8 C9 1.371 . S
C9 C8 1.371 . S
C9 C10 1.383 . S
C10 H1 0.931 . S
C10 C6 1.397 . S
C10 C9 1.383 . S
H11 C16 0.929 . S
H12 C21 0.931 . S
H13 C19 0.930 . S
N14 N15 1.234 . S
N14 C18 1.453 . S
N15 N14 1.234 . S
C16 H11 0.929 . S
C16 C17 1.373 . S
C16 C18 1.368 . S
C17 C16 1.373 . S
C17 C21 1.397 . S
C18 N14 1.453 . S
C18 C16 1.368 . S
C18 C19 1.373 . S
C19 H13 0.930 . S
C19 C18 1.373 . S
C19 C20 1.371 . S
C20 C19 1.371 . S
C20 C21 1.383 . S
C21 H12 0.931 . S
C21 C17 1.397 . S
C21 C20 1.383 . S
H22 C27 0.929 . S
H23 C32 0.931 . S
H24 C30 0.930 . S
N25 N26 1.234 . S
N25 C29 1.453 . S
N26 N25 1.234 . S
C27 H22 0.929 . S
C27 C28 1.373 . S
C27 C29 1.368 . S
C28 C27 1.373 . S
C28 C32 1.397 . S
C29 N25 1.453 . S
C29 C27 1.368 . S
C29 C30 1.373 . S
C30 H24 0.930 . S
C30 C29 1.373 . S
C30 C31 1.371 . S
C31 C30 1.371 . S
C31 C32 1.383 . S
C32 H23 0.931 . S
C32 C28 1.397 . S
C32 C31 1.383 . S
H33 C38 0.929 . S
H34 C43 0.931 . S
H35 C41 0.930 . S
N36 N37 1.234 . S
N36 C40 1.453 . S
N37 N36 1.234 . S
C38 H33 0.929 . S
C38 C39 1.373 . S
C38 C40 1.368 . S
C39 C38 1.373 . S
C39 C43 1.397 . S
C40 N36 1.453 . S
C40 C38 1.368 . S
C40 C41 1.373 . S
C41 H35 0.930 . S
C41 C40 1.373 . S
C41 C42 1.371 . S
C42 C41 1.371 . S
C42 C43 1.383 . S
C43 H34 0.931 . S
C43 C39 1.397 . S
C43 C42 1.383 . S
H44 C49 0.929 . S
H45 C54 0.931 . S
H46 C52 0.930 . S
N47 N48 1.234 . S
N47 C51 1.453 . S
N48 N47 1.234 . S
C49 H44 0.929 . S
C49 C50 1.373 . S
C49 C51 1.368 . S
C50 C49 1.373 . S
C50 C54 1.397 . S
C51 N47 1.453 . S
C51 C49 1.368 . S
C51 C52 1.373 . S
C52 H46 0.930 . S
C52 C51 1.373 . S
C52 C53 1.371 . S
C53 C52 1.371 . S
C53 C54 1.383 . S
C54 H45 0.931 . S
C54 C50 1.397 . S
C54 C53 1.383 . S
H55 C60 0.929 . S
H56 C65 0.931 . S
H57 C63 0.930 . S
N58 N59 1.234 . S
N58 C62 1.453 . S
N59 N58 1.234 . S
C60 H55 0.929 . S
C60 C61 1.373 . S
C60 C62 1.368 . S
C61 C60 1.373 . S
C61 C65 1.397 . S
C62 N58 1.453 . S
C62 C60 1.368 . S
C62 C63 1.373 . S
C63 H57 0.930 . S
C63 C62 1.373 . S
C63 C64 1.371 . S
C64 C63 1.371 . S
C64 C65 1.383 . S
C65 H56 0.931 . S
C65 C61 1.397 . S
C65 C64 1.383 . S
H66 C71 0.929 . S
H67 C76 0.931 . S
H68 C74 0.930 . S
N69 N70 1.234 . S
N69 C73 1.453 . S
N70 N69 1.234 . S
C71 H66 0.929 . S
C71 C72 1.373 . S
C71 C73 1.368 . S
C72 C71 1.373 . S
C72 C76 1.397 . S
C73 N69 1.453 . S
C73 C71 1.368 . S
C73 C74 1.373 . S
C74 H68 0.930 . S
C74 C73 1.373 . S
C74 C75 1.371 . S
C75 C74 1.371 . S
C75 C76 1.383 . S
C76 H67 0.931 . S
C76 C72 1.397 . S
C76 C75 1.383 . S
H77 C82 0.929 . S
H78 C87 0.931 . S
H79 C85 0.930 . S
N80 N81 1.234 . S
N80 C84 1.453 . S
N81 N80 1.234 . S
C82 H77 0.929 . S
C82 C83 1.373 . S
C82 C84 1.368 . S
C83 C82 1.373 . S
C83 C87 1.397 . S
C84 N80 1.453 . S
C84 C82 1.368 . S
C84 C85 1.373 . S
C85 H79 0.930 . S
C85 C84 1.373 . S
C85 C86 1.371 . S
C86 C85 1.371 . S
C86 C87 1.383 . S
C87 H78 0.931 . S
C87 C83 1.397 . S
C87 C86 1.383 . S
C88 O104 1.251 . S
C88 O106 1.254 . S
N89 C90 1.333 . S
N89 C94 1.307 . S
N89 Zn95 2.020 . S
C90 N89 1.333 . S
C90 C91 1.379 . S
C90 H108 0.952 . S
C91 C90 1.379 . S
C91 C92 1.390 . S
C91 H118 0.949 . S
C92 C91 1.390 . S
C92 C93 1.357 . S
C93 C92 1.357 . S
C93 C94 1.370 . S
C93 H119 0.950 . S
C94 N89 1.307 . S
C94 C93 1.370 . S
C94 H112 0.948 1_455 S
Zn95 N89 2.020 . S
Zn95 O104 2.039 . S
Zn95 O110 2.034 . S
Zn95 O114 2.025 1_455 S
Zn95 O116 2.024 1_455 S
C96 O115 1.246 . S
C96 O116 1.249 . S
N97 C98 1.307 . S
N97 C99 1.333 . S
N97 Zn103 2.020 . S
C98 N97 1.307 . S
C98 C102 1.370 . S
C98 H109 0.948 1_655 S
C99 N97 1.333 . S
C99 C100 1.379 . S
C99 H107 0.952 . S
C100 C99 1.379 . S
C100 C101 1.390 . S
C100 H120 0.949 . S
C101 C100 1.390 . S
C101 C102 1.357 . S
C102 C98 1.370 . S
C102 C101 1.357 . S
C102 H121 0.950 . S
Zn103 N97 2.020 . S
Zn103 O106 2.025 1_665 S
Zn103 O111 2.024 1_655 S
Zn103 O113 2.039 . S
Zn103 O115 2.034 1_565 S
O104 C88 1.251 . S
O104 Zn95 2.039 . S
C105 O110 1.246 . S
C105 O111 1.249 1_545 S
O106 C88 1.254 . S
O106 Zn103 2.025 1_445 S
H107 C99 0.952 . S
H108 C90 0.952 . S
H109 C98 0.948 1_455 S
O110 Zn95 2.034 . S
O110 C105 1.246 . S
O111 Zn103 2.024 1_455 S
O111 C105 1.249 1_565 S
H112 C94 0.948 1_655 S
O113 Zn103 2.039 . S
O113 C117 1.251 1_565 S
O114 Zn95 2.025 1_655 S
O114 C117 1.254 . S
O115 C96 1.246 . S
O115 Zn103 2.034 1_545 S
O116 Zn95 2.024 1_655 S
O116 C96 1.249 . S
C117 O113 1.251 1_545 S
C117 O114 1.254 . S
H118 C91 0.949 . S
H119 C93 0.950 . S
H120 C100 0.949 . S
H121 C102 0.950 . S
C122 O138 1.251 . S
C122 O140 1.254 1_545 S
N123 C124 1.332 1_554 S
N123 C128 1.306 1_554 S
N123 Zn129 2.020 . S
C124 N123 1.332 1_556 S
C124 C125 1.383 . S
C124 H142 0.948 1_556 S
C125 C124 1.383 . S
C125 C126 1.390 . S
C125 H152 0.949 . S
C126 C125 1.390 . S
C126 C127 1.357 . S
C127 C126 1.357 . S
C127 C128 1.370 . S
C127 H153 0.950 . S
C128 N123 1.306 1_556 S
C128 C127 1.370 . S
C128 H146 0.948 . S
Zn129 N123 2.020 . S
Zn129 O138 2.039 . S
Zn129 O144 2.034 . S
Zn129 O148 2.025 . S
Zn129 O150 2.024 1_554 S
C130 O149 1.246 1_545 S
C130 O150 1.249 . S
N131 C132 1.307 . S
N131 C133 1.333 . S
N131 Zn137 2.020 . S
C132 N131 1.307 . S
C132 C136 1.370 . S
C132 H143 0.948 . S
C133 N131 1.333 . S
C133 C134 1.379 . S
C133 H141 0.952 . S
C134 C133 1.379 . S
C134 C135 1.390 . S
C134 H154 0.949 . S
C135 C134 1.390 . S
C135 C136 1.357 . S
C136 C132 1.370 . S
C136 C135 1.357 . S
C136 H155 0.950 . S
Zn137 N131 2.020 . S
Zn137 O140 2.025 . S
Zn137 O145 2.024 1_565 S
Zn137 O147 2.039 1_565 S
Zn137 O149 2.034 1_554 S
O138 C122 1.251 . S
O138 Zn129 2.039 . S
C139 O144 1.246 . S
C139 O145 1.249 . S
O140 C122 1.254 1_565 S
O140 Zn137 2.025 . S
H141 C133 0.952 . S
H142 C124 0.948 1_554 S
H143 C132 0.948 . S
O144 Zn129 2.034 . S
O144 C139 1.246 . S
O145 Zn137 2.024 1_545 S
O145 C139 1.249 . S
H146 C128 0.948 . S
O147 Zn137 2.039 1_545 S
O147 C151 1.251 . S
O148 Zn129 2.025 . S
O148 C151 1.254 . S
O149 C130 1.246 1_565 S
O149 Zn137 2.034 1_556 S
O150 Zn129 2.024 1_556 S
O150 C130 1.249 . S
C151 O147 1.251 . S
C151 O148 1.254 . S
H152 C125 0.949 . S
H153 C127 0.950 . S
H154 C134 0.949 . S
H155 C136 0.950 . S
C156 O172 1.251 . S
C156 O174 1.254 . S
N157 C158 1.333 . S
N157 C162 1.307 . S
N157 Zn163 2.020 . S
C158 N157 1.333 . S
C158 C159 1.379 . S
C158 H176 0.952 . S
C159 C158 1.379 . S
C159 C160 1.390 . S
C159 H186 0.949 . S
C160 C159 1.390 . S
C160 C161 1.357 . S
C161 C160 1.357 . S
C161 C162 1.370 . S
C161 H187 0.950 . S
C162 N157 1.307 . S
C162 C161 1.370 . S
C162 H180 0.948 . S
Zn163 N157 2.020 . S
Zn163 O172 2.039 . S
Zn163 O178 2.034 . S
Zn163 O182 2.025 . S
Zn163 O184 2.024 . S
C164 O183 1.246 . S
C164 O184 1.249 . S
N165 C166 1.307 . S
N165 C167 1.333 . S
N165 Zn171 2.020 . S
C166 N165 1.307 . S
C166 C170 1.370 . S
C166 H177 0.948 . S
C167 N165 1.333 . S
C167 C168 1.379 . S
C167 H175 0.952 . S
C168 C167 1.379 . S
C168 C169 1.390 . S
C168 H188 0.949 . S
C169 C168 1.390 . S
C169 C170 1.357 . S
C170 C166 1.370 . S
C170 C169 1.357 . S
C170 H189 0.950 . S
Zn171 N165 2.020 . S
Zn171 O174 2.025 . S
Zn171 O179 2.024 . S
Zn171 O181 2.039 . S
Zn171 O183 2.034 . S
O172 C156 1.251 . S
O172 Zn163 2.039 . S
C173 O178 1.246 . S
C173 O179 1.249 . S
O174 C156 1.254 . S
O174 Zn171 2.025 . S
H175 C167 0.952 . S
H176 C158 0.952 . S
H177 C166 0.948 . S
O178 Zn163 2.034 . S
O178 C173 1.246 . S
O179 Zn171 2.024 . S
O179 C173 1.249 . S
H180 C162 0.948 . S
O181 Zn171 2.039 . S
O181 C185 1.251 . S
O182 Zn163 2.025 . S
O182 C185 1.254 . S
O183 C164 1.246 . S
O183 Zn171 2.034 . S
O184 Zn163 2.024 . S
O184 C164 1.249 . S
C185 O181 1.251 . S
C185 O182 1.254 . S
H186 C159 0.949 . S
H187 C161 0.950 . S
H188 C168 0.949 . S
H189 C170 0.950 . S
C190 O206 1.251 1_556 S
C190 O208 1.254 1_655 S
N191 C192 1.333 . S
N191 C196 1.307 . S
N191 Zn197 2.020 . S
C192 N191 1.333 . S
C192 C193 1.379 . S
C192 H210 0.952 . S
C193 C192 1.379 . S
C193 C194 1.390 . S
C193 H220 0.949 . S
C194 C193 1.390 . S
C194 C195 1.357 . S
C195 C194 1.357 . S
C195 C196 1.370 . S
C195 H221 0.950 . S
C196 N191 1.307 . S
C196 C195 1.370 . S
C196 H214 0.948 . S
Zn197 N191 2.020 . S
Zn197 O206 2.039 . S
Zn197 O212 2.034 1_655 S
Zn197 O216 2.025 1_655 S
Zn197 O218 2.024 . S
C198 O217 1.246 . S
C198 O218 1.249 1_556 S
N199 C200 1.307 . S
N199 C201 1.333 . S
N199 Zn205 2.020 . S
C200 N199 1.307 . S
C200 C204 1.370 . S
C200 H211 0.948 . S
C201 N199 1.333 . S
C201 C202 1.379 . S
C201 H209 0.952 . S
C202 C201 1.379 . S
C202 C203 1.390 . S
C202 H222 0.949 . S
C203 C202 1.390 . S
C203 C204 1.357 . S
C204 C200 1.370 . S
C204 C203 1.357 . S
C204 H223 0.950 . S
Zn205 N199 2.020 . S
Zn205 O208 2.025 . S
Zn205 O213 2.024 . S
Zn205 O215 2.039 . S
Zn205 O217 2.034 1_455 S
O206 C190 1.251 1_554 S
O206 Zn197 2.039 . S
C207 O212 1.246 . S
C207 O213 1.249 1_554 S
O208 C190 1.254 1_455 S
O208 Zn205 2.025 . S
H209 C201 0.952 . S
H210 C192 0.952 . S
H211 C200 0.948 . S
O212 Zn197 2.034 1_455 S
O212 C207 1.246 . S
O213 Zn205 2.024 . S
O213 C207 1.249 1_556 S
H214 C196 0.948 . S
O215 Zn205 2.039 . S
O215 C219 1.251 1_556 S
O216 Zn197 2.025 1_455 S
O216 C219 1.254 . S
O217 C198 1.246 . S
O217 Zn205 2.034 1_655 S
O218 Zn197 2.024 . S
O218 C198 1.249 1_554 S
C219 O215 1.251 1_554 S
C219 O216 1.254 . S
H220 C193 0.949 . S
H221 C195 0.950 . S
H222 C202 0.949 . S
H223 C204 0.950 . S
H224 C230 0.930 . S
H225 C233 0.930 . S
H226 C234 0.930 . S
H227 C235 0.930 . S
H228 C238 0.930 . S
H229 C239 0.930 . S
C230 H224 0.930 . S
C230 C231 1.355 . S
C230 C232 1.415 . S
C231 C230 1.355 . S
C231 C233 1.419 . S
C232 C230 1.415 . S
C232 C237 1.425 . S
C232 C239 1.409 . S
C233 H225 0.930 . S
C233 C231 1.419 . S
C233 C234 1.362 . S
C234 H226 0.930 . S
C234 C233 1.362 . S
C234 C237 1.409 . S
C235 H227 0.930 . S
C235 C236 1.355 . S
C235 C237 1.415 . S
C236 C235 1.355 . S
C236 C238 1.419 . S
C237 C232 1.425 . S
C237 C234 1.409 . S
C237 C235 1.415 . S
C238 H228 0.930 . S
C238 C236 1.419 . S
C238 C239 1.362 . S
C239 H229 0.930 . S
C239 C232 1.409 . S
C239 C238 1.362 . S
H240 C246 0.930 . S
H241 C249 0.930 . S
H242 C250 0.930 1_545 S
H243 C251 0.930 1_545 S
H244 C254 0.930 . S
H245 C255 0.930 . S
C246 H240 0.930 . S
C246 C247 1.355 . S
C246 C248 1.415 . S
C247 C246 1.355 . S
C247 C249 1.419 . S
C248 C246 1.415 . S
C248 C253 1.425 . S
C248 C255 1.409 . S
C249 H241 0.930 . S
C249 C247 1.419 . S
C249 C250 1.362 . S
C250 H242 0.930 1_565 S
C250 C249 1.362 . S
C250 C253 1.409 . S
C251 H243 0.930 1_565 S
C251 C252 1.355 . S
C251 C253 1.415 . S
C252 C251 1.355 . S
C252 C254 1.419 . S
C253 C248 1.425 . S
C253 C250 1.409 . S
C253 C251 1.415 . S
C254 H244 0.930 . S
C254 C252 1.419 . S
C254 C255 1.362 . S
C255 H245 0.930 . S
C255 C248 1.409 . S
C255 C254 1.362 . S
H256 C262 0.930 . S
H257 C265 0.930 . S
H258 C266 0.930 . S
H259 C267 0.930 . S
H260 C270 0.930 . S
H261 C271 0.930 . S
C262 H256 0.930 . S
C262 C263 1.355 . S
C262 C264 1.415 . S
C263 C262 1.355 . S
C263 C265 1.419 . S
C264 C262 1.415 . S
C264 C269 1.425 . S
C264 C271 1.409 . S
C265 H257 0.930 . S
C265 C263 1.419 . S
C265 C266 1.362 . S
C266 H258 0.930 . S
C266 C265 1.362 . S
C266 C269 1.409 . S
C267 H259 0.930 . S
C267 C268 1.355 . S
C267 C269 1.415 . S
C268 C267 1.355 . S
C268 C270 1.419 . S
C269 C264 1.425 . S
C269 C266 1.409 . S
C269 C267 1.415 . S
C270 H260 0.930 . S
C270 C268 1.419 . S
C270 C271 1.362 . S
C271 H261 0.930 . S
C271 C264 1.409 . S
C271 C270 1.362 . S
H272 C278 0.930 . S
H273 C281 0.930 . S
H274 C282 0.930 . S
H275 C283 0.930 . S
H276 C286 0.930 . S
H277 C287 0.930 . S
C278 H272 0.930 . S
C278 C279 1.355 . S
C278 C280 1.415 . S
C279 C278 1.355 . S
C279 C281 1.419 . S
C280 C278 1.415 . S
C280 C285 1.425 . S
C280 C287 1.409 . S
C281 H273 0.930 . S
C281 C279 1.419 . S
C281 C282 1.362 . S
C282 H274 0.930 . S
C282 C281 1.362 . S
C282 C285 1.409 . S
C283 H275 0.930 . S
C283 C284 1.355 . S
C283 C285 1.415 . S
C284 C283 1.355 . S
C284 C286 1.419 . S
C285 C280 1.425 . S
C285 C282 1.409 . S
C285 C283 1.415 . S
C286 H276 0.930 . S
C286 C284 1.419 . S
C286 C287 1.362 . S
C287 H277 0.930 . S
C287 C280 1.409 . S
C287 C286 1.362 . S
H288 C294 0.930 . S
H289 C297 0.930 . S
H290 C298 0.930 . S
H291 C299 0.930 . S
H292 C302 0.930 . S
H293 C303 0.930 . S
C294 H288 0.930 . S
C294 C295 1.355 . S
C294 C296 1.415 . S
C295 C294 1.355 . S
C295 C297 1.419 . S
C296 C294 1.415 . S
C296 C301 1.425 . S
C296 C303 1.409 . S
C297 H289 0.930 . S
C297 C295 1.419 . S
C297 C298 1.362 . S
C298 H290 0.930 . S
C298 C297 1.362 . S
C298 C301 1.409 . S
C299 H291 0.930 . S
C299 C300 1.355 . S
C299 C301 1.415 . S
C300 C299 1.355 . S
C300 C302 1.419 . S
C301 C296 1.425 . S
C301 C298 1.409 . S
C301 C299 1.415 . S
C302 H292 0.930 . S
C302 C300 1.419 . S
C302 C303 1.362 . S
C303 H293 0.930 . S
C303 C296 1.409 . S
C303 C302 1.362 . S
H304 C310 0.930 1_545 S
H305 C313 0.930 . S
H306 C314 0.930 . S
H307 C315 0.930 . S
H308 C318 0.930 . S
H309 C319 0.930 . S
C310 H304 0.930 1_565 S
C310 C311 1.355 . S
C310 C312 1.415 . S
C311 C310 1.355 . S
C311 C313 1.419 . S
C312 C310 1.415 . S
C312 C317 1.425 . S
C312 C319 1.409 1_565 S
C313 H305 0.930 . S
C313 C311 1.419 . S
C313 C314 1.362 . S
C314 H306 0.930 . S
C314 C313 1.362 . S
C314 C317 1.409 . S
C315 H307 0.930 . S
C315 C316 1.355 1_565 S
C315 C317 1.415 . S
C316 C315 1.355 1_545 S
C316 C318 1.419 . S
C317 C312 1.425 . S
C317 C314 1.409 . S
C317 C315 1.415 . S
C318 H308 0.930 . S
C318 C316 1.419 . S
C318 C319 1.362 . S
C319 H309 0.930 . S
C319 C312 1.409 1_545 S
C319 C318 1.362 . S
H320 C326 0.930 . S
H321 C329 0.930 . S
H322 C330 0.930 . S
H323 C331 0.930 . S
H324 C334 0.930 . S
H325 C335 0.930 . S
C326 H320 0.930 . S
C326 C327 1.355 . S
C326 C328 1.415 . S
C327 C326 1.355 . S
C327 C329 1.419 . S
C328 C326 1.415 . S
C328 C333 1.425 . S
C328 C335 1.409 . S
C329 H321 0.930 . S
C329 C327 1.419 . S
C329 C330 1.362 . S
C330 H322 0.930 . S
C330 C329 1.362 . S
C330 C333 1.409 . S
C331 H323 0.930 . S
C331 C332 1.355 . S
C331 C333 1.415 . S
C332 C331 1.355 . S
C332 C334 1.419 . S
C333 C328 1.425 . S
C333 C330 1.409 . S
C333 C331 1.415 . S
C334 H324 0.930 . S
C334 C332 1.419 . S
C334 C335 1.362 . S
C335 H325 0.930 . S
C335 C328 1.409 . S
C335 C334 1.362 . S
H336 C342 0.930 . S
H337 C345 0.930 . S
H338 C346 0.930 . S
H339 C347 0.930 . S
H340 C350 0.930 . S
H341 C351 0.930 . S
C342 H336 0.930 . S
C342 C343 1.355 . S
C342 C344 1.415 . S
C343 C342 1.355 . S
C343 C345 1.419 . S
C344 C342 1.415 . S
C344 C349 1.425 . S
C344 C351 1.409 . S
C345 H337 0.930 . S
C345 C343 1.419 . S
C345 C346 1.362 . S
C346 H338 0.930 . S
C346 C345 1.362 . S
C346 C349 1.409 . S
C347 H339 0.930 . S
C347 C348 1.355 . S
C347 C349 1.415 . S
C348 C347 1.355 . S
C348 C350 1.419 . S
C349 C344 1.425 . S
C349 C346 1.409 . S
C349 C347 1.415 . S
C350 H340 0.930 . S
C350 C348 1.419 . S
C350 C351 1.362 . S
C351 H341 0.930 . S
C351 C344 1.409 . S
C351 C350 1.362 . S
H352 C358 0.930 . S
H353 C361 0.930 . S
H354 C362 0.930 . S
H355 C363 0.930 . S
H356 C366 0.930 1_655 S
H357 C367 0.930 1_655 S
C358 H352 0.930 . S
C358 C359 1.355 . S
C358 C360 1.415 . S
C359 C358 1.355 . S
C359 C361 1.419 . S
C360 C358 1.415 . S
C360 C365 1.425 . S
C360 C367 1.409 . S
C361 H353 0.930 . S
C361 C359 1.419 . S
C361 C362 1.362 . S
C362 H354 0.930 . S
C362 C361 1.362 . S
C362 C365 1.409 . S
C363 H355 0.930 . S
C363 C364 1.355 . S
C363 C365 1.415 . S
C364 C363 1.355 . S
C364 C366 1.419 . S
C365 C360 1.425 . S
C365 C362 1.409 . S
C365 C363 1.415 . S
C366 H356 0.930 1_455 S
C366 C364 1.419 . S
C366 C367 1.362 . S
C367 H357 0.930 1_455 S
C367 C360 1.409 . S
C367 C366 1.362 . S
H368 C374 0.930 1_554 S
H369 C377 0.930 . S
H370 C378 0.930 . S
H371 C379 0.930 . S
H372 C382 0.930 . S
H373 C383 0.930 . S
C374 H368 0.930 1_556 S
C374 C375 1.355 . S
C374 C376 1.415 . S
C375 C374 1.355 . S
C375 C377 1.419 . S
C376 C374 1.415 . S
C376 C381 1.425 . S
C376 C383 1.409 1_556 S
C377 H369 0.930 . S
C377 C375 1.419 . S
C377 C378 1.362 . S
C378 H370 0.930 . S
C378 C377 1.362 . S
C378 C381 1.409 . S
C379 H371 0.930 . S
C379 C380 1.355 . S
C379 C381 1.415 . S
C380 C379 1.355 . S
C380 C382 1.419 1_556 S
C381 C376 1.425 . S
C381 C378 1.409 . S
C381 C379 1.415 . S
C382 H372 0.930 . S
C382 C380 1.419 1_554 S
C382 C383 1.362 . S
C383 H373 0.930 . S
C383 C376 1.409 1_554 S
C383 C382 1.362 . S
H384 C390 0.930 . S
H385 C393 0.930 . S
H386 C394 0.930 . S
H387 C395 0.930 . S
H388 C398 0.930 . S
H389 C399 0.930 . S
C390 H384 0.930 . S
C390 C391 1.355 . S
C390 C392 1.415 . S
C391 C390 1.355 . S
C391 C393 1.419 . S
C392 C390 1.415 . S
C392 C397 1.425 . S
C392 C399 1.409 . S
C393 H385 0.930 . S
C393 C391 1.419 . S
C393 C394 1.362 . S
C394 H386 0.930 . S
C394 C393 1.362 . S
C394 C397 1.409 . S
C395 H387 0.930 . S
C395 C396 1.355 . S
C395 C397 1.415 . S
C396 C395 1.355 . S
C396 C398 1.419 . S
C397 C392 1.425 . S
C397 C394 1.409 . S
C397 C395 1.415 . S
C398 H388 0.930 . S
C398 C396 1.419 . S
C398 C399 1.362 . S
C399 H389 0.930 . S
C399 C392 1.409 . S
C399 C398 1.362 . S
H400 C406 0.930 . S
H401 C409 0.930 . S
H402 C410 0.930 . S
H403 C411 0.930 . S
H404 C414 0.930 . S
H405 C415 0.930 . S
C406 H400 0.930 . S
C406 C407 1.355 . S
C406 C408 1.415 . S
C407 C406 1.355 . S
C407 C409 1.419 . S
C408 C406 1.415 . S
C408 C413 1.425 . S
C408 C415 1.409 . S
C409 H401 0.930 . S
C409 C407 1.419 . S
C409 C410 1.362 . S
C410 H402 0.930 . S
C410 C409 1.362 . S
C410 C413 1.409 . S
C411 H403 0.930 . S
C411 C412 1.355 . S
C411 C413 1.415 . S
C412 C411 1.355 . S
C412 C414 1.419 . S
C413 C408 1.425 . S
C413 C410 1.409 . S
C413 C411 1.415 . S
C414 H404 0.930 . S
C414 C412 1.419 . S
C414 C415 1.362 . S
C415 H405 0.930 . S
C415 C408 1.409 . S
C415 C414 1.362 . S
H416 C422 0.930 1_545 S
H417 C425 0.930 . S
H418 C426 0.930 . S
H419 C427 0.930 . S
H420 C430 0.930 . S
H421 C431 0.930 . S
C422 H416 0.930 1_565 S
C422 C423 1.355 . S
C422 C424 1.415 . S
C423 C422 1.355 . S
C423 C425 1.419 . S
C424 C422 1.415 . S
C424 C429 1.425 . S
C424 C431 1.409 1_565 S
C425 H417 0.930 . S
C425 C423 1.419 . S
C425 C426 1.362 . S
C426 H418 0.930 . S
C426 C425 1.362 . S
C426 C429 1.409 . S
C427 H419 0.930 . S
C427 C428 1.355 . S
C427 C429 1.415 . S
C428 C427 1.355 . S
C428 C430 1.419 1_565 S
C429 C424 1.425 . S
C429 C426 1.409 . S
C429 C427 1.415 . S
C430 H420 0.930 . S
C430 C428 1.419 1_545 S
C430 C431 1.362 . S
C431 H421 0.930 . S
C431 C424 1.409 1_545 S
C431 C430 1.362 . S
H432 C438 0.930 . S
H433 C441 0.930 . S
H434 C442 0.930 . S
H435 C443 0.930 . S
H436 C446 0.930 . S
H437 C447 0.930 . S
C438 H432 0.930 . S
C438 C439 1.355 . S
C438 C440 1.415 . S
C439 C438 1.355 . S
C439 C441 1.419 . S
C440 C438 1.415 . S
C440 C445 1.425 . S
C440 C447 1.409 . S
C441 H433 0.930 . S
C441 C439 1.419 . S
C441 C442 1.362 . S
C442 H434 0.930 . S
C442 C441 1.362 . S
C442 C445 1.409 . S
C443 H435 0.930 . S
C443 C444 1.355 . S
C443 C445 1.415 . S
C444 C443 1.355 . S
C444 C446 1.419 . S
C445 C440 1.425 . S
C445 C442 1.409 . S
C445 C443 1.415 . S
C446 H436 0.930 . S
C446 C444 1.419 . S
C446 C447 1.362 . S
C447 H437 0.930 . S
C447 C440 1.409 . S
C447 C446 1.362 . S
H448 C454 0.930 . S
H449 C457 0.930 . S
H450 C458 0.930 . S
H451 C459 0.930 . S
H452 C462 0.930 . S
H453 C463 0.930 . S
C454 H448 0.930 . S
C454 C455 1.355 . S
C454 C456 1.415 . S
C455 C454 1.355 . S
C455 C457 1.419 . S
C456 C454 1.415 . S
C456 C461 1.425 . S
C456 C463 1.409 . S
C457 H449 0.930 . S
C457 C455 1.419 . S
C457 C458 1.362 . S
C458 H450 0.930 . S
C458 C457 1.362 . S
C458 C461 1.409 . S
C459 H451 0.930 . S
C459 C460 1.355 . S
C459 C461 1.415 . S
C460 C459 1.355 . S
C460 C462 1.419 . S
C461 C456 1.425 . S
C461 C458 1.409 . S
C461 C459 1.415 . S
C462 H452 0.930 . S
C462 C460 1.419 . S
C462 C463 1.362 . S
C463 H453 0.930 . S
C463 C456 1.409 . S
C463 C462 1.362 . S
H464 C470 0.930 . S
H465 C473 0.930 . S
H466 C474 0.930 . S
H467 C475 0.930 . S
H468 C478 0.930 . S
H469 C479 0.930 . S
C470 H464 0.930 . S
C470 C471 1.355 . S
C470 C472 1.415 . S
C471 C470 1.355 . S
C471 C473 1.419 . S
C472 C470 1.415 . S
C472 C477 1.425 . S
C472 C479 1.409 . S
C473 H465 0.930 . S
C473 C471 1.419 . S
C473 C474 1.362 . S
C474 H466 0.930 . S
C474 C473 1.362 . S
C474 C477 1.409 . S
C475 H467 0.930 . S
C475 C476 1.355 . S
C475 C477 1.415 . S
C476 C475 1.355 . S
C476 C478 1.419 . S
C477 C472 1.425 . S
C477 C474 1.409 . S
C477 C475 1.415 . S
C478 H468 0.930 . S
C478 C476 1.419 . S
C478 C479 1.362 . S
C479 H469 0.930 . S
C479 C472 1.409 . S
C479 C478 1.362 . S
H480 C486 0.930 . S
H481 C489 0.930 . S
H482 C490 0.930 1_554 S
H483 C491 0.930 . S
H484 C494 0.930 . S
H485 C495 0.930 . S
C486 H480 0.930 . S
C486 C487 1.355 . S
C486 C488 1.415 . S
C487 C486 1.355 . S
C487 C489 1.419 . S
C488 C486 1.415 . S
C488 C493 1.425 . S
C488 C495 1.409 1_565 S
C489 H481 0.930 . S
C489 C487 1.419 . S
C489 C490 1.362 . S
C490 H482 0.930 1_556 S
C490 C489 1.362 . S
C490 C493 1.409 . S
C491 H483 0.930 . S
C491 C492 1.355 1_564 S
C491 C493 1.415 1_554 S
C492 C491 1.355 1_546 S
C492 C494 1.419 . S
C493 C488 1.425 . S
C493 C490 1.409 . S
C493 C491 1.415 1_556 S
C494 H484 0.930 . S
C494 C492 1.419 . S
C494 C495 1.362 . S
C495 H485 0.930 . S
C495 C488 1.409 1_545 S
C495 C494 1.362 . S
H496 C502 0.930 . S
H497 C505 0.930 . S
H498 C506 0.930 . S
H499 C507 0.930 . S
H500 C510 0.930 . S
H501 C511 0.930 . S
C502 H496 0.930 . S
C502 C503 1.355 . S
C502 C504 1.415 . S
C503 C502 1.355 . S
C503 C505 1.419 . S
C504 C502 1.415 . S
C504 C509 1.425 . S
C504 C511 1.409 . S
C505 H497 0.930 . S
C505 C503 1.419 . S
C505 C506 1.362 . S
C506 H498 0.930 . S
C506 C505 1.362 . S
C506 C509 1.409 . S
C507 H499 0.930 . S
C507 C508 1.355 . S
C507 C509 1.415 . S
C508 C507 1.355 . S
C508 C510 1.419 . S
C509 C504 1.425 . S
C509 C506 1.409 . S
C509 C507 1.415 . S
C510 H500 0.930 . S
C510 C508 1.419 . S
C510 C511 1.362 . S
C511 H501 0.930 . S
C511 C504 1.409 . S
C511 C510 1.362 . S
H512 C518 0.930 . S
H513 C521 0.930 . S
H514 C522 0.930 . S
H515 C523 0.930 . S
H516 C526 0.930 . S
H517 C527 0.930 . S
C518 H512 0.930 . S
C518 C519 1.355 . S
C518 C520 1.415 . S
C519 C518 1.355 . S
C519 C521 1.419 . S
C520 C518 1.415 . S
C520 C525 1.425 . S
C520 C527 1.409 . S
C521 H513 0.930 . S
C521 C519 1.419 . S
C521 C522 1.362 . S
C522 H514 0.930 . S
C522 C521 1.362 . S
C522 C525 1.409 . S
C523 H515 0.930 . S
C523 C524 1.355 . S
C523 C525 1.415 . S
C524 C523 1.355 . S
C524 C526 1.419 . S
C525 C520 1.425 . S
C525 C522 1.409 . S
C525 C523 1.415 . S
C526 H516 0.930 . S
C526 C524 1.419 . S
C526 C527 1.362 . S
C527 H517 0.930 . S
C527 C520 1.409 . S
C527 C526 1.362 . S
H528 C534 0.930 . S
H529 C537 0.930 . S
H530 C538 0.930 . S
H531 C539 0.930 . S
H532 C542 0.930 . S
H533 C543 0.930 . S
C534 H528 0.930 . S
C534 C535 1.355 . S
C534 C536 1.415 . S
C535 C534 1.355 . S
C535 C537 1.419 . S
C536 C534 1.415 . S
C536 C541 1.425 . S
C536 C543 1.409 . S
C537 H529 0.930 . S
C537 C535 1.419 . S
C537 C538 1.362 . S
C538 H530 0.930 . S
C538 C537 1.362 . S
C538 C541 1.409 . S
C539 H531 0.930 . S
C539 C540 1.355 . S
C539 C541 1.415 . S
C540 C539 1.355 . S
C540 C542 1.419 . S
C541 C536 1.425 . S
C541 C538 1.409 . S
C541 C539 1.415 . S
C542 H532 0.930 . S
C542 C540 1.419 . S
C542 C543 1.362 . S
C543 H533 0.930 . S
C543 C536 1.409 . S
C543 C542 1.362 . S
H544 C550 0.930 . S
H545 C553 0.930 . S
H546 C554 0.930 . S
H547 C555 0.930 1_554 S
H548 C558 0.934 . S
H549 C559 0.930 . S
C550 H544 0.930 . S
C550 C551 1.355 . S
C550 C552 1.415 . S
C551 C550 1.355 . S
C551 C553 1.419 . S
C552 C550 1.415 . S
C552 C557 1.425 . S
C552 C559 1.409 . S
C553 H545 0.930 . S
C553 C551 1.419 . S
C553 C554 1.362 . S
C554 H546 0.930 . S
C554 C553 1.362 . S
C554 C557 1.409 . S
C555 H547 0.930 1_556 S
C555 C556 1.355 . S
C555 C557 1.415 . S
C556 C555 1.355 . S
C556 C558 1.419 . S
C557 C552 1.425 . S
C557 C554 1.409 . S
C557 C555 1.415 . S
C558 H548 0.934 . S
C558 C556 1.419 . S
C558 C559 1.362 . S
C559 H549 0.930 . S
C559 C552 1.409 . S
C559 C558 1.362 . S
H560 C566 0.930 . S
H561 C569 0.930 . S
H562 C570 0.930 . S
H563 C571 0.930 . S
H564 C574 0.930 . S
H565 C575 0.930 . S
C566 H560 0.930 . S
C566 C567 1.355 . S
C566 C568 1.415 . S
C567 C566 1.355 . S
C567 C569 1.419 . S
C568 C566 1.415 . S
C568 C573 1.425 . S
C568 C575 1.409 . S
C569 H561 0.930 . S
C569 C567 1.419 . S
C569 C570 1.362 . S
C570 H562 0.930 . S
C570 C569 1.362 . S
C570 C573 1.409 . S
C571 H563 0.930 . S
C571 C572 1.355 . S
C571 C573 1.415 . S
C572 C571 1.355 . S
C572 C574 1.419 . S
C573 C568 1.425 . S
C573 C570 1.409 . S
C573 C571 1.415 . S
C574 H564 0.930 . S
C574 C572 1.419 . S
C574 C575 1.362 . S
C575 H565 0.930 . S
C575 C568 1.409 . S
C575 C574 1.362 . S
H576 C582 0.930 . S
H577 C585 0.930 . S
H578 C586 0.930 . S
H579 C587 0.930 . S
H580 C590 0.930 . S
H581 C591 0.930 . S
C582 H576 0.930 . S
C582 C583 1.355 . S
C582 C584 1.415 . S
C583 C582 1.355 . S
C583 C585 1.419 . S
C584 C582 1.415 . S
C584 C589 1.425 . S
C584 C591 1.409 . S
C585 H577 0.930 . S
C585 C583 1.419 . S
C585 C586 1.362 . S
C586 H578 0.930 . S
C586 C585 1.362 . S
C586 C589 1.409 . S
C587 H579 0.930 . S
C587 C588 1.355 . S
C587 C589 1.415 . S
C588 C587 1.355 . S
C588 C590 1.419 . S
C589 C584 1.425 . S
C589 C586 1.409 . S
C589 C587 1.415 . S
C590 H580 0.930 . S
C590 C588 1.419 . S
C590 C591 1.362 . S
C591 H581 0.930 . S
C591 C584 1.409 . S
C591 C590 1.362 . S
H592 C598 0.930 . S
H593 C601 0.930 . S
H594 C602 0.930 . S
H595 C603 0.930 . S
H596 C606 0.930 . S
H597 C607 0.930 . S
C598 H592 0.930 . S
C598 C599 1.355 . S
C598 C600 1.415 . S
C599 C598 1.355 . S
C599 C601 1.419 . S
C600 C598 1.415 . S
C600 C605 1.425 . S
C600 C607 1.409 . S
C601 H593 0.930 . S
C601 C599 1.419 . S
C601 C602 1.362 . S
C602 H594 0.930 . S
C602 C601 1.362 . S
C602 C605 1.409 . S
C603 H595 0.930 . S
C603 C604 1.355 . S
C603 C605 1.415 . S
C604 C603 1.355 . S
C604 C606 1.419 . S
C605 C600 1.425 . S
C605 C602 1.409 . S
C605 C603 1.415 . S
C606 H596 0.930 . S
C606 C604 1.419 . S
C606 C607 1.362 . S
C607 H597 0.930 . S
C607 C600 1.409 . S
C607 C606 1.362 . S
C231 C6 2.490 . S
C236 C88 2.498 . S
C247 C20 2.585 . S
C252 C130 2.588 1_565 S
C268 C160 0.691 . S
C263 N26 0.710 . S
C279 N37 0.955 . S
C284 C194 0.975 . S
C300 C151 2.209 . S
C295 C9 2.197 . S
C316 C105 1.665 . S
C311 N15 1.638 . S
C332 C198 1.166 . S
C327 C31 1.118 . S
C348 C164 1.173 . S
C343 C39 1.157 . S
C359 N4 2.182 . S
C364 C219 2.210 . S
C380 C126 1.184 . S
C375 C28 1.147 . S
C391 C42 0.992 . S
C396 C101 1.002 . S
C407 C17 2.317 . S
C412 C185 2.333 . S
C428 C117 2.598 1_565 S
C423 C50 2.587 . S
C439 C61 2.355 . S
C444 C139 2.385 . S
C455 N70 0.926 . S
C460 C169 0.940 . S
C471 N81 0.751 . S
C476 C203 0.767 . S
C487 N48 1.686 . S
C492 C122 1.703 1_556 S
C508 C96 2.165 . S
C503 C64 2.157 . S
C524 C207 1.092 . S
C519 C75 1.105 . S
C540 C173 1.204 . S
C535 C86 1.187 . S
C551 C53 2.468 . S
C556 C190 2.463 . S
C572 C135 0.976 . S
C567 C72 0.974 . S
C588 C92 1.158 . S
C583 C83 1.118 . S
C599 N59 2.149 . S
C604 C156 2.155 . S
