# Generated by pormake.
# Topology tbo, (3,4)-cn, num edge types: 1
# Building blocks:
#     Node 0, Type 0, BuildingBlock: CUQRIR_clean_linker_1, # of connection points: 3
#     Node 1, Type 0, BuildingBlock: CUQRIR_clean_linker_1, # of connection points: 3
#     Node 2, Type 0, BuildingBlock: CUQRIR_clean_linker_1, # of connection points: 3
#     Node 3, Type 0, BuildingBlock: CUQRIR_clean_linker_1, # of connection points: 3
#     Node 4, Type 0, BuildingBlock: CUQRIR_clean_linker_1, # of connection points: 3
#     Node 5, Type 0, BuildingBlock: CUQRIR_clean_linker_1, # of connection points: 3
#     Node 6, Type 0, BuildingBlock: CUQRIR_clean_linker_1, # of connection points: 3
#     Node 7, Type 0, BuildingBlock: CUQRIR_clean_linker_1, # of connection points: 3
#     Node 8, Type 0, BuildingBlock: CUQRIR_clean_linker_1, # of connection points: 3
#     Node 9, Type 0, BuildingBlock: CUQRIR_clean_linker_1, # of connection points: 3
#     Node 10, Type 0, BuildingBlock: CUQRIR_clean_linker_1, # of connection points: 3
#     Node 11, Type 0, BuildingBlock: CUQRIR_clean_linker_1, # of connection points: 3
#     Node 12, Type 0, BuildingBlock: CUQRIR_clean_linker_1, # of connection points: 3
#     Node 13, Type 0, BuildingBlock: CUQRIR_clean_linker_1, # of connection points: 3
#     Node 14, Type 0, BuildingBlock: CUQRIR_clean_linker_1, # of connection points: 3
#     Node 15, Type 0, BuildingBlock: CUQRIR_clean_linker_1, # of connection points: 3
#     Node 16, Type 0, BuildingBlock: CUQRIR_clean_linker_1, # of connection points: 3
#     Node 17, Type 0, BuildingBlock: CUQRIR_clean_linker_1, # of connection points: 3
#     Node 18, Type 0, BuildingBlock: CUQRIR_clean_linker_1, # of connection points: 3
#     Node 19, Type 0, BuildingBlock: CUQRIR_clean_linker_1, # of connection points: 3
#     Node 20, Type 0, BuildingBlock: CUQRIR_clean_linker_1, # of connection points: 3
#     Node 21, Type 0, BuildingBlock: CUQRIR_clean_linker_1, # of connection points: 3
#     Node 22, Type 0, BuildingBlock: CUQRIR_clean_linker_1, # of connection points: 3
#     Node 23, Type 0, BuildingBlock: CUQRIR_clean_linker_1, # of connection points: 3
#     Node 24, Type 0, BuildingBlock: CUQRIR_clean_linker_1, # of connection points: 3
#     Node 25, Type 0, BuildingBlock: CUQRIR_clean_linker_1, # of connection points: 3
#     Node 26, Type 0, BuildingBlock: CUQRIR_clean_linker_1, # of connection points: 3
#     Node 27, Type 0, BuildingBlock: CUQRIR_clean_linker_1, # of connection points: 3
#     Node 28, Type 0, BuildingBlock: CUQRIR_clean_linker_1, # of connection points: 3
#     Node 29, Type 0, BuildingBlock: CUQRIR_clean_linker_1, # of connection points: 3
#     Node 30, Type 0, BuildingBlock: CUQRIR_clean_linker_1, # of connection points: 3
#     Node 31, Type 0, BuildingBlock: CUQRIR_clean_linker_1, # of connection points: 3
#     Node 32, Type 1, BuildingBlock: ESEHIV_clean_sbu_0, # of connection points: 4
#     Node 33, Type 1, BuildingBlock: ESEHIV_clean_sbu_0, # of connection points: 4
#     Node 34, Type 1, BuildingBlock: ESEHIV_clean_sbu_0, # of connection points: 4
#     Node 35, Type 1, BuildingBlock: ESEHIV_clean_sbu_0, # of connection points: 4
#     Node 36, Type 1, BuildingBlock: ESEHIV_clean_sbu_0, # of connection points: 4
#     Node 37, Type 1, BuildingBlock: ESEHIV_clean_sbu_0, # of connection points: 4
#     Node 38, Type 1, BuildingBlock: ESEHIV_clean_sbu_0, # of connection points: 4
#     Node 39, Type 1, BuildingBlock: ESEHIV_clean_sbu_0, # of connection points: 4
#     Node 40, Type 1, BuildingBlock: ESEHIV_clean_sbu_0, # of connection points: 4
#     Node 41, Type 1, BuildingBlock: ESEHIV_clean_sbu_0, # of connection points: 4
#     Node 42, Type 1, BuildingBlock: ESEHIV_clean_sbu_0, # of connection points: 4
#     Node 43, Type 1, BuildingBlock: ESEHIV_clean_sbu_0, # of connection points: 4
#     Node 44, Type 1, BuildingBlock: ESEHIV_clean_sbu_0, # of connection points: 4
#     Node 45, Type 1, BuildingBlock: ESEHIV_clean_sbu_0, # of connection points: 4
#     Node 46, Type 1, BuildingBlock: ESEHIV_clean_sbu_0, # of connection points: 4
#     Node 47, Type 1, BuildingBlock: ESEHIV_clean_sbu_0, # of connection points: 4
#     Node 48, Type 1, BuildingBlock: ESEHIV_clean_sbu_0, # of connection points: 4
#     Node 49, Type 1, BuildingBlock: ESEHIV_clean_sbu_0, # of connection points: 4
#     Node 50, Type 1, BuildingBlock: ESEHIV_clean_sbu_0, # of connection points: 4
#     Node 51, Type 1, BuildingBlock: ESEHIV_clean_sbu_0, # of connection points: 4
#     Node 52, Type 1, BuildingBlock: ESEHIV_clean_sbu_0, # of connection points: 4
#     Node 53, Type 1, BuildingBlock: ESEHIV_clean_sbu_0, # of connection points: 4
#     Node 54, Type 1, BuildingBlock: ESEHIV_clean_sbu_0, # of connection points: 4
#     Node 55, Type 1, BuildingBlock: ESEHIV_clean_sbu_0, # of connection points: 4
#     Edge 56, Type (0, 1), BuildingBlock: OJICUG_clean_linker_0, # of connection points: 2
#     Edge 57, Type (0, 1), BuildingBlock: OJICUG_clean_linker_0, # of connection points: 2
#     Edge 58, Type (0, 1), BuildingBlock: OJICUG_clean_linker_0, # of connection points: 2
#     Edge 59, Type (0, 1), BuildingBlock: OJICUG_clean_linker_0, # of connection points: 2
#     Edge 60, Type (0, 1), BuildingBlock: OJICUG_clean_linker_0, # of connection points: 2
#     Edge 61, Type (0, 1), BuildingBlock: OJICUG_clean_linker_0, # of connection points: 2
#     Edge 62, Type (0, 1), BuildingBlock: OJICUG_clean_linker_0, # of connection points: 2
#     Edge 63, Type (0, 1), BuildingBlock: OJICUG_clean_linker_0, # of connection points: 2
#     Edge 64, Type (0, 1), BuildingBlock: OJICUG_clean_linker_0, # of connection points: 2
#     Edge 65, Type (0, 1), BuildingBlock: OJICUG_clean_linker_0, # of connection points: 2
#     Edge 66, Type (0, 1), BuildingBlock: OJICUG_clean_linker_0, # of connection points: 2
#     Edge 67, Type (0, 1), BuildingBlock: OJICUG_clean_linker_0, # of connection points: 2
#     Edge 68, Type (0, 1), BuildingBlock: OJICUG_clean_linker_0, # of connection points: 2
#     Edge 69, Type (0, 1), BuildingBlock: OJICUG_clean_linker_0, # of connection points: 2
#     Edge 70, Type (0, 1), BuildingBlock: OJICUG_clean_linker_0, # of connection points: 2
#     Edge 71, Type (0, 1), BuildingBlock: OJICUG_clean_linker_0, # of connection points: 2
#     Edge 72, Type (0, 1), BuildingBlock: OJICUG_clean_linker_0, # of connection points: 2
#     Edge 73, Type (0, 1), BuildingBlock: OJICUG_clean_linker_0, # of connection points: 2
#     Edge 74, Type (0, 1), BuildingBlock: OJICUG_clean_linker_0, # of connection points: 2
#     Edge 75, Type (0, 1), BuildingBlock: OJICUG_clean_linker_0, # of connection points: 2
#     Edge 76, Type (0, 1), BuildingBlock: OJICUG_clean_linker_0, # of connection points: 2
#     Edge 77, Type (0, 1), BuildingBlock: OJICUG_clean_linker_0, # of connection points: 2
#     Edge 78, Type (0, 1), BuildingBlock: OJICUG_clean_linker_0, # of connection points: 2
#     Edge 79, Type (0, 1), BuildingBlock: OJICUG_clean_linker_0, # of connection points: 2
#     Edge 80, Type (0, 1), BuildingBlock: OJICUG_clean_linker_0, # of connection points: 2
#     Edge 81, Type (0, 1), BuildingBlock: OJICUG_clean_linker_0, # of connection points: 2
#     Edge 82, Type (0, 1), BuildingBlock: OJICUG_clean_linker_0, # of connection points: 2
#     Edge 83, Type (0, 1), BuildingBlock: OJICUG_clean_linker_0, # of connection points: 2
#     Edge 84, Type (0, 1), BuildingBlock: OJICUG_clean_linker_0, # of connection points: 2
#     Edge 85, Type (0, 1), BuildingBlock: OJICUG_clean_linker_0, # of connection points: 2
#     Edge 86, Type (0, 1), BuildingBlock: OJICUG_clean_linker_0, # of connection points: 2
#     Edge 87, Type (0, 1), BuildingBlock: OJICUG_clean_linker_0, # of connection points: 2
#     Edge 88, Type (0, 1), BuildingBlock: OJICUG_clean_linker_0, # of connection points: 2
#     Edge 89, Type (0, 1), BuildingBlock: OJICUG_clean_linker_0, # of connection points: 2
#     Edge 90, Type (0, 1), BuildingBlock: OJICUG_clean_linker_0, # of connection points: 2
#     Edge 91, Type (0, 1), BuildingBlock: OJICUG_clean_linker_0, # of connection points: 2
#     Edge 92, Type (0, 1), BuildingBlock: OJICUG_clean_linker_0, # of connection points: 2
#     Edge 93, Type (0, 1), BuildingBlock: OJICUG_clean_linker_0, # of connection points: 2
#     Edge 94, Type (0, 1), BuildingBlock: OJICUG_clean_linker_0, # of connection points: 2
#     Edge 95, Type (0, 1), BuildingBlock: OJICUG_clean_linker_0, # of connection points: 2
#     Edge 96, Type (0, 1), BuildingBlock: OJICUG_clean_linker_0, # of connection points: 2
#     Edge 97, Type (0, 1), BuildingBlock: OJICUG_clean_linker_0, # of connection points: 2
#     Edge 98, Type (0, 1), BuildingBlock: OJICUG_clean_linker_0, # of connection points: 2
#     Edge 99, Type (0, 1), BuildingBlock: OJICUG_clean_linker_0, # of connection points: 2
#     Edge 100, Type (0, 1), BuildingBlock: OJICUG_clean_linker_0, # of connection points: 2
#     Edge 101, Type (0, 1), BuildingBlock: OJICUG_clean_linker_0, # of connection points: 2
#     Edge 102, Type (0, 1), BuildingBlock: OJICUG_clean_linker_0, # of connection points: 2
#     Edge 103, Type (0, 1), BuildingBlock: OJICUG_clean_linker_0, # of connection points: 2
#     Edge 104, Type (0, 1), BuildingBlock: OJICUG_clean_linker_0, # of connection points: 2
#     Edge 105, Type (0, 1), BuildingBlock: OJICUG_clean_linker_0, # of connection points: 2
#     Edge 106, Type (0, 1), BuildingBlock: OJICUG_clean_linker_0, # of connection points: 2
#     Edge 107, Type (0, 1), BuildingBlock: OJICUG_clean_linker_0, # of connection points: 2
#     Edge 108, Type (0, 1), BuildingBlock: OJICUG_clean_linker_0, # of connection points: 2
#     Edge 109, Type (0, 1), BuildingBlock: OJICUG_clean_linker_0, # of connection points: 2
#     Edge 110, Type (0, 1), BuildingBlock: OJICUG_clean_linker_0, # of connection points: 2
#     Edge 111, Type (0, 1), BuildingBlock: OJICUG_clean_linker_0, # of connection points: 2
#     Edge 112, Type (0, 1), BuildingBlock: OJICUG_clean_linker_0, # of connection points: 2
#     Edge 113, Type (0, 1), BuildingBlock: OJICUG_clean_linker_0, # of connection points: 2
#     Edge 114, Type (0, 1), BuildingBlock: OJICUG_clean_linker_0, # of connection points: 2
#     Edge 115, Type (0, 1), BuildingBlock: OJICUG_clean_linker_0, # of connection points: 2
#     Edge 116, Type (0, 1), BuildingBlock: OJICUG_clean_linker_0, # of connection points: 2
#     Edge 117, Type (0, 1), BuildingBlock: OJICUG_clean_linker_0, # of connection points: 2
#     Edge 118, Type (0, 1), BuildingBlock: OJICUG_clean_linker_0, # of connection points: 2
#     Edge 119, Type (0, 1), BuildingBlock: OJICUG_clean_linker_0, # of connection points: 2
#     Edge 120, Type (0, 1), BuildingBlock: OJICUG_clean_linker_0, # of connection points: 2
#     Edge 121, Type (0, 1), BuildingBlock: OJICUG_clean_linker_0, # of connection points: 2
#     Edge 122, Type (0, 1), BuildingBlock: OJICUG_clean_linker_0, # of connection points: 2
#     Edge 123, Type (0, 1), BuildingBlock: OJICUG_clean_linker_0, # of connection points: 2
#     Edge 124, Type (0, 1), BuildingBlock: OJICUG_clean_linker_0, # of connection points: 2
#     Edge 125, Type (0, 1), BuildingBlock: OJICUG_clean_linker_0, # of connection points: 2
#     Edge 126, Type (0, 1), BuildingBlock: OJICUG_clean_linker_0, # of connection points: 2
#     Edge 127, Type (0, 1), BuildingBlock: OJICUG_clean_linker_0, # of connection points: 2
#     Edge 128, Type (0, 1), BuildingBlock: OJICUG_clean_linker_0, # of connection points: 2
#     Edge 129, Type (0, 1), BuildingBlock: OJICUG_clean_linker_0, # of connection points: 2
#     Edge 130, Type (0, 1), BuildingBlock: OJICUG_clean_linker_0, # of connection points: 2
#     Edge 131, Type (0, 1), BuildingBlock: OJICUG_clean_linker_0, # of connection points: 2
#     Edge 132, Type (0, 1), BuildingBlock: OJICUG_clean_linker_0, # of connection points: 2
#     Edge 133, Type (0, 1), BuildingBlock: OJICUG_clean_linker_0, # of connection points: 2
#     Edge 134, Type (0, 1), BuildingBlock: OJICUG_clean_linker_0, # of connection points: 2
#     Edge 135, Type (0, 1), BuildingBlock: OJICUG_clean_linker_0, # of connection points: 2
#     Edge 136, Type (0, 1), BuildingBlock: OJICUG_clean_linker_0, # of connection points: 2
#     Edge 137, Type (0, 1), BuildingBlock: OJICUG_clean_linker_0, # of connection points: 2
#     Edge 138, Type (0, 1), BuildingBlock: OJICUG_clean_linker_0, # of connection points: 2
#     Edge 139, Type (0, 1), BuildingBlock: OJICUG_clean_linker_0, # of connection points: 2
#     Edge 140, Type (0, 1), BuildingBlock: OJICUG_clean_linker_0, # of connection points: 2
#     Edge 141, Type (0, 1), BuildingBlock: OJICUG_clean_linker_0, # of connection points: 2
#     Edge 142, Type (0, 1), BuildingBlock: OJICUG_clean_linker_0, # of connection points: 2
#     Edge 143, Type (0, 1), BuildingBlock: OJICUG_clean_linker_0, # of connection points: 2
#     Edge 144, Type (0, 1), BuildingBlock: OJICUG_clean_linker_0, # of connection points: 2
#     Edge 145, Type (0, 1), BuildingBlock: OJICUG_clean_linker_0, # of connection points: 2
#     Edge 146, Type (0, 1), BuildingBlock: OJICUG_clean_linker_0, # of connection points: 2
#     Edge 147, Type (0, 1), BuildingBlock: OJICUG_clean_linker_0, # of connection points: 2
#     Edge 148, Type (0, 1), BuildingBlock: OJICUG_clean_linker_0, # of connection points: 2
#     Edge 149, Type (0, 1), BuildingBlock: OJICUG_clean_linker_0, # of connection points: 2
#     Edge 150, Type (0, 1), BuildingBlock: OJICUG_clean_linker_0, # of connection points: 2
#     Edge 151, Type (0, 1), BuildingBlock: OJICUG_clean_linker_0, # of connection points: 2
# Relax obj value: 0.019
# Max RMSD: 0.190
# Mean RMSD: 0.115
data_MOF--net-tbo--node1-ESEHIV_clean_sbu_0--node2-CUQRIR_clean_linker_1--edge1-OJICUG_clean_linker_0
_symmetry_space_group_name_H-M    P1
_symmetry_Int_Tables_number       1
_symmetry_cell_setting            triclinic
loop_
_symmetry_equiv_pos_as_xyz
'x, y, z'
_cell_length_a     47.515383
_cell_length_b     48.099468
_cell_length_c     46.093626
_cell_angle_alpha  87.312411
_cell_angle_beta   96.694023
_cell_angle_gamma 95.977056
loop_
_atom_site_label
_atom_site_type_symbol
_atom_site_fract_x
_atom_site_fract_y
_atom_site_fract_z
_atom_type_partial_charge
C0 C 0.19319 0.1698 0.25406 0.0
N1 N 0.21263 0.17169 0.2346 0.0
N2 N 0.1762 0.19077 0.24945 0.0
C3 C 0.19097 0.14747 0.27798 0.0
C4 C 0.18615 0.20575 0.22637 0.0
N5 N 0.2084 0.19411 0.21706 0.0
C6 C 0.17384 0.2315 0.21273 0.0
H7 H 0.17754 0.1289 0.26899 0.0
H8 H 0.18108 0.15485 0.29649 0.0
H9 H 0.21219 0.14088 0.28632 0.0
H10 H 0.16349 0.2424 0.2286 0.0
H11 H 0.15739 0.22526 0.19447 0.0
H12 H 0.19061 0.2462 0.20392 0.0
C13 C 0.87116 0.18809 0.15583 0.0
N14 N 0.88942 0.17669 0.17693 0.0
N15 N 0.884 0.21158 0.14371 0.0
C16 C 0.84069 0.17701 0.14745 0.0
C17 C 0.91071 0.21375 0.15763 0.0
N18 N 0.91406 0.19269 0.17775 0.0
C19 C 0.93268 0.23819 0.1538 0.0
H20 H 0.83768 0.15397 0.151 0.0
H21 H 0.83392 0.18237 0.1242 0.0
H22 H 0.82687 0.18682 0.16098 0.0
H23 H 0.93305 0.25261 0.17197 0.0
H24 H 0.9279 0.24976 0.13271 0.0
H25 H 0.95415 0.23091 0.15462 0.0
C26 C 0.90687 0.87068 0.21344 0.0
N27 N 0.91499 0.84867 0.20015 0.0
N28 N 0.88257 0.87944 0.19926 0.0
C29 C 0.92159 0.88253 0.24158 0.0
C30 C 0.87579 0.8616 0.17707 0.0
N31 N 0.89523 0.84264 0.1777 0.0
C32 C 0.85147 0.86406 0.15336 0.0
H33 H 0.93141 0.86602 0.25573 0.0
H34 H 0.90639 0.89204 0.25373 0.0
H35 H 0.93865 0.89899 0.23655 0.0
H36 H 0.84427 0.88534 0.15189 0.0
H37 H 0.83337 0.84876 0.15833 0.0
H38 H 0.85768 0.85911 0.13186 0.0
C39 C 0.20751 0.82992 0.16545 0.0
N40 N 0.22687 0.85181 0.15976 0.0
N41 N 0.19162 0.83625 0.1864 0.0
C42 C 0.20453 0.8021 0.15121 0.0
C43 C 0.202 0.86282 0.19314 0.0
N44 N 0.22315 0.87233 0.17683 0.0
C45 C 0.19229 0.87909 0.21654 0.0
H46 H 0.18236 0.79214 0.15021 0.0
H47 H 0.21848 0.78798 0.16438 0.0
H48 H 0.21087 0.80444 0.12875 0.0
H49 H 0.20671 0.87659 0.23702 0.0
H50 H 0.17024 0.87138 0.22071 0.0
H51 H 0.19332 0.9017 0.21026 0.0
C52 C 0.18567 0.87431 0.85717 0.0
N53 N 0.21145 0.88606 0.86854 0.0
N54 N 0.17438 0.89076 0.83517 0.0
C55 C 0.17077 0.8474 0.86817 0.0
C56 C 0.19404 0.91306 0.83359 0.0
N57 N 0.21656 0.91026 0.85402 0.0
C58 C 0.19183 0.93687 0.81146 0.0
H59 H 0.17688 0.82978 0.85634 0.0
H60 H 0.14731 0.84752 0.86406 0.0
H61 H 0.17692 0.84385 0.89192 0.0
H62 H 0.18644 0.95542 0.8223 0.0
H63 H 0.17509 0.9316 0.79315 0.0
H64 H 0.21262 0.94246 0.80285 0.0
C65 C 0.22859 0.16323 0.8734 0.0
N66 N 0.22716 0.18038 0.89559 0.0
N67 N 0.25147 0.14854 0.87869 0.0
C68 C 0.2074 0.16058 0.84647 0.0
C69 C 0.26408 0.15728 0.90507 0.0
N70 N 0.24915 0.17649 0.91573 0.0
C71 C 0.29281 0.1496 0.91847 0.0
H72 H 0.18571 0.16356 0.85168 0.0
H73 H 0.20704 0.13982 0.83682 0.0
H74 H 0.21356 0.17697 0.83001 0.0
H75 H 0.30527 0.14267 0.90171 0.0
H76 H 0.28977 0.1321 0.93471 0.0
H77 H 0.30524 0.16758 0.92973 0.0
C78 C 0.88805 0.19979 0.87736 0.0
N79 N 0.90204 0.18637 0.85906 0.0
N80 N 0.9035 0.22371 0.88641 0.0
C81 C 0.85805 0.19101 0.88407 0.0
C82 C 0.92725 0.2246 0.87255 0.0
N83 N 0.92624 0.20213 0.85562 0.0
C84 C 0.95221 0.24658 0.87678 0.0
H85 H 0.84722 0.2093 0.88898 0.0
H86 H 0.85868 0.17638 0.90342 0.0
H87 H 0.84536 0.18013 0.86543 0.0
H88 H 0.95347 0.25614 0.89839 0.0
H89 H 0.94964 0.26322 0.85944 0.0
H90 H 0.97249 0.23761 0.87496 0.0
C91 C 0.88171 0.90672 0.85725 0.0
N92 N 0.89335 0.88343 0.86878 0.0
N93 N 0.89018 0.91393 0.83057 0.0
C94 C 0.86017 0.92117 0.87094 0.0
C95 C 0.90712 0.89395 0.82605 0.0
N96 N 0.90893 0.87526 0.8491 0.0
C97 C 0.92348 0.89384 0.8 0.0
H98 H 0.84704 0.90608 0.88401 0.0
H99 H 0.8459 0.93163 0.85406 0.0
H100 H 0.87155 0.93727 0.8857 0.0
H101 H 0.94472 0.88638 0.80648 0.0
H102 H 0.9263 0.91501 0.78947 0.0
H103 H 0.91152 0.87939 0.7838 0.0
C104 C 0.21007 0.68055 0.71408 0.0
N105 N 0.22819 0.68133 0.6933 0.0
N106 N 0.1934 0.702 0.70982 0.0
C107 C 0.20923 0.65927 0.73902 0.0
C108 C 0.20225 0.71594 0.68567 0.0
N109 N 0.22349 0.70354 0.67569 0.0
C110 C 0.18855 0.7403 0.67045 0.0
H111 H 0.1937 0.64127 0.73222 0.0
H112 H 0.2024 0.66829 0.75847 0.0
H113 H 0.23029 0.65134 0.74505 0.0
H114 H 0.19968 0.76004 0.67936 0.0
H115 H 0.1658 0.73935 0.67411 0.0
H116 H 0.19012 0.74066 0.6466 0.0
C117 C 0.87193 0.69388 0.64443 0.0
N118 N 0.8909 0.69346 0.66879 0.0
N119 N 0.87724 0.71753 0.62812 0.0
C120 C 0.84917 0.67072 0.63585 0.0
C121 C 0.89992 0.7316 0.64344 0.0
N122 N 0.90843 0.71686 0.66806 0.0
C123 C 0.91186 0.7609 0.63566 0.0
H124 H 0.85597 0.65012 0.644 0.0
H125 H 0.84392 0.67055 0.61175 0.0
H126 H 0.82964 0.67414 0.6457 0.0
H127 H 0.8954 0.77257 0.62278 0.0
H128 H 0.9296 0.75985 0.62222 0.0
H129 H 0.92016 0.77256 0.65558 0.0
C130 C 0.92234 0.39229 0.72042 0.0
N131 N 0.92801 0.36721 0.71131 0.0
N132 N 0.89836 0.40068 0.70533 0.0
C133 C 0.93905 0.40794 0.74542 0.0
C134 C 0.88934 0.37979 0.68682 0.0
N135 N 0.90713 0.3592 0.69058 0.0
C136 C 0.86435 0.38056 0.66362 0.0
H137 H 0.9479 0.39325 0.76254 0.0
H138 H 0.92552 0.42148 0.75536 0.0
H139 H 0.95695 0.42147 0.73712 0.0
H140 H 0.85861 0.40221 0.65887 0.0
H141 H 0.84573 0.36773 0.67139 0.0
H142 H 0.8691 0.37164 0.64317 0.0
C143 C 0.20989 0.3479 0.6905 0.0
N144 N 0.22806 0.37097 0.68569 0.0
N145 N 0.19502 0.35144 0.71319 0.0
C146 C 0.20819 0.3212 0.67439 0.0
C147 C 0.20485 0.37749 0.72207 0.0
N148 N 0.22496 0.38943 0.70552 0.0
C149 C 0.1943 0.39143 0.7467 0.0
H150 H 0.21211 0.3257 0.65129 0.0
H151 H 0.1872 0.30893 0.67509 0.0
H152 H 0.22485 0.3083 0.68491 0.0
H153 H 0.20777 0.38689 0.76735 0.0
H154 H 0.17197 0.38331 0.74934 0.0
H155 H 0.19557 0.41444 0.74277 0.0
C156 C 0.16887 0.35388 0.39328 0.0
N157 N 0.19624 0.36441 0.3914 0.0
N158 N 0.1514 0.36341 0.37045 0.0
C159 C 0.15921 0.33335 0.41671 0.0
C160 C 0.16897 0.38037 0.35486 0.0
N161 N 0.19607 0.38131 0.36773 0.0
C162 C 0.16001 0.3944 0.32588 0.0
H163 H 0.15826 0.31181 0.4088 0.0
H164 H 0.1377 0.33676 0.42189 0.0
H165 H 0.17392 0.33519 0.43719 0.0
H166 H 0.17091 0.41589 0.32456 0.0
H167 H 0.13662 0.39535 0.32247 0.0
H168 H 0.16642 0.38242 0.30815 0.0
C169 C 0.23312 0.63887 0.34068 0.0
N170 N 0.22796 0.65745 0.36043 0.0
N171 N 0.25498 0.62385 0.35148 0.0
C172 C 0.21664 0.63516 0.31095 0.0
C173 C 0.26264 0.63353 0.37861 0.0
N174 N 0.24618 0.65362 0.38422 0.0
C175 C 0.28601 0.6231 0.40008 0.0
H176 H 0.19372 0.63716 0.31194 0.0
H177 H 0.21894 0.61469 0.30193 0.0
H178 H 0.22484 0.65171 0.29566 0.0
H179 H 0.2997 0.64106 0.41006 0.0
H180 H 0.29946 0.60966 0.39004 0.0
H181 H 0.27633 0.6106 0.41787 0.0
C182 C 0.87909 0.69937 0.35348 0.0
N183 N 0.89407 0.6857 0.33622 0.0
N184 N 0.89409 0.72347 0.36287 0.0
C185 C 0.84856 0.69098 0.35854 0.0
C186 C 0.9186 0.72423 0.35031 0.0
N187 N 0.91853 0.70153 0.33387 0.0
C188 C 0.94323 0.74645 0.35523 0.0
H189 H 0.8377 0.70946 0.36281 0.0
H190 H 0.84802 0.67637 0.37786 0.0
H191 H 0.83663 0.68035 0.33935 0.0
H192 H 0.94347 0.75624 0.37659 0.0
H193 H 0.94112 0.76288 0.33763 0.0
H194 H 0.96379 0.73763 0.35446 0.0
C195 C 0.85831 0.38373 0.37383 0.0
N196 N 0.86871 0.36051 0.38734 0.0
N197 N 0.87131 0.39143 0.34945 0.0
C198 C 0.8374 0.4003 0.38576 0.0
C199 C 0.88981 0.37197 0.34859 0.0
N200 N 0.8885 0.35347 0.37159 0.0
C201 C 0.90794 0.36992 0.3242 0.0
H202 H 0.81549 0.39196 0.37725 0.0
H203 H 0.84063 0.42268 0.37879 0.0
H204 H 0.83942 0.39849 0.40998 0.0
H205 H 0.92909 0.38161 0.32996 0.0
H206 H 0.89802 0.37903 0.30341 0.0
H207 H 0.91119 0.34782 0.32094 0.0
C208 C 0.71784 0.18012 0.71462 0.0
N209 N 0.73536 0.18034 0.69334 0.0
N210 N 0.70153 0.20186 0.71069 0.0
C211 C 0.71617 0.15821 0.73894 0.0
C212 C 0.7098 0.21531 0.68597 0.0
N213 N 0.73018 0.2021 0.67523 0.0
C214 C 0.69746 0.24085 0.67173 0.0
H215 H 0.70125 0.14016 0.73103 0.0
H216 H 0.70832 0.16649 0.75823 0.0
H217 H 0.73723 0.15056 0.74575 0.0
H218 H 0.68609 0.2518 0.68664 0.0
H219 H 0.68191 0.23438 0.65283 0.0
H220 H 0.71451 0.25565 0.66353 0.0
C221 C 0.3742 0.19256 0.67567 0.0
N222 N 0.39624 0.19253 0.69713 0.0
N223 N 0.37616 0.21658 0.65931 0.0
C224 C 0.34982 0.16997 0.67172 0.0
C225 C 0.40015 0.23126 0.67153 0.0
N226 N 0.41235 0.21671 0.69474 0.0
C227 C 0.41268 0.25873 0.65929 0.0
H228 H 0.35588 0.15342 0.65836 0.0
H229 H 0.33046 0.17833 0.66026 0.0
H230 H 0.34491 0.16037 0.69314 0.0
H231 H 0.40498 0.27601 0.67035 0.0
H232 H 0.40594 0.26107 0.6355 0.0
H233 H 0.43627 0.26057 0.66306 0.0
C234 C 0.41931 0.8974 0.73541 0.0
N235 N 0.42365 0.87394 0.72207 0.0
N236 N 0.39548 0.90822 0.72277 0.0
C237 C 0.43716 0.90868 0.76229 0.0
C238 C 0.38514 0.89022 0.70143 0.0
N239 N 0.40213 0.86913 0.70109 0.0
C240 C 0.3599 0.89467 0.67945 0.0
H241 H 0.44644 0.89157 0.77596 0.0
H242 H 0.42431 0.91992 0.77563 0.0
H243 H 0.45483 0.92359 0.75553 0.0
H244 H 0.35639 0.91714 0.67694 0.0
H245 H 0.3406 0.88302 0.68715 0.0
H246 H 0.36284 0.88682 0.65786 0.0
C247 C 0.6992 0.83297 0.65799 0.0
N248 N 0.7158 0.85706 0.6525 0.0
N249 N 0.6809 0.83701 0.67743 0.0
C250 C 0.70004 0.80551 0.64396 0.0
C251 C 0.68685 0.8643 0.68376 0.0
N252 N 0.70766 0.87669 0.66833 0.0
C253 C 0.67385 0.87836 0.70677 0.0
H254 H 0.67922 0.79267 0.64389 0.0
H255 H 0.71647 0.79372 0.6567 0.0
H256 H 0.70539 0.80886 0.62118 0.0
H257 H 0.69066 0.89096 0.72068 0.0
H258 H 0.662 0.86311 0.72082 0.0
H259 H 0.6588 0.89277 0.69591 0.0
C260 C 0.65388 0.853 0.35345 0.0
N261 N 0.68052 0.86519 0.36124 0.0
N262 N 0.64165 0.86607 0.32928 0.0
C263 C 0.63947 0.8288 0.36976 0.0
C264 C 0.66171 0.88674 0.32268 0.0
N265 N 0.68527 0.88633 0.34219 0.0
C266 C 0.65865 0.90697 0.29697 0.0
H267 H 0.64509 0.80901 0.36156 0.0
H268 H 0.61597 0.82877 0.36627 0.0
H269 H 0.64672 0.82948 0.39351 0.0
H270 H 0.66481 0.92862 0.30432 0.0
H271 H 0.63658 0.90531 0.28582 0.0
H272 H 0.67348 0.90261 0.28123 0.0
C273 C 0.7096 0.1512 0.32902 0.0
N274 N 0.7111 0.16779 0.35236 0.0
N275 N 0.72923 0.13254 0.33352 0.0
C276 C 0.68787 0.15213 0.30262 0.0
C277 C 0.74284 0.13835 0.36033 0.0
N278 N 0.73159 0.15948 0.3721 0.0
C279 C 0.76851 0.12463 0.37398 0.0
H280 H 0.66656 0.15434 0.30936 0.0
H281 H 0.68675 0.13308 0.28971 0.0
H282 H 0.69379 0.17068 0.28857 0.0
H283 H 0.77962 0.1159 0.35713 0.0
H284 H 0.7615 0.10722 0.38897 0.0
H285 H 0.78375 0.13976 0.38674 0.0
C286 C 0.37926 0.18869 0.39073 0.0
N287 N 0.39487 0.17516 0.37411 0.0
N288 N 0.39642 0.20685 0.4084 0.0
C289 C 0.34752 0.18352 0.3903 0.0
C290 C 0.42297 0.20385 0.40158 0.0
N291 N 0.42198 0.18448 0.38101 0.0
C292 C 0.44948 0.22191 0.41267 0.0
H293 H 0.33736 0.19793 0.37372 0.0
H294 H 0.3409 0.18748 0.41192 0.0
H295 H 0.33995 0.16174 0.3842 0.0
H296 H 0.45974 0.21169 0.43266 0.0
H297 H 0.44433 0.24285 0.41825 0.0
H298 H 0.46497 0.22453 0.39627 0.0
C299 C 0.34265 0.88146 0.38412 0.0
N300 N 0.35804 0.8593 0.39094 0.0
N301 N 0.34924 0.89442 0.35874 0.0
C302 C 0.32292 0.89202 0.40348 0.0
C303 C 0.36944 0.87948 0.35037 0.0
N304 N 0.37497 0.85816 0.36994 0.0
C305 C 0.38374 0.88575 0.32303 0.0
H306 H 0.3012 0.88139 0.39813 0.0
H307 H 0.32189 0.91489 0.39997 0.0
H308 H 0.32998 0.88755 0.42688 0.0
H309 H 0.36966 0.8963 0.30602 0.0
H310 H 0.38977 0.86643 0.31424 0.0
H311 H 0.40345 0.89991 0.32835 0.0
C312 C 0.68502 0.69 0.21155 0.0
N313 N 0.70406 0.69298 0.19146 0.0
N314 N 0.66613 0.70956 0.20682 0.0
C315 C 0.68427 0.66755 0.23545 0.0
C316 C 0.67444 0.72452 0.18294 0.0
N317 N 0.69734 0.71433 0.17344 0.0
C318 C 0.66079 0.74984 0.16988 0.0
H319 H 0.67027 0.64907 0.22709 0.0
H320 H 0.67559 0.67493 0.25472 0.0
H321 H 0.70555 0.66067 0.24261 0.0
H322 H 0.67077 0.76852 0.1818 0.0
H323 H 0.63767 0.74757 0.17215 0.0
H324 H 0.66365 0.75376 0.14655 0.0
C325 C 0.34513 0.66442 0.13271 0.0
N326 N 0.36287 0.66248 0.15776 0.0
N327 N 0.34624 0.69104 0.12213 0.0
C328 C 0.32579 0.64054 0.11919 0.0
C329 C 0.3653 0.70538 0.14147 0.0
N330 N 0.37519 0.68808 0.16361 0.0
C331 C 0.37643 0.73556 0.13678 0.0
H332 H 0.33811 0.62867 0.10589 0.0
H333 H 0.30764 0.64822 0.10477 0.0
H334 H 0.31746 0.62606 0.13635 0.0
H335 H 0.36409 0.74897 0.14839 0.0
H336 H 0.37401 0.74191 0.11324 0.0
H337 H 0.39925 0.73926 0.14537 0.0
C338 C 0.43843 0.35392 0.2507 0.0
N339 N 0.44088 0.33254 0.23312 0.0
N340 N 0.41466 0.36663 0.24176 0.0
C341 C 0.45831 0.36154 0.27769 0.0
C342 C 0.40232 0.35194 0.21845 0.0
N343 N 0.41801 0.33103 0.21325 0.0
C344 C 0.37442 0.35735 0.20127 0.0
H345 H 0.46661 0.34261 0.28882 0.0
H346 H 0.44766 0.37244 0.29334 0.0
H347 H 0.47655 0.37588 0.27129 0.0
H348 H 0.3759 0.35601 0.17753 0.0
H349 H 0.368 0.37811 0.20573 0.0
H350 H 0.35772 0.34095 0.20733 0.0
C351 C 0.71278 0.35649 0.17659 0.0
N352 N 0.72751 0.38198 0.17466 0.0
N353 N 0.69829 0.35433 0.20014 0.0
C354 C 0.71244 0.33356 0.15526 0.0
C355 C 0.70492 0.37937 0.21288 0.0
N356 N 0.72285 0.39644 0.19735 0.0
C357 C 0.69183 0.38779 0.23889 0.0
H358 H 0.70683 0.31267 0.16544 0.0
H359 H 0.73342 0.33358 0.14698 0.0
H360 H 0.69641 0.33712 0.13631 0.0
H361 H 0.70619 0.38357 0.25902 0.0
H362 H 0.67096 0.37555 0.24073 0.0
H363 H 0.68891 0.41042 0.23739 0.0
C364 C 0.6906 0.39648 0.88724 0.0
N365 N 0.71749 0.40923 0.89086 0.0
N366 N 0.67869 0.40029 0.85931 0.0
C367 C 0.67717 0.37752 0.90983 0.0
C368 C 0.69951 0.41552 0.84605 0.0
N369 N 0.72311 0.42089 0.86523 0.0
C370 C 0.69651 0.42553 0.81458 0.0
H371 H 0.69329 0.37019 0.92705 0.0
H372 H 0.66468 0.35908 0.89947 0.0
H373 H 0.66236 0.3892 0.92031 0.0
H374 H 0.67388 0.42788 0.80667 0.0
H375 H 0.70408 0.40992 0.80111 0.0
H376 H 0.70955 0.44578 0.81172 0.0
C377 C 0.73186 0.65662 0.8493 0.0
N378 N 0.7302 0.67712 0.8681 0.0
N379 N 0.75571 0.64363 0.85668 0.0
C380 C 0.70942 0.64828 0.8246 0.0
C381 C 0.76856 0.65691 0.88078 0.0
N382 N 0.75287 0.67706 0.88812 0.0
C383 C 0.79808 0.65247 0.89484 0.0
H384 H 0.70953 0.62593 0.8197 0.0
H385 H 0.71385 0.66117 0.80474 0.0
H386 H 0.68796 0.6519 0.82997 0.0
H387 H 0.81094 0.6446 0.87896 0.0
H388 H 0.79649 0.63674 0.91312 0.0
H389 H 0.80935 0.67219 0.90364 0.0
C390 C 0.3877 0.68701 0.86751 0.0
N391 N 0.4017 0.67378 0.84897 0.0
N392 N 0.40324 0.71079 0.87692 0.0
C393 C 0.36015 0.67555 0.87872 0.0
C394 C 0.42723 0.7116 0.86364 0.0
N395 N 0.42643 0.68919 0.84675 0.0
C396 C 0.4515 0.7344 0.86712 0.0
H397 H 0.34214 0.68303 0.86396 0.0
H398 H 0.35893 0.68293 0.90095 0.0
H399 H 0.35786 0.65235 0.8794 0.0
H400 H 0.44416 0.75419 0.87342 0.0
H401 H 0.46166 0.73823 0.84665 0.0
H402 H 0.46782 0.72774 0.88453 0.0
C403 C 0.39115 0.37652 0.88623 0.0
N404 N 0.40251 0.3539 0.90007 0.0
N405 N 0.40219 0.3831 0.8606 0.0
C406 C 0.3686 0.3919 0.89708 0.0
C407 C 0.42045 0.36352 0.85913 0.0
N408 N 0.4206 0.34569 0.88288 0.0
C409 C 0.43854 0.36205 0.83456 0.0
H410 H 0.34742 0.38312 0.88691 0.0
H411 H 0.3715 0.41444 0.89062 0.0
H412 H 0.36856 0.38978 0.92106 0.0
H413 H 0.46019 0.37227 0.84127 0.0
H414 H 0.42947 0.37277 0.81432 0.0
H415 H 0.44063 0.34012 0.82956 0.0
Cu416 Cu 0.32461 0.26187 0.06638 0.0
N417 N 0.33462 0.29333 0.04172 0.0
N418 N 0.35542 0.31753 1.00546 0.0
C419 C 0.34902 0.29205 1.01814 0.0
C420 C 0.34444 0.33557 0.02164 0.0
C421 C 0.33153 0.32065 0.04378 0.0
O422 O 0.31231 0.2322 0.0379 0.0
C423 C 0.36114 0.28148 0.11304 0.0
O424 O 0.34373 0.301 0.10753 0.0
H425 H 0.35527 0.27278 1.01082 0.0
H426 H 0.32094 0.32921 0.06037 0.0
N427 N 0.29332 0.26265 0.08838 0.0
N428 N 0.26308 0.2476 0.12139 0.0
C429 C 0.28879 0.24564 0.11208 0.0
C430 C 0.26972 0.27609 0.08274 0.0
C431 C 0.25108 0.26681 0.1029 0.0
C432 C 0.29289 0.23943 1.01802 0.0
O433 O 0.2833 0.26387 0.01969 0.0
H434 H 0.30357 0.23112 0.12149 0.0
H435 H 0.26589 0.2909 0.06468 0.0
O436 O 0.35748 0.26005 0.09694 0.0
H437 H 0.34548 0.35799 1.01763 0.0
H438 H 0.23011 0.27347 0.10365 0.0
Cu439 Cu 0.81958 0.3303 1.01833 0.0
N440 N 0.79026 0.33897 0.04222 0.0
N441 N 0.7682 0.36029 0.0739 0.0
C442 C 0.79356 0.35511 0.06584 0.0
C443 C 0.74836 0.34664 0.05481 0.0
C444 C 0.76201 0.33361 0.03528 0.0
O445 O 0.8318 0.29999 0.04787 0.0
C446 C 0.79616 0.38092 0.98798 0.0
O447 O 0.79867 0.39279 1.01335 0.0
H448 H 0.81397 0.36397 0.07603 0.0
H449 H 0.7521 0.3218 1.01675 0.0
N450 N 0.84902 0.32238 0.99445 0.0
N451 N 0.87262 0.3022 0.96339 0.0
C452 C 0.85099 0.29889 0.98029 0.0
C453 C 0.87004 0.34103 0.98642 0.0
C454 C 0.88462 0.32865 0.9672 0.0
C455 C 0.84562 0.30392 0.07282 0.0
O456 O 0.85339 0.32951 0.08139 0.0
H457 H 0.83627 0.28022 0.98146 0.0
H458 H 0.87393 0.36237 0.99344 0.0
O459 O 0.80491 0.35705 0.98596 0.0
H460 H 0.72555 0.34596 0.05504 0.0
H461 H 0.90251 0.33842 0.95665 0.0
Cu462 Cu 0.8205 0.77801 0.03033 0.0
N463 N 0.83142 0.81058 1.00815 0.0
N464 N 0.85146 0.83828 0.97391 0.0
C465 C 0.84494 0.81168 0.98375 0.0
C466 C 0.84153 0.85443 0.99289 0.0
C467 C 0.82922 0.83736 1.01387 0.0
O468 O 0.81061 0.74777 1.00239 0.0
C469 C 0.87206 0.79031 0.06938 0.0
O470 O 0.88116 0.80638 0.0479 0.0
H471 H 0.85038 0.79332 0.9738 0.0
H472 H 0.81965 0.844 0.03223 0.0
N473 N 0.78736 0.7798 0.04859 0.0
N474 N 0.7548 0.76644 0.07941 0.0
C475 C 0.78176 0.76509 0.07334 0.0
C476 C 0.76314 0.79112 0.03879 0.0
C477 C 0.74301 0.78284 0.0577 0.0
C478 C 0.79318 0.75364 0.98011 0.0
O479 O 0.78416 0.77863 0.97768 0.0
H480 H 0.79671 0.75236 0.08581 0.0
H481 H 0.75995 0.80359 1.01877 0.0
O482 O 0.84945 0.77359 0.06419 0.0
H483 H 0.84279 0.87704 0.9916 0.0
H484 H 0.72123 0.78809 0.05537 0.0
Cu485 Cu 0.31194 0.80708 1.00274 0.0
N486 N 0.31543 0.83178 0.03344 0.0
N487 N 0.30295 0.84905 0.07368 0.0
C488 C 0.29958 0.8273 0.05588 0.0
C489 C 0.32173 0.86817 0.06218 0.0
C490 C 0.32978 0.85724 0.03746 0.0
O491 O 0.29931 0.77181 0.02117 0.0
C492 C 0.28637 0.84427 0.96289 0.0
O493 O 0.30689 0.86172 0.97515 0.0
H494 H 0.28462 0.80898 0.05827 0.0
H495 H 0.3442 0.86757 0.02293 0.0
N496 N 0.34596 0.80373 0.98724 0.0
N497 N 0.37425 0.78576 0.95888 0.0
C498 C 0.34742 0.791 0.96214 0.0
C499 C 0.37286 0.80748 1.00014 0.0
C500 C 0.39039 0.79649 0.98267 0.0
C501 C 0.30792 0.74824 1.01746 0.0
O502 O 0.32081 0.74474 0.99442 0.0
H503 H 0.32866 0.78338 0.94803 0.0
H504 H 0.37902 0.81596 0.02153 0.0
O505 O 0.28431 0.81874 0.97162 0.0
H506 H 0.32866 0.88865 0.0707 0.0
H507 H 0.41305 0.7954 0.98788 0.0
Cu508 Cu 1.01931 0.24573 0.32485 0.0
N509 N 0.0469 0.22032 0.33106 0.0
N510 N 0.0843 0.20168 0.317 0.0
C511 C 0.07199 0.22533 0.31976 0.0
C512 C 0.06652 0.18097 0.32778 0.0
C513 C 0.04344 0.19252 0.33635 0.0
O514 O 0.0406 0.28202 0.32218 0.0
C515 C 1.00119 0.22156 0.26945 0.0
O516 O 0.02705 0.21414 0.26999 0.0
H517 H 0.07916 0.24545 0.31023 0.0
H518 H 0.02424 0.18116 0.34299 0.0
N519 N 0.99423 0.24723 0.3532 0.0
N520 N 0.96077 0.26674 0.37356 0.0
C521 C 0.98277 0.27098 0.35735 0.0
C522 C 0.97858 0.22689 0.367 0.0
C523 C 0.95785 0.23892 0.37963 0.0
C524 C 0.05075 0.29273 0.34636 0.0
O525 O 0.04533 0.27942 0.37093 0.0
H526 H 0.98908 0.29078 0.34664 0.0
H527 H 0.9808 0.20479 0.36628 0.0
O528 O 0.99508 0.23648 0.28945 0.0
H529 H 0.06894 0.15886 0.32754 0.0
H530 H 0.94128 0.22796 0.39126 0.0
Cu531 Cu 0.81202 1.0125 0.2658 0.0
N532 N 0.84311 0.04001 0.26536 0.0
N533 N 0.86713 0.07922 0.24967 0.0
C534 C 0.8423 0.06279 0.24726 0.0
C535 C 0.88446 0.06634 0.27011 0.0
C536 C 0.86943 0.04222 0.28005 0.0
O537 O 0.77858 0.03377 0.26234 0.0
C538 C 0.83947 0.97427 0.24118 0.0
O539 O 0.85755 0.98263 0.26354 0.0
H540 H 0.82391 0.06694 0.23211 0.0
H541 H 0.87726 0.02727 0.29652 0.0
N542 N 0.8092 0.99105 0.30041 0.0
N543 N 0.78482 0.95979 0.32785 0.0
C544 C 0.79088 0.96775 0.30069 0.0
C545 C 0.81547 0.9979 0.32859 0.0
C546 C 0.80021 0.97869 0.34559 0.0
C547 C 0.78101 0.05219 0.28187 0.0
O548 O 0.80423 0.05477 0.30036 0.0
H549 H 0.77967 0.95869 0.281 0.0
H550 H 0.82804 1.0168 0.33601 0.0
O551 O 0.81584 0.98515 0.23642 0.0
H552 H 0.90628 0.07389 0.2774 0.0
H553 H 0.799 0.97965 0.36882 0.0
Cu554 Cu 0.06668 0.74411 0.27751 0.0
N555 N 0.04606 0.77535 0.27789 0.0
N556 N 1.01273 0.80328 0.25962 0.0
C557 C 1.02219 0.77784 0.25928 0.0
C558 C 0.03145 0.8175 0.27934 0.0
C559 C 0.05197 0.8002 0.29063 0.0
O560 O 0.03456 0.71464 0.27215 0.0
C561 C 0.11136 0.77317 0.25397 0.0
O562 O 0.11283 0.78299 0.28027 0.0
H563 H 1.01288 0.76177 0.24441 0.0
H564 H 0.07042 0.80576 0.30607 0.0
N565 N 0.09198 0.7359 0.31127 0.0
N566 N 0.12996 0.71904 0.33764 0.0
C567 C 0.11598 0.72311 0.31068 0.0
C568 C 0.09077 0.74022 0.33974 0.0
C569 C 0.114 0.72968 0.35602 0.0
C570 C 0.02684 0.69901 0.29364 0.0
O571 O 0.04594 0.69425 0.31578 0.0
H572 H 0.1228 0.71647 0.29072 0.0
H573 H 0.07404 0.75003 0.34811 0.0
O574 O 0.09134 0.75411 0.24627 0.0
H575 H 0.03066 0.83902 0.28484 0.0
H576 H 0.11886 0.73006 0.37954 0.0
Cu577 Cu 0.31014 0.0361 0.25737 0.0
N578 N 0.34228 0.06223 0.25866 0.0
N579 N 0.36629 0.09916 0.28132 0.0
C580 C 0.35537 0.07223 0.28419 0.0
C581 C 0.36109 0.10593 0.25259 0.0
C582 C 0.34633 0.08315 0.23868 0.0
O583 O 0.27827 0.05958 0.25433 0.0
C584 C 0.30052 0.98912 0.2984 0.0
O585 O 0.27407 0.98605 0.28607 0.0
H586 H 0.35234 0.06182 0.30511 0.0
H587 H 0.33567 0.08334 0.21664 0.0
N588 N 0.30463 1.01479 0.22366 0.0
N589 N 0.28679 0.97845 0.19606 0.0
C590 C 0.2982 0.98678 0.22287 0.0
C591 C 0.2976 0.02442 0.19617 0.0
C592 C 0.2866 1.00212 0.17913 0.0
C593 C 0.28063 0.08276 0.26726 0.0
O594 O 0.3003 0.08698 0.28947 0.0
H595 H 0.29934 0.97299 0.24205 0.0
H596 H 0.29803 0.04633 0.18957 0.0
O597 O 0.31692 1.01031 0.29109 0.0
H598 H 0.36494 0.12672 0.2429 0.0
H599 H 0.27751 1.00345 0.15652 0.0
Cu600 Cu 0.04579 0.78228 0.78379 0.0
N601 N 0.07032 0.75383 0.78751 0.0
N602 N 0.1047 0.72968 0.77475 0.0
C603 C 0.09329 0.75439 0.77271 0.0
C604 C 0.08823 0.71289 0.79171 0.0
C605 C 0.06705 0.72783 0.79953 0.0
O606 O 0.07031 0.81598 0.77619 0.0
C607 C 0.99752 0.75346 0.75665 0.0
O608 O 0.99775 0.74157 0.78292 0.0
H609 H 0.10037 0.77212 0.75912 0.0
H610 H 0.04974 0.71989 0.81189 0.0
N611 N 0.027 0.78724 0.81676 0.0
N612 N 0.99462 0.80331 0.84189 0.0
C613 C 1.00144 0.79745 0.81532 0.0
C614 C 0.03677 0.78647 0.84535 0.0
C615 C 1.01688 0.79642 0.8609 0.0
C616 C 0.06885 0.83969 0.78674 0.0
O617 O 0.0462 0.84402 0.79906 0.0
H618 H 0.98902 0.80234 0.79485 0.0
H619 H 0.05747 0.78047 0.85412 0.0
O620 O 1.01704 0.77269 0.75159 0.0
H621 H 0.09081 0.69116 0.79744 0.0
H622 H 1.01909 0.7992 0.88425 0.0
Cu623 Cu 0.34126 0.03997 0.80558 0.0
N624 N 0.37122 0.06836 0.80458 0.0
N625 N 0.39475 0.10603 0.78507 0.0
C626 C 0.37772 0.08215 0.7798 0.0
C627 C 0.39967 0.10697 0.81449 0.0
C628 C 0.38513 0.08365 0.82648 0.0
O629 O 0.30645 0.0576 0.80838 0.0
C630 C 0.36639 1.00704 0.77071 0.0
O631 O 0.38866 0.01863 0.787 0.0
H632 H 0.36749 0.07631 0.75842 0.0
H633 H 0.38306 0.0794 0.84941 0.0
N634 N 0.34332 0.01761 0.83948 0.0
N635 N 0.31796 0.98442 0.86375 0.0
C636 C 0.32928 0.99184 0.83871 0.0
C637 C 0.34171 0.02651 0.86644 0.0
C638 C 0.32603 1.00607 0.88145 0.0
C639 C 0.30376 0.08342 0.80258 0.0
O640 O 0.32109 0.09774 0.78592 0.0
H641 H 0.32266 0.98123 0.81846 0.0
H642 H 0.34699 0.04792 0.87289 0.0
O643 O 0.34185 1.01432 0.7738 0.0
H644 H 0.41142 0.1241 0.82649 0.0
H645 H 0.31792 1.00853 0.90208 0.0
Cu646 Cu 0.0705 0.25795 0.80257 0.0
N647 N 0.04971 0.28912 0.80077 0.0
N648 N 1.01826 0.31769 0.77981 0.0
C649 C 0.02617 0.29149 0.78168 0.0
C650 C 0.03745 0.3324 0.79865 0.0
C651 C 0.05679 0.3147 0.81163 0.0
O652 O 0.03981 0.22753 0.79556 0.0
C653 C 0.11713 0.2858 0.78038 0.0
O654 O 0.11842 0.29641 0.80629 0.0
H655 H 1.01628 0.27482 0.76781 0.0
H656 H 0.07552 0.32048 0.82661 0.0
N657 N 0.09281 0.2518 0.83872 0.0
N658 N 0.12935 0.23837 0.86986 0.0
C659 C 0.1187 0.24207 0.84159 0.0
C660 C 0.0868 0.25426 0.86628 0.0
C661 C 0.10921 0.24578 0.88553 0.0
C662 C 0.03369 0.20867 0.81489 0.0
O663 O 0.05349 0.2029 0.83599 0.0
H664 H 0.12929 0.23717 0.82317 0.0
H665 H 0.06727 0.2612 0.87198 0.0
O666 O 0.09699 0.26685 0.77287 0.0
H667 H 0.03799 0.35457 0.80208 0.0
H668 H 0.11059 0.24516 0.90916 0.0
Cu669 Cu 0.81218 0.04393 0.7379 0.0
N670 N 0.81543 0.06278 0.77274 0.0
N671 N 0.83679 0.09328 0.8055 0.0
C672 C 0.83613 0.08376 0.77841 0.0
C673 C 0.81543 0.07766 0.81743 0.0
C674 C 0.80218 0.05884 0.79707 0.0
O675 O 0.81224 0.0759 0.70956 0.0
C676 C 0.83938 1.00186 0.7656 0.0
O677 O 0.81646 1.00198 0.77894 0.0
H678 H 0.85107 0.09127 0.7631 0.0
H679 H 0.78467 0.0431 0.80002 0.0
N680 N 0.77889 0.01967 0.72991 0.0
N681 N 0.75088 0.98329 0.71048 0.0
C682 C 0.77769 0.9958 0.71536 0.0
C683 C 0.75192 0.02237 0.73464 0.0
C684 C 0.73457 0.99996 0.7226 0.0
C685 C 0.79045 0.08031 0.69154 0.0
O686 O 0.77247 0.0589 0.68297 0.0
H687 H 0.79611 0.98815 0.70785 0.0
H688 H 0.74531 0.03964 0.7455 0.0
O689 O 0.84323 0.01952 0.7444 0.0
H690 H 0.80974 0.07969 0.83924 0.0
H691 H 0.71175 0.99618 0.72291 0.0
Cu692 Cu 0.32333 0.76493 0.54276 0.0
N693 N 0.35516 0.77086 0.57087 0.0
N694 N 0.38019 0.79027 0.61044 0.0
C695 C 0.35484 0.78722 0.59375 0.0
C696 C 0.39732 0.77514 0.59749 0.0
C697 C 0.38173 0.76297 0.57318 0.0
O698 O 0.291 0.76075 0.56604 0.0
C699 C 0.34774 0.79681 0.49931 0.0
O700 O 0.36845 0.78168 0.50931 0.0
H701 H 0.33644 0.79749 0.5975 0.0
H702 H 0.3894 0.74983 0.55801 0.0
N703 N 0.31996 0.73271 0.52093 0.0
N704 N 0.2993 0.70403 0.48614 0.0
C705 C 0.30168 0.73003 0.49632 0.0
C706 C 0.32997 0.70758 0.52627 0.0
C707 C 0.31703 0.68973 0.50487 0.0
C708 C 0.29024 0.73844 0.5823 0.0
O709 O 0.30981 0.72129 0.58133 0.0
H710 H 0.28934 0.74655 0.4868 0.0
H711 H 0.34469 0.7023 0.54493 0.0
O712 O 0.32517 0.79466 0.51229 0.0
H713 H 0.41948 0.77309 0.60498 0.0
H714 H 0.32017 0.6679 0.50332 0.0
Cu715 Cu 0.80101 0.81333 0.49488 0.0
N716 N 0.83003 0.81602 0.47005 0.0
N717 N 0.85639 0.80026 0.4381 0.0
C718 C 0.83624 0.79364 0.45634 0.0
C719 C 0.86304 0.82816 0.4403 0.0
C720 C 0.84677 0.83783 0.46007 0.0
O721 O 0.76583 0.81493 0.46884 0.0
C722 C 0.83049 0.7776 0.52988 0.0
O723 O 0.84974 0.79845 0.52513 0.0
H724 H 0.82542 0.77292 0.45917 0.0
H725 H 0.84681 0.85924 0.46627 0.0
N726 N 0.80227 0.84079 0.52308 0.0
N727 N 0.78837 0.85933 0.56224 0.0
C728 C 0.78904 0.83589 0.54745 0.0
C729 C 0.81072 0.86844 0.52268 0.0
C730 C 0.80187 0.87998 0.54668 0.0
C731 C 0.76316 0.83886 0.45631 0.0
O732 O 0.78311 0.85936 0.46248 0.0
H733 H 0.7785 0.81568 0.55328 0.0
H734 H 0.82126 0.87971 0.50548 0.0
O735 O 0.80502 0.77879 0.51797 0.0
H736 H 0.87852 0.84072 0.4285 0.0
H737 H 0.80452 0.90188 0.55188 0.0
Cu738 Cu 0.82114 0.26261 0.534 0.0
N739 N 0.8159 0.23114 0.51077 0.0
N740 N 0.79418 0.20322 0.47557 0.0
C741 C 0.79716 0.22908 0.48641 0.0
C742 C 0.812 0.18847 0.49376 0.0
C743 C 0.82541 0.20575 0.51543 0.0
O744 O 0.82242 0.29443 0.50532 0.0
C745 C 0.79513 0.23735 0.57954 0.0
O746 O 0.81725 0.22325 0.57879 0.0
H747 H 0.78495 0.24595 0.47759 0.0
H748 H 0.84028 0.19996 0.53375 0.0
N749 N 0.85495 0.26689 0.5601 0.0
N750 N 0.88287 0.2827 0.59978 0.0
C751 C 0.85682 0.28176 0.58444 0.0
C752 C 0.88087 0.25787 0.56005 0.0
C753 C 0.89827 0.26791 0.5844 0.0
C754 C 0.84459 0.2965 0.4917 0.0
O755 O 0.86361 0.2787 0.49882 0.0
H756 H 0.83936 0.2922 0.59052 0.0
H757 H 0.88681 0.24515 0.54345 0.0
O758 O 0.79091 0.257 0.56025 0.0
H759 H 0.81496 0.16666 0.49171 0.0
H760 H 0.92038 0.26446 0.59039 0.0
Cu761 Cu 0.30875 0.3122 0.53119 0.0
N762 N 0.31043 0.3421 0.55666 0.0
N763 N 0.29734 0.36442 0.59391 0.0
C764 C 0.29906 0.33947 0.58232 0.0
C765 C 0.30811 0.38367 0.57488 0.0
C766 C 0.31639 0.36986 0.55205 0.0
O767 O 0.30159 0.27968 0.55688 0.0
C768 C 0.28427 0.33797 0.48089 0.0
O769 O 0.30825 0.3542 0.4852 0.0
H770 H 0.29011 0.31973 0.59123 0.0
H771 H 0.32468 0.37958 0.53278 0.0
N772 N 0.34241 0.3077 0.51502 0.0
N773 N 0.36906 0.28543 0.48825 0.0
C774 C 0.343 0.29346 0.49055 0.0
C775 C 0.36919 0.30931 0.52843 0.0
C776 C 0.38568 0.29569 0.51195 0.0
C777 C 0.31284 0.25692 0.55587 0.0
O778 O 0.32127 0.25018 0.53123 0.0
H779 H 0.32395 0.28641 0.47652 0.0
H780 H 0.37568 0.3176 0.54986 0.0
O781 O 0.27947 0.31737 0.49871 0.0
H782 H 0.30893 0.40609 0.57678 0.0
H783 H 0.40779 0.29224 0.51789 0.0
Cu784 Cu 0.84467 0.53339 0.77611 0.0
N785 N 0.87344 0.5622 0.77186 0.0
N786 N 0.89149 0.60255 0.7523 0.0
C787 C 0.868 0.58481 0.75481 0.0
C788 C 0.91283 0.59055 0.76857 0.0
C789 C 0.90153 0.56558 0.78086 0.0
O790 O 0.81118 0.55242 0.78131 0.0
C791 C 0.86224 0.50626 0.72892 0.0
O792 O 0.88189 0.52755 0.72892 0.0
H793 H 0.8472 0.58743 0.7433 0.0
H794 H 0.91304 0.55063 0.79449 0.0
N795 N 0.84923 0.51012 0.80927 0.0
N796 N 0.82803 0.47889 0.83912 0.0
C797 C 0.82958 0.48823 0.81136 0.0
C798 C 0.86151 0.51446 0.83672 0.0
C799 C 0.84821 0.49522 0.85532 0.0
C800 C 0.8154 0.5671 0.80411 0.0
O801 O 0.84045 0.56847 0.8196 0.0
H802 H 0.8139 0.48196 0.79327 0.0
H803 H 0.87651 0.53218 0.84317 0.0
O804 O 0.8417 0.5072 0.74429 0.0
H805 H 0.93497 0.59896 0.77107 0.0
H806 H 0.85138 0.49492 0.87897 0.0
Cu807 Cu 0.32888 0.53473 0.75509 0.0
N808 N 0.3575 0.51026 0.75819 0.0
N809 N 0.37946 0.47403 0.77902 0.0
C810 C 0.35657 0.48858 0.77777 0.0
C811 C 0.39562 0.48711 0.7592 0.0
C812 C 0.38187 0.50938 0.74615 0.0
O813 O 0.29464 0.50792 0.75204 0.0
C814 C 0.36288 0.57055 0.79247 0.0
O815 O 0.38169 0.56266 0.77669 0.0
H816 H 0.33968 0.48419 0.79169 0.0
H817 H 0.38947 0.52423 0.72977 0.0
N818 N 0.32505 0.56118 0.72374 0.0
N819 N 0.3061 0.59823 0.70083 0.0
C820 C 0.3115 0.58408 0.72646 0.0
C821 C 0.32883 0.5611 0.69521 0.0
C822 C 0.31674 0.58378 0.68093 0.0
C823 C 0.2902 0.49516 0.72791 0.0
O824 O 0.30637 0.50301 0.70722 0.0
H825 H 0.30388 0.58919 0.74661 0.0
H826 H 0.33821 0.54496 0.68515 0.0
O827 O 0.33722 0.55912 0.7886 0.0
H828 H 0.41592 0.48111 0.75457 0.0
H829 H 0.31502 0.58871 0.65768 0.0
Cu830 Cu 0.3316 0.49889 0.27536 0.0
N831 N 0.30124 0.47096 0.27452 0.0
N832 N 0.27123 0.43854 0.29413 0.0
C833 C 0.28754 0.46301 0.29794 0.0
C834 C 0.27458 0.43089 0.26701 0.0
C835 C 0.29326 0.4509 0.255 0.0
O836 O 0.36584 0.47891 0.2805 0.0
C837 C 0.29973 0.53511 0.29762 0.0
O838 O 0.28247 0.52464 0.27559 0.0
H839 H 0.29129 0.47393 0.31825 0.0
H840 H 0.30173 0.44997 0.23434 0.0
N841 N 0.33333 0.51895 0.24004 0.0
N842 N 0.34527 0.55508 0.21019 0.0
C843 C 0.34113 0.54662 0.2378 0.0
C844 C 0.33249 0.50945 0.21296 0.0
C845 C 0.33971 0.53176 0.19442 0.0
C846 C 0.36585 0.45466 0.29301 0.0
O847 O 0.34677 0.44691 0.311 0.0
H848 H 0.34507 0.56 0.25637 0.0
H849 H 0.32811 0.48775 0.20731 0.0
O850 O 0.32448 0.52648 0.3031 0.0
H851 H 0.2649 0.41185 0.25687 0.0
H852 H 0.34106 0.53078 0.17122 0.0
Cu853 Cu 0.81022 0.54791 0.24557 0.0
N854 N 0.83775 0.52239 0.24725 0.0
N855 N 0.85725 0.48478 0.26843 0.0
C856 C 0.83449 0.49961 0.26519 0.0
C857 C 0.8759 0.4989 0.25164 0.0
C858 C 0.86379 0.52214 0.23852 0.0
O859 O 0.77605 0.52094 0.24477 0.0
C860 C 0.84573 0.58875 0.27203 0.0
O861 O 0.85635 0.5849 0.24763 0.0
H862 H 0.81624 0.49503 0.27726 0.0
H863 H 0.87379 0.53821 0.22482 0.0
N864 N 0.80329 0.57402 0.2142 0.0
N865 N 0.78301 0.61134 0.19341 0.0
C866 C 0.78835 0.59565 0.21807 0.0
C867 C 0.808 0.57625 0.18585 0.0
C868 C 0.79515 0.59912 0.17288 0.0
C869 C 0.77053 0.50904 0.22014 0.0
O870 O 0.78459 0.51898 0.19844 0.0
H871 H 0.78055 0.5992 0.23861 0.0
H872 H 0.81916 0.56189 0.17517 0.0
O873 O 0.82368 0.57279 0.27807 0.0
H874 H 0.89703 0.4933 0.24953 0.0
H875 H 0.7946 0.60607 0.15016 0.0
Cu876 Cu 0.55809 0.27373 0.80577 0.0
N877 N 0.54074 0.2708 0.84078 0.0
N878 N 0.5092 0.28058 0.87075 0.0
C879 C 0.51387 0.27681 0.84284 0.0
C880 C 0.53412 0.27657 0.88693 0.0
C881 C 0.55344 0.27044 0.86845 0.0
O882 O 0.52721 0.26934 0.77405 0.0
C883 C 0.57823 0.33052 0.81925 0.0
O884 O 0.5555 0.33034 0.83298 0.0
H885 H 0.49896 0.28118 0.82397 0.0
H886 H 0.57581 0.26827 0.8745 0.0
N887 N 0.58369 0.24685 0.80212 0.0
N888 N 0.6168 0.22548 0.78298 0.0
C889 C 0.60352 0.24903 0.78308 0.0
C890 C 0.5848 0.22114 0.81481 0.0
C891 C 0.605 0.20785 0.80288 0.0
C892 C 0.51573 0.24455 0.76944 0.0
O893 O 0.52582 0.22365 0.78527 0.0
H894 H 0.60734 0.26715 0.76872 0.0
H895 H 0.57122 0.21232 0.83088 0.0
O896 O 0.5813 0.30954 0.80447 0.0
H897 H 0.53857 0.27951 0.91021 0.0
H898 H 0.61044 0.18677 0.80825 0.0
Cu899 Cu 0.56606 0.75234 0.78331 0.0
N900 N 0.59149 0.74621 0.81707 0.0
N901 N 0.63031 0.7333 0.8448 0.0
C902 C 0.61629 0.73476 0.81759 0.0
C903 C 0.61343 0.74389 0.86223 0.0
C904 C 0.58958 0.75199 0.84504 0.0
O905 O 0.58834 0.75844 0.74983 0.0
C906 C 0.53101 0.70322 0.79951 0.0
O907 O 0.55338 0.69747 0.81744 0.0
H908 H 0.62383 0.7275 0.79829 0.0
H909 H 0.5721 0.76145 0.85238 0.0
N910 N 0.54861 0.78518 0.78467 0.0
N911 N 0.51802 0.81687 0.7707 0.0
C912 C 0.52359 0.79007 0.76923 0.0
C913 C 0.55915 0.80963 0.79656 0.0
C914 C 0.54032 0.82925 0.78793 0.0
C915 C 0.61073 0.77558 0.75411 0.0
O916 O 0.61707 0.78681 0.77976 0.0
H917 H 0.51049 0.77465 0.75591 0.0
H918 H 0.57954 0.8132 0.80961 0.0
O919 O 0.53379 0.72318 0.7805 0.0
H920 H 0.61819 0.74605 0.88561 0.0
H921 H 0.54306 0.85107 0.79347 0.0
Cu922 Cu 0.50464 0.76657 0.28164 0.0
N923 N 0.48774 0.77071 0.31626 0.0
N924 N 0.45899 0.78827 0.34486 0.0
C925 C 0.46261 0.78139 0.31744 0.0
C926 C 0.48264 0.78128 0.36161 0.0
C927 C 0.50022 0.77043 0.34401 0.0
O928 O 0.47414 0.75305 0.2517 0.0
C929 C 0.52886 0.82327 0.28764 0.0
O930 O 0.50986 0.82611 0.30552 0.0
H931 H 0.44846 0.78635 0.29817 0.0
H932 H 0.52149 0.76466 0.35065 0.0
N933 N 0.53405 0.74257 0.28453 0.0
N934 N 0.57243 0.72476 0.27132 0.0
C935 C 0.55538 0.74573 0.26721 0.0
C936 C 0.53802 0.71886 0.30053 0.0
C937 C 0.5615 0.70769 0.29221 0.0
C938 C 0.46838 0.72692 0.24736 0.0
O939 O 0.48405 0.70898 0.26207 0.0
H940 H 0.55769 0.76259 0.25101 0.0
H941 H 0.5243 0.70984 0.31639 0.0
O942 O 0.52566 0.80209 0.27155 0.0
H943 H 0.48752 0.78494 0.38473 0.0
H944 H 0.56977 0.68844 0.30071 0.0
Cu945 Cu 0.57531 0.23545 0.29137 0.0
N946 N 0.55237 0.20259 0.29863 0.0
N947 N 0.51559 0.17869 0.3174 0.0
C948 C 0.52657 0.20363 0.30738 0.0
C949 C 0.53537 0.16093 0.31531 0.0
C950 C 0.55812 0.17578 0.30332 0.0
O951 O 0.54957 0.26497 0.2825 0.0
C952 C 0.61113 0.22336 0.34432 0.0
O953 O 0.58935 0.2075 0.35318 0.0
H954 H 0.51697 0.22289 0.30881 0.0
H955 H 0.57821 0.16814 0.30045 0.0
N956 N 0.59488 0.23576 0.25891 0.0
N957 N 0.62516 0.25887 0.2306 0.0
C958 C 0.61787 0.2543 0.25783 0.0
C959 C 0.58732 0.22769 0.23129 0.0
C960 C 0.60609 0.24203 0.21367 0.0
C961 C 0.52912 0.2596 0.26224 0.0
O962 O 0.52688 0.23557 0.24936 0.0
H963 H 0.62688 0.26679 0.27621 0.0
H964 H 0.56821 0.21447 0.22406 0.0
O965 O 0.60674 0.24076 0.32291 0.0
H966 H 0.53401 0.13929 0.32307 0.0
H967 H 0.6046 0.24154 0.19008 0.0
C968 C 0.25287 0.21107 0.19476 0.0
C969 C 0.22324 0.20366 0.19193 0.0
H970 H 0.28888 0.23083 0.17446 0.0
C971 C 0.20759 0.20902 0.16475 0.0
H972 H 0.26549 0.2076 0.21545 0.0
C973 C 0.22072 0.22298 0.14169 0.0
C974 C 0.25012 0.23147 0.14476 0.0
H975 H 0.18486 0.20315 0.16166 0.0
H976 H 0.20775 0.22735 0.12141 0.0
C977 C 0.2662 0.22461 0.17135 0.0
C978 C 0.86172 0.23026 0.09693 0.0
C979 C 0.87089 0.2335 0.12665 0.0
H980 H 0.84638 0.25013 0.05647 0.0
C981 C 0.87029 0.25955 0.13898 0.0
H982 H 0.86246 0.2104 0.08705 0.0
C983 C 0.86184 0.28243 0.1216 0.0
C984 C 0.85337 0.27951 0.09161 0.0
H985 H 0.87737 0.26233 0.16196 0.0
H986 H 0.86221 0.30244 0.13157 0.0
C987 C 0.8528 0.25303 0.07955 0.0
C988 C 0.91364 0.82934 0.1331 0.0
C989 C 0.89581 0.82286 0.15518 0.0
H990 H 0.92039 0.82384 0.08861 0.0
C991 C 0.8733 0.80159 0.15051 0.0
H992 H 0.93075 0.84605 0.13598 0.0
C993 C 0.86714 0.78885 0.1234 0.0
C994 C 0.88321 0.79737 0.10016 0.0
H995 H 0.85895 0.79665 0.16704 0.0
H996 H 0.84833 0.77409 0.11997 0.0
C997 C 0.90742 0.81677 0.10587 0.0
C998 C 0.25093 0.87462 0.11873 0.0
C999 C 0.24831 0.85271 0.13983 0.0
H1000 H 0.27118 0.89088 0.08125 0.0
C1001 C 0.26605 0.83104 0.14039 0.0
H1002 H 0.23721 0.89131 0.11751 0.0
C1003 C 0.28471 0.83035 0.11917 0.0
C1004 C 0.28673 0.85183 0.09762 0.0
H1005 H 0.26495 0.81427 0.15682 0.0
H1006 H 0.29728 0.81282 0.1192 0.0
C1007 C 0.27023 0.87435 0.09799 0.0
C1008 C 0.24103 0.89234 0.91573 0.0
C1009 C 0.22983 0.87523 0.8925 0.0
H1010 H 0.26808 0.89591 0.95615 0.0
C1011 C 0.23683 0.84755 0.89284 0.0
H1012 H 0.23546 0.91355 0.91618 0.0
C1013 C 0.25462 0.83709 0.91619 0.0
C1014 C 0.2663 0.85446 0.93907 0.0
H1015 H 0.22879 0.83416 0.87488 0.0
H1016 H 0.25989 0.81573 0.91595 0.0
C1017 C 0.25945 0.88218 0.93862 0.0
C1018 C 0.26725 0.17808 0.96862 0.0
C1019 C 0.25778 0.19197 0.94215 0.0
H1020 H 0.28663 0.18188 1.01315 0.0
C1021 C 0.25994 0.22127 0.94121 0.0
H1022 H 0.2656 0.15546 0.97011 0.0
C1023 C 0.27146 0.23627 0.96589 0.0
C1024 C 0.2817 0.22248 0.99211 0.0
H1025 H 0.25362 0.23266 0.92111 0.0
H1026 H 0.27289 0.25891 0.96419 0.0
C1027 C 0.27944 0.19314 0.99322 0.0
C1028 C 0.88646 0.23448 0.93293 0.0
C1029 C 0.89611 0.24359 0.90606 0.0
H1030 H 0.87117 0.2461 0.97224 0.0
C1031 C 0.8979 0.27225 0.89838 0.0
H1032 H 0.88522 0.21252 0.93947 0.0
C1033 C 0.89038 0.29145 0.91728 0.0
C1034 C 0.88046 0.28234 0.94404 0.0
H1035 H 0.90478 0.27971 0.87758 0.0
H1036 H 0.89179 0.31341 0.91069 0.0
C1037 C 0.87845 0.25364 0.95163 0.0
C1038 C 0.87409 0.84238 0.89763 0.0
C1039 C 0.88805 0.86958 0.89649 0.0
H1040 H 0.85123 0.81105 0.92317 0.0
C1041 C 0.89228 0.88498 0.92204 0.0
H1042 H 0.87025 0.83024 0.87811 0.0
C1043 C 0.88116 0.87432 0.9476 0.0
C1044 C 0.86563 0.84779 0.94843 0.0
H1045 H 0.90304 0.90596 0.92172 0.0
H1046 H 0.88417 0.8872 0.96656 0.0
C1047 C 0.86306 0.83153 0.92338 0.0
C1048 C 0.12979 0.1732 0.26591 0.0
C1049 C 0.15221 0.19458 0.26499 0.0
H1050 H 0.09078 0.15851 0.28319 0.0
C1051 C 0.15217 0.21823 0.28172 0.0
H1052 H 0.12951 0.15469 0.25335 0.0
C1053 C 0.12999 0.22052 0.29885 0.0
C1054 C 0.10764 0.19895 0.30005 0.0
H1055 H 0.16962 0.23464 0.28197 0.0
H1056 H 0.13054 0.23896 0.31158 0.0
C1057 C 0.10784 0.17528 0.28328 0.0
C1058 C 0.90428 0.13309 0.20196 0.0
C1059 C 0.88397 0.1525 0.19612 0.0
H1060 H 0.91497 0.09461 0.22407 0.0
C1061 C 0.85879 0.14815 0.20968 0.0
H1062 H 0.92387 0.13595 0.19184 0.0
C1063 C 0.85342 0.12422 0.22743 0.0
C1064 C 0.87353 0.10461 0.23283 0.0
H1065 H 0.84328 0.16326 0.20666 0.0
H1066 H 0.83362 0.12105 0.23717 0.0
C1067 C 0.89924 0.10951 0.22036 0.0
C1068 C 0.9669 0.85182 0.21392 0.0
C1069 C 0.94069 0.83526 0.20911 0.0
H1070 H 1.01004 0.85491 0.23428 0.0
C1071 C 0.93931 0.80708 0.21883 0.0
H1072 H 0.96856 0.87357 0.20654 0.0
C1073 C 0.96325 0.79625 0.23457 0.0
C1074 C 0.98884 0.81355 0.24126 0.0
H1075 H 0.9193 0.794 0.2158 0.0
H1076 H 0.96133 0.77476 0.2428 0.0
C1077 C 0.99052 0.84125 0.23009 0.0
C1078 C 0.2663 0.90067 0.19803 0.0
C1079 C 0.2405 0.89869 0.17974 0.0
H1080 H 0.30146 0.92787 0.21756 0.0
C1081 C 0.23078 0.92298 0.16582 0.0
H1082 H 0.27392 0.88208 0.20911 0.0
C1083 C 0.24656 0.949 0.17021 0.0
C1084 C 0.27211 0.95129 0.18916 0.0
H1085 H 0.21073 0.92177 0.1519 0.0
H1086 H 0.23813 0.96745 0.15971 0.0
C1087 C 0.2819 0.92677 0.20287 0.0
C1088 C 0.12305 0.89353 0.82359 0.0
C1089 C 0.14834 0.88413 0.81678 0.0
H1090 H 0.07751 0.8871 0.81878 0.0
C1091 C 0.14719 0.86378 0.79585 0.0
H1092 H 0.12375 0.90905 0.84 0.0
C1093 C 0.12097 0.85118 0.78363 0.0
C1094 C 0.09546 0.85851 0.79257 0.0
H1095 H 0.16664 0.85622 0.79066 0.0
H1096 H 0.12084 0.83419 0.76898 0.0
C1097 C 0.09672 0.88086 0.8115 0.0
C1098 C 0.26945 0.14265 0.83148 0.0
C1099 C 0.26235 0.13133 0.8586 0.0
H1100 H 0.28777 0.13627 0.79227 0.0
C1101 C 0.26657 0.10335 0.86609 0.0
H1102 H 0.26644 0.16424 0.82538 0.0
C1103 C 0.27837 0.08711 0.84702 0.0
C1104 C 0.28656 0.09874 0.82026 0.0
H1105 H 0.26113 0.09428 0.8869 0.0
H1106 H 0.28223 0.06585 0.85385 0.0
C1107 C 0.28156 0.12659 0.81257 0.0
C1108 C 0.96919 0.17886 0.85154 0.0
C1109 C 0.94866 0.19611 0.83901 0.0
H1110 H 1.01232 0.16892 0.8534 0.0
C1111 C 0.95461 0.21337 0.81462 0.0
H1112 H 0.96521 0.16584 0.87073 0.0
C1113 C 0.98151 0.21527 0.80457 0.0
C1114 C 1.00323 0.20026 0.81911 0.0
H1115 H 0.93923 0.22723 0.80502 0.0
H1116 H 0.98597 0.23038 0.78712 0.0
C1117 C 0.99623 0.18091 0.84172 0.0
C1118 C 0.86914 0.933 0.7829 0.0
C1119 C 0.88248 0.93732 0.81144 0.0
H1120 H 0.84545 0.95083 0.74517 0.0
C1121 C 0.88613 0.96454 0.82192 0.0
H1122 H 0.8659 0.91214 0.77446 0.0
C1123 C 0.87484 0.98663 0.8051 0.0
C1124 C 0.85993 0.98203 0.77731 0.0
H1125 H 0.89647 0.96838 0.84376 0.0
H1126 H 0.87597 1.00691 0.81469 0.0
C1127 C 0.8578 0.95516 0.76603 0.0
C1128 C 0.22523 0.12526 0.22417 0.0
C1129 C 0.23372 0.15227 0.23445 0.0
H1130 H 0.23308 0.08192 0.22653 0.0
C1131 C 0.25888 0.15649 0.25352 0.0
H1132 H 0.20533 0.12135 0.21028 0.0
C1133 C 0.27416 0.13395 0.26369 0.0
C1134 C 0.26474 0.10655 0.2549 0.0
H1135 H 0.26524 0.17684 0.26261 0.0
H1136 H 0.29289 0.13795 0.27927 0.0
C1137 C 0.24072 0.10264 0.23406 0.0
C1138 C 0.26836 0.91926 0.85257 0.0
C1139 C 0.24251 0.92859 0.85793 0.0
H1140 H 0.3131 0.93017 0.85038 0.0
C1141 C 0.24222 0.95574 0.86756 0.0
H1142 H 0.26883 0.89828 0.84522 0.0
C1143 C 0.26745 0.97357 0.87134 0.0
C1144 C 0.29327 0.96462 0.86506 0.0
H1145 H 0.22242 0.96308 0.87199 0.0
H1146 H 0.26659 0.99478 0.87784 0.0
C1147 C 0.29352 0.93727 0.85577 0.0
C1148 C 0.18325 0.19494 0.91188 0.0
C1149 C 0.20628 0.20026 0.8952 0.0
H1150 H 0.1404 0.20311 0.91689 0.0
C1151 C 0.20482 0.22089 0.87262 0.0
H1152 H 0.18365 0.1787 0.92895 0.0
C1153 C 0.18004 0.23424 0.86519 0.0
C1154 C 0.15616 0.2276 0.88046 0.0
H1155 H 0.22218 0.22507 0.85926 0.0
H1156 H 0.17913 0.249 0.84671 0.0
C1157 C 0.15845 0.20869 0.90473 0.0
C1158 C 0.88486 0.16043 0.81452 0.0
C1159 C 0.8913 0.16069 0.84496 0.0
H1160 H 0.86194 0.13883 0.77803 0.0
C1161 C 0.88175 0.13733 0.86194 0.0
H1162 H 0.89157 0.17844 0.80111 0.0
C1163 C 0.86436 0.11498 0.84899 0.0
C1164 C 0.85646 0.11532 0.81867 0.0
H1165 H 0.88648 0.1372 0.8855 0.0
H1166 H 0.85661 0.09769 0.86277 0.0
C1167 C 0.86767 0.13789 0.80145 0.0
C1168 C 0.95119 0.85379 0.8728 0.0
C1169 C 0.92689 0.85261 0.85225 0.0
H1170 H 0.9921 0.83905 0.8856 0.0
C1171 C 0.92361 0.83239 0.83081 0.0
H1172 H 0.95433 0.86953 0.88923 0.0
C1173 C 0.94518 0.81517 0.82845 0.0
C1174 C 0.97059 0.81771 0.84755 0.0
H1175 H 0.90506 0.83121 0.8147 0.0
H1176 H 0.94244 0.80063 0.81088 0.0
C1177 C 0.97285 0.83644 0.87054 0.0
C1178 C 0.84083 0.90308 0.20975 0.0
C1179 C 0.8696 0.90434 0.20468 0.0
H1180 H 0.80811 0.92485 0.2248 0.0
C1181 C 0.88643 0.93004 0.20716 0.0
H1182 H 0.82748 0.88344 0.20799 0.0
C1183 C 0.87554 0.95342 0.21676 0.0
C1184 C 0.84737 0.95188 0.22362 0.0
H1185 H 0.90848 0.93165 0.20289 0.0
H1186 H 0.88966 0.97246 0.22022 0.0
C1187 C 0.82973 0.92676 0.2191 0.0
C1188 C 0.17936 0.81156 0.23183 0.0
C1189 C 0.17231 0.81758 0.20202 0.0
H1190 H 0.1658 0.79233 0.27124 0.0
C1191 C 0.14577 0.80636 0.18833 0.0
H1192 H 0.19974 0.8198 0.24274 0.0
C1193 C 0.12624 0.79014 0.20458 0.0
C1194 C 0.13292 0.7853 0.2348 0.0
H1195 H 0.13982 0.81099 0.16536 0.0
H1196 H 0.10548 0.78271 0.19389 0.0
C1197 C 0.15993 0.79574 0.24801 0.0
C1198 C 0.92844 0.20527 0.22827 0.0
C1199 C 0.93527 0.19474 0.20248 0.0
H1200 H 0.94406 0.22242 0.2696 0.0
C1201 C 0.96364 0.19119 0.19939 0.0
H1202 H 0.9066 0.20844 0.23063 0.0
C1203 C 0.98523 0.1993 0.22148 0.0
C1204 C 0.97858 0.21137 0.24671 0.0
H1205 H 0.96908 0.18335 0.17933 0.0
H1206 H 1.00711 0.19707 0.21835 0.0
C1207 C 0.94991 0.21362 0.2502 0.0
C1208 C 0.25138 0.74084 0.64906 0.0
C1209 C 0.23877 0.71308 0.65112 0.0
H1210 H 0.27698 0.77113 0.62487 0.0
C1211 C 0.24062 0.6951 0.62851 0.0
H1212 H 0.2502 0.75514 0.66623 0.0
C1213 C 0.25613 0.70406 0.60523 0.0
C1214 C 0.26933 0.73153 0.60351 0.0
H1215 H 0.2301 0.6741 0.62881 0.0
H1216 H 0.25828 0.68931 0.58876 0.0
C1217 C 0.26639 0.75007 0.62532 0.0
C1218 C 0.83409 0.73166 0.5983 0.0
C1219 C 0.86277 0.72623 0.60061 0.0
H1220 H 0.80071 0.7522 0.5731 0.0
C1221 C 0.87848 0.7331 0.57698 0.0
H1222 H 0.82176 0.72656 0.6165 0.0
C1223 C 0.86669 0.74764 0.5525 0.0
C1224 C 0.83886 0.75537 0.55114 0.0
H1225 H 0.90054 0.72883 0.5784 0.0
H1226 H 0.87999 0.75448 0.53543 0.0
C1227 C 0.8221 0.74615 0.57354 0.0
C1228 C 0.92499 0.33207 0.65349 0.0
C1229 C 0.90481 0.33491 0.67286 0.0
H1230 H 0.93378 0.31287 0.61468 0.0
C1231 C 0.87924 0.31728 0.67022 0.0
H1232 H 0.94467 0.34572 0.65489 0.0
C1233 C 0.87275 0.29906 0.64709 0.0
C1234 C 0.89189 0.29772 0.62625 0.0
H1235 H 0.86341 0.31912 0.68493 0.0
H1236 H 0.8522 0.28684 0.64474 0.0
C1237 C 0.91865 0.31346 0.63041 0.0
C1238 C 0.2706 0.35541 0.66773 0.0
C1239 C 0.24881 0.37333 0.66486 0.0
H1240 H 0.30299 0.3383 0.64709 0.0
C1241 C 0.24452 0.38958 0.6389 0.0
H1242 H 0.27385 0.34218 0.68725 0.0
C1243 C 0.2616 0.38791 0.61626 0.0
C1244 C 0.28258 0.3691 0.61868 0.0
H1245 H 0.22688 0.40229 0.63538 0.0
H1246 H 0.25725 0.40002 0.59614 0.0
C1247 C 0.2871 0.35308 0.64478 0.0
C1248 C 0.2248 0.32966 0.41882 0.0
C1249 C 0.2209 0.3577 0.41074 0.0
H1250 H 0.24722 0.3014 0.4482 0.0
C1251 C 0.23947 0.37902 0.42427 0.0
H1252 H 0.21117 0.31284 0.40813 0.0
C1253 C 0.26062 0.37247 0.44657 0.0
C1254 C 0.26309 0.34451 0.45611 0.0
H1255 H 0.23678 0.40073 0.41852 0.0
H1256 H 0.27425 0.38937 0.45718 0.0
C1257 C 0.2453 0.32313 0.44172 0.0
C1258 C 0.25006 0.65569 0.43756 0.0
C1259 C 0.25099 0.66975 0.41022 0.0
H1260 H 0.26576 0.65526 0.48316 0.0
C1261 C 0.2646 0.69703 0.409 0.0
H1262 H 0.23975 0.63459 0.43892 0.0
C1263 C 0.27922 0.70902 0.43435 0.0
C1264 C 0.28089 0.6936 0.4611 0.0
H1265 H 0.26599 0.70803 0.38809 0.0
H1266 H 0.29093 0.72948 0.43269 0.0
C1267 C 0.26529 0.66727 0.46268 0.0
C1268 C 0.88669 0.77191 0.37457 0.0
C1269 C 0.8859 0.74324 0.38231 0.0
H1270 H 0.87788 0.8126 0.38616 0.0
C1271 C 0.87632 0.7339 0.40909 0.0
H1272 H 0.89376 0.7796 0.35391 0.0
C1273 C 0.86713 0.75263 0.42748 0.0
C1274 C 0.86735 0.7813 0.41963 0.0
H1275 H 0.87589 0.71198 0.41574 0.0
H1276 H 0.85993 0.7446 0.44796 0.0
C1277 C 0.87761 0.79077 0.39306 0.0
C1278 C 0.88366 0.34177 0.43697 0.0
C1279 C 0.86184 0.34708 0.41483 0.0
H1280 H 0.89513 0.32201 0.4786 0.0
C1281 C 0.83346 0.33831 0.41966 0.0
H1282 H 0.9056 0.34888 0.43425 0.0
C1283 C 0.82725 0.32345 0.44563 0.0
C1284 C 0.8494 0.31686 0.46701 0.0
H1285 H 0.81622 0.34207 0.4029 0.0
H1286 H 0.8054 0.31582 0.44822 0.0
C1287 C 0.87757 0.32666 0.46253 0.0
C1288 C 0.14975 0.68821 0.73407 0.0
C1289 C 0.17148 0.70868 0.72703 0.0
H1290 H 0.11155 0.67874 0.75478 0.0
C1291 C 0.17129 0.73594 0.7367 0.0
H1292 H 0.14913 0.66715 0.72656 0.0
C1293 C 0.14962 0.74271 0.75255 0.0
C1294 C 0.12771 0.72231 0.75945 0.0
H1295 H 0.18799 0.75201 0.732 0.0
H1296 H 0.1501 0.76393 0.75957 0.0
C1297 C 0.12824 0.69488 0.75023 0.0
C1298 C 0.91679 0.65814 0.69861 0.0
C1299 C 0.89207 0.67179 0.69138 0.0
H1300 H 0.93609 0.62511 0.72396 0.0
C1301 C 0.86824 0.66399 0.7062 0.0
H1302 H 0.93543 0.66406 0.68739 0.0
C1303 C 0.86863 0.64212 0.72714 0.0
C1304 C 0.89284 0.62742 0.73359 0.0
H1305 H 0.84924 0.67475 0.70134 0.0
H1306 H 0.84975 0.63642 0.73801 0.0
C1307 C 0.9172 0.63608 0.71959 0.0
C1308 C 0.97928 0.36581 0.72672 0.0
C1309 C 0.95162 0.35195 0.72335 0.0
H1310 H 1.02195 0.3661 0.74794 0.0
C1311 C 0.94688 0.32519 0.73651 0.0
H1312 H 0.98354 0.3863 0.71647 0.0
C1313 C 0.96906 0.31337 0.75423 0.0
C1314 C 0.99613 0.3284 0.75947 0.0
H1315 H 0.92571 0.3142 0.73447 0.0
H1316 H 0.96472 0.29317 0.76506 0.0
C1317 C 1.00115 0.3544 0.74489 0.0
C1318 C 0.24058 0.43803 0.69011 0.0
C1319 C 0.2418 0.41588 0.71093 0.0
H1320 H 0.25483 0.48067 0.67938 0.0
C1321 C 0.25717 0.42083 0.73854 0.0
H1322 H 0.22776 0.43531 0.66931 0.0
C1323 C 0.27138 0.44726 0.745 0.0
C1324 C 0.27084 0.46914 0.72377 0.0
H1325 H 0.25816 0.40412 0.75509 0.0
H1326 H 0.28376 0.45023 0.7661 0.0
C1327 C 0.25537 0.4642 0.69625 0.0
C1328 C 0.11959 0.33471 0.33539 0.0
C1329 C 0.12349 0.35094 0.36032 0.0
H1330 H 0.0925 0.30372 0.31078 0.0
C1331 C 0.10095 0.35189 0.37715 0.0
H1332 H 0.1369 0.33375 0.32224 0.0
C1333 C 0.07591 0.33432 0.37109 0.0
C1334 C 0.07292 0.3163 0.3476 0.0
H1335 H 0.10353 0.36479 0.39609 0.0
H1336 H 0.05955 0.33364 0.38572 0.0
C1337 C 0.09427 0.31765 0.32885 0.0
C1338 C 0.2953 0.60412 0.33274 0.0
C1339 C 0.2666 0.60154 0.33829 0.0
H1340 H 0.32883 0.58459 0.31642 0.0
C1341 C 0.24978 0.57635 0.33224 0.0
H1342 H 0.30866 0.62339 0.33738 0.0
C1343 C 0.26109 0.55448 0.32001 0.0
C1344 C 0.28972 0.55699 0.31433 0.0
H1345 H 0.2278 0.57374 0.33683 0.0
H1346 H 0.24732 0.53556 0.31475 0.0
C1347 C 0.30689 0.58189 0.32115 0.0
C1348 C 0.96074 0.67627 0.33124 0.0
C1349 C 0.94196 0.69525 0.31867 0.0
H1350 H 1.00234 0.66226 0.3329 0.0
C1351 C 0.94951 0.71212 0.29452 0.0
H1352 H 0.95553 0.6634 0.35016 0.0
C1353 C 0.97609 0.71128 0.28424 0.0
C1354 C 0.99608 0.69408 0.29847 0.0
H1355 H 0.93547 0.72719 0.28477 0.0
H1356 H 0.98173 0.72569 0.26665 0.0
C1357 C 0.98757 0.67577 0.32136 0.0
C1358 C 0.89138 0.43323 0.32224 0.0
C1359 C 0.86764 0.41532 0.32947 0.0
H1360 H 0.90684 0.46911 0.29706 0.0
C1361 C 0.84057 0.42036 0.31589 0.0
H1362 H 0.91248 0.42998 0.3326 0.0
C1363 C 0.8373 0.44278 0.29557 0.0
C1364 C 0.86104 0.46075 0.28823 0.0
H1365 H 0.822 0.40668 0.3207 0.0
H1366 H 0.81611 0.44589 0.28537 0.0
C1367 C 0.88816 0.45555 0.30177 0.0
C1368 C 0.27551 0.66581 0.71012 0.0
C1369 C 0.2497 0.66242 0.69184 0.0
H1370 H 0.31372 0.64757 0.72752 0.0
C1371 C 0.24355 0.6383 0.67529 0.0
H1372 H 0.2803 0.68391 0.7236 0.0
C1373 C 0.26295 0.61802 0.6768 0.0
C1374 C 0.28834 0.62095 0.69583 0.0
H1375 H 0.22329 0.63476 0.66194 0.0
H1376 H 0.25745 0.59929 0.66438 0.0
C1377 C 0.29449 0.6451 0.71238 0.0
C1378 C 0.23203 0.37962 0.33414 0.0
C1379 C 0.22024 0.39423 0.35457 0.0
H1380 H 0.25768 0.3823 0.29869 0.0
C1381 C 0.22711 0.42314 0.35641 0.0
H1382 H 0.22627 0.35736 0.33206 0.0
C1383 C 0.24455 0.43755 0.33715 0.0
C1384 C 0.25521 0.42326 0.31549 0.0
H1385 H 0.21742 0.43474 0.37152 0.0
H1386 H 0.24839 0.46007 0.33823 0.0
C1387 C 0.24941 0.39399 0.31473 0.0
C1388 C 0.18536 0.67519 0.37719 0.0
C1389 C 0.20545 0.67607 0.35695 0.0
H1390 H 0.14552 0.68802 0.38693 0.0
C1391 C 0.20134 0.69316 0.33149 0.0
H1392 H 0.18781 0.66208 0.39688 0.0
C1393 C 0.17693 0.70751 0.32544 0.0
C1394 C 0.15611 0.70569 0.34498 0.0
H1395 H 0.21675 0.69486 0.31582 0.0
H1396 H 0.17426 0.71993 0.3053 0.0
C1397 C 0.16105 0.68993 0.37136 0.0
C1398 C 0.87033 0.63705 0.33536 0.0
C1399 C 0.884 0.66029 0.32093 0.0
H1400 H 0.84669 0.59639 0.33132 0.0
C1401 C 0.88517 0.65937 0.29079 0.0
H1402 H 0.8694 0.63709 0.3587 0.0
C1403 C 0.87275 0.63603 0.27536 0.0
C1404 C 0.85833 0.61312 0.28951 0.0
H1405 H 0.89485 0.6771 0.27895 0.0
H1406 H 0.87389 0.63628 0.25201 0.0
C1407 C 0.85726 0.61383 0.31974 0.0
C1408 C 0.936 0.337 0.38146 0.0
C1409 C 0.90634 0.33093 0.37796 0.0
H1410 H 0.97661 0.32115 0.38341 0.0
C1411 C 0.89472 0.30288 0.377 0.0
H1412 H 0.9453 0.35852 0.38248 0.0
C1413 C 0.91265 0.28132 0.37746 0.0
C1414 C 0.94238 0.28766 0.37876 0.0
H1415 H 0.87185 0.29784 0.37419 0.0
H1416 H 0.90321 0.25998 0.37493 0.0
C1417 C 0.95381 0.31565 0.38187 0.0
C1418 C 0.86056 0.4282 0.7178 0.0
C1419 C 0.88686 0.42701 0.70711 0.0
H1420 H 0.83174 0.45438 0.73297 0.0
C1421 C 0.90302 0.45196 0.70021 0.0
H1422 H 0.84786 0.40906 0.72324 0.0
C1423 C 0.89378 0.47777 0.70525 0.0
C1424 C 0.86833 0.47921 0.71778 0.0
H1425 H 0.92329 0.45135 0.6918 0.0
H1426 H 0.90741 0.49656 0.70067 0.0
C1427 C 0.85138 0.4541 0.72323 0.0
C1428 C 0.18487 0.32351 0.75744 0.0
C1429 C 0.17687 0.33097 0.72813 0.0
H1430 H 0.17229 0.30287 0.79665 0.0
C1431 C 0.15004 0.32026 0.71475 0.0
H1432 H 0.20549 0.3314 0.76808 0.0
C1433 C 0.13098 0.30345 0.731 0.0
C1434 C 0.13847 0.29753 0.7609 0.0
H1435 H 0.14337 0.32602 0.6922 0.0
H1436 H 0.10985 0.29669 0.72073 0.0
C1437 C 0.16589 0.30712 0.77366 0.0
C1438 C 0.9259 0.72511 0.71976 0.0
C1439 C 0.931 0.72563 0.69038 0.0
H1440 H 0.9432 0.73334 0.76386 0.0
C1441 C 0.95813 0.73559 0.68283 0.0
H1442 H 0.90499 0.7181 0.726 0.0
C1443 C 0.97971 0.7453 0.70427 0.0
C1444 C 0.97467 0.74442 0.73369 0.0
H1445 H 0.96258 0.73584 0.66031 0.0
H1446 H 1.00046 0.75291 0.69793 0.0
C1447 C 0.94766 0.73406 0.74129 0.0
C1448 C 0.73206 0.2189 0.6233 0.0
C1449 C 0.74596 0.21148 0.65089 0.0
H1450 H 0.73663 0.23382 0.57905 0.0
C1451 C 0.7758 0.21419 0.65481 0.0
H1452 H 0.70907 0.21652 0.61942 0.0
C1453 C 0.79142 0.22349 0.63172 0.0
C1454 C 0.77767 0.23087 0.60414 0.0
H1455 H 0.78709 0.20924 0.67588 0.0
H1456 H 0.81446 0.22483 0.63545 0.0
C1457 C 0.74778 0.22884 0.6002 0.0
C1458 C 0.35413 0.20937 0.6088 0.0
C1459 C 0.3573 0.22461 0.63437 0.0
H1460 H 0.33716 0.20749 0.56368 0.0
C1461 C 0.34287 0.24846 0.63501 0.0
H1462 H 0.36513 0.19084 0.60809 0.0
C1463 C 0.32644 0.25773 0.61001 0.0
C1464 C 0.32461 0.24355 0.58367 0.0
H1465 H 0.34498 0.26027 0.65472 0.0
H1466 H 0.31652 0.27689 0.61096 0.0
C1467 C 0.33807 0.21885 0.58356 0.0
C1468 C 0.37179 0.83054 0.67625 0.0
C1469 C 0.39824 0.84659 0.68083 0.0
H1470 H 0.3454 0.79995 0.65044 0.0
C1471 C 0.41971 0.84191 0.6636 0.0
H1472 H 0.35507 0.83343 0.68957 0.0
C1473 C 0.4143 0.82249 0.64126 0.0
C1474 C 0.38721 0.80763 0.63559 0.0
H1475 H 0.44021 0.85417 0.66656 0.0
H1476 H 0.43083 0.82011 0.62754 0.0
C1477 C 0.36628 0.81144 0.65383 0.0
C1478 C 0.75747 0.84118 0.63276 0.0
C1479 C 0.73745 0.86078 0.63255 0.0
H1480 H 0.78903 0.82512 0.61017 0.0
C1481 C 0.73698 0.8821 0.6106 0.0
H1482 H 0.75891 0.82502 0.64986 0.0
C1483 C 0.75488 0.88264 0.58829 0.0
C1484 C 0.77324 0.86162 0.58733 0.0
H1485 H 0.72172 0.89741 0.60985 0.0
H1486 H 0.75321 0.89849 0.57087 0.0
C1487 C 0.77479 0.8413 0.61018 0.0
C1488 C 0.71094 0.8778 0.4065 0.0
C1489 C 0.69994 0.85772 0.38607 0.0
H1490 H 0.73949 0.88739 0.44486 0.0
C1491 C 0.70792 0.83034 0.39027 0.0
H1492 H 0.70423 0.89866 0.40433 0.0
C1493 C 0.7274 0.82348 0.41413 0.0
C1494 C 0.73943 0.84407 0.43376 0.0
H1495 H 0.69958 0.81453 0.37472 0.0
H1496 H 0.73398 0.80252 0.41647 0.0
C1497 C 0.73073 0.87117 0.42989 0.0
C1498 C 0.7465 0.15494 0.42503 0.0
C1499 C 0.74212 0.17203 0.39967 0.0
H1500 H 0.76679 0.15131 0.46888 0.0
C1501 C 0.75275 0.20036 0.4006 0.0
H1502 H 0.73827 0.13309 0.4249 0.0
C1503 C 0.76902 0.21091 0.42587 0.0
C1504 C 0.77518 0.19322 0.45055 0.0
H1505 H 0.74992 0.21385 0.38123 0.0
H1506 H 0.778 0.23254 0.42558 0.0
C1507 C 0.76305 0.1653 0.45006 0.0
C1508 C 0.36781 0.2444 0.42014 0.0
C1509 C 0.38866 0.22605 0.42874 0.0
H1510 H 0.34544 0.2779 0.43222 0.0
C1511 C 0.4029 0.22757 0.45718 0.0
H1512 H 0.35683 0.24402 0.39821 0.0
C1513 C 0.39678 0.2472 0.47648 0.0
C1514 C 0.37601 0.26572 0.46795 0.0
H1515 H 0.41883 0.21347 0.46448 0.0
H1516 H 0.40801 0.2475 0.4983 0.0
C1517 C 0.36145 0.26391 0.43956 0.0
C1518 C 0.32932 0.82892 0.42353 0.0
C1519 C 0.35613 0.841 0.4166 0.0
H1520 H 0.30536 0.80641 0.45549 0.0
C1521 C 0.37996 0.83854 0.4372 0.0
H1522 H 0.31058 0.83061 0.40801 0.0
C1523 C 0.37705 0.82442 0.46416 0.0
C1524 C 0.35011 0.81318 0.47147 0.0
H1525 H 0.40061 0.84846 0.43302 0.0
H1526 H 0.39588 0.82279 0.4796 0.0
C1527 C 0.32626 0.81546 0.4508 0.0
C1528 C 0.68116 0.23431 0.7413 0.0
C1529 C 0.67975 0.20822 0.72833 0.0
H1530 H 0.66187 0.26046 0.76837 0.0
C1531 C 0.65728 0.18793 0.7338 0.0
H1532 H 0.69864 0.25007 0.73815 0.0
C1533 C 0.63685 0.1935 0.75187 0.0
C1534 C 0.63798 0.21976 0.76443 0.0
H1535 H 0.65563 0.16767 0.7241 0.0
H1536 H 0.61986 0.17741 0.7557 0.0
C1537 C 0.66026 0.24019 0.75873 0.0
C1538 C 0.40089 0.17782 0.74933 0.0
C1539 C 0.40013 0.17128 0.71991 0.0
H1540 H 0.39982 0.16205 0.79344 0.0
C1541 C 0.40107 0.14343 0.7127 0.0
H1542 H 0.40012 0.19923 0.75523 0.0
C1543 C 0.40102 0.12217 0.7344 0.0
C1544 C 0.39998 0.12835 0.76376 0.0
H1545 H 0.40096 0.13811 0.69012 0.0
H1546 H 0.40084 0.10075 0.7281 0.0
C1547 C 0.40084 0.15654 0.77113 0.0
C1548 C 0.44357 0.82958 0.73888 0.0
C1549 C 0.44758 0.85776 0.72952 0.0
H1550 H 0.46318 0.79431 0.75959 0.0
C1551 C 0.47533 0.87135 0.73153 0.0
H1552 H 0.42232 0.8188 0.73774 0.0
C1553 C 0.49842 0.85777 0.74456 0.0
C1554 C 0.49438 0.83004 0.75536 0.0
H1555 H 0.4789 0.89299 0.72413 0.0
H1556 H 0.51943 0.86909 0.74655 0.0
C1557 C 0.46686 0.81574 0.75154 0.0
C1558 C 0.70411 0.92728 0.66889 0.0
C1559 C 0.72098 0.9048 0.67248 0.0
H1560 H 0.70029 0.96983 0.67834 0.0
C1561 C 0.74902 0.90938 0.68596 0.0
H1562 H 0.68241 0.92416 0.65856 0.0
C1563 C 0.75934 0.93553 0.69737 0.0
C1564 C 0.74164 0.95746 0.69575 0.0
H1565 H 0.76221 0.89221 0.68939 0.0
H1566 H 0.78056 0.93807 0.70895 0.0
C1567 C 0.71422 0.95325 0.68055 0.0
C1568 C 0.60894 0.83967 0.29275 0.0
C1569 C 0.61356 0.85941 0.31462 0.0
H1570 H 0.57831 0.81323 0.2662 0.0
C1571 C 0.59023 0.87021 0.32439 0.0
H1572 H 0.62685 0.83111 0.28514 0.0
C1573 C 0.56244 0.86008 0.31376 0.0
C1574 C 0.55756 0.83887 0.29319 0.0
H1575 H 0.59359 0.8854 0.34138 0.0
H1576 H 0.54485 0.86774 0.3229 0.0
C1577 C 0.58117 0.82958 0.28195 0.0
C1578 C 0.74802 0.11796 0.2895 0.0
C1579 C 0.73469 0.11096 0.31483 0.0
H1580 H 0.77288 0.10382 0.25804 0.0
C1581 C 0.73107 0.08282 0.32436 0.0
H1582 H 0.75132 0.13963 0.2821 0.0
C1583 C 0.74278 0.06232 0.31032 0.0
C1584 C 0.7584 0.06964 0.28658 0.0
H1585 H 0.72107 0.07713 0.34403 0.0
H1586 H 0.74211 0.04127 0.31988 0.0
C1587 C 0.76002 0.09745 0.27558 0.0
C1588 C 0.46849 0.16705 0.3771 0.0
C1589 C 0.4446 0.17978 0.36423 0.0
H1590 H 0.51017 0.1559 0.37149 0.0
C1591 C 0.44312 0.18882 0.33483 0.0
H1592 H 0.46978 0.15994 0.39981 0.0
C1593 C 0.46579 0.18645 0.31881 0.0
C1594 C 0.49028 0.17481 0.33185 0.0
H1595 H 0.42485 0.19879 0.32469 0.0
H1596 H 0.46489 0.19491 0.29656 0.0
C1597 C 0.49121 0.16441 0.3609 0.0
C1598 C 0.35444 0.9428 0.33773 0.0
C1599 C 0.33707 0.91841 0.34417 0.0
H1600 H 0.35659 0.98445 0.31887 0.0
C1601 C 0.30748 0.91791 0.33688 0.0
H1602 H 0.37726 0.94378 0.34349 0.0
C1603 C 0.2955 0.94114 0.32289 0.0
C1604 C 0.31284 0.96554 0.31602 0.0
H1605 H 0.29369 0.8993 0.34166 0.0
H1606 H 0.27266 0.93977 0.31703 0.0
C1607 C 0.34249 0.96614 0.32391 0.0
C1608 C 0.77758 0.15449 0.70782 0.0
C1609 C 0.75288 0.15838 0.68875 0.0
H1610 H 0.8094 0.12709 0.72331 0.0
C1611 C 0.74336 0.13839 0.66771 0.0
H1612 H 0.78521 0.16967 0.72427 0.0
C1613 C 0.75699 0.11391 0.66715 0.0
C1614 C 0.78064 0.10896 0.68752 0.0
H1615 H 0.72429 0.14094 0.65291 0.0
H1616 H 0.74805 0.09815 0.65173 0.0
C1617 C 0.79143 0.13013 0.70714 0.0
C1618 C 0.73258 0.89568 0.32498 0.0
C1619 C 0.71164 0.90379 0.34095 0.0
H1620 H 0.77267 0.90752 0.30829 0.0
C1621 C 0.71584 0.92986 0.35404 0.0
H1622 H 0.72942 0.87574 0.31449 0.0
C1623 C 0.74074 0.94763 0.35123 0.0
C1624 C 0.76141 0.93993 0.33451 0.0
H1625 H 0.69957 0.93659 0.36596 0.0
H1626 H 0.74322 0.96796 0.36088 0.0
C1627 C 0.75716 0.91372 0.32153 0.0
C1628 C 0.67022 0.17971 0.37593 0.0
C1629 C 0.69068 0.18703 0.35658 0.0
H1630 H 0.62895 0.18576 0.38758 0.0
C1631 C 0.68711 0.20992 0.33694 0.0
H1632 H 0.67244 0.1619 0.39099 0.0
C1633 C 0.66234 0.22372 0.33491 0.0
C1634 C 0.64038 0.2146 0.35225 0.0
H1635 H 0.70258 0.21575 0.32169 0.0
H1636 H 0.65951 0.24003 0.31812 0.0
C1637 C 0.64527 0.1933 0.37377 0.0
C1638 C 0.39561 0.12872 0.35395 0.0
C1639 C 0.38511 0.15506 0.35193 0.0
H1640 H 0.39775 0.09019 0.33289 0.0
C1641 C 0.36824 0.16279 0.32641 0.0
H1642 H 0.40901 0.1226 0.37334 0.0
C1643 C 0.36247 0.14467 0.30302 0.0
C1644 C 0.37318 0.11832 0.3049 0.0
H1645 H 0.36041 0.18322 0.32424 0.0
H1646 H 0.34942 0.15116 0.28355 0.0
C1647 C 0.38942 0.11039 0.33082 0.0
C1648 C 0.38774 0.81588 0.34786 0.0
C1649 C 0.39489 0.83777 0.3674 0.0
H1650 H 0.40259 0.78312 0.3251 0.0
C1651 C 0.42322 0.84242 0.38012 0.0
H1652 H 0.36623 0.81244 0.3371 0.0
C1653 C 0.44392 0.82549 0.37366 0.0
C1654 C 0.43703 0.80407 0.35344 0.0
H1655 H 0.42957 0.8599 0.39419 0.0
H1656 H 0.46566 0.83007 0.3834 0.0
C1657 C 0.40859 0.79936 0.34077 0.0
C1658 C 0.40428 0.95881 0.7302 0.0
C1659 C 0.38549 0.93431 0.72942 0.0
H1660 H 0.41266 1.00114 0.74349 0.0
C1661 C 0.35822 0.93515 0.73819 0.0
H1662 H 0.42524 0.95872 0.72317 0.0
C1663 C 0.35073 0.95968 0.74956 0.0
C1664 C 0.37055 0.98354 0.75244 0.0
H1665 H 0.34344 0.91642 0.73782 0.0
H1666 H 0.33032 0.95935 0.75793 0.0
C1667 C 0.39699 0.98306 0.74171 0.0
C1668 C 0.63474 0.81026 0.68462 0.0
C1669 C 0.66403 0.8162 0.6932 0.0
H1670 H 0.59453 0.79161 0.69711 0.0
C1671 C 0.67594 0.80495 0.71982 0.0
H1672 H 0.62522 0.81915 0.66426 0.0
C1673 C 0.65859 0.78967 0.73862 0.0
C1674 C 0.62901 0.78499 0.73096 0.0
H1675 H 0.69843 0.80963 0.72685 0.0
H1676 H 0.66811 0.78277 0.75991 0.0
C1677 C 0.61731 0.79447 0.70329 0.0
C1678 C 0.44441 0.25101 0.72468 0.0
C1679 C 0.43893 0.22454 0.7123 0.0
H1680 H 0.47348 0.27847 0.75209 0.0
C1681 C 0.45962 0.20559 0.71748 0.0
H1682 H 0.42862 0.26585 0.72127 0.0
C1683 C 0.48484 0.2125 0.7355 0.0
C1684 C 0.49024 0.23879 0.7482 0.0
H1685 H 0.45615 0.18531 0.7077 0.0
H1686 H 0.50012 0.19715 0.73962 0.0
C1687 C 0.47002 0.25821 0.74225 0.0
C1688 C 0.74153 0.73553 0.15398 0.0
C1689 C 0.71263 0.72533 0.14928 0.0
H1690 H 0.77771 0.75671 0.13529 0.0
C1691 C 0.69844 0.72722 0.12087 0.0
H1692 H 0.75296 0.73418 0.17565 0.0
C1693 C 0.71224 0.74068 0.09804 0.0
C1694 C 0.74089 0.7518 0.10284 0.0
H1695 H 0.67638 0.7188 0.11654 0.0
H1696 H 0.70053 0.74231 0.07653 0.0
C1697 C 0.7556 0.74847 0.13094 0.0
C1698 C 0.33758 0.69233 0.06852 0.0
C1699 C 0.33196 0.70159 0.09543 0.0
H1700 H 0.33375 0.69962 0.02214 0.0
C1701 C 0.31424 0.72296 0.09611 0.0
H1702 H 0.35121 0.67573 0.06781 0.0
C1703 C 0.30391 0.7364 0.0702 0.0
C1704 C 0.31163 0.72895 0.04322 0.0
H1705 H 0.30956 0.73005 0.11682 0.0
H1706 H 0.29155 0.75388 0.07159 0.0
C1707 C 0.32751 0.70594 0.04251 0.0
C1708 C 0.38775 0.29055 0.19199 0.0
C1709 C 0.41059 0.31137 0.19005 0.0
H1710 H 0.35469 0.26354 0.16872 0.0
C1711 C 0.42072 0.31722 0.16277 0.0
H1712 H 0.37906 0.28625 0.21262 0.0
C1713 C 0.40672 0.30429 0.13754 0.0
C1714 C 0.38251 0.28497 0.13915 0.0
H1715 H 0.43772 0.33375 0.16056 0.0
H1716 H 0.41318 0.31137 0.11643 0.0
C1717 C 0.37391 0.27744 0.16685 0.0
C1718 C 0.7709 0.38192 0.15117 0.0
C1719 C 0.74358 0.39076 0.15072 0.0
H1720 H 0.80017 0.36455 0.12665 0.0
C1721 C 0.72812 0.39617 0.12357 0.0
H1722 H 0.78293 0.37709 0.17189 0.0
C1723 C 0.73752 0.38844 0.09777 0.0
C1724 C 0.7628 0.37548 0.09865 0.0
H1725 H 0.70683 0.40256 0.12272 0.0
H1726 H 0.72383 0.39041 0.07746 0.0
C1727 C 0.78047 0.37425 0.12528 0.0
C1728 C 0.73674 0.41488 0.94256 0.0
C1729 C 0.73869 0.40462 0.91497 0.0
H1730 H 0.75414 0.41594 0.98763 0.0
C1731 C 0.76117 0.38908 0.91099 0.0
H1732 H 0.71947 0.42701 0.94578 0.0
C1733 C 0.7809 0.38284 0.93454 0.0
C1734 C 0.77851 0.39209 0.96254 0.0
H1735 H 0.76285 0.38103 0.88977 0.0
H1736 H 0.79749 0.36993 0.93102 0.0
C1737 C 0.75667 0.40879 0.96624 0.0
C1738 C 0.76145 0.72511 0.90658 0.0
C1739 C 0.76073 0.69612 0.91182 0.0
H1740 H 0.77243 0.7658 0.92392 0.0
C1741 C 0.77052 0.686 0.94002 0.0
H1742 H 0.75468 0.73356 0.88503 0.0
C1743 C 0.78169 0.70445 0.96218 0.0
C1744 C 0.78264 0.73347 0.95681 0.0
H1745 H 0.76993 0.6637 0.94473 0.0
H1746 H 0.78922 0.69601 0.98354 0.0
C1747 C 0.77204 0.74353 0.92884 0.0
C1748 C 0.37166 0.74403 0.89129 0.0
C1749 C 0.39637 0.73026 0.89721 0.0
H1750 H 0.34573 0.77323 0.90562 0.0
C1751 C 0.41438 0.73577 0.92305 0.0
H1752 H 0.35769 0.74025 0.87127 0.0
C1753 C 0.40756 0.75444 0.94295 0.0
C1754 C 0.38255 0.7681 0.93737 0.0
H1755 H 0.43349 0.72519 0.92803 0.0
H1756 H 0.42156 0.75749 0.96302 0.0
C1757 C 0.36488 0.76286 0.91103 0.0
C1758 C 0.37877 0.31594 0.92977 0.0
C1759 C 0.39585 0.34153 0.9281 0.0
H1760 H 0.3525 0.2881 0.95587 0.0
C1761 C 0.40178 0.35744 0.9533 0.0
H1762 H 0.3736 0.30345 0.91058 0.0
C1763 C 0.38912 0.3492 0.9788 0.0
C1764 C 0.37073 0.32439 0.98011 0.0
H1765 H 0.41478 0.37728 0.95253 0.0
H1766 H 0.39319 0.36262 0.99735 0.0
C1767 C 0.36653 0.30732 0.95561 0.0
C1768 C 0.62268 0.69074 0.22961 0.0
C1769 C 0.64254 0.7134 0.2233 0.0
H1770 H 0.58517 0.67647 0.25023 0.0
C1771 C 0.63894 0.73984 0.23343 0.0
H1772 H 0.62445 0.67023 0.22173 0.0
C1773 C 0.61589 0.74359 0.24892 0.0
C1774 C 0.59628 0.72084 0.25548 0.0
H1775 H 0.6541 0.75763 0.22954 0.0
H1776 H 0.61363 0.76422 0.25626 0.0
C1777 C 0.6001 0.69432 0.24583 0.0
C1778 C 0.37468 0.61409 0.16301 0.0
C1779 C 0.36559 0.63725 0.17532 0.0
H1780 H 0.37536 0.56966 0.16446 0.0
C1781 C 0.3528 0.63349 0.20129 0.0
H1782 H 0.38436 0.61669 0.14279 0.0
C1783 C 0.34722 0.60656 0.21357 0.0
C1784 C 0.35425 0.58302 0.19988 0.0
H1785 H 0.34518 0.6511 0.21072 0.0
H1786 H 0.33582 0.60406 0.23267 0.0
C1787 C 0.36904 0.58722 0.17511 0.0
C1788 C 0.45664 0.28498 0.23932 0.0
C1789 C 0.46324 0.31402 0.2369 0.0
H1790 H 0.47246 0.24508 0.24938 0.0
C1791 C 0.49198 0.32504 0.24206 0.0
H1792 H 0.43474 0.27593 0.23607 0.0
C1793 C 0.51344 0.3076 0.25109 0.0
C1794 C 0.50671 0.27863 0.25405 0.0
H1795 H 0.49771 0.34734 0.2398 0.0
H1796 H 0.53529 0.31669 0.25536 0.0
C1797 C 0.47821 0.26743 0.24743 0.0
C1798 C 0.73077 0.44641 0.1821 0.0
C1799 C 0.73375 0.42504 0.20363 0.0
H1800 H 0.73932 0.48994 0.17088 0.0
C1801 C 0.74628 0.43218 0.2319 0.0
H1802 H 0.72053 0.44173 0.16044 0.0
C1803 C 0.75619 0.46003 0.23829 0.0
C1804 C 0.75409 0.48123 0.21637 0.0
H1805 H 0.74899 0.41606 0.24888 0.0
H1806 H 0.76687 0.46467 0.25983 0.0
C1807 C 0.74098 0.4741 0.18834 0.0
C1808 C 0.6528 0.36783 0.82327 0.0
C1809 C 0.65245 0.38626 0.8459 0.0
H1810 H 0.6295 0.33594 0.79673 0.0
C1811 C 0.62673 0.38859 0.8573 0.0
H1812 H 0.67252 0.36548 0.81443 0.0
C1813 C 0.60203 0.37171 0.84729 0.0
C1814 C 0.60269 0.352 0.8258 0.0
H1815 H 0.62607 0.40276 0.87473 0.0
H1816 H 0.58282 0.37319 0.85742 0.0
C1817 C 0.62818 0.35087 0.81328 0.0
C1818 C 0.76927 0.62476 0.81165 0.0
C1819 C 0.76598 0.62172 0.84163 0.0
H1820 H 0.78709 0.60895 0.77559 0.0
C1821 C 0.77482 0.59791 0.85734 0.0
H1822 H 0.76281 0.64311 0.79917 0.0
C1823 C 0.78866 0.5786 0.84399 0.0
C1824 C 0.79351 0.58244 0.81451 0.0
H1825 H 0.77219 0.59499 0.88034 0.0
H1826 H 0.79704 0.56142 0.85716 0.0
C1827 C 0.7829 0.60517 0.79812 0.0
C1828 C 0.47297 0.67235 0.84445 0.0
C1829 C 0.449 0.68384 0.83004 0.0
H1830 H 0.51749 0.66851 0.84562 0.0
C1831 C 0.45109 0.69747 0.80266 0.0
H1832 H 0.47203 0.6625 0.86598 0.0
C1833 C 0.47737 0.70174 0.79116 0.0
C1834 C 0.50203 0.6923 0.80688 0.0
H1835 H 0.43303 0.70716 0.79159 0.0
H1836 H 0.47876 0.71426 0.77113 0.0
C1837 C 0.4991 0.67617 0.83285 0.0
C1838 C 0.41889 0.42479 0.83109 0.0
C1839 C 0.39649 0.406 0.83989 0.0
H1840 H 0.43113 0.46097 0.80453 0.0
C1841 C 0.36854 0.40961 0.8278 0.0
H1842 H 0.44061 0.42262 0.84027 0.0
C1843 C 0.36306 0.43169 0.80764 0.0
C1844 C 0.38545 0.45053 0.79878 0.0
H1845 H 0.35095 0.39518 0.83377 0.0
H1846 H 0.34126 0.43387 0.79874 0.0
C1847 C 0.41348 0.44666 0.81058 0.0
C1848 C 0.74874 0.67403 0.2123 0.0
C1849 C 0.72674 0.67551 0.18933 0.0
H1850 H 0.7838 0.65222 0.23165 0.0
C1851 C 0.72577 0.65784 0.16571 0.0
H1852 H 0.75018 0.68779 0.23046 0.0
C1853 C 0.74533 0.63771 0.1661 0.0
C1854 C 0.76597 0.63478 0.19028 0.0
H1855 H 0.70904 0.65874 0.14771 0.0
H1856 H 0.7433 0.62342 0.14835 0.0
C1857 C 0.76789 0.6537 0.21296 0.0
C1858 C 0.7638 0.45616 0.87738 0.0
C1859 C 0.75034 0.43478 0.85941 0.0
H1860 H 0.79963 0.48689 0.88529 0.0
C1861 C 0.76434 0.42616 0.83677 0.0
H1862 H 0.75338 0.46287 0.89515 0.0
C1863 C 0.79078 0.43961 0.8313 0.0
C1864 C 0.80382 0.4618 0.84848 0.0
H1865 H 0.75476 0.40908 0.82331 0.0
H1866 H 0.8008 0.43318 0.81312 0.0
C1867 C 0.79035 0.46957 0.872 0.0
C1868 C 0.70309 0.71173 0.83939 0.0
C1869 C 0.70817 0.69589 0.86547 0.0
H1870 H 0.67443 0.73611 0.81241 0.0
C1871 C 0.68868 0.69498 0.88623 0.0
H1872 H 0.71793 0.71272 0.82315 0.0
C1873 C 0.66357 0.70833 0.8801 0.0
C1874 C 0.65754 0.72254 0.85298 0.0
H1875 H 0.69208 0.68261 0.90633 0.0
H1876 H 0.6482 0.70624 0.89584 0.0
C1877 C 0.67807 0.72481 0.83315 0.0
C1878 C 0.36395 0.64332 0.82069 0.0
C1879 C 0.39184 0.64766 0.835 0.0
H1880 H 0.33239 0.61505 0.79698 0.0
C1881 C 0.40912 0.62557 0.83701 0.0
H1882 H 0.35025 0.66008 0.81858 0.0
C1883 C 0.39907 0.60001 0.82431 0.0
C1884 C 0.37123 0.59568 0.81002 0.0
H1885 H 0.43029 0.6279 0.84862 0.0
H1886 H 0.41322 0.58363 0.82541 0.0
C1887 C 0.35362 0.61749 0.80862 0.0
C1888 C 0.46656 0.33013 0.90376 0.0
C1889 C 0.43942 0.32387 0.88859 0.0
H1890 H 0.51023 0.32111 0.91007 0.0
C1891 C 0.43472 0.30019 0.87125 0.0
H1892 H 0.47088 0.34868 0.91661 0.0
C1893 C 0.45736 0.28497 0.86661 0.0
C1894 C 0.48508 0.29266 0.87985 0.0
H1895 H 0.41414 0.29535 0.85882 0.0
H1896 H 0.45354 0.26815 0.8514 0.0
C1897 C 0.48913 0.31453 0.89966 0.0
C1898 C 0.40662 0.41647 0.24338 0.0
C1899 C 0.40392 0.38912 0.25543 0.0
H1900 H 0.39727 0.45892 0.24607 0.0
C1901 C 0.39074 0.38391 0.28106 0.0
H1902 H 0.41687 0.42084 0.22365 0.0
C1903 C 0.37974 0.40555 0.29411 0.0
C1904 C 0.38165 0.43296 0.28175 0.0
H1905 H 0.38862 0.36293 0.29069 0.0
H1906 H 0.36902 0.40059 0.31346 0.0
C1907 C 0.39564 0.43822 0.25641 0.0
C1908 C 0.68521 0.31615 0.23479 0.0
C1909 C 0.67924 0.33088 0.2083 0.0
H1910 H 0.67319 0.28077 0.26214 0.0
C1911 C 0.65598 0.32103 0.18854 0.0
H1912 H 0.7034 0.32322 0.24997 0.0
C1913 C 0.63879 0.29675 0.19524 0.0
C1914 C 0.64457 0.28196 0.2219 0.0
H1915 H 0.65124 0.3322 0.16789 0.0
H1916 H 0.62059 0.29003 0.17994 0.0
C1917 C 0.6681 0.29184 0.24151 0.0
C1918 C 0.42111 0.68098 0.19286 0.0
C1919 C 0.39701 0.69576 0.1872 0.0
H1920 H 0.46264 0.67935 0.21635 0.0
C1921 C 0.39602 0.7202 0.20252 0.0
H1922 H 0.42262 0.66234 0.18109 0.0
C1923 C 0.41933 0.73064 0.2217 0.0
C1924 C 0.44376 0.71629 0.22675 0.0
H1925 H 0.37743 0.73169 0.19894 0.0
H1926 H 0.41816 0.74982 0.23273 0.0
C1927 C 0.44414 0.69098 0.2127 0.0
loop_
_geom_bond_atom_site_label_1
_geom_bond_atom_site_label_2
_geom_bond_distance
_geom_bond_site_symmetry_2
_ccdc_geom_bond_type
C0 N1 1.317 . S
C0 N2 1.348 . S
C0 C3 1.485 . S
N1 C0 1.317 . S
N1 N5 1.370 . S
N2 C0 1.348 . S
N2 C4 1.346 . S
C3 C0 1.485 . S
C3 H7 0.960 . S
C3 H8 0.961 . S
C3 H9 0.960 . S
C4 N2 1.346 . S
C4 N5 1.307 . S
C4 C6 1.486 . S
N5 N1 1.370 . S
N5 C4 1.307 . S
C6 C4 1.486 . S
C6 H10 0.960 . S
C6 H11 0.960 . S
C6 H12 0.959 . S
H7 C3 0.960 . S
H8 C3 0.961 . S
H9 C3 0.960 . S
H10 C6 0.960 . S
H11 C6 0.960 . S
H12 C6 0.959 . S
C13 N14 1.317 . S
C13 N15 1.348 . S
C13 C16 1.485 . S
N14 C13 1.317 . S
N14 N18 1.370 . S
N15 C13 1.348 . S
N15 C17 1.346 . S
C16 C13 1.485 . S
C16 H20 0.960 . S
C16 H21 0.961 . S
C16 H22 0.960 . S
C17 N15 1.346 . S
C17 N18 1.307 . S
C17 C19 1.486 . S
N18 N14 1.370 . S
N18 C17 1.307 . S
C19 C17 1.486 . S
C19 H23 0.960 . S
C19 H24 0.960 . S
C19 H25 0.959 . S
H20 C16 0.960 . S
H21 C16 0.961 . S
H22 C16 0.960 . S
H23 C19 0.960 . S
H24 C19 0.960 . S
H25 C19 0.959 . S
C26 N27 1.317 . S
C26 N28 1.348 . S
C26 C29 1.485 . S
N27 C26 1.317 . S
N27 N31 1.370 . S
N28 C26 1.348 . S
N28 C30 1.346 . S
C29 C26 1.485 . S
C29 H33 0.960 . S
C29 H34 0.961 . S
C29 H35 0.960 . S
C30 N28 1.346 . S
C30 N31 1.307 . S
C30 C32 1.486 . S
N31 N27 1.370 . S
N31 C30 1.307 . S
C32 C30 1.486 . S
C32 H36 0.960 . S
C32 H37 0.960 . S
C32 H38 0.959 . S
H33 C29 0.960 . S
H34 C29 0.961 . S
H35 C29 0.960 . S
H36 C32 0.960 . S
H37 C32 0.960 . S
H38 C32 0.959 . S
C39 N40 1.317 . S
C39 N41 1.348 . S
C39 C42 1.485 . S
N40 C39 1.317 . S
N40 N44 1.370 . S
N41 C39 1.348 . S
N41 C43 1.346 . S
C42 C39 1.485 . S
C42 H46 0.960 . S
C42 H47 0.961 . S
C42 H48 0.960 . S
C43 N41 1.346 . S
C43 N44 1.307 . S
C43 C45 1.486 . S
N44 N40 1.370 . S
N44 C43 1.307 . S
C45 C43 1.486 . S
C45 H49 0.960 . S
C45 H50 0.960 . S
C45 H51 0.959 . S
H46 C42 0.960 . S
H47 C42 0.961 . S
H48 C42 0.960 . S
H49 C45 0.960 . S
H50 C45 0.960 . S
H51 C45 0.959 . S
C52 N53 1.317 . S
C52 N54 1.348 . S
C52 C55 1.485 . S
N53 C52 1.317 . S
N53 N57 1.370 . S
N54 C52 1.348 . S
N54 C56 1.346 . S
C55 C52 1.485 . S
C55 H59 0.960 . S
C55 H60 0.961 . S
C55 H61 0.960 . S
C56 N54 1.346 . S
C56 N57 1.307 . S
C56 C58 1.486 . S
N57 N53 1.370 . S
N57 C56 1.307 . S
C58 C56 1.486 . S
C58 H62 0.960 . S
C58 H63 0.960 . S
C58 H64 0.959 . S
H59 C55 0.960 . S
H60 C55 0.961 . S
H61 C55 0.960 . S
H62 C58 0.960 . S
H63 C58 0.960 . S
H64 C58 0.959 . S
C65 N66 1.317 . S
C65 N67 1.348 . S
C65 C68 1.485 . S
N66 C65 1.317 . S
N66 N70 1.370 . S
N67 C65 1.348 . S
N67 C69 1.346 . S
C68 C65 1.485 . S
C68 H72 0.960 . S
C68 H73 0.961 . S
C68 H74 0.960 . S
C69 N67 1.346 . S
C69 N70 1.307 . S
C69 C71 1.486 . S
N70 N66 1.370 . S
N70 C69 1.307 . S
C71 C69 1.486 . S
C71 H75 0.960 . S
C71 H76 0.960 . S
C71 H77 0.959 . S
H72 C68 0.960 . S
H73 C68 0.961 . S
H74 C68 0.960 . S
H75 C71 0.960 . S
H76 C71 0.960 . S
H77 C71 0.959 . S
C78 N79 1.317 . S
C78 N80 1.348 . S
C78 C81 1.485 . S
N79 C78 1.317 . S
N79 N83 1.370 . S
N80 C78 1.348 . S
N80 C82 1.346 . S
C81 C78 1.485 . S
C81 H85 0.960 . S
C81 H86 0.961 . S
C81 H87 0.960 . S
C82 N80 1.346 . S
C82 N83 1.307 . S
C82 C84 1.486 . S
N83 N79 1.370 . S
N83 C82 1.307 . S
C84 C82 1.486 . S
C84 H88 0.960 . S
C84 H89 0.960 . S
C84 H90 0.959 . S
H85 C81 0.960 . S
H86 C81 0.961 . S
H87 C81 0.960 . S
H88 C84 0.960 . S
H89 C84 0.960 . S
H90 C84 0.959 . S
C91 N92 1.317 . S
C91 N93 1.348 . S
C91 C94 1.485 . S
N92 C91 1.317 . S
N92 N96 1.370 . S
N93 C91 1.348 . S
N93 C95 1.346 . S
C94 C91 1.485 . S
C94 H98 0.960 . S
C94 H99 0.961 . S
C94 H100 0.960 . S
C95 N93 1.346 . S
C95 N96 1.307 . S
C95 C97 1.486 . S
N96 N92 1.370 . S
N96 C95 1.307 . S
C97 C95 1.486 . S
C97 H101 0.960 . S
C97 H102 0.960 . S
C97 H103 0.959 . S
H98 C94 0.960 . S
H99 C94 0.961 . S
H100 C94 0.960 . S
H101 C97 0.960 . S
H102 C97 0.960 . S
H103 C97 0.959 . S
C104 N105 1.317 . S
C104 N106 1.348 . S
C104 C107 1.485 . S
N105 C104 1.317 . S
N105 N109 1.370 . S
N106 C104 1.348 . S
N106 C108 1.346 . S
C107 C104 1.485 . S
C107 H111 0.960 . S
C107 H112 0.961 . S
C107 H113 0.960 . S
C108 N106 1.346 . S
C108 N109 1.307 . S
C108 C110 1.486 . S
N109 N105 1.370 . S
N109 C108 1.307 . S
C110 C108 1.486 . S
C110 H114 0.960 . S
C110 H115 0.960 . S
C110 H116 0.959 . S
H111 C107 0.960 . S
H112 C107 0.961 . S
H113 C107 0.960 . S
H114 C110 0.960 . S
H115 C110 0.960 . S
H116 C110 0.959 . S
C117 N118 1.317 . S
C117 N119 1.348 . S
C117 C120 1.485 . S
N118 C117 1.317 . S
N118 N122 1.370 . S
N119 C117 1.348 . S
N119 C121 1.346 . S
C120 C117 1.485 . S
C120 H124 0.960 . S
C120 H125 0.961 . S
C120 H126 0.960 . S
C121 N119 1.346 . S
C121 N122 1.307 . S
C121 C123 1.486 . S
N122 N118 1.370 . S
N122 C121 1.307 . S
C123 C121 1.486 . S
C123 H127 0.960 . S
C123 H128 0.960 . S
C123 H129 0.959 . S
H124 C120 0.960 . S
H125 C120 0.961 . S
H126 C120 0.960 . S
H127 C123 0.960 . S
H128 C123 0.960 . S
H129 C123 0.959 . S
C130 N131 1.317 . S
C130 N132 1.348 . S
C130 C133 1.485 . S
N131 C130 1.317 . S
N131 N135 1.370 . S
N132 C130 1.348 . S
N132 C134 1.346 . S
C133 C130 1.485 . S
C133 H137 0.960 . S
C133 H138 0.961 . S
C133 H139 0.960 . S
C134 N132 1.346 . S
C134 N135 1.307 . S
C134 C136 1.486 . S
N135 N131 1.370 . S
N135 C134 1.307 . S
C136 C134 1.486 . S
C136 H140 0.960 . S
C136 H141 0.960 . S
C136 H142 0.959 . S
H137 C133 0.960 . S
H138 C133 0.961 . S
H139 C133 0.960 . S
H140 C136 0.960 . S
H141 C136 0.960 . S
H142 C136 0.959 . S
C143 N144 1.317 . S
C143 N145 1.348 . S
C143 C146 1.485 . S
N144 C143 1.317 . S
N144 N148 1.370 . S
N145 C143 1.348 . S
N145 C147 1.346 . S
C146 C143 1.485 . S
C146 H150 0.960 . S
C146 H151 0.961 . S
C146 H152 0.960 . S
C147 N145 1.346 . S
C147 N148 1.307 . S
C147 C149 1.486 . S
N148 N144 1.370 . S
N148 C147 1.307 . S
C149 C147 1.486 . S
C149 H153 0.960 . S
C149 H154 0.960 . S
C149 H155 0.959 . S
H150 C146 0.960 . S
H151 C146 0.961 . S
H152 C146 0.960 . S
H153 C149 0.960 . S
H154 C149 0.960 . S
H155 C149 0.959 . S
C156 N157 1.317 . S
C156 N158 1.348 . S
C156 C159 1.485 . S
N157 C156 1.317 . S
N157 N161 1.370 . S
N158 C156 1.348 . S
N158 C160 1.346 . S
C159 C156 1.485 . S
C159 H163 0.960 . S
C159 H164 0.961 . S
C159 H165 0.960 . S
C160 N158 1.346 . S
C160 N161 1.307 . S
C160 C162 1.486 . S
N161 N157 1.370 . S
N161 C160 1.307 . S
C162 C160 1.486 . S
C162 H166 0.960 . S
C162 H167 0.960 . S
C162 H168 0.959 . S
H163 C159 0.960 . S
H164 C159 0.961 . S
H165 C159 0.960 . S
H166 C162 0.960 . S
H167 C162 0.960 . S
H168 C162 0.959 . S
C169 N170 1.317 . S
C169 N171 1.348 . S
C169 C172 1.485 . S
N170 C169 1.317 . S
N170 N174 1.370 . S
N171 C169 1.348 . S
N171 C173 1.346 . S
C172 C169 1.485 . S
C172 H176 0.960 . S
C172 H177 0.961 . S
C172 H178 0.960 . S
C173 N171 1.346 . S
C173 N174 1.307 . S
C173 C175 1.486 . S
N174 N170 1.370 . S
N174 C173 1.307 . S
C175 C173 1.486 . S
C175 H179 0.960 . S
C175 H180 0.960 . S
C175 H181 0.959 . S
H176 C172 0.960 . S
H177 C172 0.961 . S
H178 C172 0.960 . S
H179 C175 0.960 . S
H180 C175 0.960 . S
H181 C175 0.959 . S
C182 N183 1.317 . S
C182 N184 1.348 . S
C182 C185 1.485 . S
N183 C182 1.317 . S
N183 N187 1.370 . S
N184 C182 1.348 . S
N184 C186 1.346 . S
C185 C182 1.485 . S
C185 H189 0.960 . S
C185 H190 0.961 . S
C185 H191 0.960 . S
C186 N184 1.346 . S
C186 N187 1.307 . S
C186 C188 1.486 . S
N187 N183 1.370 . S
N187 C186 1.307 . S
C188 C186 1.486 . S
C188 H192 0.960 . S
C188 H193 0.960 . S
C188 H194 0.959 . S
H189 C185 0.960 . S
H190 C185 0.961 . S
H191 C185 0.960 . S
H192 C188 0.960 . S
H193 C188 0.960 . S
H194 C188 0.959 . S
C195 N196 1.317 . S
C195 N197 1.348 . S
C195 C198 1.485 . S
N196 C195 1.317 . S
N196 N200 1.370 . S
N197 C195 1.348 . S
N197 C199 1.346 . S
C198 C195 1.485 . S
C198 H202 0.960 . S
C198 H203 0.961 . S
C198 H204 0.960 . S
C199 N197 1.346 . S
C199 N200 1.307 . S
C199 C201 1.486 . S
N200 N196 1.370 . S
N200 C199 1.307 . S
C201 C199 1.486 . S
C201 H205 0.960 . S
C201 H206 0.960 . S
C201 H207 0.959 . S
H202 C198 0.960 . S
H203 C198 0.961 . S
H204 C198 0.960 . S
H205 C201 0.960 . S
H206 C201 0.960 . S
H207 C201 0.959 . S
C208 N209 1.317 . S
C208 N210 1.348 . S
C208 C211 1.485 . S
N209 C208 1.317 . S
N209 N213 1.370 . S
N210 C208 1.348 . S
N210 C212 1.346 . S
C211 C208 1.485 . S
C211 H215 0.960 . S
C211 H216 0.961 . S
C211 H217 0.960 . S
C212 N210 1.346 . S
C212 N213 1.307 . S
C212 C214 1.486 . S
N213 N209 1.370 . S
N213 C212 1.307 . S
C214 C212 1.486 . S
C214 H218 0.960 . S
C214 H219 0.960 . S
C214 H220 0.959 . S
H215 C211 0.960 . S
H216 C211 0.961 . S
H217 C211 0.960 . S
H218 C214 0.960 . S
H219 C214 0.960 . S
H220 C214 0.959 . S
C221 N222 1.317 . S
C221 N223 1.348 . S
C221 C224 1.485 . S
N222 C221 1.317 . S
N222 N226 1.370 . S
N223 C221 1.348 . S
N223 C225 1.346 . S
C224 C221 1.485 . S
C224 H228 0.960 . S
C224 H229 0.961 . S
C224 H230 0.960 . S
C225 N223 1.346 . S
C225 N226 1.307 . S
C225 C227 1.486 . S
N226 N222 1.370 . S
N226 C225 1.307 . S
C227 C225 1.486 . S
C227 H231 0.960 . S
C227 H232 0.960 . S
C227 H233 0.959 . S
H228 C224 0.960 . S
H229 C224 0.961 . S
H230 C224 0.960 . S
H231 C227 0.960 . S
H232 C227 0.960 . S
H233 C227 0.959 . S
C234 N235 1.317 . S
C234 N236 1.348 . S
C234 C237 1.485 . S
N235 C234 1.317 . S
N235 N239 1.370 . S
N236 C234 1.348 . S
N236 C238 1.346 . S
C237 C234 1.485 . S
C237 H241 0.960 . S
C237 H242 0.961 . S
C237 H243 0.960 . S
C238 N236 1.346 . S
C238 N239 1.307 . S
C238 C240 1.486 . S
N239 N235 1.370 . S
N239 C238 1.307 . S
C240 C238 1.486 . S
C240 H244 0.960 . S
C240 H245 0.960 . S
C240 H246 0.959 . S
H241 C237 0.960 . S
H242 C237 0.961 . S
H243 C237 0.960 . S
H244 C240 0.960 . S
H245 C240 0.960 . S
H246 C240 0.959 . S
C247 N248 1.317 . S
C247 N249 1.348 . S
C247 C250 1.485 . S
N248 C247 1.317 . S
N248 N252 1.370 . S
N249 C247 1.348 . S
N249 C251 1.346 . S
C250 C247 1.485 . S
C250 H254 0.960 . S
C250 H255 0.961 . S
C250 H256 0.960 . S
C251 N249 1.346 . S
C251 N252 1.307 . S
C251 C253 1.486 . S
N252 N248 1.370 . S
N252 C251 1.307 . S
C253 C251 1.486 . S
C253 H257 0.960 . S
C253 H258 0.960 . S
C253 H259 0.959 . S
H254 C250 0.960 . S
H255 C250 0.961 . S
H256 C250 0.960 . S
H257 C253 0.960 . S
H258 C253 0.960 . S
H259 C253 0.959 . S
C260 N261 1.317 . S
C260 N262 1.348 . S
C260 C263 1.485 . S
N261 C260 1.317 . S
N261 N265 1.370 . S
N262 C260 1.348 . S
N262 C264 1.346 . S
C263 C260 1.485 . S
C263 H267 0.960 . S
C263 H268 0.961 . S
C263 H269 0.960 . S
C264 N262 1.346 . S
C264 N265 1.307 . S
C264 C266 1.486 . S
N265 N261 1.370 . S
N265 C264 1.307 . S
C266 C264 1.486 . S
C266 H270 0.960 . S
C266 H271 0.960 . S
C266 H272 0.959 . S
H267 C263 0.960 . S
H268 C263 0.961 . S
H269 C263 0.960 . S
H270 C266 0.960 . S
H271 C266 0.960 . S
H272 C266 0.959 . S
C273 N274 1.317 . S
C273 N275 1.348 . S
C273 C276 1.485 . S
N274 C273 1.317 . S
N274 N278 1.370 . S
N275 C273 1.348 . S
N275 C277 1.346 . S
C276 C273 1.485 . S
C276 H280 0.960 . S
C276 H281 0.961 . S
C276 H282 0.960 . S
C277 N275 1.346 . S
C277 N278 1.307 . S
C277 C279 1.486 . S
N278 N274 1.370 . S
N278 C277 1.307 . S
C279 C277 1.486 . S
C279 H283 0.960 . S
C279 H284 0.960 . S
C279 H285 0.959 . S
H280 C276 0.960 . S
H281 C276 0.961 . S
H282 C276 0.960 . S
H283 C279 0.960 . S
H284 C279 0.960 . S
H285 C279 0.959 . S
C286 N287 1.317 . S
C286 N288 1.348 . S
C286 C289 1.485 . S
N287 C286 1.317 . S
N287 N291 1.370 . S
N288 C286 1.348 . S
N288 C290 1.346 . S
C289 C286 1.485 . S
C289 H293 0.960 . S
C289 H294 0.961 . S
C289 H295 0.960 . S
C290 N288 1.346 . S
C290 N291 1.307 . S
C290 C292 1.486 . S
N291 N287 1.370 . S
N291 C290 1.307 . S
C292 C290 1.486 . S
C292 H296 0.960 . S
C292 H297 0.960 . S
C292 H298 0.959 . S
H293 C289 0.960 . S
H294 C289 0.961 . S
H295 C289 0.960 . S
H296 C292 0.960 . S
H297 C292 0.960 . S
H298 C292 0.959 . S
C299 N300 1.317 . S
C299 N301 1.348 . S
C299 C302 1.485 . S
N300 C299 1.317 . S
N300 N304 1.370 . S
N301 C299 1.348 . S
N301 C303 1.346 . S
C302 C299 1.485 . S
C302 H306 0.960 . S
C302 H307 0.961 . S
C302 H308 0.960 . S
C303 N301 1.346 . S
C303 N304 1.307 . S
C303 C305 1.486 . S
N304 N300 1.370 . S
N304 C303 1.307 . S
C305 C303 1.486 . S
C305 H309 0.960 . S
C305 H310 0.960 . S
C305 H311 0.959 . S
H306 C302 0.960 . S
H307 C302 0.961 . S
H308 C302 0.960 . S
H309 C305 0.960 . S
H310 C305 0.960 . S
H311 C305 0.959 . S
C312 N313 1.317 . S
C312 N314 1.348 . S
C312 C315 1.485 . S
N313 C312 1.317 . S
N313 N317 1.370 . S
N314 C312 1.348 . S
N314 C316 1.346 . S
C315 C312 1.485 . S
C315 H319 0.960 . S
C315 H320 0.961 . S
C315 H321 0.960 . S
C316 N314 1.346 . S
C316 N317 1.307 . S
C316 C318 1.486 . S
N317 N313 1.370 . S
N317 C316 1.307 . S
C318 C316 1.486 . S
C318 H322 0.960 . S
C318 H323 0.960 . S
C318 H324 0.959 . S
H319 C315 0.960 . S
H320 C315 0.961 . S
H321 C315 0.960 . S
H322 C318 0.960 . S
H323 C318 0.960 . S
H324 C318 0.959 . S
C325 N326 1.317 . S
C325 N327 1.348 . S
C325 C328 1.485 . S
N326 C325 1.317 . S
N326 N330 1.370 . S
N327 C325 1.348 . S
N327 C329 1.346 . S
C328 C325 1.485 . S
C328 H332 0.960 . S
C328 H333 0.961 . S
C328 H334 0.960 . S
C329 N327 1.346 . S
C329 N330 1.307 . S
C329 C331 1.486 . S
N330 N326 1.370 . S
N330 C329 1.307 . S
C331 C329 1.486 . S
C331 H335 0.960 . S
C331 H336 0.960 . S
C331 H337 0.959 . S
H332 C328 0.960 . S
H333 C328 0.961 . S
H334 C328 0.960 . S
H335 C331 0.960 . S
H336 C331 0.960 . S
H337 C331 0.959 . S
C338 N339 1.317 . S
C338 N340 1.348 . S
C338 C341 1.485 . S
N339 C338 1.317 . S
N339 N343 1.370 . S
N340 C338 1.348 . S
N340 C342 1.346 . S
C341 C338 1.485 . S
C341 H345 0.960 . S
C341 H346 0.961 . S
C341 H347 0.960 . S
C342 N340 1.346 . S
C342 N343 1.307 . S
C342 C344 1.486 . S
N343 N339 1.370 . S
N343 C342 1.307 . S
C344 C342 1.486 . S
C344 H348 0.960 . S
C344 H349 0.960 . S
C344 H350 0.959 . S
H345 C341 0.960 . S
H346 C341 0.961 . S
H347 C341 0.960 . S
H348 C344 0.960 . S
H349 C344 0.960 . S
H350 C344 0.959 . S
C351 N352 1.317 . S
C351 N353 1.348 . S
C351 C354 1.485 . S
N352 C351 1.317 . S
N352 N356 1.370 . S
N353 C351 1.348 . S
N353 C355 1.346 . S
C354 C351 1.485 . S
C354 H358 0.960 . S
C354 H359 0.961 . S
C354 H360 0.960 . S
C355 N353 1.346 . S
C355 N356 1.307 . S
C355 C357 1.486 . S
N356 N352 1.370 . S
N356 C355 1.307 . S
C357 C355 1.486 . S
C357 H361 0.960 . S
C357 H362 0.960 . S
C357 H363 0.959 . S
H358 C354 0.960 . S
H359 C354 0.961 . S
H360 C354 0.960 . S
H361 C357 0.960 . S
H362 C357 0.960 . S
H363 C357 0.959 . S
C364 N365 1.317 . S
C364 N366 1.348 . S
C364 C367 1.485 . S
N365 C364 1.317 . S
N365 N369 1.370 . S
N366 C364 1.348 . S
N366 C368 1.346 . S
C367 C364 1.485 . S
C367 H371 0.960 . S
C367 H372 0.961 . S
C367 H373 0.960 . S
C368 N366 1.346 . S
C368 N369 1.307 . S
C368 C370 1.486 . S
N369 N365 1.370 . S
N369 C368 1.307 . S
C370 C368 1.486 . S
C370 H374 0.960 . S
C370 H375 0.960 . S
C370 H376 0.959 . S
H371 C367 0.960 . S
H372 C367 0.961 . S
H373 C367 0.960 . S
H374 C370 0.960 . S
H375 C370 0.960 . S
H376 C370 0.959 . S
C377 N378 1.317 . S
C377 N379 1.348 . S
C377 C380 1.485 . S
N378 C377 1.317 . S
N378 N382 1.370 . S
N379 C377 1.348 . S
N379 C381 1.346 . S
C380 C377 1.485 . S
C380 H384 0.960 . S
C380 H385 0.961 . S
C380 H386 0.960 . S
C381 N379 1.346 . S
C381 N382 1.307 . S
C381 C383 1.486 . S
N382 N378 1.370 . S
N382 C381 1.307 . S
C383 C381 1.486 . S
C383 H387 0.960 . S
C383 H388 0.960 . S
C383 H389 0.959 . S
H384 C380 0.960 . S
H385 C380 0.961 . S
H386 C380 0.960 . S
H387 C383 0.960 . S
H388 C383 0.960 . S
H389 C383 0.959 . S
C390 N391 1.317 . S
C390 N392 1.348 . S
C390 C393 1.485 . S
N391 C390 1.317 . S
N391 N395 1.370 . S
N392 C390 1.348 . S
N392 C394 1.346 . S
C393 C390 1.485 . S
C393 H397 0.960 . S
C393 H398 0.961 . S
C393 H399 0.960 . S
C394 N392 1.346 . S
C394 N395 1.307 . S
C394 C396 1.486 . S
N395 N391 1.370 . S
N395 C394 1.307 . S
C396 C394 1.486 . S
C396 H400 0.960 . S
C396 H401 0.960 . S
C396 H402 0.959 . S
H397 C393 0.960 . S
H398 C393 0.961 . S
H399 C393 0.960 . S
H400 C396 0.960 . S
H401 C396 0.960 . S
H402 C396 0.959 . S
C403 N404 1.317 . S
C403 N405 1.348 . S
C403 C406 1.485 . S
N404 C403 1.317 . S
N404 N408 1.370 . S
N405 C403 1.348 . S
N405 C407 1.346 . S
C406 C403 1.485 . S
C406 H410 0.960 . S
C406 H411 0.961 . S
C406 H412 0.960 . S
C407 N405 1.346 . S
C407 N408 1.307 . S
C407 C409 1.486 . S
N408 N404 1.370 . S
N408 C407 1.307 . S
C409 C407 1.486 . S
C409 H413 0.960 . S
C409 H414 0.960 . S
C409 H415 0.959 . S
H410 C406 0.960 . S
H411 C406 0.961 . S
H412 C406 0.960 . S
H413 C409 0.960 . S
H414 C409 0.960 . S
H415 C409 0.959 . S
Cu416 N417 1.999 . S
Cu416 O422 1.974 1_554 S
Cu416 N427 1.985 . S
Cu416 O436 1.959 . S
N417 Cu416 1.999 . S
N417 C419 1.263 1_554 S
N417 C421 1.389 . S
N418 C419 1.358 . S
N418 C420 1.400 . S
C419 N417 1.263 1_556 S
C419 N418 1.358 . S
C419 H425 0.930 . S
C420 N418 1.400 . S
C420 C421 1.351 1_556 S
C420 H437 0.930 . S
C421 N417 1.389 . S
C421 C420 1.351 1_554 S
C421 H426 0.930 . S
O422 Cu416 1.974 1_556 S
O422 C432 1.282 . S
C423 O424 1.261 . S
C423 O436 1.251 . S
O424 C423 1.261 . S
H425 C419 0.930 . S
H426 C421 0.930 . S
N427 Cu416 1.985 . S
N427 C429 1.335 . S
N427 C430 1.390 . S
N428 C429 1.345 . S
N428 C431 1.336 . S
C429 N427 1.335 . S
C429 N428 1.345 . S
C429 H434 0.930 . S
C430 N427 1.390 . S
C430 C431 1.346 . S
C430 H435 0.930 . S
C431 N428 1.336 . S
C431 C430 1.346 . S
C431 H438 0.929 . S
C432 O422 1.282 . S
C432 O433 1.216 . S
O433 C432 1.216 . S
H434 C429 0.930 . S
H435 C430 0.930 . S
O436 Cu416 1.959 . S
O436 C423 1.251 . S
H437 C420 0.930 . S
H438 C431 0.929 . S
Cu439 N440 1.999 . S
Cu439 O445 1.974 . S
Cu439 N450 1.985 1_554 S
Cu439 O459 1.959 1_554 S
N440 Cu439 1.999 . S
N440 C442 1.263 . S
N440 C444 1.389 . S
N441 C442 1.358 . S
N441 C443 1.400 . S
C442 N440 1.263 . S
C442 N441 1.358 . S
C442 H448 0.930 . S
C443 N441 1.400 . S
C443 C444 1.351 . S
C443 H460 0.930 . S
C444 N440 1.389 . S
C444 C443 1.351 . S
C444 H449 0.930 . S
O445 Cu439 1.974 . S
O445 C455 1.282 . S
C446 O447 1.261 . S
C446 O459 1.251 . S
O447 C446 1.261 . S
H448 C442 0.930 . S
H449 C444 0.930 . S
N450 Cu439 1.985 1_556 S
N450 C452 1.335 . S
N450 C453 1.390 1_556 S
N451 C452 1.345 . S
N451 C454 1.336 . S
C452 N450 1.335 . S
C452 N451 1.345 . S
C452 H457 0.930 . S
C453 N450 1.390 1_554 S
C453 C454 1.346 1_554 S
C453 H458 0.930 . S
C454 N451 1.336 . S
C454 C453 1.346 1_556 S
C454 H461 0.929 . S
C455 O445 1.282 . S
C455 O456 1.216 . S
O456 C455 1.216 . S
H457 C452 0.930 . S
H458 C453 0.930 . S
O459 Cu439 1.959 1_556 S
O459 C446 1.251 . S
H460 C443 0.930 . S
H461 C454 0.929 . S
Cu462 N463 1.999 1_554 S
Cu462 O468 1.974 1_554 S
Cu462 N473 1.985 . S
Cu462 O482 1.959 . S
N463 Cu462 1.999 1_556 S
N463 C465 1.263 . S
N463 C467 1.389 . S
N464 C465 1.358 . S
N464 C466 1.400 . S
C465 N463 1.263 . S
C465 N464 1.358 . S
C465 H471 0.930 . S
C466 N464 1.400 . S
C466 C467 1.351 . S
C466 H483 0.930 . S
C467 N463 1.389 . S
C467 C466 1.351 . S
C467 H472 0.930 1_556 S
O468 Cu462 1.974 1_556 S
O468 C478 1.282 . S
C469 O470 1.261 . S
C469 O482 1.251 . S
O470 C469 1.261 . S
H471 C465 0.930 . S
H472 C467 0.930 1_554 S
N473 Cu462 1.985 . S
N473 C475 1.335 . S
N473 C476 1.390 . S
N474 C475 1.345 . S
N474 C477 1.336 . S
C475 N473 1.335 . S
C475 N474 1.345 . S
C475 H480 0.930 . S
C476 N473 1.390 . S
C476 C477 1.346 . S
C476 H481 0.930 1_554 S
C477 N474 1.336 . S
C477 C476 1.346 . S
C477 H484 0.929 . S
C478 O468 1.282 . S
C478 O479 1.216 . S
O479 C478 1.216 . S
H480 C475 0.930 . S
H481 C476 0.930 1_556 S
O482 Cu462 1.959 . S
O482 C469 1.251 . S
H483 C466 0.930 . S
H484 C477 0.929 . S
Cu485 N486 1.999 . S
Cu485 O491 1.974 . S
Cu485 N496 1.985 1_554 S
Cu485 O505 1.959 1_554 S
N486 Cu485 1.999 . S
N486 C488 1.263 . S
N486 C490 1.389 . S
N487 C488 1.358 . S
N487 C489 1.400 . S
C488 N486 1.263 . S
C488 N487 1.358 . S
C488 H494 0.930 . S
C489 N487 1.400 . S
C489 C490 1.351 . S
C489 H506 0.930 . S
C490 N486 1.389 . S
C490 C489 1.351 . S
C490 H495 0.905 1_554 S
O491 Cu485 1.974 . S
O491 C501 1.282 . S
C492 O493 1.261 . S
C492 O505 1.251 . S
O493 C492 1.261 . S
H494 C488 0.930 . S
H495 C490 0.905 1_556 S
N496 Cu485 1.985 1_556 S
N496 C498 1.335 . S
N496 C499 1.390 . S
N497 C498 1.345 . S
N497 C500 1.336 . S
C498 N496 1.335 . S
C498 N497 1.345 . S
C498 H503 0.930 . S
C499 N496 1.390 . S
C499 C500 1.346 . S
C499 H504 0.930 1_556 S
C500 N497 1.336 . S
C500 C499 1.346 . S
C500 H507 0.929 . S
C501 O491 1.282 . S
C501 O502 1.216 . S
O502 C501 1.216 . S
H503 C498 0.930 . S
H504 C499 0.930 1_554 S
O505 Cu485 1.959 1_556 S
O505 C492 1.251 . S
H506 C489 0.930 . S
H507 C500 0.929 . S
Cu508 N509 1.999 . S
Cu508 O514 1.974 . S
Cu508 N519 1.985 1_455 S
Cu508 O528 1.959 1_455 S
N509 Cu508 1.999 . S
N509 C511 1.263 . S
N509 C513 1.389 . S
N510 C511 1.358 . S
N510 C512 1.400 . S
C511 N509 1.263 . S
C511 N510 1.358 . S
C511 H517 0.930 . S
C512 N510 1.400 . S
C512 C513 1.351 . S
C512 H529 0.930 . S
C513 N509 1.389 . S
C513 C512 1.351 . S
C513 H518 0.930 . S
O514 Cu508 1.974 . S
O514 C524 1.282 . S
C515 O516 1.261 . S
C515 O528 1.251 . S
O516 C515 1.261 . S
H517 C511 0.930 . S
H518 C513 0.930 . S
N519 Cu508 1.985 1_655 S
N519 C521 1.335 . S
N519 C522 1.390 1_655 S
N520 C521 1.345 . S
N520 C523 1.336 . S
C521 N519 1.335 . S
C521 N520 1.345 . S
C521 H526 0.930 . S
C522 N519 1.390 1_455 S
C522 C523 1.346 1_455 S
C522 H527 0.930 . S
C523 N520 1.336 . S
C523 C522 1.346 1_655 S
C523 H530 0.929 . S
C524 O514 1.282 . S
C524 O525 1.216 . S
O525 C524 1.216 . S
H526 C521 0.930 . S
H527 C522 0.930 . S
O528 Cu508 1.959 1_655 S
O528 C515 1.251 . S
H529 C512 0.930 . S
H530 C523 0.929 . S
Cu531 N532 2.009 . S
Cu531 O537 1.985 . S
Cu531 N542 1.975 1_545 S
Cu531 O551 1.948 1_545 S
N532 Cu531 2.009 . S
N532 C534 1.263 . S
N532 C536 1.389 . S
N533 C534 1.358 . S
N533 C535 1.400 . S
C534 N532 1.263 . S
C534 N533 1.358 . S
C534 H540 0.930 . S
C535 N533 1.400 . S
C535 C536 1.351 . S
C535 H552 0.930 . S
C536 N532 1.389 . S
C536 C535 1.351 . S
C536 H541 0.930 . S
O537 Cu531 1.985 . S
O537 C547 1.282 . S
C538 O539 1.261 . S
C538 O551 1.251 . S
O539 C538 1.261 . S
H540 C534 0.930 . S
H541 C536 0.930 . S
N542 Cu531 1.975 1_565 S
N542 C544 1.335 . S
N542 C545 1.390 . S
N543 C544 1.345 . S
N543 C546 1.336 . S
C544 N542 1.335 . S
C544 N543 1.345 . S
C544 H549 0.930 . S
C545 N542 1.390 . S
C545 C546 1.346 . S
C545 H550 0.930 . S
C546 N543 1.336 . S
C546 C545 1.346 . S
C546 H553 0.929 . S
C547 O537 1.282 . S
C547 O548 1.216 . S
O548 C547 1.216 . S
H549 C544 0.930 . S
H550 C545 0.930 . S
O551 Cu531 1.948 1_565 S
O551 C538 1.251 . S
H552 C535 0.930 . S
H553 C546 0.929 . S
Cu554 N555 1.999 1_455 S
Cu554 O560 1.974 1_455 S
Cu554 N565 1.985 . S
Cu554 O574 1.959 . S
N555 Cu554 1.999 1_655 S
N555 C557 1.263 . S
N555 C559 1.389 . S
N556 C557 1.358 . S
N556 C558 1.400 . S
C557 N555 1.263 . S
C557 N556 1.358 . S
C557 H563 0.930 . S
C558 N556 1.400 . S
C558 C559 1.351 . S
C558 H575 0.930 . S
C559 N555 1.389 . S
C559 C558 1.351 . S
C559 H564 0.911 1_655 S
O560 Cu554 1.974 1_655 S
O560 C570 1.282 . S
C561 O562 1.261 . S
C561 O574 1.251 . S
O562 C561 1.261 . S
H563 C557 0.930 . S
H564 C559 0.911 1_455 S
N565 Cu554 1.985 . S
N565 C567 1.335 . S
N565 C568 1.390 . S
N566 C567 1.345 . S
N566 C569 1.336 . S
C567 N565 1.335 . S
C567 N566 1.345 . S
C567 H572 0.930 . S
C568 N565 1.390 . S
C568 C569 1.346 . S
C568 H573 0.930 . S
C569 N566 1.336 . S
C569 C568 1.346 . S
C569 H576 0.929 . S
C570 O560 1.282 . S
C570 O571 1.216 . S
O571 C570 1.216 . S
H572 C567 0.930 . S
H573 C568 0.930 . S
O574 Cu554 1.959 . S
O574 C561 1.251 . S
H575 C558 0.930 . S
H576 C569 0.929 . S
Cu577 N578 1.999 . S
Cu577 O583 1.974 . S
Cu577 N588 1.985 1_545 S
Cu577 O597 1.959 1_545 S
N578 Cu577 1.999 . S
N578 C580 1.263 . S
N578 C582 1.389 . S
N579 C580 1.358 . S
N579 C581 1.400 . S
C580 N578 1.263 . S
C580 N579 1.358 . S
C580 H586 0.930 . S
C581 N579 1.400 . S
C581 C582 1.351 . S
C581 H598 0.930 . S
C582 N578 1.389 . S
C582 C581 1.351 . S
C582 H587 0.930 . S
O583 Cu577 1.974 . S
O583 C593 1.282 . S
C584 O585 1.261 . S
C584 O597 1.251 . S
O585 C584 1.261 . S
H586 C580 0.930 . S
H587 C582 0.930 . S
N588 Cu577 1.985 1_565 S
N588 C590 1.335 . S
N588 C591 1.390 . S
N589 C590 1.345 . S
N589 C592 1.336 . S
C590 N588 1.335 . S
C590 N589 1.345 . S
C590 H595 0.930 . S
C591 N588 1.390 . S
C591 C592 1.346 . S
C591 H596 0.930 1_565 S
C592 N589 1.336 . S
C592 C591 1.346 . S
C592 H599 0.929 . S
C593 O583 1.282 . S
C593 O594 1.216 . S
O594 C593 1.216 . S
H595 C590 0.930 . S
H596 C591 0.930 1_545 S
O597 Cu577 1.959 1_565 S
O597 C584 1.251 . S
H598 C581 0.930 . S
H599 C592 0.929 . S
Cu600 N601 1.999 . S
Cu600 O606 1.974 . S
Cu600 N611 1.985 1_455 S
Cu600 O620 1.959 1_455 S
N601 Cu600 1.999 . S
N601 C603 1.263 . S
N601 C605 1.389 . S
N602 C603 1.358 . S
N602 C604 1.400 . S
C603 N601 1.263 . S
C603 N602 1.358 . S
C603 H609 0.930 . S
C604 N602 1.400 . S
C604 C605 1.351 . S
C604 H621 0.930 . S
C605 N601 1.389 . S
C605 C604 1.351 . S
C605 H610 0.930 . S
O606 Cu600 1.974 . S
O606 C616 1.282 . S
C607 O608 1.261 . S
C607 O620 1.251 . S
O608 C607 1.261 . S
H609 C603 0.930 . S
H610 C605 0.930 . S
N611 Cu600 1.985 1_655 S
N611 C613 1.335 . S
N611 C614 1.390 1_655 S
N612 C613 1.345 . S
N612 C615 1.336 . S
C613 N611 1.335 . S
C613 N612 1.345 . S
C613 H618 0.930 . S
C614 N611 1.390 1_455 S
C614 C615 1.346 1_455 S
C614 H619 0.930 . S
C615 N612 1.336 . S
C615 C614 1.346 1_655 S
C615 H622 0.929 . S
C616 O606 1.282 . S
C616 O617 1.216 . S
O617 C616 1.216 . S
H618 C613 0.930 . S
H619 C614 0.930 . S
O620 Cu600 1.959 1_655 S
O620 C607 1.251 . S
H621 C604 0.930 . S
H622 C615 0.929 . S
Cu623 N624 1.999 . S
Cu623 O629 1.974 . S
Cu623 N634 1.985 1_545 S
Cu623 O643 1.959 1_545 S
N624 Cu623 1.999 . S
N624 C626 1.263 . S
N624 C628 1.389 . S
N625 C626 1.358 . S
N625 C627 1.400 . S
C626 N624 1.263 . S
C626 N625 1.358 . S
C626 H632 0.930 . S
C627 N625 1.400 . S
C627 C628 1.351 . S
C627 H644 0.930 . S
C628 N624 1.389 . S
C628 C627 1.351 . S
C628 H633 0.930 . S
O629 Cu623 1.974 . S
O629 C639 1.282 . S
C630 O631 1.261 . S
C630 O643 1.251 . S
O631 C630 1.261 . S
H632 C626 0.930 . S
H633 C628 0.930 . S
N634 Cu623 1.985 1_565 S
N634 C636 1.335 . S
N634 C637 1.390 . S
N635 C636 1.345 . S
N635 C638 1.336 . S
C636 N634 1.335 . S
C636 N635 1.345 . S
C636 H641 0.930 . S
C637 N634 1.390 . S
C637 C638 1.346 . S
C637 H642 0.930 . S
C638 N635 1.336 . S
C638 C637 1.346 . S
C638 H645 0.929 . S
C639 O629 1.282 . S
C639 O640 1.216 . S
O640 C639 1.216 . S
H641 C636 0.930 . S
H642 C637 0.930 . S
O643 Cu623 1.959 1_565 S
O643 C630 1.251 . S
H644 C627 0.930 . S
H645 C638 0.929 . S
Cu646 N647 1.999 . S
Cu646 O652 1.974 . S
Cu646 N657 1.985 . S
Cu646 O666 1.959 . S
N647 Cu646 1.999 . S
N647 C649 1.263 . S
N647 C651 1.389 . S
N648 C649 1.358 1_655 S
N648 C650 1.400 1_655 S
C649 N647 1.263 . S
C649 N648 1.358 1_455 S
C649 H655 0.930 1_455 S
C650 N648 1.400 1_455 S
C650 C651 1.351 . S
C650 H667 0.930 1_455 S
C651 N647 1.389 . S
C651 C650 1.351 . S
C651 H656 0.930 . S
O652 Cu646 1.974 . S
O652 C662 1.282 . S
C653 O654 1.261 . S
C653 O666 1.251 . S
O654 C653 1.261 . S
H655 C649 0.930 1_655 S
H656 C651 0.930 . S
N657 Cu646 1.985 . S
N657 C659 1.335 . S
N657 C660 1.390 . S
N658 C659 1.345 . S
N658 C661 1.336 . S
C659 N657 1.335 . S
C659 N658 1.345 . S
C659 H664 0.930 . S
C660 N657 1.390 . S
C660 C661 1.346 . S
C660 H665 0.930 . S
C661 N658 1.336 . S
C661 C660 1.346 . S
C661 H668 0.929 . S
C662 O652 1.282 . S
C662 O663 1.216 . S
O663 C662 1.216 . S
H664 C659 0.930 . S
H665 C660 0.930 . S
O666 Cu646 1.959 . S
O666 C653 1.251 . S
H667 C650 0.930 1_655 S
H668 C661 0.929 . S
Cu669 N670 1.999 . S
Cu669 O675 1.974 . S
Cu669 N680 1.985 . S
Cu669 O689 1.959 . S
N670 Cu669 1.999 . S
N670 C672 1.263 . S
N670 C674 1.389 . S
N671 C672 1.358 . S
N671 C673 1.400 . S
C672 N670 1.263 . S
C672 N671 1.358 . S
C672 H678 0.930 . S
C673 N671 1.400 . S
C673 C674 1.351 . S
C673 H690 0.930 . S
C674 N670 1.389 . S
C674 C673 1.351 . S
C674 H679 0.930 . S
O675 Cu669 1.974 . S
O675 C685 1.282 . S
C676 O677 1.261 . S
C676 O689 1.251 . S
O677 C676 1.261 . S
H678 C672 0.930 . S
H679 C674 0.930 . S
N680 Cu669 1.985 . S
N680 C682 1.335 1_545 S
N680 C683 1.390 . S
N681 C682 1.345 . S
N681 C684 1.336 . S
C682 N680 1.335 1_565 S
C682 N681 1.345 . S
C682 H687 0.930 . S
C683 N680 1.390 . S
C683 C684 1.346 1_545 S
C683 H688 0.930 . S
C684 N681 1.336 . S
C684 C683 1.346 1_565 S
C684 H691 0.929 . S
C685 O675 1.282 . S
C685 O686 1.216 . S
O686 C685 1.216 . S
H687 C682 0.930 . S
H688 C683 0.930 . S
O689 Cu669 1.959 . S
O689 C676 1.251 . S
H690 C673 0.930 . S
H691 C684 0.929 . S
Cu692 N693 1.999 . S
Cu692 O698 1.974 . S
Cu692 N703 1.985 . S
Cu692 O712 1.959 . S
N693 Cu692 1.999 . S
N693 C695 1.263 . S
N693 C697 1.389 . S
N694 C695 1.358 . S
N694 C696 1.400 . S
C695 N693 1.263 . S
C695 N694 1.358 . S
C695 H701 0.930 . S
C696 N694 1.400 . S
C696 C697 1.351 . S
C696 H713 0.930 . S
C697 N693 1.389 . S
C697 C696 1.351 . S
C697 H702 0.930 . S
O698 Cu692 1.974 . S
O698 C708 1.282 . S
C699 O700 1.261 . S
C699 O712 1.251 . S
O700 C699 1.261 . S
H701 C695 0.930 . S
H702 C697 0.930 . S
N703 Cu692 1.985 . S
N703 C705 1.335 . S
N703 C706 1.390 . S
N704 C705 1.345 . S
N704 C707 1.336 . S
C705 N703 1.335 . S
C705 N704 1.345 . S
C705 H710 0.930 . S
C706 N703 1.390 . S
C706 C707 1.346 . S
C706 H711 0.930 . S
C707 N704 1.336 . S
C707 C706 1.346 . S
C707 H714 0.929 . S
C708 O698 1.282 . S
C708 O709 1.216 . S
O709 C708 1.216 . S
H710 C705 0.930 . S
H711 C706 0.930 . S
O712 Cu692 1.959 . S
O712 C699 1.251 . S
H713 C696 0.930 . S
H714 C707 0.929 . S
Cu715 N716 1.999 . S
Cu715 O721 1.974 . S
Cu715 N726 1.985 . S
Cu715 O735 1.959 . S
N716 Cu715 1.999 . S
N716 C718 1.263 . S
N716 C720 1.389 . S
N717 C718 1.358 . S
N717 C719 1.400 . S
C718 N716 1.263 . S
C718 N717 1.358 . S
C718 H724 0.930 . S
C719 N717 1.400 . S
C719 C720 1.351 . S
C719 H736 0.930 . S
C720 N716 1.389 . S
C720 C719 1.351 . S
C720 H725 0.930 . S
O721 Cu715 1.974 . S
O721 C731 1.282 . S
C722 O723 1.261 . S
C722 O735 1.251 . S
O723 C722 1.261 . S
H724 C718 0.930 . S
H725 C720 0.930 . S
N726 Cu715 1.985 . S
N726 C728 1.335 . S
N726 C729 1.390 . S
N727 C728 1.345 . S
N727 C730 1.336 . S
C728 N726 1.335 . S
C728 N727 1.345 . S
C728 H733 0.930 . S
C729 N726 1.390 . S
C729 C730 1.346 . S
C729 H734 0.930 . S
C730 N727 1.336 . S
C730 C729 1.346 . S
C730 H737 0.929 . S
C731 O721 1.282 . S
C731 O732 1.216 . S
O732 C731 1.216 . S
H733 C728 0.930 . S
H734 C729 0.930 . S
O735 Cu715 1.959 . S
O735 C722 1.251 . S
H736 C719 0.930 . S
H737 C730 0.929 . S
Cu738 N739 1.999 . S
Cu738 O744 1.974 . S
Cu738 N749 1.985 . S
Cu738 O758 1.959 . S
N739 Cu738 1.999 . S
N739 C741 1.263 . S
N739 C743 1.389 . S
N740 C741 1.358 . S
N740 C742 1.400 . S
C741 N739 1.263 . S
C741 N740 1.358 . S
C741 H747 0.930 . S
C742 N740 1.400 . S
C742 C743 1.351 . S
C742 H759 0.930 . S
C743 N739 1.389 . S
C743 C742 1.351 . S
C743 H748 0.930 . S
O744 Cu738 1.974 . S
O744 C754 1.282 . S
C745 O746 1.261 . S
C745 O758 1.251 . S
O746 C745 1.261 . S
H747 C741 0.930 . S
H748 C743 0.930 . S
N749 Cu738 1.985 . S
N749 C751 1.335 . S
N749 C752 1.390 . S
N750 C751 1.345 . S
N750 C753 1.336 . S
C751 N749 1.335 . S
C751 N750 1.345 . S
C751 H756 0.930 . S
C752 N749 1.390 . S
C752 C753 1.346 . S
C752 H757 0.930 . S
C753 N750 1.336 . S
C753 C752 1.346 . S
C753 H760 0.929 . S
C754 O744 1.282 . S
C754 O755 1.216 . S
O755 C754 1.216 . S
H756 C751 0.930 . S
H757 C752 0.930 . S
O758 Cu738 1.959 . S
O758 C745 1.251 . S
H759 C742 0.930 . S
H760 C753 0.929 . S
Cu761 N762 1.999 . S
Cu761 O767 1.974 . S
Cu761 N772 1.985 . S
Cu761 O781 1.959 . S
N762 Cu761 1.999 . S
N762 C764 1.263 . S
N762 C766 1.389 . S
N763 C764 1.358 . S
N763 C765 1.400 . S
C764 N762 1.263 . S
C764 N763 1.358 . S
C764 H770 0.930 . S
C765 N763 1.400 . S
C765 C766 1.351 . S
C765 H782 0.930 . S
C766 N762 1.389 . S
C766 C765 1.351 . S
C766 H771 0.930 . S
O767 Cu761 1.974 . S
O767 C777 1.282 . S
C768 O769 1.261 . S
C768 O781 1.251 . S
O769 C768 1.261 . S
H770 C764 0.930 . S
H771 C766 0.930 . S
N772 Cu761 1.985 . S
N772 C774 1.335 . S
N772 C775 1.390 . S
N773 C774 1.345 . S
N773 C776 1.336 . S
C774 N772 1.335 . S
C774 N773 1.345 . S
C774 H779 0.930 . S
C775 N772 1.390 . S
C775 C776 1.346 . S
C775 H780 0.930 . S
C776 N773 1.336 . S
C776 C775 1.346 . S
C776 H783 0.929 . S
C777 O767 1.282 . S
C777 O778 1.216 . S
O778 C777 1.216 . S
H779 C774 0.930 . S
H780 C775 0.930 . S
O781 Cu761 1.959 . S
O781 C768 1.251 . S
H782 C765 0.930 . S
H783 C776 0.929 . S
Cu784 N785 1.999 . S
Cu784 O790 1.974 . S
Cu784 N795 1.985 . S
Cu784 O804 1.959 . S
N785 Cu784 1.999 . S
N785 C787 1.263 . S
N785 C789 1.389 . S
N786 C787 1.358 . S
N786 C788 1.400 . S
C787 N785 1.263 . S
C787 N786 1.358 . S
C787 H793 0.930 . S
C788 N786 1.400 . S
C788 C789 1.351 . S
C788 H805 0.930 . S
C789 N785 1.389 . S
C789 C788 1.351 . S
C789 H794 0.930 . S
O790 Cu784 1.974 . S
O790 C800 1.282 . S
C791 O792 1.261 . S
C791 O804 1.251 . S
O792 C791 1.261 . S
H793 C787 0.930 . S
H794 C789 0.930 . S
N795 Cu784 1.985 . S
N795 C797 1.335 . S
N795 C798 1.390 . S
N796 C797 1.345 . S
N796 C799 1.336 . S
C797 N795 1.335 . S
C797 N796 1.345 . S
C797 H802 0.930 . S
C798 N795 1.390 . S
C798 C799 1.346 . S
C798 H803 0.930 . S
C799 N796 1.336 . S
C799 C798 1.346 . S
C799 H806 0.929 . S
C800 O790 1.282 . S
C800 O801 1.216 . S
O801 C800 1.216 . S
H802 C797 0.930 . S
H803 C798 0.930 . S
O804 Cu784 1.959 . S
O804 C791 1.251 . S
H805 C788 0.930 . S
H806 C799 0.929 . S
Cu807 N808 1.999 . S
Cu807 O813 1.974 . S
Cu807 N818 1.985 . S
Cu807 O827 1.959 . S
N808 Cu807 1.999 . S
N808 C810 1.263 . S
N808 C812 1.389 . S
N809 C810 1.358 . S
N809 C811 1.400 . S
C810 N808 1.263 . S
C810 N809 1.358 . S
C810 H816 0.930 . S
C811 N809 1.400 . S
C811 C812 1.351 . S
C811 H828 0.930 . S
C812 N808 1.389 . S
C812 C811 1.351 . S
C812 H817 0.930 . S
O813 Cu807 1.974 . S
O813 C823 1.282 . S
C814 O815 1.261 . S
C814 O827 1.251 . S
O815 C814 1.261 . S
H816 C810 0.930 . S
H817 C812 0.930 . S
N818 Cu807 1.985 . S
N818 C820 1.335 . S
N818 C821 1.390 . S
N819 C820 1.345 . S
N819 C822 1.336 . S
C820 N818 1.335 . S
C820 N819 1.345 . S
C820 H825 0.930 . S
C821 N818 1.390 . S
C821 C822 1.346 . S
C821 H826 0.930 . S
C822 N819 1.336 . S
C822 C821 1.346 . S
C822 H829 0.929 . S
C823 O813 1.282 . S
C823 O824 1.216 . S
O824 C823 1.216 . S
H825 C820 0.930 . S
H826 C821 0.930 . S
O827 Cu807 1.959 . S
O827 C814 1.251 . S
H828 C811 0.930 . S
H829 C822 0.929 . S
Cu830 N831 1.999 . S
Cu830 O836 1.974 . S
Cu830 N841 1.985 . S
Cu830 O850 1.959 . S
N831 Cu830 1.999 . S
N831 C833 1.263 . S
N831 C835 1.389 . S
N832 C833 1.358 . S
N832 C834 1.400 . S
C833 N831 1.263 . S
C833 N832 1.358 . S
C833 H839 0.930 . S
C834 N832 1.400 . S
C834 C835 1.351 . S
C834 H851 0.930 . S
C835 N831 1.389 . S
C835 C834 1.351 . S
C835 H840 0.930 . S
O836 Cu830 1.974 . S
O836 C846 1.282 . S
C837 O838 1.261 . S
C837 O850 1.251 . S
O838 C837 1.261 . S
H839 C833 0.930 . S
H840 C835 0.930 . S
N841 Cu830 1.985 . S
N841 C843 1.335 . S
N841 C844 1.390 . S
N842 C843 1.345 . S
N842 C845 1.336 . S
C843 N841 1.335 . S
C843 N842 1.345 . S
C843 H848 0.930 . S
C844 N841 1.390 . S
C844 C845 1.346 . S
C844 H849 0.930 . S
C845 N842 1.336 . S
C845 C844 1.346 . S
C845 H852 0.929 . S
C846 O836 1.282 . S
C846 O847 1.216 . S
O847 C846 1.216 . S
H848 C843 0.930 . S
H849 C844 0.930 . S
O850 Cu830 1.959 . S
O850 C837 1.251 . S
H851 C834 0.930 . S
H852 C845 0.929 . S
Cu853 N854 1.999 . S
Cu853 O859 1.974 . S
Cu853 N864 1.985 . S
Cu853 O873 1.959 . S
N854 Cu853 1.999 . S
N854 C856 1.263 . S
N854 C858 1.389 . S
N855 C856 1.358 . S
N855 C857 1.400 . S
C856 N854 1.263 . S
C856 N855 1.358 . S
C856 H862 0.930 . S
C857 N855 1.400 . S
C857 C858 1.351 . S
C857 H874 0.930 . S
C858 N854 1.389 . S
C858 C857 1.351 . S
C858 H863 0.930 . S
O859 Cu853 1.974 . S
O859 C869 1.282 . S
C860 O861 1.261 . S
C860 O873 1.251 . S
O861 C860 1.261 . S
H862 C856 0.930 . S
H863 C858 0.930 . S
N864 Cu853 1.985 . S
N864 C866 1.335 . S
N864 C867 1.390 . S
N865 C866 1.345 . S
N865 C868 1.336 . S
C866 N864 1.335 . S
C866 N865 1.345 . S
C866 H871 0.930 . S
C867 N864 1.390 . S
C867 C868 1.346 . S
C867 H872 0.930 . S
C868 N865 1.336 . S
C868 C867 1.346 . S
C868 H875 0.929 . S
C869 O859 1.282 . S
C869 O870 1.216 . S
O870 C869 1.216 . S
H871 C866 0.930 . S
H872 C867 0.930 . S
O873 Cu853 1.959 . S
O873 C860 1.251 . S
H874 C857 0.930 . S
H875 C868 0.929 . S
Cu876 N877 1.999 . S
Cu876 O882 1.974 . S
Cu876 N887 1.985 . S
Cu876 O896 1.959 . S
N877 Cu876 1.999 . S
N877 C879 1.263 . S
N877 C881 1.389 . S
N878 C879 1.358 . S
N878 C880 1.400 . S
C879 N877 1.263 . S
C879 N878 1.358 . S
C879 H885 0.930 . S
C880 N878 1.400 . S
C880 C881 1.351 . S
C880 H897 0.930 . S
C881 N877 1.389 . S
C881 C880 1.351 . S
C881 H886 0.930 . S
O882 Cu876 1.974 . S
O882 C892 1.282 . S
C883 O884 1.261 . S
C883 O896 1.251 . S
O884 C883 1.261 . S
H885 C879 0.930 . S
H886 C881 0.930 . S
N887 Cu876 1.985 . S
N887 C889 1.335 . S
N887 C890 1.390 . S
N888 C889 1.345 . S
N888 C891 1.336 . S
C889 N887 1.335 . S
C889 N888 1.345 . S
C889 H894 0.930 . S
C890 N887 1.390 . S
C890 C891 1.346 . S
C890 H895 0.930 . S
C891 N888 1.336 . S
C891 C890 1.346 . S
C891 H898 0.929 . S
C892 O882 1.282 . S
C892 O893 1.216 . S
O893 C892 1.216 . S
H894 C889 0.930 . S
H895 C890 0.930 . S
O896 Cu876 1.959 . S
O896 C883 1.251 . S
H897 C880 0.930 . S
H898 C891 0.929 . S
Cu899 N900 1.999 . S
Cu899 O905 1.974 . S
Cu899 N910 1.985 . S
Cu899 O919 1.959 . S
N900 Cu899 1.999 . S
N900 C902 1.263 . S
N900 C904 1.389 . S
N901 C902 1.358 . S
N901 C903 1.400 . S
C902 N900 1.263 . S
C902 N901 1.358 . S
C902 H908 0.930 . S
C903 N901 1.400 . S
C903 C904 1.351 . S
C903 H920 0.930 . S
C904 N900 1.389 . S
C904 C903 1.351 . S
C904 H909 0.930 . S
O905 Cu899 1.974 . S
O905 C915 1.282 . S
C906 O907 1.261 . S
C906 O919 1.251 . S
O907 C906 1.261 . S
H908 C902 0.930 . S
H909 C904 0.930 . S
N910 Cu899 1.985 . S
N910 C912 1.335 . S
N910 C913 1.390 . S
N911 C912 1.345 . S
N911 C914 1.336 . S
C912 N910 1.335 . S
C912 N911 1.345 . S
C912 H917 0.930 . S
C913 N910 1.390 . S
C913 C914 1.346 . S
C913 H918 0.930 . S
C914 N911 1.336 . S
C914 C913 1.346 . S
C914 H921 0.929 . S
C915 O905 1.282 . S
C915 O916 1.216 . S
O916 C915 1.216 . S
H917 C912 0.930 . S
H918 C913 0.930 . S
O919 Cu899 1.959 . S
O919 C906 1.251 . S
H920 C903 0.930 . S
H921 C914 0.929 . S
Cu922 N923 1.999 . S
Cu922 O928 1.974 . S
Cu922 N933 1.985 . S
Cu922 O942 1.959 . S
N923 Cu922 1.999 . S
N923 C925 1.263 . S
N923 C927 1.389 . S
N924 C925 1.358 . S
N924 C926 1.400 . S
C925 N923 1.263 . S
C925 N924 1.358 . S
C925 H931 0.930 . S
C926 N924 1.400 . S
C926 C927 1.351 . S
C926 H943 0.930 . S
C927 N923 1.389 . S
C927 C926 1.351 . S
C927 H932 0.930 . S
O928 Cu922 1.974 . S
O928 C938 1.282 . S
C929 O930 1.261 . S
C929 O942 1.251 . S
O930 C929 1.261 . S
H931 C925 0.930 . S
H932 C927 0.930 . S
N933 Cu922 1.985 . S
N933 C935 1.335 . S
N933 C936 1.390 . S
N934 C935 1.345 . S
N934 C937 1.336 . S
C935 N933 1.335 . S
C935 N934 1.345 . S
C935 H940 0.930 . S
C936 N933 1.390 . S
C936 C937 1.346 . S
C936 H941 0.930 . S
C937 N934 1.336 . S
C937 C936 1.346 . S
C937 H944 0.929 . S
C938 O928 1.282 . S
C938 O939 1.216 . S
O939 C938 1.216 . S
H940 C935 0.930 . S
H941 C936 0.930 . S
O942 Cu922 1.959 . S
O942 C929 1.251 . S
H943 C926 0.930 . S
H944 C937 0.929 . S
Cu945 N946 1.999 . S
Cu945 O951 1.974 . S
Cu945 N956 1.985 . S
Cu945 O965 1.959 . S
N946 Cu945 1.999 . S
N946 C948 1.263 . S
N946 C950 1.389 . S
N947 C948 1.358 . S
N947 C949 1.400 . S
C948 N946 1.263 . S
C948 N947 1.358 . S
C948 H954 0.930 . S
C949 N947 1.400 . S
C949 C950 1.351 . S
C949 H966 0.930 . S
C950 N946 1.389 . S
C950 C949 1.351 . S
C950 H955 0.930 . S
O951 Cu945 1.974 . S
O951 C961 1.282 . S
C952 O953 1.261 . S
C952 O965 1.251 . S
O953 C952 1.261 . S
H954 C948 0.930 . S
H955 C950 0.930 . S
N956 Cu945 1.985 . S
N956 C958 1.335 . S
N956 C959 1.390 . S
N957 C958 1.345 . S
N957 C960 1.336 . S
C958 N956 1.335 . S
C958 N957 1.345 . S
C958 H963 0.930 . S
C959 N956 1.390 . S
C959 C960 1.346 . S
C959 H964 0.930 . S
C960 N957 1.336 . S
C960 C959 1.346 . S
C960 H967 0.929 . S
C961 O951 1.282 . S
C961 O962 1.216 . S
O962 C961 1.216 . S
H963 C958 0.930 . S
H964 C959 0.930 . S
O965 Cu945 1.959 . S
O965 C952 1.251 . S
H966 C949 0.930 . S
H967 C960 0.929 . S
C968 C969 1.387 . S
C968 H972 0.950 . S
C968 C977 1.390 . S
C969 C968 1.387 . S
C969 C971 1.387 . S
H970 C977 0.950 . S
C971 C969 1.387 . S
C971 C973 1.390 . S
C971 H975 0.950 . S
H972 C968 0.950 . S
C973 C971 1.390 . S
C973 C974 1.387 . S
C973 H976 0.950 . S
C974 C973 1.387 . S
C974 C977 1.387 . S
H975 C971 0.950 . S
H976 C973 0.950 . S
C977 C968 1.390 . S
C977 H970 0.950 . S
C977 C974 1.387 . S
C978 C979 1.387 . S
C978 H982 0.950 . S
C978 C987 1.390 . S
C979 C978 1.387 . S
C979 C981 1.387 . S
H980 C987 0.950 . S
C981 C979 1.387 . S
C981 C983 1.390 . S
C981 H985 0.950 . S
H982 C978 0.950 . S
C983 C981 1.390 . S
C983 C984 1.387 . S
C983 H986 0.950 . S
C984 C983 1.387 . S
C984 C987 1.387 . S
H985 C981 0.950 . S
H986 C983 0.950 . S
C987 C978 1.390 . S
C987 H980 0.950 . S
C987 C984 1.387 . S
C988 C989 1.387 . S
C988 H992 0.950 . S
C988 C997 1.390 . S
C989 C988 1.387 . S
C989 C991 1.387 . S
H990 C997 0.950 . S
C991 C989 1.387 . S
C991 C993 1.390 . S
C991 H995 0.950 . S
H992 C988 0.950 . S
C993 C991 1.390 . S
C993 C994 1.387 . S
C993 H996 0.950 . S
C994 C993 1.387 . S
C994 C997 1.387 . S
H995 C991 0.950 . S
H996 C993 0.950 . S
C997 C988 1.390 . S
C997 H990 0.950 . S
C997 C994 1.387 . S
C998 C999 1.387 . S
C998 H1002 0.950 . S
C998 C1007 1.390 . S
C999 C998 1.387 . S
C999 C1001 1.387 . S
H1000 C1007 0.950 . S
C1001 C999 1.387 . S
C1001 C1003 1.390 . S
C1001 H1005 0.950 . S
H1002 C998 0.950 . S
C1003 C1001 1.390 . S
C1003 C1004 1.387 . S
C1003 H1006 0.950 . S
C1004 C1003 1.387 . S
C1004 C1007 1.387 . S
H1005 C1001 0.950 . S
H1006 C1003 0.950 . S
C1007 C998 1.390 . S
C1007 H1000 0.950 . S
C1007 C1004 1.387 . S
C1008 C1009 1.387 . S
C1008 H1012 0.950 . S
C1008 C1017 1.390 . S
C1009 C1008 1.387 . S
C1009 C1011 1.387 . S
H1010 C1017 0.950 . S
C1011 C1009 1.387 . S
C1011 C1013 1.390 . S
C1011 H1015 0.950 . S
H1012 C1008 0.950 . S
C1013 C1011 1.390 . S
C1013 C1014 1.387 . S
C1013 H1016 0.950 . S
C1014 C1013 1.387 . S
C1014 C1017 1.387 . S
H1015 C1011 0.950 . S
H1016 C1013 0.950 . S
C1017 C1008 1.390 . S
C1017 H1010 0.950 . S
C1017 C1014 1.387 . S
C1018 C1019 1.387 . S
C1018 H1022 0.950 . S
C1018 C1027 1.390 . S
C1019 C1018 1.387 . S
C1019 C1021 1.387 . S
H1020 C1027 0.950 . S
C1021 C1019 1.387 . S
C1021 C1023 1.390 . S
C1021 H1025 0.950 . S
H1022 C1018 0.950 . S
C1023 C1021 1.390 . S
C1023 C1024 1.387 . S
C1023 H1026 0.950 . S
C1024 C1023 1.387 . S
C1024 C1027 1.387 . S
H1025 C1021 0.950 . S
H1026 C1023 0.950 . S
C1027 C1018 1.390 . S
C1027 H1020 0.950 . S
C1027 C1024 1.387 . S
C1028 C1029 1.387 . S
C1028 H1032 0.950 . S
C1028 C1037 1.390 . S
C1029 C1028 1.387 . S
C1029 C1031 1.387 . S
H1030 C1037 0.950 . S
C1031 C1029 1.387 . S
C1031 C1033 1.390 . S
C1031 H1035 0.950 . S
H1032 C1028 0.950 . S
C1033 C1031 1.390 . S
C1033 C1034 1.387 . S
C1033 H1036 0.950 . S
C1034 C1033 1.387 . S
C1034 C1037 1.387 . S
H1035 C1031 0.950 . S
H1036 C1033 0.950 . S
C1037 C1028 1.390 . S
C1037 H1030 0.950 . S
C1037 C1034 1.387 . S
C1038 C1039 1.387 . S
C1038 H1042 0.950 . S
C1038 C1047 1.390 . S
C1039 C1038 1.387 . S
C1039 C1041 1.387 . S
H1040 C1047 0.950 . S
C1041 C1039 1.387 . S
C1041 C1043 1.390 . S
C1041 H1045 0.950 . S
H1042 C1038 0.950 . S
C1043 C1041 1.390 . S
C1043 C1044 1.387 . S
C1043 H1046 0.950 . S
C1044 C1043 1.387 . S
C1044 C1047 1.387 . S
H1045 C1041 0.950 . S
H1046 C1043 0.950 . S
C1047 C1038 1.390 . S
C1047 H1040 0.950 . S
C1047 C1044 1.387 . S
C1048 C1049 1.387 . S
C1048 H1052 0.950 . S
C1048 C1057 1.390 . S
C1049 C1048 1.387 . S
C1049 C1051 1.387 . S
H1050 C1057 0.950 . S
C1051 C1049 1.387 . S
C1051 C1053 1.390 . S
C1051 H1055 0.950 . S
H1052 C1048 0.950 . S
C1053 C1051 1.390 . S
C1053 C1054 1.387 . S
C1053 H1056 0.950 . S
C1054 C1053 1.387 . S
C1054 C1057 1.387 . S
H1055 C1051 0.950 . S
H1056 C1053 0.950 . S
C1057 C1048 1.390 . S
C1057 H1050 0.950 . S
C1057 C1054 1.387 . S
C1058 C1059 1.387 . S
C1058 H1062 0.950 . S
C1058 C1067 1.390 . S
C1059 C1058 1.387 . S
C1059 C1061 1.387 . S
H1060 C1067 0.950 . S
C1061 C1059 1.387 . S
C1061 C1063 1.390 . S
C1061 H1065 0.950 . S
H1062 C1058 0.950 . S
C1063 C1061 1.390 . S
C1063 C1064 1.387 . S
C1063 H1066 0.950 . S
C1064 C1063 1.387 . S
C1064 C1067 1.387 . S
H1065 C1061 0.950 . S
H1066 C1063 0.950 . S
C1067 C1058 1.390 . S
C1067 H1060 0.950 . S
C1067 C1064 1.387 . S
C1068 C1069 1.387 . S
C1068 H1072 0.950 . S
C1068 C1077 1.390 . S
C1069 C1068 1.387 . S
C1069 C1071 1.387 . S
H1070 C1077 0.950 . S
C1071 C1069 1.387 . S
C1071 C1073 1.390 . S
C1071 H1075 0.950 . S
H1072 C1068 0.950 . S
C1073 C1071 1.390 . S
C1073 C1074 1.387 . S
C1073 H1076 0.950 . S
C1074 C1073 1.387 . S
C1074 C1077 1.387 . S
H1075 C1071 0.950 . S
H1076 C1073 0.950 . S
C1077 C1068 1.390 . S
C1077 H1070 0.950 . S
C1077 C1074 1.387 . S
C1078 C1079 1.387 . S
C1078 H1082 0.950 . S
C1078 C1087 1.390 . S
C1079 C1078 1.387 . S
C1079 C1081 1.387 . S
H1080 C1087 0.950 . S
C1081 C1079 1.387 . S
C1081 C1083 1.390 . S
C1081 H1085 0.950 . S
H1082 C1078 0.950 . S
C1083 C1081 1.390 . S
C1083 C1084 1.387 . S
C1083 H1086 0.950 . S
C1084 C1083 1.387 . S
C1084 C1087 1.387 . S
H1085 C1081 0.950 . S
H1086 C1083 0.950 . S
C1087 C1078 1.390 . S
C1087 H1080 0.950 . S
C1087 C1084 1.387 . S
C1088 C1089 1.387 . S
C1088 H1092 0.950 . S
C1088 C1097 1.390 . S
C1089 C1088 1.387 . S
C1089 C1091 1.387 . S
H1090 C1097 0.950 . S
C1091 C1089 1.387 . S
C1091 C1093 1.390 . S
C1091 H1095 0.950 . S
H1092 C1088 0.950 . S
C1093 C1091 1.390 . S
C1093 C1094 1.387 . S
C1093 H1096 0.950 . S
C1094 C1093 1.387 . S
C1094 C1097 1.387 . S
H1095 C1091 0.950 . S
H1096 C1093 0.950 . S
C1097 C1088 1.390 . S
C1097 H1090 0.950 . S
C1097 C1094 1.387 . S
C1098 C1099 1.387 . S
C1098 H1102 0.950 . S
C1098 C1107 1.390 . S
C1099 C1098 1.387 . S
C1099 C1101 1.387 . S
H1100 C1107 0.950 . S
C1101 C1099 1.387 . S
C1101 C1103 1.390 . S
C1101 H1105 0.950 . S
H1102 C1098 0.950 . S
C1103 C1101 1.390 . S
C1103 C1104 1.387 . S
C1103 H1106 0.950 . S
C1104 C1103 1.387 . S
C1104 C1107 1.387 . S
H1105 C1101 0.950 . S
H1106 C1103 0.950 . S
C1107 C1098 1.390 . S
C1107 H1100 0.950 . S
C1107 C1104 1.387 . S
C1108 C1109 1.387 . S
C1108 H1112 0.950 . S
C1108 C1117 1.390 . S
C1109 C1108 1.387 . S
C1109 C1111 1.387 . S
H1110 C1117 0.950 . S
C1111 C1109 1.387 . S
C1111 C1113 1.390 . S
C1111 H1115 0.950 . S
H1112 C1108 0.950 . S
C1113 C1111 1.390 . S
C1113 C1114 1.387 . S
C1113 H1116 0.950 . S
C1114 C1113 1.387 . S
C1114 C1117 1.387 . S
H1115 C1111 0.950 . S
H1116 C1113 0.950 . S
C1117 C1108 1.390 . S
C1117 H1110 0.950 . S
C1117 C1114 1.387 . S
C1118 C1119 1.387 . S
C1118 H1122 0.950 . S
C1118 C1127 1.390 . S
C1119 C1118 1.387 . S
C1119 C1121 1.387 . S
H1120 C1127 0.950 . S
C1121 C1119 1.387 . S
C1121 C1123 1.390 . S
C1121 H1125 0.950 . S
H1122 C1118 0.950 . S
C1123 C1121 1.390 . S
C1123 C1124 1.387 . S
C1123 H1126 0.950 . S
C1124 C1123 1.387 . S
C1124 C1127 1.387 . S
H1125 C1121 0.950 . S
H1126 C1123 0.950 . S
C1127 C1118 1.390 . S
C1127 H1120 0.950 . S
C1127 C1124 1.387 . S
C1128 C1129 1.387 . S
C1128 H1132 0.950 . S
C1128 C1137 1.390 . S
C1129 C1128 1.387 . S
C1129 C1131 1.387 . S
H1130 C1137 0.950 . S
C1131 C1129 1.387 . S
C1131 C1133 1.390 . S
C1131 H1135 0.950 . S
H1132 C1128 0.950 . S
C1133 C1131 1.390 . S
C1133 C1134 1.387 . S
C1133 H1136 0.950 . S
C1134 C1133 1.387 . S
C1134 C1137 1.387 . S
H1135 C1131 0.950 . S
H1136 C1133 0.950 . S
C1137 C1128 1.390 . S
C1137 H1130 0.950 . S
C1137 C1134 1.387 . S
C1138 C1139 1.387 . S
C1138 H1142 0.950 . S
C1138 C1147 1.390 . S
C1139 C1138 1.387 . S
C1139 C1141 1.387 . S
H1140 C1147 0.950 . S
C1141 C1139 1.387 . S
C1141 C1143 1.390 . S
C1141 H1145 0.950 . S
H1142 C1138 0.950 . S
C1143 C1141 1.390 . S
C1143 C1144 1.387 . S
C1143 H1146 0.950 . S
C1144 C1143 1.387 . S
C1144 C1147 1.387 . S
H1145 C1141 0.950 . S
H1146 C1143 0.950 . S
C1147 C1138 1.390 . S
C1147 H1140 0.950 . S
C1147 C1144 1.387 . S
C1148 C1149 1.387 . S
C1148 H1152 0.950 . S
C1148 C1157 1.390 . S
C1149 C1148 1.387 . S
C1149 C1151 1.387 . S
H1150 C1157 0.950 . S
C1151 C1149 1.387 . S
C1151 C1153 1.390 . S
C1151 H1155 0.950 . S
H1152 C1148 0.950 . S
C1153 C1151 1.390 . S
C1153 C1154 1.387 . S
C1153 H1156 0.950 . S
C1154 C1153 1.387 . S
C1154 C1157 1.387 . S
H1155 C1151 0.950 . S
H1156 C1153 0.950 . S
C1157 C1148 1.390 . S
C1157 H1150 0.950 . S
C1157 C1154 1.387 . S
C1158 C1159 1.387 . S
C1158 H1162 0.950 . S
C1158 C1167 1.390 . S
C1159 C1158 1.387 . S
C1159 C1161 1.387 . S
H1160 C1167 0.950 . S
C1161 C1159 1.387 . S
C1161 C1163 1.390 . S
C1161 H1165 0.950 . S
H1162 C1158 0.950 . S
C1163 C1161 1.390 . S
C1163 C1164 1.387 . S
C1163 H1166 0.950 . S
C1164 C1163 1.387 . S
C1164 C1167 1.387 . S
H1165 C1161 0.950 . S
H1166 C1163 0.950 . S
C1167 C1158 1.390 . S
C1167 H1160 0.950 . S
C1167 C1164 1.387 . S
C1168 C1169 1.387 . S
C1168 H1172 0.950 . S
C1168 C1177 1.390 . S
C1169 C1168 1.387 . S
C1169 C1171 1.387 . S
H1170 C1177 0.950 . S
C1171 C1169 1.387 . S
C1171 C1173 1.390 . S
C1171 H1175 0.950 . S
H1172 C1168 0.950 . S
C1173 C1171 1.390 . S
C1173 C1174 1.387 . S
C1173 H1176 0.950 . S
C1174 C1173 1.387 . S
C1174 C1177 1.387 . S
H1175 C1171 0.950 . S
H1176 C1173 0.950 . S
C1177 C1168 1.390 . S
C1177 H1170 0.950 . S
C1177 C1174 1.387 . S
C1178 C1179 1.387 . S
C1178 H1182 0.950 . S
C1178 C1187 1.390 . S
C1179 C1178 1.387 . S
C1179 C1181 1.387 . S
H1180 C1187 0.950 . S
C1181 C1179 1.387 . S
C1181 C1183 1.390 . S
C1181 H1185 0.950 . S
H1182 C1178 0.950 . S
C1183 C1181 1.390 . S
C1183 C1184 1.387 . S
C1183 H1186 0.950 . S
C1184 C1183 1.387 . S
C1184 C1187 1.387 . S
H1185 C1181 0.950 . S
H1186 C1183 0.950 . S
C1187 C1178 1.390 . S
C1187 H1180 0.950 . S
C1187 C1184 1.387 . S
C1188 C1189 1.387 . S
C1188 H1192 0.950 . S
C1188 C1197 1.390 . S
C1189 C1188 1.387 . S
C1189 C1191 1.387 . S
H1190 C1197 0.950 . S
C1191 C1189 1.387 . S
C1191 C1193 1.390 . S
C1191 H1195 0.950 . S
H1192 C1188 0.950 . S
C1193 C1191 1.390 . S
C1193 C1194 1.387 . S
C1193 H1196 0.950 . S
C1194 C1193 1.387 . S
C1194 C1197 1.387 . S
H1195 C1191 0.950 . S
H1196 C1193 0.950 . S
C1197 C1188 1.390 . S
C1197 H1190 0.950 . S
C1197 C1194 1.387 . S
C1198 C1199 1.387 . S
C1198 H1202 0.950 . S
C1198 C1207 1.390 . S
C1199 C1198 1.387 . S
C1199 C1201 1.387 . S
H1200 C1207 0.950 . S
C1201 C1199 1.387 . S
C1201 C1203 1.390 . S
C1201 H1205 0.950 . S
H1202 C1198 0.950 . S
C1203 C1201 1.390 . S
C1203 C1204 1.387 . S
C1203 H1206 0.950 . S
C1204 C1203 1.387 . S
C1204 C1207 1.387 . S
H1205 C1201 0.950 . S
H1206 C1203 0.950 . S
C1207 C1198 1.390 . S
C1207 H1200 0.950 . S
C1207 C1204 1.387 . S
C1208 C1209 1.387 . S
C1208 H1212 0.950 . S
C1208 C1217 1.390 . S
C1209 C1208 1.387 . S
C1209 C1211 1.387 . S
H1210 C1217 0.950 . S
C1211 C1209 1.387 . S
C1211 C1213 1.390 . S
C1211 H1215 0.950 . S
H1212 C1208 0.950 . S
C1213 C1211 1.390 . S
C1213 C1214 1.387 . S
C1213 H1216 0.950 . S
C1214 C1213 1.387 . S
C1214 C1217 1.387 . S
H1215 C1211 0.950 . S
H1216 C1213 0.950 . S
C1217 C1208 1.390 . S
C1217 H1210 0.950 . S
C1217 C1214 1.387 . S
C1218 C1219 1.387 . S
C1218 H1222 0.950 . S
C1218 C1227 1.390 . S
C1219 C1218 1.387 . S
C1219 C1221 1.387 . S
H1220 C1227 0.950 . S
C1221 C1219 1.387 . S
C1221 C1223 1.390 . S
C1221 H1225 0.950 . S
H1222 C1218 0.950 . S
C1223 C1221 1.390 . S
C1223 C1224 1.387 . S
C1223 H1226 0.950 . S
C1224 C1223 1.387 . S
C1224 C1227 1.387 . S
H1225 C1221 0.950 . S
H1226 C1223 0.950 . S
C1227 C1218 1.390 . S
C1227 H1220 0.950 . S
C1227 C1224 1.387 . S
C1228 C1229 1.387 . S
C1228 H1232 0.950 . S
C1228 C1237 1.390 . S
C1229 C1228 1.387 . S
C1229 C1231 1.387 . S
H1230 C1237 0.950 . S
C1231 C1229 1.387 . S
C1231 C1233 1.390 . S
C1231 H1235 0.950 . S
H1232 C1228 0.950 . S
C1233 C1231 1.390 . S
C1233 C1234 1.387 . S
C1233 H1236 0.950 . S
C1234 C1233 1.387 . S
C1234 C1237 1.387 . S
H1235 C1231 0.950 . S
H1236 C1233 0.950 . S
C1237 C1228 1.390 . S
C1237 H1230 0.950 . S
C1237 C1234 1.387 . S
C1238 C1239 1.387 . S
C1238 H1242 0.950 . S
C1238 C1247 1.390 . S
C1239 C1238 1.387 . S
C1239 C1241 1.387 . S
H1240 C1247 0.950 . S
C1241 C1239 1.387 . S
C1241 C1243 1.390 . S
C1241 H1245 0.950 . S
H1242 C1238 0.950 . S
C1243 C1241 1.390 . S
C1243 C1244 1.387 . S
C1243 H1246 0.950 . S
C1244 C1243 1.387 . S
C1244 C1247 1.387 . S
H1245 C1241 0.950 . S
H1246 C1243 0.950 . S
C1247 C1238 1.390 . S
C1247 H1240 0.950 . S
C1247 C1244 1.387 . S
C1248 C1249 1.387 . S
C1248 H1252 0.950 . S
C1248 C1257 1.390 . S
C1249 C1248 1.387 . S
C1249 C1251 1.387 . S
H1250 C1257 0.950 . S
C1251 C1249 1.387 . S
C1251 C1253 1.390 . S
C1251 H1255 0.950 . S
H1252 C1248 0.950 . S
C1253 C1251 1.390 . S
C1253 C1254 1.387 . S
C1253 H1256 0.950 . S
C1254 C1253 1.387 . S
C1254 C1257 1.387 . S
H1255 C1251 0.950 . S
H1256 C1253 0.950 . S
C1257 C1248 1.390 . S
C1257 H1250 0.950 . S
C1257 C1254 1.387 . S
C1258 C1259 1.387 . S
C1258 H1262 0.950 . S
C1258 C1267 1.390 . S
C1259 C1258 1.387 . S
C1259 C1261 1.387 . S
H1260 C1267 0.950 . S
C1261 C1259 1.387 . S
C1261 C1263 1.390 . S
C1261 H1265 0.950 . S
H1262 C1258 0.950 . S
C1263 C1261 1.390 . S
C1263 C1264 1.387 . S
C1263 H1266 0.950 . S
C1264 C1263 1.387 . S
C1264 C1267 1.387 . S
H1265 C1261 0.950 . S
H1266 C1263 0.950 . S
C1267 C1258 1.390 . S
C1267 H1260 0.950 . S
C1267 C1264 1.387 . S
C1268 C1269 1.387 . S
C1268 H1272 0.950 . S
C1268 C1277 1.390 . S
C1269 C1268 1.387 . S
C1269 C1271 1.387 . S
H1270 C1277 0.950 . S
C1271 C1269 1.387 . S
C1271 C1273 1.390 . S
C1271 H1275 0.950 . S
H1272 C1268 0.950 . S
C1273 C1271 1.390 . S
C1273 C1274 1.387 . S
C1273 H1276 0.950 . S
C1274 C1273 1.387 . S
C1274 C1277 1.387 . S
H1275 C1271 0.950 . S
H1276 C1273 0.950 . S
C1277 C1268 1.390 . S
C1277 H1270 0.950 . S
C1277 C1274 1.387 . S
C1278 C1279 1.387 . S
C1278 H1282 0.950 . S
C1278 C1287 1.390 . S
C1279 C1278 1.387 . S
C1279 C1281 1.387 . S
H1280 C1287 0.950 . S
C1281 C1279 1.387 . S
C1281 C1283 1.390 . S
C1281 H1285 0.950 . S
H1282 C1278 0.950 . S
C1283 C1281 1.390 . S
C1283 C1284 1.387 . S
C1283 H1286 0.950 . S
C1284 C1283 1.387 . S
C1284 C1287 1.387 . S
H1285 C1281 0.950 . S
H1286 C1283 0.950 . S
C1287 C1278 1.390 . S
C1287 H1280 0.950 . S
C1287 C1284 1.387 . S
C1288 C1289 1.387 . S
C1288 H1292 0.950 . S
C1288 C1297 1.390 . S
C1289 C1288 1.387 . S
C1289 C1291 1.387 . S
H1290 C1297 0.950 . S
C1291 C1289 1.387 . S
C1291 C1293 1.390 . S
C1291 H1295 0.950 . S
H1292 C1288 0.950 . S
C1293 C1291 1.390 . S
C1293 C1294 1.387 . S
C1293 H1296 0.950 . S
C1294 C1293 1.387 . S
C1294 C1297 1.387 . S
H1295 C1291 0.950 . S
H1296 C1293 0.950 . S
C1297 C1288 1.390 . S
C1297 H1290 0.950 . S
C1297 C1294 1.387 . S
C1298 C1299 1.387 . S
C1298 H1302 0.950 . S
C1298 C1307 1.390 . S
C1299 C1298 1.387 . S
C1299 C1301 1.387 . S
H1300 C1307 0.950 . S
C1301 C1299 1.387 . S
C1301 C1303 1.390 . S
C1301 H1305 0.950 . S
H1302 C1298 0.950 . S
C1303 C1301 1.390 . S
C1303 C1304 1.387 . S
C1303 H1306 0.950 . S
C1304 C1303 1.387 . S
C1304 C1307 1.387 . S
H1305 C1301 0.950 . S
H1306 C1303 0.950 . S
C1307 C1298 1.390 . S
C1307 H1300 0.950 . S
C1307 C1304 1.387 . S
C1308 C1309 1.387 . S
C1308 H1312 0.950 . S
C1308 C1317 1.390 . S
C1309 C1308 1.387 . S
C1309 C1311 1.387 . S
H1310 C1317 0.950 . S
C1311 C1309 1.387 . S
C1311 C1313 1.390 . S
C1311 H1315 0.950 . S
H1312 C1308 0.950 . S
C1313 C1311 1.390 . S
C1313 C1314 1.387 . S
C1313 H1316 0.950 . S
C1314 C1313 1.387 . S
C1314 C1317 1.387 . S
H1315 C1311 0.950 . S
H1316 C1313 0.950 . S
C1317 C1308 1.390 . S
C1317 H1310 0.950 . S
C1317 C1314 1.387 . S
C1318 C1319 1.387 . S
C1318 H1322 0.950 . S
C1318 C1327 1.390 . S
C1319 C1318 1.387 . S
C1319 C1321 1.387 . S
H1320 C1327 0.950 . S
C1321 C1319 1.387 . S
C1321 C1323 1.390 . S
C1321 H1325 0.950 . S
H1322 C1318 0.950 . S
C1323 C1321 1.390 . S
C1323 C1324 1.387 . S
C1323 H1326 0.950 . S
C1324 C1323 1.387 . S
C1324 C1327 1.387 . S
H1325 C1321 0.950 . S
H1326 C1323 0.950 . S
C1327 C1318 1.390 . S
C1327 H1320 0.950 . S
C1327 C1324 1.387 . S
C1328 C1329 1.387 . S
C1328 H1332 0.950 . S
C1328 C1337 1.390 . S
C1329 C1328 1.387 . S
C1329 C1331 1.387 . S
H1330 C1337 0.950 . S
C1331 C1329 1.387 . S
C1331 C1333 1.390 . S
C1331 H1335 0.950 . S
H1332 C1328 0.950 . S
C1333 C1331 1.390 . S
C1333 C1334 1.387 . S
C1333 H1336 0.950 . S
C1334 C1333 1.387 . S
C1334 C1337 1.387 . S
H1335 C1331 0.950 . S
H1336 C1333 0.950 . S
C1337 C1328 1.390 . S
C1337 H1330 0.950 . S
C1337 C1334 1.387 . S
C1338 C1339 1.387 . S
C1338 H1342 0.950 . S
C1338 C1347 1.390 . S
C1339 C1338 1.387 . S
C1339 C1341 1.387 . S
H1340 C1347 0.950 . S
C1341 C1339 1.387 . S
C1341 C1343 1.390 . S
C1341 H1345 0.950 . S
H1342 C1338 0.950 . S
C1343 C1341 1.390 . S
C1343 C1344 1.387 . S
C1343 H1346 0.950 . S
C1344 C1343 1.387 . S
C1344 C1347 1.387 . S
H1345 C1341 0.950 . S
H1346 C1343 0.950 . S
C1347 C1338 1.390 . S
C1347 H1340 0.950 . S
C1347 C1344 1.387 . S
C1348 C1349 1.387 . S
C1348 H1352 0.950 . S
C1348 C1357 1.390 . S
C1349 C1348 1.387 . S
C1349 C1351 1.387 . S
H1350 C1357 0.950 . S
C1351 C1349 1.387 . S
C1351 C1353 1.390 . S
C1351 H1355 0.950 . S
H1352 C1348 0.950 . S
C1353 C1351 1.390 . S
C1353 C1354 1.387 . S
C1353 H1356 0.950 . S
C1354 C1353 1.387 . S
C1354 C1357 1.387 . S
H1355 C1351 0.950 . S
H1356 C1353 0.950 . S
C1357 C1348 1.390 . S
C1357 H1350 0.950 . S
C1357 C1354 1.387 . S
C1358 C1359 1.387 . S
C1358 H1362 0.950 . S
C1358 C1367 1.390 . S
C1359 C1358 1.387 . S
C1359 C1361 1.387 . S
H1360 C1367 0.950 . S
C1361 C1359 1.387 . S
C1361 C1363 1.390 . S
C1361 H1365 0.950 . S
H1362 C1358 0.950 . S
C1363 C1361 1.390 . S
C1363 C1364 1.387 . S
C1363 H1366 0.950 . S
C1364 C1363 1.387 . S
C1364 C1367 1.387 . S
H1365 C1361 0.950 . S
H1366 C1363 0.950 . S
C1367 C1358 1.390 . S
C1367 H1360 0.950 . S
C1367 C1364 1.387 . S
C1368 C1369 1.387 . S
C1368 H1372 0.950 . S
C1368 C1377 1.390 . S
C1369 C1368 1.387 . S
C1369 C1371 1.387 . S
H1370 C1377 0.950 . S
C1371 C1369 1.387 . S
C1371 C1373 1.390 . S
C1371 H1375 0.950 . S
H1372 C1368 0.950 . S
C1373 C1371 1.390 . S
C1373 C1374 1.387 . S
C1373 H1376 0.950 . S
C1374 C1373 1.387 . S
C1374 C1377 1.387 . S
H1375 C1371 0.950 . S
H1376 C1373 0.950 . S
C1377 C1368 1.390 . S
C1377 H1370 0.950 . S
C1377 C1374 1.387 . S
C1378 C1379 1.387 . S
C1378 H1382 0.950 . S
C1378 C1387 1.390 . S
C1379 C1378 1.387 . S
C1379 C1381 1.387 . S
H1380 C1387 0.950 . S
C1381 C1379 1.387 . S
C1381 C1383 1.390 . S
C1381 H1385 0.950 . S
H1382 C1378 0.950 . S
C1383 C1381 1.390 . S
C1383 C1384 1.387 . S
C1383 H1386 0.950 . S
C1384 C1383 1.387 . S
C1384 C1387 1.387 . S
H1385 C1381 0.950 . S
H1386 C1383 0.950 . S
C1387 C1378 1.390 . S
C1387 H1380 0.950 . S
C1387 C1384 1.387 . S
C1388 C1389 1.387 . S
C1388 H1392 0.950 . S
C1388 C1397 1.390 . S
C1389 C1388 1.387 . S
C1389 C1391 1.387 . S
H1390 C1397 0.950 . S
C1391 C1389 1.387 . S
C1391 C1393 1.390 . S
C1391 H1395 0.950 . S
H1392 C1388 0.950 . S
C1393 C1391 1.390 . S
C1393 C1394 1.387 . S
C1393 H1396 0.950 . S
C1394 C1393 1.387 . S
C1394 C1397 1.387 . S
H1395 C1391 0.950 . S
H1396 C1393 0.950 . S
C1397 C1388 1.390 . S
C1397 H1390 0.950 . S
C1397 C1394 1.387 . S
C1398 C1399 1.387 . S
C1398 H1402 0.950 . S
C1398 C1407 1.390 . S
C1399 C1398 1.387 . S
C1399 C1401 1.387 . S
H1400 C1407 0.950 . S
C1401 C1399 1.387 . S
C1401 C1403 1.390 . S
C1401 H1405 0.950 . S
H1402 C1398 0.950 . S
C1403 C1401 1.390 . S
C1403 C1404 1.387 . S
C1403 H1406 0.950 . S
C1404 C1403 1.387 . S
C1404 C1407 1.387 . S
H1405 C1401 0.950 . S
H1406 C1403 0.950 . S
C1407 C1398 1.390 . S
C1407 H1400 0.950 . S
C1407 C1404 1.387 . S
C1408 C1409 1.387 . S
C1408 H1412 0.950 . S
C1408 C1417 1.390 . S
C1409 C1408 1.387 . S
C1409 C1411 1.387 . S
H1410 C1417 0.950 . S
C1411 C1409 1.387 . S
C1411 C1413 1.390 . S
C1411 H1415 0.950 . S
H1412 C1408 0.950 . S
C1413 C1411 1.390 . S
C1413 C1414 1.387 . S
C1413 H1416 0.950 . S
C1414 C1413 1.387 . S
C1414 C1417 1.387 . S
H1415 C1411 0.950 . S
H1416 C1413 0.950 . S
C1417 C1408 1.390 . S
C1417 H1410 0.950 . S
C1417 C1414 1.387 . S
C1418 C1419 1.387 . S
C1418 H1422 0.950 . S
C1418 C1427 1.390 . S
C1419 C1418 1.387 . S
C1419 C1421 1.387 . S
H1420 C1427 0.950 . S
C1421 C1419 1.387 . S
C1421 C1423 1.390 . S
C1421 H1425 0.950 . S
H1422 C1418 0.950 . S
C1423 C1421 1.390 . S
C1423 C1424 1.387 . S
C1423 H1426 0.950 . S
C1424 C1423 1.387 . S
C1424 C1427 1.387 . S
H1425 C1421 0.950 . S
H1426 C1423 0.950 . S
C1427 C1418 1.390 . S
C1427 H1420 0.950 . S
C1427 C1424 1.387 . S
C1428 C1429 1.387 . S
C1428 H1432 0.950 . S
C1428 C1437 1.390 . S
C1429 C1428 1.387 . S
C1429 C1431 1.387 . S
H1430 C1437 0.950 . S
C1431 C1429 1.387 . S
C1431 C1433 1.390 . S
C1431 H1435 0.950 . S
H1432 C1428 0.950 . S
C1433 C1431 1.390 . S
C1433 C1434 1.387 . S
C1433 H1436 0.950 . S
C1434 C1433 1.387 . S
C1434 C1437 1.387 . S
H1435 C1431 0.950 . S
H1436 C1433 0.950 . S
C1437 C1428 1.390 . S
C1437 H1430 0.950 . S
C1437 C1434 1.387 . S
C1438 C1439 1.387 . S
C1438 H1442 0.950 . S
C1438 C1447 1.390 . S
C1439 C1438 1.387 . S
C1439 C1441 1.387 . S
H1440 C1447 0.950 . S
C1441 C1439 1.387 . S
C1441 C1443 1.390 . S
C1441 H1445 0.950 . S
H1442 C1438 0.950 . S
C1443 C1441 1.390 . S
C1443 C1444 1.387 . S
C1443 H1446 0.950 . S
C1444 C1443 1.387 . S
C1444 C1447 1.387 . S
H1445 C1441 0.950 . S
H1446 C1443 0.950 . S
C1447 C1438 1.390 . S
C1447 H1440 0.950 . S
C1447 C1444 1.387 . S
C1448 C1449 1.387 . S
C1448 H1452 0.950 . S
C1448 C1457 1.390 . S
C1449 C1448 1.387 . S
C1449 C1451 1.387 . S
H1450 C1457 0.950 . S
C1451 C1449 1.387 . S
C1451 C1453 1.390 . S
C1451 H1455 0.950 . S
H1452 C1448 0.950 . S
C1453 C1451 1.390 . S
C1453 C1454 1.387 . S
C1453 H1456 0.950 . S
C1454 C1453 1.387 . S
C1454 C1457 1.387 . S
H1455 C1451 0.950 . S
H1456 C1453 0.950 . S
C1457 C1448 1.390 . S
C1457 H1450 0.950 . S
C1457 C1454 1.387 . S
C1458 C1459 1.387 . S
C1458 H1462 0.950 . S
C1458 C1467 1.390 . S
C1459 C1458 1.387 . S
C1459 C1461 1.387 . S
H1460 C1467 0.950 . S
C1461 C1459 1.387 . S
C1461 C1463 1.390 . S
C1461 H1465 0.950 . S
H1462 C1458 0.950 . S
C1463 C1461 1.390 . S
C1463 C1464 1.387 . S
C1463 H1466 0.950 . S
C1464 C1463 1.387 . S
C1464 C1467 1.387 . S
H1465 C1461 0.950 . S
H1466 C1463 0.950 . S
C1467 C1458 1.390 . S
C1467 H1460 0.950 . S
C1467 C1464 1.387 . S
C1468 C1469 1.387 . S
C1468 H1472 0.950 . S
C1468 C1477 1.390 . S
C1469 C1468 1.387 . S
C1469 C1471 1.387 . S
H1470 C1477 0.950 . S
C1471 C1469 1.387 . S
C1471 C1473 1.390 . S
C1471 H1475 0.950 . S
H1472 C1468 0.950 . S
C1473 C1471 1.390 . S
C1473 C1474 1.387 . S
C1473 H1476 0.950 . S
C1474 C1473 1.387 . S
C1474 C1477 1.387 . S
H1475 C1471 0.950 . S
H1476 C1473 0.950 . S
C1477 C1468 1.390 . S
C1477 H1470 0.950 . S
C1477 C1474 1.387 . S
C1478 C1479 1.387 . S
C1478 H1482 0.950 . S
C1478 C1487 1.390 . S
C1479 C1478 1.387 . S
C1479 C1481 1.387 . S
H1480 C1487 0.950 . S
C1481 C1479 1.387 . S
C1481 C1483 1.390 . S
C1481 H1485 0.950 . S
H1482 C1478 0.950 . S
C1483 C1481 1.390 . S
C1483 C1484 1.387 . S
C1483 H1486 0.950 . S
C1484 C1483 1.387 . S
C1484 C1487 1.387 . S
H1485 C1481 0.950 . S
H1486 C1483 0.950 . S
C1487 C1478 1.390 . S
C1487 H1480 0.950 . S
C1487 C1484 1.387 . S
C1488 C1489 1.387 . S
C1488 H1492 0.950 . S
C1488 C1497 1.390 . S
C1489 C1488 1.387 . S
C1489 C1491 1.387 . S
H1490 C1497 0.950 . S
C1491 C1489 1.387 . S
C1491 C1493 1.390 . S
C1491 H1495 0.950 . S
H1492 C1488 0.950 . S
C1493 C1491 1.390 . S
C1493 C1494 1.387 . S
C1493 H1496 0.950 . S
C1494 C1493 1.387 . S
C1494 C1497 1.387 . S
H1495 C1491 0.950 . S
H1496 C1493 0.950 . S
C1497 C1488 1.390 . S
C1497 H1490 0.950 . S
C1497 C1494 1.387 . S
C1498 C1499 1.387 . S
C1498 H1502 0.950 . S
C1498 C1507 1.390 . S
C1499 C1498 1.387 . S
C1499 C1501 1.387 . S
H1500 C1507 0.950 . S
C1501 C1499 1.387 . S
C1501 C1503 1.390 . S
C1501 H1505 0.950 . S
H1502 C1498 0.950 . S
C1503 C1501 1.390 . S
C1503 C1504 1.387 . S
C1503 H1506 0.950 . S
C1504 C1503 1.387 . S
C1504 C1507 1.387 . S
H1505 C1501 0.950 . S
H1506 C1503 0.950 . S
C1507 C1498 1.390 . S
C1507 H1500 0.950 . S
C1507 C1504 1.387 . S
C1508 C1509 1.387 . S
C1508 H1512 0.950 . S
C1508 C1517 1.390 . S
C1509 C1508 1.387 . S
C1509 C1511 1.387 . S
H1510 C1517 0.950 . S
C1511 C1509 1.387 . S
C1511 C1513 1.390 . S
C1511 H1515 0.950 . S
H1512 C1508 0.950 . S
C1513 C1511 1.390 . S
C1513 C1514 1.387 . S
C1513 H1516 0.950 . S
C1514 C1513 1.387 . S
C1514 C1517 1.387 . S
H1515 C1511 0.950 . S
H1516 C1513 0.950 . S
C1517 C1508 1.390 . S
C1517 H1510 0.950 . S
C1517 C1514 1.387 . S
C1518 C1519 1.387 . S
C1518 H1522 0.950 . S
C1518 C1527 1.390 . S
C1519 C1518 1.387 . S
C1519 C1521 1.387 . S
H1520 C1527 0.950 . S
C1521 C1519 1.387 . S
C1521 C1523 1.390 . S
C1521 H1525 0.950 . S
H1522 C1518 0.950 . S
C1523 C1521 1.390 . S
C1523 C1524 1.387 . S
C1523 H1526 0.950 . S
C1524 C1523 1.387 . S
C1524 C1527 1.387 . S
H1525 C1521 0.950 . S
H1526 C1523 0.950 . S
C1527 C1518 1.390 . S
C1527 H1520 0.950 . S
C1527 C1524 1.387 . S
C1528 C1529 1.387 . S
C1528 H1532 0.950 . S
C1528 C1537 1.390 . S
C1529 C1528 1.387 . S
C1529 C1531 1.387 . S
H1530 C1537 0.950 . S
C1531 C1529 1.387 . S
C1531 C1533 1.390 . S
C1531 H1535 0.950 . S
H1532 C1528 0.950 . S
C1533 C1531 1.390 . S
C1533 C1534 1.387 . S
C1533 H1536 0.950 . S
C1534 C1533 1.387 . S
C1534 C1537 1.387 . S
H1535 C1531 0.950 . S
H1536 C1533 0.950 . S
C1537 C1528 1.390 . S
C1537 H1530 0.950 . S
C1537 C1534 1.387 . S
C1538 C1539 1.387 . S
C1538 H1542 0.950 . S
C1538 C1547 1.390 . S
C1539 C1538 1.387 . S
C1539 C1541 1.387 . S
H1540 C1547 0.950 . S
C1541 C1539 1.387 . S
C1541 C1543 1.390 . S
C1541 H1545 0.950 . S
H1542 C1538 0.950 . S
C1543 C1541 1.390 . S
C1543 C1544 1.387 . S
C1543 H1546 0.950 . S
C1544 C1543 1.387 . S
C1544 C1547 1.387 . S
H1545 C1541 0.950 . S
H1546 C1543 0.950 . S
C1547 C1538 1.390 . S
C1547 H1540 0.950 . S
C1547 C1544 1.387 . S
C1548 C1549 1.387 . S
C1548 H1552 0.950 . S
C1548 C1557 1.390 . S
C1549 C1548 1.387 . S
C1549 C1551 1.387 . S
H1550 C1557 0.950 . S
C1551 C1549 1.387 . S
C1551 C1553 1.390 . S
C1551 H1555 0.950 . S
H1552 C1548 0.950 . S
C1553 C1551 1.390 . S
C1553 C1554 1.387 . S
C1553 H1556 0.950 . S
C1554 C1553 1.387 . S
C1554 C1557 1.387 . S
H1555 C1551 0.950 . S
H1556 C1553 0.950 . S
C1557 C1548 1.390 . S
C1557 H1550 0.950 . S
C1557 C1554 1.387 . S
C1558 C1559 1.387 . S
C1558 H1562 0.950 . S
C1558 C1567 1.390 . S
C1559 C1558 1.387 . S
C1559 C1561 1.387 . S
H1560 C1567 0.950 . S
C1561 C1559 1.387 . S
C1561 C1563 1.390 . S
C1561 H1565 0.950 . S
H1562 C1558 0.950 . S
C1563 C1561 1.390 . S
C1563 C1564 1.387 . S
C1563 H1566 0.950 . S
C1564 C1563 1.387 . S
C1564 C1567 1.387 . S
H1565 C1561 0.950 . S
H1566 C1563 0.950 . S
C1567 C1558 1.390 . S
C1567 H1560 0.950 . S
C1567 C1564 1.387 . S
C1568 C1569 1.387 . S
C1568 H1572 0.950 . S
C1568 C1577 1.390 . S
C1569 C1568 1.387 . S
C1569 C1571 1.387 . S
H1570 C1577 0.950 . S
C1571 C1569 1.387 . S
C1571 C1573 1.390 . S
C1571 H1575 0.950 . S
H1572 C1568 0.950 . S
C1573 C1571 1.390 . S
C1573 C1574 1.387 . S
C1573 H1576 0.950 . S
C1574 C1573 1.387 . S
C1574 C1577 1.387 . S
H1575 C1571 0.950 . S
H1576 C1573 0.950 . S
C1577 C1568 1.390 . S
C1577 H1570 0.950 . S
C1577 C1574 1.387 . S
C1578 C1579 1.387 . S
C1578 H1582 0.950 . S
C1578 C1587 1.390 . S
C1579 C1578 1.387 . S
C1579 C1581 1.387 . S
H1580 C1587 0.950 . S
C1581 C1579 1.387 . S
C1581 C1583 1.390 . S
C1581 H1585 0.950 . S
H1582 C1578 0.950 . S
C1583 C1581 1.390 . S
C1583 C1584 1.387 . S
C1583 H1586 0.950 . S
C1584 C1583 1.387 . S
C1584 C1587 1.387 . S
H1585 C1581 0.950 . S
H1586 C1583 0.950 . S
C1587 C1578 1.390 . S
C1587 H1580 0.950 . S
C1587 C1584 1.387 . S
C1588 C1589 1.387 . S
C1588 H1592 0.950 . S
C1588 C1597 1.390 . S
C1589 C1588 1.387 . S
C1589 C1591 1.387 . S
H1590 C1597 0.950 . S
C1591 C1589 1.387 . S
C1591 C1593 1.390 . S
C1591 H1595 0.950 . S
H1592 C1588 0.950 . S
C1593 C1591 1.390 . S
C1593 C1594 1.387 . S
C1593 H1596 0.950 . S
C1594 C1593 1.387 . S
C1594 C1597 1.387 . S
H1595 C1591 0.950 . S
H1596 C1593 0.950 . S
C1597 C1588 1.390 . S
C1597 H1590 0.950 . S
C1597 C1594 1.387 . S
C1598 C1599 1.387 . S
C1598 H1602 0.950 . S
C1598 C1607 1.390 . S
C1599 C1598 1.387 . S
C1599 C1601 1.387 . S
H1600 C1607 0.950 . S
C1601 C1599 1.387 . S
C1601 C1603 1.390 . S
C1601 H1605 0.950 . S
H1602 C1598 0.950 . S
C1603 C1601 1.390 . S
C1603 C1604 1.387 . S
C1603 H1606 0.950 . S
C1604 C1603 1.387 . S
C1604 C1607 1.387 . S
H1605 C1601 0.950 . S
H1606 C1603 0.950 . S
C1607 C1598 1.390 . S
C1607 H1600 0.950 . S
C1607 C1604 1.387 . S
C1608 C1609 1.387 . S
C1608 H1612 0.950 . S
C1608 C1617 1.390 . S
C1609 C1608 1.387 . S
C1609 C1611 1.387 . S
H1610 C1617 0.950 . S
C1611 C1609 1.387 . S
C1611 C1613 1.390 . S
C1611 H1615 0.950 . S
H1612 C1608 0.950 . S
C1613 C1611 1.390 . S
C1613 C1614 1.387 . S
C1613 H1616 0.950 . S
C1614 C1613 1.387 . S
C1614 C1617 1.387 . S
H1615 C1611 0.950 . S
H1616 C1613 0.950 . S
C1617 C1608 1.390 . S
C1617 H1610 0.950 . S
C1617 C1614 1.387 . S
C1618 C1619 1.387 . S
C1618 H1622 0.950 . S
C1618 C1627 1.390 . S
C1619 C1618 1.387 . S
C1619 C1621 1.387 . S
H1620 C1627 0.950 . S
C1621 C1619 1.387 . S
C1621 C1623 1.390 . S
C1621 H1625 0.950 . S
H1622 C1618 0.950 . S
C1623 C1621 1.390 . S
C1623 C1624 1.387 . S
C1623 H1626 0.950 . S
C1624 C1623 1.387 . S
C1624 C1627 1.387 . S
H1625 C1621 0.950 . S
H1626 C1623 0.950 . S
C1627 C1618 1.390 . S
C1627 H1620 0.950 . S
C1627 C1624 1.387 . S
C1628 C1629 1.387 . S
C1628 H1632 0.950 . S
C1628 C1637 1.390 . S
C1629 C1628 1.387 . S
C1629 C1631 1.387 . S
H1630 C1637 0.950 . S
C1631 C1629 1.387 . S
C1631 C1633 1.390 . S
C1631 H1635 0.950 . S
H1632 C1628 0.950 . S
C1633 C1631 1.390 . S
C1633 C1634 1.387 . S
C1633 H1636 0.950 . S
C1634 C1633 1.387 . S
C1634 C1637 1.387 . S
H1635 C1631 0.950 . S
H1636 C1633 0.950 . S
C1637 C1628 1.390 . S
C1637 H1630 0.950 . S
C1637 C1634 1.387 . S
C1638 C1639 1.387 . S
C1638 H1642 0.950 . S
C1638 C1647 1.390 . S
C1639 C1638 1.387 . S
C1639 C1641 1.387 . S
H1640 C1647 0.950 . S
C1641 C1639 1.387 . S
C1641 C1643 1.390 . S
C1641 H1645 0.950 . S
H1642 C1638 0.950 . S
C1643 C1641 1.390 . S
C1643 C1644 1.387 . S
C1643 H1646 0.950 . S
C1644 C1643 1.387 . S
C1644 C1647 1.387 . S
H1645 C1641 0.950 . S
H1646 C1643 0.950 . S
C1647 C1638 1.390 . S
C1647 H1640 0.950 . S
C1647 C1644 1.387 . S
C1648 C1649 1.387 . S
C1648 H1652 0.950 . S
C1648 C1657 1.390 . S
C1649 C1648 1.387 . S
C1649 C1651 1.387 . S
H1650 C1657 0.950 . S
C1651 C1649 1.387 . S
C1651 C1653 1.390 . S
C1651 H1655 0.950 . S
H1652 C1648 0.950 . S
C1653 C1651 1.390 . S
C1653 C1654 1.387 . S
C1653 H1656 0.950 . S
C1654 C1653 1.387 . S
C1654 C1657 1.387 . S
H1655 C1651 0.950 . S
H1656 C1653 0.950 . S
C1657 C1648 1.390 . S
C1657 H1650 0.950 . S
C1657 C1654 1.387 . S
C1658 C1659 1.387 . S
C1658 H1662 0.950 . S
C1658 C1667 1.390 . S
C1659 C1658 1.387 . S
C1659 C1661 1.387 . S
H1660 C1667 0.950 . S
C1661 C1659 1.387 . S
C1661 C1663 1.390 . S
C1661 H1665 0.950 . S
H1662 C1658 0.950 . S
C1663 C1661 1.390 . S
C1663 C1664 1.387 . S
C1663 H1666 0.950 . S
C1664 C1663 1.387 . S
C1664 C1667 1.387 . S
H1665 C1661 0.950 . S
H1666 C1663 0.950 . S
C1667 C1658 1.390 . S
C1667 H1660 0.950 . S
C1667 C1664 1.387 . S
C1668 C1669 1.387 . S
C1668 H1672 0.950 . S
C1668 C1677 1.390 . S
C1669 C1668 1.387 . S
C1669 C1671 1.387 . S
H1670 C1677 0.950 . S
C1671 C1669 1.387 . S
C1671 C1673 1.390 . S
C1671 H1675 0.950 . S
H1672 C1668 0.950 . S
C1673 C1671 1.390 . S
C1673 C1674 1.387 . S
C1673 H1676 0.950 . S
C1674 C1673 1.387 . S
C1674 C1677 1.387 . S
H1675 C1671 0.950 . S
H1676 C1673 0.950 . S
C1677 C1668 1.390 . S
C1677 H1670 0.950 . S
C1677 C1674 1.387 . S
C1678 C1679 1.387 . S
C1678 H1682 0.950 . S
C1678 C1687 1.390 . S
C1679 C1678 1.387 . S
C1679 C1681 1.387 . S
H1680 C1687 0.950 . S
C1681 C1679 1.387 . S
C1681 C1683 1.390 . S
C1681 H1685 0.950 . S
H1682 C1678 0.950 . S
C1683 C1681 1.390 . S
C1683 C1684 1.387 . S
C1683 H1686 0.950 . S
C1684 C1683 1.387 . S
C1684 C1687 1.387 . S
H1685 C1681 0.950 . S
H1686 C1683 0.950 . S
C1687 C1678 1.390 . S
C1687 H1680 0.950 . S
C1687 C1684 1.387 . S
C1688 C1689 1.387 . S
C1688 H1692 0.950 . S
C1688 C1697 1.390 . S
C1689 C1688 1.387 . S
C1689 C1691 1.387 . S
H1690 C1697 0.950 . S
C1691 C1689 1.387 . S
C1691 C1693 1.390 . S
C1691 H1695 0.950 . S
H1692 C1688 0.950 . S
C1693 C1691 1.390 . S
C1693 C1694 1.387 . S
C1693 H1696 0.950 . S
C1694 C1693 1.387 . S
C1694 C1697 1.387 . S
H1695 C1691 0.950 . S
H1696 C1693 0.950 . S
C1697 C1688 1.390 . S
C1697 H1690 0.950 . S
C1697 C1694 1.387 . S
C1698 C1699 1.387 . S
C1698 H1702 0.950 . S
C1698 C1707 1.390 . S
C1699 C1698 1.387 . S
C1699 C1701 1.387 . S
H1700 C1707 0.950 . S
C1701 C1699 1.387 . S
C1701 C1703 1.390 . S
C1701 H1705 0.950 . S
H1702 C1698 0.950 . S
C1703 C1701 1.390 . S
C1703 C1704 1.387 . S
C1703 H1706 0.950 . S
C1704 C1703 1.387 . S
C1704 C1707 1.387 . S
H1705 C1701 0.950 . S
H1706 C1703 0.950 . S
C1707 C1698 1.390 . S
C1707 H1700 0.950 . S
C1707 C1704 1.387 . S
C1708 C1709 1.387 . S
C1708 H1712 0.950 . S
C1708 C1717 1.390 . S
C1709 C1708 1.387 . S
C1709 C1711 1.387 . S
H1710 C1717 0.950 . S
C1711 C1709 1.387 . S
C1711 C1713 1.390 . S
C1711 H1715 0.950 . S
H1712 C1708 0.950 . S
C1713 C1711 1.390 . S
C1713 C1714 1.387 . S
C1713 H1716 0.950 . S
C1714 C1713 1.387 . S
C1714 C1717 1.387 . S
H1715 C1711 0.950 . S
H1716 C1713 0.950 . S
C1717 C1708 1.390 . S
C1717 H1710 0.950 . S
C1717 C1714 1.387 . S
C1718 C1719 1.387 . S
C1718 H1722 0.950 . S
C1718 C1727 1.390 . S
C1719 C1718 1.387 . S
C1719 C1721 1.387 . S
H1720 C1727 0.950 . S
C1721 C1719 1.387 . S
C1721 C1723 1.390 . S
C1721 H1725 0.950 . S
H1722 C1718 0.950 . S
C1723 C1721 1.390 . S
C1723 C1724 1.387 . S
C1723 H1726 0.950 . S
C1724 C1723 1.387 . S
C1724 C1727 1.387 . S
H1725 C1721 0.950 . S
H1726 C1723 0.950 . S
C1727 C1718 1.390 . S
C1727 H1720 0.950 . S
C1727 C1724 1.387 . S
C1728 C1729 1.387 . S
C1728 H1732 0.950 . S
C1728 C1737 1.390 . S
C1729 C1728 1.387 . S
C1729 C1731 1.387 . S
H1730 C1737 0.950 . S
C1731 C1729 1.387 . S
C1731 C1733 1.390 . S
C1731 H1735 0.950 . S
H1732 C1728 0.950 . S
C1733 C1731 1.390 . S
C1733 C1734 1.387 . S
C1733 H1736 0.950 . S
C1734 C1733 1.387 . S
C1734 C1737 1.387 . S
H1735 C1731 0.950 . S
H1736 C1733 0.950 . S
C1737 C1728 1.390 . S
C1737 H1730 0.950 . S
C1737 C1734 1.387 . S
C1738 C1739 1.387 . S
C1738 H1742 0.950 . S
C1738 C1747 1.390 . S
C1739 C1738 1.387 . S
C1739 C1741 1.387 . S
H1740 C1747 0.950 . S
C1741 C1739 1.387 . S
C1741 C1743 1.390 . S
C1741 H1745 0.950 . S
H1742 C1738 0.950 . S
C1743 C1741 1.390 . S
C1743 C1744 1.387 . S
C1743 H1746 0.950 . S
C1744 C1743 1.387 . S
C1744 C1747 1.387 . S
H1745 C1741 0.950 . S
H1746 C1743 0.950 . S
C1747 C1738 1.390 . S
C1747 H1740 0.950 . S
C1747 C1744 1.387 . S
C1748 C1749 1.387 . S
C1748 H1752 0.950 . S
C1748 C1757 1.390 . S
C1749 C1748 1.387 . S
C1749 C1751 1.387 . S
H1750 C1757 0.950 . S
C1751 C1749 1.387 . S
C1751 C1753 1.390 . S
C1751 H1755 0.950 . S
H1752 C1748 0.950 . S
C1753 C1751 1.390 . S
C1753 C1754 1.387 . S
C1753 H1756 0.950 . S
C1754 C1753 1.387 . S
C1754 C1757 1.387 . S
H1755 C1751 0.950 . S
H1756 C1753 0.950 . S
C1757 C1748 1.390 . S
C1757 H1750 0.950 . S
C1757 C1754 1.387 . S
C1758 C1759 1.387 . S
C1758 H1762 0.950 . S
C1758 C1767 1.390 . S
C1759 C1758 1.387 . S
C1759 C1761 1.387 . S
H1760 C1767 0.950 . S
C1761 C1759 1.387 . S
C1761 C1763 1.390 . S
C1761 H1765 0.950 . S
H1762 C1758 0.950 . S
C1763 C1761 1.390 . S
C1763 C1764 1.387 . S
C1763 H1766 0.950 . S
C1764 C1763 1.387 . S
C1764 C1767 1.387 . S
H1765 C1761 0.950 . S
H1766 C1763 0.950 . S
C1767 C1758 1.390 . S
C1767 H1760 0.950 . S
C1767 C1764 1.387 . S
C1768 C1769 1.387 . S
C1768 H1772 0.950 . S
C1768 C1777 1.390 . S
C1769 C1768 1.387 . S
C1769 C1771 1.387 . S
H1770 C1777 0.950 . S
C1771 C1769 1.387 . S
C1771 C1773 1.390 . S
C1771 H1775 0.950 . S
H1772 C1768 0.950 . S
C1773 C1771 1.390 . S
C1773 C1774 1.387 . S
C1773 H1776 0.950 . S
C1774 C1773 1.387 . S
C1774 C1777 1.387 . S
H1775 C1771 0.950 . S
H1776 C1773 0.950 . S
C1777 C1768 1.390 . S
C1777 H1770 0.950 . S
C1777 C1774 1.387 . S
C1778 C1779 1.387 . S
C1778 H1782 0.950 . S
C1778 C1787 1.390 . S
C1779 C1778 1.387 . S
C1779 C1781 1.387 . S
H1780 C1787 0.950 . S
C1781 C1779 1.387 . S
C1781 C1783 1.390 . S
C1781 H1785 0.950 . S
H1782 C1778 0.950 . S
C1783 C1781 1.390 . S
C1783 C1784 1.387 . S
C1783 H1786 0.950 . S
C1784 C1783 1.387 . S
C1784 C1787 1.387 . S
H1785 C1781 0.950 . S
H1786 C1783 0.950 . S
C1787 C1778 1.390 . S
C1787 H1780 0.950 . S
C1787 C1784 1.387 . S
C1788 C1789 1.387 . S
C1788 H1792 0.950 . S
C1788 C1797 1.390 . S
C1789 C1788 1.387 . S
C1789 C1791 1.387 . S
H1790 C1797 0.950 . S
C1791 C1789 1.387 . S
C1791 C1793 1.390 . S
C1791 H1795 0.950 . S
H1792 C1788 0.950 . S
C1793 C1791 1.390 . S
C1793 C1794 1.387 . S
C1793 H1796 0.950 . S
C1794 C1793 1.387 . S
C1794 C1797 1.387 . S
H1795 C1791 0.950 . S
H1796 C1793 0.950 . S
C1797 C1788 1.390 . S
C1797 H1790 0.950 . S
C1797 C1794 1.387 . S
C1798 C1799 1.387 . S
C1798 H1802 0.950 . S
C1798 C1807 1.390 . S
C1799 C1798 1.387 . S
C1799 C1801 1.387 . S
H1800 C1807 0.950 . S
C1801 C1799 1.387 . S
C1801 C1803 1.390 . S
C1801 H1805 0.950 . S
H1802 C1798 0.950 . S
C1803 C1801 1.390 . S
C1803 C1804 1.387 . S
C1803 H1806 0.950 . S
C1804 C1803 1.387 . S
C1804 C1807 1.387 . S
H1805 C1801 0.950 . S
H1806 C1803 0.950 . S
C1807 C1798 1.390 . S
C1807 H1800 0.950 . S
C1807 C1804 1.387 . S
C1808 C1809 1.387 . S
C1808 H1812 0.950 . S
C1808 C1817 1.390 . S
C1809 C1808 1.387 . S
C1809 C1811 1.387 . S
H1810 C1817 0.950 . S
C1811 C1809 1.387 . S
C1811 C1813 1.390 . S
C1811 H1815 0.950 . S
H1812 C1808 0.950 . S
C1813 C1811 1.390 . S
C1813 C1814 1.387 . S
C1813 H1816 0.950 . S
C1814 C1813 1.387 . S
C1814 C1817 1.387 . S
H1815 C1811 0.950 . S
H1816 C1813 0.950 . S
C1817 C1808 1.390 . S
C1817 H1810 0.950 . S
C1817 C1814 1.387 . S
C1818 C1819 1.387 . S
C1818 H1822 0.950 . S
C1818 C1827 1.390 . S
C1819 C1818 1.387 . S
C1819 C1821 1.387 . S
H1820 C1827 0.950 . S
C1821 C1819 1.387 . S
C1821 C1823 1.390 . S
C1821 H1825 0.950 . S
H1822 C1818 0.950 . S
C1823 C1821 1.390 . S
C1823 C1824 1.387 . S
C1823 H1826 0.950 . S
C1824 C1823 1.387 . S
C1824 C1827 1.387 . S
H1825 C1821 0.950 . S
H1826 C1823 0.950 . S
C1827 C1818 1.390 . S
C1827 H1820 0.950 . S
C1827 C1824 1.387 . S
C1828 C1829 1.387 . S
C1828 H1832 0.950 . S
C1828 C1837 1.390 . S
C1829 C1828 1.387 . S
C1829 C1831 1.387 . S
H1830 C1837 0.950 . S
C1831 C1829 1.387 . S
C1831 C1833 1.390 . S
C1831 H1835 0.950 . S
H1832 C1828 0.950 . S
C1833 C1831 1.390 . S
C1833 C1834 1.387 . S
C1833 H1836 0.950 . S
C1834 C1833 1.387 . S
C1834 C1837 1.387 . S
H1835 C1831 0.950 . S
H1836 C1833 0.950 . S
C1837 C1828 1.390 . S
C1837 H1830 0.950 . S
C1837 C1834 1.387 . S
C1838 C1839 1.387 . S
C1838 H1842 0.950 . S
C1838 C1847 1.390 . S
C1839 C1838 1.387 . S
C1839 C1841 1.387 . S
H1840 C1847 0.950 . S
C1841 C1839 1.387 . S
C1841 C1843 1.390 . S
C1841 H1845 0.950 . S
H1842 C1838 0.950 . S
C1843 C1841 1.390 . S
C1843 C1844 1.387 . S
C1843 H1846 0.950 . S
C1844 C1843 1.387 . S
C1844 C1847 1.387 . S
H1845 C1841 0.950 . S
H1846 C1843 0.950 . S
C1847 C1838 1.390 . S
C1847 H1840 0.950 . S
C1847 C1844 1.387 . S
C1848 C1849 1.387 . S
C1848 H1852 0.950 . S
C1848 C1857 1.390 . S
C1849 C1848 1.387 . S
C1849 C1851 1.387 . S
H1850 C1857 0.950 . S
C1851 C1849 1.387 . S
C1851 C1853 1.390 . S
C1851 H1855 0.950 . S
H1852 C1848 0.950 . S
C1853 C1851 1.390 . S
C1853 C1854 1.387 . S
C1853 H1856 0.950 . S
C1854 C1853 1.387 . S
C1854 C1857 1.387 . S
H1855 C1851 0.950 . S
H1856 C1853 0.950 . S
C1857 C1848 1.390 . S
C1857 H1850 0.950 . S
C1857 C1854 1.387 . S
C1858 C1859 1.387 . S
C1858 H1862 0.950 . S
C1858 C1867 1.390 . S
C1859 C1858 1.387 . S
C1859 C1861 1.387 . S
H1860 C1867 0.950 . S
C1861 C1859 1.387 . S
C1861 C1863 1.390 . S
C1861 H1865 0.950 . S
H1862 C1858 0.950 . S
C1863 C1861 1.390 . S
C1863 C1864 1.387 . S
C1863 H1866 0.950 . S
C1864 C1863 1.387 . S
C1864 C1867 1.387 . S
H1865 C1861 0.950 . S
H1866 C1863 0.950 . S
C1867 C1858 1.390 . S
C1867 H1860 0.950 . S
C1867 C1864 1.387 . S
C1868 C1869 1.387 . S
C1868 H1872 0.950 . S
C1868 C1877 1.390 . S
C1869 C1868 1.387 . S
C1869 C1871 1.387 . S
H1870 C1877 0.950 . S
C1871 C1869 1.387 . S
C1871 C1873 1.390 . S
C1871 H1875 0.950 . S
H1872 C1868 0.950 . S
C1873 C1871 1.390 . S
C1873 C1874 1.387 . S
C1873 H1876 0.950 . S
C1874 C1873 1.387 . S
C1874 C1877 1.387 . S
H1875 C1871 0.950 . S
H1876 C1873 0.950 . S
C1877 C1868 1.390 . S
C1877 H1870 0.950 . S
C1877 C1874 1.387 . S
C1878 C1879 1.387 . S
C1878 H1882 0.950 . S
C1878 C1887 1.390 . S
C1879 C1878 1.387 . S
C1879 C1881 1.387 . S
H1880 C1887 0.950 . S
C1881 C1879 1.387 . S
C1881 C1883 1.390 . S
C1881 H1885 0.950 . S
H1882 C1878 0.950 . S
C1883 C1881 1.390 . S
C1883 C1884 1.387 . S
C1883 H1886 0.950 . S
C1884 C1883 1.387 . S
C1884 C1887 1.387 . S
H1885 C1881 0.950 . S
H1886 C1883 0.950 . S
C1887 C1878 1.390 . S
C1887 H1880 0.950 . S
C1887 C1884 1.387 . S
C1888 C1889 1.387 . S
C1888 H1892 0.950 . S
C1888 C1897 1.390 . S
C1889 C1888 1.387 . S
C1889 C1891 1.387 . S
H1890 C1897 0.950 . S
C1891 C1889 1.387 . S
C1891 C1893 1.390 . S
C1891 H1895 0.950 . S
H1892 C1888 0.950 . S
C1893 C1891 1.390 . S
C1893 C1894 1.387 . S
C1893 H1896 0.950 . S
C1894 C1893 1.387 . S
C1894 C1897 1.387 . S
H1895 C1891 0.950 . S
H1896 C1893 0.950 . S
C1897 C1888 1.390 . S
C1897 H1890 0.950 . S
C1897 C1894 1.387 . S
C1898 C1899 1.387 . S
C1898 H1902 0.950 . S
C1898 C1907 1.390 . S
C1899 C1898 1.387 . S
C1899 C1901 1.387 . S
H1900 C1907 0.950 . S
C1901 C1899 1.387 . S
C1901 C1903 1.390 . S
C1901 H1905 0.950 . S
H1902 C1898 0.950 . S
C1903 C1901 1.390 . S
C1903 C1904 1.387 . S
C1903 H1906 0.950 . S
C1904 C1903 1.387 . S
C1904 C1907 1.387 . S
H1905 C1901 0.950 . S
H1906 C1903 0.950 . S
C1907 C1898 1.390 . S
C1907 H1900 0.950 . S
C1907 C1904 1.387 . S
C1908 C1909 1.387 . S
C1908 H1912 0.950 . S
C1908 C1917 1.390 . S
C1909 C1908 1.387 . S
C1909 C1911 1.387 . S
H1910 C1917 0.950 . S
C1911 C1909 1.387 . S
C1911 C1913 1.390 . S
C1911 H1915 0.950 . S
H1912 C1908 0.950 . S
C1913 C1911 1.390 . S
C1913 C1914 1.387 . S
C1913 H1916 0.950 . S
C1914 C1913 1.387 . S
C1914 C1917 1.387 . S
H1915 C1911 0.950 . S
H1916 C1913 0.950 . S
C1917 C1908 1.390 . S
C1917 H1910 0.950 . S
C1917 C1914 1.387 . S
C1918 C1919 1.387 . S
C1918 H1922 0.950 . S
C1918 C1927 1.390 . S
C1919 C1918 1.387 . S
C1919 C1921 1.387 . S
H1920 C1927 0.950 . S
C1921 C1919 1.387 . S
C1921 C1923 1.390 . S
C1921 H1925 0.950 . S
H1922 C1918 0.950 . S
C1923 C1921 1.390 . S
C1923 C1924 1.387 . S
C1923 H1926 0.950 . S
C1924 C1923 1.387 . S
C1924 C1927 1.387 . S
H1925 C1921 0.950 . S
H1926 C1923 0.950 . S
C1927 C1918 1.390 . S
C1927 H1920 0.950 . S
C1927 C1924 1.387 . S
C974 N428 1.611 . S
C969 N5 1.678 . S
C984 C455 1.730 . S
C979 N15 1.754 . S
C989 N31 1.659 . S
C994 C469 1.677 . S
C1004 N487 1.468 . S
C999 N40 1.542 . S
C1009 N53 1.576 . S
C1014 C492 1.525 . S
C1019 N70 1.597 . S
C1024 C432 1.607 . S
C1029 N80 1.489 . S
C1034 N451 1.451 . S
C1044 N464 1.656 . S
C1039 N92 1.687 . S
C1054 N510 1.569 . S
C1049 N2 1.687 . S
C1059 N14 1.477 . S
C1064 N533 1.467 . S
C1069 N27 1.704 . S
C1074 N556 1.680 . S
C1084 N589 1.601 . S
C1079 N44 1.692 . S
C1089 N54 1.446 . S
C1094 C616 1.463 . S
C1104 C639 1.494 . S
C1099 N67 1.487 . S
C1109 N83 1.352 . S
C1114 C662 1.349 1_655 S
C1124 C676 1.532 1_565 S
C1119 N93 1.559 . S
C1129 N1 1.612 . S
C1134 C593 1.555 . S
C1139 N57 1.480 . S
C1144 N635 1.444 . S
C1154 N658 1.669 . S
C1149 N66 1.695 . S
C1159 N79 1.821 . S
C1164 N671 1.784 . S
C1174 N612 1.666 . S
C1169 N96 1.721 . S
C1184 C538 1.617 . S
C1179 N28 1.622 . S
C1189 N41 1.451 . S
C1194 C561 1.445 . S
C1204 C515 1.595 . S
C1199 N18 1.676 . S
C1214 C708 1.694 . S
C1209 N109 1.694 . S
C1219 N119 1.603 . S
C1224 C722 1.561 . S
C1229 N135 1.587 . S
C1234 N750 1.545 . S
C1244 N763 1.447 . S
C1239 N144 1.514 . S
C1249 N157 1.642 . S
C1254 C768 1.580 . S
C1259 N174 1.607 . S
C1264 N704 1.553 . S
C1269 N184 1.587 . S
C1274 N717 1.481 . S
C1279 N196 1.687 . S
C1284 C754 1.685 . S
C1294 N602 1.553 . S
C1289 N106 1.668 . S
C1299 N118 1.483 . S
C1304 N786 1.419 . S
C1314 N648 1.606 . S
C1309 N131 1.623 . S
C1319 N148 1.788 . S
C1324 C823 1.768 . S
C1329 N158 1.619 . S
C1334 C524 1.610 . S
C1344 C837 1.526 . S
C1339 N171 1.528 . S
C1349 N187 1.434 . S
C1354 C570 1.417 . S
C1364 N855 1.511 . S
C1359 N197 1.642 . S
C1369 N105 1.633 . S
C1374 N819 1.585 . S
C1384 N832 1.431 . S
C1379 N161 1.499 . S
C1389 N170 1.730 . S
C1394 N566 1.695 . S
C1404 C860 1.694 . S
C1399 N183 1.730 . S
C1409 N200 1.725 . S
C1414 N520 1.672 . S
C1419 N132 1.550 . S
C1424 C791 1.543 . S
C1429 N145 1.481 . S
C1434 C653 1.476 . S
C1439 N122 1.462 . S
C1444 C607 1.424 . S
C1449 N213 1.720 . S
C1454 C745 1.716 . S
C1464 C777 1.606 . S
C1459 N223 1.623 . S
C1469 N239 1.613 . S
C1474 N694 1.608 . S
C1479 N248 1.530 . S
C1484 N727 1.505 . S
C1489 N261 1.636 . S
C1494 C731 1.610 . S
C1499 N278 1.615 . S
C1504 N740 1.595 . S
C1514 N773 1.432 . S
C1509 N288 1.472 . S
C1519 N300 1.731 . S
C1524 C699 1.728 . S
C1534 N888 1.702 . S
C1529 N210 1.729 . S
C1539 N222 1.484 . S
C1544 N625 1.426 . S
C1554 N911 1.555 . S
C1549 N235 1.638 . S
C1559 N252 1.773 . S
C1564 N681 1.667 . S
C1569 N262 1.543 . S
C1574 C929 1.515 . S
C1579 N275 1.539 . S
C1584 C547 1.546 . S
C1594 N947 1.296 . S
C1589 N291 1.354 . S
C1599 N301 1.586 . S
C1604 C584 1.561 . S
C1614 C685 1.595 . S
C1609 N209 1.653 . S
C1624 N543 1.427 . S
C1619 N265 1.469 . S
C1629 N274 1.785 . S
C1634 C952 1.816 . S
C1639 N287 1.728 . S
C1644 N579 1.703 . S
C1654 N924 1.630 . S
C1649 N304 1.768 . S
C1664 C630 1.561 . S
C1659 N236 1.569 . S
C1674 C915 1.453 . S
C1669 N249 1.472 . S
C1684 C892 1.538 . S
C1679 N226 1.562 . S
C1689 N317 1.626 . S
C1694 N474 1.566 . S
C1699 N327 1.594 . S
C1704 C501 1.601 . S
C1714 C423 1.675 . S
C1709 N343 1.653 . S
C1724 N441 1.408 . S
C1719 N352 1.480 . S
C1734 C446 1.640 . S
C1729 N365 1.729 . S
C1744 C478 1.618 . S
C1739 N382 1.612 . S
C1754 N497 1.537 . S
C1749 N392 1.579 . S
C1759 N404 1.692 . S
C1764 N418 1.660 . S
C1769 N314 1.634 . S
C1774 N934 1.612 . S
C1784 N842 1.458 . S
C1779 N326 1.461 . S
C1794 C961 1.742 . S
C1789 N339 1.741 . S
C1804 C869 1.604 . S
C1799 N356 1.614 . S
C1809 N366 1.557 . S
C1814 C883 1.530 . S
C1824 C800 1.505 . S
C1819 N379 1.497 . S
C1834 C906 1.491 . S
C1829 N395 1.480 . S
C1839 N405 1.580 . S
C1844 N809 1.466 . S
C1854 N865 1.585 . S
C1849 N313 1.649 . S
C1864 N796 1.439 . S
C1859 N369 1.466 . S
C1874 N901 1.762 . S
C1869 N378 1.724 . S
C1879 N391 1.845 . S
C1884 C814 1.792 . S
C1889 N408 1.729 . S
C1894 N878 1.596 . S
C1899 N340 1.656 . S
C1904 C846 1.656 . S
C1909 N353 1.438 . S
C1914 N957 1.394 . S
C1924 C938 1.535 . S
C1919 N330 1.568 . S
