# Generated by pormake.
# Topology anh, (6,3)-cn, num edge types: 1
# Building blocks:
#     Node 0, Type 0, BuildingBlock: MIFKUJ_clean_sbu_0, # of connection points: 6
#     Node 1, Type 0, BuildingBlock: MIFKUJ_clean_sbu_0, # of connection points: 6
#     Node 2, Type 0, BuildingBlock: MIFKUJ_clean_sbu_0, # of connection points: 6
#     Node 3, Type 1, BuildingBlock: ESEHIV_clean_linker_0, # of connection points: 3
#     Node 4, Type 1, BuildingBlock: ESEHIV_clean_linker_0, # of connection points: 3
#     Node 5, Type 1, BuildingBlock: ESEHIV_clean_linker_0, # of connection points: 3
#     Node 6, Type 1, BuildingBlock: ESEHIV_clean_linker_0, # of connection points: 3
#     Node 7, Type 1, BuildingBlock: ESEHIV_clean_linker_0, # of connection points: 3
#     Node 8, Type 1, BuildingBlock: ESEHIV_clean_linker_0, # of connection points: 3
#     Edge 9, Type (0, 1), BuildingBlock: AJUNOK_clean_linker_0, # of connection points: 2
#     Edge 10, Type (0, 1), BuildingBlock: AJUNOK_clean_linker_0, # of connection points: 2
#     Edge 11, Type (0, 1), BuildingBlock: AJUNOK_clean_linker_0, # of connection points: 2
#     Edge 12, Type (0, 1), BuildingBlock: AJUNOK_clean_linker_0, # of connection points: 2
#     Edge 13, Type (0, 1), BuildingBlock: AJUNOK_clean_linker_0, # of connection points: 2
#     Edge 14, Type (0, 1), BuildingBlock: AJUNOK_clean_linker_0, # of connection points: 2
#     Edge 15, Type (0, 1), BuildingBlock: AJUNOK_clean_linker_0, # of connection points: 2
#     Edge 16, Type (0, 1), BuildingBlock: AJUNOK_clean_linker_0, # of connection points: 2
#     Edge 17, Type (0, 1), BuildingBlock: AJUNOK_clean_linker_0, # of connection points: 2
#     Edge 18, Type (0, 1), BuildingBlock: AJUNOK_clean_linker_0, # of connection points: 2
#     Edge 19, Type (0, 1), BuildingBlock: AJUNOK_clean_linker_0, # of connection points: 2
#     Edge 20, Type (0, 1), BuildingBlock: AJUNOK_clean_linker_0, # of connection points: 2
#     Edge 21, Type (0, 1), BuildingBlock: AJUNOK_clean_linker_0, # of connection points: 2
#     Edge 22, Type (0, 1), BuildingBlock: AJUNOK_clean_linker_0, # of connection points: 2
#     Edge 23, Type (0, 1), BuildingBlock: AJUNOK_clean_linker_0, # of connection points: 2
#     Edge 24, Type (0, 1), BuildingBlock: AJUNOK_clean_linker_0, # of connection points: 2
#     Edge 25, Type (0, 1), BuildingBlock: AJUNOK_clean_linker_0, # of connection points: 2
#     Edge 26, Type (0, 1), BuildingBlock: AJUNOK_clean_linker_0, # of connection points: 2
# Relax obj value: 0.135
# Max RMSD: 0.189
# Mean RMSD: 0.158
data_MOF--net-anh--node1-MIFKUJ_clean_sbu_0--node2-ESEHIV_clean_linker_0--edge1-AJUNOK_clean_linker_0
_symmetry_space_group_name_H-M    P1
_symmetry_Int_Tables_number       1
_symmetry_cell_setting            triclinic
loop_
_symmetry_equiv_pos_as_xyz
'x, y, z'
_cell_length_a     21.746678
_cell_length_b     21.88452
_cell_length_c     35.125658
_cell_angle_alpha  93.946957
_cell_angle_beta   90.865845
_cell_angle_gamma 120.34363
loop_
_atom_site_label
_atom_site_type_symbol
_atom_site_fract_x
_atom_site_fract_y
_atom_site_fract_z
_atom_type_partial_charge
Zn0 Zn 0.05854 0.6013 0.15224 0.0
Zn1 Zn 0.85283 0.45327 0.15775 0.0
C2 C 0.15686 0.54659 0.15449 0.0
O3 O 0.14273 0.54175 0.19073 0.0
C4 C 0.72073 0.45677 0.15302 0.0
O5 O 0.69361 0.38783 0.14699 0.0
O6 O 0.12003 0.70609 0.15392 0.0
O7 O 0.97071 0.571 0.11885 0.0
O8 O 0.89556 0.45749 0.10715 0.0
C9 C 0.16192 0.73311 0.12727 0.0
O10 O 0.15491 0.69242 0.09628 0.0
O11 O 0.12339 0.56519 0.13232 0.0
C12 C 0.76399 0.33694 0.19724 0.0
O13 O 0.78066 0.38974 0.22331 0.0
O14 O 0.79142 0.35067 0.1651 0.0
O15 O 0.92246 0.49312 0.20391 0.0
O16 O 0.03695 0.57773 0.20658 0.0
O17 O 0.78838 0.49695 0.15747 0.0
C18 C 0.94624 0.51472 0.09662 0.0
C19 C 0.98189 0.53306 0.22251 0.0
Zn20 Zn 0.5806 0.10033 0.48332 0.0
Zn21 Zn 0.52257 0.90009 0.4897 0.0
C22 C 0.72711 0.20685 0.49699 0.0
O23 O 0.69935 0.22039 0.5271 0.0
C24 C 0.39358 0.76525 0.46895 0.0
O25 O 0.44062 0.75015 0.45515 0.0
O26 O 0.55557 0.17708 0.48311 0.0
O27 O 0.51978 0.02608 0.44057 0.0
O28 O 0.55642 0.9486 0.44125 0.0
C29 C 0.58794 0.23029 0.46359 0.0
O30 O 0.63479 0.23264 0.43968 0.0
O31 O 0.68676 0.15236 0.4741 0.0
C32 C 0.54199 0.80403 0.52665 0.0
O33 O 0.49748 0.81382 0.54746 0.0
O34 O 0.5677 0.84113 0.49856 0.0
O35 O 0.54012 0.96046 0.53867 0.0
O36 O 0.56613 0.07231 0.5368 0.0
O37 O 0.41521 0.82828 0.48349 0.0
C38 C 0.52188 0.97303 0.42497 0.0
C39 C 0.55353 0.01966 0.55515 0.0
Zn40 Zn 0.60289 0.49476 0.8274 0.0
Zn41 Zn 0.4539 0.56147 0.81632 0.0
C42 C 0.59857 0.36531 0.84122 0.0
O43 O 0.64017 0.40401 0.87129 0.0
C44 C 0.45072 0.68628 0.80319 0.0
O45 O 0.38927 0.63781 0.78614 0.0
O46 O 0.70679 0.55763 0.82221 0.0
O47 O 0.54168 0.51323 0.79524 0.0
O48 O 0.46932 0.53162 0.76261 0.0
C49 C 0.73823 0.54041 0.79729 0.0
O50 O 0.69935 0.48859 0.77083 0.0
O51 O 0.57642 0.39346 0.81832 0.0
C52 C 0.33668 0.5436 0.85271 0.0
O53 O 0.39024 0.59633 0.87343 0.0
O54 O 0.34948 0.51348 0.8244 0.0
O55 O 0.50274 0.54174 0.86076 0.0
O56 O 0.57857 0.50961 0.88032 0.0
O57 O 0.49074 0.6668 0.81838 0.0
C58 C 0.51646 0.51411 0.76296 0.0
C59 C 0.53371 0.52926 0.88775 0.0
H60 H 0.37822 0.87526 0.24519 0.0
H61 H 0.58525 0.05811 0.27381 0.0
H62 H 0.48169 0.02958 0.16339 0.0
C63 C 0.42441 0.92313 0.23697 0.0
C64 C 0.4245 0.94635 0.20063 0.0
C65 C 0.4829 0.9627 0.26314 0.0
C66 C 0.54126 0.02557 0.25294 0.0
C67 C 0.54063 0.05034 0.21738 0.0
C68 C 0.483 0.00981 0.19069 0.0
H69 H 0.59676 0.60874 0.6195 0.0
H70 H 0.5964 0.41415 0.59323 0.0
H71 H 0.59646 0.53691 0.5024 0.0
C72 C 0.60033 0.57172 0.59873 0.0
C73 C 0.59809 0.58055 0.55972 0.0
C74 C 0.59946 0.51188 0.61102 0.0
C75 C 0.59963 0.46191 0.58398 0.0
C76 C 0.60068 0.47195 0.54483 0.0
C77 C 0.60001 0.5314 0.53267 0.0
H78 H 0.91973 0.55222 0.92247 0.0
H79 H 0.08768 0.50648 0.94016 0.0
H80 H 0.04173 0.54664 0.82816 0.0
C81 C 0.96229 0.54539 0.91128 0.0
C82 C 0.97571 0.55106 0.87226 0.0
C83 C 0.00192 0.5284 0.93573 0.0
C84 C 0.05529 0.51734 0.92111 0.0
C85 C 0.06992 0.52442 0.8825 0.0
C86 C 0.02999 0.54091 0.85804 0.0
H87 H 0.91339 0.41338 0.38974 0.0
H88 H 0.12475 0.5942 0.3874 0.0
H89 H 0.05927 0.48306 0.48882 0.0
C90 C 0.96582 0.44926 0.40341 0.0
C91 C 0.98066 0.43991 0.44096 0.0
C92 C 0.01762 0.50394 0.38347 0.0
C93 C 0.08354 0.5523 0.4025 0.0
C94 C 0.09843 0.54608 0.4405 0.0
C95 C 0.04713 0.48937 0.45982 0.0
H96 H 0.57242 0.14215 0.72986 0.0
H97 H 0.52501 0.9257 0.72103 0.0
H98 H 0.53082 0.02906 0.83074 0.0
C99 C 0.55881 0.09382 0.74302 0.0
C100 C 0.55137 0.09226 0.78263 0.0
C101 C 0.54852 0.03388 0.72039 0.0
C102 C 0.53408 0.97302 0.73815 0.0
C103 C 0.52901 0.97152 0.7778 0.0
C104 C 0.53711 0.03101 0.80022 0.0
H105 H 0.37762 0.5398 0.04344 0.0
H106 H 0.57243 0.53881 0.06052 0.0
H107 H 0.45456 0.53826 0.15757 0.0
C108 C 0.41767 0.54135 0.06288 0.0
C109 C 0.40858 0.54082 0.10258 0.0
C110 C 0.47661 0.54079 0.04777 0.0
C111 C 0.52737 0.54038 0.07236 0.0
C112 C 0.51954 0.53878 0.11175 0.0
C113 C 0.46002 0.53892 0.127 0.0
C114 C 0.26007 0.58439 0.1128 0.0
C115 C 0.21891 0.54173 0.14115 0.0
C116 C 0.32191 0.58493 0.10149 0.0
C117 C 0.34477 0.54175 0.11742 0.0
H118 H 0.24543 0.61909 0.09981 0.0
H119 H 0.35233 0.62002 0.08009 0.0
S120 S 0.25337 0.41758 0.19164 0.0
N121 N 0.2047 0.45476 0.1849 0.0
N122 N 0.31889 0.45295 0.16235 0.0
C123 C 0.30358 0.49828 0.14567 0.0
C124 C 0.24119 0.49885 0.15774 0.0
C125 C 0.83381 0.33041 0.50607 0.0
C126 C 0.79909 0.262 0.48618 0.0
C127 C 0.89571 0.38712 0.49286 0.0
C128 C 0.92524 0.37753 0.45931 0.0
H129 H 0.81114 0.34144 0.53101 0.0
H130 H 0.91812 0.43958 0.50776 0.0
S131 S 0.86257 0.20749 0.40003 0.0
N132 N 0.80455 0.18684 0.43358 0.0
N133 N 0.92068 0.29319 0.40902 0.0
C134 C 0.89426 0.30857 0.44074 0.0
C135 C 0.83132 0.2509 0.45409 0.0
C136 C 0.42016 0.78101 0.7986 0.0
C137 C 0.47261 0.76217 0.80374 0.0
C138 C 0.43908 0.85127 0.79391 0.0
C139 C 0.51098 0.90486 0.79418 0.0
H140 H 0.36401 0.74077 0.79675 0.0
H141 H 0.39734 0.86298 0.78766 0.0
S142 S 0.66864 0.88504 0.80897 0.0
N143 N 0.59967 0.80416 0.81125 0.0
N144 N 0.63479 0.93624 0.80172 0.0
C145 C 0.5639 0.88781 0.80127 0.0
C146 C 0.5448 0.81636 0.80634 0.0
C147 C 0.59797 0.43935 0.15443 0.0
C148 C 0.67187 0.48567 0.15165 0.0
C149 C 0.54832 0.46028 0.14615 0.0
C150 C 0.57068 0.52822 0.13467 0.0
H151 H 0.57779 0.38501 0.161 0.0
H152 H 0.49193 0.42101 0.14548 0.0
S153 S 0.75769 0.67337 0.12873 0.0
N154 N 0.76496 0.60587 0.14141 0.0
N155 N 0.67128 0.64457 0.1253 0.0
C156 C 0.6444 0.57709 0.13512 0.0
C157 C 0.69513 0.55601 0.14378 0.0
C158 C 0.29769 0.63741 0.45679 0.0
C159 C 0.31701 0.70839 0.46778 0.0
C160 C 0.22595 0.58313 0.45168 0.0
C161 C 0.17069 0.59752 0.45756 0.0
H162 H 0.3382 0.62378 0.45071 0.0
H163 H 0.21359 0.53035 0.44081 0.0
S164 S 0.19105 0.77173 0.49008 0.0
N165 N 0.27383 0.78831 0.48749 0.0
N166 N 0.139 0.68594 0.47728 0.0
C167 C 0.18876 0.66699 0.4706 0.0
C168 C 0.2619 0.72248 0.47596 0.0
C169 C 0.5247 0.24739 0.80487 0.0
C170 C 0.58074 0.291 0.83214 0.0
C171 C 0.51239 0.18056 0.79119 0.0
C172 C 0.55568 0.15476 0.80415 0.0
H173 H 0.49152 0.26596 0.79287 0.0
H174 H 0.47075 0.15014 0.76887 0.0
S175 S 0.70441 0.24416 0.87823 0.0
N176 N 0.676 0.30074 0.87421 0.0
N177 N 0.65279 0.17455 0.84787 0.0
C178 C 0.60871 0.19529 0.83325 0.0
C179 C 0.62131 0.26368 0.84739 0.0
C180 C 0.61706 0.74687 0.52131 0.0
C181 C 0.55482 0.74537 0.53334 0.0
C182 C 0.63039 0.69214 0.52869 0.0
C183 C 0.58158 0.63439 0.54806 0.0
H184 H 0.65643 0.79134 0.50695 0.0
H185 H 0.67979 0.69591 0.52019 0.0
S186 S 0.40654 0.60016 0.58067 0.0
N187 N 0.44106 0.67748 0.56233 0.0
N188 N 0.46622 0.57517 0.57586 0.0
C189 C 0.5179 0.6307 0.55859 0.0
C190 C 0.5045 0.68614 0.55135 0.0
C191 C 0.83442 0.51059 0.79554 0.0
C192 C 0.81227 0.55901 0.80709 0.0
C193 C 0.89193 0.51205 0.81491 0.0
C194 C 0.92912 0.56218 0.84617 0.0
H195 H 0.80328 0.46713 0.77394 0.0
H196 H 0.90338 0.4701 0.80743 0.0
S197 S 0.90529 0.71242 0.88027 0.0
N198 N 0.84153 0.66743 0.84625 0.0
N199 N 0.94979 0.66988 0.88264 0.0
C200 C 0.9134 0.61618 0.85472 0.0
C201 C 0.85504 0.61487 0.83501 0.0
C202 C 0.23087 0.84678 0.16774 0.0
C203 C 0.22894 0.80104 0.13697 0.0
C204 C 0.29558 0.89823 0.18645 0.0
C205 C 0.36036 0.90605 0.17473 0.0
H206 H 0.18181 0.83908 0.17938 0.0
H207 H 0.2947 0.92889 0.2118 0.0
S208 S 0.38582 0.80866 0.09196 0.0
N209 N 0.29848 0.77377 0.09243 0.0
N210 N 0.42036 0.87125 0.12792 0.0
C211 C 0.36005 0.86624 0.14167 0.0
C212 C 0.29406 0.81355 0.12254 0.0
C213 C 0.65234 0.36061 0.48164 0.0
C214 C 0.58731 0.2956 0.47592 0.0
C215 C 0.65592 0.41975 0.50213 0.0
C216 C 0.59446 0.41557 0.51692 0.0
H217 H 0.70155 0.36433 0.47276 0.0
H218 H 0.70744 0.46757 0.50827 0.0
S219 S 0.41017 0.26179 0.50431 0.0
N220 N 0.45928 0.23331 0.48282 0.0
N221 N 0.46606 0.34503 0.52088 0.0
C222 C 0.52854 0.35292 0.50881 0.0
C223 C 0.52493 0.29266 0.48833 0.0
C224 C 0.25798 0.59382 0.85508 0.0
C225 C 0.26568 0.53402 0.85607 0.0
C226 C 0.19248 0.58881 0.86123 0.0
C227 C 0.13336 0.52418 0.86935 0.0
H228 H 0.30329 0.64514 0.8502 0.0
H229 H 0.18891 0.63648 0.86148 0.0
S230 S 0.12547 0.35178 0.87347 0.0
N231 N 0.20867 0.40768 0.86352 0.0
N232 N 0.08513 0.39869 0.8767 0.0
C233 C 0.13971 0.46349 0.86937 0.0
C234 C 0.2062 0.46828 0.86222 0.0
C235 C 0.69967 0.20619 0.17891 0.0
C236 C 0.70719 0.26409 0.20301 0.0
C237 C 0.6445 0.13672 0.18294 0.0
C238 C 0.59543 0.12337 0.21114 0.0
H239 H 0.73691 0.2145 0.15695 0.0
H240 H 0.64088 0.09319 0.16442 0.0
S241 S 0.58746 0.25583 0.27926 0.0
N242 N 0.65795 0.30307 0.25469 0.0
N243 N 0.55445 0.17245 0.26201 0.0
C244 C 0.60126 0.18053 0.23483 0.0
C245 C 0.65726 0.251 0.23089 0.0
C246 C 0.9859 0.58114 0.03838 0.0
C247 C 0.96464 0.51832 0.05622 0.0
C248 C -0.00279 0.58376 -0.00078 0.0
C249 C 0.98912 0.52417 0.97684 0.0
H250 H 0.99193 0.62805 0.0545 0.0
H251 H 0.01265 0.63276 0.98636 0.0
S252 S 0.93852 0.34858 0.01001 0.0
N253 N 0.93831 0.39594 0.04867 0.0
N254 N 0.96117 0.40165 0.97514 0.0
C255 C 0.96992 0.46179 -0.00558 0.0
C256 C 0.95726 0.45867 0.03412 0.0
C257 C 0.54465 0.94107 0.35925 0.0
C258 C 0.50151 0.95454 0.38379 0.0
C259 C 0.53468 0.93782 0.31952 0.0
C260 C 0.48028 0.94619 0.30322 0.0
H261 H 0.58947 0.9381 0.37075 0.0
H262 H 0.57219 0.93284 0.30149 0.0
S263 S 0.34662 0.97173 0.35488 0.0
N264 N 0.39782 0.96851 0.38897 0.0
N265 N 0.37851 0.96121 0.31414 0.0
C266 C 0.43313 0.95354 0.32729 0.0
C267 C 0.44394 0.95805 0.36769 0.0
C268 C 0.61291 0.5466 0.71806 0.0
C269 C 0.54253 0.49951 0.72715 0.0
C270 C 0.63387 0.54614 0.68052 0.0
C271 C 0.58546 0.49743 0.65135 0.0
H272 H 0.65011 0.58775 0.73928 0.0
H273 H 0.68654 0.58713 0.67369 0.0
S274 S 0.39853 0.35659 0.66218 0.0
N275 N 0.42684 0.39868 0.70533 0.0
N276 N 0.46689 0.39613 0.63496 0.0
C277 C 0.5171 0.44592 0.661 0.0
C278 C 0.49534 0.44748 0.69894 0.0
C279 C 0.5866 -0.00161 0.61876 0.0
C280 C 0.55396 0.02685 0.59705 0.0
C281 C 0.58609 0.00255 0.65865 0.0
C282 C 0.5514 0.03383 0.6782 0.0
H283 H 0.61322 0.97315 0.60481 0.0
H284 H 0.61296 0.98089 0.67427 0.0
S285 S 0.4535 0.11166 0.63366 0.0
N286 N 0.48509 0.08621 0.59732 0.0
N287 N 0.48039 0.09069 0.67229 0.0
C288 C 0.51788 0.06196 0.65659 0.0
C289 C 0.52 0.0592 0.616 0.0
C290 C 0.51007 0.48037 0.95096 0.0
C291 C 0.51451 0.53199 0.92765 0.0
C292 C 0.49509 0.48235 0.9894 0.0
C293 C 0.48435 0.53624 0.00608 0.0
H294 H 0.51859 0.43818 0.93942 0.0
H295 H 0.49295 0.44192 0.00643 0.0
S296 S 0.49377 0.6859 0.95798 0.0
N297 N 0.50953 0.63992 0.92423 0.0
N298 N 0.48011 0.643 -0.00326 0.0
C299 C 0.48765 0.58769 0.98307 0.0
C300 C 0.50317 0.58579 0.94378 0.0
C301 C 0.02246 0.58447 0.28999 0.0
C302 C 0.98782 0.5246 0.26341 0.0
C303 C 0.02979 0.57715 0.32887 0.0
C304 C 0.00452 0.50974 0.34244 0.0
H305 H 0.04344 0.63729 0.28071 0.0
H306 H 0.05578 0.62483 0.34841 0.0
S307 S 0.91457 0.33669 0.28307 0.0
N308 N 0.92916 0.39615 0.2526 0.0
N309 N 0.94667 0.38214 0.32513 0.0
C310 C 0.97043 0.44946 0.31577 0.0
C311 C 0.96132 0.45698 0.2764 0.0
loop_
_geom_bond_atom_site_label_1
_geom_bond_atom_site_label_2
_geom_bond_distance
_geom_bond_site_symmetry_2
_ccdc_geom_bond_type
Zn0 O6 1.969 . S
Zn0 O7 1.965 . S
Zn0 O11 2.024 . S
Zn0 O16 1.969 . S
Zn1 O8 1.969 . S
Zn1 O14 1.969 . S
Zn1 O15 1.965 . S
Zn1 O17 2.024 . S
C2 O3 1.229 . S
C2 O11 1.058 . S
O3 C2 1.229 . S
C4 O5 1.229 . S
C4 O17 1.058 . S
O5 C4 1.229 . S
O6 Zn0 1.969 . S
O6 C9 1.267 . S
O7 Zn0 1.965 . S
O7 C18 1.260 1_455 S
O8 Zn1 1.969 . S
O8 C18 1.258 . S
C9 O6 1.267 . S
C9 O10 1.228 . S
O10 C9 1.228 . S
O11 Zn0 2.024 . S
O11 C2 1.058 . S
C12 O13 1.228 . S
C12 O14 1.267 . S
O13 C12 1.228 . S
O14 Zn1 1.969 . S
O14 C12 1.267 . S
O15 Zn1 1.965 . S
O15 C19 1.260 1_655 S
O16 Zn0 1.969 . S
O16 C19 1.258 . S
O17 Zn1 2.024 . S
O17 C4 1.058 . S
C18 O7 1.260 1_655 S
C18 O8 1.258 . S
C19 O15 1.260 1_455 S
C19 O16 1.258 . S
Zn20 O26 1.969 . S
Zn20 O27 1.965 . S
Zn20 O31 2.024 . S
Zn20 O36 1.969 . S
Zn21 O28 1.969 . S
Zn21 O34 1.969 . S
Zn21 O35 1.965 . S
Zn21 O37 2.024 . S
C22 O23 1.229 . S
C22 O31 1.058 . S
O23 C22 1.229 . S
C24 O25 1.229 . S
C24 O37 1.058 . S
O25 C24 1.229 . S
O26 Zn20 1.969 . S
O26 C29 1.267 . S
O27 Zn20 1.965 . S
O27 C38 1.260 . S
O28 Zn21 1.969 . S
O28 C38 1.258 1_565 S
C29 O26 1.267 . S
C29 O30 1.228 . S
O30 C29 1.228 . S
O31 Zn20 2.024 . S
O31 C22 1.058 . S
C32 O33 1.228 . S
C32 O34 1.267 . S
O33 C32 1.228 . S
O34 Zn21 1.969 . S
O34 C32 1.267 . S
O35 Zn21 1.965 . S
O35 C39 1.260 1_565 S
O36 Zn20 1.969 . S
O36 C39 1.258 . S
O37 Zn21 2.024 . S
O37 C24 1.058 . S
C38 O27 1.260 . S
C38 O28 1.258 1_545 S
C39 O35 1.260 1_545 S
C39 O36 1.258 . S
Zn40 O46 1.969 . S
Zn40 O47 1.965 . S
Zn40 O51 2.024 . S
Zn40 O56 1.969 . S
Zn41 O48 1.969 . S
Zn41 O54 1.969 . S
Zn41 O55 1.965 . S
Zn41 O57 2.024 . S
C42 O43 1.229 . S
C42 O51 1.058 . S
O43 C42 1.229 . S
C44 O45 1.229 . S
C44 O57 1.058 . S
O45 C44 1.229 . S
O46 Zn40 1.969 . S
O46 C49 1.267 . S
O47 Zn40 1.965 . S
O47 C58 1.260 . S
O48 Zn41 1.969 . S
O48 C58 1.258 . S
C49 O46 1.267 . S
C49 O50 1.228 . S
O50 C49 1.228 . S
O51 Zn40 2.024 . S
O51 C42 1.058 . S
C52 O53 1.228 . S
C52 O54 1.267 . S
O53 C52 1.228 . S
O54 Zn41 1.969 . S
O54 C52 1.267 . S
O55 Zn41 1.965 . S
O55 C59 1.260 . S
O56 Zn40 1.969 . S
O56 C59 1.258 . S
O57 Zn41 2.024 . S
O57 C44 1.058 . S
C58 O47 1.260 . S
C58 O48 1.258 . S
C59 O55 1.260 . S
C59 O56 1.258 . S
H60 C63 0.931 . S
H61 C66 0.928 . S
H62 C68 0.930 . S
C63 H60 0.931 . S
C63 C64 1.413 . S
C63 C65 1.360 1_565 S
C64 C63 1.413 . S
C64 C68 1.429 1_565 S
C65 C63 1.360 1_545 S
C65 C66 1.372 . S
C66 H61 0.928 . S
C66 C65 1.372 . S
C66 C67 1.404 . S
C67 C66 1.404 . S
C67 C68 1.391 . S
C68 H62 0.930 . S
C68 C64 1.429 1_545 S
C68 C67 1.391 . S
H69 C72 0.931 . S
H70 C75 0.928 . S
H71 C77 0.930 . S
C72 H69 0.931 . S
C72 C73 1.413 . S
C72 C74 1.360 . S
C73 C72 1.413 . S
C73 C77 1.429 . S
C74 C72 1.360 . S
C74 C75 1.372 . S
C75 H70 0.928 . S
C75 C74 1.372 . S
C75 C76 1.404 . S
C76 C75 1.404 . S
C76 C77 1.391 . S
C77 H71 0.930 . S
C77 C73 1.429 . S
C77 C76 1.391 . S
H78 C81 0.931 . S
H79 C84 0.928 . S
H80 C86 0.930 . S
C81 H78 0.931 . S
C81 C82 1.413 . S
C81 C83 1.360 1_655 S
C82 C81 1.413 . S
C82 C86 1.429 1_655 S
C83 C81 1.360 1_455 S
C83 C84 1.372 . S
C84 H79 0.928 . S
C84 C83 1.372 . S
C84 C85 1.404 . S
C85 C84 1.404 . S
C85 C86 1.391 . S
C86 H80 0.930 . S
C86 C82 1.429 1_455 S
C86 C85 1.391 . S
H87 C90 0.931 . S
H88 C93 0.928 . S
H89 C95 0.930 . S
C90 H87 0.931 . S
C90 C91 1.413 . S
C90 C92 1.360 1_655 S
C91 C90 1.413 . S
C91 C95 1.429 1_655 S
C92 C90 1.360 1_455 S
C92 C93 1.372 . S
C93 H88 0.928 . S
C93 C92 1.372 . S
C93 C94 1.404 . S
C94 C93 1.404 . S
C94 C95 1.391 . S
C95 H89 0.930 . S
C95 C91 1.429 1_455 S
C95 C94 1.391 . S
H96 C99 0.931 . S
H97 C102 0.928 . S
H98 C104 0.930 . S
C99 H96 0.931 . S
C99 C100 1.413 . S
C99 C101 1.360 . S
C100 C99 1.413 . S
C100 C104 1.429 . S
C101 C99 1.360 . S
C101 C102 1.372 1_545 S
C102 H97 0.928 . S
C102 C101 1.372 1_565 S
C102 C103 1.404 . S
C103 C102 1.404 . S
C103 C104 1.391 1_565 S
C104 H98 0.930 . S
C104 C100 1.429 . S
C104 C103 1.391 1_545 S
H105 C108 0.931 . S
H106 C111 0.928 . S
H107 C113 0.930 . S
C108 H105 0.931 . S
C108 C109 1.413 . S
C108 C110 1.360 . S
C109 C108 1.413 . S
C109 C113 1.429 . S
C110 C108 1.360 . S
C110 C111 1.372 . S
C111 H106 0.928 . S
C111 C110 1.372 . S
C111 C112 1.404 . S
C112 C111 1.404 . S
C112 C113 1.391 . S
C113 H107 0.930 . S
C113 C109 1.429 . S
C113 C112 1.391 . S
C114 C115 1.369 . S
C114 C116 1.419 . S
C114 H118 0.930 . S
C115 C114 1.369 . S
C115 C124 1.429 . S
C116 C114 1.419 . S
C116 C117 1.363 . S
C116 H119 0.929 . S
C117 C116 1.363 . S
C117 C123 1.428 . S
H118 C114 0.930 . S
H119 C116 0.929 . S
S120 N121 1.613 . S
S120 N122 1.610 . S
N121 S120 1.613 . S
N121 C124 1.350 . S
N122 S120 1.610 . S
N122 C123 1.351 . S
C123 C117 1.428 . S
C123 N122 1.351 . S
C123 C124 1.434 . S
C124 C115 1.429 . S
C124 N121 1.350 . S
C124 C123 1.434 . S
C125 C126 1.369 . S
C125 C127 1.419 . S
C125 H129 0.930 . S
C126 C125 1.369 . S
C126 C135 1.429 . S
C127 C125 1.419 . S
C127 C128 1.363 . S
C127 H130 0.929 . S
C128 C127 1.363 . S
C128 C134 1.428 . S
H129 C125 0.930 . S
H130 C127 0.929 . S
S131 N132 1.613 . S
S131 N133 1.610 . S
N132 S131 1.613 . S
N132 C135 1.350 . S
N133 S131 1.610 . S
N133 C134 1.351 . S
C134 C128 1.428 . S
C134 N133 1.351 . S
C134 C135 1.434 . S
C135 C126 1.429 . S
C135 N132 1.350 . S
C135 C134 1.434 . S
C136 C137 1.369 . S
C136 C138 1.419 . S
C136 H140 0.930 . S
C137 C136 1.369 . S
C137 C146 1.429 . S
C138 C136 1.419 . S
C138 C139 1.363 . S
C138 H141 0.929 . S
C139 C138 1.363 . S
C139 C145 1.428 . S
H140 C136 0.930 . S
H141 C138 0.929 . S
S142 N143 1.613 . S
S142 N144 1.610 . S
N143 S142 1.613 . S
N143 C146 1.350 . S
N144 S142 1.610 . S
N144 C145 1.351 . S
C145 C139 1.428 . S
C145 N144 1.351 . S
C145 C146 1.434 . S
C146 C137 1.429 . S
C146 N143 1.350 . S
C146 C145 1.434 . S
C147 C148 1.369 . S
C147 C149 1.419 . S
C147 H151 0.930 . S
C148 C147 1.369 . S
C148 C157 1.429 . S
C149 C147 1.419 . S
C149 C150 1.363 . S
C149 H152 0.929 . S
C150 C149 1.363 . S
C150 C156 1.428 . S
H151 C147 0.930 . S
H152 C149 0.929 . S
S153 N154 1.613 . S
S153 N155 1.610 . S
N154 S153 1.613 . S
N154 C157 1.350 . S
N155 S153 1.610 . S
N155 C156 1.351 . S
C156 C150 1.428 . S
C156 N155 1.351 . S
C156 C157 1.434 . S
C157 C148 1.429 . S
C157 N154 1.350 . S
C157 C156 1.434 . S
C158 C159 1.369 . S
C158 C160 1.419 . S
C158 H162 0.930 . S
C159 C158 1.369 . S
C159 C168 1.429 . S
C160 C158 1.419 . S
C160 C161 1.363 . S
C160 H163 0.929 . S
C161 C160 1.363 . S
C161 C167 1.428 . S
H162 C158 0.930 . S
H163 C160 0.929 . S
S164 N165 1.613 . S
S164 N166 1.610 . S
N165 S164 1.613 . S
N165 C168 1.350 . S
N166 S164 1.610 . S
N166 C167 1.351 . S
C167 C161 1.428 . S
C167 N166 1.351 . S
C167 C168 1.434 . S
C168 C159 1.429 . S
C168 N165 1.350 . S
C168 C167 1.434 . S
C169 C170 1.369 . S
C169 C171 1.419 . S
C169 H173 0.930 . S
C170 C169 1.369 . S
C170 C179 1.429 . S
C171 C169 1.419 . S
C171 C172 1.363 . S
C171 H174 0.929 . S
C172 C171 1.363 . S
C172 C178 1.428 . S
H173 C169 0.930 . S
H174 C171 0.929 . S
S175 N176 1.613 . S
S175 N177 1.610 . S
N176 S175 1.613 . S
N176 C179 1.350 . S
N177 S175 1.610 . S
N177 C178 1.351 . S
C178 C172 1.428 . S
C178 N177 1.351 . S
C178 C179 1.434 . S
C179 C170 1.429 . S
C179 N176 1.350 . S
C179 C178 1.434 . S
C180 C181 1.369 . S
C180 C182 1.419 . S
C180 H184 0.930 . S
C181 C180 1.369 . S
C181 C190 1.429 . S
C182 C180 1.419 . S
C182 C183 1.363 . S
C182 H185 0.929 . S
C183 C182 1.363 . S
C183 C189 1.428 . S
H184 C180 0.930 . S
H185 C182 0.929 . S
S186 N187 1.613 . S
S186 N188 1.610 . S
N187 S186 1.613 . S
N187 C190 1.350 . S
N188 S186 1.610 . S
N188 C189 1.351 . S
C189 C183 1.428 . S
C189 N188 1.351 . S
C189 C190 1.434 . S
C190 C181 1.429 . S
C190 N187 1.350 . S
C190 C189 1.434 . S
C191 C192 1.369 . S
C191 C193 1.419 . S
C191 H195 0.930 . S
C192 C191 1.369 . S
C192 C201 1.429 . S
C193 C191 1.419 . S
C193 C194 1.363 . S
C193 H196 0.929 . S
C194 C193 1.363 . S
C194 C200 1.428 . S
H195 C191 0.930 . S
H196 C193 0.929 . S
S197 N198 1.613 . S
S197 N199 1.610 . S
N198 S197 1.613 . S
N198 C201 1.350 . S
N199 S197 1.610 . S
N199 C200 1.351 . S
C200 C194 1.428 . S
C200 N199 1.351 . S
C200 C201 1.434 . S
C201 C192 1.429 . S
C201 N198 1.350 . S
C201 C200 1.434 . S
C202 C203 1.369 . S
C202 C204 1.419 . S
C202 H206 0.930 . S
C203 C202 1.369 . S
C203 C212 1.429 . S
C204 C202 1.419 . S
C204 C205 1.363 . S
C204 H207 0.929 . S
C205 C204 1.363 . S
C205 C211 1.428 . S
H206 C202 0.930 . S
H207 C204 0.929 . S
S208 N209 1.613 . S
S208 N210 1.610 . S
N209 S208 1.613 . S
N209 C212 1.350 . S
N210 S208 1.610 . S
N210 C211 1.351 . S
C211 C205 1.428 . S
C211 N210 1.351 . S
C211 C212 1.434 . S
C212 C203 1.429 . S
C212 N209 1.350 . S
C212 C211 1.434 . S
C213 C214 1.369 . S
C213 C215 1.419 . S
C213 H217 0.930 . S
C214 C213 1.369 . S
C214 C223 1.429 . S
C215 C213 1.419 . S
C215 C216 1.363 . S
C215 H218 0.929 . S
C216 C215 1.363 . S
C216 C222 1.428 . S
H217 C213 0.930 . S
H218 C215 0.929 . S
S219 N220 1.613 . S
S219 N221 1.610 . S
N220 S219 1.613 . S
N220 C223 1.350 . S
N221 S219 1.610 . S
N221 C222 1.351 . S
C222 C216 1.428 . S
C222 N221 1.351 . S
C222 C223 1.434 . S
C223 C214 1.429 . S
C223 N220 1.350 . S
C223 C222 1.434 . S
C224 C225 1.369 . S
C224 C226 1.419 . S
C224 H228 0.930 . S
C225 C224 1.369 . S
C225 C234 1.429 . S
C226 C224 1.419 . S
C226 C227 1.363 . S
C226 H229 0.929 . S
C227 C226 1.363 . S
C227 C233 1.428 . S
H228 C224 0.930 . S
H229 C226 0.929 . S
S230 N231 1.613 . S
S230 N232 1.610 . S
N231 S230 1.613 . S
N231 C234 1.350 . S
N232 S230 1.610 . S
N232 C233 1.351 . S
C233 C227 1.428 . S
C233 N232 1.351 . S
C233 C234 1.434 . S
C234 C225 1.429 . S
C234 N231 1.350 . S
C234 C233 1.434 . S
C235 C236 1.369 . S
C235 C237 1.419 . S
C235 H239 0.930 . S
C236 C235 1.369 . S
C236 C245 1.429 . S
C237 C235 1.419 . S
C237 C238 1.363 . S
C237 H240 0.929 . S
C238 C237 1.363 . S
C238 C244 1.428 . S
H239 C235 0.930 . S
H240 C237 0.929 . S
S241 N242 1.613 . S
S241 N243 1.610 . S
N242 S241 1.613 . S
N242 C245 1.350 . S
N243 S241 1.610 . S
N243 C244 1.351 . S
C244 C238 1.428 . S
C244 N243 1.351 . S
C244 C245 1.434 . S
C245 C236 1.429 . S
C245 N242 1.350 . S
C245 C244 1.434 . S
C246 C247 1.369 . S
C246 C248 1.419 . S
C246 H250 0.930 . S
C247 C246 1.369 . S
C247 C256 1.429 1_455 S
C248 C246 1.419 . S
C248 C249 1.363 1_554 S
C248 H251 0.929 . S
C249 C248 1.363 1_556 S
C249 C255 1.428 1_455 S
H250 C246 0.930 . S
H251 C248 0.929 . S
S252 N253 1.613 . S
S252 N254 1.610 1_554 S
N253 S252 1.613 . S
N253 C256 1.350 . S
N254 S252 1.610 1_556 S
N254 C255 1.351 . S
C255 C249 1.428 1_655 S
C255 N254 1.351 . S
C255 C256 1.434 1_556 S
C256 C247 1.429 1_655 S
C256 N253 1.350 . S
C256 C255 1.434 1_554 S
C257 C258 1.369 . S
C257 C259 1.419 . S
C257 H261 0.930 . S
C258 C257 1.369 . S
C258 C267 1.429 1_545 S
C259 C257 1.419 . S
C259 C260 1.363 . S
C259 H262 0.929 . S
C260 C259 1.363 . S
C260 C266 1.428 1_545 S
H261 C257 0.930 . S
H262 C259 0.929 . S
S263 N264 1.613 . S
S263 N265 1.610 . S
N264 S263 1.613 . S
N264 C267 1.350 . S
N265 S263 1.610 . S
N265 C266 1.351 . S
C266 C260 1.428 1_565 S
C266 N265 1.351 . S
C266 C267 1.434 . S
C267 C258 1.429 1_565 S
C267 N264 1.350 . S
C267 C266 1.434 . S
C268 C269 1.369 . S
C268 C270 1.419 . S
C268 H272 0.930 . S
C269 C268 1.369 . S
C269 C278 1.429 . S
C270 C268 1.419 . S
C270 C271 1.363 . S
C270 H273 0.929 . S
C271 C270 1.363 . S
C271 C277 1.428 . S
H272 C268 0.930 . S
H273 C270 0.929 . S
S274 N275 1.613 . S
S274 N276 1.610 . S
N275 S274 1.613 . S
N275 C278 1.350 . S
N276 S274 1.610 . S
N276 C277 1.351 . S
C277 C271 1.428 . S
C277 N276 1.351 . S
C277 C278 1.434 . S
C278 C269 1.429 . S
C278 N275 1.350 . S
C278 C277 1.434 . S
C279 C280 1.369 1_565 S
C279 C281 1.419 . S
C279 H283 0.930 . S
C280 C279 1.369 1_545 S
C280 C289 1.429 . S
C281 C279 1.419 . S
C281 C282 1.363 1_565 S
C281 H284 0.929 . S
C282 C281 1.363 1_545 S
C282 C288 1.428 . S
H283 C279 0.930 . S
H284 C281 0.929 . S
S285 N286 1.613 . S
S285 N287 1.610 . S
N286 S285 1.613 . S
N286 C289 1.350 . S
N287 S285 1.610 . S
N287 C288 1.351 . S
C288 C282 1.428 . S
C288 N287 1.351 . S
C288 C289 1.434 . S
C289 C280 1.429 . S
C289 N286 1.350 . S
C289 C288 1.434 . S
C290 C291 1.369 . S
C290 C292 1.419 . S
C290 H294 0.930 . S
C291 C290 1.369 . S
C291 C300 1.429 . S
C292 C290 1.419 . S
C292 C293 1.363 1_556 S
C292 H295 0.929 1_556 S
C293 C292 1.363 1_554 S
C293 C299 1.428 1_554 S
H294 C290 0.930 . S
H295 C292 0.929 1_554 S
S296 N297 1.613 . S
S296 N298 1.610 1_556 S
N297 S296 1.613 . S
N297 C300 1.350 . S
N298 S296 1.610 1_554 S
N298 C299 1.351 1_554 S
C299 C293 1.428 1_556 S
C299 N298 1.351 1_556 S
C299 C300 1.434 . S
C300 C291 1.429 . S
C300 N297 1.350 . S
C300 C299 1.434 . S
C301 C302 1.373 1_455 S
C301 C303 1.419 . S
C301 H305 0.924 1_455 S
C302 C301 1.373 1_655 S
C302 C311 1.436 . S
C303 C301 1.419 . S
C303 C304 1.363 . S
C303 H306 0.929 . S
C304 C303 1.363 . S
C304 C310 1.428 . S
H305 C301 0.924 1_655 S
H306 C303 0.929 . S
S307 N308 1.613 . S
S307 N309 1.610 1_655 S
N308 S307 1.613 . S
N308 C311 1.343 . S
N309 S307 1.610 1_455 S
N309 C310 1.351 . S
C310 C304 1.428 . S
C310 N309 1.351 . S
C310 C311 1.433 1_455 S
C311 C302 1.436 . S
C311 N308 1.343 . S
C311 C310 1.433 1_655 S
C115 C2 1.424 . S
C117 C109 1.522 . S
C126 C22 1.424 . S
C128 C91 1.544 . S
C137 C44 1.409 . S
C139 C103 1.522 . S
C148 C4 1.476 . S
C150 C112 1.586 . S
C161 C94 1.576 . S
C159 C24 1.483 . S
C172 C100 1.582 . S
C170 C42 1.474 . S
C181 C32 1.285 . S
C183 C73 1.334 . S
C192 C49 1.327 . S
C194 C82 1.362 . S
C203 C9 1.315 . S
C205 C64 1.356 . S
C216 C76 1.363 . S
C214 C29 1.291 . S
C227 C85 1.326 . S
C225 C52 1.243 . S
C236 C12 1.234 . S
C238 C67 1.319 . S
C249 C83 1.439 . S
C247 C18 1.429 1_455 S
C258 C38 1.418 . S
C260 C65 1.439 . S
C269 C58 1.421 . S
C271 C74 1.440 . S
C282 C101 1.520 . S
C280 C39 1.500 . S
C293 C110 1.508 . S
C291 C59 1.482 . S
C302 C19 1.478 1_655 S
C304 C92 1.509 . S
