# Generated by pormake.
# Topology bpr, (3,3)-cn, num edge types: 1
# Building blocks:
#     Node 0, Type 0, BuildingBlock: WUSLED_clean_sbu_0, # of connection points: 3
#     Node 1, Type 0, BuildingBlock: WUSLED_clean_sbu_0, # of connection points: 3
#     Node 2, Type 0, BuildingBlock: WUSLED_clean_sbu_0, # of connection points: 3
#     Node 3, Type 0, BuildingBlock: WUSLED_clean_sbu_0, # of connection points: 3
#     Node 4, Type 0, BuildingBlock: WUSLED_clean_sbu_0, # of connection points: 3
#     Node 5, Type 0, BuildingBlock: WUSLED_clean_sbu_0, # of connection points: 3
#     Node 6, Type 0, BuildingBlock: WUSLED_clean_sbu_0, # of connection points: 3
#     Node 7, Type 0, BuildingBlock: WUSLED_clean_sbu_0, # of connection points: 3
#     Node 8, Type 0, BuildingBlock: WUSLED_clean_sbu_0, # of connection points: 3
#     Node 9, Type 0, BuildingBlock: WUSLED_clean_sbu_0, # of connection points: 3
#     Node 10, Type 0, BuildingBlock: WUSLED_clean_sbu_0, # of connection points: 3
#     Node 11, Type 0, BuildingBlock: WUSLED_clean_sbu_0, # of connection points: 3
#     Node 12, Type 0, BuildingBlock: WUSLED_clean_sbu_0, # of connection points: 3
#     Node 13, Type 0, BuildingBlock: WUSLED_clean_sbu_0, # of connection points: 3
#     Node 14, Type 0, BuildingBlock: WUSLED_clean_sbu_0, # of connection points: 3
#     Node 15, Type 0, BuildingBlock: WUSLED_clean_sbu_0, # of connection points: 3
#     Node 16, Type 0, BuildingBlock: WUSLED_clean_sbu_0, # of connection points: 3
#     Node 17, Type 0, BuildingBlock: WUSLED_clean_sbu_0, # of connection points: 3
#     Node 18, Type 0, BuildingBlock: WUSLED_clean_sbu_0, # of connection points: 3
#     Node 19, Type 0, BuildingBlock: WUSLED_clean_sbu_0, # of connection points: 3
#     Node 20, Type 0, BuildingBlock: WUSLED_clean_sbu_0, # of connection points: 3
#     Node 21, Type 0, BuildingBlock: WUSLED_clean_sbu_0, # of connection points: 3
#     Node 22, Type 0, BuildingBlock: WUSLED_clean_sbu_0, # of connection points: 3
#     Node 23, Type 0, BuildingBlock: WUSLED_clean_sbu_0, # of connection points: 3
#     Node 24, Type 0, BuildingBlock: WUSLED_clean_sbu_0, # of connection points: 3
#     Node 25, Type 0, BuildingBlock: WUSLED_clean_sbu_0, # of connection points: 3
#     Node 26, Type 0, BuildingBlock: WUSLED_clean_sbu_0, # of connection points: 3
#     Node 27, Type 0, BuildingBlock: WUSLED_clean_sbu_0, # of connection points: 3
#     Node 28, Type 0, BuildingBlock: WUSLED_clean_sbu_0, # of connection points: 3
#     Node 29, Type 0, BuildingBlock: WUSLED_clean_sbu_0, # of connection points: 3
#     Node 30, Type 0, BuildingBlock: WUSLED_clean_sbu_0, # of connection points: 3
#     Node 31, Type 0, BuildingBlock: WUSLED_clean_sbu_0, # of connection points: 3
#     Node 32, Type 0, BuildingBlock: WUSLED_clean_sbu_0, # of connection points: 3
#     Node 33, Type 0, BuildingBlock: WUSLED_clean_sbu_0, # of connection points: 3
#     Node 34, Type 0, BuildingBlock: WUSLED_clean_sbu_0, # of connection points: 3
#     Node 35, Type 0, BuildingBlock: WUSLED_clean_sbu_0, # of connection points: 3
#     Node 36, Type 0, BuildingBlock: WUSLED_clean_sbu_0, # of connection points: 3
#     Node 37, Type 0, BuildingBlock: WUSLED_clean_sbu_0, # of connection points: 3
#     Node 38, Type 0, BuildingBlock: WUSLED_clean_sbu_0, # of connection points: 3
#     Node 39, Type 0, BuildingBlock: WUSLED_clean_sbu_0, # of connection points: 3
#     Node 40, Type 0, BuildingBlock: WUSLED_clean_sbu_0, # of connection points: 3
#     Node 41, Type 0, BuildingBlock: WUSLED_clean_sbu_0, # of connection points: 3
#     Node 42, Type 0, BuildingBlock: WUSLED_clean_sbu_0, # of connection points: 3
#     Node 43, Type 0, BuildingBlock: WUSLED_clean_sbu_0, # of connection points: 3
#     Node 44, Type 0, BuildingBlock: WUSLED_clean_sbu_0, # of connection points: 3
#     Node 45, Type 0, BuildingBlock: WUSLED_clean_sbu_0, # of connection points: 3
#     Node 46, Type 0, BuildingBlock: WUSLED_clean_sbu_0, # of connection points: 3
#     Node 47, Type 0, BuildingBlock: WUSLED_clean_sbu_0, # of connection points: 3
#     Node 48, Type 1, BuildingBlock: BELTOD_clean_linker_0, # of connection points: 3
#     Node 49, Type 1, BuildingBlock: BELTOD_clean_linker_0, # of connection points: 3
#     Node 50, Type 1, BuildingBlock: BELTOD_clean_linker_0, # of connection points: 3
#     Node 51, Type 1, BuildingBlock: BELTOD_clean_linker_0, # of connection points: 3
#     Node 52, Type 1, BuildingBlock: BELTOD_clean_linker_0, # of connection points: 3
#     Node 53, Type 1, BuildingBlock: BELTOD_clean_linker_0, # of connection points: 3
#     Node 54, Type 1, BuildingBlock: BELTOD_clean_linker_0, # of connection points: 3
#     Node 55, Type 1, BuildingBlock: BELTOD_clean_linker_0, # of connection points: 3
#     Node 56, Type 1, BuildingBlock: BELTOD_clean_linker_0, # of connection points: 3
#     Node 57, Type 1, BuildingBlock: BELTOD_clean_linker_0, # of connection points: 3
#     Node 58, Type 1, BuildingBlock: BELTOD_clean_linker_0, # of connection points: 3
#     Node 59, Type 1, BuildingBlock: BELTOD_clean_linker_0, # of connection points: 3
#     Node 60, Type 1, BuildingBlock: BELTOD_clean_linker_0, # of connection points: 3
#     Node 61, Type 1, BuildingBlock: BELTOD_clean_linker_0, # of connection points: 3
#     Node 62, Type 1, BuildingBlock: BELTOD_clean_linker_0, # of connection points: 3
#     Node 63, Type 1, BuildingBlock: BELTOD_clean_linker_0, # of connection points: 3
#     Node 64, Type 1, BuildingBlock: BELTOD_clean_linker_0, # of connection points: 3
#     Node 65, Type 1, BuildingBlock: BELTOD_clean_linker_0, # of connection points: 3
#     Node 66, Type 1, BuildingBlock: BELTOD_clean_linker_0, # of connection points: 3
#     Node 67, Type 1, BuildingBlock: BELTOD_clean_linker_0, # of connection points: 3
#     Node 68, Type 1, BuildingBlock: BELTOD_clean_linker_0, # of connection points: 3
#     Node 69, Type 1, BuildingBlock: BELTOD_clean_linker_0, # of connection points: 3
#     Node 70, Type 1, BuildingBlock: BELTOD_clean_linker_0, # of connection points: 3
#     Node 71, Type 1, BuildingBlock: BELTOD_clean_linker_0, # of connection points: 3
#     Node 72, Type 1, BuildingBlock: BELTOD_clean_linker_0, # of connection points: 3
#     Node 73, Type 1, BuildingBlock: BELTOD_clean_linker_0, # of connection points: 3
#     Node 74, Type 1, BuildingBlock: BELTOD_clean_linker_0, # of connection points: 3
#     Node 75, Type 1, BuildingBlock: BELTOD_clean_linker_0, # of connection points: 3
#     Node 76, Type 1, BuildingBlock: BELTOD_clean_linker_0, # of connection points: 3
#     Node 77, Type 1, BuildingBlock: BELTOD_clean_linker_0, # of connection points: 3
#     Node 78, Type 1, BuildingBlock: BELTOD_clean_linker_0, # of connection points: 3
#     Node 79, Type 1, BuildingBlock: BELTOD_clean_linker_0, # of connection points: 3
#     Node 80, Type 1, BuildingBlock: BELTOD_clean_linker_0, # of connection points: 3
#     Node 81, Type 1, BuildingBlock: BELTOD_clean_linker_0, # of connection points: 3
#     Node 82, Type 1, BuildingBlock: BELTOD_clean_linker_0, # of connection points: 3
#     Node 83, Type 1, BuildingBlock: BELTOD_clean_linker_0, # of connection points: 3
#     Node 84, Type 1, BuildingBlock: BELTOD_clean_linker_0, # of connection points: 3
#     Node 85, Type 1, BuildingBlock: BELTOD_clean_linker_0, # of connection points: 3
#     Node 86, Type 1, BuildingBlock: BELTOD_clean_linker_0, # of connection points: 3
#     Node 87, Type 1, BuildingBlock: BELTOD_clean_linker_0, # of connection points: 3
#     Node 88, Type 1, BuildingBlock: BELTOD_clean_linker_0, # of connection points: 3
#     Node 89, Type 1, BuildingBlock: BELTOD_clean_linker_0, # of connection points: 3
#     Node 90, Type 1, BuildingBlock: BELTOD_clean_linker_0, # of connection points: 3
#     Node 91, Type 1, BuildingBlock: BELTOD_clean_linker_0, # of connection points: 3
#     Node 92, Type 1, BuildingBlock: BELTOD_clean_linker_0, # of connection points: 3
#     Node 93, Type 1, BuildingBlock: BELTOD_clean_linker_0, # of connection points: 3
#     Node 94, Type 1, BuildingBlock: BELTOD_clean_linker_0, # of connection points: 3
#     Node 95, Type 1, BuildingBlock: BELTOD_clean_linker_0, # of connection points: 3
#     Edge 96, Type (0, 1), BuildingBlock: ZUJKAS_clean_linker_0, # of connection points: 2
#     Edge 97, Type (0, 1), BuildingBlock: ZUJKAS_clean_linker_0, # of connection points: 2
#     Edge 98, Type (0, 1), BuildingBlock: ZUJKAS_clean_linker_0, # of connection points: 2
#     Edge 99, Type (0, 1), BuildingBlock: ZUJKAS_clean_linker_0, # of connection points: 2
#     Edge 100, Type (0, 1), BuildingBlock: ZUJKAS_clean_linker_0, # of connection points: 2
#     Edge 101, Type (0, 1), BuildingBlock: ZUJKAS_clean_linker_0, # of connection points: 2
#     Edge 102, Type (0, 1), BuildingBlock: ZUJKAS_clean_linker_0, # of connection points: 2
#     Edge 103, Type (0, 1), BuildingBlock: ZUJKAS_clean_linker_0, # of connection points: 2
#     Edge 104, Type (0, 1), BuildingBlock: ZUJKAS_clean_linker_0, # of connection points: 2
#     Edge 105, Type (0, 1), BuildingBlock: ZUJKAS_clean_linker_0, # of connection points: 2
#     Edge 106, Type (0, 1), BuildingBlock: ZUJKAS_clean_linker_0, # of connection points: 2
#     Edge 107, Type (0, 1), BuildingBlock: ZUJKAS_clean_linker_0, # of connection points: 2
#     Edge 108, Type (0, 1), BuildingBlock: ZUJKAS_clean_linker_0, # of connection points: 2
#     Edge 109, Type (0, 1), BuildingBlock: ZUJKAS_clean_linker_0, # of connection points: 2
#     Edge 110, Type (0, 1), BuildingBlock: ZUJKAS_clean_linker_0, # of connection points: 2
#     Edge 111, Type (0, 1), BuildingBlock: ZUJKAS_clean_linker_0, # of connection points: 2
#     Edge 112, Type (0, 1), BuildingBlock: ZUJKAS_clean_linker_0, # of connection points: 2
#     Edge 113, Type (0, 1), BuildingBlock: ZUJKAS_clean_linker_0, # of connection points: 2
#     Edge 114, Type (0, 1), BuildingBlock: ZUJKAS_clean_linker_0, # of connection points: 2
#     Edge 115, Type (0, 1), BuildingBlock: ZUJKAS_clean_linker_0, # of connection points: 2
#     Edge 116, Type (0, 1), BuildingBlock: ZUJKAS_clean_linker_0, # of connection points: 2
#     Edge 117, Type (0, 1), BuildingBlock: ZUJKAS_clean_linker_0, # of connection points: 2
#     Edge 118, Type (0, 1), BuildingBlock: ZUJKAS_clean_linker_0, # of connection points: 2
#     Edge 119, Type (0, 1), BuildingBlock: ZUJKAS_clean_linker_0, # of connection points: 2
#     Edge 120, Type (0, 1), BuildingBlock: ZUJKAS_clean_linker_0, # of connection points: 2
#     Edge 121, Type (0, 1), BuildingBlock: ZUJKAS_clean_linker_0, # of connection points: 2
#     Edge 122, Type (0, 1), BuildingBlock: ZUJKAS_clean_linker_0, # of connection points: 2
#     Edge 123, Type (0, 1), BuildingBlock: ZUJKAS_clean_linker_0, # of connection points: 2
#     Edge 124, Type (0, 1), BuildingBlock: ZUJKAS_clean_linker_0, # of connection points: 2
#     Edge 125, Type (0, 1), BuildingBlock: ZUJKAS_clean_linker_0, # of connection points: 2
#     Edge 126, Type (0, 1), BuildingBlock: ZUJKAS_clean_linker_0, # of connection points: 2
#     Edge 127, Type (0, 1), BuildingBlock: ZUJKAS_clean_linker_0, # of connection points: 2
#     Edge 128, Type (0, 1), BuildingBlock: ZUJKAS_clean_linker_0, # of connection points: 2
#     Edge 129, Type (0, 1), BuildingBlock: ZUJKAS_clean_linker_0, # of connection points: 2
#     Edge 130, Type (0, 1), BuildingBlock: ZUJKAS_clean_linker_0, # of connection points: 2
#     Edge 131, Type (0, 1), BuildingBlock: ZUJKAS_clean_linker_0, # of connection points: 2
#     Edge 132, Type (0, 1), BuildingBlock: ZUJKAS_clean_linker_0, # of connection points: 2
#     Edge 133, Type (0, 1), BuildingBlock: ZUJKAS_clean_linker_0, # of connection points: 2
#     Edge 134, Type (0, 1), BuildingBlock: ZUJKAS_clean_linker_0, # of connection points: 2
#     Edge 135, Type (0, 1), BuildingBlock: ZUJKAS_clean_linker_0, # of connection points: 2
#     Edge 136, Type (0, 1), BuildingBlock: ZUJKAS_clean_linker_0, # of connection points: 2
#     Edge 137, Type (0, 1), BuildingBlock: ZUJKAS_clean_linker_0, # of connection points: 2
#     Edge 138, Type (0, 1), BuildingBlock: ZUJKAS_clean_linker_0, # of connection points: 2
#     Edge 139, Type (0, 1), BuildingBlock: ZUJKAS_clean_linker_0, # of connection points: 2
#     Edge 140, Type (0, 1), BuildingBlock: ZUJKAS_clean_linker_0, # of connection points: 2
#     Edge 141, Type (0, 1), BuildingBlock: ZUJKAS_clean_linker_0, # of connection points: 2
#     Edge 142, Type (0, 1), BuildingBlock: ZUJKAS_clean_linker_0, # of connection points: 2
#     Edge 143, Type (0, 1), BuildingBlock: ZUJKAS_clean_linker_0, # of connection points: 2
#     Edge 144, Type (0, 1), BuildingBlock: ZUJKAS_clean_linker_0, # of connection points: 2
#     Edge 145, Type (0, 1), BuildingBlock: ZUJKAS_clean_linker_0, # of connection points: 2
#     Edge 146, Type (0, 1), BuildingBlock: ZUJKAS_clean_linker_0, # of connection points: 2
#     Edge 147, Type (0, 1), BuildingBlock: ZUJKAS_clean_linker_0, # of connection points: 2
#     Edge 148, Type (0, 1), BuildingBlock: ZUJKAS_clean_linker_0, # of connection points: 2
#     Edge 149, Type (0, 1), BuildingBlock: ZUJKAS_clean_linker_0, # of connection points: 2
#     Edge 150, Type (0, 1), BuildingBlock: ZUJKAS_clean_linker_0, # of connection points: 2
#     Edge 151, Type (0, 1), BuildingBlock: ZUJKAS_clean_linker_0, # of connection points: 2
#     Edge 152, Type (0, 1), BuildingBlock: ZUJKAS_clean_linker_0, # of connection points: 2
#     Edge 153, Type (0, 1), BuildingBlock: ZUJKAS_clean_linker_0, # of connection points: 2
#     Edge 154, Type (0, 1), BuildingBlock: ZUJKAS_clean_linker_0, # of connection points: 2
#     Edge 155, Type (0, 1), BuildingBlock: ZUJKAS_clean_linker_0, # of connection points: 2
#     Edge 156, Type (0, 1), BuildingBlock: ZUJKAS_clean_linker_0, # of connection points: 2
#     Edge 157, Type (0, 1), BuildingBlock: ZUJKAS_clean_linker_0, # of connection points: 2
#     Edge 158, Type (0, 1), BuildingBlock: ZUJKAS_clean_linker_0, # of connection points: 2
#     Edge 159, Type (0, 1), BuildingBlock: ZUJKAS_clean_linker_0, # of connection points: 2
#     Edge 160, Type (0, 1), BuildingBlock: ZUJKAS_clean_linker_0, # of connection points: 2
#     Edge 161, Type (0, 1), BuildingBlock: ZUJKAS_clean_linker_0, # of connection points: 2
#     Edge 162, Type (0, 1), BuildingBlock: ZUJKAS_clean_linker_0, # of connection points: 2
#     Edge 163, Type (0, 1), BuildingBlock: ZUJKAS_clean_linker_0, # of connection points: 2
#     Edge 164, Type (0, 1), BuildingBlock: ZUJKAS_clean_linker_0, # of connection points: 2
#     Edge 165, Type (0, 1), BuildingBlock: ZUJKAS_clean_linker_0, # of connection points: 2
#     Edge 166, Type (0, 1), BuildingBlock: ZUJKAS_clean_linker_0, # of connection points: 2
#     Edge 167, Type (0, 1), BuildingBlock: ZUJKAS_clean_linker_0, # of connection points: 2
#     Edge 168, Type (0, 1), BuildingBlock: ZUJKAS_clean_linker_0, # of connection points: 2
#     Edge 169, Type (0, 1), BuildingBlock: ZUJKAS_clean_linker_0, # of connection points: 2
#     Edge 170, Type (0, 1), BuildingBlock: ZUJKAS_clean_linker_0, # of connection points: 2
#     Edge 171, Type (0, 1), BuildingBlock: ZUJKAS_clean_linker_0, # of connection points: 2
#     Edge 172, Type (0, 1), BuildingBlock: ZUJKAS_clean_linker_0, # of connection points: 2
#     Edge 173, Type (0, 1), BuildingBlock: ZUJKAS_clean_linker_0, # of connection points: 2
#     Edge 174, Type (0, 1), BuildingBlock: ZUJKAS_clean_linker_0, # of connection points: 2
#     Edge 175, Type (0, 1), BuildingBlock: ZUJKAS_clean_linker_0, # of connection points: 2
#     Edge 176, Type (0, 1), BuildingBlock: ZUJKAS_clean_linker_0, # of connection points: 2
#     Edge 177, Type (0, 1), BuildingBlock: ZUJKAS_clean_linker_0, # of connection points: 2
#     Edge 178, Type (0, 1), BuildingBlock: ZUJKAS_clean_linker_0, # of connection points: 2
#     Edge 179, Type (0, 1), BuildingBlock: ZUJKAS_clean_linker_0, # of connection points: 2
#     Edge 180, Type (0, 1), BuildingBlock: ZUJKAS_clean_linker_0, # of connection points: 2
#     Edge 181, Type (0, 1), BuildingBlock: ZUJKAS_clean_linker_0, # of connection points: 2
#     Edge 182, Type (0, 1), BuildingBlock: ZUJKAS_clean_linker_0, # of connection points: 2
#     Edge 183, Type (0, 1), BuildingBlock: ZUJKAS_clean_linker_0, # of connection points: 2
#     Edge 184, Type (0, 1), BuildingBlock: ZUJKAS_clean_linker_0, # of connection points: 2
#     Edge 185, Type (0, 1), BuildingBlock: ZUJKAS_clean_linker_0, # of connection points: 2
#     Edge 186, Type (0, 1), BuildingBlock: ZUJKAS_clean_linker_0, # of connection points: 2
#     Edge 187, Type (0, 1), BuildingBlock: ZUJKAS_clean_linker_0, # of connection points: 2
#     Edge 188, Type (0, 1), BuildingBlock: ZUJKAS_clean_linker_0, # of connection points: 2
#     Edge 189, Type (0, 1), BuildingBlock: ZUJKAS_clean_linker_0, # of connection points: 2
#     Edge 190, Type (0, 1), BuildingBlock: ZUJKAS_clean_linker_0, # of connection points: 2
#     Edge 191, Type (0, 1), BuildingBlock: ZUJKAS_clean_linker_0, # of connection points: 2
#     Edge 192, Type (0, 1), BuildingBlock: ZUJKAS_clean_linker_0, # of connection points: 2
#     Edge 193, Type (0, 1), BuildingBlock: ZUJKAS_clean_linker_0, # of connection points: 2
#     Edge 194, Type (0, 1), BuildingBlock: ZUJKAS_clean_linker_0, # of connection points: 2
#     Edge 195, Type (0, 1), BuildingBlock: ZUJKAS_clean_linker_0, # of connection points: 2
#     Edge 196, Type (0, 1), BuildingBlock: ZUJKAS_clean_linker_0, # of connection points: 2
#     Edge 197, Type (0, 1), BuildingBlock: ZUJKAS_clean_linker_0, # of connection points: 2
#     Edge 198, Type (0, 1), BuildingBlock: ZUJKAS_clean_linker_0, # of connection points: 2
#     Edge 199, Type (0, 1), BuildingBlock: ZUJKAS_clean_linker_0, # of connection points: 2
#     Edge 200, Type (0, 1), BuildingBlock: ZUJKAS_clean_linker_0, # of connection points: 2
#     Edge 201, Type (0, 1), BuildingBlock: ZUJKAS_clean_linker_0, # of connection points: 2
#     Edge 202, Type (0, 1), BuildingBlock: ZUJKAS_clean_linker_0, # of connection points: 2
#     Edge 203, Type (0, 1), BuildingBlock: ZUJKAS_clean_linker_0, # of connection points: 2
#     Edge 204, Type (0, 1), BuildingBlock: ZUJKAS_clean_linker_0, # of connection points: 2
#     Edge 205, Type (0, 1), BuildingBlock: ZUJKAS_clean_linker_0, # of connection points: 2
#     Edge 206, Type (0, 1), BuildingBlock: ZUJKAS_clean_linker_0, # of connection points: 2
#     Edge 207, Type (0, 1), BuildingBlock: ZUJKAS_clean_linker_0, # of connection points: 2
#     Edge 208, Type (0, 1), BuildingBlock: ZUJKAS_clean_linker_0, # of connection points: 2
#     Edge 209, Type (0, 1), BuildingBlock: ZUJKAS_clean_linker_0, # of connection points: 2
#     Edge 210, Type (0, 1), BuildingBlock: ZUJKAS_clean_linker_0, # of connection points: 2
#     Edge 211, Type (0, 1), BuildingBlock: ZUJKAS_clean_linker_0, # of connection points: 2
#     Edge 212, Type (0, 1), BuildingBlock: ZUJKAS_clean_linker_0, # of connection points: 2
#     Edge 213, Type (0, 1), BuildingBlock: ZUJKAS_clean_linker_0, # of connection points: 2
#     Edge 214, Type (0, 1), BuildingBlock: ZUJKAS_clean_linker_0, # of connection points: 2
#     Edge 215, Type (0, 1), BuildingBlock: ZUJKAS_clean_linker_0, # of connection points: 2
#     Edge 216, Type (0, 1), BuildingBlock: ZUJKAS_clean_linker_0, # of connection points: 2
#     Edge 217, Type (0, 1), BuildingBlock: ZUJKAS_clean_linker_0, # of connection points: 2
#     Edge 218, Type (0, 1), BuildingBlock: ZUJKAS_clean_linker_0, # of connection points: 2
#     Edge 219, Type (0, 1), BuildingBlock: ZUJKAS_clean_linker_0, # of connection points: 2
#     Edge 220, Type (0, 1), BuildingBlock: ZUJKAS_clean_linker_0, # of connection points: 2
#     Edge 221, Type (0, 1), BuildingBlock: ZUJKAS_clean_linker_0, # of connection points: 2
#     Edge 222, Type (0, 1), BuildingBlock: ZUJKAS_clean_linker_0, # of connection points: 2
#     Edge 223, Type (0, 1), BuildingBlock: ZUJKAS_clean_linker_0, # of connection points: 2
#     Edge 224, Type (0, 1), BuildingBlock: ZUJKAS_clean_linker_0, # of connection points: 2
#     Edge 225, Type (0, 1), BuildingBlock: ZUJKAS_clean_linker_0, # of connection points: 2
#     Edge 226, Type (0, 1), BuildingBlock: ZUJKAS_clean_linker_0, # of connection points: 2
#     Edge 227, Type (0, 1), BuildingBlock: ZUJKAS_clean_linker_0, # of connection points: 2
#     Edge 228, Type (0, 1), BuildingBlock: ZUJKAS_clean_linker_0, # of connection points: 2
#     Edge 229, Type (0, 1), BuildingBlock: ZUJKAS_clean_linker_0, # of connection points: 2
#     Edge 230, Type (0, 1), BuildingBlock: ZUJKAS_clean_linker_0, # of connection points: 2
#     Edge 231, Type (0, 1), BuildingBlock: ZUJKAS_clean_linker_0, # of connection points: 2
#     Edge 232, Type (0, 1), BuildingBlock: ZUJKAS_clean_linker_0, # of connection points: 2
#     Edge 233, Type (0, 1), BuildingBlock: ZUJKAS_clean_linker_0, # of connection points: 2
#     Edge 234, Type (0, 1), BuildingBlock: ZUJKAS_clean_linker_0, # of connection points: 2
#     Edge 235, Type (0, 1), BuildingBlock: ZUJKAS_clean_linker_0, # of connection points: 2
#     Edge 236, Type (0, 1), BuildingBlock: ZUJKAS_clean_linker_0, # of connection points: 2
#     Edge 237, Type (0, 1), BuildingBlock: ZUJKAS_clean_linker_0, # of connection points: 2
#     Edge 238, Type (0, 1), BuildingBlock: ZUJKAS_clean_linker_0, # of connection points: 2
#     Edge 239, Type (0, 1), BuildingBlock: ZUJKAS_clean_linker_0, # of connection points: 2
# Relax obj value: 0.084
# Max RMSD: 0.078
# Mean RMSD: 0.067
data_MOF--net-bpr--node1-WUSLED_clean_sbu_0--node2-BELTOD_clean_linker_0--edge1-ZUJKAS_clean_linker_0
_symmetry_space_group_name_H-M    P1
_symmetry_Int_Tables_number       1
_symmetry_cell_setting            triclinic
loop_
_symmetry_equiv_pos_as_xyz
'x, y, z'
_cell_length_a     142.78984
_cell_length_b     143.66995
_cell_length_c     143.48143
_cell_angle_alpha  90.486978
_cell_angle_beta   90.32831
_cell_angle_gamma 90.392574
loop_
_atom_site_label
_atom_site_type_symbol
_atom_site_fract_x
_atom_site_fract_y
_atom_site_fract_z
_atom_type_partial_charge
C0 C 0.99641 0.37701 0.26056 0.0
C1 C 0.99765 0.37803 0.27022 0.0
C2 C 0.98159 0.38336 0.27181 0.0
C3 C 0.99032 0.38118 0.27579 0.0
C4 C 0.98035 0.38224 0.26212 0.0
C5 C 0.98772 0.37911 0.25653 0.0
U6 U 0.02102 0.36813 0.25933 0.0
O7 O 0.02754 0.35718 0.25076 0.0
O8 O 0.03282 0.37157 0.25021 0.0
C9 C 0.03334 0.36306 0.2468 0.0
C10 C 0.0042 0.37378 0.25477 0.0
C11 C 0.03417 0.3623 0.23663 0.0
C12 C 0.02943 0.36655 0.22094 0.0
C13 C 0.02805 0.36696 0.2306 0.0
C14 C 0.04289 0.35664 0.22332 0.0
C15 C 0.03697 0.3615 0.21721 0.0
C16 C 0.0415 0.35706 0.23293 0.0
C17 C 0.03426 0.36515 0.28215 0.0
C18 C 0.05025 0.35952 0.28238 0.0
C19 C 0.04276 0.36418 0.29679 0.0
C20 C 0.03462 0.36635 0.29184 0.0
C21 C 0.05069 0.36075 0.29212 0.0
C22 C 0.0421 0.36171 0.27744 0.0
C23 C 0.02574 0.36767 0.27702 0.0
O24 O 0.0116 0.37929 0.25484 0.0
O25 O 0.00632 0.36495 0.25576 0.0
O26 O 0.02143 0.36075 0.2727 0.0
O27 O 0.02647 0.37518 0.27191 0.0
H28 H 0.00431 0.37639 0.27345 0.0
H29 H 0.99146 0.38182 0.28324 0.0
H30 H 0.97373 0.38392 0.25884 0.0
H31 H 0.98665 0.37835 0.24908 0.0
H32 H 0.02478 0.37039 0.21642 0.0
H33 H 0.02233 0.37104 0.23336 0.0
H34 H 0.04864 0.35254 0.22067 0.0
H35 H 0.04626 0.35338 0.23749 0.0
H36 H 0.05619 0.3568 0.27859 0.0
H37 H 0.0429 0.36534 0.30426 0.0
H38 H 0.02863 0.36905 0.29557 0.0
H39 H 0.04192 0.36074 0.26994 0.0
C40 C 0.8724 0.74098 0.53233 0.0
C41 C 0.86817 0.73895 0.54088 0.0
C42 C 0.87085 0.7224 0.53836 0.0
C43 C 0.86738 0.72975 0.54386 0.0
C44 C 0.87503 0.72449 0.52975 0.0
C45 C 0.8758 0.73371 0.52677 0.0
U46 U 0.87027 0.76656 0.53788 0.0
O47 O 0.87977 0.77837 0.53528 0.0
O48 O 0.86547 0.77839 0.52953 0.0
C49 C 0.87367 0.78262 0.52993 0.0
C50 C 0.87351 0.75069 0.52937 0.0
C51 C 0.87731 0.78614 0.52107 0.0
C52 C 0.88127 0.78409 0.50473 0.0
C53 C 0.87786 0.78045 0.51309 0.0
C54 C 0.8837 0.79905 0.51231 0.0
C55 C 0.88425 0.79344 0.50426 0.0
C56 C 0.88027 0.79543 0.52063 0.0
C57 C 0.86126 0.77363 0.56176 0.0
C58 C 0.85918 0.78989 0.56595 0.0
C59 C 0.85689 0.77791 0.57753 0.0
C60 C 0.85902 0.77109 0.57088 0.0
C61 C 0.85695 0.7874 0.57515 0.0
C62 C 0.86133 0.78306 0.55932 0.0
C63 C 0.86371 0.76641 0.55492 0.0
O64 O 0.86566 0.75532 0.52837 0.0
O65 O 0.88001 0.75543 0.53391 0.0
O66 O 0.87267 0.76584 0.55301 0.0
O67 O 0.85833 0.76598 0.54746 0.0
H68 H 0.86551 0.7445 0.54527 0.0
H69 H 0.86401 0.72839 0.55046 0.0
H70 H 0.87788 0.71901 0.5254 0.0
H71 H 0.87914 0.73517 0.52017 0.0
H72 H 0.88168 0.77957 0.49867 0.0
H73 H 0.87564 0.77323 0.51333 0.0
H74 H 0.88579 0.80631 0.51216 0.0
H75 H 0.87987 0.79992 0.52672 0.0
H76 H 0.85919 0.79712 0.56386 0.0
H77 H 0.85535 0.77576 0.58457 0.0
H78 H 0.859 0.76384 0.57289 0.0
H79 H 0.86306 0.78513 0.55228 0.0
C80 C 0.4794 0.63104 0.72927 0.0
C81 C 0.46979 0.63244 0.72777 0.0
C82 C 0.47234 0.63324 0.71103 0.0
C83 C 0.46629 0.63351 0.71874 0.0
C84 C 0.48199 0.632 0.71259 0.0
C85 C 0.48549 0.63089 0.72165 0.0
U86 U 0.47499 0.63095 0.75512 0.0
O87 O 0.47878 0.6209 0.76597 0.0
O88 O 0.4836 0.63542 0.76712 0.0
C89 C 0.48387 0.62701 0.77066 0.0
C90 C 0.48298 0.62959 0.73876 0.0
C91 C 0.49306 0.62376 0.77387 0.0
C92 C 0.50973 0.62129 0.7717 0.0
C93 C 0.50108 0.62439 0.7683 0.0
C94 C 0.50235 0.61685 0.78617 0.0
C95 C 0.51045 0.61746 0.78068 0.0
C96 C 0.49375 0.61996 0.7828 0.0
C97 C 0.45096 0.63721 0.764 0.0
C98 C 0.44755 0.63565 0.78047 0.0
C99 C 0.43568 0.64148 0.76992 0.0
C100 C 0.44191 0.6406 0.76248 0.0
C101 C 0.43841 0.63896 0.77899 0.0
C102 C 0.45377 0.6348 0.77304 0.0
C103 C 0.45742 0.63606 0.75616 0.0
O104 O 0.48354 0.63713 0.74401 0.0
O105 O 0.47926 0.62245 0.7431 0.0
O106 O 0.46 0.62744 0.75452 0.0
O107 O 0.46445 0.64202 0.756 0.0
H108 H 0.465 0.63264 0.73359 0.0
H109 H 0.45885 0.63459 0.71778 0.0
H110 H 0.48681 0.63169 0.7068 0.0
H111 H 0.49292 0.62981 0.7227 0.0
H112 H 0.51583 0.6218 0.76727 0.0
H113 H 0.50065 0.62728 0.76136 0.0
H114 H 0.50267 0.61409 0.79317 0.0
H115 H 0.48763 0.61945 0.7872 0.0
H116 H 0.44991 0.63378 0.78738 0.0
H117 H 0.42866 0.64397 0.76854 0.0
H118 H 0.43964 0.64248 0.75553 0.0
H119 H 0.46076 0.63221 0.77433 0.0
C120 C 0.62346 0.26431 0.03825 0.0
C121 C 0.62236 0.26636 0.04776 0.0
C122 C 0.62434 0.28289 0.0447 0.0
C123 C 0.62275 0.27556 0.05094 0.0
C124 C 0.62552 0.2808 0.03518 0.0
C125 C 0.62505 0.27157 0.03198 0.0
U126 U 0.62668 0.23889 0.04346 0.0
O127 O 0.61836 0.22648 0.03978 0.0
O128 O 0.63305 0.22749 0.03537 0.0
C129 C 0.62514 0.22276 0.03486 0.0
C130 C 0.62326 0.25459 0.03495 0.0
C131 C 0.62252 0.21913 0.02558 0.0
C132 C 0.61275 0.21931 0.01165 0.0
C133 C 0.6155 0.2233 0.02018 0.0
C134 C 0.62421 0.20713 0.01372 0.0
C135 C 0.617 0.2111 0.00837 0.0
C136 C 0.62691 0.21109 0.02225 0.0
C137 C 0.63401 0.23217 0.06793 0.0
C138 C 0.63588 0.21592 0.07202 0.0
C139 C 0.63848 0.22799 0.08368 0.0
C140 C 0.63638 0.23477 0.07707 0.0
C141 C 0.63822 0.21848 0.08124 0.0
C142 C 0.6338 0.22271 0.06542 0.0
C143 C 0.6317 0.23933 0.06108 0.0
O144 O 0.63147 0.2505 0.03471 0.0
O145 O 0.61666 0.24934 0.03858 0.0
O146 O 0.62292 0.23936 0.05829 0.0
O147 O 0.63768 0.24018 0.0542 0.0
H148 H 0.62127 0.26084 0.05274 0.0
H149 H 0.62199 0.27693 0.05833 0.0
H150 H 0.62673 0.28631 0.03021 0.0
H151 H 0.62597 0.2701 0.02462 0.0
H152 H 0.60714 0.22252 0.00775 0.0
H153 H 0.61204 0.22954 0.02262 0.0
H154 H 0.62777 0.20093 0.01132 0.0
H155 H 0.63237 0.2078 0.0263 0.0
H156 H 0.63574 0.20867 0.06989 0.0
H157 H 0.64014 0.23019 0.09074 0.0
H158 H 0.63655 0.24205 0.07911 0.0
H159 H 0.632 0.2206 0.05836 0.0
C160 C 0.99927 0.6247 0.23803 0.0
C161 C 0.00062 0.62394 0.22838 0.0
C162 C 0.98447 0.61875 0.22629 0.0
C163 C 0.99329 0.62099 0.22257 0.0
C164 C 0.98314 0.6196 0.23598 0.0
C165 C 0.9905 0.62254 0.2418 0.0
U166 U 0.02427 0.63286 0.24042 0.0
O167 O 0.03085 0.64355 0.24945 0.0
O168 O 0.03551 0.62903 0.25013 0.0
C169 C 0.03611 0.63745 0.25375 0.0
C170 C 0.00705 0.62768 0.24411 0.0
C171 C 0.03615 0.63801 0.26399 0.0
C172 C 0.03092 0.63258 0.2791 0.0
C173 C 0.0303 0.63231 0.26936 0.0
C174 C 0.043 0.64446 0.27817 0.0
C175 C 0.03734 0.63861 0.28361 0.0
C176 C 0.04241 0.64415 0.26845 0.0
C177 C 0.03848 0.63555 0.2182 0.0
C178 C 0.05521 0.6387 0.21852 0.0
C179 C 0.04685 0.63815 0.20378 0.0
C180 C 0.03851 0.63625 0.20848 0.0
C181 C 0.0553 0.63935 0.20874 0.0
C182 C 0.04686 0.63684 0.22322 0.0
C183 C 0.02971 0.63331 0.22299 0.0
O184 O 0.01419 0.62195 0.24432 0.0
O185 O 0.00959 0.63644 0.24325 0.0
O186 O 0.0256 0.64035 0.22717 0.0
O187 O 0.02989 0.62575 0.22807 0.0
H188 H 0.00735 0.62562 0.22536 0.0
H189 H 0.99451 0.62055 0.21513 0.0
H190 H 0.97646 0.61785 0.23906 0.0
H191 H 0.98936 0.62309 0.24925 0.0
H192 H 0.02641 0.62805 0.28311 0.0
H193 H 0.02537 0.62756 0.26603 0.0
H194 H 0.0481 0.64908 0.28141 0.0
H195 H 0.04699 0.64858 0.26441 0.0
H196 H 0.06158 0.6397 0.22255 0.0
H197 H 0.0467 0.63848 0.19624 0.0
H198 H 0.0321 0.63525 0.2045 0.0
H199 H 0.04693 0.63635 0.23075 0.0
C200 C 0.6238 0.73648 0.46532 0.0
C201 C 0.62711 0.73445 0.45636 0.0
C202 C 0.62665 0.71786 0.45969 0.0
C203 C 0.62851 0.72523 0.45356 0.0
C204 C 0.62336 0.71994 0.4687 0.0
C205 C 0.62196 0.72919 0.47149 0.0
U206 U 0.62443 0.7619 0.45923 0.0
O207 O 0.61443 0.77319 0.46183 0.0
O208 O 0.62883 0.77433 0.46718 0.0
C209 C 0.62045 0.77804 0.46688 0.0
C210 C 0.62218 0.74618 0.46814 0.0
C211 C 0.61693 0.78172 0.47575 0.0
C212 C 0.61172 0.77963 0.49169 0.0
C213 C 0.61482 0.77585 0.48322 0.0
C214 C 0.61276 0.79512 0.4852 0.0
C215 C 0.61068 0.78932 0.49277 0.0
C216 C 0.61584 0.79135 0.47677 0.0
C217 C 0.6329 0.76892 0.43532 0.0
C218 C 0.6309 0.78468 0.42969 0.0
C219 C 0.64102 0.77399 0.42141 0.0
C220 C 0.63898 0.76707 0.4279 0.0
C221 C 0.63697 0.78286 0.42222 0.0
C222 C 0.62892 0.77778 0.43621 0.0
C223 C 0.63088 0.76164 0.44216 0.0
O224 O 0.62977 0.75136 0.46892 0.0
O225 O 0.61537 0.75031 0.4636 0.0
O226 O 0.62198 0.76046 0.44416 0.0
O227 O 0.63634 0.76171 0.44956 0.0
H228 H 0.62853 0.74 0.45149 0.0
H229 H 0.63089 0.72388 0.44653 0.0
H230 H 0.62195 0.71444 0.47361 0.0
H231 H 0.61941 0.73065 0.47845 0.0
H232 H 0.61011 0.77497 0.49736 0.0
H233 H 0.61562 0.76839 0.48252 0.0
H234 H 0.61221 0.80261 0.48583 0.0
H235 H 0.61749 0.79597 0.47107 0.0
H236 H 0.62778 0.79148 0.43057 0.0
H237 H 0.64566 0.77237 0.41569 0.0
H238 H 0.64214 0.76027 0.42714 0.0
H239 H 0.62429 0.77936 0.44196 0.0
C240 C 0.50009 0.37914 0.74232 0.0
C241 C 0.49898 0.37989 0.73264 0.0
C242 C 0.51545 0.38403 0.73105 0.0
C243 C 0.50657 0.38233 0.72706 0.0
C244 C 0.5165 0.38336 0.74079 0.0
C245 C 0.50887 0.38092 0.74638 0.0
U246 U 0.47518 0.37079 0.74334 0.0
O247 O 0.46818 0.36021 0.75191 0.0
O248 O 0.46334 0.37469 0.75222 0.0
C249 C 0.46254 0.36631 0.75575 0.0
C250 C 0.4921 0.37631 0.74808 0.0
C251 C 0.46176 0.3659 0.76594 0.0
C252 C 0.46699 0.3704 0.7815 0.0
C253 C 0.46816 0.37057 0.77181 0.0
C254 C 0.45314 0.36072 0.7795 0.0
C255 C 0.45943 0.36551 0.78544 0.0
C256 C 0.4543 0.36093 0.76984 0.0
C257 C 0.46267 0.36741 0.71992 0.0
C258 C 0.44632 0.36276 0.71862 0.0
C259 C 0.4553 0.36596 0.70471 0.0
C260 C 0.46317 0.36795 0.7102 0.0
C261 C 0.44676 0.36337 0.70885 0.0
C262 C 0.45422 0.36476 0.72412 0.0
C263 C 0.47095 0.36986 0.72553 0.0
O264 O 0.48489 0.38195 0.74778 0.0
O265 O 0.4897 0.36749 0.74727 0.0
O266 O 0.47482 0.36298 0.73009 0.0
O267 O 0.47023 0.37752 0.73054 0.0
H268 H 0.49223 0.37855 0.72939 0.0
H269 H 0.50547 0.38293 0.71962 0.0
H270 H 0.52326 0.38453 0.74407 0.0
H271 H 0.50985 0.38033 0.75384 0.0
H272 H 0.47201 0.37408 0.78589 0.0
H273 H 0.47399 0.37442 0.76891 0.0
H274 H 0.44718 0.35701 0.78229 0.0
H275 H 0.44929 0.3573 0.7654 0.0
H276 H 0.43988 0.36072 0.72202 0.0
H277 H 0.45585 0.36666 0.69722 0.0
H278 H 0.46963 0.37004 0.70686 0.0
H279 H 0.45374 0.36431 0.73164 0.0
C280 C 0.87513 0.23443 0.99305 0.0
C281 C 0.87489 0.22472 0.99192 0.0
C282 C 0.88071 0.22277 0.00776 0.0
C283 C 0.87767 0.21895 0.9992 0.0
C284 C 0.88076 0.23252 0.00892 0.0
C285 C 0.87801 0.2383 0.00159 0.0
U286 U 0.8661 0.23627 0.96853 0.0
O287 O 0.85658 0.24604 0.96163 0.0
O288 O 0.87098 0.24442 0.95656 0.0
C289 C 0.8631 0.24905 0.95593 0.0
C290 C 0.87258 0.24042 0.98519 0.0
C291 C 0.86405 0.25923 0.95485 0.0
C292 C 0.86068 0.27515 0.95963 0.0
C293 C 0.86007 0.26555 0.9612 0.0
C294 C 0.8694 0.27222 0.94549 0.0
C295 C 0.86532 0.27858 0.95173 0.0
C296 C 0.86874 0.26265 0.94702 0.0
C297 C 0.85981 0.21337 0.9562 0.0
C298 C 0.85558 0.21249 0.93979 0.0
C299 C 0.85597 0.19846 0.94906 0.0
C300 C 0.85861 0.20373 0.95688 0.0
C301 C 0.85448 0.20276 0.9404 0.0
C302 C 0.85821 0.21775 0.94764 0.0
C303 C 0.86299 0.21868 0.96441 0.0
O304 O 0.87797 0.23951 0.97785 0.0
O305 O 0.86361 0.24054 0.98308 0.0
O306 O 0.8567 0.22406 0.96832 0.0
O307 O 0.87123 0.22272 0.9636 0.0
H308 H 0.87264 0.22161 0.98537 0.0
H309 H 0.87741 0.21148 0.99813 0.0
H310 H 0.88313 0.23567 0.01541 0.0
H311 H 0.87824 0.24579 0.00257 0.0
H312 H 0.85754 0.27989 0.9646 0.0
H313 H 0.85643 0.26311 0.96731 0.0
H314 H 0.87291 0.27462 0.93927 0.0
H315 H 0.8718 0.2579 0.942 0.0
H316 H 0.8544 0.21602 0.93325 0.0
H317 H 0.85534 0.19098 0.94974 0.0
H318 H 0.85985 0.20024 0.96343 0.0
H319 H 0.8591 0.22522 0.94702 0.0
C320 C 0.24505 0.02678 0.36229 0.0
C321 C 0.24307 0.03475 0.35705 0.0
C322 C 0.22645 0.03297 0.36037 0.0
C323 C 0.23384 0.03779 0.35606 0.0
C324 C 0.22848 0.02494 0.36554 0.0
C325 C 0.23771 0.02188 0.36648 0.0
U326 U 0.27099 0.0324 0.36256 0.0
O327 O 0.28196 0.02905 0.3728 0.0
O328 O 0.28324 0.02425 0.3583 0.0
C329 C 0.28676 0.0241 0.36678 0.0
C330 C 0.25478 0.02385 0.36383 0.0
C331 C 0.29004 0.01503 0.3701 0.0
C332 C 0.28795 0.9984 0.3724 0.0
C333 C 0.2845 0.00695 0.36929 0.0
C334 C 0.30241 0.006 0.37723 0.0
C335 C 0.29695 0.99784 0.37641 0.0
C336 C 0.29898 0.0145 0.3741 0.0
C337 C 0.27958 0.05642 0.35637 0.0
C338 C 0.29605 0.06015 0.3585 0.0
C339 C 0.28548 0.07175 0.35234 0.0
C340 C 0.27804 0.06539 0.35295 0.0
C341 C 0.29456 0.06922 0.3552 0.0
C342 C 0.28863 0.05381 0.35907 0.0
C343 C 0.27174 0.04985 0.35735 0.0
O344 O 0.26005 0.02342 0.35635 0.0
O345 O 0.25899 0.02789 0.37097 0.0
O346 O 0.27005 0.0473 0.36596 0.0
O347 O 0.27168 0.04283 0.35142 0.0
H348 H 0.24867 0.03869 0.35386 0.0
H349 H 0.23251 0.04406 0.35214 0.0
H350 H 0.22293 0.02104 0.36887 0.0
H351 H 0.23913 0.01574 0.37057 0.0
H352 H 0.28356 0.99226 0.37174 0.0
H353 H 0.27755 0.00725 0.36625 0.0
H354 H 0.30942 0.0058 0.38014 0.0
H355 H 0.30335 0.02067 0.37475 0.0
H356 H 0.30298 0.05795 0.36061 0.0
H357 H 0.2841 0.0787 0.34983 0.0
H358 H 0.27108 0.06751 0.35085 0.0
H359 H 0.28994 0.04689 0.36169 0.0
C360 C 0.22765 0.00933 0.63186 0.0
C361 C 0.21786 0.00995 0.63232 0.0
C362 C 0.21635 0.99347 0.62847 0.0
C363 C 0.21227 0.0021 0.63065 0.0
C364 C 0.22618 0.9929 0.628 0.0
C365 C 0.23179 0.00078 0.62969 0.0
U366 U 0.22869 0.03504 0.63641 0.0
O367 O 0.23752 0.04378 0.64558 0.0
O368 O 0.23745 0.04615 0.63046 0.0
C369 C 0.24128 0.04828 0.63856 0.0
C370 C 0.23344 0.01768 0.63345 0.0
C371 C 0.25155 0.04911 0.6386 0.0
C372 C 0.26704 0.04296 0.64186 0.0
C373 C 0.25729 0.0419 0.64183 0.0
C374 C 0.26541 0.05835 0.6353 0.0
C375 C 0.2712 0.0512 0.63857 0.0
C376 C 0.25568 0.05732 0.63533 0.0
C377 C 0.20506 0.04741 0.6379 0.0
C378 C 0.20314 0.06358 0.6426 0.0
C379 C 0.19014 0.05504 0.63564 0.0
C380 C 0.19573 0.04715 0.63487 0.0
C381 C 0.19378 0.06335 0.63948 0.0
C382 C 0.20876 0.05567 0.64177 0.0
C383 C 0.2108 0.03905 0.63679 0.0
O384 O 0.23297 0.02388 0.62678 0.0
O385 O 0.2328 0.02138 0.64184 0.0
O386 O 0.21555 0.03646 0.64419 0.0
O387 O 0.21566 0.0386 0.62906 0.0
H388 H 0.21455 0.01653 0.63393 0.0
H389 H 0.20473 0.00282 0.63093 0.0
H390 H 0.22954 0.98634 0.62642 0.0
H391 H 0.23933 1.0002 0.62929 0.0
H392 H 0.27133 0.0373 0.64435 0.0
H393 H 0.25423 0.03547 0.64432 0.0
H394 H 0.2684 0.06482 0.63283 0.0
H395 H 0.25137 0.06295 0.63282 0.0
H396 H 0.20615 0.0699 0.64552 0.0
H397 H 0.18292 0.0546 0.63331 0.0
H398 H 0.19277 0.04082 0.63187 0.0
H399 H 0.21599 0.056 0.64409 0.0
C400 C 0.22756 0.9909 0.87092 0.0
C401 C 0.21779 0.99003 0.87144 0.0
C402 C 0.21654 0.00638 0.87584 0.0
C403 C 0.21233 0.99769 0.87387 0.0
C404 C 0.22636 0.00719 0.87533 0.0
C405 C 0.23183 0.9995 0.8729 0.0
U406 U 0.22829 0.9658 0.86355 0.0
O407 O 0.23669 0.95838 0.85306 0.0
O408 O 0.2373 0.95421 0.86774 0.0
C409 C 0.24075 0.95312 0.85933 0.0
C410 C 0.23322 0.98281 0.86825 0.0
C411 C 0.251 0.95264 0.85882 0.0
C412 C 0.26646 0.95884 0.86253 0.0
C413 C 0.2567 0.95962 0.86279 0.0
C414 C 0.26489 0.94419 0.85415 0.0
C415 C 0.27066 0.95108 0.85826 0.0
C416 C 0.25515 0.94496 0.85445 0.0
C417 C 0.20455 0.95334 0.86145 0.0
C418 C 0.20268 0.93728 0.85631 0.0
C419 C 0.18932 0.94584 0.8621 0.0
C420 C 0.19501 0.95366 0.86356 0.0
C421 C 0.19307 0.93755 0.85846 0.0
C422 C 0.20838 0.94513 0.8578 0.0
C423 C 0.21038 0.9616 0.86333 0.0
O424 O 0.23303 0.97591 0.8742 0.0
O425 O 0.23216 0.98005 0.85955 0.0
O426 O 0.21479 0.96507 0.85612 0.0
O427 O 0.21562 0.96119 0.87087 0.0
H428 H 0.21438 0.98343 0.86989 0.0
H429 H 0.20479 0.99685 0.87404 0.0
H430 H 0.22983 0.01376 0.87688 0.0
H431 H 0.23937 1.00027 0.87254 0.0
H432 H 0.27071 0.96431 0.86566 0.0
H433 H 0.2536 0.96563 0.86616 0.0
H434 H 0.2679 0.93807 0.85091 0.0
H435 H 0.25084 0.9395 0.85136 0.0
H436 H 0.20578 0.93103 0.85344 0.0
H437 H 0.18201 0.94625 0.86401 0.0
H438 H 0.19196 0.95994 0.86644 0.0
H439 H 0.21577 0.94478 0.85616 0.0
C440 C 0.24398 0.97567 0.13417 0.0
C441 C 0.24229 0.96657 0.13721 0.0
C442 C 0.22549 0.9694 0.1372 0.0
C443 C 0.23314 0.96346 0.13871 0.0
C444 C 0.22724 0.97854 0.13416 0.0
C445 C 0.23642 0.98165 0.13267 0.0
U446 U 0.26976 0.97033 0.13351 0.0
O447 O 0.28065 0.97379 0.1233 0.0
O448 O 0.28217 0.97844 0.13786 0.0
C449 C 0.28561 0.97865 0.12938 0.0
C450 C 0.25361 0.97883 0.13242 0.0
C451 C 0.28905 0.98772 0.12619 0.0
C452 C 0.28687 0.00416 0.12301 0.0
C453 C 0.28329 0.9956 0.12604 0.0
C454 C 0.30192 0.99697 0.12021 0.0
C455 C 0.29623 0.00493 0.12004 0.0
C456 C 0.29835 0.98847 0.12326 0.0
C457 C 0.27805 0.94627 0.13977 0.0
C458 C 0.2946 0.94274 0.13867 0.0
C459 C 0.28362 0.9308 0.14346 0.0
C460 C 0.27626 0.93713 0.14262 0.0
C461 C 0.29287 0.93352 0.14144 0.0
C462 C 0.28726 0.94906 0.13784 0.0
C463 C 0.27032 0.95286 0.13867 0.0
O464 O 0.25906 0.97929 0.13983 0.0
O465 O 0.25765 0.97486 0.12522 0.0
O466 O 0.26868 0.95542 0.13005 0.0
O467 O 0.27037 0.95987 0.14462 0.0
H468 H 0.24806 0.96184 0.13835 0.0
H469 H 0.23205 0.95634 0.1409 0.0
H470 H 0.22151 0.98331 0.13301 0.0
H471 H 0.23761 0.9887 0.13032 0.0
H472 H 0.2823 0.01014 0.12289 0.0
H473 H 0.27607 0.99513 0.12826 0.0
H474 H 0.30919 0.99735 0.11813 0.0
H475 H 0.30289 0.98246 0.12336 0.0
H476 H 0.30166 0.94511 0.1372 0.0
H477 H 0.28204 0.92373 0.14553 0.0
H478 H 0.26917 0.93487 0.14411 0.0
H479 H 0.28876 0.95611 0.13566 0.0
C480 C 0.37164 0.24056 0.03145 0.0
C481 C 0.37084 0.2384 0.04093 0.0
C482 C 0.37049 0.22184 0.03716 0.0
C483 C 0.3703 0.22914 0.04376 0.0
C484 C 0.37118 0.22407 0.02764 0.0
C485 C 0.37176 0.23335 0.02482 0.0
U486 U 0.36946 0.26609 0.03729 0.0
O487 O 0.37862 0.27804 0.0343 0.0
O488 O 0.36408 0.27789 0.02924 0.0
C489 C 0.37221 0.28224 0.02929 0.0
C490 C 0.37237 0.25031 0.02851 0.0
C491 C 0.37541 0.28586 0.0203 0.0
C492 C 0.37944 0.2838 0.00398 0.0
C493 C 0.37621 0.28011 0.0124 0.0
C494 C 0.38108 0.29897 0.01135 0.0
C495 C 0.38197 0.29326 0.00339 0.0
C496 C 0.37783 0.29529 0.01971 0.0
C497 C 0.36183 0.27304 0.06165 0.0
C498 C 0.3601 0.28932 0.06593 0.0
C499 C 0.35814 0.27736 0.07759 0.0
C500 C 0.35992 0.27052 0.07085 0.0
C501 C 0.35823 0.28684 0.07521 0.0
C502 C 0.3619 0.28247 0.05921 0.0
C503 C 0.36391 0.26581 0.05469 0.0
O504 O 0.36439 0.2548 0.02805 0.0
O505 O 0.37908 0.25516 0.03262 0.0
O506 O 0.37275 0.2653 0.05225 0.0
O507 O 0.3581 0.26535 0.04756 0.0
H508 H 0.37071 0.2439 0.04615 0.0
H509 H 0.36992 0.2277 0.05115 0.0
H510 H 0.37121 0.21864 0.02236 0.0
H511 H 0.37232 0.23491 0.01747 0.0
H512 H 0.38011 0.27922 0.99799 0.0
H513 H 0.3744 0.27279 0.01276 0.0
H514 H 0.38282 0.30631 0.0111 0.0
H515 H 0.37723 0.29983 0.02575 0.0
H516 H 0.36033 0.29656 0.0639 0.0
H517 H 0.35661 0.27522 0.08464 0.0
H518 H 0.35984 0.26326 0.07284 0.0
H519 H 0.36342 0.28453 0.05213 0.0
C520 C 0.00112 0.87933 0.24208 0.0
C521 C 0.00057 0.87877 0.23232 0.0
C522 C 0.01699 0.88328 0.23114 0.0
C523 C 0.00843 0.88072 0.22691 0.0
C524 C 0.01749 0.88384 0.24094 0.0
C525 C 0.0096 0.88188 0.24636 0.0
U526 U 0.97578 0.87233 0.24272 0.0
O527 O 0.96789 0.86267 0.25156 0.0
O528 O 0.96393 0.87741 0.25107 0.0
C529 C 0.96255 0.86928 0.25498 0.0
C530 C 0.99281 0.87724 0.2477 0.0
C531 C 0.96145 0.86941 0.26517 0.0
C532 C 0.96769 0.86767 0.28086 0.0
C533 C 0.96906 0.86791 0.2712 0.0
C534 C 0.95116 0.87064 0.27852 0.0
C535 C 0.9587 0.86896 0.28463 0.0
C536 C 0.95253 0.87084 0.26889 0.0
C537 C 0.96393 0.86809 0.21899 0.0
C538 C 0.94715 0.86781 0.21603 0.0
C539 C 0.95788 0.86246 0.20414 0.0
C540 C 0.96544 0.86437 0.21008 0.0
C541 C 0.94865 0.8643 0.20697 0.0
C542 C 0.95473 0.86968 0.222 0.0
C543 C 0.97206 0.8705 0.22487 0.0
O544 O 0.98593 0.88321 0.24681 0.0
O545 O 0.98996 0.86853 0.24733 0.0
O546 O 0.97542 0.86371 0.22995 0.0
O547 O 0.9716 0.87848 0.22939 0.0
H548 H 0.99407 0.87678 0.2289 0.0
H549 H 0.00783 0.88008 0.2194 0.0
H550 H 0.02395 0.88587 0.24441 0.0
H551 H 0.01013 0.88237 0.25388 0.0
H552 H 0.97363 0.8663 0.28534 0.0
H553 H 0.97601 0.86681 0.26845 0.0
H554 H 0.94418 0.87184 0.28117 0.0
H555 H 0.94659 0.87205 0.26434 0.0
H556 H 0.94015 0.86936 0.21841 0.0
H557 H 0.95928 0.85958 0.19729 0.0
H558 H 0.97249 0.86303 0.20768 0.0
H559 H 0.95344 0.87251 0.22889 0.0
C560 C 0.1264 0.76404 0.5365 0.0
C561 C 0.12951 0.76605 0.54558 0.0
C562 C 0.12877 0.78266 0.54246 0.0
C563 C 0.13068 0.77527 0.54854 0.0
C564 C 0.12563 0.7806 0.53335 0.0
C565 C 0.12447 0.77134 0.53039 0.0
U566 U 0.12811 0.73852 0.54195 0.0
O567 O 0.1187 0.7267 0.53895 0.0
O568 O 0.13312 0.7266 0.53366 0.0
C569 C 0.12489 0.72244 0.53371 0.0
C570 C 0.12517 0.75432 0.53345 0.0
C571 C 0.12155 0.71874 0.52466 0.0
C572 C 0.11032 0.71823 0.51185 0.0
C573 C 0.11363 0.72233 0.52013 0.0
C574 C 0.12296 0.70708 0.51241 0.0
C575 C 0.11489 0.71048 0.50795 0.0
C576 C 0.12622 0.71115 0.52069 0.0
C577 C 0.13681 0.73127 0.56575 0.0
C578 C 0.13622 0.71504 0.57028 0.0
C579 C 0.14397 0.72642 0.58028 0.0
C580 C 0.14179 0.73343 0.57393 0.0
C581 C 0.14117 0.71715 0.57854 0.0
C582 C 0.13409 0.72203 0.56392 0.0
C583 C 0.13451 0.73865 0.55913 0.0
O584 O 0.13298 0.7496 0.53263 0.0
O585 O 0.11856 0.7497 0.5378 0.0
O586 O 0.12558 0.73936 0.55703 0.0
O587 O 0.13998 0.73911 0.55181 0.0
H588 H 0.131 0.76047 0.5504 0.0
H589 H 0.13295 0.7766 0.55565 0.0
H590 H 0.12419 0.78612 0.52847 0.0
H591 H 0.12207 0.76989 0.52335 0.0
H592 H 0.10406 0.72098 0.50864 0.0
H593 H 0.10991 0.72821 0.52306 0.0
H594 H 0.12678 0.70126 0.50951 0.0
H595 H 0.13237 0.7083 0.52405 0.0
H596 H 0.13408 0.70795 0.56868 0.0
H597 H 0.14771 0.72828 0.58662 0.0
H598 H 0.14395 0.74053 0.57543 0.0
H599 H 0.1303 0.72025 0.55758 0.0
C600 C 0.99032 0.63182 0.74555 0.0
C601 C 0.98076 0.63372 0.7445 0.0
C602 C 0.97932 0.63619 0.76124 0.0
C603 C 0.97531 0.63591 0.75226 0.0
C604 C 0.98896 0.63439 0.76224 0.0
C605 C 0.99441 0.63221 0.75445 0.0
U606 U 0.99093 0.62492 0.72026 0.0
O607 O 1.00029 0.62884 0.70881 0.0
O608 O 0.99884 0.61417 0.71274 0.0
C609 C 0.00321 0.62027 0.70752 0.0
C610 C 0.9959 0.62913 0.73741 0.0
C611 C 0.01339 0.61915 0.70683 0.0
C612 C 0.02905 0.62008 0.71349 0.0
C613 C 0.01935 0.62106 0.71442 0.0
C614 C 0.02687 0.61521 0.69741 0.0
C615 C 0.03292 0.61715 0.70496 0.0
C616 C 0.0172 0.61621 0.69834 0.0
C617 C 0.96762 0.62357 0.70727 0.0
C618 C 0.96657 0.61824 0.69119 0.0
C619 C 0.95275 0.62399 0.69904 0.0
C620 C 0.95805 0.62561 0.70712 0.0
C621 C 0.95694 0.6203 0.69098 0.0
C622 C 0.97187 0.61989 0.69927 0.0
C623 C 0.9731 0.62538 0.71579 0.0
O624 O 0.99453 0.62053 0.73448 0.0
O625 O 0.99598 0.6352 0.7306 0.0
O626 O 0.97861 0.63273 0.71554 0.0
O627 O 0.97714 0.61806 0.71944 0.0
H628 H 0.97748 0.63344 0.73767 0.0
H629 H 0.96796 0.63739 0.75122 0.0
H630 H 0.99224 0.63444 0.76906 0.0
H631 H 0.00178 0.63071 0.75538 0.0
H632 H 0.03351 0.62154 0.71947 0.0
H633 H 0.01649 0.62334 0.72104 0.0
H634 H 0.02961 0.6131 0.6907 0.0
H635 H 0.01269 0.61474 0.6924 0.0
H636 H 0.97002 0.61549 0.68507 0.0
H637 H 0.94533 0.62553 0.69915 0.0
H638 H 0.95467 0.62844 0.71325 0.0
H639 H 0.97928 0.61832 0.69927 0.0
C640 C 0.12305 0.24377 0.4735 0.0
C641 C 0.12462 0.24216 0.46398 0.0
C642 C 0.12782 0.25864 0.4617 0.0
C643 C 0.12699 0.24951 0.45814 0.0
C644 C 0.1261 0.26025 0.47122 0.0
C645 C 0.12376 0.25285 0.47709 0.0
U646 U 0.11743 0.21836 0.4757 0.0
O647 O 0.12254 0.20771 0.48538 0.0
O648 O 0.10749 0.21065 0.48441 0.0
C649 C 0.11416 0.20616 0.4888 0.0
C650 C 0.1208 0.23593 0.4796 0.0
C651 C 0.11358 0.20602 0.49903 0.0
C652 C 0.10989 0.21334 0.51389 0.0
C653 C 0.11059 0.21381 0.50417 0.0
C654 C 0.11536 0.19742 0.5134 0.0
C655 C 0.11225 0.20512 0.51861 0.0
C656 C 0.116 0.19787 0.50371 0.0
C657 C 0.11635 0.20425 0.45299 0.0
C658 C 0.11454 0.18743 0.45258 0.0
C659 C 0.11491 0.19611 0.43817 0.0
C660 C 0.11596 0.20439 0.44325 0.0
C661 C 0.11425 0.18752 0.44277 0.0
C662 C 0.11559 0.19574 0.45765 0.0
C663 C 0.11764 0.21303 0.45816 0.0
O664 O 0.11229 0.2325 0.47858 0.0
O665 O 0.12726 0.22946 0.47995 0.0
O666 O 0.1252 0.21355 0.46341 0.0
O667 O 0.11014 0.21628 0.46228 0.0
H668 H 0.12404 0.23519 0.46108 0.0
H669 H 0.12811 0.24806 0.45081 0.0
H670 H 0.12674 0.26719 0.47417 0.0
H671 H 0.12257 0.25421 0.48443 0.0
H672 H 0.10754 0.21941 0.51772 0.0
H673 H 0.10876 0.2202 0.50068 0.0
H674 H 0.1171 0.19094 0.5168 0.0
H675 H 0.11832 0.1918 0.49985 0.0
H676 H 0.11414 0.18093 0.45633 0.0
H677 H 0.11455 0.19645 0.43064 0.0
H678 H 0.11649 0.21092 0.43955 0.0
H679 H 0.11587 0.19552 0.4652 0.0
C680 C 0.47763 0.37623 0.22789 0.0
C681 C 0.47584 0.37905 0.21872 0.0
C682 C 0.45906 0.37889 0.2217 0.0
C683 C 0.46665 0.38036 0.21565 0.0
C684 C 0.46092 0.37612 0.23091 0.0
C685 C 0.47014 0.3748 0.23398 0.0
U686 U 0.50352 0.37752 0.22305 0.0
O687 O 0.51491 0.36766 0.22584 0.0
O688 O 0.51552 0.38178 0.23181 0.0
C689 C 0.5194 0.37352 0.23137 0.0
C690 C 0.4873 0.37473 0.23106 0.0
C691 C 0.5227 0.36969 0.24025 0.0
C692 C 0.52025 0.36547 0.25642 0.0
C693 C 0.5168 0.36896 0.248 0.0
C694 C 0.53547 0.36331 0.24935 0.0
C695 C 0.52965 0.36262 0.25719 0.0
C696 C 0.53202 0.36681 0.24097 0.0
C697 C 0.5118 0.38665 0.19982 0.0
C698 C 0.52821 0.39023 0.19722 0.0
C699 C 0.51757 0.38865 0.18408 0.0
C700 C 0.51019 0.38684 0.19019 0.0
C701 C 0.52666 0.39034 0.18754 0.0
C702 C 0.52086 0.38834 0.20331 0.0
C703 C 0.5041 0.38434 0.20617 0.0
O704 O 0.49182 0.36818 0.22652 0.0
O705 O 0.4923 0.38235 0.23233 0.0
O706 O 0.50356 0.38957 0.21371 0.0
O707 O 0.50302 0.37542 0.20784 0.0
H708 H 0.48157 0.38018 0.21393 0.0
H709 H 0.46548 0.38236 0.20848 0.0
H710 H 0.45526 0.37504 0.23579 0.0
H711 H 0.47141 0.37265 0.24109 0.0
H712 H 0.51557 0.36495 0.26231 0.0
H713 H 0.50956 0.37112 0.24754 0.0
H714 H 0.54276 0.36133 0.24974 0.0
H715 H 0.53667 0.36735 0.23506 0.0
H716 H 0.53517 0.39136 0.20008 0.0
H717 H 0.51616 0.38875 0.17665 0.0
H718 H 0.50324 0.3855 0.18738 0.0
H719 H 0.52226 0.38811 0.21074 0.0
C720 C 0.37678 0.75717 0.97485 0.0
C721 C 0.37641 0.75776 0.9651 0.0
C722 C 0.37182 0.74143 0.96397 0.0
C723 C 0.37395 0.74996 0.95971 0.0
C724 C 0.37216 0.7409 0.97376 0.0
C725 C 0.37462 0.74872 0.97915 0.0
U726 U 0.38345 0.78255 0.97585 0.0
O727 O 0.37943 0.79386 0.98538 0.0
O728 O 0.39425 0.79013 0.98395 0.0
C729 C 0.38806 0.79524 0.98835 0.0
C730 C 0.37947 0.76536 0.98047 0.0
C731 C 0.38931 0.79605 0.9985 0.0
C732 C 0.38635 0.7908 0.01428 0.0
C733 C 0.38538 0.78956 0.00463 0.0
C734 C 0.39534 0.80491 0.01171 0.0
C735 C 0.39131 0.79853 0.01793 0.0
C736 C 0.39435 0.80367 0.0021 0.0
C737 C 0.38439 0.79581 0.95305 0.0
C738 C 0.38894 0.81213 0.95265 0.0
C739 C 0.38385 0.80424 0.93848 0.0
C740 C 0.38255 0.79602 0.94346 0.0
C741 C 0.38703 0.8124 0.94302 0.0
C742 C 0.38761 0.8039 0.95763 0.0
C743 C 0.38278 0.78719 0.95822 0.0
O744 O 0.38807 0.76838 0.97916 0.0
O745 O 0.37326 0.77208 0.98061 0.0
O746 O 0.37542 0.78723 0.96367 0.0
O747 O 0.39024 0.7836 0.96218 0.0
H748 H 0.37807 0.76424 0.96166 0.0
H749 H 0.3739 0.75059 0.95219 0.0
H750 H 0.37045 0.73447 0.97727 0.0
H751 H 0.37485 0.74816 0.98668 0.0
H752 H 0.38323 0.78573 0.01889 0.0
H753 H 0.38149 0.7836 0.00195 0.0
H754 H 0.39906 0.81102 0.01427 0.0
H755 H 0.3974 0.80876 0.99747 0.0
H756 H 0.39129 0.81831 0.95637 0.0
H757 H 0.38244 0.80419 0.93106 0.0
H758 H 0.38007 0.78983 0.93983 0.0
H759 H 0.38902 0.80385 0.96506 0.0
C760 C 0.0168 0.38061 0.77544 0.0
C761 C 0.01894 0.38495 0.78399 0.0
C762 C 0.03555 0.38221 0.78155 0.0
C763 C 0.02823 0.38578 0.78701 0.0
C764 C 0.03336 0.37787 0.77297 0.0
C765 C 0.02405 0.37709 0.76994 0.0
U766 U 0.99106 0.38164 0.78109 0.0
O767 O 0.97903 0.38718 0.77327 0.0
O768 O 0.97926 0.37245 0.77728 0.0
C769 C 0.97491 0.37899 0.77262 0.0
C770 C 0.00701 0.37955 0.77237 0.0
C771 C 0.97122 0.37638 0.76334 0.0
C772 C 0.97143 0.36687 0.74923 0.0
C773 C 0.97547 0.36953 0.75778 0.0
C774 C 0.95902 0.37803 0.75163 0.0
C775 C 0.96309 0.37103 0.74611 0.0
C776 C 0.96303 0.38065 0.76016 0.0
C777 C 0.98388 0.38823 0.80568 0.0
C778 C 0.9675 0.39023 0.80964 0.0
C779 C 0.97937 0.39069 0.82179 0.0
C780 C 0.98631 0.38923 0.81511 0.0
C781 C 0.96989 0.3912 0.81913 0.0
C782 C 0.97444 0.38873 0.80297 0.0
C783 C 0.9912 0.3865 0.79875 0.0
O784 O 0.00243 0.3726 0.77618 0.0
O785 O 0.00216 0.3873 0.77219 0.0
O786 O 0.99162 0.39254 0.79193 0.0
O787 O 0.99185 0.37782 0.79588 0.0
H788 H 0.0134 0.38764 0.78837 0.0
H789 H 0.02967 0.38903 0.7937 0.0
H790 H 0.03885 0.37513 0.76857 0.0
H791 H 0.02251 0.3737 0.76332 0.0
H792 H 0.97472 0.36142 0.74518 0.0
H793 H 0.98182 0.36615 0.76009 0.0
H794 H 0.95272 0.38153 0.74936 0.0
H795 H 0.95967 0.38598 0.76434 0.0
H796 H 0.96025 0.39047 0.80739 0.0
H797 H 0.98144 0.39151 0.82902 0.0
H798 H 0.99357 0.38885 0.8173 0.0
H799 H 0.97245 0.3879 0.79571 0.0
C800 C 0.37539 0.24445 0.52355 0.0
C801 C 0.37612 0.24412 0.53329 0.0
C802 C 0.37044 0.26002 0.53452 0.0
C803 C 0.37368 0.25183 0.53873 0.0
C804 C 0.36973 0.26031 0.52473 0.0
C805 C 0.37218 0.25258 0.51929 0.0
U806 U 0.38226 0.21923 0.52247 0.0
O807 O 0.37745 0.20772 0.51337 0.0
O808 O 0.39234 0.21167 0.51379 0.0
C809 C 0.38581 0.20649 0.50979 0.0
C810 C 0.37778 0.23626 0.51788 0.0
C811 C 0.38616 0.20577 0.49957 0.0
C812 C 0.38918 0.2124 0.48432 0.0
C813 C 0.38854 0.21343 0.49402 0.0
C814 C 0.38483 0.19613 0.48565 0.0
C815 C 0.38735 0.20372 0.48004 0.0
C816 C 0.38425 0.19715 0.49531 0.0
C817 C 0.38497 0.2064 0.54545 0.0
C818 C 0.38732 0.18969 0.54605 0.0
C819 C 0.3876 0.19889 0.5603 0.0
C820 C 0.38598 0.20693 0.55514 0.0
C821 C 0.38822 0.19016 0.55582 0.0
C822 C 0.38572 0.19776 0.54091 0.0
C823 C 0.38299 0.21488 0.54018 0.0
O824 O 0.38649 0.23345 0.5187 0.0
O825 O 0.37165 0.22941 0.51821 0.0
O826 O 0.37522 0.21466 0.53523 0.0
O827 O 0.39013 0.21844 0.53567 0.0
H828 H 0.37858 0.23788 0.53669 0.0
H829 H 0.37445 0.25141 0.54622 0.0
H830 H 0.36716 0.26647 0.52128 0.0
H831 H 0.37153 0.25292 0.51178 0.0
H832 H 0.39106 0.21838 0.48018 0.0
H833 H 0.38999 0.22017 0.49717 0.0
H834 H 0.38351 0.18932 0.48259 0.0
H835 H 0.38242 0.19117 0.49949 0.0
H836 H 0.38766 0.18308 0.5424 0.0
H837 H 0.38841 0.19952 0.56779 0.0
H838 H 0.38546 0.21357 0.55874 0.0
H839 H 0.38495 0.19724 0.5334 0.0
C840 C 0.47752 0.62299 0.27212 0.0
C841 C 0.47588 0.62228 0.28171 0.0
C842 C 0.45906 0.62178 0.27887 0.0
C843 C 0.46673 0.6217 0.28506 0.0
C844 C 0.46075 0.6224 0.26924 0.0
C845 C 0.46992 0.62302 0.2659 0.0
U846 U 0.50346 0.62094 0.27663 0.0
O847 O 0.51486 0.61519 0.26809 0.0
O848 O 0.51533 0.62982 0.27269 0.0
C849 C 0.51924 0.62325 0.26763 0.0
C850 C 0.48716 0.62363 0.26864 0.0
C851 C 0.52266 0.62597 0.25838 0.0
C852 C 0.52254 0.63616 0.24492 0.0
C853 C 0.51856 0.63323 0.25331 0.0
C854 C 0.53455 0.62443 0.24645 0.0
C855 C 0.53068 0.63189 0.24148 0.0
C856 C 0.53059 0.62153 0.25482 0.0
C857 C 0.51219 0.61413 0.30044 0.0
C858 C 0.5289 0.61226 0.30291 0.0
C859 C 0.51837 0.61218 0.3161 0.0
C860 C 0.51075 0.6134 0.31006 0.0
C861 C 0.52755 0.6117 0.3126 0.0
C862 C 0.5213 0.61349 0.2969 0.0
C863 C 0.50428 0.61595 0.29415 0.0
O864 O 0.49224 0.6304 0.27232 0.0
O865 O 0.49163 0.61567 0.26816 0.0
O866 O 0.50324 0.60997 0.28723 0.0
O867 O 0.50353 0.62465 0.29154 0.0
H868 H 0.48168 0.62216 0.28661 0.0
H869 H 0.46567 0.62108 0.2925 0.0
H870 H 0.45498 0.62252 0.26431 0.0
H871 H 0.47108 0.62355 0.25846 0.0
H872 H 0.51942 0.64195 0.24129 0.0
H873 H 0.51242 0.63675 0.25592 0.0
H874 H 0.54068 0.62085 0.2439 0.0
H875 H 0.53384 0.6159 0.25861 0.0
H876 H 0.53585 0.61178 0.29997 0.0
H877 H 0.5171 0.61188 0.32353 0.0
H878 H 0.50376 0.61393 0.31291 0.0
H879 H 0.52253 0.61406 0.28948 0.0
C880 C 0.11411 0.77494 0.99568 0.0
C881 C 0.10818 0.78239 0.99355 0.0
C882 C 0.11146 0.78042 0.97703 0.0
C883 C 0.10683 0.78507 0.98431 0.0
C884 C 0.11746 0.77301 0.97919 0.0
C885 C 0.11875 0.77027 0.98845 0.0
U886 U 0.11442 0.78127 0.0213 0.0
O887 O 0.10934 0.77376 0.0336 0.0
O888 O 0.12419 0.77768 0.03259 0.0
C889 C 0.11773 0.77324 0.03734 0.0
C890 C 0.11568 0.77221 0.00542 0.0
C891 C 0.12037 0.76409 0.04095 0.0
C892 C 0.12605 0.74832 0.03877 0.0
C893 C 0.12349 0.75693 0.03505 0.0
C894 C 0.1223 0.75398 0.05425 0.0
C895 C 0.12546 0.74675 0.04842 0.0
C896 C 0.11978 0.76255 0.05054 0.0
C897 C 0.1085 0.80579 0.0289 0.0
C898 C 0.10607 0.8095 0.04525 0.0
C899 C 0.10847 0.82191 0.03415 0.0
C900 C 0.10924 0.81531 0.02697 0.0
C901 C 0.1069 0.81906 0.04338 0.0
C902 C 0.1069 0.80292 0.03808 0.0
C903 C 0.10976 0.79889 0.02139 0.0
O904 O 0.12291 0.77621 0.00955 0.0
O905 O 0.10815 0.77203 0.01066 0.0
O906 O 0.10358 0.79206 0.02116 0.0
O907 O 0.11841 0.79605 0.02027 0.0
H908 H 0.10464 0.78617 0.99905 0.0
H909 H 0.10229 0.7909 0.98288 0.0
H910 H 0.12109 0.76928 0.97372 0.0
H911 H 0.12339 0.76454 0.98998 0.0
H912 H 0.1284 0.74287 0.03409 0.0
H913 H 0.12396 0.75802 0.0276 0.0
H914 H 0.12191 0.75307 0.06173 0.0
H915 H 0.1174 0.76803 0.05519 0.0
H916 H 0.105 0.80709 0.0523 0.0
H917 H 0.10908 0.82922 0.03249 0.0
H918 H 0.11051 0.81764 0.01992 0.0
H919 H 0.10642 0.79559 0.03972 0.0
C920 C 0.74051 0.98305 0.6268 0.0
C921 C 0.73987 0.9735 0.62476 0.0
C922 C 0.75515 0.971 0.6319 0.0
C923 C 0.74712 0.96753 0.62726 0.0
C924 C 0.75577 0.98059 0.63389 0.0
C925 C 0.7485 0.98657 0.63135 0.0
U926 U 0.71564 0.98566 0.61851 0.0
O927 O 0.7041 0.99443 0.62342 0.0
O928 O 0.70901 0.99564 0.60898 0.0
C929 C 0.70359 0.99904 0.61555 0.0
C930 C 0.73269 0.98922 0.62448 0.0
C931 C 0.70315 0.00931 0.61625 0.0
C932 C 0.70287 0.02363 0.62542 0.0
C933 C 0.70415 0.014 0.62484 0.0
C934 C 0.69985 0.02409 0.6088 0.0
C935 C 0.7006 0.02876 0.61742 0.0
C936 C 0.70107 0.01446 0.60824 0.0
C937 C 0.70203 0.9633 0.61278 0.0
C938 C 0.68506 0.96187 0.61231 0.0
C939 C 0.69469 0.94942 0.60621 0.0
C940 C 0.70275 0.95454 0.6085 0.0
C941 C 0.68576 0.95298 0.6082 0.0
C942 C 0.69313 0.96701 0.61454 0.0
C943 C 0.71061 0.96827 0.61567 0.0
O944 O 0.73031 0.98935 0.61562 0.0
O945 O 0.72545 0.98856 0.63006 0.0
O946 O 0.71029 0.97241 0.62387 0.0
O947 O 0.71463 0.97337 0.60925 0.0
H948 H 0.7337 0.97065 0.62132 0.0
H949 H 0.74634 0.96017 0.62576 0.0
H950 H 0.76189 0.98349 0.63739 0.0
H951 H 0.74909 0.99393 0.633 0.0
H952 H 0.70359 0.02706 0.63214 0.0
H953 H 0.70577 0.01024 0.63115 0.0
H954 H 0.69801 0.02783 0.60254 0.0
H955 H 0.70018 0.011 0.60155 0.0
H956 H 0.67828 0.96482 0.61384 0.0
H957 H 0.69546 0.94255 0.60315 0.0
H958 H 0.70955 0.95157 0.6071 0.0
H959 H 0.69244 0.97381 0.61777 0.0
C960 C 0.75971 0.97966 0.37302 0.0
C961 C 0.76076 0.96997 0.3724 0.0
C962 C 0.74414 0.96811 0.36892 0.0
C963 C 0.75306 0.96426 0.37035 0.0
C964 C 0.74312 0.97784 0.36961 0.0
C965 C 0.75086 0.98356 0.37164 0.0
U966 U 0.78502 0.9816 0.38019 0.0
O967 O 0.79664 0.99005 0.37474 0.0
O968 O 0.79258 0.99138 0.38944 0.0
C969 C 0.79784 0.99457 0.38266 0.0
C970 C 0.76788 0.98562 0.37506 0.0
C971 C 0.7987 0.00475 0.38195 0.0
C972 C 0.79251 0.02038 0.38385 0.0
C973 C 0.7913 0.01071 0.38428 0.0
C974 C 0.80844 0.01819 0.37855 0.0
C975 C 0.80111 0.02422 0.38099 0.0
C976 C 0.80723 0.00856 0.37904 0.0
C977 C 0.79796 0.95907 0.38525 0.0
C978 C 0.81448 0.95898 0.38934 0.0
C979 C 0.80581 0.94446 0.38818 0.0
C980 C 0.79772 0.94935 0.38586 0.0
C981 C 0.8143 0.94921 0.38993 0.0
C982 C 0.80637 0.96388 0.38703 0.0
C983 C 0.78943 0.96408 0.38264 0.0
O984 O 0.77065 0.98569 0.38381 0.0
O985 O 0.77483 0.98475 0.36915 0.0
O986 O 0.78969 0.96817 0.37449 0.0
O987 O 0.78582 0.96933 0.38923 0.0
H988 H 0.76757 0.96684 0.37345 0.0
H989 H 0.75415 0.95683 0.36973 0.0
H990 H 0.73633 0.98102 0.36866 0.0
H991 H 0.74993 0.99103 0.37212 0.0
H992 H 0.78672 0.02485 0.3857 0.0
H993 H 0.78462 0.0079 0.38649 0.0
H994 H 0.81519 0.02092 0.37646 0.0
H995 H 0.81303 0.00408 0.37723 0.0
H996 H 0.82088 0.96286 0.39075 0.0
H997 H 0.80545 0.93693 0.38843 0.0
H998 H 0.79127 0.94554 0.38447 0.0
H999 H 0.80666 0.9714 0.3866 0.0
C1000 C 0.78123 0.99107 0.12214 0.0
C1001 C 0.79082 0.98907 0.12176 0.0
C1002 C 0.78738 0.97246 0.122 0.0
C1003 C 0.79387 0.97986 0.12171 0.0
C1004 C 0.77776 0.97449 0.1223 0.0
C1005 C 0.77471 0.98374 0.1224 0.0
U1006 U 0.78683 0.01641 0.11844 0.0
O1007 O 0.77881 0.02766 0.11186 0.0
O1008 O 0.78334 0.02896 0.12648 0.0
C1009 C 0.77851 0.0326 0.1196 0.0
C1010 C 0.77808 0.00078 0.12213 0.0
C1011 C 0.76936 0.03647 0.1221 0.0
C1012 C 0.75461 0.03572 0.13044 0.0
C1013 C 0.76294 0.03151 0.12755 0.0
C1014 C 0.75897 0.04974 0.1222 0.0
C1015 C 0.75262 0.04495 0.12793 0.0
C1016 C 0.76726 0.04554 0.11934 0.0
C1017 C 0.81146 0.02319 0.11132 0.0
C1018 C 0.8153 0.03921 0.10754 0.0
C1019 C 0.82767 0.02788 0.10929 0.0
C1020 C 0.82099 0.021 0.11119 0.0
C1021 C 0.8249 0.03707 0.10747 0.0
C1022 C 0.80864 0.03233 0.10949 0.0
C1023 C 0.80453 0.01599 0.11365 0.0
O1024 O 0.78189 0.00614 0.1286 0.0
O1025 O 0.77785 0.00469 0.11388 0.0
O1026 O 0.7976 0.01493 0.10765 0.0
O1027 O 0.80174 0.01608 0.12236 0.0
H1028 H 0.79596 0.99465 0.12146 0.0
H1029 H 0.80132 0.97853 0.12131 0.0
H1030 H 0.7726 0.96894 0.12257 0.0
H1031 H 0.76728 0.98517 0.12266 0.0
H1032 H 0.74989 0.03187 0.13488 0.0
H1033 H 0.76447 0.02448 0.12974 0.0
H1034 H 0.75756 0.05679 0.12 0.0
H1035 H 0.77212 0.04945 0.11509 0.0
H1036 H 0.81295 0.04624 0.10628 0.0
H1037 H 0.835 0.02599 0.10919 0.0
H1038 H 0.82328 0.01397 0.11261 0.0
H1039 H 0.80129 0.03416 0.10965 0.0
C1040 C 0.71365 0.9872 0.87894 0.0
C1041 C 0.70443 0.9849 0.88134 0.0
C1042 C 0.70806 0.96839 0.88021 0.0
C1043 C 0.70165 0.97559 0.88196 0.0
C1044 C 0.71734 0.97076 0.87787 0.0
C1045 C 0.72011 0.9801 0.87724 0.0
U1046 U 0.70778 0.01263 0.8816 0.0
O1047 O 0.71603 0.02459 0.88678 0.0
O1048 O 0.71048 0.02457 0.87248 0.0
C1049 C 0.71576 0.02887 0.87872 0.0
C1050 C 0.71651 0.997 0.87812 0.0
C1051 C 0.72474 0.03246 0.87529 0.0
C1052 C 0.74099 0.03029 0.87089 0.0
C1053 C 0.7325 0.02664 0.87411 0.0
C1054 C 0.73397 0.04557 0.86992 0.0
C1055 C 0.74182 0.03981 0.86876 0.0
C1056 C 0.72552 0.04192 0.87316 0.0
C1057 C 0.68381 0.01946 0.89041 0.0
C1058 C 0.6804 0.03527 0.89538 0.0
C1059 C 0.66769 0.02464 0.89147 0.0
C1060 C 0.67419 0.01765 0.88951 0.0
C1061 C 0.67074 0.03353 0.8944 0.0
C1062 C 0.68688 0.02832 0.89335 0.0
C1063 C 0.69058 0.01221 0.88789 0.0
O1064 O 0.71199 0.00169 0.87171 0.0
O1065 O 0.71733 0.00156 0.88607 0.0
O1066 O 0.698 0.01166 0.89332 0.0
O1067 O 0.69259 0.0117 0.87897 0.0
H1068 H 0.69935 0.99032 0.88267 0.0
H1069 H 0.69442 0.97403 0.88364 0.0
H1070 H 0.72248 0.9654 0.87659 0.0
H1071 H 0.72727 0.98177 0.87541 0.0
H1072 H 0.74687 0.02566 0.87 0.0
H1073 H 0.73198 0.01929 0.87569 0.0
H1074 H 0.73441 0.05295 0.86848 0.0
H1075 H 0.71959 0.04651 0.87404 0.0
H1076 H 0.68295 0.04209 0.89749 0.0
H1077 H 0.66029 0.02309 0.89069 0.0
H1078 H 0.6717 0.01087 0.88721 0.0
H1079 H 0.69429 0.02989 0.89397 0.0
C1080 C 0.62211 0.74536 0.97462 0.0
C1081 C 0.62187 0.74453 0.96488 0.0
C1082 C 0.62615 0.76088 0.9634 0.0
C1083 C 0.62387 0.75221 0.95932 0.0
C1084 C 0.62636 0.76168 0.97319 0.0
C1085 C 0.62434 0.75397 0.97875 0.0
U1086 U 0.61693 0.71973 0.97593 0.0
O1087 O 0.62241 0.70884 0.98513 0.0
O1088 O 0.60731 0.71162 0.98463 0.0
C1089 C 0.61414 0.70705 0.98868 0.0
C1090 C 0.62023 0.73718 0.9804 0.0
C1091 C 0.61379 0.70663 0.9989 0.0
C1092 C 0.61165 0.71393 0.01408 0.0
C1093 C 0.61218 0.71461 0.00436 0.0
C1094 C 0.61449 0.69735 0.01293 0.0
C1095 C 0.61278 0.70528 0.01847 0.0
C1096 C 0.61497 0.69803 0.00324 0.0
C1097 C 0.61513 0.70627 0.95291 0.0
C1098 C 0.61509 0.68938 0.95186 0.0
C1099 C 0.61142 0.69855 0.93823 0.0
C1100 C 0.61265 0.70672 0.94347 0.0
C1101 C 0.61267 0.6898 0.94235 0.0
C1102 C 0.61627 0.69756 0.95711 0.0
C1103 C 0.61656 0.71495 0.95824 0.0
O1104 O 0.61174 0.73367 0.97956 0.0
O1105 O 0.6268 0.73082 0.98017 0.0
O1106 O 0.6243 0.71542 0.96322 0.0
O1107 O 0.60918 0.71804 0.9627 0.0
H1108 H 0.62022 0.7379 0.96157 0.0
H1109 H 0.6238 0.75131 0.95182 0.0
H1110 H 0.62801 0.76827 0.97654 0.0
H1111 H 0.62456 0.75471 0.98627 0.0
H1112 H 0.6104 0.72017 0.01816 0.0
H1113 H 0.6113 0.72133 0.00112 0.0
H1114 H 0.61525 0.69056 0.01607 0.0
H1115 H 0.6162 0.6918 0.99913 0.0
H1116 H 0.616 0.68274 0.95525 0.0
H1117 H 0.60966 0.69911 0.9309 0.0
H1118 H 0.61174 0.71339 0.94013 0.0
H1119 H 0.61812 0.69709 0.96443 0.0
C1120 C 0.97819 0.11919 0.77154 0.0
C1121 C 0.97673 0.11508 0.78024 0.0
C1122 C 0.9599 0.11721 0.7786 0.0
C1123 C 0.96768 0.11407 0.78373 0.0
C1124 C 0.96139 0.12117 0.76979 0.0
C1125 C 0.97048 0.12217 0.7663 0.0
U1126 U 0.00408 0.11943 0.77653 0.0
O1127 O 0.0162 0.11488 0.76828 0.0
O1128 O 0.01517 0.12944 0.77297 0.0
C1129 C 0.01981 0.12331 0.76797 0.0
C1130 C 0.98777 0.12077 0.76819 0.0
C1131 C 0.02305 0.1264 0.75878 0.0
C1132 C 0.0213 0.1356 0.74474 0.0
C1133 C 0.01777 0.13248 0.75326 0.0
C1134 C 0.03529 0.12643 0.74712 0.0
C1135 C 0.03012 0.13262 0.74159 0.0
C1136 C 0.03178 0.12337 0.75562 0.0
C1137 C 0.0126 0.11295 0.80064 0.0
C1138 C 0.02852 0.11638 0.80569 0.0
C1139 C 0.01876 0.10602 0.81476 0.0
C1140 C 0.01142 0.10718 0.80838 0.0
C1141 C 0.02736 0.11067 0.81352 0.0
C1142 C 0.02122 0.11747 0.79929 0.0
C1143 C 0.00486 0.11418 0.79398 0.0
O1144 O 0.99211 0.1279 0.7721 0.0
O1145 O 0.99301 0.11329 0.76766 0.0
O1146 O 0.00468 0.10827 0.78694 0.0
O1147 O 0.00333 0.12282 0.79146 0.0
H1148 H 0.98262 0.11276 0.7844 0.0
H1149 H 0.96677 0.11086 0.79047 0.0
H1150 H 0.95557 0.12374 0.76571 0.0
H1151 H 0.9715 0.12541 0.75959 0.0
H1152 H 0.01713 0.14029 0.74059 0.0
H1153 H 0.01098 0.13487 0.75555 0.0
H1154 H 0.04215 0.1241 0.74496 0.0
H1155 H 0.03596 0.1187 0.75981 0.0
H1156 H 0.0351 0.11994 0.80448 0.0
H1157 H 0.01766 0.10161 0.82075 0.0
H1158 H 0.00482 0.1036 0.8095 0.0
H1159 H 0.02229 0.12187 0.79328 0.0
C1160 C 0.87552 0.25857 0.47323 0.0
C1161 C 0.87491 0.25975 0.46355 0.0
C1162 C 0.87169 0.2432 0.46142 0.0
C1163 C 0.87299 0.25215 0.4577 0.0
C1164 C 0.87226 0.24207 0.47115 0.0
C1165 C 0.87417 0.2497 0.477 0.0
U1166 U 0.88215 0.28388 0.4757 0.0
O1167 O 0.87706 0.29487 0.48516 0.0
O1168 O 0.89199 0.29122 0.48506 0.0
C1169 C 0.88532 0.29604 0.48911 0.0
C1170 C 0.87766 0.26656 0.47934 0.0
C1171 C 0.88545 0.29634 0.49938 0.0
C1172 C 0.89044 0.29028 0.51439 0.0
C1173 C 0.88987 0.28942 0.50468 0.0
C1174 C 0.88192 0.30479 0.51366 0.0
C1175 C 0.88654 0.29802 0.51898 0.0
C1176 C 0.88141 0.30396 0.50397 0.0
C1177 C 0.88564 0.29769 0.45336 0.0
C1178 C 0.88699 0.31455 0.45308 0.0
C1179 C 0.89032 0.30549 0.43918 0.0
C1180 C 0.88833 0.2973 0.444 0.0
C1181 C 0.88962 0.3142 0.44365 0.0
C1182 C 0.88505 0.30634 0.45791 0.0
C1183 C 0.88344 0.28901 0.45825 0.0
O1184 O 0.88637 0.26957 0.479 0.0
O1185 O 0.8715 0.27332 0.47905 0.0
O1186 O 0.87552 0.28895 0.46287 0.0
O1187 O 0.89043 0.28532 0.46289 0.0
H1188 H 0.87592 0.26657 0.46053 0.0
H1189 H 0.87247 0.25329 0.45027 0.0
H1190 H 0.87141 0.23527 0.47423 0.0
H1191 H 0.87466 0.24868 0.48446 0.0
H1192 H 0.89397 0.28492 0.51831 0.0
H1193 H 0.89299 0.28344 0.50131 0.0
H1194 H 0.87896 0.31089 0.51697 0.0
H1195 H 0.87801 0.30938 0.50001 0.0
H1196 H 0.88649 0.32115 0.45674 0.0
H1197 H 0.89223 0.305 0.4319 0.0
H1198 H 0.88883 0.29067 0.44039 0.0
H1199 H 0.88305 0.30676 0.46518 0.0
C1200 C 0.497 0.87617 0.76116 0.0
C1201 C 0.49736 0.87461 0.77079 0.0
C1202 C 0.48165 0.88081 0.77252 0.0
C1203 C 0.48975 0.87688 0.77641 0.0
C1204 C 0.48132 0.88237 0.76285 0.0
C1205 C 0.48895 0.88005 0.75721 0.0
U1206 U 0.52248 0.87017 0.76008 0.0
O1207 O 0.53033 0.86012 0.75159 0.0
O1208 O 0.53389 0.87501 0.75106 0.0
C1209 C 0.53543 0.86663 0.74766 0.0
C1210 C 0.50518 0.87403 0.75538 0.0
C1211 C 0.53628 0.86595 0.7375 0.0
C1212 C 0.52964 0.86661 0.72188 0.0
C1213 C 0.5286 0.86744 0.73156 0.0
C1214 C 0.54603 0.86284 0.72406 0.0
C1215 C 0.53837 0.86424 0.71803 0.0
C1216 C 0.54498 0.86368 0.73369 0.0
C1217 C 0.53549 0.86814 0.78321 0.0
C1218 C 0.55223 0.86536 0.78393 0.0
C1219 C 0.54321 0.86621 0.79817 0.0
C1220 C 0.53508 0.86776 0.79295 0.0
C1221 C 0.55189 0.86503 0.79373 0.0
C1222 C 0.54409 0.8669 0.77872 0.0
C1223 C 0.52691 0.86987 0.77785 0.0
O1224 O 0.51189 0.88034 0.75572 0.0
O1225 O 0.50831 0.86547 0.75612 0.0
O1226 O 0.52344 0.86263 0.77333 0.0
O1227 O 0.52698 0.8775 0.77286 0.0
H1228 H 0.50358 0.87171 0.77398 0.0
H1229 H 0.4903 0.87575 0.78385 0.0
H1230 H 0.47515 0.88534 0.75964 0.0
H1231 H 0.48858 0.88133 0.74978 0.0
H1232 H 0.5236 0.86768 0.71743 0.0
H1233 H 0.52182 0.8692 0.73441 0.0
H1234 H 0.55288 0.86118 0.72133 0.0
H1235 H 0.55098 0.86254 0.73819 0.0
H1236 H 0.55881 0.86457 0.7803 0.0
H1237 H 0.54266 0.86585 0.80568 0.0
H1238 H 0.52848 0.86866 0.79651 0.0
H1239 H 0.54451 0.86718 0.77119 0.0
C1240 C 0.98126 0.1321 0.22779 0.0
C1241 C 0.9716 0.13212 0.22596 0.0
C1242 C 0.97455 0.13358 0.20933 0.0
C1243 C 0.96827 0.13282 0.21682 0.0
C1244 C 0.98424 0.13362 0.21123 0.0
C1245 C 0.98756 0.13287 0.22039 0.0
U1246 U 0.97638 0.13245 0.2536 0.0
O1247 O 0.98117 0.12346 0.26494 0.0
O1248 O 0.98427 0.13846 0.26547 0.0
C1249 C 0.98548 0.13031 0.26937 0.0
C1250 C 0.98474 0.13131 0.23741 0.0
C1251 C 0.99498 0.12836 0.27282 0.0
C1252 C 0.01031 0.12129 0.27115 0.0
C1253 C 0.00154 0.12355 0.26739 0.0
C1254 C 0.00607 0.12883 0.28568 0.0
C1255 C 0.01264 0.12385 0.28038 0.0
C1256 C 0.99734 0.13105 0.28193 0.0
C1257 C 0.95173 0.13673 0.26196 0.0
C1258 C 0.94824 0.13555 0.27845 0.0
C1259 C 0.93619 0.14045 0.26761 0.0
C1260 C 0.94253 0.13961 0.26025 0.0
C1261 C 0.93897 0.13838 0.27679 0.0
C1262 C 0.95456 0.13475 0.2711 0.0
C1263 C 0.95836 0.13579 0.25424 0.0
O1264 O 0.98444 0.13904 0.24237 0.0
O1265 O 0.98166 0.124 0.24195 0.0
O1266 O 0.96182 0.12741 0.25308 0.0
O1267 O 0.96474 0.14241 0.25379 0.0
H1268 H 0.96663 0.13154 0.23161 0.0
H1269 H 0.96078 0.13263 0.21562 0.0
H1270 H 0.98926 0.13431 0.20565 0.0
H1271 H 0.99504 0.13292 0.2217 0.0
H1272 H 0.01524 0.11752 0.26686 0.0
H1273 H 0.99984 0.12143 0.26031 0.0
H1274 H 0.00756 0.13078 0.29285 0.0
H1275 H 0.99234 0.13473 0.28623 0.0
H1276 H 0.95063 0.13404 0.28545 0.0
H1277 H 0.92908 0.14257 0.2661 0.0
H1278 H 0.94024 0.14117 0.25323 0.0
H1279 H 0.96167 0.13257 0.27255 0.0
C1280 C 0.49896 0.1252 0.73892 0.0
C1281 C 0.49946 0.12698 0.72935 0.0
C1282 C 0.48356 0.1211 0.72717 0.0
C1283 C 0.49183 0.12498 0.72353 0.0
C1284 C 0.48309 0.11937 0.7368 0.0
C1285 C 0.49074 0.12141 0.74263 0.0
U1286 U 0.52464 0.13088 0.74098 0.0
O1287 O 0.53263 0.14005 0.75048 0.0
O1288 O 0.53572 0.12509 0.7499 0.0
C1289 C 0.53731 0.1331 0.75413 0.0
C1290 C 0.50717 0.12694 0.74493 0.0
C1291 C 0.53788 0.13279 0.76439 0.0
C1292 C 0.53277 0.1377 0.77981 0.0
C1293 C 0.53164 0.13772 0.77011 0.0
C1294 C 0.5462 0.12762 0.77821 0.0
C1295 C 0.54011 0.1327 0.78395 0.0
C1296 C 0.54511 0.12769 0.76853 0.0
C1297 C 0.53823 0.13412 0.71839 0.0
C1298 C 0.55404 0.14045 0.71777 0.0
C1299 C 0.54736 0.1326 0.70425 0.0
C1300 C 0.53908 0.13102 0.70915 0.0
C1301 C 0.55493 0.13733 0.7085 0.0
C1302 C 0.54577 0.13881 0.7227 0.0
C1303 C 0.5295 0.13226 0.72343 0.0
O1304 O 0.51372 0.12059 0.74433 0.0
O1305 O 0.5105 0.13549 0.74476 0.0
O1306 O 0.52616 0.13926 0.72832 0.0
O1307 O 0.5292 0.1243 0.72787 0.0
H1308 H 0.50581 0.12982 0.72635 0.0
H1309 H 0.49249 0.12626 0.71613 0.0
H1310 H 0.47679 0.11645 0.73983 0.0
H1311 H 0.49026 0.11996 0.75001 0.0
H1312 H 0.52792 0.14162 0.78406 0.0
H1313 H 0.52596 0.14167 0.76709 0.0
H1314 H 0.552 0.1238 0.78117 0.0
H1315 H 0.55003 0.12387 0.76426 0.0
H1316 H 0.55979 0.14402 0.72126 0.0
H1317 H 0.54779 0.1302 0.69708 0.0
H1318 H 0.53333 0.12738 0.70573 0.0
H1319 H 0.54526 0.14118 0.72986 0.0
C1320 C 0.12296 0.23676 0.96364 0.0
C1321 C 0.12585 0.23486 0.9545 0.0
C1322 C 0.12563 0.21823 0.95763 0.0
C1323 C 0.12715 0.22569 0.95152 0.0
C1324 C 0.1227 0.22018 0.96679 0.0
C1325 C 0.12139 0.22939 0.96977 0.0
U1326 U 0.12491 0.26227 0.95832 0.0
O1327 O 0.11546 0.274 0.96101 0.0
O1328 O 0.12978 0.27426 0.96669 0.0
C1329 C 0.12162 0.27843 0.96629 0.0
C1330 C 0.12168 0.24645 0.96672 0.0
C1331 C 0.11811 0.28214 0.97515 0.0
C1332 C 0.11193 0.28006 0.99074 0.0
C1333 C 0.11512 0.27626 0.98232 0.0
C1334 C 0.11468 0.29559 0.98483 0.0
C1335 C 0.11168 0.28978 0.99209 0.0
C1336 C 0.11785 0.29179 0.97645 0.0
C1337 C 0.13428 0.26944 0.9348 0.0
C1338 C 0.13557 0.28582 0.93096 0.0
C1339 C 0.14032 0.27407 0.91975 0.0
C1340 C 0.13788 0.26709 0.92605 0.0
C1341 C 0.13917 0.28352 0.92213 0.0
C1342 C 0.13315 0.27884 0.93724 0.0
C1343 C 0.13169 0.26209 0.94137 0.0
O1344 O 0.12948 0.25125 0.96784 0.0
O1345 O 0.11519 0.25102 0.96216 0.0
O1346 O 0.1227 0.26142 0.94315 0.0
O1347 O 0.13697 0.26166 0.94888 0.0
H1348 H 0.12707 0.24049 0.94966 0.0
H1349 H 0.12924 0.22444 0.94437 0.0
H1350 H 0.12156 0.21461 0.9717 0.0
H1351 H 0.11919 0.23075 0.97686 0.0
H1352 H 0.10961 0.2754 0.99617 0.0
H1353 H 0.11527 0.26877 0.98141 0.0
H1354 H 0.11475 0.30309 0.98568 0.0
H1355 H 0.12018 0.29642 0.97099 0.0
H1356 H 0.13472 0.29302 0.93305 0.0
H1357 H 0.14296 0.27206 0.91297 0.0
H1358 H 0.13877 0.25986 0.92407 0.0
H1359 H 0.1304 0.28077 0.94401 0.0
C1360 C 0.37435 0.73486 0.49323 0.0
C1361 C 0.37188 0.72539 0.49308 0.0
C1362 C 0.3789 0.72338 0.50843 0.0
C1363 C 0.37411 0.71971 0.50062 0.0
C1364 C 0.38131 0.7329 0.50857 0.0
C1365 C 0.37904 0.73859 0.50102 0.0
U1366 U 0.36682 0.73624 0.46816 0.0
O1367 O 0.35777 0.74592 0.46056 0.0
O1368 O 0.37244 0.7442 0.45637 0.0
C1369 C 0.36461 0.74881 0.45518 0.0
C1370 C 0.37241 0.74066 0.48507 0.0
C1371 C 0.36562 0.75895 0.45403 0.0
C1372 C 0.36318 0.7749 0.45927 0.0
C1373 C 0.36254 0.76531 0.46084 0.0
C1374 C 0.37018 0.77188 0.44421 0.0
C1375 C 0.36697 0.77829 0.45092 0.0
C1376 C 0.36948 0.76232 0.44576 0.0
C1377 C 0.36091 0.7133 0.45581 0.0
C1378 C 0.35756 0.7124 0.43921 0.0
C1379 C 0.35729 0.69841 0.44852 0.0
C1380 C 0.35956 0.70368 0.45645 0.0
C1381 C 0.35632 0.7027 0.43979 0.0
C1382 C 0.35983 0.71767 0.44716 0.0
C1383 C 0.36372 0.71863 0.46414 0.0
O1384 O 0.37821 0.73944 0.47809 0.0
O1385 O 0.36358 0.74091 0.48242 0.0
O1386 O 0.3573 0.72413 0.46765 0.0
O1387 O 0.37204 0.72256 0.46374 0.0
H1388 H 0.36834 0.72236 0.48707 0.0
H1389 H 0.37229 0.71239 0.50021 0.0
H1390 H 0.38493 0.73595 0.51452 0.0
H1391 H 0.38103 0.74588 0.50122 0.0
H1392 H 0.36074 0.77967 0.4646 0.0
H1393 H 0.35958 0.76287 0.46732 0.0
H1394 H 0.37302 0.77426 0.43766 0.0
H1395 H 0.37186 0.75754 0.44041 0.0
H1396 H 0.35678 0.71592 0.4326 0.0
H1397 H 0.35653 0.69094 0.4492 0.0
H1398 H 0.36041 0.7002 0.46308 0.0
H1399 H 0.36084 0.72512 0.44656 0.0
C1400 C 0.74515 0.52769 0.86281 0.0
C1401 C 0.74313 0.53721 0.86222 0.0
C1402 C 0.72646 0.53369 0.86095 0.0
C1403 C 0.73388 0.54018 0.86133 0.0
C1404 C 0.72855 0.52413 0.86143 0.0
C1405 C 0.73782 0.52117 0.86236 0.0
U1406 U 0.77099 0.53329 0.86249 0.0
O1407 O 0.7824 0.52965 0.87212 0.0
O1408 O 0.7831 0.52538 0.85741 0.0
C1409 C 0.78699 0.52497 0.86572 0.0
C1410 C 0.75487 0.52459 0.86395 0.0
C1411 C 0.79047 0.51584 0.86858 0.0
C1412 C 0.78809 0.49948 0.87214 0.0
C1413 C 0.78453 0.50805 0.86921 0.0
C1414 C 0.80352 0.50647 0.87382 0.0
C1415 C 0.79763 0.49862 0.87454 0.0
C1416 C 0.79996 0.51498 0.87087 0.0
C1417 C 0.7789 0.55775 0.85679 0.0
C1418 C 0.79549 0.56152 0.85671 0.0
C1419 C 0.78405 0.57368 0.85436 0.0
C1420 C 0.77682 0.56711 0.85517 0.0
C1421 C 0.79347 0.57096 0.85515 0.0
C1422 C 0.78827 0.55498 0.85753 0.0
C1423 C 0.7713 0.55094 0.85796 0.0
O1424 O 0.75986 0.5245 0.85627 0.0
O1425 O 0.75937 0.52828 0.87111 0.0
O1426 O 0.77013 0.54805 0.86654 0.0
O1427 O 0.77107 0.54414 0.85177 0.0
H1428 H 0.74872 0.54234 0.86255 0.0
H1429 H 0.73254 0.54759 0.86112 0.0
H1430 H 0.72303 0.51894 0.86103 0.0
H1431 H 0.73927 0.51379 0.86275 0.0
H1432 H 0.78337 0.49358 0.87269 0.0
H1433 H 0.77716 0.50861 0.86749 0.0
H1434 H 0.81091 0.50601 0.87546 0.0
H1435 H 0.80465 0.52092 0.8704 0.0
H1436 H 0.80266 0.55922 0.85749 0.0
H1437 H 0.78227 0.58087 0.85307 0.0
H1438 H 0.76961 0.56936 0.85458 0.0
H1439 H 0.78998 0.54777 0.85884 0.0
C1440 C 0.72812 0.51053 0.13135 0.0
C1441 C 0.71834 0.51135 0.13118 0.0
C1442 C 0.71672 0.49484 0.12752 0.0
C1443 C 0.71269 0.50359 0.12927 0.0
C1444 C 0.72654 0.49407 0.12768 0.0
C1445 C 0.7322 0.50186 0.12959 0.0
U1446 U 0.7292 0.53591 0.13741 0.0
O1447 O 0.73823 0.54416 0.14683 0.0
O1448 O 0.73769 0.54744 0.13191 0.0
C1449 C 0.74174 0.54912 0.14 0.0
C1450 C 0.73396 0.51878 0.1333 0.0
C1451 C 0.752 0.55002 0.13981 0.0
C1452 C 0.7676 0.54364 0.14182 0.0
C1453 C 0.75785 0.54253 0.142 0.0
C1454 C 0.76571 0.55968 0.13711 0.0
C1455 C 0.77163 0.55223 0.13935 0.0
C1456 C 0.75599 0.55858 0.13735 0.0
C1457 C 0.70551 0.5479 0.14031 0.0
C1458 C 0.70388 0.56451 0.1431 0.0
C1459 C 0.69007 0.55473 0.14125 0.0
C1460 C 0.69576 0.54695 0.14007 0.0
C1461 C 0.69406 0.56362 0.14266 0.0
C1462 C 0.70957 0.5567 0.1419 0.0
C1463 C 0.71129 0.53968 0.13856 0.0
O1464 O 0.73331 0.52538 0.12704 0.0
O1465 O 0.73352 0.52196 0.1419 0.0
O1466 O 0.71629 0.53677 0.14566 0.0
O1467 O 0.71593 0.53974 0.13068 0.0
H1468 H 0.71508 0.51802 0.13249 0.0
H1469 H 0.70517 0.50448 0.12905 0.0
H1470 H 0.72986 0.48741 0.12646 0.0
H1471 H 0.73975 0.50112 0.12971 0.0
H1472 H 0.77198 0.53775 0.14349 0.0
H1473 H 0.75489 0.53583 0.14385 0.0
H1474 H 0.7686 0.56641 0.13529 0.0
H1475 H 0.75158 0.56444 0.13564 0.0
H1476 H 0.70715 0.57127 0.14411 0.0
H1477 H 0.68254 0.55379 0.14103 0.0
H1478 H 0.69253 0.5402 0.13888 0.0
H1479 H 0.71712 0.55753 0.14208 0.0
C1480 C 0.72746 0.49253 0.37091 0.0
C1481 C 0.71768 0.49169 0.37139 0.0
C1482 C 0.71635 0.50835 0.37428 0.0
C1483 C 0.71218 0.49952 0.37307 0.0
C1484 C 0.72618 0.50914 0.37379 0.0
C1485 C 0.73169 0.50128 0.37213 0.0
U1486 U 0.72832 0.46685 0.36605 0.0
O1487 O 0.7369 0.45836 0.35663 0.0
O1488 O 0.73721 0.45577 0.3717 0.0
C1489 C 0.7408 0.45377 0.36352 0.0
C1490 C 0.73317 0.48424 0.36915 0.0
C1491 C 0.75106 0.45297 0.36329 0.0
C1492 C 0.76655 0.45939 0.36033 0.0
C1493 C 0.75681 0.46042 0.36056 0.0
C1494 C 0.76487 0.44352 0.36571 0.0
C1495 C 0.77068 0.45092 0.36293 0.0
C1496 C 0.75516 0.44454 0.36588 0.0
C1497 C 0.70466 0.45417 0.36468 0.0
C1498 C 0.70232 0.43836 0.3589 0.0
C1499 C 0.69007 0.44603 0.36764 0.0
C1500 C 0.69569 0.45397 0.36855 0.0
C1501 C 0.69331 0.43813 0.36281 0.0
C1502 C 0.70798 0.44631 0.35987 0.0
C1503 C 0.71043 0.4626 0.36585 0.0
O1504 O 0.73285 0.47795 0.37575 0.0
O1505 O 0.7323 0.48064 0.36073 0.0
O1506 O 0.71498 0.46541 0.35844 0.0
O1507 O 0.71547 0.46301 0.37353 0.0
H1508 H 0.7143 0.48497 0.37044 0.0
H1509 H 0.70464 0.49868 0.37325 0.0
H1510 H 0.72961 0.51582 0.37479 0.0
H1511 H 0.73923 0.50203 0.3718 0.0
H1512 H 0.77086 0.46523 0.35824 0.0
H1513 H 0.75377 0.46702 0.3586 0.0
H1514 H 0.76783 0.43688 0.36764 0.0
H1515 H 0.75083 0.43872 0.368 0.0
H1516 H 0.70503 0.43236 0.3552 0.0
H1517 H 0.68311 0.44611 0.37062 0.0
H1518 H 0.69302 0.45997 0.37228 0.0
H1519 H 0.71494 0.44633 0.35689 0.0
C1520 C 0.74379 0.47528 0.63316 0.0
C1521 C 0.74197 0.46573 0.63204 0.0
C1522 C 0.72535 0.4683 0.63459 0.0
C1523 C 0.73284 0.46227 0.6327 0.0
C1524 C 0.7272 0.47786 0.6358 0.0
C1525 C 0.73636 0.48133 0.63506 0.0
U1526 U 0.76962 0.47056 0.63457 0.0
O1527 O 0.78137 0.47469 0.62567 0.0
O1528 O 0.78144 0.47862 0.6405 0.0
C1529 C 0.78569 0.47926 0.63243 0.0
C1530 C 0.75345 0.47885 0.63258 0.0
C1531 C 0.78939 0.48848 0.62998 0.0
C1532 C 0.78742 0.50411 0.62396 0.0
C1533 C 0.78354 0.49562 0.62683 0.0
C1534 C 0.80295 0.49838 0.62754 0.0
C1535 C 0.7972 0.50552 0.62415 0.0
C1536 C 0.79908 0.48995 0.63042 0.0
C1537 C 0.7775 0.44608 0.63992 0.0
C1538 C 0.79409 0.44262 0.64087 0.0
C1539 C 0.78263 0.43015 0.64196 0.0
C1540 C 0.77541 0.43661 0.641 0.0
C1541 C 0.79206 0.43308 0.64187 0.0
C1542 C 0.78687 0.44906 0.63989 0.0
C1543 C 0.76991 0.45278 0.63858 0.0
O1544 O 0.75815 0.47888 0.64048 0.0
O1545 O 0.75831 0.47561 0.62552 0.0
O1546 O 0.76906 0.45591 0.63004 0.0
O1547 O 0.76939 0.45939 0.64495 0.0
H1548 H 0.74763 0.46092 0.6307 0.0
H1549 H 0.73166 0.45485 0.6319 0.0
H1550 H 0.72157 0.48267 0.63723 0.0
H1551 H 0.73765 0.48872 0.63599 0.0
H1552 H 0.78282 0.50946 0.62134 0.0
H1553 H 0.77603 0.49457 0.62644 0.0
H1554 H 0.81048 0.4993 0.62793 0.0
H1555 H 0.80368 0.48451 0.63285 0.0
H1556 H 0.80127 0.44509 0.64063 0.0
H1557 H 0.78084 0.42287 0.6428 0.0
H1558 H 0.7682 0.4342 0.64103 0.0
H1559 H 0.78859 0.45635 0.63901 0.0
C1560 C 0.49052 0.13209 0.24575 0.0
C1561 C 0.48087 0.13361 0.24482 0.0
C1562 C 0.47966 0.13661 0.26149 0.0
C1563 C 0.47549 0.13587 0.25261 0.0
C1564 C 0.48938 0.1352 0.26237 0.0
C1565 C 0.49476 0.13294 0.25455 0.0
U1566 U 0.49087 0.12462 0.22062 0.0
O1567 O 0.49993 0.1285 0.20892 0.0
O1568 O 0.49891 0.11389 0.2132 0.0
C1569 C 0.50306 0.11998 0.2078 0.0
C1570 C 0.49603 0.12934 0.23758 0.0
C1571 C 0.51326 0.11909 0.20703 0.0
C1572 C 0.52898 0.1212 0.21329 0.0
C1573 C 0.51927 0.12201 0.21427 0.0
C1574 C 0.52672 0.11446 0.19789 0.0
C1575 C 0.53282 0.11743 0.20508 0.0
C1576 C 0.51704 0.11529 0.19887 0.0
C1577 C 0.46728 0.12241 0.20816 0.0
C1578 C 0.46588 0.11997 0.19144 0.0
C1579 C 0.45208 0.11919 0.20117 0.0
C1580 C 0.45761 0.12105 0.20904 0.0
C1581 C 0.45613 0.11868 0.19226 0.0
C1582 C 0.47141 0.1218 0.19933 0.0
C1583 C 0.47294 0.1245 0.21649 0.0
O1584 O 0.49483 0.12065 0.23488 0.0
O1585 O 0.49584 0.13525 0.23063 0.0
O1586 O 0.47825 0.13198 0.21601 0.0
O1587 O 0.47725 0.11735 0.22017 0.0
H1588 H 0.47747 0.13297 0.23807 0.0
H1589 H 0.46807 0.13704 0.25166 0.0
H1590 H 0.49278 0.13562 0.26912 0.0
H1591 H 0.5022 0.13175 0.25539 0.0
H1592 H 0.53348 0.12347 0.21899 0.0
H1593 H 0.51644 0.12493 0.22064 0.0
H1594 H 0.52944 0.11166 0.19143 0.0
H1595 H 0.51249 0.11302 0.19321 0.0
H1596 H 0.46922 0.11973 0.18468 0.0
H1597 H 0.44463 0.11808 0.20208 0.0
H1598 H 0.45433 0.12144 0.21582 0.0
H1599 H 0.47889 0.12281 0.19854 0.0
C1600 C 0.97772 0.87679 0.72772 0.0
C1601 C 0.97587 0.87885 0.71835 0.0
C1602 C 0.95912 0.87912 0.72146 0.0
C1603 C 0.96666 0.87997 0.71525 0.0
C1604 C 0.96104 0.87712 0.73088 0.0
C1605 C 0.97027 0.87597 0.73397 0.0
U1606 U 0.00358 0.87841 0.72283 0.0
O1607 O 0.01551 0.88308 0.73146 0.0
O1608 O 0.01515 0.86883 0.7258 0.0
C1609 C 0.01956 0.87489 0.73118 0.0
C1610 C 0.98742 0.87554 0.73094 0.0
C1611 C 0.023 0.87132 0.74011 0.0
C1612 C 0.02062 0.86683 0.75622 0.0
C1613 C 0.01705 0.87016 0.74777 0.0
C1614 C 0.03604 0.86572 0.74935 0.0
C1615 C 0.03016 0.86457 0.7571 0.0
C1616 C 0.03249 0.86906 0.74095 0.0
C1617 C 0.01161 0.88707 0.69934 0.0
C1618 C 0.02792 0.89099 0.69657 0.0
C1619 C 0.01733 0.8885 0.68351 0.0
C1620 C 0.01 0.88677 0.68969 0.0
C1621 C 0.02638 0.8906 0.68688 0.0
C1622 C 0.02061 0.88919 0.70274 0.0
C1623 C 0.00397 0.88481 0.70578 0.0
O1624 O 0.99206 0.86896 0.72657 0.0
O1625 O 0.99229 0.88328 0.73201 0.0
O1626 O 0.00338 0.89021 0.71319 0.0
O1627 O 0.00305 0.87592 0.70768 0.0
H1628 H 0.98156 0.87951 0.71343 0.0
H1629 H 0.96545 0.88137 0.70793 0.0
H1630 H 0.95542 0.87654 0.73587 0.0
H1631 H 0.9716 0.87443 0.74124 0.0
H1632 H 0.01589 0.86595 0.76203 0.0
H1633 H 0.00969 0.87184 0.74721 0.0
H1634 H 0.04345 0.8642 0.74983 0.0
H1635 H 0.03718 0.86994 0.73511 0.0
H1636 H 0.03484 0.89245 0.69938 0.0
H1637 H 0.01593 0.8882 0.67608 0.0
H1638 H 0.0031 0.88511 0.68695 0.0
H1639 H 0.02202 0.88934 0.71017 0.0
C1640 C 0.51701 0.87728 0.27567 0.0
C1641 C 0.51906 0.87953 0.28499 0.0
C1642 C 0.53575 0.87973 0.28157 0.0
C1643 C 0.52834 0.88074 0.28792 0.0
C1644 C 0.53363 0.87752 0.27221 0.0
C1645 C 0.52433 0.87631 0.26929 0.0
U1646 U 0.49127 0.87785 0.28134 0.0
O1647 O 0.47907 0.88266 0.27336 0.0
O1648 O 0.47977 0.86813 0.27791 0.0
C1649 C 0.47517 0.87435 0.27306 0.0
C1650 C 0.50725 0.87591 0.27264 0.0
C1651 C 0.47178 0.87121 0.26387 0.0
C1652 C 0.47443 0.86706 0.24766 0.0
C1653 C 0.4779 0.86998 0.25636 0.0
C1654 C 0.45873 0.86651 0.25397 0.0
C1655 C 0.4648 0.86528 0.24637 0.0
C1656 C 0.4622 0.86944 0.26263 0.0
C1657 C 0.48397 0.88509 0.30574 0.0
C1658 C 0.46773 0.88817 0.30959 0.0
C1659 C 0.47929 0.88667 0.32191 0.0
C1660 C 0.48624 0.88514 0.31525 0.0
C1661 C 0.46997 0.8882 0.31915 0.0
C1662 C 0.47467 0.88658 0.30294 0.0
C1663 C 0.49131 0.88331 0.29883 0.0
O1664 O 0.50284 0.86897 0.27667 0.0
O1665 O 0.50223 0.88353 0.27225 0.0
O1666 O 0.49156 0.88911 0.2918 0.0
O1667 O 0.49221 0.87456 0.29628 0.0
H1668 H 0.51347 0.88029 0.29002 0.0
H1669 H 0.52971 0.88229 0.2952 0.0
H1670 H 0.53915 0.87681 0.26712 0.0
H1671 H 0.52285 0.87461 0.26206 0.0
H1672 H 0.4793 0.86611 0.24197 0.0
H1673 H 0.48534 0.8713 0.25723 0.0
H1674 H 0.45126 0.86536 0.25319 0.0
H1675 H 0.45738 0.87038 0.26836 0.0
H1676 H 0.46059 0.88922 0.30726 0.0
H1677 H 0.48124 0.88674 0.32922 0.0
H1678 H 0.49338 0.88398 0.31753 0.0
H1679 H 0.47278 0.88648 0.29561 0.0
C1680 C 0.87492 0.74503 0.02344 0.0
C1681 C 0.87445 0.74441 0.03318 0.0
C1682 C 0.86898 0.7604 0.03418 0.0
C1683 C 0.87152 0.75202 0.0385 0.0
C1684 C 0.86942 0.76095 0.0244 0.0
C1685 C 0.87236 0.75332 0.01907 0.0
U1686 U 0.88318 0.7202 0.02256 0.0
O1687 O 0.87994 0.70862 0.01296 0.0
O1688 O 0.89447 0.71351 0.0146 0.0
C1689 C 0.88862 0.70804 0.01001 0.0
C1690 C 0.87814 0.73705 0.01789 0.0
C1691 C 0.88992 0.70758 0.99985 0.0
C1692 C 0.88496 0.71107 0.98402 0.0
C1693 C 0.88381 0.71207 0.99366 0.0
C1694 C 0.8985 0.70135 0.98666 0.0
C1695 C 0.89229 0.70564 0.98042 0.0
C1696 C 0.89731 0.7023 0.99627 0.0
C1697 C 0.88487 0.70708 0.04548 0.0
C1698 C 0.88724 0.69038 0.04618 0.0
C1699 C 0.88769 0.69967 0.06036 0.0
C1700 C 0.886 0.70768 0.05517 0.0
C1701 C 0.88824 0.6909 0.05594 0.0
C1702 C 0.88559 0.69841 0.04099 0.0
C1703 C 0.8828 0.71553 0.04019 0.0
O1704 O 0.8869 0.7347 0.01935 0.0
O1705 O 0.87238 0.72988 0.01766 0.0
O1706 O 0.87545 0.71497 0.03464 0.0
O1707 O 0.89005 0.71961 0.03632 0.0
H1708 H 0.87643 0.73804 0.03666 0.0
H1709 H 0.8714 0.75139 0.04602 0.0
H1710 H 0.86741 0.76726 0.02085 0.0
H1711 H 0.87266 0.75389 0.01156 0.0
H1712 H 0.88011 0.71453 0.97938 0.0
H1713 H 0.87809 0.71625 0.99627 0.0
H1714 H 0.90413 0.69702 0.98412 0.0
H1715 H 0.90208 0.69877 0.00094 0.0
H1716 H 0.88753 0.68374 0.04256 0.0
H1717 H 0.88859 0.70035 0.06783 0.0
H1718 H 0.88552 0.71434 0.05873 0.0
H1719 H 0.88475 0.69784 0.0335 0.0
C1720 C 0.61358 0.27501 0.49585 0.0
C1721 C 0.60971 0.28378 0.49414 0.0
C1722 C 0.61204 0.28165 0.47745 0.0
C1723 C 0.60891 0.28705 0.48504 0.0
C1724 C 0.61586 0.27282 0.47921 0.0
C1725 C 0.61663 0.26954 0.48834 0.0
U1726 U 0.61333 0.28031 0.5216 0.0
O1727 O 0.60769 0.27251 0.5335 0.0
O1728 O 0.62265 0.27614 0.53302 0.0
C1729 C 0.61597 0.27164 0.53742 0.0
C1730 C 0.61467 0.27173 0.50546 0.0
C1731 C 0.61833 0.26231 0.54082 0.0
C1732 C 0.62678 0.24773 0.53952 0.0
C1733 C 0.6241 0.25627 0.53573 0.0
C1734 C 0.61773 0.2511 0.55336 0.0
C1735 C 0.6237 0.2451 0.54843 0.0
C1736 C 0.61509 0.25962 0.54959 0.0
C1737 C 0.60833 0.30497 0.52962 0.0
C1738 C 0.60639 0.30862 0.54605 0.0
C1739 C 0.60833 0.32107 0.53491 0.0
C1740 C 0.60893 0.3145 0.52769 0.0
C1741 C 0.60708 0.3182 0.54418 0.0
C1742 C 0.60705 0.30206 0.53884 0.0
C1743 C 0.60942 0.29812 0.52206 0.0
O1744 O 0.62195 0.27521 0.50998 0.0
O1745 O 0.60697 0.27176 0.51044 0.0
O1746 O 0.60297 0.29156 0.52162 0.0
O1747 O 0.61795 0.29493 0.52103 0.0
H1748 H 0.60734 0.28812 0.49986 0.0
H1749 H 0.6058 0.29381 0.48394 0.0
H1750 H 0.61843 0.26853 0.47355 0.0
H1751 H 0.61968 0.26277 0.48955 0.0
H1752 H 0.63131 0.24322 0.53551 0.0
H1753 H 0.62664 0.2582 0.52891 0.0
H1754 H 0.61533 0.24936 0.56028 0.0
H1755 H 0.61066 0.26421 0.55363 0.0
H1756 H 0.60557 0.30618 0.55313 0.0
H1757 H 0.60881 0.32839 0.53325 0.0
H1758 H 0.60995 0.31686 0.52062 0.0
H1759 H 0.60668 0.29472 0.54046 0.0
C1760 C 0.23993 0.48359 0.1274 0.0
C1761 C 0.23875 0.47391 0.12675 0.0
C1762 C 0.25437 0.47161 0.13318 0.0
C1763 C 0.2459 0.46798 0.1296 0.0
C1764 C 0.25557 0.48134 0.1337 0.0
C1765 C 0.24838 0.48729 0.13085 0.0
U1766 U 0.21513 0.48561 0.11914 0.0
O1767 O 0.20351 0.49457 0.12342 0.0
O1768 O 0.2083 0.49471 0.10888 0.0
C1769 C 0.20284 0.4985 0.11519 0.0
C1770 C 0.2322 0.48972 0.12469 0.0
C1771 C 0.2022 0.50875 0.1151 0.0
C1772 C 0.20344 0.52385 0.12282 0.0
C1773 C 0.20495 0.51424 0.1228 0.0
C1774 C 0.19675 0.52267 0.10731 0.0
C1775 C 0.19919 0.52817 0.11512 0.0
C1776 C 0.19821 0.51307 0.10732 0.0
C1777 C 0.20201 0.46249 0.11548 0.0
C1778 C 0.18515 0.46115 0.11341 0.0
C1779 C 0.19484 0.4474 0.11253 0.0
C1780 C 0.20281 0.45287 0.11411 0.0
C1781 C 0.1859 0.45144 0.11232 0.0
C1782 C 0.19315 0.46664 0.11499 0.0
C1783 C 0.21042 0.46796 0.11782 0.0
O1784 O 0.22975 0.48918 0.11585 0.0
O1785 O 0.22499 0.48955 0.13035 0.0
O1786 O 0.20999 0.47279 0.12562 0.0
O1787 O 0.21423 0.47259 0.11094 0.0
H1788 H 0.23227 0.47094 0.12409 0.0
H1789 H 0.2448 0.46054 0.12894 0.0
H1790 H 0.26198 0.48435 0.13649 0.0
H1791 H 0.24938 0.49475 0.13143 0.0
H1792 H 0.20533 0.52784 0.12899 0.0
H1793 H 0.20807 0.51109 0.1289 0.0
H1794 H 0.19363 0.52577 0.10119 0.0
H1795 H 0.19605 0.50897 0.10129 0.0
H1796 H 0.17836 0.46447 0.11334 0.0
H1797 H 0.19568 0.43997 0.11155 0.0
H1798 H 0.20961 0.44957 0.11443 0.0
H1799 H 0.19242 0.47408 0.11602 0.0
C1800 C 0.28177 0.51001 0.88096 0.0
C1801 C 0.29012 0.51219 0.88571 0.0
C1802 C 0.28851 0.52851 0.88159 0.0
C1803 C 0.29344 0.52135 0.88605 0.0
C1804 C 0.28013 0.52629 0.87683 0.0
C1805 C 0.27677 0.5171 0.87654 0.0
U1806 U 0.2871 0.48462 0.8838 0.0
O1807 O 0.27899 0.47299 0.88964 0.0
O1808 O 0.2838 0.47234 0.87513 0.0
C1809 C 0.27888 0.46833 0.88171 0.0
C1810 C 0.27851 0.50029 0.88033 0.0
C1811 C 0.26979 0.46439 0.87883 0.0
C1812 C 0.2546 0.4656 0.8712 0.0
C1813 C 0.26304 0.46972 0.87419 0.0
C1814 C 0.25957 0.45088 0.87763 0.0
C1815 C 0.25282 0.45609 0.87281 0.0
C1816 C 0.26796 0.45499 0.8806 0.0
C1817 C 0.3116 0.47816 0.89181 0.0
C1818 C 0.31608 0.46198 0.89344 0.0
C1819 C 0.32748 0.47426 0.89634 0.0
C1820 C 0.32069 0.48093 0.89432 0.0
C1821 C 0.32527 0.46471 0.89587 0.0
C1822 C 0.30931 0.46866 0.89141 0.0
C1823 C 0.30462 0.48521 0.88943 0.0
O1824 O 0.2826 0.49528 0.87383 0.0
O1825 O 0.27788 0.49596 0.88834 0.0
O1826 O 0.29749 0.48584 0.89514 0.0
O1827 O 0.30212 0.48535 0.8806 0.0
H1828 H 0.29413 0.50678 0.88907 0.0
H1829 H 0.30001 0.52278 0.88962 0.0
H1830 H 0.27615 0.53165 0.87338 0.0
H1831 H 0.27033 0.51552 0.8728 0.0
H1832 H 0.24958 0.46979 0.86746 0.0
H1833 H 0.26435 0.47701 0.87278 0.0
H1834 H 0.25835 0.4436 0.87915 0.0
H1835 H 0.27308 0.45079 0.88422 0.0
H1836 H 0.31418 0.45468 0.8929 0.0
H1837 H 0.33445 0.4766 0.89831 0.0
H1838 H 0.32256 0.48825 0.89467 0.0
H1839 H 0.3023 0.46641 0.88945 0.0
C1840 C 0.282 0.49119 0.62177 0.0
C1841 C 0.29153 0.48925 0.62056 0.0
C1842 C 0.2882 0.47262 0.62095 0.0
C1843 C 0.2946 0.48005 0.62019 0.0
C1844 C 0.27862 0.4746 0.62199 0.0
C1845 C 0.27555 0.48383 0.62243 0.0
U1846 U 0.2873 0.5167 0.61878 0.0
O1847 O 0.27885 0.52833 0.61361 0.0
O1848 O 0.28458 0.52879 0.62786 0.0
C1849 C 0.2791 0.53274 0.62168 0.0
C1850 C 0.27884 0.50089 0.62239 0.0
C1851 C 0.27017 0.53635 0.6253 0.0
C1852 C 0.25315 0.53716 0.6252 0.0
C1853 C 0.26144 0.53323 0.62187 0.0
C1854 C 0.26218 0.54723 0.63553 0.0
C1855 C 0.25343 0.54423 0.63205 0.0
C1856 C 0.27044 0.54335 0.63216 0.0
C1857 C 0.31146 0.52364 0.61009 0.0
C1858 C 0.31536 0.53956 0.60599 0.0
C1859 C 0.32768 0.52822 0.60793 0.0
C1860 C 0.32099 0.52141 0.60998 0.0
C1861 C 0.32495 0.53738 0.60594 0.0
C1862 C 0.30867 0.53276 0.6081 0.0
C1863 C 0.30455 0.51647 0.61258 0.0
O1864 O 0.28316 0.50596 0.62878 0.0
O1865 O 0.27799 0.50517 0.61437 0.0
O1866 O 0.29716 0.51583 0.60709 0.0
O1867 O 0.30247 0.51612 0.62147 0.0
H1868 H 0.2966 0.49485 0.61996 0.0
H1869 H 0.302 0.47875 0.61922 0.0
H1870 H 0.27354 0.46902 0.62264 0.0
H1871 H 0.26816 0.48522 0.62334 0.0
H1872 H 0.24651 0.53467 0.62244 0.0
H1873 H 0.26102 0.52781 0.61659 0.0
H1874 H 0.26265 0.55276 0.6407 0.0
H1875 H 0.27709 0.54591 0.63486 0.0
H1876 H 0.31304 0.54658 0.6046 0.0
H1877 H 0.33501 0.5263 0.60785 0.0
H1878 H 0.32326 0.5144 0.61152 0.0
H1879 H 0.30133 0.53462 0.60825 0.0
C1880 C 0.23596 0.51435 0.37192 0.0
C1881 C 0.23553 0.52405 0.37297 0.0
C1882 C 0.25078 0.52572 0.36564 0.0
C1883 C 0.24287 0.52968 0.36988 0.0
C1884 C 0.25117 0.51597 0.36461 0.0
C1885 C 0.2438 0.51033 0.36772 0.0
U1886 U 0.2117 0.51291 0.38178 0.0
O1887 O 0.19952 0.50418 0.37816 0.0
O1888 O 0.20542 0.50377 0.39233 0.0
C1889 C 0.1994 0.50012 0.38635 0.0
C1890 C 0.22814 0.5085 0.37507 0.0
C1891 C 0.19879 0.4899 0.3862 0.0
C1892 C 0.20227 0.47492 0.37908 0.0
C1893 C 0.20338 0.4846 0.37937 0.0
C1894 C 0.19225 0.47571 0.39263 0.0
C1895 C 0.19663 0.47038 0.38566 0.0
C1896 C 0.19331 0.48538 0.39288 0.0
C1897 C 0.1995 0.53608 0.38655 0.0
C1898 C 0.18284 0.53741 0.38959 0.0
C1899 C 0.19274 0.55118 0.38979 0.0
C1900 C 0.20052 0.5457 0.3878 0.0
C1901 C 0.18378 0.54713 0.39053 0.0
C1902 C 0.19065 0.53192 0.3876 0.0
C1903 C 0.20762 0.5306 0.38363 0.0
O1904 O 0.22641 0.50901 0.38405 0.0
O1905 O 0.22054 0.50898 0.36989 0.0
O1906 O 0.2065 0.5259 0.3758 0.0
O1907 O 0.2118 0.52581 0.39019 0.0
H1908 H 0.2295 0.52726 0.3762 0.0
H1909 H 0.24239 0.53713 0.37092 0.0
H1910 H 0.25711 0.5127 0.36129 0.0
H1911 H 0.24422 0.50285 0.36682 0.0
H1912 H 0.20582 0.47098 0.37369 0.0
H1913 H 0.20772 0.48795 0.37419 0.0
H1914 H 0.18779 0.47243 0.39774 0.0
H1915 H 0.18973 0.48937 0.3982 0.0
H1916 H 0.17603 0.53409 0.39005 0.0
H1917 H 0.19373 0.55862 0.39064 0.0
H1918 H 0.20732 0.549 0.38705 0.0
H1919 H 0.18975 0.52447 0.38665 0.0
P1920 P 0.09921 0.35298 0.10685 0.0
H1921 H 0.0883 0.33947 0.11728 0.0
H1922 H 0.07534 0.34116 0.12815 0.0
H1923 H 0.07322 0.37026 0.12109 0.0
H1924 H 0.08631 0.36852 0.11028 0.0
H1925 H 0.11236 0.35111 0.09169 0.0
H1926 H 0.11141 0.34367 0.07638 0.0
H1927 H 0.08231 0.3369 0.08117 0.0
H1928 H 0.08332 0.3444 0.09656 0.0
H1929 H 0.10927 0.36282 0.12155 0.0
H1930 H 0.10187 0.36774 0.09285 0.0
O1931 O 0.10599 0.34548 0.11254 0.0
H1932 H 0.11791 0.37751 0.12211 0.0
H1933 H 0.1109 0.38225 0.09318 0.0
C1934 C 0.0884 0.35391 0.11316 0.0
C1935 C 0.08494 0.34617 0.11795 0.0
C1936 C 0.07747 0.34714 0.12412 0.0
C1937 C 0.07332 0.35589 0.12559 0.0
C1938 C 0.07638 0.36348 0.12024 0.0
C1939 C 0.08385 0.36248 0.11405 0.0
C1940 C 0.09787 0.34848 0.09518 0.0
C1941 C 0.10572 0.3482 0.08938 0.0
C1942 C 0.10516 0.34395 0.08061 0.0
C1943 C 0.09677 0.33975 0.07753 0.0
C1944 C 0.08888 0.34006 0.08336 0.0
C1945 C 0.08943 0.3444 0.09213 0.0
C1946 C 0.1052 0.36405 0.10709 0.0
C1947 C 0.10959 0.36703 0.11534 0.0
C1948 C 0.11457 0.37542 0.11563 0.0
C1949 C 0.11528 0.381 0.10764 0.0
C1950 C 0.11051 0.37815 0.09947 0.0
C1951 C 0.10544 0.36978 0.09923 0.0
P1952 P 0.92222 0.87535 0.41095 0.0
H1953 H 0.93351 0.86168 0.42068 0.0
H1954 H 0.92948 0.84827 0.43031 0.0
H1955 H 0.90013 0.85279 0.42452 0.0
H1956 H 0.90422 0.866 0.41476 0.0
H1957 H 0.93404 0.8865 0.39899 0.0
H1958 H 0.94021 0.88407 0.38335 0.0
H1959 H 0.92775 0.85656 0.38258 0.0
H1960 H 0.92141 0.85917 0.39821 0.0
H1961 H 0.91376 0.88988 0.42244 0.0
H1962 H 0.90822 0.87641 0.39598 0.0
O1963 O 0.93003 0.88127 0.41741 0.0
H1964 H 0.89986 0.89953 0.42038 0.0
H1965 H 0.89443 0.88614 0.39378 0.0
C1966 C 0.91917 0.86492 0.41714 0.0
C1967 C 0.92621 0.85971 0.42142 0.0
C1968 C 0.92389 0.85208 0.42696 0.0
C1969 C 0.91447 0.84951 0.42828 0.0
C1970 C 0.90745 0.85453 0.42362 0.0
C1971 C 0.90979 0.86215 0.41807 0.0
C1972 C 0.92744 0.87295 0.39981 0.0
C1973 C 0.93276 0.87989 0.39551 0.0
C1974 C 0.93631 0.87848 0.38656 0.0
C1975 C 0.93454 0.87009 0.38172 0.0
C1976 C 0.9292 0.86312 0.38609 0.0
C1977 C 0.92564 0.86456 0.39506 0.0
C1978 C 0.91212 0.88258 0.40927 0.0
C1979 C 0.9096 0.88907 0.41614 0.0
C1980 C 0.90167 0.8946 0.41494 0.0
C1981 C 0.89607 0.89365 0.40689 0.0
C1982 C 0.89856 0.88701 0.40009 0.0
C1983 C 0.90649 0.8815 0.4013 0.0
P1984 P 0.41967 0.62894 0.58954 0.0
H1985 H 0.42861 0.64141 0.57627 0.0
H1986 H 0.42308 0.65508 0.56793 0.0
H1987 H 0.39694 0.65371 0.58292 0.0
H1988 H 0.40249 0.63991 0.59112 0.0
H1989 H 0.4268 0.61606 0.60321 0.0
H1990 H 0.4338 0.61807 0.61868 0.0
H1991 H 0.43124 0.6479 0.61621 0.0
H1992 H 0.42425 0.64582 0.60068 0.0
H1993 H 0.41097 0.6159 0.57635 0.0
H1994 H 0.40656 0.62494 0.60472 0.0
O1995 O 0.42767 0.62394 0.58275 0.0
H1996 H 0.39803 0.60473 0.57773 0.0
H1997 H 0.39365 0.61379 0.60615 0.0
C1998 C 0.41588 0.63954 0.58415 0.0
C1999 C 0.4217 0.64407 0.57778 0.0
C2000 C 0.41855 0.65194 0.57307 0.0
C2001 C 0.40953 0.65545 0.57469 0.0
C2002 C 0.40386 0.65108 0.58138 0.0
C2003 C 0.40703 0.64322 0.5861 0.0
C2004 C 0.42494 0.63077 0.60084 0.0
C2005 C 0.42774 0.62303 0.60601 0.0
C2006 C 0.43169 0.62419 0.61486 0.0
C2007 C 0.43301 0.63314 0.61869 0.0
C2008 C 0.43035 0.64092 0.61342 0.0
C2009 C 0.42631 0.63974 0.60456 0.0
C2010 C 0.40988 0.62105 0.59051 0.0
C2011 C 0.40722 0.61547 0.58287 0.0
C2012 C 0.39979 0.60914 0.58365 0.0
C2013 C 0.39489 0.60832 0.59208 0.0
C2014 C 0.39741 0.61415 0.59962 0.0
C2015 C 0.40479 0.62052 0.59881 0.0
P2016 P 0.60399 0.14585 0.89545 0.0
H2017 H 0.5977 0.1577 0.88024 0.0
H2018 H 0.58528 0.15591 0.86864 0.0
H2019 H 0.5753 0.1313 0.8827 0.0
H2020 H 0.58791 0.13307 0.89424 0.0
H2021 H 0.61418 0.14526 0.91301 0.0
H2022 H 0.61234 0.1535 0.92781 0.0
H2023 H 0.58737 0.16664 0.91721 0.0
H2024 H 0.58924 0.1583 0.90236 0.0
H2025 H 0.61644 0.13512 0.88362 0.0
H2026 H 0.60117 0.1309 0.9091 0.0
O2027 O 0.61216 0.15245 0.89043 0.0
H2028 H 0.62291 0.11947 0.88477 0.0
H2029 H 0.60767 0.11521 0.91033 0.0
C2030 C 0.59384 0.1454 0.88797 0.0
C2031 C 0.59278 0.15198 0.8809 0.0
C2032 C 0.58561 0.15099 0.8743 0.0
C2033 C 0.57934 0.1434 0.87468 0.0
C2034 C 0.58011 0.13713 0.88212 0.0
C2035 C 0.58729 0.13815 0.88873 0.0
C2036 C 0.6017 0.15096 0.90669 0.0
C2037 C 0.60816 0.14972 0.91395 0.0
C2038 C 0.60711 0.15444 0.92241 0.0
C2039 C 0.59966 0.16066 0.9237 0.0
C2040 C 0.59317 0.16189 0.91641 0.0
C2041 C 0.59419 0.15707 0.90795 0.0
C2042 C 0.60857 0.13426 0.89642 0.0
C2043 C 0.61452 0.13083 0.88949 0.0
C2044 C 0.61814 0.12186 0.89011 0.0
C2045 C 0.61584 0.11613 0.89767 0.0
C2046 C 0.60968 0.11951 0.9045 0.0
C2047 C 0.60598 0.12848 0.90382 0.0
P2048 P 0.10119 0.64696 0.39429 0.0
H2049 H 0.09418 0.65912 0.37969 0.0
H2050 H 0.08142 0.65748 0.3685 0.0
H2051 H 0.07221 0.63239 0.38226 0.0
H2052 H 0.08528 0.63398 0.39333 0.0
H2053 H 0.11352 0.64878 0.4103 0.0
H2054 H 0.11193 0.65643 0.42545 0.0
H2055 H 0.0834 0.66365 0.41858 0.0
H2056 H 0.08505 0.65593 0.40338 0.0
H2057 H 0.10975 0.63586 0.37981 0.0
H2058 H 0.10323 0.63263 0.40891 0.0
O2059 O 0.10897 0.65394 0.38917 0.0
H2060 H 0.11739 0.62074 0.37971 0.0
H2061 H 0.11133 0.61772 0.40904 0.0
C2062 C 0.09076 0.64658 0.38721 0.0
C2063 C 0.08936 0.65333 0.38038 0.0
C2064 C 0.08198 0.65241 0.37401 0.0
C2065 C 0.0758 0.64475 0.37441 0.0
C2066 C 0.07693 0.63828 0.38165 0.0
C2067 C 0.08436 0.6392 0.38801 0.0
C2068 C 0.09935 0.65162 0.40581 0.0
C2069 C 0.10686 0.65184 0.41213 0.0
C2070 C 0.10593 0.6562 0.4208 0.0
C2071 C 0.09752 0.66059 0.42324 0.0
C2072 C 0.08997 0.66034 0.41688 0.0
C2073 C 0.09089 0.65588 0.40822 0.0
C2074 C 0.10619 0.63549 0.39442 0.0
C2075 C 0.11003 0.63191 0.38621 0.0
C2076 C 0.11445 0.62328 0.38618 0.0
C2077 C 0.11518 0.61808 0.39442 0.0
C2078 C 0.11092 0.62152 0.40257 0.0
C2079 C 0.10638 0.63013 0.40254 0.0
P2080 P 0.60076 0.85331 0.60731 0.0
H2081 H 0.58879 0.83921 0.6156 0.0
H2082 H 0.57605 0.84008 0.62686 0.0
H2083 H 0.57739 0.87014 0.62592 0.0
H2084 H 0.58978 0.86919 0.61437 0.0
H2085 H 0.61308 0.85186 0.59146 0.0
H2086 H 0.61164 0.84426 0.57626 0.0
H2087 H 0.58324 0.83611 0.58271 0.0
H2088 H 0.58471 0.84382 0.59795 0.0
H2089 H 0.61402 0.86289 0.61961 0.0
H2090 H 0.59983 0.86844 0.59366 0.0
O2091 O 0.608 0.84612 0.61283 0.0
H2092 H 0.62247 0.87768 0.61848 0.0
H2093 H 0.60824 0.88331 0.59248 0.0
C2094 C 0.59029 0.85412 0.6142 0.0
C2095 C 0.58618 0.84598 0.61767 0.0
C2096 C 0.57896 0.8465 0.62418 0.0
C2097 C 0.57578 0.85519 0.62743 0.0
C2098 C 0.57959 0.86333 0.62354 0.0
C2099 C 0.58676 0.86279 0.61696 0.0
C2100 C 0.59898 0.84852 0.59579 0.0
C2101 C 0.60648 0.84859 0.58954 0.0
C2102 C 0.60564 0.84425 0.58084 0.0
C2103 C 0.59731 0.83962 0.57826 0.0
C2104 C 0.58976 0.83959 0.58453 0.0
C2105 C 0.59058 0.84403 0.59323 0.0
C2106 C 0.60652 0.86447 0.60659 0.0
C2107 C 0.61272 0.86731 0.61367 0.0
C2108 C 0.61748 0.87581 0.61305 0.0
C2109 C 0.61607 0.88164 0.60535 0.0
C2110 C 0.60958 0.8789 0.59842 0.0
C2111 C 0.60478 0.87041 0.59908 0.0
P2112 P 0.42192 0.37584 0.91155 0.0
H2113 H 0.43235 0.36337 0.92358 0.0
H2114 H 0.42771 0.35005 0.93301 0.0
H2115 H 0.39944 0.35212 0.92233 0.0
H2116 H 0.40424 0.36526 0.91269 0.0
H2117 H 0.4388 0.38231 0.90214 0.0
H2118 H 0.44486 0.37974 0.88649 0.0
H2119 H 0.42173 0.36102 0.88049 0.0
H2120 H 0.41583 0.36348 0.89632 0.0
H2121 H 0.40786 0.38254 0.92458 0.0
H2122 H 0.41457 0.38638 0.89558 0.0
O2123 O 0.42991 0.38149 0.91802 0.0
H2124 H 0.39494 0.39355 0.92309 0.0
H2125 H 0.40162 0.39721 0.89401 0.0
C2126 C 0.41858 0.36544 0.91765 0.0
C2127 C 0.42517 0.36091 0.92323 0.0
C2128 C 0.42249 0.35332 0.92865 0.0
C2129 C 0.41316 0.35011 0.92856 0.0
C2130 C 0.40668 0.35439 0.92256 0.0
C2131 C 0.4094 0.36196 0.9171 0.0
C2132 C 0.42694 0.37298 0.90042 0.0
C2133 C 0.43512 0.37752 0.89753 0.0
C2134 C 0.43852 0.37612 0.88853 0.0
C2135 C 0.43375 0.37021 0.8822 0.0
C2136 C 0.42564 0.36552 0.88521 0.0
C2137 C 0.42225 0.36692 0.89425 0.0
C2138 C 0.41208 0.38351 0.91017 0.0
C2139 C 0.40647 0.38565 0.91787 0.0
C2140 C 0.39908 0.39192 0.917 0.0
C2141 C 0.39724 0.39624 0.90843 0.0
C2142 C 0.4029 0.39407 0.90073 0.0
C2143 C 0.41028 0.38779 0.90161 0.0
P2144 P 0.92035 0.12746 0.08833 0.0
H2145 H 0.93072 0.14071 0.0771 0.0
H2146 H 0.9261 0.15463 0.06859 0.0
H2147 H 0.89789 0.15162 0.07896 0.0
H2148 H 0.90263 0.1378 0.08759 0.0
H2149 H 0.93251 0.11576 0.09934 0.0
H2150 H 0.94008 0.11775 0.11451 0.0
H2151 H 0.92874 0.14551 0.11666 0.0
H2152 H 0.92097 0.14333 0.10153 0.0
H2153 H 0.9094 0.11594 0.07548 0.0
H2154 H 0.90917 0.12267 0.10482 0.0
O2155 O 0.92772 0.12195 0.08123 0.0
H2156 H 0.89636 0.10505 0.07768 0.0
H2157 H 0.89612 0.11185 0.10707 0.0
C2158 C 0.91697 0.13813 0.0828 0.0
C2159 C 0.92355 0.14308 0.07757 0.0
C2160 C 0.92089 0.15101 0.07268 0.0
C2161 C 0.91159 0.15417 0.07299 0.0
C2162 C 0.90511 0.1494 0.07859 0.0
C2163 C 0.90779 0.14145 0.08348 0.0
C2164 C 0.92635 0.12945 0.09924 0.0
C2165 C 0.93174 0.12231 0.10303 0.0
C2166 C 0.9361 0.12348 0.1117 0.0
C2167 C 0.9351 0.13183 0.11678 0.0
C2168 C 0.92961 0.13898 0.11296 0.0
C2169 C 0.92524 0.13778 0.10427 0.0
C2170 C 0.91037 0.11995 0.09001 0.0
C2171 C 0.90652 0.11509 0.08238 0.0
C2172 C 0.89903 0.10892 0.08364 0.0
C2173 C 0.89527 0.10752 0.09257 0.0
C2174 C 0.89898 0.11265 0.10014 0.0
C2175 C 0.90644 0.11885 0.09886 0.0
P2176 P 0.1029 0.08051 0.36461 0.0
H2177 H 0.08874 0.07185 0.35253 0.0
H2178 H 0.0796 0.07767 0.33943 0.0
H2179 H 0.0956 0.10333 0.34025 0.0
H2180 H 0.10451 0.09754 0.35359 0.0
H2181 H 0.11261 0.06508 0.37331 0.0
H2182 H 0.12819 0.05859 0.37134 0.0
H2183 H 0.13372 0.07835 0.34945 0.0
H2184 H 0.11793 0.0846 0.35128 0.0
H2185 H 0.08932 0.09107 0.37527 0.0
H2186 H 0.11921 0.09157 0.37114 0.0
O2187 O 0.096 0.07266 0.36972 0.0
H2188 H 0.09069 0.10449 0.38582 0.0
H2189 H 0.12067 0.10481 0.38178 0.0
C2190 C 0.09717 0.08433 0.35413 0.0
C2191 C 0.09033 0.0787 0.34984 0.0
C2192 C 0.08515 0.08202 0.34229 0.0
C2193 C 0.08679 0.09102 0.33882 0.0
C2194 C 0.09402 0.09645 0.34286 0.0
C2195 C 0.09916 0.09313 0.35045 0.0
C2196 C 0.11405 0.07521 0.36233 0.0
C2197 C 0.1171 0.06791 0.36797 0.0
C2198 C 0.12608 0.06428 0.3669 0.0
C2199 C 0.13226 0.06798 0.36026 0.0
C2200 C 0.12911 0.07524 0.35453 0.0
C2201 C 0.12008 0.07884 0.35558 0.0
C2202 C 0.10416 0.09025 0.37251 0.0
C2203 C 0.09618 0.09402 0.3767 0.0
C2204 C 0.09699 0.10166 0.38275 0.0
C2205 C 0.1058 0.1057 0.38468 0.0
C2206 C 0.11377 0.10193 0.38038 0.0
C2207 C 0.11295 0.09429 0.37433 0.0
P2208 P 0.13889 0.8865 0.61954 0.0
H2209 H 0.15337 0.8786 0.60778 0.0
H2210 H 0.1528 0.86809 0.59429 0.0
H2211 H 0.12256 0.86954 0.59423 0.0
H2212 H 0.12322 0.88027 0.60744 0.0
H2213 H 0.14681 0.89876 0.63364 0.0
H2214 H 0.15586 0.91321 0.63296 0.0
H2215 H 0.15382 0.91263 0.60289 0.0
H2216 H 0.1448 0.89808 0.60365 0.0
H2217 H 0.12563 0.87413 0.62849 0.0
H2218 H 0.12672 0.903 0.62053 0.0
O2219 O 0.14465 0.87985 0.6271 0.0
H2220 H 0.11011 0.87648 0.63517 0.0
H2221 H 0.11117 0.90541 0.62722 0.0
C2222 C 0.13835 0.88014 0.60867 0.0
C2223 C 0.14663 0.87679 0.60474 0.0
C2224 C 0.14629 0.87072 0.59707 0.0
C2225 C 0.13763 0.86786 0.59324 0.0
C2226 C 0.12936 0.87164 0.59694 0.0
C2227 C 0.12972 0.87774 0.60457 0.0
C2228 C 0.14528 0.89729 0.61871 0.0
C2229 C 0.14832 0.90175 0.6269 0.0
C2230 C 0.15342 0.91004 0.6265 0.0
C2231 C 0.15558 0.91407 0.61787 0.0
C2232 C 0.15238 0.90964 0.60964 0.0
C2233 C 0.14721 0.90134 0.61006 0.0
C2234 C 0.12738 0.88842 0.62419 0.0
C2235 C 0.12252 0.88098 0.62819 0.0
C2236 C 0.11362 0.88231 0.63193 0.0
C2237 C 0.10943 0.89114 0.63173 0.0
C2238 C 0.11427 0.89856 0.62756 0.0
C2239 C 0.12316 0.89719 0.62374 0.0
P2240 P 0.39895 0.91957 0.86724 0.0
H2241 H 0.4118 0.92921 0.85477 0.0
H2242 H 0.42052 0.92411 0.84106 0.0
H2243 H 0.40709 0.89711 0.84251 0.0
H2244 H 0.39853 0.90223 0.85633 0.0
H2245 H 0.38926 0.93633 0.87357 0.0
H2246 H 0.37333 0.94192 0.87123 0.0
H2247 H 0.36735 0.91817 0.85343 0.0
H2248 H 0.3834 0.91275 0.85563 0.0
H2249 H 0.41266 0.90615 0.87367 0.0
H2250 H 0.38337 0.9117 0.87816 0.0
O2251 O 0.40547 0.92776 0.87251 0.0
H2252 H 0.41166 0.89272 0.88401 0.0
H2253 H 0.38235 0.8984 0.88855 0.0
C2254 C 0.40469 0.91603 0.85667 0.0
C2255 C 0.41072 0.9222 0.85211 0.0
C2256 C 0.41564 0.9193 0.84423 0.0
C2257 C 0.41456 0.91017 0.84073 0.0
C2258 C 0.40821 0.90413 0.84513 0.0
C2259 C 0.40328 0.90705 0.85301 0.0
C2260 C 0.38755 0.9242 0.86466 0.0
C2261 C 0.38458 0.93241 0.86903 0.0
C2262 C 0.37542 0.93555 0.86776 0.0
C2263 C 0.36904 0.93048 0.86217 0.0
C2264 C 0.37211 0.92232 0.85767 0.0
C2265 C 0.38129 0.9192 0.85893 0.0
C2266 C 0.39807 0.90983 0.87501 0.0
C2267 C 0.40602 0.90448 0.87689 0.0
C2268 C 0.40545 0.89684 0.88284 0.0
C2269 C 0.39691 0.89446 0.88706 0.0
C2270 C 0.38899 0.89995 0.88528 0.0
C2271 C 0.38958 0.90759 0.87934 0.0
P2272 P 0.37895 0.09952 0.08522 0.0
H2273 H 0.36517 0.0897 0.07375 0.0
H2274 H 0.35158 0.07999 0.07752 0.0
H2275 H 0.35602 0.08589 0.10681 0.0
H2276 H 0.36939 0.09576 0.10297 0.0
H2277 H 0.39094 0.11201 0.07491 0.0
H2278 H 0.38855 0.12732 0.0681 0.0
H2279 H 0.35966 0.12668 0.07696 0.0
H2280 H 0.36222 0.11144 0.08401 0.0
H2281 H 0.39172 0.08728 0.09509 0.0
H2282 H 0.38174 0.1154 0.09802 0.0
O2283 O 0.38491 0.093 0.07765 0.0
H2284 H 0.40149 0.08938 0.10901 0.0
H2285 H 0.39168 0.11767 0.11176 0.0
C2286 C 0.36837 0.09331 0.08808 0.0
C2287 C 0.36314 0.08897 0.08097 0.0
C2288 C 0.35541 0.08338 0.08314 0.0
C2289 C 0.35278 0.08205 0.09248 0.0
C2290 C 0.35781 0.08679 0.09955 0.0
C2291 C 0.36552 0.09239 0.09736 0.0
C2292 C 0.37672 0.11054 0.07981 0.0
C2293 C 0.38407 0.11514 0.07531 0.0
C2294 C 0.38267 0.12388 0.07138 0.0
C2295 C 0.37388 0.12821 0.07189 0.0
C2296 C 0.36653 0.12357 0.07648 0.0
C2297 C 0.36796 0.11482 0.08044 0.0
C2298 C 0.38618 0.10124 0.09542 0.0
C2299 C 0.39172 0.09394 0.09868 0.0
C2300 C 0.39732 0.09517 0.10662 0.0
C2301 C 0.39744 0.10373 0.11147 0.0
C2302 C 0.39172 0.11097 0.10824 0.0
C2303 C 0.38609 0.10971 0.10032 0.0
P2304 P 0.12281 0.89177 0.15213 0.0
H2305 H 0.1291 0.90565 0.16569 0.0
H2306 H 0.13923 0.91938 0.16442 0.0
H2307 H 0.13982 0.91565 0.13451 0.0
H2308 H 0.12952 0.90219 0.13581 0.0
H2309 H 0.11404 0.87801 0.16395 0.0
H2310 H 0.10044 0.87836 0.17416 0.0
H2311 H 0.09558 0.90703 0.16673 0.0
H2312 H 0.10919 0.90655 0.15636 0.0
H2313 H 0.13382 0.88188 0.13834 0.0
H2314 H 0.10516 0.89062 0.14136 0.0
O2315 O 0.13057 0.88478 0.1572 0.0
H2316 H 0.12994 0.87455 0.12339 0.0
H2317 H 0.10121 0.88328 0.12634 0.0
C2318 C 0.12852 0.9029 0.15087 0.0
C2319 C 0.13123 0.90794 0.15885 0.0
C2320 C 0.13709 0.91574 0.15811 0.0
C2321 C 0.14043 0.91858 0.14937 0.0
C2322 C 0.13732 0.91375 0.14134 0.0
C2323 C 0.13144 0.90597 0.14209 0.0
C2324 C 0.11274 0.89232 0.15959 0.0
C2325 C 0.11009 0.88439 0.16457 0.0
C2326 C 0.10233 0.88462 0.17043 0.0
C2327 C 0.097 0.89277 0.17137 0.0
C2328 C 0.09954 0.90064 0.16616 0.0
C2329 C 0.10734 0.90041 0.16029 0.0
C2330 C 0.11975 0.88664 0.14102 0.0
C2331 C 0.12669 0.88222 0.13577 0.0
C2332 C 0.12448 0.8781 0.12719 0.0
C2333 C 0.11526 0.87832 0.12369 0.0
C2334 C 0.10834 0.88291 0.12891 0.0
C2335 C 0.11059 0.88711 0.13748 0.0
P2336 P 0.37887 0.90413 0.41381 0.0
H2337 H 0.36451 0.91371 0.42442 0.0
H2338 H 0.3512 0.92331 0.41983 0.0
H2339 H 0.35719 0.91764 0.39084 0.0
H2340 H 0.3703 0.90787 0.3955 0.0
H2341 H 0.38945 0.89218 0.42611 0.0
H2342 H 0.38686 0.87639 0.43177 0.0
H2343 H 0.36025 0.87531 0.41729 0.0
H2344 H 0.36287 0.89119 0.41172 0.0
H2345 H 0.39119 0.91732 0.40454 0.0
H2346 H 0.38385 0.88825 0.40174 0.0
O2347 O 0.38423 0.91052 0.42205 0.0
H2348 H 0.40244 0.91569 0.39181 0.0
H2349 H 0.39504 0.88659 0.38905 0.0
C2350 C 0.36849 0.91024 0.4103 0.0
C2351 C 0.36288 0.91447 0.41708 0.0
C2352 C 0.35532 0.92 0.41444 0.0
C2353 C 0.3532 0.92136 0.40496 0.0
C2354 C 0.35859 0.91671 0.3982 0.0
C2355 C 0.36615 0.91118 0.40086 0.0
C2356 C 0.37628 0.8929 0.41865 0.0
C2357 C 0.38299 0.8886 0.42428 0.0
C2358 C 0.38154 0.87954 0.42743 0.0
C2359 C 0.37335 0.87459 0.42497 0.0
C2360 C 0.36657 0.87898 0.41941 0.0
C2361 C 0.36805 0.88806 0.41622 0.0
C2362 C 0.38684 0.90287 0.40422 0.0
C2363 C 0.39201 0.91059 0.40118 0.0
C2364 C 0.39838 0.90967 0.39388 0.0
C2365 C 0.39968 0.90099 0.38948 0.0
C2366 C 0.39431 0.89332 0.39241 0.0
C2367 C 0.3879 0.89427 0.39967 0.0
P2368 P 0.39985 0.08296 0.63165 0.0
H2369 H 0.41245 0.07335 0.6444 0.0
H2370 H 0.42131 0.07854 0.65813 0.0
H2371 H 0.40857 0.10566 0.65615 0.0
H2372 H 0.39986 0.10045 0.64232 0.0
H2373 H 0.38782 0.07083 0.62053 0.0
H2374 H 0.3717 0.06538 0.62241 0.0
H2375 H 0.37034 0.07959 0.64903 0.0
H2376 H 0.38653 0.08491 0.64715 0.0
H2377 H 0.41347 0.09239 0.61993 0.0
H2378 H 0.38427 0.09535 0.6268 0.0
O2379 O 0.40632 0.07486 0.6264 0.0
H2380 H 0.41251 0.10602 0.60986 0.0
H2381 H 0.38317 0.10876 0.61658 0.0
C2382 C 0.40568 0.08658 0.64224 0.0
C2383 C 0.41154 0.0804 0.64695 0.0
C2384 C 0.41655 0.08336 0.65484 0.0
C2385 C 0.41572 0.09255 0.6582 0.0
C2386 C 0.40951 0.0986 0.65365 0.0
C2387 C 0.40451 0.09563 0.64575 0.0
C2388 C 0.38842 0.07812 0.63376 0.0
C2389 C 0.3841 0.07263 0.62685 0.0
C2390 C 0.37486 0.0696 0.62789 0.0
C2391 C 0.36973 0.07207 0.63586 0.0
C2392 C 0.37414 0.07746 0.64287 0.0
C2393 C 0.3834 0.08052 0.6418 0.0
C2394 C 0.39892 0.09276 0.62396 0.0
C2395 C 0.40683 0.09591 0.61917 0.0
C2396 C 0.40625 0.10368 0.61339 0.0
C2397 C 0.39775 0.10847 0.61237 0.0
C2398 C 0.38985 0.1053 0.61727 0.0
C2399 C 0.39045 0.09755 0.62306 0.0
P2400 P 0.1397 0.11204 0.88337 0.0
H2401 H 0.15363 0.12266 0.89393 0.0
H2402 H 0.15245 0.13398 0.90667 0.0
H2403 H 0.12257 0.12907 0.9078 0.0
H2404 H 0.12388 0.11753 0.89536 0.0
H2405 H 0.14045 0.09517 0.8722 0.0
H2406 H 0.14915 0.08073 0.87379 0.0
H2407 H 0.15935 0.08995 0.90076 0.0
H2408 H 0.15066 0.10445 0.89907 0.0
H2409 H 0.1304 0.12242 0.86865 0.0
H2410 H 0.12403 0.09905 0.88622 0.0
O2411 O 0.14679 0.11744 0.87592 0.0
H2412 H 0.11511 0.12089 0.86115 0.0
H2413 H 0.10853 0.09762 0.87893 0.0
C2414 C 0.13884 0.11934 0.89361 0.0
C2415 C 0.14685 0.12393 0.89703 0.0
C2416 C 0.14615 0.13045 0.90427 0.0
C2417 C 0.13739 0.13256 0.90818 0.0
C2418 C 0.12944 0.1276 0.90501 0.0
C2419 C 0.13017 0.12102 0.89782 0.0
C2420 C 0.14478 0.10084 0.88556 0.0
C2421 C 0.14438 0.09399 0.87855 0.0
C2422 C 0.14935 0.08572 0.87948 0.0
C2423 C 0.15495 0.08417 0.88741 0.0
C2424 C 0.15517 0.09097 0.89454 0.0
C2425 C 0.15014 0.09924 0.8936 0.0
C2426 C 0.1284 0.11073 0.87785 0.0
C2427 C 0.1257 0.11694 0.87089 0.0
C2428 C 0.1169 0.11611 0.86667 0.0
C2429 C 0.11056 0.10913 0.86943 0.0
C2430 C 0.11328 0.10298 0.87652 0.0
C2431 C 0.12212 0.1038 0.88072 0.0
P2432 P 0.87777 0.404 0.91326 0.0
H2433 H 0.86419 0.41455 0.92399 0.0
H2434 H 0.85099 0.42432 0.9195 0.0
H2435 H 0.85541 0.41694 0.8906 0.0
H2436 H 0.86843 0.40698 0.89519 0.0
H2437 H 0.88745 0.39252 0.92674 0.0
H2438 H 0.88478 0.37673 0.93233 0.0
H2439 H 0.85976 0.37467 0.91533 0.0
H2440 H 0.86244 0.39058 0.90984 0.0
H2441 H 0.88774 0.41772 0.90224 0.0
H2442 H 0.88514 0.3878 0.9029 0.0
O2443 O 0.88327 0.41028 0.92149 0.0
H2444 H 0.899 0.41643 0.88949 0.0
H2445 H 0.89631 0.38648 0.89018 0.0
C2446 C 0.86741 0.41023 0.90991 0.0
C2447 C 0.86225 0.41497 0.9167 0.0
C2448 C 0.85474 0.42059 0.91411 0.0
C2449 C 0.85223 0.42154 0.90467 0.0
C2450 C 0.85713 0.41636 0.89793 0.0
C2451 C 0.86463 0.41072 0.90054 0.0
C2452 C 0.87504 0.39277 0.91803 0.0
C2453 C 0.8813 0.38873 0.92433 0.0
C2454 C 0.87982 0.37967 0.92745 0.0
C2455 C 0.87206 0.37444 0.92426 0.0
C2456 C 0.86573 0.37856 0.91801 0.0
C2457 C 0.86725 0.38765 0.91486 0.0
C2458 C 0.88567 0.40288 0.90357 0.0
C2459 C 0.88956 0.41089 0.89961 0.0
C2460 C 0.89595 0.41014 0.8923 0.0
C2461 C 0.89858 0.40135 0.88886 0.0
C2462 C 0.89453 0.39334 0.89277 0.0
C2463 C 0.8881 0.3941 0.90004 0.0
P2464 P 0.90053 0.58272 0.13026 0.0
H2465 H 0.91199 0.57154 0.14271 0.0
H2466 H 0.92106 0.57533 0.15676 0.0
H2467 H 0.91159 0.6038 0.1553 0.0
H2468 H 0.90239 0.59988 0.14139 0.0
H2469 H 0.88756 0.57225 0.11854 0.0
H2470 H 0.87133 0.5672 0.1206 0.0
H2471 H 0.8716 0.5788 0.14848 0.0
H2472 H 0.88788 0.58376 0.14639 0.0
H2473 H 0.91414 0.59196 0.11835 0.0
H2474 H 0.88551 0.59616 0.12673 0.0
O2475 O 0.90655 0.57463 0.12446 0.0
H2476 H 0.91343 0.60596 0.10878 0.0
H2477 H 0.88463 0.60994 0.117 0.0
C2478 C 0.9067 0.58547 0.14091 0.0
C2479 C 0.91186 0.57858 0.14544 0.0
C2480 C 0.91707 0.58077 0.15345 0.0
C2481 C 0.91715 0.5899 0.1571 0.0
C2482 C 0.91166 0.5967 0.15271 0.0
C2483 C 0.90645 0.59449 0.1447 0.0
C2484 C 0.88896 0.57823 0.13236 0.0
C2485 C 0.88417 0.57357 0.12515 0.0
C2486 C 0.87487 0.57077 0.12631 0.0
C2487 C 0.87018 0.57261 0.1347 0.0
C2488 C 0.87506 0.57717 0.14198 0.0
C2489 C 0.88437 0.58002 0.14079 0.0
C2490 C 0.89983 0.59292 0.12309 0.0
C2491 C 0.90767 0.59584 0.11804 0.0
C2492 C 0.90724 0.60382 0.11256 0.0
C2493 C 0.89895 0.60906 0.11207 0.0
C2494 C 0.89115 0.60614 0.11727 0.0
C2495 C 0.89161 0.59818 0.12277 0.0
P2496 P 0.64032 0.61594 0.38235 0.0
H2497 H 0.65407 0.62181 0.39626 0.0
H2498 H 0.65295 0.63159 0.41024 0.0
H2499 H 0.62287 0.63239 0.40682 0.0
H2500 H 0.62403 0.6224 0.39312 0.0
H2501 H 0.6492 0.60519 0.3678 0.0
H2502 H 0.65841 0.59095 0.36781 0.0
H2503 H 0.65444 0.5886 0.39755 0.0
H2504 H 0.64502 0.60281 0.39742 0.0
H2505 H 0.62839 0.62879 0.37241 0.0
H2506 H 0.62746 0.59989 0.38023 0.0
O2507 O 0.64659 0.62325 0.37585 0.0
H2508 H 0.6132 0.62712 0.3647 0.0
H2509 H 0.61232 0.59806 0.37226 0.0
C2510 C 0.63916 0.6214 0.39363 0.0
C2511 C 0.64723 0.62391 0.39867 0.0
C2512 C 0.64658 0.62957 0.40661 0.0
C2513 C 0.63783 0.63289 0.4096 0.0
C2514 C 0.62971 0.62992 0.40479 0.0
C2515 C 0.63038 0.62423 0.39688 0.0
C2516 C 0.64661 0.60514 0.38263 0.0
C2517 C 0.65031 0.6016 0.37432 0.0
C2518 C 0.65561 0.59349 0.37435 0.0
C2519 C 0.6573 0.58872 0.38271 0.0
C2520 C 0.65327 0.59211 0.39099 0.0
C2521 C 0.64794 0.60026 0.39095 0.0
C2522 C 0.62913 0.61442 0.3767 0.0
C2523 C 0.62494 0.62205 0.37237 0.0
C2524 C 0.61627 0.62106 0.36793 0.0
C2525 C 0.6116 0.61241 0.36774 0.0
C2526 C 0.61572 0.60482 0.3723 0.0
C2527 C 0.62441 0.60583 0.37679 0.0
P2528 P 0.89966 0.42098 0.36728 0.0
H2529 H 0.91055 0.43202 0.35422 0.0
H2530 H 0.91916 0.42799 0.34008 0.0
H2531 H 0.90981 0.39944 0.34249 0.0
H2532 H 0.90107 0.40358 0.35649 0.0
H2533 H 0.8873 0.43159 0.37921 0.0
H2534 H 0.871 0.43646 0.37764 0.0
H2535 H 0.86986 0.42421 0.35004 0.0
H2536 H 0.88622 0.41944 0.35164 0.0
H2537 H 0.91384 0.41217 0.37886 0.0
H2538 H 0.88478 0.40751 0.37176 0.0
O2539 O 0.90594 0.42928 0.37267 0.0
H2540 H 0.91349 0.39858 0.38905 0.0
H2541 H 0.8844 0.39393 0.38186 0.0
C2542 C 0.90536 0.41806 0.3565 0.0
C2543 C 0.91033 0.42491 0.35167 0.0
C2544 C 0.91528 0.42258 0.34361 0.0
C2545 C 0.91528 0.41337 0.34021 0.0
C2546 C 0.90994 0.40661 0.34488 0.0
C2547 C 0.90499 0.40895 0.35295 0.0
C2548 C 0.888 0.4253 0.36549 0.0
C2549 C 0.88358 0.43008 0.37277 0.0
C2550 C 0.87424 0.43278 0.37189 0.0
C2551 C 0.86914 0.43071 0.36372 0.0
C2552 C 0.87364 0.42602 0.35637 0.0
C2553 C 0.88299 0.42328 0.35728 0.0
C2554 C 0.89929 0.41097 0.37473 0.0
C2555 C 0.90738 0.40824 0.37953 0.0
C2556 C 0.90719 0.40045 0.38529 0.0
C2557 C 0.89889 0.39523 0.38632 0.0
C2558 C 0.89084 0.39791 0.38136 0.0
C2559 C 0.89106 0.40567 0.37556 0.0
P2560 P 0.60314 0.58212 0.86483 0.0
H2561 H 0.59354 0.57088 0.85071 0.0
H2562 H 0.58434 0.57488 0.8369 0.0
H2563 H 0.59086 0.60399 0.84157 0.0
H2564 H 0.60025 0.59989 0.85518 0.0
H2565 H 0.61535 0.57202 0.87726 0.0
H2566 H 0.63091 0.56536 0.87551 0.0
H2567 H 0.63149 0.57437 0.84684 0.0
H2568 H 0.61597 0.58125 0.84877 0.0
H2569 H 0.58958 0.59168 0.87648 0.0
H2570 H 0.61872 0.59492 0.86937 0.0
O2571 O 0.59644 0.57428 0.8702 0.0
H2572 H 0.59066 0.6054 0.88667 0.0
H2573 H 0.61984 0.60866 0.87949 0.0
C2574 C 0.5974 0.5851 0.85407 0.0
C2575 C 0.59306 0.57811 0.84869 0.0
C2576 C 0.58776 0.58042 0.84083 0.0
C2577 C 0.58674 0.58977 0.8382 0.0
C2578 C 0.59153 0.59671 0.84336 0.0
C2579 C 0.59684 0.59438 0.85121 0.0
C2580 C 0.61446 0.57699 0.86311 0.0
C2581 C 0.61881 0.5725 0.87058 0.0
C2582 C 0.62769 0.56865 0.86955 0.0
C2583 C 0.63243 0.56923 0.861 0.0
C2584 C 0.62806 0.57383 0.85353 0.0
C2585 C 0.61915 0.57771 0.85459 0.0
C2586 C 0.60411 0.59218 0.87234 0.0
C2587 C 0.59622 0.59533 0.87715 0.0
C2588 C 0.59683 0.60321 0.88291 0.0
C2589 C 0.60535 0.60808 0.88393 0.0
C2590 C 0.61322 0.60496 0.87898 0.0
C2591 C 0.61259 0.59711 0.87318 0.0
P2592 P 0.90343 0.64293 0.86787 0.0
H2593 H 0.92352 0.64429 0.86483 0.0
H2594 H 0.93291 0.64649 0.85085 0.0
H2595 H 0.90765 0.65077 0.83476 0.0
H2596 H 0.89829 0.64843 0.84878 0.0
H2597 H 0.8904 0.64531 0.88311 0.0
H2598 H 0.88862 0.65731 0.89504 0.0
H2599 H 0.91042 0.67363 0.88209 0.0
H2600 H 0.91221 0.66149 0.87015 0.0
H2601 H 0.89809 0.62359 0.86433 0.0
H2602 H 0.8849 0.65047 0.86334 0.0
O2603 O 0.90949 0.63514 0.87393 0.0
H2604 H 0.88319 0.61607 0.86043 0.0
H2605 H 0.86994 0.643 0.85925 0.0
C2606 C 0.91021 0.64599 0.8578 0.0
C2607 C 0.92001 0.64579 0.85831 0.0
C2608 C 0.92538 0.64712 0.85031 0.0
C2609 C 0.92103 0.64871 0.84166 0.0
C2610 C 0.9112 0.64939 0.84129 0.0
C2611 C 0.90584 0.64809 0.84931 0.0
C2612 C 0.9013 0.65258 0.87563 0.0
C2613 C 0.89464 0.65157 0.88269 0.0
C2614 C 0.89362 0.65846 0.88951 0.0
C2615 C 0.89934 0.66647 0.88949 0.0
C2616 C 0.90593 0.66753 0.88231 0.0
C2617 C 0.90692 0.66062 0.87545 0.0
C2618 C 0.89253 0.63756 0.86434 0.0
C2619 C 0.89198 0.62788 0.86322 0.0
C2620 C 0.88347 0.62359 0.86091 0.0
C2621 C 0.87535 0.62893 0.85958 0.0
C2622 C 0.87602 0.63868 0.86038 0.0
C2623 C 0.88456 0.64296 0.8627 0.0
P2624 P 0.09605 0.14835 0.63176 0.0
H2625 H 0.07606 0.14963 0.63546 0.0
H2626 H 0.06727 0.15206 0.64978 0.0
H2627 H 0.09311 0.15798 0.6646 0.0
H2628 H 0.10188 0.15533 0.65022 0.0
H2629 H 0.10736 0.14857 0.61514 0.0
H2630 H 0.11008 0.16015 0.60316 0.0
H2631 H 0.09318 0.17984 0.61845 0.0
H2632 H 0.09039 0.16807 0.63044 0.0
H2633 H 0.09912 0.12969 0.63871 0.0
H2634 H 0.11587 0.15413 0.63333 0.0
O2635 O 0.08945 0.14062 0.62592 0.0
H2636 H 0.11322 0.12111 0.64288 0.0
H2637 H 0.13006 0.14556 0.63747 0.0
C2638 C 0.08962 0.15208 0.64185 0.0
C2639 C 0.07982 0.15158 0.64176 0.0
C2640 C 0.07479 0.15304 0.64996 0.0
C2641 C 0.07949 0.1551 0.65838 0.0
C2642 C 0.08929 0.15622 0.65827 0.0
C2643 C 0.09432 0.15475 0.65005 0.0
C2644 C 0.0988 0.1575 0.62373 0.0
C2645 C 0.10438 0.15543 0.61601 0.0
C2646 C 0.10596 0.16209 0.60917 0.0
C2647 C 0.10191 0.17096 0.60987 0.0
C2648 C 0.09638 0.17306 0.6177 0.0
C2649 C 0.09482 0.16637 0.62458 0.0
C2650 C 0.10649 0.14244 0.63545 0.0
C2651 C 0.10584 0.13321 0.63846 0.0
C2652 C 0.1139 0.12835 0.64092 0.0
C2653 C 0.12276 0.13265 0.64044 0.0
C2654 C 0.12334 0.14203 0.63777 0.0
C2655 C 0.11525 0.14692 0.63538 0.0
P2656 P 0.59516 0.35225 0.36923 0.0
H2657 H 0.57519 0.34874 0.36669 0.0
H2658 H 0.56553 0.346 0.3528 0.0
H2659 H 0.59052 0.34483 0.33598 0.0
H2660 H 0.60012 0.34732 0.34993 0.0
H2661 H 0.6097 0.35104 0.3834 0.0
H2662 H 0.61309 0.3397 0.3954 0.0
H2663 H 0.59027 0.3224 0.38525 0.0
H2664 H 0.58722 0.33365 0.3729 0.0
H2665 H 0.59807 0.3717 0.36445 0.0
H2666 H 0.61449 0.34664 0.36499 0.0
O2667 O 0.58861 0.35965 0.37536 0.0
H2668 H 0.61194 0.38068 0.36015 0.0
H2669 H 0.62847 0.35561 0.36071 0.0
C2670 C 0.58835 0.34843 0.3593 0.0
C2671 C 0.57859 0.34774 0.36003 0.0
C2672 C 0.57308 0.34623 0.35207 0.0
C2673 C 0.57724 0.34537 0.34325 0.0
C2674 C 0.58708 0.34544 0.34266 0.0
C2675 C 0.59259 0.34692 0.35064 0.0
C2676 C 0.59838 0.34308 0.37708 0.0
C2677 C 0.6056 0.34468 0.38356 0.0
C2678 C 0.60743 0.33824 0.39054 0.0
C2679 C 0.6019 0.33015 0.39137 0.0
C2680 C 0.59475 0.32848 0.38475 0.0
C2681 C 0.59298 0.33492 0.37768 0.0
C2682 C 0.60533 0.35858 0.36534 0.0
C2683 C 0.60467 0.36813 0.36362 0.0
C2684 C 0.61259 0.37324 0.36107 0.0
C2685 C 0.62132 0.36886 0.36017 0.0
C2686 C 0.62187 0.35919 0.3615 0.0
C2687 C 0.6139 0.35407 0.36396 0.0
P2688 P 0.40195 0.86215 0.13211 0.0
H2689 H 0.42153 0.85764 0.13515 0.0
H2690 H 0.43052 0.85403 0.14921 0.0
H2691 H 0.4049 0.85349 0.1651 0.0
H2692 H 0.39597 0.85687 0.15099 0.0
H2693 H 0.39408 0.86409 0.1137 0.0
H2694 H 0.39237 0.85352 0.10041 0.0
H2695 H 0.40482 0.83145 0.11647 0.0
H2696 H 0.40633 0.8421 0.12988 0.0
H2697 H 0.39691 0.87973 0.14085 0.0
H2698 H 0.38259 0.85496 0.13108 0.0
O2699 O 0.40839 0.87088 0.12792 0.0
H2700 H 0.38189 0.88682 0.14465 0.0
H2701 H 0.36751 0.86198 0.13492 0.0
C2702 C 0.40812 0.85767 0.14206 0.0
C2703 C 0.41785 0.85657 0.14164 0.0
C2704 C 0.42298 0.85457 0.14969 0.0
C2705 C 0.41845 0.85362 0.15832 0.0
C2706 C 0.40861 0.85414 0.15858 0.0
C2707 C 0.40349 0.85614 0.15051 0.0
C2708 C 0.40038 0.85389 0.12273 0.0
C2709 C 0.3964 0.85696 0.11438 0.0
C2710 C 0.39549 0.85093 0.10676 0.0
C2711 C 0.39858 0.84168 0.10733 0.0
C2712 C 0.40235 0.83853 0.11582 0.0
C2713 C 0.40326 0.84462 0.12348 0.0
C2714 C 0.39083 0.86693 0.13547 0.0
C2715 C 0.39052 0.8758 0.13956 0.0
C2716 C 0.38193 0.87981 0.1418 0.0
C2717 C 0.3735 0.87499 0.14002 0.0
C2718 C 0.37387 0.86593 0.13623 0.0
C2719 C 0.38249 0.86191 0.13403 0.0
P2720 P 0.90175 0.36174 0.63038 0.0
H2721 H 0.92072 0.36611 0.63683 0.0
H2722 H 0.92874 0.3638 0.65162 0.0
H2723 H 0.90489 0.34824 0.66169 0.0
H2724 H 0.89679 0.35078 0.64683 0.0
H2725 H 0.88935 0.35981 0.61449 0.0
H2726 H 0.88714 0.34771 0.60272 0.0
H2727 H 0.90694 0.33031 0.61723 0.0
H2728 H 0.90926 0.34265 0.62895 0.0
H2729 H 0.89677 0.38119 0.63338 0.0
H2730 H 0.8831 0.3544 0.63486 0.0
O2731 O 0.90808 0.36937 0.62434 0.0
H2732 H 0.88199 0.38886 0.63689 0.0
H2733 H 0.86828 0.36201 0.63858 0.0
C2734 C 0.90812 0.35871 0.64077 0.0
C2735 C 0.91724 0.36211 0.64216 0.0
C2736 C 0.92186 0.36072 0.65063 0.0
C2737 C 0.91745 0.35587 0.65789 0.0
C2738 C 0.90843 0.35212 0.65631 0.0
C2739 C 0.90381 0.35353 0.6478 0.0
C2740 C 0.89933 0.35207 0.62267 0.0
C2741 C 0.89307 0.35332 0.61525 0.0
C2742 C 0.89179 0.34636 0.60853 0.0
C2743 C 0.89681 0.33798 0.60905 0.0
C2744 C 0.903 0.33669 0.6166 0.0
C2745 C 0.90428 0.3437 0.62335 0.0
C2746 C 0.89096 0.36725 0.63366 0.0
C2747 C 0.89058 0.37695 0.63452 0.0
C2748 C 0.88214 0.38133 0.63661 0.0
C2749 C 0.87392 0.37605 0.63796 0.0
C2750 C 0.87443 0.36628 0.63742 0.0
C2751 C 0.8829 0.36192 0.63533 0.0
P2752 P 0.40379 0.14236 0.36763 0.0
H2753 H 0.42374 0.14539 0.3649 0.0
H2754 H 0.43311 0.14812 0.35099 0.0
H2755 H 0.40775 0.15058 0.33462 0.0
H2756 H 0.39843 0.14771 0.34857 0.0
H2757 H 0.39432 0.14201 0.38531 0.0
H2758 H 0.39172 0.15366 0.39745 0.0
H2759 H 0.40594 0.17427 0.3808 0.0
H2760 H 0.40861 0.16245 0.36867 0.0
H2761 H 0.39931 0.12402 0.36004 0.0
H2762 H 0.38441 0.14919 0.36673 0.0
O2763 O 0.41002 0.13418 0.373 0.0
H2764 H 0.38453 0.1163 0.3559 0.0
H2765 H 0.36958 0.14153 0.36257 0.0
C2766 C 0.41042 0.14615 0.35772 0.0
C2767 C 0.4202 0.14665 0.35834 0.0
C2768 C 0.42555 0.14827 0.35038 0.0
C2769 C 0.42118 0.14945 0.34166 0.0
C2770 C 0.41133 0.14952 0.3412 0.0
C2771 C 0.40599 0.14791 0.34918 0.0
C2772 C 0.40163 0.15137 0.37611 0.0
C2773 C 0.39682 0.14905 0.38425 0.0
C2774 C 0.39528 0.15575 0.39115 0.0
C2775 C 0.39856 0.16492 0.39007 0.0
C2776 C 0.40337 0.16725 0.38186 0.0
C2777 C 0.40487 0.16051 0.37491 0.0
C2778 C 0.39291 0.13707 0.36392 0.0
C2779 C 0.39285 0.12789 0.36058 0.0
C2780 C 0.3844 0.12352 0.35814 0.0
C2781 C 0.37587 0.12828 0.35898 0.0
C2782 C 0.37602 0.13763 0.362 0.0
C2783 C 0.38449 0.14201 0.36438 0.0
P2784 P 0.59645 0.64683 0.13103 0.0
H2785 H 0.57652 0.64518 0.1351 0.0
H2786 H 0.56763 0.6476 0.14933 0.0
H2787 H 0.59224 0.65946 0.16267 0.0
H2788 H 0.60117 0.65673 0.1484 0.0
H2789 H 0.60337 0.64565 0.11223 0.0
H2790 H 0.60616 0.65714 0.10015 0.0
H2791 H 0.59673 0.67893 0.11872 0.0
H2792 H 0.59389 0.66729 0.13086 0.0
H2793 H 0.60057 0.63145 0.14328 0.0
H2794 H 0.61632 0.65206 0.12815 0.0
O2795 O 0.59075 0.63805 0.12576 0.0
H2796 H 0.61515 0.62393 0.14793 0.0
H2797 H 0.63092 0.64456 0.13276 0.0
C2798 C 0.58954 0.6506 0.14078 0.0
C2799 C 0.57997 0.64843 0.14104 0.0
C2800 C 0.57487 0.64989 0.14919 0.0
C2801 C 0.57924 0.65362 0.15721 0.0
C2802 C 0.5887 0.6564 0.15669 0.0
C2803 C 0.59381 0.6549 0.14852 0.0
C2804 C 0.59836 0.65562 0.12239 0.0
C2805 C 0.60189 0.6529 0.11371 0.0
C2806 C 0.60357 0.65949 0.10684 0.0
C2807 C 0.60173 0.66896 0.1085 0.0
C2808 C 0.59817 0.67168 0.11723 0.0
C2809 C 0.59656 0.66505 0.12416 0.0
C2810 C 0.60734 0.64221 0.13526 0.0
C2811 C 0.60718 0.63442 0.14106 0.0
C2812 C 0.61552 0.63017 0.14376 0.0
C2813 C 0.62418 0.63363 0.14066 0.0
C2814 C 0.62434 0.64167 0.13515 0.0
C2815 C 0.61598 0.64596 0.13251 0.0
P2816 P 0.09426 0.85172 0.87044 0.0
H2817 H 0.07441 0.8482 0.86705 0.0
H2818 H 0.06519 0.84623 0.85275 0.0
H2819 H 0.09066 0.84679 0.83661 0.0
H2820 H 0.09982 0.8485 0.85095 0.0
H2821 H 0.10769 0.84965 0.88552 0.0
H2822 H 0.11057 0.83728 0.89665 0.0
H2823 H 0.08991 0.81998 0.88264 0.0
H2824 H 0.08706 0.83245 0.87145 0.0
H2825 H 0.09695 0.87145 0.86694 0.0
H2826 H 0.11388 0.84673 0.86679 0.0
O2827 O 0.08744 0.85849 0.87699 0.0
H2828 H 0.11072 0.88089 0.86341 0.0
H2829 H 0.12782 0.85617 0.86359 0.0
C2830 C 0.08777 0.84869 0.86004 0.0
C2831 C 0.07801 0.84777 0.86043 0.0
C2832 C 0.07275 0.8467 0.85225 0.0
C2833 C 0.07717 0.84652 0.84351 0.0
C2834 C 0.08702 0.84688 0.84321 0.0
C2835 C 0.09227 0.84792 0.85141 0.0
C2836 C 0.09733 0.8419 0.87751 0.0
C2837 C 0.10396 0.8431 0.88466 0.0
C2838 C 0.10561 0.83601 0.89103 0.0
C2839 C 0.10051 0.82761 0.8905 0.0
C2840 C 0.09394 0.82637 0.88324 0.0
C2841 C 0.09235 0.83347 0.8768 0.0
C2842 C 0.10446 0.85845 0.86742 0.0
C2843 C 0.10367 0.86807 0.86622 0.0
C2844 C 0.11156 0.87346 0.86424 0.0
C2845 C 0.12042 0.86932 0.8634 0.0
C2846 C 0.12111 0.85959 0.8642 0.0
C2847 C 0.11317 0.85419 0.86612 0.0
P2848 P 0.83586 0.87509 0.67251 0.0
H2849 H 0.84232 0.8787 0.69154 0.0
H2850 H 0.85787 0.88143 0.6983 0.0
H2851 H 0.86987 0.88074 0.67072 0.0
H2852 H 0.85428 0.87813 0.66401 0.0
H2853 H 0.8159 0.87836 0.67091 0.0
H2854 H 0.8067 0.89174 0.66604 0.0
H2855 H 0.83222 0.90736 0.6615 0.0
H2856 H 0.8414 0.89384 0.6663 0.0
H2857 H 0.83763 0.85495 0.67128 0.0
H2858 H 0.83745 0.87808 0.65233 0.0
O2859 O 0.82977 0.86953 0.68069 0.0
H2860 H 0.83984 0.8442 0.6582 0.0
H2861 H 0.83955 0.86735 0.63917 0.0
C2862 C 0.84719 0.87802 0.6773 0.0
C2863 C 0.8483 0.87918 0.68694 0.0
C2864 C 0.85719 0.8807 0.6908 0.0
C2865 C 0.86512 0.88118 0.68506 0.0
C2866 C 0.86391 0.88044 0.67534 0.0
C2867 C 0.855 0.87888 0.67149 0.0
C2868 C 0.82931 0.88519 0.66916 0.0
C2869 C 0.81952 0.88469 0.66895 0.0
C2870 C 0.81427 0.89236 0.66619 0.0
C2871 C 0.81872 0.90066 0.66349 0.0
C2872 C 0.82858 0.90107 0.66353 0.0
C2873 C 0.83383 0.89338 0.66634 0.0
C2874 C 0.83718 0.86728 0.66275 0.0
C2875 C 0.83796 0.8577 0.66428 0.0
C2876 C 0.83919 0.85156 0.6568 0.0
C2877 C 0.83978 0.85492 0.64764 0.0
C2878 C 0.83915 0.86456 0.64615 0.0
C2879 C 0.83787 0.87069 0.65365 0.0
P2880 P 0.86715 0.13558 0.38644 0.0
H2881 H 0.86299 0.13948 0.40586 0.0
H2882 H 0.86032 0.15394 0.41448 0.0
H2883 H 0.86046 0.16913 0.3886 0.0
H2884 H 0.86326 0.15463 0.38005 0.0
H2885 H 0.86752 0.11642 0.3803 0.0
H2886 H 0.85558 0.10428 0.37886 0.0
H2887 H 0.83458 0.12373 0.38819 0.0
H2888 H 0.84668 0.13587 0.38972 0.0
H2889 H 0.88523 0.14324 0.3812 0.0
H2890 H 0.86004 0.1339 0.36717 0.0
O2891 O 0.87555 0.13082 0.39294 0.0
H2892 H 0.89271 0.14581 0.36615 0.0
H2893 H 0.86746 0.1365 0.35207 0.0
C2894 C 0.8635 0.14602 0.39236 0.0
C2895 C 0.86231 0.14591 0.40204 0.0
C2896 C 0.86073 0.15419 0.40695 0.0
C2897 C 0.86028 0.16272 0.40223 0.0
C2898 C 0.86094 0.1627 0.39245 0.0
C2899 C 0.86251 0.15441 0.38755 0.0
C2900 C 0.858 0.12699 0.38518 0.0
C2901 C 0.86034 0.11808 0.38201 0.0
C2902 C 0.85348 0.11117 0.38112 0.0
C2903 C 0.84411 0.11304 0.38337 0.0
C2904 C 0.84175 0.12205 0.38647 0.0
C2905 C 0.84865 0.129 0.38733 0.0
C2906 C 0.87218 0.13817 0.37528 0.0
C2907 C 0.8813 0.14179 0.37486 0.0
C2908 C 0.88553 0.14333 0.36626 0.0
C2909 C 0.8807 0.14129 0.35791 0.0
C2910 C 0.87141 0.138 0.35837 0.0
C2911 C 0.86717 0.13651 0.367 0.0
P2912 P 0.66067 0.12685 0.17341 0.0
H2913 H 0.65118 0.12986 0.19115 0.0
H2914 H 0.63528 0.12656 0.19634 0.0
H2915 H 0.62922 0.11303 0.16994 0.0
H2916 H 0.64529 0.11614 0.1649 0.0
H2917 H 0.67596 0.1269 0.16017 0.0
H2918 H 0.68609 0.11476 0.15407 0.0
H2919 H 0.67109 0.09427 0.17017 0.0
H2920 H 0.66075 0.10651 0.17609 0.0
H2921 H 0.66101 0.14722 0.17426 0.0
H2922 H 0.65541 0.12579 0.15372 0.0
O2923 O 0.66696 0.13146 0.18215 0.0
H2924 H 0.65806 0.15916 0.16258 0.0
H2925 H 0.65262 0.13767 0.14194 0.0
C2926 C 0.64943 0.12317 0.17767 0.0
C2927 C 0.6465 0.12603 0.18654 0.0
C2928 C 0.63736 0.12421 0.18946 0.0
C2929 C 0.63094 0.1196 0.18353 0.0
C2930 C 0.63401 0.11651 0.17473 0.0
C2931 C 0.64318 0.11831 0.17182 0.0
C2932 C 0.66746 0.11758 0.1684 0.0
C2933 C 0.67472 0.11977 0.16227 0.0
C2934 C 0.68059 0.11283 0.15887 0.0
C2935 C 0.67943 0.10354 0.16167 0.0
C2936 C 0.67209 0.10133 0.16779 0.0
C2937 C 0.66619 0.10833 0.17119 0.0
C2938 C 0.65859 0.13564 0.16479 0.0
C2939 C 0.65923 0.14509 0.16721 0.0
C2940 C 0.65757 0.15191 0.16051 0.0
C2941 C 0.65517 0.14937 0.1513 0.0
C2942 C 0.65438 0.13986 0.14898 0.0
C2943 C 0.65603 0.13306 0.15568 0.0
P2944 P 0.65982 0.84562 0.86915 0.0
H2945 H 0.67913 0.85255 0.86984 0.0
H2946 H 0.68589 0.86793 0.87305 0.0
H2947 H 0.65819 0.8787 0.87823 0.0
H2948 H 0.65151 0.86325 0.87516 0.0
H2949 H 0.65249 0.82692 0.87099 0.0
H2950 H 0.64789 0.81756 0.88436 0.0
H2951 H 0.65531 0.8404 0.90284 0.0
H2952 H 0.66005 0.84966 0.88941 0.0
H2953 H 0.65747 0.84766 0.84905 0.0
H2954 H 0.63988 0.84768 0.87338 0.0
O2955 O 0.66763 0.83949 0.8631 0.0
H2956 H 0.64373 0.8502 0.83915 0.0
H2957 H 0.62609 0.85005 0.86353 0.0
C2958 C 0.66481 0.85681 0.8721 0.0
C2959 C 0.67451 0.85821 0.87169 0.0
C2960 C 0.67837 0.86702 0.87349 0.0
C2961 C 0.67257 0.87456 0.8758 0.0
C2962 C 0.66286 0.87303 0.87652 0.0
C2963 C 0.65902 0.86422 0.8747 0.0
C2964 C 0.65663 0.83895 0.87921 0.0
C2965 C 0.65314 0.82989 0.87793 0.0
C2966 C 0.65045 0.82459 0.88558 0.0
C2967 C 0.6512 0.82825 0.89467 0.0
C2968 C 0.65473 0.83735 0.89593 0.0
C2969 C 0.65741 0.84266 0.88825 0.0
C2970 C 0.64965 0.84729 0.86191 0.0
C2971 C 0.65063 0.84811 0.85224 0.0
C2972 C 0.64277 0.84954 0.84659 0.0
C2973 C 0.6338 0.85026 0.85054 0.0
C2974 C 0.6329 0.84958 0.86027 0.0
C2975 C 0.64076 0.84814 0.86591 0.0
P2976 P 0.85578 0.10372 0.85593 0.0
H2977 H 0.85245 0.08385 0.85325 0.0
H2978 H 0.83815 0.07457 0.85134 0.0
H2979 H 0.82188 0.09982 0.85056 0.0
H2980 H 0.83622 0.10902 0.85218 0.0
H2981 H 0.86942 0.11847 0.85269 0.0
H2982 H 0.88053 0.12132 0.84027 0.0
H2983 H 0.86983 0.09723 0.82529 0.0
H2984 H 0.85835 0.0947 0.83763 0.0
H2985 H 0.85453 0.10779 0.87584 0.0
H2986 H 0.84997 0.12238 0.85009 0.0
O2987 O 0.86241 0.09719 0.86288 0.0
H2988 H 0.85143 0.12203 0.88464 0.0
H2989 H 0.8467 0.13669 0.85887 0.0
C2990 C 0.84538 0.09711 0.85305 0.0
C2991 C 0.84581 0.08738 0.85254 0.0
C2992 C 0.83762 0.08209 0.85151 0.0
C2993 C 0.82884 0.08644 0.85095 0.0
C2994 C 0.82852 0.09623 0.85093 0.0
C2995 C 0.83673 0.10152 0.85193 0.0
C2996 C 0.86286 0.10653 0.84599 0.0
C2997 C 0.86924 0.11396 0.84661 0.0
C2998 C 0.87571 0.1155 0.83954 0.0
C2999 C 0.87615 0.10945 0.8318 0.0
C3000 C 0.86962 0.10209 0.83109 0.0
C3001 C 0.86305 0.10062 0.83816 0.0
C3002 C 0.85271 0.1141 0.86232 0.0
C3003 C 0.85281 0.11406 0.87208 0.0
C3004 C 0.85095 0.1222 0.87711 0.0
C3005 C 0.84887 0.13052 0.87245 0.0
C3006 C 0.84843 0.13044 0.86265 0.0
C3007 C 0.85027 0.12227 0.85763 0.0
P3008 P 0.66271 0.15393 0.63325 0.0
H3009 H 0.68133 0.14605 0.63042 0.0
H3010 H 0.68664 0.13027 0.6268 0.0
H3011 H 0.65785 0.1211 0.62425 0.0
H3012 H 0.6526 0.13689 0.62789 0.0
H3013 H 0.67068 0.17115 0.62579 0.0
H3014 H 0.66626 0.18096 0.61271 0.0
H3015 H 0.64418 0.16149 0.6053 0.0
H3016 H 0.64858 0.15176 0.61855 0.0
H3017 H 0.6579 0.14067 0.64779 0.0
H3018 H 0.6458 0.16526 0.63575 0.0
O3019 O 0.67127 0.15916 0.63934 0.0
H3020 H 0.64436 0.13907 0.65801 0.0
H3021 H 0.6322 0.16365 0.64589 0.0
C3022 C 0.66658 0.14257 0.62964 0.0
C3023 C 0.67616 0.14065 0.62903 0.0
C3024 C 0.67919 0.13165 0.6269 0.0
C3025 C 0.67266 0.12442 0.62535 0.0
C3026 C 0.66305 0.12649 0.62558 0.0
C3027 C 0.66004 0.13551 0.62762 0.0
C3028 C 0.65994 0.16074 0.62314 0.0
C3029 C 0.66494 0.16894 0.62132 0.0
C3030 C 0.66243 0.17453 0.61379 0.0
C3031 C 0.65486 0.17202 0.60796 0.0
C3032 C 0.64998 0.16368 0.60972 0.0
C3033 C 0.65252 0.15808 0.61724 0.0
C3034 C 0.65272 0.1529 0.64079 0.0
C3035 C 0.65228 0.14567 0.64727 0.0
C3036 C 0.64454 0.14476 0.65311 0.0
C3037 C 0.63716 0.15117 0.65268 0.0
C3038 C 0.63778 0.1586 0.64639 0.0
C3039 C 0.64551 0.15948 0.64052 0.0
P3040 P 0.65888 0.87418 0.32979 0.0
H3041 H 0.65271 0.87698 0.31054 0.0
H3042 H 0.63739 0.88018 0.30362 0.0
H3043 H 0.62541 0.88201 0.33117 0.0
H3044 H 0.6408 0.87896 0.33802 0.0
H3045 H 0.67896 0.8771 0.33162 0.0
H3046 H 0.68852 0.89022 0.33711 0.0
H3047 H 0.66345 0.90615 0.34201 0.0
H3048 H 0.65391 0.89298 0.33647 0.0
H3049 H 0.64616 0.85844 0.33182 0.0
H3050 H 0.66735 0.87232 0.34852 0.0
O3051 O 0.66491 0.86836 0.32171 0.0
H3052 H 0.64355 0.84729 0.34433 0.0
H3053 H 0.66477 0.86119 0.36103 0.0
C3054 C 0.64784 0.87757 0.32478 0.0
C3055 C 0.6468 0.87814 0.31509 0.0
C3056 C 0.63803 0.87992 0.31114 0.0
C3057 C 0.63015 0.88124 0.31684 0.0
C3058 C 0.63133 0.88108 0.32658 0.0
C3059 C 0.64011 0.87928 0.33051 0.0
C3060 C 0.66574 0.88412 0.33347 0.0
C3061 C 0.67552 0.88344 0.3338 0.0
C3062 C 0.68098 0.89092 0.33702 0.0
C3063 C 0.67674 0.89922 0.33999 0.0
C3064 C 0.66692 0.89988 0.33966 0.0
C3065 C 0.66146 0.89235 0.3365 0.0
C3066 C 0.65682 0.86632 0.33928 0.0
C3067 C 0.65018 0.85916 0.33822 0.0
C3068 C 0.64868 0.8528 0.34537 0.0
C3069 C 0.65392 0.8534 0.35368 0.0
C3070 C 0.66066 0.86053 0.35469 0.0
C3071 C 0.66209 0.86694 0.34755 0.0
P3072 P 0.8624 0.86781 0.10816 0.0
H3073 H 0.85504 0.86516 0.08942 0.0
H3074 H 0.85191 0.85124 0.07995 0.0
H3075 H 0.8584 0.834 0.10365 0.0
H3076 H 0.86123 0.84794 0.11311 0.0
H3077 H 0.86246 0.88715 0.11382 0.0
H3078 H 0.85009 0.8983 0.11709 0.0
H3079 H 0.82926 0.87685 0.11199 0.0
H3080 H 0.84178 0.86571 0.1086 0.0
H3081 H 0.88041 0.85897 0.11064 0.0
H3082 H 0.85874 0.86998 0.12833 0.0
O3083 O 0.86973 0.87349 0.10116 0.0
H3084 H 0.89003 0.85574 0.12435 0.0
H3085 H 0.86846 0.86708 0.14206 0.0
C3086 C 0.85852 0.85757 0.1019 0.0
C3087 C 0.85563 0.85837 0.0926 0.0
C3088 C 0.85391 0.85041 0.08719 0.0
C3089 C 0.85505 0.84149 0.09099 0.0
C3090 C 0.85741 0.84075 0.1005 0.0
C3091 C 0.85911 0.84873 0.10591 0.0
C3092 C 0.85302 0.87567 0.11085 0.0
C3093 C 0.85523 0.88485 0.11341 0.0
C3094 C 0.84814 0.89119 0.11536 0.0
C3095 C 0.83868 0.88846 0.11482 0.0
C3096 C 0.83648 0.87918 0.11238 0.0
C3097 C 0.84362 0.87281 0.11046 0.0
C3098 C 0.86895 0.86485 0.11846 0.0
C3099 C 0.87773 0.8607 0.11749 0.0
C3100 C 0.88324 0.8589 0.12533 0.0
C3101 C 0.88008 0.86127 0.13431 0.0
C3102 C 0.87109 0.86512 0.13527 0.0
C3103 C 0.86556 0.86687 0.1274 0.0
P3104 P 0.16194 0.65361 0.13158 0.0
H3105 H 0.18029 0.64644 0.12643 0.0
H3106 H 0.18585 0.63085 0.12243 0.0
H3107 H 0.15762 0.62015 0.12506 0.0
H3108 H 0.15212 0.63576 0.12874 0.0
H3109 H 0.1532 0.6717 0.13071 0.0
H3110 H 0.14851 0.68168 0.11783 0.0
H3111 H 0.15858 0.66118 0.09816 0.0
H3112 H 0.16332 0.65123 0.11112 0.0
H3113 H 0.1609 0.65221 0.15187 0.0
H3114 H 0.14168 0.65221 0.12859 0.0
O3115 O 0.17071 0.65909 0.13713 0.0
H3116 H 0.14775 0.65072 0.16263 0.0
H3117 H 0.12851 0.65052 0.13925 0.0
C3118 C 0.16584 0.64222 0.12808 0.0
C3119 C 0.17531 0.64073 0.12611 0.0
C3120 C 0.17848 0.6318 0.12386 0.0
C3121 C 0.1722 0.62421 0.12352 0.0
C3122 C 0.16264 0.62583 0.12519 0.0
C3123 C 0.15949 0.63476 0.12739 0.0
C3124 C 0.15851 0.6607 0.12187 0.0
C3125 C 0.15436 0.66934 0.12362 0.0
C3126 C 0.15164 0.67501 0.11625 0.0
C3127 C 0.1531 0.67218 0.10697 0.0
C3128 C 0.15739 0.66356 0.10524 0.0
C3129 C 0.16007 0.65785 0.11264 0.0
C3130 C 0.15224 0.65253 0.13947 0.0
C3131 C 0.15384 0.65192 0.14908 0.0
C3132 C 0.14632 0.65099 0.15521 0.0
C3133 C 0.13706 0.65057 0.15181 0.0
C3134 C 0.13553 0.65102 0.14213 0.0
C3135 C 0.14305 0.65196 0.13602 0.0
P3136 P 0.15916 0.3745 0.8293 0.0
H3137 H 0.15073 0.39031 0.81957 0.0
H3138 H 0.13491 0.39292 0.81344 0.0
H3139 H 0.12586 0.36675 0.82508 0.0
H3140 H 0.1416 0.36414 0.83105 0.0
H3141 H 0.17884 0.3791 0.82698 0.0
H3142 H 0.18859 0.39209 0.83231 0.0
H3143 H 0.16435 0.40499 0.84472 0.0
H3144 H 0.15463 0.39181 0.83942 0.0
H3145 H 0.16396 0.35477 0.83067 0.0
H3146 H 0.15385 0.37649 0.84885 0.0
O3147 O 0.16422 0.36949 0.8201 0.0
H3148 H 0.1627 0.34359 0.84331 0.0
H3149 H 0.15278 0.36539 0.86163 0.0
C3150 C 0.1473 0.37715 0.82596 0.0
C3151 C 0.14529 0.38524 0.82096 0.0
C3152 C 0.13625 0.38672 0.81745 0.0
C3153 C 0.12914 0.38003 0.81876 0.0
C3154 C 0.13119 0.37199 0.82388 0.0
C3155 C 0.14019 0.37055 0.82739 0.0
C3156 C 0.16598 0.38459 0.83263 0.0
C3157 C 0.17559 0.38478 0.83072 0.0
C3158 C 0.18115 0.39225 0.83376 0.0
C3159 C 0.17724 0.39964 0.83887 0.0
C3160 C 0.16759 0.3994 0.84082 0.0
C3161 C 0.16201 0.39191 0.83774 0.0
C3162 C 0.1591 0.36648 0.83886 0.0
C3163 C 0.16162 0.35717 0.83743 0.0
C3164 C 0.16092 0.35078 0.84469 0.0
C3165 C 0.15765 0.35359 0.8535 0.0
C3166 C 0.15524 0.36297 0.85491 0.0
C3167 C 0.15593 0.36935 0.84764 0.0
P3168 P 0.36371 0.36821 0.60785 0.0
H3169 H 0.35456 0.36484 0.59 0.0
H3170 H 0.3517 0.35065 0.58084 0.0
H3171 H 0.36239 0.3342 0.60357 0.0
H3172 H 0.36502 0.34835 0.61274 0.0
H3173 H 0.36362 0.38781 0.61248 0.0
H3174 H 0.35117 0.39896 0.61543 0.0
H3175 H 0.33051 0.37713 0.61144 0.0
H3176 H 0.34309 0.36598 0.60838 0.0
H3177 H 0.38305 0.36327 0.61163 0.0
H3178 H 0.35791 0.36775 0.6275 0.0
O3179 O 0.37114 0.3736 0.60071 0.0
H3180 H 0.39188 0.36087 0.62603 0.0
H3181 H 0.36674 0.36558 0.64199 0.0
C3182 C 0.36003 0.35766 0.60202 0.0
C3183 C 0.35611 0.35815 0.59307 0.0
C3184 C 0.35455 0.35005 0.58782 0.0
C3185 C 0.35692 0.34129 0.59143 0.0
C3186 C 0.36042 0.34081 0.6006 0.0
C3187 C 0.36197 0.34893 0.60585 0.0
C3188 C 0.35427 0.37613 0.61006 0.0
C3189 C 0.35641 0.38542 0.61222 0.0
C3190 C 0.34928 0.39177 0.61399 0.0
C3191 C 0.33984 0.38893 0.61369 0.0
C3192 C 0.33771 0.37955 0.61162 0.0
C3193 C 0.34489 0.37318 0.60988 0.0
C3194 C 0.3699 0.36592 0.61852 0.0
C3195 C 0.37945 0.36377 0.61823 0.0
C3196 C 0.38448 0.36244 0.62647 0.0
C3197 C 0.38004 0.36319 0.63517 0.0
C3198 C 0.37036 0.36494 0.63541 0.0
C3199 C 0.36532 0.36626 0.62713 0.0
P3200 P 0.16029 0.62738 0.67288 0.0
H3201 H 0.15241 0.6255 0.69156 0.0
H3202 H 0.13669 0.62167 0.69706 0.0
H3203 H 0.12765 0.61689 0.66862 0.0
H3204 H 0.14341 0.62064 0.66318 0.0
H3205 H 0.17857 0.62111 0.67951 0.0
H3206 H 0.18888 0.60861 0.67454 0.0
H3207 H 0.16817 0.59955 0.65427 0.0
H3208 H 0.15796 0.6123 0.65914 0.0
H3209 H 0.14608 0.64119 0.66843 0.0
H3210 H 0.17157 0.63094 0.6562 0.0
O3211 O 0.16556 0.6335 0.68136 0.0
H3212 H 0.14428 0.65211 0.65561 0.0
H3213 H 0.16978 0.64182 0.6433 0.0
C3214 C 0.14903 0.62347 0.67696 0.0
C3215 C 0.14707 0.62355 0.68651 0.0
C3216 C 0.13807 0.6214 0.68965 0.0
C3217 C 0.13089 0.61907 0.68327 0.0
C3218 C 0.13302 0.61859 0.67372 0.0
C3219 C 0.14203 0.62076 0.67059 0.0
C3220 C 0.16747 0.6176 0.66974 0.0
C3221 C 0.17619 0.6164 0.67406 0.0
C3222 C 0.18208 0.60919 0.67124 0.0
C3223 C 0.17935 0.60304 0.66402 0.0
C3224 C 0.17052 0.6042 0.65979 0.0
C3225 C 0.16464 0.61144 0.66262 0.0
C3226 C 0.1588 0.63505 0.66313 0.0
C3227 C 0.15121 0.64117 0.66291 0.0
C3228 C 0.15018 0.64741 0.65557 0.0
C3229 C 0.15684 0.64776 0.6484 0.0
C3230 C 0.16454 0.64172 0.64873 0.0
C3231 C 0.16553 0.63544 0.65606 0.0
P3232 P 0.33652 0.37592 0.17124 0.0
H3233 H 0.34272 0.37733 0.19066 0.0
H3234 H 0.35807 0.38002 0.19784 0.0
H3235 H 0.37012 0.38377 0.17055 0.0
H3236 H 0.35469 0.38124 0.16344 0.0
H3237 H 0.31872 0.37735 0.1617 0.0
H3238 H 0.30932 0.39051 0.15658 0.0
H3239 H 0.33062 0.4095 0.16697 0.0
H3240 H 0.34006 0.39625 0.17196 0.0
H3241 H 0.3384 0.35575 0.17053 0.0
H3242 H 0.33953 0.37854 0.1512 0.0
O3243 O 0.32989 0.37055 0.17911 0.0
H3244 H 0.34136 0.34476 0.15781 0.0
H3245 H 0.34267 0.36761 0.13845 0.0
C3246 C 0.34761 0.37892 0.17651 0.0
C3247 C 0.34865 0.3788 0.18622 0.0
C3248 C 0.35744 0.38029 0.19032 0.0
C3249 C 0.36535 0.38199 0.18476 0.0
C3250 C 0.36418 0.38252 0.17504 0.0
C3251 C 0.35537 0.38102 0.17095 0.0
C3252 C 0.33007 0.38582 0.16718 0.0
C3253 C 0.32138 0.38435 0.16283 0.0
C3254 C 0.31599 0.39188 0.15997 0.0
C3255 C 0.31919 0.40106 0.16143 0.0
C3256 C 0.328 0.40252 0.16568 0.0
C3257 C 0.33339 0.39494 0.16857 0.0
C3258 C 0.33854 0.36792 0.16176 0.0
C3259 C 0.33925 0.35838 0.16353 0.0
C3260 C 0.34103 0.35211 0.15626 0.0
C3261 C 0.34222 0.3553 0.1471 0.0
C3262 C 0.34162 0.36491 0.14539 0.0
C3263 C 0.33984 0.37117 0.15268 0.0
P3264 P 0.63895 0.38818 0.11949 0.0
H3265 H 0.65192 0.3761 0.10963 0.0
H3266 H 0.64986 0.36534 0.09649 0.0
H3267 H 0.62168 0.37538 0.09243 0.0
H3268 H 0.62378 0.38608 0.10563 0.0
H3269 H 0.64615 0.40123 0.13322 0.0
H3270 H 0.65539 0.41553 0.13218 0.0
H3271 H 0.65487 0.41324 0.10212 0.0
H3272 H 0.64569 0.39882 0.10325 0.0
H3273 H 0.62545 0.37545 0.12747 0.0
H3274 H 0.62717 0.40486 0.12191 0.0
O3275 O 0.6449 0.38165 0.127 0.0
H3276 H 0.61001 0.37757 0.1344 0.0
H3277 H 0.6117 0.40705 0.12884 0.0
C3278 C 0.63793 0.3817 0.10874 0.0
C3279 C 0.64535 0.37608 0.10582 0.0
C3280 C 0.64418 0.36998 0.09826 0.0
C3281 C 0.63555 0.36942 0.09349 0.0
C3282 C 0.62834 0.37553 0.09607 0.0
C3283 C 0.62954 0.38166 0.10361 0.0
C3284 C 0.64531 0.39895 0.11833 0.0
C3285 C 0.648 0.40383 0.12641 0.0
C3286 C 0.65323 0.41204 0.12579 0.0
C3287 C 0.65586 0.41554 0.11706 0.0
C3288 C 0.65303 0.41068 0.10895 0.0
C3289 C 0.64776 0.40245 0.10958 0.0
C3290 C 0.62751 0.39001 0.12435 0.0
C3291 C 0.62249 0.38236 0.12775 0.0
C3292 C 0.61364 0.38358 0.13163 0.0
C3293 C 0.60965 0.39249 0.13219 0.0
C3294 C 0.61465 0.40012 0.12862 0.0
C3295 C 0.62349 0.39888 0.12466 0.0
P3296 P 0.87882 0.59999 0.58491 0.0
H3297 H 0.86834 0.58583 0.57448 0.0
H3298 H 0.85531 0.57558 0.5786 0.0
H3299 H 0.85385 0.58887 0.60569 0.0
H3300 H 0.86674 0.59925 0.6014 0.0
H3301 H 0.88315 0.60884 0.56714 0.0
H3302 H 0.87977 0.6242 0.56093 0.0
H3303 H 0.86364 0.63067 0.58552 0.0
H3304 H 0.86718 0.61524 0.59176 0.0
H3305 H 0.88457 0.58773 0.59996 0.0
H3306 H 0.88943 0.61624 0.592 0.0
O3307 O 0.88521 0.59405 0.57722 0.0
H3308 H 0.89468 0.58999 0.61362 0.0
H3309 H 0.89962 0.61851 0.60554 0.0
C3310 C 0.86864 0.59313 0.58772 0.0
C3311 C 0.86518 0.58657 0.58129 0.0
C3312 C 0.85775 0.58068 0.58367 0.0
C3313 C 0.85363 0.58129 0.59254 0.0
C3314 C 0.85684 0.58822 0.5988 0.0
C3315 C 0.86426 0.59412 0.59639 0.0
C3316 C 0.87537 0.6109 0.57989 0.0
C3317 C 0.87878 0.6135 0.57115 0.0
C3318 C 0.87681 0.62229 0.56758 0.0
C3319 C 0.87143 0.62867 0.57272 0.0
C3320 C 0.86787 0.62595 0.58142 0.0
C3321 C 0.86982 0.61712 0.58497 0.0
C3322 C 0.88603 0.60187 0.59511 0.0
C3323 C 0.88775 0.5945 0.6012 0.0
C3324 C 0.8936 0.59578 0.60895 0.0
C3325 C 0.89791 0.60445 0.6107 0.0
C3326 C 0.89626 0.6118 0.60449 0.0
C3327 C 0.89042 0.6105 0.59673 0.0
P3328 P 0.62062 0.39251 0.65274 0.0
H3329 H 0.63284 0.40323 0.66515 0.0
H3330 H 0.64367 0.41616 0.66246 0.0
H3331 H 0.63353 0.41819 0.63412 0.0
H3332 H 0.62277 0.40519 0.63684 0.0
H3333 H 0.6068 0.37925 0.65902 0.0
H3334 H 0.59266 0.38064 0.66838 0.0
H3335 H 0.59682 0.41043 0.67009 0.0
H3336 H 0.61108 0.40896 0.66076 0.0
H3337 H 0.63244 0.38197 0.64014 0.0
H3338 H 0.60379 0.39125 0.64076 0.0
O3339 O 0.62736 0.38532 0.65886 0.0
H3340 H 0.62945 0.37401 0.62528 0.0
H3341 H 0.60074 0.38331 0.62588 0.0
C3342 C 0.62717 0.40313 0.65115 0.0
C3343 C 0.63285 0.40656 0.6584 0.0
C3344 C 0.639 0.41399 0.65687 0.0
C3345 C 0.63955 0.41813 0.64803 0.0
C3346 C 0.63339 0.41504 0.64095 0.0
C3347 C 0.62722 0.40762 0.64251 0.0
C3348 C 0.60997 0.39399 0.6592 0.0
C3349 C 0.60463 0.38609 0.66137 0.0
C3350 C 0.59652 0.38691 0.66667 0.0
C3351 C 0.59358 0.39566 0.66996 0.0
C3352 C 0.59893 0.40359 0.66772 0.0
C3353 C 0.60706 0.40276 0.66236 0.0
C3354 C 0.61829 0.387 0.64165 0.0
C3355 C 0.6255 0.38229 0.63707 0.0
C3356 C 0.6238 0.37781 0.62854 0.0
C3357 C 0.61484 0.37799 0.62443 0.0
C3358 C 0.60768 0.38293 0.62894 0.0
C3359 C 0.60941 0.38747 0.63745 0.0
P3360 P 0.36759 0.63372 0.88903 0.0
H3361 H 0.36091 0.63612 0.90796 0.0
H3362 H 0.35795 0.6499 0.91759 0.0
H3363 H 0.36364 0.66744 0.89393 0.0
H3364 H 0.36631 0.65364 0.88432 0.0
H3365 H 0.36818 0.61475 0.8823 0.0
H3366 H 0.35636 0.60253 0.88044 0.0
H3367 H 0.33522 0.62136 0.89069 0.0
H3368 H 0.3471 0.63367 0.89224 0.0
H3369 H 0.38574 0.64123 0.8838 0.0
H3370 H 0.36011 0.63308 0.86985 0.0
O3371 O 0.3761 0.62883 0.89528 0.0
H3372 H 0.39302 0.6443 0.86876 0.0
H3373 H 0.36734 0.63618 0.85474 0.0
C3374 C 0.36388 0.64385 0.89546 0.0
C3375 C 0.36134 0.64293 0.90482 0.0
C3376 C 0.35973 0.65082 0.91033 0.0
C3377 C 0.36068 0.65979 0.90657 0.0
C3378 C 0.36279 0.66065 0.89704 0.0
C3379 C 0.36437 0.65274 0.89153 0.0
C3380 C 0.35854 0.62505 0.88753 0.0
C3381 C 0.36099 0.61624 0.88414 0.0
C3382 C 0.35423 0.60925 0.88313 0.0
C3383 C 0.34485 0.61091 0.88555 0.0
C3384 C 0.34237 0.61985 0.88874 0.0
C3385 C 0.34917 0.62688 0.8897 0.0
C3386 C 0.37248 0.63673 0.87791 0.0
C3387 C 0.38167 0.64016 0.87749 0.0
C3388 C 0.38579 0.64198 0.86889 0.0
C3389 C 0.38078 0.64042 0.86055 0.0
C3390 C 0.37143 0.63731 0.86104 0.0
C3391 C 0.36729 0.63555 0.86966 0.0
P3392 P 0.15914 0.34483 0.36737 0.0
H3393 H 0.17455 0.35192 0.37884 0.0
H3394 H 0.1802 0.36771 0.38244 0.0
H3395 H 0.15708 0.37905 0.36677 0.0
H3396 H 0.15154 0.36337 0.36315 0.0
H3397 H 0.15884 0.3248 0.36965 0.0
H3398 H 0.155 0.31474 0.38273 0.0
H3399 H 0.15017 0.33903 0.4 0.0
H3400 H 0.15379 0.34904 0.38676 0.0
H3401 H 0.15685 0.34627 0.34722 0.0
H3402 H 0.13901 0.34441 0.37129 0.0
O3403 O 0.16795 0.34009 0.36144 0.0
H3404 H 0.14307 0.34762 0.33715 0.0
H3405 H 0.12519 0.34551 0.36126 0.0
C3406 C 0.16265 0.35645 0.37072 0.0
C3407 C 0.17067 0.35783 0.37626 0.0
C3408 C 0.17386 0.36684 0.37834 0.0
C3409 C 0.16912 0.37462 0.37483 0.0
C3410 C 0.16097 0.3732 0.36945 0.0
C3411 C 0.15776 0.3642 0.36742 0.0
C3412 C 0.15681 0.33764 0.37731 0.0
C3413 C 0.15705 0.32795 0.37629 0.0
C3414 C 0.15488 0.32221 0.38378 0.0
C3415 C 0.15237 0.32607 0.39246 0.0
C3416 C 0.15204 0.33582 0.39341 0.0
C3417 C 0.1542 0.34156 0.38588 0.0
C3418 C 0.14894 0.34504 0.35997 0.0
C3419 C 0.14995 0.34598 0.35032 0.0
C3420 C 0.14207 0.34673 0.34457 0.0
C3421 C 0.13301 0.34663 0.34839 0.0
C3422 C 0.13205 0.34569 0.3581 0.0
C3423 C 0.13995 0.34496 0.36383 0.0
P3424 P 0.35561 0.60314 0.35599 0.0
H3425 H 0.35254 0.58611 0.34529 0.0
H3426 H 0.33858 0.57652 0.34241 0.0
H3427 H 0.32166 0.59723 0.35623 0.0
H3428 H 0.33556 0.60682 0.35891 0.0
H3429 H 0.37565 0.60613 0.35592 0.0
H3430 H 0.3869 0.60936 0.34363 0.0
H3431 H 0.36452 0.60857 0.32322 0.0
H3432 H 0.35326 0.6052 0.33564 0.0
H3433 H 0.35182 0.60766 0.37541 0.0
H3434 H 0.35366 0.62236 0.34941 0.0
O3435 O 0.36094 0.59618 0.36359 0.0
H3436 H 0.34932 0.62232 0.38369 0.0
H3437 H 0.35101 0.63712 0.35764 0.0
C3438 C 0.3451 0.59719 0.35226 0.0
C3439 C 0.34578 0.58867 0.34749 0.0
C3440 C 0.33781 0.58317 0.34593 0.0
C3441 C 0.32901 0.58608 0.34915 0.0
C3442 C 0.3283 0.59483 0.35356 0.0
C3443 C 0.33628 0.60032 0.35513 0.0
C3444 C 0.36368 0.60524 0.34666 0.0
C3445 C 0.37317 0.60658 0.34879 0.0
C3446 C 0.37958 0.60852 0.34176 0.0
C3447 C 0.3766 0.60924 0.33244 0.0
C3448 C 0.36704 0.60795 0.33032 0.0
C3449 C 0.36061 0.60603 0.3374 0.0
C3450 C 0.35315 0.61396 0.36185 0.0
C3451 C 0.35165 0.61406 0.37148 0.0
C3452 C 0.35012 0.62245 0.37619 0.0
C3453 C 0.35001 0.63091 0.37133 0.0
C3454 C 0.3512 0.63074 0.3616 0.0
C3455 C 0.3527 0.62231 0.35689 0.0
H3456 H 0.18248 0.43484 0.12075 0.0
H3457 H 0.16874 0.42478 0.11907 0.0
H3458 H 0.15612 0.44453 0.10043 0.0
H3459 H 0.17004 0.45457 0.10185 0.0
H3460 H 0.14997 0.42898 0.12324 0.0
H3461 H 0.15461 0.4197 0.08578 0.0
H3462 H 0.16389 0.42491 0.09269 0.0
H3463 H 0.15433 0.4319 0.08869 0.0
C3464 C 0.17685 0.437 0.11619 0.0
C3465 C 0.17741 0.44546 0.11135 0.0
C3466 C 0.16896 0.43128 0.1153 0.0
C3467 C 0.16146 0.43386 0.10955 0.0
C3468 C 0.1619 0.44235 0.1048 0.0
H3469 H 0.11204 0.39784 0.09916 0.0
H3470 H 0.12221 0.41168 0.09933 0.0
C3471 C 0.16981 0.44811 0.10569 0.0
C3472 C 0.15324 0.42757 0.10867 0.0
H3473 H 0.14217 0.41248 0.09366 0.0
C3474 C 0.14819 0.42545 0.11675 0.0
C3475 C 0.1509 0.42303 0.10017 0.0
C3476 C 0.15623 0.42492 0.09133 0.0
C3477 C 0.14109 0.41866 0.11664 0.0
C3478 C 0.13907 0.4138 0.10826 0.0
C3479 C 0.14377 0.41623 0.10007 0.0
C3480 C 0.13282 0.40555 0.10812 0.0
C3481 C 0.13594 0.41658 0.12554 0.0
C3482 C 0.13551 0.39751 0.11287 0.0
C3483 C 0.12982 0.38959 0.1127 0.0
C3484 C 0.12126 0.38953 0.10779 0.0
C3485 C 0.1186 0.39761 0.10296 0.0
C3486 C 0.12437 0.40553 0.10308 0.0
H3487 H 0.13648 0.42245 0.1306 0.0
H3488 H 0.12842 0.41508 0.12412 0.0
H3489 H 0.13905 0.41034 0.12882 0.0
H3490 H 0.14211 0.39734 0.11664 0.0
H3491 H 0.13222 0.38345 0.1163 0.0
H3492 H 0.8321 0.95233 0.38359 0.0
H3493 H 0.84619 0.94331 0.38693 0.0
H3494 H 0.83011 0.92504 0.40448 0.0
H3495 H 0.81605 0.93419 0.40142 0.0
H3496 H 0.84743 0.93046 0.41225 0.0
H3497 H 0.85123 0.91732 0.37596 0.0
H3498 H 0.85064 0.92976 0.37705 0.0
H3499 H 0.84065 0.92276 0.38008 0.0
C3500 C 0.83158 0.94646 0.38825 0.0
C3501 C 0.82294 0.94394 0.39219 0.0
C3502 C 0.83962 0.94125 0.39007 0.0
C3503 C 0.83915 0.93342 0.39582 0.0
C3504 C 0.8306 0.93103 0.39996 0.0
H3505 H 0.87884 0.88837 0.40014 0.0
H3506 H 0.8651 0.89815 0.39774 0.0
C3507 C 0.82256 0.93622 0.39814 0.0
C3508 C 0.84755 0.92766 0.39749 0.0
H3509 H 0.86346 0.91378 0.38654 0.0
C3510 C 0.85095 0.92681 0.40664 0.0
C3511 C 0.85203 0.92281 0.39017 0.0
C3512 C 0.84843 0.92311 0.38027 0.0
C3513 C 0.85879 0.92131 0.40865 0.0
C3514 C 0.8634 0.91665 0.40129 0.0
C3515 C 0.85995 0.91743 0.39216 0.0
C3516 C 0.87173 0.91076 0.40292 0.0
C3517 C 0.86194 0.92039 0.41866 0.0
C3518 C 0.88004 0.91464 0.40655 0.0
C3519 C 0.88792 0.90908 0.4079 0.0
C3520 C 0.88765 0.89954 0.40558 0.0
C3521 C 0.87932 0.8957 0.4019 0.0
C3522 C 0.87144 0.90127 0.40057 0.0
H3523 H 0.85636 0.92245 0.42361 0.0
H3524 H 0.86405 0.91313 0.42017 0.0
H3525 H 0.86809 0.925 0.41992 0.0
H3526 H 0.88047 0.922 0.40822 0.0
H3527 H 0.89428 0.91228 0.4106 0.0
H3528 H 0.32459 0.55055 0.59226 0.0
H3529 H 0.33641 0.56254 0.58909 0.0
H3530 H 0.35308 0.55276 0.61213 0.0
H3531 H 0.34137 0.54072 0.61526 0.0
H3532 H 0.34277 0.57677 0.60007 0.0
H3533 H 0.37213 0.55327 0.59144 0.0
H3534 H 0.36018 0.5492 0.59224 0.0
H3535 H 0.36715 0.55088 0.60262 0.0
C3536 C 0.33078 0.55096 0.59664 0.0
C3537 C 0.33209 0.54465 0.60396 0.0
C3538 C 0.33753 0.55779 0.59481 0.0
C3539 C 0.34571 0.55843 0.60026 0.0
C3540 C 0.34696 0.55223 0.60766 0.0
H3541 H 0.39214 0.59649 0.60661 0.0
H3542 H 0.3799 0.5846 0.60821 0.0
C3543 C 0.34025 0.54537 0.60946 0.0
C3544 C 0.35281 0.56576 0.59841 0.0
H3545 H 0.37611 0.56924 0.59425 0.0
C3546 C 0.35004 0.57512 0.5987 0.0
C3547 C 0.36229 0.5636 0.59658 0.0
C3548 C 0.3656 0.55369 0.5956 0.0
C3549 C 0.35655 0.58238 0.59751 0.0
C3550 C 0.36605 0.5802 0.59595 0.0
C3551 C 0.36881 0.57086 0.5955 0.0
C3552 C 0.37329 0.58753 0.59497 0.0
C3553 C 0.35332 0.59233 0.59816 0.0
C3554 C 0.37361 0.59307 0.58697 0.0
C3555 C 0.3806 0.59985 0.58603 0.0
C3556 C 0.38735 0.60124 0.5931 0.0
C3557 C 0.38697 0.59568 0.60111 0.0
C3558 C 0.38003 0.58885 0.60201 0.0
H3559 H 0.34602 0.59286 0.60075 0.0
H3560 H 0.35801 0.59642 0.60287 0.0
H3561 H 0.35363 0.59554 0.59116 0.0
H3562 H 0.3685 0.59208 0.58144 0.0
H3563 H 0.38069 0.60407 0.5798 0.0
H3564 H 0.67039 0.04589 0.90899 0.0
H3565 H 0.65974 0.059 0.9112 0.0
H3566 H 0.6453 0.05154 0.88569 0.0
H3567 H 0.65581 0.03835 0.88354 0.0
H3568 H 0.65783 0.07365 0.90006 0.0
H3569 H 0.6235 0.0558 0.90279 0.0
H3570 H 0.63446 0.04966 0.90368 0.0
H3571 H 0.62966 0.05248 0.89243 0.0
C3572 C 0.66488 0.047 0.90391 0.0
C3573 C 0.66391 0.04109 0.8961 0.0
C3574 C 0.65879 0.05447 0.90519 0.0
C3575 C 0.65163 0.05617 0.89869 0.0
C3576 C 0.65059 0.05022 0.89094 0.0
H3577 H 0.61773 0.10288 0.88405 0.0
H3578 H 0.626 0.08803 0.88512 0.0
C3579 C 0.65663 0.0427 0.88969 0.0
C3580 C 0.64574 0.0646 0.89961 0.0
H3581 H 0.6231 0.07219 0.89958 0.0
C3582 C 0.65024 0.07332 0.9001 0.0
C3583 C 0.63583 0.06416 0.89965 0.0
C3584 C 0.63058 0.05501 0.89971 0.0
C3585 C 0.64511 0.0816 0.90031 0.0
C3586 C 0.63523 0.08115 0.90005 0.0
C3587 C 0.6307 0.07247 0.89974 0.0
C3588 C 0.62955 0.0897 0.89971 0.0
C3589 C 0.65026 0.09081 0.90051 0.0
C3590 C 0.62869 0.09542 0.90762 0.0
C3591 C 0.62397 0.10389 0.90704 0.0
C3592 C 0.6201 0.10679 0.89851 0.0
C3593 C 0.62074 0.10088 0.89068 0.0
C3594 C 0.6254 0.09239 0.89129 0.0
H3595 H 0.65793 0.08997 0.89958 0.0
H3596 H 0.64754 0.09542 0.89496 0.0
H3597 H 0.64905 0.09433 0.90731 0.0
H3598 H 0.63185 0.09342 0.91418 0.0
H3599 H 0.62364 0.10833 0.91317 0.0
H3600 H 0.18006 0.5635 0.38187 0.0
H3601 H 0.16644 0.57347 0.38377 0.0
H3602 H 0.15471 0.55418 0.40346 0.0
H3603 H 0.16852 0.54422 0.40178 0.0
H3604 H 0.14734 0.56856 0.38043 0.0
H3605 H 0.15398 0.57974 0.41719 0.0
H3606 H 0.16298 0.57455 0.41009 0.0
H3607 H 0.15377 0.56744 0.41471 0.0
C3608 C 0.17466 0.56143 0.38672 0.0
C3609 C 0.17543 0.55312 0.39176 0.0
C3610 C 0.16684 0.56709 0.38773 0.0
C3611 C 0.15962 0.5646 0.39382 0.0
C3612 C 0.16027 0.55628 0.39882 0.0
H3613 H 0.11155 0.60183 0.40392 0.0
H3614 H 0.12113 0.58771 0.40425 0.0
C3615 C 0.16812 0.55057 0.39779 0.0
C3616 C 0.15143 0.5708 0.39474 0.0
H3617 H 0.14145 0.58677 0.40932 0.0
C3618 C 0.14595 0.57244 0.38679 0.0
C3619 C 0.14962 0.5758 0.40307 0.0
C3620 C 0.1554 0.57438 0.41176 0.0
C3621 C 0.13897 0.57925 0.38681 0.0
C3622 C 0.13752 0.58462 0.39496 0.0
C3623 C 0.14261 0.58263 0.40308 0.0
C3624 C 0.1316 0.59302 0.39481 0.0
C3625 C 0.13338 0.58086 0.37802 0.0
C3626 C 0.13442 0.60068 0.38952 0.0
C3627 C 0.12908 0.60876 0.38941 0.0
C3628 C 0.12074 0.60935 0.39456 0.0
C3629 C 0.11796 0.60165 0.39992 0.0
C3630 C 0.12338 0.59356 0.40008 0.0
H3631 H 0.13349 0.57468 0.37332 0.0
H3632 H 0.12599 0.58256 0.37967 0.0
H3633 H 0.13647 0.58683 0.37422 0.0
H3634 H 0.14085 0.60045 0.38555 0.0
H3635 H 0.1316 0.61461 0.3854 0.0
H3636 H 0.68151 0.94246 0.59273 0.0
H3637 H 0.66822 0.93178 0.59055 0.0
H3638 H 0.65777 0.9395 0.61766 0.0
H3639 H 0.67095 0.95023 0.61984 0.0
H3640 H 0.6646 0.91683 0.60104 0.0
H3641 H 0.63406 0.94031 0.60231 0.0
H3642 H 0.64587 0.94457 0.60076 0.0
H3643 H 0.64165 0.94181 0.61222 0.0
C3644 C 0.67631 0.94195 0.59818 0.0
C3645 C 0.67727 0.94719 0.60645 0.0
C3646 C 0.66871 0.93588 0.59691 0.0
C3647 C 0.66192 0.93494 0.60388 0.0
C3648 C 0.66276 0.9403 0.61207 0.0
H3649 H 0.62021 0.89464 0.61884 0.0
H3650 H 0.63087 0.90801 0.61763 0.0
C3651 C 0.67033 0.94641 0.61332 0.0
C3652 C 0.65448 0.92772 0.60299 0.0
H3653 H 0.63087 0.92404 0.60461 0.0
C3654 C 0.65722 0.91843 0.60167 0.0
C3655 C 0.64484 0.9298 0.60385 0.0
C3656 C 0.64142 0.93968 0.60477 0.0
C3657 C 0.65063 0.91115 0.60153 0.0
C3658 C 0.64103 0.91322 0.60263 0.0
C3659 C 0.63825 0.9225 0.60377 0.0
C3660 C 0.63388 0.90573 0.60303 0.0
C3661 C 0.654 0.90126 0.60051 0.0
C3662 C 0.6319 0.9002 0.59516 0.0
C3663 C 0.62584 0.89255 0.59584 0.0
C3664 C 0.62168 0.89031 0.6044 0.0
C3665 C 0.62341 0.89611 0.61218 0.0
C3666 C 0.62943 0.90378 0.61149 0.0
H3667 H 0.66171 0.90074 0.60138 0.0
H3668 H 0.65057 0.8967 0.60572 0.0
H3669 H 0.65211 0.89858 0.59347 0.0
H3670 H 0.63522 0.90166 0.58856 0.0
H3671 H 0.6247 0.88818 0.58974 0.0
H3672 H 0.32351 0.44853 0.90573 0.0
H3673 H 0.33553 0.4368 0.9086 0.0
H3674 H 0.35547 0.45307 0.8931 0.0
H3675 H 0.34351 0.46479 0.89016 0.0
H3676 H 0.34562 0.4264 0.89561 0.0
H3677 H 0.36942 0.44816 0.91751 0.0
H3678 H 0.35749 0.45143 0.91502 0.0
H3679 H 0.36651 0.45331 0.90653 0.0
C3680 C 0.33045 0.4496 0.90291 0.0
C3681 C 0.33256 0.45762 0.89776 0.0
C3682 C 0.33731 0.44291 0.9046 0.0
C3683 C 0.34643 0.44414 0.9012 0.0
C3684 C 0.34854 0.4521 0.89598 0.0
H3685 H 0.39761 0.41284 0.89924 0.0
H3686 H 0.38497 0.42412 0.89766 0.0
C3687 C 0.3417 0.45878 0.89431 0.0
C3688 C 0.35366 0.43698 0.90283 0.0
H3689 H 0.37547 0.4337 0.91206 0.0
C3690 C 0.35212 0.42796 0.89928 0.0
C3691 C 0.36211 0.43905 0.90762 0.0
C3692 C 0.36397 0.44849 0.91197 0.0
C3693 C 0.35894 0.42102 0.90014 0.0
C3694 C 0.36746 0.42314 0.9048 0.0
C3695 C 0.36894 0.43212 0.90846 0.0
C3696 C 0.37502 0.4162 0.90575 0.0
C3697 C 0.3571 0.41157 0.89581 0.0
C3698 C 0.37364 0.40805 0.9109 0.0
C3699 C 0.38084 0.40156 0.91178 0.0
C3700 C 0.38956 0.40312 0.90754 0.0
C3701 C 0.39093 0.41135 0.90246 0.0
C3702 C 0.38374 0.41784 0.9016 0.0
H3703 H 0.35121 0.41171 0.89073 0.0
H3704 H 0.36344 0.40895 0.89222 0.0
H3705 H 0.35527 0.40657 0.90137 0.0
H3706 H 0.367 0.40674 0.91428 0.0
H3707 H 0.37954 0.39528 0.91569 0.0
H3708 H 0.84147 0.04016 0.11667 0.0
H3709 H 0.85308 0.05239 0.1138 0.0
H3710 H 0.83608 0.06277 0.09127 0.0
H3711 H 0.82441 0.05058 0.09414 0.0
H3712 H 0.86328 0.05593 0.09805 0.0
H3713 H 0.84085 0.08615 0.10676 0.0
H3714 H 0.83762 0.07436 0.10962 0.0
H3715 H 0.836 0.07856 0.09796 0.0
C3716 C 0.84022 0.04502 0.11108 0.0
C3717 C 0.832 0.04443 0.10566 0.0
C3718 C 0.84684 0.05203 0.10947 0.0
C3719 C 0.84537 0.05858 0.10243 0.0
C3720 C 0.83725 0.05793 0.0969 0.0
H3721 H 0.87959 0.1044 0.08184 0.0
H3722 H 0.86748 0.09244 0.08401 0.0
C3723 C 0.83059 0.05095 0.09854 0.0
C3724 C 0.85247 0.06596 0.10075 0.0
H3725 H 0.85575 0.08953 0.10033 0.0
C3726 C 0.86164 0.06328 0.09857 0.0
C3727 C 0.8503 0.07554 0.10143 0.0
C3728 C 0.84068 0.07885 0.10415 0.0
C3729 C 0.86869 0.06992 0.09698 0.0
C3730 C 0.86653 0.07948 0.09769 0.0
C3731 C 0.85735 0.08218 0.09978 0.0
C3732 C 0.87377 0.08678 0.09646 0.0
C3733 C 0.87838 0.06666 0.09444 0.0
C3734 C 0.88122 0.08763 0.10283 0.0
C3735 C 0.88813 0.09443 0.10162 0.0
C3736 C 0.88771 0.10053 0.09401 0.0
C3737 C 0.88016 0.09974 0.08771 0.0
C3738 C 0.87322 0.09295 0.08896 0.0
H3739 H 0.87836 0.05927 0.09209 0.0
H3740 H 0.88139 0.07102 0.08884 0.0
H3741 H 0.88302 0.06728 0.10065 0.0
H3742 H 0.8817 0.083 0.10873 0.0
H3743 H 0.8939 0.0948 0.10655 0.0
H3744 H 0.12342 0.18267 0.42678 0.0
H3745 H 0.12162 0.1684 0.41755 0.0
H3746 H 0.10157 0.15796 0.43731 0.0
H3747 H 0.10308 0.17237 0.44644 0.0
H3748 H 0.12485 0.15002 0.42282 0.0
H3749 H 0.08771 0.15515 0.41234 0.0
H3750 H 0.09483 0.1644 0.41728 0.0
H3751 H 0.08991 0.15563 0.42468 0.0
C3752 C 0.11853 0.1774 0.42911 0.0
C3753 C 0.11333 0.17871 0.43731 0.0
C3754 C 0.11757 0.16922 0.42386 0.0
C3755 C 0.11136 0.16219 0.42667 0.0
C3756 C 0.10627 0.16338 0.43493 0.0
H3757 H 0.09672 0.10864 0.40121 0.0
H3758 H 0.09815 0.1221 0.41172 0.0
C3759 C 0.10723 0.17157 0.44019 0.0
C3760 C 0.11034 0.15358 0.42097 0.0
H3761 H 0.0947 0.14094 0.40786 0.0
C3762 C 0.11826 0.14803 0.41955 0.0
C3763 C 0.10172 0.151 0.41673 0.0
C3764 C 0.09307 0.15688 0.41775 0.0
C3765 C 0.1178 0.13994 0.41402 0.0
C3766 C 0.10922 0.13742 0.40967 0.0
C3767 C 0.10126 0.1429 0.4112 0.0
C3768 C 0.10841 0.12926 0.40333 0.0
C3769 C 0.12647 0.13408 0.41295 0.0
C3770 C 0.1136 0.12891 0.39506 0.0
C3771 C 0.11277 0.12126 0.38902 0.0
C3772 C 0.10667 0.11384 0.39111 0.0
C3773 C 0.10141 0.11427 0.39936 0.0
C3774 C 0.10225 0.12193 0.40539 0.0
H3775 H 0.13163 0.13551 0.41862 0.0
H3776 H 0.12469 0.12655 0.41294 0.0
H3777 H 0.12986 0.13573 0.40622 0.0
H3778 H 0.11824 0.1346 0.39323 0.0
H3779 H 0.11679 0.12123 0.38265 0.0
H3780 H 0.03073 0.88028 0.67145 0.0
H3781 H 0.04439 0.882 0.66136 0.0
H3782 H 0.05346 0.90595 0.67744 0.0
H3783 H 0.03986 0.9042 0.68762 0.0
H3784 H 0.05073 0.89634 0.65031 0.0
H3785 H 0.07615 0.88915 0.67876 0.0
H3786 H 0.06373 0.88715 0.67999 0.0
H3787 H 0.06849 0.89873 0.68111 0.0
C3788 C 0.03558 0.88597 0.67277 0.0
C3789 C 0.03428 0.89205 0.68037 0.0
C3790 C 0.04339 0.88693 0.66702 0.0
C3791 C 0.05003 0.894 0.66876 0.0
C3792 C 0.04855 0.90031 0.67611 0.0
H3793 H 0.10419 0.90541 0.64324 0.0
H3794 H 0.08936 0.90706 0.6516 0.0
C3795 C 0.04078 0.89931 0.68191 0.0
C3796 C 0.0586 0.89458 0.66301 0.0
H3797 H 0.08245 0.89329 0.66418 0.0
C3798 C 0.05767 0.89569 0.65334 0.0
C3799 C 0.06765 0.89371 0.66699 0.0
C3800 C 0.0691 0.89203 0.67727 0.0
C3801 C 0.06555 0.89597 0.64753 0.0
C3802 C 0.07457 0.89503 0.6515 0.0
C3803 C 0.07551 0.89407 0.66118 0.0
C3804 C 0.08311 0.89455 0.64574 0.0
C3805 C 0.06418 0.89729 0.63719 0.0
C3806 C 0.08447 0.88699 0.63966 0.0
C3807 C 0.09292 0.88602 0.6349 0.0
C3808 C 0.10017 0.89259 0.63615 0.0
C3809 C 0.09869 0.90029 0.64206 0.0
C3810 C 0.09026 0.90122 0.64687 0.0
H3811 H 0.05718 0.90021 0.63556 0.0
H3812 H 0.06966 0.90198 0.63435 0.0
H3813 H 0.06475 0.89045 0.6336 0.0
H3814 H 0.0791 0.88168 0.63881 0.0
H3815 H 0.09384 0.88005 0.63034 0.0
H3816 H 0.40142 0.82508 0.94434 0.0
H3817 H 0.40335 0.83952 0.93557 0.0
H3818 H 0.3775 0.83385 0.92084 0.0
H3819 H 0.3754 0.81955 0.92972 0.0
H3820 H 0.40448 0.84147 0.91597 0.0
H3821 H 0.37422 0.86066 0.93049 0.0
H3822 H 0.37901 0.85046 0.93597 0.0
H3823 H 0.37134 0.84927 0.92604 0.0
C3824 C 0.39609 0.82697 0.93932 0.0
C3825 C 0.38824 0.82118 0.93774 0.0
C3826 C 0.39723 0.83519 0.93428 0.0
C3827 C 0.3905 0.83781 0.92765 0.0
C3828 C 0.38269 0.83203 0.92603 0.0
H3829 H 0.38289 0.88142 0.88759 0.0
H3830 H 0.38175 0.86784 0.89768 0.0
C3831 C 0.38156 0.82381 0.93104 0.0
C3832 C 0.39177 0.84643 0.92221 0.0
H3833 H 0.38147 0.86717 0.91713 0.0
C3834 C 0.39951 0.84714 0.91627 0.0
C3835 C 0.38525 0.85379 0.92263 0.0
C3836 C 0.37703 0.85358 0.92919 0.0
C3837 C 0.40075 0.85489 0.9105 0.0
C3838 C 0.39416 0.86219 0.91082 0.0
C3839 C 0.38649 0.86155 0.91688 0.0
C3840 C 0.39493 0.87047 0.90477 0.0
C3841 C 0.40894 0.85506 0.9039 0.0
C3842 C 0.40267 0.87651 0.90549 0.0
C3843 C 0.40333 0.88429 0.89974 0.0
C3844 C 0.39622 0.88622 0.89322 0.0
C3845 C 0.38843 0.88019 0.8926 0.0
C3846 C 0.38779 0.87241 0.89834 0.0
H3847 H 0.41199 0.84804 0.9029 0.0
H3848 H 0.4068 0.85779 0.89699 0.0
H3849 H 0.41449 0.85971 0.90679 0.0
H3850 H 0.40816 0.87525 0.91055 0.0
H3851 H 0.40934 0.88888 0.90049 0.0
H3852 H 0.43879 0.12574 0.18842 0.0
H3853 H 0.42894 0.12271 0.17473 0.0
H3854 H 0.45032 0.10504 0.16319 0.0
H3855 H 0.46006 0.10771 0.17704 0.0
H3856 H 0.43261 0.12651 0.15637 0.0
H3857 H 0.4271 0.08856 0.16117 0.0
H3858 H 0.4318 0.09602 0.17026 0.0
H3859 H 0.43919 0.09206 0.16096 0.0
C3860 C 0.44134 0.12108 0.18304 0.0
C3861 C 0.45019 0.11691 0.18387 0.0
C3862 C 0.43573 0.11942 0.17519 0.0
C3863 C 0.43883 0.11354 0.16801 0.0
C3864 C 0.4477 0.10945 0.16874 0.0
H3865 H 0.41539 0.09759 0.11413 0.0
H3866 H 0.42544 0.09999 0.12782 0.0
C3867 C 0.45331 0.11109 0.17661 0.0
C3868 C 0.43286 0.11191 0.15966 0.0
H3869 H 0.42168 0.09494 0.14693 0.0
C3870 C 0.43019 0.11961 0.15433 0.0
C3871 C 0.42973 0.1029 0.157 0.0
C3872 C 0.43202 0.09442 0.16268 0.0
C3873 C 0.42455 0.11853 0.14635 0.0
C3874 C 0.42141 0.10954 0.1437 0.0
C3875 C 0.42412 0.10183 0.14899 0.0
C3876 C 0.41525 0.108 0.1355 0.0
C3877 C 0.4221 0.12701 0.14072 0.0
C3878 C 0.40614 0.11159 0.13536 0.0
C3879 C 0.40034 0.11017 0.12759 0.0
C3880 C 0.40355 0.10511 0.11981 0.0
C3881 C 0.41266 0.10143 0.12004 0.0
C3882 C 0.41843 0.10283 0.12783 0.0
H3883 H 0.42675 0.13302 0.14242 0.0
H3884 H 0.42257 0.12549 0.13314 0.0
H3885 H 0.41478 0.12906 0.14226 0.0
H3886 H 0.4035 0.11545 0.14129 0.0
H3887 H 0.39332 0.11295 0.12772 0.0
H3888 H 0.11834 0.83413 0.04644 0.0
H3889 H 0.1182 0.84494 0.05972 0.0
H3890 H 0.09425 0.83054 0.07096 0.0
H3891 H 0.0944 0.81966 0.05775 0.0
H3892 H 0.10476 0.85698 0.06653 0.0
H3893 H 0.11295 0.82961 0.09239 0.0
H3894 H 0.11391 0.82767 0.08 0.0
H3895 H 0.10264 0.82728 0.08552 0.0
C3896 C 0.11298 0.83333 0.05169 0.0
C3897 C 0.10643 0.826 0.0511 0.0
C3898 C 0.11293 0.83949 0.05929 0.0
C3899 C 0.10633 0.83844 0.06641 0.0
C3900 C 0.09955 0.83134 0.06566 0.0
H3901 H 0.10021 0.86701 0.11993 0.0
H3902 H 0.0971 0.85797 0.10566 0.0
C3903 C 0.09964 0.82514 0.0581 0.0
C3904 C 0.10669 0.84464 0.07473 0.0
H3905 H 0.10984 0.84464 0.09834 0.0
C3906 C 0.10586 0.85429 0.07349 0.0
C3907 C 0.10814 0.84111 0.0838 0.0
C3908 C 0.10955 0.83086 0.08553 0.0
C3909 C 0.10641 0.8605 0.08109 0.0
C3910 C 0.10792 0.85696 0.09013 0.0
C3911 C 0.10862 0.84732 0.09139 0.0
C3912 C 0.10927 0.86313 0.09836 0.0
C3913 C 0.10532 0.87078 0.07941 0.0
C3914 C 0.11711 0.86904 0.09895 0.0
C3915 C 0.11891 0.87419 0.10708 0.0
C3916 C 0.1129 0.87351 0.11478 0.0
C3917 C 0.10491 0.86776 0.11408 0.0
C3918 C 0.10315 0.86257 0.10596 0.0
H3919 H 0.10184 0.87216 0.07262 0.0
H3920 H 0.1012 0.8741 0.08505 0.0
H3921 H 0.11235 0.87412 0.07932 0.0
H3922 H 0.122 0.86946 0.09322 0.0
H3923 H 0.12508 0.87861 0.10738 0.0
H3924 H 0.46717 0.87867 0.33531 0.0
H3925 H 0.45496 0.88119 0.34694 0.0
H3926 H 0.44398 0.90381 0.33071 0.0
H3927 H 0.45612 0.90127 0.319 0.0
H3928 H 0.45138 0.89655 0.35759 0.0
H3929 H 0.42068 0.88825 0.33504 0.0
H3930 H 0.43252 0.88558 0.33166 0.0
H3931 H 0.42813 0.89722 0.33051 0.0
C3932 C 0.46216 0.8842 0.33423 0.0
C3933 C 0.46258 0.88975 0.32622 0.0
C3934 C 0.45517 0.8856 0.34086 0.0
C3935 C 0.44846 0.89258 0.33962 0.0
C3936 C 0.44893 0.89823 0.33169 0.0
H3937 H 0.40304 0.9125 0.37473 0.0
H3938 H 0.41499 0.91072 0.36263 0.0
C3939 C 0.45589 0.89678 0.32502 0.0
C3940 C 0.44114 0.89409 0.34675 0.0
H3941 H 0.41746 0.89445 0.35007 0.0
C3942 C 0.44396 0.89606 0.35595 0.0
C3943 C 0.43146 0.89346 0.34459 0.0
C3944 C 0.42799 0.89092 0.33494 0.0
C3945 C 0.43738 0.89748 0.36304 0.0
C3946 C 0.42773 0.89684 0.36087 0.0
C3947 C 0.42488 0.89496 0.35167 0.0
C3948 C 0.42049 0.89789 0.36813 0.0
C3949 C 0.44077 0.89975 0.37278 0.0
C3950 C 0.41959 0.89119 0.37513 0.0
C3951 C 0.41278 0.89217 0.38201 0.0
C3952 C 0.40676 0.89988 0.38203 0.0
C3953 C 0.40764 0.90654 0.37496 0.0
C3954 C 0.41442 0.90552 0.36803 0.0
H3955 H 0.44825 0.90194 0.37288 0.0
H3956 H 0.43651 0.90538 0.37593 0.0
H3957 H 0.44003 0.89349 0.37719 0.0
H3958 H 0.42416 0.8852 0.37526 0.0
H3959 H 0.41233 0.88697 0.38741 0.0
H3960 H 0.38014 0.18562 0.57243 0.0
H3961 H 0.38243 0.17156 0.58158 0.0
H3962 H 0.40131 0.16095 0.56075 0.0
H3963 H 0.39933 0.17517 0.5517 0.0
H3964 H 0.37858 0.15331 0.57639 0.0
H3965 H 0.41636 0.158 0.58484 0.0
H3966 H 0.40925 0.16729 0.58032 0.0
H3967 H 0.41355 0.15838 0.57263 0.0
C3968 C 0.3849 0.18037 0.56986 0.0
C3969 C 0.38961 0.18157 0.56136 0.0
C3970 C 0.38614 0.17231 0.57507 0.0
C3971 C 0.39213 0.16527 0.57191 0.0
C3972 C 0.39679 0.16637 0.5634 0.0
H3973 H 0.40576 0.11107 0.59524 0.0
H3974 H 0.40447 0.12469 0.58517 0.0
C3975 C 0.39556 0.17446 0.55818 0.0
C3976 C 0.39327 0.15668 0.57745 0.0
H3977 H 0.4093 0.1438 0.58941 0.0
C3978 C 0.38529 0.15124 0.57925 0.0
C3979 C 0.40205 0.15398 0.58113 0.0
C3980 C 0.41079 0.15975 0.57972 0.0
C3981 C 0.38585 0.14314 0.58462 0.0
C3982 C 0.3946 0.14051 0.58839 0.0
C3983 C 0.40261 0.14586 0.58649 0.0
C3984 C 0.39551 0.13235 0.59455 0.0
C3985 C 0.3771 0.13743 0.58614 0.0
C3986 C 0.39103 0.13224 0.60322 0.0
C3987 C 0.39181 0.12452 0.60902 0.0
C3988 C 0.3971 0.11675 0.60626 0.0
C3989 C 0.4017 0.11696 0.59762 0.0
C3990 C 0.40094 0.12471 0.59183 0.0
H3991 H 0.37155 0.13905 0.58095 0.0
H3992 H 0.37864 0.12987 0.58574 0.0
H3993 H 0.37431 0.13897 0.59319 0.0
H3994 H 0.38697 0.13816 0.60553 0.0
H3995 H 0.38833 0.12468 0.61571 0.0
H3996 H 0.03383 0.09463 0.8214 0.0
H3997 H 0.04702 0.093 0.8323 0.0
H3998 H 0.0516 0.12268 0.83182 0.0
H3999 H 0.03842 0.12438 0.82102 0.0
H4000 H 0.06616 0.09928 0.82865 0.0
H4001 H 0.05084 0.1159 0.86007 0.0
H4002 H 0.04375 0.11137 0.85056 0.0
H4003 H 0.04957 0.12244 0.84951 0.0
C4004 C 0.03758 0.10081 0.82372 0.0
C4005 C 0.03511 0.10964 0.82036 0.0
C4006 C 0.04512 0.09986 0.82991 0.0
C4007 C 0.0502 0.10773 0.83293 0.0
C4008 C 0.04768 0.11654 0.82966 0.0
H4009 H 0.09887 0.12319 0.86419 0.0
H4010 H 0.08405 0.12189 0.85571 0.0
C4011 C 0.04021 0.11749 0.82343 0.0
C4012 C 0.05845 0.10676 0.83912 0.0
H4013 H 0.06735 0.11362 0.86022 0.0
C4014 C 0.06641 0.10229 0.83561 0.0
C4015 C 0.05872 0.11072 0.84816 0.0
C4016 C 0.05024 0.11531 0.85236 0.0
C4017 C 0.0748 0.10206 0.84075 0.0
C4018 C 0.07514 0.10623 0.84973 0.0
C4019 C 0.06708 0.11044 0.85334 0.0
C4020 C 0.08396 0.10684 0.85522 0.0
C4021 C 0.08333 0.09777 0.83633 0.0
C4022 C 0.08875 0.09879 0.85793 0.0
C4023 C 0.09732 0.09951 0.86267 0.0
C4024 C 0.10121 0.10829 0.86487 0.0
C4025 C 0.09619 0.11632 0.86243 0.0
C4026 C 0.08767 0.11559 0.85766 0.0
H4027 H 0.08247 0.09688 0.82867 0.0
H4028 H 0.08967 0.1021 0.8377 0.0
H4029 H 0.08451 0.09079 0.83936 0.0
H4030 H 0.08592 0.09196 0.85629 0.0
H4031 H 0.101 0.09319 0.8644 0.0
H4032 H 0.95465 0.40264 0.81816 0.0
H4033 H 0.94249 0.40491 0.82992 0.0
H4034 H 0.9562 0.38519 0.84782 0.0
H4035 H 0.96838 0.3829 0.83614 0.0
H4036 H 0.93024 0.39214 0.83739 0.0
H4037 H 0.95289 0.40745 0.86512 0.0
H4038 H 0.95669 0.40626 0.8532 0.0
H4039 H 0.95698 0.39643 0.86087 0.0
C4040 C 0.95506 0.39877 0.8246 0.0
C4041 C 0.96251 0.39263 0.82625 0.0
C4042 C 0.94813 0.4001 0.83132 0.0
C4043 C 0.94853 0.39534 0.83981 0.0
C4044 C 0.95588 0.38912 0.84142 0.0
H4045 H 0.91327 0.38929 0.888 0.0
H4046 H 0.9251 0.388 0.87579 0.0
C4047 C 0.96283 0.38781 0.83473 0.0
C4048 C 0.94111 0.39668 0.84688 0.0
H4049 H 0.93751 0.40284 0.86961 0.0
C4050 C 0.93181 0.39456 0.84441 0.0
C4051 C 0.94319 0.39985 0.85603 0.0
C4052 C 0.95296 0.40272 0.85896 0.0
C4053 C 0.92455 0.39528 0.85093 0.0
C4054 C 0.92666 0.39828 0.86012 0.0
C4055 C 0.93594 0.4005 0.86256 0.0
C4056 C 0.91935 0.39901 0.86736 0.0
C4057 C 0.91471 0.3926 0.84804 0.0
C4058 C 0.91225 0.40567 0.86667 0.0
C4059 C 0.90547 0.40642 0.87363 0.0
C4060 C 0.90569 0.40051 0.88139 0.0
C4061 C 0.91283 0.39386 0.88205 0.0
C4062 C 0.91963 0.39315 0.87512 0.0
H4063 H 0.91456 0.38872 0.84131 0.0
H4064 H 0.91135 0.38824 0.85345 0.0
H4065 H 0.91048 0.39899 0.84723 0.0
H4066 H 0.912 0.41033 0.86078 0.0
H4067 H 0.90003 0.41158 0.8729 0.0
H4068 H 0.89919 0.67581 0.05176 0.0
H4069 H 0.90113 0.66159 0.06083 0.0
H4070 H 0.88279 0.67256 0.08196 0.0
H4071 H 0.8805 0.6866 0.07278 0.0
H4072 H 0.9081 0.65937 0.07868 0.0
H4073 H 0.87123 0.64716 0.07653 0.0
H4074 H 0.87579 0.65624 0.06918 0.0
H4075 H 0.87238 0.65883 0.08097 0.0
C4076 C 0.89547 0.67515 0.05827 0.0
C4077 C 0.88965 0.68234 0.06151 0.0
C4078 C 0.89664 0.66704 0.06348 0.0
C4079 C 0.89198 0.66596 0.07199 0.0
C4080 C 0.8863 0.67317 0.07532 0.0
H4081 H 0.89039 0.62561 0.1161 0.0
H4082 H 0.88905 0.63927 0.10614 0.0
C4083 C 0.8851 0.68125 0.07011 0.0
C4084 C 0.89318 0.65736 0.0775 0.0
H4085 H 0.88105 0.63953 0.08753 0.0
C4086 C 0.9022 0.65498 0.08055 0.0
C4087 C 0.88547 0.65163 0.0799 0.0
C4088 C 0.87568 0.65353 0.0764 0.0
C4089 C 0.90369 0.64717 0.08619 0.0
C4090 C 0.89595 0.64158 0.08874 0.0
C4091 C 0.88695 0.64388 0.08559 0.0
C4092 C 0.89701 0.63336 0.09479 0.0
C4093 C 0.91347 0.6451 0.08957 0.0
C4094 C 0.90188 0.62549 0.09166 0.0
C4095 C 0.90259 0.61763 0.0973 0.0
C4096 C 0.89841 0.61749 0.10616 0.0
C4097 C 0.89358 0.62543 0.10926 0.0
C4098 C 0.89285 0.63326 0.10361 0.0
H4099 H 0.91832 0.65108 0.08855 0.0
H4100 H 0.91343 0.64328 0.09708 0.0
H4101 H 0.91623 0.63904 0.08563 0.0
H4102 H 0.905 0.62538 0.0848 0.0
H4103 H 0.90623 0.6116 0.09462 0.0
H4104 H 0.54432 0.62086 0.31149 0.0
H4105 H 0.55778 0.61975 0.32195 0.0
H4106 H 0.5427 0.60018 0.33896 0.0
H4107 H 0.52925 0.60101 0.32832 0.0
H4108 H 0.55834 0.62403 0.34096 0.0
H4109 H 0.56776 0.58704 0.33433 0.0
H4110 H 0.56001 0.59339 0.32673 0.0
H4111 H 0.55584 0.58913 0.33769 0.0
C4112 C 0.5439 0.61619 0.31736 0.0
C4113 C 0.53572 0.61096 0.31901 0.0
C4114 C 0.55158 0.61562 0.32338 0.0
C4115 C 0.55128 0.6098 0.33116 0.0
C4116 C 0.54313 0.6046 0.3329 0.0
H4117 H 0.59594 0.60253 0.37299 0.0
H4118 H 0.58084 0.60144 0.36478 0.0
C4119 C 0.53542 0.60516 0.32687 0.0
C4120 C 0.55947 0.60946 0.33755 0.0
H4121 H 0.57699 0.59536 0.3453 0.0
C4122 C 0.56238 0.61775 0.34195 0.0
C4123 C 0.56469 0.60123 0.33887 0.0
C4124 C 0.56199 0.59219 0.33412 0.0
C4125 C 0.5705 0.61809 0.34749 0.0
C4126 C 0.5759 0.60996 0.34855 0.0
C4127 C 0.57282 0.60158 0.34444 0.0
C4128 C 0.58508 0.61023 0.35338 0.0
C4129 C 0.5733 0.62718 0.3521 0.0
C4130 C 0.59249 0.61534 0.34955 0.0
C4131 C 0.60111 0.61591 0.35414 0.0
C4132 C 0.60251 0.61139 0.36269 0.0
C4133 C 0.59512 0.60606 0.3664 0.0
C4134 C 0.58648 0.60546 0.36175 0.0
H4135 H 0.5673 0.63205 0.35258 0.0
H4136 H 0.57613 0.626 0.35921 0.0
H4137 H 0.57886 0.63056 0.34792 0.0
H4138 H 0.59159 0.61892 0.34299 0.0
H4139 H 0.6067 0.61989 0.35097 0.0
H4140 H 0.90386 0.31777 0.43148 0.0
H4141 H 0.90641 0.33186 0.42233 0.0
H4142 H 0.88195 0.34424 0.43467 0.0
H4143 H 0.8794 0.33022 0.44387 0.0
H4144 H 0.89477 0.33935 0.40935 0.0
H4145 H 0.90115 0.36491 0.43787 0.0
H4146 H 0.90134 0.3525 0.43972 0.0
H4147 H 0.89037 0.35857 0.43915 0.0
C4148 C 0.89905 0.32352 0.43226 0.0
C4149 C 0.89144 0.3229 0.43842 0.0
C4150 C 0.90053 0.33157 0.42706 0.0
C4151 C 0.89446 0.33916 0.42792 0.0
C4152 C 0.88687 0.33857 0.43407 0.0
H4153 H 0.88522 0.39052 0.3987 0.0
H4154 H 0.88457 0.37683 0.40874 0.0
C4155 C 0.88541 0.33054 0.43931 0.0
C4156 C 0.89575 0.34748 0.422 0.0
H4157 H 0.89826 0.37114 0.42274 0.0
C4158 C 0.89563 0.34629 0.41228 0.0
C4159 C 0.89686 0.35654 0.42584 0.0
C4160 C 0.89754 0.35822 0.43622 0.0
C4161 C 0.89635 0.35393 0.40629 0.0
C4162 C 0.89729 0.36298 0.41013 0.0
C4163 C 0.89751 0.36418 0.41984 0.0
C4164 C 0.89784 0.37131 0.40415 0.0
C4165 C 0.89583 0.3523 0.39589 0.0
C4166 C 0.90557 0.37277 0.39835 0.0
C4167 C 0.90596 0.38057 0.3926 0.0
C4168 C 0.8986 0.38703 0.39255 0.0
C4169 C 0.89092 0.38559 0.39848 0.0
C4170 C 0.89057 0.37782 0.40425 0.0
H4171 H 0.89326 0.34518 0.39411 0.0
H4172 H 0.89114 0.35745 0.39256 0.0
H4173 H 0.90292 0.35317 0.39288 0.0
H4174 H 0.9113 0.36786 0.39826 0.0
H4175 H 0.91194 0.38146 0.38807 0.0
H4176 H 0.62397 0.67449 0.94232 0.0
H4177 H 0.62255 0.66052 0.9325 0.0
H4178 H 0.59755 0.67155 0.91984 0.0
H4179 H 0.59896 0.68555 0.92959 0.0
H4180 H 0.60837 0.64747 0.9309 0.0
H4181 H 0.61359 0.66555 0.89729 0.0
H4182 H 0.61603 0.67106 0.90839 0.0
H4183 H 0.60419 0.6702 0.90411 0.0
C4184 C 0.61814 0.67391 0.93749 0.0
C4185 C 0.61162 0.68115 0.93667 0.0
C4186 C 0.61736 0.66594 0.93186 0.0
C4187 C 0.61005 0.66508 0.92532 0.0
C4188 C 0.60339 0.67218 0.92467 0.0
H4189 H 0.5929 0.62239 0.88553 0.0
H4190 H 0.59398 0.63603 0.89585 0.0
C4191 C 0.60419 0.68017 0.93025 0.0
C4192 C 0.60938 0.65672 0.91921 0.0
H4193 H 0.60891 0.64967 0.89641 0.0
C4194 C 0.60853 0.64794 0.92336 0.0
C4195 C 0.60961 0.65736 0.90937 0.0
C4196 C 0.611 0.66654 0.90451 0.0
C4197 C 0.60774 0.63979 0.91793 0.0
C4198 C 0.6079 0.64045 0.90811 0.0
C4199 C 0.60875 0.64921 0.90395 0.0
C4200 C 0.60722 0.63211 0.902 0.0
C4201 C 0.60655 0.63056 0.92273 0.0
C4202 C 0.61437 0.62546 0.90199 0.0
C4203 C 0.61378 0.61767 0.89611 0.0
C4204 C 0.60602 0.6164 0.89013 0.0
C4205 C 0.5989 0.62311 0.89013 0.0
C4206 C 0.59952 0.63092 0.89598 0.0
H4207 H 0.60449 0.63143 0.93013 0.0
H4208 H 0.60119 0.6262 0.91909 0.0
H4209 H 0.61329 0.62676 0.92254 0.0
H4210 H 0.62044 0.62633 0.90649 0.0
H4211 H 0.61934 0.61259 0.89631 0.0
H4212 H 0.81025 0.56929 0.84616 0.0
H4213 H 0.82333 0.58039 0.84618 0.0
H4214 H 0.80716 0.59958 0.86271 0.0
H4215 H 0.79413 0.58842 0.86294 0.0
H4216 H 0.82417 0.59936 0.84014 0.0
H4217 H 0.83137 0.59578 0.87807 0.0
H4218 H 0.82411 0.58761 0.87164 0.0
H4219 H 0.81954 0.59874 0.87503 0.0
C4220 C 0.80949 0.57586 0.84984 0.0
C4221 C 0.80118 0.57794 0.85462 0.0
C4222 C 0.81694 0.58221 0.84978 0.0
C4223 C 0.81624 0.59074 0.85455 0.0
C4224 C 0.80787 0.59297 0.8591 0.0
H4225 H 0.85831 0.63331 0.86701 0.0
H4226 H 0.84348 0.62489 0.86501 0.0
C4227 C 0.80041 0.58662 0.85915 0.0
C4228 C 0.82439 0.59717 0.85496 0.0
H4229 H 0.84051 0.60671 0.86994 0.0
C4230 C 0.82774 0.601 0.84664 0.0
C4231 C 0.829 0.59928 0.86347 0.0
C4232 C 0.8259 0.5951 0.87257 0.0
C4233 C 0.8356 0.60693 0.84662 0.0
C4234 C 0.84031 0.60893 0.85511 0.0
C4235 C 0.83687 0.60519 0.86344 0.0
C4236 C 0.84905 0.61455 0.85554 0.0
C4237 C 0.83873 0.61109 0.83752 0.0
C4238 C 0.85709 0.61157 0.85082 0.0
C4239 C 0.86556 0.6164 0.85189 0.0
C4240 C 0.86617 0.62427 0.85777 0.0
C4241 C 0.85805 0.62735 0.86233 0.0
C4242 C 0.84958 0.62252 0.86125 0.0
H4243 H 0.83293 0.61117 0.83232 0.0
H4244 H 0.84139 0.6183 0.83854 0.0
H4245 H 0.84446 0.60681 0.83459 0.0
H4246 H 0.85689 0.60534 0.84652 0.0
H4247 H 0.87165 0.61389 0.84822 0.0
H4248 H 0.18194 0.07014 0.62626 0.0
H4249 H 0.17111 0.08315 0.62774 0.0
H4250 H 0.18108 0.08843 0.65573 0.0
H4251 H 0.19198 0.07539 0.65429 0.0
H4252 H 0.15695 0.08421 0.64073 0.0
H4253 H 0.18123 0.11448 0.64408 0.0
H4254 H 0.18495 0.10325 0.63979 0.0
H4255 H 0.18332 0.10513 0.65206 0.0
C4256 C 0.18186 0.07409 0.63272 0.0
C4257 C 0.18777 0.07171 0.64018 0.0
C4258 C 0.1757 0.08155 0.63354 0.0
C4259 C 0.17533 0.08679 0.64182 0.0
C4260 C 0.18137 0.08458 0.64922 0.0
H4261 H 0.12609 0.1203 0.65449 0.0
H4262 H 0.13937 0.10969 0.65595 0.0
C4263 C 0.18758 0.07712 0.64839 0.0
C4264 C 0.16815 0.09412 0.64283 0.0
H4265 H 0.16504 0.1175 0.64589 0.0
C4266 C 0.15871 0.09149 0.64189 0.0
C4267 C 0.1705 0.1036 0.6443 0.0
C4268 C 0.18055 0.10684 0.64505 0.0
C4269 C 0.15154 0.09809 0.64224 0.0
C4270 C 0.15386 0.10757 0.64379 0.0
C4271 C 0.1633 0.11021 0.6448 0.0
C4272 C 0.14656 0.11484 0.64378 0.0
C4273 C 0.14156 0.09488 0.64064 0.0
C4274 C 0.14645 0.12155 0.63673 0.0
C4275 C 0.13891 0.12764 0.63591 0.0
C4276 C 0.13134 0.12712 0.64213 0.0
C4277 C 0.13174 0.12075 0.6495 0.0
C4278 C 0.13931 0.11469 0.65035 0.0
H4279 H 0.14121 0.08779 0.63748 0.0
H4280 H 0.13786 0.09466 0.64742 0.0
H4281 H 0.13777 0.09975 0.63602 0.0
H4282 H 0.15199 0.12178 0.63161 0.0
H4283 H 0.13878 0.13244 0.63013 0.0
H4284 H 0.68281 0.42993 0.37631 0.0
H4285 H 0.67177 0.41697 0.37454 0.0
H4286 H 0.67887 0.4145 0.34545 0.0
H4287 H 0.69 0.42749 0.34719 0.0
H4288 H 0.65641 0.41704 0.36296 0.0
H4289 H 0.67971 0.38744 0.35422 0.0
H4290 H 0.68405 0.39823 0.35921 0.0
H4291 H 0.68112 0.39753 0.34703 0.0
C4292 C 0.68207 0.4266 0.36954 0.0
C4293 C 0.68723 0.42976 0.36187 0.0
C4294 C 0.67579 0.41917 0.36855 0.0
C4295 C 0.67455 0.41473 0.35988 0.0
C4296 C 0.67985 0.41771 0.35224 0.0
H4297 H 0.62364 0.38288 0.34758 0.0
H4298 H 0.63698 0.3936 0.34638 0.0
C4299 C 0.68619 0.42514 0.35324 0.0
C4300 C 0.66718 0.40749 0.35876 0.0
H4301 H 0.66333 0.38458 0.35329 0.0
C4302 C 0.65792 0.40994 0.36083 0.0
C4303 C 0.66919 0.39823 0.35603 0.0
C4304 C 0.67906 0.39514 0.35407 0.0
C4305 C 0.65062 0.40339 0.36032 0.0
C4306 C 0.65259 0.39417 0.35746 0.0
C4307 C 0.66184 0.39169 0.35537 0.0
C4308 C 0.64515 0.38693 0.35714 0.0
C4309 C 0.6409 0.40636 0.36313 0.0
C4310 C 0.64554 0.37936 0.36324 0.0
C4311 C 0.63796 0.3732 0.3639 0.0
C4312 C 0.62986 0.37452 0.35846 0.0
C4313 C 0.62972 0.38179 0.35197 0.0
C4314 C 0.63733 0.38791 0.35128 0.0
H4315 H 0.64101 0.41298 0.36719 0.0
H4316 H 0.63659 0.40744 0.35678 0.0
H4317 H 0.63744 0.40092 0.36738 0.0
H4318 H 0.65153 0.37847 0.36782 0.0
H4319 H 0.63825 0.3677 0.36901 0.0
H4320 H 0.29601 0.92055 0.15502 0.0
H4321 H 0.30921 0.90979 0.15624 0.0
H4322 H 0.32054 0.9205 0.13065 0.0
H4323 H 0.30738 0.9312 0.12934 0.0
H4324 H 0.31544 0.89586 0.14383 0.0
H4325 H 0.34236 0.92339 0.14921 0.0
H4326 H 0.32998 0.92558 0.15034 0.0
H4327 H 0.33528 0.92511 0.139 0.0
C4328 C 0.30128 0.92056 0.14962 0.0
C4329 C 0.3007 0.92679 0.14213 0.0
C4330 C 0.30883 0.91444 0.15035 0.0
C4331 C 0.31593 0.91448 0.14363 0.0
C4332 C 0.31524 0.92052 0.13603 0.0
H4333 H 0.35808 0.87491 0.12866 0.0
H4334 H 0.34367 0.88377 0.13061 0.0
C4335 C 0.30773 0.92663 0.1353 0.0
C4336 C 0.32407 0.9082 0.14449 0.0
H4337 H 0.34795 0.90819 0.14552 0.0
C4338 C 0.32255 0.89853 0.14429 0.0
C4339 C 0.33332 0.91171 0.14525 0.0
C4340 C 0.33536 0.92201 0.14606 0.0
C4341 C 0.33008 0.89229 0.14445 0.0
C4342 C 0.33935 0.89583 0.14468 0.0
C4343 C 0.34084 0.90549 0.14525 0.0
C4344 C 0.34765 0.88971 0.14398 0.0
C4345 C 0.32803 0.88198 0.14439 0.0
C4346 C 0.35472 0.89015 0.15082 0.0
C4347 C 0.36299 0.88513 0.14969 0.0
C4348 C 0.36437 0.8796 0.14169 0.0
C4349 C 0.35717 0.87899 0.13497 0.0
C4350 C 0.34892 0.88403 0.13609 0.0
H4351 H 0.32091 0.88045 0.1471 0.0
H4352 H 0.32834 0.87931 0.13712 0.0
H4353 H 0.33324 0.87815 0.14862 0.0
H4354 H 0.3539 0.89452 0.15695 0.0
H4355 H 0.36837 0.88568 0.15503 0.0
H4356 H 0.79325 0.41607 0.63324 0.0
H4357 H 0.80631 0.40514 0.63372 0.0
H4358 H 0.8215 0.42378 0.65213 0.0
H4359 H 0.80838 0.43462 0.6519 0.0
H4360 H 0.82449 0.40905 0.62792 0.0
H4361 H 0.82421 0.3986 0.66505 0.0
H4362 H 0.81437 0.40418 0.65951 0.0
H4363 H 0.82431 0.41097 0.66334 0.0
C4364 C 0.79929 0.41776 0.63754 0.0
C4365 C 0.79977 0.42621 0.64254 0.0
C4366 C 0.80676 0.41153 0.63777 0.0
C4367 C 0.81482 0.41359 0.64305 0.0
C4368 C 0.81528 0.42196 0.64814 0.0
H4369 H 0.87043 0.39138 0.64888 0.0
H4370 H 0.85575 0.39996 0.6502 0.0
C4371 C 0.80782 0.42821 0.64791 0.0
C4372 C 0.823 0.40731 0.64272 0.0
H4373 H 0.83773 0.3945 0.65628 0.0
C4374 C 0.82733 0.40578 0.6341 0.0
C4375 C 0.82671 0.40311 0.65081 0.0
C4376 C 0.82212 0.40421 0.66019 0.0
C4377 C 0.83544 0.40037 0.63337 0.0
C4378 C 0.83921 0.39624 0.64147 0.0
C4379 C 0.83482 0.39767 0.65009 0.0
C4380 C 0.84788 0.39064 0.64115 0.0
C4381 C 0.84008 0.39939 0.62399 0.0
C4382 C 0.84825 0.38243 0.6358 0.0
C4383 C 0.85665 0.37756 0.63496 0.0
C4384 C 0.86482 0.38078 0.6395 0.0
C4385 C 0.86431 0.38881 0.64516 0.0
C4386 C 0.85591 0.39368 0.64598 0.0
H4387 H 0.83762 0.40474 0.61901 0.0
H4388 H 0.84781 0.39997 0.62467 0.0
H4389 H 0.83837 0.39244 0.62098 0.0
H4390 H 0.84208 0.37988 0.63214 0.0
H4391 H 0.8568 0.37144 0.6305 0.0
H4392 H 0.30793 0.07238 0.36853 0.0
H4393 H 0.32115 0.08323 0.36799 0.0
H4394 H 0.3123 0.09227 0.34076 0.0
H4395 H 0.29899 0.08141 0.34126 0.0
H4396 H 0.33549 0.08349 0.35533 0.0
H4397 H 0.31608 0.11687 0.35485 0.0
H4398 H 0.3106 0.10595 0.35786 0.0
H4399 H 0.31275 0.10869 0.34587 0.0
C4400 C 0.3088 0.07666 0.36241 0.0
C4401 C 0.30243 0.07602 0.35493 0.0
C4402 C 0.31634 0.08289 0.36214 0.0
C4403 C 0.31766 0.08862 0.35438 0.0
C4404 C 0.3113 0.08804 0.3469 0.0
H4405 H 0.37143 0.11639 0.34457 0.0
H4406 H 0.35708 0.10713 0.34259 0.0
C4407 C 0.30371 0.08183 0.34718 0.0
C4408 C 0.32591 0.09492 0.35407 0.0
H4409 H 0.33255 0.11778 0.35311 0.0
C4410 C 0.33485 0.09098 0.35482 0.0
C4411 C 0.32505 0.1047 0.35347 0.0
C4412 C 0.31561 0.10934 0.35305 0.0
C4413 C 0.34295 0.09655 0.35507 0.0
C4414 C 0.34211 0.10633 0.35436 0.0
C4415 C 0.33317 0.11028 0.35356 0.0
C4416 C 0.3504 0.11257 0.35497 0.0
C4417 C 0.35232 0.09193 0.35643 0.0
C4418 C 0.35123 0.11898 0.36236 0.0
C4419 C 0.35939 0.12432 0.36348 0.0
C4420 C 0.36687 0.12333 0.35722 0.0
C4421 C 0.36585 0.11718 0.3496 0.0
C4422 C 0.35767 0.11188 0.34846 0.0
H4423 H 0.35156 0.08472 0.35906 0.0
H4424 H 0.356 0.09158 0.34964 0.0
H4425 H 0.35678 0.09597 0.3614 0.0
H4426 H 0.3457 0.11963 0.36746 0.0
H4427 H 0.35998 0.12894 0.36946 0.0
H4428 H 0.67879 0.56763 0.132 0.0
H4429 H 0.66828 0.58088 0.13349 0.0
H4430 H 0.6849 0.59163 0.15641 0.0
H4431 H 0.6955 0.57832 0.15496 0.0
H4432 H 0.65784 0.58558 0.14918 0.0
H4433 H 0.68204 0.61426 0.13911 0.0
H4434 H 0.68455 0.60217 0.13672 0.0
H4435 H 0.686 0.60679 0.14831 0.0
C4436 C 0.68021 0.5728 0.13738 0.0
C4437 C 0.68794 0.5719 0.1434 0.0
C4438 C 0.67422 0.58038 0.13819 0.0
C4439 C 0.67585 0.58726 0.14501 0.0
C4440 C 0.68361 0.58647 0.15099 0.0
H4441 H 0.62987 0.62581 0.1571 0.0
H4442 H 0.64319 0.6154 0.1595 0.0
C4443 C 0.68964 0.57887 0.15017 0.0
C4444 C 0.66912 0.59501 0.14599 0.0
H4445 H 0.66661 0.61843 0.14309 0.0
C4446 C 0.65976 0.59278 0.14794 0.0
C4447 C 0.67167 0.60437 0.14431 0.0
C4448 C 0.68159 0.60709 0.14193 0.0
C4449 C 0.6528 0.59962 0.14798 0.0
C4450 C 0.65532 0.60898 0.14623 0.0
C4451 C 0.66473 0.61126 0.14451 0.0
C4452 C 0.64813 0.61631 0.1453 0.0
C4453 C 0.64275 0.59667 0.14946 0.0
C4454 C 0.64678 0.62062 0.13667 0.0
C4455 C 0.63924 0.62661 0.1353 0.0
C4456 C 0.6329 0.62838 0.14255 0.0
C4457 C 0.63456 0.62445 0.15134 0.0
C4458 C 0.64215 0.61851 0.15272 0.0
H4459 H 0.64179 0.58901 0.14874 0.0
H4460 H 0.64057 0.59871 0.1566 0.0
H4461 H 0.63803 0.60013 0.14442 0.0
H4462 H 0.65132 0.61902 0.13085 0.0
H4463 H 0.63812 0.62947 0.12843 0.0
H4464 H 0.17505 0.93684 0.85191 0.0
H4465 H 0.16442 0.92348 0.85162 0.0
H4466 H 0.18667 0.90586 0.86143 0.0
H4467 H 0.19727 0.91931 0.86215 0.0
H4468 H 0.16452 0.90644 0.8427 0.0
H4469 H 0.16666 0.90234 0.88117 0.0
H4470 H 0.17135 0.91239 0.87533 0.0
H4471 H 0.17761 0.90159 0.87514 0.0
C4472 C 0.17769 0.93014 0.85404 0.0
C4473 C 0.18697 0.92919 0.85722 0.0
C4474 C 0.17162 0.92248 0.85379 0.0
C4475 C 0.1747 0.91371 0.85667 0.0
C4476 C 0.1841 0.91261 0.85935 0.0
H4477 H 0.13568 0.86582 0.85228 0.0
H4478 H 0.14966 0.87559 0.85034 0.0
C4479 C 0.19018 0.92029 0.85966 0.0
C4480 C 0.16787 0.90592 0.85733 0.0
H4481 H 0.15664 0.89209 0.873 0.0
C4482 C 0.16285 0.90322 0.8493 0.0
C4483 C 0.16566 0.90181 0.86598 0.0
C4484 C 0.17053 0.90471 0.87492 0.0
C4485 C 0.15548 0.8967 0.84973 0.0
C4486 C 0.15321 0.89268 0.8584 0.0
C4487 C 0.15844 0.89516 0.86636 0.0
C4488 C 0.14491 0.88655 0.85957 0.0
C4489 C 0.14992 0.89453 0.841 0.0
C4490 C 0.13773 0.88936 0.86558 0.0
C4491 C 0.12983 0.88376 0.8668 0.0
C4492 C 0.12891 0.8752 0.86203 0.0
C4493 C 0.13617 0.87234 0.85608 0.0
C4494 C 0.14412 0.87796 0.85489 0.0
H4495 H 0.15133 0.89961 0.83538 0.0
H4496 H 0.15183 0.88751 0.83839 0.0
H4497 H 0.14229 0.8945 0.84247 0.0
H4498 H 0.13822 0.89594 0.8693 0.0
H4499 H 0.12448 0.88609 0.87158 0.0
H4500 H 0.86565 0.8043 0.57781 0.0
H4501 H 0.86238 0.81603 0.58981 0.0
H4502 H 0.84033 0.79865 0.60067 0.0
H4503 H 0.84344 0.78695 0.58862 0.0
H4504 H 0.84513 0.82549 0.59379 0.0
H4505 H 0.85754 0.80411 0.62344 0.0
H4506 H 0.86037 0.8014 0.61147 0.0
H4507 H 0.84901 0.79854 0.61597 0.0
C4508 C 0.86003 0.80301 0.58268 0.0
C4509 C 0.85484 0.79465 0.58228 0.0
C4510 C 0.85821 0.8097 0.58956 0.0
C4511 C 0.85121 0.80814 0.59619 0.0
C4512 C 0.84589 0.7999 0.59572 0.0
H4513 H 0.83113 0.83811 0.64464 0.0
H4514 H 0.83372 0.82706 0.63186 0.0
C4515 C 0.84769 0.79322 0.58884 0.0
C4516 C 0.84947 0.81512 0.60362 0.0
H4517 H 0.85018 0.81835 0.62721 0.0
C4518 C 0.84626 0.82396 0.6011 0.0
C4519 C 0.85096 0.81308 0.61313 0.0
C4520 C 0.85473 0.8038 0.6162 0.0
C4521 C 0.8443 0.83078 0.60788 0.0
C4522 C 0.84578 0.82873 0.6174 0.0
C4523 C 0.84903 0.81989 0.6199 0.0
C4524 C 0.84401 0.83563 0.62492 0.0
C4525 C 0.84045 0.84001 0.6048 0.0
C4526 C 0.84897 0.8441 0.62527 0.0
C4527 C 0.84751 0.85043 0.63257 0.0
C4528 C 0.84113 0.84835 0.6397 0.0
C4529 C 0.83617 0.83987 0.63931 0.0
C4530 C 0.83761 0.83357 0.632 0.0
H4531 H 0.83737 0.83957 0.59767 0.0
H4532 H 0.835 0.84254 0.60968 0.0
H4533 H 0.84621 0.84523 0.60469 0.0
H4534 H 0.85411 0.84574 0.62 0.0
H4535 H 0.85155 0.85684 0.63276 0.0
H4536 H 0.93649 0.1262 0.29109 0.0
H4537 H 0.92576 0.12757 0.30423 0.0
H4538 H 0.91554 0.15353 0.2934 0.0
H4539 H 0.92627 0.15221 0.28021 0.0
H4540 H 0.92521 0.1415 0.31748 0.0
H4541 H 0.89137 0.13899 0.29831 0.0
H4542 H 0.90239 0.13585 0.29308 0.0
H4543 H 0.8992 0.14788 0.29422 0.0
C4544 C 0.93197 0.13221 0.29151 0.0
C4545 C 0.93224 0.1391 0.28461 0.0
C4546 C 0.92581 0.13296 0.299 0.0
C4547 C 0.91977 0.14059 0.29974 0.0
C4548 C 0.91999 0.14748 0.29286 0.0
H4549 H 0.8922 0.15538 0.35201 0.0
H4550 H 0.90133 0.15591 0.33762 0.0
C4551 C 0.92614 0.14672 0.28534 0.0
C4552 C 0.91354 0.14146 0.30792 0.0
H4553 H 0.8906 0.14245 0.31447 0.0
C4554 C 0.91764 0.14173 0.31683 0.0
C4555 C 0.90367 0.14167 0.30704 0.0
C4556 C 0.89887 0.141 0.29766 0.0
C4557 C 0.91216 0.14216 0.32489 0.0
C4558 C 0.90229 0.14253 0.32402 0.0
C4559 C 0.89817 0.14227 0.31511 0.0
C4560 C 0.89614 0.1427 0.3323 0.0
C4561 C 0.91697 0.14194 0.33429 0.0
C4562 C 0.88992 0.13529 0.33389 0.0
C4563 C 0.88467 0.13499 0.34207 0.0
C4564 C 0.88554 0.14211 0.34882 0.0
C4565 C 0.8915 0.14972 0.34702 0.0
C4566 C 0.89672 0.15003 0.33882 0.0
H4567 H 0.92429 0.13944 0.33376 0.0
H4568 H 0.91717 0.14908 0.3373 0.0
H4569 H 0.9131 0.13738 0.33918 0.0
H4570 H 0.88936 0.12958 0.32894 0.0
H4571 H 0.88021 0.129 0.34328 0.0
H4572 H 0.65202 0.21872 0.0946 0.0
H4573 H 0.65521 0.2069 0.10637 0.0
H4574 H 0.63232 0.19016 0.09568 0.0
H4575 H 0.62904 0.20195 0.08393 0.0
H4576 H 0.64321 0.20025 0.12018 0.0
H4577 H 0.65409 0.17177 0.09631 0.0
H4578 H 0.65333 0.18373 0.09265 0.0
H4579 H 0.64291 0.1767 0.0935 0.0
C4580 C 0.64765 0.21253 0.09477 0.0
C4581 C 0.64029 0.21126 0.0883 0.0
C4582 C 0.64951 0.20578 0.10147 0.0
C4583 C 0.6441 0.1976 0.1018 0.0
C4584 C 0.63672 0.19632 0.0954 0.0
H4585 H 0.64152 0.14964 0.13781 0.0
H4586 H 0.63898 0.16148 0.12592 0.0
C4587 C 0.63486 0.20307 0.08869 0.0
C4588 C 0.64596 0.19054 0.10903 0.0
H4589 H 0.65164 0.16773 0.11214 0.0
C4590 C 0.64512 0.19316 0.11844 0.0
C4591 C 0.64843 0.18129 0.10672 0.0
C4592 C 0.64983 0.1782 0.09675 0.0
C4593 C 0.64647 0.1867 0.1256 0.0
C4594 C 0.64888 0.17744 0.12328 0.0
C4595 C 0.64977 0.17483 0.11388 0.0
C4596 C 0.65046 0.17031 0.13052 0.0
C4597 C 0.6451 0.18979 0.13558 0.0
C4598 C 0.65783 0.17132 0.13696 0.0
C4599 C 0.65933 0.16455 0.14373 0.0
C4600 C 0.65352 0.15661 0.14415 0.0
C4601 C 0.64619 0.15561 0.13762 0.0
C4602 C 0.64469 0.16238 0.13085 0.0
H4603 H 0.6411 0.19638 0.13604 0.0
H4604 H 0.64135 0.18436 0.1396 0.0
H4605 H 0.65204 0.19097 0.13891 0.0
H4606 H 0.66248 0.1773 0.13669 0.0
H4607 H 0.66515 0.16545 0.14854 0.0
H4608 H 0.55712 0.87362 0.81007 0.0
H4609 H 0.57122 0.87091 0.81939 0.0
H4610 H 0.58035 0.85037 0.7994 0.0
H4611 H 0.56621 0.85294 0.79007 0.0
H4612 H 0.57713 0.85391 0.8273 0.0
H4613 H 0.60321 0.86788 0.80234 0.0
H4614 H 0.59084 0.87027 0.80139 0.0
H4615 H 0.59533 0.85922 0.79764 0.0
C4616 C 0.5621 0.86848 0.80767 0.0
C4617 C 0.56054 0.8635 0.79932 0.0
C4618 C 0.57017 0.86699 0.81298 0.0
C4619 C 0.57687 0.86053 0.81002 0.0
C4620 C 0.57535 0.85552 0.80171 0.0
H4621 H 0.62962 0.84193 0.83378 0.0
H4622 H 0.61575 0.84427 0.82399 0.0
C4623 C 0.56727 0.857 0.79639 0.0
C4624 C 0.58532 0.85887 0.81579 0.0
H4625 H 0.60918 0.86059 0.81585 0.0
C4626 C 0.58414 0.85539 0.82482 0.0
C4627 C 0.59444 0.86078 0.8125 0.0
C4628 C 0.59608 0.86482 0.80297 0.0
C4629 C 0.59187 0.85366 0.83062 0.0
C4630 C 0.60099 0.85565 0.82737 0.0
C4631 C 0.60217 0.85908 0.81832 0.0
C4632 C 0.6094 0.8543 0.83329 0.0
C4633 C 0.5902 0.84955 0.84012 0.0
C4634 C 0.61049 0.85928 0.84169 0.0
C4635 C 0.61841 0.85798 0.84728 0.0
C4636 C 0.62543 0.85172 0.84455 0.0
C4637 C 0.62438 0.84685 0.83605 0.0
C4638 C 0.61645 0.84815 0.83047 0.0
H4639 H 0.58321 0.84613 0.84055 0.0
H4640 H 0.59565 0.84437 0.84187 0.0
H4641 H 0.59049 0.85519 0.84545 0.0
H4642 H 0.60524 0.86423 0.84389 0.0
H4643 H 0.61909 0.86196 0.8537 0.0
H4644 H 0.86147 0.20456 0.92277 0.0
H4645 H 0.85881 0.1942 0.90937 0.0
H4646 H 0.84011 0.17738 0.92579 0.0
H4647 H 0.84246 0.18787 0.9391 0.0
H4648 H 0.86341 0.17584 0.90914 0.0
H4649 H 0.82557 0.17946 0.90154 0.0
H4650 H 0.832 0.18774 0.90869 0.0
H4651 H 0.82788 0.17697 0.91356 0.0
C4652 C 0.85659 0.1988 0.92345 0.0
C4653 C 0.85219 0.19703 0.93201 0.0
C4654 C 0.85512 0.19286 0.91581 0.0
C4655 C 0.84918 0.18508 0.91655 0.0
C4656 C 0.84457 0.18345 0.92499 0.0
H4657 H 0.83935 0.13311 0.88879 0.0
H4658 H 0.83909 0.14714 0.89857 0.0
C4659 C 0.84603 0.18938 0.93264 0.0
C4660 C 0.84853 0.17816 0.90885 0.0
H4661 H 0.83305 0.16588 0.8952 0.0
C4662 C 0.85679 0.17377 0.90598 0.0
C4663 C 0.83988 0.17544 0.90476 0.0
C4664 C 0.83084 0.18021 0.90723 0.0
C4665 C 0.8566 0.16647 0.89943 0.0
C4666 C 0.84793 0.16358 0.89554 0.0
C4667 C 0.83968 0.16811 0.89821 0.0
C4668 C 0.84727 0.15549 0.8891 0.0
C4669 C 0.86565 0.16163 0.89704 0.0
C4670 C 0.85172 0.15564 0.88041 0.0
C4671 C 0.85195 0.14761 0.87483 0.0
C4672 C 0.84769 0.13931 0.87784 0.0
C4673 C 0.84284 0.13934 0.88635 0.0
C4674 C 0.84262 0.14736 0.89191 0.0
H4675 H 0.87136 0.16344 0.90203 0.0
H4676 H 0.86467 0.15396 0.89697 0.0
H4677 H 0.8679 0.16376 0.88998 0.0
H4678 H 0.85525 0.16188 0.87806 0.0
H4679 H 0.85579 0.14782 0.86835 0.0
H4680 H 0.56428 0.12503 0.69738 0.0
H4681 H 0.5785 0.12784 0.68838 0.0
H4682 H 0.57954 0.15615 0.6986 0.0
H4683 H 0.56536 0.15336 0.70769 0.0
H4684 H 0.58122 0.14035 0.67446 0.0
H4685 H 0.60608 0.14755 0.70357 0.0
H4686 H 0.59465 0.14246 0.70538 0.0
H4687 H 0.59588 0.15479 0.70366 0.0
C4688 C 0.56755 0.13185 0.69771 0.0
C4689 C 0.56371 0.13897 0.70325 0.0
C4690 C 0.57569 0.13344 0.6926 0.0
C4691 C 0.58016 0.14216 0.69291 0.0
C4692 C 0.57634 0.1493 0.69842 0.0
H4693 H 0.62788 0.16462 0.66257 0.0
H4694 H 0.61392 0.16266 0.67226 0.0
C4695 C 0.56823 0.1477 0.7036 0.0
C4696 C 0.58859 0.14386 0.68716 0.0
H4697 H 0.61168 0.15024 0.68827 0.0
C4698 C 0.58789 0.14248 0.67748 0.0
C4699 C 0.59728 0.14667 0.69113 0.0
C4700 C 0.59858 0.14788 0.70151 0.0
C4701 C 0.59561 0.14388 0.67165 0.0
C4702 C 0.60429 0.14665 0.67561 0.0
C4703 C 0.60499 0.14813 0.68527 0.0
C4704 C 0.61276 0.14782 0.66984 0.0
C4705 C 0.59442 0.14249 0.66127 0.0
C4706 C 0.61676 0.1401 0.66539 0.0
C4707 C 0.62471 0.14119 0.65986 0.0
C4708 C 0.6288 0.15003 0.65869 0.0
C4709 C 0.62482 0.15774 0.66325 0.0
C4710 C 0.61689 0.15663 0.66882 0.0
H4711 H 0.58693 0.14243 0.65915 0.0
H4712 H 0.59813 0.14804 0.65739 0.0
H4713 H 0.59749 0.13571 0.65922 0.0
H4714 H 0.61372 0.13322 0.66618 0.0
H4715 H 0.62757 0.13513 0.65639 0.0
H4716 H 0.62461 0.79462 0.41384 0.0
H4717 H 0.62799 0.80668 0.40238 0.0
H4718 H 0.65734 0.79985 0.40359 0.0
H4719 H 0.65399 0.7877 0.41498 0.0
H4720 H 0.6391 0.82214 0.40387 0.0
H4721 H 0.65225 0.79891 0.37582 0.0
H4722 H 0.64617 0.79454 0.38588 0.0
H4723 H 0.65836 0.79772 0.3867 0.0
C4724 C 0.63179 0.7957 0.41168 0.0
C4725 C 0.63903 0.79018 0.41527 0.0
C4726 C 0.63371 0.80257 0.40511 0.0
C4727 C 0.6429 0.80406 0.40201 0.0
C4728 C 0.65017 0.79866 0.4057 0.0
H4729 H 0.66722 0.84422 0.36379 0.0
H4730 H 0.66472 0.83254 0.3759 0.0
C4731 C 0.64824 0.79173 0.41222 0.0
C4732 C 0.64486 0.81141 0.39508 0.0
H4733 H 0.65392 0.81516 0.37343 0.0
C4734 C 0.64231 0.82061 0.39721 0.0
C4735 C 0.64907 0.8094 0.38638 0.0
C4736 C 0.65154 0.7996 0.3835 0.0
C4737 C 0.64391 0.82786 0.3909 0.0
C4738 C 0.64811 0.82583 0.38223 0.0
C4739 C 0.65074 0.81667 0.38012 0.0
C4740 C 0.6496 0.8331 0.37514 0.0
C4741 C 0.6412 0.83765 0.39358 0.0
C4742 C 0.64192 0.83722 0.3707 0.0
C4743 C 0.64332 0.84386 0.36378 0.0
C4744 C 0.65244 0.84652 0.3612 0.0
C4745 C 0.66012 0.8424 0.36571 0.0
C4746 C 0.65871 0.8357 0.37258 0.0
H4747 H 0.63993 0.83836 0.40118 0.0
H4748 H 0.64674 0.84268 0.39154 0.0
H4749 H 0.63466 0.83952 0.38984 0.0
H4750 H 0.63484 0.83521 0.37251 0.0
H4751 H 0.63727 0.84696 0.36047 0.0
H4752 H 0.94815 0.8683 0.18841 0.0
H4753 H 0.93521 0.86593 0.17745 0.0
H4754 H 0.91811 0.85493 0.19949 0.0
H4755 H 0.93113 0.85712 0.21055 0.0
H4756 H 0.92553 0.84857 0.17324 0.0
H4757 H 0.90211 0.87601 0.18755 0.0
H4758 H 0.91449 0.87577 0.19017 0.0
H4759 H 0.90671 0.8676 0.19556 0.0
C4760 C 0.94168 0.86527 0.19094 0.0
C4761 C 0.9407 0.86286 0.20036 0.0
C4762 C 0.93428 0.86398 0.18467 0.0
C4763 C 0.92571 0.86032 0.18768 0.0
C4764 C 0.92465 0.85788 0.19707 0.0
H4765 H 0.87547 0.85535 0.15191 0.0
H4766 H 0.88592 0.85398 0.16547 0.0
C4767 C 0.93208 0.85916 0.20337 0.0
C4768 C 0.91797 0.85904 0.18087 0.0
H4769 H 0.89705 0.86815 0.17398 0.0
C4770 C 0.91925 0.85277 0.17345 0.0
C4771 C 0.90976 0.86447 0.18123 0.0
C4772 C 0.90814 0.87139 0.18901 0.0
C4773 C 0.91266 0.852 0.16619 0.0
C4774 C 0.9047 0.8578 0.16628 0.0
C4775 C 0.90319 0.86374 0.17393 0.0
C4776 C 0.89834 0.85839 0.15811 0.0
C4777 C 0.91436 0.8451 0.15841 0.0
C4778 C 0.90185 0.86146 0.14956 0.0
C4779 C 0.89593 0.86232 0.14186 0.0
C4780 C 0.88634 0.86015 0.14254 0.0
C4781 C 0.88281 0.85713 0.15116 0.0
C4782 C 0.88877 0.85629 0.15889 0.0
H4783 H 0.91897 0.83935 0.16073 0.0
H4784 H 0.90768 0.84207 0.15576 0.0
H4785 H 0.91789 0.84869 0.15257 0.0
H4786 H 0.90917 0.86335 0.14888 0.0
H4787 H 0.89884 0.86489 0.13541 0.0
H4788 H 0.07246 0.6316 0.21201 0.0
H4789 H 0.08695 0.63402 0.20328 0.0
H4790 H 0.07267 0.65313 0.18515 0.0
H4791 H 0.05823 0.65092 0.19397 0.0
H4792 H 0.08944 0.6304 0.18411 0.0
H4793 H 0.09655 0.66751 0.19278 0.0
H4794 H 0.08857 0.66039 0.19942 0.0
H4795 H 0.08491 0.66521 0.18848 0.0
C4796 C 0.07245 0.63644 0.20627 0.0
C4797 C 0.0642 0.64108 0.20369 0.0
C4798 C 0.08071 0.63777 0.20126 0.0
C4799 C 0.0809 0.64383 0.19365 0.0
C4800 C 0.07271 0.64854 0.1911 0.0
H4801 H 0.12013 0.65935 0.15095 0.0
H4802 H 0.10676 0.65746 0.16135 0.0
C4803 C 0.06444 0.64719 0.19609 0.0
C4804 C 0.08953 0.64488 0.18806 0.0
H4805 H 0.10551 0.66087 0.1805 0.0
C4806 C 0.09302 0.63703 0.18338 0.0
C4807 C 0.09415 0.65356 0.18711 0.0
C4808 C 0.09092 0.66214 0.19228 0.0
C4809 C 0.10085 0.63768 0.17755 0.0
C4810 C 0.10541 0.64638 0.17652 0.0
C4811 C 0.10199 0.65421 0.18129 0.0
C4812 C 0.11361 0.64755 0.17034 0.0
C4813 C 0.10398 0.62911 0.1723 0.0
C4814 C 0.12194 0.6427 0.17202 0.0
C4815 C 0.12957 0.6437 0.16604 0.0
C4816 C 0.12903 0.64962 0.15829 0.0
C4817 C 0.12072 0.65461 0.15675 0.0
C4818 C 0.1131 0.65359 0.16273 0.0
H4819 H 0.09843 0.62365 0.17206 0.0
H4820 H 0.10597 0.63085 0.16505 0.0
H4821 H 0.11019 0.62615 0.17584 0.0
H4822 H 0.12253 0.63813 0.17795 0.0
H4823 H 0.13583 0.63972 0.1674 0.0
H4824 H 0.15449 0.28445 0.91074 0.0
H4825 H 0.15839 0.29661 0.89954 0.0
H4826 H 0.13336 0.31147 0.90705 0.0
H4827 H 0.12938 0.29933 0.91822 0.0
H4828 H 0.14794 0.30242 0.88426 0.0
H4829 H 0.15366 0.33157 0.90929 0.0
H4830 H 0.15321 0.31956 0.91287 0.0
H4831 H 0.14257 0.32578 0.91057 0.0
C4832 C 0.1498 0.29029 0.90999 0.0
C4833 C 0.14164 0.29094 0.9154 0.0
C4834 C 0.15207 0.29726 0.90362 0.0
C4835 C 0.14625 0.30501 0.90258 0.0
C4836 C 0.13807 0.30565 0.90792 0.0
H4837 H 0.14318 0.35213 0.86585 0.0
H4838 H 0.14091 0.34036 0.87786 0.0
C4839 C 0.13581 0.29871 0.91429 0.0
C4840 C 0.14853 0.31226 0.89564 0.0
H4841 H 0.15268 0.33555 0.89323 0.0
C4842 C 0.14906 0.30965 0.88622 0.0
C4843 C 0.14998 0.32169 0.89823 0.0
C4844 C 0.14992 0.32482 0.9083 0.0
C4845 C 0.15074 0.31626 0.87927 0.0
C4846 C 0.15207 0.3257 0.88185 0.0
C4847 C 0.15164 0.32831 0.89128 0.0
C4848 C 0.15372 0.33302 0.87482 0.0
C4849 C 0.15082 0.31314 0.8692 0.0
C4850 C 0.16177 0.33288 0.86927 0.0
C4851 C 0.16313 0.33963 0.86244 0.0
C4852 C 0.15646 0.34667 0.86106 0.0
C4853 C 0.1485 0.34689 0.8668 0.0
C4854 C 0.14716 0.34014 0.87363 0.0
H4855 H 0.14762 0.30612 0.86825 0.0
H4856 H 0.14699 0.31814 0.86474 0.0
H4857 H 0.15816 0.31282 0.86674 0.0
H4858 H 0.16701 0.32755 0.87022 0.0
H4859 H 0.16941 0.33936 0.85826 0.0
H4860 H 0.42873 0.36892 0.7121 0.0
H4861 H 0.41521 0.36733 0.70164 0.0
H4862 H 0.43231 0.35287 0.68159 0.0
H4863 H 0.44573 0.35409 0.69213 0.0
H4864 H 0.41392 0.37495 0.68471 0.0
H4865 H 0.40895 0.33692 0.68115 0.0
H4866 H 0.41601 0.34211 0.69033 0.0
H4867 H 0.42085 0.34025 0.6789 0.0
C4868 C 0.42955 0.36517 0.70557 0.0
C4869 C 0.43833 0.36166 0.70294 0.0
C4870 C 0.42182 0.36432 0.69958 0.0
C4871 C 0.4227 0.35988 0.69088 0.0
C4872 C 0.43139 0.35614 0.68835 0.0
H4873 H 0.39729 0.3707 0.63877 0.0
H4874 H 0.40654 0.3697 0.65306 0.0
C4875 C 0.4391 0.35697 0.69433 0.0
C4876 C 0.41489 0.35999 0.68403 0.0
H4877 H 0.40265 0.34625 0.66864 0.0
C4878 C 0.41134 0.36865 0.68132 0.0
C4879 C 0.4114 0.35178 0.67969 0.0
C4880 C 0.41443 0.34224 0.68274 0.0
C4881 C 0.40482 0.36936 0.67402 0.0
C4882 C 0.40191 0.36121 0.66919 0.0
C4883 C 0.40501 0.3525 0.67226 0.0
C4884 C 0.3962 0.36167 0.66055 0.0
C4885 C 0.40122 0.37886 0.67145 0.0
C4886 C 0.38743 0.35725 0.65993 0.0
C4887 C 0.38214 0.35772 0.6517 0.0
C4888 C 0.3856 0.36253 0.64393 0.0
C4889 C 0.39445 0.36685 0.64458 0.0
C4890 C 0.39971 0.36639 0.65278 0.0
H4891 H 0.40172 0.3838 0.67743 0.0
H4892 H 0.40554 0.3817 0.66571 0.0
H4893 H 0.39382 0.37848 0.66903 0.0
H4894 H 0.38464 0.3535 0.66583 0.0
H4895 H 0.37539 0.35423 0.65138 0.0
H4896 H 0.15761 0.71427 0.58797 0.0
H4897 H 0.16103 0.70206 0.59928 0.0
H4898 H 0.13297 0.6912 0.59592 0.0
H4899 H 0.12953 0.70333 0.58459 0.0
H4900 H 0.1526 0.69856 0.61596 0.0
H4901 H 0.14857 0.66798 0.59244 0.0
H4902 H 0.14951 0.67972 0.58814 0.0
H4903 H 0.13851 0.67538 0.59243 0.0
C4904 C 0.15217 0.70928 0.58965 0.0
C4905 C 0.14331 0.70973 0.58535 0.0
C4906 C 0.15415 0.70229 0.59608 0.0
C4907 C 0.14731 0.69562 0.59831 0.0
C4908 C 0.13843 0.69611 0.59411 0.0
H4909 H 0.14094 0.65201 0.63867 0.0
H4910 H 0.13911 0.66364 0.62642 0.0
C4911 C 0.13647 0.70306 0.58765 0.0
C4912 C 0.14933 0.68836 0.60532 0.0
H4913 H 0.14918 0.66486 0.60876 0.0
C4914 C 0.15195 0.69119 0.61436 0.0
C4915 C 0.14849 0.67875 0.60321 0.0
C4916 C 0.14621 0.67526 0.59351 0.0
C4917 C 0.15346 0.68467 0.62143 0.0
C4918 C 0.15242 0.67508 0.61936 0.0
C4919 C 0.14993 0.67223 0.61031 0.0
C4920 C 0.15367 0.6679 0.62659 0.0
C4921 C 0.1559 0.68808 0.63113 0.0
C4922 C 0.16249 0.66637 0.63062 0.0
C4923 C 0.16356 0.65974 0.63762 0.0
C4924 C 0.15581 0.65454 0.64071 0.0
C4925 C 0.14701 0.65599 0.63653 0.0
C4926 C 0.14596 0.66259 0.6295 0.0
H4927 H 0.15468 0.69567 0.63198 0.0
H4928 H 0.15173 0.68429 0.63641 0.0
H4929 H 0.16342 0.68673 0.63255 0.0
H4930 H 0.16854 0.67034 0.62839 0.0
H4931 H 0.17041 0.65883 0.64075 0.0
H4932 H 0.36496 0.28764 0.09309 0.0
H4933 H 0.36202 0.29959 0.10495 0.0
H4934 H 0.34489 0.3146 0.08541 0.0
H4935 H 0.3476 0.30256 0.07357 0.0
H4936 H 0.3661 0.31897 0.1039 0.0
H4937 H 0.32806 0.31205 0.10856 0.0
H4938 H 0.33575 0.30385 0.10292 0.0
H4939 H 0.3317 0.31389 0.09675 0.0
C4940 C 0.36047 0.29342 0.09135 0.0
C4941 C 0.35647 0.29412 0.0824 0.0
C4942 C 0.35885 0.30027 0.09811 0.0
C4943 C 0.35315 0.30791 0.09608 0.0
C4944 C 0.3492 0.30868 0.08715 0.0
H4945 H 0.33491 0.35531 0.1294 0.0
H4946 H 0.33791 0.34419 0.11676 0.0
C4947 C 0.35083 0.30185 0.08037 0.0
C4948 C 0.3515 0.31515 0.10328 0.0
H4949 H 0.33445 0.3251 0.11657 0.0
C4950 C 0.35919 0.32031 0.10669 0.0
C4951 C 0.34247 0.3169 0.10686 0.0
C4952 C 0.33402 0.31134 0.10366 0.0
C4953 C 0.35807 0.32724 0.11354 0.0
C4954 C 0.34905 0.32891 0.11721 0.0
C4955 C 0.34135 0.32381 0.11374 0.0
C4956 C 0.34748 0.33579 0.12479 0.0
C4957 C 0.36653 0.33281 0.11669 0.0
C4958 C 0.35181 0.33471 0.13351 0.0
C4959 C 0.35017 0.34108 0.14072 0.0
C4960 C 0.34409 0.34862 0.13937 0.0
C4961 C 0.33973 0.34966 0.13062 0.0
C4962 C 0.34138 0.34328 0.12341 0.0
H4963 H 0.37224 0.33252 0.11147 0.0
H4964 H 0.3647 0.34021 0.11796 0.0
H4965 H 0.36925 0.32989 0.1233 0.0
H4966 H 0.35641 0.32888 0.13477 0.0
H4967 H 0.3537 0.34011 0.14733 0.0
H4968 H 0.53073 0.38074 0.17156 0.0
H4969 H 0.54441 0.38266 0.16154 0.0
H4970 H 0.55412 0.40548 0.17885 0.0
H4971 H 0.54051 0.40353 0.18896 0.0
H4972 H 0.55109 0.39749 0.15127 0.0
H4973 H 0.57637 0.38801 0.17913 0.0
H4974 H 0.56391 0.38624 0.18028 0.0
H4975 H 0.56896 0.39762 0.18208 0.0
C4976 C 0.53573 0.38623 0.17317 0.0
C4977 C 0.5346 0.39193 0.18109 0.0
C4978 C 0.54355 0.3873 0.16746 0.0
C4979 C 0.55037 0.3941 0.16955 0.0
C4980 C 0.54907 0.40004 0.17724 0.0
H4981 H 0.60471 0.40597 0.14475 0.0
H4982 H 0.58994 0.4073 0.15324 0.0
C4983 C 0.54129 0.39893 0.183 0.0
C4984 C 0.55894 0.39479 0.16381 0.0
H4985 H 0.58275 0.39292 0.16482 0.0
C4986 C 0.55802 0.3965 0.15423 0.0
C4987 C 0.56797 0.39347 0.16769 0.0
C4988 C 0.5694 0.39115 0.17784 0.0
C4989 C 0.56589 0.39697 0.14842 0.0
C4990 C 0.57489 0.39561 0.15231 0.0
C4991 C 0.57583 0.39402 0.16189 0.0
C4992 C 0.58343 0.39536 0.14651 0.0
C4993 C 0.56454 0.39898 0.13821 0.0
C4994 C 0.58463 0.38823 0.13989 0.0
C4995 C 0.59305 0.38745 0.13505 0.0
C4996 C 0.60044 0.39378 0.13675 0.0
C4997 C 0.59912 0.40105 0.14321 0.0
C4998 C 0.59071 0.4018 0.1481 0.0
H4999 H 0.55761 0.40215 0.13679 0.0
H5000 H 0.57011 0.40372 0.13564 0.0
H5001 H 0.56493 0.39236 0.13418 0.0
H5002 H 0.57915 0.3831 0.13867 0.0
H5003 H 0.59384 0.38181 0.13006 0.0
H5004 H 0.9574 0.60517 0.67924 0.0
H5005 H 0.9479 0.60237 0.66521 0.0
H5006 H 0.93404 0.62862 0.66947 0.0
H5007 H 0.94364 0.63158 0.68336 0.0
H5008 H 0.92808 0.60143 0.66404 0.0
H5009 H 0.94251 0.6297 0.64212 0.0
H5010 H 0.94839 0.62563 0.65247 0.0
H5011 H 0.93866 0.63344 0.65344 0.0
C5012 C 0.95242 0.6104 0.67712 0.0
C5013 C 0.95129 0.61861 0.6824 0.0
C5014 C 0.94696 0.60877 0.66914 0.0
C5015 C 0.94036 0.61534 0.66625 0.0
C5016 C 0.9392 0.62353 0.6715 0.0
H5017 H 0.89879 0.61947 0.62254 0.0
H5018 H 0.9092 0.62179 0.63598 0.0
C5019 C 0.94462 0.62516 0.67949 0.0
C5020 C 0.93445 0.61352 0.65791 0.0
H5021 H 0.92876 0.62206 0.63649 0.0
C5022 C 0.92827 0.60589 0.65798 0.0
C5023 C 0.93471 0.61937 0.65004 0.0
C5024 C 0.94148 0.62745 0.64944 0.0
C5025 C 0.92215 0.60408 0.65047 0.0
C5026 C 0.92236 0.60998 0.64263 0.0
C5027 C 0.92861 0.61756 0.64253 0.0
C5028 C 0.91606 0.60849 0.6345 0.0
C5029 C 0.91534 0.59604 0.65112 0.0
C5030 C 0.91656 0.60028 0.62915 0.0
C5031 C 0.91064 0.59895 0.62146 0.0
C5032 C 0.90416 0.60583 0.61892 0.0
C5033 C 0.90376 0.61408 0.62425 0.0
C5034 C 0.90967 0.6154 0.63195 0.0
H5035 H 0.91445 0.59369 0.65842 0.0
H5036 H 0.90837 0.59796 0.64827 0.0
H5037 H 0.91801 0.59008 0.64697 0.0
H5038 H 0.92159 0.59495 0.63087 0.0
H5039 H 0.91124 0.59259 0.6174 0.0
H5040 H 0.59515 0.31857 0.55904 0.0
H5041 H 0.59517 0.32959 0.57214 0.0
H5042 H 0.61846 0.34433 0.56002 0.0
H5043 H 0.61842 0.3334 0.54687 0.0
H5044 H 0.60915 0.33275 0.58462 0.0
H5045 H 0.60104 0.36553 0.56628 0.0
H5046 H 0.59947 0.35423 0.56089 0.0
H5047 H 0.6109 0.35956 0.56144 0.0
C5048 C 0.60024 0.32419 0.55915 0.0
C5049 C 0.60677 0.32513 0.55191 0.0
C5050 C 0.60022 0.3305 0.56662 0.0
C5051 C 0.60671 0.33788 0.56699 0.0
C5052 C 0.61321 0.33885 0.55975 0.0
H5053 H 0.62572 0.37721 0.6088 0.0
H5054 H 0.62314 0.36765 0.59478 0.0
C5055 C 0.6132 0.33258 0.55226 0.0
C5056 C 0.60709 0.34418 0.57523 0.0
H5057 H 0.60679 0.36706 0.58193 0.0
C5058 C 0.60853 0.34024 0.58405 0.0
C5059 C 0.60629 0.35396 0.57446 0.0
C5060 C 0.60425 0.35857 0.56527 0.0
C5061 C 0.60945 0.34583 0.59207 0.0
C5062 C 0.60882 0.3556 0.59127 0.0
C5063 C 0.60728 0.35956 0.58249 0.0
C5064 C 0.61 0.36182 0.59947 0.0
C5065 C 0.61134 0.34126 0.60132 0.0
C5066 C 0.60336 0.36182 0.60664 0.0
C5067 C 0.60482 0.36726 0.61465 0.0
C5068 C 0.61295 0.37278 0.61563 0.0
C5069 C 0.61945 0.37294 0.6083 0.0
C5070 C 0.61796 0.36754 0.60028 0.0
H5071 H 0.61334 0.33384 0.60048 0.0
H5072 H 0.61702 0.345 0.60515 0.0
H5073 H 0.60493 0.34156 0.60564 0.0
H5074 H 0.59713 0.35751 0.60609 0.0
H5075 H 0.59971 0.36694 0.62019 0.0
H5076 H 0.43552 0.62633 0.79281 0.0
H5077 H 0.42488 0.62756 0.80604 0.0
H5078 H 0.41561 0.6543 0.79631 0.0
H5079 H 0.42626 0.65312 0.78302 0.0
H5080 H 0.4249 0.64103 0.81983 0.0
H5081 H 0.39094 0.64039 0.80074 0.0
H5082 H 0.40182 0.63705 0.79536 0.0
H5083 H 0.39909 0.64914 0.79696 0.0
C5084 C 0.43124 0.63249 0.79349 0.0
C5085 C 0.43175 0.63963 0.78688 0.0
C5086 C 0.42513 0.63316 0.80103 0.0
C5087 C 0.41938 0.64097 0.8021 0.0
C5088 C 0.41984 0.64812 0.79551 0.0
H5089 H 0.39252 0.65449 0.85508 0.0
H5090 H 0.40152 0.65538 0.84063 0.0
C5091 C 0.42594 0.64744 0.78793 0.0
C5092 C 0.41321 0.64173 0.81034 0.0
H5093 H 0.39034 0.64317 0.81703 0.0
C5094 C 0.41735 0.64152 0.81922 0.0
C5095 C 0.40335 0.64229 0.80951 0.0
C5096 C 0.3985 0.64215 0.80014 0.0
C5097 C 0.4119 0.64181 0.82732 0.0
C5098 C 0.40205 0.64251 0.82651 0.0
C5099 C 0.3979 0.64274 0.81762 0.0
C5100 C 0.39595 0.64252 0.83483 0.0
C5101 C 0.41673 0.64106 0.83667 0.0
C5102 C 0.38955 0.63521 0.83618 0.0
C5103 C 0.38437 0.63471 0.8444 0.0
C5104 C 0.3855 0.64152 0.85142 0.0
C5105 C 0.39162 0.64905 0.84987 0.0
C5106 C 0.39677 0.64957 0.84162 0.0
H5107 H 0.42398 0.63837 0.83601 0.0
H5108 H 0.41715 0.64806 0.83998 0.0
H5109 H 0.41275 0.63641 0.84138 0.0
H5110 H 0.3888 0.62971 0.83101 0.0
H5111 H 0.37977 0.62878 0.84541 0.0
H5112 H 0.0688 0.36455 0.28714 0.0
H5113 H 0.0831 0.36136 0.29599 0.0
H5114 H 0.06662 0.3494 0.318 0.0
H5115 H 0.05231 0.35225 0.30907 0.0
H5116 H 0.08795 0.36818 0.31333 0.0
H5117 H 0.08649 0.32961 0.31362 0.0
H5118 H 0.0794 0.33648 0.30584 0.0
H5119 H 0.07597 0.33497 0.31778 0.0
C5120 C 0.06822 0.36108 0.29379 0.0
C5121 C 0.05941 0.35863 0.29738 0.0
C5122 C 0.0764 0.35933 0.29886 0.0
C5123 C 0.07593 0.35503 0.30759 0.0
C5124 C 0.06715 0.35256 0.3112 0.0
H5125 H 0.11728 0.35688 0.35183 0.0
H5126 H 0.10359 0.35877 0.34175 0.0
C5127 C 0.05898 0.3543 0.30613 0.0
C5128 C 0.08458 0.35355 0.31313 0.0
H5129 H 0.09745 0.33686 0.32404 0.0
C5130 C 0.09007 0.36133 0.31562 0.0
C5131 C 0.08738 0.34459 0.31601 0.0
C5132 C 0.08206 0.33592 0.3131 0.0
C5133 C 0.09816 0.36042 0.32112 0.0
C5134 C 0.10073 0.35151 0.32435 0.0
C5135 C 0.09539 0.3437 0.32165 0.0
C5136 C 0.10894 0.35017 0.33055 0.0
C5137 C 0.10393 0.369 0.32335 0.0
C5138 C 0.11636 0.34447 0.32772 0.0
C5139 C 0.12415 0.34327 0.33353 0.0
C5140 C 0.12464 0.34771 0.3423 0.0
C5141 C 0.11711 0.35329 0.34516 0.0
C5142 C 0.10932 0.35448 0.33936 0.0
H5143 H 0.10254 0.37469 0.31833 0.0
H5144 H 0.10211 0.37158 0.33042 0.0
H5145 H 0.11154 0.36743 0.32327 0.0
H5146 H 0.11616 0.34102 0.32098 0.0
H5147 H 0.12976 0.33881 0.33117 0.0
H5148 H 0.34413 0.688 0.43788 0.0
H5149 H 0.34222 0.67758 0.42442 0.0
H5150 H 0.36202 0.69409 0.40899 0.0
H5151 H 0.3642 0.70439 0.42251 0.0
H5152 H 0.33693 0.6808 0.40547 0.0
H5153 H 0.37341 0.66781 0.40891 0.0
H5154 H 0.36779 0.67446 0.418 0.0
H5155 H 0.37224 0.6802 0.40785 0.0
C5156 C 0.34809 0.68941 0.43162 0.0
C5157 C 0.35441 0.69696 0.43131 0.0
C5158 C 0.34693 0.6835 0.42392 0.0
C5159 C 0.35209 0.68499 0.41577 0.0
C5160 C 0.35808 0.69275 0.41527 0.0
H5161 H 0.35981 0.64708 0.36861 0.0
H5162 H 0.35956 0.66123 0.37822 0.0
C5163 C 0.35925 0.69867 0.42298 0.0
C5164 C 0.35154 0.67812 0.40803 0.0
H5165 H 0.36427 0.66156 0.39669 0.0
C5166 C 0.34291 0.67663 0.4035 0.0
C5167 C 0.35936 0.6727 0.40548 0.0
C5168 C 0.36872 0.67378 0.41034 0.0
C5169 C 0.34189 0.66978 0.3965 0.0
C5170 C 0.34966 0.6642 0.39413 0.0
C5171 C 0.35833 0.66587 0.3985 0.0
C5172 C 0.34887 0.65619 0.38758 0.0
C5173 C 0.33252 0.66861 0.39172 0.0
C5174 C 0.34287 0.6487 0.38959 0.0
C5175 C 0.34296 0.64064 0.38409 0.0
C5176 C 0.34912 0.63986 0.3765 0.0
C5177 C 0.35491 0.64749 0.37433 0.0
C5178 C 0.35481 0.65556 0.37984 0.0
H5179 H 0.32834 0.67509 0.39214 0.0
H5180 H 0.33336 0.66662 0.38428 0.0
H5181 H 0.3285 0.66301 0.39522 0.0
H5182 H 0.33837 0.64895 0.39563 0.0
H5183 H 0.33835 0.63492 0.38589 0.0
H5184 H 0.10072 0.30514 0.99473 0.0
H5185 H 0.09704 0.31293 0.00945 0.0
H5186 H 0.11157 0.29153 0.02453 0.0
H5187 H 0.1156 0.28386 0.0098 0.0
H5188 H 0.08757 0.30725 0.02542 0.0
H5189 H 0.12495 0.31546 0.03297 0.0
H5190 H 0.12098 0.3113 0.02172 0.0
H5191 H 0.12244 0.30331 0.03118 0.0
C5192 C 0.10317 0.3021 0.00117 0.0
C5193 C 0.10858 0.29394 0.00108 0.0
C5194 C 0.10098 0.30652 0.00958 0.0
C5195 C 0.10417 0.3029 0.01806 0.0
C5196 C 0.10919 0.29453 0.01804 0.0
H5197 H 0.08901 0.32265 0.07369 0.0
H5198 H 0.09006 0.31367 0.05916 0.0
C5199 C 0.1114 0.2901 0.00962 0.0
C5200 C 0.10257 0.30813 0.02686 0.0
H5201 H 0.11401 0.31959 0.04453 0.0
C5202 C 0.09334 0.30994 0.02963 0.0
C5203 C 0.11012 0.31174 0.03223 0.0
C5204 C 0.12018 0.31045 0.02936 0.0
C5205 C 0.09145 0.31523 0.03767 0.0
C5206 C 0.099 0.31869 0.04314 0.0
C5207 C 0.10823 0.31689 0.04035 0.0
C5208 C 0.09758 0.32437 0.05168 0.0
C5209 C 0.08141 0.31727 0.04013 0.0
C5210 C 0.10146 0.33336 0.05231 0.0
C5211 C 0.10091 0.33848 0.06061 0.0
C5212 C 0.09647 0.3347 0.06846 0.0
C5213 C 0.09235 0.3258 0.06773 0.0
C5214 C 0.09294 0.32066 0.05943 0.0
H5215 H 0.07663 0.31616 0.03407 0.0
H5216 H 0.07915 0.31254 0.04577 0.0
H5217 H 0.08066 0.32455 0.04267 0.0
H5218 H 0.10507 0.33635 0.04642 0.0
H5219 H 0.10407 0.34535 0.06092 0.0
H5220 H 0.94395 0.86088 0.29369 0.0
H5221 H 0.94094 0.86068 0.31042 0.0
H5222 H 0.967 0.87523 0.31556 0.0
H5223 H 0.96989 0.87582 0.29877 0.0
H5224 H 0.95112 0.8531 0.32486 0.0
H5225 H 0.9482 0.89142 0.32931 0.0
H5226 H 0.94815 0.88583 0.318 0.0
H5227 H 0.95899 0.88763 0.32421 0.0
C5228 C 0.94899 0.86415 0.29835 0.0
C5229 C 0.95711 0.86848 0.29486 0.0
C5230 C 0.9473 0.86395 0.30793 0.0
C5231 C 0.95366 0.86807 0.31423 0.0
C5232 C 0.9619 0.87217 0.31081 0.0
H5233 H 0.95154 0.87531 0.37458 0.0
H5234 H 0.95669 0.87429 0.35837 0.0
C5235 C 0.96359 0.87241 0.30121 0.0
C5236 C 0.95161 0.86807 0.32435 0.0
H5237 H 0.94748 0.8824 0.34298 0.0
C5238 C 0.95033 0.8595 0.32882 0.0
C5239 C 0.95058 0.87644 0.32952 0.0
C5240 C 0.95147 0.88586 0.32502 0.0
C5241 C 0.94807 0.85907 0.33833 0.0
C5242 C 0.94696 0.86743 0.34345 0.0
C5243 C 0.94837 0.876 0.33902 0.0
C5244 C 0.94405 0.86749 0.35335 0.0
C5245 C 0.94697 0.84968 0.34283 0.0
C5246 C 0.93523 0.86401 0.3559 0.0
C5247 C 0.93223 0.86464 0.36515 0.0
C5248 C 0.93798 0.86882 0.37202 0.0
C5249 C 0.94688 0.87216 0.36945 0.0
C5250 C 0.94986 0.87155 0.3602 0.0
H5251 H 0.95039 0.8441 0.33868 0.0
H5252 H 0.94999 0.84973 0.34998 0.0
H5253 H 0.93941 0.84794 0.34334 0.0
H5254 H 0.93055 0.86103 0.35069 0.0
H5255 H 0.92528 0.86214 0.36684 0.0
H5256 H 0.39552 0.72307 0.51808 0.0
H5257 H 0.40026 0.71215 0.53022 0.0
H5258 H 0.37318 0.69876 0.52856 0.0
H5259 H 0.36836 0.70967 0.51648 0.0
H5260 H 0.39232 0.70794 0.54782 0.0
H5261 H 0.3916 0.6774 0.52382 0.0
H5262 H 0.39134 0.68923 0.5197 0.0
H5263 H 0.38089 0.68387 0.52415 0.0
C5264 C 0.39052 0.71788 0.52039 0.0
C5265 C 0.38158 0.71719 0.51625 0.0
C5266 C 0.39326 0.71162 0.52729 0.0
C5267 C 0.38713 0.70455 0.53016 0.0
C5268 C 0.37809 0.70404 0.5263 0.0
H5269 H 0.39206 0.65731 0.56704 0.0
H5270 H 0.38642 0.66971 0.55693 0.0
C5271 C 0.37535 0.71028 0.51939 0.0
C5272 C 0.39024 0.69758 0.53706 0.0
H5273 H 0.3941 0.67433 0.53981 0.0
C5274 C 0.39274 0.70059 0.54608 0.0
C5275 C 0.39079 0.688 0.53476 0.0
C5276 C 0.3886 0.68441 0.52506 0.0
C5277 C 0.39562 0.69425 0.55291 0.0
C5278 C 0.39614 0.68467 0.5506 0.0
C5279 C 0.39365 0.68167 0.54158 0.0
C5280 C 0.39936 0.67761 0.55736 0.0
C5281 C 0.39789 0.69781 0.56258 0.0
C5282 C 0.40851 0.67796 0.56099 0.0
C5283 C 0.41174 0.6709 0.56682 0.0
C5284 C 0.4059 0.66333 0.56909 0.0
C5285 C 0.39669 0.6631 0.56555 0.0
C5286 C 0.39347 0.67015 0.55972 0.0
H5287 H 0.39482 0.70479 0.56389 0.0
H5288 H 0.39529 0.69294 0.56796 0.0
H5289 H 0.40561 0.69844 0.56338 0.0
H5290 H 0.41323 0.68356 0.55913 0.0
H5291 H 0.41885 0.67133 0.56948 0.0
H5292 H 0.53964 0.14799 0.79543 0.0
H5293 H 0.54416 0.14891 0.81191 0.0
H5294 H 0.54883 0.11929 0.81206 0.0
H5295 H 0.54436 0.11832 0.79558 0.0
H5296 H 0.53777 0.13994 0.82833 0.0
H5297 H 0.57436 0.13044 0.81953 0.0
H5298 H 0.56589 0.13372 0.8108 0.0
H5299 H 0.56564 0.12221 0.81561 0.0
C5300 C 0.54147 0.14165 0.79901 0.0
C5301 C 0.54175 0.1331 0.79418 0.0
C5302 C 0.54407 0.14219 0.80842 0.0
C5303 C 0.54699 0.1342 0.81314 0.0
C5304 C 0.54679 0.12557 0.80848 0.0
H5305 H 0.5751 0.12674 0.86629 0.0
H5306 H 0.56588 0.12408 0.85212 0.0
C5307 C 0.54424 0.12503 0.79907 0.0
C5308 C 0.5508 0.13497 0.82275 0.0
H5309 H 0.57083 0.13217 0.83547 0.0
C5310 C 0.54499 0.13823 0.82992 0.0
C5311 C 0.56023 0.13277 0.82477 0.0
C5312 C 0.56693 0.12967 0.81727 0.0
C5313 C 0.54836 0.13925 0.8391 0.0
C5314 C 0.5578 0.13708 0.8411 0.0
C5315 C 0.56357 0.13376 0.83393 0.0
C5316 C 0.56206 0.13852 0.85045 0.0
C5317 C 0.54177 0.14255 0.8466 0.0
C5318 C 0.56281 0.1475 0.85432 0.0
C5319 C 0.56803 0.14904 0.86248 0.0
C5320 C 0.57265 0.14163 0.86687 0.0
C5321 C 0.57154 0.13259 0.86318 0.0
C5322 C 0.56632 0.13106 0.85503 0.0
H5323 H 0.53433 0.14142 0.84456 0.0
H5324 H 0.54313 0.13892 0.85327 0.0
H5325 H 0.54287 0.15012 0.84779 0.0
H5326 H 0.55972 0.15338 0.85082 0.0
H5327 H 0.56868 0.15607 0.86518 0.0
H5328 H 0.10753 0.71858 0.49228 0.0
H5329 H 0.10193 0.7108 0.47803 0.0
H5330 H 0.10883 0.68415 0.48977 0.0
H5331 H 0.114 0.6918 0.50414 0.0
H5332 H 0.11201 0.70025 0.46615 0.0
H5333 H 0.08282 0.67904 0.47991 0.0
H5334 H 0.08815 0.68845 0.48652 0.0
H5335 H 0.09351 0.67714 0.48621 0.0
C5336 C 0.10767 0.71105 0.4919 0.0
C5337 C 0.11123 0.70582 0.49936 0.0
C5338 C 0.10452 0.70662 0.48373 0.0
C5339 C 0.10481 0.69688 0.48289 0.0
C5340 C 0.10832 0.69165 0.49033 0.0
H5341 H 0.10347 0.6551 0.44046 0.0
H5342 H 0.10409 0.66444 0.45481 0.0
C5343 C 0.11142 0.69606 0.4985 0.0
C5344 C 0.1021 0.69219 0.47402 0.0
H5345 H 0.08891 0.6743 0.46499 0.0
C5346 C 0.10684 0.69469 0.46586 0.0
C5347 C 0.09534 0.68493 0.47365 0.0
C5348 C 0.08959 0.6823 0.48203 0.0
C5349 C 0.10533 0.68984 0.45744 0.0
C5350 C 0.09885 0.68236 0.45718 0.0
C5351 C 0.0939 0.68003 0.46525 0.0
C5352 C 0.0976 0.67652 0.44872 0.0
C5353 C 0.11096 0.69249 0.44899 0.0
C5354 C 0.09352 0.68017 0.44063 0.0
C5355 C 0.09315 0.67486 0.43242 0.0
C5356 C 0.09689 0.66582 0.43217 0.0
C5357 C 0.10063 0.66208 0.44041 0.0
C5358 C 0.10095 0.66738 0.44861 0.0
H5359 H 0.11669 0.69749 0.45072 0.0
H5360 H 0.11404 0.68621 0.44569 0.0
H5361 H 0.10627 0.69577 0.44378 0.0
H5362 H 0.09082 0.6872 0.44061 0.0
H5363 H 0.09028 0.67795 0.42618 0.0
H5364 H 0.54812 0.85083 0.70871 0.0
H5365 H 0.55137 0.84989 0.69205 0.0
H5366 H 0.53439 0.87414 0.68739 0.0
H5367 H 0.53135 0.87532 0.70416 0.0
H5368 H 0.53951 0.84819 0.67647 0.0
H5369 H 0.55974 0.88147 0.67622 0.0
H5370 H 0.55659 0.87573 0.6869 0.0
H5371 H 0.54795 0.88209 0.68047 0.0
C5372 C 0.54511 0.856 0.70416 0.0
C5373 C 0.5396 0.86324 0.70779 0.0
C5374 C 0.5469 0.85541 0.69463 0.0
C5375 C 0.54324 0.86203 0.68851 0.0
C5376 C 0.53742 0.86905 0.69202 0.0
H5377 H 0.56146 0.86766 0.63028 0.0
H5378 H 0.55187 0.86947 0.64428 0.0
C5379 C 0.53562 0.86966 0.70159 0.0
C5380 C 0.54589 0.86168 0.67853 0.0
H5381 H 0.55912 0.87286 0.66227 0.0
C5382 C 0.5437 0.85363 0.67332 0.0
C5383 C 0.55133 0.86881 0.67443 0.0
C5384 C 0.55412 0.8775 0.67978 0.0
C5385 C 0.54705 0.85239 0.66422 0.0
C5386 C 0.55285 0.85932 0.66029 0.0
C5387 C 0.55466 0.86757 0.66531 0.0
C5388 C 0.55793 0.85775 0.65144 0.0
C5389 C 0.54449 0.8436 0.65895 0.0
C5390 C 0.56452 0.85058 0.65084 0.0
C5391 C 0.57007 0.84959 0.64293 0.0
C5392 C 0.56917 0.85577 0.63542 0.0
C5393 C 0.5624 0.86283 0.63596 0.0
C5394 C 0.55687 0.86385 0.64393 0.0
H5395 H 0.53786 0.84052 0.66156 0.0
H5396 H 0.54374 0.84493 0.65137 0.0
H5397 H 0.55012 0.8384 0.65994 0.0
H5398 H 0.56563 0.84596 0.65666 0.0
H5399 H 0.57535 0.84422 0.64289 0.0
H5400 H 0.37532 0.29038 0.9856 0.0
H5401 H 0.38078 0.29779 0.97125 0.0
H5402 H 0.40191 0.31279 0.987 0.0
H5403 H 0.39668 0.30528 0.00126 0.0
H5404 H 0.38109 0.31683 0.96776 0.0
H5405 H 0.41681 0.3024 0.96517 0.0
H5406 H 0.40792 0.29733 0.97249 0.0
H5407 H 0.41452 0.30734 0.97644 0.0
C5408 C 0.38125 0.29512 0.98597 0.0
C5409 C 0.38556 0.29726 0.99457 0.0
C5410 C 0.38432 0.29938 0.97778 0.0
C5411 C 0.39183 0.30574 0.97804 0.0
C5412 C 0.39622 0.30777 0.9866 0.0
H5413 H 0.41843 0.34793 0.94675 0.0
H5414 H 0.41303 0.33622 0.95772 0.0
C5415 C 0.39315 0.30355 0.99477 0.0
C5416 C 0.39473 0.31079 0.96954 0.0
H5417 H 0.41388 0.31637 0.95654 0.0
C5418 C 0.38821 0.31661 0.96518 0.0
C5419 C 0.40402 0.31047 0.96619 0.0
C5420 C 0.41119 0.30398 0.97026 0.0
C5421 C 0.39088 0.32253 0.9579 0.0
C5422 C 0.40027 0.3225 0.95483 0.0
C5423 C 0.40669 0.3164 0.95894 0.0
C5424 C 0.40376 0.32926 0.94789 0.0
C5425 C 0.38375 0.3291 0.95387 0.0
C5426 C 0.40043 0.32915 0.93867 0.0
C5427 C 0.40356 0.33582 0.93232 0.0
C5428 C 0.4101 0.3427 0.93509 0.0
C5429 C 0.41351 0.34266 0.94431 0.0
C5430 C 0.4104 0.33599 0.95063 0.0
H5431 H 0.37728 0.32941 0.95813 0.0
H5432 H 0.38673 0.33623 0.95333 0.0
H5433 H 0.38177 0.32671 0.94675 0.0
H5434 H 0.39542 0.32391 0.93638 0.0
H5435 H 0.40089 0.33558 0.92525 0.0
H5436 H 0.98158 0.12522 0.19363 0.0
H5437 H 0.97546 0.12595 0.17771 0.0
H5438 H 0.95303 0.1436 0.1871 0.0
H5439 H 0.95934 0.14325 0.20295 0.0
H5440 H 0.9584 0.11999 0.17141 0.0
H5441 H 0.96247 0.15775 0.16471 0.0
H5442 H 0.96811 0.15209 0.1744 0.0
H5443 H 0.95597 0.15527 0.17507 0.0
C5444 C 0.97546 0.12942 0.19228 0.0
C5445 C 0.97098 0.1342 0.19958 0.0
C5446 C 0.97193 0.12977 0.18318 0.0
C5447 C 0.96386 0.13494 0.18118 0.0
C5448 C 0.95937 0.13973 0.18843 0.0
H5449 H 0.92788 0.14001 0.13252 0.0
H5450 H 0.93507 0.14103 0.14804 0.0
C5451 C 0.96292 0.13941 0.19753 0.0
C5452 C 0.95989 0.13491 0.1716 0.0
H5453 H 0.9533 0.14905 0.15371 0.0
C5454 C 0.95735 0.12634 0.16752 0.0
C5455 C 0.9585 0.14321 0.16653 0.0
C5456 C 0.96148 0.1526 0.17035 0.0
C5457 C 0.95332 0.12584 0.15858 0.0
C5458 C 0.95188 0.13413 0.15356 0.0
C5459 C 0.95441 0.14271 0.15761 0.0
C5460 C 0.94779 0.13399 0.14405 0.0
C5461 C 0.95047 0.11646 0.15465 0.0
C5462 C 0.95267 0.12989 0.13664 0.0
C5463 C 0.94863 0.12937 0.12776 0.0
C5464 C 0.93962 0.13293 0.12611 0.0
C5465 C 0.93486 0.13727 0.13352 0.0
C5466 C 0.93893 0.13782 0.1424 0.0
H5467 H 0.9502 0.11104 0.16011 0.0
H5468 H 0.9435 0.11684 0.1512 0.0
H5469 H 0.95564 0.11426 0.14933 0.0
H5470 H 0.95959 0.12704 0.13775 0.0
H5471 H 0.95257 0.12615 0.12218 0.0
H5472 H 0.02411 0.13421 0.29185 0.0
H5473 H 0.03794 0.12897 0.30041 0.0
H5474 H 0.03548 0.10194 0.2873 0.0
H5475 H 0.02156 0.10708 0.2788 0.0
H5476 H 0.03741 0.11376 0.31287 0.0
H5477 H 0.06369 0.10838 0.28495 0.0
H5478 H 0.05343 0.11549 0.28336 0.0
H5479 H 0.05244 0.10303 0.28292 0.0
C5480 C 0.02654 0.12716 0.29074 0.0
C5481 C 0.02169 0.12104 0.28468 0.0
C5482 C 0.03447 0.1242 0.29559 0.0
C5483 C 0.03777 0.1151 0.29443 0.0
C5484 C 0.03315 0.10905 0.28816 0.0
H5485 H 0.07935 0.08208 0.32341 0.0
H5486 H 0.06772 0.08808 0.31244 0.0
C5487 C 0.0252 0.112 0.28331 0.0
C5488 C 0.0455 0.1117 0.30042 0.0
H5489 H 0.06773 0.10306 0.30007 0.0
C5490 C 0.04406 0.11147 0.31008 0.0
C5491 C 0.05412 0.10864 0.29674 0.0
C5492 C 0.05609 0.10894 0.28643 0.0
C5493 C 0.05096 0.10816 0.31617 0.0
C5494 C 0.05965 0.1052 0.31252 0.0
C5495 C 0.06108 0.10538 0.30285 0.0
C5496 C 0.06726 0.10183 0.31869 0.0
C5497 C 0.04879 0.10764 0.32644 0.0
C5498 C 0.07105 0.10764 0.32567 0.0
C5499 C 0.0776 0.10421 0.33202 0.0
C5500 C 0.08058 0.0949 0.33146 0.0
C5501 C 0.07709 0.08923 0.32416 0.0
C5502 C 0.0705 0.09266 0.31783 0.0
H5503 H 0.04113 0.10774 0.32774 0.0
H5504 H 0.05173 0.10123 0.32955 0.0
H5505 H 0.05196 0.11374 0.33008 0.0
H5506 H 0.06878 0.11479 0.32634 0.0
H5507 H 0.08005 0.10877 0.33757 0.0
H5508 H 0.11728 0.79751 0.53914 0.0
H5509 H 0.11892 0.81343 0.54521 0.0
H5510 H 0.14432 0.80575 0.55951 0.0
H5511 H 0.14294 0.78997 0.55322 0.0
H5512 H 0.11892 0.81864 0.56353 0.0
H5513 H 0.15214 0.82989 0.54735 0.0
H5514 H 0.14565 0.81979 0.54332 0.0
H5515 H 0.1533 0.81902 0.5533 0.0
C5516 C 0.12332 0.79927 0.54341 0.0
C5517 C 0.12998 0.79246 0.5457 0.0
C5518 C 0.12422 0.80835 0.54691 0.0
C5519 C 0.13181 0.81082 0.5527 0.0
C5520 C 0.13852 0.80407 0.5549 0.0
H5521 H 0.14827 0.85215 0.59209 0.0
H5522 H 0.14663 0.83921 0.58108 0.0
C5523 C 0.13764 0.79501 0.55139 0.0
C5524 C 0.13239 0.82021 0.55706 0.0
H5525 H 0.14722 0.83864 0.56083 0.0
C5526 C 0.12502 0.8231 0.56281 0.0
C5527 C 0.14037 0.82602 0.5561 0.0
C5528 C 0.14827 0.82357 0.5496 0.0
C5529 C 0.12563 0.8314 0.56801 0.0
C5530 C 0.13377 0.83701 0.56734 0.0
C5531 C 0.141 0.8343 0.56134 0.0
C5532 C 0.1352 0.84532 0.57338 0.0
C5533 C 0.11775 0.83389 0.57452 0.0
C5534 C 0.12946 0.85315 0.57253 0.0
C5535 C 0.13042 0.86063 0.57879 0.0
C5536 C 0.13716 0.8604 0.58598 0.0
C5537 C 0.1431 0.85265 0.58657 0.0
C5538 C 0.14215 0.84521 0.58031 0.0
H5539 H 0.1127 0.82805 0.57538 0.0
H5540 H 0.12055 0.83592 0.58149 0.0
H5541 H 0.11389 0.83993 0.57169 0.0
H5542 H 0.12414 0.85342 0.56713 0.0
H5543 H 0.12583 0.86655 0.57804 0.0
H5544 H 0.47121 0.89675 0.77203 0.0
H5545 H 0.45897 0.90156 0.78293 0.0
H5546 H 0.46193 0.87571 0.79768 0.0
H5547 H 0.47413 0.87084 0.78682 0.0
H5548 H 0.44169 0.89311 0.78803 0.0
H5549 H 0.46646 0.89567 0.81793 0.0
H5550 H 0.47034 0.89482 0.80601 0.0
H5551 H 0.46648 0.88459 0.81204 0.0
C5552 C 0.46917 0.89204 0.77752 0.0
C5553 C 0.47371 0.88346 0.77863 0.0
C5554 C 0.4622 0.89481 0.78376 0.0
C5555 C 0.45968 0.88907 0.79121 0.0
C5556 C 0.46393 0.88034 0.7921 0.0
H5557 H 0.42331 0.89339 0.83892 0.0
H5558 H 0.43361 0.88822 0.82639 0.0
C5559 C 0.4709 0.87758 0.7859 0.0
C5560 C 0.45279 0.89226 0.7982 0.0
H5561 H 0.45032 0.89715 0.82138 0.0
C5562 C 0.44357 0.89404 0.79532 0.0
C5563 C 0.45529 0.8935 0.80769 0.0
C5564 C 0.46519 0.89213 0.81111 0.0
C5565 C 0.4367 0.8968 0.80174 0.0
C5566 C 0.43919 0.89793 0.81124 0.0
C5567 C 0.44843 0.89622 0.81409 0.0
C5568 C 0.43234 0.90086 0.8184 0.0
C5569 C 0.42681 0.89828 0.79835 0.0
C5570 C 0.42819 0.90967 0.81804 0.0
C5571 C 0.42224 0.91263 0.82518 0.0
C5572 C 0.42038 0.90684 0.83282 0.0
C5573 C 0.42447 0.89797 0.83307 0.0
C5574 C 0.43041 0.89502 0.82595 0.0
H5575 H 0.42556 0.89499 0.79141 0.0
H5576 H 0.42167 0.8954 0.80337 0.0
H5577 H 0.42551 0.90585 0.79772 0.0
H5578 H 0.42971 0.91434 0.81236 0.0
H5579 H 0.41916 0.91948 0.82474 0.0
H5580 H 0.35995 0.21426 0.05116 0.0
H5581 H 0.36014 0.19825 0.05678 0.0
H5582 H 0.38004 0.19091 0.03549 0.0
H5583 H 0.38024 0.20699 0.03011 0.0
H5584 H 0.35569 0.1817 0.0481 0.0
H5585 H 0.39305 0.18202 0.05893 0.0
H5586 H 0.38684 0.1925 0.05597 0.0
H5587 H 0.39129 0.18502 0.04693 0.0
C5588 C 0.36446 0.20928 0.04774 0.0
C5589 C 0.37016 0.21196 0.04024 0.0
C5590 C 0.36449 0.2001 0.05091 0.0
C5591 C 0.37023 0.19343 0.04667 0.0
C5592 C 0.37571 0.196 0.03901 0.0
H5593 H 0.38079 0.13487 0.05545 0.0
H5594 H 0.37943 0.15061 0.04926 0.0
C5595 C 0.37572 0.20518 0.03585 0.0
C5596 C 0.37049 0.18378 0.05028 0.0
H5597 H 0.38522 0.16739 0.05915 0.0
C5598 C 0.36213 0.17858 0.05055 0.0
C5599 C 0.37891 0.17974 0.05353 0.0
C5600 C 0.38802 0.18513 0.05393 0.0
C5601 C 0.362 0.16939 0.05381 0.0
C5602 C 0.37043 0.16533 0.05693 0.0
C5603 C 0.37877 0.17052 0.05669 0.0
C5604 C 0.37078 0.1557 0.06049 0.0
C5605 C 0.35289 0.16401 0.05373 0.0
C5606 C 0.36636 0.15336 0.06887 0.0
C5607 C 0.36721 0.14439 0.07249 0.0
C5608 C 0.3725 0.1376 0.0678 0.0
C5609 C 0.37678 0.13996 0.05932 0.0
C5610 C 0.37597 0.14893 0.05573 0.0
H5611 H 0.34747 0.16742 0.04937 0.0
H5612 H 0.35396 0.15681 0.05108 0.0
H5613 H 0.35021 0.16354 0.06095 0.0
H5614 H 0.36246 0.15854 0.07273 0.0
H5615 H 0.36394 0.14287 0.07911 0.0
H5616 H 0.01786 0.89289 0.21474 0.0
H5617 H 0.03147 0.89515 0.2047 0.0
H5618 H 0.04874 0.88053 0.22442 0.0
H5619 H 0.03512 0.87798 0.23436 0.0
H5620 H 0.04889 0.9039 0.20831 0.0
H5621 H 0.05302 0.86638 0.19985 0.0
H5622 H 0.04257 0.87097 0.20514 0.0
H5623 H 0.05285 0.86898 0.21211 0.0
C5624 C 0.02454 0.89009 0.21691 0.0
C5625 C 0.02537 0.88517 0.22532 0.0
C5626 C 0.03232 0.89145 0.2112 0.0
C5627 C 0.04107 0.88788 0.21374 0.0
C5628 C 0.04201 0.8832 0.22225 0.0
H5629 H 0.09591 0.88551 0.18887 0.0
H5630 H 0.08229 0.88493 0.19909 0.0
C5631 C 0.03423 0.88184 0.22797 0.0
C5632 C 0.04921 0.88894 0.20745 0.0
H5633 H 0.0651 0.87652 0.19484 0.0
C5634 C 0.05242 0.89793 0.20532 0.0
C5635 C 0.05376 0.88113 0.20353 0.0
C5636 C 0.05034 0.87132 0.20519 0.0
C5637 C 0.06024 0.89931 0.19957 0.0
C5638 C 0.06485 0.89149 0.19575 0.0
C5639 C 0.06158 0.88251 0.19781 0.0
C5640 C 0.07319 0.89239 0.1897 0.0
C5641 C 0.06363 0.9091 0.19782 0.0
C5642 C 0.07259 0.8968 0.18102 0.0
C5643 C 0.08037 0.89712 0.17513 0.0
C5644 C 0.08886 0.89295 0.17779 0.0
C5645 C 0.08944 0.88867 0.18655 0.0
C5646 C 0.08168 0.88837 0.19242 0.0
H5647 H 0.06077 0.91413 0.20297 0.0
H5648 H 0.0714 0.90949 0.19807 0.0
H5649 H 0.06132 0.91127 0.19077 0.0
H5650 H 0.06605 0.89979 0.1787 0.0
H5651 H 0.07966 0.90037 0.16838 0.0
H5652 H 0.35344 0.79134 0.45411 0.0
H5653 H 0.35383 0.80786 0.44999 0.0
H5654 H 0.38184 0.80466 0.4394 0.0
H5655 H 0.38149 0.78817 0.44346 0.0
H5656 H 0.36577 0.82232 0.45532 0.0
H5657 H 0.368 0.81575 0.41728 0.0
H5658 H 0.36501 0.80673 0.42544 0.0
H5659 H 0.37705 0.81009 0.4238 0.0
C5660 C 0.35972 0.79419 0.45099 0.0
C5661 C 0.36741 0.78843 0.44903 0.0
C5662 C 0.35991 0.80361 0.4486 0.0
C5663 C 0.36778 0.80744 0.4442 0.0
C5664 C 0.37559 0.80179 0.44256 0.0
H5665 H 0.38635 0.86076 0.42473 0.0
H5666 H 0.38443 0.84463 0.4297 0.0
C5667 C 0.37539 0.79238 0.4449 0.0
C5668 C 0.36786 0.81732 0.4413 0.0
H5669 H 0.37087 0.83133 0.42242 0.0
C5670 C 0.36679 0.8243 0.44812 0.0
C5671 C 0.36914 0.81988 0.43189 0.0
C5672 C 0.36977 0.81272 0.42416 0.0
C5673 C 0.36732 0.83378 0.44582 0.0
C5674 C 0.36886 0.83631 0.43645 0.0
C5675 C 0.36974 0.82935 0.42961 0.0
C5676 C 0.36992 0.84615 0.43362 0.0
C5677 C 0.36653 0.84101 0.45345 0.0
C5678 C 0.36236 0.85232 0.43411 0.0
C5679 C 0.36343 0.86156 0.43128 0.0
C5680 C 0.3721 0.86478 0.42794 0.0
C5681 C 0.37963 0.85854 0.42741 0.0
C5682 C 0.37854 0.84931 0.43019 0.0
H5683 H 0.36706 0.83791 0.4605 0.0
H5684 H 0.37208 0.84641 0.45274 0.0
H5685 H 0.35965 0.84451 0.45287 0.0
H5686 H 0.35561 0.84996 0.43662 0.0
H5687 H 0.35752 0.86621 0.43179 0.0
H5688 H 0.47264 0.10535 0.72728 0.0
H5689 H 0.4603 0.10089 0.71616 0.0
H5690 H 0.4642 0.12679 0.70168 0.0
H5691 H 0.47651 0.13132 0.71277 0.0
H5692 H 0.44334 0.10975 0.711 0.0
H5693 H 0.46796 0.10691 0.6813 0.0
H5694 H 0.4719 0.10759 0.69326 0.0
H5695 H 0.46834 0.11794 0.68729 0.0
C5696 C 0.47079 0.11015 0.7218 0.0
C5697 C 0.47562 0.11866 0.72086 0.0
C5698 C 0.46376 0.10757 0.71544 0.0
C5699 C 0.46146 0.11343 0.70801 0.0
C5700 C 0.46602 0.12207 0.70725 0.0
H5701 H 0.42488 0.10925 0.65986 0.0
H5702 H 0.43532 0.11448 0.67243 0.0
C5703 C 0.47305 0.12465 0.71359 0.0
C5704 C 0.45445 0.11044 0.70093 0.0
H5705 H 0.4518 0.10555 0.67774 0.0
C5706 C 0.44518 0.1088 0.70373 0.0
C5707 C 0.45689 0.10917 0.69147 0.0
C5708 C 0.46683 0.11041 0.68813 0.0
C5709 C 0.43823 0.10612 0.69725 0.0
C5710 C 0.44067 0.10493 0.68777 0.0
C5711 C 0.44994 0.10652 0.685 0.0
C5712 C 0.43375 0.10198 0.68058 0.0
C5713 C 0.4283 0.10479 0.70055 0.0
C5714 C 0.42938 0.09321 0.68101 0.0
C5715 C 0.42335 0.09022 0.67386 0.0
C5716 C 0.42162 0.09592 0.66612 0.0
C5717 C 0.42593 0.10475 0.66578 0.0
C5718 C 0.43196 0.10773 0.67293 0.0
H5719 H 0.42714 0.10819 0.70743 0.0
H5720 H 0.42322 0.10764 0.69544 0.0
H5721 H 0.42684 0.09724 0.70129 0.0
H5722 H 0.43079 0.0886 0.68677 0.0
H5723 H 0.4201 0.08341 0.67435 0.0
H5724 H 0.11481 0.20281 0.96123 0.0
H5725 H 0.11689 0.18695 0.95524 0.0
H5726 H 0.14149 0.19586 0.94037 0.0
H5727 H 0.13968 0.21158 0.94659 0.0
H5728 H 0.11656 0.18137 0.93707 0.0
H5729 H 0.1508 0.17246 0.95269 0.0
H5730 H 0.14399 0.18224 0.95667 0.0
H5731 H 0.15128 0.18326 0.94653 0.0
C5732 C 0.12077 0.20135 0.95684 0.0
C5733 C 0.12708 0.20848 0.95439 0.0
C5734 C 0.12192 0.19229 0.95338 0.0
C5735 C 0.12943 0.19018 0.94747 0.0
C5736 C 0.13577 0.19726 0.94509 0.0
H5737 H 0.14653 0.14935 0.90826 0.0
H5738 H 0.14437 0.16249 0.91889 0.0
C5739 C 0.13464 0.20629 0.94855 0.0
C5740 C 0.13032 0.18076 0.94324 0.0
H5741 H 0.14592 0.16325 0.93938 0.0
C5742 C 0.12291 0.17732 0.93771 0.0
C5743 C 0.1386 0.17548 0.94411 0.0
C5744 C 0.14658 0.1785 0.9504 0.0
C5745 C 0.12375 0.16898 0.93262 0.0
C5746 C 0.1322 0.16392 0.93316 0.0
C5747 C 0.13948 0.16718 0.93896 0.0
C5748 C 0.13385 0.15563 0.92722 0.0
C5749 C 0.11579 0.16584 0.92636 0.0
C5750 C 0.12878 0.14735 0.9285 0.0
C5751 C 0.13007 0.13975 0.92248 0.0
C5752 C 0.13646 0.14032 0.91506 0.0
C5753 C 0.14167 0.14859 0.91397 0.0
C5754 C 0.14041 0.15614 0.92001 0.0
H5755 H 0.11031 0.17125 0.92567 0.0
H5756 H 0.11843 0.16405 0.91931 0.0
H5757 H 0.1125 0.15949 0.92929 0.0
H5758 H 0.12377 0.14679 0.93412 0.0
H5759 H 0.12604 0.13346 0.92362 0.0
H5760 H 0.30765 0.00798 0.10514 0.0
H5761 H 0.31528 0.02253 0.10068 0.0
H5762 H 0.3012 0.03694 0.12299 0.0
H5763 H 0.29373 0.0223 0.1277 0.0
H5764 H 0.30779 0.03984 0.09546 0.0
H5765 H 0.32905 0.0426 0.12801 0.0
H5766 H 0.32296 0.03204 0.12464 0.0
H5767 H 0.3166 0.04164 0.12952 0.0
C5768 C 0.3062 0.01423 0.10913 0.0
C5769 C 0.30018 0.01395 0.11685 0.0
C5770 C 0.31051 0.02255 0.10653 0.0
C5771 C 0.30892 0.03077 0.11159 0.0
C5772 C 0.30264 0.03063 0.11909 0.0
H5773 H 0.33923 0.08379 0.10592 0.0
H5774 H 0.32754 0.07214 0.11048 0.0
C5775 C 0.29831 0.02228 0.12171 0.0
C5776 C 0.31408 0.03938 0.10912 0.0
H5777 H 0.3312 0.0543 0.11687 0.0
C5778 C 0.31286 0.04305 0.10016 0.0
C5779 C 0.32067 0.04358 0.11528 0.0
C5780 C 0.32249 0.03975 0.12488 0.0
C5781 C 0.31816 0.05071 0.09714 0.0
C5782 C 0.32497 0.0547 0.10318 0.0
C5783 C 0.32597 0.05123 0.11225 0.0
C5784 C 0.33159 0.06201 0.10005 0.0
C5785 C 0.31644 0.05444 0.08748 0.0
C5786 C 0.33777 0.06015 0.09271 0.0
C5787 C 0.34448 0.06675 0.09013 0.0
C5788 C 0.34519 0.07534 0.09487 0.0
C5789 C 0.33892 0.07722 0.10217 0.0
C5790 C 0.33221 0.0706 0.10476 0.0
H5791 H 0.30929 0.05264 0.08492 0.0
H5792 H 0.31735 0.06212 0.08732 0.0
H5793 H 0.32155 0.05129 0.0826 0.0
H5794 H 0.33759 0.05348 0.08914 0.0
H5795 H 0.34931 0.06498 0.08462 0.0
H5796 H 0.8098 0.49589 0.88898 0.0
H5797 H 0.81708 0.48133 0.89376 0.0
H5798 H 0.80137 0.46643 0.87258 0.0
H5799 H 0.7942 0.48105 0.86759 0.0
H5800 H 0.80875 0.46442 0.89992 0.0
H5801 H 0.82894 0.45974 0.86713 0.0
H5802 H 0.82357 0.47066 0.87026 0.0
H5803 H 0.8165 0.46118 0.86589 0.0
C5804 C 0.80792 0.48952 0.8853 0.0
C5805 C 0.8015 0.48964 0.87783 0.0
C5806 C 0.81204 0.48121 0.88808 0.0
C5807 C 0.80986 0.47283 0.88344 0.0
C5808 C 0.80325 0.47285 0.87616 0.0
H5809 H 0.83863 0.4195 0.89112 0.0
H5810 H 0.82727 0.43114 0.88599 0.0
C5811 C 0.7991 0.48119 0.87338 0.0
C5812 C 0.81473 0.46418 0.88618 0.0
H5813 H 0.83113 0.4486 0.87883 0.0
C5814 C 0.81359 0.4609 0.89528 0.0
C5815 C 0.82099 0.45959 0.8801 0.0
C5816 C 0.82267 0.46297 0.87032 0.0
C5817 C 0.81868 0.45326 0.89855 0.0
C5818 C 0.82523 0.44891 0.8926 0.0
C5819 C 0.82611 0.45196 0.88338 0.0
C5820 C 0.83172 0.44164 0.896 0.0
C5821 C 0.81705 0.44996 0.90837 0.0
C5822 C 0.83803 0.44372 0.90326 0.0
C5823 C 0.84454 0.43712 0.90617 0.0
C5824 C 0.84492 0.42831 0.90184 0.0
C5825 C 0.83856 0.42624 0.89457 0.0
C5826 C 0.83204 0.43286 0.89166 0.0
H5827 H 0.80998 0.45193 0.91087 0.0
H5828 H 0.81778 0.44229 0.90885 0.0
H5829 H 0.82229 0.45327 0.91309 0.0
H5830 H 0.83809 0.45054 0.90654 0.0
H5831 H 0.84946 0.43904 0.91164 0.0
H5832 H 0.78201 0.56088 0.12601 0.0
H5833 H 0.79892 0.56362 0.12596 0.0
H5834 H 0.8015 0.54936 0.15217 0.0
H5835 H 0.78456 0.54652 0.15223 0.0
H5836 H 0.80928 0.57349 0.13881 0.0
H5837 H 0.82176 0.537 0.13671 0.0
H5838 H 0.80974 0.54011 0.13443 0.0
H5839 H 0.81397 0.53932 0.14622 0.0
C5840 C 0.78618 0.55831 0.13175 0.0
C5841 C 0.78195 0.55349 0.13912 0.0
C5842 C 0.79584 0.55985 0.1317 0.0
C5843 C 0.80149 0.5566 0.139 0.0
C5844 C 0.79731 0.55174 0.14636 0.0
H5845 H 0.86148 0.56462 0.14967 0.0
H5846 H 0.84479 0.56077 0.15126 0.0
C5847 C 0.78763 0.55015 0.14639 0.0
C5848 C 0.81167 0.55871 0.13906 0.0
H5849 H 0.83333 0.54874 0.13888 0.0
C5850 C 0.81453 0.56807 0.13882 0.0
C5851 C 0.81852 0.55163 0.13913 0.0
C5852 C 0.81587 0.54144 0.13905 0.0
C5853 C 0.82404 0.57056 0.13858 0.0
C5854 C 0.83087 0.56349 0.13851 0.0
C5855 C 0.82805 0.55413 0.13895 0.0
C5856 C 0.84096 0.5657 0.13756 0.0
C5857 C 0.82672 0.58073 0.13845 0.0
C5858 C 0.8443 0.56963 0.1293 0.0
C5859 C 0.85379 0.57182 0.12838 0.0
C5860 C 0.86012 0.57011 0.1357 0.0
C5861 C 0.85675 0.5661 0.14395 0.0
C5862 C 0.84725 0.56386 0.14485 0.0
H5863 H 0.82088 0.58525 0.14077 0.0
H5864 H 0.83291 0.58211 0.14299 0.0
H5865 H 0.82859 0.58272 0.13123 0.0
H5866 H 0.83956 0.57101 0.12357 0.0
H5867 H 0.85614 0.57499 0.12197 0.0
H5868 H 0.70095 0.50987 0.38549 0.0
H5869 H 0.69073 0.52335 0.38744 0.0
H5870 H 0.70826 0.5392 0.36895 0.0
H5871 H 0.71836 0.5257 0.36674 0.0
H5872 H 0.69489 0.54156 0.39394 0.0
H5873 H 0.68198 0.54152 0.35738 0.0
H5874 H 0.68803 0.53175 0.36238 0.0
H5875 H 0.69451 0.54175 0.35849 0.0
C5876 C 0.70259 0.51621 0.38178 0.0
C5877 C 0.71043 0.51668 0.37589 0.0
C5878 C 0.69678 0.52392 0.38296 0.0
C5879 C 0.69865 0.53222 0.37823 0.0
C5880 C 0.7066 0.5328 0.37254 0.0
H5881 H 0.67372 0.58629 0.37338 0.0
H5882 H 0.68352 0.57244 0.37284 0.0
C5883 C 0.71242 0.52511 0.37136 0.0
C5884 C 0.69228 0.54027 0.3792 0.0
H5885 H 0.67804 0.55461 0.36674 0.0
C5886 C 0.69115 0.54439 0.38802 0.0
C5887 C 0.68738 0.5439 0.37146 0.0
C5888 C 0.68795 0.53946 0.36191 0.0
C5889 C 0.68548 0.55226 0.38925 0.0
C5890 C 0.68072 0.55599 0.38148 0.0
C5891 C 0.68174 0.55176 0.37269 0.0
C5892 C 0.67486 0.56444 0.38219 0.0
C5893 C 0.68485 0.55669 0.3988 0.0
C5894 C 0.66671 0.56453 0.38763 0.0
C5895 C 0.66105 0.57245 0.38793 0.0
C5896 C 0.66341 0.58037 0.38272 0.0
C5897 C 0.67162 0.58025 0.37735 0.0
C5898 C 0.67726 0.57236 0.37707 0.0
H5899 H 0.69052 0.55428 0.40352 0.0
H5900 H 0.68523 0.56439 0.39833 0.0
H5901 H 0.67803 0.5548 0.40197 0.0
H5902 H 0.66464 0.55842 0.3915 0.0
H5903 H 0.65472 0.57228 0.39204 0.0
H5904 H 0.21897 0.95851 0.15135 0.0
H5905 H 0.20325 0.95194 0.15312 0.0
H5906 H 0.19416 0.96615 0.12835 0.0
H5907 H 0.20996 0.97252 0.12634 0.0
H5908 H 0.18567 0.96063 0.15493 0.0
H5909 H 0.18756 0.9388 0.12279 0.0
H5910 H 0.19777 0.94427 0.12796 0.0
H5911 H 0.18968 0.95103 0.12125 0.0
C5912 C 0.21365 0.9602 0.14624 0.0
C5913 C 0.21576 0.96596 0.13864 0.0
C5914 C 0.20465 0.9565 0.14731 0.0
C5915 C 0.19758 0.95845 0.1408 0.0
C5916 C 0.19956 0.96444 0.13337 0.0
H5917 H 0.14209 0.93224 0.13615 0.0
H5918 H 0.15517 0.94316 0.13412 0.0
C5919 C 0.20857 0.96815 0.13229 0.0
C5920 C 0.18825 0.95398 0.1417 0.0
H5921 H 0.17363 0.93799 0.1314 0.0
C5922 C 0.183 0.95573 0.14977 0.0
C5923 C 0.18477 0.94761 0.13493 0.0
C5924 C 0.19025 0.94523 0.12627 0.0
C5925 C 0.17442 0.95117 0.1513 0.0
C5926 C 0.17109 0.94459 0.14467 0.0
C5927 C 0.17619 0.94306 0.13647 0.0
C5928 C 0.16273 0.93868 0.14638 0.0
C5929 C 0.16901 0.95343 0.16002 0.0
C5930 C 0.16263 0.93257 0.15395 0.0
C5931 C 0.15522 0.9263 0.1551 0.0
C5932 C 0.14775 0.92596 0.14866 0.0
C5933 C 0.14776 0.93225 0.14119 0.0
C5934 C 0.1552 0.93853 0.14004 0.0
H5935 H 0.17088 0.96045 0.1628 0.0
H5936 H 0.16135 0.95313 0.15871 0.0
H5937 H 0.17074 0.94827 0.16547 0.0
H5938 H 0.16847 0.93239 0.15879 0.0
H5939 H 0.15556 0.92143 0.16081 0.0
H5940 H 0.20071 0.98805 0.63799 0.0
H5941 H 0.19053 0.97465 0.63478 0.0
H5942 H 0.20809 0.96666 0.61175 0.0
H5943 H 0.2183 0.98011 0.61487 0.0
H5944 H 0.18058 0.97039 0.61823 0.0
H5945 H 0.20609 0.94272 0.62713 0.0
H5946 H 0.20784 0.95474 0.63049 0.0
H5947 H 0.21003 0.95105 0.61872 0.0
C5948 C 0.2024 0.98347 0.63221 0.0
C5949 C 0.21033 0.98515 0.62668 0.0
C5950 C 0.19659 0.9758 0.63041 0.0
C5951 C 0.19861 0.96961 0.62309 0.0
C5952 C 0.20651 0.97125 0.61755 0.0
H5953 H 0.17007 0.91807 0.6061 0.0
H5954 H 0.18022 0.9319 0.60632 0.0
C5955 C 0.21234 0.97893 0.61934 0.0
C5956 C 0.19232 0.96155 0.62122 0.0
H5957 H 0.19136 0.9378 0.62131 0.0
C5958 C 0.18294 0.96326 0.61888 0.0
C5959 C 0.19544 0.95227 0.62202 0.0
C5960 C 0.20538 0.95004 0.6248 0.0
C5961 C 0.17655 0.95592 0.61737 0.0
C5962 C 0.17961 0.94664 0.61839 0.0
C5963 C 0.18904 0.94493 0.62052 0.0
C5964 C 0.17304 0.93862 0.61776 0.0
C5965 C 0.1666 0.95817 0.61466 0.0
C5966 C 0.16564 0.93784 0.6241 0.0
C5967 C 0.15982 0.92998 0.62396 0.0
C5968 C 0.16132 0.92272 0.61752 0.0
C5969 C 0.16865 0.92359 0.61107 0.0
C5970 C 0.17449 0.93146 0.61123 0.0
H5971 H 0.16609 0.96519 0.61151 0.0
H5972 H 0.16374 0.95295 0.60963 0.0
H5973 H 0.16216 0.9581 0.62097 0.0
H5974 H 0.16449 0.9432 0.62931 0.0
H5975 H 0.15419 0.92956 0.62897 0.0
H5976 H 0.78179 0.44275 0.37603 0.0
H5977 H 0.79865 0.44001 0.37533 0.0
H5978 H 0.79978 0.45347 0.3486 0.0
H5979 H 0.78289 0.45629 0.34928 0.0
H5980 H 0.80803 0.42973 0.36221 0.0
H5981 H 0.82116 0.46623 0.36271 0.0
H5982 H 0.80927 0.46321 0.36571 0.0
H5983 H 0.81273 0.46366 0.3537 0.0
C5984 C 0.78563 0.44515 0.37001 0.0
C5985 C 0.78101 0.44973 0.3627 0.0
C5986 C 0.79526 0.44361 0.36963 0.0
C5987 C 0.80049 0.44662 0.36196 0.0
C5988 C 0.79592 0.45126 0.35468 0.0
H5989 H 0.85976 0.43831 0.34891 0.0
H5990 H 0.84304 0.4421 0.34789 0.0
C5991 C 0.78627 0.45285 0.35507 0.0
C5992 C 0.81063 0.44449 0.36145 0.0
H5993 H 0.83242 0.4544 0.36038 0.0
C5994 C 0.81336 0.43513 0.36181 0.0
C5995 C 0.81757 0.45154 0.36088 0.0
C5996 C 0.81507 0.46173 0.3608 0.0
C5997 C 0.82283 0.43263 0.36167 0.0
C5998 C 0.82976 0.43968 0.36125 0.0
C5999 C 0.82706 0.44903 0.36069 0.0
C6000 C 0.83986 0.43747 0.36183 0.0
C6001 C 0.82537 0.42245 0.36193 0.0
C6002 C 0.84358 0.43371 0.37003 0.0
C6003 C 0.85308 0.43155 0.37063 0.0
C6004 C 0.85906 0.43312 0.36304 0.0
C6005 C 0.85531 0.43694 0.35484 0.0
C6006 C 0.8458 0.43915 0.35426 0.0
H6007 H 0.81934 0.41791 0.35995 0.0
H6008 H 0.8313 0.42095 0.35719 0.0
H6009 H 0.82756 0.42063 0.36912 0.0
H6010 H 0.83913 0.43245 0.37598 0.0
H6011 H 0.85573 0.42853 0.37701 0.0
H6012 H 0.71951 0.54806 0.85056 0.0
H6013 H 0.70347 0.55389 0.85017 0.0
H6014 H 0.6949 0.53221 0.86896 0.0
H6015 H 0.71099 0.52659 0.86974 0.0
H6016 H 0.68693 0.54549 0.84474 0.0
H6017 H 0.68563 0.55545 0.88215 0.0
H6018 H 0.69642 0.55253 0.87636 0.0
H6019 H 0.68862 0.54348 0.88021 0.0
C6020 C 0.71424 0.54459 0.8547 0.0
C6021 C 0.71658 0.53691 0.86026 0.0
C6022 C 0.70506 0.54789 0.85441 0.0
C6023 C 0.69802 0.54359 0.85967 0.0
C6024 C 0.70026 0.53576 0.865 0.0
H6025 H 0.63881 0.55273 0.86795 0.0
H6026 H 0.65466 0.54649 0.86715 0.0
C6027 C 0.70945 0.53248 0.86534 0.0
C6028 C 0.68836 0.54732 0.85959 0.0
H6029 H 0.67129 0.55602 0.87372 0.0
C6030 C 0.68352 0.54783 0.85106 0.0
C6031 C 0.68394 0.55042 0.86785 0.0
C6032 C 0.68894 0.55054 0.87715 0.0
C6033 C 0.6743 0.55118 0.85061 0.0
C6034 C 0.66986 0.55415 0.85888 0.0
C6035 C 0.67471 0.55368 0.8674 0.0
C6036 C 0.66018 0.55778 0.85891 0.0
C6037 C 0.6693 0.55133 0.84132 0.0
C6038 C 0.65804 0.56621 0.85454 0.0
C6039 C 0.64899 0.56986 0.85506 0.0
C6040 C 0.64193 0.56515 0.85999 0.0
C6041 C 0.6441 0.55662 0.86423 0.0
C6042 C 0.65314 0.553 0.86373 0.0
H6043 H 0.67292 0.54702 0.836 0.0
H6044 H 0.66198 0.54878 0.84201 0.0
H6045 H 0.66905 0.5586 0.83878 0.0
H6046 H 0.66342 0.57007 0.85092 0.0
H6047 H 0.64761 0.5765 0.85183 0.0
H6048 H 0.87842 0.70173 0.96771 0.0
H6049 H 0.88024 0.69743 0.95127 0.0
H6050 H 0.91009 0.70161 0.95364 0.0
H6051 H 0.90834 0.70589 0.97009 0.0
H6052 H 0.88835 0.70646 0.93567 0.0
H6053 H 0.90745 0.67432 0.9453 0.0
H6054 H 0.90112 0.68119 0.95371 0.0
H6055 H 0.91248 0.68493 0.94984 0.0
C6056 C 0.88535 0.70189 0.96469 0.0
C6057 C 0.89325 0.70405 0.97022 0.0
C6058 C 0.88638 0.69941 0.95531 0.0
C6059 C 0.89531 0.69904 0.9513 0.0
C6060 C 0.90316 0.70166 0.95667 0.0
H6061 H 0.91393 0.67485 0.89882 0.0
H6062 H 0.91322 0.68423 0.91309 0.0
C6063 C 0.90214 0.7041 0.96605 0.0
C6064 C 0.89645 0.69541 0.94167 0.0
H6065 H 0.90583 0.67739 0.92929 0.0
C6066 C 0.89219 0.70012 0.93425 0.0
C6067 C 0.90146 0.68713 0.93986 0.0
C6068 C 0.90583 0.68153 0.94759 0.0
C6069 C 0.89284 0.69678 0.92504 0.0
C6070 C 0.89776 0.68844 0.92326 0.0
C6071 C 0.90212 0.68382 0.93067 0.0
C6072 C 0.89809 0.68405 0.91388 0.0
C6073 C 0.88832 0.70223 0.91731 0.0
C6074 C 0.88981 0.68096 0.90949 0.0
C6075 C 0.89019 0.67565 0.9013 0.0
C6076 C 0.89886 0.67324 0.89737 0.0
C6077 C 0.90713 0.67666 0.90158 0.0
C6078 C 0.90674 0.68198 0.90977 0.0
H6079 H 0.88733 0.70964 0.91933 0.0
H6080 H 0.89257 0.70193 0.91086 0.0
H6081 H 0.88131 0.69919 0.91573 0.0
H6082 H 0.88307 0.68232 0.91261 0.0
H6083 H 0.8837 0.67318 0.89818 0.0
H6084 H 0.03914 0.12255 0.72818 0.0
H6085 H 0.04665 0.12833 0.71408 0.0
H6086 H 0.03742 0.15614 0.7206 0.0
H6087 H 0.03004 0.15043 0.73487 0.0
H6088 H 0.03875 0.13806 0.69876 0.0
H6089 H 0.0662 0.15875 0.71746 0.0
H6090 H 0.05926 0.14994 0.72315 0.0
H6091 H 0.05427 0.16107 0.72063 0.0
C6092 C 0.03873 0.1299 0.72664 0.0
C6093 C 0.03407 0.13605 0.73269 0.0
C6094 C 0.04298 0.13318 0.71855 0.0
C6095 C 0.04269 0.14268 0.71637 0.0
C6096 C 0.03783 0.1488 0.72224 0.0
H6097 H 0.06217 0.16253 0.66198 0.0
H6098 H 0.05284 0.16068 0.67614 0.0
C6099 C 0.03354 0.14552 0.73033 0.0
C6100 C 0.04763 0.14608 0.708 0.0
H6101 H 0.06649 0.15897 0.70105 0.0
C6102 C 0.04476 0.14271 0.69923 0.0
C6103 C 0.05551 0.15207 0.70869 0.0
C6104 C 0.05907 0.15564 0.71798 0.0
C6105 C 0.04966 0.14504 0.69112 0.0
C6106 C 0.05757 0.15099 0.6918 0.0
C6107 C 0.06036 0.15448 0.70055 0.0
C6108 C 0.06347 0.15303 0.68359 0.0
C6109 C 0.04657 0.1408 0.68193 0.0
C6110 C 0.07266 0.14966 0.68325 0.0
C6111 C 0.07799 0.15069 0.67519 0.0
C6112 C 0.07426 0.15515 0.66732 0.0
C6113 C 0.0652 0.15892 0.66786 0.0
C6114 C 0.05986 0.15788 0.67594 0.0
H6115 H 0.04148 0.13501 0.68287 0.0
H6116 H 0.04316 0.14622 0.67764 0.0
H6117 H 0.05268 0.13813 0.678 0.0
H6118 H 0.07557 0.1459 0.68909 0.0
H6119 H 0.08488 0.14759 0.67499 0.0
H6120 H 0.61562 0.2994 0.47167 0.0
H6121 H 0.61412 0.30564 0.45598 0.0
H6122 H 0.60611 0.27848 0.44555 0.0
H6123 H 0.60723 0.27222 0.46135 0.0
H6124 H 0.62345 0.30071 0.43989 0.0
H6125 H 0.58506 0.29491 0.4358 0.0
H6126 H 0.59094 0.29411 0.44693 0.0
H6127 H 0.59181 0.28478 0.43858 0.0
C6128 C 0.61341 0.29476 0.46607 0.0
C6129 C 0.61144 0.28533 0.4678 0.0
C6130 C 0.61264 0.29833 0.45709 0.0
C6131 C 0.60987 0.29256 0.44962 0.0
C6132 C 0.60809 0.28309 0.45124 0.0
H6133 H 0.60082 0.31098 0.39171 0.0
H6134 H 0.60305 0.30081 0.4052 0.0
C6135 C 0.60884 0.27951 0.46026 0.0
C6136 C 0.60893 0.29657 0.44016 0.0
H6137 H 0.59294 0.30183 0.42323 0.0
C6138 C 0.61679 0.30089 0.43621 0.0
C6139 C 0.60025 0.29675 0.43535 0.0
C6140 C 0.5915 0.29246 0.43938 0.0
C6141 C 0.61615 0.3056 0.42771 0.0
C6142 C 0.60741 0.30607 0.42309 0.0
C6143 C 0.59963 0.30143 0.42681 0.0
C6144 C 0.60604 0.31208 0.41487 0.0
C6145 C 0.6248 0.31018 0.42381 0.0
C6146 C 0.60681 0.32176 0.41591 0.0
C6147 C 0.60544 0.32757 0.4083 0.0
C6148 C 0.6033 0.32383 0.39943 0.0
C6149 C 0.60242 0.3141 0.39843 0.0
C6150 C 0.60374 0.30828 0.40611 0.0
H6151 H 0.63131 0.3072 0.4268 0.0
H6152 H 0.625 0.30944 0.4161 0.0
H6153 H 0.62471 0.31772 0.42555 0.0
H6154 H 0.60839 0.32484 0.42267 0.0
H6155 H 0.60592 0.33502 0.40941 0.0
H6156 H 0.45131 0.85211 0.24261 0.0
H6157 H 0.44417 0.84823 0.22752 0.0
H6158 H 0.4624 0.86801 0.21413 0.0
H6159 H 0.46954 0.87198 0.22919 0.0
H6160 H 0.43478 0.86064 0.21612 0.0
H6161 H 0.46472 0.8449 0.19742 0.0
H6162 H 0.46461 0.84644 0.20993 0.0
H6163 H 0.46729 0.8561 0.2025 0.0
C6164 C 0.45383 0.85561 0.23645 0.0
C6165 C 0.46098 0.86238 0.23711 0.0
C6166 C 0.44977 0.85335 0.22783 0.0
C6167 C 0.45283 0.85775 0.21969 0.0
C6168 C 0.46008 0.86437 0.22029 0.0
H6169 H 0.43443 0.86313 0.16305 0.0
H6170 H 0.44277 0.8631 0.17795 0.0
C6171 C 0.46415 0.86665 0.22891 0.0
C6172 C 0.44796 0.85591 0.2107 0.0
H6173 H 0.45144 0.84895 0.18817 0.0
C6174 C 0.43839 0.85798 0.21003 0.0
C6175 C 0.4527 0.85246 0.20277 0.0
C6176 C 0.46288 0.84976 0.20318 0.0
C6177 C 0.43349 0.857 0.20157 0.0
C6178 C 0.43826 0.8537 0.19359 0.0
C6179 C 0.4478 0.85147 0.19429 0.0
C6180 C 0.43358 0.85301 0.18436 0.0
C6181 C 0.42335 0.85988 0.20115 0.0
C6182 C 0.42579 0.84715 0.18293 0.0
C6183 C 0.421 0.84712 0.17439 0.0
C6184 C 0.42398 0.8529 0.1671 0.0
C6185 C 0.43201 0.8585 0.16846 0.0
C6186 C 0.43677 0.85853 0.177 0.0
H6187 H 0.42136 0.8642 0.20727 0.0
H6188 H 0.42188 0.86386 0.19471 0.0
H6189 H 0.41883 0.85356 0.20107 0.0
H6190 H 0.42333 0.84269 0.18846 0.0
H6191 H 0.41492 0.84264 0.17352 0.0
H6192 H 0.90232 0.29548 0.52952 0.0
H6193 H 0.90461 0.29926 0.54606 0.0
H6194 H 0.87575 0.30767 0.54799 0.0
H6195 H 0.87337 0.30376 0.53152 0.0
H6196 H 0.90195 0.31731 0.55327 0.0
H6197 H 0.87945 0.29174 0.57147 0.0
H6198 H 0.88332 0.29005 0.5596 0.0
H6199 H 0.87368 0.29764 0.56209 0.0
C6200 C 0.8964 0.29792 0.53352 0.0
C6201 C 0.88766 0.29934 0.52921 0.0
C6202 C 0.89773 0.3001 0.54296 0.0
C6203 C 0.89032 0.30364 0.54828 0.0
C6204 C 0.88152 0.30479 0.54407 0.0
H6205 H 0.88099 0.3325 0.59951 0.0
H6206 H 0.8801 0.32309 0.58527 0.0
C6207 C 0.88019 0.30265 0.53463 0.0
C6208 C 0.89201 0.30706 0.55792 0.0
H6209 H 0.88451 0.30502 0.58037 0.0
C6210 C 0.89826 0.31454 0.55923 0.0
C6211 C 0.88713 0.30346 0.56565 0.0
C6212 C 0.88058 0.29522 0.56468 0.0
C6213 C 0.89945 0.3188 0.56799 0.0
C6214 C 0.89443 0.31532 0.57572 0.0
C6215 C 0.88837 0.30766 0.57445 0.0
C6216 C 0.8949 0.31998 0.58498 0.0
C6217 C 0.90572 0.32729 0.56878 0.0
C6218 C 0.90345 0.32106 0.58975 0.0
C6219 C 0.90401 0.32657 0.59783 0.0
C6220 C 0.896 0.33101 0.60134 0.0
C6221 C 0.88733 0.32936 0.59688 0.0
C6222 C 0.88679 0.32392 0.58878 0.0
H6223 H 0.90727 0.33032 0.56185 0.0
H6224 H 0.90246 0.33274 0.5732 0.0
H6225 H 0.91247 0.3253 0.57204 0.0
H6226 H 0.90976 0.31791 0.58705 0.0
H6227 H 0.91081 0.32769 0.60105 0.0
H6228 H 0.48376 0.14813 0.27637 0.0
H6229 H 0.47413 0.1511 0.29016 0.0
H6230 H 0.45265 0.13283 0.27909 0.0
H6231 H 0.4623 0.12959 0.26548 0.0
H6232 H 0.45584 0.15844 0.29135 0.0
H6233 H 0.45739 0.12256 0.3052 0.0
H6234 H 0.46526 0.1267 0.29632 0.0
H6235 H 0.45354 0.12306 0.29329 0.0
C6236 C 0.47703 0.14467 0.27692 0.0
C6237 C 0.47382 0.1386 0.26983 0.0
C6238 C 0.47151 0.14643 0.28477 0.0
C6239 C 0.46274 0.14209 0.2857 0.0
C6240 C 0.45947 0.13613 0.27858 0.0
H6241 H 0.41764 0.14056 0.3251 0.0
H6242 H 0.42771 0.13971 0.31143 0.0
C6243 C 0.46496 0.13437 0.27075 0.0
C6244 C 0.45694 0.14377 0.29407 0.0
H6245 H 0.44617 0.13266 0.31205 0.0
C6246 C 0.45378 0.15283 0.29593 0.0
C6247 C 0.4543 0.13644 0.30005 0.0
C6248 C 0.45787 0.12666 0.29869 0.0
C6249 C 0.44778 0.15469 0.30345 0.0
C6250 C 0.44498 0.1473 0.30928 0.0
C6251 C 0.44828 0.13829 0.30751 0.0
C6252 C 0.43853 0.14869 0.31722 0.0
C6253 C 0.44426 0.16446 0.30493 0.0
C6254 C 0.44123 0.15412 0.32497 0.0
C6255 C 0.43545 0.15466 0.3328 0.0
C6256 C 0.42688 0.14977 0.33302 0.0
C6257 C 0.42411 0.14454 0.32512 0.0
C6258 C 0.42989 0.14399 0.31733 0.0
H6259 H 0.44541 0.16888 0.29872 0.0
H6260 H 0.43667 0.1644 0.30658 0.0
H6261 H 0.44805 0.1677 0.31092 0.0
H6262 H 0.44793 0.15769 0.32508 0.0
H6263 H 0.43776 0.15879 0.33874 0.0
H6264 H 0.62388 0.69518 0.03015 0.0
H6265 H 0.62162 0.69241 0.04677 0.0
H6266 H 0.59781 0.71071 0.04675 0.0
H6267 H 0.59988 0.71335 0.03003 0.0
H6268 H 0.62071 0.70489 0.06253 0.0
H6269 H 0.58729 0.68557 0.05609 0.0
H6270 H 0.59539 0.68819 0.04685 0.0
H6271 H 0.58807 0.69717 0.05154 0.0
C6272 C 0.61816 0.69863 0.03368 0.0
C6273 C 0.61199 0.70439 0.02874 0.0
C6274 C 0.61692 0.69709 0.04319 0.0
C6275 C 0.60948 0.70126 0.04795 0.0
C6276 C 0.60353 0.70734 0.04316 0.0
H6277 H 0.5902 0.68305 0.10289 0.0
H6278 H 0.59204 0.69296 0.08918 0.0
C6279 C 0.60477 0.7089 0.03363 0.0
C6280 C 0.60771 0.69876 0.05779 0.0
H6281 H 0.59292 0.68614 0.07144 0.0
C6282 C 0.61458 0.70089 0.06452 0.0
C6283 C 0.59968 0.69359 0.06036 0.0
C6284 C 0.59219 0.69092 0.05335 0.0
C6285 C 0.61376 0.69774 0.07373 0.0
C6286 C 0.60596 0.69217 0.07618 0.0
C6287 C 0.59889 0.69042 0.06955 0.0
C6288 C 0.60544 0.68725 0.08522 0.0
C6289 C 0.62131 0.70031 0.08069 0.0
C6290 C 0.61241 0.68084 0.0876 0.0
C6291 C 0.61139 0.67522 0.09542 0.0
C6292 C 0.60333 0.67581 0.10097 0.0
C6293 C 0.59652 0.68249 0.09879 0.0
C6294 C 0.59754 0.68812 0.09094 0.0
H6295 H 0.6248 0.70697 0.07883 0.0
H6296 H 0.61845 0.70096 0.08785 0.0
H6297 H 0.62673 0.69481 0.0807 0.0
H6298 H 0.61846 0.67989 0.08319 0.0
H6299 H 0.6168 0.6702 0.09697 0.0
H6300 H 0.02644 0.87099 0.77473 0.0
H6301 H 0.03387 0.86626 0.78936 0.0
H6302 H 0.05026 0.84599 0.77443 0.0
H6303 H 0.04282 0.85061 0.7598 0.0
H6304 H 0.03511 0.84844 0.79816 0.0
H6305 H 0.06998 0.8624 0.788 0.0
H6306 H 0.05933 0.86539 0.78191 0.0
H6307 H 0.06473 0.85431 0.77986 0.0
C6308 C 0.03152 0.86543 0.77457 0.0
C6309 C 0.03411 0.86124 0.76608 0.0
C6310 C 0.03579 0.86277 0.78293 0.0
C6311 C 0.04272 0.85589 0.78294 0.0
C6312 C 0.04506 0.85145 0.77454 0.0
H6313 H 0.08035 0.83708 0.82709 0.0
H6314 H 0.07164 0.8384 0.8124 0.0
C6315 C 0.04081 0.85411 0.76619 0.0
C6316 C 0.04769 0.85355 0.7917 0.0
H6317 H 0.06914 0.85452 0.80232 0.0
C6318 C 0.04255 0.84975 0.79908 0.0
C6319 C 0.0574 0.85525 0.79286 0.0
C6320 C 0.0632 0.85963 0.78528 0.0
C6321 C 0.04689 0.84757 0.80759 0.0
C6322 C 0.05657 0.84941 0.8088 0.0
C6323 C 0.06172 0.85308 0.80137 0.0
C6324 C 0.06142 0.84805 0.81785 0.0
C6325 C 0.04108 0.84323 0.81518 0.0
C6326 C 0.05859 0.85305 0.82577 0.0
C6327 C 0.06356 0.85234 0.83414 0.0
C6328 C 0.07152 0.84666 0.83476 0.0
C6329 C 0.07429 0.84157 0.82683 0.0
C6330 C 0.0693 0.84228 0.81845 0.0
H6331 H 0.03471 0.83975 0.8123 0.0
H6332 H 0.0452 0.83807 0.81917 0.0
H6333 H 0.03878 0.84876 0.82009 0.0
H6334 H 0.0527 0.85774 0.82541 0.0
H6335 H 0.06135 0.85652 0.84004 0.0
H6336 H 0.94363 0.86893 0.72637 0.0
H6337 H 0.92762 0.8704 0.7204 0.0
H6338 H 0.93638 0.89302 0.70287 0.0
H6339 H 0.95237 0.89175 0.70891 0.0
H6340 H 0.91554 0.88672 0.72041 0.0
H6341 H 0.92382 0.8737 0.68479 0.0
H6342 H 0.93147 0.87186 0.69466 0.0
H6343 H 0.9311 0.88303 0.68918 0.0
C6344 C 0.94214 0.8743 0.72133 0.0
C6345 C 0.94931 0.88019 0.71808 0.0
C6346 C 0.933 0.87509 0.71789 0.0
C6347 C 0.93087 0.88173 0.71111 0.0
C6348 C 0.93794 0.88774 0.70798 0.0
H6349 H 0.8798 0.89205 0.67922 0.0
H6350 H 0.89567 0.89286 0.68579 0.0
C6351 C 0.94707 0.88698 0.71143 0.0
C6352 C 0.92124 0.88231 0.70726 0.0
H6353 H 0.90838 0.87881 0.68739 0.0
C6354 C 0.91396 0.885 0.7132 0.0
C6355 C 0.91924 0.88011 0.69783 0.0
C6356 C 0.92678 0.87694 0.69123 0.0
C6357 C 0.90469 0.88559 0.70994 0.0
C6358 C 0.90264 0.88322 0.70054 0.0
C6359 C 0.90996 0.88064 0.69459 0.0
C6360 C 0.89292 0.88304 0.69682 0.0
C6361 C 0.89721 0.88889 0.71655 0.0
C6362 C 0.88614 0.87721 0.70079 0.0
C6363 C 0.87709 0.87674 0.69706 0.0
C6364 C 0.87466 0.88203 0.68921 0.0
C6365 C 0.88147 0.88786 0.68523 0.0
C6366 C 0.89053 0.88835 0.689 0.0
H6367 H 0.90024 0.89306 0.7224 0.0
H6368 H 0.8919 0.89316 0.7129 0.0
H6369 H 0.89361 0.88276 0.71957 0.0
H6370 H 0.8879 0.87285 0.70666 0.0
H6371 H 0.87207 0.87204 0.70017 0.0
H6372 H 0.85939 0.22869 0.46396 0.0
H6373 H 0.85675 0.21518 0.45372 0.0
H6374 H 0.87697 0.226 0.43433 0.0
H6375 H 0.87988 0.23934 0.44464 0.0
H6376 H 0.85072 0.21443 0.43496 0.0
H6377 H 0.88626 0.19959 0.43918 0.0
H6378 H 0.88178 0.20851 0.44685 0.0
H6379 H 0.88625 0.21153 0.43557 0.0
C6380 C 0.86335 0.22814 0.45756 0.0
C6381 C 0.86989 0.23508 0.45515 0.0
C6382 C 0.86178 0.22046 0.45169 0.0
C6383 C 0.86676 0.21953 0.44334 0.0
C6384 C 0.87316 0.22651 0.44083 0.0
H6385 H 0.87016 0.17871 0.399 0.0
H6386 H 0.87085 0.19278 0.40866 0.0
C6387 C 0.87475 0.23418 0.44668 0.0
C6388 C 0.86528 0.21128 0.43722 0.0
H6389 H 0.8766 0.19283 0.4274 0.0
C6390 C 0.85636 0.20967 0.43334 0.0
C6391 C 0.87264 0.20508 0.43514 0.0
C6392 C 0.88225 0.20619 0.43946 0.0
C6393 C 0.85467 0.20214 0.42722 0.0
C6394 C 0.86207 0.19602 0.42507 0.0
C6395 C 0.87096 0.19759 0.42902 0.0
C6396 C 0.86081 0.18788 0.41875 0.0
C6397 C 0.84505 0.20092 0.42296 0.0
C6398 C 0.85484 0.1805 0.42118 0.0
C6399 C 0.85438 0.17245 0.41563 0.0
C6400 C 0.85991 0.17162 0.40758 0.0
C6401 C 0.86569 0.17915 0.40506 0.0
C6402 C 0.86615 0.18718 0.41061 0.0
H6403 H 0.84084 0.20737 0.42353 0.0
H6404 H 0.84554 0.19889 0.41549 0.0
H6405 H 0.84127 0.19529 0.42666 0.0
H6406 H 0.85076 0.18083 0.42751 0.0
H6407 H 0.84982 0.1668 0.41774 0.0
H6408 H 0.54271 0.10302 0.19743 0.0
H6409 H 0.55957 0.10231 0.19459 0.0
H6410 H 0.5631 0.12954 0.20704 0.0
H6411 H 0.54625 0.13033 0.20987 0.0
H6412 H 0.56999 0.11435 0.18376 0.0
H6413 H 0.58334 0.11446 0.22012 0.0
H6414 H 0.57125 0.11202 0.21723 0.0
H6415 H 0.57548 0.12383 0.21768 0.0
C6416 C 0.54708 0.10885 0.19958 0.0
C6417 C 0.54313 0.11674 0.20388 0.0
C6418 C 0.55671 0.10841 0.19799 0.0
C6419 C 0.56261 0.11581 0.20071 0.0
C6420 C 0.55872 0.12365 0.20508 0.0
H6421 H 0.61992 0.13224 0.19255 0.0
H6422 H 0.60346 0.13062 0.19681 0.0
C6423 C 0.54908 0.1241 0.20669 0.0
C6424 C 0.57273 0.11557 0.19849 0.0
H6425 H 0.59458 0.11719 0.2082 0.0
C6426 C 0.57538 0.11487 0.1891 0.0
C6427 C 0.57974 0.11626 0.20548 0.0
C6428 C 0.57733 0.1166 0.2157 0.0
C6429 C 0.58484 0.11515 0.18649 0.0
C6430 C 0.59183 0.11599 0.19347 0.0
C6431 C 0.5892 0.11655 0.20286 0.0
C6432 C 0.60191 0.11671 0.19113 0.0
C6433 C 0.58725 0.11485 0.17626 0.0
C6434 C 0.60653 0.10935 0.18664 0.0
C6435 C 0.61598 0.11022 0.18423 0.0
C6436 C 0.62098 0.11846 0.18633 0.0
C6437 C 0.61633 0.12575 0.19096 0.0
C6438 C 0.60691 0.12486 0.19336 0.0
H6439 H 0.58106 0.11624 0.17177 0.0
H6440 H 0.59281 0.12003 0.17466 0.0
H6441 H 0.58993 0.10784 0.17444 0.0
H6442 H 0.60283 0.10293 0.18501 0.0
H6443 H 0.61938 0.10443 0.18079 0.0
H6444 H 0.61739 0.76622 0.94732 0.0
H6445 H 0.62187 0.77886 0.9369 0.0
H6446 H 0.64439 0.78666 0.9556 0.0
H6447 H 0.64014 0.77384 0.96593 0.0
H6448 H 0.62337 0.79822 0.94025 0.0
H6449 H 0.65758 0.78274 0.93048 0.0
H6450 H 0.64855 0.77617 0.9363 0.0
H6451 H 0.6557 0.78432 0.94276 0.0
C6452 C 0.62334 0.77059 0.94919 0.0
C6453 C 0.62847 0.76896 0.95741 0.0
C6454 C 0.62584 0.77784 0.94327 0.0
C6455 C 0.63354 0.7836 0.94541 0.0
C6456 C 0.63851 0.7822 0.95374 0.0
H6457 H 0.66017 0.82654 0.91151 0.0
H6458 H 0.65572 0.81658 0.92456 0.0
C6459 C 0.63602 0.77493 0.95969 0.0
C6460 C 0.63642 0.79094 0.93881 0.0
H6461 H 0.65396 0.79732 0.92405 0.0
C6462 C 0.63007 0.79806 0.93673 0.0
C6463 C 0.64518 0.79071 0.93425 0.0
C6464 C 0.65214 0.78305 0.93598 0.0
C6465 C 0.63223 0.80493 0.93017 0.0
C6466 C 0.64089 0.80457 0.92546 0.0
C6467 C 0.64733 0.79758 0.92769 0.0
C6468 C 0.64324 0.81107 0.91783 0.0
C6469 C 0.62523 0.81253 0.92837 0.0
C6470 C 0.63771 0.81126 0.90972 0.0
C6471 C 0.64021 0.81696 0.90229 0.0
C6472 C 0.64833 0.82254 0.90278 0.0
C6473 C 0.65381 0.82241 0.91096 0.0
C6474 C 0.65131 0.81669 0.9184 0.0
H6475 H 0.62039 0.81345 0.93435 0.0
H6476 H 0.62879 0.81928 0.92702 0.0
H6477 H 0.62095 0.81065 0.92215 0.0
H6478 H 0.63156 0.80685 0.90906 0.0
H6479 H 0.63578 0.81696 0.89613 0.0
H6480 H 0.95473 0.12091 0.79653 0.0
H6481 H 0.93915 0.1197 0.80333 0.0
H6482 H 0.92773 0.11143 0.77661 0.0
H6483 H 0.94342 0.11234 0.76977 0.0
H6484 H 0.92286 0.12932 0.79825 0.0
H6485 H 0.91828 0.09096 0.79423 0.0
H6486 H 0.92954 0.09661 0.79314 0.0
H6487 H 0.92109 0.09732 0.78387 0.0
C6488 C 0.94894 0.11871 0.79211 0.0
C6489 C 0.95034 0.11662 0.78262 0.0
C6490 C 0.94002 0.1181 0.79599 0.0
C6491 C 0.93231 0.11537 0.7905 0.0
C6492 C 0.93362 0.1134 0.781 0.0
H6493 H 0.87526 0.10705 0.81272 0.0
H6494 H 0.88809 0.10876 0.80151 0.0
C6495 C 0.94257 0.11402 0.77709 0.0
C6496 C 0.92294 0.11469 0.79484 0.0
H6497 H 0.90622 0.09913 0.80176 0.0
C6498 C 0.91916 0.12274 0.79893 0.0
C6499 C 0.91811 0.10611 0.79565 0.0
C6500 C 0.92195 0.09722 0.79156 0.0
C6501 C 0.91086 0.12237 0.80409 0.0
C6502 C 0.90628 0.11371 0.80528 0.0
C6503 C 0.90978 0.10574 0.80082 0.0
C6504 C 0.89845 0.11266 0.81191 0.0
C6505 C 0.90715 0.13121 0.8084 0.0
C6506 C 0.90009 0.11412 0.82145 0.0
C6507 C 0.89286 0.11306 0.82784 0.0
C6508 C 0.88378 0.11054 0.82485 0.0
C6509 C 0.88217 0.10896 0.81527 0.0
C6510 C 0.88947 0.10998 0.80885 0.0
H6511 H 0.90985 0.13748 0.80477 0.0
H6512 H 0.89938 0.13129 0.80822 0.0
H6513 H 0.90945 0.13164 0.81579 0.0
H6514 H 0.90703 0.11598 0.82396 0.0
H6515 H 0.89445 0.11407 0.83517 0.0
H6516 H 0.61351 0.23254 0.55853 0.0
H6517 H 0.61937 0.21915 0.56718 0.0
H6518 H 0.64718 0.2244 0.55681 0.0
H6519 H 0.64143 0.23795 0.54834 0.0
H6520 H 0.62924 0.20282 0.56127 0.0
H6521 H 0.65025 0.22519 0.58546 0.0
H6522 H 0.64127 0.22981 0.57795 0.0
H6523 H 0.65251 0.22681 0.57328 0.0
C6524 C 0.62088 0.23085 0.55808 0.0
C6525 C 0.62702 0.23637 0.55282 0.0
C6526 C 0.6242 0.22316 0.56298 0.0
C6527 C 0.63373 0.22088 0.56274 0.0
C6528 C 0.63982 0.22613 0.55719 0.0
H6529 H 0.66594 0.1816 0.59574 0.0
H6530 H 0.661 0.19283 0.584 0.0
C6531 C 0.6365 0.23382 0.55228 0.0
C6532 C 0.63733 0.21326 0.56863 0.0
H6533 H 0.65135 0.20897 0.58744 0.0
C6534 C 0.63409 0.20415 0.56698 0.0
C6535 C 0.64366 0.21502 0.57607 0.0
C6536 C 0.64709 0.22474 0.57838 0.0
C6537 C 0.63706 0.19672 0.57256 0.0
C6538 C 0.64328 0.19851 0.58008 0.0
C6539 C 0.6466 0.20761 0.58164 0.0
C6540 C 0.64619 0.19115 0.58666 0.0
C6541 C 0.63358 0.18702 0.57029 0.0
C6542 C 0.6395 0.18647 0.59206 0.0
C6543 C 0.64231 0.18007 0.59879 0.0
C6544 C 0.65186 0.17828 0.60032 0.0
C6545 C 0.65854 0.18289 0.5948 0.0
C6546 C 0.65572 0.18927 0.58806 0.0
H6547 H 0.6312 0.18641 0.56292 0.0
H6548 H 0.63911 0.18178 0.57156 0.0
H6549 H 0.62752 0.18536 0.57481 0.0
H6550 H 0.63212 0.18799 0.59126 0.0
H6551 H 0.637 0.17678 0.60302 0.0
H6552 H 0.55093 0.86927 0.27656 0.0
H6553 H 0.56706 0.87077 0.28227 0.0
H6554 H 0.55909 0.89404 0.29958 0.0
H6555 H 0.54297 0.8927 0.29382 0.0
H6556 H 0.57959 0.88658 0.28176 0.0
H6557 H 0.5714 0.87554 0.31788 0.0
H6558 H 0.56346 0.87353 0.30823 0.0
H6559 H 0.56446 0.88491 0.31343 0.0
C6560 C 0.55262 0.87478 0.2815 0.0
C6561 C 0.54563 0.88083 0.28477 0.0
C6562 C 0.56183 0.8756 0.28478 0.0
C6563 C 0.56422 0.88243 0.29144 0.0
C6564 C 0.55734 0.88861 0.29457 0.0
H6565 H 0.61617 0.89312 0.32221 0.0
H6566 H 0.60029 0.89414 0.31574 0.0
C6567 C 0.54813 0.88781 0.29129 0.0
C6568 C 0.57392 0.88302 0.29514 0.0
H6569 H 0.58695 0.88027 0.31494 0.0
C6570 C 0.58121 0.88521 0.28901 0.0
C6571 C 0.57599 0.88127 0.30461 0.0
C6572 C 0.56844 0.87861 0.31143 0.0
C6573 C 0.59055 0.88574 0.29212 0.0
C6574 C 0.59265 0.88382 0.30156 0.0
C6575 C 0.58532 0.88175 0.30771 0.0
C6576 C 0.60241 0.88357 0.30514 0.0
C6577 C 0.59806 0.88845 0.28528 0.0
C6578 C 0.60884 0.87725 0.30137 0.0
C6579 C 0.61789 0.87665 0.30505 0.0
C6580 C 0.62068 0.88229 0.31264 0.0
C6581 C 0.61422 0.88864 0.3164 0.0
C6582 C 0.60517 0.88925 0.31269 0.0
H6583 H 0.59511 0.89235 0.2793 0.0
H6584 H 0.60357 0.8928 0.28869 0.0
H6585 H 0.60139 0.88206 0.28249 0.0
H6586 H 0.60679 0.87261 0.29571 0.0
H6587 H 0.62262 0.87155 0.30212 0.0
H6588 H 0.87374 0.77871 0.03174 0.0
H6589 H 0.86949 0.79204 0.04151 0.0
H6590 H 0.85358 0.77396 0.05937 0.0
H6591 H 0.85769 0.76058 0.04958 0.0
H6592 H 0.85133 0.79884 0.04652 0.0
H6593 H 0.87208 0.78747 0.07728 0.0
H6594 H 0.87375 0.78258 0.06578 0.0
H6595 H 0.86386 0.77909 0.07262 0.0
C6596 C 0.86924 0.77757 0.03767 0.0
C6597 C 0.8661 0.76856 0.0399 0.0
C6598 C 0.86686 0.7852 0.04327 0.0
C6599 C 0.86133 0.78396 0.05122 0.0
C6600 C 0.858 0.77503 0.05336 0.0
H6601 H 0.84726 0.82441 0.09492 0.0
H6602 H 0.84762 0.81028 0.08523 0.0
C6603 C 0.86037 0.7674 0.04776 0.0
C6604 C 0.85918 0.79203 0.05732 0.0
H6605 H 0.86344 0.80128 0.07894 0.0
C6606 C 0.85394 0.79937 0.05362 0.0
C6607 C 0.86255 0.79266 0.06659 0.0
C6608 C 0.86843 0.78508 0.07082 0.0
C6609 C 0.85204 0.80738 0.05894 0.0
C6610 C 0.85564 0.80812 0.06813 0.0
C6611 C 0.86067 0.80068 0.0719 0.0
C6612 C 0.8548 0.81679 0.07374 0.0
C6613 C 0.84616 0.81495 0.05468 0.0
C6614 C 0.85875 0.82512 0.0705 0.0
C6615 C 0.85859 0.83317 0.07601 0.0
C6616 C 0.85453 0.83306 0.08492 0.0
C6617 C 0.85049 0.82472 0.08812 0.0
C6618 C 0.85065 0.81665 0.08258 0.0
H6619 H 0.84161 0.81217 0.04899 0.0
H6620 H 0.84169 0.81836 0.06 0.0
H6621 H 0.85085 0.82031 0.05166 0.0
H6622 H 0.86222 0.82532 0.06381 0.0
H6623 H 0.86196 0.83939 0.07341 0.0
H6624 H 0.69638 0.96027 0.89292 0.0
H6625 H 0.6908 0.94413 0.89315 0.0
H6626 H 0.70723 0.93795 0.86878 0.0
H6627 H 0.71274 0.95409 0.86841 0.0
H6628 H 0.68086 0.93477 0.87873 0.0
H6629 H 0.71429 0.91709 0.887 0.0
H6630 H 0.71263 0.92942 0.88881 0.0
H6631 H 0.7149 0.92492 0.87733 0.0
C6632 C 0.6988 0.95548 0.8876 0.0
C6633 C 0.70502 0.95848 0.88064 0.0
C6634 C 0.69564 0.94626 0.88777 0.0
C6635 C 0.6987 0.93983 0.88106 0.0
C6636 C 0.70495 0.94276 0.87415 0.0
H6637 H 0.68608 0.88307 0.8654 0.0
H6638 H 0.69233 0.89887 0.86722 0.0
C6639 C 0.70809 0.95199 0.87395 0.0
C6640 C 0.69499 0.93017 0.88099 0.0
H6641 H 0.70154 0.9074 0.88223 0.0
C6642 C 0.68535 0.92878 0.87957 0.0
C6643 C 0.70089 0.92239 0.88208 0.0
C6644 C 0.71125 0.92349 0.88397 0.0
C6645 C 0.68148 0.91979 0.87894 0.0
C6646 C 0.68739 0.91199 0.87993 0.0
C6647 C 0.69702 0.91339 0.88147 0.0
C6648 C 0.68377 0.90232 0.87912 0.0
C6649 C 0.67115 0.91871 0.87689 0.0
C6650 C 0.67699 0.89897 0.88533 0.0
C6651 C 0.67341 0.88993 0.88432 0.0
C6652 C 0.6766 0.88405 0.87714 0.0
C6653 C 0.68354 0.88738 0.87107 0.0
C6654 C 0.6871 0.89642 0.87207 0.0
H6655 H 0.66809 0.92521 0.87407 0.0
H6656 H 0.66983 0.91297 0.8718 0.0
H6657 H 0.66742 0.91702 0.88343 0.0
H6658 H 0.67448 0.90334 0.89095 0.0
H6659 H 0.66818 0.88752 0.88919 0.0
H6660 H 0.20973 0.54259 0.12245 0.0
H6661 H 0.20547 0.55904 0.12359 0.0
H6662 H 0.17945 0.55313 0.10925 0.0
H6663 H 0.18343 0.53666 0.10845 0.0
H6664 H 0.20144 0.57188 0.10987 0.0
H6665 H 0.17067 0.56645 0.13265 0.0
H6666 H 0.17922 0.5575 0.13055 0.0
H6667 H 0.17018 0.55969 0.12208 0.0
C6668 C 0.20306 0.54477 0.11962 0.0
C6669 C 0.1969 0.53827 0.11541 0.0
C6670 C 0.20067 0.55418 0.12022 0.0
C6671 C 0.19207 0.55728 0.11665 0.0
C6672 C 0.18603 0.55086 0.11222 0.0
H6673 H 0.16384 0.61033 0.11308 0.0
H6674 H 0.16903 0.59424 0.11112 0.0
C6675 C 0.18839 0.54146 0.11166 0.0
C6676 C 0.1894 0.5672 0.11754 0.0
H6677 H 0.1725 0.58153 0.12619 0.0
C6678 C 0.19514 0.57401 0.11348 0.0
C6679 C 0.18119 0.56995 0.12228 0.0
C6680 C 0.175 0.56303 0.12722 0.0
C6681 C 0.19278 0.58348 0.11387 0.0
C6682 C 0.18451 0.5862 0.1185 0.0
C6683 C 0.1788 0.57941 0.12259 0.0
C6684 C 0.18168 0.59607 0.1193 0.0
C6685 C 0.19904 0.5905 0.10918 0.0
C6686 C 0.18708 0.6024 0.12457 0.0
C6687 C 0.18409 0.61158 0.12579 0.0
C6688 C 0.17563 0.61459 0.12177 0.0
C6689 C 0.17032 0.60823 0.11638 0.0
C6690 C 0.1733 0.59905 0.1152 0.0
H6691 H 0.20395 0.58714 0.10422 0.0
H6692 H 0.19481 0.59571 0.10536 0.0
H6693 H 0.20325 0.59426 0.11455 0.0
H6694 H 0.19349 0.60019 0.12794 0.0
H6695 H 0.18828 0.61623 0.13012 0.0
H6696 H 0.23485 0.46285 0.87313 0.0
H6697 H 0.22046 0.45484 0.86798 0.0
H6698 H 0.23668 0.43104 0.85954 0.0
H6699 H 0.25103 0.43898 0.86455 0.0
H6700 H 0.2154 0.44726 0.85021 0.0
H6701 H 0.217 0.42007 0.87732 0.0
H6702 H 0.2238 0.43069 0.87803 0.0
H6703 H 0.22765 0.42117 0.87083 0.0
C6704 C 0.23535 0.45594 0.87011 0.0
C6705 C 0.24408 0.45151 0.86936 0.0
C6706 C 0.22713 0.45137 0.86721 0.0
C6707 C 0.2275 0.44228 0.86356 0.0
C6708 C 0.23622 0.43796 0.86255 0.0
H6709 H 0.19142 0.40854 0.82971 0.0
H6710 H 0.20256 0.41992 0.83607 0.0
C6711 C 0.24441 0.44251 0.86543 0.0
C6712 C 0.21884 0.43724 0.86074 0.0
H6713 H 0.20671 0.41706 0.86442 0.0
C6714 C 0.21342 0.44071 0.85338 0.0
C6715 C 0.21617 0.42879 0.865 0.0
C6716 C 0.2214 0.42499 0.8733 0.0
C6717 C 0.20566 0.43571 0.84986 0.0
C6718 C 0.20337 0.42696 0.85373 0.0
C6719 C 0.20852 0.42373 0.86139 0.0
C6720 C 0.19604 0.42076 0.84964 0.0
C6721 C 0.20003 0.43981 0.84199 0.0
C6722 C 0.18871 0.41736 0.85516 0.0
C6723 C 0.18239 0.41074 0.85157 0.0
C6724 C 0.18334 0.40734 0.84241 0.0
C6725 C 0.19055 0.41095 0.83682 0.0
C6726 C 0.19685 0.41755 0.84041 0.0
H6727 H 0.20069 0.44752 0.84189 0.0
H6728 H 0.2027 0.43709 0.83526 0.0
H6729 H 0.1925 0.43791 0.84253 0.0
H6730 H 0.18801 0.41968 0.86233 0.0
H6731 H 0.17699 0.40803 0.8561 0.0
H6732 H 0.30336 0.46547 0.62999 0.0
H6733 H 0.30953 0.44967 0.62889 0.0
H6734 H 0.28685 0.44184 0.6104 0.0
H6735 H 0.28068 0.45773 0.61136 0.0
H6736 H 0.3001 0.43181 0.6328 0.0
H6737 H 0.31155 0.43569 0.59595 0.0
H6738 H 0.30897 0.4456 0.60329 0.0
H6739 H 0.29961 0.43854 0.59865 0.0
C6740 C 0.29969 0.4604 0.62567 0.0
C6741 C 0.29158 0.46287 0.62069 0.0
C6742 C 0.30319 0.45136 0.62511 0.0
C6743 C 0.29869 0.44463 0.61951 0.0
C6744 C 0.29046 0.44698 0.6147 0.0
H6745 H 0.32335 0.39095 0.60403 0.0
H6746 H 0.31179 0.40335 0.60582 0.0
C6747 C 0.28692 0.45602 0.6153 0.0
C6748 C 0.30288 0.43528 0.61851 0.0
H6749 H 0.31533 0.42175 0.60343 0.0
C6750 C 0.30335 0.42954 0.62635 0.0
C6751 C 0.30704 0.43235 0.61007 0.0
C6752 C 0.30685 0.43835 0.6015 0.0
C6753 C 0.30808 0.42101 0.62605 0.0
C6754 C 0.31264 0.41828 0.61775 0.0
C6755 C 0.31183 0.42385 0.60979 0.0
C6756 C 0.31898 0.41014 0.61735 0.0
C6757 C 0.30819 0.41504 0.63465 0.0
C6758 C 0.32682 0.40979 0.62328 0.0
C6759 C 0.33338 0.4027 0.62231 0.0
C6760 C 0.33232 0.39586 0.61532 0.0
C6761 C 0.32433 0.39606 0.60954 0.0
C6762 C 0.31774 0.40317 0.61053 0.0
H6763 H 0.30195 0.41635 0.63905 0.0
H6764 H 0.3084 0.40752 0.63282 0.0
H6765 H 0.3145 0.41679 0.63889 0.0
H6766 H 0.32804 0.4152 0.62847 0.0
H6767 H 0.33941 0.40269 0.62694 0.0
H6768 H 0.75948 0.03625 0.87532 0.0
H6769 H 0.77419 0.04367 0.87065 0.0
H6770 H 0.75931 0.05986 0.85027 0.0
H6771 H 0.74458 0.05246 0.85486 0.0
H6772 H 0.78318 0.04471 0.85308 0.0
H6773 H 0.77288 0.07962 0.86634 0.0
H6774 H 0.76663 0.06912 0.86937 0.0
H6775 H 0.76481 0.07435 0.85818 0.0
C6776 C 0.75935 0.0413 0.86977 0.0
C6777 C 0.75084 0.04383 0.86552 0.0
C6778 C 0.76775 0.04556 0.86713 0.0
C6779 C 0.76781 0.05242 0.86023 0.0
C6780 C 0.75939 0.05472 0.85575 0.0
H6781 H 0.81257 0.08924 0.84105 0.0
H6782 H 0.79777 0.08063 0.84235 0.0
C6783 C 0.75098 0.05049 0.85839 0.0
C6784 C 0.77664 0.05731 0.85788 0.0
H6785 H 0.78735 0.07864 0.85855 0.0
C6786 C 0.7841 0.05213 0.85426 0.0
C6787 C 0.7778 0.067 0.85941 0.0
C6788 C 0.77015 0.07286 0.86361 0.0
C6789 C 0.7927 0.05638 0.8521 0.0
C6790 C 0.7939 0.06604 0.85377 0.0
C6791 C 0.78639 0.07124 0.85725 0.0
C6792 C 0.80303 0.07081 0.85244 0.0
C6793 C 0.80039 0.05051 0.848 0.0
C6794 C 0.81086 0.06817 0.85769 0.0
C6795 C 0.81929 0.07309 0.85701 0.0
C6796 C 0.82005 0.08081 0.85108 0.0
C6797 C 0.81221 0.08338 0.84573 0.0
C6798 C 0.80376 0.07844 0.84643 0.0
H6799 H 0.79756 0.04408 0.84465 0.0
H6800 H 0.80445 0.05447 0.84276 0.0
H6801 H 0.80526 0.04841 0.85365 0.0
H6802 H 0.81038 0.06246 0.86255 0.0
H6803 H 0.82511 0.07104 0.86138 0.0
H6804 H 0.79598 0.03712 0.39413 0.0
H6805 H 0.79996 0.05374 0.39458 0.0
H6806 H 0.81403 0.05095 0.36819 0.0
H6807 H 0.80989 0.03444 0.36759 0.0
H6808 H 0.81812 0.06045 0.39488 0.0
H6809 H 0.79906 0.07472 0.36456 0.0
H6810 H 0.79615 0.06359 0.36959 0.0
H6811 H 0.80578 0.06461 0.36162 0.0
C6812 C 0.79971 0.04011 0.38832 0.0
C6813 C 0.80264 0.03446 0.38084 0.0
C6814 C 0.80202 0.04959 0.3886 0.0
C6815 C 0.80719 0.05361 0.38136 0.0
C6816 C 0.80987 0.04805 0.37376 0.0
H6817 H 0.84194 0.09992 0.3696 0.0
H6818 H 0.83165 0.08627 0.36961 0.0
C6819 C 0.8076 0.03858 0.37349 0.0
C6820 C 0.81066 0.06334 0.38216 0.0
H6821 H 0.81207 0.08386 0.37038 0.0
C6822 C 0.81665 0.06564 0.38963 0.0
C6823 C 0.80875 0.07008 0.37529 0.0
C6824 C 0.80201 0.06816 0.36736 0.0
C6825 C 0.82122 0.07431 0.39013 0.0
C6826 C 0.8196 0.08093 0.38306 0.0
C6827 C 0.81331 0.07877 0.37579 0.0
C6828 C 0.825 0.08977 0.38268 0.0
C6829 C 0.82815 0.07611 0.39794 0.0
C6830 C 0.82446 0.09642 0.38988 0.0
C6831 C 0.83042 0.1042 0.38995 0.0
C6832 C 0.83698 0.10547 0.38278 0.0
C6833 C 0.83711 0.09905 0.37532 0.0
C6834 C 0.83117 0.09128 0.37528 0.0
H6835 H 0.82996 0.06964 0.40172 0.0
H6836 H 0.8347 0.07927 0.39523 0.0
H6837 H 0.82506 0.08106 0.40303 0.0
H6838 H 0.81963 0.09545 0.39559 0.0
H6839 H 0.83015 0.109 0.3958 0.0
H6840 H 0.24876 0.54862 0.64999 0.0
H6841 H 0.23511 0.55728 0.65536 0.0
H6842 H 0.22488 0.55884 0.62708 0.0
H6843 H 0.23851 0.55013 0.62166 0.0
H6844 H 0.23076 0.57497 0.6503 0.0
H6845 H 0.20142 0.55106 0.641 0.0
H6846 H 0.21347 0.54733 0.64131 0.0
H6847 H 0.20907 0.55363 0.63146 0.0
C6848 C 0.24356 0.55074 0.64492 0.0
C6849 C 0.24472 0.54871 0.6354 0.0
C6850 C 0.23575 0.55566 0.64801 0.0
C6851 C 0.22892 0.55862 0.64164 0.0
C6852 C 0.22994 0.55644 0.63215 0.0
H6853 H 0.18278 0.59746 0.64603 0.0
H6854 H 0.19442 0.58623 0.64064 0.0
C6855 C 0.23775 0.55147 0.62906 0.0
C6856 C 0.22115 0.56462 0.64488 0.0
H6857 H 0.19731 0.56645 0.64568 0.0
C6858 C 0.22345 0.57307 0.64935 0.0
C6859 C 0.21161 0.56216 0.64357 0.0
C6860 C 0.20872 0.55301 0.63915 0.0
C6861 C 0.21648 0.57917 0.65246 0.0
C6862 C 0.20696 0.57671 0.65116 0.0
C6863 C 0.20463 0.5683 0.64666 0.0
C6864 C 0.19937 0.58285 0.65447 0.0
C6865 C 0.21936 0.58829 0.65696 0.0
C6866 C 0.19814 0.58446 0.66404 0.0
C6867 C 0.19147 0.59082 0.66715 0.0
C6868 C 0.18588 0.59569 0.66074 0.0
C6869 C 0.1869 0.59378 0.65116 0.0
C6870 C 0.19358 0.5874 0.64806 0.0
H6871 H 0.22683 0.59001 0.65566 0.0
H6872 H 0.21496 0.59407 0.65435 0.0
H6873 H 0.21836 0.58783 0.66461 0.0
H6874 H 0.20246 0.5809 0.66909 0.0
H6875 H 0.19073 0.59197 0.67458 0.0
H6876 H 0.25227 0.45571 0.14328 0.0
H6877 H 0.26434 0.44467 0.14787 0.0
H6878 H 0.28544 0.46189 0.13509 0.0
H6879 H 0.27335 0.47298 0.13037 0.0
H6880 H 0.27637 0.43509 0.1355 0.0
H6881 H 0.29631 0.45664 0.1613 0.0
H6882 H 0.2846 0.45955 0.15755 0.0
H6883 H 0.29438 0.46177 0.15007 0.0
C6884 C 0.25947 0.45716 0.14142 0.0
C6885 C 0.26184 0.4652 0.13641 0.0
C6886 C 0.26637 0.45087 0.14409 0.0
C6887 C 0.27579 0.4525 0.14188 0.0
C6888 C 0.27822 0.46058 0.137 0.0
H6889 H 0.32454 0.41726 0.15285 0.0
H6890 H 0.31445 0.43004 0.14778 0.0
C6891 C 0.27131 0.4669 0.13432 0.0
C6892 C 0.28292 0.44546 0.14432 0.0
H6893 H 0.30209 0.44159 0.15808 0.0
C6894 C 0.28201 0.43652 0.14042 0.0
C6895 C 0.29031 0.44738 0.15068 0.0
C6896 C 0.29147 0.45683 0.15522 0.0
C6897 C 0.28823 0.42939 0.14277 0.0
C6898 C 0.29544 0.43121 0.14934 0.0
C6899 C 0.29652 0.44022 0.15306 0.0
C6900 C 0.30164 0.4237 0.15272 0.0
C6901 C 0.28703 0.41997 0.13816 0.0
C6902 C 0.29781 0.41604 0.15738 0.0
C6903 C 0.30353 0.40877 0.16029 0.0
C6904 C 0.31323 0.40903 0.15866 0.0
C6905 C 0.31711 0.41687 0.15424 0.0
C6906 C 0.31135 0.42415 0.15131 0.0
H6907 H 0.28305 0.42044 0.1315 0.0
H6908 H 0.29392 0.41673 0.13673 0.0
H6909 H 0.28306 0.41532 0.14287 0.0
H6910 H 0.29036 0.41567 0.15875 0.0
H6911 H 0.30035 0.40295 0.16386 0.0
H6912 H 0.59863 0.8038 0.49568 0.0
H6913 H 0.59521 0.81172 0.51041 0.0
H6914 H 0.61237 0.79203 0.52511 0.0
H6915 H 0.61612 0.78427 0.51037 0.0
H6916 H 0.58725 0.80582 0.52711 0.0
H6917 H 0.62423 0.81717 0.53207 0.0
H6918 H 0.61991 0.81237 0.5212 0.0
H6919 H 0.62266 0.80481 0.53075 0.0
C6920 C 0.60171 0.80117 0.50205 0.0
C6921 C 0.60776 0.79348 0.50183 0.0
C6922 C 0.59968 0.80566 0.51046 0.0
C6923 C 0.60367 0.80256 0.51883 0.0
C6924 C 0.60935 0.79463 0.51871 0.0
H6925 H 0.59043 0.82207 0.57498 0.0
H6926 H 0.59119 0.81305 0.56044 0.0
C6927 C 0.61141 0.79014 0.51028 0.0
C6928 C 0.60219 0.8079 0.52757 0.0
H6929 H 0.61377 0.82058 0.5443 0.0
C6930 C 0.59304 0.80905 0.53089 0.0
C6931 C 0.60975 0.81222 0.53239 0.0
C6932 C 0.61968 0.81168 0.5289 0.0
C6933 C 0.59124 0.81434 0.53896 0.0
C6934 C 0.59882 0.81848 0.54389 0.0
C6935 C 0.60796 0.81736 0.54054 0.0
C6936 C 0.5975 0.82415 0.55247 0.0
C6937 C 0.58123 0.81564 0.542 0.0
C6938 C 0.60081 0.83337 0.55282 0.0
C6939 C 0.60043 0.8385 0.56112 0.0
C6940 C 0.59676 0.83451 0.56924 0.0
C6941 C 0.59318 0.82537 0.5688 0.0
C6942 C 0.5936 0.82021 0.5605 0.0
H6943 H 0.5762 0.81415 0.53624 0.0
H6944 H 0.57968 0.81078 0.54777 0.0
H6945 H 0.58008 0.82285 0.54459 0.0
H6946 H 0.60384 0.83654 0.5467 0.0
H6947 H 0.60315 0.84556 0.56121 0.0
H6948 H 0.45414 0.35102 0.79658 0.0
H6949 H 0.45031 0.35158 0.81319 0.0
H6950 H 0.45749 0.38077 0.81412 0.0
H6951 H 0.4611 0.38034 0.79747 0.0
H6952 H 0.4614 0.3571 0.82894 0.0
H6953 H 0.43042 0.37975 0.82401 0.0
H6954 H 0.43594 0.37369 0.81446 0.0
H6955 H 0.4411 0.38418 0.81914 0.0
C6956 C 0.45487 0.35757 0.80031 0.0
C6957 C 0.45785 0.36565 0.79568 0.0
C6958 C 0.45274 0.35786 0.80981 0.0
C6959 C 0.45348 0.36625 0.81483 0.0
C6960 C 0.45673 0.37426 0.81032 0.0
H6961 H 0.44031 0.38399 0.8709 0.0
H6962 H 0.44552 0.38263 0.85477 0.0
C6963 C 0.45889 0.37398 0.80083 0.0
C6964 C 0.45066 0.36666 0.82475 0.0
H6965 H 0.43498 0.3767 0.83956 0.0
C6966 C 0.4556 0.36135 0.83128 0.0
C6967 C 0.44308 0.3722 0.82775 0.0
C6968 C 0.43726 0.37772 0.82098 0.0
C6969 C 0.45331 0.36161 0.84079 0.0
C6970 C 0.44576 0.36719 0.84379 0.0
C6971 C 0.44078 0.37244 0.83724 0.0
C6972 C 0.44295 0.36781 0.85371 0.0
C6973 C 0.45912 0.35609 0.84757 0.0
C6974 C 0.43972 0.35992 0.85847 0.0
C6975 C 0.4368 0.36065 0.86774 0.0
C6976 C 0.43702 0.3693 0.87241 0.0
C6977 C 0.44022 0.37719 0.86759 0.0
C6978 C 0.44314 0.37644 0.85834 0.0
H6979 H 0.46598 0.35409 0.84455 0.0
H6980 H 0.46041 0.36011 0.8541 0.0
H6981 H 0.45529 0.34961 0.84938 0.0
H6982 H 0.43935 0.35321 0.85497 0.0
H6983 H 0.43441 0.35444 0.87126 0.0
H6984 H 0.89209 0.20766 0.00622 0.0
H6985 H 0.89715 0.19715 0.01856 0.0
H6986 H 0.88203 0.21342 0.0388 0.0
H6987 H 0.87679 0.22392 0.02644 0.0
H6988 H 0.9074 0.20196 0.0355 0.0
H6989 H 0.8724 0.18613 0.04224 0.0
H6990 H 0.87496 0.19238 0.03167 0.0
H6991 H 0.87314 0.19864 0.04237 0.0
C6992 C 0.88977 0.20897 0.01328 0.0
C6993 C 0.88397 0.21658 0.01534 0.0
C6994 C 0.89272 0.20299 0.02033 0.0
C6995 C 0.88988 0.20446 0.02956 0.0
C6996 C 0.8842 0.21211 0.03169 0.0
H6997 H 0.89991 0.16855 0.07774 0.0
H6998 H 0.89481 0.18144 0.06787 0.0
C6999 C 0.88128 0.21814 0.02464 0.0
C7000 C 0.89293 0.19794 0.0369 0.0
H7001 H 0.88507 0.18074 0.05121 0.0
C7002 C 0.90252 0.19735 0.03898 0.0
C7003 C 0.88653 0.19199 0.04146 0.0
C7004 C 0.87618 0.19222 0.03932 0.0
C7005 C 0.90591 0.19089 0.04544 0.0
C7006 C 0.89955 0.1847 0.04976 0.0
C7007 C 0.88993 0.18548 0.04788 0.0
C7008 C 0.90279 0.17706 0.05585 0.0
C7009 C 0.91626 0.19078 0.04759 0.0
C7010 C 0.90886 0.17026 0.05233 0.0
C7011 C 0.91177 0.16291 0.05793 0.0
C7012 C 0.90861 0.16215 0.06716 0.0
C7013 C 0.90244 0.16892 0.07065 0.0
C7014 C 0.89955 0.1763 0.06503 0.0
H7015 H 0.91961 0.19761 0.0461 0.0
H7016 H 0.9176 0.18902 0.05499 0.0
H7017 H 0.91967 0.18545 0.04313 0.0
H7018 H 0.91124 0.17055 0.04519 0.0
H7019 H 0.91635 0.15771 0.05496 0.0
H7020 H 0.03942 0.65351 0.29548 0.0
H7021 H 0.04336 0.6532 0.31211 0.0
H7022 H 0.04187 0.62322 0.31166 0.0
H7023 H 0.0381 0.62344 0.29499 0.0
H7024 H 0.03401 0.64429 0.32825 0.0
H7025 H 0.06926 0.63018 0.31994 0.0
H7026 H 0.06191 0.63553 0.31124 0.0
H7027 H 0.05934 0.62396 0.31516 0.0
C7028 C 0.03987 0.64685 0.29894 0.0
C7029 C 0.03854 0.63849 0.2939 0.0
C7030 C 0.04205 0.64669 0.30844 0.0
C7031 C 0.04299 0.63819 0.31306 0.0
C7032 C 0.04124 0.62985 0.30818 0.0
H7033 H 0.07093 0.6282 0.36604 0.0
H7034 H 0.06132 0.62585 0.35209 0.0
C7035 C 0.03903 0.63 0.29868 0.0
C7036 C 0.04652 0.63806 0.32278 0.0
H7037 H 0.06592 0.63297 0.33568 0.0
C7038 C 0.04096 0.64176 0.32992 0.0
C7039 C 0.05557 0.63473 0.3249 0.0
C7040 C 0.06193 0.63093 0.31743 0.0
C7041 C 0.04425 0.64225 0.33917 0.0
C7042 C 0.05342 0.63917 0.34124 0.0
C7043 C 0.05888 0.63529 0.3341 0.0
C7044 C 0.0578 0.64039 0.35058 0.0
C7045 C 0.03786 0.64603 0.34661 0.0
C7046 C 0.05885 0.64932 0.35452 0.0
C7047 C 0.06423 0.65067 0.36259 0.0
C7048 C 0.06882 0.64314 0.36681 0.0
C7049 C 0.06741 0.63415 0.36307 0.0
C7050 C 0.06197 0.6328 0.35504 0.0
H7051 H 0.03038 0.64507 0.34464 0.0
H7052 H 0.03912 0.6426 0.35341 0.0
H7053 H 0.03918 0.65361 0.34749 0.0
H7054 H 0.05587 0.65532 0.35112 0.0
H7055 H 0.06506 0.65767 0.36534 0.0
H7056 H 0.61479 0.19249 0.00476 0.0
H7057 H 0.61026 0.18498 0.99008 0.0
H7058 H 0.60701 0.21187 0.97737 0.0
H7059 H 0.61196 0.21946 0.99194 0.0
H7060 H 0.59405 0.18619 0.97968 0.0
H7061 H 0.62465 0.1988 0.95947 0.0
H7062 H 0.62413 0.19971 0.97201 0.0
H7063 H 0.61786 0.20781 0.96487 0.0
C7064 C 0.61324 0.19682 0.99881 0.0
C7065 C 0.61387 0.20659 0.99951 0.0
C7066 C 0.61056 0.19252 0.99045 0.0
C7067 C 0.60843 0.19786 0.98259 0.0
C7068 C 0.60879 0.20761 0.9833 0.0
H7069 H 0.5963 0.1793 0.92553 0.0
H7070 H 0.59707 0.18875 0.93982 0.0
C7071 C 0.61152 0.21194 0.99167 0.0
C7072 C 0.60595 0.19315 0.97367 0.0
H7073 H 0.6133 0.18995 0.95127 0.0
C7074 C 0.59823 0.18704 0.97345 0.0
C7075 C 0.61142 0.19428 0.96555 0.0
C7076 C 0.62003 0.20044 0.96546 0.0
C7077 C 0.59588 0.18196 0.96536 0.0
C7078 C 0.60146 0.18296 0.95732 0.0
C7079 C 0.60902 0.18924 0.95745 0.0
C7080 C 0.59995 0.17714 0.94886 0.0
C7081 C 0.58747 0.17555 0.96548 0.0
C7082 C 0.60124 0.16748 0.94925 0.0
C7083 C 0.60081 0.16207 0.94112 0.0
C7084 C 0.59909 0.16623 0.93244 0.0
C7085 C 0.59752 0.17588 0.93212 0.0
C7086 C 0.59801 0.18129 0.94026 0.0
H7087 H 0.58254 0.17745 0.97114 0.0
H7088 H 0.58366 0.17569 0.95871 0.0
H7089 H 0.58984 0.16832 0.96669 0.0
H7090 H 0.6029 0.16416 0.9558 0.0
H7091 H 0.60199 0.15465 0.94159 0.0
H7092 H 0.05393 0.36318 0.20874 0.0
H7093 H 0.05736 0.36234 0.19212 0.0
H7094 H 0.02793 0.35901 0.18595 0.0
H7095 H 0.02441 0.35976 0.20267 0.0
H7096 H 0.05284 0.34707 0.18019 0.0
H7097 H 0.0368 0.38018 0.16832 0.0
H7098 H 0.03959 0.37805 0.18041 0.0
H7099 H 0.02958 0.37251 0.1751 0.0
C7100 C 0.04817 0.36223 0.20386 0.0
C7101 C 0.0389 0.36145 0.20704 0.0
C7102 C 0.05014 0.36181 0.19436 0.0
C7103 C 0.0429 0.36066 0.18781 0.0
C7104 C 0.03361 0.36003 0.1909 0.0
H7105 H 0.05883 0.34443 0.13087 0.0
H7106 H 0.0497 0.34547 0.14525 0.0
C7107 C 0.03161 0.36045 0.20044 0.0
C7108 C 0.04527 0.35973 0.17781 0.0
H7109 H 0.0443 0.37098 0.15694 0.0
C7110 C 0.05089 0.35223 0.17507 0.0
C7111 C 0.04274 0.36652 0.17119 0.0
C7112 C 0.03689 0.37482 0.17386 0.0
C7113 C 0.05429 0.35147 0.16595 0.0
C7114 C 0.05188 0.35831 0.15934 0.0
C7115 C 0.04605 0.3657 0.16201 0.0
C7116 C 0.05613 0.35837 0.14994 0.0
C7117 C 0.06083 0.34358 0.1636 0.0
C7118 C 0.06242 0.36551 0.14761 0.0
C7119 C 0.06762 0.36495 0.13941 0.0
C7120 C 0.06662 0.35723 0.13338 0.0
C7121 C 0.05987 0.35038 0.13545 0.0
C7122 C 0.05465 0.35097 0.14365 0.0
H7123 H 0.06338 0.33996 0.16993 0.0
H7124 H 0.05708 0.3384 0.15915 0.0
H7125 H 0.06698 0.34617 0.15967 0.0
H7126 H 0.06368 0.37128 0.15238 0.0
H7127 H 0.07282 0.37029 0.1381 0.0
H7128 H 0.89931 0.80502 0.50195 0.0
H7129 H 0.90437 0.81266 0.48766 0.0
H7130 H 0.88251 0.79842 0.47223 0.0
H7131 H 0.87722 0.79091 0.48657 0.0
H7132 H 0.91021 0.80514 0.47027 0.0
H7133 H 0.87779 0.82619 0.46698 0.0
H7134 H 0.88084 0.82019 0.47756 0.0
H7135 H 0.87613 0.81381 0.46777 0.0
C7136 C 0.89555 0.80353 0.49552 0.0
C7137 C 0.88779 0.79744 0.49542 0.0
C7138 C 0.89849 0.80786 0.48735 0.0
C7139 C 0.89373 0.80621 0.47892 0.0
C7140 C 0.88619 0.79989 0.4787 0.0
H7141 H 0.9008 0.83606 0.42634 0.0
H7142 H 0.89592 0.82454 0.43786 0.0
C7143 C 0.88324 0.79554 0.48688 0.0
C7144 C 0.89654 0.81137 0.47047 0.0
H7145 H 0.88931 0.82829 0.45554 0.0
C7146 C 0.90562 0.81016 0.467 0.0
C7147 C 0.89053 0.81789 0.46621 0.0
C7148 C 0.8808 0.81969 0.46983 0.0
C7149 C 0.90891 0.81538 0.45944 0.0
C7150 C 0.903 0.82211 0.45537 0.0
C7151 C 0.89382 0.82312 0.45866 0.0
C7152 C 0.90637 0.8286 0.44812 0.0
C7153 C 0.91867 0.81364 0.45589 0.0
C7154 C 0.91384 0.83473 0.45007 0.0
C7155 C 0.91661 0.84134 0.44353 0.0
C7156 C 0.91192 0.84201 0.43491 0.0
C7157 C 0.9045 0.83578 0.43293 0.0
C7158 C 0.90174 0.82917 0.43949 0.0
H7159 H 0.9211 0.80654 0.45767 0.0
H7160 H 0.91902 0.8145 0.44822 0.0
H7161 H 0.92357 0.81873 0.4592 0.0
H7162 H 0.91735 0.83459 0.45678 0.0
H7163 H 0.92221 0.84614 0.44538 0.0
H7164 H 0.47938 0.64345 0.69657 0.0
H7165 H 0.47288 0.64485 0.68078 0.0
H7166 H 0.45034 0.62617 0.68799 0.0
H7167 H 0.45673 0.62479 0.70373 0.0
H7168 H 0.46974 0.6315 0.6674 0.0
H7169 H 0.43618 0.6479 0.67715 0.0
H7170 H 0.44589 0.64701 0.68519 0.0
H7171 H 0.43817 0.63723 0.68322 0.0
C7172 C 0.47304 0.63964 0.69477 0.0
C7173 C 0.46852 0.63408 0.70142 0.0
C7174 C 0.46932 0.64047 0.68577 0.0
C7175 C 0.46101 0.63578 0.68327 0.0
C7176 C 0.4566 0.63008 0.68984 0.0
H7177 H 0.42868 0.62333 0.63431 0.0
H7178 H 0.43584 0.62471 0.6498 0.0
C7179 C 0.46027 0.62928 0.69884 0.0
C7180 C 0.45709 0.63656 0.67371 0.0
H7181 H 0.43705 0.64156 0.66168 0.0
C7182 C 0.46264 0.63382 0.66613 0.0
C7183 C 0.44783 0.63962 0.67206 0.0
C7184 C 0.44171 0.6432 0.67983 0.0
C7185 C 0.45904 0.63369 0.657 0.0
C7186 C 0.44969 0.63645 0.65541 0.0
C7187 C 0.44421 0.63941 0.66295 0.0
C7188 C 0.44531 0.63586 0.64605 0.0
C7189 C 0.46514 0.6303 0.64913 0.0
C7190 C 0.44819 0.64177 0.63886 0.0
C7191 C 0.4441 0.64101 0.62999 0.0
C7192 C 0.43711 0.63429 0.62817 0.0
C7193 C 0.43415 0.62849 0.63545 0.0
C7194 C 0.43819 0.6293 0.64431 0.0
H7195 H 0.47169 0.62705 0.65171 0.0
H7196 H 0.46127 0.62515 0.64473 0.0
H7197 H 0.46707 0.63626 0.64466 0.0
H7198 H 0.45361 0.64695 0.64011 0.0
H7199 H 0.44655 0.64554 0.62451 0.0
H7200 H 0.52765 0.62598 0.77946 0.0
H7201 H 0.54236 0.62118 0.78683 0.0
H7202 H 0.52844 0.59707 0.79811 0.0
H7203 H 0.51385 0.60166 0.79057 0.0
H7204 H 0.54523 0.61926 0.80569 0.0
H7205 H 0.55223 0.58581 0.78777 0.0
H7206 H 0.54402 0.59419 0.78328 0.0
H7207 H 0.54058 0.58631 0.79235 0.0
C7208 C 0.52778 0.61955 0.78333 0.0
C7209 C 0.51957 0.61421 0.78444 0.0
C7210 C 0.53618 0.61684 0.78758 0.0
C7211 C 0.53653 0.6087 0.79292 0.0
C7212 C 0.52839 0.60327 0.79387 0.0
H7213 H 0.56949 0.58231 0.83426 0.0
H7214 H 0.55832 0.58716 0.82234 0.0
C7215 C 0.52002 0.60597 0.78964 0.0
C7216 C 0.54514 0.60624 0.79816 0.0
H7217 H 0.56003 0.58827 0.80252 0.0
C7218 C 0.54859 0.61256 0.80488 0.0
C7219 C 0.5495 0.59748 0.7971 0.0
C7220 C 0.54645 0.5906 0.78967 0.0
C7221 C 0.55595 0.61017 0.81091 0.0
C7222 C 0.56006 0.60126 0.8101 0.0
C7223 C 0.55685 0.59507 0.80315 0.0
C7224 C 0.56722 0.59801 0.81683 0.0
C7225 C 0.55897 0.617 0.81841 0.0
C7226 C 0.57601 0.60238 0.81754 0.0
C7227 C 0.58246 0.59959 0.82433 0.0
C7228 C 0.58024 0.59234 0.8305 0.0
C7229 C 0.57151 0.58782 0.82956 0.0
C7230 C 0.56508 0.59061 0.82277 0.0
H7231 H 0.55395 0.62282 0.81919 0.0
H7232 H 0.5597 0.61346 0.82522 0.0
H7233 H 0.5659 0.62 0.81659 0.0
H7234 H 0.57786 0.60801 0.8129 0.0
H7235 H 0.58918 0.60312 0.82478 0.0
H7236 H 0.63736 0.29624 0.04036 0.0
H7237 H 0.63908 0.31182 0.04733 0.0
H7238 H 0.61438 0.30707 0.06383 0.0
H7239 H 0.61267 0.2915 0.05698 0.0
H7240 H 0.62733 0.32735 0.04831 0.0
H7241 H 0.63434 0.31306 0.08343 0.0
H7242 H 0.63442 0.30592 0.07303 0.0
H7243 H 0.62351 0.30897 0.07843 0.0
C7244 C 0.63224 0.29857 0.0454 0.0
C7245 C 0.62495 0.29262 0.04822 0.0
C7246 C 0.63324 0.30746 0.04938 0.0
C7247 C 0.62697 0.31051 0.05624 0.0
C7248 C 0.61943 0.30475 0.05872 0.0
H7249 H 0.62008 0.3583 0.09187 0.0
H7250 H 0.61794 0.34462 0.08183 0.0
C7251 C 0.61846 0.29587 0.0548 0.0
C7252 C 0.62845 0.31958 0.06104 0.0
H7253 H 0.63167 0.32935 0.08261 0.0
C7254 C 0.62835 0.3278 0.0558 0.0
C7255 C 0.62986 0.32014 0.0708 0.0
C7256 C 0.63064 0.31155 0.07675 0.0
C7257 C 0.62931 0.33657 0.06012 0.0
C7258 C 0.63045 0.3371 0.0699 0.0
C7259 C 0.63071 0.32889 0.07511 0.0
C7260 C 0.63131 0.34607 0.07497 0.0
C7261 C 0.6289 0.34524 0.05429 0.0
C7262 C 0.63949 0.35148 0.07433 0.0
C7263 C 0.64075 0.35932 0.08007 0.0
C7264 C 0.63382 0.36188 0.08653 0.0
C7265 C 0.62549 0.35662 0.08688 0.0
C7266 C 0.62427 0.34877 0.08119 0.0
H7267 H 0.62658 0.34372 0.04703 0.0
H7268 H 0.62406 0.35037 0.05745 0.0
H7269 H 0.63597 0.3485 0.05406 0.0
H7270 H 0.64505 0.34944 0.06964 0.0
H7271 H 0.64722 0.36326 0.07961 0.0
H7272 H 0.98269 0.39609 0.28603 0.0
H7273 H 0.97017 0.40117 0.29641 0.0
H7274 H 0.95045 0.38372 0.28141 0.0
H7275 H 0.963 0.37841 0.2711 0.0
H7276 H 0.95287 0.40995 0.29192 0.0
H7277 H 0.94769 0.37561 0.30886 0.0
H7278 H 0.95795 0.3783 0.30208 0.0
H7279 H 0.94703 0.37565 0.29635 0.0
C7280 C 0.9757 0.39328 0.28497 0.0
C7281 C 0.97386 0.38678 0.27779 0.0
C7282 C 0.96855 0.39624 0.29087 0.0
C7283 C 0.95942 0.39273 0.28975 0.0
C7284 C 0.95748 0.38641 0.28247 0.0
H7285 H 0.9108 0.40153 0.32569 0.0
H7286 H 0.92085 0.39675 0.31274 0.0
C7287 C 0.96464 0.38345 0.27654 0.0
C7288 C 0.952 0.39568 0.29629 0.0
H7289 H 0.93797 0.38784 0.31379 0.0
C7290 C 0.94957 0.40512 0.29668 0.0
C7291 C 0.94769 0.38934 0.30245 0.0
C7292 C 0.95024 0.37916 0.30251 0.0
C7293 C 0.94299 0.40842 0.30312 0.0
C7294 C 0.93889 0.40213 0.30947 0.0
C7295 C 0.94113 0.39265 0.30892 0.0
C7296 C 0.93264 0.40532 0.31706 0.0
C7297 C 0.94049 0.4186 0.30306 0.0
C7298 C 0.93597 0.41165 0.32383 0.0
C7299 C 0.93027 0.41436 0.33123 0.0
C7300 C 0.92114 0.41074 0.33208 0.0
C7301 C 0.91782 0.40439 0.32528 0.0
C7302 C 0.92353 0.40169 0.31786 0.0
H7303 H 0.94193 0.42179 0.29618 0.0
H7304 H 0.93299 0.41964 0.30476 0.0
H7305 H 0.94479 0.42236 0.30837 0.0
H7306 H 0.94306 0.41434 0.32349 0.0
H7307 H 0.93313 0.4191 0.33644 0.0
H7308 H 0.87383 0.71599 0.55605 0.0
H7309 H 0.87294 0.69993 0.56149 0.0
H7310 H 0.86574 0.6906 0.53371 0.0
H7311 H 0.86651 0.70667 0.5282 0.0
H7312 H 0.8576 0.6872 0.5606 0.0
H7313 H 0.8884 0.67443 0.54084 0.0
H7314 H 0.88613 0.68666 0.54261 0.0
H7315 H 0.87962 0.68015 0.53399 0.0
C7316 C 0.87197 0.71054 0.5511 0.0
C7317 C 0.87026 0.71262 0.54168 0.0
C7318 C 0.87151 0.70136 0.55422 0.0
C7319 C 0.86939 0.69407 0.54798 0.0
C7320 C 0.86757 0.69611 0.5386 0.0
H7321 H 0.86716 0.63393 0.5549 0.0
H7322 H 0.8659 0.64977 0.54888 0.0
C7323 C 0.86802 0.70529 0.53547 0.0
C7324 C 0.86906 0.68435 0.55134 0.0
H7325 H 0.87969 0.66324 0.54916 0.0
C7326 C 0.86242 0.68195 0.55811 0.0
C7327 C 0.87535 0.67752 0.54805 0.0
C7328 C 0.88284 0.6798 0.54103 0.0
C7329 C 0.86186 0.67287 0.56163 0.0
C7330 C 0.86823 0.66607 0.55843 0.0
C7331 C 0.8748 0.66846 0.55159 0.0
C7332 C 0.86838 0.6565 0.56222 0.0
C7333 C 0.85437 0.67062 0.56865 0.0
C7334 C 0.87019 0.65502 0.57172 0.0
C7335 C 0.87091 0.64599 0.57517 0.0
C7336 C 0.86994 0.63824 0.56918 0.0
C7337 C 0.86802 0.63975 0.55968 0.0
C7338 C 0.86727 0.64879 0.55624 0.0
H7339 H 0.8485 0.67565 0.56832 0.0
H7340 H 0.85151 0.66349 0.56751 0.0
H7341 H 0.85743 0.671 0.57576 0.0
H7342 H 0.87129 0.66087 0.57642 0.0
H7343 H 0.87256 0.64508 0.58249 0.0
H7344 H 0.51993 0.3763 0.71418 0.0
H7345 H 0.53313 0.38016 0.70416 0.0
H7346 H 0.54265 0.40075 0.72416 0.0
H7347 H 0.52936 0.39699 0.73423 0.0
H7348 H 0.53792 0.39771 0.69633 0.0
H7349 H 0.56589 0.38438 0.71975 0.0
H7350 H 0.5537 0.38137 0.72123 0.0
H7351 H 0.55797 0.39262 0.72484 0.0
C7352 C 0.52478 0.3817 0.71644 0.0
C7353 C 0.52358 0.38634 0.72502 0.0
C7354 C 0.53234 0.38387 0.71071 0.0
C7355 C 0.53891 0.39067 0.71346 0.0
C7356 C 0.53774 0.39536 0.72199 0.0
H7357 H 0.59126 0.40617 0.6858 0.0
H7358 H 0.57772 0.4063 0.69623 0.0
C7359 C 0.53016 0.3932 0.72774 0.0
C7360 C 0.54693 0.39283 0.70731 0.0
H7361 H 0.5707 0.39113 0.70565 0.0
C7362 C 0.5451 0.39632 0.69838 0.0
C7363 C 0.55629 0.39107 0.71003 0.0
C7364 C 0.55863 0.38709 0.71945 0.0
C7365 C 0.55236 0.39799 0.69204 0.0
C7366 C 0.56169 0.39594 0.69465 0.0
C7367 C 0.56355 0.3927 0.70367 0.0
C7368 C 0.56954 0.39652 0.68795 0.0
C7369 C 0.54998 0.40194 0.68262 0.0
C7370 C 0.56942 0.39101 0.67983 0.0
C7371 C 0.5771 0.39096 0.67385 0.0
C7372 C 0.58512 0.39636 0.67591 0.0
C7373 C 0.58515 0.40202 0.68396 0.0
C7374 C 0.57745 0.40206 0.68995 0.0
H7375 H 0.54326 0.40579 0.68278 0.0
H7376 H 0.55558 0.40669 0.68015 0.0
H7377 H 0.54919 0.39615 0.6775 0.0
H7378 H 0.56347 0.38655 0.67823 0.0
H7379 H 0.57681 0.3866 0.66766 0.0
H7380 H 0.88036 0.28876 0.9458 0.0
H7381 H 0.88079 0.30524 0.94168 0.0
H7382 H 0.85166 0.30777 0.949 0.0
H7383 H 0.8512 0.29129 0.95319 0.0
H7384 H 0.87038 0.31375 0.9281 0.0
H7385 H 0.86336 0.32995 0.96262 0.0
H7386 H 0.86663 0.3179 0.96131 0.0
H7387 H 0.85481 0.32144 0.95896 0.0
C7388 C 0.87406 0.29284 0.94657 0.0
C7389 C 0.86574 0.28873 0.94983 0.0
C7390 C 0.87432 0.30226 0.94424 0.0
C7391 C 0.86629 0.30777 0.94513 0.0
C7392 C 0.858 0.30371 0.94846 0.0
H7393 H 0.85588 0.36559 0.92957 0.0
H7394 H 0.85401 0.34934 0.9344 0.0
C7395 C 0.85774 0.29429 0.95084 0.0
C7396 C 0.86652 0.31761 0.94209 0.0
H7397 H 0.86362 0.34004 0.94962 0.0
C7398 C 0.86892 0.31949 0.93281 0.0
C7399 C 0.86455 0.3251 0.94823 0.0
C7400 C 0.86227 0.32353 0.95836 0.0
C7401 C 0.86942 0.32864 0.92951 0.0
C7402 C 0.86757 0.33612 0.93568 0.0
C7403 C 0.86502 0.33427 0.94491 0.0
C7404 C 0.86864 0.34593 0.93275 0.0
C7405 C 0.87185 0.33024 0.91943 0.0
C7406 C 0.8775 0.34939 0.93032 0.0
C7407 C 0.87858 0.35863 0.92756 0.0
C7408 C 0.87083 0.36461 0.9272 0.0
C7409 C 0.86196 0.36113 0.92968 0.0
C7410 C 0.86089 0.35188 0.93249 0.0
H7411 H 0.87074 0.32387 0.91511 0.0
H7412 H 0.8676 0.33596 0.91646 0.0
H7413 H 0.87935 0.33226 0.91894 0.0
H7414 H 0.88358 0.34494 0.93058 0.0
H7415 H 0.88548 0.36106 0.9256 0.0
H7416 H 0.9855 0.60644 0.21171 0.0
H7417 H 0.97296 0.60156 0.20105 0.0
H7418 H 0.95337 0.61855 0.21622 0.0
H7419 H 0.96595 0.62367 0.2268 0.0
H7420 H 0.95569 0.59254 0.20514 0.0
H7421 H 0.95049 0.62721 0.18898 0.0
H7422 H 0.96075 0.62449 0.19582 0.0
H7423 H 0.94984 0.62691 0.20148 0.0
C7424 C 0.97854 0.60921 0.21274 0.0
C7425 C 0.97674 0.61551 0.22006 0.0
C7426 C 0.97137 0.60636 0.20668 0.0
C7427 C 0.96227 0.60979 0.20777 0.0
C7428 C 0.96038 0.61593 0.21517 0.0
H7429 H 0.91303 0.60127 0.17198 0.0
H7430 H 0.92339 0.60584 0.18493 0.0
C7431 C 0.96756 0.61878 0.22126 0.0
C7432 C 0.95481 0.60691 0.20111 0.0
H7433 H 0.94057 0.61501 0.18384 0.0
C7434 C 0.95235 0.59745 0.2005 0.0
C7435 C 0.95045 0.61335 0.19511 0.0
C7436 C 0.95304 0.62355 0.19529 0.0
C7437 C 0.94567 0.59424 0.194 0.0
C7438 C 0.94149 0.60064 0.18782 0.0
C7439 C 0.94379 0.61013 0.18859 0.0
C7440 C 0.93508 0.59757 0.18022 0.0
C7441 C 0.94313 0.58402 0.19381 0.0
C7442 C 0.93825 0.59148 0.17325 0.0
C7443 C 0.93237 0.58888 0.16584 0.0
C7444 C 0.92322 0.59239 0.16521 0.0
C7445 C 0.92006 0.5985 0.17222 0.0
C7446 C 0.92595 0.60109 0.17964 0.0
H7447 H 0.94473 0.58066 0.20058 0.0
H7448 H 0.93559 0.58297 0.19218 0.0
H7449 H 0.94728 0.58046 0.18835 0.0
H7450 H 0.94534 0.58887 0.17343 0.0
H7451 H 0.9351 0.58433 0.16047 0.0
H7452 H 0.64099 0.71077 0.4493 0.0
H7453 H 0.64253 0.69497 0.44309 0.0
H7454 H 0.61715 0.68682 0.45706 0.0
H7455 H 0.61536 0.70272 0.46304 0.0
H7456 H 0.6438 0.67767 0.45194 0.0
H7457 H 0.61178 0.6799 0.4298 0.0
H7458 H 0.61711 0.69001 0.43523 0.0
H7459 H 0.61012 0.68215 0.44201 0.0
C7460 C 0.6357 0.70564 0.45101 0.0
C7461 C 0.62798 0.70805 0.45657 0.0
C7462 C 0.63664 0.69659 0.44752 0.0
C7463 C 0.62988 0.68977 0.4495 0.0
C7464 C 0.62236 0.69203 0.45532 0.0
H7465 H 0.62459 0.63452 0.42338 0.0
H7466 H 0.62267 0.64747 0.43441 0.0
C7467 C 0.6214 0.7011 0.45881 0.0
C7468 C 0.63062 0.6804 0.44516 0.0
H7469 H 0.62018 0.6659 0.42917 0.0
C7470 C 0.63861 0.67506 0.44702 0.0
C7471 C 0.62382 0.67699 0.43876 0.0
C7472 C 0.61525 0.68257 0.43625 0.0
C7473 C 0.64005 0.66647 0.44252 0.0
C7474 C 0.6334 0.66322 0.43589 0.0
C7475 C 0.62526 0.6684 0.43428 0.0
C7476 C 0.63507 0.65489 0.42997 0.0
C7477 C 0.64871 0.66098 0.44485 0.0
C7478 C 0.6427 0.65476 0.42385 0.0
C7479 C 0.64377 0.64743 0.41751 0.0
C7480 C 0.63722 0.64008 0.41711 0.0
C7481 C 0.62971 0.64011 0.42343 0.0
C7482 C 0.62863 0.64747 0.42977 0.0
H7483 H 0.65147 0.66284 0.45188 0.0
H7484 H 0.64727 0.65338 0.44457 0.0
H7485 H 0.65425 0.66259 0.4397 0.0
H7486 H 0.64762 0.66053 0.42371 0.0
H7487 H 0.64952 0.64776 0.41262 0.0
H7488 H 0.81248 0.50717 0.61298 0.0
H7489 H 0.82006 0.52141 0.6076 0.0
H7490 H 0.79913 0.53785 0.62154 0.0
H7491 H 0.79157 0.52355 0.62714 0.0
H7492 H 0.81219 0.53612 0.59667 0.0
H7493 H 0.82457 0.5482 0.63165 0.0
H7494 H 0.82078 0.53637 0.62946 0.0
H7495 H 0.81231 0.54548 0.6304 0.0
C7496 C 0.80952 0.51381 0.61497 0.0
C7497 C 0.80149 0.51423 0.62058 0.0
C7498 C 0.81382 0.52194 0.61184 0.0
C7499 C 0.81022 0.53067 0.61427 0.0
C7500 C 0.80209 0.53116 0.6197 0.0
H7501 H 0.83763 0.58438 0.60269 0.0
H7502 H 0.82605 0.57281 0.60773 0.0
C7503 C 0.79774 0.523 0.62282 0.0
C7504 C 0.81512 0.5392 0.61111 0.0
H7505 H 0.82895 0.55721 0.61877 0.0
C7506 C 0.81578 0.54079 0.6015 0.0
C7507 C 0.81975 0.5453 0.61743 0.0
C7508 C 0.8194 0.54377 0.62782 0.0
C7509 C 0.82114 0.5482 0.59803 0.0
C7510 C 0.82611 0.55406 0.60433 0.0
C7511 C 0.82514 0.5527 0.61396 0.0
C7512 C 0.8329 0.56116 0.60106 0.0
C7513 C 0.82147 0.54965 0.58763 0.0
C7514 C 0.84065 0.55842 0.59577 0.0
C7515 C 0.84728 0.56498 0.59292 0.0
C7516 C 0.84635 0.57443 0.59537 0.0
C7517 C 0.83859 0.57715 0.60073 0.0
C7518 C 0.83195 0.57056 0.60358 0.0
H7519 H 0.81518 0.54666 0.5841 0.0
H7520 H 0.82199 0.55716 0.58592 0.0
H7521 H 0.82771 0.54609 0.58477 0.0
H7522 H 0.84168 0.55116 0.59397 0.0
H7523 H 0.85328 0.56259 0.589 0.0
H7524 H 0.29589 0.98083 0.36763 0.0
H7525 H 0.30326 0.96626 0.37246 0.0
H7526 H 0.31435 0.98002 0.39701 0.0
H7527 H 0.30682 0.99447 0.39239 0.0
H7528 H 0.32228 0.96362 0.37493 0.0
H7529 H 0.30351 0.95615 0.4077 0.0
H7530 H 0.29919 0.9643 0.39921 0.0
H7531 H 0.30816 0.96777 0.40741 0.0
C7532 C 0.29973 0.98069 0.37416 0.0
C7533 C 0.30078 0.98881 0.37962 0.0
C7534 C 0.30397 0.97238 0.37688 0.0
C7535 C 0.30925 0.97202 0.38516 0.0
C7536 C 0.31016 0.98007 0.3907 0.0
H7537 H 0.34944 0.93837 0.41268 0.0
H7538 H 0.33794 0.94976 0.40755 0.0
C7539 C 0.30594 0.98837 0.38799 0.0
C7540 C 0.31442 0.96348 0.38769 0.0
H7541 H 0.31818 0.94834 0.40553 0.0
C7542 C 0.32128 0.96017 0.38155 0.0
C7543 C 0.31311 0.959 0.39633 0.0
C7544 C 0.30553 0.96193 0.403 0.0
C7545 C 0.32719 0.9528 0.38402 0.0
C7546 C 0.32609 0.94854 0.3928 0.0
C7547 C 0.31902 0.95164 0.39881 0.0
C7548 C 0.33262 0.9413 0.39614 0.0
C7549 C 0.33484 0.94993 0.3774 0.0
C7550 C 0.33331 0.93267 0.39153 0.0
C7551 C 0.33986 0.92611 0.39448 0.0
C7552 C 0.3458 0.92803 0.40213 0.0
C7553 C 0.3449 0.93659 0.40686 0.0
C7554 C 0.33836 0.94314 0.40391 0.0
H7555 H 0.33591 0.9551 0.37178 0.0
H7556 H 0.34157 0.94903 0.3812 0.0
H7557 H 0.33294 0.94317 0.37409 0.0
H7558 H 0.32882 0.93105 0.38562 0.0
H7559 H 0.34028 0.91953 0.39077 0.0
H7560 H 0.28211 0.05825 0.62471 0.0
H7561 H 0.29902 0.06102 0.62501 0.0
H7562 H 0.30057 0.04987 0.65278 0.0
H7563 H 0.28363 0.047 0.6525 0.0
H7564 H 0.30877 0.07237 0.63708 0.0
H7565 H 0.32154 0.03604 0.63968 0.0
H7566 H 0.30961 0.03875 0.63655 0.0
H7567 H 0.31334 0.03935 0.64853 0.0
C7568 C 0.28605 0.05636 0.63087 0.0
C7569 C 0.28154 0.05241 0.63859 0.0
C7570 C 0.29572 0.05792 0.63102 0.0
C7571 C 0.30107 0.05556 0.63887 0.0
C7572 C 0.29661 0.05155 0.64657 0.0
H7573 H 0.36048 0.06544 0.65118 0.0
H7574 H 0.34379 0.06146 0.65241 0.0
C7575 C 0.28693 0.04993 0.64641 0.0
C7576 C 0.31124 0.05775 0.63911 0.0
H7577 H 0.33295 0.04806 0.64099 0.0
C7578 C 0.31405 0.06705 0.63792 0.0
C7579 C 0.31812 0.0508 0.64028 0.0
C7580 C 0.31554 0.04066 0.64125 0.0
C7581 C 0.32355 0.06959 0.63782 0.0
C7582 C 0.33042 0.06263 0.63883 0.0
C7583 C 0.32764 0.05336 0.64021 0.0
C7584 C 0.34053 0.06484 0.63809 0.0
C7585 C 0.32617 0.0797 0.63666 0.0
C7586 C 0.3442 0.06792 0.62961 0.0
C7587 C 0.35369 0.07019 0.62889 0.0
C7588 C 0.3597 0.0694 0.63664 0.0
C7589 C 0.35601 0.0662 0.64511 0.0
C7590 C 0.3465 0.06389 0.64582 0.0
H7591 H 0.3202 0.08438 0.63823 0.0
H7592 H 0.33216 0.08164 0.64126 0.0
H7593 H 0.32831 0.08089 0.62934 0.0
H7594 H 0.33971 0.0686 0.62355 0.0
H7595 H 0.35628 0.07272 0.6223 0.0
H7596 H 0.21853 0.02431 0.86978 0.0
H7597 H 0.20839 0.03757 0.8731 0.0
H7598 H 0.19088 0.02016 0.89016 0.0
H7599 H 0.20114 0.00694 0.88713 0.0
H7600 H 0.18954 0.03879 0.86872 0.0
H7601 H 0.19523 0.04307 0.90682 0.0
H7602 H 0.20293 0.03629 0.89953 0.0
H7603 H 0.19194 0.03147 0.90327 0.0
C7604 C 0.21263 0.02334 0.87439 0.0
C7605 C 0.21066 0.01456 0.8782 0.0
C7606 C 0.20681 0.03091 0.87623 0.0
C7607 C 0.19894 0.02988 0.88196 0.0
C7608 C 0.197 0.02116 0.88585 0.0
H7609 H 0.15049 0.06622 0.88241 0.0
H7610 H 0.16104 0.05288 0.88152 0.0
C7611 C 0.20282 0.01358 0.88402 0.0
C7612 C 0.19248 0.03779 0.88341 0.0
H7613 H 0.18276 0.05171 0.90013 0.0
C7614 C 0.18808 0.04163 0.87559 0.0
C7615 C 0.19065 0.04153 0.89237 0.0
C7616 C 0.19549 0.03795 0.90098 0.0
C7617 C 0.1818 0.04905 0.87647 0.0
C7618 C 0.17975 0.05262 0.88545 0.0
C7619 C 0.18425 0.04888 0.89327 0.0
C7620 C 0.17315 0.06043 0.88677 0.0
C7621 C 0.17753 0.05311 0.86777 0.0
C7622 C 0.17638 0.06898 0.89037 0.0
C7623 C 0.17037 0.07661 0.8909 0.0
C7624 C 0.16101 0.07581 0.88786 0.0
C7625 C 0.1577 0.0671 0.88465 0.0
C7626 C 0.16371 0.05948 0.88414 0.0
H7627 H 0.18148 0.05111 0.86142 0.0
H7628 H 0.17024 0.05047 0.86695 0.0
H7629 H 0.17729 0.06082 0.86824 0.0
H7630 H 0.18364 0.06985 0.89247 0.0
H7631 H 0.17317 0.08323 0.89332 0.0
H7632 H 0.71225 0.47237 0.64788 0.0
H7633 H 0.69684 0.46503 0.64991 0.0
H7634 H 0.70122 0.44842 0.62516 0.0
H7635 H 0.71662 0.45565 0.62314 0.0
H7636 H 0.68087 0.46358 0.63851 0.0
H7637 H 0.6963 0.4289 0.64504 0.0
H7638 H 0.70323 0.43945 0.64503 0.0
H7639 H 0.69992 0.43389 0.63421 0.0
C7640 C 0.70988 0.46723 0.64282 0.0
C7641 C 0.71569 0.46449 0.63542 0.0
C7642 C 0.70109 0.46303 0.644 0.0
C7643 C 0.69798 0.45604 0.6378 0.0
C7644 C 0.70359 0.45362 0.63016 0.0
H7645 H 0.65062 0.41889 0.63262 0.0
H7646 H 0.66418 0.42898 0.63001 0.0
C7647 C 0.71238 0.45776 0.62902 0.0
C7648 C 0.68901 0.45106 0.63943 0.0
H7649 H 0.67981 0.42937 0.64285 0.0
C7650 C 0.68062 0.45611 0.63951 0.0
C7651 C 0.68873 0.44132 0.64081 0.0
C7652 C 0.69753 0.43557 0.64137 0.0
C7653 C 0.67193 0.45162 0.64066 0.0
C7654 C 0.67166 0.44186 0.64182 0.0
C7655 C 0.68005 0.43684 0.64187 0.0
C7656 C 0.66277 0.43663 0.64297 0.0
C7657 C 0.66308 0.45728 0.64042 0.0
C7658 C 0.65742 0.43767 0.65108 0.0
C7659 C 0.64964 0.43191 0.6526 0.0
C7660 C 0.64708 0.42502 0.64602 0.0
C7661 C 0.6523 0.42422 0.63776 0.0
C7662 C 0.66009 0.42994 0.63628 0.0
H7663 H 0.66433 0.4644 0.63771 0.0
H7664 H 0.65767 0.45377 0.63602 0.0
H7665 H 0.66025 0.45792 0.64758 0.0
H7666 H 0.65946 0.44271 0.65639 0.0
H7667 H 0.64574 0.43273 0.659 0.0
H7668 H 0.71934 0.48093 0.11458 0.0
H7669 H 0.70905 0.46757 0.11123 0.0
H7670 H 0.69007 0.4768 0.13261 0.0
H7671 H 0.70033 0.49006 0.13608 0.0
H7672 H 0.70306 0.4534 0.12346 0.0
H7673 H 0.67299 0.47335 0.10963 0.0
H7674 H 0.68458 0.47832 0.11089 0.0
H7675 H 0.67706 0.47735 0.12084 0.0
C7676 C 0.71301 0.48008 0.11861 0.0
C7677 C 0.71063 0.48661 0.12556 0.0
C7678 C 0.70711 0.47248 0.11664 0.0
C7679 C 0.69872 0.47131 0.12154 0.0
C7680 C 0.6964 0.47771 0.12858 0.0
H7681 H 0.65427 0.43161 0.12727 0.0
H7682 H 0.66487 0.44503 0.12746 0.0
C7683 C 0.70228 0.48529 0.13056 0.0
C7684 C 0.69248 0.46325 0.11954 0.0
H7685 H 0.67006 0.45743 0.11332 0.0
C7686 C 0.69587 0.45425 0.12113 0.0
C7687 C 0.68312 0.4644 0.1165 0.0
C7688 C 0.67923 0.47387 0.11428 0.0
C7689 C 0.69004 0.4464 0.12014 0.0
C7690 C 0.68061 0.44758 0.11731 0.0
C7691 C 0.67728 0.45655 0.1155 0.0
C7692 C 0.67395 0.43963 0.1167 0.0
C7693 C 0.6939 0.43695 0.12249 0.0
C7694 C 0.67541 0.43224 0.11043 0.0
C7695 C 0.66939 0.42452 0.11035 0.0
C7696 C 0.66178 0.42407 0.11652 0.0
C7697 C 0.66015 0.43166 0.12254 0.0
C7698 C 0.66617 0.43936 0.12262 0.0
H7699 H 0.70059 0.43748 0.12647 0.0
H7700 H 0.68879 0.43289 0.12665 0.0
H7701 H 0.69526 0.43302 0.11595 0.0
H7702 H 0.68128 0.43239 0.10568 0.0
H7703 H 0.67086 0.41877 0.10565 0.0
H7704 H 0.28185 0.94512 0.84398 0.0
H7705 H 0.29875 0.9423 0.84446 0.0
H7706 H 0.29979 0.95189 0.87301 0.0
H7707 H 0.28288 0.95453 0.87266 0.0
H7708 H 0.31401 0.95486 0.84889 0.0
H7709 H 0.31127 0.92549 0.8737 0.0
H7710 H 0.30129 0.92986 0.86736 0.0
H7711 H 0.30571 0.93607 0.8774 0.0
C7712 C 0.28567 0.9466 0.85037 0.0
C7713 C 0.28101 0.94998 0.85831 0.0
C7714 C 0.29533 0.94504 0.85061 0.0
C7715 C 0.30048 0.94677 0.85881 0.0
C7716 C 0.29591 0.95039 0.86666 0.0
H7717 H 0.35782 0.93739 0.87594 0.0
H7718 H 0.3414 0.94192 0.87478 0.0
C7719 C 0.28626 0.95198 0.86642 0.0
C7720 C 0.3106 0.94461 0.8592 0.0
H7721 H 0.32653 0.9306 0.86988 0.0
C7722 C 0.31677 0.94955 0.85345 0.0
C7723 C 0.31414 0.93766 0.86516 0.0
C7724 C 0.30777 0.93189 0.87121 0.0
C7725 C 0.32645 0.94785 0.85365 0.0
C7726 C 0.32999 0.9409 0.85961 0.0
C7727 C 0.3238 0.93595 0.86533 0.0
C7728 C 0.3401 0.93863 0.86009 0.0
C7729 C 0.33281 0.95365 0.84763 0.0
C7730 C 0.34481 0.93525 0.85221 0.0
C7731 C 0.35424 0.93273 0.85283 0.0
C7732 C 0.35911 0.93348 0.86136 0.0
C7733 C 0.35434 0.93688 0.86923 0.0
C7734 C 0.34494 0.93941 0.8686 0.0
H7735 H 0.32939 0.9602 0.84542 0.0
H7736 H 0.33943 0.95542 0.85137 0.0
H7737 H 0.3346 0.94962 0.84126 0.0
H7738 H 0.34116 0.93441 0.84562 0.0
H7739 H 0.35771 0.93019 0.84663 0.0
H7740 H 0.21724 0.03948 0.34496 0.0
H7741 H 0.20131 0.04574 0.34413 0.0
H7742 H 0.19774 0.04061 0.37346 0.0
H7743 H 0.21365 0.03446 0.37438 0.0
H7744 H 0.1837 0.03638 0.3497 0.0
H7745 H 0.19149 0.06884 0.36971 0.0
H7746 H 0.20051 0.06197 0.36425 0.0
H7747 H 0.19541 0.05825 0.37501 0.0
C7748 C 0.21307 0.03973 0.35124 0.0
C7749 C 0.2167 0.03649 0.35974 0.0
C7750 C 0.20397 0.04326 0.35074 0.0
C7751 C 0.19841 0.04372 0.35876 0.0
C7752 C 0.20197 0.0404 0.36722 0.0
H7753 H 0.14399 0.06311 0.37453 0.0
H7754 H 0.15989 0.05712 0.3735 0.0
C7755 C 0.21103 0.03681 0.36771 0.0
C7756 C 0.18887 0.04765 0.35831 0.0
H7757 H 0.17551 0.06549 0.36654 0.0
C7758 C 0.1819 0.04278 0.35331 0.0
C7759 C 0.18658 0.05599 0.36303 0.0
C7760 C 0.19389 0.06163 0.36825 0.0
C7761 C 0.17258 0.04588 0.35318 0.0
C7762 C 0.17026 0.05418 0.358 0.0
C7763 C 0.17729 0.05913 0.36285 0.0
C7764 C 0.16051 0.05768 0.35845 0.0
C7765 C 0.16526 0.04006 0.34817 0.0
C7766 C 0.15559 0.06007 0.35033 0.0
C7767 C 0.14641 0.06339 0.35088 0.0
C7768 C 0.14202 0.06446 0.35958 0.0
C7769 C 0.14706 0.06219 0.3677 0.0
C7770 C 0.15619 0.05884 0.36713 0.0
H7771 H 0.16771 0.03284 0.34687 0.0
H7772 H 0.15867 0.03975 0.35222 0.0
H7773 H 0.16368 0.04324 0.34132 0.0
H7774 H 0.15885 0.05942 0.34356 0.0
H7775 H 0.14273 0.06504 0.34449 0.0
H7776 H 0.37566 0.19416 0.46817 0.0
H7777 H 0.37814 0.19062 0.45166 0.0
H7778 H 0.40364 0.20687 0.45219 0.0
H7779 H 0.40131 0.21029 0.46878 0.0
H7780 H 0.38097 0.20266 0.43568 0.0
H7781 H 0.41169 0.18036 0.44372 0.0
H7782 H 0.4035 0.18395 0.45255 0.0
H7783 H 0.41199 0.19207 0.44822 0.0
C7784 C 0.38179 0.197 0.46477 0.0
C7785 C 0.38835 0.20242 0.46981 0.0
C7786 C 0.38316 0.19503 0.45533 0.0
C7787 C 0.39113 0.19839 0.45075 0.0
C7788 C 0.39749 0.20413 0.45564 0.0
H7789 H 0.41129 0.17765 0.39694 0.0
H7790 H 0.40966 0.18765 0.41074 0.0
C7791 C 0.39612 0.20613 0.46509 0.0
C7792 C 0.39297 0.19541 0.44103 0.0
H7793 H 0.40691 0.18114 0.4281 0.0
C7794 C 0.38669 0.19804 0.43398 0.0
C7795 C 0.40047 0.18942 0.43885 0.0
C7796 C 0.40729 0.1862 0.44621 0.0
C7797 C 0.38761 0.19466 0.42482 0.0
C7798 C 0.39487 0.18833 0.42272 0.0
C7799 C 0.40136 0.186 0.42971 0.0
C7800 C 0.39542 0.18336 0.41363 0.0
C7801 C 0.38077 0.19786 0.41749 0.0
C7802 C 0.38792 0.17773 0.41059 0.0
C7803 C 0.3888 0.17207 0.40269 0.0
C7804 C 0.39725 0.17184 0.39771 0.0
C7805 C 0.40465 0.17773 0.40056 0.0
C7806 C 0.40376 0.18341 0.40848 0.0
H7807 H 0.37795 0.20485 0.41924 0.0
H7808 H 0.38406 0.19815 0.41051 0.0
H7809 H 0.37477 0.19292 0.41714 0.0
H7810 H 0.38149 0.17741 0.41455 0.0
H7811 H 0.38293 0.16769 0.40062 0.0
H7812 H 0.52244 0.63758 0.22513 0.0
H7813 H 0.53029 0.64267 0.21087 0.0
H7814 H 0.55716 0.63897 0.22412 0.0
H7815 H 0.54943 0.63406 0.23841 0.0
H7816 H 0.54442 0.65777 0.20831 0.0
H7817 H 0.55754 0.62235 0.19998 0.0
H7818 H 0.54802 0.62436 0.20797 0.0
H7819 H 0.55991 0.6264 0.21165 0.0
C7820 C 0.53002 0.63795 0.22504 0.0
C7821 C 0.53531 0.63529 0.23288 0.0
C7822 C 0.53448 0.64083 0.21689 0.0
C7823 C 0.54429 0.64107 0.21643 0.0
C7824 C 0.54958 0.63868 0.2243 0.0
H7825 H 0.58621 0.64924 0.1744 0.0
H7826 H 0.57758 0.64738 0.18888 0.0
C7827 C 0.54514 0.63583 0.23244 0.0
C7828 C 0.54908 0.64357 0.20767 0.0
H7829 H 0.5634 0.63472 0.19089 0.0
C7830 C 0.54853 0.65274 0.20444 0.0
C7831 C 0.55443 0.63697 0.20268 0.0
C7832 C 0.55498 0.62694 0.20567 0.0
C7833 C 0.55343 0.65557 0.19647 0.0
C7834 C 0.55887 0.64898 0.19154 0.0
C7835 C 0.55929 0.63978 0.19472 0.0
C7836 C 0.56422 0.65139 0.18305 0.0
C7837 C 0.55297 0.66562 0.19355 0.0
C7838 C 0.5596 0.65445 0.17498 0.0
C7839 C 0.56456 0.65564 0.16668 0.0
C7840 C 0.5742 0.6537 0.16627 0.0
C7841 C 0.57884 0.65095 0.17447 0.0
C7842 C 0.57389 0.6498 0.18275 0.0
H7843 H 0.55064 0.67021 0.19935 0.0
H7844 H 0.55989 0.66812 0.19107 0.0
H7845 H 0.54787 0.66627 0.18773 0.0
H7846 H 0.55211 0.65557 0.175 0.0
H7847 H 0.56078 0.65785 0.16053 0.0
H7848 H 0.09506 0.78473 0.96823 0.0
H7849 H 0.09299 0.7908 0.95248 0.0
H7850 H 0.12281 0.78934 0.94808 0.0
H7851 H 0.12491 0.78315 0.96379 0.0
H7852 H 0.1 0.80691 0.94606 0.0
H7853 H 0.11298 0.77785 0.92413 0.0
H7854 H 0.11028 0.77647 0.93632 0.0
H7855 H 0.12124 0.7816 0.93288 0.0
C7856 C 0.10117 0.78564 0.96387 0.0
C7857 C 0.11015 0.78347 0.96725 0.0
C7858 C 0.09997 0.78907 0.95487 0.0
C7859 C 0.10773 0.79041 0.94904 0.0
C7860 C 0.11669 0.78813 0.95235 0.0
H7861 H 0.11673 0.82138 0.89852 0.0
H7862 H 0.11825 0.81156 0.91233 0.0
C7863 C 0.11789 0.78463 0.96134 0.0
C7864 C 0.10648 0.7949 0.93984 0.0
H7865 H 0.1108 0.79243 0.91653 0.0
C7866 C 0.10227 0.80369 0.9396 0.0
C7867 C 0.10949 0.79071 0.93141 0.0
C7868 C 0.11367 0.7811 0.93116 0.0
C7869 C 0.10115 0.8085 0.93121 0.0
C7870 C 0.10424 0.80436 0.92281 0.0
C7871 C 0.10843 0.79556 0.923 0.0
C7872 C 0.10336 0.80927 0.91382 0.0
C7873 C 0.09687 0.81808 0.9314 0.0
C7874 C 0.09449 0.81097 0.90995 0.0
C7875 C 0.0936 0.81657 0.90208 0.0
C7876 C 0.10156 0.82059 0.89797 0.0
C7877 C 0.11046 0.81848 0.90161 0.0
C7878 C 0.11135 0.81284 0.90945 0.0
H7879 H 0.09646 0.82097 0.93859 0.0
H7880 H 0.10099 0.82296 0.92705 0.0
H7881 H 0.08967 0.81769 0.92847 0.0
H7882 H 0.08825 0.80821 0.9132 0.0
H7883 H 0.08664 0.81812 0.8995 0.0
H7884 H 0.94437 0.36866 0.74253 0.0
H7885 H 0.93683 0.36465 0.7277 0.0
H7886 H 0.96386 0.36247 0.71467 0.0
H7887 H 0.9715 0.36668 0.72946 0.0
H7888 H 0.9391 0.37503 0.71083 0.0
H7889 H 0.9498 0.33808 0.70679 0.0
H7890 H 0.95011 0.34412 0.71789 0.0
H7891 H 0.95904 0.34628 0.70941 0.0
C7892 C 0.94873 0.36736 0.73651 0.0
C7893 C 0.95855 0.36806 0.73719 0.0
C7894 C 0.9444 0.365 0.72806 0.0
C7895 C 0.94979 0.36318 0.72012 0.0
C7896 C 0.95959 0.3637 0.72077 0.0
H7897 H 0.93601 0.35293 0.66196 0.0
H7898 H 0.94373 0.35429 0.67719 0.0
C7899 C 0.96394 0.3661 0.72923 0.0
C7900 C 0.94508 0.36133 0.71106 0.0
H7901 H 0.9418 0.34484 0.69404 0.0
C7902 C 0.93964 0.36842 0.70717 0.0
C7903 C 0.94588 0.35272 0.7063 0.0
C7904 C 0.95146 0.34481 0.71031 0.0
C7905 C 0.93506 0.36718 0.69858 0.0
C7906 C 0.93575 0.35852 0.69385 0.0
C7907 C 0.94124 0.35144 0.69771 0.0
C7908 C 0.93095 0.35682 0.68479 0.0
C7909 C 0.92972 0.37524 0.69453 0.0
C7910 C 0.92117 0.35747 0.68407 0.0
C7911 C 0.91674 0.3568 0.67537 0.0
C7912 C 0.92201 0.35537 0.66723 0.0
C7913 C 0.93176 0.35421 0.66806 0.0
C7914 C 0.93618 0.35492 0.67676 0.0
H7915 H 0.93191 0.38198 0.69773 0.0
H7916 H 0.93073 0.37565 0.68687 0.0
H7917 H 0.92214 0.37425 0.69588 0.0
H7918 H 0.91698 0.35875 0.69021 0.0
H7919 H 0.90924 0.35779 0.675 0.0
H7920 H 0.37758 0.79641 0.03106 0.0
H7921 H 0.37824 0.80106 0.04751 0.0
H7922 H 0.40706 0.80954 0.0443 0.0
H7923 H 0.40656 0.80462 0.02795 0.0
H7924 H 0.40342 0.80062 0.06142 0.0
H7925 H 0.37812 0.82897 0.05405 0.0
H7926 H 0.37419 0.81738 0.05117 0.0
H7927 H 0.38377 0.82246 0.0449 0.0
C7928 C 0.38412 0.79907 0.0339 0.0
C7929 C 0.39199 0.80026 0.02815 0.0
C7930 C 0.38446 0.8018 0.04328 0.0
C7931 C 0.39264 0.80581 0.04707 0.0
C7932 C 0.40065 0.80652 0.0415 0.0
H7933 H 0.40284 0.84611 0.08942 0.0
H7934 H 0.40108 0.83644 0.07546 0.0
C7935 C 0.40033 0.80378 0.03214 0.0
C7936 C 0.39274 0.80994 0.05657 0.0
H7937 H 0.38402 0.82806 0.06931 0.0
C7938 C 0.39911 0.80655 0.06321 0.0
C7939 C 0.38717 0.81774 0.05882 0.0
C7940 C 0.38047 0.82193 0.05186 0.0
C7941 C 0.40019 0.81089 0.07197 0.0
C7942 C 0.3947 0.81876 0.07415 0.0
C7943 C 0.38818 0.82199 0.06761 0.0
C7944 C 0.39616 0.82429 0.08281 0.0
C7945 C 0.40745 0.80729 0.07869 0.0
C7946 C 0.39403 0.82063 0.0916 0.0
C7947 C 0.39498 0.82619 0.09964 0.0
C7948 C 0.39802 0.8355 0.09897 0.0
C7949 C 0.40032 0.83904 0.09016 0.0
C7950 C 0.39936 0.8335 0.08218 0.0
H7951 H 0.41212 0.80208 0.07537 0.0
H7952 H 0.4118 0.81311 0.0815 0.0
H7953 H 0.40388 0.80393 0.08465 0.0
H7954 H 0.39142 0.81357 0.09222 0.0
H7955 H 0.39309 0.82329 0.10631 0.0
H7956 H 0.98357 0.64699 0.77659 0.0
H7957 H 0.97382 0.6498 0.79033 0.0
H7958 H 0.95185 0.6328 0.77822 0.0
H7959 H 0.96162 0.62971 0.76465 0.0
H7960 H 0.95587 0.6578 0.79155 0.0
H7961 H 0.95569 0.62133 0.80394 0.0
H7962 H 0.96385 0.62548 0.79533 0.0
H7963 H 0.95203 0.62249 0.79202 0.0
C7964 C 0.9767 0.64377 0.7769 0.0
C7965 C 0.9734 0.63809 0.76953 0.0
C7966 C 0.97112 0.64544 0.78472 0.0
C7967 C 0.96217 0.6414 0.78534 0.0
C7968 C 0.9588 0.63586 0.77795 0.0
H7969 H 0.91696 0.64041 0.82491 0.0
H7970 H 0.92687 0.63951 0.81111 0.0
C7971 C 0.96436 0.63418 0.77014 0.0
C7972 C 0.95631 0.64299 0.79369 0.0
H7973 H 0.94496 0.63165 0.81117 0.0
C7974 C 0.95353 0.6521 0.79589 0.0
C7975 C 0.95329 0.63554 0.79934 0.0
C7976 C 0.95643 0.62567 0.79761 0.0
C7977 C 0.94757 0.65392 0.80345 0.0
C7978 C 0.94444 0.64644 0.80899 0.0
C7979 C 0.94732 0.63736 0.80686 0.0
C7980 C 0.93813 0.64782 0.81705 0.0
C7981 C 0.94448 0.66378 0.8053 0.0
C7982 C 0.94114 0.65288 0.82494 0.0
C7983 C 0.93547 0.65345 0.83283 0.0
C7984 C 0.92668 0.64895 0.83299 0.0
C7985 C 0.92361 0.64408 0.82498 0.0
C7986 C 0.9293 0.6435 0.81711 0.0
H7987 H 0.94574 0.66835 0.79922 0.0
H7988 H 0.93693 0.66399 0.80707 0.0
H7989 H 0.94849 0.66667 0.81133 0.0
H7990 H 0.948 0.65615 0.82509 0.0
H7991 H 0.93801 0.6573 0.83887 0.0
H7992 H 0.12446 0.19738 0.53101 0.0
H7993 H 0.12204 0.19471 0.54764 0.0
H7994 H 0.09544 0.20866 0.54612 0.0
H7995 H 0.09773 0.21121 0.52941 0.0
H7996 H 0.118 0.20751 0.56308 0.0
H7997 H 0.08937 0.18194 0.5556 0.0
H7998 H 0.09746 0.18571 0.54675 0.0
H7999 H 0.08825 0.19328 0.55051 0.0
C8000 C 0.11811 0.19991 0.53422 0.0
C8001 C 0.11123 0.20441 0.52888 0.0
C8002 C 0.11677 0.19843 0.54373 0.0
C8003 C 0.10852 0.20139 0.54807 0.0
C8004 C 0.10182 0.20624 0.54287 0.0
H8005 H 0.08854 0.18215 0.60213 0.0
H8006 H 0.0899 0.1915 0.58802 0.0
C8007 C 0.10316 0.20775 0.53334 0.0
C8008 C 0.10675 0.19884 0.55788 0.0
H8009 H 0.0937 0.18417 0.57123 0.0
C8010 C 0.11263 0.20248 0.5649 0.0
C8011 C 0.09971 0.19231 0.56022 0.0
C8012 C 0.09335 0.18801 0.5529 0.0
C8013 C 0.11176 0.19963 0.5742 0.0
C8014 C 0.10497 0.1928 0.57647 0.0
C8015 C 0.09888 0.18942 0.56949 0.0
C8016 C 0.10454 0.18844 0.58581 0.0
C8017 C 0.11814 0.20393 0.58148 0.0
C8018 C 0.11236 0.18375 0.58936 0.0
C8019 C 0.11163 0.17848 0.59746 0.0
C8020 C 0.10303 0.17768 0.60212 0.0
C8021 C 0.0953 0.1827 0.59877 0.0
C8022 C 0.09604 0.188 0.59067 0.0
H8023 H 0.12044 0.21103 0.57944 0.0
H8024 H 0.11467 0.20436 0.58838 0.0
H8025 H 0.12451 0.1996 0.5822 0.0
H8026 H 0.11894 0.18381 0.58563 0.0
H8027 H 0.11774 0.17479 0.59991 0.0
H8028 H 0.52659 0.36957 0.27475 0.0
H8029 H 0.53399 0.36471 0.28935 0.0
H8030 H 0.54888 0.34321 0.27457 0.0
H8031 H 0.54147 0.34796 0.25996 0.0
H8032 H 0.53441 0.34705 0.29855 0.0
H8033 H 0.56976 0.35881 0.28734 0.0
H8034 H 0.55918 0.36224 0.28139 0.0
H8035 H 0.56388 0.35082 0.27954 0.0
C8036 C 0.53133 0.36371 0.27463 0.0
C8037 C 0.53351 0.35921 0.26618 0.0
C8038 C 0.53558 0.36097 0.28296 0.0
C8039 C 0.5421 0.35371 0.283 0.0
C8040 C 0.54402 0.34896 0.27465 0.0
H8041 H 0.57969 0.33494 0.32728 0.0
H8042 H 0.57074 0.33586 0.3127 0.0
C8043 C 0.53978 0.35169 0.26632 0.0
C8044 C 0.5471 0.35131 0.29172 0.0
H8045 H 0.56875 0.35155 0.30196 0.0
C8046 C 0.54192 0.348 0.2993 0.0
C8047 C 0.5569 0.35253 0.29266 0.0
C8048 C 0.56278 0.35636 0.28484 0.0
C8049 C 0.54629 0.3459 0.30782 0.0
C8050 C 0.55607 0.3473 0.30881 0.0
C8051 C 0.56126 0.35044 0.30117 0.0
C8052 C 0.56098 0.34613 0.31786 0.0
C8053 C 0.54041 0.34212 0.31565 0.0
C8054 C 0.55848 0.35159 0.32559 0.0
C8055 C 0.56359 0.3511 0.33389 0.0
C8056 C 0.57136 0.34519 0.33464 0.0
C8057 C 0.57378 0.33961 0.32692 0.0
C8058 C 0.56865 0.3401 0.3186 0.0
H8059 H 0.53388 0.33878 0.31298 0.0
H8060 H 0.54435 0.33696 0.31981 0.0
H8061 H 0.53839 0.34794 0.32034 0.0
H8062 H 0.55276 0.35648 0.3251 0.0
H8063 H 0.56165 0.35565 0.33961 0.0
H8064 H 0.44371 0.36803 0.22547 0.0
H8065 H 0.42774 0.36975 0.21948 0.0
H8066 H 0.43626 0.39409 0.20425 0.0
H8067 H 0.45222 0.39252 0.21031 0.0
H8068 H 0.41532 0.38544 0.22094 0.0
H8069 H 0.42426 0.37665 0.18425 0.0
H8070 H 0.43196 0.37409 0.1939 0.0
H8071 H 0.43117 0.38576 0.18959 0.0
C8072 C 0.44218 0.37381 0.22094 0.0
C8073 C 0.44927 0.38011 0.21833 0.0
C8074 C 0.43306 0.37476 0.21749 0.0
C8075 C 0.43087 0.38196 0.21133 0.0
C8076 C 0.43786 0.38837 0.20886 0.0
H8077 H 0.37954 0.39418 0.18047 0.0
H8078 H 0.39535 0.39487 0.18721 0.0
C8079 C 0.44698 0.38745 0.21231 0.0
C8080 C 0.42127 0.38272 0.20745 0.0
H8081 H 0.40867 0.38106 0.18721 0.0
C8082 C 0.41385 0.3845 0.21357 0.0
C8083 C 0.4194 0.38153 0.19783 0.0
C8084 C 0.42709 0.37933 0.19099 0.0
C8085 C 0.40458 0.38514 0.2103 0.0
C8086 C 0.40269 0.38377 0.20069 0.0
C8087 C 0.41014 0.38213 0.19456 0.0
C8088 C 0.393 0.38363 0.19689 0.0
C8089 C 0.39693 0.38739 0.21716 0.0
C8090 C 0.38648 0.37705 0.20004 0.0
C8091 C 0.37747 0.37663 0.19621 0.0
C8092 C 0.37482 0.38275 0.18907 0.0
C8093 C 0.38138 0.38934 0.18591 0.0
C8094 C 0.3904 0.38976 0.18978 0.0
H8095 H 0.39977 0.39094 0.22349 0.0
H8096 H 0.39152 0.39189 0.21397 0.0
H8097 H 0.39351 0.38082 0.21938 0.0
H8098 H 0.38841 0.37208 0.20534 0.0
H8099 H 0.37267 0.37134 0.19866 0.0
H8100 H 0.37742 0.72342 0.96653 0.0
H8101 H 0.37391 0.70985 0.95668 0.0
H8102 H 0.35737 0.72695 0.93843 0.0
H8103 H 0.36074 0.74055 0.9483 0.0
H8104 H 0.35617 0.70197 0.95131 0.0
H8105 H 0.37655 0.7145 0.92091 0.0
H8106 H 0.3779 0.7195 0.93243 0.0
H8107 H 0.36794 0.72241 0.92537 0.0
C8108 C 0.37294 0.72429 0.96049 0.0
C8109 C 0.36941 0.73309 0.95818 0.0
C8110 C 0.37098 0.71653 0.95484 0.0
C8111 C 0.36549 0.71743 0.94676 0.0
C8112 C 0.36178 0.72615 0.94454 0.0
H8113 H 0.35252 0.67664 0.90278 0.0
H8114 H 0.35268 0.6907 0.91258 0.0
C8115 C 0.36372 0.73391 0.95018 0.0
C8116 C 0.36374 0.70923 0.94064 0.0
H8117 H 0.36836 0.7003 0.91903 0.0
C8118 C 0.3588 0.7016 0.94425 0.0
C8119 C 0.36716 0.7088 0.93141 0.0
C8120 C 0.37275 0.7167 0.92729 0.0
C8121 C 0.35721 0.69353 0.93887 0.0
C8122 C 0.36082 0.69301 0.92972 0.0
C8123 C 0.36558 0.70072 0.92605 0.0
C8124 C 0.36019 0.68437 0.92401 0.0
C8125 C 0.35162 0.68565 0.94302 0.0
C8126 C 0.36439 0.67617 0.92716 0.0
C8127 C 0.36434 0.66816 0.92158 0.0
C8128 C 0.36013 0.66818 0.91269 0.0
C8129 C 0.35587 0.6764 0.90957 0.0
C8130 C 0.35592 0.68443 0.91517 0.0
H8131 H 0.34704 0.68814 0.94874 0.0
H8132 H 0.34721 0.68211 0.93765 0.0
H8133 H 0.3565 0.68046 0.94598 0.0
H8134 H 0.36795 0.67604 0.93384 0.0
H8135 H 0.36788 0.66204 0.92413 0.0
H8136 H 0.0467 0.6289 0.71156 0.0
H8137 H 0.06356 0.62801 0.70868 0.0
H8138 H 0.05933 0.60272 0.69279 0.0
H8139 H 0.04249 0.60346 0.69573 0.0
H8140 H 0.07684 0.61325 0.71241 0.0
H8141 H 0.07278 0.62068 0.67463 0.0
H8142 H 0.06359 0.62285 0.68295 0.0
H8143 H 0.0658 0.6112 0.67892 0.0
C8144 C 0.04936 0.62307 0.70757 0.0
C8145 C 0.04323 0.6163 0.7038 0.0
C8146 C 0.05899 0.6226 0.7059 0.0
C8147 C 0.06265 0.61538 0.7004 0.0
C8148 C 0.05661 0.60844 0.6969 0.0
H8149 H 0.11817 0.60581 0.67747 0.0
H8150 H 0.10177 0.60424 0.68214 0.0
C8151 C 0.04699 0.60889 0.69857 0.0
C8152 C 0.07275 0.61525 0.69811 0.0
H8153 H 0.088 0.61723 0.68 0.0
C8154 C 0.0793 0.61412 0.70533 0.0
C8155 C 0.07591 0.61636 0.68886 0.0
C8156 C 0.06918 0.61792 0.68088 0.0
C8157 C 0.08896 0.61398 0.70353 0.0
C8158 C 0.09213 0.61521 0.69429 0.0
C8159 C 0.08556 0.61626 0.68707 0.0
C8160 C 0.10223 0.61576 0.69196 0.0
C8161 C 0.09567 0.61239 0.71151 0.0
C8162 C 0.10792 0.62277 0.6959 0.0
C8163 C 0.11728 0.62368 0.69324 0.0
C8164 C 0.12111 0.61766 0.68651 0.0
C8165 C 0.11541 0.6106 0.68262 0.0
C8166 C 0.10605 0.60967 0.68531 0.0
H8167 H 0.09216 0.60885 0.71742 0.0
H8168 H 0.10172 0.60813 0.70927 0.0
H8169 H 0.09836 0.6192 0.7141 0.0
H8170 H 0.10506 0.62771 0.70084 0.0
H8171 H 0.12142 0.62931 0.69623 0.0
H8172 H 0.14149 0.25861 0.44849 0.0
H8173 H 0.14546 0.27098 0.43758 0.0
H8174 H 0.12425 0.28846 0.44972 0.0
H8175 H 0.12025 0.2761 0.4607 0.0
H8176 H 0.13369 0.27864 0.42451 0.0
H8177 H 0.14695 0.30588 0.44905 0.0
H8178 H 0.14541 0.29389 0.45242 0.0
H8179 H 0.13547 0.30144 0.45163 0.0
C8180 C 0.13768 0.2651 0.44885 0.0
C8181 C 0.13054 0.26637 0.45544 0.0
C8182 C 0.13998 0.27217 0.44264 0.0
C8183 C 0.13522 0.28067 0.44289 0.0
C8184 C 0.12815 0.28203 0.44952 0.0
H8185 H 0.1383 0.32816 0.40527 0.0
H8186 H 0.13396 0.31747 0.41777 0.0
C8187 C 0.12586 0.27495 0.45578 0.0
C8188 C 0.13737 0.28788 0.43587 0.0
H8189 H 0.14548 0.31012 0.43318 0.0
C8190 C 0.13627 0.28552 0.42641 0.0
C8191 C 0.14069 0.29687 0.43837 0.0
C8192 C 0.14229 0.29968 0.44841 0.0
C8193 C 0.13845 0.29188 0.41938 0.0
C8194 C 0.14191 0.30081 0.42187 0.0
C8195 C 0.14284 0.30326 0.43131 0.0
C8196 C 0.14486 0.30755 0.4147 0.0
C8197 C 0.13698 0.28903 0.40932 0.0
C8198 C 0.15255 0.3056 0.409 0.0
C8199 C 0.15509 0.3117 0.40191 0.0
C8200 C 0.14998 0.31989 0.40038 0.0
C8201 C 0.14243 0.32195 0.4063 0.0
C8202 C 0.13991 0.31584 0.41342 0.0
H8203 H 0.13227 0.28287 0.40864 0.0
H8204 H 0.13397 0.29484 0.40524 0.0
H8205 H 0.14383 0.2872 0.40621 0.0
H8206 H 0.15656 0.2993 0.41 0.0
H8207 H 0.16107 0.30999 0.39762 0.0
H8208 H 0.44446 0.61113 0.27218 0.0
H8209 H 0.42873 0.60956 0.2788 0.0
H8210 H 0.43615 0.62923 0.30052 0.0
H8211 H 0.45176 0.63098 0.29386 0.0
H8212 H 0.42479 0.60339 0.29685 0.0
H8213 H 0.41074 0.63876 0.29141 0.0
H8214 H 0.42077 0.6344 0.28517 0.0
H8215 H 0.42208 0.63883 0.29687 0.0
C8216 C 0.44267 0.61525 0.27827 0.0
C8217 C 0.44935 0.62117 0.28251 0.0
C8218 C 0.4337 0.61431 0.28205 0.0
C8219 C 0.43124 0.61938 0.29007 0.0
C8220 C 0.43785 0.62539 0.29423 0.0
H8221 H 0.39103 0.62182 0.33308 0.0
H8222 H 0.40339 0.62406 0.32161 0.0
C8223 C 0.4468 0.6263 0.29048 0.0
C8224 C 0.42203 0.61789 0.29455 0.0
H8225 H 0.40294 0.62943 0.30285 0.0
C8226 C 0.41992 0.60903 0.29802 0.0
C8227 C 0.4157 0.62527 0.29606 0.0
C8228 C 0.41738 0.63483 0.2921 0.0
C8229 C 0.4119 0.60746 0.30343 0.0
C8230 C 0.40575 0.61494 0.30525 0.0
C8231 C 0.40767 0.62372 0.30145 0.0
C8232 C 0.39778 0.61398 0.31175 0.0
C8233 C 0.41035 0.59795 0.30756 0.0
C8234 C 0.39038 0.60774 0.30989 0.0
C8235 C 0.38332 0.60638 0.31649 0.0
C8236 C 0.38355 0.61126 0.32503 0.0
C8237 C 0.39075 0.61781 0.32665 0.0
C8238 C 0.39779 0.61915 0.32008 0.0
H8239 H 0.41667 0.59351 0.30699 0.0
H8240 H 0.4084 0.59854 0.31502 0.0
H8241 H 0.40452 0.59439 0.3038 0.0
H8242 H 0.39016 0.6038 0.30343 0.0
H8243 H 0.37787 0.60128 0.31503 0.0
H8244 H 0.11655 0.73701 0.06208 0.0
H8245 H 0.12186 0.72293 0.06986 0.0
H8246 H 0.14578 0.7217 0.0517 0.0
H8247 H 0.14066 0.736 0.04404 0.0
H8248 H 0.1256 0.70493 0.06304 0.0
H8249 H 0.15754 0.72199 0.07788 0.0
H8250 H 0.1481 0.72854 0.07278 0.0
H8251 H 0.15625 0.72251 0.06543 0.0
C8252 C 0.12296 0.73377 0.05975 0.0
C8253 C 0.12825 0.7377 0.05252 0.0
C8254 C 0.12595 0.72568 0.06416 0.0
C8255 C 0.13429 0.72136 0.06146 0.0
C8256 C 0.1394 0.72503 0.05399 0.0
H8257 H 0.16291 0.67646 0.09119 0.0
H8258 H 0.15848 0.6874 0.07892 0.0
C8259 C 0.13642 0.73314 0.04957 0.0
C8260 C 0.13771 0.71321 0.06672 0.0
H8261 H 0.15492 0.70632 0.08172 0.0
C8262 C 0.13205 0.70519 0.06706 0.0
C8263 C 0.14614 0.71357 0.07195 0.0
C8264 C 0.15235 0.72212 0.07209 0.0
C8265 C 0.13451 0.69759 0.07263 0.0
C8266 C 0.14277 0.69809 0.07811 0.0
C8267 C 0.1486 0.70596 0.07751 0.0
C8268 C 0.14513 0.69088 0.08505 0.0
C8269 C 0.12821 0.68912 0.07266 0.0
C8270 C 0.13909 0.68921 0.09254 0.0
C8271 C 0.14159 0.68298 0.09952 0.0
C8272 C 0.15021 0.67832 0.09919 0.0
C8273 C 0.15618 0.67987 0.09159 0.0
C8274 C 0.15369 0.68614 0.08461 0.0
H8275 H 0.12394 0.68861 0.06617 0.0
H8276 H 0.13233 0.68264 0.0734 0.0
H8277 H 0.12333 0.68962 0.07863 0.0
H8278 H 0.13254 0.69292 0.09311 0.0
H8279 H 0.1368 0.68187 0.10524 0.0
H8280 H 0.049 0.36875 0.78086 0.0
H8281 H 0.06506 0.36965 0.78686 0.0
H8282 H 0.06049 0.39799 0.79576 0.0
H8283 H 0.0444 0.39714 0.78981 0.0
H8284 H 0.07967 0.38149 0.78227 0.0
H8285 H 0.07006 0.38589 0.81952 0.0
H8286 H 0.06168 0.38232 0.8107 0.0
H8287 H 0.06508 0.39435 0.81184 0.0
C8288 C 0.05143 0.3752 0.78403 0.0
C8289 C 0.04541 0.38286 0.7849 0.0
C8290 C 0.0606 0.37569 0.78749 0.0
C8291 C 0.06392 0.38383 0.7919 0.0
C8292 C 0.058 0.39157 0.79259 0.0
H8293 H 0.11831 0.39574 0.81828 0.0
H8294 H 0.10266 0.39739 0.81132 0.0
C8295 C 0.04882 0.39107 0.78917 0.0
C8296 C 0.07359 0.3842 0.79571 0.0
H8297 H 0.08618 0.38676 0.81592 0.0
C8298 C 0.0811 0.38265 0.78962 0.0
C8299 C 0.07544 0.38576 0.80531 0.0
C8300 C 0.06765 0.3871 0.81225 0.0
C8301 C 0.09039 0.38258 0.79287 0.0
C8302 C 0.09221 0.38398 0.80248 0.0
C8303 C 0.08474 0.38572 0.80855 0.0
C8304 C 0.10176 0.38312 0.80645 0.0
C8305 C 0.09819 0.38103 0.78599 0.0
C8306 C 0.10637 0.37454 0.80607 0.0
C8307 C 0.11526 0.37358 0.81003 0.0
C8308 C 0.11972 0.38118 0.81448 0.0
C8309 C 0.11509 0.38978 0.81483 0.0
C8310 C 0.10615 0.39073 0.8109 0.0
H8311 H 0.09593 0.38257 0.77875 0.0
H8312 H 0.10438 0.38543 0.78776 0.0
H8313 H 0.10035 0.37363 0.78623 0.0
H8314 H 0.10304 0.36855 0.80279 0.0
H8315 H 0.11867 0.36688 0.80955 0.0
H8316 H 0.37411 0.27844 0.53118 0.0
H8317 H 0.37024 0.29185 0.54102 0.0
H8318 H 0.35718 0.27362 0.56088 0.0
H8319 H 0.36089 0.26017 0.55104 0.0
H8320 H 0.35223 0.29785 0.54773 0.0
H8321 H 0.37673 0.28861 0.57643 0.0
H8322 H 0.3775 0.28351 0.56492 0.0
H8323 H 0.36863 0.27962 0.57284 0.0
C8324 C 0.37032 0.27728 0.53759 0.0
C8325 C 0.36786 0.26822 0.54034 0.0
C8326 C 0.36816 0.28495 0.54322 0.0
C8327 C 0.36354 0.2837 0.55173 0.0
C8328 C 0.3609 0.2747 0.55442 0.0
H8329 H 0.35102 0.32371 0.59614 0.0
H8330 H 0.35157 0.30957 0.58649 0.0
C8331 C 0.36305 0.26703 0.54879 0.0
C8332 C 0.36157 0.29183 0.55781 0.0
H8333 H 0.3673 0.30181 0.57877 0.0
C8334 C 0.3555 0.29873 0.55452 0.0
C8335 C 0.36581 0.2929 0.56669 0.0
C8336 C 0.37259 0.28582 0.57044 0.0
C8337 C 0.35357 0.3067 0.55989 0.0
C8338 C 0.35799 0.30787 0.56868 0.0
C8339 C 0.36391 0.30088 0.57203 0.0
C8340 C 0.35698 0.31651 0.57431 0.0
C8341 C 0.34677 0.31374 0.55613 0.0
C8342 C 0.35985 0.3251 0.57067 0.0
C8343 C 0.35955 0.33316 0.57615 0.0
C8344 C 0.35646 0.33281 0.58543 0.0
C8345 C 0.35349 0.32421 0.58904 0.0
C8346 C 0.35377 0.31613 0.58353 0.0
H8347 H 0.34191 0.31054 0.55092 0.0
H8348 H 0.34258 0.31691 0.56181 0.0
H8349 H 0.35072 0.31936 0.55261 0.0
H8350 H 0.36259 0.32552 0.56366 0.0
H8351 H 0.36209 0.33962 0.57321 0.0
H8352 H 0.19278 0.45993 0.3701 0.0
H8353 H 0.18914 0.44329 0.36922 0.0
H8354 H 0.19319 0.44109 0.39893 0.0
H8355 H 0.19674 0.45778 0.39988 0.0
H8356 H 0.19939 0.42792 0.37402 0.0
H8357 H 0.16713 0.43009 0.3954 0.0
H8358 H 0.17298 0.44028 0.39093 0.0
H8359 H 0.1775 0.43452 0.40106 0.0
C8360 C 0.19298 0.45589 0.37644 0.0
C8361 C 0.19499 0.46017 0.38507 0.0
C8362 C 0.19087 0.44639 0.37593 0.0
C8363 C 0.19073 0.44098 0.38403 0.0
C8364 C 0.19302 0.44517 0.39263 0.0
H8365 H 0.17599 0.38216 0.39114 0.0
H8366 H 0.18197 0.39803 0.39375 0.0
C8367 C 0.19507 0.4547 0.39315 0.0
C8368 C 0.18811 0.43099 0.38343 0.0
H8369 H 0.17183 0.41507 0.39058 0.0
C8370 C 0.19338 0.4251 0.37766 0.0
C8371 C 0.18026 0.42733 0.38819 0.0
C8372 C 0.17408 0.43338 0.39418 0.0
C8373 C 0.19099 0.41567 0.37648 0.0
C8374 C 0.18307 0.41207 0.38113 0.0
C8375 C 0.17791 0.41788 0.38706 0.0
C8376 C 0.17972 0.40241 0.37953 0.0
C8377 C 0.19696 0.40963 0.37028 0.0
C8378 C 0.17641 0.39967 0.3707 0.0
C8379 C 0.17299 0.39065 0.36919 0.0
C8380 C 0.17279 0.38419 0.3765 0.0
C8381 C 0.17613 0.38696 0.38535 0.0
C8382 C 0.17951 0.39601 0.38687 0.0
H8383 H 0.20401 0.41274 0.3692 0.0
H8384 H 0.1978 0.40258 0.37328 0.0
H8385 H 0.1935 0.40885 0.36337 0.0
H8386 H 0.17639 0.40455 0.36498 0.0
H8387 H 0.17056 0.38871 0.36227 0.0
H8388 H 0.68998 0.03766 0.63046 0.0
H8389 H 0.68599 0.05417 0.63122 0.0
H8390 H 0.70271 0.05926 0.60681 0.0
H8391 H 0.70662 0.0427 0.60595 0.0
H8392 H 0.69688 0.06961 0.63325 0.0
H8393 H 0.67797 0.07062 0.59935 0.0
H8394 H 0.68131 0.05986 0.60478 0.0
H8395 H 0.68981 0.06661 0.59851 0.0
C8396 C 0.69286 0.0423 0.6253 0.0
C8397 C 0.69858 0.03887 0.61812 0.0
C8398 C 0.69055 0.05173 0.62571 0.0
C8399 C 0.69391 0.05792 0.61897 0.0
C8400 C 0.69983 0.05457 0.61194 0.0
H8401 H 0.68681 0.11815 0.61414 0.0
H8402 H 0.69239 0.1021 0.61242 0.0
C8403 C 0.70209 0.04512 0.61148 0.0
C8404 C 0.69122 0.06788 0.61939 0.0
H8405 H 0.68015 0.08503 0.60727 0.0
C8406 C 0.69323 0.07297 0.62757 0.0
C8407 C 0.68644 0.07226 0.61197 0.0
C8408 C 0.68367 0.06705 0.60319 0.0
C8409 C 0.69057 0.08232 0.62852 0.0
C8410 C 0.68577 0.08666 0.62113 0.0
C8411 C 0.68388 0.08165 0.6129 0.0
C8412 C 0.68231 0.0963 0.62199 0.0
C8413 C 0.6929 0.08751 0.63743 0.0
C8414 C 0.67474 0.09828 0.62784 0.0
C8415 C 0.67152 0.10739 0.6288 0.0
C8416 C 0.67585 0.1147 0.62395 0.0
C8417 C 0.68339 0.11267 0.61802 0.0
C8418 C 0.68656 0.10353 0.617 0.0
H8419 H 0.69807 0.08373 0.64177 0.0
H8420 H 0.69574 0.09454 0.63587 0.0
H8421 H 0.68642 0.08843 0.64155 0.0
H8422 H 0.67135 0.09276 0.6317 0.0
H8423 H 0.66576 0.10874 0.6335 0.0
H8424 H 0.72996 0.97123 0.35635 0.0
H8425 H 0.717 0.96078 0.3521 0.0
H8426 H 0.72722 0.94047 0.37157 0.0
H8427 H 0.73992 0.95101 0.37616 0.0
H8428 H 0.71815 0.94366 0.34427 0.0
H8429 H 0.6998 0.94093 0.378 0.0
H8430 H 0.70854 0.94977 0.37583 0.0
H8431 H 0.71199 0.93819 0.37902 0.0
C8432 C 0.72934 0.96462 0.35988 0.0
C8433 C 0.73599 0.96197 0.36661 0.0
C8434 C 0.72195 0.95863 0.3574 0.0
C8435 C 0.72105 0.94989 0.36162 0.0
C8436 C 0.72764 0.94725 0.36837 0.0
H8437 H 0.69161 0.89857 0.35202 0.0
H8438 H 0.70174 0.91146 0.35716 0.0
C8439 C 0.73499 0.95325 0.37089 0.0
C8440 C 0.7136 0.94327 0.35854 0.0
H8441 H 0.69608 0.92917 0.36654 0.0
C8442 C 0.71324 0.9406 0.34911 0.0
C8443 C 0.70717 0.93928 0.36487 0.0
C8444 C 0.70682 0.94226 0.37497 0.0
C8445 C 0.70688 0.93378 0.34591 0.0
C8446 C 0.70069 0.92958 0.3523 0.0
C8447 C 0.70088 0.93239 0.36168 0.0
C8448 C 0.69427 0.92194 0.34942 0.0
C8449 C 0.70704 0.93086 0.33578 0.0
C8450 C 0.68663 0.92362 0.34349 0.0
C8451 C 0.68083 0.91627 0.34054 0.0
C8452 C 0.6826 0.90712 0.34345 0.0
C8453 C 0.69015 0.90552 0.34955 0.0
C8454 C 0.69591 0.91287 0.35254 0.0
H8455 H 0.71319 0.93375 0.33207 0.0
H8456 H 0.70714 0.92315 0.33515 0.0
H8457 H 0.70059 0.93335 0.33227 0.0
H8458 H 0.68522 0.9306 0.34108 0.0
H8459 H 0.67509 0.91771 0.33581 0.0
H8460 H 0.80194 0.96512 0.13186 0.0
H8461 H 0.80817 0.94933 0.13083 0.0
H8462 H 0.78654 0.94184 0.111 0.0
H8463 H 0.78035 0.95771 0.11185 0.0
H8464 H 0.79894 0.93143 0.1339 0.0
H8465 H 0.81171 0.93602 0.0976 0.0
H8466 H 0.80859 0.94576 0.10495 0.0
H8467 H 0.7996 0.9386 0.09975 0.0
C8468 C 0.79852 0.96012 0.12726 0.0
C8469 C 0.79071 0.96268 0.12187 0.0
C8470 C 0.80204 0.95109 0.12674 0.0
C8471 C 0.79787 0.94446 0.12077 0.0
C8472 C 0.78991 0.94689 0.11557 0.0
H8473 H 0.82242 0.89092 0.10491 0.0
H8474 H 0.811 0.90343 0.10674 0.0
C8475 C 0.78635 0.95593 0.11612 0.0
C8476 C 0.80214 0.93515 0.11977 0.0
H8477 H 0.81496 0.9218 0.10482 0.0
C8478 C 0.80237 0.92927 0.12752 0.0
C8479 C 0.80656 0.93235 0.11142 0.0
C8480 C 0.8067 0.9385 0.10295 0.0
C8481 C 0.80706 0.92071 0.12721 0.0
C8482 C 0.81182 0.91809 0.11898 0.0
C8483 C 0.8113 0.92382 0.11112 0.0
C8484 C 0.81803 0.90985 0.11858 0.0
C8485 C 0.80689 0.91459 0.1357 0.0
C8486 C 0.82572 0.90925 0.12467 0.0
C8487 C 0.83221 0.90209 0.12368 0.0
C8488 C 0.8312 0.89542 0.1165 0.0
C8489 C 0.82334 0.89588 0.11057 0.0
C8490 C 0.81684 0.90306 0.11157 0.0
H8491 H 0.80057 0.91591 0.13998 0.0
H8492 H 0.80703 0.9071 0.13373 0.0
H8493 H 0.81313 0.91617 0.14009 0.0
H8494 H 0.82691 0.91452 0.13 0.0
H8495 H 0.83813 0.90189 0.12842 0.0
H8496 H 0.26965 0.52266 0.36726 0.0
H8497 H 0.28247 0.53301 0.36265 0.0
H8498 H 0.26249 0.55281 0.35227 0.0
H8499 H 0.24963 0.54247 0.35673 0.0
H8500 H 0.28678 0.54091 0.3446 0.0
H8501 H 0.27859 0.56773 0.37148 0.0
H8502 H 0.27397 0.55601 0.37194 0.0
H8503 H 0.26903 0.56426 0.36399 0.0
C8504 C 0.26797 0.52916 0.36389 0.0
C8505 C 0.2586 0.53176 0.36244 0.0
C8506 C 0.27531 0.53508 0.36129 0.0
C8507 C 0.27341 0.54372 0.35724 0.0
C8508 C 0.26409 0.54624 0.35554 0.0
H8509 H 0.31078 0.59035 0.34485 0.0
H8510 H 0.29705 0.58006 0.34564 0.0
C8511 C 0.25675 0.54033 0.35812 0.0
C8512 C 0.28118 0.55018 0.355 0.0
H8513 H 0.29094 0.57109 0.36121 0.0
C8514 C 0.28769 0.54752 0.3482 0.0
C8515 C 0.28231 0.55881 0.35969 0.0
C8516 C 0.27566 0.56188 0.36724 0.0
C8517 C 0.29533 0.55329 0.34597 0.0
C8518 C 0.29657 0.56183 0.35081 0.0
C8519 C 0.28996 0.56455 0.35749 0.0
C8520 C 0.30494 0.56785 0.34947 0.0
C8521 C 0.30193 0.55021 0.33839 0.0
C8522 C 0.31392 0.56439 0.35133 0.0
C8523 C 0.32175 0.57025 0.35089 0.0
C8524 C 0.32076 0.57971 0.34866 0.0
C8525 C 0.31177 0.58312 0.34664 0.0
C8526 C 0.30393 0.57724 0.34706 0.0
H8527 H 0.29849 0.5452 0.3335 0.0
H8528 H 0.30458 0.55624 0.33437 0.0
H8529 H 0.30801 0.54666 0.3416 0.0
H8530 H 0.31485 0.55724 0.35345 0.0
H8531 H 0.32854 0.56744 0.35269 0.0
H8532 H 0.29632 0.53804 0.89631 0.0
H8533 H 0.30393 0.55332 0.89613 0.0
H8534 H 0.29691 0.55617 0.86703 0.0
H8535 H 0.28947 0.54075 0.86709 0.0
H8536 H 0.31561 0.5595 0.87088 0.0
H8537 H 0.29339 0.57968 0.89515 0.0
H8538 H 0.29722 0.56883 0.89993 0.0
H8539 H 0.2896 0.5688 0.8899 0.0
C8540 C 0.29634 0.54194 0.88988 0.0
C8541 C 0.29231 0.53817 0.8817 0.0
C8542 C 0.30059 0.55073 0.88982 0.0
C8543 C 0.30087 0.55594 0.8816 0.0
C8544 C 0.29669 0.55229 0.87347 0.0
H8545 H 0.32657 0.6118 0.87944 0.0
H8546 H 0.31525 0.59893 0.87793 0.0
C8547 C 0.29241 0.5435 0.87353 0.0
C8548 C 0.30625 0.56481 0.88134 0.0
H8549 H 0.3087 0.586 0.89211 0.0
C8550 C 0.31402 0.56535 0.87543 0.0
C8551 C 0.30411 0.57247 0.8872 0.0
C8552 C 0.29557 0.57248 0.89334 0.0
C8553 C 0.31996 0.57316 0.87553 0.0
C8554 C 0.31815 0.58058 0.88179 0.0
C8555 C 0.31013 0.58025 0.88739 0.0
C8556 C 0.3248 0.58846 0.88296 0.0
C8557 C 0.32823 0.57337 0.86903 0.0
C8558 C 0.33381 0.58684 0.88649 0.0
C8559 C 0.34024 0.59415 0.88743 0.0
C8560 C 0.3378 0.60325 0.88485 0.0
C8561 C 0.32867 0.60489 0.88153 0.0
C8562 C 0.32221 0.59755 0.88062 0.0
H8563 H 0.32727 0.56845 0.86307 0.0
H8564 H 0.32939 0.58048 0.86626 0.0
H8565 H 0.33462 0.57131 0.87291 0.0
H8566 H 0.33588 0.5799 0.88852 0.0
H8567 H 0.34713 0.59267 0.89023 0.0
H8568 H 0.75153 0.06271 0.13466 0.0
H8569 H 0.73768 0.07094 0.14008 0.0
H8570 H 0.72076 0.04645 0.1349 0.0
H8571 H 0.73465 0.03811 0.12938 0.0
H8572 H 0.72122 0.07415 0.12956 0.0
H8573 H 0.71391 0.05421 0.16187 0.0
H8574 H 0.72507 0.0537 0.15602 0.0
H8575 H 0.71512 0.04759 0.15125 0.0
C8576 C 0.74486 0.05906 0.13462 0.0
C8577 C 0.74418 0.04977 0.13152 0.0
C8578 C 0.73696 0.06377 0.13777 0.0
C8579 C 0.72821 0.05929 0.13795 0.0
C8580 C 0.72748 0.04998 0.13496 0.0
H8581 H 0.67556 0.08557 0.15599 0.0
H8582 H 0.68664 0.07403 0.14992 0.0
C8583 C 0.73541 0.04524 0.1318 0.0
C8584 C 0.71988 0.0646 0.14096 0.0
H8585 H 0.70395 0.06678 0.15852 0.0
C8586 C 0.71739 0.07249 0.13585 0.0
C8587 C 0.71486 0.06237 0.14913 0.0
C8588 C 0.71737 0.05405 0.15495 0.0
C8589 C 0.71019 0.07838 0.13882 0.0
C8590 C 0.70545 0.07639 0.1472 0.0
C8591 C 0.70764 0.06828 0.15211 0.0
C8592 C 0.69875 0.08307 0.15128 0.0
C8593 C 0.70781 0.08678 0.13304 0.0
C8594 C 0.70195 0.09185 0.15427 0.0
C8595 C 0.6957 0.0984 0.15778 0.0
C8596 C 0.68608 0.09631 0.15837 0.0
C8597 C 0.68292 0.08738 0.15565 0.0
C8598 C 0.68922 0.0808 0.15214 0.0
H8599 H 0.71021 0.08596 0.12573 0.0
H8600 H 0.70015 0.08804 0.13301 0.0
H8601 H 0.71135 0.09301 0.13608 0.0
H8602 H 0.70932 0.09366 0.15384 0.0
H8603 H 0.69841 0.10511 0.16003 0.0
H8604 H 0.76254 0.95644 0.62202 0.0
H8605 H 0.7741 0.94513 0.62732 0.0
H8606 H 0.77638 0.95959 0.6537 0.0
H8607 H 0.76478 0.97091 0.64848 0.0
H8608 H 0.79383 0.95405 0.64617 0.0
H8609 H 0.76802 0.92497 0.64661 0.0
H8610 H 0.76879 0.9309 0.63567 0.0
H8611 H 0.76457 0.93699 0.64578 0.0
C8612 C 0.76548 0.9572 0.62896 0.0
C8613 C 0.76267 0.96453 0.63486 0.0
C8614 C 0.77209 0.95074 0.63197 0.0
C8615 C 0.77598 0.95144 0.64095 0.0
C8616 C 0.77344 0.95892 0.64675 0.0
H8617 H 0.80286 0.90736 0.67162 0.0
H8618 H 0.79295 0.92008 0.66629 0.0
C8619 C 0.76684 0.9654 0.64374 0.0
C8620 C 0.78249 0.94424 0.6444 0.0
H8621 H 0.78387 0.92108 0.64934 0.0
C8622 C 0.79167 0.94684 0.64687 0.0
C8623 C 0.7796 0.93487 0.64543 0.0
C8624 C 0.76969 0.93175 0.64332 0.0
C8625 C 0.79809 0.94028 0.65024 0.0
C8626 C 0.79526 0.93086 0.65104 0.0
C8627 C 0.78605 0.9283 0.64866 0.0
C8628 C 0.80165 0.92355 0.6545 0.0
C8629 C 0.80777 0.94351 0.65308 0.0
C8630 C 0.80985 0.92128 0.64965 0.0
C8631 C 0.81552 0.91399 0.65268 0.0
C8632 C 0.81305 0.90877 0.66056 0.0
C8633 C 0.80489 0.91116 0.66546 0.0
C8634 C 0.79925 0.91845 0.66245 0.0
H8635 H 0.80807 0.95116 0.65426 0.0
H8636 H 0.81012 0.93998 0.65954 0.0
H8637 H 0.81277 0.94176 0.64745 0.0
H8638 H 0.81173 0.925 0.64339 0.0
H8639 H 0.82169 0.91224 0.64868 0.0
loop_
_geom_bond_atom_site_label_1
_geom_bond_atom_site_label_2
_geom_bond_distance
_geom_bond_site_symmetry_2
_ccdc_geom_bond_type
C0 C1 1.264 . S
C0 C5 1.479 . S
C0 C10 1.465 1_655 S
C1 C0 1.264 . S
C1 C3 1.339 . S
C1 H28 0.931 . S
C2 C3 1.395 . S
C2 C4 1.320 . S
C3 C1 1.339 . S
C3 C2 1.395 . S
C3 H29 0.929 . S
C4 C2 1.320 . S
C4 C5 1.405 . S
C4 H30 0.930 . S
C5 C0 1.479 . S
C5 C4 1.405 . S
C5 H31 0.931 . S
U6 O7 2.454 . S
U6 O8 2.458 . S
U6 C9 2.984 . S
U6 C10 2.847 . S
U6 C23 2.882 . S
U6 O24 2.441 . S
U6 O25 2.420 . S
U6 O26 2.455 . S
U6 O27 2.449 . S
O7 U6 2.454 . S
O7 C9 1.353 . S
O8 U6 2.458 . S
O8 C9 1.286 . S
C9 U6 2.984 . S
C9 O7 1.353 . S
C9 O8 1.286 . S
C9 C11 1.363 . S
C10 C0 1.465 1_455 S
C10 U6 2.847 . S
C10 O24 1.249 . S
C10 O25 1.202 . S
C11 C9 1.363 . S
C11 C13 1.408 . S
C11 C16 1.342 . S
C12 C13 1.310 . S
C12 C15 1.461 . S
C12 H32 0.932 . S
C13 C11 1.408 . S
C13 C12 1.310 . S
C13 H33 0.930 . S
C14 C15 1.474 . S
C14 C16 1.285 . S
C14 H34 0.929 . S
C15 C12 1.461 . S
C15 C14 1.474 . S
C16 C11 1.342 . S
C16 C14 1.285 . S
C16 H35 0.930 . S
C17 C20 1.424 . S
C17 C22 1.245 . S
C17 C23 1.428 . S
C18 C21 1.260 . S
C18 C22 1.477 . S
C18 H36 0.932 . S
C19 C20 1.384 . S
C19 C21 1.479 . S
C19 H37 0.929 . S
C20 C17 1.424 . S
C20 C19 1.384 . S
C20 H38 0.928 . S
C21 C18 1.260 . S
C21 C19 1.479 . S
C22 C17 1.245 . S
C22 C18 1.477 . S
C22 H39 0.932 . S
C23 U6 2.882 . S
C23 C17 1.428 . S
C23 O26 1.301 . S
C23 O27 1.282 . S
O24 U6 2.441 . S
O24 C10 1.249 . S
O25 U6 2.420 . S
O25 C10 1.202 . S
O26 U6 2.455 . S
O26 C23 1.301 . S
O27 U6 2.449 . S
O27 C23 1.282 . S
H28 C1 0.931 . S
H29 C3 0.929 . S
H30 C4 0.930 . S
H31 C5 0.931 . S
H32 C12 0.932 . S
H33 C13 0.930 . S
H34 C14 0.929 . S
H35 C16 0.930 . S
H36 C18 0.932 . S
H37 C19 0.929 . S
H38 C20 0.928 . S
H39 C22 0.932 . S
C40 C41 1.264 . S
C40 C45 1.479 . S
C40 C50 1.465 . S
C41 C40 1.264 . S
C41 C43 1.339 . S
C41 H68 0.931 . S
C42 C43 1.395 . S
C42 C44 1.320 . S
C43 C41 1.339 . S
C43 C42 1.395 . S
C43 H69 0.929 . S
C44 C42 1.320 . S
C44 C45 1.405 . S
C44 H70 0.930 . S
C45 C40 1.479 . S
C45 C44 1.405 . S
C45 H71 0.931 . S
U46 O47 2.454 . S
U46 O48 2.458 . S
U46 C49 2.984 . S
U46 C50 2.847 . S
U46 C63 2.882 . S
U46 O64 2.441 . S
U46 O65 2.420 . S
U46 O66 2.455 . S
U46 O67 2.449 . S
O47 U46 2.454 . S
O47 C49 1.353 . S
O48 U46 2.458 . S
O48 C49 1.286 . S
C49 U46 2.984 . S
C49 O47 1.353 . S
C49 O48 1.286 . S
C49 C51 1.363 . S
C50 C40 1.465 . S
C50 U46 2.847 . S
C50 O64 1.249 . S
C50 O65 1.202 . S
C51 C49 1.363 . S
C51 C53 1.408 . S
C51 C56 1.342 . S
C52 C53 1.310 . S
C52 C55 1.461 . S
C52 H72 0.932 . S
C53 C51 1.408 . S
C53 C52 1.310 . S
C53 H73 0.930 . S
C54 C55 1.474 . S
C54 C56 1.285 . S
C54 H74 0.929 . S
C55 C52 1.461 . S
C55 C54 1.474 . S
C56 C51 1.342 . S
C56 C54 1.285 . S
C56 H75 0.930 . S
C57 C60 1.424 . S
C57 C62 1.245 . S
C57 C63 1.428 . S
C58 C61 1.260 . S
C58 C62 1.477 . S
C58 H76 0.932 . S
C59 C60 1.384 . S
C59 C61 1.479 . S
C59 H77 0.929 . S
C60 C57 1.424 . S
C60 C59 1.384 . S
C60 H78 0.928 . S
C61 C58 1.260 . S
C61 C59 1.479 . S
C62 C57 1.245 . S
C62 C58 1.477 . S
C62 H79 0.932 . S
C63 U46 2.882 . S
C63 C57 1.428 . S
C63 O66 1.301 . S
C63 O67 1.282 . S
O64 U46 2.441 . S
O64 C50 1.249 . S
O65 U46 2.420 . S
O65 C50 1.202 . S
O66 U46 2.455 . S
O66 C63 1.301 . S
O67 U46 2.449 . S
O67 C63 1.282 . S
H68 C41 0.931 . S
H69 C43 0.929 . S
H70 C44 0.930 . S
H71 C45 0.931 . S
H72 C52 0.932 . S
H73 C53 0.930 . S
H74 C54 0.929 . S
H75 C56 0.930 . S
H76 C58 0.932 . S
H77 C59 0.929 . S
H78 C60 0.928 . S
H79 C62 0.932 . S
C80 C81 1.264 . S
C80 C85 1.479 . S
C80 C90 1.465 . S
C81 C80 1.264 . S
C81 C83 1.339 . S
C81 H108 0.931 . S
C82 C83 1.395 . S
C82 C84 1.320 . S
C83 C81 1.339 . S
C83 C82 1.395 . S
C83 H109 0.929 . S
C84 C82 1.320 . S
C84 C85 1.405 . S
C84 H110 0.930 . S
C85 C80 1.479 . S
C85 C84 1.405 . S
C85 H111 0.931 . S
U86 O87 2.454 . S
U86 O88 2.458 . S
U86 C89 2.984 . S
U86 C90 2.847 . S
U86 C103 2.882 . S
U86 O104 2.441 . S
U86 O105 2.420 . S
U86 O106 2.455 . S
U86 O107 2.449 . S
O87 U86 2.454 . S
O87 C89 1.353 . S
O88 U86 2.458 . S
O88 C89 1.286 . S
C89 U86 2.984 . S
C89 O87 1.353 . S
C89 O88 1.286 . S
C89 C91 1.363 . S
C90 C80 1.465 . S
C90 U86 2.847 . S
C90 O104 1.249 . S
C90 O105 1.202 . S
C91 C89 1.363 . S
C91 C93 1.408 . S
C91 C96 1.342 . S
C92 C93 1.310 . S
C92 C95 1.461 . S
C92 H112 0.932 . S
C93 C91 1.408 . S
C93 C92 1.310 . S
C93 H113 0.930 . S
C94 C95 1.474 . S
C94 C96 1.285 . S
C94 H114 0.929 . S
C95 C92 1.461 . S
C95 C94 1.474 . S
C96 C91 1.342 . S
C96 C94 1.285 . S
C96 H115 0.930 . S
C97 C100 1.424 . S
C97 C102 1.245 . S
C97 C103 1.428 . S
C98 C101 1.260 . S
C98 C102 1.477 . S
C98 H116 0.932 . S
C99 C100 1.384 . S
C99 C101 1.479 . S
C99 H117 0.929 . S
C100 C97 1.424 . S
C100 C99 1.384 . S
C100 H118 0.928 . S
C101 C98 1.260 . S
C101 C99 1.479 . S
C102 C97 1.245 . S
C102 C98 1.477 . S
C102 H119 0.932 . S
C103 U86 2.882 . S
C103 C97 1.428 . S
C103 O106 1.301 . S
C103 O107 1.282 . S
O104 U86 2.441 . S
O104 C90 1.249 . S
O105 U86 2.420 . S
O105 C90 1.202 . S
O106 U86 2.455 . S
O106 C103 1.301 . S
O107 U86 2.449 . S
O107 C103 1.282 . S
H108 C81 0.931 . S
H109 C83 0.929 . S
H110 C84 0.930 . S
H111 C85 0.931 . S
H112 C92 0.932 . S
H113 C93 0.930 . S
H114 C94 0.929 . S
H115 C96 0.930 . S
H116 C98 0.932 . S
H117 C99 0.929 . S
H118 C100 0.928 . S
H119 C102 0.932 . S
C120 C121 1.264 . S
C120 C125 1.479 . S
C120 C130 1.465 . S
C121 C120 1.264 . S
C121 C123 1.339 . S
C121 H148 0.931 . S
C122 C123 1.395 . S
C122 C124 1.320 . S
C123 C121 1.339 . S
C123 C122 1.395 . S
C123 H149 0.929 . S
C124 C122 1.320 . S
C124 C125 1.405 . S
C124 H150 0.930 . S
C125 C120 1.479 . S
C125 C124 1.405 . S
C125 H151 0.931 . S
U126 O127 2.454 . S
U126 O128 2.458 . S
U126 C129 2.984 . S
U126 C130 2.847 . S
U126 C143 2.882 . S
U126 O144 2.441 . S
U126 O145 2.420 . S
U126 O146 2.455 . S
U126 O147 2.449 . S
O127 U126 2.454 . S
O127 C129 1.353 . S
O128 U126 2.458 . S
O128 C129 1.286 . S
C129 U126 2.984 . S
C129 O127 1.353 . S
C129 O128 1.286 . S
C129 C131 1.363 . S
C130 C120 1.465 . S
C130 U126 2.847 . S
C130 O144 1.249 . S
C130 O145 1.202 . S
C131 C129 1.363 . S
C131 C133 1.408 . S
C131 C136 1.342 . S
C132 C133 1.310 1_556 S
C132 C135 1.461 . S
C132 H152 0.932 . S
C133 C131 1.408 . S
C133 C132 1.310 1_554 S
C133 H153 0.930 . S
C134 C135 1.474 1_554 S
C134 C136 1.285 . S
C134 H154 0.929 . S
C135 C132 1.461 . S
C135 C134 1.474 1_556 S
C136 C131 1.342 . S
C136 C134 1.285 . S
C136 H155 0.930 . S
C137 C140 1.424 . S
C137 C142 1.245 . S
C137 C143 1.428 . S
C138 C141 1.260 . S
C138 C142 1.477 . S
C138 H156 0.932 . S
C139 C140 1.384 . S
C139 C141 1.479 . S
C139 H157 0.929 . S
C140 C137 1.424 . S
C140 C139 1.384 . S
C140 H158 0.928 . S
C141 C138 1.260 . S
C141 C139 1.479 . S
C142 C137 1.245 . S
C142 C138 1.477 . S
C142 H159 0.932 . S
C143 U126 2.882 . S
C143 C137 1.428 . S
C143 O146 1.301 . S
C143 O147 1.282 . S
O144 U126 2.441 . S
O144 C130 1.249 . S
O145 U126 2.420 . S
O145 C130 1.202 . S
O146 U126 2.455 . S
O146 C143 1.301 . S
O147 U126 2.449 . S
O147 C143 1.282 . S
H148 C121 0.931 . S
H149 C123 0.929 . S
H150 C124 0.930 . S
H151 C125 0.931 . S
H152 C132 0.932 . S
H153 C133 0.930 . S
H154 C134 0.929 . S
H155 C136 0.930 . S
H156 C138 0.932 . S
H157 C139 0.929 . S
H158 C140 0.928 . S
H159 C142 0.932 . S
C160 C161 1.264 . S
C160 C165 1.479 . S
C160 C170 1.465 1_655 S
C161 C160 1.264 . S
C161 C163 1.339 . S
C161 H188 0.878 1_655 S
C162 C163 1.395 . S
C162 C164 1.320 . S
C163 C161 1.339 . S
C163 C162 1.395 . S
C163 H189 0.929 . S
C164 C162 1.320 . S
C164 C165 1.405 . S
C164 H190 0.930 . S
C165 C160 1.479 . S
C165 C164 1.405 . S
C165 H191 0.931 . S
U166 O167 2.454 . S
U166 O168 2.458 . S
U166 C169 2.984 . S
U166 C170 2.847 . S
U166 C183 2.882 . S
U166 O184 2.441 . S
U166 O185 2.420 . S
U166 O186 2.455 . S
U166 O187 2.449 . S
O167 U166 2.454 . S
O167 C169 1.353 . S
O168 U166 2.458 . S
O168 C169 1.286 . S
C169 U166 2.984 . S
C169 O167 1.353 . S
C169 O168 1.286 . S
C169 C171 1.363 . S
C170 C160 1.465 1_455 S
C170 U166 2.847 . S
C170 O184 1.249 . S
C170 O185 1.202 . S
C171 C169 1.363 . S
C171 C173 1.408 . S
C171 C176 1.342 . S
C172 C173 1.310 . S
C172 C175 1.461 . S
C172 H192 0.932 . S
C173 C171 1.408 . S
C173 C172 1.310 . S
C173 H193 0.930 . S
C174 C175 1.474 . S
C174 C176 1.285 . S
C174 H194 0.929 . S
C175 C172 1.461 . S
C175 C174 1.474 . S
C176 C171 1.342 . S
C176 C174 1.285 . S
C176 H195 0.930 . S
C177 C180 1.424 . S
C177 C182 1.245 . S
C177 C183 1.428 . S
C178 C181 1.260 . S
C178 C182 1.477 . S
C178 H196 0.932 . S
C179 C180 1.384 . S
C179 C181 1.479 . S
C179 H197 0.929 . S
C180 C177 1.424 . S
C180 C179 1.384 . S
C180 H198 0.928 . S
C181 C178 1.260 . S
C181 C179 1.479 . S
C182 C177 1.245 . S
C182 C178 1.477 . S
C182 H199 0.932 . S
C183 U166 2.882 . S
C183 C177 1.428 . S
C183 O186 1.301 . S
C183 O187 1.282 . S
O184 U166 2.441 . S
O184 C170 1.249 . S
O185 U166 2.420 . S
O185 C170 1.202 . S
O186 U166 2.455 . S
O186 C183 1.301 . S
O187 U166 2.449 . S
O187 C183 1.282 . S
H188 C161 0.878 1_455 S
H189 C163 0.929 . S
H190 C164 0.930 . S
H191 C165 0.931 . S
H192 C172 0.932 . S
H193 C173 0.930 . S
H194 C174 0.929 . S
H195 C176 0.930 . S
H196 C178 0.932 . S
H197 C179 0.929 . S
H198 C180 0.928 . S
H199 C182 0.932 . S
C200 C201 1.264 . S
C200 C205 1.479 . S
C200 C210 1.465 . S
C201 C200 1.264 . S
C201 C203 1.339 . S
C201 H228 0.931 . S
C202 C203 1.395 . S
C202 C204 1.320 . S
C203 C201 1.339 . S
C203 C202 1.395 . S
C203 H229 0.929 . S
C204 C202 1.320 . S
C204 C205 1.405 . S
C204 H230 0.930 . S
C205 C200 1.479 . S
C205 C204 1.405 . S
C205 H231 0.931 . S
U206 O207 2.454 . S
U206 O208 2.458 . S
U206 C209 2.984 . S
U206 C210 2.847 . S
U206 C223 2.882 . S
U206 O224 2.441 . S
U206 O225 2.420 . S
U206 O226 2.455 . S
U206 O227 2.449 . S
O207 U206 2.454 . S
O207 C209 1.353 . S
O208 U206 2.458 . S
O208 C209 1.286 . S
C209 U206 2.984 . S
C209 O207 1.353 . S
C209 O208 1.286 . S
C209 C211 1.363 . S
C210 C200 1.465 . S
C210 U206 2.847 . S
C210 O224 1.249 . S
C210 O225 1.202 . S
C211 C209 1.363 . S
C211 C213 1.408 . S
C211 C216 1.342 . S
C212 C213 1.310 . S
C212 C215 1.461 . S
C212 H232 0.932 . S
C213 C211 1.408 . S
C213 C212 1.310 . S
C213 H233 0.930 . S
C214 C215 1.474 . S
C214 C216 1.285 . S
C214 H234 0.929 . S
C215 C212 1.461 . S
C215 C214 1.474 . S
C216 C211 1.342 . S
C216 C214 1.285 . S
C216 H235 0.930 . S
C217 C220 1.424 . S
C217 C222 1.245 . S
C217 C223 1.428 . S
C218 C221 1.260 . S
C218 C222 1.477 . S
C218 H236 0.932 . S
C219 C220 1.384 . S
C219 C221 1.479 . S
C219 H237 0.929 . S
C220 C217 1.424 . S
C220 C219 1.384 . S
C220 H238 0.928 . S
C221 C218 1.260 . S
C221 C219 1.479 . S
C222 C217 1.245 . S
C222 C218 1.477 . S
C222 H239 0.932 . S
C223 U206 2.882 . S
C223 C217 1.428 . S
C223 O226 1.301 . S
C223 O227 1.282 . S
O224 U206 2.441 . S
O224 C210 1.249 . S
O225 U206 2.420 . S
O225 C210 1.202 . S
O226 U206 2.455 . S
O226 C223 1.301 . S
O227 U206 2.449 . S
O227 C223 1.282 . S
H228 C201 0.931 . S
H229 C203 0.929 . S
H230 C204 0.930 . S
H231 C205 0.931 . S
H232 C212 0.932 . S
H233 C213 0.930 . S
H234 C214 0.929 . S
H235 C216 0.930 . S
H236 C218 0.932 . S
H237 C219 0.929 . S
H238 C220 0.928 . S
H239 C222 0.932 . S
C240 C241 1.264 . S
C240 C245 1.479 . S
C240 C250 1.465 . S
C241 C240 1.264 . S
C241 C243 1.339 . S
C241 H268 0.931 . S
C242 C243 1.395 . S
C242 C244 1.320 . S
C243 C241 1.339 . S
C243 C242 1.395 . S
C243 H269 0.929 . S
C244 C242 1.320 . S
C244 C245 1.405 . S
C244 H270 0.930 . S
C245 C240 1.479 . S
C245 C244 1.405 . S
C245 H271 0.931 . S
U246 O247 2.454 . S
U246 O248 2.458 . S
U246 C249 2.984 . S
U246 C250 2.847 . S
U246 C263 2.882 . S
U246 O264 2.441 . S
U246 O265 2.420 . S
U246 O266 2.455 . S
U246 O267 2.449 . S
O247 U246 2.454 . S
O247 C249 1.353 . S
O248 U246 2.458 . S
O248 C249 1.286 . S
C249 U246 2.984 . S
C249 O247 1.353 . S
C249 O248 1.286 . S
C249 C251 1.363 . S
C250 C240 1.465 . S
C250 U246 2.847 . S
C250 O264 1.249 . S
C250 O265 1.202 . S
C251 C249 1.363 . S
C251 C253 1.408 . S
C251 C256 1.342 . S
C252 C253 1.310 . S
C252 C255 1.461 . S
C252 H272 0.932 . S
C253 C251 1.408 . S
C253 C252 1.310 . S
C253 H273 0.930 . S
C254 C255 1.474 . S
C254 C256 1.285 . S
C254 H274 0.929 . S
C255 C252 1.461 . S
C255 C254 1.474 . S
C256 C251 1.342 . S
C256 C254 1.285 . S
C256 H275 0.930 . S
C257 C260 1.424 . S
C257 C262 1.245 . S
C257 C263 1.428 . S
C258 C261 1.260 . S
C258 C262 1.477 . S
C258 H276 0.932 . S
C259 C260 1.384 . S
C259 C261 1.479 . S
C259 H277 0.929 . S
C260 C257 1.424 . S
C260 C259 1.384 . S
C260 H278 0.928 . S
C261 C258 1.260 . S
C261 C259 1.479 . S
C262 C257 1.245 . S
C262 C258 1.477 . S
C262 H279 0.932 . S
C263 U246 2.882 . S
C263 C257 1.428 . S
C263 O266 1.301 . S
C263 O267 1.282 . S
O264 U246 2.441 . S
O264 C250 1.249 . S
O265 U246 2.420 . S
O265 C250 1.202 . S
O266 U246 2.455 . S
O266 C263 1.301 . S
O267 U246 2.449 . S
O267 C263 1.282 . S
H268 C241 0.931 . S
H269 C243 0.929 . S
H270 C244 0.930 . S
H271 C245 0.931 . S
H272 C252 0.932 . S
H273 C253 0.930 . S
H274 C254 0.929 . S
H275 C256 0.930 . S
H276 C258 0.932 . S
H277 C259 0.929 . S
H278 C260 0.928 . S
H279 C262 0.932 . S
C280 C281 1.264 . S
C280 C285 1.479 1_556 S
C280 C290 1.465 . S
C281 C280 1.264 . S
C281 C283 1.339 1_556 S
C281 H308 0.931 . S
C282 C283 1.395 . S
C282 C284 1.320 . S
C283 C281 1.339 1_554 S
C283 C282 1.395 . S
C283 H309 0.929 . S
C284 C282 1.320 . S
C284 C285 1.405 . S
C284 H310 0.930 . S
C285 C280 1.479 1_554 S
C285 C284 1.405 . S
C285 H311 0.931 . S
U286 O287 2.454 . S
U286 O288 2.458 . S
U286 C289 2.984 . S
U286 C290 2.847 . S
U286 C303 2.882 . S
U286 O304 2.441 . S
U286 O305 2.420 . S
U286 O306 2.455 . S
U286 O307 2.449 . S
O287 U286 2.454 . S
O287 C289 1.353 . S
O288 U286 2.458 . S
O288 C289 1.286 . S
C289 U286 2.984 . S
C289 O287 1.353 . S
C289 O288 1.286 . S
C289 C291 1.363 . S
C290 C280 1.465 . S
C290 U286 2.847 . S
C290 O304 1.249 . S
C290 O305 1.202 . S
C291 C289 1.363 . S
C291 C293 1.408 . S
C291 C296 1.342 . S
C292 C293 1.310 . S
C292 C295 1.461 . S
C292 H312 0.932 . S
C293 C291 1.408 . S
C293 C292 1.310 . S
C293 H313 0.930 . S
C294 C295 1.474 . S
C294 C296 1.285 . S
C294 H314 0.929 . S
C295 C292 1.461 . S
C295 C294 1.474 . S
C296 C291 1.342 . S
C296 C294 1.285 . S
C296 H315 0.930 . S
C297 C300 1.424 . S
C297 C302 1.245 . S
C297 C303 1.428 . S
C298 C301 1.260 . S
C298 C302 1.477 . S
C298 H316 0.932 . S
C299 C300 1.384 . S
C299 C301 1.479 . S
C299 H317 0.929 . S
C300 C297 1.424 . S
C300 C299 1.384 . S
C300 H318 0.928 . S
C301 C298 1.260 . S
C301 C299 1.479 . S
C302 C297 1.245 . S
C302 C298 1.477 . S
C302 H319 0.932 . S
C303 U286 2.882 . S
C303 C297 1.428 . S
C303 O306 1.301 . S
C303 O307 1.282 . S
O304 U286 2.441 . S
O304 C290 1.249 . S
O305 U286 2.420 . S
O305 C290 1.202 . S
O306 U286 2.455 . S
O306 C303 1.301 . S
O307 U286 2.449 . S
O307 C303 1.282 . S
H308 C281 0.931 . S
H309 C283 0.929 . S
H310 C284 0.930 . S
H311 C285 0.931 . S
H312 C292 0.932 . S
H313 C293 0.930 . S
H314 C294 0.929 . S
H315 C296 0.930 . S
H316 C298 0.932 . S
H317 C299 0.929 . S
H318 C300 0.928 . S
H319 C302 0.932 . S
C320 C321 1.264 . S
C320 C325 1.479 . S
C320 C330 1.465 . S
C321 C320 1.264 . S
C321 C323 1.339 . S
C321 H348 0.931 . S
C322 C323 1.395 . S
C322 C324 1.320 . S
C323 C321 1.339 . S
C323 C322 1.395 . S
C323 H349 0.929 . S
C324 C322 1.320 . S
C324 C325 1.405 . S
C324 H350 0.930 . S
C325 C320 1.479 . S
C325 C324 1.405 . S
C325 H351 0.931 . S
U326 O327 2.454 . S
U326 O328 2.458 . S
U326 C329 2.984 . S
U326 C330 2.847 . S
U326 C343 2.882 . S
U326 O344 2.441 . S
U326 O345 2.420 . S
U326 O346 2.455 . S
U326 O347 2.449 . S
O327 U326 2.454 . S
O327 C329 1.353 . S
O328 U326 2.458 . S
O328 C329 1.286 . S
C329 U326 2.984 . S
C329 O327 1.353 . S
C329 O328 1.286 . S
C329 C331 1.363 . S
C330 C320 1.465 . S
C330 U326 2.847 . S
C330 O344 1.249 . S
C330 O345 1.202 . S
C331 C329 1.363 . S
C331 C333 1.408 1_545 S
C331 C336 1.342 . S
C332 C333 1.310 . S
C332 C335 1.461 . S
C332 H352 0.932 . S
C333 C331 1.408 1_565 S
C333 C332 1.310 . S
C333 H353 0.930 . S
C334 C335 1.474 . S
C334 C336 1.285 1_565 S
C334 H354 0.929 . S
C335 C332 1.461 . S
C335 C334 1.474 . S
C336 C331 1.342 . S
C336 C334 1.285 1_545 S
C336 H355 0.930 . S
C337 C340 1.424 . S
C337 C342 1.245 . S
C337 C343 1.428 . S
C338 C341 1.260 . S
C338 C342 1.477 . S
C338 H356 0.932 . S
C339 C340 1.384 . S
C339 C341 1.479 . S
C339 H357 0.929 . S
C340 C337 1.424 . S
C340 C339 1.384 . S
C340 H358 0.928 . S
C341 C338 1.260 . S
C341 C339 1.479 . S
C342 C337 1.245 . S
C342 C338 1.477 . S
C342 H359 0.932 . S
C343 U326 2.882 . S
C343 C337 1.428 . S
C343 O346 1.301 . S
C343 O347 1.282 . S
O344 U326 2.441 . S
O344 C330 1.249 . S
O345 U326 2.420 . S
O345 C330 1.202 . S
O346 U326 2.455 . S
O346 C343 1.301 . S
O347 U326 2.449 . S
O347 C343 1.282 . S
H348 C321 0.931 . S
H349 C323 0.929 . S
H350 C324 0.930 . S
H351 C325 0.931 . S
H352 C332 0.932 . S
H353 C333 0.930 . S
H354 C334 0.929 . S
H355 C336 0.930 . S
H356 C338 0.932 . S
H357 C339 0.929 . S
H358 C340 0.928 . S
H359 C342 0.932 . S
C360 C361 1.264 . S
C360 C365 1.479 1_545 S
C360 C370 1.465 . S
C361 C360 1.264 . S
C361 C363 1.339 1_545 S
C361 H388 0.931 . S
C362 C363 1.395 . S
C362 C364 1.320 . S
C363 C361 1.339 1_565 S
C363 C362 1.395 . S
C363 H389 0.929 . S
C364 C362 1.320 . S
C364 C365 1.405 . S
C364 H390 0.930 . S
C365 C360 1.479 1_565 S
C365 C364 1.405 . S
C365 H391 0.931 . S
U366 O367 2.454 . S
U366 O368 2.458 . S
U366 C369 2.984 . S
U366 C370 2.847 . S
U366 C383 2.882 . S
U366 O384 2.441 . S
U366 O385 2.420 . S
U366 O386 2.455 . S
U366 O387 2.449 . S
O367 U366 2.454 . S
O367 C369 1.353 . S
O368 U366 2.458 . S
O368 C369 1.286 . S
C369 U366 2.984 . S
C369 O367 1.353 . S
C369 O368 1.286 . S
C369 C371 1.363 . S
C370 C360 1.465 . S
C370 U366 2.847 . S
C370 O384 1.249 . S
C370 O385 1.202 . S
C371 C369 1.363 . S
C371 C373 1.408 . S
C371 C376 1.342 . S
C372 C373 1.310 . S
C372 C375 1.461 . S
C372 H392 0.932 . S
C373 C371 1.408 . S
C373 C372 1.310 . S
C373 H393 0.930 . S
C374 C375 1.474 . S
C374 C376 1.285 . S
C374 H394 0.929 . S
C375 C372 1.461 . S
C375 C374 1.474 . S
C376 C371 1.342 . S
C376 C374 1.285 . S
C376 H395 0.930 . S
C377 C380 1.424 . S
C377 C382 1.245 . S
C377 C383 1.428 . S
C378 C381 1.260 . S
C378 C382 1.477 . S
C378 H396 0.932 . S
C379 C380 1.384 . S
C379 C381 1.479 . S
C379 H397 0.929 . S
C380 C377 1.424 . S
C380 C379 1.384 . S
C380 H398 0.928 . S
C381 C378 1.260 . S
C381 C379 1.479 . S
C382 C377 1.245 . S
C382 C378 1.477 . S
C382 H399 0.932 . S
C383 U366 2.882 . S
C383 C377 1.428 . S
C383 O386 1.301 . S
C383 O387 1.282 . S
O384 U366 2.441 . S
O384 C370 1.249 . S
O385 U366 2.420 . S
O385 C370 1.202 . S
O386 U366 2.455 . S
O386 C383 1.301 . S
O387 U366 2.449 . S
O387 C383 1.282 . S
H388 C361 0.931 . S
H389 C363 0.929 . S
H390 C364 0.930 . S
H391 C365 0.931 . S
H392 C372 0.932 . S
H393 C373 0.930 . S
H394 C374 0.929 . S
H395 C376 0.930 . S
H396 C378 0.932 . S
H397 C379 0.929 . S
H398 C380 0.928 . S
H399 C382 0.932 . S
C400 C401 1.264 . S
C400 C405 1.479 1_565 S
C400 C410 1.465 . S
C401 C400 1.264 . S
C401 C403 1.339 1_565 S
C401 H428 0.931 . S
C402 C403 1.395 . S
C402 C404 1.320 . S
C403 C401 1.339 1_545 S
C403 C402 1.395 . S
C403 H429 0.929 . S
C404 C402 1.320 . S
C404 C405 1.405 . S
C404 H430 0.930 . S
C405 C400 1.479 1_545 S
C405 C404 1.405 . S
C405 H431 0.931 . S
U406 O407 2.454 . S
U406 O408 2.458 . S
U406 C409 2.984 . S
U406 C410 2.847 . S
U406 C423 2.882 . S
U406 O424 2.441 . S
U406 O425 2.420 . S
U406 O426 2.455 . S
U406 O427 2.449 . S
O407 U406 2.454 . S
O407 C409 1.353 . S
O408 U406 2.458 . S
O408 C409 1.286 . S
C409 U406 2.984 . S
C409 O407 1.353 . S
C409 O408 1.286 . S
C409 C411 1.363 . S
C410 C400 1.465 . S
C410 U406 2.847 . S
C410 O424 1.249 . S
C410 O425 1.202 . S
C411 C409 1.363 . S
C411 C413 1.408 . S
C411 C416 1.342 . S
C412 C413 1.310 . S
C412 C415 1.461 . S
C412 H432 0.932 . S
C413 C411 1.408 . S
C413 C412 1.310 . S
C413 H433 0.930 . S
C414 C415 1.474 . S
C414 C416 1.285 . S
C414 H434 0.929 . S
C415 C412 1.461 . S
C415 C414 1.474 . S
C416 C411 1.342 . S
C416 C414 1.285 . S
C416 H435 0.930 . S
C417 C420 1.424 . S
C417 C422 1.245 . S
C417 C423 1.428 . S
C418 C421 1.260 . S
C418 C422 1.477 . S
C418 H436 0.932 . S
C419 C420 1.384 . S
C419 C421 1.479 . S
C419 H437 0.929 . S
C420 C417 1.424 . S
C420 C419 1.384 . S
C420 H438 0.928 . S
C421 C418 1.260 . S
C421 C419 1.479 . S
C422 C417 1.245 . S
C422 C418 1.477 . S
C422 H439 0.932 . S
C423 U406 2.882 . S
C423 C417 1.428 . S
C423 O426 1.301 . S
C423 O427 1.282 . S
O424 U406 2.441 . S
O424 C410 1.249 . S
O425 U406 2.420 . S
O425 C410 1.202 . S
O426 U406 2.455 . S
O426 C423 1.301 . S
O427 U406 2.449 . S
O427 C423 1.282 . S
H428 C401 0.931 . S
H429 C403 0.929 . S
H430 C404 0.930 . S
H431 C405 0.931 . S
H432 C412 0.932 . S
H433 C413 0.930 . S
H434 C414 0.929 . S
H435 C416 0.930 . S
H436 C418 0.932 . S
H437 C419 0.929 . S
H438 C420 0.928 . S
H439 C422 0.932 . S
C440 C441 1.264 . S
C440 C445 1.479 . S
C440 C450 1.465 . S
C441 C440 1.264 . S
C441 C443 1.339 . S
C441 H468 0.931 . S
C442 C443 1.395 . S
C442 C444 1.320 . S
C443 C441 1.339 . S
C443 C442 1.395 . S
C443 H469 0.929 . S
C444 C442 1.320 . S
C444 C445 1.405 . S
C444 H470 0.930 . S
C445 C440 1.479 . S
C445 C444 1.405 . S
C445 H471 0.931 . S
U446 O447 2.454 . S
U446 O448 2.458 . S
U446 C449 2.984 . S
U446 C450 2.847 . S
U446 C463 2.882 . S
U446 O464 2.441 . S
U446 O465 2.420 . S
U446 O466 2.455 . S
U446 O467 2.449 . S
O447 U446 2.454 . S
O447 C449 1.353 . S
O448 U446 2.458 . S
O448 C449 1.286 . S
C449 U446 2.984 . S
C449 O447 1.353 . S
C449 O448 1.286 . S
C449 C451 1.363 . S
C450 C440 1.465 . S
C450 U446 2.847 . S
C450 O464 1.249 . S
C450 O465 1.202 . S
C451 C449 1.363 . S
C451 C453 1.408 1_565 S
C451 C456 1.342 . S
C452 C453 1.310 . S
C452 C455 1.461 . S
C452 H472 0.932 . S
C453 C451 1.408 1_545 S
C453 C452 1.310 . S
C453 H473 0.930 . S
C454 C455 1.474 . S
C454 C456 1.285 1_545 S
C454 H474 0.929 . S
C455 C452 1.461 . S
C455 C454 1.474 . S
C456 C451 1.342 . S
C456 C454 1.285 1_565 S
C456 H475 0.930 . S
C457 C460 1.424 . S
C457 C462 1.245 . S
C457 C463 1.428 . S
C458 C461 1.260 . S
C458 C462 1.477 . S
C458 H476 0.932 . S
C459 C460 1.384 . S
C459 C461 1.479 . S
C459 H477 0.929 . S
C460 C457 1.424 . S
C460 C459 1.384 . S
C460 H478 0.928 . S
C461 C458 1.260 . S
C461 C459 1.479 . S
C462 C457 1.245 . S
C462 C458 1.477 . S
C462 H479 0.932 . S
C463 U446 2.882 . S
C463 C457 1.428 . S
C463 O466 1.301 . S
C463 O467 1.282 . S
O464 U446 2.441 . S
O464 C450 1.249 . S
O465 U446 2.420 . S
O465 C450 1.202 . S
O466 U446 2.455 . S
O466 C463 1.301 . S
O467 U446 2.449 . S
O467 C463 1.282 . S
H468 C441 0.931 . S
H469 C443 0.929 . S
H470 C444 0.930 . S
H471 C445 0.931 . S
H472 C452 0.932 . S
H473 C453 0.930 . S
H474 C454 0.929 . S
H475 C456 0.930 . S
H476 C458 0.932 . S
H477 C459 0.929 . S
H478 C460 0.928 . S
H479 C462 0.932 . S
C480 C481 1.264 . S
C480 C485 1.479 . S
C480 C490 1.465 . S
C481 C480 1.264 . S
C481 C483 1.339 . S
C481 H508 0.931 . S
C482 C483 1.395 . S
C482 C484 1.320 . S
C483 C481 1.339 . S
C483 C482 1.395 . S
C483 H509 0.929 . S
C484 C482 1.320 . S
C484 C485 1.405 . S
C484 H510 0.930 . S
C485 C480 1.479 . S
C485 C484 1.405 . S
C485 H511 0.931 . S
U486 O487 2.454 . S
U486 O488 2.458 . S
U486 C489 2.984 . S
U486 C490 2.847 . S
U486 C503 2.882 . S
U486 O504 2.441 . S
U486 O505 2.420 . S
U486 O506 2.455 . S
U486 O507 2.449 . S
O487 U486 2.454 . S
O487 C489 1.353 . S
O488 U486 2.458 . S
O488 C489 1.286 . S
C489 U486 2.984 . S
C489 O487 1.353 . S
C489 O488 1.286 . S
C489 C491 1.363 . S
C490 C480 1.465 . S
C490 U486 2.847 . S
C490 O504 1.249 . S
C490 O505 1.202 . S
C491 C489 1.363 . S
C491 C493 1.408 1_554 S
C491 C496 1.342 . S
C492 C493 1.310 . S
C492 C495 1.461 . S
C492 H512 0.932 . S
C493 C491 1.408 1_556 S
C493 C492 1.310 . S
C493 H513 0.930 . S
C494 C495 1.474 . S
C494 C496 1.285 1_556 S
C494 H514 0.929 . S
C495 C492 1.461 . S
C495 C494 1.474 . S
C496 C491 1.342 . S
C496 C494 1.285 1_554 S
C496 H515 0.930 . S
C497 C500 1.424 . S
C497 C502 1.245 . S
C497 C503 1.428 . S
C498 C501 1.260 . S
C498 C502 1.477 . S
C498 H516 0.932 . S
C499 C500 1.384 . S
C499 C501 1.479 . S
C499 H517 0.929 . S
C500 C497 1.424 . S
C500 C499 1.384 . S
C500 H518 0.928 . S
C501 C498 1.260 . S
C501 C499 1.479 . S
C502 C497 1.245 . S
C502 C498 1.477 . S
C502 H519 0.932 . S
C503 U486 2.882 . S
C503 C497 1.428 . S
C503 O506 1.301 . S
C503 O507 1.282 . S
O504 U486 2.441 . S
O504 C490 1.249 . S
O505 U486 2.420 . S
O505 C490 1.202 . S
O506 U486 2.455 . S
O506 C503 1.301 . S
O507 U486 2.449 . S
O507 C503 1.282 . S
H508 C481 0.931 . S
H509 C483 0.929 . S
H510 C484 0.930 . S
H511 C485 0.931 . S
H512 C492 0.932 . S
H513 C493 0.930 . S
H514 C494 0.929 . S
H515 C496 0.930 . S
H516 C498 0.932 . S
H517 C499 0.929 . S
H518 C500 0.928 . S
H519 C502 0.932 . S
C520 C521 1.264 . S
C520 C525 1.479 . S
C520 C530 1.465 1_455 S
C521 C520 1.264 . S
C521 C523 1.339 . S
C521 H548 0.931 . S
C522 C523 1.395 . S
C522 C524 1.320 . S
C523 C521 1.339 . S
C523 C522 1.395 . S
C523 H549 0.929 . S
C524 C522 1.320 . S
C524 C525 1.405 . S
C524 H550 0.930 . S
C525 C520 1.479 . S
C525 C524 1.405 . S
C525 H551 0.931 . S
U526 O527 2.454 . S
U526 O528 2.458 . S
U526 C529 2.984 . S
U526 C530 2.847 . S
U526 C543 2.882 . S
U526 O544 2.441 . S
U526 O545 2.420 . S
U526 O546 2.455 . S
U526 O547 2.449 . S
O527 U526 2.454 . S
O527 C529 1.353 . S
O528 U526 2.458 . S
O528 C529 1.286 . S
C529 U526 2.984 . S
C529 O527 1.353 . S
C529 O528 1.286 . S
C529 C531 1.363 . S
C530 C520 1.465 1_655 S
C530 U526 2.847 . S
C530 O544 1.249 . S
C530 O545 1.202 . S
C531 C529 1.363 . S
C531 C533 1.408 . S
C531 C536 1.342 . S
C532 C533 1.310 . S
C532 C535 1.461 . S
C532 H552 0.932 . S
C533 C531 1.408 . S
C533 C532 1.310 . S
C533 H553 0.930 . S
C534 C535 1.474 . S
C534 C536 1.285 . S
C534 H554 0.929 . S
C535 C532 1.461 . S
C535 C534 1.474 . S
C536 C531 1.342 . S
C536 C534 1.285 . S
C536 H555 0.930 . S
C537 C540 1.424 . S
C537 C542 1.245 . S
C537 C543 1.428 . S
C538 C541 1.260 . S
C538 C542 1.477 . S
C538 H556 0.932 . S
C539 C540 1.384 . S
C539 C541 1.479 . S
C539 H557 0.929 . S
C540 C537 1.424 . S
C540 C539 1.384 . S
C540 H558 0.928 . S
C541 C538 1.260 . S
C541 C539 1.479 . S
C542 C537 1.245 . S
C542 C538 1.477 . S
C542 H559 0.932 . S
C543 U526 2.882 . S
C543 C537 1.428 . S
C543 O546 1.301 . S
C543 O547 1.282 . S
O544 U526 2.441 . S
O544 C530 1.249 . S
O545 U526 2.420 . S
O545 C530 1.202 . S
O546 U526 2.455 . S
O546 C543 1.301 . S
O547 U526 2.449 . S
O547 C543 1.282 . S
H548 C521 0.931 . S
H549 C523 0.929 . S
H550 C524 0.930 . S
H551 C525 0.931 . S
H552 C532 0.932 . S
H553 C533 0.930 . S
H554 C534 0.929 . S
H555 C536 0.930 . S
H556 C538 0.932 . S
H557 C539 0.929 . S
H558 C540 0.928 . S
H559 C542 0.932 . S
C560 C561 1.264 . S
C560 C565 1.479 . S
C560 C570 1.465 . S
C561 C560 1.264 . S
C561 C563 1.339 . S
C561 H588 0.931 . S
C562 C563 1.395 . S
C562 C564 1.320 . S
C563 C561 1.339 . S
C563 C562 1.395 . S
C563 H589 0.929 . S
C564 C562 1.320 . S
C564 C565 1.405 . S
C564 H590 0.930 . S
C565 C560 1.479 . S
C565 C564 1.405 . S
C565 H591 0.931 . S
U566 O567 2.454 . S
U566 O568 2.458 . S
U566 C569 2.984 . S
U566 C570 2.847 . S
U566 C583 2.882 . S
U566 O584 2.441 . S
U566 O585 2.420 . S
U566 O586 2.455 . S
U566 O587 2.449 . S
O567 U566 2.454 . S
O567 C569 1.353 . S
O568 U566 2.458 . S
O568 C569 1.286 . S
C569 U566 2.984 . S
C569 O567 1.353 . S
C569 O568 1.286 . S
C569 C571 1.363 . S
C570 C560 1.465 . S
C570 U566 2.847 . S
C570 O584 1.249 . S
C570 O585 1.202 . S
C571 C569 1.363 . S
C571 C573 1.408 . S
C571 C576 1.342 . S
C572 C573 1.310 . S
C572 C575 1.461 . S
C572 H592 0.932 . S
C573 C571 1.408 . S
C573 C572 1.310 . S
C573 H593 0.930 . S
C574 C575 1.474 . S
C574 C576 1.285 . S
C574 H594 0.929 . S
C575 C572 1.461 . S
C575 C574 1.474 . S
C576 C571 1.342 . S
C576 C574 1.285 . S
C576 H595 0.930 . S
C577 C580 1.424 . S
C577 C582 1.245 . S
C577 C583 1.428 . S
C578 C581 1.260 . S
C578 C582 1.477 . S
C578 H596 0.932 . S
C579 C580 1.384 . S
C579 C581 1.479 . S
C579 H597 0.929 . S
C580 C577 1.424 . S
C580 C579 1.384 . S
C580 H598 0.928 . S
C581 C578 1.260 . S
C581 C579 1.479 . S
C582 C577 1.245 . S
C582 C578 1.477 . S
C582 H599 0.932 . S
C583 U566 2.882 . S
C583 C577 1.428 . S
C583 O586 1.301 . S
C583 O587 1.282 . S
O584 U566 2.441 . S
O584 C570 1.249 . S
O585 U566 2.420 . S
O585 C570 1.202 . S
O586 U566 2.455 . S
O586 C583 1.301 . S
O587 U566 2.449 . S
O587 C583 1.282 . S
H588 C561 0.931 . S
H589 C563 0.929 . S
H590 C564 0.930 . S
H591 C565 0.931 . S
H592 C572 0.932 . S
H593 C573 0.930 . S
H594 C574 0.929 . S
H595 C576 0.930 . S
H596 C578 0.932 . S
H597 C579 0.929 . S
H598 C580 0.928 . S
H599 C582 0.932 . S
C600 C601 1.264 . S
C600 C605 1.479 . S
C600 C610 1.465 . S
C601 C600 1.264 . S
C601 C603 1.339 . S
C601 H628 0.931 . S
C602 C603 1.395 . S
C602 C604 1.320 . S
C603 C601 1.339 . S
C603 C602 1.395 . S
C603 H629 0.929 . S
C604 C602 1.320 . S
C604 C605 1.405 . S
C604 H630 0.930 . S
C605 C600 1.479 . S
C605 C604 1.405 . S
C605 H631 0.931 . S
U606 O607 2.454 1_655 S
U606 O608 2.458 1_655 S
U606 C609 2.984 1_655 S
U606 C610 2.847 . S
U606 C623 2.882 . S
U606 O624 2.441 . S
U606 O625 2.420 . S
U606 O626 2.455 . S
U606 O627 2.449 . S
O607 U606 2.454 1_455 S
O607 C609 1.353 . S
O608 U606 2.458 1_455 S
O608 C609 1.286 . S
C609 U606 2.984 1_455 S
C609 O607 1.353 . S
C609 O608 1.286 . S
C609 C611 1.363 . S
C610 C600 1.465 . S
C610 U606 2.847 . S
C610 O624 1.249 . S
C610 O625 1.202 . S
C611 C609 1.363 . S
C611 C613 1.408 . S
C611 C616 1.342 . S
C612 C613 1.310 . S
C612 C615 1.461 . S
C612 H632 0.932 . S
C613 C611 1.408 . S
C613 C612 1.310 . S
C613 H633 0.930 . S
C614 C615 1.474 . S
C614 C616 1.285 . S
C614 H634 0.929 . S
C615 C612 1.461 . S
C615 C614 1.474 . S
C616 C611 1.342 . S
C616 C614 1.285 . S
C616 H635 0.930 . S
C617 C620 1.424 . S
C617 C622 1.245 . S
C617 C623 1.428 . S
C618 C621 1.260 . S
C618 C622 1.477 . S
C618 H636 0.932 . S
C619 C620 1.384 . S
C619 C621 1.479 . S
C619 H637 0.929 . S
C620 C617 1.424 . S
C620 C619 1.384 . S
C620 H638 0.928 . S
C621 C618 1.260 . S
C621 C619 1.479 . S
C622 C617 1.245 . S
C622 C618 1.477 . S
C622 H639 0.932 . S
C623 U606 2.882 . S
C623 C617 1.428 . S
C623 O626 1.301 . S
C623 O627 1.282 . S
O624 U606 2.441 . S
O624 C610 1.249 . S
O625 U606 2.420 . S
O625 C610 1.202 . S
O626 U606 2.455 . S
O626 C623 1.301 . S
O627 U606 2.449 . S
O627 C623 1.282 . S
H628 C601 0.931 . S
H629 C603 0.929 . S
H630 C604 0.930 . S
H631 C605 0.931 . S
H632 C612 0.932 . S
H633 C613 0.930 . S
H634 C614 0.929 . S
H635 C616 0.930 . S
H636 C618 0.932 . S
H637 C619 0.929 . S
H638 C620 0.928 . S
H639 C622 0.932 . S
C640 C641 1.264 . S
C640 C645 1.479 . S
C640 C650 1.465 . S
C641 C640 1.264 . S
C641 C643 1.339 . S
C641 H668 0.931 . S
C642 C643 1.395 . S
C642 C644 1.320 . S
C643 C641 1.339 . S
C643 C642 1.395 . S
C643 H669 0.929 . S
C644 C642 1.320 . S
C644 C645 1.405 . S
C644 H670 0.930 . S
C645 C640 1.479 . S
C645 C644 1.405 . S
C645 H671 0.931 . S
U646 O647 2.454 . S
U646 O648 2.458 . S
U646 C649 2.984 . S
U646 C650 2.847 . S
U646 C663 2.882 . S
U646 O664 2.441 . S
U646 O665 2.420 . S
U646 O666 2.455 . S
U646 O667 2.449 . S
O647 U646 2.454 . S
O647 C649 1.353 . S
O648 U646 2.458 . S
O648 C649 1.286 . S
C649 U646 2.984 . S
C649 O647 1.353 . S
C649 O648 1.286 . S
C649 C651 1.363 . S
C650 C640 1.465 . S
C650 U646 2.847 . S
C650 O664 1.249 . S
C650 O665 1.202 . S
C651 C649 1.363 . S
C651 C653 1.408 . S
C651 C656 1.342 . S
C652 C653 1.310 . S
C652 C655 1.461 . S
C652 H672 0.932 . S
C653 C651 1.408 . S
C653 C652 1.310 . S
C653 H673 0.930 . S
C654 C655 1.474 . S
C654 C656 1.285 . S
C654 H674 0.929 . S
C655 C652 1.461 . S
C655 C654 1.474 . S
C656 C651 1.342 . S
C656 C654 1.285 . S
C656 H675 0.930 . S
C657 C660 1.424 . S
C657 C662 1.245 . S
C657 C663 1.428 . S
C658 C661 1.260 . S
C658 C662 1.477 . S
C658 H676 0.932 . S
C659 C660 1.384 . S
C659 C661 1.479 . S
C659 H677 0.929 . S
C660 C657 1.424 . S
C660 C659 1.384 . S
C660 H678 0.928 . S
C661 C658 1.260 . S
C661 C659 1.479 . S
C662 C657 1.245 . S
C662 C658 1.477 . S
C662 H679 0.932 . S
C663 U646 2.882 . S
C663 C657 1.428 . S
C663 O666 1.301 . S
C663 O667 1.282 . S
O664 U646 2.441 . S
O664 C650 1.249 . S
O665 U646 2.420 . S
O665 C650 1.202 . S
O666 U646 2.455 . S
O666 C663 1.301 . S
O667 U646 2.449 . S
O667 C663 1.282 . S
H668 C641 0.931 . S
H669 C643 0.929 . S
H670 C644 0.930 . S
H671 C645 0.931 . S
H672 C652 0.932 . S
H673 C653 0.930 . S
H674 C654 0.929 . S
H675 C656 0.930 . S
H676 C658 0.932 . S
H677 C659 0.929 . S
H678 C660 0.928 . S
H679 C662 0.932 . S
C680 C681 1.264 . S
C680 C685 1.479 . S
C680 C690 1.465 . S
C681 C680 1.264 . S
C681 C683 1.339 . S
C681 H708 0.931 . S
C682 C683 1.395 . S
C682 C684 1.320 . S
C683 C681 1.339 . S
C683 C682 1.395 . S
C683 H709 0.929 . S
C684 C682 1.320 . S
C684 C685 1.405 . S
C684 H710 0.930 . S
C685 C680 1.479 . S
C685 C684 1.405 . S
C685 H711 0.931 . S
U686 O687 2.454 . S
U686 O688 2.458 . S
U686 C689 2.984 . S
U686 C690 2.847 . S
U686 C703 2.882 . S
U686 O704 2.441 . S
U686 O705 2.420 . S
U686 O706 2.455 . S
U686 O707 2.449 . S
O687 U686 2.454 . S
O687 C689 1.353 . S
O688 U686 2.458 . S
O688 C689 1.286 . S
C689 U686 2.984 . S
C689 O687 1.353 . S
C689 O688 1.286 . S
C689 C691 1.363 . S
C690 C680 1.465 . S
C690 U686 2.847 . S
C690 O704 1.249 . S
C690 O705 1.202 . S
C691 C689 1.363 . S
C691 C693 1.408 . S
C691 C696 1.342 . S
C692 C693 1.310 . S
C692 C695 1.461 . S
C692 H712 0.932 . S
C693 C691 1.408 . S
C693 C692 1.310 . S
C693 H713 0.930 . S
C694 C695 1.474 . S
C694 C696 1.285 . S
C694 H714 0.929 . S
C695 C692 1.461 . S
C695 C694 1.474 . S
C696 C691 1.342 . S
C696 C694 1.285 . S
C696 H715 0.930 . S
C697 C700 1.424 . S
C697 C702 1.245 . S
C697 C703 1.428 . S
C698 C701 1.260 . S
C698 C702 1.477 . S
C698 H716 0.932 . S
C699 C700 1.384 . S
C699 C701 1.479 . S
C699 H717 0.929 . S
C700 C697 1.424 . S
C700 C699 1.384 . S
C700 H718 0.928 . S
C701 C698 1.260 . S
C701 C699 1.479 . S
C702 C697 1.245 . S
C702 C698 1.477 . S
C702 H719 0.932 . S
C703 U686 2.882 . S
C703 C697 1.428 . S
C703 O706 1.301 . S
C703 O707 1.282 . S
O704 U686 2.441 . S
O704 C690 1.249 . S
O705 U686 2.420 . S
O705 C690 1.202 . S
O706 U686 2.455 . S
O706 C703 1.301 . S
O707 U686 2.449 . S
O707 C703 1.282 . S
H708 C681 0.931 . S
H709 C683 0.929 . S
H710 C684 0.930 . S
H711 C685 0.931 . S
H712 C692 0.932 . S
H713 C693 0.930 . S
H714 C694 0.929 . S
H715 C696 0.930 . S
H716 C698 0.932 . S
H717 C699 0.929 . S
H718 C700 0.928 . S
H719 C702 0.932 . S
C720 C721 1.264 . S
C720 C725 1.479 . S
C720 C730 1.465 . S
C721 C720 1.264 . S
C721 C723 1.339 . S
C721 H748 0.931 . S
C722 C723 1.395 . S
C722 C724 1.320 . S
C723 C721 1.339 . S
C723 C722 1.395 . S
C723 H749 0.929 . S
C724 C722 1.320 . S
C724 C725 1.405 . S
C724 H750 0.930 . S
C725 C720 1.479 . S
C725 C724 1.405 . S
C725 H751 0.931 . S
U726 O727 2.454 . S
U726 O728 2.458 . S
U726 C729 2.984 . S
U726 C730 2.847 . S
U726 C743 2.882 . S
U726 O744 2.441 . S
U726 O745 2.420 . S
U726 O746 2.455 . S
U726 O747 2.449 . S
O727 U726 2.454 . S
O727 C729 1.353 . S
O728 U726 2.458 . S
O728 C729 1.286 . S
C729 U726 2.984 . S
C729 O727 1.353 . S
C729 O728 1.286 . S
C729 C731 1.363 1_556 S
C730 C720 1.465 . S
C730 U726 2.847 . S
C730 O744 1.249 . S
C730 O745 1.202 . S
C731 C729 1.363 1_554 S
C731 C733 1.408 . S
C731 C736 1.342 . S
C732 C733 1.310 . S
C732 C735 1.461 . S
C732 H752 0.932 . S
C733 C731 1.408 . S
C733 C732 1.310 . S
C733 H753 0.930 . S
C734 C735 1.474 . S
C734 C736 1.285 . S
C734 H754 0.929 . S
C735 C732 1.461 . S
C735 C734 1.474 . S
C736 C731 1.342 . S
C736 C734 1.285 . S
C736 H755 0.930 . S
C737 C740 1.424 . S
C737 C742 1.245 . S
C737 C743 1.428 . S
C738 C741 1.260 . S
C738 C742 1.477 . S
C738 H756 0.932 . S
C739 C740 1.384 . S
C739 C741 1.479 . S
C739 H757 0.929 . S
C740 C737 1.424 . S
C740 C739 1.384 . S
C740 H758 0.928 . S
C741 C738 1.260 . S
C741 C739 1.479 . S
C742 C737 1.245 . S
C742 C738 1.477 . S
C742 H759 0.932 . S
C743 U726 2.882 . S
C743 C737 1.428 . S
C743 O746 1.301 . S
C743 O747 1.282 . S
O744 U726 2.441 . S
O744 C730 1.249 . S
O745 U726 2.420 . S
O745 C730 1.202 . S
O746 U726 2.455 . S
O746 C743 1.301 . S
O747 U726 2.449 . S
O747 C743 1.282 . S
H748 C721 0.931 . S
H749 C723 0.929 . S
H750 C724 0.930 . S
H751 C725 0.931 . S
H752 C732 0.932 . S
H753 C733 0.930 . S
H754 C734 0.929 . S
H755 C736 0.930 . S
H756 C738 0.932 . S
H757 C739 0.929 . S
H758 C740 0.928 . S
H759 C742 0.932 . S
C760 C761 1.264 . S
C760 C765 1.479 . S
C760 C770 1.465 . S
C761 C760 1.264 . S
C761 C763 1.339 . S
C761 H788 0.931 . S
C762 C763 1.395 . S
C762 C764 1.320 . S
C763 C761 1.339 . S
C763 C762 1.395 . S
C763 H789 0.929 . S
C764 C762 1.320 . S
C764 C765 1.405 . S
C764 H790 0.930 . S
C765 C760 1.479 . S
C765 C764 1.405 . S
C765 H791 0.931 . S
U766 O767 2.454 . S
U766 O768 2.458 . S
U766 C769 2.984 . S
U766 C770 2.847 1_655 S
U766 C783 2.882 . S
U766 O784 2.441 1_655 S
U766 O785 2.420 1_655 S
U766 O786 2.455 . S
U766 O787 2.449 . S
O767 U766 2.454 . S
O767 C769 1.353 . S
O768 U766 2.458 . S
O768 C769 1.286 . S
C769 U766 2.984 . S
C769 O767 1.353 . S
C769 O768 1.286 . S
C769 C771 1.363 . S
C770 C760 1.465 . S
C770 U766 2.847 1_455 S
C770 O784 1.249 . S
C770 O785 1.202 . S
C771 C769 1.363 . S
C771 C773 1.408 . S
C771 C776 1.342 . S
C772 C773 1.310 . S
C772 C775 1.461 . S
C772 H792 0.932 . S
C773 C771 1.408 . S
C773 C772 1.310 . S
C773 H793 0.930 . S
C774 C775 1.474 . S
C774 C776 1.285 . S
C774 H794 0.929 . S
C775 C772 1.461 . S
C775 C774 1.474 . S
C776 C771 1.342 . S
C776 C774 1.285 . S
C776 H795 0.930 . S
C777 C780 1.424 . S
C777 C782 1.245 . S
C777 C783 1.428 . S
C778 C781 1.260 . S
C778 C782 1.477 . S
C778 H796 0.932 . S
C779 C780 1.384 . S
C779 C781 1.479 . S
C779 H797 0.929 . S
C780 C777 1.424 . S
C780 C779 1.384 . S
C780 H798 0.928 . S
C781 C778 1.260 . S
C781 C779 1.479 . S
C782 C777 1.245 . S
C782 C778 1.477 . S
C782 H799 0.932 . S
C783 U766 2.882 . S
C783 C777 1.428 . S
C783 O786 1.301 . S
C783 O787 1.282 . S
O784 U766 2.441 1_455 S
O784 C770 1.249 . S
O785 U766 2.420 1_455 S
O785 C770 1.202 . S
O786 U766 2.455 . S
O786 C783 1.301 . S
O787 U766 2.449 . S
O787 C783 1.282 . S
H788 C761 0.931 . S
H789 C763 0.929 . S
H790 C764 0.930 . S
H791 C765 0.931 . S
H792 C772 0.932 . S
H793 C773 0.930 . S
H794 C774 0.929 . S
H795 C776 0.930 . S
H796 C778 0.932 . S
H797 C779 0.929 . S
H798 C780 0.928 . S
H799 C782 0.932 . S
C800 C801 1.264 . S
C800 C805 1.479 . S
C800 C810 1.465 . S
C801 C800 1.264 . S
C801 C803 1.339 . S
C801 H828 0.931 . S
C802 C803 1.395 . S
C802 C804 1.320 . S
C803 C801 1.339 . S
C803 C802 1.395 . S
C803 H829 0.929 . S
C804 C802 1.320 . S
C804 C805 1.405 . S
C804 H830 0.930 . S
C805 C800 1.479 . S
C805 C804 1.405 . S
C805 H831 0.931 . S
U806 O807 2.454 . S
U806 O808 2.458 . S
U806 C809 2.984 . S
U806 C810 2.847 . S
U806 C823 2.882 . S
U806 O824 2.441 . S
U806 O825 2.420 . S
U806 O826 2.455 . S
U806 O827 2.449 . S
O807 U806 2.454 . S
O807 C809 1.353 . S
O808 U806 2.458 . S
O808 C809 1.286 . S
C809 U806 2.984 . S
C809 O807 1.353 . S
C809 O808 1.286 . S
C809 C811 1.363 . S
C810 C800 1.465 . S
C810 U806 2.847 . S
C810 O824 1.249 . S
C810 O825 1.202 . S
C811 C809 1.363 . S
C811 C813 1.408 . S
C811 C816 1.342 . S
C812 C813 1.310 . S
C812 C815 1.461 . S
C812 H832 0.932 . S
C813 C811 1.408 . S
C813 C812 1.310 . S
C813 H833 0.930 . S
C814 C815 1.474 . S
C814 C816 1.285 . S
C814 H834 0.929 . S
C815 C812 1.461 . S
C815 C814 1.474 . S
C816 C811 1.342 . S
C816 C814 1.285 . S
C816 H835 0.930 . S
C817 C820 1.424 . S
C817 C822 1.245 . S
C817 C823 1.428 . S
C818 C821 1.260 . S
C818 C822 1.477 . S
C818 H836 0.932 . S
C819 C820 1.384 . S
C819 C821 1.479 . S
C819 H837 0.929 . S
C820 C817 1.424 . S
C820 C819 1.384 . S
C820 H838 0.928 . S
C821 C818 1.260 . S
C821 C819 1.479 . S
C822 C817 1.245 . S
C822 C818 1.477 . S
C822 H839 0.932 . S
C823 U806 2.882 . S
C823 C817 1.428 . S
C823 O826 1.301 . S
C823 O827 1.282 . S
O824 U806 2.441 . S
O824 C810 1.249 . S
O825 U806 2.420 . S
O825 C810 1.202 . S
O826 U806 2.455 . S
O826 C823 1.301 . S
O827 U806 2.449 . S
O827 C823 1.282 . S
H828 C801 0.931 . S
H829 C803 0.929 . S
H830 C804 0.930 . S
H831 C805 0.931 . S
H832 C812 0.932 . S
H833 C813 0.930 . S
H834 C814 0.929 . S
H835 C816 0.930 . S
H836 C818 0.932 . S
H837 C819 0.929 . S
H838 C820 0.928 . S
H839 C822 0.932 . S
C840 C841 1.264 . S
C840 C845 1.479 . S
C840 C850 1.465 . S
C841 C840 1.264 . S
C841 C843 1.339 . S
C841 H868 0.931 . S
C842 C843 1.395 . S
C842 C844 1.320 . S
C843 C841 1.339 . S
C843 C842 1.395 . S
C843 H869 0.929 . S
C844 C842 1.320 . S
C844 C845 1.405 . S
C844 H870 0.930 . S
C845 C840 1.479 . S
C845 C844 1.405 . S
C845 H871 0.931 . S
U846 O847 2.454 . S
U846 O848 2.458 . S
U846 C849 2.984 . S
U846 C850 2.847 . S
U846 C863 2.882 . S
U846 O864 2.441 . S
U846 O865 2.420 . S
U846 O866 2.455 . S
U846 O867 2.449 . S
O847 U846 2.454 . S
O847 C849 1.353 . S
O848 U846 2.458 . S
O848 C849 1.286 . S
C849 U846 2.984 . S
C849 O847 1.353 . S
C849 O848 1.286 . S
C849 C851 1.363 . S
C850 C840 1.465 . S
C850 U846 2.847 . S
C850 O864 1.249 . S
C850 O865 1.202 . S
C851 C849 1.363 . S
C851 C853 1.408 . S
C851 C856 1.342 . S
C852 C853 1.310 . S
C852 C855 1.461 . S
C852 H872 0.932 . S
C853 C851 1.408 . S
C853 C852 1.310 . S
C853 H873 0.930 . S
C854 C855 1.474 . S
C854 C856 1.285 . S
C854 H874 0.929 . S
C855 C852 1.461 . S
C855 C854 1.474 . S
C856 C851 1.342 . S
C856 C854 1.285 . S
C856 H875 0.930 . S
C857 C860 1.424 . S
C857 C862 1.245 . S
C857 C863 1.428 . S
C858 C861 1.260 . S
C858 C862 1.477 . S
C858 H876 0.932 . S
C859 C860 1.384 . S
C859 C861 1.479 . S
C859 H877 0.929 . S
C860 C857 1.424 . S
C860 C859 1.384 . S
C860 H878 0.928 . S
C861 C858 1.260 . S
C861 C859 1.479 . S
C862 C857 1.245 . S
C862 C858 1.477 . S
C862 H879 0.932 . S
C863 U846 2.882 . S
C863 C857 1.428 . S
C863 O866 1.301 . S
C863 O867 1.282 . S
O864 U846 2.441 . S
O864 C850 1.249 . S
O865 U846 2.420 . S
O865 C850 1.202 . S
O866 U846 2.455 . S
O866 C863 1.301 . S
O867 U846 2.449 . S
O867 C863 1.282 . S
H868 C841 0.931 . S
H869 C843 0.929 . S
H870 C844 0.930 . S
H871 C845 0.931 . S
H872 C852 0.932 . S
H873 C853 0.930 . S
H874 C854 0.929 . S
H875 C856 0.930 . S
H876 C858 0.932 . S
H877 C859 0.929 . S
H878 C860 0.928 . S
H879 C862 0.932 . S
C880 C881 1.264 . S
C880 C885 1.479 . S
C880 C890 1.465 1_556 S
C881 C880 1.264 . S
C881 C883 1.339 . S
C881 H908 0.931 . S
C882 C883 1.395 . S
C882 C884 1.320 . S
C883 C881 1.339 . S
C883 C882 1.395 . S
C883 H909 0.929 . S
C884 C882 1.320 . S
C884 C885 1.405 . S
C884 H910 0.930 . S
C885 C880 1.479 . S
C885 C884 1.405 . S
C885 H911 0.931 . S
U886 O887 2.454 . S
U886 O888 2.458 . S
U886 C889 2.984 . S
U886 C890 2.847 . S
U886 C903 2.882 . S
U886 O904 2.441 . S
U886 O905 2.420 . S
U886 O906 2.455 . S
U886 O907 2.449 . S
O887 U886 2.454 . S
O887 C889 1.353 . S
O888 U886 2.458 . S
O888 C889 1.286 . S
C889 U886 2.984 . S
C889 O887 1.353 . S
C889 O888 1.286 . S
C889 C891 1.363 . S
C890 C880 1.465 1_554 S
C890 U886 2.847 . S
C890 O904 1.249 . S
C890 O905 1.202 . S
C891 C889 1.363 . S
C891 C893 1.408 . S
C891 C896 1.342 . S
C892 C893 1.310 . S
C892 C895 1.461 . S
C892 H912 0.932 . S
C893 C891 1.408 . S
C893 C892 1.310 . S
C893 H913 0.930 . S
C894 C895 1.474 . S
C894 C896 1.285 . S
C894 H914 0.929 . S
C895 C892 1.461 . S
C895 C894 1.474 . S
C896 C891 1.342 . S
C896 C894 1.285 . S
C896 H915 0.930 . S
C897 C900 1.424 . S
C897 C902 1.245 . S
C897 C903 1.428 . S
C898 C901 1.260 . S
C898 C902 1.477 . S
C898 H916 0.932 . S
C899 C900 1.384 . S
C899 C901 1.479 . S
C899 H917 0.929 . S
C900 C897 1.424 . S
C900 C899 1.384 . S
C900 H918 0.928 . S
C901 C898 1.260 . S
C901 C899 1.479 . S
C902 C897 1.245 . S
C902 C898 1.477 . S
C902 H919 0.932 . S
C903 U886 2.882 . S
C903 C897 1.428 . S
C903 O906 1.301 . S
C903 O907 1.282 . S
O904 U886 2.441 . S
O904 C890 1.249 . S
O905 U886 2.420 . S
O905 C890 1.202 . S
O906 U886 2.455 . S
O906 C903 1.301 . S
O907 U886 2.449 . S
O907 C903 1.282 . S
H908 C881 0.931 . S
H909 C883 0.929 . S
H910 C884 0.930 . S
H911 C885 0.931 . S
H912 C892 0.932 . S
H913 C893 0.930 . S
H914 C894 0.929 . S
H915 C896 0.930 . S
H916 C898 0.932 . S
H917 C899 0.929 . S
H918 C900 0.928 . S
H919 C902 0.932 . S
C920 C921 1.264 . S
C920 C925 1.479 . S
C920 C930 1.465 . S
C921 C920 1.264 . S
C921 C923 1.339 . S
C921 H948 0.931 . S
C922 C923 1.395 . S
C922 C924 1.320 . S
C923 C921 1.339 . S
C923 C922 1.395 . S
C923 H949 0.929 . S
C924 C922 1.320 . S
C924 C925 1.405 . S
C924 H950 0.930 . S
C925 C920 1.479 . S
C925 C924 1.405 . S
C925 H951 0.931 . S
U926 O927 2.454 1_565 S
U926 O928 2.423 1_565 S
U926 C929 2.984 1_565 S
U926 C930 2.847 . S
U926 C943 2.882 . S
U926 O944 2.441 . S
U926 O945 2.420 . S
U926 O946 2.455 . S
U926 O947 2.449 . S
O927 U926 2.454 1_545 S
O927 C929 1.353 . S
O928 U926 2.423 1_545 S
O928 C929 1.313 . S
C929 U926 2.984 1_545 S
C929 O927 1.353 . S
C929 O928 1.313 . S
C929 C931 1.363 . S
C930 C920 1.465 . S
C930 U926 2.847 . S
C930 O944 1.249 . S
C930 O945 1.202 . S
C931 C929 1.363 . S
C931 C933 1.408 . S
C931 C936 1.342 . S
C932 C933 1.310 . S
C932 C935 1.461 . S
C932 H952 0.932 . S
C933 C931 1.408 . S
C933 C932 1.310 . S
C933 H953 0.930 . S
C934 C935 1.474 . S
C934 C936 1.285 . S
C934 H954 0.929 . S
C935 C932 1.461 . S
C935 C934 1.474 . S
C936 C931 1.342 . S
C936 C934 1.285 . S
C936 H955 0.930 . S
C937 C940 1.424 . S
C937 C942 1.245 . S
C937 C943 1.428 . S
C938 C941 1.260 . S
C938 C942 1.477 . S
C938 H956 0.932 . S
C939 C940 1.384 . S
C939 C941 1.479 . S
C939 H957 0.929 . S
C940 C937 1.424 . S
C940 C939 1.384 . S
C940 H958 0.928 . S
C941 C938 1.260 . S
C941 C939 1.479 . S
C942 C937 1.245 . S
C942 C938 1.477 . S
C942 H959 0.932 . S
C943 U926 2.882 . S
C943 C937 1.428 . S
C943 O946 1.301 . S
C943 O947 1.282 . S
O944 U926 2.441 . S
O944 C930 1.249 . S
O945 U926 2.420 . S
O945 C930 1.202 . S
O946 U926 2.455 . S
O946 C943 1.301 . S
O947 U926 2.449 . S
O947 C943 1.282 . S
H948 C921 0.931 . S
H949 C923 0.929 . S
H950 C924 0.930 . S
H951 C925 0.931 . S
H952 C932 0.932 . S
H953 C933 0.930 . S
H954 C934 0.929 . S
H955 C936 0.930 . S
H956 C938 0.932 . S
H957 C939 0.929 . S
H958 C940 0.928 . S
H959 C942 0.932 . S
C960 C961 1.264 . S
C960 C965 1.479 . S
C960 C970 1.465 . S
C961 C960 1.264 . S
C961 C963 1.339 . S
C961 H988 0.931 . S
C962 C963 1.395 . S
C962 C964 1.320 . S
C963 C961 1.339 . S
C963 C962 1.395 . S
C963 H989 0.929 . S
C964 C962 1.320 . S
C964 C965 1.405 . S
C964 H990 0.930 . S
C965 C960 1.479 . S
C965 C964 1.405 . S
C965 H991 0.931 . S
U966 O967 2.454 1_565 S
U966 O968 2.458 1_565 S
U966 C969 2.984 1_565 S
U966 C970 2.847 . S
U966 C983 2.882 . S
U966 O984 2.441 . S
U966 O985 2.420 . S
U966 O986 2.455 . S
U966 O987 2.449 . S
O967 U966 2.454 1_545 S
O967 C969 1.353 . S
O968 U966 2.458 1_545 S
O968 C969 1.286 . S
C969 U966 2.984 1_545 S
C969 O967 1.353 . S
C969 O968 1.286 . S
C969 C971 1.363 . S
C970 C960 1.465 . S
C970 U966 2.847 . S
C970 O984 1.249 . S
C970 O985 1.202 . S
C971 C969 1.363 . S
C971 C973 1.408 . S
C971 C976 1.342 . S
C972 C973 1.310 . S
C972 C975 1.461 . S
C972 H992 0.932 . S
C973 C971 1.408 . S
C973 C972 1.310 . S
C973 H993 0.930 . S
C974 C975 1.474 . S
C974 C976 1.285 . S
C974 H994 0.929 . S
C975 C972 1.461 . S
C975 C974 1.474 . S
C976 C971 1.342 . S
C976 C974 1.285 . S
C976 H995 0.930 . S
C977 C980 1.424 . S
C977 C982 1.245 . S
C977 C983 1.428 . S
C978 C981 1.260 . S
C978 C982 1.477 . S
C978 H996 0.932 . S
C979 C980 1.384 . S
C979 C981 1.479 . S
C979 H997 0.929 . S
C980 C977 1.424 . S
C980 C979 1.384 . S
C980 H998 0.928 . S
C981 C978 1.260 . S
C981 C979 1.479 . S
C982 C977 1.245 . S
C982 C978 1.477 . S
C982 H999 0.932 . S
C983 U966 2.882 . S
C983 C977 1.428 . S
C983 O986 1.301 . S
C983 O987 1.282 . S
O984 U966 2.441 . S
O984 C970 1.249 . S
O985 U966 2.420 . S
O985 C970 1.202 . S
O986 U966 2.455 . S
O986 C983 1.301 . S
O987 U966 2.449 . S
O987 C983 1.282 . S
H988 C961 0.931 . S
H989 C963 0.929 . S
H990 C964 0.930 . S
H991 C965 0.931 . S
H992 C972 0.932 . S
H993 C973 0.930 . S
H994 C974 0.929 . S
H995 C976 0.930 . S
H996 C978 0.932 . S
H997 C979 0.929 . S
H998 C980 0.928 . S
H999 C982 0.932 . S
C1000 C1001 1.264 . S
C1000 C1005 1.479 . S
C1000 C1010 1.465 . S
C1001 C1000 1.264 . S
C1001 C1003 1.339 . S
C1001 H1028 0.931 . S
C1002 C1003 1.395 . S
C1002 C1004 1.320 . S
C1003 C1001 1.339 . S
C1003 C1002 1.395 . S
C1003 H1029 0.929 . S
C1004 C1002 1.320 . S
C1004 C1005 1.405 . S
C1004 H1030 0.930 . S
C1005 C1000 1.479 . S
C1005 C1004 1.405 . S
C1005 H1031 0.931 . S
U1006 O1007 2.454 . S
U1006 O1008 2.458 . S
U1006 C1009 2.984 . S
U1006 C1010 2.847 1_545 S
U1006 C1023 2.882 . S
U1006 O1024 2.441 1_545 S
U1006 O1025 2.420 1_545 S
U1006 O1026 2.455 . S
U1006 O1027 2.449 . S
O1007 U1006 2.454 . S
O1007 C1009 1.353 . S
O1008 U1006 2.458 . S
O1008 C1009 1.286 . S
C1009 U1006 2.984 . S
C1009 O1007 1.353 . S
C1009 O1008 1.286 . S
C1009 C1011 1.363 . S
C1010 C1000 1.465 . S
C1010 U1006 2.847 1_565 S
C1010 O1024 1.249 . S
C1010 O1025 1.202 . S
C1011 C1009 1.363 . S
C1011 C1013 1.408 . S
C1011 C1016 1.342 . S
C1012 C1013 1.310 . S
C1012 C1015 1.461 . S
C1012 H1032 0.932 . S
C1013 C1011 1.408 . S
C1013 C1012 1.310 . S
C1013 H1033 0.930 . S
C1014 C1015 1.474 . S
C1014 C1016 1.285 . S
C1014 H1034 0.929 . S
C1015 C1012 1.461 . S
C1015 C1014 1.474 . S
C1016 C1011 1.342 . S
C1016 C1014 1.285 . S
C1016 H1035 0.930 . S
C1017 C1020 1.424 . S
C1017 C1022 1.245 . S
C1017 C1023 1.428 . S
C1018 C1021 1.260 . S
C1018 C1022 1.477 . S
C1018 H1036 0.932 . S
C1019 C1020 1.384 . S
C1019 C1021 1.479 . S
C1019 H1037 0.929 . S
C1020 C1017 1.424 . S
C1020 C1019 1.384 . S
C1020 H1038 0.928 . S
C1021 C1018 1.260 . S
C1021 C1019 1.479 . S
C1022 C1017 1.245 . S
C1022 C1018 1.477 . S
C1022 H1039 0.932 . S
C1023 U1006 2.882 . S
C1023 C1017 1.428 . S
C1023 O1026 1.301 . S
C1023 O1027 1.282 . S
O1024 U1006 2.441 1_565 S
O1024 C1010 1.249 . S
O1025 U1006 2.420 1_565 S
O1025 C1010 1.202 . S
O1026 U1006 2.455 . S
O1026 C1023 1.301 . S
O1027 U1006 2.449 . S
O1027 C1023 1.282 . S
H1028 C1001 0.931 . S
H1029 C1003 0.929 . S
H1030 C1004 0.930 . S
H1031 C1005 0.931 . S
H1032 C1012 0.932 . S
H1033 C1013 0.930 . S
H1034 C1014 0.929 . S
H1035 C1016 0.930 . S
H1036 C1018 0.932 . S
H1037 C1019 0.929 . S
H1038 C1020 0.928 . S
H1039 C1022 0.932 . S
C1040 C1041 1.264 . S
C1040 C1045 1.479 . S
C1040 C1050 1.465 . S
C1041 C1040 1.264 . S
C1041 C1043 1.339 . S
C1041 H1068 0.931 . S
C1042 C1043 1.395 . S
C1042 C1044 1.320 . S
C1043 C1041 1.339 . S
C1043 C1042 1.395 . S
C1043 H1069 0.929 . S
C1044 C1042 1.320 . S
C1044 C1045 1.405 . S
C1044 H1070 0.930 . S
C1045 C1040 1.479 . S
C1045 C1044 1.405 . S
C1045 H1071 0.931 . S
U1046 O1047 2.454 . S
U1046 O1048 2.458 . S
U1046 C1049 2.984 . S
U1046 C1050 2.847 1_545 S
U1046 C1063 2.882 . S
U1046 O1064 2.441 1_545 S
U1046 O1065 2.420 1_545 S
U1046 O1066 2.455 . S
U1046 O1067 2.449 . S
O1047 U1046 2.454 . S
O1047 C1049 1.353 . S
O1048 U1046 2.458 . S
O1048 C1049 1.286 . S
C1049 U1046 2.984 . S
C1049 O1047 1.353 . S
C1049 O1048 1.286 . S
C1049 C1051 1.363 . S
C1050 C1040 1.465 . S
C1050 U1046 2.847 1_565 S
C1050 O1064 1.249 . S
C1050 O1065 1.202 . S
C1051 C1049 1.363 . S
C1051 C1053 1.408 . S
C1051 C1056 1.342 . S
C1052 C1053 1.310 . S
C1052 C1055 1.461 . S
C1052 H1072 0.932 . S
C1053 C1051 1.408 . S
C1053 C1052 1.310 . S
C1053 H1073 0.930 . S
C1054 C1055 1.474 . S
C1054 C1056 1.285 . S
C1054 H1074 0.929 . S
C1055 C1052 1.461 . S
C1055 C1054 1.474 . S
C1056 C1051 1.342 . S
C1056 C1054 1.285 . S
C1056 H1075 0.930 . S
C1057 C1060 1.424 . S
C1057 C1062 1.245 . S
C1057 C1063 1.428 . S
C1058 C1061 1.260 . S
C1058 C1062 1.477 . S
C1058 H1076 0.932 . S
C1059 C1060 1.384 . S
C1059 C1061 1.479 . S
C1059 H1077 0.929 . S
C1060 C1057 1.424 . S
C1060 C1059 1.384 . S
C1060 H1078 0.928 . S
C1061 C1058 1.260 . S
C1061 C1059 1.479 . S
C1062 C1057 1.245 . S
C1062 C1058 1.477 . S
C1062 H1079 0.932 . S
C1063 U1046 2.882 . S
C1063 C1057 1.428 . S
C1063 O1066 1.301 . S
C1063 O1067 1.282 . S
O1064 U1046 2.441 1_565 S
O1064 C1050 1.249 . S
O1065 U1046 2.420 1_565 S
O1065 C1050 1.202 . S
O1066 U1046 2.455 . S
O1066 C1063 1.301 . S
O1067 U1046 2.449 . S
O1067 C1063 1.282 . S
H1068 C1041 0.931 . S
H1069 C1043 0.929 . S
H1070 C1044 0.930 . S
H1071 C1045 0.931 . S
H1072 C1052 0.932 . S
H1073 C1053 0.930 . S
H1074 C1054 0.929 . S
H1075 C1056 0.930 . S
H1076 C1058 0.932 . S
H1077 C1059 0.929 . S
H1078 C1060 0.928 . S
H1079 C1062 0.932 . S
C1080 C1081 1.264 . S
C1080 C1085 1.479 . S
C1080 C1090 1.465 . S
C1081 C1080 1.264 . S
C1081 C1083 1.339 . S
C1081 H1108 0.931 . S
C1082 C1083 1.395 . S
C1082 C1084 1.320 . S
C1083 C1081 1.339 . S
C1083 C1082 1.395 . S
C1083 H1109 0.929 . S
C1084 C1082 1.320 . S
C1084 C1085 1.405 . S
C1084 H1110 0.930 . S
C1085 C1080 1.479 . S
C1085 C1084 1.405 . S
C1085 H1111 0.931 . S
U1086 O1087 2.454 . S
U1086 O1088 2.458 . S
U1086 C1089 2.975 . S
U1086 C1090 2.847 . S
U1086 C1103 2.882 . S
U1086 O1104 2.441 . S
U1086 O1105 2.420 . S
U1086 O1106 2.455 . S
U1086 O1107 2.449 . S
O1087 U1086 2.454 . S
O1087 C1089 1.349 . S
O1088 U1086 2.458 . S
O1088 C1089 1.279 . S
C1089 U1086 2.975 . S
C1089 O1087 1.349 . S
C1089 O1088 1.279 . S
C1089 C1091 1.372 1_556 S
C1090 C1080 1.465 . S
C1090 U1086 2.847 . S
C1090 O1104 1.249 . S
C1090 O1105 1.202 . S
C1091 C1089 1.372 1_554 S
C1091 C1093 1.408 . S
C1091 C1096 1.342 . S
C1092 C1093 1.310 . S
C1092 C1095 1.461 . S
C1092 H1112 0.932 . S
C1093 C1091 1.408 . S
C1093 C1092 1.310 . S
C1093 H1113 0.930 . S
C1094 C1095 1.474 . S
C1094 C1096 1.285 . S
C1094 H1114 0.929 . S
C1095 C1092 1.461 . S
C1095 C1094 1.474 . S
C1096 C1091 1.342 . S
C1096 C1094 1.285 . S
C1096 H1115 0.930 . S
C1097 C1100 1.424 . S
C1097 C1102 1.245 . S
C1097 C1103 1.428 . S
C1098 C1101 1.260 . S
C1098 C1102 1.477 . S
C1098 H1116 0.932 . S
C1099 C1100 1.384 . S
C1099 C1101 1.479 . S
C1099 H1117 0.929 . S
C1100 C1097 1.424 . S
C1100 C1099 1.384 . S
C1100 H1118 0.928 . S
C1101 C1098 1.260 . S
C1101 C1099 1.479 . S
C1102 C1097 1.245 . S
C1102 C1098 1.477 . S
C1102 H1119 0.932 . S
C1103 U1086 2.882 . S
C1103 C1097 1.428 . S
C1103 O1106 1.301 . S
C1103 O1107 1.282 . S
O1104 U1086 2.441 . S
O1104 C1090 1.249 . S
O1105 U1086 2.420 . S
O1105 C1090 1.202 . S
O1106 U1086 2.455 . S
O1106 C1103 1.301 . S
O1107 U1086 2.449 . S
O1107 C1103 1.282 . S
H1108 C1081 0.931 . S
H1109 C1083 0.929 . S
H1110 C1084 0.930 . S
H1111 C1085 0.931 . S
H1112 C1092 0.932 . S
H1113 C1093 0.930 . S
H1114 C1094 0.929 . S
H1115 C1096 0.930 . S
H1116 C1098 0.932 . S
H1117 C1099 0.929 . S
H1118 C1100 0.928 . S
H1119 C1102 0.932 . S
C1120 C1121 1.264 . S
C1120 C1125 1.479 . S
C1120 C1130 1.465 . S
C1121 C1120 1.264 . S
C1121 C1123 1.339 . S
C1121 H1148 0.931 . S
C1122 C1123 1.395 . S
C1122 C1124 1.320 . S
C1123 C1121 1.339 . S
C1123 C1122 1.395 . S
C1123 H1149 0.929 . S
C1124 C1122 1.320 . S
C1124 C1125 1.405 . S
C1124 H1150 0.930 . S
C1125 C1120 1.479 . S
C1125 C1124 1.405 . S
C1125 H1151 0.931 . S
U1126 O1127 2.454 . S
U1126 O1128 2.458 . S
U1126 C1129 2.984 . S
U1126 C1130 2.847 1_455 S
U1126 C1143 2.882 . S
U1126 O1144 2.441 1_455 S
U1126 O1145 2.420 1_455 S
U1126 O1146 2.455 . S
U1126 O1147 2.449 . S
O1127 U1126 2.454 . S
O1127 C1129 1.353 . S
O1128 U1126 2.458 . S
O1128 C1129 1.286 . S
C1129 U1126 2.984 . S
C1129 O1127 1.353 . S
C1129 O1128 1.286 . S
C1129 C1131 1.363 . S
C1130 C1120 1.465 . S
C1130 U1126 2.847 1_655 S
C1130 O1144 1.249 . S
C1130 O1145 1.202 . S
C1131 C1129 1.363 . S
C1131 C1133 1.408 . S
C1131 C1136 1.342 . S
C1132 C1133 1.310 . S
C1132 C1135 1.461 . S
C1132 H1152 0.932 . S
C1133 C1131 1.408 . S
C1133 C1132 1.310 . S
C1133 H1153 0.930 . S
C1134 C1135 1.474 . S
C1134 C1136 1.285 . S
C1134 H1154 0.929 . S
C1135 C1132 1.461 . S
C1135 C1134 1.474 . S
C1136 C1131 1.342 . S
C1136 C1134 1.285 . S
C1136 H1155 0.930 . S
C1137 C1140 1.424 . S
C1137 C1142 1.245 . S
C1137 C1143 1.428 . S
C1138 C1141 1.260 . S
C1138 C1142 1.477 . S
C1138 H1156 0.932 . S
C1139 C1140 1.384 . S
C1139 C1141 1.479 . S
C1139 H1157 0.929 . S
C1140 C1137 1.424 . S
C1140 C1139 1.384 . S
C1140 H1158 0.928 . S
C1141 C1138 1.260 . S
C1141 C1139 1.479 . S
C1142 C1137 1.245 . S
C1142 C1138 1.477 . S
C1142 H1159 0.932 . S
C1143 U1126 2.882 . S
C1143 C1137 1.428 . S
C1143 O1146 1.301 . S
C1143 O1147 1.282 . S
O1144 U1126 2.441 1_655 S
O1144 C1130 1.249 . S
O1145 U1126 2.420 1_655 S
O1145 C1130 1.202 . S
O1146 U1126 2.455 . S
O1146 C1143 1.301 . S
O1147 U1126 2.449 . S
O1147 C1143 1.282 . S
H1148 C1121 0.931 . S
H1149 C1123 0.929 . S
H1150 C1124 0.930 . S
H1151 C1125 0.931 . S
H1152 C1132 0.932 . S
H1153 C1133 0.930 . S
H1154 C1134 0.929 . S
H1155 C1136 0.930 . S
H1156 C1138 0.932 . S
H1157 C1139 0.929 . S
H1158 C1140 0.928 . S
H1159 C1142 0.932 . S
C1160 C1161 1.264 . S
C1160 C1165 1.479 . S
C1160 C1170 1.465 . S
C1161 C1160 1.264 . S
C1161 C1163 1.339 . S
C1161 H1188 0.931 . S
C1162 C1163 1.395 . S
C1162 C1164 1.320 . S
C1163 C1161 1.339 . S
C1163 C1162 1.395 . S
C1163 H1189 0.929 . S
C1164 C1162 1.320 . S
C1164 C1165 1.405 . S
C1164 H1190 0.930 . S
C1165 C1160 1.479 . S
C1165 C1164 1.405 . S
C1165 H1191 0.931 . S
U1166 O1167 2.454 . S
U1166 O1168 2.458 . S
U1166 C1169 2.984 . S
U1166 C1170 2.847 . S
U1166 C1183 2.882 . S
U1166 O1184 2.441 . S
U1166 O1185 2.420 . S
U1166 O1186 2.455 . S
U1166 O1187 2.449 . S
O1167 U1166 2.454 . S
O1167 C1169 1.353 . S
O1168 U1166 2.458 . S
O1168 C1169 1.286 . S
C1169 U1166 2.984 . S
C1169 O1167 1.353 . S
C1169 O1168 1.286 . S
C1169 C1171 1.363 . S
C1170 C1160 1.465 . S
C1170 U1166 2.847 . S
C1170 O1184 1.249 . S
C1170 O1185 1.202 . S
C1171 C1169 1.363 . S
C1171 C1173 1.408 . S
C1171 C1176 1.342 . S
C1172 C1173 1.310 . S
C1172 C1175 1.461 . S
C1172 H1192 0.932 . S
C1173 C1171 1.408 . S
C1173 C1172 1.310 . S
C1173 H1193 0.930 . S
C1174 C1175 1.474 . S
C1174 C1176 1.285 . S
C1174 H1194 0.929 . S
C1175 C1172 1.461 . S
C1175 C1174 1.474 . S
C1176 C1171 1.342 . S
C1176 C1174 1.285 . S
C1176 H1195 0.930 . S
C1177 C1180 1.424 . S
C1177 C1182 1.245 . S
C1177 C1183 1.428 . S
C1178 C1181 1.260 . S
C1178 C1182 1.477 . S
C1178 H1196 0.932 . S
C1179 C1180 1.384 . S
C1179 C1181 1.479 . S
C1179 H1197 0.929 . S
C1180 C1177 1.424 . S
C1180 C1179 1.384 . S
C1180 H1198 0.928 . S
C1181 C1178 1.260 . S
C1181 C1179 1.479 . S
C1182 C1177 1.245 . S
C1182 C1178 1.477 . S
C1182 H1199 0.932 . S
C1183 U1166 2.882 . S
C1183 C1177 1.428 . S
C1183 O1186 1.301 . S
C1183 O1187 1.282 . S
O1184 U1166 2.441 . S
O1184 C1170 1.249 . S
O1185 U1166 2.420 . S
O1185 C1170 1.202 . S
O1186 U1166 2.455 . S
O1186 C1183 1.301 . S
O1187 U1166 2.449 . S
O1187 C1183 1.282 . S
H1188 C1161 0.931 . S
H1189 C1163 0.929 . S
H1190 C1164 0.930 . S
H1191 C1165 0.931 . S
H1192 C1172 0.932 . S
H1193 C1173 0.930 . S
H1194 C1174 0.929 . S
H1195 C1176 0.930 . S
H1196 C1178 0.932 . S
H1197 C1179 0.929 . S
H1198 C1180 0.928 . S
H1199 C1182 0.932 . S
C1200 C1201 1.264 . S
C1200 C1205 1.479 . S
C1200 C1210 1.465 . S
C1201 C1200 1.264 . S
C1201 C1203 1.339 . S
C1201 H1228 0.931 . S
C1202 C1203 1.395 . S
C1202 C1204 1.320 . S
C1203 C1201 1.339 . S
C1203 C1202 1.395 . S
C1203 H1229 0.929 . S
C1204 C1202 1.320 . S
C1204 C1205 1.405 . S
C1204 H1230 0.930 . S
C1205 C1200 1.479 . S
C1205 C1204 1.405 . S
C1205 H1231 0.931 . S
U1206 O1207 2.454 . S
U1206 O1208 2.458 . S
U1206 C1209 2.984 . S
U1206 C1210 2.847 . S
U1206 C1223 2.882 . S
U1206 O1224 2.441 . S
U1206 O1225 2.420 . S
U1206 O1226 2.455 . S
U1206 O1227 2.449 . S
O1207 U1206 2.454 . S
O1207 C1209 1.353 . S
O1208 U1206 2.458 . S
O1208 C1209 1.286 . S
C1209 U1206 2.984 . S
C1209 O1207 1.353 . S
C1209 O1208 1.286 . S
C1209 C1211 1.363 . S
C1210 C1200 1.465 . S
C1210 U1206 2.847 . S
C1210 O1224 1.249 . S
C1210 O1225 1.202 . S
C1211 C1209 1.363 . S
C1211 C1213 1.408 . S
C1211 C1216 1.342 . S
C1212 C1213 1.310 . S
C1212 C1215 1.461 . S
C1212 H1232 0.932 . S
C1213 C1211 1.408 . S
C1213 C1212 1.310 . S
C1213 H1233 0.930 . S
C1214 C1215 1.474 . S
C1214 C1216 1.285 . S
C1214 H1234 0.929 . S
C1215 C1212 1.461 . S
C1215 C1214 1.474 . S
C1216 C1211 1.342 . S
C1216 C1214 1.285 . S
C1216 H1235 0.930 . S
C1217 C1220 1.424 . S
C1217 C1222 1.245 . S
C1217 C1223 1.428 . S
C1218 C1221 1.260 . S
C1218 C1222 1.477 . S
C1218 H1236 0.932 . S
C1219 C1220 1.384 . S
C1219 C1221 1.479 . S
C1219 H1237 0.929 . S
C1220 C1217 1.424 . S
C1220 C1219 1.384 . S
C1220 H1238 0.928 . S
C1221 C1218 1.260 . S
C1221 C1219 1.479 . S
C1222 C1217 1.245 . S
C1222 C1218 1.477 . S
C1222 H1239 0.932 . S
C1223 U1206 2.882 . S
C1223 C1217 1.428 . S
C1223 O1226 1.301 . S
C1223 O1227 1.282 . S
O1224 U1206 2.441 . S
O1224 C1210 1.249 . S
O1225 U1206 2.420 . S
O1225 C1210 1.202 . S
O1226 U1206 2.455 . S
O1226 C1223 1.301 . S
O1227 U1206 2.449 . S
O1227 C1223 1.282 . S
H1228 C1201 0.931 . S
H1229 C1203 0.929 . S
H1230 C1204 0.930 . S
H1231 C1205 0.931 . S
H1232 C1212 0.932 . S
H1233 C1213 0.930 . S
H1234 C1214 0.929 . S
H1235 C1216 0.930 . S
H1236 C1218 0.932 . S
H1237 C1219 0.929 . S
H1238 C1220 0.928 . S
H1239 C1222 0.932 . S
C1240 C1241 1.264 . S
C1240 C1245 1.479 . S
C1240 C1250 1.465 . S
C1241 C1240 1.264 . S
C1241 C1243 1.339 . S
C1241 H1268 0.931 . S
C1242 C1243 1.395 . S
C1242 C1244 1.320 . S
C1243 C1241 1.339 . S
C1243 C1242 1.395 . S
C1243 H1269 0.929 . S
C1244 C1242 1.320 . S
C1244 C1245 1.405 . S
C1244 H1270 0.930 . S
C1245 C1240 1.479 . S
C1245 C1244 1.405 . S
C1245 H1271 0.931 . S
U1246 O1247 2.454 . S
U1246 O1248 2.458 . S
U1246 C1249 2.984 . S
U1246 C1250 2.847 . S
U1246 C1263 2.882 . S
U1246 O1264 2.441 . S
U1246 O1265 2.420 . S
U1246 O1266 2.455 . S
U1246 O1267 2.449 . S
O1247 U1246 2.454 . S
O1247 C1249 1.353 . S
O1248 U1246 2.458 . S
O1248 C1249 1.286 . S
C1249 U1246 2.984 . S
C1249 O1247 1.353 . S
C1249 O1248 1.286 . S
C1249 C1251 1.363 1_655 S
C1250 C1240 1.465 . S
C1250 U1246 2.847 . S
C1250 O1264 1.249 . S
C1250 O1265 1.202 . S
C1251 C1249 1.363 1_455 S
C1251 C1253 1.408 . S
C1251 C1256 1.342 . S
C1252 C1253 1.310 . S
C1252 C1255 1.461 . S
C1252 H1272 0.932 . S
C1253 C1251 1.408 . S
C1253 C1252 1.310 . S
C1253 H1273 0.930 . S
C1254 C1255 1.474 . S
C1254 C1256 1.285 . S
C1254 H1274 0.929 . S
C1255 C1252 1.461 . S
C1255 C1254 1.474 . S
C1256 C1251 1.342 . S
C1256 C1254 1.285 . S
C1256 H1275 0.930 . S
C1257 C1260 1.424 . S
C1257 C1262 1.245 . S
C1257 C1263 1.428 . S
C1258 C1261 1.260 . S
C1258 C1262 1.477 . S
C1258 H1276 0.932 . S
C1259 C1260 1.384 . S
C1259 C1261 1.479 . S
C1259 H1277 0.929 . S
C1260 C1257 1.424 . S
C1260 C1259 1.384 . S
C1260 H1278 0.928 . S
C1261 C1258 1.260 . S
C1261 C1259 1.479 . S
C1262 C1257 1.245 . S
C1262 C1258 1.477 . S
C1262 H1279 0.932 . S
C1263 U1246 2.882 . S
C1263 C1257 1.428 . S
C1263 O1266 1.301 . S
C1263 O1267 1.282 . S
O1264 U1246 2.441 . S
O1264 C1250 1.249 . S
O1265 U1246 2.420 . S
O1265 C1250 1.202 . S
O1266 U1246 2.455 . S
O1266 C1263 1.301 . S
O1267 U1246 2.449 . S
O1267 C1263 1.282 . S
H1268 C1241 0.931 . S
H1269 C1243 0.929 . S
H1270 C1244 0.930 . S
H1271 C1245 0.931 . S
H1272 C1252 0.932 . S
H1273 C1253 0.930 . S
H1274 C1254 0.929 . S
H1275 C1256 0.930 . S
H1276 C1258 0.932 . S
H1277 C1259 0.929 . S
H1278 C1260 0.928 . S
H1279 C1262 0.932 . S
C1280 C1281 1.264 . S
C1280 C1285 1.479 . S
C1280 C1290 1.465 . S
C1281 C1280 1.264 . S
C1281 C1283 1.339 . S
C1281 H1308 0.931 . S
C1282 C1283 1.395 . S
C1282 C1284 1.320 . S
C1283 C1281 1.339 . S
C1283 C1282 1.395 . S
C1283 H1309 0.929 . S
C1284 C1282 1.320 . S
C1284 C1285 1.405 . S
C1284 H1310 0.930 . S
C1285 C1280 1.479 . S
C1285 C1284 1.405 . S
C1285 H1311 0.931 . S
U1286 O1287 2.454 . S
U1286 O1288 2.458 . S
U1286 C1289 2.984 . S
U1286 C1290 2.847 . S
U1286 C1303 2.882 . S
U1286 O1304 2.441 . S
U1286 O1305 2.420 . S
U1286 O1306 2.455 . S
U1286 O1307 2.449 . S
O1287 U1286 2.454 . S
O1287 C1289 1.353 . S
O1288 U1286 2.458 . S
O1288 C1289 1.286 . S
C1289 U1286 2.984 . S
C1289 O1287 1.353 . S
C1289 O1288 1.286 . S
C1289 C1291 1.363 . S
C1290 C1280 1.465 . S
C1290 U1286 2.847 . S
C1290 O1304 1.249 . S
C1290 O1305 1.202 . S
C1291 C1289 1.363 . S
C1291 C1293 1.408 . S
C1291 C1296 1.342 . S
C1292 C1293 1.310 . S
C1292 C1295 1.461 . S
C1292 H1312 0.932 . S
C1293 C1291 1.408 . S
C1293 C1292 1.310 . S
C1293 H1313 0.930 . S
C1294 C1295 1.474 . S
C1294 C1296 1.285 . S
C1294 H1314 0.929 . S
C1295 C1292 1.461 . S
C1295 C1294 1.474 . S
C1296 C1291 1.342 . S
C1296 C1294 1.285 . S
C1296 H1315 0.930 . S
C1297 C1300 1.424 . S
C1297 C1302 1.245 . S
C1297 C1303 1.428 . S
C1298 C1301 1.260 . S
C1298 C1302 1.477 . S
C1298 H1316 0.932 . S
C1299 C1300 1.384 . S
C1299 C1301 1.479 . S
C1299 H1317 0.929 . S
C1300 C1297 1.424 . S
C1300 C1299 1.384 . S
C1300 H1318 0.928 . S
C1301 C1298 1.260 . S
C1301 C1299 1.479 . S
C1302 C1297 1.245 . S
C1302 C1298 1.477 . S
C1302 H1319 0.932 . S
C1303 U1286 2.882 . S
C1303 C1297 1.428 . S
C1303 O1306 1.301 . S
C1303 O1307 1.282 . S
O1304 U1286 2.441 . S
O1304 C1290 1.249 . S
O1305 U1286 2.420 . S
O1305 C1290 1.202 . S
O1306 U1286 2.455 . S
O1306 C1303 1.301 . S
O1307 U1286 2.449 . S
O1307 C1303 1.282 . S
H1308 C1281 0.931 . S
H1309 C1283 0.929 . S
H1310 C1284 0.930 . S
H1311 C1285 0.931 . S
H1312 C1292 0.932 . S
H1313 C1293 0.930 . S
H1314 C1294 0.929 . S
H1315 C1296 0.930 . S
H1316 C1298 0.932 . S
H1317 C1299 0.929 . S
H1318 C1300 0.928 . S
H1319 C1302 0.932 . S
C1320 C1321 1.264 . S
C1320 C1325 1.479 . S
C1320 C1330 1.465 . S
C1321 C1320 1.264 . S
C1321 C1323 1.339 . S
C1321 H1348 0.931 . S
C1322 C1323 1.395 . S
C1322 C1324 1.320 . S
C1323 C1321 1.339 . S
C1323 C1322 1.395 . S
C1323 H1349 0.929 . S
C1324 C1322 1.320 . S
C1324 C1325 1.405 . S
C1324 H1350 0.930 . S
C1325 C1320 1.479 . S
C1325 C1324 1.405 . S
C1325 H1351 0.931 . S
U1326 O1327 2.454 . S
U1326 O1328 2.458 . S
U1326 C1329 2.984 . S
U1326 C1330 2.847 . S
U1326 C1343 2.882 . S
U1326 O1344 2.441 . S
U1326 O1345 2.420 . S
U1326 O1346 2.455 . S
U1326 O1347 2.449 . S
O1327 U1326 2.454 . S
O1327 C1329 1.353 . S
O1328 U1326 2.458 . S
O1328 C1329 1.286 . S
C1329 U1326 2.984 . S
C1329 O1327 1.353 . S
C1329 O1328 1.286 . S
C1329 C1331 1.363 . S
C1330 C1320 1.465 . S
C1330 U1326 2.847 . S
C1330 O1344 1.249 . S
C1330 O1345 1.202 . S
C1331 C1329 1.363 . S
C1331 C1333 1.408 . S
C1331 C1336 1.342 . S
C1332 C1333 1.310 1_554 S
C1332 C1335 1.461 . S
C1332 H1352 0.932 . S
C1333 C1331 1.408 . S
C1333 C1332 1.310 1_556 S
C1333 H1353 0.930 . S
C1334 C1335 1.394 1_556 S
C1334 C1336 1.371 . S
C1334 H1354 0.929 . S
C1335 C1332 1.461 . S
C1335 C1334 1.394 1_554 S
C1336 C1331 1.342 . S
C1336 C1334 1.371 . S
C1336 H1355 0.930 . S
C1337 C1340 1.424 . S
C1337 C1342 1.245 . S
C1337 C1343 1.428 . S
C1338 C1341 1.260 . S
C1338 C1342 1.477 . S
C1338 H1356 0.932 . S
C1339 C1340 1.384 . S
C1339 C1341 1.479 . S
C1339 H1357 0.929 . S
C1340 C1337 1.424 . S
C1340 C1339 1.384 . S
C1340 H1358 0.928 . S
C1341 C1338 1.260 . S
C1341 C1339 1.479 . S
C1342 C1337 1.245 . S
C1342 C1338 1.477 . S
C1342 H1359 0.932 . S
C1343 U1326 2.882 . S
C1343 C1337 1.428 . S
C1343 O1346 1.301 . S
C1343 O1347 1.282 . S
O1344 U1326 2.441 . S
O1344 C1330 1.249 . S
O1345 U1326 2.420 . S
O1345 C1330 1.202 . S
O1346 U1326 2.455 . S
O1346 C1343 1.301 . S
O1347 U1326 2.449 . S
O1347 C1343 1.282 . S
H1348 C1321 0.931 . S
H1349 C1323 0.929 . S
H1350 C1324 0.930 . S
H1351 C1325 0.931 . S
H1352 C1332 0.932 . S
H1353 C1333 0.930 . S
H1354 C1334 0.929 . S
H1355 C1336 0.930 . S
H1356 C1338 0.932 . S
H1357 C1339 0.929 . S
H1358 C1340 0.928 . S
H1359 C1342 0.932 . S
C1360 C1361 1.264 . S
C1360 C1365 1.479 . S
C1360 C1370 1.465 . S
C1361 C1360 1.264 . S
C1361 C1363 1.339 . S
C1361 H1388 0.931 . S
C1362 C1363 1.395 . S
C1362 C1364 1.320 . S
C1363 C1361 1.339 . S
C1363 C1362 1.395 . S
C1363 H1389 0.929 . S
C1364 C1362 1.320 . S
C1364 C1365 1.405 . S
C1364 H1390 0.930 . S
C1365 C1360 1.479 . S
C1365 C1364 1.405 . S
C1365 H1391 0.931 . S
U1366 O1367 2.454 . S
U1366 O1368 2.458 . S
U1366 C1369 2.984 . S
U1366 C1370 2.847 . S
U1366 C1383 2.882 . S
U1366 O1384 2.441 . S
U1366 O1385 2.420 . S
U1366 O1386 2.455 . S
U1366 O1387 2.449 . S
O1367 U1366 2.454 . S
O1367 C1369 1.353 . S
O1368 U1366 2.458 . S
O1368 C1369 1.286 . S
C1369 U1366 2.984 . S
C1369 O1367 1.353 . S
C1369 O1368 1.286 . S
C1369 C1371 1.363 . S
C1370 C1360 1.465 . S
C1370 U1366 2.847 . S
C1370 O1384 1.249 . S
C1370 O1385 1.202 . S
C1371 C1369 1.363 . S
C1371 C1373 1.408 . S
C1371 C1376 1.342 . S
C1372 C1373 1.310 . S
C1372 C1375 1.461 . S
C1372 H1392 0.932 . S
C1373 C1371 1.408 . S
C1373 C1372 1.310 . S
C1373 H1393 0.930 . S
C1374 C1375 1.474 . S
C1374 C1376 1.285 . S
C1374 H1394 0.929 . S
C1375 C1372 1.461 . S
C1375 C1374 1.474 . S
C1376 C1371 1.342 . S
C1376 C1374 1.285 . S
C1376 H1395 0.930 . S
C1377 C1380 1.424 . S
C1377 C1382 1.245 . S
C1377 C1383 1.428 . S
C1378 C1381 1.260 . S
C1378 C1382 1.477 . S
C1378 H1396 0.932 . S
C1379 C1380 1.384 . S
C1379 C1381 1.479 . S
C1379 H1397 0.929 . S
C1380 C1377 1.424 . S
C1380 C1379 1.384 . S
C1380 H1398 0.928 . S
C1381 C1378 1.260 . S
C1381 C1379 1.479 . S
C1382 C1377 1.245 . S
C1382 C1378 1.477 . S
C1382 H1399 0.932 . S
C1383 U1366 2.882 . S
C1383 C1377 1.428 . S
C1383 O1386 1.301 . S
C1383 O1387 1.282 . S
O1384 U1366 2.441 . S
O1384 C1370 1.249 . S
O1385 U1366 2.420 . S
O1385 C1370 1.202 . S
O1386 U1366 2.455 . S
O1386 C1383 1.301 . S
O1387 U1366 2.449 . S
O1387 C1383 1.282 . S
H1388 C1361 0.931 . S
H1389 C1363 0.929 . S
H1390 C1364 0.930 . S
H1391 C1365 0.931 . S
H1392 C1372 0.932 . S
H1393 C1373 0.930 . S
H1394 C1374 0.929 . S
H1395 C1376 0.930 . S
H1396 C1378 0.932 . S
H1397 C1379 0.929 . S
H1398 C1380 0.928 . S
H1399 C1382 0.932 . S
C1400 C1401 1.264 . S
C1400 C1405 1.479 . S
C1400 C1410 1.465 . S
C1401 C1400 1.264 . S
C1401 C1403 1.339 . S
C1401 H1428 0.931 . S
C1402 C1403 1.395 . S
C1402 C1404 1.320 . S
C1403 C1401 1.339 . S
C1403 C1402 1.395 . S
C1403 H1429 0.929 . S
C1404 C1402 1.320 . S
C1404 C1405 1.405 . S
C1404 H1430 0.930 . S
C1405 C1400 1.479 . S
C1405 C1404 1.405 . S
C1405 H1431 0.931 . S
U1406 O1407 2.454 . S
U1406 O1408 2.458 . S
U1406 C1409 2.984 . S
U1406 C1410 2.847 . S
U1406 C1423 2.882 . S
U1406 O1424 2.441 . S
U1406 O1425 2.420 . S
U1406 O1426 2.455 . S
U1406 O1427 2.449 . S
O1407 U1406 2.454 . S
O1407 C1409 1.353 . S
O1408 U1406 2.458 . S
O1408 C1409 1.286 . S
C1409 U1406 2.984 . S
C1409 O1407 1.353 . S
C1409 O1408 1.286 . S
C1409 C1411 1.363 . S
C1410 C1400 1.465 . S
C1410 U1406 2.847 . S
C1410 O1424 1.249 . S
C1410 O1425 1.202 . S
C1411 C1409 1.363 . S
C1411 C1413 1.408 . S
C1411 C1416 1.342 . S
C1412 C1413 1.310 . S
C1412 C1415 1.461 . S
C1412 H1432 0.932 . S
C1413 C1411 1.408 . S
C1413 C1412 1.310 . S
C1413 H1433 0.930 . S
C1414 C1415 1.474 . S
C1414 C1416 1.285 . S
C1414 H1434 0.929 . S
C1415 C1412 1.461 . S
C1415 C1414 1.474 . S
C1416 C1411 1.342 . S
C1416 C1414 1.285 . S
C1416 H1435 0.930 . S
C1417 C1420 1.424 . S
C1417 C1422 1.245 . S
C1417 C1423 1.428 . S
C1418 C1421 1.260 . S
C1418 C1422 1.477 . S
C1418 H1436 0.932 . S
C1419 C1420 1.384 . S
C1419 C1421 1.479 . S
C1419 H1437 0.929 . S
C1420 C1417 1.424 . S
C1420 C1419 1.384 . S
C1420 H1438 0.928 . S
C1421 C1418 1.260 . S
C1421 C1419 1.479 . S
C1422 C1417 1.245 . S
C1422 C1418 1.477 . S
C1422 H1439 0.932 . S
C1423 U1406 2.882 . S
C1423 C1417 1.428 . S
C1423 O1426 1.301 . S
C1423 O1427 1.282 . S
O1424 U1406 2.441 . S
O1424 C1410 1.249 . S
O1425 U1406 2.420 . S
O1425 C1410 1.202 . S
O1426 U1406 2.455 . S
O1426 C1423 1.301 . S
O1427 U1406 2.449 . S
O1427 C1423 1.282 . S
H1428 C1401 0.931 . S
H1429 C1403 0.929 . S
H1430 C1404 0.930 . S
H1431 C1405 0.931 . S
H1432 C1412 0.932 . S
H1433 C1413 0.930 . S
H1434 C1414 0.929 . S
H1435 C1416 0.930 . S
H1436 C1418 0.932 . S
H1437 C1419 0.929 . S
H1438 C1420 0.928 . S
H1439 C1422 0.932 . S
C1440 C1441 1.264 . S
C1440 C1445 1.479 . S
C1440 C1450 1.465 . S
C1441 C1440 1.264 . S
C1441 C1443 1.339 . S
C1441 H1468 0.931 . S
C1442 C1443 1.395 . S
C1442 C1444 1.320 . S
C1443 C1441 1.339 . S
C1443 C1442 1.395 . S
C1443 H1469 0.929 . S
C1444 C1442 1.320 . S
C1444 C1445 1.405 . S
C1444 H1470 0.930 . S
C1445 C1440 1.479 . S
C1445 C1444 1.405 . S
C1445 H1471 0.931 . S
U1446 O1447 2.454 . S
U1446 O1448 2.458 . S
U1446 C1449 2.984 . S
U1446 C1450 2.847 . S
U1446 C1463 2.882 . S
U1446 O1464 2.441 . S
U1446 O1465 2.420 . S
U1446 O1466 2.455 . S
U1446 O1467 2.449 . S
O1447 U1446 2.454 . S
O1447 C1449 1.353 . S
O1448 U1446 2.458 . S
O1448 C1449 1.286 . S
C1449 U1446 2.984 . S
C1449 O1447 1.353 . S
C1449 O1448 1.286 . S
C1449 C1451 1.363 . S
C1450 C1440 1.465 . S
C1450 U1446 2.847 . S
C1450 O1464 1.249 . S
C1450 O1465 1.202 . S
C1451 C1449 1.363 . S
C1451 C1453 1.408 . S
C1451 C1456 1.342 . S
C1452 C1453 1.310 . S
C1452 C1455 1.461 . S
C1452 H1472 0.932 . S
C1453 C1451 1.408 . S
C1453 C1452 1.310 . S
C1453 H1473 0.930 . S
C1454 C1455 1.474 . S
C1454 C1456 1.285 . S
C1454 H1474 0.929 . S
C1455 C1452 1.461 . S
C1455 C1454 1.474 . S
C1456 C1451 1.342 . S
C1456 C1454 1.285 . S
C1456 H1475 0.930 . S
C1457 C1460 1.424 . S
C1457 C1462 1.245 . S
C1457 C1463 1.428 . S
C1458 C1461 1.260 . S
C1458 C1462 1.477 . S
C1458 H1476 0.932 . S
C1459 C1460 1.384 . S
C1459 C1461 1.479 . S
C1459 H1477 0.929 . S
C1460 C1457 1.424 . S
C1460 C1459 1.384 . S
C1460 H1478 0.928 . S
C1461 C1458 1.260 . S
C1461 C1459 1.479 . S
C1462 C1457 1.245 . S
C1462 C1458 1.477 . S
C1462 H1479 0.932 . S
C1463 U1446 2.882 . S
C1463 C1457 1.428 . S
C1463 O1466 1.301 . S
C1463 O1467 1.282 . S
O1464 U1446 2.441 . S
O1464 C1450 1.249 . S
O1465 U1446 2.420 . S
O1465 C1450 1.202 . S
O1466 U1446 2.455 . S
O1466 C1463 1.301 . S
O1467 U1446 2.449 . S
O1467 C1463 1.282 . S
H1468 C1441 0.931 . S
H1469 C1443 0.929 . S
H1470 C1444 0.930 . S
H1471 C1445 0.931 . S
H1472 C1452 0.932 . S
H1473 C1453 0.930 . S
H1474 C1454 0.929 . S
H1475 C1456 0.930 . S
H1476 C1458 0.932 . S
H1477 C1459 0.929 . S
H1478 C1460 0.928 . S
H1479 C1462 0.932 . S
C1480 C1481 1.264 . S
C1480 C1485 1.479 . S
C1480 C1490 1.465 . S
C1481 C1480 1.264 . S
C1481 C1483 1.339 . S
C1481 H1508 0.931 . S
C1482 C1483 1.395 . S
C1482 C1484 1.320 . S
C1483 C1481 1.339 . S
C1483 C1482 1.395 . S
C1483 H1509 0.929 . S
C1484 C1482 1.320 . S
C1484 C1485 1.405 . S
C1484 H1510 0.930 . S
C1485 C1480 1.479 . S
C1485 C1484 1.405 . S
C1485 H1511 0.931 . S
U1486 O1487 2.454 . S
U1486 O1488 2.458 . S
U1486 C1489 2.984 . S
U1486 C1490 2.847 . S
U1486 C1503 2.882 . S
U1486 O1504 2.441 . S
U1486 O1505 2.420 . S
U1486 O1506 2.455 . S
U1486 O1507 2.449 . S
O1487 U1486 2.454 . S
O1487 C1489 1.353 . S
O1488 U1486 2.458 . S
O1488 C1489 1.286 . S
C1489 U1486 2.984 . S
C1489 O1487 1.353 . S
C1489 O1488 1.286 . S
C1489 C1491 1.363 . S
C1490 C1480 1.465 . S
C1490 U1486 2.847 . S
C1490 O1504 1.249 . S
C1490 O1505 1.202 . S
C1491 C1489 1.363 . S
C1491 C1493 1.408 . S
C1491 C1496 1.342 . S
C1492 C1493 1.310 . S
C1492 C1495 1.461 . S
C1492 H1512 0.932 . S
C1493 C1491 1.408 . S
C1493 C1492 1.310 . S
C1493 H1513 0.930 . S
C1494 C1495 1.474 . S
C1494 C1496 1.285 . S
C1494 H1514 0.929 . S
C1495 C1492 1.461 . S
C1495 C1494 1.474 . S
C1496 C1491 1.342 . S
C1496 C1494 1.285 . S
C1496 H1515 0.930 . S
C1497 C1500 1.424 . S
C1497 C1502 1.245 . S
C1497 C1503 1.428 . S
C1498 C1501 1.260 . S
C1498 C1502 1.477 . S
C1498 H1516 0.932 . S
C1499 C1500 1.384 . S
C1499 C1501 1.479 . S
C1499 H1517 0.929 . S
C1500 C1497 1.424 . S
C1500 C1499 1.384 . S
C1500 H1518 0.928 . S
C1501 C1498 1.260 . S
C1501 C1499 1.479 . S
C1502 C1497 1.245 . S
C1502 C1498 1.477 . S
C1502 H1519 0.932 . S
C1503 U1486 2.882 . S
C1503 C1497 1.428 . S
C1503 O1506 1.301 . S
C1503 O1507 1.282 . S
O1504 U1486 2.441 . S
O1504 C1490 1.249 . S
O1505 U1486 2.420 . S
O1505 C1490 1.202 . S
O1506 U1486 2.455 . S
O1506 C1503 1.301 . S
O1507 U1486 2.449 . S
O1507 C1503 1.282 . S
H1508 C1481 0.931 . S
H1509 C1483 0.929 . S
H1510 C1484 0.930 . S
H1511 C1485 0.931 . S
H1512 C1492 0.932 . S
H1513 C1493 0.930 . S
H1514 C1494 0.929 . S
H1515 C1496 0.930 . S
H1516 C1498 0.932 . S
H1517 C1499 0.929 . S
H1518 C1500 0.928 . S
H1519 C1502 0.932 . S
C1520 C1521 1.264 . S
C1520 C1525 1.479 . S
C1520 C1530 1.465 . S
C1521 C1520 1.264 . S
C1521 C1523 1.339 . S
C1521 H1548 0.931 . S
C1522 C1523 1.395 . S
C1522 C1524 1.320 . S
C1523 C1521 1.339 . S
C1523 C1522 1.395 . S
C1523 H1549 0.929 . S
C1524 C1522 1.320 . S
C1524 C1525 1.405 . S
C1524 H1550 0.930 . S
C1525 C1520 1.479 . S
C1525 C1524 1.405 . S
C1525 H1551 0.931 . S
U1526 O1527 2.454 . S
U1526 O1528 2.458 . S
U1526 C1529 2.984 . S
U1526 C1530 2.847 . S
U1526 C1543 2.882 . S
U1526 O1544 2.441 . S
U1526 O1545 2.420 . S
U1526 O1546 2.455 . S
U1526 O1547 2.449 . S
O1527 U1526 2.454 . S
O1527 C1529 1.353 . S
O1528 U1526 2.458 . S
O1528 C1529 1.286 . S
C1529 U1526 2.984 . S
C1529 O1527 1.353 . S
C1529 O1528 1.286 . S
C1529 C1531 1.363 . S
C1530 C1520 1.465 . S
C1530 U1526 2.847 . S
C1530 O1544 1.249 . S
C1530 O1545 1.202 . S
C1531 C1529 1.363 . S
C1531 C1533 1.408 . S
C1531 C1536 1.342 . S
C1532 C1533 1.310 . S
C1532 C1535 1.461 . S
C1532 H1552 0.932 . S
C1533 C1531 1.408 . S
C1533 C1532 1.310 . S
C1533 H1553 0.930 . S
C1534 C1535 1.474 . S
C1534 C1536 1.285 . S
C1534 H1554 0.929 . S
C1535 C1532 1.461 . S
C1535 C1534 1.474 . S
C1536 C1531 1.342 . S
C1536 C1534 1.285 . S
C1536 H1555 0.930 . S
C1537 C1540 1.424 . S
C1537 C1542 1.245 . S
C1537 C1543 1.428 . S
C1538 C1541 1.260 . S
C1538 C1542 1.477 . S
C1538 H1556 0.932 . S
C1539 C1540 1.384 . S
C1539 C1541 1.479 . S
C1539 H1557 0.929 . S
C1540 C1537 1.424 . S
C1540 C1539 1.384 . S
C1540 H1558 0.928 . S
C1541 C1538 1.260 . S
C1541 C1539 1.479 . S
C1542 C1537 1.245 . S
C1542 C1538 1.477 . S
C1542 H1559 0.932 . S
C1543 U1526 2.882 . S
C1543 C1537 1.428 . S
C1543 O1546 1.301 . S
C1543 O1547 1.282 . S
O1544 U1526 2.441 . S
O1544 C1530 1.249 . S
O1545 U1526 2.420 . S
O1545 C1530 1.202 . S
O1546 U1526 2.455 . S
O1546 C1543 1.301 . S
O1547 U1526 2.449 . S
O1547 C1543 1.282 . S
H1548 C1521 0.931 . S
H1549 C1523 0.929 . S
H1550 C1524 0.930 . S
H1551 C1525 0.931 . S
H1552 C1532 0.932 . S
H1553 C1533 0.930 . S
H1554 C1534 0.929 . S
H1555 C1536 0.930 . S
H1556 C1538 0.932 . S
H1557 C1539 0.929 . S
H1558 C1540 0.928 . S
H1559 C1542 0.932 . S
C1560 C1561 1.264 . S
C1560 C1565 1.479 . S
C1560 C1570 1.465 . S
C1561 C1560 1.264 . S
C1561 C1563 1.339 . S
C1561 H1588 0.931 . S
C1562 C1563 1.395 . S
C1562 C1564 1.320 . S
C1563 C1561 1.339 . S
C1563 C1562 1.395 . S
C1563 H1589 0.929 . S
C1564 C1562 1.320 . S
C1564 C1565 1.405 . S
C1564 H1590 0.930 . S
C1565 C1560 1.479 . S
C1565 C1564 1.405 . S
C1565 H1591 0.931 . S
U1566 O1567 2.454 . S
U1566 O1568 2.458 . S
U1566 C1569 2.984 . S
U1566 C1570 2.847 . S
U1566 C1583 2.882 . S
U1566 O1584 2.441 . S
U1566 O1585 2.420 . S
U1566 O1586 2.455 . S
U1566 O1587 2.449 . S
O1567 U1566 2.454 . S
O1567 C1569 1.353 . S
O1568 U1566 2.458 . S
O1568 C1569 1.286 . S
C1569 U1566 2.984 . S
C1569 O1567 1.353 . S
C1569 O1568 1.286 . S
C1569 C1571 1.363 . S
C1570 C1560 1.465 . S
C1570 U1566 2.847 . S
C1570 O1584 1.249 . S
C1570 O1585 1.202 . S
C1571 C1569 1.363 . S
C1571 C1573 1.408 . S
C1571 C1576 1.342 . S
C1572 C1573 1.310 . S
C1572 C1575 1.461 . S
C1572 H1592 0.932 . S
C1573 C1571 1.408 . S
C1573 C1572 1.310 . S
C1573 H1593 0.930 . S
C1574 C1575 1.474 . S
C1574 C1576 1.285 . S
C1574 H1594 0.929 . S
C1575 C1572 1.461 . S
C1575 C1574 1.474 . S
C1576 C1571 1.342 . S
C1576 C1574 1.285 . S
C1576 H1595 0.930 . S
C1577 C1580 1.424 . S
C1577 C1582 1.245 . S
C1577 C1583 1.428 . S
C1578 C1581 1.260 . S
C1578 C1582 1.477 . S
C1578 H1596 0.932 . S
C1579 C1580 1.384 . S
C1579 C1581 1.479 . S
C1579 H1597 0.929 . S
C1580 C1577 1.424 . S
C1580 C1579 1.384 . S
C1580 H1598 0.928 . S
C1581 C1578 1.260 . S
C1581 C1579 1.479 . S
C1582 C1577 1.245 . S
C1582 C1578 1.477 . S
C1582 H1599 0.932 . S
C1583 U1566 2.882 . S
C1583 C1577 1.428 . S
C1583 O1586 1.301 . S
C1583 O1587 1.282 . S
O1584 U1566 2.441 . S
O1584 C1570 1.249 . S
O1585 U1566 2.420 . S
O1585 C1570 1.202 . S
O1586 U1566 2.455 . S
O1586 C1583 1.301 . S
O1587 U1566 2.449 . S
O1587 C1583 1.282 . S
H1588 C1561 0.931 . S
H1589 C1563 0.929 . S
H1590 C1564 0.930 . S
H1591 C1565 0.931 . S
H1592 C1572 0.932 . S
H1593 C1573 0.930 . S
H1594 C1574 0.929 . S
H1595 C1576 0.930 . S
H1596 C1578 0.932 . S
H1597 C1579 0.929 . S
H1598 C1580 0.928 . S
H1599 C1582 0.932 . S
C1600 C1601 1.264 . S
C1600 C1605 1.479 . S
C1600 C1610 1.465 . S
C1601 C1600 1.264 . S
C1601 C1603 1.339 . S
C1601 H1628 0.931 . S
C1602 C1603 1.395 . S
C1602 C1604 1.320 . S
C1603 C1601 1.339 . S
C1603 C1602 1.395 . S
C1603 H1629 0.929 . S
C1604 C1602 1.320 . S
C1604 C1605 1.405 . S
C1604 H1630 0.930 . S
C1605 C1600 1.479 . S
C1605 C1604 1.405 . S
C1605 H1631 0.931 . S
U1606 O1607 2.454 . S
U1606 O1608 2.458 . S
U1606 C1609 2.984 . S
U1606 C1610 2.847 1_455 S
U1606 C1623 2.882 . S
U1606 O1624 2.441 1_455 S
U1606 O1625 2.420 1_455 S
U1606 O1626 2.455 . S
U1606 O1627 2.449 . S
O1607 U1606 2.454 . S
O1607 C1609 1.353 . S
O1608 U1606 2.458 . S
O1608 C1609 1.286 . S
C1609 U1606 2.984 . S
C1609 O1607 1.353 . S
C1609 O1608 1.286 . S
C1609 C1611 1.363 . S
C1610 C1600 1.465 . S
C1610 U1606 2.847 1_655 S
C1610 O1624 1.249 . S
C1610 O1625 1.202 . S
C1611 C1609 1.363 . S
C1611 C1613 1.408 . S
C1611 C1616 1.342 . S
C1612 C1613 1.310 . S
C1612 C1615 1.461 . S
C1612 H1632 0.932 . S
C1613 C1611 1.408 . S
C1613 C1612 1.310 . S
C1613 H1633 0.930 . S
C1614 C1615 1.474 . S
C1614 C1616 1.285 . S
C1614 H1634 0.929 . S
C1615 C1612 1.461 . S
C1615 C1614 1.474 . S
C1616 C1611 1.342 . S
C1616 C1614 1.285 . S
C1616 H1635 0.930 . S
C1617 C1620 1.424 . S
C1617 C1622 1.245 . S
C1617 C1623 1.428 . S
C1618 C1621 1.260 . S
C1618 C1622 1.477 . S
C1618 H1636 0.932 . S
C1619 C1620 1.384 . S
C1619 C1621 1.479 . S
C1619 H1637 0.929 . S
C1620 C1617 1.424 . S
C1620 C1619 1.384 . S
C1620 H1638 0.928 . S
C1621 C1618 1.260 . S
C1621 C1619 1.479 . S
C1622 C1617 1.245 . S
C1622 C1618 1.477 . S
C1622 H1639 0.932 . S
C1623 U1606 2.882 . S
C1623 C1617 1.428 . S
C1623 O1626 1.301 . S
C1623 O1627 1.282 . S
O1624 U1606 2.441 1_655 S
O1624 C1610 1.249 . S
O1625 U1606 2.420 1_655 S
O1625 C1610 1.202 . S
O1626 U1606 2.455 . S
O1626 C1623 1.301 . S
O1627 U1606 2.449 . S
O1627 C1623 1.282 . S
H1628 C1601 0.931 . S
H1629 C1603 0.929 . S
H1630 C1604 0.930 . S
H1631 C1605 0.931 . S
H1632 C1612 0.932 . S
H1633 C1613 0.930 . S
H1634 C1614 0.929 . S
H1635 C1616 0.930 . S
H1636 C1618 0.932 . S
H1637 C1619 0.929 . S
H1638 C1620 0.928 . S
H1639 C1622 0.932 . S
C1640 C1641 1.264 . S
C1640 C1645 1.479 . S
C1640 C1650 1.465 . S
C1641 C1640 1.264 . S
C1641 C1643 1.339 . S
C1641 H1668 0.931 . S
C1642 C1643 1.395 . S
C1642 C1644 1.320 . S
C1643 C1641 1.339 . S
C1643 C1642 1.395 . S
C1643 H1669 0.929 . S
C1644 C1642 1.320 . S
C1644 C1645 1.405 . S
C1644 H1670 0.930 . S
C1645 C1640 1.479 . S
C1645 C1644 1.405 . S
C1645 H1671 0.931 . S
U1646 O1647 2.454 . S
U1646 O1648 2.458 . S
U1646 C1649 2.984 . S
U1646 C1650 2.847 . S
U1646 C1663 2.882 . S
U1646 O1664 2.441 . S
U1646 O1665 2.420 . S
U1646 O1666 2.455 . S
U1646 O1667 2.449 . S
O1647 U1646 2.454 . S
O1647 C1649 1.353 . S
O1648 U1646 2.458 . S
O1648 C1649 1.286 . S
C1649 U1646 2.984 . S
C1649 O1647 1.353 . S
C1649 O1648 1.286 . S
C1649 C1651 1.363 . S
C1650 C1640 1.465 . S
C1650 U1646 2.847 . S
C1650 O1664 1.249 . S
C1650 O1665 1.202 . S
C1651 C1649 1.363 . S
C1651 C1653 1.408 . S
C1651 C1656 1.342 . S
C1652 C1653 1.310 . S
C1652 C1655 1.461 . S
C1652 H1672 0.932 . S
C1653 C1651 1.408 . S
C1653 C1652 1.310 . S
C1653 H1673 0.930 . S
C1654 C1655 1.474 . S
C1654 C1656 1.285 . S
C1654 H1674 0.929 . S
C1655 C1652 1.461 . S
C1655 C1654 1.474 . S
C1656 C1651 1.342 . S
C1656 C1654 1.285 . S
C1656 H1675 0.930 . S
C1657 C1660 1.424 . S
C1657 C1662 1.245 . S
C1657 C1663 1.428 . S
C1658 C1661 1.260 . S
C1658 C1662 1.477 . S
C1658 H1676 0.932 . S
C1659 C1660 1.384 . S
C1659 C1661 1.479 . S
C1659 H1677 0.929 . S
C1660 C1657 1.424 . S
C1660 C1659 1.384 . S
C1660 H1678 0.928 . S
C1661 C1658 1.260 . S
C1661 C1659 1.479 . S
C1662 C1657 1.245 . S
C1662 C1658 1.477 . S
C1662 H1679 0.932 . S
C1663 U1646 2.882 . S
C1663 C1657 1.428 . S
C1663 O1666 1.301 . S
C1663 O1667 1.282 . S
O1664 U1646 2.441 . S
O1664 C1650 1.249 . S
O1665 U1646 2.420 . S
O1665 C1650 1.202 . S
O1666 U1646 2.455 . S
O1666 C1663 1.301 . S
O1667 U1646 2.449 . S
O1667 C1663 1.282 . S
H1668 C1641 0.931 . S
H1669 C1643 0.929 . S
H1670 C1644 0.930 . S
H1671 C1645 0.931 . S
H1672 C1652 0.932 . S
H1673 C1653 0.930 . S
H1674 C1654 0.929 . S
H1675 C1656 0.930 . S
H1676 C1658 0.932 . S
H1677 C1659 0.929 . S
H1678 C1660 0.928 . S
H1679 C1662 0.932 . S
C1680 C1681 1.264 . S
C1680 C1685 1.479 . S
C1680 C1690 1.465 . S
C1681 C1680 1.264 . S
C1681 C1683 1.339 . S
C1681 H1708 0.931 . S
C1682 C1683 1.395 . S
C1682 C1684 1.320 . S
C1683 C1681 1.339 . S
C1683 C1682 1.395 . S
C1683 H1709 0.929 . S
C1684 C1682 1.320 . S
C1684 C1685 1.405 . S
C1684 H1710 0.930 . S
C1685 C1680 1.479 . S
C1685 C1684 1.405 . S
C1685 H1711 0.931 . S
U1686 O1687 2.454 . S
U1686 O1688 2.458 . S
U1686 C1689 2.944 1_554 S
U1686 C1690 2.847 . S
U1686 C1703 2.882 . S
U1686 O1704 2.441 . S
U1686 O1705 2.420 . S
U1686 O1706 2.455 . S
U1686 O1707 2.449 . S
O1687 U1686 2.454 . S
O1687 C1689 1.334 1_554 S
O1688 U1686 2.458 . S
O1688 C1689 1.258 1_554 S
C1689 U1686 2.944 1_556 S
C1689 O1687 1.334 1_556 S
C1689 O1688 1.258 1_556 S
C1689 C1691 1.403 . S
C1690 C1680 1.465 . S
C1690 U1686 2.847 . S
C1690 O1704 1.249 . S
C1690 O1705 1.202 . S
C1691 C1689 1.403 . S
C1691 C1693 1.408 . S
C1691 C1696 1.342 . S
C1692 C1693 1.310 . S
C1692 C1695 1.461 . S
C1692 H1712 0.932 . S
C1693 C1691 1.408 . S
C1693 C1692 1.310 . S
C1693 H1713 0.930 . S
C1694 C1695 1.474 . S
C1694 C1696 1.285 . S
C1694 H1714 0.929 . S
C1695 C1692 1.461 . S
C1695 C1694 1.474 . S
C1696 C1691 1.342 . S
C1696 C1694 1.285 . S
C1696 H1715 0.930 . S
C1697 C1700 1.424 . S
C1697 C1702 1.245 . S
C1697 C1703 1.428 . S
C1698 C1701 1.260 . S
C1698 C1702 1.477 . S
C1698 H1716 0.932 . S
C1699 C1700 1.384 . S
C1699 C1701 1.479 . S
C1699 H1717 0.929 . S
C1700 C1697 1.424 . S
C1700 C1699 1.384 . S
C1700 H1718 0.928 . S
C1701 C1698 1.260 . S
C1701 C1699 1.479 . S
C1702 C1697 1.245 . S
C1702 C1698 1.477 . S
C1702 H1719 0.932 . S
C1703 U1686 2.882 . S
C1703 C1697 1.428 . S
C1703 O1706 1.301 . S
C1703 O1707 1.282 . S
O1704 U1686 2.441 . S
O1704 C1690 1.249 . S
O1705 U1686 2.420 . S
O1705 C1690 1.202 . S
O1706 U1686 2.455 . S
O1706 C1703 1.301 . S
O1707 U1686 2.449 . S
O1707 C1703 1.282 . S
H1708 C1681 0.931 . S
H1709 C1683 0.929 . S
H1710 C1684 0.930 . S
H1711 C1685 0.931 . S
H1712 C1692 0.932 . S
H1713 C1693 0.930 . S
H1714 C1694 0.929 . S
H1715 C1696 0.930 . S
H1716 C1698 0.932 . S
H1717 C1699 0.929 . S
H1718 C1700 0.928 . S
H1719 C1702 0.932 . S
C1720 C1721 1.264 . S
C1720 C1725 1.479 . S
C1720 C1730 1.465 . S
C1721 C1720 1.264 . S
C1721 C1723 1.339 . S
C1721 H1748 0.931 . S
C1722 C1723 1.395 . S
C1722 C1724 1.320 . S
C1723 C1721 1.339 . S
C1723 C1722 1.395 . S
C1723 H1749 0.929 . S
C1724 C1722 1.320 . S
C1724 C1725 1.405 . S
C1724 H1750 0.930 . S
C1725 C1720 1.479 . S
C1725 C1724 1.405 . S
C1725 H1751 0.931 . S
U1726 O1727 2.454 . S
U1726 O1728 2.458 . S
U1726 C1729 2.984 . S
U1726 C1730 2.847 . S
U1726 C1743 2.882 . S
U1726 O1744 2.441 . S
U1726 O1745 2.420 . S
U1726 O1746 2.455 . S
U1726 O1747 2.449 . S
O1727 U1726 2.454 . S
O1727 C1729 1.353 . S
O1728 U1726 2.458 . S
O1728 C1729 1.286 . S
C1729 U1726 2.984 . S
C1729 O1727 1.353 . S
C1729 O1728 1.286 . S
C1729 C1731 1.363 . S
C1730 C1720 1.465 . S
C1730 U1726 2.847 . S
C1730 O1744 1.249 . S
C1730 O1745 1.202 . S
C1731 C1729 1.363 . S
C1731 C1733 1.408 . S
C1731 C1736 1.342 . S
C1732 C1733 1.310 . S
C1732 C1735 1.461 . S
C1732 H1752 0.932 . S
C1733 C1731 1.408 . S
C1733 C1732 1.310 . S
C1733 H1753 0.930 . S
C1734 C1735 1.474 . S
C1734 C1736 1.285 . S
C1734 H1754 0.929 . S
C1735 C1732 1.461 . S
C1735 C1734 1.474 . S
C1736 C1731 1.342 . S
C1736 C1734 1.285 . S
C1736 H1755 0.930 . S
C1737 C1740 1.424 . S
C1737 C1742 1.245 . S
C1737 C1743 1.428 . S
C1738 C1741 1.260 . S
C1738 C1742 1.477 . S
C1738 H1756 0.932 . S
C1739 C1740 1.384 . S
C1739 C1741 1.479 . S
C1739 H1757 0.929 . S
C1740 C1737 1.424 . S
C1740 C1739 1.384 . S
C1740 H1758 0.928 . S
C1741 C1738 1.260 . S
C1741 C1739 1.479 . S
C1742 C1737 1.245 . S
C1742 C1738 1.477 . S
C1742 H1759 0.932 . S
C1743 U1726 2.882 . S
C1743 C1737 1.428 . S
C1743 O1746 1.301 . S
C1743 O1747 1.282 . S
O1744 U1726 2.441 . S
O1744 C1730 1.249 . S
O1745 U1726 2.420 . S
O1745 C1730 1.202 . S
O1746 U1726 2.455 . S
O1746 C1743 1.301 . S
O1747 U1726 2.449 . S
O1747 C1743 1.282 . S
H1748 C1721 0.931 . S
H1749 C1723 0.929 . S
H1750 C1724 0.930 . S
H1751 C1725 0.931 . S
H1752 C1732 0.932 . S
H1753 C1733 0.930 . S
H1754 C1734 0.929 . S
H1755 C1736 0.930 . S
H1756 C1738 0.932 . S
H1757 C1739 0.929 . S
H1758 C1740 0.928 . S
H1759 C1742 0.932 . S
C1760 C1761 1.264 . S
C1760 C1765 1.479 . S
C1760 C1770 1.465 . S
C1761 C1760 1.264 . S
C1761 C1763 1.339 . S
C1761 H1788 0.931 . S
C1762 C1763 1.395 . S
C1762 C1764 1.320 . S
C1763 C1761 1.339 . S
C1763 C1762 1.395 . S
C1763 H1789 0.929 . S
C1764 C1762 1.320 . S
C1764 C1765 1.405 . S
C1764 H1790 0.930 . S
C1765 C1760 1.479 . S
C1765 C1764 1.405 . S
C1765 H1791 0.931 . S
U1766 O1767 2.454 . S
U1766 O1768 2.458 . S
U1766 C1769 2.984 . S
U1766 C1770 2.847 . S
U1766 C1783 2.882 . S
U1766 O1784 2.441 . S
U1766 O1785 2.420 . S
U1766 O1786 2.455 . S
U1766 O1787 2.449 . S
O1767 U1766 2.454 . S
O1767 C1769 1.353 . S
O1768 U1766 2.458 . S
O1768 C1769 1.286 . S
C1769 U1766 2.984 . S
C1769 O1767 1.353 . S
C1769 O1768 1.286 . S
C1769 C1771 1.363 . S
C1770 C1760 1.465 . S
C1770 U1766 2.847 . S
C1770 O1784 1.249 . S
C1770 O1785 1.202 . S
C1771 C1769 1.363 . S
C1771 C1773 1.408 . S
C1771 C1776 1.342 . S
C1772 C1773 1.310 . S
C1772 C1775 1.461 . S
C1772 H1792 0.932 . S
C1773 C1771 1.408 . S
C1773 C1772 1.310 . S
C1773 H1793 0.930 . S
C1774 C1775 1.474 . S
C1774 C1776 1.285 . S
C1774 H1794 0.929 . S
C1775 C1772 1.461 . S
C1775 C1774 1.474 . S
C1776 C1771 1.342 . S
C1776 C1774 1.285 . S
C1776 H1795 0.930 . S
C1777 C1780 1.424 . S
C1777 C1782 1.245 . S
C1777 C1783 1.428 . S
C1778 C1781 1.260 . S
C1778 C1782 1.477 . S
C1778 H1796 0.932 . S
C1779 C1780 1.384 . S
C1779 C1781 1.479 . S
C1779 H1797 0.929 . S
C1780 C1777 1.424 . S
C1780 C1779 1.384 . S
C1780 H1798 0.928 . S
C1781 C1778 1.260 . S
C1781 C1779 1.479 . S
C1782 C1777 1.245 . S
C1782 C1778 1.477 . S
C1782 H1799 0.932 . S
C1783 U1766 2.882 . S
C1783 C1777 1.428 . S
C1783 O1786 1.301 . S
C1783 O1787 1.282 . S
O1784 U1766 2.441 . S
O1784 C1770 1.249 . S
O1785 U1766 2.420 . S
O1785 C1770 1.202 . S
O1786 U1766 2.455 . S
O1786 C1783 1.301 . S
O1787 U1766 2.449 . S
O1787 C1783 1.282 . S
H1788 C1761 0.931 . S
H1789 C1763 0.929 . S
H1790 C1764 0.930 . S
H1791 C1765 0.931 . S
H1792 C1772 0.932 . S
H1793 C1773 0.930 . S
H1794 C1774 0.929 . S
H1795 C1776 0.930 . S
H1796 C1778 0.932 . S
H1797 C1779 0.929 . S
H1798 C1780 0.928 . S
H1799 C1782 0.932 . S
C1800 C1801 1.264 . S
C1800 C1805 1.479 . S
C1800 C1810 1.465 . S
C1801 C1800 1.264 . S
C1801 C1803 1.339 . S
C1801 H1828 0.931 . S
C1802 C1803 1.395 . S
C1802 C1804 1.320 . S
C1803 C1801 1.339 . S
C1803 C1802 1.395 . S
C1803 H1829 0.929 . S
C1804 C1802 1.320 . S
C1804 C1805 1.405 . S
C1804 H1830 0.930 . S
C1805 C1800 1.479 . S
C1805 C1804 1.405 . S
C1805 H1831 0.931 . S
U1806 O1807 2.454 . S
U1806 O1808 2.458 . S
U1806 C1809 2.984 . S
U1806 C1810 2.847 . S
U1806 C1823 2.882 . S
U1806 O1824 2.441 . S
U1806 O1825 2.420 . S
U1806 O1826 2.455 . S
U1806 O1827 2.449 . S
O1807 U1806 2.454 . S
O1807 C1809 1.353 . S
O1808 U1806 2.458 . S
O1808 C1809 1.286 . S
C1809 U1806 2.984 . S
C1809 O1807 1.353 . S
C1809 O1808 1.286 . S
C1809 C1811 1.363 . S
C1810 C1800 1.465 . S
C1810 U1806 2.847 . S
C1810 O1824 1.249 . S
C1810 O1825 1.202 . S
C1811 C1809 1.363 . S
C1811 C1813 1.408 . S
C1811 C1816 1.342 . S
C1812 C1813 1.310 . S
C1812 C1815 1.461 . S
C1812 H1832 0.932 . S
C1813 C1811 1.408 . S
C1813 C1812 1.310 . S
C1813 H1833 0.930 . S
C1814 C1815 1.474 . S
C1814 C1816 1.285 . S
C1814 H1834 0.929 . S
C1815 C1812 1.461 . S
C1815 C1814 1.474 . S
C1816 C1811 1.342 . S
C1816 C1814 1.285 . S
C1816 H1835 0.930 . S
C1817 C1820 1.424 . S
C1817 C1822 1.245 . S
C1817 C1823 1.428 . S
C1818 C1821 1.260 . S
C1818 C1822 1.477 . S
C1818 H1836 0.932 . S
C1819 C1820 1.384 . S
C1819 C1821 1.479 . S
C1819 H1837 0.929 . S
C1820 C1817 1.424 . S
C1820 C1819 1.384 . S
C1820 H1838 0.928 . S
C1821 C1818 1.260 . S
C1821 C1819 1.479 . S
C1822 C1817 1.245 . S
C1822 C1818 1.477 . S
C1822 H1839 0.932 . S
C1823 U1806 2.882 . S
C1823 C1817 1.428 . S
C1823 O1826 1.301 . S
C1823 O1827 1.282 . S
O1824 U1806 2.441 . S
O1824 C1810 1.249 . S
O1825 U1806 2.420 . S
O1825 C1810 1.202 . S
O1826 U1806 2.455 . S
O1826 C1823 1.301 . S
O1827 U1806 2.449 . S
O1827 C1823 1.282 . S
H1828 C1801 0.931 . S
H1829 C1803 0.929 . S
H1830 C1804 0.930 . S
H1831 C1805 0.931 . S
H1832 C1812 0.932 . S
H1833 C1813 0.930 . S
H1834 C1814 0.929 . S
H1835 C1816 0.930 . S
H1836 C1818 0.932 . S
H1837 C1819 0.929 . S
H1838 C1820 0.928 . S
H1839 C1822 0.932 . S
C1840 C1841 1.264 . S
C1840 C1845 1.479 . S
C1840 C1850 1.465 . S
C1841 C1840 1.264 . S
C1841 C1843 1.339 . S
C1841 H1868 0.931 . S
C1842 C1843 1.395 . S
C1842 C1844 1.320 . S
C1843 C1841 1.339 . S
C1843 C1842 1.395 . S
C1843 H1869 0.929 . S
C1844 C1842 1.320 . S
C1844 C1845 1.405 . S
C1844 H1870 0.930 . S
C1845 C1840 1.479 . S
C1845 C1844 1.405 . S
C1845 H1871 0.931 . S
U1846 O1847 2.454 . S
U1846 O1848 2.458 . S
U1846 C1849 2.984 . S
U1846 C1850 2.847 . S
U1846 C1863 2.882 . S
U1846 O1864 2.441 . S
U1846 O1865 2.420 . S
U1846 O1866 2.455 . S
U1846 O1867 2.449 . S
O1847 U1846 2.454 . S
O1847 C1849 1.353 . S
O1848 U1846 2.458 . S
O1848 C1849 1.286 . S
C1849 U1846 2.984 . S
C1849 O1847 1.353 . S
C1849 O1848 1.286 . S
C1849 C1851 1.363 . S
C1850 C1840 1.465 . S
C1850 U1846 2.847 . S
C1850 O1864 1.249 . S
C1850 O1865 1.202 . S
C1851 C1849 1.363 . S
C1851 C1853 1.408 . S
C1851 C1856 1.342 . S
C1852 C1853 1.310 . S
C1852 C1855 1.461 . S
C1852 H1872 0.932 . S
C1853 C1851 1.408 . S
C1853 C1852 1.310 . S
C1853 H1873 0.930 . S
C1854 C1855 1.474 . S
C1854 C1856 1.285 . S
C1854 H1874 0.929 . S
C1855 C1852 1.461 . S
C1855 C1854 1.474 . S
C1856 C1851 1.342 . S
C1856 C1854 1.285 . S
C1856 H1875 0.930 . S
C1857 C1860 1.424 . S
C1857 C1862 1.245 . S
C1857 C1863 1.428 . S
C1858 C1861 1.260 . S
C1858 C1862 1.477 . S
C1858 H1876 0.932 . S
C1859 C1860 1.384 . S
C1859 C1861 1.479 . S
C1859 H1877 0.929 . S
C1860 C1857 1.424 . S
C1860 C1859 1.384 . S
C1860 H1878 0.928 . S
C1861 C1858 1.260 . S
C1861 C1859 1.479 . S
C1862 C1857 1.245 . S
C1862 C1858 1.477 . S
C1862 H1879 0.932 . S
C1863 U1846 2.882 . S
C1863 C1857 1.428 . S
C1863 O1866 1.301 . S
C1863 O1867 1.282 . S
O1864 U1846 2.441 . S
O1864 C1850 1.249 . S
O1865 U1846 2.420 . S
O1865 C1850 1.202 . S
O1866 U1846 2.455 . S
O1866 C1863 1.301 . S
O1867 U1846 2.449 . S
O1867 C1863 1.282 . S
H1868 C1841 0.931 . S
H1869 C1843 0.929 . S
H1870 C1844 0.930 . S
H1871 C1845 0.931 . S
H1872 C1852 0.932 . S
H1873 C1853 0.930 . S
H1874 C1854 0.929 . S
H1875 C1856 0.930 . S
H1876 C1858 0.932 . S
H1877 C1859 0.929 . S
H1878 C1860 0.928 . S
H1879 C1862 0.932 . S
C1880 C1881 1.264 . S
C1880 C1885 1.479 . S
C1880 C1890 1.465 . S
C1881 C1880 1.264 . S
C1881 C1883 1.339 . S
C1881 H1908 0.931 . S
C1882 C1883 1.395 . S
C1882 C1884 1.320 . S
C1883 C1881 1.339 . S
C1883 C1882 1.395 . S
C1883 H1909 0.929 . S
C1884 C1882 1.320 . S
C1884 C1885 1.405 . S
C1884 H1910 0.930 . S
C1885 C1880 1.479 . S
C1885 C1884 1.405 . S
C1885 H1911 0.931 . S
U1886 O1887 2.454 . S
U1886 O1888 2.458 . S
U1886 C1889 2.984 . S
U1886 C1890 2.847 . S
U1886 C1903 2.882 . S
U1886 O1904 2.441 . S
U1886 O1905 2.420 . S
U1886 O1906 2.455 . S
U1886 O1907 2.449 . S
O1887 U1886 2.454 . S
O1887 C1889 1.353 . S
O1888 U1886 2.458 . S
O1888 C1889 1.286 . S
C1889 U1886 2.984 . S
C1889 O1887 1.353 . S
C1889 O1888 1.286 . S
C1889 C1891 1.363 . S
C1890 C1880 1.465 . S
C1890 U1886 2.847 . S
C1890 O1904 1.249 . S
C1890 O1905 1.202 . S
C1891 C1889 1.363 . S
C1891 C1893 1.408 . S
C1891 C1896 1.342 . S
C1892 C1893 1.310 . S
C1892 C1895 1.461 . S
C1892 H1912 0.932 . S
C1893 C1891 1.408 . S
C1893 C1892 1.310 . S
C1893 H1913 0.930 . S
C1894 C1895 1.474 . S
C1894 C1896 1.285 . S
C1894 H1914 0.929 . S
C1895 C1892 1.461 . S
C1895 C1894 1.474 . S
C1896 C1891 1.342 . S
C1896 C1894 1.285 . S
C1896 H1915 0.930 . S
C1897 C1900 1.424 . S
C1897 C1902 1.245 . S
C1897 C1903 1.428 . S
C1898 C1901 1.260 . S
C1898 C1902 1.477 . S
C1898 H1916 0.932 . S
C1899 C1900 1.384 . S
C1899 C1901 1.479 . S
C1899 H1917 0.929 . S
C1900 C1897 1.424 . S
C1900 C1899 1.384 . S
C1900 H1918 0.928 . S
C1901 C1898 1.260 . S
C1901 C1899 1.479 . S
C1902 C1897 1.245 . S
C1902 C1898 1.477 . S
C1902 H1919 0.932 . S
C1903 U1886 2.882 . S
C1903 C1897 1.428 . S
C1903 O1906 1.301 . S
C1903 O1907 1.282 . S
O1904 U1886 2.441 . S
O1904 C1890 1.249 . S
O1905 U1886 2.420 . S
O1905 C1890 1.202 . S
O1906 U1886 2.455 . S
O1906 C1903 1.301 . S
O1907 U1886 2.449 . S
O1907 C1903 1.282 . S
H1908 C1881 0.931 . S
H1909 C1883 0.929 . S
H1910 C1884 0.930 . S
H1911 C1885 0.931 . S
H1912 C1892 0.932 . S
H1913 C1893 0.930 . S
H1914 C1894 0.929 . S
H1915 C1896 0.930 . S
H1916 C1898 0.932 . S
H1917 C1899 0.929 . S
H1918 C1900 0.928 . S
H1919 C1902 0.932 . S
P1920 O1931 1.490 . S
P1920 C1934 1.812 . S
P1920 C1940 1.803 . S
P1920 C1946 1.819 . S
H1921 C1935 0.941 . S
H1922 C1936 0.939 . S
H1923 C1938 0.940 . S
H1924 C1939 0.940 . S
H1925 C1941 0.939 . S
H1926 C1942 0.942 . S
H1927 C1944 0.940 . S
H1928 C1945 0.939 . S
H1929 C1947 0.941 . S
H1930 C1951 0.939 . S
O1931 P1920 1.490 . S
H1932 C1948 0.939 . S
H1933 C1950 0.940 . S
C1934 P1920 1.812 . S
C1934 C1935 1.389 . S
C1934 C1939 1.391 . S
C1935 H1921 0.941 . S
C1935 C1934 1.389 . S
C1935 C1936 1.397 . S
C1936 H1922 0.939 . S
C1936 C1935 1.397 . S
C1936 C1937 1.378 . S
C1937 C1936 1.378 . S
C1937 C1938 1.378 . S
C1938 H1923 0.940 . S
C1938 C1937 1.378 . S
C1938 C1939 1.396 . S
C1939 H1924 0.940 . S
C1939 C1934 1.391 . S
C1939 C1938 1.396 . S
C1940 P1920 1.803 . S
C1940 C1941 1.378 . S
C1940 C1945 1.400 . S
C1941 H1925 0.939 . S
C1941 C1940 1.378 . S
C1941 C1942 1.361 . S
C1942 H1926 0.942 . S
C1942 C1941 1.361 . S
C1942 C1943 1.369 . S
C1943 C1942 1.369 . S
C1943 C1944 1.404 . S
C1944 H1927 0.940 . S
C1944 C1943 1.404 . S
C1944 C1945 1.389 . S
C1945 H1928 0.939 . S
C1945 C1940 1.400 . S
C1945 C1944 1.389 . S
C1946 P1920 1.819 . S
C1946 C1947 1.391 . S
C1946 C1951 1.391 . S
C1947 H1929 0.941 . S
C1947 C1946 1.391 . S
C1947 C1948 1.396 . S
C1948 H1932 0.939 . S
C1948 C1947 1.396 . S
C1948 C1949 1.397 . S
C1949 C1948 1.397 . S
C1949 C1950 1.385 . S
C1950 H1933 0.940 . S
C1950 C1949 1.385 . S
C1950 C1951 1.388 . S
C1951 H1930 0.939 . S
C1951 C1946 1.391 . S
C1951 C1950 1.388 . S
P1952 O1963 1.490 . S
P1952 C1966 1.812 . S
P1952 C1972 1.803 . S
P1952 C1978 1.819 . S
H1953 C1967 0.941 . S
H1954 C1968 0.939 . S
H1955 C1970 0.940 . S
H1956 C1971 0.940 . S
H1957 C1973 0.939 . S
H1958 C1974 0.942 . S
H1959 C1976 0.940 . S
H1960 C1977 0.939 . S
H1961 C1979 0.941 . S
H1962 C1983 0.939 . S
O1963 P1952 1.490 . S
H1964 C1980 0.939 . S
H1965 C1982 0.940 . S
C1966 P1952 1.812 . S
C1966 C1967 1.389 . S
C1966 C1971 1.391 . S
C1967 H1953 0.941 . S
C1967 C1966 1.389 . S
C1967 C1968 1.397 . S
C1968 H1954 0.939 . S
C1968 C1967 1.397 . S
C1968 C1969 1.378 . S
C1969 C1968 1.378 . S
C1969 C1970 1.378 . S
C1970 H1955 0.940 . S
C1970 C1969 1.378 . S
C1970 C1971 1.396 . S
C1971 H1956 0.940 . S
C1971 C1966 1.391 . S
C1971 C1970 1.396 . S
C1972 P1952 1.803 . S
C1972 C1973 1.378 . S
C1972 C1977 1.400 . S
C1973 H1957 0.939 . S
C1973 C1972 1.378 . S
C1973 C1974 1.361 . S
C1974 H1958 0.942 . S
C1974 C1973 1.361 . S
C1974 C1975 1.369 . S
C1975 C1974 1.369 . S
C1975 C1976 1.404 . S
C1976 H1959 0.940 . S
C1976 C1975 1.404 . S
C1976 C1977 1.389 . S
C1977 H1960 0.939 . S
C1977 C1972 1.400 . S
C1977 C1976 1.389 . S
C1978 P1952 1.819 . S
C1978 C1979 1.391 . S
C1978 C1983 1.391 . S
C1979 H1961 0.941 . S
C1979 C1978 1.391 . S
C1979 C1980 1.396 . S
C1980 H1964 0.939 . S
C1980 C1979 1.396 . S
C1980 C1981 1.397 . S
C1981 C1980 1.397 . S
C1981 C1982 1.385 . S
C1982 H1965 0.940 . S
C1982 C1981 1.385 . S
C1982 C1983 1.388 . S
C1983 H1962 0.939 . S
C1983 C1978 1.391 . S
C1983 C1982 1.388 . S
P1984 O1995 1.490 . S
P1984 C1998 1.812 . S
P1984 C2004 1.803 . S
P1984 C2010 1.819 . S
H1985 C1999 0.941 . S
H1986 C2000 0.939 . S
H1987 C2002 0.940 . S
H1988 C2003 0.940 . S
H1989 C2005 0.939 . S
H1990 C2006 0.942 . S
H1991 C2008 0.940 . S
H1992 C2009 0.939 . S
H1993 C2011 0.941 . S
H1994 C2015 0.939 . S
O1995 P1984 1.490 . S
H1996 C2012 0.939 . S
H1997 C2014 0.940 . S
C1998 P1984 1.812 . S
C1998 C1999 1.389 . S
C1998 C2003 1.391 . S
C1999 H1985 0.941 . S
C1999 C1998 1.389 . S
C1999 C2000 1.397 . S
C2000 H1986 0.939 . S
C2000 C1999 1.397 . S
C2000 C2001 1.378 . S
C2001 C2000 1.378 . S
C2001 C2002 1.378 . S
C2002 H1987 0.940 . S
C2002 C2001 1.378 . S
C2002 C2003 1.396 . S
C2003 H1988 0.940 . S
C2003 C1998 1.391 . S
C2003 C2002 1.396 . S
C2004 P1984 1.803 . S
C2004 C2005 1.378 . S
C2004 C2009 1.400 . S
C2005 H1989 0.939 . S
C2005 C2004 1.378 . S
C2005 C2006 1.361 . S
C2006 H1990 0.942 . S
C2006 C2005 1.361 . S
C2006 C2007 1.369 . S
C2007 C2006 1.369 . S
C2007 C2008 1.404 . S
C2008 H1991 0.940 . S
C2008 C2007 1.404 . S
C2008 C2009 1.389 . S
C2009 H1992 0.939 . S
C2009 C2004 1.400 . S
C2009 C2008 1.389 . S
C2010 P1984 1.819 . S
C2010 C2011 1.391 . S
C2010 C2015 1.391 . S
C2011 H1993 0.941 . S
C2011 C2010 1.391 . S
C2011 C2012 1.396 . S
C2012 H1996 0.939 . S
C2012 C2011 1.396 . S
C2012 C2013 1.397 . S
C2013 C2012 1.397 . S
C2013 C2014 1.385 . S
C2014 H1997 0.940 . S
C2014 C2013 1.385 . S
C2014 C2015 1.388 . S
C2015 H1994 0.939 . S
C2015 C2010 1.391 . S
C2015 C2014 1.388 . S
P2016 O2027 1.490 . S
P2016 C2030 1.812 . S
P2016 C2036 1.803 . S
P2016 C2042 1.819 . S
H2017 C2031 0.941 . S
H2018 C2032 0.939 . S
H2019 C2034 0.940 . S
H2020 C2035 0.940 . S
H2021 C2037 0.939 . S
H2022 C2038 0.942 . S
H2023 C2040 0.940 . S
H2024 C2041 0.939 . S
H2025 C2043 0.941 . S
H2026 C2047 0.939 . S
O2027 P2016 1.490 . S
H2028 C2044 0.939 . S
H2029 C2046 0.940 . S
C2030 P2016 1.812 . S
C2030 C2031 1.389 . S
C2030 C2035 1.391 . S
C2031 H2017 0.941 . S
C2031 C2030 1.389 . S
C2031 C2032 1.397 . S
C2032 H2018 0.939 . S
C2032 C2031 1.397 . S
C2032 C2033 1.378 . S
C2033 C2032 1.378 . S
C2033 C2034 1.378 . S
C2034 H2019 0.940 . S
C2034 C2033 1.378 . S
C2034 C2035 1.396 . S
C2035 H2020 0.940 . S
C2035 C2030 1.391 . S
C2035 C2034 1.396 . S
C2036 P2016 1.803 . S
C2036 C2037 1.378 . S
C2036 C2041 1.400 . S
C2037 H2021 0.939 . S
C2037 C2036 1.378 . S
C2037 C2038 1.361 . S
C2038 H2022 0.942 . S
C2038 C2037 1.361 . S
C2038 C2039 1.369 . S
C2039 C2038 1.369 . S
C2039 C2040 1.404 . S
C2040 H2023 0.940 . S
C2040 C2039 1.404 . S
C2040 C2041 1.389 . S
C2041 H2024 0.939 . S
C2041 C2036 1.400 . S
C2041 C2040 1.389 . S
C2042 P2016 1.819 . S
C2042 C2043 1.391 . S
C2042 C2047 1.391 . S
C2043 H2025 0.941 . S
C2043 C2042 1.391 . S
C2043 C2044 1.396 . S
C2044 H2028 0.939 . S
C2044 C2043 1.396 . S
C2044 C2045 1.397 . S
C2045 C2044 1.397 . S
C2045 C2046 1.385 . S
C2046 H2029 0.940 . S
C2046 C2045 1.385 . S
C2046 C2047 1.388 . S
C2047 H2026 0.939 . S
C2047 C2042 1.391 . S
C2047 C2046 1.388 . S
P2048 O2059 1.490 . S
P2048 C2062 1.812 . S
P2048 C2068 1.803 . S
P2048 C2074 1.819 . S
H2049 C2063 0.941 . S
H2050 C2064 0.939 . S
H2051 C2066 0.940 . S
H2052 C2067 0.940 . S
H2053 C2069 0.939 . S
H2054 C2070 0.942 . S
H2055 C2072 0.940 . S
H2056 C2073 0.939 . S
H2057 C2075 0.941 . S
H2058 C2079 0.939 . S
O2059 P2048 1.490 . S
H2060 C2076 0.939 . S
H2061 C2078 0.940 . S
C2062 P2048 1.812 . S
C2062 C2063 1.389 . S
C2062 C2067 1.391 . S
C2063 H2049 0.941 . S
C2063 C2062 1.389 . S
C2063 C2064 1.397 . S
C2064 H2050 0.939 . S
C2064 C2063 1.397 . S
C2064 C2065 1.378 . S
C2065 C2064 1.378 . S
C2065 C2066 1.378 . S
C2066 H2051 0.940 . S
C2066 C2065 1.378 . S
C2066 C2067 1.396 . S
C2067 H2052 0.940 . S
C2067 C2062 1.391 . S
C2067 C2066 1.396 . S
C2068 P2048 1.803 . S
C2068 C2069 1.378 . S
C2068 C2073 1.400 . S
C2069 H2053 0.939 . S
C2069 C2068 1.378 . S
C2069 C2070 1.361 . S
C2070 H2054 0.942 . S
C2070 C2069 1.361 . S
C2070 C2071 1.369 . S
C2071 C2070 1.369 . S
C2071 C2072 1.404 . S
C2072 H2055 0.940 . S
C2072 C2071 1.404 . S
C2072 C2073 1.389 . S
C2073 H2056 0.939 . S
C2073 C2068 1.400 . S
C2073 C2072 1.389 . S
C2074 P2048 1.819 . S
C2074 C2075 1.391 . S
C2074 C2079 1.391 . S
C2075 H2057 0.941 . S
C2075 C2074 1.391 . S
C2075 C2076 1.396 . S
C2076 H2060 0.939 . S
C2076 C2075 1.396 . S
C2076 C2077 1.397 . S
C2077 C2076 1.397 . S
C2077 C2078 1.385 . S
C2078 H2061 0.940 . S
C2078 C2077 1.385 . S
C2078 C2079 1.388 . S
C2079 H2058 0.939 . S
C2079 C2074 1.391 . S
C2079 C2078 1.388 . S
P2080 O2091 1.490 . S
P2080 C2094 1.812 . S
P2080 C2100 1.803 . S
P2080 C2106 1.819 . S
H2081 C2095 0.941 . S
H2082 C2096 0.939 . S
H2083 C2098 0.940 . S
H2084 C2099 0.940 . S
H2085 C2101 0.939 . S
H2086 C2102 0.942 . S
H2087 C2104 0.940 . S
H2088 C2105 0.939 . S
H2089 C2107 0.941 . S
H2090 C2111 0.939 . S
O2091 P2080 1.490 . S
H2092 C2108 0.939 . S
H2093 C2110 0.940 . S
C2094 P2080 1.812 . S
C2094 C2095 1.389 . S
C2094 C2099 1.391 . S
C2095 H2081 0.941 . S
C2095 C2094 1.389 . S
C2095 C2096 1.397 . S
C2096 H2082 0.939 . S
C2096 C2095 1.397 . S
C2096 C2097 1.378 . S
C2097 C2096 1.378 . S
C2097 C2098 1.378 . S
C2098 H2083 0.940 . S
C2098 C2097 1.378 . S
C2098 C2099 1.396 . S
C2099 H2084 0.940 . S
C2099 C2094 1.391 . S
C2099 C2098 1.396 . S
C2100 P2080 1.803 . S
C2100 C2101 1.378 . S
C2100 C2105 1.400 . S
C2101 H2085 0.939 . S
C2101 C2100 1.378 . S
C2101 C2102 1.361 . S
C2102 H2086 0.942 . S
C2102 C2101 1.361 . S
C2102 C2103 1.369 . S
C2103 C2102 1.369 . S
C2103 C2104 1.404 . S
C2104 H2087 0.940 . S
C2104 C2103 1.404 . S
C2104 C2105 1.389 . S
C2105 H2088 0.939 . S
C2105 C2100 1.400 . S
C2105 C2104 1.389 . S
C2106 P2080 1.819 . S
C2106 C2107 1.391 . S
C2106 C2111 1.391 . S
C2107 H2089 0.941 . S
C2107 C2106 1.391 . S
C2107 C2108 1.396 . S
C2108 H2092 0.939 . S
C2108 C2107 1.396 . S
C2108 C2109 1.397 . S
C2109 C2108 1.397 . S
C2109 C2110 1.385 . S
C2110 H2093 0.940 . S
C2110 C2109 1.385 . S
C2110 C2111 1.388 . S
C2111 H2090 0.939 . S
C2111 C2106 1.391 . S
C2111 C2110 1.388 . S
P2112 O2123 1.490 . S
P2112 C2126 1.812 . S
P2112 C2132 1.803 . S
P2112 C2138 1.819 . S
H2113 C2127 0.941 . S
H2114 C2128 0.939 . S
H2115 C2130 0.940 . S
H2116 C2131 0.940 . S
H2117 C2133 0.939 . S
H2118 C2134 0.942 . S
H2119 C2136 0.940 . S
H2120 C2137 0.939 . S
H2121 C2139 0.941 . S
H2122 C2143 0.939 . S
O2123 P2112 1.490 . S
H2124 C2140 0.939 . S
H2125 C2142 0.940 . S
C2126 P2112 1.812 . S
C2126 C2127 1.389 . S
C2126 C2131 1.391 . S
C2127 H2113 0.941 . S
C2127 C2126 1.389 . S
C2127 C2128 1.397 . S
C2128 H2114 0.939 . S
C2128 C2127 1.397 . S
C2128 C2129 1.378 . S
C2129 C2128 1.378 . S
C2129 C2130 1.378 . S
C2130 H2115 0.940 . S
C2130 C2129 1.378 . S
C2130 C2131 1.396 . S
C2131 H2116 0.940 . S
C2131 C2126 1.391 . S
C2131 C2130 1.396 . S
C2132 P2112 1.803 . S
C2132 C2133 1.378 . S
C2132 C2137 1.400 . S
C2133 H2117 0.939 . S
C2133 C2132 1.378 . S
C2133 C2134 1.361 . S
C2134 H2118 0.942 . S
C2134 C2133 1.361 . S
C2134 C2135 1.369 . S
C2135 C2134 1.369 . S
C2135 C2136 1.404 . S
C2136 H2119 0.940 . S
C2136 C2135 1.404 . S
C2136 C2137 1.389 . S
C2137 H2120 0.939 . S
C2137 C2132 1.400 . S
C2137 C2136 1.389 . S
C2138 P2112 1.819 . S
C2138 C2139 1.391 . S
C2138 C2143 1.391 . S
C2139 H2121 0.941 . S
C2139 C2138 1.391 . S
C2139 C2140 1.396 . S
C2140 H2124 0.939 . S
C2140 C2139 1.396 . S
C2140 C2141 1.397 . S
C2141 C2140 1.397 . S
C2141 C2142 1.385 . S
C2142 H2125 0.940 . S
C2142 C2141 1.385 . S
C2142 C2143 1.388 . S
C2143 H2122 0.939 . S
C2143 C2138 1.391 . S
C2143 C2142 1.388 . S
P2144 O2155 1.490 . S
P2144 C2158 1.812 . S
P2144 C2164 1.803 . S
P2144 C2170 1.819 . S
H2145 C2159 0.941 . S
H2146 C2160 0.939 . S
H2147 C2162 0.940 . S
H2148 C2163 0.940 . S
H2149 C2165 0.939 . S
H2150 C2166 0.942 . S
H2151 C2168 0.940 . S
H2152 C2169 0.939 . S
H2153 C2171 0.941 . S
H2154 C2175 0.939 . S
O2155 P2144 1.490 . S
H2156 C2172 0.939 . S
H2157 C2174 0.940 . S
C2158 P2144 1.812 . S
C2158 C2159 1.389 . S
C2158 C2163 1.391 . S
C2159 H2145 0.941 . S
C2159 C2158 1.389 . S
C2159 C2160 1.397 . S
C2160 H2146 0.939 . S
C2160 C2159 1.397 . S
C2160 C2161 1.378 . S
C2161 C2160 1.378 . S
C2161 C2162 1.378 . S
C2162 H2147 0.940 . S
C2162 C2161 1.378 . S
C2162 C2163 1.396 . S
C2163 H2148 0.940 . S
C2163 C2158 1.391 . S
C2163 C2162 1.396 . S
C2164 P2144 1.803 . S
C2164 C2165 1.378 . S
C2164 C2169 1.400 . S
C2165 H2149 0.939 . S
C2165 C2164 1.378 . S
C2165 C2166 1.361 . S
C2166 H2150 0.942 . S
C2166 C2165 1.361 . S
C2166 C2167 1.369 . S
C2167 C2166 1.369 . S
C2167 C2168 1.404 . S
C2168 H2151 0.940 . S
C2168 C2167 1.404 . S
C2168 C2169 1.389 . S
C2169 H2152 0.939 . S
C2169 C2164 1.400 . S
C2169 C2168 1.389 . S
C2170 P2144 1.819 . S
C2170 C2171 1.391 . S
C2170 C2175 1.391 . S
C2171 H2153 0.941 . S
C2171 C2170 1.391 . S
C2171 C2172 1.396 . S
C2172 H2156 0.939 . S
C2172 C2171 1.396 . S
C2172 C2173 1.397 . S
C2173 C2172 1.397 . S
C2173 C2174 1.385 . S
C2174 H2157 0.940 . S
C2174 C2173 1.385 . S
C2174 C2175 1.388 . S
C2175 H2154 0.939 . S
C2175 C2170 1.391 . S
C2175 C2174 1.388 . S
P2176 O2187 1.490 . S
P2176 C2190 1.812 . S
P2176 C2196 1.803 . S
P2176 C2202 1.819 . S
H2177 C2191 0.941 . S
H2178 C2192 0.939 . S
H2179 C2194 0.940 . S
H2180 C2195 0.940 . S
H2181 C2197 0.939 . S
H2182 C2198 0.942 . S
H2183 C2200 0.940 . S
H2184 C2201 0.939 . S
H2185 C2203 0.941 . S
H2186 C2207 0.939 . S
O2187 P2176 1.490 . S
H2188 C2204 0.939 . S
H2189 C2206 0.940 . S
C2190 P2176 1.812 . S
C2190 C2191 1.389 . S
C2190 C2195 1.391 . S
C2191 H2177 0.941 . S
C2191 C2190 1.389 . S
C2191 C2192 1.397 . S
C2192 H2178 0.939 . S
C2192 C2191 1.397 . S
C2192 C2193 1.378 . S
C2193 C2192 1.378 . S
C2193 C2194 1.378 . S
C2194 H2179 0.940 . S
C2194 C2193 1.378 . S
C2194 C2195 1.396 . S
C2195 H2180 0.940 . S
C2195 C2190 1.391 . S
C2195 C2194 1.396 . S
C2196 P2176 1.803 . S
C2196 C2197 1.378 . S
C2196 C2201 1.400 . S
C2197 H2181 0.939 . S
C2197 C2196 1.378 . S
C2197 C2198 1.361 . S
C2198 H2182 0.942 . S
C2198 C2197 1.361 . S
C2198 C2199 1.369 . S
C2199 C2198 1.369 . S
C2199 C2200 1.404 . S
C2200 H2183 0.940 . S
C2200 C2199 1.404 . S
C2200 C2201 1.389 . S
C2201 H2184 0.939 . S
C2201 C2196 1.400 . S
C2201 C2200 1.389 . S
C2202 P2176 1.819 . S
C2202 C2203 1.391 . S
C2202 C2207 1.391 . S
C2203 H2185 0.941 . S
C2203 C2202 1.391 . S
C2203 C2204 1.396 . S
C2204 H2188 0.939 . S
C2204 C2203 1.396 . S
C2204 C2205 1.397 . S
C2205 C2204 1.397 . S
C2205 C2206 1.385 . S
C2206 H2189 0.940 . S
C2206 C2205 1.385 . S
C2206 C2207 1.388 . S
C2207 H2186 0.939 . S
C2207 C2202 1.391 . S
C2207 C2206 1.388 . S
P2208 O2219 1.490 . S
P2208 C2222 1.812 . S
P2208 C2228 1.803 . S
P2208 C2234 1.819 . S
H2209 C2223 0.941 . S
H2210 C2224 0.939 . S
H2211 C2226 0.940 . S
H2212 C2227 0.940 . S
H2213 C2229 0.939 . S
H2214 C2230 0.942 . S
H2215 C2232 0.940 . S
H2216 C2233 0.939 . S
H2217 C2235 0.941 . S
H2218 C2239 0.939 . S
O2219 P2208 1.490 . S
H2220 C2236 0.939 . S
H2221 C2238 0.940 . S
C2222 P2208 1.812 . S
C2222 C2223 1.389 . S
C2222 C2227 1.391 . S
C2223 H2209 0.941 . S
C2223 C2222 1.389 . S
C2223 C2224 1.397 . S
C2224 H2210 0.939 . S
C2224 C2223 1.397 . S
C2224 C2225 1.378 . S
C2225 C2224 1.378 . S
C2225 C2226 1.378 . S
C2226 H2211 0.940 . S
C2226 C2225 1.378 . S
C2226 C2227 1.396 . S
C2227 H2212 0.940 . S
C2227 C2222 1.391 . S
C2227 C2226 1.396 . S
C2228 P2208 1.803 . S
C2228 C2229 1.378 . S
C2228 C2233 1.400 . S
C2229 H2213 0.939 . S
C2229 C2228 1.378 . S
C2229 C2230 1.361 . S
C2230 H2214 0.942 . S
C2230 C2229 1.361 . S
C2230 C2231 1.369 . S
C2231 C2230 1.369 . S
C2231 C2232 1.404 . S
C2232 H2215 0.940 . S
C2232 C2231 1.404 . S
C2232 C2233 1.389 . S
C2233 H2216 0.939 . S
C2233 C2228 1.400 . S
C2233 C2232 1.389 . S
C2234 P2208 1.819 . S
C2234 C2235 1.391 . S
C2234 C2239 1.391 . S
C2235 H2217 0.941 . S
C2235 C2234 1.391 . S
C2235 C2236 1.396 . S
C2236 H2220 0.939 . S
C2236 C2235 1.396 . S
C2236 C2237 1.397 . S
C2237 C2236 1.397 . S
C2237 C2238 1.385 . S
C2238 H2221 0.940 . S
C2238 C2237 1.385 . S
C2238 C2239 1.388 . S
C2239 H2218 0.939 . S
C2239 C2234 1.391 . S
C2239 C2238 1.388 . S
P2240 O2251 1.490 . S
P2240 C2254 1.812 . S
P2240 C2260 1.803 . S
P2240 C2266 1.819 . S
H2241 C2255 0.941 . S
H2242 C2256 0.939 . S
H2243 C2258 0.940 . S
H2244 C2259 0.940 . S
H2245 C2261 0.939 . S
H2246 C2262 0.942 . S
H2247 C2264 0.940 . S
H2248 C2265 0.939 . S
H2249 C2267 0.941 . S
H2250 C2271 0.939 . S
O2251 P2240 1.490 . S
H2252 C2268 0.939 . S
H2253 C2270 0.940 . S
C2254 P2240 1.812 . S
C2254 C2255 1.389 . S
C2254 C2259 1.391 . S
C2255 H2241 0.941 . S
C2255 C2254 1.389 . S
C2255 C2256 1.397 . S
C2256 H2242 0.939 . S
C2256 C2255 1.397 . S
C2256 C2257 1.378 . S
C2257 C2256 1.378 . S
C2257 C2258 1.378 . S
C2258 H2243 0.940 . S
C2258 C2257 1.378 . S
C2258 C2259 1.396 . S
C2259 H2244 0.940 . S
C2259 C2254 1.391 . S
C2259 C2258 1.396 . S
C2260 P2240 1.803 . S
C2260 C2261 1.378 . S
C2260 C2265 1.400 . S
C2261 H2245 0.939 . S
C2261 C2260 1.378 . S
C2261 C2262 1.361 . S
C2262 H2246 0.942 . S
C2262 C2261 1.361 . S
C2262 C2263 1.369 . S
C2263 C2262 1.369 . S
C2263 C2264 1.404 . S
C2264 H2247 0.940 . S
C2264 C2263 1.404 . S
C2264 C2265 1.389 . S
C2265 H2248 0.939 . S
C2265 C2260 1.400 . S
C2265 C2264 1.389 . S
C2266 P2240 1.819 . S
C2266 C2267 1.391 . S
C2266 C2271 1.391 . S
C2267 H2249 0.941 . S
C2267 C2266 1.391 . S
C2267 C2268 1.396 . S
C2268 H2252 0.939 . S
C2268 C2267 1.396 . S
C2268 C2269 1.397 . S
C2269 C2268 1.397 . S
C2269 C2270 1.385 . S
C2270 H2253 0.940 . S
C2270 C2269 1.385 . S
C2270 C2271 1.388 . S
C2271 H2250 0.939 . S
C2271 C2266 1.391 . S
C2271 C2270 1.388 . S
P2272 O2283 1.490 . S
P2272 C2286 1.812 . S
P2272 C2292 1.803 . S
P2272 C2298 1.819 . S
H2273 C2287 0.941 . S
H2274 C2288 0.939 . S
H2275 C2290 0.940 . S
H2276 C2291 0.940 . S
H2277 C2293 0.939 . S
H2278 C2294 0.942 . S
H2279 C2296 0.940 . S
H2280 C2297 0.939 . S
H2281 C2299 0.941 . S
H2282 C2303 0.939 . S
O2283 P2272 1.490 . S
H2284 C2300 0.939 . S
H2285 C2302 0.940 . S
C2286 P2272 1.812 . S
C2286 C2287 1.389 . S
C2286 C2291 1.391 . S
C2287 H2273 0.941 . S
C2287 C2286 1.389 . S
C2287 C2288 1.397 . S
C2288 H2274 0.939 . S
C2288 C2287 1.397 . S
C2288 C2289 1.378 . S
C2289 C2288 1.378 . S
C2289 C2290 1.378 . S
C2290 H2275 0.940 . S
C2290 C2289 1.378 . S
C2290 C2291 1.396 . S
C2291 H2276 0.940 . S
C2291 C2286 1.391 . S
C2291 C2290 1.396 . S
C2292 P2272 1.803 . S
C2292 C2293 1.378 . S
C2292 C2297 1.400 . S
C2293 H2277 0.939 . S
C2293 C2292 1.378 . S
C2293 C2294 1.361 . S
C2294 H2278 0.942 . S
C2294 C2293 1.361 . S
C2294 C2295 1.369 . S
C2295 C2294 1.369 . S
C2295 C2296 1.404 . S
C2296 H2279 0.940 . S
C2296 C2295 1.404 . S
C2296 C2297 1.389 . S
C2297 H2280 0.939 . S
C2297 C2292 1.400 . S
C2297 C2296 1.389 . S
C2298 P2272 1.819 . S
C2298 C2299 1.391 . S
C2298 C2303 1.391 . S
C2299 H2281 0.941 . S
C2299 C2298 1.391 . S
C2299 C2300 1.396 . S
C2300 H2284 0.939 . S
C2300 C2299 1.396 . S
C2300 C2301 1.397 . S
C2301 C2300 1.397 . S
C2301 C2302 1.385 . S
C2302 H2285 0.940 . S
C2302 C2301 1.385 . S
C2302 C2303 1.388 . S
C2303 H2282 0.939 . S
C2303 C2298 1.391 . S
C2303 C2302 1.388 . S
P2304 O2315 1.490 . S
P2304 C2318 1.812 . S
P2304 C2324 1.803 . S
P2304 C2330 1.819 . S
H2305 C2319 0.941 . S
H2306 C2320 0.939 . S
H2307 C2322 0.940 . S
H2308 C2323 0.940 . S
H2309 C2325 0.939 . S
H2310 C2326 0.942 . S
H2311 C2328 0.940 . S
H2312 C2329 0.939 . S
H2313 C2331 0.941 . S
H2314 C2335 0.939 . S
O2315 P2304 1.490 . S
H2316 C2332 0.939 . S
H2317 C2334 0.940 . S
C2318 P2304 1.812 . S
C2318 C2319 1.389 . S
C2318 C2323 1.391 . S
C2319 H2305 0.941 . S
C2319 C2318 1.389 . S
C2319 C2320 1.397 . S
C2320 H2306 0.939 . S
C2320 C2319 1.397 . S
C2320 C2321 1.378 . S
C2321 C2320 1.378 . S
C2321 C2322 1.378 . S
C2322 H2307 0.940 . S
C2322 C2321 1.378 . S
C2322 C2323 1.396 . S
C2323 H2308 0.940 . S
C2323 C2318 1.391 . S
C2323 C2322 1.396 . S
C2324 P2304 1.803 . S
C2324 C2325 1.378 . S
C2324 C2329 1.400 . S
C2325 H2309 0.939 . S
C2325 C2324 1.378 . S
C2325 C2326 1.361 . S
C2326 H2310 0.942 . S
C2326 C2325 1.361 . S
C2326 C2327 1.369 . S
C2327 C2326 1.369 . S
C2327 C2328 1.404 . S
C2328 H2311 0.940 . S
C2328 C2327 1.404 . S
C2328 C2329 1.389 . S
C2329 H2312 0.939 . S
C2329 C2324 1.400 . S
C2329 C2328 1.389 . S
C2330 P2304 1.819 . S
C2330 C2331 1.391 . S
C2330 C2335 1.391 . S
C2331 H2313 0.941 . S
C2331 C2330 1.391 . S
C2331 C2332 1.396 . S
C2332 H2316 0.939 . S
C2332 C2331 1.396 . S
C2332 C2333 1.397 . S
C2333 C2332 1.397 . S
C2333 C2334 1.385 . S
C2334 H2317 0.940 . S
C2334 C2333 1.385 . S
C2334 C2335 1.388 . S
C2335 H2314 0.939 . S
C2335 C2330 1.391 . S
C2335 C2334 1.388 . S
P2336 O2347 1.490 . S
P2336 C2350 1.812 . S
P2336 C2356 1.803 . S
P2336 C2362 1.819 . S
H2337 C2351 0.941 . S
H2338 C2352 0.939 . S
H2339 C2354 0.940 . S
H2340 C2355 0.940 . S
H2341 C2357 0.939 . S
H2342 C2358 0.942 . S
H2343 C2360 0.940 . S
H2344 C2361 0.939 . S
H2345 C2363 0.941 . S
H2346 C2367 0.939 . S
O2347 P2336 1.490 . S
H2348 C2364 0.939 . S
H2349 C2366 0.940 . S
C2350 P2336 1.812 . S
C2350 C2351 1.389 . S
C2350 C2355 1.391 . S
C2351 H2337 0.941 . S
C2351 C2350 1.389 . S
C2351 C2352 1.397 . S
C2352 H2338 0.939 . S
C2352 C2351 1.397 . S
C2352 C2353 1.378 . S
C2353 C2352 1.378 . S
C2353 C2354 1.378 . S
C2354 H2339 0.940 . S
C2354 C2353 1.378 . S
C2354 C2355 1.396 . S
C2355 H2340 0.940 . S
C2355 C2350 1.391 . S
C2355 C2354 1.396 . S
C2356 P2336 1.803 . S
C2356 C2357 1.378 . S
C2356 C2361 1.400 . S
C2357 H2341 0.939 . S
C2357 C2356 1.378 . S
C2357 C2358 1.361 . S
C2358 H2342 0.942 . S
C2358 C2357 1.361 . S
C2358 C2359 1.369 . S
C2359 C2358 1.369 . S
C2359 C2360 1.404 . S
C2360 H2343 0.940 . S
C2360 C2359 1.404 . S
C2360 C2361 1.389 . S
C2361 H2344 0.939 . S
C2361 C2356 1.400 . S
C2361 C2360 1.389 . S
C2362 P2336 1.819 . S
C2362 C2363 1.391 . S
C2362 C2367 1.391 . S
C2363 H2345 0.941 . S
C2363 C2362 1.391 . S
C2363 C2364 1.396 . S
C2364 H2348 0.939 . S
C2364 C2363 1.396 . S
C2364 C2365 1.397 . S
C2365 C2364 1.397 . S
C2365 C2366 1.385 . S
C2366 H2349 0.940 . S
C2366 C2365 1.385 . S
C2366 C2367 1.388 . S
C2367 H2346 0.939 . S
C2367 C2362 1.391 . S
C2367 C2366 1.388 . S
P2368 O2379 1.490 . S
P2368 C2382 1.812 . S
P2368 C2388 1.803 . S
P2368 C2394 1.819 . S
H2369 C2383 0.941 . S
H2370 C2384 0.939 . S
H2371 C2386 0.940 . S
H2372 C2387 0.940 . S
H2373 C2389 0.939 . S
H2374 C2390 0.942 . S
H2375 C2392 0.940 . S
H2376 C2393 0.939 . S
H2377 C2395 0.941 . S
H2378 C2399 0.939 . S
O2379 P2368 1.490 . S
H2380 C2396 0.939 . S
H2381 C2398 0.940 . S
C2382 P2368 1.812 . S
C2382 C2383 1.389 . S
C2382 C2387 1.391 . S
C2383 H2369 0.941 . S
C2383 C2382 1.389 . S
C2383 C2384 1.397 . S
C2384 H2370 0.939 . S
C2384 C2383 1.397 . S
C2384 C2385 1.378 . S
C2385 C2384 1.378 . S
C2385 C2386 1.378 . S
C2386 H2371 0.940 . S
C2386 C2385 1.378 . S
C2386 C2387 1.396 . S
C2387 H2372 0.940 . S
C2387 C2382 1.391 . S
C2387 C2386 1.396 . S
C2388 P2368 1.803 . S
C2388 C2389 1.378 . S
C2388 C2393 1.400 . S
C2389 H2373 0.939 . S
C2389 C2388 1.378 . S
C2389 C2390 1.361 . S
C2390 H2374 0.942 . S
C2390 C2389 1.361 . S
C2390 C2391 1.369 . S
C2391 C2390 1.369 . S
C2391 C2392 1.404 . S
C2392 H2375 0.940 . S
C2392 C2391 1.404 . S
C2392 C2393 1.389 . S
C2393 H2376 0.939 . S
C2393 C2388 1.400 . S
C2393 C2392 1.389 . S
C2394 P2368 1.819 . S
C2394 C2395 1.391 . S
C2394 C2399 1.391 . S
C2395 H2377 0.941 . S
C2395 C2394 1.391 . S
C2395 C2396 1.396 . S
C2396 H2380 0.939 . S
C2396 C2395 1.396 . S
C2396 C2397 1.397 . S
C2397 C2396 1.397 . S
C2397 C2398 1.385 . S
C2398 H2381 0.940 . S
C2398 C2397 1.385 . S
C2398 C2399 1.388 . S
C2399 H2378 0.939 . S
C2399 C2394 1.391 . S
C2399 C2398 1.388 . S
P2400 O2411 1.490 . S
P2400 C2414 1.812 . S
P2400 C2420 1.803 . S
P2400 C2426 1.819 . S
H2401 C2415 0.941 . S
H2402 C2416 0.939 . S
H2403 C2418 0.940 . S
H2404 C2419 0.940 . S
H2405 C2421 0.939 . S
H2406 C2422 0.942 . S
H2407 C2424 0.940 . S
H2408 C2425 0.939 . S
H2409 C2427 0.941 . S
H2410 C2431 0.939 . S
O2411 P2400 1.490 . S
H2412 C2428 0.939 . S
H2413 C2430 0.940 . S
C2414 P2400 1.812 . S
C2414 C2415 1.389 . S
C2414 C2419 1.391 . S
C2415 H2401 0.941 . S
C2415 C2414 1.389 . S
C2415 C2416 1.397 . S
C2416 H2402 0.939 . S
C2416 C2415 1.397 . S
C2416 C2417 1.378 . S
C2417 C2416 1.378 . S
C2417 C2418 1.378 . S
C2418 H2403 0.940 . S
C2418 C2417 1.378 . S
C2418 C2419 1.396 . S
C2419 H2404 0.940 . S
C2419 C2414 1.391 . S
C2419 C2418 1.396 . S
C2420 P2400 1.803 . S
C2420 C2421 1.378 . S
C2420 C2425 1.400 . S
C2421 H2405 0.939 . S
C2421 C2420 1.378 . S
C2421 C2422 1.361 . S
C2422 H2406 0.942 . S
C2422 C2421 1.361 . S
C2422 C2423 1.369 . S
C2423 C2422 1.369 . S
C2423 C2424 1.404 . S
C2424 H2407 0.940 . S
C2424 C2423 1.404 . S
C2424 C2425 1.389 . S
C2425 H2408 0.939 . S
C2425 C2420 1.400 . S
C2425 C2424 1.389 . S
C2426 P2400 1.819 . S
C2426 C2427 1.391 . S
C2426 C2431 1.391 . S
C2427 H2409 0.941 . S
C2427 C2426 1.391 . S
C2427 C2428 1.396 . S
C2428 H2412 0.939 . S
C2428 C2427 1.396 . S
C2428 C2429 1.397 . S
C2429 C2428 1.397 . S
C2429 C2430 1.385 . S
C2430 H2413 0.940 . S
C2430 C2429 1.385 . S
C2430 C2431 1.388 . S
C2431 H2410 0.939 . S
C2431 C2426 1.391 . S
C2431 C2430 1.388 . S
P2432 O2443 1.490 . S
P2432 C2446 1.812 . S
P2432 C2452 1.803 . S
P2432 C2458 1.819 . S
H2433 C2447 0.941 . S
H2434 C2448 0.939 . S
H2435 C2450 0.940 . S
H2436 C2451 0.940 . S
H2437 C2453 0.939 . S
H2438 C2454 0.942 . S
H2439 C2456 0.940 . S
H2440 C2457 0.939 . S
H2441 C2459 0.941 . S
H2442 C2463 0.939 . S
O2443 P2432 1.490 . S
H2444 C2460 0.939 . S
H2445 C2462 0.940 . S
C2446 P2432 1.812 . S
C2446 C2447 1.389 . S
C2446 C2451 1.391 . S
C2447 H2433 0.941 . S
C2447 C2446 1.389 . S
C2447 C2448 1.397 . S
C2448 H2434 0.939 . S
C2448 C2447 1.397 . S
C2448 C2449 1.378 . S
C2449 C2448 1.378 . S
C2449 C2450 1.378 . S
C2450 H2435 0.940 . S
C2450 C2449 1.378 . S
C2450 C2451 1.396 . S
C2451 H2436 0.940 . S
C2451 C2446 1.391 . S
C2451 C2450 1.396 . S
C2452 P2432 1.803 . S
C2452 C2453 1.378 . S
C2452 C2457 1.400 . S
C2453 H2437 0.939 . S
C2453 C2452 1.378 . S
C2453 C2454 1.361 . S
C2454 H2438 0.942 . S
C2454 C2453 1.361 . S
C2454 C2455 1.369 . S
C2455 C2454 1.369 . S
C2455 C2456 1.404 . S
C2456 H2439 0.940 . S
C2456 C2455 1.404 . S
C2456 C2457 1.389 . S
C2457 H2440 0.939 . S
C2457 C2452 1.400 . S
C2457 C2456 1.389 . S
C2458 P2432 1.819 . S
C2458 C2459 1.391 . S
C2458 C2463 1.391 . S
C2459 H2441 0.941 . S
C2459 C2458 1.391 . S
C2459 C2460 1.396 . S
C2460 H2444 0.939 . S
C2460 C2459 1.396 . S
C2460 C2461 1.397 . S
C2461 C2460 1.397 . S
C2461 C2462 1.385 . S
C2462 H2445 0.940 . S
C2462 C2461 1.385 . S
C2462 C2463 1.388 . S
C2463 H2442 0.939 . S
C2463 C2458 1.391 . S
C2463 C2462 1.388 . S
P2464 O2475 1.490 . S
P2464 C2478 1.812 . S
P2464 C2484 1.803 . S
P2464 C2490 1.819 . S
H2465 C2479 0.941 . S
H2466 C2480 0.939 . S
H2467 C2482 0.940 . S
H2468 C2483 0.940 . S
H2469 C2485 0.939 . S
H2470 C2486 0.942 . S
H2471 C2488 0.940 . S
H2472 C2489 0.939 . S
H2473 C2491 0.941 . S
H2474 C2495 0.939 . S
O2475 P2464 1.490 . S
H2476 C2492 0.939 . S
H2477 C2494 0.940 . S
C2478 P2464 1.812 . S
C2478 C2479 1.389 . S
C2478 C2483 1.391 . S
C2479 H2465 0.941 . S
C2479 C2478 1.389 . S
C2479 C2480 1.397 . S
C2480 H2466 0.939 . S
C2480 C2479 1.397 . S
C2480 C2481 1.378 . S
C2481 C2480 1.378 . S
C2481 C2482 1.378 . S
C2482 H2467 0.940 . S
C2482 C2481 1.378 . S
C2482 C2483 1.396 . S
C2483 H2468 0.940 . S
C2483 C2478 1.391 . S
C2483 C2482 1.396 . S
C2484 P2464 1.803 . S
C2484 C2485 1.378 . S
C2484 C2489 1.400 . S
C2485 H2469 0.939 . S
C2485 C2484 1.378 . S
C2485 C2486 1.361 . S
C2486 H2470 0.942 . S
C2486 C2485 1.361 . S
C2486 C2487 1.369 . S
C2487 C2486 1.369 . S
C2487 C2488 1.404 . S
C2488 H2471 0.940 . S
C2488 C2487 1.404 . S
C2488 C2489 1.389 . S
C2489 H2472 0.939 . S
C2489 C2484 1.400 . S
C2489 C2488 1.389 . S
C2490 P2464 1.819 . S
C2490 C2491 1.391 . S
C2490 C2495 1.391 . S
C2491 H2473 0.941 . S
C2491 C2490 1.391 . S
C2491 C2492 1.396 . S
C2492 H2476 0.939 . S
C2492 C2491 1.396 . S
C2492 C2493 1.397 . S
C2493 C2492 1.397 . S
C2493 C2494 1.385 . S
C2494 H2477 0.940 . S
C2494 C2493 1.385 . S
C2494 C2495 1.388 . S
C2495 H2474 0.939 . S
C2495 C2490 1.391 . S
C2495 C2494 1.388 . S
P2496 O2507 1.490 . S
P2496 C2510 1.812 . S
P2496 C2516 1.803 . S
P2496 C2522 1.819 . S
H2497 C2511 0.941 . S
H2498 C2512 0.939 . S
H2499 C2514 0.940 . S
H2500 C2515 0.940 . S
H2501 C2517 0.939 . S
H2502 C2518 0.942 . S
H2503 C2520 0.940 . S
H2504 C2521 0.939 . S
H2505 C2523 0.941 . S
H2506 C2527 0.939 . S
O2507 P2496 1.490 . S
H2508 C2524 0.939 . S
H2509 C2526 0.940 . S
C2510 P2496 1.812 . S
C2510 C2511 1.389 . S
C2510 C2515 1.391 . S
C2511 H2497 0.941 . S
C2511 C2510 1.389 . S
C2511 C2512 1.397 . S
C2512 H2498 0.939 . S
C2512 C2511 1.397 . S
C2512 C2513 1.378 . S
C2513 C2512 1.378 . S
C2513 C2514 1.378 . S
C2514 H2499 0.940 . S
C2514 C2513 1.378 . S
C2514 C2515 1.396 . S
C2515 H2500 0.940 . S
C2515 C2510 1.391 . S
C2515 C2514 1.396 . S
C2516 P2496 1.803 . S
C2516 C2517 1.378 . S
C2516 C2521 1.400 . S
C2517 H2501 0.939 . S
C2517 C2516 1.378 . S
C2517 C2518 1.361 . S
C2518 H2502 0.942 . S
C2518 C2517 1.361 . S
C2518 C2519 1.369 . S
C2519 C2518 1.369 . S
C2519 C2520 1.404 . S
C2520 H2503 0.940 . S
C2520 C2519 1.404 . S
C2520 C2521 1.389 . S
C2521 H2504 0.939 . S
C2521 C2516 1.400 . S
C2521 C2520 1.389 . S
C2522 P2496 1.819 . S
C2522 C2523 1.391 . S
C2522 C2527 1.391 . S
C2523 H2505 0.941 . S
C2523 C2522 1.391 . S
C2523 C2524 1.396 . S
C2524 H2508 0.939 . S
C2524 C2523 1.396 . S
C2524 C2525 1.397 . S
C2525 C2524 1.397 . S
C2525 C2526 1.385 . S
C2526 H2509 0.940 . S
C2526 C2525 1.385 . S
C2526 C2527 1.388 . S
C2527 H2506 0.939 . S
C2527 C2522 1.391 . S
C2527 C2526 1.388 . S
P2528 O2539 1.490 . S
P2528 C2542 1.812 . S
P2528 C2548 1.803 . S
P2528 C2554 1.819 . S
H2529 C2543 0.941 . S
H2530 C2544 0.939 . S
H2531 C2546 0.940 . S
H2532 C2547 0.940 . S
H2533 C2549 0.939 . S
H2534 C2550 0.942 . S
H2535 C2552 0.940 . S
H2536 C2553 0.939 . S
H2537 C2555 0.941 . S
H2538 C2559 0.939 . S
O2539 P2528 1.490 . S
H2540 C2556 0.939 . S
H2541 C2558 0.940 . S
C2542 P2528 1.812 . S
C2542 C2543 1.389 . S
C2542 C2547 1.391 . S
C2543 H2529 0.941 . S
C2543 C2542 1.389 . S
C2543 C2544 1.397 . S
C2544 H2530 0.939 . S
C2544 C2543 1.397 . S
C2544 C2545 1.378 . S
C2545 C2544 1.378 . S
C2545 C2546 1.378 . S
C2546 H2531 0.940 . S
C2546 C2545 1.378 . S
C2546 C2547 1.396 . S
C2547 H2532 0.940 . S
C2547 C2542 1.391 . S
C2547 C2546 1.396 . S
C2548 P2528 1.803 . S
C2548 C2549 1.378 . S
C2548 C2553 1.400 . S
C2549 H2533 0.939 . S
C2549 C2548 1.378 . S
C2549 C2550 1.361 . S
C2550 H2534 0.942 . S
C2550 C2549 1.361 . S
C2550 C2551 1.369 . S
C2551 C2550 1.369 . S
C2551 C2552 1.404 . S
C2552 H2535 0.940 . S
C2552 C2551 1.404 . S
C2552 C2553 1.389 . S
C2553 H2536 0.939 . S
C2553 C2548 1.400 . S
C2553 C2552 1.389 . S
C2554 P2528 1.819 . S
C2554 C2555 1.391 . S
C2554 C2559 1.391 . S
C2555 H2537 0.941 . S
C2555 C2554 1.391 . S
C2555 C2556 1.396 . S
C2556 H2540 0.939 . S
C2556 C2555 1.396 . S
C2556 C2557 1.397 . S
C2557 C2556 1.397 . S
C2557 C2558 1.385 . S
C2558 H2541 0.940 . S
C2558 C2557 1.385 . S
C2558 C2559 1.388 . S
C2559 H2538 0.939 . S
C2559 C2554 1.391 . S
C2559 C2558 1.388 . S
P2560 O2571 1.490 . S
P2560 C2574 1.812 . S
P2560 C2580 1.803 . S
P2560 C2586 1.819 . S
H2561 C2575 0.941 . S
H2562 C2576 0.939 . S
H2563 C2578 0.940 . S
H2564 C2579 0.940 . S
H2565 C2581 0.939 . S
H2566 C2582 0.942 . S
H2567 C2584 0.940 . S
H2568 C2585 0.939 . S
H2569 C2587 0.941 . S
H2570 C2591 0.939 . S
O2571 P2560 1.490 . S
H2572 C2588 0.939 . S
H2573 C2590 0.940 . S
C2574 P2560 1.812 . S
C2574 C2575 1.389 . S
C2574 C2579 1.391 . S
C2575 H2561 0.941 . S
C2575 C2574 1.389 . S
C2575 C2576 1.397 . S
C2576 H2562 0.939 . S
C2576 C2575 1.397 . S
C2576 C2577 1.378 . S
C2577 C2576 1.378 . S
C2577 C2578 1.378 . S
C2578 H2563 0.940 . S
C2578 C2577 1.378 . S
C2578 C2579 1.396 . S
C2579 H2564 0.940 . S
C2579 C2574 1.391 . S
C2579 C2578 1.396 . S
C2580 P2560 1.803 . S
C2580 C2581 1.378 . S
C2580 C2585 1.400 . S
C2581 H2565 0.939 . S
C2581 C2580 1.378 . S
C2581 C2582 1.361 . S
C2582 H2566 0.942 . S
C2582 C2581 1.361 . S
C2582 C2583 1.369 . S
C2583 C2582 1.369 . S
C2583 C2584 1.404 . S
C2584 H2567 0.940 . S
C2584 C2583 1.404 . S
C2584 C2585 1.389 . S
C2585 H2568 0.939 . S
C2585 C2580 1.400 . S
C2585 C2584 1.389 . S
C2586 P2560 1.819 . S
C2586 C2587 1.391 . S
C2586 C2591 1.391 . S
C2587 H2569 0.941 . S
C2587 C2586 1.391 . S
C2587 C2588 1.396 . S
C2588 H2572 0.939 . S
C2588 C2587 1.396 . S
C2588 C2589 1.397 . S
C2589 C2588 1.397 . S
C2589 C2590 1.385 . S
C2590 H2573 0.940 . S
C2590 C2589 1.385 . S
C2590 C2591 1.388 . S
C2591 H2570 0.939 . S
C2591 C2586 1.391 . S
C2591 C2590 1.388 . S
P2592 O2603 1.490 . S
P2592 C2606 1.812 . S
P2592 C2612 1.803 . S
P2592 C2618 1.819 . S
H2593 C2607 0.941 . S
H2594 C2608 0.939 . S
H2595 C2610 0.940 . S
H2596 C2611 0.940 . S
H2597 C2613 0.939 . S
H2598 C2614 0.942 . S
H2599 C2616 0.940 . S
H2600 C2617 0.939 . S
H2601 C2619 0.941 . S
H2602 C2623 0.939 . S
O2603 P2592 1.490 . S
H2604 C2620 0.939 . S
H2605 C2622 0.940 . S
C2606 P2592 1.812 . S
C2606 C2607 1.389 . S
C2606 C2611 1.391 . S
C2607 H2593 0.941 . S
C2607 C2606 1.389 . S
C2607 C2608 1.397 . S
C2608 H2594 0.939 . S
C2608 C2607 1.397 . S
C2608 C2609 1.378 . S
C2609 C2608 1.378 . S
C2609 C2610 1.378 . S
C2610 H2595 0.940 . S
C2610 C2609 1.378 . S
C2610 C2611 1.396 . S
C2611 H2596 0.940 . S
C2611 C2606 1.391 . S
C2611 C2610 1.396 . S
C2612 P2592 1.803 . S
C2612 C2613 1.378 . S
C2612 C2617 1.400 . S
C2613 H2597 0.939 . S
C2613 C2612 1.378 . S
C2613 C2614 1.361 . S
C2614 H2598 0.942 . S
C2614 C2613 1.361 . S
C2614 C2615 1.369 . S
C2615 C2614 1.369 . S
C2615 C2616 1.404 . S
C2616 H2599 0.940 . S
C2616 C2615 1.404 . S
C2616 C2617 1.389 . S
C2617 H2600 0.939 . S
C2617 C2612 1.400 . S
C2617 C2616 1.389 . S
C2618 P2592 1.819 . S
C2618 C2619 1.391 . S
C2618 C2623 1.391 . S
C2619 H2601 0.941 . S
C2619 C2618 1.391 . S
C2619 C2620 1.396 . S
C2620 H2604 0.939 . S
C2620 C2619 1.396 . S
C2620 C2621 1.397 . S
C2621 C2620 1.397 . S
C2621 C2622 1.385 . S
C2622 H2605 0.940 . S
C2622 C2621 1.385 . S
C2622 C2623 1.388 . S
C2623 H2602 0.939 . S
C2623 C2618 1.391 . S
C2623 C2622 1.388 . S
P2624 O2635 1.490 . S
P2624 C2638 1.812 . S
P2624 C2644 1.803 . S
P2624 C2650 1.819 . S
H2625 C2639 0.941 . S
H2626 C2640 0.939 . S
H2627 C2642 0.940 . S
H2628 C2643 0.940 . S
H2629 C2645 0.939 . S
H2630 C2646 0.942 . S
H2631 C2648 0.940 . S
H2632 C2649 0.939 . S
H2633 C2651 0.941 . S
H2634 C2655 0.939 . S
O2635 P2624 1.490 . S
H2636 C2652 0.939 . S
H2637 C2654 0.940 . S
C2638 P2624 1.812 . S
C2638 C2639 1.389 . S
C2638 C2643 1.391 . S
C2639 H2625 0.941 . S
C2639 C2638 1.389 . S
C2639 C2640 1.397 . S
C2640 H2626 0.939 . S
C2640 C2639 1.397 . S
C2640 C2641 1.378 . S
C2641 C2640 1.378 . S
C2641 C2642 1.378 . S
C2642 H2627 0.940 . S
C2642 C2641 1.378 . S
C2642 C2643 1.396 . S
C2643 H2628 0.940 . S
C2643 C2638 1.391 . S
C2643 C2642 1.396 . S
C2644 P2624 1.803 . S
C2644 C2645 1.378 . S
C2644 C2649 1.400 . S
C2645 H2629 0.939 . S
C2645 C2644 1.378 . S
C2645 C2646 1.361 . S
C2646 H2630 0.942 . S
C2646 C2645 1.361 . S
C2646 C2647 1.369 . S
C2647 C2646 1.369 . S
C2647 C2648 1.404 . S
C2648 H2631 0.940 . S
C2648 C2647 1.404 . S
C2648 C2649 1.389 . S
C2649 H2632 0.939 . S
C2649 C2644 1.400 . S
C2649 C2648 1.389 . S
C2650 P2624 1.819 . S
C2650 C2651 1.391 . S
C2650 C2655 1.391 . S
C2651 H2633 0.941 . S
C2651 C2650 1.391 . S
C2651 C2652 1.396 . S
C2652 H2636 0.939 . S
C2652 C2651 1.396 . S
C2652 C2653 1.397 . S
C2653 C2652 1.397 . S
C2653 C2654 1.385 . S
C2654 H2637 0.940 . S
C2654 C2653 1.385 . S
C2654 C2655 1.388 . S
C2655 H2634 0.939 . S
C2655 C2650 1.391 . S
C2655 C2654 1.388 . S
P2656 O2667 1.490 . S
P2656 C2670 1.812 . S
P2656 C2676 1.803 . S
P2656 C2682 1.819 . S
H2657 C2671 0.941 . S
H2658 C2672 0.939 . S
H2659 C2674 0.940 . S
H2660 C2675 0.940 . S
H2661 C2677 0.939 . S
H2662 C2678 0.942 . S
H2663 C2680 0.940 . S
H2664 C2681 0.939 . S
H2665 C2683 0.941 . S
H2666 C2687 0.939 . S
O2667 P2656 1.490 . S
H2668 C2684 0.939 . S
H2669 C2686 0.940 . S
C2670 P2656 1.812 . S
C2670 C2671 1.389 . S
C2670 C2675 1.391 . S
C2671 H2657 0.941 . S
C2671 C2670 1.389 . S
C2671 C2672 1.397 . S
C2672 H2658 0.939 . S
C2672 C2671 1.397 . S
C2672 C2673 1.378 . S
C2673 C2672 1.378 . S
C2673 C2674 1.378 . S
C2674 H2659 0.940 . S
C2674 C2673 1.378 . S
C2674 C2675 1.396 . S
C2675 H2660 0.940 . S
C2675 C2670 1.391 . S
C2675 C2674 1.396 . S
C2676 P2656 1.803 . S
C2676 C2677 1.378 . S
C2676 C2681 1.400 . S
C2677 H2661 0.939 . S
C2677 C2676 1.378 . S
C2677 C2678 1.361 . S
C2678 H2662 0.942 . S
C2678 C2677 1.361 . S
C2678 C2679 1.369 . S
C2679 C2678 1.369 . S
C2679 C2680 1.404 . S
C2680 H2663 0.940 . S
C2680 C2679 1.404 . S
C2680 C2681 1.389 . S
C2681 H2664 0.939 . S
C2681 C2676 1.400 . S
C2681 C2680 1.389 . S
C2682 P2656 1.819 . S
C2682 C2683 1.391 . S
C2682 C2687 1.391 . S
C2683 H2665 0.941 . S
C2683 C2682 1.391 . S
C2683 C2684 1.396 . S
C2684 H2668 0.939 . S
C2684 C2683 1.396 . S
C2684 C2685 1.397 . S
C2685 C2684 1.397 . S
C2685 C2686 1.385 . S
C2686 H2669 0.940 . S
C2686 C2685 1.385 . S
C2686 C2687 1.388 . S
C2687 H2666 0.939 . S
C2687 C2682 1.391 . S
C2687 C2686 1.388 . S
P2688 O2699 1.490 . S
P2688 C2702 1.812 . S
P2688 C2708 1.803 . S
P2688 C2714 1.819 . S
H2689 C2703 0.941 . S
H2690 C2704 0.939 . S
H2691 C2706 0.940 . S
H2692 C2707 0.940 . S
H2693 C2709 0.939 . S
H2694 C2710 0.942 . S
H2695 C2712 0.940 . S
H2696 C2713 0.939 . S
H2697 C2715 0.941 . S
H2698 C2719 0.939 . S
O2699 P2688 1.490 . S
H2700 C2716 0.939 . S
H2701 C2718 0.940 . S
C2702 P2688 1.812 . S
C2702 C2703 1.389 . S
C2702 C2707 1.391 . S
C2703 H2689 0.941 . S
C2703 C2702 1.389 . S
C2703 C2704 1.397 . S
C2704 H2690 0.939 . S
C2704 C2703 1.397 . S
C2704 C2705 1.378 . S
C2705 C2704 1.378 . S
C2705 C2706 1.378 . S
C2706 H2691 0.940 . S
C2706 C2705 1.378 . S
C2706 C2707 1.396 . S
C2707 H2692 0.940 . S
C2707 C2702 1.391 . S
C2707 C2706 1.396 . S
C2708 P2688 1.803 . S
C2708 C2709 1.378 . S
C2708 C2713 1.400 . S
C2709 H2693 0.939 . S
C2709 C2708 1.378 . S
C2709 C2710 1.361 . S
C2710 H2694 0.942 . S
C2710 C2709 1.361 . S
C2710 C2711 1.369 . S
C2711 C2710 1.369 . S
C2711 C2712 1.404 . S
C2712 H2695 0.940 . S
C2712 C2711 1.404 . S
C2712 C2713 1.389 . S
C2713 H2696 0.939 . S
C2713 C2708 1.400 . S
C2713 C2712 1.389 . S
C2714 P2688 1.819 . S
C2714 C2715 1.391 . S
C2714 C2719 1.391 . S
C2715 H2697 0.941 . S
C2715 C2714 1.391 . S
C2715 C2716 1.396 . S
C2716 H2700 0.939 . S
C2716 C2715 1.396 . S
C2716 C2717 1.397 . S
C2717 C2716 1.397 . S
C2717 C2718 1.385 . S
C2718 H2701 0.940 . S
C2718 C2717 1.385 . S
C2718 C2719 1.388 . S
C2719 H2698 0.939 . S
C2719 C2714 1.391 . S
C2719 C2718 1.388 . S
P2720 O2731 1.490 . S
P2720 C2734 1.812 . S
P2720 C2740 1.803 . S
P2720 C2746 1.819 . S
H2721 C2735 0.941 . S
H2722 C2736 0.939 . S
H2723 C2738 0.940 . S
H2724 C2739 0.940 . S
H2725 C2741 0.939 . S
H2726 C2742 0.942 . S
H2727 C2744 0.940 . S
H2728 C2745 0.939 . S
H2729 C2747 0.941 . S
H2730 C2751 0.939 . S
O2731 P2720 1.490 . S
H2732 C2748 0.939 . S
H2733 C2750 0.940 . S
C2734 P2720 1.812 . S
C2734 C2735 1.389 . S
C2734 C2739 1.391 . S
C2735 H2721 0.941 . S
C2735 C2734 1.389 . S
C2735 C2736 1.397 . S
C2736 H2722 0.939 . S
C2736 C2735 1.397 . S
C2736 C2737 1.378 . S
C2737 C2736 1.378 . S
C2737 C2738 1.378 . S
C2738 H2723 0.940 . S
C2738 C2737 1.378 . S
C2738 C2739 1.396 . S
C2739 H2724 0.940 . S
C2739 C2734 1.391 . S
C2739 C2738 1.396 . S
C2740 P2720 1.803 . S
C2740 C2741 1.378 . S
C2740 C2745 1.400 . S
C2741 H2725 0.939 . S
C2741 C2740 1.378 . S
C2741 C2742 1.361 . S
C2742 H2726 0.942 . S
C2742 C2741 1.361 . S
C2742 C2743 1.369 . S
C2743 C2742 1.369 . S
C2743 C2744 1.404 . S
C2744 H2727 0.940 . S
C2744 C2743 1.404 . S
C2744 C2745 1.389 . S
C2745 H2728 0.939 . S
C2745 C2740 1.400 . S
C2745 C2744 1.389 . S
C2746 P2720 1.819 . S
C2746 C2747 1.391 . S
C2746 C2751 1.391 . S
C2747 H2729 0.941 . S
C2747 C2746 1.391 . S
C2747 C2748 1.396 . S
C2748 H2732 0.939 . S
C2748 C2747 1.396 . S
C2748 C2749 1.397 . S
C2749 C2748 1.397 . S
C2749 C2750 1.385 . S
C2750 H2733 0.940 . S
C2750 C2749 1.385 . S
C2750 C2751 1.388 . S
C2751 H2730 0.939 . S
C2751 C2746 1.391 . S
C2751 C2750 1.388 . S
P2752 O2763 1.490 . S
P2752 C2766 1.812 . S
P2752 C2772 1.803 . S
P2752 C2778 1.819 . S
H2753 C2767 0.941 . S
H2754 C2768 0.939 . S
H2755 C2770 0.940 . S
H2756 C2771 0.940 . S
H2757 C2773 0.939 . S
H2758 C2774 0.942 . S
H2759 C2776 0.940 . S
H2760 C2777 0.939 . S
H2761 C2779 0.941 . S
H2762 C2783 0.939 . S
O2763 P2752 1.490 . S
H2764 C2780 0.939 . S
H2765 C2782 0.940 . S
C2766 P2752 1.812 . S
C2766 C2767 1.389 . S
C2766 C2771 1.391 . S
C2767 H2753 0.941 . S
C2767 C2766 1.389 . S
C2767 C2768 1.397 . S
C2768 H2754 0.939 . S
C2768 C2767 1.397 . S
C2768 C2769 1.378 . S
C2769 C2768 1.378 . S
C2769 C2770 1.378 . S
C2770 H2755 0.940 . S
C2770 C2769 1.378 . S
C2770 C2771 1.396 . S
C2771 H2756 0.940 . S
C2771 C2766 1.391 . S
C2771 C2770 1.396 . S
C2772 P2752 1.803 . S
C2772 C2773 1.378 . S
C2772 C2777 1.400 . S
C2773 H2757 0.939 . S
C2773 C2772 1.378 . S
C2773 C2774 1.361 . S
C2774 H2758 0.942 . S
C2774 C2773 1.361 . S
C2774 C2775 1.369 . S
C2775 C2774 1.369 . S
C2775 C2776 1.404 . S
C2776 H2759 0.940 . S
C2776 C2775 1.404 . S
C2776 C2777 1.389 . S
C2777 H2760 0.939 . S
C2777 C2772 1.400 . S
C2777 C2776 1.389 . S
C2778 P2752 1.819 . S
C2778 C2779 1.391 . S
C2778 C2783 1.391 . S
C2779 H2761 0.941 . S
C2779 C2778 1.391 . S
C2779 C2780 1.396 . S
C2780 H2764 0.939 . S
C2780 C2779 1.396 . S
C2780 C2781 1.397 . S
C2781 C2780 1.397 . S
C2781 C2782 1.385 . S
C2782 H2765 0.940 . S
C2782 C2781 1.385 . S
C2782 C2783 1.388 . S
C2783 H2762 0.939 . S
C2783 C2778 1.391 . S
C2783 C2782 1.388 . S
P2784 O2795 1.490 . S
P2784 C2798 1.812 . S
P2784 C2804 1.803 . S
P2784 C2810 1.819 . S
H2785 C2799 0.941 . S
H2786 C2800 0.939 . S
H2787 C2802 0.940 . S
H2788 C2803 0.940 . S
H2789 C2805 0.939 . S
H2790 C2806 0.942 . S
H2791 C2808 0.940 . S
H2792 C2809 0.939 . S
H2793 C2811 0.941 . S
H2794 C2815 0.939 . S
O2795 P2784 1.490 . S
H2796 C2812 0.939 . S
H2797 C2814 0.940 . S
C2798 P2784 1.812 . S
C2798 C2799 1.389 . S
C2798 C2803 1.391 . S
C2799 H2785 0.941 . S
C2799 C2798 1.389 . S
C2799 C2800 1.397 . S
C2800 H2786 0.939 . S
C2800 C2799 1.397 . S
C2800 C2801 1.378 . S
C2801 C2800 1.378 . S
C2801 C2802 1.378 . S
C2802 H2787 0.940 . S
C2802 C2801 1.378 . S
C2802 C2803 1.396 . S
C2803 H2788 0.940 . S
C2803 C2798 1.391 . S
C2803 C2802 1.396 . S
C2804 P2784 1.803 . S
C2804 C2805 1.378 . S
C2804 C2809 1.400 . S
C2805 H2789 0.939 . S
C2805 C2804 1.378 . S
C2805 C2806 1.361 . S
C2806 H2790 0.942 . S
C2806 C2805 1.361 . S
C2806 C2807 1.369 . S
C2807 C2806 1.369 . S
C2807 C2808 1.404 . S
C2808 H2791 0.940 . S
C2808 C2807 1.404 . S
C2808 C2809 1.389 . S
C2809 H2792 0.939 . S
C2809 C2804 1.400 . S
C2809 C2808 1.389 . S
C2810 P2784 1.819 . S
C2810 C2811 1.391 . S
C2810 C2815 1.391 . S
C2811 H2793 0.941 . S
C2811 C2810 1.391 . S
C2811 C2812 1.396 . S
C2812 H2796 0.939 . S
C2812 C2811 1.396 . S
C2812 C2813 1.397 . S
C2813 C2812 1.397 . S
C2813 C2814 1.385 . S
C2814 H2797 0.940 . S
C2814 C2813 1.385 . S
C2814 C2815 1.388 . S
C2815 H2794 0.939 . S
C2815 C2810 1.391 . S
C2815 C2814 1.388 . S
P2816 O2827 1.490 . S
P2816 C2830 1.812 . S
P2816 C2836 1.803 . S
P2816 C2842 1.819 . S
H2817 C2831 0.941 . S
H2818 C2832 0.939 . S
H2819 C2834 0.940 . S
H2820 C2835 0.940 . S
H2821 C2837 0.939 . S
H2822 C2838 0.942 . S
H2823 C2840 0.940 . S
H2824 C2841 0.939 . S
H2825 C2843 0.941 . S
H2826 C2847 0.939 . S
O2827 P2816 1.490 . S
H2828 C2844 0.939 . S
H2829 C2846 0.940 . S
C2830 P2816 1.812 . S
C2830 C2831 1.389 . S
C2830 C2835 1.391 . S
C2831 H2817 0.941 . S
C2831 C2830 1.389 . S
C2831 C2832 1.397 . S
C2832 H2818 0.939 . S
C2832 C2831 1.397 . S
C2832 C2833 1.378 . S
C2833 C2832 1.378 . S
C2833 C2834 1.378 . S
C2834 H2819 0.940 . S
C2834 C2833 1.378 . S
C2834 C2835 1.396 . S
C2835 H2820 0.940 . S
C2835 C2830 1.391 . S
C2835 C2834 1.396 . S
C2836 P2816 1.803 . S
C2836 C2837 1.378 . S
C2836 C2841 1.400 . S
C2837 H2821 0.939 . S
C2837 C2836 1.378 . S
C2837 C2838 1.361 . S
C2838 H2822 0.942 . S
C2838 C2837 1.361 . S
C2838 C2839 1.369 . S
C2839 C2838 1.369 . S
C2839 C2840 1.404 . S
C2840 H2823 0.940 . S
C2840 C2839 1.404 . S
C2840 C2841 1.389 . S
C2841 H2824 0.939 . S
C2841 C2836 1.400 . S
C2841 C2840 1.389 . S
C2842 P2816 1.819 . S
C2842 C2843 1.391 . S
C2842 C2847 1.391 . S
C2843 H2825 0.941 . S
C2843 C2842 1.391 . S
C2843 C2844 1.396 . S
C2844 H2828 0.939 . S
C2844 C2843 1.396 . S
C2844 C2845 1.397 . S
C2845 C2844 1.397 . S
C2845 C2846 1.385 . S
C2846 H2829 0.940 . S
C2846 C2845 1.385 . S
C2846 C2847 1.388 . S
C2847 H2826 0.939 . S
C2847 C2842 1.391 . S
C2847 C2846 1.388 . S
P2848 O2859 1.490 . S
P2848 C2862 1.812 . S
P2848 C2868 1.803 . S
P2848 C2874 1.819 . S
H2849 C2863 0.941 . S
H2850 C2864 0.939 . S
H2851 C2866 0.940 . S
H2852 C2867 0.940 . S
H2853 C2869 0.939 . S
H2854 C2870 0.942 . S
H2855 C2872 0.940 . S
H2856 C2873 0.939 . S
H2857 C2875 0.941 . S
H2858 C2879 0.939 . S
O2859 P2848 1.490 . S
H2860 C2876 0.939 . S
H2861 C2878 0.940 . S
C2862 P2848 1.812 . S
C2862 C2863 1.389 . S
C2862 C2867 1.391 . S
C2863 H2849 0.941 . S
C2863 C2862 1.389 . S
C2863 C2864 1.397 . S
C2864 H2850 0.939 . S
C2864 C2863 1.397 . S
C2864 C2865 1.378 . S
C2865 C2864 1.378 . S
C2865 C2866 1.378 . S
C2866 H2851 0.940 . S
C2866 C2865 1.378 . S
C2866 C2867 1.396 . S
C2867 H2852 0.940 . S
C2867 C2862 1.391 . S
C2867 C2866 1.396 . S
C2868 P2848 1.803 . S
C2868 C2869 1.378 . S
C2868 C2873 1.400 . S
C2869 H2853 0.939 . S
C2869 C2868 1.378 . S
C2869 C2870 1.361 . S
C2870 H2854 0.942 . S
C2870 C2869 1.361 . S
C2870 C2871 1.369 . S
C2871 C2870 1.369 . S
C2871 C2872 1.404 . S
C2872 H2855 0.940 . S
C2872 C2871 1.404 . S
C2872 C2873 1.389 . S
C2873 H2856 0.939 . S
C2873 C2868 1.400 . S
C2873 C2872 1.389 . S
C2874 P2848 1.819 . S
C2874 C2875 1.391 . S
C2874 C2879 1.391 . S
C2875 H2857 0.941 . S
C2875 C2874 1.391 . S
C2875 C2876 1.396 . S
C2876 H2860 0.939 . S
C2876 C2875 1.396 . S
C2876 C2877 1.397 . S
C2877 C2876 1.397 . S
C2877 C2878 1.385 . S
C2878 H2861 0.940 . S
C2878 C2877 1.385 . S
C2878 C2879 1.388 . S
C2879 H2858 0.939 . S
C2879 C2874 1.391 . S
C2879 C2878 1.388 . S
P2880 O2891 1.490 . S
P2880 C2894 1.812 . S
P2880 C2900 1.803 . S
P2880 C2906 1.819 . S
H2881 C2895 0.941 . S
H2882 C2896 0.939 . S
H2883 C2898 0.940 . S
H2884 C2899 0.940 . S
H2885 C2901 0.939 . S
H2886 C2902 0.942 . S
H2887 C2904 0.940 . S
H2888 C2905 0.939 . S
H2889 C2907 0.941 . S
H2890 C2911 0.939 . S
O2891 P2880 1.490 . S
H2892 C2908 0.939 . S
H2893 C2910 0.940 . S
C2894 P2880 1.812 . S
C2894 C2895 1.389 . S
C2894 C2899 1.391 . S
C2895 H2881 0.941 . S
C2895 C2894 1.389 . S
C2895 C2896 1.397 . S
C2896 H2882 0.939 . S
C2896 C2895 1.397 . S
C2896 C2897 1.378 . S
C2897 C2896 1.378 . S
C2897 C2898 1.378 . S
C2898 H2883 0.940 . S
C2898 C2897 1.378 . S
C2898 C2899 1.396 . S
C2899 H2884 0.940 . S
C2899 C2894 1.391 . S
C2899 C2898 1.396 . S
C2900 P2880 1.803 . S
C2900 C2901 1.378 . S
C2900 C2905 1.400 . S
C2901 H2885 0.939 . S
C2901 C2900 1.378 . S
C2901 C2902 1.361 . S
C2902 H2886 0.942 . S
C2902 C2901 1.361 . S
C2902 C2903 1.369 . S
C2903 C2902 1.369 . S
C2903 C2904 1.404 . S
C2904 H2887 0.940 . S
C2904 C2903 1.404 . S
C2904 C2905 1.389 . S
C2905 H2888 0.939 . S
C2905 C2900 1.400 . S
C2905 C2904 1.389 . S
C2906 P2880 1.819 . S
C2906 C2907 1.391 . S
C2906 C2911 1.391 . S
C2907 H2889 0.941 . S
C2907 C2906 1.391 . S
C2907 C2908 1.396 . S
C2908 H2892 0.939 . S
C2908 C2907 1.396 . S
C2908 C2909 1.397 . S
C2909 C2908 1.397 . S
C2909 C2910 1.385 . S
C2910 H2893 0.940 . S
C2910 C2909 1.385 . S
C2910 C2911 1.388 . S
C2911 H2890 0.939 . S
C2911 C2906 1.391 . S
C2911 C2910 1.388 . S
P2912 O2923 1.490 . S
P2912 C2926 1.812 . S
P2912 C2932 1.803 . S
P2912 C2938 1.819 . S
H2913 C2927 0.941 . S
H2914 C2928 0.939 . S
H2915 C2930 0.940 . S
H2916 C2931 0.940 . S
H2917 C2933 0.939 . S
H2918 C2934 0.942 . S
H2919 C2936 0.940 . S
H2920 C2937 0.939 . S
H2921 C2939 0.941 . S
H2922 C2943 0.939 . S
O2923 P2912 1.490 . S
H2924 C2940 0.939 . S
H2925 C2942 0.940 . S
C2926 P2912 1.812 . S
C2926 C2927 1.389 . S
C2926 C2931 1.391 . S
C2927 H2913 0.941 . S
C2927 C2926 1.389 . S
C2927 C2928 1.397 . S
C2928 H2914 0.939 . S
C2928 C2927 1.397 . S
C2928 C2929 1.378 . S
C2929 C2928 1.378 . S
C2929 C2930 1.378 . S
C2930 H2915 0.940 . S
C2930 C2929 1.378 . S
C2930 C2931 1.396 . S
C2931 H2916 0.940 . S
C2931 C2926 1.391 . S
C2931 C2930 1.396 . S
C2932 P2912 1.803 . S
C2932 C2933 1.378 . S
C2932 C2937 1.400 . S
C2933 H2917 0.939 . S
C2933 C2932 1.378 . S
C2933 C2934 1.361 . S
C2934 H2918 0.942 . S
C2934 C2933 1.361 . S
C2934 C2935 1.369 . S
C2935 C2934 1.369 . S
C2935 C2936 1.404 . S
C2936 H2919 0.940 . S
C2936 C2935 1.404 . S
C2936 C2937 1.389 . S
C2937 H2920 0.939 . S
C2937 C2932 1.400 . S
C2937 C2936 1.389 . S
C2938 P2912 1.819 . S
C2938 C2939 1.391 . S
C2938 C2943 1.391 . S
C2939 H2921 0.941 . S
C2939 C2938 1.391 . S
C2939 C2940 1.396 . S
C2940 H2924 0.939 . S
C2940 C2939 1.396 . S
C2940 C2941 1.397 . S
C2941 C2940 1.397 . S
C2941 C2942 1.385 . S
C2942 H2925 0.940 . S
C2942 C2941 1.385 . S
C2942 C2943 1.388 . S
C2943 H2922 0.939 . S
C2943 C2938 1.391 . S
C2943 C2942 1.388 . S
P2944 O2955 1.490 . S
P2944 C2958 1.812 . S
P2944 C2964 1.803 . S
P2944 C2970 1.819 . S
H2945 C2959 0.941 . S
H2946 C2960 0.939 . S
H2947 C2962 0.940 . S
H2948 C2963 0.940 . S
H2949 C2965 0.939 . S
H2950 C2966 0.942 . S
H2951 C2968 0.940 . S
H2952 C2969 0.939 . S
H2953 C2971 0.941 . S
H2954 C2975 0.939 . S
O2955 P2944 1.490 . S
H2956 C2972 0.939 . S
H2957 C2974 0.940 . S
C2958 P2944 1.812 . S
C2958 C2959 1.389 . S
C2958 C2963 1.391 . S
C2959 H2945 0.941 . S
C2959 C2958 1.389 . S
C2959 C2960 1.397 . S
C2960 H2946 0.939 . S
C2960 C2959 1.397 . S
C2960 C2961 1.378 . S
C2961 C2960 1.378 . S
C2961 C2962 1.378 . S
C2962 H2947 0.940 . S
C2962 C2961 1.378 . S
C2962 C2963 1.396 . S
C2963 H2948 0.940 . S
C2963 C2958 1.391 . S
C2963 C2962 1.396 . S
C2964 P2944 1.803 . S
C2964 C2965 1.378 . S
C2964 C2969 1.400 . S
C2965 H2949 0.939 . S
C2965 C2964 1.378 . S
C2965 C2966 1.361 . S
C2966 H2950 0.942 . S
C2966 C2965 1.361 . S
C2966 C2967 1.369 . S
C2967 C2966 1.369 . S
C2967 C2968 1.404 . S
C2968 H2951 0.940 . S
C2968 C2967 1.404 . S
C2968 C2969 1.389 . S
C2969 H2952 0.939 . S
C2969 C2964 1.400 . S
C2969 C2968 1.389 . S
C2970 P2944 1.819 . S
C2970 C2971 1.391 . S
C2970 C2975 1.391 . S
C2971 H2953 0.941 . S
C2971 C2970 1.391 . S
C2971 C2972 1.396 . S
C2972 H2956 0.939 . S
C2972 C2971 1.396 . S
C2972 C2973 1.397 . S
C2973 C2972 1.397 . S
C2973 C2974 1.385 . S
C2974 H2957 0.940 . S
C2974 C2973 1.385 . S
C2974 C2975 1.388 . S
C2975 H2954 0.939 . S
C2975 C2970 1.391 . S
C2975 C2974 1.388 . S
P2976 O2987 1.490 . S
P2976 C2990 1.812 . S
P2976 C2996 1.803 . S
P2976 C3002 1.819 . S
H2977 C2991 0.941 . S
H2978 C2992 0.939 . S
H2979 C2994 0.940 . S
H2980 C2995 0.940 . S
H2981 C2997 0.939 . S
H2982 C2998 0.942 . S
H2983 C3000 0.940 . S
H2984 C3001 0.939 . S
H2985 C3003 0.941 . S
H2986 C3007 0.939 . S
O2987 P2976 1.490 . S
H2988 C3004 0.939 . S
H2989 C3006 0.940 . S
C2990 P2976 1.812 . S
C2990 C2991 1.389 . S
C2990 C2995 1.391 . S
C2991 H2977 0.941 . S
C2991 C2990 1.389 . S
C2991 C2992 1.397 . S
C2992 H2978 0.939 . S
C2992 C2991 1.397 . S
C2992 C2993 1.378 . S
C2993 C2992 1.378 . S
C2993 C2994 1.378 . S
C2994 H2979 0.940 . S
C2994 C2993 1.378 . S
C2994 C2995 1.396 . S
C2995 H2980 0.940 . S
C2995 C2990 1.391 . S
C2995 C2994 1.396 . S
C2996 P2976 1.803 . S
C2996 C2997 1.378 . S
C2996 C3001 1.400 . S
C2997 H2981 0.939 . S
C2997 C2996 1.378 . S
C2997 C2998 1.361 . S
C2998 H2982 0.942 . S
C2998 C2997 1.361 . S
C2998 C2999 1.369 . S
C2999 C2998 1.369 . S
C2999 C3000 1.404 . S
C3000 H2983 0.940 . S
C3000 C2999 1.404 . S
C3000 C3001 1.389 . S
C3001 H2984 0.939 . S
C3001 C2996 1.400 . S
C3001 C3000 1.389 . S
C3002 P2976 1.819 . S
C3002 C3003 1.391 . S
C3002 C3007 1.391 . S
C3003 H2985 0.941 . S
C3003 C3002 1.391 . S
C3003 C3004 1.396 . S
C3004 H2988 0.939 . S
C3004 C3003 1.396 . S
C3004 C3005 1.397 . S
C3005 C3004 1.397 . S
C3005 C3006 1.385 . S
C3006 H2989 0.940 . S
C3006 C3005 1.385 . S
C3006 C3007 1.388 . S
C3007 H2986 0.939 . S
C3007 C3002 1.391 . S
C3007 C3006 1.388 . S
P3008 O3019 1.490 . S
P3008 C3022 1.812 . S
P3008 C3028 1.803 . S
P3008 C3034 1.819 . S
H3009 C3023 0.941 . S
H3010 C3024 0.939 . S
H3011 C3026 0.940 . S
H3012 C3027 0.940 . S
H3013 C3029 0.939 . S
H3014 C3030 0.942 . S
H3015 C3032 0.940 . S
H3016 C3033 0.939 . S
H3017 C3035 0.941 . S
H3018 C3039 0.939 . S
O3019 P3008 1.490 . S
H3020 C3036 0.939 . S
H3021 C3038 0.940 . S
C3022 P3008 1.812 . S
C3022 C3023 1.389 . S
C3022 C3027 1.391 . S
C3023 H3009 0.941 . S
C3023 C3022 1.389 . S
C3023 C3024 1.397 . S
C3024 H3010 0.939 . S
C3024 C3023 1.397 . S
C3024 C3025 1.378 . S
C3025 C3024 1.378 . S
C3025 C3026 1.378 . S
C3026 H3011 0.940 . S
C3026 C3025 1.378 . S
C3026 C3027 1.396 . S
C3027 H3012 0.940 . S
C3027 C3022 1.391 . S
C3027 C3026 1.396 . S
C3028 P3008 1.803 . S
C3028 C3029 1.378 . S
C3028 C3033 1.400 . S
C3029 H3013 0.939 . S
C3029 C3028 1.378 . S
C3029 C3030 1.361 . S
C3030 H3014 0.942 . S
C3030 C3029 1.361 . S
C3030 C3031 1.369 . S
C3031 C3030 1.369 . S
C3031 C3032 1.404 . S
C3032 H3015 0.940 . S
C3032 C3031 1.404 . S
C3032 C3033 1.389 . S
C3033 H3016 0.939 . S
C3033 C3028 1.400 . S
C3033 C3032 1.389 . S
C3034 P3008 1.819 . S
C3034 C3035 1.391 . S
C3034 C3039 1.391 . S
C3035 H3017 0.941 . S
C3035 C3034 1.391 . S
C3035 C3036 1.396 . S
C3036 H3020 0.939 . S
C3036 C3035 1.396 . S
C3036 C3037 1.397 . S
C3037 C3036 1.397 . S
C3037 C3038 1.385 . S
C3038 H3021 0.940 . S
C3038 C3037 1.385 . S
C3038 C3039 1.388 . S
C3039 H3018 0.939 . S
C3039 C3034 1.391 . S
C3039 C3038 1.388 . S
P3040 O3051 1.490 . S
P3040 C3054 1.812 . S
P3040 C3060 1.803 . S
P3040 C3066 1.819 . S
H3041 C3055 0.941 . S
H3042 C3056 0.939 . S
H3043 C3058 0.940 . S
H3044 C3059 0.940 . S
H3045 C3061 0.939 . S
H3046 C3062 0.942 . S
H3047 C3064 0.940 . S
H3048 C3065 0.939 . S
H3049 C3067 0.941 . S
H3050 C3071 0.939 . S
O3051 P3040 1.490 . S
H3052 C3068 0.939 . S
H3053 C3070 0.940 . S
C3054 P3040 1.812 . S
C3054 C3055 1.389 . S
C3054 C3059 1.391 . S
C3055 H3041 0.941 . S
C3055 C3054 1.389 . S
C3055 C3056 1.397 . S
C3056 H3042 0.939 . S
C3056 C3055 1.397 . S
C3056 C3057 1.378 . S
C3057 C3056 1.378 . S
C3057 C3058 1.378 . S
C3058 H3043 0.940 . S
C3058 C3057 1.378 . S
C3058 C3059 1.396 . S
C3059 H3044 0.940 . S
C3059 C3054 1.391 . S
C3059 C3058 1.396 . S
C3060 P3040 1.803 . S
C3060 C3061 1.378 . S
C3060 C3065 1.400 . S
C3061 H3045 0.939 . S
C3061 C3060 1.378 . S
C3061 C3062 1.361 . S
C3062 H3046 0.942 . S
C3062 C3061 1.361 . S
C3062 C3063 1.369 . S
C3063 C3062 1.369 . S
C3063 C3064 1.404 . S
C3064 H3047 0.940 . S
C3064 C3063 1.404 . S
C3064 C3065 1.389 . S
C3065 H3048 0.939 . S
C3065 C3060 1.400 . S
C3065 C3064 1.389 . S
C3066 P3040 1.819 . S
C3066 C3067 1.391 . S
C3066 C3071 1.391 . S
C3067 H3049 0.941 . S
C3067 C3066 1.391 . S
C3067 C3068 1.396 . S
C3068 H3052 0.939 . S
C3068 C3067 1.396 . S
C3068 C3069 1.397 . S
C3069 C3068 1.397 . S
C3069 C3070 1.385 . S
C3070 H3053 0.940 . S
C3070 C3069 1.385 . S
C3070 C3071 1.388 . S
C3071 H3050 0.939 . S
C3071 C3066 1.391 . S
C3071 C3070 1.388 . S
P3072 O3083 1.490 . S
P3072 C3086 1.812 . S
P3072 C3092 1.803 . S
P3072 C3098 1.819 . S
H3073 C3087 0.941 . S
H3074 C3088 0.939 . S
H3075 C3090 0.940 . S
H3076 C3091 0.940 . S
H3077 C3093 0.939 . S
H3078 C3094 0.942 . S
H3079 C3096 0.940 . S
H3080 C3097 0.939 . S
H3081 C3099 0.941 . S
H3082 C3103 0.939 . S
O3083 P3072 1.490 . S
H3084 C3100 0.939 . S
H3085 C3102 0.940 . S
C3086 P3072 1.812 . S
C3086 C3087 1.389 . S
C3086 C3091 1.391 . S
C3087 H3073 0.941 . S
C3087 C3086 1.389 . S
C3087 C3088 1.397 . S
C3088 H3074 0.939 . S
C3088 C3087 1.397 . S
C3088 C3089 1.378 . S
C3089 C3088 1.378 . S
C3089 C3090 1.378 . S
C3090 H3075 0.940 . S
C3090 C3089 1.378 . S
C3090 C3091 1.396 . S
C3091 H3076 0.940 . S
C3091 C3086 1.391 . S
C3091 C3090 1.396 . S
C3092 P3072 1.803 . S
C3092 C3093 1.378 . S
C3092 C3097 1.400 . S
C3093 H3077 0.939 . S
C3093 C3092 1.378 . S
C3093 C3094 1.361 . S
C3094 H3078 0.942 . S
C3094 C3093 1.361 . S
C3094 C3095 1.369 . S
C3095 C3094 1.369 . S
C3095 C3096 1.404 . S
C3096 H3079 0.940 . S
C3096 C3095 1.404 . S
C3096 C3097 1.389 . S
C3097 H3080 0.939 . S
C3097 C3092 1.400 . S
C3097 C3096 1.389 . S
C3098 P3072 1.819 . S
C3098 C3099 1.391 . S
C3098 C3103 1.391 . S
C3099 H3081 0.941 . S
C3099 C3098 1.391 . S
C3099 C3100 1.396 . S
C3100 H3084 0.939 . S
C3100 C3099 1.396 . S
C3100 C3101 1.397 . S
C3101 C3100 1.397 . S
C3101 C3102 1.385 . S
C3102 H3085 0.940 . S
C3102 C3101 1.385 . S
C3102 C3103 1.388 . S
C3103 H3082 0.939 . S
C3103 C3098 1.391 . S
C3103 C3102 1.388 . S
P3104 O3115 1.490 . S
P3104 C3118 1.812 . S
P3104 C3124 1.803 . S
P3104 C3130 1.819 . S
H3105 C3119 0.941 . S
H3106 C3120 0.939 . S
H3107 C3122 0.940 . S
H3108 C3123 0.940 . S
H3109 C3125 0.939 . S
H3110 C3126 0.942 . S
H3111 C3128 0.940 . S
H3112 C3129 0.939 . S
H3113 C3131 0.941 . S
H3114 C3135 0.939 . S
O3115 P3104 1.490 . S
H3116 C3132 0.939 . S
H3117 C3134 0.940 . S
C3118 P3104 1.812 . S
C3118 C3119 1.389 . S
C3118 C3123 1.391 . S
C3119 H3105 0.941 . S
C3119 C3118 1.389 . S
C3119 C3120 1.397 . S
C3120 H3106 0.939 . S
C3120 C3119 1.397 . S
C3120 C3121 1.378 . S
C3121 C3120 1.378 . S
C3121 C3122 1.378 . S
C3122 H3107 0.940 . S
C3122 C3121 1.378 . S
C3122 C3123 1.396 . S
C3123 H3108 0.940 . S
C3123 C3118 1.391 . S
C3123 C3122 1.396 . S
C3124 P3104 1.803 . S
C3124 C3125 1.378 . S
C3124 C3129 1.400 . S
C3125 H3109 0.939 . S
C3125 C3124 1.378 . S
C3125 C3126 1.361 . S
C3126 H3110 0.942 . S
C3126 C3125 1.361 . S
C3126 C3127 1.369 . S
C3127 C3126 1.369 . S
C3127 C3128 1.404 . S
C3128 H3111 0.940 . S
C3128 C3127 1.404 . S
C3128 C3129 1.389 . S
C3129 H3112 0.939 . S
C3129 C3124 1.400 . S
C3129 C3128 1.389 . S
C3130 P3104 1.819 . S
C3130 C3131 1.391 . S
C3130 C3135 1.391 . S
C3131 H3113 0.941 . S
C3131 C3130 1.391 . S
C3131 C3132 1.396 . S
C3132 H3116 0.939 . S
C3132 C3131 1.396 . S
C3132 C3133 1.397 . S
C3133 C3132 1.397 . S
C3133 C3134 1.385 . S
C3134 H3117 0.940 . S
C3134 C3133 1.385 . S
C3134 C3135 1.388 . S
C3135 H3114 0.939 . S
C3135 C3130 1.391 . S
C3135 C3134 1.388 . S
P3136 O3147 1.490 . S
P3136 C3150 1.812 . S
P3136 C3156 1.803 . S
P3136 C3162 1.819 . S
H3137 C3151 0.941 . S
H3138 C3152 0.939 . S
H3139 C3154 0.940 . S
H3140 C3155 0.940 . S
H3141 C3157 0.939 . S
H3142 C3158 0.942 . S
H3143 C3160 0.940 . S
H3144 C3161 0.939 . S
H3145 C3163 0.941 . S
H3146 C3167 0.939 . S
O3147 P3136 1.490 . S
H3148 C3164 0.939 . S
H3149 C3166 0.940 . S
C3150 P3136 1.812 . S
C3150 C3151 1.389 . S
C3150 C3155 1.391 . S
C3151 H3137 0.941 . S
C3151 C3150 1.389 . S
C3151 C3152 1.397 . S
C3152 H3138 0.939 . S
C3152 C3151 1.397 . S
C3152 C3153 1.378 . S
C3153 C3152 1.378 . S
C3153 C3154 1.378 . S
C3154 H3139 0.940 . S
C3154 C3153 1.378 . S
C3154 C3155 1.396 . S
C3155 H3140 0.940 . S
C3155 C3150 1.391 . S
C3155 C3154 1.396 . S
C3156 P3136 1.803 . S
C3156 C3157 1.378 . S
C3156 C3161 1.400 . S
C3157 H3141 0.939 . S
C3157 C3156 1.378 . S
C3157 C3158 1.361 . S
C3158 H3142 0.942 . S
C3158 C3157 1.361 . S
C3158 C3159 1.369 . S
C3159 C3158 1.369 . S
C3159 C3160 1.404 . S
C3160 H3143 0.940 . S
C3160 C3159 1.404 . S
C3160 C3161 1.389 . S
C3161 H3144 0.939 . S
C3161 C3156 1.400 . S
C3161 C3160 1.389 . S
C3162 P3136 1.819 . S
C3162 C3163 1.391 . S
C3162 C3167 1.391 . S
C3163 H3145 0.941 . S
C3163 C3162 1.391 . S
C3163 C3164 1.396 . S
C3164 H3148 0.939 . S
C3164 C3163 1.396 . S
C3164 C3165 1.397 . S
C3165 C3164 1.397 . S
C3165 C3166 1.385 . S
C3166 H3149 0.940 . S
C3166 C3165 1.385 . S
C3166 C3167 1.388 . S
C3167 H3146 0.939 . S
C3167 C3162 1.391 . S
C3167 C3166 1.388 . S
P3168 O3179 1.490 . S
P3168 C3182 1.812 . S
P3168 C3188 1.803 . S
P3168 C3194 1.819 . S
H3169 C3183 0.941 . S
H3170 C3184 0.939 . S
H3171 C3186 0.940 . S
H3172 C3187 0.940 . S
H3173 C3189 0.939 . S
H3174 C3190 0.942 . S
H3175 C3192 0.940 . S
H3176 C3193 0.939 . S
H3177 C3195 0.941 . S
H3178 C3199 0.939 . S
O3179 P3168 1.490 . S
H3180 C3196 0.939 . S
H3181 C3198 0.940 . S
C3182 P3168 1.812 . S
C3182 C3183 1.389 . S
C3182 C3187 1.391 . S
C3183 H3169 0.941 . S
C3183 C3182 1.389 . S
C3183 C3184 1.397 . S
C3184 H3170 0.939 . S
C3184 C3183 1.397 . S
C3184 C3185 1.378 . S
C3185 C3184 1.378 . S
C3185 C3186 1.378 . S
C3186 H3171 0.940 . S
C3186 C3185 1.378 . S
C3186 C3187 1.396 . S
C3187 H3172 0.940 . S
C3187 C3182 1.391 . S
C3187 C3186 1.396 . S
C3188 P3168 1.803 . S
C3188 C3189 1.378 . S
C3188 C3193 1.400 . S
C3189 H3173 0.939 . S
C3189 C3188 1.378 . S
C3189 C3190 1.361 . S
C3190 H3174 0.942 . S
C3190 C3189 1.361 . S
C3190 C3191 1.369 . S
C3191 C3190 1.369 . S
C3191 C3192 1.404 . S
C3192 H3175 0.940 . S
C3192 C3191 1.404 . S
C3192 C3193 1.389 . S
C3193 H3176 0.939 . S
C3193 C3188 1.400 . S
C3193 C3192 1.389 . S
C3194 P3168 1.819 . S
C3194 C3195 1.391 . S
C3194 C3199 1.391 . S
C3195 H3177 0.941 . S
C3195 C3194 1.391 . S
C3195 C3196 1.396 . S
C3196 H3180 0.939 . S
C3196 C3195 1.396 . S
C3196 C3197 1.397 . S
C3197 C3196 1.397 . S
C3197 C3198 1.385 . S
C3198 H3181 0.940 . S
C3198 C3197 1.385 . S
C3198 C3199 1.388 . S
C3199 H3178 0.939 . S
C3199 C3194 1.391 . S
C3199 C3198 1.388 . S
P3200 O3211 1.490 . S
P3200 C3214 1.812 . S
P3200 C3220 1.803 . S
P3200 C3226 1.819 . S
H3201 C3215 0.941 . S
H3202 C3216 0.939 . S
H3203 C3218 0.940 . S
H3204 C3219 0.940 . S
H3205 C3221 0.939 . S
H3206 C3222 0.942 . S
H3207 C3224 0.940 . S
H3208 C3225 0.939 . S
H3209 C3227 0.941 . S
H3210 C3231 0.939 . S
O3211 P3200 1.490 . S
H3212 C3228 0.939 . S
H3213 C3230 0.940 . S
C3214 P3200 1.812 . S
C3214 C3215 1.389 . S
C3214 C3219 1.391 . S
C3215 H3201 0.941 . S
C3215 C3214 1.389 . S
C3215 C3216 1.397 . S
C3216 H3202 0.939 . S
C3216 C3215 1.397 . S
C3216 C3217 1.378 . S
C3217 C3216 1.378 . S
C3217 C3218 1.378 . S
C3218 H3203 0.940 . S
C3218 C3217 1.378 . S
C3218 C3219 1.396 . S
C3219 H3204 0.940 . S
C3219 C3214 1.391 . S
C3219 C3218 1.396 . S
C3220 P3200 1.803 . S
C3220 C3221 1.378 . S
C3220 C3225 1.400 . S
C3221 H3205 0.939 . S
C3221 C3220 1.378 . S
C3221 C3222 1.361 . S
C3222 H3206 0.942 . S
C3222 C3221 1.361 . S
C3222 C3223 1.369 . S
C3223 C3222 1.369 . S
C3223 C3224 1.404 . S
C3224 H3207 0.940 . S
C3224 C3223 1.404 . S
C3224 C3225 1.389 . S
C3225 H3208 0.939 . S
C3225 C3220 1.400 . S
C3225 C3224 1.389 . S
C3226 P3200 1.819 . S
C3226 C3227 1.391 . S
C3226 C3231 1.391 . S
C3227 H3209 0.941 . S
C3227 C3226 1.391 . S
C3227 C3228 1.396 . S
C3228 H3212 0.939 . S
C3228 C3227 1.396 . S
C3228 C3229 1.397 . S
C3229 C3228 1.397 . S
C3229 C3230 1.385 . S
C3230 H3213 0.940 . S
C3230 C3229 1.385 . S
C3230 C3231 1.388 . S
C3231 H3210 0.939 . S
C3231 C3226 1.391 . S
C3231 C3230 1.388 . S
P3232 O3243 1.490 . S
P3232 C3246 1.812 . S
P3232 C3252 1.803 . S
P3232 C3258 1.819 . S
H3233 C3247 0.941 . S
H3234 C3248 0.939 . S
H3235 C3250 0.940 . S
H3236 C3251 0.940 . S
H3237 C3253 0.939 . S
H3238 C3254 0.942 . S
H3239 C3256 0.940 . S
H3240 C3257 0.939 . S
H3241 C3259 0.941 . S
H3242 C3263 0.939 . S
O3243 P3232 1.490 . S
H3244 C3260 0.939 . S
H3245 C3262 0.940 . S
C3246 P3232 1.812 . S
C3246 C3247 1.389 . S
C3246 C3251 1.391 . S
C3247 H3233 0.941 . S
C3247 C3246 1.389 . S
C3247 C3248 1.397 . S
C3248 H3234 0.939 . S
C3248 C3247 1.397 . S
C3248 C3249 1.378 . S
C3249 C3248 1.378 . S
C3249 C3250 1.378 . S
C3250 H3235 0.940 . S
C3250 C3249 1.378 . S
C3250 C3251 1.396 . S
C3251 H3236 0.940 . S
C3251 C3246 1.391 . S
C3251 C3250 1.396 . S
C3252 P3232 1.803 . S
C3252 C3253 1.378 . S
C3252 C3257 1.400 . S
C3253 H3237 0.939 . S
C3253 C3252 1.378 . S
C3253 C3254 1.361 . S
C3254 H3238 0.942 . S
C3254 C3253 1.361 . S
C3254 C3255 1.369 . S
C3255 C3254 1.369 . S
C3255 C3256 1.404 . S
C3256 H3239 0.940 . S
C3256 C3255 1.404 . S
C3256 C3257 1.389 . S
C3257 H3240 0.939 . S
C3257 C3252 1.400 . S
C3257 C3256 1.389 . S
C3258 P3232 1.819 . S
C3258 C3259 1.391 . S
C3258 C3263 1.391 . S
C3259 H3241 0.941 . S
C3259 C3258 1.391 . S
C3259 C3260 1.396 . S
C3260 H3244 0.939 . S
C3260 C3259 1.396 . S
C3260 C3261 1.397 . S
C3261 C3260 1.397 . S
C3261 C3262 1.385 . S
C3262 H3245 0.940 . S
C3262 C3261 1.385 . S
C3262 C3263 1.388 . S
C3263 H3242 0.939 . S
C3263 C3258 1.391 . S
C3263 C3262 1.388 . S
P3264 O3275 1.490 . S
P3264 C3278 1.812 . S
P3264 C3284 1.803 . S
P3264 C3290 1.819 . S
H3265 C3279 0.941 . S
H3266 C3280 0.939 . S
H3267 C3282 0.940 . S
H3268 C3283 0.940 . S
H3269 C3285 0.939 . S
H3270 C3286 0.942 . S
H3271 C3288 0.940 . S
H3272 C3289 0.939 . S
H3273 C3291 0.941 . S
H3274 C3295 0.939 . S
O3275 P3264 1.490 . S
H3276 C3292 0.939 . S
H3277 C3294 0.940 . S
C3278 P3264 1.812 . S
C3278 C3279 1.389 . S
C3278 C3283 1.391 . S
C3279 H3265 0.941 . S
C3279 C3278 1.389 . S
C3279 C3280 1.397 . S
C3280 H3266 0.939 . S
C3280 C3279 1.397 . S
C3280 C3281 1.378 . S
C3281 C3280 1.378 . S
C3281 C3282 1.378 . S
C3282 H3267 0.940 . S
C3282 C3281 1.378 . S
C3282 C3283 1.396 . S
C3283 H3268 0.940 . S
C3283 C3278 1.391 . S
C3283 C3282 1.396 . S
C3284 P3264 1.803 . S
C3284 C3285 1.378 . S
C3284 C3289 1.400 . S
C3285 H3269 0.939 . S
C3285 C3284 1.378 . S
C3285 C3286 1.361 . S
C3286 H3270 0.942 . S
C3286 C3285 1.361 . S
C3286 C3287 1.369 . S
C3287 C3286 1.369 . S
C3287 C3288 1.404 . S
C3288 H3271 0.940 . S
C3288 C3287 1.404 . S
C3288 C3289 1.389 . S
C3289 H3272 0.939 . S
C3289 C3284 1.400 . S
C3289 C3288 1.389 . S
C3290 P3264 1.819 . S
C3290 C3291 1.391 . S
C3290 C3295 1.391 . S
C3291 H3273 0.941 . S
C3291 C3290 1.391 . S
C3291 C3292 1.396 . S
C3292 H3276 0.939 . S
C3292 C3291 1.396 . S
C3292 C3293 1.397 . S
C3293 C3292 1.397 . S
C3293 C3294 1.385 . S
C3294 H3277 0.940 . S
C3294 C3293 1.385 . S
C3294 C3295 1.388 . S
C3295 H3274 0.939 . S
C3295 C3290 1.391 . S
C3295 C3294 1.388 . S
P3296 O3307 1.490 . S
P3296 C3310 1.812 . S
P3296 C3316 1.803 . S
P3296 C3322 1.819 . S
H3297 C3311 0.941 . S
H3298 C3312 0.939 . S
H3299 C3314 0.940 . S
H3300 C3315 0.940 . S
H3301 C3317 0.939 . S
H3302 C3318 0.942 . S
H3303 C3320 0.940 . S
H3304 C3321 0.939 . S
H3305 C3323 0.941 . S
H3306 C3327 0.939 . S
O3307 P3296 1.490 . S
H3308 C3324 0.939 . S
H3309 C3326 0.940 . S
C3310 P3296 1.812 . S
C3310 C3311 1.389 . S
C3310 C3315 1.391 . S
C3311 H3297 0.941 . S
C3311 C3310 1.389 . S
C3311 C3312 1.397 . S
C3312 H3298 0.939 . S
C3312 C3311 1.397 . S
C3312 C3313 1.378 . S
C3313 C3312 1.378 . S
C3313 C3314 1.378 . S
C3314 H3299 0.940 . S
C3314 C3313 1.378 . S
C3314 C3315 1.396 . S
C3315 H3300 0.940 . S
C3315 C3310 1.391 . S
C3315 C3314 1.396 . S
C3316 P3296 1.803 . S
C3316 C3317 1.378 . S
C3316 C3321 1.400 . S
C3317 H3301 0.939 . S
C3317 C3316 1.378 . S
C3317 C3318 1.361 . S
C3318 H3302 0.942 . S
C3318 C3317 1.361 . S
C3318 C3319 1.369 . S
C3319 C3318 1.369 . S
C3319 C3320 1.404 . S
C3320 H3303 0.940 . S
C3320 C3319 1.404 . S
C3320 C3321 1.389 . S
C3321 H3304 0.939 . S
C3321 C3316 1.400 . S
C3321 C3320 1.389 . S
C3322 P3296 1.819 . S
C3322 C3323 1.391 . S
C3322 C3327 1.391 . S
C3323 H3305 0.941 . S
C3323 C3322 1.391 . S
C3323 C3324 1.396 . S
C3324 H3308 0.939 . S
C3324 C3323 1.396 . S
C3324 C3325 1.397 . S
C3325 C3324 1.397 . S
C3325 C3326 1.385 . S
C3326 H3309 0.940 . S
C3326 C3325 1.385 . S
C3326 C3327 1.388 . S
C3327 H3306 0.939 . S
C3327 C3322 1.391 . S
C3327 C3326 1.388 . S
P3328 O3339 1.490 . S
P3328 C3342 1.812 . S
P3328 C3348 1.803 . S
P3328 C3354 1.819 . S
H3329 C3343 0.941 . S
H3330 C3344 0.939 . S
H3331 C3346 0.940 . S
H3332 C3347 0.940 . S
H3333 C3349 0.939 . S
H3334 C3350 0.942 . S
H3335 C3352 0.940 . S
H3336 C3353 0.939 . S
H3337 C3355 0.941 . S
H3338 C3359 0.939 . S
O3339 P3328 1.490 . S
H3340 C3356 0.939 . S
H3341 C3358 0.940 . S
C3342 P3328 1.812 . S
C3342 C3343 1.389 . S
C3342 C3347 1.391 . S
C3343 H3329 0.941 . S
C3343 C3342 1.389 . S
C3343 C3344 1.397 . S
C3344 H3330 0.939 . S
C3344 C3343 1.397 . S
C3344 C3345 1.378 . S
C3345 C3344 1.378 . S
C3345 C3346 1.378 . S
C3346 H3331 0.940 . S
C3346 C3345 1.378 . S
C3346 C3347 1.396 . S
C3347 H3332 0.940 . S
C3347 C3342 1.391 . S
C3347 C3346 1.396 . S
C3348 P3328 1.803 . S
C3348 C3349 1.378 . S
C3348 C3353 1.400 . S
C3349 H3333 0.939 . S
C3349 C3348 1.378 . S
C3349 C3350 1.361 . S
C3350 H3334 0.942 . S
C3350 C3349 1.361 . S
C3350 C3351 1.369 . S
C3351 C3350 1.369 . S
C3351 C3352 1.404 . S
C3352 H3335 0.940 . S
C3352 C3351 1.404 . S
C3352 C3353 1.389 . S
C3353 H3336 0.939 . S
C3353 C3348 1.400 . S
C3353 C3352 1.389 . S
C3354 P3328 1.819 . S
C3354 C3355 1.391 . S
C3354 C3359 1.391 . S
C3355 H3337 0.941 . S
C3355 C3354 1.391 . S
C3355 C3356 1.396 . S
C3356 H3340 0.939 . S
C3356 C3355 1.396 . S
C3356 C3357 1.397 . S
C3357 C3356 1.397 . S
C3357 C3358 1.385 . S
C3358 H3341 0.940 . S
C3358 C3357 1.385 . S
C3358 C3359 1.388 . S
C3359 H3338 0.939 . S
C3359 C3354 1.391 . S
C3359 C3358 1.388 . S
P3360 O3371 1.490 . S
P3360 C3374 1.812 . S
P3360 C3380 1.803 . S
P3360 C3386 1.819 . S
H3361 C3375 0.941 . S
H3362 C3376 0.939 . S
H3363 C3378 0.940 . S
H3364 C3379 0.940 . S
H3365 C3381 0.939 . S
H3366 C3382 0.942 . S
H3367 C3384 0.940 . S
H3368 C3385 0.939 . S
H3369 C3387 0.941 . S
H3370 C3391 0.939 . S
O3371 P3360 1.490 . S
H3372 C3388 0.939 . S
H3373 C3390 0.940 . S
C3374 P3360 1.812 . S
C3374 C3375 1.389 . S
C3374 C3379 1.391 . S
C3375 H3361 0.941 . S
C3375 C3374 1.389 . S
C3375 C3376 1.397 . S
C3376 H3362 0.939 . S
C3376 C3375 1.397 . S
C3376 C3377 1.378 . S
C3377 C3376 1.378 . S
C3377 C3378 1.378 . S
C3378 H3363 0.940 . S
C3378 C3377 1.378 . S
C3378 C3379 1.396 . S
C3379 H3364 0.940 . S
C3379 C3374 1.391 . S
C3379 C3378 1.396 . S
C3380 P3360 1.803 . S
C3380 C3381 1.378 . S
C3380 C3385 1.400 . S
C3381 H3365 0.939 . S
C3381 C3380 1.378 . S
C3381 C3382 1.361 . S
C3382 H3366 0.942 . S
C3382 C3381 1.361 . S
C3382 C3383 1.369 . S
C3383 C3382 1.369 . S
C3383 C3384 1.404 . S
C3384 H3367 0.940 . S
C3384 C3383 1.404 . S
C3384 C3385 1.389 . S
C3385 H3368 0.939 . S
C3385 C3380 1.400 . S
C3385 C3384 1.389 . S
C3386 P3360 1.819 . S
C3386 C3387 1.391 . S
C3386 C3391 1.391 . S
C3387 H3369 0.941 . S
C3387 C3386 1.391 . S
C3387 C3388 1.396 . S
C3388 H3372 0.939 . S
C3388 C3387 1.396 . S
C3388 C3389 1.397 . S
C3389 C3388 1.397 . S
C3389 C3390 1.385 . S
C3390 H3373 0.940 . S
C3390 C3389 1.385 . S
C3390 C3391 1.388 . S
C3391 H3370 0.939 . S
C3391 C3386 1.391 . S
C3391 C3390 1.388 . S
P3392 O3403 1.490 . S
P3392 C3406 1.812 . S
P3392 C3412 1.803 . S
P3392 C3418 1.819 . S
H3393 C3407 0.941 . S
H3394 C3408 0.939 . S
H3395 C3410 0.940 . S
H3396 C3411 0.940 . S
H3397 C3413 0.939 . S
H3398 C3414 0.942 . S
H3399 C3416 0.940 . S
H3400 C3417 0.939 . S
H3401 C3419 0.941 . S
H3402 C3423 0.939 . S
O3403 P3392 1.490 . S
H3404 C3420 0.939 . S
H3405 C3422 0.940 . S
C3406 P3392 1.812 . S
C3406 C3407 1.389 . S
C3406 C3411 1.391 . S
C3407 H3393 0.941 . S
C3407 C3406 1.389 . S
C3407 C3408 1.397 . S
C3408 H3394 0.939 . S
C3408 C3407 1.397 . S
C3408 C3409 1.378 . S
C3409 C3408 1.378 . S
C3409 C3410 1.378 . S
C3410 H3395 0.940 . S
C3410 C3409 1.378 . S
C3410 C3411 1.396 . S
C3411 H3396 0.940 . S
C3411 C3406 1.391 . S
C3411 C3410 1.396 . S
C3412 P3392 1.803 . S
C3412 C3413 1.378 . S
C3412 C3417 1.400 . S
C3413 H3397 0.939 . S
C3413 C3412 1.378 . S
C3413 C3414 1.361 . S
C3414 H3398 0.942 . S
C3414 C3413 1.361 . S
C3414 C3415 1.369 . S
C3415 C3414 1.369 . S
C3415 C3416 1.404 . S
C3416 H3399 0.940 . S
C3416 C3415 1.404 . S
C3416 C3417 1.389 . S
C3417 H3400 0.939 . S
C3417 C3412 1.400 . S
C3417 C3416 1.389 . S
C3418 P3392 1.819 . S
C3418 C3419 1.391 . S
C3418 C3423 1.391 . S
C3419 H3401 0.941 . S
C3419 C3418 1.391 . S
C3419 C3420 1.396 . S
C3420 H3404 0.939 . S
C3420 C3419 1.396 . S
C3420 C3421 1.397 . S
C3421 C3420 1.397 . S
C3421 C3422 1.385 . S
C3422 H3405 0.940 . S
C3422 C3421 1.385 . S
C3422 C3423 1.388 . S
C3423 H3402 0.939 . S
C3423 C3418 1.391 . S
C3423 C3422 1.388 . S
P3424 O3435 1.490 . S
P3424 C3438 1.812 . S
P3424 C3444 1.803 . S
P3424 C3450 1.819 . S
H3425 C3439 0.941 . S
H3426 C3440 0.939 . S
H3427 C3442 0.940 . S
H3428 C3443 0.940 . S
H3429 C3445 0.939 . S
H3430 C3446 0.942 . S
H3431 C3448 0.940 . S
H3432 C3449 0.939 . S
H3433 C3451 0.941 . S
H3434 C3455 0.939 . S
O3435 P3424 1.490 . S
H3436 C3452 0.939 . S
H3437 C3454 0.940 . S
C3438 P3424 1.812 . S
C3438 C3439 1.389 . S
C3438 C3443 1.391 . S
C3439 H3425 0.941 . S
C3439 C3438 1.389 . S
C3439 C3440 1.397 . S
C3440 H3426 0.939 . S
C3440 C3439 1.397 . S
C3440 C3441 1.378 . S
C3441 C3440 1.378 . S
C3441 C3442 1.378 . S
C3442 H3427 0.940 . S
C3442 C3441 1.378 . S
C3442 C3443 1.396 . S
C3443 H3428 0.940 . S
C3443 C3438 1.391 . S
C3443 C3442 1.396 . S
C3444 P3424 1.803 . S
C3444 C3445 1.378 . S
C3444 C3449 1.400 . S
C3445 H3429 0.939 . S
C3445 C3444 1.378 . S
C3445 C3446 1.361 . S
C3446 H3430 0.942 . S
C3446 C3445 1.361 . S
C3446 C3447 1.369 . S
C3447 C3446 1.369 . S
C3447 C3448 1.404 . S
C3448 H3431 0.940 . S
C3448 C3447 1.404 . S
C3448 C3449 1.389 . S
C3449 H3432 0.939 . S
C3449 C3444 1.400 . S
C3449 C3448 1.389 . S
C3450 P3424 1.819 . S
C3450 C3451 1.391 . S
C3450 C3455 1.391 . S
C3451 H3433 0.941 . S
C3451 C3450 1.391 . S
C3451 C3452 1.396 . S
C3452 H3436 0.939 . S
C3452 C3451 1.396 . S
C3452 C3453 1.397 . S
C3453 C3452 1.397 . S
C3453 C3454 1.385 . S
C3454 H3437 0.940 . S
C3454 C3453 1.385 . S
C3454 C3455 1.388 . S
C3455 H3434 0.939 . S
C3455 C3450 1.391 . S
C3455 C3454 1.388 . S
H3456 C3464 0.929 . S
H3457 C3466 0.930 . S
H3458 C3468 0.930 . S
H3459 C3471 0.929 . S
H3460 C3474 0.930 . S
H3461 C3476 0.960 . S
H3462 C3476 0.960 . S
H3463 C3476 0.960 . S
C3464 H3456 0.929 . S
C3464 C3465 1.377 . S
C3464 C3466 1.384 . S
C3465 C3464 1.377 . S
C3465 C3471 1.390 . S
C3466 H3457 0.930 . S
C3466 C3464 1.384 . S
C3466 C3467 1.372 . S
C3467 C3466 1.372 . S
C3467 C3468 1.400 . S
C3467 C3472 1.490 . S
C3468 H3458 0.930 . S
C3468 C3467 1.400 . S
C3468 C3471 1.386 . S
H3469 C3485 0.930 . S
H3470 C3486 0.931 . S
C3471 H3459 0.929 . S
C3471 C3465 1.390 . S
C3471 C3468 1.386 . S
C3472 C3467 1.490 . S
C3472 C3474 1.395 . S
C3472 C3475 1.403 . S
H3473 C3479 0.930 . S
C3474 H3460 0.930 . S
C3474 C3472 1.395 . S
C3474 C3477 1.403 . S
C3475 C3472 1.403 . S
C3475 C3476 1.524 . S
C3475 C3479 1.400 . S
C3476 H3461 0.960 . S
C3476 H3462 0.960 . S
C3476 H3463 0.960 . S
C3476 C3475 1.524 . S
C3477 C3474 1.403 . S
C3477 C3478 1.392 . S
C3477 C3481 1.495 . S
C3478 C3477 1.392 . S
C3478 C3479 1.385 . S
C3478 C3480 1.478 . S
C3479 H3473 0.930 . S
C3479 C3475 1.400 . S
C3479 C3478 1.385 . S
C3480 C3478 1.478 . S
C3480 C3482 1.381 . S
C3480 C3486 1.383 . S
C3481 C3477 1.495 . S
C3481 H3487 0.959 . S
C3481 H3488 0.961 . S
C3481 H3489 0.960 . S
C3482 C3480 1.381 . S
C3482 C3483 1.394 . S
C3482 H3490 0.930 . S
C3483 C3482 1.394 . S
C3483 C3484 1.383 . S
C3483 H3491 0.929 . S
C3484 C3483 1.383 . S
C3484 C3485 1.377 . S
C3485 H3469 0.930 . S
C3485 C3484 1.377 . S
C3485 C3486 1.379 . S
C3486 H3470 0.931 . S
C3486 C3480 1.383 . S
C3486 C3485 1.379 . S
H3487 C3481 0.959 . S
H3488 C3481 0.961 . S
H3489 C3481 0.960 . S
H3490 C3482 0.930 . S
H3491 C3483 0.929 . S
H3492 C3500 0.929 . S
H3493 C3502 0.930 . S
H3494 C3504 0.930 . S
H3495 C3507 0.929 . S
H3496 C3510 0.930 . S
H3497 C3512 0.960 . S
H3498 C3512 0.960 . S
H3499 C3512 0.960 . S
C3500 H3492 0.929 . S
C3500 C3501 1.377 . S
C3500 C3502 1.384 . S
C3501 C3500 1.377 . S
C3501 C3507 1.390 . S
C3502 H3493 0.930 . S
C3502 C3500 1.384 . S
C3502 C3503 1.372 . S
C3503 C3502 1.372 . S
C3503 C3504 1.400 . S
C3503 C3508 1.490 . S
C3504 H3494 0.930 . S
C3504 C3503 1.400 . S
C3504 C3507 1.386 . S
H3505 C3521 0.930 . S
H3506 C3522 0.931 . S
C3507 H3495 0.929 . S
C3507 C3501 1.390 . S
C3507 C3504 1.386 . S
C3508 C3503 1.490 . S
C3508 C3510 1.395 . S
C3508 C3511 1.403 . S
H3509 C3515 0.930 . S
C3510 H3496 0.930 . S
C3510 C3508 1.395 . S
C3510 C3513 1.403 . S
C3511 C3508 1.403 . S
C3511 C3512 1.524 . S
C3511 C3515 1.400 . S
C3512 H3497 0.960 . S
C3512 H3498 0.960 . S
C3512 H3499 0.960 . S
C3512 C3511 1.524 . S
C3513 C3510 1.403 . S
C3513 C3514 1.392 . S
C3513 C3517 1.495 . S
C3514 C3513 1.392 . S
C3514 C3515 1.385 . S
C3514 C3516 1.478 . S
C3515 H3509 0.930 . S
C3515 C3511 1.400 . S
C3515 C3514 1.385 . S
C3516 C3514 1.478 . S
C3516 C3518 1.381 . S
C3516 C3522 1.383 . S
C3517 C3513 1.495 . S
C3517 H3523 0.959 . S
C3517 H3524 0.961 . S
C3517 H3525 0.960 . S
C3518 C3516 1.381 . S
C3518 C3519 1.394 . S
C3518 H3526 0.930 . S
C3519 C3518 1.394 . S
C3519 C3520 1.383 . S
C3519 H3527 0.929 . S
C3520 C3519 1.383 . S
C3520 C3521 1.377 . S
C3521 H3505 0.930 . S
C3521 C3520 1.377 . S
C3521 C3522 1.379 . S
C3522 H3506 0.931 . S
C3522 C3516 1.383 . S
C3522 C3521 1.379 . S
H3523 C3517 0.959 . S
H3524 C3517 0.961 . S
H3525 C3517 0.960 . S
H3526 C3518 0.930 . S
H3527 C3519 0.929 . S
H3528 C3536 0.929 . S
H3529 C3538 0.930 . S
H3530 C3540 0.930 . S
H3531 C3543 0.929 . S
H3532 C3546 0.930 . S
H3533 C3548 0.960 . S
H3534 C3548 0.960 . S
H3535 C3548 0.960 . S
C3536 H3528 0.929 . S
C3536 C3537 1.377 . S
C3536 C3538 1.384 . S
C3537 C3536 1.377 . S
C3537 C3543 1.390 . S
C3538 H3529 0.930 . S
C3538 C3536 1.384 . S
C3538 C3539 1.372 . S
C3539 C3538 1.372 . S
C3539 C3540 1.400 . S
C3539 C3544 1.490 . S
C3540 H3530 0.930 . S
C3540 C3539 1.400 . S
C3540 C3543 1.386 . S
H3541 C3557 0.930 . S
H3542 C3558 0.931 . S
C3543 H3531 0.929 . S
C3543 C3537 1.390 . S
C3543 C3540 1.386 . S
C3544 C3539 1.490 . S
C3544 C3546 1.395 . S
C3544 C3547 1.403 . S
H3545 C3551 0.930 . S
C3546 H3532 0.930 . S
C3546 C3544 1.395 . S
C3546 C3549 1.403 . S
C3547 C3544 1.403 . S
C3547 C3548 1.524 . S
C3547 C3551 1.400 . S
C3548 H3533 0.960 . S
C3548 H3534 0.960 . S
C3548 H3535 0.960 . S
C3548 C3547 1.524 . S
C3549 C3546 1.403 . S
C3549 C3550 1.392 . S
C3549 C3553 1.495 . S
C3550 C3549 1.392 . S
C3550 C3551 1.385 . S
C3550 C3552 1.478 . S
C3551 H3545 0.930 . S
C3551 C3547 1.400 . S
C3551 C3550 1.385 . S
C3552 C3550 1.478 . S
C3552 C3554 1.381 . S
C3552 C3558 1.383 . S
C3553 C3549 1.495 . S
C3553 H3559 0.959 . S
C3553 H3560 0.961 . S
C3553 H3561 0.960 . S
C3554 C3552 1.381 . S
C3554 C3555 1.394 . S
C3554 H3562 0.930 . S
C3555 C3554 1.394 . S
C3555 C3556 1.383 . S
C3555 H3563 0.929 . S
C3556 C3555 1.383 . S
C3556 C3557 1.377 . S
C3557 H3541 0.930 . S
C3557 C3556 1.377 . S
C3557 C3558 1.379 . S
C3558 H3542 0.931 . S
C3558 C3552 1.383 . S
C3558 C3557 1.379 . S
H3559 C3553 0.959 . S
H3560 C3553 0.961 . S
H3561 C3553 0.960 . S
H3562 C3554 0.930 . S
H3563 C3555 0.929 . S
H3564 C3572 0.929 . S
H3565 C3574 0.930 . S
H3566 C3576 0.930 . S
H3567 C3579 0.929 . S
H3568 C3582 0.930 . S
H3569 C3584 0.960 . S
H3570 C3584 0.960 . S
H3571 C3584 0.960 . S
C3572 H3564 0.929 . S
C3572 C3573 1.377 . S
C3572 C3574 1.384 . S
C3573 C3572 1.377 . S
C3573 C3579 1.390 . S
C3574 H3565 0.930 . S
C3574 C3572 1.384 . S
C3574 C3575 1.372 . S
C3575 C3574 1.372 . S
C3575 C3576 1.400 . S
C3575 C3580 1.490 . S
C3576 H3566 0.930 . S
C3576 C3575 1.400 . S
C3576 C3579 1.386 . S
H3577 C3593 0.930 . S
H3578 C3594 0.931 . S
C3579 H3567 0.929 . S
C3579 C3573 1.390 . S
C3579 C3576 1.386 . S
C3580 C3575 1.490 . S
C3580 C3582 1.395 . S
C3580 C3583 1.403 . S
H3581 C3587 0.930 . S
C3582 H3568 0.930 . S
C3582 C3580 1.395 . S
C3582 C3585 1.403 . S
C3583 C3580 1.403 . S
C3583 C3584 1.524 . S
C3583 C3587 1.400 . S
C3584 H3569 0.960 . S
C3584 H3570 0.960 . S
C3584 H3571 0.960 . S
C3584 C3583 1.524 . S
C3585 C3582 1.403 . S
C3585 C3586 1.392 . S
C3585 C3589 1.495 . S
C3586 C3585 1.392 . S
C3586 C3587 1.385 . S
C3586 C3588 1.478 . S
C3587 H3581 0.930 . S
C3587 C3583 1.400 . S
C3587 C3586 1.385 . S
C3588 C3586 1.478 . S
C3588 C3590 1.381 . S
C3588 C3594 1.383 . S
C3589 C3585 1.495 . S
C3589 H3595 0.959 . S
C3589 H3596 0.961 . S
C3589 H3597 0.960 . S
C3590 C3588 1.381 . S
C3590 C3591 1.394 . S
C3590 H3598 0.930 . S
C3591 C3590 1.394 . S
C3591 C3592 1.383 . S
C3591 H3599 0.929 . S
C3592 C3591 1.383 . S
C3592 C3593 1.377 . S
C3593 H3577 0.930 . S
C3593 C3592 1.377 . S
C3593 C3594 1.379 . S
C3594 H3578 0.931 . S
C3594 C3588 1.383 . S
C3594 C3593 1.379 . S
H3595 C3589 0.959 . S
H3596 C3589 0.961 . S
H3597 C3589 0.960 . S
H3598 C3590 0.930 . S
H3599 C3591 0.929 . S
H3600 C3608 0.929 . S
H3601 C3610 0.930 . S
H3602 C3612 0.930 . S
H3603 C3615 0.929 . S
H3604 C3618 0.930 . S
H3605 C3620 0.960 . S
H3606 C3620 0.960 . S
H3607 C3620 0.960 . S
C3608 H3600 0.929 . S
C3608 C3609 1.377 . S
C3608 C3610 1.384 . S
C3609 C3608 1.377 . S
C3609 C3615 1.390 . S
C3610 H3601 0.930 . S
C3610 C3608 1.384 . S
C3610 C3611 1.372 . S
C3611 C3610 1.372 . S
C3611 C3612 1.400 . S
C3611 C3616 1.490 . S
C3612 H3602 0.930 . S
C3612 C3611 1.400 . S
C3612 C3615 1.386 . S
H3613 C3629 0.930 . S
H3614 C3630 0.931 . S
C3615 H3603 0.929 . S
C3615 C3609 1.390 . S
C3615 C3612 1.386 . S
C3616 C3611 1.490 . S
C3616 C3618 1.395 . S
C3616 C3619 1.403 . S
H3617 C3623 0.930 . S
C3618 H3604 0.930 . S
C3618 C3616 1.395 . S
C3618 C3621 1.403 . S
C3619 C3616 1.403 . S
C3619 C3620 1.524 . S
C3619 C3623 1.400 . S
C3620 H3605 0.960 . S
C3620 H3606 0.960 . S
C3620 H3607 0.960 . S
C3620 C3619 1.524 . S
C3621 C3618 1.403 . S
C3621 C3622 1.392 . S
C3621 C3625 1.495 . S
C3622 C3621 1.392 . S
C3622 C3623 1.385 . S
C3622 C3624 1.478 . S
C3623 H3617 0.930 . S
C3623 C3619 1.400 . S
C3623 C3622 1.385 . S
C3624 C3622 1.478 . S
C3624 C3626 1.381 . S
C3624 C3630 1.383 . S
C3625 C3621 1.495 . S
C3625 H3631 0.959 . S
C3625 H3632 0.961 . S
C3625 H3633 0.960 . S
C3626 C3624 1.381 . S
C3626 C3627 1.394 . S
C3626 H3634 0.930 . S
C3627 C3626 1.394 . S
C3627 C3628 1.383 . S
C3627 H3635 0.929 . S
C3628 C3627 1.383 . S
C3628 C3629 1.377 . S
C3629 H3613 0.930 . S
C3629 C3628 1.377 . S
C3629 C3630 1.379 . S
C3630 H3614 0.931 . S
C3630 C3624 1.383 . S
C3630 C3629 1.379 . S
H3631 C3625 0.959 . S
H3632 C3625 0.961 . S
H3633 C3625 0.960 . S
H3634 C3626 0.930 . S
H3635 C3627 0.929 . S
H3636 C3644 0.929 . S
H3637 C3646 0.930 . S
H3638 C3648 0.930 . S
H3639 C3651 0.929 . S
H3640 C3654 0.930 . S
H3641 C3656 0.960 . S
H3642 C3656 0.960 . S
H3643 C3656 0.960 . S
C3644 H3636 0.929 . S
C3644 C3645 1.377 . S
C3644 C3646 1.384 . S
C3645 C3644 1.377 . S
C3645 C3651 1.390 . S
C3646 H3637 0.930 . S
C3646 C3644 1.384 . S
C3646 C3647 1.372 . S
C3647 C3646 1.372 . S
C3647 C3648 1.400 . S
C3647 C3652 1.490 . S
C3648 H3638 0.930 . S
C3648 C3647 1.400 . S
C3648 C3651 1.386 . S
H3649 C3665 0.930 . S
H3650 C3666 0.931 . S
C3651 H3639 0.929 . S
C3651 C3645 1.390 . S
C3651 C3648 1.386 . S
C3652 C3647 1.490 . S
C3652 C3654 1.395 . S
C3652 C3655 1.403 . S
H3653 C3659 0.930 . S
C3654 H3640 0.930 . S
C3654 C3652 1.395 . S
C3654 C3657 1.403 . S
C3655 C3652 1.403 . S
C3655 C3656 1.524 . S
C3655 C3659 1.400 . S
C3656 H3641 0.960 . S
C3656 H3642 0.960 . S
C3656 H3643 0.960 . S
C3656 C3655 1.524 . S
C3657 C3654 1.403 . S
C3657 C3658 1.392 . S
C3657 C3661 1.495 . S
C3658 C3657 1.392 . S
C3658 C3659 1.385 . S
C3658 C3660 1.478 . S
C3659 H3653 0.930 . S
C3659 C3655 1.400 . S
C3659 C3658 1.385 . S
C3660 C3658 1.478 . S
C3660 C3662 1.381 . S
C3660 C3666 1.383 . S
C3661 C3657 1.495 . S
C3661 H3667 0.959 . S
C3661 H3668 0.961 . S
C3661 H3669 0.960 . S
C3662 C3660 1.381 . S
C3662 C3663 1.394 . S
C3662 H3670 0.930 . S
C3663 C3662 1.394 . S
C3663 C3664 1.383 . S
C3663 H3671 0.929 . S
C3664 C3663 1.383 . S
C3664 C3665 1.377 . S
C3665 H3649 0.930 . S
C3665 C3664 1.377 . S
C3665 C3666 1.379 . S
C3666 H3650 0.931 . S
C3666 C3660 1.383 . S
C3666 C3665 1.379 . S
H3667 C3661 0.959 . S
H3668 C3661 0.961 . S
H3669 C3661 0.960 . S
H3670 C3662 0.930 . S
H3671 C3663 0.929 . S
H3672 C3680 0.929 . S
H3673 C3682 0.930 . S
H3674 C3684 0.930 . S
H3675 C3687 0.929 . S
H3676 C3690 0.930 . S
H3677 C3692 0.960 . S
H3678 C3692 0.960 . S
H3679 C3692 0.960 . S
C3680 H3672 0.929 . S
C3680 C3681 1.377 . S
C3680 C3682 1.384 . S
C3681 C3680 1.377 . S
C3681 C3687 1.390 . S
C3682 H3673 0.930 . S
C3682 C3680 1.384 . S
C3682 C3683 1.372 . S
C3683 C3682 1.372 . S
C3683 C3684 1.400 . S
C3683 C3688 1.490 . S
C3684 H3674 0.930 . S
C3684 C3683 1.400 . S
C3684 C3687 1.386 . S
H3685 C3701 0.930 . S
H3686 C3702 0.931 . S
C3687 H3675 0.929 . S
C3687 C3681 1.390 . S
C3687 C3684 1.386 . S
C3688 C3683 1.490 . S
C3688 C3690 1.395 . S
C3688 C3691 1.403 . S
H3689 C3695 0.930 . S
C3690 H3676 0.930 . S
C3690 C3688 1.395 . S
C3690 C3693 1.403 . S
C3691 C3688 1.403 . S
C3691 C3692 1.524 . S
C3691 C3695 1.400 . S
C3692 H3677 0.960 . S
C3692 H3678 0.960 . S
C3692 H3679 0.960 . S
C3692 C3691 1.524 . S
C3693 C3690 1.403 . S
C3693 C3694 1.392 . S
C3693 C3697 1.495 . S
C3694 C3693 1.392 . S
C3694 C3695 1.385 . S
C3694 C3696 1.478 . S
C3695 H3689 0.930 . S
C3695 C3691 1.400 . S
C3695 C3694 1.385 . S
C3696 C3694 1.478 . S
C3696 C3698 1.381 . S
C3696 C3702 1.383 . S
C3697 C3693 1.495 . S
C3697 H3703 0.959 . S
C3697 H3704 0.961 . S
C3697 H3705 0.960 . S
C3698 C3696 1.381 . S
C3698 C3699 1.394 . S
C3698 H3706 0.930 . S
C3699 C3698 1.394 . S
C3699 C3700 1.383 . S
C3699 H3707 0.929 . S
C3700 C3699 1.383 . S
C3700 C3701 1.377 . S
C3701 H3685 0.930 . S
C3701 C3700 1.377 . S
C3701 C3702 1.379 . S
C3702 H3686 0.931 . S
C3702 C3696 1.383 . S
C3702 C3701 1.379 . S
H3703 C3697 0.959 . S
H3704 C3697 0.961 . S
H3705 C3697 0.960 . S
H3706 C3698 0.930 . S
H3707 C3699 0.929 . S
H3708 C3716 0.929 . S
H3709 C3718 0.930 . S
H3710 C3720 0.930 . S
H3711 C3723 0.929 . S
H3712 C3726 0.930 . S
H3713 C3728 0.960 . S
H3714 C3728 0.960 . S
H3715 C3728 0.960 . S
C3716 H3708 0.929 . S
C3716 C3717 1.377 . S
C3716 C3718 1.384 . S
C3717 C3716 1.377 . S
C3717 C3723 1.390 . S
C3718 H3709 0.930 . S
C3718 C3716 1.384 . S
C3718 C3719 1.372 . S
C3719 C3718 1.372 . S
C3719 C3720 1.400 . S
C3719 C3724 1.490 . S
C3720 H3710 0.930 . S
C3720 C3719 1.400 . S
C3720 C3723 1.386 . S
H3721 C3737 0.930 . S
H3722 C3738 0.931 . S
C3723 H3711 0.929 . S
C3723 C3717 1.390 . S
C3723 C3720 1.386 . S
C3724 C3719 1.490 . S
C3724 C3726 1.395 . S
C3724 C3727 1.403 . S
H3725 C3731 0.930 . S
C3726 H3712 0.930 . S
C3726 C3724 1.395 . S
C3726 C3729 1.403 . S
C3727 C3724 1.403 . S
C3727 C3728 1.524 . S
C3727 C3731 1.400 . S
C3728 H3713 0.960 . S
C3728 H3714 0.960 . S
C3728 H3715 0.960 . S
C3728 C3727 1.524 . S
C3729 C3726 1.403 . S
C3729 C3730 1.392 . S
C3729 C3733 1.495 . S
C3730 C3729 1.392 . S
C3730 C3731 1.385 . S
C3730 C3732 1.478 . S
C3731 H3725 0.930 . S
C3731 C3727 1.400 . S
C3731 C3730 1.385 . S
C3732 C3730 1.478 . S
C3732 C3734 1.381 . S
C3732 C3738 1.383 . S
C3733 C3729 1.495 . S
C3733 H3739 0.959 . S
C3733 H3740 0.961 . S
C3733 H3741 0.960 . S
C3734 C3732 1.381 . S
C3734 C3735 1.394 . S
C3734 H3742 0.930 . S
C3735 C3734 1.394 . S
C3735 C3736 1.383 . S
C3735 H3743 0.929 . S
C3736 C3735 1.383 . S
C3736 C3737 1.377 . S
C3737 H3721 0.930 . S
C3737 C3736 1.377 . S
C3737 C3738 1.379 . S
C3738 H3722 0.931 . S
C3738 C3732 1.383 . S
C3738 C3737 1.379 . S
H3739 C3733 0.959 . S
H3740 C3733 0.961 . S
H3741 C3733 0.960 . S
H3742 C3734 0.930 . S
H3743 C3735 0.929 . S
H3744 C3752 0.929 . S
H3745 C3754 0.930 . S
H3746 C3756 0.930 . S
H3747 C3759 0.929 . S
H3748 C3762 0.930 . S
H3749 C3764 0.960 . S
H3750 C3764 0.960 . S
H3751 C3764 0.960 . S
C3752 H3744 0.929 . S
C3752 C3753 1.377 . S
C3752 C3754 1.384 . S
C3753 C3752 1.377 . S
C3753 C3759 1.390 . S
C3754 H3745 0.930 . S
C3754 C3752 1.384 . S
C3754 C3755 1.372 . S
C3755 C3754 1.372 . S
C3755 C3756 1.400 . S
C3755 C3760 1.490 . S
C3756 H3746 0.930 . S
C3756 C3755 1.400 . S
C3756 C3759 1.386 . S
H3757 C3773 0.930 . S
H3758 C3774 0.931 . S
C3759 H3747 0.929 . S
C3759 C3753 1.390 . S
C3759 C3756 1.386 . S
C3760 C3755 1.490 . S
C3760 C3762 1.395 . S
C3760 C3763 1.403 . S
H3761 C3767 0.930 . S
C3762 H3748 0.930 . S
C3762 C3760 1.395 . S
C3762 C3765 1.403 . S
C3763 C3760 1.403 . S
C3763 C3764 1.524 . S
C3763 C3767 1.400 . S
C3764 H3749 0.960 . S
C3764 H3750 0.960 . S
C3764 H3751 0.960 . S
C3764 C3763 1.524 . S
C3765 C3762 1.403 . S
C3765 C3766 1.392 . S
C3765 C3769 1.495 . S
C3766 C3765 1.392 . S
C3766 C3767 1.385 . S
C3766 C3768 1.478 . S
C3767 H3761 0.930 . S
C3767 C3763 1.400 . S
C3767 C3766 1.385 . S
C3768 C3766 1.478 . S
C3768 C3770 1.381 . S
C3768 C3774 1.383 . S
C3769 C3765 1.495 . S
C3769 H3775 0.959 . S
C3769 H3776 0.961 . S
C3769 H3777 0.960 . S
C3770 C3768 1.381 . S
C3770 C3771 1.394 . S
C3770 H3778 0.930 . S
C3771 C3770 1.394 . S
C3771 C3772 1.383 . S
C3771 H3779 0.929 . S
C3772 C3771 1.383 . S
C3772 C3773 1.377 . S
C3773 H3757 0.930 . S
C3773 C3772 1.377 . S
C3773 C3774 1.379 . S
C3774 H3758 0.931 . S
C3774 C3768 1.383 . S
C3774 C3773 1.379 . S
H3775 C3769 0.959 . S
H3776 C3769 0.961 . S
H3777 C3769 0.960 . S
H3778 C3770 0.930 . S
H3779 C3771 0.929 . S
H3780 C3788 0.929 . S
H3781 C3790 0.930 . S
H3782 C3792 0.930 . S
H3783 C3795 0.929 . S
H3784 C3798 0.930 . S
H3785 C3800 0.960 . S
H3786 C3800 0.960 . S
H3787 C3800 0.960 . S
C3788 H3780 0.929 . S
C3788 C3789 1.377 . S
C3788 C3790 1.384 . S
C3789 C3788 1.377 . S
C3789 C3795 1.390 . S
C3790 H3781 0.930 . S
C3790 C3788 1.384 . S
C3790 C3791 1.372 . S
C3791 C3790 1.372 . S
C3791 C3792 1.400 . S
C3791 C3796 1.490 . S
C3792 H3782 0.930 . S
C3792 C3791 1.400 . S
C3792 C3795 1.386 . S
H3793 C3809 0.930 . S
H3794 C3810 0.931 . S
C3795 H3783 0.929 . S
C3795 C3789 1.390 . S
C3795 C3792 1.386 . S
C3796 C3791 1.490 . S
C3796 C3798 1.395 . S
C3796 C3799 1.403 . S
H3797 C3803 0.930 . S
C3798 H3784 0.930 . S
C3798 C3796 1.395 . S
C3798 C3801 1.403 . S
C3799 C3796 1.403 . S
C3799 C3800 1.524 . S
C3799 C3803 1.400 . S
C3800 H3785 0.960 . S
C3800 H3786 0.960 . S
C3800 H3787 0.960 . S
C3800 C3799 1.524 . S
C3801 C3798 1.403 . S
C3801 C3802 1.392 . S
C3801 C3805 1.495 . S
C3802 C3801 1.392 . S
C3802 C3803 1.385 . S
C3802 C3804 1.478 . S
C3803 H3797 0.930 . S
C3803 C3799 1.400 . S
C3803 C3802 1.385 . S
C3804 C3802 1.478 . S
C3804 C3806 1.381 . S
C3804 C3810 1.383 . S
C3805 C3801 1.495 . S
C3805 H3811 0.959 . S
C3805 H3812 0.961 . S
C3805 H3813 0.960 . S
C3806 C3804 1.381 . S
C3806 C3807 1.394 . S
C3806 H3814 0.930 . S
C3807 C3806 1.394 . S
C3807 C3808 1.383 . S
C3807 H3815 0.929 . S
C3808 C3807 1.383 . S
C3808 C3809 1.377 . S
C3809 H3793 0.930 . S
C3809 C3808 1.377 . S
C3809 C3810 1.379 . S
C3810 H3794 0.931 . S
C3810 C3804 1.383 . S
C3810 C3809 1.379 . S
H3811 C3805 0.959 . S
H3812 C3805 0.961 . S
H3813 C3805 0.960 . S
H3814 C3806 0.930 . S
H3815 C3807 0.929 . S
H3816 C3824 0.929 . S
H3817 C3826 0.930 . S
H3818 C3828 0.930 . S
H3819 C3831 0.929 . S
H3820 C3834 0.930 . S
H3821 C3836 0.960 . S
H3822 C3836 0.960 . S
H3823 C3836 0.960 . S
C3824 H3816 0.929 . S
C3824 C3825 1.377 . S
C3824 C3826 1.384 . S
C3825 C3824 1.377 . S
C3825 C3831 1.390 . S
C3826 H3817 0.930 . S
C3826 C3824 1.384 . S
C3826 C3827 1.372 . S
C3827 C3826 1.372 . S
C3827 C3828 1.400 . S
C3827 C3832 1.490 . S
C3828 H3818 0.930 . S
C3828 C3827 1.400 . S
C3828 C3831 1.386 . S
H3829 C3845 0.930 . S
H3830 C3846 0.931 . S
C3831 H3819 0.929 . S
C3831 C3825 1.390 . S
C3831 C3828 1.386 . S
C3832 C3827 1.490 . S
C3832 C3834 1.395 . S
C3832 C3835 1.403 . S
H3833 C3839 0.930 . S
C3834 H3820 0.930 . S
C3834 C3832 1.395 . S
C3834 C3837 1.403 . S
C3835 C3832 1.403 . S
C3835 C3836 1.524 . S
C3835 C3839 1.400 . S
C3836 H3821 0.960 . S
C3836 H3822 0.960 . S
C3836 H3823 0.960 . S
C3836 C3835 1.524 . S
C3837 C3834 1.403 . S
C3837 C3838 1.392 . S
C3837 C3841 1.495 . S
C3838 C3837 1.392 . S
C3838 C3839 1.385 . S
C3838 C3840 1.478 . S
C3839 H3833 0.930 . S
C3839 C3835 1.400 . S
C3839 C3838 1.385 . S
C3840 C3838 1.478 . S
C3840 C3842 1.381 . S
C3840 C3846 1.383 . S
C3841 C3837 1.495 . S
C3841 H3847 0.959 . S
C3841 H3848 0.961 . S
C3841 H3849 0.960 . S
C3842 C3840 1.381 . S
C3842 C3843 1.394 . S
C3842 H3850 0.930 . S
C3843 C3842 1.394 . S
C3843 C3844 1.383 . S
C3843 H3851 0.929 . S
C3844 C3843 1.383 . S
C3844 C3845 1.377 . S
C3845 H3829 0.930 . S
C3845 C3844 1.377 . S
C3845 C3846 1.379 . S
C3846 H3830 0.931 . S
C3846 C3840 1.383 . S
C3846 C3845 1.379 . S
H3847 C3841 0.959 . S
H3848 C3841 0.961 . S
H3849 C3841 0.960 . S
H3850 C3842 0.930 . S
H3851 C3843 0.929 . S
H3852 C3860 0.929 . S
H3853 C3862 0.930 . S
H3854 C3864 0.930 . S
H3855 C3867 0.929 . S
H3856 C3870 0.930 . S
H3857 C3872 0.960 . S
H3858 C3872 0.960 . S
H3859 C3872 0.960 . S
C3860 H3852 0.929 . S
C3860 C3861 1.377 . S
C3860 C3862 1.384 . S
C3861 C3860 1.377 . S
C3861 C3867 1.390 . S
C3862 H3853 0.930 . S
C3862 C3860 1.384 . S
C3862 C3863 1.372 . S
C3863 C3862 1.372 . S
C3863 C3864 1.400 . S
C3863 C3868 1.490 . S
C3864 H3854 0.930 . S
C3864 C3863 1.400 . S
C3864 C3867 1.386 . S
H3865 C3881 0.930 . S
H3866 C3882 0.931 . S
C3867 H3855 0.929 . S
C3867 C3861 1.390 . S
C3867 C3864 1.386 . S
C3868 C3863 1.490 . S
C3868 C3870 1.395 . S
C3868 C3871 1.403 . S
H3869 C3875 0.930 . S
C3870 H3856 0.930 . S
C3870 C3868 1.395 . S
C3870 C3873 1.403 . S
C3871 C3868 1.403 . S
C3871 C3872 1.524 . S
C3871 C3875 1.400 . S
C3872 H3857 0.960 . S
C3872 H3858 0.960 . S
C3872 H3859 0.960 . S
C3872 C3871 1.524 . S
C3873 C3870 1.403 . S
C3873 C3874 1.392 . S
C3873 C3877 1.495 . S
C3874 C3873 1.392 . S
C3874 C3875 1.385 . S
C3874 C3876 1.478 . S
C3875 H3869 0.930 . S
C3875 C3871 1.400 . S
C3875 C3874 1.385 . S
C3876 C3874 1.478 . S
C3876 C3878 1.381 . S
C3876 C3882 1.383 . S
C3877 C3873 1.495 . S
C3877 H3883 0.959 . S
C3877 H3884 0.961 . S
C3877 H3885 0.960 . S
C3878 C3876 1.381 . S
C3878 C3879 1.394 . S
C3878 H3886 0.930 . S
C3879 C3878 1.394 . S
C3879 C3880 1.383 . S
C3879 H3887 0.929 . S
C3880 C3879 1.383 . S
C3880 C3881 1.377 . S
C3881 H3865 0.930 . S
C3881 C3880 1.377 . S
C3881 C3882 1.379 . S
C3882 H3866 0.931 . S
C3882 C3876 1.383 . S
C3882 C3881 1.379 . S
H3883 C3877 0.959 . S
H3884 C3877 0.961 . S
H3885 C3877 0.960 . S
H3886 C3878 0.930 . S
H3887 C3879 0.929 . S
H3888 C3896 0.929 . S
H3889 C3898 0.930 . S
H3890 C3900 0.930 . S
H3891 C3903 0.929 . S
H3892 C3906 0.930 . S
H3893 C3908 0.960 . S
H3894 C3908 0.960 . S
H3895 C3908 0.960 . S
C3896 H3888 0.929 . S
C3896 C3897 1.377 . S
C3896 C3898 1.384 . S
C3897 C3896 1.377 . S
C3897 C3903 1.390 . S
C3898 H3889 0.930 . S
C3898 C3896 1.384 . S
C3898 C3899 1.372 . S
C3899 C3898 1.372 . S
C3899 C3900 1.400 . S
C3899 C3904 1.490 . S
C3900 H3890 0.930 . S
C3900 C3899 1.400 . S
C3900 C3903 1.386 . S
H3901 C3917 0.930 . S
H3902 C3918 0.931 . S
C3903 H3891 0.929 . S
C3903 C3897 1.390 . S
C3903 C3900 1.386 . S
C3904 C3899 1.490 . S
C3904 C3906 1.395 . S
C3904 C3907 1.403 . S
H3905 C3911 0.930 . S
C3906 H3892 0.930 . S
C3906 C3904 1.395 . S
C3906 C3909 1.403 . S
C3907 C3904 1.403 . S
C3907 C3908 1.524 . S
C3907 C3911 1.400 . S
C3908 H3893 0.960 . S
C3908 H3894 0.960 . S
C3908 H3895 0.960 . S
C3908 C3907 1.524 . S
C3909 C3906 1.403 . S
C3909 C3910 1.392 . S
C3909 C3913 1.495 . S
C3910 C3909 1.392 . S
C3910 C3911 1.385 . S
C3910 C3912 1.478 . S
C3911 H3905 0.930 . S
C3911 C3907 1.400 . S
C3911 C3910 1.385 . S
C3912 C3910 1.478 . S
C3912 C3914 1.381 . S
C3912 C3918 1.383 . S
C3913 C3909 1.495 . S
C3913 H3919 0.959 . S
C3913 H3920 0.961 . S
C3913 H3921 0.960 . S
C3914 C3912 1.381 . S
C3914 C3915 1.394 . S
C3914 H3922 0.930 . S
C3915 C3914 1.394 . S
C3915 C3916 1.383 . S
C3915 H3923 0.929 . S
C3916 C3915 1.383 . S
C3916 C3917 1.377 . S
C3917 H3901 0.930 . S
C3917 C3916 1.377 . S
C3917 C3918 1.379 . S
C3918 H3902 0.931 . S
C3918 C3912 1.383 . S
C3918 C3917 1.379 . S
H3919 C3913 0.959 . S
H3920 C3913 0.961 . S
H3921 C3913 0.960 . S
H3922 C3914 0.930 . S
H3923 C3915 0.929 . S
H3924 C3932 0.929 . S
H3925 C3934 0.930 . S
H3926 C3936 0.930 . S
H3927 C3939 0.929 . S
H3928 C3942 0.930 . S
H3929 C3944 0.960 . S
H3930 C3944 0.960 . S
H3931 C3944 0.960 . S
C3932 H3924 0.929 . S
C3932 C3933 1.377 . S
C3932 C3934 1.384 . S
C3933 C3932 1.377 . S
C3933 C3939 1.390 . S
C3934 H3925 0.930 . S
C3934 C3932 1.384 . S
C3934 C3935 1.372 . S
C3935 C3934 1.372 . S
C3935 C3936 1.400 . S
C3935 C3940 1.490 . S
C3936 H3926 0.930 . S
C3936 C3935 1.400 . S
C3936 C3939 1.386 . S
H3937 C3953 0.930 . S
H3938 C3954 0.931 . S
C3939 H3927 0.929 . S
C3939 C3933 1.390 . S
C3939 C3936 1.386 . S
C3940 C3935 1.490 . S
C3940 C3942 1.395 . S
C3940 C3943 1.403 . S
H3941 C3947 0.930 . S
C3942 H3928 0.930 . S
C3942 C3940 1.395 . S
C3942 C3945 1.403 . S
C3943 C3940 1.403 . S
C3943 C3944 1.524 . S
C3943 C3947 1.400 . S
C3944 H3929 0.960 . S
C3944 H3930 0.960 . S
C3944 H3931 0.960 . S
C3944 C3943 1.524 . S
C3945 C3942 1.403 . S
C3945 C3946 1.392 . S
C3945 C3949 1.495 . S
C3946 C3945 1.392 . S
C3946 C3947 1.385 . S
C3946 C3948 1.478 . S
C3947 H3941 0.930 . S
C3947 C3943 1.400 . S
C3947 C3946 1.385 . S
C3948 C3946 1.478 . S
C3948 C3950 1.381 . S
C3948 C3954 1.383 . S
C3949 C3945 1.495 . S
C3949 H3955 0.959 . S
C3949 H3956 0.961 . S
C3949 H3957 0.960 . S
C3950 C3948 1.381 . S
C3950 C3951 1.394 . S
C3950 H3958 0.930 . S
C3951 C3950 1.394 . S
C3951 C3952 1.383 . S
C3951 H3959 0.929 . S
C3952 C3951 1.383 . S
C3952 C3953 1.377 . S
C3953 H3937 0.930 . S
C3953 C3952 1.377 . S
C3953 C3954 1.379 . S
C3954 H3938 0.931 . S
C3954 C3948 1.383 . S
C3954 C3953 1.379 . S
H3955 C3949 0.959 . S
H3956 C3949 0.961 . S
H3957 C3949 0.960 . S
H3958 C3950 0.930 . S
H3959 C3951 0.929 . S
H3960 C3968 0.929 . S
H3961 C3970 0.930 . S
H3962 C3972 0.930 . S
H3963 C3975 0.929 . S
H3964 C3978 0.930 . S
H3965 C3980 0.960 . S
H3966 C3980 0.960 . S
H3967 C3980 0.960 . S
C3968 H3960 0.929 . S
C3968 C3969 1.377 . S
C3968 C3970 1.384 . S
C3969 C3968 1.377 . S
C3969 C3975 1.390 . S
C3970 H3961 0.930 . S
C3970 C3968 1.384 . S
C3970 C3971 1.372 . S
C3971 C3970 1.372 . S
C3971 C3972 1.400 . S
C3971 C3976 1.490 . S
C3972 H3962 0.930 . S
C3972 C3971 1.400 . S
C3972 C3975 1.386 . S
H3973 C3989 0.930 . S
H3974 C3990 0.931 . S
C3975 H3963 0.929 . S
C3975 C3969 1.390 . S
C3975 C3972 1.386 . S
C3976 C3971 1.490 . S
C3976 C3978 1.395 . S
C3976 C3979 1.403 . S
H3977 C3983 0.930 . S
C3978 H3964 0.930 . S
C3978 C3976 1.395 . S
C3978 C3981 1.403 . S
C3979 C3976 1.403 . S
C3979 C3980 1.524 . S
C3979 C3983 1.400 . S
C3980 H3965 0.960 . S
C3980 H3966 0.960 . S
C3980 H3967 0.960 . S
C3980 C3979 1.524 . S
C3981 C3978 1.403 . S
C3981 C3982 1.392 . S
C3981 C3985 1.495 . S
C3982 C3981 1.392 . S
C3982 C3983 1.385 . S
C3982 C3984 1.478 . S
C3983 H3977 0.930 . S
C3983 C3979 1.400 . S
C3983 C3982 1.385 . S
C3984 C3982 1.478 . S
C3984 C3986 1.381 . S
C3984 C3990 1.383 . S
C3985 C3981 1.495 . S
C3985 H3991 0.959 . S
C3985 H3992 0.961 . S
C3985 H3993 0.960 . S
C3986 C3984 1.381 . S
C3986 C3987 1.394 . S
C3986 H3994 0.930 . S
C3987 C3986 1.394 . S
C3987 C3988 1.383 . S
C3987 H3995 0.929 . S
C3988 C3987 1.383 . S
C3988 C3989 1.377 . S
C3989 H3973 0.930 . S
C3989 C3988 1.377 . S
C3989 C3990 1.379 . S
C3990 H3974 0.931 . S
C3990 C3984 1.383 . S
C3990 C3989 1.379 . S
H3991 C3985 0.959 . S
H3992 C3985 0.961 . S
H3993 C3985 0.960 . S
H3994 C3986 0.930 . S
H3995 C3987 0.929 . S
H3996 C4004 0.929 . S
H3997 C4006 0.930 . S
H3998 C4008 0.930 . S
H3999 C4011 0.929 . S
H4000 C4014 0.930 . S
H4001 C4016 0.960 . S
H4002 C4016 0.960 . S
H4003 C4016 0.960 . S
C4004 H3996 0.929 . S
C4004 C4005 1.377 . S
C4004 C4006 1.384 . S
C4005 C4004 1.377 . S
C4005 C4011 1.390 . S
C4006 H3997 0.930 . S
C4006 C4004 1.384 . S
C4006 C4007 1.372 . S
C4007 C4006 1.372 . S
C4007 C4008 1.400 . S
C4007 C4012 1.490 . S
C4008 H3998 0.930 . S
C4008 C4007 1.400 . S
C4008 C4011 1.386 . S
H4009 C4025 0.930 . S
H4010 C4026 0.931 . S
C4011 H3999 0.929 . S
C4011 C4005 1.390 . S
C4011 C4008 1.386 . S
C4012 C4007 1.490 . S
C4012 C4014 1.395 . S
C4012 C4015 1.403 . S
H4013 C4019 0.930 . S
C4014 H4000 0.930 . S
C4014 C4012 1.395 . S
C4014 C4017 1.403 . S
C4015 C4012 1.403 . S
C4015 C4016 1.524 . S
C4015 C4019 1.400 . S
C4016 H4001 0.960 . S
C4016 H4002 0.960 . S
C4016 H4003 0.960 . S
C4016 C4015 1.524 . S
C4017 C4014 1.403 . S
C4017 C4018 1.392 . S
C4017 C4021 1.495 . S
C4018 C4017 1.392 . S
C4018 C4019 1.385 . S
C4018 C4020 1.478 . S
C4019 H4013 0.930 . S
C4019 C4015 1.400 . S
C4019 C4018 1.385 . S
C4020 C4018 1.478 . S
C4020 C4022 1.381 . S
C4020 C4026 1.383 . S
C4021 C4017 1.495 . S
C4021 H4027 0.959 . S
C4021 H4028 0.961 . S
C4021 H4029 0.960 . S
C4022 C4020 1.381 . S
C4022 C4023 1.394 . S
C4022 H4030 0.930 . S
C4023 C4022 1.394 . S
C4023 C4024 1.383 . S
C4023 H4031 0.929 . S
C4024 C4023 1.383 . S
C4024 C4025 1.377 . S
C4025 H4009 0.930 . S
C4025 C4024 1.377 . S
C4025 C4026 1.379 . S
C4026 H4010 0.931 . S
C4026 C4020 1.383 . S
C4026 C4025 1.379 . S
H4027 C4021 0.959 . S
H4028 C4021 0.961 . S
H4029 C4021 0.960 . S
H4030 C4022 0.930 . S
H4031 C4023 0.929 . S
H4032 C4040 0.929 . S
H4033 C4042 0.930 . S
H4034 C4044 0.930 . S
H4035 C4047 0.929 . S
H4036 C4050 0.930 . S
H4037 C4052 0.960 . S
H4038 C4052 0.960 . S
H4039 C4052 0.960 . S
C4040 H4032 0.929 . S
C4040 C4041 1.377 . S
C4040 C4042 1.384 . S
C4041 C4040 1.377 . S
C4041 C4047 1.390 . S
C4042 H4033 0.930 . S
C4042 C4040 1.384 . S
C4042 C4043 1.372 . S
C4043 C4042 1.372 . S
C4043 C4044 1.400 . S
C4043 C4048 1.490 . S
C4044 H4034 0.930 . S
C4044 C4043 1.400 . S
C4044 C4047 1.386 . S
H4045 C4061 0.930 . S
H4046 C4062 0.931 . S
C4047 H4035 0.929 . S
C4047 C4041 1.390 . S
C4047 C4044 1.386 . S
C4048 C4043 1.490 . S
C4048 C4050 1.395 . S
C4048 C4051 1.403 . S
H4049 C4055 0.930 . S
C4050 H4036 0.930 . S
C4050 C4048 1.395 . S
C4050 C4053 1.403 . S
C4051 C4048 1.403 . S
C4051 C4052 1.524 . S
C4051 C4055 1.400 . S
C4052 H4037 0.960 . S
C4052 H4038 0.960 . S
C4052 H4039 0.960 . S
C4052 C4051 1.524 . S
C4053 C4050 1.403 . S
C4053 C4054 1.392 . S
C4053 C4057 1.495 . S
C4054 C4053 1.392 . S
C4054 C4055 1.385 . S
C4054 C4056 1.478 . S
C4055 H4049 0.930 . S
C4055 C4051 1.400 . S
C4055 C4054 1.385 . S
C4056 C4054 1.478 . S
C4056 C4058 1.381 . S
C4056 C4062 1.383 . S
C4057 C4053 1.495 . S
C4057 H4063 0.959 . S
C4057 H4064 0.961 . S
C4057 H4065 0.960 . S
C4058 C4056 1.381 . S
C4058 C4059 1.394 . S
C4058 H4066 0.930 . S
C4059 C4058 1.394 . S
C4059 C4060 1.383 . S
C4059 H4067 0.929 . S
C4060 C4059 1.383 . S
C4060 C4061 1.377 . S
C4061 H4045 0.930 . S
C4061 C4060 1.377 . S
C4061 C4062 1.379 . S
C4062 H4046 0.931 . S
C4062 C4056 1.383 . S
C4062 C4061 1.379 . S
H4063 C4057 0.959 . S
H4064 C4057 0.961 . S
H4065 C4057 0.960 . S
H4066 C4058 0.930 . S
H4067 C4059 0.929 . S
H4068 C4076 0.929 . S
H4069 C4078 0.930 . S
H4070 C4080 0.930 . S
H4071 C4083 0.929 . S
H4072 C4086 0.930 . S
H4073 C4088 0.960 . S
H4074 C4088 0.960 . S
H4075 C4088 0.960 . S
C4076 H4068 0.929 . S
C4076 C4077 1.377 . S
C4076 C4078 1.384 . S
C4077 C4076 1.377 . S
C4077 C4083 1.390 . S
C4078 H4069 0.930 . S
C4078 C4076 1.384 . S
C4078 C4079 1.372 . S
C4079 C4078 1.372 . S
C4079 C4080 1.400 . S
C4079 C4084 1.490 . S
C4080 H4070 0.930 . S
C4080 C4079 1.400 . S
C4080 C4083 1.386 . S
H4081 C4097 0.930 . S
H4082 C4098 0.931 . S
C4083 H4071 0.929 . S
C4083 C4077 1.390 . S
C4083 C4080 1.386 . S
C4084 C4079 1.490 . S
C4084 C4086 1.395 . S
C4084 C4087 1.403 . S
H4085 C4091 0.930 . S
C4086 H4072 0.930 . S
C4086 C4084 1.395 . S
C4086 C4089 1.403 . S
C4087 C4084 1.403 . S
C4087 C4088 1.524 . S
C4087 C4091 1.400 . S
C4088 H4073 0.960 . S
C4088 H4074 0.960 . S
C4088 H4075 0.960 . S
C4088 C4087 1.524 . S
C4089 C4086 1.403 . S
C4089 C4090 1.392 . S
C4089 C4093 1.495 . S
C4090 C4089 1.392 . S
C4090 C4091 1.385 . S
C4090 C4092 1.478 . S
C4091 H4085 0.930 . S
C4091 C4087 1.400 . S
C4091 C4090 1.385 . S
C4092 C4090 1.478 . S
C4092 C4094 1.381 . S
C4092 C4098 1.383 . S
C4093 C4089 1.495 . S
C4093 H4099 0.959 . S
C4093 H4100 0.961 . S
C4093 H4101 0.960 . S
C4094 C4092 1.381 . S
C4094 C4095 1.394 . S
C4094 H4102 0.930 . S
C4095 C4094 1.394 . S
C4095 C4096 1.383 . S
C4095 H4103 0.929 . S
C4096 C4095 1.383 . S
C4096 C4097 1.377 . S
C4097 H4081 0.930 . S
C4097 C4096 1.377 . S
C4097 C4098 1.379 . S
C4098 H4082 0.931 . S
C4098 C4092 1.383 . S
C4098 C4097 1.379 . S
H4099 C4093 0.959 . S
H4100 C4093 0.961 . S
H4101 C4093 0.960 . S
H4102 C4094 0.930 . S
H4103 C4095 0.929 . S
H4104 C4112 0.929 . S
H4105 C4114 0.930 . S
H4106 C4116 0.930 . S
H4107 C4119 0.929 . S
H4108 C4122 0.930 . S
H4109 C4124 0.960 . S
H4110 C4124 0.960 . S
H4111 C4124 0.960 . S
C4112 H4104 0.929 . S
C4112 C4113 1.377 . S
C4112 C4114 1.384 . S
C4113 C4112 1.377 . S
C4113 C4119 1.390 . S
C4114 H4105 0.930 . S
C4114 C4112 1.384 . S
C4114 C4115 1.372 . S
C4115 C4114 1.372 . S
C4115 C4116 1.400 . S
C4115 C4120 1.490 . S
C4116 H4106 0.930 . S
C4116 C4115 1.400 . S
C4116 C4119 1.386 . S
H4117 C4133 0.930 . S
H4118 C4134 0.931 . S
C4119 H4107 0.929 . S
C4119 C4113 1.390 . S
C4119 C4116 1.386 . S
C4120 C4115 1.490 . S
C4120 C4122 1.395 . S
C4120 C4123 1.403 . S
H4121 C4127 0.930 . S
C4122 H4108 0.930 . S
C4122 C4120 1.395 . S
C4122 C4125 1.403 . S
C4123 C4120 1.403 . S
C4123 C4124 1.524 . S
C4123 C4127 1.400 . S
C4124 H4109 0.960 . S
C4124 H4110 0.960 . S
C4124 H4111 0.960 . S
C4124 C4123 1.524 . S
C4125 C4122 1.403 . S
C4125 C4126 1.392 . S
C4125 C4129 1.495 . S
C4126 C4125 1.392 . S
C4126 C4127 1.385 . S
C4126 C4128 1.478 . S
C4127 H4121 0.930 . S
C4127 C4123 1.400 . S
C4127 C4126 1.385 . S
C4128 C4126 1.478 . S
C4128 C4130 1.381 . S
C4128 C4134 1.383 . S
C4129 C4125 1.495 . S
C4129 H4135 0.959 . S
C4129 H4136 0.961 . S
C4129 H4137 0.960 . S
C4130 C4128 1.381 . S
C4130 C4131 1.394 . S
C4130 H4138 0.930 . S
C4131 C4130 1.394 . S
C4131 C4132 1.383 . S
C4131 H4139 0.929 . S
C4132 C4131 1.383 . S
C4132 C4133 1.377 . S
C4133 H4117 0.930 . S
C4133 C4132 1.377 . S
C4133 C4134 1.379 . S
C4134 H4118 0.931 . S
C4134 C4128 1.383 . S
C4134 C4133 1.379 . S
H4135 C4129 0.959 . S
H4136 C4129 0.961 . S
H4137 C4129 0.960 . S
H4138 C4130 0.930 . S
H4139 C4131 0.929 . S
H4140 C4148 0.929 . S
H4141 C4150 0.930 . S
H4142 C4152 0.930 . S
H4143 C4155 0.929 . S
H4144 C4158 0.930 . S
H4145 C4160 0.960 . S
H4146 C4160 0.960 . S
H4147 C4160 0.960 . S
C4148 H4140 0.929 . S
C4148 C4149 1.377 . S
C4148 C4150 1.384 . S
C4149 C4148 1.377 . S
C4149 C4155 1.390 . S
C4150 H4141 0.930 . S
C4150 C4148 1.384 . S
C4150 C4151 1.372 . S
C4151 C4150 1.372 . S
C4151 C4152 1.400 . S
C4151 C4156 1.490 . S
C4152 H4142 0.930 . S
C4152 C4151 1.400 . S
C4152 C4155 1.386 . S
H4153 C4169 0.930 . S
H4154 C4170 0.931 . S
C4155 H4143 0.929 . S
C4155 C4149 1.390 . S
C4155 C4152 1.386 . S
C4156 C4151 1.490 . S
C4156 C4158 1.395 . S
C4156 C4159 1.403 . S
H4157 C4163 0.930 . S
C4158 H4144 0.930 . S
C4158 C4156 1.395 . S
C4158 C4161 1.403 . S
C4159 C4156 1.403 . S
C4159 C4160 1.524 . S
C4159 C4163 1.400 . S
C4160 H4145 0.960 . S
C4160 H4146 0.960 . S
C4160 H4147 0.960 . S
C4160 C4159 1.524 . S
C4161 C4158 1.403 . S
C4161 C4162 1.392 . S
C4161 C4165 1.495 . S
C4162 C4161 1.392 . S
C4162 C4163 1.385 . S
C4162 C4164 1.478 . S
C4163 H4157 0.930 . S
C4163 C4159 1.400 . S
C4163 C4162 1.385 . S
C4164 C4162 1.478 . S
C4164 C4166 1.381 . S
C4164 C4170 1.383 . S
C4165 C4161 1.495 . S
C4165 H4171 0.959 . S
C4165 H4172 0.961 . S
C4165 H4173 0.960 . S
C4166 C4164 1.381 . S
C4166 C4167 1.394 . S
C4166 H4174 0.930 . S
C4167 C4166 1.394 . S
C4167 C4168 1.383 . S
C4167 H4175 0.929 . S
C4168 C4167 1.383 . S
C4168 C4169 1.377 . S
C4169 H4153 0.930 . S
C4169 C4168 1.377 . S
C4169 C4170 1.379 . S
C4170 H4154 0.931 . S
C4170 C4164 1.383 . S
C4170 C4169 1.379 . S
H4171 C4165 0.959 . S
H4172 C4165 0.961 . S
H4173 C4165 0.960 . S
H4174 C4166 0.930 . S
H4175 C4167 0.929 . S
H4176 C4184 0.929 . S
H4177 C4186 0.930 . S
H4178 C4188 0.930 . S
H4179 C4191 0.929 . S
H4180 C4194 0.930 . S
H4181 C4196 0.960 . S
H4182 C4196 0.960 . S
H4183 C4196 0.960 . S
C4184 H4176 0.929 . S
C4184 C4185 1.377 . S
C4184 C4186 1.384 . S
C4185 C4184 1.377 . S
C4185 C4191 1.390 . S
C4186 H4177 0.930 . S
C4186 C4184 1.384 . S
C4186 C4187 1.372 . S
C4187 C4186 1.372 . S
C4187 C4188 1.400 . S
C4187 C4192 1.490 . S
C4188 H4178 0.930 . S
C4188 C4187 1.400 . S
C4188 C4191 1.386 . S
H4189 C4205 0.930 . S
H4190 C4206 0.931 . S
C4191 H4179 0.929 . S
C4191 C4185 1.390 . S
C4191 C4188 1.386 . S
C4192 C4187 1.490 . S
C4192 C4194 1.395 . S
C4192 C4195 1.403 . S
H4193 C4199 0.930 . S
C4194 H4180 0.930 . S
C4194 C4192 1.395 . S
C4194 C4197 1.403 . S
C4195 C4192 1.403 . S
C4195 C4196 1.524 . S
C4195 C4199 1.400 . S
C4196 H4181 0.960 . S
C4196 H4182 0.960 . S
C4196 H4183 0.960 . S
C4196 C4195 1.524 . S
C4197 C4194 1.403 . S
C4197 C4198 1.392 . S
C4197 C4201 1.495 . S
C4198 C4197 1.392 . S
C4198 C4199 1.385 . S
C4198 C4200 1.478 . S
C4199 H4193 0.930 . S
C4199 C4195 1.400 . S
C4199 C4198 1.385 . S
C4200 C4198 1.478 . S
C4200 C4202 1.381 . S
C4200 C4206 1.383 . S
C4201 C4197 1.495 . S
C4201 H4207 0.959 . S
C4201 H4208 0.961 . S
C4201 H4209 0.960 . S
C4202 C4200 1.381 . S
C4202 C4203 1.394 . S
C4202 H4210 0.930 . S
C4203 C4202 1.394 . S
C4203 C4204 1.383 . S
C4203 H4211 0.929 . S
C4204 C4203 1.383 . S
C4204 C4205 1.377 . S
C4205 H4189 0.930 . S
C4205 C4204 1.377 . S
C4205 C4206 1.379 . S
C4206 H4190 0.931 . S
C4206 C4200 1.383 . S
C4206 C4205 1.379 . S
H4207 C4201 0.959 . S
H4208 C4201 0.961 . S
H4209 C4201 0.960 . S
H4210 C4202 0.930 . S
H4211 C4203 0.929 . S
H4212 C4220 0.929 . S
H4213 C4222 0.930 . S
H4214 C4224 0.930 . S
H4215 C4227 0.929 . S
H4216 C4230 0.930 . S
H4217 C4232 0.960 . S
H4218 C4232 0.960 . S
H4219 C4232 0.960 . S
C4220 H4212 0.929 . S
C4220 C4221 1.377 . S
C4220 C4222 1.384 . S
C4221 C4220 1.377 . S
C4221 C4227 1.390 . S
C4222 H4213 0.930 . S
C4222 C4220 1.384 . S
C4222 C4223 1.372 . S
C4223 C4222 1.372 . S
C4223 C4224 1.400 . S
C4223 C4228 1.490 . S
C4224 H4214 0.930 . S
C4224 C4223 1.400 . S
C4224 C4227 1.386 . S
H4225 C4241 0.930 . S
H4226 C4242 0.931 . S
C4227 H4215 0.929 . S
C4227 C4221 1.390 . S
C4227 C4224 1.386 . S
C4228 C4223 1.490 . S
C4228 C4230 1.395 . S
C4228 C4231 1.403 . S
H4229 C4235 0.930 . S
C4230 H4216 0.930 . S
C4230 C4228 1.395 . S
C4230 C4233 1.403 . S
C4231 C4228 1.403 . S
C4231 C4232 1.524 . S
C4231 C4235 1.400 . S
C4232 H4217 0.960 . S
C4232 H4218 0.960 . S
C4232 H4219 0.960 . S
C4232 C4231 1.524 . S
C4233 C4230 1.403 . S
C4233 C4234 1.392 . S
C4233 C4237 1.495 . S
C4234 C4233 1.392 . S
C4234 C4235 1.385 . S
C4234 C4236 1.478 . S
C4235 H4229 0.930 . S
C4235 C4231 1.400 . S
C4235 C4234 1.385 . S
C4236 C4234 1.478 . S
C4236 C4238 1.381 . S
C4236 C4242 1.383 . S
C4237 C4233 1.495 . S
C4237 H4243 0.959 . S
C4237 H4244 0.961 . S
C4237 H4245 0.960 . S
C4238 C4236 1.381 . S
C4238 C4239 1.394 . S
C4238 H4246 0.930 . S
C4239 C4238 1.394 . S
C4239 C4240 1.383 . S
C4239 H4247 0.929 . S
C4240 C4239 1.383 . S
C4240 C4241 1.377 . S
C4241 H4225 0.930 . S
C4241 C4240 1.377 . S
C4241 C4242 1.379 . S
C4242 H4226 0.931 . S
C4242 C4236 1.383 . S
C4242 C4241 1.379 . S
H4243 C4237 0.959 . S
H4244 C4237 0.961 . S
H4245 C4237 0.960 . S
H4246 C4238 0.930 . S
H4247 C4239 0.929 . S
H4248 C4256 0.929 . S
H4249 C4258 0.930 . S
H4250 C4260 0.930 . S
H4251 C4263 0.929 . S
H4252 C4266 0.930 . S
H4253 C4268 0.960 . S
H4254 C4268 0.960 . S
H4255 C4268 0.960 . S
C4256 H4248 0.929 . S
C4256 C4257 1.377 . S
C4256 C4258 1.384 . S
C4257 C4256 1.377 . S
C4257 C4263 1.390 . S
C4258 H4249 0.930 . S
C4258 C4256 1.384 . S
C4258 C4259 1.372 . S
C4259 C4258 1.372 . S
C4259 C4260 1.400 . S
C4259 C4264 1.490 . S
C4260 H4250 0.930 . S
C4260 C4259 1.400 . S
C4260 C4263 1.386 . S
H4261 C4277 0.930 . S
H4262 C4278 0.931 . S
C4263 H4251 0.929 . S
C4263 C4257 1.390 . S
C4263 C4260 1.386 . S
C4264 C4259 1.490 . S
C4264 C4266 1.395 . S
C4264 C4267 1.403 . S
H4265 C4271 0.930 . S
C4266 H4252 0.930 . S
C4266 C4264 1.395 . S
C4266 C4269 1.403 . S
C4267 C4264 1.403 . S
C4267 C4268 1.524 . S
C4267 C4271 1.400 . S
C4268 H4253 0.960 . S
C4268 H4254 0.960 . S
C4268 H4255 0.960 . S
C4268 C4267 1.524 . S
C4269 C4266 1.403 . S
C4269 C4270 1.392 . S
C4269 C4273 1.495 . S
C4270 C4269 1.392 . S
C4270 C4271 1.385 . S
C4270 C4272 1.478 . S
C4271 H4265 0.930 . S
C4271 C4267 1.400 . S
C4271 C4270 1.385 . S
C4272 C4270 1.478 . S
C4272 C4274 1.381 . S
C4272 C4278 1.383 . S
C4273 C4269 1.495 . S
C4273 H4279 0.959 . S
C4273 H4280 0.961 . S
C4273 H4281 0.960 . S
C4274 C4272 1.381 . S
C4274 C4275 1.394 . S
C4274 H4282 0.930 . S
C4275 C4274 1.394 . S
C4275 C4276 1.383 . S
C4275 H4283 0.929 . S
C4276 C4275 1.383 . S
C4276 C4277 1.377 . S
C4277 H4261 0.930 . S
C4277 C4276 1.377 . S
C4277 C4278 1.379 . S
C4278 H4262 0.931 . S
C4278 C4272 1.383 . S
C4278 C4277 1.379 . S
H4279 C4273 0.959 . S
H4280 C4273 0.961 . S
H4281 C4273 0.960 . S
H4282 C4274 0.930 . S
H4283 C4275 0.929 . S
H4284 C4292 0.929 . S
H4285 C4294 0.930 . S
H4286 C4296 0.930 . S
H4287 C4299 0.929 . S
H4288 C4302 0.930 . S
H4289 C4304 0.960 . S
H4290 C4304 0.960 . S
H4291 C4304 0.960 . S
C4292 H4284 0.929 . S
C4292 C4293 1.377 . S
C4292 C4294 1.384 . S
C4293 C4292 1.377 . S
C4293 C4299 1.390 . S
C4294 H4285 0.930 . S
C4294 C4292 1.384 . S
C4294 C4295 1.372 . S
C4295 C4294 1.372 . S
C4295 C4296 1.400 . S
C4295 C4300 1.490 . S
C4296 H4286 0.930 . S
C4296 C4295 1.400 . S
C4296 C4299 1.386 . S
H4297 C4313 0.930 . S
H4298 C4314 0.931 . S
C4299 H4287 0.929 . S
C4299 C4293 1.390 . S
C4299 C4296 1.386 . S
C4300 C4295 1.490 . S
C4300 C4302 1.395 . S
C4300 C4303 1.403 . S
H4301 C4307 0.930 . S
C4302 H4288 0.930 . S
C4302 C4300 1.395 . S
C4302 C4305 1.403 . S
C4303 C4300 1.403 . S
C4303 C4304 1.524 . S
C4303 C4307 1.400 . S
C4304 H4289 0.960 . S
C4304 H4290 0.960 . S
C4304 H4291 0.960 . S
C4304 C4303 1.524 . S
C4305 C4302 1.403 . S
C4305 C4306 1.392 . S
C4305 C4309 1.495 . S
C4306 C4305 1.392 . S
C4306 C4307 1.385 . S
C4306 C4308 1.478 . S
C4307 H4301 0.930 . S
C4307 C4303 1.400 . S
C4307 C4306 1.385 . S
C4308 C4306 1.478 . S
C4308 C4310 1.381 . S
C4308 C4314 1.383 . S
C4309 C4305 1.495 . S
C4309 H4315 0.959 . S
C4309 H4316 0.961 . S
C4309 H4317 0.960 . S
C4310 C4308 1.381 . S
C4310 C4311 1.394 . S
C4310 H4318 0.930 . S
C4311 C4310 1.394 . S
C4311 C4312 1.383 . S
C4311 H4319 0.929 . S
C4312 C4311 1.383 . S
C4312 C4313 1.377 . S
C4313 H4297 0.930 . S
C4313 C4312 1.377 . S
C4313 C4314 1.379 . S
C4314 H4298 0.931 . S
C4314 C4308 1.383 . S
C4314 C4313 1.379 . S
H4315 C4309 0.959 . S
H4316 C4309 0.961 . S
H4317 C4309 0.960 . S
H4318 C4310 0.930 . S
H4319 C4311 0.929 . S
H4320 C4328 0.929 . S
H4321 C4330 0.930 . S
H4322 C4332 0.930 . S
H4323 C4335 0.929 . S
H4324 C4338 0.930 . S
H4325 C4340 0.960 . S
H4326 C4340 0.960 . S
H4327 C4340 0.960 . S
C4328 H4320 0.929 . S
C4328 C4329 1.377 . S
C4328 C4330 1.384 . S
C4329 C4328 1.377 . S
C4329 C4335 1.390 . S
C4330 H4321 0.930 . S
C4330 C4328 1.384 . S
C4330 C4331 1.372 . S
C4331 C4330 1.372 . S
C4331 C4332 1.400 . S
C4331 C4336 1.490 . S
C4332 H4322 0.930 . S
C4332 C4331 1.400 . S
C4332 C4335 1.386 . S
H4333 C4349 0.930 . S
H4334 C4350 0.931 . S
C4335 H4323 0.929 . S
C4335 C4329 1.390 . S
C4335 C4332 1.386 . S
C4336 C4331 1.490 . S
C4336 C4338 1.395 . S
C4336 C4339 1.403 . S
H4337 C4343 0.930 . S
C4338 H4324 0.930 . S
C4338 C4336 1.395 . S
C4338 C4341 1.403 . S
C4339 C4336 1.403 . S
C4339 C4340 1.524 . S
C4339 C4343 1.400 . S
C4340 H4325 0.960 . S
C4340 H4326 0.960 . S
C4340 H4327 0.960 . S
C4340 C4339 1.524 . S
C4341 C4338 1.403 . S
C4341 C4342 1.392 . S
C4341 C4345 1.495 . S
C4342 C4341 1.392 . S
C4342 C4343 1.385 . S
C4342 C4344 1.478 . S
C4343 H4337 0.930 . S
C4343 C4339 1.400 . S
C4343 C4342 1.385 . S
C4344 C4342 1.478 . S
C4344 C4346 1.381 . S
C4344 C4350 1.383 . S
C4345 C4341 1.495 . S
C4345 H4351 0.959 . S
C4345 H4352 0.961 . S
C4345 H4353 0.960 . S
C4346 C4344 1.381 . S
C4346 C4347 1.394 . S
C4346 H4354 0.930 . S
C4347 C4346 1.394 . S
C4347 C4348 1.383 . S
C4347 H4355 0.929 . S
C4348 C4347 1.383 . S
C4348 C4349 1.377 . S
C4349 H4333 0.930 . S
C4349 C4348 1.377 . S
C4349 C4350 1.379 . S
C4350 H4334 0.931 . S
C4350 C4344 1.383 . S
C4350 C4349 1.379 . S
H4351 C4345 0.959 . S
H4352 C4345 0.961 . S
H4353 C4345 0.960 . S
H4354 C4346 0.930 . S
H4355 C4347 0.929 . S
H4356 C4364 0.929 . S
H4357 C4366 0.930 . S
H4358 C4368 0.930 . S
H4359 C4371 0.929 . S
H4360 C4374 0.930 . S
H4361 C4376 0.960 . S
H4362 C4376 0.960 . S
H4363 C4376 0.960 . S
C4364 H4356 0.929 . S
C4364 C4365 1.377 . S
C4364 C4366 1.384 . S
C4365 C4364 1.377 . S
C4365 C4371 1.390 . S
C4366 H4357 0.930 . S
C4366 C4364 1.384 . S
C4366 C4367 1.372 . S
C4367 C4366 1.372 . S
C4367 C4368 1.400 . S
C4367 C4372 1.490 . S
C4368 H4358 0.930 . S
C4368 C4367 1.400 . S
C4368 C4371 1.386 . S
H4369 C4385 0.930 . S
H4370 C4386 0.931 . S
C4371 H4359 0.929 . S
C4371 C4365 1.390 . S
C4371 C4368 1.386 . S
C4372 C4367 1.490 . S
C4372 C4374 1.395 . S
C4372 C4375 1.403 . S
H4373 C4379 0.930 . S
C4374 H4360 0.930 . S
C4374 C4372 1.395 . S
C4374 C4377 1.403 . S
C4375 C4372 1.403 . S
C4375 C4376 1.524 . S
C4375 C4379 1.400 . S
C4376 H4361 0.960 . S
C4376 H4362 0.960 . S
C4376 H4363 0.960 . S
C4376 C4375 1.524 . S
C4377 C4374 1.403 . S
C4377 C4378 1.392 . S
C4377 C4381 1.495 . S
C4378 C4377 1.392 . S
C4378 C4379 1.385 . S
C4378 C4380 1.478 . S
C4379 H4373 0.930 . S
C4379 C4375 1.400 . S
C4379 C4378 1.385 . S
C4380 C4378 1.478 . S
C4380 C4382 1.381 . S
C4380 C4386 1.383 . S
C4381 C4377 1.495 . S
C4381 H4387 0.959 . S
C4381 H4388 0.961 . S
C4381 H4389 0.960 . S
C4382 C4380 1.381 . S
C4382 C4383 1.394 . S
C4382 H4390 0.930 . S
C4383 C4382 1.394 . S
C4383 C4384 1.383 . S
C4383 H4391 0.929 . S
C4384 C4383 1.383 . S
C4384 C4385 1.377 . S
C4385 H4369 0.930 . S
C4385 C4384 1.377 . S
C4385 C4386 1.379 . S
C4386 H4370 0.931 . S
C4386 C4380 1.383 . S
C4386 C4385 1.379 . S
H4387 C4381 0.959 . S
H4388 C4381 0.961 . S
H4389 C4381 0.960 . S
H4390 C4382 0.930 . S
H4391 C4383 0.929 . S
H4392 C4400 0.929 . S
H4393 C4402 0.930 . S
H4394 C4404 0.930 . S
H4395 C4407 0.929 . S
H4396 C4410 0.930 . S
H4397 C4412 0.960 . S
H4398 C4412 0.960 . S
H4399 C4412 0.960 . S
C4400 H4392 0.929 . S
C4400 C4401 1.377 . S
C4400 C4402 1.384 . S
C4401 C4400 1.377 . S
C4401 C4407 1.390 . S
C4402 H4393 0.930 . S
C4402 C4400 1.384 . S
C4402 C4403 1.372 . S
C4403 C4402 1.372 . S
C4403 C4404 1.400 . S
C4403 C4408 1.490 . S
C4404 H4394 0.930 . S
C4404 C4403 1.400 . S
C4404 C4407 1.386 . S
H4405 C4421 0.930 . S
H4406 C4422 0.931 . S
C4407 H4395 0.929 . S
C4407 C4401 1.390 . S
C4407 C4404 1.386 . S
C4408 C4403 1.490 . S
C4408 C4410 1.395 . S
C4408 C4411 1.403 . S
H4409 C4415 0.930 . S
C4410 H4396 0.930 . S
C4410 C4408 1.395 . S
C4410 C4413 1.403 . S
C4411 C4408 1.403 . S
C4411 C4412 1.524 . S
C4411 C4415 1.400 . S
C4412 H4397 0.960 . S
C4412 H4398 0.960 . S
C4412 H4399 0.960 . S
C4412 C4411 1.524 . S
C4413 C4410 1.403 . S
C4413 C4414 1.392 . S
C4413 C4417 1.495 . S
C4414 C4413 1.392 . S
C4414 C4415 1.385 . S
C4414 C4416 1.478 . S
C4415 H4409 0.930 . S
C4415 C4411 1.400 . S
C4415 C4414 1.385 . S
C4416 C4414 1.478 . S
C4416 C4418 1.381 . S
C4416 C4422 1.383 . S
C4417 C4413 1.495 . S
C4417 H4423 0.959 . S
C4417 H4424 0.961 . S
C4417 H4425 0.960 . S
C4418 C4416 1.381 . S
C4418 C4419 1.394 . S
C4418 H4426 0.930 . S
C4419 C4418 1.394 . S
C4419 C4420 1.383 . S
C4419 H4427 0.929 . S
C4420 C4419 1.383 . S
C4420 C4421 1.377 . S
C4421 H4405 0.930 . S
C4421 C4420 1.377 . S
C4421 C4422 1.379 . S
C4422 H4406 0.931 . S
C4422 C4416 1.383 . S
C4422 C4421 1.379 . S
H4423 C4417 0.959 . S
H4424 C4417 0.961 . S
H4425 C4417 0.960 . S
H4426 C4418 0.930 . S
H4427 C4419 0.929 . S
H4428 C4436 0.929 . S
H4429 C4438 0.930 . S
H4430 C4440 0.930 . S
H4431 C4443 0.929 . S
H4432 C4446 0.930 . S
H4433 C4448 0.960 . S
H4434 C4448 0.960 . S
H4435 C4448 0.960 . S
C4436 H4428 0.929 . S
C4436 C4437 1.377 . S
C4436 C4438 1.384 . S
C4437 C4436 1.377 . S
C4437 C4443 1.390 . S
C4438 H4429 0.930 . S
C4438 C4436 1.384 . S
C4438 C4439 1.372 . S
C4439 C4438 1.372 . S
C4439 C4440 1.400 . S
C4439 C4444 1.490 . S
C4440 H4430 0.930 . S
C4440 C4439 1.400 . S
C4440 C4443 1.386 . S
H4441 C4457 0.930 . S
H4442 C4458 0.931 . S
C4443 H4431 0.929 . S
C4443 C4437 1.390 . S
C4443 C4440 1.386 . S
C4444 C4439 1.490 . S
C4444 C4446 1.395 . S
C4444 C4447 1.403 . S
H4445 C4451 0.930 . S
C4446 H4432 0.930 . S
C4446 C4444 1.395 . S
C4446 C4449 1.403 . S
C4447 C4444 1.403 . S
C4447 C4448 1.524 . S
C4447 C4451 1.400 . S
C4448 H4433 0.960 . S
C4448 H4434 0.960 . S
C4448 H4435 0.960 . S
C4448 C4447 1.524 . S
C4449 C4446 1.403 . S
C4449 C4450 1.392 . S
C4449 C4453 1.495 . S
C4450 C4449 1.392 . S
C4450 C4451 1.385 . S
C4450 C4452 1.478 . S
C4451 H4445 0.930 . S
C4451 C4447 1.400 . S
C4451 C4450 1.385 . S
C4452 C4450 1.478 . S
C4452 C4454 1.381 . S
C4452 C4458 1.383 . S
C4453 C4449 1.495 . S
C4453 H4459 0.959 . S
C4453 H4460 0.961 . S
C4453 H4461 0.960 . S
C4454 C4452 1.381 . S
C4454 C4455 1.394 . S
C4454 H4462 0.930 . S
C4455 C4454 1.394 . S
C4455 C4456 1.383 . S
C4455 H4463 0.929 . S
C4456 C4455 1.383 . S
C4456 C4457 1.377 . S
C4457 H4441 0.930 . S
C4457 C4456 1.377 . S
C4457 C4458 1.379 . S
C4458 H4442 0.931 . S
C4458 C4452 1.383 . S
C4458 C4457 1.379 . S
H4459 C4453 0.959 . S
H4460 C4453 0.961 . S
H4461 C4453 0.960 . S
H4462 C4454 0.930 . S
H4463 C4455 0.929 . S
H4464 C4472 0.929 . S
H4465 C4474 0.930 . S
H4466 C4476 0.930 . S
H4467 C4479 0.929 . S
H4468 C4482 0.930 . S
H4469 C4484 0.960 . S
H4470 C4484 0.960 . S
H4471 C4484 0.960 . S
C4472 H4464 0.929 . S
C4472 C4473 1.377 . S
C4472 C4474 1.384 . S
C4473 C4472 1.377 . S
C4473 C4479 1.390 . S
C4474 H4465 0.930 . S
C4474 C4472 1.384 . S
C4474 C4475 1.372 . S
C4475 C4474 1.372 . S
C4475 C4476 1.400 . S
C4475 C4480 1.490 . S
C4476 H4466 0.930 . S
C4476 C4475 1.400 . S
C4476 C4479 1.386 . S
H4477 C4493 0.930 . S
H4478 C4494 0.931 . S
C4479 H4467 0.929 . S
C4479 C4473 1.390 . S
C4479 C4476 1.386 . S
C4480 C4475 1.490 . S
C4480 C4482 1.395 . S
C4480 C4483 1.403 . S
H4481 C4487 0.930 . S
C4482 H4468 0.930 . S
C4482 C4480 1.395 . S
C4482 C4485 1.403 . S
C4483 C4480 1.403 . S
C4483 C4484 1.524 . S
C4483 C4487 1.400 . S
C4484 H4469 0.960 . S
C4484 H4470 0.960 . S
C4484 H4471 0.960 . S
C4484 C4483 1.524 . S
C4485 C4482 1.403 . S
C4485 C4486 1.392 . S
C4485 C4489 1.495 . S
C4486 C4485 1.392 . S
C4486 C4487 1.385 . S
C4486 C4488 1.478 . S
C4487 H4481 0.930 . S
C4487 C4483 1.400 . S
C4487 C4486 1.385 . S
C4488 C4486 1.478 . S
C4488 C4490 1.381 . S
C4488 C4494 1.383 . S
C4489 C4485 1.495 . S
C4489 H4495 0.959 . S
C4489 H4496 0.961 . S
C4489 H4497 0.960 . S
C4490 C4488 1.381 . S
C4490 C4491 1.394 . S
C4490 H4498 0.930 . S
C4491 C4490 1.394 . S
C4491 C4492 1.383 . S
C4491 H4499 0.929 . S
C4492 C4491 1.383 . S
C4492 C4493 1.377 . S
C4493 H4477 0.930 . S
C4493 C4492 1.377 . S
C4493 C4494 1.379 . S
C4494 H4478 0.931 . S
C4494 C4488 1.383 . S
C4494 C4493 1.379 . S
H4495 C4489 0.959 . S
H4496 C4489 0.961 . S
H4497 C4489 0.960 . S
H4498 C4490 0.930 . S
H4499 C4491 0.929 . S
H4500 C4508 0.929 . S
H4501 C4510 0.930 . S
H4502 C4512 0.930 . S
H4503 C4515 0.929 . S
H4504 C4518 0.930 . S
H4505 C4520 0.960 . S
H4506 C4520 0.960 . S
H4507 C4520 0.960 . S
C4508 H4500 0.929 . S
C4508 C4509 1.377 . S
C4508 C4510 1.384 . S
C4509 C4508 1.377 . S
C4509 C4515 1.390 . S
C4510 H4501 0.930 . S
C4510 C4508 1.384 . S
C4510 C4511 1.372 . S
C4511 C4510 1.372 . S
C4511 C4512 1.400 . S
C4511 C4516 1.490 . S
C4512 H4502 0.930 . S
C4512 C4511 1.400 . S
C4512 C4515 1.386 . S
H4513 C4529 0.930 . S
H4514 C4530 0.931 . S
C4515 H4503 0.929 . S
C4515 C4509 1.390 . S
C4515 C4512 1.386 . S
C4516 C4511 1.490 . S
C4516 C4518 1.395 . S
C4516 C4519 1.403 . S
H4517 C4523 0.930 . S
C4518 H4504 0.930 . S
C4518 C4516 1.395 . S
C4518 C4521 1.403 . S
C4519 C4516 1.403 . S
C4519 C4520 1.524 . S
C4519 C4523 1.400 . S
C4520 H4505 0.960 . S
C4520 H4506 0.960 . S
C4520 H4507 0.960 . S
C4520 C4519 1.524 . S
C4521 C4518 1.403 . S
C4521 C4522 1.392 . S
C4521 C4525 1.495 . S
C4522 C4521 1.392 . S
C4522 C4523 1.385 . S
C4522 C4524 1.478 . S
C4523 H4517 0.930 . S
C4523 C4519 1.400 . S
C4523 C4522 1.385 . S
C4524 C4522 1.478 . S
C4524 C4526 1.381 . S
C4524 C4530 1.383 . S
C4525 C4521 1.495 . S
C4525 H4531 0.959 . S
C4525 H4532 0.961 . S
C4525 H4533 0.960 . S
C4526 C4524 1.381 . S
C4526 C4527 1.394 . S
C4526 H4534 0.930 . S
C4527 C4526 1.394 . S
C4527 C4528 1.383 . S
C4527 H4535 0.929 . S
C4528 C4527 1.383 . S
C4528 C4529 1.377 . S
C4529 H4513 0.930 . S
C4529 C4528 1.377 . S
C4529 C4530 1.379 . S
C4530 H4514 0.931 . S
C4530 C4524 1.383 . S
C4530 C4529 1.379 . S
H4531 C4525 0.959 . S
H4532 C4525 0.961 . S
H4533 C4525 0.960 . S
H4534 C4526 0.930 . S
H4535 C4527 0.929 . S
H4536 C4544 0.929 . S
H4537 C4546 0.930 . S
H4538 C4548 0.930 . S
H4539 C4551 0.929 . S
H4540 C4554 0.930 . S
H4541 C4556 0.960 . S
H4542 C4556 0.960 . S
H4543 C4556 0.960 . S
C4544 H4536 0.929 . S
C4544 C4545 1.377 . S
C4544 C4546 1.384 . S
C4545 C4544 1.377 . S
C4545 C4551 1.390 . S
C4546 H4537 0.930 . S
C4546 C4544 1.384 . S
C4546 C4547 1.372 . S
C4547 C4546 1.372 . S
C4547 C4548 1.400 . S
C4547 C4552 1.490 . S
C4548 H4538 0.930 . S
C4548 C4547 1.400 . S
C4548 C4551 1.386 . S
H4549 C4565 0.930 . S
H4550 C4566 0.931 . S
C4551 H4539 0.929 . S
C4551 C4545 1.390 . S
C4551 C4548 1.386 . S
C4552 C4547 1.490 . S
C4552 C4554 1.395 . S
C4552 C4555 1.403 . S
H4553 C4559 0.930 . S
C4554 H4540 0.930 . S
C4554 C4552 1.395 . S
C4554 C4557 1.403 . S
C4555 C4552 1.403 . S
C4555 C4556 1.524 . S
C4555 C4559 1.400 . S
C4556 H4541 0.960 . S
C4556 H4542 0.960 . S
C4556 H4543 0.960 . S
C4556 C4555 1.524 . S
C4557 C4554 1.403 . S
C4557 C4558 1.392 . S
C4557 C4561 1.495 . S
C4558 C4557 1.392 . S
C4558 C4559 1.385 . S
C4558 C4560 1.478 . S
C4559 H4553 0.930 . S
C4559 C4555 1.400 . S
C4559 C4558 1.385 . S
C4560 C4558 1.478 . S
C4560 C4562 1.381 . S
C4560 C4566 1.383 . S
C4561 C4557 1.495 . S
C4561 H4567 0.959 . S
C4561 H4568 0.961 . S
C4561 H4569 0.960 . S
C4562 C4560 1.381 . S
C4562 C4563 1.394 . S
C4562 H4570 0.930 . S
C4563 C4562 1.394 . S
C4563 C4564 1.383 . S
C4563 H4571 0.929 . S
C4564 C4563 1.383 . S
C4564 C4565 1.377 . S
C4565 H4549 0.930 . S
C4565 C4564 1.377 . S
C4565 C4566 1.379 . S
C4566 H4550 0.931 . S
C4566 C4560 1.383 . S
C4566 C4565 1.379 . S
H4567 C4561 0.959 . S
H4568 C4561 0.961 . S
H4569 C4561 0.960 . S
H4570 C4562 0.930 . S
H4571 C4563 0.929 . S
H4572 C4580 0.929 . S
H4573 C4582 0.930 . S
H4574 C4584 0.930 . S
H4575 C4587 0.929 . S
H4576 C4590 0.930 . S
H4577 C4592 0.960 . S
H4578 C4592 0.960 . S
H4579 C4592 0.960 . S
C4580 H4572 0.929 . S
C4580 C4581 1.377 . S
C4580 C4582 1.384 . S
C4581 C4580 1.377 . S
C4581 C4587 1.390 . S
C4582 H4573 0.930 . S
C4582 C4580 1.384 . S
C4582 C4583 1.372 . S
C4583 C4582 1.372 . S
C4583 C4584 1.400 . S
C4583 C4588 1.490 . S
C4584 H4574 0.930 . S
C4584 C4583 1.400 . S
C4584 C4587 1.386 . S
H4585 C4601 0.930 . S
H4586 C4602 0.931 . S
C4587 H4575 0.929 . S
C4587 C4581 1.390 . S
C4587 C4584 1.386 . S
C4588 C4583 1.490 . S
C4588 C4590 1.395 . S
C4588 C4591 1.403 . S
H4589 C4595 0.930 . S
C4590 H4576 0.930 . S
C4590 C4588 1.395 . S
C4590 C4593 1.403 . S
C4591 C4588 1.403 . S
C4591 C4592 1.524 . S
C4591 C4595 1.400 . S
C4592 H4577 0.960 . S
C4592 H4578 0.960 . S
C4592 H4579 0.960 . S
C4592 C4591 1.524 . S
C4593 C4590 1.403 . S
C4593 C4594 1.392 . S
C4593 C4597 1.495 . S
C4594 C4593 1.392 . S
C4594 C4595 1.385 . S
C4594 C4596 1.478 . S
C4595 H4589 0.930 . S
C4595 C4591 1.400 . S
C4595 C4594 1.385 . S
C4596 C4594 1.478 . S
C4596 C4598 1.381 . S
C4596 C4602 1.383 . S
C4597 C4593 1.495 . S
C4597 H4603 0.959 . S
C4597 H4604 0.961 . S
C4597 H4605 0.960 . S
C4598 C4596 1.381 . S
C4598 C4599 1.394 . S
C4598 H4606 0.930 . S
C4599 C4598 1.394 . S
C4599 C4600 1.383 . S
C4599 H4607 0.929 . S
C4600 C4599 1.383 . S
C4600 C4601 1.377 . S
C4601 H4585 0.930 . S
C4601 C4600 1.377 . S
C4601 C4602 1.379 . S
C4602 H4586 0.931 . S
C4602 C4596 1.383 . S
C4602 C4601 1.379 . S
H4603 C4597 0.959 . S
H4604 C4597 0.961 . S
H4605 C4597 0.960 . S
H4606 C4598 0.930 . S
H4607 C4599 0.929 . S
H4608 C4616 0.929 . S
H4609 C4618 0.930 . S
H4610 C4620 0.930 . S
H4611 C4623 0.929 . S
H4612 C4626 0.930 . S
H4613 C4628 0.960 . S
H4614 C4628 0.960 . S
H4615 C4628 0.960 . S
C4616 H4608 0.929 . S
C4616 C4617 1.377 . S
C4616 C4618 1.384 . S
C4617 C4616 1.377 . S
C4617 C4623 1.390 . S
C4618 H4609 0.930 . S
C4618 C4616 1.384 . S
C4618 C4619 1.372 . S
C4619 C4618 1.372 . S
C4619 C4620 1.400 . S
C4619 C4624 1.490 . S
C4620 H4610 0.930 . S
C4620 C4619 1.400 . S
C4620 C4623 1.386 . S
H4621 C4637 0.930 . S
H4622 C4638 0.931 . S
C4623 H4611 0.929 . S
C4623 C4617 1.390 . S
C4623 C4620 1.386 . S
C4624 C4619 1.490 . S
C4624 C4626 1.395 . S
C4624 C4627 1.403 . S
H4625 C4631 0.930 . S
C4626 H4612 0.930 . S
C4626 C4624 1.395 . S
C4626 C4629 1.403 . S
C4627 C4624 1.403 . S
C4627 C4628 1.524 . S
C4627 C4631 1.400 . S
C4628 H4613 0.960 . S
C4628 H4614 0.960 . S
C4628 H4615 0.960 . S
C4628 C4627 1.524 . S
C4629 C4626 1.403 . S
C4629 C4630 1.392 . S
C4629 C4633 1.495 . S
C4630 C4629 1.392 . S
C4630 C4631 1.385 . S
C4630 C4632 1.478 . S
C4631 H4625 0.930 . S
C4631 C4627 1.400 . S
C4631 C4630 1.385 . S
C4632 C4630 1.478 . S
C4632 C4634 1.381 . S
C4632 C4638 1.383 . S
C4633 C4629 1.495 . S
C4633 H4639 0.959 . S
C4633 H4640 0.961 . S
C4633 H4641 0.960 . S
C4634 C4632 1.381 . S
C4634 C4635 1.394 . S
C4634 H4642 0.930 . S
C4635 C4634 1.394 . S
C4635 C4636 1.383 . S
C4635 H4643 0.929 . S
C4636 C4635 1.383 . S
C4636 C4637 1.377 . S
C4637 H4621 0.930 . S
C4637 C4636 1.377 . S
C4637 C4638 1.379 . S
C4638 H4622 0.931 . S
C4638 C4632 1.383 . S
C4638 C4637 1.379 . S
H4639 C4633 0.959 . S
H4640 C4633 0.961 . S
H4641 C4633 0.960 . S
H4642 C4634 0.930 . S
H4643 C4635 0.929 . S
H4644 C4652 0.929 . S
H4645 C4654 0.930 . S
H4646 C4656 0.930 . S
H4647 C4659 0.929 . S
H4648 C4662 0.930 . S
H4649 C4664 0.960 . S
H4650 C4664 0.960 . S
H4651 C4664 0.960 . S
C4652 H4644 0.929 . S
C4652 C4653 1.377 . S
C4652 C4654 1.384 . S
C4653 C4652 1.377 . S
C4653 C4659 1.390 . S
C4654 H4645 0.930 . S
C4654 C4652 1.384 . S
C4654 C4655 1.372 . S
C4655 C4654 1.372 . S
C4655 C4656 1.400 . S
C4655 C4660 1.490 . S
C4656 H4646 0.930 . S
C4656 C4655 1.400 . S
C4656 C4659 1.386 . S
H4657 C4673 0.930 . S
H4658 C4674 0.931 . S
C4659 H4647 0.929 . S
C4659 C4653 1.390 . S
C4659 C4656 1.386 . S
C4660 C4655 1.490 . S
C4660 C4662 1.395 . S
C4660 C4663 1.403 . S
H4661 C4667 0.930 . S
C4662 H4648 0.930 . S
C4662 C4660 1.395 . S
C4662 C4665 1.403 . S
C4663 C4660 1.403 . S
C4663 C4664 1.524 . S
C4663 C4667 1.400 . S
C4664 H4649 0.960 . S
C4664 H4650 0.960 . S
C4664 H4651 0.960 . S
C4664 C4663 1.524 . S
C4665 C4662 1.403 . S
C4665 C4666 1.392 . S
C4665 C4669 1.495 . S
C4666 C4665 1.392 . S
C4666 C4667 1.385 . S
C4666 C4668 1.478 . S
C4667 H4661 0.930 . S
C4667 C4663 1.400 . S
C4667 C4666 1.385 . S
C4668 C4666 1.478 . S
C4668 C4670 1.381 . S
C4668 C4674 1.383 . S
C4669 C4665 1.495 . S
C4669 H4675 0.959 . S
C4669 H4676 0.961 . S
C4669 H4677 0.960 . S
C4670 C4668 1.381 . S
C4670 C4671 1.394 . S
C4670 H4678 0.930 . S
C4671 C4670 1.394 . S
C4671 C4672 1.383 . S
C4671 H4679 0.929 . S
C4672 C4671 1.383 . S
C4672 C4673 1.377 . S
C4673 H4657 0.930 . S
C4673 C4672 1.377 . S
C4673 C4674 1.379 . S
C4674 H4658 0.931 . S
C4674 C4668 1.383 . S
C4674 C4673 1.379 . S
H4675 C4669 0.959 . S
H4676 C4669 0.961 . S
H4677 C4669 0.960 . S
H4678 C4670 0.930 . S
H4679 C4671 0.929 . S
H4680 C4688 0.929 . S
H4681 C4690 0.930 . S
H4682 C4692 0.930 . S
H4683 C4695 0.929 . S
H4684 C4698 0.930 . S
H4685 C4700 0.960 . S
H4686 C4700 0.960 . S
H4687 C4700 0.960 . S
C4688 H4680 0.929 . S
C4688 C4689 1.377 . S
C4688 C4690 1.384 . S
C4689 C4688 1.377 . S
C4689 C4695 1.390 . S
C4690 H4681 0.930 . S
C4690 C4688 1.384 . S
C4690 C4691 1.372 . S
C4691 C4690 1.372 . S
C4691 C4692 1.400 . S
C4691 C4696 1.490 . S
C4692 H4682 0.930 . S
C4692 C4691 1.400 . S
C4692 C4695 1.386 . S
H4693 C4709 0.930 . S
H4694 C4710 0.931 . S
C4695 H4683 0.929 . S
C4695 C4689 1.390 . S
C4695 C4692 1.386 . S
C4696 C4691 1.490 . S
C4696 C4698 1.395 . S
C4696 C4699 1.403 . S
H4697 C4703 0.930 . S
C4698 H4684 0.930 . S
C4698 C4696 1.395 . S
C4698 C4701 1.403 . S
C4699 C4696 1.403 . S
C4699 C4700 1.524 . S
C4699 C4703 1.400 . S
C4700 H4685 0.960 . S
C4700 H4686 0.960 . S
C4700 H4687 0.960 . S
C4700 C4699 1.524 . S
C4701 C4698 1.403 . S
C4701 C4702 1.392 . S
C4701 C4705 1.495 . S
C4702 C4701 1.392 . S
C4702 C4703 1.385 . S
C4702 C4704 1.478 . S
C4703 H4697 0.930 . S
C4703 C4699 1.400 . S
C4703 C4702 1.385 . S
C4704 C4702 1.478 . S
C4704 C4706 1.381 . S
C4704 C4710 1.383 . S
C4705 C4701 1.495 . S
C4705 H4711 0.959 . S
C4705 H4712 0.961 . S
C4705 H4713 0.960 . S
C4706 C4704 1.381 . S
C4706 C4707 1.394 . S
C4706 H4714 0.930 . S
C4707 C4706 1.394 . S
C4707 C4708 1.383 . S
C4707 H4715 0.929 . S
C4708 C4707 1.383 . S
C4708 C4709 1.377 . S
C4709 H4693 0.930 . S
C4709 C4708 1.377 . S
C4709 C4710 1.379 . S
C4710 H4694 0.931 . S
C4710 C4704 1.383 . S
C4710 C4709 1.379 . S
H4711 C4705 0.959 . S
H4712 C4705 0.961 . S
H4713 C4705 0.960 . S
H4714 C4706 0.930 . S
H4715 C4707 0.929 . S
H4716 C4724 0.929 . S
H4717 C4726 0.930 . S
H4718 C4728 0.930 . S
H4719 C4731 0.929 . S
H4720 C4734 0.930 . S
H4721 C4736 0.960 . S
H4722 C4736 0.960 . S
H4723 C4736 0.960 . S
C4724 H4716 0.929 . S
C4724 C4725 1.377 . S
C4724 C4726 1.384 . S
C4725 C4724 1.377 . S
C4725 C4731 1.390 . S
C4726 H4717 0.930 . S
C4726 C4724 1.384 . S
C4726 C4727 1.372 . S
C4727 C4726 1.372 . S
C4727 C4728 1.400 . S
C4727 C4732 1.490 . S
C4728 H4718 0.930 . S
C4728 C4727 1.400 . S
C4728 C4731 1.386 . S
H4729 C4745 0.930 . S
H4730 C4746 0.931 . S
C4731 H4719 0.929 . S
C4731 C4725 1.390 . S
C4731 C4728 1.386 . S
C4732 C4727 1.490 . S
C4732 C4734 1.395 . S
C4732 C4735 1.403 . S
H4733 C4739 0.930 . S
C4734 H4720 0.930 . S
C4734 C4732 1.395 . S
C4734 C4737 1.403 . S
C4735 C4732 1.403 . S
C4735 C4736 1.524 . S
C4735 C4739 1.400 . S
C4736 H4721 0.960 . S
C4736 H4722 0.960 . S
C4736 H4723 0.960 . S
C4736 C4735 1.524 . S
C4737 C4734 1.403 . S
C4737 C4738 1.392 . S
C4737 C4741 1.495 . S
C4738 C4737 1.392 . S
C4738 C4739 1.385 . S
C4738 C4740 1.478 . S
C4739 H4733 0.930 . S
C4739 C4735 1.400 . S
C4739 C4738 1.385 . S
C4740 C4738 1.478 . S
C4740 C4742 1.381 . S
C4740 C4746 1.383 . S
C4741 C4737 1.495 . S
C4741 H4747 0.959 . S
C4741 H4748 0.961 . S
C4741 H4749 0.960 . S
C4742 C4740 1.381 . S
C4742 C4743 1.394 . S
C4742 H4750 0.930 . S
C4743 C4742 1.394 . S
C4743 C4744 1.383 . S
C4743 H4751 0.929 . S
C4744 C4743 1.383 . S
C4744 C4745 1.377 . S
C4745 H4729 0.930 . S
C4745 C4744 1.377 . S
C4745 C4746 1.379 . S
C4746 H4730 0.931 . S
C4746 C4740 1.383 . S
C4746 C4745 1.379 . S
H4747 C4741 0.959 . S
H4748 C4741 0.961 . S
H4749 C4741 0.960 . S
H4750 C4742 0.930 . S
H4751 C4743 0.929 . S
H4752 C4760 0.929 . S
H4753 C4762 0.930 . S
H4754 C4764 0.930 . S
H4755 C4767 0.929 . S
H4756 C4770 0.930 . S
H4757 C4772 0.960 . S
H4758 C4772 0.960 . S
H4759 C4772 0.960 . S
C4760 H4752 0.929 . S
C4760 C4761 1.377 . S
C4760 C4762 1.384 . S
C4761 C4760 1.377 . S
C4761 C4767 1.390 . S
C4762 H4753 0.930 . S
C4762 C4760 1.384 . S
C4762 C4763 1.372 . S
C4763 C4762 1.372 . S
C4763 C4764 1.400 . S
C4763 C4768 1.490 . S
C4764 H4754 0.930 . S
C4764 C4763 1.400 . S
C4764 C4767 1.386 . S
H4765 C4781 0.930 . S
H4766 C4782 0.931 . S
C4767 H4755 0.929 . S
C4767 C4761 1.390 . S
C4767 C4764 1.386 . S
C4768 C4763 1.490 . S
C4768 C4770 1.395 . S
C4768 C4771 1.403 . S
H4769 C4775 0.930 . S
C4770 H4756 0.930 . S
C4770 C4768 1.395 . S
C4770 C4773 1.403 . S
C4771 C4768 1.403 . S
C4771 C4772 1.524 . S
C4771 C4775 1.400 . S
C4772 H4757 0.960 . S
C4772 H4758 0.960 . S
C4772 H4759 0.960 . S
C4772 C4771 1.524 . S
C4773 C4770 1.403 . S
C4773 C4774 1.392 . S
C4773 C4777 1.495 . S
C4774 C4773 1.392 . S
C4774 C4775 1.385 . S
C4774 C4776 1.478 . S
C4775 H4769 0.930 . S
C4775 C4771 1.400 . S
C4775 C4774 1.385 . S
C4776 C4774 1.478 . S
C4776 C4778 1.381 . S
C4776 C4782 1.383 . S
C4777 C4773 1.495 . S
C4777 H4783 0.959 . S
C4777 H4784 0.961 . S
C4777 H4785 0.960 . S
C4778 C4776 1.381 . S
C4778 C4779 1.394 . S
C4778 H4786 0.930 . S
C4779 C4778 1.394 . S
C4779 C4780 1.383 . S
C4779 H4787 0.929 . S
C4780 C4779 1.383 . S
C4780 C4781 1.377 . S
C4781 H4765 0.930 . S
C4781 C4780 1.377 . S
C4781 C4782 1.379 . S
C4782 H4766 0.931 . S
C4782 C4776 1.383 . S
C4782 C4781 1.379 . S
H4783 C4777 0.959 . S
H4784 C4777 0.961 . S
H4785 C4777 0.960 . S
H4786 C4778 0.930 . S
H4787 C4779 0.929 . S
H4788 C4796 0.929 . S
H4789 C4798 0.930 . S
H4790 C4800 0.930 . S
H4791 C4803 0.929 . S
H4792 C4806 0.930 . S
H4793 C4808 0.960 . S
H4794 C4808 0.960 . S
H4795 C4808 0.960 . S
C4796 H4788 0.929 . S
C4796 C4797 1.377 . S
C4796 C4798 1.384 . S
C4797 C4796 1.377 . S
C4797 C4803 1.390 . S
C4798 H4789 0.930 . S
C4798 C4796 1.384 . S
C4798 C4799 1.372 . S
C4799 C4798 1.372 . S
C4799 C4800 1.400 . S
C4799 C4804 1.490 . S
C4800 H4790 0.930 . S
C4800 C4799 1.400 . S
C4800 C4803 1.386 . S
H4801 C4817 0.930 . S
H4802 C4818 0.931 . S
C4803 H4791 0.929 . S
C4803 C4797 1.390 . S
C4803 C4800 1.386 . S
C4804 C4799 1.490 . S
C4804 C4806 1.395 . S
C4804 C4807 1.403 . S
H4805 C4811 0.930 . S
C4806 H4792 0.930 . S
C4806 C4804 1.395 . S
C4806 C4809 1.403 . S
C4807 C4804 1.403 . S
C4807 C4808 1.524 . S
C4807 C4811 1.400 . S
C4808 H4793 0.960 . S
C4808 H4794 0.960 . S
C4808 H4795 0.960 . S
C4808 C4807 1.524 . S
C4809 C4806 1.403 . S
C4809 C4810 1.392 . S
C4809 C4813 1.495 . S
C4810 C4809 1.392 . S
C4810 C4811 1.385 . S
C4810 C4812 1.478 . S
C4811 H4805 0.930 . S
C4811 C4807 1.400 . S
C4811 C4810 1.385 . S
C4812 C4810 1.478 . S
C4812 C4814 1.381 . S
C4812 C4818 1.383 . S
C4813 C4809 1.495 . S
C4813 H4819 0.959 . S
C4813 H4820 0.961 . S
C4813 H4821 0.960 . S
C4814 C4812 1.381 . S
C4814 C4815 1.394 . S
C4814 H4822 0.930 . S
C4815 C4814 1.394 . S
C4815 C4816 1.383 . S
C4815 H4823 0.929 . S
C4816 C4815 1.383 . S
C4816 C4817 1.377 . S
C4817 H4801 0.930 . S
C4817 C4816 1.377 . S
C4817 C4818 1.379 . S
C4818 H4802 0.931 . S
C4818 C4812 1.383 . S
C4818 C4817 1.379 . S
H4819 C4813 0.959 . S
H4820 C4813 0.961 . S
H4821 C4813 0.960 . S
H4822 C4814 0.930 . S
H4823 C4815 0.929 . S
H4824 C4832 0.929 . S
H4825 C4834 0.930 . S
H4826 C4836 0.930 . S
H4827 C4839 0.929 . S
H4828 C4842 0.930 . S
H4829 C4844 0.960 . S
H4830 C4844 0.960 . S
H4831 C4844 0.960 . S
C4832 H4824 0.929 . S
C4832 C4833 1.377 . S
C4832 C4834 1.384 . S
C4833 C4832 1.377 . S
C4833 C4839 1.390 . S
C4834 H4825 0.930 . S
C4834 C4832 1.384 . S
C4834 C4835 1.372 . S
C4835 C4834 1.372 . S
C4835 C4836 1.400 . S
C4835 C4840 1.490 . S
C4836 H4826 0.930 . S
C4836 C4835 1.400 . S
C4836 C4839 1.386 . S
H4837 C4853 0.930 . S
H4838 C4854 0.931 . S
C4839 H4827 0.929 . S
C4839 C4833 1.390 . S
C4839 C4836 1.386 . S
C4840 C4835 1.490 . S
C4840 C4842 1.395 . S
C4840 C4843 1.403 . S
H4841 C4847 0.930 . S
C4842 H4828 0.930 . S
C4842 C4840 1.395 . S
C4842 C4845 1.403 . S
C4843 C4840 1.403 . S
C4843 C4844 1.524 . S
C4843 C4847 1.400 . S
C4844 H4829 0.960 . S
C4844 H4830 0.960 . S
C4844 H4831 0.960 . S
C4844 C4843 1.524 . S
C4845 C4842 1.403 . S
C4845 C4846 1.392 . S
C4845 C4849 1.495 . S
C4846 C4845 1.392 . S
C4846 C4847 1.385 . S
C4846 C4848 1.478 . S
C4847 H4841 0.930 . S
C4847 C4843 1.400 . S
C4847 C4846 1.385 . S
C4848 C4846 1.478 . S
C4848 C4850 1.381 . S
C4848 C4854 1.383 . S
C4849 C4845 1.495 . S
C4849 H4855 0.959 . S
C4849 H4856 0.961 . S
C4849 H4857 0.960 . S
C4850 C4848 1.381 . S
C4850 C4851 1.394 . S
C4850 H4858 0.930 . S
C4851 C4850 1.394 . S
C4851 C4852 1.383 . S
C4851 H4859 0.929 . S
C4852 C4851 1.383 . S
C4852 C4853 1.377 . S
C4853 H4837 0.930 . S
C4853 C4852 1.377 . S
C4853 C4854 1.379 . S
C4854 H4838 0.931 . S
C4854 C4848 1.383 . S
C4854 C4853 1.379 . S
H4855 C4849 0.959 . S
H4856 C4849 0.961 . S
H4857 C4849 0.960 . S
H4858 C4850 0.930 . S
H4859 C4851 0.929 . S
H4860 C4868 0.929 . S
H4861 C4870 0.930 . S
H4862 C4872 0.930 . S
H4863 C4875 0.929 . S
H4864 C4878 0.930 . S
H4865 C4880 0.960 . S
H4866 C4880 0.960 . S
H4867 C4880 0.960 . S
C4868 H4860 0.929 . S
C4868 C4869 1.377 . S
C4868 C4870 1.384 . S
C4869 C4868 1.377 . S
C4869 C4875 1.390 . S
C4870 H4861 0.930 . S
C4870 C4868 1.384 . S
C4870 C4871 1.372 . S
C4871 C4870 1.372 . S
C4871 C4872 1.400 . S
C4871 C4876 1.490 . S
C4872 H4862 0.930 . S
C4872 C4871 1.400 . S
C4872 C4875 1.386 . S
H4873 C4889 0.930 . S
H4874 C4890 0.931 . S
C4875 H4863 0.929 . S
C4875 C4869 1.390 . S
C4875 C4872 1.386 . S
C4876 C4871 1.490 . S
C4876 C4878 1.395 . S
C4876 C4879 1.403 . S
H4877 C4883 0.930 . S
C4878 H4864 0.930 . S
C4878 C4876 1.395 . S
C4878 C4881 1.403 . S
C4879 C4876 1.403 . S
C4879 C4880 1.524 . S
C4879 C4883 1.400 . S
C4880 H4865 0.960 . S
C4880 H4866 0.960 . S
C4880 H4867 0.960 . S
C4880 C4879 1.524 . S
C4881 C4878 1.403 . S
C4881 C4882 1.392 . S
C4881 C4885 1.495 . S
C4882 C4881 1.392 . S
C4882 C4883 1.385 . S
C4882 C4884 1.478 . S
C4883 H4877 0.930 . S
C4883 C4879 1.400 . S
C4883 C4882 1.385 . S
C4884 C4882 1.478 . S
C4884 C4886 1.381 . S
C4884 C4890 1.383 . S
C4885 C4881 1.495 . S
C4885 H4891 0.959 . S
C4885 H4892 0.961 . S
C4885 H4893 0.960 . S
C4886 C4884 1.381 . S
C4886 C4887 1.394 . S
C4886 H4894 0.930 . S
C4887 C4886 1.394 . S
C4887 C4888 1.383 . S
C4887 H4895 0.929 . S
C4888 C4887 1.383 . S
C4888 C4889 1.377 . S
C4889 H4873 0.930 . S
C4889 C4888 1.377 . S
C4889 C4890 1.379 . S
C4890 H4874 0.931 . S
C4890 C4884 1.383 . S
C4890 C4889 1.379 . S
H4891 C4885 0.959 . S
H4892 C4885 0.961 . S
H4893 C4885 0.960 . S
H4894 C4886 0.930 . S
H4895 C4887 0.929 . S
H4896 C4904 0.929 . S
H4897 C4906 0.930 . S
H4898 C4908 0.930 . S
H4899 C4911 0.929 . S
H4900 C4914 0.930 . S
H4901 C4916 0.960 . S
H4902 C4916 0.960 . S
H4903 C4916 0.960 . S
C4904 H4896 0.929 . S
C4904 C4905 1.377 . S
C4904 C4906 1.384 . S
C4905 C4904 1.377 . S
C4905 C4911 1.390 . S
C4906 H4897 0.930 . S
C4906 C4904 1.384 . S
C4906 C4907 1.372 . S
C4907 C4906 1.372 . S
C4907 C4908 1.400 . S
C4907 C4912 1.490 . S
C4908 H4898 0.930 . S
C4908 C4907 1.400 . S
C4908 C4911 1.386 . S
H4909 C4925 0.930 . S
H4910 C4926 0.931 . S
C4911 H4899 0.929 . S
C4911 C4905 1.390 . S
C4911 C4908 1.386 . S
C4912 C4907 1.490 . S
C4912 C4914 1.395 . S
C4912 C4915 1.403 . S
H4913 C4919 0.930 . S
C4914 H4900 0.930 . S
C4914 C4912 1.395 . S
C4914 C4917 1.403 . S
C4915 C4912 1.403 . S
C4915 C4916 1.524 . S
C4915 C4919 1.400 . S
C4916 H4901 0.960 . S
C4916 H4902 0.960 . S
C4916 H4903 0.960 . S
C4916 C4915 1.524 . S
C4917 C4914 1.403 . S
C4917 C4918 1.392 . S
C4917 C4921 1.495 . S
C4918 C4917 1.392 . S
C4918 C4919 1.385 . S
C4918 C4920 1.478 . S
C4919 H4913 0.930 . S
C4919 C4915 1.400 . S
C4919 C4918 1.385 . S
C4920 C4918 1.478 . S
C4920 C4922 1.381 . S
C4920 C4926 1.383 . S
C4921 C4917 1.495 . S
C4921 H4927 0.959 . S
C4921 H4928 0.961 . S
C4921 H4929 0.960 . S
C4922 C4920 1.381 . S
C4922 C4923 1.394 . S
C4922 H4930 0.930 . S
C4923 C4922 1.394 . S
C4923 C4924 1.383 . S
C4923 H4931 0.929 . S
C4924 C4923 1.383 . S
C4924 C4925 1.377 . S
C4925 H4909 0.930 . S
C4925 C4924 1.377 . S
C4925 C4926 1.379 . S
C4926 H4910 0.931 . S
C4926 C4920 1.383 . S
C4926 C4925 1.379 . S
H4927 C4921 0.959 . S
H4928 C4921 0.961 . S
H4929 C4921 0.960 . S
H4930 C4922 0.930 . S
H4931 C4923 0.929 . S
H4932 C4940 0.929 . S
H4933 C4942 0.930 . S
H4934 C4944 0.930 . S
H4935 C4947 0.929 . S
H4936 C4950 0.930 . S
H4937 C4952 0.960 . S
H4938 C4952 0.960 . S
H4939 C4952 0.960 . S
C4940 H4932 0.929 . S
C4940 C4941 1.377 . S
C4940 C4942 1.384 . S
C4941 C4940 1.377 . S
C4941 C4947 1.390 . S
C4942 H4933 0.930 . S
C4942 C4940 1.384 . S
C4942 C4943 1.372 . S
C4943 C4942 1.372 . S
C4943 C4944 1.400 . S
C4943 C4948 1.490 . S
C4944 H4934 0.930 . S
C4944 C4943 1.400 . S
C4944 C4947 1.386 . S
H4945 C4961 0.930 . S
H4946 C4962 0.931 . S
C4947 H4935 0.929 . S
C4947 C4941 1.390 . S
C4947 C4944 1.386 . S
C4948 C4943 1.490 . S
C4948 C4950 1.395 . S
C4948 C4951 1.403 . S
H4949 C4955 0.930 . S
C4950 H4936 0.930 . S
C4950 C4948 1.395 . S
C4950 C4953 1.403 . S
C4951 C4948 1.403 . S
C4951 C4952 1.524 . S
C4951 C4955 1.400 . S
C4952 H4937 0.960 . S
C4952 H4938 0.960 . S
C4952 H4939 0.960 . S
C4952 C4951 1.524 . S
C4953 C4950 1.403 . S
C4953 C4954 1.392 . S
C4953 C4957 1.495 . S
C4954 C4953 1.392 . S
C4954 C4955 1.385 . S
C4954 C4956 1.478 . S
C4955 H4949 0.930 . S
C4955 C4951 1.400 . S
C4955 C4954 1.385 . S
C4956 C4954 1.478 . S
C4956 C4958 1.381 . S
C4956 C4962 1.383 . S
C4957 C4953 1.495 . S
C4957 H4963 0.959 . S
C4957 H4964 0.961 . S
C4957 H4965 0.960 . S
C4958 C4956 1.381 . S
C4958 C4959 1.394 . S
C4958 H4966 0.930 . S
C4959 C4958 1.394 . S
C4959 C4960 1.383 . S
C4959 H4967 0.929 . S
C4960 C4959 1.383 . S
C4960 C4961 1.377 . S
C4961 H4945 0.930 . S
C4961 C4960 1.377 . S
C4961 C4962 1.379 . S
C4962 H4946 0.931 . S
C4962 C4956 1.383 . S
C4962 C4961 1.379 . S
H4963 C4957 0.959 . S
H4964 C4957 0.961 . S
H4965 C4957 0.960 . S
H4966 C4958 0.930 . S
H4967 C4959 0.929 . S
H4968 C4976 0.929 . S
H4969 C4978 0.930 . S
H4970 C4980 0.930 . S
H4971 C4983 0.929 . S
H4972 C4986 0.930 . S
H4973 C4988 0.960 . S
H4974 C4988 0.960 . S
H4975 C4988 0.960 . S
C4976 H4968 0.929 . S
C4976 C4977 1.377 . S
C4976 C4978 1.384 . S
C4977 C4976 1.377 . S
C4977 C4983 1.390 . S
C4978 H4969 0.930 . S
C4978 C4976 1.384 . S
C4978 C4979 1.372 . S
C4979 C4978 1.372 . S
C4979 C4980 1.400 . S
C4979 C4984 1.490 . S
C4980 H4970 0.930 . S
C4980 C4979 1.400 . S
C4980 C4983 1.386 . S
H4981 C4997 0.930 . S
H4982 C4998 0.931 . S
C4983 H4971 0.929 . S
C4983 C4977 1.390 . S
C4983 C4980 1.386 . S
C4984 C4979 1.490 . S
C4984 C4986 1.395 . S
C4984 C4987 1.403 . S
H4985 C4991 0.930 . S
C4986 H4972 0.930 . S
C4986 C4984 1.395 . S
C4986 C4989 1.403 . S
C4987 C4984 1.403 . S
C4987 C4988 1.524 . S
C4987 C4991 1.400 . S
C4988 H4973 0.960 . S
C4988 H4974 0.960 . S
C4988 H4975 0.960 . S
C4988 C4987 1.524 . S
C4989 C4986 1.403 . S
C4989 C4990 1.392 . S
C4989 C4993 1.495 . S
C4990 C4989 1.392 . S
C4990 C4991 1.385 . S
C4990 C4992 1.478 . S
C4991 H4985 0.930 . S
C4991 C4987 1.400 . S
C4991 C4990 1.385 . S
C4992 C4990 1.478 . S
C4992 C4994 1.381 . S
C4992 C4998 1.383 . S
C4993 C4989 1.495 . S
C4993 H4999 0.959 . S
C4993 H5000 0.961 . S
C4993 H5001 0.960 . S
C4994 C4992 1.381 . S
C4994 C4995 1.394 . S
C4994 H5002 0.930 . S
C4995 C4994 1.394 . S
C4995 C4996 1.383 . S
C4995 H5003 0.929 . S
C4996 C4995 1.383 . S
C4996 C4997 1.377 . S
C4997 H4981 0.930 . S
C4997 C4996 1.377 . S
C4997 C4998 1.379 . S
C4998 H4982 0.931 . S
C4998 C4992 1.383 . S
C4998 C4997 1.379 . S
H4999 C4993 0.959 . S
H5000 C4993 0.961 . S
H5001 C4993 0.960 . S
H5002 C4994 0.930 . S
H5003 C4995 0.929 . S
H5004 C5012 0.929 . S
H5005 C5014 0.930 . S
H5006 C5016 0.930 . S
H5007 C5019 0.929 . S
H5008 C5022 0.930 . S
H5009 C5024 0.960 . S
H5010 C5024 0.960 . S
H5011 C5024 0.960 . S
C5012 H5004 0.929 . S
C5012 C5013 1.377 . S
C5012 C5014 1.384 . S
C5013 C5012 1.377 . S
C5013 C5019 1.390 . S
C5014 H5005 0.930 . S
C5014 C5012 1.384 . S
C5014 C5015 1.372 . S
C5015 C5014 1.372 . S
C5015 C5016 1.400 . S
C5015 C5020 1.490 . S
C5016 H5006 0.930 . S
C5016 C5015 1.400 . S
C5016 C5019 1.386 . S
H5017 C5033 0.930 . S
H5018 C5034 0.931 . S
C5019 H5007 0.929 . S
C5019 C5013 1.390 . S
C5019 C5016 1.386 . S
C5020 C5015 1.490 . S
C5020 C5022 1.395 . S
C5020 C5023 1.403 . S
H5021 C5027 0.930 . S
C5022 H5008 0.930 . S
C5022 C5020 1.395 . S
C5022 C5025 1.403 . S
C5023 C5020 1.403 . S
C5023 C5024 1.524 . S
C5023 C5027 1.400 . S
C5024 H5009 0.960 . S
C5024 H5010 0.960 . S
C5024 H5011 0.960 . S
C5024 C5023 1.524 . S
C5025 C5022 1.403 . S
C5025 C5026 1.392 . S
C5025 C5029 1.495 . S
C5026 C5025 1.392 . S
C5026 C5027 1.385 . S
C5026 C5028 1.478 . S
C5027 H5021 0.930 . S
C5027 C5023 1.400 . S
C5027 C5026 1.385 . S
C5028 C5026 1.478 . S
C5028 C5030 1.381 . S
C5028 C5034 1.383 . S
C5029 C5025 1.495 . S
C5029 H5035 0.959 . S
C5029 H5036 0.961 . S
C5029 H5037 0.960 . S
C5030 C5028 1.381 . S
C5030 C5031 1.394 . S
C5030 H5038 0.930 . S
C5031 C5030 1.394 . S
C5031 C5032 1.383 . S
C5031 H5039 0.929 . S
C5032 C5031 1.383 . S
C5032 C5033 1.377 . S
C5033 H5017 0.930 . S
C5033 C5032 1.377 . S
C5033 C5034 1.379 . S
C5034 H5018 0.931 . S
C5034 C5028 1.383 . S
C5034 C5033 1.379 . S
H5035 C5029 0.959 . S
H5036 C5029 0.961 . S
H5037 C5029 0.960 . S
H5038 C5030 0.930 . S
H5039 C5031 0.929 . S
H5040 C5048 0.929 . S
H5041 C5050 0.930 . S
H5042 C5052 0.930 . S
H5043 C5055 0.929 . S
H5044 C5058 0.930 . S
H5045 C5060 0.960 . S
H5046 C5060 0.960 . S
H5047 C5060 0.960 . S
C5048 H5040 0.929 . S
C5048 C5049 1.377 . S
C5048 C5050 1.384 . S
C5049 C5048 1.377 . S
C5049 C5055 1.390 . S
C5050 H5041 0.930 . S
C5050 C5048 1.384 . S
C5050 C5051 1.372 . S
C5051 C5050 1.372 . S
C5051 C5052 1.400 . S
C5051 C5056 1.490 . S
C5052 H5042 0.930 . S
C5052 C5051 1.400 . S
C5052 C5055 1.386 . S
H5053 C5069 0.930 . S
H5054 C5070 0.931 . S
C5055 H5043 0.929 . S
C5055 C5049 1.390 . S
C5055 C5052 1.386 . S
C5056 C5051 1.490 . S
C5056 C5058 1.395 . S
C5056 C5059 1.403 . S
H5057 C5063 0.930 . S
C5058 H5044 0.930 . S
C5058 C5056 1.395 . S
C5058 C5061 1.403 . S
C5059 C5056 1.403 . S
C5059 C5060 1.524 . S
C5059 C5063 1.400 . S
C5060 H5045 0.960 . S
C5060 H5046 0.960 . S
C5060 H5047 0.960 . S
C5060 C5059 1.524 . S
C5061 C5058 1.403 . S
C5061 C5062 1.392 . S
C5061 C5065 1.495 . S
C5062 C5061 1.392 . S
C5062 C5063 1.385 . S
C5062 C5064 1.478 . S
C5063 H5057 0.930 . S
C5063 C5059 1.400 . S
C5063 C5062 1.385 . S
C5064 C5062 1.478 . S
C5064 C5066 1.381 . S
C5064 C5070 1.383 . S
C5065 C5061 1.495 . S
C5065 H5071 0.959 . S
C5065 H5072 0.961 . S
C5065 H5073 0.960 . S
C5066 C5064 1.381 . S
C5066 C5067 1.394 . S
C5066 H5074 0.930 . S
C5067 C5066 1.394 . S
C5067 C5068 1.383 . S
C5067 H5075 0.929 . S
C5068 C5067 1.383 . S
C5068 C5069 1.377 . S
C5069 H5053 0.930 . S
C5069 C5068 1.377 . S
C5069 C5070 1.379 . S
C5070 H5054 0.931 . S
C5070 C5064 1.383 . S
C5070 C5069 1.379 . S
H5071 C5065 0.959 . S
H5072 C5065 0.961 . S
H5073 C5065 0.960 . S
H5074 C5066 0.930 . S
H5075 C5067 0.929 . S
H5076 C5084 0.929 . S
H5077 C5086 0.930 . S
H5078 C5088 0.930 . S
H5079 C5091 0.929 . S
H5080 C5094 0.930 . S
H5081 C5096 0.960 . S
H5082 C5096 0.960 . S
H5083 C5096 0.960 . S
C5084 H5076 0.929 . S
C5084 C5085 1.377 . S
C5084 C5086 1.384 . S
C5085 C5084 1.377 . S
C5085 C5091 1.390 . S
C5086 H5077 0.930 . S
C5086 C5084 1.384 . S
C5086 C5087 1.372 . S
C5087 C5086 1.372 . S
C5087 C5088 1.400 . S
C5087 C5092 1.490 . S
C5088 H5078 0.930 . S
C5088 C5087 1.400 . S
C5088 C5091 1.386 . S
H5089 C5105 0.930 . S
H5090 C5106 0.931 . S
C5091 H5079 0.929 . S
C5091 C5085 1.390 . S
C5091 C5088 1.386 . S
C5092 C5087 1.490 . S
C5092 C5094 1.395 . S
C5092 C5095 1.403 . S
H5093 C5099 0.930 . S
C5094 H5080 0.930 . S
C5094 C5092 1.395 . S
C5094 C5097 1.403 . S
C5095 C5092 1.403 . S
C5095 C5096 1.524 . S
C5095 C5099 1.400 . S
C5096 H5081 0.960 . S
C5096 H5082 0.960 . S
C5096 H5083 0.960 . S
C5096 C5095 1.524 . S
C5097 C5094 1.403 . S
C5097 C5098 1.392 . S
C5097 C5101 1.495 . S
C5098 C5097 1.392 . S
C5098 C5099 1.385 . S
C5098 C5100 1.478 . S
C5099 H5093 0.930 . S
C5099 C5095 1.400 . S
C5099 C5098 1.385 . S
C5100 C5098 1.478 . S
C5100 C5102 1.381 . S
C5100 C5106 1.383 . S
C5101 C5097 1.495 . S
C5101 H5107 0.959 . S
C5101 H5108 0.961 . S
C5101 H5109 0.960 . S
C5102 C5100 1.381 . S
C5102 C5103 1.394 . S
C5102 H5110 0.930 . S
C5103 C5102 1.394 . S
C5103 C5104 1.383 . S
C5103 H5111 0.929 . S
C5104 C5103 1.383 . S
C5104 C5105 1.377 . S
C5105 H5089 0.930 . S
C5105 C5104 1.377 . S
C5105 C5106 1.379 . S
C5106 H5090 0.931 . S
C5106 C5100 1.383 . S
C5106 C5105 1.379 . S
H5107 C5101 0.959 . S
H5108 C5101 0.961 . S
H5109 C5101 0.960 . S
H5110 C5102 0.930 . S
H5111 C5103 0.929 . S
H5112 C5120 0.929 . S
H5113 C5122 0.930 . S
H5114 C5124 0.930 . S
H5115 C5127 0.929 . S
H5116 C5130 0.930 . S
H5117 C5132 0.960 . S
H5118 C5132 0.960 . S
H5119 C5132 0.960 . S
C5120 H5112 0.929 . S
C5120 C5121 1.377 . S
C5120 C5122 1.384 . S
C5121 C5120 1.377 . S
C5121 C5127 1.390 . S
C5122 H5113 0.930 . S
C5122 C5120 1.384 . S
C5122 C5123 1.372 . S
C5123 C5122 1.372 . S
C5123 C5124 1.400 . S
C5123 C5128 1.490 . S
C5124 H5114 0.930 . S
C5124 C5123 1.400 . S
C5124 C5127 1.386 . S
H5125 C5141 0.930 . S
H5126 C5142 0.931 . S
C5127 H5115 0.929 . S
C5127 C5121 1.390 . S
C5127 C5124 1.386 . S
C5128 C5123 1.490 . S
C5128 C5130 1.395 . S
C5128 C5131 1.403 . S
H5129 C5135 0.930 . S
C5130 H5116 0.930 . S
C5130 C5128 1.395 . S
C5130 C5133 1.403 . S
C5131 C5128 1.403 . S
C5131 C5132 1.524 . S
C5131 C5135 1.400 . S
C5132 H5117 0.960 . S
C5132 H5118 0.960 . S
C5132 H5119 0.960 . S
C5132 C5131 1.524 . S
C5133 C5130 1.403 . S
C5133 C5134 1.392 . S
C5133 C5137 1.495 . S
C5134 C5133 1.392 . S
C5134 C5135 1.385 . S
C5134 C5136 1.478 . S
C5135 H5129 0.930 . S
C5135 C5131 1.400 . S
C5135 C5134 1.385 . S
C5136 C5134 1.478 . S
C5136 C5138 1.381 . S
C5136 C5142 1.383 . S
C5137 C5133 1.495 . S
C5137 H5143 0.959 . S
C5137 H5144 0.961 . S
C5137 H5145 0.960 . S
C5138 C5136 1.381 . S
C5138 C5139 1.394 . S
C5138 H5146 0.930 . S
C5139 C5138 1.394 . S
C5139 C5140 1.383 . S
C5139 H5147 0.929 . S
C5140 C5139 1.383 . S
C5140 C5141 1.377 . S
C5141 H5125 0.930 . S
C5141 C5140 1.377 . S
C5141 C5142 1.379 . S
C5142 H5126 0.931 . S
C5142 C5136 1.383 . S
C5142 C5141 1.379 . S
H5143 C5137 0.959 . S
H5144 C5137 0.961 . S
H5145 C5137 0.960 . S
H5146 C5138 0.930 . S
H5147 C5139 0.929 . S
H5148 C5156 0.929 . S
H5149 C5158 0.930 . S
H5150 C5160 0.930 . S
H5151 C5163 0.929 . S
H5152 C5166 0.930 . S
H5153 C5168 0.960 . S
H5154 C5168 0.960 . S
H5155 C5168 0.960 . S
C5156 H5148 0.929 . S
C5156 C5157 1.377 . S
C5156 C5158 1.384 . S
C5157 C5156 1.377 . S
C5157 C5163 1.390 . S
C5158 H5149 0.930 . S
C5158 C5156 1.384 . S
C5158 C5159 1.372 . S
C5159 C5158 1.372 . S
C5159 C5160 1.400 . S
C5159 C5164 1.490 . S
C5160 H5150 0.930 . S
C5160 C5159 1.400 . S
C5160 C5163 1.386 . S
H5161 C5177 0.930 . S
H5162 C5178 0.931 . S
C5163 H5151 0.929 . S
C5163 C5157 1.390 . S
C5163 C5160 1.386 . S
C5164 C5159 1.490 . S
C5164 C5166 1.395 . S
C5164 C5167 1.403 . S
H5165 C5171 0.930 . S
C5166 H5152 0.930 . S
C5166 C5164 1.395 . S
C5166 C5169 1.403 . S
C5167 C5164 1.403 . S
C5167 C5168 1.524 . S
C5167 C5171 1.400 . S
C5168 H5153 0.960 . S
C5168 H5154 0.960 . S
C5168 H5155 0.960 . S
C5168 C5167 1.524 . S
C5169 C5166 1.403 . S
C5169 C5170 1.392 . S
C5169 C5173 1.495 . S
C5170 C5169 1.392 . S
C5170 C5171 1.385 . S
C5170 C5172 1.478 . S
C5171 H5165 0.930 . S
C5171 C5167 1.400 . S
C5171 C5170 1.385 . S
C5172 C5170 1.478 . S
C5172 C5174 1.381 . S
C5172 C5178 1.383 . S
C5173 C5169 1.495 . S
C5173 H5179 0.959 . S
C5173 H5180 0.961 . S
C5173 H5181 0.960 . S
C5174 C5172 1.381 . S
C5174 C5175 1.394 . S
C5174 H5182 0.930 . S
C5175 C5174 1.394 . S
C5175 C5176 1.383 . S
C5175 H5183 0.929 . S
C5176 C5175 1.383 . S
C5176 C5177 1.377 . S
C5177 H5161 0.930 . S
C5177 C5176 1.377 . S
C5177 C5178 1.379 . S
C5178 H5162 0.931 . S
C5178 C5172 1.383 . S
C5178 C5177 1.379 . S
H5179 C5173 0.959 . S
H5180 C5173 0.961 . S
H5181 C5173 0.960 . S
H5182 C5174 0.930 . S
H5183 C5175 0.929 . S
H5184 C5192 0.929 . S
H5185 C5194 0.930 . S
H5186 C5196 0.930 . S
H5187 C5199 0.929 . S
H5188 C5202 0.930 . S
H5189 C5204 0.960 . S
H5190 C5204 0.960 . S
H5191 C5204 0.960 . S
C5192 H5184 0.929 . S
C5192 C5193 1.377 . S
C5192 C5194 1.384 . S
C5193 C5192 1.377 . S
C5193 C5199 1.390 . S
C5194 H5185 0.930 . S
C5194 C5192 1.384 . S
C5194 C5195 1.372 . S
C5195 C5194 1.372 . S
C5195 C5196 1.400 . S
C5195 C5200 1.490 . S
C5196 H5186 0.930 . S
C5196 C5195 1.400 . S
C5196 C5199 1.386 . S
H5197 C5213 0.930 . S
H5198 C5214 0.931 . S
C5199 H5187 0.929 . S
C5199 C5193 1.390 . S
C5199 C5196 1.386 . S
C5200 C5195 1.490 . S
C5200 C5202 1.395 . S
C5200 C5203 1.403 . S
H5201 C5207 0.930 . S
C5202 H5188 0.930 . S
C5202 C5200 1.395 . S
C5202 C5205 1.403 . S
C5203 C5200 1.403 . S
C5203 C5204 1.524 . S
C5203 C5207 1.400 . S
C5204 H5189 0.960 . S
C5204 H5190 0.960 . S
C5204 H5191 0.960 . S
C5204 C5203 1.524 . S
C5205 C5202 1.403 . S
C5205 C5206 1.392 . S
C5205 C5209 1.495 . S
C5206 C5205 1.392 . S
C5206 C5207 1.385 . S
C5206 C5208 1.478 . S
C5207 H5201 0.930 . S
C5207 C5203 1.400 . S
C5207 C5206 1.385 . S
C5208 C5206 1.478 . S
C5208 C5210 1.381 . S
C5208 C5214 1.383 . S
C5209 C5205 1.495 . S
C5209 H5215 0.959 . S
C5209 H5216 0.961 . S
C5209 H5217 0.960 . S
C5210 C5208 1.381 . S
C5210 C5211 1.394 . S
C5210 H5218 0.930 . S
C5211 C5210 1.394 . S
C5211 C5212 1.383 . S
C5211 H5219 0.929 . S
C5212 C5211 1.383 . S
C5212 C5213 1.377 . S
C5213 H5197 0.930 . S
C5213 C5212 1.377 . S
C5213 C5214 1.379 . S
C5214 H5198 0.931 . S
C5214 C5208 1.383 . S
C5214 C5213 1.379 . S
H5215 C5209 0.959 . S
H5216 C5209 0.961 . S
H5217 C5209 0.960 . S
H5218 C5210 0.930 . S
H5219 C5211 0.929 . S
H5220 C5228 0.929 . S
H5221 C5230 0.930 . S
H5222 C5232 0.930 . S
H5223 C5235 0.929 . S
H5224 C5238 0.930 . S
H5225 C5240 0.960 . S
H5226 C5240 0.960 . S
H5227 C5240 0.960 . S
C5228 H5220 0.929 . S
C5228 C5229 1.377 . S
C5228 C5230 1.384 . S
C5229 C5228 1.377 . S
C5229 C5235 1.390 . S
C5230 H5221 0.930 . S
C5230 C5228 1.384 . S
C5230 C5231 1.372 . S
C5231 C5230 1.372 . S
C5231 C5232 1.400 . S
C5231 C5236 1.490 . S
C5232 H5222 0.930 . S
C5232 C5231 1.400 . S
C5232 C5235 1.386 . S
H5233 C5249 0.930 . S
H5234 C5250 0.931 . S
C5235 H5223 0.929 . S
C5235 C5229 1.390 . S
C5235 C5232 1.386 . S
C5236 C5231 1.490 . S
C5236 C5238 1.395 . S
C5236 C5239 1.403 . S
H5237 C5243 0.930 . S
C5238 H5224 0.930 . S
C5238 C5236 1.395 . S
C5238 C5241 1.403 . S
C5239 C5236 1.403 . S
C5239 C5240 1.524 . S
C5239 C5243 1.400 . S
C5240 H5225 0.960 . S
C5240 H5226 0.960 . S
C5240 H5227 0.960 . S
C5240 C5239 1.524 . S
C5241 C5238 1.403 . S
C5241 C5242 1.392 . S
C5241 C5245 1.495 . S
C5242 C5241 1.392 . S
C5242 C5243 1.385 . S
C5242 C5244 1.478 . S
C5243 H5237 0.930 . S
C5243 C5239 1.400 . S
C5243 C5242 1.385 . S
C5244 C5242 1.478 . S
C5244 C5246 1.381 . S
C5244 C5250 1.383 . S
C5245 C5241 1.495 . S
C5245 H5251 0.959 . S
C5245 H5252 0.961 . S
C5245 H5253 0.960 . S
C5246 C5244 1.381 . S
C5246 C5247 1.394 . S
C5246 H5254 0.930 . S
C5247 C5246 1.394 . S
C5247 C5248 1.383 . S
C5247 H5255 0.929 . S
C5248 C5247 1.383 . S
C5248 C5249 1.377 . S
C5249 H5233 0.930 . S
C5249 C5248 1.377 . S
C5249 C5250 1.379 . S
C5250 H5234 0.931 . S
C5250 C5244 1.383 . S
C5250 C5249 1.379 . S
H5251 C5245 0.959 . S
H5252 C5245 0.961 . S
H5253 C5245 0.960 . S
H5254 C5246 0.930 . S
H5255 C5247 0.929 . S
H5256 C5264 0.929 . S
H5257 C5266 0.930 . S
H5258 C5268 0.930 . S
H5259 C5271 0.929 . S
H5260 C5274 0.930 . S
H5261 C5276 0.960 . S
H5262 C5276 0.960 . S
H5263 C5276 0.960 . S
C5264 H5256 0.929 . S
C5264 C5265 1.377 . S
C5264 C5266 1.384 . S
C5265 C5264 1.377 . S
C5265 C5271 1.390 . S
C5266 H5257 0.930 . S
C5266 C5264 1.384 . S
C5266 C5267 1.372 . S
C5267 C5266 1.372 . S
C5267 C5268 1.400 . S
C5267 C5272 1.490 . S
C5268 H5258 0.930 . S
C5268 C5267 1.400 . S
C5268 C5271 1.386 . S
H5269 C5285 0.930 . S
H5270 C5286 0.931 . S
C5271 H5259 0.929 . S
C5271 C5265 1.390 . S
C5271 C5268 1.386 . S
C5272 C5267 1.490 . S
C5272 C5274 1.395 . S
C5272 C5275 1.403 . S
H5273 C5279 0.930 . S
C5274 H5260 0.930 . S
C5274 C5272 1.395 . S
C5274 C5277 1.403 . S
C5275 C5272 1.403 . S
C5275 C5276 1.524 . S
C5275 C5279 1.400 . S
C5276 H5261 0.960 . S
C5276 H5262 0.960 . S
C5276 H5263 0.960 . S
C5276 C5275 1.524 . S
C5277 C5274 1.403 . S
C5277 C5278 1.392 . S
C5277 C5281 1.495 . S
C5278 C5277 1.392 . S
C5278 C5279 1.385 . S
C5278 C5280 1.478 . S
C5279 H5273 0.930 . S
C5279 C5275 1.400 . S
C5279 C5278 1.385 . S
C5280 C5278 1.478 . S
C5280 C5282 1.381 . S
C5280 C5286 1.383 . S
C5281 C5277 1.495 . S
C5281 H5287 0.959 . S
C5281 H5288 0.961 . S
C5281 H5289 0.960 . S
C5282 C5280 1.381 . S
C5282 C5283 1.394 . S
C5282 H5290 0.930 . S
C5283 C5282 1.394 . S
C5283 C5284 1.383 . S
C5283 H5291 0.929 . S
C5284 C5283 1.383 . S
C5284 C5285 1.377 . S
C5285 H5269 0.930 . S
C5285 C5284 1.377 . S
C5285 C5286 1.379 . S
C5286 H5270 0.931 . S
C5286 C5280 1.383 . S
C5286 C5285 1.379 . S
H5287 C5281 0.959 . S
H5288 C5281 0.961 . S
H5289 C5281 0.960 . S
H5290 C5282 0.930 . S
H5291 C5283 0.929 . S
H5292 C5300 0.929 . S
H5293 C5302 0.930 . S
H5294 C5304 0.930 . S
H5295 C5307 0.929 . S
H5296 C5310 0.930 . S
H5297 C5312 0.960 . S
H5298 C5312 0.960 . S
H5299 C5312 0.960 . S
C5300 H5292 0.929 . S
C5300 C5301 1.377 . S
C5300 C5302 1.384 . S
C5301 C5300 1.377 . S
C5301 C5307 1.390 . S
C5302 H5293 0.930 . S
C5302 C5300 1.384 . S
C5302 C5303 1.372 . S
C5303 C5302 1.372 . S
C5303 C5304 1.400 . S
C5303 C5308 1.490 . S
C5304 H5294 0.930 . S
C5304 C5303 1.400 . S
C5304 C5307 1.386 . S
H5305 C5321 0.930 . S
H5306 C5322 0.931 . S
C5307 H5295 0.929 . S
C5307 C5301 1.390 . S
C5307 C5304 1.386 . S
C5308 C5303 1.490 . S
C5308 C5310 1.395 . S
C5308 C5311 1.403 . S
H5309 C5315 0.930 . S
C5310 H5296 0.930 . S
C5310 C5308 1.395 . S
C5310 C5313 1.403 . S
C5311 C5308 1.403 . S
C5311 C5312 1.524 . S
C5311 C5315 1.400 . S
C5312 H5297 0.960 . S
C5312 H5298 0.960 . S
C5312 H5299 0.960 . S
C5312 C5311 1.524 . S
C5313 C5310 1.403 . S
C5313 C5314 1.392 . S
C5313 C5317 1.495 . S
C5314 C5313 1.392 . S
C5314 C5315 1.385 . S
C5314 C5316 1.478 . S
C5315 H5309 0.930 . S
C5315 C5311 1.400 . S
C5315 C5314 1.385 . S
C5316 C5314 1.478 . S
C5316 C5318 1.381 . S
C5316 C5322 1.383 . S
C5317 C5313 1.495 . S
C5317 H5323 0.959 . S
C5317 H5324 0.961 . S
C5317 H5325 0.960 . S
C5318 C5316 1.381 . S
C5318 C5319 1.394 . S
C5318 H5326 0.930 . S
C5319 C5318 1.394 . S
C5319 C5320 1.383 . S
C5319 H5327 0.929 . S
C5320 C5319 1.383 . S
C5320 C5321 1.377 . S
C5321 H5305 0.930 . S
C5321 C5320 1.377 . S
C5321 C5322 1.379 . S
C5322 H5306 0.931 . S
C5322 C5316 1.383 . S
C5322 C5321 1.379 . S
H5323 C5317 0.959 . S
H5324 C5317 0.961 . S
H5325 C5317 0.960 . S
H5326 C5318 0.930 . S
H5327 C5319 0.929 . S
H5328 C5336 0.929 . S
H5329 C5338 0.930 . S
H5330 C5340 0.930 . S
H5331 C5343 0.929 . S
H5332 C5346 0.930 . S
H5333 C5348 0.960 . S
H5334 C5348 0.960 . S
H5335 C5348 0.960 . S
C5336 H5328 0.929 . S
C5336 C5337 1.377 . S
C5336 C5338 1.384 . S
C5337 C5336 1.377 . S
C5337 C5343 1.390 . S
C5338 H5329 0.930 . S
C5338 C5336 1.384 . S
C5338 C5339 1.372 . S
C5339 C5338 1.372 . S
C5339 C5340 1.400 . S
C5339 C5344 1.490 . S
C5340 H5330 0.930 . S
C5340 C5339 1.400 . S
C5340 C5343 1.386 . S
H5341 C5357 0.930 . S
H5342 C5358 0.931 . S
C5343 H5331 0.929 . S
C5343 C5337 1.390 . S
C5343 C5340 1.386 . S
C5344 C5339 1.490 . S
C5344 C5346 1.395 . S
C5344 C5347 1.403 . S
H5345 C5351 0.930 . S
C5346 H5332 0.930 . S
C5346 C5344 1.395 . S
C5346 C5349 1.403 . S
C5347 C5344 1.403 . S
C5347 C5348 1.524 . S
C5347 C5351 1.400 . S
C5348 H5333 0.960 . S
C5348 H5334 0.960 . S
C5348 H5335 0.960 . S
C5348 C5347 1.524 . S
C5349 C5346 1.403 . S
C5349 C5350 1.392 . S
C5349 C5353 1.495 . S
C5350 C5349 1.392 . S
C5350 C5351 1.385 . S
C5350 C5352 1.478 . S
C5351 H5345 0.930 . S
C5351 C5347 1.400 . S
C5351 C5350 1.385 . S
C5352 C5350 1.478 . S
C5352 C5354 1.381 . S
C5352 C5358 1.383 . S
C5353 C5349 1.495 . S
C5353 H5359 0.959 . S
C5353 H5360 0.961 . S
C5353 H5361 0.960 . S
C5354 C5352 1.381 . S
C5354 C5355 1.394 . S
C5354 H5362 0.930 . S
C5355 C5354 1.394 . S
C5355 C5356 1.383 . S
C5355 H5363 0.929 . S
C5356 C5355 1.383 . S
C5356 C5357 1.377 . S
C5357 H5341 0.930 . S
C5357 C5356 1.377 . S
C5357 C5358 1.379 . S
C5358 H5342 0.931 . S
C5358 C5352 1.383 . S
C5358 C5357 1.379 . S
H5359 C5353 0.959 . S
H5360 C5353 0.961 . S
H5361 C5353 0.960 . S
H5362 C5354 0.930 . S
H5363 C5355 0.929 . S
H5364 C5372 0.929 . S
H5365 C5374 0.930 . S
H5366 C5376 0.930 . S
H5367 C5379 0.929 . S
H5368 C5382 0.930 . S
H5369 C5384 0.960 . S
H5370 C5384 0.960 . S
H5371 C5384 0.960 . S
C5372 H5364 0.929 . S
C5372 C5373 1.377 . S
C5372 C5374 1.384 . S
C5373 C5372 1.377 . S
C5373 C5379 1.390 . S
C5374 H5365 0.930 . S
C5374 C5372 1.384 . S
C5374 C5375 1.372 . S
C5375 C5374 1.372 . S
C5375 C5376 1.400 . S
C5375 C5380 1.490 . S
C5376 H5366 0.930 . S
C5376 C5375 1.400 . S
C5376 C5379 1.386 . S
H5377 C5393 0.930 . S
H5378 C5394 0.931 . S
C5379 H5367 0.929 . S
C5379 C5373 1.390 . S
C5379 C5376 1.386 . S
C5380 C5375 1.490 . S
C5380 C5382 1.395 . S
C5380 C5383 1.403 . S
H5381 C5387 0.930 . S
C5382 H5368 0.930 . S
C5382 C5380 1.395 . S
C5382 C5385 1.403 . S
C5383 C5380 1.403 . S
C5383 C5384 1.524 . S
C5383 C5387 1.400 . S
C5384 H5369 0.960 . S
C5384 H5370 0.960 . S
C5384 H5371 0.960 . S
C5384 C5383 1.524 . S
C5385 C5382 1.403 . S
C5385 C5386 1.392 . S
C5385 C5389 1.495 . S
C5386 C5385 1.392 . S
C5386 C5387 1.385 . S
C5386 C5388 1.478 . S
C5387 H5381 0.930 . S
C5387 C5383 1.400 . S
C5387 C5386 1.385 . S
C5388 C5386 1.478 . S
C5388 C5390 1.381 . S
C5388 C5394 1.383 . S
C5389 C5385 1.495 . S
C5389 H5395 0.959 . S
C5389 H5396 0.961 . S
C5389 H5397 0.960 . S
C5390 C5388 1.381 . S
C5390 C5391 1.394 . S
C5390 H5398 0.930 . S
C5391 C5390 1.394 . S
C5391 C5392 1.383 . S
C5391 H5399 0.929 . S
C5392 C5391 1.383 . S
C5392 C5393 1.377 . S
C5393 H5377 0.930 . S
C5393 C5392 1.377 . S
C5393 C5394 1.379 . S
C5394 H5378 0.931 . S
C5394 C5388 1.383 . S
C5394 C5393 1.379 . S
H5395 C5389 0.959 . S
H5396 C5389 0.961 . S
H5397 C5389 0.960 . S
H5398 C5390 0.930 . S
H5399 C5391 0.929 . S
H5400 C5408 0.929 . S
H5401 C5410 0.930 . S
H5402 C5412 0.930 . S
H5403 C5415 0.929 . S
H5404 C5418 0.930 . S
H5405 C5420 0.960 . S
H5406 C5420 0.960 . S
H5407 C5420 0.960 . S
C5408 H5400 0.929 . S
C5408 C5409 1.377 . S
C5408 C5410 1.384 . S
C5409 C5408 1.377 . S
C5409 C5415 1.390 . S
C5410 H5401 0.930 . S
C5410 C5408 1.384 . S
C5410 C5411 1.372 . S
C5411 C5410 1.372 . S
C5411 C5412 1.400 . S
C5411 C5416 1.490 . S
C5412 H5402 0.930 . S
C5412 C5411 1.400 . S
C5412 C5415 1.386 . S
H5413 C5429 0.930 . S
H5414 C5430 0.931 . S
C5415 H5403 0.929 . S
C5415 C5409 1.390 . S
C5415 C5412 1.386 . S
C5416 C5411 1.490 . S
C5416 C5418 1.395 . S
C5416 C5419 1.403 . S
H5417 C5423 0.930 . S
C5418 H5404 0.930 . S
C5418 C5416 1.395 . S
C5418 C5421 1.403 . S
C5419 C5416 1.403 . S
C5419 C5420 1.524 . S
C5419 C5423 1.400 . S
C5420 H5405 0.960 . S
C5420 H5406 0.960 . S
C5420 H5407 0.960 . S
C5420 C5419 1.524 . S
C5421 C5418 1.403 . S
C5421 C5422 1.392 . S
C5421 C5425 1.495 . S
C5422 C5421 1.392 . S
C5422 C5423 1.385 . S
C5422 C5424 1.478 . S
C5423 H5417 0.930 . S
C5423 C5419 1.400 . S
C5423 C5422 1.385 . S
C5424 C5422 1.478 . S
C5424 C5426 1.381 . S
C5424 C5430 1.383 . S
C5425 C5421 1.495 . S
C5425 H5431 0.959 . S
C5425 H5432 0.961 . S
C5425 H5433 0.960 . S
C5426 C5424 1.381 . S
C5426 C5427 1.394 . S
C5426 H5434 0.930 . S
C5427 C5426 1.394 . S
C5427 C5428 1.383 . S
C5427 H5435 0.929 . S
C5428 C5427 1.383 . S
C5428 C5429 1.377 . S
C5429 H5413 0.930 . S
C5429 C5428 1.377 . S
C5429 C5430 1.379 . S
C5430 H5414 0.931 . S
C5430 C5424 1.383 . S
C5430 C5429 1.379 . S
H5431 C5425 0.959 . S
H5432 C5425 0.961 . S
H5433 C5425 0.960 . S
H5434 C5426 0.930 . S
H5435 C5427 0.929 . S
H5436 C5444 0.929 . S
H5437 C5446 0.930 . S
H5438 C5448 0.930 . S
H5439 C5451 0.929 . S
H5440 C5454 0.930 . S
H5441 C5456 0.960 . S
H5442 C5456 0.960 . S
H5443 C5456 0.960 . S
C5444 H5436 0.929 . S
C5444 C5445 1.377 . S
C5444 C5446 1.384 . S
C5445 C5444 1.377 . S
C5445 C5451 1.390 . S
C5446 H5437 0.930 . S
C5446 C5444 1.384 . S
C5446 C5447 1.372 . S
C5447 C5446 1.372 . S
C5447 C5448 1.400 . S
C5447 C5452 1.490 . S
C5448 H5438 0.930 . S
C5448 C5447 1.400 . S
C5448 C5451 1.386 . S
H5449 C5465 0.930 . S
H5450 C5466 0.931 . S
C5451 H5439 0.929 . S
C5451 C5445 1.390 . S
C5451 C5448 1.386 . S
C5452 C5447 1.490 . S
C5452 C5454 1.395 . S
C5452 C5455 1.403 . S
H5453 C5459 0.930 . S
C5454 H5440 0.930 . S
C5454 C5452 1.395 . S
C5454 C5457 1.403 . S
C5455 C5452 1.403 . S
C5455 C5456 1.524 . S
C5455 C5459 1.400 . S
C5456 H5441 0.960 . S
C5456 H5442 0.960 . S
C5456 H5443 0.960 . S
C5456 C5455 1.524 . S
C5457 C5454 1.403 . S
C5457 C5458 1.392 . S
C5457 C5461 1.495 . S
C5458 C5457 1.392 . S
C5458 C5459 1.385 . S
C5458 C5460 1.478 . S
C5459 H5453 0.930 . S
C5459 C5455 1.400 . S
C5459 C5458 1.385 . S
C5460 C5458 1.478 . S
C5460 C5462 1.381 . S
C5460 C5466 1.383 . S
C5461 C5457 1.495 . S
C5461 H5467 0.959 . S
C5461 H5468 0.961 . S
C5461 H5469 0.960 . S
C5462 C5460 1.381 . S
C5462 C5463 1.394 . S
C5462 H5470 0.930 . S
C5463 C5462 1.394 . S
C5463 C5464 1.383 . S
C5463 H5471 0.929 . S
C5464 C5463 1.383 . S
C5464 C5465 1.377 . S
C5465 H5449 0.930 . S
C5465 C5464 1.377 . S
C5465 C5466 1.379 . S
C5466 H5450 0.931 . S
C5466 C5460 1.383 . S
C5466 C5465 1.379 . S
H5467 C5461 0.959 . S
H5468 C5461 0.961 . S
H5469 C5461 0.960 . S
H5470 C5462 0.930 . S
H5471 C5463 0.929 . S
H5472 C5480 0.929 . S
H5473 C5482 0.930 . S
H5474 C5484 0.930 . S
H5475 C5487 0.929 . S
H5476 C5490 0.930 . S
H5477 C5492 0.960 . S
H5478 C5492 0.960 . S
H5479 C5492 0.960 . S
C5480 H5472 0.929 . S
C5480 C5481 1.377 . S
C5480 C5482 1.384 . S
C5481 C5480 1.377 . S
C5481 C5487 1.390 . S
C5482 H5473 0.930 . S
C5482 C5480 1.384 . S
C5482 C5483 1.372 . S
C5483 C5482 1.372 . S
C5483 C5484 1.400 . S
C5483 C5488 1.490 . S
C5484 H5474 0.930 . S
C5484 C5483 1.400 . S
C5484 C5487 1.386 . S
H5485 C5501 0.930 . S
H5486 C5502 0.931 . S
C5487 H5475 0.929 . S
C5487 C5481 1.390 . S
C5487 C5484 1.386 . S
C5488 C5483 1.490 . S
C5488 C5490 1.395 . S
C5488 C5491 1.403 . S
H5489 C5495 0.930 . S
C5490 H5476 0.930 . S
C5490 C5488 1.395 . S
C5490 C5493 1.403 . S
C5491 C5488 1.403 . S
C5491 C5492 1.524 . S
C5491 C5495 1.400 . S
C5492 H5477 0.960 . S
C5492 H5478 0.960 . S
C5492 H5479 0.960 . S
C5492 C5491 1.524 . S
C5493 C5490 1.403 . S
C5493 C5494 1.392 . S
C5493 C5497 1.495 . S
C5494 C5493 1.392 . S
C5494 C5495 1.385 . S
C5494 C5496 1.478 . S
C5495 H5489 0.930 . S
C5495 C5491 1.400 . S
C5495 C5494 1.385 . S
C5496 C5494 1.478 . S
C5496 C5498 1.381 . S
C5496 C5502 1.383 . S
C5497 C5493 1.495 . S
C5497 H5503 0.959 . S
C5497 H5504 0.961 . S
C5497 H5505 0.960 . S
C5498 C5496 1.381 . S
C5498 C5499 1.394 . S
C5498 H5506 0.930 . S
C5499 C5498 1.394 . S
C5499 C5500 1.383 . S
C5499 H5507 0.929 . S
C5500 C5499 1.383 . S
C5500 C5501 1.377 . S
C5501 H5485 0.930 . S
C5501 C5500 1.377 . S
C5501 C5502 1.379 . S
C5502 H5486 0.931 . S
C5502 C5496 1.383 . S
C5502 C5501 1.379 . S
H5503 C5497 0.959 . S
H5504 C5497 0.961 . S
H5505 C5497 0.960 . S
H5506 C5498 0.930 . S
H5507 C5499 0.929 . S
H5508 C5516 0.929 . S
H5509 C5518 0.930 . S
H5510 C5520 0.930 . S
H5511 C5523 0.929 . S
H5512 C5526 0.930 . S
H5513 C5528 0.960 . S
H5514 C5528 0.960 . S
H5515 C5528 0.960 . S
C5516 H5508 0.929 . S
C5516 C5517 1.377 . S
C5516 C5518 1.384 . S
C5517 C5516 1.377 . S
C5517 C5523 1.390 . S
C5518 H5509 0.930 . S
C5518 C5516 1.384 . S
C5518 C5519 1.372 . S
C5519 C5518 1.372 . S
C5519 C5520 1.400 . S
C5519 C5524 1.490 . S
C5520 H5510 0.930 . S
C5520 C5519 1.400 . S
C5520 C5523 1.386 . S
H5521 C5537 0.930 . S
H5522 C5538 0.931 . S
C5523 H5511 0.929 . S
C5523 C5517 1.390 . S
C5523 C5520 1.386 . S
C5524 C5519 1.490 . S
C5524 C5526 1.395 . S
C5524 C5527 1.403 . S
H5525 C5531 0.930 . S
C5526 H5512 0.930 . S
C5526 C5524 1.395 . S
C5526 C5529 1.403 . S
C5527 C5524 1.403 . S
C5527 C5528 1.524 . S
C5527 C5531 1.400 . S
C5528 H5513 0.960 . S
C5528 H5514 0.960 . S
C5528 H5515 0.960 . S
C5528 C5527 1.524 . S
C5529 C5526 1.403 . S
C5529 C5530 1.392 . S
C5529 C5533 1.495 . S
C5530 C5529 1.392 . S
C5530 C5531 1.385 . S
C5530 C5532 1.478 . S
C5531 H5525 0.930 . S
C5531 C5527 1.400 . S
C5531 C5530 1.385 . S
C5532 C5530 1.478 . S
C5532 C5534 1.381 . S
C5532 C5538 1.383 . S
C5533 C5529 1.495 . S
C5533 H5539 0.959 . S
C5533 H5540 0.961 . S
C5533 H5541 0.960 . S
C5534 C5532 1.381 . S
C5534 C5535 1.394 . S
C5534 H5542 0.930 . S
C5535 C5534 1.394 . S
C5535 C5536 1.383 . S
C5535 H5543 0.929 . S
C5536 C5535 1.383 . S
C5536 C5537 1.377 . S
C5537 H5521 0.930 . S
C5537 C5536 1.377 . S
C5537 C5538 1.379 . S
C5538 H5522 0.931 . S
C5538 C5532 1.383 . S
C5538 C5537 1.379 . S
H5539 C5533 0.959 . S
H5540 C5533 0.961 . S
H5541 C5533 0.960 . S
H5542 C5534 0.930 . S
H5543 C5535 0.929 . S
H5544 C5552 0.929 . S
H5545 C5554 0.930 . S
H5546 C5556 0.930 . S
H5547 C5559 0.929 . S
H5548 C5562 0.930 . S
H5549 C5564 0.960 . S
H5550 C5564 0.960 . S
H5551 C5564 0.960 . S
C5552 H5544 0.929 . S
C5552 C5553 1.377 . S
C5552 C5554 1.384 . S
C5553 C5552 1.377 . S
C5553 C5559 1.390 . S
C5554 H5545 0.930 . S
C5554 C5552 1.384 . S
C5554 C5555 1.372 . S
C5555 C5554 1.372 . S
C5555 C5556 1.400 . S
C5555 C5560 1.490 . S
C5556 H5546 0.930 . S
C5556 C5555 1.400 . S
C5556 C5559 1.386 . S
H5557 C5573 0.930 . S
H5558 C5574 0.931 . S
C5559 H5547 0.929 . S
C5559 C5553 1.390 . S
C5559 C5556 1.386 . S
C5560 C5555 1.490 . S
C5560 C5562 1.395 . S
C5560 C5563 1.403 . S
H5561 C5567 0.930 . S
C5562 H5548 0.930 . S
C5562 C5560 1.395 . S
C5562 C5565 1.403 . S
C5563 C5560 1.403 . S
C5563 C5564 1.524 . S
C5563 C5567 1.400 . S
C5564 H5549 0.960 . S
C5564 H5550 0.960 . S
C5564 H5551 0.960 . S
C5564 C5563 1.524 . S
C5565 C5562 1.403 . S
C5565 C5566 1.392 . S
C5565 C5569 1.495 . S
C5566 C5565 1.392 . S
C5566 C5567 1.385 . S
C5566 C5568 1.478 . S
C5567 H5561 0.930 . S
C5567 C5563 1.400 . S
C5567 C5566 1.385 . S
C5568 C5566 1.478 . S
C5568 C5570 1.381 . S
C5568 C5574 1.383 . S
C5569 C5565 1.495 . S
C5569 H5575 0.959 . S
C5569 H5576 0.961 . S
C5569 H5577 0.960 . S
C5570 C5568 1.381 . S
C5570 C5571 1.394 . S
C5570 H5578 0.930 . S
C5571 C5570 1.394 . S
C5571 C5572 1.383 . S
C5571 H5579 0.929 . S
C5572 C5571 1.383 . S
C5572 C5573 1.377 . S
C5573 H5557 0.930 . S
C5573 C5572 1.377 . S
C5573 C5574 1.379 . S
C5574 H5558 0.931 . S
C5574 C5568 1.383 . S
C5574 C5573 1.379 . S
H5575 C5569 0.959 . S
H5576 C5569 0.961 . S
H5577 C5569 0.960 . S
H5578 C5570 0.930 . S
H5579 C5571 0.929 . S
H5580 C5588 0.929 . S
H5581 C5590 0.930 . S
H5582 C5592 0.930 . S
H5583 C5595 0.929 . S
H5584 C5598 0.930 . S
H5585 C5600 0.960 . S
H5586 C5600 0.960 . S
H5587 C5600 0.960 . S
C5588 H5580 0.929 . S
C5588 C5589 1.377 . S
C5588 C5590 1.384 . S
C5589 C5588 1.377 . S
C5589 C5595 1.390 . S
C5590 H5581 0.930 . S
C5590 C5588 1.384 . S
C5590 C5591 1.372 . S
C5591 C5590 1.372 . S
C5591 C5592 1.400 . S
C5591 C5596 1.490 . S
C5592 H5582 0.930 . S
C5592 C5591 1.400 . S
C5592 C5595 1.386 . S
H5593 C5609 0.930 . S
H5594 C5610 0.931 . S
C5595 H5583 0.929 . S
C5595 C5589 1.390 . S
C5595 C5592 1.386 . S
C5596 C5591 1.490 . S
C5596 C5598 1.395 . S
C5596 C5599 1.403 . S
H5597 C5603 0.930 . S
C5598 H5584 0.930 . S
C5598 C5596 1.395 . S
C5598 C5601 1.403 . S
C5599 C5596 1.403 . S
C5599 C5600 1.524 . S
C5599 C5603 1.400 . S
C5600 H5585 0.960 . S
C5600 H5586 0.960 . S
C5600 H5587 0.960 . S
C5600 C5599 1.524 . S
C5601 C5598 1.403 . S
C5601 C5602 1.392 . S
C5601 C5605 1.495 . S
C5602 C5601 1.392 . S
C5602 C5603 1.385 . S
C5602 C5604 1.478 . S
C5603 H5597 0.930 . S
C5603 C5599 1.400 . S
C5603 C5602 1.385 . S
C5604 C5602 1.478 . S
C5604 C5606 1.381 . S
C5604 C5610 1.383 . S
C5605 C5601 1.495 . S
C5605 H5611 0.959 . S
C5605 H5612 0.961 . S
C5605 H5613 0.960 . S
C5606 C5604 1.381 . S
C5606 C5607 1.394 . S
C5606 H5614 0.930 . S
C5607 C5606 1.394 . S
C5607 C5608 1.383 . S
C5607 H5615 0.929 . S
C5608 C5607 1.383 . S
C5608 C5609 1.377 . S
C5609 H5593 0.930 . S
C5609 C5608 1.377 . S
C5609 C5610 1.379 . S
C5610 H5594 0.931 . S
C5610 C5604 1.383 . S
C5610 C5609 1.379 . S
H5611 C5605 0.959 . S
H5612 C5605 0.961 . S
H5613 C5605 0.960 . S
H5614 C5606 0.930 . S
H5615 C5607 0.929 . S
H5616 C5624 0.929 . S
H5617 C5626 0.930 . S
H5618 C5628 0.930 . S
H5619 C5631 0.929 . S
H5620 C5634 0.930 . S
H5621 C5636 0.960 . S
H5622 C5636 0.960 . S
H5623 C5636 0.960 . S
C5624 H5616 0.929 . S
C5624 C5625 1.377 . S
C5624 C5626 1.384 . S
C5625 C5624 1.377 . S
C5625 C5631 1.390 . S
C5626 H5617 0.930 . S
C5626 C5624 1.384 . S
C5626 C5627 1.372 . S
C5627 C5626 1.372 . S
C5627 C5628 1.400 . S
C5627 C5632 1.490 . S
C5628 H5618 0.930 . S
C5628 C5627 1.400 . S
C5628 C5631 1.386 . S
H5629 C5645 0.930 . S
H5630 C5646 0.931 . S
C5631 H5619 0.929 . S
C5631 C5625 1.390 . S
C5631 C5628 1.386 . S
C5632 C5627 1.490 . S
C5632 C5634 1.395 . S
C5632 C5635 1.403 . S
H5633 C5639 0.930 . S
C5634 H5620 0.930 . S
C5634 C5632 1.395 . S
C5634 C5637 1.403 . S
C5635 C5632 1.403 . S
C5635 C5636 1.524 . S
C5635 C5639 1.400 . S
C5636 H5621 0.960 . S
C5636 H5622 0.960 . S
C5636 H5623 0.960 . S
C5636 C5635 1.524 . S
C5637 C5634 1.403 . S
C5637 C5638 1.392 . S
C5637 C5641 1.495 . S
C5638 C5637 1.392 . S
C5638 C5639 1.385 . S
C5638 C5640 1.478 . S
C5639 H5633 0.930 . S
C5639 C5635 1.400 . S
C5639 C5638 1.385 . S
C5640 C5638 1.478 . S
C5640 C5642 1.381 . S
C5640 C5646 1.383 . S
C5641 C5637 1.495 . S
C5641 H5647 0.959 . S
C5641 H5648 0.961 . S
C5641 H5649 0.960 . S
C5642 C5640 1.381 . S
C5642 C5643 1.394 . S
C5642 H5650 0.930 . S
C5643 C5642 1.394 . S
C5643 C5644 1.383 . S
C5643 H5651 0.929 . S
C5644 C5643 1.383 . S
C5644 C5645 1.377 . S
C5645 H5629 0.930 . S
C5645 C5644 1.377 . S
C5645 C5646 1.379 . S
C5646 H5630 0.931 . S
C5646 C5640 1.383 . S
C5646 C5645 1.379 . S
H5647 C5641 0.959 . S
H5648 C5641 0.961 . S
H5649 C5641 0.960 . S
H5650 C5642 0.930 . S
H5651 C5643 0.929 . S
H5652 C5660 0.929 . S
H5653 C5662 0.930 . S
H5654 C5664 0.930 . S
H5655 C5667 0.929 . S
H5656 C5670 0.930 . S
H5657 C5672 0.960 . S
H5658 C5672 0.960 . S
H5659 C5672 0.960 . S
C5660 H5652 0.929 . S
C5660 C5661 1.377 . S
C5660 C5662 1.384 . S
C5661 C5660 1.377 . S
C5661 C5667 1.390 . S
C5662 H5653 0.930 . S
C5662 C5660 1.384 . S
C5662 C5663 1.372 . S
C5663 C5662 1.372 . S
C5663 C5664 1.400 . S
C5663 C5668 1.490 . S
C5664 H5654 0.930 . S
C5664 C5663 1.400 . S
C5664 C5667 1.386 . S
H5665 C5681 0.930 . S
H5666 C5682 0.931 . S
C5667 H5655 0.929 . S
C5667 C5661 1.390 . S
C5667 C5664 1.386 . S
C5668 C5663 1.490 . S
C5668 C5670 1.395 . S
C5668 C5671 1.403 . S
H5669 C5675 0.930 . S
C5670 H5656 0.930 . S
C5670 C5668 1.395 . S
C5670 C5673 1.403 . S
C5671 C5668 1.403 . S
C5671 C5672 1.524 . S
C5671 C5675 1.400 . S
C5672 H5657 0.960 . S
C5672 H5658 0.960 . S
C5672 H5659 0.960 . S
C5672 C5671 1.524 . S
C5673 C5670 1.403 . S
C5673 C5674 1.392 . S
C5673 C5677 1.495 . S
C5674 C5673 1.392 . S
C5674 C5675 1.385 . S
C5674 C5676 1.478 . S
C5675 H5669 0.930 . S
C5675 C5671 1.400 . S
C5675 C5674 1.385 . S
C5676 C5674 1.478 . S
C5676 C5678 1.381 . S
C5676 C5682 1.383 . S
C5677 C5673 1.495 . S
C5677 H5683 0.959 . S
C5677 H5684 0.961 . S
C5677 H5685 0.960 . S
C5678 C5676 1.381 . S
C5678 C5679 1.394 . S
C5678 H5686 0.930 . S
C5679 C5678 1.394 . S
C5679 C5680 1.383 . S
C5679 H5687 0.929 . S
C5680 C5679 1.383 . S
C5680 C5681 1.377 . S
C5681 H5665 0.930 . S
C5681 C5680 1.377 . S
C5681 C5682 1.379 . S
C5682 H5666 0.931 . S
C5682 C5676 1.383 . S
C5682 C5681 1.379 . S
H5683 C5677 0.959 . S
H5684 C5677 0.961 . S
H5685 C5677 0.960 . S
H5686 C5678 0.930 . S
H5687 C5679 0.929 . S
H5688 C5696 0.929 . S
H5689 C5698 0.930 . S
H5690 C5700 0.930 . S
H5691 C5703 0.929 . S
H5692 C5706 0.930 . S
H5693 C5708 0.960 . S
H5694 C5708 0.960 . S
H5695 C5708 0.960 . S
C5696 H5688 0.929 . S
C5696 C5697 1.377 . S
C5696 C5698 1.384 . S
C5697 C5696 1.377 . S
C5697 C5703 1.390 . S
C5698 H5689 0.930 . S
C5698 C5696 1.384 . S
C5698 C5699 1.372 . S
C5699 C5698 1.372 . S
C5699 C5700 1.400 . S
C5699 C5704 1.490 . S
C5700 H5690 0.930 . S
C5700 C5699 1.400 . S
C5700 C5703 1.386 . S
H5701 C5717 0.930 . S
H5702 C5718 0.931 . S
C5703 H5691 0.929 . S
C5703 C5697 1.390 . S
C5703 C5700 1.386 . S
C5704 C5699 1.490 . S
C5704 C5706 1.395 . S
C5704 C5707 1.403 . S
H5705 C5711 0.930 . S
C5706 H5692 0.930 . S
C5706 C5704 1.395 . S
C5706 C5709 1.403 . S
C5707 C5704 1.403 . S
C5707 C5708 1.524 . S
C5707 C5711 1.400 . S
C5708 H5693 0.960 . S
C5708 H5694 0.960 . S
C5708 H5695 0.960 . S
C5708 C5707 1.524 . S
C5709 C5706 1.403 . S
C5709 C5710 1.392 . S
C5709 C5713 1.495 . S
C5710 C5709 1.392 . S
C5710 C5711 1.385 . S
C5710 C5712 1.478 . S
C5711 H5705 0.930 . S
C5711 C5707 1.400 . S
C5711 C5710 1.385 . S
C5712 C5710 1.478 . S
C5712 C5714 1.381 . S
C5712 C5718 1.383 . S
C5713 C5709 1.495 . S
C5713 H5719 0.959 . S
C5713 H5720 0.961 . S
C5713 H5721 0.960 . S
C5714 C5712 1.381 . S
C5714 C5715 1.394 . S
C5714 H5722 0.930 . S
C5715 C5714 1.394 . S
C5715 C5716 1.383 . S
C5715 H5723 0.929 . S
C5716 C5715 1.383 . S
C5716 C5717 1.377 . S
C5717 H5701 0.930 . S
C5717 C5716 1.377 . S
C5717 C5718 1.379 . S
C5718 H5702 0.931 . S
C5718 C5712 1.383 . S
C5718 C5717 1.379 . S
H5719 C5713 0.959 . S
H5720 C5713 0.961 . S
H5721 C5713 0.960 . S
H5722 C5714 0.930 . S
H5723 C5715 0.929 . S
H5724 C5732 0.929 . S
H5725 C5734 0.930 . S
H5726 C5736 0.930 . S
H5727 C5739 0.929 . S
H5728 C5742 0.930 . S
H5729 C5744 0.960 . S
H5730 C5744 0.960 . S
H5731 C5744 0.960 . S
C5732 H5724 0.929 . S
C5732 C5733 1.377 . S
C5732 C5734 1.384 . S
C5733 C5732 1.377 . S
C5733 C5739 1.390 . S
C5734 H5725 0.930 . S
C5734 C5732 1.384 . S
C5734 C5735 1.372 . S
C5735 C5734 1.372 . S
C5735 C5736 1.400 . S
C5735 C5740 1.490 . S
C5736 H5726 0.930 . S
C5736 C5735 1.400 . S
C5736 C5739 1.386 . S
H5737 C5753 0.930 . S
H5738 C5754 0.931 . S
C5739 H5727 0.929 . S
C5739 C5733 1.390 . S
C5739 C5736 1.386 . S
C5740 C5735 1.490 . S
C5740 C5742 1.395 . S
C5740 C5743 1.403 . S
H5741 C5747 0.930 . S
C5742 H5728 0.930 . S
C5742 C5740 1.395 . S
C5742 C5745 1.403 . S
C5743 C5740 1.403 . S
C5743 C5744 1.524 . S
C5743 C5747 1.400 . S
C5744 H5729 0.960 . S
C5744 H5730 0.960 . S
C5744 H5731 0.960 . S
C5744 C5743 1.524 . S
C5745 C5742 1.403 . S
C5745 C5746 1.392 . S
C5745 C5749 1.495 . S
C5746 C5745 1.392 . S
C5746 C5747 1.385 . S
C5746 C5748 1.478 . S
C5747 H5741 0.930 . S
C5747 C5743 1.400 . S
C5747 C5746 1.385 . S
C5748 C5746 1.478 . S
C5748 C5750 1.381 . S
C5748 C5754 1.383 . S
C5749 C5745 1.495 . S
C5749 H5755 0.959 . S
C5749 H5756 0.961 . S
C5749 H5757 0.960 . S
C5750 C5748 1.381 . S
C5750 C5751 1.394 . S
C5750 H5758 0.930 . S
C5751 C5750 1.394 . S
C5751 C5752 1.383 . S
C5751 H5759 0.929 . S
C5752 C5751 1.383 . S
C5752 C5753 1.377 . S
C5753 H5737 0.930 . S
C5753 C5752 1.377 . S
C5753 C5754 1.379 . S
C5754 H5738 0.931 . S
C5754 C5748 1.383 . S
C5754 C5753 1.379 . S
H5755 C5749 0.959 . S
H5756 C5749 0.961 . S
H5757 C5749 0.960 . S
H5758 C5750 0.930 . S
H5759 C5751 0.929 . S
H5760 C5768 0.929 . S
H5761 C5770 0.930 . S
H5762 C5772 0.930 . S
H5763 C5775 0.929 . S
H5764 C5778 0.930 . S
H5765 C5780 0.960 . S
H5766 C5780 0.960 . S
H5767 C5780 0.960 . S
C5768 H5760 0.929 . S
C5768 C5769 1.377 . S
C5768 C5770 1.384 . S
C5769 C5768 1.377 . S
C5769 C5775 1.390 . S
C5770 H5761 0.930 . S
C5770 C5768 1.384 . S
C5770 C5771 1.372 . S
C5771 C5770 1.372 . S
C5771 C5772 1.400 . S
C5771 C5776 1.490 . S
C5772 H5762 0.930 . S
C5772 C5771 1.400 . S
C5772 C5775 1.386 . S
H5773 C5789 0.930 . S
H5774 C5790 0.931 . S
C5775 H5763 0.929 . S
C5775 C5769 1.390 . S
C5775 C5772 1.386 . S
C5776 C5771 1.490 . S
C5776 C5778 1.395 . S
C5776 C5779 1.403 . S
H5777 C5783 0.930 . S
C5778 H5764 0.930 . S
C5778 C5776 1.395 . S
C5778 C5781 1.403 . S
C5779 C5776 1.403 . S
C5779 C5780 1.524 . S
C5779 C5783 1.400 . S
C5780 H5765 0.960 . S
C5780 H5766 0.960 . S
C5780 H5767 0.960 . S
C5780 C5779 1.524 . S
C5781 C5778 1.403 . S
C5781 C5782 1.392 . S
C5781 C5785 1.495 . S
C5782 C5781 1.392 . S
C5782 C5783 1.385 . S
C5782 C5784 1.478 . S
C5783 H5777 0.930 . S
C5783 C5779 1.400 . S
C5783 C5782 1.385 . S
C5784 C5782 1.478 . S
C5784 C5786 1.381 . S
C5784 C5790 1.383 . S
C5785 C5781 1.495 . S
C5785 H5791 0.959 . S
C5785 H5792 0.961 . S
C5785 H5793 0.960 . S
C5786 C5784 1.381 . S
C5786 C5787 1.394 . S
C5786 H5794 0.930 . S
C5787 C5786 1.394 . S
C5787 C5788 1.383 . S
C5787 H5795 0.929 . S
C5788 C5787 1.383 . S
C5788 C5789 1.377 . S
C5789 H5773 0.930 . S
C5789 C5788 1.377 . S
C5789 C5790 1.379 . S
C5790 H5774 0.931 . S
C5790 C5784 1.383 . S
C5790 C5789 1.379 . S
H5791 C5785 0.959 . S
H5792 C5785 0.961 . S
H5793 C5785 0.960 . S
H5794 C5786 0.930 . S
H5795 C5787 0.929 . S
H5796 C5804 0.929 . S
H5797 C5806 0.930 . S
H5798 C5808 0.930 . S
H5799 C5811 0.929 . S
H5800 C5814 0.930 . S
H5801 C5816 0.960 . S
H5802 C5816 0.960 . S
H5803 C5816 0.960 . S
C5804 H5796 0.929 . S
C5804 C5805 1.377 . S
C5804 C5806 1.384 . S
C5805 C5804 1.377 . S
C5805 C5811 1.390 . S
C5806 H5797 0.930 . S
C5806 C5804 1.384 . S
C5806 C5807 1.372 . S
C5807 C5806 1.372 . S
C5807 C5808 1.400 . S
C5807 C5812 1.490 . S
C5808 H5798 0.930 . S
C5808 C5807 1.400 . S
C5808 C5811 1.386 . S
H5809 C5825 0.930 . S
H5810 C5826 0.931 . S
C5811 H5799 0.929 . S
C5811 C5805 1.390 . S
C5811 C5808 1.386 . S
C5812 C5807 1.490 . S
C5812 C5814 1.395 . S
C5812 C5815 1.403 . S
H5813 C5819 0.930 . S
C5814 H5800 0.930 . S
C5814 C5812 1.395 . S
C5814 C5817 1.403 . S
C5815 C5812 1.403 . S
C5815 C5816 1.524 . S
C5815 C5819 1.400 . S
C5816 H5801 0.960 . S
C5816 H5802 0.960 . S
C5816 H5803 0.960 . S
C5816 C5815 1.524 . S
C5817 C5814 1.403 . S
C5817 C5818 1.392 . S
C5817 C5821 1.495 . S
C5818 C5817 1.392 . S
C5818 C5819 1.385 . S
C5818 C5820 1.478 . S
C5819 H5813 0.930 . S
C5819 C5815 1.400 . S
C5819 C5818 1.385 . S
C5820 C5818 1.478 . S
C5820 C5822 1.381 . S
C5820 C5826 1.383 . S
C5821 C5817 1.495 . S
C5821 H5827 0.959 . S
C5821 H5828 0.961 . S
C5821 H5829 0.960 . S
C5822 C5820 1.381 . S
C5822 C5823 1.394 . S
C5822 H5830 0.930 . S
C5823 C5822 1.394 . S
C5823 C5824 1.383 . S
C5823 H5831 0.929 . S
C5824 C5823 1.383 . S
C5824 C5825 1.377 . S
C5825 H5809 0.930 . S
C5825 C5824 1.377 . S
C5825 C5826 1.379 . S
C5826 H5810 0.931 . S
C5826 C5820 1.383 . S
C5826 C5825 1.379 . S
H5827 C5821 0.959 . S
H5828 C5821 0.961 . S
H5829 C5821 0.960 . S
H5830 C5822 0.930 . S
H5831 C5823 0.929 . S
H5832 C5840 0.929 . S
H5833 C5842 0.930 . S
H5834 C5844 0.930 . S
H5835 C5847 0.929 . S
H5836 C5850 0.930 . S
H5837 C5852 0.960 . S
H5838 C5852 0.960 . S
H5839 C5852 0.960 . S
C5840 H5832 0.929 . S
C5840 C5841 1.377 . S
C5840 C5842 1.384 . S
C5841 C5840 1.377 . S
C5841 C5847 1.390 . S
C5842 H5833 0.930 . S
C5842 C5840 1.384 . S
C5842 C5843 1.372 . S
C5843 C5842 1.372 . S
C5843 C5844 1.400 . S
C5843 C5848 1.490 . S
C5844 H5834 0.930 . S
C5844 C5843 1.400 . S
C5844 C5847 1.386 . S
H5845 C5861 0.930 . S
H5846 C5862 0.931 . S
C5847 H5835 0.929 . S
C5847 C5841 1.390 . S
C5847 C5844 1.386 . S
C5848 C5843 1.490 . S
C5848 C5850 1.395 . S
C5848 C5851 1.403 . S
H5849 C5855 0.930 . S
C5850 H5836 0.930 . S
C5850 C5848 1.395 . S
C5850 C5853 1.403 . S
C5851 C5848 1.403 . S
C5851 C5852 1.524 . S
C5851 C5855 1.400 . S
C5852 H5837 0.960 . S
C5852 H5838 0.960 . S
C5852 H5839 0.960 . S
C5852 C5851 1.524 . S
C5853 C5850 1.403 . S
C5853 C5854 1.392 . S
C5853 C5857 1.495 . S
C5854 C5853 1.392 . S
C5854 C5855 1.385 . S
C5854 C5856 1.478 . S
C5855 H5849 0.930 . S
C5855 C5851 1.400 . S
C5855 C5854 1.385 . S
C5856 C5854 1.478 . S
C5856 C5858 1.381 . S
C5856 C5862 1.383 . S
C5857 C5853 1.495 . S
C5857 H5863 0.959 . S
C5857 H5864 0.961 . S
C5857 H5865 0.960 . S
C5858 C5856 1.381 . S
C5858 C5859 1.394 . S
C5858 H5866 0.930 . S
C5859 C5858 1.394 . S
C5859 C5860 1.383 . S
C5859 H5867 0.929 . S
C5860 C5859 1.383 . S
C5860 C5861 1.377 . S
C5861 H5845 0.930 . S
C5861 C5860 1.377 . S
C5861 C5862 1.379 . S
C5862 H5846 0.931 . S
C5862 C5856 1.383 . S
C5862 C5861 1.379 . S
H5863 C5857 0.959 . S
H5864 C5857 0.961 . S
H5865 C5857 0.960 . S
H5866 C5858 0.930 . S
H5867 C5859 0.929 . S
H5868 C5876 0.929 . S
H5869 C5878 0.930 . S
H5870 C5880 0.930 . S
H5871 C5883 0.929 . S
H5872 C5886 0.930 . S
H5873 C5888 0.960 . S
H5874 C5888 0.960 . S
H5875 C5888 0.960 . S
C5876 H5868 0.929 . S
C5876 C5877 1.377 . S
C5876 C5878 1.384 . S
C5877 C5876 1.377 . S
C5877 C5883 1.390 . S
C5878 H5869 0.930 . S
C5878 C5876 1.384 . S
C5878 C5879 1.372 . S
C5879 C5878 1.372 . S
C5879 C5880 1.400 . S
C5879 C5884 1.490 . S
C5880 H5870 0.930 . S
C5880 C5879 1.400 . S
C5880 C5883 1.386 . S
H5881 C5897 0.930 . S
H5882 C5898 0.931 . S
C5883 H5871 0.929 . S
C5883 C5877 1.390 . S
C5883 C5880 1.386 . S
C5884 C5879 1.490 . S
C5884 C5886 1.395 . S
C5884 C5887 1.403 . S
H5885 C5891 0.930 . S
C5886 H5872 0.930 . S
C5886 C5884 1.395 . S
C5886 C5889 1.403 . S
C5887 C5884 1.403 . S
C5887 C5888 1.524 . S
C5887 C5891 1.400 . S
C5888 H5873 0.960 . S
C5888 H5874 0.960 . S
C5888 H5875 0.960 . S
C5888 C5887 1.524 . S
C5889 C5886 1.403 . S
C5889 C5890 1.392 . S
C5889 C5893 1.495 . S
C5890 C5889 1.392 . S
C5890 C5891 1.385 . S
C5890 C5892 1.478 . S
C5891 H5885 0.930 . S
C5891 C5887 1.400 . S
C5891 C5890 1.385 . S
C5892 C5890 1.478 . S
C5892 C5894 1.381 . S
C5892 C5898 1.383 . S
C5893 C5889 1.495 . S
C5893 H5899 0.959 . S
C5893 H5900 0.961 . S
C5893 H5901 0.960 . S
C5894 C5892 1.381 . S
C5894 C5895 1.394 . S
C5894 H5902 0.930 . S
C5895 C5894 1.394 . S
C5895 C5896 1.383 . S
C5895 H5903 0.929 . S
C5896 C5895 1.383 . S
C5896 C5897 1.377 . S
C5897 H5881 0.930 . S
C5897 C5896 1.377 . S
C5897 C5898 1.379 . S
C5898 H5882 0.931 . S
C5898 C5892 1.383 . S
C5898 C5897 1.379 . S
H5899 C5893 0.959 . S
H5900 C5893 0.961 . S
H5901 C5893 0.960 . S
H5902 C5894 0.930 . S
H5903 C5895 0.929 . S
H5904 C5912 0.929 . S
H5905 C5914 0.930 . S
H5906 C5916 0.930 . S
H5907 C5919 0.929 . S
H5908 C5922 0.930 . S
H5909 C5924 0.960 . S
H5910 C5924 0.960 . S
H5911 C5924 0.960 . S
C5912 H5904 0.929 . S
C5912 C5913 1.377 . S
C5912 C5914 1.384 . S
C5913 C5912 1.377 . S
C5913 C5919 1.390 . S
C5914 H5905 0.930 . S
C5914 C5912 1.384 . S
C5914 C5915 1.372 . S
C5915 C5914 1.372 . S
C5915 C5916 1.400 . S
C5915 C5920 1.490 . S
C5916 H5906 0.930 . S
C5916 C5915 1.400 . S
C5916 C5919 1.386 . S
H5917 C5933 0.930 . S
H5918 C5934 0.931 . S
C5919 H5907 0.929 . S
C5919 C5913 1.390 . S
C5919 C5916 1.386 . S
C5920 C5915 1.490 . S
C5920 C5922 1.395 . S
C5920 C5923 1.403 . S
H5921 C5927 0.930 . S
C5922 H5908 0.930 . S
C5922 C5920 1.395 . S
C5922 C5925 1.403 . S
C5923 C5920 1.403 . S
C5923 C5924 1.524 . S
C5923 C5927 1.400 . S
C5924 H5909 0.960 . S
C5924 H5910 0.960 . S
C5924 H5911 0.960 . S
C5924 C5923 1.524 . S
C5925 C5922 1.403 . S
C5925 C5926 1.392 . S
C5925 C5929 1.495 . S
C5926 C5925 1.392 . S
C5926 C5927 1.385 . S
C5926 C5928 1.478 . S
C5927 H5921 0.930 . S
C5927 C5923 1.400 . S
C5927 C5926 1.385 . S
C5928 C5926 1.478 . S
C5928 C5930 1.381 . S
C5928 C5934 1.383 . S
C5929 C5925 1.495 . S
C5929 H5935 0.959 . S
C5929 H5936 0.961 . S
C5929 H5937 0.960 . S
C5930 C5928 1.381 . S
C5930 C5931 1.394 . S
C5930 H5938 0.930 . S
C5931 C5930 1.394 . S
C5931 C5932 1.383 . S
C5931 H5939 0.929 . S
C5932 C5931 1.383 . S
C5932 C5933 1.377 . S
C5933 H5917 0.930 . S
C5933 C5932 1.377 . S
C5933 C5934 1.379 . S
C5934 H5918 0.931 . S
C5934 C5928 1.383 . S
C5934 C5933 1.379 . S
H5935 C5929 0.959 . S
H5936 C5929 0.961 . S
H5937 C5929 0.960 . S
H5938 C5930 0.930 . S
H5939 C5931 0.929 . S
H5940 C5948 0.929 . S
H5941 C5950 0.930 . S
H5942 C5952 0.930 . S
H5943 C5955 0.929 . S
H5944 C5958 0.930 . S
H5945 C5960 0.960 . S
H5946 C5960 0.960 . S
H5947 C5960 0.960 . S
C5948 H5940 0.929 . S
C5948 C5949 1.377 . S
C5948 C5950 1.384 . S
C5949 C5948 1.377 . S
C5949 C5955 1.390 . S
C5950 H5941 0.930 . S
C5950 C5948 1.384 . S
C5950 C5951 1.372 . S
C5951 C5950 1.372 . S
C5951 C5952 1.400 . S
C5951 C5956 1.490 . S
C5952 H5942 0.930 . S
C5952 C5951 1.400 . S
C5952 C5955 1.386 . S
H5953 C5969 0.930 . S
H5954 C5970 0.931 . S
C5955 H5943 0.929 . S
C5955 C5949 1.390 . S
C5955 C5952 1.386 . S
C5956 C5951 1.490 . S
C5956 C5958 1.395 . S
C5956 C5959 1.403 . S
H5957 C5963 0.930 . S
C5958 H5944 0.930 . S
C5958 C5956 1.395 . S
C5958 C5961 1.403 . S
C5959 C5956 1.403 . S
C5959 C5960 1.524 . S
C5959 C5963 1.400 . S
C5960 H5945 0.960 . S
C5960 H5946 0.960 . S
C5960 H5947 0.960 . S
C5960 C5959 1.524 . S
C5961 C5958 1.403 . S
C5961 C5962 1.392 . S
C5961 C5965 1.495 . S
C5962 C5961 1.392 . S
C5962 C5963 1.385 . S
C5962 C5964 1.478 . S
C5963 H5957 0.930 . S
C5963 C5959 1.400 . S
C5963 C5962 1.385 . S
C5964 C5962 1.478 . S
C5964 C5966 1.381 . S
C5964 C5970 1.383 . S
C5965 C5961 1.495 . S
C5965 H5971 0.959 . S
C5965 H5972 0.961 . S
C5965 H5973 0.960 . S
C5966 C5964 1.381 . S
C5966 C5967 1.394 . S
C5966 H5974 0.930 . S
C5967 C5966 1.394 . S
C5967 C5968 1.383 . S
C5967 H5975 0.929 . S
C5968 C5967 1.383 . S
C5968 C5969 1.377 . S
C5969 H5953 0.930 . S
C5969 C5968 1.377 . S
C5969 C5970 1.379 . S
C5970 H5954 0.931 . S
C5970 C5964 1.383 . S
C5970 C5969 1.379 . S
H5971 C5965 0.959 . S
H5972 C5965 0.961 . S
H5973 C5965 0.960 . S
H5974 C5966 0.930 . S
H5975 C5967 0.929 . S
H5976 C5984 0.929 . S
H5977 C5986 0.930 . S
H5978 C5988 0.930 . S
H5979 C5991 0.929 . S
H5980 C5994 0.930 . S
H5981 C5996 0.960 . S
H5982 C5996 0.960 . S
H5983 C5996 0.960 . S
C5984 H5976 0.929 . S
C5984 C5985 1.377 . S
C5984 C5986 1.384 . S
C5985 C5984 1.377 . S
C5985 C5991 1.390 . S
C5986 H5977 0.930 . S
C5986 C5984 1.384 . S
C5986 C5987 1.372 . S
C5987 C5986 1.372 . S
C5987 C5988 1.400 . S
C5987 C5992 1.490 . S
C5988 H5978 0.930 . S
C5988 C5987 1.400 . S
C5988 C5991 1.386 . S
H5989 C6005 0.930 . S
H5990 C6006 0.931 . S
C5991 H5979 0.929 . S
C5991 C5985 1.390 . S
C5991 C5988 1.386 . S
C5992 C5987 1.490 . S
C5992 C5994 1.395 . S
C5992 C5995 1.403 . S
H5993 C5999 0.930 . S
C5994 H5980 0.930 . S
C5994 C5992 1.395 . S
C5994 C5997 1.403 . S
C5995 C5992 1.403 . S
C5995 C5996 1.524 . S
C5995 C5999 1.400 . S
C5996 H5981 0.960 . S
C5996 H5982 0.960 . S
C5996 H5983 0.960 . S
C5996 C5995 1.524 . S
C5997 C5994 1.403 . S
C5997 C5998 1.392 . S
C5997 C6001 1.495 . S
C5998 C5997 1.392 . S
C5998 C5999 1.385 . S
C5998 C6000 1.478 . S
C5999 H5993 0.930 . S
C5999 C5995 1.400 . S
C5999 C5998 1.385 . S
C6000 C5998 1.478 . S
C6000 C6002 1.381 . S
C6000 C6006 1.383 . S
C6001 C5997 1.495 . S
C6001 H6007 0.959 . S
C6001 H6008 0.961 . S
C6001 H6009 0.960 . S
C6002 C6000 1.381 . S
C6002 C6003 1.394 . S
C6002 H6010 0.930 . S
C6003 C6002 1.394 . S
C6003 C6004 1.383 . S
C6003 H6011 0.929 . S
C6004 C6003 1.383 . S
C6004 C6005 1.377 . S
C6005 H5989 0.930 . S
C6005 C6004 1.377 . S
C6005 C6006 1.379 . S
C6006 H5990 0.931 . S
C6006 C6000 1.383 . S
C6006 C6005 1.379 . S
H6007 C6001 0.959 . S
H6008 C6001 0.961 . S
H6009 C6001 0.960 . S
H6010 C6002 0.930 . S
H6011 C6003 0.929 . S
H6012 C6020 0.929 . S
H6013 C6022 0.930 . S
H6014 C6024 0.930 . S
H6015 C6027 0.929 . S
H6016 C6030 0.930 . S
H6017 C6032 0.960 . S
H6018 C6032 0.960 . S
H6019 C6032 0.960 . S
C6020 H6012 0.929 . S
C6020 C6021 1.377 . S
C6020 C6022 1.384 . S
C6021 C6020 1.377 . S
C6021 C6027 1.390 . S
C6022 H6013 0.930 . S
C6022 C6020 1.384 . S
C6022 C6023 1.372 . S
C6023 C6022 1.372 . S
C6023 C6024 1.400 . S
C6023 C6028 1.490 . S
C6024 H6014 0.930 . S
C6024 C6023 1.400 . S
C6024 C6027 1.386 . S
H6025 C6041 0.930 . S
H6026 C6042 0.931 . S
C6027 H6015 0.929 . S
C6027 C6021 1.390 . S
C6027 C6024 1.386 . S
C6028 C6023 1.490 . S
C6028 C6030 1.395 . S
C6028 C6031 1.403 . S
H6029 C6035 0.930 . S
C6030 H6016 0.930 . S
C6030 C6028 1.395 . S
C6030 C6033 1.403 . S
C6031 C6028 1.403 . S
C6031 C6032 1.524 . S
C6031 C6035 1.400 . S
C6032 H6017 0.960 . S
C6032 H6018 0.960 . S
C6032 H6019 0.960 . S
C6032 C6031 1.524 . S
C6033 C6030 1.403 . S
C6033 C6034 1.392 . S
C6033 C6037 1.495 . S
C6034 C6033 1.392 . S
C6034 C6035 1.385 . S
C6034 C6036 1.478 . S
C6035 H6029 0.930 . S
C6035 C6031 1.400 . S
C6035 C6034 1.385 . S
C6036 C6034 1.478 . S
C6036 C6038 1.381 . S
C6036 C6042 1.383 . S
C6037 C6033 1.495 . S
C6037 H6043 0.959 . S
C6037 H6044 0.961 . S
C6037 H6045 0.960 . S
C6038 C6036 1.381 . S
C6038 C6039 1.394 . S
C6038 H6046 0.930 . S
C6039 C6038 1.394 . S
C6039 C6040 1.383 . S
C6039 H6047 0.929 . S
C6040 C6039 1.383 . S
C6040 C6041 1.377 . S
C6041 H6025 0.930 . S
C6041 C6040 1.377 . S
C6041 C6042 1.379 . S
C6042 H6026 0.931 . S
C6042 C6036 1.383 . S
C6042 C6041 1.379 . S
H6043 C6037 0.959 . S
H6044 C6037 0.961 . S
H6045 C6037 0.960 . S
H6046 C6038 0.930 . S
H6047 C6039 0.929 . S
H6048 C6056 0.929 . S
H6049 C6058 0.930 . S
H6050 C6060 0.930 . S
H6051 C6063 0.929 . S
H6052 C6066 0.930 . S
H6053 C6068 0.960 . S
H6054 C6068 0.960 . S
H6055 C6068 0.960 . S
C6056 H6048 0.929 . S
C6056 C6057 1.377 . S
C6056 C6058 1.384 . S
C6057 C6056 1.377 . S
C6057 C6063 1.390 . S
C6058 H6049 0.930 . S
C6058 C6056 1.384 . S
C6058 C6059 1.372 . S
C6059 C6058 1.372 . S
C6059 C6060 1.400 . S
C6059 C6064 1.490 . S
C6060 H6050 0.930 . S
C6060 C6059 1.400 . S
C6060 C6063 1.386 . S
H6061 C6077 0.930 . S
H6062 C6078 0.931 . S
C6063 H6051 0.929 . S
C6063 C6057 1.390 . S
C6063 C6060 1.386 . S
C6064 C6059 1.490 . S
C6064 C6066 1.395 . S
C6064 C6067 1.403 . S
H6065 C6071 0.930 . S
C6066 H6052 0.930 . S
C6066 C6064 1.395 . S
C6066 C6069 1.403 . S
C6067 C6064 1.403 . S
C6067 C6068 1.524 . S
C6067 C6071 1.400 . S
C6068 H6053 0.960 . S
C6068 H6054 0.960 . S
C6068 H6055 0.960 . S
C6068 C6067 1.524 . S
C6069 C6066 1.403 . S
C6069 C6070 1.392 . S
C6069 C6073 1.495 . S
C6070 C6069 1.392 . S
C6070 C6071 1.385 . S
C6070 C6072 1.478 . S
C6071 H6065 0.930 . S
C6071 C6067 1.400 . S
C6071 C6070 1.385 . S
C6072 C6070 1.478 . S
C6072 C6074 1.381 . S
C6072 C6078 1.383 . S
C6073 C6069 1.495 . S
C6073 H6079 0.959 . S
C6073 H6080 0.961 . S
C6073 H6081 0.960 . S
C6074 C6072 1.381 . S
C6074 C6075 1.394 . S
C6074 H6082 0.930 . S
C6075 C6074 1.394 . S
C6075 C6076 1.383 . S
C6075 H6083 0.929 . S
C6076 C6075 1.383 . S
C6076 C6077 1.377 . S
C6077 H6061 0.930 . S
C6077 C6076 1.377 . S
C6077 C6078 1.379 . S
C6078 H6062 0.931 . S
C6078 C6072 1.383 . S
C6078 C6077 1.379 . S
H6079 C6073 0.959 . S
H6080 C6073 0.961 . S
H6081 C6073 0.960 . S
H6082 C6074 0.930 . S
H6083 C6075 0.929 . S
H6084 C6092 0.929 . S
H6085 C6094 0.930 . S
H6086 C6096 0.930 . S
H6087 C6099 0.929 . S
H6088 C6102 0.930 . S
H6089 C6104 0.960 . S
H6090 C6104 0.960 . S
H6091 C6104 0.960 . S
C6092 H6084 0.929 . S
C6092 C6093 1.377 . S
C6092 C6094 1.384 . S
C6093 C6092 1.377 . S
C6093 C6099 1.390 . S
C6094 H6085 0.930 . S
C6094 C6092 1.384 . S
C6094 C6095 1.372 . S
C6095 C6094 1.372 . S
C6095 C6096 1.400 . S
C6095 C6100 1.490 . S
C6096 H6086 0.930 . S
C6096 C6095 1.400 . S
C6096 C6099 1.386 . S
H6097 C6113 0.930 . S
H6098 C6114 0.931 . S
C6099 H6087 0.929 . S
C6099 C6093 1.390 . S
C6099 C6096 1.386 . S
C6100 C6095 1.490 . S
C6100 C6102 1.395 . S
C6100 C6103 1.403 . S
H6101 C6107 0.930 . S
C6102 H6088 0.930 . S
C6102 C6100 1.395 . S
C6102 C6105 1.403 . S
C6103 C6100 1.403 . S
C6103 C6104 1.524 . S
C6103 C6107 1.400 . S
C6104 H6089 0.960 . S
C6104 H6090 0.960 . S
C6104 H6091 0.960 . S
C6104 C6103 1.524 . S
C6105 C6102 1.403 . S
C6105 C6106 1.392 . S
C6105 C6109 1.495 . S
C6106 C6105 1.392 . S
C6106 C6107 1.385 . S
C6106 C6108 1.478 . S
C6107 H6101 0.930 . S
C6107 C6103 1.400 . S
C6107 C6106 1.385 . S
C6108 C6106 1.478 . S
C6108 C6110 1.381 . S
C6108 C6114 1.383 . S
C6109 C6105 1.495 . S
C6109 H6115 0.959 . S
C6109 H6116 0.961 . S
C6109 H6117 0.960 . S
C6110 C6108 1.381 . S
C6110 C6111 1.394 . S
C6110 H6118 0.930 . S
C6111 C6110 1.394 . S
C6111 C6112 1.383 . S
C6111 H6119 0.929 . S
C6112 C6111 1.383 . S
C6112 C6113 1.377 . S
C6113 H6097 0.930 . S
C6113 C6112 1.377 . S
C6113 C6114 1.379 . S
C6114 H6098 0.931 . S
C6114 C6108 1.383 . S
C6114 C6113 1.379 . S
H6115 C6109 0.959 . S
H6116 C6109 0.961 . S
H6117 C6109 0.960 . S
H6118 C6110 0.930 . S
H6119 C6111 0.929 . S
H6120 C6128 0.929 . S
H6121 C6130 0.930 . S
H6122 C6132 0.930 . S
H6123 C6135 0.929 . S
H6124 C6138 0.930 . S
H6125 C6140 0.960 . S
H6126 C6140 0.960 . S
H6127 C6140 0.960 . S
C6128 H6120 0.929 . S
C6128 C6129 1.377 . S
C6128 C6130 1.384 . S
C6129 C6128 1.377 . S
C6129 C6135 1.390 . S
C6130 H6121 0.930 . S
C6130 C6128 1.384 . S
C6130 C6131 1.372 . S
C6131 C6130 1.372 . S
C6131 C6132 1.400 . S
C6131 C6136 1.490 . S
C6132 H6122 0.930 . S
C6132 C6131 1.400 . S
C6132 C6135 1.386 . S
H6133 C6149 0.930 . S
H6134 C6150 0.931 . S
C6135 H6123 0.929 . S
C6135 C6129 1.390 . S
C6135 C6132 1.386 . S
C6136 C6131 1.490 . S
C6136 C6138 1.395 . S
C6136 C6139 1.403 . S
H6137 C6143 0.930 . S
C6138 H6124 0.930 . S
C6138 C6136 1.395 . S
C6138 C6141 1.403 . S
C6139 C6136 1.403 . S
C6139 C6140 1.524 . S
C6139 C6143 1.400 . S
C6140 H6125 0.960 . S
C6140 H6126 0.960 . S
C6140 H6127 0.960 . S
C6140 C6139 1.524 . S
C6141 C6138 1.403 . S
C6141 C6142 1.392 . S
C6141 C6145 1.495 . S
C6142 C6141 1.392 . S
C6142 C6143 1.385 . S
C6142 C6144 1.478 . S
C6143 H6137 0.930 . S
C6143 C6139 1.400 . S
C6143 C6142 1.385 . S
C6144 C6142 1.478 . S
C6144 C6146 1.381 . S
C6144 C6150 1.383 . S
C6145 C6141 1.495 . S
C6145 H6151 0.959 . S
C6145 H6152 0.961 . S
C6145 H6153 0.960 . S
C6146 C6144 1.381 . S
C6146 C6147 1.394 . S
C6146 H6154 0.930 . S
C6147 C6146 1.394 . S
C6147 C6148 1.383 . S
C6147 H6155 0.929 . S
C6148 C6147 1.383 . S
C6148 C6149 1.377 . S
C6149 H6133 0.930 . S
C6149 C6148 1.377 . S
C6149 C6150 1.379 . S
C6150 H6134 0.931 . S
C6150 C6144 1.383 . S
C6150 C6149 1.379 . S
H6151 C6145 0.959 . S
H6152 C6145 0.961 . S
H6153 C6145 0.960 . S
H6154 C6146 0.930 . S
H6155 C6147 0.929 . S
H6156 C6164 0.929 . S
H6157 C6166 0.930 . S
H6158 C6168 0.930 . S
H6159 C6171 0.929 . S
H6160 C6174 0.930 . S
H6161 C6176 0.960 . S
H6162 C6176 0.960 . S
H6163 C6176 0.960 . S
C6164 H6156 0.929 . S
C6164 C6165 1.377 . S
C6164 C6166 1.384 . S
C6165 C6164 1.377 . S
C6165 C6171 1.390 . S
C6166 H6157 0.930 . S
C6166 C6164 1.384 . S
C6166 C6167 1.372 . S
C6167 C6166 1.372 . S
C6167 C6168 1.400 . S
C6167 C6172 1.490 . S
C6168 H6158 0.930 . S
C6168 C6167 1.400 . S
C6168 C6171 1.386 . S
H6169 C6185 0.930 . S
H6170 C6186 0.931 . S
C6171 H6159 0.929 . S
C6171 C6165 1.390 . S
C6171 C6168 1.386 . S
C6172 C6167 1.490 . S
C6172 C6174 1.395 . S
C6172 C6175 1.403 . S
H6173 C6179 0.930 . S
C6174 H6160 0.930 . S
C6174 C6172 1.395 . S
C6174 C6177 1.403 . S
C6175 C6172 1.403 . S
C6175 C6176 1.524 . S
C6175 C6179 1.400 . S
C6176 H6161 0.960 . S
C6176 H6162 0.960 . S
C6176 H6163 0.960 . S
C6176 C6175 1.524 . S
C6177 C6174 1.403 . S
C6177 C6178 1.392 . S
C6177 C6181 1.495 . S
C6178 C6177 1.392 . S
C6178 C6179 1.385 . S
C6178 C6180 1.478 . S
C6179 H6173 0.930 . S
C6179 C6175 1.400 . S
C6179 C6178 1.385 . S
C6180 C6178 1.478 . S
C6180 C6182 1.381 . S
C6180 C6186 1.383 . S
C6181 C6177 1.495 . S
C6181 H6187 0.959 . S
C6181 H6188 0.961 . S
C6181 H6189 0.960 . S
C6182 C6180 1.381 . S
C6182 C6183 1.394 . S
C6182 H6190 0.930 . S
C6183 C6182 1.394 . S
C6183 C6184 1.383 . S
C6183 H6191 0.929 . S
C6184 C6183 1.383 . S
C6184 C6185 1.377 . S
C6185 H6169 0.930 . S
C6185 C6184 1.377 . S
C6185 C6186 1.379 . S
C6186 H6170 0.931 . S
C6186 C6180 1.383 . S
C6186 C6185 1.379 . S
H6187 C6181 0.959 . S
H6188 C6181 0.961 . S
H6189 C6181 0.960 . S
H6190 C6182 0.930 . S
H6191 C6183 0.929 . S
H6192 C6200 0.929 . S
H6193 C6202 0.930 . S
H6194 C6204 0.930 . S
H6195 C6207 0.929 . S
H6196 C6210 0.930 . S
H6197 C6212 0.960 . S
H6198 C6212 0.960 . S
H6199 C6212 0.960 . S
C6200 H6192 0.929 . S
C6200 C6201 1.377 . S
C6200 C6202 1.384 . S
C6201 C6200 1.377 . S
C6201 C6207 1.390 . S
C6202 H6193 0.930 . S
C6202 C6200 1.384 . S
C6202 C6203 1.372 . S
C6203 C6202 1.372 . S
C6203 C6204 1.400 . S
C6203 C6208 1.490 . S
C6204 H6194 0.930 . S
C6204 C6203 1.400 . S
C6204 C6207 1.386 . S
H6205 C6221 0.930 . S
H6206 C6222 0.931 . S
C6207 H6195 0.929 . S
C6207 C6201 1.390 . S
C6207 C6204 1.386 . S
C6208 C6203 1.490 . S
C6208 C6210 1.395 . S
C6208 C6211 1.403 . S
H6209 C6215 0.930 . S
C6210 H6196 0.930 . S
C6210 C6208 1.395 . S
C6210 C6213 1.403 . S
C6211 C6208 1.403 . S
C6211 C6212 1.524 . S
C6211 C6215 1.400 . S
C6212 H6197 0.960 . S
C6212 H6198 0.960 . S
C6212 H6199 0.960 . S
C6212 C6211 1.524 . S
C6213 C6210 1.403 . S
C6213 C6214 1.392 . S
C6213 C6217 1.495 . S
C6214 C6213 1.392 . S
C6214 C6215 1.385 . S
C6214 C6216 1.478 . S
C6215 H6209 0.930 . S
C6215 C6211 1.400 . S
C6215 C6214 1.385 . S
C6216 C6214 1.478 . S
C6216 C6218 1.381 . S
C6216 C6222 1.383 . S
C6217 C6213 1.495 . S
C6217 H6223 0.959 . S
C6217 H6224 0.961 . S
C6217 H6225 0.960 . S
C6218 C6216 1.381 . S
C6218 C6219 1.394 . S
C6218 H6226 0.930 . S
C6219 C6218 1.394 . S
C6219 C6220 1.383 . S
C6219 H6227 0.929 . S
C6220 C6219 1.383 . S
C6220 C6221 1.377 . S
C6221 H6205 0.930 . S
C6221 C6220 1.377 . S
C6221 C6222 1.379 . S
C6222 H6206 0.931 . S
C6222 C6216 1.383 . S
C6222 C6221 1.379 . S
H6223 C6217 0.959 . S
H6224 C6217 0.961 . S
H6225 C6217 0.960 . S
H6226 C6218 0.930 . S
H6227 C6219 0.929 . S
H6228 C6236 0.929 . S
H6229 C6238 0.930 . S
H6230 C6240 0.930 . S
H6231 C6243 0.929 . S
H6232 C6246 0.930 . S
H6233 C6248 0.960 . S
H6234 C6248 0.960 . S
H6235 C6248 0.960 . S
C6236 H6228 0.929 . S
C6236 C6237 1.377 . S
C6236 C6238 1.384 . S
C6237 C6236 1.377 . S
C6237 C6243 1.390 . S
C6238 H6229 0.930 . S
C6238 C6236 1.384 . S
C6238 C6239 1.372 . S
C6239 C6238 1.372 . S
C6239 C6240 1.400 . S
C6239 C6244 1.490 . S
C6240 H6230 0.930 . S
C6240 C6239 1.400 . S
C6240 C6243 1.386 . S
H6241 C6257 0.930 . S
H6242 C6258 0.931 . S
C6243 H6231 0.929 . S
C6243 C6237 1.390 . S
C6243 C6240 1.386 . S
C6244 C6239 1.490 . S
C6244 C6246 1.395 . S
C6244 C6247 1.403 . S
H6245 C6251 0.930 . S
C6246 H6232 0.930 . S
C6246 C6244 1.395 . S
C6246 C6249 1.403 . S
C6247 C6244 1.403 . S
C6247 C6248 1.524 . S
C6247 C6251 1.400 . S
C6248 H6233 0.960 . S
C6248 H6234 0.960 . S
C6248 H6235 0.960 . S
C6248 C6247 1.524 . S
C6249 C6246 1.403 . S
C6249 C6250 1.392 . S
C6249 C6253 1.495 . S
C6250 C6249 1.392 . S
C6250 C6251 1.385 . S
C6250 C6252 1.478 . S
C6251 H6245 0.930 . S
C6251 C6247 1.400 . S
C6251 C6250 1.385 . S
C6252 C6250 1.478 . S
C6252 C6254 1.381 . S
C6252 C6258 1.383 . S
C6253 C6249 1.495 . S
C6253 H6259 0.959 . S
C6253 H6260 0.961 . S
C6253 H6261 0.960 . S
C6254 C6252 1.381 . S
C6254 C6255 1.394 . S
C6254 H6262 0.930 . S
C6255 C6254 1.394 . S
C6255 C6256 1.383 . S
C6255 H6263 0.929 . S
C6256 C6255 1.383 . S
C6256 C6257 1.377 . S
C6257 H6241 0.930 . S
C6257 C6256 1.377 . S
C6257 C6258 1.379 . S
C6258 H6242 0.931 . S
C6258 C6252 1.383 . S
C6258 C6257 1.379 . S
H6259 C6253 0.959 . S
H6260 C6253 0.961 . S
H6261 C6253 0.960 . S
H6262 C6254 0.930 . S
H6263 C6255 0.929 . S
H6264 C6272 0.929 . S
H6265 C6274 0.930 . S
H6266 C6276 0.930 . S
H6267 C6279 0.929 . S
H6268 C6282 0.930 . S
H6269 C6284 0.960 . S
H6270 C6284 0.960 . S
H6271 C6284 0.960 . S
C6272 H6264 0.929 . S
C6272 C6273 1.377 . S
C6272 C6274 1.384 . S
C6273 C6272 1.377 . S
C6273 C6279 1.390 . S
C6274 H6265 0.930 . S
C6274 C6272 1.384 . S
C6274 C6275 1.372 . S
C6275 C6274 1.372 . S
C6275 C6276 1.400 . S
C6275 C6280 1.490 . S
C6276 H6266 0.930 . S
C6276 C6275 1.400 . S
C6276 C6279 1.386 . S
H6277 C6293 0.930 . S
H6278 C6294 0.931 . S
C6279 H6267 0.929 . S
C6279 C6273 1.390 . S
C6279 C6276 1.386 . S
C6280 C6275 1.490 . S
C6280 C6282 1.395 . S
C6280 C6283 1.403 . S
H6281 C6287 0.930 . S
C6282 H6268 0.930 . S
C6282 C6280 1.395 . S
C6282 C6285 1.403 . S
C6283 C6280 1.403 . S
C6283 C6284 1.524 . S
C6283 C6287 1.400 . S
C6284 H6269 0.960 . S
C6284 H6270 0.960 . S
C6284 H6271 0.960 . S
C6284 C6283 1.524 . S
C6285 C6282 1.403 . S
C6285 C6286 1.392 . S
C6285 C6289 1.495 . S
C6286 C6285 1.392 . S
C6286 C6287 1.385 . S
C6286 C6288 1.478 . S
C6287 H6281 0.930 . S
C6287 C6283 1.400 . S
C6287 C6286 1.385 . S
C6288 C6286 1.478 . S
C6288 C6290 1.381 . S
C6288 C6294 1.383 . S
C6289 C6285 1.495 . S
C6289 H6295 0.959 . S
C6289 H6296 0.961 . S
C6289 H6297 0.960 . S
C6290 C6288 1.381 . S
C6290 C6291 1.394 . S
C6290 H6298 0.930 . S
C6291 C6290 1.394 . S
C6291 C6292 1.383 . S
C6291 H6299 0.929 . S
C6292 C6291 1.383 . S
C6292 C6293 1.377 . S
C6293 H6277 0.930 . S
C6293 C6292 1.377 . S
C6293 C6294 1.379 . S
C6294 H6278 0.931 . S
C6294 C6288 1.383 . S
C6294 C6293 1.379 . S
H6295 C6289 0.959 . S
H6296 C6289 0.961 . S
H6297 C6289 0.960 . S
H6298 C6290 0.930 . S
H6299 C6291 0.929 . S
H6300 C6308 0.929 . S
H6301 C6310 0.930 . S
H6302 C6312 0.930 . S
H6303 C6315 0.929 . S
H6304 C6318 0.930 . S
H6305 C6320 0.960 . S
H6306 C6320 0.960 . S
H6307 C6320 0.960 . S
C6308 H6300 0.929 . S
C6308 C6309 1.377 . S
C6308 C6310 1.384 . S
C6309 C6308 1.377 . S
C6309 C6315 1.390 . S
C6310 H6301 0.930 . S
C6310 C6308 1.384 . S
C6310 C6311 1.372 . S
C6311 C6310 1.372 . S
C6311 C6312 1.400 . S
C6311 C6316 1.490 . S
C6312 H6302 0.930 . S
C6312 C6311 1.400 . S
C6312 C6315 1.386 . S
H6313 C6329 0.930 . S
H6314 C6330 0.931 . S
C6315 H6303 0.929 . S
C6315 C6309 1.390 . S
C6315 C6312 1.386 . S
C6316 C6311 1.490 . S
C6316 C6318 1.395 . S
C6316 C6319 1.403 . S
H6317 C6323 0.930 . S
C6318 H6304 0.930 . S
C6318 C6316 1.395 . S
C6318 C6321 1.403 . S
C6319 C6316 1.403 . S
C6319 C6320 1.524 . S
C6319 C6323 1.400 . S
C6320 H6305 0.960 . S
C6320 H6306 0.960 . S
C6320 H6307 0.960 . S
C6320 C6319 1.524 . S
C6321 C6318 1.403 . S
C6321 C6322 1.392 . S
C6321 C6325 1.495 . S
C6322 C6321 1.392 . S
C6322 C6323 1.385 . S
C6322 C6324 1.478 . S
C6323 H6317 0.930 . S
C6323 C6319 1.400 . S
C6323 C6322 1.385 . S
C6324 C6322 1.478 . S
C6324 C6326 1.381 . S
C6324 C6330 1.383 . S
C6325 C6321 1.495 . S
C6325 H6331 0.959 . S
C6325 H6332 0.961 . S
C6325 H6333 0.960 . S
C6326 C6324 1.381 . S
C6326 C6327 1.394 . S
C6326 H6334 0.930 . S
C6327 C6326 1.394 . S
C6327 C6328 1.383 . S
C6327 H6335 0.929 . S
C6328 C6327 1.383 . S
C6328 C6329 1.377 . S
C6329 H6313 0.930 . S
C6329 C6328 1.377 . S
C6329 C6330 1.379 . S
C6330 H6314 0.931 . S
C6330 C6324 1.383 . S
C6330 C6329 1.379 . S
H6331 C6325 0.959 . S
H6332 C6325 0.961 . S
H6333 C6325 0.960 . S
H6334 C6326 0.930 . S
H6335 C6327 0.929 . S
H6336 C6344 0.929 . S
H6337 C6346 0.930 . S
H6338 C6348 0.930 . S
H6339 C6351 0.929 . S
H6340 C6354 0.930 . S
H6341 C6356 0.960 . S
H6342 C6356 0.960 . S
H6343 C6356 0.960 . S
C6344 H6336 0.929 . S
C6344 C6345 1.377 . S
C6344 C6346 1.384 . S
C6345 C6344 1.377 . S
C6345 C6351 1.390 . S
C6346 H6337 0.930 . S
C6346 C6344 1.384 . S
C6346 C6347 1.372 . S
C6347 C6346 1.372 . S
C6347 C6348 1.400 . S
C6347 C6352 1.490 . S
C6348 H6338 0.930 . S
C6348 C6347 1.400 . S
C6348 C6351 1.386 . S
H6349 C6365 0.930 . S
H6350 C6366 0.931 . S
C6351 H6339 0.929 . S
C6351 C6345 1.390 . S
C6351 C6348 1.386 . S
C6352 C6347 1.490 . S
C6352 C6354 1.395 . S
C6352 C6355 1.403 . S
H6353 C6359 0.930 . S
C6354 H6340 0.930 . S
C6354 C6352 1.395 . S
C6354 C6357 1.403 . S
C6355 C6352 1.403 . S
C6355 C6356 1.524 . S
C6355 C6359 1.400 . S
C6356 H6341 0.960 . S
C6356 H6342 0.960 . S
C6356 H6343 0.960 . S
C6356 C6355 1.524 . S
C6357 C6354 1.403 . S
C6357 C6358 1.392 . S
C6357 C6361 1.495 . S
C6358 C6357 1.392 . S
C6358 C6359 1.385 . S
C6358 C6360 1.478 . S
C6359 H6353 0.930 . S
C6359 C6355 1.400 . S
C6359 C6358 1.385 . S
C6360 C6358 1.478 . S
C6360 C6362 1.381 . S
C6360 C6366 1.383 . S
C6361 C6357 1.495 . S
C6361 H6367 0.959 . S
C6361 H6368 0.961 . S
C6361 H6369 0.960 . S
C6362 C6360 1.381 . S
C6362 C6363 1.394 . S
C6362 H6370 0.930 . S
C6363 C6362 1.394 . S
C6363 C6364 1.383 . S
C6363 H6371 0.929 . S
C6364 C6363 1.383 . S
C6364 C6365 1.377 . S
C6365 H6349 0.930 . S
C6365 C6364 1.377 . S
C6365 C6366 1.379 . S
C6366 H6350 0.931 . S
C6366 C6360 1.383 . S
C6366 C6365 1.379 . S
H6367 C6361 0.959 . S
H6368 C6361 0.961 . S
H6369 C6361 0.960 . S
H6370 C6362 0.930 . S
H6371 C6363 0.929 . S
H6372 C6380 0.929 . S
H6373 C6382 0.930 . S
H6374 C6384 0.930 . S
H6375 C6387 0.929 . S
H6376 C6390 0.930 . S
H6377 C6392 0.960 . S
H6378 C6392 0.960 . S
H6379 C6392 0.960 . S
C6380 H6372 0.929 . S
C6380 C6381 1.377 . S
C6380 C6382 1.384 . S
C6381 C6380 1.377 . S
C6381 C6387 1.390 . S
C6382 H6373 0.930 . S
C6382 C6380 1.384 . S
C6382 C6383 1.372 . S
C6383 C6382 1.372 . S
C6383 C6384 1.400 . S
C6383 C6388 1.490 . S
C6384 H6374 0.930 . S
C6384 C6383 1.400 . S
C6384 C6387 1.386 . S
H6385 C6401 0.930 . S
H6386 C6402 0.931 . S
C6387 H6375 0.929 . S
C6387 C6381 1.390 . S
C6387 C6384 1.386 . S
C6388 C6383 1.490 . S
C6388 C6390 1.395 . S
C6388 C6391 1.403 . S
H6389 C6395 0.930 . S
C6390 H6376 0.930 . S
C6390 C6388 1.395 . S
C6390 C6393 1.403 . S
C6391 C6388 1.403 . S
C6391 C6392 1.524 . S
C6391 C6395 1.400 . S
C6392 H6377 0.960 . S
C6392 H6378 0.960 . S
C6392 H6379 0.960 . S
C6392 C6391 1.524 . S
C6393 C6390 1.403 . S
C6393 C6394 1.392 . S
C6393 C6397 1.495 . S
C6394 C6393 1.392 . S
C6394 C6395 1.385 . S
C6394 C6396 1.478 . S
C6395 H6389 0.930 . S
C6395 C6391 1.400 . S
C6395 C6394 1.385 . S
C6396 C6394 1.478 . S
C6396 C6398 1.381 . S
C6396 C6402 1.383 . S
C6397 C6393 1.495 . S
C6397 H6403 0.959 . S
C6397 H6404 0.961 . S
C6397 H6405 0.960 . S
C6398 C6396 1.381 . S
C6398 C6399 1.394 . S
C6398 H6406 0.930 . S
C6399 C6398 1.394 . S
C6399 C6400 1.383 . S
C6399 H6407 0.929 . S
C6400 C6399 1.383 . S
C6400 C6401 1.377 . S
C6401 H6385 0.930 . S
C6401 C6400 1.377 . S
C6401 C6402 1.379 . S
C6402 H6386 0.931 . S
C6402 C6396 1.383 . S
C6402 C6401 1.379 . S
H6403 C6397 0.959 . S
H6404 C6397 0.961 . S
H6405 C6397 0.960 . S
H6406 C6398 0.930 . S
H6407 C6399 0.929 . S
H6408 C6416 0.929 . S
H6409 C6418 0.930 . S
H6410 C6420 0.930 . S
H6411 C6423 0.929 . S
H6412 C6426 0.930 . S
H6413 C6428 0.960 . S
H6414 C6428 0.960 . S
H6415 C6428 0.960 . S
C6416 H6408 0.929 . S
C6416 C6417 1.377 . S
C6416 C6418 1.384 . S
C6417 C6416 1.377 . S
C6417 C6423 1.390 . S
C6418 H6409 0.930 . S
C6418 C6416 1.384 . S
C6418 C6419 1.372 . S
C6419 C6418 1.372 . S
C6419 C6420 1.400 . S
C6419 C6424 1.490 . S
C6420 H6410 0.930 . S
C6420 C6419 1.400 . S
C6420 C6423 1.386 . S
H6421 C6437 0.930 . S
H6422 C6438 0.931 . S
C6423 H6411 0.929 . S
C6423 C6417 1.390 . S
C6423 C6420 1.386 . S
C6424 C6419 1.490 . S
C6424 C6426 1.395 . S
C6424 C6427 1.403 . S
H6425 C6431 0.930 . S
C6426 H6412 0.930 . S
C6426 C6424 1.395 . S
C6426 C6429 1.403 . S
C6427 C6424 1.403 . S
C6427 C6428 1.524 . S
C6427 C6431 1.400 . S
C6428 H6413 0.960 . S
C6428 H6414 0.960 . S
C6428 H6415 0.960 . S
C6428 C6427 1.524 . S
C6429 C6426 1.403 . S
C6429 C6430 1.392 . S
C6429 C6433 1.495 . S
C6430 C6429 1.392 . S
C6430 C6431 1.385 . S
C6430 C6432 1.478 . S
C6431 H6425 0.930 . S
C6431 C6427 1.400 . S
C6431 C6430 1.385 . S
C6432 C6430 1.478 . S
C6432 C6434 1.381 . S
C6432 C6438 1.383 . S
C6433 C6429 1.495 . S
C6433 H6439 0.959 . S
C6433 H6440 0.961 . S
C6433 H6441 0.960 . S
C6434 C6432 1.381 . S
C6434 C6435 1.394 . S
C6434 H6442 0.930 . S
C6435 C6434 1.394 . S
C6435 C6436 1.383 . S
C6435 H6443 0.929 . S
C6436 C6435 1.383 . S
C6436 C6437 1.377 . S
C6437 H6421 0.930 . S
C6437 C6436 1.377 . S
C6437 C6438 1.379 . S
C6438 H6422 0.931 . S
C6438 C6432 1.383 . S
C6438 C6437 1.379 . S
H6439 C6433 0.959 . S
H6440 C6433 0.961 . S
H6441 C6433 0.960 . S
H6442 C6434 0.930 . S
H6443 C6435 0.929 . S
H6444 C6452 0.929 . S
H6445 C6454 0.930 . S
H6446 C6456 0.930 . S
H6447 C6459 0.929 . S
H6448 C6462 0.930 . S
H6449 C6464 0.960 . S
H6450 C6464 0.960 . S
H6451 C6464 0.960 . S
C6452 H6444 0.929 . S
C6452 C6453 1.377 . S
C6452 C6454 1.384 . S
C6453 C6452 1.377 . S
C6453 C6459 1.390 . S
C6454 H6445 0.930 . S
C6454 C6452 1.384 . S
C6454 C6455 1.372 . S
C6455 C6454 1.372 . S
C6455 C6456 1.400 . S
C6455 C6460 1.490 . S
C6456 H6446 0.930 . S
C6456 C6455 1.400 . S
C6456 C6459 1.386 . S
H6457 C6473 0.930 . S
H6458 C6474 0.931 . S
C6459 H6447 0.929 . S
C6459 C6453 1.390 . S
C6459 C6456 1.386 . S
C6460 C6455 1.490 . S
C6460 C6462 1.395 . S
C6460 C6463 1.403 . S
H6461 C6467 0.930 . S
C6462 H6448 0.930 . S
C6462 C6460 1.395 . S
C6462 C6465 1.403 . S
C6463 C6460 1.403 . S
C6463 C6464 1.524 . S
C6463 C6467 1.400 . S
C6464 H6449 0.960 . S
C6464 H6450 0.960 . S
C6464 H6451 0.960 . S
C6464 C6463 1.524 . S
C6465 C6462 1.403 . S
C6465 C6466 1.392 . S
C6465 C6469 1.495 . S
C6466 C6465 1.392 . S
C6466 C6467 1.385 . S
C6466 C6468 1.478 . S
C6467 H6461 0.930 . S
C6467 C6463 1.400 . S
C6467 C6466 1.385 . S
C6468 C6466 1.478 . S
C6468 C6470 1.381 . S
C6468 C6474 1.383 . S
C6469 C6465 1.495 . S
C6469 H6475 0.959 . S
C6469 H6476 0.961 . S
C6469 H6477 0.960 . S
C6470 C6468 1.381 . S
C6470 C6471 1.394 . S
C6470 H6478 0.930 . S
C6471 C6470 1.394 . S
C6471 C6472 1.383 . S
C6471 H6479 0.929 . S
C6472 C6471 1.383 . S
C6472 C6473 1.377 . S
C6473 H6457 0.930 . S
C6473 C6472 1.377 . S
C6473 C6474 1.379 . S
C6474 H6458 0.931 . S
C6474 C6468 1.383 . S
C6474 C6473 1.379 . S
H6475 C6469 0.959 . S
H6476 C6469 0.961 . S
H6477 C6469 0.960 . S
H6478 C6470 0.930 . S
H6479 C6471 0.929 . S
H6480 C6488 0.929 . S
H6481 C6490 0.930 . S
H6482 C6492 0.930 . S
H6483 C6495 0.929 . S
H6484 C6498 0.930 . S
H6485 C6500 0.960 . S
H6486 C6500 0.960 . S
H6487 C6500 0.960 . S
C6488 H6480 0.929 . S
C6488 C6489 1.377 . S
C6488 C6490 1.384 . S
C6489 C6488 1.377 . S
C6489 C6495 1.390 . S
C6490 H6481 0.930 . S
C6490 C6488 1.384 . S
C6490 C6491 1.372 . S
C6491 C6490 1.372 . S
C6491 C6492 1.400 . S
C6491 C6496 1.490 . S
C6492 H6482 0.930 . S
C6492 C6491 1.400 . S
C6492 C6495 1.386 . S
H6493 C6509 0.930 . S
H6494 C6510 0.931 . S
C6495 H6483 0.929 . S
C6495 C6489 1.390 . S
C6495 C6492 1.386 . S
C6496 C6491 1.490 . S
C6496 C6498 1.395 . S
C6496 C6499 1.403 . S
H6497 C6503 0.930 . S
C6498 H6484 0.930 . S
C6498 C6496 1.395 . S
C6498 C6501 1.403 . S
C6499 C6496 1.403 . S
C6499 C6500 1.524 . S
C6499 C6503 1.400 . S
C6500 H6485 0.960 . S
C6500 H6486 0.960 . S
C6500 H6487 0.960 . S
C6500 C6499 1.524 . S
C6501 C6498 1.403 . S
C6501 C6502 1.392 . S
C6501 C6505 1.495 . S
C6502 C6501 1.392 . S
C6502 C6503 1.385 . S
C6502 C6504 1.478 . S
C6503 H6497 0.930 . S
C6503 C6499 1.400 . S
C6503 C6502 1.385 . S
C6504 C6502 1.478 . S
C6504 C6506 1.381 . S
C6504 C6510 1.383 . S
C6505 C6501 1.495 . S
C6505 H6511 0.959 . S
C6505 H6512 0.961 . S
C6505 H6513 0.960 . S
C6506 C6504 1.381 . S
C6506 C6507 1.394 . S
C6506 H6514 0.930 . S
C6507 C6506 1.394 . S
C6507 C6508 1.383 . S
C6507 H6515 0.929 . S
C6508 C6507 1.383 . S
C6508 C6509 1.377 . S
C6509 H6493 0.930 . S
C6509 C6508 1.377 . S
C6509 C6510 1.379 . S
C6510 H6494 0.931 . S
C6510 C6504 1.383 . S
C6510 C6509 1.379 . S
H6511 C6505 0.959 . S
H6512 C6505 0.961 . S
H6513 C6505 0.960 . S
H6514 C6506 0.930 . S
H6515 C6507 0.929 . S
H6516 C6524 0.929 . S
H6517 C6526 0.930 . S
H6518 C6528 0.930 . S
H6519 C6531 0.929 . S
H6520 C6534 0.930 . S
H6521 C6536 0.960 . S
H6522 C6536 0.960 . S
H6523 C6536 0.960 . S
C6524 H6516 0.929 . S
C6524 C6525 1.377 . S
C6524 C6526 1.384 . S
C6525 C6524 1.377 . S
C6525 C6531 1.390 . S
C6526 H6517 0.930 . S
C6526 C6524 1.384 . S
C6526 C6527 1.372 . S
C6527 C6526 1.372 . S
C6527 C6528 1.400 . S
C6527 C6532 1.490 . S
C6528 H6518 0.930 . S
C6528 C6527 1.400 . S
C6528 C6531 1.386 . S
H6529 C6545 0.930 . S
H6530 C6546 0.931 . S
C6531 H6519 0.929 . S
C6531 C6525 1.390 . S
C6531 C6528 1.386 . S
C6532 C6527 1.490 . S
C6532 C6534 1.395 . S
C6532 C6535 1.403 . S
H6533 C6539 0.930 . S
C6534 H6520 0.930 . S
C6534 C6532 1.395 . S
C6534 C6537 1.403 . S
C6535 C6532 1.403 . S
C6535 C6536 1.524 . S
C6535 C6539 1.400 . S
C6536 H6521 0.960 . S
C6536 H6522 0.960 . S
C6536 H6523 0.960 . S
C6536 C6535 1.524 . S
C6537 C6534 1.403 . S
C6537 C6538 1.392 . S
C6537 C6541 1.495 . S
C6538 C6537 1.392 . S
C6538 C6539 1.385 . S
C6538 C6540 1.478 . S
C6539 H6533 0.930 . S
C6539 C6535 1.400 . S
C6539 C6538 1.385 . S
C6540 C6538 1.478 . S
C6540 C6542 1.381 . S
C6540 C6546 1.383 . S
C6541 C6537 1.495 . S
C6541 H6547 0.959 . S
C6541 H6548 0.961 . S
C6541 H6549 0.960 . S
C6542 C6540 1.381 . S
C6542 C6543 1.394 . S
C6542 H6550 0.930 . S
C6543 C6542 1.394 . S
C6543 C6544 1.383 . S
C6543 H6551 0.929 . S
C6544 C6543 1.383 . S
C6544 C6545 1.377 . S
C6545 H6529 0.930 . S
C6545 C6544 1.377 . S
C6545 C6546 1.379 . S
C6546 H6530 0.931 . S
C6546 C6540 1.383 . S
C6546 C6545 1.379 . S
H6547 C6541 0.959 . S
H6548 C6541 0.961 . S
H6549 C6541 0.960 . S
H6550 C6542 0.930 . S
H6551 C6543 0.929 . S
H6552 C6560 0.929 . S
H6553 C6562 0.930 . S
H6554 C6564 0.930 . S
H6555 C6567 0.929 . S
H6556 C6570 0.930 . S
H6557 C6572 0.960 . S
H6558 C6572 0.960 . S
H6559 C6572 0.960 . S
C6560 H6552 0.929 . S
C6560 C6561 1.377 . S
C6560 C6562 1.384 . S
C6561 C6560 1.377 . S
C6561 C6567 1.390 . S
C6562 H6553 0.930 . S
C6562 C6560 1.384 . S
C6562 C6563 1.372 . S
C6563 C6562 1.372 . S
C6563 C6564 1.400 . S
C6563 C6568 1.490 . S
C6564 H6554 0.930 . S
C6564 C6563 1.400 . S
C6564 C6567 1.386 . S
H6565 C6581 0.930 . S
H6566 C6582 0.931 . S
C6567 H6555 0.929 . S
C6567 C6561 1.390 . S
C6567 C6564 1.386 . S
C6568 C6563 1.490 . S
C6568 C6570 1.395 . S
C6568 C6571 1.403 . S
H6569 C6575 0.930 . S
C6570 H6556 0.930 . S
C6570 C6568 1.395 . S
C6570 C6573 1.403 . S
C6571 C6568 1.403 . S
C6571 C6572 1.524 . S
C6571 C6575 1.400 . S
C6572 H6557 0.960 . S
C6572 H6558 0.960 . S
C6572 H6559 0.960 . S
C6572 C6571 1.524 . S
C6573 C6570 1.403 . S
C6573 C6574 1.392 . S
C6573 C6577 1.495 . S
C6574 C6573 1.392 . S
C6574 C6575 1.385 . S
C6574 C6576 1.478 . S
C6575 H6569 0.930 . S
C6575 C6571 1.400 . S
C6575 C6574 1.385 . S
C6576 C6574 1.478 . S
C6576 C6578 1.381 . S
C6576 C6582 1.383 . S
C6577 C6573 1.495 . S
C6577 H6583 0.959 . S
C6577 H6584 0.961 . S
C6577 H6585 0.960 . S
C6578 C6576 1.381 . S
C6578 C6579 1.394 . S
C6578 H6586 0.930 . S
C6579 C6578 1.394 . S
C6579 C6580 1.383 . S
C6579 H6587 0.929 . S
C6580 C6579 1.383 . S
C6580 C6581 1.377 . S
C6581 H6565 0.930 . S
C6581 C6580 1.377 . S
C6581 C6582 1.379 . S
C6582 H6566 0.931 . S
C6582 C6576 1.383 . S
C6582 C6581 1.379 . S
H6583 C6577 0.959 . S
H6584 C6577 0.961 . S
H6585 C6577 0.960 . S
H6586 C6578 0.930 . S
H6587 C6579 0.929 . S
H6588 C6596 0.929 . S
H6589 C6598 0.930 . S
H6590 C6600 0.930 . S
H6591 C6603 0.929 . S
H6592 C6606 0.930 . S
H6593 C6608 0.960 . S
H6594 C6608 0.960 . S
H6595 C6608 0.960 . S
C6596 H6588 0.929 . S
C6596 C6597 1.377 . S
C6596 C6598 1.384 . S
C6597 C6596 1.377 . S
C6597 C6603 1.390 . S
C6598 H6589 0.930 . S
C6598 C6596 1.384 . S
C6598 C6599 1.372 . S
C6599 C6598 1.372 . S
C6599 C6600 1.400 . S
C6599 C6604 1.490 . S
C6600 H6590 0.930 . S
C6600 C6599 1.400 . S
C6600 C6603 1.386 . S
H6601 C6617 0.930 . S
H6602 C6618 0.931 . S
C6603 H6591 0.929 . S
C6603 C6597 1.390 . S
C6603 C6600 1.386 . S
C6604 C6599 1.490 . S
C6604 C6606 1.395 . S
C6604 C6607 1.403 . S
H6605 C6611 0.930 . S
C6606 H6592 0.930 . S
C6606 C6604 1.395 . S
C6606 C6609 1.403 . S
C6607 C6604 1.403 . S
C6607 C6608 1.524 . S
C6607 C6611 1.400 . S
C6608 H6593 0.960 . S
C6608 H6594 0.960 . S
C6608 H6595 0.960 . S
C6608 C6607 1.524 . S
C6609 C6606 1.403 . S
C6609 C6610 1.392 . S
C6609 C6613 1.495 . S
C6610 C6609 1.392 . S
C6610 C6611 1.385 . S
C6610 C6612 1.478 . S
C6611 H6605 0.930 . S
C6611 C6607 1.400 . S
C6611 C6610 1.385 . S
C6612 C6610 1.478 . S
C6612 C6614 1.381 . S
C6612 C6618 1.383 . S
C6613 C6609 1.495 . S
C6613 H6619 0.959 . S
C6613 H6620 0.961 . S
C6613 H6621 0.960 . S
C6614 C6612 1.381 . S
C6614 C6615 1.394 . S
C6614 H6622 0.930 . S
C6615 C6614 1.394 . S
C6615 C6616 1.383 . S
C6615 H6623 0.929 . S
C6616 C6615 1.383 . S
C6616 C6617 1.377 . S
C6617 H6601 0.930 . S
C6617 C6616 1.377 . S
C6617 C6618 1.379 . S
C6618 H6602 0.931 . S
C6618 C6612 1.383 . S
C6618 C6617 1.379 . S
H6619 C6613 0.959 . S
H6620 C6613 0.961 . S
H6621 C6613 0.960 . S
H6622 C6614 0.930 . S
H6623 C6615 0.929 . S
H6624 C6632 0.929 . S
H6625 C6634 0.930 . S
H6626 C6636 0.930 . S
H6627 C6639 0.929 . S
H6628 C6642 0.930 . S
H6629 C6644 0.960 . S
H6630 C6644 0.960 . S
H6631 C6644 0.960 . S
C6632 H6624 0.929 . S
C6632 C6633 1.377 . S
C6632 C6634 1.384 . S
C6633 C6632 1.377 . S
C6633 C6639 1.390 . S
C6634 H6625 0.930 . S
C6634 C6632 1.384 . S
C6634 C6635 1.372 . S
C6635 C6634 1.372 . S
C6635 C6636 1.400 . S
C6635 C6640 1.490 . S
C6636 H6626 0.930 . S
C6636 C6635 1.400 . S
C6636 C6639 1.386 . S
H6637 C6653 0.930 . S
H6638 C6654 0.931 . S
C6639 H6627 0.929 . S
C6639 C6633 1.390 . S
C6639 C6636 1.386 . S
C6640 C6635 1.490 . S
C6640 C6642 1.395 . S
C6640 C6643 1.403 . S
H6641 C6647 0.930 . S
C6642 H6628 0.930 . S
C6642 C6640 1.395 . S
C6642 C6645 1.403 . S
C6643 C6640 1.403 . S
C6643 C6644 1.524 . S
C6643 C6647 1.400 . S
C6644 H6629 0.960 . S
C6644 H6630 0.960 . S
C6644 H6631 0.960 . S
C6644 C6643 1.524 . S
C6645 C6642 1.403 . S
C6645 C6646 1.392 . S
C6645 C6649 1.495 . S
C6646 C6645 1.392 . S
C6646 C6647 1.385 . S
C6646 C6648 1.478 . S
C6647 H6641 0.930 . S
C6647 C6643 1.400 . S
C6647 C6646 1.385 . S
C6648 C6646 1.478 . S
C6648 C6650 1.381 . S
C6648 C6654 1.383 . S
C6649 C6645 1.495 . S
C6649 H6655 0.959 . S
C6649 H6656 0.961 . S
C6649 H6657 0.960 . S
C6650 C6648 1.381 . S
C6650 C6651 1.394 . S
C6650 H6658 0.930 . S
C6651 C6650 1.394 . S
C6651 C6652 1.383 . S
C6651 H6659 0.929 . S
C6652 C6651 1.383 . S
C6652 C6653 1.377 . S
C6653 H6637 0.930 . S
C6653 C6652 1.377 . S
C6653 C6654 1.379 . S
C6654 H6638 0.931 . S
C6654 C6648 1.383 . S
C6654 C6653 1.379 . S
H6655 C6649 0.959 . S
H6656 C6649 0.961 . S
H6657 C6649 0.960 . S
H6658 C6650 0.930 . S
H6659 C6651 0.929 . S
H6660 C6668 0.929 . S
H6661 C6670 0.930 . S
H6662 C6672 0.930 . S
H6663 C6675 0.929 . S
H6664 C6678 0.930 . S
H6665 C6680 0.960 . S
H6666 C6680 0.960 . S
H6667 C6680 0.960 . S
C6668 H6660 0.929 . S
C6668 C6669 1.377 . S
C6668 C6670 1.384 . S
C6669 C6668 1.377 . S
C6669 C6675 1.390 . S
C6670 H6661 0.930 . S
C6670 C6668 1.384 . S
C6670 C6671 1.372 . S
C6671 C6670 1.372 . S
C6671 C6672 1.400 . S
C6671 C6676 1.490 . S
C6672 H6662 0.930 . S
C6672 C6671 1.400 . S
C6672 C6675 1.386 . S
H6673 C6689 0.930 . S
H6674 C6690 0.931 . S
C6675 H6663 0.929 . S
C6675 C6669 1.390 . S
C6675 C6672 1.386 . S
C6676 C6671 1.490 . S
C6676 C6678 1.395 . S
C6676 C6679 1.403 . S
H6677 C6683 0.930 . S
C6678 H6664 0.930 . S
C6678 C6676 1.395 . S
C6678 C6681 1.403 . S
C6679 C6676 1.403 . S
C6679 C6680 1.524 . S
C6679 C6683 1.400 . S
C6680 H6665 0.960 . S
C6680 H6666 0.960 . S
C6680 H6667 0.960 . S
C6680 C6679 1.524 . S
C6681 C6678 1.403 . S
C6681 C6682 1.392 . S
C6681 C6685 1.495 . S
C6682 C6681 1.392 . S
C6682 C6683 1.385 . S
C6682 C6684 1.478 . S
C6683 H6677 0.930 . S
C6683 C6679 1.400 . S
C6683 C6682 1.385 . S
C6684 C6682 1.478 . S
C6684 C6686 1.381 . S
C6684 C6690 1.383 . S
C6685 C6681 1.495 . S
C6685 H6691 0.959 . S
C6685 H6692 0.961 . S
C6685 H6693 0.960 . S
C6686 C6684 1.381 . S
C6686 C6687 1.394 . S
C6686 H6694 0.930 . S
C6687 C6686 1.394 . S
C6687 C6688 1.383 . S
C6687 H6695 0.929 . S
C6688 C6687 1.383 . S
C6688 C6689 1.377 . S
C6689 H6673 0.930 . S
C6689 C6688 1.377 . S
C6689 C6690 1.379 . S
C6690 H6674 0.931 . S
C6690 C6684 1.383 . S
C6690 C6689 1.379 . S
H6691 C6685 0.959 . S
H6692 C6685 0.961 . S
H6693 C6685 0.960 . S
H6694 C6686 0.930 . S
H6695 C6687 0.929 . S
H6696 C6704 0.929 . S
H6697 C6706 0.930 . S
H6698 C6708 0.930 . S
H6699 C6711 0.929 . S
H6700 C6714 0.930 . S
H6701 C6716 0.960 . S
H6702 C6716 0.960 . S
H6703 C6716 0.960 . S
C6704 H6696 0.929 . S
C6704 C6705 1.377 . S
C6704 C6706 1.384 . S
C6705 C6704 1.377 . S
C6705 C6711 1.390 . S
C6706 H6697 0.930 . S
C6706 C6704 1.384 . S
C6706 C6707 1.372 . S
C6707 C6706 1.372 . S
C6707 C6708 1.400 . S
C6707 C6712 1.490 . S
C6708 H6698 0.930 . S
C6708 C6707 1.400 . S
C6708 C6711 1.386 . S
H6709 C6725 0.930 . S
H6710 C6726 0.931 . S
C6711 H6699 0.929 . S
C6711 C6705 1.390 . S
C6711 C6708 1.386 . S
C6712 C6707 1.490 . S
C6712 C6714 1.395 . S
C6712 C6715 1.403 . S
H6713 C6719 0.930 . S
C6714 H6700 0.930 . S
C6714 C6712 1.395 . S
C6714 C6717 1.403 . S
C6715 C6712 1.403 . S
C6715 C6716 1.524 . S
C6715 C6719 1.400 . S
C6716 H6701 0.960 . S
C6716 H6702 0.960 . S
C6716 H6703 0.960 . S
C6716 C6715 1.524 . S
C6717 C6714 1.403 . S
C6717 C6718 1.392 . S
C6717 C6721 1.495 . S
C6718 C6717 1.392 . S
C6718 C6719 1.385 . S
C6718 C6720 1.478 . S
C6719 H6713 0.930 . S
C6719 C6715 1.400 . S
C6719 C6718 1.385 . S
C6720 C6718 1.478 . S
C6720 C6722 1.381 . S
C6720 C6726 1.383 . S
C6721 C6717 1.495 . S
C6721 H6727 0.959 . S
C6721 H6728 0.961 . S
C6721 H6729 0.960 . S
C6722 C6720 1.381 . S
C6722 C6723 1.394 . S
C6722 H6730 0.930 . S
C6723 C6722 1.394 . S
C6723 C6724 1.383 . S
C6723 H6731 0.929 . S
C6724 C6723 1.383 . S
C6724 C6725 1.377 . S
C6725 H6709 0.930 . S
C6725 C6724 1.377 . S
C6725 C6726 1.379 . S
C6726 H6710 0.931 . S
C6726 C6720 1.383 . S
C6726 C6725 1.379 . S
H6727 C6721 0.959 . S
H6728 C6721 0.961 . S
H6729 C6721 0.960 . S
H6730 C6722 0.930 . S
H6731 C6723 0.929 . S
H6732 C6740 0.929 . S
H6733 C6742 0.930 . S
H6734 C6744 0.930 . S
H6735 C6747 0.929 . S
H6736 C6750 0.930 . S
H6737 C6752 0.960 . S
H6738 C6752 0.960 . S
H6739 C6752 0.960 . S
C6740 H6732 0.929 . S
C6740 C6741 1.377 . S
C6740 C6742 1.384 . S
C6741 C6740 1.377 . S
C6741 C6747 1.390 . S
C6742 H6733 0.930 . S
C6742 C6740 1.384 . S
C6742 C6743 1.372 . S
C6743 C6742 1.372 . S
C6743 C6744 1.400 . S
C6743 C6748 1.490 . S
C6744 H6734 0.930 . S
C6744 C6743 1.400 . S
C6744 C6747 1.386 . S
H6745 C6761 0.930 . S
H6746 C6762 0.931 . S
C6747 H6735 0.929 . S
C6747 C6741 1.390 . S
C6747 C6744 1.386 . S
C6748 C6743 1.490 . S
C6748 C6750 1.395 . S
C6748 C6751 1.403 . S
H6749 C6755 0.930 . S
C6750 H6736 0.930 . S
C6750 C6748 1.395 . S
C6750 C6753 1.403 . S
C6751 C6748 1.403 . S
C6751 C6752 1.524 . S
C6751 C6755 1.400 . S
C6752 H6737 0.960 . S
C6752 H6738 0.960 . S
C6752 H6739 0.960 . S
C6752 C6751 1.524 . S
C6753 C6750 1.403 . S
C6753 C6754 1.392 . S
C6753 C6757 1.495 . S
C6754 C6753 1.392 . S
C6754 C6755 1.385 . S
C6754 C6756 1.478 . S
C6755 H6749 0.930 . S
C6755 C6751 1.400 . S
C6755 C6754 1.385 . S
C6756 C6754 1.478 . S
C6756 C6758 1.381 . S
C6756 C6762 1.383 . S
C6757 C6753 1.495 . S
C6757 H6763 0.959 . S
C6757 H6764 0.961 . S
C6757 H6765 0.960 . S
C6758 C6756 1.381 . S
C6758 C6759 1.394 . S
C6758 H6766 0.930 . S
C6759 C6758 1.394 . S
C6759 C6760 1.383 . S
C6759 H6767 0.929 . S
C6760 C6759 1.383 . S
C6760 C6761 1.377 . S
C6761 H6745 0.930 . S
C6761 C6760 1.377 . S
C6761 C6762 1.379 . S
C6762 H6746 0.931 . S
C6762 C6756 1.383 . S
C6762 C6761 1.379 . S
H6763 C6757 0.959 . S
H6764 C6757 0.961 . S
H6765 C6757 0.960 . S
H6766 C6758 0.930 . S
H6767 C6759 0.929 . S
H6768 C6776 0.929 . S
H6769 C6778 0.930 . S
H6770 C6780 0.930 . S
H6771 C6783 0.929 . S
H6772 C6786 0.930 . S
H6773 C6788 0.960 . S
H6774 C6788 0.960 . S
H6775 C6788 0.960 . S
C6776 H6768 0.929 . S
C6776 C6777 1.377 . S
C6776 C6778 1.384 . S
C6777 C6776 1.377 . S
C6777 C6783 1.390 . S
C6778 H6769 0.930 . S
C6778 C6776 1.384 . S
C6778 C6779 1.372 . S
C6779 C6778 1.372 . S
C6779 C6780 1.400 . S
C6779 C6784 1.490 . S
C6780 H6770 0.930 . S
C6780 C6779 1.400 . S
C6780 C6783 1.386 . S
H6781 C6797 0.930 . S
H6782 C6798 0.931 . S
C6783 H6771 0.929 . S
C6783 C6777 1.390 . S
C6783 C6780 1.386 . S
C6784 C6779 1.490 . S
C6784 C6786 1.395 . S
C6784 C6787 1.403 . S
H6785 C6791 0.930 . S
C6786 H6772 0.930 . S
C6786 C6784 1.395 . S
C6786 C6789 1.403 . S
C6787 C6784 1.403 . S
C6787 C6788 1.524 . S
C6787 C6791 1.400 . S
C6788 H6773 0.960 . S
C6788 H6774 0.960 . S
C6788 H6775 0.960 . S
C6788 C6787 1.524 . S
C6789 C6786 1.403 . S
C6789 C6790 1.392 . S
C6789 C6793 1.495 . S
C6790 C6789 1.392 . S
C6790 C6791 1.385 . S
C6790 C6792 1.478 . S
C6791 H6785 0.930 . S
C6791 C6787 1.400 . S
C6791 C6790 1.385 . S
C6792 C6790 1.478 . S
C6792 C6794 1.381 . S
C6792 C6798 1.383 . S
C6793 C6789 1.495 . S
C6793 H6799 0.959 . S
C6793 H6800 0.961 . S
C6793 H6801 0.960 . S
C6794 C6792 1.381 . S
C6794 C6795 1.394 . S
C6794 H6802 0.930 . S
C6795 C6794 1.394 . S
C6795 C6796 1.383 . S
C6795 H6803 0.929 . S
C6796 C6795 1.383 . S
C6796 C6797 1.377 . S
C6797 H6781 0.930 . S
C6797 C6796 1.377 . S
C6797 C6798 1.379 . S
C6798 H6782 0.931 . S
C6798 C6792 1.383 . S
C6798 C6797 1.379 . S
H6799 C6793 0.959 . S
H6800 C6793 0.961 . S
H6801 C6793 0.960 . S
H6802 C6794 0.930 . S
H6803 C6795 0.929 . S
H6804 C6812 0.929 . S
H6805 C6814 0.930 . S
H6806 C6816 0.930 . S
H6807 C6819 0.929 . S
H6808 C6822 0.930 . S
H6809 C6824 0.960 . S
H6810 C6824 0.960 . S
H6811 C6824 0.960 . S
C6812 H6804 0.929 . S
C6812 C6813 1.377 . S
C6812 C6814 1.384 . S
C6813 C6812 1.377 . S
C6813 C6819 1.390 . S
C6814 H6805 0.930 . S
C6814 C6812 1.384 . S
C6814 C6815 1.372 . S
C6815 C6814 1.372 . S
C6815 C6816 1.400 . S
C6815 C6820 1.490 . S
C6816 H6806 0.930 . S
C6816 C6815 1.400 . S
C6816 C6819 1.386 . S
H6817 C6833 0.930 . S
H6818 C6834 0.931 . S
C6819 H6807 0.929 . S
C6819 C6813 1.390 . S
C6819 C6816 1.386 . S
C6820 C6815 1.490 . S
C6820 C6822 1.395 . S
C6820 C6823 1.403 . S
H6821 C6827 0.930 . S
C6822 H6808 0.930 . S
C6822 C6820 1.395 . S
C6822 C6825 1.403 . S
C6823 C6820 1.403 . S
C6823 C6824 1.524 . S
C6823 C6827 1.400 . S
C6824 H6809 0.960 . S
C6824 H6810 0.960 . S
C6824 H6811 0.960 . S
C6824 C6823 1.524 . S
C6825 C6822 1.403 . S
C6825 C6826 1.392 . S
C6825 C6829 1.495 . S
C6826 C6825 1.392 . S
C6826 C6827 1.385 . S
C6826 C6828 1.478 . S
C6827 H6821 0.930 . S
C6827 C6823 1.400 . S
C6827 C6826 1.385 . S
C6828 C6826 1.478 . S
C6828 C6830 1.381 . S
C6828 C6834 1.383 . S
C6829 C6825 1.495 . S
C6829 H6835 0.959 . S
C6829 H6836 0.961 . S
C6829 H6837 0.960 . S
C6830 C6828 1.381 . S
C6830 C6831 1.394 . S
C6830 H6838 0.930 . S
C6831 C6830 1.394 . S
C6831 C6832 1.383 . S
C6831 H6839 0.929 . S
C6832 C6831 1.383 . S
C6832 C6833 1.377 . S
C6833 H6817 0.930 . S
C6833 C6832 1.377 . S
C6833 C6834 1.379 . S
C6834 H6818 0.931 . S
C6834 C6828 1.383 . S
C6834 C6833 1.379 . S
H6835 C6829 0.959 . S
H6836 C6829 0.961 . S
H6837 C6829 0.960 . S
H6838 C6830 0.930 . S
H6839 C6831 0.929 . S
H6840 C6848 0.929 . S
H6841 C6850 0.930 . S
H6842 C6852 0.930 . S
H6843 C6855 0.929 . S
H6844 C6858 0.930 . S
H6845 C6860 0.960 . S
H6846 C6860 0.960 . S
H6847 C6860 0.960 . S
C6848 H6840 0.929 . S
C6848 C6849 1.377 . S
C6848 C6850 1.384 . S
C6849 C6848 1.377 . S
C6849 C6855 1.390 . S
C6850 H6841 0.930 . S
C6850 C6848 1.384 . S
C6850 C6851 1.372 . S
C6851 C6850 1.372 . S
C6851 C6852 1.400 . S
C6851 C6856 1.490 . S
C6852 H6842 0.930 . S
C6852 C6851 1.400 . S
C6852 C6855 1.386 . S
H6853 C6869 0.930 . S
H6854 C6870 0.931 . S
C6855 H6843 0.929 . S
C6855 C6849 1.390 . S
C6855 C6852 1.386 . S
C6856 C6851 1.490 . S
C6856 C6858 1.395 . S
C6856 C6859 1.403 . S
H6857 C6863 0.930 . S
C6858 H6844 0.930 . S
C6858 C6856 1.395 . S
C6858 C6861 1.403 . S
C6859 C6856 1.403 . S
C6859 C6860 1.524 . S
C6859 C6863 1.400 . S
C6860 H6845 0.960 . S
C6860 H6846 0.960 . S
C6860 H6847 0.960 . S
C6860 C6859 1.524 . S
C6861 C6858 1.403 . S
C6861 C6862 1.392 . S
C6861 C6865 1.495 . S
C6862 C6861 1.392 . S
C6862 C6863 1.385 . S
C6862 C6864 1.478 . S
C6863 H6857 0.930 . S
C6863 C6859 1.400 . S
C6863 C6862 1.385 . S
C6864 C6862 1.478 . S
C6864 C6866 1.381 . S
C6864 C6870 1.383 . S
C6865 C6861 1.495 . S
C6865 H6871 0.959 . S
C6865 H6872 0.961 . S
C6865 H6873 0.960 . S
C6866 C6864 1.381 . S
C6866 C6867 1.394 . S
C6866 H6874 0.930 . S
C6867 C6866 1.394 . S
C6867 C6868 1.383 . S
C6867 H6875 0.929 . S
C6868 C6867 1.383 . S
C6868 C6869 1.377 . S
C6869 H6853 0.930 . S
C6869 C6868 1.377 . S
C6869 C6870 1.379 . S
C6870 H6854 0.931 . S
C6870 C6864 1.383 . S
C6870 C6869 1.379 . S
H6871 C6865 0.959 . S
H6872 C6865 0.961 . S
H6873 C6865 0.960 . S
H6874 C6866 0.930 . S
H6875 C6867 0.929 . S
H6876 C6884 0.929 . S
H6877 C6886 0.930 . S
H6878 C6888 0.930 . S
H6879 C6891 0.929 . S
H6880 C6894 0.930 . S
H6881 C6896 0.960 . S
H6882 C6896 0.960 . S
H6883 C6896 0.960 . S
C6884 H6876 0.929 . S
C6884 C6885 1.377 . S
C6884 C6886 1.384 . S
C6885 C6884 1.377 . S
C6885 C6891 1.390 . S
C6886 H6877 0.930 . S
C6886 C6884 1.384 . S
C6886 C6887 1.372 . S
C6887 C6886 1.372 . S
C6887 C6888 1.400 . S
C6887 C6892 1.490 . S
C6888 H6878 0.930 . S
C6888 C6887 1.400 . S
C6888 C6891 1.386 . S
H6889 C6905 0.930 . S
H6890 C6906 0.931 . S
C6891 H6879 0.929 . S
C6891 C6885 1.390 . S
C6891 C6888 1.386 . S
C6892 C6887 1.490 . S
C6892 C6894 1.395 . S
C6892 C6895 1.403 . S
H6893 C6899 0.930 . S
C6894 H6880 0.930 . S
C6894 C6892 1.395 . S
C6894 C6897 1.403 . S
C6895 C6892 1.403 . S
C6895 C6896 1.524 . S
C6895 C6899 1.400 . S
C6896 H6881 0.960 . S
C6896 H6882 0.960 . S
C6896 H6883 0.960 . S
C6896 C6895 1.524 . S
C6897 C6894 1.403 . S
C6897 C6898 1.392 . S
C6897 C6901 1.495 . S
C6898 C6897 1.392 . S
C6898 C6899 1.385 . S
C6898 C6900 1.478 . S
C6899 H6893 0.930 . S
C6899 C6895 1.400 . S
C6899 C6898 1.385 . S
C6900 C6898 1.478 . S
C6900 C6902 1.381 . S
C6900 C6906 1.383 . S
C6901 C6897 1.495 . S
C6901 H6907 0.959 . S
C6901 H6908 0.961 . S
C6901 H6909 0.960 . S
C6902 C6900 1.381 . S
C6902 C6903 1.394 . S
C6902 H6910 0.930 . S
C6903 C6902 1.394 . S
C6903 C6904 1.383 . S
C6903 H6911 0.929 . S
C6904 C6903 1.383 . S
C6904 C6905 1.377 . S
C6905 H6889 0.930 . S
C6905 C6904 1.377 . S
C6905 C6906 1.379 . S
C6906 H6890 0.931 . S
C6906 C6900 1.383 . S
C6906 C6905 1.379 . S
H6907 C6901 0.959 . S
H6908 C6901 0.961 . S
H6909 C6901 0.960 . S
H6910 C6902 0.930 . S
H6911 C6903 0.929 . S
H6912 C6920 0.929 . S
H6913 C6922 0.930 . S
H6914 C6924 0.930 . S
H6915 C6927 0.929 . S
H6916 C6930 0.930 . S
H6917 C6932 0.960 . S
H6918 C6932 0.960 . S
H6919 C6932 0.960 . S
C6920 H6912 0.929 . S
C6920 C6921 1.377 . S
C6920 C6922 1.384 . S
C6921 C6920 1.377 . S
C6921 C6927 1.390 . S
C6922 H6913 0.930 . S
C6922 C6920 1.384 . S
C6922 C6923 1.372 . S
C6923 C6922 1.372 . S
C6923 C6924 1.400 . S
C6923 C6928 1.490 . S
C6924 H6914 0.930 . S
C6924 C6923 1.400 . S
C6924 C6927 1.386 . S
H6925 C6941 0.930 . S
H6926 C6942 0.931 . S
C6927 H6915 0.929 . S
C6927 C6921 1.390 . S
C6927 C6924 1.386 . S
C6928 C6923 1.490 . S
C6928 C6930 1.395 . S
C6928 C6931 1.403 . S
H6929 C6935 0.930 . S
C6930 H6916 0.930 . S
C6930 C6928 1.395 . S
C6930 C6933 1.403 . S
C6931 C6928 1.403 . S
C6931 C6932 1.524 . S
C6931 C6935 1.400 . S
C6932 H6917 0.960 . S
C6932 H6918 0.960 . S
C6932 H6919 0.960 . S
C6932 C6931 1.524 . S
C6933 C6930 1.403 . S
C6933 C6934 1.392 . S
C6933 C6937 1.495 . S
C6934 C6933 1.392 . S
C6934 C6935 1.385 . S
C6934 C6936 1.478 . S
C6935 H6929 0.930 . S
C6935 C6931 1.400 . S
C6935 C6934 1.385 . S
C6936 C6934 1.478 . S
C6936 C6938 1.381 . S
C6936 C6942 1.383 . S
C6937 C6933 1.495 . S
C6937 H6943 0.959 . S
C6937 H6944 0.961 . S
C6937 H6945 0.960 . S
C6938 C6936 1.381 . S
C6938 C6939 1.394 . S
C6938 H6946 0.930 . S
C6939 C6938 1.394 . S
C6939 C6940 1.383 . S
C6939 H6947 0.929 . S
C6940 C6939 1.383 . S
C6940 C6941 1.377 . S
C6941 H6925 0.930 . S
C6941 C6940 1.377 . S
C6941 C6942 1.379 . S
C6942 H6926 0.931 . S
C6942 C6936 1.383 . S
C6942 C6941 1.379 . S
H6943 C6937 0.959 . S
H6944 C6937 0.961 . S
H6945 C6937 0.960 . S
H6946 C6938 0.930 . S
H6947 C6939 0.929 . S
H6948 C6956 0.929 . S
H6949 C6958 0.930 . S
H6950 C6960 0.930 . S
H6951 C6963 0.929 . S
H6952 C6966 0.930 . S
H6953 C6968 0.960 . S
H6954 C6968 0.960 . S
H6955 C6968 0.960 . S
C6956 H6948 0.929 . S
C6956 C6957 1.377 . S
C6956 C6958 1.384 . S
C6957 C6956 1.377 . S
C6957 C6963 1.390 . S
C6958 H6949 0.930 . S
C6958 C6956 1.384 . S
C6958 C6959 1.372 . S
C6959 C6958 1.372 . S
C6959 C6960 1.400 . S
C6959 C6964 1.490 . S
C6960 H6950 0.930 . S
C6960 C6959 1.400 . S
C6960 C6963 1.386 . S
H6961 C6977 0.930 . S
H6962 C6978 0.931 . S
C6963 H6951 0.929 . S
C6963 C6957 1.390 . S
C6963 C6960 1.386 . S
C6964 C6959 1.490 . S
C6964 C6966 1.395 . S
C6964 C6967 1.403 . S
H6965 C6971 0.930 . S
C6966 H6952 0.930 . S
C6966 C6964 1.395 . S
C6966 C6969 1.403 . S
C6967 C6964 1.403 . S
C6967 C6968 1.524 . S
C6967 C6971 1.400 . S
C6968 H6953 0.960 . S
C6968 H6954 0.960 . S
C6968 H6955 0.960 . S
C6968 C6967 1.524 . S
C6969 C6966 1.403 . S
C6969 C6970 1.392 . S
C6969 C6973 1.495 . S
C6970 C6969 1.392 . S
C6970 C6971 1.385 . S
C6970 C6972 1.478 . S
C6971 H6965 0.930 . S
C6971 C6967 1.400 . S
C6971 C6970 1.385 . S
C6972 C6970 1.478 . S
C6972 C6974 1.381 . S
C6972 C6978 1.383 . S
C6973 C6969 1.495 . S
C6973 H6979 0.959 . S
C6973 H6980 0.961 . S
C6973 H6981 0.960 . S
C6974 C6972 1.381 . S
C6974 C6975 1.394 . S
C6974 H6982 0.930 . S
C6975 C6974 1.394 . S
C6975 C6976 1.383 . S
C6975 H6983 0.929 . S
C6976 C6975 1.383 . S
C6976 C6977 1.377 . S
C6977 H6961 0.930 . S
C6977 C6976 1.377 . S
C6977 C6978 1.379 . S
C6978 H6962 0.931 . S
C6978 C6972 1.383 . S
C6978 C6977 1.379 . S
H6979 C6973 0.959 . S
H6980 C6973 0.961 . S
H6981 C6973 0.960 . S
H6982 C6974 0.930 . S
H6983 C6975 0.929 . S
H6984 C6992 0.929 . S
H6985 C6994 0.930 . S
H6986 C6996 0.930 . S
H6987 C6999 0.929 . S
H6988 C7002 0.930 . S
H6989 C7004 0.960 . S
H6990 C7004 0.960 . S
H6991 C7004 0.960 . S
C6992 H6984 0.929 . S
C6992 C6993 1.377 . S
C6992 C6994 1.384 . S
C6993 C6992 1.377 . S
C6993 C6999 1.390 . S
C6994 H6985 0.930 . S
C6994 C6992 1.384 . S
C6994 C6995 1.372 . S
C6995 C6994 1.372 . S
C6995 C6996 1.400 . S
C6995 C7000 1.490 . S
C6996 H6986 0.930 . S
C6996 C6995 1.400 . S
C6996 C6999 1.386 . S
H6997 C7013 0.930 . S
H6998 C7014 0.931 . S
C6999 H6987 0.929 . S
C6999 C6993 1.390 . S
C6999 C6996 1.386 . S
C7000 C6995 1.490 . S
C7000 C7002 1.395 . S
C7000 C7003 1.403 . S
H7001 C7007 0.930 . S
C7002 H6988 0.930 . S
C7002 C7000 1.395 . S
C7002 C7005 1.403 . S
C7003 C7000 1.403 . S
C7003 C7004 1.524 . S
C7003 C7007 1.400 . S
C7004 H6989 0.960 . S
C7004 H6990 0.960 . S
C7004 H6991 0.960 . S
C7004 C7003 1.524 . S
C7005 C7002 1.403 . S
C7005 C7006 1.392 . S
C7005 C7009 1.495 . S
C7006 C7005 1.392 . S
C7006 C7007 1.385 . S
C7006 C7008 1.478 . S
C7007 H7001 0.930 . S
C7007 C7003 1.400 . S
C7007 C7006 1.385 . S
C7008 C7006 1.478 . S
C7008 C7010 1.381 . S
C7008 C7014 1.383 . S
C7009 C7005 1.495 . S
C7009 H7015 0.959 . S
C7009 H7016 0.961 . S
C7009 H7017 0.960 . S
C7010 C7008 1.381 . S
C7010 C7011 1.394 . S
C7010 H7018 0.930 . S
C7011 C7010 1.394 . S
C7011 C7012 1.383 . S
C7011 H7019 0.929 . S
C7012 C7011 1.383 . S
C7012 C7013 1.377 . S
C7013 H6997 0.930 . S
C7013 C7012 1.377 . S
C7013 C7014 1.379 . S
C7014 H6998 0.931 . S
C7014 C7008 1.383 . S
C7014 C7013 1.379 . S
H7015 C7009 0.959 . S
H7016 C7009 0.961 . S
H7017 C7009 0.960 . S
H7018 C7010 0.930 . S
H7019 C7011 0.929 . S
H7020 C7028 0.929 . S
H7021 C7030 0.930 . S
H7022 C7032 0.930 . S
H7023 C7035 0.929 . S
H7024 C7038 0.930 . S
H7025 C7040 0.960 . S
H7026 C7040 0.960 . S
H7027 C7040 0.960 . S
C7028 H7020 0.929 . S
C7028 C7029 1.377 . S
C7028 C7030 1.384 . S
C7029 C7028 1.377 . S
C7029 C7035 1.390 . S
C7030 H7021 0.930 . S
C7030 C7028 1.384 . S
C7030 C7031 1.372 . S
C7031 C7030 1.372 . S
C7031 C7032 1.400 . S
C7031 C7036 1.490 . S
C7032 H7022 0.930 . S
C7032 C7031 1.400 . S
C7032 C7035 1.386 . S
H7033 C7049 0.930 . S
H7034 C7050 0.931 . S
C7035 H7023 0.929 . S
C7035 C7029 1.390 . S
C7035 C7032 1.386 . S
C7036 C7031 1.490 . S
C7036 C7038 1.395 . S
C7036 C7039 1.403 . S
H7037 C7043 0.930 . S
C7038 H7024 0.930 . S
C7038 C7036 1.395 . S
C7038 C7041 1.403 . S
C7039 C7036 1.403 . S
C7039 C7040 1.524 . S
C7039 C7043 1.400 . S
C7040 H7025 0.960 . S
C7040 H7026 0.960 . S
C7040 H7027 0.960 . S
C7040 C7039 1.524 . S
C7041 C7038 1.403 . S
C7041 C7042 1.392 . S
C7041 C7045 1.495 . S
C7042 C7041 1.392 . S
C7042 C7043 1.385 . S
C7042 C7044 1.478 . S
C7043 H7037 0.930 . S
C7043 C7039 1.400 . S
C7043 C7042 1.385 . S
C7044 C7042 1.478 . S
C7044 C7046 1.381 . S
C7044 C7050 1.383 . S
C7045 C7041 1.495 . S
C7045 H7051 0.959 . S
C7045 H7052 0.961 . S
C7045 H7053 0.960 . S
C7046 C7044 1.381 . S
C7046 C7047 1.394 . S
C7046 H7054 0.930 . S
C7047 C7046 1.394 . S
C7047 C7048 1.383 . S
C7047 H7055 0.929 . S
C7048 C7047 1.383 . S
C7048 C7049 1.377 . S
C7049 H7033 0.930 . S
C7049 C7048 1.377 . S
C7049 C7050 1.379 . S
C7050 H7034 0.931 . S
C7050 C7044 1.383 . S
C7050 C7049 1.379 . S
H7051 C7045 0.959 . S
H7052 C7045 0.961 . S
H7053 C7045 0.960 . S
H7054 C7046 0.930 . S
H7055 C7047 0.929 . S
H7056 C7064 0.929 . S
H7057 C7066 0.930 . S
H7058 C7068 0.930 . S
H7059 C7071 0.929 . S
H7060 C7074 0.930 . S
H7061 C7076 0.960 . S
H7062 C7076 0.960 . S
H7063 C7076 0.960 . S
C7064 H7056 0.929 . S
C7064 C7065 1.377 . S
C7064 C7066 1.384 . S
C7065 C7064 1.377 . S
C7065 C7071 1.390 . S
C7066 H7057 0.930 . S
C7066 C7064 1.384 . S
C7066 C7067 1.372 . S
C7067 C7066 1.372 . S
C7067 C7068 1.400 . S
C7067 C7072 1.490 . S
C7068 H7058 0.930 . S
C7068 C7067 1.400 . S
C7068 C7071 1.386 . S
H7069 C7085 0.930 . S
H7070 C7086 0.931 . S
C7071 H7059 0.929 . S
C7071 C7065 1.390 . S
C7071 C7068 1.386 . S
C7072 C7067 1.490 . S
C7072 C7074 1.395 . S
C7072 C7075 1.403 . S
H7073 C7079 0.930 . S
C7074 H7060 0.930 . S
C7074 C7072 1.395 . S
C7074 C7077 1.403 . S
C7075 C7072 1.403 . S
C7075 C7076 1.524 . S
C7075 C7079 1.400 . S
C7076 H7061 0.960 . S
C7076 H7062 0.960 . S
C7076 H7063 0.960 . S
C7076 C7075 1.524 . S
C7077 C7074 1.403 . S
C7077 C7078 1.392 . S
C7077 C7081 1.495 . S
C7078 C7077 1.392 . S
C7078 C7079 1.385 . S
C7078 C7080 1.478 . S
C7079 H7073 0.930 . S
C7079 C7075 1.400 . S
C7079 C7078 1.385 . S
C7080 C7078 1.478 . S
C7080 C7082 1.381 . S
C7080 C7086 1.383 . S
C7081 C7077 1.495 . S
C7081 H7087 0.959 . S
C7081 H7088 0.961 . S
C7081 H7089 0.960 . S
C7082 C7080 1.381 . S
C7082 C7083 1.394 . S
C7082 H7090 0.930 . S
C7083 C7082 1.394 . S
C7083 C7084 1.383 . S
C7083 H7091 0.929 . S
C7084 C7083 1.383 . S
C7084 C7085 1.377 . S
C7085 H7069 0.930 . S
C7085 C7084 1.377 . S
C7085 C7086 1.379 . S
C7086 H7070 0.931 . S
C7086 C7080 1.383 . S
C7086 C7085 1.379 . S
H7087 C7081 0.959 . S
H7088 C7081 0.961 . S
H7089 C7081 0.960 . S
H7090 C7082 0.930 . S
H7091 C7083 0.929 . S
H7092 C7100 0.929 . S
H7093 C7102 0.930 . S
H7094 C7104 0.930 . S
H7095 C7107 0.929 . S
H7096 C7110 0.930 . S
H7097 C7112 0.960 . S
H7098 C7112 0.960 . S
H7099 C7112 0.960 . S
C7100 H7092 0.929 . S
C7100 C7101 1.377 . S
C7100 C7102 1.384 . S
C7101 C7100 1.377 . S
C7101 C7107 1.390 . S
C7102 H7093 0.930 . S
C7102 C7100 1.384 . S
C7102 C7103 1.372 . S
C7103 C7102 1.372 . S
C7103 C7104 1.400 . S
C7103 C7108 1.490 . S
C7104 H7094 0.930 . S
C7104 C7103 1.400 . S
C7104 C7107 1.386 . S
H7105 C7121 0.930 . S
H7106 C7122 0.931 . S
C7107 H7095 0.929 . S
C7107 C7101 1.390 . S
C7107 C7104 1.386 . S
C7108 C7103 1.490 . S
C7108 C7110 1.395 . S
C7108 C7111 1.403 . S
H7109 C7115 0.930 . S
C7110 H7096 0.930 . S
C7110 C7108 1.395 . S
C7110 C7113 1.403 . S
C7111 C7108 1.403 . S
C7111 C7112 1.524 . S
C7111 C7115 1.400 . S
C7112 H7097 0.960 . S
C7112 H7098 0.960 . S
C7112 H7099 0.960 . S
C7112 C7111 1.524 . S
C7113 C7110 1.403 . S
C7113 C7114 1.392 . S
C7113 C7117 1.495 . S
C7114 C7113 1.392 . S
C7114 C7115 1.385 . S
C7114 C7116 1.478 . S
C7115 H7109 0.930 . S
C7115 C7111 1.400 . S
C7115 C7114 1.385 . S
C7116 C7114 1.478 . S
C7116 C7118 1.381 . S
C7116 C7122 1.383 . S
C7117 C7113 1.495 . S
C7117 H7123 0.959 . S
C7117 H7124 0.961 . S
C7117 H7125 0.960 . S
C7118 C7116 1.381 . S
C7118 C7119 1.394 . S
C7118 H7126 0.930 . S
C7119 C7118 1.394 . S
C7119 C7120 1.383 . S
C7119 H7127 0.929 . S
C7120 C7119 1.383 . S
C7120 C7121 1.377 . S
C7121 H7105 0.930 . S
C7121 C7120 1.377 . S
C7121 C7122 1.379 . S
C7122 H7106 0.931 . S
C7122 C7116 1.383 . S
C7122 C7121 1.379 . S
H7123 C7117 0.959 . S
H7124 C7117 0.961 . S
H7125 C7117 0.960 . S
H7126 C7118 0.930 . S
H7127 C7119 0.929 . S
H7128 C7136 0.929 . S
H7129 C7138 0.930 . S
H7130 C7140 0.930 . S
H7131 C7143 0.929 . S
H7132 C7146 0.930 . S
H7133 C7148 0.960 . S
H7134 C7148 0.960 . S
H7135 C7148 0.960 . S
C7136 H7128 0.929 . S
C7136 C7137 1.377 . S
C7136 C7138 1.384 . S
C7137 C7136 1.377 . S
C7137 C7143 1.390 . S
C7138 H7129 0.930 . S
C7138 C7136 1.384 . S
C7138 C7139 1.372 . S
C7139 C7138 1.372 . S
C7139 C7140 1.400 . S
C7139 C7144 1.490 . S
C7140 H7130 0.930 . S
C7140 C7139 1.400 . S
C7140 C7143 1.386 . S
H7141 C7157 0.930 . S
H7142 C7158 0.931 . S
C7143 H7131 0.929 . S
C7143 C7137 1.390 . S
C7143 C7140 1.386 . S
C7144 C7139 1.490 . S
C7144 C7146 1.395 . S
C7144 C7147 1.403 . S
H7145 C7151 0.930 . S
C7146 H7132 0.930 . S
C7146 C7144 1.395 . S
C7146 C7149 1.403 . S
C7147 C7144 1.403 . S
C7147 C7148 1.524 . S
C7147 C7151 1.400 . S
C7148 H7133 0.960 . S
C7148 H7134 0.960 . S
C7148 H7135 0.960 . S
C7148 C7147 1.524 . S
C7149 C7146 1.403 . S
C7149 C7150 1.392 . S
C7149 C7153 1.495 . S
C7150 C7149 1.392 . S
C7150 C7151 1.385 . S
C7150 C7152 1.478 . S
C7151 H7145 0.930 . S
C7151 C7147 1.400 . S
C7151 C7150 1.385 . S
C7152 C7150 1.478 . S
C7152 C7154 1.381 . S
C7152 C7158 1.383 . S
C7153 C7149 1.495 . S
C7153 H7159 0.959 . S
C7153 H7160 0.961 . S
C7153 H7161 0.960 . S
C7154 C7152 1.381 . S
C7154 C7155 1.394 . S
C7154 H7162 0.930 . S
C7155 C7154 1.394 . S
C7155 C7156 1.383 . S
C7155 H7163 0.929 . S
C7156 C7155 1.383 . S
C7156 C7157 1.377 . S
C7157 H7141 0.930 . S
C7157 C7156 1.377 . S
C7157 C7158 1.379 . S
C7158 H7142 0.931 . S
C7158 C7152 1.383 . S
C7158 C7157 1.379 . S
H7159 C7153 0.959 . S
H7160 C7153 0.961 . S
H7161 C7153 0.960 . S
H7162 C7154 0.930 . S
H7163 C7155 0.929 . S
H7164 C7172 0.929 . S
H7165 C7174 0.930 . S
H7166 C7176 0.930 . S
H7167 C7179 0.929 . S
H7168 C7182 0.930 . S
H7169 C7184 0.960 . S
H7170 C7184 0.960 . S
H7171 C7184 0.960 . S
C7172 H7164 0.929 . S
C7172 C7173 1.377 . S
C7172 C7174 1.384 . S
C7173 C7172 1.377 . S
C7173 C7179 1.390 . S
C7174 H7165 0.930 . S
C7174 C7172 1.384 . S
C7174 C7175 1.372 . S
C7175 C7174 1.372 . S
C7175 C7176 1.400 . S
C7175 C7180 1.490 . S
C7176 H7166 0.930 . S
C7176 C7175 1.400 . S
C7176 C7179 1.386 . S
H7177 C7193 0.930 . S
H7178 C7194 0.931 . S
C7179 H7167 0.929 . S
C7179 C7173 1.390 . S
C7179 C7176 1.386 . S
C7180 C7175 1.490 . S
C7180 C7182 1.395 . S
C7180 C7183 1.403 . S
H7181 C7187 0.930 . S
C7182 H7168 0.930 . S
C7182 C7180 1.395 . S
C7182 C7185 1.403 . S
C7183 C7180 1.403 . S
C7183 C7184 1.524 . S
C7183 C7187 1.400 . S
C7184 H7169 0.960 . S
C7184 H7170 0.960 . S
C7184 H7171 0.960 . S
C7184 C7183 1.524 . S
C7185 C7182 1.403 . S
C7185 C7186 1.392 . S
C7185 C7189 1.495 . S
C7186 C7185 1.392 . S
C7186 C7187 1.385 . S
C7186 C7188 1.478 . S
C7187 H7181 0.930 . S
C7187 C7183 1.400 . S
C7187 C7186 1.385 . S
C7188 C7186 1.478 . S
C7188 C7190 1.381 . S
C7188 C7194 1.383 . S
C7189 C7185 1.495 . S
C7189 H7195 0.959 . S
C7189 H7196 0.961 . S
C7189 H7197 0.960 . S
C7190 C7188 1.381 . S
C7190 C7191 1.394 . S
C7190 H7198 0.930 . S
C7191 C7190 1.394 . S
C7191 C7192 1.383 . S
C7191 H7199 0.929 . S
C7192 C7191 1.383 . S
C7192 C7193 1.377 . S
C7193 H7177 0.930 . S
C7193 C7192 1.377 . S
C7193 C7194 1.379 . S
C7194 H7178 0.931 . S
C7194 C7188 1.383 . S
C7194 C7193 1.379 . S
H7195 C7189 0.959 . S
H7196 C7189 0.961 . S
H7197 C7189 0.960 . S
H7198 C7190 0.930 . S
H7199 C7191 0.929 . S
H7200 C7208 0.929 . S
H7201 C7210 0.930 . S
H7202 C7212 0.930 . S
H7203 C7215 0.929 . S
H7204 C7218 0.930 . S
H7205 C7220 0.960 . S
H7206 C7220 0.960 . S
H7207 C7220 0.960 . S
C7208 H7200 0.929 . S
C7208 C7209 1.377 . S
C7208 C7210 1.384 . S
C7209 C7208 1.377 . S
C7209 C7215 1.390 . S
C7210 H7201 0.930 . S
C7210 C7208 1.384 . S
C7210 C7211 1.372 . S
C7211 C7210 1.372 . S
C7211 C7212 1.400 . S
C7211 C7216 1.490 . S
C7212 H7202 0.930 . S
C7212 C7211 1.400 . S
C7212 C7215 1.386 . S
H7213 C7229 0.930 . S
H7214 C7230 0.931 . S
C7215 H7203 0.929 . S
C7215 C7209 1.390 . S
C7215 C7212 1.386 . S
C7216 C7211 1.490 . S
C7216 C7218 1.395 . S
C7216 C7219 1.403 . S
H7217 C7223 0.930 . S
C7218 H7204 0.930 . S
C7218 C7216 1.395 . S
C7218 C7221 1.403 . S
C7219 C7216 1.403 . S
C7219 C7220 1.524 . S
C7219 C7223 1.400 . S
C7220 H7205 0.960 . S
C7220 H7206 0.960 . S
C7220 H7207 0.960 . S
C7220 C7219 1.524 . S
C7221 C7218 1.403 . S
C7221 C7222 1.392 . S
C7221 C7225 1.495 . S
C7222 C7221 1.392 . S
C7222 C7223 1.385 . S
C7222 C7224 1.478 . S
C7223 H7217 0.930 . S
C7223 C7219 1.400 . S
C7223 C7222 1.385 . S
C7224 C7222 1.478 . S
C7224 C7226 1.381 . S
C7224 C7230 1.383 . S
C7225 C7221 1.495 . S
C7225 H7231 0.959 . S
C7225 H7232 0.961 . S
C7225 H7233 0.960 . S
C7226 C7224 1.381 . S
C7226 C7227 1.394 . S
C7226 H7234 0.930 . S
C7227 C7226 1.394 . S
C7227 C7228 1.383 . S
C7227 H7235 0.929 . S
C7228 C7227 1.383 . S
C7228 C7229 1.377 . S
C7229 H7213 0.930 . S
C7229 C7228 1.377 . S
C7229 C7230 1.379 . S
C7230 H7214 0.931 . S
C7230 C7224 1.383 . S
C7230 C7229 1.379 . S
H7231 C7225 0.959 . S
H7232 C7225 0.961 . S
H7233 C7225 0.960 . S
H7234 C7226 0.930 . S
H7235 C7227 0.929 . S
H7236 C7244 0.929 . S
H7237 C7246 0.930 . S
H7238 C7248 0.930 . S
H7239 C7251 0.929 . S
H7240 C7254 0.930 . S
H7241 C7256 0.960 . S
H7242 C7256 0.960 . S
H7243 C7256 0.960 . S
C7244 H7236 0.929 . S
C7244 C7245 1.377 . S
C7244 C7246 1.384 . S
C7245 C7244 1.377 . S
C7245 C7251 1.390 . S
C7246 H7237 0.930 . S
C7246 C7244 1.384 . S
C7246 C7247 1.372 . S
C7247 C7246 1.372 . S
C7247 C7248 1.400 . S
C7247 C7252 1.490 . S
C7248 H7238 0.930 . S
C7248 C7247 1.400 . S
C7248 C7251 1.386 . S
H7249 C7265 0.930 . S
H7250 C7266 0.931 . S
C7251 H7239 0.929 . S
C7251 C7245 1.390 . S
C7251 C7248 1.386 . S
C7252 C7247 1.490 . S
C7252 C7254 1.395 . S
C7252 C7255 1.403 . S
H7253 C7259 0.930 . S
C7254 H7240 0.930 . S
C7254 C7252 1.395 . S
C7254 C7257 1.403 . S
C7255 C7252 1.403 . S
C7255 C7256 1.524 . S
C7255 C7259 1.400 . S
C7256 H7241 0.960 . S
C7256 H7242 0.960 . S
C7256 H7243 0.960 . S
C7256 C7255 1.524 . S
C7257 C7254 1.403 . S
C7257 C7258 1.392 . S
C7257 C7261 1.495 . S
C7258 C7257 1.392 . S
C7258 C7259 1.385 . S
C7258 C7260 1.478 . S
C7259 H7253 0.930 . S
C7259 C7255 1.400 . S
C7259 C7258 1.385 . S
C7260 C7258 1.478 . S
C7260 C7262 1.381 . S
C7260 C7266 1.383 . S
C7261 C7257 1.495 . S
C7261 H7267 0.959 . S
C7261 H7268 0.961 . S
C7261 H7269 0.960 . S
C7262 C7260 1.381 . S
C7262 C7263 1.394 . S
C7262 H7270 0.930 . S
C7263 C7262 1.394 . S
C7263 C7264 1.383 . S
C7263 H7271 0.929 . S
C7264 C7263 1.383 . S
C7264 C7265 1.377 . S
C7265 H7249 0.930 . S
C7265 C7264 1.377 . S
C7265 C7266 1.379 . S
C7266 H7250 0.931 . S
C7266 C7260 1.383 . S
C7266 C7265 1.379 . S
H7267 C7261 0.959 . S
H7268 C7261 0.961 . S
H7269 C7261 0.960 . S
H7270 C7262 0.930 . S
H7271 C7263 0.929 . S
H7272 C7280 0.929 . S
H7273 C7282 0.930 . S
H7274 C7284 0.930 . S
H7275 C7287 0.929 . S
H7276 C7290 0.930 . S
H7277 C7292 0.960 . S
H7278 C7292 0.960 . S
H7279 C7292 0.960 . S
C7280 H7272 0.929 . S
C7280 C7281 1.377 . S
C7280 C7282 1.384 . S
C7281 C7280 1.377 . S
C7281 C7287 1.390 . S
C7282 H7273 0.930 . S
C7282 C7280 1.384 . S
C7282 C7283 1.372 . S
C7283 C7282 1.372 . S
C7283 C7284 1.400 . S
C7283 C7288 1.490 . S
C7284 H7274 0.930 . S
C7284 C7283 1.400 . S
C7284 C7287 1.386 . S
H7285 C7301 0.930 . S
H7286 C7302 0.931 . S
C7287 H7275 0.929 . S
C7287 C7281 1.390 . S
C7287 C7284 1.386 . S
C7288 C7283 1.490 . S
C7288 C7290 1.395 . S
C7288 C7291 1.403 . S
H7289 C7295 0.930 . S
C7290 H7276 0.930 . S
C7290 C7288 1.395 . S
C7290 C7293 1.403 . S
C7291 C7288 1.403 . S
C7291 C7292 1.524 . S
C7291 C7295 1.400 . S
C7292 H7277 0.960 . S
C7292 H7278 0.960 . S
C7292 H7279 0.960 . S
C7292 C7291 1.524 . S
C7293 C7290 1.403 . S
C7293 C7294 1.392 . S
C7293 C7297 1.495 . S
C7294 C7293 1.392 . S
C7294 C7295 1.385 . S
C7294 C7296 1.478 . S
C7295 H7289 0.930 . S
C7295 C7291 1.400 . S
C7295 C7294 1.385 . S
C7296 C7294 1.478 . S
C7296 C7298 1.381 . S
C7296 C7302 1.383 . S
C7297 C7293 1.495 . S
C7297 H7303 0.959 . S
C7297 H7304 0.961 . S
C7297 H7305 0.960 . S
C7298 C7296 1.381 . S
C7298 C7299 1.394 . S
C7298 H7306 0.930 . S
C7299 C7298 1.394 . S
C7299 C7300 1.383 . S
C7299 H7307 0.929 . S
C7300 C7299 1.383 . S
C7300 C7301 1.377 . S
C7301 H7285 0.930 . S
C7301 C7300 1.377 . S
C7301 C7302 1.379 . S
C7302 H7286 0.931 . S
C7302 C7296 1.383 . S
C7302 C7301 1.379 . S
H7303 C7297 0.959 . S
H7304 C7297 0.961 . S
H7305 C7297 0.960 . S
H7306 C7298 0.930 . S
H7307 C7299 0.929 . S
H7308 C7316 0.929 . S
H7309 C7318 0.930 . S
H7310 C7320 0.930 . S
H7311 C7323 0.929 . S
H7312 C7326 0.930 . S
H7313 C7328 0.960 . S
H7314 C7328 0.960 . S
H7315 C7328 0.960 . S
C7316 H7308 0.929 . S
C7316 C7317 1.377 . S
C7316 C7318 1.384 . S
C7317 C7316 1.377 . S
C7317 C7323 1.390 . S
C7318 H7309 0.930 . S
C7318 C7316 1.384 . S
C7318 C7319 1.372 . S
C7319 C7318 1.372 . S
C7319 C7320 1.400 . S
C7319 C7324 1.490 . S
C7320 H7310 0.930 . S
C7320 C7319 1.400 . S
C7320 C7323 1.386 . S
H7321 C7337 0.930 . S
H7322 C7338 0.931 . S
C7323 H7311 0.929 . S
C7323 C7317 1.390 . S
C7323 C7320 1.386 . S
C7324 C7319 1.490 . S
C7324 C7326 1.395 . S
C7324 C7327 1.403 . S
H7325 C7331 0.930 . S
C7326 H7312 0.930 . S
C7326 C7324 1.395 . S
C7326 C7329 1.403 . S
C7327 C7324 1.403 . S
C7327 C7328 1.524 . S
C7327 C7331 1.400 . S
C7328 H7313 0.960 . S
C7328 H7314 0.960 . S
C7328 H7315 0.960 . S
C7328 C7327 1.524 . S
C7329 C7326 1.403 . S
C7329 C7330 1.392 . S
C7329 C7333 1.495 . S
C7330 C7329 1.392 . S
C7330 C7331 1.385 . S
C7330 C7332 1.478 . S
C7331 H7325 0.930 . S
C7331 C7327 1.400 . S
C7331 C7330 1.385 . S
C7332 C7330 1.478 . S
C7332 C7334 1.381 . S
C7332 C7338 1.383 . S
C7333 C7329 1.495 . S
C7333 H7339 0.959 . S
C7333 H7340 0.961 . S
C7333 H7341 0.960 . S
C7334 C7332 1.381 . S
C7334 C7335 1.394 . S
C7334 H7342 0.930 . S
C7335 C7334 1.394 . S
C7335 C7336 1.383 . S
C7335 H7343 0.929 . S
C7336 C7335 1.383 . S
C7336 C7337 1.377 . S
C7337 H7321 0.930 . S
C7337 C7336 1.377 . S
C7337 C7338 1.379 . S
C7338 H7322 0.931 . S
C7338 C7332 1.383 . S
C7338 C7337 1.379 . S
H7339 C7333 0.959 . S
H7340 C7333 0.961 . S
H7341 C7333 0.960 . S
H7342 C7334 0.930 . S
H7343 C7335 0.929 . S
H7344 C7352 0.929 . S
H7345 C7354 0.930 . S
H7346 C7356 0.930 . S
H7347 C7359 0.929 . S
H7348 C7362 0.930 . S
H7349 C7364 0.960 . S
H7350 C7364 0.960 . S
H7351 C7364 0.960 . S
C7352 H7344 0.929 . S
C7352 C7353 1.377 . S
C7352 C7354 1.384 . S
C7353 C7352 1.377 . S
C7353 C7359 1.390 . S
C7354 H7345 0.930 . S
C7354 C7352 1.384 . S
C7354 C7355 1.372 . S
C7355 C7354 1.372 . S
C7355 C7356 1.400 . S
C7355 C7360 1.490 . S
C7356 H7346 0.930 . S
C7356 C7355 1.400 . S
C7356 C7359 1.386 . S
H7357 C7373 0.930 . S
H7358 C7374 0.931 . S
C7359 H7347 0.929 . S
C7359 C7353 1.390 . S
C7359 C7356 1.386 . S
C7360 C7355 1.490 . S
C7360 C7362 1.395 . S
C7360 C7363 1.403 . S
H7361 C7367 0.930 . S
C7362 H7348 0.930 . S
C7362 C7360 1.395 . S
C7362 C7365 1.403 . S
C7363 C7360 1.403 . S
C7363 C7364 1.524 . S
C7363 C7367 1.400 . S
C7364 H7349 0.960 . S
C7364 H7350 0.960 . S
C7364 H7351 0.960 . S
C7364 C7363 1.524 . S
C7365 C7362 1.403 . S
C7365 C7366 1.392 . S
C7365 C7369 1.495 . S
C7366 C7365 1.392 . S
C7366 C7367 1.385 . S
C7366 C7368 1.478 . S
C7367 H7361 0.930 . S
C7367 C7363 1.400 . S
C7367 C7366 1.385 . S
C7368 C7366 1.478 . S
C7368 C7370 1.381 . S
C7368 C7374 1.383 . S
C7369 C7365 1.495 . S
C7369 H7375 0.959 . S
C7369 H7376 0.961 . S
C7369 H7377 0.960 . S
C7370 C7368 1.381 . S
C7370 C7371 1.394 . S
C7370 H7378 0.930 . S
C7371 C7370 1.394 . S
C7371 C7372 1.383 . S
C7371 H7379 0.929 . S
C7372 C7371 1.383 . S
C7372 C7373 1.377 . S
C7373 H7357 0.930 . S
C7373 C7372 1.377 . S
C7373 C7374 1.379 . S
C7374 H7358 0.931 . S
C7374 C7368 1.383 . S
C7374 C7373 1.379 . S
H7375 C7369 0.959 . S
H7376 C7369 0.961 . S
H7377 C7369 0.960 . S
H7378 C7370 0.930 . S
H7379 C7371 0.929 . S
H7380 C7388 0.929 . S
H7381 C7390 0.930 . S
H7382 C7392 0.930 . S
H7383 C7395 0.929 . S
H7384 C7398 0.930 . S
H7385 C7400 0.960 . S
H7386 C7400 0.960 . S
H7387 C7400 0.960 . S
C7388 H7380 0.929 . S
C7388 C7389 1.377 . S
C7388 C7390 1.384 . S
C7389 C7388 1.377 . S
C7389 C7395 1.390 . S
C7390 H7381 0.930 . S
C7390 C7388 1.384 . S
C7390 C7391 1.372 . S
C7391 C7390 1.372 . S
C7391 C7392 1.400 . S
C7391 C7396 1.490 . S
C7392 H7382 0.930 . S
C7392 C7391 1.400 . S
C7392 C7395 1.386 . S
H7393 C7409 0.930 . S
H7394 C7410 0.931 . S
C7395 H7383 0.929 . S
C7395 C7389 1.390 . S
C7395 C7392 1.386 . S
C7396 C7391 1.490 . S
C7396 C7398 1.395 . S
C7396 C7399 1.403 . S
H7397 C7403 0.930 . S
C7398 H7384 0.930 . S
C7398 C7396 1.395 . S
C7398 C7401 1.403 . S
C7399 C7396 1.403 . S
C7399 C7400 1.524 . S
C7399 C7403 1.400 . S
C7400 H7385 0.960 . S
C7400 H7386 0.960 . S
C7400 H7387 0.960 . S
C7400 C7399 1.524 . S
C7401 C7398 1.403 . S
C7401 C7402 1.392 . S
C7401 C7405 1.495 . S
C7402 C7401 1.392 . S
C7402 C7403 1.385 . S
C7402 C7404 1.478 . S
C7403 H7397 0.930 . S
C7403 C7399 1.400 . S
C7403 C7402 1.385 . S
C7404 C7402 1.478 . S
C7404 C7406 1.381 . S
C7404 C7410 1.383 . S
C7405 C7401 1.495 . S
C7405 H7411 0.959 . S
C7405 H7412 0.961 . S
C7405 H7413 0.960 . S
C7406 C7404 1.381 . S
C7406 C7407 1.394 . S
C7406 H7414 0.930 . S
C7407 C7406 1.394 . S
C7407 C7408 1.383 . S
C7407 H7415 0.929 . S
C7408 C7407 1.383 . S
C7408 C7409 1.377 . S
C7409 H7393 0.930 . S
C7409 C7408 1.377 . S
C7409 C7410 1.379 . S
C7410 H7394 0.931 . S
C7410 C7404 1.383 . S
C7410 C7409 1.379 . S
H7411 C7405 0.959 . S
H7412 C7405 0.961 . S
H7413 C7405 0.960 . S
H7414 C7406 0.930 . S
H7415 C7407 0.929 . S
H7416 C7424 0.929 . S
H7417 C7426 0.930 . S
H7418 C7428 0.930 . S
H7419 C7431 0.929 . S
H7420 C7434 0.930 . S
H7421 C7436 0.960 . S
H7422 C7436 0.960 . S
H7423 C7436 0.960 . S
C7424 H7416 0.929 . S
C7424 C7425 1.377 . S
C7424 C7426 1.384 . S
C7425 C7424 1.377 . S
C7425 C7431 1.390 . S
C7426 H7417 0.930 . S
C7426 C7424 1.384 . S
C7426 C7427 1.372 . S
C7427 C7426 1.372 . S
C7427 C7428 1.400 . S
C7427 C7432 1.490 . S
C7428 H7418 0.930 . S
C7428 C7427 1.400 . S
C7428 C7431 1.386 . S
H7429 C7445 0.930 . S
H7430 C7446 0.931 . S
C7431 H7419 0.929 . S
C7431 C7425 1.390 . S
C7431 C7428 1.386 . S
C7432 C7427 1.490 . S
C7432 C7434 1.395 . S
C7432 C7435 1.403 . S
H7433 C7439 0.930 . S
C7434 H7420 0.930 . S
C7434 C7432 1.395 . S
C7434 C7437 1.403 . S
C7435 C7432 1.403 . S
C7435 C7436 1.524 . S
C7435 C7439 1.400 . S
C7436 H7421 0.960 . S
C7436 H7422 0.960 . S
C7436 H7423 0.960 . S
C7436 C7435 1.524 . S
C7437 C7434 1.403 . S
C7437 C7438 1.392 . S
C7437 C7441 1.495 . S
C7438 C7437 1.392 . S
C7438 C7439 1.385 . S
C7438 C7440 1.478 . S
C7439 H7433 0.930 . S
C7439 C7435 1.400 . S
C7439 C7438 1.385 . S
C7440 C7438 1.478 . S
C7440 C7442 1.381 . S
C7440 C7446 1.383 . S
C7441 C7437 1.495 . S
C7441 H7447 0.959 . S
C7441 H7448 0.961 . S
C7441 H7449 0.960 . S
C7442 C7440 1.381 . S
C7442 C7443 1.394 . S
C7442 H7450 0.930 . S
C7443 C7442 1.394 . S
C7443 C7444 1.383 . S
C7443 H7451 0.929 . S
C7444 C7443 1.383 . S
C7444 C7445 1.377 . S
C7445 H7429 0.930 . S
C7445 C7444 1.377 . S
C7445 C7446 1.379 . S
C7446 H7430 0.931 . S
C7446 C7440 1.383 . S
C7446 C7445 1.379 . S
H7447 C7441 0.959 . S
H7448 C7441 0.961 . S
H7449 C7441 0.960 . S
H7450 C7442 0.930 . S
H7451 C7443 0.929 . S
H7452 C7460 0.929 . S
H7453 C7462 0.930 . S
H7454 C7464 0.930 . S
H7455 C7467 0.929 . S
H7456 C7470 0.930 . S
H7457 C7472 0.960 . S
H7458 C7472 0.960 . S
H7459 C7472 0.960 . S
C7460 H7452 0.929 . S
C7460 C7461 1.377 . S
C7460 C7462 1.384 . S
C7461 C7460 1.377 . S
C7461 C7467 1.390 . S
C7462 H7453 0.930 . S
C7462 C7460 1.384 . S
C7462 C7463 1.372 . S
C7463 C7462 1.372 . S
C7463 C7464 1.400 . S
C7463 C7468 1.490 . S
C7464 H7454 0.930 . S
C7464 C7463 1.400 . S
C7464 C7467 1.386 . S
H7465 C7481 0.930 . S
H7466 C7482 0.931 . S
C7467 H7455 0.929 . S
C7467 C7461 1.390 . S
C7467 C7464 1.386 . S
C7468 C7463 1.490 . S
C7468 C7470 1.395 . S
C7468 C7471 1.403 . S
H7469 C7475 0.930 . S
C7470 H7456 0.930 . S
C7470 C7468 1.395 . S
C7470 C7473 1.403 . S
C7471 C7468 1.403 . S
C7471 C7472 1.524 . S
C7471 C7475 1.400 . S
C7472 H7457 0.960 . S
C7472 H7458 0.960 . S
C7472 H7459 0.960 . S
C7472 C7471 1.524 . S
C7473 C7470 1.403 . S
C7473 C7474 1.392 . S
C7473 C7477 1.495 . S
C7474 C7473 1.392 . S
C7474 C7475 1.385 . S
C7474 C7476 1.478 . S
C7475 H7469 0.930 . S
C7475 C7471 1.400 . S
C7475 C7474 1.385 . S
C7476 C7474 1.478 . S
C7476 C7478 1.381 . S
C7476 C7482 1.383 . S
C7477 C7473 1.495 . S
C7477 H7483 0.959 . S
C7477 H7484 0.961 . S
C7477 H7485 0.960 . S
C7478 C7476 1.381 . S
C7478 C7479 1.394 . S
C7478 H7486 0.930 . S
C7479 C7478 1.394 . S
C7479 C7480 1.383 . S
C7479 H7487 0.929 . S
C7480 C7479 1.383 . S
C7480 C7481 1.377 . S
C7481 H7465 0.930 . S
C7481 C7480 1.377 . S
C7481 C7482 1.379 . S
C7482 H7466 0.931 . S
C7482 C7476 1.383 . S
C7482 C7481 1.379 . S
H7483 C7477 0.959 . S
H7484 C7477 0.961 . S
H7485 C7477 0.960 . S
H7486 C7478 0.930 . S
H7487 C7479 0.929 . S
H7488 C7496 0.929 . S
H7489 C7498 0.930 . S
H7490 C7500 0.930 . S
H7491 C7503 0.929 . S
H7492 C7506 0.930 . S
H7493 C7508 0.960 . S
H7494 C7508 0.960 . S
H7495 C7508 0.960 . S
C7496 H7488 0.929 . S
C7496 C7497 1.377 . S
C7496 C7498 1.384 . S
C7497 C7496 1.377 . S
C7497 C7503 1.390 . S
C7498 H7489 0.930 . S
C7498 C7496 1.384 . S
C7498 C7499 1.372 . S
C7499 C7498 1.372 . S
C7499 C7500 1.400 . S
C7499 C7504 1.490 . S
C7500 H7490 0.930 . S
C7500 C7499 1.400 . S
C7500 C7503 1.386 . S
H7501 C7517 0.930 . S
H7502 C7518 0.931 . S
C7503 H7491 0.929 . S
C7503 C7497 1.390 . S
C7503 C7500 1.386 . S
C7504 C7499 1.490 . S
C7504 C7506 1.395 . S
C7504 C7507 1.403 . S
H7505 C7511 0.930 . S
C7506 H7492 0.930 . S
C7506 C7504 1.395 . S
C7506 C7509 1.403 . S
C7507 C7504 1.403 . S
C7507 C7508 1.524 . S
C7507 C7511 1.400 . S
C7508 H7493 0.960 . S
C7508 H7494 0.960 . S
C7508 H7495 0.960 . S
C7508 C7507 1.524 . S
C7509 C7506 1.403 . S
C7509 C7510 1.392 . S
C7509 C7513 1.495 . S
C7510 C7509 1.392 . S
C7510 C7511 1.385 . S
C7510 C7512 1.478 . S
C7511 H7505 0.930 . S
C7511 C7507 1.400 . S
C7511 C7510 1.385 . S
C7512 C7510 1.478 . S
C7512 C7514 1.381 . S
C7512 C7518 1.383 . S
C7513 C7509 1.495 . S
C7513 H7519 0.959 . S
C7513 H7520 0.961 . S
C7513 H7521 0.960 . S
C7514 C7512 1.381 . S
C7514 C7515 1.394 . S
C7514 H7522 0.930 . S
C7515 C7514 1.394 . S
C7515 C7516 1.383 . S
C7515 H7523 0.929 . S
C7516 C7515 1.383 . S
C7516 C7517 1.377 . S
C7517 H7501 0.930 . S
C7517 C7516 1.377 . S
C7517 C7518 1.379 . S
C7518 H7502 0.931 . S
C7518 C7512 1.383 . S
C7518 C7517 1.379 . S
H7519 C7513 0.959 . S
H7520 C7513 0.961 . S
H7521 C7513 0.960 . S
H7522 C7514 0.930 . S
H7523 C7515 0.929 . S
H7524 C7532 0.929 . S
H7525 C7534 0.930 . S
H7526 C7536 0.930 . S
H7527 C7539 0.929 . S
H7528 C7542 0.930 . S
H7529 C7544 0.960 . S
H7530 C7544 0.960 . S
H7531 C7544 0.960 . S
C7532 H7524 0.929 . S
C7532 C7533 1.377 . S
C7532 C7534 1.384 . S
C7533 C7532 1.377 . S
C7533 C7539 1.390 . S
C7534 H7525 0.930 . S
C7534 C7532 1.384 . S
C7534 C7535 1.372 . S
C7535 C7534 1.372 . S
C7535 C7536 1.400 . S
C7535 C7540 1.490 . S
C7536 H7526 0.930 . S
C7536 C7535 1.400 . S
C7536 C7539 1.386 . S
H7537 C7553 0.930 . S
H7538 C7554 0.931 . S
C7539 H7527 0.929 . S
C7539 C7533 1.390 . S
C7539 C7536 1.386 . S
C7540 C7535 1.490 . S
C7540 C7542 1.395 . S
C7540 C7543 1.403 . S
H7541 C7547 0.930 . S
C7542 H7528 0.930 . S
C7542 C7540 1.395 . S
C7542 C7545 1.403 . S
C7543 C7540 1.403 . S
C7543 C7544 1.524 . S
C7543 C7547 1.400 . S
C7544 H7529 0.960 . S
C7544 H7530 0.960 . S
C7544 H7531 0.960 . S
C7544 C7543 1.524 . S
C7545 C7542 1.403 . S
C7545 C7546 1.392 . S
C7545 C7549 1.495 . S
C7546 C7545 1.392 . S
C7546 C7547 1.385 . S
C7546 C7548 1.478 . S
C7547 H7541 0.930 . S
C7547 C7543 1.400 . S
C7547 C7546 1.385 . S
C7548 C7546 1.478 . S
C7548 C7550 1.381 . S
C7548 C7554 1.383 . S
C7549 C7545 1.495 . S
C7549 H7555 0.959 . S
C7549 H7556 0.961 . S
C7549 H7557 0.960 . S
C7550 C7548 1.381 . S
C7550 C7551 1.394 . S
C7550 H7558 0.930 . S
C7551 C7550 1.394 . S
C7551 C7552 1.383 . S
C7551 H7559 0.929 . S
C7552 C7551 1.383 . S
C7552 C7553 1.377 . S
C7553 H7537 0.930 . S
C7553 C7552 1.377 . S
C7553 C7554 1.379 . S
C7554 H7538 0.931 . S
C7554 C7548 1.383 . S
C7554 C7553 1.379 . S
H7555 C7549 0.959 . S
H7556 C7549 0.961 . S
H7557 C7549 0.960 . S
H7558 C7550 0.930 . S
H7559 C7551 0.929 . S
H7560 C7568 0.929 . S
H7561 C7570 0.930 . S
H7562 C7572 0.930 . S
H7563 C7575 0.929 . S
H7564 C7578 0.930 . S
H7565 C7580 0.960 . S
H7566 C7580 0.960 . S
H7567 C7580 0.960 . S
C7568 H7560 0.929 . S
C7568 C7569 1.377 . S
C7568 C7570 1.384 . S
C7569 C7568 1.377 . S
C7569 C7575 1.390 . S
C7570 H7561 0.930 . S
C7570 C7568 1.384 . S
C7570 C7571 1.372 . S
C7571 C7570 1.372 . S
C7571 C7572 1.400 . S
C7571 C7576 1.490 . S
C7572 H7562 0.930 . S
C7572 C7571 1.400 . S
C7572 C7575 1.386 . S
H7573 C7589 0.930 . S
H7574 C7590 0.931 . S
C7575 H7563 0.929 . S
C7575 C7569 1.390 . S
C7575 C7572 1.386 . S
C7576 C7571 1.490 . S
C7576 C7578 1.395 . S
C7576 C7579 1.403 . S
H7577 C7583 0.930 . S
C7578 H7564 0.930 . S
C7578 C7576 1.395 . S
C7578 C7581 1.403 . S
C7579 C7576 1.403 . S
C7579 C7580 1.524 . S
C7579 C7583 1.400 . S
C7580 H7565 0.960 . S
C7580 H7566 0.960 . S
C7580 H7567 0.960 . S
C7580 C7579 1.524 . S
C7581 C7578 1.403 . S
C7581 C7582 1.392 . S
C7581 C7585 1.495 . S
C7582 C7581 1.392 . S
C7582 C7583 1.385 . S
C7582 C7584 1.478 . S
C7583 H7577 0.930 . S
C7583 C7579 1.400 . S
C7583 C7582 1.385 . S
C7584 C7582 1.478 . S
C7584 C7586 1.381 . S
C7584 C7590 1.383 . S
C7585 C7581 1.495 . S
C7585 H7591 0.959 . S
C7585 H7592 0.961 . S
C7585 H7593 0.960 . S
C7586 C7584 1.381 . S
C7586 C7587 1.394 . S
C7586 H7594 0.930 . S
C7587 C7586 1.394 . S
C7587 C7588 1.383 . S
C7587 H7595 0.929 . S
C7588 C7587 1.383 . S
C7588 C7589 1.377 . S
C7589 H7573 0.930 . S
C7589 C7588 1.377 . S
C7589 C7590 1.379 . S
C7590 H7574 0.931 . S
C7590 C7584 1.383 . S
C7590 C7589 1.379 . S
H7591 C7585 0.959 . S
H7592 C7585 0.961 . S
H7593 C7585 0.960 . S
H7594 C7586 0.930 . S
H7595 C7587 0.929 . S
H7596 C7604 0.929 . S
H7597 C7606 0.930 . S
H7598 C7608 0.930 . S
H7599 C7611 0.929 . S
H7600 C7614 0.930 . S
H7601 C7616 0.960 . S
H7602 C7616 0.960 . S
H7603 C7616 0.960 . S
C7604 H7596 0.929 . S
C7604 C7605 1.377 . S
C7604 C7606 1.384 . S
C7605 C7604 1.377 . S
C7605 C7611 1.390 . S
C7606 H7597 0.930 . S
C7606 C7604 1.384 . S
C7606 C7607 1.372 . S
C7607 C7606 1.372 . S
C7607 C7608 1.400 . S
C7607 C7612 1.490 . S
C7608 H7598 0.930 . S
C7608 C7607 1.400 . S
C7608 C7611 1.386 . S
H7609 C7625 0.930 . S
H7610 C7626 0.931 . S
C7611 H7599 0.929 . S
C7611 C7605 1.390 . S
C7611 C7608 1.386 . S
C7612 C7607 1.490 . S
C7612 C7614 1.395 . S
C7612 C7615 1.403 . S
H7613 C7619 0.930 . S
C7614 H7600 0.930 . S
C7614 C7612 1.395 . S
C7614 C7617 1.403 . S
C7615 C7612 1.403 . S
C7615 C7616 1.524 . S
C7615 C7619 1.400 . S
C7616 H7601 0.960 . S
C7616 H7602 0.960 . S
C7616 H7603 0.960 . S
C7616 C7615 1.524 . S
C7617 C7614 1.403 . S
C7617 C7618 1.392 . S
C7617 C7621 1.495 . S
C7618 C7617 1.392 . S
C7618 C7619 1.385 . S
C7618 C7620 1.478 . S
C7619 H7613 0.930 . S
C7619 C7615 1.400 . S
C7619 C7618 1.385 . S
C7620 C7618 1.478 . S
C7620 C7622 1.381 . S
C7620 C7626 1.383 . S
C7621 C7617 1.495 . S
C7621 H7627 0.959 . S
C7621 H7628 0.961 . S
C7621 H7629 0.960 . S
C7622 C7620 1.381 . S
C7622 C7623 1.394 . S
C7622 H7630 0.930 . S
C7623 C7622 1.394 . S
C7623 C7624 1.383 . S
C7623 H7631 0.929 . S
C7624 C7623 1.383 . S
C7624 C7625 1.377 . S
C7625 H7609 0.930 . S
C7625 C7624 1.377 . S
C7625 C7626 1.379 . S
C7626 H7610 0.931 . S
C7626 C7620 1.383 . S
C7626 C7625 1.379 . S
H7627 C7621 0.959 . S
H7628 C7621 0.961 . S
H7629 C7621 0.960 . S
H7630 C7622 0.930 . S
H7631 C7623 0.929 . S
H7632 C7640 0.929 . S
H7633 C7642 0.930 . S
H7634 C7644 0.930 . S
H7635 C7647 0.929 . S
H7636 C7650 0.930 . S
H7637 C7652 0.960 . S
H7638 C7652 0.960 . S
H7639 C7652 0.960 . S
C7640 H7632 0.929 . S
C7640 C7641 1.377 . S
C7640 C7642 1.384 . S
C7641 C7640 1.377 . S
C7641 C7647 1.390 . S
C7642 H7633 0.930 . S
C7642 C7640 1.384 . S
C7642 C7643 1.372 . S
C7643 C7642 1.372 . S
C7643 C7644 1.400 . S
C7643 C7648 1.490 . S
C7644 H7634 0.930 . S
C7644 C7643 1.400 . S
C7644 C7647 1.386 . S
H7645 C7661 0.930 . S
H7646 C7662 0.931 . S
C7647 H7635 0.929 . S
C7647 C7641 1.390 . S
C7647 C7644 1.386 . S
C7648 C7643 1.490 . S
C7648 C7650 1.395 . S
C7648 C7651 1.403 . S
H7649 C7655 0.930 . S
C7650 H7636 0.930 . S
C7650 C7648 1.395 . S
C7650 C7653 1.403 . S
C7651 C7648 1.403 . S
C7651 C7652 1.524 . S
C7651 C7655 1.400 . S
C7652 H7637 0.960 . S
C7652 H7638 0.960 . S
C7652 H7639 0.960 . S
C7652 C7651 1.524 . S
C7653 C7650 1.403 . S
C7653 C7654 1.392 . S
C7653 C7657 1.495 . S
C7654 C7653 1.392 . S
C7654 C7655 1.385 . S
C7654 C7656 1.478 . S
C7655 H7649 0.930 . S
C7655 C7651 1.400 . S
C7655 C7654 1.385 . S
C7656 C7654 1.478 . S
C7656 C7658 1.381 . S
C7656 C7662 1.383 . S
C7657 C7653 1.495 . S
C7657 H7663 0.959 . S
C7657 H7664 0.961 . S
C7657 H7665 0.960 . S
C7658 C7656 1.381 . S
C7658 C7659 1.394 . S
C7658 H7666 0.930 . S
C7659 C7658 1.394 . S
C7659 C7660 1.383 . S
C7659 H7667 0.929 . S
C7660 C7659 1.383 . S
C7660 C7661 1.377 . S
C7661 H7645 0.930 . S
C7661 C7660 1.377 . S
C7661 C7662 1.379 . S
C7662 H7646 0.931 . S
C7662 C7656 1.383 . S
C7662 C7661 1.379 . S
H7663 C7657 0.959 . S
H7664 C7657 0.961 . S
H7665 C7657 0.960 . S
H7666 C7658 0.930 . S
H7667 C7659 0.929 . S
H7668 C7676 0.929 . S
H7669 C7678 0.930 . S
H7670 C7680 0.930 . S
H7671 C7683 0.929 . S
H7672 C7686 0.930 . S
H7673 C7688 0.960 . S
H7674 C7688 0.960 . S
H7675 C7688 0.960 . S
C7676 H7668 0.929 . S
C7676 C7677 1.377 . S
C7676 C7678 1.384 . S
C7677 C7676 1.377 . S
C7677 C7683 1.390 . S
C7678 H7669 0.930 . S
C7678 C7676 1.384 . S
C7678 C7679 1.372 . S
C7679 C7678 1.372 . S
C7679 C7680 1.400 . S
C7679 C7684 1.490 . S
C7680 H7670 0.930 . S
C7680 C7679 1.400 . S
C7680 C7683 1.386 . S
H7681 C7697 0.930 . S
H7682 C7698 0.931 . S
C7683 H7671 0.929 . S
C7683 C7677 1.390 . S
C7683 C7680 1.386 . S
C7684 C7679 1.490 . S
C7684 C7686 1.395 . S
C7684 C7687 1.403 . S
H7685 C7691 0.930 . S
C7686 H7672 0.930 . S
C7686 C7684 1.395 . S
C7686 C7689 1.403 . S
C7687 C7684 1.403 . S
C7687 C7688 1.524 . S
C7687 C7691 1.400 . S
C7688 H7673 0.960 . S
C7688 H7674 0.960 . S
C7688 H7675 0.960 . S
C7688 C7687 1.524 . S
C7689 C7686 1.403 . S
C7689 C7690 1.392 . S
C7689 C7693 1.495 . S
C7690 C7689 1.392 . S
C7690 C7691 1.385 . S
C7690 C7692 1.478 . S
C7691 H7685 0.930 . S
C7691 C7687 1.400 . S
C7691 C7690 1.385 . S
C7692 C7690 1.478 . S
C7692 C7694 1.381 . S
C7692 C7698 1.383 . S
C7693 C7689 1.495 . S
C7693 H7699 0.959 . S
C7693 H7700 0.961 . S
C7693 H7701 0.960 . S
C7694 C7692 1.381 . S
C7694 C7695 1.394 . S
C7694 H7702 0.930 . S
C7695 C7694 1.394 . S
C7695 C7696 1.383 . S
C7695 H7703 0.929 . S
C7696 C7695 1.383 . S
C7696 C7697 1.377 . S
C7697 H7681 0.930 . S
C7697 C7696 1.377 . S
C7697 C7698 1.379 . S
C7698 H7682 0.931 . S
C7698 C7692 1.383 . S
C7698 C7697 1.379 . S
H7699 C7693 0.959 . S
H7700 C7693 0.961 . S
H7701 C7693 0.960 . S
H7702 C7694 0.930 . S
H7703 C7695 0.929 . S
H7704 C7712 0.929 . S
H7705 C7714 0.930 . S
H7706 C7716 0.930 . S
H7707 C7719 0.929 . S
H7708 C7722 0.930 . S
H7709 C7724 0.960 . S
H7710 C7724 0.960 . S
H7711 C7724 0.960 . S
C7712 H7704 0.929 . S
C7712 C7713 1.377 . S
C7712 C7714 1.384 . S
C7713 C7712 1.377 . S
C7713 C7719 1.390 . S
C7714 H7705 0.930 . S
C7714 C7712 1.384 . S
C7714 C7715 1.372 . S
C7715 C7714 1.372 . S
C7715 C7716 1.400 . S
C7715 C7720 1.490 . S
C7716 H7706 0.930 . S
C7716 C7715 1.400 . S
C7716 C7719 1.386 . S
H7717 C7733 0.930 . S
H7718 C7734 0.931 . S
C7719 H7707 0.929 . S
C7719 C7713 1.390 . S
C7719 C7716 1.386 . S
C7720 C7715 1.490 . S
C7720 C7722 1.395 . S
C7720 C7723 1.403 . S
H7721 C7727 0.930 . S
C7722 H7708 0.930 . S
C7722 C7720 1.395 . S
C7722 C7725 1.403 . S
C7723 C7720 1.403 . S
C7723 C7724 1.524 . S
C7723 C7727 1.400 . S
C7724 H7709 0.960 . S
C7724 H7710 0.960 . S
C7724 H7711 0.960 . S
C7724 C7723 1.524 . S
C7725 C7722 1.403 . S
C7725 C7726 1.392 . S
C7725 C7729 1.495 . S
C7726 C7725 1.392 . S
C7726 C7727 1.385 . S
C7726 C7728 1.478 . S
C7727 H7721 0.930 . S
C7727 C7723 1.400 . S
C7727 C7726 1.385 . S
C7728 C7726 1.478 . S
C7728 C7730 1.381 . S
C7728 C7734 1.383 . S
C7729 C7725 1.495 . S
C7729 H7735 0.959 . S
C7729 H7736 0.961 . S
C7729 H7737 0.960 . S
C7730 C7728 1.381 . S
C7730 C7731 1.394 . S
C7730 H7738 0.930 . S
C7731 C7730 1.394 . S
C7731 C7732 1.383 . S
C7731 H7739 0.929 . S
C7732 C7731 1.383 . S
C7732 C7733 1.377 . S
C7733 H7717 0.930 . S
C7733 C7732 1.377 . S
C7733 C7734 1.379 . S
C7734 H7718 0.931 . S
C7734 C7728 1.383 . S
C7734 C7733 1.379 . S
H7735 C7729 0.959 . S
H7736 C7729 0.961 . S
H7737 C7729 0.960 . S
H7738 C7730 0.930 . S
H7739 C7731 0.929 . S
H7740 C7748 0.929 . S
H7741 C7750 0.930 . S
H7742 C7752 0.930 . S
H7743 C7755 0.929 . S
H7744 C7758 0.930 . S
H7745 C7760 0.960 . S
H7746 C7760 0.960 . S
H7747 C7760 0.960 . S
C7748 H7740 0.929 . S
C7748 C7749 1.377 . S
C7748 C7750 1.384 . S
C7749 C7748 1.377 . S
C7749 C7755 1.390 . S
C7750 H7741 0.930 . S
C7750 C7748 1.384 . S
C7750 C7751 1.372 . S
C7751 C7750 1.372 . S
C7751 C7752 1.400 . S
C7751 C7756 1.490 . S
C7752 H7742 0.930 . S
C7752 C7751 1.400 . S
C7752 C7755 1.386 . S
H7753 C7769 0.930 . S
H7754 C7770 0.931 . S
C7755 H7743 0.929 . S
C7755 C7749 1.390 . S
C7755 C7752 1.386 . S
C7756 C7751 1.490 . S
C7756 C7758 1.395 . S
C7756 C7759 1.403 . S
H7757 C7763 0.930 . S
C7758 H7744 0.930 . S
C7758 C7756 1.395 . S
C7758 C7761 1.403 . S
C7759 C7756 1.403 . S
C7759 C7760 1.524 . S
C7759 C7763 1.400 . S
C7760 H7745 0.960 . S
C7760 H7746 0.960 . S
C7760 H7747 0.960 . S
C7760 C7759 1.524 . S
C7761 C7758 1.403 . S
C7761 C7762 1.392 . S
C7761 C7765 1.495 . S
C7762 C7761 1.392 . S
C7762 C7763 1.385 . S
C7762 C7764 1.478 . S
C7763 H7757 0.930 . S
C7763 C7759 1.400 . S
C7763 C7762 1.385 . S
C7764 C7762 1.478 . S
C7764 C7766 1.381 . S
C7764 C7770 1.383 . S
C7765 C7761 1.495 . S
C7765 H7771 0.959 . S
C7765 H7772 0.961 . S
C7765 H7773 0.960 . S
C7766 C7764 1.381 . S
C7766 C7767 1.394 . S
C7766 H7774 0.930 . S
C7767 C7766 1.394 . S
C7767 C7768 1.383 . S
C7767 H7775 0.929 . S
C7768 C7767 1.383 . S
C7768 C7769 1.377 . S
C7769 H7753 0.930 . S
C7769 C7768 1.377 . S
C7769 C7770 1.379 . S
C7770 H7754 0.931 . S
C7770 C7764 1.383 . S
C7770 C7769 1.379 . S
H7771 C7765 0.959 . S
H7772 C7765 0.961 . S
H7773 C7765 0.960 . S
H7774 C7766 0.930 . S
H7775 C7767 0.929 . S
H7776 C7784 0.929 . S
H7777 C7786 0.930 . S
H7778 C7788 0.930 . S
H7779 C7791 0.929 . S
H7780 C7794 0.930 . S
H7781 C7796 0.960 . S
H7782 C7796 0.960 . S
H7783 C7796 0.960 . S
C7784 H7776 0.929 . S
C7784 C7785 1.377 . S
C7784 C7786 1.384 . S
C7785 C7784 1.377 . S
C7785 C7791 1.390 . S
C7786 H7777 0.930 . S
C7786 C7784 1.384 . S
C7786 C7787 1.372 . S
C7787 C7786 1.372 . S
C7787 C7788 1.400 . S
C7787 C7792 1.490 . S
C7788 H7778 0.930 . S
C7788 C7787 1.400 . S
C7788 C7791 1.386 . S
H7789 C7805 0.930 . S
H7790 C7806 0.931 . S
C7791 H7779 0.929 . S
C7791 C7785 1.390 . S
C7791 C7788 1.386 . S
C7792 C7787 1.490 . S
C7792 C7794 1.395 . S
C7792 C7795 1.403 . S
H7793 C7799 0.930 . S
C7794 H7780 0.930 . S
C7794 C7792 1.395 . S
C7794 C7797 1.403 . S
C7795 C7792 1.403 . S
C7795 C7796 1.524 . S
C7795 C7799 1.400 . S
C7796 H7781 0.960 . S
C7796 H7782 0.960 . S
C7796 H7783 0.960 . S
C7796 C7795 1.524 . S
C7797 C7794 1.403 . S
C7797 C7798 1.392 . S
C7797 C7801 1.495 . S
C7798 C7797 1.392 . S
C7798 C7799 1.385 . S
C7798 C7800 1.478 . S
C7799 H7793 0.930 . S
C7799 C7795 1.400 . S
C7799 C7798 1.385 . S
C7800 C7798 1.478 . S
C7800 C7802 1.381 . S
C7800 C7806 1.383 . S
C7801 C7797 1.495 . S
C7801 H7807 0.959 . S
C7801 H7808 0.961 . S
C7801 H7809 0.960 . S
C7802 C7800 1.381 . S
C7802 C7803 1.394 . S
C7802 H7810 0.930 . S
C7803 C7802 1.394 . S
C7803 C7804 1.383 . S
C7803 H7811 0.929 . S
C7804 C7803 1.383 . S
C7804 C7805 1.377 . S
C7805 H7789 0.930 . S
C7805 C7804 1.377 . S
C7805 C7806 1.379 . S
C7806 H7790 0.931 . S
C7806 C7800 1.383 . S
C7806 C7805 1.379 . S
H7807 C7801 0.959 . S
H7808 C7801 0.961 . S
H7809 C7801 0.960 . S
H7810 C7802 0.930 . S
H7811 C7803 0.929 . S
H7812 C7820 0.929 . S
H7813 C7822 0.930 . S
H7814 C7824 0.930 . S
H7815 C7827 0.929 . S
H7816 C7830 0.930 . S
H7817 C7832 0.960 . S
H7818 C7832 0.960 . S
H7819 C7832 0.960 . S
C7820 H7812 0.929 . S
C7820 C7821 1.377 . S
C7820 C7822 1.384 . S
C7821 C7820 1.377 . S
C7821 C7827 1.390 . S
C7822 H7813 0.930 . S
C7822 C7820 1.384 . S
C7822 C7823 1.372 . S
C7823 C7822 1.372 . S
C7823 C7824 1.400 . S
C7823 C7828 1.490 . S
C7824 H7814 0.930 . S
C7824 C7823 1.400 . S
C7824 C7827 1.386 . S
H7825 C7841 0.930 . S
H7826 C7842 0.931 . S
C7827 H7815 0.929 . S
C7827 C7821 1.390 . S
C7827 C7824 1.386 . S
C7828 C7823 1.490 . S
C7828 C7830 1.395 . S
C7828 C7831 1.403 . S
H7829 C7835 0.930 . S
C7830 H7816 0.930 . S
C7830 C7828 1.395 . S
C7830 C7833 1.403 . S
C7831 C7828 1.403 . S
C7831 C7832 1.524 . S
C7831 C7835 1.400 . S
C7832 H7817 0.960 . S
C7832 H7818 0.960 . S
C7832 H7819 0.960 . S
C7832 C7831 1.524 . S
C7833 C7830 1.403 . S
C7833 C7834 1.392 . S
C7833 C7837 1.495 . S
C7834 C7833 1.392 . S
C7834 C7835 1.385 . S
C7834 C7836 1.478 . S
C7835 H7829 0.930 . S
C7835 C7831 1.400 . S
C7835 C7834 1.385 . S
C7836 C7834 1.478 . S
C7836 C7838 1.381 . S
C7836 C7842 1.383 . S
C7837 C7833 1.495 . S
C7837 H7843 0.959 . S
C7837 H7844 0.961 . S
C7837 H7845 0.960 . S
C7838 C7836 1.381 . S
C7838 C7839 1.394 . S
C7838 H7846 0.930 . S
C7839 C7838 1.394 . S
C7839 C7840 1.383 . S
C7839 H7847 0.929 . S
C7840 C7839 1.383 . S
C7840 C7841 1.377 . S
C7841 H7825 0.930 . S
C7841 C7840 1.377 . S
C7841 C7842 1.379 . S
C7842 H7826 0.931 . S
C7842 C7836 1.383 . S
C7842 C7841 1.379 . S
H7843 C7837 0.959 . S
H7844 C7837 0.961 . S
H7845 C7837 0.960 . S
H7846 C7838 0.930 . S
H7847 C7839 0.929 . S
H7848 C7856 0.929 . S
H7849 C7858 0.930 . S
H7850 C7860 0.930 . S
H7851 C7863 0.929 . S
H7852 C7866 0.930 . S
H7853 C7868 0.960 . S
H7854 C7868 0.960 . S
H7855 C7868 0.960 . S
C7856 H7848 0.929 . S
C7856 C7857 1.377 . S
C7856 C7858 1.384 . S
C7857 C7856 1.377 . S
C7857 C7863 1.390 . S
C7858 H7849 0.930 . S
C7858 C7856 1.384 . S
C7858 C7859 1.372 . S
C7859 C7858 1.372 . S
C7859 C7860 1.400 . S
C7859 C7864 1.490 . S
C7860 H7850 0.930 . S
C7860 C7859 1.400 . S
C7860 C7863 1.386 . S
H7861 C7877 0.930 . S
H7862 C7878 0.931 . S
C7863 H7851 0.929 . S
C7863 C7857 1.390 . S
C7863 C7860 1.386 . S
C7864 C7859 1.490 . S
C7864 C7866 1.395 . S
C7864 C7867 1.403 . S
H7865 C7871 0.930 . S
C7866 H7852 0.930 . S
C7866 C7864 1.395 . S
C7866 C7869 1.403 . S
C7867 C7864 1.403 . S
C7867 C7868 1.524 . S
C7867 C7871 1.400 . S
C7868 H7853 0.960 . S
C7868 H7854 0.960 . S
C7868 H7855 0.960 . S
C7868 C7867 1.524 . S
C7869 C7866 1.403 . S
C7869 C7870 1.392 . S
C7869 C7873 1.495 . S
C7870 C7869 1.392 . S
C7870 C7871 1.385 . S
C7870 C7872 1.478 . S
C7871 H7865 0.930 . S
C7871 C7867 1.400 . S
C7871 C7870 1.385 . S
C7872 C7870 1.478 . S
C7872 C7874 1.381 . S
C7872 C7878 1.383 . S
C7873 C7869 1.495 . S
C7873 H7879 0.959 . S
C7873 H7880 0.961 . S
C7873 H7881 0.960 . S
C7874 C7872 1.381 . S
C7874 C7875 1.394 . S
C7874 H7882 0.930 . S
C7875 C7874 1.394 . S
C7875 C7876 1.383 . S
C7875 H7883 0.929 . S
C7876 C7875 1.383 . S
C7876 C7877 1.377 . S
C7877 H7861 0.930 . S
C7877 C7876 1.377 . S
C7877 C7878 1.379 . S
C7878 H7862 0.931 . S
C7878 C7872 1.383 . S
C7878 C7877 1.379 . S
H7879 C7873 0.959 . S
H7880 C7873 0.961 . S
H7881 C7873 0.960 . S
H7882 C7874 0.930 . S
H7883 C7875 0.929 . S
H7884 C7892 0.929 . S
H7885 C7894 0.930 . S
H7886 C7896 0.930 . S
H7887 C7899 0.929 . S
H7888 C7902 0.930 . S
H7889 C7904 0.960 . S
H7890 C7904 0.960 . S
H7891 C7904 0.960 . S
C7892 H7884 0.929 . S
C7892 C7893 1.377 . S
C7892 C7894 1.384 . S
C7893 C7892 1.377 . S
C7893 C7899 1.390 . S
C7894 H7885 0.930 . S
C7894 C7892 1.384 . S
C7894 C7895 1.372 . S
C7895 C7894 1.372 . S
C7895 C7896 1.400 . S
C7895 C7900 1.490 . S
C7896 H7886 0.930 . S
C7896 C7895 1.400 . S
C7896 C7899 1.386 . S
H7897 C7913 0.930 . S
H7898 C7914 0.931 . S
C7899 H7887 0.929 . S
C7899 C7893 1.390 . S
C7899 C7896 1.386 . S
C7900 C7895 1.490 . S
C7900 C7902 1.395 . S
C7900 C7903 1.403 . S
H7901 C7907 0.930 . S
C7902 H7888 0.930 . S
C7902 C7900 1.395 . S
C7902 C7905 1.403 . S
C7903 C7900 1.403 . S
C7903 C7904 1.524 . S
C7903 C7907 1.400 . S
C7904 H7889 0.960 . S
C7904 H7890 0.960 . S
C7904 H7891 0.960 . S
C7904 C7903 1.524 . S
C7905 C7902 1.403 . S
C7905 C7906 1.392 . S
C7905 C7909 1.495 . S
C7906 C7905 1.392 . S
C7906 C7907 1.385 . S
C7906 C7908 1.478 . S
C7907 H7901 0.930 . S
C7907 C7903 1.400 . S
C7907 C7906 1.385 . S
C7908 C7906 1.478 . S
C7908 C7910 1.381 . S
C7908 C7914 1.383 . S
C7909 C7905 1.495 . S
C7909 H7915 0.959 . S
C7909 H7916 0.961 . S
C7909 H7917 0.960 . S
C7910 C7908 1.381 . S
C7910 C7911 1.394 . S
C7910 H7918 0.930 . S
C7911 C7910 1.394 . S
C7911 C7912 1.383 . S
C7911 H7919 0.929 . S
C7912 C7911 1.383 . S
C7912 C7913 1.377 . S
C7913 H7897 0.930 . S
C7913 C7912 1.377 . S
C7913 C7914 1.379 . S
C7914 H7898 0.931 . S
C7914 C7908 1.383 . S
C7914 C7913 1.379 . S
H7915 C7909 0.959 . S
H7916 C7909 0.961 . S
H7917 C7909 0.960 . S
H7918 C7910 0.930 . S
H7919 C7911 0.929 . S
H7920 C7928 0.929 . S
H7921 C7930 0.930 . S
H7922 C7932 0.930 . S
H7923 C7935 0.929 . S
H7924 C7938 0.930 . S
H7925 C7940 0.960 . S
H7926 C7940 0.960 . S
H7927 C7940 0.960 . S
C7928 H7920 0.929 . S
C7928 C7929 1.377 . S
C7928 C7930 1.384 . S
C7929 C7928 1.377 . S
C7929 C7935 1.390 . S
C7930 H7921 0.930 . S
C7930 C7928 1.384 . S
C7930 C7931 1.372 . S
C7931 C7930 1.372 . S
C7931 C7932 1.400 . S
C7931 C7936 1.490 . S
C7932 H7922 0.930 . S
C7932 C7931 1.400 . S
C7932 C7935 1.386 . S
H7933 C7949 0.930 . S
H7934 C7950 0.931 . S
C7935 H7923 0.929 . S
C7935 C7929 1.390 . S
C7935 C7932 1.386 . S
C7936 C7931 1.490 . S
C7936 C7938 1.395 . S
C7936 C7939 1.403 . S
H7937 C7943 0.930 . S
C7938 H7924 0.930 . S
C7938 C7936 1.395 . S
C7938 C7941 1.403 . S
C7939 C7936 1.403 . S
C7939 C7940 1.524 . S
C7939 C7943 1.400 . S
C7940 H7925 0.960 . S
C7940 H7926 0.960 . S
C7940 H7927 0.960 . S
C7940 C7939 1.524 . S
C7941 C7938 1.403 . S
C7941 C7942 1.392 . S
C7941 C7945 1.495 . S
C7942 C7941 1.392 . S
C7942 C7943 1.385 . S
C7942 C7944 1.478 . S
C7943 H7937 0.930 . S
C7943 C7939 1.400 . S
C7943 C7942 1.385 . S
C7944 C7942 1.478 . S
C7944 C7946 1.381 . S
C7944 C7950 1.383 . S
C7945 C7941 1.495 . S
C7945 H7951 0.959 . S
C7945 H7952 0.961 . S
C7945 H7953 0.960 . S
C7946 C7944 1.381 . S
C7946 C7947 1.394 . S
C7946 H7954 0.930 . S
C7947 C7946 1.394 . S
C7947 C7948 1.383 . S
C7947 H7955 0.929 . S
C7948 C7947 1.383 . S
C7948 C7949 1.377 . S
C7949 H7933 0.930 . S
C7949 C7948 1.377 . S
C7949 C7950 1.379 . S
C7950 H7934 0.931 . S
C7950 C7944 1.383 . S
C7950 C7949 1.379 . S
H7951 C7945 0.959 . S
H7952 C7945 0.961 . S
H7953 C7945 0.960 . S
H7954 C7946 0.930 . S
H7955 C7947 0.929 . S
H7956 C7964 0.929 . S
H7957 C7966 0.930 . S
H7958 C7968 0.930 . S
H7959 C7971 0.929 . S
H7960 C7974 0.930 . S
H7961 C7976 0.960 . S
H7962 C7976 0.960 . S
H7963 C7976 0.960 . S
C7964 H7956 0.929 . S
C7964 C7965 1.377 . S
C7964 C7966 1.384 . S
C7965 C7964 1.377 . S
C7965 C7971 1.390 . S
C7966 H7957 0.930 . S
C7966 C7964 1.384 . S
C7966 C7967 1.372 . S
C7967 C7966 1.372 . S
C7967 C7968 1.400 . S
C7967 C7972 1.490 . S
C7968 H7958 0.930 . S
C7968 C7967 1.400 . S
C7968 C7971 1.386 . S
H7969 C7985 0.930 . S
H7970 C7986 0.931 . S
C7971 H7959 0.929 . S
C7971 C7965 1.390 . S
C7971 C7968 1.386 . S
C7972 C7967 1.490 . S
C7972 C7974 1.395 . S
C7972 C7975 1.403 . S
H7973 C7979 0.930 . S
C7974 H7960 0.930 . S
C7974 C7972 1.395 . S
C7974 C7977 1.403 . S
C7975 C7972 1.403 . S
C7975 C7976 1.524 . S
C7975 C7979 1.400 . S
C7976 H7961 0.960 . S
C7976 H7962 0.960 . S
C7976 H7963 0.960 . S
C7976 C7975 1.524 . S
C7977 C7974 1.403 . S
C7977 C7978 1.392 . S
C7977 C7981 1.495 . S
C7978 C7977 1.392 . S
C7978 C7979 1.385 . S
C7978 C7980 1.478 . S
C7979 H7973 0.930 . S
C7979 C7975 1.400 . S
C7979 C7978 1.385 . S
C7980 C7978 1.478 . S
C7980 C7982 1.381 . S
C7980 C7986 1.383 . S
C7981 C7977 1.495 . S
C7981 H7987 0.959 . S
C7981 H7988 0.961 . S
C7981 H7989 0.960 . S
C7982 C7980 1.381 . S
C7982 C7983 1.394 . S
C7982 H7990 0.930 . S
C7983 C7982 1.394 . S
C7983 C7984 1.383 . S
C7983 H7991 0.929 . S
C7984 C7983 1.383 . S
C7984 C7985 1.377 . S
C7985 H7969 0.930 . S
C7985 C7984 1.377 . S
C7985 C7986 1.379 . S
C7986 H7970 0.931 . S
C7986 C7980 1.383 . S
C7986 C7985 1.379 . S
H7987 C7981 0.959 . S
H7988 C7981 0.961 . S
H7989 C7981 0.960 . S
H7990 C7982 0.930 . S
H7991 C7983 0.929 . S
H7992 C8000 0.929 . S
H7993 C8002 0.930 . S
H7994 C8004 0.930 . S
H7995 C8007 0.929 . S
H7996 C8010 0.930 . S
H7997 C8012 0.960 . S
H7998 C8012 0.960 . S
H7999 C8012 0.960 . S
C8000 H7992 0.929 . S
C8000 C8001 1.377 . S
C8000 C8002 1.384 . S
C8001 C8000 1.377 . S
C8001 C8007 1.390 . S
C8002 H7993 0.930 . S
C8002 C8000 1.384 . S
C8002 C8003 1.372 . S
C8003 C8002 1.372 . S
C8003 C8004 1.400 . S
C8003 C8008 1.490 . S
C8004 H7994 0.930 . S
C8004 C8003 1.400 . S
C8004 C8007 1.386 . S
H8005 C8021 0.930 . S
H8006 C8022 0.931 . S
C8007 H7995 0.929 . S
C8007 C8001 1.390 . S
C8007 C8004 1.386 . S
C8008 C8003 1.490 . S
C8008 C8010 1.395 . S
C8008 C8011 1.403 . S
H8009 C8015 0.930 . S
C8010 H7996 0.930 . S
C8010 C8008 1.395 . S
C8010 C8013 1.403 . S
C8011 C8008 1.403 . S
C8011 C8012 1.524 . S
C8011 C8015 1.400 . S
C8012 H7997 0.960 . S
C8012 H7998 0.960 . S
C8012 H7999 0.960 . S
C8012 C8011 1.524 . S
C8013 C8010 1.403 . S
C8013 C8014 1.392 . S
C8013 C8017 1.495 . S
C8014 C8013 1.392 . S
C8014 C8015 1.385 . S
C8014 C8016 1.478 . S
C8015 H8009 0.930 . S
C8015 C8011 1.400 . S
C8015 C8014 1.385 . S
C8016 C8014 1.478 . S
C8016 C8018 1.381 . S
C8016 C8022 1.383 . S
C8017 C8013 1.495 . S
C8017 H8023 0.959 . S
C8017 H8024 0.961 . S
C8017 H8025 0.960 . S
C8018 C8016 1.381 . S
C8018 C8019 1.394 . S
C8018 H8026 0.930 . S
C8019 C8018 1.394 . S
C8019 C8020 1.383 . S
C8019 H8027 0.929 . S
C8020 C8019 1.383 . S
C8020 C8021 1.377 . S
C8021 H8005 0.930 . S
C8021 C8020 1.377 . S
C8021 C8022 1.379 . S
C8022 H8006 0.931 . S
C8022 C8016 1.383 . S
C8022 C8021 1.379 . S
H8023 C8017 0.959 . S
H8024 C8017 0.961 . S
H8025 C8017 0.960 . S
H8026 C8018 0.930 . S
H8027 C8019 0.929 . S
H8028 C8036 0.929 . S
H8029 C8038 0.930 . S
H8030 C8040 0.930 . S
H8031 C8043 0.929 . S
H8032 C8046 0.930 . S
H8033 C8048 0.960 . S
H8034 C8048 0.960 . S
H8035 C8048 0.960 . S
C8036 H8028 0.929 . S
C8036 C8037 1.377 . S
C8036 C8038 1.384 . S
C8037 C8036 1.377 . S
C8037 C8043 1.390 . S
C8038 H8029 0.930 . S
C8038 C8036 1.384 . S
C8038 C8039 1.372 . S
C8039 C8038 1.372 . S
C8039 C8040 1.400 . S
C8039 C8044 1.490 . S
C8040 H8030 0.930 . S
C8040 C8039 1.400 . S
C8040 C8043 1.386 . S
H8041 C8057 0.930 . S
H8042 C8058 0.931 . S
C8043 H8031 0.929 . S
C8043 C8037 1.390 . S
C8043 C8040 1.386 . S
C8044 C8039 1.490 . S
C8044 C8046 1.395 . S
C8044 C8047 1.403 . S
H8045 C8051 0.930 . S
C8046 H8032 0.930 . S
C8046 C8044 1.395 . S
C8046 C8049 1.403 . S
C8047 C8044 1.403 . S
C8047 C8048 1.524 . S
C8047 C8051 1.400 . S
C8048 H8033 0.960 . S
C8048 H8034 0.960 . S
C8048 H8035 0.960 . S
C8048 C8047 1.524 . S
C8049 C8046 1.403 . S
C8049 C8050 1.392 . S
C8049 C8053 1.495 . S
C8050 C8049 1.392 . S
C8050 C8051 1.385 . S
C8050 C8052 1.478 . S
C8051 H8045 0.930 . S
C8051 C8047 1.400 . S
C8051 C8050 1.385 . S
C8052 C8050 1.478 . S
C8052 C8054 1.381 . S
C8052 C8058 1.383 . S
C8053 C8049 1.495 . S
C8053 H8059 0.959 . S
C8053 H8060 0.961 . S
C8053 H8061 0.960 . S
C8054 C8052 1.381 . S
C8054 C8055 1.394 . S
C8054 H8062 0.930 . S
C8055 C8054 1.394 . S
C8055 C8056 1.383 . S
C8055 H8063 0.929 . S
C8056 C8055 1.383 . S
C8056 C8057 1.377 . S
C8057 H8041 0.930 . S
C8057 C8056 1.377 . S
C8057 C8058 1.379 . S
C8058 H8042 0.931 . S
C8058 C8052 1.383 . S
C8058 C8057 1.379 . S
H8059 C8053 0.959 . S
H8060 C8053 0.961 . S
H8061 C8053 0.960 . S
H8062 C8054 0.930 . S
H8063 C8055 0.929 . S
H8064 C8072 0.929 . S
H8065 C8074 0.930 . S
H8066 C8076 0.930 . S
H8067 C8079 0.929 . S
H8068 C8082 0.930 . S
H8069 C8084 0.960 . S
H8070 C8084 0.960 . S
H8071 C8084 0.960 . S
C8072 H8064 0.929 . S
C8072 C8073 1.377 . S
C8072 C8074 1.384 . S
C8073 C8072 1.377 . S
C8073 C8079 1.390 . S
C8074 H8065 0.930 . S
C8074 C8072 1.384 . S
C8074 C8075 1.372 . S
C8075 C8074 1.372 . S
C8075 C8076 1.400 . S
C8075 C8080 1.490 . S
C8076 H8066 0.930 . S
C8076 C8075 1.400 . S
C8076 C8079 1.386 . S
H8077 C8093 0.930 . S
H8078 C8094 0.931 . S
C8079 H8067 0.929 . S
C8079 C8073 1.390 . S
C8079 C8076 1.386 . S
C8080 C8075 1.490 . S
C8080 C8082 1.395 . S
C8080 C8083 1.403 . S
H8081 C8087 0.930 . S
C8082 H8068 0.930 . S
C8082 C8080 1.395 . S
C8082 C8085 1.403 . S
C8083 C8080 1.403 . S
C8083 C8084 1.524 . S
C8083 C8087 1.400 . S
C8084 H8069 0.960 . S
C8084 H8070 0.960 . S
C8084 H8071 0.960 . S
C8084 C8083 1.524 . S
C8085 C8082 1.403 . S
C8085 C8086 1.392 . S
C8085 C8089 1.495 . S
C8086 C8085 1.392 . S
C8086 C8087 1.385 . S
C8086 C8088 1.478 . S
C8087 H8081 0.930 . S
C8087 C8083 1.400 . S
C8087 C8086 1.385 . S
C8088 C8086 1.478 . S
C8088 C8090 1.381 . S
C8088 C8094 1.383 . S
C8089 C8085 1.495 . S
C8089 H8095 0.959 . S
C8089 H8096 0.961 . S
C8089 H8097 0.960 . S
C8090 C8088 1.381 . S
C8090 C8091 1.394 . S
C8090 H8098 0.930 . S
C8091 C8090 1.394 . S
C8091 C8092 1.383 . S
C8091 H8099 0.929 . S
C8092 C8091 1.383 . S
C8092 C8093 1.377 . S
C8093 H8077 0.930 . S
C8093 C8092 1.377 . S
C8093 C8094 1.379 . S
C8094 H8078 0.931 . S
C8094 C8088 1.383 . S
C8094 C8093 1.379 . S
H8095 C8089 0.959 . S
H8096 C8089 0.961 . S
H8097 C8089 0.960 . S
H8098 C8090 0.930 . S
H8099 C8091 0.929 . S
H8100 C8108 0.929 . S
H8101 C8110 0.930 . S
H8102 C8112 0.930 . S
H8103 C8115 0.929 . S
H8104 C8118 0.930 . S
H8105 C8120 0.960 . S
H8106 C8120 0.960 . S
H8107 C8120 0.960 . S
C8108 H8100 0.929 . S
C8108 C8109 1.377 . S
C8108 C8110 1.384 . S
C8109 C8108 1.377 . S
C8109 C8115 1.390 . S
C8110 H8101 0.930 . S
C8110 C8108 1.384 . S
C8110 C8111 1.372 . S
C8111 C8110 1.372 . S
C8111 C8112 1.400 . S
C8111 C8116 1.490 . S
C8112 H8102 0.930 . S
C8112 C8111 1.400 . S
C8112 C8115 1.386 . S
H8113 C8129 0.930 . S
H8114 C8130 0.931 . S
C8115 H8103 0.929 . S
C8115 C8109 1.390 . S
C8115 C8112 1.386 . S
C8116 C8111 1.490 . S
C8116 C8118 1.395 . S
C8116 C8119 1.403 . S
H8117 C8123 0.930 . S
C8118 H8104 0.930 . S
C8118 C8116 1.395 . S
C8118 C8121 1.403 . S
C8119 C8116 1.403 . S
C8119 C8120 1.524 . S
C8119 C8123 1.400 . S
C8120 H8105 0.960 . S
C8120 H8106 0.960 . S
C8120 H8107 0.960 . S
C8120 C8119 1.524 . S
C8121 C8118 1.403 . S
C8121 C8122 1.392 . S
C8121 C8125 1.495 . S
C8122 C8121 1.392 . S
C8122 C8123 1.385 . S
C8122 C8124 1.478 . S
C8123 H8117 0.930 . S
C8123 C8119 1.400 . S
C8123 C8122 1.385 . S
C8124 C8122 1.478 . S
C8124 C8126 1.381 . S
C8124 C8130 1.383 . S
C8125 C8121 1.495 . S
C8125 H8131 0.959 . S
C8125 H8132 0.961 . S
C8125 H8133 0.960 . S
C8126 C8124 1.381 . S
C8126 C8127 1.394 . S
C8126 H8134 0.930 . S
C8127 C8126 1.394 . S
C8127 C8128 1.383 . S
C8127 H8135 0.929 . S
C8128 C8127 1.383 . S
C8128 C8129 1.377 . S
C8129 H8113 0.930 . S
C8129 C8128 1.377 . S
C8129 C8130 1.379 . S
C8130 H8114 0.931 . S
C8130 C8124 1.383 . S
C8130 C8129 1.379 . S
H8131 C8125 0.959 . S
H8132 C8125 0.961 . S
H8133 C8125 0.960 . S
H8134 C8126 0.930 . S
H8135 C8127 0.929 . S
H8136 C8144 0.929 . S
H8137 C8146 0.930 . S
H8138 C8148 0.930 . S
H8139 C8151 0.929 . S
H8140 C8154 0.930 . S
H8141 C8156 0.960 . S
H8142 C8156 0.960 . S
H8143 C8156 0.960 . S
C8144 H8136 0.929 . S
C8144 C8145 1.377 . S
C8144 C8146 1.384 . S
C8145 C8144 1.377 . S
C8145 C8151 1.390 . S
C8146 H8137 0.930 . S
C8146 C8144 1.384 . S
C8146 C8147 1.372 . S
C8147 C8146 1.372 . S
C8147 C8148 1.400 . S
C8147 C8152 1.490 . S
C8148 H8138 0.930 . S
C8148 C8147 1.400 . S
C8148 C8151 1.386 . S
H8149 C8165 0.930 . S
H8150 C8166 0.931 . S
C8151 H8139 0.929 . S
C8151 C8145 1.390 . S
C8151 C8148 1.386 . S
C8152 C8147 1.490 . S
C8152 C8154 1.395 . S
C8152 C8155 1.403 . S
H8153 C8159 0.930 . S
C8154 H8140 0.930 . S
C8154 C8152 1.395 . S
C8154 C8157 1.403 . S
C8155 C8152 1.403 . S
C8155 C8156 1.524 . S
C8155 C8159 1.400 . S
C8156 H8141 0.960 . S
C8156 H8142 0.960 . S
C8156 H8143 0.960 . S
C8156 C8155 1.524 . S
C8157 C8154 1.403 . S
C8157 C8158 1.392 . S
C8157 C8161 1.495 . S
C8158 C8157 1.392 . S
C8158 C8159 1.385 . S
C8158 C8160 1.478 . S
C8159 H8153 0.930 . S
C8159 C8155 1.400 . S
C8159 C8158 1.385 . S
C8160 C8158 1.478 . S
C8160 C8162 1.381 . S
C8160 C8166 1.383 . S
C8161 C8157 1.495 . S
C8161 H8167 0.959 . S
C8161 H8168 0.961 . S
C8161 H8169 0.960 . S
C8162 C8160 1.381 . S
C8162 C8163 1.394 . S
C8162 H8170 0.930 . S
C8163 C8162 1.394 . S
C8163 C8164 1.383 . S
C8163 H8171 0.929 . S
C8164 C8163 1.383 . S
C8164 C8165 1.377 . S
C8165 H8149 0.930 . S
C8165 C8164 1.377 . S
C8165 C8166 1.379 . S
C8166 H8150 0.931 . S
C8166 C8160 1.383 . S
C8166 C8165 1.379 . S
H8167 C8161 0.959 . S
H8168 C8161 0.961 . S
H8169 C8161 0.960 . S
H8170 C8162 0.930 . S
H8171 C8163 0.929 . S
H8172 C8180 0.929 . S
H8173 C8182 0.930 . S
H8174 C8184 0.930 . S
H8175 C8187 0.929 . S
H8176 C8190 0.930 . S
H8177 C8192 0.960 . S
H8178 C8192 0.960 . S
H8179 C8192 0.960 . S
C8180 H8172 0.929 . S
C8180 C8181 1.377 . S
C8180 C8182 1.384 . S
C8181 C8180 1.377 . S
C8181 C8187 1.390 . S
C8182 H8173 0.930 . S
C8182 C8180 1.384 . S
C8182 C8183 1.372 . S
C8183 C8182 1.372 . S
C8183 C8184 1.400 . S
C8183 C8188 1.490 . S
C8184 H8174 0.930 . S
C8184 C8183 1.400 . S
C8184 C8187 1.386 . S
H8185 C8201 0.930 . S
H8186 C8202 0.931 . S
C8187 H8175 0.929 . S
C8187 C8181 1.390 . S
C8187 C8184 1.386 . S
C8188 C8183 1.490 . S
C8188 C8190 1.395 . S
C8188 C8191 1.403 . S
H8189 C8195 0.930 . S
C8190 H8176 0.930 . S
C8190 C8188 1.395 . S
C8190 C8193 1.403 . S
C8191 C8188 1.403 . S
C8191 C8192 1.524 . S
C8191 C8195 1.400 . S
C8192 H8177 0.960 . S
C8192 H8178 0.960 . S
C8192 H8179 0.960 . S
C8192 C8191 1.524 . S
C8193 C8190 1.403 . S
C8193 C8194 1.392 . S
C8193 C8197 1.495 . S
C8194 C8193 1.392 . S
C8194 C8195 1.385 . S
C8194 C8196 1.478 . S
C8195 H8189 0.930 . S
C8195 C8191 1.400 . S
C8195 C8194 1.385 . S
C8196 C8194 1.478 . S
C8196 C8198 1.381 . S
C8196 C8202 1.383 . S
C8197 C8193 1.495 . S
C8197 H8203 0.959 . S
C8197 H8204 0.961 . S
C8197 H8205 0.960 . S
C8198 C8196 1.381 . S
C8198 C8199 1.394 . S
C8198 H8206 0.930 . S
C8199 C8198 1.394 . S
C8199 C8200 1.383 . S
C8199 H8207 0.929 . S
C8200 C8199 1.383 . S
C8200 C8201 1.377 . S
C8201 H8185 0.930 . S
C8201 C8200 1.377 . S
C8201 C8202 1.379 . S
C8202 H8186 0.931 . S
C8202 C8196 1.383 . S
C8202 C8201 1.379 . S
H8203 C8197 0.959 . S
H8204 C8197 0.961 . S
H8205 C8197 0.960 . S
H8206 C8198 0.930 . S
H8207 C8199 0.929 . S
H8208 C8216 0.929 . S
H8209 C8218 0.930 . S
H8210 C8220 0.930 . S
H8211 C8223 0.929 . S
H8212 C8226 0.930 . S
H8213 C8228 0.960 . S
H8214 C8228 0.960 . S
H8215 C8228 0.960 . S
C8216 H8208 0.929 . S
C8216 C8217 1.377 . S
C8216 C8218 1.384 . S
C8217 C8216 1.377 . S
C8217 C8223 1.390 . S
C8218 H8209 0.930 . S
C8218 C8216 1.384 . S
C8218 C8219 1.372 . S
C8219 C8218 1.372 . S
C8219 C8220 1.400 . S
C8219 C8224 1.490 . S
C8220 H8210 0.930 . S
C8220 C8219 1.400 . S
C8220 C8223 1.386 . S
H8221 C8237 0.930 . S
H8222 C8238 0.931 . S
C8223 H8211 0.929 . S
C8223 C8217 1.390 . S
C8223 C8220 1.386 . S
C8224 C8219 1.490 . S
C8224 C8226 1.395 . S
C8224 C8227 1.403 . S
H8225 C8231 0.930 . S
C8226 H8212 0.930 . S
C8226 C8224 1.395 . S
C8226 C8229 1.403 . S
C8227 C8224 1.403 . S
C8227 C8228 1.524 . S
C8227 C8231 1.400 . S
C8228 H8213 0.960 . S
C8228 H8214 0.960 . S
C8228 H8215 0.960 . S
C8228 C8227 1.524 . S
C8229 C8226 1.403 . S
C8229 C8230 1.392 . S
C8229 C8233 1.495 . S
C8230 C8229 1.392 . S
C8230 C8231 1.385 . S
C8230 C8232 1.478 . S
C8231 H8225 0.930 . S
C8231 C8227 1.400 . S
C8231 C8230 1.385 . S
C8232 C8230 1.478 . S
C8232 C8234 1.381 . S
C8232 C8238 1.383 . S
C8233 C8229 1.495 . S
C8233 H8239 0.959 . S
C8233 H8240 0.961 . S
C8233 H8241 0.960 . S
C8234 C8232 1.381 . S
C8234 C8235 1.394 . S
C8234 H8242 0.930 . S
C8235 C8234 1.394 . S
C8235 C8236 1.383 . S
C8235 H8243 0.929 . S
C8236 C8235 1.383 . S
C8236 C8237 1.377 . S
C8237 H8221 0.930 . S
C8237 C8236 1.377 . S
C8237 C8238 1.379 . S
C8238 H8222 0.931 . S
C8238 C8232 1.383 . S
C8238 C8237 1.379 . S
H8239 C8233 0.959 . S
H8240 C8233 0.961 . S
H8241 C8233 0.960 . S
H8242 C8234 0.930 . S
H8243 C8235 0.929 . S
H8244 C8252 0.929 . S
H8245 C8254 0.930 . S
H8246 C8256 0.930 . S
H8247 C8259 0.929 . S
H8248 C8262 0.930 . S
H8249 C8264 0.960 . S
H8250 C8264 0.960 . S
H8251 C8264 0.960 . S
C8252 H8244 0.929 . S
C8252 C8253 1.377 . S
C8252 C8254 1.384 . S
C8253 C8252 1.377 . S
C8253 C8259 1.390 . S
C8254 H8245 0.930 . S
C8254 C8252 1.384 . S
C8254 C8255 1.372 . S
C8255 C8254 1.372 . S
C8255 C8256 1.400 . S
C8255 C8260 1.490 . S
C8256 H8246 0.930 . S
C8256 C8255 1.400 . S
C8256 C8259 1.386 . S
H8257 C8273 0.930 . S
H8258 C8274 0.931 . S
C8259 H8247 0.929 . S
C8259 C8253 1.390 . S
C8259 C8256 1.386 . S
C8260 C8255 1.490 . S
C8260 C8262 1.395 . S
C8260 C8263 1.403 . S
H8261 C8267 0.930 . S
C8262 H8248 0.930 . S
C8262 C8260 1.395 . S
C8262 C8265 1.403 . S
C8263 C8260 1.403 . S
C8263 C8264 1.524 . S
C8263 C8267 1.400 . S
C8264 H8249 0.960 . S
C8264 H8250 0.960 . S
C8264 H8251 0.960 . S
C8264 C8263 1.524 . S
C8265 C8262 1.403 . S
C8265 C8266 1.392 . S
C8265 C8269 1.495 . S
C8266 C8265 1.392 . S
C8266 C8267 1.385 . S
C8266 C8268 1.478 . S
C8267 H8261 0.930 . S
C8267 C8263 1.400 . S
C8267 C8266 1.385 . S
C8268 C8266 1.478 . S
C8268 C8270 1.381 . S
C8268 C8274 1.383 . S
C8269 C8265 1.495 . S
C8269 H8275 0.959 . S
C8269 H8276 0.961 . S
C8269 H8277 0.960 . S
C8270 C8268 1.381 . S
C8270 C8271 1.394 . S
C8270 H8278 0.930 . S
C8271 C8270 1.394 . S
C8271 C8272 1.383 . S
C8271 H8279 0.929 . S
C8272 C8271 1.383 . S
C8272 C8273 1.377 . S
C8273 H8257 0.930 . S
C8273 C8272 1.377 . S
C8273 C8274 1.379 . S
C8274 H8258 0.931 . S
C8274 C8268 1.383 . S
C8274 C8273 1.379 . S
H8275 C8269 0.959 . S
H8276 C8269 0.961 . S
H8277 C8269 0.960 . S
H8278 C8270 0.930 . S
H8279 C8271 0.929 . S
H8280 C8288 0.929 . S
H8281 C8290 0.930 . S
H8282 C8292 0.930 . S
H8283 C8295 0.929 . S
H8284 C8298 0.930 . S
H8285 C8300 0.960 . S
H8286 C8300 0.960 . S
H8287 C8300 0.960 . S
C8288 H8280 0.929 . S
C8288 C8289 1.377 . S
C8288 C8290 1.384 . S
C8289 C8288 1.377 . S
C8289 C8295 1.390 . S
C8290 H8281 0.930 . S
C8290 C8288 1.384 . S
C8290 C8291 1.372 . S
C8291 C8290 1.372 . S
C8291 C8292 1.400 . S
C8291 C8296 1.490 . S
C8292 H8282 0.930 . S
C8292 C8291 1.400 . S
C8292 C8295 1.386 . S
H8293 C8309 0.930 . S
H8294 C8310 0.931 . S
C8295 H8283 0.929 . S
C8295 C8289 1.390 . S
C8295 C8292 1.386 . S
C8296 C8291 1.490 . S
C8296 C8298 1.395 . S
C8296 C8299 1.403 . S
H8297 C8303 0.930 . S
C8298 H8284 0.930 . S
C8298 C8296 1.395 . S
C8298 C8301 1.403 . S
C8299 C8296 1.403 . S
C8299 C8300 1.524 . S
C8299 C8303 1.400 . S
C8300 H8285 0.960 . S
C8300 H8286 0.960 . S
C8300 H8287 0.960 . S
C8300 C8299 1.524 . S
C8301 C8298 1.403 . S
C8301 C8302 1.392 . S
C8301 C8305 1.495 . S
C8302 C8301 1.392 . S
C8302 C8303 1.385 . S
C8302 C8304 1.478 . S
C8303 H8297 0.930 . S
C8303 C8299 1.400 . S
C8303 C8302 1.385 . S
C8304 C8302 1.478 . S
C8304 C8306 1.381 . S
C8304 C8310 1.383 . S
C8305 C8301 1.495 . S
C8305 H8311 0.959 . S
C8305 H8312 0.961 . S
C8305 H8313 0.960 . S
C8306 C8304 1.381 . S
C8306 C8307 1.394 . S
C8306 H8314 0.930 . S
C8307 C8306 1.394 . S
C8307 C8308 1.383 . S
C8307 H8315 0.929 . S
C8308 C8307 1.383 . S
C8308 C8309 1.377 . S
C8309 H8293 0.930 . S
C8309 C8308 1.377 . S
C8309 C8310 1.379 . S
C8310 H8294 0.931 . S
C8310 C8304 1.383 . S
C8310 C8309 1.379 . S
H8311 C8305 0.959 . S
H8312 C8305 0.961 . S
H8313 C8305 0.960 . S
H8314 C8306 0.930 . S
H8315 C8307 0.929 . S
H8316 C8324 0.929 . S
H8317 C8326 0.930 . S
H8318 C8328 0.930 . S
H8319 C8331 0.929 . S
H8320 C8334 0.930 . S
H8321 C8336 0.960 . S
H8322 C8336 0.960 . S
H8323 C8336 0.960 . S
C8324 H8316 0.929 . S
C8324 C8325 1.377 . S
C8324 C8326 1.384 . S
C8325 C8324 1.377 . S
C8325 C8331 1.390 . S
C8326 H8317 0.930 . S
C8326 C8324 1.384 . S
C8326 C8327 1.372 . S
C8327 C8326 1.372 . S
C8327 C8328 1.400 . S
C8327 C8332 1.490 . S
C8328 H8318 0.930 . S
C8328 C8327 1.400 . S
C8328 C8331 1.386 . S
H8329 C8345 0.930 . S
H8330 C8346 0.931 . S
C8331 H8319 0.929 . S
C8331 C8325 1.390 . S
C8331 C8328 1.386 . S
C8332 C8327 1.490 . S
C8332 C8334 1.395 . S
C8332 C8335 1.403 . S
H8333 C8339 0.930 . S
C8334 H8320 0.930 . S
C8334 C8332 1.395 . S
C8334 C8337 1.403 . S
C8335 C8332 1.403 . S
C8335 C8336 1.524 . S
C8335 C8339 1.400 . S
C8336 H8321 0.960 . S
C8336 H8322 0.960 . S
C8336 H8323 0.960 . S
C8336 C8335 1.524 . S
C8337 C8334 1.403 . S
C8337 C8338 1.392 . S
C8337 C8341 1.495 . S
C8338 C8337 1.392 . S
C8338 C8339 1.385 . S
C8338 C8340 1.478 . S
C8339 H8333 0.930 . S
C8339 C8335 1.400 . S
C8339 C8338 1.385 . S
C8340 C8338 1.478 . S
C8340 C8342 1.381 . S
C8340 C8346 1.383 . S
C8341 C8337 1.495 . S
C8341 H8347 0.959 . S
C8341 H8348 0.961 . S
C8341 H8349 0.960 . S
C8342 C8340 1.381 . S
C8342 C8343 1.394 . S
C8342 H8350 0.930 . S
C8343 C8342 1.394 . S
C8343 C8344 1.383 . S
C8343 H8351 0.929 . S
C8344 C8343 1.383 . S
C8344 C8345 1.377 . S
C8345 H8329 0.930 . S
C8345 C8344 1.377 . S
C8345 C8346 1.379 . S
C8346 H8330 0.931 . S
C8346 C8340 1.383 . S
C8346 C8345 1.379 . S
H8347 C8341 0.959 . S
H8348 C8341 0.961 . S
H8349 C8341 0.960 . S
H8350 C8342 0.930 . S
H8351 C8343 0.929 . S
H8352 C8360 0.929 . S
H8353 C8362 0.930 . S
H8354 C8364 0.930 . S
H8355 C8367 0.929 . S
H8356 C8370 0.930 . S
H8357 C8372 0.960 . S
H8358 C8372 0.960 . S
H8359 C8372 0.960 . S
C8360 H8352 0.929 . S
C8360 C8361 1.377 . S
C8360 C8362 1.384 . S
C8361 C8360 1.377 . S
C8361 C8367 1.390 . S
C8362 H8353 0.930 . S
C8362 C8360 1.384 . S
C8362 C8363 1.372 . S
C8363 C8362 1.372 . S
C8363 C8364 1.400 . S
C8363 C8368 1.490 . S
C8364 H8354 0.930 . S
C8364 C8363 1.400 . S
C8364 C8367 1.386 . S
H8365 C8381 0.930 . S
H8366 C8382 0.931 . S
C8367 H8355 0.929 . S
C8367 C8361 1.390 . S
C8367 C8364 1.386 . S
C8368 C8363 1.490 . S
C8368 C8370 1.395 . S
C8368 C8371 1.403 . S
H8369 C8375 0.930 . S
C8370 H8356 0.930 . S
C8370 C8368 1.395 . S
C8370 C8373 1.403 . S
C8371 C8368 1.403 . S
C8371 C8372 1.524 . S
C8371 C8375 1.400 . S
C8372 H8357 0.960 . S
C8372 H8358 0.960 . S
C8372 H8359 0.960 . S
C8372 C8371 1.524 . S
C8373 C8370 1.403 . S
C8373 C8374 1.392 . S
C8373 C8377 1.495 . S
C8374 C8373 1.392 . S
C8374 C8375 1.385 . S
C8374 C8376 1.478 . S
C8375 H8369 0.930 . S
C8375 C8371 1.400 . S
C8375 C8374 1.385 . S
C8376 C8374 1.478 . S
C8376 C8378 1.381 . S
C8376 C8382 1.383 . S
C8377 C8373 1.495 . S
C8377 H8383 0.959 . S
C8377 H8384 0.961 . S
C8377 H8385 0.960 . S
C8378 C8376 1.381 . S
C8378 C8379 1.394 . S
C8378 H8386 0.930 . S
C8379 C8378 1.394 . S
C8379 C8380 1.383 . S
C8379 H8387 0.929 . S
C8380 C8379 1.383 . S
C8380 C8381 1.377 . S
C8381 H8365 0.930 . S
C8381 C8380 1.377 . S
C8381 C8382 1.379 . S
C8382 H8366 0.931 . S
C8382 C8376 1.383 . S
C8382 C8381 1.379 . S
H8383 C8377 0.959 . S
H8384 C8377 0.961 . S
H8385 C8377 0.960 . S
H8386 C8378 0.930 . S
H8387 C8379 0.929 . S
H8388 C8396 0.929 . S
H8389 C8398 0.930 . S
H8390 C8400 0.930 . S
H8391 C8403 0.929 . S
H8392 C8406 0.930 . S
H8393 C8408 0.960 . S
H8394 C8408 0.960 . S
H8395 C8408 0.960 . S
C8396 H8388 0.929 . S
C8396 C8397 1.377 . S
C8396 C8398 1.384 . S
C8397 C8396 1.377 . S
C8397 C8403 1.390 . S
C8398 H8389 0.930 . S
C8398 C8396 1.384 . S
C8398 C8399 1.372 . S
C8399 C8398 1.372 . S
C8399 C8400 1.400 . S
C8399 C8404 1.490 . S
C8400 H8390 0.930 . S
C8400 C8399 1.400 . S
C8400 C8403 1.386 . S
H8401 C8417 0.930 . S
H8402 C8418 0.931 . S
C8403 H8391 0.929 . S
C8403 C8397 1.390 . S
C8403 C8400 1.386 . S
C8404 C8399 1.490 . S
C8404 C8406 1.395 . S
C8404 C8407 1.403 . S
H8405 C8411 0.930 . S
C8406 H8392 0.930 . S
C8406 C8404 1.395 . S
C8406 C8409 1.403 . S
C8407 C8404 1.403 . S
C8407 C8408 1.524 . S
C8407 C8411 1.400 . S
C8408 H8393 0.960 . S
C8408 H8394 0.960 . S
C8408 H8395 0.960 . S
C8408 C8407 1.524 . S
C8409 C8406 1.403 . S
C8409 C8410 1.392 . S
C8409 C8413 1.495 . S
C8410 C8409 1.392 . S
C8410 C8411 1.385 . S
C8410 C8412 1.478 . S
C8411 H8405 0.930 . S
C8411 C8407 1.400 . S
C8411 C8410 1.385 . S
C8412 C8410 1.478 . S
C8412 C8414 1.381 . S
C8412 C8418 1.383 . S
C8413 C8409 1.495 . S
C8413 H8419 0.959 . S
C8413 H8420 0.961 . S
C8413 H8421 0.960 . S
C8414 C8412 1.381 . S
C8414 C8415 1.394 . S
C8414 H8422 0.930 . S
C8415 C8414 1.394 . S
C8415 C8416 1.383 . S
C8415 H8423 0.929 . S
C8416 C8415 1.383 . S
C8416 C8417 1.377 . S
C8417 H8401 0.930 . S
C8417 C8416 1.377 . S
C8417 C8418 1.379 . S
C8418 H8402 0.931 . S
C8418 C8412 1.383 . S
C8418 C8417 1.379 . S
H8419 C8413 0.959 . S
H8420 C8413 0.961 . S
H8421 C8413 0.960 . S
H8422 C8414 0.930 . S
H8423 C8415 0.929 . S
H8424 C8432 0.929 . S
H8425 C8434 0.930 . S
H8426 C8436 0.930 . S
H8427 C8439 0.929 . S
H8428 C8442 0.930 . S
H8429 C8444 0.960 . S
H8430 C8444 0.960 . S
H8431 C8444 0.960 . S
C8432 H8424 0.929 . S
C8432 C8433 1.377 . S
C8432 C8434 1.384 . S
C8433 C8432 1.377 . S
C8433 C8439 1.390 . S
C8434 H8425 0.930 . S
C8434 C8432 1.384 . S
C8434 C8435 1.372 . S
C8435 C8434 1.372 . S
C8435 C8436 1.400 . S
C8435 C8440 1.490 . S
C8436 H8426 0.930 . S
C8436 C8435 1.400 . S
C8436 C8439 1.386 . S
H8437 C8453 0.930 . S
H8438 C8454 0.931 . S
C8439 H8427 0.929 . S
C8439 C8433 1.390 . S
C8439 C8436 1.386 . S
C8440 C8435 1.490 . S
C8440 C8442 1.395 . S
C8440 C8443 1.403 . S
H8441 C8447 0.930 . S
C8442 H8428 0.930 . S
C8442 C8440 1.395 . S
C8442 C8445 1.403 . S
C8443 C8440 1.403 . S
C8443 C8444 1.524 . S
C8443 C8447 1.400 . S
C8444 H8429 0.960 . S
C8444 H8430 0.960 . S
C8444 H8431 0.960 . S
C8444 C8443 1.524 . S
C8445 C8442 1.403 . S
C8445 C8446 1.392 . S
C8445 C8449 1.495 . S
C8446 C8445 1.392 . S
C8446 C8447 1.385 . S
C8446 C8448 1.478 . S
C8447 H8441 0.930 . S
C8447 C8443 1.400 . S
C8447 C8446 1.385 . S
C8448 C8446 1.478 . S
C8448 C8450 1.381 . S
C8448 C8454 1.383 . S
C8449 C8445 1.495 . S
C8449 H8455 0.959 . S
C8449 H8456 0.961 . S
C8449 H8457 0.960 . S
C8450 C8448 1.381 . S
C8450 C8451 1.394 . S
C8450 H8458 0.930 . S
C8451 C8450 1.394 . S
C8451 C8452 1.383 . S
C8451 H8459 0.929 . S
C8452 C8451 1.383 . S
C8452 C8453 1.377 . S
C8453 H8437 0.930 . S
C8453 C8452 1.377 . S
C8453 C8454 1.379 . S
C8454 H8438 0.931 . S
C8454 C8448 1.383 . S
C8454 C8453 1.379 . S
H8455 C8449 0.959 . S
H8456 C8449 0.961 . S
H8457 C8449 0.960 . S
H8458 C8450 0.930 . S
H8459 C8451 0.929 . S
H8460 C8468 0.929 . S
H8461 C8470 0.930 . S
H8462 C8472 0.930 . S
H8463 C8475 0.929 . S
H8464 C8478 0.930 . S
H8465 C8480 0.960 . S
H8466 C8480 0.960 . S
H8467 C8480 0.960 . S
C8468 H8460 0.929 . S
C8468 C8469 1.377 . S
C8468 C8470 1.384 . S
C8469 C8468 1.377 . S
C8469 C8475 1.390 . S
C8470 H8461 0.930 . S
C8470 C8468 1.384 . S
C8470 C8471 1.372 . S
C8471 C8470 1.372 . S
C8471 C8472 1.400 . S
C8471 C8476 1.490 . S
C8472 H8462 0.930 . S
C8472 C8471 1.400 . S
C8472 C8475 1.386 . S
H8473 C8489 0.930 . S
H8474 C8490 0.931 . S
C8475 H8463 0.929 . S
C8475 C8469 1.390 . S
C8475 C8472 1.386 . S
C8476 C8471 1.490 . S
C8476 C8478 1.395 . S
C8476 C8479 1.403 . S
H8477 C8483 0.930 . S
C8478 H8464 0.930 . S
C8478 C8476 1.395 . S
C8478 C8481 1.403 . S
C8479 C8476 1.403 . S
C8479 C8480 1.524 . S
C8479 C8483 1.400 . S
C8480 H8465 0.960 . S
C8480 H8466 0.960 . S
C8480 H8467 0.960 . S
C8480 C8479 1.524 . S
C8481 C8478 1.403 . S
C8481 C8482 1.392 . S
C8481 C8485 1.495 . S
C8482 C8481 1.392 . S
C8482 C8483 1.385 . S
C8482 C8484 1.478 . S
C8483 H8477 0.930 . S
C8483 C8479 1.400 . S
C8483 C8482 1.385 . S
C8484 C8482 1.478 . S
C8484 C8486 1.381 . S
C8484 C8490 1.383 . S
C8485 C8481 1.495 . S
C8485 H8491 0.959 . S
C8485 H8492 0.961 . S
C8485 H8493 0.960 . S
C8486 C8484 1.381 . S
C8486 C8487 1.394 . S
C8486 H8494 0.930 . S
C8487 C8486 1.394 . S
C8487 C8488 1.383 . S
C8487 H8495 0.929 . S
C8488 C8487 1.383 . S
C8488 C8489 1.377 . S
C8489 H8473 0.930 . S
C8489 C8488 1.377 . S
C8489 C8490 1.379 . S
C8490 H8474 0.931 . S
C8490 C8484 1.383 . S
C8490 C8489 1.379 . S
H8491 C8485 0.959 . S
H8492 C8485 0.961 . S
H8493 C8485 0.960 . S
H8494 C8486 0.930 . S
H8495 C8487 0.929 . S
H8496 C8504 0.929 . S
H8497 C8506 0.930 . S
H8498 C8508 0.930 . S
H8499 C8511 0.929 . S
H8500 C8514 0.930 . S
H8501 C8516 0.960 . S
H8502 C8516 0.960 . S
H8503 C8516 0.960 . S
C8504 H8496 0.929 . S
C8504 C8505 1.377 . S
C8504 C8506 1.384 . S
C8505 C8504 1.377 . S
C8505 C8511 1.390 . S
C8506 H8497 0.930 . S
C8506 C8504 1.384 . S
C8506 C8507 1.372 . S
C8507 C8506 1.372 . S
C8507 C8508 1.400 . S
C8507 C8512 1.490 . S
C8508 H8498 0.930 . S
C8508 C8507 1.400 . S
C8508 C8511 1.386 . S
H8509 C8525 0.930 . S
H8510 C8526 0.931 . S
C8511 H8499 0.929 . S
C8511 C8505 1.390 . S
C8511 C8508 1.386 . S
C8512 C8507 1.490 . S
C8512 C8514 1.395 . S
C8512 C8515 1.403 . S
H8513 C8519 0.930 . S
C8514 H8500 0.930 . S
C8514 C8512 1.395 . S
C8514 C8517 1.403 . S
C8515 C8512 1.403 . S
C8515 C8516 1.524 . S
C8515 C8519 1.400 . S
C8516 H8501 0.960 . S
C8516 H8502 0.960 . S
C8516 H8503 0.960 . S
C8516 C8515 1.524 . S
C8517 C8514 1.403 . S
C8517 C8518 1.392 . S
C8517 C8521 1.495 . S
C8518 C8517 1.392 . S
C8518 C8519 1.385 . S
C8518 C8520 1.478 . S
C8519 H8513 0.930 . S
C8519 C8515 1.400 . S
C8519 C8518 1.385 . S
C8520 C8518 1.478 . S
C8520 C8522 1.381 . S
C8520 C8526 1.383 . S
C8521 C8517 1.495 . S
C8521 H8527 0.959 . S
C8521 H8528 0.961 . S
C8521 H8529 0.960 . S
C8522 C8520 1.381 . S
C8522 C8523 1.394 . S
C8522 H8530 0.930 . S
C8523 C8522 1.394 . S
C8523 C8524 1.383 . S
C8523 H8531 0.929 . S
C8524 C8523 1.383 . S
C8524 C8525 1.377 . S
C8525 H8509 0.930 . S
C8525 C8524 1.377 . S
C8525 C8526 1.379 . S
C8526 H8510 0.931 . S
C8526 C8520 1.383 . S
C8526 C8525 1.379 . S
H8527 C8521 0.959 . S
H8528 C8521 0.961 . S
H8529 C8521 0.960 . S
H8530 C8522 0.930 . S
H8531 C8523 0.929 . S
H8532 C8540 0.929 . S
H8533 C8542 0.930 . S
H8534 C8544 0.930 . S
H8535 C8547 0.929 . S
H8536 C8550 0.930 . S
H8537 C8552 0.960 . S
H8538 C8552 0.960 . S
H8539 C8552 0.960 . S
C8540 H8532 0.929 . S
C8540 C8541 1.377 . S
C8540 C8542 1.384 . S
C8541 C8540 1.377 . S
C8541 C8547 1.390 . S
C8542 H8533 0.930 . S
C8542 C8540 1.384 . S
C8542 C8543 1.372 . S
C8543 C8542 1.372 . S
C8543 C8544 1.400 . S
C8543 C8548 1.490 . S
C8544 H8534 0.930 . S
C8544 C8543 1.400 . S
C8544 C8547 1.386 . S
H8545 C8561 0.930 . S
H8546 C8562 0.931 . S
C8547 H8535 0.929 . S
C8547 C8541 1.390 . S
C8547 C8544 1.386 . S
C8548 C8543 1.490 . S
C8548 C8550 1.395 . S
C8548 C8551 1.403 . S
H8549 C8555 0.930 . S
C8550 H8536 0.930 . S
C8550 C8548 1.395 . S
C8550 C8553 1.403 . S
C8551 C8548 1.403 . S
C8551 C8552 1.524 . S
C8551 C8555 1.400 . S
C8552 H8537 0.960 . S
C8552 H8538 0.960 . S
C8552 H8539 0.960 . S
C8552 C8551 1.524 . S
C8553 C8550 1.403 . S
C8553 C8554 1.392 . S
C8553 C8557 1.495 . S
C8554 C8553 1.392 . S
C8554 C8555 1.385 . S
C8554 C8556 1.478 . S
C8555 H8549 0.930 . S
C8555 C8551 1.400 . S
C8555 C8554 1.385 . S
C8556 C8554 1.478 . S
C8556 C8558 1.381 . S
C8556 C8562 1.383 . S
C8557 C8553 1.495 . S
C8557 H8563 0.959 . S
C8557 H8564 0.961 . S
C8557 H8565 0.960 . S
C8558 C8556 1.381 . S
C8558 C8559 1.394 . S
C8558 H8566 0.930 . S
C8559 C8558 1.394 . S
C8559 C8560 1.383 . S
C8559 H8567 0.929 . S
C8560 C8559 1.383 . S
C8560 C8561 1.377 . S
C8561 H8545 0.930 . S
C8561 C8560 1.377 . S
C8561 C8562 1.379 . S
C8562 H8546 0.931 . S
C8562 C8556 1.383 . S
C8562 C8561 1.379 . S
H8563 C8557 0.959 . S
H8564 C8557 0.961 . S
H8565 C8557 0.960 . S
H8566 C8558 0.930 . S
H8567 C8559 0.929 . S
H8568 C8576 0.929 . S
H8569 C8578 0.930 . S
H8570 C8580 0.930 . S
H8571 C8583 0.929 . S
H8572 C8586 0.930 . S
H8573 C8588 0.960 . S
H8574 C8588 0.960 . S
H8575 C8588 0.960 . S
C8576 H8568 0.929 . S
C8576 C8577 1.377 . S
C8576 C8578 1.384 . S
C8577 C8576 1.377 . S
C8577 C8583 1.390 . S
C8578 H8569 0.930 . S
C8578 C8576 1.384 . S
C8578 C8579 1.372 . S
C8579 C8578 1.372 . S
C8579 C8580 1.400 . S
C8579 C8584 1.490 . S
C8580 H8570 0.930 . S
C8580 C8579 1.400 . S
C8580 C8583 1.386 . S
H8581 C8597 0.930 . S
H8582 C8598 0.931 . S
C8583 H8571 0.929 . S
C8583 C8577 1.390 . S
C8583 C8580 1.386 . S
C8584 C8579 1.490 . S
C8584 C8586 1.395 . S
C8584 C8587 1.403 . S
H8585 C8591 0.930 . S
C8586 H8572 0.930 . S
C8586 C8584 1.395 . S
C8586 C8589 1.403 . S
C8587 C8584 1.403 . S
C8587 C8588 1.524 . S
C8587 C8591 1.400 . S
C8588 H8573 0.960 . S
C8588 H8574 0.960 . S
C8588 H8575 0.960 . S
C8588 C8587 1.524 . S
C8589 C8586 1.403 . S
C8589 C8590 1.392 . S
C8589 C8593 1.495 . S
C8590 C8589 1.392 . S
C8590 C8591 1.385 . S
C8590 C8592 1.478 . S
C8591 H8585 0.930 . S
C8591 C8587 1.400 . S
C8591 C8590 1.385 . S
C8592 C8590 1.478 . S
C8592 C8594 1.381 . S
C8592 C8598 1.383 . S
C8593 C8589 1.495 . S
C8593 H8599 0.959 . S
C8593 H8600 0.961 . S
C8593 H8601 0.960 . S
C8594 C8592 1.381 . S
C8594 C8595 1.394 . S
C8594 H8602 0.930 . S
C8595 C8594 1.394 . S
C8595 C8596 1.383 . S
C8595 H8603 0.929 . S
C8596 C8595 1.383 . S
C8596 C8597 1.377 . S
C8597 H8581 0.930 . S
C8597 C8596 1.377 . S
C8597 C8598 1.379 . S
C8598 H8582 0.931 . S
C8598 C8592 1.383 . S
C8598 C8597 1.379 . S
H8599 C8593 0.959 . S
H8600 C8593 0.961 . S
H8601 C8593 0.960 . S
H8602 C8594 0.930 . S
H8603 C8595 0.929 . S
H8604 C8612 0.929 . S
H8605 C8614 0.930 . S
H8606 C8616 0.930 . S
H8607 C8619 0.929 . S
H8608 C8622 0.930 . S
H8609 C8624 0.960 . S
H8610 C8624 0.960 . S
H8611 C8624 0.960 . S
C8612 H8604 0.929 . S
C8612 C8613 1.377 . S
C8612 C8614 1.384 . S
C8613 C8612 1.377 . S
C8613 C8619 1.390 . S
C8614 H8605 0.930 . S
C8614 C8612 1.384 . S
C8614 C8615 1.372 . S
C8615 C8614 1.372 . S
C8615 C8616 1.400 . S
C8615 C8620 1.490 . S
C8616 H8606 0.930 . S
C8616 C8615 1.400 . S
C8616 C8619 1.386 . S
H8617 C8633 0.930 . S
H8618 C8634 0.931 . S
C8619 H8607 0.929 . S
C8619 C8613 1.390 . S
C8619 C8616 1.386 . S
C8620 C8615 1.490 . S
C8620 C8622 1.395 . S
C8620 C8623 1.403 . S
H8621 C8627 0.930 . S
C8622 H8608 0.930 . S
C8622 C8620 1.395 . S
C8622 C8625 1.403 . S
C8623 C8620 1.403 . S
C8623 C8624 1.524 . S
C8623 C8627 1.400 . S
C8624 H8609 0.960 . S
C8624 H8610 0.960 . S
C8624 H8611 0.960 . S
C8624 C8623 1.524 . S
C8625 C8622 1.403 . S
C8625 C8626 1.392 . S
C8625 C8629 1.495 . S
C8626 C8625 1.392 . S
C8626 C8627 1.385 . S
C8626 C8628 1.478 . S
C8627 H8621 0.930 . S
C8627 C8623 1.400 . S
C8627 C8626 1.385 . S
C8628 C8626 1.478 . S
C8628 C8630 1.381 . S
C8628 C8634 1.383 . S
C8629 C8625 1.495 . S
C8629 H8635 0.959 . S
C8629 H8636 0.961 . S
C8629 H8637 0.960 . S
C8630 C8628 1.381 . S
C8630 C8631 1.394 . S
C8630 H8638 0.930 . S
C8631 C8630 1.394 . S
C8631 C8632 1.383 . S
C8631 H8639 0.929 . S
C8632 C8631 1.383 . S
C8632 C8633 1.377 . S
C8633 H8617 0.930 . S
C8633 C8632 1.377 . S
C8633 C8634 1.379 . S
C8634 H8618 0.931 . S
C8634 C8628 1.383 . S
C8634 C8633 1.379 . S
H8635 C8629 0.959 . S
H8636 C8629 0.961 . S
H8637 C8629 0.960 . S
H8638 C8630 0.930 . S
H8639 C8631 0.929 . S
C3465 C1781 1.615 . S
C3484 C1949 1.555 . S
C3501 C981 1.642 . S
C3520 C1981 1.692 . S
C3556 C2013 1.679 . S
C3537 C1861 1.681 . S
C3573 C1061 1.697 . S
C3592 C2045 1.549 . S
C3609 C1901 1.644 . S
C3628 C2077 1.581 . S
C3645 C941 1.616 . S
C3664 C2109 1.512 . S
C3681 C1821 1.705 . S
C3700 C2141 1.703 . S
C3717 C1021 1.683 . S
C3736 C2173 1.675 . S
C3753 C661 1.583 . S
C3772 C2205 1.618 . S
C3789 C1621 1.692 . S
C3808 C2237 1.612 . S
C3825 C741 1.616 . S
C3844 C2269 1.655 . S
C3861 C1581 1.655 . S
C3880 C2301 1.695 . S
C3897 C901 1.610 . S
C3916 C2333 1.534 . S
C3952 C2365 1.707 . S
C3933 C1661 1.718 . S
C3988 C2397 1.676 . S
C3969 C821 1.636 . S
C4005 C1141 1.691 . S
C4024 C2429 1.556 . S
C4060 C2461 1.708 . S
C4041 C781 1.709 . S
C4096 C2493 1.677 . S
C4077 C1701 1.639 . S
C4113 C861 1.699 . S
C4132 C2525 1.604 . S
C4149 C1181 1.613 . S
C4168 C2557 1.654 . S
C4204 C2589 1.615 . S
C4185 C1101 1.584 . S
C4221 C1421 1.599 . S
C4240 C2621 1.567 . S
C4276 C2653 1.492 . S
C4257 C381 1.626 . S
C4312 C2685 1.495 . S
C4293 C1501 1.620 . S
C4348 C2717 1.589 . S
C4329 C461 1.624 . S
C4384 C2749 1.528 . S
C4365 C1541 1.613 . S
C4401 C341 1.598 . S
C4420 C2781 1.514 . S
C4456 C2813 1.516 . S
C4437 C1461 1.634 . S
C4473 C421 1.614 . S
C4492 C2845 1.517 . S
C4528 C2877 1.662 . S
C4509 C61 1.624 . S
C4564 C2909 1.621 . S
C4545 C1261 1.701 . S
C4581 C141 1.639 . S
C4600 C2941 1.674 . S
C4636 C2973 1.666 . S
C4617 C1221 1.682 . S
C4672 C3005 1.568 . S
C4653 C301 1.697 . S
C4689 C1301 1.697 . S
C4708 C3037 1.688 . S
C4744 C3069 1.684 . S
C4725 C221 1.640 . S
C4780 C3101 1.584 . S
C4761 C541 1.693 . S
C4797 C181 1.689 . S
C4816 C3133 1.684 . S
C4852 C3165 1.675 . S
C4833 C1341 1.644 . S
C4869 C261 1.701 . S
C4888 C3197 1.595 . S
C4924 C3229 1.676 . S
C4905 C581 1.646 . S
C4941 C501 1.620 . S
C4960 C3261 1.669 . S
C4977 C701 1.694 . S
C4996 C3293 1.614 . S
C5032 C3325 1.695 . S
C5013 C621 1.656 . S
C5049 C1741 1.606 . S
C5068 C3357 1.468 . S
C5085 C101 1.690 . S
C5104 C3389 1.605 . S
C5140 C3421 1.691 . S
C5121 C21 1.695 . S
C5176 C3453 1.625 . S
C5157 C1381 1.700 . S
C5193 C1335 1.946 . S
C5212 C1943 1.850 . S
C5229 C535 1.501 . S
C5248 C1975 1.515 . S
C5265 C1362 2.077 . S
C5284 C2001 2.077 . S
C5320 C2033 1.449 . S
C5301 C1295 1.494 . S
C5337 C575 1.959 . S
C5356 C2071 1.804 . S
C5373 C1215 1.470 . S
C5392 C2097 1.386 . S
C5428 C2129 2.050 . S
C5409 C495 2.006 . S
C5445 C1242 1.524 . S
C5464 C2167 1.547 . S
C5481 C1255 1.883 . S
C5500 C2193 1.933 . S
C5536 C2225 1.453 . S
C5517 C562 1.492 . S
C5553 C1202 1.874 . S
C5572 C2257 1.874 . S
C5608 C2295 1.548 . S
C5589 C482 1.508 . S
C5625 C522 1.910 . S
C5644 C2327 1.766 . S
C5661 C1375 1.593 . S
C5680 C2359 1.599 . S
C5716 C2385 1.878 . S
C5697 C1282 1.882 . S
C5752 C2417 1.474 . S
C5733 C1322 1.497 . S
C5769 C455 1.872 . S
C5788 C2289 1.926 . S
C5805 C1415 1.910 . S
C5824 C2449 1.966 . S
C5841 C1455 1.508 . S
C5860 C2487 1.513 . S
C5896 C2519 1.770 . S
C5877 C1482 1.922 . S
C5932 C2321 1.422 . S
C5913 C442 1.465 . S
C5949 C362 1.942 . S
C5968 C2231 1.788 . S
C5985 C1495 1.496 . S
C6004 C2551 1.503 . S
C6040 C2583 1.505 . S
C6021 C1402 1.467 . S
C6076 C2615 1.480 . S
C6057 C1695 1.522 . S
C6093 C1135 1.866 . S
C6112 C2641 1.723 . S
C6148 C2679 1.340 . S
C6129 C1722 1.431 . S
C6184 C2705 1.772 . S
C6165 C1655 1.890 . S
C6201 C1175 1.517 . S
C6220 C2743 1.408 . S
C6237 C1562 1.853 . S
C6256 C2769 1.795 . S
C6273 C1095 1.454 . S
C6292 C2807 1.402 . S
C6328 C2833 1.735 . S
C6309 C1615 1.837 . S
C6364 C2865 1.496 . S
C6345 C1602 1.501 . S
C6381 C1162 1.891 . S
C6400 C2897 1.839 . S
C6436 C2929 1.527 . S
C6417 C1575 1.519 . S
C6453 C1082 1.808 . S
C6472 C2967 1.873 . S
C6508 C2999 1.412 . S
C6489 C1122 1.507 . S
C6525 C1735 1.829 . S
C6544 C3031 1.865 . S
C6580 C3057 1.536 . S
C6561 C1642 1.538 . S
C6597 C1682 1.869 . S
C6616 C3089 1.786 . S
C6633 C1042 1.540 . S
C6652 C2961 1.537 . S
C6669 C1775 1.482 . S
C6688 C3121 1.494 . S
C6705 C1815 2.047 . S
C6724 C3159 2.097 . S
C6760 C3191 1.530 . S
C6741 C1842 1.587 . S
C6777 C1055 1.948 . S
C6796 C2993 1.815 . S
C6813 C975 1.598 . S
C6832 C2903 1.507 . S
C6868 C3223 2.092 . S
C6849 C1855 2.045 . S
C6885 C1762 1.890 . S
C6904 C3255 1.966 . S
C6940 C2103 1.852 . S
C6921 C215 1.951 . S
C6976 C2135 1.524 . S
C6957 C255 1.517 . S
C7012 C2161 2.079 . S
C6993 C282 2.069 . S
C7048 C2065 1.421 . S
C7029 C175 1.478 . S
C7084 C2039 1.889 . S
C7065 C135 1.985 . S
C7101 C15 1.472 . S
C7120 C1937 1.374 . S
C7137 C55 1.977 . S
C7156 C1969 2.040 . S
C7173 C82 1.522 . S
C7192 C2007 1.549 . S
C7209 C95 1.863 . S
C7228 C2577 1.903 . S
C7245 C122 1.500 . S
C7264 C3281 1.486 . S
C7281 C2 1.894 . S
C7300 C2545 1.904 . S
C7317 C42 1.499 . S
C7336 C3319 1.546 . S
C7353 C242 1.908 . S
C7372 C3351 1.747 . S
C7408 C2455 1.597 . S
C7389 C295 1.581 . S
C7425 C162 1.886 . S
C7444 C2481 1.896 . S
C7461 C202 1.500 . S
C7480 C2513 1.459 . S
C7516 C3313 1.921 . S
C7497 C1535 1.869 . S
C7533 C335 1.919 . S
C7552 C2353 1.959 . S
C7569 C375 1.500 . S
C7588 C2391 1.505 . S
C7605 C402 1.917 . S
C7624 C2423 1.732 . S
C7660 C3345 1.440 . S
C7641 C1522 1.460 . S
C7696 C3287 1.760 . S
C7677 C1442 1.944 . S
C7732 C2263 1.492 . S
C7713 C415 1.485 . S
C7749 C322 1.482 . S
C7768 C2199 1.515 . S
C7785 C815 1.529 . S
C7804 C2775 1.468 . S
C7821 C855 1.872 . S
C7840 C2801 1.776 . S
C7857 C882 1.426 . S
C7876 C2839 1.311 . S
C7893 C775 1.888 . S
C7912 C2737 1.754 . S
C7948 C2711 1.452 . S
C7929 C735 1.515 . S
C7984 C2609 1.795 . S
C7965 C602 1.846 . S
C8020 C2647 1.408 . S
C8001 C655 1.451 . S
C8037 C695 1.841 . S
C8056 C2673 1.732 . S
C8092 C3249 1.497 . S
C8073 C682 1.502 . S
C8109 C722 1.894 . S
C8128 C3377 1.808 . S
C8145 C615 1.514 . S
C8164 C3217 1.527 . S
C8200 C3415 1.879 . S
C8181 C642 1.810 . S
C8217 C842 1.526 . S
C8236 C3447 1.433 . S
C8272 C3127 1.852 . S
C8253 C895 1.817 . S
C8289 C762 1.521 . S
C8308 C3153 1.515 . S
C8325 C802 1.878 . S
C8344 C3185 1.789 . S
C8361 C1895 1.528 . S
C8380 C3409 1.540 . S
C8416 C3025 1.495 . S
C8397 C935 1.484 . S
C8433 C962 2.008 . S
C8452 C3063 2.104 . S
C8469 C1002 1.582 . S
C8488 C3095 1.523 . S
C8505 C1882 1.919 . S
C8524 C3441 1.841 . S
C8541 C1802 1.610 . S
C8560 C3383 1.508 . S
C8596 C2935 2.092 . S
C8577 C1015 2.046 . S
C8632 C2871 1.967 . S
C8613 C922 1.893 . S
