# Generated by pormake.
# Topology hwx, (6,3)-cn, num edge types: 1
# Building blocks:
#     Node 0, Type 0, BuildingBlock: IZENUY_clean_sbu_0, # of connection points: 6
#     Node 1, Type 0, BuildingBlock: IZENUY_clean_sbu_0, # of connection points: 6
#     Node 2, Type 0, BuildingBlock: IZENUY_clean_sbu_0, # of connection points: 6
#     Node 3, Type 0, BuildingBlock: IZENUY_clean_sbu_0, # of connection points: 6
#     Node 4, Type 1, BuildingBlock: CUQRIR_clean_linker_1, # of connection points: 3
#     Node 5, Type 1, BuildingBlock: CUQRIR_clean_linker_1, # of connection points: 3
#     Node 6, Type 1, BuildingBlock: CUQRIR_clean_linker_1, # of connection points: 3
#     Node 7, Type 1, BuildingBlock: CUQRIR_clean_linker_1, # of connection points: 3
#     Node 8, Type 1, BuildingBlock: CUQRIR_clean_linker_1, # of connection points: 3
#     Node 9, Type 1, BuildingBlock: CUQRIR_clean_linker_1, # of connection points: 3
#     Node 10, Type 1, BuildingBlock: CUQRIR_clean_linker_1, # of connection points: 3
#     Node 11, Type 1, BuildingBlock: CUQRIR_clean_linker_1, # of connection points: 3
#     Edge 12, Type (0, 1), BuildingBlock: KIFKEQ_clean_linker_1, # of connection points: 2
#     Edge 13, Type (0, 1), BuildingBlock: KIFKEQ_clean_linker_1, # of connection points: 2
#     Edge 14, Type (0, 1), BuildingBlock: KIFKEQ_clean_linker_1, # of connection points: 2
#     Edge 15, Type (0, 1), BuildingBlock: KIFKEQ_clean_linker_1, # of connection points: 2
#     Edge 16, Type (0, 1), BuildingBlock: KIFKEQ_clean_linker_1, # of connection points: 2
#     Edge 17, Type (0, 1), BuildingBlock: KIFKEQ_clean_linker_1, # of connection points: 2
#     Edge 18, Type (0, 1), BuildingBlock: KIFKEQ_clean_linker_1, # of connection points: 2
#     Edge 19, Type (0, 1), BuildingBlock: KIFKEQ_clean_linker_1, # of connection points: 2
#     Edge 20, Type (0, 1), BuildingBlock: KIFKEQ_clean_linker_1, # of connection points: 2
#     Edge 21, Type (0, 1), BuildingBlock: KIFKEQ_clean_linker_1, # of connection points: 2
#     Edge 22, Type (0, 1), BuildingBlock: KIFKEQ_clean_linker_1, # of connection points: 2
#     Edge 23, Type (0, 1), BuildingBlock: KIFKEQ_clean_linker_1, # of connection points: 2
#     Edge 24, Type (0, 1), BuildingBlock: KIFKEQ_clean_linker_1, # of connection points: 2
#     Edge 25, Type (0, 1), BuildingBlock: KIFKEQ_clean_linker_1, # of connection points: 2
#     Edge 26, Type (0, 1), BuildingBlock: KIFKEQ_clean_linker_1, # of connection points: 2
#     Edge 27, Type (0, 1), BuildingBlock: KIFKEQ_clean_linker_1, # of connection points: 2
#     Edge 28, Type (0, 1), BuildingBlock: KIFKEQ_clean_linker_1, # of connection points: 2
#     Edge 29, Type (0, 1), BuildingBlock: KIFKEQ_clean_linker_1, # of connection points: 2
#     Edge 30, Type (0, 1), BuildingBlock: KIFKEQ_clean_linker_1, # of connection points: 2
#     Edge 31, Type (0, 1), BuildingBlock: KIFKEQ_clean_linker_1, # of connection points: 2
#     Edge 32, Type (0, 1), BuildingBlock: KIFKEQ_clean_linker_1, # of connection points: 2
#     Edge 33, Type (0, 1), BuildingBlock: KIFKEQ_clean_linker_1, # of connection points: 2
#     Edge 34, Type (0, 1), BuildingBlock: KIFKEQ_clean_linker_1, # of connection points: 2
#     Edge 35, Type (0, 1), BuildingBlock: KIFKEQ_clean_linker_1, # of connection points: 2
# Relax obj value: 0.001
# Max RMSD: 0.072
# Mean RMSD: 0.053
data_MOF--net-hwx--node1-IZENUY_clean_sbu_0--node2-CUQRIR_clean_linker_1--edge1-KIFKEQ_clean_linker_1
_symmetry_space_group_name_H-M    P1
_symmetry_Int_Tables_number       1
_symmetry_cell_setting            triclinic
loop_
_symmetry_equiv_pos_as_xyz
'x, y, z'
_cell_length_a     48.838336
_cell_length_b     48.834493
_cell_length_c     19.195397
_cell_angle_alpha  89.772552
_cell_angle_beta   90.247453
_cell_angle_gamma 89.951576
loop_
_atom_site_label
_atom_site_type_symbol
_atom_site_fract_x
_atom_site_fract_y
_atom_site_fract_z
_atom_type_partial_charge
Fe0 Fe 0.24552 0.24591 0.09097 0.0
Fe1 Fe 0.24393 0.24742 0.93109 0.0
O2 O 0.23188 0.23378 1.01106 0.0
Fe3 Fe 0.20624 0.20812 0.0111 0.0
O4 O 0.18312 0.22936 0.06184 0.0
O5 O 0.21367 0.2417 0.13999 0.0
O6 O 0.23445 0.28065 0.07197 0.0
C7 C 0.24093 0.29403 0.01821 0.0
C8 C 0.24181 0.19143 0.12174 0.0
O9 O 0.25036 0.28194 0.96522 0.0
C10 C 0.23739 0.19084 0.90144 0.0
O11 O 0.27999 0.25235 0.05666 0.0
O12 O 0.27867 0.23643 0.94989 0.0
O13 O 0.21901 0.19073 0.08996 0.0
O14 O 0.25734 0.21197 0.11606 0.0
C15 C 0.18947 0.24367 0.90058 0.0
O16 O 0.23972 0.21554 0.88211 0.0
O17 O 0.22747 0.18499 0.96034 0.0
C18 C 0.29207 0.24303 1.00351 0.0
O19 O 0.20999 0.25921 0.90626 0.0
O20 O 0.1888 0.22085 0.93224 0.0
C21 C 0.18897 0.23933 0.1207 0.0
Fe22 Fe 0.27039 0.74669 0.59776 0.0
Fe23 Fe 0.30938 0.708 0.51991 0.0
O24 O 0.28328 0.73331 0.51859 0.0
Fe25 Fe 0.27 0.74529 0.43785 0.0
O26 O 0.28049 0.78015 0.45653 0.0
O27 O 0.26407 0.78122 0.56287 0.0
O28 O 0.30405 0.75865 0.62484 0.0
C29 C 0.3248 0.74339 0.63129 0.0
C30 C 0.2228 0.74204 0.52256 0.0
O31 O 0.32608 0.72075 0.59939 0.0
C32 C 0.27479 0.69099 0.40807 0.0
O33 O 0.27439 0.7147 0.6469 0.0
O34 O 0.28824 0.68443 0.57007 0.0
O35 O 0.23528 0.75149 0.47012 0.0
O36 O 0.23579 0.73553 0.5771 0.0
C37 C 0.32678 0.73952 0.41054 0.0
O38 O 0.29745 0.69063 0.44054 0.0
O39 O 0.25875 0.71116 0.41324 0.0
C40 C 0.27742 0.69008 0.628 0.0
O41 O 0.3325 0.72969 0.46987 0.0
O42 O 0.30216 0.74139 0.39032 0.0
C43 C 0.27355 0.79343 0.50985 0.0
Fe44 Fe 0.7694 0.77417 0.93088 0.0
Fe45 Fe 0.77095 0.77217 0.091 0.0
O46 O 0.78305 0.786 0.01121 0.0
Fe47 Fe 0.80872 0.81169 0.01166 0.0
O48 O 0.79608 0.82927 0.93295 0.0
O49 O 0.75768 0.80826 0.90645 0.0
O50 O 0.73494 0.76763 0.96459 0.0
C51 C 0.72276 0.77662 0.01786 0.0
C52 C 0.82599 0.78073 0.90166 0.0
O53 O 0.73606 0.78291 0.07195 0.0
C54 C 0.82545 0.77612 0.12228 0.0
O55 O 0.78024 0.73931 0.94901 0.0
O56 O 0.76499 0.7377 0.05656 0.0
O57 O 0.83187 0.79054 0.96069 0.0
O58 O 0.8013 0.77847 0.88226 0.0
C59 C 0.77727 0.82871 0.12113 0.0
O60 O 0.80495 0.76056 0.11644 0.0
O61 O 0.82615 0.7989 0.09048 0.0
C62 C 0.77422 0.72586 1.00303 0.0
O63 O 0.77484 0.80399 0.14011 0.0
O64 O 0.78743 0.83469 0.06257 0.0
C65 C 0.7733 0.82875 0.90108 0.0
Fe66 Fe 0.70632 0.31186 0.5064 0.0
Fe67 Fe 0.74392 0.27235 0.58712 0.0
O68 O 0.73192 0.28608 0.50686 0.0
Fe69 Fe 0.74557 0.27401 0.42706 0.0
O70 O 0.75734 0.30801 0.40235 0.0
O71 O 0.71899 0.32922 0.42777 0.0
O72 O 0.72766 0.33489 0.55752 0.0
C73 C 0.73771 0.32895 0.61647 0.0
C74 C 0.68899 0.2807 0.39648 0.0
O75 O 0.73998 0.30425 0.63581 0.0
C76 C 0.74066 0.22587 0.49983 0.0
O77 O 0.68888 0.29928 0.58495 0.0
O78 O 0.70991 0.26084 0.61146 0.0
O79 O 0.71367 0.27829 0.37762 0.0
O80 O 0.68314 0.2907 0.45522 0.0
C81 C 0.79212 0.2765 0.51545 0.0
O82 O 0.74995 0.23782 0.5533 0.0
O83 O 0.73467 0.23921 0.44545 0.0
C84 C 0.68947 0.27649 0.61669 0.0
O85 O 0.77879 0.28299 0.56904 0.0
O86 O 0.77999 0.26748 0.46187 0.0
C87 C 0.74176 0.32855 0.39637 0.0
C88 C 0.23835 0.51694 0.96322 0.0
N89 N 0.24104 0.54322 0.98405 0.0
N90 N 0.2356 0.50004 0.01876 0.0
C91 C 0.2392 0.50769 0.88867 0.0
C92 C 0.23694 0.517 0.07432 0.0
N93 N 0.24038 0.54333 0.05329 0.0
C94 C 0.23671 0.50759 0.14906 0.0
H95 H 0.22811 0.48804 0.88203 0.0
H96 H 0.26086 0.50465 0.87333 0.0
H97 H 0.23013 0.52347 0.85376 0.0
H98 H 0.25765 0.50089 0.16401 0.0
H99 H 0.22277 0.48993 0.15614 0.0
H100 H 0.23025 0.52433 0.18427 0.0
C101 C 1.00071 0.74737 0.56896 0.0
N102 N 0.97419 0.74953 0.54875 0.0
N103 N 0.01685 0.74162 0.51383 0.0
C104 C 0.01097 0.75142 0.64225 0.0
C105 C 0.99921 0.74026 0.45929 0.0
N106 N 0.97316 0.74467 0.48066 0.0
C107 C 0.00748 0.73571 0.38484 0.0
H108 H 0.01462 0.77357 0.65086 0.0
H109 H 0.03051 0.74041 0.65146 0.0
H110 H 0.99559 0.74427 0.68058 0.0
H111 H 0.02988 0.73777 0.37755 0.0
H112 H 0.99663 0.75043 0.3502 0.0
H113 H 1.00135 0.71475 0.36908 0.0
C114 C 0.77385 0.50281 0.06044 0.0
N115 N 0.77065 0.47656 0.03906 0.0
N116 N 0.77301 0.52028 1.00532 0.0
C117 C 0.77502 0.51157 0.13548 0.0
C118 C 0.76909 0.50369 0.94978 0.0
N119 N 0.76727 0.47722 0.97032 0.0
C120 C 0.7691 0.51309 0.87498 0.0
H121 H 0.76624 0.53234 0.14208 0.0
H122 H 0.79673 0.51196 0.15275 0.0
H123 H 0.76374 0.49701 0.1693 0.0
H124 H 0.78111 0.53222 0.86875 0.0
H125 H 0.74772 0.51708 0.85801 0.0
H126 H 0.77783 0.49709 0.84068 0.0
C127 C 0.0138 0.26989 0.45643 0.0
N128 N 0.04059 0.26883 0.4747 0.0
N129 N 0.99801 0.27486 0.5128 0.0
C130 C 1.00314 0.26784 0.38296 0.0
C131 C 0.01617 0.27699 0.56603 0.0
N132 N 0.04212 0.27361 0.54276 0.0
C133 C 0.00837 0.27966 0.64148 0.0
H134 H 0.9836 0.27922 0.37685 0.0
H135 H 0.99937 0.246 0.37049 0.0
H136 H 0.01829 0.27601 0.34534 0.0
H137 H 0.98743 0.27172 0.6509 0.0
H138 H 0.00889 0.30162 0.656 0.0
H139 H 0.023 0.26844 0.67555 0.0
C140 C 0.7411 1.00304 0.56325 0.0
N141 N 0.74437 0.97672 0.54257 0.0
N142 N 0.74187 0.0203 0.50771 0.0
C143 C 0.73989 0.01208 0.63803 0.0
C144 C 0.74582 1.00351 0.45268 0.0
N145 N 0.74773 0.97712 0.4739 0.0
C146 C 0.74578 0.01263 0.37764 0.0
H147 H 0.71819 0.01253 0.6548 0.0
H148 H 0.74863 0.03289 0.64432 0.0
H149 H 0.7512 0.99765 0.67247 0.0
H150 H 0.76715 0.01655 0.36101 0.0
H151 H 0.73374 0.03173 0.37069 0.0
H152 H 0.73707 0.9965 0.34357 0.0
C153 C 0.51582 0.24363 0.94837 0.0
N154 N 0.54187 0.24711 0.97137 0.0
N155 N 0.49791 0.24574 1.0018 0.0
C156 C 0.50766 0.24083 0.87305 0.0
C157 C 0.51395 0.25076 0.05798 0.0
N158 N 0.54064 0.25191 0.03943 0.0
C159 C 0.50366 0.25277 0.13158 0.0
H160 H 0.52204 0.2521 0.83876 0.0
H161 H 0.48661 0.24862 0.86383 0.0
H162 H 0.50827 0.21886 0.85868 0.0
H163 H 0.4842 0.24133 0.13791 0.0
H164 H 0.49986 0.2746 0.14413 0.0
H165 H 0.51903 0.24462 0.16902 0.0
C166 C 0.27431 0.01758 0.45643 0.0
N167 N 0.27101 0.04361 0.47934 0.0
N168 N 0.27208 0.99953 0.50989 0.0
C169 C 0.27705 0.00962 0.38112 0.0
C170 C 0.26716 0.01547 0.56602 0.0
N171 N 0.2662 0.04223 0.5474 0.0
C172 C 0.26507 1.00498 0.63964 0.0
H173 H 0.2691 0.98866 0.37193 0.0
H174 H 0.29902 0.01007 0.36676 0.0
H175 H 0.26588 0.0242 0.34679 0.0
H176 H 0.2764 0.98542 0.64603 0.0
H177 H 0.24322 1.0013 0.65214 0.0
H178 H 0.2733 0.02019 0.67706 0.0
C179 C 0.501 0.77277 0.07423 0.0
N180 N 0.47432 0.77082 0.05528 0.0
N181 N 0.51678 0.77833 0.01821 0.0
C182 C 0.51174 0.76868 0.14713 0.0
C183 C 0.49877 0.77979 0.96444 0.0
N184 N 0.47285 0.77563 0.98711 0.0
C185 C 0.50654 0.78418 0.88948 0.0
H186 H 0.49666 0.77594 0.186 0.0
H187 H 0.53139 0.77956 0.15523 0.0
H188 H 0.51534 0.7465 0.15606 0.0
H189 H 0.49559 0.76928 0.85591 0.0
H190 H 0.5289 0.78223 0.88134 0.0
H191 H 0.50013 0.80503 0.87312 0.0
H192 H 0.19485 0.26003 0.25185 0.0
H193 H 0.13344 0.23182 0.10607 0.0
H194 H 0.15974 0.26676 0.33944 0.0
H195 H 0.09811 0.2392 0.19369 0.0
H196 H 0.04726 0.22565 0.38994 0.0
H197 H 0.08326 0.21923 0.30332 0.0
H198 H 0.12084 0.29506 0.3688 0.0
H199 H 0.0847 0.30106 0.45578 0.0
C200 C 0.17381 0.25547 0.23815 0.0
C201 C 0.16703 0.24521 0.17183 0.0
C202 C 0.15363 0.25949 0.28846 0.0
C203 C 0.12611 0.2534 0.27386 0.0
C204 C 0.1192 0.24367 0.20708 0.0
C205 C 0.13942 0.23964 0.15661 0.0
C206 C 0.06334 0.24081 0.38559 0.0
C207 C 0.06329 0.26391 0.42876 0.0
C208 C 0.08382 0.23728 0.33586 0.0
C209 C 0.10477 0.25681 0.32838 0.0
C210 C 0.10512 0.27954 0.37336 0.0
C211 C 0.08456 0.28302 0.42317 0.0
H212 H 0.29239 0.63574 0.6244 0.0
H213 H 0.24779 0.69465 0.74734 0.0
H214 H 0.28374 0.6007 0.71315 0.0
H215 H 0.23948 0.65987 0.83573 0.0
H216 H 0.2054 0.58145 0.94021 0.0
H217 H 0.21359 0.61711 0.85245 0.0
H218 H 0.29766 0.59038 0.83534 0.0
H219 H 0.28907 0.55485 0.92357 0.0
C220 C 0.28063 0.64118 0.67002 0.0
C221 C 0.27087 0.66804 0.67874 0.0
C222 C 0.27589 0.62119 0.72115 0.0
C223 C 0.26105 0.62755 0.78172 0.0
C224 C 0.25081 0.65423 0.78957 0.0
C225 C 0.25571 0.67421 0.73889 0.0
C226 C 0.22574 0.58387 0.91882 0.0
C227 C 0.24685 0.56616 0.93943 0.0
C228 C 0.23043 0.60404 0.86834 0.0
C229 C 0.25629 0.60656 0.83678 0.0
C230 C 0.27746 0.58881 0.85809 0.0
C231 C 0.27275 0.56878 0.90897 0.0
H232 H 0.83151 0.72958 0.20237 0.0
H233 H 0.8684 0.80844 0.16181 0.0
H234 H 0.8655 0.721 0.29394 0.0
H235 H 0.90223 0.79975 0.25253 0.0
H236 H 0.94125 0.78926 0.46566 0.0
H237 H 0.90424 0.79589 0.38051 0.0
H238 H 0.91537 0.71286 0.30892 0.0
H239 H 0.95199 0.70638 0.39529 0.0
C240 C 0.84692 0.745 0.21257 0.0
C241 C 0.84712 0.76973 0.17464 0.0
C242 C 0.86642 0.74006 0.26502 0.0
C243 C 0.88641 0.75982 0.28111 0.0
C244 C 0.88682 0.78432 0.24245 0.0
C245 C 0.86752 0.78917 0.18985 0.0
C246 C 0.93532 0.77239 0.43244 0.0
C247 C 0.94938 0.74739 0.43644 0.0
C248 C 0.91441 0.77619 0.38324 0.0
C249 C 0.90705 0.75499 0.33728 0.0
C250 C 0.92043 0.72957 0.34357 0.0
C251 C 0.94145 0.72587 0.39256 0.0
H252 H 0.75827 0.32273 0.74804 0.0
H253 H 0.73076 0.38457 0.60184 0.0
H254 H 0.76503 0.35765 0.83619 0.0
H255 H 0.73821 0.41971 0.69004 0.0
H256 H 0.72422 0.47047 0.885 0.0
H257 H 0.71783 0.43434 0.79863 0.0
H258 H 0.79327 0.39635 0.86762 0.0
H259 H 0.79914 0.43259 0.95465 0.0
C260 C 0.75389 0.34383 0.73436 0.0
C261 C 0.74377 0.35079 0.66779 0.0
C262 C 0.75793 0.36389 0.78501 0.0
C263 C 0.752 0.39146 0.77047 0.0
C264 C 0.74251 0.39857 0.70337 0.0
C265 C 0.73844 0.37846 0.65259 0.0
C266 C 0.73922 0.45419 0.88166 0.0
C267 C 0.76218 0.45416 0.92573 0.0
C268 C 0.73576 0.43368 0.832 0.0
C269 C 0.75525 0.41266 0.82539 0.0
C270 C 0.7778 0.41216 0.87148 0.0
C271 C 0.78119 0.43275 0.92133 0.0
H272 H 0.63347 0.28852 0.40965 0.0
H273 H 0.69489 0.25989 0.26564 0.0
H274 H 0.5982 0.28136 0.32099 0.0
H275 H 0.65986 0.25338 0.17706 0.0
H276 H 0.58467 0.2195 0.05897 0.0
H277 H 0.62084 0.22532 0.14673 0.0
H278 H 0.58369 0.30151 0.21083 0.0
H279 H 0.54764 0.29524 0.12348 0.0
C280 C 0.63946 0.28065 0.35929 0.0
C281 C 0.66705 0.2749 0.34485 0.0
C282 C 0.61928 0.27675 0.30824 0.0
C283 C 0.62623 0.26698 0.24166 0.0
C284 C 0.65373 0.2607 0.22786 0.0
C285 C 0.67386 0.26458 0.27874 0.0
C286 C 0.58465 0.23759 0.0914 0.0
C287 C 0.56349 0.25684 0.08527 0.0
C288 C 0.60522 0.24096 0.14166 0.0
C289 C 0.60496 0.26373 0.18653 0.0
C290 C 0.58416 0.28342 0.17838 0.0
C291 C 0.56367 0.28 0.12822 0.0
H292 H 0.2297 0.13532 0.91591 0.0
H293 H 0.25817 0.19665 0.77033 0.0
H294 H 0.23691 0.09999 0.8282 0.0
H295 H 0.26476 0.16153 0.68265 0.0
H296 H 0.29863 0.08624 0.56612 0.0
H297 H 0.29283 0.12245 0.65306 0.0
H298 H 0.21681 0.0853 0.71855 0.0
H299 H 0.22303 0.04923 0.63197 0.0
C300 C 0.23755 0.14128 0.8654 0.0
C301 C 0.24323 0.16888 0.85026 0.0
C302 C 0.24148 0.12106 0.81488 0.0
C303 C 0.25123 0.12794 0.7481 0.0
C304 C 0.25746 0.15544 0.7336 0.0
C305 C 0.25352 0.17562 0.78397 0.0
C306 C 0.28058 0.08621 0.59869 0.0
C307 C 0.26136 0.06503 0.59313 0.0
C308 C 0.27722 0.10681 0.64849 0.0
C309 C 0.2545 0.10659 0.6935 0.0
C310 C 0.23486 0.08576 0.686 0.0
C311 C 0.23826 0.06523 0.63628 0.0
H312 H 0.38235 0.73135 0.42438 0.0
H313 H 0.32087 0.76141 0.28049 0.0
H314 H 0.41753 0.73898 0.3362 0.0
H315 H 0.35573 0.76834 0.1925 0.0
H316 H 0.43037 0.80292 0.07569 0.0
H317 H 0.39458 0.79649 0.16344 0.0
H318 H 0.43191 0.7198 0.22528 0.0
H319 H 0.46762 0.7267 0.13786 0.0
C320 C 0.37633 0.73965 0.3742 0.0
C321 C 0.34875 0.74566 0.35961 0.0
C322 C 0.39645 0.74381 0.3234 0.0
C323 C 0.38943 0.75411 0.25703 0.0
C324 C 0.36194 0.76063 0.24315 0.0
C325 C 0.34189 0.75649 0.29371 0.0
C326 C 0.43051 0.78459 0.10762 0.0
C327 C 0.45164 0.76539 0.10086 0.0
C328 C 0.41016 0.78087 0.15788 0.0
C329 C 0.41057 0.75777 0.20211 0.0
C330 C 0.43133 0.73812 0.19333 0.0
C331 C 0.45162 0.7419 0.14313 0.0
H332 H 0.80675 0.87037 0.85901 0.0
H333 H 0.72624 0.8363 0.82368 0.0
H334 H 0.79849 0.90426 0.76821 0.0
H335 H 0.71804 0.87048 0.7322 0.0
H336 H 0.70655 0.95833 0.63287 0.0
H337 H 0.71219 0.92143 0.71898 0.0
H338 H 0.79316 0.90526 0.63918 0.0
H339 H 0.78734 0.94237 0.55388 0.0
C340 C 0.7872 0.87014 0.83216 0.0
C341 C 0.76717 0.85049 0.8488 0.0
C342 C 0.78259 0.88946 0.77954 0.0
C343 C 0.75775 0.88988 0.7424 0.0
C344 C 0.7374 0.8707 0.75995 0.0
C345 C 0.74211 0.85111 0.81232 0.0
C346 C 0.72534 0.94654 0.63357 0.0
C347 C 0.74654 0.95302 0.58723 0.0
C348 C 0.72857 0.92542 0.68246 0.0
C349 C 0.75321 0.91056 0.6863 0.0
C350 C 0.77406 0.91655 0.63814 0.0
C351 C 0.77071 0.93753 0.58893 0.0
H352 H 0.88152 0.78881 0.91517 0.0
H353 H 0.81994 0.75961 0.77113 0.0
H354 H 0.91666 0.78141 0.82698 0.0
H355 H 0.85482 0.75286 0.68307 0.0
H356 H 0.9299 0.71777 0.56813 0.0
H357 H 0.89373 0.72444 0.65465 0.0
H358 H 0.93113 0.8009 0.71603 0.0
H359 H 0.96719 0.79378 0.62982 0.0
C360 C 0.87547 0.78077 0.86491 0.0
C361 C 0.84787 0.7749 0.85034 0.0
C362 C 0.89557 0.77674 0.81412 0.0
C363 C 0.88853 0.76671 0.74771 0.0
C364 C 0.86102 0.76037 0.73375 0.0
C365 C 0.84098 0.76439 0.78434 0.0
C366 C 0.92996 0.73612 0.59964 0.0
C367 C 0.95123 0.75517 0.59318 0.0
C368 C 0.90939 0.73997 0.64919 0.0
C369 C 0.90973 0.76305 0.69302 0.0
C370 C 0.93059 0.7826 0.68438 0.0
C371 C 0.95109 0.77869 0.63487 0.0
H372 H 0.78879 0.33579 0.31972 0.0
H373 H 0.70838 0.37023 0.35334 0.0
H374 H 0.79702 0.36987 0.2282 0.0
H375 H 0.71666 0.40399 0.26253 0.0
H376 H 0.72774 0.44219 0.04884 0.0
H377 H 0.72196 0.40494 0.1336 0.0
H378 H 0.80296 0.42084 0.21518 0.0
H379 H 0.80855 0.45788 0.12962 0.0
C380 C 0.77295 0.35066 0.30796 0.0
C381 C 0.74791 0.35018 0.34398 0.0
C382 C 0.77768 0.37018 0.25557 0.0
C383 C 0.75736 0.38943 0.23756 0.0
C384 C 0.73253 0.38914 0.27422 0.0
C385 C 0.72791 0.36989 0.32685 0.0
C386 C 0.7444 0.43725 0.08413 0.0
C387 C 0.76855 0.45271 0.08313 0.0
C388 C 0.74106 0.41619 0.13303 0.0
C389 C 0.76193 0.4101 0.18157 0.0
C390 C 0.78657 0.42491 0.17836 0.0
C391 C 0.78978 0.4461 0.12978 0.0
H392 H 0.1832 0.29047 0.82189 0.0
H393 H 0.14715 0.21096 0.85921 0.0
H394 H 0.14958 0.29896 0.72939 0.0
H395 H 0.11372 0.21955 0.76747 0.0
H396 H 0.06221 0.31203 0.62901 0.0
H397 H 0.09916 0.30612 0.71476 0.0
H398 H 0.11305 0.22413 0.6387 0.0
H399 H 0.0758 0.23021 0.55397 0.0
C400 C 0.16805 0.27489 0.81077 0.0
C401 C 0.16796 0.25 0.84801 0.0
C402 C 0.1488 0.27977 0.75779 0.0
C403 C 0.12922 0.25978 0.74054 0.0
C404 C 0.12888 0.23514 0.77854 0.0
C405 C 0.14791 0.23035 0.8317 0.0
C406 C 0.07357 0.29299 0.63031 0.0
C407 C 0.06635 0.27155 0.58543 0.0
C408 C 0.0947 0.28959 0.67903 0.0
C409 C 0.10883 0.26455 0.684 0.0
C410 C 0.10227 0.24352 0.63682 0.0
C411 C 0.08125 0.24703 0.58788 0.0
H412 H 0.22543 0.67465 0.35318 0.0
H413 H 0.31244 0.66004 0.34045 0.0
H414 H 0.2175 0.6399 0.26405 0.0
H415 H 0.30489 0.6268 0.24906 0.0
H416 H 0.28239 0.54732 0.1431 0.0
H417 H 0.29009 0.58303 0.22894 0.0
H418 H 0.22058 0.62789 0.14656 0.0
H419 H 0.2119 0.59061 0.06452 0.0
C420 C 0.24284 0.66411 0.33101 0.0
C421 C 0.2695 0.66981 0.35458 0.0
C422 C 0.23837 0.64436 0.27932 0.0
C423 C 0.26052 0.63025 0.24904 0.0
C424 C 0.28719 0.63652 0.27203 0.0
C425 C 0.29158 0.65576 0.3245 0.0
C426 C 0.26888 0.56492 0.14358 0.0
C427 C 0.24662 0.56633 0.09741 0.0
C428 C 0.27337 0.5856 0.19229 0.0
C429 C 0.256 0.60862 0.19517 0.0
C430 C 0.23417 0.61037 0.14699 0.0
C431 C 0.22944 0.58933 0.09894 0.0
H432 H 0.368 0.71145 0.67184 0.0
H433 H 0.33012 0.78989 0.71106 0.0
H434 H 0.40168 0.72041 0.76245 0.0
H435 H 0.36403 0.79877 0.80255 0.0
H436 H 0.45108 0.81389 0.9017 0.0
H437 H 0.41409 0.80728 0.81655 0.0
H438 H 0.40357 0.7243 0.89057 0.0
H439 H 0.44092 0.73107 0.97452 0.0
C440 C 0.36686 0.73068 0.6996 0.0
C441 C 0.34623 0.74993 0.68399 0.0
C442 C 0.38607 0.73569 0.75213 0.0
C443 C 0.38538 0.76016 0.79036 0.0
C444 C 0.36515 0.77972 0.77397 0.0
C445 C 0.34571 0.77462 0.72158 0.0
C446 C 0.44057 0.7944 0.89982 0.0
C447 C 0.44878 0.77291 0.94398 0.0
C448 C 0.41935 0.79062 0.85154 0.0
C449 C 0.40605 0.76517 0.84622 0.0
C450 C 0.41366 0.74403 0.89258 0.0
C451 C 0.43477 0.74791 0.94108 0.0
H452 H 0.75668 0.82243 0.25223 0.0
H453 H 0.7843 0.8843 0.10699 0.0
H454 H 0.74997 0.85731 0.34043 0.0
H455 H 0.7769 0.91939 0.19518 0.0
H456 H 0.79092 0.97007 0.39018 0.0
H457 H 0.79735 0.93383 0.30427 0.0
H458 H 0.72179 0.89614 0.37136 0.0
H459 H 0.71588 0.93251 0.45798 0.0
C460 C 0.7611 0.84353 0.23878 0.0
C461 C 0.77124 0.85051 0.17247 0.0
C462 C 0.75709 0.86356 0.28944 0.0
C463 C 0.76307 0.89112 0.27517 0.0
C464 C 0.77257 0.89825 0.20833 0.0
C465 C 0.77661 0.87817 0.15754 0.0
C466 C 0.77591 0.95383 0.38657 0.0
C467 C 0.75289 0.95393 0.42994 0.0
C468 C 0.77939 0.93325 0.33716 0.0
C469 C 0.75986 0.9123 0.33009 0.0
C470 C 0.73728 0.9119 0.37558 0.0
C471 C 0.73387 0.93256 0.42519 0.0
H472 H 0.68283 0.22965 0.69494 0.0
H473 H 0.6473 0.30948 0.65715 0.0
H474 H 0.64902 0.2213 0.78632 0.0
H475 H 0.61369 0.30103 0.74776 0.0
H476 H 0.5756 0.2904 0.96044 0.0
H477 H 0.61281 0.29633 0.87641 0.0
H478 H 0.59853 0.21451 0.7996 0.0
H479 H 0.56161 0.20873 0.88469 0.0
C480 C 0.66776 0.24533 0.70573 0.0
C481 C 0.66787 0.27026 0.66868 0.0
C482 C 0.64839 0.24053 0.75805 0.0
C483 C 0.62889 0.26064 0.77484 0.0
C484 C 0.62876 0.28534 0.73704 0.0
C485 C 0.64792 0.29005 0.68453 0.0
C486 C 0.58093 0.27359 0.92647 0.0
C487 C 0.56593 0.24916 0.92858 0.0
C488 C 0.60194 0.27701 0.87793 0.0
C489 C 0.60841 0.25598 0.83079 0.0
C490 C 0.59414 0.23104 0.83531 0.0
C491 C 0.57302 0.22772 0.88363 0.0
H492 H 0.28862 0.1849 0.2006 0.0
H493 H 0.20897 0.1492 0.16296 0.0
H494 H 0.29699 0.15109 0.29279 0.0
H495 H 0.21742 0.11564 0.2544 0.0
H496 H 0.22781 0.07756 0.46786 0.0
H497 H 0.22199 0.11487 0.38324 0.0
H498 H 0.30385 0.10045 0.30714 0.0
H499 H 0.30951 0.06339 0.39276 0.0
C500 C 0.27298 0.1698 0.21159 0.0
C501 C 0.24809 0.16986 0.17431 0.0
C502 C 0.27779 0.15043 0.26439 0.0
C503 C 0.25772 0.1309 0.28148 0.0
C504 C 0.23308 0.13073 0.24346 0.0
C505 C 0.22837 0.14986 0.19048 0.0
C506 C 0.24466 0.08288 0.43394 0.0
C507 C 0.26906 0.06779 0.43638 0.0
C508 C 0.2413 0.10396 0.38506 0.0
C509 C 0.26237 0.11041 0.33792 0.0
C510 C 0.28729 0.09608 0.34283 0.0
C511 C 0.29054 0.07488 0.39147 0.0
H512 H 0.25684 0.3294 0.91534 0.0
H513 H 0.2218 0.32754 0.12174 0.0
H514 H 0.25493 0.37918 0.91559 0.0
H515 H 0.22027 0.37753 0.12219 0.0
H516 H 0.19577 0.46637 0.06418 0.0
H517 H 0.19651 0.4161 0.06482 0.0
H518 H 0.27728 0.41758 0.97368 0.0
H519 H 0.27617 0.46773 0.97331 0.0
C520 C 0.24879 0.33958 0.96092 0.0
C521 C 0.23958 0.3244 0.01866 0.0
C522 C 0.24784 0.36817 0.96116 0.0
C523 C 0.23756 0.38235 0.01901 0.0
C524 C 0.22808 0.36721 0.07654 0.0
C525 C 0.22912 0.33856 0.07643 0.0
C526 C 0.21364 0.45574 0.04484 0.0
C527 C 0.23597 0.4706 0.01902 0.0
C528 C 0.21415 0.42708 0.04525 0.0
C529 C 0.23697 0.41281 0.01932 0.0
C530 C 0.25926 0.42789 0.99321 0.0
C531 C 0.25873 0.4565 0.99309 0.0
H532 H 0.18796 0.72472 0.62591 0.0
H533 H 0.18873 0.75651 0.41541 0.0
H534 H 0.13793 0.72398 0.62298 0.0
H535 H 0.139 0.75534 0.41231 0.0
H536 H 0.05047 0.77987 0.46199 0.0
H537 H 0.10067 0.77948 0.46445 0.0
H538 H 0.09922 0.70047 0.56682 0.0
H539 H 0.04892 0.70141 0.56454 0.0
C540 C 0.17752 0.73145 0.57899 0.0
C541 C 0.19243 0.74084 0.52111 0.0
C542 C 0.14884 0.73087 0.57716 0.0
C543 C 0.13445 0.73973 0.5175 0.0
C544 C 0.1494 0.7488 0.45947 0.0
C545 C 0.17798 0.74933 0.46121 0.0
C546 C 0.06111 0.76245 0.48441 0.0
C547 C 0.04623 0.74062 0.51276 0.0
C548 C 0.08972 0.76211 0.48578 0.0
C549 C 0.10398 0.73991 0.51579 0.0
C550 C 0.08889 0.718 0.54404 0.0
C551 C 0.06024 0.71837 0.54239 0.0
H552 H 0.77865 0.69167 0.11495 0.0
H553 H 0.77344 0.69173 0.89018 0.0
H554 H 0.77968 0.64161 0.11525 0.0
H555 H 0.77402 0.64158 0.89083 0.0
H556 H 0.73744 0.55477 0.94265 0.0
H557 H 0.73958 0.60483 0.93966 0.0
H558 H 0.81212 0.60259 0.06883 0.0
H559 H 0.81057 0.5523 0.06907 0.0
C560 C 0.77773 0.68098 0.06564 0.0
C561 C 0.77583 0.69561 1.00253 0.0
C562 C 0.77849 0.65237 0.06587 0.0
C563 C 0.77686 0.63781 1.00311 0.0
C564 C 0.77515 0.65238 0.93995 0.0
C565 C 0.77493 0.68103 0.93959 0.0
C566 C 0.75405 0.56502 0.96942 0.0
C567 C 0.77397 0.54978 1.00561 0.0
C568 C 0.75524 0.59358 0.96787 0.0
C569 C 0.77609 0.6075 1.00372 0.0
C570 C 0.79579 0.5923 0.04097 0.0
C571 C 0.79486 0.56366 0.04139 0.0
H572 H 0.82613 0.29312 0.62166 0.0
H573 H 0.82697 0.26155 0.41154 0.0
H574 H 0.87619 0.29289 0.62326 0.0
H575 H 0.87671 0.26173 0.41301 0.0
H576 H 0.96373 0.23572 0.46756 0.0
H577 H 0.91369 0.2365 0.47012 0.0
H578 H 0.91598 0.31585 0.56892 0.0
H579 H 0.96623 0.31476 0.56609 0.0
C580 C 0.83694 0.28622 0.57579 0.0
C581 C 0.82249 0.27718 0.51666 0.0
C582 C 0.86562 0.28624 0.57661 0.0
C583 C 0.88042 0.27712 0.51843 0.0
C584 C 0.86593 0.26843 0.45913 0.0
C585 C 0.83737 0.26848 0.45821 0.0
C586 C 0.9534 0.25333 0.48935 0.0
C587 C 0.96859 0.27528 0.51605 0.0
C588 C 0.92484 0.25384 0.49085 0.0
C589 C 0.91084 0.27634 0.51928 0.0
C590 C 0.92614 0.29813 0.5472 0.0
C591 C 0.95479 0.2976 0.54548 0.0
H592 H 0.74146 0.1913 0.3878 0.0
H593 H 0.73601 0.19214 0.61239 0.0
H594 H 0.74081 0.14114 0.38973 0.0
H595 H 0.73492 0.14209 0.61396 0.0
H596 H 0.70427 0.05262 0.56976 0.0
H597 H 0.70263 0.10291 0.56793 0.0
H598 H 0.77519 0.10456 0.44041 0.0
H599 H 0.77742 0.05452 0.44497 0.0
C600 C 0.73989 0.1808 0.43743 0.0
C601 C 0.73896 0.19563 0.49996 0.0
C602 C 0.73964 0.15215 0.43852 0.0
C603 C 0.73785 0.13784 0.50201 0.0
C604 C 0.73616 0.15265 0.56433 0.0
C605 C 0.73696 0.18126 0.56338 0.0
C606 C 0.71996 0.06385 0.5421 0.0
C607 C 0.74088 0.04981 0.50723 0.0
C608 C 0.71898 0.0925 0.54076 0.0
C609 C 0.73866 0.10752 0.50349 0.0
C610 C 0.75954 0.09344 0.46858 0.0
C611 C 0.76079 0.06488 0.47104 0.0
H612 H 0.32738 0.25834 0.10697 0.0
H613 H 0.32558 0.22609 0.89754 0.0
H614 H 0.37715 0.25836 0.10473 0.0
H615 H 0.37558 0.22654 0.89512 0.0
H616 H 0.46609 0.20556 0.94963 0.0
H617 H 0.41583 0.20406 0.94858 0.0
H618 H 0.41362 0.28359 0.04645 0.0
H619 H 0.46366 0.28477 0.04727 0.0
C620 C 0.33757 0.25129 0.06033 0.0
C621 C 0.32242 0.24236 1.00227 0.0
C622 C 0.36614 0.25145 0.05895 0.0
C623 C 0.38033 0.24265 0.99955 0.0
C624 C 0.36525 0.23328 0.94184 0.0
C625 C 0.33659 0.23317 0.94313 0.0
C626 C 0.45466 0.22268 0.97037 0.0
C627 C 0.46848 0.24517 0.99903 0.0
C628 C 0.42601 0.22191 0.96972 0.0
C629 C 0.41074 0.24363 0.99793 0.0
C630 C 0.42475 0.2663 0.02555 0.0
C631 C 0.45331 0.26705 0.026 0.0
H632 H 0.258 0.82843 0.61309 0.0
H633 H 0.29073 0.82737 0.40422 0.0
H634 H 0.25822 0.8782 0.61133 0.0
H635 H 0.29052 0.8774 0.40223 0.0
H636 H 0.31198 0.9675 0.45748 0.0
H637 H 0.31305 0.91724 0.45582 0.0
H638 H 0.2336 0.91535 0.55405 0.0
H639 H 0.23287 0.96539 0.55553 0.0
C640 C 0.26518 0.83878 0.56664 0.0
C641 C 0.27421 0.82382 0.50864 0.0
C642 C 0.26516 0.86737 0.56553 0.0
C643 C 0.2742 0.8818 0.50646 0.0
C644 C 0.28361 0.8669 0.44874 0.0
C645 C 0.28359 0.83822 0.44977 0.0
C646 C 0.29479 0.95615 0.47821 0.0
C647 C 0.27246 0.97008 0.50713 0.0
C648 C 0.29531 0.92748 0.47719 0.0
C649 C 0.27348 0.91227 0.50526 0.0
C650 C 0.25097 0.9264 0.53323 0.0
C651 C 0.25048 0.95498 0.53406 0.0
H652 H 0.68864 0.79377 0.12257 0.0
H653 H 0.68795 0.76221 0.91247 0.0
H654 H 0.63862 0.79473 0.12177 0.0
H655 H 0.6382 0.76359 0.91148 0.0
H656 H 0.54976 0.73982 0.96537 0.0
H657 H 0.59996 0.73975 0.96553 0.0
H658 H 0.5998 0.81868 0.06678 0.0
H659 H 0.5495 0.81821 0.06677 0.0
C660 C 0.67787 0.78711 0.07619 0.0
C661 C 0.69238 0.77776 0.01777 0.0
C662 C 0.6492 0.78783 0.07558 0.0
C663 C 0.6344 0.77914 0.01662 0.0
C664 C 0.64893 0.77003 0.95811 0.0
C665 C 0.67752 0.76937 0.95863 0.0
C666 C 0.56067 0.75712 0.98705 0.0
C667 C 0.54616 0.77905 0.01576 0.0
C668 C 0.58929 0.7572 0.9871 0.0
C669 C 0.60392 0.77924 0.01617 0.0
C670 C 0.58919 0.80126 0.04474 0.0
C671 C 0.56054 0.80116 0.04439 0.0
loop_
_geom_bond_atom_site_label_1
_geom_bond_atom_site_label_2
_geom_bond_distance
_geom_bond_site_symmetry_2
_ccdc_geom_bond_type
Fe0 O2 1.922 . S
Fe0 O5 1.997 . S
Fe0 O6 2.002 . S
Fe0 O11 1.976 . S
Fe0 O14 1.996 . S
Fe1 O2 1.915 1_556 S
Fe1 O9 1.997 . S
Fe1 O12 1.996 . S
Fe1 O16 1.976 . S
Fe1 O19 2.002 . S
O2 Fe0 1.922 . S
O2 Fe1 1.915 1_554 S
O2 Fe3 1.918 1_554 S
Fe3 O2 1.918 1_556 S
Fe3 O4 1.998 1_556 S
Fe3 O13 1.972 1_556 S
Fe3 O17 2.000 . S
Fe3 O20 2.001 . S
O4 Fe3 1.998 1_554 S
O4 C21 1.295 . S
O5 Fe0 1.997 . S
O5 C21 1.235 . S
O6 Fe0 2.002 . S
O6 C7 1.295 . S
C7 O6 1.295 . S
C7 O9 1.235 1_554 S
C8 O13 1.287 . S
C8 O14 1.255 . S
O9 Fe1 1.997 . S
O9 C7 1.235 1_556 S
C10 O16 1.287 . S
C10 O17 1.255 . S
O11 Fe0 1.976 . S
O11 C18 1.287 1_554 S
O12 Fe1 1.996 . S
O12 C18 1.255 . S
O13 Fe3 1.972 1_554 S
O13 C8 1.287 . S
O14 Fe0 1.996 . S
O14 C8 1.255 . S
C15 O19 1.295 . S
C15 O20 1.235 . S
O16 Fe1 1.976 . S
O16 C10 1.287 . S
O17 Fe3 2.000 . S
O17 C10 1.255 . S
C18 O11 1.287 1_556 S
C18 O12 1.255 . S
O19 Fe1 2.002 . S
O19 C15 1.295 . S
O20 Fe3 2.001 . S
O20 C15 1.235 . S
C21 O4 1.295 . S
C21 O5 1.235 . S
Fe22 O24 1.918 . S
Fe22 O27 1.997 . S
Fe22 O28 2.002 . S
Fe22 O33 1.976 . S
Fe22 O36 1.996 . S
Fe23 O24 1.918 . S
Fe23 O31 1.997 . S
Fe23 O34 1.996 . S
Fe23 O38 1.976 . S
Fe23 O41 2.002 . S
O24 Fe22 1.918 . S
O24 Fe23 1.918 . S
O24 Fe25 1.918 . S
Fe25 O24 1.918 . S
Fe25 O26 2.002 . S
Fe25 O35 1.976 . S
Fe25 O39 1.996 . S
Fe25 O42 1.997 . S
O26 Fe25 2.002 . S
O26 C43 1.295 . S
O27 Fe22 1.997 . S
O27 C43 1.235 . S
O28 Fe22 2.002 . S
O28 C29 1.295 . S
C29 O28 1.295 . S
C29 O31 1.235 . S
C30 O35 1.287 . S
C30 O36 1.255 . S
O31 Fe23 1.997 . S
O31 C29 1.235 . S
C32 O38 1.287 . S
C32 O39 1.255 . S
O33 Fe22 1.976 . S
O33 C40 1.287 . S
O34 Fe23 1.996 . S
O34 C40 1.255 . S
O35 Fe25 1.976 . S
O35 C30 1.287 . S
O36 Fe22 1.996 . S
O36 C30 1.255 . S
C37 O41 1.295 . S
C37 O42 1.235 . S
O38 Fe23 1.976 . S
O38 C32 1.287 . S
O39 Fe25 1.996 . S
O39 C32 1.255 . S
C40 O33 1.287 . S
C40 O34 1.255 . S
O41 Fe23 2.002 . S
O41 C37 1.295 . S
O42 Fe25 1.997 . S
O42 C37 1.235 . S
C43 O26 1.295 . S
C43 O27 1.235 . S
Fe44 O46 1.910 1_556 S
Fe44 O49 1.997 . S
Fe44 O50 2.002 . S
Fe44 O55 1.976 . S
Fe44 O58 1.996 . S
Fe45 O46 1.927 . S
Fe45 O53 1.997 . S
Fe45 O56 1.996 . S
Fe45 O60 1.976 . S
Fe45 O63 2.002 . S
O46 Fe44 1.910 1_554 S
O46 Fe45 1.927 . S
O46 Fe47 1.918 . S
Fe47 O46 1.918 . S
Fe47 O48 2.002 1_554 S
Fe47 O57 1.976 1_554 S
Fe47 O61 1.996 . S
Fe47 O64 1.997 . S
O48 Fe47 2.002 1_556 S
O48 C65 1.295 . S
O49 Fe44 1.997 . S
O49 C65 1.235 . S
O50 Fe44 2.002 . S
O50 C51 1.295 . S
C51 O50 1.295 . S
C51 O53 1.235 1_556 S
C52 O57 1.287 . S
C52 O58 1.255 . S
O53 Fe45 1.997 . S
O53 C51 1.235 1_554 S
C54 O60 1.287 . S
C54 O61 1.255 . S
O55 Fe44 1.976 . S
O55 C62 1.287 1_556 S
O56 Fe45 1.996 . S
O56 C62 1.255 . S
O57 Fe47 1.976 1_556 S
O57 C52 1.287 . S
O58 Fe44 1.996 . S
O58 C52 1.255 . S
C59 O63 1.295 . S
C59 O64 1.235 . S
O60 Fe45 1.976 . S
O60 C54 1.287 . S
O61 Fe47 1.996 . S
O61 C54 1.255 . S
C62 O55 1.287 1_554 S
C62 O56 1.255 . S
O63 Fe45 2.002 . S
O63 C59 1.295 . S
O64 Fe47 1.997 . S
O64 C59 1.235 . S
C65 O48 1.295 . S
C65 O49 1.235 . S
Fe66 O68 1.918 . S
Fe66 O71 1.997 . S
Fe66 O72 2.002 . S
Fe66 O77 1.976 . S
Fe66 O80 1.996 . S
Fe67 O68 1.918 . S
Fe67 O75 1.997 . S
Fe67 O78 1.996 . S
Fe67 O82 1.976 . S
Fe67 O85 2.002 . S
O68 Fe66 1.918 . S
O68 Fe67 1.918 . S
O68 Fe69 1.918 . S
Fe69 O68 1.918 . S
Fe69 O70 2.002 . S
Fe69 O79 1.976 . S
Fe69 O83 1.996 . S
Fe69 O86 1.997 . S
O70 Fe69 2.002 . S
O70 C87 1.295 . S
O71 Fe66 1.997 . S
O71 C87 1.235 . S
O72 Fe66 2.002 . S
O72 C73 1.295 . S
C73 O72 1.295 . S
C73 O75 1.235 . S
C74 O79 1.287 . S
C74 O80 1.255 . S
O75 Fe67 1.997 . S
O75 C73 1.235 . S
C76 O82 1.287 . S
C76 O83 1.255 . S
O77 Fe66 1.976 . S
O77 C84 1.287 . S
O78 Fe67 1.996 . S
O78 C84 1.255 . S
O79 Fe69 1.976 . S
O79 C74 1.287 . S
O80 Fe66 1.996 . S
O80 C74 1.255 . S
C81 O85 1.295 . S
C81 O86 1.235 . S
O82 Fe67 1.976 . S
O82 C76 1.287 . S
O83 Fe69 1.996 . S
O83 C76 1.255 . S
C84 O77 1.287 . S
C84 O78 1.255 . S
O85 Fe67 2.002 . S
O85 C81 1.295 . S
O86 Fe69 1.997 . S
O86 C81 1.235 . S
C87 O70 1.295 . S
C87 O71 1.235 . S
C88 N89 1.317 . S
C88 N90 1.358 . S
C88 C91 1.485 . S
N89 C88 1.317 . S
N89 N93 1.370 1_556 S
N90 C88 1.358 . S
N90 C92 1.337 1_556 S
C91 C88 1.485 . S
C91 H95 0.960 . S
C91 H96 0.961 . S
C91 H97 0.960 . S
C92 N90 1.337 1_554 S
C92 N93 1.307 . S
C92 C94 1.486 . S
N93 N89 1.370 1_554 S
N93 C92 1.307 . S
C94 C92 1.486 . S
C94 H98 0.960 . S
C94 H99 0.960 . S
C94 H100 0.959 . S
H95 C91 0.960 . S
H96 C91 0.961 . S
H97 C91 0.960 . S
H98 C94 0.960 . S
H99 C94 0.960 . S
H100 C94 0.959 . S
C101 N102 1.317 1_455 S
C101 N103 1.348 . S
C101 C104 1.485 . S
N102 C101 1.317 1_655 S
N102 N106 1.370 . S
N103 C101 1.348 . S
N103 C105 1.346 . S
C104 C101 1.485 . S
C104 H108 0.960 . S
C104 H109 0.961 . S
C104 H110 0.931 1_455 S
C105 N103 1.346 . S
C105 N106 1.307 1_455 S
C105 C107 1.486 . S
N106 N102 1.370 . S
N106 C105 1.307 1_655 S
C107 C105 1.486 . S
C107 H111 0.960 . S
C107 H112 0.960 . S
C107 H113 0.959 . S
H108 C104 0.960 . S
H109 C104 0.961 . S
H110 C104 0.931 1_655 S
H111 C107 0.960 . S
H112 C107 0.960 . S
H113 C107 0.959 . S
C114 N115 1.317 . S
C114 N116 1.348 . S
C114 C117 1.485 . S
N115 C114 1.317 . S
N115 N119 1.370 1_554 S
N116 C114 1.348 . S
N116 C118 1.346 1_554 S
C117 C114 1.485 . S
C117 H121 0.960 . S
C117 H122 0.961 . S
C117 H123 0.960 . S
C118 N116 1.346 1_556 S
C118 N119 1.307 . S
C118 C120 1.486 . S
N119 N115 1.370 1_556 S
N119 C118 1.307 . S
C120 C118 1.486 . S
C120 H124 0.960 . S
C120 H125 0.960 . S
C120 H126 0.959 . S
H121 C117 0.960 . S
H122 C117 0.961 . S
H123 C117 0.960 . S
H124 C120 0.960 . S
H125 C120 0.960 . S
H126 C120 0.959 . S
C127 N128 1.317 1_655 S
C127 N129 1.348 . S
C127 C130 1.485 . S
N128 C127 1.317 1_455 S
N128 N132 1.370 . S
N129 C127 1.348 . S
N129 C131 1.346 . S
C130 C127 1.485 . S
C130 H134 0.960 . S
C130 H135 0.961 . S
C130 H136 0.960 . S
C131 N129 1.346 . S
C131 N132 1.307 1_655 S
C131 C133 1.486 . S
N132 N128 1.370 . S
N132 C131 1.307 1_455 S
C133 C131 1.486 . S
C133 H137 0.960 . S
C133 H138 0.960 . S
C133 H139 0.932 1_655 S
H134 C130 0.960 . S
H135 C130 0.961 . S
H136 C130 0.960 . S
H137 C133 0.960 . S
H138 C133 0.960 . S
H139 C133 0.932 1_455 S
C140 N141 1.317 1_545 S
C140 N142 1.348 . S
C140 C143 1.485 . S
N141 C140 1.317 1_565 S
N141 N145 1.370 . S
N142 C140 1.348 . S
N142 C144 1.346 . S
C143 C140 1.485 . S
C143 H147 0.960 . S
C143 H148 0.961 . S
C143 H149 0.960 . S
C144 N142 1.346 . S
C144 N145 1.307 1_545 S
C144 C146 1.486 . S
N145 N141 1.370 . S
N145 C144 1.307 1_565 S
C146 C144 1.486 . S
C146 H150 0.960 . S
C146 H151 0.960 . S
C146 H152 0.959 . S
H147 C143 0.960 . S
H148 C143 0.961 . S
H149 C143 0.960 . S
H150 C146 0.960 . S
H151 C146 0.960 . S
H152 C146 0.959 . S
C153 N154 1.317 . S
C153 N155 1.358 . S
C153 C156 1.485 . S
N154 C153 1.317 . S
N154 N158 1.370 1_556 S
N155 C153 1.358 . S
N155 C157 1.337 1_556 S
C156 C153 1.485 . S
C156 H160 0.960 . S
C156 H161 0.961 . S
C156 H162 0.960 . S
C157 N155 1.337 1_554 S
C157 N158 1.307 . S
C157 C159 1.486 . S
N158 N154 1.370 1_554 S
N158 C157 1.307 . S
C159 C157 1.486 . S
C159 H163 0.960 . S
C159 H164 0.960 . S
C159 H165 0.959 . S
H160 C156 0.960 . S
H161 C156 0.961 . S
H162 C156 0.960 . S
H163 C159 0.960 . S
H164 C159 0.960 . S
H165 C159 0.959 . S
C166 N167 1.317 1_565 S
C166 N168 1.348 . S
C166 C169 1.485 . S
N167 C166 1.317 1_545 S
N167 N171 1.370 . S
N168 C166 1.348 . S
N168 C170 1.346 . S
C169 C166 1.485 . S
C169 H173 0.960 . S
C169 H174 0.961 . S
C169 H175 0.960 1_565 S
C170 N168 1.346 . S
C170 N171 1.307 1_565 S
C170 C172 1.486 . S
N171 N167 1.370 . S
N171 C170 1.307 1_545 S
C172 C170 1.486 . S
C172 H176 0.960 . S
C172 H177 0.960 . S
C172 H178 0.956 . S
H173 C169 0.960 . S
H174 C169 0.961 . S
H175 C169 0.960 1_545 S
H176 C172 0.960 . S
H177 C172 0.960 . S
H178 C172 0.956 . S
C179 N180 1.317 . S
C179 N181 1.348 . S
C179 C182 1.485 . S
N180 C179 1.317 . S
N180 N184 1.370 1_554 S
N181 C179 1.348 . S
N181 C183 1.346 1_554 S
C182 C179 1.485 . S
C182 H186 0.960 . S
C182 H187 0.961 . S
C182 H188 0.960 . S
C183 N181 1.346 1_556 S
C183 N184 1.307 . S
C183 C185 1.486 . S
N184 N180 1.370 1_556 S
N184 C183 1.307 . S
C185 C183 1.486 . S
C185 H189 0.960 . S
C185 H190 0.960 . S
C185 H191 0.959 . S
H186 C182 0.960 . S
H187 C182 0.961 . S
H188 C182 0.960 . S
H189 C185 0.960 . S
H190 C185 0.960 . S
H191 C185 0.959 . S
H192 C200 0.950 . S
H193 C205 0.950 . S
H194 C202 0.950 . S
H195 C204 0.950 . S
H196 C206 0.950 . S
H197 C208 0.950 . S
H198 C210 0.950 . S
H199 C211 0.950 . S
C200 H192 0.950 . S
C200 C201 1.386 . S
C200 C202 1.391 . S
C201 C200 1.386 . S
C201 C205 1.393 . S
C202 H194 0.950 . S
C202 C200 1.391 . S
C202 C203 1.400 . S
C203 C202 1.400 . S
C203 C204 1.398 . S
C203 C209 1.491 . S
C204 H195 0.950 . S
C204 C203 1.398 . S
C204 C205 1.391 . S
C205 H193 0.950 . S
C205 C201 1.393 . S
C205 C204 1.391 . S
C206 H196 0.950 . S
C206 C207 1.386 . S
C206 C208 1.391 . S
C207 C206 1.386 . S
C207 C211 1.393 . S
C208 H197 0.950 . S
C208 C206 1.391 . S
C208 C209 1.400 . S
C209 C203 1.491 . S
C209 C208 1.400 . S
C209 C210 1.398 . S
C210 H198 0.950 . S
C210 C209 1.398 . S
C210 C211 1.391 . S
C211 H199 0.950 . S
C211 C207 1.393 . S
C211 C210 1.391 . S
H212 C220 0.950 . S
H213 C225 0.950 . S
H214 C222 0.950 . S
H215 C224 0.950 . S
H216 C226 0.950 . S
H217 C228 0.950 . S
H218 C230 0.950 . S
H219 C231 0.950 . S
C220 H212 0.950 . S
C220 C221 1.386 . S
C220 C222 1.391 . S
C221 C220 1.386 . S
C221 C225 1.393 . S
C222 H214 0.950 . S
C222 C220 1.391 . S
C222 C223 1.400 . S
C223 C222 1.400 . S
C223 C224 1.398 . S
C223 C229 1.491 . S
C224 H215 0.950 . S
C224 C223 1.398 . S
C224 C225 1.391 . S
C225 H213 0.950 . S
C225 C221 1.393 . S
C225 C224 1.391 . S
C226 H216 0.950 . S
C226 C227 1.386 . S
C226 C228 1.391 . S
C227 C226 1.386 . S
C227 C231 1.393 . S
C228 H217 0.950 . S
C228 C226 1.391 . S
C228 C229 1.400 . S
C229 C223 1.491 . S
C229 C228 1.400 . S
C229 C230 1.398 . S
C230 H218 0.950 . S
C230 C229 1.398 . S
C230 C231 1.391 . S
C231 H219 0.950 . S
C231 C227 1.393 . S
C231 C230 1.391 . S
H232 C240 0.950 . S
H233 C245 0.950 . S
H234 C242 0.950 . S
H235 C244 0.950 . S
H236 C246 0.950 . S
H237 C248 0.950 . S
H238 C250 0.950 . S
H239 C251 0.950 . S
C240 H232 0.950 . S
C240 C241 1.386 . S
C240 C242 1.391 . S
C241 C240 1.386 . S
C241 C245 1.393 . S
C242 H234 0.950 . S
C242 C240 1.391 . S
C242 C243 1.400 . S
C243 C242 1.400 . S
C243 C244 1.398 . S
C243 C249 1.491 . S
C244 H235 0.950 . S
C244 C243 1.398 . S
C244 C245 1.391 . S
C245 H233 0.950 . S
C245 C241 1.393 . S
C245 C244 1.391 . S
C246 H236 0.950 . S
C246 C247 1.386 . S
C246 C248 1.391 . S
C247 C246 1.386 . S
C247 C251 1.393 . S
C248 H237 0.950 . S
C248 C246 1.391 . S
C248 C249 1.400 . S
C249 C243 1.491 . S
C249 C248 1.400 . S
C249 C250 1.398 . S
C250 H238 0.950 . S
C250 C249 1.398 . S
C250 C251 1.391 . S
C251 H239 0.950 . S
C251 C247 1.393 . S
C251 C250 1.391 . S
H252 C260 0.950 . S
H253 C265 0.950 . S
H254 C262 0.950 . S
H255 C264 0.950 . S
H256 C266 0.950 . S
H257 C268 0.950 . S
H258 C270 0.950 . S
H259 C271 0.950 . S
C260 H252 0.950 . S
C260 C261 1.386 . S
C260 C262 1.391 . S
C261 C260 1.386 . S
C261 C265 1.393 . S
C262 H254 0.950 . S
C262 C260 1.391 . S
C262 C263 1.400 . S
C263 C262 1.400 . S
C263 C264 1.398 . S
C263 C269 1.491 . S
C264 H255 0.950 . S
C264 C263 1.398 . S
C264 C265 1.391 . S
C265 H253 0.950 . S
C265 C261 1.393 . S
C265 C264 1.391 . S
C266 H256 0.950 . S
C266 C267 1.386 . S
C266 C268 1.391 . S
C267 C266 1.386 . S
C267 C271 1.393 . S
C268 H257 0.950 . S
C268 C266 1.391 . S
C268 C269 1.400 . S
C269 C263 1.491 . S
C269 C268 1.400 . S
C269 C270 1.398 . S
C270 H258 0.950 . S
C270 C269 1.398 . S
C270 C271 1.391 . S
C271 H259 0.950 . S
C271 C267 1.393 . S
C271 C270 1.391 . S
H272 C280 0.950 . S
H273 C285 0.950 . S
H274 C282 0.950 . S
H275 C284 0.950 . S
H276 C286 0.950 . S
H277 C288 0.950 . S
H278 C290 0.950 . S
H279 C291 0.950 . S
C280 H272 0.950 . S
C280 C281 1.386 . S
C280 C282 1.391 . S
C281 C280 1.386 . S
C281 C285 1.393 . S
C282 H274 0.950 . S
C282 C280 1.391 . S
C282 C283 1.400 . S
C283 C282 1.400 . S
C283 C284 1.398 . S
C283 C289 1.491 . S
C284 H275 0.950 . S
C284 C283 1.398 . S
C284 C285 1.391 . S
C285 H273 0.950 . S
C285 C281 1.393 . S
C285 C284 1.391 . S
C286 H276 0.950 . S
C286 C287 1.386 . S
C286 C288 1.391 . S
C287 C286 1.386 . S
C287 C291 1.393 . S
C288 H277 0.950 . S
C288 C286 1.391 . S
C288 C289 1.400 . S
C289 C283 1.491 . S
C289 C288 1.400 . S
C289 C290 1.398 . S
C290 H278 0.950 . S
C290 C289 1.398 . S
C290 C291 1.391 . S
C291 H279 0.950 . S
C291 C287 1.393 . S
C291 C290 1.391 . S
H292 C300 0.950 . S
H293 C305 0.950 . S
H294 C302 0.950 . S
H295 C304 0.950 . S
H296 C306 0.950 . S
H297 C308 0.950 . S
H298 C310 0.950 . S
H299 C311 0.950 . S
C300 H292 0.950 . S
C300 C301 1.386 . S
C300 C302 1.391 . S
C301 C300 1.386 . S
C301 C305 1.393 . S
C302 H294 0.950 . S
C302 C300 1.391 . S
C302 C303 1.400 . S
C303 C302 1.400 . S
C303 C304 1.398 . S
C303 C309 1.491 . S
C304 H295 0.950 . S
C304 C303 1.398 . S
C304 C305 1.391 . S
C305 H293 0.950 . S
C305 C301 1.393 . S
C305 C304 1.391 . S
C306 H296 0.950 . S
C306 C307 1.386 . S
C306 C308 1.391 . S
C307 C306 1.386 . S
C307 C311 1.393 . S
C308 H297 0.950 . S
C308 C306 1.391 . S
C308 C309 1.400 . S
C309 C303 1.491 . S
C309 C308 1.400 . S
C309 C310 1.398 . S
C310 H298 0.950 . S
C310 C309 1.398 . S
C310 C311 1.391 . S
C311 H299 0.950 . S
C311 C307 1.393 . S
C311 C310 1.391 . S
H312 C320 0.950 . S
H313 C325 0.950 . S
H314 C322 0.950 . S
H315 C324 0.950 . S
H316 C326 0.950 . S
H317 C328 0.950 . S
H318 C330 0.950 . S
H319 C331 0.950 . S
C320 H312 0.950 . S
C320 C321 1.386 . S
C320 C322 1.391 . S
C321 C320 1.386 . S
C321 C325 1.393 . S
C322 H314 0.950 . S
C322 C320 1.391 . S
C322 C323 1.400 . S
C323 C322 1.400 . S
C323 C324 1.398 . S
C323 C329 1.491 . S
C324 H315 0.950 . S
C324 C323 1.398 . S
C324 C325 1.391 . S
C325 H313 0.950 . S
C325 C321 1.393 . S
C325 C324 1.391 . S
C326 H316 0.950 . S
C326 C327 1.386 . S
C326 C328 1.391 . S
C327 C326 1.386 . S
C327 C331 1.393 . S
C328 H317 0.950 . S
C328 C326 1.391 . S
C328 C329 1.400 . S
C329 C323 1.491 . S
C329 C328 1.400 . S
C329 C330 1.398 . S
C330 H318 0.950 . S
C330 C329 1.398 . S
C330 C331 1.391 . S
C331 H319 0.950 . S
C331 C327 1.393 . S
C331 C330 1.391 . S
H332 C340 0.950 . S
H333 C345 0.950 . S
H334 C342 0.950 . S
H335 C344 0.950 . S
H336 C346 0.950 . S
H337 C348 0.950 . S
H338 C350 0.950 . S
H339 C351 0.950 . S
C340 H332 0.950 . S
C340 C341 1.386 . S
C340 C342 1.391 . S
C341 C340 1.386 . S
C341 C345 1.393 . S
C342 H334 0.950 . S
C342 C340 1.391 . S
C342 C343 1.400 . S
C343 C342 1.400 . S
C343 C344 1.398 . S
C343 C349 1.491 . S
C344 H335 0.950 . S
C344 C343 1.398 . S
C344 C345 1.391 . S
C345 H333 0.950 . S
C345 C341 1.393 . S
C345 C344 1.391 . S
C346 H336 0.950 . S
C346 C347 1.386 . S
C346 C348 1.391 . S
C347 C346 1.386 . S
C347 C351 1.393 . S
C348 H337 0.950 . S
C348 C346 1.391 . S
C348 C349 1.400 . S
C349 C343 1.491 . S
C349 C348 1.400 . S
C349 C350 1.398 . S
C350 H338 0.950 . S
C350 C349 1.398 . S
C350 C351 1.391 . S
C351 H339 0.950 . S
C351 C347 1.393 . S
C351 C350 1.391 . S
H352 C360 0.950 . S
H353 C365 0.950 . S
H354 C362 0.950 . S
H355 C364 0.950 . S
H356 C366 0.950 . S
H357 C368 0.950 . S
H358 C370 0.950 . S
H359 C371 0.950 . S
C360 H352 0.950 . S
C360 C361 1.386 . S
C360 C362 1.391 . S
C361 C360 1.386 . S
C361 C365 1.393 . S
C362 H354 0.950 . S
C362 C360 1.391 . S
C362 C363 1.400 . S
C363 C362 1.400 . S
C363 C364 1.398 . S
C363 C369 1.491 . S
C364 H355 0.950 . S
C364 C363 1.398 . S
C364 C365 1.391 . S
C365 H353 0.950 . S
C365 C361 1.393 . S
C365 C364 1.391 . S
C366 H356 0.950 . S
C366 C367 1.386 . S
C366 C368 1.391 . S
C367 C366 1.386 . S
C367 C371 1.393 . S
C368 H357 0.950 . S
C368 C366 1.391 . S
C368 C369 1.400 . S
C369 C363 1.491 . S
C369 C368 1.400 . S
C369 C370 1.398 . S
C370 H358 0.950 . S
C370 C369 1.398 . S
C370 C371 1.391 . S
C371 H359 0.950 . S
C371 C367 1.393 . S
C371 C370 1.391 . S
H372 C380 0.950 . S
H373 C385 0.950 . S
H374 C382 0.950 . S
H375 C384 0.950 . S
H376 C386 0.950 . S
H377 C388 0.950 . S
H378 C390 0.950 . S
H379 C391 0.950 . S
C380 H372 0.950 . S
C380 C381 1.386 . S
C380 C382 1.391 . S
C381 C380 1.386 . S
C381 C385 1.393 . S
C382 H374 0.950 . S
C382 C380 1.391 . S
C382 C383 1.400 . S
C383 C382 1.400 . S
C383 C384 1.398 . S
C383 C389 1.491 . S
C384 H375 0.950 . S
C384 C383 1.398 . S
C384 C385 1.391 . S
C385 H373 0.950 . S
C385 C381 1.393 . S
C385 C384 1.391 . S
C386 H376 0.950 . S
C386 C387 1.386 . S
C386 C388 1.391 . S
C387 C386 1.386 . S
C387 C391 1.393 . S
C388 H377 0.950 . S
C388 C386 1.391 . S
C388 C389 1.400 . S
C389 C383 1.491 . S
C389 C388 1.400 . S
C389 C390 1.398 . S
C390 H378 0.950 . S
C390 C389 1.398 . S
C390 C391 1.391 . S
C391 H379 0.950 . S
C391 C387 1.393 . S
C391 C390 1.391 . S
H392 C400 0.950 . S
H393 C405 0.950 . S
H394 C402 0.950 . S
H395 C404 0.950 . S
H396 C406 0.950 . S
H397 C408 0.950 . S
H398 C410 0.950 . S
H399 C411 0.950 . S
C400 H392 0.950 . S
C400 C401 1.386 . S
C400 C402 1.391 . S
C401 C400 1.386 . S
C401 C405 1.393 . S
C402 H394 0.950 . S
C402 C400 1.391 . S
C402 C403 1.400 . S
C403 C402 1.400 . S
C403 C404 1.398 . S
C403 C409 1.491 . S
C404 H395 0.950 . S
C404 C403 1.398 . S
C404 C405 1.391 . S
C405 H393 0.950 . S
C405 C401 1.393 . S
C405 C404 1.391 . S
C406 H396 0.950 . S
C406 C407 1.386 . S
C406 C408 1.391 . S
C407 C406 1.386 . S
C407 C411 1.393 . S
C408 H397 0.950 . S
C408 C406 1.391 . S
C408 C409 1.400 . S
C409 C403 1.491 . S
C409 C408 1.400 . S
C409 C410 1.398 . S
C410 H398 0.950 . S
C410 C409 1.398 . S
C410 C411 1.391 . S
C411 H399 0.950 . S
C411 C407 1.393 . S
C411 C410 1.391 . S
H412 C420 0.950 . S
H413 C425 0.950 . S
H414 C422 0.950 . S
H415 C424 0.950 . S
H416 C426 0.950 . S
H417 C428 0.950 . S
H418 C430 0.950 . S
H419 C431 0.950 . S
C420 H412 0.950 . S
C420 C421 1.386 . S
C420 C422 1.391 . S
C421 C420 1.386 . S
C421 C425 1.393 . S
C422 H414 0.950 . S
C422 C420 1.391 . S
C422 C423 1.400 . S
C423 C422 1.400 . S
C423 C424 1.398 . S
C423 C429 1.491 . S
C424 H415 0.950 . S
C424 C423 1.398 . S
C424 C425 1.391 . S
C425 H413 0.950 . S
C425 C421 1.393 . S
C425 C424 1.391 . S
C426 H416 0.950 . S
C426 C427 1.386 . S
C426 C428 1.391 . S
C427 C426 1.386 . S
C427 C431 1.393 . S
C428 H417 0.950 . S
C428 C426 1.391 . S
C428 C429 1.400 . S
C429 C423 1.491 . S
C429 C428 1.400 . S
C429 C430 1.398 . S
C430 H418 0.950 . S
C430 C429 1.398 . S
C430 C431 1.391 . S
C431 H419 0.950 . S
C431 C427 1.393 . S
C431 C430 1.391 . S
H432 C440 0.950 . S
H433 C445 0.950 . S
H434 C442 0.950 . S
H435 C444 0.950 . S
H436 C446 0.950 . S
H437 C448 0.950 . S
H438 C450 0.950 . S
H439 C451 0.950 . S
C440 H432 0.950 . S
C440 C441 1.386 . S
C440 C442 1.391 . S
C441 C440 1.386 . S
C441 C445 1.393 . S
C442 H434 0.950 . S
C442 C440 1.391 . S
C442 C443 1.400 . S
C443 C442 1.400 . S
C443 C444 1.398 . S
C443 C449 1.491 . S
C444 H435 0.950 . S
C444 C443 1.398 . S
C444 C445 1.391 . S
C445 H433 0.950 . S
C445 C441 1.393 . S
C445 C444 1.391 . S
C446 H436 0.950 . S
C446 C447 1.386 . S
C446 C448 1.391 . S
C447 C446 1.386 . S
C447 C451 1.393 . S
C448 H437 0.950 . S
C448 C446 1.391 . S
C448 C449 1.400 . S
C449 C443 1.491 . S
C449 C448 1.400 . S
C449 C450 1.398 . S
C450 H438 0.950 . S
C450 C449 1.398 . S
C450 C451 1.391 . S
C451 H439 0.950 . S
C451 C447 1.393 . S
C451 C450 1.391 . S
H452 C460 0.950 . S
H453 C465 0.950 . S
H454 C462 0.950 . S
H455 C464 0.950 . S
H456 C466 0.950 . S
H457 C468 0.950 . S
H458 C470 0.950 . S
H459 C471 0.950 . S
C460 H452 0.950 . S
C460 C461 1.386 . S
C460 C462 1.391 . S
C461 C460 1.386 . S
C461 C465 1.393 . S
C462 H454 0.950 . S
C462 C460 1.391 . S
C462 C463 1.400 . S
C463 C462 1.400 . S
C463 C464 1.398 . S
C463 C469 1.491 . S
C464 H455 0.950 . S
C464 C463 1.398 . S
C464 C465 1.391 . S
C465 H453 0.950 . S
C465 C461 1.393 . S
C465 C464 1.391 . S
C466 H456 0.950 . S
C466 C467 1.386 . S
C466 C468 1.391 . S
C467 C466 1.386 . S
C467 C471 1.393 . S
C468 H457 0.950 . S
C468 C466 1.391 . S
C468 C469 1.400 . S
C469 C463 1.491 . S
C469 C468 1.400 . S
C469 C470 1.398 . S
C470 H458 0.950 . S
C470 C469 1.398 . S
C470 C471 1.391 . S
C471 H459 0.950 . S
C471 C467 1.393 . S
C471 C470 1.391 . S
H472 C480 0.950 . S
H473 C485 0.950 . S
H474 C482 0.950 . S
H475 C484 0.950 . S
H476 C486 0.950 . S
H477 C488 0.950 . S
H478 C490 0.950 . S
H479 C491 0.950 . S
C480 H472 0.950 . S
C480 C481 1.386 . S
C480 C482 1.391 . S
C481 C480 1.386 . S
C481 C485 1.393 . S
C482 H474 0.950 . S
C482 C480 1.391 . S
C482 C483 1.400 . S
C483 C482 1.400 . S
C483 C484 1.398 . S
C483 C489 1.491 . S
C484 H475 0.950 . S
C484 C483 1.398 . S
C484 C485 1.391 . S
C485 H473 0.950 . S
C485 C481 1.393 . S
C485 C484 1.391 . S
C486 H476 0.950 . S
C486 C487 1.386 . S
C486 C488 1.391 . S
C487 C486 1.386 . S
C487 C491 1.393 . S
C488 H477 0.950 . S
C488 C486 1.391 . S
C488 C489 1.400 . S
C489 C483 1.491 . S
C489 C488 1.400 . S
C489 C490 1.398 . S
C490 H478 0.950 . S
C490 C489 1.398 . S
C490 C491 1.391 . S
C491 H479 0.950 . S
C491 C487 1.393 . S
C491 C490 1.391 . S
H492 C500 0.950 . S
H493 C505 0.950 . S
H494 C502 0.950 . S
H495 C504 0.950 . S
H496 C506 0.950 . S
H497 C508 0.950 . S
H498 C510 0.950 . S
H499 C511 0.950 . S
C500 H492 0.950 . S
C500 C501 1.386 . S
C500 C502 1.391 . S
C501 C500 1.386 . S
C501 C505 1.393 . S
C502 H494 0.950 . S
C502 C500 1.391 . S
C502 C503 1.400 . S
C503 C502 1.400 . S
C503 C504 1.398 . S
C503 C509 1.491 . S
C504 H495 0.950 . S
C504 C503 1.398 . S
C504 C505 1.391 . S
C505 H493 0.950 . S
C505 C501 1.393 . S
C505 C504 1.391 . S
C506 H496 0.950 . S
C506 C507 1.386 . S
C506 C508 1.391 . S
C507 C506 1.386 . S
C507 C511 1.393 . S
C508 H497 0.950 . S
C508 C506 1.391 . S
C508 C509 1.400 . S
C509 C503 1.491 . S
C509 C508 1.400 . S
C509 C510 1.398 . S
C510 H498 0.950 . S
C510 C509 1.398 . S
C510 C511 1.391 . S
C511 H499 0.950 . S
C511 C507 1.393 . S
C511 C510 1.391 . S
H512 C520 0.950 . S
H513 C525 0.950 . S
H514 C522 0.950 . S
H515 C524 0.950 . S
H516 C526 0.950 . S
H517 C528 0.950 . S
H518 C530 0.950 . S
H519 C531 0.950 . S
C520 H512 0.950 . S
C520 C521 1.386 . S
C520 C522 1.391 . S
C521 C520 1.386 . S
C521 C525 1.393 1_556 S
C522 H514 0.950 . S
C522 C520 1.391 . S
C522 C523 1.402 . S
C523 C522 1.402 . S
C523 C524 1.397 1_556 S
C523 C529 1.490 1_556 S
C524 H515 0.950 . S
C524 C523 1.397 1_554 S
C524 C525 1.391 . S
C525 H513 0.950 . S
C525 C521 1.393 1_554 S
C525 C524 1.391 . S
C526 H516 0.950 . S
C526 C527 1.386 . S
C526 C528 1.391 . S
C527 C526 1.386 . S
C527 C531 1.393 1_554 S
C528 H517 0.950 . S
C528 C526 1.391 . S
C528 C529 1.400 . S
C529 C523 1.490 1_554 S
C529 C528 1.400 . S
C529 C530 1.398 1_554 S
C530 H518 0.950 . S
C530 C529 1.398 1_556 S
C530 C531 1.391 . S
C531 H519 0.950 . S
C531 C527 1.393 1_556 S
C531 C530 1.391 . S
H532 C540 0.950 . S
H533 C545 0.950 . S
H534 C542 0.950 . S
H535 C544 0.950 . S
H536 C546 0.950 . S
H537 C548 0.950 . S
H538 C550 0.950 . S
H539 C551 0.950 . S
C540 H532 0.950 . S
C540 C541 1.386 . S
C540 C542 1.391 . S
C541 C540 1.386 . S
C541 C545 1.393 . S
C542 H534 0.950 . S
C542 C540 1.391 . S
C542 C543 1.400 . S
C543 C542 1.400 . S
C543 C544 1.398 . S
C543 C549 1.491 . S
C544 H535 0.950 . S
C544 C543 1.398 . S
C544 C545 1.391 . S
C545 H533 0.950 . S
C545 C541 1.393 . S
C545 C544 1.391 . S
C546 H536 0.950 . S
C546 C547 1.386 . S
C546 C548 1.391 . S
C547 C546 1.386 . S
C547 C551 1.393 . S
C548 H537 0.950 . S
C548 C546 1.391 . S
C548 C549 1.400 . S
C549 C543 1.491 . S
C549 C548 1.400 . S
C549 C550 1.398 . S
C550 H538 0.950 . S
C550 C549 1.398 . S
C550 C551 1.391 . S
C551 H539 0.950 . S
C551 C547 1.393 . S
C551 C550 1.391 . S
H552 C560 0.950 . S
H553 C565 0.950 . S
H554 C562 0.950 . S
H555 C564 0.950 . S
H556 C566 0.950 . S
H557 C568 0.950 . S
H558 C570 0.950 . S
H559 C571 0.950 . S
C560 H552 0.950 . S
C560 C561 1.386 . S
C560 C562 1.391 . S
C561 C560 1.386 . S
C561 C565 1.393 1_554 S
C562 H554 0.950 . S
C562 C560 1.391 . S
C562 C563 1.400 . S
C563 C562 1.400 . S
C563 C564 1.398 1_554 S
C563 C569 1.491 . S
C564 H555 0.950 . S
C564 C563 1.398 1_556 S
C564 C565 1.391 . S
C565 H553 0.950 . S
C565 C561 1.393 1_556 S
C565 C564 1.391 . S
C566 H556 0.950 . S
C566 C567 1.386 1_556 S
C566 C568 1.391 . S
C567 C566 1.386 1_554 S
C567 C571 1.393 . S
C568 H557 0.950 . S
C568 C566 1.391 . S
C568 C569 1.393 1_556 S
C569 C563 1.491 . S
C569 C568 1.393 1_554 S
C569 C570 1.405 . S
C570 H558 0.950 . S
C570 C569 1.405 . S
C570 C571 1.391 . S
C571 H559 0.950 . S
C571 C567 1.393 . S
C571 C570 1.391 . S
H572 C580 0.950 . S
H573 C585 0.950 . S
H574 C582 0.950 . S
H575 C584 0.950 . S
H576 C586 0.950 . S
H577 C588 0.950 . S
H578 C590 0.950 . S
H579 C591 0.950 . S
C580 H572 0.950 . S
C580 C581 1.386 . S
C580 C582 1.391 . S
C581 C580 1.386 . S
C581 C585 1.393 . S
C582 H574 0.950 . S
C582 C580 1.391 . S
C582 C583 1.400 . S
C583 C582 1.400 . S
C583 C584 1.398 . S
C583 C589 1.491 . S
C584 H575 0.950 . S
C584 C583 1.398 . S
C584 C585 1.391 . S
C585 H573 0.950 . S
C585 C581 1.393 . S
C585 C584 1.391 . S
C586 H576 0.950 . S
C586 C587 1.386 . S
C586 C588 1.391 . S
C587 C586 1.386 . S
C587 C591 1.393 . S
C588 H577 0.950 . S
C588 C586 1.391 . S
C588 C589 1.400 . S
C589 C583 1.491 . S
C589 C588 1.400 . S
C589 C590 1.398 . S
C590 H578 0.950 . S
C590 C589 1.398 . S
C590 C591 1.391 . S
C591 H579 0.950 . S
C591 C587 1.393 . S
C591 C590 1.391 . S
H592 C600 0.950 . S
H593 C605 0.950 . S
H594 C602 0.950 . S
H595 C604 0.950 . S
H596 C606 0.950 . S
H597 C608 0.950 . S
H598 C610 0.950 . S
H599 C611 0.950 . S
C600 H592 0.950 . S
C600 C601 1.386 . S
C600 C602 1.391 . S
C601 C600 1.386 . S
C601 C605 1.393 . S
C602 H594 0.950 . S
C602 C600 1.391 . S
C602 C603 1.400 . S
C603 C602 1.400 . S
C603 C604 1.398 . S
C603 C609 1.491 . S
C604 H595 0.950 . S
C604 C603 1.398 . S
C604 C605 1.391 . S
C605 H593 0.950 . S
C605 C601 1.393 . S
C605 C604 1.391 . S
C606 H596 0.950 . S
C606 C607 1.386 . S
C606 C608 1.391 . S
C607 C606 1.386 . S
C607 C611 1.393 . S
C608 H597 0.950 . S
C608 C606 1.391 . S
C608 C609 1.400 . S
C609 C603 1.491 . S
C609 C608 1.400 . S
C609 C610 1.398 . S
C610 H598 0.950 . S
C610 C609 1.398 . S
C610 C611 1.391 . S
C611 H599 0.950 . S
C611 C607 1.393 . S
C611 C610 1.391 . S
H612 C620 0.950 . S
H613 C625 0.950 . S
H614 C622 0.950 . S
H615 C624 0.950 . S
H616 C626 0.950 . S
H617 C628 0.950 . S
H618 C630 0.950 . S
H619 C631 0.950 . S
C620 H612 0.950 . S
C620 C621 1.386 . S
C620 C622 1.391 . S
C621 C620 1.386 . S
C621 C625 1.393 1_554 S
C622 H614 0.950 . S
C622 C620 1.391 . S
C622 C623 1.400 . S
C623 C622 1.400 . S
C623 C624 1.398 1_554 S
C623 C629 1.491 1_554 S
C624 H615 0.950 . S
C624 C623 1.398 1_556 S
C624 C625 1.391 . S
C625 H613 0.950 . S
C625 C621 1.393 1_556 S
C625 C624 1.391 . S
C626 H616 0.950 . S
C626 C627 1.386 . S
C626 C628 1.391 . S
C627 C626 1.386 . S
C627 C631 1.393 1_556 S
C628 H617 0.950 . S
C628 C626 1.391 . S
C628 C629 1.400 . S
C629 C623 1.491 1_556 S
C629 C628 1.400 . S
C629 C630 1.398 1_556 S
C630 H618 0.950 . S
C630 C629 1.398 1_554 S
C630 C631 1.391 . S
C631 H619 0.950 . S
C631 C627 1.393 1_554 S
C631 C630 1.391 . S
H632 C640 0.950 . S
H633 C645 0.950 . S
H634 C642 0.950 . S
H635 C644 0.950 . S
H636 C646 0.950 . S
H637 C648 0.950 . S
H638 C650 0.950 . S
H639 C651 0.950 . S
C640 H632 0.950 . S
C640 C641 1.386 . S
C640 C642 1.391 . S
C641 C640 1.386 . S
C641 C645 1.393 . S
C642 H634 0.950 . S
C642 C640 1.391 . S
C642 C643 1.400 . S
C643 C642 1.400 . S
C643 C644 1.398 . S
C643 C649 1.491 . S
C644 H635 0.950 . S
C644 C643 1.398 . S
C644 C645 1.391 . S
C645 H633 0.950 . S
C645 C641 1.393 . S
C645 C644 1.391 . S
C646 H636 0.950 . S
C646 C647 1.386 . S
C646 C648 1.391 . S
C647 C646 1.386 . S
C647 C651 1.393 . S
C648 H637 0.950 . S
C648 C646 1.391 . S
C648 C649 1.400 . S
C649 C643 1.491 . S
C649 C648 1.400 . S
C649 C650 1.398 . S
C650 H638 0.950 . S
C650 C649 1.398 . S
C650 C651 1.391 . S
C651 H639 0.950 . S
C651 C647 1.393 . S
C651 C650 1.391 . S
H652 C660 0.950 . S
H653 C665 0.950 . S
H654 C662 0.950 . S
H655 C664 0.950 . S
H656 C666 0.950 . S
H657 C668 0.950 . S
H658 C670 0.950 . S
H659 C671 0.950 . S
C660 H652 0.950 . S
C660 C661 1.386 1_554 S
C660 C662 1.391 . S
C661 C660 1.386 1_556 S
C661 C665 1.393 . S
C662 H654 0.950 . S
C662 C660 1.391 . S
C662 C663 1.400 1_554 S
C663 C662 1.400 1_556 S
C663 C664 1.398 . S
C663 C669 1.491 1_556 S
C664 H655 0.950 . S
C664 C663 1.398 . S
C664 C665 1.391 . S
C665 H653 0.950 . S
C665 C661 1.393 . S
C665 C664 1.391 . S
C666 H656 0.950 . S
C666 C667 1.386 1_556 S
C666 C668 1.391 . S
C667 C666 1.386 1_554 S
C667 C671 1.393 . S
C668 H657 0.950 . S
C668 C666 1.391 . S
C668 C669 1.400 1_556 S
C669 C663 1.491 1_554 S
C669 C668 1.400 1_554 S
C669 C670 1.398 . S
C670 H658 0.950 . S
C670 C669 1.398 . S
C670 C671 1.391 . S
C671 H659 0.950 . S
C671 C667 1.393 . S
C671 C670 1.391 . S
C201 C21 1.514 . S
C207 N128 1.516 . S
C221 C40 1.482 . S
C227 N89 1.478 . S
C247 N106 1.464 . S
C241 C54 1.464 . S
C261 C73 1.510 . S
C267 N119 1.511 . S
C287 N158 1.457 . S
C281 C74 1.458 . S
C307 N171 1.479 . S
C301 C10 1.482 . S
C327 N180 1.516 . S
C321 C37 1.502 . S
C347 N141 1.502 . S
C341 C65 1.501 . S
C361 C52 1.462 . S
C367 N102 1.460 . S
C381 C87 1.497 . S
C387 N115 1.510 . S
C401 C15 1.507 . S
C407 N132 1.519 . S
C427 N93 1.476 . S
C421 C32 1.481 . S
C441 C29 1.514 . S
C447 N184 1.519 . S
C467 N145 1.513 . S
C461 C59 1.500 . S
C487 N154 1.454 . S
C481 C84 1.459 . S
C501 C8 1.480 . S
C507 N167 1.479 . S
C527 N90 1.512 1_554 S
C521 C7 1.509 1_556 S
C547 N103 1.478 . S
C541 C30 1.476 . S
C561 C62 1.500 . S
C567 N116 1.504 . S
C581 C81 1.501 . S
C587 N129 1.513 . S
C607 N142 1.503 . S
C601 C76 1.501 . S
C621 C18 1.480 1_554 S
C627 N155 1.480 . S
C641 C43 1.509 . S
C647 N168 1.515 . S
C661 C51 1.504 . S
C667 N181 1.513 . S
