# Generated by pormake.
# Topology ana-f, (3,3)-cn, num edge types: 1
# Building blocks:
#     Node 0, Type 0, BuildingBlock: WUSLED_clean_sbu_0, # of connection points: 3
#     Node 1, Type 0, BuildingBlock: WUSLED_clean_sbu_0, # of connection points: 3
#     Node 2, Type 0, BuildingBlock: WUSLED_clean_sbu_0, # of connection points: 3
#     Node 3, Type 0, BuildingBlock: WUSLED_clean_sbu_0, # of connection points: 3
#     Node 4, Type 0, BuildingBlock: WUSLED_clean_sbu_0, # of connection points: 3
#     Node 5, Type 0, BuildingBlock: WUSLED_clean_sbu_0, # of connection points: 3
#     Node 6, Type 0, BuildingBlock: WUSLED_clean_sbu_0, # of connection points: 3
#     Node 7, Type 0, BuildingBlock: WUSLED_clean_sbu_0, # of connection points: 3
#     Node 8, Type 0, BuildingBlock: WUSLED_clean_sbu_0, # of connection points: 3
#     Node 9, Type 0, BuildingBlock: WUSLED_clean_sbu_0, # of connection points: 3
#     Node 10, Type 0, BuildingBlock: WUSLED_clean_sbu_0, # of connection points: 3
#     Node 11, Type 0, BuildingBlock: WUSLED_clean_sbu_0, # of connection points: 3
#     Node 12, Type 0, BuildingBlock: WUSLED_clean_sbu_0, # of connection points: 3
#     Node 13, Type 0, BuildingBlock: WUSLED_clean_sbu_0, # of connection points: 3
#     Node 14, Type 0, BuildingBlock: WUSLED_clean_sbu_0, # of connection points: 3
#     Node 15, Type 0, BuildingBlock: WUSLED_clean_sbu_0, # of connection points: 3
#     Node 16, Type 0, BuildingBlock: WUSLED_clean_sbu_0, # of connection points: 3
#     Node 17, Type 0, BuildingBlock: WUSLED_clean_sbu_0, # of connection points: 3
#     Node 18, Type 0, BuildingBlock: WUSLED_clean_sbu_0, # of connection points: 3
#     Node 19, Type 0, BuildingBlock: WUSLED_clean_sbu_0, # of connection points: 3
#     Node 20, Type 0, BuildingBlock: WUSLED_clean_sbu_0, # of connection points: 3
#     Node 21, Type 0, BuildingBlock: WUSLED_clean_sbu_0, # of connection points: 3
#     Node 22, Type 0, BuildingBlock: WUSLED_clean_sbu_0, # of connection points: 3
#     Node 23, Type 0, BuildingBlock: WUSLED_clean_sbu_0, # of connection points: 3
#     Node 24, Type 0, BuildingBlock: WUSLED_clean_sbu_0, # of connection points: 3
#     Node 25, Type 0, BuildingBlock: WUSLED_clean_sbu_0, # of connection points: 3
#     Node 26, Type 0, BuildingBlock: WUSLED_clean_sbu_0, # of connection points: 3
#     Node 27, Type 0, BuildingBlock: WUSLED_clean_sbu_0, # of connection points: 3
#     Node 28, Type 0, BuildingBlock: WUSLED_clean_sbu_0, # of connection points: 3
#     Node 29, Type 0, BuildingBlock: WUSLED_clean_sbu_0, # of connection points: 3
#     Node 30, Type 0, BuildingBlock: WUSLED_clean_sbu_0, # of connection points: 3
#     Node 31, Type 0, BuildingBlock: WUSLED_clean_sbu_0, # of connection points: 3
#     Node 32, Type 0, BuildingBlock: WUSLED_clean_sbu_0, # of connection points: 3
#     Node 33, Type 0, BuildingBlock: WUSLED_clean_sbu_0, # of connection points: 3
#     Node 34, Type 0, BuildingBlock: WUSLED_clean_sbu_0, # of connection points: 3
#     Node 35, Type 0, BuildingBlock: WUSLED_clean_sbu_0, # of connection points: 3
#     Node 36, Type 0, BuildingBlock: WUSLED_clean_sbu_0, # of connection points: 3
#     Node 37, Type 0, BuildingBlock: WUSLED_clean_sbu_0, # of connection points: 3
#     Node 38, Type 0, BuildingBlock: WUSLED_clean_sbu_0, # of connection points: 3
#     Node 39, Type 0, BuildingBlock: WUSLED_clean_sbu_0, # of connection points: 3
#     Node 40, Type 0, BuildingBlock: WUSLED_clean_sbu_0, # of connection points: 3
#     Node 41, Type 0, BuildingBlock: WUSLED_clean_sbu_0, # of connection points: 3
#     Node 42, Type 0, BuildingBlock: WUSLED_clean_sbu_0, # of connection points: 3
#     Node 43, Type 0, BuildingBlock: WUSLED_clean_sbu_0, # of connection points: 3
#     Node 44, Type 0, BuildingBlock: WUSLED_clean_sbu_0, # of connection points: 3
#     Node 45, Type 0, BuildingBlock: WUSLED_clean_sbu_0, # of connection points: 3
#     Node 46, Type 0, BuildingBlock: WUSLED_clean_sbu_0, # of connection points: 3
#     Node 47, Type 0, BuildingBlock: WUSLED_clean_sbu_0, # of connection points: 3
#     Node 48, Type 0, BuildingBlock: WUSLED_clean_sbu_0, # of connection points: 3
#     Node 49, Type 0, BuildingBlock: WUSLED_clean_sbu_0, # of connection points: 3
#     Node 50, Type 0, BuildingBlock: WUSLED_clean_sbu_0, # of connection points: 3
#     Node 51, Type 0, BuildingBlock: WUSLED_clean_sbu_0, # of connection points: 3
#     Node 52, Type 0, BuildingBlock: WUSLED_clean_sbu_0, # of connection points: 3
#     Node 53, Type 0, BuildingBlock: WUSLED_clean_sbu_0, # of connection points: 3
#     Node 54, Type 0, BuildingBlock: WUSLED_clean_sbu_0, # of connection points: 3
#     Node 55, Type 0, BuildingBlock: WUSLED_clean_sbu_0, # of connection points: 3
#     Node 56, Type 0, BuildingBlock: WUSLED_clean_sbu_0, # of connection points: 3
#     Node 57, Type 0, BuildingBlock: WUSLED_clean_sbu_0, # of connection points: 3
#     Node 58, Type 0, BuildingBlock: WUSLED_clean_sbu_0, # of connection points: 3
#     Node 59, Type 0, BuildingBlock: WUSLED_clean_sbu_0, # of connection points: 3
#     Node 60, Type 0, BuildingBlock: WUSLED_clean_sbu_0, # of connection points: 3
#     Node 61, Type 0, BuildingBlock: WUSLED_clean_sbu_0, # of connection points: 3
#     Node 62, Type 0, BuildingBlock: WUSLED_clean_sbu_0, # of connection points: 3
#     Node 63, Type 0, BuildingBlock: WUSLED_clean_sbu_0, # of connection points: 3
#     Node 64, Type 0, BuildingBlock: WUSLED_clean_sbu_0, # of connection points: 3
#     Node 65, Type 0, BuildingBlock: WUSLED_clean_sbu_0, # of connection points: 3
#     Node 66, Type 0, BuildingBlock: WUSLED_clean_sbu_0, # of connection points: 3
#     Node 67, Type 0, BuildingBlock: WUSLED_clean_sbu_0, # of connection points: 3
#     Node 68, Type 0, BuildingBlock: WUSLED_clean_sbu_0, # of connection points: 3
#     Node 69, Type 0, BuildingBlock: WUSLED_clean_sbu_0, # of connection points: 3
#     Node 70, Type 0, BuildingBlock: WUSLED_clean_sbu_0, # of connection points: 3
#     Node 71, Type 0, BuildingBlock: WUSLED_clean_sbu_0, # of connection points: 3
#     Node 72, Type 0, BuildingBlock: WUSLED_clean_sbu_0, # of connection points: 3
#     Node 73, Type 0, BuildingBlock: WUSLED_clean_sbu_0, # of connection points: 3
#     Node 74, Type 0, BuildingBlock: WUSLED_clean_sbu_0, # of connection points: 3
#     Node 75, Type 0, BuildingBlock: WUSLED_clean_sbu_0, # of connection points: 3
#     Node 76, Type 0, BuildingBlock: WUSLED_clean_sbu_0, # of connection points: 3
#     Node 77, Type 0, BuildingBlock: WUSLED_clean_sbu_0, # of connection points: 3
#     Node 78, Type 0, BuildingBlock: WUSLED_clean_sbu_0, # of connection points: 3
#     Node 79, Type 0, BuildingBlock: WUSLED_clean_sbu_0, # of connection points: 3
#     Node 80, Type 0, BuildingBlock: WUSLED_clean_sbu_0, # of connection points: 3
#     Node 81, Type 0, BuildingBlock: WUSLED_clean_sbu_0, # of connection points: 3
#     Node 82, Type 0, BuildingBlock: WUSLED_clean_sbu_0, # of connection points: 3
#     Node 83, Type 0, BuildingBlock: WUSLED_clean_sbu_0, # of connection points: 3
#     Node 84, Type 0, BuildingBlock: WUSLED_clean_sbu_0, # of connection points: 3
#     Node 85, Type 0, BuildingBlock: WUSLED_clean_sbu_0, # of connection points: 3
#     Node 86, Type 0, BuildingBlock: WUSLED_clean_sbu_0, # of connection points: 3
#     Node 87, Type 0, BuildingBlock: WUSLED_clean_sbu_0, # of connection points: 3
#     Node 88, Type 0, BuildingBlock: WUSLED_clean_sbu_0, # of connection points: 3
#     Node 89, Type 0, BuildingBlock: WUSLED_clean_sbu_0, # of connection points: 3
#     Node 90, Type 0, BuildingBlock: WUSLED_clean_sbu_0, # of connection points: 3
#     Node 91, Type 0, BuildingBlock: WUSLED_clean_sbu_0, # of connection points: 3
#     Node 92, Type 0, BuildingBlock: WUSLED_clean_sbu_0, # of connection points: 3
#     Node 93, Type 0, BuildingBlock: WUSLED_clean_sbu_0, # of connection points: 3
#     Node 94, Type 0, BuildingBlock: WUSLED_clean_sbu_0, # of connection points: 3
#     Node 95, Type 0, BuildingBlock: WUSLED_clean_sbu_0, # of connection points: 3
#     Node 96, Type 1, BuildingBlock: BELTOD_clean_linker_0, # of connection points: 3
#     Node 97, Type 1, BuildingBlock: BELTOD_clean_linker_0, # of connection points: 3
#     Node 98, Type 1, BuildingBlock: BELTOD_clean_linker_0, # of connection points: 3
#     Node 99, Type 1, BuildingBlock: BELTOD_clean_linker_0, # of connection points: 3
#     Node 100, Type 1, BuildingBlock: BELTOD_clean_linker_0, # of connection points: 3
#     Node 101, Type 1, BuildingBlock: BELTOD_clean_linker_0, # of connection points: 3
#     Node 102, Type 1, BuildingBlock: BELTOD_clean_linker_0, # of connection points: 3
#     Node 103, Type 1, BuildingBlock: BELTOD_clean_linker_0, # of connection points: 3
#     Node 104, Type 1, BuildingBlock: BELTOD_clean_linker_0, # of connection points: 3
#     Node 105, Type 1, BuildingBlock: BELTOD_clean_linker_0, # of connection points: 3
#     Node 106, Type 1, BuildingBlock: BELTOD_clean_linker_0, # of connection points: 3
#     Node 107, Type 1, BuildingBlock: BELTOD_clean_linker_0, # of connection points: 3
#     Node 108, Type 1, BuildingBlock: BELTOD_clean_linker_0, # of connection points: 3
#     Node 109, Type 1, BuildingBlock: BELTOD_clean_linker_0, # of connection points: 3
#     Node 110, Type 1, BuildingBlock: BELTOD_clean_linker_0, # of connection points: 3
#     Node 111, Type 1, BuildingBlock: BELTOD_clean_linker_0, # of connection points: 3
#     Node 112, Type 1, BuildingBlock: BELTOD_clean_linker_0, # of connection points: 3
#     Node 113, Type 1, BuildingBlock: BELTOD_clean_linker_0, # of connection points: 3
#     Node 114, Type 1, BuildingBlock: BELTOD_clean_linker_0, # of connection points: 3
#     Node 115, Type 1, BuildingBlock: BELTOD_clean_linker_0, # of connection points: 3
#     Node 116, Type 1, BuildingBlock: BELTOD_clean_linker_0, # of connection points: 3
#     Node 117, Type 1, BuildingBlock: BELTOD_clean_linker_0, # of connection points: 3
#     Node 118, Type 1, BuildingBlock: BELTOD_clean_linker_0, # of connection points: 3
#     Node 119, Type 1, BuildingBlock: BELTOD_clean_linker_0, # of connection points: 3
#     Node 120, Type 1, BuildingBlock: BELTOD_clean_linker_0, # of connection points: 3
#     Node 121, Type 1, BuildingBlock: BELTOD_clean_linker_0, # of connection points: 3
#     Node 122, Type 1, BuildingBlock: BELTOD_clean_linker_0, # of connection points: 3
#     Node 123, Type 1, BuildingBlock: BELTOD_clean_linker_0, # of connection points: 3
#     Node 124, Type 1, BuildingBlock: BELTOD_clean_linker_0, # of connection points: 3
#     Node 125, Type 1, BuildingBlock: BELTOD_clean_linker_0, # of connection points: 3
#     Node 126, Type 1, BuildingBlock: BELTOD_clean_linker_0, # of connection points: 3
#     Node 127, Type 1, BuildingBlock: BELTOD_clean_linker_0, # of connection points: 3
#     Node 128, Type 1, BuildingBlock: BELTOD_clean_linker_0, # of connection points: 3
#     Node 129, Type 1, BuildingBlock: BELTOD_clean_linker_0, # of connection points: 3
#     Node 130, Type 1, BuildingBlock: BELTOD_clean_linker_0, # of connection points: 3
#     Node 131, Type 1, BuildingBlock: BELTOD_clean_linker_0, # of connection points: 3
#     Node 132, Type 1, BuildingBlock: BELTOD_clean_linker_0, # of connection points: 3
#     Node 133, Type 1, BuildingBlock: BELTOD_clean_linker_0, # of connection points: 3
#     Node 134, Type 1, BuildingBlock: BELTOD_clean_linker_0, # of connection points: 3
#     Node 135, Type 1, BuildingBlock: BELTOD_clean_linker_0, # of connection points: 3
#     Node 136, Type 1, BuildingBlock: BELTOD_clean_linker_0, # of connection points: 3
#     Node 137, Type 1, BuildingBlock: BELTOD_clean_linker_0, # of connection points: 3
#     Node 138, Type 1, BuildingBlock: BELTOD_clean_linker_0, # of connection points: 3
#     Node 139, Type 1, BuildingBlock: BELTOD_clean_linker_0, # of connection points: 3
#     Node 140, Type 1, BuildingBlock: BELTOD_clean_linker_0, # of connection points: 3
#     Node 141, Type 1, BuildingBlock: BELTOD_clean_linker_0, # of connection points: 3
#     Node 142, Type 1, BuildingBlock: BELTOD_clean_linker_0, # of connection points: 3
#     Node 143, Type 1, BuildingBlock: BELTOD_clean_linker_0, # of connection points: 3
#     Node 144, Type 1, BuildingBlock: BELTOD_clean_linker_0, # of connection points: 3
#     Node 145, Type 1, BuildingBlock: BELTOD_clean_linker_0, # of connection points: 3
#     Node 146, Type 1, BuildingBlock: BELTOD_clean_linker_0, # of connection points: 3
#     Node 147, Type 1, BuildingBlock: BELTOD_clean_linker_0, # of connection points: 3
#     Node 148, Type 1, BuildingBlock: BELTOD_clean_linker_0, # of connection points: 3
#     Node 149, Type 1, BuildingBlock: BELTOD_clean_linker_0, # of connection points: 3
#     Node 150, Type 1, BuildingBlock: BELTOD_clean_linker_0, # of connection points: 3
#     Node 151, Type 1, BuildingBlock: BELTOD_clean_linker_0, # of connection points: 3
#     Node 152, Type 1, BuildingBlock: BELTOD_clean_linker_0, # of connection points: 3
#     Node 153, Type 1, BuildingBlock: BELTOD_clean_linker_0, # of connection points: 3
#     Node 154, Type 1, BuildingBlock: BELTOD_clean_linker_0, # of connection points: 3
#     Node 155, Type 1, BuildingBlock: BELTOD_clean_linker_0, # of connection points: 3
#     Node 156, Type 1, BuildingBlock: BELTOD_clean_linker_0, # of connection points: 3
#     Node 157, Type 1, BuildingBlock: BELTOD_clean_linker_0, # of connection points: 3
#     Node 158, Type 1, BuildingBlock: BELTOD_clean_linker_0, # of connection points: 3
#     Node 159, Type 1, BuildingBlock: BELTOD_clean_linker_0, # of connection points: 3
#     Node 160, Type 1, BuildingBlock: BELTOD_clean_linker_0, # of connection points: 3
#     Node 161, Type 1, BuildingBlock: BELTOD_clean_linker_0, # of connection points: 3
#     Node 162, Type 1, BuildingBlock: BELTOD_clean_linker_0, # of connection points: 3
#     Node 163, Type 1, BuildingBlock: BELTOD_clean_linker_0, # of connection points: 3
#     Node 164, Type 1, BuildingBlock: BELTOD_clean_linker_0, # of connection points: 3
#     Node 165, Type 1, BuildingBlock: BELTOD_clean_linker_0, # of connection points: 3
#     Node 166, Type 1, BuildingBlock: BELTOD_clean_linker_0, # of connection points: 3
#     Node 167, Type 1, BuildingBlock: BELTOD_clean_linker_0, # of connection points: 3
#     Node 168, Type 1, BuildingBlock: BELTOD_clean_linker_0, # of connection points: 3
#     Node 169, Type 1, BuildingBlock: BELTOD_clean_linker_0, # of connection points: 3
#     Node 170, Type 1, BuildingBlock: BELTOD_clean_linker_0, # of connection points: 3
#     Node 171, Type 1, BuildingBlock: BELTOD_clean_linker_0, # of connection points: 3
#     Node 172, Type 1, BuildingBlock: BELTOD_clean_linker_0, # of connection points: 3
#     Node 173, Type 1, BuildingBlock: BELTOD_clean_linker_0, # of connection points: 3
#     Node 174, Type 1, BuildingBlock: BELTOD_clean_linker_0, # of connection points: 3
#     Node 175, Type 1, BuildingBlock: BELTOD_clean_linker_0, # of connection points: 3
#     Node 176, Type 1, BuildingBlock: BELTOD_clean_linker_0, # of connection points: 3
#     Node 177, Type 1, BuildingBlock: BELTOD_clean_linker_0, # of connection points: 3
#     Node 178, Type 1, BuildingBlock: BELTOD_clean_linker_0, # of connection points: 3
#     Node 179, Type 1, BuildingBlock: BELTOD_clean_linker_0, # of connection points: 3
#     Node 180, Type 1, BuildingBlock: BELTOD_clean_linker_0, # of connection points: 3
#     Node 181, Type 1, BuildingBlock: BELTOD_clean_linker_0, # of connection points: 3
#     Node 182, Type 1, BuildingBlock: BELTOD_clean_linker_0, # of connection points: 3
#     Node 183, Type 1, BuildingBlock: BELTOD_clean_linker_0, # of connection points: 3
#     Node 184, Type 1, BuildingBlock: BELTOD_clean_linker_0, # of connection points: 3
#     Node 185, Type 1, BuildingBlock: BELTOD_clean_linker_0, # of connection points: 3
#     Node 186, Type 1, BuildingBlock: BELTOD_clean_linker_0, # of connection points: 3
#     Node 187, Type 1, BuildingBlock: BELTOD_clean_linker_0, # of connection points: 3
#     Node 188, Type 1, BuildingBlock: BELTOD_clean_linker_0, # of connection points: 3
#     Node 189, Type 1, BuildingBlock: BELTOD_clean_linker_0, # of connection points: 3
#     Node 190, Type 1, BuildingBlock: BELTOD_clean_linker_0, # of connection points: 3
#     Node 191, Type 1, BuildingBlock: BELTOD_clean_linker_0, # of connection points: 3
#     Edge 192, Type (0, 1), BuildingBlock: OJICUG_clean_linker_0, # of connection points: 2
#     Edge 193, Type (0, 1), BuildingBlock: OJICUG_clean_linker_0, # of connection points: 2
#     Edge 194, Type (0, 1), BuildingBlock: OJICUG_clean_linker_0, # of connection points: 2
#     Edge 195, Type (0, 1), BuildingBlock: OJICUG_clean_linker_0, # of connection points: 2
#     Edge 196, Type (0, 1), BuildingBlock: OJICUG_clean_linker_0, # of connection points: 2
#     Edge 197, Type (0, 1), BuildingBlock: OJICUG_clean_linker_0, # of connection points: 2
#     Edge 198, Type (0, 1), BuildingBlock: OJICUG_clean_linker_0, # of connection points: 2
#     Edge 199, Type (0, 1), BuildingBlock: OJICUG_clean_linker_0, # of connection points: 2
#     Edge 200, Type (0, 1), BuildingBlock: OJICUG_clean_linker_0, # of connection points: 2
#     Edge 201, Type (0, 1), BuildingBlock: OJICUG_clean_linker_0, # of connection points: 2
#     Edge 202, Type (0, 1), BuildingBlock: OJICUG_clean_linker_0, # of connection points: 2
#     Edge 203, Type (0, 1), BuildingBlock: OJICUG_clean_linker_0, # of connection points: 2
#     Edge 204, Type (0, 1), BuildingBlock: OJICUG_clean_linker_0, # of connection points: 2
#     Edge 205, Type (0, 1), BuildingBlock: OJICUG_clean_linker_0, # of connection points: 2
#     Edge 206, Type (0, 1), BuildingBlock: OJICUG_clean_linker_0, # of connection points: 2
#     Edge 207, Type (0, 1), BuildingBlock: OJICUG_clean_linker_0, # of connection points: 2
#     Edge 208, Type (0, 1), BuildingBlock: OJICUG_clean_linker_0, # of connection points: 2
#     Edge 209, Type (0, 1), BuildingBlock: OJICUG_clean_linker_0, # of connection points: 2
#     Edge 210, Type (0, 1), BuildingBlock: OJICUG_clean_linker_0, # of connection points: 2
#     Edge 211, Type (0, 1), BuildingBlock: OJICUG_clean_linker_0, # of connection points: 2
#     Edge 212, Type (0, 1), BuildingBlock: OJICUG_clean_linker_0, # of connection points: 2
#     Edge 213, Type (0, 1), BuildingBlock: OJICUG_clean_linker_0, # of connection points: 2
#     Edge 214, Type (0, 1), BuildingBlock: OJICUG_clean_linker_0, # of connection points: 2
#     Edge 215, Type (0, 1), BuildingBlock: OJICUG_clean_linker_0, # of connection points: 2
#     Edge 216, Type (0, 1), BuildingBlock: OJICUG_clean_linker_0, # of connection points: 2
#     Edge 217, Type (0, 1), BuildingBlock: OJICUG_clean_linker_0, # of connection points: 2
#     Edge 218, Type (0, 1), BuildingBlock: OJICUG_clean_linker_0, # of connection points: 2
#     Edge 219, Type (0, 1), BuildingBlock: OJICUG_clean_linker_0, # of connection points: 2
#     Edge 220, Type (0, 1), BuildingBlock: OJICUG_clean_linker_0, # of connection points: 2
#     Edge 221, Type (0, 1), BuildingBlock: OJICUG_clean_linker_0, # of connection points: 2
#     Edge 222, Type (0, 1), BuildingBlock: OJICUG_clean_linker_0, # of connection points: 2
#     Edge 223, Type (0, 1), BuildingBlock: OJICUG_clean_linker_0, # of connection points: 2
#     Edge 224, Type (0, 1), BuildingBlock: OJICUG_clean_linker_0, # of connection points: 2
#     Edge 225, Type (0, 1), BuildingBlock: OJICUG_clean_linker_0, # of connection points: 2
#     Edge 226, Type (0, 1), BuildingBlock: OJICUG_clean_linker_0, # of connection points: 2
#     Edge 227, Type (0, 1), BuildingBlock: OJICUG_clean_linker_0, # of connection points: 2
#     Edge 228, Type (0, 1), BuildingBlock: OJICUG_clean_linker_0, # of connection points: 2
#     Edge 229, Type (0, 1), BuildingBlock: OJICUG_clean_linker_0, # of connection points: 2
#     Edge 230, Type (0, 1), BuildingBlock: OJICUG_clean_linker_0, # of connection points: 2
#     Edge 231, Type (0, 1), BuildingBlock: OJICUG_clean_linker_0, # of connection points: 2
#     Edge 232, Type (0, 1), BuildingBlock: OJICUG_clean_linker_0, # of connection points: 2
#     Edge 233, Type (0, 1), BuildingBlock: OJICUG_clean_linker_0, # of connection points: 2
#     Edge 234, Type (0, 1), BuildingBlock: OJICUG_clean_linker_0, # of connection points: 2
#     Edge 235, Type (0, 1), BuildingBlock: OJICUG_clean_linker_0, # of connection points: 2
#     Edge 236, Type (0, 1), BuildingBlock: OJICUG_clean_linker_0, # of connection points: 2
#     Edge 237, Type (0, 1), BuildingBlock: OJICUG_clean_linker_0, # of connection points: 2
#     Edge 238, Type (0, 1), BuildingBlock: OJICUG_clean_linker_0, # of connection points: 2
#     Edge 239, Type (0, 1), BuildingBlock: OJICUG_clean_linker_0, # of connection points: 2
#     Edge 240, Type (0, 1), BuildingBlock: OJICUG_clean_linker_0, # of connection points: 2
#     Edge 241, Type (0, 1), BuildingBlock: OJICUG_clean_linker_0, # of connection points: 2
#     Edge 242, Type (0, 1), BuildingBlock: OJICUG_clean_linker_0, # of connection points: 2
#     Edge 243, Type (0, 1), BuildingBlock: OJICUG_clean_linker_0, # of connection points: 2
#     Edge 244, Type (0, 1), BuildingBlock: OJICUG_clean_linker_0, # of connection points: 2
#     Edge 245, Type (0, 1), BuildingBlock: OJICUG_clean_linker_0, # of connection points: 2
#     Edge 246, Type (0, 1), BuildingBlock: OJICUG_clean_linker_0, # of connection points: 2
#     Edge 247, Type (0, 1), BuildingBlock: OJICUG_clean_linker_0, # of connection points: 2
#     Edge 248, Type (0, 1), BuildingBlock: OJICUG_clean_linker_0, # of connection points: 2
#     Edge 249, Type (0, 1), BuildingBlock: OJICUG_clean_linker_0, # of connection points: 2
#     Edge 250, Type (0, 1), BuildingBlock: OJICUG_clean_linker_0, # of connection points: 2
#     Edge 251, Type (0, 1), BuildingBlock: OJICUG_clean_linker_0, # of connection points: 2
#     Edge 252, Type (0, 1), BuildingBlock: OJICUG_clean_linker_0, # of connection points: 2
#     Edge 253, Type (0, 1), BuildingBlock: OJICUG_clean_linker_0, # of connection points: 2
#     Edge 254, Type (0, 1), BuildingBlock: OJICUG_clean_linker_0, # of connection points: 2
#     Edge 255, Type (0, 1), BuildingBlock: OJICUG_clean_linker_0, # of connection points: 2
#     Edge 256, Type (0, 1), BuildingBlock: OJICUG_clean_linker_0, # of connection points: 2
#     Edge 257, Type (0, 1), BuildingBlock: OJICUG_clean_linker_0, # of connection points: 2
#     Edge 258, Type (0, 1), BuildingBlock: OJICUG_clean_linker_0, # of connection points: 2
#     Edge 259, Type (0, 1), BuildingBlock: OJICUG_clean_linker_0, # of connection points: 2
#     Edge 260, Type (0, 1), BuildingBlock: OJICUG_clean_linker_0, # of connection points: 2
#     Edge 261, Type (0, 1), BuildingBlock: OJICUG_clean_linker_0, # of connection points: 2
#     Edge 262, Type (0, 1), BuildingBlock: OJICUG_clean_linker_0, # of connection points: 2
#     Edge 263, Type (0, 1), BuildingBlock: OJICUG_clean_linker_0, # of connection points: 2
#     Edge 264, Type (0, 1), BuildingBlock: OJICUG_clean_linker_0, # of connection points: 2
#     Edge 265, Type (0, 1), BuildingBlock: OJICUG_clean_linker_0, # of connection points: 2
#     Edge 266, Type (0, 1), BuildingBlock: OJICUG_clean_linker_0, # of connection points: 2
#     Edge 267, Type (0, 1), BuildingBlock: OJICUG_clean_linker_0, # of connection points: 2
#     Edge 268, Type (0, 1), BuildingBlock: OJICUG_clean_linker_0, # of connection points: 2
#     Edge 269, Type (0, 1), BuildingBlock: OJICUG_clean_linker_0, # of connection points: 2
#     Edge 270, Type (0, 1), BuildingBlock: OJICUG_clean_linker_0, # of connection points: 2
#     Edge 271, Type (0, 1), BuildingBlock: OJICUG_clean_linker_0, # of connection points: 2
#     Edge 272, Type (0, 1), BuildingBlock: OJICUG_clean_linker_0, # of connection points: 2
#     Edge 273, Type (0, 1), BuildingBlock: OJICUG_clean_linker_0, # of connection points: 2
#     Edge 274, Type (0, 1), BuildingBlock: OJICUG_clean_linker_0, # of connection points: 2
#     Edge 275, Type (0, 1), BuildingBlock: OJICUG_clean_linker_0, # of connection points: 2
#     Edge 276, Type (0, 1), BuildingBlock: OJICUG_clean_linker_0, # of connection points: 2
#     Edge 277, Type (0, 1), BuildingBlock: OJICUG_clean_linker_0, # of connection points: 2
#     Edge 278, Type (0, 1), BuildingBlock: OJICUG_clean_linker_0, # of connection points: 2
#     Edge 279, Type (0, 1), BuildingBlock: OJICUG_clean_linker_0, # of connection points: 2
#     Edge 280, Type (0, 1), BuildingBlock: OJICUG_clean_linker_0, # of connection points: 2
#     Edge 281, Type (0, 1), BuildingBlock: OJICUG_clean_linker_0, # of connection points: 2
#     Edge 282, Type (0, 1), BuildingBlock: OJICUG_clean_linker_0, # of connection points: 2
#     Edge 283, Type (0, 1), BuildingBlock: OJICUG_clean_linker_0, # of connection points: 2
#     Edge 284, Type (0, 1), BuildingBlock: OJICUG_clean_linker_0, # of connection points: 2
#     Edge 285, Type (0, 1), BuildingBlock: OJICUG_clean_linker_0, # of connection points: 2
#     Edge 286, Type (0, 1), BuildingBlock: OJICUG_clean_linker_0, # of connection points: 2
#     Edge 287, Type (0, 1), BuildingBlock: OJICUG_clean_linker_0, # of connection points: 2
#     Edge 288, Type (0, 1), BuildingBlock: OJICUG_clean_linker_0, # of connection points: 2
#     Edge 289, Type (0, 1), BuildingBlock: OJICUG_clean_linker_0, # of connection points: 2
#     Edge 290, Type (0, 1), BuildingBlock: OJICUG_clean_linker_0, # of connection points: 2
#     Edge 291, Type (0, 1), BuildingBlock: OJICUG_clean_linker_0, # of connection points: 2
#     Edge 292, Type (0, 1), BuildingBlock: OJICUG_clean_linker_0, # of connection points: 2
#     Edge 293, Type (0, 1), BuildingBlock: OJICUG_clean_linker_0, # of connection points: 2
#     Edge 294, Type (0, 1), BuildingBlock: OJICUG_clean_linker_0, # of connection points: 2
#     Edge 295, Type (0, 1), BuildingBlock: OJICUG_clean_linker_0, # of connection points: 2
#     Edge 296, Type (0, 1), BuildingBlock: OJICUG_clean_linker_0, # of connection points: 2
#     Edge 297, Type (0, 1), BuildingBlock: OJICUG_clean_linker_0, # of connection points: 2
#     Edge 298, Type (0, 1), BuildingBlock: OJICUG_clean_linker_0, # of connection points: 2
#     Edge 299, Type (0, 1), BuildingBlock: OJICUG_clean_linker_0, # of connection points: 2
#     Edge 300, Type (0, 1), BuildingBlock: OJICUG_clean_linker_0, # of connection points: 2
#     Edge 301, Type (0, 1), BuildingBlock: OJICUG_clean_linker_0, # of connection points: 2
#     Edge 302, Type (0, 1), BuildingBlock: OJICUG_clean_linker_0, # of connection points: 2
#     Edge 303, Type (0, 1), BuildingBlock: OJICUG_clean_linker_0, # of connection points: 2
#     Edge 304, Type (0, 1), BuildingBlock: OJICUG_clean_linker_0, # of connection points: 2
#     Edge 305, Type (0, 1), BuildingBlock: OJICUG_clean_linker_0, # of connection points: 2
#     Edge 306, Type (0, 1), BuildingBlock: OJICUG_clean_linker_0, # of connection points: 2
#     Edge 307, Type (0, 1), BuildingBlock: OJICUG_clean_linker_0, # of connection points: 2
#     Edge 308, Type (0, 1), BuildingBlock: OJICUG_clean_linker_0, # of connection points: 2
#     Edge 309, Type (0, 1), BuildingBlock: OJICUG_clean_linker_0, # of connection points: 2
#     Edge 310, Type (0, 1), BuildingBlock: OJICUG_clean_linker_0, # of connection points: 2
#     Edge 311, Type (0, 1), BuildingBlock: OJICUG_clean_linker_0, # of connection points: 2
#     Edge 312, Type (0, 1), BuildingBlock: OJICUG_clean_linker_0, # of connection points: 2
#     Edge 313, Type (0, 1), BuildingBlock: OJICUG_clean_linker_0, # of connection points: 2
#     Edge 314, Type (0, 1), BuildingBlock: OJICUG_clean_linker_0, # of connection points: 2
#     Edge 315, Type (0, 1), BuildingBlock: OJICUG_clean_linker_0, # of connection points: 2
#     Edge 316, Type (0, 1), BuildingBlock: OJICUG_clean_linker_0, # of connection points: 2
#     Edge 317, Type (0, 1), BuildingBlock: OJICUG_clean_linker_0, # of connection points: 2
#     Edge 318, Type (0, 1), BuildingBlock: OJICUG_clean_linker_0, # of connection points: 2
#     Edge 319, Type (0, 1), BuildingBlock: OJICUG_clean_linker_0, # of connection points: 2
#     Edge 320, Type (0, 1), BuildingBlock: OJICUG_clean_linker_0, # of connection points: 2
#     Edge 321, Type (0, 1), BuildingBlock: OJICUG_clean_linker_0, # of connection points: 2
#     Edge 322, Type (0, 1), BuildingBlock: OJICUG_clean_linker_0, # of connection points: 2
#     Edge 323, Type (0, 1), BuildingBlock: OJICUG_clean_linker_0, # of connection points: 2
#     Edge 324, Type (0, 1), BuildingBlock: OJICUG_clean_linker_0, # of connection points: 2
#     Edge 325, Type (0, 1), BuildingBlock: OJICUG_clean_linker_0, # of connection points: 2
#     Edge 326, Type (0, 1), BuildingBlock: OJICUG_clean_linker_0, # of connection points: 2
#     Edge 327, Type (0, 1), BuildingBlock: OJICUG_clean_linker_0, # of connection points: 2
#     Edge 328, Type (0, 1), BuildingBlock: OJICUG_clean_linker_0, # of connection points: 2
#     Edge 329, Type (0, 1), BuildingBlock: OJICUG_clean_linker_0, # of connection points: 2
#     Edge 330, Type (0, 1), BuildingBlock: OJICUG_clean_linker_0, # of connection points: 2
#     Edge 331, Type (0, 1), BuildingBlock: OJICUG_clean_linker_0, # of connection points: 2
#     Edge 332, Type (0, 1), BuildingBlock: OJICUG_clean_linker_0, # of connection points: 2
#     Edge 333, Type (0, 1), BuildingBlock: OJICUG_clean_linker_0, # of connection points: 2
#     Edge 334, Type (0, 1), BuildingBlock: OJICUG_clean_linker_0, # of connection points: 2
#     Edge 335, Type (0, 1), BuildingBlock: OJICUG_clean_linker_0, # of connection points: 2
#     Edge 336, Type (0, 1), BuildingBlock: OJICUG_clean_linker_0, # of connection points: 2
#     Edge 337, Type (0, 1), BuildingBlock: OJICUG_clean_linker_0, # of connection points: 2
#     Edge 338, Type (0, 1), BuildingBlock: OJICUG_clean_linker_0, # of connection points: 2
#     Edge 339, Type (0, 1), BuildingBlock: OJICUG_clean_linker_0, # of connection points: 2
#     Edge 340, Type (0, 1), BuildingBlock: OJICUG_clean_linker_0, # of connection points: 2
#     Edge 341, Type (0, 1), BuildingBlock: OJICUG_clean_linker_0, # of connection points: 2
#     Edge 342, Type (0, 1), BuildingBlock: OJICUG_clean_linker_0, # of connection points: 2
#     Edge 343, Type (0, 1), BuildingBlock: OJICUG_clean_linker_0, # of connection points: 2
#     Edge 344, Type (0, 1), BuildingBlock: OJICUG_clean_linker_0, # of connection points: 2
#     Edge 345, Type (0, 1), BuildingBlock: OJICUG_clean_linker_0, # of connection points: 2
#     Edge 346, Type (0, 1), BuildingBlock: OJICUG_clean_linker_0, # of connection points: 2
#     Edge 347, Type (0, 1), BuildingBlock: OJICUG_clean_linker_0, # of connection points: 2
#     Edge 348, Type (0, 1), BuildingBlock: OJICUG_clean_linker_0, # of connection points: 2
#     Edge 349, Type (0, 1), BuildingBlock: OJICUG_clean_linker_0, # of connection points: 2
#     Edge 350, Type (0, 1), BuildingBlock: OJICUG_clean_linker_0, # of connection points: 2
#     Edge 351, Type (0, 1), BuildingBlock: OJICUG_clean_linker_0, # of connection points: 2
#     Edge 352, Type (0, 1), BuildingBlock: OJICUG_clean_linker_0, # of connection points: 2
#     Edge 353, Type (0, 1), BuildingBlock: OJICUG_clean_linker_0, # of connection points: 2
#     Edge 354, Type (0, 1), BuildingBlock: OJICUG_clean_linker_0, # of connection points: 2
#     Edge 355, Type (0, 1), BuildingBlock: OJICUG_clean_linker_0, # of connection points: 2
#     Edge 356, Type (0, 1), BuildingBlock: OJICUG_clean_linker_0, # of connection points: 2
#     Edge 357, Type (0, 1), BuildingBlock: OJICUG_clean_linker_0, # of connection points: 2
#     Edge 358, Type (0, 1), BuildingBlock: OJICUG_clean_linker_0, # of connection points: 2
#     Edge 359, Type (0, 1), BuildingBlock: OJICUG_clean_linker_0, # of connection points: 2
#     Edge 360, Type (0, 1), BuildingBlock: OJICUG_clean_linker_0, # of connection points: 2
#     Edge 361, Type (0, 1), BuildingBlock: OJICUG_clean_linker_0, # of connection points: 2
#     Edge 362, Type (0, 1), BuildingBlock: OJICUG_clean_linker_0, # of connection points: 2
#     Edge 363, Type (0, 1), BuildingBlock: OJICUG_clean_linker_0, # of connection points: 2
#     Edge 364, Type (0, 1), BuildingBlock: OJICUG_clean_linker_0, # of connection points: 2
#     Edge 365, Type (0, 1), BuildingBlock: OJICUG_clean_linker_0, # of connection points: 2
#     Edge 366, Type (0, 1), BuildingBlock: OJICUG_clean_linker_0, # of connection points: 2
#     Edge 367, Type (0, 1), BuildingBlock: OJICUG_clean_linker_0, # of connection points: 2
#     Edge 368, Type (0, 1), BuildingBlock: OJICUG_clean_linker_0, # of connection points: 2
#     Edge 369, Type (0, 1), BuildingBlock: OJICUG_clean_linker_0, # of connection points: 2
#     Edge 370, Type (0, 1), BuildingBlock: OJICUG_clean_linker_0, # of connection points: 2
#     Edge 371, Type (0, 1), BuildingBlock: OJICUG_clean_linker_0, # of connection points: 2
#     Edge 372, Type (0, 1), BuildingBlock: OJICUG_clean_linker_0, # of connection points: 2
#     Edge 373, Type (0, 1), BuildingBlock: OJICUG_clean_linker_0, # of connection points: 2
#     Edge 374, Type (0, 1), BuildingBlock: OJICUG_clean_linker_0, # of connection points: 2
#     Edge 375, Type (0, 1), BuildingBlock: OJICUG_clean_linker_0, # of connection points: 2
#     Edge 376, Type (0, 1), BuildingBlock: OJICUG_clean_linker_0, # of connection points: 2
#     Edge 377, Type (0, 1), BuildingBlock: OJICUG_clean_linker_0, # of connection points: 2
#     Edge 378, Type (0, 1), BuildingBlock: OJICUG_clean_linker_0, # of connection points: 2
#     Edge 379, Type (0, 1), BuildingBlock: OJICUG_clean_linker_0, # of connection points: 2
#     Edge 380, Type (0, 1), BuildingBlock: OJICUG_clean_linker_0, # of connection points: 2
#     Edge 381, Type (0, 1), BuildingBlock: OJICUG_clean_linker_0, # of connection points: 2
#     Edge 382, Type (0, 1), BuildingBlock: OJICUG_clean_linker_0, # of connection points: 2
#     Edge 383, Type (0, 1), BuildingBlock: OJICUG_clean_linker_0, # of connection points: 2
#     Edge 384, Type (0, 1), BuildingBlock: OJICUG_clean_linker_0, # of connection points: 2
#     Edge 385, Type (0, 1), BuildingBlock: OJICUG_clean_linker_0, # of connection points: 2
#     Edge 386, Type (0, 1), BuildingBlock: OJICUG_clean_linker_0, # of connection points: 2
#     Edge 387, Type (0, 1), BuildingBlock: OJICUG_clean_linker_0, # of connection points: 2
#     Edge 388, Type (0, 1), BuildingBlock: OJICUG_clean_linker_0, # of connection points: 2
#     Edge 389, Type (0, 1), BuildingBlock: OJICUG_clean_linker_0, # of connection points: 2
#     Edge 390, Type (0, 1), BuildingBlock: OJICUG_clean_linker_0, # of connection points: 2
#     Edge 391, Type (0, 1), BuildingBlock: OJICUG_clean_linker_0, # of connection points: 2
#     Edge 392, Type (0, 1), BuildingBlock: OJICUG_clean_linker_0, # of connection points: 2
#     Edge 393, Type (0, 1), BuildingBlock: OJICUG_clean_linker_0, # of connection points: 2
#     Edge 394, Type (0, 1), BuildingBlock: OJICUG_clean_linker_0, # of connection points: 2
#     Edge 395, Type (0, 1), BuildingBlock: OJICUG_clean_linker_0, # of connection points: 2
#     Edge 396, Type (0, 1), BuildingBlock: OJICUG_clean_linker_0, # of connection points: 2
#     Edge 397, Type (0, 1), BuildingBlock: OJICUG_clean_linker_0, # of connection points: 2
#     Edge 398, Type (0, 1), BuildingBlock: OJICUG_clean_linker_0, # of connection points: 2
#     Edge 399, Type (0, 1), BuildingBlock: OJICUG_clean_linker_0, # of connection points: 2
#     Edge 400, Type (0, 1), BuildingBlock: OJICUG_clean_linker_0, # of connection points: 2
#     Edge 401, Type (0, 1), BuildingBlock: OJICUG_clean_linker_0, # of connection points: 2
#     Edge 402, Type (0, 1), BuildingBlock: OJICUG_clean_linker_0, # of connection points: 2
#     Edge 403, Type (0, 1), BuildingBlock: OJICUG_clean_linker_0, # of connection points: 2
#     Edge 404, Type (0, 1), BuildingBlock: OJICUG_clean_linker_0, # of connection points: 2
#     Edge 405, Type (0, 1), BuildingBlock: OJICUG_clean_linker_0, # of connection points: 2
#     Edge 406, Type (0, 1), BuildingBlock: OJICUG_clean_linker_0, # of connection points: 2
#     Edge 407, Type (0, 1), BuildingBlock: OJICUG_clean_linker_0, # of connection points: 2
#     Edge 408, Type (0, 1), BuildingBlock: OJICUG_clean_linker_0, # of connection points: 2
#     Edge 409, Type (0, 1), BuildingBlock: OJICUG_clean_linker_0, # of connection points: 2
#     Edge 410, Type (0, 1), BuildingBlock: OJICUG_clean_linker_0, # of connection points: 2
#     Edge 411, Type (0, 1), BuildingBlock: OJICUG_clean_linker_0, # of connection points: 2
#     Edge 412, Type (0, 1), BuildingBlock: OJICUG_clean_linker_0, # of connection points: 2
#     Edge 413, Type (0, 1), BuildingBlock: OJICUG_clean_linker_0, # of connection points: 2
#     Edge 414, Type (0, 1), BuildingBlock: OJICUG_clean_linker_0, # of connection points: 2
#     Edge 415, Type (0, 1), BuildingBlock: OJICUG_clean_linker_0, # of connection points: 2
#     Edge 416, Type (0, 1), BuildingBlock: OJICUG_clean_linker_0, # of connection points: 2
#     Edge 417, Type (0, 1), BuildingBlock: OJICUG_clean_linker_0, # of connection points: 2
#     Edge 418, Type (0, 1), BuildingBlock: OJICUG_clean_linker_0, # of connection points: 2
#     Edge 419, Type (0, 1), BuildingBlock: OJICUG_clean_linker_0, # of connection points: 2
#     Edge 420, Type (0, 1), BuildingBlock: OJICUG_clean_linker_0, # of connection points: 2
#     Edge 421, Type (0, 1), BuildingBlock: OJICUG_clean_linker_0, # of connection points: 2
#     Edge 422, Type (0, 1), BuildingBlock: OJICUG_clean_linker_0, # of connection points: 2
#     Edge 423, Type (0, 1), BuildingBlock: OJICUG_clean_linker_0, # of connection points: 2
#     Edge 424, Type (0, 1), BuildingBlock: OJICUG_clean_linker_0, # of connection points: 2
#     Edge 425, Type (0, 1), BuildingBlock: OJICUG_clean_linker_0, # of connection points: 2
#     Edge 426, Type (0, 1), BuildingBlock: OJICUG_clean_linker_0, # of connection points: 2
#     Edge 427, Type (0, 1), BuildingBlock: OJICUG_clean_linker_0, # of connection points: 2
#     Edge 428, Type (0, 1), BuildingBlock: OJICUG_clean_linker_0, # of connection points: 2
#     Edge 429, Type (0, 1), BuildingBlock: OJICUG_clean_linker_0, # of connection points: 2
#     Edge 430, Type (0, 1), BuildingBlock: OJICUG_clean_linker_0, # of connection points: 2
#     Edge 431, Type (0, 1), BuildingBlock: OJICUG_clean_linker_0, # of connection points: 2
#     Edge 432, Type (0, 1), BuildingBlock: OJICUG_clean_linker_0, # of connection points: 2
#     Edge 433, Type (0, 1), BuildingBlock: OJICUG_clean_linker_0, # of connection points: 2
#     Edge 434, Type (0, 1), BuildingBlock: OJICUG_clean_linker_0, # of connection points: 2
#     Edge 435, Type (0, 1), BuildingBlock: OJICUG_clean_linker_0, # of connection points: 2
#     Edge 436, Type (0, 1), BuildingBlock: OJICUG_clean_linker_0, # of connection points: 2
#     Edge 437, Type (0, 1), BuildingBlock: OJICUG_clean_linker_0, # of connection points: 2
#     Edge 438, Type (0, 1), BuildingBlock: OJICUG_clean_linker_0, # of connection points: 2
#     Edge 439, Type (0, 1), BuildingBlock: OJICUG_clean_linker_0, # of connection points: 2
#     Edge 440, Type (0, 1), BuildingBlock: OJICUG_clean_linker_0, # of connection points: 2
#     Edge 441, Type (0, 1), BuildingBlock: OJICUG_clean_linker_0, # of connection points: 2
#     Edge 442, Type (0, 1), BuildingBlock: OJICUG_clean_linker_0, # of connection points: 2
#     Edge 443, Type (0, 1), BuildingBlock: OJICUG_clean_linker_0, # of connection points: 2
#     Edge 444, Type (0, 1), BuildingBlock: OJICUG_clean_linker_0, # of connection points: 2
#     Edge 445, Type (0, 1), BuildingBlock: OJICUG_clean_linker_0, # of connection points: 2
#     Edge 446, Type (0, 1), BuildingBlock: OJICUG_clean_linker_0, # of connection points: 2
#     Edge 447, Type (0, 1), BuildingBlock: OJICUG_clean_linker_0, # of connection points: 2
#     Edge 448, Type (0, 1), BuildingBlock: OJICUG_clean_linker_0, # of connection points: 2
#     Edge 449, Type (0, 1), BuildingBlock: OJICUG_clean_linker_0, # of connection points: 2
#     Edge 450, Type (0, 1), BuildingBlock: OJICUG_clean_linker_0, # of connection points: 2
#     Edge 451, Type (0, 1), BuildingBlock: OJICUG_clean_linker_0, # of connection points: 2
#     Edge 452, Type (0, 1), BuildingBlock: OJICUG_clean_linker_0, # of connection points: 2
#     Edge 453, Type (0, 1), BuildingBlock: OJICUG_clean_linker_0, # of connection points: 2
#     Edge 454, Type (0, 1), BuildingBlock: OJICUG_clean_linker_0, # of connection points: 2
#     Edge 455, Type (0, 1), BuildingBlock: OJICUG_clean_linker_0, # of connection points: 2
#     Edge 456, Type (0, 1), BuildingBlock: OJICUG_clean_linker_0, # of connection points: 2
#     Edge 457, Type (0, 1), BuildingBlock: OJICUG_clean_linker_0, # of connection points: 2
#     Edge 458, Type (0, 1), BuildingBlock: OJICUG_clean_linker_0, # of connection points: 2
#     Edge 459, Type (0, 1), BuildingBlock: OJICUG_clean_linker_0, # of connection points: 2
#     Edge 460, Type (0, 1), BuildingBlock: OJICUG_clean_linker_0, # of connection points: 2
#     Edge 461, Type (0, 1), BuildingBlock: OJICUG_clean_linker_0, # of connection points: 2
#     Edge 462, Type (0, 1), BuildingBlock: OJICUG_clean_linker_0, # of connection points: 2
#     Edge 463, Type (0, 1), BuildingBlock: OJICUG_clean_linker_0, # of connection points: 2
#     Edge 464, Type (0, 1), BuildingBlock: OJICUG_clean_linker_0, # of connection points: 2
#     Edge 465, Type (0, 1), BuildingBlock: OJICUG_clean_linker_0, # of connection points: 2
#     Edge 466, Type (0, 1), BuildingBlock: OJICUG_clean_linker_0, # of connection points: 2
#     Edge 467, Type (0, 1), BuildingBlock: OJICUG_clean_linker_0, # of connection points: 2
#     Edge 468, Type (0, 1), BuildingBlock: OJICUG_clean_linker_0, # of connection points: 2
#     Edge 469, Type (0, 1), BuildingBlock: OJICUG_clean_linker_0, # of connection points: 2
#     Edge 470, Type (0, 1), BuildingBlock: OJICUG_clean_linker_0, # of connection points: 2
#     Edge 471, Type (0, 1), BuildingBlock: OJICUG_clean_linker_0, # of connection points: 2
#     Edge 472, Type (0, 1), BuildingBlock: OJICUG_clean_linker_0, # of connection points: 2
#     Edge 473, Type (0, 1), BuildingBlock: OJICUG_clean_linker_0, # of connection points: 2
#     Edge 474, Type (0, 1), BuildingBlock: OJICUG_clean_linker_0, # of connection points: 2
#     Edge 475, Type (0, 1), BuildingBlock: OJICUG_clean_linker_0, # of connection points: 2
#     Edge 476, Type (0, 1), BuildingBlock: OJICUG_clean_linker_0, # of connection points: 2
#     Edge 477, Type (0, 1), BuildingBlock: OJICUG_clean_linker_0, # of connection points: 2
#     Edge 478, Type (0, 1), BuildingBlock: OJICUG_clean_linker_0, # of connection points: 2
#     Edge 479, Type (0, 1), BuildingBlock: OJICUG_clean_linker_0, # of connection points: 2
# Relax obj value: 0.117
# Max RMSD: 0.100
# Mean RMSD: 0.099
data_MOF--net-ana-f--node1-WUSLED_clean_sbu_0--node2-BELTOD_clean_linker_0--edge1-OJICUG_clean_linker_0
_symmetry_space_group_name_H-M    P1
_symmetry_Int_Tables_number       1
_symmetry_cell_setting            triclinic
loop_
_symmetry_equiv_pos_as_xyz
'x, y, z'
_cell_length_a     164.48564
_cell_length_b     164.49835
_cell_length_c     164.49399
_cell_angle_alpha  90.001193
_cell_angle_beta   89.998836
_cell_angle_gamma 89.998771
loop_
_atom_site_label
_atom_site_type_symbol
_atom_site_fract_x
_atom_site_fract_y
_atom_site_fract_z
_atom_type_partial_charge
C0 C 0.06436 0.12747 0.42305 0.0
C1 C 0.07222 0.12516 0.42061 0.0
C2 C 0.07599 0.12257 0.43468 0.0
C3 C 0.07795 0.12268 0.42637 0.0
C4 C 0.06804 0.12461 0.43708 0.0
C5 C 0.06227 0.12701 0.43131 0.0
U6 U 0.06059 0.14235 0.40607 0.0
O7 O 0.05321 0.1417 0.39493 0.0
O8 O 0.05077 0.15116 0.40401 0.0
C9 C 0.04832 0.14756 0.39731 0.0
C10 C 0.05862 0.13115 0.41722 0.0
C11 C 0.03961 0.14563 0.39703 0.0
C12 C 0.02775 0.13893 0.40272 0.0
C13 C 0.03609 0.14057 0.40292 0.0
C14 C 0.0264 0.14728 0.39066 0.0
C15 C 0.0228 0.14229 0.39661 0.0
C16 C 0.03474 0.14894 0.39088 0.0
C17 C 0.07954 0.15467 0.39964 0.0
C18 C 0.07995 0.16521 0.3893 0.0
C19 C 0.09178 0.16262 0.39769 0.0
C20 C 0.08758 0.15647 0.40173 0.0
C21 C 0.08804 0.16709 0.39143 0.0
C22 C 0.07573 0.15904 0.39339 0.0
C23 C 0.07525 0.14843 0.40435 0.0
O24 O 0.05707 0.13888 0.4185 0.0
O25 O 0.05984 0.12944 0.4095 0.0
O26 O 0.07266 0.14204 0.40029 0.0
O27 O 0.06996 0.15115 0.40967 0.0
H28 H 0.07404 0.12556 0.4143 0.0
H29 H 0.08406 0.12126 0.42434 0.0
H30 H 0.06635 0.12454 0.44345 0.0
H31 H 0.05626 0.1288 0.43333 0.0
H32 H 0.02519 0.13498 0.40733 0.0
H33 H 0.03979 0.13793 0.40769 0.0
H34 H 0.02275 0.15004 0.38593 0.0
H35 H 0.03737 0.15287 0.3863 0.0
H36 H 0.0769 0.1685 0.38448 0.0
H37 H 0.09792 0.164 0.39964 0.0
H38 H 0.09058 0.1532 0.40659 0.0
H39 H 0.06949 0.15773 0.39173 0.0
C40 C 0.12322 0.81396 0.67305 0.0
C41 C 0.12266 0.82223 0.67102 0.0
C42 C 0.12816 0.82601 0.68422 0.0
C43 C 0.12514 0.82818 0.67652 0.0
C44 C 0.12893 0.8177 0.68615 0.0
C45 C 0.12648 0.81173 0.6806 0.0
U46 U 0.10734 0.80913 0.65757 0.0
O47 O 0.10736 0.8018 0.64638 0.0
O48 O 0.09887 0.79889 0.65626 0.0
C49 C 0.10197 0.79663 0.64925 0.0
C50 C 0.11956 0.8078 0.66769 0.0
C51 C 0.10425 0.78802 0.64873 0.0
C52 C 0.11226 0.77656 0.65344 0.0
C53 C 0.11031 0.78482 0.65381 0.0
C54 C 0.1022 0.77465 0.64285 0.0
C55 C 0.1082 0.77136 0.64799 0.0
C56 C 0.10024 0.78291 0.64323 0.0
C57 C 0.09366 0.82768 0.65253 0.0
C58 C 0.08437 0.82975 0.64121 0.0
C59 C 0.0839 0.83872 0.65289 0.0
C60 C 0.09018 0.83434 0.65651 0.0
C61 C 0.08097 0.83655 0.64516 0.0
C62 C 0.09068 0.82534 0.64487 0.0
C63 C 0.10044 0.82348 0.65652 0.0
O64 O 0.11208 0.8058 0.66964 0.0
O65 O 0.12053 0.80904 0.65985 0.0
O66 O 0.10655 0.82121 0.65189 0.0
O67 O 0.09842 0.81804 0.66202 0.0
H68 H 0.12001 0.8241 0.66528 0.0
H69 H 0.1243 0.8345 0.67489 0.0
H70 H 0.13127 0.81584 0.69202 0.0
H71 H 0.12689 0.80538 0.68231 0.0
H72 H 0.11698 0.77424 0.65741 0.0
H73 H 0.11348 0.78871 0.65808 0.0
H74 H 0.0989 0.7708 0.63865 0.0
H75 H 0.09554 0.7853 0.63928 0.0
H76 H 0.08225 0.82793 0.63525 0.0
H77 H 0.08131 0.84379 0.65618 0.0
H78 H 0.09237 0.8362 0.66244 0.0
H79 H 0.09328 0.82018 0.64172 0.0
C80 C 0.43549 0.87196 0.92312 0.0
C81 C 0.42729 0.87034 0.92147 0.0
C82 C 0.42329 0.87698 0.93408 0.0
C83 C 0.42125 0.87284 0.92688 0.0
C84 C 0.43153 0.8787 0.93566 0.0
C85 C 0.43759 0.87621 0.93021 0.0
U86 U 0.44071 0.85759 0.90632 0.0
O87 O 0.44849 0.85867 0.89549 0.0
O88 O 0.4509 0.84915 0.90452 0.0
C89 C 0.45344 0.85289 0.89793 0.0
C90 C 0.4418 0.86869 0.91769 0.0
C91 C 0.46212 0.85497 0.89781 0.0
C92 C 0.47386 0.86156 0.90385 0.0
C93 C 0.46555 0.85978 0.90395 0.0
C94 C 0.47535 0.85385 0.89138 0.0
C95 C 0.47886 0.8586 0.89757 0.0
C96 C 0.46705 0.85204 0.89151 0.0
C97 C 0.42257 0.84484 0.89868 0.0
C98 C 0.42335 0.8327 0.8903 0.0
C99 C 0.41023 0.83826 0.89405 0.0
C100 C 0.41408 0.8445 0.8983 0.0
C101 C 0.4148 0.83221 0.89008 0.0
C102 C 0.42721 0.83898 0.89457 0.0
C103 C 0.42636 0.85111 0.90378 0.0
O104 O 0.44355 0.861 0.91894 0.0
O105 O 0.44086 0.87046 0.90995 0.0
O106 O 0.4289 0.85768 0.90001 0.0
O107 O 0.43147 0.84845 0.90931 0.0
H108 H 0.42556 0.86697 0.91608 0.0
H109 H 0.415 0.87125 0.92554 0.0
H110 H 0.43329 0.88191 0.94113 0.0
H111 H 0.4439 0.87746 0.93159 0.0
H112 H 0.47636 0.86532 0.90864 0.0
H113 H 0.4618 0.86212 0.90884 0.0
H114 H 0.47905 0.8514 0.88651 0.0
H115 H 0.46448 0.84831 0.88673 0.0
H116 H 0.42704 0.82818 0.88725 0.0
H117 H 0.40365 0.83801 0.89414 0.0
H118 H 0.41041 0.84896 0.90148 0.0
H119 H 0.43379 0.83917 0.8948 0.0
C120 C 0.37947 0.18517 0.17412 0.0
C121 C 0.38115 0.17698 0.17247 0.0
C122 C 0.37444 0.17292 0.18502 0.0
C123 C 0.37865 0.17092 0.17785 0.0
C124 C 0.37267 0.18115 0.18661 0.0
C125 C 0.37517 0.18723 0.18118 0.0
U126 U 0.39368 0.1904 0.1572 0.0
O127 O 0.39246 0.19812 0.14634 0.0
O128 O 0.40207 0.20061 0.15527 0.0
C129 C 0.39825 0.2031 0.14871 0.0
C130 C 0.38267 0.19149 0.16867 0.0
C131 C 0.39615 0.21177 0.14857 0.0
C132 C 0.38975 0.22358 0.1547 0.0
C133 C 0.39155 0.21527 0.15484 0.0
C134 C 0.39701 0.22493 0.14195 0.0
C135 C 0.39248 0.22851 0.14826 0.0
C136 C 0.39884 0.21663 0.14211 0.0
C137 C 0.40632 0.17217 0.14952 0.0
C138 C 0.41806 0.17285 0.14057 0.0
C139 C 0.41303 0.15979 0.14519 0.0
C140 C 0.40689 0.16369 0.14954 0.0
C141 C 0.41875 0.16431 0.14071 0.0
C142 C 0.41188 0.17675 0.14495 0.0
C143 C 0.40014 0.17603 0.15466 0.0
O144 O 0.39038 0.19325 0.16985 0.0
O145 O 0.38084 0.19055 0.16095 0.0
O146 O 0.39353 0.17856 0.15095 0.0
O147 O 0.40288 0.18118 0.16011 0.0
H148 H 0.38456 0.17528 0.1671 0.0
H149 H 0.38027 0.16468 0.17652 0.0
H150 H 0.36941 0.18289 0.19206 0.0
H151 H 0.37387 0.19354 0.18256 0.0
H152 H 0.38617 0.22614 0.15959 0.0
H153 H 0.38939 0.21158 0.15985 0.0
H154 H 0.39929 0.22858 0.13696 0.0
H155 H 0.4024 0.21402 0.13723 0.0
H156 H 0.42232 0.1765 0.13713 0.0
H157 H 0.41346 0.15323 0.14558 0.0
H158 H 0.40267 0.16007 0.15308 0.0
H159 H 0.41151 0.18333 0.14487 0.0
C160 C 0.06568 0.87262 0.07843 0.0
C161 C 0.07385 0.87059 0.07979 0.0
C162 C 0.07788 0.87808 0.06769 0.0
C163 C 0.07989 0.87331 0.0745 0.0
C164 C 0.06969 0.88022 0.06641 0.0
C165 C 0.06363 0.87751 0.07176 0.0
U166 U 0.05979 0.85641 0.09326 0.0
O167 O 0.05232 0.85652 0.10437 0.0
O168 O 0.04903 0.84857 0.09417 0.0
C169 C 0.0469 0.85152 0.10129 0.0
C170 C 0.05932 0.86909 0.08362 0.0
C171 C 0.03839 0.85416 0.10191 0.0
C172 C 0.02692 0.86193 0.09681 0.0
C173 C 0.03514 0.85979 0.09639 0.0
C174 C 0.02519 0.853 0.1084 0.0
C175 C 0.02184 0.85851 0.10279 0.0
C176 C 0.0334 0.85083 0.10795 0.0
C177 C 0.07696 0.84102 0.09815 0.0
C178 C 0.08146 0.83343 0.11004 0.0
C179 C 0.08395 0.8281 0.09654 0.0
C180 C 0.08014 0.83488 0.09316 0.0
C181 C 0.08472 0.82732 0.10502 0.0
C182 C 0.07759 0.84021 0.10664 0.0
C183 C 0.07354 0.84837 0.09428 0.0
O184 O 0.0569 0.86182 0.08137 0.0
O185 O 0.06064 0.86964 0.09149 0.0
O186 O 0.07173 0.85456 0.09901 0.0
O187 O 0.06813 0.84709 0.08855 0.0
H188 H 0.07554 0.86671 0.08485 0.0
H189 H 0.08609 0.8714 0.07558 0.0
H190 H 0.06796 0.88391 0.06124 0.0
H191 H 0.05735 0.87908 0.07058 0.0
H192 H 0.02455 0.86627 0.09247 0.0
H193 H 0.03894 0.86244 0.09171 0.0
H194 H 0.02142 0.85019 0.11302 0.0
H195 H 0.03582 0.84647 0.11225 0.0
H196 H 0.08192 0.83297 0.11659 0.0
H197 H 0.08651 0.82359 0.09249 0.0
H198 H 0.07982 0.8354 0.0866 0.0
H199 H 0.07522 0.84486 0.11066 0.0
C200 C 0.37883 0.81501 0.32777 0.0
C201 C 0.38082 0.82316 0.32925 0.0
C202 C 0.37326 0.82736 0.31725 0.0
C203 C 0.37805 0.82927 0.32407 0.0
C204 C 0.37115 0.81918 0.31585 0.0
C205 C 0.37392 0.81305 0.32108 0.0
U206 U 0.39532 0.80898 0.34219 0.0
O207 O 0.39544 0.80155 0.35332 0.0
O208 O 0.40311 0.79816 0.34294 0.0
C209 C 0.40033 0.79609 0.35014 0.0
C210 C 0.38243 0.80858 0.33283 0.0
C211 C 0.39765 0.78761 0.35088 0.0
C212 C 0.3891 0.77638 0.34655 0.0
C213 C 0.39137 0.78455 0.34599 0.0
C214 C 0.39928 0.77428 0.35699 0.0
C215 C 0.39307 0.77113 0.35202 0.0
C216 C 0.40155 0.78244 0.35641 0.0
C217 C 0.41073 0.82617 0.34678 0.0
C218 C 0.41963 0.8285 0.35836 0.0
C219 C 0.42249 0.83499 0.34544 0.0
C220 C 0.41566 0.83127 0.34206 0.0
C221 C 0.42454 0.8337 0.35364 0.0
C222 C 0.4128 0.82474 0.35494 0.0
C223 C 0.40337 0.82273 0.34302 0.0
O224 O 0.38964 0.80614 0.33041 0.0
O225 O 0.38205 0.80985 0.34072 0.0
O226 O 0.39729 0.82091 0.34789 0.0
O227 O 0.4046 0.81728 0.33731 0.0
H228 H 0.38472 0.82479 0.33431 0.0
H229 H 0.37994 0.83547 0.32524 0.0
H230 H 0.36745 0.81752 0.31066 0.0
H231 H 0.37237 0.80677 0.31981 0.0
H232 H 0.38423 0.77417 0.34271 0.0
H233 H 0.38828 0.78848 0.3417 0.0
H234 H 0.40253 0.77038 0.36119 0.0
H235 H 0.40643 0.78471 0.36021 0.0
H236 H 0.42109 0.82735 0.36467 0.0
H237 H 0.42604 0.83905 0.34168 0.0
H238 H 0.41414 0.83249 0.33577 0.0
H239 H 0.4091 0.82079 0.3587 0.0
C240 C 0.43474 0.12795 0.5776 0.0
C241 C 0.42658 0.12979 0.57923 0.0
C242 C 0.42238 0.1229 0.56682 0.0
C243 C 0.42046 0.12728 0.57391 0.0
C244 C 0.43058 0.12095 0.56527 0.0
C245 C 0.43671 0.12346 0.57063 0.0
U246 U 0.44023 0.14247 0.59417 0.0
O247 O 0.44807 0.14149 0.60495 0.0
O248 O 0.4505 0.15086 0.59576 0.0
C249 C 0.45304 0.14722 0.60241 0.0
C250 C 0.44113 0.13122 0.58292 0.0
C251 C 0.46171 0.14513 0.60256 0.0
C252 C 0.47325 0.13757 0.5973 0.0
C253 C 0.46495 0.13942 0.59712 0.0
C254 C 0.47512 0.1471 0.60838 0.0
C255 C 0.47844 0.1414 0.60293 0.0
C256 C 0.46683 0.14895 0.60819 0.0
C257 C 0.42224 0.15537 0.60191 0.0
C258 C 0.42315 0.16765 0.61008 0.0
C259 C 0.40998 0.16188 0.60685 0.0
C260 C 0.41376 0.15562 0.60256 0.0
C261 C 0.41461 0.16803 0.61059 0.0
C262 C 0.42694 0.16135 0.60577 0.0
C263 C 0.42593 0.14905 0.5968 0.0
O264 O 0.44292 0.13889 0.58156 0.0
O265 O 0.44026 0.12955 0.59069 0.0
O266 O 0.42847 0.14249 0.60059 0.0
O267 O 0.431 0.15164 0.59119 0.0
H268 H 0.42494 0.13335 0.58453 0.0
H269 H 0.41426 0.12905 0.57522 0.0
H270 H 0.43225 0.11755 0.55989 0.0
H271 H 0.44299 0.12203 0.56926 0.0
H272 H 0.47559 0.13309 0.59308 0.0
H273 H 0.46106 0.1364 0.59274 0.0
H274 H 0.47895 0.15025 0.61271 0.0
H275 H 0.46442 0.15339 0.61241 0.0
H276 H 0.42689 0.17225 0.61294 0.0
H277 H 0.4034 0.16206 0.60698 0.0
H278 H 0.41004 0.15107 0.59958 0.0
H279 H 0.43351 0.16122 0.60534 0.0
C280 C 0.12312 0.18472 0.82842 0.0
C281 C 0.12096 0.17658 0.8297 0.0
C282 C 0.12862 0.17251 0.8177 0.0
C283 C 0.12369 0.17053 0.82442 0.0
C284 C 0.13089 0.18068 0.81652 0.0
C285 C 0.12816 0.18674 0.82185 0.0
U286 U 0.10691 0.19063 0.84323 0.0
O287 O 0.10698 0.19819 0.85429 0.0
O288 O 0.09901 0.20137 0.84406 0.0
C289 C 0.10195 0.20355 0.85117 0.0
C290 C 0.11958 0.1911 0.83358 0.0
C291 C 0.10452 0.21208 0.85175 0.0
C292 C 0.11228 0.22356 0.84666 0.0
C293 C 0.11019 0.21533 0.84627 0.0
C294 C 0.10318 0.22532 0.85812 0.0
C295 C 0.10875 0.22867 0.85256 0.0
C296 C 0.10108 0.2171 0.85771 0.0
C297 C 0.09159 0.17352 0.84828 0.0
C298 C 0.08326 0.17067 0.86017 0.0
C299 C 0.07921 0.16559 0.84696 0.0
C300 C 0.08606 0.16916 0.84347 0.0
C301 C 0.07774 0.16626 0.85535 0.0
C302 C 0.09012 0.1743 0.85666 0.0
C303 C 0.09892 0.17687 0.84435 0.0
O304 O 0.11229 0.19348 0.83132 0.0
O305 O 0.12014 0.18982 0.84146 0.0
O306 O 0.1051 0.17874 0.84908 0.0
O307 O 0.09761 0.18223 0.83858 0.0
H308 H 0.11697 0.17492 0.83467 0.0
H309 H 0.12168 0.16435 0.82542 0.0
H310 H 0.13469 0.18239 0.81143 0.0
H311 H 0.12983 0.19301 0.82074 0.0
H312 H 0.11665 0.22594 0.84235 0.0
H313 H 0.11293 0.21152 0.84165 0.0
H314 H 0.10028 0.2291 0.86267 0.0
H315 H 0.09668 0.21468 0.86197 0.0
H316 H 0.08226 0.17132 0.86665 0.0
H317 H 0.07516 0.16213 0.84309 0.0
H318 H 0.08711 0.16843 0.83701 0.0
H319 H 0.09428 0.17765 0.86051 0.0
C320 C 0.42336 0.06488 0.1294 0.0
C321 C 0.42175 0.07305 0.13121 0.0
C322 C 0.43412 0.07719 0.12423 0.0
C323 C 0.42706 0.07914 0.12864 0.0
C324 C 0.43567 0.06898 0.12234 0.0
C325 C 0.43031 0.06287 0.12491 0.0
U326 U 0.40674 0.05945 0.14391 0.0
O327 O 0.39589 0.05172 0.14286 0.0
O328 O 0.40504 0.04913 0.15222 0.0
C329 C 0.39838 0.04668 0.14854 0.0
C330 C 0.418 0.05852 0.13267 0.0
C331 C 0.39818 0.03803 0.14635 0.0
C332 C 0.40341 0.02656 0.13865 0.0
C333 C 0.40362 0.03484 0.14061 0.0
C334 C 0.39227 0.02463 0.14811 0.0
C335 C 0.39773 0.02136 0.14239 0.0
C336 C 0.39251 0.03289 0.15007 0.0
C337 C 0.39917 0.07749 0.15687 0.0
C338 C 0.39095 0.07667 0.16913 0.0
C339 C 0.39436 0.08981 0.16338 0.0
C340 C 0.39862 0.08597 0.15713 0.0
C341 C 0.39054 0.08522 0.16951 0.0
C342 C 0.39522 0.07283 0.16284 0.0
C343 C 0.40424 0.07374 0.15056 0.0
O344 O 0.41934 0.05669 0.14033 0.0
O345 O 0.41023 0.05945 0.13099 0.0
O346 O 0.40044 0.07127 0.14398 0.0
O347 O 0.40978 0.06859 0.15314 0.0
H348 H 0.41646 0.07472 0.13476 0.0
H349 H 0.42576 0.08536 0.13035 0.0
H350 H 0.44104 0.06728 0.11893 0.0
H351 H 0.43167 0.05658 0.12351 0.0
H352 H 0.40763 0.02426 0.13415 0.0
H353 H 0.40804 0.03874 0.13766 0.0
H354 H 0.3879 0.02078 0.15118 0.0
H355 H 0.38828 0.03527 0.15453 0.0
H356 H 0.38802 0.07297 0.17371 0.0
H357 H 0.39432 0.09639 0.16356 0.0
H358 H 0.40167 0.08965 0.1526 0.0
H359 H 0.39558 0.06626 0.16271 0.0
C360 C 0.1857 0.17238 0.37727 0.0
C361 C 0.1775 0.17076 0.37899 0.0
C362 C 0.1734 0.18303 0.37181 0.0
C363 C 0.17142 0.17601 0.37627 0.0
C364 C 0.18162 0.18455 0.36994 0.0
C365 C 0.18772 0.17926 0.37266 0.0
U366 U 0.19101 0.15748 0.39345 0.0
O367 O 0.19849 0.14638 0.39366 0.0
O368 O 0.20135 0.15652 0.40185 0.0
C369 C 0.20365 0.14944 0.39895 0.0
C370 C 0.19205 0.16728 0.38095 0.0
C371 C 0.21226 0.14888 0.39668 0.0
C372 C 0.22379 0.15351 0.38871 0.0
C373 C 0.21552 0.15392 0.39063 0.0
C374 C 0.2256 0.14292 0.3988 0.0
C375 C 0.22894 0.14803 0.3928 0.0
C376 C 0.21733 0.14335 0.40072 0.0
C377 C 0.17259 0.15253 0.40738 0.0
C378 C 0.17073 0.14145 0.417 0.0
C379 C 0.16144 0.15289 0.41701 0.0
C380 C 0.16579 0.15644 0.41066 0.0
C381 C 0.16378 0.14531 0.42019 0.0
C382 C 0.17511 0.14504 0.41061 0.0
C383 C 0.17673 0.15641 0.40049 0.0
O384 O 0.19411 0.16945 0.38835 0.0
O385 O 0.19092 0.15939 0.38021 0.0
O386 O 0.17902 0.15165 0.39449 0.0
O387 O 0.18211 0.16201 0.40234 0.0
H388 H 0.17582 0.16556 0.38265 0.0
H389 H 0.1652 0.17472 0.37798 0.0
H390 H 0.18333 0.18989 0.36649 0.0
H391 H 0.19403 0.18064 0.37134 0.0
H392 H 0.22615 0.15745 0.38399 0.0
H393 H 0.21167 0.1582 0.38743 0.0
H394 H 0.22941 0.13871 0.40212 0.0
H395 H 0.21491 0.13943 0.40543 0.0
H396 H 0.17268 0.13561 0.41931 0.0
H397 H 0.15624 0.15612 0.41944 0.0
H398 H 0.16379 0.16224 0.40827 0.0
H399 H 0.18038 0.14194 0.40816 0.0
C400 C 0.07765 0.9367 0.62956 0.0
C401 C 0.08036 0.92888 0.62743 0.0
C402 C 0.06648 0.92473 0.6244 0.0
C403 C 0.07484 0.92297 0.62482 0.0
C404 C 0.06382 0.93262 0.62631 0.0
C405 C 0.06936 0.93856 0.62884 0.0
U406 U 0.09434 0.94156 0.64458 0.0
O407 O 0.10515 0.9494 0.64381 0.0
O408 O 0.09584 0.95176 0.65307 0.0
C409 C 0.10253 0.95433 0.64953 0.0
C410 C 0.08324 0.9427 0.63321 0.0
C411 C 0.10267 0.96301 0.64746 0.0
C412 C 0.09747 0.97452 0.63983 0.0
C413 C 0.0973 0.96622 0.64167 0.0
C414 C 0.1084 0.97644 0.64953 0.0
C415 C 0.10301 0.97973 0.64375 0.0
C416 C 0.10822 0.96815 0.65136 0.0
C417 C 0.10201 0.92379 0.65769 0.0
C418 C 0.10832 0.92456 0.67104 0.0
C419 C 0.10859 0.91192 0.66348 0.0
C420 C 0.10438 0.91564 0.65711 0.0
C421 C 0.11048 0.9163 0.67058 0.0
C422 C 0.10414 0.92829 0.66462 0.0
C423 C 0.09693 0.92729 0.65121 0.0
O424 O 0.08179 0.94437 0.64089 0.0
O425 O 0.09102 0.94174 0.63162 0.0
O426 O 0.10077 0.92979 0.64467 0.0
O427 O 0.09117 0.93228 0.65362 0.0
H428 H 0.08671 0.92723 0.62802 0.0
H429 H 0.07706 0.91691 0.6235 0.0
H430 H 0.05742 0.93416 0.62601 0.0
H431 H 0.06713 0.94454 0.63048 0.0
H432 H 0.09318 0.97687 0.63542 0.0
H433 H 0.09296 0.96231 0.63862 0.0
H434 H 0.11281 0.98026 0.65257 0.0
H435 H 0.11242 0.96575 0.65583 0.0
H436 H 0.10976 0.92811 0.67639 0.0
H437 H 0.11006 0.90553 0.66297 0.0
H438 H 0.10277 0.91207 0.65181 0.0
H439 H 0.10242 0.93463 0.66517 0.0
C440 C 0.31539 0.82739 0.87822 0.0
C441 C 0.32359 0.82899 0.87993 0.0
C442 C 0.32759 0.81638 0.87332 0.0
C443 C 0.32962 0.82356 0.8775 0.0
C444 C 0.31937 0.81485 0.87151 0.0
C445 C 0.31331 0.82033 0.87394 0.0
U446 U 0.31009 0.84428 0.89246 0.0
O447 O 0.30238 0.85515 0.89123 0.0
O448 O 0.29979 0.84617 0.90076 0.0
C449 C 0.29735 0.85276 0.89696 0.0
C450 C 0.30908 0.83286 0.8814 0.0
C451 C 0.2887 0.85291 0.89477 0.0
C452 C 0.27705 0.84703 0.88786 0.0
C453 C 0.28534 0.84688 0.88976 0.0
C454 C 0.27544 0.8593 0.89586 0.0
C455 C 0.272 0.85323 0.89091 0.0
C456 C 0.28372 0.85913 0.89777 0.0
C457 C 0.32811 0.85194 0.90538 0.0
C458 C 0.32726 0.86019 0.91761 0.0
C459 C 0.34041 0.85677 0.91191 0.0
C460 C 0.33659 0.8525 0.90566 0.0
C461 C 0.3358 0.86059 0.91803 0.0
C462 C 0.32343 0.8559 0.91132 0.0
C463 C 0.32437 0.84681 0.89911 0.0
O464 O 0.30724 0.83166 0.88908 0.0
O465 O 0.31008 0.84059 0.8796 0.0
O466 O 0.32193 0.85054 0.89248 0.0
O467 O 0.31921 0.84131 0.90173 0.0
H468 H 0.3253 0.83437 0.88333 0.0
H469 H 0.33586 0.82486 0.87916 0.0
H470 H 0.31761 0.80939 0.86827 0.0
H471 H 0.307 0.81898 0.87261 0.0
H472 H 0.2746 0.84232 0.88396 0.0
H473 H 0.28912 0.84205 0.88736 0.0
H474 H 0.27171 0.8641 0.89839 0.0
H475 H 0.28623 0.86382 0.90166 0.0
H476 H 0.32354 0.86312 0.92219 0.0
H477 H 0.34699 0.85681 0.91211 0.0
H478 H 0.34029 0.84944 0.90114 0.0
H479 H 0.31686 0.85554 0.91118 0.0
C480 C 0.42286 0.9362 0.37263 0.0
C481 C 0.42026 0.9282 0.37412 0.0
C482 C 0.43415 0.92408 0.37714 0.0
C483 C 0.42584 0.92221 0.3764 0.0
C484 C 0.4367 0.93214 0.37586 0.0
C485 C 0.4311 0.93815 0.37364 0.0
U486 U 0.40564 0.94096 0.35839 0.0
O487 O 0.3948 0.94873 0.35952 0.0
O488 O 0.40367 0.95101 0.34981 0.0
C489 C 0.39714 0.95359 0.35362 0.0
C490 C 0.41721 0.94228 0.36925 0.0
C491 C 0.39704 0.9623 0.35556 0.0
C492 C 0.40311 0.97414 0.36196 0.0
C493 C 0.40322 0.9658 0.36028 0.0
C494 C 0.39059 0.97552 0.35431 0.0
C495 C 0.39681 0.9791 0.35897 0.0
C496 C 0.39072 0.96719 0.35262 0.0
C497 C 0.39787 0.92264 0.34602 0.0
C498 C 0.38929 0.9233 0.33401 0.0
C499 C 0.39336 0.91023 0.33946 0.0
C500 C 0.39764 0.91414 0.34566 0.0
C501 C 0.38922 0.91475 0.3335 0.0
C502 C 0.39359 0.92722 0.34024 0.0
C503 C 0.40305 0.9265 0.35217 0.0
O504 O 0.41832 0.9439 0.36151 0.0
O505 O 0.4095 0.94138 0.37119 0.0
O506 O 0.39937 0.92913 0.35876 0.0
O507 O 0.40853 0.93159 0.34936 0.0
H508 H 0.41396 0.92649 0.37325 0.0
H509 H 0.42369 0.91604 0.37722 0.0
H510 H 0.44306 0.93375 0.37641 0.0
H511 H 0.43324 0.94427 0.37247 0.0
H512 H 0.40793 0.97669 0.36565 0.0
H513 H 0.40812 0.9621 0.36264 0.0
H514 H 0.38571 0.97918 0.35184 0.0
H515 H 0.38591 0.96457 0.34895 0.0
H516 H 0.38611 0.92696 0.32955 0.0
H517 H 0.39357 0.90366 0.33919 0.0
H518 H 0.40095 0.91052 0.35005 0.0
H519 H 0.39371 0.9338 0.34044 0.0
C520 C 0.31492 0.1732 0.62287 0.0
C521 C 0.32314 0.1715 0.62139 0.0
C522 C 0.32711 0.18413 0.62799 0.0
C523 C 0.32917 0.17689 0.62393 0.0
C524 C 0.31886 0.18575 0.6296 0.0
C525 C 0.3128 0.18032 0.62705 0.0
U526 U 0.30993 0.15682 0.60802 0.0
O527 O 0.30226 0.14589 0.60863 0.0
O528 O 0.29984 0.15522 0.59939 0.0
C529 C 0.29734 0.14848 0.60288 0.0
C530 C 0.30864 0.16785 0.61943 0.0
C531 C 0.28864 0.14823 0.60486 0.0
C532 C 0.27712 0.15276 0.6129 0.0
C533 C 0.28544 0.15299 0.61117 0.0
C534 C 0.27514 0.14301 0.60203 0.0
C535 C 0.27186 0.14779 0.60833 0.0
C536 C 0.28346 0.14324 0.60032 0.0
C537 C 0.3285 0.14989 0.59535 0.0
C538 C 0.32838 0.14002 0.58436 0.0
C539 C 0.34081 0.14717 0.58774 0.0
C540 C 0.33676 0.15131 0.59393 0.0
C541 C 0.33669 0.14149 0.58285 0.0
C542 C 0.32431 0.1442 0.59058 0.0
C543 C 0.32442 0.15468 0.60167 0.0
O544 O 0.30693 0.16931 0.61177 0.0
O545 O 0.3096 0.16006 0.62099 0.0
O546 O 0.32181 0.15065 0.60806 0.0
O547 O 0.31926 0.16018 0.59906 0.0
H548 H 0.32489 0.1661 0.61805 0.0
H549 H 0.33543 0.17552 0.62242 0.0
H550 H 0.31708 0.19126 0.63274 0.0
H551 H 0.30648 0.18176 0.62818 0.0
H552 H 0.27478 0.15658 0.61772 0.0
H553 H 0.28938 0.15691 0.61471 0.0
H554 H 0.27128 0.13904 0.59846 0.0
H555 H 0.28584 0.13951 0.59543 0.0
H556 H 0.32503 0.13566 0.58074 0.0
H557 H 0.34714 0.14861 0.58666 0.0
H558 H 0.34006 0.15573 0.59753 0.0
H559 H 0.3179 0.14306 0.59161 0.0
C560 C 0.07504 0.06471 0.86888 0.0
C561 C 0.07314 0.07086 0.86327 0.0
C562 C 0.06351 0.07679 0.87278 0.0
C563 C 0.06741 0.0768 0.86518 0.0
C564 C 0.0655 0.07071 0.87846 0.0
C565 C 0.07121 0.06469 0.8765 0.0
U566 U 0.09367 0.05976 0.85691 0.0
O567 O 0.10475 0.05277 0.85963 0.0
O568 O 0.09704 0.04933 0.84929 0.0
C569 C 0.10329 0.04741 0.85388 0.0
C570 C 0.08127 0.05862 0.86682 0.0
C571 C 0.10364 0.03885 0.85636 0.0
C572 C 0.09795 0.02731 0.8636 0.0
C573 C 0.09779 0.03558 0.86163 0.0
C574 C 0.10988 0.02554 0.85513 0.0
C575 C 0.10397 0.02218 0.86032 0.0
C576 C 0.1097 0.0338 0.85317 0.0
C577 C 0.10125 0.07781 0.84387 0.0
C578 C 0.11066 0.07731 0.83249 0.0
C579 C 0.10567 0.09028 0.83739 0.0
C580 C 0.10115 0.0863 0.84335 0.0
C581 C 0.11042 0.08584 0.83183 0.0
C582 C 0.10611 0.07331 0.83849 0.0
C583 C 0.09587 0.07387 0.8498 0.0
O584 O 0.08106 0.05603 0.85926 0.0
O585 O 0.08866 0.06036 0.86933 0.0
O586 O 0.09913 0.07199 0.85684 0.0
O587 O 0.09104 0.0682 0.84691 0.0
H588 H 0.07614 0.0711 0.85741 0.0
H589 H 0.06613 0.08149 0.86074 0.0
H590 H 0.06259 0.07058 0.88436 0.0
H591 H 0.07267 0.06004 0.88094 0.0
H592 H 0.09337 0.02493 0.86769 0.0
H593 H 0.09305 0.03941 0.86414 0.0
H594 H 0.11452 0.02175 0.85241 0.0
H595 H 0.11424 0.03623 0.84905 0.0
H596 H 0.1143 0.07372 0.82834 0.0
H597 H 0.1052 0.09683 0.83698 0.0
H598 H 0.09739 0.08985 0.84743 0.0
H599 H 0.10625 0.06674 0.83883 0.0
C600 C 0.18551 0.82854 0.12259 0.0
C601 C 0.17727 0.83041 0.12144 0.0
C602 C 0.17334 0.81727 0.12698 0.0
C603 C 0.17124 0.82486 0.12364 0.0
C604 C 0.18161 0.81549 0.12832 0.0
C605 C 0.18764 0.82109 0.12614 0.0
U606 U 0.19074 0.84545 0.10835 0.0
O607 O 0.19852 0.85627 0.10946 0.0
O608 O 0.20094 0.84726 0.09991 0.0
C609 C 0.20347 0.85385 0.10366 0.0
C610 C 0.1918 0.83403 0.1194 0.0
C611 C 0.21215 0.85399 0.1057 0.0
C612 C 0.2238 0.84845 0.11288 0.0
C613 C 0.21548 0.84831 0.11112 0.0
C614 C 0.22552 0.85998 0.10387 0.0
C615 C 0.22892 0.85427 0.10927 0.0
C616 C 0.21721 0.85983 0.10211 0.0
C617 C 0.17258 0.85309 0.0956 0.0
C618 C 0.17333 0.86155 0.08351 0.0
C619 C 0.16022 0.85762 0.08899 0.0
C620 C 0.16409 0.85338 0.09522 0.0
C621 C 0.16478 0.86169 0.08299 0.0
C622 C 0.17721 0.85728 0.08978 0.0
C623 C 0.17639 0.84799 0.10185 0.0
O624 O 0.1936 0.83282 0.11171 0.0
O625 O 0.19083 0.84176 0.12121 0.0
O626 O 0.17892 0.85175 0.10843 0.0
O627 O 0.18152 0.84248 0.09918 0.0
H628 H 0.17549 0.83609 0.1186 0.0
H629 H 0.16496 0.82637 0.12238 0.0
H630 H 0.18341 0.80972 0.13092 0.0
H631 H 0.19398 0.81952 0.12701 0.0
H632 H 0.22621 0.84403 0.11713 0.0
H633 H 0.21164 0.84378 0.11396 0.0
H634 H 0.2293 0.86447 0.1009 0.0
H635 H 0.21473 0.86424 0.09789 0.0
H636 H 0.17701 0.86467 0.07903 0.0
H637 H 0.15365 0.85746 0.08871 0.0
H638 H 0.16044 0.85013 0.09964 0.0
H639 H 0.18379 0.85712 0.09001 0.0
C640 C 0.12994 0.42387 0.06522 0.0
C641 C 0.13218 0.4223 0.0733 0.0
C642 C 0.12474 0.43425 0.07785 0.0
C643 C 0.1296 0.42741 0.07954 0.0
C644 C 0.12244 0.43577 0.06975 0.0
C645 C 0.12502 0.4306 0.06348 0.0
U646 U 0.14524 0.40833 0.05871 0.0
O647 O 0.1444 0.39745 0.05097 0.0
O648 O 0.15288 0.40726 0.04781 0.0
C649 C 0.14955 0.40035 0.04559 0.0
C650 C 0.13317 0.41873 0.05866 0.0
C651 C 0.14689 0.39994 0.03708 0.0
C652 C 0.13869 0.40494 0.02587 0.0
C653 C 0.14095 0.40526 0.03406 0.0
C654 C 0.14822 0.39392 0.02368 0.0
C655 C 0.14232 0.39928 0.02057 0.0
C656 C 0.15048 0.39426 0.03186 0.0
C657 C 0.16034 0.40161 0.07548 0.0
C658 C 0.16618 0.38928 0.08126 0.0
C659 C 0.17406 0.40171 0.08102 0.0
C660 C 0.1676 0.40573 0.07724 0.0
C661 C 0.17338 0.39348 0.08319 0.0
C662 C 0.15972 0.39331 0.07745 0.0
C663 C 0.15329 0.40624 0.07233 0.0
O664 O 0.14056 0.42064 0.05631 0.0
O665 O 0.13215 0.41087 0.05969 0.0
O666 O 0.14671 0.4021 0.07045 0.0
O667 O 0.15494 0.41207 0.06711 0.0
H668 H 0.13608 0.41719 0.07475 0.0
H669 H 0.13163 0.42615 0.08568 0.0
H670 H 0.11868 0.44096 0.06825 0.0
H671 H 0.12327 0.43193 0.05727 0.0
H672 H 0.13407 0.40909 0.02369 0.0
H673 H 0.13811 0.40968 0.03804 0.0
H674 H 0.15122 0.38957 0.01975 0.0
H675 H 0.1551 0.39013 0.0341 0.0
H676 H 0.16549 0.38292 0.0828 0.0
H677 H 0.17945 0.40516 0.08254 0.0
H678 H 0.16822 0.41216 0.07592 0.0
H679 H 0.15419 0.38995 0.07623 0.0
C680 C 0.6278 0.0765 0.93616 0.0
C681 C 0.62552 0.07911 0.92834 0.0
C682 C 0.62285 0.06513 0.92429 0.0
C683 C 0.62302 0.07349 0.92249 0.0
C684 C 0.62492 0.06256 0.93217 0.0
C685 C 0.62734 0.0682 0.93806 0.0
U686 U 0.64242 0.09359 0.94067 0.0
O687 O 0.64142 0.10454 0.94831 0.0
O688 O 0.65096 0.09553 0.95076 0.0
C689 C 0.64724 0.10215 0.95325 0.0
C690 C 0.63134 0.08224 0.94209 0.0
C691 C 0.64521 0.10236 0.96194 0.0
C692 C 0.63857 0.09652 0.97376 0.0
C693 C 0.64031 0.09632 0.96544 0.0
C694 C 0.64652 0.10885 0.97512 0.0
C695 C 0.64168 0.10278 0.9787 0.0
C696 C 0.64827 0.10864 0.96681 0.0
C697 C 0.6551 0.10106 0.92247 0.0
C698 C 0.66712 0.10962 0.92333 0.0
C699 C 0.66186 0.10558 0.91018 0.0
C700 C 0.6556 0.1013 0.91399 0.0
C701 C 0.66775 0.10972 0.91479 0.0
C702 C 0.66083 0.10532 0.92715 0.0
C703 C 0.64883 0.09597 0.92625 0.0
O704 O 0.63907 0.081 0.94373 0.0
O705 O 0.62955 0.08996 0.94105 0.0
O706 O 0.64225 0.09974 0.92877 0.0
O707 O 0.65149 0.09047 0.9314 0.0
H708 H 0.62591 0.08546 0.92666 0.0
H709 H 0.62158 0.07564 0.91644 0.0
H710 H 0.62481 0.05616 0.93374 0.0
H711 H 0.6291 0.06606 0.94404 0.0
H712 H 0.63475 0.09181 0.97631 0.0
H713 H 0.63787 0.09145 0.96174 0.0
H714 H 0.64908 0.1137 0.97878 0.0
H715 H 0.65208 0.11334 0.9642 0.0
H716 H 0.67152 0.1128 0.92706 0.0
H717 H 0.66222 0.1054 0.90361 0.0
H718 H 0.65125 0.09801 0.91029 0.0
H719 H 0.66052 0.1052 0.93373 0.0
C720 C 0.17316 0.37824 0.18595 0.0
C721 C 0.17177 0.38042 0.17783 0.0
C722 C 0.18404 0.37328 0.17366 0.0
C723 C 0.17714 0.37797 0.17175 0.0
C724 C 0.18536 0.37101 0.18181 0.0
C725 C 0.17994 0.37347 0.18792 0.0
U726 U 0.15646 0.39261 0.19132 0.0
O727 O 0.14556 0.3915 0.19899 0.0
O728 O 0.15463 0.40093 0.20161 0.0
C729 C 0.14799 0.3972 0.20404 0.0
C730 C 0.16775 0.38141 0.19232 0.0
C731 C 0.14777 0.39503 0.21269 0.0
C732 C 0.15347 0.38801 0.22436 0.0
C733 C 0.15366 0.38987 0.21606 0.0
C734 C 0.14145 0.39638 0.22595 0.0
C735 C 0.14737 0.39128 0.22941 0.0
C736 C 0.14165 0.39825 0.21766 0.0
C737 C 0.14908 0.40557 0.17318 0.0
C738 C 0.14027 0.41741 0.17389 0.0
C739 C 0.1449 0.41241 0.16082 0.0
C740 C 0.14915 0.40619 0.1647 0.0
C741 C 0.14045 0.41815 0.16536 0.0
C742 C 0.14456 0.41115 0.17778 0.0
C743 C 0.15409 0.39927 0.17702 0.0
O744 O 0.16903 0.38906 0.19421 0.0
O745 O 0.16 0.37971 0.19131 0.0
O746 O 0.15026 0.3927 0.17946 0.0
O747 O 0.15956 0.40187 0.18223 0.0
H748 H 0.16661 0.38418 0.17621 0.0
H749 H 0.17602 0.37999 0.16559 0.0
H750 H 0.19059 0.36737 0.18347 0.0
H751 H 0.18112 0.37178 0.19417 0.0
H752 H 0.15806 0.38399 0.22682 0.0
H753 H 0.15841 0.38731 0.21228 0.0
H754 H 0.13673 0.39908 0.22968 0.0
H755 H 0.13708 0.40226 0.21514 0.0
H756 H 0.13686 0.42169 0.17755 0.0
H757 H 0.14531 0.41287 0.15427 0.0
H758 H 0.15266 0.40195 0.16107 0.0
H759 H 0.14444 0.41074 0.18435 0.0
C760 C 0.87301 0.9234 0.43581 0.0
C761 C 0.87324 0.92115 0.42758 0.0
C762 C 0.87743 0.93482 0.42379 0.0
C763 C 0.87547 0.92679 0.42164 0.0
C764 C 0.87743 0.937 0.43207 0.0
C765 C 0.87525 0.93132 0.43803 0.0
U766 U 0.85788 0.9071 0.44056 0.0
O767 O 0.85847 0.8959 0.44787 0.0
O768 O 0.84949 0.90533 0.45079 0.0
C769 C 0.85293 0.89848 0.45303 0.0
C770 C 0.86957 0.91781 0.44191 0.0
C771 C 0.85518 0.898 0.46165 0.0
C772 C 0.86243 0.90333 0.47336 0.0
C773 C 0.86053 0.90369 0.46508 0.0
C774 C 0.85375 0.89151 0.47483 0.0
C775 C 0.85902 0.89726 0.47834 0.0
C776 C 0.85185 0.89189 0.46655 0.0
C777 C 0.84446 0.90139 0.42204 0.0
C778 C 0.83472 0.89033 0.42092 0.0
C779 C 0.83523 0.9008 0.41057 0.0
C780 C 0.84151 0.90464 0.41476 0.0
C781 C 0.83178 0.89357 0.41356 0.0
C782 C 0.84103 0.89422 0.42514 0.0
C783 C 0.85105 0.90573 0.4262 0.0
O784 O 0.862 0.91938 0.44391 0.0
O785 O 0.87094 0.91003 0.44065 0.0
O786 O 0.85737 0.90139 0.42847 0.0
O787 O 0.84877 0.9111 0.43165 0.0
H788 H 0.8714 0.91512 0.42569 0.0
H789 H 0.87527 0.92495 0.41532 0.0
H790 H 0.87894 0.94314 0.43391 0.0
H791 H 0.87504 0.9332 0.44434 0.0
H792 H 0.86658 0.90779 0.47586 0.0
H793 H 0.86319 0.90843 0.46136 0.0
H794 H 0.85096 0.88682 0.47851 0.0
H795 H 0.84769 0.88746 0.464 0.0
H796 H 0.83221 0.88476 0.42338 0.0
H797 H 0.833 0.90358 0.40504 0.0
H798 H 0.84405 0.91021 0.41231 0.0
H799 H 0.84323 0.89165 0.43079 0.0
C800 C 0.82824 0.12269 0.18501 0.0
C801 C 0.8298 0.12088 0.17682 0.0
C802 C 0.8173 0.12769 0.17278 0.0
C803 C 0.8244 0.12336 0.17078 0.0
C804 C 0.81584 0.12964 0.18099 0.0
C805 C 0.82128 0.12715 0.18706 0.0
U806 U 0.84481 0.10811 0.19025 0.0
O807 O 0.85565 0.10896 0.19805 0.0
O808 O 0.84645 0.09958 0.2004 0.0
C809 C 0.85311 0.10318 0.20296 0.0
C810 C 0.83361 0.11938 0.19134 0.0
C811 C 0.85328 0.10516 0.21166 0.0
C812 C 0.84777 0.11227 0.22337 0.0
C813 C 0.84763 0.11059 0.21503 0.0
C814 C 0.85926 0.10319 0.22501 0.0
C815 C 0.85358 0.10858 0.22846 0.0
C816 C 0.8591 0.1015 0.21668 0.0
C817 C 0.85215 0.0954 0.17189 0.0
C818 C 0.86143 0.08391 0.17238 0.0
C819 C 0.85568 0.08824 0.15952 0.0
C820 C 0.85148 0.09444 0.16347 0.0
C821 C 0.86067 0.08285 0.16391 0.0
C822 C 0.85719 0.09015 0.17635 0.0
C823 C 0.84721 0.10168 0.17584 0.0
O824 O 0.83225 0.11171 0.19311 0.0
O825 O 0.84138 0.12104 0.19042 0.0
O826 O 0.85112 0.10815 0.17844 0.0
O827 O 0.84168 0.09904 0.18097 0.0
H828 H 0.83509 0.11735 0.17513 0.0
H829 H 0.82564 0.1216 0.16455 0.0
H830 H 0.81045 0.133 0.18273 0.0
H831 H 0.81997 0.12856 0.19336 0.0
H832 H 0.84338 0.11652 0.22582 0.0
H833 H 0.84311 0.11348 0.21122 0.0
H834 H 0.86374 0.10016 0.22876 0.0
H835 H 0.86349 0.09728 0.21417 0.0
H836 H 0.86526 0.07991 0.17593 0.0
H837 H 0.8548 0.08751 0.15303 0.0
H838 H 0.84757 0.09841 0.15996 0.0
H839 H 0.85775 0.09082 0.18287 0.0
C840 C 0.37285 0.57763 0.56577 0.0
C841 C 0.37122 0.57921 0.57399 0.0
C842 C 0.37822 0.56678 0.57793 0.0
C843 C 0.3739 0.57386 0.58 0.0
C844 C 0.37995 0.56528 0.56968 0.0
C845 C 0.37728 0.57067 0.56364 0.0
U846 U 0.35723 0.59324 0.56071 0.0
O847 O 0.35746 0.60437 0.55328 0.0
O848 O 0.34879 0.59462 0.55045 0.0
C849 C 0.35201 0.60157 0.54815 0.0
C850 C 0.3693 0.58292 0.5595 0.0
C851 C 0.35424 0.60205 0.53952 0.0
C852 C 0.36143 0.59672 0.52777 0.0
C853 C 0.35955 0.59635 0.53606 0.0
C854 C 0.35283 0.60861 0.52637 0.0
C855 C 0.35806 0.60283 0.52282 0.0
C856 C 0.35094 0.6082 0.53465 0.0
C857 C 0.34369 0.59868 0.57928 0.0
C858 C 0.33412 0.60984 0.58093 0.0
C859 C 0.33435 0.5988 0.59068 0.0
C860 C 0.34059 0.59507 0.58633 0.0
C861 C 0.33108 0.60626 0.58809 0.0
C862 C 0.3404 0.60607 0.57655 0.0
C863 C 0.35038 0.59455 0.57506 0.0
O864 O 0.36178 0.58107 0.55752 0.0
O865 O 0.37038 0.59076 0.56067 0.0
O866 O 0.35654 0.59907 0.57273 0.0
O867 O 0.34824 0.58906 0.56967 0.0
H868 H 0.36769 0.58448 0.57576 0.0
H869 H 0.37229 0.57513 0.58626 0.0
H870 H 0.3833 0.55989 0.56789 0.0
H871 H 0.37853 0.56933 0.55731 0.0
H872 H 0.36555 0.59225 0.52525 0.0
H873 H 0.36219 0.59157 0.53975 0.0
H874 H 0.35007 0.61333 0.52271 0.0
H875 H 0.34682 0.61265 0.53723 0.0
H876 H 0.33175 0.61559 0.57878 0.0
H877 H 0.33203 0.59576 0.59604 0.0
H878 H 0.34302 0.58934 0.58849 0.0
H879 H 0.34272 0.60893 0.57109 0.0
C880 C 0.17275 0.62128 0.31534 0.0
C881 C 0.17123 0.61925 0.32348 0.0
C882 C 0.1834 0.62652 0.32773 0.0
C883 C 0.17648 0.62185 0.32961 0.0
C884 C 0.18481 0.62868 0.31956 0.0
C885 C 0.17952 0.62607 0.31341 0.0
U886 U 0.15658 0.60635 0.30968 0.0
O887 O 0.1459 0.60705 0.30167 0.0
O888 O 0.15534 0.59789 0.29942 0.0
C889 C 0.14864 0.60136 0.29678 0.0
C890 C 0.16756 0.61787 0.30891 0.0
C891 C 0.14854 0.60337 0.28809 0.0
C892 C 0.15396 0.61073 0.27649 0.0
C893 C 0.15406 0.60899 0.28482 0.0
C894 C 0.14279 0.60129 0.27467 0.0
C895 C 0.14833 0.60688 0.27131 0.0
C896 C 0.1429 0.59956 0.28298 0.0
C897 C 0.1489 0.5932 0.3275 0.0
C898 C 0.14208 0.58011 0.32668 0.0
C899 C 0.14304 0.58714 0.3396 0.0
C900 C 0.14717 0.59351 0.33583 0.0
C901 C 0.14054 0.5803 0.3351 0.0
C902 C 0.14621 0.58653 0.3229 0.0
C903 C 0.1539 0.59967 0.32392 0.0
O904 O 0.16912 0.61025 0.30713 0.0
O905 O 0.15974 0.61935 0.30973 0.0
O906 O 0.14999 0.60615 0.32135 0.0
O907 O 0.15969 0.59728 0.31896 0.0
H908 H 0.16608 0.61546 0.32507 0.0
H909 H 0.17528 0.61992 0.33578 0.0
H910 H 0.19005 0.63231 0.31792 0.0
H911 H 0.1808 0.62766 0.30715 0.0
H912 H 0.15837 0.61499 0.27409 0.0
H913 H 0.15847 0.61198 0.28869 0.0
H914 H 0.1383 0.59831 0.27088 0.0
H915 H 0.13858 0.59523 0.28543 0.0
H916 H 0.14017 0.57497 0.32304 0.0
H917 H 0.14208 0.58744 0.3461 0.0
H918 H 0.14923 0.59861 0.33947 0.0
H919 H 0.14746 0.58621 0.31644 0.0
C920 C 0.32903 0.37737 0.81622 0.0
C921 C 0.33068 0.37915 0.82439 0.0
C922 C 0.31823 0.37234 0.82856 0.0
C923 C 0.32536 0.37664 0.8305 0.0
C924 C 0.3167 0.37036 0.82037 0.0
C925 C 0.32207 0.37286 0.81424 0.0
U926 U 0.34361 0.3937 0.81013 0.0
O927 O 0.35461 0.3938 0.80248 0.0
O928 O 0.34423 0.40161 0.79939 0.0
C929 C 0.35138 0.39882 0.79716 0.0
C930 C 0.33412 0.38091 0.80978 0.0
C931 C 0.35199 0.39634 0.78861 0.0
C932 C 0.34729 0.38831 0.77715 0.0
C933 C 0.34689 0.39031 0.78541 0.0
C934 C 0.35799 0.39826 0.77527 0.0
C935 C 0.3528 0.39231 0.77196 0.0
C936 C 0.35758 0.40025 0.78352 0.0
C937 C 0.34854 0.4091 0.82721 0.0
C938 C 0.36039 0.41735 0.83046 0.0
C939 C 0.34701 0.42163 0.83487 0.0
C940 C 0.34361 0.41475 0.83125 0.0
C941 C 0.35544 0.42298 0.83456 0.0
C942 C 0.35697 0.41047 0.82678 0.0
C943 C 0.34471 0.4017 0.82388 0.0
O944 O 0.33176 0.38815 0.80736 0.0
O945 O 0.34202 0.38044 0.81099 0.0
O946 O 0.34951 0.39559 0.82198 0.0
O947 O 0.33888 0.40292 0.81856 0.0
H948 H 0.33596 0.38274 0.82604 0.0
H949 H 0.32665 0.3784 0.83671 0.0
H950 H 0.31128 0.36703 0.81868 0.0
H951 H 0.32067 0.37149 0.80796 0.0
H952 H 0.34315 0.38377 0.77479 0.0
H953 H 0.34252 0.38724 0.78927 0.0
H954 H 0.36239 0.40137 0.77149 0.0
H955 H 0.36157 0.40491 0.78591 0.0
H956 H 0.3669 0.41826 0.83009 0.0
H957 H 0.34304 0.42578 0.83809 0.0
H958 H 0.33711 0.41379 0.83172 0.0
H959 H 0.36092 0.4062 0.8237 0.0
C960 C 0.93509 0.86756 0.5754 0.0
C961 C 0.92768 0.86943 0.57922 0.0
C962 C 0.92235 0.87494 0.56658 0.0
C963 C 0.92141 0.87313 0.57487 0.0
C964 C 0.92976 0.87305 0.56274 0.0
C965 C 0.93609 0.86942 0.56713 0.0
U966 U 0.94128 0.85113 0.59011 0.0
O967 O 0.95179 0.8428 0.59037 0.0
O968 O 0.94951 0.85109 0.6006 0.0
C969 C 0.95444 0.84572 0.59732 0.0
C970 C 0.94161 0.86331 0.57987 0.0
C971 C 0.96314 0.84774 0.59773 0.0
C972 C 0.97416 0.85758 0.59722 0.0
C973 C 0.966 0.85556 0.59585 0.0
C974 C 0.97672 0.84388 0.602 0.0
C975 C 0.97956 0.85181 0.60051 0.0
C976 C 0.96858 0.84188 0.60064 0.0
C977 C 0.9241 0.83796 0.59869 0.0
C978 C 0.9256 0.82903 0.61036 0.0
C979 C 0.91302 0.8291 0.60269 0.0
C980 C 0.91622 0.83498 0.59748 0.0
C981 C 0.91764 0.82611 0.60924 0.0
C982 C 0.92882 0.8349 0.60511 0.0
C983 C 0.92716 0.84444 0.59336 0.0
O984 O 0.94157 0.86428 0.58781 0.0
O985 O 0.94292 0.85575 0.57764 0.0
O986 O 0.93182 0.84207 0.58732 0.0
O987 O 0.92991 0.85094 0.5971 0.0
H988 H 0.92669 0.86794 0.58556 0.0
H989 H 0.91573 0.87439 0.57796 0.0
H990 H 0.93066 0.8744 0.55636 0.0
H991 H 0.94173 0.86798 0.56405 0.0
H992 H 0.97614 0.86375 0.59605 0.0
H993 H 0.96187 0.86016 0.59358 0.0
H994 H 0.98075 0.83926 0.6044 0.0
H995 H 0.96649 0.83581 0.60209 0.0
H996 H 0.92934 0.82679 0.61529 0.0
H997 H 0.90683 0.82707 0.60173 0.0
H998 H 0.9125 0.8373 0.59256 0.0
H999 H 0.93494 0.83713 0.6061 0.0
C1000 C 0.88563 0.18565 0.32248 0.0
C1001 C 0.8905 0.17905 0.32013 0.0
C1002 C 0.87881 0.17246 0.31388 0.0
C1003 C 0.88714 0.17256 0.31583 0.0
C1004 C 0.87399 0.1792 0.31605 0.0
C1005 C 0.87738 0.18574 0.32033 0.0
U1006 U 0.90092 0.19126 0.33832 0.0
O1007 O 0.90855 0.20209 0.34028 0.0
O1008 O 0.89999 0.19812 0.34973 0.0
C1009 C 0.90524 0.20367 0.34738 0.0
C1010 C 0.889 0.19201 0.3278 0.0
C1011 C 0.90284 0.21214 0.34883 0.0
C1012 C 0.8931 0.22322 0.34792 0.0
C1013 C 0.89547 0.21529 0.34589 0.0
C1014 C 0.90555 0.22494 0.35561 0.0
C1015 C 0.89805 0.22807 0.35294 0.0
C1016 C 0.9079 0.21705 0.35358 0.0
C1017 C 0.91494 0.17407 0.34525 0.0
C1018 C 0.92404 0.17538 0.3568 0.0
C1019 C 0.92323 0.16263 0.34946 0.0
C1020 C 0.91749 0.16603 0.3442 0.0
C1021 C 0.92651 0.16724 0.35588 0.0
C1022 C 0.9183 0.17878 0.35152 0.0
C1023 C 0.90847 0.17731 0.34003 0.0
O1024 O 0.88783 0.19074 0.3356 0.0
O1025 O 0.89647 0.19433 0.32609 0.0
O1026 O 0.91069 0.18285 0.33472 0.0
O1027 O 0.90168 0.17913 0.34382 0.0
H1028 H 0.89687 0.17882 0.32179 0.0
H1029 H 0.89105 0.16754 0.31414 0.0
H1030 H 0.86755 0.17929 0.31472 0.0
H1031 H 0.87352 0.19074 0.32218 0.0
H1032 H 0.88727 0.22544 0.3458 0.0
H1033 H 0.89149 0.21156 0.3422 0.0
H1034 H 0.90956 0.22857 0.35937 0.0
H1035 H 0.91363 0.21472 0.35586 0.0
H1036 H 0.92652 0.17912 0.36162 0.0
H1037 H 0.92489 0.15631 0.34865 0.0
H1038 H 0.91491 0.16231 0.33942 0.0
H1039 H 0.91638 0.18502 0.35241 0.0
C1040 C 0.56578 0.13257 0.07542 0.0
C1041 C 0.57317 0.13059 0.07924 0.0
C1042 C 0.57839 0.12495 0.06661 0.0
C1043 C 0.57937 0.12677 0.0749 0.0
C1044 C 0.57101 0.12694 0.06278 0.0
C1045 C 0.56474 0.13069 0.06716 0.0
U1046 U 0.55988 0.1493 0.08989 0.0
O1047 O 0.54939 0.15763 0.09024 0.0
O1048 O 0.55184 0.1495 0.10054 0.0
C1049 C 0.54684 0.15481 0.09727 0.0
C1050 C 0.55934 0.13692 0.0799 0.0
C1051 C 0.5382 0.15265 0.09775 0.0
C1052 C 0.52698 0.1435 0.09481 0.0
C1053 C 0.53511 0.14579 0.09373 0.0
C1054 C 0.52495 0.15501 0.10377 0.0
C1055 C 0.52182 0.14803 0.09992 0.0
C1056 C 0.53305 0.15729 0.10268 0.0
C1057 C 0.57734 0.16253 0.09785 0.0
C1058 C 0.576 0.17202 0.10909 0.0
C1059 C 0.58878 0.17093 0.10184 0.0
C1060 C 0.5854 0.16502 0.09677 0.0
C1061 C 0.58415 0.17445 0.10811 0.0
C1062 C 0.57261 0.16611 0.10399 0.0
C1063 C 0.57409 0.15599 0.09273 0.0
O1064 O 0.5595 0.13612 0.08786 0.0
O1065 O 0.55801 0.14444 0.07754 0.0
O1066 O 0.5693 0.15829 0.08676 0.0
O1067 O 0.57138 0.14958 0.09665 0.0
H1068 H 0.5742 0.13208 0.08557 0.0
H1069 H 0.58504 0.12543 0.07798 0.0
H1070 H 0.57008 0.12558 0.0564 0.0
H1071 H 0.55912 0.13221 0.06409 0.0
H1072 H 0.52475 0.13814 0.0917 0.0
H1073 H 0.53902 0.14213 0.0899 0.0
H1074 H 0.52121 0.15857 0.10786 0.0
H1075 H 0.53536 0.16258 0.10587 0.0
H1076 H 0.57225 0.17467 0.11381 0.0
H1077 H 0.5951 0.17256 0.10099 0.0
H1078 H 0.58913 0.16229 0.09207 0.0
H1079 H 0.56635 0.16426 0.10489 0.0
C1080 C 0.61761 0.81537 0.82622 0.0
C1081 C 0.61985 0.82275 0.8299 0.0
C1082 C 0.62549 0.8276 0.81712 0.0
C1083 C 0.62379 0.82877 0.82541 0.0
C1084 C 0.62325 0.82022 0.81343 0.0
C1085 C 0.61937 0.81414 0.81796 0.0
U1086 U 0.60089 0.81044 0.84101 0.0
O1087 O 0.59215 0.8003 0.84172 0.0
O1088 O 0.60049 0.80272 0.85186 0.0
C1089 C 0.59498 0.79782 0.84877 0.0
C1090 C 0.61307 0.80916 0.83084 0.0
C1091 C 0.59684 0.78912 0.84945 0.0
C1092 C 0.60636 0.77785 0.84854 0.0
C1093 C 0.60438 0.78599 0.84699 0.0
C1094 C 0.59313 0.77585 0.85471 0.0
C1095 C 0.60082 0.77274 0.85259 0.0
C1096 C 0.59118 0.78396 0.85317 0.0
C1097 C 0.58876 0.82877 0.84884 0.0
C1098 C 0.57873 0.82798 0.85966 0.0
C1099 C 0.58213 0.84101 0.85369 0.0
C1100 C 0.58761 0.83719 0.84845 0.0
C1101 C 0.57771 0.83647 0.85943 0.0
C1102 C 0.58424 0.82416 0.85442 0.0
C1103 C 0.59496 0.82503 0.84365 0.0
O1104 O 0.61401 0.8094 0.83878 0.0
O1105 O 0.60546 0.80814 0.82861 0.0
O1106 O 0.59227 0.8202 0.83788 0.0
O1107 O 0.60131 0.8221 0.8475 0.0
H1108 H 0.61846 0.82393 0.83622 0.0
H1109 H 0.62532 0.83444 0.82839 0.0
H1110 H 0.6245 0.81916 0.80705 0.0
H1111 H 0.61764 0.80852 0.81499 0.0
H1112 H 0.61235 0.77567 0.84688 0.0
H1113 H 0.60883 0.7899 0.8441 0.0
H1114 H 0.58868 0.77204 0.8577 0.0
H1115 H 0.58531 0.78627 0.85508 0.0
H1116 H 0.57546 0.82433 0.86406 0.0
H1117 H 0.58139 0.84754 0.85327 0.0
H1118 H 0.59104 0.84084 0.84417 0.0
H1119 H 0.5851 0.81763 0.8548 0.0
C1120 C 0.9342 0.13316 0.92755 0.0
C1121 C 0.927 0.131 0.9235 0.0
C1122 C 0.9214 0.1255 0.93602 0.0
C1123 C 0.92069 0.12716 0.92768 0.0
C1124 C 0.9286 0.12765 0.94009 0.0
C1125 C 0.93497 0.13142 0.93587 0.0
U1126 U 0.94043 0.15006 0.91339 0.0
O1127 O 0.95094 0.1584 0.91344 0.0
O1128 O 0.9487 0.15044 0.90295 0.0
C1129 C 0.95365 0.15565 0.90644 0.0
C1130 C 0.94073 0.13758 0.92326 0.0
C1131 C 0.96233 0.15355 0.90607 0.0
C1132 C 0.97317 0.1435 0.90573 0.0
C1133 C 0.96501 0.14551 0.90712 0.0
C1134 C 0.9761 0.15761 0.90268 0.0
C1135 C 0.97876 0.1495 0.90328 0.0
C1136 C 0.96796 0.1596 0.90404 0.0
C1137 C 0.9232 0.1633 0.905 0.0
C1138 C 0.92486 0.1727 0.89373 0.0
C1139 C 0.91187 0.17165 0.90061 0.0
C1140 C 0.91511 0.16579 0.90583 0.0
C1141 C 0.91668 0.17511 0.89444 0.0
C1142 C 0.9281 0.16684 0.89898 0.0
C1143 C 0.92629 0.15675 0.91021 0.0
O1144 O 0.94078 0.13685 0.9153 0.0
O1145 O 0.94197 0.14508 0.92574 0.0
O1146 O 0.93091 0.15902 0.91632 0.0
O1147 O 0.9291 0.15035 0.90634 0.0
H1148 H 0.92617 0.13238 0.91711 0.0
H1149 H 0.91516 0.1257 0.92442 0.0
H1150 H 0.92932 0.12641 0.94651 0.0
H1151 H 0.94045 0.13307 0.93912 0.0
H1152 H 0.97499 0.13719 0.90619 0.0
H1153 H 0.96075 0.14075 0.90872 0.0
H1154 H 0.98028 0.1624 0.90096 0.0
H1155 H 0.96601 0.16585 0.90325 0.0
H1156 H 0.92874 0.17531 0.8891 0.0
H1157 H 0.90552 0.17327 0.90125 0.0
H1158 H 0.91124 0.16309 0.91043 0.0
H1159 H 0.93439 0.16499 0.89828 0.0
C1160 C 0.61441 0.18598 0.67727 0.0
C1161 C 0.6095 0.17948 0.67981 0.0
C1162 C 0.62118 0.17293 0.68612 0.0
C1163 C 0.61284 0.17306 0.68423 0.0
C1164 C 0.62604 0.17957 0.68375 0.0
C1165 C 0.62267 0.18604 0.67935 0.0
U1166 U 0.59936 0.19133 0.66107 0.0
O1167 O 0.59171 0.2021 0.65889 0.0
O1168 O 0.60047 0.19811 0.64963 0.0
C1169 C 0.59516 0.20365 0.65185 0.0
C1170 C 0.61107 0.19224 0.67181 0.0
C1171 C 0.59761 0.21212 0.65046 0.0
C1172 C 0.60703 0.22337 0.65222 0.0
C1173 C 0.60458 0.21543 0.65411 0.0
C1174 C 0.59546 0.22476 0.6432 0.0
C1175 C 0.60256 0.22806 0.64663 0.0
C1176 C 0.59302 0.21686 0.6451 0.0
C1177 C 0.58555 0.17401 0.65401 0.0
C1178 C 0.57698 0.17495 0.64202 0.0
C1179 C 0.57702 0.16264 0.65011 0.0
C1180 C 0.58266 0.16613 0.65541 0.0
C1181 C 0.57417 0.16697 0.6433 0.0
C1182 C 0.58263 0.17845 0.64734 0.0
C1183 C 0.59191 0.17733 0.65932 0.0
O1184 O 0.61239 0.19089 0.66405 0.0
O1185 O 0.60356 0.19452 0.67336 0.0
O1186 O 0.58955 0.18289 0.66455 0.0
O1187 O 0.59876 0.17915 0.65565 0.0
H1188 H 0.60312 0.17926 0.67821 0.0
H1189 H 0.60889 0.16812 0.68608 0.0
H1190 H 0.6325 0.17963 0.68502 0.0
H1191 H 0.62657 0.19096 0.67735 0.0
H1192 H 0.61255 0.22573 0.65492 0.0
H1193 H 0.60819 0.21182 0.65827 0.0
H1194 H 0.59181 0.22826 0.63898 0.0
H1195 H 0.5876 0.2144 0.64226 0.0
H1196 H 0.57485 0.17847 0.63688 0.0
H1197 H 0.57508 0.15644 0.65121 0.0
H1198 H 0.5849 0.16261 0.66051 0.0
H1199 H 0.58481 0.18456 0.64618 0.0
C1200 C 0.56547 0.86687 0.42598 0.0
C1201 C 0.57288 0.86875 0.42216 0.0
C1202 C 0.57801 0.87472 0.43468 0.0
C1203 C 0.57905 0.87268 0.42645 0.0
C1204 C 0.57062 0.87279 0.43852 0.0
C1205 C 0.56438 0.86893 0.43419 0.0
U1206 U 0.55941 0.85009 0.41157 0.0
O1207 O 0.54882 0.84188 0.41135 0.0
O1208 O 0.55129 0.84993 0.40099 0.0
C1209 C 0.54622 0.84476 0.40436 0.0
C1210 C 0.55902 0.86249 0.42155 0.0
C1211 C 0.53763 0.84719 0.40407 0.0
C1212 C 0.52696 0.8571 0.40656 0.0
C1213 C 0.53501 0.85452 0.40756 0.0
C1214 C 0.52404 0.84491 0.39882 0.0
C1215 C 0.52141 0.85238 0.40206 0.0
C1216 C 0.53208 0.84235 0.39981 0.0
C1217 C 0.57681 0.8368 0.40346 0.0
C1218 C 0.57564 0.82758 0.39198 0.0
C1219 C 0.58827 0.82839 0.39953 0.0
C1220 C 0.58482 0.8342 0.40467 0.0
C1221 C 0.58376 0.82507 0.39307 0.0
C1222 C 0.57219 0.8334 0.39715 0.0
C1223 C 0.57356 0.84332 0.40862 0.0
O1224 O 0.55914 0.86328 0.41359 0.0
O1225 O 0.55771 0.85498 0.42394 0.0
O1226 O 0.56879 0.84102 0.4146 0.0
O1227 O 0.57086 0.84975 0.40472 0.0
H1228 H 0.57395 0.86712 0.41587 0.0
H1229 H 0.58473 0.87397 0.42337 0.0
H1230 H 0.56964 0.87431 0.44486 0.0
H1231 H 0.55874 0.86748 0.43727 0.0
H1232 H 0.52512 0.86284 0.4092 0.0
H1233 H 0.53924 0.85833 0.41088 0.0
H1234 H 0.51997 0.84119 0.39522 0.0
H1235 H 0.53402 0.83669 0.39705 0.0
H1236 H 0.57198 0.82509 0.38711 0.0
H1237 H 0.59456 0.82669 0.40047 0.0
H1238 H 0.58848 0.83679 0.4095 0.0
H1239 H 0.56598 0.83534 0.39615 0.0
C1240 C 0.88303 0.81528 0.17469 0.0
C1241 C 0.88066 0.82261 0.17099 0.0
C1242 C 0.87512 0.82748 0.1838 0.0
C1243 C 0.87671 0.82862 0.17549 0.0
C1244 C 0.87749 0.82015 0.18751 0.0
C1245 C 0.88138 0.81408 0.18297 0.0
U1246 U 0.89983 0.81036 0.15996 0.0
O1247 O 0.90852 0.80018 0.15923 0.0
O1248 O 0.90024 0.8027 0.14906 0.0
C1249 C 0.90572 0.79777 0.15214 0.0
C1250 C 0.88758 0.80908 0.17005 0.0
C1251 C 0.90385 0.78907 0.15136 0.0
C1252 C 0.89437 0.77777 0.15231 0.0
C1253 C 0.89636 0.78589 0.15394 0.0
C1254 C 0.90746 0.77589 0.14581 0.0
C1255 C 0.89983 0.77274 0.14806 0.0
C1256 C 0.90943 0.78399 0.14743 0.0
C1257 C 0.9121 0.82869 0.15232 0.0
C1258 C 0.9221 0.82796 0.14147 0.0
C1259 C 0.91884 0.84093 0.14765 0.0
C1260 C 0.91334 0.83708 0.15284 0.0
C1261 C 0.9232 0.83644 0.14183 0.0
C1262 C 0.91656 0.82411 0.14667 0.0
C1263 C 0.90585 0.82492 0.15745 0.0
O1264 O 0.88669 0.80937 0.16211 0.0
O1265 O 0.89517 0.808 0.17231 0.0
O1266 O 0.90848 0.82004 0.16321 0.0
O1267 O 0.8995 0.82206 0.15354 0.0
H1268 H 0.88197 0.82378 0.16464 0.0
H1269 H 0.87508 0.83426 0.1725 0.0
H1270 H 0.87632 0.81911 0.19391 0.0
H1271 H 0.8832 0.8085 0.18596 0.0
H1272 H 0.88843 0.77555 0.15408 0.0
H1273 H 0.89197 0.78975 0.15698 0.0
H1274 H 0.91185 0.77214 0.14266 0.0
H1275 H 0.91525 0.78634 0.14542 0.0
H1276 H 0.92532 0.82434 0.13701 0.0
H1277 H 0.91965 0.84745 0.14817 0.0
H1278 H 0.90995 0.8407 0.15719 0.0
H1279 H 0.91564 0.8176 0.14618 0.0
C1280 C 0.57497 0.93543 0.86776 0.0
C1281 C 0.57877 0.92819 0.87026 0.0
C1282 C 0.566 0.9232 0.87579 0.0
C1283 C 0.57434 0.92218 0.87427 0.0
C1284 C 0.56219 0.93044 0.87329 0.0
C1285 C 0.56666 0.93652 0.86935 0.0
U1286 U 0.58975 0.9404 0.85101 0.0
O1287 O 0.59032 0.95048 0.84219 0.0
O1288 O 0.60048 0.94829 0.85057 0.0
C1289 C 0.59731 0.9531 0.84503 0.0
C1290 C 0.57954 0.94164 0.86316 0.0
C1291 C 0.59784 0.96183 0.84686 0.0
C1292 C 0.59685 0.97308 0.85639 0.0
C1293 C 0.59543 0.96492 0.85444 0.0
C1294 C 0.60277 0.9752 0.84307 0.0
C1295 C 0.60072 0.97826 0.85079 0.0
C1296 C 0.60135 0.96706 0.84113 0.0
C1297 C 0.59789 0.92205 0.83907 0.0
C1298 C 0.60855 0.92289 0.82888 0.0
C1299 C 0.60302 0.90978 0.83271 0.0
C1300 C 0.59774 0.91359 0.83816 0.0
C1301 C 0.60855 0.91436 0.82808 0.0
C1302 C 0.60326 0.9267 0.83436 0.0
C1303 C 0.59263 0.9258 0.84522 0.0
O1304 O 0.58748 0.94152 0.86412 0.0
O1305 O 0.57732 0.94255 0.85553 0.0
O1306 O 0.5868 0.93052 0.84247 0.0
O1307 O 0.59644 0.92885 0.85155 0.0
H1308 H 0.58514 0.92711 0.86901 0.0
H1309 H 0.57741 0.91661 0.87599 0.0
H1310 H 0.55577 0.9314 0.87441 0.0
H1311 H 0.5636 0.94203 0.86743 0.0
H1312 H 0.59526 0.97522 0.86241 0.0
H1313 H 0.59269 0.96095 0.85894 0.0
H1314 H 0.60562 0.97907 0.83857 0.0
H1315 H 0.60322 0.96478 0.83524 0.0
H1316 H 0.61278 0.92657 0.82544 0.0
H1317 H 0.60278 0.90322 0.83215 0.0
H1318 H 0.59361 0.90992 0.84174 0.0
H1319 H 0.60346 0.93325 0.83503 0.0
C1320 C 0.81585 0.82122 0.6142 0.0
C1321 C 0.82272 0.81929 0.60953 0.0
C1322 C 0.82924 0.81321 0.62134 0.0
C1323 C 0.82932 0.81528 0.61305 0.0
C1324 C 0.82225 0.81498 0.62597 0.0
C1325 C 0.81562 0.81897 0.62242 0.0
U1326 U 0.80965 0.83659 0.59863 0.0
O1327 O 0.79879 0.83781 0.59087 0.0
O1328 O 0.80216 0.8476 0.59932 0.0
C1329 C 0.79673 0.8448 0.59416 0.0
C1330 C 0.8093 0.82617 0.61066 0.0
C1331 C 0.78818 0.84561 0.59665 0.0
C1332 C 0.77774 0.84617 0.6071 0.0
C1333 C 0.78577 0.84456 0.60478 0.0
C1334 C 0.77439 0.8495 0.59315 0.0
C1335 C 0.772 0.84883 0.60134 0.0
C1336 C 0.78241 0.84792 0.59084 0.0
C1337 C 0.82681 0.84422 0.58481 0.0
C1338 C 0.82557 0.85594 0.57591 0.0
C1339 C 0.83824 0.84844 0.57649 0.0
C1340 C 0.83482 0.84312 0.58216 0.0
C1341 C 0.83369 0.85498 0.57337 0.0
C1342 C 0.82215 0.8506 0.58159 0.0
C1343 C 0.82361 0.83896 0.59126 0.0
O1344 O 0.81016 0.83404 0.61176 0.0
O1345 O 0.80721 0.82426 0.60318 0.0
O1346 O 0.81838 0.83337 0.58899 0.0
O1347 O 0.82147 0.84274 0.59796 0.0
H1348 H 0.82307 0.82103 0.60319 0.0
H1349 H 0.83453 0.81389 0.60927 0.0
H1350 H 0.82202 0.81355 0.63239 0.0
H1351 H 0.8104 0.8205 0.62614 0.0
H1352 H 0.77612 0.84565 0.61346 0.0
H1353 H 0.79014 0.84273 0.60935 0.0
H1354 H 0.77009 0.85139 0.58853 0.0
H1355 H 0.78415 0.8487 0.58454 0.0
H1356 H 0.82188 0.86086 0.57356 0.0
H1357 H 0.84453 0.84758 0.57478 0.0
H1358 H 0.83851 0.83825 0.58463 0.0
H1359 H 0.81594 0.85153 0.58358 0.0
C1360 C 0.92567 0.06667 0.36769 0.0
C1361 C 0.92189 0.07413 0.36947 0.0
C1362 C 0.9345 0.07935 0.37514 0.0
C1363 C 0.92625 0.08038 0.3732 0.0
C1364 C 0.9383 0.07191 0.37332 0.0
C1365 C 0.9339 0.06561 0.36966 0.0
U1366 U 0.91074 0.06044 0.35145 0.0
O1367 O 0.9104 0.04982 0.34325 0.0
O1368 O 0.90025 0.05222 0.3516 0.0
C1369 C 0.90358 0.04711 0.34643 0.0
C1370 C 0.92116 0.06016 0.36349 0.0
C1371 C 0.90347 0.03848 0.34886 0.0
C1372 C 0.90227 0.02803 0.35924 0.0
C1373 C 0.90324 0.03619 0.35708 0.0
C1374 C 0.90223 0.02428 0.34501 0.0
C1375 C 0.90159 0.02198 0.35323 0.0
C1376 C 0.90312 0.03245 0.34285 0.0
C1377 C 0.902 0.078 0.33866 0.0
C1378 C 0.89082 0.07675 0.32907 0.0
C1379 C 0.89691 0.08992 0.33164 0.0
C1380 C 0.90234 0.08635 0.33709 0.0
C1381 C 0.89101 0.08519 0.32765 0.0
C1382 C 0.89627 0.07318 0.33456 0.0
C1383 C 0.90739 0.0746 0.34489 0.0
O1384 O 0.91324 0.06018 0.36456 0.0
O1385 O 0.9233 0.05889 0.35589 0.0
O1386 O 0.91329 0.06987 0.34229 0.0
O1387 O 0.90374 0.0718 0.35142 0.0
H1388 H 0.91558 0.07517 0.3679 0.0
H1389 H 0.9232 0.08609 0.3744 0.0
H1390 H 0.94465 0.07096 0.37477 0.0
H1391 H 0.93694 0.05993 0.36829 0.0
H1392 H 0.90172 0.02653 0.36563 0.0
H1393 H 0.90355 0.04073 0.36184 0.0
H1394 H 0.90189 0.01978 0.34022 0.0
H1395 H 0.90335 0.03409 0.33647 0.0
H1396 H 0.88632 0.07295 0.32612 0.0
H1397 H 0.8973 0.0964 0.33058 0.0
H1398 H 0.90674 0.09016 0.34019 0.0
H1399 H 0.89592 0.06671 0.33574 0.0
C1400 C 0.6849 0.1758 0.11744 0.0
C1401 C 0.67762 0.17189 0.11964 0.0
C1402 C 0.67229 0.18453 0.12515 0.0
C1403 C 0.67141 0.1762 0.12349 0.0
C1404 C 0.67956 0.18845 0.12296 0.0
C1405 C 0.68583 0.18411 0.11917 0.0
U1406 U 0.69081 0.16147 0.10056 0.0
O1407 O 0.7013 0.1613 0.0922 0.0
O1408 O 0.6989 0.15088 0.10021 0.0
C1409 C 0.70389 0.15426 0.09496 0.0
C1410 C 0.69133 0.17138 0.11301 0.0
C1411 C 0.71257 0.15377 0.09706 0.0
C1412 C 0.72345 0.15389 0.10706 0.0
C1413 C 0.71532 0.15532 0.10499 0.0
C1414 C 0.72623 0.14974 0.0932 0.0
C1415 C 0.72896 0.15089 0.10123 0.0
C1416 C 0.71811 0.15115 0.09115 0.0
C1417 C 0.67335 0.15341 0.0874 0.0
C1418 C 0.67469 0.14216 0.07794 0.0
C1419 C 0.66186 0.14929 0.07913 0.0
C1420 C 0.66525 0.15442 0.08498 0.0
C1421 C 0.66651 0.14304 0.07559 0.0
C1422 C 0.67809 0.14732 0.08379 0.0
C1423 C 0.67659 0.15855 0.09393 0.0
O1424 O 0.69123 0.16342 0.11377 0.0
O1425 O 0.6926 0.1738 0.1055 0.0
O1426 O 0.68133 0.16457 0.09163 0.0
O1427 O 0.67936 0.15463 0.10031 0.0
H1428 H 0.67666 0.16552 0.11827 0.0
H1429 H 0.66583 0.17305 0.12499 0.0
H1430 H 0.68041 0.19486 0.1242 0.0
H1431 H 0.69137 0.18725 0.11749 0.0
H1432 H 0.72533 0.15478 0.11331 0.0
H1433 H 0.71112 0.15737 0.10963 0.0
H1434 H 0.73034 0.14757 0.08853 0.0
H1435 H 0.7161 0.14996 0.08499 0.0
H1436 H 0.67846 0.13746 0.07527 0.0
H1437 H 0.65551 0.15006 0.07757 0.0
H1438 H 0.6615 0.15908 0.08774 0.0
H1439 H 0.68438 0.14648 0.08559 0.0
C1440 C 0.5725 0.06477 0.63594 0.0
C1441 C 0.57063 0.07187 0.64029 0.0
C1442 C 0.56313 0.07717 0.6287 0.0
C1443 C 0.56596 0.07799 0.63672 0.0
C1444 C 0.56493 0.07 0.62439 0.0
C1445 C 0.56957 0.06384 0.62799 0.0
U1446 U 0.5893 0.05994 0.65061 0.0
O1447 O 0.59152 0.04952 0.65871 0.0
O1448 O 0.60045 0.05272 0.64932 0.0
C1449 C 0.59826 0.04748 0.65494 0.0
C1450 C 0.578 0.05866 0.63946 0.0
C1451 C 0.59899 0.03889 0.65265 0.0
C1452 C 0.59568 0.02754 0.64379 0.0
C1453 C 0.59457 0.03566 0.64611 0.0
C1454 C 0.6055 0.02581 0.65464 0.0
C1455 C 0.6012 0.02254 0.648 0.0
C1456 C 0.6044 0.03391 0.65693 0.0
C1457 C 0.59736 0.07793 0.66307 0.0
C1458 C 0.60876 0.07696 0.67242 0.0
C1459 C 0.60262 0.09005 0.66959 0.0
C1460 C 0.59706 0.08633 0.66438 0.0
C1461 C 0.60859 0.08543 0.6736 0.0
C1462 C 0.60319 0.07323 0.66716 0.0
C1463 C 0.59176 0.07428 0.65716 0.0
O1464 O 0.58571 0.05976 0.63772 0.0
O1465 O 0.57673 0.05692 0.64716 0.0
O1466 O 0.58652 0.069 0.66006 0.0
O1467 O 0.59512 0.07195 0.6503 0.0
H1468 H 0.57295 0.07276 0.64639 0.0
H1469 H 0.5648 0.08349 0.64016 0.0
H1470 H 0.5628 0.06919 0.61821 0.0
H1471 H 0.57101 0.05843 0.62452 0.0
H1472 H 0.59223 0.02518 0.6387 0.0
H1473 H 0.59035 0.03944 0.64274 0.0
H1474 H 0.60991 0.02219 0.65793 0.0
H1475 H 0.60788 0.03633 0.66198 0.0
H1476 H 0.61332 0.07325 0.67537 0.0
H1477 H 0.60225 0.09656 0.67048 0.0
H1478 H 0.59258 0.09003 0.66127 0.0
H1479 H 0.60351 0.06672 0.66617 0.0
C1480 C 0.68514 0.82518 0.38339 0.0
C1481 C 0.67795 0.82906 0.38087 0.0
C1482 C 0.67269 0.8163 0.37558 0.0
C1483 C 0.67182 0.82468 0.37697 0.0
C1484 C 0.67989 0.81241 0.37808 0.0
C1485 C 0.68607 0.81683 0.38192 0.0
U1486 U 0.69039 0.83996 0.40004 0.0
O1487 O 0.70052 0.84045 0.40881 0.0
O1488 O 0.69839 0.85061 0.40041 0.0
C1489 C 0.70319 0.84742 0.40594 0.0
C1490 C 0.69143 0.8297 0.38792 0.0
C1491 C 0.71193 0.84788 0.40412 0.0
C1492 C 0.72315 0.84728 0.39452 0.0
C1493 C 0.71496 0.84588 0.3964 0.0
C1494 C 0.72541 0.8523 0.40819 0.0
C1495 C 0.72842 0.85068 0.40034 0.0
C1496 C 0.71723 0.85092 0.41004 0.0
C1497 C 0.67216 0.84826 0.41207 0.0
C1498 C 0.67307 0.85906 0.42211 0.0
C1499 C 0.65995 0.85337 0.41856 0.0
C1500 C 0.66372 0.84806 0.41312 0.0
C1501 C 0.66457 0.859 0.42304 0.0
C1502 C 0.67685 0.85373 0.41663 0.0
C1503 C 0.67585 0.84298 0.40591 0.0
O1504 O 0.69139 0.83764 0.38693 0.0
O1505 O 0.6924 0.82749 0.39554 0.0
O1506 O 0.68053 0.83711 0.40864 0.0
O1507 O 0.6789 0.84675 0.39956 0.0
H1508 H 0.67698 0.83547 0.38204 0.0
H1509 H 0.6663 0.82782 0.37524 0.0
H1510 H 0.68073 0.80596 0.37706 0.0
H1511 H 0.69154 0.8137 0.38385 0.0
H1512 H 0.72525 0.84602 0.38841 0.0
H1513 H 0.71095 0.84351 0.39175 0.0
H1514 H 0.72933 0.85478 0.41285 0.0
H1515 H 0.715 0.85246 0.41605 0.0
H1516 H 0.67678 0.86336 0.42543 0.0
H1517 H 0.65341 0.85308 0.41923 0.0
H1518 H 0.66002 0.84385 0.40965 0.0
H1519 H 0.68338 0.85398 0.41586 0.0
C1520 C 0.92471 0.93509 0.13342 0.0
C1521 C 0.92104 0.92783 0.1308 0.0
C1522 C 0.93398 0.92296 0.12556 0.0
C1523 C 0.92562 0.92186 0.12687 0.0
C1524 C 0.93767 0.93022 0.12818 0.0
C1525 C 0.93306 0.93625 0.13204 0.0
U1526 U 0.91003 0.94026 0.15027 0.0
O1527 O 0.90928 0.95068 0.15866 0.0
O1528 O 0.89907 0.94785 0.15054 0.0
C1529 C 0.90214 0.95294 0.15588 0.0
C1530 C 0.91998 0.94128 0.13789 0.0
C1531 C 0.90122 0.96158 0.15383 0.0
C1532 C 0.90248 0.97281 0.1443 0.0
C1533 C 0.90417 0.96475 0.14647 0.0
C1534 C 0.89514 0.97464 0.15694 0.0
C1535 C 0.89779 0.97778 0.14944 0.0
C1536 C 0.89684 0.96662 0.1591 0.0
C1537 C 0.90258 0.92253 0.16336 0.0
C1538 C 0.89135 0.92369 0.17288 0.0
C1539 C 0.89857 0.91092 0.17152 0.0
C1540 C 0.90365 0.91442 0.16568 0.0
C1541 C 0.8923 0.91549 0.17513 0.0
C1542 C 0.89645 0.92719 0.16704 0.0
C1543 C 0.90767 0.92592 0.15686 0.0
O1544 O 0.91204 0.94084 0.13709 0.0
O1545 O 0.92231 0.9426 0.14542 0.0
O1546 O 0.91347 0.93089 0.1592 0.0
O1547 O 0.9037 0.9285 0.15043 0.0
H1548 H 0.91464 0.92669 0.13187 0.0
H1549 H 0.92264 0.91628 0.12504 0.0
H1550 H 0.9441 0.93123 0.12723 0.0
H1551 H 0.93602 0.94178 0.13404 0.0
H1552 H 0.90456 0.97503 0.13846 0.0
H1553 H 0.90756 0.96092 0.14232 0.0
H1554 H 0.89163 0.97836 0.16109 0.0
H1555 H 0.89454 0.96427 0.16481 0.0
H1556 H 0.88663 0.92739 0.17561 0.0
H1557 H 0.8994 0.90456 0.17302 0.0
H1558 H 0.90833 0.91074 0.16287 0.0
H1559 H 0.89556 0.93348 0.16532 0.0
C1560 C 0.81623 0.17561 0.88284 0.0
C1561 C 0.82362 0.1717 0.88105 0.0
C1562 C 0.82906 0.18421 0.87536 0.0
C1563 C 0.82994 0.17594 0.87731 0.0
C1564 C 0.82169 0.18814 0.87717 0.0
C1565 C 0.81531 0.18385 0.88084 0.0
U1566 U 0.80951 0.16154 0.89969 0.0
O1567 O 0.79858 0.16153 0.90748 0.0
O1568 O 0.80142 0.15096 0.89982 0.0
C1569 C 0.79608 0.15449 0.90461 0.0
C1570 C 0.80962 0.17124 0.88706 0.0
C1571 C 0.78749 0.15404 0.90202 0.0
C1572 C 0.77719 0.1503 0.89207 0.0
C1573 C 0.78534 0.15158 0.89412 0.0
C1574 C 0.77315 0.15434 0.90563 0.0
C1575 C 0.77099 0.15151 0.89784 0.0
C1576 C 0.78131 0.15554 0.9077 0.0
C1577 C 0.82638 0.15369 0.9138 0.0
C1578 C 0.82482 0.14237 0.92316 0.0
C1579 C 0.83757 0.14975 0.92256 0.0
C1580 C 0.83433 0.15484 0.91658 0.0
C1581 C 0.83289 0.14339 0.92585 0.0
C1582 C 0.82159 0.1475 0.91718 0.0
C1583 C 0.82338 0.15873 0.90707 0.0
O1584 O 0.80977 0.16327 0.88646 0.0
O1585 O 0.80801 0.1738 0.89446 0.0
O1586 O 0.81852 0.16475 0.90907 0.0
O1587 O 0.82093 0.15471 0.90062 0.0
H1588 H 0.82456 0.16537 0.88263 0.0
H1589 H 0.8356 0.17279 0.87611 0.0
H1590 H 0.82084 0.1945 0.87571 0.0
H1591 H 0.80969 0.187 0.8822 0.0
H1592 H 0.7758 0.14803 0.88605 0.0
H1593 H 0.78996 0.15039 0.88958 0.0
H1594 H 0.76854 0.15548 0.91019 0.0
H1595 H 0.78281 0.15747 0.91382 0.0
H1596 H 0.82103 0.13759 0.92564 0.0
H1597 H 0.84383 0.15063 0.92439 0.0
H1598 H 0.83812 0.15957 0.914 0.0
H1599 H 0.81541 0.14654 0.91509 0.0
C1600 C 0.86469 0.57373 0.93606 0.0
C1601 C 0.85977 0.57093 0.92968 0.0
C1602 C 0.87153 0.56482 0.92308 0.0
C1603 C 0.86314 0.56648 0.92329 0.0
C1604 C 0.87641 0.56745 0.92961 0.0
C1605 C 0.87301 0.57187 0.93604 0.0
U1606 U 0.84954 0.58988 0.9414 0.0
O1607 O 0.84195 0.59206 0.95221 0.0
O1608 O 0.85064 0.60135 0.94814 0.0
C1609 C 0.84537 0.59913 0.95371 0.0
C1610 C 0.86131 0.5792 0.94229 0.0
C1611 C 0.84783 0.60061 0.96216 0.0
C1612 C 0.85725 0.59897 0.97343 0.0
C1613 C 0.85478 0.59698 0.96552 0.0
C1614 C 0.84573 0.60807 0.97469 0.0
C1615 C 0.85282 0.60466 0.97804 0.0
C1616 C 0.84327 0.60606 0.96683 0.0
C1617 C 0.8356 0.59689 0.92419 0.0
C1618 C 0.82704 0.60888 0.92523 0.0
C1619 C 0.82697 0.60081 0.9129 0.0
C1620 C 0.83264 0.59551 0.91634 0.0
C1621 C 0.82417 0.60761 0.91727 0.0
C1622 C 0.83271 0.60355 0.92867 0.0
C1623 C 0.84199 0.59158 0.92745 0.0
O1624 O 0.86259 0.58696 0.94091 0.0
O1625 O 0.85381 0.57761 0.9446 0.0
O1626 O 0.8397 0.58635 0.93303 0.0
O1627 O 0.84886 0.59526 0.92921 0.0
H1628 H 0.85334 0.57235 0.92952 0.0
H1629 H 0.85918 0.56444 0.91844 0.0
H1630 H 0.8829 0.56636 0.9296 0.0
H1631 H 0.87692 0.57406 0.94087 0.0
H1632 H 0.86276 0.59627 0.97583 0.0
H1633 H 0.85837 0.59274 0.96197 0.0
H1634 H 0.84211 0.61236 0.97814 0.0
H1635 H 0.83786 0.60889 0.96434 0.0
H1636 H 0.82494 0.61401 0.92878 0.0
H1637 H 0.82498 0.59972 0.90672 0.0
H1638 H 0.83485 0.59041 0.91279 0.0
H1639 H 0.83494 0.60469 0.93476 0.0
C1640 C 0.3651 0.92751 0.06415 0.0
C1641 C 0.36072 0.92958 0.07118 0.0
C1642 C 0.37233 0.93716 0.07635 0.0
C1643 C 0.36429 0.93439 0.07719 0.0
C1644 C 0.37666 0.93517 0.06924 0.0
C1645 C 0.37306 0.93039 0.06318 0.0
U1646 U 0.35029 0.91072 0.05986 0.0
O1647 O 0.34233 0.90807 0.04943 0.0
O1648 O 0.35153 0.89918 0.05327 0.0
C1649 C 0.34596 0.90112 0.04788 0.0
C1650 C 0.36161 0.92181 0.05821 0.0
C1651 C 0.34819 0.89965 0.03936 0.0
C1652 C 0.35725 0.90146 0.02782 0.0
C1653 C 0.35495 0.90345 0.03578 0.0
C1654 C 0.34596 0.89204 0.02694 0.0
C1655 C 0.35286 0.89561 0.02337 0.0
C1656 C 0.34366 0.89404 0.03486 0.0
C1657 C 0.33752 0.90359 0.07797 0.0
C1658 C 0.32822 0.89213 0.07728 0.0
C1659 C 0.33083 0.89875 0.09018 0.0
C1660 C 0.33609 0.90419 0.08633 0.0
C1661 C 0.32691 0.89259 0.08573 0.0
C1662 C 0.33352 0.89757 0.07343 0.0
C1663 C 0.34352 0.90901 0.07421 0.0
O1664 O 0.36323 0.91413 0.05966 0.0
O1665 O 0.35394 0.92309 0.05631 0.0
O1666 O 0.34074 0.91402 0.06864 0.0
O1667 O 0.3504 0.90552 0.07215 0.0
H1668 H 0.35461 0.92731 0.07211 0.0
H1669 H 0.36083 0.93569 0.08265 0.0
H1670 H 0.38285 0.93725 0.0684 0.0
H1671 H 0.37656 0.92879 0.05783 0.0
H1672 H 0.36262 0.90428 0.02525 0.0
H1673 H 0.35852 0.9078 0.0392 0.0
H1674 H 0.34237 0.88762 0.02363 0.0
H1675 H 0.33841 0.89108 0.03752 0.0
H1676 H 0.32534 0.88741 0.0737 0.0
H1677 H 0.32986 0.89935 0.09667 0.0
H1678 H 0.33913 0.90881 0.08992 0.0
H1679 H 0.3346 0.89701 0.06696 0.0
C1680 C 0.82268 0.61414 0.81491 0.0
C1681 C 0.82022 0.60927 0.82148 0.0
C1682 C 0.81394 0.62097 0.82802 0.0
C1683 C 0.81585 0.61263 0.82793 0.0
C1684 C 0.81619 0.62578 0.82131 0.0
C1685 C 0.82054 0.62239 0.81481 0.0
U1686 U 0.83946 0.59969 0.80981 0.0
O1687 O 0.84177 0.59166 0.79934 0.0
O1688 O 0.85068 0.60102 0.80272 0.0
C1689 C 0.84856 0.59541 0.79744 0.0
C1690 C 0.82814 0.61081 0.80865 0.0
C1691 C 0.84956 0.59761 0.78884 0.0
C1692 C 0.84859 0.60735 0.77776 0.0
C1693 C 0.84692 0.60515 0.78582 0.0
C1694 C 0.85524 0.59438 0.77562 0.0
C1695 C 0.85292 0.60205 0.77262 0.0
C1696 C 0.85359 0.5922 0.78366 0.0
C1697 C 0.84745 0.58721 0.82783 0.0
C1698 C 0.85913 0.5782 0.82701 0.0
C1699 C 0.85261 0.58067 0.83999 0.0
C1700 C 0.84699 0.58578 0.8362 0.0
C1701 C 0.85881 0.57691 0.83546 0.0
C1702 C 0.8535 0.58335 0.82322 0.0
C1703 C 0.84184 0.59308 0.82414 0.0
O1704 O 0.83585 0.61258 0.80973 0.0
O1705 O 0.82692 0.60314 0.80672 0.0
O1706 O 0.83667 0.59016 0.8188 0.0
O1707 O 0.84517 0.59997 0.82187 0.0
H1708 H 0.82187 0.6029 0.82174 0.0
H1709 H 0.8141 0.60872 0.83292 0.0
H1710 H 0.81489 0.63224 0.82122 0.0
H1711 H 0.82246 0.62626 0.80984 0.0
H1712 H 0.84676 0.61332 0.77566 0.0
H1713 H 0.84377 0.6094 0.78974 0.0
H1714 H 0.85845 0.5901 0.77179 0.0
H1715 H 0.85562 0.58634 0.78588 0.0
H1716 H 0.86387 0.57543 0.82337 0.0
H1717 H 0.85211 0.5797 0.84648 0.0
H1718 H 0.84234 0.58871 0.83984 0.0
H1719 H 0.85396 0.58444 0.81674 0.0
C1720 C 0.13688 0.0723 0.56452 0.0
C1721 C 0.14173 0.06956 0.57099 0.0
C1722 C 0.12986 0.06375 0.57764 0.0
C1723 C 0.13827 0.06528 0.57744 0.0
C1724 C 0.12505 0.06631 0.57104 0.0
C1725 C 0.12854 0.07055 0.56453 0.0
U1726 U 0.15207 0.08836 0.55903 0.0
O1727 O 0.15994 0.09018 0.54835 0.0
O1728 O 0.15112 0.09957 0.55186 0.0
C1729 C 0.15649 0.09713 0.54647 0.0
C1730 C 0.14037 0.07759 0.5582 0.0
C1731 C 0.15415 0.09817 0.53791 0.0
C1732 C 0.14413 0.09759 0.52706 0.0
C1733 C 0.14643 0.09588 0.53508 0.0
C1734 C 0.15735 0.10359 0.52458 0.0
C1735 C 0.14952 0.10162 0.52177 0.0
C1736 C 0.15963 0.1019 0.53258 0.0
C1737 C 0.16549 0.0959 0.5765 0.0
C1738 C 0.17394 0.10798 0.57564 0.0
C1739 C 0.17389 0.09988 0.58795 0.0
C1740 C 0.16833 0.09453 0.5844 0.0
C1741 C 0.17669 0.10672 0.58365 0.0
C1742 C 0.16838 0.1026 0.57209 0.0
C1743 C 0.15921 0.09053 0.57314 0.0
O1744 O 0.13902 0.08539 0.5593 0.0
O1745 O 0.14793 0.07598 0.55612 0.0
O1746 O 0.16169 0.08514 0.56778 0.0
O1747 O 0.15241 0.09416 0.57104 0.0
H1748 H 0.14818 0.07091 0.57116 0.0
H1749 H 0.14219 0.06329 0.58235 0.0
H1750 H 0.11855 0.0653 0.57103 0.0
H1751 H 0.12469 0.07269 0.55964 0.0
H1752 H 0.13804 0.09603 0.5251 0.0
H1753 H 0.14212 0.09296 0.53913 0.0
H1754 H 0.1617 0.10657 0.52063 0.0
H1755 H 0.16563 0.10366 0.53466 0.0
H1756 H 0.17605 0.11315 0.57214 0.0
H1757 H 0.17578 0.09879 0.59416 0.0
H1758 H 0.16612 0.0894 0.58789 0.0
H1759 H 0.16624 0.10374 0.56596 0.0
C1760 C 0.17505 0.88384 0.81515 0.0
C1761 C 0.17129 0.88212 0.82262 0.0
C1762 C 0.18384 0.87627 0.82778 0.0
C1763 C 0.17562 0.87832 0.82885 0.0
C1764 C 0.18763 0.87804 0.82033 0.0
C1765 C 0.18325 0.88177 0.81405 0.0
U1766 U 0.16047 0.90039 0.8089 0.0
O1767 O 0.16012 0.90846 0.79821 0.0
O1768 O 0.14985 0.90035 0.80082 0.0
C1769 C 0.15314 0.9055 0.79568 0.0
C1770 C 0.17056 0.88808 0.80864 0.0
C1771 C 0.1528 0.90299 0.78712 0.0
C1772 C 0.15582 0.89324 0.77644 0.0
C1773 C 0.15687 0.89599 0.78443 0.0
C1774 C 0.14684 0.9046 0.77373 0.0
C1775 C 0.15067 0.89743 0.77104 0.0
C1776 C 0.1479 0.90734 0.7817 0.0
C1777 C 0.15227 0.91381 0.82615 0.0
C1778 C 0.14052 0.9227 0.82503 0.0
C1779 C 0.14854 0.92259 0.8374 0.0
C1780 C 0.1537 0.91676 0.834 0.0
C1781 C 0.14184 0.92557 0.83299 0.0
C1782 C 0.14571 0.91687 0.82163 0.0
C1783 C 0.15748 0.9073 0.82296 0.0
O1784 O 0.16262 0.88722 0.80878 0.0
O1785 O 0.17288 0.8956 0.80722 0.0
O1786 O 0.16343 0.9096 0.81816 0.0
O1787 O 0.15364 0.9008 0.82035 0.0
H1788 H 0.165 0.88377 0.8237 0.0
H1789 H 0.17258 0.87715 0.83457 0.0
H1790 H 0.19396 0.8765 0.81934 0.0
H1791 H 0.18629 0.88309 0.80835 0.0
H1792 H 0.15893 0.88775 0.77454 0.0
H1793 H 0.16069 0.89256 0.78856 0.0
H1794 H 0.14274 0.90792 0.76979 0.0
H1795 H 0.14468 0.91272 0.7837 0.0
H1796 H 0.13547 0.92494 0.82146 0.0
H1797 H 0.14967 0.92457 0.84357 0.0
H1798 H 0.15871 0.91444 0.83758 0.0
H1799 H 0.14454 0.91467 0.81554 0.0
C1800 C 0.63616 0.42906 0.43488 0.0
C1801 C 0.64086 0.43131 0.42812 0.0
C1802 C 0.62896 0.43726 0.42164 0.0
C1803 C 0.63731 0.43541 0.4216 0.0
C1804 C 0.62431 0.43515 0.42851 0.0
C1805 C 0.62789 0.43107 0.43507 0.0
U1806 U 0.65174 0.41356 0.44089 0.0
O1807 O 0.65951 0.41225 0.45174 0.0
O1808 O 0.65103 0.40251 0.44832 0.0
C1809 C 0.65619 0.40528 0.45377 0.0
C1810 C 0.63974 0.42402 0.44135 0.0
C1811 C 0.6537 0.40443 0.46232 0.0
C1812 C 0.64323 0.40341 0.47272 0.0
C1813 C 0.64551 0.40505 0.46468 0.0
C1814 C 0.65733 0.40094 0.47619 0.0
C1815 C 0.64911 0.40116 0.47853 0.0
C1816 C 0.65959 0.40254 0.46816 0.0
C1817 C 0.66551 0.40597 0.42368 0.0
C1818 C 0.67433 0.39418 0.42485 0.0
C1819 C 0.67383 0.4018 0.41225 0.0
C1820 C 0.66818 0.40712 0.41569 0.0
C1821 C 0.6769 0.3952 0.41674 0.0
C1822 C 0.66867 0.39953 0.42829 0.0
C1823 C 0.65908 0.41124 0.42691 0.0
O1824 O 0.63862 0.41617 0.44042 0.0
O1825 O 0.64724 0.4259 0.44342 0.0
O1826 O 0.66138 0.4168 0.43217 0.0
O1827 O 0.65236 0.40748 0.42904 0.0
H1828 H 0.64725 0.42974 0.4278 0.0
H1829 H 0.64111 0.43706 0.41648 0.0
H1830 H 0.61785 0.4364 0.4287 0.0
H1831 H 0.62415 0.4293 0.4402 0.0
H1832 H 0.63684 0.40358 0.47429 0.0
H1833 H 0.64086 0.40655 0.46027 0.0
H1834 H 0.66203 0.39939 0.48054 0.0
H1835 H 0.66594 0.4021 0.46647 0.0
H1836 H 0.67664 0.38921 0.4285 0.0
H1837 H 0.67557 0.4027 0.40596 0.0
H1838 H 0.66575 0.41204 0.41204 0.0
H1839 H 0.66666 0.39856 0.43449 0.0
C1840 C 0.82186 0.38768 0.68692 0.0
C1841 C 0.81963 0.39249 0.68024 0.0
C1842 C 0.81328 0.3808 0.67375 0.0
C1843 C 0.81533 0.38911 0.67376 0.0
C1844 C 0.81532 0.37605 0.68057 0.0
C1845 C 0.81959 0.37947 0.6871 0.0
U1846 U 0.8384 0.40233 0.6923 0.0
O1847 O 0.84063 0.41006 0.703 0.0
O1848 O 0.84967 0.40096 0.69931 0.0
C1849 C 0.84745 0.40631 0.70482 0.0
C1850 C 0.82725 0.39101 0.69324 0.0
C1851 C 0.84828 0.4036 0.71328 0.0
C1852 C 0.84546 0.39388 0.72404 0.0
C1853 C 0.84414 0.3967 0.71612 0.0
C1854 C 0.85487 0.40496 0.7264 0.0
C1855 C 0.85093 0.39792 0.72924 0.0
C1856 C 0.85356 0.40776 0.71849 0.0
C1857 C 0.84607 0.41521 0.67431 0.0
C1858 C 0.85743 0.42462 0.67496 0.0
C1859 C 0.85117 0.4215 0.662 0.0
C1860 C 0.84566 0.41635 0.66589 0.0
C1861 C 0.85718 0.42561 0.66646 0.0
C1862 C 0.85193 0.41942 0.67886 0.0
C1863 C 0.84061 0.40925 0.67808 0.0
O1864 O 0.835 0.3894 0.69212 0.0
O1865 O 0.8259 0.39862 0.69528 0.0
O1866 O 0.83549 0.41205 0.68355 0.0
O1867 O 0.84406 0.40237 0.68021 0.0
H1868 H 0.82139 0.39883 0.67993 0.0
H1869 H 0.81375 0.39297 0.66867 0.0
H1870 H 0.8139 0.36962 0.68073 0.0
H1871 H 0.82135 0.37564 0.69216 0.0
H1872 H 0.84227 0.38849 0.72606 0.0
H1873 H 0.84001 0.39342 0.71216 0.0
H1874 H 0.85921 0.40816 0.73019 0.0
H1875 H 0.85682 0.41309 0.71638 0.0
H1876 H 0.86204 0.42767 0.67855 0.0
H1877 H 0.85074 0.42222 0.65546 0.0
H1878 H 0.84117 0.41314 0.6623 0.0
H1879 H 0.85234 0.41856 0.68538 0.0
C1880 C 0.67767 0.61463 0.18614 0.0
C1881 C 0.67974 0.61022 0.17914 0.0
C1882 C 0.68726 0.62182 0.17388 0.0
C1883 C 0.68452 0.61376 0.17309 0.0
C1884 C 0.68527 0.62619 0.18096 0.0
C1885 C 0.68052 0.62261 0.18706 0.0
U1886 U 0.66083 0.59992 0.19055 0.0
O1887 O 0.65825 0.5919 0.20096 0.0
O1888 O 0.64938 0.60118 0.19729 0.0
C1889 C 0.65136 0.59558 0.20263 0.0
C1890 C 0.67201 0.61115 0.19213 0.0
C1891 C 0.65004 0.59778 0.21117 0.0
C1892 C 0.65195 0.60689 0.22266 0.0
C1893 C 0.6538 0.60461 0.21466 0.0
C1894 C 0.64276 0.59542 0.22377 0.0
C1895 C 0.6463 0.60239 0.22725 0.0
C1896 C 0.64462 0.59315 0.21581 0.0
C1897 C 0.65338 0.58729 0.17247 0.0
C1898 C 0.64182 0.57813 0.17325 0.0
C1899 C 0.64838 0.58065 0.1603 0.0
C1900 C 0.65391 0.58584 0.1641 0.0
C1901 C 0.6422 0.57681 0.16481 0.0
C1902 C 0.64736 0.58337 0.17705 0.0
C1903 C 0.6589 0.59324 0.17618 0.0
O1904 O 0.66432 0.61283 0.19077 0.0
O1905 O 0.67326 0.60347 0.19399 0.0
O1906 O 0.66396 0.59039 0.18168 0.0
O1907 O 0.65548 0.60013 0.17832 0.0
H1908 H 0.67748 0.60409 0.17825 0.0
H1909 H 0.68582 0.61028 0.16765 0.0
H1910 H 0.68733 0.63239 0.18176 0.0
H1911 H 0.67893 0.62612 0.19239 0.0
H1912 H 0.65474 0.61231 0.22515 0.0
H1913 H 0.65802 0.60825 0.21114 0.0
H1914 H 0.63849 0.59176 0.22719 0.0
H1915 H 0.64169 0.58785 0.21322 0.0
H1916 H 0.63709 0.57532 0.17687 0.0
H1917 H 0.64892 0.57966 0.15381 0.0
H1918 H 0.65853 0.58883 0.16048 0.0
H1919 H 0.64685 0.58447 0.18353 0.0
C1920 C 0.56471 0.62816 0.92274 0.0
C1921 C 0.57296 0.62957 0.92107 0.0
C1922 C 0.57681 0.62298 0.93374 0.0
C1923 C 0.57893 0.62699 0.9265 0.0
C1924 C 0.56853 0.62145 0.93533 0.0
C1925 C 0.56253 0.62403 0.92986 0.0
U1926 U 0.55994 0.64309 0.90637 0.0
O1927 O 0.55234 0.64252 0.89537 0.0
O1928 O 0.54994 0.65177 0.90468 0.0
C1929 C 0.54744 0.64828 0.89793 0.0
C1930 C 0.55849 0.63164 0.91734 0.0
C1931 C 0.53874 0.64632 0.89767 0.0
C1932 C 0.5269 0.63955 0.90333 0.0
C1933 C 0.53523 0.64123 0.90354 0.0
C1934 C 0.52553 0.64794 0.8913 0.0
C1935 C 0.52195 0.64291 0.89722 0.0
C1936 C 0.53386 0.64964 0.89153 0.0
C1937 C 0.57867 0.6557 0.89975 0.0
C1938 C 0.57887 0.66647 0.88964 0.0
C1939 C 0.59094 0.66355 0.89758 0.0
C1940 C 0.58679 0.65736 0.90161 0.0
C1941 C 0.58704 0.66821 0.89155 0.0
C1942 C 0.5747 0.66025 0.89373 0.0
C1943 C 0.57448 0.64937 0.90442 0.0
O1944 O 0.5568 0.6393 0.91881 0.0
O1945 O 0.55951 0.6301 0.90956 0.0
O1946 O 0.57187 0.64303 0.90031 0.0
O1947 O 0.56927 0.65197 0.90988 0.0
H1948 H 0.57476 0.63287 0.91566 0.0
H1949 H 0.58521 0.62844 0.92515 0.0
H1950 H 0.5667 0.61835 0.94085 0.0
H1951 H 0.55618 0.62295 0.93127 0.0
H1952 H 0.52435 0.63558 0.90791 0.0
H1953 H 0.53894 0.63858 0.9083 0.0
H1954 H 0.52187 0.6507 0.88657 0.0
H1955 H 0.53648 0.65359 0.88696 0.0
H1956 H 0.57571 0.66991 0.88501 0.0
H1957 H 0.59715 0.66482 0.89936 0.0
H1958 H 0.58992 0.65394 0.9063 0.0
H1959 H 0.5684 0.65904 0.89224 0.0
C1960 C 0.62301 0.31446 0.17292 0.0
C1961 C 0.62259 0.32274 0.17092 0.0
C1962 C 0.62776 0.32639 0.1843 0.0
C1963 C 0.62498 0.32864 0.17653 0.0
C1964 C 0.62838 0.31806 0.18621 0.0
C1965 C 0.62603 0.31215 0.18055 0.0
U1966 U 0.60768 0.30984 0.15681 0.0
O1967 O 0.60806 0.30247 0.14564 0.0
O1968 O 0.59914 0.29971 0.15517 0.0
C1969 C 0.6025 0.29739 0.1483 0.0
C1970 C 0.61948 0.30836 0.1674 0.0
C1971 C 0.60468 0.28874 0.1479 0.0
C1972 C 0.61187 0.27704 0.15333 0.0
C1973 C 0.61003 0.28534 0.1536 0.0
C1974 C 0.60315 0.27551 0.14155 0.0
C1975 C 0.60841 0.27202 0.14733 0.0
C1976 C 0.6013 0.2838 0.14185 0.0
C1977 C 0.59444 0.32856 0.15126 0.0
C1978 C 0.58486 0.33011 0.14011 0.0
C1979 C 0.5852 0.34004 0.15099 0.0
C1980 C 0.59143 0.3357 0.15476 0.0
C1981 C 0.58187 0.33735 0.14359 0.0
C1982 C 0.59111 0.32574 0.14392 0.0
C1983 C 0.60102 0.32427 0.1555 0.0
O1984 O 0.6119 0.30645 0.16905 0.0
O1985 O 0.62077 0.30961 0.15961 0.0
O1986 O 0.60724 0.32191 0.15107 0.0
O1987 O 0.59872 0.31887 0.16091 0.0
H1988 H 0.62014 0.32468 0.16513 0.0
H1989 H 0.62427 0.33498 0.17492 0.0
H1990 H 0.63053 0.31614 0.19212 0.0
H1991 H 0.62632 0.30578 0.18222 0.0
H1992 H 0.61602 0.27457 0.1578 0.0
H1993 H 0.61273 0.28909 0.1583 0.0
H1994 H 0.60032 0.27179 0.13691 0.0
H1995 H 0.59715 0.28634 0.13741 0.0
H1996 H 0.58243 0.32789 0.13441 0.0
H1997 H 0.58293 0.34546 0.15395 0.0
H1998 H 0.59388 0.33793 0.16046 0.0
H1999 H 0.59335 0.3202 0.14116 0.0
C2000 C 0.93524 0.37269 0.42251 0.0
C2001 C 0.92702 0.37126 0.42075 0.0
C2002 C 0.92303 0.37742 0.4336 0.0
C2003 C 0.92098 0.37362 0.42621 0.0
C2004 C 0.93128 0.37901 0.43526 0.0
C2005 C 0.93734 0.37666 0.42975 0.0
U2006 U 0.94043 0.35815 0.40589 0.0
O2007 O 0.94818 0.35903 0.39502 0.0
O2008 O 0.9506 0.34965 0.4042 0.0
C2009 C 0.95313 0.35328 0.39754 0.0
C2010 C 0.94155 0.3694 0.4171 0.0
C2011 C 0.96181 0.35534 0.39739 0.0
C2012 C 0.97336 0.36283 0.40272 0.0
C2013 C 0.96505 0.36105 0.40283 0.0
C2014 C 0.97525 0.35326 0.39168 0.0
C2015 C 0.97857 0.35894 0.39715 0.0
C2016 C 0.96695 0.35148 0.39181 0.0
C2017 C 0.92205 0.3454 0.39866 0.0
C2018 C 0.92248 0.33375 0.38958 0.0
C2019 C 0.90961 0.33837 0.39508 0.0
C2020 C 0.9136 0.34458 0.39922 0.0
C2021 C 0.91399 0.33282 0.39024 0.0
C2022 C 0.92648 0.34 0.39376 0.0
C2023 C 0.92603 0.35169 0.40356 0.0
O2024 O 0.94334 0.36173 0.41844 0.0
O2025 O 0.94059 0.37107 0.40934 0.0
O2026 O 0.92859 0.35816 0.39965 0.0
O2027 O 0.93119 0.34906 0.40906 0.0
H2028 H 0.92529 0.3681 0.41524 0.0
H2029 H 0.91473 0.37214 0.4248 0.0
H2030 H 0.93305 0.38196 0.44087 0.0
H2031 H 0.94367 0.37776 0.43123 0.0
H2032 H 0.9757 0.3673 0.40695 0.0
H2033 H 0.96114 0.3641 0.40718 0.0
H2034 H 0.9791 0.35007 0.38739 0.0
H2035 H 0.96454 0.34703 0.38758 0.0
H2036 H 0.92602 0.32962 0.38587 0.0
H2037 H 0.9031 0.33775 0.39588 0.0
H2038 H 0.9101 0.34867 0.40302 0.0
H2039 H 0.93303 0.34056 0.39328 0.0
C2040 C 0.87704 0.68524 0.67218 0.0
C2041 C 0.87879 0.67703 0.67069 0.0
C2042 C 0.8717 0.6731 0.68306 0.0
C2043 C 0.87614 0.67103 0.67605 0.0
C2044 C 0.86981 0.68134 0.68446 0.0
C2045 C 0.87247 0.68736 0.67905 0.0
U2046 U 0.89247 0.69026 0.65635 0.0
O2047 O 0.89222 0.69793 0.64539 0.0
O2048 O 0.9011 0.70037 0.65506 0.0
C2049 C 0.89784 0.70287 0.6482 0.0
C2050 C 0.88061 0.69151 0.66691 0.0
C2051 C 0.89581 0.71156 0.64792 0.0
C2052 C 0.88825 0.72317 0.65302 0.0
C2053 C 0.88997 0.71485 0.6532 0.0
C2054 C 0.89813 0.72497 0.64223 0.0
C2055 C 0.89233 0.72834 0.64755 0.0
C2056 C 0.89985 0.71665 0.64243 0.0
C2057 C 0.90557 0.6717 0.65014 0.0
C2058 C 0.91558 0.67098 0.63929 0.0
C2059 C 0.91439 0.65996 0.64899 0.0
C2060 C 0.90815 0.6641 0.65295 0.0
C2061 C 0.91817 0.66331 0.64209 0.0
C2062 C 0.90932 0.67516 0.6433 0.0
C2063 C 0.89902 0.67582 0.65458 0.0
O2064 O 0.8882 0.69331 0.66865 0.0
O2065 O 0.87937 0.69047 0.65908 0.0
O2066 O 0.8928 0.67836 0.65025 0.0
O2067 O 0.90134 0.68102 0.66016 0.0
H2068 H 0.88242 0.67528 0.66548 0.0
H2069 H 0.87787 0.66479 0.67487 0.0
H2070 H 0.86637 0.68313 0.68978 0.0
H2071 H 0.87112 0.69368 0.68032 0.0
H2072 H 0.88369 0.72556 0.65712 0.0
H2073 H 0.88678 0.71098 0.65747 0.0
H2074 H 0.90146 0.72879 0.63802 0.0
H2075 H 0.9044 0.7142 0.63834 0.0
H2076 H 0.91835 0.67372 0.63398 0.0
H2077 H 0.91634 0.65417 0.65144 0.0
H2078 H 0.90536 0.66138 0.65826 0.0
H2079 H 0.9074 0.68105 0.64107 0.0
C2080 C 0.56621 0.37268 0.57764 0.0
C2081 C 0.57444 0.37157 0.57957 0.0
C2082 C 0.57842 0.37702 0.56641 0.0
C2083 C 0.58048 0.37374 0.57403 0.0
C2084 C 0.57016 0.37832 0.56457 0.0
C2085 C 0.5641 0.37616 0.57015 0.0
U2086 U 0.56094 0.35862 0.59469 0.0
O2087 O 0.55306 0.35987 0.60545 0.0
O2088 O 0.5508 0.35014 0.59658 0.0
C2089 C 0.54817 0.35402 0.60306 0.0
C2090 C 0.5599 0.36952 0.58313 0.0
C2091 C 0.53946 0.356 0.60311 0.0
C2092 C 0.52724 0.3607 0.59627 0.0
C2093 C 0.53559 0.35907 0.59616 0.0
C2094 C 0.5266 0.3564 0.61034 0.0
C2095 C 0.52263 0.35934 0.60336 0.0
C2096 C 0.53493 0.35473 0.61021 0.0
C2097 C 0.57906 0.34601 0.60261 0.0
C2098 C 0.57821 0.33409 0.61129 0.0
C2099 C 0.59136 0.33932 0.60718 0.0
C2100 C 0.58755 0.34553 0.60285 0.0
C2101 C 0.58675 0.33346 0.61138 0.0
C2102 C 0.57439 0.34033 0.60693 0.0
C2103 C 0.5753 0.35221 0.59741 0.0
O2104 O 0.55814 0.36181 0.58201 0.0
O2105 O 0.56081 0.37143 0.59084 0.0
O2106 O 0.57271 0.35882 0.60108 0.0
O2107 O 0.57023 0.34947 0.59188 0.0
H2108 H 0.57619 0.36878 0.58528 0.0
H2109 H 0.58676 0.37251 0.57559 0.0
H2110 H 0.56838 0.38087 0.55877 0.0
H2111 H 0.55777 0.377 0.56854 0.0
H2112 H 0.52438 0.36288 0.59075 0.0
H2113 H 0.539 0.36012 0.59062 0.0
H2114 H 0.52329 0.35542 0.61595 0.0
H2115 H 0.53784 0.35241 0.61564 0.0
H2116 H 0.57449 0.32972 0.61451 0.0
H2117 H 0.59793 0.33894 0.60697 0.0
H2118 H 0.59123 0.34984 0.5995 0.0
H2119 H 0.56781 0.34064 0.60681 0.0
C2120 C 0.87771 0.31419 0.82723 0.0
C2121 C 0.8782 0.32246 0.82928 0.0
C2122 C 0.8729 0.32623 0.81599 0.0
C2123 C 0.87578 0.32841 0.82374 0.0
C2124 C 0.8722 0.31793 0.81403 0.0
C2125 C 0.87459 0.31195 0.81962 0.0
U2126 U 0.89344 0.30945 0.84287 0.0
O2127 O 0.89333 0.30215 0.85409 0.0
O2128 O 0.90195 0.29926 0.84431 0.0
C2129 C 0.89878 0.29701 0.8513 0.0
C2130 C 0.88133 0.30804 0.83263 0.0
C2131 C 0.89657 0.28838 0.85185 0.0
C2132 C 0.88928 0.27664 0.84666 0.0
C2133 C 0.89113 0.28493 0.84626 0.0
C2134 C 0.89816 0.27523 0.85834 0.0
C2135 C 0.89281 0.27168 0.85268 0.0
C2136 C 0.90003 0.28351 0.85791 0.0
C2137 C 0.90699 0.32809 0.84794 0.0
C2138 C 0.91645 0.33 0.85914 0.0
C2139 C 0.91651 0.33934 0.84773 0.0
C2140 C 0.91025 0.33495 0.8441 0.0
C2141 C 0.91965 0.33698 0.85533 0.0
C2142 C 0.91015 0.32558 0.85546 0.0
C2143 C 0.90026 0.32383 0.84391 0.0
O2144 O 0.88884 0.30605 0.83077 0.0
O2145 O 0.88028 0.3093 0.84046 0.0
O2146 O 0.89413 0.32155 0.84851 0.0
O2147 O 0.90236 0.31838 0.83847 0.0
H2148 H 0.88074 0.32434 0.83506 0.0
H2149 H 0.87656 0.33473 0.8254 0.0
H2150 H 0.86997 0.31606 0.80812 0.0
H2151 H 0.87425 0.3056 0.8179 0.0
H2152 H 0.88506 0.27412 0.84228 0.0
H2153 H 0.88837 0.28863 0.84156 0.0
H2154 H 0.90105 0.27156 0.86298 0.0
H2155 H 0.90425 0.28609 0.86226 0.0
H2156 H 0.91873 0.32805 0.865 0.0
H2157 H 0.91894 0.34456 0.84454 0.0
H2158 H 0.90792 0.33693 0.83826 0.0
H2159 H 0.90772 0.32027 0.8585 0.0
C2160 C 0.93587 0.62787 0.07813 0.0
C2161 C 0.92765 0.62945 0.07977 0.0
C2162 C 0.9237 0.62281 0.06715 0.0
C2163 C 0.92163 0.62694 0.07436 0.0
C2164 C 0.93194 0.62112 0.06559 0.0
C2165 C 0.93799 0.62364 0.07105 0.0
U2166 U 0.94088 0.64259 0.09463 0.0
O2167 O 0.94847 0.64179 0.10562 0.0
O2168 O 0.95103 0.65109 0.09639 0.0
C2169 C 0.95347 0.6475 0.10311 0.0
C2170 C 0.94214 0.63122 0.08355 0.0
C2171 C 0.96214 0.64539 0.10337 0.0
C2172 C 0.97385 0.63835 0.09778 0.0
C2173 C 0.96554 0.64016 0.09756 0.0
C2174 C 0.97539 0.6469 0.10968 0.0
C2175 C 0.97887 0.64172 0.10383 0.0
C2176 C 0.96709 0.64872 0.10944 0.0
C2177 C 0.92234 0.65539 0.10144 0.0
C2178 C 0.92242 0.66646 0.11122 0.0
C2179 C 0.91 0.66297 0.1041 0.0
C2180 C 0.91407 0.65677 0.10002 0.0
C2181 C 0.91411 0.66793 0.10974 0.0
C2182 C 0.92651 0.66022 0.10709 0.0
C2183 C 0.92643 0.64906 0.09667 0.0
O2184 O 0.94394 0.63888 0.08214 0.0
O2185 O 0.94111 0.62963 0.09131 0.0
O2186 O 0.92895 0.64263 0.1007 0.0
O2187 O 0.93168 0.65165 0.09124 0.0
H2188 H 0.9259 0.63282 0.08515 0.0
H2189 H 0.91538 0.62851 0.07568 0.0
H2190 H 0.93373 0.61794 0.06011 0.0
H2191 H 0.94431 0.62243 0.06966 0.0
H2192 H 0.97633 0.63427 0.09325 0.0
H2193 H 0.96178 0.63751 0.09285 0.0
H2194 H 0.9791 0.64968 0.11436 0.0
H2195 H 0.96455 0.65279 0.11396 0.0
H2196 H 0.92576 0.67013 0.11555 0.0
H2197 H 0.90366 0.66403 0.10265 0.0
H2198 H 0.91078 0.65312 0.09562 0.0
H2199 H 0.93292 0.65922 0.10823 0.0
C2200 C 0.62299 0.68496 0.3279 0.0
C2201 C 0.62097 0.6768 0.32929 0.0
C2202 C 0.62838 0.67274 0.31714 0.0
C2203 C 0.62366 0.67075 0.32399 0.0
C2204 C 0.63051 0.68093 0.31583 0.0
C2205 C 0.62783 0.68699 0.32118 0.0
U2206 U 0.60686 0.6909 0.3428 0.0
O2207 O 0.60704 0.69839 0.3539 0.0
O2208 O 0.59904 0.70168 0.34373 0.0
C2209 C 0.60202 0.7038 0.35084 0.0
C2210 C 0.61948 0.69133 0.33309 0.0
C2211 C 0.60464 0.71231 0.35146 0.0
C2212 C 0.61257 0.72374 0.34651 0.0
C2213 C 0.61043 0.71552 0.34608 0.0
C2214 C 0.6033 0.72556 0.35782 0.0
C2215 C 0.60898 0.72887 0.35236 0.0
C2216 C 0.60115 0.71735 0.35737 0.0
C2217 C 0.59146 0.67383 0.34789 0.0
C2218 C 0.5839 0.66957 0.35989 0.0
C2219 C 0.57848 0.66692 0.34646 0.0
C2220 C 0.58527 0.67062 0.34298 0.0
C2221 C 0.57774 0.66629 0.35495 0.0
C2222 C 0.59069 0.67333 0.35639 0.0
C2223 C 0.5988 0.67717 0.34393 0.0
O2224 O 0.6122 0.69375 0.33087 0.0
O2225 O 0.62008 0.69003 0.34096 0.0
O2226 O 0.60503 0.67898 0.3486 0.0
O2227 O 0.59749 0.68257 0.33818 0.0
H2228 H 0.61712 0.67512 0.33437 0.0
H2229 H 0.62175 0.66454 0.32509 0.0
H2230 H 0.63416 0.68265 0.31063 0.0
H2231 H 0.62939 0.69328 0.31999 0.0
H2232 H 0.61704 0.72608 0.34228 0.0
H2233 H 0.61321 0.71169 0.3415 0.0
H2234 H 0.60036 0.72935 0.36233 0.0
H2235 H 0.59665 0.71496 0.36155 0.0
H2236 H 0.58346 0.66922 0.36645 0.0
H2237 H 0.57392 0.66432 0.34248 0.0
H2238 H 0.58576 0.67083 0.33641 0.0
H2239 H 0.59538 0.67574 0.36035 0.0
C2240 C 0.92609 0.56425 0.63183 0.0
C2241 C 0.92806 0.57053 0.63725 0.0
C2242 C 0.93774 0.57608 0.62756 0.0
C2243 C 0.93385 0.57635 0.63516 0.0
C2244 C 0.93571 0.56984 0.62208 0.0
C2245 C 0.92993 0.56393 0.62422 0.0
U2246 U 0.90752 0.55993 0.64411 0.0
O2247 O 0.89625 0.55314 0.64158 0.0
O2248 O 0.90397 0.54972 0.65192 0.0
C2249 C 0.89768 0.54782 0.64737 0.0
C2250 C 0.91976 0.55832 0.63405 0.0
C2251 C 0.89726 0.53924 0.64494 0.0
C2252 C 0.90353 0.52726 0.63902 0.0
C2253 C 0.90378 0.53555 0.64087 0.0
C2254 C 0.89015 0.52631 0.64512 0.0
C2255 C 0.89674 0.52252 0.6412 0.0
C2256 C 0.89042 0.5346 0.64699 0.0
C2257 C 0.90078 0.57851 0.65696 0.0
C2258 C 0.89035 0.57884 0.66742 0.0
C2259 C 0.89798 0.59102 0.66421 0.0
C2260 C 0.90232 0.58676 0.65831 0.0
C2261 C 0.89196 0.58713 0.66887 0.0
C2262 C 0.89474 0.57455 0.66149 0.0
C2263 C 0.90586 0.57421 0.65102 0.0
O2264 O 0.92 0.55585 0.64165 0.0
O2265 O 0.91239 0.56021 0.63162 0.0
O2266 O 0.90238 0.57229 0.64409 0.0
O2267 O 0.91052 0.56843 0.65396 0.0
H2268 H 0.92506 0.57099 0.64309 0.0
H2269 H 0.93515 0.58118 0.63944 0.0
H2270 H 0.93861 0.56949 0.61618 0.0
H2271 H 0.92842 0.55917 0.61992 0.0
H2272 H 0.90866 0.52454 0.63591 0.0
H2273 H 0.9091 0.53906 0.63921 0.0
H2274 H 0.88487 0.52281 0.64694 0.0
H2275 H 0.88534 0.53735 0.65016 0.0
H2276 H 0.88573 0.57566 0.67086 0.0
H2277 H 0.89953 0.59733 0.66526 0.0
H2278 H 0.90702 0.58989 0.6549 0.0
H2279 H 0.89349 0.56816 0.66051 0.0
C2280 C 0.68473 0.67327 0.87793 0.0
C2281 C 0.67657 0.67169 0.87981 0.0
C2282 C 0.67241 0.68408 0.87288 0.0
C2283 C 0.67047 0.67702 0.8773 0.0
C2284 C 0.6806 0.68559 0.87089 0.0
C2285 C 0.68672 0.68021 0.87341 0.0
U2286 U 0.6902 0.65666 0.89243 0.0
O2287 O 0.69806 0.6459 0.89143 0.0
O2288 O 0.70047 0.65506 0.90083 0.0
C2289 C 0.70301 0.64843 0.89718 0.0
C2290 C 0.69111 0.66794 0.88121 0.0
C2291 C 0.71169 0.64829 0.89511 0.0
C2292 C 0.72326 0.65363 0.88766 0.0
C2293 C 0.71496 0.65381 0.88949 0.0
C2294 C 0.72508 0.6424 0.89702 0.0
C2295 C 0.72842 0.64793 0.89142 0.0
C2296 C 0.71679 0.64259 0.89885 0.0
C2297 C 0.67223 0.64886 0.90531 0.0
C2298 C 0.67315 0.64089 0.91772 0.0
C2299 C 0.66 0.64368 0.91169 0.0
C2300 C 0.66378 0.64798 0.90543 0.0
C2301 C 0.66462 0.64017 0.91798 0.0
C2302 C 0.67693 0.6452 0.91142 0.0
C2303 C 0.67591 0.65399 0.899 0.0
O2304 O 0.69289 0.66928 0.88888 0.0
O2305 O 0.69024 0.66017 0.87952 0.0
O2306 O 0.67845 0.65023 0.89243 0.0
O2307 O 0.68096 0.65961 0.90159 0.0
H2308 H 0.67492 0.66641 0.88339 0.0
H2309 H 0.66427 0.67575 0.87909 0.0
H2310 H 0.68229 0.69095 0.86747 0.0
H2311 H 0.69301 0.68154 0.87195 0.0
H2312 H 0.72563 0.65791 0.88325 0.0
H2313 H 0.71108 0.65824 0.88653 0.0
H2314 H 0.7289 0.63801 0.90011 0.0
H2315 H 0.71435 0.63831 0.90323 0.0
H2316 H 0.67688 0.6382 0.92243 0.0
H2317 H 0.65342 0.64338 0.91176 0.0
H2318 H 0.66006 0.6508 0.90078 0.0
H2319 H 0.68349 0.6458 0.9114 0.0
C2320 C 0.57841 0.43507 0.12951 0.0
C2321 C 0.57982 0.42698 0.13179 0.0
C2322 C 0.56781 0.42262 0.12433 0.0
C2323 C 0.57459 0.42082 0.12922 0.0
C2324 C 0.56648 0.43073 0.12194 0.0
C2325 C 0.57175 0.43692 0.12452 0.0
U2326 U 0.59453 0.44116 0.14438 0.0
O2327 O 0.60522 0.44914 0.14343 0.0
O2328 O 0.59574 0.45173 0.15246 0.0
C2329 C 0.60245 0.45424 0.14893 0.0
C2330 C 0.58361 0.44156 0.13278 0.0
C2331 C 0.60258 0.46286 0.1466 0.0
C2332 C 0.5971 0.47425 0.13898 0.0
C2333 C 0.59695 0.46599 0.14102 0.0
C2334 C 0.60855 0.47627 0.14803 0.0
C2335 C 0.6029 0.47949 0.14247 0.0
C2336 C 0.60838 0.46803 0.15008 0.0
C2337 C 0.60227 0.42389 0.15821 0.0
C2338 C 0.60803 0.42476 0.17179 0.0
C2339 C 0.60919 0.41226 0.16408 0.0
C2340 C 0.60505 0.41586 0.15761 0.0
C2341 C 0.61061 0.41661 0.17131 0.0
C2342 C 0.60392 0.42838 0.16528 0.0
C2343 C 0.59724 0.4272 0.15159 0.0
O2344 O 0.582 0.44356 0.14034 0.0
O2345 O 0.59143 0.44067 0.13137 0.0
O2346 O 0.60114 0.42952 0.14501 0.0
O2347 O 0.5914 0.4322 0.15376 0.0
H2348 H 0.58488 0.42546 0.13572 0.0
H2349 H 0.57571 0.41468 0.13131 0.0
H2350 H 0.56134 0.43231 0.11814 0.0
H2351 H 0.57055 0.44314 0.12273 0.0
H2352 H 0.59273 0.47651 0.13461 0.0
H2353 H 0.59245 0.46205 0.13826 0.0
H2354 H 0.61301 0.48015 0.15092 0.0
H2355 H 0.61275 0.4657 0.15442 0.0
H2356 H 0.60911 0.42829 0.17724 0.0
H2357 H 0.61099 0.40595 0.16355 0.0
H2358 H 0.60381 0.41229 0.15221 0.0
H2359 H 0.60187 0.43461 0.16584 0.0
C2360 C 0.81537 0.32836 0.37817 0.0
C2361 C 0.82355 0.32989 0.37999 0.0
C2362 C 0.82759 0.31746 0.37305 0.0
C2363 C 0.8296 0.32452 0.37745 0.0
C2364 C 0.81937 0.31601 0.37111 0.0
C2365 C 0.81331 0.32143 0.37366 0.0
U2366 U 0.80999 0.34467 0.39303 0.0
O2367 O 0.80221 0.35553 0.39224 0.0
O2368 O 0.79968 0.34616 0.4014 0.0
C2369 C 0.79718 0.35288 0.39786 0.0
C2370 C 0.80904 0.3337 0.38152 0.0
C2371 C 0.78853 0.35306 0.39566 0.0
C2372 C 0.77694 0.34737 0.38851 0.0
C2373 C 0.78522 0.3472 0.39043 0.0
C2374 C 0.77524 0.35932 0.39696 0.0
C2375 C 0.77185 0.35343 0.39177 0.0
C2376 C 0.78351 0.35913 0.39889 0.0
C2377 C 0.82813 0.35179 0.40628 0.0
C2378 C 0.84041 0.35817 0.41143 0.0
C2379 C 0.82875 0.35652 0.42028 0.0
C2380 C 0.8244 0.35297 0.41387 0.0
C2381 C 0.83688 0.35895 0.41918 0.0
C2382 C 0.83608 0.3546 0.40506 0.0
C2383 C 0.82425 0.347 0.39979 0.0
O2384 O 0.80717 0.33219 0.38914 0.0
O2385 O 0.81003 0.34149 0.38004 0.0
O2386 O 0.8218 0.35102 0.39333 0.0
O2387 O 0.81913 0.34133 0.40214 0.0
H2388 H 0.82525 0.33516 0.38357 0.0
H2389 H 0.83582 0.32575 0.37921 0.0
H2390 H 0.81763 0.31066 0.3677 0.0
H2391 H 0.807 0.32014 0.37224 0.0
H2392 H 0.77453 0.3428 0.38442 0.0
H2393 H 0.78904 0.34249 0.38785 0.0
H2394 H 0.77147 0.364 0.39965 0.0
H2395 H 0.78598 0.36369 0.40295 0.0
H2396 H 0.8466 0.36011 0.41035 0.0
H2397 H 0.82587 0.357 0.42618 0.0
H2398 H 0.81826 0.35086 0.41495 0.0
H2399 H 0.83905 0.35378 0.39924 0.0
C2400 C 0.92265 0.43648 0.87171 0.0
C2401 C 0.91963 0.43007 0.8765 0.0
C2402 C 0.93311 0.42397 0.87718 0.0
C2403 C 0.9248 0.4239 0.87922 0.0
C2404 C 0.93619 0.43059 0.87273 0.0
C2405 C 0.93102 0.43679 0.87006 0.0
U2406 U 0.90625 0.44164 0.85637 0.0
O2407 O 0.89548 0.44955 0.85701 0.0
O2408 O 0.90498 0.45194 0.84794 0.0
C2409 C 0.89825 0.45451 0.85139 0.0
C2410 C 0.91714 0.44256 0.86798 0.0
C2411 C 0.89813 0.46318 0.85352 0.0
C2412 C 0.90322 0.47458 0.86139 0.0
C2413 C 0.90335 0.46629 0.85949 0.0
C2414 C 0.89263 0.47669 0.85136 0.0
C2415 C 0.89787 0.47989 0.85732 0.0
C2416 C 0.89276 0.46841 0.84948 0.0
C2417 C 0.89873 0.42399 0.84298 0.0
C2418 C 0.89279 0.42477 0.82946 0.0
C2419 C 0.89214 0.41218 0.83708 0.0
C2420 C 0.89623 0.41587 0.84354 0.0
C2421 C 0.8905 0.41654 0.82991 0.0
C2422 C 0.89684 0.42848 0.83596 0.0
C2423 C 0.9037 0.42745 0.84956 0.0
O2424 O 0.91872 0.44435 0.86035 0.0
O2425 O 0.90931 0.44167 0.8694 0.0
O2426 O 0.89975 0.42992 0.85605 0.0
O2427 O 0.90953 0.43243 0.84731 0.0
H2428 H 0.91322 0.42968 0.87798 0.0
H2429 H 0.92225 0.41899 0.88278 0.0
H2430 H 0.94253 0.43082 0.87097 0.0
H2431 H 0.93353 0.44168 0.86644 0.0
H2432 H 0.9074 0.47686 0.86593 0.0
H2433 H 0.90755 0.46232 0.86265 0.0
H2434 H 0.88835 0.48058 0.8482 0.0
H2435 H 0.88867 0.46609 0.84487 0.0
H2436 H 0.89153 0.42831 0.82405 0.0
H2437 H 0.89056 0.40581 0.83759 0.0
H2438 H 0.89765 0.41231 0.8489 0.0
H2439 H 0.89867 0.43479 0.83543 0.0
C2440 C 0.81596 0.67336 0.12291 0.0
C2441 C 0.82412 0.67173 0.12107 0.0
C2442 C 0.82831 0.68417 0.12791 0.0
C2443 C 0.83023 0.67706 0.12355 0.0
C2444 C 0.82011 0.68573 0.12985 0.0
C2445 C 0.81398 0.68035 0.12737 0.0
U2446 U 0.81052 0.65671 0.10848 0.0
O2447 O 0.80275 0.64588 0.10952 0.0
O2448 O 0.80023 0.65501 0.10012 0.0
C2449 C 0.79776 0.64836 0.1038 0.0
C2450 C 0.80957 0.66801 0.11968 0.0
C2451 C 0.78909 0.64814 0.1059 0.0
C2452 C 0.77751 0.65336 0.11342 0.0
C2453 C 0.78581 0.6536 0.11156 0.0
C2454 C 0.77573 0.64217 0.104 0.0
C2455 C 0.77237 0.64764 0.10965 0.0
C2456 C 0.78402 0.64243 0.10214 0.0
C2457 C 0.82862 0.64909 0.09562 0.0
C2458 C 0.82785 0.64065 0.08352 0.0
C2459 C 0.84097 0.64446 0.08904 0.0
C2460 C 0.83711 0.64874 0.09526 0.0
C2461 C 0.8364 0.64043 0.08303 0.0
C2462 C 0.82398 0.64495 0.08978 0.0
C2463 C 0.82483 0.65417 0.1019 0.0
O2464 O 0.80776 0.66932 0.11201 0.0
O2465 O 0.81048 0.66025 0.12139 0.0
O2466 O 0.82232 0.65039 0.10847 0.0
O2467 O 0.81971 0.65971 0.09928 0.0
H2468 H 0.82576 0.66641 0.11754 0.0
H2469 H 0.83644 0.67575 0.12179 0.0
H2470 H 0.81844 0.69112 0.13322 0.0
H2471 H 0.8077 0.68172 0.12879 0.0
H2472 H 0.77513 0.65759 0.11787 0.0
H2473 H 0.78966 0.65804 0.11454 0.0
H2474 H 0.77193 0.63778 0.1009 0.0
H2475 H 0.78646 0.63819 0.09773 0.0
H2476 H 0.82416 0.63756 0.07903 0.0
H2477 H 0.84754 0.64457 0.08878 0.0
H2478 H 0.84077 0.65195 0.0997 0.0
H2479 H 0.8174 0.64515 0.08999 0.0
C2480 C 0.57835 0.56583 0.37266 0.0
C2481 C 0.5803 0.57406 0.37155 0.0
C2482 C 0.56724 0.57807 0.37724 0.0
C2483 C 0.57482 0.58012 0.37385 0.0
C2484 C 0.5654 0.56981 0.37855 0.0
C2485 C 0.57092 0.56374 0.37627 0.0
U2486 U 0.59506 0.56057 0.35818 0.0
O2487 O 0.60575 0.55258 0.35902 0.0
O2488 O 0.5966 0.55052 0.34953 0.0
C2489 C 0.60319 0.54781 0.35314 0.0
C2490 C 0.58372 0.55951 0.36932 0.0
C2491 C 0.60323 0.53908 0.35496 0.0
C2492 C 0.59784 0.52739 0.36219 0.0
C2493 C 0.59781 0.53575 0.36064 0.0
C2494 C 0.60872 0.52563 0.35241 0.0
C2495 C 0.60328 0.52222 0.35806 0.0
C2496 C 0.60868 0.53398 0.35087 0.0
C2497 C 0.60292 0.57871 0.34562 0.0
C2498 C 0.61139 0.57779 0.33355 0.0
C2499 C 0.60754 0.59097 0.3389 0.0
C2500 C 0.60326 0.58719 0.34516 0.0
C2501 C 0.61159 0.58633 0.33295 0.0
C2502 C 0.60709 0.574 0.33985 0.0
C2503 C 0.5978 0.57498 0.35189 0.0
O2504 O 0.58242 0.55785 0.36162 0.0
O2505 O 0.59148 0.56033 0.37108 0.0
O2506 O 0.60158 0.57227 0.35839 0.0
O2507 O 0.59214 0.57001 0.34922 0.0
H2508 H 0.58596 0.57579 0.36866 0.0
H2509 H 0.57638 0.58639 0.3726 0.0
H2510 H 0.55964 0.56805 0.3812 0.0
H2511 H 0.56929 0.55741 0.37711 0.0
H2512 H 0.59351 0.52496 0.36651 0.0
H2513 H 0.59354 0.53962 0.36383 0.0
H2514 H 0.61306 0.52184 0.34921 0.0
H2515 H 0.61292 0.53646 0.34648 0.0
H2516 H 0.6145 0.57405 0.32911 0.0
H2517 H 0.60742 0.59755 0.33855 0.0
H2518 H 0.60003 0.5909 0.34954 0.0
H2519 H 0.60689 0.56743 0.34014 0.0
C2520 C 0.68523 0.3287 0.62316 0.0
C2521 C 0.67707 0.33004 0.62111 0.0
C2522 C 0.67302 0.31801 0.6287 0.0
C2523 C 0.67103 0.32477 0.62387 0.0
C2524 C 0.68121 0.31675 0.63087 0.0
C2525 C 0.68727 0.32207 0.62811 0.0
U2526 U 0.69116 0.34328 0.60673 0.0
O2527 O 0.69865 0.35437 0.60667 0.0
O2528 O 0.70195 0.34403 0.59891 0.0
C2529 C 0.70408 0.35119 0.60174 0.0
C2530 C 0.6916 0.33383 0.61955 0.0
C2531 C 0.71257 0.35185 0.6044 0.0
C2532 C 0.72376 0.34738 0.61292 0.0
C2533 C 0.71557 0.34693 0.61069 0.0
C2534 C 0.72598 0.35775 0.60269 0.0
C2535 C 0.72908 0.35277 0.60892 0.0
C2536 C 0.7178 0.35728 0.60045 0.0
C2537 C 0.67409 0.34807 0.59124 0.0
C2538 C 0.66984 0.35992 0.58344 0.0
C2539 C 0.66717 0.34639 0.57829 0.0
C2540 C 0.67087 0.34304 0.58515 0.0
C2541 C 0.66655 0.35486 0.57739 0.0
C2542 C 0.6736 0.35655 0.59031 0.0
C2543 C 0.67743 0.34425 0.59865 0.0
O2544 O 0.69402 0.33146 0.61231 0.0
O2545 O 0.69029 0.34171 0.61999 0.0
O2546 O 0.67924 0.34904 0.60479 0.0
O2547 O 0.68283 0.33847 0.59746 0.0
H2548 H 0.67538 0.33506 0.61718 0.0
H2549 H 0.66482 0.32583 0.62194 0.0
H2550 H 0.68294 0.31161 0.6346 0.0
H2551 H 0.69356 0.32091 0.62969 0.0
H2552 H 0.72593 0.34353 0.6178 0.0
H2553 H 0.71159 0.34271 0.61381 0.0
H2554 H 0.72992 0.36189 0.59942 0.0
H2555 H 0.71557 0.3611 0.59556 0.0
H2556 H 0.6695 0.36647 0.58289 0.0
H2557 H 0.66457 0.34232 0.57382 0.0
H2558 H 0.67108 0.33648 0.58577 0.0
H2559 H 0.67602 0.36059 0.59491 0.0
C2560 C 0.62813 0.92244 0.56562 0.0
C2561 C 0.63022 0.92111 0.57378 0.0
C2562 C 0.62268 0.93319 0.57783 0.0
C2563 C 0.6275 0.92641 0.57982 0.0
C2564 C 0.6205 0.93443 0.56965 0.0
C2565 C 0.6232 0.92909 0.56359 0.0
U2566 U 0.64427 0.90753 0.55978 0.0
O2567 O 0.64415 0.89645 0.55225 0.0
O2568 O 0.6522 0.90662 0.54908 0.0
C2569 C 0.64921 0.89954 0.54689 0.0
C2570 C 0.63166 0.91725 0.55926 0.0
C2571 C 0.64664 0.89897 0.53835 0.0
C2572 C 0.63948 0.90449 0.52668 0.0
C2573 C 0.64153 0.90488 0.53492 0.0
C2574 C 0.64741 0.89215 0.52529 0.0
C2575 C 0.64245 0.89815 0.52175 0.0
C2576 C 0.6495 0.89258 0.53352 0.0
C2577 C 0.6595 0.90255 0.57703 0.0
C2578 C 0.66777 0.89068 0.58015 0.0
C2579 C 0.67181 0.90397 0.58504 0.0
C2580 C 0.665 0.90741 0.58135 0.0
C2581 C 0.67327 0.89557 0.58453 0.0
C2582 C 0.66095 0.89415 0.5764 0.0
C2583 C 0.65219 0.90644 0.57358 0.0
O2584 O 0.63895 0.91946 0.55688 0.0
O2585 O 0.63104 0.90938 0.56055 0.0
O2586 O 0.64603 0.90171 0.5717 0.0
O2587 O 0.65354 0.91219 0.5682 0.0
H2588 H 0.63413 0.91608 0.57546 0.0
H2589 H 0.62945 0.92535 0.58602 0.0
H2590 H 0.61677 0.93958 0.56793 0.0
H2591 H 0.62159 0.93024 0.55731 0.0
H2592 H 0.63556 0.90914 0.52415 0.0
H2593 H 0.63922 0.90984 0.53858 0.0
H2594 H 0.64986 0.88724 0.52164 0.0
H2595 H 0.65345 0.88797 0.53608 0.0
H2596 H 0.66876 0.8842 0.57961 0.0
H2597 H 0.67584 0.90789 0.58848 0.0
H2598 H 0.66397 0.91389 0.58197 0.0
H2599 H 0.6568 0.89026 0.57309 0.0
C2600 C 0.12786 0.57787 0.43595 0.0
C2601 C 0.12955 0.57934 0.42773 0.0
C2602 C 0.12266 0.56682 0.42389 0.0
C2603 C 0.12697 0.5739 0.42177 0.0
C2604 C 0.12084 0.56543 0.43215 0.0
C2605 C 0.12342 0.57093 0.43813 0.0
U2606 U 0.1434 0.59358 0.44088 0.0
O2607 O 0.14313 0.60477 0.44823 0.0
O2608 O 0.15183 0.59506 0.45113 0.0
C2609 C 0.14858 0.60201 0.45339 0.0
C2610 C 0.13136 0.58324 0.44218 0.0
C2611 C 0.14631 0.6025 0.46201 0.0
C2612 C 0.13892 0.59726 0.47367 0.0
C2613 C 0.14084 0.5969 0.4654 0.0
C2614 C 0.14781 0.60891 0.47522 0.0
C2615 C 0.14243 0.60324 0.47869 0.0
C2616 C 0.14974 0.60853 0.46695 0.0
C2617 C 0.15695 0.59887 0.42227 0.0
C2618 C 0.16649 0.61002 0.42051 0.0
C2619 C 0.1663 0.59887 0.41088 0.0
C2620 C 0.16006 0.59518 0.41526 0.0
C2621 C 0.16955 0.60637 0.41339 0.0
C2622 C 0.16021 0.60629 0.42492 0.0
C2623 C 0.15026 0.59477 0.42653 0.0
O2624 O 0.13887 0.58143 0.4442 0.0
O2625 O 0.13026 0.59106 0.44092 0.0
O2626 O 0.14409 0.59931 0.42882 0.0
O2627 O 0.1524 0.58933 0.43197 0.0
H2628 H 0.13309 0.5846 0.42593 0.0
H2629 H 0.12865 0.57508 0.41551 0.0
H2630 H 0.11751 0.56006 0.43398 0.0
H2631 H 0.12212 0.56966 0.44446 0.0
H2632 H 0.13468 0.59287 0.47614 0.0
H2633 H 0.1381 0.59223 0.46165 0.0
H2634 H 0.15068 0.61353 0.47893 0.0
H2635 H 0.15399 0.61289 0.46442 0.0
H2636 H 0.16886 0.6158 0.42259 0.0
H2637 H 0.16863 0.59578 0.40556 0.0
H2638 H 0.15765 0.58942 0.41316 0.0
H2639 H 0.15789 0.60921 0.43035 0.0
C2640 C 0.67537 0.88259 0.68663 0.0
C2641 C 0.67741 0.88823 0.68056 0.0
C2642 C 0.68699 0.87865 0.67466 0.0
C2643 C 0.68319 0.88629 0.67467 0.0
C2644 C 0.68487 0.87295 0.68068 0.0
C2645 C 0.67911 0.87493 0.68665 0.0
U2646 U 0.65663 0.89451 0.69141 0.0
O2647 O 0.64553 0.8917 0.69835 0.0
O2648 O 0.65313 0.90211 0.7018 0.0
C2649 C 0.64692 0.89746 0.70371 0.0
C2650 C 0.66907 0.88465 0.69266 0.0
C2651 C 0.64659 0.89497 0.71227 0.0
C2652 C 0.65295 0.88896 0.72416 0.0
C2653 C 0.65314 0.89087 0.71588 0.0
C2654 C 0.63957 0.89505 0.72526 0.0
C2655 C 0.64619 0.89109 0.72896 0.0
C2656 C 0.63979 0.89698 0.71698 0.0
C2657 C 0.64909 0.90753 0.67335 0.0
C2658 C 0.63997 0.91915 0.67382 0.0
C2659 C 0.64444 0.91379 0.66085 0.0
C2660 C 0.64894 0.90783 0.66485 0.0
C2661 C 0.63997 0.91959 0.66527 0.0
C2662 C 0.64449 0.91315 0.67784 0.0
C2663 C 0.65448 0.90162 0.67729 0.0
O2664 O 0.66922 0.89222 0.69523 0.0
O2665 O 0.66171 0.88211 0.69086 0.0
O2666 O 0.65124 0.89456 0.67915 0.0
O2667 O 0.65928 0.90451 0.68299 0.0
H2668 H 0.67448 0.89412 0.68032 0.0
H2669 H 0.68457 0.89075 0.67002 0.0
H2670 H 0.68771 0.86701 0.6808 0.0
H2671 H 0.67755 0.87047 0.69124 0.0
H2672 H 0.6581 0.88582 0.72681 0.0
H2673 H 0.65843 0.88925 0.71231 0.0
H2674 H 0.63432 0.89685 0.7288 0.0
H2675 H 0.63469 0.90017 0.71429 0.0
H2676 H 0.63654 0.92348 0.6774 0.0
H2677 H 0.64472 0.91402 0.65427 0.0
H2678 H 0.65249 0.90356 0.6613 0.0
H2679 H 0.64453 0.91299 0.68443 0.0
C2680 C 0.37383 0.42226 0.93381 0.0
C2681 C 0.37177 0.42073 0.92568 0.0
C2682 C 0.37866 0.43312 0.92145 0.0
C2683 C 0.37419 0.42609 0.91956 0.0
C2684 C 0.38088 0.43454 0.9296 0.0
C2685 C 0.37848 0.42913 0.93573 0.0
U2686 U 0.35785 0.40737 0.94011 0.0
O2687 O 0.35811 0.39633 0.94769 0.0
O2688 O 0.35014 0.40652 0.95097 0.0
C2689 C 0.35312 0.39942 0.95311 0.0
C2690 C 0.37047 0.41708 0.94029 0.0
C2691 C 0.35574 0.3988 0.96163 0.0
C2692 C 0.3633 0.40399 0.9732 0.0
C2693 C 0.36123 0.4044 0.96496 0.0
C2694 C 0.35455 0.39223 0.97479 0.0
C2695 C 0.35992 0.39793 0.97823 0.0
C2696 C 0.35247 0.39268 0.96656 0.0
C2697 C 0.34225 0.40227 0.92324 0.0
C2698 C 0.33432 0.39029 0.91966 0.0
C2699 C 0.32946 0.40369 0.91598 0.0
C2700 C 0.33631 0.40717 0.91957 0.0
C2701 C 0.32841 0.39521 0.91591 0.0
C2702 C 0.34118 0.39379 0.92331 0.0
C2703 C 0.34963 0.40621 0.92649 0.0
O2704 O 0.36324 0.4193 0.94284 0.0
O2705 O 0.37106 0.4092 0.93902 0.0
O2706 O 0.35585 0.40151 0.92825 0.0
O2707 O 0.34839 0.41198 0.93187 0.0
H2708 H 0.36807 0.41552 0.92408 0.0
H2709 H 0.37223 0.42489 0.91339 0.0
H2710 H 0.38436 0.43988 0.93124 0.0
H2711 H 0.38007 0.43044 0.94199 0.0
H2712 H 0.36753 0.4084 0.97565 0.0
H2713 H 0.36384 0.40916 0.96122 0.0
H2714 H 0.35177 0.38756 0.9785 0.0
H2715 H 0.3482 0.38832 0.96408 0.0
H2716 H 0.33365 0.38374 0.91975 0.0
H2717 H 0.3251 0.40765 0.91303 0.0
H2718 H 0.33704 0.41372 0.91937 0.0
H2719 H 0.34566 0.38986 0.9261 0.0
C2720 C 0.32831 0.62215 0.6856 0.0
C2721 C 0.32979 0.62019 0.67744 0.0
C2722 C 0.31743 0.6272 0.67334 0.0
C2723 C 0.32443 0.6227 0.67137 0.0
C2724 C 0.31603 0.62929 0.68153 0.0
C2725 C 0.32144 0.62677 0.68762 0.0
U2726 U 0.34487 0.60758 0.69097 0.0
O2727 O 0.35569 0.6085 0.69877 0.0
O2728 O 0.3465 0.59914 0.7012 0.0
C2729 C 0.35316 0.60277 0.70372 0.0
C2730 C 0.33366 0.61886 0.69195 0.0
C2731 C 0.35333 0.60483 0.7124 0.0
C2732 C 0.34802 0.61227 0.72399 0.0
C2733 C 0.34785 0.61048 0.71568 0.0
C2734 C 0.35918 0.60283 0.7258 0.0
C2735 C 0.35368 0.60845 0.72916 0.0
C2736 C 0.359 0.60103 0.71749 0.0
C2737 C 0.35238 0.59473 0.67281 0.0
C2738 C 0.36092 0.58269 0.67356 0.0
C2739 C 0.35685 0.58806 0.66046 0.0
C2740 C 0.35259 0.59429 0.66433 0.0
C2741 C 0.36101 0.58214 0.66501 0.0
C2742 C 0.35664 0.58895 0.67744 0.0
C2743 C 0.34736 0.60103 0.67663 0.0
O2744 O 0.33229 0.61119 0.69375 0.0
O2745 O 0.34143 0.62051 0.69103 0.0
O2746 O 0.3512 0.60756 0.67917 0.0
O2747 O 0.3418 0.59843 0.68174 0.0
H2748 H 0.33502 0.61653 0.67578 0.0
H2749 H 0.32562 0.62083 0.66517 0.0
H2750 H 0.31072 0.63279 0.68324 0.0
H2751 H 0.32018 0.6283 0.6939 0.0
H2752 H 0.34377 0.6167 0.72637 0.0
H2753 H 0.34344 0.61348 0.71181 0.0
H2754 H 0.36354 0.5997 0.72961 0.0
H2755 H 0.36326 0.59663 0.71505 0.0
H2756 H 0.36411 0.57826 0.67724 0.0
H2757 H 0.35665 0.58775 0.65388 0.0
H2758 H 0.3493 0.59868 0.66067 0.0
H2759 H 0.35653 0.58922 0.68402 0.0
C2760 C 0.87329 0.07783 0.06607 0.0
C2761 C 0.87157 0.07933 0.07428 0.0
C2762 C 0.87877 0.06701 0.07819 0.0
C2763 C 0.87429 0.07399 0.08028 0.0
C2764 C 0.88061 0.0656 0.06995 0.0
C2765 C 0.87789 0.07099 0.06393 0.0
U2766 U 0.85733 0.09309 0.06091 0.0
O2767 O 0.85733 0.10421 0.05346 0.0
O2768 O 0.84893 0.09424 0.0506 0.0
C2769 C 0.85197 0.10127 0.04831 0.0
C2770 C 0.86966 0.08307 0.05979 0.0
C2771 C 0.85419 0.10182 0.03968 0.0
C2772 C 0.8615 0.09669 0.02792 0.0
C2773 C 0.85967 0.09629 0.03622 0.0
C2774 C 0.85249 0.10826 0.02651 0.0
C2775 C 0.85788 0.10265 0.02296 0.0
C2776 C 0.85065 0.10783 0.0348 0.0
C2777 C 0.8434 0.09824 0.07926 0.0
C2778 C 0.83433 0.10972 0.08147 0.0
C2779 C 0.83323 0.09769 0.08991 0.0
C2780 C 0.83957 0.09408 0.08562 0.0
C2781 C 0.83058 0.10559 0.08797 0.0
C2782 C 0.84071 0.10607 0.07714 0.0
C2783 C 0.85028 0.09426 0.07518 0.0
O2784 O 0.86221 0.08104 0.05775 0.0
O2785 O 0.87053 0.09093 0.061 0.0
O2786 O 0.85637 0.09891 0.07292 0.0
O2787 O 0.84837 0.08867 0.0698 0.0
H2788 H 0.86791 0.08451 0.07605 0.0
H2789 H 0.8726 0.07518 0.08653 0.0
H2790 H 0.88407 0.0603 0.06815 0.0
H2791 H 0.87921 0.06971 0.0576 0.0
H2792 H 0.86575 0.09235 0.02539 0.0
H2793 H 0.86249 0.09162 0.03992 0.0
H2794 H 0.84953 0.11287 0.02285 0.0
H2795 H 0.84639 0.11214 0.03739 0.0
H2796 H 0.83244 0.11581 0.07984 0.0
H2797 H 0.83036 0.09426 0.09475 0.0
H2798 H 0.84154 0.08802 0.08731 0.0
H2799 H 0.84358 0.10937 0.07222 0.0
C2800 C 0.67664 0.11867 0.81373 0.0
C2801 C 0.67795 0.11353 0.8204 0.0
C2802 C 0.6883 0.12269 0.82563 0.0
C2803 C 0.68373 0.1155 0.82626 0.0
C2804 C 0.68688 0.12794 0.81902 0.0
C2805 C 0.6811 0.12591 0.81308 0.0
U2806 U 0.65886 0.10559 0.80901 0.0
O2807 O 0.64737 0.1076 0.80244 0.0
O2808 O 0.6557 0.09792 0.79855 0.0
C2809 C 0.64908 0.10208 0.79691 0.0
C2810 C 0.67046 0.11642 0.80767 0.0
C2811 C 0.64834 0.10473 0.78842 0.0
C2812 C 0.65356 0.11218 0.77679 0.0
C2813 C 0.65401 0.11012 0.78503 0.0
C2814 C 0.64166 0.10363 0.77531 0.0
C2815 C 0.64742 0.1089 0.77182 0.0
C2816 C 0.64213 0.10155 0.78354 0.0
C2817 C 0.65335 0.09175 0.82736 0.0
C2818 C 0.64186 0.08257 0.82885 0.0
C2819 C 0.65252 0.0828 0.83903 0.0
C2820 C 0.65659 0.08879 0.83465 0.0
C2821 C 0.64507 0.07965 0.83624 0.0
C2822 C 0.64597 0.0886 0.82444 0.0
C2823 C 0.65788 0.0981 0.82306 0.0
O2824 O 0.67113 0.10895 0.80491 0.0
O2825 O 0.66296 0.11834 0.80966 0.0
O2826 O 0.65393 0.10485 0.82141 0.0
O2827 O 0.6626 0.09564 0.81711 0.0
H2828 H 0.67449 0.10798 0.82109 0.0
H2829 H 0.68455 0.11142 0.83137 0.0
H2830 H 0.69031 0.13352 0.8184 0.0
H2831 H 0.6801 0.12999 0.808 0.0
H2832 H 0.65802 0.11634 0.77432 0.0
H2833 H 0.65885 0.11263 0.78873 0.0
H2834 H 0.63691 0.10092 0.77163 0.0
H2835 H 0.63773 0.09735 0.78606 0.0
H2836 H 0.63613 0.08028 0.82655 0.0
H2837 H 0.65527 0.08057 0.84458 0.0
H2838 H 0.66231 0.09112 0.83695 0.0
H2839 H 0.64341 0.09082 0.8188 0.0
C2840 C 0.82805 0.87754 0.3168 0.0
C2841 C 0.82945 0.87994 0.32486 0.0
C2842 C 0.81744 0.87252 0.32932 0.0
C2843 C 0.82422 0.87745 0.33105 0.0
C2844 C 0.81614 0.87 0.32124 0.0
C2845 C 0.82141 0.87249 0.31503 0.0
U2846 U 0.84358 0.89287 0.31036 0.0
O2847 O 0.85433 0.89215 0.30242 0.0
O2848 O 0.84449 0.90072 0.29959 0.0
C2849 C 0.85136 0.89742 0.29719 0.0
C2850 C 0.83318 0.8808 0.31025 0.0
C2851 C 0.85165 0.89494 0.28862 0.0
C2852 C 0.84599 0.88767 0.27708 0.0
C2853 C 0.84575 0.88973 0.28533 0.0
C2854 C 0.85811 0.89589 0.27539 0.0
C2855 C 0.85216 0.89076 0.272 0.0
C2856 C 0.85784 0.89796 0.28362 0.0
C2857 C 0.85057 0.90769 0.32714 0.0
C2858 C 0.85391 0.92209 0.32694 0.0
C2859 C 0.85884 0.91357 0.33789 0.0
C2860 C 0.85504 0.90684 0.33435 0.0
C2861 C 0.85816 0.9213 0.33431 0.0
C2862 C 0.85018 0.91534 0.32336 0.0
C2863 C 0.84589 0.90067 0.32407 0.0
O2864 O 0.83127 0.88822 0.30798 0.0
O2865 O 0.84104 0.87976 0.31125 0.0
O2866 O 0.85011 0.89421 0.32199 0.0
O2867 O 0.83991 0.90231 0.31903 0.0
H2868 H 0.83448 0.88393 0.32632 0.0
H2869 H 0.82532 0.87966 0.33716 0.0
H2870 H 0.81101 0.86616 0.31972 0.0
H2871 H 0.82022 0.87062 0.30883 0.0
H2872 H 0.84138 0.88363 0.27467 0.0
H2873 H 0.84094 0.88731 0.28913 0.0
H2874 H 0.86287 0.89845 0.27163 0.0
H2875 H 0.86243 0.902 0.28607 0.0
H2876 H 0.85336 0.92796 0.324 0.0
H2877 H 0.862 0.91279 0.34361 0.0
H2878 H 0.8554 0.901 0.33739 0.0
H2879 H 0.84681 0.91617 0.31776 0.0
C2880 C 0.43509 0.36752 0.07538 0.0
C2881 C 0.42775 0.36962 0.07923 0.0
C2882 C 0.42247 0.37512 0.06655 0.0
C2883 C 0.42154 0.37342 0.07487 0.0
C2884 C 0.42981 0.37301 0.0627 0.0
C2885 C 0.43608 0.36928 0.06709 0.0
U2886 U 0.44101 0.35075 0.08982 0.0
O2887 O 0.45151 0.34242 0.09009 0.0
O2888 O 0.44906 0.35049 0.10045 0.0
C2889 C 0.45407 0.34522 0.09713 0.0
C2890 C 0.44153 0.36316 0.07985 0.0
C2891 C 0.46274 0.3473 0.09767 0.0
C2892 C 0.47367 0.35725 0.09748 0.0
C2893 C 0.46554 0.35519 0.09602 0.0
C2894 C 0.47634 0.34345 0.10189 0.0
C2895 C 0.47912 0.35145 0.10062 0.0
C2896 C 0.46823 0.34141 0.10044 0.0
C2897 C 0.4236 0.33753 0.09786 0.0
C2898 C 0.42506 0.32801 0.10905 0.0
C2899 C 0.41215 0.32925 0.10206 0.0
C2900 C 0.41549 0.33513 0.09693 0.0
C2901 C 0.41686 0.32567 0.10824 0.0
C2902 C 0.42841 0.33389 0.10389 0.0
C2903 C 0.42681 0.34407 0.09271 0.0
O2904 O 0.44138 0.36395 0.08781 0.0
O2905 O 0.44284 0.35564 0.07747 0.0
O2906 O 0.43158 0.34178 0.08672 0.0
O2907 O 0.42953 0.35048 0.09662 0.0
H2908 H 0.42675 0.36823 0.08558 0.0
H2909 H 0.41591 0.37485 0.07798 0.0
H2910 H 0.4307 0.37428 0.0563 0.0
H2911 H 0.44166 0.36767 0.06399 0.0
H2912 H 0.47559 0.36347 0.09649 0.0
H2913 H 0.46138 0.35982 0.09385 0.0
H2914 H 0.48041 0.33881 0.10417 0.0
H2915 H 0.46618 0.33528 0.10171 0.0
H2916 H 0.42887 0.32531 0.11369 0.0
H2917 H 0.40579 0.32769 0.10134 0.0
H2918 H 0.41169 0.33791 0.09232 0.0
H2919 H 0.4347 0.33568 0.10467 0.0
C2920 C 0.38561 0.68652 0.82224 0.0
C2921 C 0.38999 0.67951 0.82014 0.0
C2922 C 0.37829 0.67423 0.81279 0.0
C2923 C 0.38638 0.67344 0.81543 0.0
C2924 C 0.37396 0.68134 0.8148 0.0
C2925 C 0.3776 0.68744 0.81948 0.0
U2926 U 0.40073 0.69088 0.8387 0.0
O2927 O 0.40866 0.70136 0.84126 0.0
O2928 O 0.39969 0.69737 0.85031 0.0
C2929 C 0.40517 0.70283 0.8483 0.0
C2930 C 0.38917 0.69249 0.82787 0.0
C2931 C 0.4029 0.71131 0.84987 0.0
C2932 C 0.39372 0.72279 0.8483 0.0
C2933 C 0.39606 0.71487 0.8462 0.0
C2934 C 0.40514 0.72367 0.85758 0.0
C2935 C 0.39816 0.72722 0.85413 0.0
C2936 C 0.40747 0.7158 0.85547 0.0
C2937 C 0.41376 0.67286 0.84553 0.0
C2938 C 0.42321 0.67364 0.85685 0.0
C2939 C 0.42051 0.66068 0.85038 0.0
C2940 C 0.41518 0.66449 0.84497 0.0
C2941 C 0.4245 0.66519 0.85645 0.0
C2942 C 0.41785 0.67745 0.85144 0.0
C2943 C 0.40764 0.67657 0.8402 0.0
O2944 O 0.38772 0.69101 0.83558 0.0
O2945 O 0.39679 0.69446 0.82643 0.0
O2946 O 0.41029 0.68219 0.83517 0.0
O2947 O 0.4008 0.67855 0.84382 0.0
H2948 H 0.39614 0.67862 0.82232 0.0
H2949 H 0.38983 0.66799 0.81412 0.0
H2950 H 0.36773 0.68214 0.81282 0.0
H2951 H 0.37411 0.69278 0.82111 0.0
H2952 H 0.3883 0.72535 0.84557 0.0
H2953 H 0.39246 0.71147 0.84186 0.0
H2954 H 0.40876 0.72697 0.86198 0.0
H2955 H 0.41278 0.71314 0.85833 0.0
H2956 H 0.42615 0.67727 0.86149 0.0
H2957 H 0.42146 0.65419 0.84984 0.0
H2958 H 0.41206 0.66086 0.84044 0.0
H2959 H 0.41677 0.68392 0.85197 0.0
C2960 C 0.06578 0.63305 0.57496 0.0
C2961 C 0.07309 0.63092 0.57884 0.0
C2962 C 0.0784 0.6254 0.5662 0.0
C2963 C 0.0793 0.6271 0.57452 0.0
C2964 C 0.07108 0.62752 0.56231 0.0
C2965 C 0.06481 0.63129 0.56667 0.0
U2966 U 0.06006 0.64977 0.58951 0.0
O2967 O 0.04978 0.65838 0.58973 0.0
O2968 O 0.05188 0.65014 0.60003 0.0
C2969 C 0.04707 0.65559 0.59671 0.0
C2970 C 0.05937 0.6375 0.5794 0.0
C2971 C 0.03834 0.65374 0.59713 0.0
C2972 C 0.02714 0.64412 0.59654 0.0
C2973 C 0.03533 0.64599 0.59518 0.0
C2974 C 0.02483 0.65782 0.60143 0.0
C2975 C 0.02184 0.64996 0.59987 0.0
C2976 C 0.03301 0.65968 0.60008 0.0
C2977 C 0.07762 0.66251 0.59794 0.0
C2978 C 0.0764 0.67152 0.60957 0.0
C2979 C 0.08896 0.67106 0.60188 0.0
C2980 C 0.08558 0.66526 0.59669 0.0
C2981 C 0.08445 0.67421 0.60843 0.0
C2982 C 0.07301 0.66573 0.60435 0.0
C2983 C 0.07437 0.65608 0.59266 0.0
O2984 O 0.05939 0.63661 0.58734 0.0
O2985 O 0.05826 0.64507 0.57709 0.0
O2986 O 0.06976 0.65854 0.58662 0.0
O2987 O 0.07146 0.64969 0.59646 0.0
H2988 H 0.07407 0.63233 0.5852 0.0
H2989 H 0.08492 0.62566 0.57765 0.0
H2990 H 0.07022 0.62627 0.5559 0.0
H2991 H 0.05925 0.63292 0.56355 0.0
H2992 H 0.02505 0.63799 0.59533 0.0
H2993 H 0.03937 0.64133 0.59288 0.0
H2994 H 0.02089 0.6625 0.60386 0.0
H2995 H 0.03522 0.6657 0.60158 0.0
H2996 H 0.07274 0.67389 0.61451 0.0
H2997 H 0.09521 0.67291 0.6009 0.0
H2998 H 0.08923 0.66281 0.59178 0.0
H2999 H 0.06683 0.66368 0.60537 0.0
C3000 C 0.11824 0.31553 0.32658 0.0
C3001 C 0.12038 0.32287 0.33041 0.0
C3002 C 0.12573 0.32816 0.31768 0.0
C3003 C 0.12412 0.32909 0.32602 0.0
C3004 C 0.12361 0.32082 0.31384 0.0
C3005 C 0.11993 0.31454 0.31827 0.0
U3006 U 0.10155 0.30971 0.34113 0.0
O3007 O 0.09314 0.29928 0.34147 0.0
O3008 O 0.10129 0.30169 0.35177 0.0
C3009 C 0.09594 0.29673 0.34851 0.0
C3010 C 0.11389 0.30911 0.33109 0.0
C3011 C 0.09791 0.28804 0.34909 0.0
C3012 C 0.10763 0.27693 0.34837 0.0
C3013 C 0.10561 0.28507 0.34692 0.0
C3014 C 0.09414 0.2746 0.35384 0.0
C3015 C 0.10196 0.27165 0.35203 0.0
C3016 C 0.09215 0.28273 0.3524 0.0
C3017 C 0.08843 0.32719 0.34916 0.0
C3018 C 0.07924 0.32598 0.36067 0.0
C3019 C 0.07974 0.3385 0.35291 0.0
C3020 C 0.08565 0.33512 0.34783 0.0
C3021 C 0.07652 0.33401 0.35944 0.0
C3022 C 0.08514 0.3226 0.35555 0.0
C3023 C 0.09495 0.32395 0.344 0.0
O3024 O 0.11473 0.30926 0.33904 0.0
O3025 O 0.10635 0.30781 0.32876 0.0
O3026 O 0.09262 0.31919 0.33802 0.0
O3027 O 0.10136 0.32122 0.34789 0.0
H3028 H 0.11904 0.32388 0.33678 0.0
H3029 H 0.12556 0.33472 0.32911 0.0
H3030 H 0.12481 0.31993 0.30743 0.0
H3031 H 0.11829 0.30896 0.31519 0.0
H3032 H 0.11371 0.27486 0.34695 0.0
H3033 H 0.11014 0.28911 0.34435 0.0
H3034 H 0.0896 0.27066 0.35653 0.0
H3035 H 0.08617 0.28491 0.35408 0.0
H3036 H 0.07682 0.32234 0.36558 0.0
H3037 H 0.07787 0.34473 0.35186 0.0
H3038 H 0.08815 0.33876 0.34294 0.0
H3039 H 0.08721 0.31644 0.35664 0.0
C3040 C 0.43443 0.63295 0.42633 0.0
C3041 C 0.42702 0.63115 0.42248 0.0
C3042 C 0.42168 0.62546 0.43504 0.0
C3043 C 0.42074 0.6274 0.42678 0.0
C3044 C 0.42909 0.62728 0.4389 0.0
C3045 C 0.43543 0.63096 0.43456 0.0
U3046 U 0.44073 0.64954 0.41183 0.0
O3047 O 0.45133 0.65775 0.41169 0.0
O3048 O 0.44895 0.64965 0.40134 0.0
C3049 C 0.45399 0.65484 0.40473 0.0
C3050 C 0.44097 0.63722 0.42191 0.0
C3051 C 0.46265 0.65261 0.40439 0.0
C3052 C 0.47333 0.64241 0.4038 0.0
C3053 C 0.46518 0.64449 0.40513 0.0
C3054 C 0.47655 0.65659 0.40145 0.0
C3055 C 0.47907 0.64841 0.40174 0.0
C3056 C 0.46841 0.65865 0.40274 0.0
C3057 C 0.42351 0.66285 0.40342 0.0
C3058 C 0.42476 0.67172 0.39167 0.0
C3059 C 0.41233 0.67166 0.39958 0.0
C3060 C 0.41566 0.66583 0.40478 0.0
C3061 C 0.4168 0.67461 0.39291 0.0
C3062 C 0.4281 0.66589 0.3969 0.0
C3063 C 0.42664 0.65634 0.40866 0.0
O3064 O 0.44092 0.63636 0.41396 0.0
O3065 O 0.44231 0.64475 0.42425 0.0
O3066 O 0.43134 0.65865 0.4147 0.0
O3067 O 0.42936 0.64987 0.40485 0.0
H3068 H 0.42602 0.63274 0.41617 0.0
H3069 H 0.41505 0.6262 0.42367 0.0
H3070 H 0.42999 0.62582 0.44526 0.0
H3071 H 0.44108 0.63234 0.43766 0.0
H3072 H 0.47503 0.63606 0.40402 0.0
H3073 H 0.46083 0.63974 0.40645 0.0
H3074 H 0.48084 0.66138 0.40003 0.0
H3075 H 0.46657 0.66496 0.4022 0.0
H3076 H 0.42838 0.67393 0.38664 0.0
H3077 H 0.40615 0.67367 0.40065 0.0
H3078 H 0.41203 0.66353 0.40977 0.0
H3079 H 0.4342 0.66367 0.39579 0.0
C3080 C 0.11501 0.68533 0.17906 0.0
C3081 C 0.11024 0.67866 0.18144 0.0
C3082 C 0.12214 0.67205 0.18726 0.0
C3083 C 0.11375 0.67213 0.18555 0.0
C3084 C 0.12686 0.67883 0.18502 0.0
C3085 C 0.12332 0.68541 0.18095 0.0
U3086 U 0.09944 0.69144 0.16358 0.0
O3087 O 0.09179 0.70237 0.16225 0.0
O3088 O 0.10021 0.69882 0.1525 0.0
C3089 C 0.09513 0.70434 0.15526 0.0
C3090 C 0.11147 0.6918 0.174 0.0
C3091 C 0.09773 0.71286 0.15439 0.0
C3092 C 0.10833 0.72311 0.15335 0.0
C3093 C 0.10595 0.71511 0.155 0.0
C3094 C 0.09428 0.72677 0.15088 0.0
C3095 C 0.10254 0.729 0.1511 0.0
C3096 C 0.09191 0.71877 0.15248 0.0
C3097 C 0.08547 0.67431 0.15612 0.0
C3098 C 0.07662 0.67545 0.14435 0.0
C3099 C 0.07709 0.66289 0.15203 0.0
C3100 C 0.08276 0.66634 0.15732 0.0
C3101 C 0.07402 0.66736 0.14542 0.0
C3102 C 0.08231 0.6789 0.14966 0.0
C3103 C 0.09194 0.67753 0.16135 0.0
O3104 O 0.11256 0.69084 0.16615 0.0
O3105 O 0.104 0.69396 0.1759 0.0
O3106 O 0.08971 0.68284 0.16688 0.0
O3107 O 0.09867 0.67957 0.15756 0.0
H3108 H 0.10382 0.67843 0.17998 0.0
H3109 H 0.10991 0.66708 0.1873 0.0
H3110 H 0.13334 0.67893 0.18616 0.0
H3111 H 0.12711 0.69046 0.17907 0.0
H3112 H 0.11474 0.7246 0.15353 0.0
H3113 H 0.11054 0.71064 0.15651 0.0
H3114 H 0.08964 0.73118 0.14932 0.0
H3115 H 0.08554 0.71716 0.15205 0.0
H3116 H 0.07431 0.67909 0.13937 0.0
H3117 H 0.07532 0.65661 0.15297 0.0
H3118 H 0.08519 0.6627 0.16225 0.0
H3119 H 0.08434 0.68508 0.14865 0.0
C3120 C 0.06451 0.36431 0.92805 0.0
C3121 C 0.07125 0.35957 0.93024 0.0
C3122 C 0.07782 0.3714 0.93624 0.0
C3123 C 0.07781 0.36306 0.93434 0.0
C3124 C 0.07095 0.37609 0.93422 0.0
C3125 C 0.06435 0.37257 0.93014 0.0
U3126 U 0.05857 0.34882 0.9125 0.0
O3127 O 0.04775 0.34106 0.91102 0.0
O3128 O 0.05129 0.34958 0.90135 0.0
C3129 C 0.04584 0.34435 0.90399 0.0
C3130 C 0.05804 0.3608 0.92297 0.0
C3131 C 0.0373 0.34679 0.90297 0.0
C3132 C 0.02663 0.35701 0.90318 0.0
C3133 C 0.03463 0.35466 0.9049 0.0
C3134 C 0.02384 0.34354 0.8979 0.0
C3135 C 0.02119 0.35151 0.8995 0.0
C3136 C 0.03183 0.34121 0.89961 0.0
C3137 C 0.07584 0.33502 0.90513 0.0
C3138 C 0.07471 0.3261 0.89342 0.0
C3139 C 0.08733 0.32676 0.90099 0.0
C3140 C 0.08386 0.33242 0.90628 0.0
C3141 C 0.08283 0.3236 0.89444 0.0
C3142 C 0.07123 0.33177 0.89873 0.0
C3143 C 0.07257 0.34146 0.91037 0.0
O3144 O 0.05903 0.36194 0.91513 0.0
O3145 O 0.05589 0.35332 0.92481 0.0
O3146 O 0.06723 0.33917 0.91586 0.0
O3147 O 0.07051 0.34818 0.90658 0.0
H3148 H 0.07154 0.35319 0.92862 0.0
H3149 H 0.08293 0.35923 0.93592 0.0
H3150 H 0.0708 0.38255 0.93551 0.0
H3151 H 0.05924 0.37635 0.92842 0.0
H3152 H 0.0248 0.3632 0.90443 0.0
H3153 H 0.03879 0.35904 0.90753 0.0
H3154 H 0.01977 0.33912 0.89521 0.0
H3155 H 0.03377 0.33509 0.89814 0.0
H3156 H 0.07105 0.32372 0.88849 0.0
H3157 H 0.09363 0.32507 0.90188 0.0
H3158 H 0.08751 0.33492 0.91117 0.0
H3159 H 0.06502 0.33372 0.89777 0.0
C3160 C 0.38572 0.31457 0.67731 0.0
C3161 C 0.39058 0.321 0.68011 0.0
C3162 C 0.37879 0.32742 0.68634 0.0
C3163 C 0.38717 0.32732 0.68463 0.0
C3164 C 0.37397 0.32085 0.68371 0.0
C3165 C 0.37742 0.31448 0.67923 0.0
U3166 U 0.40083 0.30967 0.66102 0.0
O3167 O 0.40859 0.29903 0.65864 0.0
O3168 O 0.39978 0.30308 0.64946 0.0
C3169 C 0.40515 0.29756 0.65158 0.0
C3170 C 0.38914 0.30844 0.67175 0.0
C3171 C 0.40278 0.2891 0.65004 0.0
C3172 C 0.39363 0.27764 0.65188 0.0
C3173 C 0.39604 0.28556 0.6539 0.0
C3174 C 0.40477 0.27673 0.64229 0.0
C3175 C 0.39789 0.2732 0.64594 0.0
C3176 C 0.40718 0.2846 0.64432 0.0
C3177 C 0.41436 0.32737 0.65429 0.0
C3178 C 0.42386 0.3264 0.64303 0.0
C3179 C 0.42189 0.33927 0.64993 0.0
C3180 C 0.41627 0.33562 0.65514 0.0
C3181 C 0.42572 0.33473 0.64378 0.0
C3182 C 0.41821 0.32276 0.64825 0.0
C3183 C 0.40806 0.32382 0.65951 0.0
O3184 O 0.38779 0.30989 0.66401 0.0
O3185 O 0.39668 0.30622 0.67326 0.0
O3186 O 0.4105 0.31819 0.66463 0.0
O3187 O 0.40125 0.32195 0.65579 0.0
H3188 H 0.397 0.32124 0.67864 0.0
H3189 H 0.39109 0.3322 0.68667 0.0
H3190 H 0.36749 0.32078 0.68485 0.0
H3191 H 0.37355 0.30962 0.67703 0.0
H3192 H 0.38828 0.27509 0.65477 0.0
H3193 H 0.39257 0.28897 0.65834 0.0
H3194 H 0.40826 0.27342 0.63779 0.0
H3195 H 0.41241 0.28724 0.64131 0.0
H3196 H 0.42675 0.32271 0.63841 0.0
H3197 H 0.42307 0.34571 0.6506 0.0
H3198 H 0.4133 0.33928 0.65974 0.0
H3199 H 0.41677 0.31637 0.64751 0.0
C3200 C 0.07236 0.43582 0.36548 0.0
C3201 C 0.07052 0.42876 0.36107 0.0
C3202 C 0.06323 0.42324 0.3727 0.0
C3203 C 0.06597 0.42254 0.36463 0.0
C3204 C 0.06501 0.43038 0.37707 0.0
C3205 C 0.06953 0.43663 0.37347 0.0
U3206 U 0.08811 0.44138 0.34991 0.0
O3207 O 0.08984 0.45233 0.34238 0.0
O3208 O 0.09945 0.44834 0.35076 0.0
C3209 C 0.09687 0.45405 0.34579 0.0
C3210 C 0.07767 0.44207 0.36192 0.0
C3211 C 0.09799 0.46252 0.34851 0.0
C3212 C 0.10095 0.47243 0.35908 0.0
C3213 C 0.0991 0.46446 0.35676 0.0
C3214 C 0.10021 0.4767 0.34501 0.0
C3215 C 0.10168 0.47863 0.35322 0.0
C3216 C 0.09842 0.46873 0.34269 0.0
C3217 C 0.09514 0.4242 0.33583 0.0
C3218 C 0.10685 0.42531 0.3269 0.0
C3219 C 0.09923 0.41272 0.32753 0.0
C3220 C 0.09395 0.4162 0.33321 0.0
C3221 C 0.1058 0.4172 0.32439 0.0
C3222 C 0.10155 0.42879 0.33258 0.0
C3223 C 0.08993 0.42747 0.3423 0.0
O3224 O 0.08547 0.44079 0.36301 0.0
O3225 O 0.07586 0.44424 0.35444 0.0
O3226 O 0.08459 0.43298 0.34008 0.0
O3227 O 0.09373 0.42931 0.34908 0.0
H3228 H 0.07276 0.42797 0.35492 0.0
H3229 H 0.06483 0.41707 0.36115 0.0
H3230 H 0.06294 0.43112 0.38328 0.0
H3231 H 0.07094 0.44203 0.37698 0.0
H3232 H 0.10211 0.47366 0.36544 0.0
H3233 H 0.09876 0.4598 0.36139 0.0
H3234 H 0.10057 0.48134 0.34035 0.0
H3235 H 0.09755 0.46737 0.3363 0.0
H3236 H 0.11179 0.42895 0.32453 0.0
H3237 H 0.09831 0.40642 0.32583 0.0
H3238 H 0.08905 0.41256 0.3357 0.0
H3239 H 0.10254 0.435 0.33456 0.0
C3240 C 0.31684 0.32548 0.11797 0.0
C3241 C 0.32437 0.32921 0.11952 0.0
C3242 C 0.32949 0.31673 0.12559 0.0
C3243 C 0.3306 0.32489 0.12334 0.0
C3244 C 0.32197 0.31298 0.12398 0.0
C3245 C 0.31569 0.31734 0.12024 0.0
U3246 U 0.31039 0.33959 0.10106 0.0
O3247 O 0.29944 0.3398 0.0933 0.0
O3248 O 0.30253 0.35035 0.10091 0.0
C3249 C 0.29712 0.34692 0.09612 0.0
C3250 C 0.31031 0.32993 0.11372 0.0
C3251 C 0.28857 0.34758 0.09877 0.0
C3252 C 0.27849 0.35028 0.10924 0.0
C3253 C 0.28653 0.34868 0.10698 0.0
C3254 C 0.27434 0.3492 0.09515 0.0
C3255 C 0.27232 0.35075 0.10333 0.0
C3256 C 0.2824 0.34768 0.0929 0.0
C3257 C 0.32739 0.3471 0.08694 0.0
C3258 C 0.32595 0.35836 0.07749 0.0
C3259 C 0.33868 0.35098 0.07828 0.0
C3260 C 0.33537 0.34592 0.08424 0.0
C3261 C 0.33405 0.35733 0.0749 0.0
C3262 C 0.32264 0.35328 0.08346 0.0
C3263 C 0.32431 0.34211 0.09366 0.0
O3264 O 0.31061 0.3379 0.1143 0.0
O3265 O 0.30867 0.32738 0.10633 0.0
O3266 O 0.31932 0.33619 0.09167 0.0
O3267 O 0.32195 0.34618 0.10012 0.0
H3268 H 0.32549 0.33544 0.11772 0.0
H3269 H 0.33637 0.3279 0.12438 0.0
H3270 H 0.32094 0.3067 0.12568 0.0
H3271 H 0.30995 0.31433 0.11905 0.0
H3272 H 0.27719 0.35151 0.11557 0.0
H3273 H 0.29118 0.34859 0.11165 0.0
H3274 H 0.26973 0.34935 0.09046 0.0
H3275 H 0.28384 0.34679 0.08653 0.0
H3276 H 0.3222 0.36314 0.07495 0.0
H3277 H 0.34496 0.35008 0.07653 0.0
H3278 H 0.33912 0.3412 0.08689 0.0
H3279 H 0.31645 0.35426 0.08548 0.0
C3280 C 0.4261 0.56609 0.86773 0.0
C3281 C 0.42225 0.57337 0.87001 0.0
C3282 C 0.43494 0.5785 0.87561 0.0
C3283 C 0.42661 0.57948 0.87396 0.0
C3284 C 0.43879 0.57122 0.87332 0.0
C3285 C 0.43439 0.56505 0.86944 0.0
U3286 U 0.41131 0.56067 0.85109 0.0
O3287 O 0.41097 0.55047 0.84239 0.0
O3288 O 0.40077 0.55252 0.85077 0.0
C3289 C 0.40407 0.54769 0.84532 0.0
C3290 C 0.42161 0.55977 0.8632 0.0
C3291 C 0.40383 0.53897 0.84728 0.0
C3292 C 0.40403 0.52799 0.85718 0.0
C3293 C 0.40524 0.53619 0.85523 0.0
C3294 C 0.40045 0.52522 0.84316 0.0
C3295 C 0.40143 0.52245 0.8512 0.0
C3296 C 0.40161 0.53341 0.84124 0.0
C3297 C 0.40273 0.57874 0.83899 0.0
C3298 C 0.3916 0.57777 0.82932 0.0
C3299 C 0.3978 0.59083 0.83217 0.0
C3300 C 0.40316 0.58711 0.83759 0.0
C3301 C 0.39188 0.58623 0.82806 0.0
C3302 C 0.39699 0.57405 0.83477 0.0
C3303 C 0.40808 0.57513 0.84515 0.0
O3304 O 0.41367 0.55977 0.8642 0.0
O3305 O 0.42381 0.55883 0.85557 0.0
O3306 O 0.414 0.57051 0.84243 0.0
O3307 O 0.40436 0.57206 0.85152 0.0
H3308 H 0.41589 0.5744 0.86865 0.0
H3309 H 0.42351 0.58508 0.87552 0.0
H3310 H 0.4452 0.5703 0.87453 0.0
H3311 H 0.43748 0.5595 0.86768 0.0
H3312 H 0.40479 0.5261 0.86343 0.0
H3313 H 0.407 0.5404 0.85998 0.0
H3314 H 0.3986 0.52108 0.83838 0.0
H3315 H 0.40055 0.53544 0.83506 0.0
H3316 H 0.38708 0.57407 0.82628 0.0
H3317 H 0.39826 0.59734 0.83123 0.0
H3318 H 0.40758 0.59081 0.84079 0.0
H3319 H 0.39657 0.56756 0.83581 0.0
C3320 C 0.18627 0.67872 0.61489 0.0
C3321 C 0.17919 0.68061 0.61053 0.0
C3322 C 0.17371 0.68775 0.62227 0.0
C3323 C 0.17298 0.68511 0.61417 0.0
C3324 C 0.18086 0.68591 0.62659 0.0
C3325 C 0.1871 0.68144 0.62292 0.0
U3326 U 0.19155 0.66289 0.59934 0.0
O3327 O 0.20223 0.66118 0.59144 0.0
O3328 O 0.19868 0.65163 0.60008 0.0
C3329 C 0.2041 0.65417 0.59478 0.0
C3330 C 0.1925 0.67343 0.61124 0.0
C3331 C 0.21265 0.65308 0.59715 0.0
C3332 C 0.22338 0.65313 0.60732 0.0
C3333 C 0.21537 0.6549 0.60504 0.0
C3334 C 0.22609 0.64805 0.59376 0.0
C3335 C 0.22879 0.64953 0.60174 0.0
C3336 C 0.2181 0.6498 0.5915 0.0
C3337 C 0.17409 0.65563 0.58578 0.0
C3338 C 0.17521 0.64399 0.57677 0.0
C3339 C 0.16253 0.65144 0.57764 0.0
C3340 C 0.16603 0.65672 0.5833 0.0
C3341 C 0.16705 0.64495 0.57437 0.0
C3342 C 0.17871 0.64929 0.58243 0.0
C3343 C 0.17743 0.66089 0.59216 0.0
O3344 O 0.19132 0.66563 0.61244 0.0
O3345 O 0.19448 0.67519 0.60369 0.0
O3346 O 0.18281 0.66631 0.58979 0.0
O3347 O 0.17951 0.65714 0.5989 0.0
H3348 H 0.17838 0.67845 0.60436 0.0
H3349 H 0.1675 0.68629 0.61072 0.0
H3350 H 0.1816 0.6879 0.63283 0.0
H3351 H 0.19251 0.67998 0.62639 0.0
H3352 H 0.22524 0.6543 0.61352 0.0
H3353 H 0.21124 0.65747 0.60948 0.0
H3354 H 0.23014 0.64543 0.58928 0.0
H3355 H 0.21612 0.64841 0.58537 0.0
H3356 H 0.17888 0.63911 0.5743 0.0
H3357 H 0.1562 0.65229 0.57603 0.0
H3358 H 0.16237 0.66156 0.58587 0.0
H3359 H 0.18496 0.64837 0.58429 0.0
C3360 C 0.07583 0.56571 0.13308 0.0
C3361 C 0.07963 0.57307 0.13098 0.0
C3362 C 0.06688 0.57834 0.12567 0.0
C3363 C 0.07522 0.57929 0.12727 0.0
C3364 C 0.06306 0.57099 0.1278 0.0
C3365 C 0.06751 0.56471 0.13145 0.0
U3366 U 0.09123 0.56002 0.14899 0.0
O3367 O 0.09191 0.54984 0.15767 0.0
O3368 O 0.1017 0.55176 0.1488 0.0
C3369 C 0.09869 0.54703 0.15449 0.0
C3370 C 0.0804 0.55927 0.13734 0.0
C3371 C 0.09885 0.5383 0.15262 0.0
C3372 C 0.09549 0.52691 0.14384 0.0
C3373 C 0.09464 0.53512 0.14592 0.0
C3374 C 0.10458 0.52498 0.15528 0.0
C3375 C 0.10056 0.52176 0.14843 0.0
C3376 C 0.10372 0.53317 0.15734 0.0
C3377 C 0.1004 0.57792 0.16084 0.0
C3378 C 0.11148 0.57663 0.17052 0.0
C3379 C 0.10587 0.5899 0.16745 0.0
C3380 C 0.10035 0.58634 0.16208 0.0
C3381 C 0.11156 0.58511 0.17166 0.0
C3382 C 0.10595 0.57306 0.16512 0.0
C3383 C 0.0948 0.57443 0.15484 0.0
O3384 O 0.08828 0.55918 0.13599 0.0
O3385 O 0.07853 0.55829 0.14505 0.0
O3386 O 0.08893 0.56986 0.15776 0.0
O3387 O 0.09825 0.57135 0.14832 0.0
H3388 H 0.08601 0.57407 0.1323 0.0
H3389 H 0.0783 0.58493 0.12583 0.0
H3390 H 0.05664 0.5701 0.12662 0.0
H3391 H 0.06445 0.55912 0.13308 0.0
H3392 H 0.09225 0.52461 0.13859 0.0
H3393 H 0.09084 0.53903 0.14221 0.0
H3394 H 0.10864 0.52125 0.15887 0.0
H3395 H 0.10705 0.53555 0.1625 0.0
H3396 H 0.11582 0.57279 0.17364 0.0
H3397 H 0.10568 0.59643 0.16829 0.0
H3398 H 0.09609 0.59017 0.15883 0.0
H3399 H 0.10607 0.56654 0.1642 0.0
C3400 C 0.18457 0.32499 0.88326 0.0
C3401 C 0.17722 0.32891 0.88136 0.0
C3402 C 0.17183 0.31639 0.87564 0.0
C3403 C 0.17095 0.32467 0.87754 0.0
C3404 C 0.17918 0.31246 0.87757 0.0
C3405 C 0.18551 0.31674 0.88131 0.0
U3406 U 0.19085 0.3395 0.89986 0.0
O3407 O 0.20137 0.33952 0.90819 0.0
O3408 O 0.19922 0.34987 0.90002 0.0
C3409 C 0.20416 0.34642 0.90527 0.0
C3410 C 0.1911 0.32935 0.88759 0.0
C3411 C 0.21283 0.3466 0.9031 0.0
C3412 C 0.22358 0.34673 0.89296 0.0
C3413 C 0.21542 0.34556 0.89503 0.0
C3414 C 0.22673 0.34954 0.90708 0.0
C3415 C 0.22931 0.34894 0.89893 0.0
C3416 C 0.21857 0.34841 0.90913 0.0
C3417 C 0.17366 0.34823 0.91297 0.0
C3418 C 0.17498 0.36007 0.92171 0.0
C3419 C 0.16251 0.35223 0.92175 0.0
C3420 C 0.1658 0.34696 0.91597 0.0
C3421 C 0.16702 0.3589 0.92463 0.0
C3422 C 0.17829 0.35476 0.91594 0.0
C3423 C 0.17675 0.3429 0.90651 0.0
O3424 O 0.19116 0.3373 0.8867 0.0
O3425 O 0.19232 0.32704 0.89515 0.0
O3426 O 0.18133 0.3368 0.90889 0.0
O3427 O 0.17958 0.34664 0.90004 0.0
H3428 H 0.17627 0.33524 0.8829 0.0
H3429 H 0.16531 0.32782 0.87626 0.0
H3430 H 0.18003 0.30608 0.87615 0.0
H3431 H 0.19111 0.31359 0.88277 0.0
H3432 H 0.22533 0.34628 0.88663 0.0
H3433 H 0.21107 0.34413 0.89029 0.0
H3434 H 0.231 0.35107 0.91185 0.0
H3435 H 0.21669 0.34918 0.91539 0.0
H3436 H 0.17864 0.3651 0.92387 0.0
H3437 H 0.15632 0.35122 0.92378 0.0
H3438 H 0.16214 0.34196 0.91372 0.0
H3439 H 0.18439 0.35581 0.9137 0.0
C3440 C 0.42604 0.43453 0.63613 0.0
C3441 C 0.42461 0.42643 0.63837 0.0
C3442 C 0.43542 0.42187 0.62935 0.0
C3443 C 0.42923 0.42017 0.63501 0.0
C3444 C 0.43686 0.43002 0.62715 0.0
C3445 C 0.43219 0.43631 0.63052 0.0
U3446 U 0.40947 0.44017 0.6506 0.0
O3447 O 0.40778 0.45055 0.65888 0.0
O3448 O 0.39873 0.44799 0.64941 0.0
C3449 C 0.40115 0.453 0.65514 0.0
C3450 C 0.42097 0.441 0.63961 0.0
C3451 C 0.40081 0.46166 0.65304 0.0
C3452 C 0.4044 0.47299 0.64425 0.0
C3453 C 0.40526 0.46481 0.64647 0.0
C3454 C 0.39481 0.47494 0.65527 0.0
C3455 C 0.3991 0.47814 0.64858 0.0
C3456 C 0.39567 0.46679 0.65746 0.0
C3457 C 0.4005 0.4222 0.66259 0.0
C3458 C 0.38919 0.42324 0.67203 0.0
C3459 C 0.39502 0.41007 0.66891 0.0
C3460 C 0.40061 0.41377 0.66372 0.0
C3461 C 0.38919 0.41474 0.67307 0.0
C3462 C 0.3948 0.42694 0.6668 0.0
C3463 C 0.40623 0.42582 0.6568 0.0
O3464 O 0.41321 0.44048 0.63778 0.0
O3465 O 0.42226 0.44247 0.64736 0.0
O3466 O 0.4117 0.43078 0.65987 0.0
O3467 O 0.403 0.4285 0.65001 0.0
H3468 H 0.41985 0.42494 0.64268 0.0
H3469 H 0.42784 0.41397 0.63673 0.0
H3470 H 0.44162 0.43155 0.62287 0.0
H3471 H 0.43338 0.44254 0.62874 0.0
H3472 H 0.40785 0.47527 0.63913 0.0
H3473 H 0.40927 0.46092 0.64299 0.0
H3474 H 0.39057 0.47868 0.65865 0.0
H3475 H 0.39217 0.46444 0.66252 0.0
H3476 H 0.38474 0.42699 0.67512 0.0
H3477 H 0.39527 0.40353 0.66968 0.0
H3478 H 0.40499 0.41003 0.66052 0.0
H3479 H 0.39463 0.43348 0.66596 0.0
C3480 C 0.31457 0.6786 0.38625 0.0
C3481 C 0.32167 0.68042 0.39062 0.0
C3482 C 0.32719 0.68762 0.37894 0.0
C3483 C 0.3279 0.68491 0.38702 0.0
C3484 C 0.32003 0.68586 0.3746 0.0
C3485 C 0.31376 0.68139 0.37824 0.0
U3486 U 0.30916 0.66277 0.40175 0.0
O3487 O 0.29843 0.6611 0.4096 0.0
O3488 O 0.30199 0.65155 0.40097 0.0
C3489 C 0.29656 0.65409 0.40625 0.0
C3490 C 0.30832 0.67333 0.38986 0.0
C3491 C 0.28801 0.65302 0.40387 0.0
C3492 C 0.27731 0.65298 0.39368 0.0
C3493 C 0.28532 0.65474 0.39596 0.0
C3494 C 0.27454 0.64807 0.40729 0.0
C3495 C 0.27187 0.64946 0.39928 0.0
C3496 C 0.28254 0.64982 0.40955 0.0
C3497 C 0.32651 0.65546 0.41541 0.0
C3498 C 0.32528 0.64386 0.42447 0.0
C3499 C 0.33802 0.65122 0.42361 0.0
C3500 C 0.33458 0.6565 0.41792 0.0
C3501 C 0.33344 0.64478 0.4269 0.0
C3502 C 0.32184 0.64916 0.41877 0.0
C3503 C 0.32323 0.66073 0.40901 0.0
O3504 O 0.30947 0.66552 0.38866 0.0
O3505 O 0.3063 0.67509 0.3974 0.0
O3506 O 0.31786 0.66616 0.41135 0.0
O3507 O 0.32117 0.65698 0.40227 0.0
H3508 H 0.32247 0.67821 0.39678 0.0
H3509 H 0.33339 0.68604 0.39048 0.0
H3510 H 0.31929 0.6879 0.36838 0.0
H3511 H 0.30835 0.67998 0.37476 0.0
H3512 H 0.27546 0.65407 0.38745 0.0
H3513 H 0.28946 0.65725 0.3915 0.0
H3514 H 0.27048 0.64551 0.41179 0.0
H3515 H 0.2845 0.6485 0.4157 0.0
H3516 H 0.32157 0.63902 0.42695 0.0
H3517 H 0.34434 0.65204 0.42524 0.0
H3518 H 0.33827 0.66131 0.41535 0.0
H3519 H 0.31559 0.64828 0.41689 0.0
C3520 C 0.36827 0.07631 0.43516 0.0
C3521 C 0.37067 0.08001 0.42784 0.0
C3522 C 0.37601 0.06715 0.42289 0.0
C3523 C 0.37454 0.07549 0.4218 0.0
C3524 C 0.37361 0.06344 0.43021 0.0
C3525 C 0.3698 0.068 0.43631 0.0
U3526 U 0.35172 0.0913 0.44017 0.0
O3527 O 0.34297 0.09204 0.4503 0.0
O3528 O 0.35144 0.1021 0.44799 0.0
C3529 C 0.34586 0.09905 0.45283 0.0
C3530 C 0.36378 0.08098 0.44138 0.0
C3531 C 0.34762 0.09971 0.46156 0.0
C3532 C 0.35699 0.09871 0.47295 0.0
C3533 C 0.35511 0.09718 0.46478 0.0
C3534 C 0.34379 0.10499 0.47478 0.0
C3535 C 0.35141 0.10281 0.47798 0.0
C3536 C 0.34192 0.10346 0.46664 0.0
C3537 C 0.33961 0.09938 0.42195 0.0
C3538 C 0.32981 0.1104 0.42285 0.0
C3539 C 0.3327 0.10412 0.40983 0.0
C3540 C 0.3382 0.09886 0.41358 0.0
C3541 C 0.32852 0.11003 0.41439 0.0
C3542 C 0.33534 0.10512 0.4266 0.0
C3543 C 0.3458 0.09411 0.42562 0.0
O3544 O 0.36482 0.08891 0.44118 0.0
O3545 O 0.35615 0.07884 0.44241 0.0
O3546 O 0.34308 0.08831 0.4304 0.0
O3547 O 0.35219 0.09788 0.42857 0.0
H3548 H 0.36944 0.08638 0.42671 0.0
H3549 H 0.37619 0.07848 0.41617 0.0
H3550 H 0.37469 0.05702 0.43122 0.0
H3551 H 0.36796 0.06502 0.44189 0.0
H3552 H 0.36293 0.09701 0.47521 0.0
H3553 H 0.35959 0.09427 0.46093 0.0
H3554 H 0.3393 0.10802 0.47853 0.0
H3555 H 0.3361 0.10542 0.46425 0.0
H3556 H 0.32673 0.11492 0.42651 0.0
H3557 H 0.33174 0.10358 0.40334 0.0
H3558 H 0.34143 0.09444 0.40992 0.0
H3559 H 0.33639 0.10561 0.43308 0.0
C3560 C 0.86788 0.42476 0.56628 0.0
C3561 C 0.86941 0.42108 0.57384 0.0
C3562 C 0.87543 0.43361 0.57889 0.0
C3563 C 0.8732 0.42545 0.58005 0.0
C3564 C 0.87386 0.4373 0.57134 0.0
C3565 C 0.87014 0.43289 0.56507 0.0
U3566 U 0.85127 0.41018 0.56027 0.0
O3567 O 0.84295 0.40993 0.54975 0.0
O3568 O 0.8511 0.39962 0.55214 0.0
C3569 C 0.84583 0.40295 0.54714 0.0
C3570 C 0.86358 0.42027 0.55981 0.0
C3571 C 0.84795 0.40252 0.53846 0.0
C3572 C 0.85801 0.40241 0.52763 0.0
C3573 C 0.85596 0.40376 0.53578 0.0
C3574 C 0.84398 0.39899 0.5247 0.0
C3575 C 0.85207 0.39982 0.52203 0.0
C3576 C 0.84196 0.40031 0.53284 0.0
C3577 C 0.83806 0.40197 0.57763 0.0
C3578 C 0.82915 0.39024 0.57652 0.0
C3579 C 0.82918 0.39834 0.58883 0.0
C3580 C 0.83506 0.40345 0.58545 0.0
C3581 C 0.82621 0.39162 0.58444 0.0
C3582 C 0.83502 0.39539 0.57313 0.0
C3583 C 0.84457 0.40717 0.57443 0.0
O3584 O 0.86445 0.41233 0.55995 0.0
O3585 O 0.85604 0.42259 0.5585 0.0
O3586 O 0.84225 0.41317 0.5697 0.0
O3587 O 0.85102 0.40332 0.57171 0.0
H3588 H 0.86761 0.41486 0.57499 0.0
H3589 H 0.87421 0.42248 0.58584 0.0
H3590 H 0.87554 0.44358 0.57027 0.0
H3591 H 0.86895 0.43586 0.55931 0.0
H3592 H 0.8643 0.40305 0.5258 0.0
H3593 H 0.86068 0.4055 0.54003 0.0
H3594 H 0.83924 0.39715 0.52053 0.0
H3595 H 0.83574 0.39937 0.5348 0.0
H3596 H 0.82692 0.38517 0.57296 0.0
H3597 H 0.82715 0.39951 0.59498 0.0
H3598 H 0.83737 0.40849 0.58901 0.0
H3599 H 0.83726 0.39418 0.56706 0.0
C3600 C 0.32189 0.11468 0.31454 0.0
C3601 C 0.31999 0.11042 0.32169 0.0
C3602 C 0.3124 0.12206 0.32677 0.0
C3603 C 0.31526 0.11406 0.32772 0.0
C3604 C 0.31422 0.12627 0.31955 0.0
C3605 C 0.31893 0.12259 0.31347 0.0
U3606 U 0.33868 0.09988 0.31011 0.0
O3607 O 0.3411 0.09175 0.29976 0.0
O3608 O 0.35001 0.10109 0.30317 0.0
C3609 C 0.34793 0.09545 0.2979 0.0
C3610 C 0.32748 0.11111 0.30855 0.0
C3611 C 0.34893 0.09769 0.28931 0.0
C3612 C 0.3459 0.10638 0.27776 0.0
C3613 C 0.34454 0.10413 0.28586 0.0
C3614 C 0.35596 0.09568 0.27651 0.0
C3615 C 0.35167 0.1022 0.273 0.0
C3616 C 0.35459 0.09345 0.28458 0.0
C3617 C 0.34624 0.08741 0.3283 0.0
C3618 C 0.35748 0.07786 0.32753 0.0
C3619 C 0.3514 0.08106 0.34056 0.0
C3620 C 0.34593 0.08629 0.33673 0.0
C3621 C 0.3573 0.07685 0.33603 0.0
C3622 C 0.35201 0.08313 0.32369 0.0
C3623 C 0.34076 0.09335 0.32453 0.0
O3624 O 0.33519 0.11279 0.30981 0.0
O3625 O 0.3262 0.10341 0.30681 0.0
O3626 O 0.33562 0.09047 0.31912 0.0
O3627 O 0.3442 0.10019 0.32226 0.0
H3628 H 0.32233 0.10434 0.32269 0.0
H3629 H 0.31409 0.1107 0.33326 0.0
H3630 H 0.31208 0.13242 0.31863 0.0
H3631 H 0.32039 0.12599 0.30803 0.0
H3632 H 0.34246 0.11138 0.27522 0.0
H3633 H 0.34013 0.10746 0.28945 0.0
H3634 H 0.36054 0.09242 0.27309 0.0
H3635 H 0.35806 0.08848 0.28718 0.0
H3636 H 0.362 0.07475 0.32388 0.0
H3637 H 0.35102 0.08033 0.3471 0.0
H3638 H 0.34151 0.08955 0.34037 0.0
H3639 H 0.35235 0.08397 0.31717 0.0
C3640 C 0.63608 0.57383 0.06441 0.0
C3641 C 0.641 0.57111 0.07082 0.0
C3642 C 0.6293 0.56482 0.07734 0.0
C3643 C 0.63766 0.56661 0.07719 0.0
C3644 C 0.62442 0.56735 0.07078 0.0
C3645 C 0.62779 0.57183 0.06436 0.0
U3646 U 0.65121 0.59003 0.05927 0.0
O3647 O 0.65872 0.59243 0.04845 0.0
O3648 O 0.65007 0.60164 0.05278 0.0
C3649 C 0.6553 0.59953 0.04712 0.0
C3650 C 0.63941 0.57938 0.05824 0.0
C3651 C 0.65275 0.60115 0.03873 0.0
C3652 C 0.64359 0.59913 0.0273 0.0
C3653 C 0.64615 0.59707 0.03517 0.0
C3654 C 0.65428 0.60924 0.0265 0.0
C3655 C 0.64756 0.60533 0.02294 0.0
C3656 C 0.65684 0.60717 0.03432 0.0
C3657 C 0.6652 0.59665 0.07661 0.0
C3658 C 0.67384 0.60861 0.07582 0.0
C3659 C 0.67373 0.60038 0.08804 0.0
C3660 C 0.66807 0.59515 0.08447 0.0
C3661 C 0.67662 0.60722 0.0838 0.0
C3662 C 0.66818 0.60335 0.07225 0.0
C3663 C 0.6588 0.59143 0.07323 0.0
O3664 O 0.63815 0.58712 0.05976 0.0
O3665 O 0.6469 0.57783 0.05586 0.0
O3666 O 0.66109 0.58633 0.06752 0.0
O3667 O 0.65194 0.59516 0.07156 0.0
H3668 H 0.6474 0.57265 0.07103 0.0
H3669 H 0.64162 0.56464 0.08207 0.0
H3670 H 0.61795 0.56615 0.07074 0.0
H3671 H 0.62388 0.57395 0.05951 0.0
H3672 H 0.63837 0.59605 0.02473 0.0
H3673 H 0.64292 0.59241 0.03852 0.0
H3674 H 0.65755 0.61395 0.02326 0.0
H3675 H 0.66196 0.61035 0.03697 0.0
H3676 H 0.67601 0.61377 0.07236 0.0
H3677 H 0.67565 0.59919 0.09423 0.0
H3678 H 0.6658 0.59003 0.08793 0.0
H3679 H 0.66601 0.60459 0.06615 0.0
C3680 C 0.67517 0.38384 0.31553 0.0
C3681 C 0.6714 0.38197 0.32296 0.0
C3682 C 0.68403 0.37629 0.32814 0.0
C3683 C 0.67576 0.37818 0.32917 0.0
C3684 C 0.68783 0.37822 0.32073 0.0
C3685 C 0.68342 0.38193 0.31446 0.0
U3686 U 0.66 0.39991 0.30959 0.0
O3687 O 0.65938 0.40828 0.29915 0.0
O3688 O 0.64945 0.39966 0.30144 0.0
C3689 C 0.65255 0.4051 0.29647 0.0
C3690 C 0.67063 0.38807 0.30905 0.0
C3691 C 0.65239 0.40279 0.28785 0.0
C3692 C 0.65585 0.39341 0.27698 0.0
C3693 C 0.65678 0.39605 0.28502 0.0
C3694 C 0.64636 0.4044 0.27449 0.0
C3695 C 0.65051 0.39747 0.27166 0.0
C3696 C 0.64729 0.40703 0.28251 0.0
C3697 C 0.65105 0.41221 0.32734 0.0
C3698 C 0.63987 0.42178 0.32608 0.0
C3699 C 0.6457 0.41894 0.33931 0.0
C3700 C 0.65122 0.41359 0.33573 0.0
C3701 C 0.63988 0.42303 0.33454 0.0
C3702 C 0.6454 0.41639 0.3225 0.0
C3703 C 0.65658 0.40613 0.32388 0.0
O3704 O 0.66273 0.38686 0.30904 0.0
O3705 O 0.67263 0.39573 0.30792 0.0
O3706 O 0.66242 0.40892 0.31919 0.0
O3707 O 0.65306 0.39958 0.32098 0.0
H3708 H 0.66508 0.3835 0.32402 0.0
H3709 H 0.67271 0.3769 0.33486 0.0
H3710 H 0.69419 0.37681 0.31977 0.0
H3711 H 0.68646 0.38338 0.30879 0.0
H3712 H 0.6592 0.38811 0.27498 0.0
H3713 H 0.66074 0.39271 0.28908 0.0
H3714 H 0.64211 0.4076 0.27061 0.0
H3715 H 0.64382 0.41221 0.28462 0.0
H3716 H 0.63543 0.4248 0.32226 0.0
H3717 H 0.64596 0.41987 0.34582 0.0
H3718 H 0.65555 0.41042 0.33955 0.0
H3719 H 0.64519 0.41536 0.31599 0.0
C3720 C 0.13623 0.92734 0.93581 0.0
C3721 C 0.1411 0.92976 0.92923 0.0
C3722 C 0.12938 0.93596 0.92265 0.0
C3723 C 0.13772 0.93407 0.92276 0.0
C3724 C 0.12457 0.93372 0.92937 0.0
C3725 C 0.12797 0.92943 0.93589 0.0
U3726 U 0.15153 0.91146 0.94123 0.0
O3727 O 0.15915 0.90935 0.95204 0.0
O3728 O 0.15059 0.89995 0.94793 0.0
C3729 C 0.15582 0.90224 0.95353 0.0
C3730 C 0.13961 0.92196 0.94212 0.0
C3731 C 0.15333 0.90074 0.96196 0.0
C3732 C 0.14392 0.90246 0.97323 0.0
C3733 C 0.14642 0.90444 0.96532 0.0
C3734 C 0.15534 0.89323 0.97448 0.0
C3735 C 0.14829 0.89672 0.97783 0.0
C3736 C 0.15782 0.89522 0.96662 0.0
C3737 C 0.16548 0.90476 0.92385 0.0
C3738 C 0.17447 0.89309 0.92479 0.0
C3739 C 0.17366 0.90077 0.91225 0.0
C3740 C 0.168 0.906 0.91582 0.0
C3741 C 0.1769 0.89419 0.91666 0.0
C3742 C 0.1688 0.89833 0.92836 0.0
C3743 C 0.15905 0.90993 0.92723 0.0
O3744 O 0.13844 0.91418 0.94076 0.0
O3745 O 0.14708 0.92365 0.94444 0.0
O3746 O 0.16131 0.91514 0.93285 0.0
O3747 O 0.15226 0.90613 0.92902 0.0
H3748 H 0.14748 0.92814 0.929 0.0
H3749 H 0.14164 0.93581 0.91776 0.0
H3750 H 0.11811 0.93501 0.92945 0.0
H3751 H 0.12411 0.92752 0.94087 0.0
H3752 H 0.13845 0.90522 0.97563 0.0
H3753 H 0.14288 0.90872 0.96178 0.0
H3754 H 0.15891 0.88889 0.97792 0.0
H3755 H 0.1632 0.89233 0.96412 0.0
H3756 H 0.17691 0.88813 0.92838 0.0
H3757 H 0.17529 0.90173 0.90594 0.0
H3758 H 0.16545 0.91091 0.91224 0.0
H3759 H 0.1669 0.8973 0.93459 0.0
C3760 C 0.32326 0.88661 0.18668 0.0
C3761 C 0.32062 0.89155 0.18024 0.0
C3762 C 0.31428 0.87989 0.17369 0.0
C3763 C 0.31613 0.88824 0.17385 0.0
C3764 C 0.31671 0.87501 0.18029 0.0
C3765 C 0.32118 0.87835 0.18672 0.0
U3766 U 0.34006 0.90115 0.19144 0.0
O3767 O 0.34271 0.90901 0.20194 0.0
O3768 O 0.35156 0.89978 0.19807 0.0
C3769 C 0.34962 0.90531 0.2035 0.0
C3770 C 0.32889 0.88989 0.19282 0.0
C3771 C 0.35101 0.90299 0.21201 0.0
C3772 C 0.34914 0.89378 0.22342 0.0
C3773 C 0.34725 0.89614 0.21545 0.0
C3774 C 0.35837 0.90521 0.22458 0.0
C3775 C 0.35484 0.89822 0.22802 0.0
C3776 C 0.35648 0.90756 0.21665 0.0
C3777 C 0.34721 0.91399 0.1733 0.0
C3778 C 0.3589 0.923 0.17372 0.0
C3779 C 0.35175 0.92077 0.16103 0.0
C3780 C 0.34633 0.91559 0.16499 0.0
C3781 C 0.35817 0.92445 0.16532 0.0
C3782 C 0.35347 0.91778 0.17769 0.0
C3783 C 0.34181 0.90802 0.17714 0.0
O3784 O 0.33658 0.88823 0.19145 0.0
O3785 O 0.32766 0.89751 0.19493 0.0
O3786 O 0.33684 0.91081 0.18274 0.0
O3787 O 0.34529 0.90112 0.17916 0.0
H3788 H 0.32222 0.89794 0.18002 0.0
H3789 H 0.31424 0.89221 0.16895 0.0
H3790 H 0.31546 0.86855 0.18032 0.0
H3791 H 0.32325 0.87442 0.19159 0.0
H3792 H 0.34635 0.88835 0.22588 0.0
H3793 H 0.34301 0.89255 0.21193 0.0
H3794 H 0.36267 0.90883 0.22801 0.0
H3795 H 0.3594 0.91288 0.2141 0.0
H3796 H 0.36382 0.92571 0.17717 0.0
H3797 H 0.35095 0.92185 0.15459 0.0
H3798 H 0.34152 0.91271 0.16153 0.0
H3799 H 0.35424 0.91657 0.18412 0.0
C3800 C 0.17821 0.11507 0.68606 0.0
C3801 C 0.18036 0.11063 0.67909 0.0
C3802 C 0.18766 0.12232 0.67372 0.0
C3803 C 0.18507 0.11421 0.673 0.0
C3804 C 0.1856 0.12672 0.68076 0.0
C3805 C 0.18092 0.12311 0.68689 0.0
U3806 U 0.16143 0.10031 0.69052 0.0
O3807 O 0.15896 0.09223 0.70091 0.0
O3808 O 0.15003 0.10151 0.69735 0.0
C3809 C 0.15207 0.09589 0.70265 0.0
C3810 C 0.1726 0.11155 0.69207 0.0
C3811 C 0.15082 0.09805 0.71122 0.0
C3812 C 0.15245 0.10732 0.72262 0.0
C3813 C 0.15427 0.10509 0.7146 0.0
C3814 C 0.14392 0.09538 0.72396 0.0
C3815 C 0.14712 0.10256 0.72733 0.0
C3816 C 0.14575 0.09316 0.71598 0.0
C3817 C 0.15384 0.08777 0.67247 0.0
C3818 C 0.14228 0.07862 0.67336 0.0
C3819 C 0.14873 0.08111 0.66035 0.0
C3820 C 0.1543 0.08631 0.6641 0.0
C3821 C 0.14259 0.07729 0.66491 0.0
C3822 C 0.14785 0.08385 0.67711 0.0
C3823 C 0.15939 0.0937 0.67614 0.0
O3824 O 0.1649 0.11323 0.69078 0.0
O3825 O 0.17388 0.10387 0.69389 0.0
O3826 O 0.16451 0.09084 0.68157 0.0
O3827 O 0.15599 0.10058 0.67834 0.0
H3828 H 0.17821 0.10446 0.67826 0.0
H3829 H 0.18642 0.1107 0.6676 0.0
H3830 H 0.18754 0.13297 0.6815 0.0
H3831 H 0.17926 0.12665 0.6922 0.0
H3832 H 0.15497 0.1129 0.72502 0.0
H3833 H 0.15821 0.10893 0.71099 0.0
H3834 H 0.13991 0.09151 0.72748 0.0
H3835 H 0.14307 0.08769 0.71347 0.0
H3836 H 0.13758 0.07581 0.67702 0.0
H3837 H 0.14922 0.08011 0.65386 0.0
H3838 H 0.1589 0.08928 0.66044 0.0
H3839 H 0.1474 0.08496 0.68359 0.0
P3840 P 0.1224 0.21761 0.37659 0.0
H3841 H 0.13884 0.21891 0.3832 0.0
H3842 H 0.15133 0.21164 0.38017 0.0
H3843 H 0.1398 0.20057 0.3593 0.0
H3844 H 0.12716 0.20778 0.36255 0.0
H3845 H 0.1061 0.22437 0.37534 0.0
H3846 H 0.10076 0.2364 0.36855 0.0
H3847 H 0.12431 0.24063 0.35767 0.0
H3848 H 0.1295 0.22836 0.36422 0.0
H3849 H 0.12278 0.20484 0.38857 0.0
H3850 H 0.10828 0.21083 0.36755 0.0
O3851 O 0.12366 0.22193 0.38569 0.0
H3852 H 0.11459 0.19265 0.39078 0.0
H3853 H 0.09986 0.19871 0.36992 0.0
C3854 C 0.13206 0.21383 0.37314 0.0
C3855 C 0.13903 0.21506 0.37787 0.0
C3856 C 0.14621 0.21092 0.37609 0.0
C3857 C 0.14658 0.20546 0.36951 0.0
C3858 C 0.1397 0.20464 0.36447 0.0
C3859 C 0.1325 0.20879 0.36628 0.0
C3860 C 0.11813 0.22533 0.37011 0.0
C3861 C 0.11003 0.22771 0.37125 0.0
C3862 C 0.10703 0.23468 0.36746 0.0
C3863 C 0.11213 0.23955 0.36261 0.0
C3864 C 0.12018 0.23698 0.36126 0.0
C3865 C 0.12316 0.22995 0.36502 0.0
C3866 C 0.11599 0.20886 0.37805 0.0
C3867 C 0.11777 0.20357 0.38448 0.0
C3868 C 0.11313 0.19659 0.3857 0.0
C3869 C 0.10658 0.19477 0.38053 0.0
C3870 C 0.10483 0.20004 0.37404 0.0
C3871 C 0.1096 0.20698 0.37272 0.0
P3872 P 0.03266 0.87258 0.6264 0.0
H3873 H 0.02693 0.88938 0.62607 0.0
H3874 H 0.03394 0.90227 0.62382 0.0
H3875 H 0.05577 0.88911 0.61733 0.0
H3876 H 0.04859 0.87634 0.61914 0.0
H3877 H 0.02659 0.85609 0.62421 0.0
H3878 H 0.01491 0.85066 0.61695 0.0
H3879 H 0.01011 0.87448 0.60694 0.0
H3880 H 0.0221 0.87977 0.61392 0.0
H3881 H 0.0421 0.87075 0.64115 0.0
H3882 H 0.04112 0.85945 0.61752 0.0
O3883 O 0.02752 0.87476 0.63487 0.0
H3884 H 0.0536 0.86215 0.64484 0.0
H3885 H 0.05267 0.85071 0.62123 0.0
C3886 C 0.03727 0.8819 0.62292 0.0
C3887 C 0.03316 0.88929 0.62396 0.0
C3888 C 0.03722 0.89666 0.62275 0.0
C3889 C 0.0455 0.89677 0.62056 0.0
C3890 C 0.0494 0.88932 0.61897 0.0
C3891 C 0.0453 0.88196 0.62008 0.0
C3892 C 0.02536 0.86829 0.61946 0.0
C3893 C 0.02323 0.86008 0.6202 0.0
C3894 C 0.01644 0.85701 0.61614 0.0
C3895 C 0.01148 0.86215 0.61143 0.0
C3896 C 0.01383 0.87032 0.61043 0.0
C3897 C 0.0207 0.87336 0.61444 0.0
C3898 C 0.04062 0.86558 0.62916 0.0
C3899 C 0.04428 0.86632 0.6368 0.0
C3900 C 0.0509 0.86145 0.63887 0.0
C3901 C 0.05403 0.85577 0.63332 0.0
C3902 C 0.05032 0.85498 0.62565 0.0
C3903 C 0.04372 0.85994 0.62355 0.0
P3904 P 0.37885 0.78239 0.87806 0.0
H3905 H 0.36251 0.78077 0.8849 0.0
H3906 H 0.34986 0.7878 0.88195 0.0
H3907 H 0.36078 0.79843 0.86053 0.0
H3908 H 0.37358 0.79149 0.86371 0.0
H3909 H 0.39301 0.77232 0.88068 0.0
H3910 H 0.3978 0.75975 0.8745 0.0
H3911 H 0.37776 0.76051 0.85751 0.0
H3912 H 0.37318 0.77331 0.86357 0.0
H3913 H 0.37641 0.79879 0.88381 0.0
H3914 H 0.39585 0.78528 0.87249 0.0
O3915 O 0.37797 0.77948 0.88774 0.0
H3916 H 0.3853 0.81057 0.88507 0.0
H3917 H 0.40484 0.79706 0.8739 0.0
C3918 C 0.36901 0.78571 0.87458 0.0
C3919 C 0.36215 0.78446 0.87947 0.0
C3920 C 0.35487 0.78847 0.87773 0.0
C3921 C 0.35431 0.79378 0.87104 0.0
C3922 C 0.36104 0.7945 0.86581 0.0
C3923 C 0.36834 0.7905 0.86757 0.0
C3924 C 0.38279 0.77378 0.87256 0.0
C3925 C 0.38974 0.76987 0.87552 0.0
C3926 C 0.39242 0.76263 0.87203 0.0
C3927 C 0.3881 0.75904 0.86558 0.0
C3928 C 0.38126 0.76312 0.86244 0.0
C3929 C 0.37862 0.77044 0.86591 0.0
C3930 C 0.38543 0.79115 0.87804 0.0
C3931 C 0.38256 0.79839 0.88149 0.0
C3932 C 0.38764 0.80514 0.88219 0.0
C3933 C 0.39576 0.80475 0.87955 0.0
C3934 C 0.39862 0.79751 0.876 0.0
C3935 C 0.39347 0.79077 0.87521 0.0
P3936 P 0.46836 0.12874 0.1263 0.0
H3937 H 0.47017 0.11261 0.13361 0.0
H3938 H 0.46293 0.09992 0.1314 0.0
H3939 H 0.45121 0.11029 0.11028 0.0
H3940 H 0.45836 0.12313 0.11271 0.0
H3941 H 0.47838 0.14318 0.12732 0.0
H3942 H 0.49024 0.14784 0.11975 0.0
H3943 H 0.48814 0.12713 0.10373 0.0
H3944 H 0.4762 0.12251 0.11133 0.0
H3945 H 0.45273 0.12643 0.13391 0.0
H3946 H 0.46466 0.14547 0.12037 0.0
O3947 O 0.47226 0.1281 0.13564 0.0
H3948 H 0.44092 0.13517 0.13584 0.0
H3949 H 0.45288 0.15434 0.12248 0.0
C3950 C 0.46473 0.11883 0.12337 0.0
C3951 C 0.46618 0.11212 0.1284 0.0
C3952 C 0.46205 0.10481 0.12709 0.0
C3953 C 0.4564 0.10409 0.12071 0.0
C3954 C 0.45541 0.11068 0.11534 0.0
C3955 C 0.45953 0.118 0.11667 0.0
C3956 C 0.47633 0.13257 0.11983 0.0
C3957 C 0.48035 0.13974 0.12206 0.0
C3958 C 0.48713 0.14241 0.11771 0.0
C3959 C 0.49011 0.13787 0.11111 0.0
C3960 C 0.48599 0.13074 0.1088 0.0
C3961 C 0.47913 0.12812 0.11312 0.0
C3962 C 0.45959 0.13527 0.12699 0.0
C3963 C 0.45278 0.13247 0.13128 0.0
C3964 C 0.44602 0.13746 0.13236 0.0
C3965 C 0.44597 0.14542 0.12928 0.0
C3966 C 0.45278 0.14823 0.12494 0.0
C3967 C 0.45953 0.14316 0.12375 0.0
P3968 P 0.1232 0.78027 0.1221 0.0
H3969 H 0.13825 0.78243 0.11303 0.0
H3970 H 0.15048 0.79032 0.1156 0.0
H3971 H 0.14121 0.79702 0.13925 0.0
H3972 H 0.12888 0.78903 0.1366 0.0
H3973 H 0.10686 0.77634 0.12795 0.0
H3974 H 0.10174 0.76512 0.13612 0.0
H3975 H 0.12639 0.75723 0.14068 0.0
H3976 H 0.13148 0.7687 0.1327 0.0
H3977 H 0.11612 0.78585 0.10681 0.0
H3978 H 0.11448 0.79211 0.13222 0.0
O3979 O 0.1246 0.7746 0.11381 0.0
H3980 H 0.10657 0.79666 0.10347 0.0
H3981 H 0.10479 0.80296 0.12892 0.0
C3982 C 0.13269 0.78508 0.12466 0.0
C3983 C 0.1389 0.78544 0.11885 0.0
C3984 C 0.14592 0.78995 0.12034 0.0
C3985 C 0.14685 0.79428 0.12765 0.0
C3986 C 0.14067 0.79378 0.13355 0.0
C3987 C 0.13364 0.7892 0.13206 0.0
C3988 C 0.11957 0.77346 0.12984 0.0
C3989 C 0.11119 0.77239 0.13095 0.0
C3990 C 0.10826 0.76589 0.13554 0.0
C3991 C 0.11365 0.7602 0.13898 0.0
C3992 C 0.12207 0.76153 0.1382 0.0
C3993 C 0.12499 0.76809 0.13363 0.0
C3994 C 0.11594 0.78812 0.11977 0.0
C3995 C 0.11364 0.7895 0.11169 0.0
C3996 C 0.10813 0.79567 0.10979 0.0
C3997 C 0.10485 0.80063 0.11594 0.0
C3998 C 0.10723 0.79927 0.12404 0.0
C3999 C 0.11274 0.79307 0.12594 0.0
P4000 P 0.46975 0.87279 0.37379 0.0
H4001 H 0.47471 0.88975 0.37512 0.0
H4002 H 0.46711 0.90228 0.37753 0.0
H4003 H 0.44531 0.88815 0.38156 0.0
H4004 H 0.45301 0.87571 0.37954 0.0
H4005 H 0.47749 0.85702 0.37546 0.0
H4006 H 0.48886 0.85225 0.38363 0.0
H4007 H 0.48948 0.87532 0.39619 0.0
H4008 H 0.47807 0.88007 0.38792 0.0
H4009 H 0.46242 0.86898 0.35814 0.0
H4010 H 0.46096 0.86004 0.38273 0.0
O4011 O 0.47525 0.87531 0.36565 0.0
H4012 H 0.45224 0.8591 0.35388 0.0
H4013 H 0.45076 0.85001 0.37848 0.0
C4014 C 0.46442 0.8818 0.37703 0.0
C4015 C 0.46833 0.88936 0.37669 0.0
C4016 C 0.46395 0.89653 0.378 0.0
C4017 C 0.45555 0.89627 0.37961 0.0
C4018 C 0.45177 0.88862 0.3804 0.0
C4019 C 0.45618 0.88146 0.37917 0.0
C4020 C 0.47682 0.86885 0.38116 0.0
C4021 C 0.47989 0.86097 0.38014 0.0
C4022 C 0.48641 0.85825 0.38483 0.0
C4023 C 0.49009 0.8634 0.39058 0.0
C4024 C 0.48682 0.87122 0.39178 0.0
C4025 C 0.48025 0.87393 0.38709 0.0
C4026 C 0.46257 0.86512 0.37071 0.0
C4027 C 0.46 0.8648 0.3626 0.0
C4028 C 0.45419 0.85912 0.36017 0.0
C4029 C 0.45076 0.8537 0.36582 0.0
C4030 C 0.45329 0.8541 0.37399 0.0
C4031 C 0.45915 0.85978 0.37641 0.0
P4032 P 0.37857 0.21768 0.62281 0.0
H4033 H 0.36223 0.2193 0.61599 0.0
H4034 H 0.34953 0.21241 0.61908 0.0
H4035 H 0.36044 0.20201 0.64062 0.0
H4036 H 0.37328 0.20879 0.63729 0.0
H4037 H 0.39249 0.22797 0.61973 0.0
H4038 H 0.39725 0.24064 0.62573 0.0
H4039 H 0.3777 0.23966 0.64327 0.0
H4040 H 0.37315 0.22676 0.6374 0.0
H4041 H 0.37603 0.20103 0.6178 0.0
H4042 H 0.39577 0.2151 0.62784 0.0
O4043 O 0.37768 0.22041 0.61307 0.0
H4044 H 0.38498 0.18932 0.61652 0.0
H4045 H 0.40483 0.20337 0.62643 0.0
C4046 C 0.36872 0.21445 0.62635 0.0
C4047 C 0.36186 0.21568 0.62147 0.0
C4048 C 0.35455 0.21176 0.62329 0.0
C4049 C 0.35397 0.20656 0.63006 0.0
C4050 C 0.36072 0.20585 0.63528 0.0
C4051 C 0.36804 0.20977 0.63343 0.0
C4052 C 0.3825 0.2264 0.62813 0.0
C4053 C 0.38932 0.2304 0.62497 0.0
C4054 C 0.39197 0.2377 0.62835 0.0
C4055 C 0.38778 0.24125 0.63491 0.0
C4056 C 0.3811 0.23708 0.63826 0.0
C4057 C 0.37847 0.2297 0.63489 0.0
C4058 C 0.38519 0.20894 0.62297 0.0
C4059 C 0.38226 0.20157 0.61987 0.0
C4060 C 0.38739 0.19486 0.61915 0.0
C4061 C 0.39561 0.19542 0.6214 0.0
C4062 C 0.39852 0.20278 0.62462 0.0
C4063 C 0.39334 0.20949 0.62543 0.0
P4064 P 0.03022 0.12935 0.87442 0.0
H4065 H 0.02454 0.11272 0.87215 0.0
H4066 H 0.03136 0.09958 0.87327 0.0
H4067 H 0.0526 0.1115 0.88312 0.0
H4068 H 0.04567 0.12457 0.88219 0.0
H4069 H 0.02572 0.14584 0.87927 0.0
H4070 H 0.01457 0.15103 0.88748 0.0
H4071 H 0.00793 0.12645 0.89395 0.0
H4072 H 0.01937 0.12131 0.88601 0.0
H4073 H 0.0373 0.13388 0.85887 0.0
H4074 H 0.04083 0.1401 0.88409 0.0
O4075 O 0.02444 0.12802 0.86619 0.0
H4076 H 0.04816 0.14316 0.855 0.0
H4077 H 0.05174 0.14953 0.88023 0.0
C4078 C 0.03467 0.11965 0.87689 0.0
C4079 C 0.03062 0.11249 0.87469 0.0
C4080 C 0.03454 0.10498 0.8753 0.0
C4081 C 0.04259 0.1045 0.87814 0.0
C4082 C 0.0464 0.11164 0.88092 0.0
C4083 C 0.04245 0.11915 0.88033 0.0
C4084 C 0.02353 0.13319 0.88217 0.0
C4085 C 0.0221 0.14157 0.88272 0.0
C4086 C 0.01561 0.14453 0.88733 0.0
C4087 C 0.01028 0.13916 0.8913 0.0
C4088 C 0.01196 0.13077 0.89106 0.0
C4089 C 0.01852 0.12782 0.8865 0.0
C4090 C 0.03813 0.13645 0.87174 0.0
C4091 C 0.04034 0.13734 0.86357 0.0
C4092 C 0.04655 0.14267 0.86136 0.0
C4093 C 0.05074 0.14718 0.86729 0.0
C4094 C 0.04862 0.14616 0.87552 0.0
C4095 C 0.04236 0.14082 0.87772 0.0
P4096 P 0.37745 0.12134 0.21902 0.0
H4097 H 0.38474 0.13748 0.22072 0.0
H4098 H 0.3823 0.15021 0.21361 0.0
H4099 H 0.36086 0.13984 0.20247 0.0
H4100 H 0.36354 0.12697 0.20946 0.0
H4101 H 0.37964 0.10767 0.22987 0.0
H4102 H 0.37237 0.10299 0.24191 0.0
H4103 H 0.35475 0.12221 0.23874 0.0
H4104 H 0.36206 0.12686 0.22662 0.0
H4105 H 0.38313 0.12384 0.20256 0.0
H4106 H 0.37259 0.10413 0.21631 0.0
O4107 O 0.38699 0.12196 0.22242 0.0
H4108 H 0.38471 0.11488 0.19088 0.0
H4109 H 0.37431 0.09507 0.20462 0.0
C4110 C 0.37438 0.13126 0.21554 0.0
C4111 C 0.37942 0.13799 0.21689 0.0
C4112 C 0.37797 0.14531 0.21284 0.0
C4113 C 0.37142 0.14604 0.20737 0.0
C4114 C 0.36604 0.13944 0.20651 0.0
C4115 C 0.36752 0.13211 0.21056 0.0
C4116 C 0.37137 0.11757 0.22731 0.0
C4117 C 0.37413 0.11079 0.23168 0.0
C4118 C 0.36995 0.10811 0.23855 0.0
C4119 C 0.36297 0.11222 0.24127 0.0
C4120 C 0.36013 0.11895 0.23681 0.0
C4121 C 0.36429 0.12158 0.22986 0.0
C4122 C 0.37766 0.11471 0.2103 0.0
C4123 C 0.38102 0.11761 0.20303 0.0
C4124 C 0.38191 0.11249 0.19634 0.0
C4125 C 0.37959 0.10429 0.19682 0.0
C4126 C 0.37617 0.10137 0.20409 0.0
C4127 C 0.37518 0.10655 0.21078 0.0
P4128 P 0.12774 0.12701 0.46868 0.0
H4129 H 0.11096 0.12642 0.47442 0.0
H4130 H 0.09814 0.12355 0.46749 0.0
H4131 H 0.1115 0.11663 0.44592 0.0
H4132 H 0.12421 0.11909 0.45302 0.0
H4133 H 0.14415 0.12586 0.47517 0.0
H4134 H 0.14975 0.1189 0.48697 0.0
H4135 H 0.12649 0.10743 0.49121 0.0
H4136 H 0.12103 0.11415 0.47915 0.0
H4137 H 0.12907 0.14142 0.45865 0.0
H4138 H 0.14128 0.11831 0.46068 0.0
O4139 O 0.12534 0.13556 0.47358 0.0
H4140 H 0.13768 0.145 0.44712 0.0
H4141 H 0.15001 0.1219 0.44911 0.0
C4142 C 0.11853 0.12313 0.46419 0.0
C4143 C 0.11111 0.12409 0.46826 0.0
C4144 C 0.10378 0.12252 0.46426 0.0
C4145 C 0.10374 0.12002 0.45607 0.0
C4146 C 0.11124 0.1185 0.45222 0.0
C4147 C 0.11856 0.11999 0.45627 0.0
C4148 C 0.13222 0.12039 0.47615 0.0
C4149 C 0.14033 0.12162 0.47846 0.0
C4150 C 0.1435 0.11772 0.48529 0.0
C4151 C 0.13855 0.11267 0.49011 0.0
C4152 C 0.1305 0.1112 0.4876 0.0
C4153 C 0.12736 0.11506 0.48069 0.0
C4154 C 0.13469 0.1297 0.46066 0.0
C4155 C 0.13369 0.13716 0.45668 0.0
C4156 C 0.13857 0.13917 0.45005 0.0
C4157 C 0.14451 0.13373 0.44722 0.0
C4158 C 0.14554 0.12625 0.45122 0.0
C4159 C 0.14058 0.1242 0.45784 0.0
P4160 P 0.12325 0.87779 0.7182 0.0
H4161 H 0.11396 0.8627 0.71684 0.0
H4162 H 0.11667 0.84992 0.70994 0.0
H4163 H 0.14094 0.85815 0.70416 0.0
H4164 H 0.13812 0.87108 0.71107 0.0
H4165 H 0.12241 0.87335 0.73519 0.0
H4166 H 0.13017 0.87742 0.74712 0.0
H4167 H 0.14616 0.89164 0.73186 0.0
H4168 H 0.13826 0.88754 0.71988 0.0
H4169 H 0.12316 0.87619 0.70043 0.0
H4170 H 0.12328 0.89559 0.71808 0.0
O4171 O 0.11367 0.87763 0.72154 0.0
H4172 H 0.12154 0.88601 0.68955 0.0
H4173 H 0.12177 0.90555 0.70712 0.0
C4174 C 0.12584 0.86784 0.71444 0.0
C4175 C 0.11992 0.86172 0.71424 0.0
C4176 C 0.1215 0.85437 0.71032 0.0
C4177 C 0.12902 0.85301 0.70648 0.0
C4178 C 0.13507 0.85904 0.707 0.0
C4179 C 0.13349 0.8664 0.71098 0.0
C4180 C 0.12963 0.88032 0.7267 0.0
C4181 C 0.12761 0.87731 0.7344 0.0
C4182 C 0.13211 0.87959 0.74122 0.0
C4183 C 0.13877 0.8849 0.74046 0.0
C4184 C 0.14099 0.88764 0.73266 0.0
C4185 C 0.13649 0.8853 0.72581 0.0
C4186 C 0.12357 0.88515 0.71009 0.0
C4187 C 0.12311 0.88258 0.70197 0.0
C4188 C 0.12218 0.88823 0.69572 0.0
C4189 C 0.12157 0.89659 0.69744 0.0
C4190 C 0.12219 0.89916 0.70558 0.0
C4191 C 0.12313 0.89348 0.71185 0.0
P4192 P 0.37185 0.8724 0.96778 0.0
H4193 H 0.38815 0.86549 0.96947 0.0
H4194 H 0.40086 0.86842 0.96252 0.0
H4195 H 0.39008 0.88993 0.95192 0.0
H4196 H 0.37724 0.88678 0.95877 0.0
H4197 H 0.35783 0.86955 0.97798 0.0
H4198 H 0.35312 0.87558 0.99066 0.0
H4199 H 0.37297 0.89277 0.98983 0.0
H4200 H 0.37747 0.88688 0.97692 0.0
H4201 H 0.37433 0.8672 0.95119 0.0
H4202 H 0.35474 0.87772 0.96511 0.0
O4203 O 0.37266 0.86267 0.97054 0.0
H4204 H 0.3654 0.86602 0.93945 0.0
H4205 H 0.3457 0.87641 0.95336 0.0
C4206 C 0.38172 0.87585 0.96453 0.0
C4207 C 0.38856 0.87094 0.9658 0.0
C4208 C 0.39587 0.87266 0.96184 0.0
C4209 C 0.39648 0.87936 0.95656 0.0
C4210 C 0.38978 0.88463 0.95582 0.0
C4211 C 0.38245 0.88288 0.95978 0.0
C4212 C 0.36796 0.87778 0.97648 0.0
C4213 C 0.36107 0.87472 0.98044 0.0
C4214 C 0.35845 0.87812 0.98775 0.0
C4215 C 0.36274 0.88459 0.99134 0.0
C4216 C 0.3695 0.88784 0.98721 0.0
C4217 C 0.37209 0.88445 0.97983 0.0
C4218 C 0.36525 0.87259 0.95903 0.0
C4219 C 0.36814 0.86938 0.95169 0.0
C4220 C 0.36303 0.86873 0.94496 0.0
C4221 C 0.35485 0.87115 0.94547 0.0
C4222 C 0.35197 0.87446 0.95281 0.0
C4223 C 0.35715 0.87521 0.95954 0.0
P4224 P 0.37736 0.87874 0.28368 0.0
H4225 H 0.38362 0.86225 0.28145 0.0
H4226 H 0.38065 0.84957 0.28845 0.0
H4227 H 0.36006 0.86091 0.30022 0.0
H4228 H 0.36325 0.87371 0.2933 0.0
H4229 H 0.38004 0.89308 0.27388 0.0
H4230 H 0.37415 0.89791 0.26119 0.0
H4231 H 0.35741 0.87766 0.26127 0.0
H4232 H 0.36316 0.87303 0.2742 0.0
H4233 H 0.38351 0.87643 0.29994 0.0
H4234 H 0.37141 0.89558 0.28671 0.0
O4235 O 0.38705 0.87772 0.28085 0.0
H4236 H 0.38472 0.8853 0.31174 0.0
H4237 H 0.37277 0.90457 0.29851 0.0
C4238 C 0.37374 0.86895 0.28698 0.0
C4239 C 0.37836 0.86197 0.28539 0.0
C4240 C 0.37661 0.85468 0.28937 0.0
C4241 C 0.37018 0.85423 0.295 0.0
C4242 C 0.36515 0.86109 0.29605 0.0
C4243 C 0.36692 0.86839 0.29205 0.0
C4244 C 0.37201 0.88275 0.27502 0.0
C4245 C 0.37498 0.88978 0.27126 0.0
C4246 C 0.37167 0.89248 0.26395 0.0
C4247 C 0.36538 0.88811 0.26014 0.0
C4248 C 0.3622 0.8812 0.26407 0.0
C4249 C 0.36551 0.87853 0.27145 0.0
C4250 C 0.37738 0.88532 0.29243 0.0
C4251 C 0.38103 0.88252 0.2996 0.0
C4252 C 0.38169 0.88759 0.30636 0.0
C4253 C 0.37881 0.89562 0.30606 0.0
C4254 C 0.37506 0.89842 0.29889 0.0
C4255 C 0.3743 0.89328 0.29214 0.0
P4256 P 0.37121 0.12729 0.53238 0.0
H4257 H 0.38761 0.13397 0.53086 0.0
H4258 H 0.40016 0.1311 0.53811 0.0
H4259 H 0.38886 0.11021 0.54937 0.0
H4260 H 0.37616 0.11331 0.5422 0.0
H4261 H 0.35523 0.12682 0.5249 0.0
H4262 H 0.35003 0.12014 0.51275 0.0
H4263 H 0.37313 0.10799 0.50961 0.0
H4264 H 0.37816 0.11446 0.52201 0.0
H4265 H 0.37226 0.13807 0.54613 0.0
H4266 H 0.35634 0.11877 0.53824 0.0
O4267 O 0.37233 0.13653 0.52835 0.0
H4268 H 0.36394 0.14 0.55827 0.0
H4269 H 0.3478 0.12091 0.55031 0.0
C4270 C 0.38094 0.12389 0.53606 0.0
C4271 C 0.38787 0.12867 0.53475 0.0
C4272 C 0.39508 0.12698 0.53888 0.0
C4273 C 0.39552 0.12046 0.5444 0.0
C4274 C 0.3887 0.11535 0.54527 0.0
C4275 C 0.38146 0.11707 0.54113 0.0
C4276 C 0.36701 0.12099 0.52449 0.0
C4277 C 0.35908 0.1225 0.52176 0.0
C4278 C 0.35616 0.11876 0.51473 0.0
C4279 C 0.36119 0.11358 0.51014 0.0
C4280 C 0.36905 0.11186 0.51304 0.0
C4281 C 0.37195 0.11557 0.52014 0.0
C4282 C 0.36481 0.12843 0.54119 0.0
C4283 C 0.36693 0.13428 0.54698 0.0
C4284 C 0.36221 0.13535 0.55394 0.0
C4285 C 0.35523 0.13061 0.5552 0.0
C4286 C 0.35312 0.12468 0.54943 0.0
C4287 C 0.35797 0.1235 0.54251 0.0
P4288 P 0.12413 0.12212 0.7827 0.0
H4289 H 0.11829 0.13879 0.78076 0.0
H4290 H 0.12137 0.15121 0.78817 0.0
H4291 H 0.14142 0.1391 0.8001 0.0
H4292 H 0.13811 0.12656 0.79277 0.0
H4293 H 0.12221 0.10728 0.77347 0.0
H4294 H 0.12828 0.10235 0.76089 0.0
H4295 H 0.14389 0.12348 0.76017 0.0
H4296 H 0.13797 0.12821 0.77299 0.0
H4297 H 0.11615 0.1239 0.79818 0.0
H4298 H 0.13092 0.10571 0.78639 0.0
O4299 O 0.11461 0.12346 0.77947 0.0
H4300 H 0.11453 0.11501 0.80994 0.0
H4301 H 0.12912 0.09667 0.7981 0.0
C4302 C 0.12789 0.13173 0.78633 0.0
C4303 C 0.12346 0.13884 0.78483 0.0
C4304 C 0.12528 0.14598 0.78905 0.0
C4305 C 0.13158 0.14614 0.79483 0.0
C4306 C 0.13643 0.13915 0.79581 0.0
C4307 C 0.13459 0.132 0.79158 0.0
C4308 C 0.12972 0.11803 0.77423 0.0
C4309 C 0.12709 0.11074 0.77072 0.0
C4310 C 0.1305 0.10799 0.76346 0.0
C4311 C 0.1365 0.11257 0.75945 0.0
C4312 C 0.13933 0.11977 0.76313 0.0
C4313 C 0.13593 0.12249 0.77046 0.0
C4314 C 0.12356 0.11545 0.79137 0.0
C4315 C 0.11907 0.118 0.79813 0.0
C4316 C 0.11819 0.11293 0.80487 0.0
C4317 C 0.12171 0.10515 0.80493 0.0
C4318 C 0.1263 0.10262 0.79818 0.0
C4319 C 0.1273 0.10778 0.79147 0.0
P4320 P 0.12868 0.87375 0.03328 0.0
H4321 H 0.11214 0.86754 0.03131 0.0
H4322 H 0.09958 0.87055 0.03851 0.0
H4323 H 0.11117 0.89114 0.05005 0.0
H4324 H 0.12384 0.88791 0.04291 0.0
H4325 H 0.14295 0.87107 0.02338 0.0
H4326 H 0.14775 0.87705 0.01071 0.0
H4327 H 0.12758 0.89389 0.01103 0.0
H4328 H 0.12297 0.88804 0.02393 0.0
H4329 H 0.12645 0.8675 0.0495 0.0
H4330 H 0.14558 0.87959 0.03624 0.0
O4331 O 0.12757 0.86409 0.03038 0.0
H4332 H 0.13537 0.86623 0.06127 0.0
H4333 H 0.15463 0.87815 0.04799 0.0
C4334 C 0.11895 0.87742 0.0367 0.0
C4335 C 0.11194 0.87281 0.03524 0.0
C4336 C 0.10472 0.87459 0.03934 0.0
C4337 C 0.10438 0.88103 0.04496 0.0
C4338 C 0.11126 0.88604 0.04588 0.0
C4339 C 0.11849 0.88425 0.04177 0.0
C4340 C 0.13266 0.87915 0.02463 0.0
C4341 C 0.13966 0.87617 0.02081 0.0
C4342 C 0.14234 0.87954 0.01352 0.0
C4343 C 0.13799 0.88588 0.00978 0.0
C4344 C 0.1311 0.88905 0.01377 0.0
C4345 C 0.12845 0.88569 0.02114 0.0
C4346 C 0.13533 0.87363 0.04198 0.0
C4347 C 0.13255 0.86996 0.04915 0.0
C4348 C 0.13764 0.86926 0.05588 0.0
C4349 C 0.14568 0.87212 0.05555 0.0
C4350 C 0.14846 0.87587 0.04839 0.0
C4351 C 0.14329 0.87667 0.04166 0.0
P4352 P 0.2193 0.37867 0.12325 0.0
H4353 H 0.22111 0.38424 0.14001 0.0
H4354 H 0.21363 0.38106 0.15235 0.0
H4355 H 0.20147 0.36137 0.13987 0.0
H4356 H 0.20881 0.36484 0.1274 0.0
H4357 H 0.23341 0.38354 0.11392 0.0
H4358 H 0.24528 0.3763 0.10892 0.0
H4359 H 0.2359 0.35393 0.11904 0.0
H4360 H 0.22403 0.36134 0.12422 0.0
H4361 H 0.20227 0.38306 0.12476 0.0
H4362 H 0.21854 0.37571 0.10555 0.0
O4363 O 0.2223 0.38825 0.12472 0.0
H4364 H 0.19147 0.38518 0.11486 0.0
H4365 H 0.2077 0.3778 0.09557 0.0
C4366 C 0.21541 0.37487 0.13276 0.0
C4367 C 0.21695 0.37914 0.13996 0.0
C4368 C 0.2127 0.37726 0.14706 0.0
C4369 C 0.20685 0.37101 0.1471 0.0
C4370 C 0.2058 0.36632 0.14001 0.0
C4371 C 0.21005 0.36825 0.13289 0.0
C4372 C 0.22792 0.37301 0.11957 0.0
C4373 C 0.23391 0.37708 0.1151 0.0
C4374 C 0.24067 0.3729 0.11216 0.0
C4375 C 0.24155 0.36451 0.11356 0.0
C4376 C 0.23545 0.36041 0.11795 0.0
C4377 C 0.22865 0.36462 0.12089 0.0
C4378 C 0.21116 0.37906 0.11593 0.0
C4379 C 0.20346 0.38171 0.11843 0.0
C4380 C 0.19728 0.38291 0.11275 0.0
C4381 C 0.1987 0.38161 0.10443 0.0
C4382 C 0.20642 0.37888 0.10194 0.0
C4383 C 0.21261 0.37763 0.10765 0.0
P4384 P 0.71782 0.12352 0.87963 0.0
H4385 H 0.72474 0.11974 0.86377 0.0
H4386 H 0.71942 0.12125 0.84999 0.0
H4387 H 0.69922 0.13519 0.85941 0.0
H4388 H 0.70482 0.13398 0.8731 0.0
H4389 H 0.73008 0.12033 0.89183 0.0
H4390 H 0.74183 0.12794 0.89659 0.0
H4391 H 0.73486 0.1482 0.88135 0.0
H4392 H 0.72314 0.14037 0.87645 0.0
H4393 H 0.70172 0.11694 0.87692 0.0
H4394 H 0.71453 0.12862 0.89659 0.0
O4395 O 0.72137 0.11403 0.87908 0.0
H4396 H 0.68987 0.11516 0.88562 0.0
H4397 H 0.70265 0.12674 0.90542 0.0
C4398 C 0.71501 0.12648 0.86946 0.0
C4399 C 0.71927 0.12328 0.86283 0.0
C4400 C 0.71619 0.12411 0.85496 0.0
C4401 C 0.70875 0.12813 0.85361 0.0
C4402 C 0.70494 0.13203 0.86021 0.0
C4403 C 0.7081 0.13127 0.86807 0.0
C4404 C 0.72584 0.12974 0.8837 0.0
C4405 C 0.73105 0.12643 0.88956 0.0
C4406 C 0.73774 0.13083 0.89233 0.0
C4407 C 0.73933 0.13869 0.88935 0.0
C4408 C 0.73388 0.14212 0.88369 0.0
C4409 C 0.72717 0.13768 0.88091 0.0
C4410 C 0.70894 0.12308 0.88603 0.0
C4411 C 0.70193 0.11927 0.88307 0.0
C4412 C 0.69515 0.11826 0.88806 0.0
C4413 C 0.6953 0.12089 0.89618 0.0
C4414 C 0.70236 0.12468 0.89918 0.0
C4415 C 0.70914 0.12578 0.89412 0.0
P4416 P 0.12641 0.4679 0.12983 0.0
H4417 H 0.13339 0.47019 0.11361 0.0
H4418 H 0.13125 0.46302 0.10085 0.0
H4419 H 0.1108 0.45034 0.11142 0.0
H4420 H 0.11314 0.45745 0.1243 0.0
H4421 H 0.12748 0.47802 0.14419 0.0
H4422 H 0.11996 0.48996 0.14873 0.0
H4423 H 0.10385 0.48766 0.12812 0.0
H4424 H 0.11141 0.47564 0.12361 0.0
H4425 H 0.134 0.45225 0.12755 0.0
H4426 H 0.1205 0.46426 0.14657 0.0
O4427 O 0.13577 0.47178 0.12917 0.0
H4428 H 0.13587 0.44044 0.1363 0.0
H4429 H 0.12253 0.45247 0.15545 0.0
C4430 C 0.12348 0.46426 0.11992 0.0
C4431 C 0.12833 0.466 0.11314 0.0
C4432 C 0.12707 0.46191 0.10581 0.0
C4433 C 0.12091 0.45602 0.10512 0.0
C4434 C 0.11569 0.45473 0.11178 0.0
C4435 C 0.11697 0.45883 0.11912 0.0
C4436 C 0.11995 0.47588 0.13362 0.0
C4437 C 0.12221 0.47997 0.14075 0.0
C4438 C 0.11789 0.48679 0.14335 0.0
C4439 C 0.11129 0.48975 0.1388 0.0
C4440 C 0.10893 0.48554 0.13173 0.0
C4441 C 0.11322 0.47864 0.12917 0.0
C4442 C 0.12709 0.45914 0.13637 0.0
C4443 C 0.13137 0.45232 0.13359 0.0
C4444 C 0.13241 0.44556 0.13858 0.0
C4445 C 0.12931 0.44552 0.14654 0.0
C4446 C 0.125 0.45236 0.14934 0.0
C4447 C 0.12385 0.45911 0.14427 0.0
P4448 P 0.78149 0.87661 0.37965 0.0
H4449 H 0.78013 0.8828 0.36304 0.0
H4450 H 0.78792 0.88003 0.35079 0.0
H4451 H 0.80011 0.86021 0.36302 0.0
H4452 H 0.79235 0.86318 0.3754 0.0
H4453 H 0.7756 0.87429 0.39619 0.0
H4454 H 0.76391 0.86702 0.40166 0.0
H4455 H 0.75886 0.85729 0.37778 0.0
H4456 H 0.7708 0.86433 0.37243 0.0
H4457 H 0.79227 0.89044 0.38053 0.0
H4458 H 0.78976 0.86735 0.39269 0.0
O4459 O 0.77652 0.88532 0.3781 0.0
H4460 H 0.80436 0.89342 0.38859 0.0
H4461 H 0.80184 0.8704 0.40095 0.0
C4462 C 0.78572 0.87323 0.37014 0.0
C4463 C 0.78434 0.87774 0.36305 0.0
C4464 C 0.78879 0.87611 0.35601 0.0
C4465 C 0.7947 0.86993 0.35592 0.0
C4466 C 0.79569 0.86509 0.36292 0.0
C4467 C 0.79122 0.86673 0.36997 0.0
C4468 C 0.77421 0.86968 0.38395 0.0
C4469 C 0.77217 0.87034 0.39219 0.0
C4470 C 0.7654 0.86627 0.39529 0.0
C4471 C 0.76038 0.86163 0.39014 0.0
C4472 C 0.76263 0.86072 0.38194 0.0
C4473 C 0.76947 0.86475 0.37886 0.0
C4474 C 0.78998 0.87879 0.38619 0.0
C4475 C 0.79425 0.88606 0.38503 0.0
C4476 C 0.8012 0.88773 0.38959 0.0
C4477 C 0.80401 0.88214 0.3954 0.0
C4478 C 0.79973 0.87484 0.39657 0.0
C4479 C 0.79282 0.87312 0.39189 0.0
P4480 P 0.87412 0.03249 0.12901 0.0
H4481 H 0.86769 0.03085 0.11252 0.0
H4482 H 0.87074 0.03806 0.1 0.0
H4483 H 0.8916 0.04918 0.1115 0.0
H4484 H 0.88832 0.04206 0.12417 0.0
H4485 H 0.87321 0.02419 0.14452 0.0
H4486 H 0.87953 0.01186 0.14974 0.0
H4487 H 0.8936 0.00978 0.12764 0.0
H4488 H 0.88748 0.02236 0.12261 0.0
H4489 H 0.86505 0.04735 0.12721 0.0
H4490 H 0.88166 0.03724 0.14481 0.0
O4491 O 0.86469 0.02893 0.12784 0.0
H4492 H 0.86336 0.05941 0.1357 0.0
H4493 H 0.87976 0.04923 0.15348 0.0
C4494 C 0.87772 0.036 0.1193 0.0
C4495 C 0.87303 0.03469 0.11232 0.0
C4496 C 0.87483 0.0388 0.10511 0.0
C4497 C 0.88138 0.04429 0.10474 0.0
C4498 C 0.88643 0.04511 0.11161 0.0
C4499 C 0.88461 0.041 0.11883 0.0
C4500 C 0.87999 0.0243 0.13326 0.0
C4501 C 0.87784 0.02122 0.1409 0.0
C4502 C 0.88138 0.01409 0.14383 0.0
C4503 C 0.88702 0.00976 0.13907 0.0
C4504 C 0.88936 0.013 0.1315 0.0
C4505 C 0.88584 0.0202 0.12861 0.0
C4506 C 0.87335 0.04133 0.13543 0.0
C4507 C 0.86833 0.04772 0.13291 0.0
C4508 C 0.8674 0.05462 0.13774 0.0
C4509 C 0.87143 0.05523 0.14524 0.0
C4510 C 0.87654 0.04886 0.14775 0.0
C4511 C 0.87759 0.042 0.14281 0.0
P4512 P 0.28139 0.62295 0.62307 0.0
H4513 H 0.28051 0.61624 0.63949 0.0
H4514 H 0.28823 0.61905 0.65177 0.0
H4515 H 0.29945 0.6397 0.64 0.0
H4516 H 0.29176 0.63669 0.62758 0.0
H4517 H 0.27557 0.62542 0.60654 0.0
H4518 H 0.26391 0.63275 0.60108 0.0
H4519 H 0.25874 0.64226 0.62502 0.0
H4520 H 0.27065 0.63515 0.63037 0.0
H4521 H 0.29204 0.60904 0.62181 0.0
H4522 H 0.28975 0.63247 0.61028 0.0
O4523 O 0.27643 0.61422 0.62452 0.0
H4524 H 0.30401 0.60609 0.61354 0.0
H4525 H 0.30172 0.62947 0.60183 0.0
C4526 C 0.2856 0.62624 0.63261 0.0
C4527 C 0.28449 0.62148 0.63959 0.0
C4528 C 0.28889 0.62313 0.64665 0.0
C4529 C 0.29451 0.62958 0.64688 0.0
C4530 C 0.29525 0.63462 0.64 0.0
C4531 C 0.29083 0.63296 0.63292 0.0
C4532 C 0.27412 0.62991 0.61881 0.0
C4533 C 0.27212 0.62933 0.61055 0.0
C4534 C 0.26536 0.63343 0.60746 0.0
C4535 C 0.26033 0.63803 0.61262 0.0
C4536 C 0.26253 0.63886 0.62085 0.0
C4537 C 0.26935 0.63479 0.62392 0.0
C4538 C 0.28987 0.62086 0.61648 0.0
C4539 C 0.29406 0.61351 0.61741 0.0
C4540 C 0.30093 0.61186 0.61273 0.0
C4541 C 0.30377 0.61755 0.60704 0.0
C4542 C 0.29959 0.62495 0.60612 0.0
C4543 C 0.29275 0.62665 0.61091 0.0
P4544 P 0.1286 0.53219 0.3733 0.0
H4545 H 0.13475 0.53065 0.3899 0.0
H4546 H 0.1314 0.53781 0.40237 0.0
H4547 H 0.11056 0.54864 0.39054 0.0
H4548 H 0.11418 0.54164 0.37793 0.0
H4549 H 0.13403 0.51801 0.36434 0.0
H4550 H 0.12716 0.5059 0.35937 0.0
H4551 H 0.10434 0.51502 0.3687 0.0
H4552 H 0.11136 0.52712 0.37385 0.0
H4553 H 0.13114 0.54959 0.3752 0.0
H4554 H 0.1264 0.53291 0.35552 0.0
O4555 O 0.13834 0.52962 0.37453 0.0
H4556 H 0.13247 0.56069 0.36553 0.0
H4557 H 0.12778 0.54407 0.34575 0.0
C4558 C 0.12479 0.53571 0.38295 0.0
C4559 C 0.12936 0.53443 0.39002 0.0
C4560 C 0.12739 0.53851 0.3972 0.0
C4561 C 0.12076 0.54391 0.39746 0.0
C4562 C 0.1158 0.54465 0.39052 0.0
C4563 C 0.11781 0.54059 0.38332 0.0
C4564 C 0.12325 0.52339 0.36961 0.0
C4565 C 0.12756 0.5174 0.36537 0.0
C4566 C 0.12359 0.5105 0.36244 0.0
C4567 C 0.11519 0.50948 0.36362 0.0
C4568 C 0.11084 0.51557 0.36777 0.0
C4569 C 0.11484 0.5225 0.37071 0.0
C4570 C 0.12845 0.54045 0.36612 0.0
C4571 C 0.13017 0.54834 0.36881 0.0
C4572 C 0.13093 0.55471 0.36326 0.0
C4573 C 0.13015 0.55328 0.35487 0.0
C4574 C 0.1284 0.54536 0.35217 0.0
C4575 C 0.12756 0.53898 0.35776 0.0
P4576 P 0.37398 0.47045 0.87179 0.0
H4577 H 0.36638 0.46984 0.8878 0.0
H4578 H 0.36912 0.46176 0.89986 0.0
H4579 H 0.39073 0.45208 0.88848 0.0
H4580 H 0.38789 0.46023 0.87631 0.0
H4581 H 0.37861 0.47491 0.85522 0.0
H4582 H 0.3865 0.48623 0.84988 0.0
H4583 H 0.39306 0.49315 0.87436 0.0
H4584 H 0.38537 0.48158 0.87965 0.0
H4585 H 0.35838 0.4639 0.86654 0.0
H4586 H 0.38374 0.45949 0.8616 0.0
O4587 O 0.36573 0.47611 0.8735 0.0
H4588 H 0.35461 0.45302 0.85723 0.0
H4589 H 0.38001 0.44857 0.85215 0.0
C4590 C 0.37693 0.46564 0.88115 0.0
C4591 C 0.3718 0.46612 0.88793 0.0
C4592 C 0.37341 0.46151 0.89487 0.0
C4593 C 0.38015 0.45626 0.89515 0.0
C4594 C 0.38545 0.45601 0.88843 0.0
C4595 C 0.38386 0.46068 0.88149 0.0
C4596 C 0.38154 0.47728 0.86783 0.0
C4597 C 0.382 0.47866 0.85943 0.0
C4598 C 0.38643 0.48522 0.85639 0.0
C4599 C 0.39034 0.49067 0.86169 0.0
C4600 C 0.39021 0.48903 0.87009 0.0
C4601 C 0.38581 0.48241 0.87313 0.0
C4602 C 0.37133 0.46259 0.86465 0.0
C4603 C 0.36315 0.46065 0.86337 0.0
C4604 C 0.361 0.45444 0.85801 0.0
C4605 C 0.36701 0.44999 0.85387 0.0
C4606 C 0.37524 0.45188 0.85526 0.0
C4607 C 0.37738 0.45812 0.86063 0.0
P4608 P 0.88233 0.7909 0.64744 0.0
H4609 H 0.86619 0.79406 0.65433 0.0
H4610 H 0.85346 0.7989 0.64827 0.0
H4611 H 0.86467 0.7984 0.62452 0.0
H4612 H 0.87734 0.79367 0.6306 0.0
H4613 H 0.89248 0.78029 0.65728 0.0
H4614 H 0.8948 0.76561 0.65726 0.0
H4615 H 0.87794 0.76302 0.63728 0.0
H4616 H 0.87576 0.77771 0.63725 0.0
H4617 H 0.88843 0.80745 0.6482 0.0
H4618 H 0.8932 0.78584 0.63416 0.0
O4619 O 0.8825 0.79412 0.65706 0.0
H4620 H 0.89768 0.81517 0.63954 0.0
H4621 H 0.90259 0.79349 0.62553 0.0
C4622 C 0.87276 0.79369 0.64294 0.0
C4623 C 0.86589 0.79497 0.64781 0.0
C4624 C 0.85861 0.79768 0.64434 0.0
C4625 C 0.8581 0.79914 0.63593 0.0
C4626 C 0.86492 0.79751 0.63104 0.0
C4627 C 0.87217 0.79478 0.63451 0.0
C4628 C 0.88384 0.78007 0.64738 0.0
C4629 C 0.88925 0.77655 0.65293 0.0
C4630 C 0.89055 0.76815 0.65293 0.0
C4631 C 0.8865 0.76313 0.64731 0.0
C4632 C 0.88118 0.76672 0.64166 0.0
C4633 C 0.87988 0.77512 0.64168 0.0
C4634 C 0.89025 0.79605 0.64192 0.0
C4635 C 0.89165 0.80432 0.64338 0.0
C4636 C 0.89695 0.80872 0.63842 0.0
C4637 C 0.90089 0.80495 0.63184 0.0
C4638 C 0.89961 0.79659 0.63051 0.0
C4639 C 0.8943 0.79219 0.63549 0.0
P4640 P 0.96019 0.1327 0.39647 0.0
H4641 H 0.95466 0.11825 0.4053 0.0
H4642 H 0.9494 0.1051 0.40073 0.0
H4643 H 0.95386 0.11203 0.37579 0.0
H4644 H 0.95911 0.12515 0.3804 0.0
H4645 H 0.97063 0.14432 0.40465 0.0
H4646 H 0.98533 0.14657 0.40461 0.0
H4647 H 0.98829 0.12658 0.38783 0.0
H4648 H 0.9736 0.12443 0.38784 0.0
H4649 H 0.9438 0.13925 0.39652 0.0
H4650 H 0.96544 0.14171 0.38194 0.0
O4651 O 0.95693 0.13415 0.40597 0.0
H4652 H 0.93641 0.14805 0.38713 0.0
H4653 H 0.95814 0.15067 0.37257 0.0
C4654 C 0.95719 0.1227 0.39318 0.0
C4655 C 0.95457 0.11691 0.39886 0.0
C4656 C 0.95154 0.10941 0.39624 0.0
C4657 C 0.95118 0.10755 0.3879 0.0
C4658 C 0.95412 0.11326 0.38226 0.0
C4659 C 0.95708 0.12078 0.38488 0.0
C4660 C 0.97104 0.13413 0.39637 0.0
C4661 C 0.97446 0.14039 0.401 0.0
C4662 C 0.98286 0.14166 0.40099 0.0
C4663 C 0.98799 0.13671 0.39627 0.0
C4664 C 0.9845 0.13052 0.3915 0.0
C4665 C 0.97609 0.12925 0.39154 0.0
C4666 C 0.95519 0.13997 0.39001 0.0
C4667 C 0.94701 0.14184 0.39138 0.0
C4668 C 0.9428 0.14689 0.38601 0.0
C4669 C 0.94669 0.15011 0.37912 0.0
C4670 C 0.95495 0.14826 0.3778 0.0
C4671 C 0.95915 0.1432 0.38319 0.0
P4672 P 0.61891 0.20955 0.14724 0.0
H4673 H 0.63369 0.20452 0.15582 0.0
H4674 H 0.64683 0.19945 0.15105 0.0
H4675 H 0.63922 0.20322 0.1262 0.0
H4676 H 0.6261 0.2083 0.13101 0.0
H4677 H 0.60735 0.2199 0.15563 0.0
H4678 H 0.6049 0.23455 0.15555 0.0
H4679 H 0.62433 0.23766 0.13815 0.0
H4680 H 0.62669 0.223 0.1382 0.0
H4681 H 0.61242 0.19315 0.14787 0.0
H4682 H 0.60968 0.21434 0.13268 0.0
O4683 O 0.61775 0.2064 0.15681 0.0
H4684 H 0.60351 0.18546 0.13882 0.0
H4685 H 0.60063 0.20672 0.12365 0.0
C4686 C 0.62889 0.2067 0.14376 0.0
C4687 C 0.63487 0.20432 0.14935 0.0
C4688 C 0.64237 0.2014 0.14662 0.0
C4689 C 0.64404 0.20089 0.13825 0.0
C4690 C 0.63814 0.2036 0.13268 0.0
C4691 C 0.63062 0.20645 0.13542 0.0
C4692 C 0.61729 0.22037 0.14704 0.0
C4693 C 0.61111 0.22374 0.15183 0.0
C4694 C 0.60973 0.23212 0.1518 0.0
C4695 C 0.61447 0.23728 0.1469 0.0
C4696 C 0.62055 0.23385 0.14196 0.0
C4697 C 0.62194 0.22546 0.14202 0.0
C4698 C 0.61157 0.20434 0.14103 0.0
C4699 C 0.60975 0.19619 0.14267 0.0
C4700 C 0.60464 0.19181 0.1375 0.0
C4701 C 0.60131 0.19549 0.13053 0.0
C4702 C 0.60312 0.2037 0.12894 0.0
C4703 C 0.60823 0.20808 0.13414 0.0
P4704 P 0.54113 0.87009 0.89837 0.0
H4705 H 0.54584 0.88503 0.9069 0.0
H4706 H 0.55074 0.89821 0.90205 0.0
H4707 H 0.54721 0.89035 0.87724 0.0
H4708 H 0.54227 0.87721 0.88213 0.0
H4709 H 0.53112 0.85746 0.9055 0.0
H4710 H 0.51651 0.85467 0.90518 0.0
H4711 H 0.51293 0.87549 0.88957 0.0
H4712 H 0.52752 0.8782 0.88986 0.0
H4713 H 0.55779 0.86445 0.89961 0.0
H4714 H 0.53728 0.86045 0.8838 0.0
O4715 O 0.54395 0.86914 0.90807 0.0
H4716 H 0.56626 0.85599 0.89083 0.0
H4717 H 0.54575 0.85206 0.87488 0.0
C4718 C 0.54378 0.88012 0.89486 0.0
C4719 C 0.54604 0.88617 0.90042 0.0
C4720 C 0.54887 0.89369 0.89764 0.0
C4721 C 0.54941 0.8953 0.88926 0.0
C4722 C 0.5468 0.88932 0.88373 0.0
C4723 C 0.54403 0.88179 0.88651 0.0
C4724 C 0.53039 0.86808 0.89779 0.0
C4725 C 0.52718 0.86142 0.90201 0.0
C4726 C 0.51883 0.85986 0.90185 0.0
C4727 C 0.51355 0.8649 0.8974 0.0
C4728 C 0.51684 0.87147 0.89302 0.0
C4729 C 0.52519 0.87304 0.89321 0.0
C4730 C 0.54688 0.86295 0.89243 0.0
C4731 C 0.55508 0.86163 0.89431 0.0
C4732 C 0.55993 0.85686 0.88924 0.0
C4733 C 0.55669 0.85337 0.88214 0.0
C4734 C 0.54841 0.85457 0.88036 0.0
C4735 C 0.54355 0.85937 0.88545 0.0
P4736 P 0.88269 0.20917 0.85379 0.0
H4737 H 0.86814 0.20377 0.84505 0.0
H4738 H 0.85496 0.19866 0.84969 0.0
H4739 H 0.86203 0.20314 0.87458 0.0
H4740 H 0.87519 0.20823 0.8699 0.0
H4741 H 0.89406 0.21949 0.84509 0.0
H4742 H 0.89637 0.23416 0.84491 0.0
H4743 H 0.87709 0.23738 0.86246 0.0
H4744 H 0.87486 0.22269 0.86267 0.0
H4745 H 0.88938 0.19284 0.85363 0.0
H4746 H 0.89154 0.21435 0.86844 0.0
O4747 O 0.88406 0.20581 0.84431 0.0
H4748 H 0.89814 0.18543 0.86304 0.0
H4749 H 0.90043 0.20701 0.87785 0.0
C4750 C 0.87267 0.20629 0.85714 0.0
C4751 C 0.86683 0.20371 0.8515 0.0
C4752 C 0.85931 0.20077 0.85415 0.0
C4753 C 0.85748 0.20046 0.8625 0.0
C4754 C 0.86324 0.20336 0.86811 0.0
C4755 C 0.87078 0.20623 0.86545 0.0
C4756 C 0.8842 0.22001 0.85377 0.0
C4757 C 0.8903 0.22336 0.84887 0.0
C4758 C 0.8916 0.23175 0.84875 0.0
C4759 C 0.88687 0.23694 0.85362 0.0
C4760 C 0.88086 0.23354 0.85867 0.0
C4761 C 0.87954 0.22513 0.85875 0.0
C4762 C 0.88995 0.20418 0.86025 0.0
C4763 C 0.89189 0.19602 0.85882 0.0
C4764 C 0.89692 0.19179 0.8642 0.0
C4765 C 0.90003 0.19564 0.87118 0.0
C4766 C 0.89811 0.20386 0.87256 0.0
C4767 C 0.89308 0.20809 0.86715 0.0
P4768 P 0.54087 0.13073 0.60401 0.0
H4769 H 0.54275 0.11465 0.59665 0.0
H4770 H 0.54694 0.10147 0.60216 0.0
H4771 H 0.54887 0.11221 0.62607 0.0
H4772 H 0.54447 0.12523 0.62057 0.0
H4773 H 0.53052 0.14106 0.59408 0.0
H4774 H 0.51585 0.14346 0.59382 0.0
H4775 H 0.51276 0.12622 0.61342 0.0
H4776 H 0.52745 0.12399 0.61372 0.0
H4777 H 0.55744 0.13684 0.604 0.0
H4778 H 0.53534 0.14126 0.61738 0.0
O4779 O 0.54437 0.13124 0.5945 0.0
H4780 H 0.56477 0.14613 0.61297 0.0
H4781 H 0.54258 0.15069 0.6263 0.0
C4782 C 0.54348 0.12095 0.60816 0.0
C4783 C 0.54404 0.11414 0.60308 0.0
C4784 C 0.54647 0.10662 0.60624 0.0
C4785 C 0.54831 0.10579 0.61455 0.0
C4786 C 0.54744 0.11259 0.61966 0.0
C4787 C 0.545 0.12008 0.6165 0.0
C4788 C 0.53004 0.13224 0.6038 0.0
C4789 C 0.52667 0.13776 0.59827 0.0
C4790 C 0.51828 0.1391 0.59812 0.0
C4791 C 0.51312 0.13498 0.60356 0.0
C4792 C 0.51657 0.12952 0.60918 0.0
C4793 C 0.52496 0.12819 0.60931 0.0
C4794 C 0.54583 0.13848 0.60993 0.0
C4795 C 0.55412 0.13997 0.60876 0.0
C4796 C 0.5583 0.1453 0.61388 0.0
C4797 C 0.55425 0.14919 0.62034 0.0
C4798 C 0.54589 0.14776 0.62142 0.0
C4799 C 0.54172 0.14242 0.61627 0.0
P4800 P 0.61934 0.79133 0.35345 0.0
H4801 H 0.63426 0.79597 0.34491 0.0
H4802 H 0.64743 0.80095 0.34968 0.0
H4803 H 0.63952 0.7979 0.37454 0.0
H4804 H 0.62638 0.79289 0.36972 0.0
H4805 H 0.6085 0.78091 0.34421 0.0
H4806 H 0.60626 0.76622 0.34401 0.0
H4807 H 0.62461 0.76321 0.36257 0.0
H4808 H 0.62674 0.77792 0.3628 0.0
H4809 H 0.61283 0.80773 0.3533 0.0
H4810 H 0.60994 0.78605 0.36774 0.0
O4811 O 0.61817 0.7947 0.34395 0.0
H4812 H 0.60374 0.81508 0.36244 0.0
H4813 H 0.6007 0.79333 0.37685 0.0
C4814 C 0.62931 0.79418 0.35696 0.0
C4815 C 0.63538 0.79632 0.35138 0.0
C4816 C 0.6429 0.79919 0.35412 0.0
C4817 C 0.64449 0.79987 0.36249 0.0
C4818 C 0.6385 0.79739 0.36806 0.0
C4819 C 0.63097 0.79458 0.36531 0.0
C4820 C 0.61789 0.78049 0.3534 0.0
C4821 C 0.61207 0.77708 0.3482 0.0
C4822 C 0.61082 0.76868 0.34807 0.0
C4823 C 0.61532 0.76354 0.35321 0.0
C4824 C 0.62103 0.76701 0.35855 0.0
C4825 C 0.6223 0.77542 0.35865 0.0
C4826 C 0.61193 0.79632 0.35975 0.0
C4827 C 0.61009 0.80451 0.35835 0.0
C4828 C 0.60487 0.8087 0.36357 0.0
C4829 C 0.60144 0.80478 0.37035 0.0
C4830 C 0.60327 0.79653 0.37171 0.0
C4831 C 0.60849 0.79234 0.36646 0.0
P4832 P 0.95962 0.87028 0.10293 0.0
H4833 H 0.95514 0.88532 0.09449 0.0
H4834 H 0.95008 0.89842 0.09939 0.0
H4835 H 0.95319 0.89031 0.12418 0.0
H4836 H 0.95828 0.87725 0.11924 0.0
H4837 H 0.96973 0.85844 0.09466 0.0
H4838 H 0.98434 0.8557 0.09477 0.0
H4839 H 0.98775 0.87488 0.1124 0.0
H4840 H 0.97313 0.87754 0.1123 0.0
H4841 H 0.94293 0.8647 0.10181 0.0
H4842 H 0.96359 0.86047 0.11737 0.0
O4843 O 0.95668 0.8694 0.09325 0.0
H4844 H 0.93452 0.8562 0.11059 0.0
H4845 H 0.95516 0.85203 0.12629 0.0
C4846 C 0.95699 0.88029 0.1065 0.0
C4847 C 0.95482 0.88639 0.10098 0.0
C4848 C 0.9519 0.89387 0.10378 0.0
C4849 C 0.95118 0.89538 0.11217 0.0
C4850 C 0.95373 0.88936 0.11768 0.0
C4851 C 0.9566 0.88187 0.11487 0.0
C4852 C 0.97036 0.86827 0.10336 0.0
C4853 C 0.97363 0.86207 0.09853 0.0
C4854 C 0.98198 0.86053 0.09858 0.0
C4855 C 0.98722 0.86514 0.10353 0.0
C4856 C 0.98388 0.87121 0.10854 0.0
C4857 C 0.97551 0.87277 0.10846 0.0
C4858 C 0.95391 0.86309 0.10886 0.0
C4859 C 0.94569 0.86182 0.10705 0.0
C4860 C 0.94087 0.85702 0.11212 0.0
C4861 C 0.94416 0.85346 0.11916 0.0
C4862 C 0.95247 0.8546 0.12086 0.0
C4863 C 0.95729 0.85943 0.11578 0.0
P4864 P 0.6473 0.88065 0.79138 0.0
H4865 H 0.65607 0.86609 0.79679 0.0
H4866 H 0.65143 0.85293 0.80192 0.0
H4867 H 0.62652 0.86005 0.79754 0.0
H4868 H 0.63122 0.87317 0.79235 0.0
H4869 H 0.65258 0.8941 0.78131 0.0
H4870 H 0.65215 0.89662 0.76666 0.0
H4871 H 0.6398 0.87371 0.76314 0.0
H4872 H 0.64022 0.87125 0.77777 0.0
H4873 H 0.64888 0.88673 0.80787 0.0
H4874 H 0.63241 0.88986 0.78772 0.0
O4875 O 0.65705 0.88179 0.79396 0.0
H4876 H 0.64017 0.89525 0.81636 0.0
H4877 H 0.62357 0.89831 0.79623 0.0
C4878 C 0.64397 0.87063 0.79427 0.0
C4879 C 0.64962 0.86479 0.79686 0.0
C4880 C 0.64696 0.85729 0.79982 0.0
C4881 C 0.63861 0.85547 0.80019 0.0
C4882 C 0.633 0.86123 0.79727 0.0
C4883 C 0.63566 0.86875 0.79435 0.0
C4884 C 0.64647 0.88249 0.78063 0.0
C4885 C 0.64976 0.88964 0.77738 0.0
C4886 C 0.64954 0.89105 0.76901 0.0
C4887 C 0.64598 0.88533 0.76374 0.0
C4888 C 0.64253 0.87825 0.76705 0.0
C4889 C 0.64279 0.87683 0.77543 0.0
C4890 C 0.64137 0.8878 0.79714 0.0
C4891 C 0.64345 0.88937 0.80524 0.0
C4892 C 0.63842 0.89417 0.81011 0.0
C4893 C 0.63116 0.89744 0.80698 0.0
C4894 C 0.62918 0.89598 0.79878 0.0
C4895 C 0.63422 0.89114 0.79392 0.0
P4896 P 0.86886 0.89603 0.54091 0.0
H4897 H 0.88333 0.90488 0.54635 0.0
H4898 H 0.89648 0.90034 0.5516 0.0
H4899 H 0.88955 0.87538 0.54729 0.0
H4900 H 0.87642 0.87996 0.54203 0.0
H4901 H 0.85763 0.90482 0.53052 0.0
H4902 H 0.85545 0.90506 0.51583 0.0
H4903 H 0.87482 0.88759 0.51271 0.0
H4904 H 0.8769 0.88732 0.52742 0.0
H4905 H 0.86228 0.89565 0.55728 0.0
H4906 H 0.85978 0.88169 0.53524 0.0
O4907 O 0.86736 0.90546 0.54437 0.0
H4908 H 0.85333 0.88617 0.56435 0.0
H4909 H 0.85066 0.87225 0.54223 0.0
C4910 C 0.87887 0.89275 0.5439 0.0
C4911 C 0.88466 0.89844 0.54647 0.0
C4912 C 0.89217 0.89584 0.5495 0.0
C4913 C 0.89403 0.8875 0.54991 0.0
C4914 C 0.88832 0.88184 0.547 0.0
C4915 C 0.8808 0.88445 0.54403 0.0
C4916 C 0.86752 0.89617 0.53005 0.0
C4917 C 0.86144 0.90108 0.52666 0.0
C4918 C 0.86022 0.90123 0.51826 0.0
C4919 C 0.86501 0.8964 0.51309 0.0
C4920 C 0.87101 0.89136 0.51653 0.0
C4921 C 0.87224 0.89124 0.52494 0.0
C4922 C 0.86156 0.88946 0.54571 0.0
C4923 C 0.85966 0.89063 0.55392 0.0
C4924 C 0.85452 0.88521 0.55795 0.0
C4925 C 0.85122 0.87847 0.55385 0.0
C4926 C 0.85312 0.87735 0.54558 0.0
C4927 C 0.85828 0.88279 0.54155 0.0
P4928 P 0.85318 0.11946 0.29088 0.0
H4929 H 0.84619 0.13552 0.29433 0.0
H4930 H 0.8522 0.14822 0.29923 0.0
H4931 H 0.87607 0.13732 0.29795 0.0
H4932 H 0.87002 0.12465 0.29318 0.0
H4933 H 0.84439 0.10815 0.28056 0.0
H4934 H 0.84459 0.10551 0.26593 0.0
H4935 H 0.86319 0.12381 0.26292 0.0
H4936 H 0.86304 0.12633 0.27755 0.0
H4937 H 0.85133 0.11379 0.30748 0.0
H4938 H 0.86688 0.10861 0.28703 0.0
O4939 O 0.84343 0.11946 0.29369 0.0
H4940 H 0.85957 0.1049 0.31605 0.0
H4941 H 0.87527 0.09981 0.29561 0.0
C4942 C 0.85764 0.1291 0.29355 0.0
C4943 C 0.85272 0.13589 0.29506 0.0
C4944 C 0.85617 0.14316 0.29782 0.0
C4945 C 0.86461 0.14375 0.29909 0.0
C4946 C 0.86954 0.13702 0.29721 0.0
C4947 C 0.86608 0.12977 0.29445 0.0
C4948 C 0.85361 0.11751 0.28012 0.0
C4949 C 0.8485 0.1116 0.27674 0.0
C4950 C 0.8486 0.11012 0.26837 0.0
C4951 C 0.85385 0.1145 0.26324 0.0
C4952 C 0.8591 0.1203 0.26671 0.0
C4953 C 0.85899 0.12179 0.27508 0.0
C4954 C 0.85841 0.11175 0.2966 0.0
C4955 C 0.85643 0.1106 0.3048 0.0
C4956 C 0.86119 0.10558 0.30971 0.0
C4957 C 0.86811 0.10168 0.30653 0.0
C4958 C 0.86993 0.10264 0.29822 0.0
C4959 C 0.86514 0.10767 0.29331 0.0
P4960 P 0.63175 0.10321 0.04127 0.0
H4961 H 0.61717 0.0945 0.04666 0.0
H4962 H 0.60402 0.09916 0.05181 0.0
H4963 H 0.6112 0.12405 0.04748 0.0
H4964 H 0.62433 0.11934 0.04232 0.0
H4965 H 0.64366 0.09531 0.03094 0.0
H4966 H 0.64595 0.09527 0.01626 0.0
H4967 H 0.62551 0.11146 0.01307 0.0
H4968 H 0.62332 0.11154 0.02776 0.0
H4969 H 0.63847 0.1028 0.05759 0.0
H4970 H 0.6407 0.11786 0.03626 0.0
O4971 O 0.63307 0.09368 0.04449 0.0
H4972 H 0.64735 0.11202 0.06508 0.0
H4973 H 0.64973 0.12707 0.04367 0.0
C4974 C 0.62176 0.10658 0.04421 0.0
C4975 C 0.6159 0.10095 0.04676 0.0
C4976 C 0.60839 0.10362 0.04972 0.0
C4977 C 0.6066 0.11198 0.0501 0.0
C4978 C 0.61238 0.11758 0.04721 0.0
C4979 C 0.6199 0.1149 0.04431 0.0
C4980 C 0.63326 0.10332 0.03043 0.0
C4981 C 0.63966 0.09883 0.02707 0.0
C4982 C 0.64094 0.09878 0.01868 0.0
C4983 C 0.63587 0.10331 0.01349 0.0
C4984 C 0.62955 0.10795 0.01691 0.0
C4985 C 0.62826 0.10796 0.02531 0.0
C4986 C 0.63906 0.10956 0.04633 0.0
C4987 C 0.64102 0.10801 0.05447 0.0
C4988 C 0.64612 0.11328 0.05874 0.0
C4989 C 0.6493 0.12026 0.05496 0.0
C4990 C 0.64736 0.12177 0.04677 0.0
C4991 C 0.64225 0.11647 0.0425 0.0
P4992 P 0.6469 0.12018 0.70949 0.0
H4993 H 0.6539 0.13614 0.70565 0.0
H4994 H 0.64784 0.14881 0.70071 0.0
H4995 H 0.62394 0.13809 0.70277 0.0
H4996 H 0.63004 0.12546 0.7076 0.0
H4997 H 0.6553 0.10843 0.7196 0.0
H4998 H 0.65529 0.10575 0.73422 0.0
H4999 H 0.63771 0.12497 0.73767 0.0
H5000 H 0.63768 0.12753 0.72304 0.0
H5001 H 0.64846 0.11445 0.69287 0.0
H5002 H 0.63322 0.1094 0.71359 0.0
O5003 O 0.65661 0.12012 0.70656 0.0
H5004 H 0.6401 0.10549 0.68448 0.0
H5005 H 0.62471 0.10054 0.7052 0.0
C5006 C 0.64243 0.12981 0.70683 0.0
C5007 C 0.64736 0.13655 0.70509 0.0
C5008 C 0.64388 0.1438 0.70232 0.0
C5009 C 0.63542 0.14442 0.70125 0.0
C5010 C 0.63049 0.13776 0.70337 0.0
C5011 C 0.63397 0.13053 0.70615 0.0
C5012 C 0.64659 0.11824 0.72025 0.0
C5013 C 0.65146 0.11207 0.72351 0.0
C5014 C 0.65147 0.11057 0.73187 0.0
C5015 C 0.64655 0.1152 0.73712 0.0
C5016 C 0.64153 0.12127 0.73379 0.0
C5017 C 0.64154 0.12277 0.72542 0.0
C5018 C 0.64155 0.11247 0.70387 0.0
C5019 C 0.64341 0.11128 0.69565 0.0
C5020 C 0.63857 0.10622 0.69085 0.0
C5021 C 0.63171 0.10234 0.69416 0.0
C5022 C 0.63001 0.10336 0.70248 0.0
C5023 C 0.63487 0.10842 0.70729 0.0
P5024 P 0.63091 0.89797 0.45951 0.0
H5025 H 0.61612 0.9063 0.45406 0.0
H5026 H 0.60306 0.90126 0.44903 0.0
H5027 H 0.61074 0.87662 0.4539 0.0
H5028 H 0.62378 0.8817 0.45893 0.0
H5029 H 0.64364 0.90503 0.46944 0.0
H5030 H 0.64637 0.90492 0.48406 0.0
H5031 H 0.62535 0.88963 0.48784 0.0
H5032 H 0.62267 0.88974 0.47323 0.0
H5033 H 0.63685 0.89938 0.44296 0.0
H5034 H 0.6404 0.88331 0.46335 0.0
O5035 O 0.6318 0.90767 0.45667 0.0
H5036 H 0.64538 0.89064 0.43452 0.0
H5037 H 0.64886 0.87443 0.4549 0.0
C5038 C 0.62094 0.89437 0.45681 0.0
C5039 C 0.61497 0.89982 0.45413 0.0
C5040 C 0.60752 0.89694 0.45123 0.0
C5041 C 0.6059 0.88854 0.45103 0.0
C5042 C 0.61178 0.88312 0.45404 0.0
C5043 C 0.61925 0.88601 0.45687 0.0
C5044 C 0.63291 0.89747 0.47026 0.0
C5045 C 0.63962 0.90165 0.47342 0.0
C5046 C 0.64115 0.90161 0.48177 0.0
C5047 C 0.63604 0.89732 0.48711 0.0
C5048 C 0.62943 0.89296 0.48388 0.0
C5049 C 0.62787 0.89304 0.47552 0.0
C5050 C 0.63813 0.89207 0.45381 0.0
C5051 C 0.63959 0.89403 0.44566 0.0
C5052 C 0.6444 0.88899 0.44082 0.0
C5053 C 0.64778 0.88182 0.44403 0.0
C5054 C 0.64644 0.87996 0.45227 0.0
C5055 C 0.6416 0.88502 0.45711 0.0
P5056 P 0.85284 0.88036 0.20953 0.0
H5057 H 0.84426 0.86561 0.20441 0.0
H5058 H 0.84903 0.8525 0.19927 0.0
H5059 H 0.87388 0.86008 0.20314 0.0
H5060 H 0.86906 0.87315 0.20831 0.0
H5061 H 0.84458 0.89203 0.21985 0.0
H5062 H 0.84444 0.89431 0.23453 0.0
H5063 H 0.86125 0.87438 0.23773 0.0
H5064 H 0.86143 0.8722 0.22304 0.0
H5065 H 0.85233 0.88711 0.19322 0.0
H5066 H 0.86745 0.88939 0.2145 0.0
O5067 O 0.8433 0.88157 0.20628 0.0
H5068 H 0.86147 0.89605 0.18571 0.0
H5069 H 0.8766 0.89848 0.20706 0.0
C5070 C 0.85631 0.87039 0.20663 0.0
C5071 C 0.85073 0.86443 0.20422 0.0
C5072 C 0.85346 0.85694 0.20126 0.0
C5073 C 0.86183 0.85527 0.20075 0.0
C5074 C 0.8674 0.86115 0.20351 0.0
C5075 C 0.86465 0.86865 0.20642 0.0
C5076 C 0.8529 0.88188 0.22037 0.0
C5077 C 0.84821 0.88813 0.22372 0.0
C5078 C 0.84811 0.88941 0.23211 0.0
C5079 C 0.85278 0.88448 0.23731 0.0
C5080 C 0.85762 0.8783 0.2339 0.0
C5081 C 0.85768 0.87702 0.22549 0.0
C5082 C 0.85913 0.88772 0.20446 0.0
C5083 C 0.85753 0.88968 0.19633 0.0
C5084 C 0.86276 0.89482 0.19204 0.0
C5085 C 0.86974 0.89803 0.19579 0.0
C5086 C 0.87129 0.89608 0.20398 0.0
C5087 C 0.86603 0.89094 0.20827 0.0
P5088 P 0.86756 0.10368 0.96037 0.0
H5089 H 0.88234 0.09504 0.95546 0.0
H5090 H 0.89556 0.09976 0.95052 0.0
H5091 H 0.88796 0.12465 0.95407 0.0
H5092 H 0.87477 0.11989 0.95902 0.0
H5093 H 0.85638 0.09486 0.97079 0.0
H5094 H 0.85417 0.0947 0.98549 0.0
H5095 H 0.87312 0.11264 0.98848 0.0
H5096 H 0.87523 0.11283 0.97378 0.0
H5097 H 0.86114 0.10342 0.94394 0.0
H5098 H 0.85824 0.11809 0.96546 0.0
O5099 O 0.86633 0.09416 0.95709 0.0
H5100 H 0.85222 0.11259 0.93642 0.0
H5101 H 0.84916 0.12724 0.95803 0.0
C5102 C 0.87755 0.10712 0.95751 0.0
C5103 C 0.88354 0.10151 0.95523 0.0
C5104 C 0.89108 0.10421 0.95238 0.0
C5105 C 0.89278 0.11257 0.95186 0.0
C5106 C 0.88686 0.11817 0.95446 0.0
C5107 C 0.8793 0.11546 0.95724 0.0
C5108 C 0.86606 0.10374 0.97121 0.0
C5109 C 0.86008 0.09873 0.97462 0.0
C5110 C 0.85885 0.09862 0.98302 0.0
C5111 C 0.86353 0.1036 0.98816 0.0
C5112 C 0.8694 0.10876 0.98469 0.0
C5113 C 0.87065 0.10883 0.97627 0.0
C5114 C 0.86022 0.10999 0.95528 0.0
C5115 C 0.85843 0.10853 0.94709 0.0
C5116 C 0.85331 0.11377 0.94281 0.0
C5117 C 0.84992 0.12063 0.94663 0.0
C5118 C 0.85169 0.12204 0.95489 0.0
C5119 C 0.85682 0.11677 0.95917 0.0
P5120 P 0.79089 0.64673 0.88092 0.0
H5121 H 0.79467 0.65373 0.86497 0.0
H5122 H 0.79956 0.64769 0.85227 0.0
H5123 H 0.79778 0.6238 0.86304 0.0
H5124 H 0.793 0.62987 0.87569 0.0
H5125 H 0.78055 0.65654 0.89137 0.0
H5126 H 0.76588 0.65684 0.89371 0.0
H5127 H 0.76273 0.6376 0.8761 0.0
H5128 H 0.77741 0.63725 0.8739 0.0
H5129 H 0.80741 0.64684 0.88714 0.0
H5130 H 0.78527 0.63356 0.89166 0.0
O5131 O 0.79439 0.65624 0.88126 0.0
H5132 H 0.81471 0.63794 0.89651 0.0
H5133 H 0.79249 0.62471 0.90118 0.0
C5134 C 0.79366 0.64226 0.87132 0.0
C5135 C 0.7953 0.64719 0.86457 0.0
C5136 C 0.79805 0.64373 0.8573 0.0
C5137 C 0.79917 0.63527 0.85668 0.0
C5138 C 0.79715 0.63034 0.86337 0.0
C5139 C 0.7944 0.63381 0.87061 0.0
C5140 C 0.78005 0.64698 0.88236 0.0
C5141 C 0.77669 0.65243 0.88797 0.0
C5142 C 0.76829 0.65261 0.88928 0.0
C5143 C 0.76312 0.64728 0.88505 0.0
C5144 C 0.76654 0.64175 0.87949 0.0
C5145 C 0.77494 0.64159 0.87818 0.0
C5146 C 0.79578 0.64096 0.88883 0.0
C5147 C 0.80408 0.64213 0.89032 0.0
C5148 C 0.80824 0.63705 0.89569 0.0
C5149 C 0.80418 0.63062 0.89962 0.0
C5150 C 0.79581 0.62957 0.89821 0.0
C5151 C 0.79165 0.63467 0.89283 0.0
P5152 P 0.29124 0.85426 0.12076 0.0
H5153 H 0.29494 0.84723 0.13674 0.0
H5154 H 0.29978 0.85328 0.14945 0.0
H5155 H 0.29782 0.87719 0.13875 0.0
H5156 H 0.29311 0.8711 0.12606 0.0
H5157 H 0.28107 0.84533 0.10941 0.0
H5158 H 0.26646 0.84541 0.10664 0.0
H5159 H 0.26314 0.86393 0.12498 0.0
H5160 H 0.27775 0.8639 0.12762 0.0
H5161 H 0.30797 0.85302 0.1153 0.0
H5162 H 0.28701 0.86775 0.10979 0.0
O5163 O 0.29424 0.84457 0.12068 0.0
H5164 H 0.31631 0.86147 0.10638 0.0
H5165 H 0.29534 0.87634 0.10094 0.0
C5166 C 0.29382 0.85871 0.13042 0.0
C5167 C 0.2955 0.85378 0.13716 0.0
C5168 C 0.29822 0.85724 0.14444 0.0
C5169 C 0.29929 0.86571 0.14508 0.0
C5170 C 0.29723 0.87064 0.1384 0.0
C5171 C 0.29451 0.86717 0.13115 0.0
C5172 C 0.28047 0.85451 0.1188 0.0
C5173 C 0.27718 0.84939 0.11285 0.0
C5174 C 0.26883 0.84942 0.1113 0.0
C5175 C 0.26362 0.85463 0.11564 0.0
C5176 C 0.26699 0.85988 0.1215 0.0
C5177 C 0.27535 0.85983 0.12305 0.0
C5178 C 0.29685 0.85967 0.11309 0.0
C5179 C 0.30513 0.85798 0.11204 0.0
C5180 C 0.3099 0.86287 0.107 0.0
C5181 C 0.3065 0.8696 0.10298 0.0
C5182 C 0.29813 0.87114 0.10387 0.0
C5183 C 0.29335 0.86623 0.10893 0.0
P5184 P 0.89777 0.5419 0.87041 0.0
H5185 H 0.90469 0.54623 0.88629 0.0
H5186 H 0.89847 0.551 0.89895 0.0
H5187 H 0.87464 0.54761 0.88843 0.0
H5188 H 0.88089 0.54295 0.8758 0.0
H5189 H 0.90519 0.53232 0.85761 0.0
H5190 H 0.90527 0.51778 0.85454 0.0
H5191 H 0.88984 0.51337 0.87536 0.0
H5192 H 0.88995 0.52788 0.87848 0.0
H5193 H 0.89884 0.55865 0.86495 0.0
H5194 H 0.88428 0.53755 0.85952 0.0
O5195 O 0.90744 0.54499 0.87035 0.0
H5196 H 0.89031 0.56688 0.85599 0.0
H5197 H 0.87562 0.54576 0.85065 0.0
C5198 C 0.89325 0.54439 0.88007 0.0
C5199 C 0.89813 0.54646 0.88674 0.0
C5200 C 0.89456 0.54914 0.89399 0.0
C5201 C 0.88606 0.54978 0.89466 0.0
C5202 C 0.8812 0.54734 0.88805 0.0
C5203 C 0.88477 0.54465 0.88084 0.0
C5204 C 0.89762 0.53117 0.86829 0.0
C5205 C 0.90184 0.5282 0.86152 0.0
C5206 C 0.90183 0.5199 0.85974 0.0
C5207 C 0.89756 0.5144 0.86471 0.0
C5208 C 0.89328 0.51742 0.87148 0.0
C5209 C 0.89331 0.52574 0.87324 0.0
C5210 C 0.89228 0.54747 0.86278 0.0
C5211 C 0.8939 0.55576 0.8617 0.0
C5212 C 0.88897 0.56047 0.85664 0.0
C5213 C 0.88226 0.55698 0.85263 0.0
C5214 C 0.8808 0.54861 0.85356 0.0
C5215 C 0.88575 0.5439 0.85863 0.0
P5216 P 0.20957 0.14652 0.61982 0.0
H5217 H 0.20744 0.15416 0.63574 0.0
H5218 H 0.20335 0.14882 0.64901 0.0
H5219 H 0.20221 0.12462 0.6388 0.0
H5220 H 0.2065 0.12998 0.62568 0.0
H5221 H 0.2195 0.1555 0.60831 0.0
H5222 H 0.23412 0.1559 0.60566 0.0
H5223 H 0.23798 0.1382 0.6247 0.0
H5224 H 0.22337 0.13794 0.62738 0.0
H5225 H 0.19296 0.14627 0.6138 0.0
H5226 H 0.21516 0.13303 0.60949 0.0
O5227 O 0.20599 0.15598 0.61917 0.0
H5228 H 0.1857 0.13717 0.60458 0.0
H5229 H 0.20799 0.12399 0.60012 0.0
C5230 C 0.20709 0.1425 0.62969 0.0
C5231 C 0.20634 0.14771 0.63639 0.0
C5232 C 0.20398 0.14464 0.64396 0.0
C5233 C 0.20238 0.1363 0.64497 0.0
C5234 C 0.20345 0.13107 0.63828 0.0
C5235 C 0.20582 0.13414 0.63073 0.0
C5236 C 0.22037 0.14681 0.61813 0.0
C5237 C 0.22351 0.15176 0.61195 0.0
C5238 C 0.23186 0.15192 0.6104 0.0
C5239 C 0.23722 0.1471 0.61499 0.0
C5240 C 0.23403 0.14209 0.62115 0.0
C5241 C 0.22567 0.14192 0.62267 0.0
C5242 C 0.20462 0.14042 0.61221 0.0
C5243 C 0.19631 0.14151 0.61072 0.0
C5244 C 0.19217 0.13631 0.60543 0.0
C5245 C 0.19627 0.12987 0.60158 0.0
C5246 C 0.20465 0.12886 0.60303 0.0
C5247 C 0.20877 0.13407 0.60832 0.0
P5248 P 0.10386 0.95954 0.86982 0.0
H5249 H 0.0968 0.95568 0.88573 0.0
H5250 H 0.10276 0.95058 0.89839 0.0
H5251 H 0.12667 0.95199 0.8876 0.0
H5252 H 0.12067 0.95696 0.87498 0.0
H5253 H 0.09495 0.97019 0.85891 0.0
H5254 H 0.095 0.9849 0.85681 0.0
H5255 H 0.11306 0.98749 0.87573 0.0
H5256 H 0.11308 0.97277 0.87767 0.0
H5257 H 0.10326 0.94311 0.8634 0.0
H5258 H 0.11709 0.96494 0.85906 0.0
O5259 O 0.09424 0.95633 0.86948 0.0
H5260 H 0.11188 0.93571 0.85384 0.0
H5261 H 0.12565 0.95763 0.84935 0.0
C5262 C 0.10828 0.95652 0.87937 0.0
C5263 C 0.10332 0.95491 0.88611 0.0
C5264 C 0.10674 0.95205 0.89336 0.0
C5265 C 0.11518 0.95078 0.89396 0.0
C5266 C 0.12014 0.95273 0.88727 0.0
C5267 C 0.11672 0.9556 0.88005 0.0
C5268 C 0.10391 0.9704 0.86853 0.0
C5269 C 0.09889 0.97394 0.86263 0.0
C5270 C 0.09889 0.98235 0.86147 0.0
C5271 C 0.10398 0.98738 0.86615 0.0
C5272 C 0.1091 0.98378 0.87198 0.0
C5273 C 0.10908 0.97536 0.87315 0.0
C5274 C 0.10944 0.9546 0.86182 0.0
C5275 C 0.10803 0.94635 0.86022 0.0
C5276 C 0.11295 0.94214 0.85474 0.0
C5277 C 0.11944 0.94608 0.8508 0.0
C5278 C 0.12074 0.9544 0.85232 0.0
C5279 C 0.1158 0.95861 0.85781 0.0
P5280 P 0.70937 0.3543 0.38138 0.0
H5281 H 0.70396 0.34566 0.36678 0.0
H5282 H 0.69882 0.35039 0.35364 0.0
H5283 H 0.70323 0.37524 0.36091 0.0
H5284 H 0.70837 0.37047 0.37402 0.0
H5285 H 0.71968 0.34559 0.39274 0.0
H5286 H 0.73436 0.34537 0.39503 0.0
H5287 H 0.73761 0.36263 0.37549 0.0
H5288 H 0.72292 0.36289 0.37331 0.0
H5289 H 0.69296 0.35468 0.38788 0.0
H5290 H 0.71504 0.36853 0.39065 0.0
O5291 O 0.70589 0.34487 0.38276 0.0
H5292 H 0.68586 0.36411 0.39687 0.0
H5293 H 0.70803 0.37792 0.39981 0.0
C5294 C 0.70644 0.35772 0.37141 0.0
C5295 C 0.70388 0.35212 0.36552 0.0
C5296 C 0.70092 0.35483 0.35803 0.0
C5297 C 0.70057 0.36319 0.35626 0.0
C5298 C 0.70348 0.36876 0.36206 0.0
C5299 C 0.70637 0.36605 0.36958 0.0
C5300 C 0.72022 0.35414 0.38277 0.0
C5301 C 0.72357 0.34928 0.38891 0.0
C5302 C 0.73196 0.34914 0.39019 0.0
C5303 C 0.73716 0.35394 0.3854 0.0
C5304 C 0.73376 0.3589 0.37932 0.0
C5305 C 0.72536 0.35901 0.37803 0.0
C5306 C 0.70455 0.36081 0.38873 0.0
C5307 C 0.69632 0.35966 0.39057 0.0
C5308 C 0.69228 0.36505 0.39574 0.0
C5309 C 0.69639 0.37175 0.39911 0.0
C5310 C 0.70468 0.37285 0.39728 0.0
C5311 C 0.70871 0.36744 0.3921 0.0
P5312 P 0.89721 0.45992 0.63179 0.0
H5313 H 0.90592 0.45351 0.61761 0.0
H5314 H 0.90124 0.44805 0.6046 0.0
H5315 H 0.87648 0.45392 0.61109 0.0
H5316 H 0.88121 0.45939 0.62409 0.0
H5317 H 0.90264 0.4702 0.64501 0.0
H5318 H 0.90239 0.4849 0.64723 0.0
H5319 H 0.89025 0.48814 0.62416 0.0
H5320 H 0.8905 0.47345 0.622 0.0
H5321 H 0.89803 0.44342 0.63796 0.0
H5322 H 0.88263 0.46439 0.64115 0.0
O5323 O 0.90688 0.45714 0.63311 0.0
H5324 H 0.88905 0.43544 0.6467 0.0
H5325 H 0.87355 0.45642 0.64986 0.0
C5326 C 0.8939 0.4568 0.62183 0.0
C5327 C 0.8995 0.45369 0.61621 0.0
C5328 C 0.89681 0.45055 0.60878 0.0
C5329 C 0.88849 0.45052 0.60684 0.0
C5330 C 0.88293 0.45392 0.61238 0.0
C5331 C 0.88562 0.45701 0.61982 0.0
C5332 C 0.89663 0.47073 0.63334 0.0
C5333 C 0.89992 0.47408 0.64044 0.0
C5334 C 0.8998 0.48248 0.64168 0.0
C5335 C 0.89634 0.48769 0.63585 0.0
C5336 C 0.8929 0.48428 0.6288 0.0
C5337 C 0.89307 0.47587 0.62754 0.0
C5338 C 0.89108 0.45452 0.63904 0.0
C5339 C 0.89278 0.44634 0.64066 0.0
C5340 C 0.8876 0.44177 0.6456 0.0
C5341 C 0.88058 0.4453 0.64897 0.0
C5342 C 0.87897 0.45356 0.64745 0.0
C5343 C 0.88415 0.45812 0.64247 0.0
P5344 P 0.60328 0.5416 0.12999 0.0
H5345 H 0.59636 0.5455 0.11401 0.0
H5346 H 0.60251 0.55036 0.10135 0.0
H5347 H 0.62636 0.54789 0.11209 0.0
H5348 H 0.62017 0.54317 0.12472 0.0
H5349 H 0.59415 0.53159 0.14131 0.0
H5350 H 0.59409 0.51701 0.1442 0.0
H5351 H 0.61271 0.51338 0.12601 0.0
H5352 H 0.61281 0.52797 0.12324 0.0
H5353 H 0.60223 0.55834 0.13546 0.0
H5354 H 0.61673 0.53721 0.14094 0.0
O5355 O 0.59363 0.54474 0.13004 0.0
H5356 H 0.6108 0.56658 0.14436 0.0
H5357 H 0.62544 0.54544 0.14976 0.0
C5358 C 0.6078 0.54413 0.12035 0.0
C5359 C 0.60291 0.54595 0.11361 0.0
C5360 C 0.60644 0.54868 0.10636 0.0
C5361 C 0.61492 0.54961 0.10575 0.0
C5362 C 0.6198 0.5474 0.11242 0.0
C5363 C 0.61627 0.54468 0.11964 0.0
C5364 C 0.60339 0.53084 0.13198 0.0
C5365 C 0.5982 0.52764 0.13792 0.0
C5366 C 0.59815 0.51931 0.13954 0.0
C5367 C 0.60335 0.51402 0.13529 0.0
C5368 C 0.60866 0.51729 0.12943 0.0
C5369 C 0.60868 0.52564 0.1278 0.0
C5370 C 0.60876 0.54715 0.13766 0.0
C5371 C 0.60717 0.55544 0.13872 0.0
C5372 C 0.61213 0.56016 0.14374 0.0
C5373 C 0.61884 0.55668 0.14773 0.0
C5374 C 0.62027 0.54829 0.14685 0.0
C5375 C 0.61529 0.54357 0.14181 0.0
P5376 P 0.62145 0.71881 0.87734 0.0
H5377 H 0.63789 0.72027 0.88395 0.0
H5378 H 0.65038 0.71294 0.88106 0.0
H5379 H 0.63893 0.70168 0.86024 0.0
H5380 H 0.62629 0.70894 0.86336 0.0
H5381 H 0.60528 0.72585 0.87657 0.0
H5382 H 0.5999 0.73788 0.86981 0.0
H5383 H 0.62313 0.74163 0.8581 0.0
H5384 H 0.62837 0.72937 0.86467 0.0
H5385 H 0.62207 0.70561 0.88883 0.0
H5386 H 0.60708 0.71242 0.86842 0.0
O5387 O 0.62265 0.72299 0.88651 0.0
H5388 H 0.61384 0.69342 0.89085 0.0
H5389 H 0.59862 0.7003 0.87061 0.0
C5390 C 0.63115 0.71508 0.87391 0.0
C5391 C 0.6381 0.71637 0.87866 0.0
C5392 C 0.64529 0.71219 0.87695 0.0
C5393 C 0.64566 0.70664 0.87045 0.0
C5394 C 0.63882 0.7058 0.86537 0.0
C5395 C 0.63161 0.70999 0.8671 0.0
C5396 C 0.61715 0.72659 0.87097 0.0
C5397 C 0.60913 0.7291 0.87233 0.0
C5398 C 0.6061 0.73606 0.86854 0.0
C5399 C 0.6111 0.74078 0.86346 0.0
C5400 C 0.61907 0.73809 0.86189 0.0
C5401 C 0.62208 0.73107 0.86565 0.0
C5402 C 0.61506 0.71003 0.87863 0.0
C5403 C 0.61695 0.70452 0.88483 0.0
C5404 C 0.61229 0.69753 0.88594 0.0
C5405 C 0.60559 0.69595 0.88089 0.0
C5406 C 0.60371 0.70144 0.87462 0.0
C5407 C 0.60851 0.70838 0.87341 0.0
P5408 P 0.53197 0.37208 0.12711 0.0
H5409 H 0.53051 0.38854 0.13364 0.0
H5410 H 0.53828 0.40087 0.13121 0.0
H5411 H 0.55068 0.38911 0.11124 0.0
H5412 H 0.54294 0.37665 0.11386 0.0
H5413 H 0.52626 0.35556 0.12423 0.0
H5414 H 0.51461 0.35021 0.11682 0.0
H5415 H 0.50922 0.37436 0.10797 0.0
H5416 H 0.52114 0.37959 0.11514 0.0
H5417 H 0.5426 0.37071 0.14102 0.0
H5418 H 0.54037 0.35938 0.11749 0.0
O5419 O 0.52698 0.37341 0.13584 0.0
H5420 H 0.55462 0.3625 0.14389 0.0
H5421 H 0.55238 0.35096 0.12042 0.0
C5422 C 0.5362 0.38166 0.12397 0.0
C5423 C 0.53477 0.38865 0.12862 0.0
C5424 C 0.5392 0.39574 0.12718 0.0
C5425 C 0.54517 0.39598 0.12106 0.0
C5426 C 0.54622 0.3891 0.11608 0.0
C5427 C 0.54177 0.38199 0.11752 0.0
C5428 C 0.52471 0.36793 0.12006 0.0
C5429 C 0.52277 0.35965 0.12044 0.0
C5430 C 0.51601 0.35662 0.11629 0.0
C5431 C 0.51091 0.36186 0.11186 0.0
C5432 C 0.51306 0.37012 0.11123 0.0
C5433 C 0.51989 0.37313 0.11533 0.0
C5434 C 0.54045 0.36547 0.12916 0.0
C5435 C 0.54463 0.36636 0.13652 0.0
C5436 C 0.55153 0.36172 0.13812 0.0
C5437 C 0.55441 0.35609 0.13238 0.0
C5438 C 0.55023 0.3552 0.12498 0.0
C5439 C 0.54336 0.35997 0.12332 0.0
P5440 P 0.87845 0.28275 0.3775 0.0
H5441 H 0.86202 0.28122 0.38413 0.0
H5442 H 0.8495 0.28851 0.38123 0.0
H5443 H 0.86085 0.29961 0.36027 0.0
H5444 H 0.87351 0.29241 0.36341 0.0
H5445 H 0.89364 0.2739 0.37849 0.0
H5446 H 0.89853 0.2615 0.37203 0.0
H5447 H 0.87657 0.26037 0.35764 0.0
H5448 H 0.87186 0.27301 0.36392 0.0
H5449 H 0.87675 0.29789 0.38611 0.0
H5450 H 0.89447 0.287 0.37013 0.0
O5451 O 0.87739 0.27925 0.38696 0.0
H5452 H 0.88541 0.30983 0.38763 0.0
H5453 H 0.90331 0.29889 0.37185 0.0
C5454 C 0.86872 0.28636 0.37404 0.0
C5455 C 0.86178 0.28508 0.37881 0.0
C5456 C 0.85458 0.28923 0.3771 0.0
C5457 C 0.85418 0.29474 0.37056 0.0
C5458 C 0.86099 0.29553 0.36544 0.0
C5459 C 0.86821 0.29137 0.36717 0.0
C5460 C 0.88247 0.27446 0.37158 0.0
C5461 C 0.88998 0.27111 0.37377 0.0
C5462 C 0.89271 0.26395 0.37015 0.0
C5463 C 0.8879 0.25987 0.36438 0.0
C5464 C 0.88046 0.26339 0.362 0.0
C5465 C 0.87776 0.27062 0.3656 0.0
C5466 C 0.885 0.2915 0.37811 0.0
C5467 C 0.88251 0.29807 0.38292 0.0
C5468 C 0.88744 0.3049 0.38375 0.0
C5469 C 0.89503 0.30527 0.37985 0.0
C5470 C 0.89751 0.29872 0.37496 0.0
C5471 C 0.89247 0.29191 0.37401 0.0
P5472 P 0.96867 0.62952 0.62577 0.0
H5473 H 0.9754 0.61329 0.62813 0.0
H5474 H 0.9694 0.59976 0.62685 0.0
H5475 H 0.94793 0.6104 0.61605 0.0
H5476 H 0.95409 0.62385 0.6171 0.0
H5477 H 0.97473 0.64599 0.62357 0.0
H5478 H 0.98644 0.65141 0.6163 0.0
H5479 H 0.99121 0.62758 0.60631 0.0
H5480 H 0.97924 0.6223 0.61331 0.0
H5481 H 0.95703 0.62978 0.63887 0.0
H5482 H 0.96083 0.64288 0.61648 0.0
O5483 O 0.97349 0.62856 0.63465 0.0
H5484 H 0.94484 0.6378 0.64155 0.0
H5485 H 0.94867 0.65113 0.61926 0.0
C5486 C 0.96511 0.61958 0.62291 0.0
C5487 C 0.96948 0.61268 0.62532 0.0
C5488 C 0.96602 0.60496 0.62462 0.0
C5489 C 0.95811 0.60401 0.62152 0.0
C5490 C 0.95404 0.61089 0.61846 0.0
C5491 C 0.95754 0.61861 0.61912 0.0
C5492 C 0.97598 0.63378 0.61883 0.0
C5493 C 0.9781 0.642 0.61956 0.0
C5494 C 0.98489 0.64506 0.61549 0.0
C5495 C 0.98984 0.63992 0.61078 0.0
C5496 C 0.98749 0.63175 0.60979 0.0
C5497 C 0.98064 0.6287 0.61382 0.0
C5498 C 0.95996 0.63589 0.62761 0.0
C5499 C 0.95529 0.63446 0.63458 0.0
C5500 C 0.9483 0.639 0.63607 0.0
C5501 C 0.94584 0.64509 0.63062 0.0
C5502 C 0.9505 0.64652 0.62359 0.0
C5503 C 0.95745 0.64185 0.62203 0.0
P5504 P 0.62237 0.28353 0.624 0.0
H5505 H 0.63898 0.28157 0.61798 0.0
H5506 H 0.65149 0.28878 0.62113 0.0
H5507 H 0.63966 0.30034 0.64156 0.0
H5508 H 0.62703 0.29319 0.63819 0.0
H5509 H 0.60786 0.27393 0.6215 0.0
H5510 H 0.60295 0.26128 0.62743 0.0
H5511 H 0.62342 0.26111 0.64392 0.0
H5512 H 0.62812 0.274 0.63813 0.0
H5513 H 0.62465 0.29954 0.61725 0.0
H5514 H 0.60558 0.28681 0.63001 0.0
O5515 O 0.6236 0.28053 0.61439 0.0
H5516 H 0.61585 0.31138 0.61586 0.0
H5517 H 0.59664 0.29864 0.62843 0.0
C5518 C 0.63206 0.28696 0.62777 0.0
C5519 C 0.63912 0.2855 0.62325 0.0
C5520 C 0.64631 0.28961 0.6251 0.0
C5521 C 0.64657 0.29524 0.63154 0.0
C5522 C 0.63963 0.29617 0.63647 0.0
C5523 C 0.63243 0.29204 0.6346 0.0
C5524 C 0.61829 0.27495 0.62943 0.0
C5525 C 0.61119 0.27128 0.62652 0.0
C5526 C 0.60845 0.26398 0.62986 0.0
C5527 C 0.61285 0.26011 0.63608 0.0
C5528 C 0.61984 0.26396 0.63918 0.0
C5529 C 0.62255 0.27132 0.63586 0.0
C5530 C 0.61578 0.29227 0.6237 0.0
C5531 C 0.61858 0.29931 0.61981 0.0
C5532 C 0.61356 0.30609 0.61905 0.0
C5533 C 0.60557 0.30593 0.62206 0.0
C5534 C 0.60277 0.2989 0.62603 0.0
C5535 C 0.60787 0.29213 0.6269 0.0
P5536 P 0.96823 0.3729 0.87355 0.0
H5537 H 0.97161 0.39012 0.87072 0.0
H5538 H 0.96366 0.40234 0.87341 0.0
H5539 H 0.94657 0.38811 0.8874 0.0
H5540 H 0.95456 0.37587 0.88462 0.0
H5541 H 0.97443 0.35642 0.87549 0.0
H5542 H 0.98619 0.35099 0.88263 0.0
H5543 H 0.99095 0.37475 0.89279 0.0
H5544 H 0.97891 0.38006 0.88588 0.0
H5545 H 0.95826 0.37144 0.85912 0.0
H5546 H 0.96006 0.35957 0.88242 0.0
O5547 O 0.97319 0.37515 0.86498 0.0
H5548 H 0.94668 0.36288 0.8556 0.0
H5549 H 0.94843 0.35088 0.87889 0.0
C5550 C 0.96357 0.38206 0.87731 0.0
C5551 C 0.96625 0.38965 0.8745 0.0
C5552 C 0.96171 0.39665 0.87609 0.0
C5553 C 0.95441 0.39617 0.88051 0.0
C5554 C 0.95209 0.38864 0.88384 0.0
C5555 C 0.95667 0.38165 0.88229 0.0
C5556 C 0.97564 0.3686 0.88033 0.0
C5557 C 0.97781 0.3604 0.8795 0.0
C5558 C 0.98463 0.35733 0.88349 0.0
C5559 C 0.98959 0.36245 0.88822 0.0
C5560 C 0.98723 0.37061 0.88929 0.0
C5561 C 0.98033 0.37366 0.88533 0.0
C5562 C 0.96016 0.36598 0.87093 0.0
C5563 C 0.95623 0.3669 0.86343 0.0
C5564 C 0.94957 0.36205 0.86146 0.0
C5565 C 0.94666 0.35621 0.86697 0.0
C5566 C 0.95061 0.35527 0.87449 0.0
C5567 C 0.95726 0.3602 0.8765 0.0
P5568 P 0.87954 0.71851 0.12348 0.0
H5569 H 0.86314 0.72007 0.11679 0.0
H5570 H 0.85058 0.71286 0.11966 0.0
H5571 H 0.86183 0.70163 0.1406 0.0
H5572 H 0.87454 0.70876 0.13749 0.0
H5573 H 0.89549 0.72603 0.12375 0.0
H5574 H 0.90076 0.73816 0.13041 0.0
H5575 H 0.87781 0.74127 0.14283 0.0
H5576 H 0.8727 0.72889 0.13637 0.0
H5577 H 0.87844 0.70463 0.11286 0.0
H5578 H 0.89444 0.71274 0.132 0.0
O5579 O 0.87844 0.72247 0.1142 0.0
H5580 H 0.88676 0.69247 0.11102 0.0
H5581 H 0.90298 0.70065 0.12997 0.0
C5582 C 0.86979 0.71488 0.12689 0.0
C5583 C 0.86287 0.7162 0.1221 0.0
C5584 C 0.85564 0.71209 0.12379 0.0
C5585 C 0.85519 0.70658 0.13032 0.0
C5586 C 0.862 0.70572 0.13544 0.0
C5587 C 0.86925 0.70984 0.13372 0.0
C5588 C 0.88378 0.72643 0.12971 0.0
C5589 C 0.89168 0.72917 0.12812 0.0
C5590 C 0.89465 0.73618 0.13184 0.0
C5591 C 0.88968 0.74075 0.1371 0.0
C5592 C 0.88183 0.73785 0.13889 0.0
C5593 C 0.87889 0.73077 0.1352 0.0
C5594 C 0.88592 0.70968 0.12242 0.0
C5595 C 0.88378 0.70382 0.11663 0.0
C5596 C 0.8885 0.69686 0.11562 0.0
C5597 C 0.89551 0.69565 0.12035 0.0
C5598 C 0.89763 0.70149 0.12621 0.0
C5599 C 0.89279 0.70841 0.12733 0.0
P5600 P 0.53048 0.62844 0.37279 0.0
H5601 H 0.53249 0.6134 0.36368 0.0
H5602 H 0.54035 0.60113 0.36614 0.0
H5603 H 0.54737 0.61036 0.38972 0.0
H5604 H 0.53943 0.62274 0.38717 0.0
H5605 H 0.52658 0.64477 0.37871 0.0
H5606 H 0.51541 0.64984 0.38699 0.0
H5607 H 0.50768 0.62516 0.39161 0.0
H5608 H 0.51909 0.62012 0.38353 0.0
H5609 H 0.53596 0.63538 0.35741 0.0
H5610 H 0.54241 0.63723 0.38275 0.0
O5611 O 0.52469 0.62706 0.36457 0.0
H5612 H 0.54681 0.64482 0.3539 0.0
H5613 H 0.5533 0.64681 0.37929 0.0
C5614 C 0.53531 0.61895 0.37527 0.0
C5615 C 0.53557 0.61274 0.36945 0.0
C5616 C 0.54005 0.60569 0.37089 0.0
C5617 C 0.54446 0.60474 0.37815 0.0
C5618 C 0.54407 0.61092 0.38405 0.0
C5619 C 0.53951 0.61797 0.38262 0.0
C5620 C 0.52377 0.63206 0.38063 0.0
C5621 C 0.52268 0.64043 0.38175 0.0
C5622 C 0.51621 0.64333 0.38641 0.0
C5623 C 0.51058 0.63792 0.38989 0.0
C5624 C 0.51194 0.62951 0.3891 0.0
C5625 C 0.51847 0.62661 0.38448 0.0
C5626 C 0.53832 0.63568 0.37035 0.0
C5627 C 0.53966 0.63789 0.36224 0.0
C5628 C 0.54586 0.64333 0.36025 0.0
C5629 C 0.55088 0.64663 0.36632 0.0
C5630 C 0.54956 0.64435 0.37446 0.0
C5631 C 0.54333 0.6389 0.37645 0.0
P5632 P 0.87696 0.62272 0.71832 0.0
H5633 H 0.88326 0.63928 0.71957 0.0
H5634 H 0.88009 0.65164 0.71214 0.0
H5635 H 0.85941 0.6397 0.70114 0.0
H5636 H 0.86283 0.62719 0.70848 0.0
H5637 H 0.87668 0.60671 0.72573 0.0
H5638 H 0.87015 0.60141 0.73792 0.0
H5639 H 0.85786 0.6244 0.74128 0.0
H5640 H 0.8642 0.62955 0.72885 0.0
H5641 H 0.88819 0.62333 0.7049 0.0
H5642 H 0.86827 0.60801 0.71238 0.0
O5643 O 0.88617 0.62412 0.72235 0.0
H5644 H 0.8903 0.61481 0.69293 0.0
H5645 H 0.87055 0.59926 0.70049 0.0
C5646 C 0.87332 0.6323 0.71451 0.0
C5647 C 0.87794 0.63935 0.7157 0.0
C5648 C 0.87607 0.64647 0.71147 0.0
C5649 C 0.86952 0.64667 0.70597 0.0
C5650 C 0.86457 0.63972 0.70522 0.0
C5651 C 0.86647 0.63259 0.70946 0.0
C5652 C 0.87077 0.61844 0.72626 0.0
C5653 C 0.87237 0.61052 0.72893 0.0
C5654 C 0.86871 0.60754 0.73598 0.0
C5655 C 0.86354 0.61251 0.74064 0.0
C5656 C 0.86174 0.62038 0.7378 0.0
C5657 C 0.86536 0.62333 0.73068 0.0
C5658 C 0.87824 0.61618 0.70964 0.0
C5659 C 0.88431 0.61809 0.70399 0.0
C5660 C 0.88547 0.61325 0.69713 0.0
C5661 C 0.8806 0.60637 0.69581 0.0
C5662 C 0.87443 0.6045 0.70142 0.0
C5663 C 0.87317 0.60946 0.70824 0.0
P5664 P 0.62816 0.62827 0.96735 0.0
H5665 H 0.61183 0.63511 0.9689 0.0
H5666 H 0.59914 0.63197 0.96203 0.0
H5667 H 0.61003 0.61032 0.95183 0.0
H5668 H 0.62287 0.6137 0.95858 0.0
H5669 H 0.64167 0.6318 0.97801 0.0
H5670 H 0.64636 0.62589 0.99075 0.0
H5671 H 0.62751 0.60764 0.98921 0.0
H5672 H 0.62303 0.61345 0.97625 0.0
H5673 H 0.62568 0.63254 0.95047 0.0
H5674 H 0.64551 0.62366 0.96517 0.0
O5675 O 0.62729 0.63805 0.9699 0.0
H5676 H 0.63477 0.63373 0.93886 0.0
H5677 H 0.6547 0.62495 0.95353 0.0
C5678 C 0.61832 0.6247 0.96414 0.0
C5679 C 0.61145 0.62959 0.96533 0.0
C5680 C 0.60415 0.62774 0.96142 0.0
C5681 C 0.60356 0.62093 0.95627 0.0
C5682 C 0.61031 0.61569 0.95562 0.0
C5683 C 0.61763 0.61758 0.95952 0.0
C5684 C 0.63202 0.62307 0.97618 0.0
C5685 C 0.63863 0.62644 0.98034 0.0
C5686 C 0.64125 0.6231 0.98767 0.0
C5687 C 0.63723 0.61637 0.99108 0.0
C5688 C 0.63077 0.61281 0.98674 0.0
C5689 C 0.62818 0.61614 0.97933 0.0
C5690 C 0.63487 0.62793 0.95868 0.0
C5691 C 0.63196 0.63069 0.95117 0.0
C5692 C 0.63717 0.63135 0.94451 0.0
C5693 C 0.64545 0.6294 0.94527 0.0
C5694 C 0.64835 0.62653 0.95278 0.0
C5695 C 0.64309 0.62577 0.95944 0.0
P5696 P 0.6232 0.37792 0.21883 0.0
H5697 H 0.61352 0.36316 0.2169 0.0
H5698 H 0.61606 0.35041 0.20987 0.0
H5699 H 0.64071 0.35804 0.20489 0.0
H5700 H 0.63806 0.37093 0.21195 0.0
H5701 H 0.62293 0.37291 0.23567 0.0
H5702 H 0.63074 0.37697 0.24758 0.0
H5703 H 0.64591 0.39216 0.23242 0.0
H5704 H 0.63796 0.38807 0.22048 0.0
H5705 H 0.62371 0.37656 0.20102 0.0
H5706 H 0.62258 0.39568 0.21893 0.0
O5707 O 0.61368 0.37783 0.22235 0.0
H5708 H 0.6221 0.38648 0.19023 0.0
H5709 H 0.62106 0.40575 0.20806 0.0
C5710 C 0.62561 0.36798 0.21495 0.0
C5711 C 0.61953 0.36205 0.21446 0.0
C5712 C 0.62101 0.35471 0.21046 0.0
C5713 C 0.62859 0.3532 0.20681 0.0
C5714 C 0.63479 0.35905 0.20759 0.0
C5715 C 0.63331 0.36638 0.21166 0.0
C5716 C 0.62973 0.38035 0.22725 0.0
C5717 C 0.62797 0.37706 0.2349 0.0
C5718 C 0.6325 0.37935 0.2417 0.0
C5719 C 0.63893 0.38494 0.24097 0.0
C5720 C 0.64092 0.38794 0.2332 0.0
C5721 C 0.63639 0.38561 0.22637 0.0
C5722 C 0.62347 0.38539 0.21081 0.0
C5723 C 0.62337 0.38292 0.20265 0.0
C5724 C 0.62245 0.38863 0.19644 0.0
C5725 C 0.62149 0.39693 0.19826 0.0
C5726 C 0.62175 0.3994 0.20645 0.0
C5727 C 0.62269 0.39367 0.21267 0.0
P5728 P 0.87249 0.37267 0.46961 0.0
H5729 H 0.88826 0.36456 0.46907 0.0
H5730 H 0.90062 0.36728 0.46144 0.0
H5731 H 0.89026 0.38978 0.45268 0.0
H5732 H 0.87777 0.38692 0.46032 0.0
H5733 H 0.85596 0.377 0.47443 0.0
H5734 H 0.85069 0.3847 0.48593 0.0
H5735 H 0.87521 0.39134 0.49266 0.0
H5736 H 0.88041 0.38385 0.48092 0.0
H5737 H 0.86853 0.35785 0.46086 0.0
H5738 H 0.86193 0.38319 0.4597 0.0
O5739 O 0.87369 0.36405 0.47484 0.0
H5740 H 0.86006 0.35505 0.44903 0.0
H5741 H 0.85343 0.38043 0.44774 0.0
C5742 C 0.88211 0.37556 0.46528 0.0
C5743 C 0.88869 0.37017 0.46566 0.0
C5744 C 0.8958 0.37176 0.46131 0.0
C5745 C 0.89645 0.37876 0.45643 0.0
C5746 C 0.88993 0.38431 0.45632 0.0
C5747 C 0.88282 0.38271 0.46071 0.0
C5748 C 0.86856 0.38001 0.4767 0.0
C5749 C 0.86019 0.38037 0.47818 0.0
C5750 C 0.85718 0.38469 0.48485 0.0
C5751 C 0.86253 0.38858 0.49028 0.0
C5752 C 0.87091 0.38851 0.48855 0.0
C5753 C 0.8739 0.38422 0.48184 0.0
C5754 C 0.8657 0.37069 0.46127 0.0
C5755 C 0.86517 0.3628 0.45811 0.0
C5756 C 0.86039 0.36122 0.45129 0.0
C5757 C 0.85609 0.36752 0.44744 0.0
C5758 C 0.8566 0.37544 0.45064 0.0
C5759 C 0.86145 0.37702 0.45746 0.0
P5760 P 0.87824 0.37804 0.78209 0.0
H5761 H 0.88757 0.363 0.78368 0.0
H5762 H 0.88479 0.35021 0.79054 0.0
H5763 H 0.86037 0.35836 0.79585 0.0
H5764 H 0.86328 0.37129 0.78898 0.0
H5765 H 0.87897 0.37342 0.76514 0.0
H5766 H 0.87129 0.37757 0.75317 0.0
H5767 H 0.85561 0.39223 0.76833 0.0
H5768 H 0.86341 0.38804 0.78034 0.0
H5769 H 0.87798 0.37647 0.79988 0.0
H5770 H 0.87852 0.39583 0.78219 0.0
O5771 O 0.88783 0.37787 0.77877 0.0
H5772 H 0.87952 0.38628 0.81077 0.0
H5773 H 0.87995 0.40579 0.79317 0.0
C5774 C 0.87563 0.3681 0.78584 0.0
C5775 C 0.88156 0.362 0.78617 0.0
C5776 C 0.87994 0.35465 0.79006 0.0
C5777 C 0.87235 0.35326 0.79376 0.0
C5778 C 0.8663 0.35927 0.79312 0.0
C5779 C 0.86792 0.36663 0.78916 0.0
C5780 C 0.87189 0.3806 0.77358 0.0
C5781 C 0.87384 0.37749 0.7659 0.0
C5782 C 0.8694 0.37982 0.75906 0.0
C5783 C 0.86286 0.38528 0.75978 0.0
C5784 C 0.86069 0.38811 0.76757 0.0
C5785 C 0.86514 0.38573 0.77443 0.0
C5786 C 0.87791 0.38541 0.79019 0.0
C5787 C 0.87817 0.38285 0.79832 0.0
C5788 C 0.87905 0.38851 0.80459 0.0
C5789 C 0.87981 0.39684 0.80286 0.0
C5790 C 0.87941 0.39941 0.79471 0.0
C5791 C 0.87851 0.39373 0.78843 0.0
P5792 P 0.87239 0.62798 0.03336 0.0
H5793 H 0.88876 0.63474 0.03177 0.0
H5794 H 0.90142 0.63164 0.03873 0.0
H5795 H 0.89039 0.61021 0.04923 0.0
H5796 H 0.87759 0.61354 0.04238 0.0
H5797 H 0.85811 0.63057 0.02345 0.0
H5798 H 0.85329 0.6245 0.01083 0.0
H5799 H 0.87351 0.60772 0.01121 0.0
H5800 H 0.87812 0.61365 0.02407 0.0
H5801 H 0.87481 0.63388 0.0497 0.0
H5802 H 0.85542 0.62233 0.03632 0.0
O5803 O 0.87333 0.63765 0.03046 0.0
H5804 H 0.86592 0.63524 0.06147 0.0
H5805 H 0.84642 0.62385 0.04808 0.0
C5806 C 0.88221 0.62443 0.03666 0.0
C5807 C 0.8891 0.62928 0.03543 0.0
C5808 C 0.89638 0.62745 0.03939 0.0
C5809 C 0.89692 0.62072 0.04464 0.0
C5810 C 0.89015 0.61553 0.04535 0.0
C5811 C 0.88285 0.61738 0.0414 0.0
C5812 C 0.86842 0.62252 0.02474 0.0
C5813 C 0.86141 0.62547 0.02091 0.0
C5814 C 0.85872 0.62205 0.01364 0.0
C5815 C 0.86308 0.6157 0.00993 0.0
C5816 C 0.86998 0.61257 0.01393 0.0
C5817 C 0.87263 0.61597 0.02128 0.0
C5818 C 0.86581 0.628 0.04212 0.0
C5819 C 0.86867 0.63154 0.04933 0.0
C5820 C 0.86358 0.63229 0.05606 0.0
C5821 C 0.85548 0.62963 0.0557 0.0
C5822 C 0.85263 0.62598 0.04851 0.0
C5823 C 0.85778 0.62513 0.04178 0.0
P5824 P 0.62379 0.62188 0.2829 0.0
H5825 H 0.61757 0.63842 0.28092 0.0
H5826 H 0.62065 0.65099 0.28807 0.0
H5827 H 0.64133 0.63942 0.29947 0.0
H5828 H 0.63804 0.62674 0.29239 0.0
H5829 H 0.6211 0.6075 0.27315 0.0
H5830 H 0.627 0.60262 0.26047 0.0
H5831 H 0.64379 0.62284 0.26053 0.0
H5832 H 0.63802 0.62752 0.27344 0.0
H5833 H 0.61758 0.62428 0.29911 0.0
H5834 H 0.62956 0.60497 0.286 0.0
O5835 O 0.61413 0.623 0.28 0.0
H5836 H 0.61629 0.61548 0.31096 0.0
H5837 H 0.62811 0.59605 0.29784 0.0
C5838 C 0.6275 0.63162 0.28624 0.0
C5839 C 0.62288 0.63863 0.28481 0.0
C5840 C 0.62469 0.64585 0.28888 0.0
C5841 C 0.63118 0.6462 0.29445 0.0
C5842 C 0.6362 0.63932 0.29534 0.0
C5843 C 0.63437 0.63209 0.29126 0.0
C5844 C 0.62917 0.61782 0.27428 0.0
C5845 C 0.62618 0.61078 0.27053 0.0
C5846 C 0.6295 0.60806 0.26323 0.0
C5847 C 0.6358 0.6124 0.25941 0.0
C5848 C 0.63898 0.61932 0.26333 0.0
C5849 C 0.63567 0.62201 0.27071 0.0
C5850 C 0.62365 0.61531 0.29166 0.0
C5851 C 0.62001 0.61817 0.29881 0.0
C5852 C 0.61931 0.61314 0.30559 0.0
C5853 C 0.62213 0.60509 0.30533 0.0
C5854 C 0.62586 0.60223 0.29819 0.0
C5855 C 0.62667 0.60733 0.29141 0.0
P5856 P 0.62878 0.37191 0.52977 0.0
H5857 H 0.61375 0.36282 0.53194 0.0
H5858 H 0.60147 0.36544 0.53973 0.0
H5859 H 0.61066 0.38916 0.54629 0.0
H5860 H 0.62306 0.38645 0.53842 0.0
H5861 H 0.64513 0.37771 0.52578 0.0
H5862 H 0.65021 0.38597 0.51459 0.0
H5863 H 0.62553 0.39066 0.50688 0.0
H5864 H 0.62048 0.38261 0.51831 0.0
H5865 H 0.63567 0.35661 0.53553 0.0
H5866 H 0.63756 0.38206 0.54154 0.0
O5867 O 0.62742 0.36362 0.52409 0.0
H5868 H 0.64508 0.35328 0.54646 0.0
H5869 H 0.64711 0.37876 0.55251 0.0
C5870 C 0.61928 0.37448 0.53453 0.0
C5871 C 0.61308 0.36866 0.5349 0.0
C5872 C 0.60602 0.37018 0.53935 0.0
C5873 C 0.60506 0.37753 0.54361 0.0
C5874 C 0.61124 0.38343 0.5431 0.0
C5875 C 0.6183 0.38191 0.53858 0.0
C5876 C 0.63241 0.37967 0.52298 0.0
C5877 C 0.64079 0.38076 0.52187 0.0
C5878 C 0.6437 0.3854 0.51539 0.0
C5879 C 0.63829 0.3889 0.50977 0.0
C5880 C 0.62987 0.38813 0.51114 0.0
C5881 C 0.62697 0.38352 0.51767 0.0
C5882 C 0.636 0.36959 0.53766 0.0
C5883 C 0.63819 0.3615 0.53915 0.0
C5884 C 0.64361 0.3596 0.54539 0.0
C5885 C 0.64692 0.36576 0.55032 0.0
C5886 C 0.64465 0.37388 0.54885 0.0
C5887 C 0.63922 0.37578 0.54257 0.0
P5888 P 0.72039 0.87713 0.62225 0.0
H5889 H 0.7261 0.87914 0.63889 0.0
H5890 H 0.71927 0.87794 0.65202 0.0
H5891 H 0.69796 0.86836 0.64 0.0
H5892 H 0.70491 0.86937 0.62694 0.0
H5893 H 0.725 0.8725 0.60574 0.0
H5894 H 0.73628 0.86452 0.60048 0.0
H5895 H 0.74304 0.85797 0.62501 0.0
H5896 H 0.73147 0.86569 0.63021 0.0
H5897 H 0.7132 0.89259 0.61754 0.0
H5898 H 0.70993 0.86729 0.61152 0.0
O5899 O 0.72602 0.88546 0.62365 0.0
H5900 H 0.70243 0.8963 0.60809 0.0
H5901 H 0.6991 0.87098 0.60193 0.0
C5902 C 0.71595 0.87454 0.63192 0.0
C5903 C 0.72002 0.87664 0.6391 0.0
C5904 C 0.71609 0.87598 0.6466 0.0
C5905 C 0.70801 0.87321 0.64705 0.0
C5906 C 0.70419 0.87051 0.63989 0.0
C5907 C 0.70814 0.87115 0.63238 0.0
C5908 C 0.72725 0.86954 0.61837 0.0
C5909 C 0.72868 0.86908 0.60998 0.0
C5910 C 0.73524 0.86461 0.60698 0.0
C5911 C 0.74064 0.86068 0.61232 0.0
C5912 C 0.73896 0.86084 0.62071 0.0
C5913 C 0.73233 0.86526 0.6237 0.0
C5914 C 0.71249 0.87969 0.6151 0.0
C5915 C 0.71023 0.88783 0.6141 0.0
C5916 C 0.70408 0.88995 0.60867 0.0
C5917 C 0.69999 0.88394 0.60416 0.0
C5918 C 0.70214 0.87574 0.6053 0.0
C5919 C 0.70835 0.87363 0.61074 0.0
P5920 P 0.21919 0.6228 0.37822 0.0
H5921 H 0.22034 0.61621 0.36176 0.0
H5922 H 0.21264 0.61889 0.34945 0.0
H5923 H 0.20087 0.63922 0.36125 0.0
H5924 H 0.20854 0.63633 0.3737 0.0
H5925 H 0.22503 0.62542 0.39473 0.0
H5926 H 0.23671 0.63276 0.4001 0.0
H5927 H 0.24189 0.64203 0.37607 0.0
H5928 H 0.22996 0.6349 0.3708 0.0
H5929 H 0.20856 0.60889 0.37962 0.0
H5930 H 0.21084 0.63242 0.39095 0.0
O5931 O 0.22414 0.61406 0.37681 0.0
H5932 H 0.19662 0.60599 0.38792 0.0
H5933 H 0.19889 0.62948 0.39943 0.0
C5934 C 0.21497 0.62604 0.36866 0.0
C5935 C 0.21624 0.62135 0.36167 0.0
C5936 C 0.21185 0.62293 0.35459 0.0
C5937 C 0.20608 0.62925 0.35436 0.0
C5938 C 0.20518 0.63424 0.36125 0.0
C5939 C 0.2096 0.63264 0.36835 0.0
C5940 C 0.22649 0.62979 0.38241 0.0
C5941 C 0.22849 0.62928 0.39067 0.0
C5942 C 0.23526 0.63339 0.39371 0.0
C5943 C 0.24031 0.63793 0.3885 0.0
C5944 C 0.23809 0.63868 0.38027 0.0
C5945 C 0.23126 0.6346 0.37725 0.0
C5946 C 0.21073 0.62075 0.38484 0.0
C5947 C 0.20655 0.61339 0.38398 0.0
C5948 C 0.19969 0.61177 0.38868 0.0
C5949 C 0.19685 0.61751 0.39433 0.0
C5950 C 0.20102 0.62492 0.39518 0.0
C5951 C 0.20785 0.62658 0.39037 0.0
P5952 P 0.62593 0.96831 0.62848 0.0
H5953 H 0.63241 0.97008 0.61201 0.0
H5954 H 0.62976 0.96262 0.59952 0.0
H5955 H 0.60933 0.95071 0.611 0.0
H5956 H 0.6122 0.9581 0.62361 0.0
H5957 H 0.62796 0.97873 0.64248 0.0
H5958 H 0.62086 0.99084 0.64723 0.0
H5959 H 0.60368 0.98851 0.6275 0.0
H5960 H 0.61084 0.97631 0.62278 0.0
H5961 H 0.63313 0.95243 0.6265 0.0
H5962 H 0.62013 0.96522 0.64536 0.0
O5963 O 0.63539 0.97183 0.62745 0.0
H5964 H 0.6349 0.94084 0.63555 0.0
H5965 H 0.62206 0.95365 0.65453 0.0
C5966 C 0.62257 0.96455 0.61876 0.0
C5967 C 0.62725 0.96601 0.6118 0.0
C5968 C 0.62569 0.96175 0.60462 0.0
C5969 C 0.61938 0.95597 0.60427 0.0
C5970 C 0.61432 0.95501 0.61111 0.0
C5971 C 0.61591 0.95927 0.61829 0.0
C5972 C 0.61989 0.97658 0.63234 0.0
C5973 C 0.62257 0.98073 0.63927 0.0
C5974 C 0.61849 0.98764 0.64199 0.0
C5975 C 0.61168 0.99062 0.63776 0.0
C5976 C 0.60892 0.98637 0.63086 0.0
C5977 C 0.61299 0.97938 0.62819 0.0
C5978 C 0.6265 0.9597 0.63523 0.0
C5979 C 0.63058 0.95272 0.63256 0.0
C5980 C 0.63157 0.94608 0.63773 0.0
C5981 C 0.62859 0.94633 0.64573 0.0
C5982 C 0.62444 0.95331 0.6484 0.0
C5983 C 0.62335 0.95994 0.64316 0.0
P5984 P 0.28111 0.37675 0.87845 0.0
H5985 H 0.28211 0.38484 0.86271 0.0
H5986 H 0.29011 0.38218 0.85058 0.0
H5987 H 0.2991 0.35997 0.86134 0.0
H5988 H 0.291 0.3627 0.87357 0.0
H5989 H 0.27697 0.37148 0.89494 0.0
H5990 H 0.26571 0.36344 0.90017 0.0
H5991 H 0.25825 0.35793 0.87559 0.0
H5992 H 0.26978 0.36574 0.87039 0.0
H5993 H 0.2872 0.39231 0.88436 0.0
H5994 H 0.29247 0.36691 0.88812 0.0
O5995 O 0.2754 0.38498 0.87685 0.0
H5996 H 0.29803 0.39601 0.89374 0.0
H5997 H 0.30336 0.37058 0.89763 0.0
C5998 C 0.28594 0.37396 0.86904 0.0
C5999 C 0.28565 0.3793 0.86242 0.0
C6000 C 0.29022 0.37776 0.85545 0.0
C6001 C 0.29524 0.37085 0.85497 0.0
C6002 C 0.29533 0.36536 0.86154 0.0
C6003 C 0.29069 0.3669 0.86852 0.0
C6004 C 0.27433 0.36907 0.88227 0.0
C6005 C 0.27312 0.36828 0.89066 0.0
C6006 C 0.26659 0.36377 0.89366 0.0
C6007 C 0.261 0.36012 0.88831 0.0
C6008 C 0.26248 0.36058 0.87989 0.0
C6009 C 0.26907 0.36505 0.8769 0.0
C6010 C 0.28895 0.37934 0.88564 0.0
C6011 C 0.29063 0.38752 0.88728 0.0
C6012 C 0.29682 0.38963 0.89268 0.0
C6013 C 0.30151 0.38359 0.89651 0.0
C6014 C 0.29987 0.37537 0.89477 0.0
C6015 C 0.29364 0.37327 0.88936 0.0
P6016 P 0.37475 0.53252 0.62921 0.0
H6017 H 0.36771 0.53089 0.61295 0.0
H6018 H 0.37035 0.53806 0.6003 0.0
H6019 H 0.3916 0.54918 0.61106 0.0
H6020 H 0.38872 0.54213 0.62385 0.0
H6021 H 0.37287 0.52223 0.64336 0.0
H6022 H 0.37997 0.51011 0.6481 0.0
H6023 H 0.39692 0.51225 0.62815 0.0
H6024 H 0.38978 0.52445 0.62345 0.0
H6025 H 0.36807 0.54857 0.62677 0.0
H6026 H 0.38016 0.53574 0.6462 0.0
O6027 O 0.36527 0.52898 0.6284 0.0
H6028 H 0.3663 0.56033 0.6356 0.0
H6029 H 0.37823 0.54749 0.65514 0.0
C6030 C 0.37797 0.53606 0.61936 0.0
C6031 C 0.37304 0.53473 0.61255 0.0
C6032 C 0.3746 0.53882 0.60527 0.0
C6033 C 0.38115 0.54429 0.60466 0.0
C6034 C 0.38642 0.54513 0.61136 0.0
C6035 C 0.38483 0.54105 0.61865 0.0
C6036 C 0.38084 0.5243 0.63312 0.0
C6037 C 0.37822 0.5202 0.6401 0.0
C6038 C 0.3823 0.51328 0.64282 0.0
C6039 C 0.38903 0.51024 0.63852 0.0
C6040 C 0.39174 0.51444 0.63158 0.0
C6041 C 0.38769 0.52144 0.62891 0.0
C6042 C 0.37427 0.54127 0.63579 0.0
C6043 C 0.37044 0.54831 0.63291 0.0
C6044 C 0.36944 0.55504 0.63796 0.0
C6045 C 0.37216 0.55484 0.64605 0.0
C6046 C 0.37605 0.54779 0.64894 0.0
C6047 C 0.37715 0.54107 0.64382 0.0
P6048 P 0.78098 0.12363 0.12255 0.0
H6049 H 0.78056 0.11644 0.13877 0.0
H6050 H 0.78835 0.11911 0.15103 0.0
H6051 H 0.79898 0.14028 0.13965 0.0
H6052 H 0.79121 0.13743 0.12725 0.0
H6053 H 0.77596 0.12705 0.10588 0.0
H6054 H 0.76459 0.13473 0.10033 0.0
H6055 H 0.75851 0.14309 0.12449 0.0
H6056 H 0.77015 0.13564 0.12994 0.0
H6057 H 0.79032 0.10887 0.1205 0.0
H6058 H 0.79045 0.13314 0.1106 0.0
O6059 O 0.77559 0.11516 0.12399 0.0
H6060 H 0.80222 0.10542 0.11235 0.0
H6061 H 0.8024 0.12968 0.1023 0.0
C6062 C 0.78531 0.12674 0.1321 0.0
C6063 C 0.78442 0.12176 0.13895 0.0
C6064 C 0.78886 0.12334 0.14601 0.0
C6065 C 0.79433 0.12991 0.14634 0.0
C6066 C 0.7949 0.13512 0.13957 0.0
C6067 C 0.79042 0.13354 0.1325 0.0
C6068 C 0.77405 0.13094 0.1183 0.0
C6069 C 0.77239 0.13079 0.10994 0.0
C6070 C 0.76579 0.1351 0.10679 0.0
C6071 C 0.76056 0.13947 0.11197 0.0
C6072 C 0.76245 0.13988 0.12031 0.0
C6073 C 0.76912 0.13562 0.12344 0.0
C6074 C 0.78937 0.12117 0.11597 0.0
C6075 C 0.79285 0.11342 0.11648 0.0
C6076 C 0.79969 0.11148 0.11187 0.0
C6077 C 0.80322 0.11728 0.10668 0.0
C6078 C 0.79973 0.12507 0.10618 0.0
C6079 C 0.79291 0.12704 0.11089 0.0
P6080 P 0.62591 0.03155 0.87215 0.0
H6081 H 0.62548 0.02567 0.88888 0.0
H6082 H 0.62297 0.03256 0.9018 0.0
H6083 H 0.61607 0.0543 0.88871 0.0
H6084 H 0.61817 0.04724 0.87591 0.0
H6085 H 0.62473 0.02509 0.85573 0.0
H6086 H 0.61774 0.01332 0.85011 0.0
H6087 H 0.60628 0.00907 0.87337 0.0
H6088 H 0.61303 0.02112 0.87885 0.0
H6089 H 0.64012 0.04187 0.87111 0.0
H6090 H 0.6173 0.03941 0.85845 0.0
O6091 O 0.63449 0.02663 0.87441 0.0
H6092 H 0.64368 0.05345 0.86255 0.0
H6093 H 0.6209 0.051 0.84971 0.0
C6094 C 0.62218 0.03599 0.88144 0.0
C6095 C 0.62323 0.03186 0.88881 0.0
C6096 C 0.62187 0.03584 0.8962 0.0
C6097 C 0.6195 0.04407 0.89634 0.0
C6098 C 0.61786 0.04797 0.88889 0.0
C6099 C 0.61913 0.04394 0.88152 0.0
C6100 C 0.61926 0.02412 0.86765 0.0
C6101 C 0.62048 0.02181 0.85955 0.0
C6102 C 0.61657 0.01499 0.85637 0.0
C6103 C 0.61151 0.01017 0.86131 0.0
C6104 C 0.61005 0.01268 0.86936 0.0
C6105 C 0.61392 0.01958 0.87251 0.0
C6106 C 0.62856 0.03964 0.86526 0.0
C6107 C 0.63592 0.04375 0.8664 0.0
C6108 C 0.63792 0.05041 0.86155 0.0
C6109 C 0.63256 0.05311 0.85547 0.0
C6110 C 0.62517 0.04898 0.8543 0.0
C6111 C 0.62313 0.04235 0.85926 0.0
P6112 P 0.87393 0.96944 0.37183 0.0
H6113 H 0.86305 0.96547 0.38519 0.0
H6114 H 0.86502 0.95836 0.39802 0.0
H6115 H 0.89074 0.95642 0.39301 0.0
H6116 H 0.88869 0.96364 0.38008 0.0
H6117 H 0.88136 0.98282 0.38062 0.0
H6118 H 0.88939 0.99447 0.37611 0.0
H6119 H 0.89116 0.98389 0.35213 0.0
H6120 H 0.88313 0.97229 0.35668 0.0
H6121 H 0.87823 0.95198 0.37175 0.0
H6122 H 0.8668 0.96923 0.35565 0.0
O6123 O 0.86519 0.97458 0.3722 0.0
H6124 H 0.87514 0.94104 0.36231 0.0
H6125 H 0.86401 0.95835 0.34594 0.0
C6126 C 0.87574 0.96519 0.38176 0.0
C6127 C 0.86915 0.96369 0.38692 0.0
C6128 C 0.87029 0.95963 0.39428 0.0
C6129 C 0.87805 0.95688 0.39656 0.0
C6130 C 0.88469 0.95848 0.39141 0.0
C6131 C 0.88354 0.96264 0.38406 0.0
C6132 C 0.88164 0.97668 0.36901 0.0
C6133 C 0.88368 0.98289 0.37446 0.0
C6134 C 0.88828 0.98955 0.37187 0.0
C6135 C 0.89084 0.99014 0.36373 0.0
C6136 C 0.88918 0.98366 0.35841 0.0
C6137 C 0.8846 0.97699 0.36102 0.0
C6138 C 0.87265 0.96143 0.36445 0.0
C6139 C 0.87516 0.95346 0.36613 0.0
C6140 C 0.87344 0.94718 0.36066 0.0
C6141 C 0.86926 0.94877 0.35336 0.0
C6142 C 0.86708 0.95685 0.35157 0.0
C6143 C 0.86872 0.9631 0.35709 0.0
P6144 P 0.3824 0.29104 0.14802 0.0
H6145 H 0.36801 0.29719 0.15656 0.0
H6146 H 0.35499 0.30248 0.15173 0.0
H6147 H 0.3619 0.29684 0.12702 0.0
H6148 H 0.37491 0.29154 0.1319 0.0
H6149 H 0.39483 0.28079 0.15515 0.0
H6150 H 0.39714 0.26611 0.15517 0.0
H6151 H 0.37566 0.26276 0.14043 0.0
H6152 H 0.37342 0.27744 0.14039 0.0
H6153 H 0.38921 0.30732 0.14858 0.0
H6154 H 0.39129 0.28612 0.13331 0.0
O6155 O 0.38369 0.2942 0.15757 0.0
H6156 H 0.39805 0.31488 0.13937 0.0
H6157 H 0.40028 0.2936 0.12411 0.0
C6158 C 0.37245 0.29404 0.14458 0.0
C6159 C 0.3667 0.29702 0.15011 0.0
C6160 C 0.35927 0.30007 0.14734 0.0
C6161 C 0.35744 0.30012 0.13899 0.0
C6162 C 0.3631 0.29683 0.1335 0.0
C6163 C 0.37056 0.29384 0.13627 0.0
C6164 C 0.38392 0.2802 0.14785 0.0
C6165 C 0.39061 0.27689 0.15194 0.0
C6166 C 0.3919 0.2685 0.15198 0.0
C6167 C 0.38655 0.26326 0.14785 0.0
C6168 C 0.37992 0.26663 0.14363 0.0
C6169 C 0.37861 0.27504 0.14363 0.0
C6170 C 0.38973 0.29613 0.14171 0.0
C6171 C 0.39173 0.30424 0.14333 0.0
C6172 C 0.3968 0.30855 0.13806 0.0
C6173 C 0.39992 0.30484 0.13102 0.0
C6174 C 0.39795 0.29665 0.12946 0.0
C6175 C 0.39287 0.29235 0.13475 0.0
P6176 P 0.45953 0.63212 0.89725 0.0
H6177 H 0.45484 0.61735 0.90607 0.0
H6178 H 0.44997 0.60406 0.90148 0.0
H6179 H 0.45354 0.61143 0.87652 0.0
H6180 H 0.45841 0.62468 0.88115 0.0
H6181 H 0.4697 0.64414 0.90523 0.0
H6182 H 0.48433 0.64677 0.90511 0.0
H6183 H 0.4877 0.6269 0.88825 0.0
H6184 H 0.47307 0.62437 0.88834 0.0
H6185 H 0.44273 0.63743 0.8975 0.0
H6186 H 0.46403 0.64181 0.88287 0.0
O6187 O 0.45644 0.63336 0.90683 0.0
H6188 H 0.4346 0.64569 0.88822 0.0
H6189 H 0.45591 0.65003 0.87348 0.0
C6190 C 0.4569 0.62202 0.89394 0.0
C6191 C 0.45465 0.61608 0.89961 0.0
C6192 C 0.45184 0.6085 0.89698 0.0
C6193 C 0.45133 0.60672 0.88864 0.0
C6194 C 0.45393 0.61259 0.88299 0.0
C6195 C 0.45667 0.62018 0.88562 0.0
C6196 C 0.47031 0.63398 0.89691 0.0
C6197 C 0.47359 0.64034 0.90153 0.0
C6198 C 0.48196 0.64181 0.90147 0.0
C6199 C 0.48719 0.637 0.89672 0.0
C6200 C 0.48383 0.63075 0.89194 0.0
C6201 C 0.47546 0.62926 0.89202 0.0
C6202 C 0.454 0.63914 0.89095 0.0
C6203 C 0.44569 0.64029 0.89236 0.0
C6204 C 0.44103 0.64495 0.88701 0.0
C6205 C 0.44461 0.6485 0.8801 0.0
C6206 C 0.453 0.64747 0.8788 0.0
C6207 C 0.45765 0.64277 0.88416 0.0
P6208 P 0.11982 0.7091 0.64706 0.0
H6209 H 0.13591 0.70734 0.65445 0.0
H6210 H 0.14915 0.70333 0.64893 0.0
H6211 H 0.13851 0.70157 0.62496 0.0
H6212 H 0.12542 0.70577 0.63048 0.0
H6213 H 0.10951 0.71936 0.65711 0.0
H6214 H 0.10681 0.73397 0.65725 0.0
H6215 H 0.1234 0.73717 0.63712 0.0
H6216 H 0.12595 0.72253 0.63695 0.0
H6217 H 0.11385 0.69249 0.64754 0.0
H6218 H 0.10939 0.71411 0.63342 0.0
O6219 O 0.11942 0.70572 0.65662 0.0
H6220 H 0.10472 0.6848 0.63872 0.0
H6221 H 0.10013 0.7065 0.62463 0.0
C6222 C 0.12965 0.70668 0.64291 0.0
C6223 C 0.13645 0.70612 0.648 0.0
C6224 C 0.14401 0.7038 0.64485 0.0
C6225 C 0.14488 0.70206 0.63651 0.0
C6226 C 0.13808 0.70293 0.63139 0.0
C6227 C 0.13056 0.70525 0.63456 0.0
C6228 C 0.11805 0.71989 0.64714 0.0
C6229 C 0.1126 0.72322 0.65277 0.0
C6230 C 0.11109 0.73158 0.65286 0.0
C6231 C 0.11495 0.73675 0.64725 0.0
C6232 C 0.1203 0.73335 0.6415 0.0
C6233 C 0.12182 0.72499 0.64144 0.0
C6234 C 0.11218 0.70389 0.64123 0.0
C6235 C 0.11075 0.69562 0.64265 0.0
C6236 C 0.10551 0.69124 0.63761 0.0
C6237 C 0.10167 0.69504 0.63098 0.0
C6238 C 0.10303 0.70338 0.62965 0.0
C6239 C 0.10826 0.70776 0.63472 0.0
P6240 P 0.04103 0.36959 0.39731 0.0
H6241 H 0.04287 0.38569 0.40467 0.0
H6242 H 0.0471 0.39885 0.39916 0.0
H6243 H 0.04915 0.38808 0.37527 0.0
H6244 H 0.04473 0.37507 0.38077 0.0
H6245 H 0.03052 0.35912 0.40692 0.0
H6246 H 0.01586 0.35664 0.40683 0.0
H6247 H 0.01314 0.37386 0.38716 0.0
H6248 H 0.02782 0.37618 0.3872 0.0
H6249 H 0.0576 0.36352 0.39813 0.0
H6250 H 0.0362 0.3591 0.38365 0.0
O6251 O 0.04421 0.3692 0.40694 0.0
H6252 H 0.0654 0.35432 0.38948 0.0
H6253 H 0.04394 0.34977 0.37503 0.0
C6254 C 0.04366 0.37937 0.39316 0.0
C6255 C 0.0442 0.38619 0.39824 0.0
C6256 C 0.04665 0.3937 0.39509 0.0
C6257 C 0.04853 0.39452 0.38678 0.0
C6258 C 0.04769 0.38771 0.38168 0.0
C6259 C 0.04524 0.38022 0.38484 0.0
C6260 C 0.03022 0.36794 0.39718 0.0
C6261 C 0.02675 0.36239 0.40262 0.0
C6262 C 0.01837 0.36101 0.40258 0.0
C6263 C 0.01331 0.36511 0.39704 0.0
C6264 C 0.01686 0.37057 0.39148 0.0
C6265 C 0.02525 0.37195 0.39154 0.0
C6266 C 0.0463 0.36187 0.39163 0.0
C6267 C 0.05454 0.36041 0.3932 0.0
C6268 C 0.05899 0.35514 0.38826 0.0
C6269 C 0.05529 0.35128 0.38157 0.0
C6270 C 0.04698 0.35268 0.38009 0.0
C6271 C 0.04253 0.35795 0.38507 0.0
P6272 P 0.38107 0.70898 0.35412 0.0
H6273 H 0.36494 0.70734 0.34681 0.0
H6274 H 0.35172 0.70334 0.35236 0.0
H6275 H 0.36245 0.70142 0.37627 0.0
H6276 H 0.37553 0.70561 0.37072 0.0
H6277 H 0.39115 0.71911 0.34372 0.0
H6278 H 0.39378 0.73372 0.34328 0.0
H6279 H 0.37758 0.73719 0.36367 0.0
H6280 H 0.37508 0.72254 0.36413 0.0
H6281 H 0.38699 0.69235 0.35391 0.0
H6282 H 0.39164 0.71422 0.36757 0.0
O6283 O 0.38144 0.70544 0.34462 0.0
H6284 H 0.39623 0.68481 0.36275 0.0
H6285 H 0.40101 0.70676 0.37638 0.0
C6286 C 0.37124 0.7066 0.35832 0.0
C6287 C 0.36442 0.70609 0.35325 0.0
C6288 C 0.35688 0.70377 0.35643 0.0
C6289 C 0.35603 0.70198 0.36475 0.0
C6290 C 0.36285 0.70281 0.36985 0.0
C6291 C 0.37037 0.70513 0.36667 0.0
C6292 C 0.3828 0.71977 0.35384 0.0
C6293 C 0.38812 0.72303 0.34805 0.0
C6294 C 0.3896 0.73138 0.3478 0.0
C6295 C 0.38583 0.73664 0.35339 0.0
C6296 C 0.3806 0.73331 0.3593 0.0
C6297 C 0.37911 0.72494 0.35953 0.0
C6298 C 0.38875 0.70386 0.35999 0.0
C6299 C 0.39015 0.69557 0.3587 0.0
C6300 C 0.39545 0.69127 0.36376 0.0
C6301 C 0.39939 0.69519 0.37026 0.0
C6302 C 0.39804 0.70355 0.37146 0.0
C6303 C 0.39274 0.70785 0.36638 0.0
P6304 P 0.04145 0.63193 0.10463 0.0
H6305 H 0.04649 0.61733 0.09577 0.0
H6306 H 0.05161 0.60411 0.10028 0.0
H6307 H 0.04799 0.61129 0.12529 0.0
H6308 H 0.04285 0.62448 0.12073 0.0
H6309 H 0.03103 0.64319 0.09591 0.0
H6310 H 0.01633 0.64537 0.09575 0.0
H6311 H 0.0133 0.62596 0.11318 0.0
H6312 H 0.02801 0.62388 0.11339 0.0
H6313 H 0.05787 0.63838 0.10502 0.0
H6314 H 0.03582 0.64117 0.1189 0.0
O6315 O 0.04488 0.6334 0.09519 0.0
H6316 H 0.06499 0.64738 0.11443 0.0
H6317 H 0.04284 0.65034 0.12827 0.0
C6318 C 0.0444 0.62192 0.10793 0.0
C6319 C 0.04674 0.61604 0.10222 0.0
C6320 C 0.04969 0.6085 0.10481 0.0
C6321 C 0.05025 0.60668 0.11314 0.0
C6322 C 0.04757 0.61248 0.11883 0.0
C6323 C 0.04468 0.62004 0.11623 0.0
C6324 C 0.0306 0.63328 0.10454 0.0
C6325 C 0.02719 0.63937 0.09966 0.0
C6326 C 0.01879 0.64059 0.09955 0.0
C6327 C 0.01364 0.63579 0.1044 0.0
C6328 C 0.0171 0.62978 0.1094 0.0
C6329 C 0.02552 0.62855 0.10948 0.0
C6330 C 0.04629 0.63924 0.11117 0.0
C6331 C 0.05452 0.64107 0.11001 0.0
C6332 C 0.05858 0.64624 0.11539 0.0
C6333 C 0.05448 0.64964 0.12208 0.0
C6334 C 0.04619 0.6478 0.1232 0.0
C6335 C 0.04214 0.64262 0.1178 0.0
P6336 P 0.11844 0.29123 0.8537 0.0
H6337 H 0.13304 0.29665 0.84507 0.0
H6338 H 0.14617 0.30182 0.84981 0.0
H6339 H 0.13883 0.29756 0.87466 0.0
H6340 H 0.12572 0.29241 0.86989 0.0
H6341 H 0.10759 0.28072 0.84456 0.0
H6342 H 0.10554 0.266 0.84431 0.0
H6343 H 0.12432 0.26312 0.86245 0.0
H6344 H 0.12627 0.27784 0.86273 0.0
H6345 H 0.11176 0.30756 0.85399 0.0
H6346 H 0.10922 0.28552 0.86794 0.0
O6347 O 0.11705 0.29469 0.84426 0.0
H6348 H 0.10269 0.31461 0.86339 0.0
H6349 H 0.1 0.29248 0.87731 0.0
C6350 C 0.12838 0.29424 0.85714 0.0
C6351 C 0.13427 0.29678 0.85153 0.0
C6352 C 0.14176 0.29975 0.85424 0.0
C6353 C 0.14351 0.30014 0.86261 0.0
C6354 C 0.13769 0.29728 0.86818 0.0
C6355 C 0.13018 0.29438 0.86546 0.0
C6356 C 0.11718 0.28036 0.85355 0.0
C6357 C 0.11131 0.27691 0.84844 0.0
C6358 C 0.11016 0.2685 0.84828 0.0
C6359 C 0.11482 0.26338 0.85331 0.0
C6360 C 0.12061 0.26689 0.85853 0.0
C6361 C 0.12177 0.27532 0.85866 0.0
C6362 C 0.11103 0.29599 0.86018 0.0
C6363 C 0.1091 0.30419 0.85899 0.0
C6364 C 0.1039 0.30821 0.86436 0.0
C6365 C 0.10057 0.3041 0.87108 0.0
C6366 C 0.10248 0.29583 0.87222 0.0
C6367 C 0.1077 0.29182 0.86683 0.0
P6368 P 0.46005 0.36967 0.60396 0.0
H6369 H 0.44896 0.38218 0.59789 0.0
H6370 H 0.44398 0.39485 0.60377 0.0
H6371 H 0.45982 0.39142 0.62446 0.0
H6372 H 0.46457 0.37859 0.61863 0.0
H6373 H 0.46983 0.35497 0.60291 0.0
H6374 H 0.48447 0.35254 0.60259 0.0
H6375 H 0.48873 0.3784 0.60468 0.0
H6376 H 0.47409 0.38077 0.60467 0.0
H6377 H 0.44412 0.36197 0.60283 0.0
H6378 H 0.46449 0.36184 0.61932 0.0
O6379 O 0.45684 0.36863 0.59439 0.0
H6380 H 0.43653 0.35318 0.61208 0.0
H6381 H 0.45705 0.35285 0.62851 0.0
C6382 C 0.45723 0.37953 0.60776 0.0
C6383 C 0.45146 0.38422 0.60363 0.0
C6384 C 0.44863 0.3915 0.60699 0.0
C6385 C 0.45151 0.39419 0.61459 0.0
C6386 C 0.45741 0.3895 0.61865 0.0
C6387 C 0.46019 0.3822 0.61529 0.0
C6388 C 0.47087 0.36802 0.60405 0.0
C6389 C 0.47393 0.36011 0.60336 0.0
C6390 C 0.48231 0.35873 0.60321 0.0
C6391 C 0.48781 0.36527 0.6037 0.0
C6392 C 0.48469 0.37322 0.60425 0.0
C6393 C 0.4763 0.37459 0.60435 0.0
C6394 C 0.45493 0.36239 0.6103 0.0
C6395 C 0.44703 0.35988 0.60836 0.0
C6396 C 0.4427 0.35484 0.61365 0.0
C6397 C 0.44619 0.35226 0.62103 0.0
C6398 C 0.45415 0.35476 0.62291 0.0
C6399 C 0.45846 0.35983 0.61762 0.0
P6400 P 0.14667 0.38169 0.29201 0.0
H6401 H 0.15557 0.36717 0.29721 0.0
H6402 H 0.15108 0.35398 0.30243 0.0
H6403 H 0.12607 0.36104 0.29863 0.0
H6404 H 0.1306 0.3742 0.2934 0.0
H6405 H 0.15527 0.39299 0.28153 0.0
H6406 H 0.15543 0.39509 0.26682 0.0
H6407 H 0.13824 0.37543 0.26388 0.0
H6408 H 0.13804 0.37345 0.27861 0.0
H6409 H 0.14631 0.38831 0.30836 0.0
H6410 H 0.13234 0.39079 0.28633 0.0
O6411 O 0.15611 0.38321 0.29542 0.0
H6412 H 0.13687 0.39732 0.31542 0.0
H6413 H 0.12293 0.39996 0.2933 0.0
C6414 C 0.14341 0.37169 0.29503 0.0
C6415 C 0.14912 0.36586 0.29745 0.0
C6416 C 0.14655 0.35833 0.30045 0.0
C6417 C 0.13822 0.35649 0.30099 0.0
C6418 C 0.13253 0.36225 0.29824 0.0
C6419 C 0.1351 0.36979 0.2953 0.0
C6420 C 0.14677 0.38297 0.28114 0.0
C6421 C 0.15158 0.3891 0.27771 0.0
C6422 C 0.15168 0.39027 0.2693 0.0
C6423 C 0.1469 0.38538 0.26417 0.0
C6424 C 0.14197 0.37933 0.26767 0.0
C6425 C 0.14189 0.37815 0.27609 0.0
C6426 C 0.14012 0.38901 0.2968 0.0
C6427 C 0.14129 0.39093 0.30501 0.0
C6428 C 0.1359 0.39611 0.30902 0.0
C6429 C 0.12916 0.39942 0.30492 0.0
C6430 C 0.12803 0.39749 0.29665 0.0
C6431 C 0.13344 0.3923 0.29264 0.0
P6432 P 0.36928 0.39695 0.04086 0.0
H6433 H 0.38394 0.40558 0.04616 0.0
H6434 H 0.39702 0.40086 0.05142 0.0
H6435 H 0.38957 0.37598 0.0475 0.0
H6436 H 0.37651 0.38075 0.04223 0.0
H6437 H 0.35811 0.40562 0.03032 0.0
H6438 H 0.3561 0.4058 0.0156 0.0
H6439 H 0.3754 0.3882 0.01279 0.0
H6440 H 0.37731 0.38799 0.02752 0.0
H6441 H 0.36258 0.39724 0.05718 0.0
H6442 H 0.36006 0.38252 0.03564 0.0
O6443 O 0.368 0.40648 0.04412 0.0
H6444 H 0.35353 0.38809 0.06455 0.0
H6445 H 0.35085 0.37338 0.04293 0.0
C6446 C 0.37922 0.39351 0.0439 0.0
C6447 C 0.38514 0.39911 0.04638 0.0
C6448 C 0.3926 0.39641 0.04941 0.0
C6449 C 0.3943 0.38804 0.04992 0.0
C6450 C 0.38847 0.38246 0.04712 0.0
C6451 C 0.38098 0.38517 0.04416 0.0
C6452 C 0.36795 0.39691 0.03 0.0
C6453 C 0.36194 0.40183 0.02652 0.0
C6454 C 0.36082 0.40195 0.01811 0.0
C6455 C 0.36565 0.39707 0.01301 0.0
C6456 C 0.37156 0.392 0.01655 0.0
C6457 C 0.3727 0.39191 0.02498 0.0
C6458 C 0.36186 0.39065 0.04583 0.0
C6459 C 0.35993 0.39212 0.05399 0.0
C6460 C 0.35473 0.38689 0.05819 0.0
C6461 C 0.35141 0.38002 0.05432 0.0
C6462 C 0.35333 0.3786 0.0461 0.0
C6463 C 0.35854 0.38385 0.0419 0.0
P6464 P 0.3536 0.62038 0.79139 0.0
H6465 H 0.34617 0.63648 0.79298 0.0
H6466 H 0.35165 0.64975 0.79692 0.0
H6467 H 0.37565 0.63918 0.79875 0.0
H6468 H 0.37016 0.62605 0.79463 0.0
H6469 H 0.34433 0.60929 0.78122 0.0
H6470 H 0.34446 0.60639 0.76664 0.0
H6471 H 0.36386 0.62381 0.76341 0.0
H6472 H 0.36379 0.62655 0.77801 0.0
H6473 H 0.35222 0.61505 0.80815 0.0
H6474 H 0.36747 0.60974 0.78751 0.0
O6475 O 0.3439 0.62015 0.79436 0.0
H6476 H 0.36067 0.60633 0.81669 0.0
H6477 H 0.37607 0.60111 0.79606 0.0
C6478 C 0.35773 0.63025 0.79368 0.0
C6479 C 0.35261 0.63705 0.79419 0.0
C6480 C 0.35575 0.64462 0.79647 0.0
C6481 C 0.36408 0.64552 0.79822 0.0
C6482 C 0.36922 0.63873 0.79739 0.0
C6483 C 0.36608 0.63119 0.79511 0.0
C6484 C 0.35394 0.61824 0.78066 0.0
C6485 C 0.3486 0.61249 0.77736 0.0
C6486 C 0.34865 0.61087 0.76902 0.0
C6487 C 0.35411 0.61493 0.76384 0.0
C6488 C 0.35961 0.62055 0.76723 0.0
C6489 C 0.35953 0.62217 0.77558 0.0
C6490 C 0.35914 0.61293 0.79718 0.0
C6491 C 0.35731 0.61189 0.80543 0.0
C6492 C 0.36219 0.60696 0.81032 0.0
C6493 C 0.36907 0.60306 0.80707 0.0
C6494 C 0.37076 0.60395 0.79873 0.0
C6495 C 0.36585 0.60889 0.79383 0.0
P6496 P 0.13212 0.60423 0.54118 0.0
H6497 H 0.11752 0.59537 0.54622 0.0
H6498 H 0.10427 0.59989 0.55127 0.0
H6499 H 0.11139 0.62488 0.54744 0.0
H6500 H 0.1246 0.62032 0.54238 0.0
H6501 H 0.14338 0.5954 0.53085 0.0
H6502 H 0.1457 0.59523 0.51617 0.0
H6503 H 0.12659 0.61298 0.51299 0.0
H6504 H 0.12437 0.61318 0.52768 0.0
H6505 H 0.13862 0.60438 0.55759 0.0
H6506 H 0.14114 0.61873 0.5358 0.0
O6507 O 0.13355 0.59478 0.54459 0.0
H6508 H 0.14746 0.6138 0.56488 0.0
H6509 H 0.15014 0.62813 0.54301 0.0
C6510 C 0.12208 0.60752 0.54403 0.0
C6511 C 0.11621 0.60182 0.54641 0.0
C6512 C 0.10865 0.6044 0.54931 0.0
C6513 C 0.10681 0.61274 0.5498 0.0
C6514 C 0.1126 0.61841 0.54708 0.0
C6515 C 0.12017 0.61582 0.54424 0.0
C6516 C 0.1336 0.60418 0.53034 0.0
C6517 C 0.13965 0.59922 0.52698 0.0
C6518 C 0.14096 0.59911 0.51859 0.0
C6519 C 0.13628 0.60404 0.5134 0.0
C6520 C 0.13032 0.60913 0.51682 0.0
C6521 C 0.129 0.60921 0.52522 0.0
C6522 C 0.13936 0.61076 0.54613 0.0
C6523 C 0.14122 0.60947 0.55433 0.0
C6524 C 0.1463 0.61486 0.55848 0.0
C6525 C 0.14956 0.6217 0.55451 0.0
C6526 C 0.1477 0.62294 0.54625 0.0
C6527 C 0.14261 0.61753 0.5421 0.0
P6528 P 0.14892 0.61915 0.20914 0.0
H6529 H 0.15571 0.63515 0.20505 0.0
H6530 H 0.14941 0.64782 0.20043 0.0
H6531 H 0.12566 0.63694 0.20318 0.0
H6532 H 0.13199 0.62431 0.20773 0.0
H6533 H 0.15516 0.60578 0.2188 0.0
H6534 H 0.15503 0.60286 0.23337 0.0
H6535 H 0.14118 0.62479 0.23758 0.0
H6536 H 0.14152 0.62776 0.22305 0.0
H6537 H 0.15112 0.61351 0.19254 0.0
H6538 H 0.13508 0.6084 0.21263 0.0
O6539 O 0.1587 0.61928 0.20646 0.0
H6540 H 0.14304 0.60466 0.18378 0.0
H6541 H 0.12684 0.59967 0.20386 0.0
C6542 C 0.14432 0.62875 0.20658 0.0
C6543 C 0.14915 0.63551 0.2047 0.0
C6544 C 0.14554 0.64277 0.20211 0.0
C6545 C 0.13704 0.64334 0.20135 0.0
C6546 C 0.13223 0.63663 0.20355 0.0
C6547 C 0.13584 0.62941 0.20617 0.0
C6548 C 0.14837 0.61698 0.21985 0.0
C6549 C 0.15208 0.60994 0.22287 0.0
C6550 C 0.15196 0.60826 0.2312 0.0
C6551 C 0.1481 0.6136 0.23666 0.0
C6552 C 0.14431 0.62062 0.23356 0.0
C6553 C 0.14445 0.62229 0.22523 0.0
C6554 C 0.14378 0.61149 0.20326 0.0
C6555 C 0.14595 0.61035 0.19511 0.0
C6556 C 0.14127 0.60535 0.19008 0.0
C6557 C 0.13426 0.60149 0.1931 0.0
C6558 C 0.13225 0.60246 0.20136 0.0
C6559 C 0.13696 0.60745 0.20639 0.0
P6560 P 0.13088 0.39775 0.95831 0.0
H6561 H 0.11478 0.40458 0.95486 0.0
H6562 H 0.10206 0.39842 0.95014 0.0
H6563 H 0.11318 0.37465 0.95147 0.0
H6564 H 0.12584 0.38084 0.95608 0.0
H6565 H 0.14117 0.40781 0.96856 0.0
H6566 H 0.14361 0.40819 0.98321 0.0
H6567 H 0.12644 0.38858 0.98652 0.0
H6568 H 0.12414 0.38815 0.97185 0.0
H6569 H 0.13711 0.398 0.94179 0.0
H6570 H 0.1417 0.38463 0.96386 0.0
O6571 O 0.13108 0.40726 0.95478 0.0
H6572 H 0.14653 0.38919 0.93445 0.0
H6573 H 0.15126 0.37586 0.95659 0.0
C6574 C 0.1213 0.39318 0.95563 0.0
C6575 C 0.11445 0.39804 0.95417 0.0
C6576 C 0.10718 0.39451 0.95152 0.0
C6577 C 0.10665 0.38606 0.95033 0.0
C6578 C 0.11344 0.3812 0.95216 0.0
C6579 C 0.12069 0.38473 0.95481 0.0
C6580 C 0.13237 0.39806 0.96914 0.0
C6581 C 0.13789 0.40364 0.97246 0.0
C6582 C 0.13925 0.40386 0.98084 0.0
C6583 C 0.13516 0.39846 0.98605 0.0
C6584 C 0.12971 0.3928 0.98267 0.0
C6585 C 0.12835 0.39259 0.97428 0.0
C6586 C 0.13882 0.39207 0.95339 0.0
C6587 C 0.14031 0.3933 0.9451 0.0
C6588 C 0.14572 0.38826 0.94091 0.0
C6589 C 0.14967 0.38183 0.94493 0.0
C6590 C 0.14827 0.38072 0.9533 0.0
C6591 C 0.14287 0.38578 0.95749 0.0
P6592 P 0.35214 0.37963 0.70987 0.0
H6593 H 0.34538 0.36371 0.70545 0.0
H6594 H 0.3517 0.35117 0.70052 0.0
H6595 H 0.37544 0.36197 0.7037 0.0
H6596 H 0.36908 0.37448 0.70853 0.0
H6597 H 0.34544 0.39268 0.71962 0.0
H6598 H 0.34567 0.39565 0.73418 0.0
H6599 H 0.36048 0.37432 0.73822 0.0
H6600 H 0.36003 0.37129 0.7237 0.0
H6601 H 0.34994 0.3854 0.69331 0.0
H6602 H 0.36589 0.39045 0.71349 0.0
O6603 O 0.34236 0.37949 0.70719 0.0
H6604 H 0.35791 0.39449 0.68469 0.0
H6605 H 0.374 0.39944 0.70486 0.0
C6606 C 0.35676 0.37007 0.70721 0.0
C6607 C 0.35195 0.36335 0.70514 0.0
C6608 C 0.35557 0.35617 0.70237 0.0
C6609 C 0.36407 0.35561 0.70163 0.0
C6610 C 0.36887 0.36226 0.70405 0.0
C6611 C 0.36525 0.36941 0.70684 0.0
C6612 C 0.35268 0.38177 0.72059 0.0
C6613 C 0.34873 0.38865 0.72366 0.0
C6614 C 0.34892 0.39037 0.73197 0.0
C6615 C 0.3531 0.38522 0.73738 0.0
C6616 C 0.35712 0.37835 0.73425 0.0
C6617 C 0.35691 0.37663 0.72592 0.0
C6618 C 0.35724 0.38737 0.70407 0.0
C6619 C 0.35507 0.38859 0.69593 0.0
C6620 C 0.35968 0.39373 0.69098 0.0
C6621 C 0.36662 0.39767 0.69407 0.0
C6622 C 0.36864 0.3966 0.70232 0.0
C6623 C 0.364 0.39145 0.70726 0.0
P6624 P 0.36814 0.60406 0.4603 0.0
H6625 H 0.38264 0.59527 0.45483 0.0
H6626 H 0.39581 0.59986 0.44967 0.0
H6627 H 0.38886 0.62477 0.4542 0.0
H6628 H 0.3757 0.62014 0.45936 0.0
H6629 H 0.35665 0.59552 0.47059 0.0
H6630 H 0.35437 0.59529 0.48527 0.0
H6631 H 0.37399 0.61245 0.48854 0.0
H6632 H 0.37617 0.61271 0.47384 0.0
H6633 H 0.36158 0.60413 0.44391 0.0
H6634 H 0.35916 0.61859 0.46563 0.0
O6635 O 0.36671 0.59461 0.45691 0.0
H6636 H 0.35276 0.61355 0.43659 0.0
H6637 H 0.35018 0.628 0.45839 0.0
C6638 C 0.37816 0.60737 0.45739 0.0
C6639 C 0.38397 0.60171 0.45478 0.0
C6640 C 0.39149 0.60434 0.45181 0.0
C6641 C 0.39335 0.61268 0.45149 0.0
C6642 C 0.38763 0.61831 0.45443 0.0
C6643 C 0.38009 0.61567 0.45734 0.0
C6644 C 0.36667 0.60401 0.47114 0.0
C6645 C 0.36049 0.5992 0.47448 0.0
C6646 C 0.35921 0.59905 0.48287 0.0
C6647 C 0.36405 0.6038 0.48808 0.0
C6648 C 0.37014 0.60876 0.48469 0.0
C6649 C 0.37143 0.60887 0.47628 0.0
C6650 C 0.36089 0.61057 0.45534 0.0
C6651 C 0.35901 0.60925 0.44715 0.0
C6652 C 0.35394 0.61464 0.44298 0.0
C6653 C 0.35072 0.62151 0.44692 0.0
C6654 C 0.35259 0.62279 0.45517 0.0
C6655 C 0.35767 0.61738 0.45934 0.0
P6656 P 0.29103 0.14748 0.38025 0.0
H6657 H 0.29227 0.15459 0.36397 0.0
H6658 H 0.29616 0.14889 0.35078 0.0
H6659 H 0.29841 0.12514 0.36182 0.0
H6660 H 0.29433 0.13083 0.37486 0.0
H6661 H 0.28098 0.15715 0.3911 0.0
H6662 H 0.26644 0.15712 0.39417 0.0
H6663 H 0.26305 0.13697 0.37764 0.0
H6664 H 0.27763 0.13697 0.37472 0.0
H6665 H 0.30784 0.1491 0.38534 0.0
H6666 H 0.28741 0.13374 0.39113 0.0
O6667 O 0.29398 0.15719 0.38023 0.0
H6668 H 0.31657 0.14084 0.39405 0.0
H6669 H 0.29615 0.12532 0.39974 0.0
C6670 C 0.29319 0.14317 0.37042 0.0
C6671 C 0.29356 0.14815 0.36352 0.0
C6672 C 0.29581 0.14489 0.35599 0.0
C6673 C 0.29767 0.13657 0.35524 0.0
C6674 C 0.29696 0.13155 0.36214 0.0
C6675 C 0.2947 0.13482 0.36964 0.0
C6676 C 0.28034 0.14717 0.38256 0.0
C6677 C 0.2771 0.15274 0.38813 0.0
C6678 C 0.26878 0.15273 0.38985 0.0
C6679 C 0.26356 0.1471 0.38608 0.0
C6680 C 0.2669 0.14137 0.38067 0.0
C6681 C 0.27523 0.1414 0.37894 0.0
C6682 C 0.29696 0.14211 0.3877 0.0
C6683 C 0.3052 0.14403 0.38861 0.0
C6684 C 0.31021 0.13925 0.39352 0.0
C6685 C 0.30707 0.13239 0.39755 0.0
C6686 C 0.29873 0.13062 0.3968 0.0
C6687 C 0.29373 0.13542 0.39188 0.0
P6688 P 0.79126 0.35414 0.62086 0.0
H6689 H 0.79443 0.34753 0.6371 0.0
H6690 H 0.79906 0.35383 0.64977 0.0
H6691 H 0.79801 0.37745 0.63832 0.0
H6692 H 0.79352 0.37111 0.62569 0.0
H6693 H 0.78101 0.34378 0.61087 0.0
H6694 H 0.76639 0.3435 0.60823 0.0
H6695 H 0.76314 0.36401 0.62433 0.0
H6696 H 0.77778 0.36432 0.62683 0.0
H6697 H 0.80788 0.35348 0.61493 0.0
H6698 H 0.78615 0.3672 0.60974 0.0
O6699 O 0.79466 0.34458 0.6209 0.0
H6700 H 0.81554 0.36197 0.60547 0.0
H6701 H 0.79375 0.37565 0.60015 0.0
C6702 C 0.79382 0.35883 0.63041 0.0
C6703 C 0.79517 0.35407 0.63734 0.0
C6704 C 0.79776 0.35768 0.64459 0.0
C6705 C 0.79901 0.36613 0.64502 0.0
C6706 C 0.79728 0.37091 0.63814 0.0
C6707 C 0.79469 0.36729 0.63091 0.0
C6708 C 0.78045 0.35396 0.61917 0.0
C6709 C 0.77714 0.34818 0.61387 0.0
C6710 C 0.76878 0.34801 0.61239 0.0
C6711 C 0.76359 0.35369 0.61612 0.0
C6712 C 0.76697 0.35957 0.62133 0.0
C6713 C 0.77534 0.35972 0.62282 0.0
C6714 C 0.79643 0.35961 0.61292 0.0
C6715 C 0.80472 0.35819 0.61159 0.0
C6716 C 0.80909 0.36305 0.60617 0.0
C6717 C 0.80526 0.36948 0.60203 0.0
C6718 C 0.79689 0.37078 0.60328 0.0
C6719 C 0.79252 0.3659 0.6087 0.0
P6720 P 0.39742 0.04153 0.36964 0.0
H6721 H 0.40626 0.04636 0.38435 0.0
H6722 H 0.4017 0.05144 0.39756 0.0
H6723 H 0.37672 0.04793 0.39024 0.0
H6724 H 0.38132 0.04281 0.37706 0.0
H6725 H 0.40465 0.03135 0.35719 0.0
H6726 H 0.40439 0.01671 0.35461 0.0
H6727 H 0.38875 0.01338 0.37546 0.0
H6728 H 0.38897 0.02801 0.37794 0.0
H6729 H 0.39816 0.0582 0.36394 0.0
H6730 H 0.38285 0.03727 0.36014 0.0
O6731 O 0.40706 0.04445 0.36841 0.0
H6732 H 0.3891 0.06641 0.3555 0.0
H6733 H 0.37368 0.04547 0.35176 0.0
C6734 C 0.39412 0.0443 0.3797 0.0
C6735 C 0.3998 0.04661 0.38561 0.0
C6736 C 0.39719 0.04954 0.39315 0.0
C6737 C 0.38885 0.05014 0.39492 0.0
C6738 C 0.38318 0.04748 0.38909 0.0
C6739 C 0.38581 0.0446 0.38154 0.0
C6740 C 0.39693 0.03076 0.36781 0.0
C6741 C 0.40118 0.02746 0.36121 0.0
C6742 C 0.40105 0.01909 0.35976 0.0
C6743 C 0.39661 0.01387 0.36487 0.0
C6744 C 0.3922 0.01724 0.37138 0.0
C6745 C 0.39236 0.02562 0.37284 0.0
C6746 C 0.39125 0.04711 0.36254 0.0
C6747 C 0.39291 0.05534 0.36117 0.0
C6748 C 0.38769 0.06004 0.35641 0.0
C6749 C 0.38066 0.0566 0.35297 0.0
C6750 C 0.3791 0.04828 0.35423 0.0
C6751 C 0.38433 0.04358 0.35902 0.0
P6752 P 0.70994 0.64623 0.12038 0.0
H6753 H 0.70793 0.65369 0.1364 0.0
H6754 H 0.70366 0.64825 0.14959 0.0
H6755 H 0.702 0.62424 0.13902 0.0
H6756 H 0.70647 0.62968 0.12599 0.0
H6757 H 0.72023 0.6561 0.10993 0.0
H6758 H 0.73489 0.65642 0.10752 0.0
H6759 H 0.73811 0.637 0.12493 0.0
H6760 H 0.72342 0.63663 0.12719 0.0
H6761 H 0.69338 0.64626 0.11427 0.0
H6762 H 0.71544 0.63281 0.1099 0.0
O6763 O 0.70644 0.65574 0.11984 0.0
H6764 H 0.68605 0.63734 0.10494 0.0
H6765 H 0.7082 0.62394 0.10042 0.0
C6766 C 0.70734 0.64212 0.13019 0.0
C6767 C 0.70668 0.64725 0.13696 0.0
C6768 C 0.70421 0.64414 0.14448 0.0
C6769 C 0.70241 0.63582 0.14536 0.0
C6770 C 0.70339 0.63066 0.1386 0.0
C6771 C 0.70587 0.63378 0.1311 0.0
C6772 C 0.72077 0.64646 0.11885 0.0
C6773 C 0.7241 0.65196 0.11327 0.0
C6774 C 0.73249 0.65215 0.11192 0.0
C6775 C 0.73769 0.64678 0.11609 0.0
C6776 C 0.73428 0.64119 0.12159 0.0
C6777 C 0.72588 0.64101 0.12294 0.0
C6778 C 0.70497 0.64029 0.11266 0.0
C6779 C 0.69668 0.6415 0.11115 0.0
C6780 C 0.69251 0.6364 0.10579 0.0
C6781 C 0.69654 0.62994 0.10189 0.0
C6782 C 0.7049 0.62882 0.10336 0.0
C6783 C 0.70907 0.63394 0.10872 0.0
P6784 P 0.60226 0.45981 0.36896 0.0
H6785 H 0.59544 0.45584 0.38499 0.0
H6786 H 0.60169 0.451 0.39761 0.0
H6787 H 0.62544 0.45311 0.38658 0.0
H6788 H 0.61916 0.45787 0.37401 0.0
H6789 H 0.59559 0.46985 0.35609 0.0
H6790 H 0.59581 0.48449 0.35348 0.0
H6791 H 0.61059 0.48801 0.37492 0.0
H6792 H 0.61017 0.47343 0.37758 0.0
H6793 H 0.60017 0.44326 0.36315 0.0
H6794 H 0.61596 0.46357 0.35813 0.0
O6795 O 0.59247 0.45713 0.36904 0.0
H6796 H 0.60831 0.43467 0.35419 0.0
H6797 H 0.62425 0.45497 0.34927 0.0
C6798 C 0.60683 0.45704 0.37852 0.0
C6799 C 0.60199 0.4553 0.38531 0.0
C6800 C 0.60557 0.45258 0.39253 0.0
C6801 C 0.61405 0.45157 0.39306 0.0
C6802 C 0.61888 0.45366 0.38632 0.0
C6803 C 0.6153 0.4564 0.37913 0.0
C6804 C 0.60282 0.47056 0.36703 0.0
C6805 C 0.59888 0.47379 0.36021 0.0
C6806 C 0.59905 0.48215 0.35871 0.0
C6807 C 0.6032 0.48743 0.36401 0.0
C6808 C 0.60724 0.48413 0.37079 0.0
C6809 C 0.60705 0.47577 0.37229 0.0
C6810 C 0.60738 0.45407 0.36119 0.0
C6811 C 0.6053 0.44591 0.35998 0.0
C6812 C 0.61001 0.44099 0.35492 0.0
C6813 C 0.61696 0.44412 0.35105 0.0
C6814 C 0.61888 0.45239 0.35207 0.0
C6815 C 0.61414 0.45732 0.35713 0.0
P6816 P 0.20949 0.85388 0.88074 0.0
H6817 H 0.20369 0.84536 0.86622 0.0
H6818 H 0.19843 0.8502 0.85318 0.0
H6819 H 0.2034 0.87495 0.86039 0.0
H6820 H 0.20867 0.87007 0.87342 0.0
H6821 H 0.21982 0.84565 0.89243 0.0
H6822 H 0.23451 0.84549 0.89467 0.0
H6823 H 0.23773 0.86191 0.87442 0.0
H6824 H 0.22304 0.86211 0.87227 0.0
H6825 H 0.19316 0.854 0.88744 0.0
H6826 H 0.21506 0.86817 0.88995 0.0
O6827 O 0.20609 0.84441 0.88208 0.0
H6828 H 0.18604 0.86331 0.89654 0.0
H6829 H 0.20803 0.87745 0.89921 0.0
C6830 C 0.20648 0.85736 0.87081 0.0
C6831 C 0.20371 0.85182 0.86497 0.0
C6832 C 0.20068 0.85459 0.85753 0.0
C6833 C 0.20046 0.86296 0.85578 0.0
C6834 C 0.20355 0.86847 0.86154 0.0
C6835 C 0.20652 0.86569 0.869 0.0
C6836 C 0.22035 0.85378 0.88211 0.0
C6837 C 0.2237 0.84918 0.88844 0.0
C6838 C 0.2321 0.84907 0.8897 0.0
C6839 C 0.2373 0.85364 0.88468 0.0
C6840 C 0.23389 0.85836 0.87841 0.0
C6841 C 0.22548 0.85844 0.87715 0.0
C6842 C 0.20467 0.86031 0.88815 0.0
C6843 C 0.19648 0.85903 0.89009 0.0
C6844 C 0.19243 0.86435 0.89532 0.0
C6845 C 0.19648 0.87111 0.89866 0.0
C6846 C 0.20472 0.87234 0.89672 0.0
C6847 C 0.20877 0.86699 0.89148 0.0
P6848 P 0.39706 0.95925 0.12988 0.0
H6849 H 0.40441 0.95763 0.11375 0.0
H6850 H 0.39888 0.95357 0.10054 0.0
H6851 H 0.37494 0.95174 0.11123 0.0
H6852 H 0.38047 0.95601 0.1243 0.0
H6853 H 0.40664 0.96928 0.14082 0.0
H6854 H 0.40673 0.98385 0.14376 0.0
H6855 H 0.38725 0.98739 0.12648 0.0
H6856 H 0.38712 0.97279 0.12369 0.0
H6857 H 0.39762 0.94237 0.13498 0.0
H6858 H 0.38369 0.96377 0.14092 0.0
O6859 O 0.40668 0.95603 0.13014 0.0
H6860 H 0.38899 0.93423 0.14391 0.0
H6861 H 0.37494 0.95564 0.14979 0.0
C6862 C 0.39288 0.95695 0.12003 0.0
C6863 C 0.39797 0.9564 0.11322 0.0
C6864 C 0.3948 0.95405 0.10568 0.0
C6865 C 0.38648 0.95225 0.10483 0.0
C6866 C 0.38136 0.95314 0.11163 0.0
C6867 C 0.38453 0.9555 0.11915 0.0
C6868 C 0.39699 0.96999 0.13193 0.0
C6869 C 0.40242 0.97321 0.13764 0.0
C6870 C 0.40248 0.98154 0.13929 0.0
C6871 C 0.39705 0.9868 0.1353 0.0
C6872 C 0.39149 0.9835 0.12969 0.0
C6873 C 0.39145 0.97516 0.12804 0.0
C6874 C 0.39139 0.95369 0.1374 0.0
C6875 C 0.39279 0.94534 0.13832 0.0
C6876 C 0.3878 0.94069 0.14337 0.0
C6877 C 0.38126 0.94428 0.14753 0.0
C6878 C 0.37999 0.95271 0.14674 0.0
C6879 C 0.38499 0.95736 0.14167 0.0
P6880 P 0.10349 0.04173 0.63063 0.0
H6881 H 0.09653 0.04605 0.61476 0.0
H6882 H 0.10274 0.05063 0.60203 0.0
H6883 H 0.12659 0.04707 0.61246 0.0
H6884 H 0.12035 0.04258 0.62516 0.0
H6885 H 0.09649 0.03229 0.64377 0.0
H6886 H 0.09633 0.01775 0.64686 0.0
H6887 H 0.11095 0.01311 0.62552 0.0
H6888 H 0.1109 0.02761 0.62237 0.0
H6889 H 0.10244 0.05855 0.63592 0.0
H6890 H 0.11707 0.03752 0.64147 0.0
O6891 O 0.09383 0.04482 0.63071 0.0
H6892 H 0.11106 0.06689 0.64468 0.0
H6893 H 0.12581 0.04585 0.65015 0.0
C6894 C 0.10799 0.04412 0.62094 0.0
C6895 C 0.1031 0.04619 0.61428 0.0
C6896 C 0.10665 0.04877 0.60699 0.0
C6897 C 0.11516 0.04931 0.60627 0.0
C6898 C 0.12002 0.04688 0.61287 0.0
C6899 C 0.11646 0.04429 0.62013 0.0
C6900 C 0.10366 0.03102 0.63283 0.0
C6901 C 0.09965 0.02812 0.63976 0.0
C6902 C 0.09961 0.01982 0.64155 0.0
C6903 C 0.10362 0.01425 0.63643 0.0
C6904 C 0.1077 0.01721 0.62952 0.0
C6905 C 0.10772 0.02552 0.62774 0.0
C6906 C 0.10903 0.0474 0.63817 0.0
C6907 C 0.10742 0.05569 0.63916 0.0
C6908 C 0.1124 0.06047 0.6441 0.0
C6909 C 0.11915 0.05704 0.64809 0.0
C6910 C 0.12061 0.04866 0.64726 0.0
C6911 C 0.11561 0.04388 0.64229 0.0
C6912 C 0.0094 0.14092 0.40377 0.0
C6913 C 0.0139 0.14072 0.39651 0.0
H6914 H 0.99772 0.13976 0.40939 0.0
C6915 C 0.00983 0.13911 0.38917 0.0
H6916 H 0.01234 0.14222 0.40952 0.0
C6917 C 0.00144 0.13775 0.38909 0.0
C6918 C 0.99693 0.13801 0.39634 0.0
H6919 H 0.01314 0.13885 0.38348 0.0
H6920 H 0.99846 0.13661 0.38333 0.0
C6921 C 0.00101 0.1396 0.40368 0.0
C6922 C 0.11063 0.75836 0.64032 0.0
C6923 C 0.1101 0.76253 0.64777 0.0
H6924 H 0.11253 0.74696 0.63431 0.0
C6925 C 0.11128 0.75817 0.65502 0.0
H6926 H 0.10983 0.76155 0.63462 0.0
C6927 C 0.11289 0.74983 0.65484 0.0
C6928 C 0.11337 0.74565 0.6474 0.0
H6929 H 0.11083 0.76118 0.66086 0.0
H6930 H 0.1138 0.74666 0.66054 0.0
C6931 C 0.11226 0.75002 0.64014 0.0
C6932 C 0.49227 0.85984 0.90475 0.0
C6933 C 0.48773 0.86034 0.89753 0.0
H6934 H 0.50396 0.86092 0.91037 0.0
C6935 C 0.49174 0.8624 0.89026 0.0
H6936 H 0.48938 0.85819 0.91043 0.0
C6937 C 0.5001 0.86392 0.89022 0.0
C6938 C 0.50465 0.86336 0.89743 0.0
H6939 H 0.48839 0.8629 0.88461 0.0
H6940 H 0.50303 0.86543 0.88452 0.0
C6941 C 0.50064 0.86132 0.9047 0.0
C6942 C 0.38844 0.24131 0.14095 0.0
C6943 C 0.39075 0.23738 0.14818 0.0
H6944 H 0.38533 0.25256 0.13516 0.0
C6945 C 0.39154 0.24201 0.15532 0.0
H6946 H 0.38771 0.2379 0.13537 0.0
C6947 C 0.39015 0.25039 0.15521 0.0
C6948 C 0.38789 0.25433 0.14797 0.0
H6949 H 0.39338 0.23918 0.16097 0.0
H6950 H 0.3908 0.25378 0.16082 0.0
C6951 C 0.38701 0.24969 0.14085 0.0
C6952 C 0.00901 0.86183 0.11043 0.0
C6953 C 0.01302 0.86046 0.103 0.0
H6954 H 0.99773 0.86436 0.11643 0.0
C6955 C 0.00849 0.86078 0.09576 0.0
H6956 H 0.01234 0.8617 0.11611 0.0
C6957 C 1.00015 0.86233 0.09594 0.0
C6958 C 0.99612 0.86364 0.10337 0.0
H6959 H 0.01138 0.85967 0.08994 0.0
H6960 H 0.99684 0.86255 0.09025 0.0
C6961 C 0.00066 0.86343 0.11061 0.0
C6962 C 0.3895 0.75792 0.34525 0.0
C6963 C 0.3909 0.76236 0.35242 0.0
H6964 H 0.38673 0.74637 0.33994 0.0
C6965 C 0.39043 0.75831 0.35993 0.0
H6966 H 0.38989 0.76084 0.33936 0.0
C6967 C 0.38868 0.74999 0.36026 0.0
C6968 C 0.38741 0.74553 0.35308 0.0
H6969 H 0.3914 0.76157 0.36557 0.0
H6970 H 0.3885 0.74703 0.36614 0.0
C6971 C 0.38778 0.74961 0.34558 0.0
C6972 C 0.49168 0.1387 0.59581 0.0
C6973 C 0.48728 0.13954 0.60309 0.0
H6974 H 0.50324 0.13653 0.59025 0.0
C6975 C 0.49143 0.13874 0.61052 0.0
H6976 H 0.48869 0.13935 0.58998 0.0
C6977 C 0.49978 0.13719 0.61068 0.0
C6978 C 0.5042 0.13643 0.6034 0.0
H6979 H 0.48821 0.13927 0.61624 0.0
H6980 H 0.50281 0.13674 0.61651 0.0
C6981 C 0.50004 0.13717 0.59596 0.0
C6982 C 0.11184 0.24155 0.86019 0.0
C6983 C 0.11065 0.2375 0.85275 0.0
H6984 H 0.11406 0.25288 0.8662 0.0
C6985 C 0.11106 0.242 0.8455 0.0
H6986 H 0.11164 0.23824 0.86588 0.0
C6987 C 0.11248 0.25037 0.84568 0.0
C6988 C 0.11357 0.25444 0.85312 0.0
H6989 H 0.11009 0.23908 0.83968 0.0
H6990 H 0.11274 0.25366 0.83999 0.0
C6991 C 0.1133 0.24992 0.86037 0.0
C6992 C 0.3901 0.00843 0.1395 0.0
C6993 C 0.39755 0.01254 0.14041 0.0
H6994 H 0.3841 0.9971 0.13724 0.0
C6995 C 0.40482 0.00813 0.13953 0.0
H6996 H 0.38439 0.01166 0.14006 0.0
C6997 C 0.40465 0.9998 0.13784 0.0
C6998 C 0.39721 0.99568 0.13698 0.0
H6999 H 0.41065 0.01109 0.14026 0.0
H7000 H 0.41036 0.9966 0.13716 0.0
C7001 C 0.38994 1.0001 0.1378 0.0
C7002 C 0.24219 0.15498 0.38977 0.0
C7003 C 0.23778 0.14775 0.39094 0.0
H7004 H 0.25372 0.16044 0.38726 0.0
C7005 C 0.24192 0.14029 0.39044 0.0
H7006 H 0.23921 0.16084 0.3902 0.0
C7007 C 0.25027 0.14006 0.38883 0.0
C7008 C 0.25468 0.1473 0.38772 0.0
H7009 H 0.23869 0.1346 0.39125 0.0
H7010 H 0.25329 0.13422 0.38857 0.0
C7011 C 0.25053 0.15476 0.38818 0.0
C7012 C 0.10417 0.99433 0.6481 0.0
C7013 C 0.10317 0.98858 0.64186 0.0
H7014 H 0.1052 0.0069 0.65128 0.0
C7015 C 0.10234 0.99134 0.63381 0.0
H7016 H 0.10474 0.99243 0.65437 0.0
C7017 C 0.10251 0.99965 0.63205 0.0
C7018 C 0.1035 0.0054 0.63829 0.0
H7019 H 0.10164 0.98706 0.62885 0.0
H7020 H 0.10176 0.00157 0.6258 0.0
C7021 C 0.10434 0.00264 0.64634 0.0
C7022 C 0.25861 0.84608 0.88931 0.0
C7023 C 0.26315 0.85331 0.88907 0.0
H7024 H 0.24691 0.84051 0.88807 0.0
C7025 C 0.25915 0.86064 0.8872 0.0
H7026 H 0.26149 0.84035 0.8908 0.0
C7027 C 0.25079 0.86074 0.8857 0.0
C7028 C 0.24623 0.85352 0.88605 0.0
H7029 H 0.2625 0.8663 0.88689 0.0
H7030 H 0.24787 0.86649 0.8844 0.0
C7031 C 0.25024 0.84619 0.88783 0.0
C7032 C 0.40397 0.99254 0.36004 0.0
C7033 C 0.39676 0.98799 0.36061 0.0
H7034 H 0.40958 0.00424 0.36098 0.0
C7035 C 0.3895 0.99201 0.36265 0.0
H7036 H 0.40965 0.98964 0.3584 0.0
C7037 C 0.38945 0.00039 0.36408 0.0
C7038 C 0.39665 0.00495 0.36345 0.0
H7039 H 0.38385 0.98866 0.36321 0.0
H7040 H 0.38374 0.00332 0.36556 0.0
C7041 C 0.40391 0.00092 0.36143 0.0
C7042 C 0.26011 0.1475 0.61811 0.0
C7043 C 0.26299 0.14762 0.61006 0.0
H7044 H 0.24974 0.14729 0.62598 0.0
C7045 C 0.25733 0.14755 0.60366 0.0
H7046 H 0.26431 0.14747 0.62318 0.0
C7047 C 0.24899 0.14738 0.60526 0.0
C7048 C 0.2461 0.14725 0.6133 0.0
H7049 H 0.25934 0.14772 0.59739 0.0
H7050 H 0.2448 0.14726 0.60018 0.0
C7051 C 0.25176 0.14731 0.61971 0.0
C7052 C 0.09663 0.00892 0.86223 0.0
C7053 C 0.10396 0.01331 0.86211 0.0
H7054 H 0.09088 0.99734 0.86368 0.0
C7055 C 0.11129 0.00913 0.8635 0.0
H7056 H 0.09089 0.01193 0.86111 0.0
C7057 C 0.1113 0.00075 0.86488 0.0
C7058 C 0.10397 0.99634 0.8649 0.0
H7059 H 0.11704 0.01235 0.86352 0.0
H7060 H 0.11706 0.99769 0.86579 0.0
C7061 C 0.09664 0.00053 0.86361 0.0
C7062 C 0.24221 0.84706 0.11146 0.0
C7063 C 0.23779 0.85436 0.11103 0.0
H7064 H 0.25378 0.84142 0.1133 0.0
C7065 C 0.24192 0.86176 0.11219 0.0
H7066 H 0.23922 0.84127 0.11051 0.0
C7067 C 0.25028 0.86184 0.11372 0.0
C7068 C 0.25471 0.85454 0.11409 0.0
H7069 H 0.23868 0.86749 0.11198 0.0
H7070 H 0.2533 0.86765 0.11449 0.0
C7071 C 0.25057 0.84715 0.11296 0.0
C7072 C 0.13915 0.40632 0.0074 0.0
C7073 C 0.14014 0.39907 0.0118 0.0
H7074 H 0.13673 0.41182 0.99585 0.0
C7075 C 0.13926 0.39161 0.00772 0.0
H7076 H 0.13986 0.41217 0.01034 0.0
C7077 C 0.13755 0.39141 0.99939 0.0
C7078 C 0.13669 0.39866 0.99496 0.0
H7079 H 0.1399 0.38591 0.01095 0.0
H7080 H 0.13707 0.38556 0.9964 0.0
C7081 C 0.13745 0.40612 0.99907 0.0
C7082 C 0.64037 0.0957 0.99217 0.0
C7083 C 0.64 0.1029 0.98758 0.0
H7084 H 0.63932 0.09017 0.0039 0.0
C7085 C 0.63814 0.11023 0.99157 0.0
H7086 H 0.64187 0.08996 0.9893 0.0
C7087 C 0.63673 0.11036 0.99995 0.0
C7088 C 0.63719 0.10317 0.00455 0.0
H7089 H 0.63772 0.11587 0.9882 0.0
H7090 H 0.63541 0.11612 0.00286 0.0
C7091 C 0.639 0.09583 0.00055 0.0
C7092 C 0.15452 0.38954 0.24278 0.0
C7093 C 0.14727 0.3895 0.23827 0.0
H7094 H 0.1601 0.38822 0.25447 0.0
C7095 C 0.1399 0.38792 0.24231 0.0
H7096 H 0.16029 0.39081 0.23987 0.0
C7097 C 0.13979 0.38649 0.25069 0.0
C7098 C 0.14703 0.38665 0.25522 0.0
H7099 H 0.13422 0.38776 0.23899 0.0
H7100 H 0.134 0.38542 0.25364 0.0
C7101 C 0.1544 0.38815 0.25116 0.0
C7102 C 0.86224 0.88961 0.49118 0.0
C7103 C 0.86081 0.89704 0.4872 0.0
H7104 H 0.86467 0.88358 0.50247 0.0
C7105 C 0.86092 0.90426 0.49178 0.0
H7106 H 0.86227 0.88395 0.48782 0.0
C7107 C 0.86235 0.90405 0.50015 0.0
C7108 C 0.86371 0.89662 0.50415 0.0
H7109 H 0.85977 0.91007 0.48891 0.0
H7110 H 0.8624 0.90972 0.50349 0.0
C7111 C 0.8637 0.8894 0.49956 0.0
C7112 C 0.84634 0.11064 0.24175 0.0
C7113 C 0.85365 0.11023 0.23735 0.0
H7114 H 0.84067 0.11235 0.25334 0.0
C7115 C 0.86104 0.11131 0.24152 0.0
H7116 H 0.84055 0.10975 0.23874 0.0
C7117 C 0.86111 0.11272 0.24991 0.0
C7118 C 0.8538 0.11307 0.25432 0.0
H7119 H 0.86678 0.11111 0.2383 0.0
H7120 H 0.8669 0.11343 0.25295 0.0
C7121 C 0.84641 0.11203 0.25014 0.0
C7122 C 0.36133 0.61052 0.51001 0.0
C7123 C 0.35982 0.60308 0.51396 0.0
H7124 H 0.36382 0.61658 0.49876 0.0
C7125 C 0.35986 0.59589 0.50935 0.0
H7126 H 0.36142 0.61616 0.51341 0.0
C7127 C 0.36127 0.59613 0.50098 0.0
C7128 C 0.36272 0.60356 0.49702 0.0
H7129 H 0.35864 0.59007 0.51219 0.0
H7130 H 0.36127 0.59047 0.49761 0.0
C7131 C 0.36279 0.61075 0.50164 0.0
C7132 C 0.14936 0.61658 0.25954 0.0
C7133 C 0.14827 0.60862 0.26243 0.0
H7134 H 0.15023 0.6244 0.24917 0.0
C7135 C 0.1471 0.60231 0.25678 0.0
H7136 H 0.15019 0.6216 0.26372 0.0
C7137 C 0.14702 0.60393 0.24844 0.0
C7138 C 0.14811 0.61189 0.24554 0.0
H7139 H 0.14633 0.59609 0.25879 0.0
H7140 H 0.14602 0.59894 0.24426 0.0
C7141 C 0.14928 0.6182 0.25119 0.0
C7142 C 0.35228 0.38241 0.76031 0.0
C7143 C 0.35302 0.39045 0.76311 0.0
H7144 H 0.35165 0.37445 0.75003 0.0
C7145 C 0.3539 0.39673 0.75738 0.0
H7146 H 0.35167 0.37741 0.76456 0.0
C7147 C 0.35399 0.39503 0.74906 0.0
C7148 C 0.35319 0.387 0.74625 0.0
H7149 H 0.35439 0.40301 0.75932 0.0
H7150 H 0.35473 0.40002 0.74483 0.0
C7151 C 0.35236 0.3807 0.75198 0.0
C7152 C 0.99103 0.85156 0.61049 0.0
C7153 C 0.98793 0.85418 0.60298 0.0
H7154 H 0.00073 0.85209 0.61907 0.0
C7155 C 0.99274 0.8593 0.5981 0.0
H7156 H 0.98742 0.84777 0.61449 0.0
C7157 C 0.00047 0.86176 0.60072 0.0
C7158 C 0.00352 0.85919 0.60829 0.0
H7159 H 0.99054 0.86138 0.59225 0.0
H7160 H 0.00404 0.86568 0.59683 0.0
C7161 C 0.9987 0.85403 0.61311 0.0
C7162 C 0.89639 0.23845 0.36392 0.0
C7163 C 0.89531 0.23621 0.35575 0.0
H7164 H 0.89477 0.24752 0.37304 0.0
C7165 C 0.89163 0.24177 0.3504 0.0
H7166 H 0.89903 0.23424 0.36824 0.0
C7167 C 0.88921 0.24946 0.35315 0.0
C7168 C 0.89041 0.25173 0.36131 0.0
H7169 H 0.89075 0.24022 0.34406 0.0
H7170 H 0.88653 0.25368 0.34886 0.0
C7171 C 0.89396 0.24609 0.36666 0.0
C7172 C 0.50707 0.15099 0.10268 0.0
C7173 C 0.51337 0.14529 0.10169 0.0
H7174 H 0.49474 0.15309 0.1063 0.0
C7175 C 0.51168 0.13702 0.10303 0.0
H7176 H 0.50811 0.15739 0.10153 0.0
C7177 C 0.50399 0.13456 0.1057 0.0
C7178 C 0.49784 0.14032 0.10712 0.0
H7179 H 0.5164 0.13247 0.10242 0.0
H7180 H 0.50299 0.12819 0.10706 0.0
C7181 C 0.4994 0.14853 0.10539 0.0
C7182 C 0.60776 0.75931 0.84996 0.0
C7183 C 0.60322 0.7644 0.85512 0.0
H7184 H 0.61368 0.74778 0.84846 0.0
C7185 C 0.60119 0.76159 0.86293 0.0
H7186 H 0.60937 0.76128 0.84389 0.0
C7187 C 0.60366 0.75391 0.86554 0.0
C7188 C 0.60822 0.74881 0.86042 0.0
H7189 H 0.59787 0.76542 0.86713 0.0
H7190 H 0.60218 0.75208 0.87169 0.0
C7191 C 0.61023 0.75158 0.85258 0.0
C7192 C 0.99049 0.15073 0.89367 0.0
C7193 C 0.98713 0.14723 0.90069 0.0
H7194 H 1.00029 0.15088 0.88518 0.0
C7195 C 0.99163 0.14128 0.90488 0.0
H7196 H 0.98713 0.15519 0.89018 0.0
C7197 C 0.99926 0.1388 0.902 0.0
C7198 C 0.00253 0.14221 0.89487 0.0
H7199 H 0.98924 0.13851 0.91035 0.0
H7200 H 0.00256 0.13418 0.90533 0.0
C7201 C 0.99807 0.14826 0.8908 0.0
C7202 C 0.60833 0.24193 0.64972 0.0
C7203 C 0.60542 0.23624 0.64405 0.0
H7204 H 0.61284 0.25402 0.65169 0.0
C7205 C 0.60518 0.23839 0.63579 0.0
H7206 H 0.60855 0.24045 0.65613 0.0
C7207 C 0.60764 0.24609 0.63326 0.0
C7208 C 0.61039 0.25188 0.63892 0.0
H7209 H 0.60315 0.23408 0.63125 0.0
H7210 H 0.60747 0.24747 0.62682 0.0
C7211 C 0.61078 0.24969 0.64718 0.0
C7212 C 0.50641 0.85014 0.40007 0.0
C7213 C 0.5131 0.85546 0.40022 0.0
H7214 H 0.49384 0.84852 0.3971 0.0
C7215 C 0.51192 0.86362 0.39796 0.0
H7216 H 0.50708 0.84386 0.40192 0.0
C7217 C 0.50433 0.86629 0.39522 0.0
C7218 C 0.49775 0.86087 0.39466 0.0
H7219 H 0.51696 0.86786 0.39791 0.0
H7220 H 0.50376 0.8725 0.39312 0.0
C7221 C 0.49882 0.85281 0.39732 0.0
C7222 C 0.89307 0.75921 0.15069 0.0
C7223 C 0.8974 0.76442 0.14547 0.0
H7224 H 0.88737 0.74758 0.15223 0.0
C7225 C 0.89924 0.76173 0.13758 0.0
H7226 H 0.89161 0.76109 0.15683 0.0
C7227 C 0.8968 0.75405 0.13494 0.0
C7228 C 0.89247 0.74882 0.14013 0.0
H7229 H 0.90239 0.76565 0.13333 0.0
H7230 H 0.89813 0.75231 0.12873 0.0
C7231 C 0.89064 0.75148 0.14805 0.0
C7232 C 0.61093 0.98955 0.85104 0.0
C7233 C 0.60319 0.98663 0.85318 0.0
H7234 H 0.61963 0.99911 0.85201 0.0
C7235 C 0.59806 0.99163 0.85786 0.0
H7236 H 0.61511 0.9858 0.8476 0.0
C7237 C 0.60066 0.99934 0.86039 0.0
C7238 C 0.60844 0.00221 0.8583 0.0
H7239 H 0.59204 0.98958 0.85957 0.0
H7240 H 0.59657 0.00305 0.86397 0.0
C7241 C 0.61352 0.99721 0.85357 0.0
C7242 C 0.75934 0.84723 0.60986 0.0
C7243 C 0.76375 0.85149 0.6039 0.0
H7244 H 0.74849 0.84666 0.6171 0.0
C7245 C 0.76036 0.8586 0.60058 0.0
H7246 H 0.76175 0.84169 0.61249 0.0
C7247 C 0.75281 0.86143 0.60321 0.0
C7248 C 0.74842 0.85724 0.60922 0.0
H7249 H 0.76366 0.86214 0.59612 0.0
H7250 H 0.75056 0.86708 0.6007 0.0
C7251 C 0.75174 0.85007 0.61249 0.0
C7252 C 0.89404 0.00892 0.35083 0.0
C7253 C 0.89959 0.01343 0.35551 0.0
H7254 H 0.88696 0.99809 0.34975 0.0
C7255 C 0.90274 0.00991 0.36265 0.0
H7256 H 0.89136 0.01147 0.34539 0.0
C7257 C 0.90015 0.00221 0.3652 0.0
C7258 C 0.8944 0.99785 0.36063 0.0
H7259 H 0.90713 0.01314 0.36634 0.0
H7260 H 0.90255 0.99973 0.3708 0.0
C7261 C 0.8915 0.00122 0.35334 0.0
C7262 C 0.74055 0.14105 0.10063 0.0
C7263 C 0.73731 0.14836 0.10363 0.0
H7264 H 0.75029 0.13249 0.10098 0.0
C7265 C 0.74193 0.15295 0.10917 0.0
H7266 H 0.73709 0.13726 0.0965 0.0
C7267 C 0.74958 0.15021 0.11173 0.0
C7268 C 0.75275 0.14281 0.10883 0.0
H7269 H 0.73964 0.15865 0.11153 0.0
H7270 H 0.75299 0.15386 0.11602 0.0
C7271 C 0.74816 0.13831 0.1032 0.0
C7272 C 0.60416 0.00786 0.65105 0.0
C7273 C 0.60284 0.01406 0.6453 0.0
H7274 H 0.60785 0.99556 0.65315 0.0
C7275 C 0.60366 0.01221 0.63699 0.0
H7276 H 0.60342 0.00903 0.65748 0.0
C7277 C 0.60615 0.00446 0.63451 0.0
C7278 C 0.6079 0.99841 0.64029 0.0
H7279 H 0.60275 0.01685 0.63241 0.0
H7280 H 0.60711 0.00334 0.6281 0.0
C7281 C 0.60668 1.00014 0.64857 0.0
C7282 C 0.74168 0.84825 0.39301 0.0
C7283 C 0.73683 0.85313 0.39809 0.0
H7284 H 0.753 0.847 0.38664 0.0
C7285 C 0.73993 0.86064 0.40074 0.0
H7286 H 0.73951 0.8424 0.39091 0.0
C7287 C 0.74761 0.86326 0.3983 0.0
C7288 C 0.75244 0.85845 0.39314 0.0
H7289 H 0.7363 0.86464 0.4045 0.0
H7290 H 0.74964 0.86922 0.40025 0.0
C7291 C 0.74941 0.85088 0.39056 0.0
C7292 C 0.90062 0.9914 0.14295 0.0
C7293 C 0.89519 0.98604 0.14682 0.0
H7294 H 0.90236 0.00317 0.1376 0.0
C7295 C 0.88713 0.98854 0.14808 0.0
H7296 H 0.90688 0.98965 0.14193 0.0
C7297 C 0.88454 0.99621 0.14558 0.0
C7298 C 0.88995 0.00163 0.14178 0.0
H7299 H 0.88274 0.98449 0.15087 0.0
H7300 H 0.87822 0.99783 0.1465 0.0
C7301 C 0.89802 0.99913 0.14047 0.0
C7302 C 0.75923 0.15034 0.88807 0.0
C7303 C 0.76243 0.14922 0.89592 0.0
H7304 H 0.74948 0.14787 0.87981 0.0
C7305 C 0.75758 0.14533 0.9018 0.0
H7306 H 0.76272 0.15344 0.88343 0.0
C7307 C 0.74992 0.14229 0.89977 0.0
C7308 C 0.74691 0.14299 0.89179 0.0
H7309 H 0.75984 0.14429 0.90789 0.0
H7310 H 0.74643 0.13918 0.90441 0.0
C7311 C 0.75157 0.14724 0.88602 0.0
C7312 C 0.85853 0.60177 0.99198 0.0
C7313 C 0.8557 0.60736 0.98616 0.0
H7314 H 0.86296 0.59997 0.00412 0.0
C7315 C 0.85554 0.61566 0.98816 0.0
H7316 H 0.85869 0.59533 0.99062 0.0
C7317 C 0.85801 0.61831 0.99582 0.0
C7318 C 0.86066 0.61273 0.00173 0.0
H7319 H 0.85358 0.62014 0.98375 0.0
H7320 H 0.8579 0.62477 0.99708 0.0
C7321 C 0.86098 0.60443 0.9997 0.0
C7322 C 0.35559 0.8846 0.01325 0.0
C7323 C 0.3556 0.89292 0.0152 0.0
H7324 H 0.35798 0.87549 0.00435 0.0
C7325 C 0.3582 0.89853 0.00929 0.0
H7326 H 0.35382 0.88011 0.01772 0.0
C7327 C 0.36056 0.89587 0.00154 0.0
C7328 C 0.36039 0.88755 0.99957 0.0
H7329 H 0.35825 0.90498 0.0106 0.0
H7330 H 0.36237 0.90034 0.99706 0.0
C7331 C 0.35797 0.88196 0.00556 0.0
C7332 C 0.86334 0.60289 0.76158 0.0
C7333 C 0.85545 0.60463 0.76434 0.0
H7334 H 0.87208 0.6041 0.75207 0.0
C7335 C 0.85016 0.60898 0.75921 0.0
H7336 H 0.86764 0.59973 0.76543 0.0
C7337 C 0.85271 0.61148 0.75148 0.0
C7338 C 0.86061 0.6097 0.74873 0.0
H7339 H 0.84402 0.61037 0.76115 0.0
H7340 H 0.84848 0.61475 0.74763 0.0
C7341 C 0.86589 0.60539 0.75389 0.0
C7342 C 0.1489 0.11201 0.51069 0.0
C7343 C 0.14686 0.10422 0.51353 0.0
H7344 H 0.14779 0.12079 0.50121 0.0
C7345 C 0.14215 0.09912 0.50855 0.0
H7346 H 0.15237 0.11617 0.51444 0.0
C7347 C 0.13953 0.10177 0.50089 0.0
C7348 C 0.14157 0.10959 0.49807 0.0
H7349 H 0.14053 0.09306 0.51055 0.0
H7350 H 0.13595 0.09769 0.49716 0.0
C7351 C 0.14629 0.11466 0.50307 0.0
C7352 C 0.14773 0.89925 0.75613 0.0
C7353 C 0.14876 0.89407 0.76286 0.0
H7354 H 0.14378 0.90041 0.74378 0.0
C7355 C 0.14729 0.88571 0.76187 0.0
H7356 H 0.14893 0.9057 0.75664 0.0
C7357 C 0.14444 0.88267 0.75447 0.0
C7358 C 0.14297 0.88791 0.74788 0.0
H7359 H 0.14797 0.88155 0.76693 0.0
H7360 H 0.14314 0.87623 0.75399 0.0
C7361 C 0.14487 0.8962 0.74872 0.0
C7362 C 0.64032 0.40238 0.49106 0.0
C7363 C 0.64663 0.39847 0.4868 0.0
H7364 H 0.63282 0.40254 0.50173 0.0
C7365 C 0.65037 0.39166 0.49035 0.0
H7366 H 0.63736 0.40769 0.48853 0.0
C7367 C 0.64779 0.38873 0.49788 0.0
C7368 C 0.64139 0.39253 0.50209 0.0
H7369 H 0.65513 0.38838 0.48719 0.0
H7370 H 0.65063 0.38329 0.50026 0.0
C7371 C 0.63772 0.39944 0.49862 0.0
C7372 C 0.8542 0.39976 0.74407 0.0
C7373 C 0.85295 0.39456 0.73739 0.0
H7374 H 0.85828 0.4009 0.75638 0.0
C7375 C 0.85424 0.38618 0.73841 0.0
H7376 H 0.85315 0.40623 0.74352 0.0
C7377 C 0.8571 0.38311 0.7458 0.0
C7378 C 0.85873 0.38836 0.75235 0.0
H7379 H 0.85339 0.38201 0.73339 0.0
H7380 H 0.85823 0.37665 0.74632 0.0
C7381 C 0.85705 0.39669 0.75147 0.0
C7382 C 0.63547 0.60494 0.23761 0.0
C7383 C 0.64374 0.60512 0.23547 0.0
H7384 H 0.62651 0.60724 0.2467 0.0
C7385 C 0.64943 0.60789 0.24122 0.0
H7386 H 0.63091 0.60303 0.23326 0.0
C7387 C 0.6469 0.61028 0.249 0.0
C7388 C 0.63863 0.60997 0.25117 0.0
H7389 H 0.65585 0.60806 0.23976 0.0
H7390 H 0.65143 0.61223 0.25336 0.0
C7391 C 0.63295 0.60735 0.24534 0.0
C7392 C 0.50903 0.63968 0.88972 0.0
C7393 C 0.51306 0.64129 0.89708 0.0
H7394 H 0.49771 0.6371 0.88382 0.0
C7395 C 0.50852 0.64143 0.90432 0.0
H7396 H 0.51236 0.63946 0.88404 0.0
C7397 C 0.50014 0.64004 0.90419 0.0
C7398 C 0.4961 0.63844 0.89683 0.0
H7399 H 0.51143 0.64273 0.91008 0.0
H7400 H 0.49683 0.64014 0.90988 0.0
C7401 C 0.50065 0.63825 0.88959 0.0
C7402 C 0.61158 0.25908 0.13982 0.0
C7403 C 0.61014 0.26315 0.1472 0.0
H7404 H 0.61405 0.24773 0.13393 0.0
C7405 C 0.61024 0.25866 0.15447 0.0
H7406 H 0.61161 0.26238 0.13413 0.0
C7407 C 0.61168 0.25029 0.15437 0.0
C7408 C 0.61307 0.24621 0.14699 0.0
H7409 H 0.60908 0.2616 0.16025 0.0
H7410 H 0.61174 0.24702 0.16008 0.0
C7411 C 0.61305 0.25071 0.13972 0.0
C7412 C 0.99174 0.36152 0.40445 0.0
C7413 C 0.98744 0.3607 0.39711 0.0
H7414 H 0.00323 0.36362 0.41019 0.0
C7415 C 0.9917 0.36145 0.38974 0.0
H7416 H 0.98866 0.3609 0.41024 0.0
C7417 C 1.00008 0.36293 0.38971 0.0
C7418 C 0.00438 0.36368 0.39705 0.0
H7419 H 0.98856 0.36093 0.38397 0.0
H7420 H 0.00319 0.36336 0.38392 0.0
C7421 C 1.00011 0.36298 0.40442 0.0
C7422 C 0.88972 0.74153 0.6548 0.0
C7423 C 0.89066 0.73722 0.64747 0.0
H7424 H 0.88761 0.75304 0.66049 0.0
C7425 C 0.89013 0.7415 0.64009 0.0
H7426 H 0.89018 0.73844 0.66059 0.0
C7427 C 0.88873 0.74988 0.64003 0.0
C7428 C 0.88786 0.75419 0.64736 0.0
H7429 H 0.89074 0.73835 0.63433 0.0
H7430 H 0.88845 0.753 0.63424 0.0
C7431 C 0.88834 0.74991 0.65474 0.0
C7432 C 0.5104 0.36763 0.59935 0.0
C7433 C 0.51371 0.3609 0.60345 0.0
H7434 H 0.49966 0.37422 0.5961 0.0
C7435 C 0.50843 0.35563 0.60763 0.0
H7436 H 0.51428 0.37187 0.59614 0.0
C7437 C 0.50006 0.35707 0.60773 0.0
C7438 C 0.49674 0.36379 0.60362 0.0
H7439 H 0.51075 0.35033 0.61076 0.0
H7440 H 0.4962 0.35294 0.61111 0.0
C7441 C 0.50201 0.36905 0.59942 0.0
C7442 C 0.88974 0.25884 0.86038 0.0
C7443 C 0.89108 0.26282 0.85293 0.0
H7444 H 0.88738 0.24755 0.86644 0.0
C7445 C 0.8909 0.25824 0.84572 0.0
H7446 H 0.88977 0.26221 0.86604 0.0
C7447 C 0.88949 0.24987 0.84595 0.0
C7448 C 0.8882 0.24587 0.8534 0.0
H7449 H 0.89198 0.26111 0.83989 0.0
H7450 H 0.88937 0.24652 0.84028 0.0
C7451 C 0.88829 0.25046 0.86061 0.0
C7452 C 0.99226 0.63992 0.09672 0.0
C7453 C 0.98774 0.63997 0.10397 0.0
H7454 H 0.00394 0.6385 0.09116 0.0
C7455 C 0.99178 0.63849 0.11136 0.0
H7456 H 0.98935 0.64111 0.09094 0.0
C7457 C 1.00016 0.63706 0.1115 0.0
C7458 C 0.00469 0.6371 0.10425 0.0
H7459 H 0.98846 0.63842 0.11704 0.0
H7460 H 0.00311 0.63605 0.1173 0.0
C7461 C 0.00064 0.63851 0.09686 0.0
C7462 C 0.61153 0.74218 0.34535 0.0
C7463 C 0.61095 0.73769 0.35259 0.0
H7464 H 0.61343 0.75383 0.33986 0.0
C7465 C 0.61202 0.74173 0.36005 0.0
H7466 H 0.61066 0.73927 0.3395 0.0
C7467 C 0.61355 0.75009 0.36025 0.0
C7468 C 0.61399 0.7546 0.35301 0.0
H7469 H 0.61169 0.73842 0.36573 0.0
H7470 H 0.61421 0.75305 0.3661 0.0
C7471 C 0.61302 0.75054 0.34555 0.0
C7472 C 0.88962 0.50977 0.63668 0.0
C7473 C 0.89666 0.51363 0.63963 0.0
H7474 H 0.884 0.49854 0.63319 0.0
C7475 C 0.90359 0.5089 0.64124 0.0
H7476 H 0.8842 0.51325 0.63533 0.0
C7477 C 0.90348 0.5005 0.64 0.0
C7478 C 0.89644 0.49663 0.63708 0.0
H7479 H 0.90908 0.51168 0.64359 0.0
H7480 H 0.90893 0.49704 0.64127 0.0
C7481 C 0.88953 0.50136 0.63539 0.0
C7482 C 0.74139 0.64034 0.88865 0.0
C7483 C 0.73727 0.64777 0.88957 0.0
H7484 H 0.75276 0.63435 0.88656 0.0
C7485 C 0.7417 0.65505 0.88886 0.0
H7486 H 0.73815 0.63463 0.88907 0.0
C7487 C 0.75006 0.65489 0.88735 0.0
C7488 C 0.75419 0.64745 0.88649 0.0
H7489 H 0.73873 0.66088 0.88961 0.0
H7490 H 0.75329 0.6606 0.88681 0.0
C7491 C 0.74975 0.64018 0.88712 0.0
C7492 C 0.61041 0.49239 0.13921 0.0
C7493 C 0.60301 0.48829 0.14043 0.0
H7494 H 0.61634 0.5037 0.13669 0.0
C7495 C 0.59571 0.49271 0.13983 0.0
H7496 H 0.61614 0.48915 0.13955 0.0
C7497 C 0.59583 0.50103 0.13813 0.0
C7498 C 0.60323 0.50514 0.13697 0.0
H7499 H 0.58991 0.48976 0.14081 0.0
H7500 H 0.5901 0.50425 0.13769 0.0
C7501 C 0.61052 0.50071 0.13749 0.0
C7502 C 0.75849 0.34629 0.38983 0.0
C7503 C 0.76301 0.35354 0.38989 0.0
H7504 H 0.74683 0.34072 0.38831 0.0
C7505 C 0.75898 0.36091 0.3883 0.0
H7506 H 0.76139 0.34051 0.3911 0.0
C7507 C 0.75062 0.36104 0.38675 0.0
C7508 C 0.74609 0.35379 0.3868 0.0
H7509 H 0.7623 0.3666 0.38822 0.0
H7510 H 0.74769 0.36683 0.38567 0.0
C7511 C 0.75013 0.34641 0.38831 0.0
C7512 C 0.89707 0.49451 0.85298 0.0
C7513 C 0.89778 0.48873 0.85924 0.0
H7514 H 0.89634 0.5071 0.8498 0.0
C7515 C 0.8984 0.49145 0.86732 0.0
H7516 H 0.89668 0.49263 0.84669 0.0
C7517 C 0.8983 0.49977 0.8691 0.0
C7518 C 0.89759 0.50555 0.86284 0.0
H7519 H 0.89887 0.48716 0.87228 0.0
H7520 H 0.89887 0.50166 0.87537 0.0
C7521 C 0.89698 0.50282 0.85476 0.0
C7522 C 0.75944 0.63996 0.11239 0.0
C7523 C 0.76352 0.64743 0.11152 0.0
H7524 H 0.74811 0.6339 0.11445 0.0
C7525 C 0.75906 0.65467 0.11231 0.0
H7526 H 0.76271 0.63427 0.11191 0.0
C7527 C 0.75071 0.65446 0.11384 0.0
C7528 C 0.74661 0.647 0.11464 0.0
H7529 H 0.762 0.66052 0.1116 0.0
H7530 H 0.74745 0.66016 0.11443 0.0
C7531 C 0.75109 0.63975 0.11394 0.0
C7532 C 0.60239 0.51025 0.36753 0.0
C7533 C 0.60325 0.51331 0.3596 0.0
H7534 H 0.60163 0.49972 0.37514 0.0
C7535 C 0.60412 0.50778 0.35313 0.0
H7536 H 0.60179 0.51434 0.37266 0.0
C7537 C 0.60413 0.49941 0.35456 0.0
C7538 C 0.60326 0.49635 0.3625 0.0
H7539 H 0.60471 0.50993 0.34694 0.0
H7540 H 0.60488 0.49533 0.34945 0.0
C7541 C 0.6024 0.50187 0.36897 0.0
C7542 C 0.74219 0.34582 0.61248 0.0
C7543 C 0.73785 0.35304 0.61105 0.0
H7544 H 0.75368 0.34036 0.61525 0.0
C7545 C 0.74201 0.3605 0.61149 0.0
H7546 H 0.7392 0.33997 0.61211 0.0
C7547 C 0.75033 0.36072 0.61322 0.0
C7548 C 0.75469 0.35349 0.61453 0.0
H7549 H 0.73883 0.36618 0.6105 0.0
H7550 H 0.75338 0.36655 0.61338 0.0
C7551 C 0.75051 0.34604 0.61418 0.0
C7552 C 0.64103 0.90507 0.50824 0.0
C7553 C 0.64059 0.89794 0.51292 0.0
H7554 H 0.63992 0.91047 0.49646 0.0
C7555 C 0.63855 0.89059 0.50905 0.0
H7556 H 0.64268 0.91081 0.51102 0.0
C7557 C 0.637 0.89039 0.50069 0.0
C7558 C 0.63753 0.89752 0.49601 0.0
H7559 H 0.6381 0.885 0.51251 0.0
H7560 H 0.63551 0.88463 0.49787 0.0
C7561 C 0.63954 0.90486 0.49989 0.0
C7562 C 0.14037 0.59622 0.49208 0.0
C7563 C 0.14062 0.60346 0.48754 0.0
H7564 H 0.13875 0.59073 0.50376 0.0
C7565 C 0.13929 0.61089 0.49155 0.0
H7566 H 0.14145 0.59041 0.48919 0.0
C7567 C 0.1378 0.61108 0.49992 0.0
C7568 C 0.13765 0.60385 0.50447 0.0
H7569 H 0.13937 0.61656 0.48822 0.0
H7570 H 0.1369 0.61691 0.50285 0.0
C7571 C 0.13892 0.59642 0.50045 0.0
C7572 C 0.63913 0.88649 0.74171 0.0
C7573 C 0.64616 0.88944 0.73784 0.0
H7574 H 0.63355 0.8829 0.75293 0.0
C7575 C 0.65313 0.89096 0.74254 0.0
H7576 H 0.63368 0.8852 0.73825 0.0
C7577 C 0.65306 0.88963 0.75093 0.0
C7578 C 0.64603 0.88671 0.75481 0.0
H7579 H 0.65861 0.89332 0.73976 0.0
H7580 H 0.65854 0.89084 0.75437 0.0
C7581 C 0.63907 0.88511 0.75011 0.0
C7582 C 0.3619 0.40494 0.99164 0.0
C7583 C 0.36176 0.39772 0.98708 0.0
H7584 H 0.3633 0.4104 0.00337 0.0
C7585 C 0.36311 0.39028 0.99108 0.0
H7586 H 0.3608 0.41076 0.98876 0.0
C7587 C 0.36448 0.39007 0.99947 0.0
C7588 C 0.36449 0.39729 0.00405 0.0
H7589 H 0.36311 0.38462 0.98773 0.0
H7590 H 0.36537 0.38424 0.0024 0.0
C7591 C 0.36324 0.40473 1.00003 0.0
C7592 C 0.3465 0.611 0.7424 0.0
C7593 C 0.3538 0.61024 0.73802 0.0
H7594 H 0.34087 0.61313 0.75393 0.0
C7595 C 0.36122 0.6111 0.7422 0.0
H7596 H 0.34069 0.61029 0.73939 0.0
C7597 C 0.36132 0.61265 0.75055 0.0
C7598 C 0.35402 0.61335 0.75494 0.0
H7599 H 0.36695 0.61063 0.73899 0.0
H7600 H 0.36714 0.61319 0.7536 0.0
C7601 C 0.34661 0.61253 0.75076 0.0
C7602 C 0.85982 0.09569 0.00952 0.0
C7603 C 0.85957 0.10291 0.01409 0.0
H7604 H 0.86131 0.09024 0.9978 0.0
C7605 C 0.86076 0.11036 0.01008 0.0
H7606 H 0.85884 0.08985 0.01241 0.0
C7607 C 0.86213 0.11059 0.00169 0.0
C7608 C 0.86227 0.10337 0.99711 0.0
H7609 H 0.86068 0.11603 0.01343 0.0
H7610 H 0.86292 0.11644 0.99876 0.0
C7611 C 0.86114 0.09592 0.00113 0.0
C7612 C 0.63975 0.1122 0.759 0.0
C7613 C 0.64718 0.11074 0.76297 0.0
H7614 H 0.63371 0.1147 0.74773 0.0
C7615 C 0.65439 0.11086 0.75839 0.0
H7616 H 0.63409 0.11221 0.76236 0.0
C7617 C 0.65418 0.11234 0.75003 0.0
C7618 C 0.64675 0.11374 0.74604 0.0
H7619 H 0.66021 0.10968 0.76124 0.0
H7620 H 0.65985 0.11242 0.74669 0.0
C7621 C 0.63954 0.1137 0.75063 0.0
C7622 C 0.85966 0.8871 0.2592 0.0
C7623 C 0.85229 0.88883 0.26317 0.0
H7624 H 0.8656 0.88441 0.24793 0.0
C7625 C 0.84507 0.88892 0.25861 0.0
H7626 H 0.86532 0.8869 0.26256 0.0
C7627 C 0.84523 0.88745 0.25024 0.0
C7628 C 0.8526 0.88582 0.24625 0.0
H7629 H 0.8393 0.8903 0.26147 0.0
H7630 H 0.83955 0.88757 0.2469 0.0
C7631 C 0.85981 0.88559 0.25083 0.0
C7632 C 0.49064 0.35096 0.11056 0.0
C7633 C 0.48747 0.35383 0.10316 0.0
H7634 H 0.50037 0.35132 0.11912 0.0
C7635 C 0.49219 0.3592 0.09847 0.0
H7636 H 0.4871 0.34697 0.11442 0.0
C7637 C 0.49988 0.36169 0.10116 0.0
C7638 C 0.503 0.35888 0.10862 0.0
H7639 H 0.48995 0.36147 0.09271 0.0
H7640 H 0.50338 0.36582 0.09742 0.0
C7641 C 0.49828 0.35346 0.11325 0.0
C7642 C 0.39266 0.74128 0.85141 0.0
C7643 C 0.39539 0.73535 0.85693 0.0
H7644 H 0.38836 0.75349 0.84977 0.0
C7645 C 0.39548 0.73721 0.86526 0.0
H7646 H 0.39255 0.74003 0.84494 0.0
C7647 C 0.39306 0.74485 0.86801 0.0
C7648 C 0.39051 0.75087 0.86251 0.0
H7649 H 0.39736 0.73272 0.86969 0.0
H7650 H 0.39312 0.74601 0.87449 0.0
C7651 C 0.39026 0.74898 0.85417 0.0
C7652 C 0.00856 0.64268 0.59742 0.0
C7653 C 0.01343 0.64772 0.60232 0.0
H7654 H 0.9972 0.6364 0.59614 0.0
C7655 C 0.01036 0.65037 0.60984 0.0
H7656 H 0.01074 0.64059 0.59157 0.0
C7657 C 0.00266 0.64796 0.61245 0.0
C7658 C 0.9978 0.64286 0.60762 0.0
H7659 H 0.01401 0.6541 0.61385 0.0
H7660 H 0.00065 0.6499 0.61841 0.0
C7661 C 0.00081 0.64028 0.60004 0.0
C7662 C 0.10201 0.26026 0.36212 0.0
C7663 C 0.10434 0.26327 0.35447 0.0
H7664 H 0.10273 0.25057 0.3707 0.0
C7665 C 0.10913 0.25834 0.34939 0.0
H7666 H 0.09848 0.26396 0.36626 0.0
C7667 C 0.11156 0.25058 0.35193 0.0
C7668 C 0.10926 0.2476 0.35962 0.0
H7669 H 0.11098 0.26047 0.34344 0.0
H7670 H 0.11521 0.2469 0.34787 0.0
C7671 C 0.10444 0.25255 0.36466 0.0
C7672 C 0.49171 0.63982 0.40318 0.0
C7673 C 0.48746 0.64611 0.39924 0.0
H7674 H 0.50243 0.63239 0.40345 0.0
C7675 C 0.49109 0.64993 0.39251 0.0
H7676 H 0.48913 0.63681 0.40844 0.0
C7677 C 0.49868 0.64742 0.38968 0.0
C7678 C 0.50287 0.64101 0.39349 0.0
H7679 H 0.48793 0.65467 0.38921 0.0
H7680 H 0.50111 0.6503 0.38428 0.0
C7681 C 0.49934 0.6373 0.40034 0.0
C7682 C 0.11148 0.74142 0.15234 0.0
C7683 C 0.10512 0.73725 0.14842 0.0
H7684 H 0.11908 0.75202 0.15255 0.0
C7685 C 0.10141 0.74087 0.14163 0.0
H7686 H 0.11441 0.73884 0.15764 0.0
C7687 C 0.10407 0.74838 0.13873 0.0
C7688 C 0.1105 0.75251 0.14255 0.0
H7689 H 0.09662 0.73776 0.13834 0.0
H7690 H 0.10124 0.75081 0.13331 0.0
C7691 C 0.11415 0.74897 0.14943 0.0
C7692 C 0.00813 0.35926 0.90174 0.0
C7693 C 0.01297 0.35418 0.89685 0.0
H7694 H 0.99687 0.36573 0.90296 0.0
C7695 C 0.00999 0.35178 0.88921 0.0
H7696 H 0.01024 0.36116 0.90768 0.0
C7697 C 0.00239 0.35439 0.88651 0.0
C7698 C 0.99753 0.35946 0.89138 0.0
H7699 H 0.01363 0.34803 0.8852 0.0
H7700 H 0.00043 0.35259 0.88049 0.0
C7701 C 0.00048 0.36187 0.89904 0.0
C7702 C 0.39491 0.26316 0.63492 0.0
C7703 C 0.39505 0.26505 0.64325 0.0
H7704 H 0.39235 0.25431 0.6258 0.0
C7705 C 0.39255 0.25912 0.64887 0.0
H7706 H 0.39661 0.26766 0.63042 0.0
C7707 C 0.39014 0.25139 0.64621 0.0
C7708 C 0.39016 0.24946 0.63787 0.0
H7709 H 0.39263 0.26039 0.65533 0.0
H7710 H 0.38842 0.24688 0.65068 0.0
C7711 C 0.39248 0.25549 0.63227 0.0
C7712 C 0.10205 0.49047 0.36296 0.0
C7713 C 0.10451 0.4869 0.35559 0.0
H7714 H 0.10349 0.50038 0.3713 0.0
C7715 C 0.11009 0.4911 0.35066 0.0
H7716 H 0.09768 0.48746 0.36686 0.0
C7717 C 0.11331 0.49855 0.35314 0.0
C7718 C 0.1111 0.50197 0.36065 0.0
H7719 H 0.1122 0.48852 0.34499 0.0
H7720 H 0.11765 0.50156 0.34922 0.0
C7721 C 0.10531 0.49793 0.36547 0.0
C7722 C 0.25971 0.35889 0.10052 0.0
C7723 C 0.26398 0.35349 0.10559 0.0
H7724 H 0.24925 0.36643 0.09896 0.0
C7725 C 0.26044 0.35121 0.11305 0.0
H7726 H 0.26226 0.36087 0.09478 0.0
C7727 C 0.253 0.35454 0.11552 0.0
C7728 C 0.24894 0.36022 0.11058 0.0
H7729 H 0.26349 0.34697 0.11705 0.0
H7730 H 0.25061 0.35291 0.12143 0.0
C7731 C 0.25229 0.36219 0.10297 0.0
C7732 C 0.40351 0.50955 0.85928 0.0
C7733 C 0.39908 0.514 0.85346 0.0
H7734 H 0.40434 0.49862 0.86634 0.0
C7735 C 0.39203 0.51051 0.85012 0.0
H7736 H 0.40901 0.51203 0.86191 0.0
C7737 C 0.38938 0.50286 0.85263 0.0
C7738 C 0.39369 0.49847 0.85857 0.0
H7739 H 0.38836 0.51382 0.84577 0.0
H7740 H 0.38375 0.50054 0.85014 0.0
C7741 C 0.40084 0.50187 0.86181 0.0
C7742 C 0.24004 0.63928 0.60177 0.0
C7743 C 0.23703 0.64685 0.60434 0.0
H7744 H 0.2496 0.63055 0.60244 0.0
C7745 C 0.24184 0.65164 0.60954 0.0
H7746 H 0.23642 0.63535 0.59791 0.0
C7747 C 0.24947 0.64888 0.61214 0.0
C7748 C 0.25244 0.64127 0.60959 0.0
H7749 H 0.23972 0.65753 0.61158 0.0
H7750 H 0.25305 0.65271 0.61613 0.0
C7751 C 0.24762 0.63653 0.60436 0.0
C7752 C 0.10313 0.50704 0.15166 0.0
C7753 C 0.10216 0.51324 0.14585 0.0
H7754 H 0.10664 0.49471 0.15398 0.0
C7755 C 0.10339 0.51136 0.1376 0.0
H7756 H 0.10206 0.50822 0.15805 0.0
C7757 C 0.10595 0.50359 0.13526 0.0
C7758 C 0.10737 0.49754 0.14113 0.0
H7759 H 0.10279 0.516 0.13297 0.0
H7760 H 0.10725 0.50246 0.12891 0.0
C7761 C 0.10572 0.49929 0.14933 0.0
C7762 C 0.24138 0.35812 0.9002 0.0
C7763 C 0.23773 0.35128 0.89661 0.0
H7764 H 0.25145 0.36628 0.90036 0.0
C7765 C 0.24201 0.34707 0.89051 0.0
H7766 H 0.23821 0.36162 0.90478 0.0
C7767 C 0.24968 0.34976 0.88795 0.0
C7768 C 0.25323 0.35671 0.89145 0.0
H7769 H 0.2394 0.34173 0.88767 0.0
H7770 H 0.25279 0.34644 0.8832 0.0
C7771 C 0.24901 0.36079 0.89766 0.0
C7772 C 0.39674 0.48854 0.63763 0.0
C7773 C 0.39763 0.48666 0.64592 0.0
H7774 H 0.39332 0.49747 0.62879 0.0
C7775 C 0.39649 0.49287 0.65169 0.0
H7776 H 0.3975 0.48389 0.63303 0.0
C7777 C 0.39405 0.50064 0.64925 0.0
C7778 C 0.39275 0.50239 0.641 0.0
H7779 H 0.39729 0.49168 0.65811 0.0
H7780 H 0.39301 0.50523 0.65386 0.0
C7781 C 0.39434 0.49633 0.63519 0.0
C7782 C 0.2606 0.63923 0.39935 0.0
C7783 C 0.26363 0.64677 0.3967 0.0
H7784 H 0.25101 0.63052 0.39877 0.0
C7785 C 0.25884 0.65151 0.39144 0.0
H7786 H 0.2642 0.63533 0.40325 0.0
C7787 C 0.2512 0.64874 0.38887 0.0
C7788 C 0.24821 0.64118 0.3915 0.0
H7789 H 0.26098 0.65737 0.38934 0.0
H7790 H 0.24764 0.65254 0.38484 0.0
C7791 C 0.25301 0.63647 0.39678 0.0
C7792 C 0.35174 0.11317 0.48912 0.0
C7793 C 0.35371 0.10533 0.48636 0.0
H7794 H 0.35266 0.12193 0.49863 0.0
C7795 C 0.35808 0.10012 0.49154 0.0
H7796 H 0.34856 0.11741 0.48521 0.0
C7797 C 0.36041 0.10271 0.49932 0.0
C7798 C 0.35846 0.11058 0.50205 0.0
H7799 H 0.35964 0.09402 0.48961 0.0
H7800 H 0.36372 0.09854 0.50319 0.0
C7801 C 0.35409 0.11576 0.49684 0.0
C7802 C 0.85103 0.39032 0.51017 0.0
C7803 C 0.85439 0.39737 0.51363 0.0
H7804 H 0.85101 0.382 0.50022 0.0
C7805 C 0.86022 0.40176 0.50917 0.0
H7806 H 0.84666 0.38668 0.5135 0.0
C7807 C 0.86273 0.39906 0.50149 0.0
C7808 C 0.85946 0.39192 0.49811 0.0
H7809 H 0.86287 0.40727 0.51163 0.0
H7810 H 0.86726 0.40255 0.49822 0.0
C7811 C 0.85353 0.38763 0.50253 0.0
C7812 C 0.35426 0.11312 0.2626 0.0
C7813 C 0.35355 0.10482 0.26454 0.0
H7814 H 0.3578 0.12196 0.25371 0.0
C7815 C 0.35521 0.09902 0.25848 0.0
H7816 H 0.3531 0.11774 0.26713 0.0
C7817 C 0.35794 0.10144 0.25081 0.0
C7818 C 0.35902 0.10972 0.249 0.0
H7819 H 0.35456 0.09259 0.25972 0.0
H7820 H 0.35935 0.09682 0.24634 0.0
C7821 C 0.35695 0.11554 0.2549 0.0
C7822 C 0.64405 0.61635 0.01309 0.0
C7823 C 0.64458 0.60802 0.01485 0.0
H7824 H 0.64116 0.62548 0.00434 0.0
C7825 C 0.64238 0.60237 0.00882 0.0
H7826 H 0.64552 0.62086 0.01766 0.0
C7827 C 0.63991 0.60504 0.0011 0.0
C7828 C 0.63958 0.61339 0.9993 0.0
H7829 H 0.64275 0.59591 0.00999 0.0
H7830 H 0.63845 0.60056 0.99651 0.0
C7831 C 0.64157 0.619 0.00543 0.0
C7832 C 0.64761 0.38576 0.26231 0.0
C7833 C 0.64872 0.39416 0.26343 0.0
H7834 H 0.64382 0.37624 0.2543 0.0
C7835 C 0.64742 0.3994 0.25679 0.0
H7836 H 0.6485 0.38155 0.26729 0.0
C7837 C 0.64464 0.39635 0.24936 0.0
C7838 C 0.64309 0.388 0.24839 0.0
H7839 H 0.64833 0.40589 0.25741 0.0
H7840 H 0.64332 0.4006 0.2445 0.0
C7841 C 0.64483 0.38272 0.25488 0.0
C7842 C 0.1426 0.8997 0.99176 0.0
C7843 C 0.14539 0.89407 0.98597 0.0
H7844 H 0.1382 0.90157 0.00391 0.0
C7845 C 0.14548 0.88577 0.98799 0.0
H7846 H 0.1425 0.90614 0.99039 0.0
C7847 C 0.14301 0.88317 0.99567 0.0
C7848 C 0.14041 0.88879 0.00156 0.0
H7849 H 0.14741 0.88126 0.9836 0.0
H7850 H 0.14307 0.87671 0.99695 0.0
C7851 C 0.14015 0.89709 0.9995 0.0
C7852 C 0.36568 0.89558 0.23834 0.0
C7853 C 0.35741 0.89543 0.23622 0.0
H7854 H 0.37466 0.89326 0.24741 0.0
C7855 C 0.35173 0.89265 0.24197 0.0
H7856 H 0.37024 0.89751 0.23399 0.0
C7857 C 0.35427 0.89023 0.24974 0.0
C7858 C 0.36254 0.89054 0.25189 0.0
H7859 H 0.34531 0.8925 0.24052 0.0
H7860 H 0.34974 0.88828 0.2541 0.0
C7861 C 0.36821 0.89316 0.24605 0.0
C7862 C 0.13632 0.1046 0.73783 0.0
C7863 C 0.14453 0.10522 0.73557 0.0
H7864 H 0.12737 0.10657 0.74701 0.0
C7865 C 0.15013 0.10842 0.74118 0.0
H7866 H 0.13182 0.10236 0.73359 0.0
C7867 C 0.14758 0.11081 0.74895 0.0
C7868 C 0.13936 0.11008 0.75124 0.0
H7869 H 0.15651 0.10893 0.73962 0.0
H7870 H 0.15204 0.11312 0.75321 0.0
C7871 C 0.13377 0.10701 0.74555 0.0
C7872 C 0.0882 0.11488 0.43973 0.0
C7873 C 0.08245 0.1211 0.44081 0.0
H7874 H 0.09927 0.10943 0.44387 0.0
C7875 C 0.08334 0.12644 0.44742 0.0
H7876 H 0.08761 0.11062 0.43475 0.0
C7877 C 0.09006 0.12584 0.45257 0.0
C7878 C 0.09603 0.11984 0.4513 0.0
H7879 H 0.07908 0.13137 0.44834 0.0
H7880 H 0.09077 0.13038 0.45728 0.0
C7881 C 0.09489 0.11422 0.44495 0.0
C7882 C 0.13336 0.83983 0.68811 0.0
C7883 C 0.12974 0.83243 0.69038 0.0
H7884 H 0.13598 0.85213 0.69142 0.0
C7885 C 0.12683 0.83155 0.69837 0.0
H7886 H 0.13575 0.84067 0.68203 0.0
C7887 C 0.12703 0.8381 0.70378 0.0
C7888 C 0.13016 0.84567 0.70133 0.0
H7889 H 0.12397 0.82594 0.70031 0.0
H7890 H 0.12446 0.83732 0.70979 0.0
C7891 C 0.13357 0.84638 0.69352 0.0
C7892 C 0.40913 0.88159 0.93744 0.0
C7893 C 0.41682 0.87896 0.94008 0.0
H7894 H 0.3967 0.88374 0.94052 0.0
C7895 C 0.41802 0.8775 0.94842 0.0
H7896 H 0.40803 0.8829 0.93108 0.0
C7897 C 0.41153 0.87812 0.95389 0.0
C7898 C 0.4037 0.8802 0.95114 0.0
H7899 H 0.42386 0.87545 0.95067 0.0
H7900 H 0.41259 0.87668 0.96023 0.0
C7901 C 0.40264 0.88218 0.94289 0.0
C7902 C 0.36974 0.15877 0.18825 0.0
C7903 C 0.37237 0.16643 0.19097 0.0
H7904 H 0.36743 0.14635 0.19124 0.0
C7905 C 0.37372 0.16758 0.19933 0.0
H7906 H 0.36852 0.15771 0.18186 0.0
C7907 C 0.37296 0.16107 0.20476 0.0
C7908 C 0.37084 0.15328 0.20195 0.0
H7909 H 0.37577 0.17339 0.20163 0.0
H7910 H 0.37429 0.1621 0.21113 0.0
C7911 C 0.36901 0.15227 0.19366 0.0
C7912 C 0.09212 0.88247 0.06439 0.0
C7913 C 0.08431 0.88027 0.06172 0.0
H7914 H 0.10456 0.88441 0.06123 0.0
C7915 C 0.08293 0.8794 0.05332 0.0
H7916 H 0.09336 0.88331 0.0708 0.0
C7917 C 0.08935 0.88016 0.04779 0.0
C7918 C 0.09728 0.88179 0.05053 0.0
H7919 H 0.07699 0.8777 0.05106 0.0
H7920 H 0.08815 0.87915 0.0414 0.0
C7921 C 0.09853 0.8832 0.05887 0.0
C7922 C 0.37187 0.83264 0.30298 0.0
C7923 C 0.37102 0.83387 0.31139 0.0
H7924 H 0.37209 0.83807 0.29114 0.0
C7925 C 0.3688 0.84163 0.31421 0.0
H7926 H 0.3736 0.82675 0.30061 0.0
C7927 C 0.36803 0.84813 0.3088 0.0
C7928 C 0.36944 0.84704 0.30044 0.0
H7929 H 0.36796 0.84275 0.32064 0.0
H7930 H 0.36682 0.85412 0.31127 0.0
C7931 C 0.37109 0.83915 0.29756 0.0
C7932 C 0.40809 0.11856 0.56361 0.0
C7933 C 0.41585 0.1209 0.56088 0.0
H7934 H 0.39562 0.11662 0.56058 0.0
C7935 C 0.41708 0.12206 0.5525 0.0
H7936 H 0.40697 0.11748 0.57 0.0
C7937 C 0.41058 0.12143 0.54705 0.0
C7938 C 0.4027 0.11964 0.54986 0.0
H7939 H 0.42297 0.12389 0.55019 0.0
H7940 H 0.41168 0.12263 0.54067 0.0
C7941 C 0.4016 0.11796 0.55817 0.0
C7942 C 0.13016 0.16755 0.80333 0.0
C7943 C 0.13082 0.16609 0.81173 0.0
H7944 H 0.13009 0.16243 0.79136 0.0
C7945 C 0.13282 0.15822 0.81438 0.0
H7946 H 0.12861 0.17354 0.80107 0.0
C7947 C 0.13356 0.15184 0.80883 0.0
C7948 C 0.13235 0.15318 0.80047 0.0
H7949 H 0.13351 0.15692 0.8208 0.0
H7950 H 0.1346 0.14577 0.81117 0.0
C7951 C 0.13093 0.16116 0.79776 0.0
C7952 C 0.44841 0.08255 0.12317 0.0
C7953 C 0.44001 0.08371 0.12207 0.0
H7954 H 0.46022 0.08803 0.12343 0.0
C7955 C 0.43722 0.09139 0.11956 0.0
H7956 H 0.45077 0.07673 0.12513 0.0
C7957 C 0.44261 0.09789 0.1187 0.0
C7958 C 0.45095 0.09687 0.12028 0.0
H7959 H 0.4308 0.09245 0.11852 0.0
H7960 H 0.44015 0.10381 0.11721 0.0
C7961 C 0.45382 0.08906 0.12229 0.0
C7962 C 0.15913 0.18627 0.3674 0.0
C7963 C 0.1669 0.18898 0.36973 0.0
H7964 H 0.14665 0.18931 0.36554 0.0
C7965 C 0.16815 0.19735 0.3709 0.0
H7966 H 0.158 0.17987 0.36632 0.0
C7967 C 0.16165 0.20281 0.37031 0.0
C7968 C 0.15375 0.20001 0.36857 0.0
H7969 H 0.17404 0.19965 0.37272 0.0
H7970 H 0.16275 0.20918 0.37154 0.0
C7971 C 0.15264 0.19171 0.36685 0.0
C7972 C 0.06196 0.9125 0.61642 0.0
C7973 C 0.06056 0.91814 0.62268 0.0
H7974 H 0.05814 0.9015 0.61061 0.0
C7975 C 0.05377 0.91709 0.62775 0.0
H7976 H 0.0671 0.91322 0.61237 0.0
C7977 C 0.04871 0.91033 0.62683 0.0
C7978 C 0.05026 0.90449 0.62077 0.0
H7979 H 0.05259 0.92127 0.63269 0.0
H7980 H 0.04382 0.9095 0.63116 0.0
C7981 C 0.05684 0.90577 0.61545 0.0
C7982 C 0.3328 0.80201 0.8728 0.0
C7983 C 0.33405 0.81035 0.87138 0.0
H7984 H 0.33817 0.79018 0.87362 0.0
C7985 C 0.34177 0.81297 0.86882 0.0
H7986 H 0.32694 0.79979 0.8748 0.0
C7987 C 0.34823 0.80749 0.86825 0.0
C7988 C 0.34713 0.79923 0.87019 0.0
H7989 H 0.34291 0.81933 0.86753 0.0
H7990 H 0.3542 0.80983 0.86674 0.0
C7991 C 0.33927 0.79652 0.87221 0.0
C7992 C 0.44714 0.91693 0.37368 0.0
C7993 C 0.44014 0.91747 0.37855 0.0
H7994 H 0.45737 0.9098 0.37009 0.0
C7995 C 0.43861 0.91132 0.38427 0.0
H7996 H 0.44842 0.92152 0.36913 0.0
C7997 C 0.44381 0.90461 0.3849 0.0
C7998 C 0.45061 0.90386 0.37975 0.0
H7999 H 0.43332 0.91162 0.38817 0.0
H8000 H 0.4424 0.89993 0.38931 0.0
C8001 C 0.45228 0.9102 0.37425 0.0
C8002 C 0.3324 0.19847 0.62839 0.0
C8003 C 0.33358 0.19015 0.62995 0.0
H8004 H 0.33786 0.21025 0.6274 0.0
C8005 C 0.34126 0.18752 0.63262 0.0
H8006 H 0.32657 0.20071 0.62631 0.0
C8007 C 0.34776 0.19296 0.63312 0.0
C8008 C 0.34674 0.20119 0.63102 0.0
H8009 H 0.34234 0.18118 0.63401 0.0
H8010 H 0.3537 0.19059 0.6347 0.0
C8011 C 0.33891 0.20393 0.62893 0.0
C8012 C 0.05168 0.0855 0.86887 0.0
C8013 C 0.05752 0.08326 0.87469 0.0
H8014 H 0.04245 0.09393 0.8654 0.0
C8015 C 0.05794 0.08763 0.88202 0.0
H8016 H 0.05116 0.08219 0.8632 0.0
C8017 C 0.0529 0.09437 0.88331 0.0
C8018 C 0.04728 0.09681 0.87733 0.0
H8019 H 0.06241 0.08605 0.8866 0.0
H8020 H 0.0535 0.09778 0.88892 0.0
C8021 C 0.04663 0.09218 0.87018 0.0
C8022 C 0.16813 0.80296 0.12592 0.0
C8023 C 0.16692 0.81105 0.12839 0.0
H8024 H 0.16278 0.79128 0.12387 0.0
C8025 C 0.15927 0.8133 0.1315 0.0
H8026 H 0.17392 0.80103 0.12345 0.0
C8027 C 0.15286 0.80772 0.13168 0.0
C8028 C 0.15395 0.79977 0.12873 0.0
H8029 H 0.15817 0.81945 0.13356 0.0
H8030 H 0.14695 0.80976 0.13372 0.0
C8031 C 0.16172 0.79739 0.12608 0.0
C8032 C 0.12321 0.4484 0.08344 0.0
C8033 C 0.12253 0.43995 0.08452 0.0
H8034 H 0.12306 0.46014 0.08906 0.0
C8035 C 0.12039 0.43694 0.09223 0.0
H8036 H 0.12487 0.45091 0.07758 0.0
C8037 C 0.11944 0.44222 0.09881 0.0
C8038 C 0.12058 0.45064 0.09785 0.0
H8039 H 0.1197 0.43047 0.09323 0.0
H8040 H 0.11823 0.43963 0.10474 0.0
C8041 C 0.12225 0.45368 0.09003 0.0
C8042 C 0.61494 0.06037 0.9121 0.0
C8043 C 0.62124 0.05914 0.91773 0.0
H8044 H 0.60922 0.05643 0.9011 0.0
C8045 C 0.62646 0.05247 0.91667 0.0
H8046 H 0.61076 0.06541 0.91282 0.0
C8047 C 0.62566 0.04739 0.90992 0.0
C8048 C 0.61957 0.0488 0.90408 0.0
H8049 H 0.63145 0.05142 0.92085 0.0
H8050 H 0.63011 0.04261 0.90908 0.0
C8051 C 0.61408 0.05524 0.90538 0.0
C8052 C 0.19843 0.37207 0.16859 0.0
C8053 C 0.19003 0.37129 0.16717 0.0
H8054 H 0.21037 0.37238 0.16341 0.0
C8055 C 0.18737 0.36935 0.15929 0.0
H8056 H 0.2007 0.37358 0.17458 0.0
C8057 C 0.19289 0.3688 0.15286 0.0
C8058 C 0.20124 0.37011 0.15417 0.0
H8059 H 0.18096 0.36855 0.15801 0.0
H8060 H 0.19053 0.36779 0.1468 0.0
C8061 C 0.20397 0.37148 0.16216 0.0
C8062 C 0.8832 0.93914 0.41031 0.0
C8063 C 0.8787 0.94102 0.41733 0.0
H8064 H 0.88657 0.94271 0.39825 0.0
C8065 C 0.87473 0.94857 0.41779 0.0
H8066 H 0.88639 0.93339 0.40981 0.0
C8067 C 0.87486 0.95391 0.41118 0.0
C8068 C 0.87899 0.95183 0.40399 0.0
H8069 H 0.87117 0.95018 0.42308 0.0
H8070 H 0.8715 0.95956 0.4116 0.0
C8071 C 0.88336 0.9445 0.40372 0.0
C8072 C 0.80289 0.12837 0.16773 0.0
C8073 C 0.81123 0.1296 0.16633 0.0
H8074 H 0.79096 0.12769 0.16255 0.0
C8075 C 0.81379 0.13192 0.15851 0.0
H8076 H 0.8007 0.12655 0.17366 0.0
C8077 C 0.80822 0.13247 0.15212 0.0
C8078 C 0.79995 0.13073 0.15339 0.0
H8079 H 0.82016 0.13305 0.15726 0.0
H8080 H 0.8105 0.13382 0.14609 0.0
C8081 C 0.79731 0.12894 0.16133 0.0
C8082 C 0.37907 0.55244 0.58315 0.0
C8083 C 0.38036 0.5608 0.58437 0.0
H8084 H 0.37851 0.54061 0.58855 0.0
C8085 C 0.38293 0.56348 0.59207 0.0
H8086 H 0.37707 0.55016 0.57731 0.0
C8087 C 0.38364 0.55803 0.59854 0.0
C8088 C 0.38183 0.54974 0.59747 0.0
H8089 H 0.38411 0.56987 0.59317 0.0
H8090 H 0.38515 0.56042 0.60448 0.0
C8091 C 0.37981 0.54697 0.58963 0.0
C8092 C 0.18663 0.63064 0.34209 0.0
C8093 C 0.18933 0.62858 0.33424 0.0
H8094 H 0.18975 0.63243 0.35457 0.0
C8095 C 0.19773 0.62777 0.33288 0.0
H8096 H 0.18021 0.63145 0.34332 0.0
C8097 C 0.20324 0.62847 0.33933 0.0
C8098 C 0.20048 0.62998 0.34728 0.0
H8099 H 0.20004 0.62616 0.32693 0.0
H8100 H 0.20965 0.62754 0.33812 0.0
C8101 C 0.19212 0.63131 0.34853 0.0
C8102 C 0.31462 0.36819 0.84282 0.0
C8103 C 0.31213 0.3706 0.83501 0.0
H8104 H 0.31124 0.36636 0.85525 0.0
C8105 C 0.30384 0.37214 0.83363 0.0
H8106 H 0.32095 0.36686 0.84406 0.0
C8107 C 0.29826 0.37178 0.84003 0.0
C8108 C 0.30084 0.36986 0.84795 0.0
H8109 H 0.30171 0.37406 0.8277 0.0
H8110 H 0.29196 0.37328 0.83883 0.0
C8111 C 0.30904 0.36782 0.84922 0.0
C8112 C 0.91316 0.87536 0.55439 0.0
C8113 C 0.91551 0.87857 0.56196 0.0
H8114 H 0.90452 0.87568 0.54463 0.0
C8115 C 0.911 0.88502 0.56529 0.0
H8116 H 0.91649 0.87036 0.5517 0.0
C8117 C 0.90418 0.88806 0.56125 0.0
C8118 C 0.90167 0.88469 0.55382 0.0
H8119 H 0.9127 0.88765 0.57108 0.0
H8120 H 0.90071 0.89289 0.56409 0.0
C8121 C 0.90628 0.87836 0.55038 0.0
C8122 C 0.86915 0.16591 0.30392 0.0
C8123 C 0.87514 0.16517 0.30998 0.0
H8124 H 0.86119 0.15974 0.29563 0.0
C8125 C 0.87759 0.15734 0.3124 0.0
H8126 H 0.86718 0.17185 0.30186 0.0
C8127 C 0.87419 0.15044 0.30882 0.0
C8128 C 0.86824 0.15117 0.30274 0.0
H8129 H 0.88204 0.15653 0.31718 0.0
H8130 H 0.87613 0.14452 0.31095 0.0
C8131 C 0.86573 0.15898 0.30034 0.0
C8132 C 0.58758 0.12434 0.05444 0.0
C8133 C 0.58517 0.12118 0.06201 0.0
H8134 H 0.59626 0.12389 0.04472 0.0
C8135 C 0.58957 0.11468 0.06537 0.0
H8136 H 0.58434 0.12939 0.05173 0.0
C8137 C 0.59637 0.11154 0.06137 0.0
C8138 C 0.59896 0.11487 0.05394 0.0
H8139 H 0.58781 0.11208 0.07116 0.0
H8140 H 0.59976 0.10668 0.06423 0.0
C8141 C 0.59444 0.12125 0.05047 0.0
C8142 C 0.62614 0.83659 0.8048 0.0
C8143 C 0.62934 0.83423 0.81236 0.0
H8144 H 0.62657 0.84517 0.79499 0.0
C8145 C 0.63595 0.83857 0.8156 0.0
H8146 H 0.62101 0.83339 0.80219 0.0
C8147 C 0.63912 0.84529 0.8115 0.0
C8148 C 0.63572 0.84786 0.80409 0.0
H8149 H 0.63859 0.83684 0.82138 0.0
H8150 H 0.64404 0.84866 0.81429 0.0
C8151 C 0.62927 0.84337 0.80073 0.0
C8152 C 0.9118 0.12504 0.94788 0.0
C8153 C 0.91449 0.12176 0.94046 0.0
H8154 H 0.90282 0.12469 0.95733 0.0
C8155 C 0.91025 0.11516 0.93708 0.0
H8156 H 0.91491 0.13016 0.9506 0.0
C8157 C 0.90336 0.11203 0.94092 0.0
C8158 C 0.9005 0.11547 0.9482 0.0
H8159 H 0.91222 0.11247 0.9314 0.0
H8160 H 0.9001 0.10708 0.93804 0.0
C8161 C 0.90485 0.12195 0.95169 0.0
C8162 C 0.63092 0.16651 0.69609 0.0
C8163 C 0.62483 0.16569 0.69014 0.0
H8164 H 0.63898 0.16045 0.70436 0.0
C8165 C 0.62228 0.15784 0.68792 0.0
H8166 H 0.63297 0.17247 0.69799 0.0
C8167 C 0.62568 0.15099 0.69158 0.0
C8168 C 0.63175 0.15179 0.69754 0.0
H8169 H 0.61775 0.15696 0.68322 0.0
H8170 H 0.62367 0.14504 0.68961 0.0
C8171 C 0.63435 0.15963 0.69974 0.0
C8172 C 0.58714 0.87574 0.44687 0.0
C8173 C 0.58472 0.87868 0.43922 0.0
H8174 H 0.59574 0.87658 0.45663 0.0
C8175 C 0.58903 0.88516 0.43572 0.0
H8176 H 0.58395 0.87071 0.44969 0.0
C8177 C 0.59575 0.88852 0.43969 0.0
C8178 C 0.59834 0.88542 0.44721 0.0
H8179 H 0.58727 0.88759 0.42986 0.0
H8180 H 0.59908 0.89337 0.43672 0.0
C8181 C 0.59391 0.87905 0.45081 0.0
C8182 C 0.86454 0.83832 0.18539 0.0
C8183 C 0.87125 0.83409 0.18857 0.0
H8184 H 0.85632 0.84831 0.18676 0.0
C8185 C 0.87452 0.83655 0.19607 0.0
H8186 H 0.86185 0.83652 0.17966 0.0
C8187 C 0.87134 0.84331 0.20015 0.0
C8188 C 0.86478 0.84768 0.19685 0.0
H8189 H 0.87972 0.83344 0.19864 0.0
H8190 H 0.87409 0.84518 0.20583 0.0
C8191 C 0.86133 0.84503 0.1895 0.0
C8192 C 0.55387 0.91396 0.87642 0.0
C8193 C 0.5613 0.91657 0.87972 0.0
H8194 H 0.54424 0.90518 0.87688 0.0
C8195 C 0.5645 0.91247 0.88649 0.0
H8196 H 0.55129 0.91697 0.87116 0.0
C8197 C 0.56048 0.90574 0.88975 0.0
C8198 C 0.5532 0.90293 0.88628 0.0
H8199 H 0.57018 0.91439 0.8892 0.0
H8200 H 0.56323 0.90256 0.89482 0.0
C8201 C 0.54987 0.90718 0.87964 0.0
C8202 C 0.84436 0.81234 0.62301 0.0
C8203 C 0.83657 0.80956 0.62518 0.0
H8204 H 0.85719 0.8113 0.62475 0.0
C8205 C 0.83589 0.80335 0.63102 0.0
H8206 H 0.8451 0.81725 0.61869 0.0
C8207 C 0.84286 0.79995 0.63454 0.0
C8208 C 0.85064 0.80268 0.63227 0.0
H8209 H 0.82999 0.80102 0.63278 0.0
H8210 H 0.84217 0.7951 0.63895 0.0
C8211 C 0.85129 0.80894 0.6265 0.0
C8212 C 0.94674 0.08846 0.37572 0.0
C8213 C 0.93913 0.08616 0.37884 0.0
H8214 H 0.95655 0.09704 0.37615 0.0
C8215 C 0.93575 0.09067 0.38526 0.0
H8216 H 0.94947 0.08512 0.37074 0.0
C8217 C 0.93979 0.09746 0.38836 0.0
C8218 C 0.94728 0.09993 0.38506 0.0
H8219 H 0.92992 0.08899 0.38782 0.0
H8220 H 0.93692 0.10093 0.39316 0.0
C8221 C 0.95076 0.09531 0.37877 0.0
C8222 C 0.66123 0.1858 0.13556 0.0
C8223 C 0.66549 0.1891 0.12894 0.0
H8224 H 0.65115 0.18694 0.1437 0.0
C8225 C 0.66293 0.19658 0.12568 0.0
H8226 H 0.66311 0.18008 0.13823 0.0
C8227 C 0.65606 0.20051 0.12881 0.0
C8228 C 0.65169 0.1971 0.13531 0.0
H8229 H 0.66606 0.19924 0.12054 0.0
H8230 H 0.65413 0.20619 0.12609 0.0
C8231 C 0.65443 0.18976 0.13873 0.0
C8232 C 0.56078 0.08649 0.61685 0.0
C8233 C 0.55872 0.08399 0.62475 0.0
H8234 H 0.55921 0.09537 0.60748 0.0
C8235 C 0.55278 0.08839 0.62905 0.0
H8236 H 0.5654 0.08329 0.61342 0.0
C8237 C 0.5492 0.09529 0.62564 0.0
C8238 C 0.55149 0.09799 0.61786 0.0
H8239 H 0.55098 0.08654 0.63511 0.0
H8240 H 0.54469 0.09857 0.62914 0.0
C8241 C 0.55722 0.09342 0.61344 0.0
C8242 C 0.66185 0.81481 0.36498 0.0
C8243 C 0.66595 0.81166 0.37178 0.0
H8244 H 0.65188 0.81355 0.35673 0.0
C8245 C 0.66325 0.80431 0.37521 0.0
H8246 H 0.66384 0.82043 0.36218 0.0
C8247 C 0.6564 0.80036 0.37208 0.0
C8248 C 0.65216 0.80364 0.36542 0.0
H8249 H 0.66626 0.80177 0.38048 0.0
H8250 H 0.65435 0.79479 0.37494 0.0
C8251 C 0.65505 0.81083 0.36182 0.0
C8252 C 0.93583 0.91233 0.11481 0.0
C8253 C 0.93882 0.9164 0.12169 0.0
H8254 H 0.93739 0.90253 0.10641 0.0
C8255 C 0.94622 0.91384 0.12512 0.0
H8256 H 0.93018 0.91422 0.112 0.0
C8257 C 0.95037 0.90714 0.12191 0.0
C8258 C 0.94724 0.90293 0.11516 0.0
H8259 H 0.94865 0.91683 0.13046 0.0
H8260 H 0.95596 0.90518 0.12477 0.0
C8261 C 0.94 0.90569 0.11156 0.0
C8262 C 0.83836 0.19631 0.87475 0.0
C8263 C 0.83594 0.18871 0.87165 0.0
H8264 H 0.84707 0.20599 0.87427 0.0
C8265 C 0.8404 0.18525 0.86524 0.0
H8266 H 0.83506 0.19909 0.87972 0.0
C8267 C 0.84724 0.18919 0.86212 0.0
C8268 C 0.84982 0.19666 0.86538 0.0
H8269 H 0.83865 0.17944 0.8627 0.0
H8270 H 0.85067 0.18626 0.85732 0.0
C8271 C 0.84526 0.20022 0.87167 0.0
C8272 C 0.87247 0.56273 0.908 0.0
C8273 C 0.8752 0.56077 0.91586 0.0
H8274 H 0.87379 0.56087 0.89521 0.0
C8275 C 0.88153 0.55507 0.91671 0.0
H8276 H 0.86775 0.56723 0.90709 0.0
C8277 C 0.88504 0.55144 0.90985 0.0
C8278 C 0.88227 0.55341 0.90201 0.0
H8279 H 0.88373 0.55336 0.92268 0.0
H8280 H 0.88987 0.54704 0.91069 0.0
C8281 C 0.87594 0.55909 0.90117 0.0
C8282 C 0.372 0.94767 0.08743 0.0
C8283 C 0.37629 0.94167 0.08311 0.0
H8284 H 0.37191 0.95585 0.09754 0.0
C8285 C 0.38419 0.93962 0.08564 0.0
H8286 H 0.36595 0.94947 0.08556 0.0
C8287 C 0.38759 0.94325 0.09253 0.0
C8288 C 0.38319 0.94903 0.09704 0.0
H8289 H 0.38761 0.93496 0.0825 0.0
H8290 H 0.39355 0.94126 0.09451 0.0
C8291 C 0.37541 0.95131 0.09431 0.0
C8292 C 0.81238 0.62216 0.84313 0.0
C8293 C 0.81002 0.62465 0.83529 0.0
H8294 H 0.81088 0.62361 0.85595 0.0
C8295 C 0.80404 0.63071 0.83453 0.0
H8296 H 0.81711 0.61766 0.84396 0.0
C8297 C 0.80047 0.63417 0.84145 0.0
C8298 C 0.80281 0.63161 0.84927 0.0
H8299 H 0.80203 0.63272 0.82859 0.0
H8300 H 0.79582 0.63876 0.84069 0.0
C8301 C 0.80881 0.62558 0.85001 0.0
C8302 C 0.11973 0.05424 0.58415 0.0
C8303 C 0.12611 0.05988 0.58491 0.0
H8304 H 0.11131 0.04639 0.59029 0.0
C8305 C 0.12884 0.06195 0.59275 0.0
H8306 H 0.11752 0.05245 0.5782 0.0
C8307 C 0.12533 0.05845 0.59962 0.0
C8308 C 0.11896 0.05282 0.59887 0.0
H8309 H 0.13361 0.06641 0.59359 0.0
H8310 H 0.1275 0.0603 0.60556 0.0
C8311 C 0.11617 0.05076 0.59106 0.0
C8312 C 0.19611 0.87542 0.83684 0.0
C8313 C 0.18843 0.87245 0.83455 0.0
H8314 H 0.20595 0.87474 0.84536 0.0
C8315 C 0.18497 0.86605 0.83902 0.0
H8316 H 0.1989 0.88038 0.83353 0.0
C8317 C 0.18899 0.86282 0.84576 0.0
C8318 C 0.19655 0.86596 0.84822 0.0
H8319 H 0.17909 0.8636 0.83736 0.0
H8320 H 0.18606 0.85804 0.84921 0.0
C8321 C 0.20011 0.87224 0.84364 0.0
C8322 C 0.62746 0.43858 0.40652 0.0
C8323 C 0.6251 0.44102 0.41437 0.0
H8324 H 0.62579 0.43993 0.39371 0.0
C8325 C 0.61901 0.44697 0.41516 0.0
H8326 H 0.63199 0.43387 0.40567 0.0
C8327 C 0.6154 0.45042 0.40827 0.0
C8328 C 0.61784 0.44802 0.40044 0.0
H8329 H 0.6171 0.44904 0.42111 0.0
H8330 H 0.61079 0.45505 0.40906 0.0
C8331 C 0.6239 0.44205 0.39965 0.0
C8332 C 0.81204 0.37937 0.65863 0.0
C8333 C 0.80946 0.37707 0.66645 0.0
H8334 H 0.81084 0.37768 0.64581 0.0
C8335 C 0.80335 0.37112 0.66718 0.0
H8336 H 0.81686 0.38378 0.65783 0.0
C8337 C 0.79991 0.36758 0.66025 0.0
C8338 C 0.80249 0.36993 0.65244 0.0
H8339 H 0.80118 0.36926 0.67311 0.0
H8340 H 0.79518 0.36307 0.66099 0.0
C8341 C 0.80859 0.37586 0.65173 0.0
C8342 C 0.68969 0.63361 0.1645 0.0
C8343 C 0.69177 0.62574 0.1671 0.0
H8344 H 0.69133 0.64291 0.15556 0.0
C8345 C 0.69779 0.62144 0.16283 0.0
H8346 H 0.685 0.63703 0.1676 0.0
C8347 C 0.70145 0.62482 0.15594 0.0
C8348 C 0.69915 0.63256 0.15314 0.0
H8349 H 0.69961 0.61541 0.16475 0.0
H8350 H 0.70602 0.62131 0.15275 0.0
C8351 C 0.69333 0.63697 0.1576 0.0
C8352 C 0.58203 0.62263 0.94811 0.0
C8353 C 0.58323 0.621 0.9398 0.0
H8354 H 0.58745 0.62367 0.9599 0.0
C8355 C 0.59091 0.61827 0.93722 0.0
H8356 H 0.5762 0.62476 0.95031 0.0
C8357 C 0.59739 0.61777 0.94269 0.0
C8358 C 0.59634 0.61995 0.95089 0.0
H8359 H 0.592 0.61682 0.93089 0.0
H8360 H 0.60332 0.61615 0.94035 0.0
C8361 C 0.58851 0.62209 0.95359 0.0
C8362 C 0.62614 0.33187 0.19844 0.0
C8363 C 0.62927 0.33275 0.19054 0.0
H8364 H 0.62359 0.3376 0.20985 0.0
C8365 C 0.63308 0.34011 0.18841 0.0
H8366 H 0.62312 0.3263 0.20026 0.0
C8367 C 0.63329 0.3466 0.19389 0.0
C8368 C 0.62968 0.34589 0.2016 0.0
H8369 H 0.63564 0.34094 0.18241 0.0
H8370 H 0.63587 0.35232 0.1919 0.0
C8371 C 0.62633 0.33837 0.20391 0.0
C8372 C 0.91785 0.37717 0.44796 0.0
C8373 C 0.91659 0.37908 0.43973 0.0
H8374 H 0.91252 0.37573 0.45975 0.0
C8375 C 0.90887 0.38184 0.43728 0.0
H8376 H 0.9237 0.37499 0.45005 0.0
C8377 C 0.90244 0.38217 0.44282 0.0
C8378 C 0.90357 0.37976 0.45094 0.0
H8379 H 0.90773 0.38349 0.43101 0.0
H8380 H 0.89648 0.38389 0.44062 0.0
C8381 C 0.91141 0.37751 0.4535 0.0
C8382 C 0.87079 0.6681 0.69748 0.0
C8383 C 0.86966 0.6667 0.68913 0.0
H8384 H 0.87141 0.66293 0.70941 0.0
C8385 C 0.86737 0.65887 0.68655 0.0
H8386 H 0.87257 0.67404 0.69968 0.0
C8387 C 0.86685 0.65247 0.69211 0.0
C8388 C 0.86854 0.65374 0.70039 0.0
H8389 H 0.86631 0.65761 0.68018 0.0
H8390 H 0.86558 0.64643 0.68981 0.0
C8391 C 0.87022 0.6617 0.70305 0.0
C8392 C 0.59249 0.38155 0.56249 0.0
C8393 C 0.58487 0.3784 0.56022 0.0
H8394 H 0.60484 0.38376 0.55902 0.0
C8395 C 0.58371 0.37585 0.55215 0.0
H8396 H 0.59354 0.38367 0.56863 0.0
C8397 C 0.59016 0.37597 0.54662 0.0
C8398 C 0.59791 0.37866 0.54903 0.0
H8399 H 0.57794 0.37335 0.5502 0.0
H8400 H 0.58915 0.3737 0.54052 0.0
C8401 C 0.59894 0.38168 0.55696 0.0
C8402 C 0.86772 0.34004 0.81203 0.0
C8403 C 0.8714 0.33265 0.80981 0.0
H8404 H 0.86512 0.35234 0.80869 0.0
C8405 C 0.87446 0.33179 0.80188 0.0
H8406 H 0.86521 0.34086 0.81806 0.0
C8407 C 0.87433 0.33835 0.79647 0.0
C8408 C 0.87114 0.34591 0.79888 0.0
H8409 H 0.87737 0.3262 0.79998 0.0
H8410 H 0.87702 0.33759 0.79051 0.0
C8411 C 0.86759 0.3466 0.80662 0.0
C8412 C 0.90954 0.61824 0.06374 0.0
C8413 C 0.91724 0.62085 0.06112 0.0
H8414 H 0.8971 0.61619 0.06064 0.0
C8415 C 0.91846 0.62235 0.0528 0.0
H8416 H 0.90843 0.61689 0.07009 0.0
C8417 C 0.91198 0.62181 0.04732 0.0
C8418 C 0.90413 0.61977 0.05005 0.0
H8419 H 0.92431 0.62439 0.05057 0.0
H8420 H 0.91305 0.62328 0.04099 0.0
C8421 C 0.90306 0.61773 0.05828 0.0
C8422 C 0.62961 0.66767 0.30278 0.0
C8423 C 0.63053 0.6663 0.31117 0.0
H8424 H 0.62928 0.66243 0.29086 0.0
C8425 C 0.63275 0.65849 0.31384 0.0
H8426 H 0.62788 0.6736 0.30051 0.0
C8427 C 0.63345 0.65207 0.30833 0.0
C8428 C 0.63198 0.65331 0.3 0.0
H8429 H 0.63364 0.65727 0.32025 0.0
H8430 H 0.63467 0.64605 0.31069 0.0
C8431 C 0.63033 0.66124 0.29725 0.0
C8432 C 0.9433 0.58659 0.61795 0.0
C8433 C 0.94374 0.58248 0.62542 0.0
H8434 H 0.94759 0.5966 0.61077 0.0
C8435 C 0.94951 0.58499 0.63119 0.0
H8436 H 0.93889 0.5848 0.6134 0.0
C8437 C 0.95444 0.59172 0.62971 0.0
C8438 C 0.95373 0.59614 0.62243 0.0
H8439 H 0.95005 0.58187 0.63697 0.0
H8440 H 0.95852 0.59371 0.63449 0.0
C8441 C 0.94823 0.59338 0.61647 0.0
C8442 C 0.66719 0.69843 0.872 0.0
C8443 C 0.6659 0.69005 0.87088 0.0
H8444 H 0.66185 0.71029 0.87254 0.0
C8445 C 0.65812 0.68736 0.86859 0.0
H8446 H 0.67309 0.70071 0.87379 0.0
C8447 C 0.65165 0.69283 0.86798 0.0
C8448 C 0.65281 0.70114 0.86962 0.0
H8449 H 0.65695 0.68097 0.86754 0.0
H8450 H 0.64565 0.69045 0.86668 0.0
C8451 C 0.66071 0.70391 0.87137 0.0
C8452 C 0.56468 0.40821 0.12031 0.0
C8453 C 0.56192 0.41608 0.12221 0.0
H8454 H 0.5616 0.39573 0.11848 0.0
C8455 C 0.5535 0.41745 0.12276 0.0
H8456 H 0.57112 0.40697 0.1197 0.0
C8457 C 0.54801 0.41101 0.12193 0.0
C8458 C 0.55081 0.40305 0.12053 0.0
H8459 H 0.55116 0.42342 0.12424 0.0
H8460 H 0.54158 0.41222 0.12264 0.0
C8461 C 0.5592 0.40178 0.11949 0.0
C8462 C 0.84182 0.31408 0.36867 0.0
C8463 C 0.83404 0.31145 0.37103 0.0
H8464 H 0.85425 0.31091 0.3667 0.0
C8465 C 0.83271 0.30308 0.37221 0.0
H8466 H 0.84301 0.32046 0.36758 0.0
C8467 C 0.83914 0.29756 0.37156 0.0
C8468 C 0.84705 0.30027 0.36975 0.0
H8469 H 0.8268 0.30084 0.37405 0.0
H8470 H 0.83798 0.29119 0.37278 0.0
C8471 C 0.84825 0.30857 0.36806 0.0
C8472 C 0.94666 0.41792 0.88111 0.0
C8473 C 0.93841 0.41687 0.87909 0.0
H8474 H 0.95818 0.41221 0.88329 0.0
C8475 C 0.93537 0.40891 0.87831 0.0
H8476 H 0.94918 0.42395 0.8819 0.0
C8477 C 0.9405 0.40221 0.87918 0.0
C8478 C 0.94882 0.40327 0.88081 0.0
H8479 H 0.9291 0.40784 0.87662 0.0
H8480 H 0.93802 0.3962 0.87814 0.0
C8481 C 0.95181 0.4112 0.88193 0.0
C8482 C 0.83362 0.69849 0.1287 0.0
C8483 C 0.83484 0.69011 0.12989 0.0
H8484 H 0.83903 0.71031 0.1281 0.0
C8485 C 0.84259 0.68739 0.13225 0.0
H8486 H 0.82773 0.7008 0.12685 0.0
C8487 C 0.84909 0.69282 0.13285 0.0
C8488 C 0.848 0.70113 0.13114 0.0
H8489 H 0.84371 0.681 0.13336 0.0
H8490 H 0.85507 0.69041 0.1342 0.0
C8491 C 0.84012 0.70394 0.12933 0.0
C8492 C 0.56342 0.59216 0.38182 0.0
C8493 C 0.56109 0.58454 0.37873 0.0
H8494 H 0.56 0.60451 0.38408 0.0
C8495 C 0.55297 0.58339 0.37632 0.0
H8496 H 0.56961 0.59321 0.38383 0.0
C8497 C 0.54745 0.58984 0.37654 0.0
C8498 C 0.54991 0.59759 0.37918 0.0
H8499 H 0.55097 0.57762 0.37386 0.0
H8500 H 0.54131 0.58883 0.37439 0.0
C8501 C 0.5579 0.59862 0.38205 0.0
C8502 C 0.66801 0.30364 0.63009 0.0
C8503 C 0.66661 0.31203 0.6309 0.0
H8504 H 0.66282 0.2917 0.62985 0.0
C8505 C 0.65877 0.3147 0.63303 0.0
H8506 H 0.67397 0.30138 0.62843 0.0
C8507 C 0.65237 0.30917 0.63374 0.0
C8508 C 0.65365 0.30082 0.63237 0.0
H8509 H 0.65751 0.32111 0.63384 0.0
H8510 H 0.64632 0.31152 0.63489 0.0
C8511 C 0.6616 0.2981 0.63082 0.0
C8512 C 0.61833 0.93647 0.59208 0.0
C8513 C 0.62047 0.93915 0.58426 0.0
H8514 H 0.61633 0.93964 0.60451 0.0
C8515 C 0.62124 0.94755 0.58286 0.0
H8516 H 0.61756 0.93005 0.59334 0.0
C8517 C 0.62041 0.95309 0.58926 0.0
C8518 C 0.61879 0.95035 0.5972 0.0
H8519 H 0.62291 0.94982 0.57691 0.0
H8520 H 0.62131 0.95949 0.58804 0.0
C8521 C 0.61751 0.942 0.59848 0.0
C8522 C 0.11828 0.56324 0.40972 0.0
C8523 C 0.12068 0.56071 0.41752 0.0
H8524 H 0.11648 0.55998 0.3973 0.0
C8525 C 0.12201 0.55238 0.41891 0.0
H8526 H 0.11707 0.56959 0.40848 0.0
C8527 C 0.12151 0.54681 0.4125 0.0
C8528 C 0.11971 0.54944 0.40456 0.0
H8529 H 0.12388 0.55022 0.42484 0.0
H8530 H 0.12285 0.54048 0.41371 0.0
C8531 C 0.11783 0.55769 0.40332 0.0
C8532 C 0.69894 0.88245 0.66607 0.0
C8533 C 0.69302 0.87669 0.66824 0.0
H8534 H 0.70826 0.88587 0.65772 0.0
C8535 C 0.69254 0.86939 0.66382 0.0
H8536 H 0.6995 0.8881 0.66941 0.0
C8537 C 0.69761 0.86808 0.6571 0.0
C8538 C 0.70331 0.87401 0.65473 0.0
H8539 H 0.68801 0.86486 0.66534 0.0
H8540 H 0.69696 0.8625 0.65366 0.0
C8541 C 0.70402 0.88113 0.65941 0.0
C8542 C 0.38255 0.43673 0.90711 0.0
C8543 C 0.38038 0.43923 0.915 0.0
H8544 H 0.3842 0.44014 0.89467 0.0
C8545 C 0.37909 0.44754 0.91647 0.0
H8546 H 0.38369 0.43038 0.90581 0.0
C8547 C 0.37946 0.45316 0.9101 0.0
C8548 C 0.38113 0.45059 0.90212 0.0
H8549 H 0.37736 0.44968 0.92245 0.0
H8550 H 0.37815 0.45949 0.91137 0.0
C8551 C 0.38293 0.44235 0.90075 0.0
C8552 C 0.30303 0.62816 0.66829 0.0
C8553 C 0.3114 0.62918 0.66688 0.0
H8554 H 0.29109 0.6277 0.66313 0.0
C8555 C 0.314 0.63134 0.65903 0.0
H8556 H 0.3008 0.62647 0.67425 0.0
C8557 C 0.30845 0.63193 0.65263 0.0
C8558 C 0.30014 0.6304 0.65392 0.0
H8559 H 0.32039 0.63231 0.65776 0.0
H8560 H 0.31076 0.63314 0.64658 0.0
C8561 C 0.29746 0.62878 0.66189 0.0
C8562 C 0.87977 0.05262 0.08327 0.0
C8563 C 0.88091 0.06099 0.0846 0.0
H8564 H 0.87924 0.04073 0.08854 0.0
C8565 C 0.8833 0.06362 0.09238 0.0
H8566 H 0.87791 0.05038 0.07736 0.0
C8567 C 0.88393 0.05811 0.0988 0.0
C8568 C 0.88224 0.04981 0.09761 0.0
H8569 H 0.88436 0.07 0.09358 0.0
H8570 H 0.88528 0.06045 0.1048 0.0
C8571 C 0.88044 0.04709 0.0897 0.0
C8572 C 0.69467 0.13229 0.83571 0.0
C8573 C 0.69441 0.1246 0.83199 0.0
H8574 H 0.69952 0.13952 0.84542 0.0
C8575 C 0.69957 0.11845 0.83487 0.0
H8576 H 0.69075 0.13715 0.83361 0.0
C8577 C 0.70452 0.11977 0.84163 0.0
C8578 C 0.70446 0.1273 0.84567 0.0
H8579 H 0.69958 0.11249 0.83207 0.0
H8580 H 0.70805 0.11471 0.84392 0.0
C8581 C 0.69964 0.13362 0.84251 0.0
C8582 C 0.80312 0.8711 0.33446 0.0
C8583 C 0.81153 0.87054 0.33587 0.0
H8584 H 0.79117 0.87117 0.33964 0.0
C8585 C 0.81425 0.86879 0.34379 0.0
H8586 H 0.80081 0.87248 0.32845 0.0
C8587 C 0.80874 0.86814 0.35022 0.0
C8588 C 0.80036 0.8692 0.34889 0.0
H8589 H 0.82068 0.86818 0.34506 0.0
H8590 H 0.81111 0.86724 0.35629 0.0
C8591 C 0.7976 0.87044 0.34089 0.0
C8592 C 0.41322 0.37559 0.05442 0.0
C8593 C 0.41568 0.37884 0.06193 0.0
H8594 H 0.40452 0.37596 0.04472 0.0
C8595 C 0.41133 0.38542 0.06521 0.0
H8596 H 0.41643 0.37048 0.05177 0.0
C8597 C 0.40454 0.38855 0.06118 0.0
C8598 C 0.40191 0.38513 0.05381 0.0
H8599 H 0.41313 0.38809 0.07096 0.0
H8600 H 0.4012 0.39348 0.06398 0.0
C8601 C 0.40637 0.37867 0.05042 0.0
C8602 C 0.36643 0.66488 0.81058 0.0
C8603 C 0.37429 0.66742 0.8084 0.0
H8604 H 0.35709 0.65594 0.80917 0.0
C8605 C 0.37852 0.66305 0.80239 0.0
H8606 H 0.36306 0.66805 0.81526 0.0
C8607 C 0.37509 0.65612 0.79887 0.0
C8608 C 0.36737 0.65337 0.8013 0.0
H8609 H 0.38453 0.66493 0.80048 0.0
H8610 H 0.37854 0.65284 0.79432 0.0
C8611 C 0.36301 0.65793 0.80708 0.0
C8612 C 0.08959 0.61514 0.5649 0.0
C8613 C 0.08522 0.6217 0.5616 0.0
H8614 H 0.0998 0.60717 0.56375 0.0
C8615 C 0.08771 0.62498 0.55411 0.0
H8616 H 0.08776 0.61245 0.57063 0.0
C8617 C 0.09462 0.62196 0.55017 0.0
C8618 C 0.09911 0.61554 0.55359 0.0
H8619 H 0.08449 0.63007 0.55145 0.0
H8620 H 0.0965 0.6247 0.54449 0.0
C8621 C 0.09643 0.61207 0.56093 0.0
C8622 C 0.12603 0.33741 0.30554 0.0
C8623 C 0.12937 0.33497 0.31302 0.0
H8624 H 0.12622 0.34613 0.29585 0.0
C8625 C 0.13594 0.33938 0.31624 0.0
H8626 H 0.12093 0.33416 0.30293 0.0
C8627 C 0.13896 0.34621 0.3122 0.0
C8628 C 0.13544 0.34882 0.30487 0.0
H8629 H 0.13868 0.3376 0.32196 0.0
H8630 H 0.14388 0.3496 0.31497 0.0
C8631 C 0.12901 0.3443 0.30153 0.0
C8632 C 0.41034 0.61535 0.43618 0.0
C8633 C 0.41484 0.62176 0.4396 0.0
H8634 H 0.40006 0.60747 0.43726 0.0
C8635 C 0.41249 0.62486 0.44721 0.0
H8636 H 0.41205 0.6128 0.43035 0.0
C8637 C 0.4056 0.62181 0.45117 0.0
C8638 C 0.401 0.61553 0.44764 0.0
H8639 H 0.41581 0.62983 0.44997 0.0
H8640 H 0.40383 0.62442 0.45695 0.0
C8641 C 0.40352 0.61226 0.44016 0.0
C8642 C 0.13218 0.66549 0.19682 0.0
C8643 C 0.12595 0.66474 0.19101 0.0
H8644 H 0.14052 0.65932 0.20473 0.0
C8645 C 0.12343 0.65692 0.18867 0.0
H8646 H 0.13422 0.67142 0.19882 0.0
C8647 C 0.12699 0.65002 0.19208 0.0
C8648 C 0.1332 0.65075 0.19789 0.0
H8649 H 0.11879 0.6561 0.18407 0.0
H8650 H 0.12498 0.64409 0.19003 0.0
C8651 C 0.13578 0.65856 0.20022 0.0
C8652 C 0.09295 0.37285 0.93736 0.0
C8653 C 0.08515 0.3752 0.93994 0.0
H8654 H 0.10579 0.37448 0.93853 0.0
C8655 C 0.08445 0.38121 0.94598 0.0
H8656 H 0.09373 0.36838 0.93258 0.0
C8657 C 0.09141 0.38475 0.94938 0.0
C8658 C 0.0992 0.38233 0.94683 0.0
H8659 H 0.07854 0.38311 0.94815 0.0
H8660 H 0.0907 0.38931 0.95408 0.0
C8661 C 0.09988 0.37635 0.94076 0.0
C8662 C 0.37769 0.34248 0.68849 0.0
C8663 C 0.37507 0.33458 0.69045 0.0
H8664 H 0.37625 0.35524 0.69041 0.0
C8665 C 0.36881 0.33363 0.6962 0.0
H8666 H 0.38236 0.34346 0.68396 0.0
C8667 C 0.36526 0.34043 0.69989 0.0
C8668 C 0.36792 0.34832 0.69793 0.0
H8669 H 0.3667 0.32763 0.69791 0.0
H8670 H 0.36048 0.33952 0.70433 0.0
C8671 C 0.37418 0.34925 0.69219 0.0
C8672 C 0.05296 0.41195 0.37231 0.0
C8673 C 0.05888 0.41636 0.37661 0.0
H8674 H 0.0449 0.40174 0.3722 0.0
C8675 C 0.06097 0.41383 0.3845 0.0
H8676 H 0.05112 0.41382 0.36626 0.0
C8677 C 0.05744 0.40689 0.38789 0.0
C8678 C 0.05172 0.40232 0.38348 0.0
H8679 H 0.06559 0.41704 0.38794 0.0
H8680 H 0.05944 0.40492 0.39385 0.0
C8681 C 0.04941 0.40503 0.37571 0.0
C8682 C 0.33842 0.3044 0.12661 0.0
C8683 C 0.33625 0.31216 0.12943 0.0
H8684 H 0.34684 0.29448 0.12743 0.0
C8685 C 0.34082 0.31572 0.1357 0.0
H8686 H 0.33503 0.30153 0.12175 0.0
C8687 C 0.34755 0.3117 0.13896 0.0
C8688 C 0.34989 0.30404 0.13597 0.0
H8689 H 0.33925 0.32167 0.13804 0.0
H8690 H 0.35108 0.3147 0.14364 0.0
C8691 C 0.34521 0.30039 0.12981 0.0
C8692 C 0.4363 0.58946 0.8861 0.0
C8693 C 0.43957 0.58522 0.87944 0.0
H8694 H 0.43747 0.59955 0.89423 0.0
C8695 C 0.44704 0.58778 0.87616 0.0
H8696 H 0.43059 0.58759 0.88878 0.0
C8697 C 0.45099 0.59464 0.87928 0.0
C8698 C 0.44759 0.59901 0.88579 0.0
H8699 H 0.44967 0.58466 0.871 0.0
H8700 H 0.45664 0.59658 0.87653 0.0
C8701 C 0.44028 0.59626 0.88926 0.0
C8702 C 0.1624 0.698 0.62203 0.0
C8703 C 0.16682 0.69202 0.62625 0.0
H8704 H 0.15214 0.70599 0.62203 0.0
C8705 C 0.1643 0.6898 0.6341 0.0
H8706 H 0.16426 0.69993 0.61602 0.0
C8707 C 0.15732 0.69324 0.63753 0.0
C8708 C 0.15272 0.699 0.6332 0.0
H8709 H 0.16752 0.68515 0.63747 0.0
H8710 H 0.15535 0.69113 0.64345 0.0
C8711 C 0.15544 0.70146 0.62547 0.0
C8712 C 0.06543 0.58951 0.11542 0.0
C8713 C 0.06221 0.58515 0.12202 0.0
H8714 H 0.06417 0.59971 0.10745 0.0
C8715 C 0.05476 0.58762 0.12538 0.0
H8716 H 0.07113 0.5877 0.11266 0.0
C8717 C 0.05076 0.59451 0.12239 0.0
C8718 C 0.0541 0.599 0.11592 0.0
H8719 H 0.05216 0.5844 0.1305 0.0
H8720 H 0.04511 0.59639 0.1252 0.0
C8721 C 0.0614 0.59634 0.11239 0.0
C8722 C 0.1606 0.31531 0.86541 0.0
C8723 C 0.16499 0.31188 0.87189 0.0
H8724 H 0.1504 0.31428 0.8574 0.0
C8725 C 0.16252 0.30431 0.87501 0.0
H8726 H 0.1624 0.3211 0.86285 0.0
C8727 C 0.15564 0.3004 0.87189 0.0
C8728 C 0.15115 0.30394 0.86554 0.0
H8729 H 0.16576 0.30155 0.88003 0.0
H8730 H 0.15379 0.29465 0.87451 0.0
C8731 C 0.15378 0.31137 0.86225 0.0
C8732 C 0.44208 0.41513 0.61734 0.0
C8733 C 0.44016 0.4151 0.62567 0.0
H8734 H 0.44728 0.40863 0.60733 0.0
C8735 C 0.44246 0.40836 0.63039 0.0
H8736 H 0.44035 0.42019 0.6135 0.0
C8737 C 0.44631 0.40168 0.62683 0.0
C8738 C 0.44801 0.40159 0.61846 0.0
H8739 H 0.4412 0.40819 0.63685 0.0
H8740 H 0.44772 0.39649 0.63062 0.0
C8741 C 0.44596 0.40845 0.61378 0.0
C8742 C 0.33855 0.69781 0.37925 0.0
C8743 C 0.3341 0.6919 0.37499 0.0
H8744 H 0.34884 0.70578 0.3793 0.0
C8745 C 0.3366 0.68974 0.36711 0.0
H8746 H 0.3367 0.6997 0.38529 0.0
C8747 C 0.34358 0.69319 0.3637 0.0
C8748 C 0.3482 0.6989 0.36807 0.0
H8749 H 0.33336 0.68513 0.36371 0.0
H8750 H 0.34552 0.69113 0.35775 0.0
C8751 C 0.34551 0.70129 0.37583 0.0
C8752 C 0.3865 0.06545 0.41197 0.0
C8753 C 0.37978 0.06235 0.41624 0.0
H8754 H 0.39462 0.06401 0.40192 0.0
C8755 C 0.37639 0.0549 0.41378 0.0
H8756 H 0.38928 0.07114 0.41377 0.0
C8757 C 0.37946 0.05081 0.40698 0.0
C8758 C 0.38603 0.05404 0.40256 0.0
H8759 H 0.37117 0.05239 0.41692 0.0
H8760 H 0.37662 0.04517 0.40511 0.0
C8761 C 0.3896 0.06133 0.40523 0.0
C8762 C 0.87634 0.44603 0.58771 0.0
C8763 C 0.8792 0.43825 0.58565 0.0
H8764 H 0.87706 0.45604 0.59604 0.0
C8765 C 0.88541 0.43474 0.59035 0.0
H8766 H 0.87153 0.44887 0.58423 0.0
C8767 C 0.88857 0.43883 0.59708 0.0
C8768 C 0.88555 0.44651 0.5993 0.0
H8769 H 0.88777 0.42877 0.58886 0.0
H8770 H 0.8932 0.43587 0.60069 0.0
C8771 C 0.87946 0.45011 0.5945 0.0
C8772 C 0.30999 0.13406 0.33588 0.0
C8773 C 0.30796 0.1261 0.33352 0.0
H8774 H 0.30842 0.14355 0.34462 0.0
C8775 C 0.30207 0.12184 0.33801 0.0
H8776 H 0.31458 0.13746 0.33261 0.0
C8777 C 0.29851 0.12534 0.34489 0.0
C8778 C 0.30078 0.13318 0.34745 0.0
H8779 H 0.30029 0.11574 0.33627 0.0
H8780 H 0.29405 0.12187 0.34826 0.0
C8781 C 0.30645 0.13755 0.34277 0.0
C8782 C 0.61947 0.55489 0.08369 0.0
C8783 C 0.62565 0.56074 0.08455 0.0
H8784 H 0.61129 0.54669 0.0897 0.0
C8785 C 0.62826 0.56283 0.09242 0.0
H8786 H 0.61736 0.55309 0.07772 0.0
C8787 C 0.62482 0.55916 0.09924 0.0
C8788 C 0.61865 0.55331 0.0984 0.0
H8789 H 0.63286 0.56745 0.09333 0.0
H8790 H 0.62688 0.56104 0.10521 0.0
C8791 C 0.616 0.55122 0.09055 0.0
C8792 C 0.69623 0.37561 0.33729 0.0
C8793 C 0.68864 0.3725 0.3349 0.0
H8794 H 0.70598 0.3751 0.34593 0.0
C8795 C 0.68526 0.36601 0.3393 0.0
H8796 H 0.69896 0.38065 0.33404 0.0
C8797 C 0.68927 0.36283 0.34608 0.0
C8798 C 0.69672 0.36612 0.34864 0.0
H8799 H 0.67945 0.36345 0.33756 0.0
H8800 H 0.68639 0.35798 0.34947 0.0
C8801 C 0.70021 0.37248 0.34413 0.0
C8802 C 0.11968 0.94588 0.91612 0.0
C8803 C 0.12571 0.93985 0.91536 0.0
H8804 H 0.1117 0.95415 0.90995 0.0
C8805 C 0.12817 0.93746 0.90754 0.0
H8806 H 0.11769 0.94791 0.92206 0.0
C8807 C 0.12477 0.94104 0.90064 0.0
C8808 C 0.11879 0.94709 0.90138 0.0
H8809 H 0.13265 0.9327 0.90672 0.0
H8810 H 0.12674 0.93895 0.89471 0.0
C8811 C 0.11625 0.94946 0.90919 0.0
C8812 C 0.31251 0.87886 0.15859 0.0
C8813 C 0.31027 0.87627 0.16643 0.0
H8814 H 0.31087 0.8775 0.14578 0.0
C8815 C 0.30435 0.87015 0.16721 0.0
H8816 H 0.31719 0.88341 0.15774 0.0
C8817 C 0.30073 0.86673 0.1603 0.0
C8818 C 0.30295 0.86937 0.15248 0.0
H8819 H 0.30245 0.86807 0.17316 0.0
H8820 H 0.29613 0.86208 0.16109 0.0
C8821 C 0.30889 0.87546 0.15172 0.0
C8822 C 0.19817 0.12205 0.66264 0.0
C8823 C 0.19206 0.12626 0.66688 0.0
H8824 H 0.20636 0.12198 0.65254 0.0
C8825 C 0.1898 0.13405 0.6642 0.0
H8826 H 0.20013 0.11609 0.66464 0.0
C8827 C 0.19334 0.13741 0.65724 0.0
C8828 C 0.19923 0.13307 0.65282 0.0
H8829 H 0.18505 0.13741 0.66728 0.0
H8830 H 0.19119 0.14327 0.65514 0.0
C8831 C 0.20172 0.12542 0.6557 0.0
C8832 C 0.08864 0.1813 0.38571 0.0
C8833 C 0.09253 0.17388 0.38746 0.0
H8834 H 0.09007 0.19376 0.38207 0.0
C8835 C 0.10093 0.17321 0.38601 0.0
H8836 H 0.08219 0.18206 0.3868 0.0
C8837 C 0.10543 0.17992 0.38343 0.0
C8838 C 0.10161 0.18744 0.38211 0.0
H8839 H 0.1041 0.16754 0.38709 0.0
H8840 H 0.11194 0.1793 0.38265 0.0
C8841 C 0.09314 0.18801 0.38302 0.0
C8842 C 0.06787 0.83771 0.63726 0.0
C8843 C 0.0744 0.84145 0.64133 0.0
H8844 H 0.05625 0.83933 0.63154 0.0
C8845 C 0.07445 0.84996 0.64211 0.0
H8846 H 0.06764 0.83117 0.63659 0.0
C8847 C 0.06793 0.85459 0.63929 0.0
C8848 C 0.06124 0.85084 0.63556 0.0
H8849 H 0.07948 0.85306 0.64501 0.0
H8850 H 0.06809 0.86112 0.64011 0.0
C8851 C 0.06135 0.84238 0.63438 0.0
C8852 C 0.4032 0.82637 0.88204 0.0
C8853 C 0.41058 0.82521 0.88621 0.0
H8854 H 0.39279 0.8208 0.87656 0.0
C8855 C 0.41348 0.81724 0.88729 0.0
H8856 H 0.40088 0.83243 0.88094 0.0
C8857 C 0.40887 0.81057 0.88471 0.0
C8858 C 0.40125 0.81175 0.88103 0.0
H8859 H 0.4191 0.81612 0.89054 0.0
H8860 H 0.41106 0.8045 0.88601 0.0
C8861 C 0.39858 0.81971 0.87951 0.0
C8862 C 0.43357 0.16319 0.13707 0.0
C8863 C 0.42562 0.16006 0.13663 0.0
H8864 H 0.44626 0.161 0.13505 0.0
C8865 C 0.42439 0.15248 0.13288 0.0
H8866 H 0.43475 0.16898 0.13997 0.0
C8867 C 0.43098 0.14789 0.13014 0.0
C8868 C 0.43896 0.15081 0.13101 0.0
H8869 H 0.41833 0.14997 0.13226 0.0
H8870 H 0.42986 0.14195 0.12753 0.0
C8871 C 0.44017 0.15862 0.13426 0.0
C8872 C 0.08825 0.81249 0.10521 0.0
C8873 C 0.08925 0.82031 0.10849 0.0
H8874 H 0.09226 0.80012 0.10511 0.0
C8875 C 0.095 0.82148 0.11471 0.0
H8876 H 0.08377 0.81136 0.10052 0.0
C8877 C 0.09989 0.81503 0.11733 0.0
C8878 C 0.09913 0.80729 0.11379 0.0
H8879 H 0.09596 0.82745 0.1173 0.0
H8880 H 0.1045 0.81619 0.12189 0.0
C8881 C 0.09313 0.80605 0.10783 0.0
C8882 C 0.43884 0.83891 0.35279 0.0
C8883 C 0.43159 0.83804 0.35724 0.0
H8884 H 0.4506 0.8444 0.35207 0.0
C8885 C 0.43097 0.84183 0.36488 0.0
H8886 H 0.43957 0.83594 0.34695 0.0
C8887 C 0.43731 0.84669 0.36782 0.0
C8888 C 0.44439 0.84786 0.36317 0.0
H8889 H 0.42545 0.84133 0.36843 0.0
H8890 H 0.43652 0.84981 0.37356 0.0
C8891 C 0.44515 0.84376 0.35572 0.0
C8892 C 0.40325 0.17385 0.61897 0.0
C8893 C 0.41044 0.17504 0.6145 0.0
H8894 H 0.39298 0.17937 0.62476 0.0
C8895 C 0.41319 0.18303 0.61319 0.0
H8896 H 0.40105 0.16778 0.62024 0.0
C8897 C 0.40859 0.18968 0.61584 0.0
C8898 C 0.40114 0.18846 0.61983 0.0
H8899 H 0.41867 0.18417 0.60971 0.0
H8900 H 0.41065 0.19575 0.61436 0.0
C8901 C 0.39864 0.18049 0.62158 0.0
C8902 C 0.07135 0.15756 0.86618 0.0
C8903 C 0.07058 0.16212 0.85899 0.0
H8904 H 0.06569 0.14919 0.87442 0.0
C8905 C 0.06304 0.16225 0.85497 0.0
H8906 H 0.07709 0.15729 0.86938 0.0
C8907 C 0.05654 0.15763 0.85785 0.0
C8908 C 0.0574 0.15276 0.86481 0.0
H8909 H 0.06221 0.16583 0.84951 0.0
H8910 H 0.05085 0.15778 0.85454 0.0
C8911 C 0.06481 0.15292 0.86907 0.0
C8912 C 0.38226 0.09668 0.17527 0.0
C8913 C 0.38663 0.08944 0.17649 0.0
H8914 H 0.37651 0.107 0.18074 0.0
C8915 C 0.38783 0.08666 0.18449 0.0
H8916 H 0.38107 0.0989 0.16919 0.0
C8917 C 0.38515 0.09128 0.19112 0.0
C8918 C 0.38124 0.09877 0.18987 0.0
H8919 H 0.39123 0.08114 0.18566 0.0
H8920 H 0.38653 0.0892 0.19721 0.0
C8921 C 0.37963 0.10131 0.18188 0.0
C8922 C 0.15037 0.14206 0.42661 0.0
C8923 C 0.1589 0.14154 0.4268 0.0
H8924 H 0.13917 0.13991 0.43286 0.0
C8925 C 0.16266 0.13781 0.43352 0.0
H8926 H 0.14727 0.1447 0.42144 0.0
C8927 C 0.15798 0.13499 0.44006 0.0
C8928 C 0.14948 0.1359 0.44001 0.0
H8929 H 0.16921 0.13735 0.43386 0.0
H8930 H 0.16103 0.13241 0.4453 0.0
C8931 C 0.14573 0.1393 0.43314 0.0
C8932 C 0.12033 0.90625 0.67653 0.0
C8933 C 0.11415 0.91205 0.67766 0.0
H8934 H 0.12768 0.89697 0.68193 0.0
C8935 C 0.11104 0.91328 0.68552 0.0
H8936 H 0.12295 0.90526 0.67057 0.0
C8937 C 0.11373 0.90851 0.69202 0.0
C8938 C 0.11961 0.90242 0.69082 0.0
H8939 H 0.10622 0.91764 0.68658 0.0
H8940 H 0.11088 0.90933 0.6979 0.0
C8941 C 0.12303 0.9015 0.68304 0.0
C8942 C 0.34727 0.8688 0.92388 0.0
C8943 C 0.34 0.86446 0.92505 0.0
H8944 H 0.35761 0.87443 0.92944 0.0
C8945 C 0.33718 0.86321 0.93303 0.0
H8946 H 0.34952 0.87003 0.91782 0.0
C8947 C 0.3418 0.8658 0.93969 0.0
C8948 C 0.34932 0.86966 0.9385 0.0
H8949 H 0.33165 0.85983 0.93415 0.0
H8950 H 0.33969 0.86437 0.94576 0.0
C8951 C 0.35189 0.87135 0.93053 0.0
C8952 C 0.38136 0.90302 0.32768 0.0
C8953 C 0.38535 0.91049 0.32651 0.0
H8954 H 0.37607 0.89251 0.32212 0.0
C8955 C 0.38627 0.91346 0.31854 0.0
H8956 H 0.38039 0.90064 0.33374 0.0
C8957 C 0.38371 0.90883 0.31188 0.0
C8958 C 0.38023 0.90112 0.31306 0.0
H8959 H 0.38937 0.91916 0.31742 0.0
H8960 H 0.38489 0.91108 0.30581 0.0
C8961 C 0.37886 0.89837 0.32103 0.0
C8962 C 0.3373 0.13649 0.56838 0.0
C8963 C 0.34105 0.13747 0.57601 0.0
H8964 H 0.33888 0.13347 0.55578 0.0
C8965 C 0.34925 0.13522 0.57688 0.0
H8966 H 0.33101 0.13821 0.56748 0.0
C8967 C 0.35376 0.13264 0.57017 0.0
C8968 C 0.35013 0.13211 0.56247 0.0
H8969 H 0.35228 0.13569 0.5827 0.0
H8970 H 0.36015 0.13125 0.57096 0.0
C8971 C 0.3418 0.1338 0.56167 0.0
C8972 C 0.11814 0.09784 0.82641 0.0
C8973 C 0.11461 0.09017 0.82508 0.0
H8974 H 0.12324 0.10857 0.82106 0.0
C8975 C 0.1144 0.08706 0.81711 0.0
H8976 H 0.11857 0.10034 0.83248 0.0
C8977 C 0.11718 0.09175 0.81057 0.0
C8978 C 0.12016 0.09964 0.81188 0.0
H8979 H 0.11167 0.08121 0.81585 0.0
H8980 H 0.11655 0.08939 0.80446 0.0
C8981 C 0.12084 0.10254 0.81988 0.0
C8982 C 0.1635 0.86458 0.06803 0.0
C8983 C 0.16055 0.86556 0.076 0.0
H8984 H 0.16109 0.86592 0.05529 0.0
C8985 C 0.15311 0.86962 0.07716 0.0
H8986 H 0.16916 0.86143 0.06691 0.0
C8987 C 0.14847 0.87213 0.07051 0.0
C8988 C 0.15119 0.8707 0.06255 0.0
H8989 H 0.15075 0.87065 0.08322 0.0
H8990 H 0.14263 0.87497 0.07159 0.0
C8991 C 0.15887 0.86715 0.06137 0.0
C8992 C 0.18816 0.39104 0.08623 0.0
C8993 C 0.17993 0.38952 0.08799 0.0
H8994 H 0.20053 0.38973 0.09003 0.0
C8995 C 0.17799 0.3847 0.09478 0.0
H8996 H 0.18985 0.39464 0.08099 0.0
C8997 C 0.18411 0.38183 0.09993 0.0
C8998 C 0.19231 0.38369 0.09839 0.0
H8999 H 0.17172 0.38346 0.09635 0.0
H9000 H 0.18241 0.37833 0.10524 0.0
C9001 C 0.19428 0.38815 0.09137 0.0
C9002 C 0.68269 0.11283 0.9137 0.0
C9003 C 0.67475 0.11369 0.91064 0.0
H9004 H 0.69544 0.11445 0.91151 0.0
C9005 C 0.67362 0.11777 0.90322 0.0
H9006 H 0.68379 0.10965 0.91936 0.0
C9007 C 0.68029 0.12046 0.89871 0.0
C9008 C 0.68824 0.11918 0.90154 0.0
H9009 H 0.66758 0.1187 0.90078 0.0
H9010 H 0.67923 0.12335 0.89289 0.0
C9011 C 0.68938 0.11557 0.9092 0.0
C9012 C 0.13269 0.4239 0.15354 0.0
C9013 C 0.13644 0.42507 0.16113 0.0
H9014 H 0.12741 0.42945 0.14302 0.0
C9015 C 0.13695 0.43301 0.16429 0.0
H9016 H 0.13202 0.41785 0.15101 0.0
C9017 C 0.13421 0.43965 0.15973 0.0
C9018 C 0.13096 0.43848 0.15192 0.0
H9019 H 0.13986 0.43414 0.17009 0.0
H9020 H 0.13506 0.44572 0.16213 0.0
C9021 C 0.13002 0.43053 0.14897 0.0
C9022 C 0.82516 0.88951 0.40045 0.0
C9023 C 0.82504 0.88962 0.40899 0.0
H9024 H 0.81863 0.88701 0.38948 0.0
C9025 C 0.81821 0.88645 0.41305 0.0
H9026 H 0.83041 0.89169 0.39712 0.0
C9027 C 0.81148 0.88365 0.40864 0.0
C9028 C 0.81146 0.88403 0.40011 0.0
H9029 H 0.8179 0.88648 0.41963 0.0
H9030 H 0.80615 0.88155 0.4119 0.0
C9031 C 0.81844 0.88679 0.39606 0.0
C9032 C 0.86479 0.06812 0.16312 0.0
C9033 C 0.86466 0.07594 0.15964 0.0
H9034 H 0.8671 0.05541 0.16127 0.0
C9035 C 0.86771 0.07695 0.15171 0.0
H9036 H 0.86243 0.0671 0.16918 0.0
C9037 C 0.87027 0.07026 0.14717 0.0
C9038 C 0.86995 0.0624 0.15049 0.0
H9039 H 0.86789 0.08291 0.14891 0.0
H9040 H 0.8723 0.07119 0.14098 0.0
C9041 C 0.86744 0.06142 0.15859 0.0
C9042 C 0.32466 0.60985 0.60143 0.0
C9043 C 0.32446 0.61014 0.59289 0.0
H9044 H 0.31831 0.61203 0.61257 0.0
C9045 C 0.31768 0.61366 0.58905 0.0
H9046 H 0.32988 0.60738 0.6046 0.0
C9047 C 0.31106 0.61643 0.59365 0.0
C9048 C 0.31111 0.61567 0.60216 0.0
H9049 H 0.31732 0.61395 0.58248 0.0
H9050 H 0.30577 0.61881 0.59055 0.0
C9051 C 0.31805 0.61254 0.60601 0.0
C9052 C 0.13137 0.5744 0.34578 0.0
C9053 C 0.13688 0.57322 0.33936 0.0
H9054 H 0.12479 0.569 0.35563 0.0
C9055 C 0.13942 0.56526 0.33752 0.0
H9056 H 0.12916 0.58043 0.34725 0.0
C9057 C 0.13689 0.55871 0.34231 0.0
C9058 C 0.13177 0.55998 0.34903 0.0
H9059 H 0.14373 0.56415 0.33267 0.0
H9060 H 0.1393 0.55272 0.34101 0.0
C9061 C 0.12885 0.56786 0.35057 0.0
C9062 C 0.3551 0.43772 0.83842 0.0
C9063 C 0.35899 0.43012 0.83881 0.0
H9064 H 0.35469 0.44998 0.84273 0.0
C9065 C 0.36595 0.42928 0.8437 0.0
H9066 H 0.34982 0.4386 0.83459 0.0
C9067 C 0.36873 0.43581 0.8484 0.0
C9068 C 0.36461 0.4433 0.84828 0.0
H9069 H 0.36903 0.42348 0.84418 0.0
H9070 H 0.3739 0.43488 0.85237 0.0
C9071 C 0.35789 0.44423 0.8431 0.0
C9072 C 0.91504 0.82116 0.62346 0.0
C9073 C 0.91399 0.8202 0.61503 0.0
H9074 H 0.91181 0.81704 0.63538 0.0
C9075 C 0.90906 0.81383 0.61219 0.0
H9076 H 0.91875 0.82604 0.62585 0.0
C9077 C 0.90503 0.80871 0.61765 0.0
C9078 C 0.90584 0.80985 0.62608 0.0
H9079 H 0.9082 0.81286 0.60573 0.0
H9080 H 0.90105 0.80405 0.61525 0.0
C9081 C 0.911 0.81605 0.62892 0.0
C9082 C 0.93818 0.15791 0.35914 0.0
C9083 C 0.93218 0.1634 0.36179 0.0
H9084 H 0.94741 0.1494 0.36251 0.0
C9085 C 0.93135 0.16486 0.37017 0.0
H9086 H 0.93904 0.15673 0.35272 0.0
C9087 C 0.93621 0.16073 0.37578 0.0
C9088 C 0.94203 0.15504 0.37314 0.0
H9089 H 0.92675 0.169 0.37243 0.0
H9090 H 0.93535 0.16191 0.3822 0.0
C9091 C 0.94304 0.15378 0.36475 0.0
C9092 C 0.58654 0.17981 0.12221 0.0
C9093 C 0.58797 0.18035 0.1138 0.0
H9094 H 0.58955 0.18424 0.13408 0.0
C9095 C 0.59341 0.18627 0.11091 0.0
H9096 H 0.58243 0.17528 0.12464 0.0
C9097 C 0.59755 0.19135 0.11633 0.0
C9098 C 0.59635 0.19062 0.12476 0.0
H9099 H 0.59457 0.18691 0.10446 0.0
H9100 H 0.60191 0.19565 0.11391 0.0
C9101 C 0.59069 0.18488 0.12762 0.0
C9102 C 0.57486 0.8479 0.86908 0.0
C9103 C 0.57229 0.84067 0.86532 0.0
H9104 H 0.57195 0.85757 0.87724 0.0
C9105 C 0.56456 0.83755 0.86721 0.0
H9106 H 0.58082 0.85041 0.86784 0.0
C9107 C 0.55947 0.84165 0.87268 0.0
C9108 C 0.56205 0.84889 0.87641 0.0
H9109 H 0.56239 0.83202 0.86438 0.0
H9110 H 0.55355 0.83911 0.87403 0.0
C9111 C 0.56981 0.85195 0.87455 0.0
C9112 C 0.91468 0.18024 0.88019 0.0
C9113 C 0.91301 0.18091 0.88855 0.0
H9114 H 0.91199 0.18444 0.86817 0.0
C9115 C 0.90744 0.18684 0.89117 0.0
H9116 H 0.91889 0.1757 0.87796 0.0
C9117 C 0.90343 0.1918 0.88556 0.0
C9118 C 0.90488 0.19093 0.87718 0.0
H9119 H 0.90609 0.18758 0.89758 0.0
H9120 H 0.89897 0.19611 0.88777 0.0
C9121 C 0.91066 0.18519 0.87458 0.0
C9122 C 0.56984 0.16387 0.62899 0.0
C9123 C 0.5686 0.163 0.6374 0.0
H9124 H 0.56622 0.16029 0.617 0.0
C9125 C 0.56226 0.15794 0.64012 0.0
H9126 H 0.5747 0.16766 0.62668 0.0
C9127 C 0.55746 0.15366 0.63458 0.0
C9128 C 0.55888 0.15432 0.62618 0.0
H9129 H 0.56108 0.15721 0.64656 0.0
H9130 H 0.55282 0.14961 0.6369 0.0
C9131 C 0.56504 0.15958 0.62344 0.0
C9132 C 0.58643 0.82013 0.37886 0.0
C9133 C 0.58767 0.81933 0.38728 0.0
H9134 H 0.5897 0.8161 0.36693 0.0
C9135 C 0.59307 0.81332 0.39009 0.0
H9136 H 0.58236 0.82473 0.37649 0.0
C9137 C 0.59734 0.80843 0.38461 0.0
C9138 C 0.59632 0.80944 0.37618 0.0
H9139 H 0.59409 0.81248 0.39654 0.0
H9140 H 0.60166 0.80407 0.38698 0.0
C9141 C 0.59071 0.81524 0.37338 0.0
C9142 C 0.92607 0.84797 0.13232 0.0
C9143 C 0.92862 0.84068 0.13597 0.0
H9144 H 0.92899 0.85772 0.12425 0.0
C9145 C 0.93631 0.83753 0.13398 0.0
H9146 H 0.92014 0.85051 0.13364 0.0
C9147 C 0.94139 0.84166 0.12853 0.0
C9148 C 0.93883 0.84896 0.1249 0.0
H9149 H 0.93846 0.83195 0.13673 0.0
H9150 H 0.94729 0.8391 0.1271 0.0
C9151 C 0.93111 0.85206 0.12686 0.0
C9152 C 0.61609 0.91314 0.81481 0.0
C9153 C 0.61446 0.91019 0.82266 0.0
H9154 H 0.62267 0.91143 0.80367 0.0
C9155 C 0.61847 0.90314 0.82534 0.0
H9156 H 0.61306 0.91854 0.81256 0.0
C9157 C 0.62391 0.89907 0.82027 0.0
C9158 C 0.6255 0.90195 0.81238 0.0
H9159 H 0.61742 0.90077 0.83139 0.0
H9160 H 0.62679 0.89358 0.82249 0.0
C9161 C 0.62153 0.90904 0.8097 0.0
C9162 C 0.84304 0.8584 0.56177 0.0
C9163 C 0.83758 0.86097 0.56783 0.0
H9164 H 0.85165 0.86187 0.55266 0.0
C9165 C 0.83625 0.86935 0.56887 0.0
H9166 H 0.84414 0.85199 0.56074 0.0
C9167 C 0.84049 0.87502 0.56417 0.0
C9168 C 0.84616 0.87245 0.55832 0.0
H9169 H 0.83213 0.87154 0.57352 0.0
H9170 H 0.8394 0.88143 0.56521 0.0
C9171 C 0.84729 0.86407 0.55708 0.0
C9172 C 0.88282 0.0858 0.31471 0.0
C9173 C 0.88492 0.08916 0.32229 0.0
H9174 H 0.87584 0.08711 0.30377 0.0
C9175 C 0.88126 0.09649 0.32471 0.0
H9176 H 0.88557 0.08018 0.31267 0.0
C9177 C 0.87573 0.10044 0.31964 0.0
C9178 C 0.87372 0.09718 0.312 0.0
H9179 H 0.88266 0.09918 0.33055 0.0
H9180 H 0.87318 0.10617 0.32164 0.0
C9181 C 0.8773 0.0898 0.3096 0.0
C9182 C 0.65711 0.14004 0.06392 0.0
C9183 C 0.66268 0.13727 0.06978 0.0
H9184 H 0.64851 0.13688 0.05469 0.0
C9185 C 0.6642 0.12888 0.07036 0.0
H9186 H 0.65587 0.14648 0.06325 0.0
C9187 C 0.66004 0.12338 0.06539 0.0
C9188 C 0.65427 0.12614 0.05972 0.0
H9189 H 0.6684 0.12652 0.07485 0.0
H9190 H 0.66127 0.11694 0.06607 0.0
C9191 C 0.65296 0.13455 0.05894 0.0
C9192 C 0.61834 0.09683 0.67623 0.0
C9193 C 0.61473 0.08953 0.67881 0.0
H9194 H 0.62643 0.10659 0.67904 0.0
C9195 C 0.61695 0.0863 0.68641 0.0
H9196 H 0.61684 0.09942 0.67036 0.0
C9197 C 0.62252 0.09039 0.69139 0.0
C9198 C 0.62604 0.09774 0.68882 0.0
H9199 H 0.61424 0.0807 0.68859 0.0
H9200 H 0.62408 0.08779 0.69723 0.0
C9201 C 0.62391 0.10088 0.68116 0.0
C9202 C 0.65331 0.86887 0.4258 0.0
C9203 C 0.66043 0.86496 0.42843 0.0
H9204 H 0.64373 0.87716 0.42866 0.0
C9205 C 0.66348 0.86674 0.43622 0.0
H9206 H 0.65086 0.86771 0.4198 0.0
C9207 C 0.65941 0.87223 0.4413 0.0
C9208 C 0.65226 0.8761 0.43866 0.0
H9209 H 0.66893 0.86379 0.43843 0.0
H9210 H 0.66188 0.87348 0.44727 0.0
C9211 C 0.64928 0.87437 0.43084 0.0
C9212 C 0.88943 0.90597 0.18675 0.0
C9213 C 0.88659 0.91156 0.18093 0.0
H9214 H 0.88637 0.89731 0.19596 0.0
C9215 C 0.87818 0.91304 0.18042 0.0
H9216 H 0.89587 0.90477 0.18737 0.0
C9217 C 0.87274 0.90882 0.1854 0.0
C9218 C 0.87556 0.90304 0.19102 0.0
H9219 H 0.87578 0.91725 0.17597 0.0
H9220 H 0.86629 0.91002 0.18476 0.0
C9221 C 0.88399 0.90177 0.19173 0.0
C9222 C 0.84194 0.1404 0.93781 0.0
C9223 C 0.8366 0.13761 0.93174 0.0
H9224 H 0.85034 0.13726 0.94722 0.0
C9225 C 0.83524 0.1292 0.93101 0.0
H9226 H 0.84304 0.14684 0.9386 0.0
C9227 C 0.83936 0.12371 0.93601 0.0
C9228 C 0.84494 0.12649 0.94187 0.0
H9229 H 0.83122 0.12684 0.92636 0.0
H9230 H 0.83828 0.11726 0.9352 0.0
C9231 C 0.84606 0.13491 0.94281 0.0
C9232 C 0.81982 0.62194 0.91423 0.0
C9233 C 0.81856 0.61353 0.91335 0.0
H9234 H 0.81621 0.63393 0.91068 0.0
C9235 C 0.81219 0.61082 0.90834 0.0
H9236 H 0.82472 0.62423 0.91799 0.0
C9237 C 0.80736 0.61638 0.90409 0.0
C9238 C 0.8088 0.62478 0.90475 0.0
H9239 H 0.81099 0.60439 0.90761 0.0
H9240 H 0.80269 0.61407 0.90007 0.0
C9241 C 0.815 0.6275 0.90997 0.0
C9242 C 0.31418 0.88413 0.0867 0.0
C9243 C 0.32171 0.88655 0.08997 0.0
H9244 H 0.30347 0.87686 0.08824 0.0
C9245 C 0.32424 0.8832 0.09741 0.0
H9246 H 0.31205 0.88664 0.081 0.0
C9247 C 0.31934 0.87765 0.10154 0.0
C9248 C 0.31177 0.8753 0.09835 0.0
H9249 H 0.33005 0.88486 0.10004 0.0
H9250 H 0.32143 0.87532 0.10734 0.0
C9251 C 0.30925 0.87859 0.09088 0.0
C9252 C 0.86756 0.56438 0.83639 0.0
C9253 C 0.86503 0.57187 0.83964 0.0
H9254 H 0.87502 0.5538 0.83792 0.0
C9255 C 0.8684 0.57451 0.84703 0.0
H9256 H 0.86504 0.56217 0.83072 0.0
C9257 C 0.87407 0.56973 0.85115 0.0
C9258 C 0.87652 0.56218 0.84798 0.0
H9259 H 0.86666 0.58029 0.84965 0.0
H9260 H 0.87641 0.57188 0.85691 0.0
C9261 C 0.87322 0.55956 0.84054 0.0
C9262 C 0.18085 0.12108 0.58681 0.0
C9263 C 0.18217 0.11268 0.58768 0.0
H9264 H 0.18432 0.13309 0.59043 0.0
C9265 C 0.18849 0.11001 0.59278 0.0
H9266 H 0.17599 0.12334 0.58298 0.0
C9267 C 0.19321 0.1156 0.59711 0.0
C9268 C 0.19171 0.12399 0.59644 0.0
H9269 H 0.18973 0.10358 0.59351 0.0
H9270 H 0.19785 0.11331 0.60118 0.0
C9271 C 0.18556 0.12666 0.59115 0.0
C9272 C 0.12764 0.93033 0.83603 0.0
C9273 C 0.13609 0.93136 0.83688 0.0
H9274 H 0.11576 0.93423 0.83966 0.0
C9275 C 0.13898 0.93766 0.84188 0.0
H9276 H 0.12521 0.9255 0.83227 0.0
C9277 C 0.13357 0.9426 0.84618 0.0
C9278 C 0.12513 0.94137 0.84558 0.0
H9279 H 0.14545 0.93868 0.84259 0.0
H9280 H 0.13602 0.94719 0.85021 0.0
C9281 C 0.12223 0.93527 0.84033 0.0
C9282 C 0.68851 0.39179 0.40741 0.0
C9283 C 0.68242 0.38921 0.41282 0.0
H9284 H 0.69765 0.38834 0.39882 0.0
C9285 C 0.68132 0.38083 0.41407 0.0
H9286 H 0.68958 0.39821 0.40637 0.0
C9287 C 0.68601 0.37516 0.40981 0.0
C9288 C 0.69191 0.37775 0.40419 0.0
H9289 H 0.67664 0.37862 0.41814 0.0
H9290 H 0.68494 0.36875 0.41084 0.0
C9291 C 0.6932 0.38613 0.40314 0.0
C9292 C 0.86553 0.43837 0.66509 0.0
C9293 C 0.86332 0.43065 0.66217 0.0
H9294 H 0.87272 0.44909 0.6632 0.0
C9295 C 0.86696 0.42774 0.65501 0.0
H9296 H 0.86279 0.44078 0.67058 0.0
C9297 C 0.87261 0.43248 0.65081 0.0
C9298 C 0.87474 0.44024 0.65365 0.0
H9299 H 0.86547 0.42178 0.65266 0.0
H9300 H 0.87519 0.4301 0.64524 0.0
C9301 C 0.87115 0.44315 0.66084 0.0
C9302 C 0.63357 0.5642 0.16391 0.0
C9303 C 0.63606 0.57168 0.16062 0.0
H9304 H 0.62614 0.55358 0.16244 0.0
C9305 C 0.63269 0.57425 0.1532 0.0
H9306 H 0.63608 0.56204 0.1696 0.0
C9307 C 0.62705 0.56942 0.14911 0.0
C9308 C 0.62462 0.56189 0.15233 0.0
H9309 H 0.63441 0.58003 0.15055 0.0
H9310 H 0.6247 0.57153 0.14333 0.0
C9311 C 0.62793 0.55933 0.15978 0.0
C9312 C 0.58764 0.68256 0.8862 0.0
C9313 C 0.59148 0.67504 0.88761 0.0
H9314 H 0.58912 0.6951 0.88289 0.0
C9315 C 0.59982 0.6743 0.88586 0.0
H9316 H 0.58124 0.68336 0.88753 0.0
C9317 C 0.60432 0.68103 0.88334 0.0
C9318 C 0.60057 0.68863 0.88237 0.0
H9319 H 0.60294 0.66856 0.88667 0.0
H9320 H 0.6108 0.68035 0.88233 0.0
C9321 C 0.59214 0.68929 0.88357 0.0
C9322 C 0.56842 0.3382 0.13626 0.0
C9323 C 0.57522 0.34209 0.1397 0.0
H9324 H 0.55646 0.33961 0.13121 0.0
C9325 C 0.57539 0.35064 0.13991 0.0
H9326 H 0.56808 0.33163 0.13604 0.0
C9327 C 0.56874 0.35516 0.13725 0.0
C9328 C 0.56179 0.35127 0.13421 0.0
H9329 H 0.58062 0.35385 0.14231 0.0
H9330 H 0.56896 0.36173 0.13771 0.0
C9331 C 0.56177 0.34276 0.13351 0.0
C9332 C 0.91302 0.31803 0.38643 0.0
C9333 C 0.90966 0.3259 0.38634 0.0
H9334 H 0.911 0.3053 0.38438 0.0
C9335 C 0.9018 0.32697 0.38316 0.0
H9336 H 0.91904 0.31696 0.38889 0.0
C9337 C 0.89719 0.32029 0.38069 0.0
C9338 C 0.90037 0.31239 0.38123 0.0
H9339 H 0.89909 0.33296 0.38281 0.0
H9340 H 0.89103 0.32127 0.37856 0.0
C9341 C 0.90842 0.31134 0.38386 0.0
C9342 C 0.93195 0.66285 0.63539 0.0
C9343 C 0.92489 0.6588 0.63804 0.0
H9344 H 0.94416 0.66164 0.63089 0.0
C9345 C 0.92453 0.65029 0.63736 0.0
H9346 H 0.93245 0.66939 0.63586 0.0
C9347 C 0.93123 0.64588 0.63462 0.0
C9348 C 0.93843 0.64989 0.6324 0.0
H9349 H 0.91911 0.64699 0.63914 0.0
H9350 H 0.93086 0.63931 0.63442 0.0
C9351 C 0.93866 0.65842 0.63256 0.0
C9352 C 0.59841 0.3276 0.61931 0.0
C9353 C 0.59092 0.32647 0.61534 0.0
H9354 H 0.60887 0.32197 0.62463 0.0
C9355 C 0.58785 0.31853 0.61452 0.0
H9356 H 0.60087 0.33364 0.62021 0.0
C9357 C 0.59241 0.31184 0.61715 0.0
C9358 C 0.60014 0.31297 0.6206 0.0
H9359 H 0.58213 0.31743 0.61144 0.0
H9360 H 0.59009 0.30578 0.61605 0.0
C9361 C 0.60298 0.32092 0.62187 0.0
C9362 C 0.93291 0.33811 0.86294 0.0
C9363 C 0.92623 0.34187 0.85915 0.0
H9364 H 0.94467 0.33972 0.86839 0.0
C9365 C 0.92606 0.3504 0.85862 0.0
H9366 H 0.93324 0.33155 0.86341 0.0
C9367 C 0.93259 0.35503 0.86139 0.0
C9368 C 0.93943 0.35126 0.86483 0.0
H9369 H 0.92091 0.3535 0.85594 0.0
H9370 H 0.93233 0.36158 0.86074 0.0
C9371 C 0.93946 0.34277 0.86577 0.0
C9372 C 0.90152 0.67394 0.11593 0.0
C9373 C 0.90973 0.6748 0.11368 0.0
H9374 H 0.89062 0.67988 0.11984 0.0
C9375 C 0.91347 0.68245 0.11459 0.0
H9376 H 0.89851 0.66811 0.11552 0.0
C9377 C 0.90895 0.68917 0.11722 0.0
C9378 C 0.90062 0.68838 0.1189 0.0
H9379 H 0.91976 0.68334 0.11287 0.0
H9380 H 0.91186 0.69508 0.11749 0.0
C9381 C 0.89701 0.68067 0.11845 0.0
C9382 C 0.57184 0.65623 0.36483 0.0
C9383 C 0.5707 0.6619 0.35853 0.0
H9384 H 0.56649 0.6469 0.37218 0.0
C9385 C 0.56286 0.66294 0.35529 0.0
H9386 H 0.57782 0.65523 0.3674 0.0
C9387 C 0.55639 0.65819 0.35803 0.0
C9388 C 0.55759 0.65226 0.36406 0.0
H9389 H 0.56176 0.66737 0.35054 0.0
H9390 H 0.55045 0.65908 0.35533 0.0
C9391 C 0.56535 0.65145 0.36757 0.0
C9392 C 0.88639 0.58808 0.68311 0.0
C9393 C 0.88777 0.59169 0.67547 0.0
H9394 H 0.88296 0.58994 0.69556 0.0
C9395 C 0.8858 0.59994 0.67441 0.0
H9396 H 0.88788 0.58176 0.68416 0.0
C9397 C 0.88311 0.60462 0.68095 0.0
C9398 C 0.88219 0.60113 0.68868 0.0
H9399 H 0.88659 0.60287 0.66856 0.0
H9400 H 0.88195 0.61104 0.68002 0.0
C9401 C 0.88359 0.59276 0.68965 0.0
C9402 C 0.65338 0.6316 0.92378 0.0
C9403 C 0.66043 0.63629 0.92499 0.0
H9404 H 0.64319 0.62563 0.92925 0.0
C9405 C 0.66301 0.63784 0.933 0.0
H9406 H 0.65133 0.63014 0.9177 0.0
C9407 C 0.65837 0.6352 0.93962 0.0
C9408 C 0.65105 0.63098 0.93837 0.0
H9409 H 0.66837 0.64149 0.93415 0.0
H9410 H 0.66028 0.63688 0.9457 0.0
C9411 C 0.64874 0.629 0.93039 0.0
C9412 C 0.61075 0.4134 0.18622 0.0
C9413 C 0.61421 0.41243 0.17846 0.0
H9414 H 0.61029 0.40923 0.19852 0.0
C9415 C 0.62065 0.4069 0.17748 0.0
H9416 H 0.60572 0.41753 0.18716 0.0
C9417 C 0.6233 0.40215 0.18401 0.0
C9418 C 0.61954 0.4028 0.19166 0.0
H9419 H 0.62353 0.40611 0.17161 0.0
H9420 H 0.62816 0.39782 0.18301 0.0
C9421 C 0.61339 0.40863 0.19274 0.0
C9422 C 0.8387 0.36683 0.43222 0.0
C9423 C 0.84189 0.36164 0.42621 0.0
H9424 H 0.84072 0.37281 0.44364 0.0
C9425 C 0.84985 0.35868 0.42712 0.0
H9426 H 0.83261 0.36925 0.43166 0.0
C9427 C 0.85447 0.36073 0.43393 0.0
C9428 C 0.85126 0.36579 0.44001 0.0
H9429 H 0.85246 0.35459 0.42268 0.0
H9430 H 0.86057 0.3583 0.43445 0.0
C9431 C 0.84336 0.36892 0.43903 0.0
C9432 C 0.89027 0.41345 0.81497 0.0
C9433 C 0.88695 0.4123 0.82276 0.0
H9434 H 0.89069 0.40943 0.80261 0.0
C9435 C 0.88068 0.40658 0.82376 0.0
H9436 H 0.89518 0.41774 0.81402 0.0
C9437 C 0.87808 0.40183 0.81721 0.0
C9438 C 0.88171 0.40267 0.80952 0.0
H9439 H 0.8779 0.40565 0.82966 0.0
H9440 H 0.87335 0.39736 0.81822 0.0
C9441 C 0.88769 0.40868 0.80843 0.0
C9442 C 0.848 0.63234 0.07728 0.0
C9443 C 0.84062 0.63649 0.07607 0.0
H9444 H 0.85843 0.62682 0.07178 0.0
C9445 C 0.83772 0.63748 0.06809 0.0
H9446 H 0.85032 0.63131 0.08336 0.0
C9447 C 0.84234 0.63483 0.06145 0.0
C9448 C 0.84997 0.63117 0.06268 0.0
H9449 H 0.8321 0.64071 0.06693 0.0
H9450 H 0.84016 0.63606 0.05536 0.0
C9451 C 0.85263 0.62974 0.07066 0.0
C9452 C 0.61449 0.58745 0.31798 0.0
C9453 C 0.6155 0.59047 0.32592 0.0
H9454 H 0.61585 0.58972 0.30522 0.0
C9455 C 0.61961 0.59789 0.32701 0.0
H9456 H 0.6113 0.58179 0.31691 0.0
C9457 C 0.62214 0.60244 0.32032 0.0
C9458 C 0.62069 0.59966 0.31238 0.0
H9459 H 0.62065 0.6003 0.33305 0.0
H9460 H 0.62503 0.60828 0.32134 0.0
C9461 C 0.61709 0.59199 0.31127 0.0
C9462 C 0.6632 0.35492 0.56251 0.0
C9463 C 0.66215 0.35831 0.57028 0.0
H9464 H 0.65934 0.35473 0.5501 0.0
C9465 C 0.65649 0.36464 0.5713 0.0
H9466 H 0.66762 0.35015 0.5615 0.0
C9467 C 0.65172 0.36726 0.56476 0.0
C9468 C 0.65253 0.36361 0.55707 0.0
H9469 H 0.6555 0.36732 0.57723 0.0
H9470 H 0.64718 0.3719 0.56581 0.0
C9471 C 0.65845 0.35754 0.55598 0.0
C9472 C 0.67954 0.88486 0.59347 0.0
C9473 C 0.68037 0.89198 0.58881 0.0
H9474 H 0.68508 0.87676 0.60205 0.0
C9475 C 0.68791 0.896 0.58871 0.0
H9476 H 0.67379 0.88167 0.59372 0.0
C9477 C 0.69435 0.8932 0.59347 0.0
C9478 C 0.69341 0.88632 0.59845 0.0
H9479 H 0.68879 0.9014 0.58505 0.0
H9480 H 0.70004 0.89651 0.59336 0.0
C9481 C 0.686 0.88206 0.59825 0.0
C9482 C 0.18294 0.61378 0.41236 0.0
C9483 C 0.17616 0.6102 0.40855 0.0
H9484 H 0.19484 0.61893 0.41081 0.0
C9485 C 0.17597 0.60982 0.40001 0.0
H9486 H 0.1833 0.61414 0.41892 0.0
C9487 C 0.18257 0.61248 0.39541 0.0
C9488 C 0.18951 0.61566 0.39922 0.0
H9489 H 0.17075 0.60731 0.39687 0.0
H9490 H 0.18232 0.6119 0.38885 0.0
C9491 C 0.18955 0.61651 0.40772 0.0
C9492 C 0.63639 0.93438 0.66379 0.0
C9493 C 0.63584 0.92635 0.6609 0.0
H9494 H 0.63449 0.94702 0.66124 0.0
C9495 C 0.632 0.92493 0.6534 0.0
H9496 H 0.63937 0.9357 0.66951 0.0
C9497 C 0.62927 0.93141 0.64865 0.0
C9498 C 0.63026 0.93946 0.65132 0.0
H9499 H 0.63131 0.9188 0.65108 0.0
H9500 H 0.62659 0.93014 0.64277 0.0
C9501 C 0.6336 0.94087 0.65905 0.0
C9502 C 0.3136 0.39519 0.91231 0.0
C9503 C 0.32133 0.3916 0.91164 0.0
H9504 H 0.30127 0.39538 0.9082 0.0
C9505 C 0.32232 0.3849 0.90642 0.0
H9506 H 0.31261 0.40027 0.91639 0.0
C9507 C 0.31582 0.3821 0.9017 0.0
C9508 C 0.30819 0.38595 0.90211 0.0
H9509 H 0.32821 0.38205 0.90572 0.0
H9510 H 0.31686 0.37716 0.89749 0.0
C9511 C 0.30712 0.3924 0.90761 0.0
C9512 C 0.36417 0.56722 0.66375 0.0
C9513 C 0.36499 0.5752 0.66078 0.0
H9514 H 0.36582 0.5545 0.66141 0.0
C9515 C 0.36903 0.57642 0.65335 0.0
H9516 H 0.36102 0.56605 0.66942 0.0
C9517 C 0.37171 0.56981 0.64874 0.0
C9518 C 0.37047 0.56182 0.6515 0.0
H9519 H 0.36994 0.58249 0.65097 0.0
H9520 H 0.37456 0.57094 0.64292 0.0
C9521 C 0.3669 0.5606 0.65916 0.0
C9522 C 0.82364 0.10824 0.10127 0.0
C9523 C 0.82395 0.1094 0.0928 0.0
H9524 H 0.8169 0.10989 0.11226 0.0
C9525 C 0.81768 0.11383 0.08902 0.0
H9526 H 0.82846 0.10505 0.10441 0.0
C9527 C 0.81106 0.11669 0.09357 0.0
C9528 C 0.81059 0.11512 0.10195 0.0
H9529 H 0.81772 0.1148 0.08251 0.0
H9530 H 0.80616 0.11981 0.09047 0.0
C9531 C 0.81703 0.11103 0.10577 0.0
C9532 C 0.64079 0.07372 0.84959 0.0
C9533 C 0.64086 0.07326 0.84105 0.0
H9534 H 0.63804 0.06773 0.8608 0.0
C9535 C 0.63741 0.06641 0.83726 0.0
H9536 H 0.6432 0.079 0.8527 0.0
C9537 C 0.63437 0.05997 0.84193 0.0
C9538 C 0.63477 0.06027 0.85046 0.0
H9539 H 0.63741 0.06586 0.8307 0.0
H9540 H 0.63205 0.05462 0.83888 0.0
C9541 C 0.63782 0.06729 0.85423 0.0
C9542 C 0.86907 0.92848 0.34225 0.0
C9543 C 0.86136 0.92858 0.33858 0.0
H9544 H 0.87774 0.93485 0.34957 0.0
C9545 C 0.85647 0.93552 0.33943 0.0
H9546 H 0.873 0.92323 0.34162 0.0
C9547 C 0.85912 0.94213 0.34406 0.0
C9548 C 0.86676 0.94198 0.34791 0.0
H9549 H 0.85044 0.93573 0.33678 0.0
H9550 H 0.85502 0.94722 0.34487 0.0
C9551 C 0.87176 0.93512 0.34683 0.0
C9552 C 0.41471 0.32032 0.12238 0.0
C9553 C 0.4131 0.31981 0.114 0.0
H9554 H 0.41191 0.31593 0.13431 0.0
C9555 C 0.40751 0.31396 0.11123 0.0
H9556 H 0.41893 0.3248 0.12473 0.0
C9557 C 0.40343 0.30894 0.11673 0.0
C9558 C 0.40482 0.30964 0.12513 0.0
H9559 H 0.40621 0.31334 0.10481 0.0
H9560 H 0.39896 0.30469 0.11441 0.0
C9561 C 0.41062 0.3153 0.12788 0.0
C9562 C 0.43724 0.66428 0.86489 0.0
C9563 C 0.42971 0.661 0.86252 0.0
H9564 H 0.44788 0.66289 0.87231 0.0
C9565 C 0.42712 0.65366 0.86603 0.0
H9566 H 0.43942 0.66991 0.86226 0.0
C9567 C 0.43194 0.64965 0.87174 0.0
C9568 C 0.4395 0.65289 0.87408 0.0
H9569 H 0.4213 0.65102 0.86441 0.0
H9570 H 0.4298 0.64396 0.87424 0.0
C9571 C 0.44211 0.66023 0.87058 0.0
C9572 C 0.08721 0.67909 0.62263 0.0
C9573 C 0.08827 0.68002 0.6142 0.0
H9574 H 0.09053 0.68317 0.63454 0.0
C9575 C 0.09337 0.68625 0.61134 0.0
H9576 H 0.08338 0.67431 0.62503 0.0
C9577 C 0.09751 0.69129 0.61679 0.0
C9578 C 0.09667 0.69019 0.62522 0.0
H9579 H 0.09424 0.68718 0.60488 0.0
H9580 H 0.10159 0.69586 0.61438 0.0
C9581 C 0.09138 0.68411 0.62808 0.0
C9582 C 0.07138 0.3368 0.37354 0.0
C9583 C 0.0706 0.33783 0.36509 0.0
H9584 H 0.0671 0.34016 0.38537 0.0
C9585 C 0.0644 0.3429 0.36212 0.0
H9586 H 0.07613 0.33299 0.37604 0.0
C9587 C 0.05927 0.34706 0.36746 0.0
C9588 C 0.06023 0.34626 0.37592 0.0
H9589 H 0.06357 0.34375 0.35564 0.0
H9590 H 0.05474 0.35113 0.36496 0.0
C9591 C 0.06626 0.34098 0.37889 0.0
C9592 C 0.4139 0.67931 0.37867 0.0
C9593 C 0.41298 0.68039 0.3871 0.0
H9594 H 0.41041 0.68319 0.36674 0.0
C9595 C 0.408 0.68674 0.38992 0.0
H9596 H 0.41764 0.67445 0.37629 0.0
C9597 C 0.4038 0.6917 0.38445 0.0
C9598 C 0.40448 0.69043 0.37603 0.0
H9599 H 0.40724 0.68779 0.39638 0.0
H9600 H 0.39979 0.69635 0.38685 0.0
C9601 C 0.40968 0.68427 0.3732 0.0
C9602 C 0.06956 0.66464 0.13107 0.0
C9603 C 0.06848 0.66342 0.13946 0.0
H9604 H 0.06592 0.66135 0.11901 0.0
C9605 C 0.06238 0.65802 0.14208 0.0
H9606 H 0.07424 0.66869 0.12883 0.0
C9607 C 0.05768 0.65373 0.13645 0.0
C9608 C 0.05896 0.65474 0.12805 0.0
H9609 H 0.06132 0.65702 0.1485 0.0
H9610 H 0.05324 0.64942 0.13868 0.0
C9611 C 0.06486 0.66035 0.12543 0.0
C9612 C 0.09226 0.31203 0.89109 0.0
C9613 C 0.08678 0.31806 0.88848 0.0
H9614 H 0.10091 0.30295 0.88768 0.0
C9615 C 0.08549 0.31908 0.88009 0.0
H9616 H 0.09332 0.31102 0.89751 0.0
C9617 C 0.08978 0.31439 0.87445 0.0
C9618 C 0.09546 0.30856 0.87706 0.0
H9619 H 0.08137 0.32371 0.87786 0.0
H9620 H 0.08872 0.3154 0.86803 0.0
C9621 C 0.09654 0.30734 0.88545 0.0
C9622 C 0.43686 0.34475 0.64077 0.0
C9623 C 0.4314 0.33877 0.63801 0.0
H9624 H 0.4457 0.35373 0.63761 0.0
C9625 C 0.43116 0.33696 0.62966 0.0
H9626 H 0.43728 0.34622 0.64717 0.0
C9627 C 0.43609 0.3412 0.62417 0.0
C9628 C 0.44137 0.34734 0.62691 0.0
H9629 H 0.42699 0.33244 0.62732 0.0
H9630 H 0.4357 0.3397 0.61777 0.0
C9631 C 0.44177 0.34899 0.63528 0.0
C9632 C 0.12015 0.41451 0.31988 0.0
C9633 C 0.11176 0.41323 0.31885 0.0
H9634 H 0.13221 0.41127 0.31622 0.0
C9635 C 0.10915 0.40776 0.31283 0.0
H9636 H 0.12238 0.41863 0.32451 0.0
C9637 C 0.11479 0.40345 0.30815 0.0
C9638 C 0.12318 0.40453 0.30937 0.0
H9639 H 0.10273 0.4067 0.31181 0.0
H9640 H 0.11256 0.39908 0.30376 0.0
C9641 C 0.12579 0.41022 0.3152 0.0
C9642 C 0.33648 0.3715 0.06973 0.0
C9643 C 0.33785 0.36309 0.06905 0.0
H9644 H 0.33958 0.38342 0.06555 0.0
C9645 C 0.34327 0.36028 0.06307 0.0
H9646 H 0.33239 0.37388 0.07431 0.0
C9647 C 0.34747 0.36576 0.05811 0.0
C9648 C 0.34634 0.37418 0.05901 0.0
H9649 H 0.34439 0.35383 0.06231 0.0
H9650 H 0.35183 0.36339 0.05378 0.0
C9651 C 0.34068 0.37698 0.06477 0.0
C9652 C 0.38231 0.59771 0.82515 0.0
C9653 C 0.38588 0.59035 0.8227 0.0
H9654 H 0.37431 0.60749 0.82215 0.0
C9655 C 0.38373 0.58706 0.8151 0.0
H9656 H 0.38374 0.60036 0.83101 0.0
C9657 C 0.37824 0.59113 0.81003 0.0
C9658 C 0.37473 0.59853 0.81248 0.0
H9659 H 0.38641 0.58141 0.81302 0.0
H9660 H 0.37671 0.58847 0.8042 0.0
C9661 C 0.37681 0.60175 0.82011 0.0
C9662 C 0.15759 0.64168 0.56281 0.0
C9663 C 0.16311 0.63903 0.56879 0.0
H9664 H 0.14898 0.63831 0.55367 0.0
C9665 C 0.16449 0.63064 0.56969 0.0
H9666 H 0.15646 0.6481 0.5619 0.0
C9667 C 0.16027 0.62503 0.5649 0.0
C9668 C 0.15456 0.62767 0.55911 0.0
H9669 H 0.16864 0.62839 0.57427 0.0
H9670 H 0.1614 0.61861 0.56582 0.0
C9671 C 0.15337 0.63606 0.55803 0.0
C9672 C 0.1215 0.59626 0.17464 0.0
C9673 C 0.11764 0.58904 0.17708 0.0
H9674 H 0.12967 0.60584 0.17778 0.0
C9675 C 0.11951 0.58574 0.18474 0.0
H9676 H 0.12028 0.5989 0.16873 0.0
C9677 C 0.12499 0.5897 0.18992 0.0
C9678 C 0.12875 0.59699 0.18752 0.0
H9679 H 0.11661 0.58021 0.18681 0.0
H9680 H 0.12627 0.58706 0.19582 0.0
C9681 C 0.12698 0.60018 0.17979 0.0
C9682 C 0.15827 0.36206 0.93674 0.0
C9683 C 0.16325 0.36479 0.93036 0.0
H9684 H 0.15007 0.36527 0.94632 0.0
C9685 C 0.16419 0.37321 0.92918 0.0
H9686 H 0.15749 0.35562 0.93787 0.0
C9687 C 0.15999 0.37875 0.93407 0.0
C9688 C 0.15478 0.376 0.94027 0.0
H9689 H 0.16793 0.37551 0.92428 0.0
H9690 H 0.16073 0.38519 0.93292 0.0
C9691 C 0.15409 0.3676 0.94164 0.0
C9692 C 0.37934 0.40344 0.67576 0.0
C9693 C 0.38308 0.41067 0.67834 0.0
H9694 H 0.37131 0.39367 0.67869 0.0
C9695 C 0.3811 0.41382 0.68604 0.0
H9696 H 0.38065 0.40091 0.66982 0.0
C9697 C 0.37566 0.40969 0.69112 0.0
C9698 C 0.37204 0.40237 0.68858 0.0
H9699 H 0.38391 0.41936 0.68822 0.0
H9700 H 0.37431 0.41221 0.69705 0.0
C9701 C 0.3739 0.39934 0.68081 0.0
C9702 C 0.33587 0.63048 0.43167 0.0
C9703 C 0.33732 0.63886 0.43253 0.0
H9704 H 0.33887 0.61845 0.43561 0.0
C9705 C 0.34283 0.6415 0.43851 0.0
H9706 H 0.33172 0.62823 0.42709 0.0
C9707 C 0.347 0.63588 0.44333 0.0
C9708 C 0.34576 0.62749 0.44229 0.0
H9709 H 0.34401 0.64792 0.43939 0.0
H9710 H 0.3514 0.63812 0.44769 0.0
C9711 C 0.34005 0.62486 0.4365 0.0
C9712 C 0.32537 0.11941 0.40283 0.0
C9713 C 0.32304 0.1159 0.41026 0.0
H9714 H 0.32216 0.12726 0.393 0.0
C9715 C 0.31545 0.11799 0.41361 0.0
H9716 H 0.33121 0.11802 0.40013 0.0
C9717 C 0.31027 0.12338 0.40954 0.0
C9718 C 0.31259 0.12684 0.40207 0.0
H9719 H 0.31347 0.11535 0.4193 0.0
H9720 H 0.30445 0.12487 0.41225 0.0
C9721 C 0.32022 0.1248 0.39879 0.0
C9722 C 0.82136 0.37748 0.58754 0.0
C9723 C 0.82035 0.38593 0.5883 0.0
H9724 H 0.81734 0.36565 0.5912 0.0
C9725 C 0.81397 0.3889 0.59315 0.0
H9726 H 0.82625 0.37499 0.5839 0.0
C9727 C 0.80891 0.38355 0.59739 0.0
C9728 C 0.81011 0.3751 0.59688 0.0
H9729 H 0.81296 0.39537 0.59378 0.0
H9730 H 0.80424 0.38605 0.6013 0.0
C9731 C 0.81631 0.37212 0.5918 0.0
C9732 C 0.36708 0.07436 0.34743 0.0
C9733 C 0.36338 0.07165 0.34023 0.0
H9734 H 0.37534 0.07174 0.3571 0.0
C9735 C 0.36549 0.06396 0.33714 0.0
H9736 H 0.36565 0.08029 0.34992 0.0
C9737 C 0.37111 0.05906 0.34125 0.0
C9738 C 0.37478 0.06178 0.34848 0.0
H9739 H 0.36271 0.06169 0.33162 0.0
H9740 H 0.37263 0.05316 0.33874 0.0
C9741 C 0.37271 0.0695 0.3515 0.0
C9742 C 0.6885 0.61027 0.09292 0.0
C9743 C 0.68221 0.61306 0.08785 0.0
H9744 H 0.69791 0.61337 0.10134 0.0
C9745 C 0.68101 0.62149 0.08705 0.0
H9746 H 0.68965 0.60382 0.0936 0.0
C9747 C 0.6858 0.62697 0.09142 0.0
C9748 C 0.69192 0.62417 0.09669 0.0
H9749 H 0.67617 0.62385 0.08325 0.0
H9750 H 0.68465 0.63342 0.09075 0.0
C9751 C 0.6933 0.61575 0.09729 0.0
C9752 C 0.62998 0.42587 0.34574 0.0
C9753 C 0.63376 0.42836 0.3385 0.0
H9754 H 0.62181 0.42888 0.35538 0.0
C9755 C 0.63174 0.43598 0.3352 0.0
H9756 H 0.63131 0.41998 0.34838 0.0
C9757 C 0.62621 0.44108 0.33919 0.0
C9758 C 0.62253 0.43862 0.34651 0.0
H9759 H 0.63458 0.43808 0.32965 0.0
H9760 H 0.62482 0.44696 0.33656 0.0
C9761 C 0.62445 0.43093 0.3497 0.0
C9762 C 0.18841 0.891 0.90712 0.0
C9763 C 0.18244 0.8883 0.91261 0.0
H9764 H 0.19747 0.88772 0.89838 0.0
C9765 C 0.18149 0.8799 0.91386 0.0
H9766 H 0.18936 0.89743 0.90609 0.0
C9767 C 0.1862 0.87433 0.9095 0.0
C9768 C 0.19198 0.87702 0.90381 0.0
H9769 H 0.17691 0.87761 0.91799 0.0
H9770 H 0.18525 0.86789 0.91053 0.0
C9771 C 0.19312 0.88543 0.90277 0.0
C9772 C 0.36696 0.93693 0.16417 0.0
C9773 C 0.36422 0.92952 0.16092 0.0
H9774 H 0.37452 0.94743 0.16249 0.0
C9775 C 0.36725 0.92695 0.15336 0.0
H9776 H 0.36471 0.93909 0.16997 0.0
C9777 C 0.37282 0.93171 0.14909 0.0
C9778 C 0.37551 0.93917 0.15227 0.0
H9779 H 0.36533 0.92122 0.15074 0.0
H9780 H 0.37492 0.9296 0.14322 0.0
C9781 C 0.37253 0.94174 0.15986 0.0
C9782 C 0.133 0.07468 0.65338 0.0
C9783 C 0.13642 0.07214 0.66079 0.0
H9784 H 0.12494 0.0719 0.64358 0.0
C9785 C 0.13396 0.06467 0.66413 0.0
H9786 H 0.13469 0.08045 0.65069 0.0
C9787 C 0.12829 0.05978 0.66007 0.0
C9788 C 0.12493 0.0623 0.65262 0.0
H9789 H 0.13652 0.06254 0.66981 0.0
H9790 H 0.12653 0.05404 0.66276 0.0
C9791 C 0.12733 0.06982 0.64935 0.0
loop_
_geom_bond_atom_site_label_1
_geom_bond_atom_site_label_2
_geom_bond_distance
_geom_bond_site_symmetry_2
_ccdc_geom_bond_type
C0 C1 1.264 . S
C0 C5 1.479 . S
C0 C10 1.465 . S
C1 C0 1.264 . S
C1 C3 1.339 . S
C1 H28 0.931 . S
C2 C3 1.395 . S
C2 C4 1.320 . S
C3 C1 1.339 . S
C3 C2 1.395 . S
C3 H29 0.929 . S
C4 C2 1.320 . S
C4 C5 1.405 . S
C4 H30 0.930 . S
C5 C0 1.479 . S
C5 C4 1.405 . S
C5 H31 0.931 . S
U6 O7 2.454 . S
U6 O8 2.458 . S
U6 C9 2.984 . S
U6 C10 2.847 . S
U6 C23 2.882 . S
U6 O24 2.441 . S
U6 O25 2.420 . S
U6 O26 2.455 . S
U6 O27 2.449 . S
O7 U6 2.454 . S
O7 C9 1.353 . S
O8 U6 2.458 . S
O8 C9 1.286 . S
C9 U6 2.984 . S
C9 O7 1.353 . S
C9 O8 1.286 . S
C9 C11 1.363 . S
C10 C0 1.465 . S
C10 U6 2.847 . S
C10 O24 1.249 . S
C10 O25 1.202 . S
C11 C9 1.363 . S
C11 C13 1.408 . S
C11 C16 1.342 . S
C12 C13 1.310 . S
C12 C15 1.461 . S
C12 H32 0.932 . S
C13 C11 1.408 . S
C13 C12 1.310 . S
C13 H33 0.930 . S
C14 C15 1.474 . S
C14 C16 1.285 . S
C14 H34 0.929 . S
C15 C12 1.461 . S
C15 C14 1.474 . S
C16 C11 1.342 . S
C16 C14 1.285 . S
C16 H35 0.930 . S
C17 C20 1.424 . S
C17 C22 1.245 . S
C17 C23 1.428 . S
C18 C21 1.260 . S
C18 C22 1.477 . S
C18 H36 0.932 . S
C19 C20 1.384 . S
C19 C21 1.479 . S
C19 H37 0.929 . S
C20 C17 1.424 . S
C20 C19 1.384 . S
C20 H38 0.928 . S
C21 C18 1.260 . S
C21 C19 1.479 . S
C22 C17 1.245 . S
C22 C18 1.477 . S
C22 H39 0.932 . S
C23 U6 2.882 . S
C23 C17 1.428 . S
C23 O26 1.301 . S
C23 O27 1.282 . S
O24 U6 2.441 . S
O24 C10 1.249 . S
O25 U6 2.420 . S
O25 C10 1.202 . S
O26 U6 2.455 . S
O26 C23 1.301 . S
O27 U6 2.449 . S
O27 C23 1.282 . S
H28 C1 0.931 . S
H29 C3 0.929 . S
H30 C4 0.930 . S
H31 C5 0.931 . S
H32 C12 0.932 . S
H33 C13 0.930 . S
H34 C14 0.929 . S
H35 C16 0.930 . S
H36 C18 0.932 . S
H37 C19 0.929 . S
H38 C20 0.928 . S
H39 C22 0.932 . S
C40 C41 1.264 . S
C40 C45 1.479 . S
C40 C50 1.465 . S
C41 C40 1.264 . S
C41 C43 1.339 . S
C41 H68 0.931 . S
C42 C43 1.395 . S
C42 C44 1.320 . S
C43 C41 1.339 . S
C43 C42 1.395 . S
C43 H69 0.929 . S
C44 C42 1.320 . S
C44 C45 1.405 . S
C44 H70 0.930 . S
C45 C40 1.479 . S
C45 C44 1.405 . S
C45 H71 0.931 . S
U46 O47 2.454 . S
U46 O48 2.458 . S
U46 C49 2.984 . S
U46 C50 2.847 . S
U46 C63 2.882 . S
U46 O64 2.441 . S
U46 O65 2.420 . S
U46 O66 2.455 . S
U46 O67 2.449 . S
O47 U46 2.454 . S
O47 C49 1.353 . S
O48 U46 2.458 . S
O48 C49 1.286 . S
C49 U46 2.984 . S
C49 O47 1.353 . S
C49 O48 1.286 . S
C49 C51 1.363 . S
C50 C40 1.465 . S
C50 U46 2.847 . S
C50 O64 1.249 . S
C50 O65 1.202 . S
C51 C49 1.363 . S
C51 C53 1.408 . S
C51 C56 1.342 . S
C52 C53 1.310 . S
C52 C55 1.461 . S
C52 H72 0.932 . S
C53 C51 1.408 . S
C53 C52 1.310 . S
C53 H73 0.930 . S
C54 C55 1.474 . S
C54 C56 1.285 . S
C54 H74 0.929 . S
C55 C52 1.461 . S
C55 C54 1.474 . S
C56 C51 1.342 . S
C56 C54 1.285 . S
C56 H75 0.930 . S
C57 C60 1.424 . S
C57 C62 1.245 . S
C57 C63 1.428 . S
C58 C61 1.260 . S
C58 C62 1.477 . S
C58 H76 0.932 . S
C59 C60 1.384 . S
C59 C61 1.479 . S
C59 H77 0.929 . S
C60 C57 1.424 . S
C60 C59 1.384 . S
C60 H78 0.928 . S
C61 C58 1.260 . S
C61 C59 1.479 . S
C62 C57 1.245 . S
C62 C58 1.477 . S
C62 H79 0.932 . S
C63 U46 2.882 . S
C63 C57 1.428 . S
C63 O66 1.301 . S
C63 O67 1.282 . S
O64 U46 2.441 . S
O64 C50 1.249 . S
O65 U46 2.420 . S
O65 C50 1.202 . S
O66 U46 2.455 . S
O66 C63 1.301 . S
O67 U46 2.449 . S
O67 C63 1.282 . S
H68 C41 0.931 . S
H69 C43 0.929 . S
H70 C44 0.930 . S
H71 C45 0.931 . S
H72 C52 0.932 . S
H73 C53 0.930 . S
H74 C54 0.929 . S
H75 C56 0.930 . S
H76 C58 0.932 . S
H77 C59 0.929 . S
H78 C60 0.928 . S
H79 C62 0.932 . S
C80 C81 1.264 . S
C80 C85 1.479 . S
C80 C90 1.465 . S
C81 C80 1.264 . S
C81 C83 1.339 . S
C81 H108 0.931 . S
C82 C83 1.395 . S
C82 C84 1.320 . S
C83 C81 1.339 . S
C83 C82 1.395 . S
C83 H109 0.929 . S
C84 C82 1.320 . S
C84 C85 1.405 . S
C84 H110 0.930 . S
C85 C80 1.479 . S
C85 C84 1.405 . S
C85 H111 0.931 . S
U86 O87 2.454 . S
U86 O88 2.458 . S
U86 C89 2.984 . S
U86 C90 2.847 . S
U86 C103 2.882 . S
U86 O104 2.441 . S
U86 O105 2.420 . S
U86 O106 2.455 . S
U86 O107 2.449 . S
O87 U86 2.454 . S
O87 C89 1.353 . S
O88 U86 2.458 . S
O88 C89 1.286 . S
C89 U86 2.984 . S
C89 O87 1.353 . S
C89 O88 1.286 . S
C89 C91 1.363 . S
C90 C80 1.465 . S
C90 U86 2.847 . S
C90 O104 1.249 . S
C90 O105 1.202 . S
C91 C89 1.363 . S
C91 C93 1.408 . S
C91 C96 1.342 . S
C92 C93 1.310 . S
C92 C95 1.461 . S
C92 H112 0.932 . S
C93 C91 1.408 . S
C93 C92 1.310 . S
C93 H113 0.930 . S
C94 C95 1.474 . S
C94 C96 1.285 . S
C94 H114 0.929 . S
C95 C92 1.461 . S
C95 C94 1.474 . S
C96 C91 1.342 . S
C96 C94 1.285 . S
C96 H115 0.930 . S
C97 C100 1.424 . S
C97 C102 1.245 . S
C97 C103 1.428 . S
C98 C101 1.260 . S
C98 C102 1.477 . S
C98 H116 0.932 . S
C99 C100 1.384 . S
C99 C101 1.479 . S
C99 H117 0.929 . S
C100 C97 1.424 . S
C100 C99 1.384 . S
C100 H118 0.928 . S
C101 C98 1.260 . S
C101 C99 1.479 . S
C102 C97 1.245 . S
C102 C98 1.477 . S
C102 H119 0.932 . S
C103 U86 2.882 . S
C103 C97 1.428 . S
C103 O106 1.301 . S
C103 O107 1.282 . S
O104 U86 2.441 . S
O104 C90 1.249 . S
O105 U86 2.420 . S
O105 C90 1.202 . S
O106 U86 2.455 . S
O106 C103 1.301 . S
O107 U86 2.449 . S
O107 C103 1.282 . S
H108 C81 0.931 . S
H109 C83 0.929 . S
H110 C84 0.930 . S
H111 C85 0.931 . S
H112 C92 0.932 . S
H113 C93 0.930 . S
H114 C94 0.929 . S
H115 C96 0.930 . S
H116 C98 0.932 . S
H117 C99 0.929 . S
H118 C100 0.928 . S
H119 C102 0.932 . S
C120 C121 1.264 . S
C120 C125 1.479 . S
C120 C130 1.465 . S
C121 C120 1.264 . S
C121 C123 1.339 . S
C121 H148 0.931 . S
C122 C123 1.395 . S
C122 C124 1.320 . S
C123 C121 1.339 . S
C123 C122 1.395 . S
C123 H149 0.929 . S
C124 C122 1.320 . S
C124 C125 1.405 . S
C124 H150 0.930 . S
C125 C120 1.479 . S
C125 C124 1.405 . S
C125 H151 0.931 . S
U126 O127 2.454 . S
U126 O128 2.458 . S
U126 C129 2.984 . S
U126 C130 2.847 . S
U126 C143 2.882 . S
U126 O144 2.441 . S
U126 O145 2.420 . S
U126 O146 2.455 . S
U126 O147 2.449 . S
O127 U126 2.454 . S
O127 C129 1.353 . S
O128 U126 2.458 . S
O128 C129 1.286 . S
C129 U126 2.984 . S
C129 O127 1.353 . S
C129 O128 1.286 . S
C129 C131 1.363 . S
C130 C120 1.465 . S
C130 U126 2.847 . S
C130 O144 1.249 . S
C130 O145 1.202 . S
C131 C129 1.363 . S
C131 C133 1.408 . S
C131 C136 1.342 . S
C132 C133 1.310 . S
C132 C135 1.461 . S
C132 H152 0.932 . S
C133 C131 1.408 . S
C133 C132 1.310 . S
C133 H153 0.930 . S
C134 C135 1.474 . S
C134 C136 1.285 . S
C134 H154 0.929 . S
C135 C132 1.461 . S
C135 C134 1.474 . S
C136 C131 1.342 . S
C136 C134 1.285 . S
C136 H155 0.930 . S
C137 C140 1.424 . S
C137 C142 1.245 . S
C137 C143 1.428 . S
C138 C141 1.260 . S
C138 C142 1.477 . S
C138 H156 0.932 . S
C139 C140 1.384 . S
C139 C141 1.479 . S
C139 H157 0.929 . S
C140 C137 1.424 . S
C140 C139 1.384 . S
C140 H158 0.928 . S
C141 C138 1.260 . S
C141 C139 1.479 . S
C142 C137 1.245 . S
C142 C138 1.477 . S
C142 H159 0.932 . S
C143 U126 2.882 . S
C143 C137 1.428 . S
C143 O146 1.301 . S
C143 O147 1.282 . S
O144 U126 2.441 . S
O144 C130 1.249 . S
O145 U126 2.420 . S
O145 C130 1.202 . S
O146 U126 2.455 . S
O146 C143 1.301 . S
O147 U126 2.449 . S
O147 C143 1.282 . S
H148 C121 0.931 . S
H149 C123 0.929 . S
H150 C124 0.930 . S
H151 C125 0.931 . S
H152 C132 0.932 . S
H153 C133 0.930 . S
H154 C134 0.929 . S
H155 C136 0.930 . S
H156 C138 0.932 . S
H157 C139 0.929 . S
H158 C140 0.928 . S
H159 C142 0.932 . S
C160 C161 1.264 . S
C160 C165 1.479 . S
C160 C170 1.465 . S
C161 C160 1.264 . S
C161 C163 1.339 . S
C161 H188 0.931 . S
C162 C163 1.395 . S
C162 C164 1.320 . S
C163 C161 1.339 . S
C163 C162 1.395 . S
C163 H189 0.929 . S
C164 C162 1.320 . S
C164 C165 1.405 . S
C164 H190 0.930 . S
C165 C160 1.479 . S
C165 C164 1.405 . S
C165 H191 0.931 . S
U166 O167 2.454 . S
U166 O168 2.458 . S
U166 C169 2.984 . S
U166 C170 2.847 . S
U166 C183 2.882 . S
U166 O184 2.441 . S
U166 O185 2.420 . S
U166 O186 2.455 . S
U166 O187 2.449 . S
O167 U166 2.454 . S
O167 C169 1.353 . S
O168 U166 2.458 . S
O168 C169 1.286 . S
C169 U166 2.984 . S
C169 O167 1.353 . S
C169 O168 1.286 . S
C169 C171 1.363 . S
C170 C160 1.465 . S
C170 U166 2.847 . S
C170 O184 1.249 . S
C170 O185 1.202 . S
C171 C169 1.363 . S
C171 C173 1.408 . S
C171 C176 1.342 . S
C172 C173 1.310 . S
C172 C175 1.461 . S
C172 H192 0.932 . S
C173 C171 1.408 . S
C173 C172 1.310 . S
C173 H193 0.930 . S
C174 C175 1.474 . S
C174 C176 1.285 . S
C174 H194 0.929 . S
C175 C172 1.461 . S
C175 C174 1.474 . S
C176 C171 1.342 . S
C176 C174 1.285 . S
C176 H195 0.930 . S
C177 C180 1.424 . S
C177 C182 1.245 . S
C177 C183 1.428 . S
C178 C181 1.260 . S
C178 C182 1.477 . S
C178 H196 0.932 . S
C179 C180 1.384 . S
C179 C181 1.479 . S
C179 H197 0.929 . S
C180 C177 1.424 . S
C180 C179 1.384 . S
C180 H198 0.928 . S
C181 C178 1.260 . S
C181 C179 1.479 . S
C182 C177 1.245 . S
C182 C178 1.477 . S
C182 H199 0.932 . S
C183 U166 2.882 . S
C183 C177 1.428 . S
C183 O186 1.301 . S
C183 O187 1.282 . S
O184 U166 2.441 . S
O184 C170 1.249 . S
O185 U166 2.420 . S
O185 C170 1.202 . S
O186 U166 2.455 . S
O186 C183 1.301 . S
O187 U166 2.449 . S
O187 C183 1.282 . S
H188 C161 0.931 . S
H189 C163 0.929 . S
H190 C164 0.930 . S
H191 C165 0.931 . S
H192 C172 0.932 . S
H193 C173 0.930 . S
H194 C174 0.929 . S
H195 C176 0.930 . S
H196 C178 0.932 . S
H197 C179 0.929 . S
H198 C180 0.928 . S
H199 C182 0.932 . S
C200 C201 1.264 . S
C200 C205 1.479 . S
C200 C210 1.465 . S
C201 C200 1.264 . S
C201 C203 1.339 . S
C201 H228 0.931 . S
C202 C203 1.395 . S
C202 C204 1.320 . S
C203 C201 1.339 . S
C203 C202 1.395 . S
C203 H229 0.929 . S
C204 C202 1.320 . S
C204 C205 1.405 . S
C204 H230 0.930 . S
C205 C200 1.479 . S
C205 C204 1.405 . S
C205 H231 0.931 . S
U206 O207 2.454 . S
U206 O208 2.458 . S
U206 C209 2.984 . S
U206 C210 2.847 . S
U206 C223 2.882 . S
U206 O224 2.441 . S
U206 O225 2.420 . S
U206 O226 2.455 . S
U206 O227 2.449 . S
O207 U206 2.454 . S
O207 C209 1.353 . S
O208 U206 2.458 . S
O208 C209 1.286 . S
C209 U206 2.984 . S
C209 O207 1.353 . S
C209 O208 1.286 . S
C209 C211 1.363 . S
C210 C200 1.465 . S
C210 U206 2.847 . S
C210 O224 1.249 . S
C210 O225 1.202 . S
C211 C209 1.363 . S
C211 C213 1.408 . S
C211 C216 1.342 . S
C212 C213 1.310 . S
C212 C215 1.461 . S
C212 H232 0.932 . S
C213 C211 1.408 . S
C213 C212 1.310 . S
C213 H233 0.930 . S
C214 C215 1.474 . S
C214 C216 1.285 . S
C214 H234 0.929 . S
C215 C212 1.461 . S
C215 C214 1.474 . S
C216 C211 1.342 . S
C216 C214 1.285 . S
C216 H235 0.930 . S
C217 C220 1.424 . S
C217 C222 1.245 . S
C217 C223 1.428 . S
C218 C221 1.260 . S
C218 C222 1.477 . S
C218 H236 0.932 . S
C219 C220 1.384 . S
C219 C221 1.479 . S
C219 H237 0.929 . S
C220 C217 1.424 . S
C220 C219 1.384 . S
C220 H238 0.928 . S
C221 C218 1.260 . S
C221 C219 1.479 . S
C222 C217 1.245 . S
C222 C218 1.477 . S
C222 H239 0.932 . S
C223 U206 2.882 . S
C223 C217 1.428 . S
C223 O226 1.301 . S
C223 O227 1.282 . S
O224 U206 2.441 . S
O224 C210 1.249 . S
O225 U206 2.420 . S
O225 C210 1.202 . S
O226 U206 2.455 . S
O226 C223 1.301 . S
O227 U206 2.449 . S
O227 C223 1.282 . S
H228 C201 0.931 . S
H229 C203 0.929 . S
H230 C204 0.930 . S
H231 C205 0.931 . S
H232 C212 0.932 . S
H233 C213 0.930 . S
H234 C214 0.929 . S
H235 C216 0.930 . S
H236 C218 0.932 . S
H237 C219 0.929 . S
H238 C220 0.928 . S
H239 C222 0.932 . S
C240 C241 1.264 . S
C240 C245 1.479 . S
C240 C250 1.465 . S
C241 C240 1.264 . S
C241 C243 1.339 . S
C241 H268 0.931 . S
C242 C243 1.395 . S
C242 C244 1.320 . S
C243 C241 1.339 . S
C243 C242 1.395 . S
C243 H269 0.929 . S
C244 C242 1.320 . S
C244 C245 1.405 . S
C244 H270 0.930 . S
C245 C240 1.479 . S
C245 C244 1.405 . S
C245 H271 0.931 . S
U246 O247 2.454 . S
U246 O248 2.458 . S
U246 C249 2.984 . S
U246 C250 2.847 . S
U246 C263 2.882 . S
U246 O264 2.441 . S
U246 O265 2.420 . S
U246 O266 2.455 . S
U246 O267 2.449 . S
O247 U246 2.454 . S
O247 C249 1.353 . S
O248 U246 2.458 . S
O248 C249 1.286 . S
C249 U246 2.984 . S
C249 O247 1.353 . S
C249 O248 1.286 . S
C249 C251 1.363 . S
C250 C240 1.465 . S
C250 U246 2.847 . S
C250 O264 1.249 . S
C250 O265 1.202 . S
C251 C249 1.363 . S
C251 C253 1.408 . S
C251 C256 1.342 . S
C252 C253 1.310 . S
C252 C255 1.461 . S
C252 H272 0.932 . S
C253 C251 1.408 . S
C253 C252 1.310 . S
C253 H273 0.930 . S
C254 C255 1.474 . S
C254 C256 1.285 . S
C254 H274 0.929 . S
C255 C252 1.461 . S
C255 C254 1.474 . S
C256 C251 1.342 . S
C256 C254 1.285 . S
C256 H275 0.930 . S
C257 C260 1.424 . S
C257 C262 1.245 . S
C257 C263 1.428 . S
C258 C261 1.260 . S
C258 C262 1.477 . S
C258 H276 0.932 . S
C259 C260 1.384 . S
C259 C261 1.479 . S
C259 H277 0.929 . S
C260 C257 1.424 . S
C260 C259 1.384 . S
C260 H278 0.928 . S
C261 C258 1.260 . S
C261 C259 1.479 . S
C262 C257 1.245 . S
C262 C258 1.477 . S
C262 H279 0.932 . S
C263 U246 2.882 . S
C263 C257 1.428 . S
C263 O266 1.301 . S
C263 O267 1.282 . S
O264 U246 2.441 . S
O264 C250 1.249 . S
O265 U246 2.420 . S
O265 C250 1.202 . S
O266 U246 2.455 . S
O266 C263 1.301 . S
O267 U246 2.449 . S
O267 C263 1.282 . S
H268 C241 0.931 . S
H269 C243 0.929 . S
H270 C244 0.930 . S
H271 C245 0.931 . S
H272 C252 0.932 . S
H273 C253 0.930 . S
H274 C254 0.929 . S
H275 C256 0.930 . S
H276 C258 0.932 . S
H277 C259 0.929 . S
H278 C260 0.928 . S
H279 C262 0.932 . S
C280 C281 1.264 . S
C280 C285 1.479 . S
C280 C290 1.465 . S
C281 C280 1.264 . S
C281 C283 1.339 . S
C281 H308 0.931 . S
C282 C283 1.395 . S
C282 C284 1.320 . S
C283 C281 1.339 . S
C283 C282 1.395 . S
C283 H309 0.929 . S
C284 C282 1.320 . S
C284 C285 1.405 . S
C284 H310 0.930 . S
C285 C280 1.479 . S
C285 C284 1.405 . S
C285 H311 0.931 . S
U286 O287 2.454 . S
U286 O288 2.458 . S
U286 C289 2.984 . S
U286 C290 2.847 . S
U286 C303 2.882 . S
U286 O304 2.441 . S
U286 O305 2.420 . S
U286 O306 2.455 . S
U286 O307 2.449 . S
O287 U286 2.454 . S
O287 C289 1.353 . S
O288 U286 2.458 . S
O288 C289 1.286 . S
C289 U286 2.984 . S
C289 O287 1.353 . S
C289 O288 1.286 . S
C289 C291 1.363 . S
C290 C280 1.465 . S
C290 U286 2.847 . S
C290 O304 1.249 . S
C290 O305 1.202 . S
C291 C289 1.363 . S
C291 C293 1.408 . S
C291 C296 1.342 . S
C292 C293 1.310 . S
C292 C295 1.461 . S
C292 H312 0.932 . S
C293 C291 1.408 . S
C293 C292 1.310 . S
C293 H313 0.930 . S
C294 C295 1.474 . S
C294 C296 1.285 . S
C294 H314 0.929 . S
C295 C292 1.461 . S
C295 C294 1.474 . S
C296 C291 1.342 . S
C296 C294 1.285 . S
C296 H315 0.930 . S
C297 C300 1.424 . S
C297 C302 1.245 . S
C297 C303 1.428 . S
C298 C301 1.260 . S
C298 C302 1.477 . S
C298 H316 0.932 . S
C299 C300 1.384 . S
C299 C301 1.479 . S
C299 H317 0.929 . S
C300 C297 1.424 . S
C300 C299 1.384 . S
C300 H318 0.928 . S
C301 C298 1.260 . S
C301 C299 1.479 . S
C302 C297 1.245 . S
C302 C298 1.477 . S
C302 H319 0.932 . S
C303 U286 2.882 . S
C303 C297 1.428 . S
C303 O306 1.301 . S
C303 O307 1.282 . S
O304 U286 2.441 . S
O304 C290 1.249 . S
O305 U286 2.420 . S
O305 C290 1.202 . S
O306 U286 2.455 . S
O306 C303 1.301 . S
O307 U286 2.449 . S
O307 C303 1.282 . S
H308 C281 0.931 . S
H309 C283 0.929 . S
H310 C284 0.930 . S
H311 C285 0.931 . S
H312 C292 0.932 . S
H313 C293 0.930 . S
H314 C294 0.929 . S
H315 C296 0.930 . S
H316 C298 0.932 . S
H317 C299 0.929 . S
H318 C300 0.928 . S
H319 C302 0.932 . S
C320 C321 1.264 . S
C320 C325 1.479 . S
C320 C330 1.465 . S
C321 C320 1.264 . S
C321 C323 1.339 . S
C321 H348 0.931 . S
C322 C323 1.395 . S
C322 C324 1.320 . S
C323 C321 1.339 . S
C323 C322 1.395 . S
C323 H349 0.929 . S
C324 C322 1.320 . S
C324 C325 1.405 . S
C324 H350 0.930 . S
C325 C320 1.479 . S
C325 C324 1.405 . S
C325 H351 0.931 . S
U326 O327 2.454 . S
U326 O328 2.458 . S
U326 C329 2.984 . S
U326 C330 2.847 . S
U326 C343 2.882 . S
U326 O344 2.441 . S
U326 O345 2.420 . S
U326 O346 2.455 . S
U326 O347 2.449 . S
O327 U326 2.454 . S
O327 C329 1.353 . S
O328 U326 2.458 . S
O328 C329 1.286 . S
C329 U326 2.984 . S
C329 O327 1.353 . S
C329 O328 1.286 . S
C329 C331 1.363 . S
C330 C320 1.465 . S
C330 U326 2.847 . S
C330 O344 1.249 . S
C330 O345 1.202 . S
C331 C329 1.363 . S
C331 C333 1.408 . S
C331 C336 1.342 . S
C332 C333 1.310 . S
C332 C335 1.461 . S
C332 H352 0.932 . S
C333 C331 1.408 . S
C333 C332 1.310 . S
C333 H353 0.930 . S
C334 C335 1.474 . S
C334 C336 1.285 . S
C334 H354 0.929 . S
C335 C332 1.461 . S
C335 C334 1.474 . S
C336 C331 1.342 . S
C336 C334 1.285 . S
C336 H355 0.930 . S
C337 C340 1.424 . S
C337 C342 1.245 . S
C337 C343 1.428 . S
C338 C341 1.260 . S
C338 C342 1.477 . S
C338 H356 0.932 . S
C339 C340 1.384 . S
C339 C341 1.479 . S
C339 H357 0.929 . S
C340 C337 1.424 . S
C340 C339 1.384 . S
C340 H358 0.928 . S
C341 C338 1.260 . S
C341 C339 1.479 . S
C342 C337 1.245 . S
C342 C338 1.477 . S
C342 H359 0.932 . S
C343 U326 2.882 . S
C343 C337 1.428 . S
C343 O346 1.301 . S
C343 O347 1.282 . S
O344 U326 2.441 . S
O344 C330 1.249 . S
O345 U326 2.420 . S
O345 C330 1.202 . S
O346 U326 2.455 . S
O346 C343 1.301 . S
O347 U326 2.449 . S
O347 C343 1.282 . S
H348 C321 0.931 . S
H349 C323 0.929 . S
H350 C324 0.930 . S
H351 C325 0.931 . S
H352 C332 0.932 . S
H353 C333 0.930 . S
H354 C334 0.929 . S
H355 C336 0.930 . S
H356 C338 0.932 . S
H357 C339 0.929 . S
H358 C340 0.928 . S
H359 C342 0.932 . S
C360 C361 1.264 . S
C360 C365 1.479 . S
C360 C370 1.465 . S
C361 C360 1.264 . S
C361 C363 1.339 . S
C361 H388 0.931 . S
C362 C363 1.395 . S
C362 C364 1.320 . S
C363 C361 1.339 . S
C363 C362 1.395 . S
C363 H389 0.929 . S
C364 C362 1.320 . S
C364 C365 1.405 . S
C364 H390 0.930 . S
C365 C360 1.479 . S
C365 C364 1.405 . S
C365 H391 0.931 . S
U366 O367 2.454 . S
U366 O368 2.458 . S
U366 C369 2.984 . S
U366 C370 2.847 . S
U366 C383 2.882 . S
U366 O384 2.441 . S
U366 O385 2.420 . S
U366 O386 2.455 . S
U366 O387 2.449 . S
O367 U366 2.454 . S
O367 C369 1.353 . S
O368 U366 2.458 . S
O368 C369 1.286 . S
C369 U366 2.984 . S
C369 O367 1.353 . S
C369 O368 1.286 . S
C369 C371 1.363 . S
C370 C360 1.465 . S
C370 U366 2.847 . S
C370 O384 1.249 . S
C370 O385 1.202 . S
C371 C369 1.363 . S
C371 C373 1.408 . S
C371 C376 1.342 . S
C372 C373 1.310 . S
C372 C375 1.461 . S
C372 H392 0.932 . S
C373 C371 1.408 . S
C373 C372 1.310 . S
C373 H393 0.930 . S
C374 C375 1.474 . S
C374 C376 1.285 . S
C374 H394 0.929 . S
C375 C372 1.461 . S
C375 C374 1.474 . S
C376 C371 1.342 . S
C376 C374 1.285 . S
C376 H395 0.930 . S
C377 C380 1.424 . S
C377 C382 1.245 . S
C377 C383 1.428 . S
C378 C381 1.260 . S
C378 C382 1.477 . S
C378 H396 0.932 . S
C379 C380 1.384 . S
C379 C381 1.479 . S
C379 H397 0.929 . S
C380 C377 1.424 . S
C380 C379 1.384 . S
C380 H398 0.928 . S
C381 C378 1.260 . S
C381 C379 1.479 . S
C382 C377 1.245 . S
C382 C378 1.477 . S
C382 H399 0.932 . S
C383 U366 2.882 . S
C383 C377 1.428 . S
C383 O386 1.301 . S
C383 O387 1.282 . S
O384 U366 2.441 . S
O384 C370 1.249 . S
O385 U366 2.420 . S
O385 C370 1.202 . S
O386 U366 2.455 . S
O386 C383 1.301 . S
O387 U366 2.449 . S
O387 C383 1.282 . S
H388 C361 0.931 . S
H389 C363 0.929 . S
H390 C364 0.930 . S
H391 C365 0.931 . S
H392 C372 0.932 . S
H393 C373 0.930 . S
H394 C374 0.929 . S
H395 C376 0.930 . S
H396 C378 0.932 . S
H397 C379 0.929 . S
H398 C380 0.928 . S
H399 C382 0.932 . S
C400 C401 1.264 . S
C400 C405 1.479 . S
C400 C410 1.465 . S
C401 C400 1.264 . S
C401 C403 1.339 . S
C401 H428 0.931 . S
C402 C403 1.395 . S
C402 C404 1.320 . S
C403 C401 1.339 . S
C403 C402 1.395 . S
C403 H429 0.929 . S
C404 C402 1.320 . S
C404 C405 1.405 . S
C404 H430 0.930 . S
C405 C400 1.479 . S
C405 C404 1.405 . S
C405 H431 0.931 . S
U406 O407 2.454 . S
U406 O408 2.458 . S
U406 C409 2.984 . S
U406 C410 2.847 . S
U406 C423 2.882 . S
U406 O424 2.441 . S
U406 O425 2.420 . S
U406 O426 2.455 . S
U406 O427 2.449 . S
O407 U406 2.454 . S
O407 C409 1.353 . S
O408 U406 2.458 . S
O408 C409 1.286 . S
C409 U406 2.984 . S
C409 O407 1.353 . S
C409 O408 1.286 . S
C409 C411 1.363 . S
C410 C400 1.465 . S
C410 U406 2.847 . S
C410 O424 1.249 . S
C410 O425 1.202 . S
C411 C409 1.363 . S
C411 C413 1.408 . S
C411 C416 1.342 . S
C412 C413 1.310 . S
C412 C415 1.461 . S
C412 H432 0.932 . S
C413 C411 1.408 . S
C413 C412 1.310 . S
C413 H433 0.930 . S
C414 C415 1.474 . S
C414 C416 1.285 . S
C414 H434 0.929 . S
C415 C412 1.461 . S
C415 C414 1.474 . S
C416 C411 1.342 . S
C416 C414 1.285 . S
C416 H435 0.930 . S
C417 C420 1.424 . S
C417 C422 1.245 . S
C417 C423 1.428 . S
C418 C421 1.260 . S
C418 C422 1.477 . S
C418 H436 0.932 . S
C419 C420 1.384 . S
C419 C421 1.479 . S
C419 H437 0.929 . S
C420 C417 1.424 . S
C420 C419 1.384 . S
C420 H438 0.928 . S
C421 C418 1.260 . S
C421 C419 1.479 . S
C422 C417 1.245 . S
C422 C418 1.477 . S
C422 H439 0.932 . S
C423 U406 2.882 . S
C423 C417 1.428 . S
C423 O426 1.301 . S
C423 O427 1.282 . S
O424 U406 2.441 . S
O424 C410 1.249 . S
O425 U406 2.420 . S
O425 C410 1.202 . S
O426 U406 2.455 . S
O426 C423 1.301 . S
O427 U406 2.449 . S
O427 C423 1.282 . S
H428 C401 0.931 . S
H429 C403 0.929 . S
H430 C404 0.930 . S
H431 C405 0.931 . S
H432 C412 0.932 . S
H433 C413 0.930 . S
H434 C414 0.929 . S
H435 C416 0.930 . S
H436 C418 0.932 . S
H437 C419 0.929 . S
H438 C420 0.928 . S
H439 C422 0.932 . S
C440 C441 1.264 . S
C440 C445 1.479 . S
C440 C450 1.465 . S
C441 C440 1.264 . S
C441 C443 1.339 . S
C441 H468 0.931 . S
C442 C443 1.395 . S
C442 C444 1.320 . S
C443 C441 1.339 . S
C443 C442 1.395 . S
C443 H469 0.929 . S
C444 C442 1.320 . S
C444 C445 1.405 . S
C444 H470 0.930 . S
C445 C440 1.479 . S
C445 C444 1.405 . S
C445 H471 0.931 . S
U446 O447 2.454 . S
U446 O448 2.458 . S
U446 C449 2.984 . S
U446 C450 2.847 . S
U446 C463 2.882 . S
U446 O464 2.441 . S
U446 O465 2.420 . S
U446 O466 2.455 . S
U446 O467 2.449 . S
O447 U446 2.454 . S
O447 C449 1.353 . S
O448 U446 2.458 . S
O448 C449 1.286 . S
C449 U446 2.984 . S
C449 O447 1.353 . S
C449 O448 1.286 . S
C449 C451 1.363 . S
C450 C440 1.465 . S
C450 U446 2.847 . S
C450 O464 1.249 . S
C450 O465 1.202 . S
C451 C449 1.363 . S
C451 C453 1.408 . S
C451 C456 1.342 . S
C452 C453 1.310 . S
C452 C455 1.461 . S
C452 H472 0.932 . S
C453 C451 1.408 . S
C453 C452 1.310 . S
C453 H473 0.930 . S
C454 C455 1.474 . S
C454 C456 1.285 . S
C454 H474 0.929 . S
C455 C452 1.461 . S
C455 C454 1.474 . S
C456 C451 1.342 . S
C456 C454 1.285 . S
C456 H475 0.930 . S
C457 C460 1.424 . S
C457 C462 1.245 . S
C457 C463 1.428 . S
C458 C461 1.260 . S
C458 C462 1.477 . S
C458 H476 0.932 . S
C459 C460 1.384 . S
C459 C461 1.479 . S
C459 H477 0.929 . S
C460 C457 1.424 . S
C460 C459 1.384 . S
C460 H478 0.928 . S
C461 C458 1.260 . S
C461 C459 1.479 . S
C462 C457 1.245 . S
C462 C458 1.477 . S
C462 H479 0.932 . S
C463 U446 2.882 . S
C463 C457 1.428 . S
C463 O466 1.301 . S
C463 O467 1.282 . S
O464 U446 2.441 . S
O464 C450 1.249 . S
O465 U446 2.420 . S
O465 C450 1.202 . S
O466 U446 2.455 . S
O466 C463 1.301 . S
O467 U446 2.449 . S
O467 C463 1.282 . S
H468 C441 0.931 . S
H469 C443 0.929 . S
H470 C444 0.930 . S
H471 C445 0.931 . S
H472 C452 0.932 . S
H473 C453 0.930 . S
H474 C454 0.929 . S
H475 C456 0.930 . S
H476 C458 0.932 . S
H477 C459 0.929 . S
H478 C460 0.928 . S
H479 C462 0.932 . S
C480 C481 1.264 . S
C480 C485 1.479 . S
C480 C490 1.465 . S
C481 C480 1.264 . S
C481 C483 1.339 . S
C481 H508 0.931 . S
C482 C483 1.395 . S
C482 C484 1.320 . S
C483 C481 1.339 . S
C483 C482 1.395 . S
C483 H509 0.929 . S
C484 C482 1.320 . S
C484 C485 1.405 . S
C484 H510 0.930 . S
C485 C480 1.479 . S
C485 C484 1.405 . S
C485 H511 0.931 . S
U486 O487 2.454 . S
U486 O488 2.458 . S
U486 C489 2.984 . S
U486 C490 2.847 . S
U486 C503 2.882 . S
U486 O504 2.441 . S
U486 O505 2.420 . S
U486 O506 2.455 . S
U486 O507 2.449 . S
O487 U486 2.454 . S
O487 C489 1.353 . S
O488 U486 2.458 . S
O488 C489 1.286 . S
C489 U486 2.984 . S
C489 O487 1.353 . S
C489 O488 1.286 . S
C489 C491 1.363 . S
C490 C480 1.465 . S
C490 U486 2.847 . S
C490 O504 1.249 . S
C490 O505 1.202 . S
C491 C489 1.363 . S
C491 C493 1.408 . S
C491 C496 1.342 . S
C492 C493 1.310 . S
C492 C495 1.461 . S
C492 H512 0.932 . S
C493 C491 1.408 . S
C493 C492 1.310 . S
C493 H513 0.930 . S
C494 C495 1.474 . S
C494 C496 1.285 . S
C494 H514 0.929 . S
C495 C492 1.461 . S
C495 C494 1.474 . S
C496 C491 1.342 . S
C496 C494 1.285 . S
C496 H515 0.930 . S
C497 C500 1.424 . S
C497 C502 1.245 . S
C497 C503 1.428 . S
C498 C501 1.260 . S
C498 C502 1.477 . S
C498 H516 0.932 . S
C499 C500 1.384 . S
C499 C501 1.479 . S
C499 H517 0.929 . S
C500 C497 1.424 . S
C500 C499 1.384 . S
C500 H518 0.928 . S
C501 C498 1.260 . S
C501 C499 1.479 . S
C502 C497 1.245 . S
C502 C498 1.477 . S
C502 H519 0.932 . S
C503 U486 2.882 . S
C503 C497 1.428 . S
C503 O506 1.301 . S
C503 O507 1.282 . S
O504 U486 2.441 . S
O504 C490 1.249 . S
O505 U486 2.420 . S
O505 C490 1.202 . S
O506 U486 2.455 . S
O506 C503 1.301 . S
O507 U486 2.449 . S
O507 C503 1.282 . S
H508 C481 0.931 . S
H509 C483 0.929 . S
H510 C484 0.930 . S
H511 C485 0.931 . S
H512 C492 0.932 . S
H513 C493 0.930 . S
H514 C494 0.929 . S
H515 C496 0.930 . S
H516 C498 0.932 . S
H517 C499 0.929 . S
H518 C500 0.928 . S
H519 C502 0.932 . S
C520 C521 1.264 . S
C520 C525 1.479 . S
C520 C530 1.465 . S
C521 C520 1.264 . S
C521 C523 1.339 . S
C521 H548 0.931 . S
C522 C523 1.395 . S
C522 C524 1.320 . S
C523 C521 1.339 . S
C523 C522 1.395 . S
C523 H549 0.929 . S
C524 C522 1.320 . S
C524 C525 1.405 . S
C524 H550 0.930 . S
C525 C520 1.479 . S
C525 C524 1.405 . S
C525 H551 0.931 . S
U526 O527 2.454 . S
U526 O528 2.458 . S
U526 C529 2.984 . S
U526 C530 2.847 . S
U526 C543 2.882 . S
U526 O544 2.441 . S
U526 O545 2.420 . S
U526 O546 2.455 . S
U526 O547 2.449 . S
O527 U526 2.454 . S
O527 C529 1.353 . S
O528 U526 2.458 . S
O528 C529 1.286 . S
C529 U526 2.984 . S
C529 O527 1.353 . S
C529 O528 1.286 . S
C529 C531 1.363 . S
C530 C520 1.465 . S
C530 U526 2.847 . S
C530 O544 1.249 . S
C530 O545 1.202 . S
C531 C529 1.363 . S
C531 C533 1.408 . S
C531 C536 1.342 . S
C532 C533 1.310 . S
C532 C535 1.461 . S
C532 H552 0.932 . S
C533 C531 1.408 . S
C533 C532 1.310 . S
C533 H553 0.930 . S
C534 C535 1.474 . S
C534 C536 1.285 . S
C534 H554 0.929 . S
C535 C532 1.461 . S
C535 C534 1.474 . S
C536 C531 1.342 . S
C536 C534 1.285 . S
C536 H555 0.930 . S
C537 C540 1.424 . S
C537 C542 1.245 . S
C537 C543 1.428 . S
C538 C541 1.260 . S
C538 C542 1.477 . S
C538 H556 0.932 . S
C539 C540 1.384 . S
C539 C541 1.479 . S
C539 H557 0.929 . S
C540 C537 1.424 . S
C540 C539 1.384 . S
C540 H558 0.928 . S
C541 C538 1.260 . S
C541 C539 1.479 . S
C542 C537 1.245 . S
C542 C538 1.477 . S
C542 H559 0.932 . S
C543 U526 2.882 . S
C543 C537 1.428 . S
C543 O546 1.301 . S
C543 O547 1.282 . S
O544 U526 2.441 . S
O544 C530 1.249 . S
O545 U526 2.420 . S
O545 C530 1.202 . S
O546 U526 2.455 . S
O546 C543 1.301 . S
O547 U526 2.449 . S
O547 C543 1.282 . S
H548 C521 0.931 . S
H549 C523 0.929 . S
H550 C524 0.930 . S
H551 C525 0.931 . S
H552 C532 0.932 . S
H553 C533 0.930 . S
H554 C534 0.929 . S
H555 C536 0.930 . S
H556 C538 0.932 . S
H557 C539 0.929 . S
H558 C540 0.928 . S
H559 C542 0.932 . S
C560 C561 1.264 . S
C560 C565 1.479 . S
C560 C570 1.465 . S
C561 C560 1.264 . S
C561 C563 1.339 . S
C561 H588 0.931 . S
C562 C563 1.395 . S
C562 C564 1.320 . S
C563 C561 1.339 . S
C563 C562 1.395 . S
C563 H589 0.929 . S
C564 C562 1.320 . S
C564 C565 1.405 . S
C564 H590 0.930 . S
C565 C560 1.479 . S
C565 C564 1.405 . S
C565 H591 0.931 . S
U566 O567 2.454 . S
U566 O568 2.458 . S
U566 C569 2.984 . S
U566 C570 2.847 . S
U566 C583 2.882 . S
U566 O584 2.441 . S
U566 O585 2.420 . S
U566 O586 2.455 . S
U566 O587 2.449 . S
O567 U566 2.454 . S
O567 C569 1.353 . S
O568 U566 2.458 . S
O568 C569 1.286 . S
C569 U566 2.984 . S
C569 O567 1.353 . S
C569 O568 1.286 . S
C569 C571 1.363 . S
C570 C560 1.465 . S
C570 U566 2.847 . S
C570 O584 1.249 . S
C570 O585 1.202 . S
C571 C569 1.363 . S
C571 C573 1.408 . S
C571 C576 1.342 . S
C572 C573 1.310 . S
C572 C575 1.461 . S
C572 H592 0.932 . S
C573 C571 1.408 . S
C573 C572 1.310 . S
C573 H593 0.930 . S
C574 C575 1.474 . S
C574 C576 1.285 . S
C574 H594 0.929 . S
C575 C572 1.461 . S
C575 C574 1.474 . S
C576 C571 1.342 . S
C576 C574 1.285 . S
C576 H595 0.930 . S
C577 C580 1.424 . S
C577 C582 1.245 . S
C577 C583 1.428 . S
C578 C581 1.260 . S
C578 C582 1.477 . S
C578 H596 0.932 . S
C579 C580 1.384 . S
C579 C581 1.479 . S
C579 H597 0.929 . S
C580 C577 1.424 . S
C580 C579 1.384 . S
C580 H598 0.928 . S
C581 C578 1.260 . S
C581 C579 1.479 . S
C582 C577 1.245 . S
C582 C578 1.477 . S
C582 H599 0.932 . S
C583 U566 2.882 . S
C583 C577 1.428 . S
C583 O586 1.301 . S
C583 O587 1.282 . S
O584 U566 2.441 . S
O584 C570 1.249 . S
O585 U566 2.420 . S
O585 C570 1.202 . S
O586 U566 2.455 . S
O586 C583 1.301 . S
O587 U566 2.449 . S
O587 C583 1.282 . S
H588 C561 0.931 . S
H589 C563 0.929 . S
H590 C564 0.930 . S
H591 C565 0.931 . S
H592 C572 0.932 . S
H593 C573 0.930 . S
H594 C574 0.929 . S
H595 C576 0.930 . S
H596 C578 0.932 . S
H597 C579 0.929 . S
H598 C580 0.928 . S
H599 C582 0.932 . S
C600 C601 1.264 . S
C600 C605 1.479 . S
C600 C610 1.465 . S
C601 C600 1.264 . S
C601 C603 1.339 . S
C601 H628 0.931 . S
C602 C603 1.395 . S
C602 C604 1.320 . S
C603 C601 1.339 . S
C603 C602 1.395 . S
C603 H629 0.929 . S
C604 C602 1.320 . S
C604 C605 1.405 . S
C604 H630 0.930 . S
C605 C600 1.479 . S
C605 C604 1.405 . S
C605 H631 0.931 . S
U606 O607 2.454 . S
U606 O608 2.458 . S
U606 C609 2.984 . S
U606 C610 2.847 . S
U606 C623 2.882 . S
U606 O624 2.441 . S
U606 O625 2.420 . S
U606 O626 2.455 . S
U606 O627 2.449 . S
O607 U606 2.454 . S
O607 C609 1.353 . S
O608 U606 2.458 . S
O608 C609 1.286 . S
C609 U606 2.984 . S
C609 O607 1.353 . S
C609 O608 1.286 . S
C609 C611 1.363 . S
C610 C600 1.465 . S
C610 U606 2.847 . S
C610 O624 1.249 . S
C610 O625 1.202 . S
C611 C609 1.363 . S
C611 C613 1.408 . S
C611 C616 1.342 . S
C612 C613 1.310 . S
C612 C615 1.461 . S
C612 H632 0.932 . S
C613 C611 1.408 . S
C613 C612 1.310 . S
C613 H633 0.930 . S
C614 C615 1.474 . S
C614 C616 1.285 . S
C614 H634 0.929 . S
C615 C612 1.461 . S
C615 C614 1.474 . S
C616 C611 1.342 . S
C616 C614 1.285 . S
C616 H635 0.930 . S
C617 C620 1.424 . S
C617 C622 1.245 . S
C617 C623 1.428 . S
C618 C621 1.260 . S
C618 C622 1.477 . S
C618 H636 0.932 . S
C619 C620 1.384 . S
C619 C621 1.479 . S
C619 H637 0.929 . S
C620 C617 1.424 . S
C620 C619 1.384 . S
C620 H638 0.928 . S
C621 C618 1.260 . S
C621 C619 1.479 . S
C622 C617 1.245 . S
C622 C618 1.477 . S
C622 H639 0.932 . S
C623 U606 2.882 . S
C623 C617 1.428 . S
C623 O626 1.301 . S
C623 O627 1.282 . S
O624 U606 2.441 . S
O624 C610 1.249 . S
O625 U606 2.420 . S
O625 C610 1.202 . S
O626 U606 2.455 . S
O626 C623 1.301 . S
O627 U606 2.449 . S
O627 C623 1.282 . S
H628 C601 0.931 . S
H629 C603 0.929 . S
H630 C604 0.930 . S
H631 C605 0.931 . S
H632 C612 0.932 . S
H633 C613 0.930 . S
H634 C614 0.929 . S
H635 C616 0.930 . S
H636 C618 0.932 . S
H637 C619 0.929 . S
H638 C620 0.928 . S
H639 C622 0.932 . S
C640 C641 1.264 . S
C640 C645 1.479 . S
C640 C650 1.465 . S
C641 C640 1.264 . S
C641 C643 1.339 . S
C641 H668 0.931 . S
C642 C643 1.395 . S
C642 C644 1.320 . S
C643 C641 1.339 . S
C643 C642 1.395 . S
C643 H669 0.929 . S
C644 C642 1.320 . S
C644 C645 1.405 . S
C644 H670 0.930 . S
C645 C640 1.479 . S
C645 C644 1.405 . S
C645 H671 0.931 . S
U646 O647 2.454 . S
U646 O648 2.458 . S
U646 C649 2.984 . S
U646 C650 2.847 . S
U646 C663 2.882 . S
U646 O664 2.441 . S
U646 O665 2.420 . S
U646 O666 2.455 . S
U646 O667 2.449 . S
O647 U646 2.454 . S
O647 C649 1.353 . S
O648 U646 2.458 . S
O648 C649 1.286 . S
C649 U646 2.984 . S
C649 O647 1.353 . S
C649 O648 1.286 . S
C649 C651 1.363 . S
C650 C640 1.465 . S
C650 U646 2.847 . S
C650 O664 1.249 . S
C650 O665 1.202 . S
C651 C649 1.363 . S
C651 C653 1.408 . S
C651 C656 1.342 . S
C652 C653 1.310 . S
C652 C655 1.461 . S
C652 H672 0.932 . S
C653 C651 1.408 . S
C653 C652 1.310 . S
C653 H673 0.930 . S
C654 C655 1.474 . S
C654 C656 1.285 . S
C654 H674 0.929 . S
C655 C652 1.461 . S
C655 C654 1.474 . S
C656 C651 1.342 . S
C656 C654 1.285 . S
C656 H675 0.930 . S
C657 C660 1.424 . S
C657 C662 1.245 . S
C657 C663 1.428 . S
C658 C661 1.260 . S
C658 C662 1.477 . S
C658 H676 0.932 . S
C659 C660 1.384 . S
C659 C661 1.479 . S
C659 H677 0.929 . S
C660 C657 1.424 . S
C660 C659 1.384 . S
C660 H678 0.928 . S
C661 C658 1.260 . S
C661 C659 1.479 . S
C662 C657 1.245 . S
C662 C658 1.477 . S
C662 H679 0.932 . S
C663 U646 2.882 . S
C663 C657 1.428 . S
C663 O666 1.301 . S
C663 O667 1.282 . S
O664 U646 2.441 . S
O664 C650 1.249 . S
O665 U646 2.420 . S
O665 C650 1.202 . S
O666 U646 2.455 . S
O666 C663 1.301 . S
O667 U646 2.449 . S
O667 C663 1.282 . S
H668 C641 0.931 . S
H669 C643 0.929 . S
H670 C644 0.930 . S
H671 C645 0.931 . S
H672 C652 0.932 . S
H673 C653 0.930 . S
H674 C654 0.929 . S
H675 C656 0.930 . S
H676 C658 0.932 . S
H677 C659 0.929 . S
H678 C660 0.928 . S
H679 C662 0.932 . S
C680 C681 1.264 . S
C680 C685 1.479 . S
C680 C690 1.465 . S
C681 C680 1.264 . S
C681 C683 1.339 . S
C681 H708 0.931 . S
C682 C683 1.395 . S
C682 C684 1.320 . S
C683 C681 1.339 . S
C683 C682 1.395 . S
C683 H709 0.929 . S
C684 C682 1.320 . S
C684 C685 1.405 . S
C684 H710 0.930 . S
C685 C680 1.479 . S
C685 C684 1.405 . S
C685 H711 0.931 . S
U686 O687 2.454 . S
U686 O688 2.458 . S
U686 C689 2.984 . S
U686 C690 2.847 . S
U686 C703 2.882 . S
U686 O704 2.441 . S
U686 O705 2.420 . S
U686 O706 2.455 . S
U686 O707 2.449 . S
O687 U686 2.454 . S
O687 C689 1.353 . S
O688 U686 2.458 . S
O688 C689 1.286 . S
C689 U686 2.984 . S
C689 O687 1.353 . S
C689 O688 1.286 . S
C689 C691 1.363 . S
C690 C680 1.465 . S
C690 U686 2.847 . S
C690 O704 1.249 . S
C690 O705 1.202 . S
C691 C689 1.363 . S
C691 C693 1.408 . S
C691 C696 1.342 . S
C692 C693 1.310 . S
C692 C695 1.461 . S
C692 H712 0.932 . S
C693 C691 1.408 . S
C693 C692 1.310 . S
C693 H713 0.930 . S
C694 C695 1.474 . S
C694 C696 1.285 . S
C694 H714 0.929 . S
C695 C692 1.461 . S
C695 C694 1.474 . S
C696 C691 1.342 . S
C696 C694 1.285 . S
C696 H715 0.930 . S
C697 C700 1.424 . S
C697 C702 1.245 . S
C697 C703 1.428 . S
C698 C701 1.260 . S
C698 C702 1.477 . S
C698 H716 0.932 . S
C699 C700 1.384 . S
C699 C701 1.479 . S
C699 H717 0.929 . S
C700 C697 1.424 . S
C700 C699 1.384 . S
C700 H718 0.928 . S
C701 C698 1.260 . S
C701 C699 1.479 . S
C702 C697 1.245 . S
C702 C698 1.477 . S
C702 H719 0.932 . S
C703 U686 2.882 . S
C703 C697 1.428 . S
C703 O706 1.301 . S
C703 O707 1.282 . S
O704 U686 2.441 . S
O704 C690 1.249 . S
O705 U686 2.420 . S
O705 C690 1.202 . S
O706 U686 2.455 . S
O706 C703 1.301 . S
O707 U686 2.449 . S
O707 C703 1.282 . S
H708 C681 0.931 . S
H709 C683 0.929 . S
H710 C684 0.930 . S
H711 C685 0.931 . S
H712 C692 0.932 . S
H713 C693 0.930 . S
H714 C694 0.929 . S
H715 C696 0.930 . S
H716 C698 0.932 . S
H717 C699 0.929 . S
H718 C700 0.928 . S
H719 C702 0.932 . S
C720 C721 1.264 . S
C720 C725 1.479 . S
C720 C730 1.465 . S
C721 C720 1.264 . S
C721 C723 1.339 . S
C721 H748 0.931 . S
C722 C723 1.395 . S
C722 C724 1.320 . S
C723 C721 1.339 . S
C723 C722 1.395 . S
C723 H749 0.929 . S
C724 C722 1.320 . S
C724 C725 1.405 . S
C724 H750 0.930 . S
C725 C720 1.479 . S
C725 C724 1.405 . S
C725 H751 0.931 . S
U726 O727 2.454 . S
U726 O728 2.458 . S
U726 C729 2.984 . S
U726 C730 2.847 . S
U726 C743 2.882 . S
U726 O744 2.441 . S
U726 O745 2.420 . S
U726 O746 2.455 . S
U726 O747 2.449 . S
O727 U726 2.454 . S
O727 C729 1.353 . S
O728 U726 2.458 . S
O728 C729 1.286 . S
C729 U726 2.984 . S
C729 O727 1.353 . S
C729 O728 1.286 . S
C729 C731 1.363 . S
C730 C720 1.465 . S
C730 U726 2.847 . S
C730 O744 1.249 . S
C730 O745 1.202 . S
C731 C729 1.363 . S
C731 C733 1.408 . S
C731 C736 1.342 . S
C732 C733 1.310 . S
C732 C735 1.461 . S
C732 H752 0.932 . S
C733 C731 1.408 . S
C733 C732 1.310 . S
C733 H753 0.930 . S
C734 C735 1.474 . S
C734 C736 1.285 . S
C734 H754 0.929 . S
C735 C732 1.461 . S
C735 C734 1.474 . S
C736 C731 1.342 . S
C736 C734 1.285 . S
C736 H755 0.930 . S
C737 C740 1.424 . S
C737 C742 1.245 . S
C737 C743 1.428 . S
C738 C741 1.260 . S
C738 C742 1.477 . S
C738 H756 0.932 . S
C739 C740 1.384 . S
C739 C741 1.479 . S
C739 H757 0.929 . S
C740 C737 1.424 . S
C740 C739 1.384 . S
C740 H758 0.928 . S
C741 C738 1.260 . S
C741 C739 1.479 . S
C742 C737 1.245 . S
C742 C738 1.477 . S
C742 H759 0.932 . S
C743 U726 2.882 . S
C743 C737 1.428 . S
C743 O746 1.301 . S
C743 O747 1.282 . S
O744 U726 2.441 . S
O744 C730 1.249 . S
O745 U726 2.420 . S
O745 C730 1.202 . S
O746 U726 2.455 . S
O746 C743 1.301 . S
O747 U726 2.449 . S
O747 C743 1.282 . S
H748 C721 0.931 . S
H749 C723 0.929 . S
H750 C724 0.930 . S
H751 C725 0.931 . S
H752 C732 0.932 . S
H753 C733 0.930 . S
H754 C734 0.929 . S
H755 C736 0.930 . S
H756 C738 0.932 . S
H757 C739 0.929 . S
H758 C740 0.928 . S
H759 C742 0.932 . S
C760 C761 1.264 . S
C760 C765 1.479 . S
C760 C770 1.465 . S
C761 C760 1.264 . S
C761 C763 1.339 . S
C761 H788 0.931 . S
C762 C763 1.395 . S
C762 C764 1.320 . S
C763 C761 1.339 . S
C763 C762 1.395 . S
C763 H789 0.929 . S
C764 C762 1.320 . S
C764 C765 1.405 . S
C764 H790 0.930 . S
C765 C760 1.479 . S
C765 C764 1.405 . S
C765 H791 0.931 . S
U766 O767 2.454 . S
U766 O768 2.458 . S
U766 C769 2.984 . S
U766 C770 2.847 . S
U766 C783 2.882 . S
U766 O784 2.441 . S
U766 O785 2.420 . S
U766 O786 2.455 . S
U766 O787 2.449 . S
O767 U766 2.454 . S
O767 C769 1.353 . S
O768 U766 2.458 . S
O768 C769 1.286 . S
C769 U766 2.984 . S
C769 O767 1.353 . S
C769 O768 1.286 . S
C769 C771 1.363 . S
C770 C760 1.465 . S
C770 U766 2.847 . S
C770 O784 1.249 . S
C770 O785 1.202 . S
C771 C769 1.363 . S
C771 C773 1.408 . S
C771 C776 1.342 . S
C772 C773 1.310 . S
C772 C775 1.461 . S
C772 H792 0.932 . S
C773 C771 1.408 . S
C773 C772 1.310 . S
C773 H793 0.930 . S
C774 C775 1.474 . S
C774 C776 1.285 . S
C774 H794 0.929 . S
C775 C772 1.461 . S
C775 C774 1.474 . S
C776 C771 1.342 . S
C776 C774 1.285 . S
C776 H795 0.930 . S
C777 C780 1.424 . S
C777 C782 1.245 . S
C777 C783 1.428 . S
C778 C781 1.260 . S
C778 C782 1.477 . S
C778 H796 0.932 . S
C779 C780 1.384 . S
C779 C781 1.479 . S
C779 H797 0.929 . S
C780 C777 1.424 . S
C780 C779 1.384 . S
C780 H798 0.928 . S
C781 C778 1.260 . S
C781 C779 1.479 . S
C782 C777 1.245 . S
C782 C778 1.477 . S
C782 H799 0.932 . S
C783 U766 2.882 . S
C783 C777 1.428 . S
C783 O786 1.301 . S
C783 O787 1.282 . S
O784 U766 2.441 . S
O784 C770 1.249 . S
O785 U766 2.420 . S
O785 C770 1.202 . S
O786 U766 2.455 . S
O786 C783 1.301 . S
O787 U766 2.449 . S
O787 C783 1.282 . S
H788 C761 0.931 . S
H789 C763 0.929 . S
H790 C764 0.930 . S
H791 C765 0.931 . S
H792 C772 0.932 . S
H793 C773 0.930 . S
H794 C774 0.929 . S
H795 C776 0.930 . S
H796 C778 0.932 . S
H797 C779 0.929 . S
H798 C780 0.928 . S
H799 C782 0.932 . S
C800 C801 1.264 . S
C800 C805 1.479 . S
C800 C810 1.465 . S
C801 C800 1.264 . S
C801 C803 1.339 . S
C801 H828 0.931 . S
C802 C803 1.395 . S
C802 C804 1.320 . S
C803 C801 1.339 . S
C803 C802 1.395 . S
C803 H829 0.929 . S
C804 C802 1.320 . S
C804 C805 1.405 . S
C804 H830 0.930 . S
C805 C800 1.479 . S
C805 C804 1.405 . S
C805 H831 0.931 . S
U806 O807 2.454 . S
U806 O808 2.458 . S
U806 C809 2.984 . S
U806 C810 2.847 . S
U806 C823 2.882 . S
U806 O824 2.441 . S
U806 O825 2.420 . S
U806 O826 2.455 . S
U806 O827 2.449 . S
O807 U806 2.454 . S
O807 C809 1.353 . S
O808 U806 2.458 . S
O808 C809 1.286 . S
C809 U806 2.984 . S
C809 O807 1.353 . S
C809 O808 1.286 . S
C809 C811 1.363 . S
C810 C800 1.465 . S
C810 U806 2.847 . S
C810 O824 1.249 . S
C810 O825 1.202 . S
C811 C809 1.363 . S
C811 C813 1.408 . S
C811 C816 1.342 . S
C812 C813 1.310 . S
C812 C815 1.461 . S
C812 H832 0.932 . S
C813 C811 1.408 . S
C813 C812 1.310 . S
C813 H833 0.930 . S
C814 C815 1.474 . S
C814 C816 1.285 . S
C814 H834 0.929 . S
C815 C812 1.461 . S
C815 C814 1.474 . S
C816 C811 1.342 . S
C816 C814 1.285 . S
C816 H835 0.930 . S
C817 C820 1.424 . S
C817 C822 1.245 . S
C817 C823 1.428 . S
C818 C821 1.260 . S
C818 C822 1.477 . S
C818 H836 0.932 . S
C819 C820 1.384 . S
C819 C821 1.479 . S
C819 H837 0.929 . S
C820 C817 1.424 . S
C820 C819 1.384 . S
C820 H838 0.928 . S
C821 C818 1.260 . S
C821 C819 1.479 . S
C822 C817 1.245 . S
C822 C818 1.477 . S
C822 H839 0.932 . S
C823 U806 2.882 . S
C823 C817 1.428 . S
C823 O826 1.301 . S
C823 O827 1.282 . S
O824 U806 2.441 . S
O824 C810 1.249 . S
O825 U806 2.420 . S
O825 C810 1.202 . S
O826 U806 2.455 . S
O826 C823 1.301 . S
O827 U806 2.449 . S
O827 C823 1.282 . S
H828 C801 0.931 . S
H829 C803 0.929 . S
H830 C804 0.930 . S
H831 C805 0.931 . S
H832 C812 0.932 . S
H833 C813 0.930 . S
H834 C814 0.929 . S
H835 C816 0.930 . S
H836 C818 0.932 . S
H837 C819 0.929 . S
H838 C820 0.928 . S
H839 C822 0.932 . S
C840 C841 1.264 . S
C840 C845 1.479 . S
C840 C850 1.465 . S
C841 C840 1.264 . S
C841 C843 1.339 . S
C841 H868 0.931 . S
C842 C843 1.395 . S
C842 C844 1.320 . S
C843 C841 1.339 . S
C843 C842 1.395 . S
C843 H869 0.929 . S
C844 C842 1.320 . S
C844 C845 1.405 . S
C844 H870 0.930 . S
C845 C840 1.479 . S
C845 C844 1.405 . S
C845 H871 0.931 . S
U846 O847 2.454 . S
U846 O848 2.458 . S
U846 C849 2.984 . S
U846 C850 2.847 . S
U846 C863 2.882 . S
U846 O864 2.441 . S
U846 O865 2.420 . S
U846 O866 2.455 . S
U846 O867 2.449 . S
O847 U846 2.454 . S
O847 C849 1.353 . S
O848 U846 2.458 . S
O848 C849 1.286 . S
C849 U846 2.984 . S
C849 O847 1.353 . S
C849 O848 1.286 . S
C849 C851 1.363 . S
C850 C840 1.465 . S
C850 U846 2.847 . S
C850 O864 1.249 . S
C850 O865 1.202 . S
C851 C849 1.363 . S
C851 C853 1.408 . S
C851 C856 1.342 . S
C852 C853 1.310 . S
C852 C855 1.461 . S
C852 H872 0.932 . S
C853 C851 1.408 . S
C853 C852 1.310 . S
C853 H873 0.930 . S
C854 C855 1.474 . S
C854 C856 1.285 . S
C854 H874 0.929 . S
C855 C852 1.461 . S
C855 C854 1.474 . S
C856 C851 1.342 . S
C856 C854 1.285 . S
C856 H875 0.930 . S
C857 C860 1.424 . S
C857 C862 1.245 . S
C857 C863 1.428 . S
C858 C861 1.260 . S
C858 C862 1.477 . S
C858 H876 0.932 . S
C859 C860 1.384 . S
C859 C861 1.479 . S
C859 H877 0.929 . S
C860 C857 1.424 . S
C860 C859 1.384 . S
C860 H878 0.928 . S
C861 C858 1.260 . S
C861 C859 1.479 . S
C862 C857 1.245 . S
C862 C858 1.477 . S
C862 H879 0.932 . S
C863 U846 2.882 . S
C863 C857 1.428 . S
C863 O866 1.301 . S
C863 O867 1.282 . S
O864 U846 2.441 . S
O864 C850 1.249 . S
O865 U846 2.420 . S
O865 C850 1.202 . S
O866 U846 2.455 . S
O866 C863 1.301 . S
O867 U846 2.449 . S
O867 C863 1.282 . S
H868 C841 0.931 . S
H869 C843 0.929 . S
H870 C844 0.930 . S
H871 C845 0.931 . S
H872 C852 0.932 . S
H873 C853 0.930 . S
H874 C854 0.929 . S
H875 C856 0.930 . S
H876 C858 0.932 . S
H877 C859 0.929 . S
H878 C860 0.928 . S
H879 C862 0.932 . S
C880 C881 1.264 . S
C880 C885 1.479 . S
C880 C890 1.465 . S
C881 C880 1.264 . S
C881 C883 1.339 . S
C881 H908 0.931 . S
C882 C883 1.395 . S
C882 C884 1.320 . S
C883 C881 1.339 . S
C883 C882 1.395 . S
C883 H909 0.929 . S
C884 C882 1.320 . S
C884 C885 1.405 . S
C884 H910 0.930 . S
C885 C880 1.479 . S
C885 C884 1.405 . S
C885 H911 0.931 . S
U886 O887 2.454 . S
U886 O888 2.458 . S
U886 C889 2.984 . S
U886 C890 2.847 . S
U886 C903 2.882 . S
U886 O904 2.441 . S
U886 O905 2.420 . S
U886 O906 2.455 . S
U886 O907 2.449 . S
O887 U886 2.454 . S
O887 C889 1.353 . S
O888 U886 2.458 . S
O888 C889 1.286 . S
C889 U886 2.984 . S
C889 O887 1.353 . S
C889 O888 1.286 . S
C889 C891 1.363 . S
C890 C880 1.465 . S
C890 U886 2.847 . S
C890 O904 1.249 . S
C890 O905 1.202 . S
C891 C889 1.363 . S
C891 C893 1.408 . S
C891 C896 1.342 . S
C892 C893 1.310 . S
C892 C895 1.461 . S
C892 H912 0.932 . S
C893 C891 1.408 . S
C893 C892 1.310 . S
C893 H913 0.930 . S
C894 C895 1.474 . S
C894 C896 1.285 . S
C894 H914 0.929 . S
C895 C892 1.461 . S
C895 C894 1.474 . S
C896 C891 1.342 . S
C896 C894 1.285 . S
C896 H915 0.930 . S
C897 C900 1.424 . S
C897 C902 1.245 . S
C897 C903 1.428 . S
C898 C901 1.260 . S
C898 C902 1.477 . S
C898 H916 0.932 . S
C899 C900 1.384 . S
C899 C901 1.479 . S
C899 H917 0.929 . S
C900 C897 1.424 . S
C900 C899 1.384 . S
C900 H918 0.928 . S
C901 C898 1.260 . S
C901 C899 1.479 . S
C902 C897 1.245 . S
C902 C898 1.477 . S
C902 H919 0.932 . S
C903 U886 2.882 . S
C903 C897 1.428 . S
C903 O906 1.301 . S
C903 O907 1.282 . S
O904 U886 2.441 . S
O904 C890 1.249 . S
O905 U886 2.420 . S
O905 C890 1.202 . S
O906 U886 2.455 . S
O906 C903 1.301 . S
O907 U886 2.449 . S
O907 C903 1.282 . S
H908 C881 0.931 . S
H909 C883 0.929 . S
H910 C884 0.930 . S
H911 C885 0.931 . S
H912 C892 0.932 . S
H913 C893 0.930 . S
H914 C894 0.929 . S
H915 C896 0.930 . S
H916 C898 0.932 . S
H917 C899 0.929 . S
H918 C900 0.928 . S
H919 C902 0.932 . S
C920 C921 1.264 . S
C920 C925 1.479 . S
C920 C930 1.465 . S
C921 C920 1.264 . S
C921 C923 1.339 . S
C921 H948 0.931 . S
C922 C923 1.395 . S
C922 C924 1.320 . S
C923 C921 1.339 . S
C923 C922 1.395 . S
C923 H949 0.929 . S
C924 C922 1.320 . S
C924 C925 1.405 . S
C924 H950 0.930 . S
C925 C920 1.479 . S
C925 C924 1.405 . S
C925 H951 0.931 . S
U926 O927 2.454 . S
U926 O928 2.458 . S
U926 C929 2.984 . S
U926 C930 2.847 . S
U926 C943 2.882 . S
U926 O944 2.441 . S
U926 O945 2.420 . S
U926 O946 2.455 . S
U926 O947 2.449 . S
O927 U926 2.454 . S
O927 C929 1.353 . S
O928 U926 2.458 . S
O928 C929 1.286 . S
C929 U926 2.984 . S
C929 O927 1.353 . S
C929 O928 1.286 . S
C929 C931 1.363 . S
C930 C920 1.465 . S
C930 U926 2.847 . S
C930 O944 1.249 . S
C930 O945 1.202 . S
C931 C929 1.363 . S
C931 C933 1.408 . S
C931 C936 1.342 . S
C932 C933 1.310 . S
C932 C935 1.461 . S
C932 H952 0.932 . S
C933 C931 1.408 . S
C933 C932 1.310 . S
C933 H953 0.930 . S
C934 C935 1.474 . S
C934 C936 1.285 . S
C934 H954 0.929 . S
C935 C932 1.461 . S
C935 C934 1.474 . S
C936 C931 1.342 . S
C936 C934 1.285 . S
C936 H955 0.930 . S
C937 C940 1.424 . S
C937 C942 1.245 . S
C937 C943 1.428 . S
C938 C941 1.260 . S
C938 C942 1.477 . S
C938 H956 0.932 . S
C939 C940 1.384 . S
C939 C941 1.479 . S
C939 H957 0.929 . S
C940 C937 1.424 . S
C940 C939 1.384 . S
C940 H958 0.928 . S
C941 C938 1.260 . S
C941 C939 1.479 . S
C942 C937 1.245 . S
C942 C938 1.477 . S
C942 H959 0.932 . S
C943 U926 2.882 . S
C943 C937 1.428 . S
C943 O946 1.301 . S
C943 O947 1.282 . S
O944 U926 2.441 . S
O944 C930 1.249 . S
O945 U926 2.420 . S
O945 C930 1.202 . S
O946 U926 2.455 . S
O946 C943 1.301 . S
O947 U926 2.449 . S
O947 C943 1.282 . S
H948 C921 0.931 . S
H949 C923 0.929 . S
H950 C924 0.930 . S
H951 C925 0.931 . S
H952 C932 0.932 . S
H953 C933 0.930 . S
H954 C934 0.929 . S
H955 C936 0.930 . S
H956 C938 0.932 . S
H957 C939 0.929 . S
H958 C940 0.928 . S
H959 C942 0.932 . S
C960 C961 1.264 . S
C960 C965 1.479 . S
C960 C970 1.465 . S
C961 C960 1.264 . S
C961 C963 1.339 . S
C961 H988 0.931 . S
C962 C963 1.395 . S
C962 C964 1.320 . S
C963 C961 1.339 . S
C963 C962 1.395 . S
C963 H989 0.929 . S
C964 C962 1.320 . S
C964 C965 1.405 . S
C964 H990 0.930 . S
C965 C960 1.479 . S
C965 C964 1.405 . S
C965 H991 0.931 . S
U966 O967 2.454 . S
U966 O968 2.458 . S
U966 C969 2.984 . S
U966 C970 2.847 . S
U966 C983 2.882 . S
U966 O984 2.441 . S
U966 O985 2.420 . S
U966 O986 2.455 . S
U966 O987 2.449 . S
O967 U966 2.454 . S
O967 C969 1.353 . S
O968 U966 2.458 . S
O968 C969 1.286 . S
C969 U966 2.984 . S
C969 O967 1.353 . S
C969 O968 1.286 . S
C969 C971 1.363 . S
C970 C960 1.465 . S
C970 U966 2.847 . S
C970 O984 1.249 . S
C970 O985 1.202 . S
C971 C969 1.363 . S
C971 C973 1.408 . S
C971 C976 1.342 . S
C972 C973 1.310 . S
C972 C975 1.461 . S
C972 H992 0.932 . S
C973 C971 1.408 . S
C973 C972 1.310 . S
C973 H993 0.930 . S
C974 C975 1.474 . S
C974 C976 1.285 . S
C974 H994 0.929 . S
C975 C972 1.461 . S
C975 C974 1.474 . S
C976 C971 1.342 . S
C976 C974 1.285 . S
C976 H995 0.930 . S
C977 C980 1.424 . S
C977 C982 1.245 . S
C977 C983 1.428 . S
C978 C981 1.260 . S
C978 C982 1.477 . S
C978 H996 0.932 . S
C979 C980 1.384 . S
C979 C981 1.479 . S
C979 H997 0.929 . S
C980 C977 1.424 . S
C980 C979 1.384 . S
C980 H998 0.928 . S
C981 C978 1.260 . S
C981 C979 1.479 . S
C982 C977 1.245 . S
C982 C978 1.477 . S
C982 H999 0.932 . S
C983 U966 2.882 . S
C983 C977 1.428 . S
C983 O986 1.301 . S
C983 O987 1.282 . S
O984 U966 2.441 . S
O984 C970 1.249 . S
O985 U966 2.420 . S
O985 C970 1.202 . S
O986 U966 2.455 . S
O986 C983 1.301 . S
O987 U966 2.449 . S
O987 C983 1.282 . S
H988 C961 0.931 . S
H989 C963 0.929 . S
H990 C964 0.930 . S
H991 C965 0.931 . S
H992 C972 0.932 . S
H993 C973 0.930 . S
H994 C974 0.929 . S
H995 C976 0.930 . S
H996 C978 0.932 . S
H997 C979 0.929 . S
H998 C980 0.928 . S
H999 C982 0.932 . S
C1000 C1001 1.264 . S
C1000 C1005 1.479 . S
C1000 C1010 1.465 . S
C1001 C1000 1.264 . S
C1001 C1003 1.339 . S
C1001 H1028 0.931 . S
C1002 C1003 1.395 . S
C1002 C1004 1.320 . S
C1003 C1001 1.339 . S
C1003 C1002 1.395 . S
C1003 H1029 0.929 . S
C1004 C1002 1.320 . S
C1004 C1005 1.405 . S
C1004 H1030 0.930 . S
C1005 C1000 1.479 . S
C1005 C1004 1.405 . S
C1005 H1031 0.931 . S
U1006 O1007 2.454 . S
U1006 O1008 2.458 . S
U1006 C1009 2.984 . S
U1006 C1010 2.847 . S
U1006 C1023 2.882 . S
U1006 O1024 2.441 . S
U1006 O1025 2.420 . S
U1006 O1026 2.455 . S
U1006 O1027 2.449 . S
O1007 U1006 2.454 . S
O1007 C1009 1.353 . S
O1008 U1006 2.458 . S
O1008 C1009 1.286 . S
C1009 U1006 2.984 . S
C1009 O1007 1.353 . S
C1009 O1008 1.286 . S
C1009 C1011 1.363 . S
C1010 C1000 1.465 . S
C1010 U1006 2.847 . S
C1010 O1024 1.249 . S
C1010 O1025 1.202 . S
C1011 C1009 1.363 . S
C1011 C1013 1.408 . S
C1011 C1016 1.342 . S
C1012 C1013 1.310 . S
C1012 C1015 1.461 . S
C1012 H1032 0.932 . S
C1013 C1011 1.408 . S
C1013 C1012 1.310 . S
C1013 H1033 0.930 . S
C1014 C1015 1.474 . S
C1014 C1016 1.285 . S
C1014 H1034 0.929 . S
C1015 C1012 1.461 . S
C1015 C1014 1.474 . S
C1016 C1011 1.342 . S
C1016 C1014 1.285 . S
C1016 H1035 0.930 . S
C1017 C1020 1.424 . S
C1017 C1022 1.245 . S
C1017 C1023 1.428 . S
C1018 C1021 1.260 . S
C1018 C1022 1.477 . S
C1018 H1036 0.932 . S
C1019 C1020 1.384 . S
C1019 C1021 1.479 . S
C1019 H1037 0.929 . S
C1020 C1017 1.424 . S
C1020 C1019 1.384 . S
C1020 H1038 0.928 . S
C1021 C1018 1.260 . S
C1021 C1019 1.479 . S
C1022 C1017 1.245 . S
C1022 C1018 1.477 . S
C1022 H1039 0.932 . S
C1023 U1006 2.882 . S
C1023 C1017 1.428 . S
C1023 O1026 1.301 . S
C1023 O1027 1.282 . S
O1024 U1006 2.441 . S
O1024 C1010 1.249 . S
O1025 U1006 2.420 . S
O1025 C1010 1.202 . S
O1026 U1006 2.455 . S
O1026 C1023 1.301 . S
O1027 U1006 2.449 . S
O1027 C1023 1.282 . S
H1028 C1001 0.931 . S
H1029 C1003 0.929 . S
H1030 C1004 0.930 . S
H1031 C1005 0.931 . S
H1032 C1012 0.932 . S
H1033 C1013 0.930 . S
H1034 C1014 0.929 . S
H1035 C1016 0.930 . S
H1036 C1018 0.932 . S
H1037 C1019 0.929 . S
H1038 C1020 0.928 . S
H1039 C1022 0.932 . S
C1040 C1041 1.264 . S
C1040 C1045 1.479 . S
C1040 C1050 1.465 . S
C1041 C1040 1.264 . S
C1041 C1043 1.339 . S
C1041 H1068 0.931 . S
C1042 C1043 1.395 . S
C1042 C1044 1.320 . S
C1043 C1041 1.339 . S
C1043 C1042 1.395 . S
C1043 H1069 0.929 . S
C1044 C1042 1.320 . S
C1044 C1045 1.405 . S
C1044 H1070 0.930 . S
C1045 C1040 1.479 . S
C1045 C1044 1.405 . S
C1045 H1071 0.931 . S
U1046 O1047 2.454 . S
U1046 O1048 2.458 . S
U1046 C1049 2.984 . S
U1046 C1050 2.847 . S
U1046 C1063 2.882 . S
U1046 O1064 2.441 . S
U1046 O1065 2.420 . S
U1046 O1066 2.455 . S
U1046 O1067 2.449 . S
O1047 U1046 2.454 . S
O1047 C1049 1.353 . S
O1048 U1046 2.458 . S
O1048 C1049 1.286 . S
C1049 U1046 2.984 . S
C1049 O1047 1.353 . S
C1049 O1048 1.286 . S
C1049 C1051 1.363 . S
C1050 C1040 1.465 . S
C1050 U1046 2.847 . S
C1050 O1064 1.249 . S
C1050 O1065 1.202 . S
C1051 C1049 1.363 . S
C1051 C1053 1.408 . S
C1051 C1056 1.342 . S
C1052 C1053 1.310 . S
C1052 C1055 1.461 . S
C1052 H1072 0.932 . S
C1053 C1051 1.408 . S
C1053 C1052 1.310 . S
C1053 H1073 0.930 . S
C1054 C1055 1.474 . S
C1054 C1056 1.285 . S
C1054 H1074 0.929 . S
C1055 C1052 1.461 . S
C1055 C1054 1.474 . S
C1056 C1051 1.342 . S
C1056 C1054 1.285 . S
C1056 H1075 0.930 . S
C1057 C1060 1.424 . S
C1057 C1062 1.245 . S
C1057 C1063 1.428 . S
C1058 C1061 1.260 . S
C1058 C1062 1.477 . S
C1058 H1076 0.932 . S
C1059 C1060 1.384 . S
C1059 C1061 1.479 . S
C1059 H1077 0.929 . S
C1060 C1057 1.424 . S
C1060 C1059 1.384 . S
C1060 H1078 0.928 . S
C1061 C1058 1.260 . S
C1061 C1059 1.479 . S
C1062 C1057 1.245 . S
C1062 C1058 1.477 . S
C1062 H1079 0.932 . S
C1063 U1046 2.882 . S
C1063 C1057 1.428 . S
C1063 O1066 1.301 . S
C1063 O1067 1.282 . S
O1064 U1046 2.441 . S
O1064 C1050 1.249 . S
O1065 U1046 2.420 . S
O1065 C1050 1.202 . S
O1066 U1046 2.455 . S
O1066 C1063 1.301 . S
O1067 U1046 2.449 . S
O1067 C1063 1.282 . S
H1068 C1041 0.931 . S
H1069 C1043 0.929 . S
H1070 C1044 0.930 . S
H1071 C1045 0.931 . S
H1072 C1052 0.932 . S
H1073 C1053 0.930 . S
H1074 C1054 0.929 . S
H1075 C1056 0.930 . S
H1076 C1058 0.932 . S
H1077 C1059 0.929 . S
H1078 C1060 0.928 . S
H1079 C1062 0.932 . S
C1080 C1081 1.264 . S
C1080 C1085 1.479 . S
C1080 C1090 1.465 . S
C1081 C1080 1.264 . S
C1081 C1083 1.339 . S
C1081 H1108 0.931 . S
C1082 C1083 1.395 . S
C1082 C1084 1.320 . S
C1083 C1081 1.339 . S
C1083 C1082 1.395 . S
C1083 H1109 0.929 . S
C1084 C1082 1.320 . S
C1084 C1085 1.405 . S
C1084 H1110 0.930 . S
C1085 C1080 1.479 . S
C1085 C1084 1.405 . S
C1085 H1111 0.931 . S
U1086 O1087 2.454 . S
U1086 O1088 2.458 . S
U1086 C1089 2.984 . S
U1086 C1090 2.847 . S
U1086 C1103 2.882 . S
U1086 O1104 2.441 . S
U1086 O1105 2.420 . S
U1086 O1106 2.455 . S
U1086 O1107 2.449 . S
O1087 U1086 2.454 . S
O1087 C1089 1.353 . S
O1088 U1086 2.458 . S
O1088 C1089 1.286 . S
C1089 U1086 2.984 . S
C1089 O1087 1.353 . S
C1089 O1088 1.286 . S
C1089 C1091 1.363 . S
C1090 C1080 1.465 . S
C1090 U1086 2.847 . S
C1090 O1104 1.249 . S
C1090 O1105 1.202 . S
C1091 C1089 1.363 . S
C1091 C1093 1.408 . S
C1091 C1096 1.342 . S
C1092 C1093 1.310 . S
C1092 C1095 1.461 . S
C1092 H1112 0.932 . S
C1093 C1091 1.408 . S
C1093 C1092 1.310 . S
C1093 H1113 0.930 . S
C1094 C1095 1.474 . S
C1094 C1096 1.285 . S
C1094 H1114 0.929 . S
C1095 C1092 1.461 . S
C1095 C1094 1.474 . S
C1096 C1091 1.342 . S
C1096 C1094 1.285 . S
C1096 H1115 0.930 . S
C1097 C1100 1.424 . S
C1097 C1102 1.245 . S
C1097 C1103 1.428 . S
C1098 C1101 1.260 . S
C1098 C1102 1.477 . S
C1098 H1116 0.932 . S
C1099 C1100 1.384 . S
C1099 C1101 1.479 . S
C1099 H1117 0.929 . S
C1100 C1097 1.424 . S
C1100 C1099 1.384 . S
C1100 H1118 0.928 . S
C1101 C1098 1.260 . S
C1101 C1099 1.479 . S
C1102 C1097 1.245 . S
C1102 C1098 1.477 . S
C1102 H1119 0.932 . S
C1103 U1086 2.882 . S
C1103 C1097 1.428 . S
C1103 O1106 1.301 . S
C1103 O1107 1.282 . S
O1104 U1086 2.441 . S
O1104 C1090 1.249 . S
O1105 U1086 2.420 . S
O1105 C1090 1.202 . S
O1106 U1086 2.455 . S
O1106 C1103 1.301 . S
O1107 U1086 2.449 . S
O1107 C1103 1.282 . S
H1108 C1081 0.931 . S
H1109 C1083 0.929 . S
H1110 C1084 0.930 . S
H1111 C1085 0.931 . S
H1112 C1092 0.932 . S
H1113 C1093 0.930 . S
H1114 C1094 0.929 . S
H1115 C1096 0.930 . S
H1116 C1098 0.932 . S
H1117 C1099 0.929 . S
H1118 C1100 0.928 . S
H1119 C1102 0.932 . S
C1120 C1121 1.264 . S
C1120 C1125 1.479 . S
C1120 C1130 1.465 . S
C1121 C1120 1.264 . S
C1121 C1123 1.339 . S
C1121 H1148 0.931 . S
C1122 C1123 1.395 . S
C1122 C1124 1.320 . S
C1123 C1121 1.339 . S
C1123 C1122 1.395 . S
C1123 H1149 0.929 . S
C1124 C1122 1.320 . S
C1124 C1125 1.405 . S
C1124 H1150 0.930 . S
C1125 C1120 1.479 . S
C1125 C1124 1.405 . S
C1125 H1151 0.931 . S
U1126 O1127 2.454 . S
U1126 O1128 2.458 . S
U1126 C1129 2.984 . S
U1126 C1130 2.847 . S
U1126 C1143 2.882 . S
U1126 O1144 2.441 . S
U1126 O1145 2.420 . S
U1126 O1146 2.455 . S
U1126 O1147 2.449 . S
O1127 U1126 2.454 . S
O1127 C1129 1.353 . S
O1128 U1126 2.458 . S
O1128 C1129 1.286 . S
C1129 U1126 2.984 . S
C1129 O1127 1.353 . S
C1129 O1128 1.286 . S
C1129 C1131 1.363 . S
C1130 C1120 1.465 . S
C1130 U1126 2.847 . S
C1130 O1144 1.249 . S
C1130 O1145 1.202 . S
C1131 C1129 1.363 . S
C1131 C1133 1.408 . S
C1131 C1136 1.342 . S
C1132 C1133 1.310 . S
C1132 C1135 1.461 . S
C1132 H1152 0.932 . S
C1133 C1131 1.408 . S
C1133 C1132 1.310 . S
C1133 H1153 0.930 . S
C1134 C1135 1.474 . S
C1134 C1136 1.285 . S
C1134 H1154 0.929 . S
C1135 C1132 1.461 . S
C1135 C1134 1.474 . S
C1136 C1131 1.342 . S
C1136 C1134 1.285 . S
C1136 H1155 0.930 . S
C1137 C1140 1.424 . S
C1137 C1142 1.245 . S
C1137 C1143 1.428 . S
C1138 C1141 1.260 . S
C1138 C1142 1.477 . S
C1138 H1156 0.932 . S
C1139 C1140 1.384 . S
C1139 C1141 1.479 . S
C1139 H1157 0.929 . S
C1140 C1137 1.424 . S
C1140 C1139 1.384 . S
C1140 H1158 0.928 . S
C1141 C1138 1.260 . S
C1141 C1139 1.479 . S
C1142 C1137 1.245 . S
C1142 C1138 1.477 . S
C1142 H1159 0.932 . S
C1143 U1126 2.882 . S
C1143 C1137 1.428 . S
C1143 O1146 1.301 . S
C1143 O1147 1.282 . S
O1144 U1126 2.441 . S
O1144 C1130 1.249 . S
O1145 U1126 2.420 . S
O1145 C1130 1.202 . S
O1146 U1126 2.455 . S
O1146 C1143 1.301 . S
O1147 U1126 2.449 . S
O1147 C1143 1.282 . S
H1148 C1121 0.931 . S
H1149 C1123 0.929 . S
H1150 C1124 0.930 . S
H1151 C1125 0.931 . S
H1152 C1132 0.932 . S
H1153 C1133 0.930 . S
H1154 C1134 0.929 . S
H1155 C1136 0.930 . S
H1156 C1138 0.932 . S
H1157 C1139 0.929 . S
H1158 C1140 0.928 . S
H1159 C1142 0.932 . S
C1160 C1161 1.264 . S
C1160 C1165 1.479 . S
C1160 C1170 1.465 . S
C1161 C1160 1.264 . S
C1161 C1163 1.339 . S
C1161 H1188 0.931 . S
C1162 C1163 1.395 . S
C1162 C1164 1.320 . S
C1163 C1161 1.339 . S
C1163 C1162 1.395 . S
C1163 H1189 0.929 . S
C1164 C1162 1.320 . S
C1164 C1165 1.405 . S
C1164 H1190 0.930 . S
C1165 C1160 1.479 . S
C1165 C1164 1.405 . S
C1165 H1191 0.931 . S
U1166 O1167 2.454 . S
U1166 O1168 2.458 . S
U1166 C1169 2.984 . S
U1166 C1170 2.847 . S
U1166 C1183 2.882 . S
U1166 O1184 2.441 . S
U1166 O1185 2.420 . S
U1166 O1186 2.455 . S
U1166 O1187 2.449 . S
O1167 U1166 2.454 . S
O1167 C1169 1.353 . S
O1168 U1166 2.458 . S
O1168 C1169 1.286 . S
C1169 U1166 2.984 . S
C1169 O1167 1.353 . S
C1169 O1168 1.286 . S
C1169 C1171 1.363 . S
C1170 C1160 1.465 . S
C1170 U1166 2.847 . S
C1170 O1184 1.249 . S
C1170 O1185 1.202 . S
C1171 C1169 1.363 . S
C1171 C1173 1.408 . S
C1171 C1176 1.342 . S
C1172 C1173 1.310 . S
C1172 C1175 1.461 . S
C1172 H1192 0.932 . S
C1173 C1171 1.408 . S
C1173 C1172 1.310 . S
C1173 H1193 0.930 . S
C1174 C1175 1.474 . S
C1174 C1176 1.285 . S
C1174 H1194 0.929 . S
C1175 C1172 1.461 . S
C1175 C1174 1.474 . S
C1176 C1171 1.342 . S
C1176 C1174 1.285 . S
C1176 H1195 0.930 . S
C1177 C1180 1.424 . S
C1177 C1182 1.245 . S
C1177 C1183 1.428 . S
C1178 C1181 1.260 . S
C1178 C1182 1.477 . S
C1178 H1196 0.932 . S
C1179 C1180 1.384 . S
C1179 C1181 1.479 . S
C1179 H1197 0.929 . S
C1180 C1177 1.424 . S
C1180 C1179 1.384 . S
C1180 H1198 0.928 . S
C1181 C1178 1.260 . S
C1181 C1179 1.479 . S
C1182 C1177 1.245 . S
C1182 C1178 1.477 . S
C1182 H1199 0.932 . S
C1183 U1166 2.882 . S
C1183 C1177 1.428 . S
C1183 O1186 1.301 . S
C1183 O1187 1.282 . S
O1184 U1166 2.441 . S
O1184 C1170 1.249 . S
O1185 U1166 2.420 . S
O1185 C1170 1.202 . S
O1186 U1166 2.455 . S
O1186 C1183 1.301 . S
O1187 U1166 2.449 . S
O1187 C1183 1.282 . S
H1188 C1161 0.931 . S
H1189 C1163 0.929 . S
H1190 C1164 0.930 . S
H1191 C1165 0.931 . S
H1192 C1172 0.932 . S
H1193 C1173 0.930 . S
H1194 C1174 0.929 . S
H1195 C1176 0.930 . S
H1196 C1178 0.932 . S
H1197 C1179 0.929 . S
H1198 C1180 0.928 . S
H1199 C1182 0.932 . S
C1200 C1201 1.264 . S
C1200 C1205 1.479 . S
C1200 C1210 1.465 . S
C1201 C1200 1.264 . S
C1201 C1203 1.339 . S
C1201 H1228 0.931 . S
C1202 C1203 1.395 . S
C1202 C1204 1.320 . S
C1203 C1201 1.339 . S
C1203 C1202 1.395 . S
C1203 H1229 0.929 . S
C1204 C1202 1.320 . S
C1204 C1205 1.405 . S
C1204 H1230 0.930 . S
C1205 C1200 1.479 . S
C1205 C1204 1.405 . S
C1205 H1231 0.931 . S
U1206 O1207 2.454 . S
U1206 O1208 2.458 . S
U1206 C1209 2.984 . S
U1206 C1210 2.847 . S
U1206 C1223 2.882 . S
U1206 O1224 2.441 . S
U1206 O1225 2.420 . S
U1206 O1226 2.455 . S
U1206 O1227 2.449 . S
O1207 U1206 2.454 . S
O1207 C1209 1.353 . S
O1208 U1206 2.458 . S
O1208 C1209 1.286 . S
C1209 U1206 2.984 . S
C1209 O1207 1.353 . S
C1209 O1208 1.286 . S
C1209 C1211 1.363 . S
C1210 C1200 1.465 . S
C1210 U1206 2.847 . S
C1210 O1224 1.249 . S
C1210 O1225 1.202 . S
C1211 C1209 1.363 . S
C1211 C1213 1.408 . S
C1211 C1216 1.342 . S
C1212 C1213 1.310 . S
C1212 C1215 1.461 . S
C1212 H1232 0.932 . S
C1213 C1211 1.408 . S
C1213 C1212 1.310 . S
C1213 H1233 0.930 . S
C1214 C1215 1.474 . S
C1214 C1216 1.285 . S
C1214 H1234 0.929 . S
C1215 C1212 1.461 . S
C1215 C1214 1.474 . S
C1216 C1211 1.342 . S
C1216 C1214 1.285 . S
C1216 H1235 0.930 . S
C1217 C1220 1.424 . S
C1217 C1222 1.245 . S
C1217 C1223 1.428 . S
C1218 C1221 1.260 . S
C1218 C1222 1.477 . S
C1218 H1236 0.932 . S
C1219 C1220 1.384 . S
C1219 C1221 1.479 . S
C1219 H1237 0.929 . S
C1220 C1217 1.424 . S
C1220 C1219 1.384 . S
C1220 H1238 0.928 . S
C1221 C1218 1.260 . S
C1221 C1219 1.479 . S
C1222 C1217 1.245 . S
C1222 C1218 1.477 . S
C1222 H1239 0.932 . S
C1223 U1206 2.882 . S
C1223 C1217 1.428 . S
C1223 O1226 1.301 . S
C1223 O1227 1.282 . S
O1224 U1206 2.441 . S
O1224 C1210 1.249 . S
O1225 U1206 2.420 . S
O1225 C1210 1.202 . S
O1226 U1206 2.455 . S
O1226 C1223 1.301 . S
O1227 U1206 2.449 . S
O1227 C1223 1.282 . S
H1228 C1201 0.931 . S
H1229 C1203 0.929 . S
H1230 C1204 0.930 . S
H1231 C1205 0.931 . S
H1232 C1212 0.932 . S
H1233 C1213 0.930 . S
H1234 C1214 0.929 . S
H1235 C1216 0.930 . S
H1236 C1218 0.932 . S
H1237 C1219 0.929 . S
H1238 C1220 0.928 . S
H1239 C1222 0.932 . S
C1240 C1241 1.264 . S
C1240 C1245 1.479 . S
C1240 C1250 1.465 . S
C1241 C1240 1.264 . S
C1241 C1243 1.339 . S
C1241 H1268 0.931 . S
C1242 C1243 1.395 . S
C1242 C1244 1.320 . S
C1243 C1241 1.339 . S
C1243 C1242 1.395 . S
C1243 H1269 0.929 . S
C1244 C1242 1.320 . S
C1244 C1245 1.405 . S
C1244 H1270 0.930 . S
C1245 C1240 1.479 . S
C1245 C1244 1.405 . S
C1245 H1271 0.931 . S
U1246 O1247 2.454 . S
U1246 O1248 2.458 . S
U1246 C1249 2.984 . S
U1246 C1250 2.847 . S
U1246 C1263 2.882 . S
U1246 O1264 2.441 . S
U1246 O1265 2.420 . S
U1246 O1266 2.455 . S
U1246 O1267 2.449 . S
O1247 U1246 2.454 . S
O1247 C1249 1.353 . S
O1248 U1246 2.458 . S
O1248 C1249 1.286 . S
C1249 U1246 2.984 . S
C1249 O1247 1.353 . S
C1249 O1248 1.286 . S
C1249 C1251 1.363 . S
C1250 C1240 1.465 . S
C1250 U1246 2.847 . S
C1250 O1264 1.249 . S
C1250 O1265 1.202 . S
C1251 C1249 1.363 . S
C1251 C1253 1.408 . S
C1251 C1256 1.342 . S
C1252 C1253 1.310 . S
C1252 C1255 1.461 . S
C1252 H1272 0.932 . S
C1253 C1251 1.408 . S
C1253 C1252 1.310 . S
C1253 H1273 0.930 . S
C1254 C1255 1.474 . S
C1254 C1256 1.285 . S
C1254 H1274 0.929 . S
C1255 C1252 1.461 . S
C1255 C1254 1.474 . S
C1256 C1251 1.342 . S
C1256 C1254 1.285 . S
C1256 H1275 0.930 . S
C1257 C1260 1.424 . S
C1257 C1262 1.245 . S
C1257 C1263 1.428 . S
C1258 C1261 1.260 . S
C1258 C1262 1.477 . S
C1258 H1276 0.932 . S
C1259 C1260 1.384 . S
C1259 C1261 1.479 . S
C1259 H1277 0.929 . S
C1260 C1257 1.424 . S
C1260 C1259 1.384 . S
C1260 H1278 0.928 . S
C1261 C1258 1.260 . S
C1261 C1259 1.479 . S
C1262 C1257 1.245 . S
C1262 C1258 1.477 . S
C1262 H1279 0.932 . S
C1263 U1246 2.882 . S
C1263 C1257 1.428 . S
C1263 O1266 1.301 . S
C1263 O1267 1.282 . S
O1264 U1246 2.441 . S
O1264 C1250 1.249 . S
O1265 U1246 2.420 . S
O1265 C1250 1.202 . S
O1266 U1246 2.455 . S
O1266 C1263 1.301 . S
O1267 U1246 2.449 . S
O1267 C1263 1.282 . S
H1268 C1241 0.931 . S
H1269 C1243 0.929 . S
H1270 C1244 0.930 . S
H1271 C1245 0.931 . S
H1272 C1252 0.932 . S
H1273 C1253 0.930 . S
H1274 C1254 0.929 . S
H1275 C1256 0.930 . S
H1276 C1258 0.932 . S
H1277 C1259 0.929 . S
H1278 C1260 0.928 . S
H1279 C1262 0.932 . S
C1280 C1281 1.264 . S
C1280 C1285 1.479 . S
C1280 C1290 1.465 . S
C1281 C1280 1.264 . S
C1281 C1283 1.339 . S
C1281 H1308 0.931 . S
C1282 C1283 1.395 . S
C1282 C1284 1.320 . S
C1283 C1281 1.339 . S
C1283 C1282 1.395 . S
C1283 H1309 0.929 . S
C1284 C1282 1.320 . S
C1284 C1285 1.405 . S
C1284 H1310 0.930 . S
C1285 C1280 1.479 . S
C1285 C1284 1.405 . S
C1285 H1311 0.931 . S
U1286 O1287 2.454 . S
U1286 O1288 2.458 . S
U1286 C1289 2.984 . S
U1286 C1290 2.847 . S
U1286 C1303 2.882 . S
U1286 O1304 2.441 . S
U1286 O1305 2.420 . S
U1286 O1306 2.455 . S
U1286 O1307 2.449 . S
O1287 U1286 2.454 . S
O1287 C1289 1.353 . S
O1288 U1286 2.458 . S
O1288 C1289 1.286 . S
C1289 U1286 2.984 . S
C1289 O1287 1.353 . S
C1289 O1288 1.286 . S
C1289 C1291 1.363 . S
C1290 C1280 1.465 . S
C1290 U1286 2.847 . S
C1290 O1304 1.249 . S
C1290 O1305 1.202 . S
C1291 C1289 1.363 . S
C1291 C1293 1.408 . S
C1291 C1296 1.342 . S
C1292 C1293 1.310 . S
C1292 C1295 1.461 . S
C1292 H1312 0.932 . S
C1293 C1291 1.408 . S
C1293 C1292 1.310 . S
C1293 H1313 0.930 . S
C1294 C1295 1.474 . S
C1294 C1296 1.285 . S
C1294 H1314 0.929 . S
C1295 C1292 1.461 . S
C1295 C1294 1.474 . S
C1296 C1291 1.342 . S
C1296 C1294 1.285 . S
C1296 H1315 0.930 . S
C1297 C1300 1.424 . S
C1297 C1302 1.245 . S
C1297 C1303 1.428 . S
C1298 C1301 1.260 . S
C1298 C1302 1.477 . S
C1298 H1316 0.932 . S
C1299 C1300 1.384 . S
C1299 C1301 1.479 . S
C1299 H1317 0.929 . S
C1300 C1297 1.424 . S
C1300 C1299 1.384 . S
C1300 H1318 0.928 . S
C1301 C1298 1.260 . S
C1301 C1299 1.479 . S
C1302 C1297 1.245 . S
C1302 C1298 1.477 . S
C1302 H1319 0.932 . S
C1303 U1286 2.882 . S
C1303 C1297 1.428 . S
C1303 O1306 1.301 . S
C1303 O1307 1.282 . S
O1304 U1286 2.441 . S
O1304 C1290 1.249 . S
O1305 U1286 2.420 . S
O1305 C1290 1.202 . S
O1306 U1286 2.455 . S
O1306 C1303 1.301 . S
O1307 U1286 2.449 . S
O1307 C1303 1.282 . S
H1308 C1281 0.931 . S
H1309 C1283 0.929 . S
H1310 C1284 0.930 . S
H1311 C1285 0.931 . S
H1312 C1292 0.932 . S
H1313 C1293 0.930 . S
H1314 C1294 0.929 . S
H1315 C1296 0.930 . S
H1316 C1298 0.932 . S
H1317 C1299 0.929 . S
H1318 C1300 0.928 . S
H1319 C1302 0.932 . S
C1320 C1321 1.264 . S
C1320 C1325 1.479 . S
C1320 C1330 1.465 . S
C1321 C1320 1.264 . S
C1321 C1323 1.339 . S
C1321 H1348 0.931 . S
C1322 C1323 1.395 . S
C1322 C1324 1.320 . S
C1323 C1321 1.339 . S
C1323 C1322 1.395 . S
C1323 H1349 0.929 . S
C1324 C1322 1.320 . S
C1324 C1325 1.405 . S
C1324 H1350 0.930 . S
C1325 C1320 1.479 . S
C1325 C1324 1.405 . S
C1325 H1351 0.931 . S
U1326 O1327 2.454 . S
U1326 O1328 2.458 . S
U1326 C1329 2.984 . S
U1326 C1330 2.847 . S
U1326 C1343 2.882 . S
U1326 O1344 2.441 . S
U1326 O1345 2.420 . S
U1326 O1346 2.455 . S
U1326 O1347 2.449 . S
O1327 U1326 2.454 . S
O1327 C1329 1.353 . S
O1328 U1326 2.458 . S
O1328 C1329 1.286 . S
C1329 U1326 2.984 . S
C1329 O1327 1.353 . S
C1329 O1328 1.286 . S
C1329 C1331 1.363 . S
C1330 C1320 1.465 . S
C1330 U1326 2.847 . S
C1330 O1344 1.249 . S
C1330 O1345 1.202 . S
C1331 C1329 1.363 . S
C1331 C1333 1.408 . S
C1331 C1336 1.342 . S
C1332 C1333 1.310 . S
C1332 C1335 1.461 . S
C1332 H1352 0.932 . S
C1333 C1331 1.408 . S
C1333 C1332 1.310 . S
C1333 H1353 0.930 . S
C1334 C1335 1.474 . S
C1334 C1336 1.285 . S
C1334 H1354 0.929 . S
C1335 C1332 1.461 . S
C1335 C1334 1.474 . S
C1336 C1331 1.342 . S
C1336 C1334 1.285 . S
C1336 H1355 0.930 . S
C1337 C1340 1.424 . S
C1337 C1342 1.245 . S
C1337 C1343 1.428 . S
C1338 C1341 1.260 . S
C1338 C1342 1.477 . S
C1338 H1356 0.932 . S
C1339 C1340 1.384 . S
C1339 C1341 1.479 . S
C1339 H1357 0.929 . S
C1340 C1337 1.424 . S
C1340 C1339 1.384 . S
C1340 H1358 0.928 . S
C1341 C1338 1.260 . S
C1341 C1339 1.479 . S
C1342 C1337 1.245 . S
C1342 C1338 1.477 . S
C1342 H1359 0.932 . S
C1343 U1326 2.882 . S
C1343 C1337 1.428 . S
C1343 O1346 1.301 . S
C1343 O1347 1.282 . S
O1344 U1326 2.441 . S
O1344 C1330 1.249 . S
O1345 U1326 2.420 . S
O1345 C1330 1.202 . S
O1346 U1326 2.455 . S
O1346 C1343 1.301 . S
O1347 U1326 2.449 . S
O1347 C1343 1.282 . S
H1348 C1321 0.931 . S
H1349 C1323 0.929 . S
H1350 C1324 0.930 . S
H1351 C1325 0.931 . S
H1352 C1332 0.932 . S
H1353 C1333 0.930 . S
H1354 C1334 0.929 . S
H1355 C1336 0.930 . S
H1356 C1338 0.932 . S
H1357 C1339 0.929 . S
H1358 C1340 0.928 . S
H1359 C1342 0.932 . S
C1360 C1361 1.264 . S
C1360 C1365 1.479 . S
C1360 C1370 1.465 . S
C1361 C1360 1.264 . S
C1361 C1363 1.339 . S
C1361 H1388 0.931 . S
C1362 C1363 1.395 . S
C1362 C1364 1.320 . S
C1363 C1361 1.339 . S
C1363 C1362 1.395 . S
C1363 H1389 0.929 . S
C1364 C1362 1.320 . S
C1364 C1365 1.405 . S
C1364 H1390 0.930 . S
C1365 C1360 1.479 . S
C1365 C1364 1.405 . S
C1365 H1391 0.931 . S
U1366 O1367 2.454 . S
U1366 O1368 2.458 . S
U1366 C1369 2.984 . S
U1366 C1370 2.847 . S
U1366 C1383 2.882 . S
U1366 O1384 2.441 . S
U1366 O1385 2.420 . S
U1366 O1386 2.455 . S
U1366 O1387 2.449 . S
O1367 U1366 2.454 . S
O1367 C1369 1.353 . S
O1368 U1366 2.458 . S
O1368 C1369 1.286 . S
C1369 U1366 2.984 . S
C1369 O1367 1.353 . S
C1369 O1368 1.286 . S
C1369 C1371 1.363 . S
C1370 C1360 1.465 . S
C1370 U1366 2.847 . S
C1370 O1384 1.249 . S
C1370 O1385 1.202 . S
C1371 C1369 1.363 . S
C1371 C1373 1.408 . S
C1371 C1376 1.342 . S
C1372 C1373 1.310 . S
C1372 C1375 1.461 . S
C1372 H1392 0.932 . S
C1373 C1371 1.408 . S
C1373 C1372 1.310 . S
C1373 H1393 0.930 . S
C1374 C1375 1.474 . S
C1374 C1376 1.285 . S
C1374 H1394 0.929 . S
C1375 C1372 1.461 . S
C1375 C1374 1.474 . S
C1376 C1371 1.342 . S
C1376 C1374 1.285 . S
C1376 H1395 0.930 . S
C1377 C1380 1.424 . S
C1377 C1382 1.245 . S
C1377 C1383 1.428 . S
C1378 C1381 1.260 . S
C1378 C1382 1.477 . S
C1378 H1396 0.932 . S
C1379 C1380 1.384 . S
C1379 C1381 1.479 . S
C1379 H1397 0.929 . S
C1380 C1377 1.424 . S
C1380 C1379 1.384 . S
C1380 H1398 0.928 . S
C1381 C1378 1.260 . S
C1381 C1379 1.479 . S
C1382 C1377 1.245 . S
C1382 C1378 1.477 . S
C1382 H1399 0.932 . S
C1383 U1366 2.882 . S
C1383 C1377 1.428 . S
C1383 O1386 1.301 . S
C1383 O1387 1.282 . S
O1384 U1366 2.441 . S
O1384 C1370 1.249 . S
O1385 U1366 2.420 . S
O1385 C1370 1.202 . S
O1386 U1366 2.455 . S
O1386 C1383 1.301 . S
O1387 U1366 2.449 . S
O1387 C1383 1.282 . S
H1388 C1361 0.931 . S
H1389 C1363 0.929 . S
H1390 C1364 0.930 . S
H1391 C1365 0.931 . S
H1392 C1372 0.932 . S
H1393 C1373 0.930 . S
H1394 C1374 0.929 . S
H1395 C1376 0.930 . S
H1396 C1378 0.932 . S
H1397 C1379 0.929 . S
H1398 C1380 0.928 . S
H1399 C1382 0.932 . S
C1400 C1401 1.264 . S
C1400 C1405 1.479 . S
C1400 C1410 1.465 . S
C1401 C1400 1.264 . S
C1401 C1403 1.339 . S
C1401 H1428 0.931 . S
C1402 C1403 1.395 . S
C1402 C1404 1.320 . S
C1403 C1401 1.339 . S
C1403 C1402 1.395 . S
C1403 H1429 0.929 . S
C1404 C1402 1.320 . S
C1404 C1405 1.405 . S
C1404 H1430 0.930 . S
C1405 C1400 1.479 . S
C1405 C1404 1.405 . S
C1405 H1431 0.931 . S
U1406 O1407 2.454 . S
U1406 O1408 2.458 . S
U1406 C1409 2.984 . S
U1406 C1410 2.847 . S
U1406 C1423 2.882 . S
U1406 O1424 2.441 . S
U1406 O1425 2.420 . S
U1406 O1426 2.455 . S
U1406 O1427 2.449 . S
O1407 U1406 2.454 . S
O1407 C1409 1.353 . S
O1408 U1406 2.458 . S
O1408 C1409 1.286 . S
C1409 U1406 2.984 . S
C1409 O1407 1.353 . S
C1409 O1408 1.286 . S
C1409 C1411 1.363 . S
C1410 C1400 1.465 . S
C1410 U1406 2.847 . S
C1410 O1424 1.249 . S
C1410 O1425 1.202 . S
C1411 C1409 1.363 . S
C1411 C1413 1.408 . S
C1411 C1416 1.342 . S
C1412 C1413 1.310 . S
C1412 C1415 1.461 . S
C1412 H1432 0.932 . S
C1413 C1411 1.408 . S
C1413 C1412 1.310 . S
C1413 H1433 0.930 . S
C1414 C1415 1.474 . S
C1414 C1416 1.285 . S
C1414 H1434 0.929 . S
C1415 C1412 1.461 . S
C1415 C1414 1.474 . S
C1416 C1411 1.342 . S
C1416 C1414 1.285 . S
C1416 H1435 0.930 . S
C1417 C1420 1.424 . S
C1417 C1422 1.245 . S
C1417 C1423 1.428 . S
C1418 C1421 1.260 . S
C1418 C1422 1.477 . S
C1418 H1436 0.932 . S
C1419 C1420 1.384 . S
C1419 C1421 1.479 . S
C1419 H1437 0.929 . S
C1420 C1417 1.424 . S
C1420 C1419 1.384 . S
C1420 H1438 0.928 . S
C1421 C1418 1.260 . S
C1421 C1419 1.479 . S
C1422 C1417 1.245 . S
C1422 C1418 1.477 . S
C1422 H1439 0.932 . S
C1423 U1406 2.882 . S
C1423 C1417 1.428 . S
C1423 O1426 1.301 . S
C1423 O1427 1.282 . S
O1424 U1406 2.441 . S
O1424 C1410 1.249 . S
O1425 U1406 2.420 . S
O1425 C1410 1.202 . S
O1426 U1406 2.455 . S
O1426 C1423 1.301 . S
O1427 U1406 2.449 . S
O1427 C1423 1.282 . S
H1428 C1401 0.931 . S
H1429 C1403 0.929 . S
H1430 C1404 0.930 . S
H1431 C1405 0.931 . S
H1432 C1412 0.932 . S
H1433 C1413 0.930 . S
H1434 C1414 0.929 . S
H1435 C1416 0.930 . S
H1436 C1418 0.932 . S
H1437 C1419 0.929 . S
H1438 C1420 0.928 . S
H1439 C1422 0.932 . S
C1440 C1441 1.264 . S
C1440 C1445 1.479 . S
C1440 C1450 1.465 . S
C1441 C1440 1.264 . S
C1441 C1443 1.339 . S
C1441 H1468 0.931 . S
C1442 C1443 1.395 . S
C1442 C1444 1.320 . S
C1443 C1441 1.339 . S
C1443 C1442 1.395 . S
C1443 H1469 0.929 . S
C1444 C1442 1.320 . S
C1444 C1445 1.405 . S
C1444 H1470 0.930 . S
C1445 C1440 1.479 . S
C1445 C1444 1.405 . S
C1445 H1471 0.931 . S
U1446 O1447 2.454 . S
U1446 O1448 2.458 . S
U1446 C1449 2.984 . S
U1446 C1450 2.847 . S
U1446 C1463 2.882 . S
U1446 O1464 2.441 . S
U1446 O1465 2.420 . S
U1446 O1466 2.455 . S
U1446 O1467 2.449 . S
O1447 U1446 2.454 . S
O1447 C1449 1.353 . S
O1448 U1446 2.458 . S
O1448 C1449 1.286 . S
C1449 U1446 2.984 . S
C1449 O1447 1.353 . S
C1449 O1448 1.286 . S
C1449 C1451 1.363 . S
C1450 C1440 1.465 . S
C1450 U1446 2.847 . S
C1450 O1464 1.249 . S
C1450 O1465 1.202 . S
C1451 C1449 1.363 . S
C1451 C1453 1.408 . S
C1451 C1456 1.342 . S
C1452 C1453 1.310 . S
C1452 C1455 1.461 . S
C1452 H1472 0.932 . S
C1453 C1451 1.408 . S
C1453 C1452 1.310 . S
C1453 H1473 0.930 . S
C1454 C1455 1.474 . S
C1454 C1456 1.285 . S
C1454 H1474 0.929 . S
C1455 C1452 1.461 . S
C1455 C1454 1.474 . S
C1456 C1451 1.342 . S
C1456 C1454 1.285 . S
C1456 H1475 0.930 . S
C1457 C1460 1.424 . S
C1457 C1462 1.245 . S
C1457 C1463 1.428 . S
C1458 C1461 1.260 . S
C1458 C1462 1.477 . S
C1458 H1476 0.932 . S
C1459 C1460 1.384 . S
C1459 C1461 1.479 . S
C1459 H1477 0.929 . S
C1460 C1457 1.424 . S
C1460 C1459 1.384 . S
C1460 H1478 0.928 . S
C1461 C1458 1.260 . S
C1461 C1459 1.479 . S
C1462 C1457 1.245 . S
C1462 C1458 1.477 . S
C1462 H1479 0.932 . S
C1463 U1446 2.882 . S
C1463 C1457 1.428 . S
C1463 O1466 1.301 . S
C1463 O1467 1.282 . S
O1464 U1446 2.441 . S
O1464 C1450 1.249 . S
O1465 U1446 2.420 . S
O1465 C1450 1.202 . S
O1466 U1446 2.455 . S
O1466 C1463 1.301 . S
O1467 U1446 2.449 . S
O1467 C1463 1.282 . S
H1468 C1441 0.931 . S
H1469 C1443 0.929 . S
H1470 C1444 0.930 . S
H1471 C1445 0.931 . S
H1472 C1452 0.932 . S
H1473 C1453 0.930 . S
H1474 C1454 0.929 . S
H1475 C1456 0.930 . S
H1476 C1458 0.932 . S
H1477 C1459 0.929 . S
H1478 C1460 0.928 . S
H1479 C1462 0.932 . S
C1480 C1481 1.264 . S
C1480 C1485 1.479 . S
C1480 C1490 1.465 . S
C1481 C1480 1.264 . S
C1481 C1483 1.339 . S
C1481 H1508 0.931 . S
C1482 C1483 1.395 . S
C1482 C1484 1.320 . S
C1483 C1481 1.339 . S
C1483 C1482 1.395 . S
C1483 H1509 0.929 . S
C1484 C1482 1.320 . S
C1484 C1485 1.405 . S
C1484 H1510 0.930 . S
C1485 C1480 1.479 . S
C1485 C1484 1.405 . S
C1485 H1511 0.931 . S
U1486 O1487 2.454 . S
U1486 O1488 2.458 . S
U1486 C1489 2.984 . S
U1486 C1490 2.847 . S
U1486 C1503 2.882 . S
U1486 O1504 2.441 . S
U1486 O1505 2.420 . S
U1486 O1506 2.455 . S
U1486 O1507 2.449 . S
O1487 U1486 2.454 . S
O1487 C1489 1.353 . S
O1488 U1486 2.458 . S
O1488 C1489 1.286 . S
C1489 U1486 2.984 . S
C1489 O1487 1.353 . S
C1489 O1488 1.286 . S
C1489 C1491 1.363 . S
C1490 C1480 1.465 . S
C1490 U1486 2.847 . S
C1490 O1504 1.249 . S
C1490 O1505 1.202 . S
C1491 C1489 1.363 . S
C1491 C1493 1.408 . S
C1491 C1496 1.342 . S
C1492 C1493 1.310 . S
C1492 C1495 1.461 . S
C1492 H1512 0.932 . S
C1493 C1491 1.408 . S
C1493 C1492 1.310 . S
C1493 H1513 0.930 . S
C1494 C1495 1.474 . S
C1494 C1496 1.285 . S
C1494 H1514 0.929 . S
C1495 C1492 1.461 . S
C1495 C1494 1.474 . S
C1496 C1491 1.342 . S
C1496 C1494 1.285 . S
C1496 H1515 0.930 . S
C1497 C1500 1.424 . S
C1497 C1502 1.245 . S
C1497 C1503 1.428 . S
C1498 C1501 1.260 . S
C1498 C1502 1.477 . S
C1498 H1516 0.932 . S
C1499 C1500 1.384 . S
C1499 C1501 1.479 . S
C1499 H1517 0.929 . S
C1500 C1497 1.424 . S
C1500 C1499 1.384 . S
C1500 H1518 0.928 . S
C1501 C1498 1.260 . S
C1501 C1499 1.479 . S
C1502 C1497 1.245 . S
C1502 C1498 1.477 . S
C1502 H1519 0.932 . S
C1503 U1486 2.882 . S
C1503 C1497 1.428 . S
C1503 O1506 1.301 . S
C1503 O1507 1.282 . S
O1504 U1486 2.441 . S
O1504 C1490 1.249 . S
O1505 U1486 2.420 . S
O1505 C1490 1.202 . S
O1506 U1486 2.455 . S
O1506 C1503 1.301 . S
O1507 U1486 2.449 . S
O1507 C1503 1.282 . S
H1508 C1481 0.931 . S
H1509 C1483 0.929 . S
H1510 C1484 0.930 . S
H1511 C1485 0.931 . S
H1512 C1492 0.932 . S
H1513 C1493 0.930 . S
H1514 C1494 0.929 . S
H1515 C1496 0.930 . S
H1516 C1498 0.932 . S
H1517 C1499 0.929 . S
H1518 C1500 0.928 . S
H1519 C1502 0.932 . S
C1520 C1521 1.264 . S
C1520 C1525 1.479 . S
C1520 C1530 1.465 . S
C1521 C1520 1.264 . S
C1521 C1523 1.339 . S
C1521 H1548 0.931 . S
C1522 C1523 1.395 . S
C1522 C1524 1.320 . S
C1523 C1521 1.339 . S
C1523 C1522 1.395 . S
C1523 H1549 0.929 . S
C1524 C1522 1.320 . S
C1524 C1525 1.405 . S
C1524 H1550 0.930 . S
C1525 C1520 1.479 . S
C1525 C1524 1.405 . S
C1525 H1551 0.931 . S
U1526 O1527 2.454 . S
U1526 O1528 2.458 . S
U1526 C1529 2.984 . S
U1526 C1530 2.847 . S
U1526 C1543 2.882 . S
U1526 O1544 2.441 . S
U1526 O1545 2.420 . S
U1526 O1546 2.455 . S
U1526 O1547 2.449 . S
O1527 U1526 2.454 . S
O1527 C1529 1.353 . S
O1528 U1526 2.458 . S
O1528 C1529 1.286 . S
C1529 U1526 2.984 . S
C1529 O1527 1.353 . S
C1529 O1528 1.286 . S
C1529 C1531 1.363 . S
C1530 C1520 1.465 . S
C1530 U1526 2.847 . S
C1530 O1544 1.249 . S
C1530 O1545 1.202 . S
C1531 C1529 1.363 . S
C1531 C1533 1.408 . S
C1531 C1536 1.342 . S
C1532 C1533 1.310 . S
C1532 C1535 1.461 . S
C1532 H1552 0.932 . S
C1533 C1531 1.408 . S
C1533 C1532 1.310 . S
C1533 H1553 0.930 . S
C1534 C1535 1.474 . S
C1534 C1536 1.285 . S
C1534 H1554 0.929 . S
C1535 C1532 1.461 . S
C1535 C1534 1.474 . S
C1536 C1531 1.342 . S
C1536 C1534 1.285 . S
C1536 H1555 0.930 . S
C1537 C1540 1.424 . S
C1537 C1542 1.245 . S
C1537 C1543 1.428 . S
C1538 C1541 1.260 . S
C1538 C1542 1.477 . S
C1538 H1556 0.932 . S
C1539 C1540 1.384 . S
C1539 C1541 1.479 . S
C1539 H1557 0.929 . S
C1540 C1537 1.424 . S
C1540 C1539 1.384 . S
C1540 H1558 0.928 . S
C1541 C1538 1.260 . S
C1541 C1539 1.479 . S
C1542 C1537 1.245 . S
C1542 C1538 1.477 . S
C1542 H1559 0.932 . S
C1543 U1526 2.882 . S
C1543 C1537 1.428 . S
C1543 O1546 1.301 . S
C1543 O1547 1.282 . S
O1544 U1526 2.441 . S
O1544 C1530 1.249 . S
O1545 U1526 2.420 . S
O1545 C1530 1.202 . S
O1546 U1526 2.455 . S
O1546 C1543 1.301 . S
O1547 U1526 2.449 . S
O1547 C1543 1.282 . S
H1548 C1521 0.931 . S
H1549 C1523 0.929 . S
H1550 C1524 0.930 . S
H1551 C1525 0.931 . S
H1552 C1532 0.932 . S
H1553 C1533 0.930 . S
H1554 C1534 0.929 . S
H1555 C1536 0.930 . S
H1556 C1538 0.932 . S
H1557 C1539 0.929 . S
H1558 C1540 0.928 . S
H1559 C1542 0.932 . S
C1560 C1561 1.264 . S
C1560 C1565 1.479 . S
C1560 C1570 1.465 . S
C1561 C1560 1.264 . S
C1561 C1563 1.339 . S
C1561 H1588 0.931 . S
C1562 C1563 1.395 . S
C1562 C1564 1.320 . S
C1563 C1561 1.339 . S
C1563 C1562 1.395 . S
C1563 H1589 0.929 . S
C1564 C1562 1.320 . S
C1564 C1565 1.405 . S
C1564 H1590 0.930 . S
C1565 C1560 1.479 . S
C1565 C1564 1.405 . S
C1565 H1591 0.931 . S
U1566 O1567 2.454 . S
U1566 O1568 2.458 . S
U1566 C1569 2.984 . S
U1566 C1570 2.847 . S
U1566 C1583 2.882 . S
U1566 O1584 2.441 . S
U1566 O1585 2.420 . S
U1566 O1586 2.455 . S
U1566 O1587 2.449 . S
O1567 U1566 2.454 . S
O1567 C1569 1.353 . S
O1568 U1566 2.458 . S
O1568 C1569 1.286 . S
C1569 U1566 2.984 . S
C1569 O1567 1.353 . S
C1569 O1568 1.286 . S
C1569 C1571 1.363 . S
C1570 C1560 1.465 . S
C1570 U1566 2.847 . S
C1570 O1584 1.249 . S
C1570 O1585 1.202 . S
C1571 C1569 1.363 . S
C1571 C1573 1.408 . S
C1571 C1576 1.342 . S
C1572 C1573 1.310 . S
C1572 C1575 1.461 . S
C1572 H1592 0.932 . S
C1573 C1571 1.408 . S
C1573 C1572 1.310 . S
C1573 H1593 0.930 . S
C1574 C1575 1.474 . S
C1574 C1576 1.285 . S
C1574 H1594 0.929 . S
C1575 C1572 1.461 . S
C1575 C1574 1.474 . S
C1576 C1571 1.342 . S
C1576 C1574 1.285 . S
C1576 H1595 0.930 . S
C1577 C1580 1.424 . S
C1577 C1582 1.245 . S
C1577 C1583 1.428 . S
C1578 C1581 1.260 . S
C1578 C1582 1.477 . S
C1578 H1596 0.932 . S
C1579 C1580 1.384 . S
C1579 C1581 1.479 . S
C1579 H1597 0.929 . S
C1580 C1577 1.424 . S
C1580 C1579 1.384 . S
C1580 H1598 0.928 . S
C1581 C1578 1.260 . S
C1581 C1579 1.479 . S
C1582 C1577 1.245 . S
C1582 C1578 1.477 . S
C1582 H1599 0.932 . S
C1583 U1566 2.882 . S
C1583 C1577 1.428 . S
C1583 O1586 1.301 . S
C1583 O1587 1.282 . S
O1584 U1566 2.441 . S
O1584 C1570 1.249 . S
O1585 U1566 2.420 . S
O1585 C1570 1.202 . S
O1586 U1566 2.455 . S
O1586 C1583 1.301 . S
O1587 U1566 2.449 . S
O1587 C1583 1.282 . S
H1588 C1561 0.931 . S
H1589 C1563 0.929 . S
H1590 C1564 0.930 . S
H1591 C1565 0.931 . S
H1592 C1572 0.932 . S
H1593 C1573 0.930 . S
H1594 C1574 0.929 . S
H1595 C1576 0.930 . S
H1596 C1578 0.932 . S
H1597 C1579 0.929 . S
H1598 C1580 0.928 . S
H1599 C1582 0.932 . S
C1600 C1601 1.264 . S
C1600 C1605 1.479 . S
C1600 C1610 1.465 . S
C1601 C1600 1.264 . S
C1601 C1603 1.339 . S
C1601 H1628 0.931 . S
C1602 C1603 1.395 . S
C1602 C1604 1.320 . S
C1603 C1601 1.339 . S
C1603 C1602 1.395 . S
C1603 H1629 0.929 . S
C1604 C1602 1.320 . S
C1604 C1605 1.405 . S
C1604 H1630 0.930 . S
C1605 C1600 1.479 . S
C1605 C1604 1.405 . S
C1605 H1631 0.931 . S
U1606 O1607 2.454 . S
U1606 O1608 2.458 . S
U1606 C1609 2.984 . S
U1606 C1610 2.847 . S
U1606 C1623 2.882 . S
U1606 O1624 2.441 . S
U1606 O1625 2.420 . S
U1606 O1626 2.455 . S
U1606 O1627 2.449 . S
O1607 U1606 2.454 . S
O1607 C1609 1.353 . S
O1608 U1606 2.458 . S
O1608 C1609 1.286 . S
C1609 U1606 2.984 . S
C1609 O1607 1.353 . S
C1609 O1608 1.286 . S
C1609 C1611 1.363 . S
C1610 C1600 1.465 . S
C1610 U1606 2.847 . S
C1610 O1624 1.249 . S
C1610 O1625 1.202 . S
C1611 C1609 1.363 . S
C1611 C1613 1.408 . S
C1611 C1616 1.342 . S
C1612 C1613 1.310 . S
C1612 C1615 1.461 . S
C1612 H1632 0.932 . S
C1613 C1611 1.408 . S
C1613 C1612 1.310 . S
C1613 H1633 0.930 . S
C1614 C1615 1.474 . S
C1614 C1616 1.285 . S
C1614 H1634 0.929 . S
C1615 C1612 1.461 . S
C1615 C1614 1.474 . S
C1616 C1611 1.342 . S
C1616 C1614 1.285 . S
C1616 H1635 0.930 . S
C1617 C1620 1.424 . S
C1617 C1622 1.245 . S
C1617 C1623 1.428 . S
C1618 C1621 1.260 . S
C1618 C1622 1.477 . S
C1618 H1636 0.932 . S
C1619 C1620 1.384 . S
C1619 C1621 1.479 . S
C1619 H1637 0.929 . S
C1620 C1617 1.424 . S
C1620 C1619 1.384 . S
C1620 H1638 0.928 . S
C1621 C1618 1.260 . S
C1621 C1619 1.479 . S
C1622 C1617 1.245 . S
C1622 C1618 1.477 . S
C1622 H1639 0.932 . S
C1623 U1606 2.882 . S
C1623 C1617 1.428 . S
C1623 O1626 1.301 . S
C1623 O1627 1.282 . S
O1624 U1606 2.441 . S
O1624 C1610 1.249 . S
O1625 U1606 2.420 . S
O1625 C1610 1.202 . S
O1626 U1606 2.455 . S
O1626 C1623 1.301 . S
O1627 U1606 2.449 . S
O1627 C1623 1.282 . S
H1628 C1601 0.931 . S
H1629 C1603 0.929 . S
H1630 C1604 0.930 . S
H1631 C1605 0.931 . S
H1632 C1612 0.932 . S
H1633 C1613 0.930 . S
H1634 C1614 0.929 . S
H1635 C1616 0.930 . S
H1636 C1618 0.932 . S
H1637 C1619 0.929 . S
H1638 C1620 0.928 . S
H1639 C1622 0.932 . S
C1640 C1641 1.264 . S
C1640 C1645 1.479 . S
C1640 C1650 1.465 . S
C1641 C1640 1.264 . S
C1641 C1643 1.339 . S
C1641 H1668 0.931 . S
C1642 C1643 1.395 . S
C1642 C1644 1.320 . S
C1643 C1641 1.339 . S
C1643 C1642 1.395 . S
C1643 H1669 0.929 . S
C1644 C1642 1.320 . S
C1644 C1645 1.405 . S
C1644 H1670 0.930 . S
C1645 C1640 1.479 . S
C1645 C1644 1.405 . S
C1645 H1671 0.931 . S
U1646 O1647 2.454 . S
U1646 O1648 2.458 . S
U1646 C1649 2.984 . S
U1646 C1650 2.847 . S
U1646 C1663 2.882 . S
U1646 O1664 2.441 . S
U1646 O1665 2.420 . S
U1646 O1666 2.455 . S
U1646 O1667 2.449 . S
O1647 U1646 2.454 . S
O1647 C1649 1.353 . S
O1648 U1646 2.458 . S
O1648 C1649 1.286 . S
C1649 U1646 2.984 . S
C1649 O1647 1.353 . S
C1649 O1648 1.286 . S
C1649 C1651 1.363 . S
C1650 C1640 1.465 . S
C1650 U1646 2.847 . S
C1650 O1664 1.249 . S
C1650 O1665 1.202 . S
C1651 C1649 1.363 . S
C1651 C1653 1.408 . S
C1651 C1656 1.342 . S
C1652 C1653 1.310 . S
C1652 C1655 1.461 . S
C1652 H1672 0.932 . S
C1653 C1651 1.408 . S
C1653 C1652 1.310 . S
C1653 H1673 0.930 . S
C1654 C1655 1.474 . S
C1654 C1656 1.285 . S
C1654 H1674 0.929 . S
C1655 C1652 1.461 . S
C1655 C1654 1.474 . S
C1656 C1651 1.342 . S
C1656 C1654 1.285 . S
C1656 H1675 0.930 . S
C1657 C1660 1.424 . S
C1657 C1662 1.245 . S
C1657 C1663 1.428 . S
C1658 C1661 1.260 . S
C1658 C1662 1.477 . S
C1658 H1676 0.932 . S
C1659 C1660 1.384 . S
C1659 C1661 1.479 . S
C1659 H1677 0.929 . S
C1660 C1657 1.424 . S
C1660 C1659 1.384 . S
C1660 H1678 0.928 . S
C1661 C1658 1.260 . S
C1661 C1659 1.479 . S
C1662 C1657 1.245 . S
C1662 C1658 1.477 . S
C1662 H1679 0.932 . S
C1663 U1646 2.882 . S
C1663 C1657 1.428 . S
C1663 O1666 1.301 . S
C1663 O1667 1.282 . S
O1664 U1646 2.441 . S
O1664 C1650 1.249 . S
O1665 U1646 2.420 . S
O1665 C1650 1.202 . S
O1666 U1646 2.455 . S
O1666 C1663 1.301 . S
O1667 U1646 2.449 . S
O1667 C1663 1.282 . S
H1668 C1641 0.931 . S
H1669 C1643 0.929 . S
H1670 C1644 0.930 . S
H1671 C1645 0.931 . S
H1672 C1652 0.932 . S
H1673 C1653 0.930 . S
H1674 C1654 0.929 . S
H1675 C1656 0.930 . S
H1676 C1658 0.932 . S
H1677 C1659 0.929 . S
H1678 C1660 0.928 . S
H1679 C1662 0.932 . S
C1680 C1681 1.264 . S
C1680 C1685 1.479 . S
C1680 C1690 1.465 . S
C1681 C1680 1.264 . S
C1681 C1683 1.339 . S
C1681 H1708 0.931 . S
C1682 C1683 1.395 . S
C1682 C1684 1.320 . S
C1683 C1681 1.339 . S
C1683 C1682 1.395 . S
C1683 H1709 0.929 . S
C1684 C1682 1.320 . S
C1684 C1685 1.405 . S
C1684 H1710 0.930 . S
C1685 C1680 1.479 . S
C1685 C1684 1.405 . S
C1685 H1711 0.931 . S
U1686 O1687 2.454 . S
U1686 O1688 2.458 . S
U1686 C1689 2.984 . S
U1686 C1690 2.847 . S
U1686 C1703 2.882 . S
U1686 O1704 2.441 . S
U1686 O1705 2.420 . S
U1686 O1706 2.455 . S
U1686 O1707 2.449 . S
O1687 U1686 2.454 . S
O1687 C1689 1.353 . S
O1688 U1686 2.458 . S
O1688 C1689 1.286 . S
C1689 U1686 2.984 . S
C1689 O1687 1.353 . S
C1689 O1688 1.286 . S
C1689 C1691 1.363 . S
C1690 C1680 1.465 . S
C1690 U1686 2.847 . S
C1690 O1704 1.249 . S
C1690 O1705 1.202 . S
C1691 C1689 1.363 . S
C1691 C1693 1.408 . S
C1691 C1696 1.342 . S
C1692 C1693 1.310 . S
C1692 C1695 1.461 . S
C1692 H1712 0.932 . S
C1693 C1691 1.408 . S
C1693 C1692 1.310 . S
C1693 H1713 0.930 . S
C1694 C1695 1.474 . S
C1694 C1696 1.285 . S
C1694 H1714 0.929 . S
C1695 C1692 1.461 . S
C1695 C1694 1.474 . S
C1696 C1691 1.342 . S
C1696 C1694 1.285 . S
C1696 H1715 0.930 . S
C1697 C1700 1.424 . S
C1697 C1702 1.245 . S
C1697 C1703 1.428 . S
C1698 C1701 1.260 . S
C1698 C1702 1.477 . S
C1698 H1716 0.932 . S
C1699 C1700 1.384 . S
C1699 C1701 1.479 . S
C1699 H1717 0.929 . S
C1700 C1697 1.424 . S
C1700 C1699 1.384 . S
C1700 H1718 0.928 . S
C1701 C1698 1.260 . S
C1701 C1699 1.479 . S
C1702 C1697 1.245 . S
C1702 C1698 1.477 . S
C1702 H1719 0.932 . S
C1703 U1686 2.882 . S
C1703 C1697 1.428 . S
C1703 O1706 1.301 . S
C1703 O1707 1.282 . S
O1704 U1686 2.441 . S
O1704 C1690 1.249 . S
O1705 U1686 2.420 . S
O1705 C1690 1.202 . S
O1706 U1686 2.455 . S
O1706 C1703 1.301 . S
O1707 U1686 2.449 . S
O1707 C1703 1.282 . S
H1708 C1681 0.931 . S
H1709 C1683 0.929 . S
H1710 C1684 0.930 . S
H1711 C1685 0.931 . S
H1712 C1692 0.932 . S
H1713 C1693 0.930 . S
H1714 C1694 0.929 . S
H1715 C1696 0.930 . S
H1716 C1698 0.932 . S
H1717 C1699 0.929 . S
H1718 C1700 0.928 . S
H1719 C1702 0.932 . S
C1720 C1721 1.264 . S
C1720 C1725 1.479 . S
C1720 C1730 1.465 . S
C1721 C1720 1.264 . S
C1721 C1723 1.339 . S
C1721 H1748 0.931 . S
C1722 C1723 1.395 . S
C1722 C1724 1.320 . S
C1723 C1721 1.339 . S
C1723 C1722 1.395 . S
C1723 H1749 0.929 . S
C1724 C1722 1.320 . S
C1724 C1725 1.405 . S
C1724 H1750 0.930 . S
C1725 C1720 1.479 . S
C1725 C1724 1.405 . S
C1725 H1751 0.931 . S
U1726 O1727 2.454 . S
U1726 O1728 2.458 . S
U1726 C1729 2.984 . S
U1726 C1730 2.847 . S
U1726 C1743 2.882 . S
U1726 O1744 2.441 . S
U1726 O1745 2.420 . S
U1726 O1746 2.455 . S
U1726 O1747 2.449 . S
O1727 U1726 2.454 . S
O1727 C1729 1.353 . S
O1728 U1726 2.458 . S
O1728 C1729 1.286 . S
C1729 U1726 2.984 . S
C1729 O1727 1.353 . S
C1729 O1728 1.286 . S
C1729 C1731 1.363 . S
C1730 C1720 1.465 . S
C1730 U1726 2.847 . S
C1730 O1744 1.249 . S
C1730 O1745 1.202 . S
C1731 C1729 1.363 . S
C1731 C1733 1.408 . S
C1731 C1736 1.342 . S
C1732 C1733 1.310 . S
C1732 C1735 1.461 . S
C1732 H1752 0.932 . S
C1733 C1731 1.408 . S
C1733 C1732 1.310 . S
C1733 H1753 0.930 . S
C1734 C1735 1.474 . S
C1734 C1736 1.285 . S
C1734 H1754 0.929 . S
C1735 C1732 1.461 . S
C1735 C1734 1.474 . S
C1736 C1731 1.342 . S
C1736 C1734 1.285 . S
C1736 H1755 0.930 . S
C1737 C1740 1.424 . S
C1737 C1742 1.245 . S
C1737 C1743 1.428 . S
C1738 C1741 1.260 . S
C1738 C1742 1.477 . S
C1738 H1756 0.932 . S
C1739 C1740 1.384 . S
C1739 C1741 1.479 . S
C1739 H1757 0.929 . S
C1740 C1737 1.424 . S
C1740 C1739 1.384 . S
C1740 H1758 0.928 . S
C1741 C1738 1.260 . S
C1741 C1739 1.479 . S
C1742 C1737 1.245 . S
C1742 C1738 1.477 . S
C1742 H1759 0.932 . S
C1743 U1726 2.882 . S
C1743 C1737 1.428 . S
C1743 O1746 1.301 . S
C1743 O1747 1.282 . S
O1744 U1726 2.441 . S
O1744 C1730 1.249 . S
O1745 U1726 2.420 . S
O1745 C1730 1.202 . S
O1746 U1726 2.455 . S
O1746 C1743 1.301 . S
O1747 U1726 2.449 . S
O1747 C1743 1.282 . S
H1748 C1721 0.931 . S
H1749 C1723 0.929 . S
H1750 C1724 0.930 . S
H1751 C1725 0.931 . S
H1752 C1732 0.932 . S
H1753 C1733 0.930 . S
H1754 C1734 0.929 . S
H1755 C1736 0.930 . S
H1756 C1738 0.932 . S
H1757 C1739 0.929 . S
H1758 C1740 0.928 . S
H1759 C1742 0.932 . S
C1760 C1761 1.264 . S
C1760 C1765 1.479 . S
C1760 C1770 1.465 . S
C1761 C1760 1.264 . S
C1761 C1763 1.339 . S
C1761 H1788 0.931 . S
C1762 C1763 1.395 . S
C1762 C1764 1.320 . S
C1763 C1761 1.339 . S
C1763 C1762 1.395 . S
C1763 H1789 0.929 . S
C1764 C1762 1.320 . S
C1764 C1765 1.405 . S
C1764 H1790 0.930 . S
C1765 C1760 1.479 . S
C1765 C1764 1.405 . S
C1765 H1791 0.931 . S
U1766 O1767 2.454 . S
U1766 O1768 2.458 . S
U1766 C1769 2.984 . S
U1766 C1770 2.847 . S
U1766 C1783 2.882 . S
U1766 O1784 2.441 . S
U1766 O1785 2.420 . S
U1766 O1786 2.455 . S
U1766 O1787 2.449 . S
O1767 U1766 2.454 . S
O1767 C1769 1.353 . S
O1768 U1766 2.458 . S
O1768 C1769 1.286 . S
C1769 U1766 2.984 . S
C1769 O1767 1.353 . S
C1769 O1768 1.286 . S
C1769 C1771 1.363 . S
C1770 C1760 1.465 . S
C1770 U1766 2.847 . S
C1770 O1784 1.249 . S
C1770 O1785 1.202 . S
C1771 C1769 1.363 . S
C1771 C1773 1.408 . S
C1771 C1776 1.342 . S
C1772 C1773 1.310 . S
C1772 C1775 1.461 . S
C1772 H1792 0.932 . S
C1773 C1771 1.408 . S
C1773 C1772 1.310 . S
C1773 H1793 0.930 . S
C1774 C1775 1.474 . S
C1774 C1776 1.285 . S
C1774 H1794 0.929 . S
C1775 C1772 1.461 . S
C1775 C1774 1.474 . S
C1776 C1771 1.342 . S
C1776 C1774 1.285 . S
C1776 H1795 0.930 . S
C1777 C1780 1.424 . S
C1777 C1782 1.245 . S
C1777 C1783 1.428 . S
C1778 C1781 1.260 . S
C1778 C1782 1.477 . S
C1778 H1796 0.932 . S
C1779 C1780 1.384 . S
C1779 C1781 1.479 . S
C1779 H1797 0.929 . S
C1780 C1777 1.424 . S
C1780 C1779 1.384 . S
C1780 H1798 0.928 . S
C1781 C1778 1.260 . S
C1781 C1779 1.479 . S
C1782 C1777 1.245 . S
C1782 C1778 1.477 . S
C1782 H1799 0.932 . S
C1783 U1766 2.882 . S
C1783 C1777 1.428 . S
C1783 O1786 1.301 . S
C1783 O1787 1.282 . S
O1784 U1766 2.441 . S
O1784 C1770 1.249 . S
O1785 U1766 2.420 . S
O1785 C1770 1.202 . S
O1786 U1766 2.455 . S
O1786 C1783 1.301 . S
O1787 U1766 2.449 . S
O1787 C1783 1.282 . S
H1788 C1761 0.931 . S
H1789 C1763 0.929 . S
H1790 C1764 0.930 . S
H1791 C1765 0.931 . S
H1792 C1772 0.932 . S
H1793 C1773 0.930 . S
H1794 C1774 0.929 . S
H1795 C1776 0.930 . S
H1796 C1778 0.932 . S
H1797 C1779 0.929 . S
H1798 C1780 0.928 . S
H1799 C1782 0.932 . S
C1800 C1801 1.264 . S
C1800 C1805 1.479 . S
C1800 C1810 1.465 . S
C1801 C1800 1.264 . S
C1801 C1803 1.339 . S
C1801 H1828 0.931 . S
C1802 C1803 1.395 . S
C1802 C1804 1.320 . S
C1803 C1801 1.339 . S
C1803 C1802 1.395 . S
C1803 H1829 0.929 . S
C1804 C1802 1.320 . S
C1804 C1805 1.405 . S
C1804 H1830 0.930 . S
C1805 C1800 1.479 . S
C1805 C1804 1.405 . S
C1805 H1831 0.931 . S
U1806 O1807 2.454 . S
U1806 O1808 2.458 . S
U1806 C1809 2.984 . S
U1806 C1810 2.847 . S
U1806 C1823 2.882 . S
U1806 O1824 2.441 . S
U1806 O1825 2.420 . S
U1806 O1826 2.455 . S
U1806 O1827 2.449 . S
O1807 U1806 2.454 . S
O1807 C1809 1.353 . S
O1808 U1806 2.458 . S
O1808 C1809 1.286 . S
C1809 U1806 2.984 . S
C1809 O1807 1.353 . S
C1809 O1808 1.286 . S
C1809 C1811 1.363 . S
C1810 C1800 1.465 . S
C1810 U1806 2.847 . S
C1810 O1824 1.249 . S
C1810 O1825 1.202 . S
C1811 C1809 1.363 . S
C1811 C1813 1.408 . S
C1811 C1816 1.342 . S
C1812 C1813 1.310 . S
C1812 C1815 1.461 . S
C1812 H1832 0.932 . S
C1813 C1811 1.408 . S
C1813 C1812 1.310 . S
C1813 H1833 0.930 . S
C1814 C1815 1.474 . S
C1814 C1816 1.285 . S
C1814 H1834 0.929 . S
C1815 C1812 1.461 . S
C1815 C1814 1.474 . S
C1816 C1811 1.342 . S
C1816 C1814 1.285 . S
C1816 H1835 0.930 . S
C1817 C1820 1.424 . S
C1817 C1822 1.245 . S
C1817 C1823 1.428 . S
C1818 C1821 1.260 . S
C1818 C1822 1.477 . S
C1818 H1836 0.932 . S
C1819 C1820 1.384 . S
C1819 C1821 1.479 . S
C1819 H1837 0.929 . S
C1820 C1817 1.424 . S
C1820 C1819 1.384 . S
C1820 H1838 0.928 . S
C1821 C1818 1.260 . S
C1821 C1819 1.479 . S
C1822 C1817 1.245 . S
C1822 C1818 1.477 . S
C1822 H1839 0.932 . S
C1823 U1806 2.882 . S
C1823 C1817 1.428 . S
C1823 O1826 1.301 . S
C1823 O1827 1.282 . S
O1824 U1806 2.441 . S
O1824 C1810 1.249 . S
O1825 U1806 2.420 . S
O1825 C1810 1.202 . S
O1826 U1806 2.455 . S
O1826 C1823 1.301 . S
O1827 U1806 2.449 . S
O1827 C1823 1.282 . S
H1828 C1801 0.931 . S
H1829 C1803 0.929 . S
H1830 C1804 0.930 . S
H1831 C1805 0.931 . S
H1832 C1812 0.932 . S
H1833 C1813 0.930 . S
H1834 C1814 0.929 . S
H1835 C1816 0.930 . S
H1836 C1818 0.932 . S
H1837 C1819 0.929 . S
H1838 C1820 0.928 . S
H1839 C1822 0.932 . S
C1840 C1841 1.264 . S
C1840 C1845 1.479 . S
C1840 C1850 1.465 . S
C1841 C1840 1.264 . S
C1841 C1843 1.339 . S
C1841 H1868 0.931 . S
C1842 C1843 1.395 . S
C1842 C1844 1.320 . S
C1843 C1841 1.339 . S
C1843 C1842 1.395 . S
C1843 H1869 0.929 . S
C1844 C1842 1.320 . S
C1844 C1845 1.405 . S
C1844 H1870 0.930 . S
C1845 C1840 1.479 . S
C1845 C1844 1.405 . S
C1845 H1871 0.931 . S
U1846 O1847 2.454 . S
U1846 O1848 2.458 . S
U1846 C1849 2.984 . S
U1846 C1850 2.847 . S
U1846 C1863 2.882 . S
U1846 O1864 2.441 . S
U1846 O1865 2.420 . S
U1846 O1866 2.455 . S
U1846 O1867 2.449 . S
O1847 U1846 2.454 . S
O1847 C1849 1.353 . S
O1848 U1846 2.458 . S
O1848 C1849 1.286 . S
C1849 U1846 2.984 . S
C1849 O1847 1.353 . S
C1849 O1848 1.286 . S
C1849 C1851 1.363 . S
C1850 C1840 1.465 . S
C1850 U1846 2.847 . S
C1850 O1864 1.249 . S
C1850 O1865 1.202 . S
C1851 C1849 1.363 . S
C1851 C1853 1.408 . S
C1851 C1856 1.342 . S
C1852 C1853 1.310 . S
C1852 C1855 1.461 . S
C1852 H1872 0.932 . S
C1853 C1851 1.408 . S
C1853 C1852 1.310 . S
C1853 H1873 0.930 . S
C1854 C1855 1.474 . S
C1854 C1856 1.285 . S
C1854 H1874 0.929 . S
C1855 C1852 1.461 . S
C1855 C1854 1.474 . S
C1856 C1851 1.342 . S
C1856 C1854 1.285 . S
C1856 H1875 0.930 . S
C1857 C1860 1.424 . S
C1857 C1862 1.245 . S
C1857 C1863 1.428 . S
C1858 C1861 1.260 . S
C1858 C1862 1.477 . S
C1858 H1876 0.932 . S
C1859 C1860 1.384 . S
C1859 C1861 1.479 . S
C1859 H1877 0.929 . S
C1860 C1857 1.424 . S
C1860 C1859 1.384 . S
C1860 H1878 0.928 . S
C1861 C1858 1.260 . S
C1861 C1859 1.479 . S
C1862 C1857 1.245 . S
C1862 C1858 1.477 . S
C1862 H1879 0.932 . S
C1863 U1846 2.882 . S
C1863 C1857 1.428 . S
C1863 O1866 1.301 . S
C1863 O1867 1.282 . S
O1864 U1846 2.441 . S
O1864 C1850 1.249 . S
O1865 U1846 2.420 . S
O1865 C1850 1.202 . S
O1866 U1846 2.455 . S
O1866 C1863 1.301 . S
O1867 U1846 2.449 . S
O1867 C1863 1.282 . S
H1868 C1841 0.931 . S
H1869 C1843 0.929 . S
H1870 C1844 0.930 . S
H1871 C1845 0.931 . S
H1872 C1852 0.932 . S
H1873 C1853 0.930 . S
H1874 C1854 0.929 . S
H1875 C1856 0.930 . S
H1876 C1858 0.932 . S
H1877 C1859 0.929 . S
H1878 C1860 0.928 . S
H1879 C1862 0.932 . S
C1880 C1881 1.264 . S
C1880 C1885 1.479 . S
C1880 C1890 1.465 . S
C1881 C1880 1.264 . S
C1881 C1883 1.339 . S
C1881 H1908 0.931 . S
C1882 C1883 1.395 . S
C1882 C1884 1.320 . S
C1883 C1881 1.339 . S
C1883 C1882 1.395 . S
C1883 H1909 0.929 . S
C1884 C1882 1.320 . S
C1884 C1885 1.405 . S
C1884 H1910 0.930 . S
C1885 C1880 1.479 . S
C1885 C1884 1.405 . S
C1885 H1911 0.931 . S
U1886 O1887 2.454 . S
U1886 O1888 2.458 . S
U1886 C1889 2.984 . S
U1886 C1890 2.847 . S
U1886 C1903 2.882 . S
U1886 O1904 2.441 . S
U1886 O1905 2.420 . S
U1886 O1906 2.455 . S
U1886 O1907 2.449 . S
O1887 U1886 2.454 . S
O1887 C1889 1.353 . S
O1888 U1886 2.458 . S
O1888 C1889 1.286 . S
C1889 U1886 2.984 . S
C1889 O1887 1.353 . S
C1889 O1888 1.286 . S
C1889 C1891 1.363 . S
C1890 C1880 1.465 . S
C1890 U1886 2.847 . S
C1890 O1904 1.249 . S
C1890 O1905 1.202 . S
C1891 C1889 1.363 . S
C1891 C1893 1.408 . S
C1891 C1896 1.342 . S
C1892 C1893 1.310 . S
C1892 C1895 1.461 . S
C1892 H1912 0.932 . S
C1893 C1891 1.408 . S
C1893 C1892 1.310 . S
C1893 H1913 0.930 . S
C1894 C1895 1.474 . S
C1894 C1896 1.285 . S
C1894 H1914 0.929 . S
C1895 C1892 1.461 . S
C1895 C1894 1.474 . S
C1896 C1891 1.342 . S
C1896 C1894 1.285 . S
C1896 H1915 0.930 . S
C1897 C1900 1.424 . S
C1897 C1902 1.245 . S
C1897 C1903 1.428 . S
C1898 C1901 1.260 . S
C1898 C1902 1.477 . S
C1898 H1916 0.932 . S
C1899 C1900 1.384 . S
C1899 C1901 1.479 . S
C1899 H1917 0.929 . S
C1900 C1897 1.424 . S
C1900 C1899 1.384 . S
C1900 H1918 0.928 . S
C1901 C1898 1.260 . S
C1901 C1899 1.479 . S
C1902 C1897 1.245 . S
C1902 C1898 1.477 . S
C1902 H1919 0.932 . S
C1903 U1886 2.882 . S
C1903 C1897 1.428 . S
C1903 O1906 1.301 . S
C1903 O1907 1.282 . S
O1904 U1886 2.441 . S
O1904 C1890 1.249 . S
O1905 U1886 2.420 . S
O1905 C1890 1.202 . S
O1906 U1886 2.455 . S
O1906 C1903 1.301 . S
O1907 U1886 2.449 . S
O1907 C1903 1.282 . S
H1908 C1881 0.931 . S
H1909 C1883 0.929 . S
H1910 C1884 0.930 . S
H1911 C1885 0.931 . S
H1912 C1892 0.932 . S
H1913 C1893 0.930 . S
H1914 C1894 0.929 . S
H1915 C1896 0.930 . S
H1916 C1898 0.932 . S
H1917 C1899 0.929 . S
H1918 C1900 0.928 . S
H1919 C1902 0.932 . S
C1920 C1921 1.264 . S
C1920 C1925 1.479 . S
C1920 C1930 1.465 . S
C1921 C1920 1.264 . S
C1921 C1923 1.339 . S
C1921 H1948 0.931 . S
C1922 C1923 1.395 . S
C1922 C1924 1.320 . S
C1923 C1921 1.339 . S
C1923 C1922 1.395 . S
C1923 H1949 0.929 . S
C1924 C1922 1.320 . S
C1924 C1925 1.405 . S
C1924 H1950 0.930 . S
C1925 C1920 1.479 . S
C1925 C1924 1.405 . S
C1925 H1951 0.931 . S
U1926 O1927 2.454 . S
U1926 O1928 2.458 . S
U1926 C1929 2.984 . S
U1926 C1930 2.847 . S
U1926 C1943 2.882 . S
U1926 O1944 2.441 . S
U1926 O1945 2.420 . S
U1926 O1946 2.455 . S
U1926 O1947 2.449 . S
O1927 U1926 2.454 . S
O1927 C1929 1.353 . S
O1928 U1926 2.458 . S
O1928 C1929 1.286 . S
C1929 U1926 2.984 . S
C1929 O1927 1.353 . S
C1929 O1928 1.286 . S
C1929 C1931 1.363 . S
C1930 C1920 1.465 . S
C1930 U1926 2.847 . S
C1930 O1944 1.249 . S
C1930 O1945 1.202 . S
C1931 C1929 1.363 . S
C1931 C1933 1.408 . S
C1931 C1936 1.342 . S
C1932 C1933 1.310 . S
C1932 C1935 1.461 . S
C1932 H1952 0.932 . S
C1933 C1931 1.408 . S
C1933 C1932 1.310 . S
C1933 H1953 0.930 . S
C1934 C1935 1.474 . S
C1934 C1936 1.285 . S
C1934 H1954 0.929 . S
C1935 C1932 1.461 . S
C1935 C1934 1.474 . S
C1936 C1931 1.342 . S
C1936 C1934 1.285 . S
C1936 H1955 0.930 . S
C1937 C1940 1.424 . S
C1937 C1942 1.245 . S
C1937 C1943 1.428 . S
C1938 C1941 1.260 . S
C1938 C1942 1.477 . S
C1938 H1956 0.932 . S
C1939 C1940 1.384 . S
C1939 C1941 1.479 . S
C1939 H1957 0.929 . S
C1940 C1937 1.424 . S
C1940 C1939 1.384 . S
C1940 H1958 0.928 . S
C1941 C1938 1.260 . S
C1941 C1939 1.479 . S
C1942 C1937 1.245 . S
C1942 C1938 1.477 . S
C1942 H1959 0.932 . S
C1943 U1926 2.882 . S
C1943 C1937 1.428 . S
C1943 O1946 1.301 . S
C1943 O1947 1.282 . S
O1944 U1926 2.441 . S
O1944 C1930 1.249 . S
O1945 U1926 2.420 . S
O1945 C1930 1.202 . S
O1946 U1926 2.455 . S
O1946 C1943 1.301 . S
O1947 U1926 2.449 . S
O1947 C1943 1.282 . S
H1948 C1921 0.931 . S
H1949 C1923 0.929 . S
H1950 C1924 0.930 . S
H1951 C1925 0.931 . S
H1952 C1932 0.932 . S
H1953 C1933 0.930 . S
H1954 C1934 0.929 . S
H1955 C1936 0.930 . S
H1956 C1938 0.932 . S
H1957 C1939 0.929 . S
H1958 C1940 0.928 . S
H1959 C1942 0.932 . S
C1960 C1961 1.264 . S
C1960 C1965 1.479 . S
C1960 C1970 1.465 . S
C1961 C1960 1.264 . S
C1961 C1963 1.339 . S
C1961 H1988 0.931 . S
C1962 C1963 1.395 . S
C1962 C1964 1.320 . S
C1963 C1961 1.339 . S
C1963 C1962 1.395 . S
C1963 H1989 0.929 . S
C1964 C1962 1.320 . S
C1964 C1965 1.405 . S
C1964 H1990 0.930 . S
C1965 C1960 1.479 . S
C1965 C1964 1.405 . S
C1965 H1991 0.931 . S
U1966 O1967 2.454 . S
U1966 O1968 2.458 . S
U1966 C1969 2.984 . S
U1966 C1970 2.847 . S
U1966 C1983 2.882 . S
U1966 O1984 2.441 . S
U1966 O1985 2.420 . S
U1966 O1986 2.455 . S
U1966 O1987 2.449 . S
O1967 U1966 2.454 . S
O1967 C1969 1.353 . S
O1968 U1966 2.458 . S
O1968 C1969 1.286 . S
C1969 U1966 2.984 . S
C1969 O1967 1.353 . S
C1969 O1968 1.286 . S
C1969 C1971 1.363 . S
C1970 C1960 1.465 . S
C1970 U1966 2.847 . S
C1970 O1984 1.249 . S
C1970 O1985 1.202 . S
C1971 C1969 1.363 . S
C1971 C1973 1.408 . S
C1971 C1976 1.342 . S
C1972 C1973 1.310 . S
C1972 C1975 1.461 . S
C1972 H1992 0.932 . S
C1973 C1971 1.408 . S
C1973 C1972 1.310 . S
C1973 H1993 0.930 . S
C1974 C1975 1.474 . S
C1974 C1976 1.285 . S
C1974 H1994 0.929 . S
C1975 C1972 1.461 . S
C1975 C1974 1.474 . S
C1976 C1971 1.342 . S
C1976 C1974 1.285 . S
C1976 H1995 0.930 . S
C1977 C1980 1.424 . S
C1977 C1982 1.245 . S
C1977 C1983 1.428 . S
C1978 C1981 1.260 . S
C1978 C1982 1.477 . S
C1978 H1996 0.932 . S
C1979 C1980 1.384 . S
C1979 C1981 1.479 . S
C1979 H1997 0.929 . S
C1980 C1977 1.424 . S
C1980 C1979 1.384 . S
C1980 H1998 0.928 . S
C1981 C1978 1.260 . S
C1981 C1979 1.479 . S
C1982 C1977 1.245 . S
C1982 C1978 1.477 . S
C1982 H1999 0.932 . S
C1983 U1966 2.882 . S
C1983 C1977 1.428 . S
C1983 O1986 1.301 . S
C1983 O1987 1.282 . S
O1984 U1966 2.441 . S
O1984 C1970 1.249 . S
O1985 U1966 2.420 . S
O1985 C1970 1.202 . S
O1986 U1966 2.455 . S
O1986 C1983 1.301 . S
O1987 U1966 2.449 . S
O1987 C1983 1.282 . S
H1988 C1961 0.931 . S
H1989 C1963 0.929 . S
H1990 C1964 0.930 . S
H1991 C1965 0.931 . S
H1992 C1972 0.932 . S
H1993 C1973 0.930 . S
H1994 C1974 0.929 . S
H1995 C1976 0.930 . S
H1996 C1978 0.932 . S
H1997 C1979 0.929 . S
H1998 C1980 0.928 . S
H1999 C1982 0.932 . S
C2000 C2001 1.264 . S
C2000 C2005 1.479 . S
C2000 C2010 1.465 . S
C2001 C2000 1.264 . S
C2001 C2003 1.339 . S
C2001 H2028 0.931 . S
C2002 C2003 1.395 . S
C2002 C2004 1.320 . S
C2003 C2001 1.339 . S
C2003 C2002 1.395 . S
C2003 H2029 0.929 . S
C2004 C2002 1.320 . S
C2004 C2005 1.405 . S
C2004 H2030 0.930 . S
C2005 C2000 1.479 . S
C2005 C2004 1.405 . S
C2005 H2031 0.931 . S
U2006 O2007 2.454 . S
U2006 O2008 2.458 . S
U2006 C2009 2.984 . S
U2006 C2010 2.847 . S
U2006 C2023 2.882 . S
U2006 O2024 2.441 . S
U2006 O2025 2.420 . S
U2006 O2026 2.455 . S
U2006 O2027 2.449 . S
O2007 U2006 2.454 . S
O2007 C2009 1.353 . S
O2008 U2006 2.458 . S
O2008 C2009 1.286 . S
C2009 U2006 2.984 . S
C2009 O2007 1.353 . S
C2009 O2008 1.286 . S
C2009 C2011 1.363 . S
C2010 C2000 1.465 . S
C2010 U2006 2.847 . S
C2010 O2024 1.249 . S
C2010 O2025 1.202 . S
C2011 C2009 1.363 . S
C2011 C2013 1.408 . S
C2011 C2016 1.342 . S
C2012 C2013 1.310 . S
C2012 C2015 1.461 . S
C2012 H2032 0.932 . S
C2013 C2011 1.408 . S
C2013 C2012 1.310 . S
C2013 H2033 0.930 . S
C2014 C2015 1.474 . S
C2014 C2016 1.285 . S
C2014 H2034 0.929 . S
C2015 C2012 1.461 . S
C2015 C2014 1.474 . S
C2016 C2011 1.342 . S
C2016 C2014 1.285 . S
C2016 H2035 0.930 . S
C2017 C2020 1.424 . S
C2017 C2022 1.245 . S
C2017 C2023 1.428 . S
C2018 C2021 1.260 . S
C2018 C2022 1.477 . S
C2018 H2036 0.932 . S
C2019 C2020 1.384 . S
C2019 C2021 1.479 . S
C2019 H2037 0.929 . S
C2020 C2017 1.424 . S
C2020 C2019 1.384 . S
C2020 H2038 0.928 . S
C2021 C2018 1.260 . S
C2021 C2019 1.479 . S
C2022 C2017 1.245 . S
C2022 C2018 1.477 . S
C2022 H2039 0.932 . S
C2023 U2006 2.882 . S
C2023 C2017 1.428 . S
C2023 O2026 1.301 . S
C2023 O2027 1.282 . S
O2024 U2006 2.441 . S
O2024 C2010 1.249 . S
O2025 U2006 2.420 . S
O2025 C2010 1.202 . S
O2026 U2006 2.455 . S
O2026 C2023 1.301 . S
O2027 U2006 2.449 . S
O2027 C2023 1.282 . S
H2028 C2001 0.931 . S
H2029 C2003 0.929 . S
H2030 C2004 0.930 . S
H2031 C2005 0.931 . S
H2032 C2012 0.932 . S
H2033 C2013 0.930 . S
H2034 C2014 0.929 . S
H2035 C2016 0.930 . S
H2036 C2018 0.932 . S
H2037 C2019 0.929 . S
H2038 C2020 0.928 . S
H2039 C2022 0.932 . S
C2040 C2041 1.264 . S
C2040 C2045 1.479 . S
C2040 C2050 1.465 . S
C2041 C2040 1.264 . S
C2041 C2043 1.339 . S
C2041 H2068 0.931 . S
C2042 C2043 1.395 . S
C2042 C2044 1.320 . S
C2043 C2041 1.339 . S
C2043 C2042 1.395 . S
C2043 H2069 0.929 . S
C2044 C2042 1.320 . S
C2044 C2045 1.405 . S
C2044 H2070 0.930 . S
C2045 C2040 1.479 . S
C2045 C2044 1.405 . S
C2045 H2071 0.931 . S
U2046 O2047 2.454 . S
U2046 O2048 2.458 . S
U2046 C2049 2.984 . S
U2046 C2050 2.847 . S
U2046 C2063 2.882 . S
U2046 O2064 2.441 . S
U2046 O2065 2.420 . S
U2046 O2066 2.455 . S
U2046 O2067 2.449 . S
O2047 U2046 2.454 . S
O2047 C2049 1.353 . S
O2048 U2046 2.458 . S
O2048 C2049 1.286 . S
C2049 U2046 2.984 . S
C2049 O2047 1.353 . S
C2049 O2048 1.286 . S
C2049 C2051 1.363 . S
C2050 C2040 1.465 . S
C2050 U2046 2.847 . S
C2050 O2064 1.249 . S
C2050 O2065 1.202 . S
C2051 C2049 1.363 . S
C2051 C2053 1.408 . S
C2051 C2056 1.342 . S
C2052 C2053 1.310 . S
C2052 C2055 1.461 . S
C2052 H2072 0.932 . S
C2053 C2051 1.408 . S
C2053 C2052 1.310 . S
C2053 H2073 0.930 . S
C2054 C2055 1.474 . S
C2054 C2056 1.285 . S
C2054 H2074 0.929 . S
C2055 C2052 1.461 . S
C2055 C2054 1.474 . S
C2056 C2051 1.342 . S
C2056 C2054 1.285 . S
C2056 H2075 0.930 . S
C2057 C2060 1.424 . S
C2057 C2062 1.245 . S
C2057 C2063 1.428 . S
C2058 C2061 1.260 . S
C2058 C2062 1.477 . S
C2058 H2076 0.932 . S
C2059 C2060 1.384 . S
C2059 C2061 1.479 . S
C2059 H2077 0.929 . S
C2060 C2057 1.424 . S
C2060 C2059 1.384 . S
C2060 H2078 0.928 . S
C2061 C2058 1.260 . S
C2061 C2059 1.479 . S
C2062 C2057 1.245 . S
C2062 C2058 1.477 . S
C2062 H2079 0.932 . S
C2063 U2046 2.882 . S
C2063 C2057 1.428 . S
C2063 O2066 1.301 . S
C2063 O2067 1.282 . S
O2064 U2046 2.441 . S
O2064 C2050 1.249 . S
O2065 U2046 2.420 . S
O2065 C2050 1.202 . S
O2066 U2046 2.455 . S
O2066 C2063 1.301 . S
O2067 U2046 2.449 . S
O2067 C2063 1.282 . S
H2068 C2041 0.931 . S
H2069 C2043 0.929 . S
H2070 C2044 0.930 . S
H2071 C2045 0.931 . S
H2072 C2052 0.932 . S
H2073 C2053 0.930 . S
H2074 C2054 0.929 . S
H2075 C2056 0.930 . S
H2076 C2058 0.932 . S
H2077 C2059 0.929 . S
H2078 C2060 0.928 . S
H2079 C2062 0.932 . S
C2080 C2081 1.264 . S
C2080 C2085 1.479 . S
C2080 C2090 1.465 . S
C2081 C2080 1.264 . S
C2081 C2083 1.339 . S
C2081 H2108 0.931 . S
C2082 C2083 1.395 . S
C2082 C2084 1.320 . S
C2083 C2081 1.339 . S
C2083 C2082 1.395 . S
C2083 H2109 0.929 . S
C2084 C2082 1.320 . S
C2084 C2085 1.405 . S
C2084 H2110 0.930 . S
C2085 C2080 1.479 . S
C2085 C2084 1.405 . S
C2085 H2111 0.931 . S
U2086 O2087 2.454 . S
U2086 O2088 2.458 . S
U2086 C2089 2.984 . S
U2086 C2090 2.847 . S
U2086 C2103 2.882 . S
U2086 O2104 2.441 . S
U2086 O2105 2.420 . S
U2086 O2106 2.455 . S
U2086 O2107 2.449 . S
O2087 U2086 2.454 . S
O2087 C2089 1.353 . S
O2088 U2086 2.458 . S
O2088 C2089 1.286 . S
C2089 U2086 2.984 . S
C2089 O2087 1.353 . S
C2089 O2088 1.286 . S
C2089 C2091 1.363 . S
C2090 C2080 1.465 . S
C2090 U2086 2.847 . S
C2090 O2104 1.249 . S
C2090 O2105 1.202 . S
C2091 C2089 1.363 . S
C2091 C2093 1.408 . S
C2091 C2096 1.342 . S
C2092 C2093 1.310 . S
C2092 C2095 1.461 . S
C2092 H2112 0.932 . S
C2093 C2091 1.408 . S
C2093 C2092 1.310 . S
C2093 H2113 0.930 . S
C2094 C2095 1.474 . S
C2094 C2096 1.285 . S
C2094 H2114 0.929 . S
C2095 C2092 1.461 . S
C2095 C2094 1.474 . S
C2096 C2091 1.342 . S
C2096 C2094 1.285 . S
C2096 H2115 0.930 . S
C2097 C2100 1.424 . S
C2097 C2102 1.245 . S
C2097 C2103 1.428 . S
C2098 C2101 1.260 . S
C2098 C2102 1.477 . S
C2098 H2116 0.932 . S
C2099 C2100 1.384 . S
C2099 C2101 1.479 . S
C2099 H2117 0.929 . S
C2100 C2097 1.424 . S
C2100 C2099 1.384 . S
C2100 H2118 0.928 . S
C2101 C2098 1.260 . S
C2101 C2099 1.479 . S
C2102 C2097 1.245 . S
C2102 C2098 1.477 . S
C2102 H2119 0.932 . S
C2103 U2086 2.882 . S
C2103 C2097 1.428 . S
C2103 O2106 1.301 . S
C2103 O2107 1.282 . S
O2104 U2086 2.441 . S
O2104 C2090 1.249 . S
O2105 U2086 2.420 . S
O2105 C2090 1.202 . S
O2106 U2086 2.455 . S
O2106 C2103 1.301 . S
O2107 U2086 2.449 . S
O2107 C2103 1.282 . S
H2108 C2081 0.931 . S
H2109 C2083 0.929 . S
H2110 C2084 0.930 . S
H2111 C2085 0.931 . S
H2112 C2092 0.932 . S
H2113 C2093 0.930 . S
H2114 C2094 0.929 . S
H2115 C2096 0.930 . S
H2116 C2098 0.932 . S
H2117 C2099 0.929 . S
H2118 C2100 0.928 . S
H2119 C2102 0.932 . S
C2120 C2121 1.264 . S
C2120 C2125 1.479 . S
C2120 C2130 1.465 . S
C2121 C2120 1.264 . S
C2121 C2123 1.339 . S
C2121 H2148 0.931 . S
C2122 C2123 1.395 . S
C2122 C2124 1.320 . S
C2123 C2121 1.339 . S
C2123 C2122 1.395 . S
C2123 H2149 0.929 . S
C2124 C2122 1.320 . S
C2124 C2125 1.405 . S
C2124 H2150 0.930 . S
C2125 C2120 1.479 . S
C2125 C2124 1.405 . S
C2125 H2151 0.931 . S
U2126 O2127 2.454 . S
U2126 O2128 2.458 . S
U2126 C2129 2.984 . S
U2126 C2130 2.847 . S
U2126 C2143 2.882 . S
U2126 O2144 2.441 . S
U2126 O2145 2.420 . S
U2126 O2146 2.455 . S
U2126 O2147 2.449 . S
O2127 U2126 2.454 . S
O2127 C2129 1.353 . S
O2128 U2126 2.458 . S
O2128 C2129 1.286 . S
C2129 U2126 2.984 . S
C2129 O2127 1.353 . S
C2129 O2128 1.286 . S
C2129 C2131 1.363 . S
C2130 C2120 1.465 . S
C2130 U2126 2.847 . S
C2130 O2144 1.249 . S
C2130 O2145 1.202 . S
C2131 C2129 1.363 . S
C2131 C2133 1.408 . S
C2131 C2136 1.342 . S
C2132 C2133 1.310 . S
C2132 C2135 1.461 . S
C2132 H2152 0.932 . S
C2133 C2131 1.408 . S
C2133 C2132 1.310 . S
C2133 H2153 0.930 . S
C2134 C2135 1.474 . S
C2134 C2136 1.285 . S
C2134 H2154 0.929 . S
C2135 C2132 1.461 . S
C2135 C2134 1.474 . S
C2136 C2131 1.342 . S
C2136 C2134 1.285 . S
C2136 H2155 0.930 . S
C2137 C2140 1.424 . S
C2137 C2142 1.245 . S
C2137 C2143 1.428 . S
C2138 C2141 1.260 . S
C2138 C2142 1.477 . S
C2138 H2156 0.932 . S
C2139 C2140 1.384 . S
C2139 C2141 1.479 . S
C2139 H2157 0.929 . S
C2140 C2137 1.424 . S
C2140 C2139 1.384 . S
C2140 H2158 0.928 . S
C2141 C2138 1.260 . S
C2141 C2139 1.479 . S
C2142 C2137 1.245 . S
C2142 C2138 1.477 . S
C2142 H2159 0.932 . S
C2143 U2126 2.882 . S
C2143 C2137 1.428 . S
C2143 O2146 1.301 . S
C2143 O2147 1.282 . S
O2144 U2126 2.441 . S
O2144 C2130 1.249 . S
O2145 U2126 2.420 . S
O2145 C2130 1.202 . S
O2146 U2126 2.455 . S
O2146 C2143 1.301 . S
O2147 U2126 2.449 . S
O2147 C2143 1.282 . S
H2148 C2121 0.931 . S
H2149 C2123 0.929 . S
H2150 C2124 0.930 . S
H2151 C2125 0.931 . S
H2152 C2132 0.932 . S
H2153 C2133 0.930 . S
H2154 C2134 0.929 . S
H2155 C2136 0.930 . S
H2156 C2138 0.932 . S
H2157 C2139 0.929 . S
H2158 C2140 0.928 . S
H2159 C2142 0.932 . S
C2160 C2161 1.264 . S
C2160 C2165 1.479 . S
C2160 C2170 1.465 . S
C2161 C2160 1.264 . S
C2161 C2163 1.339 . S
C2161 H2188 0.931 . S
C2162 C2163 1.395 . S
C2162 C2164 1.320 . S
C2163 C2161 1.339 . S
C2163 C2162 1.395 . S
C2163 H2189 0.929 . S
C2164 C2162 1.320 . S
C2164 C2165 1.405 . S
C2164 H2190 0.930 . S
C2165 C2160 1.479 . S
C2165 C2164 1.405 . S
C2165 H2191 0.931 . S
U2166 O2167 2.454 . S
U2166 O2168 2.458 . S
U2166 C2169 2.984 . S
U2166 C2170 2.847 . S
U2166 C2183 2.882 . S
U2166 O2184 2.441 . S
U2166 O2185 2.420 . S
U2166 O2186 2.455 . S
U2166 O2187 2.449 . S
O2167 U2166 2.454 . S
O2167 C2169 1.353 . S
O2168 U2166 2.458 . S
O2168 C2169 1.286 . S
C2169 U2166 2.984 . S
C2169 O2167 1.353 . S
C2169 O2168 1.286 . S
C2169 C2171 1.363 . S
C2170 C2160 1.465 . S
C2170 U2166 2.847 . S
C2170 O2184 1.249 . S
C2170 O2185 1.202 . S
C2171 C2169 1.363 . S
C2171 C2173 1.408 . S
C2171 C2176 1.342 . S
C2172 C2173 1.310 . S
C2172 C2175 1.461 . S
C2172 H2192 0.932 . S
C2173 C2171 1.408 . S
C2173 C2172 1.310 . S
C2173 H2193 0.930 . S
C2174 C2175 1.474 . S
C2174 C2176 1.285 . S
C2174 H2194 0.929 . S
C2175 C2172 1.461 . S
C2175 C2174 1.474 . S
C2176 C2171 1.342 . S
C2176 C2174 1.285 . S
C2176 H2195 0.930 . S
C2177 C2180 1.424 . S
C2177 C2182 1.245 . S
C2177 C2183 1.428 . S
C2178 C2181 1.260 . S
C2178 C2182 1.477 . S
C2178 H2196 0.932 . S
C2179 C2180 1.384 . S
C2179 C2181 1.479 . S
C2179 H2197 0.929 . S
C2180 C2177 1.424 . S
C2180 C2179 1.384 . S
C2180 H2198 0.928 . S
C2181 C2178 1.260 . S
C2181 C2179 1.479 . S
C2182 C2177 1.245 . S
C2182 C2178 1.477 . S
C2182 H2199 0.932 . S
C2183 U2166 2.882 . S
C2183 C2177 1.428 . S
C2183 O2186 1.301 . S
C2183 O2187 1.282 . S
O2184 U2166 2.441 . S
O2184 C2170 1.249 . S
O2185 U2166 2.420 . S
O2185 C2170 1.202 . S
O2186 U2166 2.455 . S
O2186 C2183 1.301 . S
O2187 U2166 2.449 . S
O2187 C2183 1.282 . S
H2188 C2161 0.931 . S
H2189 C2163 0.929 . S
H2190 C2164 0.930 . S
H2191 C2165 0.931 . S
H2192 C2172 0.932 . S
H2193 C2173 0.930 . S
H2194 C2174 0.929 . S
H2195 C2176 0.930 . S
H2196 C2178 0.932 . S
H2197 C2179 0.929 . S
H2198 C2180 0.928 . S
H2199 C2182 0.932 . S
C2200 C2201 1.264 . S
C2200 C2205 1.479 . S
C2200 C2210 1.465 . S
C2201 C2200 1.264 . S
C2201 C2203 1.339 . S
C2201 H2228 0.931 . S
C2202 C2203 1.395 . S
C2202 C2204 1.320 . S
C2203 C2201 1.339 . S
C2203 C2202 1.395 . S
C2203 H2229 0.929 . S
C2204 C2202 1.320 . S
C2204 C2205 1.405 . S
C2204 H2230 0.930 . S
C2205 C2200 1.479 . S
C2205 C2204 1.405 . S
C2205 H2231 0.931 . S
U2206 O2207 2.454 . S
U2206 O2208 2.458 . S
U2206 C2209 2.984 . S
U2206 C2210 2.847 . S
U2206 C2223 2.882 . S
U2206 O2224 2.441 . S
U2206 O2225 2.420 . S
U2206 O2226 2.455 . S
U2206 O2227 2.449 . S
O2207 U2206 2.454 . S
O2207 C2209 1.353 . S
O2208 U2206 2.458 . S
O2208 C2209 1.286 . S
C2209 U2206 2.984 . S
C2209 O2207 1.353 . S
C2209 O2208 1.286 . S
C2209 C2211 1.363 . S
C2210 C2200 1.465 . S
C2210 U2206 2.847 . S
C2210 O2224 1.249 . S
C2210 O2225 1.202 . S
C2211 C2209 1.363 . S
C2211 C2213 1.408 . S
C2211 C2216 1.342 . S
C2212 C2213 1.310 . S
C2212 C2215 1.461 . S
C2212 H2232 0.932 . S
C2213 C2211 1.408 . S
C2213 C2212 1.310 . S
C2213 H2233 0.930 . S
C2214 C2215 1.474 . S
C2214 C2216 1.285 . S
C2214 H2234 0.929 . S
C2215 C2212 1.461 . S
C2215 C2214 1.474 . S
C2216 C2211 1.342 . S
C2216 C2214 1.285 . S
C2216 H2235 0.930 . S
C2217 C2220 1.424 . S
C2217 C2222 1.245 . S
C2217 C2223 1.428 . S
C2218 C2221 1.260 . S
C2218 C2222 1.477 . S
C2218 H2236 0.932 . S
C2219 C2220 1.384 . S
C2219 C2221 1.479 . S
C2219 H2237 0.929 . S
C2220 C2217 1.424 . S
C2220 C2219 1.384 . S
C2220 H2238 0.928 . S
C2221 C2218 1.260 . S
C2221 C2219 1.479 . S
C2222 C2217 1.245 . S
C2222 C2218 1.477 . S
C2222 H2239 0.932 . S
C2223 U2206 2.882 . S
C2223 C2217 1.428 . S
C2223 O2226 1.301 . S
C2223 O2227 1.282 . S
O2224 U2206 2.441 . S
O2224 C2210 1.249 . S
O2225 U2206 2.420 . S
O2225 C2210 1.202 . S
O2226 U2206 2.455 . S
O2226 C2223 1.301 . S
O2227 U2206 2.449 . S
O2227 C2223 1.282 . S
H2228 C2201 0.931 . S
H2229 C2203 0.929 . S
H2230 C2204 0.930 . S
H2231 C2205 0.931 . S
H2232 C2212 0.932 . S
H2233 C2213 0.930 . S
H2234 C2214 0.929 . S
H2235 C2216 0.930 . S
H2236 C2218 0.932 . S
H2237 C2219 0.929 . S
H2238 C2220 0.928 . S
H2239 C2222 0.932 . S
C2240 C2241 1.264 . S
C2240 C2245 1.479 . S
C2240 C2250 1.465 . S
C2241 C2240 1.264 . S
C2241 C2243 1.339 . S
C2241 H2268 0.931 . S
C2242 C2243 1.395 . S
C2242 C2244 1.320 . S
C2243 C2241 1.339 . S
C2243 C2242 1.395 . S
C2243 H2269 0.929 . S
C2244 C2242 1.320 . S
C2244 C2245 1.405 . S
C2244 H2270 0.930 . S
C2245 C2240 1.479 . S
C2245 C2244 1.405 . S
C2245 H2271 0.931 . S
U2246 O2247 2.454 . S
U2246 O2248 2.458 . S
U2246 C2249 2.984 . S
U2246 C2250 2.847 . S
U2246 C2263 2.882 . S
U2246 O2264 2.441 . S
U2246 O2265 2.420 . S
U2246 O2266 2.455 . S
U2246 O2267 2.449 . S
O2247 U2246 2.454 . S
O2247 C2249 1.353 . S
O2248 U2246 2.458 . S
O2248 C2249 1.286 . S
C2249 U2246 2.984 . S
C2249 O2247 1.353 . S
C2249 O2248 1.286 . S
C2249 C2251 1.363 . S
C2250 C2240 1.465 . S
C2250 U2246 2.847 . S
C2250 O2264 1.249 . S
C2250 O2265 1.202 . S
C2251 C2249 1.363 . S
C2251 C2253 1.408 . S
C2251 C2256 1.342 . S
C2252 C2253 1.310 . S
C2252 C2255 1.461 . S
C2252 H2272 0.932 . S
C2253 C2251 1.408 . S
C2253 C2252 1.310 . S
C2253 H2273 0.930 . S
C2254 C2255 1.474 . S
C2254 C2256 1.285 . S
C2254 H2274 0.929 . S
C2255 C2252 1.461 . S
C2255 C2254 1.474 . S
C2256 C2251 1.342 . S
C2256 C2254 1.285 . S
C2256 H2275 0.930 . S
C2257 C2260 1.424 . S
C2257 C2262 1.245 . S
C2257 C2263 1.428 . S
C2258 C2261 1.260 . S
C2258 C2262 1.477 . S
C2258 H2276 0.932 . S
C2259 C2260 1.384 . S
C2259 C2261 1.479 . S
C2259 H2277 0.929 . S
C2260 C2257 1.424 . S
C2260 C2259 1.384 . S
C2260 H2278 0.928 . S
C2261 C2258 1.260 . S
C2261 C2259 1.479 . S
C2262 C2257 1.245 . S
C2262 C2258 1.477 . S
C2262 H2279 0.932 . S
C2263 U2246 2.882 . S
C2263 C2257 1.428 . S
C2263 O2266 1.301 . S
C2263 O2267 1.282 . S
O2264 U2246 2.441 . S
O2264 C2250 1.249 . S
O2265 U2246 2.420 . S
O2265 C2250 1.202 . S
O2266 U2246 2.455 . S
O2266 C2263 1.301 . S
O2267 U2246 2.449 . S
O2267 C2263 1.282 . S
H2268 C2241 0.931 . S
H2269 C2243 0.929 . S
H2270 C2244 0.930 . S
H2271 C2245 0.931 . S
H2272 C2252 0.932 . S
H2273 C2253 0.930 . S
H2274 C2254 0.929 . S
H2275 C2256 0.930 . S
H2276 C2258 0.932 . S
H2277 C2259 0.929 . S
H2278 C2260 0.928 . S
H2279 C2262 0.932 . S
C2280 C2281 1.264 . S
C2280 C2285 1.479 . S
C2280 C2290 1.465 . S
C2281 C2280 1.264 . S
C2281 C2283 1.339 . S
C2281 H2308 0.931 . S
C2282 C2283 1.395 . S
C2282 C2284 1.320 . S
C2283 C2281 1.339 . S
C2283 C2282 1.395 . S
C2283 H2309 0.929 . S
C2284 C2282 1.320 . S
C2284 C2285 1.405 . S
C2284 H2310 0.930 . S
C2285 C2280 1.479 . S
C2285 C2284 1.405 . S
C2285 H2311 0.931 . S
U2286 O2287 2.454 . S
U2286 O2288 2.458 . S
U2286 C2289 2.984 . S
U2286 C2290 2.847 . S
U2286 C2303 2.882 . S
U2286 O2304 2.441 . S
U2286 O2305 2.420 . S
U2286 O2306 2.455 . S
U2286 O2307 2.449 . S
O2287 U2286 2.454 . S
O2287 C2289 1.353 . S
O2288 U2286 2.458 . S
O2288 C2289 1.286 . S
C2289 U2286 2.984 . S
C2289 O2287 1.353 . S
C2289 O2288 1.286 . S
C2289 C2291 1.363 . S
C2290 C2280 1.465 . S
C2290 U2286 2.847 . S
C2290 O2304 1.249 . S
C2290 O2305 1.202 . S
C2291 C2289 1.363 . S
C2291 C2293 1.408 . S
C2291 C2296 1.342 . S
C2292 C2293 1.310 . S
C2292 C2295 1.461 . S
C2292 H2312 0.932 . S
C2293 C2291 1.408 . S
C2293 C2292 1.310 . S
C2293 H2313 0.930 . S
C2294 C2295 1.474 . S
C2294 C2296 1.285 . S
C2294 H2314 0.929 . S
C2295 C2292 1.461 . S
C2295 C2294 1.474 . S
C2296 C2291 1.342 . S
C2296 C2294 1.285 . S
C2296 H2315 0.930 . S
C2297 C2300 1.424 . S
C2297 C2302 1.245 . S
C2297 C2303 1.428 . S
C2298 C2301 1.260 . S
C2298 C2302 1.477 . S
C2298 H2316 0.932 . S
C2299 C2300 1.384 . S
C2299 C2301 1.479 . S
C2299 H2317 0.929 . S
C2300 C2297 1.424 . S
C2300 C2299 1.384 . S
C2300 H2318 0.928 . S
C2301 C2298 1.260 . S
C2301 C2299 1.479 . S
C2302 C2297 1.245 . S
C2302 C2298 1.477 . S
C2302 H2319 0.932 . S
C2303 U2286 2.882 . S
C2303 C2297 1.428 . S
C2303 O2306 1.301 . S
C2303 O2307 1.282 . S
O2304 U2286 2.441 . S
O2304 C2290 1.249 . S
O2305 U2286 2.420 . S
O2305 C2290 1.202 . S
O2306 U2286 2.455 . S
O2306 C2303 1.301 . S
O2307 U2286 2.449 . S
O2307 C2303 1.282 . S
H2308 C2281 0.931 . S
H2309 C2283 0.929 . S
H2310 C2284 0.930 . S
H2311 C2285 0.931 . S
H2312 C2292 0.932 . S
H2313 C2293 0.930 . S
H2314 C2294 0.929 . S
H2315 C2296 0.930 . S
H2316 C2298 0.932 . S
H2317 C2299 0.929 . S
H2318 C2300 0.928 . S
H2319 C2302 0.932 . S
C2320 C2321 1.264 . S
C2320 C2325 1.479 . S
C2320 C2330 1.465 . S
C2321 C2320 1.264 . S
C2321 C2323 1.339 . S
C2321 H2348 0.931 . S
C2322 C2323 1.395 . S
C2322 C2324 1.320 . S
C2323 C2321 1.339 . S
C2323 C2322 1.395 . S
C2323 H2349 0.929 . S
C2324 C2322 1.320 . S
C2324 C2325 1.405 . S
C2324 H2350 0.930 . S
C2325 C2320 1.479 . S
C2325 C2324 1.405 . S
C2325 H2351 0.931 . S
U2326 O2327 2.454 . S
U2326 O2328 2.458 . S
U2326 C2329 2.984 . S
U2326 C2330 2.847 . S
U2326 C2343 2.882 . S
U2326 O2344 2.441 . S
U2326 O2345 2.420 . S
U2326 O2346 2.455 . S
U2326 O2347 2.449 . S
O2327 U2326 2.454 . S
O2327 C2329 1.353 . S
O2328 U2326 2.458 . S
O2328 C2329 1.286 . S
C2329 U2326 2.984 . S
C2329 O2327 1.353 . S
C2329 O2328 1.286 . S
C2329 C2331 1.363 . S
C2330 C2320 1.465 . S
C2330 U2326 2.847 . S
C2330 O2344 1.249 . S
C2330 O2345 1.202 . S
C2331 C2329 1.363 . S
C2331 C2333 1.408 . S
C2331 C2336 1.342 . S
C2332 C2333 1.310 . S
C2332 C2335 1.461 . S
C2332 H2352 0.932 . S
C2333 C2331 1.408 . S
C2333 C2332 1.310 . S
C2333 H2353 0.930 . S
C2334 C2335 1.474 . S
C2334 C2336 1.285 . S
C2334 H2354 0.929 . S
C2335 C2332 1.461 . S
C2335 C2334 1.474 . S
C2336 C2331 1.342 . S
C2336 C2334 1.285 . S
C2336 H2355 0.930 . S
C2337 C2340 1.424 . S
C2337 C2342 1.245 . S
C2337 C2343 1.428 . S
C2338 C2341 1.260 . S
C2338 C2342 1.477 . S
C2338 H2356 0.932 . S
C2339 C2340 1.384 . S
C2339 C2341 1.479 . S
C2339 H2357 0.929 . S
C2340 C2337 1.424 . S
C2340 C2339 1.384 . S
C2340 H2358 0.928 . S
C2341 C2338 1.260 . S
C2341 C2339 1.479 . S
C2342 C2337 1.245 . S
C2342 C2338 1.477 . S
C2342 H2359 0.932 . S
C2343 U2326 2.882 . S
C2343 C2337 1.428 . S
C2343 O2346 1.301 . S
C2343 O2347 1.282 . S
O2344 U2326 2.441 . S
O2344 C2330 1.249 . S
O2345 U2326 2.420 . S
O2345 C2330 1.202 . S
O2346 U2326 2.455 . S
O2346 C2343 1.301 . S
O2347 U2326 2.449 . S
O2347 C2343 1.282 . S
H2348 C2321 0.931 . S
H2349 C2323 0.929 . S
H2350 C2324 0.930 . S
H2351 C2325 0.931 . S
H2352 C2332 0.932 . S
H2353 C2333 0.930 . S
H2354 C2334 0.929 . S
H2355 C2336 0.930 . S
H2356 C2338 0.932 . S
H2357 C2339 0.929 . S
H2358 C2340 0.928 . S
H2359 C2342 0.932 . S
C2360 C2361 1.264 . S
C2360 C2365 1.479 . S
C2360 C2370 1.465 . S
C2361 C2360 1.264 . S
C2361 C2363 1.339 . S
C2361 H2388 0.931 . S
C2362 C2363 1.395 . S
C2362 C2364 1.320 . S
C2363 C2361 1.339 . S
C2363 C2362 1.395 . S
C2363 H2389 0.929 . S
C2364 C2362 1.320 . S
C2364 C2365 1.405 . S
C2364 H2390 0.930 . S
C2365 C2360 1.479 . S
C2365 C2364 1.405 . S
C2365 H2391 0.931 . S
U2366 O2367 2.454 . S
U2366 O2368 2.458 . S
U2366 C2369 2.984 . S
U2366 C2370 2.847 . S
U2366 C2383 2.882 . S
U2366 O2384 2.441 . S
U2366 O2385 2.420 . S
U2366 O2386 2.455 . S
U2366 O2387 2.449 . S
O2367 U2366 2.454 . S
O2367 C2369 1.353 . S
O2368 U2366 2.458 . S
O2368 C2369 1.286 . S
C2369 U2366 2.984 . S
C2369 O2367 1.353 . S
C2369 O2368 1.286 . S
C2369 C2371 1.363 . S
C2370 C2360 1.465 . S
C2370 U2366 2.847 . S
C2370 O2384 1.249 . S
C2370 O2385 1.202 . S
C2371 C2369 1.363 . S
C2371 C2373 1.408 . S
C2371 C2376 1.342 . S
C2372 C2373 1.310 . S
C2372 C2375 1.461 . S
C2372 H2392 0.932 . S
C2373 C2371 1.408 . S
C2373 C2372 1.310 . S
C2373 H2393 0.930 . S
C2374 C2375 1.474 . S
C2374 C2376 1.285 . S
C2374 H2394 0.929 . S
C2375 C2372 1.461 . S
C2375 C2374 1.474 . S
C2376 C2371 1.342 . S
C2376 C2374 1.285 . S
C2376 H2395 0.930 . S
C2377 C2380 1.424 . S
C2377 C2382 1.245 . S
C2377 C2383 1.428 . S
C2378 C2381 1.260 . S
C2378 C2382 1.477 . S
C2378 H2396 0.932 . S
C2379 C2380 1.384 . S
C2379 C2381 1.479 . S
C2379 H2397 0.929 . S
C2380 C2377 1.424 . S
C2380 C2379 1.384 . S
C2380 H2398 0.928 . S
C2381 C2378 1.260 . S
C2381 C2379 1.479 . S
C2382 C2377 1.245 . S
C2382 C2378 1.477 . S
C2382 H2399 0.932 . S
C2383 U2366 2.882 . S
C2383 C2377 1.428 . S
C2383 O2386 1.301 . S
C2383 O2387 1.282 . S
O2384 U2366 2.441 . S
O2384 C2370 1.249 . S
O2385 U2366 2.420 . S
O2385 C2370 1.202 . S
O2386 U2366 2.455 . S
O2386 C2383 1.301 . S
O2387 U2366 2.449 . S
O2387 C2383 1.282 . S
H2388 C2361 0.931 . S
H2389 C2363 0.929 . S
H2390 C2364 0.930 . S
H2391 C2365 0.931 . S
H2392 C2372 0.932 . S
H2393 C2373 0.930 . S
H2394 C2374 0.929 . S
H2395 C2376 0.930 . S
H2396 C2378 0.932 . S
H2397 C2379 0.929 . S
H2398 C2380 0.928 . S
H2399 C2382 0.932 . S
C2400 C2401 1.264 . S
C2400 C2405 1.479 . S
C2400 C2410 1.465 . S
C2401 C2400 1.264 . S
C2401 C2403 1.339 . S
C2401 H2428 0.931 . S
C2402 C2403 1.395 . S
C2402 C2404 1.320 . S
C2403 C2401 1.339 . S
C2403 C2402 1.395 . S
C2403 H2429 0.929 . S
C2404 C2402 1.320 . S
C2404 C2405 1.405 . S
C2404 H2430 0.930 . S
C2405 C2400 1.479 . S
C2405 C2404 1.405 . S
C2405 H2431 0.931 . S
U2406 O2407 2.454 . S
U2406 O2408 2.458 . S
U2406 C2409 2.984 . S
U2406 C2410 2.847 . S
U2406 C2423 2.882 . S
U2406 O2424 2.441 . S
U2406 O2425 2.420 . S
U2406 O2426 2.455 . S
U2406 O2427 2.449 . S
O2407 U2406 2.454 . S
O2407 C2409 1.353 . S
O2408 U2406 2.458 . S
O2408 C2409 1.286 . S
C2409 U2406 2.984 . S
C2409 O2407 1.353 . S
C2409 O2408 1.286 . S
C2409 C2411 1.363 . S
C2410 C2400 1.465 . S
C2410 U2406 2.847 . S
C2410 O2424 1.249 . S
C2410 O2425 1.202 . S
C2411 C2409 1.363 . S
C2411 C2413 1.408 . S
C2411 C2416 1.342 . S
C2412 C2413 1.310 . S
C2412 C2415 1.461 . S
C2412 H2432 0.932 . S
C2413 C2411 1.408 . S
C2413 C2412 1.310 . S
C2413 H2433 0.930 . S
C2414 C2415 1.474 . S
C2414 C2416 1.285 . S
C2414 H2434 0.929 . S
C2415 C2412 1.461 . S
C2415 C2414 1.474 . S
C2416 C2411 1.342 . S
C2416 C2414 1.285 . S
C2416 H2435 0.930 . S
C2417 C2420 1.424 . S
C2417 C2422 1.245 . S
C2417 C2423 1.428 . S
C2418 C2421 1.260 . S
C2418 C2422 1.477 . S
C2418 H2436 0.932 . S
C2419 C2420 1.384 . S
C2419 C2421 1.479 . S
C2419 H2437 0.929 . S
C2420 C2417 1.424 . S
C2420 C2419 1.384 . S
C2420 H2438 0.928 . S
C2421 C2418 1.260 . S
C2421 C2419 1.479 . S
C2422 C2417 1.245 . S
C2422 C2418 1.477 . S
C2422 H2439 0.932 . S
C2423 U2406 2.882 . S
C2423 C2417 1.428 . S
C2423 O2426 1.301 . S
C2423 O2427 1.282 . S
O2424 U2406 2.441 . S
O2424 C2410 1.249 . S
O2425 U2406 2.420 . S
O2425 C2410 1.202 . S
O2426 U2406 2.455 . S
O2426 C2423 1.301 . S
O2427 U2406 2.449 . S
O2427 C2423 1.282 . S
H2428 C2401 0.931 . S
H2429 C2403 0.929 . S
H2430 C2404 0.930 . S
H2431 C2405 0.931 . S
H2432 C2412 0.932 . S
H2433 C2413 0.930 . S
H2434 C2414 0.929 . S
H2435 C2416 0.930 . S
H2436 C2418 0.932 . S
H2437 C2419 0.929 . S
H2438 C2420 0.928 . S
H2439 C2422 0.932 . S
C2440 C2441 1.264 . S
C2440 C2445 1.479 . S
C2440 C2450 1.465 . S
C2441 C2440 1.264 . S
C2441 C2443 1.339 . S
C2441 H2468 0.931 . S
C2442 C2443 1.395 . S
C2442 C2444 1.320 . S
C2443 C2441 1.339 . S
C2443 C2442 1.395 . S
C2443 H2469 0.929 . S
C2444 C2442 1.320 . S
C2444 C2445 1.405 . S
C2444 H2470 0.930 . S
C2445 C2440 1.479 . S
C2445 C2444 1.405 . S
C2445 H2471 0.931 . S
U2446 O2447 2.454 . S
U2446 O2448 2.458 . S
U2446 C2449 2.984 . S
U2446 C2450 2.847 . S
U2446 C2463 2.882 . S
U2446 O2464 2.441 . S
U2446 O2465 2.420 . S
U2446 O2466 2.455 . S
U2446 O2467 2.449 . S
O2447 U2446 2.454 . S
O2447 C2449 1.353 . S
O2448 U2446 2.458 . S
O2448 C2449 1.286 . S
C2449 U2446 2.984 . S
C2449 O2447 1.353 . S
C2449 O2448 1.286 . S
C2449 C2451 1.363 . S
C2450 C2440 1.465 . S
C2450 U2446 2.847 . S
C2450 O2464 1.249 . S
C2450 O2465 1.202 . S
C2451 C2449 1.363 . S
C2451 C2453 1.408 . S
C2451 C2456 1.342 . S
C2452 C2453 1.310 . S
C2452 C2455 1.461 . S
C2452 H2472 0.932 . S
C2453 C2451 1.408 . S
C2453 C2452 1.310 . S
C2453 H2473 0.930 . S
C2454 C2455 1.474 . S
C2454 C2456 1.285 . S
C2454 H2474 0.929 . S
C2455 C2452 1.461 . S
C2455 C2454 1.474 . S
C2456 C2451 1.342 . S
C2456 C2454 1.285 . S
C2456 H2475 0.930 . S
C2457 C2460 1.424 . S
C2457 C2462 1.245 . S
C2457 C2463 1.428 . S
C2458 C2461 1.260 . S
C2458 C2462 1.477 . S
C2458 H2476 0.932 . S
C2459 C2460 1.384 . S
C2459 C2461 1.479 . S
C2459 H2477 0.929 . S
C2460 C2457 1.424 . S
C2460 C2459 1.384 . S
C2460 H2478 0.928 . S
C2461 C2458 1.260 . S
C2461 C2459 1.479 . S
C2462 C2457 1.245 . S
C2462 C2458 1.477 . S
C2462 H2479 0.932 . S
C2463 U2446 2.882 . S
C2463 C2457 1.428 . S
C2463 O2466 1.301 . S
C2463 O2467 1.282 . S
O2464 U2446 2.441 . S
O2464 C2450 1.249 . S
O2465 U2446 2.420 . S
O2465 C2450 1.202 . S
O2466 U2446 2.455 . S
O2466 C2463 1.301 . S
O2467 U2446 2.449 . S
O2467 C2463 1.282 . S
H2468 C2441 0.931 . S
H2469 C2443 0.929 . S
H2470 C2444 0.930 . S
H2471 C2445 0.931 . S
H2472 C2452 0.932 . S
H2473 C2453 0.930 . S
H2474 C2454 0.929 . S
H2475 C2456 0.930 . S
H2476 C2458 0.932 . S
H2477 C2459 0.929 . S
H2478 C2460 0.928 . S
H2479 C2462 0.932 . S
C2480 C2481 1.264 . S
C2480 C2485 1.479 . S
C2480 C2490 1.465 . S
C2481 C2480 1.264 . S
C2481 C2483 1.339 . S
C2481 H2508 0.931 . S
C2482 C2483 1.395 . S
C2482 C2484 1.320 . S
C2483 C2481 1.339 . S
C2483 C2482 1.395 . S
C2483 H2509 0.929 . S
C2484 C2482 1.320 . S
C2484 C2485 1.405 . S
C2484 H2510 0.930 . S
C2485 C2480 1.479 . S
C2485 C2484 1.405 . S
C2485 H2511 0.931 . S
U2486 O2487 2.454 . S
U2486 O2488 2.458 . S
U2486 C2489 2.984 . S
U2486 C2490 2.847 . S
U2486 C2503 2.882 . S
U2486 O2504 2.441 . S
U2486 O2505 2.420 . S
U2486 O2506 2.455 . S
U2486 O2507 2.449 . S
O2487 U2486 2.454 . S
O2487 C2489 1.353 . S
O2488 U2486 2.458 . S
O2488 C2489 1.286 . S
C2489 U2486 2.984 . S
C2489 O2487 1.353 . S
C2489 O2488 1.286 . S
C2489 C2491 1.363 . S
C2490 C2480 1.465 . S
C2490 U2486 2.847 . S
C2490 O2504 1.249 . S
C2490 O2505 1.202 . S
C2491 C2489 1.363 . S
C2491 C2493 1.408 . S
C2491 C2496 1.342 . S
C2492 C2493 1.310 . S
C2492 C2495 1.461 . S
C2492 H2512 0.932 . S
C2493 C2491 1.408 . S
C2493 C2492 1.310 . S
C2493 H2513 0.930 . S
C2494 C2495 1.474 . S
C2494 C2496 1.285 . S
C2494 H2514 0.929 . S
C2495 C2492 1.461 . S
C2495 C2494 1.474 . S
C2496 C2491 1.342 . S
C2496 C2494 1.285 . S
C2496 H2515 0.930 . S
C2497 C2500 1.424 . S
C2497 C2502 1.245 . S
C2497 C2503 1.428 . S
C2498 C2501 1.260 . S
C2498 C2502 1.477 . S
C2498 H2516 0.932 . S
C2499 C2500 1.384 . S
C2499 C2501 1.479 . S
C2499 H2517 0.929 . S
C2500 C2497 1.424 . S
C2500 C2499 1.384 . S
C2500 H2518 0.928 . S
C2501 C2498 1.260 . S
C2501 C2499 1.479 . S
C2502 C2497 1.245 . S
C2502 C2498 1.477 . S
C2502 H2519 0.932 . S
C2503 U2486 2.882 . S
C2503 C2497 1.428 . S
C2503 O2506 1.301 . S
C2503 O2507 1.282 . S
O2504 U2486 2.441 . S
O2504 C2490 1.249 . S
O2505 U2486 2.420 . S
O2505 C2490 1.202 . S
O2506 U2486 2.455 . S
O2506 C2503 1.301 . S
O2507 U2486 2.449 . S
O2507 C2503 1.282 . S
H2508 C2481 0.931 . S
H2509 C2483 0.929 . S
H2510 C2484 0.930 . S
H2511 C2485 0.931 . S
H2512 C2492 0.932 . S
H2513 C2493 0.930 . S
H2514 C2494 0.929 . S
H2515 C2496 0.930 . S
H2516 C2498 0.932 . S
H2517 C2499 0.929 . S
H2518 C2500 0.928 . S
H2519 C2502 0.932 . S
C2520 C2521 1.264 . S
C2520 C2525 1.479 . S
C2520 C2530 1.465 . S
C2521 C2520 1.264 . S
C2521 C2523 1.339 . S
C2521 H2548 0.931 . S
C2522 C2523 1.395 . S
C2522 C2524 1.320 . S
C2523 C2521 1.339 . S
C2523 C2522 1.395 . S
C2523 H2549 0.929 . S
C2524 C2522 1.320 . S
C2524 C2525 1.405 . S
C2524 H2550 0.930 . S
C2525 C2520 1.479 . S
C2525 C2524 1.405 . S
C2525 H2551 0.931 . S
U2526 O2527 2.454 . S
U2526 O2528 2.458 . S
U2526 C2529 2.984 . S
U2526 C2530 2.847 . S
U2526 C2543 2.882 . S
U2526 O2544 2.441 . S
U2526 O2545 2.420 . S
U2526 O2546 2.455 . S
U2526 O2547 2.449 . S
O2527 U2526 2.454 . S
O2527 C2529 1.353 . S
O2528 U2526 2.458 . S
O2528 C2529 1.286 . S
C2529 U2526 2.984 . S
C2529 O2527 1.353 . S
C2529 O2528 1.286 . S
C2529 C2531 1.363 . S
C2530 C2520 1.465 . S
C2530 U2526 2.847 . S
C2530 O2544 1.249 . S
C2530 O2545 1.202 . S
C2531 C2529 1.363 . S
C2531 C2533 1.408 . S
C2531 C2536 1.342 . S
C2532 C2533 1.310 . S
C2532 C2535 1.461 . S
C2532 H2552 0.932 . S
C2533 C2531 1.408 . S
C2533 C2532 1.310 . S
C2533 H2553 0.930 . S
C2534 C2535 1.474 . S
C2534 C2536 1.285 . S
C2534 H2554 0.929 . S
C2535 C2532 1.461 . S
C2535 C2534 1.474 . S
C2536 C2531 1.342 . S
C2536 C2534 1.285 . S
C2536 H2555 0.930 . S
C2537 C2540 1.424 . S
C2537 C2542 1.245 . S
C2537 C2543 1.428 . S
C2538 C2541 1.260 . S
C2538 C2542 1.477 . S
C2538 H2556 0.932 . S
C2539 C2540 1.384 . S
C2539 C2541 1.479 . S
C2539 H2557 0.929 . S
C2540 C2537 1.424 . S
C2540 C2539 1.384 . S
C2540 H2558 0.928 . S
C2541 C2538 1.260 . S
C2541 C2539 1.479 . S
C2542 C2537 1.245 . S
C2542 C2538 1.477 . S
C2542 H2559 0.932 . S
C2543 U2526 2.882 . S
C2543 C2537 1.428 . S
C2543 O2546 1.301 . S
C2543 O2547 1.282 . S
O2544 U2526 2.441 . S
O2544 C2530 1.249 . S
O2545 U2526 2.420 . S
O2545 C2530 1.202 . S
O2546 U2526 2.455 . S
O2546 C2543 1.301 . S
O2547 U2526 2.449 . S
O2547 C2543 1.282 . S
H2548 C2521 0.931 . S
H2549 C2523 0.929 . S
H2550 C2524 0.930 . S
H2551 C2525 0.931 . S
H2552 C2532 0.932 . S
H2553 C2533 0.930 . S
H2554 C2534 0.929 . S
H2555 C2536 0.930 . S
H2556 C2538 0.932 . S
H2557 C2539 0.929 . S
H2558 C2540 0.928 . S
H2559 C2542 0.932 . S
C2560 C2561 1.264 . S
C2560 C2565 1.479 . S
C2560 C2570 1.465 . S
C2561 C2560 1.264 . S
C2561 C2563 1.339 . S
C2561 H2588 0.931 . S
C2562 C2563 1.395 . S
C2562 C2564 1.320 . S
C2563 C2561 1.339 . S
C2563 C2562 1.395 . S
C2563 H2589 0.929 . S
C2564 C2562 1.320 . S
C2564 C2565 1.405 . S
C2564 H2590 0.930 . S
C2565 C2560 1.479 . S
C2565 C2564 1.405 . S
C2565 H2591 0.931 . S
U2566 O2567 2.454 . S
U2566 O2568 2.458 . S
U2566 C2569 2.984 . S
U2566 C2570 2.847 . S
U2566 C2583 2.882 . S
U2566 O2584 2.441 . S
U2566 O2585 2.420 . S
U2566 O2586 2.455 . S
U2566 O2587 2.449 . S
O2567 U2566 2.454 . S
O2567 C2569 1.353 . S
O2568 U2566 2.458 . S
O2568 C2569 1.286 . S
C2569 U2566 2.984 . S
C2569 O2567 1.353 . S
C2569 O2568 1.286 . S
C2569 C2571 1.363 . S
C2570 C2560 1.465 . S
C2570 U2566 2.847 . S
C2570 O2584 1.249 . S
C2570 O2585 1.202 . S
C2571 C2569 1.363 . S
C2571 C2573 1.408 . S
C2571 C2576 1.342 . S
C2572 C2573 1.310 . S
C2572 C2575 1.461 . S
C2572 H2592 0.932 . S
C2573 C2571 1.408 . S
C2573 C2572 1.310 . S
C2573 H2593 0.930 . S
C2574 C2575 1.474 . S
C2574 C2576 1.285 . S
C2574 H2594 0.929 . S
C2575 C2572 1.461 . S
C2575 C2574 1.474 . S
C2576 C2571 1.342 . S
C2576 C2574 1.285 . S
C2576 H2595 0.930 . S
C2577 C2580 1.424 . S
C2577 C2582 1.245 . S
C2577 C2583 1.428 . S
C2578 C2581 1.260 . S
C2578 C2582 1.477 . S
C2578 H2596 0.932 . S
C2579 C2580 1.384 . S
C2579 C2581 1.479 . S
C2579 H2597 0.929 . S
C2580 C2577 1.424 . S
C2580 C2579 1.384 . S
C2580 H2598 0.928 . S
C2581 C2578 1.260 . S
C2581 C2579 1.479 . S
C2582 C2577 1.245 . S
C2582 C2578 1.477 . S
C2582 H2599 0.932 . S
C2583 U2566 2.882 . S
C2583 C2577 1.428 . S
C2583 O2586 1.301 . S
C2583 O2587 1.282 . S
O2584 U2566 2.441 . S
O2584 C2570 1.249 . S
O2585 U2566 2.420 . S
O2585 C2570 1.202 . S
O2586 U2566 2.455 . S
O2586 C2583 1.301 . S
O2587 U2566 2.449 . S
O2587 C2583 1.282 . S
H2588 C2561 0.931 . S
H2589 C2563 0.929 . S
H2590 C2564 0.930 . S
H2591 C2565 0.931 . S
H2592 C2572 0.932 . S
H2593 C2573 0.930 . S
H2594 C2574 0.929 . S
H2595 C2576 0.930 . S
H2596 C2578 0.932 . S
H2597 C2579 0.929 . S
H2598 C2580 0.928 . S
H2599 C2582 0.932 . S
C2600 C2601 1.264 . S
C2600 C2605 1.479 . S
C2600 C2610 1.465 . S
C2601 C2600 1.264 . S
C2601 C2603 1.339 . S
C2601 H2628 0.931 . S
C2602 C2603 1.395 . S
C2602 C2604 1.320 . S
C2603 C2601 1.339 . S
C2603 C2602 1.395 . S
C2603 H2629 0.929 . S
C2604 C2602 1.320 . S
C2604 C2605 1.405 . S
C2604 H2630 0.930 . S
C2605 C2600 1.479 . S
C2605 C2604 1.405 . S
C2605 H2631 0.931 . S
U2606 O2607 2.454 . S
U2606 O2608 2.458 . S
U2606 C2609 2.984 . S
U2606 C2610 2.847 . S
U2606 C2623 2.882 . S
U2606 O2624 2.441 . S
U2606 O2625 2.420 . S
U2606 O2626 2.455 . S
U2606 O2627 2.449 . S
O2607 U2606 2.454 . S
O2607 C2609 1.353 . S
O2608 U2606 2.458 . S
O2608 C2609 1.286 . S
C2609 U2606 2.984 . S
C2609 O2607 1.353 . S
C2609 O2608 1.286 . S
C2609 C2611 1.363 . S
C2610 C2600 1.465 . S
C2610 U2606 2.847 . S
C2610 O2624 1.249 . S
C2610 O2625 1.202 . S
C2611 C2609 1.363 . S
C2611 C2613 1.408 . S
C2611 C2616 1.342 . S
C2612 C2613 1.310 . S
C2612 C2615 1.461 . S
C2612 H2632 0.932 . S
C2613 C2611 1.408 . S
C2613 C2612 1.310 . S
C2613 H2633 0.930 . S
C2614 C2615 1.474 . S
C2614 C2616 1.285 . S
C2614 H2634 0.929 . S
C2615 C2612 1.461 . S
C2615 C2614 1.474 . S
C2616 C2611 1.342 . S
C2616 C2614 1.285 . S
C2616 H2635 0.930 . S
C2617 C2620 1.424 . S
C2617 C2622 1.245 . S
C2617 C2623 1.428 . S
C2618 C2621 1.260 . S
C2618 C2622 1.477 . S
C2618 H2636 0.932 . S
C2619 C2620 1.384 . S
C2619 C2621 1.479 . S
C2619 H2637 0.929 . S
C2620 C2617 1.424 . S
C2620 C2619 1.384 . S
C2620 H2638 0.928 . S
C2621 C2618 1.260 . S
C2621 C2619 1.479 . S
C2622 C2617 1.245 . S
C2622 C2618 1.477 . S
C2622 H2639 0.932 . S
C2623 U2606 2.882 . S
C2623 C2617 1.428 . S
C2623 O2626 1.301 . S
C2623 O2627 1.282 . S
O2624 U2606 2.441 . S
O2624 C2610 1.249 . S
O2625 U2606 2.420 . S
O2625 C2610 1.202 . S
O2626 U2606 2.455 . S
O2626 C2623 1.301 . S
O2627 U2606 2.449 . S
O2627 C2623 1.282 . S
H2628 C2601 0.931 . S
H2629 C2603 0.929 . S
H2630 C2604 0.930 . S
H2631 C2605 0.931 . S
H2632 C2612 0.932 . S
H2633 C2613 0.930 . S
H2634 C2614 0.929 . S
H2635 C2616 0.930 . S
H2636 C2618 0.932 . S
H2637 C2619 0.929 . S
H2638 C2620 0.928 . S
H2639 C2622 0.932 . S
C2640 C2641 1.264 . S
C2640 C2645 1.479 . S
C2640 C2650 1.465 . S
C2641 C2640 1.264 . S
C2641 C2643 1.339 . S
C2641 H2668 0.931 . S
C2642 C2643 1.395 . S
C2642 C2644 1.320 . S
C2643 C2641 1.339 . S
C2643 C2642 1.395 . S
C2643 H2669 0.929 . S
C2644 C2642 1.320 . S
C2644 C2645 1.405 . S
C2644 H2670 0.930 . S
C2645 C2640 1.479 . S
C2645 C2644 1.405 . S
C2645 H2671 0.931 . S
U2646 O2647 2.454 . S
U2646 O2648 2.458 . S
U2646 C2649 2.984 . S
U2646 C2650 2.847 . S
U2646 C2663 2.882 . S
U2646 O2664 2.441 . S
U2646 O2665 2.420 . S
U2646 O2666 2.455 . S
U2646 O2667 2.449 . S
O2647 U2646 2.454 . S
O2647 C2649 1.353 . S
O2648 U2646 2.458 . S
O2648 C2649 1.286 . S
C2649 U2646 2.984 . S
C2649 O2647 1.353 . S
C2649 O2648 1.286 . S
C2649 C2651 1.363 . S
C2650 C2640 1.465 . S
C2650 U2646 2.847 . S
C2650 O2664 1.249 . S
C2650 O2665 1.202 . S
C2651 C2649 1.363 . S
C2651 C2653 1.408 . S
C2651 C2656 1.342 . S
C2652 C2653 1.310 . S
C2652 C2655 1.461 . S
C2652 H2672 0.932 . S
C2653 C2651 1.408 . S
C2653 C2652 1.310 . S
C2653 H2673 0.930 . S
C2654 C2655 1.474 . S
C2654 C2656 1.285 . S
C2654 H2674 0.929 . S
C2655 C2652 1.461 . S
C2655 C2654 1.474 . S
C2656 C2651 1.342 . S
C2656 C2654 1.285 . S
C2656 H2675 0.930 . S
C2657 C2660 1.424 . S
C2657 C2662 1.245 . S
C2657 C2663 1.428 . S
C2658 C2661 1.260 . S
C2658 C2662 1.477 . S
C2658 H2676 0.932 . S
C2659 C2660 1.384 . S
C2659 C2661 1.479 . S
C2659 H2677 0.929 . S
C2660 C2657 1.424 . S
C2660 C2659 1.384 . S
C2660 H2678 0.928 . S
C2661 C2658 1.260 . S
C2661 C2659 1.479 . S
C2662 C2657 1.245 . S
C2662 C2658 1.477 . S
C2662 H2679 0.932 . S
C2663 U2646 2.882 . S
C2663 C2657 1.428 . S
C2663 O2666 1.301 . S
C2663 O2667 1.282 . S
O2664 U2646 2.441 . S
O2664 C2650 1.249 . S
O2665 U2646 2.420 . S
O2665 C2650 1.202 . S
O2666 U2646 2.455 . S
O2666 C2663 1.301 . S
O2667 U2646 2.449 . S
O2667 C2663 1.282 . S
H2668 C2641 0.931 . S
H2669 C2643 0.929 . S
H2670 C2644 0.930 . S
H2671 C2645 0.931 . S
H2672 C2652 0.932 . S
H2673 C2653 0.930 . S
H2674 C2654 0.929 . S
H2675 C2656 0.930 . S
H2676 C2658 0.932 . S
H2677 C2659 0.929 . S
H2678 C2660 0.928 . S
H2679 C2662 0.932 . S
C2680 C2681 1.264 . S
C2680 C2685 1.479 . S
C2680 C2690 1.465 . S
C2681 C2680 1.264 . S
C2681 C2683 1.339 . S
C2681 H2708 0.931 . S
C2682 C2683 1.395 . S
C2682 C2684 1.320 . S
C2683 C2681 1.339 . S
C2683 C2682 1.395 . S
C2683 H2709 0.929 . S
C2684 C2682 1.320 . S
C2684 C2685 1.405 . S
C2684 H2710 0.930 . S
C2685 C2680 1.479 . S
C2685 C2684 1.405 . S
C2685 H2711 0.931 . S
U2686 O2687 2.454 . S
U2686 O2688 2.458 . S
U2686 C2689 2.984 . S
U2686 C2690 2.847 . S
U2686 C2703 2.882 . S
U2686 O2704 2.441 . S
U2686 O2705 2.420 . S
U2686 O2706 2.455 . S
U2686 O2707 2.449 . S
O2687 U2686 2.454 . S
O2687 C2689 1.353 . S
O2688 U2686 2.458 . S
O2688 C2689 1.286 . S
C2689 U2686 2.984 . S
C2689 O2687 1.353 . S
C2689 O2688 1.286 . S
C2689 C2691 1.363 . S
C2690 C2680 1.465 . S
C2690 U2686 2.847 . S
C2690 O2704 1.249 . S
C2690 O2705 1.202 . S
C2691 C2689 1.363 . S
C2691 C2693 1.408 . S
C2691 C2696 1.342 . S
C2692 C2693 1.310 . S
C2692 C2695 1.461 . S
C2692 H2712 0.932 . S
C2693 C2691 1.408 . S
C2693 C2692 1.310 . S
C2693 H2713 0.930 . S
C2694 C2695 1.474 . S
C2694 C2696 1.285 . S
C2694 H2714 0.929 . S
C2695 C2692 1.461 . S
C2695 C2694 1.474 . S
C2696 C2691 1.342 . S
C2696 C2694 1.285 . S
C2696 H2715 0.930 . S
C2697 C2700 1.424 . S
C2697 C2702 1.245 . S
C2697 C2703 1.428 . S
C2698 C2701 1.260 . S
C2698 C2702 1.477 . S
C2698 H2716 0.932 . S
C2699 C2700 1.384 . S
C2699 C2701 1.479 . S
C2699 H2717 0.929 . S
C2700 C2697 1.424 . S
C2700 C2699 1.384 . S
C2700 H2718 0.928 . S
C2701 C2698 1.260 . S
C2701 C2699 1.479 . S
C2702 C2697 1.245 . S
C2702 C2698 1.477 . S
C2702 H2719 0.932 . S
C2703 U2686 2.882 . S
C2703 C2697 1.428 . S
C2703 O2706 1.301 . S
C2703 O2707 1.282 . S
O2704 U2686 2.441 . S
O2704 C2690 1.249 . S
O2705 U2686 2.420 . S
O2705 C2690 1.202 . S
O2706 U2686 2.455 . S
O2706 C2703 1.301 . S
O2707 U2686 2.449 . S
O2707 C2703 1.282 . S
H2708 C2681 0.931 . S
H2709 C2683 0.929 . S
H2710 C2684 0.930 . S
H2711 C2685 0.931 . S
H2712 C2692 0.932 . S
H2713 C2693 0.930 . S
H2714 C2694 0.929 . S
H2715 C2696 0.930 . S
H2716 C2698 0.932 . S
H2717 C2699 0.929 . S
H2718 C2700 0.928 . S
H2719 C2702 0.932 . S
C2720 C2721 1.264 . S
C2720 C2725 1.479 . S
C2720 C2730 1.465 . S
C2721 C2720 1.264 . S
C2721 C2723 1.339 . S
C2721 H2748 0.931 . S
C2722 C2723 1.395 . S
C2722 C2724 1.320 . S
C2723 C2721 1.339 . S
C2723 C2722 1.395 . S
C2723 H2749 0.929 . S
C2724 C2722 1.320 . S
C2724 C2725 1.405 . S
C2724 H2750 0.930 . S
C2725 C2720 1.479 . S
C2725 C2724 1.405 . S
C2725 H2751 0.931 . S
U2726 O2727 2.454 . S
U2726 O2728 2.458 . S
U2726 C2729 2.984 . S
U2726 C2730 2.847 . S
U2726 C2743 2.882 . S
U2726 O2744 2.441 . S
U2726 O2745 2.420 . S
U2726 O2746 2.455 . S
U2726 O2747 2.449 . S
O2727 U2726 2.454 . S
O2727 C2729 1.353 . S
O2728 U2726 2.458 . S
O2728 C2729 1.286 . S
C2729 U2726 2.984 . S
C2729 O2727 1.353 . S
C2729 O2728 1.286 . S
C2729 C2731 1.363 . S
C2730 C2720 1.465 . S
C2730 U2726 2.847 . S
C2730 O2744 1.249 . S
C2730 O2745 1.202 . S
C2731 C2729 1.363 . S
C2731 C2733 1.408 . S
C2731 C2736 1.342 . S
C2732 C2733 1.310 . S
C2732 C2735 1.461 . S
C2732 H2752 0.932 . S
C2733 C2731 1.408 . S
C2733 C2732 1.310 . S
C2733 H2753 0.930 . S
C2734 C2735 1.474 . S
C2734 C2736 1.285 . S
C2734 H2754 0.929 . S
C2735 C2732 1.461 . S
C2735 C2734 1.474 . S
C2736 C2731 1.342 . S
C2736 C2734 1.285 . S
C2736 H2755 0.930 . S
C2737 C2740 1.424 . S
C2737 C2742 1.245 . S
C2737 C2743 1.428 . S
C2738 C2741 1.260 . S
C2738 C2742 1.477 . S
C2738 H2756 0.932 . S
C2739 C2740 1.384 . S
C2739 C2741 1.479 . S
C2739 H2757 0.929 . S
C2740 C2737 1.424 . S
C2740 C2739 1.384 . S
C2740 H2758 0.928 . S
C2741 C2738 1.260 . S
C2741 C2739 1.479 . S
C2742 C2737 1.245 . S
C2742 C2738 1.477 . S
C2742 H2759 0.932 . S
C2743 U2726 2.882 . S
C2743 C2737 1.428 . S
C2743 O2746 1.301 . S
C2743 O2747 1.282 . S
O2744 U2726 2.441 . S
O2744 C2730 1.249 . S
O2745 U2726 2.420 . S
O2745 C2730 1.202 . S
O2746 U2726 2.455 . S
O2746 C2743 1.301 . S
O2747 U2726 2.449 . S
O2747 C2743 1.282 . S
H2748 C2721 0.931 . S
H2749 C2723 0.929 . S
H2750 C2724 0.930 . S
H2751 C2725 0.931 . S
H2752 C2732 0.932 . S
H2753 C2733 0.930 . S
H2754 C2734 0.929 . S
H2755 C2736 0.930 . S
H2756 C2738 0.932 . S
H2757 C2739 0.929 . S
H2758 C2740 0.928 . S
H2759 C2742 0.932 . S
C2760 C2761 1.264 . S
C2760 C2765 1.479 . S
C2760 C2770 1.465 . S
C2761 C2760 1.264 . S
C2761 C2763 1.339 . S
C2761 H2788 0.931 . S
C2762 C2763 1.395 . S
C2762 C2764 1.320 . S
C2763 C2761 1.339 . S
C2763 C2762 1.395 . S
C2763 H2789 0.929 . S
C2764 C2762 1.320 . S
C2764 C2765 1.405 . S
C2764 H2790 0.930 . S
C2765 C2760 1.479 . S
C2765 C2764 1.405 . S
C2765 H2791 0.931 . S
U2766 O2767 2.454 . S
U2766 O2768 2.458 . S
U2766 C2769 2.984 . S
U2766 C2770 2.847 . S
U2766 C2783 2.882 . S
U2766 O2784 2.441 . S
U2766 O2785 2.420 . S
U2766 O2786 2.455 . S
U2766 O2787 2.449 . S
O2767 U2766 2.454 . S
O2767 C2769 1.353 . S
O2768 U2766 2.458 . S
O2768 C2769 1.286 . S
C2769 U2766 2.984 . S
C2769 O2767 1.353 . S
C2769 O2768 1.286 . S
C2769 C2771 1.363 . S
C2770 C2760 1.465 . S
C2770 U2766 2.847 . S
C2770 O2784 1.249 . S
C2770 O2785 1.202 . S
C2771 C2769 1.363 . S
C2771 C2773 1.408 . S
C2771 C2776 1.342 . S
C2772 C2773 1.310 . S
C2772 C2775 1.461 . S
C2772 H2792 0.932 . S
C2773 C2771 1.408 . S
C2773 C2772 1.310 . S
C2773 H2793 0.930 . S
C2774 C2775 1.474 . S
C2774 C2776 1.285 . S
C2774 H2794 0.929 . S
C2775 C2772 1.461 . S
C2775 C2774 1.474 . S
C2776 C2771 1.342 . S
C2776 C2774 1.285 . S
C2776 H2795 0.930 . S
C2777 C2780 1.424 . S
C2777 C2782 1.245 . S
C2777 C2783 1.428 . S
C2778 C2781 1.260 . S
C2778 C2782 1.477 . S
C2778 H2796 0.932 . S
C2779 C2780 1.384 . S
C2779 C2781 1.479 . S
C2779 H2797 0.929 . S
C2780 C2777 1.424 . S
C2780 C2779 1.384 . S
C2780 H2798 0.928 . S
C2781 C2778 1.260 . S
C2781 C2779 1.479 . S
C2782 C2777 1.245 . S
C2782 C2778 1.477 . S
C2782 H2799 0.932 . S
C2783 U2766 2.882 . S
C2783 C2777 1.428 . S
C2783 O2786 1.301 . S
C2783 O2787 1.282 . S
O2784 U2766 2.441 . S
O2784 C2770 1.249 . S
O2785 U2766 2.420 . S
O2785 C2770 1.202 . S
O2786 U2766 2.455 . S
O2786 C2783 1.301 . S
O2787 U2766 2.449 . S
O2787 C2783 1.282 . S
H2788 C2761 0.931 . S
H2789 C2763 0.929 . S
H2790 C2764 0.930 . S
H2791 C2765 0.931 . S
H2792 C2772 0.932 . S
H2793 C2773 0.930 . S
H2794 C2774 0.929 . S
H2795 C2776 0.930 . S
H2796 C2778 0.932 . S
H2797 C2779 0.929 . S
H2798 C2780 0.928 . S
H2799 C2782 0.932 . S
C2800 C2801 1.264 . S
C2800 C2805 1.479 . S
C2800 C2810 1.465 . S
C2801 C2800 1.264 . S
C2801 C2803 1.339 . S
C2801 H2828 0.931 . S
C2802 C2803 1.395 . S
C2802 C2804 1.320 . S
C2803 C2801 1.339 . S
C2803 C2802 1.395 . S
C2803 H2829 0.929 . S
C2804 C2802 1.320 . S
C2804 C2805 1.405 . S
C2804 H2830 0.930 . S
C2805 C2800 1.479 . S
C2805 C2804 1.405 . S
C2805 H2831 0.931 . S
U2806 O2807 2.454 . S
U2806 O2808 2.458 . S
U2806 C2809 2.984 . S
U2806 C2810 2.847 . S
U2806 C2823 2.882 . S
U2806 O2824 2.441 . S
U2806 O2825 2.420 . S
U2806 O2826 2.455 . S
U2806 O2827 2.449 . S
O2807 U2806 2.454 . S
O2807 C2809 1.353 . S
O2808 U2806 2.458 . S
O2808 C2809 1.286 . S
C2809 U2806 2.984 . S
C2809 O2807 1.353 . S
C2809 O2808 1.286 . S
C2809 C2811 1.363 . S
C2810 C2800 1.465 . S
C2810 U2806 2.847 . S
C2810 O2824 1.249 . S
C2810 O2825 1.202 . S
C2811 C2809 1.363 . S
C2811 C2813 1.408 . S
C2811 C2816 1.342 . S
C2812 C2813 1.310 . S
C2812 C2815 1.461 . S
C2812 H2832 0.932 . S
C2813 C2811 1.408 . S
C2813 C2812 1.310 . S
C2813 H2833 0.930 . S
C2814 C2815 1.474 . S
C2814 C2816 1.285 . S
C2814 H2834 0.929 . S
C2815 C2812 1.461 . S
C2815 C2814 1.474 . S
C2816 C2811 1.342 . S
C2816 C2814 1.285 . S
C2816 H2835 0.930 . S
C2817 C2820 1.424 . S
C2817 C2822 1.245 . S
C2817 C2823 1.428 . S
C2818 C2821 1.260 . S
C2818 C2822 1.477 . S
C2818 H2836 0.932 . S
C2819 C2820 1.384 . S
C2819 C2821 1.479 . S
C2819 H2837 0.929 . S
C2820 C2817 1.424 . S
C2820 C2819 1.384 . S
C2820 H2838 0.928 . S
C2821 C2818 1.260 . S
C2821 C2819 1.479 . S
C2822 C2817 1.245 . S
C2822 C2818 1.477 . S
C2822 H2839 0.932 . S
C2823 U2806 2.882 . S
C2823 C2817 1.428 . S
C2823 O2826 1.301 . S
C2823 O2827 1.282 . S
O2824 U2806 2.441 . S
O2824 C2810 1.249 . S
O2825 U2806 2.420 . S
O2825 C2810 1.202 . S
O2826 U2806 2.455 . S
O2826 C2823 1.301 . S
O2827 U2806 2.449 . S
O2827 C2823 1.282 . S
H2828 C2801 0.931 . S
H2829 C2803 0.929 . S
H2830 C2804 0.930 . S
H2831 C2805 0.931 . S
H2832 C2812 0.932 . S
H2833 C2813 0.930 . S
H2834 C2814 0.929 . S
H2835 C2816 0.930 . S
H2836 C2818 0.932 . S
H2837 C2819 0.929 . S
H2838 C2820 0.928 . S
H2839 C2822 0.932 . S
C2840 C2841 1.264 . S
C2840 C2845 1.479 . S
C2840 C2850 1.465 . S
C2841 C2840 1.264 . S
C2841 C2843 1.339 . S
C2841 H2868 0.931 . S
C2842 C2843 1.395 . S
C2842 C2844 1.320 . S
C2843 C2841 1.339 . S
C2843 C2842 1.395 . S
C2843 H2869 0.929 . S
C2844 C2842 1.320 . S
C2844 C2845 1.405 . S
C2844 H2870 0.930 . S
C2845 C2840 1.479 . S
C2845 C2844 1.405 . S
C2845 H2871 0.931 . S
U2846 O2847 2.454 . S
U2846 O2848 2.458 . S
U2846 C2849 2.984 . S
U2846 C2850 2.847 . S
U2846 C2863 2.882 . S
U2846 O2864 2.441 . S
U2846 O2865 2.420 . S
U2846 O2866 2.455 . S
U2846 O2867 2.449 . S
O2847 U2846 2.454 . S
O2847 C2849 1.353 . S
O2848 U2846 2.458 . S
O2848 C2849 1.286 . S
C2849 U2846 2.984 . S
C2849 O2847 1.353 . S
C2849 O2848 1.286 . S
C2849 C2851 1.363 . S
C2850 C2840 1.465 . S
C2850 U2846 2.847 . S
C2850 O2864 1.249 . S
C2850 O2865 1.202 . S
C2851 C2849 1.363 . S
C2851 C2853 1.408 . S
C2851 C2856 1.342 . S
C2852 C2853 1.310 . S
C2852 C2855 1.461 . S
C2852 H2872 0.932 . S
C2853 C2851 1.408 . S
C2853 C2852 1.310 . S
C2853 H2873 0.930 . S
C2854 C2855 1.474 . S
C2854 C2856 1.285 . S
C2854 H2874 0.929 . S
C2855 C2852 1.461 . S
C2855 C2854 1.474 . S
C2856 C2851 1.342 . S
C2856 C2854 1.285 . S
C2856 H2875 0.930 . S
C2857 C2860 1.424 . S
C2857 C2862 1.245 . S
C2857 C2863 1.428 . S
C2858 C2861 1.260 . S
C2858 C2862 1.477 . S
C2858 H2876 0.932 . S
C2859 C2860 1.384 . S
C2859 C2861 1.479 . S
C2859 H2877 0.929 . S
C2860 C2857 1.424 . S
C2860 C2859 1.384 . S
C2860 H2878 0.928 . S
C2861 C2858 1.260 . S
C2861 C2859 1.479 . S
C2862 C2857 1.245 . S
C2862 C2858 1.477 . S
C2862 H2879 0.932 . S
C2863 U2846 2.882 . S
C2863 C2857 1.428 . S
C2863 O2866 1.301 . S
C2863 O2867 1.282 . S
O2864 U2846 2.441 . S
O2864 C2850 1.249 . S
O2865 U2846 2.420 . S
O2865 C2850 1.202 . S
O2866 U2846 2.455 . S
O2866 C2863 1.301 . S
O2867 U2846 2.449 . S
O2867 C2863 1.282 . S
H2868 C2841 0.931 . S
H2869 C2843 0.929 . S
H2870 C2844 0.930 . S
H2871 C2845 0.931 . S
H2872 C2852 0.932 . S
H2873 C2853 0.930 . S
H2874 C2854 0.929 . S
H2875 C2856 0.930 . S
H2876 C2858 0.932 . S
H2877 C2859 0.929 . S
H2878 C2860 0.928 . S
H2879 C2862 0.932 . S
C2880 C2881 1.264 . S
C2880 C2885 1.479 . S
C2880 C2890 1.465 . S
C2881 C2880 1.264 . S
C2881 C2883 1.339 . S
C2881 H2908 0.931 . S
C2882 C2883 1.395 . S
C2882 C2884 1.320 . S
C2883 C2881 1.339 . S
C2883 C2882 1.395 . S
C2883 H2909 0.929 . S
C2884 C2882 1.320 . S
C2884 C2885 1.405 . S
C2884 H2910 0.930 . S
C2885 C2880 1.479 . S
C2885 C2884 1.405 . S
C2885 H2911 0.931 . S
U2886 O2887 2.454 . S
U2886 O2888 2.458 . S
U2886 C2889 2.984 . S
U2886 C2890 2.847 . S
U2886 C2903 2.882 . S
U2886 O2904 2.441 . S
U2886 O2905 2.420 . S
U2886 O2906 2.455 . S
U2886 O2907 2.449 . S
O2887 U2886 2.454 . S
O2887 C2889 1.353 . S
O2888 U2886 2.458 . S
O2888 C2889 1.286 . S
C2889 U2886 2.984 . S
C2889 O2887 1.353 . S
C2889 O2888 1.286 . S
C2889 C2891 1.363 . S
C2890 C2880 1.465 . S
C2890 U2886 2.847 . S
C2890 O2904 1.249 . S
C2890 O2905 1.202 . S
C2891 C2889 1.363 . S
C2891 C2893 1.408 . S
C2891 C2896 1.342 . S
C2892 C2893 1.310 . S
C2892 C2895 1.461 . S
C2892 H2912 0.932 . S
C2893 C2891 1.408 . S
C2893 C2892 1.310 . S
C2893 H2913 0.930 . S
C2894 C2895 1.474 . S
C2894 C2896 1.285 . S
C2894 H2914 0.929 . S
C2895 C2892 1.461 . S
C2895 C2894 1.474 . S
C2896 C2891 1.342 . S
C2896 C2894 1.285 . S
C2896 H2915 0.930 . S
C2897 C2900 1.424 . S
C2897 C2902 1.245 . S
C2897 C2903 1.428 . S
C2898 C2901 1.260 . S
C2898 C2902 1.477 . S
C2898 H2916 0.932 . S
C2899 C2900 1.384 . S
C2899 C2901 1.479 . S
C2899 H2917 0.929 . S
C2900 C2897 1.424 . S
C2900 C2899 1.384 . S
C2900 H2918 0.928 . S
C2901 C2898 1.260 . S
C2901 C2899 1.479 . S
C2902 C2897 1.245 . S
C2902 C2898 1.477 . S
C2902 H2919 0.932 . S
C2903 U2886 2.882 . S
C2903 C2897 1.428 . S
C2903 O2906 1.301 . S
C2903 O2907 1.282 . S
O2904 U2886 2.441 . S
O2904 C2890 1.249 . S
O2905 U2886 2.420 . S
O2905 C2890 1.202 . S
O2906 U2886 2.455 . S
O2906 C2903 1.301 . S
O2907 U2886 2.449 . S
O2907 C2903 1.282 . S
H2908 C2881 0.931 . S
H2909 C2883 0.929 . S
H2910 C2884 0.930 . S
H2911 C2885 0.931 . S
H2912 C2892 0.932 . S
H2913 C2893 0.930 . S
H2914 C2894 0.929 . S
H2915 C2896 0.930 . S
H2916 C2898 0.932 . S
H2917 C2899 0.929 . S
H2918 C2900 0.928 . S
H2919 C2902 0.932 . S
C2920 C2921 1.264 . S
C2920 C2925 1.479 . S
C2920 C2930 1.465 . S
C2921 C2920 1.264 . S
C2921 C2923 1.339 . S
C2921 H2948 0.931 . S
C2922 C2923 1.395 . S
C2922 C2924 1.320 . S
C2923 C2921 1.339 . S
C2923 C2922 1.395 . S
C2923 H2949 0.929 . S
C2924 C2922 1.320 . S
C2924 C2925 1.405 . S
C2924 H2950 0.930 . S
C2925 C2920 1.479 . S
C2925 C2924 1.405 . S
C2925 H2951 0.931 . S
U2926 O2927 2.454 . S
U2926 O2928 2.458 . S
U2926 C2929 2.984 . S
U2926 C2930 2.847 . S
U2926 C2943 2.882 . S
U2926 O2944 2.441 . S
U2926 O2945 2.420 . S
U2926 O2946 2.455 . S
U2926 O2947 2.449 . S
O2927 U2926 2.454 . S
O2927 C2929 1.353 . S
O2928 U2926 2.458 . S
O2928 C2929 1.286 . S
C2929 U2926 2.984 . S
C2929 O2927 1.353 . S
C2929 O2928 1.286 . S
C2929 C2931 1.363 . S
C2930 C2920 1.465 . S
C2930 U2926 2.847 . S
C2930 O2944 1.249 . S
C2930 O2945 1.202 . S
C2931 C2929 1.363 . S
C2931 C2933 1.408 . S
C2931 C2936 1.342 . S
C2932 C2933 1.310 . S
C2932 C2935 1.461 . S
C2932 H2952 0.932 . S
C2933 C2931 1.408 . S
C2933 C2932 1.310 . S
C2933 H2953 0.930 . S
C2934 C2935 1.474 . S
C2934 C2936 1.285 . S
C2934 H2954 0.929 . S
C2935 C2932 1.461 . S
C2935 C2934 1.474 . S
C2936 C2931 1.342 . S
C2936 C2934 1.285 . S
C2936 H2955 0.930 . S
C2937 C2940 1.424 . S
C2937 C2942 1.245 . S
C2937 C2943 1.428 . S
C2938 C2941 1.260 . S
C2938 C2942 1.477 . S
C2938 H2956 0.932 . S
C2939 C2940 1.384 . S
C2939 C2941 1.479 . S
C2939 H2957 0.929 . S
C2940 C2937 1.424 . S
C2940 C2939 1.384 . S
C2940 H2958 0.928 . S
C2941 C2938 1.260 . S
C2941 C2939 1.479 . S
C2942 C2937 1.245 . S
C2942 C2938 1.477 . S
C2942 H2959 0.932 . S
C2943 U2926 2.882 . S
C2943 C2937 1.428 . S
C2943 O2946 1.301 . S
C2943 O2947 1.282 . S
O2944 U2926 2.441 . S
O2944 C2930 1.249 . S
O2945 U2926 2.420 . S
O2945 C2930 1.202 . S
O2946 U2926 2.455 . S
O2946 C2943 1.301 . S
O2947 U2926 2.449 . S
O2947 C2943 1.282 . S
H2948 C2921 0.931 . S
H2949 C2923 0.929 . S
H2950 C2924 0.930 . S
H2951 C2925 0.931 . S
H2952 C2932 0.932 . S
H2953 C2933 0.930 . S
H2954 C2934 0.929 . S
H2955 C2936 0.930 . S
H2956 C2938 0.932 . S
H2957 C2939 0.929 . S
H2958 C2940 0.928 . S
H2959 C2942 0.932 . S
C2960 C2961 1.264 . S
C2960 C2965 1.479 . S
C2960 C2970 1.465 . S
C2961 C2960 1.264 . S
C2961 C2963 1.339 . S
C2961 H2988 0.931 . S
C2962 C2963 1.395 . S
C2962 C2964 1.320 . S
C2963 C2961 1.339 . S
C2963 C2962 1.395 . S
C2963 H2989 0.929 . S
C2964 C2962 1.320 . S
C2964 C2965 1.405 . S
C2964 H2990 0.930 . S
C2965 C2960 1.479 . S
C2965 C2964 1.405 . S
C2965 H2991 0.931 . S
U2966 O2967 2.454 . S
U2966 O2968 2.458 . S
U2966 C2969 2.984 . S
U2966 C2970 2.847 . S
U2966 C2983 2.882 . S
U2966 O2984 2.441 . S
U2966 O2985 2.420 . S
U2966 O2986 2.455 . S
U2966 O2987 2.449 . S
O2967 U2966 2.454 . S
O2967 C2969 1.353 . S
O2968 U2966 2.458 . S
O2968 C2969 1.286 . S
C2969 U2966 2.984 . S
C2969 O2967 1.353 . S
C2969 O2968 1.286 . S
C2969 C2971 1.363 . S
C2970 C2960 1.465 . S
C2970 U2966 2.847 . S
C2970 O2984 1.249 . S
C2970 O2985 1.202 . S
C2971 C2969 1.363 . S
C2971 C2973 1.408 . S
C2971 C2976 1.342 . S
C2972 C2973 1.310 . S
C2972 C2975 1.461 . S
C2972 H2992 0.932 . S
C2973 C2971 1.408 . S
C2973 C2972 1.310 . S
C2973 H2993 0.930 . S
C2974 C2975 1.474 . S
C2974 C2976 1.285 . S
C2974 H2994 0.929 . S
C2975 C2972 1.461 . S
C2975 C2974 1.474 . S
C2976 C2971 1.342 . S
C2976 C2974 1.285 . S
C2976 H2995 0.930 . S
C2977 C2980 1.424 . S
C2977 C2982 1.245 . S
C2977 C2983 1.428 . S
C2978 C2981 1.260 . S
C2978 C2982 1.477 . S
C2978 H2996 0.932 . S
C2979 C2980 1.384 . S
C2979 C2981 1.479 . S
C2979 H2997 0.929 . S
C2980 C2977 1.424 . S
C2980 C2979 1.384 . S
C2980 H2998 0.928 . S
C2981 C2978 1.260 . S
C2981 C2979 1.479 . S
C2982 C2977 1.245 . S
C2982 C2978 1.477 . S
C2982 H2999 0.932 . S
C2983 U2966 2.882 . S
C2983 C2977 1.428 . S
C2983 O2986 1.301 . S
C2983 O2987 1.282 . S
O2984 U2966 2.441 . S
O2984 C2970 1.249 . S
O2985 U2966 2.420 . S
O2985 C2970 1.202 . S
O2986 U2966 2.455 . S
O2986 C2983 1.301 . S
O2987 U2966 2.449 . S
O2987 C2983 1.282 . S
H2988 C2961 0.931 . S
H2989 C2963 0.929 . S
H2990 C2964 0.930 . S
H2991 C2965 0.931 . S
H2992 C2972 0.932 . S
H2993 C2973 0.930 . S
H2994 C2974 0.929 . S
H2995 C2976 0.930 . S
H2996 C2978 0.932 . S
H2997 C2979 0.929 . S
H2998 C2980 0.928 . S
H2999 C2982 0.932 . S
C3000 C3001 1.264 . S
C3000 C3005 1.479 . S
C3000 C3010 1.465 . S
C3001 C3000 1.264 . S
C3001 C3003 1.339 . S
C3001 H3028 0.931 . S
C3002 C3003 1.395 . S
C3002 C3004 1.320 . S
C3003 C3001 1.339 . S
C3003 C3002 1.395 . S
C3003 H3029 0.929 . S
C3004 C3002 1.320 . S
C3004 C3005 1.405 . S
C3004 H3030 0.930 . S
C3005 C3000 1.479 . S
C3005 C3004 1.405 . S
C3005 H3031 0.931 . S
U3006 O3007 2.454 . S
U3006 O3008 2.458 . S
U3006 C3009 2.984 . S
U3006 C3010 2.847 . S
U3006 C3023 2.882 . S
U3006 O3024 2.441 . S
U3006 O3025 2.420 . S
U3006 O3026 2.455 . S
U3006 O3027 2.449 . S
O3007 U3006 2.454 . S
O3007 C3009 1.353 . S
O3008 U3006 2.458 . S
O3008 C3009 1.286 . S
C3009 U3006 2.984 . S
C3009 O3007 1.353 . S
C3009 O3008 1.286 . S
C3009 C3011 1.363 . S
C3010 C3000 1.465 . S
C3010 U3006 2.847 . S
C3010 O3024 1.249 . S
C3010 O3025 1.202 . S
C3011 C3009 1.363 . S
C3011 C3013 1.408 . S
C3011 C3016 1.342 . S
C3012 C3013 1.310 . S
C3012 C3015 1.461 . S
C3012 H3032 0.932 . S
C3013 C3011 1.408 . S
C3013 C3012 1.310 . S
C3013 H3033 0.930 . S
C3014 C3015 1.474 . S
C3014 C3016 1.285 . S
C3014 H3034 0.929 . S
C3015 C3012 1.461 . S
C3015 C3014 1.474 . S
C3016 C3011 1.342 . S
C3016 C3014 1.285 . S
C3016 H3035 0.930 . S
C3017 C3020 1.424 . S
C3017 C3022 1.245 . S
C3017 C3023 1.428 . S
C3018 C3021 1.260 . S
C3018 C3022 1.477 . S
C3018 H3036 0.932 . S
C3019 C3020 1.384 . S
C3019 C3021 1.479 . S
C3019 H3037 0.929 . S
C3020 C3017 1.424 . S
C3020 C3019 1.384 . S
C3020 H3038 0.928 . S
C3021 C3018 1.260 . S
C3021 C3019 1.479 . S
C3022 C3017 1.245 . S
C3022 C3018 1.477 . S
C3022 H3039 0.932 . S
C3023 U3006 2.882 . S
C3023 C3017 1.428 . S
C3023 O3026 1.301 . S
C3023 O3027 1.282 . S
O3024 U3006 2.441 . S
O3024 C3010 1.249 . S
O3025 U3006 2.420 . S
O3025 C3010 1.202 . S
O3026 U3006 2.455 . S
O3026 C3023 1.301 . S
O3027 U3006 2.449 . S
O3027 C3023 1.282 . S
H3028 C3001 0.931 . S
H3029 C3003 0.929 . S
H3030 C3004 0.930 . S
H3031 C3005 0.931 . S
H3032 C3012 0.932 . S
H3033 C3013 0.930 . S
H3034 C3014 0.929 . S
H3035 C3016 0.930 . S
H3036 C3018 0.932 . S
H3037 C3019 0.929 . S
H3038 C3020 0.928 . S
H3039 C3022 0.932 . S
C3040 C3041 1.264 . S
C3040 C3045 1.479 . S
C3040 C3050 1.465 . S
C3041 C3040 1.264 . S
C3041 C3043 1.339 . S
C3041 H3068 0.931 . S
C3042 C3043 1.395 . S
C3042 C3044 1.320 . S
C3043 C3041 1.339 . S
C3043 C3042 1.395 . S
C3043 H3069 0.929 . S
C3044 C3042 1.320 . S
C3044 C3045 1.405 . S
C3044 H3070 0.930 . S
C3045 C3040 1.479 . S
C3045 C3044 1.405 . S
C3045 H3071 0.931 . S
U3046 O3047 2.454 . S
U3046 O3048 2.458 . S
U3046 C3049 2.984 . S
U3046 C3050 2.847 . S
U3046 C3063 2.882 . S
U3046 O3064 2.441 . S
U3046 O3065 2.420 . S
U3046 O3066 2.455 . S
U3046 O3067 2.449 . S
O3047 U3046 2.454 . S
O3047 C3049 1.353 . S
O3048 U3046 2.458 . S
O3048 C3049 1.286 . S
C3049 U3046 2.984 . S
C3049 O3047 1.353 . S
C3049 O3048 1.286 . S
C3049 C3051 1.363 . S
C3050 C3040 1.465 . S
C3050 U3046 2.847 . S
C3050 O3064 1.249 . S
C3050 O3065 1.202 . S
C3051 C3049 1.363 . S
C3051 C3053 1.408 . S
C3051 C3056 1.342 . S
C3052 C3053 1.310 . S
C3052 C3055 1.461 . S
C3052 H3072 0.932 . S
C3053 C3051 1.408 . S
C3053 C3052 1.310 . S
C3053 H3073 0.930 . S
C3054 C3055 1.474 . S
C3054 C3056 1.285 . S
C3054 H3074 0.929 . S
C3055 C3052 1.461 . S
C3055 C3054 1.474 . S
C3056 C3051 1.342 . S
C3056 C3054 1.285 . S
C3056 H3075 0.930 . S
C3057 C3060 1.424 . S
C3057 C3062 1.245 . S
C3057 C3063 1.428 . S
C3058 C3061 1.260 . S
C3058 C3062 1.477 . S
C3058 H3076 0.932 . S
C3059 C3060 1.384 . S
C3059 C3061 1.479 . S
C3059 H3077 0.929 . S
C3060 C3057 1.424 . S
C3060 C3059 1.384 . S
C3060 H3078 0.928 . S
C3061 C3058 1.260 . S
C3061 C3059 1.479 . S
C3062 C3057 1.245 . S
C3062 C3058 1.477 . S
C3062 H3079 0.932 . S
C3063 U3046 2.882 . S
C3063 C3057 1.428 . S
C3063 O3066 1.301 . S
C3063 O3067 1.282 . S
O3064 U3046 2.441 . S
O3064 C3050 1.249 . S
O3065 U3046 2.420 . S
O3065 C3050 1.202 . S
O3066 U3046 2.455 . S
O3066 C3063 1.301 . S
O3067 U3046 2.449 . S
O3067 C3063 1.282 . S
H3068 C3041 0.931 . S
H3069 C3043 0.929 . S
H3070 C3044 0.930 . S
H3071 C3045 0.931 . S
H3072 C3052 0.932 . S
H3073 C3053 0.930 . S
H3074 C3054 0.929 . S
H3075 C3056 0.930 . S
H3076 C3058 0.932 . S
H3077 C3059 0.929 . S
H3078 C3060 0.928 . S
H3079 C3062 0.932 . S
C3080 C3081 1.264 . S
C3080 C3085 1.479 . S
C3080 C3090 1.465 . S
C3081 C3080 1.264 . S
C3081 C3083 1.339 . S
C3081 H3108 0.931 . S
C3082 C3083 1.395 . S
C3082 C3084 1.320 . S
C3083 C3081 1.339 . S
C3083 C3082 1.395 . S
C3083 H3109 0.929 . S
C3084 C3082 1.320 . S
C3084 C3085 1.405 . S
C3084 H3110 0.930 . S
C3085 C3080 1.479 . S
C3085 C3084 1.405 . S
C3085 H3111 0.931 . S
U3086 O3087 2.454 . S
U3086 O3088 2.458 . S
U3086 C3089 2.984 . S
U3086 C3090 2.847 . S
U3086 C3103 2.882 . S
U3086 O3104 2.441 . S
U3086 O3105 2.420 . S
U3086 O3106 2.455 . S
U3086 O3107 2.449 . S
O3087 U3086 2.454 . S
O3087 C3089 1.353 . S
O3088 U3086 2.458 . S
O3088 C3089 1.286 . S
C3089 U3086 2.984 . S
C3089 O3087 1.353 . S
C3089 O3088 1.286 . S
C3089 C3091 1.363 . S
C3090 C3080 1.465 . S
C3090 U3086 2.847 . S
C3090 O3104 1.249 . S
C3090 O3105 1.202 . S
C3091 C3089 1.363 . S
C3091 C3093 1.408 . S
C3091 C3096 1.342 . S
C3092 C3093 1.310 . S
C3092 C3095 1.461 . S
C3092 H3112 0.932 . S
C3093 C3091 1.408 . S
C3093 C3092 1.310 . S
C3093 H3113 0.930 . S
C3094 C3095 1.474 . S
C3094 C3096 1.285 . S
C3094 H3114 0.929 . S
C3095 C3092 1.461 . S
C3095 C3094 1.474 . S
C3096 C3091 1.342 . S
C3096 C3094 1.285 . S
C3096 H3115 0.930 . S
C3097 C3100 1.424 . S
C3097 C3102 1.245 . S
C3097 C3103 1.428 . S
C3098 C3101 1.260 . S
C3098 C3102 1.477 . S
C3098 H3116 0.932 . S
C3099 C3100 1.384 . S
C3099 C3101 1.479 . S
C3099 H3117 0.929 . S
C3100 C3097 1.424 . S
C3100 C3099 1.384 . S
C3100 H3118 0.928 . S
C3101 C3098 1.260 . S
C3101 C3099 1.479 . S
C3102 C3097 1.245 . S
C3102 C3098 1.477 . S
C3102 H3119 0.932 . S
C3103 U3086 2.882 . S
C3103 C3097 1.428 . S
C3103 O3106 1.301 . S
C3103 O3107 1.282 . S
O3104 U3086 2.441 . S
O3104 C3090 1.249 . S
O3105 U3086 2.420 . S
O3105 C3090 1.202 . S
O3106 U3086 2.455 . S
O3106 C3103 1.301 . S
O3107 U3086 2.449 . S
O3107 C3103 1.282 . S
H3108 C3081 0.931 . S
H3109 C3083 0.929 . S
H3110 C3084 0.930 . S
H3111 C3085 0.931 . S
H3112 C3092 0.932 . S
H3113 C3093 0.930 . S
H3114 C3094 0.929 . S
H3115 C3096 0.930 . S
H3116 C3098 0.932 . S
H3117 C3099 0.929 . S
H3118 C3100 0.928 . S
H3119 C3102 0.932 . S
C3120 C3121 1.264 . S
C3120 C3125 1.479 . S
C3120 C3130 1.465 . S
C3121 C3120 1.264 . S
C3121 C3123 1.339 . S
C3121 H3148 0.931 . S
C3122 C3123 1.395 . S
C3122 C3124 1.320 . S
C3123 C3121 1.339 . S
C3123 C3122 1.395 . S
C3123 H3149 0.929 . S
C3124 C3122 1.320 . S
C3124 C3125 1.405 . S
C3124 H3150 0.930 . S
C3125 C3120 1.479 . S
C3125 C3124 1.405 . S
C3125 H3151 0.931 . S
U3126 O3127 2.454 . S
U3126 O3128 2.458 . S
U3126 C3129 2.984 . S
U3126 C3130 2.847 . S
U3126 C3143 2.882 . S
U3126 O3144 2.441 . S
U3126 O3145 2.420 . S
U3126 O3146 2.455 . S
U3126 O3147 2.449 . S
O3127 U3126 2.454 . S
O3127 C3129 1.353 . S
O3128 U3126 2.458 . S
O3128 C3129 1.286 . S
C3129 U3126 2.984 . S
C3129 O3127 1.353 . S
C3129 O3128 1.286 . S
C3129 C3131 1.363 . S
C3130 C3120 1.465 . S
C3130 U3126 2.847 . S
C3130 O3144 1.249 . S
C3130 O3145 1.202 . S
C3131 C3129 1.363 . S
C3131 C3133 1.408 . S
C3131 C3136 1.342 . S
C3132 C3133 1.310 . S
C3132 C3135 1.461 . S
C3132 H3152 0.932 . S
C3133 C3131 1.408 . S
C3133 C3132 1.310 . S
C3133 H3153 0.930 . S
C3134 C3135 1.474 . S
C3134 C3136 1.285 . S
C3134 H3154 0.929 . S
C3135 C3132 1.461 . S
C3135 C3134 1.474 . S
C3136 C3131 1.342 . S
C3136 C3134 1.285 . S
C3136 H3155 0.930 . S
C3137 C3140 1.424 . S
C3137 C3142 1.245 . S
C3137 C3143 1.428 . S
C3138 C3141 1.260 . S
C3138 C3142 1.477 . S
C3138 H3156 0.932 . S
C3139 C3140 1.384 . S
C3139 C3141 1.479 . S
C3139 H3157 0.929 . S
C3140 C3137 1.424 . S
C3140 C3139 1.384 . S
C3140 H3158 0.928 . S
C3141 C3138 1.260 . S
C3141 C3139 1.479 . S
C3142 C3137 1.245 . S
C3142 C3138 1.477 . S
C3142 H3159 0.932 . S
C3143 U3126 2.882 . S
C3143 C3137 1.428 . S
C3143 O3146 1.301 . S
C3143 O3147 1.282 . S
O3144 U3126 2.441 . S
O3144 C3130 1.249 . S
O3145 U3126 2.420 . S
O3145 C3130 1.202 . S
O3146 U3126 2.455 . S
O3146 C3143 1.301 . S
O3147 U3126 2.449 . S
O3147 C3143 1.282 . S
H3148 C3121 0.931 . S
H3149 C3123 0.929 . S
H3150 C3124 0.930 . S
H3151 C3125 0.931 . S
H3152 C3132 0.932 . S
H3153 C3133 0.930 . S
H3154 C3134 0.929 . S
H3155 C3136 0.930 . S
H3156 C3138 0.932 . S
H3157 C3139 0.929 . S
H3158 C3140 0.928 . S
H3159 C3142 0.932 . S
C3160 C3161 1.264 . S
C3160 C3165 1.479 . S
C3160 C3170 1.465 . S
C3161 C3160 1.264 . S
C3161 C3163 1.339 . S
C3161 H3188 0.931 . S
C3162 C3163 1.395 . S
C3162 C3164 1.320 . S
C3163 C3161 1.339 . S
C3163 C3162 1.395 . S
C3163 H3189 0.929 . S
C3164 C3162 1.320 . S
C3164 C3165 1.405 . S
C3164 H3190 0.930 . S
C3165 C3160 1.479 . S
C3165 C3164 1.405 . S
C3165 H3191 0.931 . S
U3166 O3167 2.454 . S
U3166 O3168 2.458 . S
U3166 C3169 2.984 . S
U3166 C3170 2.847 . S
U3166 C3183 2.882 . S
U3166 O3184 2.441 . S
U3166 O3185 2.420 . S
U3166 O3186 2.455 . S
U3166 O3187 2.449 . S
O3167 U3166 2.454 . S
O3167 C3169 1.353 . S
O3168 U3166 2.458 . S
O3168 C3169 1.286 . S
C3169 U3166 2.984 . S
C3169 O3167 1.353 . S
C3169 O3168 1.286 . S
C3169 C3171 1.363 . S
C3170 C3160 1.465 . S
C3170 U3166 2.847 . S
C3170 O3184 1.249 . S
C3170 O3185 1.202 . S
C3171 C3169 1.363 . S
C3171 C3173 1.408 . S
C3171 C3176 1.342 . S
C3172 C3173 1.310 . S
C3172 C3175 1.461 . S
C3172 H3192 0.932 . S
C3173 C3171 1.408 . S
C3173 C3172 1.310 . S
C3173 H3193 0.930 . S
C3174 C3175 1.474 . S
C3174 C3176 1.285 . S
C3174 H3194 0.929 . S
C3175 C3172 1.461 . S
C3175 C3174 1.474 . S
C3176 C3171 1.342 . S
C3176 C3174 1.285 . S
C3176 H3195 0.930 . S
C3177 C3180 1.424 . S
C3177 C3182 1.245 . S
C3177 C3183 1.428 . S
C3178 C3181 1.260 . S
C3178 C3182 1.477 . S
C3178 H3196 0.932 . S
C3179 C3180 1.384 . S
C3179 C3181 1.479 . S
C3179 H3197 0.929 . S
C3180 C3177 1.424 . S
C3180 C3179 1.384 . S
C3180 H3198 0.928 . S
C3181 C3178 1.260 . S
C3181 C3179 1.479 . S
C3182 C3177 1.245 . S
C3182 C3178 1.477 . S
C3182 H3199 0.932 . S
C3183 U3166 2.882 . S
C3183 C3177 1.428 . S
C3183 O3186 1.301 . S
C3183 O3187 1.282 . S
O3184 U3166 2.441 . S
O3184 C3170 1.249 . S
O3185 U3166 2.420 . S
O3185 C3170 1.202 . S
O3186 U3166 2.455 . S
O3186 C3183 1.301 . S
O3187 U3166 2.449 . S
O3187 C3183 1.282 . S
H3188 C3161 0.931 . S
H3189 C3163 0.929 . S
H3190 C3164 0.930 . S
H3191 C3165 0.931 . S
H3192 C3172 0.932 . S
H3193 C3173 0.930 . S
H3194 C3174 0.929 . S
H3195 C3176 0.930 . S
H3196 C3178 0.932 . S
H3197 C3179 0.929 . S
H3198 C3180 0.928 . S
H3199 C3182 0.932 . S
C3200 C3201 1.264 . S
C3200 C3205 1.479 . S
C3200 C3210 1.465 . S
C3201 C3200 1.264 . S
C3201 C3203 1.339 . S
C3201 H3228 0.931 . S
C3202 C3203 1.395 . S
C3202 C3204 1.320 . S
C3203 C3201 1.339 . S
C3203 C3202 1.395 . S
C3203 H3229 0.929 . S
C3204 C3202 1.320 . S
C3204 C3205 1.405 . S
C3204 H3230 0.930 . S
C3205 C3200 1.479 . S
C3205 C3204 1.405 . S
C3205 H3231 0.931 . S
U3206 O3207 2.454 . S
U3206 O3208 2.458 . S
U3206 C3209 2.984 . S
U3206 C3210 2.847 . S
U3206 C3223 2.882 . S
U3206 O3224 2.441 . S
U3206 O3225 2.420 . S
U3206 O3226 2.455 . S
U3206 O3227 2.449 . S
O3207 U3206 2.454 . S
O3207 C3209 1.353 . S
O3208 U3206 2.458 . S
O3208 C3209 1.286 . S
C3209 U3206 2.984 . S
C3209 O3207 1.353 . S
C3209 O3208 1.286 . S
C3209 C3211 1.363 . S
C3210 C3200 1.465 . S
C3210 U3206 2.847 . S
C3210 O3224 1.249 . S
C3210 O3225 1.202 . S
C3211 C3209 1.363 . S
C3211 C3213 1.408 . S
C3211 C3216 1.342 . S
C3212 C3213 1.310 . S
C3212 C3215 1.461 . S
C3212 H3232 0.932 . S
C3213 C3211 1.408 . S
C3213 C3212 1.310 . S
C3213 H3233 0.930 . S
C3214 C3215 1.474 . S
C3214 C3216 1.285 . S
C3214 H3234 0.929 . S
C3215 C3212 1.461 . S
C3215 C3214 1.474 . S
C3216 C3211 1.342 . S
C3216 C3214 1.285 . S
C3216 H3235 0.930 . S
C3217 C3220 1.424 . S
C3217 C3222 1.245 . S
C3217 C3223 1.428 . S
C3218 C3221 1.260 . S
C3218 C3222 1.477 . S
C3218 H3236 0.932 . S
C3219 C3220 1.384 . S
C3219 C3221 1.479 . S
C3219 H3237 0.929 . S
C3220 C3217 1.424 . S
C3220 C3219 1.384 . S
C3220 H3238 0.928 . S
C3221 C3218 1.260 . S
C3221 C3219 1.479 . S
C3222 C3217 1.245 . S
C3222 C3218 1.477 . S
C3222 H3239 0.932 . S
C3223 U3206 2.882 . S
C3223 C3217 1.428 . S
C3223 O3226 1.301 . S
C3223 O3227 1.282 . S
O3224 U3206 2.441 . S
O3224 C3210 1.249 . S
O3225 U3206 2.420 . S
O3225 C3210 1.202 . S
O3226 U3206 2.455 . S
O3226 C3223 1.301 . S
O3227 U3206 2.449 . S
O3227 C3223 1.282 . S
H3228 C3201 0.931 . S
H3229 C3203 0.929 . S
H3230 C3204 0.930 . S
H3231 C3205 0.931 . S
H3232 C3212 0.932 . S
H3233 C3213 0.930 . S
H3234 C3214 0.929 . S
H3235 C3216 0.930 . S
H3236 C3218 0.932 . S
H3237 C3219 0.929 . S
H3238 C3220 0.928 . S
H3239 C3222 0.932 . S
C3240 C3241 1.264 . S
C3240 C3245 1.479 . S
C3240 C3250 1.465 . S
C3241 C3240 1.264 . S
C3241 C3243 1.339 . S
C3241 H3268 0.931 . S
C3242 C3243 1.395 . S
C3242 C3244 1.320 . S
C3243 C3241 1.339 . S
C3243 C3242 1.395 . S
C3243 H3269 0.929 . S
C3244 C3242 1.320 . S
C3244 C3245 1.405 . S
C3244 H3270 0.930 . S
C3245 C3240 1.479 . S
C3245 C3244 1.405 . S
C3245 H3271 0.931 . S
U3246 O3247 2.454 . S
U3246 O3248 2.458 . S
U3246 C3249 2.984 . S
U3246 C3250 2.847 . S
U3246 C3263 2.882 . S
U3246 O3264 2.441 . S
U3246 O3265 2.420 . S
U3246 O3266 2.455 . S
U3246 O3267 2.449 . S
O3247 U3246 2.454 . S
O3247 C3249 1.353 . S
O3248 U3246 2.458 . S
O3248 C3249 1.286 . S
C3249 U3246 2.984 . S
C3249 O3247 1.353 . S
C3249 O3248 1.286 . S
C3249 C3251 1.363 . S
C3250 C3240 1.465 . S
C3250 U3246 2.847 . S
C3250 O3264 1.249 . S
C3250 O3265 1.202 . S
C3251 C3249 1.363 . S
C3251 C3253 1.408 . S
C3251 C3256 1.342 . S
C3252 C3253 1.310 . S
C3252 C3255 1.461 . S
C3252 H3272 0.932 . S
C3253 C3251 1.408 . S
C3253 C3252 1.310 . S
C3253 H3273 0.930 . S
C3254 C3255 1.474 . S
C3254 C3256 1.285 . S
C3254 H3274 0.929 . S
C3255 C3252 1.461 . S
C3255 C3254 1.474 . S
C3256 C3251 1.342 . S
C3256 C3254 1.285 . S
C3256 H3275 0.930 . S
C3257 C3260 1.424 . S
C3257 C3262 1.245 . S
C3257 C3263 1.428 . S
C3258 C3261 1.260 . S
C3258 C3262 1.477 . S
C3258 H3276 0.932 . S
C3259 C3260 1.384 . S
C3259 C3261 1.479 . S
C3259 H3277 0.929 . S
C3260 C3257 1.424 . S
C3260 C3259 1.384 . S
C3260 H3278 0.928 . S
C3261 C3258 1.260 . S
C3261 C3259 1.479 . S
C3262 C3257 1.245 . S
C3262 C3258 1.477 . S
C3262 H3279 0.932 . S
C3263 U3246 2.882 . S
C3263 C3257 1.428 . S
C3263 O3266 1.301 . S
C3263 O3267 1.282 . S
O3264 U3246 2.441 . S
O3264 C3250 1.249 . S
O3265 U3246 2.420 . S
O3265 C3250 1.202 . S
O3266 U3246 2.455 . S
O3266 C3263 1.301 . S
O3267 U3246 2.449 . S
O3267 C3263 1.282 . S
H3268 C3241 0.931 . S
H3269 C3243 0.929 . S
H3270 C3244 0.930 . S
H3271 C3245 0.931 . S
H3272 C3252 0.932 . S
H3273 C3253 0.930 . S
H3274 C3254 0.929 . S
H3275 C3256 0.930 . S
H3276 C3258 0.932 . S
H3277 C3259 0.929 . S
H3278 C3260 0.928 . S
H3279 C3262 0.932 . S
C3280 C3281 1.264 . S
C3280 C3285 1.479 . S
C3280 C3290 1.465 . S
C3281 C3280 1.264 . S
C3281 C3283 1.339 . S
C3281 H3308 0.931 . S
C3282 C3283 1.395 . S
C3282 C3284 1.320 . S
C3283 C3281 1.339 . S
C3283 C3282 1.395 . S
C3283 H3309 0.929 . S
C3284 C3282 1.320 . S
C3284 C3285 1.405 . S
C3284 H3310 0.930 . S
C3285 C3280 1.479 . S
C3285 C3284 1.405 . S
C3285 H3311 0.931 . S
U3286 O3287 2.454 . S
U3286 O3288 2.458 . S
U3286 C3289 2.984 . S
U3286 C3290 2.847 . S
U3286 C3303 2.882 . S
U3286 O3304 2.441 . S
U3286 O3305 2.420 . S
U3286 O3306 2.455 . S
U3286 O3307 2.449 . S
O3287 U3286 2.454 . S
O3287 C3289 1.353 . S
O3288 U3286 2.458 . S
O3288 C3289 1.286 . S
C3289 U3286 2.984 . S
C3289 O3287 1.353 . S
C3289 O3288 1.286 . S
C3289 C3291 1.363 . S
C3290 C3280 1.465 . S
C3290 U3286 2.847 . S
C3290 O3304 1.249 . S
C3290 O3305 1.202 . S
C3291 C3289 1.363 . S
C3291 C3293 1.408 . S
C3291 C3296 1.342 . S
C3292 C3293 1.310 . S
C3292 C3295 1.461 . S
C3292 H3312 0.932 . S
C3293 C3291 1.408 . S
C3293 C3292 1.310 . S
C3293 H3313 0.930 . S
C3294 C3295 1.474 . S
C3294 C3296 1.285 . S
C3294 H3314 0.929 . S
C3295 C3292 1.461 . S
C3295 C3294 1.474 . S
C3296 C3291 1.342 . S
C3296 C3294 1.285 . S
C3296 H3315 0.930 . S
C3297 C3300 1.424 . S
C3297 C3302 1.245 . S
C3297 C3303 1.428 . S
C3298 C3301 1.260 . S
C3298 C3302 1.477 . S
C3298 H3316 0.932 . S
C3299 C3300 1.384 . S
C3299 C3301 1.479 . S
C3299 H3317 0.929 . S
C3300 C3297 1.424 . S
C3300 C3299 1.384 . S
C3300 H3318 0.928 . S
C3301 C3298 1.260 . S
C3301 C3299 1.479 . S
C3302 C3297 1.245 . S
C3302 C3298 1.477 . S
C3302 H3319 0.932 . S
C3303 U3286 2.882 . S
C3303 C3297 1.428 . S
C3303 O3306 1.301 . S
C3303 O3307 1.282 . S
O3304 U3286 2.441 . S
O3304 C3290 1.249 . S
O3305 U3286 2.420 . S
O3305 C3290 1.202 . S
O3306 U3286 2.455 . S
O3306 C3303 1.301 . S
O3307 U3286 2.449 . S
O3307 C3303 1.282 . S
H3308 C3281 0.931 . S
H3309 C3283 0.929 . S
H3310 C3284 0.930 . S
H3311 C3285 0.931 . S
H3312 C3292 0.932 . S
H3313 C3293 0.930 . S
H3314 C3294 0.929 . S
H3315 C3296 0.930 . S
H3316 C3298 0.932 . S
H3317 C3299 0.929 . S
H3318 C3300 0.928 . S
H3319 C3302 0.932 . S
C3320 C3321 1.264 . S
C3320 C3325 1.479 . S
C3320 C3330 1.465 . S
C3321 C3320 1.264 . S
C3321 C3323 1.339 . S
C3321 H3348 0.931 . S
C3322 C3323 1.395 . S
C3322 C3324 1.320 . S
C3323 C3321 1.339 . S
C3323 C3322 1.395 . S
C3323 H3349 0.929 . S
C3324 C3322 1.320 . S
C3324 C3325 1.405 . S
C3324 H3350 0.930 . S
C3325 C3320 1.479 . S
C3325 C3324 1.405 . S
C3325 H3351 0.931 . S
U3326 O3327 2.454 . S
U3326 O3328 2.458 . S
U3326 C3329 2.984 . S
U3326 C3330 2.847 . S
U3326 C3343 2.882 . S
U3326 O3344 2.441 . S
U3326 O3345 2.420 . S
U3326 O3346 2.455 . S
U3326 O3347 2.449 . S
O3327 U3326 2.454 . S
O3327 C3329 1.353 . S
O3328 U3326 2.458 . S
O3328 C3329 1.286 . S
C3329 U3326 2.984 . S
C3329 O3327 1.353 . S
C3329 O3328 1.286 . S
C3329 C3331 1.363 . S
C3330 C3320 1.465 . S
C3330 U3326 2.847 . S
C3330 O3344 1.249 . S
C3330 O3345 1.202 . S
C3331 C3329 1.363 . S
C3331 C3333 1.408 . S
C3331 C3336 1.342 . S
C3332 C3333 1.310 . S
C3332 C3335 1.461 . S
C3332 H3352 0.932 . S
C3333 C3331 1.408 . S
C3333 C3332 1.310 . S
C3333 H3353 0.930 . S
C3334 C3335 1.474 . S
C3334 C3336 1.285 . S
C3334 H3354 0.929 . S
C3335 C3332 1.461 . S
C3335 C3334 1.474 . S
C3336 C3331 1.342 . S
C3336 C3334 1.285 . S
C3336 H3355 0.930 . S
C3337 C3340 1.424 . S
C3337 C3342 1.245 . S
C3337 C3343 1.428 . S
C3338 C3341 1.260 . S
C3338 C3342 1.477 . S
C3338 H3356 0.932 . S
C3339 C3340 1.384 . S
C3339 C3341 1.479 . S
C3339 H3357 0.929 . S
C3340 C3337 1.424 . S
C3340 C3339 1.384 . S
C3340 H3358 0.928 . S
C3341 C3338 1.260 . S
C3341 C3339 1.479 . S
C3342 C3337 1.245 . S
C3342 C3338 1.477 . S
C3342 H3359 0.932 . S
C3343 U3326 2.882 . S
C3343 C3337 1.428 . S
C3343 O3346 1.301 . S
C3343 O3347 1.282 . S
O3344 U3326 2.441 . S
O3344 C3330 1.249 . S
O3345 U3326 2.420 . S
O3345 C3330 1.202 . S
O3346 U3326 2.455 . S
O3346 C3343 1.301 . S
O3347 U3326 2.449 . S
O3347 C3343 1.282 . S
H3348 C3321 0.931 . S
H3349 C3323 0.929 . S
H3350 C3324 0.930 . S
H3351 C3325 0.931 . S
H3352 C3332 0.932 . S
H3353 C3333 0.930 . S
H3354 C3334 0.929 . S
H3355 C3336 0.930 . S
H3356 C3338 0.932 . S
H3357 C3339 0.929 . S
H3358 C3340 0.928 . S
H3359 C3342 0.932 . S
C3360 C3361 1.264 . S
C3360 C3365 1.479 . S
C3360 C3370 1.465 . S
C3361 C3360 1.264 . S
C3361 C3363 1.339 . S
C3361 H3388 0.931 . S
C3362 C3363 1.395 . S
C3362 C3364 1.320 . S
C3363 C3361 1.339 . S
C3363 C3362 1.395 . S
C3363 H3389 0.929 . S
C3364 C3362 1.320 . S
C3364 C3365 1.405 . S
C3364 H3390 0.930 . S
C3365 C3360 1.479 . S
C3365 C3364 1.405 . S
C3365 H3391 0.931 . S
U3366 O3367 2.454 . S
U3366 O3368 2.458 . S
U3366 C3369 2.984 . S
U3366 C3370 2.847 . S
U3366 C3383 2.882 . S
U3366 O3384 2.441 . S
U3366 O3385 2.420 . S
U3366 O3386 2.455 . S
U3366 O3387 2.449 . S
O3367 U3366 2.454 . S
O3367 C3369 1.353 . S
O3368 U3366 2.458 . S
O3368 C3369 1.286 . S
C3369 U3366 2.984 . S
C3369 O3367 1.353 . S
C3369 O3368 1.286 . S
C3369 C3371 1.363 . S
C3370 C3360 1.465 . S
C3370 U3366 2.847 . S
C3370 O3384 1.249 . S
C3370 O3385 1.202 . S
C3371 C3369 1.363 . S
C3371 C3373 1.408 . S
C3371 C3376 1.342 . S
C3372 C3373 1.310 . S
C3372 C3375 1.461 . S
C3372 H3392 0.932 . S
C3373 C3371 1.408 . S
C3373 C3372 1.310 . S
C3373 H3393 0.930 . S
C3374 C3375 1.474 . S
C3374 C3376 1.285 . S
C3374 H3394 0.929 . S
C3375 C3372 1.461 . S
C3375 C3374 1.474 . S
C3376 C3371 1.342 . S
C3376 C3374 1.285 . S
C3376 H3395 0.930 . S
C3377 C3380 1.424 . S
C3377 C3382 1.245 . S
C3377 C3383 1.428 . S
C3378 C3381 1.260 . S
C3378 C3382 1.477 . S
C3378 H3396 0.932 . S
C3379 C3380 1.384 . S
C3379 C3381 1.479 . S
C3379 H3397 0.929 . S
C3380 C3377 1.424 . S
C3380 C3379 1.384 . S
C3380 H3398 0.928 . S
C3381 C3378 1.260 . S
C3381 C3379 1.479 . S
C3382 C3377 1.245 . S
C3382 C3378 1.477 . S
C3382 H3399 0.932 . S
C3383 U3366 2.882 . S
C3383 C3377 1.428 . S
C3383 O3386 1.301 . S
C3383 O3387 1.282 . S
O3384 U3366 2.441 . S
O3384 C3370 1.249 . S
O3385 U3366 2.420 . S
O3385 C3370 1.202 . S
O3386 U3366 2.455 . S
O3386 C3383 1.301 . S
O3387 U3366 2.449 . S
O3387 C3383 1.282 . S
H3388 C3361 0.931 . S
H3389 C3363 0.929 . S
H3390 C3364 0.930 . S
H3391 C3365 0.931 . S
H3392 C3372 0.932 . S
H3393 C3373 0.930 . S
H3394 C3374 0.929 . S
H3395 C3376 0.930 . S
H3396 C3378 0.932 . S
H3397 C3379 0.929 . S
H3398 C3380 0.928 . S
H3399 C3382 0.932 . S
C3400 C3401 1.264 . S
C3400 C3405 1.479 . S
C3400 C3410 1.465 . S
C3401 C3400 1.264 . S
C3401 C3403 1.339 . S
C3401 H3428 0.931 . S
C3402 C3403 1.395 . S
C3402 C3404 1.320 . S
C3403 C3401 1.339 . S
C3403 C3402 1.395 . S
C3403 H3429 0.929 . S
C3404 C3402 1.320 . S
C3404 C3405 1.405 . S
C3404 H3430 0.930 . S
C3405 C3400 1.479 . S
C3405 C3404 1.405 . S
C3405 H3431 0.931 . S
U3406 O3407 2.454 . S
U3406 O3408 2.458 . S
U3406 C3409 2.984 . S
U3406 C3410 2.847 . S
U3406 C3423 2.882 . S
U3406 O3424 2.441 . S
U3406 O3425 2.420 . S
U3406 O3426 2.455 . S
U3406 O3427 2.449 . S
O3407 U3406 2.454 . S
O3407 C3409 1.353 . S
O3408 U3406 2.458 . S
O3408 C3409 1.286 . S
C3409 U3406 2.984 . S
C3409 O3407 1.353 . S
C3409 O3408 1.286 . S
C3409 C3411 1.363 . S
C3410 C3400 1.465 . S
C3410 U3406 2.847 . S
C3410 O3424 1.249 . S
C3410 O3425 1.202 . S
C3411 C3409 1.363 . S
C3411 C3413 1.408 . S
C3411 C3416 1.342 . S
C3412 C3413 1.310 . S
C3412 C3415 1.461 . S
C3412 H3432 0.932 . S
C3413 C3411 1.408 . S
C3413 C3412 1.310 . S
C3413 H3433 0.930 . S
C3414 C3415 1.474 . S
C3414 C3416 1.285 . S
C3414 H3434 0.929 . S
C3415 C3412 1.461 . S
C3415 C3414 1.474 . S
C3416 C3411 1.342 . S
C3416 C3414 1.285 . S
C3416 H3435 0.930 . S
C3417 C3420 1.424 . S
C3417 C3422 1.245 . S
C3417 C3423 1.428 . S
C3418 C3421 1.260 . S
C3418 C3422 1.477 . S
C3418 H3436 0.932 . S
C3419 C3420 1.384 . S
C3419 C3421 1.479 . S
C3419 H3437 0.929 . S
C3420 C3417 1.424 . S
C3420 C3419 1.384 . S
C3420 H3438 0.928 . S
C3421 C3418 1.260 . S
C3421 C3419 1.479 . S
C3422 C3417 1.245 . S
C3422 C3418 1.477 . S
C3422 H3439 0.932 . S
C3423 U3406 2.882 . S
C3423 C3417 1.428 . S
C3423 O3426 1.301 . S
C3423 O3427 1.282 . S
O3424 U3406 2.441 . S
O3424 C3410 1.249 . S
O3425 U3406 2.420 . S
O3425 C3410 1.202 . S
O3426 U3406 2.455 . S
O3426 C3423 1.301 . S
O3427 U3406 2.449 . S
O3427 C3423 1.282 . S
H3428 C3401 0.931 . S
H3429 C3403 0.929 . S
H3430 C3404 0.930 . S
H3431 C3405 0.931 . S
H3432 C3412 0.932 . S
H3433 C3413 0.930 . S
H3434 C3414 0.929 . S
H3435 C3416 0.930 . S
H3436 C3418 0.932 . S
H3437 C3419 0.929 . S
H3438 C3420 0.928 . S
H3439 C3422 0.932 . S
C3440 C3441 1.264 . S
C3440 C3445 1.479 . S
C3440 C3450 1.465 . S
C3441 C3440 1.264 . S
C3441 C3443 1.339 . S
C3441 H3468 0.931 . S
C3442 C3443 1.395 . S
C3442 C3444 1.320 . S
C3443 C3441 1.339 . S
C3443 C3442 1.395 . S
C3443 H3469 0.929 . S
C3444 C3442 1.320 . S
C3444 C3445 1.405 . S
C3444 H3470 0.930 . S
C3445 C3440 1.479 . S
C3445 C3444 1.405 . S
C3445 H3471 0.931 . S
U3446 O3447 2.454 . S
U3446 O3448 2.458 . S
U3446 C3449 2.984 . S
U3446 C3450 2.847 . S
U3446 C3463 2.882 . S
U3446 O3464 2.441 . S
U3446 O3465 2.420 . S
U3446 O3466 2.455 . S
U3446 O3467 2.449 . S
O3447 U3446 2.454 . S
O3447 C3449 1.353 . S
O3448 U3446 2.458 . S
O3448 C3449 1.286 . S
C3449 U3446 2.984 . S
C3449 O3447 1.353 . S
C3449 O3448 1.286 . S
C3449 C3451 1.363 . S
C3450 C3440 1.465 . S
C3450 U3446 2.847 . S
C3450 O3464 1.249 . S
C3450 O3465 1.202 . S
C3451 C3449 1.363 . S
C3451 C3453 1.408 . S
C3451 C3456 1.342 . S
C3452 C3453 1.310 . S
C3452 C3455 1.461 . S
C3452 H3472 0.932 . S
C3453 C3451 1.408 . S
C3453 C3452 1.310 . S
C3453 H3473 0.930 . S
C3454 C3455 1.474 . S
C3454 C3456 1.285 . S
C3454 H3474 0.929 . S
C3455 C3452 1.461 . S
C3455 C3454 1.474 . S
C3456 C3451 1.342 . S
C3456 C3454 1.285 . S
C3456 H3475 0.930 . S
C3457 C3460 1.424 . S
C3457 C3462 1.245 . S
C3457 C3463 1.428 . S
C3458 C3461 1.260 . S
C3458 C3462 1.477 . S
C3458 H3476 0.932 . S
C3459 C3460 1.384 . S
C3459 C3461 1.479 . S
C3459 H3477 0.929 . S
C3460 C3457 1.424 . S
C3460 C3459 1.384 . S
C3460 H3478 0.928 . S
C3461 C3458 1.260 . S
C3461 C3459 1.479 . S
C3462 C3457 1.245 . S
C3462 C3458 1.477 . S
C3462 H3479 0.932 . S
C3463 U3446 2.882 . S
C3463 C3457 1.428 . S
C3463 O3466 1.301 . S
C3463 O3467 1.282 . S
O3464 U3446 2.441 . S
O3464 C3450 1.249 . S
O3465 U3446 2.420 . S
O3465 C3450 1.202 . S
O3466 U3446 2.455 . S
O3466 C3463 1.301 . S
O3467 U3446 2.449 . S
O3467 C3463 1.282 . S
H3468 C3441 0.931 . S
H3469 C3443 0.929 . S
H3470 C3444 0.930 . S
H3471 C3445 0.931 . S
H3472 C3452 0.932 . S
H3473 C3453 0.930 . S
H3474 C3454 0.929 . S
H3475 C3456 0.930 . S
H3476 C3458 0.932 . S
H3477 C3459 0.929 . S
H3478 C3460 0.928 . S
H3479 C3462 0.932 . S
C3480 C3481 1.264 . S
C3480 C3485 1.479 . S
C3480 C3490 1.465 . S
C3481 C3480 1.264 . S
C3481 C3483 1.339 . S
C3481 H3508 0.931 . S
C3482 C3483 1.395 . S
C3482 C3484 1.320 . S
C3483 C3481 1.339 . S
C3483 C3482 1.395 . S
C3483 H3509 0.929 . S
C3484 C3482 1.320 . S
C3484 C3485 1.405 . S
C3484 H3510 0.930 . S
C3485 C3480 1.479 . S
C3485 C3484 1.405 . S
C3485 H3511 0.931 . S
U3486 O3487 2.454 . S
U3486 O3488 2.458 . S
U3486 C3489 2.984 . S
U3486 C3490 2.847 . S
U3486 C3503 2.882 . S
U3486 O3504 2.441 . S
U3486 O3505 2.420 . S
U3486 O3506 2.455 . S
U3486 O3507 2.449 . S
O3487 U3486 2.454 . S
O3487 C3489 1.353 . S
O3488 U3486 2.458 . S
O3488 C3489 1.286 . S
C3489 U3486 2.984 . S
C3489 O3487 1.353 . S
C3489 O3488 1.286 . S
C3489 C3491 1.363 . S
C3490 C3480 1.465 . S
C3490 U3486 2.847 . S
C3490 O3504 1.249 . S
C3490 O3505 1.202 . S
C3491 C3489 1.363 . S
C3491 C3493 1.408 . S
C3491 C3496 1.342 . S
C3492 C3493 1.310 . S
C3492 C3495 1.461 . S
C3492 H3512 0.932 . S
C3493 C3491 1.408 . S
C3493 C3492 1.310 . S
C3493 H3513 0.930 . S
C3494 C3495 1.474 . S
C3494 C3496 1.285 . S
C3494 H3514 0.929 . S
C3495 C3492 1.461 . S
C3495 C3494 1.474 . S
C3496 C3491 1.342 . S
C3496 C3494 1.285 . S
C3496 H3515 0.930 . S
C3497 C3500 1.424 . S
C3497 C3502 1.245 . S
C3497 C3503 1.428 . S
C3498 C3501 1.260 . S
C3498 C3502 1.477 . S
C3498 H3516 0.932 . S
C3499 C3500 1.384 . S
C3499 C3501 1.479 . S
C3499 H3517 0.929 . S
C3500 C3497 1.424 . S
C3500 C3499 1.384 . S
C3500 H3518 0.928 . S
C3501 C3498 1.260 . S
C3501 C3499 1.479 . S
C3502 C3497 1.245 . S
C3502 C3498 1.477 . S
C3502 H3519 0.932 . S
C3503 U3486 2.882 . S
C3503 C3497 1.428 . S
C3503 O3506 1.301 . S
C3503 O3507 1.282 . S
O3504 U3486 2.441 . S
O3504 C3490 1.249 . S
O3505 U3486 2.420 . S
O3505 C3490 1.202 . S
O3506 U3486 2.455 . S
O3506 C3503 1.301 . S
O3507 U3486 2.449 . S
O3507 C3503 1.282 . S
H3508 C3481 0.931 . S
H3509 C3483 0.929 . S
H3510 C3484 0.930 . S
H3511 C3485 0.931 . S
H3512 C3492 0.932 . S
H3513 C3493 0.930 . S
H3514 C3494 0.929 . S
H3515 C3496 0.930 . S
H3516 C3498 0.932 . S
H3517 C3499 0.929 . S
H3518 C3500 0.928 . S
H3519 C3502 0.932 . S
C3520 C3521 1.264 . S
C3520 C3525 1.479 . S
C3520 C3530 1.465 . S
C3521 C3520 1.264 . S
C3521 C3523 1.339 . S
C3521 H3548 0.931 . S
C3522 C3523 1.395 . S
C3522 C3524 1.320 . S
C3523 C3521 1.339 . S
C3523 C3522 1.395 . S
C3523 H3549 0.929 . S
C3524 C3522 1.320 . S
C3524 C3525 1.405 . S
C3524 H3550 0.930 . S
C3525 C3520 1.479 . S
C3525 C3524 1.405 . S
C3525 H3551 0.931 . S
U3526 O3527 2.454 . S
U3526 O3528 2.458 . S
U3526 C3529 2.984 . S
U3526 C3530 2.847 . S
U3526 C3543 2.882 . S
U3526 O3544 2.441 . S
U3526 O3545 2.420 . S
U3526 O3546 2.455 . S
U3526 O3547 2.449 . S
O3527 U3526 2.454 . S
O3527 C3529 1.353 . S
O3528 U3526 2.458 . S
O3528 C3529 1.286 . S
C3529 U3526 2.984 . S
C3529 O3527 1.353 . S
C3529 O3528 1.286 . S
C3529 C3531 1.363 . S
C3530 C3520 1.465 . S
C3530 U3526 2.847 . S
C3530 O3544 1.249 . S
C3530 O3545 1.202 . S
C3531 C3529 1.363 . S
C3531 C3533 1.408 . S
C3531 C3536 1.342 . S
C3532 C3533 1.310 . S
C3532 C3535 1.461 . S
C3532 H3552 0.932 . S
C3533 C3531 1.408 . S
C3533 C3532 1.310 . S
C3533 H3553 0.930 . S
C3534 C3535 1.474 . S
C3534 C3536 1.285 . S
C3534 H3554 0.929 . S
C3535 C3532 1.461 . S
C3535 C3534 1.474 . S
C3536 C3531 1.342 . S
C3536 C3534 1.285 . S
C3536 H3555 0.930 . S
C3537 C3540 1.424 . S
C3537 C3542 1.245 . S
C3537 C3543 1.428 . S
C3538 C3541 1.260 . S
C3538 C3542 1.477 . S
C3538 H3556 0.932 . S
C3539 C3540 1.384 . S
C3539 C3541 1.479 . S
C3539 H3557 0.929 . S
C3540 C3537 1.424 . S
C3540 C3539 1.384 . S
C3540 H3558 0.928 . S
C3541 C3538 1.260 . S
C3541 C3539 1.479 . S
C3542 C3537 1.245 . S
C3542 C3538 1.477 . S
C3542 H3559 0.932 . S
C3543 U3526 2.882 . S
C3543 C3537 1.428 . S
C3543 O3546 1.301 . S
C3543 O3547 1.282 . S
O3544 U3526 2.441 . S
O3544 C3530 1.249 . S
O3545 U3526 2.420 . S
O3545 C3530 1.202 . S
O3546 U3526 2.455 . S
O3546 C3543 1.301 . S
O3547 U3526 2.449 . S
O3547 C3543 1.282 . S
H3548 C3521 0.931 . S
H3549 C3523 0.929 . S
H3550 C3524 0.930 . S
H3551 C3525 0.931 . S
H3552 C3532 0.932 . S
H3553 C3533 0.930 . S
H3554 C3534 0.929 . S
H3555 C3536 0.930 . S
H3556 C3538 0.932 . S
H3557 C3539 0.929 . S
H3558 C3540 0.928 . S
H3559 C3542 0.932 . S
C3560 C3561 1.264 . S
C3560 C3565 1.479 . S
C3560 C3570 1.465 . S
C3561 C3560 1.264 . S
C3561 C3563 1.339 . S
C3561 H3588 0.931 . S
C3562 C3563 1.395 . S
C3562 C3564 1.320 . S
C3563 C3561 1.339 . S
C3563 C3562 1.395 . S
C3563 H3589 0.929 . S
C3564 C3562 1.320 . S
C3564 C3565 1.405 . S
C3564 H3590 0.930 . S
C3565 C3560 1.479 . S
C3565 C3564 1.405 . S
C3565 H3591 0.931 . S
U3566 O3567 2.454 . S
U3566 O3568 2.458 . S
U3566 C3569 2.984 . S
U3566 C3570 2.847 . S
U3566 C3583 2.882 . S
U3566 O3584 2.441 . S
U3566 O3585 2.420 . S
U3566 O3586 2.455 . S
U3566 O3587 2.449 . S
O3567 U3566 2.454 . S
O3567 C3569 1.353 . S
O3568 U3566 2.458 . S
O3568 C3569 1.286 . S
C3569 U3566 2.984 . S
C3569 O3567 1.353 . S
C3569 O3568 1.286 . S
C3569 C3571 1.363 . S
C3570 C3560 1.465 . S
C3570 U3566 2.847 . S
C3570 O3584 1.249 . S
C3570 O3585 1.202 . S
C3571 C3569 1.363 . S
C3571 C3573 1.408 . S
C3571 C3576 1.342 . S
C3572 C3573 1.310 . S
C3572 C3575 1.461 . S
C3572 H3592 0.932 . S
C3573 C3571 1.408 . S
C3573 C3572 1.310 . S
C3573 H3593 0.930 . S
C3574 C3575 1.474 . S
C3574 C3576 1.285 . S
C3574 H3594 0.929 . S
C3575 C3572 1.461 . S
C3575 C3574 1.474 . S
C3576 C3571 1.342 . S
C3576 C3574 1.285 . S
C3576 H3595 0.930 . S
C3577 C3580 1.424 . S
C3577 C3582 1.245 . S
C3577 C3583 1.428 . S
C3578 C3581 1.260 . S
C3578 C3582 1.477 . S
C3578 H3596 0.932 . S
C3579 C3580 1.384 . S
C3579 C3581 1.479 . S
C3579 H3597 0.929 . S
C3580 C3577 1.424 . S
C3580 C3579 1.384 . S
C3580 H3598 0.928 . S
C3581 C3578 1.260 . S
C3581 C3579 1.479 . S
C3582 C3577 1.245 . S
C3582 C3578 1.477 . S
C3582 H3599 0.932 . S
C3583 U3566 2.882 . S
C3583 C3577 1.428 . S
C3583 O3586 1.301 . S
C3583 O3587 1.282 . S
O3584 U3566 2.441 . S
O3584 C3570 1.249 . S
O3585 U3566 2.420 . S
O3585 C3570 1.202 . S
O3586 U3566 2.455 . S
O3586 C3583 1.301 . S
O3587 U3566 2.449 . S
O3587 C3583 1.282 . S
H3588 C3561 0.931 . S
H3589 C3563 0.929 . S
H3590 C3564 0.930 . S
H3591 C3565 0.931 . S
H3592 C3572 0.932 . S
H3593 C3573 0.930 . S
H3594 C3574 0.929 . S
H3595 C3576 0.930 . S
H3596 C3578 0.932 . S
H3597 C3579 0.929 . S
H3598 C3580 0.928 . S
H3599 C3582 0.932 . S
C3600 C3601 1.264 . S
C3600 C3605 1.479 . S
C3600 C3610 1.465 . S
C3601 C3600 1.264 . S
C3601 C3603 1.339 . S
C3601 H3628 0.931 . S
C3602 C3603 1.395 . S
C3602 C3604 1.320 . S
C3603 C3601 1.339 . S
C3603 C3602 1.395 . S
C3603 H3629 0.929 . S
C3604 C3602 1.320 . S
C3604 C3605 1.405 . S
C3604 H3630 0.930 . S
C3605 C3600 1.479 . S
C3605 C3604 1.405 . S
C3605 H3631 0.931 . S
U3606 O3607 2.454 . S
U3606 O3608 2.458 . S
U3606 C3609 2.984 . S
U3606 C3610 2.847 . S
U3606 C3623 2.882 . S
U3606 O3624 2.441 . S
U3606 O3625 2.420 . S
U3606 O3626 2.455 . S
U3606 O3627 2.449 . S
O3607 U3606 2.454 . S
O3607 C3609 1.353 . S
O3608 U3606 2.458 . S
O3608 C3609 1.286 . S
C3609 U3606 2.984 . S
C3609 O3607 1.353 . S
C3609 O3608 1.286 . S
C3609 C3611 1.363 . S
C3610 C3600 1.465 . S
C3610 U3606 2.847 . S
C3610 O3624 1.249 . S
C3610 O3625 1.202 . S
C3611 C3609 1.363 . S
C3611 C3613 1.408 . S
C3611 C3616 1.342 . S
C3612 C3613 1.310 . S
C3612 C3615 1.461 . S
C3612 H3632 0.932 . S
C3613 C3611 1.408 . S
C3613 C3612 1.310 . S
C3613 H3633 0.930 . S
C3614 C3615 1.474 . S
C3614 C3616 1.285 . S
C3614 H3634 0.929 . S
C3615 C3612 1.461 . S
C3615 C3614 1.474 . S
C3616 C3611 1.342 . S
C3616 C3614 1.285 . S
C3616 H3635 0.930 . S
C3617 C3620 1.424 . S
C3617 C3622 1.245 . S
C3617 C3623 1.428 . S
C3618 C3621 1.260 . S
C3618 C3622 1.477 . S
C3618 H3636 0.932 . S
C3619 C3620 1.384 . S
C3619 C3621 1.479 . S
C3619 H3637 0.929 . S
C3620 C3617 1.424 . S
C3620 C3619 1.384 . S
C3620 H3638 0.928 . S
C3621 C3618 1.260 . S
C3621 C3619 1.479 . S
C3622 C3617 1.245 . S
C3622 C3618 1.477 . S
C3622 H3639 0.932 . S
C3623 U3606 2.882 . S
C3623 C3617 1.428 . S
C3623 O3626 1.301 . S
C3623 O3627 1.282 . S
O3624 U3606 2.441 . S
O3624 C3610 1.249 . S
O3625 U3606 2.420 . S
O3625 C3610 1.202 . S
O3626 U3606 2.455 . S
O3626 C3623 1.301 . S
O3627 U3606 2.449 . S
O3627 C3623 1.282 . S
H3628 C3601 0.931 . S
H3629 C3603 0.929 . S
H3630 C3604 0.930 . S
H3631 C3605 0.931 . S
H3632 C3612 0.932 . S
H3633 C3613 0.930 . S
H3634 C3614 0.929 . S
H3635 C3616 0.930 . S
H3636 C3618 0.932 . S
H3637 C3619 0.929 . S
H3638 C3620 0.928 . S
H3639 C3622 0.932 . S
C3640 C3641 1.264 . S
C3640 C3645 1.479 . S
C3640 C3650 1.465 . S
C3641 C3640 1.264 . S
C3641 C3643 1.339 . S
C3641 H3668 0.931 . S
C3642 C3643 1.395 . S
C3642 C3644 1.320 . S
C3643 C3641 1.339 . S
C3643 C3642 1.395 . S
C3643 H3669 0.929 . S
C3644 C3642 1.320 . S
C3644 C3645 1.405 . S
C3644 H3670 0.930 . S
C3645 C3640 1.479 . S
C3645 C3644 1.405 . S
C3645 H3671 0.931 . S
U3646 O3647 2.454 . S
U3646 O3648 2.458 . S
U3646 C3649 2.984 . S
U3646 C3650 2.847 . S
U3646 C3663 2.882 . S
U3646 O3664 2.441 . S
U3646 O3665 2.420 . S
U3646 O3666 2.455 . S
U3646 O3667 2.449 . S
O3647 U3646 2.454 . S
O3647 C3649 1.353 . S
O3648 U3646 2.458 . S
O3648 C3649 1.286 . S
C3649 U3646 2.984 . S
C3649 O3647 1.353 . S
C3649 O3648 1.286 . S
C3649 C3651 1.363 . S
C3650 C3640 1.465 . S
C3650 U3646 2.847 . S
C3650 O3664 1.249 . S
C3650 O3665 1.202 . S
C3651 C3649 1.363 . S
C3651 C3653 1.408 . S
C3651 C3656 1.342 . S
C3652 C3653 1.310 . S
C3652 C3655 1.461 . S
C3652 H3672 0.932 . S
C3653 C3651 1.408 . S
C3653 C3652 1.310 . S
C3653 H3673 0.930 . S
C3654 C3655 1.474 . S
C3654 C3656 1.285 . S
C3654 H3674 0.929 . S
C3655 C3652 1.461 . S
C3655 C3654 1.474 . S
C3656 C3651 1.342 . S
C3656 C3654 1.285 . S
C3656 H3675 0.930 . S
C3657 C3660 1.424 . S
C3657 C3662 1.245 . S
C3657 C3663 1.428 . S
C3658 C3661 1.260 . S
C3658 C3662 1.477 . S
C3658 H3676 0.932 . S
C3659 C3660 1.384 . S
C3659 C3661 1.479 . S
C3659 H3677 0.929 . S
C3660 C3657 1.424 . S
C3660 C3659 1.384 . S
C3660 H3678 0.928 . S
C3661 C3658 1.260 . S
C3661 C3659 1.479 . S
C3662 C3657 1.245 . S
C3662 C3658 1.477 . S
C3662 H3679 0.932 . S
C3663 U3646 2.882 . S
C3663 C3657 1.428 . S
C3663 O3666 1.301 . S
C3663 O3667 1.282 . S
O3664 U3646 2.441 . S
O3664 C3650 1.249 . S
O3665 U3646 2.420 . S
O3665 C3650 1.202 . S
O3666 U3646 2.455 . S
O3666 C3663 1.301 . S
O3667 U3646 2.449 . S
O3667 C3663 1.282 . S
H3668 C3641 0.931 . S
H3669 C3643 0.929 . S
H3670 C3644 0.930 . S
H3671 C3645 0.931 . S
H3672 C3652 0.932 . S
H3673 C3653 0.930 . S
H3674 C3654 0.929 . S
H3675 C3656 0.930 . S
H3676 C3658 0.932 . S
H3677 C3659 0.929 . S
H3678 C3660 0.928 . S
H3679 C3662 0.932 . S
C3680 C3681 1.264 . S
C3680 C3685 1.479 . S
C3680 C3690 1.465 . S
C3681 C3680 1.264 . S
C3681 C3683 1.339 . S
C3681 H3708 0.931 . S
C3682 C3683 1.395 . S
C3682 C3684 1.320 . S
C3683 C3681 1.339 . S
C3683 C3682 1.395 . S
C3683 H3709 0.929 . S
C3684 C3682 1.320 . S
C3684 C3685 1.405 . S
C3684 H3710 0.930 . S
C3685 C3680 1.479 . S
C3685 C3684 1.405 . S
C3685 H3711 0.931 . S
U3686 O3687 2.454 . S
U3686 O3688 2.458 . S
U3686 C3689 2.984 . S
U3686 C3690 2.847 . S
U3686 C3703 2.882 . S
U3686 O3704 2.441 . S
U3686 O3705 2.420 . S
U3686 O3706 2.455 . S
U3686 O3707 2.449 . S
O3687 U3686 2.454 . S
O3687 C3689 1.353 . S
O3688 U3686 2.458 . S
O3688 C3689 1.286 . S
C3689 U3686 2.984 . S
C3689 O3687 1.353 . S
C3689 O3688 1.286 . S
C3689 C3691 1.363 . S
C3690 C3680 1.465 . S
C3690 U3686 2.847 . S
C3690 O3704 1.249 . S
C3690 O3705 1.202 . S
C3691 C3689 1.363 . S
C3691 C3693 1.408 . S
C3691 C3696 1.342 . S
C3692 C3693 1.310 . S
C3692 C3695 1.461 . S
C3692 H3712 0.932 . S
C3693 C3691 1.408 . S
C3693 C3692 1.310 . S
C3693 H3713 0.930 . S
C3694 C3695 1.474 . S
C3694 C3696 1.285 . S
C3694 H3714 0.929 . S
C3695 C3692 1.461 . S
C3695 C3694 1.474 . S
C3696 C3691 1.342 . S
C3696 C3694 1.285 . S
C3696 H3715 0.930 . S
C3697 C3700 1.424 . S
C3697 C3702 1.245 . S
C3697 C3703 1.428 . S
C3698 C3701 1.260 . S
C3698 C3702 1.477 . S
C3698 H3716 0.932 . S
C3699 C3700 1.384 . S
C3699 C3701 1.479 . S
C3699 H3717 0.929 . S
C3700 C3697 1.424 . S
C3700 C3699 1.384 . S
C3700 H3718 0.928 . S
C3701 C3698 1.260 . S
C3701 C3699 1.479 . S
C3702 C3697 1.245 . S
C3702 C3698 1.477 . S
C3702 H3719 0.932 . S
C3703 U3686 2.882 . S
C3703 C3697 1.428 . S
C3703 O3706 1.301 . S
C3703 O3707 1.282 . S
O3704 U3686 2.441 . S
O3704 C3690 1.249 . S
O3705 U3686 2.420 . S
O3705 C3690 1.202 . S
O3706 U3686 2.455 . S
O3706 C3703 1.301 . S
O3707 U3686 2.449 . S
O3707 C3703 1.282 . S
H3708 C3681 0.931 . S
H3709 C3683 0.929 . S
H3710 C3684 0.930 . S
H3711 C3685 0.931 . S
H3712 C3692 0.932 . S
H3713 C3693 0.930 . S
H3714 C3694 0.929 . S
H3715 C3696 0.930 . S
H3716 C3698 0.932 . S
H3717 C3699 0.929 . S
H3718 C3700 0.928 . S
H3719 C3702 0.932 . S
C3720 C3721 1.264 . S
C3720 C3725 1.479 . S
C3720 C3730 1.465 . S
C3721 C3720 1.264 . S
C3721 C3723 1.339 . S
C3721 H3748 0.931 . S
C3722 C3723 1.395 . S
C3722 C3724 1.320 . S
C3723 C3721 1.339 . S
C3723 C3722 1.395 . S
C3723 H3749 0.929 . S
C3724 C3722 1.320 . S
C3724 C3725 1.405 . S
C3724 H3750 0.930 . S
C3725 C3720 1.479 . S
C3725 C3724 1.405 . S
C3725 H3751 0.931 . S
U3726 O3727 2.454 . S
U3726 O3728 2.458 . S
U3726 C3729 2.984 . S
U3726 C3730 2.847 . S
U3726 C3743 2.882 . S
U3726 O3744 2.441 . S
U3726 O3745 2.420 . S
U3726 O3746 2.455 . S
U3726 O3747 2.449 . S
O3727 U3726 2.454 . S
O3727 C3729 1.353 . S
O3728 U3726 2.458 . S
O3728 C3729 1.286 . S
C3729 U3726 2.984 . S
C3729 O3727 1.353 . S
C3729 O3728 1.286 . S
C3729 C3731 1.363 . S
C3730 C3720 1.465 . S
C3730 U3726 2.847 . S
C3730 O3744 1.249 . S
C3730 O3745 1.202 . S
C3731 C3729 1.363 . S
C3731 C3733 1.408 . S
C3731 C3736 1.342 . S
C3732 C3733 1.310 . S
C3732 C3735 1.461 . S
C3732 H3752 0.932 . S
C3733 C3731 1.408 . S
C3733 C3732 1.310 . S
C3733 H3753 0.930 . S
C3734 C3735 1.474 . S
C3734 C3736 1.285 . S
C3734 H3754 0.929 . S
C3735 C3732 1.461 . S
C3735 C3734 1.474 . S
C3736 C3731 1.342 . S
C3736 C3734 1.285 . S
C3736 H3755 0.930 . S
C3737 C3740 1.424 . S
C3737 C3742 1.245 . S
C3737 C3743 1.428 . S
C3738 C3741 1.260 . S
C3738 C3742 1.477 . S
C3738 H3756 0.932 . S
C3739 C3740 1.384 . S
C3739 C3741 1.479 . S
C3739 H3757 0.929 . S
C3740 C3737 1.424 . S
C3740 C3739 1.384 . S
C3740 H3758 0.928 . S
C3741 C3738 1.260 . S
C3741 C3739 1.479 . S
C3742 C3737 1.245 . S
C3742 C3738 1.477 . S
C3742 H3759 0.932 . S
C3743 U3726 2.882 . S
C3743 C3737 1.428 . S
C3743 O3746 1.301 . S
C3743 O3747 1.282 . S
O3744 U3726 2.441 . S
O3744 C3730 1.249 . S
O3745 U3726 2.420 . S
O3745 C3730 1.202 . S
O3746 U3726 2.455 . S
O3746 C3743 1.301 . S
O3747 U3726 2.449 . S
O3747 C3743 1.282 . S
H3748 C3721 0.931 . S
H3749 C3723 0.929 . S
H3750 C3724 0.930 . S
H3751 C3725 0.931 . S
H3752 C3732 0.932 . S
H3753 C3733 0.930 . S
H3754 C3734 0.929 . S
H3755 C3736 0.930 . S
H3756 C3738 0.932 . S
H3757 C3739 0.929 . S
H3758 C3740 0.928 . S
H3759 C3742 0.932 . S
C3760 C3761 1.264 . S
C3760 C3765 1.479 . S
C3760 C3770 1.465 . S
C3761 C3760 1.264 . S
C3761 C3763 1.339 . S
C3761 H3788 0.931 . S
C3762 C3763 1.395 . S
C3762 C3764 1.320 . S
C3763 C3761 1.339 . S
C3763 C3762 1.395 . S
C3763 H3789 0.929 . S
C3764 C3762 1.320 . S
C3764 C3765 1.405 . S
C3764 H3790 0.930 . S
C3765 C3760 1.479 . S
C3765 C3764 1.405 . S
C3765 H3791 0.931 . S
U3766 O3767 2.454 . S
U3766 O3768 2.458 . S
U3766 C3769 2.984 . S
U3766 C3770 2.847 . S
U3766 C3783 2.882 . S
U3766 O3784 2.441 . S
U3766 O3785 2.420 . S
U3766 O3786 2.455 . S
U3766 O3787 2.449 . S
O3767 U3766 2.454 . S
O3767 C3769 1.353 . S
O3768 U3766 2.458 . S
O3768 C3769 1.286 . S
C3769 U3766 2.984 . S
C3769 O3767 1.353 . S
C3769 O3768 1.286 . S
C3769 C3771 1.363 . S
C3770 C3760 1.465 . S
C3770 U3766 2.847 . S
C3770 O3784 1.249 . S
C3770 O3785 1.202 . S
C3771 C3769 1.363 . S
C3771 C3773 1.408 . S
C3771 C3776 1.342 . S
C3772 C3773 1.310 . S
C3772 C3775 1.461 . S
C3772 H3792 0.932 . S
C3773 C3771 1.408 . S
C3773 C3772 1.310 . S
C3773 H3793 0.930 . S
C3774 C3775 1.474 . S
C3774 C3776 1.285 . S
C3774 H3794 0.929 . S
C3775 C3772 1.461 . S
C3775 C3774 1.474 . S
C3776 C3771 1.342 . S
C3776 C3774 1.285 . S
C3776 H3795 0.930 . S
C3777 C3780 1.424 . S
C3777 C3782 1.245 . S
C3777 C3783 1.428 . S
C3778 C3781 1.260 . S
C3778 C3782 1.477 . S
C3778 H3796 0.932 . S
C3779 C3780 1.384 . S
C3779 C3781 1.479 . S
C3779 H3797 0.929 . S
C3780 C3777 1.424 . S
C3780 C3779 1.384 . S
C3780 H3798 0.928 . S
C3781 C3778 1.260 . S
C3781 C3779 1.479 . S
C3782 C3777 1.245 . S
C3782 C3778 1.477 . S
C3782 H3799 0.932 . S
C3783 U3766 2.882 . S
C3783 C3777 1.428 . S
C3783 O3786 1.301 . S
C3783 O3787 1.282 . S
O3784 U3766 2.441 . S
O3784 C3770 1.249 . S
O3785 U3766 2.420 . S
O3785 C3770 1.202 . S
O3786 U3766 2.455 . S
O3786 C3783 1.301 . S
O3787 U3766 2.449 . S
O3787 C3783 1.282 . S
H3788 C3761 0.931 . S
H3789 C3763 0.929 . S
H3790 C3764 0.930 . S
H3791 C3765 0.931 . S
H3792 C3772 0.932 . S
H3793 C3773 0.930 . S
H3794 C3774 0.929 . S
H3795 C3776 0.930 . S
H3796 C3778 0.932 . S
H3797 C3779 0.929 . S
H3798 C3780 0.928 . S
H3799 C3782 0.932 . S
C3800 C3801 1.264 . S
C3800 C3805 1.479 . S
C3800 C3810 1.465 . S
C3801 C3800 1.264 . S
C3801 C3803 1.339 . S
C3801 H3828 0.931 . S
C3802 C3803 1.395 . S
C3802 C3804 1.320 . S
C3803 C3801 1.339 . S
C3803 C3802 1.395 . S
C3803 H3829 0.929 . S
C3804 C3802 1.320 . S
C3804 C3805 1.405 . S
C3804 H3830 0.930 . S
C3805 C3800 1.479 . S
C3805 C3804 1.405 . S
C3805 H3831 0.931 . S
U3806 O3807 2.454 . S
U3806 O3808 2.458 . S
U3806 C3809 2.984 . S
U3806 C3810 2.847 . S
U3806 C3823 2.882 . S
U3806 O3824 2.441 . S
U3806 O3825 2.420 . S
U3806 O3826 2.455 . S
U3806 O3827 2.449 . S
O3807 U3806 2.454 . S
O3807 C3809 1.353 . S
O3808 U3806 2.458 . S
O3808 C3809 1.286 . S
C3809 U3806 2.984 . S
C3809 O3807 1.353 . S
C3809 O3808 1.286 . S
C3809 C3811 1.363 . S
C3810 C3800 1.465 . S
C3810 U3806 2.847 . S
C3810 O3824 1.249 . S
C3810 O3825 1.202 . S
C3811 C3809 1.363 . S
C3811 C3813 1.408 . S
C3811 C3816 1.342 . S
C3812 C3813 1.310 . S
C3812 C3815 1.461 . S
C3812 H3832 0.932 . S
C3813 C3811 1.408 . S
C3813 C3812 1.310 . S
C3813 H3833 0.930 . S
C3814 C3815 1.474 . S
C3814 C3816 1.285 . S
C3814 H3834 0.929 . S
C3815 C3812 1.461 . S
C3815 C3814 1.474 . S
C3816 C3811 1.342 . S
C3816 C3814 1.285 . S
C3816 H3835 0.930 . S
C3817 C3820 1.424 . S
C3817 C3822 1.245 . S
C3817 C3823 1.428 . S
C3818 C3821 1.260 . S
C3818 C3822 1.477 . S
C3818 H3836 0.932 . S
C3819 C3820 1.384 . S
C3819 C3821 1.479 . S
C3819 H3837 0.929 . S
C3820 C3817 1.424 . S
C3820 C3819 1.384 . S
C3820 H3838 0.928 . S
C3821 C3818 1.260 . S
C3821 C3819 1.479 . S
C3822 C3817 1.245 . S
C3822 C3818 1.477 . S
C3822 H3839 0.932 . S
C3823 U3806 2.882 . S
C3823 C3817 1.428 . S
C3823 O3826 1.301 . S
C3823 O3827 1.282 . S
O3824 U3806 2.441 . S
O3824 C3810 1.249 . S
O3825 U3806 2.420 . S
O3825 C3810 1.202 . S
O3826 U3806 2.455 . S
O3826 C3823 1.301 . S
O3827 U3806 2.449 . S
O3827 C3823 1.282 . S
H3828 C3801 0.931 . S
H3829 C3803 0.929 . S
H3830 C3804 0.930 . S
H3831 C3805 0.931 . S
H3832 C3812 0.932 . S
H3833 C3813 0.930 . S
H3834 C3814 0.929 . S
H3835 C3816 0.930 . S
H3836 C3818 0.932 . S
H3837 C3819 0.929 . S
H3838 C3820 0.928 . S
H3839 C3822 0.932 . S
P3840 O3851 1.490 . S
P3840 C3854 1.812 . S
P3840 C3860 1.803 . S
P3840 C3866 1.819 . S
H3841 C3855 0.941 . S
H3842 C3856 0.939 . S
H3843 C3858 0.940 . S
H3844 C3859 0.940 . S
H3845 C3861 0.939 . S
H3846 C3862 0.942 . S
H3847 C3864 0.940 . S
H3848 C3865 0.939 . S
H3849 C3867 0.941 . S
H3850 C3871 0.939 . S
O3851 P3840 1.490 . S
H3852 C3868 0.939 . S
H3853 C3870 0.940 . S
C3854 P3840 1.812 . S
C3854 C3855 1.389 . S
C3854 C3859 1.391 . S
C3855 H3841 0.941 . S
C3855 C3854 1.389 . S
C3855 C3856 1.397 . S
C3856 H3842 0.939 . S
C3856 C3855 1.397 . S
C3856 C3857 1.378 . S
C3857 C3856 1.378 . S
C3857 C3858 1.378 . S
C3858 H3843 0.940 . S
C3858 C3857 1.378 . S
C3858 C3859 1.396 . S
C3859 H3844 0.940 . S
C3859 C3854 1.391 . S
C3859 C3858 1.396 . S
C3860 P3840 1.803 . S
C3860 C3861 1.378 . S
C3860 C3865 1.400 . S
C3861 H3845 0.939 . S
C3861 C3860 1.378 . S
C3861 C3862 1.361 . S
C3862 H3846 0.942 . S
C3862 C3861 1.361 . S
C3862 C3863 1.369 . S
C3863 C3862 1.369 . S
C3863 C3864 1.404 . S
C3864 H3847 0.940 . S
C3864 C3863 1.404 . S
C3864 C3865 1.389 . S
C3865 H3848 0.939 . S
C3865 C3860 1.400 . S
C3865 C3864 1.389 . S
C3866 P3840 1.819 . S
C3866 C3867 1.391 . S
C3866 C3871 1.391 . S
C3867 H3849 0.941 . S
C3867 C3866 1.391 . S
C3867 C3868 1.396 . S
C3868 H3852 0.939 . S
C3868 C3867 1.396 . S
C3868 C3869 1.397 . S
C3869 C3868 1.397 . S
C3869 C3870 1.385 . S
C3870 H3853 0.940 . S
C3870 C3869 1.385 . S
C3870 C3871 1.388 . S
C3871 H3850 0.939 . S
C3871 C3866 1.391 . S
C3871 C3870 1.388 . S
P3872 O3883 1.490 . S
P3872 C3886 1.812 . S
P3872 C3892 1.803 . S
P3872 C3898 1.819 . S
H3873 C3887 0.941 . S
H3874 C3888 0.939 . S
H3875 C3890 0.940 . S
H3876 C3891 0.940 . S
H3877 C3893 0.939 . S
H3878 C3894 0.942 . S
H3879 C3896 0.940 . S
H3880 C3897 0.939 . S
H3881 C3899 0.941 . S
H3882 C3903 0.939 . S
O3883 P3872 1.490 . S
H3884 C3900 0.939 . S
H3885 C3902 0.940 . S
C3886 P3872 1.812 . S
C3886 C3887 1.389 . S
C3886 C3891 1.391 . S
C3887 H3873 0.941 . S
C3887 C3886 1.389 . S
C3887 C3888 1.397 . S
C3888 H3874 0.939 . S
C3888 C3887 1.397 . S
C3888 C3889 1.378 . S
C3889 C3888 1.378 . S
C3889 C3890 1.378 . S
C3890 H3875 0.940 . S
C3890 C3889 1.378 . S
C3890 C3891 1.396 . S
C3891 H3876 0.940 . S
C3891 C3886 1.391 . S
C3891 C3890 1.396 . S
C3892 P3872 1.803 . S
C3892 C3893 1.378 . S
C3892 C3897 1.400 . S
C3893 H3877 0.939 . S
C3893 C3892 1.378 . S
C3893 C3894 1.361 . S
C3894 H3878 0.942 . S
C3894 C3893 1.361 . S
C3894 C3895 1.369 . S
C3895 C3894 1.369 . S
C3895 C3896 1.404 . S
C3896 H3879 0.940 . S
C3896 C3895 1.404 . S
C3896 C3897 1.389 . S
C3897 H3880 0.939 . S
C3897 C3892 1.400 . S
C3897 C3896 1.389 . S
C3898 P3872 1.819 . S
C3898 C3899 1.391 . S
C3898 C3903 1.391 . S
C3899 H3881 0.941 . S
C3899 C3898 1.391 . S
C3899 C3900 1.396 . S
C3900 H3884 0.939 . S
C3900 C3899 1.396 . S
C3900 C3901 1.397 . S
C3901 C3900 1.397 . S
C3901 C3902 1.385 . S
C3902 H3885 0.940 . S
C3902 C3901 1.385 . S
C3902 C3903 1.388 . S
C3903 H3882 0.939 . S
C3903 C3898 1.391 . S
C3903 C3902 1.388 . S
P3904 O3915 1.490 . S
P3904 C3918 1.812 . S
P3904 C3924 1.803 . S
P3904 C3930 1.819 . S
H3905 C3919 0.941 . S
H3906 C3920 0.939 . S
H3907 C3922 0.940 . S
H3908 C3923 0.940 . S
H3909 C3925 0.939 . S
H3910 C3926 0.942 . S
H3911 C3928 0.940 . S
H3912 C3929 0.939 . S
H3913 C3931 0.941 . S
H3914 C3935 0.939 . S
O3915 P3904 1.490 . S
H3916 C3932 0.939 . S
H3917 C3934 0.940 . S
C3918 P3904 1.812 . S
C3918 C3919 1.389 . S
C3918 C3923 1.391 . S
C3919 H3905 0.941 . S
C3919 C3918 1.389 . S
C3919 C3920 1.397 . S
C3920 H3906 0.939 . S
C3920 C3919 1.397 . S
C3920 C3921 1.378 . S
C3921 C3920 1.378 . S
C3921 C3922 1.378 . S
C3922 H3907 0.940 . S
C3922 C3921 1.378 . S
C3922 C3923 1.396 . S
C3923 H3908 0.940 . S
C3923 C3918 1.391 . S
C3923 C3922 1.396 . S
C3924 P3904 1.803 . S
C3924 C3925 1.378 . S
C3924 C3929 1.400 . S
C3925 H3909 0.939 . S
C3925 C3924 1.378 . S
C3925 C3926 1.361 . S
C3926 H3910 0.942 . S
C3926 C3925 1.361 . S
C3926 C3927 1.369 . S
C3927 C3926 1.369 . S
C3927 C3928 1.404 . S
C3928 H3911 0.940 . S
C3928 C3927 1.404 . S
C3928 C3929 1.389 . S
C3929 H3912 0.939 . S
C3929 C3924 1.400 . S
C3929 C3928 1.389 . S
C3930 P3904 1.819 . S
C3930 C3931 1.391 . S
C3930 C3935 1.391 . S
C3931 H3913 0.941 . S
C3931 C3930 1.391 . S
C3931 C3932 1.396 . S
C3932 H3916 0.939 . S
C3932 C3931 1.396 . S
C3932 C3933 1.397 . S
C3933 C3932 1.397 . S
C3933 C3934 1.385 . S
C3934 H3917 0.940 . S
C3934 C3933 1.385 . S
C3934 C3935 1.388 . S
C3935 H3914 0.939 . S
C3935 C3930 1.391 . S
C3935 C3934 1.388 . S
P3936 O3947 1.490 . S
P3936 C3950 1.812 . S
P3936 C3956 1.803 . S
P3936 C3962 1.819 . S
H3937 C3951 0.941 . S
H3938 C3952 0.939 . S
H3939 C3954 0.940 . S
H3940 C3955 0.940 . S
H3941 C3957 0.939 . S
H3942 C3958 0.942 . S
H3943 C3960 0.940 . S
H3944 C3961 0.939 . S
H3945 C3963 0.941 . S
H3946 C3967 0.939 . S
O3947 P3936 1.490 . S
H3948 C3964 0.939 . S
H3949 C3966 0.940 . S
C3950 P3936 1.812 . S
C3950 C3951 1.389 . S
C3950 C3955 1.391 . S
C3951 H3937 0.941 . S
C3951 C3950 1.389 . S
C3951 C3952 1.397 . S
C3952 H3938 0.939 . S
C3952 C3951 1.397 . S
C3952 C3953 1.378 . S
C3953 C3952 1.378 . S
C3953 C3954 1.378 . S
C3954 H3939 0.940 . S
C3954 C3953 1.378 . S
C3954 C3955 1.396 . S
C3955 H3940 0.940 . S
C3955 C3950 1.391 . S
C3955 C3954 1.396 . S
C3956 P3936 1.803 . S
C3956 C3957 1.378 . S
C3956 C3961 1.400 . S
C3957 H3941 0.939 . S
C3957 C3956 1.378 . S
C3957 C3958 1.361 . S
C3958 H3942 0.942 . S
C3958 C3957 1.361 . S
C3958 C3959 1.369 . S
C3959 C3958 1.369 . S
C3959 C3960 1.404 . S
C3960 H3943 0.940 . S
C3960 C3959 1.404 . S
C3960 C3961 1.389 . S
C3961 H3944 0.939 . S
C3961 C3956 1.400 . S
C3961 C3960 1.389 . S
C3962 P3936 1.819 . S
C3962 C3963 1.391 . S
C3962 C3967 1.391 . S
C3963 H3945 0.941 . S
C3963 C3962 1.391 . S
C3963 C3964 1.396 . S
C3964 H3948 0.939 . S
C3964 C3963 1.396 . S
C3964 C3965 1.397 . S
C3965 C3964 1.397 . S
C3965 C3966 1.385 . S
C3966 H3949 0.940 . S
C3966 C3965 1.385 . S
C3966 C3967 1.388 . S
C3967 H3946 0.939 . S
C3967 C3962 1.391 . S
C3967 C3966 1.388 . S
P3968 O3979 1.490 . S
P3968 C3982 1.812 . S
P3968 C3988 1.803 . S
P3968 C3994 1.819 . S
H3969 C3983 0.941 . S
H3970 C3984 0.939 . S
H3971 C3986 0.940 . S
H3972 C3987 0.940 . S
H3973 C3989 0.939 . S
H3974 C3990 0.942 . S
H3975 C3992 0.940 . S
H3976 C3993 0.939 . S
H3977 C3995 0.941 . S
H3978 C3999 0.939 . S
O3979 P3968 1.490 . S
H3980 C3996 0.939 . S
H3981 C3998 0.940 . S
C3982 P3968 1.812 . S
C3982 C3983 1.389 . S
C3982 C3987 1.391 . S
C3983 H3969 0.941 . S
C3983 C3982 1.389 . S
C3983 C3984 1.397 . S
C3984 H3970 0.939 . S
C3984 C3983 1.397 . S
C3984 C3985 1.378 . S
C3985 C3984 1.378 . S
C3985 C3986 1.378 . S
C3986 H3971 0.940 . S
C3986 C3985 1.378 . S
C3986 C3987 1.396 . S
C3987 H3972 0.940 . S
C3987 C3982 1.391 . S
C3987 C3986 1.396 . S
C3988 P3968 1.803 . S
C3988 C3989 1.378 . S
C3988 C3993 1.400 . S
C3989 H3973 0.939 . S
C3989 C3988 1.378 . S
C3989 C3990 1.361 . S
C3990 H3974 0.942 . S
C3990 C3989 1.361 . S
C3990 C3991 1.369 . S
C3991 C3990 1.369 . S
C3991 C3992 1.404 . S
C3992 H3975 0.940 . S
C3992 C3991 1.404 . S
C3992 C3993 1.389 . S
C3993 H3976 0.939 . S
C3993 C3988 1.400 . S
C3993 C3992 1.389 . S
C3994 P3968 1.819 . S
C3994 C3995 1.391 . S
C3994 C3999 1.391 . S
C3995 H3977 0.941 . S
C3995 C3994 1.391 . S
C3995 C3996 1.396 . S
C3996 H3980 0.939 . S
C3996 C3995 1.396 . S
C3996 C3997 1.397 . S
C3997 C3996 1.397 . S
C3997 C3998 1.385 . S
C3998 H3981 0.940 . S
C3998 C3997 1.385 . S
C3998 C3999 1.388 . S
C3999 H3978 0.939 . S
C3999 C3994 1.391 . S
C3999 C3998 1.388 . S
P4000 O4011 1.490 . S
P4000 C4014 1.812 . S
P4000 C4020 1.803 . S
P4000 C4026 1.819 . S
H4001 C4015 0.941 . S
H4002 C4016 0.939 . S
H4003 C4018 0.940 . S
H4004 C4019 0.940 . S
H4005 C4021 0.939 . S
H4006 C4022 0.942 . S
H4007 C4024 0.940 . S
H4008 C4025 0.939 . S
H4009 C4027 0.941 . S
H4010 C4031 0.939 . S
O4011 P4000 1.490 . S
H4012 C4028 0.939 . S
H4013 C4030 0.940 . S
C4014 P4000 1.812 . S
C4014 C4015 1.389 . S
C4014 C4019 1.391 . S
C4015 H4001 0.941 . S
C4015 C4014 1.389 . S
C4015 C4016 1.397 . S
C4016 H4002 0.939 . S
C4016 C4015 1.397 . S
C4016 C4017 1.378 . S
C4017 C4016 1.378 . S
C4017 C4018 1.378 . S
C4018 H4003 0.940 . S
C4018 C4017 1.378 . S
C4018 C4019 1.396 . S
C4019 H4004 0.940 . S
C4019 C4014 1.391 . S
C4019 C4018 1.396 . S
C4020 P4000 1.803 . S
C4020 C4021 1.378 . S
C4020 C4025 1.400 . S
C4021 H4005 0.939 . S
C4021 C4020 1.378 . S
C4021 C4022 1.361 . S
C4022 H4006 0.942 . S
C4022 C4021 1.361 . S
C4022 C4023 1.369 . S
C4023 C4022 1.369 . S
C4023 C4024 1.404 . S
C4024 H4007 0.940 . S
C4024 C4023 1.404 . S
C4024 C4025 1.389 . S
C4025 H4008 0.939 . S
C4025 C4020 1.400 . S
C4025 C4024 1.389 . S
C4026 P4000 1.819 . S
C4026 C4027 1.391 . S
C4026 C4031 1.391 . S
C4027 H4009 0.941 . S
C4027 C4026 1.391 . S
C4027 C4028 1.396 . S
C4028 H4012 0.939 . S
C4028 C4027 1.396 . S
C4028 C4029 1.397 . S
C4029 C4028 1.397 . S
C4029 C4030 1.385 . S
C4030 H4013 0.940 . S
C4030 C4029 1.385 . S
C4030 C4031 1.388 . S
C4031 H4010 0.939 . S
C4031 C4026 1.391 . S
C4031 C4030 1.388 . S
P4032 O4043 1.490 . S
P4032 C4046 1.812 . S
P4032 C4052 1.803 . S
P4032 C4058 1.819 . S
H4033 C4047 0.941 . S
H4034 C4048 0.939 . S
H4035 C4050 0.940 . S
H4036 C4051 0.940 . S
H4037 C4053 0.939 . S
H4038 C4054 0.942 . S
H4039 C4056 0.940 . S
H4040 C4057 0.939 . S
H4041 C4059 0.941 . S
H4042 C4063 0.939 . S
O4043 P4032 1.490 . S
H4044 C4060 0.939 . S
H4045 C4062 0.940 . S
C4046 P4032 1.812 . S
C4046 C4047 1.389 . S
C4046 C4051 1.391 . S
C4047 H4033 0.941 . S
C4047 C4046 1.389 . S
C4047 C4048 1.397 . S
C4048 H4034 0.939 . S
C4048 C4047 1.397 . S
C4048 C4049 1.378 . S
C4049 C4048 1.378 . S
C4049 C4050 1.378 . S
C4050 H4035 0.940 . S
C4050 C4049 1.378 . S
C4050 C4051 1.396 . S
C4051 H4036 0.940 . S
C4051 C4046 1.391 . S
C4051 C4050 1.396 . S
C4052 P4032 1.803 . S
C4052 C4053 1.378 . S
C4052 C4057 1.400 . S
C4053 H4037 0.939 . S
C4053 C4052 1.378 . S
C4053 C4054 1.361 . S
C4054 H4038 0.942 . S
C4054 C4053 1.361 . S
C4054 C4055 1.369 . S
C4055 C4054 1.369 . S
C4055 C4056 1.404 . S
C4056 H4039 0.940 . S
C4056 C4055 1.404 . S
C4056 C4057 1.389 . S
C4057 H4040 0.939 . S
C4057 C4052 1.400 . S
C4057 C4056 1.389 . S
C4058 P4032 1.819 . S
C4058 C4059 1.391 . S
C4058 C4063 1.391 . S
C4059 H4041 0.941 . S
C4059 C4058 1.391 . S
C4059 C4060 1.396 . S
C4060 H4044 0.939 . S
C4060 C4059 1.396 . S
C4060 C4061 1.397 . S
C4061 C4060 1.397 . S
C4061 C4062 1.385 . S
C4062 H4045 0.940 . S
C4062 C4061 1.385 . S
C4062 C4063 1.388 . S
C4063 H4042 0.939 . S
C4063 C4058 1.391 . S
C4063 C4062 1.388 . S
P4064 O4075 1.490 . S
P4064 C4078 1.812 . S
P4064 C4084 1.803 . S
P4064 C4090 1.819 . S
H4065 C4079 0.941 . S
H4066 C4080 0.939 . S
H4067 C4082 0.940 . S
H4068 C4083 0.940 . S
H4069 C4085 0.939 . S
H4070 C4086 0.942 . S
H4071 C4088 0.940 . S
H4072 C4089 0.939 . S
H4073 C4091 0.941 . S
H4074 C4095 0.939 . S
O4075 P4064 1.490 . S
H4076 C4092 0.939 . S
H4077 C4094 0.940 . S
C4078 P4064 1.812 . S
C4078 C4079 1.389 . S
C4078 C4083 1.391 . S
C4079 H4065 0.941 . S
C4079 C4078 1.389 . S
C4079 C4080 1.397 . S
C4080 H4066 0.939 . S
C4080 C4079 1.397 . S
C4080 C4081 1.378 . S
C4081 C4080 1.378 . S
C4081 C4082 1.378 . S
C4082 H4067 0.940 . S
C4082 C4081 1.378 . S
C4082 C4083 1.396 . S
C4083 H4068 0.940 . S
C4083 C4078 1.391 . S
C4083 C4082 1.396 . S
C4084 P4064 1.803 . S
C4084 C4085 1.378 . S
C4084 C4089 1.400 . S
C4085 H4069 0.939 . S
C4085 C4084 1.378 . S
C4085 C4086 1.361 . S
C4086 H4070 0.942 . S
C4086 C4085 1.361 . S
C4086 C4087 1.369 . S
C4087 C4086 1.369 . S
C4087 C4088 1.404 . S
C4088 H4071 0.940 . S
C4088 C4087 1.404 . S
C4088 C4089 1.389 . S
C4089 H4072 0.939 . S
C4089 C4084 1.400 . S
C4089 C4088 1.389 . S
C4090 P4064 1.819 . S
C4090 C4091 1.391 . S
C4090 C4095 1.391 . S
C4091 H4073 0.941 . S
C4091 C4090 1.391 . S
C4091 C4092 1.396 . S
C4092 H4076 0.939 . S
C4092 C4091 1.396 . S
C4092 C4093 1.397 . S
C4093 C4092 1.397 . S
C4093 C4094 1.385 . S
C4094 H4077 0.940 . S
C4094 C4093 1.385 . S
C4094 C4095 1.388 . S
C4095 H4074 0.939 . S
C4095 C4090 1.391 . S
C4095 C4094 1.388 . S
P4096 O4107 1.490 . S
P4096 C4110 1.812 . S
P4096 C4116 1.803 . S
P4096 C4122 1.819 . S
H4097 C4111 0.941 . S
H4098 C4112 0.939 . S
H4099 C4114 0.940 . S
H4100 C4115 0.940 . S
H4101 C4117 0.939 . S
H4102 C4118 0.942 . S
H4103 C4120 0.940 . S
H4104 C4121 0.939 . S
H4105 C4123 0.941 . S
H4106 C4127 0.939 . S
O4107 P4096 1.490 . S
H4108 C4124 0.939 . S
H4109 C4126 0.940 . S
C4110 P4096 1.812 . S
C4110 C4111 1.389 . S
C4110 C4115 1.391 . S
C4111 H4097 0.941 . S
C4111 C4110 1.389 . S
C4111 C4112 1.397 . S
C4112 H4098 0.939 . S
C4112 C4111 1.397 . S
C4112 C4113 1.378 . S
C4113 C4112 1.378 . S
C4113 C4114 1.378 . S
C4114 H4099 0.940 . S
C4114 C4113 1.378 . S
C4114 C4115 1.396 . S
C4115 H4100 0.940 . S
C4115 C4110 1.391 . S
C4115 C4114 1.396 . S
C4116 P4096 1.803 . S
C4116 C4117 1.378 . S
C4116 C4121 1.400 . S
C4117 H4101 0.939 . S
C4117 C4116 1.378 . S
C4117 C4118 1.361 . S
C4118 H4102 0.942 . S
C4118 C4117 1.361 . S
C4118 C4119 1.369 . S
C4119 C4118 1.369 . S
C4119 C4120 1.404 . S
C4120 H4103 0.940 . S
C4120 C4119 1.404 . S
C4120 C4121 1.389 . S
C4121 H4104 0.939 . S
C4121 C4116 1.400 . S
C4121 C4120 1.389 . S
C4122 P4096 1.819 . S
C4122 C4123 1.391 . S
C4122 C4127 1.391 . S
C4123 H4105 0.941 . S
C4123 C4122 1.391 . S
C4123 C4124 1.396 . S
C4124 H4108 0.939 . S
C4124 C4123 1.396 . S
C4124 C4125 1.397 . S
C4125 C4124 1.397 . S
C4125 C4126 1.385 . S
C4126 H4109 0.940 . S
C4126 C4125 1.385 . S
C4126 C4127 1.388 . S
C4127 H4106 0.939 . S
C4127 C4122 1.391 . S
C4127 C4126 1.388 . S
P4128 O4139 1.490 . S
P4128 C4142 1.812 . S
P4128 C4148 1.803 . S
P4128 C4154 1.819 . S
H4129 C4143 0.941 . S
H4130 C4144 0.939 . S
H4131 C4146 0.940 . S
H4132 C4147 0.940 . S
H4133 C4149 0.939 . S
H4134 C4150 0.942 . S
H4135 C4152 0.940 . S
H4136 C4153 0.939 . S
H4137 C4155 0.941 . S
H4138 C4159 0.939 . S
O4139 P4128 1.490 . S
H4140 C4156 0.939 . S
H4141 C4158 0.940 . S
C4142 P4128 1.812 . S
C4142 C4143 1.389 . S
C4142 C4147 1.391 . S
C4143 H4129 0.941 . S
C4143 C4142 1.389 . S
C4143 C4144 1.397 . S
C4144 H4130 0.939 . S
C4144 C4143 1.397 . S
C4144 C4145 1.378 . S
C4145 C4144 1.378 . S
C4145 C4146 1.378 . S
C4146 H4131 0.940 . S
C4146 C4145 1.378 . S
C4146 C4147 1.396 . S
C4147 H4132 0.940 . S
C4147 C4142 1.391 . S
C4147 C4146 1.396 . S
C4148 P4128 1.803 . S
C4148 C4149 1.378 . S
C4148 C4153 1.400 . S
C4149 H4133 0.939 . S
C4149 C4148 1.378 . S
C4149 C4150 1.361 . S
C4150 H4134 0.942 . S
C4150 C4149 1.361 . S
C4150 C4151 1.369 . S
C4151 C4150 1.369 . S
C4151 C4152 1.404 . S
C4152 H4135 0.940 . S
C4152 C4151 1.404 . S
C4152 C4153 1.389 . S
C4153 H4136 0.939 . S
C4153 C4148 1.400 . S
C4153 C4152 1.389 . S
C4154 P4128 1.819 . S
C4154 C4155 1.391 . S
C4154 C4159 1.391 . S
C4155 H4137 0.941 . S
C4155 C4154 1.391 . S
C4155 C4156 1.396 . S
C4156 H4140 0.939 . S
C4156 C4155 1.396 . S
C4156 C4157 1.397 . S
C4157 C4156 1.397 . S
C4157 C4158 1.385 . S
C4158 H4141 0.940 . S
C4158 C4157 1.385 . S
C4158 C4159 1.388 . S
C4159 H4138 0.939 . S
C4159 C4154 1.391 . S
C4159 C4158 1.388 . S
P4160 O4171 1.490 . S
P4160 C4174 1.812 . S
P4160 C4180 1.803 . S
P4160 C4186 1.819 . S
H4161 C4175 0.941 . S
H4162 C4176 0.939 . S
H4163 C4178 0.940 . S
H4164 C4179 0.940 . S
H4165 C4181 0.939 . S
H4166 C4182 0.942 . S
H4167 C4184 0.940 . S
H4168 C4185 0.939 . S
H4169 C4187 0.941 . S
H4170 C4191 0.939 . S
O4171 P4160 1.490 . S
H4172 C4188 0.939 . S
H4173 C4190 0.940 . S
C4174 P4160 1.812 . S
C4174 C4175 1.389 . S
C4174 C4179 1.391 . S
C4175 H4161 0.941 . S
C4175 C4174 1.389 . S
C4175 C4176 1.397 . S
C4176 H4162 0.939 . S
C4176 C4175 1.397 . S
C4176 C4177 1.378 . S
C4177 C4176 1.378 . S
C4177 C4178 1.378 . S
C4178 H4163 0.940 . S
C4178 C4177 1.378 . S
C4178 C4179 1.396 . S
C4179 H4164 0.940 . S
C4179 C4174 1.391 . S
C4179 C4178 1.396 . S
C4180 P4160 1.803 . S
C4180 C4181 1.378 . S
C4180 C4185 1.400 . S
C4181 H4165 0.939 . S
C4181 C4180 1.378 . S
C4181 C4182 1.361 . S
C4182 H4166 0.942 . S
C4182 C4181 1.361 . S
C4182 C4183 1.369 . S
C4183 C4182 1.369 . S
C4183 C4184 1.404 . S
C4184 H4167 0.940 . S
C4184 C4183 1.404 . S
C4184 C4185 1.389 . S
C4185 H4168 0.939 . S
C4185 C4180 1.400 . S
C4185 C4184 1.389 . S
C4186 P4160 1.819 . S
C4186 C4187 1.391 . S
C4186 C4191 1.391 . S
C4187 H4169 0.941 . S
C4187 C4186 1.391 . S
C4187 C4188 1.396 . S
C4188 H4172 0.939 . S
C4188 C4187 1.396 . S
C4188 C4189 1.397 . S
C4189 C4188 1.397 . S
C4189 C4190 1.385 . S
C4190 H4173 0.940 . S
C4190 C4189 1.385 . S
C4190 C4191 1.388 . S
C4191 H4170 0.939 . S
C4191 C4186 1.391 . S
C4191 C4190 1.388 . S
P4192 O4203 1.490 . S
P4192 C4206 1.812 . S
P4192 C4212 1.803 . S
P4192 C4218 1.819 . S
H4193 C4207 0.941 . S
H4194 C4208 0.939 . S
H4195 C4210 0.940 . S
H4196 C4211 0.940 . S
H4197 C4213 0.939 . S
H4198 C4214 0.942 . S
H4199 C4216 0.940 . S
H4200 C4217 0.939 . S
H4201 C4219 0.941 . S
H4202 C4223 0.939 . S
O4203 P4192 1.490 . S
H4204 C4220 0.939 . S
H4205 C4222 0.940 . S
C4206 P4192 1.812 . S
C4206 C4207 1.389 . S
C4206 C4211 1.391 . S
C4207 H4193 0.941 . S
C4207 C4206 1.389 . S
C4207 C4208 1.397 . S
C4208 H4194 0.939 . S
C4208 C4207 1.397 . S
C4208 C4209 1.378 . S
C4209 C4208 1.378 . S
C4209 C4210 1.378 . S
C4210 H4195 0.940 . S
C4210 C4209 1.378 . S
C4210 C4211 1.396 . S
C4211 H4196 0.940 . S
C4211 C4206 1.391 . S
C4211 C4210 1.396 . S
C4212 P4192 1.803 . S
C4212 C4213 1.378 . S
C4212 C4217 1.400 . S
C4213 H4197 0.939 . S
C4213 C4212 1.378 . S
C4213 C4214 1.361 . S
C4214 H4198 0.942 . S
C4214 C4213 1.361 . S
C4214 C4215 1.369 . S
C4215 C4214 1.369 . S
C4215 C4216 1.404 . S
C4216 H4199 0.940 . S
C4216 C4215 1.404 . S
C4216 C4217 1.389 . S
C4217 H4200 0.939 . S
C4217 C4212 1.400 . S
C4217 C4216 1.389 . S
C4218 P4192 1.819 . S
C4218 C4219 1.391 . S
C4218 C4223 1.391 . S
C4219 H4201 0.941 . S
C4219 C4218 1.391 . S
C4219 C4220 1.396 . S
C4220 H4204 0.939 . S
C4220 C4219 1.396 . S
C4220 C4221 1.397 . S
C4221 C4220 1.397 . S
C4221 C4222 1.385 . S
C4222 H4205 0.940 . S
C4222 C4221 1.385 . S
C4222 C4223 1.388 . S
C4223 H4202 0.939 . S
C4223 C4218 1.391 . S
C4223 C4222 1.388 . S
P4224 O4235 1.490 . S
P4224 C4238 1.812 . S
P4224 C4244 1.803 . S
P4224 C4250 1.819 . S
H4225 C4239 0.941 . S
H4226 C4240 0.939 . S
H4227 C4242 0.940 . S
H4228 C4243 0.940 . S
H4229 C4245 0.939 . S
H4230 C4246 0.942 . S
H4231 C4248 0.940 . S
H4232 C4249 0.939 . S
H4233 C4251 0.941 . S
H4234 C4255 0.939 . S
O4235 P4224 1.490 . S
H4236 C4252 0.939 . S
H4237 C4254 0.940 . S
C4238 P4224 1.812 . S
C4238 C4239 1.389 . S
C4238 C4243 1.391 . S
C4239 H4225 0.941 . S
C4239 C4238 1.389 . S
C4239 C4240 1.397 . S
C4240 H4226 0.939 . S
C4240 C4239 1.397 . S
C4240 C4241 1.378 . S
C4241 C4240 1.378 . S
C4241 C4242 1.378 . S
C4242 H4227 0.940 . S
C4242 C4241 1.378 . S
C4242 C4243 1.396 . S
C4243 H4228 0.940 . S
C4243 C4238 1.391 . S
C4243 C4242 1.396 . S
C4244 P4224 1.803 . S
C4244 C4245 1.378 . S
C4244 C4249 1.400 . S
C4245 H4229 0.939 . S
C4245 C4244 1.378 . S
C4245 C4246 1.361 . S
C4246 H4230 0.942 . S
C4246 C4245 1.361 . S
C4246 C4247 1.369 . S
C4247 C4246 1.369 . S
C4247 C4248 1.404 . S
C4248 H4231 0.940 . S
C4248 C4247 1.404 . S
C4248 C4249 1.389 . S
C4249 H4232 0.939 . S
C4249 C4244 1.400 . S
C4249 C4248 1.389 . S
C4250 P4224 1.819 . S
C4250 C4251 1.391 . S
C4250 C4255 1.391 . S
C4251 H4233 0.941 . S
C4251 C4250 1.391 . S
C4251 C4252 1.396 . S
C4252 H4236 0.939 . S
C4252 C4251 1.396 . S
C4252 C4253 1.397 . S
C4253 C4252 1.397 . S
C4253 C4254 1.385 . S
C4254 H4237 0.940 . S
C4254 C4253 1.385 . S
C4254 C4255 1.388 . S
C4255 H4234 0.939 . S
C4255 C4250 1.391 . S
C4255 C4254 1.388 . S
P4256 O4267 1.490 . S
P4256 C4270 1.812 . S
P4256 C4276 1.803 . S
P4256 C4282 1.819 . S
H4257 C4271 0.941 . S
H4258 C4272 0.939 . S
H4259 C4274 0.940 . S
H4260 C4275 0.940 . S
H4261 C4277 0.939 . S
H4262 C4278 0.942 . S
H4263 C4280 0.940 . S
H4264 C4281 0.939 . S
H4265 C4283 0.941 . S
H4266 C4287 0.939 . S
O4267 P4256 1.490 . S
H4268 C4284 0.939 . S
H4269 C4286 0.940 . S
C4270 P4256 1.812 . S
C4270 C4271 1.389 . S
C4270 C4275 1.391 . S
C4271 H4257 0.941 . S
C4271 C4270 1.389 . S
C4271 C4272 1.397 . S
C4272 H4258 0.939 . S
C4272 C4271 1.397 . S
C4272 C4273 1.378 . S
C4273 C4272 1.378 . S
C4273 C4274 1.378 . S
C4274 H4259 0.940 . S
C4274 C4273 1.378 . S
C4274 C4275 1.396 . S
C4275 H4260 0.940 . S
C4275 C4270 1.391 . S
C4275 C4274 1.396 . S
C4276 P4256 1.803 . S
C4276 C4277 1.378 . S
C4276 C4281 1.400 . S
C4277 H4261 0.939 . S
C4277 C4276 1.378 . S
C4277 C4278 1.361 . S
C4278 H4262 0.942 . S
C4278 C4277 1.361 . S
C4278 C4279 1.369 . S
C4279 C4278 1.369 . S
C4279 C4280 1.404 . S
C4280 H4263 0.940 . S
C4280 C4279 1.404 . S
C4280 C4281 1.389 . S
C4281 H4264 0.939 . S
C4281 C4276 1.400 . S
C4281 C4280 1.389 . S
C4282 P4256 1.819 . S
C4282 C4283 1.391 . S
C4282 C4287 1.391 . S
C4283 H4265 0.941 . S
C4283 C4282 1.391 . S
C4283 C4284 1.396 . S
C4284 H4268 0.939 . S
C4284 C4283 1.396 . S
C4284 C4285 1.397 . S
C4285 C4284 1.397 . S
C4285 C4286 1.385 . S
C4286 H4269 0.940 . S
C4286 C4285 1.385 . S
C4286 C4287 1.388 . S
C4287 H4266 0.939 . S
C4287 C4282 1.391 . S
C4287 C4286 1.388 . S
P4288 O4299 1.490 . S
P4288 C4302 1.812 . S
P4288 C4308 1.803 . S
P4288 C4314 1.819 . S
H4289 C4303 0.941 . S
H4290 C4304 0.939 . S
H4291 C4306 0.940 . S
H4292 C4307 0.940 . S
H4293 C4309 0.939 . S
H4294 C4310 0.942 . S
H4295 C4312 0.940 . S
H4296 C4313 0.939 . S
H4297 C4315 0.941 . S
H4298 C4319 0.939 . S
O4299 P4288 1.490 . S
H4300 C4316 0.939 . S
H4301 C4318 0.940 . S
C4302 P4288 1.812 . S
C4302 C4303 1.389 . S
C4302 C4307 1.391 . S
C4303 H4289 0.941 . S
C4303 C4302 1.389 . S
C4303 C4304 1.397 . S
C4304 H4290 0.939 . S
C4304 C4303 1.397 . S
C4304 C4305 1.378 . S
C4305 C4304 1.378 . S
C4305 C4306 1.378 . S
C4306 H4291 0.940 . S
C4306 C4305 1.378 . S
C4306 C4307 1.396 . S
C4307 H4292 0.940 . S
C4307 C4302 1.391 . S
C4307 C4306 1.396 . S
C4308 P4288 1.803 . S
C4308 C4309 1.378 . S
C4308 C4313 1.400 . S
C4309 H4293 0.939 . S
C4309 C4308 1.378 . S
C4309 C4310 1.361 . S
C4310 H4294 0.942 . S
C4310 C4309 1.361 . S
C4310 C4311 1.369 . S
C4311 C4310 1.369 . S
C4311 C4312 1.404 . S
C4312 H4295 0.940 . S
C4312 C4311 1.404 . S
C4312 C4313 1.389 . S
C4313 H4296 0.939 . S
C4313 C4308 1.400 . S
C4313 C4312 1.389 . S
C4314 P4288 1.819 . S
C4314 C4315 1.391 . S
C4314 C4319 1.391 . S
C4315 H4297 0.941 . S
C4315 C4314 1.391 . S
C4315 C4316 1.396 . S
C4316 H4300 0.939 . S
C4316 C4315 1.396 . S
C4316 C4317 1.397 . S
C4317 C4316 1.397 . S
C4317 C4318 1.385 . S
C4318 H4301 0.940 . S
C4318 C4317 1.385 . S
C4318 C4319 1.388 . S
C4319 H4298 0.939 . S
C4319 C4314 1.391 . S
C4319 C4318 1.388 . S
P4320 O4331 1.490 . S
P4320 C4334 1.812 . S
P4320 C4340 1.803 . S
P4320 C4346 1.819 . S
H4321 C4335 0.941 . S
H4322 C4336 0.939 . S
H4323 C4338 0.940 . S
H4324 C4339 0.940 . S
H4325 C4341 0.939 . S
H4326 C4342 0.942 . S
H4327 C4344 0.940 . S
H4328 C4345 0.939 . S
H4329 C4347 0.941 . S
H4330 C4351 0.939 . S
O4331 P4320 1.490 . S
H4332 C4348 0.939 . S
H4333 C4350 0.940 . S
C4334 P4320 1.812 . S
C4334 C4335 1.389 . S
C4334 C4339 1.391 . S
C4335 H4321 0.941 . S
C4335 C4334 1.389 . S
C4335 C4336 1.397 . S
C4336 H4322 0.939 . S
C4336 C4335 1.397 . S
C4336 C4337 1.378 . S
C4337 C4336 1.378 . S
C4337 C4338 1.378 . S
C4338 H4323 0.940 . S
C4338 C4337 1.378 . S
C4338 C4339 1.396 . S
C4339 H4324 0.940 . S
C4339 C4334 1.391 . S
C4339 C4338 1.396 . S
C4340 P4320 1.803 . S
C4340 C4341 1.378 . S
C4340 C4345 1.400 . S
C4341 H4325 0.939 . S
C4341 C4340 1.378 . S
C4341 C4342 1.361 . S
C4342 H4326 0.942 . S
C4342 C4341 1.361 . S
C4342 C4343 1.369 . S
C4343 C4342 1.369 . S
C4343 C4344 1.404 . S
C4344 H4327 0.940 . S
C4344 C4343 1.404 . S
C4344 C4345 1.389 . S
C4345 H4328 0.939 . S
C4345 C4340 1.400 . S
C4345 C4344 1.389 . S
C4346 P4320 1.819 . S
C4346 C4347 1.391 . S
C4346 C4351 1.391 . S
C4347 H4329 0.941 . S
C4347 C4346 1.391 . S
C4347 C4348 1.396 . S
C4348 H4332 0.939 . S
C4348 C4347 1.396 . S
C4348 C4349 1.397 . S
C4349 C4348 1.397 . S
C4349 C4350 1.385 . S
C4350 H4333 0.940 . S
C4350 C4349 1.385 . S
C4350 C4351 1.388 . S
C4351 H4330 0.939 . S
C4351 C4346 1.391 . S
C4351 C4350 1.388 . S
P4352 O4363 1.490 . S
P4352 C4366 1.812 . S
P4352 C4372 1.803 . S
P4352 C4378 1.819 . S
H4353 C4367 0.941 . S
H4354 C4368 0.939 . S
H4355 C4370 0.940 . S
H4356 C4371 0.940 . S
H4357 C4373 0.939 . S
H4358 C4374 0.942 . S
H4359 C4376 0.940 . S
H4360 C4377 0.939 . S
H4361 C4379 0.941 . S
H4362 C4383 0.939 . S
O4363 P4352 1.490 . S
H4364 C4380 0.939 . S
H4365 C4382 0.940 . S
C4366 P4352 1.812 . S
C4366 C4367 1.389 . S
C4366 C4371 1.391 . S
C4367 H4353 0.941 . S
C4367 C4366 1.389 . S
C4367 C4368 1.397 . S
C4368 H4354 0.939 . S
C4368 C4367 1.397 . S
C4368 C4369 1.378 . S
C4369 C4368 1.378 . S
C4369 C4370 1.378 . S
C4370 H4355 0.940 . S
C4370 C4369 1.378 . S
C4370 C4371 1.396 . S
C4371 H4356 0.940 . S
C4371 C4366 1.391 . S
C4371 C4370 1.396 . S
C4372 P4352 1.803 . S
C4372 C4373 1.378 . S
C4372 C4377 1.400 . S
C4373 H4357 0.939 . S
C4373 C4372 1.378 . S
C4373 C4374 1.361 . S
C4374 H4358 0.942 . S
C4374 C4373 1.361 . S
C4374 C4375 1.369 . S
C4375 C4374 1.369 . S
C4375 C4376 1.404 . S
C4376 H4359 0.940 . S
C4376 C4375 1.404 . S
C4376 C4377 1.389 . S
C4377 H4360 0.939 . S
C4377 C4372 1.400 . S
C4377 C4376 1.389 . S
C4378 P4352 1.819 . S
C4378 C4379 1.391 . S
C4378 C4383 1.391 . S
C4379 H4361 0.941 . S
C4379 C4378 1.391 . S
C4379 C4380 1.396 . S
C4380 H4364 0.939 . S
C4380 C4379 1.396 . S
C4380 C4381 1.397 . S
C4381 C4380 1.397 . S
C4381 C4382 1.385 . S
C4382 H4365 0.940 . S
C4382 C4381 1.385 . S
C4382 C4383 1.388 . S
C4383 H4362 0.939 . S
C4383 C4378 1.391 . S
C4383 C4382 1.388 . S
P4384 O4395 1.490 . S
P4384 C4398 1.812 . S
P4384 C4404 1.803 . S
P4384 C4410 1.819 . S
H4385 C4399 0.941 . S
H4386 C4400 0.939 . S
H4387 C4402 0.940 . S
H4388 C4403 0.940 . S
H4389 C4405 0.939 . S
H4390 C4406 0.942 . S
H4391 C4408 0.940 . S
H4392 C4409 0.939 . S
H4393 C4411 0.941 . S
H4394 C4415 0.939 . S
O4395 P4384 1.490 . S
H4396 C4412 0.939 . S
H4397 C4414 0.940 . S
C4398 P4384 1.812 . S
C4398 C4399 1.389 . S
C4398 C4403 1.391 . S
C4399 H4385 0.941 . S
C4399 C4398 1.389 . S
C4399 C4400 1.397 . S
C4400 H4386 0.939 . S
C4400 C4399 1.397 . S
C4400 C4401 1.378 . S
C4401 C4400 1.378 . S
C4401 C4402 1.378 . S
C4402 H4387 0.940 . S
C4402 C4401 1.378 . S
C4402 C4403 1.396 . S
C4403 H4388 0.940 . S
C4403 C4398 1.391 . S
C4403 C4402 1.396 . S
C4404 P4384 1.803 . S
C4404 C4405 1.378 . S
C4404 C4409 1.400 . S
C4405 H4389 0.939 . S
C4405 C4404 1.378 . S
C4405 C4406 1.361 . S
C4406 H4390 0.942 . S
C4406 C4405 1.361 . S
C4406 C4407 1.369 . S
C4407 C4406 1.369 . S
C4407 C4408 1.404 . S
C4408 H4391 0.940 . S
C4408 C4407 1.404 . S
C4408 C4409 1.389 . S
C4409 H4392 0.939 . S
C4409 C4404 1.400 . S
C4409 C4408 1.389 . S
C4410 P4384 1.819 . S
C4410 C4411 1.391 . S
C4410 C4415 1.391 . S
C4411 H4393 0.941 . S
C4411 C4410 1.391 . S
C4411 C4412 1.396 . S
C4412 H4396 0.939 . S
C4412 C4411 1.396 . S
C4412 C4413 1.397 . S
C4413 C4412 1.397 . S
C4413 C4414 1.385 . S
C4414 H4397 0.940 . S
C4414 C4413 1.385 . S
C4414 C4415 1.388 . S
C4415 H4394 0.939 . S
C4415 C4410 1.391 . S
C4415 C4414 1.388 . S
P4416 O4427 1.490 . S
P4416 C4430 1.812 . S
P4416 C4436 1.803 . S
P4416 C4442 1.819 . S
H4417 C4431 0.941 . S
H4418 C4432 0.939 . S
H4419 C4434 0.940 . S
H4420 C4435 0.940 . S
H4421 C4437 0.939 . S
H4422 C4438 0.942 . S
H4423 C4440 0.940 . S
H4424 C4441 0.939 . S
H4425 C4443 0.941 . S
H4426 C4447 0.939 . S
O4427 P4416 1.490 . S
H4428 C4444 0.939 . S
H4429 C4446 0.940 . S
C4430 P4416 1.812 . S
C4430 C4431 1.389 . S
C4430 C4435 1.391 . S
C4431 H4417 0.941 . S
C4431 C4430 1.389 . S
C4431 C4432 1.397 . S
C4432 H4418 0.939 . S
C4432 C4431 1.397 . S
C4432 C4433 1.378 . S
C4433 C4432 1.378 . S
C4433 C4434 1.378 . S
C4434 H4419 0.940 . S
C4434 C4433 1.378 . S
C4434 C4435 1.396 . S
C4435 H4420 0.940 . S
C4435 C4430 1.391 . S
C4435 C4434 1.396 . S
C4436 P4416 1.803 . S
C4436 C4437 1.378 . S
C4436 C4441 1.400 . S
C4437 H4421 0.939 . S
C4437 C4436 1.378 . S
C4437 C4438 1.361 . S
C4438 H4422 0.942 . S
C4438 C4437 1.361 . S
C4438 C4439 1.369 . S
C4439 C4438 1.369 . S
C4439 C4440 1.404 . S
C4440 H4423 0.940 . S
C4440 C4439 1.404 . S
C4440 C4441 1.389 . S
C4441 H4424 0.939 . S
C4441 C4436 1.400 . S
C4441 C4440 1.389 . S
C4442 P4416 1.819 . S
C4442 C4443 1.391 . S
C4442 C4447 1.391 . S
C4443 H4425 0.941 . S
C4443 C4442 1.391 . S
C4443 C4444 1.396 . S
C4444 H4428 0.939 . S
C4444 C4443 1.396 . S
C4444 C4445 1.397 . S
C4445 C4444 1.397 . S
C4445 C4446 1.385 . S
C4446 H4429 0.940 . S
C4446 C4445 1.385 . S
C4446 C4447 1.388 . S
C4447 H4426 0.939 . S
C4447 C4442 1.391 . S
C4447 C4446 1.388 . S
P4448 O4459 1.490 . S
P4448 C4462 1.812 . S
P4448 C4468 1.803 . S
P4448 C4474 1.819 . S
H4449 C4463 0.941 . S
H4450 C4464 0.939 . S
H4451 C4466 0.940 . S
H4452 C4467 0.940 . S
H4453 C4469 0.939 . S
H4454 C4470 0.942 . S
H4455 C4472 0.940 . S
H4456 C4473 0.939 . S
H4457 C4475 0.941 . S
H4458 C4479 0.939 . S
O4459 P4448 1.490 . S
H4460 C4476 0.939 . S
H4461 C4478 0.940 . S
C4462 P4448 1.812 . S
C4462 C4463 1.389 . S
C4462 C4467 1.391 . S
C4463 H4449 0.941 . S
C4463 C4462 1.389 . S
C4463 C4464 1.397 . S
C4464 H4450 0.939 . S
C4464 C4463 1.397 . S
C4464 C4465 1.378 . S
C4465 C4464 1.378 . S
C4465 C4466 1.378 . S
C4466 H4451 0.940 . S
C4466 C4465 1.378 . S
C4466 C4467 1.396 . S
C4467 H4452 0.940 . S
C4467 C4462 1.391 . S
C4467 C4466 1.396 . S
C4468 P4448 1.803 . S
C4468 C4469 1.378 . S
C4468 C4473 1.400 . S
C4469 H4453 0.939 . S
C4469 C4468 1.378 . S
C4469 C4470 1.361 . S
C4470 H4454 0.942 . S
C4470 C4469 1.361 . S
C4470 C4471 1.369 . S
C4471 C4470 1.369 . S
C4471 C4472 1.404 . S
C4472 H4455 0.940 . S
C4472 C4471 1.404 . S
C4472 C4473 1.389 . S
C4473 H4456 0.939 . S
C4473 C4468 1.400 . S
C4473 C4472 1.389 . S
C4474 P4448 1.819 . S
C4474 C4475 1.391 . S
C4474 C4479 1.391 . S
C4475 H4457 0.941 . S
C4475 C4474 1.391 . S
C4475 C4476 1.396 . S
C4476 H4460 0.939 . S
C4476 C4475 1.396 . S
C4476 C4477 1.397 . S
C4477 C4476 1.397 . S
C4477 C4478 1.385 . S
C4478 H4461 0.940 . S
C4478 C4477 1.385 . S
C4478 C4479 1.388 . S
C4479 H4458 0.939 . S
C4479 C4474 1.391 . S
C4479 C4478 1.388 . S
P4480 O4491 1.490 . S
P4480 C4494 1.812 . S
P4480 C4500 1.803 . S
P4480 C4506 1.819 . S
H4481 C4495 0.941 . S
H4482 C4496 0.939 . S
H4483 C4498 0.940 . S
H4484 C4499 0.940 . S
H4485 C4501 0.939 . S
H4486 C4502 0.942 . S
H4487 C4504 0.940 . S
H4488 C4505 0.939 . S
H4489 C4507 0.941 . S
H4490 C4511 0.939 . S
O4491 P4480 1.490 . S
H4492 C4508 0.939 . S
H4493 C4510 0.940 . S
C4494 P4480 1.812 . S
C4494 C4495 1.389 . S
C4494 C4499 1.391 . S
C4495 H4481 0.941 . S
C4495 C4494 1.389 . S
C4495 C4496 1.397 . S
C4496 H4482 0.939 . S
C4496 C4495 1.397 . S
C4496 C4497 1.378 . S
C4497 C4496 1.378 . S
C4497 C4498 1.378 . S
C4498 H4483 0.940 . S
C4498 C4497 1.378 . S
C4498 C4499 1.396 . S
C4499 H4484 0.940 . S
C4499 C4494 1.391 . S
C4499 C4498 1.396 . S
C4500 P4480 1.803 . S
C4500 C4501 1.378 . S
C4500 C4505 1.400 . S
C4501 H4485 0.939 . S
C4501 C4500 1.378 . S
C4501 C4502 1.361 . S
C4502 H4486 0.942 . S
C4502 C4501 1.361 . S
C4502 C4503 1.369 . S
C4503 C4502 1.369 . S
C4503 C4504 1.404 . S
C4504 H4487 0.940 . S
C4504 C4503 1.404 . S
C4504 C4505 1.389 . S
C4505 H4488 0.939 . S
C4505 C4500 1.400 . S
C4505 C4504 1.389 . S
C4506 P4480 1.819 . S
C4506 C4507 1.391 . S
C4506 C4511 1.391 . S
C4507 H4489 0.941 . S
C4507 C4506 1.391 . S
C4507 C4508 1.396 . S
C4508 H4492 0.939 . S
C4508 C4507 1.396 . S
C4508 C4509 1.397 . S
C4509 C4508 1.397 . S
C4509 C4510 1.385 . S
C4510 H4493 0.940 . S
C4510 C4509 1.385 . S
C4510 C4511 1.388 . S
C4511 H4490 0.939 . S
C4511 C4506 1.391 . S
C4511 C4510 1.388 . S
P4512 O4523 1.490 . S
P4512 C4526 1.812 . S
P4512 C4532 1.803 . S
P4512 C4538 1.819 . S
H4513 C4527 0.941 . S
H4514 C4528 0.939 . S
H4515 C4530 0.940 . S
H4516 C4531 0.940 . S
H4517 C4533 0.939 . S
H4518 C4534 0.942 . S
H4519 C4536 0.940 . S
H4520 C4537 0.939 . S
H4521 C4539 0.941 . S
H4522 C4543 0.939 . S
O4523 P4512 1.490 . S
H4524 C4540 0.939 . S
H4525 C4542 0.940 . S
C4526 P4512 1.812 . S
C4526 C4527 1.389 . S
C4526 C4531 1.391 . S
C4527 H4513 0.941 . S
C4527 C4526 1.389 . S
C4527 C4528 1.397 . S
C4528 H4514 0.939 . S
C4528 C4527 1.397 . S
C4528 C4529 1.378 . S
C4529 C4528 1.378 . S
C4529 C4530 1.378 . S
C4530 H4515 0.940 . S
C4530 C4529 1.378 . S
C4530 C4531 1.396 . S
C4531 H4516 0.940 . S
C4531 C4526 1.391 . S
C4531 C4530 1.396 . S
C4532 P4512 1.803 . S
C4532 C4533 1.378 . S
C4532 C4537 1.400 . S
C4533 H4517 0.939 . S
C4533 C4532 1.378 . S
C4533 C4534 1.361 . S
C4534 H4518 0.942 . S
C4534 C4533 1.361 . S
C4534 C4535 1.369 . S
C4535 C4534 1.369 . S
C4535 C4536 1.404 . S
C4536 H4519 0.940 . S
C4536 C4535 1.404 . S
C4536 C4537 1.389 . S
C4537 H4520 0.939 . S
C4537 C4532 1.400 . S
C4537 C4536 1.389 . S
C4538 P4512 1.819 . S
C4538 C4539 1.391 . S
C4538 C4543 1.391 . S
C4539 H4521 0.941 . S
C4539 C4538 1.391 . S
C4539 C4540 1.396 . S
C4540 H4524 0.939 . S
C4540 C4539 1.396 . S
C4540 C4541 1.397 . S
C4541 C4540 1.397 . S
C4541 C4542 1.385 . S
C4542 H4525 0.940 . S
C4542 C4541 1.385 . S
C4542 C4543 1.388 . S
C4543 H4522 0.939 . S
C4543 C4538 1.391 . S
C4543 C4542 1.388 . S
P4544 O4555 1.490 . S
P4544 C4558 1.812 . S
P4544 C4564 1.803 . S
P4544 C4570 1.819 . S
H4545 C4559 0.941 . S
H4546 C4560 0.939 . S
H4547 C4562 0.940 . S
H4548 C4563 0.940 . S
H4549 C4565 0.939 . S
H4550 C4566 0.942 . S
H4551 C4568 0.940 . S
H4552 C4569 0.939 . S
H4553 C4571 0.941 . S
H4554 C4575 0.939 . S
O4555 P4544 1.490 . S
H4556 C4572 0.939 . S
H4557 C4574 0.940 . S
C4558 P4544 1.812 . S
C4558 C4559 1.389 . S
C4558 C4563 1.391 . S
C4559 H4545 0.941 . S
C4559 C4558 1.389 . S
C4559 C4560 1.397 . S
C4560 H4546 0.939 . S
C4560 C4559 1.397 . S
C4560 C4561 1.378 . S
C4561 C4560 1.378 . S
C4561 C4562 1.378 . S
C4562 H4547 0.940 . S
C4562 C4561 1.378 . S
C4562 C4563 1.396 . S
C4563 H4548 0.940 . S
C4563 C4558 1.391 . S
C4563 C4562 1.396 . S
C4564 P4544 1.803 . S
C4564 C4565 1.378 . S
C4564 C4569 1.400 . S
C4565 H4549 0.939 . S
C4565 C4564 1.378 . S
C4565 C4566 1.361 . S
C4566 H4550 0.942 . S
C4566 C4565 1.361 . S
C4566 C4567 1.369 . S
C4567 C4566 1.369 . S
C4567 C4568 1.404 . S
C4568 H4551 0.940 . S
C4568 C4567 1.404 . S
C4568 C4569 1.389 . S
C4569 H4552 0.939 . S
C4569 C4564 1.400 . S
C4569 C4568 1.389 . S
C4570 P4544 1.819 . S
C4570 C4571 1.391 . S
C4570 C4575 1.391 . S
C4571 H4553 0.941 . S
C4571 C4570 1.391 . S
C4571 C4572 1.396 . S
C4572 H4556 0.939 . S
C4572 C4571 1.396 . S
C4572 C4573 1.397 . S
C4573 C4572 1.397 . S
C4573 C4574 1.385 . S
C4574 H4557 0.940 . S
C4574 C4573 1.385 . S
C4574 C4575 1.388 . S
C4575 H4554 0.939 . S
C4575 C4570 1.391 . S
C4575 C4574 1.388 . S
P4576 O4587 1.490 . S
P4576 C4590 1.812 . S
P4576 C4596 1.803 . S
P4576 C4602 1.819 . S
H4577 C4591 0.941 . S
H4578 C4592 0.939 . S
H4579 C4594 0.940 . S
H4580 C4595 0.940 . S
H4581 C4597 0.939 . S
H4582 C4598 0.942 . S
H4583 C4600 0.940 . S
H4584 C4601 0.939 . S
H4585 C4603 0.941 . S
H4586 C4607 0.939 . S
O4587 P4576 1.490 . S
H4588 C4604 0.939 . S
H4589 C4606 0.940 . S
C4590 P4576 1.812 . S
C4590 C4591 1.389 . S
C4590 C4595 1.391 . S
C4591 H4577 0.941 . S
C4591 C4590 1.389 . S
C4591 C4592 1.397 . S
C4592 H4578 0.939 . S
C4592 C4591 1.397 . S
C4592 C4593 1.378 . S
C4593 C4592 1.378 . S
C4593 C4594 1.378 . S
C4594 H4579 0.940 . S
C4594 C4593 1.378 . S
C4594 C4595 1.396 . S
C4595 H4580 0.940 . S
C4595 C4590 1.391 . S
C4595 C4594 1.396 . S
C4596 P4576 1.803 . S
C4596 C4597 1.378 . S
C4596 C4601 1.400 . S
C4597 H4581 0.939 . S
C4597 C4596 1.378 . S
C4597 C4598 1.361 . S
C4598 H4582 0.942 . S
C4598 C4597 1.361 . S
C4598 C4599 1.369 . S
C4599 C4598 1.369 . S
C4599 C4600 1.404 . S
C4600 H4583 0.940 . S
C4600 C4599 1.404 . S
C4600 C4601 1.389 . S
C4601 H4584 0.939 . S
C4601 C4596 1.400 . S
C4601 C4600 1.389 . S
C4602 P4576 1.819 . S
C4602 C4603 1.391 . S
C4602 C4607 1.391 . S
C4603 H4585 0.941 . S
C4603 C4602 1.391 . S
C4603 C4604 1.396 . S
C4604 H4588 0.939 . S
C4604 C4603 1.396 . S
C4604 C4605 1.397 . S
C4605 C4604 1.397 . S
C4605 C4606 1.385 . S
C4606 H4589 0.940 . S
C4606 C4605 1.385 . S
C4606 C4607 1.388 . S
C4607 H4586 0.939 . S
C4607 C4602 1.391 . S
C4607 C4606 1.388 . S
P4608 O4619 1.490 . S
P4608 C4622 1.812 . S
P4608 C4628 1.803 . S
P4608 C4634 1.819 . S
H4609 C4623 0.941 . S
H4610 C4624 0.939 . S
H4611 C4626 0.940 . S
H4612 C4627 0.940 . S
H4613 C4629 0.939 . S
H4614 C4630 0.942 . S
H4615 C4632 0.940 . S
H4616 C4633 0.939 . S
H4617 C4635 0.941 . S
H4618 C4639 0.939 . S
O4619 P4608 1.490 . S
H4620 C4636 0.939 . S
H4621 C4638 0.940 . S
C4622 P4608 1.812 . S
C4622 C4623 1.389 . S
C4622 C4627 1.391 . S
C4623 H4609 0.941 . S
C4623 C4622 1.389 . S
C4623 C4624 1.397 . S
C4624 H4610 0.939 . S
C4624 C4623 1.397 . S
C4624 C4625 1.378 . S
C4625 C4624 1.378 . S
C4625 C4626 1.378 . S
C4626 H4611 0.940 . S
C4626 C4625 1.378 . S
C4626 C4627 1.396 . S
C4627 H4612 0.940 . S
C4627 C4622 1.391 . S
C4627 C4626 1.396 . S
C4628 P4608 1.803 . S
C4628 C4629 1.378 . S
C4628 C4633 1.400 . S
C4629 H4613 0.939 . S
C4629 C4628 1.378 . S
C4629 C4630 1.361 . S
C4630 H4614 0.942 . S
C4630 C4629 1.361 . S
C4630 C4631 1.369 . S
C4631 C4630 1.369 . S
C4631 C4632 1.404 . S
C4632 H4615 0.940 . S
C4632 C4631 1.404 . S
C4632 C4633 1.389 . S
C4633 H4616 0.939 . S
C4633 C4628 1.400 . S
C4633 C4632 1.389 . S
C4634 P4608 1.819 . S
C4634 C4635 1.391 . S
C4634 C4639 1.391 . S
C4635 H4617 0.941 . S
C4635 C4634 1.391 . S
C4635 C4636 1.396 . S
C4636 H4620 0.939 . S
C4636 C4635 1.396 . S
C4636 C4637 1.397 . S
C4637 C4636 1.397 . S
C4637 C4638 1.385 . S
C4638 H4621 0.940 . S
C4638 C4637 1.385 . S
C4638 C4639 1.388 . S
C4639 H4618 0.939 . S
C4639 C4634 1.391 . S
C4639 C4638 1.388 . S
P4640 O4651 1.490 . S
P4640 C4654 1.812 . S
P4640 C4660 1.803 . S
P4640 C4666 1.819 . S
H4641 C4655 0.941 . S
H4642 C4656 0.939 . S
H4643 C4658 0.940 . S
H4644 C4659 0.940 . S
H4645 C4661 0.939 . S
H4646 C4662 0.942 . S
H4647 C4664 0.940 . S
H4648 C4665 0.939 . S
H4649 C4667 0.941 . S
H4650 C4671 0.939 . S
O4651 P4640 1.490 . S
H4652 C4668 0.939 . S
H4653 C4670 0.940 . S
C4654 P4640 1.812 . S
C4654 C4655 1.389 . S
C4654 C4659 1.391 . S
C4655 H4641 0.941 . S
C4655 C4654 1.389 . S
C4655 C4656 1.397 . S
C4656 H4642 0.939 . S
C4656 C4655 1.397 . S
C4656 C4657 1.378 . S
C4657 C4656 1.378 . S
C4657 C4658 1.378 . S
C4658 H4643 0.940 . S
C4658 C4657 1.378 . S
C4658 C4659 1.396 . S
C4659 H4644 0.940 . S
C4659 C4654 1.391 . S
C4659 C4658 1.396 . S
C4660 P4640 1.803 . S
C4660 C4661 1.378 . S
C4660 C4665 1.400 . S
C4661 H4645 0.939 . S
C4661 C4660 1.378 . S
C4661 C4662 1.361 . S
C4662 H4646 0.942 . S
C4662 C4661 1.361 . S
C4662 C4663 1.369 . S
C4663 C4662 1.369 . S
C4663 C4664 1.404 . S
C4664 H4647 0.940 . S
C4664 C4663 1.404 . S
C4664 C4665 1.389 . S
C4665 H4648 0.939 . S
C4665 C4660 1.400 . S
C4665 C4664 1.389 . S
C4666 P4640 1.819 . S
C4666 C4667 1.391 . S
C4666 C4671 1.391 . S
C4667 H4649 0.941 . S
C4667 C4666 1.391 . S
C4667 C4668 1.396 . S
C4668 H4652 0.939 . S
C4668 C4667 1.396 . S
C4668 C4669 1.397 . S
C4669 C4668 1.397 . S
C4669 C4670 1.385 . S
C4670 H4653 0.940 . S
C4670 C4669 1.385 . S
C4670 C4671 1.388 . S
C4671 H4650 0.939 . S
C4671 C4666 1.391 . S
C4671 C4670 1.388 . S
P4672 O4683 1.490 . S
P4672 C4686 1.812 . S
P4672 C4692 1.803 . S
P4672 C4698 1.819 . S
H4673 C4687 0.941 . S
H4674 C4688 0.939 . S
H4675 C4690 0.940 . S
H4676 C4691 0.940 . S
H4677 C4693 0.939 . S
H4678 C4694 0.942 . S
H4679 C4696 0.940 . S
H4680 C4697 0.939 . S
H4681 C4699 0.941 . S
H4682 C4703 0.939 . S
O4683 P4672 1.490 . S
H4684 C4700 0.939 . S
H4685 C4702 0.940 . S
C4686 P4672 1.812 . S
C4686 C4687 1.389 . S
C4686 C4691 1.391 . S
C4687 H4673 0.941 . S
C4687 C4686 1.389 . S
C4687 C4688 1.397 . S
C4688 H4674 0.939 . S
C4688 C4687 1.397 . S
C4688 C4689 1.378 . S
C4689 C4688 1.378 . S
C4689 C4690 1.378 . S
C4690 H4675 0.940 . S
C4690 C4689 1.378 . S
C4690 C4691 1.396 . S
C4691 H4676 0.940 . S
C4691 C4686 1.391 . S
C4691 C4690 1.396 . S
C4692 P4672 1.803 . S
C4692 C4693 1.378 . S
C4692 C4697 1.400 . S
C4693 H4677 0.939 . S
C4693 C4692 1.378 . S
C4693 C4694 1.361 . S
C4694 H4678 0.942 . S
C4694 C4693 1.361 . S
C4694 C4695 1.369 . S
C4695 C4694 1.369 . S
C4695 C4696 1.404 . S
C4696 H4679 0.940 . S
C4696 C4695 1.404 . S
C4696 C4697 1.389 . S
C4697 H4680 0.939 . S
C4697 C4692 1.400 . S
C4697 C4696 1.389 . S
C4698 P4672 1.819 . S
C4698 C4699 1.391 . S
C4698 C4703 1.391 . S
C4699 H4681 0.941 . S
C4699 C4698 1.391 . S
C4699 C4700 1.396 . S
C4700 H4684 0.939 . S
C4700 C4699 1.396 . S
C4700 C4701 1.397 . S
C4701 C4700 1.397 . S
C4701 C4702 1.385 . S
C4702 H4685 0.940 . S
C4702 C4701 1.385 . S
C4702 C4703 1.388 . S
C4703 H4682 0.939 . S
C4703 C4698 1.391 . S
C4703 C4702 1.388 . S
P4704 O4715 1.490 . S
P4704 C4718 1.812 . S
P4704 C4724 1.803 . S
P4704 C4730 1.819 . S
H4705 C4719 0.941 . S
H4706 C4720 0.939 . S
H4707 C4722 0.940 . S
H4708 C4723 0.940 . S
H4709 C4725 0.939 . S
H4710 C4726 0.942 . S
H4711 C4728 0.940 . S
H4712 C4729 0.939 . S
H4713 C4731 0.941 . S
H4714 C4735 0.939 . S
O4715 P4704 1.490 . S
H4716 C4732 0.939 . S
H4717 C4734 0.940 . S
C4718 P4704 1.812 . S
C4718 C4719 1.389 . S
C4718 C4723 1.391 . S
C4719 H4705 0.941 . S
C4719 C4718 1.389 . S
C4719 C4720 1.397 . S
C4720 H4706 0.939 . S
C4720 C4719 1.397 . S
C4720 C4721 1.378 . S
C4721 C4720 1.378 . S
C4721 C4722 1.378 . S
C4722 H4707 0.940 . S
C4722 C4721 1.378 . S
C4722 C4723 1.396 . S
C4723 H4708 0.940 . S
C4723 C4718 1.391 . S
C4723 C4722 1.396 . S
C4724 P4704 1.803 . S
C4724 C4725 1.378 . S
C4724 C4729 1.400 . S
C4725 H4709 0.939 . S
C4725 C4724 1.378 . S
C4725 C4726 1.361 . S
C4726 H4710 0.942 . S
C4726 C4725 1.361 . S
C4726 C4727 1.369 . S
C4727 C4726 1.369 . S
C4727 C4728 1.404 . S
C4728 H4711 0.940 . S
C4728 C4727 1.404 . S
C4728 C4729 1.389 . S
C4729 H4712 0.939 . S
C4729 C4724 1.400 . S
C4729 C4728 1.389 . S
C4730 P4704 1.819 . S
C4730 C4731 1.391 . S
C4730 C4735 1.391 . S
C4731 H4713 0.941 . S
C4731 C4730 1.391 . S
C4731 C4732 1.396 . S
C4732 H4716 0.939 . S
C4732 C4731 1.396 . S
C4732 C4733 1.397 . S
C4733 C4732 1.397 . S
C4733 C4734 1.385 . S
C4734 H4717 0.940 . S
C4734 C4733 1.385 . S
C4734 C4735 1.388 . S
C4735 H4714 0.939 . S
C4735 C4730 1.391 . S
C4735 C4734 1.388 . S
P4736 O4747 1.490 . S
P4736 C4750 1.812 . S
P4736 C4756 1.803 . S
P4736 C4762 1.819 . S
H4737 C4751 0.941 . S
H4738 C4752 0.939 . S
H4739 C4754 0.940 . S
H4740 C4755 0.940 . S
H4741 C4757 0.939 . S
H4742 C4758 0.942 . S
H4743 C4760 0.940 . S
H4744 C4761 0.939 . S
H4745 C4763 0.941 . S
H4746 C4767 0.939 . S
O4747 P4736 1.490 . S
H4748 C4764 0.939 . S
H4749 C4766 0.940 . S
C4750 P4736 1.812 . S
C4750 C4751 1.389 . S
C4750 C4755 1.391 . S
C4751 H4737 0.941 . S
C4751 C4750 1.389 . S
C4751 C4752 1.397 . S
C4752 H4738 0.939 . S
C4752 C4751 1.397 . S
C4752 C4753 1.378 . S
C4753 C4752 1.378 . S
C4753 C4754 1.378 . S
C4754 H4739 0.940 . S
C4754 C4753 1.378 . S
C4754 C4755 1.396 . S
C4755 H4740 0.940 . S
C4755 C4750 1.391 . S
C4755 C4754 1.396 . S
C4756 P4736 1.803 . S
C4756 C4757 1.378 . S
C4756 C4761 1.400 . S
C4757 H4741 0.939 . S
C4757 C4756 1.378 . S
C4757 C4758 1.361 . S
C4758 H4742 0.942 . S
C4758 C4757 1.361 . S
C4758 C4759 1.369 . S
C4759 C4758 1.369 . S
C4759 C4760 1.404 . S
C4760 H4743 0.940 . S
C4760 C4759 1.404 . S
C4760 C4761 1.389 . S
C4761 H4744 0.939 . S
C4761 C4756 1.400 . S
C4761 C4760 1.389 . S
C4762 P4736 1.819 . S
C4762 C4763 1.391 . S
C4762 C4767 1.391 . S
C4763 H4745 0.941 . S
C4763 C4762 1.391 . S
C4763 C4764 1.396 . S
C4764 H4748 0.939 . S
C4764 C4763 1.396 . S
C4764 C4765 1.397 . S
C4765 C4764 1.397 . S
C4765 C4766 1.385 . S
C4766 H4749 0.940 . S
C4766 C4765 1.385 . S
C4766 C4767 1.388 . S
C4767 H4746 0.939 . S
C4767 C4762 1.391 . S
C4767 C4766 1.388 . S
P4768 O4779 1.490 . S
P4768 C4782 1.812 . S
P4768 C4788 1.803 . S
P4768 C4794 1.819 . S
H4769 C4783 0.941 . S
H4770 C4784 0.939 . S
H4771 C4786 0.940 . S
H4772 C4787 0.940 . S
H4773 C4789 0.939 . S
H4774 C4790 0.942 . S
H4775 C4792 0.940 . S
H4776 C4793 0.939 . S
H4777 C4795 0.941 . S
H4778 C4799 0.939 . S
O4779 P4768 1.490 . S
H4780 C4796 0.939 . S
H4781 C4798 0.940 . S
C4782 P4768 1.812 . S
C4782 C4783 1.389 . S
C4782 C4787 1.391 . S
C4783 H4769 0.941 . S
C4783 C4782 1.389 . S
C4783 C4784 1.397 . S
C4784 H4770 0.939 . S
C4784 C4783 1.397 . S
C4784 C4785 1.378 . S
C4785 C4784 1.378 . S
C4785 C4786 1.378 . S
C4786 H4771 0.940 . S
C4786 C4785 1.378 . S
C4786 C4787 1.396 . S
C4787 H4772 0.940 . S
C4787 C4782 1.391 . S
C4787 C4786 1.396 . S
C4788 P4768 1.803 . S
C4788 C4789 1.378 . S
C4788 C4793 1.400 . S
C4789 H4773 0.939 . S
C4789 C4788 1.378 . S
C4789 C4790 1.361 . S
C4790 H4774 0.942 . S
C4790 C4789 1.361 . S
C4790 C4791 1.369 . S
C4791 C4790 1.369 . S
C4791 C4792 1.404 . S
C4792 H4775 0.940 . S
C4792 C4791 1.404 . S
C4792 C4793 1.389 . S
C4793 H4776 0.939 . S
C4793 C4788 1.400 . S
C4793 C4792 1.389 . S
C4794 P4768 1.819 . S
C4794 C4795 1.391 . S
C4794 C4799 1.391 . S
C4795 H4777 0.941 . S
C4795 C4794 1.391 . S
C4795 C4796 1.396 . S
C4796 H4780 0.939 . S
C4796 C4795 1.396 . S
C4796 C4797 1.397 . S
C4797 C4796 1.397 . S
C4797 C4798 1.385 . S
C4798 H4781 0.940 . S
C4798 C4797 1.385 . S
C4798 C4799 1.388 . S
C4799 H4778 0.939 . S
C4799 C4794 1.391 . S
C4799 C4798 1.388 . S
P4800 O4811 1.490 . S
P4800 C4814 1.812 . S
P4800 C4820 1.803 . S
P4800 C4826 1.819 . S
H4801 C4815 0.941 . S
H4802 C4816 0.939 . S
H4803 C4818 0.940 . S
H4804 C4819 0.940 . S
H4805 C4821 0.939 . S
H4806 C4822 0.942 . S
H4807 C4824 0.940 . S
H4808 C4825 0.939 . S
H4809 C4827 0.941 . S
H4810 C4831 0.939 . S
O4811 P4800 1.490 . S
H4812 C4828 0.939 . S
H4813 C4830 0.940 . S
C4814 P4800 1.812 . S
C4814 C4815 1.389 . S
C4814 C4819 1.391 . S
C4815 H4801 0.941 . S
C4815 C4814 1.389 . S
C4815 C4816 1.397 . S
C4816 H4802 0.939 . S
C4816 C4815 1.397 . S
C4816 C4817 1.378 . S
C4817 C4816 1.378 . S
C4817 C4818 1.378 . S
C4818 H4803 0.940 . S
C4818 C4817 1.378 . S
C4818 C4819 1.396 . S
C4819 H4804 0.940 . S
C4819 C4814 1.391 . S
C4819 C4818 1.396 . S
C4820 P4800 1.803 . S
C4820 C4821 1.378 . S
C4820 C4825 1.400 . S
C4821 H4805 0.939 . S
C4821 C4820 1.378 . S
C4821 C4822 1.361 . S
C4822 H4806 0.942 . S
C4822 C4821 1.361 . S
C4822 C4823 1.369 . S
C4823 C4822 1.369 . S
C4823 C4824 1.404 . S
C4824 H4807 0.940 . S
C4824 C4823 1.404 . S
C4824 C4825 1.389 . S
C4825 H4808 0.939 . S
C4825 C4820 1.400 . S
C4825 C4824 1.389 . S
C4826 P4800 1.819 . S
C4826 C4827 1.391 . S
C4826 C4831 1.391 . S
C4827 H4809 0.941 . S
C4827 C4826 1.391 . S
C4827 C4828 1.396 . S
C4828 H4812 0.939 . S
C4828 C4827 1.396 . S
C4828 C4829 1.397 . S
C4829 C4828 1.397 . S
C4829 C4830 1.385 . S
C4830 H4813 0.940 . S
C4830 C4829 1.385 . S
C4830 C4831 1.388 . S
C4831 H4810 0.939 . S
C4831 C4826 1.391 . S
C4831 C4830 1.388 . S
P4832 O4843 1.490 . S
P4832 C4846 1.812 . S
P4832 C4852 1.803 . S
P4832 C4858 1.819 . S
H4833 C4847 0.941 . S
H4834 C4848 0.939 . S
H4835 C4850 0.940 . S
H4836 C4851 0.940 . S
H4837 C4853 0.939 . S
H4838 C4854 0.942 . S
H4839 C4856 0.940 . S
H4840 C4857 0.939 . S
H4841 C4859 0.941 . S
H4842 C4863 0.939 . S
O4843 P4832 1.490 . S
H4844 C4860 0.939 . S
H4845 C4862 0.940 . S
C4846 P4832 1.812 . S
C4846 C4847 1.389 . S
C4846 C4851 1.391 . S
C4847 H4833 0.941 . S
C4847 C4846 1.389 . S
C4847 C4848 1.397 . S
C4848 H4834 0.939 . S
C4848 C4847 1.397 . S
C4848 C4849 1.378 . S
C4849 C4848 1.378 . S
C4849 C4850 1.378 . S
C4850 H4835 0.940 . S
C4850 C4849 1.378 . S
C4850 C4851 1.396 . S
C4851 H4836 0.940 . S
C4851 C4846 1.391 . S
C4851 C4850 1.396 . S
C4852 P4832 1.803 . S
C4852 C4853 1.378 . S
C4852 C4857 1.400 . S
C4853 H4837 0.939 . S
C4853 C4852 1.378 . S
C4853 C4854 1.361 . S
C4854 H4838 0.942 . S
C4854 C4853 1.361 . S
C4854 C4855 1.369 . S
C4855 C4854 1.369 . S
C4855 C4856 1.404 . S
C4856 H4839 0.940 . S
C4856 C4855 1.404 . S
C4856 C4857 1.389 . S
C4857 H4840 0.939 . S
C4857 C4852 1.400 . S
C4857 C4856 1.389 . S
C4858 P4832 1.819 . S
C4858 C4859 1.391 . S
C4858 C4863 1.391 . S
C4859 H4841 0.941 . S
C4859 C4858 1.391 . S
C4859 C4860 1.396 . S
C4860 H4844 0.939 . S
C4860 C4859 1.396 . S
C4860 C4861 1.397 . S
C4861 C4860 1.397 . S
C4861 C4862 1.385 . S
C4862 H4845 0.940 . S
C4862 C4861 1.385 . S
C4862 C4863 1.388 . S
C4863 H4842 0.939 . S
C4863 C4858 1.391 . S
C4863 C4862 1.388 . S
P4864 O4875 1.490 . S
P4864 C4878 1.812 . S
P4864 C4884 1.803 . S
P4864 C4890 1.819 . S
H4865 C4879 0.941 . S
H4866 C4880 0.939 . S
H4867 C4882 0.940 . S
H4868 C4883 0.940 . S
H4869 C4885 0.939 . S
H4870 C4886 0.942 . S
H4871 C4888 0.940 . S
H4872 C4889 0.939 . S
H4873 C4891 0.941 . S
H4874 C4895 0.939 . S
O4875 P4864 1.490 . S
H4876 C4892 0.939 . S
H4877 C4894 0.940 . S
C4878 P4864 1.812 . S
C4878 C4879 1.389 . S
C4878 C4883 1.391 . S
C4879 H4865 0.941 . S
C4879 C4878 1.389 . S
C4879 C4880 1.397 . S
C4880 H4866 0.939 . S
C4880 C4879 1.397 . S
C4880 C4881 1.378 . S
C4881 C4880 1.378 . S
C4881 C4882 1.378 . S
C4882 H4867 0.940 . S
C4882 C4881 1.378 . S
C4882 C4883 1.396 . S
C4883 H4868 0.940 . S
C4883 C4878 1.391 . S
C4883 C4882 1.396 . S
C4884 P4864 1.803 . S
C4884 C4885 1.378 . S
C4884 C4889 1.400 . S
C4885 H4869 0.939 . S
C4885 C4884 1.378 . S
C4885 C4886 1.361 . S
C4886 H4870 0.942 . S
C4886 C4885 1.361 . S
C4886 C4887 1.369 . S
C4887 C4886 1.369 . S
C4887 C4888 1.404 . S
C4888 H4871 0.940 . S
C4888 C4887 1.404 . S
C4888 C4889 1.389 . S
C4889 H4872 0.939 . S
C4889 C4884 1.400 . S
C4889 C4888 1.389 . S
C4890 P4864 1.819 . S
C4890 C4891 1.391 . S
C4890 C4895 1.391 . S
C4891 H4873 0.941 . S
C4891 C4890 1.391 . S
C4891 C4892 1.396 . S
C4892 H4876 0.939 . S
C4892 C4891 1.396 . S
C4892 C4893 1.397 . S
C4893 C4892 1.397 . S
C4893 C4894 1.385 . S
C4894 H4877 0.940 . S
C4894 C4893 1.385 . S
C4894 C4895 1.388 . S
C4895 H4874 0.939 . S
C4895 C4890 1.391 . S
C4895 C4894 1.388 . S
P4896 O4907 1.490 . S
P4896 C4910 1.812 . S
P4896 C4916 1.803 . S
P4896 C4922 1.819 . S
H4897 C4911 0.941 . S
H4898 C4912 0.939 . S
H4899 C4914 0.940 . S
H4900 C4915 0.940 . S
H4901 C4917 0.939 . S
H4902 C4918 0.942 . S
H4903 C4920 0.940 . S
H4904 C4921 0.939 . S
H4905 C4923 0.941 . S
H4906 C4927 0.939 . S
O4907 P4896 1.490 . S
H4908 C4924 0.939 . S
H4909 C4926 0.940 . S
C4910 P4896 1.812 . S
C4910 C4911 1.389 . S
C4910 C4915 1.391 . S
C4911 H4897 0.941 . S
C4911 C4910 1.389 . S
C4911 C4912 1.397 . S
C4912 H4898 0.939 . S
C4912 C4911 1.397 . S
C4912 C4913 1.378 . S
C4913 C4912 1.378 . S
C4913 C4914 1.378 . S
C4914 H4899 0.940 . S
C4914 C4913 1.378 . S
C4914 C4915 1.396 . S
C4915 H4900 0.940 . S
C4915 C4910 1.391 . S
C4915 C4914 1.396 . S
C4916 P4896 1.803 . S
C4916 C4917 1.378 . S
C4916 C4921 1.400 . S
C4917 H4901 0.939 . S
C4917 C4916 1.378 . S
C4917 C4918 1.361 . S
C4918 H4902 0.942 . S
C4918 C4917 1.361 . S
C4918 C4919 1.369 . S
C4919 C4918 1.369 . S
C4919 C4920 1.404 . S
C4920 H4903 0.940 . S
C4920 C4919 1.404 . S
C4920 C4921 1.389 . S
C4921 H4904 0.939 . S
C4921 C4916 1.400 . S
C4921 C4920 1.389 . S
C4922 P4896 1.819 . S
C4922 C4923 1.391 . S
C4922 C4927 1.391 . S
C4923 H4905 0.941 . S
C4923 C4922 1.391 . S
C4923 C4924 1.396 . S
C4924 H4908 0.939 . S
C4924 C4923 1.396 . S
C4924 C4925 1.397 . S
C4925 C4924 1.397 . S
C4925 C4926 1.385 . S
C4926 H4909 0.940 . S
C4926 C4925 1.385 . S
C4926 C4927 1.388 . S
C4927 H4906 0.939 . S
C4927 C4922 1.391 . S
C4927 C4926 1.388 . S
P4928 O4939 1.490 . S
P4928 C4942 1.812 . S
P4928 C4948 1.803 . S
P4928 C4954 1.819 . S
H4929 C4943 0.941 . S
H4930 C4944 0.939 . S
H4931 C4946 0.940 . S
H4932 C4947 0.940 . S
H4933 C4949 0.939 . S
H4934 C4950 0.942 . S
H4935 C4952 0.940 . S
H4936 C4953 0.939 . S
H4937 C4955 0.941 . S
H4938 C4959 0.939 . S
O4939 P4928 1.490 . S
H4940 C4956 0.939 . S
H4941 C4958 0.940 . S
C4942 P4928 1.812 . S
C4942 C4943 1.389 . S
C4942 C4947 1.391 . S
C4943 H4929 0.941 . S
C4943 C4942 1.389 . S
C4943 C4944 1.397 . S
C4944 H4930 0.939 . S
C4944 C4943 1.397 . S
C4944 C4945 1.378 . S
C4945 C4944 1.378 . S
C4945 C4946 1.378 . S
C4946 H4931 0.940 . S
C4946 C4945 1.378 . S
C4946 C4947 1.396 . S
C4947 H4932 0.940 . S
C4947 C4942 1.391 . S
C4947 C4946 1.396 . S
C4948 P4928 1.803 . S
C4948 C4949 1.378 . S
C4948 C4953 1.400 . S
C4949 H4933 0.939 . S
C4949 C4948 1.378 . S
C4949 C4950 1.361 . S
C4950 H4934 0.942 . S
C4950 C4949 1.361 . S
C4950 C4951 1.369 . S
C4951 C4950 1.369 . S
C4951 C4952 1.404 . S
C4952 H4935 0.940 . S
C4952 C4951 1.404 . S
C4952 C4953 1.389 . S
C4953 H4936 0.939 . S
C4953 C4948 1.400 . S
C4953 C4952 1.389 . S
C4954 P4928 1.819 . S
C4954 C4955 1.391 . S
C4954 C4959 1.391 . S
C4955 H4937 0.941 . S
C4955 C4954 1.391 . S
C4955 C4956 1.396 . S
C4956 H4940 0.939 . S
C4956 C4955 1.396 . S
C4956 C4957 1.397 . S
C4957 C4956 1.397 . S
C4957 C4958 1.385 . S
C4958 H4941 0.940 . S
C4958 C4957 1.385 . S
C4958 C4959 1.388 . S
C4959 H4938 0.939 . S
C4959 C4954 1.391 . S
C4959 C4958 1.388 . S
P4960 O4971 1.490 . S
P4960 C4974 1.812 . S
P4960 C4980 1.803 . S
P4960 C4986 1.819 . S
H4961 C4975 0.941 . S
H4962 C4976 0.939 . S
H4963 C4978 0.940 . S
H4964 C4979 0.940 . S
H4965 C4981 0.939 . S
H4966 C4982 0.942 . S
H4967 C4984 0.940 . S
H4968 C4985 0.939 . S
H4969 C4987 0.941 . S
H4970 C4991 0.939 . S
O4971 P4960 1.490 . S
H4972 C4988 0.939 . S
H4973 C4990 0.940 . S
C4974 P4960 1.812 . S
C4974 C4975 1.389 . S
C4974 C4979 1.391 . S
C4975 H4961 0.941 . S
C4975 C4974 1.389 . S
C4975 C4976 1.397 . S
C4976 H4962 0.939 . S
C4976 C4975 1.397 . S
C4976 C4977 1.378 . S
C4977 C4976 1.378 . S
C4977 C4978 1.378 . S
C4978 H4963 0.940 . S
C4978 C4977 1.378 . S
C4978 C4979 1.396 . S
C4979 H4964 0.940 . S
C4979 C4974 1.391 . S
C4979 C4978 1.396 . S
C4980 P4960 1.803 . S
C4980 C4981 1.378 . S
C4980 C4985 1.400 . S
C4981 H4965 0.939 . S
C4981 C4980 1.378 . S
C4981 C4982 1.361 . S
C4982 H4966 0.942 . S
C4982 C4981 1.361 . S
C4982 C4983 1.369 . S
C4983 C4982 1.369 . S
C4983 C4984 1.404 . S
C4984 H4967 0.940 . S
C4984 C4983 1.404 . S
C4984 C4985 1.389 . S
C4985 H4968 0.939 . S
C4985 C4980 1.400 . S
C4985 C4984 1.389 . S
C4986 P4960 1.819 . S
C4986 C4987 1.391 . S
C4986 C4991 1.391 . S
C4987 H4969 0.941 . S
C4987 C4986 1.391 . S
C4987 C4988 1.396 . S
C4988 H4972 0.939 . S
C4988 C4987 1.396 . S
C4988 C4989 1.397 . S
C4989 C4988 1.397 . S
C4989 C4990 1.385 . S
C4990 H4973 0.940 . S
C4990 C4989 1.385 . S
C4990 C4991 1.388 . S
C4991 H4970 0.939 . S
C4991 C4986 1.391 . S
C4991 C4990 1.388 . S
P4992 O5003 1.490 . S
P4992 C5006 1.812 . S
P4992 C5012 1.803 . S
P4992 C5018 1.819 . S
H4993 C5007 0.941 . S
H4994 C5008 0.939 . S
H4995 C5010 0.940 . S
H4996 C5011 0.940 . S
H4997 C5013 0.939 . S
H4998 C5014 0.942 . S
H4999 C5016 0.940 . S
H5000 C5017 0.939 . S
H5001 C5019 0.941 . S
H5002 C5023 0.939 . S
O5003 P4992 1.490 . S
H5004 C5020 0.939 . S
H5005 C5022 0.940 . S
C5006 P4992 1.812 . S
C5006 C5007 1.389 . S
C5006 C5011 1.391 . S
C5007 H4993 0.941 . S
C5007 C5006 1.389 . S
C5007 C5008 1.397 . S
C5008 H4994 0.939 . S
C5008 C5007 1.397 . S
C5008 C5009 1.378 . S
C5009 C5008 1.378 . S
C5009 C5010 1.378 . S
C5010 H4995 0.940 . S
C5010 C5009 1.378 . S
C5010 C5011 1.396 . S
C5011 H4996 0.940 . S
C5011 C5006 1.391 . S
C5011 C5010 1.396 . S
C5012 P4992 1.803 . S
C5012 C5013 1.378 . S
C5012 C5017 1.400 . S
C5013 H4997 0.939 . S
C5013 C5012 1.378 . S
C5013 C5014 1.361 . S
C5014 H4998 0.942 . S
C5014 C5013 1.361 . S
C5014 C5015 1.369 . S
C5015 C5014 1.369 . S
C5015 C5016 1.404 . S
C5016 H4999 0.940 . S
C5016 C5015 1.404 . S
C5016 C5017 1.389 . S
C5017 H5000 0.939 . S
C5017 C5012 1.400 . S
C5017 C5016 1.389 . S
C5018 P4992 1.819 . S
C5018 C5019 1.391 . S
C5018 C5023 1.391 . S
C5019 H5001 0.941 . S
C5019 C5018 1.391 . S
C5019 C5020 1.396 . S
C5020 H5004 0.939 . S
C5020 C5019 1.396 . S
C5020 C5021 1.397 . S
C5021 C5020 1.397 . S
C5021 C5022 1.385 . S
C5022 H5005 0.940 . S
C5022 C5021 1.385 . S
C5022 C5023 1.388 . S
C5023 H5002 0.939 . S
C5023 C5018 1.391 . S
C5023 C5022 1.388 . S
P5024 O5035 1.490 . S
P5024 C5038 1.812 . S
P5024 C5044 1.803 . S
P5024 C5050 1.819 . S
H5025 C5039 0.941 . S
H5026 C5040 0.939 . S
H5027 C5042 0.940 . S
H5028 C5043 0.940 . S
H5029 C5045 0.939 . S
H5030 C5046 0.942 . S
H5031 C5048 0.940 . S
H5032 C5049 0.939 . S
H5033 C5051 0.941 . S
H5034 C5055 0.939 . S
O5035 P5024 1.490 . S
H5036 C5052 0.939 . S
H5037 C5054 0.940 . S
C5038 P5024 1.812 . S
C5038 C5039 1.389 . S
C5038 C5043 1.391 . S
C5039 H5025 0.941 . S
C5039 C5038 1.389 . S
C5039 C5040 1.397 . S
C5040 H5026 0.939 . S
C5040 C5039 1.397 . S
C5040 C5041 1.378 . S
C5041 C5040 1.378 . S
C5041 C5042 1.378 . S
C5042 H5027 0.940 . S
C5042 C5041 1.378 . S
C5042 C5043 1.396 . S
C5043 H5028 0.940 . S
C5043 C5038 1.391 . S
C5043 C5042 1.396 . S
C5044 P5024 1.803 . S
C5044 C5045 1.378 . S
C5044 C5049 1.400 . S
C5045 H5029 0.939 . S
C5045 C5044 1.378 . S
C5045 C5046 1.361 . S
C5046 H5030 0.942 . S
C5046 C5045 1.361 . S
C5046 C5047 1.369 . S
C5047 C5046 1.369 . S
C5047 C5048 1.404 . S
C5048 H5031 0.940 . S
C5048 C5047 1.404 . S
C5048 C5049 1.389 . S
C5049 H5032 0.939 . S
C5049 C5044 1.400 . S
C5049 C5048 1.389 . S
C5050 P5024 1.819 . S
C5050 C5051 1.391 . S
C5050 C5055 1.391 . S
C5051 H5033 0.941 . S
C5051 C5050 1.391 . S
C5051 C5052 1.396 . S
C5052 H5036 0.939 . S
C5052 C5051 1.396 . S
C5052 C5053 1.397 . S
C5053 C5052 1.397 . S
C5053 C5054 1.385 . S
C5054 H5037 0.940 . S
C5054 C5053 1.385 . S
C5054 C5055 1.388 . S
C5055 H5034 0.939 . S
C5055 C5050 1.391 . S
C5055 C5054 1.388 . S
P5056 O5067 1.490 . S
P5056 C5070 1.812 . S
P5056 C5076 1.803 . S
P5056 C5082 1.819 . S
H5057 C5071 0.941 . S
H5058 C5072 0.939 . S
H5059 C5074 0.940 . S
H5060 C5075 0.940 . S
H5061 C5077 0.939 . S
H5062 C5078 0.942 . S
H5063 C5080 0.940 . S
H5064 C5081 0.939 . S
H5065 C5083 0.941 . S
H5066 C5087 0.939 . S
O5067 P5056 1.490 . S
H5068 C5084 0.939 . S
H5069 C5086 0.940 . S
C5070 P5056 1.812 . S
C5070 C5071 1.389 . S
C5070 C5075 1.391 . S
C5071 H5057 0.941 . S
C5071 C5070 1.389 . S
C5071 C5072 1.397 . S
C5072 H5058 0.939 . S
C5072 C5071 1.397 . S
C5072 C5073 1.378 . S
C5073 C5072 1.378 . S
C5073 C5074 1.378 . S
C5074 H5059 0.940 . S
C5074 C5073 1.378 . S
C5074 C5075 1.396 . S
C5075 H5060 0.940 . S
C5075 C5070 1.391 . S
C5075 C5074 1.396 . S
C5076 P5056 1.803 . S
C5076 C5077 1.378 . S
C5076 C5081 1.400 . S
C5077 H5061 0.939 . S
C5077 C5076 1.378 . S
C5077 C5078 1.361 . S
C5078 H5062 0.942 . S
C5078 C5077 1.361 . S
C5078 C5079 1.369 . S
C5079 C5078 1.369 . S
C5079 C5080 1.404 . S
C5080 H5063 0.940 . S
C5080 C5079 1.404 . S
C5080 C5081 1.389 . S
C5081 H5064 0.939 . S
C5081 C5076 1.400 . S
C5081 C5080 1.389 . S
C5082 P5056 1.819 . S
C5082 C5083 1.391 . S
C5082 C5087 1.391 . S
C5083 H5065 0.941 . S
C5083 C5082 1.391 . S
C5083 C5084 1.396 . S
C5084 H5068 0.939 . S
C5084 C5083 1.396 . S
C5084 C5085 1.397 . S
C5085 C5084 1.397 . S
C5085 C5086 1.385 . S
C5086 H5069 0.940 . S
C5086 C5085 1.385 . S
C5086 C5087 1.388 . S
C5087 H5066 0.939 . S
C5087 C5082 1.391 . S
C5087 C5086 1.388 . S
P5088 O5099 1.490 . S
P5088 C5102 1.812 . S
P5088 C5108 1.803 . S
P5088 C5114 1.819 . S
H5089 C5103 0.941 . S
H5090 C5104 0.939 . S
H5091 C5106 0.940 . S
H5092 C5107 0.940 . S
H5093 C5109 0.939 . S
H5094 C5110 0.942 . S
H5095 C5112 0.940 . S
H5096 C5113 0.939 . S
H5097 C5115 0.941 . S
H5098 C5119 0.939 . S
O5099 P5088 1.490 . S
H5100 C5116 0.939 . S
H5101 C5118 0.940 . S
C5102 P5088 1.812 . S
C5102 C5103 1.389 . S
C5102 C5107 1.391 . S
C5103 H5089 0.941 . S
C5103 C5102 1.389 . S
C5103 C5104 1.397 . S
C5104 H5090 0.939 . S
C5104 C5103 1.397 . S
C5104 C5105 1.378 . S
C5105 C5104 1.378 . S
C5105 C5106 1.378 . S
C5106 H5091 0.940 . S
C5106 C5105 1.378 . S
C5106 C5107 1.396 . S
C5107 H5092 0.940 . S
C5107 C5102 1.391 . S
C5107 C5106 1.396 . S
C5108 P5088 1.803 . S
C5108 C5109 1.378 . S
C5108 C5113 1.400 . S
C5109 H5093 0.939 . S
C5109 C5108 1.378 . S
C5109 C5110 1.361 . S
C5110 H5094 0.942 . S
C5110 C5109 1.361 . S
C5110 C5111 1.369 . S
C5111 C5110 1.369 . S
C5111 C5112 1.404 . S
C5112 H5095 0.940 . S
C5112 C5111 1.404 . S
C5112 C5113 1.389 . S
C5113 H5096 0.939 . S
C5113 C5108 1.400 . S
C5113 C5112 1.389 . S
C5114 P5088 1.819 . S
C5114 C5115 1.391 . S
C5114 C5119 1.391 . S
C5115 H5097 0.941 . S
C5115 C5114 1.391 . S
C5115 C5116 1.396 . S
C5116 H5100 0.939 . S
C5116 C5115 1.396 . S
C5116 C5117 1.397 . S
C5117 C5116 1.397 . S
C5117 C5118 1.385 . S
C5118 H5101 0.940 . S
C5118 C5117 1.385 . S
C5118 C5119 1.388 . S
C5119 H5098 0.939 . S
C5119 C5114 1.391 . S
C5119 C5118 1.388 . S
P5120 O5131 1.490 . S
P5120 C5134 1.812 . S
P5120 C5140 1.803 . S
P5120 C5146 1.819 . S
H5121 C5135 0.941 . S
H5122 C5136 0.939 . S
H5123 C5138 0.940 . S
H5124 C5139 0.940 . S
H5125 C5141 0.939 . S
H5126 C5142 0.942 . S
H5127 C5144 0.940 . S
H5128 C5145 0.939 . S
H5129 C5147 0.941 . S
H5130 C5151 0.939 . S
O5131 P5120 1.490 . S
H5132 C5148 0.939 . S
H5133 C5150 0.940 . S
C5134 P5120 1.812 . S
C5134 C5135 1.389 . S
C5134 C5139 1.391 . S
C5135 H5121 0.941 . S
C5135 C5134 1.389 . S
C5135 C5136 1.397 . S
C5136 H5122 0.939 . S
C5136 C5135 1.397 . S
C5136 C5137 1.378 . S
C5137 C5136 1.378 . S
C5137 C5138 1.378 . S
C5138 H5123 0.940 . S
C5138 C5137 1.378 . S
C5138 C5139 1.396 . S
C5139 H5124 0.940 . S
C5139 C5134 1.391 . S
C5139 C5138 1.396 . S
C5140 P5120 1.803 . S
C5140 C5141 1.378 . S
C5140 C5145 1.400 . S
C5141 H5125 0.939 . S
C5141 C5140 1.378 . S
C5141 C5142 1.361 . S
C5142 H5126 0.942 . S
C5142 C5141 1.361 . S
C5142 C5143 1.369 . S
C5143 C5142 1.369 . S
C5143 C5144 1.404 . S
C5144 H5127 0.940 . S
C5144 C5143 1.404 . S
C5144 C5145 1.389 . S
C5145 H5128 0.939 . S
C5145 C5140 1.400 . S
C5145 C5144 1.389 . S
C5146 P5120 1.819 . S
C5146 C5147 1.391 . S
C5146 C5151 1.391 . S
C5147 H5129 0.941 . S
C5147 C5146 1.391 . S
C5147 C5148 1.396 . S
C5148 H5132 0.939 . S
C5148 C5147 1.396 . S
C5148 C5149 1.397 . S
C5149 C5148 1.397 . S
C5149 C5150 1.385 . S
C5150 H5133 0.940 . S
C5150 C5149 1.385 . S
C5150 C5151 1.388 . S
C5151 H5130 0.939 . S
C5151 C5146 1.391 . S
C5151 C5150 1.388 . S
P5152 O5163 1.490 . S
P5152 C5166 1.812 . S
P5152 C5172 1.803 . S
P5152 C5178 1.819 . S
H5153 C5167 0.941 . S
H5154 C5168 0.939 . S
H5155 C5170 0.940 . S
H5156 C5171 0.940 . S
H5157 C5173 0.939 . S
H5158 C5174 0.942 . S
H5159 C5176 0.940 . S
H5160 C5177 0.939 . S
H5161 C5179 0.941 . S
H5162 C5183 0.939 . S
O5163 P5152 1.490 . S
H5164 C5180 0.939 . S
H5165 C5182 0.940 . S
C5166 P5152 1.812 . S
C5166 C5167 1.389 . S
C5166 C5171 1.391 . S
C5167 H5153 0.941 . S
C5167 C5166 1.389 . S
C5167 C5168 1.397 . S
C5168 H5154 0.939 . S
C5168 C5167 1.397 . S
C5168 C5169 1.378 . S
C5169 C5168 1.378 . S
C5169 C5170 1.378 . S
C5170 H5155 0.940 . S
C5170 C5169 1.378 . S
C5170 C5171 1.396 . S
C5171 H5156 0.940 . S
C5171 C5166 1.391 . S
C5171 C5170 1.396 . S
C5172 P5152 1.803 . S
C5172 C5173 1.378 . S
C5172 C5177 1.400 . S
C5173 H5157 0.939 . S
C5173 C5172 1.378 . S
C5173 C5174 1.361 . S
C5174 H5158 0.942 . S
C5174 C5173 1.361 . S
C5174 C5175 1.369 . S
C5175 C5174 1.369 . S
C5175 C5176 1.404 . S
C5176 H5159 0.940 . S
C5176 C5175 1.404 . S
C5176 C5177 1.389 . S
C5177 H5160 0.939 . S
C5177 C5172 1.400 . S
C5177 C5176 1.389 . S
C5178 P5152 1.819 . S
C5178 C5179 1.391 . S
C5178 C5183 1.391 . S
C5179 H5161 0.941 . S
C5179 C5178 1.391 . S
C5179 C5180 1.396 . S
C5180 H5164 0.939 . S
C5180 C5179 1.396 . S
C5180 C5181 1.397 . S
C5181 C5180 1.397 . S
C5181 C5182 1.385 . S
C5182 H5165 0.940 . S
C5182 C5181 1.385 . S
C5182 C5183 1.388 . S
C5183 H5162 0.939 . S
C5183 C5178 1.391 . S
C5183 C5182 1.388 . S
P5184 O5195 1.490 . S
P5184 C5198 1.812 . S
P5184 C5204 1.803 . S
P5184 C5210 1.819 . S
H5185 C5199 0.941 . S
H5186 C5200 0.939 . S
H5187 C5202 0.940 . S
H5188 C5203 0.940 . S
H5189 C5205 0.939 . S
H5190 C5206 0.942 . S
H5191 C5208 0.940 . S
H5192 C5209 0.939 . S
H5193 C5211 0.941 . S
H5194 C5215 0.939 . S
O5195 P5184 1.490 . S
H5196 C5212 0.939 . S
H5197 C5214 0.940 . S
C5198 P5184 1.812 . S
C5198 C5199 1.389 . S
C5198 C5203 1.391 . S
C5199 H5185 0.941 . S
C5199 C5198 1.389 . S
C5199 C5200 1.397 . S
C5200 H5186 0.939 . S
C5200 C5199 1.397 . S
C5200 C5201 1.378 . S
C5201 C5200 1.378 . S
C5201 C5202 1.378 . S
C5202 H5187 0.940 . S
C5202 C5201 1.378 . S
C5202 C5203 1.396 . S
C5203 H5188 0.940 . S
C5203 C5198 1.391 . S
C5203 C5202 1.396 . S
C5204 P5184 1.803 . S
C5204 C5205 1.378 . S
C5204 C5209 1.400 . S
C5205 H5189 0.939 . S
C5205 C5204 1.378 . S
C5205 C5206 1.361 . S
C5206 H5190 0.942 . S
C5206 C5205 1.361 . S
C5206 C5207 1.369 . S
C5207 C5206 1.369 . S
C5207 C5208 1.404 . S
C5208 H5191 0.940 . S
C5208 C5207 1.404 . S
C5208 C5209 1.389 . S
C5209 H5192 0.939 . S
C5209 C5204 1.400 . S
C5209 C5208 1.389 . S
C5210 P5184 1.819 . S
C5210 C5211 1.391 . S
C5210 C5215 1.391 . S
C5211 H5193 0.941 . S
C5211 C5210 1.391 . S
C5211 C5212 1.396 . S
C5212 H5196 0.939 . S
C5212 C5211 1.396 . S
C5212 C5213 1.397 . S
C5213 C5212 1.397 . S
C5213 C5214 1.385 . S
C5214 H5197 0.940 . S
C5214 C5213 1.385 . S
C5214 C5215 1.388 . S
C5215 H5194 0.939 . S
C5215 C5210 1.391 . S
C5215 C5214 1.388 . S
P5216 O5227 1.490 . S
P5216 C5230 1.812 . S
P5216 C5236 1.803 . S
P5216 C5242 1.819 . S
H5217 C5231 0.941 . S
H5218 C5232 0.939 . S
H5219 C5234 0.940 . S
H5220 C5235 0.940 . S
H5221 C5237 0.939 . S
H5222 C5238 0.942 . S
H5223 C5240 0.940 . S
H5224 C5241 0.939 . S
H5225 C5243 0.941 . S
H5226 C5247 0.939 . S
O5227 P5216 1.490 . S
H5228 C5244 0.939 . S
H5229 C5246 0.940 . S
C5230 P5216 1.812 . S
C5230 C5231 1.389 . S
C5230 C5235 1.391 . S
C5231 H5217 0.941 . S
C5231 C5230 1.389 . S
C5231 C5232 1.397 . S
C5232 H5218 0.939 . S
C5232 C5231 1.397 . S
C5232 C5233 1.378 . S
C5233 C5232 1.378 . S
C5233 C5234 1.378 . S
C5234 H5219 0.940 . S
C5234 C5233 1.378 . S
C5234 C5235 1.396 . S
C5235 H5220 0.940 . S
C5235 C5230 1.391 . S
C5235 C5234 1.396 . S
C5236 P5216 1.803 . S
C5236 C5237 1.378 . S
C5236 C5241 1.400 . S
C5237 H5221 0.939 . S
C5237 C5236 1.378 . S
C5237 C5238 1.361 . S
C5238 H5222 0.942 . S
C5238 C5237 1.361 . S
C5238 C5239 1.369 . S
C5239 C5238 1.369 . S
C5239 C5240 1.404 . S
C5240 H5223 0.940 . S
C5240 C5239 1.404 . S
C5240 C5241 1.389 . S
C5241 H5224 0.939 . S
C5241 C5236 1.400 . S
C5241 C5240 1.389 . S
C5242 P5216 1.819 . S
C5242 C5243 1.391 . S
C5242 C5247 1.391 . S
C5243 H5225 0.941 . S
C5243 C5242 1.391 . S
C5243 C5244 1.396 . S
C5244 H5228 0.939 . S
C5244 C5243 1.396 . S
C5244 C5245 1.397 . S
C5245 C5244 1.397 . S
C5245 C5246 1.385 . S
C5246 H5229 0.940 . S
C5246 C5245 1.385 . S
C5246 C5247 1.388 . S
C5247 H5226 0.939 . S
C5247 C5242 1.391 . S
C5247 C5246 1.388 . S
P5248 O5259 1.490 . S
P5248 C5262 1.812 . S
P5248 C5268 1.803 . S
P5248 C5274 1.819 . S
H5249 C5263 0.941 . S
H5250 C5264 0.939 . S
H5251 C5266 0.940 . S
H5252 C5267 0.940 . S
H5253 C5269 0.939 . S
H5254 C5270 0.942 . S
H5255 C5272 0.940 . S
H5256 C5273 0.939 . S
H5257 C5275 0.941 . S
H5258 C5279 0.939 . S
O5259 P5248 1.490 . S
H5260 C5276 0.939 . S
H5261 C5278 0.940 . S
C5262 P5248 1.812 . S
C5262 C5263 1.389 . S
C5262 C5267 1.391 . S
C5263 H5249 0.941 . S
C5263 C5262 1.389 . S
C5263 C5264 1.397 . S
C5264 H5250 0.939 . S
C5264 C5263 1.397 . S
C5264 C5265 1.378 . S
C5265 C5264 1.378 . S
C5265 C5266 1.378 . S
C5266 H5251 0.940 . S
C5266 C5265 1.378 . S
C5266 C5267 1.396 . S
C5267 H5252 0.940 . S
C5267 C5262 1.391 . S
C5267 C5266 1.396 . S
C5268 P5248 1.803 . S
C5268 C5269 1.378 . S
C5268 C5273 1.400 . S
C5269 H5253 0.939 . S
C5269 C5268 1.378 . S
C5269 C5270 1.361 . S
C5270 H5254 0.942 . S
C5270 C5269 1.361 . S
C5270 C5271 1.369 . S
C5271 C5270 1.369 . S
C5271 C5272 1.404 . S
C5272 H5255 0.940 . S
C5272 C5271 1.404 . S
C5272 C5273 1.389 . S
C5273 H5256 0.939 . S
C5273 C5268 1.400 . S
C5273 C5272 1.389 . S
C5274 P5248 1.819 . S
C5274 C5275 1.391 . S
C5274 C5279 1.391 . S
C5275 H5257 0.941 . S
C5275 C5274 1.391 . S
C5275 C5276 1.396 . S
C5276 H5260 0.939 . S
C5276 C5275 1.396 . S
C5276 C5277 1.397 . S
C5277 C5276 1.397 . S
C5277 C5278 1.385 . S
C5278 H5261 0.940 . S
C5278 C5277 1.385 . S
C5278 C5279 1.388 . S
C5279 H5258 0.939 . S
C5279 C5274 1.391 . S
C5279 C5278 1.388 . S
P5280 O5291 1.490 . S
P5280 C5294 1.812 . S
P5280 C5300 1.803 . S
P5280 C5306 1.819 . S
H5281 C5295 0.941 . S
H5282 C5296 0.939 . S
H5283 C5298 0.940 . S
H5284 C5299 0.940 . S
H5285 C5301 0.939 . S
H5286 C5302 0.942 . S
H5287 C5304 0.940 . S
H5288 C5305 0.939 . S
H5289 C5307 0.941 . S
H5290 C5311 0.939 . S
O5291 P5280 1.490 . S
H5292 C5308 0.939 . S
H5293 C5310 0.940 . S
C5294 P5280 1.812 . S
C5294 C5295 1.389 . S
C5294 C5299 1.391 . S
C5295 H5281 0.941 . S
C5295 C5294 1.389 . S
C5295 C5296 1.397 . S
C5296 H5282 0.939 . S
C5296 C5295 1.397 . S
C5296 C5297 1.378 . S
C5297 C5296 1.378 . S
C5297 C5298 1.378 . S
C5298 H5283 0.940 . S
C5298 C5297 1.378 . S
C5298 C5299 1.396 . S
C5299 H5284 0.940 . S
C5299 C5294 1.391 . S
C5299 C5298 1.396 . S
C5300 P5280 1.803 . S
C5300 C5301 1.378 . S
C5300 C5305 1.400 . S
C5301 H5285 0.939 . S
C5301 C5300 1.378 . S
C5301 C5302 1.361 . S
C5302 H5286 0.942 . S
C5302 C5301 1.361 . S
C5302 C5303 1.369 . S
C5303 C5302 1.369 . S
C5303 C5304 1.404 . S
C5304 H5287 0.940 . S
C5304 C5303 1.404 . S
C5304 C5305 1.389 . S
C5305 H5288 0.939 . S
C5305 C5300 1.400 . S
C5305 C5304 1.389 . S
C5306 P5280 1.819 . S
C5306 C5307 1.391 . S
C5306 C5311 1.391 . S
C5307 H5289 0.941 . S
C5307 C5306 1.391 . S
C5307 C5308 1.396 . S
C5308 H5292 0.939 . S
C5308 C5307 1.396 . S
C5308 C5309 1.397 . S
C5309 C5308 1.397 . S
C5309 C5310 1.385 . S
C5310 H5293 0.940 . S
C5310 C5309 1.385 . S
C5310 C5311 1.388 . S
C5311 H5290 0.939 . S
C5311 C5306 1.391 . S
C5311 C5310 1.388 . S
P5312 O5323 1.490 . S
P5312 C5326 1.812 . S
P5312 C5332 1.803 . S
P5312 C5338 1.819 . S
H5313 C5327 0.941 . S
H5314 C5328 0.939 . S
H5315 C5330 0.940 . S
H5316 C5331 0.940 . S
H5317 C5333 0.939 . S
H5318 C5334 0.942 . S
H5319 C5336 0.940 . S
H5320 C5337 0.939 . S
H5321 C5339 0.941 . S
H5322 C5343 0.939 . S
O5323 P5312 1.490 . S
H5324 C5340 0.939 . S
H5325 C5342 0.940 . S
C5326 P5312 1.812 . S
C5326 C5327 1.389 . S
C5326 C5331 1.391 . S
C5327 H5313 0.941 . S
C5327 C5326 1.389 . S
C5327 C5328 1.397 . S
C5328 H5314 0.939 . S
C5328 C5327 1.397 . S
C5328 C5329 1.378 . S
C5329 C5328 1.378 . S
C5329 C5330 1.378 . S
C5330 H5315 0.940 . S
C5330 C5329 1.378 . S
C5330 C5331 1.396 . S
C5331 H5316 0.940 . S
C5331 C5326 1.391 . S
C5331 C5330 1.396 . S
C5332 P5312 1.803 . S
C5332 C5333 1.378 . S
C5332 C5337 1.400 . S
C5333 H5317 0.939 . S
C5333 C5332 1.378 . S
C5333 C5334 1.361 . S
C5334 H5318 0.942 . S
C5334 C5333 1.361 . S
C5334 C5335 1.369 . S
C5335 C5334 1.369 . S
C5335 C5336 1.404 . S
C5336 H5319 0.940 . S
C5336 C5335 1.404 . S
C5336 C5337 1.389 . S
C5337 H5320 0.939 . S
C5337 C5332 1.400 . S
C5337 C5336 1.389 . S
C5338 P5312 1.819 . S
C5338 C5339 1.391 . S
C5338 C5343 1.391 . S
C5339 H5321 0.941 . S
C5339 C5338 1.391 . S
C5339 C5340 1.396 . S
C5340 H5324 0.939 . S
C5340 C5339 1.396 . S
C5340 C5341 1.397 . S
C5341 C5340 1.397 . S
C5341 C5342 1.385 . S
C5342 H5325 0.940 . S
C5342 C5341 1.385 . S
C5342 C5343 1.388 . S
C5343 H5322 0.939 . S
C5343 C5338 1.391 . S
C5343 C5342 1.388 . S
P5344 O5355 1.490 . S
P5344 C5358 1.812 . S
P5344 C5364 1.803 . S
P5344 C5370 1.819 . S
H5345 C5359 0.941 . S
H5346 C5360 0.939 . S
H5347 C5362 0.940 . S
H5348 C5363 0.940 . S
H5349 C5365 0.939 . S
H5350 C5366 0.942 . S
H5351 C5368 0.940 . S
H5352 C5369 0.939 . S
H5353 C5371 0.941 . S
H5354 C5375 0.939 . S
O5355 P5344 1.490 . S
H5356 C5372 0.939 . S
H5357 C5374 0.940 . S
C5358 P5344 1.812 . S
C5358 C5359 1.389 . S
C5358 C5363 1.391 . S
C5359 H5345 0.941 . S
C5359 C5358 1.389 . S
C5359 C5360 1.397 . S
C5360 H5346 0.939 . S
C5360 C5359 1.397 . S
C5360 C5361 1.378 . S
C5361 C5360 1.378 . S
C5361 C5362 1.378 . S
C5362 H5347 0.940 . S
C5362 C5361 1.378 . S
C5362 C5363 1.396 . S
C5363 H5348 0.940 . S
C5363 C5358 1.391 . S
C5363 C5362 1.396 . S
C5364 P5344 1.803 . S
C5364 C5365 1.378 . S
C5364 C5369 1.400 . S
C5365 H5349 0.939 . S
C5365 C5364 1.378 . S
C5365 C5366 1.361 . S
C5366 H5350 0.942 . S
C5366 C5365 1.361 . S
C5366 C5367 1.369 . S
C5367 C5366 1.369 . S
C5367 C5368 1.404 . S
C5368 H5351 0.940 . S
C5368 C5367 1.404 . S
C5368 C5369 1.389 . S
C5369 H5352 0.939 . S
C5369 C5364 1.400 . S
C5369 C5368 1.389 . S
C5370 P5344 1.819 . S
C5370 C5371 1.391 . S
C5370 C5375 1.391 . S
C5371 H5353 0.941 . S
C5371 C5370 1.391 . S
C5371 C5372 1.396 . S
C5372 H5356 0.939 . S
C5372 C5371 1.396 . S
C5372 C5373 1.397 . S
C5373 C5372 1.397 . S
C5373 C5374 1.385 . S
C5374 H5357 0.940 . S
C5374 C5373 1.385 . S
C5374 C5375 1.388 . S
C5375 H5354 0.939 . S
C5375 C5370 1.391 . S
C5375 C5374 1.388 . S
P5376 O5387 1.490 . S
P5376 C5390 1.812 . S
P5376 C5396 1.803 . S
P5376 C5402 1.819 . S
H5377 C5391 0.941 . S
H5378 C5392 0.939 . S
H5379 C5394 0.940 . S
H5380 C5395 0.940 . S
H5381 C5397 0.939 . S
H5382 C5398 0.942 . S
H5383 C5400 0.940 . S
H5384 C5401 0.939 . S
H5385 C5403 0.941 . S
H5386 C5407 0.939 . S
O5387 P5376 1.490 . S
H5388 C5404 0.939 . S
H5389 C5406 0.940 . S
C5390 P5376 1.812 . S
C5390 C5391 1.389 . S
C5390 C5395 1.391 . S
C5391 H5377 0.941 . S
C5391 C5390 1.389 . S
C5391 C5392 1.397 . S
C5392 H5378 0.939 . S
C5392 C5391 1.397 . S
C5392 C5393 1.378 . S
C5393 C5392 1.378 . S
C5393 C5394 1.378 . S
C5394 H5379 0.940 . S
C5394 C5393 1.378 . S
C5394 C5395 1.396 . S
C5395 H5380 0.940 . S
C5395 C5390 1.391 . S
C5395 C5394 1.396 . S
C5396 P5376 1.803 . S
C5396 C5397 1.378 . S
C5396 C5401 1.400 . S
C5397 H5381 0.939 . S
C5397 C5396 1.378 . S
C5397 C5398 1.361 . S
C5398 H5382 0.942 . S
C5398 C5397 1.361 . S
C5398 C5399 1.369 . S
C5399 C5398 1.369 . S
C5399 C5400 1.404 . S
C5400 H5383 0.940 . S
C5400 C5399 1.404 . S
C5400 C5401 1.389 . S
C5401 H5384 0.939 . S
C5401 C5396 1.400 . S
C5401 C5400 1.389 . S
C5402 P5376 1.819 . S
C5402 C5403 1.391 . S
C5402 C5407 1.391 . S
C5403 H5385 0.941 . S
C5403 C5402 1.391 . S
C5403 C5404 1.396 . S
C5404 H5388 0.939 . S
C5404 C5403 1.396 . S
C5404 C5405 1.397 . S
C5405 C5404 1.397 . S
C5405 C5406 1.385 . S
C5406 H5389 0.940 . S
C5406 C5405 1.385 . S
C5406 C5407 1.388 . S
C5407 H5386 0.939 . S
C5407 C5402 1.391 . S
C5407 C5406 1.388 . S
P5408 O5419 1.490 . S
P5408 C5422 1.812 . S
P5408 C5428 1.803 . S
P5408 C5434 1.819 . S
H5409 C5423 0.941 . S
H5410 C5424 0.939 . S
H5411 C5426 0.940 . S
H5412 C5427 0.940 . S
H5413 C5429 0.939 . S
H5414 C5430 0.942 . S
H5415 C5432 0.940 . S
H5416 C5433 0.939 . S
H5417 C5435 0.941 . S
H5418 C5439 0.939 . S
O5419 P5408 1.490 . S
H5420 C5436 0.939 . S
H5421 C5438 0.940 . S
C5422 P5408 1.812 . S
C5422 C5423 1.389 . S
C5422 C5427 1.391 . S
C5423 H5409 0.941 . S
C5423 C5422 1.389 . S
C5423 C5424 1.397 . S
C5424 H5410 0.939 . S
C5424 C5423 1.397 . S
C5424 C5425 1.378 . S
C5425 C5424 1.378 . S
C5425 C5426 1.378 . S
C5426 H5411 0.940 . S
C5426 C5425 1.378 . S
C5426 C5427 1.396 . S
C5427 H5412 0.940 . S
C5427 C5422 1.391 . S
C5427 C5426 1.396 . S
C5428 P5408 1.803 . S
C5428 C5429 1.378 . S
C5428 C5433 1.400 . S
C5429 H5413 0.939 . S
C5429 C5428 1.378 . S
C5429 C5430 1.361 . S
C5430 H5414 0.942 . S
C5430 C5429 1.361 . S
C5430 C5431 1.369 . S
C5431 C5430 1.369 . S
C5431 C5432 1.404 . S
C5432 H5415 0.940 . S
C5432 C5431 1.404 . S
C5432 C5433 1.389 . S
C5433 H5416 0.939 . S
C5433 C5428 1.400 . S
C5433 C5432 1.389 . S
C5434 P5408 1.819 . S
C5434 C5435 1.391 . S
C5434 C5439 1.391 . S
C5435 H5417 0.941 . S
C5435 C5434 1.391 . S
C5435 C5436 1.396 . S
C5436 H5420 0.939 . S
C5436 C5435 1.396 . S
C5436 C5437 1.397 . S
C5437 C5436 1.397 . S
C5437 C5438 1.385 . S
C5438 H5421 0.940 . S
C5438 C5437 1.385 . S
C5438 C5439 1.388 . S
C5439 H5418 0.939 . S
C5439 C5434 1.391 . S
C5439 C5438 1.388 . S
P5440 O5451 1.490 . S
P5440 C5454 1.812 . S
P5440 C5460 1.803 . S
P5440 C5466 1.819 . S
H5441 C5455 0.941 . S
H5442 C5456 0.939 . S
H5443 C5458 0.940 . S
H5444 C5459 0.940 . S
H5445 C5461 0.939 . S
H5446 C5462 0.942 . S
H5447 C5464 0.940 . S
H5448 C5465 0.939 . S
H5449 C5467 0.941 . S
H5450 C5471 0.939 . S
O5451 P5440 1.490 . S
H5452 C5468 0.939 . S
H5453 C5470 0.940 . S
C5454 P5440 1.812 . S
C5454 C5455 1.389 . S
C5454 C5459 1.391 . S
C5455 H5441 0.941 . S
C5455 C5454 1.389 . S
C5455 C5456 1.397 . S
C5456 H5442 0.939 . S
C5456 C5455 1.397 . S
C5456 C5457 1.378 . S
C5457 C5456 1.378 . S
C5457 C5458 1.378 . S
C5458 H5443 0.940 . S
C5458 C5457 1.378 . S
C5458 C5459 1.396 . S
C5459 H5444 0.940 . S
C5459 C5454 1.391 . S
C5459 C5458 1.396 . S
C5460 P5440 1.803 . S
C5460 C5461 1.378 . S
C5460 C5465 1.400 . S
C5461 H5445 0.939 . S
C5461 C5460 1.378 . S
C5461 C5462 1.361 . S
C5462 H5446 0.942 . S
C5462 C5461 1.361 . S
C5462 C5463 1.369 . S
C5463 C5462 1.369 . S
C5463 C5464 1.404 . S
C5464 H5447 0.940 . S
C5464 C5463 1.404 . S
C5464 C5465 1.389 . S
C5465 H5448 0.939 . S
C5465 C5460 1.400 . S
C5465 C5464 1.389 . S
C5466 P5440 1.819 . S
C5466 C5467 1.391 . S
C5466 C5471 1.391 . S
C5467 H5449 0.941 . S
C5467 C5466 1.391 . S
C5467 C5468 1.396 . S
C5468 H5452 0.939 . S
C5468 C5467 1.396 . S
C5468 C5469 1.397 . S
C5469 C5468 1.397 . S
C5469 C5470 1.385 . S
C5470 H5453 0.940 . S
C5470 C5469 1.385 . S
C5470 C5471 1.388 . S
C5471 H5450 0.939 . S
C5471 C5466 1.391 . S
C5471 C5470 1.388 . S
P5472 O5483 1.490 . S
P5472 C5486 1.812 . S
P5472 C5492 1.803 . S
P5472 C5498 1.819 . S
H5473 C5487 0.941 . S
H5474 C5488 0.939 . S
H5475 C5490 0.940 . S
H5476 C5491 0.940 . S
H5477 C5493 0.939 . S
H5478 C5494 0.942 . S
H5479 C5496 0.940 . S
H5480 C5497 0.939 . S
H5481 C5499 0.941 . S
H5482 C5503 0.939 . S
O5483 P5472 1.490 . S
H5484 C5500 0.939 . S
H5485 C5502 0.940 . S
C5486 P5472 1.812 . S
C5486 C5487 1.389 . S
C5486 C5491 1.391 . S
C5487 H5473 0.941 . S
C5487 C5486 1.389 . S
C5487 C5488 1.397 . S
C5488 H5474 0.939 . S
C5488 C5487 1.397 . S
C5488 C5489 1.378 . S
C5489 C5488 1.378 . S
C5489 C5490 1.378 . S
C5490 H5475 0.940 . S
C5490 C5489 1.378 . S
C5490 C5491 1.396 . S
C5491 H5476 0.940 . S
C5491 C5486 1.391 . S
C5491 C5490 1.396 . S
C5492 P5472 1.803 . S
C5492 C5493 1.378 . S
C5492 C5497 1.400 . S
C5493 H5477 0.939 . S
C5493 C5492 1.378 . S
C5493 C5494 1.361 . S
C5494 H5478 0.942 . S
C5494 C5493 1.361 . S
C5494 C5495 1.369 . S
C5495 C5494 1.369 . S
C5495 C5496 1.404 . S
C5496 H5479 0.940 . S
C5496 C5495 1.404 . S
C5496 C5497 1.389 . S
C5497 H5480 0.939 . S
C5497 C5492 1.400 . S
C5497 C5496 1.389 . S
C5498 P5472 1.819 . S
C5498 C5499 1.391 . S
C5498 C5503 1.391 . S
C5499 H5481 0.941 . S
C5499 C5498 1.391 . S
C5499 C5500 1.396 . S
C5500 H5484 0.939 . S
C5500 C5499 1.396 . S
C5500 C5501 1.397 . S
C5501 C5500 1.397 . S
C5501 C5502 1.385 . S
C5502 H5485 0.940 . S
C5502 C5501 1.385 . S
C5502 C5503 1.388 . S
C5503 H5482 0.939 . S
C5503 C5498 1.391 . S
C5503 C5502 1.388 . S
P5504 O5515 1.490 . S
P5504 C5518 1.812 . S
P5504 C5524 1.803 . S
P5504 C5530 1.819 . S
H5505 C5519 0.941 . S
H5506 C5520 0.939 . S
H5507 C5522 0.940 . S
H5508 C5523 0.940 . S
H5509 C5525 0.939 . S
H5510 C5526 0.942 . S
H5511 C5528 0.940 . S
H5512 C5529 0.939 . S
H5513 C5531 0.941 . S
H5514 C5535 0.939 . S
O5515 P5504 1.490 . S
H5516 C5532 0.939 . S
H5517 C5534 0.940 . S
C5518 P5504 1.812 . S
C5518 C5519 1.389 . S
C5518 C5523 1.391 . S
C5519 H5505 0.941 . S
C5519 C5518 1.389 . S
C5519 C5520 1.397 . S
C5520 H5506 0.939 . S
C5520 C5519 1.397 . S
C5520 C5521 1.378 . S
C5521 C5520 1.378 . S
C5521 C5522 1.378 . S
C5522 H5507 0.940 . S
C5522 C5521 1.378 . S
C5522 C5523 1.396 . S
C5523 H5508 0.940 . S
C5523 C5518 1.391 . S
C5523 C5522 1.396 . S
C5524 P5504 1.803 . S
C5524 C5525 1.378 . S
C5524 C5529 1.400 . S
C5525 H5509 0.939 . S
C5525 C5524 1.378 . S
C5525 C5526 1.361 . S
C5526 H5510 0.942 . S
C5526 C5525 1.361 . S
C5526 C5527 1.369 . S
C5527 C5526 1.369 . S
C5527 C5528 1.404 . S
C5528 H5511 0.940 . S
C5528 C5527 1.404 . S
C5528 C5529 1.389 . S
C5529 H5512 0.939 . S
C5529 C5524 1.400 . S
C5529 C5528 1.389 . S
C5530 P5504 1.819 . S
C5530 C5531 1.391 . S
C5530 C5535 1.391 . S
C5531 H5513 0.941 . S
C5531 C5530 1.391 . S
C5531 C5532 1.396 . S
C5532 H5516 0.939 . S
C5532 C5531 1.396 . S
C5532 C5533 1.397 . S
C5533 C5532 1.397 . S
C5533 C5534 1.385 . S
C5534 H5517 0.940 . S
C5534 C5533 1.385 . S
C5534 C5535 1.388 . S
C5535 H5514 0.939 . S
C5535 C5530 1.391 . S
C5535 C5534 1.388 . S
P5536 O5547 1.490 . S
P5536 C5550 1.812 . S
P5536 C5556 1.803 . S
P5536 C5562 1.819 . S
H5537 C5551 0.941 . S
H5538 C5552 0.939 . S
H5539 C5554 0.940 . S
H5540 C5555 0.940 . S
H5541 C5557 0.939 . S
H5542 C5558 0.942 . S
H5543 C5560 0.940 . S
H5544 C5561 0.939 . S
H5545 C5563 0.941 . S
H5546 C5567 0.939 . S
O5547 P5536 1.490 . S
H5548 C5564 0.939 . S
H5549 C5566 0.940 . S
C5550 P5536 1.812 . S
C5550 C5551 1.389 . S
C5550 C5555 1.391 . S
C5551 H5537 0.941 . S
C5551 C5550 1.389 . S
C5551 C5552 1.397 . S
C5552 H5538 0.939 . S
C5552 C5551 1.397 . S
C5552 C5553 1.378 . S
C5553 C5552 1.378 . S
C5553 C5554 1.378 . S
C5554 H5539 0.940 . S
C5554 C5553 1.378 . S
C5554 C5555 1.396 . S
C5555 H5540 0.940 . S
C5555 C5550 1.391 . S
C5555 C5554 1.396 . S
C5556 P5536 1.803 . S
C5556 C5557 1.378 . S
C5556 C5561 1.400 . S
C5557 H5541 0.939 . S
C5557 C5556 1.378 . S
C5557 C5558 1.361 . S
C5558 H5542 0.942 . S
C5558 C5557 1.361 . S
C5558 C5559 1.369 . S
C5559 C5558 1.369 . S
C5559 C5560 1.404 . S
C5560 H5543 0.940 . S
C5560 C5559 1.404 . S
C5560 C5561 1.389 . S
C5561 H5544 0.939 . S
C5561 C5556 1.400 . S
C5561 C5560 1.389 . S
C5562 P5536 1.819 . S
C5562 C5563 1.391 . S
C5562 C5567 1.391 . S
C5563 H5545 0.941 . S
C5563 C5562 1.391 . S
C5563 C5564 1.396 . S
C5564 H5548 0.939 . S
C5564 C5563 1.396 . S
C5564 C5565 1.397 . S
C5565 C5564 1.397 . S
C5565 C5566 1.385 . S
C5566 H5549 0.940 . S
C5566 C5565 1.385 . S
C5566 C5567 1.388 . S
C5567 H5546 0.939 . S
C5567 C5562 1.391 . S
C5567 C5566 1.388 . S
P5568 O5579 1.490 . S
P5568 C5582 1.812 . S
P5568 C5588 1.803 . S
P5568 C5594 1.819 . S
H5569 C5583 0.941 . S
H5570 C5584 0.939 . S
H5571 C5586 0.940 . S
H5572 C5587 0.940 . S
H5573 C5589 0.939 . S
H5574 C5590 0.942 . S
H5575 C5592 0.940 . S
H5576 C5593 0.939 . S
H5577 C5595 0.941 . S
H5578 C5599 0.939 . S
O5579 P5568 1.490 . S
H5580 C5596 0.939 . S
H5581 C5598 0.940 . S
C5582 P5568 1.812 . S
C5582 C5583 1.389 . S
C5582 C5587 1.391 . S
C5583 H5569 0.941 . S
C5583 C5582 1.389 . S
C5583 C5584 1.397 . S
C5584 H5570 0.939 . S
C5584 C5583 1.397 . S
C5584 C5585 1.378 . S
C5585 C5584 1.378 . S
C5585 C5586 1.378 . S
C5586 H5571 0.940 . S
C5586 C5585 1.378 . S
C5586 C5587 1.396 . S
C5587 H5572 0.940 . S
C5587 C5582 1.391 . S
C5587 C5586 1.396 . S
C5588 P5568 1.803 . S
C5588 C5589 1.378 . S
C5588 C5593 1.400 . S
C5589 H5573 0.939 . S
C5589 C5588 1.378 . S
C5589 C5590 1.361 . S
C5590 H5574 0.942 . S
C5590 C5589 1.361 . S
C5590 C5591 1.369 . S
C5591 C5590 1.369 . S
C5591 C5592 1.404 . S
C5592 H5575 0.940 . S
C5592 C5591 1.404 . S
C5592 C5593 1.389 . S
C5593 H5576 0.939 . S
C5593 C5588 1.400 . S
C5593 C5592 1.389 . S
C5594 P5568 1.819 . S
C5594 C5595 1.391 . S
C5594 C5599 1.391 . S
C5595 H5577 0.941 . S
C5595 C5594 1.391 . S
C5595 C5596 1.396 . S
C5596 H5580 0.939 . S
C5596 C5595 1.396 . S
C5596 C5597 1.397 . S
C5597 C5596 1.397 . S
C5597 C5598 1.385 . S
C5598 H5581 0.940 . S
C5598 C5597 1.385 . S
C5598 C5599 1.388 . S
C5599 H5578 0.939 . S
C5599 C5594 1.391 . S
C5599 C5598 1.388 . S
P5600 O5611 1.490 . S
P5600 C5614 1.812 . S
P5600 C5620 1.803 . S
P5600 C5626 1.819 . S
H5601 C5615 0.941 . S
H5602 C5616 0.939 . S
H5603 C5618 0.940 . S
H5604 C5619 0.940 . S
H5605 C5621 0.939 . S
H5606 C5622 0.942 . S
H5607 C5624 0.940 . S
H5608 C5625 0.939 . S
H5609 C5627 0.941 . S
H5610 C5631 0.939 . S
O5611 P5600 1.490 . S
H5612 C5628 0.939 . S
H5613 C5630 0.940 . S
C5614 P5600 1.812 . S
C5614 C5615 1.389 . S
C5614 C5619 1.391 . S
C5615 H5601 0.941 . S
C5615 C5614 1.389 . S
C5615 C5616 1.397 . S
C5616 H5602 0.939 . S
C5616 C5615 1.397 . S
C5616 C5617 1.378 . S
C5617 C5616 1.378 . S
C5617 C5618 1.378 . S
C5618 H5603 0.940 . S
C5618 C5617 1.378 . S
C5618 C5619 1.396 . S
C5619 H5604 0.940 . S
C5619 C5614 1.391 . S
C5619 C5618 1.396 . S
C5620 P5600 1.803 . S
C5620 C5621 1.378 . S
C5620 C5625 1.400 . S
C5621 H5605 0.939 . S
C5621 C5620 1.378 . S
C5621 C5622 1.361 . S
C5622 H5606 0.942 . S
C5622 C5621 1.361 . S
C5622 C5623 1.369 . S
C5623 C5622 1.369 . S
C5623 C5624 1.404 . S
C5624 H5607 0.940 . S
C5624 C5623 1.404 . S
C5624 C5625 1.389 . S
C5625 H5608 0.939 . S
C5625 C5620 1.400 . S
C5625 C5624 1.389 . S
C5626 P5600 1.819 . S
C5626 C5627 1.391 . S
C5626 C5631 1.391 . S
C5627 H5609 0.941 . S
C5627 C5626 1.391 . S
C5627 C5628 1.396 . S
C5628 H5612 0.939 . S
C5628 C5627 1.396 . S
C5628 C5629 1.397 . S
C5629 C5628 1.397 . S
C5629 C5630 1.385 . S
C5630 H5613 0.940 . S
C5630 C5629 1.385 . S
C5630 C5631 1.388 . S
C5631 H5610 0.939 . S
C5631 C5626 1.391 . S
C5631 C5630 1.388 . S
P5632 O5643 1.490 . S
P5632 C5646 1.812 . S
P5632 C5652 1.803 . S
P5632 C5658 1.819 . S
H5633 C5647 0.941 . S
H5634 C5648 0.939 . S
H5635 C5650 0.940 . S
H5636 C5651 0.940 . S
H5637 C5653 0.939 . S
H5638 C5654 0.942 . S
H5639 C5656 0.940 . S
H5640 C5657 0.939 . S
H5641 C5659 0.941 . S
H5642 C5663 0.939 . S
O5643 P5632 1.490 . S
H5644 C5660 0.939 . S
H5645 C5662 0.940 . S
C5646 P5632 1.812 . S
C5646 C5647 1.389 . S
C5646 C5651 1.391 . S
C5647 H5633 0.941 . S
C5647 C5646 1.389 . S
C5647 C5648 1.397 . S
C5648 H5634 0.939 . S
C5648 C5647 1.397 . S
C5648 C5649 1.378 . S
C5649 C5648 1.378 . S
C5649 C5650 1.378 . S
C5650 H5635 0.940 . S
C5650 C5649 1.378 . S
C5650 C5651 1.396 . S
C5651 H5636 0.940 . S
C5651 C5646 1.391 . S
C5651 C5650 1.396 . S
C5652 P5632 1.803 . S
C5652 C5653 1.378 . S
C5652 C5657 1.400 . S
C5653 H5637 0.939 . S
C5653 C5652 1.378 . S
C5653 C5654 1.361 . S
C5654 H5638 0.942 . S
C5654 C5653 1.361 . S
C5654 C5655 1.369 . S
C5655 C5654 1.369 . S
C5655 C5656 1.404 . S
C5656 H5639 0.940 . S
C5656 C5655 1.404 . S
C5656 C5657 1.389 . S
C5657 H5640 0.939 . S
C5657 C5652 1.400 . S
C5657 C5656 1.389 . S
C5658 P5632 1.819 . S
C5658 C5659 1.391 . S
C5658 C5663 1.391 . S
C5659 H5641 0.941 . S
C5659 C5658 1.391 . S
C5659 C5660 1.396 . S
C5660 H5644 0.939 . S
C5660 C5659 1.396 . S
C5660 C5661 1.397 . S
C5661 C5660 1.397 . S
C5661 C5662 1.385 . S
C5662 H5645 0.940 . S
C5662 C5661 1.385 . S
C5662 C5663 1.388 . S
C5663 H5642 0.939 . S
C5663 C5658 1.391 . S
C5663 C5662 1.388 . S
P5664 O5675 1.490 . S
P5664 C5678 1.812 . S
P5664 C5684 1.803 . S
P5664 C5690 1.819 . S
H5665 C5679 0.941 . S
H5666 C5680 0.939 . S
H5667 C5682 0.940 . S
H5668 C5683 0.940 . S
H5669 C5685 0.939 . S
H5670 C5686 0.942 . S
H5671 C5688 0.940 . S
H5672 C5689 0.939 . S
H5673 C5691 0.941 . S
H5674 C5695 0.939 . S
O5675 P5664 1.490 . S
H5676 C5692 0.939 . S
H5677 C5694 0.940 . S
C5678 P5664 1.812 . S
C5678 C5679 1.389 . S
C5678 C5683 1.391 . S
C5679 H5665 0.941 . S
C5679 C5678 1.389 . S
C5679 C5680 1.397 . S
C5680 H5666 0.939 . S
C5680 C5679 1.397 . S
C5680 C5681 1.378 . S
C5681 C5680 1.378 . S
C5681 C5682 1.378 . S
C5682 H5667 0.940 . S
C5682 C5681 1.378 . S
C5682 C5683 1.396 . S
C5683 H5668 0.940 . S
C5683 C5678 1.391 . S
C5683 C5682 1.396 . S
C5684 P5664 1.803 . S
C5684 C5685 1.378 . S
C5684 C5689 1.400 . S
C5685 H5669 0.939 . S
C5685 C5684 1.378 . S
C5685 C5686 1.361 . S
C5686 H5670 0.942 . S
C5686 C5685 1.361 . S
C5686 C5687 1.369 . S
C5687 C5686 1.369 . S
C5687 C5688 1.404 . S
C5688 H5671 0.940 . S
C5688 C5687 1.404 . S
C5688 C5689 1.389 . S
C5689 H5672 0.939 . S
C5689 C5684 1.400 . S
C5689 C5688 1.389 . S
C5690 P5664 1.819 . S
C5690 C5691 1.391 . S
C5690 C5695 1.391 . S
C5691 H5673 0.941 . S
C5691 C5690 1.391 . S
C5691 C5692 1.396 . S
C5692 H5676 0.939 . S
C5692 C5691 1.396 . S
C5692 C5693 1.397 . S
C5693 C5692 1.397 . S
C5693 C5694 1.385 . S
C5694 H5677 0.940 . S
C5694 C5693 1.385 . S
C5694 C5695 1.388 . S
C5695 H5674 0.939 . S
C5695 C5690 1.391 . S
C5695 C5694 1.388 . S
P5696 O5707 1.490 . S
P5696 C5710 1.812 . S
P5696 C5716 1.803 . S
P5696 C5722 1.819 . S
H5697 C5711 0.941 . S
H5698 C5712 0.939 . S
H5699 C5714 0.940 . S
H5700 C5715 0.940 . S
H5701 C5717 0.939 . S
H5702 C5718 0.942 . S
H5703 C5720 0.940 . S
H5704 C5721 0.939 . S
H5705 C5723 0.941 . S
H5706 C5727 0.939 . S
O5707 P5696 1.490 . S
H5708 C5724 0.939 . S
H5709 C5726 0.940 . S
C5710 P5696 1.812 . S
C5710 C5711 1.389 . S
C5710 C5715 1.391 . S
C5711 H5697 0.941 . S
C5711 C5710 1.389 . S
C5711 C5712 1.397 . S
C5712 H5698 0.939 . S
C5712 C5711 1.397 . S
C5712 C5713 1.378 . S
C5713 C5712 1.378 . S
C5713 C5714 1.378 . S
C5714 H5699 0.940 . S
C5714 C5713 1.378 . S
C5714 C5715 1.396 . S
C5715 H5700 0.940 . S
C5715 C5710 1.391 . S
C5715 C5714 1.396 . S
C5716 P5696 1.803 . S
C5716 C5717 1.378 . S
C5716 C5721 1.400 . S
C5717 H5701 0.939 . S
C5717 C5716 1.378 . S
C5717 C5718 1.361 . S
C5718 H5702 0.942 . S
C5718 C5717 1.361 . S
C5718 C5719 1.369 . S
C5719 C5718 1.369 . S
C5719 C5720 1.404 . S
C5720 H5703 0.940 . S
C5720 C5719 1.404 . S
C5720 C5721 1.389 . S
C5721 H5704 0.939 . S
C5721 C5716 1.400 . S
C5721 C5720 1.389 . S
C5722 P5696 1.819 . S
C5722 C5723 1.391 . S
C5722 C5727 1.391 . S
C5723 H5705 0.941 . S
C5723 C5722 1.391 . S
C5723 C5724 1.396 . S
C5724 H5708 0.939 . S
C5724 C5723 1.396 . S
C5724 C5725 1.397 . S
C5725 C5724 1.397 . S
C5725 C5726 1.385 . S
C5726 H5709 0.940 . S
C5726 C5725 1.385 . S
C5726 C5727 1.388 . S
C5727 H5706 0.939 . S
C5727 C5722 1.391 . S
C5727 C5726 1.388 . S
P5728 O5739 1.490 . S
P5728 C5742 1.812 . S
P5728 C5748 1.803 . S
P5728 C5754 1.819 . S
H5729 C5743 0.941 . S
H5730 C5744 0.939 . S
H5731 C5746 0.940 . S
H5732 C5747 0.940 . S
H5733 C5749 0.939 . S
H5734 C5750 0.942 . S
H5735 C5752 0.940 . S
H5736 C5753 0.939 . S
H5737 C5755 0.941 . S
H5738 C5759 0.939 . S
O5739 P5728 1.490 . S
H5740 C5756 0.939 . S
H5741 C5758 0.940 . S
C5742 P5728 1.812 . S
C5742 C5743 1.389 . S
C5742 C5747 1.391 . S
C5743 H5729 0.941 . S
C5743 C5742 1.389 . S
C5743 C5744 1.397 . S
C5744 H5730 0.939 . S
C5744 C5743 1.397 . S
C5744 C5745 1.378 . S
C5745 C5744 1.378 . S
C5745 C5746 1.378 . S
C5746 H5731 0.940 . S
C5746 C5745 1.378 . S
C5746 C5747 1.396 . S
C5747 H5732 0.940 . S
C5747 C5742 1.391 . S
C5747 C5746 1.396 . S
C5748 P5728 1.803 . S
C5748 C5749 1.378 . S
C5748 C5753 1.400 . S
C5749 H5733 0.939 . S
C5749 C5748 1.378 . S
C5749 C5750 1.361 . S
C5750 H5734 0.942 . S
C5750 C5749 1.361 . S
C5750 C5751 1.369 . S
C5751 C5750 1.369 . S
C5751 C5752 1.404 . S
C5752 H5735 0.940 . S
C5752 C5751 1.404 . S
C5752 C5753 1.389 . S
C5753 H5736 0.939 . S
C5753 C5748 1.400 . S
C5753 C5752 1.389 . S
C5754 P5728 1.819 . S
C5754 C5755 1.391 . S
C5754 C5759 1.391 . S
C5755 H5737 0.941 . S
C5755 C5754 1.391 . S
C5755 C5756 1.396 . S
C5756 H5740 0.939 . S
C5756 C5755 1.396 . S
C5756 C5757 1.397 . S
C5757 C5756 1.397 . S
C5757 C5758 1.385 . S
C5758 H5741 0.940 . S
C5758 C5757 1.385 . S
C5758 C5759 1.388 . S
C5759 H5738 0.939 . S
C5759 C5754 1.391 . S
C5759 C5758 1.388 . S
P5760 O5771 1.490 . S
P5760 C5774 1.812 . S
P5760 C5780 1.803 . S
P5760 C5786 1.819 . S
H5761 C5775 0.941 . S
H5762 C5776 0.939 . S
H5763 C5778 0.940 . S
H5764 C5779 0.940 . S
H5765 C5781 0.939 . S
H5766 C5782 0.942 . S
H5767 C5784 0.940 . S
H5768 C5785 0.939 . S
H5769 C5787 0.941 . S
H5770 C5791 0.939 . S
O5771 P5760 1.490 . S
H5772 C5788 0.939 . S
H5773 C5790 0.940 . S
C5774 P5760 1.812 . S
C5774 C5775 1.389 . S
C5774 C5779 1.391 . S
C5775 H5761 0.941 . S
C5775 C5774 1.389 . S
C5775 C5776 1.397 . S
C5776 H5762 0.939 . S
C5776 C5775 1.397 . S
C5776 C5777 1.378 . S
C5777 C5776 1.378 . S
C5777 C5778 1.378 . S
C5778 H5763 0.940 . S
C5778 C5777 1.378 . S
C5778 C5779 1.396 . S
C5779 H5764 0.940 . S
C5779 C5774 1.391 . S
C5779 C5778 1.396 . S
C5780 P5760 1.803 . S
C5780 C5781 1.378 . S
C5780 C5785 1.400 . S
C5781 H5765 0.939 . S
C5781 C5780 1.378 . S
C5781 C5782 1.361 . S
C5782 H5766 0.942 . S
C5782 C5781 1.361 . S
C5782 C5783 1.369 . S
C5783 C5782 1.369 . S
C5783 C5784 1.404 . S
C5784 H5767 0.940 . S
C5784 C5783 1.404 . S
C5784 C5785 1.389 . S
C5785 H5768 0.939 . S
C5785 C5780 1.400 . S
C5785 C5784 1.389 . S
C5786 P5760 1.819 . S
C5786 C5787 1.391 . S
C5786 C5791 1.391 . S
C5787 H5769 0.941 . S
C5787 C5786 1.391 . S
C5787 C5788 1.396 . S
C5788 H5772 0.939 . S
C5788 C5787 1.396 . S
C5788 C5789 1.397 . S
C5789 C5788 1.397 . S
C5789 C5790 1.385 . S
C5790 H5773 0.940 . S
C5790 C5789 1.385 . S
C5790 C5791 1.388 . S
C5791 H5770 0.939 . S
C5791 C5786 1.391 . S
C5791 C5790 1.388 . S
P5792 O5803 1.490 . S
P5792 C5806 1.812 . S
P5792 C5812 1.803 . S
P5792 C5818 1.819 . S
H5793 C5807 0.941 . S
H5794 C5808 0.939 . S
H5795 C5810 0.940 . S
H5796 C5811 0.940 . S
H5797 C5813 0.939 . S
H5798 C5814 0.942 . S
H5799 C5816 0.940 . S
H5800 C5817 0.939 . S
H5801 C5819 0.941 . S
H5802 C5823 0.939 . S
O5803 P5792 1.490 . S
H5804 C5820 0.939 . S
H5805 C5822 0.940 . S
C5806 P5792 1.812 . S
C5806 C5807 1.389 . S
C5806 C5811 1.391 . S
C5807 H5793 0.941 . S
C5807 C5806 1.389 . S
C5807 C5808 1.397 . S
C5808 H5794 0.939 . S
C5808 C5807 1.397 . S
C5808 C5809 1.378 . S
C5809 C5808 1.378 . S
C5809 C5810 1.378 . S
C5810 H5795 0.940 . S
C5810 C5809 1.378 . S
C5810 C5811 1.396 . S
C5811 H5796 0.940 . S
C5811 C5806 1.391 . S
C5811 C5810 1.396 . S
C5812 P5792 1.803 . S
C5812 C5813 1.378 . S
C5812 C5817 1.400 . S
C5813 H5797 0.939 . S
C5813 C5812 1.378 . S
C5813 C5814 1.361 . S
C5814 H5798 0.942 . S
C5814 C5813 1.361 . S
C5814 C5815 1.369 . S
C5815 C5814 1.369 . S
C5815 C5816 1.404 . S
C5816 H5799 0.940 . S
C5816 C5815 1.404 . S
C5816 C5817 1.389 . S
C5817 H5800 0.939 . S
C5817 C5812 1.400 . S
C5817 C5816 1.389 . S
C5818 P5792 1.819 . S
C5818 C5819 1.391 . S
C5818 C5823 1.391 . S
C5819 H5801 0.941 . S
C5819 C5818 1.391 . S
C5819 C5820 1.396 . S
C5820 H5804 0.939 . S
C5820 C5819 1.396 . S
C5820 C5821 1.397 . S
C5821 C5820 1.397 . S
C5821 C5822 1.385 . S
C5822 H5805 0.940 . S
C5822 C5821 1.385 . S
C5822 C5823 1.388 . S
C5823 H5802 0.939 . S
C5823 C5818 1.391 . S
C5823 C5822 1.388 . S
P5824 O5835 1.490 . S
P5824 C5838 1.812 . S
P5824 C5844 1.803 . S
P5824 C5850 1.819 . S
H5825 C5839 0.941 . S
H5826 C5840 0.939 . S
H5827 C5842 0.940 . S
H5828 C5843 0.940 . S
H5829 C5845 0.939 . S
H5830 C5846 0.942 . S
H5831 C5848 0.940 . S
H5832 C5849 0.939 . S
H5833 C5851 0.941 . S
H5834 C5855 0.939 . S
O5835 P5824 1.490 . S
H5836 C5852 0.939 . S
H5837 C5854 0.940 . S
C5838 P5824 1.812 . S
C5838 C5839 1.389 . S
C5838 C5843 1.391 . S
C5839 H5825 0.941 . S
C5839 C5838 1.389 . S
C5839 C5840 1.397 . S
C5840 H5826 0.939 . S
C5840 C5839 1.397 . S
C5840 C5841 1.378 . S
C5841 C5840 1.378 . S
C5841 C5842 1.378 . S
C5842 H5827 0.940 . S
C5842 C5841 1.378 . S
C5842 C5843 1.396 . S
C5843 H5828 0.940 . S
C5843 C5838 1.391 . S
C5843 C5842 1.396 . S
C5844 P5824 1.803 . S
C5844 C5845 1.378 . S
C5844 C5849 1.400 . S
C5845 H5829 0.939 . S
C5845 C5844 1.378 . S
C5845 C5846 1.361 . S
C5846 H5830 0.942 . S
C5846 C5845 1.361 . S
C5846 C5847 1.369 . S
C5847 C5846 1.369 . S
C5847 C5848 1.404 . S
C5848 H5831 0.940 . S
C5848 C5847 1.404 . S
C5848 C5849 1.389 . S
C5849 H5832 0.939 . S
C5849 C5844 1.400 . S
C5849 C5848 1.389 . S
C5850 P5824 1.819 . S
C5850 C5851 1.391 . S
C5850 C5855 1.391 . S
C5851 H5833 0.941 . S
C5851 C5850 1.391 . S
C5851 C5852 1.396 . S
C5852 H5836 0.939 . S
C5852 C5851 1.396 . S
C5852 C5853 1.397 . S
C5853 C5852 1.397 . S
C5853 C5854 1.385 . S
C5854 H5837 0.940 . S
C5854 C5853 1.385 . S
C5854 C5855 1.388 . S
C5855 H5834 0.939 . S
C5855 C5850 1.391 . S
C5855 C5854 1.388 . S
P5856 O5867 1.490 . S
P5856 C5870 1.812 . S
P5856 C5876 1.803 . S
P5856 C5882 1.819 . S
H5857 C5871 0.941 . S
H5858 C5872 0.939 . S
H5859 C5874 0.940 . S
H5860 C5875 0.940 . S
H5861 C5877 0.939 . S
H5862 C5878 0.942 . S
H5863 C5880 0.940 . S
H5864 C5881 0.939 . S
H5865 C5883 0.941 . S
H5866 C5887 0.939 . S
O5867 P5856 1.490 . S
H5868 C5884 0.939 . S
H5869 C5886 0.940 . S
C5870 P5856 1.812 . S
C5870 C5871 1.389 . S
C5870 C5875 1.391 . S
C5871 H5857 0.941 . S
C5871 C5870 1.389 . S
C5871 C5872 1.397 . S
C5872 H5858 0.939 . S
C5872 C5871 1.397 . S
C5872 C5873 1.378 . S
C5873 C5872 1.378 . S
C5873 C5874 1.378 . S
C5874 H5859 0.940 . S
C5874 C5873 1.378 . S
C5874 C5875 1.396 . S
C5875 H5860 0.940 . S
C5875 C5870 1.391 . S
C5875 C5874 1.396 . S
C5876 P5856 1.803 . S
C5876 C5877 1.378 . S
C5876 C5881 1.400 . S
C5877 H5861 0.939 . S
C5877 C5876 1.378 . S
C5877 C5878 1.361 . S
C5878 H5862 0.942 . S
C5878 C5877 1.361 . S
C5878 C5879 1.369 . S
C5879 C5878 1.369 . S
C5879 C5880 1.404 . S
C5880 H5863 0.940 . S
C5880 C5879 1.404 . S
C5880 C5881 1.389 . S
C5881 H5864 0.939 . S
C5881 C5876 1.400 . S
C5881 C5880 1.389 . S
C5882 P5856 1.819 . S
C5882 C5883 1.391 . S
C5882 C5887 1.391 . S
C5883 H5865 0.941 . S
C5883 C5882 1.391 . S
C5883 C5884 1.396 . S
C5884 H5868 0.939 . S
C5884 C5883 1.396 . S
C5884 C5885 1.397 . S
C5885 C5884 1.397 . S
C5885 C5886 1.385 . S
C5886 H5869 0.940 . S
C5886 C5885 1.385 . S
C5886 C5887 1.388 . S
C5887 H5866 0.939 . S
C5887 C5882 1.391 . S
C5887 C5886 1.388 . S
P5888 O5899 1.490 . S
P5888 C5902 1.812 . S
P5888 C5908 1.803 . S
P5888 C5914 1.819 . S
H5889 C5903 0.941 . S
H5890 C5904 0.939 . S
H5891 C5906 0.940 . S
H5892 C5907 0.940 . S
H5893 C5909 0.939 . S
H5894 C5910 0.942 . S
H5895 C5912 0.940 . S
H5896 C5913 0.939 . S
H5897 C5915 0.941 . S
H5898 C5919 0.939 . S
O5899 P5888 1.490 . S
H5900 C5916 0.939 . S
H5901 C5918 0.940 . S
C5902 P5888 1.812 . S
C5902 C5903 1.389 . S
C5902 C5907 1.391 . S
C5903 H5889 0.941 . S
C5903 C5902 1.389 . S
C5903 C5904 1.397 . S
C5904 H5890 0.939 . S
C5904 C5903 1.397 . S
C5904 C5905 1.378 . S
C5905 C5904 1.378 . S
C5905 C5906 1.378 . S
C5906 H5891 0.940 . S
C5906 C5905 1.378 . S
C5906 C5907 1.396 . S
C5907 H5892 0.940 . S
C5907 C5902 1.391 . S
C5907 C5906 1.396 . S
C5908 P5888 1.803 . S
C5908 C5909 1.378 . S
C5908 C5913 1.400 . S
C5909 H5893 0.939 . S
C5909 C5908 1.378 . S
C5909 C5910 1.361 . S
C5910 H5894 0.942 . S
C5910 C5909 1.361 . S
C5910 C5911 1.369 . S
C5911 C5910 1.369 . S
C5911 C5912 1.404 . S
C5912 H5895 0.940 . S
C5912 C5911 1.404 . S
C5912 C5913 1.389 . S
C5913 H5896 0.939 . S
C5913 C5908 1.400 . S
C5913 C5912 1.389 . S
C5914 P5888 1.819 . S
C5914 C5915 1.391 . S
C5914 C5919 1.391 . S
C5915 H5897 0.941 . S
C5915 C5914 1.391 . S
C5915 C5916 1.396 . S
C5916 H5900 0.939 . S
C5916 C5915 1.396 . S
C5916 C5917 1.397 . S
C5917 C5916 1.397 . S
C5917 C5918 1.385 . S
C5918 H5901 0.940 . S
C5918 C5917 1.385 . S
C5918 C5919 1.388 . S
C5919 H5898 0.939 . S
C5919 C5914 1.391 . S
C5919 C5918 1.388 . S
P5920 O5931 1.490 . S
P5920 C5934 1.812 . S
P5920 C5940 1.803 . S
P5920 C5946 1.819 . S
H5921 C5935 0.941 . S
H5922 C5936 0.939 . S
H5923 C5938 0.940 . S
H5924 C5939 0.940 . S
H5925 C5941 0.939 . S
H5926 C5942 0.942 . S
H5927 C5944 0.940 . S
H5928 C5945 0.939 . S
H5929 C5947 0.941 . S
H5930 C5951 0.939 . S
O5931 P5920 1.490 . S
H5932 C5948 0.939 . S
H5933 C5950 0.940 . S
C5934 P5920 1.812 . S
C5934 C5935 1.389 . S
C5934 C5939 1.391 . S
C5935 H5921 0.941 . S
C5935 C5934 1.389 . S
C5935 C5936 1.397 . S
C5936 H5922 0.939 . S
C5936 C5935 1.397 . S
C5936 C5937 1.378 . S
C5937 C5936 1.378 . S
C5937 C5938 1.378 . S
C5938 H5923 0.940 . S
C5938 C5937 1.378 . S
C5938 C5939 1.396 . S
C5939 H5924 0.940 . S
C5939 C5934 1.391 . S
C5939 C5938 1.396 . S
C5940 P5920 1.803 . S
C5940 C5941 1.378 . S
C5940 C5945 1.400 . S
C5941 H5925 0.939 . S
C5941 C5940 1.378 . S
C5941 C5942 1.361 . S
C5942 H5926 0.942 . S
C5942 C5941 1.361 . S
C5942 C5943 1.369 . S
C5943 C5942 1.369 . S
C5943 C5944 1.404 . S
C5944 H5927 0.940 . S
C5944 C5943 1.404 . S
C5944 C5945 1.389 . S
C5945 H5928 0.939 . S
C5945 C5940 1.400 . S
C5945 C5944 1.389 . S
C5946 P5920 1.819 . S
C5946 C5947 1.391 . S
C5946 C5951 1.391 . S
C5947 H5929 0.941 . S
C5947 C5946 1.391 . S
C5947 C5948 1.396 . S
C5948 H5932 0.939 . S
C5948 C5947 1.396 . S
C5948 C5949 1.397 . S
C5949 C5948 1.397 . S
C5949 C5950 1.385 . S
C5950 H5933 0.940 . S
C5950 C5949 1.385 . S
C5950 C5951 1.388 . S
C5951 H5930 0.939 . S
C5951 C5946 1.391 . S
C5951 C5950 1.388 . S
P5952 O5963 1.490 . S
P5952 C5966 1.812 . S
P5952 C5972 1.803 . S
P5952 C5978 1.819 . S
H5953 C5967 0.941 . S
H5954 C5968 0.939 . S
H5955 C5970 0.940 . S
H5956 C5971 0.940 . S
H5957 C5973 0.939 . S
H5958 C5974 0.942 . S
H5959 C5976 0.940 . S
H5960 C5977 0.939 . S
H5961 C5979 0.941 . S
H5962 C5983 0.939 . S
O5963 P5952 1.490 . S
H5964 C5980 0.939 . S
H5965 C5982 0.940 . S
C5966 P5952 1.812 . S
C5966 C5967 1.389 . S
C5966 C5971 1.391 . S
C5967 H5953 0.941 . S
C5967 C5966 1.389 . S
C5967 C5968 1.397 . S
C5968 H5954 0.939 . S
C5968 C5967 1.397 . S
C5968 C5969 1.378 . S
C5969 C5968 1.378 . S
C5969 C5970 1.378 . S
C5970 H5955 0.940 . S
C5970 C5969 1.378 . S
C5970 C5971 1.396 . S
C5971 H5956 0.940 . S
C5971 C5966 1.391 . S
C5971 C5970 1.396 . S
C5972 P5952 1.803 . S
C5972 C5973 1.378 . S
C5972 C5977 1.400 . S
C5973 H5957 0.939 . S
C5973 C5972 1.378 . S
C5973 C5974 1.361 . S
C5974 H5958 0.942 . S
C5974 C5973 1.361 . S
C5974 C5975 1.369 . S
C5975 C5974 1.369 . S
C5975 C5976 1.404 . S
C5976 H5959 0.940 . S
C5976 C5975 1.404 . S
C5976 C5977 1.389 . S
C5977 H5960 0.939 . S
C5977 C5972 1.400 . S
C5977 C5976 1.389 . S
C5978 P5952 1.819 . S
C5978 C5979 1.391 . S
C5978 C5983 1.391 . S
C5979 H5961 0.941 . S
C5979 C5978 1.391 . S
C5979 C5980 1.396 . S
C5980 H5964 0.939 . S
C5980 C5979 1.396 . S
C5980 C5981 1.397 . S
C5981 C5980 1.397 . S
C5981 C5982 1.385 . S
C5982 H5965 0.940 . S
C5982 C5981 1.385 . S
C5982 C5983 1.388 . S
C5983 H5962 0.939 . S
C5983 C5978 1.391 . S
C5983 C5982 1.388 . S
P5984 O5995 1.490 . S
P5984 C5998 1.812 . S
P5984 C6004 1.803 . S
P5984 C6010 1.819 . S
H5985 C5999 0.941 . S
H5986 C6000 0.939 . S
H5987 C6002 0.940 . S
H5988 C6003 0.940 . S
H5989 C6005 0.939 . S
H5990 C6006 0.942 . S
H5991 C6008 0.940 . S
H5992 C6009 0.939 . S
H5993 C6011 0.941 . S
H5994 C6015 0.939 . S
O5995 P5984 1.490 . S
H5996 C6012 0.939 . S
H5997 C6014 0.940 . S
C5998 P5984 1.812 . S
C5998 C5999 1.389 . S
C5998 C6003 1.391 . S
C5999 H5985 0.941 . S
C5999 C5998 1.389 . S
C5999 C6000 1.397 . S
C6000 H5986 0.939 . S
C6000 C5999 1.397 . S
C6000 C6001 1.378 . S
C6001 C6000 1.378 . S
C6001 C6002 1.378 . S
C6002 H5987 0.940 . S
C6002 C6001 1.378 . S
C6002 C6003 1.396 . S
C6003 H5988 0.940 . S
C6003 C5998 1.391 . S
C6003 C6002 1.396 . S
C6004 P5984 1.803 . S
C6004 C6005 1.378 . S
C6004 C6009 1.400 . S
C6005 H5989 0.939 . S
C6005 C6004 1.378 . S
C6005 C6006 1.361 . S
C6006 H5990 0.942 . S
C6006 C6005 1.361 . S
C6006 C6007 1.369 . S
C6007 C6006 1.369 . S
C6007 C6008 1.404 . S
C6008 H5991 0.940 . S
C6008 C6007 1.404 . S
C6008 C6009 1.389 . S
C6009 H5992 0.939 . S
C6009 C6004 1.400 . S
C6009 C6008 1.389 . S
C6010 P5984 1.819 . S
C6010 C6011 1.391 . S
C6010 C6015 1.391 . S
C6011 H5993 0.941 . S
C6011 C6010 1.391 . S
C6011 C6012 1.396 . S
C6012 H5996 0.939 . S
C6012 C6011 1.396 . S
C6012 C6013 1.397 . S
C6013 C6012 1.397 . S
C6013 C6014 1.385 . S
C6014 H5997 0.940 . S
C6014 C6013 1.385 . S
C6014 C6015 1.388 . S
C6015 H5994 0.939 . S
C6015 C6010 1.391 . S
C6015 C6014 1.388 . S
P6016 O6027 1.490 . S
P6016 C6030 1.812 . S
P6016 C6036 1.803 . S
P6016 C6042 1.819 . S
H6017 C6031 0.941 . S
H6018 C6032 0.939 . S
H6019 C6034 0.940 . S
H6020 C6035 0.940 . S
H6021 C6037 0.939 . S
H6022 C6038 0.942 . S
H6023 C6040 0.940 . S
H6024 C6041 0.939 . S
H6025 C6043 0.941 . S
H6026 C6047 0.939 . S
O6027 P6016 1.490 . S
H6028 C6044 0.939 . S
H6029 C6046 0.940 . S
C6030 P6016 1.812 . S
C6030 C6031 1.389 . S
C6030 C6035 1.391 . S
C6031 H6017 0.941 . S
C6031 C6030 1.389 . S
C6031 C6032 1.397 . S
C6032 H6018 0.939 . S
C6032 C6031 1.397 . S
C6032 C6033 1.378 . S
C6033 C6032 1.378 . S
C6033 C6034 1.378 . S
C6034 H6019 0.940 . S
C6034 C6033 1.378 . S
C6034 C6035 1.396 . S
C6035 H6020 0.940 . S
C6035 C6030 1.391 . S
C6035 C6034 1.396 . S
C6036 P6016 1.803 . S
C6036 C6037 1.378 . S
C6036 C6041 1.400 . S
C6037 H6021 0.939 . S
C6037 C6036 1.378 . S
C6037 C6038 1.361 . S
C6038 H6022 0.942 . S
C6038 C6037 1.361 . S
C6038 C6039 1.369 . S
C6039 C6038 1.369 . S
C6039 C6040 1.404 . S
C6040 H6023 0.940 . S
C6040 C6039 1.404 . S
C6040 C6041 1.389 . S
C6041 H6024 0.939 . S
C6041 C6036 1.400 . S
C6041 C6040 1.389 . S
C6042 P6016 1.819 . S
C6042 C6043 1.391 . S
C6042 C6047 1.391 . S
C6043 H6025 0.941 . S
C6043 C6042 1.391 . S
C6043 C6044 1.396 . S
C6044 H6028 0.939 . S
C6044 C6043 1.396 . S
C6044 C6045 1.397 . S
C6045 C6044 1.397 . S
C6045 C6046 1.385 . S
C6046 H6029 0.940 . S
C6046 C6045 1.385 . S
C6046 C6047 1.388 . S
C6047 H6026 0.939 . S
C6047 C6042 1.391 . S
C6047 C6046 1.388 . S
P6048 O6059 1.490 . S
P6048 C6062 1.812 . S
P6048 C6068 1.803 . S
P6048 C6074 1.819 . S
H6049 C6063 0.941 . S
H6050 C6064 0.939 . S
H6051 C6066 0.940 . S
H6052 C6067 0.940 . S
H6053 C6069 0.939 . S
H6054 C6070 0.942 . S
H6055 C6072 0.940 . S
H6056 C6073 0.939 . S
H6057 C6075 0.941 . S
H6058 C6079 0.939 . S
O6059 P6048 1.490 . S
H6060 C6076 0.939 . S
H6061 C6078 0.940 . S
C6062 P6048 1.812 . S
C6062 C6063 1.389 . S
C6062 C6067 1.391 . S
C6063 H6049 0.941 . S
C6063 C6062 1.389 . S
C6063 C6064 1.397 . S
C6064 H6050 0.939 . S
C6064 C6063 1.397 . S
C6064 C6065 1.378 . S
C6065 C6064 1.378 . S
C6065 C6066 1.378 . S
C6066 H6051 0.940 . S
C6066 C6065 1.378 . S
C6066 C6067 1.396 . S
C6067 H6052 0.940 . S
C6067 C6062 1.391 . S
C6067 C6066 1.396 . S
C6068 P6048 1.803 . S
C6068 C6069 1.378 . S
C6068 C6073 1.400 . S
C6069 H6053 0.939 . S
C6069 C6068 1.378 . S
C6069 C6070 1.361 . S
C6070 H6054 0.942 . S
C6070 C6069 1.361 . S
C6070 C6071 1.369 . S
C6071 C6070 1.369 . S
C6071 C6072 1.404 . S
C6072 H6055 0.940 . S
C6072 C6071 1.404 . S
C6072 C6073 1.389 . S
C6073 H6056 0.939 . S
C6073 C6068 1.400 . S
C6073 C6072 1.389 . S
C6074 P6048 1.819 . S
C6074 C6075 1.391 . S
C6074 C6079 1.391 . S
C6075 H6057 0.941 . S
C6075 C6074 1.391 . S
C6075 C6076 1.396 . S
C6076 H6060 0.939 . S
C6076 C6075 1.396 . S
C6076 C6077 1.397 . S
C6077 C6076 1.397 . S
C6077 C6078 1.385 . S
C6078 H6061 0.940 . S
C6078 C6077 1.385 . S
C6078 C6079 1.388 . S
C6079 H6058 0.939 . S
C6079 C6074 1.391 . S
C6079 C6078 1.388 . S
P6080 O6091 1.490 . S
P6080 C6094 1.812 . S
P6080 C6100 1.803 . S
P6080 C6106 1.819 . S
H6081 C6095 0.941 . S
H6082 C6096 0.939 . S
H6083 C6098 0.940 . S
H6084 C6099 0.940 . S
H6085 C6101 0.939 . S
H6086 C6102 0.942 . S
H6087 C6104 0.940 . S
H6088 C6105 0.939 . S
H6089 C6107 0.941 . S
H6090 C6111 0.939 . S
O6091 P6080 1.490 . S
H6092 C6108 0.939 . S
H6093 C6110 0.940 . S
C6094 P6080 1.812 . S
C6094 C6095 1.389 . S
C6094 C6099 1.391 . S
C6095 H6081 0.941 . S
C6095 C6094 1.389 . S
C6095 C6096 1.397 . S
C6096 H6082 0.939 . S
C6096 C6095 1.397 . S
C6096 C6097 1.378 . S
C6097 C6096 1.378 . S
C6097 C6098 1.378 . S
C6098 H6083 0.940 . S
C6098 C6097 1.378 . S
C6098 C6099 1.396 . S
C6099 H6084 0.940 . S
C6099 C6094 1.391 . S
C6099 C6098 1.396 . S
C6100 P6080 1.803 . S
C6100 C6101 1.378 . S
C6100 C6105 1.400 . S
C6101 H6085 0.939 . S
C6101 C6100 1.378 . S
C6101 C6102 1.361 . S
C6102 H6086 0.942 . S
C6102 C6101 1.361 . S
C6102 C6103 1.369 . S
C6103 C6102 1.369 . S
C6103 C6104 1.404 . S
C6104 H6087 0.940 . S
C6104 C6103 1.404 . S
C6104 C6105 1.389 . S
C6105 H6088 0.939 . S
C6105 C6100 1.400 . S
C6105 C6104 1.389 . S
C6106 P6080 1.819 . S
C6106 C6107 1.391 . S
C6106 C6111 1.391 . S
C6107 H6089 0.941 . S
C6107 C6106 1.391 . S
C6107 C6108 1.396 . S
C6108 H6092 0.939 . S
C6108 C6107 1.396 . S
C6108 C6109 1.397 . S
C6109 C6108 1.397 . S
C6109 C6110 1.385 . S
C6110 H6093 0.940 . S
C6110 C6109 1.385 . S
C6110 C6111 1.388 . S
C6111 H6090 0.939 . S
C6111 C6106 1.391 . S
C6111 C6110 1.388 . S
P6112 O6123 1.490 . S
P6112 C6126 1.812 . S
P6112 C6132 1.803 . S
P6112 C6138 1.819 . S
H6113 C6127 0.941 . S
H6114 C6128 0.939 . S
H6115 C6130 0.940 . S
H6116 C6131 0.940 . S
H6117 C6133 0.939 . S
H6118 C6134 0.942 . S
H6119 C6136 0.940 . S
H6120 C6137 0.939 . S
H6121 C6139 0.941 . S
H6122 C6143 0.939 . S
O6123 P6112 1.490 . S
H6124 C6140 0.939 . S
H6125 C6142 0.940 . S
C6126 P6112 1.812 . S
C6126 C6127 1.389 . S
C6126 C6131 1.391 . S
C6127 H6113 0.941 . S
C6127 C6126 1.389 . S
C6127 C6128 1.397 . S
C6128 H6114 0.939 . S
C6128 C6127 1.397 . S
C6128 C6129 1.378 . S
C6129 C6128 1.378 . S
C6129 C6130 1.378 . S
C6130 H6115 0.940 . S
C6130 C6129 1.378 . S
C6130 C6131 1.396 . S
C6131 H6116 0.940 . S
C6131 C6126 1.391 . S
C6131 C6130 1.396 . S
C6132 P6112 1.803 . S
C6132 C6133 1.378 . S
C6132 C6137 1.400 . S
C6133 H6117 0.939 . S
C6133 C6132 1.378 . S
C6133 C6134 1.361 . S
C6134 H6118 0.942 . S
C6134 C6133 1.361 . S
C6134 C6135 1.369 . S
C6135 C6134 1.369 . S
C6135 C6136 1.404 . S
C6136 H6119 0.940 . S
C6136 C6135 1.404 . S
C6136 C6137 1.389 . S
C6137 H6120 0.939 . S
C6137 C6132 1.400 . S
C6137 C6136 1.389 . S
C6138 P6112 1.819 . S
C6138 C6139 1.391 . S
C6138 C6143 1.391 . S
C6139 H6121 0.941 . S
C6139 C6138 1.391 . S
C6139 C6140 1.396 . S
C6140 H6124 0.939 . S
C6140 C6139 1.396 . S
C6140 C6141 1.397 . S
C6141 C6140 1.397 . S
C6141 C6142 1.385 . S
C6142 H6125 0.940 . S
C6142 C6141 1.385 . S
C6142 C6143 1.388 . S
C6143 H6122 0.939 . S
C6143 C6138 1.391 . S
C6143 C6142 1.388 . S
P6144 O6155 1.490 . S
P6144 C6158 1.812 . S
P6144 C6164 1.803 . S
P6144 C6170 1.819 . S
H6145 C6159 0.941 . S
H6146 C6160 0.939 . S
H6147 C6162 0.940 . S
H6148 C6163 0.940 . S
H6149 C6165 0.939 . S
H6150 C6166 0.942 . S
H6151 C6168 0.940 . S
H6152 C6169 0.939 . S
H6153 C6171 0.941 . S
H6154 C6175 0.939 . S
O6155 P6144 1.490 . S
H6156 C6172 0.939 . S
H6157 C6174 0.940 . S
C6158 P6144 1.812 . S
C6158 C6159 1.389 . S
C6158 C6163 1.391 . S
C6159 H6145 0.941 . S
C6159 C6158 1.389 . S
C6159 C6160 1.397 . S
C6160 H6146 0.939 . S
C6160 C6159 1.397 . S
C6160 C6161 1.378 . S
C6161 C6160 1.378 . S
C6161 C6162 1.378 . S
C6162 H6147 0.940 . S
C6162 C6161 1.378 . S
C6162 C6163 1.396 . S
C6163 H6148 0.940 . S
C6163 C6158 1.391 . S
C6163 C6162 1.396 . S
C6164 P6144 1.803 . S
C6164 C6165 1.378 . S
C6164 C6169 1.400 . S
C6165 H6149 0.939 . S
C6165 C6164 1.378 . S
C6165 C6166 1.361 . S
C6166 H6150 0.942 . S
C6166 C6165 1.361 . S
C6166 C6167 1.369 . S
C6167 C6166 1.369 . S
C6167 C6168 1.404 . S
C6168 H6151 0.940 . S
C6168 C6167 1.404 . S
C6168 C6169 1.389 . S
C6169 H6152 0.939 . S
C6169 C6164 1.400 . S
C6169 C6168 1.389 . S
C6170 P6144 1.819 . S
C6170 C6171 1.391 . S
C6170 C6175 1.391 . S
C6171 H6153 0.941 . S
C6171 C6170 1.391 . S
C6171 C6172 1.396 . S
C6172 H6156 0.939 . S
C6172 C6171 1.396 . S
C6172 C6173 1.397 . S
C6173 C6172 1.397 . S
C6173 C6174 1.385 . S
C6174 H6157 0.940 . S
C6174 C6173 1.385 . S
C6174 C6175 1.388 . S
C6175 H6154 0.939 . S
C6175 C6170 1.391 . S
C6175 C6174 1.388 . S
P6176 O6187 1.490 . S
P6176 C6190 1.812 . S
P6176 C6196 1.803 . S
P6176 C6202 1.819 . S
H6177 C6191 0.941 . S
H6178 C6192 0.939 . S
H6179 C6194 0.940 . S
H6180 C6195 0.940 . S
H6181 C6197 0.939 . S
H6182 C6198 0.942 . S
H6183 C6200 0.940 . S
H6184 C6201 0.939 . S
H6185 C6203 0.941 . S
H6186 C6207 0.939 . S
O6187 P6176 1.490 . S
H6188 C6204 0.939 . S
H6189 C6206 0.940 . S
C6190 P6176 1.812 . S
C6190 C6191 1.389 . S
C6190 C6195 1.391 . S
C6191 H6177 0.941 . S
C6191 C6190 1.389 . S
C6191 C6192 1.397 . S
C6192 H6178 0.939 . S
C6192 C6191 1.397 . S
C6192 C6193 1.378 . S
C6193 C6192 1.378 . S
C6193 C6194 1.378 . S
C6194 H6179 0.940 . S
C6194 C6193 1.378 . S
C6194 C6195 1.396 . S
C6195 H6180 0.940 . S
C6195 C6190 1.391 . S
C6195 C6194 1.396 . S
C6196 P6176 1.803 . S
C6196 C6197 1.378 . S
C6196 C6201 1.400 . S
C6197 H6181 0.939 . S
C6197 C6196 1.378 . S
C6197 C6198 1.361 . S
C6198 H6182 0.942 . S
C6198 C6197 1.361 . S
C6198 C6199 1.369 . S
C6199 C6198 1.369 . S
C6199 C6200 1.404 . S
C6200 H6183 0.940 . S
C6200 C6199 1.404 . S
C6200 C6201 1.389 . S
C6201 H6184 0.939 . S
C6201 C6196 1.400 . S
C6201 C6200 1.389 . S
C6202 P6176 1.819 . S
C6202 C6203 1.391 . S
C6202 C6207 1.391 . S
C6203 H6185 0.941 . S
C6203 C6202 1.391 . S
C6203 C6204 1.396 . S
C6204 H6188 0.939 . S
C6204 C6203 1.396 . S
C6204 C6205 1.397 . S
C6205 C6204 1.397 . S
C6205 C6206 1.385 . S
C6206 H6189 0.940 . S
C6206 C6205 1.385 . S
C6206 C6207 1.388 . S
C6207 H6186 0.939 . S
C6207 C6202 1.391 . S
C6207 C6206 1.388 . S
P6208 O6219 1.490 . S
P6208 C6222 1.812 . S
P6208 C6228 1.803 . S
P6208 C6234 1.819 . S
H6209 C6223 0.941 . S
H6210 C6224 0.939 . S
H6211 C6226 0.940 . S
H6212 C6227 0.940 . S
H6213 C6229 0.939 . S
H6214 C6230 0.942 . S
H6215 C6232 0.940 . S
H6216 C6233 0.939 . S
H6217 C6235 0.941 . S
H6218 C6239 0.939 . S
O6219 P6208 1.490 . S
H6220 C6236 0.939 . S
H6221 C6238 0.940 . S
C6222 P6208 1.812 . S
C6222 C6223 1.389 . S
C6222 C6227 1.391 . S
C6223 H6209 0.941 . S
C6223 C6222 1.389 . S
C6223 C6224 1.397 . S
C6224 H6210 0.939 . S
C6224 C6223 1.397 . S
C6224 C6225 1.378 . S
C6225 C6224 1.378 . S
C6225 C6226 1.378 . S
C6226 H6211 0.940 . S
C6226 C6225 1.378 . S
C6226 C6227 1.396 . S
C6227 H6212 0.940 . S
C6227 C6222 1.391 . S
C6227 C6226 1.396 . S
C6228 P6208 1.803 . S
C6228 C6229 1.378 . S
C6228 C6233 1.400 . S
C6229 H6213 0.939 . S
C6229 C6228 1.378 . S
C6229 C6230 1.361 . S
C6230 H6214 0.942 . S
C6230 C6229 1.361 . S
C6230 C6231 1.369 . S
C6231 C6230 1.369 . S
C6231 C6232 1.404 . S
C6232 H6215 0.940 . S
C6232 C6231 1.404 . S
C6232 C6233 1.389 . S
C6233 H6216 0.939 . S
C6233 C6228 1.400 . S
C6233 C6232 1.389 . S
C6234 P6208 1.819 . S
C6234 C6235 1.391 . S
C6234 C6239 1.391 . S
C6235 H6217 0.941 . S
C6235 C6234 1.391 . S
C6235 C6236 1.396 . S
C6236 H6220 0.939 . S
C6236 C6235 1.396 . S
C6236 C6237 1.397 . S
C6237 C6236 1.397 . S
C6237 C6238 1.385 . S
C6238 H6221 0.940 . S
C6238 C6237 1.385 . S
C6238 C6239 1.388 . S
C6239 H6218 0.939 . S
C6239 C6234 1.391 . S
C6239 C6238 1.388 . S
P6240 O6251 1.490 . S
P6240 C6254 1.812 . S
P6240 C6260 1.803 . S
P6240 C6266 1.819 . S
H6241 C6255 0.941 . S
H6242 C6256 0.939 . S
H6243 C6258 0.940 . S
H6244 C6259 0.940 . S
H6245 C6261 0.939 . S
H6246 C6262 0.942 . S
H6247 C6264 0.940 . S
H6248 C6265 0.939 . S
H6249 C6267 0.941 . S
H6250 C6271 0.939 . S
O6251 P6240 1.490 . S
H6252 C6268 0.939 . S
H6253 C6270 0.940 . S
C6254 P6240 1.812 . S
C6254 C6255 1.389 . S
C6254 C6259 1.391 . S
C6255 H6241 0.941 . S
C6255 C6254 1.389 . S
C6255 C6256 1.397 . S
C6256 H6242 0.939 . S
C6256 C6255 1.397 . S
C6256 C6257 1.378 . S
C6257 C6256 1.378 . S
C6257 C6258 1.378 . S
C6258 H6243 0.940 . S
C6258 C6257 1.378 . S
C6258 C6259 1.396 . S
C6259 H6244 0.940 . S
C6259 C6254 1.391 . S
C6259 C6258 1.396 . S
C6260 P6240 1.803 . S
C6260 C6261 1.378 . S
C6260 C6265 1.400 . S
C6261 H6245 0.939 . S
C6261 C6260 1.378 . S
C6261 C6262 1.361 . S
C6262 H6246 0.942 . S
C6262 C6261 1.361 . S
C6262 C6263 1.369 . S
C6263 C6262 1.369 . S
C6263 C6264 1.404 . S
C6264 H6247 0.940 . S
C6264 C6263 1.404 . S
C6264 C6265 1.389 . S
C6265 H6248 0.939 . S
C6265 C6260 1.400 . S
C6265 C6264 1.389 . S
C6266 P6240 1.819 . S
C6266 C6267 1.391 . S
C6266 C6271 1.391 . S
C6267 H6249 0.941 . S
C6267 C6266 1.391 . S
C6267 C6268 1.396 . S
C6268 H6252 0.939 . S
C6268 C6267 1.396 . S
C6268 C6269 1.397 . S
C6269 C6268 1.397 . S
C6269 C6270 1.385 . S
C6270 H6253 0.940 . S
C6270 C6269 1.385 . S
C6270 C6271 1.388 . S
C6271 H6250 0.939 . S
C6271 C6266 1.391 . S
C6271 C6270 1.388 . S
P6272 O6283 1.490 . S
P6272 C6286 1.812 . S
P6272 C6292 1.803 . S
P6272 C6298 1.819 . S
H6273 C6287 0.941 . S
H6274 C6288 0.939 . S
H6275 C6290 0.940 . S
H6276 C6291 0.940 . S
H6277 C6293 0.939 . S
H6278 C6294 0.942 . S
H6279 C6296 0.940 . S
H6280 C6297 0.939 . S
H6281 C6299 0.941 . S
H6282 C6303 0.939 . S
O6283 P6272 1.490 . S
H6284 C6300 0.939 . S
H6285 C6302 0.940 . S
C6286 P6272 1.812 . S
C6286 C6287 1.389 . S
C6286 C6291 1.391 . S
C6287 H6273 0.941 . S
C6287 C6286 1.389 . S
C6287 C6288 1.397 . S
C6288 H6274 0.939 . S
C6288 C6287 1.397 . S
C6288 C6289 1.378 . S
C6289 C6288 1.378 . S
C6289 C6290 1.378 . S
C6290 H6275 0.940 . S
C6290 C6289 1.378 . S
C6290 C6291 1.396 . S
C6291 H6276 0.940 . S
C6291 C6286 1.391 . S
C6291 C6290 1.396 . S
C6292 P6272 1.803 . S
C6292 C6293 1.378 . S
C6292 C6297 1.400 . S
C6293 H6277 0.939 . S
C6293 C6292 1.378 . S
C6293 C6294 1.361 . S
C6294 H6278 0.942 . S
C6294 C6293 1.361 . S
C6294 C6295 1.369 . S
C6295 C6294 1.369 . S
C6295 C6296 1.404 . S
C6296 H6279 0.940 . S
C6296 C6295 1.404 . S
C6296 C6297 1.389 . S
C6297 H6280 0.939 . S
C6297 C6292 1.400 . S
C6297 C6296 1.389 . S
C6298 P6272 1.819 . S
C6298 C6299 1.391 . S
C6298 C6303 1.391 . S
C6299 H6281 0.941 . S
C6299 C6298 1.391 . S
C6299 C6300 1.396 . S
C6300 H6284 0.939 . S
C6300 C6299 1.396 . S
C6300 C6301 1.397 . S
C6301 C6300 1.397 . S
C6301 C6302 1.385 . S
C6302 H6285 0.940 . S
C6302 C6301 1.385 . S
C6302 C6303 1.388 . S
C6303 H6282 0.939 . S
C6303 C6298 1.391 . S
C6303 C6302 1.388 . S
P6304 O6315 1.490 . S
P6304 C6318 1.812 . S
P6304 C6324 1.803 . S
P6304 C6330 1.819 . S
H6305 C6319 0.941 . S
H6306 C6320 0.939 . S
H6307 C6322 0.940 . S
H6308 C6323 0.940 . S
H6309 C6325 0.939 . S
H6310 C6326 0.942 . S
H6311 C6328 0.940 . S
H6312 C6329 0.939 . S
H6313 C6331 0.941 . S
H6314 C6335 0.939 . S
O6315 P6304 1.490 . S
H6316 C6332 0.939 . S
H6317 C6334 0.940 . S
C6318 P6304 1.812 . S
C6318 C6319 1.389 . S
C6318 C6323 1.391 . S
C6319 H6305 0.941 . S
C6319 C6318 1.389 . S
C6319 C6320 1.397 . S
C6320 H6306 0.939 . S
C6320 C6319 1.397 . S
C6320 C6321 1.378 . S
C6321 C6320 1.378 . S
C6321 C6322 1.378 . S
C6322 H6307 0.940 . S
C6322 C6321 1.378 . S
C6322 C6323 1.396 . S
C6323 H6308 0.940 . S
C6323 C6318 1.391 . S
C6323 C6322 1.396 . S
C6324 P6304 1.803 . S
C6324 C6325 1.378 . S
C6324 C6329 1.400 . S
C6325 H6309 0.939 . S
C6325 C6324 1.378 . S
C6325 C6326 1.361 . S
C6326 H6310 0.942 . S
C6326 C6325 1.361 . S
C6326 C6327 1.369 . S
C6327 C6326 1.369 . S
C6327 C6328 1.404 . S
C6328 H6311 0.940 . S
C6328 C6327 1.404 . S
C6328 C6329 1.389 . S
C6329 H6312 0.939 . S
C6329 C6324 1.400 . S
C6329 C6328 1.389 . S
C6330 P6304 1.819 . S
C6330 C6331 1.391 . S
C6330 C6335 1.391 . S
C6331 H6313 0.941 . S
C6331 C6330 1.391 . S
C6331 C6332 1.396 . S
C6332 H6316 0.939 . S
C6332 C6331 1.396 . S
C6332 C6333 1.397 . S
C6333 C6332 1.397 . S
C6333 C6334 1.385 . S
C6334 H6317 0.940 . S
C6334 C6333 1.385 . S
C6334 C6335 1.388 . S
C6335 H6314 0.939 . S
C6335 C6330 1.391 . S
C6335 C6334 1.388 . S
P6336 O6347 1.490 . S
P6336 C6350 1.812 . S
P6336 C6356 1.803 . S
P6336 C6362 1.819 . S
H6337 C6351 0.941 . S
H6338 C6352 0.939 . S
H6339 C6354 0.940 . S
H6340 C6355 0.940 . S
H6341 C6357 0.939 . S
H6342 C6358 0.942 . S
H6343 C6360 0.940 . S
H6344 C6361 0.939 . S
H6345 C6363 0.941 . S
H6346 C6367 0.939 . S
O6347 P6336 1.490 . S
H6348 C6364 0.939 . S
H6349 C6366 0.940 . S
C6350 P6336 1.812 . S
C6350 C6351 1.389 . S
C6350 C6355 1.391 . S
C6351 H6337 0.941 . S
C6351 C6350 1.389 . S
C6351 C6352 1.397 . S
C6352 H6338 0.939 . S
C6352 C6351 1.397 . S
C6352 C6353 1.378 . S
C6353 C6352 1.378 . S
C6353 C6354 1.378 . S
C6354 H6339 0.940 . S
C6354 C6353 1.378 . S
C6354 C6355 1.396 . S
C6355 H6340 0.940 . S
C6355 C6350 1.391 . S
C6355 C6354 1.396 . S
C6356 P6336 1.803 . S
C6356 C6357 1.378 . S
C6356 C6361 1.400 . S
C6357 H6341 0.939 . S
C6357 C6356 1.378 . S
C6357 C6358 1.361 . S
C6358 H6342 0.942 . S
C6358 C6357 1.361 . S
C6358 C6359 1.369 . S
C6359 C6358 1.369 . S
C6359 C6360 1.404 . S
C6360 H6343 0.940 . S
C6360 C6359 1.404 . S
C6360 C6361 1.389 . S
C6361 H6344 0.939 . S
C6361 C6356 1.400 . S
C6361 C6360 1.389 . S
C6362 P6336 1.819 . S
C6362 C6363 1.391 . S
C6362 C6367 1.391 . S
C6363 H6345 0.941 . S
C6363 C6362 1.391 . S
C6363 C6364 1.396 . S
C6364 H6348 0.939 . S
C6364 C6363 1.396 . S
C6364 C6365 1.397 . S
C6365 C6364 1.397 . S
C6365 C6366 1.385 . S
C6366 H6349 0.940 . S
C6366 C6365 1.385 . S
C6366 C6367 1.388 . S
C6367 H6346 0.939 . S
C6367 C6362 1.391 . S
C6367 C6366 1.388 . S
P6368 O6379 1.490 . S
P6368 C6382 1.812 . S
P6368 C6388 1.803 . S
P6368 C6394 1.819 . S
H6369 C6383 0.941 . S
H6370 C6384 0.939 . S
H6371 C6386 0.940 . S
H6372 C6387 0.940 . S
H6373 C6389 0.939 . S
H6374 C6390 0.942 . S
H6375 C6392 0.940 . S
H6376 C6393 0.939 . S
H6377 C6395 0.941 . S
H6378 C6399 0.939 . S
O6379 P6368 1.490 . S
H6380 C6396 0.939 . S
H6381 C6398 0.940 . S
C6382 P6368 1.812 . S
C6382 C6383 1.389 . S
C6382 C6387 1.391 . S
C6383 H6369 0.941 . S
C6383 C6382 1.389 . S
C6383 C6384 1.397 . S
C6384 H6370 0.939 . S
C6384 C6383 1.397 . S
C6384 C6385 1.378 . S
C6385 C6384 1.378 . S
C6385 C6386 1.378 . S
C6386 H6371 0.940 . S
C6386 C6385 1.378 . S
C6386 C6387 1.396 . S
C6387 H6372 0.940 . S
C6387 C6382 1.391 . S
C6387 C6386 1.396 . S
C6388 P6368 1.803 . S
C6388 C6389 1.378 . S
C6388 C6393 1.400 . S
C6389 H6373 0.939 . S
C6389 C6388 1.378 . S
C6389 C6390 1.361 . S
C6390 H6374 0.942 . S
C6390 C6389 1.361 . S
C6390 C6391 1.369 . S
C6391 C6390 1.369 . S
C6391 C6392 1.404 . S
C6392 H6375 0.940 . S
C6392 C6391 1.404 . S
C6392 C6393 1.389 . S
C6393 H6376 0.939 . S
C6393 C6388 1.400 . S
C6393 C6392 1.389 . S
C6394 P6368 1.819 . S
C6394 C6395 1.391 . S
C6394 C6399 1.391 . S
C6395 H6377 0.941 . S
C6395 C6394 1.391 . S
C6395 C6396 1.396 . S
C6396 H6380 0.939 . S
C6396 C6395 1.396 . S
C6396 C6397 1.397 . S
C6397 C6396 1.397 . S
C6397 C6398 1.385 . S
C6398 H6381 0.940 . S
C6398 C6397 1.385 . S
C6398 C6399 1.388 . S
C6399 H6378 0.939 . S
C6399 C6394 1.391 . S
C6399 C6398 1.388 . S
P6400 O6411 1.490 . S
P6400 C6414 1.812 . S
P6400 C6420 1.803 . S
P6400 C6426 1.819 . S
H6401 C6415 0.941 . S
H6402 C6416 0.939 . S
H6403 C6418 0.940 . S
H6404 C6419 0.940 . S
H6405 C6421 0.939 . S
H6406 C6422 0.942 . S
H6407 C6424 0.940 . S
H6408 C6425 0.939 . S
H6409 C6427 0.941 . S
H6410 C6431 0.939 . S
O6411 P6400 1.490 . S
H6412 C6428 0.939 . S
H6413 C6430 0.940 . S
C6414 P6400 1.812 . S
C6414 C6415 1.389 . S
C6414 C6419 1.391 . S
C6415 H6401 0.941 . S
C6415 C6414 1.389 . S
C6415 C6416 1.397 . S
C6416 H6402 0.939 . S
C6416 C6415 1.397 . S
C6416 C6417 1.378 . S
C6417 C6416 1.378 . S
C6417 C6418 1.378 . S
C6418 H6403 0.940 . S
C6418 C6417 1.378 . S
C6418 C6419 1.396 . S
C6419 H6404 0.940 . S
C6419 C6414 1.391 . S
C6419 C6418 1.396 . S
C6420 P6400 1.803 . S
C6420 C6421 1.378 . S
C6420 C6425 1.400 . S
C6421 H6405 0.939 . S
C6421 C6420 1.378 . S
C6421 C6422 1.361 . S
C6422 H6406 0.942 . S
C6422 C6421 1.361 . S
C6422 C6423 1.369 . S
C6423 C6422 1.369 . S
C6423 C6424 1.404 . S
C6424 H6407 0.940 . S
C6424 C6423 1.404 . S
C6424 C6425 1.389 . S
C6425 H6408 0.939 . S
C6425 C6420 1.400 . S
C6425 C6424 1.389 . S
C6426 P6400 1.819 . S
C6426 C6427 1.391 . S
C6426 C6431 1.391 . S
C6427 H6409 0.941 . S
C6427 C6426 1.391 . S
C6427 C6428 1.396 . S
C6428 H6412 0.939 . S
C6428 C6427 1.396 . S
C6428 C6429 1.397 . S
C6429 C6428 1.397 . S
C6429 C6430 1.385 . S
C6430 H6413 0.940 . S
C6430 C6429 1.385 . S
C6430 C6431 1.388 . S
C6431 H6410 0.939 . S
C6431 C6426 1.391 . S
C6431 C6430 1.388 . S
P6432 O6443 1.490 . S
P6432 C6446 1.812 . S
P6432 C6452 1.803 . S
P6432 C6458 1.819 . S
H6433 C6447 0.941 . S
H6434 C6448 0.939 . S
H6435 C6450 0.940 . S
H6436 C6451 0.940 . S
H6437 C6453 0.939 . S
H6438 C6454 0.942 . S
H6439 C6456 0.940 . S
H6440 C6457 0.939 . S
H6441 C6459 0.941 . S
H6442 C6463 0.939 . S
O6443 P6432 1.490 . S
H6444 C6460 0.939 . S
H6445 C6462 0.940 . S
C6446 P6432 1.812 . S
C6446 C6447 1.389 . S
C6446 C6451 1.391 . S
C6447 H6433 0.941 . S
C6447 C6446 1.389 . S
C6447 C6448 1.397 . S
C6448 H6434 0.939 . S
C6448 C6447 1.397 . S
C6448 C6449 1.378 . S
C6449 C6448 1.378 . S
C6449 C6450 1.378 . S
C6450 H6435 0.940 . S
C6450 C6449 1.378 . S
C6450 C6451 1.396 . S
C6451 H6436 0.940 . S
C6451 C6446 1.391 . S
C6451 C6450 1.396 . S
C6452 P6432 1.803 . S
C6452 C6453 1.378 . S
C6452 C6457 1.400 . S
C6453 H6437 0.939 . S
C6453 C6452 1.378 . S
C6453 C6454 1.361 . S
C6454 H6438 0.942 . S
C6454 C6453 1.361 . S
C6454 C6455 1.369 . S
C6455 C6454 1.369 . S
C6455 C6456 1.404 . S
C6456 H6439 0.940 . S
C6456 C6455 1.404 . S
C6456 C6457 1.389 . S
C6457 H6440 0.939 . S
C6457 C6452 1.400 . S
C6457 C6456 1.389 . S
C6458 P6432 1.819 . S
C6458 C6459 1.391 . S
C6458 C6463 1.391 . S
C6459 H6441 0.941 . S
C6459 C6458 1.391 . S
C6459 C6460 1.396 . S
C6460 H6444 0.939 . S
C6460 C6459 1.396 . S
C6460 C6461 1.397 . S
C6461 C6460 1.397 . S
C6461 C6462 1.385 . S
C6462 H6445 0.940 . S
C6462 C6461 1.385 . S
C6462 C6463 1.388 . S
C6463 H6442 0.939 . S
C6463 C6458 1.391 . S
C6463 C6462 1.388 . S
P6464 O6475 1.490 . S
P6464 C6478 1.812 . S
P6464 C6484 1.803 . S
P6464 C6490 1.819 . S
H6465 C6479 0.941 . S
H6466 C6480 0.939 . S
H6467 C6482 0.940 . S
H6468 C6483 0.940 . S
H6469 C6485 0.939 . S
H6470 C6486 0.942 . S
H6471 C6488 0.940 . S
H6472 C6489 0.939 . S
H6473 C6491 0.941 . S
H6474 C6495 0.939 . S
O6475 P6464 1.490 . S
H6476 C6492 0.939 . S
H6477 C6494 0.940 . S
C6478 P6464 1.812 . S
C6478 C6479 1.389 . S
C6478 C6483 1.391 . S
C6479 H6465 0.941 . S
C6479 C6478 1.389 . S
C6479 C6480 1.397 . S
C6480 H6466 0.939 . S
C6480 C6479 1.397 . S
C6480 C6481 1.378 . S
C6481 C6480 1.378 . S
C6481 C6482 1.378 . S
C6482 H6467 0.940 . S
C6482 C6481 1.378 . S
C6482 C6483 1.396 . S
C6483 H6468 0.940 . S
C6483 C6478 1.391 . S
C6483 C6482 1.396 . S
C6484 P6464 1.803 . S
C6484 C6485 1.378 . S
C6484 C6489 1.400 . S
C6485 H6469 0.939 . S
C6485 C6484 1.378 . S
C6485 C6486 1.361 . S
C6486 H6470 0.942 . S
C6486 C6485 1.361 . S
C6486 C6487 1.369 . S
C6487 C6486 1.369 . S
C6487 C6488 1.404 . S
C6488 H6471 0.940 . S
C6488 C6487 1.404 . S
C6488 C6489 1.389 . S
C6489 H6472 0.939 . S
C6489 C6484 1.400 . S
C6489 C6488 1.389 . S
C6490 P6464 1.819 . S
C6490 C6491 1.391 . S
C6490 C6495 1.391 . S
C6491 H6473 0.941 . S
C6491 C6490 1.391 . S
C6491 C6492 1.396 . S
C6492 H6476 0.939 . S
C6492 C6491 1.396 . S
C6492 C6493 1.397 . S
C6493 C6492 1.397 . S
C6493 C6494 1.385 . S
C6494 H6477 0.940 . S
C6494 C6493 1.385 . S
C6494 C6495 1.388 . S
C6495 H6474 0.939 . S
C6495 C6490 1.391 . S
C6495 C6494 1.388 . S
P6496 O6507 1.490 . S
P6496 C6510 1.812 . S
P6496 C6516 1.803 . S
P6496 C6522 1.819 . S
H6497 C6511 0.941 . S
H6498 C6512 0.939 . S
H6499 C6514 0.940 . S
H6500 C6515 0.940 . S
H6501 C6517 0.939 . S
H6502 C6518 0.942 . S
H6503 C6520 0.940 . S
H6504 C6521 0.939 . S
H6505 C6523 0.941 . S
H6506 C6527 0.939 . S
O6507 P6496 1.490 . S
H6508 C6524 0.939 . S
H6509 C6526 0.940 . S
C6510 P6496 1.812 . S
C6510 C6511 1.389 . S
C6510 C6515 1.391 . S
C6511 H6497 0.941 . S
C6511 C6510 1.389 . S
C6511 C6512 1.397 . S
C6512 H6498 0.939 . S
C6512 C6511 1.397 . S
C6512 C6513 1.378 . S
C6513 C6512 1.378 . S
C6513 C6514 1.378 . S
C6514 H6499 0.940 . S
C6514 C6513 1.378 . S
C6514 C6515 1.396 . S
C6515 H6500 0.940 . S
C6515 C6510 1.391 . S
C6515 C6514 1.396 . S
C6516 P6496 1.803 . S
C6516 C6517 1.378 . S
C6516 C6521 1.400 . S
C6517 H6501 0.939 . S
C6517 C6516 1.378 . S
C6517 C6518 1.361 . S
C6518 H6502 0.942 . S
C6518 C6517 1.361 . S
C6518 C6519 1.369 . S
C6519 C6518 1.369 . S
C6519 C6520 1.404 . S
C6520 H6503 0.940 . S
C6520 C6519 1.404 . S
C6520 C6521 1.389 . S
C6521 H6504 0.939 . S
C6521 C6516 1.400 . S
C6521 C6520 1.389 . S
C6522 P6496 1.819 . S
C6522 C6523 1.391 . S
C6522 C6527 1.391 . S
C6523 H6505 0.941 . S
C6523 C6522 1.391 . S
C6523 C6524 1.396 . S
C6524 H6508 0.939 . S
C6524 C6523 1.396 . S
C6524 C6525 1.397 . S
C6525 C6524 1.397 . S
C6525 C6526 1.385 . S
C6526 H6509 0.940 . S
C6526 C6525 1.385 . S
C6526 C6527 1.388 . S
C6527 H6506 0.939 . S
C6527 C6522 1.391 . S
C6527 C6526 1.388 . S
P6528 O6539 1.490 . S
P6528 C6542 1.812 . S
P6528 C6548 1.803 . S
P6528 C6554 1.819 . S
H6529 C6543 0.941 . S
H6530 C6544 0.939 . S
H6531 C6546 0.940 . S
H6532 C6547 0.940 . S
H6533 C6549 0.939 . S
H6534 C6550 0.942 . S
H6535 C6552 0.940 . S
H6536 C6553 0.939 . S
H6537 C6555 0.941 . S
H6538 C6559 0.939 . S
O6539 P6528 1.490 . S
H6540 C6556 0.939 . S
H6541 C6558 0.940 . S
C6542 P6528 1.812 . S
C6542 C6543 1.389 . S
C6542 C6547 1.391 . S
C6543 H6529 0.941 . S
C6543 C6542 1.389 . S
C6543 C6544 1.397 . S
C6544 H6530 0.939 . S
C6544 C6543 1.397 . S
C6544 C6545 1.378 . S
C6545 C6544 1.378 . S
C6545 C6546 1.378 . S
C6546 H6531 0.940 . S
C6546 C6545 1.378 . S
C6546 C6547 1.396 . S
C6547 H6532 0.940 . S
C6547 C6542 1.391 . S
C6547 C6546 1.396 . S
C6548 P6528 1.803 . S
C6548 C6549 1.378 . S
C6548 C6553 1.400 . S
C6549 H6533 0.939 . S
C6549 C6548 1.378 . S
C6549 C6550 1.361 . S
C6550 H6534 0.942 . S
C6550 C6549 1.361 . S
C6550 C6551 1.369 . S
C6551 C6550 1.369 . S
C6551 C6552 1.404 . S
C6552 H6535 0.940 . S
C6552 C6551 1.404 . S
C6552 C6553 1.389 . S
C6553 H6536 0.939 . S
C6553 C6548 1.400 . S
C6553 C6552 1.389 . S
C6554 P6528 1.819 . S
C6554 C6555 1.391 . S
C6554 C6559 1.391 . S
C6555 H6537 0.941 . S
C6555 C6554 1.391 . S
C6555 C6556 1.396 . S
C6556 H6540 0.939 . S
C6556 C6555 1.396 . S
C6556 C6557 1.397 . S
C6557 C6556 1.397 . S
C6557 C6558 1.385 . S
C6558 H6541 0.940 . S
C6558 C6557 1.385 . S
C6558 C6559 1.388 . S
C6559 H6538 0.939 . S
C6559 C6554 1.391 . S
C6559 C6558 1.388 . S
P6560 O6571 1.490 . S
P6560 C6574 1.812 . S
P6560 C6580 1.803 . S
P6560 C6586 1.819 . S
H6561 C6575 0.941 . S
H6562 C6576 0.939 . S
H6563 C6578 0.940 . S
H6564 C6579 0.940 . S
H6565 C6581 0.939 . S
H6566 C6582 0.942 . S
H6567 C6584 0.940 . S
H6568 C6585 0.939 . S
H6569 C6587 0.941 . S
H6570 C6591 0.939 . S
O6571 P6560 1.490 . S
H6572 C6588 0.939 . S
H6573 C6590 0.940 . S
C6574 P6560 1.812 . S
C6574 C6575 1.389 . S
C6574 C6579 1.391 . S
C6575 H6561 0.941 . S
C6575 C6574 1.389 . S
C6575 C6576 1.397 . S
C6576 H6562 0.939 . S
C6576 C6575 1.397 . S
C6576 C6577 1.378 . S
C6577 C6576 1.378 . S
C6577 C6578 1.378 . S
C6578 H6563 0.940 . S
C6578 C6577 1.378 . S
C6578 C6579 1.396 . S
C6579 H6564 0.940 . S
C6579 C6574 1.391 . S
C6579 C6578 1.396 . S
C6580 P6560 1.803 . S
C6580 C6581 1.378 . S
C6580 C6585 1.400 . S
C6581 H6565 0.939 . S
C6581 C6580 1.378 . S
C6581 C6582 1.361 . S
C6582 H6566 0.942 . S
C6582 C6581 1.361 . S
C6582 C6583 1.369 . S
C6583 C6582 1.369 . S
C6583 C6584 1.404 . S
C6584 H6567 0.940 . S
C6584 C6583 1.404 . S
C6584 C6585 1.389 . S
C6585 H6568 0.939 . S
C6585 C6580 1.400 . S
C6585 C6584 1.389 . S
C6586 P6560 1.819 . S
C6586 C6587 1.391 . S
C6586 C6591 1.391 . S
C6587 H6569 0.941 . S
C6587 C6586 1.391 . S
C6587 C6588 1.396 . S
C6588 H6572 0.939 . S
C6588 C6587 1.396 . S
C6588 C6589 1.397 . S
C6589 C6588 1.397 . S
C6589 C6590 1.385 . S
C6590 H6573 0.940 . S
C6590 C6589 1.385 . S
C6590 C6591 1.388 . S
C6591 H6570 0.939 . S
C6591 C6586 1.391 . S
C6591 C6590 1.388 . S
P6592 O6603 1.490 . S
P6592 C6606 1.812 . S
P6592 C6612 1.803 . S
P6592 C6618 1.819 . S
H6593 C6607 0.941 . S
H6594 C6608 0.939 . S
H6595 C6610 0.940 . S
H6596 C6611 0.940 . S
H6597 C6613 0.939 . S
H6598 C6614 0.942 . S
H6599 C6616 0.940 . S
H6600 C6617 0.939 . S
H6601 C6619 0.941 . S
H6602 C6623 0.939 . S
O6603 P6592 1.490 . S
H6604 C6620 0.939 . S
H6605 C6622 0.940 . S
C6606 P6592 1.812 . S
C6606 C6607 1.389 . S
C6606 C6611 1.391 . S
C6607 H6593 0.941 . S
C6607 C6606 1.389 . S
C6607 C6608 1.397 . S
C6608 H6594 0.939 . S
C6608 C6607 1.397 . S
C6608 C6609 1.378 . S
C6609 C6608 1.378 . S
C6609 C6610 1.378 . S
C6610 H6595 0.940 . S
C6610 C6609 1.378 . S
C6610 C6611 1.396 . S
C6611 H6596 0.940 . S
C6611 C6606 1.391 . S
C6611 C6610 1.396 . S
C6612 P6592 1.803 . S
C6612 C6613 1.378 . S
C6612 C6617 1.400 . S
C6613 H6597 0.939 . S
C6613 C6612 1.378 . S
C6613 C6614 1.361 . S
C6614 H6598 0.942 . S
C6614 C6613 1.361 . S
C6614 C6615 1.369 . S
C6615 C6614 1.369 . S
C6615 C6616 1.404 . S
C6616 H6599 0.940 . S
C6616 C6615 1.404 . S
C6616 C6617 1.389 . S
C6617 H6600 0.939 . S
C6617 C6612 1.400 . S
C6617 C6616 1.389 . S
C6618 P6592 1.819 . S
C6618 C6619 1.391 . S
C6618 C6623 1.391 . S
C6619 H6601 0.941 . S
C6619 C6618 1.391 . S
C6619 C6620 1.396 . S
C6620 H6604 0.939 . S
C6620 C6619 1.396 . S
C6620 C6621 1.397 . S
C6621 C6620 1.397 . S
C6621 C6622 1.385 . S
C6622 H6605 0.940 . S
C6622 C6621 1.385 . S
C6622 C6623 1.388 . S
C6623 H6602 0.939 . S
C6623 C6618 1.391 . S
C6623 C6622 1.388 . S
P6624 O6635 1.490 . S
P6624 C6638 1.812 . S
P6624 C6644 1.803 . S
P6624 C6650 1.819 . S
H6625 C6639 0.941 . S
H6626 C6640 0.939 . S
H6627 C6642 0.940 . S
H6628 C6643 0.940 . S
H6629 C6645 0.939 . S
H6630 C6646 0.942 . S
H6631 C6648 0.940 . S
H6632 C6649 0.939 . S
H6633 C6651 0.941 . S
H6634 C6655 0.939 . S
O6635 P6624 1.490 . S
H6636 C6652 0.939 . S
H6637 C6654 0.940 . S
C6638 P6624 1.812 . S
C6638 C6639 1.389 . S
C6638 C6643 1.391 . S
C6639 H6625 0.941 . S
C6639 C6638 1.389 . S
C6639 C6640 1.397 . S
C6640 H6626 0.939 . S
C6640 C6639 1.397 . S
C6640 C6641 1.378 . S
C6641 C6640 1.378 . S
C6641 C6642 1.378 . S
C6642 H6627 0.940 . S
C6642 C6641 1.378 . S
C6642 C6643 1.396 . S
C6643 H6628 0.940 . S
C6643 C6638 1.391 . S
C6643 C6642 1.396 . S
C6644 P6624 1.803 . S
C6644 C6645 1.378 . S
C6644 C6649 1.400 . S
C6645 H6629 0.939 . S
C6645 C6644 1.378 . S
C6645 C6646 1.361 . S
C6646 H6630 0.942 . S
C6646 C6645 1.361 . S
C6646 C6647 1.369 . S
C6647 C6646 1.369 . S
C6647 C6648 1.404 . S
C6648 H6631 0.940 . S
C6648 C6647 1.404 . S
C6648 C6649 1.389 . S
C6649 H6632 0.939 . S
C6649 C6644 1.400 . S
C6649 C6648 1.389 . S
C6650 P6624 1.819 . S
C6650 C6651 1.391 . S
C6650 C6655 1.391 . S
C6651 H6633 0.941 . S
C6651 C6650 1.391 . S
C6651 C6652 1.396 . S
C6652 H6636 0.939 . S
C6652 C6651 1.396 . S
C6652 C6653 1.397 . S
C6653 C6652 1.397 . S
C6653 C6654 1.385 . S
C6654 H6637 0.940 . S
C6654 C6653 1.385 . S
C6654 C6655 1.388 . S
C6655 H6634 0.939 . S
C6655 C6650 1.391 . S
C6655 C6654 1.388 . S
P6656 O6667 1.490 . S
P6656 C6670 1.812 . S
P6656 C6676 1.803 . S
P6656 C6682 1.819 . S
H6657 C6671 0.941 . S
H6658 C6672 0.939 . S
H6659 C6674 0.940 . S
H6660 C6675 0.940 . S
H6661 C6677 0.939 . S
H6662 C6678 0.942 . S
H6663 C6680 0.940 . S
H6664 C6681 0.939 . S
H6665 C6683 0.941 . S
H6666 C6687 0.939 . S
O6667 P6656 1.490 . S
H6668 C6684 0.939 . S
H6669 C6686 0.940 . S
C6670 P6656 1.812 . S
C6670 C6671 1.389 . S
C6670 C6675 1.391 . S
C6671 H6657 0.941 . S
C6671 C6670 1.389 . S
C6671 C6672 1.397 . S
C6672 H6658 0.939 . S
C6672 C6671 1.397 . S
C6672 C6673 1.378 . S
C6673 C6672 1.378 . S
C6673 C6674 1.378 . S
C6674 H6659 0.940 . S
C6674 C6673 1.378 . S
C6674 C6675 1.396 . S
C6675 H6660 0.940 . S
C6675 C6670 1.391 . S
C6675 C6674 1.396 . S
C6676 P6656 1.803 . S
C6676 C6677 1.378 . S
C6676 C6681 1.400 . S
C6677 H6661 0.939 . S
C6677 C6676 1.378 . S
C6677 C6678 1.361 . S
C6678 H6662 0.942 . S
C6678 C6677 1.361 . S
C6678 C6679 1.369 . S
C6679 C6678 1.369 . S
C6679 C6680 1.404 . S
C6680 H6663 0.940 . S
C6680 C6679 1.404 . S
C6680 C6681 1.389 . S
C6681 H6664 0.939 . S
C6681 C6676 1.400 . S
C6681 C6680 1.389 . S
C6682 P6656 1.819 . S
C6682 C6683 1.391 . S
C6682 C6687 1.391 . S
C6683 H6665 0.941 . S
C6683 C6682 1.391 . S
C6683 C6684 1.396 . S
C6684 H6668 0.939 . S
C6684 C6683 1.396 . S
C6684 C6685 1.397 . S
C6685 C6684 1.397 . S
C6685 C6686 1.385 . S
C6686 H6669 0.940 . S
C6686 C6685 1.385 . S
C6686 C6687 1.388 . S
C6687 H6666 0.939 . S
C6687 C6682 1.391 . S
C6687 C6686 1.388 . S
P6688 O6699 1.490 . S
P6688 C6702 1.812 . S
P6688 C6708 1.803 . S
P6688 C6714 1.819 . S
H6689 C6703 0.941 . S
H6690 C6704 0.939 . S
H6691 C6706 0.940 . S
H6692 C6707 0.940 . S
H6693 C6709 0.939 . S
H6694 C6710 0.942 . S
H6695 C6712 0.940 . S
H6696 C6713 0.939 . S
H6697 C6715 0.941 . S
H6698 C6719 0.939 . S
O6699 P6688 1.490 . S
H6700 C6716 0.939 . S
H6701 C6718 0.940 . S
C6702 P6688 1.812 . S
C6702 C6703 1.389 . S
C6702 C6707 1.391 . S
C6703 H6689 0.941 . S
C6703 C6702 1.389 . S
C6703 C6704 1.397 . S
C6704 H6690 0.939 . S
C6704 C6703 1.397 . S
C6704 C6705 1.378 . S
C6705 C6704 1.378 . S
C6705 C6706 1.378 . S
C6706 H6691 0.940 . S
C6706 C6705 1.378 . S
C6706 C6707 1.396 . S
C6707 H6692 0.940 . S
C6707 C6702 1.391 . S
C6707 C6706 1.396 . S
C6708 P6688 1.803 . S
C6708 C6709 1.378 . S
C6708 C6713 1.400 . S
C6709 H6693 0.939 . S
C6709 C6708 1.378 . S
C6709 C6710 1.361 . S
C6710 H6694 0.942 . S
C6710 C6709 1.361 . S
C6710 C6711 1.369 . S
C6711 C6710 1.369 . S
C6711 C6712 1.404 . S
C6712 H6695 0.940 . S
C6712 C6711 1.404 . S
C6712 C6713 1.389 . S
C6713 H6696 0.939 . S
C6713 C6708 1.400 . S
C6713 C6712 1.389 . S
C6714 P6688 1.819 . S
C6714 C6715 1.391 . S
C6714 C6719 1.391 . S
C6715 H6697 0.941 . S
C6715 C6714 1.391 . S
C6715 C6716 1.396 . S
C6716 H6700 0.939 . S
C6716 C6715 1.396 . S
C6716 C6717 1.397 . S
C6717 C6716 1.397 . S
C6717 C6718 1.385 . S
C6718 H6701 0.940 . S
C6718 C6717 1.385 . S
C6718 C6719 1.388 . S
C6719 H6698 0.939 . S
C6719 C6714 1.391 . S
C6719 C6718 1.388 . S
P6720 O6731 1.490 . S
P6720 C6734 1.812 . S
P6720 C6740 1.803 . S
P6720 C6746 1.819 . S
H6721 C6735 0.941 . S
H6722 C6736 0.939 . S
H6723 C6738 0.940 . S
H6724 C6739 0.940 . S
H6725 C6741 0.939 . S
H6726 C6742 0.942 . S
H6727 C6744 0.940 . S
H6728 C6745 0.939 . S
H6729 C6747 0.941 . S
H6730 C6751 0.939 . S
O6731 P6720 1.490 . S
H6732 C6748 0.939 . S
H6733 C6750 0.940 . S
C6734 P6720 1.812 . S
C6734 C6735 1.389 . S
C6734 C6739 1.391 . S
C6735 H6721 0.941 . S
C6735 C6734 1.389 . S
C6735 C6736 1.397 . S
C6736 H6722 0.939 . S
C6736 C6735 1.397 . S
C6736 C6737 1.378 . S
C6737 C6736 1.378 . S
C6737 C6738 1.378 . S
C6738 H6723 0.940 . S
C6738 C6737 1.378 . S
C6738 C6739 1.396 . S
C6739 H6724 0.940 . S
C6739 C6734 1.391 . S
C6739 C6738 1.396 . S
C6740 P6720 1.803 . S
C6740 C6741 1.378 . S
C6740 C6745 1.400 . S
C6741 H6725 0.939 . S
C6741 C6740 1.378 . S
C6741 C6742 1.361 . S
C6742 H6726 0.942 . S
C6742 C6741 1.361 . S
C6742 C6743 1.369 . S
C6743 C6742 1.369 . S
C6743 C6744 1.404 . S
C6744 H6727 0.940 . S
C6744 C6743 1.404 . S
C6744 C6745 1.389 . S
C6745 H6728 0.939 . S
C6745 C6740 1.400 . S
C6745 C6744 1.389 . S
C6746 P6720 1.819 . S
C6746 C6747 1.391 . S
C6746 C6751 1.391 . S
C6747 H6729 0.941 . S
C6747 C6746 1.391 . S
C6747 C6748 1.396 . S
C6748 H6732 0.939 . S
C6748 C6747 1.396 . S
C6748 C6749 1.397 . S
C6749 C6748 1.397 . S
C6749 C6750 1.385 . S
C6750 H6733 0.940 . S
C6750 C6749 1.385 . S
C6750 C6751 1.388 . S
C6751 H6730 0.939 . S
C6751 C6746 1.391 . S
C6751 C6750 1.388 . S
P6752 O6763 1.490 . S
P6752 C6766 1.812 . S
P6752 C6772 1.803 . S
P6752 C6778 1.819 . S
H6753 C6767 0.941 . S
H6754 C6768 0.939 . S
H6755 C6770 0.940 . S
H6756 C6771 0.940 . S
H6757 C6773 0.939 . S
H6758 C6774 0.942 . S
H6759 C6776 0.940 . S
H6760 C6777 0.939 . S
H6761 C6779 0.941 . S
H6762 C6783 0.939 . S
O6763 P6752 1.490 . S
H6764 C6780 0.939 . S
H6765 C6782 0.940 . S
C6766 P6752 1.812 . S
C6766 C6767 1.389 . S
C6766 C6771 1.391 . S
C6767 H6753 0.941 . S
C6767 C6766 1.389 . S
C6767 C6768 1.397 . S
C6768 H6754 0.939 . S
C6768 C6767 1.397 . S
C6768 C6769 1.378 . S
C6769 C6768 1.378 . S
C6769 C6770 1.378 . S
C6770 H6755 0.940 . S
C6770 C6769 1.378 . S
C6770 C6771 1.396 . S
C6771 H6756 0.940 . S
C6771 C6766 1.391 . S
C6771 C6770 1.396 . S
C6772 P6752 1.803 . S
C6772 C6773 1.378 . S
C6772 C6777 1.400 . S
C6773 H6757 0.939 . S
C6773 C6772 1.378 . S
C6773 C6774 1.361 . S
C6774 H6758 0.942 . S
C6774 C6773 1.361 . S
C6774 C6775 1.369 . S
C6775 C6774 1.369 . S
C6775 C6776 1.404 . S
C6776 H6759 0.940 . S
C6776 C6775 1.404 . S
C6776 C6777 1.389 . S
C6777 H6760 0.939 . S
C6777 C6772 1.400 . S
C6777 C6776 1.389 . S
C6778 P6752 1.819 . S
C6778 C6779 1.391 . S
C6778 C6783 1.391 . S
C6779 H6761 0.941 . S
C6779 C6778 1.391 . S
C6779 C6780 1.396 . S
C6780 H6764 0.939 . S
C6780 C6779 1.396 . S
C6780 C6781 1.397 . S
C6781 C6780 1.397 . S
C6781 C6782 1.385 . S
C6782 H6765 0.940 . S
C6782 C6781 1.385 . S
C6782 C6783 1.388 . S
C6783 H6762 0.939 . S
C6783 C6778 1.391 . S
C6783 C6782 1.388 . S
P6784 O6795 1.490 . S
P6784 C6798 1.812 . S
P6784 C6804 1.803 . S
P6784 C6810 1.819 . S
H6785 C6799 0.941 . S
H6786 C6800 0.939 . S
H6787 C6802 0.940 . S
H6788 C6803 0.940 . S
H6789 C6805 0.939 . S
H6790 C6806 0.942 . S
H6791 C6808 0.940 . S
H6792 C6809 0.939 . S
H6793 C6811 0.941 . S
H6794 C6815 0.939 . S
O6795 P6784 1.490 . S
H6796 C6812 0.939 . S
H6797 C6814 0.940 . S
C6798 P6784 1.812 . S
C6798 C6799 1.389 . S
C6798 C6803 1.391 . S
C6799 H6785 0.941 . S
C6799 C6798 1.389 . S
C6799 C6800 1.397 . S
C6800 H6786 0.939 . S
C6800 C6799 1.397 . S
C6800 C6801 1.378 . S
C6801 C6800 1.378 . S
C6801 C6802 1.378 . S
C6802 H6787 0.940 . S
C6802 C6801 1.378 . S
C6802 C6803 1.396 . S
C6803 H6788 0.940 . S
C6803 C6798 1.391 . S
C6803 C6802 1.396 . S
C6804 P6784 1.803 . S
C6804 C6805 1.378 . S
C6804 C6809 1.400 . S
C6805 H6789 0.939 . S
C6805 C6804 1.378 . S
C6805 C6806 1.361 . S
C6806 H6790 0.942 . S
C6806 C6805 1.361 . S
C6806 C6807 1.369 . S
C6807 C6806 1.369 . S
C6807 C6808 1.404 . S
C6808 H6791 0.940 . S
C6808 C6807 1.404 . S
C6808 C6809 1.389 . S
C6809 H6792 0.939 . S
C6809 C6804 1.400 . S
C6809 C6808 1.389 . S
C6810 P6784 1.819 . S
C6810 C6811 1.391 . S
C6810 C6815 1.391 . S
C6811 H6793 0.941 . S
C6811 C6810 1.391 . S
C6811 C6812 1.396 . S
C6812 H6796 0.939 . S
C6812 C6811 1.396 . S
C6812 C6813 1.397 . S
C6813 C6812 1.397 . S
C6813 C6814 1.385 . S
C6814 H6797 0.940 . S
C6814 C6813 1.385 . S
C6814 C6815 1.388 . S
C6815 H6794 0.939 . S
C6815 C6810 1.391 . S
C6815 C6814 1.388 . S
P6816 O6827 1.490 . S
P6816 C6830 1.812 . S
P6816 C6836 1.803 . S
P6816 C6842 1.819 . S
H6817 C6831 0.941 . S
H6818 C6832 0.939 . S
H6819 C6834 0.940 . S
H6820 C6835 0.940 . S
H6821 C6837 0.939 . S
H6822 C6838 0.942 . S
H6823 C6840 0.940 . S
H6824 C6841 0.939 . S
H6825 C6843 0.941 . S
H6826 C6847 0.939 . S
O6827 P6816 1.490 . S
H6828 C6844 0.939 . S
H6829 C6846 0.940 . S
C6830 P6816 1.812 . S
C6830 C6831 1.389 . S
C6830 C6835 1.391 . S
C6831 H6817 0.941 . S
C6831 C6830 1.389 . S
C6831 C6832 1.397 . S
C6832 H6818 0.939 . S
C6832 C6831 1.397 . S
C6832 C6833 1.378 . S
C6833 C6832 1.378 . S
C6833 C6834 1.378 . S
C6834 H6819 0.940 . S
C6834 C6833 1.378 . S
C6834 C6835 1.396 . S
C6835 H6820 0.940 . S
C6835 C6830 1.391 . S
C6835 C6834 1.396 . S
C6836 P6816 1.803 . S
C6836 C6837 1.378 . S
C6836 C6841 1.400 . S
C6837 H6821 0.939 . S
C6837 C6836 1.378 . S
C6837 C6838 1.361 . S
C6838 H6822 0.942 . S
C6838 C6837 1.361 . S
C6838 C6839 1.369 . S
C6839 C6838 1.369 . S
C6839 C6840 1.404 . S
C6840 H6823 0.940 . S
C6840 C6839 1.404 . S
C6840 C6841 1.389 . S
C6841 H6824 0.939 . S
C6841 C6836 1.400 . S
C6841 C6840 1.389 . S
C6842 P6816 1.819 . S
C6842 C6843 1.391 . S
C6842 C6847 1.391 . S
C6843 H6825 0.941 . S
C6843 C6842 1.391 . S
C6843 C6844 1.396 . S
C6844 H6828 0.939 . S
C6844 C6843 1.396 . S
C6844 C6845 1.397 . S
C6845 C6844 1.397 . S
C6845 C6846 1.385 . S
C6846 H6829 0.940 . S
C6846 C6845 1.385 . S
C6846 C6847 1.388 . S
C6847 H6826 0.939 . S
C6847 C6842 1.391 . S
C6847 C6846 1.388 . S
P6848 O6859 1.490 . S
P6848 C6862 1.812 . S
P6848 C6868 1.803 . S
P6848 C6874 1.819 . S
H6849 C6863 0.941 . S
H6850 C6864 0.939 . S
H6851 C6866 0.940 . S
H6852 C6867 0.940 . S
H6853 C6869 0.939 . S
H6854 C6870 0.942 . S
H6855 C6872 0.940 . S
H6856 C6873 0.939 . S
H6857 C6875 0.941 . S
H6858 C6879 0.939 . S
O6859 P6848 1.490 . S
H6860 C6876 0.939 . S
H6861 C6878 0.940 . S
C6862 P6848 1.812 . S
C6862 C6863 1.389 . S
C6862 C6867 1.391 . S
C6863 H6849 0.941 . S
C6863 C6862 1.389 . S
C6863 C6864 1.397 . S
C6864 H6850 0.939 . S
C6864 C6863 1.397 . S
C6864 C6865 1.378 . S
C6865 C6864 1.378 . S
C6865 C6866 1.378 . S
C6866 H6851 0.940 . S
C6866 C6865 1.378 . S
C6866 C6867 1.396 . S
C6867 H6852 0.940 . S
C6867 C6862 1.391 . S
C6867 C6866 1.396 . S
C6868 P6848 1.803 . S
C6868 C6869 1.378 . S
C6868 C6873 1.400 . S
C6869 H6853 0.939 . S
C6869 C6868 1.378 . S
C6869 C6870 1.361 . S
C6870 H6854 0.942 . S
C6870 C6869 1.361 . S
C6870 C6871 1.369 . S
C6871 C6870 1.369 . S
C6871 C6872 1.404 . S
C6872 H6855 0.940 . S
C6872 C6871 1.404 . S
C6872 C6873 1.389 . S
C6873 H6856 0.939 . S
C6873 C6868 1.400 . S
C6873 C6872 1.389 . S
C6874 P6848 1.819 . S
C6874 C6875 1.391 . S
C6874 C6879 1.391 . S
C6875 H6857 0.941 . S
C6875 C6874 1.391 . S
C6875 C6876 1.396 . S
C6876 H6860 0.939 . S
C6876 C6875 1.396 . S
C6876 C6877 1.397 . S
C6877 C6876 1.397 . S
C6877 C6878 1.385 . S
C6878 H6861 0.940 . S
C6878 C6877 1.385 . S
C6878 C6879 1.388 . S
C6879 H6858 0.939 . S
C6879 C6874 1.391 . S
C6879 C6878 1.388 . S
P6880 O6891 1.490 . S
P6880 C6894 1.812 . S
P6880 C6900 1.803 . S
P6880 C6906 1.819 . S
H6881 C6895 0.941 . S
H6882 C6896 0.939 . S
H6883 C6898 0.940 . S
H6884 C6899 0.940 . S
H6885 C6901 0.939 . S
H6886 C6902 0.942 . S
H6887 C6904 0.940 . S
H6888 C6905 0.939 . S
H6889 C6907 0.941 . S
H6890 C6911 0.939 . S
O6891 P6880 1.490 . S
H6892 C6908 0.939 . S
H6893 C6910 0.940 . S
C6894 P6880 1.812 . S
C6894 C6895 1.389 . S
C6894 C6899 1.391 . S
C6895 H6881 0.941 . S
C6895 C6894 1.389 . S
C6895 C6896 1.397 . S
C6896 H6882 0.939 . S
C6896 C6895 1.397 . S
C6896 C6897 1.378 . S
C6897 C6896 1.378 . S
C6897 C6898 1.378 . S
C6898 H6883 0.940 . S
C6898 C6897 1.378 . S
C6898 C6899 1.396 . S
C6899 H6884 0.940 . S
C6899 C6894 1.391 . S
C6899 C6898 1.396 . S
C6900 P6880 1.803 . S
C6900 C6901 1.378 . S
C6900 C6905 1.400 . S
C6901 H6885 0.939 . S
C6901 C6900 1.378 . S
C6901 C6902 1.361 . S
C6902 H6886 0.942 . S
C6902 C6901 1.361 . S
C6902 C6903 1.369 . S
C6903 C6902 1.369 . S
C6903 C6904 1.404 . S
C6904 H6887 0.940 . S
C6904 C6903 1.404 . S
C6904 C6905 1.389 . S
C6905 H6888 0.939 . S
C6905 C6900 1.400 . S
C6905 C6904 1.389 . S
C6906 P6880 1.819 . S
C6906 C6907 1.391 . S
C6906 C6911 1.391 . S
C6907 H6889 0.941 . S
C6907 C6906 1.391 . S
C6907 C6908 1.396 . S
C6908 H6892 0.939 . S
C6908 C6907 1.396 . S
C6908 C6909 1.397 . S
C6909 C6908 1.397 . S
C6909 C6910 1.385 . S
C6910 H6893 0.940 . S
C6910 C6909 1.385 . S
C6910 C6911 1.388 . S
C6911 H6890 0.939 . S
C6911 C6906 1.391 . S
C6911 C6910 1.388 . S
C6912 C6913 1.387 . S
C6912 H6916 0.950 . S
C6912 C6921 1.390 1_455 S
C6913 C6912 1.387 . S
C6913 C6915 1.387 1_455 S
H6914 C6921 0.950 . S
C6915 C6913 1.387 1_655 S
C6915 C6917 1.390 . S
C6915 H6919 0.941 1_655 S
H6916 C6912 0.950 . S
C6917 C6915 1.390 . S
C6917 C6918 1.387 . S
C6917 H6920 0.950 . S
C6918 C6917 1.387 . S
C6918 C6921 1.387 . S
H6919 C6915 0.941 1_455 S
H6920 C6917 0.950 . S
C6921 C6912 1.390 1_655 S
C6921 H6914 0.950 . S
C6921 C6918 1.387 . S
C6922 C6923 1.387 . S
C6922 H6926 0.950 . S
C6922 C6931 1.390 . S
C6923 C6922 1.387 . S
C6923 C6925 1.387 . S
H6924 C6931 0.950 . S
C6925 C6923 1.387 . S
C6925 C6927 1.390 . S
C6925 H6929 0.950 . S
H6926 C6922 0.950 . S
C6927 C6925 1.390 . S
C6927 C6928 1.387 . S
C6927 H6930 0.950 . S
C6928 C6927 1.387 . S
C6928 C6931 1.387 . S
H6929 C6925 0.950 . S
H6930 C6927 0.950 . S
C6931 C6922 1.390 . S
C6931 H6924 0.950 . S
C6931 C6928 1.387 . S
C6932 C6933 1.387 . S
C6932 H6936 0.950 . S
C6932 C6941 1.390 . S
C6933 C6932 1.387 . S
C6933 C6935 1.387 . S
H6934 C6941 0.950 . S
C6935 C6933 1.387 . S
C6935 C6937 1.390 . S
C6935 H6939 0.950 . S
H6936 C6932 0.950 . S
C6937 C6935 1.390 . S
C6937 C6938 1.387 . S
C6937 H6940 0.950 . S
C6938 C6937 1.387 . S
C6938 C6941 1.387 . S
H6939 C6935 0.950 . S
H6940 C6937 0.950 . S
C6941 C6932 1.390 . S
C6941 H6934 0.950 . S
C6941 C6938 1.387 . S
C6942 C6943 1.387 . S
C6942 H6946 0.950 . S
C6942 C6951 1.390 . S
C6943 C6942 1.387 . S
C6943 C6945 1.387 . S
H6944 C6951 0.950 . S
C6945 C6943 1.387 . S
C6945 C6947 1.390 . S
C6945 H6949 0.950 . S
H6946 C6942 0.950 . S
C6947 C6945 1.390 . S
C6947 C6948 1.387 . S
C6947 H6950 0.950 . S
C6948 C6947 1.387 . S
C6948 C6951 1.387 . S
H6949 C6945 0.950 . S
H6950 C6947 0.950 . S
C6951 C6942 1.390 . S
C6951 H6944 0.950 . S
C6951 C6948 1.387 . S
C6952 C6953 1.354 1_655 S
C6952 H6956 0.921 1_655 S
C6952 C6961 1.456 . S
C6953 C6952 1.354 1_455 S
C6953 C6955 1.393 1_455 S
H6954 C6961 0.950 . S
C6955 C6953 1.393 1_655 S
C6955 C6957 1.378 . S
C6955 H6959 0.956 1_655 S
H6956 C6952 0.921 1_455 S
C6957 C6955 1.378 . S
C6957 C6958 1.387 . S
C6957 H6960 0.950 . S
C6958 C6957 1.387 . S
C6958 C6961 1.387 . S
H6959 C6955 0.956 1_455 S
H6960 C6957 0.950 . S
C6961 C6952 1.456 . S
C6961 H6954 0.950 . S
C6961 C6958 1.387 . S
C6962 C6963 1.387 . S
C6962 H6966 0.950 . S
C6962 C6971 1.390 . S
C6963 C6962 1.387 . S
C6963 C6965 1.387 . S
H6964 C6971 0.950 . S
C6965 C6963 1.387 . S
C6965 C6967 1.390 . S
C6965 H6969 0.950 . S
H6966 C6962 0.950 . S
C6967 C6965 1.390 . S
C6967 C6968 1.387 . S
C6967 H6970 0.950 . S
C6968 C6967 1.387 . S
C6968 C6971 1.387 . S
H6969 C6965 0.950 . S
H6970 C6967 0.950 . S
C6971 C6962 1.390 . S
C6971 H6964 0.950 . S
C6971 C6968 1.387 . S
C6972 C6973 1.387 . S
C6972 H6976 0.950 . S
C6972 C6981 1.390 . S
C6973 C6972 1.387 . S
C6973 C6975 1.387 . S
H6974 C6981 0.950 . S
C6975 C6973 1.387 . S
C6975 C6977 1.390 . S
C6975 H6979 0.950 . S
H6976 C6972 0.950 . S
C6977 C6975 1.390 . S
C6977 C6978 1.387 . S
C6977 H6980 0.950 . S
C6978 C6977 1.387 . S
C6978 C6981 1.387 . S
H6979 C6975 0.950 . S
H6980 C6977 0.950 . S
C6981 C6972 1.390 . S
C6981 H6974 0.950 . S
C6981 C6978 1.387 . S
C6982 C6983 1.387 . S
C6982 H6986 0.950 . S
C6982 C6991 1.390 . S
C6983 C6982 1.387 . S
C6983 C6985 1.387 . S
H6984 C6991 0.950 . S
C6985 C6983 1.387 . S
C6985 C6987 1.390 . S
C6985 H6989 0.950 . S
H6986 C6982 0.950 . S
C6987 C6985 1.390 . S
C6987 C6988 1.387 . S
C6987 H6990 0.950 . S
C6988 C6987 1.387 . S
C6988 C6991 1.387 . S
H6989 C6985 0.950 . S
H6990 C6987 0.950 . S
C6991 C6982 1.390 . S
C6991 H6984 0.950 . S
C6991 C6988 1.387 . S
C6992 C6993 1.362 1_565 S
C6992 H6996 0.926 1_565 S
C6992 C7001 1.442 . S
C6993 C6992 1.362 1_545 S
C6993 C6995 1.387 1_545 S
H6994 C7001 0.950 . S
C6995 C6993 1.387 1_565 S
C6995 C6997 1.392 . S
C6995 H6999 0.949 1_565 S
H6996 C6992 0.926 1_545 S
C6997 C6995 1.392 . S
C6997 C6998 1.387 . S
C6997 H7000 0.950 . S
C6998 C6997 1.387 . S
C6998 C7001 1.387 . S
H6999 C6995 0.949 1_545 S
H7000 C6997 0.950 . S
C7001 C6992 1.442 . S
C7001 H6994 0.950 . S
C7001 C6998 1.387 . S
C7002 C7003 1.387 . S
C7002 H7006 0.950 . S
C7002 C7011 1.390 . S
C7003 C7002 1.387 . S
C7003 C7005 1.387 . S
H7004 C7011 0.950 . S
C7005 C7003 1.387 . S
C7005 C7007 1.390 . S
C7005 H7009 0.950 . S
H7006 C7002 0.950 . S
C7007 C7005 1.390 . S
C7007 C7008 1.387 . S
C7007 H7010 0.950 . S
C7008 C7007 1.387 . S
C7008 C7011 1.387 . S
H7009 C7005 0.950 . S
H7010 C7007 0.950 . S
C7011 C7002 1.390 . S
C7011 H7004 0.950 . S
C7011 C7008 1.387 . S
C7012 C7013 1.387 1_545 S
C7012 H7016 0.959 . S
C7012 C7021 1.390 . S
C7013 C7012 1.387 1_565 S
C7013 C7015 1.387 . S
H7014 C7021 0.950 . S
C7015 C7013 1.387 . S
C7015 C7017 1.390 1_565 S
C7015 H7019 0.950 . S
H7016 C7012 0.959 . S
C7017 C7015 1.390 1_545 S
C7017 C7018 1.387 . S
C7017 H7020 0.950 . S
C7018 C7017 1.387 . S
C7018 C7021 1.387 . S
H7019 C7015 0.950 . S
H7020 C7017 0.950 . S
C7021 C7012 1.390 . S
C7021 H7014 0.950 . S
C7021 C7018 1.387 . S
C7022 C7023 1.387 . S
C7022 H7026 0.950 . S
C7022 C7031 1.390 . S
C7023 C7022 1.387 . S
C7023 C7025 1.387 . S
H7024 C7031 0.950 . S
C7025 C7023 1.387 . S
C7025 C7027 1.390 . S
C7025 H7029 0.950 . S
H7026 C7022 0.950 . S
C7027 C7025 1.390 . S
C7027 C7028 1.387 . S
C7027 H7030 0.950 . S
C7028 C7027 1.387 . S
C7028 C7031 1.387 . S
H7029 C7025 0.950 . S
H7030 C7027 0.950 . S
C7031 C7022 1.390 . S
C7031 H7024 0.950 . S
C7031 C7028 1.387 . S
C7032 C7033 1.347 1_545 S
C7032 H7036 0.917 1_545 S
C7032 C7041 1.469 . S
C7033 C7032 1.347 1_565 S
C7033 C7035 1.387 . S
H7034 C7041 0.950 . S
C7035 C7033 1.387 . S
C7035 C7037 1.392 1_565 S
C7035 H7039 0.949 . S
H7036 C7032 0.917 1_565 S
C7037 C7035 1.392 1_545 S
C7037 C7038 1.387 . S
C7037 H7040 0.950 . S
C7038 C7037 1.387 . S
C7038 C7041 1.387 . S
H7039 C7035 0.949 . S
H7040 C7037 0.950 . S
C7041 C7032 1.469 . S
C7041 H7034 0.950 . S
C7041 C7038 1.387 . S
C7042 C7043 1.387 . S
C7042 H7046 0.950 . S
C7042 C7051 1.390 . S
C7043 C7042 1.387 . S
C7043 C7045 1.387 . S
H7044 C7051 0.950 . S
C7045 C7043 1.387 . S
C7045 C7047 1.390 . S
C7045 H7049 0.950 . S
H7046 C7042 0.950 . S
C7047 C7045 1.390 . S
C7047 C7048 1.387 . S
C7047 H7050 0.950 . S
C7048 C7047 1.387 . S
C7048 C7051 1.387 . S
H7049 C7045 0.950 . S
H7050 C7047 0.950 . S
C7051 C7042 1.390 . S
C7051 H7044 0.950 . S
C7051 C7048 1.387 . S
C7052 C7053 1.384 . S
C7052 H7056 0.946 . S
C7052 C7061 1.397 1_545 S
C7053 C7052 1.384 . S
C7053 C7055 1.350 1_545 S
H7054 C7061 0.950 . S
C7055 C7053 1.350 1_565 S
C7055 C7057 1.463 . S
C7055 H7059 0.919 1_565 S
H7056 C7052 0.946 . S
C7057 C7055 1.463 . S
C7057 C7058 1.387 . S
C7057 H7060 0.950 . S
C7058 C7057 1.387 . S
C7058 C7061 1.387 . S
H7059 C7055 0.919 1_545 S
H7060 C7057 0.950 . S
C7061 C7052 1.397 1_565 S
C7061 H7054 0.950 . S
C7061 C7058 1.387 . S
C7062 C7063 1.387 . S
C7062 H7066 0.950 . S
C7062 C7071 1.390 . S
C7063 C7062 1.387 . S
C7063 C7065 1.387 . S
H7064 C7071 0.950 . S
C7065 C7063 1.387 . S
C7065 C7067 1.390 . S
C7065 H7069 0.950 . S
H7066 C7062 0.950 . S
C7067 C7065 1.390 . S
C7067 C7068 1.387 . S
C7067 H7070 0.950 . S
C7068 C7067 1.387 . S
C7068 C7071 1.387 . S
H7069 C7065 0.950 . S
H7070 C7067 0.950 . S
C7071 C7062 1.390 . S
C7071 H7064 0.950 . S
C7071 C7068 1.387 . S
C7072 C7073 1.349 1_556 S
C7072 H7076 0.918 1_556 S
C7072 C7081 1.465 . S
C7073 C7072 1.349 1_554 S
C7073 C7075 1.386 . S
H7074 C7081 0.950 . S
C7075 C7073 1.386 . S
C7075 C7077 1.394 1_554 S
C7075 H7079 0.948 . S
H7076 C7072 0.918 1_554 S
C7077 C7075 1.394 1_556 S
C7077 C7078 1.387 . S
C7077 H7080 0.950 . S
C7078 C7077 1.387 . S
C7078 C7081 1.387 . S
H7079 C7075 0.948 . S
H7080 C7077 0.950 . S
C7081 C7072 1.465 . S
C7081 H7074 0.950 . S
C7081 C7078 1.387 . S
C7082 C7083 1.340 1_554 S
C7082 H7086 0.913 1_554 S
C7082 C7091 1.481 . S
C7083 C7082 1.340 1_556 S
C7083 C7085 1.393 . S
H7084 C7091 0.950 . S
C7085 C7083 1.393 . S
C7085 C7087 1.379 1_556 S
C7085 H7089 0.956 . S
H7086 C7082 0.913 1_556 S
C7087 C7085 1.379 1_554 S
C7087 C7088 1.387 . S
C7087 H7090 0.950 . S
C7088 C7087 1.387 . S
C7088 C7091 1.387 . S
H7089 C7085 0.956 . S
H7090 C7087 0.950 . S
C7091 C7082 1.481 . S
C7091 H7084 0.950 . S
C7091 C7088 1.387 . S
C7092 C7093 1.387 . S
C7092 H7096 0.950 . S
C7092 C7101 1.390 . S
C7093 C7092 1.387 . S
C7093 C7095 1.387 . S
H7094 C7101 0.950 . S
C7095 C7093 1.387 . S
C7095 C7097 1.390 . S
C7095 H7099 0.950 . S
H7096 C7092 0.950 . S
C7097 C7095 1.390 . S
C7097 C7098 1.387 . S
C7097 H7100 0.950 . S
C7098 C7097 1.387 . S
C7098 C7101 1.387 . S
H7099 C7095 0.950 . S
H7100 C7097 0.950 . S
C7101 C7092 1.390 . S
C7101 H7094 0.950 . S
C7101 C7098 1.387 . S
C7102 C7103 1.387 . S
C7102 H7106 0.950 . S
C7102 C7111 1.390 . S
C7103 C7102 1.387 . S
C7103 C7105 1.387 . S
H7104 C7111 0.950 . S
C7105 C7103 1.387 . S
C7105 C7107 1.390 . S
C7105 H7109 0.950 . S
H7106 C7102 0.950 . S
C7107 C7105 1.390 . S
C7107 C7108 1.387 . S
C7107 H7110 0.950 . S
C7108 C7107 1.387 . S
C7108 C7111 1.387 . S
H7109 C7105 0.950 . S
H7110 C7107 0.950 . S
C7111 C7102 1.390 . S
C7111 H7104 0.950 . S
C7111 C7108 1.387 . S
C7112 C7113 1.387 . S
C7112 H7116 0.950 . S
C7112 C7121 1.390 . S
C7113 C7112 1.387 . S
C7113 C7115 1.387 . S
H7114 C7121 0.950 . S
C7115 C7113 1.387 . S
C7115 C7117 1.390 . S
C7115 H7119 0.950 . S
H7116 C7112 0.950 . S
C7117 C7115 1.390 . S
C7117 C7118 1.387 . S
C7117 H7120 0.950 . S
C7118 C7117 1.387 . S
C7118 C7121 1.387 . S
H7119 C7115 0.950 . S
H7120 C7117 0.950 . S
C7121 C7112 1.390 . S
C7121 H7114 0.950 . S
C7121 C7118 1.387 . S
C7122 C7123 1.387 . S
C7122 H7126 0.950 . S
C7122 C7131 1.390 . S
C7123 C7122 1.387 . S
C7123 C7125 1.387 . S
H7124 C7131 0.950 . S
C7125 C7123 1.387 . S
C7125 C7127 1.390 . S
C7125 H7129 0.950 . S
H7126 C7122 0.950 . S
C7127 C7125 1.390 . S
C7127 C7128 1.387 . S
C7127 H7130 0.950 . S
C7128 C7127 1.387 . S
C7128 C7131 1.387 . S
H7129 C7125 0.950 . S
H7130 C7127 0.950 . S
C7131 C7122 1.390 . S
C7131 H7124 0.950 . S
C7131 C7128 1.387 . S
C7132 C7133 1.387 . S
C7132 H7136 0.950 . S
C7132 C7141 1.390 . S
C7133 C7132 1.387 . S
C7133 C7135 1.387 . S
H7134 C7141 0.950 . S
C7135 C7133 1.387 . S
C7135 C7137 1.390 . S
C7135 H7139 0.950 . S
H7136 C7132 0.950 . S
C7137 C7135 1.390 . S
C7137 C7138 1.387 . S
C7137 H7140 0.950 . S
C7138 C7137 1.387 . S
C7138 C7141 1.387 . S
H7139 C7135 0.950 . S
H7140 C7137 0.950 . S
C7141 C7132 1.390 . S
C7141 H7134 0.950 . S
C7141 C7138 1.387 . S
C7142 C7143 1.387 . S
C7142 H7146 0.950 . S
C7142 C7151 1.390 . S
C7143 C7142 1.387 . S
C7143 C7145 1.387 . S
H7144 C7151 0.950 . S
C7145 C7143 1.387 . S
C7145 C7147 1.390 . S
C7145 H7149 0.950 . S
H7146 C7142 0.950 . S
C7147 C7145 1.390 . S
C7147 C7148 1.387 . S
C7147 H7150 0.950 . S
C7148 C7147 1.387 . S
C7148 C7151 1.387 . S
H7149 C7145 0.950 . S
H7150 C7147 0.950 . S
C7151 C7142 1.390 . S
C7151 H7144 0.950 . S
C7151 C7148 1.387 . S
C7152 C7153 1.398 . S
C7152 H7156 0.964 . S
C7152 C7161 1.366 1_655 S
C7153 C7152 1.398 . S
C7153 C7155 1.333 1_655 S
H7154 C7161 0.950 . S
C7155 C7153 1.333 1_455 S
C7155 C7157 1.493 . S
C7155 H7159 0.910 1_455 S
H7156 C7152 0.964 . S
C7157 C7155 1.493 . S
C7157 C7158 1.387 . S
C7157 H7160 0.950 . S
C7158 C7157 1.387 . S
C7158 C7161 1.387 . S
H7159 C7155 0.910 1_655 S
H7160 C7157 0.950 . S
C7161 C7152 1.366 1_455 S
C7161 H7154 0.950 . S
C7161 C7158 1.387 . S
C7162 C7163 1.387 . S
C7162 H7166 0.950 . S
C7162 C7171 1.390 . S
C7163 C7162 1.387 . S
C7163 C7165 1.387 . S
H7164 C7171 0.950 . S
C7165 C7163 1.387 . S
C7165 C7167 1.390 . S
C7165 H7169 0.950 . S
H7166 C7162 0.950 . S
C7167 C7165 1.390 . S
C7167 C7168 1.387 . S
C7167 H7170 0.950 . S
C7168 C7167 1.387 . S
C7168 C7171 1.387 . S
H7169 C7165 0.950 . S
H7170 C7167 0.950 . S
C7171 C7162 1.390 . S
C7171 H7164 0.950 . S
C7171 C7168 1.387 . S
C7172 C7173 1.387 . S
C7172 H7176 0.950 . S
C7172 C7181 1.390 . S
C7173 C7172 1.387 . S
C7173 C7175 1.387 . S
H7174 C7181 0.950 . S
C7175 C7173 1.387 . S
C7175 C7177 1.390 . S
C7175 H7179 0.950 . S
H7176 C7172 0.950 . S
C7177 C7175 1.390 . S
C7177 C7178 1.387 . S
C7177 H7180 0.950 . S
C7178 C7177 1.387 . S
C7178 C7181 1.387 . S
H7179 C7175 0.950 . S
H7180 C7177 0.950 . S
C7181 C7172 1.390 . S
C7181 H7174 0.950 . S
C7181 C7178 1.387 . S
C7182 C7183 1.387 . S
C7182 H7186 0.950 . S
C7182 C7191 1.390 . S
C7183 C7182 1.387 . S
C7183 C7185 1.387 . S
H7184 C7191 0.950 . S
C7185 C7183 1.387 . S
C7185 C7187 1.390 . S
C7185 H7189 0.950 . S
H7186 C7182 0.950 . S
C7187 C7185 1.390 . S
C7187 C7188 1.387 . S
C7187 H7190 0.950 . S
C7188 C7187 1.387 . S
C7188 C7191 1.387 . S
H7189 C7185 0.950 . S
H7190 C7187 0.950 . S
C7191 C7182 1.390 . S
C7191 H7184 0.950 . S
C7191 C7188 1.387 . S
C7192 C7193 1.366 1_455 S
C7192 H7196 0.929 1_455 S
C7192 C7201 1.434 . S
C7193 C7192 1.366 1_655 S
C7193 C7195 1.385 1_655 S
H7194 C7201 0.950 . S
C7195 C7193 1.385 1_455 S
C7195 C7197 1.394 . S
C7195 H7199 0.947 1_455 S
H7196 C7192 0.929 1_655 S
C7197 C7195 1.394 . S
C7197 C7198 1.387 . S
C7197 H7200 0.950 . S
C7198 C7197 1.387 . S
C7198 C7201 1.387 . S
H7199 C7195 0.947 1_655 S
H7200 C7197 0.950 . S
C7201 C7192 1.434 . S
C7201 H7194 0.950 . S
C7201 C7198 1.387 . S
C7202 C7203 1.387 . S
C7202 H7206 0.950 . S
C7202 C7211 1.390 . S
C7203 C7202 1.387 . S
C7203 C7205 1.387 . S
H7204 C7211 0.950 . S
C7205 C7203 1.387 . S
C7205 C7207 1.390 . S
C7205 H7209 0.950 . S
H7206 C7202 0.950 . S
C7207 C7205 1.390 . S
C7207 C7208 1.387 . S
C7207 H7210 0.950 . S
C7208 C7207 1.387 . S
C7208 C7211 1.387 . S
H7209 C7205 0.950 . S
H7210 C7207 0.950 . S
C7211 C7202 1.390 . S
C7211 H7204 0.950 . S
C7211 C7208 1.387 . S
C7212 C7213 1.387 . S
C7212 H7216 0.950 . S
C7212 C7221 1.390 . S
C7213 C7212 1.387 . S
C7213 C7215 1.387 . S
H7214 C7221 0.950 . S
C7215 C7213 1.387 . S
C7215 C7217 1.390 . S
C7215 H7219 0.950 . S
H7216 C7212 0.950 . S
C7217 C7215 1.390 . S
C7217 C7218 1.387 . S
C7217 H7220 0.950 . S
C7218 C7217 1.387 . S
C7218 C7221 1.387 . S
H7219 C7215 0.950 . S
H7220 C7217 0.950 . S
C7221 C7212 1.390 . S
C7221 H7214 0.950 . S
C7221 C7218 1.387 . S
C7222 C7223 1.387 . S
C7222 H7226 0.950 . S
C7222 C7231 1.390 . S
C7223 C7222 1.387 . S
C7223 C7225 1.387 . S
H7224 C7231 0.950 . S
C7225 C7223 1.387 . S
C7225 C7227 1.390 . S
C7225 H7229 0.950 . S
H7226 C7222 0.950 . S
C7227 C7225 1.390 . S
C7227 C7228 1.387 . S
C7227 H7230 0.950 . S
C7228 C7227 1.387 . S
C7228 C7231 1.387 . S
H7229 C7225 0.950 . S
H7230 C7227 0.950 . S
C7231 C7222 1.390 . S
C7231 H7224 0.950 . S
C7231 C7228 1.387 . S
C7232 C7233 1.396 . S
C7232 H7236 0.961 . S
C7232 C7241 1.371 1_565 S
C7233 C7232 1.396 . S
C7233 C7235 1.336 1_565 S
H7234 C7241 0.950 . S
C7235 C7233 1.336 1_545 S
C7235 C7237 1.488 . S
C7235 H7239 0.911 1_545 S
H7236 C7232 0.961 . S
C7237 C7235 1.488 . S
C7237 C7238 1.387 . S
C7237 H7240 0.950 . S
C7238 C7237 1.387 . S
C7238 C7241 1.387 . S
H7239 C7235 0.911 1_565 S
H7240 C7237 0.950 . S
C7241 C7232 1.371 1_545 S
C7241 H7234 0.950 . S
C7241 C7238 1.387 . S
C7242 C7243 1.387 . S
C7242 H7246 0.950 . S
C7242 C7251 1.390 . S
C7243 C7242 1.387 . S
C7243 C7245 1.387 . S
H7244 C7251 0.950 . S
C7245 C7243 1.387 . S
C7245 C7247 1.390 . S
C7245 H7249 0.950 . S
H7246 C7242 0.950 . S
C7247 C7245 1.390 . S
C7247 C7248 1.387 . S
C7247 H7250 0.950 . S
C7248 C7247 1.387 . S
C7248 C7251 1.387 . S
H7249 C7245 0.950 . S
H7250 C7247 0.950 . S
C7251 C7242 1.390 . S
C7251 H7244 0.950 . S
C7251 C7248 1.387 . S
C7252 C7253 1.337 1_565 S
C7252 H7256 0.912 1_565 S
C7252 C7261 1.485 . S
C7253 C7252 1.337 1_545 S
C7253 C7255 1.395 . S
H7254 C7261 0.950 . S
C7255 C7253 1.395 . S
C7255 C7257 1.374 1_545 S
C7255 H7259 0.959 . S
H7256 C7252 0.912 1_545 S
C7257 C7255 1.374 1_565 S
C7257 C7258 1.387 . S
C7257 H7260 0.950 . S
C7258 C7257 1.387 . S
C7258 C7261 1.387 . S
H7259 C7255 0.959 . S
H7260 C7257 0.950 . S
C7261 C7252 1.485 . S
C7261 H7254 0.950 . S
C7261 C7258 1.387 . S
C7262 C7263 1.387 . S
C7262 H7266 0.950 . S
C7262 C7271 1.390 . S
C7263 C7262 1.387 . S
C7263 C7265 1.387 . S
H7264 C7271 0.950 . S
C7265 C7263 1.387 . S
C7265 C7267 1.390 . S
C7265 H7269 0.950 . S
H7266 C7262 0.950 . S
C7267 C7265 1.390 . S
C7267 C7268 1.387 . S
C7267 H7270 0.950 . S
C7268 C7267 1.387 . S
C7268 C7271 1.387 . S
H7269 C7265 0.950 . S
H7270 C7267 0.950 . S
C7271 C7262 1.390 . S
C7271 H7264 0.950 . S
C7271 C7268 1.387 . S
C7272 C7273 1.387 1_565 S
C7272 H7276 0.978 . S
C7272 C7281 1.390 . S
C7273 C7272 1.387 1_545 S
C7273 C7275 1.387 . S
H7274 C7281 0.950 . S
C7275 C7273 1.387 . S
C7275 C7277 1.390 1_545 S
C7275 H7279 0.950 . S
H7276 C7272 0.978 . S
C7277 C7275 1.390 1_565 S
C7277 C7278 1.387 . S
C7277 H7280 0.950 . S
C7278 C7277 1.387 . S
C7278 C7281 1.387 . S
H7279 C7275 0.950 . S
H7280 C7277 0.950 . S
C7281 C7272 1.390 . S
C7281 H7274 0.950 . S
C7281 C7278 1.387 . S
C7282 C7283 1.387 . S
C7282 H7286 0.950 . S
C7282 C7291 1.390 . S
C7283 C7282 1.387 . S
C7283 C7285 1.387 . S
H7284 C7291 0.950 . S
C7285 C7283 1.387 . S
C7285 C7287 1.390 . S
C7285 H7289 0.950 . S
H7286 C7282 0.950 . S
C7287 C7285 1.390 . S
C7287 C7288 1.387 . S
C7287 H7290 0.950 . S
C7288 C7287 1.387 . S
C7288 C7291 1.387 . S
H7289 C7285 0.950 . S
H7290 C7287 0.950 . S
C7291 C7282 1.390 . S
C7291 H7284 0.950 . S
C7291 C7288 1.387 . S
C7292 C7293 1.387 1_545 S
C7292 H7296 0.950 1_545 S
C7292 C7301 1.390 . S
C7293 C7292 1.387 1_565 S
C7293 C7295 1.413 . S
H7294 C7301 0.950 . S
C7295 C7293 1.413 . S
C7295 C7297 1.330 1_565 S
C7295 H7299 0.987 . S
H7296 C7292 0.950 1_565 S
C7297 C7295 1.330 1_545 S
C7297 C7298 1.387 . S
C7297 H7300 0.950 . S
C7298 C7297 1.387 . S
C7298 C7301 1.387 . S
H7299 C7295 0.987 . S
H7300 C7297 0.950 . S
C7301 C7292 1.390 . S
C7301 H7294 0.950 . S
C7301 C7298 1.387 . S
C7302 C7303 1.387 . S
C7302 H7306 0.950 . S
C7302 C7311 1.390 . S
C7303 C7302 1.387 . S
C7303 C7305 1.387 . S
H7304 C7311 0.950 . S
C7305 C7303 1.387 . S
C7305 C7307 1.390 . S
C7305 H7309 0.950 . S
H7306 C7302 0.950 . S
C7307 C7305 1.390 . S
C7307 C7308 1.387 . S
C7307 H7310 0.950 . S
C7308 C7307 1.387 . S
C7308 C7311 1.387 . S
H7309 C7305 0.950 . S
H7310 C7307 0.950 . S
C7311 C7302 1.390 . S
C7311 H7304 0.950 . S
C7311 C7308 1.387 . S
C7312 C7313 1.349 1_554 S
C7312 H7316 0.918 1_554 S
C7312 C7321 1.465 . S
C7313 C7312 1.349 1_556 S
C7313 C7315 1.383 . S
H7314 C7321 0.950 . S
C7315 C7313 1.383 . S
C7315 C7317 1.399 1_556 S
C7315 H7319 0.945 . S
H7316 C7312 0.918 1_556 S
C7317 C7315 1.399 1_554 S
C7317 C7318 1.387 . S
C7317 H7320 0.950 . S
C7318 C7317 1.387 . S
C7318 C7321 1.387 . S
H7319 C7315 0.945 . S
H7320 C7317 0.950 . S
C7321 C7312 1.465 . S
C7321 H7314 0.950 . S
C7321 C7318 1.387 . S
C7322 C7323 1.390 . S
C7322 H7326 0.953 . S
C7322 C7331 1.384 1_554 S
C7323 C7322 1.390 . S
C7323 C7325 1.343 1_554 S
H7324 C7331 0.950 . S
C7325 C7323 1.343 1_556 S
C7325 C7327 1.476 . S
C7325 H7329 0.915 1_556 S
H7326 C7322 0.953 . S
C7327 C7325 1.476 . S
C7327 C7328 1.387 . S
C7327 H7330 0.950 . S
C7328 C7327 1.387 . S
C7328 C7331 1.387 . S
H7329 C7325 0.915 1_554 S
H7330 C7327 0.950 . S
C7331 C7322 1.384 1_556 S
C7331 H7324 0.950 . S
C7331 C7328 1.387 . S
C7332 C7333 1.387 . S
C7332 H7336 0.950 . S
C7332 C7341 1.390 . S
C7333 C7332 1.387 . S
C7333 C7335 1.387 . S
H7334 C7341 0.950 . S
C7335 C7333 1.387 . S
C7335 C7337 1.390 . S
C7335 H7339 0.950 . S
H7336 C7332 0.950 . S
C7337 C7335 1.390 . S
C7337 C7338 1.387 . S
C7337 H7340 0.950 . S
C7338 C7337 1.387 . S
C7338 C7341 1.387 . S
H7339 C7335 0.950 . S
H7340 C7337 0.950 . S
C7341 C7332 1.390 . S
C7341 H7334 0.950 . S
C7341 C7338 1.387 . S
C7342 C7343 1.387 . S
C7342 H7346 0.950 . S
C7342 C7351 1.390 . S
C7343 C7342 1.387 . S
C7343 C7345 1.387 . S
H7344 C7351 0.950 . S
C7345 C7343 1.387 . S
C7345 C7347 1.390 . S
C7345 H7349 0.950 . S
H7346 C7342 0.950 . S
C7347 C7345 1.390 . S
C7347 C7348 1.387 . S
C7347 H7350 0.950 . S
C7348 C7347 1.387 . S
C7348 C7351 1.387 . S
H7349 C7345 0.950 . S
H7350 C7347 0.950 . S
C7351 C7342 1.390 . S
C7351 H7344 0.950 . S
C7351 C7348 1.387 . S
C7352 C7353 1.387 . S
C7352 H7356 0.950 . S
C7352 C7361 1.390 . S
C7353 C7352 1.387 . S
C7353 C7355 1.387 . S
H7354 C7361 0.950 . S
C7355 C7353 1.387 . S
C7355 C7357 1.390 . S
C7355 H7359 0.950 . S
H7356 C7352 0.950 . S
C7357 C7355 1.390 . S
C7357 C7358 1.387 . S
C7357 H7360 0.950 . S
C7358 C7357 1.387 . S
C7358 C7361 1.387 . S
H7359 C7355 0.950 . S
H7360 C7357 0.950 . S
C7361 C7352 1.390 . S
C7361 H7354 0.950 . S
C7361 C7358 1.387 . S
C7362 C7363 1.387 . S
C7362 H7366 0.950 . S
C7362 C7371 1.390 . S
C7363 C7362 1.387 . S
C7363 C7365 1.387 . S
H7364 C7371 0.950 . S
C7365 C7363 1.387 . S
C7365 C7367 1.390 . S
C7365 H7369 0.950 . S
H7366 C7362 0.950 . S
C7367 C7365 1.390 . S
C7367 C7368 1.387 . S
C7367 H7370 0.950 . S
C7368 C7367 1.387 . S
C7368 C7371 1.387 . S
H7369 C7365 0.950 . S
H7370 C7367 0.950 . S
C7371 C7362 1.390 . S
C7371 H7364 0.950 . S
C7371 C7368 1.387 . S
C7372 C7373 1.387 . S
C7372 H7376 0.950 . S
C7372 C7381 1.390 . S
C7373 C7372 1.387 . S
C7373 C7375 1.387 . S
H7374 C7381 0.950 . S
C7375 C7373 1.387 . S
C7375 C7377 1.390 . S
C7375 H7379 0.950 . S
H7376 C7372 0.950 . S
C7377 C7375 1.390 . S
C7377 C7378 1.387 . S
C7377 H7380 0.950 . S
C7378 C7377 1.387 . S
C7378 C7381 1.387 . S
H7379 C7375 0.950 . S
H7380 C7377 0.950 . S
C7381 C7372 1.390 . S
C7381 H7374 0.950 . S
C7381 C7378 1.387 . S
C7382 C7383 1.387 . S
C7382 H7386 0.950 . S
C7382 C7391 1.390 . S
C7383 C7382 1.387 . S
C7383 C7385 1.387 . S
H7384 C7391 0.950 . S
C7385 C7383 1.387 . S
C7385 C7387 1.390 . S
C7385 H7389 0.950 . S
H7386 C7382 0.950 . S
C7387 C7385 1.390 . S
C7387 C7388 1.387 . S
C7387 H7390 0.950 . S
C7388 C7387 1.387 . S
C7388 C7391 1.387 . S
H7389 C7385 0.950 . S
H7390 C7387 0.950 . S
C7391 C7382 1.390 . S
C7391 H7384 0.950 . S
C7391 C7388 1.387 . S
C7392 C7393 1.387 . S
C7392 H7396 0.950 . S
C7392 C7401 1.390 . S
C7393 C7392 1.387 . S
C7393 C7395 1.387 . S
H7394 C7401 0.950 . S
C7395 C7393 1.387 . S
C7395 C7397 1.390 . S
C7395 H7399 0.950 . S
H7396 C7392 0.950 . S
C7397 C7395 1.390 . S
C7397 C7398 1.387 . S
C7397 H7400 0.950 . S
C7398 C7397 1.387 . S
C7398 C7401 1.387 . S
H7399 C7395 0.950 . S
H7400 C7397 0.950 . S
C7401 C7392 1.390 . S
C7401 H7394 0.950 . S
C7401 C7398 1.387 . S
C7402 C7403 1.387 . S
C7402 H7406 0.950 . S
C7402 C7411 1.390 . S
C7403 C7402 1.387 . S
C7403 C7405 1.387 . S
H7404 C7411 0.950 . S
C7405 C7403 1.387 . S
C7405 C7407 1.390 . S
C7405 H7409 0.950 . S
H7406 C7402 0.950 . S
C7407 C7405 1.390 . S
C7407 C7408 1.387 . S
C7407 H7410 0.950 . S
C7408 C7407 1.387 . S
C7408 C7411 1.387 . S
H7409 C7405 0.950 . S
H7410 C7407 0.950 . S
C7411 C7402 1.390 . S
C7411 H7404 0.950 . S
C7411 C7408 1.387 . S
C7412 C7413 1.371 1_455 S
C7412 H7416 0.933 1_455 S
C7412 C7421 1.424 . S
C7413 C7412 1.371 1_655 S
C7413 C7415 1.381 1_655 S
H7414 C7421 0.950 . S
C7415 C7413 1.381 1_455 S
C7415 C7417 1.404 . S
C7415 H7419 0.943 1_455 S
H7416 C7412 0.933 1_655 S
C7417 C7415 1.404 . S
C7417 C7418 1.387 . S
C7417 H7420 0.950 . S
C7418 C7417 1.387 . S
C7418 C7421 1.387 . S
H7419 C7415 0.943 1_655 S
H7420 C7417 0.950 . S
C7421 C7412 1.424 . S
C7421 H7414 0.950 . S
C7421 C7418 1.387 . S
C7422 C7423 1.387 . S
C7422 H7426 0.950 . S
C7422 C7431 1.390 . S
C7423 C7422 1.387 . S
C7423 C7425 1.387 . S
H7424 C7431 0.950 . S
C7425 C7423 1.387 . S
C7425 C7427 1.390 . S
C7425 H7429 0.950 . S
H7426 C7422 0.950 . S
C7427 C7425 1.390 . S
C7427 C7428 1.387 . S
C7427 H7430 0.950 . S
C7428 C7427 1.387 . S
C7428 C7431 1.387 . S
H7429 C7425 0.950 . S
H7430 C7427 0.950 . S
C7431 C7422 1.390 . S
C7431 H7424 0.950 . S
C7431 C7428 1.387 . S
C7432 C7433 1.387 . S
C7432 H7436 0.950 . S
C7432 C7441 1.390 . S
C7433 C7432 1.387 . S
C7433 C7435 1.387 . S
H7434 C7441 0.950 . S
C7435 C7433 1.387 . S
C7435 C7437 1.390 . S
C7435 H7439 0.950 . S
H7436 C7432 0.950 . S
C7437 C7435 1.390 . S
C7437 C7438 1.387 . S
C7437 H7440 0.950 . S
C7438 C7437 1.387 . S
C7438 C7441 1.387 . S
H7439 C7435 0.950 . S
H7440 C7437 0.950 . S
C7441 C7432 1.390 . S
C7441 H7434 0.950 . S
C7441 C7438 1.387 . S
C7442 C7443 1.387 . S
C7442 H7446 0.950 . S
C7442 C7451 1.390 . S
C7443 C7442 1.387 . S
C7443 C7445 1.387 . S
H7444 C7451 0.950 . S
C7445 C7443 1.387 . S
C7445 C7447 1.390 . S
C7445 H7449 0.950 . S
H7446 C7442 0.950 . S
C7447 C7445 1.390 . S
C7447 C7448 1.387 . S
C7447 H7450 0.950 . S
C7448 C7447 1.387 . S
C7448 C7451 1.387 . S
H7449 C7445 0.950 . S
H7450 C7447 0.950 . S
C7451 C7442 1.390 . S
C7451 H7444 0.950 . S
C7451 C7448 1.387 . S
C7452 C7453 1.389 1_455 S
C7452 H7456 0.952 1_455 S
C7452 C7461 1.386 . S
C7453 C7452 1.389 1_655 S
C7453 C7455 1.361 1_655 S
H7454 C7461 0.950 . S
C7455 C7453 1.361 1_455 S
C7455 C7457 1.443 . S
C7455 H7459 0.926 1_455 S
H7456 C7452 0.952 1_655 S
C7457 C7455 1.443 . S
C7457 C7458 1.387 . S
C7457 H7460 0.950 . S
C7458 C7457 1.387 . S
C7458 C7461 1.387 . S
H7459 C7455 0.926 1_655 S
H7460 C7457 0.950 . S
C7461 C7452 1.386 . S
C7461 H7454 0.950 . S
C7461 C7458 1.387 . S
C7462 C7463 1.387 . S
C7462 H7466 0.950 . S
C7462 C7471 1.390 . S
C7463 C7462 1.387 . S
C7463 C7465 1.387 . S
H7464 C7471 0.950 . S
C7465 C7463 1.387 . S
C7465 C7467 1.390 . S
C7465 H7469 0.950 . S
H7466 C7462 0.950 . S
C7467 C7465 1.390 . S
C7467 C7468 1.387 . S
C7467 H7470 0.950 . S
C7468 C7467 1.387 . S
C7468 C7471 1.387 . S
H7469 C7465 0.950 . S
H7470 C7467 0.950 . S
C7471 C7462 1.390 . S
C7471 H7464 0.950 . S
C7471 C7468 1.387 . S
C7472 C7473 1.387 . S
C7472 H7476 0.950 . S
C7472 C7481 1.390 . S
C7473 C7472 1.387 . S
C7473 C7475 1.387 . S
H7474 C7481 0.950 . S
C7475 C7473 1.387 . S
C7475 C7477 1.390 . S
C7475 H7479 0.950 . S
H7476 C7472 0.950 . S
C7477 C7475 1.390 . S
C7477 C7478 1.387 . S
C7477 H7480 0.950 . S
C7478 C7477 1.387 . S
C7478 C7481 1.387 . S
H7479 C7475 0.950 . S
H7480 C7477 0.950 . S
C7481 C7472 1.390 . S
C7481 H7474 0.950 . S
C7481 C7478 1.387 . S
C7482 C7483 1.387 . S
C7482 H7486 0.950 . S
C7482 C7491 1.390 . S
C7483 C7482 1.387 . S
C7483 C7485 1.387 . S
H7484 C7491 0.950 . S
C7485 C7483 1.387 . S
C7485 C7487 1.390 . S
C7485 H7489 0.950 . S
H7486 C7482 0.950 . S
C7487 C7485 1.390 . S
C7487 C7488 1.387 . S
C7487 H7490 0.950 . S
C7488 C7487 1.387 . S
C7488 C7491 1.387 . S
H7489 C7485 0.950 . S
H7490 C7487 0.950 . S
C7491 C7482 1.390 . S
C7491 H7484 0.950 . S
C7491 C7488 1.387 . S
C7492 C7493 1.387 . S
C7492 H7496 0.950 . S
C7492 C7501 1.390 . S
C7493 C7492 1.387 . S
C7493 C7495 1.387 . S
H7494 C7501 0.950 . S
C7495 C7493 1.387 . S
C7495 C7497 1.390 . S
C7495 H7499 0.950 . S
H7496 C7492 0.950 . S
C7497 C7495 1.390 . S
C7497 C7498 1.387 . S
C7497 H7500 0.950 . S
C7498 C7497 1.387 . S
C7498 C7501 1.387 . S
H7499 C7495 0.950 . S
H7500 C7497 0.950 . S
C7501 C7492 1.390 . S
C7501 H7494 0.950 . S
C7501 C7498 1.387 . S
C7502 C7503 1.387 . S
C7502 H7506 0.950 . S
C7502 C7511 1.390 . S
C7503 C7502 1.387 . S
C7503 C7505 1.387 . S
H7504 C7511 0.950 . S
C7505 C7503 1.387 . S
C7505 C7507 1.390 . S
C7505 H7509 0.950 . S
H7506 C7502 0.950 . S
C7507 C7505 1.390 . S
C7507 C7508 1.387 . S
C7507 H7510 0.950 . S
C7508 C7507 1.387 . S
C7508 C7511 1.387 . S
H7509 C7505 0.950 . S
H7510 C7507 0.950 . S
C7511 C7502 1.390 . S
C7511 H7504 0.950 . S
C7511 C7508 1.387 . S
C7512 C7513 1.387 . S
C7512 H7516 0.950 . S
C7512 C7521 1.390 . S
C7513 C7512 1.387 . S
C7513 C7515 1.387 . S
H7514 C7521 0.950 . S
C7515 C7513 1.387 . S
C7515 C7517 1.390 . S
C7515 H7519 0.950 . S
H7516 C7512 0.950 . S
C7517 C7515 1.390 . S
C7517 C7518 1.387 . S
C7517 H7520 0.950 . S
C7518 C7517 1.387 . S
C7518 C7521 1.387 . S
H7519 C7515 0.950 . S
H7520 C7517 0.950 . S
C7521 C7512 1.390 . S
C7521 H7514 0.950 . S
C7521 C7518 1.387 . S
C7522 C7523 1.387 . S
C7522 H7526 0.950 . S
C7522 C7531 1.390 . S
C7523 C7522 1.387 . S
C7523 C7525 1.387 . S
H7524 C7531 0.950 . S
C7525 C7523 1.387 . S
C7525 C7527 1.390 . S
C7525 H7529 0.950 . S
H7526 C7522 0.950 . S
C7527 C7525 1.390 . S
C7527 C7528 1.387 . S
C7527 H7530 0.950 . S
C7528 C7527 1.387 . S
C7528 C7531 1.387 . S
H7529 C7525 0.950 . S
H7530 C7527 0.950 . S
C7531 C7522 1.390 . S
C7531 H7524 0.950 . S
C7531 C7528 1.387 . S
C7532 C7533 1.387 . S
C7532 H7536 0.950 . S
C7532 C7541 1.390 . S
C7533 C7532 1.387 . S
C7533 C7535 1.387 . S
H7534 C7541 0.950 . S
C7535 C7533 1.387 . S
C7535 C7537 1.390 . S
C7535 H7539 0.950 . S
H7536 C7532 0.950 . S
C7537 C7535 1.390 . S
C7537 C7538 1.387 . S
C7537 H7540 0.950 . S
C7538 C7537 1.387 . S
C7538 C7541 1.387 . S
H7539 C7535 0.950 . S
H7540 C7537 0.950 . S
C7541 C7532 1.390 . S
C7541 H7534 0.950 . S
C7541 C7538 1.387 . S
C7542 C7543 1.387 . S
C7542 H7546 0.950 . S
C7542 C7551 1.390 . S
C7543 C7542 1.387 . S
C7543 C7545 1.387 . S
H7544 C7551 0.950 . S
C7545 C7543 1.387 . S
C7545 C7547 1.390 . S
C7545 H7549 0.950 . S
H7546 C7542 0.950 . S
C7547 C7545 1.390 . S
C7547 C7548 1.387 . S
C7547 H7550 0.950 . S
C7548 C7547 1.387 . S
C7548 C7551 1.387 . S
H7549 C7545 0.950 . S
H7550 C7547 0.950 . S
C7551 C7542 1.390 . S
C7551 H7544 0.950 . S
C7551 C7548 1.387 . S
C7552 C7553 1.387 . S
C7552 H7556 0.950 . S
C7552 C7561 1.390 . S
C7553 C7552 1.387 . S
C7553 C7555 1.387 . S
H7554 C7561 0.950 . S
C7555 C7553 1.387 . S
C7555 C7557 1.390 . S
C7555 H7559 0.950 . S
H7556 C7552 0.950 . S
C7557 C7555 1.390 . S
C7557 C7558 1.387 . S
C7557 H7560 0.950 . S
C7558 C7557 1.387 . S
C7558 C7561 1.387 . S
H7559 C7555 0.950 . S
H7560 C7557 0.950 . S
C7561 C7552 1.390 . S
C7561 H7554 0.950 . S
C7561 C7558 1.387 . S
C7562 C7563 1.387 . S
C7562 H7566 0.950 . S
C7562 C7571 1.390 . S
C7563 C7562 1.387 . S
C7563 C7565 1.387 . S
H7564 C7571 0.950 . S
C7565 C7563 1.387 . S
C7565 C7567 1.390 . S
C7565 H7569 0.950 . S
H7566 C7562 0.950 . S
C7567 C7565 1.390 . S
C7567 C7568 1.387 . S
C7567 H7570 0.950 . S
C7568 C7567 1.387 . S
C7568 C7571 1.387 . S
H7569 C7565 0.950 . S
H7570 C7567 0.950 . S
C7571 C7562 1.390 . S
C7571 H7564 0.950 . S
C7571 C7568 1.387 . S
C7572 C7573 1.387 . S
C7572 H7576 0.950 . S
C7572 C7581 1.390 . S
C7573 C7572 1.387 . S
C7573 C7575 1.387 . S
H7574 C7581 0.950 . S
C7575 C7573 1.387 . S
C7575 C7577 1.390 . S
C7575 H7579 0.950 . S
H7576 C7572 0.950 . S
C7577 C7575 1.390 . S
C7577 C7578 1.387 . S
C7577 H7580 0.950 . S
C7578 C7577 1.387 . S
C7578 C7581 1.387 . S
H7579 C7575 0.950 . S
H7580 C7577 0.950 . S
C7581 C7572 1.390 . S
C7581 H7574 0.950 . S
C7581 C7578 1.387 . S
C7582 C7583 1.344 1_554 S
C7582 H7586 0.915 1_554 S
C7582 C7591 1.473 . S
C7583 C7582 1.344 1_556 S
C7583 C7585 1.389 . S
H7584 C7591 0.950 . S
C7585 C7583 1.389 . S
C7585 C7587 1.387 1_556 S
C7585 H7589 0.951 . S
H7586 C7582 0.915 1_556 S
C7587 C7585 1.387 1_554 S
C7587 C7588 1.387 . S
C7587 H7590 0.950 . S
C7588 C7587 1.387 . S
C7588 C7591 1.387 . S
H7589 C7585 0.951 . S
H7590 C7587 0.950 . S
C7591 C7582 1.473 . S
C7591 H7584 0.950 . S
C7591 C7588 1.387 . S
C7592 C7593 1.387 . S
C7592 H7596 0.950 . S
C7592 C7601 1.390 . S
C7593 C7592 1.387 . S
C7593 C7595 1.387 . S
H7594 C7601 0.950 . S
C7595 C7593 1.387 . S
C7595 C7597 1.390 . S
C7595 H7599 0.950 . S
H7596 C7592 0.950 . S
C7597 C7595 1.390 . S
C7597 C7598 1.387 . S
C7597 H7600 0.950 . S
C7598 C7597 1.387 . S
C7598 C7601 1.387 . S
H7599 C7595 0.950 . S
H7600 C7597 0.950 . S
C7601 C7592 1.390 . S
C7601 H7594 0.950 . S
C7601 C7598 1.387 . S
C7602 C7603 1.327 1_556 S
C7602 H7606 0.908 1_556 S
C7602 C7611 1.504 . S
C7603 C7602 1.327 1_554 S
C7603 C7605 1.403 . S
H7604 C7611 0.950 . S
C7605 C7603 1.403 . S
C7605 C7607 1.356 1_554 S
C7605 H7609 0.970 . S
H7606 C7602 0.908 1_554 S
C7607 C7605 1.356 1_556 S
C7607 C7608 1.387 . S
C7607 H7610 0.950 . S
C7608 C7607 1.387 . S
C7608 C7611 1.387 . S
H7609 C7605 0.970 . S
H7610 C7607 0.950 . S
C7611 C7602 1.504 . S
C7611 H7604 0.950 . S
C7611 C7608 1.387 . S
C7612 C7613 1.387 . S
C7612 H7616 0.950 . S
C7612 C7621 1.390 . S
C7613 C7612 1.387 . S
C7613 C7615 1.387 . S
H7614 C7621 0.950 . S
C7615 C7613 1.387 . S
C7615 C7617 1.390 . S
C7615 H7619 0.950 . S
H7616 C7612 0.950 . S
C7617 C7615 1.390 . S
C7617 C7618 1.387 . S
C7617 H7620 0.950 . S
C7618 C7617 1.387 . S
C7618 C7621 1.387 . S
H7619 C7615 0.950 . S
H7620 C7617 0.950 . S
C7621 C7612 1.390 . S
C7621 H7614 0.950 . S
C7621 C7618 1.387 . S
C7622 C7623 1.387 . S
C7622 H7626 0.950 . S
C7622 C7631 1.390 . S
C7623 C7622 1.387 . S
C7623 C7625 1.387 . S
H7624 C7631 0.950 . S
C7625 C7623 1.387 . S
C7625 C7627 1.390 . S
C7625 H7629 0.950 . S
H7626 C7622 0.950 . S
C7627 C7625 1.390 . S
C7627 C7628 1.387 . S
C7627 H7630 0.950 . S
C7628 C7627 1.387 . S
C7628 C7631 1.387 . S
H7629 C7625 0.950 . S
H7630 C7627 0.950 . S
C7631 C7622 1.390 . S
C7631 H7624 0.950 . S
C7631 C7628 1.387 . S
C7632 C7633 1.387 . S
C7632 H7636 0.950 . S
C7632 C7641 1.390 . S
C7633 C7632 1.387 . S
C7633 C7635 1.387 . S
H7634 C7641 0.950 . S
C7635 C7633 1.387 . S
C7635 C7637 1.390 . S
C7635 H7639 0.950 . S
H7636 C7632 0.950 . S
C7637 C7635 1.390 . S
C7637 C7638 1.387 . S
C7637 H7640 0.950 . S
C7638 C7637 1.387 . S
C7638 C7641 1.387 . S
H7639 C7635 0.950 . S
H7640 C7637 0.950 . S
C7641 C7632 1.390 . S
C7641 H7634 0.950 . S
C7641 C7638 1.387 . S
C7642 C7643 1.387 . S
C7642 H7646 0.950 . S
C7642 C7651 1.390 . S
C7643 C7642 1.387 . S
C7643 C7645 1.387 . S
H7644 C7651 0.950 . S
C7645 C7643 1.387 . S
C7645 C7647 1.390 . S
C7645 H7649 0.950 . S
H7646 C7642 0.950 . S
C7647 C7645 1.390 . S
C7647 C7648 1.387 . S
C7647 H7650 0.950 . S
C7648 C7647 1.387 . S
C7648 C7651 1.387 . S
H7649 C7645 0.950 . S
H7650 C7647 0.950 . S
C7651 C7642 1.390 . S
C7651 H7644 0.950 . S
C7651 C7648 1.387 . S
C7652 C7653 1.388 1_655 S
C7652 H7656 0.951 1_655 S
C7652 C7661 1.389 . S
C7653 C7652 1.388 1_455 S
C7653 C7655 1.359 1_455 S
H7654 C7661 0.950 . S
C7655 C7653 1.359 1_655 S
C7655 C7657 1.446 . S
C7655 H7659 0.925 1_655 S
H7656 C7652 0.951 1_455 S
C7657 C7655 1.446 . S
C7657 C7658 1.387 . S
C7657 H7660 0.950 . S
C7658 C7657 1.387 . S
C7658 C7661 1.387 . S
H7659 C7655 0.925 1_455 S
H7660 C7657 0.950 . S
C7661 C7652 1.389 . S
C7661 H7654 0.950 . S
C7661 C7658 1.387 . S
C7662 C7663 1.387 . S
C7662 H7666 0.950 . S
C7662 C7671 1.390 . S
C7663 C7662 1.387 . S
C7663 C7665 1.387 . S
H7664 C7671 0.950 . S
C7665 C7663 1.387 . S
C7665 C7667 1.390 . S
C7665 H7669 0.950 . S
H7666 C7662 0.950 . S
C7667 C7665 1.390 . S
C7667 C7668 1.387 . S
C7667 H7670 0.950 . S
C7668 C7667 1.387 . S
C7668 C7671 1.387 . S
H7669 C7665 0.950 . S
H7670 C7667 0.950 . S
C7671 C7662 1.390 . S
C7671 H7664 0.950 . S
C7671 C7668 1.387 . S
C7672 C7673 1.387 . S
C7672 H7676 0.950 . S
C7672 C7681 1.390 . S
C7673 C7672 1.387 . S
C7673 C7675 1.387 . S
H7674 C7681 0.950 . S
C7675 C7673 1.387 . S
C7675 C7677 1.390 . S
C7675 H7679 0.950 . S
H7676 C7672 0.950 . S
C7677 C7675 1.390 . S
C7677 C7678 1.387 . S
C7677 H7680 0.950 . S
C7678 C7677 1.387 . S
C7678 C7681 1.387 . S
H7679 C7675 0.950 . S
H7680 C7677 0.950 . S
C7681 C7672 1.390 . S
C7681 H7674 0.950 . S
C7681 C7678 1.387 . S
C7682 C7683 1.387 . S
C7682 H7686 0.950 . S
C7682 C7691 1.390 . S
C7683 C7682 1.387 . S
C7683 C7685 1.387 . S
H7684 C7691 0.950 . S
C7685 C7683 1.387 . S
C7685 C7687 1.390 . S
C7685 H7689 0.950 . S
H7686 C7682 0.950 . S
C7687 C7685 1.390 . S
C7687 C7688 1.387 . S
C7687 H7690 0.950 . S
C7688 C7687 1.387 . S
C7688 C7691 1.387 . S
H7689 C7685 0.950 . S
H7690 C7687 0.950 . S
C7691 C7682 1.390 . S
C7691 H7684 0.950 . S
C7691 C7688 1.387 . S
C7692 C7693 1.385 1_655 S
C7692 H7696 0.947 1_655 S
C7692 C7701 1.396 . S
C7693 C7692 1.385 1_455 S
C7693 C7695 1.364 1_455 S
H7694 C7701 0.950 . S
C7695 C7693 1.364 1_655 S
C7695 C7697 1.438 . S
C7695 H7699 0.928 1_655 S
H7696 C7692 0.947 1_455 S
C7697 C7695 1.438 . S
C7697 C7698 1.387 . S
C7697 H7700 0.950 . S
C7698 C7697 1.387 . S
C7698 C7701 1.387 . S
H7699 C7695 0.928 1_455 S
H7700 C7697 0.950 . S
C7701 C7692 1.396 . S
C7701 H7694 0.950 . S
C7701 C7698 1.387 . S
C7702 C7703 1.387 . S
C7702 H7706 0.950 . S
C7702 C7711 1.390 . S
C7703 C7702 1.387 . S
C7703 C7705 1.387 . S
H7704 C7711 0.950 . S
C7705 C7703 1.387 . S
C7705 C7707 1.390 . S
C7705 H7709 0.950 . S
H7706 C7702 0.950 . S
C7707 C7705 1.390 . S
C7707 C7708 1.387 . S
C7707 H7710 0.950 . S
C7708 C7707 1.387 . S
C7708 C7711 1.387 . S
H7709 C7705 0.950 . S
H7710 C7707 0.950 . S
C7711 C7702 1.390 . S
C7711 H7704 0.950 . S
C7711 C7708 1.387 . S
C7712 C7713 1.387 . S
C7712 H7716 0.950 . S
C7712 C7721 1.390 . S
C7713 C7712 1.387 . S
C7713 C7715 1.387 . S
H7714 C7721 0.950 . S
C7715 C7713 1.387 . S
C7715 C7717 1.390 . S
C7715 H7719 0.950 . S
H7716 C7712 0.950 . S
C7717 C7715 1.390 . S
C7717 C7718 1.387 . S
C7717 H7720 0.950 . S
C7718 C7717 1.387 . S
C7718 C7721 1.387 . S
H7719 C7715 0.950 . S
H7720 C7717 0.950 . S
C7721 C7712 1.390 . S
C7721 H7714 0.950 . S
C7721 C7718 1.387 . S
C7722 C7723 1.387 . S
C7722 H7726 0.950 . S
C7722 C7731 1.390 . S
C7723 C7722 1.387 . S
C7723 C7725 1.387 . S
H7724 C7731 0.950 . S
C7725 C7723 1.387 . S
C7725 C7727 1.390 . S
C7725 H7729 0.950 . S
H7726 C7722 0.950 . S
C7727 C7725 1.390 . S
C7727 C7728 1.387 . S
C7727 H7730 0.950 . S
C7728 C7727 1.387 . S
C7728 C7731 1.387 . S
H7729 C7725 0.950 . S
H7730 C7727 0.950 . S
C7731 C7722 1.390 . S
C7731 H7724 0.950 . S
C7731 C7728 1.387 . S
C7732 C7733 1.387 . S
C7732 H7736 0.950 . S
C7732 C7741 1.390 . S
C7733 C7732 1.387 . S
C7733 C7735 1.387 . S
H7734 C7741 0.950 . S
C7735 C7733 1.387 . S
C7735 C7737 1.390 . S
C7735 H7739 0.950 . S
H7736 C7732 0.950 . S
C7737 C7735 1.390 . S
C7737 C7738 1.387 . S
C7737 H7740 0.950 . S
C7738 C7737 1.387 . S
C7738 C7741 1.387 . S
H7739 C7735 0.950 . S
H7740 C7737 0.950 . S
C7741 C7732 1.390 . S
C7741 H7734 0.950 . S
C7741 C7738 1.387 . S
C7742 C7743 1.387 . S
C7742 H7746 0.950 . S
C7742 C7751 1.390 . S
C7743 C7742 1.387 . S
C7743 C7745 1.387 . S
H7744 C7751 0.950 . S
C7745 C7743 1.387 . S
C7745 C7747 1.390 . S
C7745 H7749 0.950 . S
H7746 C7742 0.950 . S
C7747 C7745 1.390 . S
C7747 C7748 1.387 . S
C7747 H7750 0.950 . S
C7748 C7747 1.387 . S
C7748 C7751 1.387 . S
H7749 C7745 0.950 . S
H7750 C7747 0.950 . S
C7751 C7742 1.390 . S
C7751 H7744 0.950 . S
C7751 C7748 1.387 . S
C7752 C7753 1.387 . S
C7752 H7756 0.950 . S
C7752 C7761 1.390 . S
C7753 C7752 1.387 . S
C7753 C7755 1.387 . S
H7754 C7761 0.950 . S
C7755 C7753 1.387 . S
C7755 C7757 1.390 . S
C7755 H7759 0.950 . S
H7756 C7752 0.950 . S
C7757 C7755 1.390 . S
C7757 C7758 1.387 . S
C7757 H7760 0.950 . S
C7758 C7757 1.387 . S
C7758 C7761 1.387 . S
H7759 C7755 0.950 . S
H7760 C7757 0.950 . S
C7761 C7752 1.390 . S
C7761 H7754 0.950 . S
C7761 C7758 1.387 . S
C7762 C7763 1.387 . S
C7762 H7766 0.950 . S
C7762 C7771 1.390 . S
C7763 C7762 1.387 . S
C7763 C7765 1.387 . S
H7764 C7771 0.950 . S
C7765 C7763 1.387 . S
C7765 C7767 1.390 . S
C7765 H7769 0.950 . S
H7766 C7762 0.950 . S
C7767 C7765 1.390 . S
C7767 C7768 1.387 . S
C7767 H7770 0.950 . S
C7768 C7767 1.387 . S
C7768 C7771 1.387 . S
H7769 C7765 0.950 . S
H7770 C7767 0.950 . S
C7771 C7762 1.390 . S
C7771 H7764 0.950 . S
C7771 C7768 1.387 . S
C7772 C7773 1.387 . S
C7772 H7776 0.950 . S
C7772 C7781 1.390 . S
C7773 C7772 1.387 . S
C7773 C7775 1.387 . S
H7774 C7781 0.950 . S
C7775 C7773 1.387 . S
C7775 C7777 1.390 . S
C7775 H7779 0.950 . S
H7776 C7772 0.950 . S
C7777 C7775 1.390 . S
C7777 C7778 1.387 . S
C7777 H7780 0.950 . S
C7778 C7777 1.387 . S
C7778 C7781 1.387 . S
H7779 C7775 0.950 . S
H7780 C7777 0.950 . S
C7781 C7772 1.390 . S
C7781 H7774 0.950 . S
C7781 C7778 1.387 . S
C7782 C7783 1.387 . S
C7782 H7786 0.950 . S
C7782 C7791 1.390 . S
C7783 C7782 1.387 . S
C7783 C7785 1.387 . S
H7784 C7791 0.950 . S
C7785 C7783 1.387 . S
C7785 C7787 1.390 . S
C7785 H7789 0.950 . S
H7786 C7782 0.950 . S
C7787 C7785 1.390 . S
C7787 C7788 1.387 . S
C7787 H7790 0.950 . S
C7788 C7787 1.387 . S
C7788 C7791 1.387 . S
H7789 C7785 0.950 . S
H7790 C7787 0.950 . S
C7791 C7782 1.390 . S
C7791 H7784 0.950 . S
C7791 C7788 1.387 . S
C7792 C7793 1.387 . S
C7792 H7796 0.950 . S
C7792 C7801 1.390 . S
C7793 C7792 1.387 . S
C7793 C7795 1.387 . S
H7794 C7801 0.950 . S
C7795 C7793 1.387 . S
C7795 C7797 1.390 . S
C7795 H7799 0.950 . S
H7796 C7792 0.950 . S
C7797 C7795 1.390 . S
C7797 C7798 1.387 . S
C7797 H7800 0.950 . S
C7798 C7797 1.387 . S
C7798 C7801 1.387 . S
H7799 C7795 0.950 . S
H7800 C7797 0.950 . S
C7801 C7792 1.390 . S
C7801 H7794 0.950 . S
C7801 C7798 1.387 . S
C7802 C7803 1.387 . S
C7802 H7806 0.950 . S
C7802 C7811 1.390 . S
C7803 C7802 1.387 . S
C7803 C7805 1.387 . S
H7804 C7811 0.950 . S
C7805 C7803 1.387 . S
C7805 C7807 1.390 . S
C7805 H7809 0.950 . S
H7806 C7802 0.950 . S
C7807 C7805 1.390 . S
C7807 C7808 1.387 . S
C7807 H7810 0.950 . S
C7808 C7807 1.387 . S
C7808 C7811 1.387 . S
H7809 C7805 0.950 . S
H7810 C7807 0.950 . S
C7811 C7802 1.390 . S
C7811 H7804 0.950 . S
C7811 C7808 1.387 . S
C7812 C7813 1.387 . S
C7812 H7816 0.950 . S
C7812 C7821 1.390 . S
C7813 C7812 1.387 . S
C7813 C7815 1.387 . S
H7814 C7821 0.950 . S
C7815 C7813 1.387 . S
C7815 C7817 1.390 . S
C7815 H7819 0.950 . S
H7816 C7812 0.950 . S
C7817 C7815 1.390 . S
C7817 C7818 1.387 . S
C7817 H7820 0.950 . S
C7818 C7817 1.387 . S
C7818 C7821 1.387 . S
H7819 C7815 0.950 . S
H7820 C7817 0.950 . S
C7821 C7812 1.390 . S
C7821 H7814 0.950 . S
C7821 C7818 1.387 . S
C7822 C7823 1.408 . S
C7822 H7826 0.979 . S
C7822 C7831 1.342 1_554 S
C7823 C7822 1.408 . S
C7823 C7825 1.318 1_554 S
H7824 C7831 0.950 . S
C7825 C7823 1.318 1_556 S
C7825 C7827 1.519 . S
C7825 H7829 0.905 1_556 S
H7826 C7822 0.979 . S
C7827 C7825 1.519 . S
C7827 C7828 1.387 . S
C7827 H7830 0.950 . S
C7828 C7827 1.387 . S
C7828 C7831 1.387 . S
H7829 C7825 0.905 1_554 S
H7830 C7827 0.950 . S
C7831 C7822 1.342 1_556 S
C7831 H7824 0.950 . S
C7831 C7828 1.387 . S
C7832 C7833 1.387 . S
C7832 H7836 0.950 . S
C7832 C7841 1.390 . S
C7833 C7832 1.387 . S
C7833 C7835 1.387 . S
H7834 C7841 0.950 . S
C7835 C7833 1.387 . S
C7835 C7837 1.390 . S
C7835 H7839 0.950 . S
H7836 C7832 0.950 . S
C7837 C7835 1.390 . S
C7837 C7838 1.387 . S
C7837 H7840 0.950 . S
C7838 C7837 1.387 . S
C7838 C7841 1.387 . S
H7839 C7835 0.950 . S
H7840 C7837 0.950 . S
C7841 C7832 1.390 . S
C7841 H7834 0.950 . S
C7841 C7838 1.387 . S
C7842 C7843 1.347 1_554 S
C7842 H7846 0.917 1_554 S
C7842 C7851 1.469 . S
C7843 C7842 1.347 1_556 S
C7843 C7845 1.385 . S
H7844 C7851 0.950 . S
C7845 C7843 1.385 . S
C7845 C7847 1.396 1_556 S
C7845 H7849 0.946 . S
H7846 C7842 0.917 1_556 S
C7847 C7845 1.396 1_554 S
C7847 C7848 1.387 . S
C7847 H7850 0.950 . S
C7848 C7847 1.387 . S
C7848 C7851 1.387 . S
H7849 C7845 0.946 . S
H7850 C7847 0.950 . S
C7851 C7842 1.469 . S
C7851 H7844 0.950 . S
C7851 C7848 1.387 . S
C7852 C7853 1.387 . S
C7852 H7856 0.950 . S
C7852 C7861 1.390 . S
C7853 C7852 1.387 . S
C7853 C7855 1.387 . S
H7854 C7861 0.950 . S
C7855 C7853 1.387 . S
C7855 C7857 1.390 . S
C7855 H7859 0.950 . S
H7856 C7852 0.950 . S
C7857 C7855 1.390 . S
C7857 C7858 1.387 . S
C7857 H7860 0.950 . S
C7858 C7857 1.387 . S
C7858 C7861 1.387 . S
H7859 C7855 0.950 . S
H7860 C7857 0.950 . S
C7861 C7852 1.390 . S
C7861 H7854 0.950 . S
C7861 C7858 1.387 . S
C7862 C7863 1.387 . S
C7862 H7866 0.950 . S
C7862 C7871 1.390 . S
C7863 C7862 1.387 . S
C7863 C7865 1.387 . S
H7864 C7871 0.950 . S
C7865 C7863 1.387 . S
C7865 C7867 1.390 . S
C7865 H7869 0.950 . S
H7866 C7862 0.950 . S
C7867 C7865 1.390 . S
C7867 C7868 1.387 . S
C7867 H7870 0.950 . S
C7868 C7867 1.387 . S
C7868 C7871 1.387 . S
H7869 C7865 0.950 . S
H7870 C7867 0.950 . S
C7871 C7862 1.390 . S
C7871 H7864 0.950 . S
C7871 C7868 1.387 . S
C7872 C7873 1.387 . S
C7872 H7876 0.950 . S
C7872 C7881 1.390 . S
C7873 C7872 1.387 . S
C7873 C7875 1.387 . S
H7874 C7881 0.950 . S
C7875 C7873 1.387 . S
C7875 C7877 1.390 . S
C7875 H7879 0.950 . S
H7876 C7872 0.950 . S
C7877 C7875 1.390 . S
C7877 C7878 1.387 . S
C7877 H7880 0.950 . S
C7878 C7877 1.387 . S
C7878 C7881 1.387 . S
H7879 C7875 0.950 . S
H7880 C7877 0.950 . S
C7881 C7872 1.390 . S
C7881 H7874 0.950 . S
C7881 C7878 1.387 . S
C7882 C7883 1.387 . S
C7882 H7886 0.950 . S
C7882 C7891 1.390 . S
C7883 C7882 1.387 . S
C7883 C7885 1.387 . S
H7884 C7891 0.950 . S
C7885 C7883 1.387 . S
C7885 C7887 1.390 . S
C7885 H7889 0.950 . S
H7886 C7882 0.950 . S
C7887 C7885 1.390 . S
C7887 C7888 1.387 . S
C7887 H7890 0.950 . S
C7888 C7887 1.387 . S
C7888 C7891 1.387 . S
H7889 C7885 0.950 . S
H7890 C7887 0.950 . S
C7891 C7882 1.390 . S
C7891 H7884 0.950 . S
C7891 C7888 1.387 . S
C7892 C7893 1.387 . S
C7892 H7896 0.950 . S
C7892 C7901 1.390 . S
C7893 C7892 1.387 . S
C7893 C7895 1.387 . S
H7894 C7901 0.950 . S
C7895 C7893 1.387 . S
C7895 C7897 1.390 . S
C7895 H7899 0.950 . S
H7896 C7892 0.950 . S
C7897 C7895 1.390 . S
C7897 C7898 1.387 . S
C7897 H7900 0.950 . S
C7898 C7897 1.387 . S
C7898 C7901 1.387 . S
H7899 C7895 0.950 . S
H7900 C7897 0.950 . S
C7901 C7892 1.390 . S
C7901 H7894 0.950 . S
C7901 C7898 1.387 . S
C7902 C7903 1.387 . S
C7902 H7906 0.950 . S
C7902 C7911 1.390 . S
C7903 C7902 1.387 . S
C7903 C7905 1.387 . S
H7904 C7911 0.950 . S
C7905 C7903 1.387 . S
C7905 C7907 1.390 . S
C7905 H7909 0.950 . S
H7906 C7902 0.950 . S
C7907 C7905 1.390 . S
C7907 C7908 1.387 . S
C7907 H7910 0.950 . S
C7908 C7907 1.387 . S
C7908 C7911 1.387 . S
H7909 C7905 0.950 . S
H7910 C7907 0.950 . S
C7911 C7902 1.390 . S
C7911 H7904 0.950 . S
C7911 C7908 1.387 . S
C7912 C7913 1.387 . S
C7912 H7916 0.950 . S
C7912 C7921 1.390 . S
C7913 C7912 1.387 . S
C7913 C7915 1.387 . S
H7914 C7921 0.950 . S
C7915 C7913 1.387 . S
C7915 C7917 1.390 . S
C7915 H7919 0.950 . S
H7916 C7912 0.950 . S
C7917 C7915 1.390 . S
C7917 C7918 1.387 . S
C7917 H7920 0.950 . S
C7918 C7917 1.387 . S
C7918 C7921 1.387 . S
H7919 C7915 0.950 . S
H7920 C7917 0.950 . S
C7921 C7912 1.390 . S
C7921 H7914 0.950 . S
C7921 C7918 1.387 . S
C7922 C7923 1.387 . S
C7922 H7926 0.950 . S
C7922 C7931 1.390 . S
C7923 C7922 1.387 . S
C7923 C7925 1.387 . S
H7924 C7931 0.950 . S
C7925 C7923 1.387 . S
C7925 C7927 1.390 . S
C7925 H7929 0.950 . S
H7926 C7922 0.950 . S
C7927 C7925 1.390 . S
C7927 C7928 1.387 . S
C7927 H7930 0.950 . S
C7928 C7927 1.387 . S
C7928 C7931 1.387 . S
H7929 C7925 0.950 . S
H7930 C7927 0.950 . S
C7931 C7922 1.390 . S
C7931 H7924 0.950 . S
C7931 C7928 1.387 . S
C7932 C7933 1.387 . S
C7932 H7936 0.950 . S
C7932 C7941 1.390 . S
C7933 C7932 1.387 . S
C7933 C7935 1.387 . S
H7934 C7941 0.950 . S
C7935 C7933 1.387 . S
C7935 C7937 1.390 . S
C7935 H7939 0.950 . S
H7936 C7932 0.950 . S
C7937 C7935 1.390 . S
C7937 C7938 1.387 . S
C7937 H7940 0.950 . S
C7938 C7937 1.387 . S
C7938 C7941 1.387 . S
H7939 C7935 0.950 . S
H7940 C7937 0.950 . S
C7941 C7932 1.390 . S
C7941 H7934 0.950 . S
C7941 C7938 1.387 . S
C7942 C7943 1.387 . S
C7942 H7946 0.950 . S
C7942 C7951 1.390 . S
C7943 C7942 1.387 . S
C7943 C7945 1.387 . S
H7944 C7951 0.950 . S
C7945 C7943 1.387 . S
C7945 C7947 1.390 . S
C7945 H7949 0.950 . S
H7946 C7942 0.950 . S
C7947 C7945 1.390 . S
C7947 C7948 1.387 . S
C7947 H7950 0.950 . S
C7948 C7947 1.387 . S
C7948 C7951 1.387 . S
H7949 C7945 0.950 . S
H7950 C7947 0.950 . S
C7951 C7942 1.390 . S
C7951 H7944 0.950 . S
C7951 C7948 1.387 . S
C7952 C7953 1.387 . S
C7952 H7956 0.950 . S
C7952 C7961 1.390 . S
C7953 C7952 1.387 . S
C7953 C7955 1.387 . S
H7954 C7961 0.950 . S
C7955 C7953 1.387 . S
C7955 C7957 1.390 . S
C7955 H7959 0.950 . S
H7956 C7952 0.950 . S
C7957 C7955 1.390 . S
C7957 C7958 1.387 . S
C7957 H7960 0.950 . S
C7958 C7957 1.387 . S
C7958 C7961 1.387 . S
H7959 C7955 0.950 . S
H7960 C7957 0.950 . S
C7961 C7952 1.390 . S
C7961 H7954 0.950 . S
C7961 C7958 1.387 . S
C7962 C7963 1.387 . S
C7962 H7966 0.950 . S
C7962 C7971 1.390 . S
C7963 C7962 1.387 . S
C7963 C7965 1.387 . S
H7964 C7971 0.950 . S
C7965 C7963 1.387 . S
C7965 C7967 1.390 . S
C7965 H7969 0.950 . S
H7966 C7962 0.950 . S
C7967 C7965 1.390 . S
C7967 C7968 1.387 . S
C7967 H7970 0.950 . S
C7968 C7967 1.387 . S
C7968 C7971 1.387 . S
H7969 C7965 0.950 . S
H7970 C7967 0.950 . S
C7971 C7962 1.390 . S
C7971 H7964 0.950 . S
C7971 C7968 1.387 . S
C7972 C7973 1.387 . S
C7972 H7976 0.950 . S
C7972 C7981 1.390 . S
C7973 C7972 1.387 . S
C7973 C7975 1.387 . S
H7974 C7981 0.950 . S
C7975 C7973 1.387 . S
C7975 C7977 1.390 . S
C7975 H7979 0.950 . S
H7976 C7972 0.950 . S
C7977 C7975 1.390 . S
C7977 C7978 1.387 . S
C7977 H7980 0.950 . S
C7978 C7977 1.387 . S
C7978 C7981 1.387 . S
H7979 C7975 0.950 . S
H7980 C7977 0.950 . S
C7981 C7972 1.390 . S
C7981 H7974 0.950 . S
C7981 C7978 1.387 . S
C7982 C7983 1.387 . S
C7982 H7986 0.950 . S
C7982 C7991 1.390 . S
C7983 C7982 1.387 . S
C7983 C7985 1.387 . S
H7984 C7991 0.950 . S
C7985 C7983 1.387 . S
C7985 C7987 1.390 . S
C7985 H7989 0.950 . S
H7986 C7982 0.950 . S
C7987 C7985 1.390 . S
C7987 C7988 1.387 . S
C7987 H7990 0.950 . S
C7988 C7987 1.387 . S
C7988 C7991 1.387 . S
H7989 C7985 0.950 . S
H7990 C7987 0.950 . S
C7991 C7982 1.390 . S
C7991 H7984 0.950 . S
C7991 C7988 1.387 . S
C7992 C7993 1.387 . S
C7992 H7996 0.950 . S
C7992 C8001 1.390 . S
C7993 C7992 1.387 . S
C7993 C7995 1.387 . S
H7994 C8001 0.950 . S
C7995 C7993 1.387 . S
C7995 C7997 1.390 . S
C7995 H7999 0.950 . S
H7996 C7992 0.950 . S
C7997 C7995 1.390 . S
C7997 C7998 1.387 . S
C7997 H8000 0.950 . S
C7998 C7997 1.387 . S
C7998 C8001 1.387 . S
H7999 C7995 0.950 . S
H8000 C7997 0.950 . S
C8001 C7992 1.390 . S
C8001 H7994 0.950 . S
C8001 C7998 1.387 . S
C8002 C8003 1.387 . S
C8002 H8006 0.950 . S
C8002 C8011 1.390 . S
C8003 C8002 1.387 . S
C8003 C8005 1.387 . S
H8004 C8011 0.950 . S
C8005 C8003 1.387 . S
C8005 C8007 1.390 . S
C8005 H8009 0.950 . S
H8006 C8002 0.950 . S
C8007 C8005 1.390 . S
C8007 C8008 1.387 . S
C8007 H8010 0.950 . S
C8008 C8007 1.387 . S
C8008 C8011 1.387 . S
H8009 C8005 0.950 . S
H8010 C8007 0.950 . S
C8011 C8002 1.390 . S
C8011 H8004 0.950 . S
C8011 C8008 1.387 . S
C8012 C8013 1.387 . S
C8012 H8016 0.950 . S
C8012 C8021 1.390 . S
C8013 C8012 1.387 . S
C8013 C8015 1.387 . S
H8014 C8021 0.950 . S
C8015 C8013 1.387 . S
C8015 C8017 1.390 . S
C8015 H8019 0.950 . S
H8016 C8012 0.950 . S
C8017 C8015 1.390 . S
C8017 C8018 1.387 . S
C8017 H8020 0.950 . S
C8018 C8017 1.387 . S
C8018 C8021 1.387 . S
H8019 C8015 0.950 . S
H8020 C8017 0.950 . S
C8021 C8012 1.390 . S
C8021 H8014 0.950 . S
C8021 C8018 1.387 . S
C8022 C8023 1.387 . S
C8022 H8026 0.950 . S
C8022 C8031 1.390 . S
C8023 C8022 1.387 . S
C8023 C8025 1.387 . S
H8024 C8031 0.950 . S
C8025 C8023 1.387 . S
C8025 C8027 1.390 . S
C8025 H8029 0.950 . S
H8026 C8022 0.950 . S
C8027 C8025 1.390 . S
C8027 C8028 1.387 . S
C8027 H8030 0.950 . S
C8028 C8027 1.387 . S
C8028 C8031 1.387 . S
H8029 C8025 0.950 . S
H8030 C8027 0.950 . S
C8031 C8022 1.390 . S
C8031 H8024 0.950 . S
C8031 C8028 1.387 . S
C8032 C8033 1.387 . S
C8032 H8036 0.950 . S
C8032 C8041 1.390 . S
C8033 C8032 1.387 . S
C8033 C8035 1.387 . S
H8034 C8041 0.950 . S
C8035 C8033 1.387 . S
C8035 C8037 1.390 . S
C8035 H8039 0.950 . S
H8036 C8032 0.950 . S
C8037 C8035 1.390 . S
C8037 C8038 1.387 . S
C8037 H8040 0.950 . S
C8038 C8037 1.387 . S
C8038 C8041 1.387 . S
H8039 C8035 0.950 . S
H8040 C8037 0.950 . S
C8041 C8032 1.390 . S
C8041 H8034 0.950 . S
C8041 C8038 1.387 . S
C8042 C8043 1.387 . S
C8042 H8046 0.950 . S
C8042 C8051 1.390 . S
C8043 C8042 1.387 . S
C8043 C8045 1.387 . S
H8044 C8051 0.950 . S
C8045 C8043 1.387 . S
C8045 C8047 1.390 . S
C8045 H8049 0.950 . S
H8046 C8042 0.950 . S
C8047 C8045 1.390 . S
C8047 C8048 1.387 . S
C8047 H8050 0.950 . S
C8048 C8047 1.387 . S
C8048 C8051 1.387 . S
H8049 C8045 0.950 . S
H8050 C8047 0.950 . S
C8051 C8042 1.390 . S
C8051 H8044 0.950 . S
C8051 C8048 1.387 . S
C8052 C8053 1.387 . S
C8052 H8056 0.950 . S
C8052 C8061 1.390 . S
C8053 C8052 1.387 . S
C8053 C8055 1.387 . S
H8054 C8061 0.950 . S
C8055 C8053 1.387 . S
C8055 C8057 1.390 . S
C8055 H8059 0.950 . S
H8056 C8052 0.950 . S
C8057 C8055 1.390 . S
C8057 C8058 1.387 . S
C8057 H8060 0.950 . S
C8058 C8057 1.387 . S
C8058 C8061 1.387 . S
H8059 C8055 0.950 . S
H8060 C8057 0.950 . S
C8061 C8052 1.390 . S
C8061 H8054 0.950 . S
C8061 C8058 1.387 . S
C8062 C8063 1.387 . S
C8062 H8066 0.950 . S
C8062 C8071 1.390 . S
C8063 C8062 1.387 . S
C8063 C8065 1.387 . S
H8064 C8071 0.950 . S
C8065 C8063 1.387 . S
C8065 C8067 1.390 . S
C8065 H8069 0.950 . S
H8066 C8062 0.950 . S
C8067 C8065 1.390 . S
C8067 C8068 1.387 . S
C8067 H8070 0.950 . S
C8068 C8067 1.387 . S
C8068 C8071 1.387 . S
H8069 C8065 0.950 . S
H8070 C8067 0.950 . S
C8071 C8062 1.390 . S
C8071 H8064 0.950 . S
C8071 C8068 1.387 . S
C8072 C8073 1.387 . S
C8072 H8076 0.950 . S
C8072 C8081 1.390 . S
C8073 C8072 1.387 . S
C8073 C8075 1.387 . S
H8074 C8081 0.950 . S
C8075 C8073 1.387 . S
C8075 C8077 1.390 . S
C8075 H8079 0.950 . S
H8076 C8072 0.950 . S
C8077 C8075 1.390 . S
C8077 C8078 1.387 . S
C8077 H8080 0.950 . S
C8078 C8077 1.387 . S
C8078 C8081 1.387 . S
H8079 C8075 0.950 . S
H8080 C8077 0.950 . S
C8081 C8072 1.390 . S
C8081 H8074 0.950 . S
C8081 C8078 1.387 . S
C8082 C8083 1.387 . S
C8082 H8086 0.950 . S
C8082 C8091 1.390 . S
C8083 C8082 1.387 . S
C8083 C8085 1.387 . S
H8084 C8091 0.950 . S
C8085 C8083 1.387 . S
C8085 C8087 1.390 . S
C8085 H8089 0.950 . S
H8086 C8082 0.950 . S
C8087 C8085 1.390 . S
C8087 C8088 1.387 . S
C8087 H8090 0.950 . S
C8088 C8087 1.387 . S
C8088 C8091 1.387 . S
H8089 C8085 0.950 . S
H8090 C8087 0.950 . S
C8091 C8082 1.390 . S
C8091 H8084 0.950 . S
C8091 C8088 1.387 . S
C8092 C8093 1.387 . S
C8092 H8096 0.950 . S
C8092 C8101 1.390 . S
C8093 C8092 1.387 . S
C8093 C8095 1.387 . S
H8094 C8101 0.950 . S
C8095 C8093 1.387 . S
C8095 C8097 1.390 . S
C8095 H8099 0.950 . S
H8096 C8092 0.950 . S
C8097 C8095 1.390 . S
C8097 C8098 1.387 . S
C8097 H8100 0.950 . S
C8098 C8097 1.387 . S
C8098 C8101 1.387 . S
H8099 C8095 0.950 . S
H8100 C8097 0.950 . S
C8101 C8092 1.390 . S
C8101 H8094 0.950 . S
C8101 C8098 1.387 . S
C8102 C8103 1.387 . S
C8102 H8106 0.950 . S
C8102 C8111 1.390 . S
C8103 C8102 1.387 . S
C8103 C8105 1.387 . S
H8104 C8111 0.950 . S
C8105 C8103 1.387 . S
C8105 C8107 1.390 . S
C8105 H8109 0.950 . S
H8106 C8102 0.950 . S
C8107 C8105 1.390 . S
C8107 C8108 1.387 . S
C8107 H8110 0.950 . S
C8108 C8107 1.387 . S
C8108 C8111 1.387 . S
H8109 C8105 0.950 . S
H8110 C8107 0.950 . S
C8111 C8102 1.390 . S
C8111 H8104 0.950 . S
C8111 C8108 1.387 . S
C8112 C8113 1.387 . S
C8112 H8116 0.950 . S
C8112 C8121 1.390 . S
C8113 C8112 1.387 . S
C8113 C8115 1.387 . S
H8114 C8121 0.950 . S
C8115 C8113 1.387 . S
C8115 C8117 1.390 . S
C8115 H8119 0.950 . S
H8116 C8112 0.950 . S
C8117 C8115 1.390 . S
C8117 C8118 1.387 . S
C8117 H8120 0.950 . S
C8118 C8117 1.387 . S
C8118 C8121 1.387 . S
H8119 C8115 0.950 . S
H8120 C8117 0.950 . S
C8121 C8112 1.390 . S
C8121 H8114 0.950 . S
C8121 C8118 1.387 . S
C8122 C8123 1.387 . S
C8122 H8126 0.950 . S
C8122 C8131 1.390 . S
C8123 C8122 1.387 . S
C8123 C8125 1.387 . S
H8124 C8131 0.950 . S
C8125 C8123 1.387 . S
C8125 C8127 1.390 . S
C8125 H8129 0.950 . S
H8126 C8122 0.950 . S
C8127 C8125 1.390 . S
C8127 C8128 1.387 . S
C8127 H8130 0.950 . S
C8128 C8127 1.387 . S
C8128 C8131 1.387 . S
H8129 C8125 0.950 . S
H8130 C8127 0.950 . S
C8131 C8122 1.390 . S
C8131 H8124 0.950 . S
C8131 C8128 1.387 . S
C8132 C8133 1.387 . S
C8132 H8136 0.950 . S
C8132 C8141 1.390 . S
C8133 C8132 1.387 . S
C8133 C8135 1.387 . S
H8134 C8141 0.950 . S
C8135 C8133 1.387 . S
C8135 C8137 1.390 . S
C8135 H8139 0.950 . S
H8136 C8132 0.950 . S
C8137 C8135 1.390 . S
C8137 C8138 1.387 . S
C8137 H8140 0.950 . S
C8138 C8137 1.387 . S
C8138 C8141 1.387 . S
H8139 C8135 0.950 . S
H8140 C8137 0.950 . S
C8141 C8132 1.390 . S
C8141 H8134 0.950 . S
C8141 C8138 1.387 . S
C8142 C8143 1.387 . S
C8142 H8146 0.950 . S
C8142 C8151 1.390 . S
C8143 C8142 1.387 . S
C8143 C8145 1.387 . S
H8144 C8151 0.950 . S
C8145 C8143 1.387 . S
C8145 C8147 1.390 . S
C8145 H8149 0.950 . S
H8146 C8142 0.950 . S
C8147 C8145 1.390 . S
C8147 C8148 1.387 . S
C8147 H8150 0.950 . S
C8148 C8147 1.387 . S
C8148 C8151 1.387 . S
H8149 C8145 0.950 . S
H8150 C8147 0.950 . S
C8151 C8142 1.390 . S
C8151 H8144 0.950 . S
C8151 C8148 1.387 . S
C8152 C8153 1.387 . S
C8152 H8156 0.950 . S
C8152 C8161 1.390 . S
C8153 C8152 1.387 . S
C8153 C8155 1.387 . S
H8154 C8161 0.950 . S
C8155 C8153 1.387 . S
C8155 C8157 1.390 . S
C8155 H8159 0.950 . S
H8156 C8152 0.950 . S
C8157 C8155 1.390 . S
C8157 C8158 1.387 . S
C8157 H8160 0.950 . S
C8158 C8157 1.387 . S
C8158 C8161 1.387 . S
H8159 C8155 0.950 . S
H8160 C8157 0.950 . S
C8161 C8152 1.390 . S
C8161 H8154 0.950 . S
C8161 C8158 1.387 . S
C8162 C8163 1.387 . S
C8162 H8166 0.950 . S
C8162 C8171 1.390 . S
C8163 C8162 1.387 . S
C8163 C8165 1.387 . S
H8164 C8171 0.950 . S
C8165 C8163 1.387 . S
C8165 C8167 1.390 . S
C8165 H8169 0.950 . S
H8166 C8162 0.950 . S
C8167 C8165 1.390 . S
C8167 C8168 1.387 . S
C8167 H8170 0.950 . S
C8168 C8167 1.387 . S
C8168 C8171 1.387 . S
H8169 C8165 0.950 . S
H8170 C8167 0.950 . S
C8171 C8162 1.390 . S
C8171 H8164 0.950 . S
C8171 C8168 1.387 . S
C8172 C8173 1.387 . S
C8172 H8176 0.950 . S
C8172 C8181 1.390 . S
C8173 C8172 1.387 . S
C8173 C8175 1.387 . S
H8174 C8181 0.950 . S
C8175 C8173 1.387 . S
C8175 C8177 1.390 . S
C8175 H8179 0.950 . S
H8176 C8172 0.950 . S
C8177 C8175 1.390 . S
C8177 C8178 1.387 . S
C8177 H8180 0.950 . S
C8178 C8177 1.387 . S
C8178 C8181 1.387 . S
H8179 C8175 0.950 . S
H8180 C8177 0.950 . S
C8181 C8172 1.390 . S
C8181 H8174 0.950 . S
C8181 C8178 1.387 . S
C8182 C8183 1.387 . S
C8182 H8186 0.950 . S
C8182 C8191 1.390 . S
C8183 C8182 1.387 . S
C8183 C8185 1.387 . S
H8184 C8191 0.950 . S
C8185 C8183 1.387 . S
C8185 C8187 1.390 . S
C8185 H8189 0.950 . S
H8186 C8182 0.950 . S
C8187 C8185 1.390 . S
C8187 C8188 1.387 . S
C8187 H8190 0.950 . S
C8188 C8187 1.387 . S
C8188 C8191 1.387 . S
H8189 C8185 0.950 . S
H8190 C8187 0.950 . S
C8191 C8182 1.390 . S
C8191 H8184 0.950 . S
C8191 C8188 1.387 . S
C8192 C8193 1.387 . S
C8192 H8196 0.950 . S
C8192 C8201 1.390 . S
C8193 C8192 1.387 . S
C8193 C8195 1.387 . S
H8194 C8201 0.950 . S
C8195 C8193 1.387 . S
C8195 C8197 1.390 . S
C8195 H8199 0.950 . S
H8196 C8192 0.950 . S
C8197 C8195 1.390 . S
C8197 C8198 1.387 . S
C8197 H8200 0.950 . S
C8198 C8197 1.387 . S
C8198 C8201 1.387 . S
H8199 C8195 0.950 . S
H8200 C8197 0.950 . S
C8201 C8192 1.390 . S
C8201 H8194 0.950 . S
C8201 C8198 1.387 . S
C8202 C8203 1.387 . S
C8202 H8206 0.950 . S
C8202 C8211 1.390 . S
C8203 C8202 1.387 . S
C8203 C8205 1.387 . S
H8204 C8211 0.950 . S
C8205 C8203 1.387 . S
C8205 C8207 1.390 . S
C8205 H8209 0.950 . S
H8206 C8202 0.950 . S
C8207 C8205 1.390 . S
C8207 C8208 1.387 . S
C8207 H8210 0.950 . S
C8208 C8207 1.387 . S
C8208 C8211 1.387 . S
H8209 C8205 0.950 . S
H8210 C8207 0.950 . S
C8211 C8202 1.390 . S
C8211 H8204 0.950 . S
C8211 C8208 1.387 . S
C8212 C8213 1.387 . S
C8212 H8216 0.950 . S
C8212 C8221 1.390 . S
C8213 C8212 1.387 . S
C8213 C8215 1.387 . S
H8214 C8221 0.950 . S
C8215 C8213 1.387 . S
C8215 C8217 1.390 . S
C8215 H8219 0.950 . S
H8216 C8212 0.950 . S
C8217 C8215 1.390 . S
C8217 C8218 1.387 . S
C8217 H8220 0.950 . S
C8218 C8217 1.387 . S
C8218 C8221 1.387 . S
H8219 C8215 0.950 . S
H8220 C8217 0.950 . S
C8221 C8212 1.390 . S
C8221 H8214 0.950 . S
C8221 C8218 1.387 . S
C8222 C8223 1.387 . S
C8222 H8226 0.950 . S
C8222 C8231 1.390 . S
C8223 C8222 1.387 . S
C8223 C8225 1.387 . S
H8224 C8231 0.950 . S
C8225 C8223 1.387 . S
C8225 C8227 1.390 . S
C8225 H8229 0.950 . S
H8226 C8222 0.950 . S
C8227 C8225 1.390 . S
C8227 C8228 1.387 . S
C8227 H8230 0.950 . S
C8228 C8227 1.387 . S
C8228 C8231 1.387 . S
H8229 C8225 0.950 . S
H8230 C8227 0.950 . S
C8231 C8222 1.390 . S
C8231 H8224 0.950 . S
C8231 C8228 1.387 . S
C8232 C8233 1.387 . S
C8232 H8236 0.950 . S
C8232 C8241 1.390 . S
C8233 C8232 1.387 . S
C8233 C8235 1.387 . S
H8234 C8241 0.950 . S
C8235 C8233 1.387 . S
C8235 C8237 1.390 . S
C8235 H8239 0.950 . S
H8236 C8232 0.950 . S
C8237 C8235 1.390 . S
C8237 C8238 1.387 . S
C8237 H8240 0.950 . S
C8238 C8237 1.387 . S
C8238 C8241 1.387 . S
H8239 C8235 0.950 . S
H8240 C8237 0.950 . S
C8241 C8232 1.390 . S
C8241 H8234 0.950 . S
C8241 C8238 1.387 . S
C8242 C8243 1.387 . S
C8242 H8246 0.950 . S
C8242 C8251 1.390 . S
C8243 C8242 1.387 . S
C8243 C8245 1.387 . S
H8244 C8251 0.950 . S
C8245 C8243 1.387 . S
C8245 C8247 1.390 . S
C8245 H8249 0.950 . S
H8246 C8242 0.950 . S
C8247 C8245 1.390 . S
C8247 C8248 1.387 . S
C8247 H8250 0.950 . S
C8248 C8247 1.387 . S
C8248 C8251 1.387 . S
H8249 C8245 0.950 . S
H8250 C8247 0.950 . S
C8251 C8242 1.390 . S
C8251 H8244 0.950 . S
C8251 C8248 1.387 . S
C8252 C8253 1.387 . S
C8252 H8256 0.950 . S
C8252 C8261 1.390 . S
C8253 C8252 1.387 . S
C8253 C8255 1.387 . S
H8254 C8261 0.950 . S
C8255 C8253 1.387 . S
C8255 C8257 1.390 . S
C8255 H8259 0.950 . S
H8256 C8252 0.950 . S
C8257 C8255 1.390 . S
C8257 C8258 1.387 . S
C8257 H8260 0.950 . S
C8258 C8257 1.387 . S
C8258 C8261 1.387 . S
H8259 C8255 0.950 . S
H8260 C8257 0.950 . S
C8261 C8252 1.390 . S
C8261 H8254 0.950 . S
C8261 C8258 1.387 . S
C8262 C8263 1.387 . S
C8262 H8266 0.950 . S
C8262 C8271 1.390 . S
C8263 C8262 1.387 . S
C8263 C8265 1.387 . S
H8264 C8271 0.950 . S
C8265 C8263 1.387 . S
C8265 C8267 1.390 . S
C8265 H8269 0.950 . S
H8266 C8262 0.950 . S
C8267 C8265 1.390 . S
C8267 C8268 1.387 . S
C8267 H8270 0.950 . S
C8268 C8267 1.387 . S
C8268 C8271 1.387 . S
H8269 C8265 0.950 . S
H8270 C8267 0.950 . S
C8271 C8262 1.390 . S
C8271 H8264 0.950 . S
C8271 C8268 1.387 . S
C8272 C8273 1.387 . S
C8272 H8276 0.950 . S
C8272 C8281 1.390 . S
C8273 C8272 1.387 . S
C8273 C8275 1.387 . S
H8274 C8281 0.950 . S
C8275 C8273 1.387 . S
C8275 C8277 1.390 . S
C8275 H8279 0.950 . S
H8276 C8272 0.950 . S
C8277 C8275 1.390 . S
C8277 C8278 1.387 . S
C8277 H8280 0.950 . S
C8278 C8277 1.387 . S
C8278 C8281 1.387 . S
H8279 C8275 0.950 . S
H8280 C8277 0.950 . S
C8281 C8272 1.390 . S
C8281 H8274 0.950 . S
C8281 C8278 1.387 . S
C8282 C8283 1.387 . S
C8282 H8286 0.950 . S
C8282 C8291 1.390 . S
C8283 C8282 1.387 . S
C8283 C8285 1.387 . S
H8284 C8291 0.950 . S
C8285 C8283 1.387 . S
C8285 C8287 1.390 . S
C8285 H8289 0.950 . S
H8286 C8282 0.950 . S
C8287 C8285 1.390 . S
C8287 C8288 1.387 . S
C8287 H8290 0.950 . S
C8288 C8287 1.387 . S
C8288 C8291 1.387 . S
H8289 C8285 0.950 . S
H8290 C8287 0.950 . S
C8291 C8282 1.390 . S
C8291 H8284 0.950 . S
C8291 C8288 1.387 . S
C8292 C8293 1.387 . S
C8292 H8296 0.950 . S
C8292 C8301 1.390 . S
C8293 C8292 1.387 . S
C8293 C8295 1.387 . S
H8294 C8301 0.950 . S
C8295 C8293 1.387 . S
C8295 C8297 1.390 . S
C8295 H8299 0.950 . S
H8296 C8292 0.950 . S
C8297 C8295 1.390 . S
C8297 C8298 1.387 . S
C8297 H8300 0.950 . S
C8298 C8297 1.387 . S
C8298 C8301 1.387 . S
H8299 C8295 0.950 . S
H8300 C8297 0.950 . S
C8301 C8292 1.390 . S
C8301 H8294 0.950 . S
C8301 C8298 1.387 . S
C8302 C8303 1.387 . S
C8302 H8306 0.950 . S
C8302 C8311 1.390 . S
C8303 C8302 1.387 . S
C8303 C8305 1.387 . S
H8304 C8311 0.950 . S
C8305 C8303 1.387 . S
C8305 C8307 1.390 . S
C8305 H8309 0.950 . S
H8306 C8302 0.950 . S
C8307 C8305 1.390 . S
C8307 C8308 1.387 . S
C8307 H8310 0.950 . S
C8308 C8307 1.387 . S
C8308 C8311 1.387 . S
H8309 C8305 0.950 . S
H8310 C8307 0.950 . S
C8311 C8302 1.390 . S
C8311 H8304 0.950 . S
C8311 C8308 1.387 . S
C8312 C8313 1.387 . S
C8312 H8316 0.950 . S
C8312 C8321 1.390 . S
C8313 C8312 1.387 . S
C8313 C8315 1.387 . S
H8314 C8321 0.950 . S
C8315 C8313 1.387 . S
C8315 C8317 1.390 . S
C8315 H8319 0.950 . S
H8316 C8312 0.950 . S
C8317 C8315 1.390 . S
C8317 C8318 1.387 . S
C8317 H8320 0.950 . S
C8318 C8317 1.387 . S
C8318 C8321 1.387 . S
H8319 C8315 0.950 . S
H8320 C8317 0.950 . S
C8321 C8312 1.390 . S
C8321 H8314 0.950 . S
C8321 C8318 1.387 . S
C8322 C8323 1.387 . S
C8322 H8326 0.950 . S
C8322 C8331 1.390 . S
C8323 C8322 1.387 . S
C8323 C8325 1.387 . S
H8324 C8331 0.950 . S
C8325 C8323 1.387 . S
C8325 C8327 1.390 . S
C8325 H8329 0.950 . S
H8326 C8322 0.950 . S
C8327 C8325 1.390 . S
C8327 C8328 1.387 . S
C8327 H8330 0.950 . S
C8328 C8327 1.387 . S
C8328 C8331 1.387 . S
H8329 C8325 0.950 . S
H8330 C8327 0.950 . S
C8331 C8322 1.390 . S
C8331 H8324 0.950 . S
C8331 C8328 1.387 . S
C8332 C8333 1.387 . S
C8332 H8336 0.950 . S
C8332 C8341 1.390 . S
C8333 C8332 1.387 . S
C8333 C8335 1.387 . S
H8334 C8341 0.950 . S
C8335 C8333 1.387 . S
C8335 C8337 1.390 . S
C8335 H8339 0.950 . S
H8336 C8332 0.950 . S
C8337 C8335 1.390 . S
C8337 C8338 1.387 . S
C8337 H8340 0.950 . S
C8338 C8337 1.387 . S
C8338 C8341 1.387 . S
H8339 C8335 0.950 . S
H8340 C8337 0.950 . S
C8341 C8332 1.390 . S
C8341 H8334 0.950 . S
C8341 C8338 1.387 . S
C8342 C8343 1.387 . S
C8342 H8346 0.950 . S
C8342 C8351 1.390 . S
C8343 C8342 1.387 . S
C8343 C8345 1.387 . S
H8344 C8351 0.950 . S
C8345 C8343 1.387 . S
C8345 C8347 1.390 . S
C8345 H8349 0.950 . S
H8346 C8342 0.950 . S
C8347 C8345 1.390 . S
C8347 C8348 1.387 . S
C8347 H8350 0.950 . S
C8348 C8347 1.387 . S
C8348 C8351 1.387 . S
H8349 C8345 0.950 . S
H8350 C8347 0.950 . S
C8351 C8342 1.390 . S
C8351 H8344 0.950 . S
C8351 C8348 1.387 . S
C8352 C8353 1.387 . S
C8352 H8356 0.950 . S
C8352 C8361 1.390 . S
C8353 C8352 1.387 . S
C8353 C8355 1.387 . S
H8354 C8361 0.950 . S
C8355 C8353 1.387 . S
C8355 C8357 1.390 . S
C8355 H8359 0.950 . S
H8356 C8352 0.950 . S
C8357 C8355 1.390 . S
C8357 C8358 1.387 . S
C8357 H8360 0.950 . S
C8358 C8357 1.387 . S
C8358 C8361 1.387 . S
H8359 C8355 0.950 . S
H8360 C8357 0.950 . S
C8361 C8352 1.390 . S
C8361 H8354 0.950 . S
C8361 C8358 1.387 . S
C8362 C8363 1.387 . S
C8362 H8366 0.950 . S
C8362 C8371 1.390 . S
C8363 C8362 1.387 . S
C8363 C8365 1.387 . S
H8364 C8371 0.950 . S
C8365 C8363 1.387 . S
C8365 C8367 1.390 . S
C8365 H8369 0.950 . S
H8366 C8362 0.950 . S
C8367 C8365 1.390 . S
C8367 C8368 1.387 . S
C8367 H8370 0.950 . S
C8368 C8367 1.387 . S
C8368 C8371 1.387 . S
H8369 C8365 0.950 . S
H8370 C8367 0.950 . S
C8371 C8362 1.390 . S
C8371 H8364 0.950 . S
C8371 C8368 1.387 . S
C8372 C8373 1.387 . S
C8372 H8376 0.950 . S
C8372 C8381 1.390 . S
C8373 C8372 1.387 . S
C8373 C8375 1.387 . S
H8374 C8381 0.950 . S
C8375 C8373 1.387 . S
C8375 C8377 1.390 . S
C8375 H8379 0.950 . S
H8376 C8372 0.950 . S
C8377 C8375 1.390 . S
C8377 C8378 1.387 . S
C8377 H8380 0.950 . S
C8378 C8377 1.387 . S
C8378 C8381 1.387 . S
H8379 C8375 0.950 . S
H8380 C8377 0.950 . S
C8381 C8372 1.390 . S
C8381 H8374 0.950 . S
C8381 C8378 1.387 . S
C8382 C8383 1.387 . S
C8382 H8386 0.950 . S
C8382 C8391 1.390 . S
C8383 C8382 1.387 . S
C8383 C8385 1.387 . S
H8384 C8391 0.950 . S
C8385 C8383 1.387 . S
C8385 C8387 1.390 . S
C8385 H8389 0.950 . S
H8386 C8382 0.950 . S
C8387 C8385 1.390 . S
C8387 C8388 1.387 . S
C8387 H8390 0.950 . S
C8388 C8387 1.387 . S
C8388 C8391 1.387 . S
H8389 C8385 0.950 . S
H8390 C8387 0.950 . S
C8391 C8382 1.390 . S
C8391 H8384 0.950 . S
C8391 C8388 1.387 . S
C8392 C8393 1.387 . S
C8392 H8396 0.950 . S
C8392 C8401 1.390 . S
C8393 C8392 1.387 . S
C8393 C8395 1.387 . S
H8394 C8401 0.950 . S
C8395 C8393 1.387 . S
C8395 C8397 1.390 . S
C8395 H8399 0.950 . S
H8396 C8392 0.950 . S
C8397 C8395 1.390 . S
C8397 C8398 1.387 . S
C8397 H8400 0.950 . S
C8398 C8397 1.387 . S
C8398 C8401 1.387 . S
H8399 C8395 0.950 . S
H8400 C8397 0.950 . S
C8401 C8392 1.390 . S
C8401 H8394 0.950 . S
C8401 C8398 1.387 . S
C8402 C8403 1.387 . S
C8402 H8406 0.950 . S
C8402 C8411 1.390 . S
C8403 C8402 1.387 . S
C8403 C8405 1.387 . S
H8404 C8411 0.950 . S
C8405 C8403 1.387 . S
C8405 C8407 1.390 . S
C8405 H8409 0.950 . S
H8406 C8402 0.950 . S
C8407 C8405 1.390 . S
C8407 C8408 1.387 . S
C8407 H8410 0.950 . S
C8408 C8407 1.387 . S
C8408 C8411 1.387 . S
H8409 C8405 0.950 . S
H8410 C8407 0.950 . S
C8411 C8402 1.390 . S
C8411 H8404 0.950 . S
C8411 C8408 1.387 . S
C8412 C8413 1.387 . S
C8412 H8416 0.950 . S
C8412 C8421 1.390 . S
C8413 C8412 1.387 . S
C8413 C8415 1.387 . S
H8414 C8421 0.950 . S
C8415 C8413 1.387 . S
C8415 C8417 1.390 . S
C8415 H8419 0.950 . S
H8416 C8412 0.950 . S
C8417 C8415 1.390 . S
C8417 C8418 1.387 . S
C8417 H8420 0.950 . S
C8418 C8417 1.387 . S
C8418 C8421 1.387 . S
H8419 C8415 0.950 . S
H8420 C8417 0.950 . S
C8421 C8412 1.390 . S
C8421 H8414 0.950 . S
C8421 C8418 1.387 . S
C8422 C8423 1.387 . S
C8422 H8426 0.950 . S
C8422 C8431 1.390 . S
C8423 C8422 1.387 . S
C8423 C8425 1.387 . S
H8424 C8431 0.950 . S
C8425 C8423 1.387 . S
C8425 C8427 1.390 . S
C8425 H8429 0.950 . S
H8426 C8422 0.950 . S
C8427 C8425 1.390 . S
C8427 C8428 1.387 . S
C8427 H8430 0.950 . S
C8428 C8427 1.387 . S
C8428 C8431 1.387 . S
H8429 C8425 0.950 . S
H8430 C8427 0.950 . S
C8431 C8422 1.390 . S
C8431 H8424 0.950 . S
C8431 C8428 1.387 . S
C8432 C8433 1.387 . S
C8432 H8436 0.950 . S
C8432 C8441 1.390 . S
C8433 C8432 1.387 . S
C8433 C8435 1.387 . S
H8434 C8441 0.950 . S
C8435 C8433 1.387 . S
C8435 C8437 1.390 . S
C8435 H8439 0.950 . S
H8436 C8432 0.950 . S
C8437 C8435 1.390 . S
C8437 C8438 1.387 . S
C8437 H8440 0.950 . S
C8438 C8437 1.387 . S
C8438 C8441 1.387 . S
H8439 C8435 0.950 . S
H8440 C8437 0.950 . S
C8441 C8432 1.390 . S
C8441 H8434 0.950 . S
C8441 C8438 1.387 . S
C8442 C8443 1.387 . S
C8442 H8446 0.950 . S
C8442 C8451 1.390 . S
C8443 C8442 1.387 . S
C8443 C8445 1.387 . S
H8444 C8451 0.950 . S
C8445 C8443 1.387 . S
C8445 C8447 1.390 . S
C8445 H8449 0.950 . S
H8446 C8442 0.950 . S
C8447 C8445 1.390 . S
C8447 C8448 1.387 . S
C8447 H8450 0.950 . S
C8448 C8447 1.387 . S
C8448 C8451 1.387 . S
H8449 C8445 0.950 . S
H8450 C8447 0.950 . S
C8451 C8442 1.390 . S
C8451 H8444 0.950 . S
C8451 C8448 1.387 . S
C8452 C8453 1.387 . S
C8452 H8456 0.950 . S
C8452 C8461 1.390 . S
C8453 C8452 1.387 . S
C8453 C8455 1.387 . S
H8454 C8461 0.950 . S
C8455 C8453 1.387 . S
C8455 C8457 1.390 . S
C8455 H8459 0.950 . S
H8456 C8452 0.950 . S
C8457 C8455 1.390 . S
C8457 C8458 1.387 . S
C8457 H8460 0.950 . S
C8458 C8457 1.387 . S
C8458 C8461 1.387 . S
H8459 C8455 0.950 . S
H8460 C8457 0.950 . S
C8461 C8452 1.390 . S
C8461 H8454 0.950 . S
C8461 C8458 1.387 . S
C8462 C8463 1.387 . S
C8462 H8466 0.950 . S
C8462 C8471 1.390 . S
C8463 C8462 1.387 . S
C8463 C8465 1.387 . S
H8464 C8471 0.950 . S
C8465 C8463 1.387 . S
C8465 C8467 1.390 . S
C8465 H8469 0.950 . S
H8466 C8462 0.950 . S
C8467 C8465 1.390 . S
C8467 C8468 1.387 . S
C8467 H8470 0.950 . S
C8468 C8467 1.387 . S
C8468 C8471 1.387 . S
H8469 C8465 0.950 . S
H8470 C8467 0.950 . S
C8471 C8462 1.390 . S
C8471 H8464 0.950 . S
C8471 C8468 1.387 . S
C8472 C8473 1.387 . S
C8472 H8476 0.950 . S
C8472 C8481 1.390 . S
C8473 C8472 1.387 . S
C8473 C8475 1.387 . S
H8474 C8481 0.950 . S
C8475 C8473 1.387 . S
C8475 C8477 1.390 . S
C8475 H8479 0.950 . S
H8476 C8472 0.950 . S
C8477 C8475 1.390 . S
C8477 C8478 1.387 . S
C8477 H8480 0.950 . S
C8478 C8477 1.387 . S
C8478 C8481 1.387 . S
H8479 C8475 0.950 . S
H8480 C8477 0.950 . S
C8481 C8472 1.390 . S
C8481 H8474 0.950 . S
C8481 C8478 1.387 . S
C8482 C8483 1.387 . S
C8482 H8486 0.950 . S
C8482 C8491 1.390 . S
C8483 C8482 1.387 . S
C8483 C8485 1.387 . S
H8484 C8491 0.950 . S
C8485 C8483 1.387 . S
C8485 C8487 1.390 . S
C8485 H8489 0.950 . S
H8486 C8482 0.950 . S
C8487 C8485 1.390 . S
C8487 C8488 1.387 . S
C8487 H8490 0.950 . S
C8488 C8487 1.387 . S
C8488 C8491 1.387 . S
H8489 C8485 0.950 . S
H8490 C8487 0.950 . S
C8491 C8482 1.390 . S
C8491 H8484 0.950 . S
C8491 C8488 1.387 . S
C8492 C8493 1.387 . S
C8492 H8496 0.950 . S
C8492 C8501 1.390 . S
C8493 C8492 1.387 . S
C8493 C8495 1.387 . S
H8494 C8501 0.950 . S
C8495 C8493 1.387 . S
C8495 C8497 1.390 . S
C8495 H8499 0.950 . S
H8496 C8492 0.950 . S
C8497 C8495 1.390 . S
C8497 C8498 1.387 . S
C8497 H8500 0.950 . S
C8498 C8497 1.387 . S
C8498 C8501 1.387 . S
H8499 C8495 0.950 . S
H8500 C8497 0.950 . S
C8501 C8492 1.390 . S
C8501 H8494 0.950 . S
C8501 C8498 1.387 . S
C8502 C8503 1.387 . S
C8502 H8506 0.950 . S
C8502 C8511 1.390 . S
C8503 C8502 1.387 . S
C8503 C8505 1.387 . S
H8504 C8511 0.950 . S
C8505 C8503 1.387 . S
C8505 C8507 1.390 . S
C8505 H8509 0.950 . S
H8506 C8502 0.950 . S
C8507 C8505 1.390 . S
C8507 C8508 1.387 . S
C8507 H8510 0.950 . S
C8508 C8507 1.387 . S
C8508 C8511 1.387 . S
H8509 C8505 0.950 . S
H8510 C8507 0.950 . S
C8511 C8502 1.390 . S
C8511 H8504 0.950 . S
C8511 C8508 1.387 . S
C8512 C8513 1.387 . S
C8512 H8516 0.950 . S
C8512 C8521 1.390 . S
C8513 C8512 1.387 . S
C8513 C8515 1.387 . S
H8514 C8521 0.950 . S
C8515 C8513 1.387 . S
C8515 C8517 1.390 . S
C8515 H8519 0.950 . S
H8516 C8512 0.950 . S
C8517 C8515 1.390 . S
C8517 C8518 1.387 . S
C8517 H8520 0.950 . S
C8518 C8517 1.387 . S
C8518 C8521 1.387 . S
H8519 C8515 0.950 . S
H8520 C8517 0.950 . S
C8521 C8512 1.390 . S
C8521 H8514 0.950 . S
C8521 C8518 1.387 . S
C8522 C8523 1.387 . S
C8522 H8526 0.950 . S
C8522 C8531 1.390 . S
C8523 C8522 1.387 . S
C8523 C8525 1.387 . S
H8524 C8531 0.950 . S
C8525 C8523 1.387 . S
C8525 C8527 1.390 . S
C8525 H8529 0.950 . S
H8526 C8522 0.950 . S
C8527 C8525 1.390 . S
C8527 C8528 1.387 . S
C8527 H8530 0.950 . S
C8528 C8527 1.387 . S
C8528 C8531 1.387 . S
H8529 C8525 0.950 . S
H8530 C8527 0.950 . S
C8531 C8522 1.390 . S
C8531 H8524 0.950 . S
C8531 C8528 1.387 . S
C8532 C8533 1.387 . S
C8532 H8536 0.950 . S
C8532 C8541 1.390 . S
C8533 C8532 1.387 . S
C8533 C8535 1.387 . S
H8534 C8541 0.950 . S
C8535 C8533 1.387 . S
C8535 C8537 1.390 . S
C8535 H8539 0.950 . S
H8536 C8532 0.950 . S
C8537 C8535 1.390 . S
C8537 C8538 1.387 . S
C8537 H8540 0.950 . S
C8538 C8537 1.387 . S
C8538 C8541 1.387 . S
H8539 C8535 0.950 . S
H8540 C8537 0.950 . S
C8541 C8532 1.390 . S
C8541 H8534 0.950 . S
C8541 C8538 1.387 . S
C8542 C8543 1.387 . S
C8542 H8546 0.950 . S
C8542 C8551 1.390 . S
C8543 C8542 1.387 . S
C8543 C8545 1.387 . S
H8544 C8551 0.950 . S
C8545 C8543 1.387 . S
C8545 C8547 1.390 . S
C8545 H8549 0.950 . S
H8546 C8542 0.950 . S
C8547 C8545 1.390 . S
C8547 C8548 1.387 . S
C8547 H8550 0.950 . S
C8548 C8547 1.387 . S
C8548 C8551 1.387 . S
H8549 C8545 0.950 . S
H8550 C8547 0.950 . S
C8551 C8542 1.390 . S
C8551 H8544 0.950 . S
C8551 C8548 1.387 . S
C8552 C8553 1.387 . S
C8552 H8556 0.950 . S
C8552 C8561 1.390 . S
C8553 C8552 1.387 . S
C8553 C8555 1.387 . S
H8554 C8561 0.950 . S
C8555 C8553 1.387 . S
C8555 C8557 1.390 . S
C8555 H8559 0.950 . S
H8556 C8552 0.950 . S
C8557 C8555 1.390 . S
C8557 C8558 1.387 . S
C8557 H8560 0.950 . S
C8558 C8557 1.387 . S
C8558 C8561 1.387 . S
H8559 C8555 0.950 . S
H8560 C8557 0.950 . S
C8561 C8552 1.390 . S
C8561 H8554 0.950 . S
C8561 C8558 1.387 . S
C8562 C8563 1.387 . S
C8562 H8566 0.950 . S
C8562 C8571 1.390 . S
C8563 C8562 1.387 . S
C8563 C8565 1.387 . S
H8564 C8571 0.950 . S
C8565 C8563 1.387 . S
C8565 C8567 1.390 . S
C8565 H8569 0.950 . S
H8566 C8562 0.950 . S
C8567 C8565 1.390 . S
C8567 C8568 1.387 . S
C8567 H8570 0.950 . S
C8568 C8567 1.387 . S
C8568 C8571 1.387 . S
H8569 C8565 0.950 . S
H8570 C8567 0.950 . S
C8571 C8562 1.390 . S
C8571 H8564 0.950 . S
C8571 C8568 1.387 . S
C8572 C8573 1.387 . S
C8572 H8576 0.950 . S
C8572 C8581 1.390 . S
C8573 C8572 1.387 . S
C8573 C8575 1.387 . S
H8574 C8581 0.950 . S
C8575 C8573 1.387 . S
C8575 C8577 1.390 . S
C8575 H8579 0.950 . S
H8576 C8572 0.950 . S
C8577 C8575 1.390 . S
C8577 C8578 1.387 . S
C8577 H8580 0.950 . S
C8578 C8577 1.387 . S
C8578 C8581 1.387 . S
H8579 C8575 0.950 . S
H8580 C8577 0.950 . S
C8581 C8572 1.390 . S
C8581 H8574 0.950 . S
C8581 C8578 1.387 . S
C8582 C8583 1.387 . S
C8582 H8586 0.950 . S
C8582 C8591 1.390 . S
C8583 C8582 1.387 . S
C8583 C8585 1.387 . S
H8584 C8591 0.950 . S
C8585 C8583 1.387 . S
C8585 C8587 1.390 . S
C8585 H8589 0.950 . S
H8586 C8582 0.950 . S
C8587 C8585 1.390 . S
C8587 C8588 1.387 . S
C8587 H8590 0.950 . S
C8588 C8587 1.387 . S
C8588 C8591 1.387 . S
H8589 C8585 0.950 . S
H8590 C8587 0.950 . S
C8591 C8582 1.390 . S
C8591 H8584 0.950 . S
C8591 C8588 1.387 . S
C8592 C8593 1.387 . S
C8592 H8596 0.950 . S
C8592 C8601 1.390 . S
C8593 C8592 1.387 . S
C8593 C8595 1.387 . S
H8594 C8601 0.950 . S
C8595 C8593 1.387 . S
C8595 C8597 1.390 . S
C8595 H8599 0.950 . S
H8596 C8592 0.950 . S
C8597 C8595 1.390 . S
C8597 C8598 1.387 . S
C8597 H8600 0.950 . S
C8598 C8597 1.387 . S
C8598 C8601 1.387 . S
H8599 C8595 0.950 . S
H8600 C8597 0.950 . S
C8601 C8592 1.390 . S
C8601 H8594 0.950 . S
C8601 C8598 1.387 . S
C8602 C8603 1.387 . S
C8602 H8606 0.950 . S
C8602 C8611 1.390 . S
C8603 C8602 1.387 . S
C8603 C8605 1.387 . S
H8604 C8611 0.950 . S
C8605 C8603 1.387 . S
C8605 C8607 1.390 . S
C8605 H8609 0.950 . S
H8606 C8602 0.950 . S
C8607 C8605 1.390 . S
C8607 C8608 1.387 . S
C8607 H8610 0.950 . S
C8608 C8607 1.387 . S
C8608 C8611 1.387 . S
H8609 C8605 0.950 . S
H8610 C8607 0.950 . S
C8611 C8602 1.390 . S
C8611 H8604 0.950 . S
C8611 C8608 1.387 . S
C8612 C8613 1.387 . S
C8612 H8616 0.950 . S
C8612 C8621 1.390 . S
C8613 C8612 1.387 . S
C8613 C8615 1.387 . S
H8614 C8621 0.950 . S
C8615 C8613 1.387 . S
C8615 C8617 1.390 . S
C8615 H8619 0.950 . S
H8616 C8612 0.950 . S
C8617 C8615 1.390 . S
C8617 C8618 1.387 . S
C8617 H8620 0.950 . S
C8618 C8617 1.387 . S
C8618 C8621 1.387 . S
H8619 C8615 0.950 . S
H8620 C8617 0.950 . S
C8621 C8612 1.390 . S
C8621 H8614 0.950 . S
C8621 C8618 1.387 . S
C8622 C8623 1.387 . S
C8622 H8626 0.950 . S
C8622 C8631 1.390 . S
C8623 C8622 1.387 . S
C8623 C8625 1.387 . S
H8624 C8631 0.950 . S
C8625 C8623 1.387 . S
C8625 C8627 1.390 . S
C8625 H8629 0.950 . S
H8626 C8622 0.950 . S
C8627 C8625 1.390 . S
C8627 C8628 1.387 . S
C8627 H8630 0.950 . S
C8628 C8627 1.387 . S
C8628 C8631 1.387 . S
H8629 C8625 0.950 . S
H8630 C8627 0.950 . S
C8631 C8622 1.390 . S
C8631 H8624 0.950 . S
C8631 C8628 1.387 . S
C8632 C8633 1.387 . S
C8632 H8636 0.950 . S
C8632 C8641 1.390 . S
C8633 C8632 1.387 . S
C8633 C8635 1.387 . S
H8634 C8641 0.950 . S
C8635 C8633 1.387 . S
C8635 C8637 1.390 . S
C8635 H8639 0.950 . S
H8636 C8632 0.950 . S
C8637 C8635 1.390 . S
C8637 C8638 1.387 . S
C8637 H8640 0.950 . S
C8638 C8637 1.387 . S
C8638 C8641 1.387 . S
H8639 C8635 0.950 . S
H8640 C8637 0.950 . S
C8641 C8632 1.390 . S
C8641 H8634 0.950 . S
C8641 C8638 1.387 . S
C8642 C8643 1.387 . S
C8642 H8646 0.950 . S
C8642 C8651 1.390 . S
C8643 C8642 1.387 . S
C8643 C8645 1.387 . S
H8644 C8651 0.950 . S
C8645 C8643 1.387 . S
C8645 C8647 1.390 . S
C8645 H8649 0.950 . S
H8646 C8642 0.950 . S
C8647 C8645 1.390 . S
C8647 C8648 1.387 . S
C8647 H8650 0.950 . S
C8648 C8647 1.387 . S
C8648 C8651 1.387 . S
H8649 C8645 0.950 . S
H8650 C8647 0.950 . S
C8651 C8642 1.390 . S
C8651 H8644 0.950 . S
C8651 C8648 1.387 . S
C8652 C8653 1.387 . S
C8652 H8656 0.950 . S
C8652 C8661 1.390 . S
C8653 C8652 1.387 . S
C8653 C8655 1.387 . S
H8654 C8661 0.950 . S
C8655 C8653 1.387 . S
C8655 C8657 1.390 . S
C8655 H8659 0.950 . S
H8656 C8652 0.950 . S
C8657 C8655 1.390 . S
C8657 C8658 1.387 . S
C8657 H8660 0.950 . S
C8658 C8657 1.387 . S
C8658 C8661 1.387 . S
H8659 C8655 0.950 . S
H8660 C8657 0.950 . S
C8661 C8652 1.390 . S
C8661 H8654 0.950 . S
C8661 C8658 1.387 . S
C8662 C8663 1.387 . S
C8662 H8666 0.950 . S
C8662 C8671 1.390 . S
C8663 C8662 1.387 . S
C8663 C8665 1.387 . S
H8664 C8671 0.950 . S
C8665 C8663 1.387 . S
C8665 C8667 1.390 . S
C8665 H8669 0.950 . S
H8666 C8662 0.950 . S
C8667 C8665 1.390 . S
C8667 C8668 1.387 . S
C8667 H8670 0.950 . S
C8668 C8667 1.387 . S
C8668 C8671 1.387 . S
H8669 C8665 0.950 . S
H8670 C8667 0.950 . S
C8671 C8662 1.390 . S
C8671 H8664 0.950 . S
C8671 C8668 1.387 . S
C8672 C8673 1.387 . S
C8672 H8676 0.950 . S
C8672 C8681 1.390 . S
C8673 C8672 1.387 . S
C8673 C8675 1.387 . S
H8674 C8681 0.950 . S
C8675 C8673 1.387 . S
C8675 C8677 1.390 . S
C8675 H8679 0.950 . S
H8676 C8672 0.950 . S
C8677 C8675 1.390 . S
C8677 C8678 1.387 . S
C8677 H8680 0.950 . S
C8678 C8677 1.387 . S
C8678 C8681 1.387 . S
H8679 C8675 0.950 . S
H8680 C8677 0.950 . S
C8681 C8672 1.390 . S
C8681 H8674 0.950 . S
C8681 C8678 1.387 . S
C8682 C8683 1.387 . S
C8682 H8686 0.950 . S
C8682 C8691 1.390 . S
C8683 C8682 1.387 . S
C8683 C8685 1.387 . S
H8684 C8691 0.950 . S
C8685 C8683 1.387 . S
C8685 C8687 1.390 . S
C8685 H8689 0.950 . S
H8686 C8682 0.950 . S
C8687 C8685 1.390 . S
C8687 C8688 1.387 . S
C8687 H8690 0.950 . S
C8688 C8687 1.387 . S
C8688 C8691 1.387 . S
H8689 C8685 0.950 . S
H8690 C8687 0.950 . S
C8691 C8682 1.390 . S
C8691 H8684 0.950 . S
C8691 C8688 1.387 . S
C8692 C8693 1.387 . S
C8692 H8696 0.950 . S
C8692 C8701 1.390 . S
C8693 C8692 1.387 . S
C8693 C8695 1.387 . S
H8694 C8701 0.950 . S
C8695 C8693 1.387 . S
C8695 C8697 1.390 . S
C8695 H8699 0.950 . S
H8696 C8692 0.950 . S
C8697 C8695 1.390 . S
C8697 C8698 1.387 . S
C8697 H8700 0.950 . S
C8698 C8697 1.387 . S
C8698 C8701 1.387 . S
H8699 C8695 0.950 . S
H8700 C8697 0.950 . S
C8701 C8692 1.390 . S
C8701 H8694 0.950 . S
C8701 C8698 1.387 . S
C8702 C8703 1.387 . S
C8702 H8706 0.950 . S
C8702 C8711 1.390 . S
C8703 C8702 1.387 . S
C8703 C8705 1.387 . S
H8704 C8711 0.950 . S
C8705 C8703 1.387 . S
C8705 C8707 1.390 . S
C8705 H8709 0.950 . S
H8706 C8702 0.950 . S
C8707 C8705 1.390 . S
C8707 C8708 1.387 . S
C8707 H8710 0.950 . S
C8708 C8707 1.387 . S
C8708 C8711 1.387 . S
H8709 C8705 0.950 . S
H8710 C8707 0.950 . S
C8711 C8702 1.390 . S
C8711 H8704 0.950 . S
C8711 C8708 1.387 . S
C8712 C8713 1.387 . S
C8712 H8716 0.950 . S
C8712 C8721 1.390 . S
C8713 C8712 1.387 . S
C8713 C8715 1.387 . S
H8714 C8721 0.950 . S
C8715 C8713 1.387 . S
C8715 C8717 1.390 . S
C8715 H8719 0.950 . S
H8716 C8712 0.950 . S
C8717 C8715 1.390 . S
C8717 C8718 1.387 . S
C8717 H8720 0.950 . S
C8718 C8717 1.387 . S
C8718 C8721 1.387 . S
H8719 C8715 0.950 . S
H8720 C8717 0.950 . S
C8721 C8712 1.390 . S
C8721 H8714 0.950 . S
C8721 C8718 1.387 . S
C8722 C8723 1.387 . S
C8722 H8726 0.950 . S
C8722 C8731 1.390 . S
C8723 C8722 1.387 . S
C8723 C8725 1.387 . S
H8724 C8731 0.950 . S
C8725 C8723 1.387 . S
C8725 C8727 1.390 . S
C8725 H8729 0.950 . S
H8726 C8722 0.950 . S
C8727 C8725 1.390 . S
C8727 C8728 1.387 . S
C8727 H8730 0.950 . S
C8728 C8727 1.387 . S
C8728 C8731 1.387 . S
H8729 C8725 0.950 . S
H8730 C8727 0.950 . S
C8731 C8722 1.390 . S
C8731 H8724 0.950 . S
C8731 C8728 1.387 . S
C8732 C8733 1.387 . S
C8732 H8736 0.950 . S
C8732 C8741 1.390 . S
C8733 C8732 1.387 . S
C8733 C8735 1.387 . S
H8734 C8741 0.950 . S
C8735 C8733 1.387 . S
C8735 C8737 1.390 . S
C8735 H8739 0.950 . S
H8736 C8732 0.950 . S
C8737 C8735 1.390 . S
C8737 C8738 1.387 . S
C8737 H8740 0.950 . S
C8738 C8737 1.387 . S
C8738 C8741 1.387 . S
H8739 C8735 0.950 . S
H8740 C8737 0.950 . S
C8741 C8732 1.390 . S
C8741 H8734 0.950 . S
C8741 C8738 1.387 . S
C8742 C8743 1.387 . S
C8742 H8746 0.950 . S
C8742 C8751 1.390 . S
C8743 C8742 1.387 . S
C8743 C8745 1.387 . S
H8744 C8751 0.950 . S
C8745 C8743 1.387 . S
C8745 C8747 1.390 . S
C8745 H8749 0.950 . S
H8746 C8742 0.950 . S
C8747 C8745 1.390 . S
C8747 C8748 1.387 . S
C8747 H8750 0.950 . S
C8748 C8747 1.387 . S
C8748 C8751 1.387 . S
H8749 C8745 0.950 . S
H8750 C8747 0.950 . S
C8751 C8742 1.390 . S
C8751 H8744 0.950 . S
C8751 C8748 1.387 . S
C8752 C8753 1.387 . S
C8752 H8756 0.950 . S
C8752 C8761 1.390 . S
C8753 C8752 1.387 . S
C8753 C8755 1.387 . S
H8754 C8761 0.950 . S
C8755 C8753 1.387 . S
C8755 C8757 1.390 . S
C8755 H8759 0.950 . S
H8756 C8752 0.950 . S
C8757 C8755 1.390 . S
C8757 C8758 1.387 . S
C8757 H8760 0.950 . S
C8758 C8757 1.387 . S
C8758 C8761 1.387 . S
H8759 C8755 0.950 . S
H8760 C8757 0.950 . S
C8761 C8752 1.390 . S
C8761 H8754 0.950 . S
C8761 C8758 1.387 . S
C8762 C8763 1.387 . S
C8762 H8766 0.950 . S
C8762 C8771 1.390 . S
C8763 C8762 1.387 . S
C8763 C8765 1.387 . S
H8764 C8771 0.950 . S
C8765 C8763 1.387 . S
C8765 C8767 1.390 . S
C8765 H8769 0.950 . S
H8766 C8762 0.950 . S
C8767 C8765 1.390 . S
C8767 C8768 1.387 . S
C8767 H8770 0.950 . S
C8768 C8767 1.387 . S
C8768 C8771 1.387 . S
H8769 C8765 0.950 . S
H8770 C8767 0.950 . S
C8771 C8762 1.390 . S
C8771 H8764 0.950 . S
C8771 C8768 1.387 . S
C8772 C8773 1.387 . S
C8772 H8776 0.950 . S
C8772 C8781 1.390 . S
C8773 C8772 1.387 . S
C8773 C8775 1.387 . S
H8774 C8781 0.950 . S
C8775 C8773 1.387 . S
C8775 C8777 1.390 . S
C8775 H8779 0.950 . S
H8776 C8772 0.950 . S
C8777 C8775 1.390 . S
C8777 C8778 1.387 . S
C8777 H8780 0.950 . S
C8778 C8777 1.387 . S
C8778 C8781 1.387 . S
H8779 C8775 0.950 . S
H8780 C8777 0.950 . S
C8781 C8772 1.390 . S
C8781 H8774 0.950 . S
C8781 C8778 1.387 . S
C8782 C8783 1.387 . S
C8782 H8786 0.950 . S
C8782 C8791 1.390 . S
C8783 C8782 1.387 . S
C8783 C8785 1.387 . S
H8784 C8791 0.950 . S
C8785 C8783 1.387 . S
C8785 C8787 1.390 . S
C8785 H8789 0.950 . S
H8786 C8782 0.950 . S
C8787 C8785 1.390 . S
C8787 C8788 1.387 . S
C8787 H8790 0.950 . S
C8788 C8787 1.387 . S
C8788 C8791 1.387 . S
H8789 C8785 0.950 . S
H8790 C8787 0.950 . S
C8791 C8782 1.390 . S
C8791 H8784 0.950 . S
C8791 C8788 1.387 . S
C8792 C8793 1.387 . S
C8792 H8796 0.950 . S
C8792 C8801 1.390 . S
C8793 C8792 1.387 . S
C8793 C8795 1.387 . S
H8794 C8801 0.950 . S
C8795 C8793 1.387 . S
C8795 C8797 1.390 . S
C8795 H8799 0.950 . S
H8796 C8792 0.950 . S
C8797 C8795 1.390 . S
C8797 C8798 1.387 . S
C8797 H8800 0.950 . S
C8798 C8797 1.387 . S
C8798 C8801 1.387 . S
H8799 C8795 0.950 . S
H8800 C8797 0.950 . S
C8801 C8792 1.390 . S
C8801 H8794 0.950 . S
C8801 C8798 1.387 . S
C8802 C8803 1.387 . S
C8802 H8806 0.950 . S
C8802 C8811 1.390 . S
C8803 C8802 1.387 . S
C8803 C8805 1.387 . S
H8804 C8811 0.950 . S
C8805 C8803 1.387 . S
C8805 C8807 1.390 . S
C8805 H8809 0.950 . S
H8806 C8802 0.950 . S
C8807 C8805 1.390 . S
C8807 C8808 1.387 . S
C8807 H8810 0.950 . S
C8808 C8807 1.387 . S
C8808 C8811 1.387 . S
H8809 C8805 0.950 . S
H8810 C8807 0.950 . S
C8811 C8802 1.390 . S
C8811 H8804 0.950 . S
C8811 C8808 1.387 . S
C8812 C8813 1.387 . S
C8812 H8816 0.950 . S
C8812 C8821 1.390 . S
C8813 C8812 1.387 . S
C8813 C8815 1.387 . S
H8814 C8821 0.950 . S
C8815 C8813 1.387 . S
C8815 C8817 1.390 . S
C8815 H8819 0.950 . S
H8816 C8812 0.950 . S
C8817 C8815 1.390 . S
C8817 C8818 1.387 . S
C8817 H8820 0.950 . S
C8818 C8817 1.387 . S
C8818 C8821 1.387 . S
H8819 C8815 0.950 . S
H8820 C8817 0.950 . S
C8821 C8812 1.390 . S
C8821 H8814 0.950 . S
C8821 C8818 1.387 . S
C8822 C8823 1.387 . S
C8822 H8826 0.950 . S
C8822 C8831 1.390 . S
C8823 C8822 1.387 . S
C8823 C8825 1.387 . S
H8824 C8831 0.950 . S
C8825 C8823 1.387 . S
C8825 C8827 1.390 . S
C8825 H8829 0.950 . S
H8826 C8822 0.950 . S
C8827 C8825 1.390 . S
C8827 C8828 1.387 . S
C8827 H8830 0.950 . S
C8828 C8827 1.387 . S
C8828 C8831 1.387 . S
H8829 C8825 0.950 . S
H8830 C8827 0.950 . S
C8831 C8822 1.390 . S
C8831 H8824 0.950 . S
C8831 C8828 1.387 . S
C8832 C8833 1.387 . S
C8832 H8836 0.950 . S
C8832 C8841 1.390 . S
C8833 C8832 1.387 . S
C8833 C8835 1.387 . S
H8834 C8841 0.950 . S
C8835 C8833 1.387 . S
C8835 C8837 1.390 . S
C8835 H8839 0.950 . S
H8836 C8832 0.950 . S
C8837 C8835 1.390 . S
C8837 C8838 1.387 . S
C8837 H8840 0.950 . S
C8838 C8837 1.387 . S
C8838 C8841 1.387 . S
H8839 C8835 0.950 . S
H8840 C8837 0.950 . S
C8841 C8832 1.390 . S
C8841 H8834 0.950 . S
C8841 C8838 1.387 . S
C8842 C8843 1.387 . S
C8842 H8846 0.950 . S
C8842 C8851 1.390 . S
C8843 C8842 1.387 . S
C8843 C8845 1.387 . S
H8844 C8851 0.950 . S
C8845 C8843 1.387 . S
C8845 C8847 1.390 . S
C8845 H8849 0.950 . S
H8846 C8842 0.950 . S
C8847 C8845 1.390 . S
C8847 C8848 1.387 . S
C8847 H8850 0.950 . S
C8848 C8847 1.387 . S
C8848 C8851 1.387 . S
H8849 C8845 0.950 . S
H8850 C8847 0.950 . S
C8851 C8842 1.390 . S
C8851 H8844 0.950 . S
C8851 C8848 1.387 . S
C8852 C8853 1.387 . S
C8852 H8856 0.950 . S
C8852 C8861 1.390 . S
C8853 C8852 1.387 . S
C8853 C8855 1.387 . S
H8854 C8861 0.950 . S
C8855 C8853 1.387 . S
C8855 C8857 1.390 . S
C8855 H8859 0.950 . S
H8856 C8852 0.950 . S
C8857 C8855 1.390 . S
C8857 C8858 1.387 . S
C8857 H8860 0.950 . S
C8858 C8857 1.387 . S
C8858 C8861 1.387 . S
H8859 C8855 0.950 . S
H8860 C8857 0.950 . S
C8861 C8852 1.390 . S
C8861 H8854 0.950 . S
C8861 C8858 1.387 . S
C8862 C8863 1.387 . S
C8862 H8866 0.950 . S
C8862 C8871 1.390 . S
C8863 C8862 1.387 . S
C8863 C8865 1.387 . S
H8864 C8871 0.950 . S
C8865 C8863 1.387 . S
C8865 C8867 1.390 . S
C8865 H8869 0.950 . S
H8866 C8862 0.950 . S
C8867 C8865 1.390 . S
C8867 C8868 1.387 . S
C8867 H8870 0.950 . S
C8868 C8867 1.387 . S
C8868 C8871 1.387 . S
H8869 C8865 0.950 . S
H8870 C8867 0.950 . S
C8871 C8862 1.390 . S
C8871 H8864 0.950 . S
C8871 C8868 1.387 . S
C8872 C8873 1.387 . S
C8872 H8876 0.950 . S
C8872 C8881 1.390 . S
C8873 C8872 1.387 . S
C8873 C8875 1.387 . S
H8874 C8881 0.950 . S
C8875 C8873 1.387 . S
C8875 C8877 1.390 . S
C8875 H8879 0.950 . S
H8876 C8872 0.950 . S
C8877 C8875 1.390 . S
C8877 C8878 1.387 . S
C8877 H8880 0.950 . S
C8878 C8877 1.387 . S
C8878 C8881 1.387 . S
H8879 C8875 0.950 . S
H8880 C8877 0.950 . S
C8881 C8872 1.390 . S
C8881 H8874 0.950 . S
C8881 C8878 1.387 . S
C8882 C8883 1.387 . S
C8882 H8886 0.950 . S
C8882 C8891 1.390 . S
C8883 C8882 1.387 . S
C8883 C8885 1.387 . S
H8884 C8891 0.950 . S
C8885 C8883 1.387 . S
C8885 C8887 1.390 . S
C8885 H8889 0.950 . S
H8886 C8882 0.950 . S
C8887 C8885 1.390 . S
C8887 C8888 1.387 . S
C8887 H8890 0.950 . S
C8888 C8887 1.387 . S
C8888 C8891 1.387 . S
H8889 C8885 0.950 . S
H8890 C8887 0.950 . S
C8891 C8882 1.390 . S
C8891 H8884 0.950 . S
C8891 C8888 1.387 . S
C8892 C8893 1.387 . S
C8892 H8896 0.950 . S
C8892 C8901 1.390 . S
C8893 C8892 1.387 . S
C8893 C8895 1.387 . S
H8894 C8901 0.950 . S
C8895 C8893 1.387 . S
C8895 C8897 1.390 . S
C8895 H8899 0.950 . S
H8896 C8892 0.950 . S
C8897 C8895 1.390 . S
C8897 C8898 1.387 . S
C8897 H8900 0.950 . S
C8898 C8897 1.387 . S
C8898 C8901 1.387 . S
H8899 C8895 0.950 . S
H8900 C8897 0.950 . S
C8901 C8892 1.390 . S
C8901 H8894 0.950 . S
C8901 C8898 1.387 . S
C8902 C8903 1.387 . S
C8902 H8906 0.950 . S
C8902 C8911 1.390 . S
C8903 C8902 1.387 . S
C8903 C8905 1.387 . S
H8904 C8911 0.950 . S
C8905 C8903 1.387 . S
C8905 C8907 1.390 . S
C8905 H8909 0.950 . S
H8906 C8902 0.950 . S
C8907 C8905 1.390 . S
C8907 C8908 1.387 . S
C8907 H8910 0.950 . S
C8908 C8907 1.387 . S
C8908 C8911 1.387 . S
H8909 C8905 0.950 . S
H8910 C8907 0.950 . S
C8911 C8902 1.390 . S
C8911 H8904 0.950 . S
C8911 C8908 1.387 . S
C8912 C8913 1.387 . S
C8912 H8916 0.950 . S
C8912 C8921 1.390 . S
C8913 C8912 1.387 . S
C8913 C8915 1.387 . S
H8914 C8921 0.950 . S
C8915 C8913 1.387 . S
C8915 C8917 1.390 . S
C8915 H8919 0.950 . S
H8916 C8912 0.950 . S
C8917 C8915 1.390 . S
C8917 C8918 1.387 . S
C8917 H8920 0.950 . S
C8918 C8917 1.387 . S
C8918 C8921 1.387 . S
H8919 C8915 0.950 . S
H8920 C8917 0.950 . S
C8921 C8912 1.390 . S
C8921 H8914 0.950 . S
C8921 C8918 1.387 . S
C8922 C8923 1.387 . S
C8922 H8926 0.950 . S
C8922 C8931 1.390 . S
C8923 C8922 1.387 . S
C8923 C8925 1.387 . S
H8924 C8931 0.950 . S
C8925 C8923 1.387 . S
C8925 C8927 1.390 . S
C8925 H8929 0.950 . S
H8926 C8922 0.950 . S
C8927 C8925 1.390 . S
C8927 C8928 1.387 . S
C8927 H8930 0.950 . S
C8928 C8927 1.387 . S
C8928 C8931 1.387 . S
H8929 C8925 0.950 . S
H8930 C8927 0.950 . S
C8931 C8922 1.390 . S
C8931 H8924 0.950 . S
C8931 C8928 1.387 . S
C8932 C8933 1.387 . S
C8932 H8936 0.950 . S
C8932 C8941 1.390 . S
C8933 C8932 1.387 . S
C8933 C8935 1.387 . S
H8934 C8941 0.950 . S
C8935 C8933 1.387 . S
C8935 C8937 1.390 . S
C8935 H8939 0.950 . S
H8936 C8932 0.950 . S
C8937 C8935 1.390 . S
C8937 C8938 1.387 . S
C8937 H8940 0.950 . S
C8938 C8937 1.387 . S
C8938 C8941 1.387 . S
H8939 C8935 0.950 . S
H8940 C8937 0.950 . S
C8941 C8932 1.390 . S
C8941 H8934 0.950 . S
C8941 C8938 1.387 . S
C8942 C8943 1.387 . S
C8942 H8946 0.950 . S
C8942 C8951 1.390 . S
C8943 C8942 1.387 . S
C8943 C8945 1.387 . S
H8944 C8951 0.950 . S
C8945 C8943 1.387 . S
C8945 C8947 1.390 . S
C8945 H8949 0.950 . S
H8946 C8942 0.950 . S
C8947 C8945 1.390 . S
C8947 C8948 1.387 . S
C8947 H8950 0.950 . S
C8948 C8947 1.387 . S
C8948 C8951 1.387 . S
H8949 C8945 0.950 . S
H8950 C8947 0.950 . S
C8951 C8942 1.390 . S
C8951 H8944 0.950 . S
C8951 C8948 1.387 . S
C8952 C8953 1.387 . S
C8952 H8956 0.950 . S
C8952 C8961 1.390 . S
C8953 C8952 1.387 . S
C8953 C8955 1.387 . S
H8954 C8961 0.950 . S
C8955 C8953 1.387 . S
C8955 C8957 1.390 . S
C8955 H8959 0.950 . S
H8956 C8952 0.950 . S
C8957 C8955 1.390 . S
C8957 C8958 1.387 . S
C8957 H8960 0.950 . S
C8958 C8957 1.387 . S
C8958 C8961 1.387 . S
H8959 C8955 0.950 . S
H8960 C8957 0.950 . S
C8961 C8952 1.390 . S
C8961 H8954 0.950 . S
C8961 C8958 1.387 . S
C8962 C8963 1.387 . S
C8962 H8966 0.950 . S
C8962 C8971 1.390 . S
C8963 C8962 1.387 . S
C8963 C8965 1.387 . S
H8964 C8971 0.950 . S
C8965 C8963 1.387 . S
C8965 C8967 1.390 . S
C8965 H8969 0.950 . S
H8966 C8962 0.950 . S
C8967 C8965 1.390 . S
C8967 C8968 1.387 . S
C8967 H8970 0.950 . S
C8968 C8967 1.387 . S
C8968 C8971 1.387 . S
H8969 C8965 0.950 . S
H8970 C8967 0.950 . S
C8971 C8962 1.390 . S
C8971 H8964 0.950 . S
C8971 C8968 1.387 . S
C8972 C8973 1.387 . S
C8972 H8976 0.950 . S
C8972 C8981 1.390 . S
C8973 C8972 1.387 . S
C8973 C8975 1.387 . S
H8974 C8981 0.950 . S
C8975 C8973 1.387 . S
C8975 C8977 1.390 . S
C8975 H8979 0.950 . S
H8976 C8972 0.950 . S
C8977 C8975 1.390 . S
C8977 C8978 1.387 . S
C8977 H8980 0.950 . S
C8978 C8977 1.387 . S
C8978 C8981 1.387 . S
H8979 C8975 0.950 . S
H8980 C8977 0.950 . S
C8981 C8972 1.390 . S
C8981 H8974 0.950 . S
C8981 C8978 1.387 . S
C8982 C8983 1.387 . S
C8982 H8986 0.950 . S
C8982 C8991 1.390 . S
C8983 C8982 1.387 . S
C8983 C8985 1.387 . S
H8984 C8991 0.950 . S
C8985 C8983 1.387 . S
C8985 C8987 1.390 . S
C8985 H8989 0.950 . S
H8986 C8982 0.950 . S
C8987 C8985 1.390 . S
C8987 C8988 1.387 . S
C8987 H8990 0.950 . S
C8988 C8987 1.387 . S
C8988 C8991 1.387 . S
H8989 C8985 0.950 . S
H8990 C8987 0.950 . S
C8991 C8982 1.390 . S
C8991 H8984 0.950 . S
C8991 C8988 1.387 . S
C8992 C8993 1.387 . S
C8992 H8996 0.950 . S
C8992 C9001 1.390 . S
C8993 C8992 1.387 . S
C8993 C8995 1.387 . S
H8994 C9001 0.950 . S
C8995 C8993 1.387 . S
C8995 C8997 1.390 . S
C8995 H8999 0.950 . S
H8996 C8992 0.950 . S
C8997 C8995 1.390 . S
C8997 C8998 1.387 . S
C8997 H9000 0.950 . S
C8998 C8997 1.387 . S
C8998 C9001 1.387 . S
H8999 C8995 0.950 . S
H9000 C8997 0.950 . S
C9001 C8992 1.390 . S
C9001 H8994 0.950 . S
C9001 C8998 1.387 . S
C9002 C9003 1.387 . S
C9002 H9006 0.950 . S
C9002 C9011 1.390 . S
C9003 C9002 1.387 . S
C9003 C9005 1.387 . S
H9004 C9011 0.950 . S
C9005 C9003 1.387 . S
C9005 C9007 1.390 . S
C9005 H9009 0.950 . S
H9006 C9002 0.950 . S
C9007 C9005 1.390 . S
C9007 C9008 1.387 . S
C9007 H9010 0.950 . S
C9008 C9007 1.387 . S
C9008 C9011 1.387 . S
H9009 C9005 0.950 . S
H9010 C9007 0.950 . S
C9011 C9002 1.390 . S
C9011 H9004 0.950 . S
C9011 C9008 1.387 . S
C9012 C9013 1.387 . S
C9012 H9016 0.950 . S
C9012 C9021 1.390 . S
C9013 C9012 1.387 . S
C9013 C9015 1.387 . S
H9014 C9021 0.950 . S
C9015 C9013 1.387 . S
C9015 C9017 1.390 . S
C9015 H9019 0.950 . S
H9016 C9012 0.950 . S
C9017 C9015 1.390 . S
C9017 C9018 1.387 . S
C9017 H9020 0.950 . S
C9018 C9017 1.387 . S
C9018 C9021 1.387 . S
H9019 C9015 0.950 . S
H9020 C9017 0.950 . S
C9021 C9012 1.390 . S
C9021 H9014 0.950 . S
C9021 C9018 1.387 . S
C9022 C9023 1.387 . S
C9022 H9026 0.950 . S
C9022 C9031 1.390 . S
C9023 C9022 1.387 . S
C9023 C9025 1.387 . S
H9024 C9031 0.950 . S
C9025 C9023 1.387 . S
C9025 C9027 1.390 . S
C9025 H9029 0.950 . S
H9026 C9022 0.950 . S
C9027 C9025 1.390 . S
C9027 C9028 1.387 . S
C9027 H9030 0.950 . S
C9028 C9027 1.387 . S
C9028 C9031 1.387 . S
H9029 C9025 0.950 . S
H9030 C9027 0.950 . S
C9031 C9022 1.390 . S
C9031 H9024 0.950 . S
C9031 C9028 1.387 . S
C9032 C9033 1.387 . S
C9032 H9036 0.950 . S
C9032 C9041 1.390 . S
C9033 C9032 1.387 . S
C9033 C9035 1.387 . S
H9034 C9041 0.950 . S
C9035 C9033 1.387 . S
C9035 C9037 1.390 . S
C9035 H9039 0.950 . S
H9036 C9032 0.950 . S
C9037 C9035 1.390 . S
C9037 C9038 1.387 . S
C9037 H9040 0.950 . S
C9038 C9037 1.387 . S
C9038 C9041 1.387 . S
H9039 C9035 0.950 . S
H9040 C9037 0.950 . S
C9041 C9032 1.390 . S
C9041 H9034 0.950 . S
C9041 C9038 1.387 . S
C9042 C9043 1.387 . S
C9042 H9046 0.950 . S
C9042 C9051 1.390 . S
C9043 C9042 1.387 . S
C9043 C9045 1.387 . S
H9044 C9051 0.950 . S
C9045 C9043 1.387 . S
C9045 C9047 1.390 . S
C9045 H9049 0.950 . S
H9046 C9042 0.950 . S
C9047 C9045 1.390 . S
C9047 C9048 1.387 . S
C9047 H9050 0.950 . S
C9048 C9047 1.387 . S
C9048 C9051 1.387 . S
H9049 C9045 0.950 . S
H9050 C9047 0.950 . S
C9051 C9042 1.390 . S
C9051 H9044 0.950 . S
C9051 C9048 1.387 . S
C9052 C9053 1.387 . S
C9052 H9056 0.950 . S
C9052 C9061 1.390 . S
C9053 C9052 1.387 . S
C9053 C9055 1.387 . S
H9054 C9061 0.950 . S
C9055 C9053 1.387 . S
C9055 C9057 1.390 . S
C9055 H9059 0.950 . S
H9056 C9052 0.950 . S
C9057 C9055 1.390 . S
C9057 C9058 1.387 . S
C9057 H9060 0.950 . S
C9058 C9057 1.387 . S
C9058 C9061 1.387 . S
H9059 C9055 0.950 . S
H9060 C9057 0.950 . S
C9061 C9052 1.390 . S
C9061 H9054 0.950 . S
C9061 C9058 1.387 . S
C9062 C9063 1.387 . S
C9062 H9066 0.950 . S
C9062 C9071 1.390 . S
C9063 C9062 1.387 . S
C9063 C9065 1.387 . S
H9064 C9071 0.950 . S
C9065 C9063 1.387 . S
C9065 C9067 1.390 . S
C9065 H9069 0.950 . S
H9066 C9062 0.950 . S
C9067 C9065 1.390 . S
C9067 C9068 1.387 . S
C9067 H9070 0.950 . S
C9068 C9067 1.387 . S
C9068 C9071 1.387 . S
H9069 C9065 0.950 . S
H9070 C9067 0.950 . S
C9071 C9062 1.390 . S
C9071 H9064 0.950 . S
C9071 C9068 1.387 . S
C9072 C9073 1.387 . S
C9072 H9076 0.950 . S
C9072 C9081 1.390 . S
C9073 C9072 1.387 . S
C9073 C9075 1.387 . S
H9074 C9081 0.950 . S
C9075 C9073 1.387 . S
C9075 C9077 1.390 . S
C9075 H9079 0.950 . S
H9076 C9072 0.950 . S
C9077 C9075 1.390 . S
C9077 C9078 1.387 . S
C9077 H9080 0.950 . S
C9078 C9077 1.387 . S
C9078 C9081 1.387 . S
H9079 C9075 0.950 . S
H9080 C9077 0.950 . S
C9081 C9072 1.390 . S
C9081 H9074 0.950 . S
C9081 C9078 1.387 . S
C9082 C9083 1.387 . S
C9082 H9086 0.950 . S
C9082 C9091 1.390 . S
C9083 C9082 1.387 . S
C9083 C9085 1.387 . S
H9084 C9091 0.950 . S
C9085 C9083 1.387 . S
C9085 C9087 1.390 . S
C9085 H9089 0.950 . S
H9086 C9082 0.950 . S
C9087 C9085 1.390 . S
C9087 C9088 1.387 . S
C9087 H9090 0.950 . S
C9088 C9087 1.387 . S
C9088 C9091 1.387 . S
H9089 C9085 0.950 . S
H9090 C9087 0.950 . S
C9091 C9082 1.390 . S
C9091 H9084 0.950 . S
C9091 C9088 1.387 . S
C9092 C9093 1.387 . S
C9092 H9096 0.950 . S
C9092 C9101 1.390 . S
C9093 C9092 1.387 . S
C9093 C9095 1.387 . S
H9094 C9101 0.950 . S
C9095 C9093 1.387 . S
C9095 C9097 1.390 . S
C9095 H9099 0.950 . S
H9096 C9092 0.950 . S
C9097 C9095 1.390 . S
C9097 C9098 1.387 . S
C9097 H9100 0.950 . S
C9098 C9097 1.387 . S
C9098 C9101 1.387 . S
H9099 C9095 0.950 . S
H9100 C9097 0.950 . S
C9101 C9092 1.390 . S
C9101 H9094 0.950 . S
C9101 C9098 1.387 . S
C9102 C9103 1.387 . S
C9102 H9106 0.950 . S
C9102 C9111 1.390 . S
C9103 C9102 1.387 . S
C9103 C9105 1.387 . S
H9104 C9111 0.950 . S
C9105 C9103 1.387 . S
C9105 C9107 1.390 . S
C9105 H9109 0.950 . S
H9106 C9102 0.950 . S
C9107 C9105 1.390 . S
C9107 C9108 1.387 . S
C9107 H9110 0.950 . S
C9108 C9107 1.387 . S
C9108 C9111 1.387 . S
H9109 C9105 0.950 . S
H9110 C9107 0.950 . S
C9111 C9102 1.390 . S
C9111 H9104 0.950 . S
C9111 C9108 1.387 . S
C9112 C9113 1.387 . S
C9112 H9116 0.950 . S
C9112 C9121 1.390 . S
C9113 C9112 1.387 . S
C9113 C9115 1.387 . S
H9114 C9121 0.950 . S
C9115 C9113 1.387 . S
C9115 C9117 1.390 . S
C9115 H9119 0.950 . S
H9116 C9112 0.950 . S
C9117 C9115 1.390 . S
C9117 C9118 1.387 . S
C9117 H9120 0.950 . S
C9118 C9117 1.387 . S
C9118 C9121 1.387 . S
H9119 C9115 0.950 . S
H9120 C9117 0.950 . S
C9121 C9112 1.390 . S
C9121 H9114 0.950 . S
C9121 C9118 1.387 . S
C9122 C9123 1.387 . S
C9122 H9126 0.950 . S
C9122 C9131 1.390 . S
C9123 C9122 1.387 . S
C9123 C9125 1.387 . S
H9124 C9131 0.950 . S
C9125 C9123 1.387 . S
C9125 C9127 1.390 . S
C9125 H9129 0.950 . S
H9126 C9122 0.950 . S
C9127 C9125 1.390 . S
C9127 C9128 1.387 . S
C9127 H9130 0.950 . S
C9128 C9127 1.387 . S
C9128 C9131 1.387 . S
H9129 C9125 0.950 . S
H9130 C9127 0.950 . S
C9131 C9122 1.390 . S
C9131 H9124 0.950 . S
C9131 C9128 1.387 . S
C9132 C9133 1.387 . S
C9132 H9136 0.950 . S
C9132 C9141 1.390 . S
C9133 C9132 1.387 . S
C9133 C9135 1.387 . S
H9134 C9141 0.950 . S
C9135 C9133 1.387 . S
C9135 C9137 1.390 . S
C9135 H9139 0.950 . S
H9136 C9132 0.950 . S
C9137 C9135 1.390 . S
C9137 C9138 1.387 . S
C9137 H9140 0.950 . S
C9138 C9137 1.387 . S
C9138 C9141 1.387 . S
H9139 C9135 0.950 . S
H9140 C9137 0.950 . S
C9141 C9132 1.390 . S
C9141 H9134 0.950 . S
C9141 C9138 1.387 . S
C9142 C9143 1.387 . S
C9142 H9146 0.950 . S
C9142 C9151 1.390 . S
C9143 C9142 1.387 . S
C9143 C9145 1.387 . S
H9144 C9151 0.950 . S
C9145 C9143 1.387 . S
C9145 C9147 1.390 . S
C9145 H9149 0.950 . S
H9146 C9142 0.950 . S
C9147 C9145 1.390 . S
C9147 C9148 1.387 . S
C9147 H9150 0.950 . S
C9148 C9147 1.387 . S
C9148 C9151 1.387 . S
H9149 C9145 0.950 . S
H9150 C9147 0.950 . S
C9151 C9142 1.390 . S
C9151 H9144 0.950 . S
C9151 C9148 1.387 . S
C9152 C9153 1.387 . S
C9152 H9156 0.950 . S
C9152 C9161 1.390 . S
C9153 C9152 1.387 . S
C9153 C9155 1.387 . S
H9154 C9161 0.950 . S
C9155 C9153 1.387 . S
C9155 C9157 1.390 . S
C9155 H9159 0.950 . S
H9156 C9152 0.950 . S
C9157 C9155 1.390 . S
C9157 C9158 1.387 . S
C9157 H9160 0.950 . S
C9158 C9157 1.387 . S
C9158 C9161 1.387 . S
H9159 C9155 0.950 . S
H9160 C9157 0.950 . S
C9161 C9152 1.390 . S
C9161 H9154 0.950 . S
C9161 C9158 1.387 . S
C9162 C9163 1.387 . S
C9162 H9166 0.950 . S
C9162 C9171 1.390 . S
C9163 C9162 1.387 . S
C9163 C9165 1.387 . S
H9164 C9171 0.950 . S
C9165 C9163 1.387 . S
C9165 C9167 1.390 . S
C9165 H9169 0.950 . S
H9166 C9162 0.950 . S
C9167 C9165 1.390 . S
C9167 C9168 1.387 . S
C9167 H9170 0.950 . S
C9168 C9167 1.387 . S
C9168 C9171 1.387 . S
H9169 C9165 0.950 . S
H9170 C9167 0.950 . S
C9171 C9162 1.390 . S
C9171 H9164 0.950 . S
C9171 C9168 1.387 . S
C9172 C9173 1.387 . S
C9172 H9176 0.950 . S
C9172 C9181 1.390 . S
C9173 C9172 1.387 . S
C9173 C9175 1.387 . S
H9174 C9181 0.950 . S
C9175 C9173 1.387 . S
C9175 C9177 1.390 . S
C9175 H9179 0.950 . S
H9176 C9172 0.950 . S
C9177 C9175 1.390 . S
C9177 C9178 1.387 . S
C9177 H9180 0.950 . S
C9178 C9177 1.387 . S
C9178 C9181 1.387 . S
H9179 C9175 0.950 . S
H9180 C9177 0.950 . S
C9181 C9172 1.390 . S
C9181 H9174 0.950 . S
C9181 C9178 1.387 . S
C9182 C9183 1.387 . S
C9182 H9186 0.950 . S
C9182 C9191 1.390 . S
C9183 C9182 1.387 . S
C9183 C9185 1.387 . S
H9184 C9191 0.950 . S
C9185 C9183 1.387 . S
C9185 C9187 1.390 . S
C9185 H9189 0.950 . S
H9186 C9182 0.950 . S
C9187 C9185 1.390 . S
C9187 C9188 1.387 . S
C9187 H9190 0.950 . S
C9188 C9187 1.387 . S
C9188 C9191 1.387 . S
H9189 C9185 0.950 . S
H9190 C9187 0.950 . S
C9191 C9182 1.390 . S
C9191 H9184 0.950 . S
C9191 C9188 1.387 . S
C9192 C9193 1.387 . S
C9192 H9196 0.950 . S
C9192 C9201 1.390 . S
C9193 C9192 1.387 . S
C9193 C9195 1.387 . S
H9194 C9201 0.950 . S
C9195 C9193 1.387 . S
C9195 C9197 1.390 . S
C9195 H9199 0.950 . S
H9196 C9192 0.950 . S
C9197 C9195 1.390 . S
C9197 C9198 1.387 . S
C9197 H9200 0.950 . S
C9198 C9197 1.387 . S
C9198 C9201 1.387 . S
H9199 C9195 0.950 . S
H9200 C9197 0.950 . S
C9201 C9192 1.390 . S
C9201 H9194 0.950 . S
C9201 C9198 1.387 . S
C9202 C9203 1.387 . S
C9202 H9206 0.950 . S
C9202 C9211 1.390 . S
C9203 C9202 1.387 . S
C9203 C9205 1.387 . S
H9204 C9211 0.950 . S
C9205 C9203 1.387 . S
C9205 C9207 1.390 . S
C9205 H9209 0.950 . S
H9206 C9202 0.950 . S
C9207 C9205 1.390 . S
C9207 C9208 1.387 . S
C9207 H9210 0.950 . S
C9208 C9207 1.387 . S
C9208 C9211 1.387 . S
H9209 C9205 0.950 . S
H9210 C9207 0.950 . S
C9211 C9202 1.390 . S
C9211 H9204 0.950 . S
C9211 C9208 1.387 . S
C9212 C9213 1.387 . S
C9212 H9216 0.950 . S
C9212 C9221 1.390 . S
C9213 C9212 1.387 . S
C9213 C9215 1.387 . S
H9214 C9221 0.950 . S
C9215 C9213 1.387 . S
C9215 C9217 1.390 . S
C9215 H9219 0.950 . S
H9216 C9212 0.950 . S
C9217 C9215 1.390 . S
C9217 C9218 1.387 . S
C9217 H9220 0.950 . S
C9218 C9217 1.387 . S
C9218 C9221 1.387 . S
H9219 C9215 0.950 . S
H9220 C9217 0.950 . S
C9221 C9212 1.390 . S
C9221 H9214 0.950 . S
C9221 C9218 1.387 . S
C9222 C9223 1.387 . S
C9222 H9226 0.950 . S
C9222 C9231 1.390 . S
C9223 C9222 1.387 . S
C9223 C9225 1.387 . S
H9224 C9231 0.950 . S
C9225 C9223 1.387 . S
C9225 C9227 1.390 . S
C9225 H9229 0.950 . S
H9226 C9222 0.950 . S
C9227 C9225 1.390 . S
C9227 C9228 1.387 . S
C9227 H9230 0.950 . S
C9228 C9227 1.387 . S
C9228 C9231 1.387 . S
H9229 C9225 0.950 . S
H9230 C9227 0.950 . S
C9231 C9222 1.390 . S
C9231 H9224 0.950 . S
C9231 C9228 1.387 . S
C9232 C9233 1.387 . S
C9232 H9236 0.950 . S
C9232 C9241 1.390 . S
C9233 C9232 1.387 . S
C9233 C9235 1.387 . S
H9234 C9241 0.950 . S
C9235 C9233 1.387 . S
C9235 C9237 1.390 . S
C9235 H9239 0.950 . S
H9236 C9232 0.950 . S
C9237 C9235 1.390 . S
C9237 C9238 1.387 . S
C9237 H9240 0.950 . S
C9238 C9237 1.387 . S
C9238 C9241 1.387 . S
H9239 C9235 0.950 . S
H9240 C9237 0.950 . S
C9241 C9232 1.390 . S
C9241 H9234 0.950 . S
C9241 C9238 1.387 . S
C9242 C9243 1.387 . S
C9242 H9246 0.950 . S
C9242 C9251 1.390 . S
C9243 C9242 1.387 . S
C9243 C9245 1.387 . S
H9244 C9251 0.950 . S
C9245 C9243 1.387 . S
C9245 C9247 1.390 . S
C9245 H9249 0.950 . S
H9246 C9242 0.950 . S
C9247 C9245 1.390 . S
C9247 C9248 1.387 . S
C9247 H9250 0.950 . S
C9248 C9247 1.387 . S
C9248 C9251 1.387 . S
H9249 C9245 0.950 . S
H9250 C9247 0.950 . S
C9251 C9242 1.390 . S
C9251 H9244 0.950 . S
C9251 C9248 1.387 . S
C9252 C9253 1.387 . S
C9252 H9256 0.950 . S
C9252 C9261 1.390 . S
C9253 C9252 1.387 . S
C9253 C9255 1.387 . S
H9254 C9261 0.950 . S
C9255 C9253 1.387 . S
C9255 C9257 1.390 . S
C9255 H9259 0.950 . S
H9256 C9252 0.950 . S
C9257 C9255 1.390 . S
C9257 C9258 1.387 . S
C9257 H9260 0.950 . S
C9258 C9257 1.387 . S
C9258 C9261 1.387 . S
H9259 C9255 0.950 . S
H9260 C9257 0.950 . S
C9261 C9252 1.390 . S
C9261 H9254 0.950 . S
C9261 C9258 1.387 . S
C9262 C9263 1.387 . S
C9262 H9266 0.950 . S
C9262 C9271 1.390 . S
C9263 C9262 1.387 . S
C9263 C9265 1.387 . S
H9264 C9271 0.950 . S
C9265 C9263 1.387 . S
C9265 C9267 1.390 . S
C9265 H9269 0.950 . S
H9266 C9262 0.950 . S
C9267 C9265 1.390 . S
C9267 C9268 1.387 . S
C9267 H9270 0.950 . S
C9268 C9267 1.387 . S
C9268 C9271 1.387 . S
H9269 C9265 0.950 . S
H9270 C9267 0.950 . S
C9271 C9262 1.390 . S
C9271 H9264 0.950 . S
C9271 C9268 1.387 . S
C9272 C9273 1.387 . S
C9272 H9276 0.950 . S
C9272 C9281 1.390 . S
C9273 C9272 1.387 . S
C9273 C9275 1.387 . S
H9274 C9281 0.950 . S
C9275 C9273 1.387 . S
C9275 C9277 1.390 . S
C9275 H9279 0.950 . S
H9276 C9272 0.950 . S
C9277 C9275 1.390 . S
C9277 C9278 1.387 . S
C9277 H9280 0.950 . S
C9278 C9277 1.387 . S
C9278 C9281 1.387 . S
H9279 C9275 0.950 . S
H9280 C9277 0.950 . S
C9281 C9272 1.390 . S
C9281 H9274 0.950 . S
C9281 C9278 1.387 . S
C9282 C9283 1.387 . S
C9282 H9286 0.950 . S
C9282 C9291 1.390 . S
C9283 C9282 1.387 . S
C9283 C9285 1.387 . S
H9284 C9291 0.950 . S
C9285 C9283 1.387 . S
C9285 C9287 1.390 . S
C9285 H9289 0.950 . S
H9286 C9282 0.950 . S
C9287 C9285 1.390 . S
C9287 C9288 1.387 . S
C9287 H9290 0.950 . S
C9288 C9287 1.387 . S
C9288 C9291 1.387 . S
H9289 C9285 0.950 . S
H9290 C9287 0.950 . S
C9291 C9282 1.390 . S
C9291 H9284 0.950 . S
C9291 C9288 1.387 . S
C9292 C9293 1.387 . S
C9292 H9296 0.950 . S
C9292 C9301 1.390 . S
C9293 C9292 1.387 . S
C9293 C9295 1.387 . S
H9294 C9301 0.950 . S
C9295 C9293 1.387 . S
C9295 C9297 1.390 . S
C9295 H9299 0.950 . S
H9296 C9292 0.950 . S
C9297 C9295 1.390 . S
C9297 C9298 1.387 . S
C9297 H9300 0.950 . S
C9298 C9297 1.387 . S
C9298 C9301 1.387 . S
H9299 C9295 0.950 . S
H9300 C9297 0.950 . S
C9301 C9292 1.390 . S
C9301 H9294 0.950 . S
C9301 C9298 1.387 . S
C9302 C9303 1.387 . S
C9302 H9306 0.950 . S
C9302 C9311 1.390 . S
C9303 C9302 1.387 . S
C9303 C9305 1.387 . S
H9304 C9311 0.950 . S
C9305 C9303 1.387 . S
C9305 C9307 1.390 . S
C9305 H9309 0.950 . S
H9306 C9302 0.950 . S
C9307 C9305 1.390 . S
C9307 C9308 1.387 . S
C9307 H9310 0.950 . S
C9308 C9307 1.387 . S
C9308 C9311 1.387 . S
H9309 C9305 0.950 . S
H9310 C9307 0.950 . S
C9311 C9302 1.390 . S
C9311 H9304 0.950 . S
C9311 C9308 1.387 . S
C9312 C9313 1.387 . S
C9312 H9316 0.950 . S
C9312 C9321 1.390 . S
C9313 C9312 1.387 . S
C9313 C9315 1.387 . S
H9314 C9321 0.950 . S
C9315 C9313 1.387 . S
C9315 C9317 1.390 . S
C9315 H9319 0.950 . S
H9316 C9312 0.950 . S
C9317 C9315 1.390 . S
C9317 C9318 1.387 . S
C9317 H9320 0.950 . S
C9318 C9317 1.387 . S
C9318 C9321 1.387 . S
H9319 C9315 0.950 . S
H9320 C9317 0.950 . S
C9321 C9312 1.390 . S
C9321 H9314 0.950 . S
C9321 C9318 1.387 . S
C9322 C9323 1.387 . S
C9322 H9326 0.950 . S
C9322 C9331 1.390 . S
C9323 C9322 1.387 . S
C9323 C9325 1.387 . S
H9324 C9331 0.950 . S
C9325 C9323 1.387 . S
C9325 C9327 1.390 . S
C9325 H9329 0.950 . S
H9326 C9322 0.950 . S
C9327 C9325 1.390 . S
C9327 C9328 1.387 . S
C9327 H9330 0.950 . S
C9328 C9327 1.387 . S
C9328 C9331 1.387 . S
H9329 C9325 0.950 . S
H9330 C9327 0.950 . S
C9331 C9322 1.390 . S
C9331 H9324 0.950 . S
C9331 C9328 1.387 . S
C9332 C9333 1.387 . S
C9332 H9336 0.950 . S
C9332 C9341 1.390 . S
C9333 C9332 1.387 . S
C9333 C9335 1.387 . S
H9334 C9341 0.950 . S
C9335 C9333 1.387 . S
C9335 C9337 1.390 . S
C9335 H9339 0.950 . S
H9336 C9332 0.950 . S
C9337 C9335 1.390 . S
C9337 C9338 1.387 . S
C9337 H9340 0.950 . S
C9338 C9337 1.387 . S
C9338 C9341 1.387 . S
H9339 C9335 0.950 . S
H9340 C9337 0.950 . S
C9341 C9332 1.390 . S
C9341 H9334 0.950 . S
C9341 C9338 1.387 . S
C9342 C9343 1.387 . S
C9342 H9346 0.950 . S
C9342 C9351 1.390 . S
C9343 C9342 1.387 . S
C9343 C9345 1.387 . S
H9344 C9351 0.950 . S
C9345 C9343 1.387 . S
C9345 C9347 1.390 . S
C9345 H9349 0.950 . S
H9346 C9342 0.950 . S
C9347 C9345 1.390 . S
C9347 C9348 1.387 . S
C9347 H9350 0.950 . S
C9348 C9347 1.387 . S
C9348 C9351 1.387 . S
H9349 C9345 0.950 . S
H9350 C9347 0.950 . S
C9351 C9342 1.390 . S
C9351 H9344 0.950 . S
C9351 C9348 1.387 . S
C9352 C9353 1.387 . S
C9352 H9356 0.950 . S
C9352 C9361 1.390 . S
C9353 C9352 1.387 . S
C9353 C9355 1.387 . S
H9354 C9361 0.950 . S
C9355 C9353 1.387 . S
C9355 C9357 1.390 . S
C9355 H9359 0.950 . S
H9356 C9352 0.950 . S
C9357 C9355 1.390 . S
C9357 C9358 1.387 . S
C9357 H9360 0.950 . S
C9358 C9357 1.387 . S
C9358 C9361 1.387 . S
H9359 C9355 0.950 . S
H9360 C9357 0.950 . S
C9361 C9352 1.390 . S
C9361 H9354 0.950 . S
C9361 C9358 1.387 . S
C9362 C9363 1.387 . S
C9362 H9366 0.950 . S
C9362 C9371 1.390 . S
C9363 C9362 1.387 . S
C9363 C9365 1.387 . S
H9364 C9371 0.950 . S
C9365 C9363 1.387 . S
C9365 C9367 1.390 . S
C9365 H9369 0.950 . S
H9366 C9362 0.950 . S
C9367 C9365 1.390 . S
C9367 C9368 1.387 . S
C9367 H9370 0.950 . S
C9368 C9367 1.387 . S
C9368 C9371 1.387 . S
H9369 C9365 0.950 . S
H9370 C9367 0.950 . S
C9371 C9362 1.390 . S
C9371 H9364 0.950 . S
C9371 C9368 1.387 . S
C9372 C9373 1.387 . S
C9372 H9376 0.950 . S
C9372 C9381 1.390 . S
C9373 C9372 1.387 . S
C9373 C9375 1.387 . S
H9374 C9381 0.950 . S
C9375 C9373 1.387 . S
C9375 C9377 1.390 . S
C9375 H9379 0.950 . S
H9376 C9372 0.950 . S
C9377 C9375 1.390 . S
C9377 C9378 1.387 . S
C9377 H9380 0.950 . S
C9378 C9377 1.387 . S
C9378 C9381 1.387 . S
H9379 C9375 0.950 . S
H9380 C9377 0.950 . S
C9381 C9372 1.390 . S
C9381 H9374 0.950 . S
C9381 C9378 1.387 . S
C9382 C9383 1.387 . S
C9382 H9386 0.950 . S
C9382 C9391 1.390 . S
C9383 C9382 1.387 . S
C9383 C9385 1.387 . S
H9384 C9391 0.950 . S
C9385 C9383 1.387 . S
C9385 C9387 1.390 . S
C9385 H9389 0.950 . S
H9386 C9382 0.950 . S
C9387 C9385 1.390 . S
C9387 C9388 1.387 . S
C9387 H9390 0.950 . S
C9388 C9387 1.387 . S
C9388 C9391 1.387 . S
H9389 C9385 0.950 . S
H9390 C9387 0.950 . S
C9391 C9382 1.390 . S
C9391 H9384 0.950 . S
C9391 C9388 1.387 . S
C9392 C9393 1.387 . S
C9392 H9396 0.950 . S
C9392 C9401 1.390 . S
C9393 C9392 1.387 . S
C9393 C9395 1.387 . S
H9394 C9401 0.950 . S
C9395 C9393 1.387 . S
C9395 C9397 1.390 . S
C9395 H9399 0.950 . S
H9396 C9392 0.950 . S
C9397 C9395 1.390 . S
C9397 C9398 1.387 . S
C9397 H9400 0.950 . S
C9398 C9397 1.387 . S
C9398 C9401 1.387 . S
H9399 C9395 0.950 . S
H9400 C9397 0.950 . S
C9401 C9392 1.390 . S
C9401 H9394 0.950 . S
C9401 C9398 1.387 . S
C9402 C9403 1.387 . S
C9402 H9406 0.950 . S
C9402 C9411 1.390 . S
C9403 C9402 1.387 . S
C9403 C9405 1.387 . S
H9404 C9411 0.950 . S
C9405 C9403 1.387 . S
C9405 C9407 1.390 . S
C9405 H9409 0.950 . S
H9406 C9402 0.950 . S
C9407 C9405 1.390 . S
C9407 C9408 1.387 . S
C9407 H9410 0.950 . S
C9408 C9407 1.387 . S
C9408 C9411 1.387 . S
H9409 C9405 0.950 . S
H9410 C9407 0.950 . S
C9411 C9402 1.390 . S
C9411 H9404 0.950 . S
C9411 C9408 1.387 . S
C9412 C9413 1.387 . S
C9412 H9416 0.950 . S
C9412 C9421 1.390 . S
C9413 C9412 1.387 . S
C9413 C9415 1.387 . S
H9414 C9421 0.950 . S
C9415 C9413 1.387 . S
C9415 C9417 1.390 . S
C9415 H9419 0.950 . S
H9416 C9412 0.950 . S
C9417 C9415 1.390 . S
C9417 C9418 1.387 . S
C9417 H9420 0.950 . S
C9418 C9417 1.387 . S
C9418 C9421 1.387 . S
H9419 C9415 0.950 . S
H9420 C9417 0.950 . S
C9421 C9412 1.390 . S
C9421 H9414 0.950 . S
C9421 C9418 1.387 . S
C9422 C9423 1.387 . S
C9422 H9426 0.950 . S
C9422 C9431 1.390 . S
C9423 C9422 1.387 . S
C9423 C9425 1.387 . S
H9424 C9431 0.950 . S
C9425 C9423 1.387 . S
C9425 C9427 1.390 . S
C9425 H9429 0.950 . S
H9426 C9422 0.950 . S
C9427 C9425 1.390 . S
C9427 C9428 1.387 . S
C9427 H9430 0.950 . S
C9428 C9427 1.387 . S
C9428 C9431 1.387 . S
H9429 C9425 0.950 . S
H9430 C9427 0.950 . S
C9431 C9422 1.390 . S
C9431 H9424 0.950 . S
C9431 C9428 1.387 . S
C9432 C9433 1.387 . S
C9432 H9436 0.950 . S
C9432 C9441 1.390 . S
C9433 C9432 1.387 . S
C9433 C9435 1.387 . S
H9434 C9441 0.950 . S
C9435 C9433 1.387 . S
C9435 C9437 1.390 . S
C9435 H9439 0.950 . S
H9436 C9432 0.950 . S
C9437 C9435 1.390 . S
C9437 C9438 1.387 . S
C9437 H9440 0.950 . S
C9438 C9437 1.387 . S
C9438 C9441 1.387 . S
H9439 C9435 0.950 . S
H9440 C9437 0.950 . S
C9441 C9432 1.390 . S
C9441 H9434 0.950 . S
C9441 C9438 1.387 . S
C9442 C9443 1.387 . S
C9442 H9446 0.950 . S
C9442 C9451 1.390 . S
C9443 C9442 1.387 . S
C9443 C9445 1.387 . S
H9444 C9451 0.950 . S
C9445 C9443 1.387 . S
C9445 C9447 1.390 . S
C9445 H9449 0.950 . S
H9446 C9442 0.950 . S
C9447 C9445 1.390 . S
C9447 C9448 1.387 . S
C9447 H9450 0.950 . S
C9448 C9447 1.387 . S
C9448 C9451 1.387 . S
H9449 C9445 0.950 . S
H9450 C9447 0.950 . S
C9451 C9442 1.390 . S
C9451 H9444 0.950 . S
C9451 C9448 1.387 . S
C9452 C9453 1.387 . S
C9452 H9456 0.950 . S
C9452 C9461 1.390 . S
C9453 C9452 1.387 . S
C9453 C9455 1.387 . S
H9454 C9461 0.950 . S
C9455 C9453 1.387 . S
C9455 C9457 1.390 . S
C9455 H9459 0.950 . S
H9456 C9452 0.950 . S
C9457 C9455 1.390 . S
C9457 C9458 1.387 . S
C9457 H9460 0.950 . S
C9458 C9457 1.387 . S
C9458 C9461 1.387 . S
H9459 C9455 0.950 . S
H9460 C9457 0.950 . S
C9461 C9452 1.390 . S
C9461 H9454 0.950 . S
C9461 C9458 1.387 . S
C9462 C9463 1.387 . S
C9462 H9466 0.950 . S
C9462 C9471 1.390 . S
C9463 C9462 1.387 . S
C9463 C9465 1.387 . S
H9464 C9471 0.950 . S
C9465 C9463 1.387 . S
C9465 C9467 1.390 . S
C9465 H9469 0.950 . S
H9466 C9462 0.950 . S
C9467 C9465 1.390 . S
C9467 C9468 1.387 . S
C9467 H9470 0.950 . S
C9468 C9467 1.387 . S
C9468 C9471 1.387 . S
H9469 C9465 0.950 . S
H9470 C9467 0.950 . S
C9471 C9462 1.390 . S
C9471 H9464 0.950 . S
C9471 C9468 1.387 . S
C9472 C9473 1.387 . S
C9472 H9476 0.950 . S
C9472 C9481 1.390 . S
C9473 C9472 1.387 . S
C9473 C9475 1.387 . S
H9474 C9481 0.950 . S
C9475 C9473 1.387 . S
C9475 C9477 1.390 . S
C9475 H9479 0.950 . S
H9476 C9472 0.950 . S
C9477 C9475 1.390 . S
C9477 C9478 1.387 . S
C9477 H9480 0.950 . S
C9478 C9477 1.387 . S
C9478 C9481 1.387 . S
H9479 C9475 0.950 . S
H9480 C9477 0.950 . S
C9481 C9472 1.390 . S
C9481 H9474 0.950 . S
C9481 C9478 1.387 . S
C9482 C9483 1.387 . S
C9482 H9486 0.950 . S
C9482 C9491 1.390 . S
C9483 C9482 1.387 . S
C9483 C9485 1.387 . S
H9484 C9491 0.950 . S
C9485 C9483 1.387 . S
C9485 C9487 1.390 . S
C9485 H9489 0.950 . S
H9486 C9482 0.950 . S
C9487 C9485 1.390 . S
C9487 C9488 1.387 . S
C9487 H9490 0.950 . S
C9488 C9487 1.387 . S
C9488 C9491 1.387 . S
H9489 C9485 0.950 . S
H9490 C9487 0.950 . S
C9491 C9482 1.390 . S
C9491 H9484 0.950 . S
C9491 C9488 1.387 . S
C9492 C9493 1.387 . S
C9492 H9496 0.950 . S
C9492 C9501 1.390 . S
C9493 C9492 1.387 . S
C9493 C9495 1.387 . S
H9494 C9501 0.950 . S
C9495 C9493 1.387 . S
C9495 C9497 1.390 . S
C9495 H9499 0.950 . S
H9496 C9492 0.950 . S
C9497 C9495 1.390 . S
C9497 C9498 1.387 . S
C9497 H9500 0.950 . S
C9498 C9497 1.387 . S
C9498 C9501 1.387 . S
H9499 C9495 0.950 . S
H9500 C9497 0.950 . S
C9501 C9492 1.390 . S
C9501 H9494 0.950 . S
C9501 C9498 1.387 . S
C9502 C9503 1.387 . S
C9502 H9506 0.950 . S
C9502 C9511 1.390 . S
C9503 C9502 1.387 . S
C9503 C9505 1.387 . S
H9504 C9511 0.950 . S
C9505 C9503 1.387 . S
C9505 C9507 1.390 . S
C9505 H9509 0.950 . S
H9506 C9502 0.950 . S
C9507 C9505 1.390 . S
C9507 C9508 1.387 . S
C9507 H9510 0.950 . S
C9508 C9507 1.387 . S
C9508 C9511 1.387 . S
H9509 C9505 0.950 . S
H9510 C9507 0.950 . S
C9511 C9502 1.390 . S
C9511 H9504 0.950 . S
C9511 C9508 1.387 . S
C9512 C9513 1.387 . S
C9512 H9516 0.950 . S
C9512 C9521 1.390 . S
C9513 C9512 1.387 . S
C9513 C9515 1.387 . S
H9514 C9521 0.950 . S
C9515 C9513 1.387 . S
C9515 C9517 1.390 . S
C9515 H9519 0.950 . S
H9516 C9512 0.950 . S
C9517 C9515 1.390 . S
C9517 C9518 1.387 . S
C9517 H9520 0.950 . S
C9518 C9517 1.387 . S
C9518 C9521 1.387 . S
H9519 C9515 0.950 . S
H9520 C9517 0.950 . S
C9521 C9512 1.390 . S
C9521 H9514 0.950 . S
C9521 C9518 1.387 . S
C9522 C9523 1.387 . S
C9522 H9526 0.950 . S
C9522 C9531 1.390 . S
C9523 C9522 1.387 . S
C9523 C9525 1.387 . S
H9524 C9531 0.950 . S
C9525 C9523 1.387 . S
C9525 C9527 1.390 . S
C9525 H9529 0.950 . S
H9526 C9522 0.950 . S
C9527 C9525 1.390 . S
C9527 C9528 1.387 . S
C9527 H9530 0.950 . S
C9528 C9527 1.387 . S
C9528 C9531 1.387 . S
H9529 C9525 0.950 . S
H9530 C9527 0.950 . S
C9531 C9522 1.390 . S
C9531 H9524 0.950 . S
C9531 C9528 1.387 . S
C9532 C9533 1.387 . S
C9532 H9536 0.950 . S
C9532 C9541 1.390 . S
C9533 C9532 1.387 . S
C9533 C9535 1.387 . S
H9534 C9541 0.950 . S
C9535 C9533 1.387 . S
C9535 C9537 1.390 . S
C9535 H9539 0.950 . S
H9536 C9532 0.950 . S
C9537 C9535 1.390 . S
C9537 C9538 1.387 . S
C9537 H9540 0.950 . S
C9538 C9537 1.387 . S
C9538 C9541 1.387 . S
H9539 C9535 0.950 . S
H9540 C9537 0.950 . S
C9541 C9532 1.390 . S
C9541 H9534 0.950 . S
C9541 C9538 1.387 . S
C9542 C9543 1.387 . S
C9542 H9546 0.950 . S
C9542 C9551 1.390 . S
C9543 C9542 1.387 . S
C9543 C9545 1.387 . S
H9544 C9551 0.950 . S
C9545 C9543 1.387 . S
C9545 C9547 1.390 . S
C9545 H9549 0.950 . S
H9546 C9542 0.950 . S
C9547 C9545 1.390 . S
C9547 C9548 1.387 . S
C9547 H9550 0.950 . S
C9548 C9547 1.387 . S
C9548 C9551 1.387 . S
H9549 C9545 0.950 . S
H9550 C9547 0.950 . S
C9551 C9542 1.390 . S
C9551 H9544 0.950 . S
C9551 C9548 1.387 . S
C9552 C9553 1.387 . S
C9552 H9556 0.950 . S
C9552 C9561 1.390 . S
C9553 C9552 1.387 . S
C9553 C9555 1.387 . S
H9554 C9561 0.950 . S
C9555 C9553 1.387 . S
C9555 C9557 1.390 . S
C9555 H9559 0.950 . S
H9556 C9552 0.950 . S
C9557 C9555 1.390 . S
C9557 C9558 1.387 . S
C9557 H9560 0.950 . S
C9558 C9557 1.387 . S
C9558 C9561 1.387 . S
H9559 C9555 0.950 . S
H9560 C9557 0.950 . S
C9561 C9552 1.390 . S
C9561 H9554 0.950 . S
C9561 C9558 1.387 . S
C9562 C9563 1.387 . S
C9562 H9566 0.950 . S
C9562 C9571 1.390 . S
C9563 C9562 1.387 . S
C9563 C9565 1.387 . S
H9564 C9571 0.950 . S
C9565 C9563 1.387 . S
C9565 C9567 1.390 . S
C9565 H9569 0.950 . S
H9566 C9562 0.950 . S
C9567 C9565 1.390 . S
C9567 C9568 1.387 . S
C9567 H9570 0.950 . S
C9568 C9567 1.387 . S
C9568 C9571 1.387 . S
H9569 C9565 0.950 . S
H9570 C9567 0.950 . S
C9571 C9562 1.390 . S
C9571 H9564 0.950 . S
C9571 C9568 1.387 . S
C9572 C9573 1.387 . S
C9572 H9576 0.950 . S
C9572 C9581 1.390 . S
C9573 C9572 1.387 . S
C9573 C9575 1.387 . S
H9574 C9581 0.950 . S
C9575 C9573 1.387 . S
C9575 C9577 1.390 . S
C9575 H9579 0.950 . S
H9576 C9572 0.950 . S
C9577 C9575 1.390 . S
C9577 C9578 1.387 . S
C9577 H9580 0.950 . S
C9578 C9577 1.387 . S
C9578 C9581 1.387 . S
H9579 C9575 0.950 . S
H9580 C9577 0.950 . S
C9581 C9572 1.390 . S
C9581 H9574 0.950 . S
C9581 C9578 1.387 . S
C9582 C9583 1.387 . S
C9582 H9586 0.950 . S
C9582 C9591 1.390 . S
C9583 C9582 1.387 . S
C9583 C9585 1.387 . S
H9584 C9591 0.950 . S
C9585 C9583 1.387 . S
C9585 C9587 1.390 . S
C9585 H9589 0.950 . S
H9586 C9582 0.950 . S
C9587 C9585 1.390 . S
C9587 C9588 1.387 . S
C9587 H9590 0.950 . S
C9588 C9587 1.387 . S
C9588 C9591 1.387 . S
H9589 C9585 0.950 . S
H9590 C9587 0.950 . S
C9591 C9582 1.390 . S
C9591 H9584 0.950 . S
C9591 C9588 1.387 . S
C9592 C9593 1.387 . S
C9592 H9596 0.950 . S
C9592 C9601 1.390 . S
C9593 C9592 1.387 . S
C9593 C9595 1.387 . S
H9594 C9601 0.950 . S
C9595 C9593 1.387 . S
C9595 C9597 1.390 . S
C9595 H9599 0.950 . S
H9596 C9592 0.950 . S
C9597 C9595 1.390 . S
C9597 C9598 1.387 . S
C9597 H9600 0.950 . S
C9598 C9597 1.387 . S
C9598 C9601 1.387 . S
H9599 C9595 0.950 . S
H9600 C9597 0.950 . S
C9601 C9592 1.390 . S
C9601 H9594 0.950 . S
C9601 C9598 1.387 . S
C9602 C9603 1.387 . S
C9602 H9606 0.950 . S
C9602 C9611 1.390 . S
C9603 C9602 1.387 . S
C9603 C9605 1.387 . S
H9604 C9611 0.950 . S
C9605 C9603 1.387 . S
C9605 C9607 1.390 . S
C9605 H9609 0.950 . S
H9606 C9602 0.950 . S
C9607 C9605 1.390 . S
C9607 C9608 1.387 . S
C9607 H9610 0.950 . S
C9608 C9607 1.387 . S
C9608 C9611 1.387 . S
H9609 C9605 0.950 . S
H9610 C9607 0.950 . S
C9611 C9602 1.390 . S
C9611 H9604 0.950 . S
C9611 C9608 1.387 . S
C9612 C9613 1.387 . S
C9612 H9616 0.950 . S
C9612 C9621 1.390 . S
C9613 C9612 1.387 . S
C9613 C9615 1.387 . S
H9614 C9621 0.950 . S
C9615 C9613 1.387 . S
C9615 C9617 1.390 . S
C9615 H9619 0.950 . S
H9616 C9612 0.950 . S
C9617 C9615 1.390 . S
C9617 C9618 1.387 . S
C9617 H9620 0.950 . S
C9618 C9617 1.387 . S
C9618 C9621 1.387 . S
H9619 C9615 0.950 . S
H9620 C9617 0.950 . S
C9621 C9612 1.390 . S
C9621 H9614 0.950 . S
C9621 C9618 1.387 . S
C9622 C9623 1.387 . S
C9622 H9626 0.950 . S
C9622 C9631 1.390 . S
C9623 C9622 1.387 . S
C9623 C9625 1.387 . S
H9624 C9631 0.950 . S
C9625 C9623 1.387 . S
C9625 C9627 1.390 . S
C9625 H9629 0.950 . S
H9626 C9622 0.950 . S
C9627 C9625 1.390 . S
C9627 C9628 1.387 . S
C9627 H9630 0.950 . S
C9628 C9627 1.387 . S
C9628 C9631 1.387 . S
H9629 C9625 0.950 . S
H9630 C9627 0.950 . S
C9631 C9622 1.390 . S
C9631 H9624 0.950 . S
C9631 C9628 1.387 . S
C9632 C9633 1.387 . S
C9632 H9636 0.950 . S
C9632 C9641 1.390 . S
C9633 C9632 1.387 . S
C9633 C9635 1.387 . S
H9634 C9641 0.950 . S
C9635 C9633 1.387 . S
C9635 C9637 1.390 . S
C9635 H9639 0.950 . S
H9636 C9632 0.950 . S
C9637 C9635 1.390 . S
C9637 C9638 1.387 . S
C9637 H9640 0.950 . S
C9638 C9637 1.387 . S
C9638 C9641 1.387 . S
H9639 C9635 0.950 . S
H9640 C9637 0.950 . S
C9641 C9632 1.390 . S
C9641 H9634 0.950 . S
C9641 C9638 1.387 . S
C9642 C9643 1.387 . S
C9642 H9646 0.950 . S
C9642 C9651 1.390 . S
C9643 C9642 1.387 . S
C9643 C9645 1.387 . S
H9644 C9651 0.950 . S
C9645 C9643 1.387 . S
C9645 C9647 1.390 . S
C9645 H9649 0.950 . S
H9646 C9642 0.950 . S
C9647 C9645 1.390 . S
C9647 C9648 1.387 . S
C9647 H9650 0.950 . S
C9648 C9647 1.387 . S
C9648 C9651 1.387 . S
H9649 C9645 0.950 . S
H9650 C9647 0.950 . S
C9651 C9642 1.390 . S
C9651 H9644 0.950 . S
C9651 C9648 1.387 . S
C9652 C9653 1.387 . S
C9652 H9656 0.950 . S
C9652 C9661 1.390 . S
C9653 C9652 1.387 . S
C9653 C9655 1.387 . S
H9654 C9661 0.950 . S
C9655 C9653 1.387 . S
C9655 C9657 1.390 . S
C9655 H9659 0.950 . S
H9656 C9652 0.950 . S
C9657 C9655 1.390 . S
C9657 C9658 1.387 . S
C9657 H9660 0.950 . S
C9658 C9657 1.387 . S
C9658 C9661 1.387 . S
H9659 C9655 0.950 . S
H9660 C9657 0.950 . S
C9661 C9652 1.390 . S
C9661 H9654 0.950 . S
C9661 C9658 1.387 . S
C9662 C9663 1.387 . S
C9662 H9666 0.950 . S
C9662 C9671 1.390 . S
C9663 C9662 1.387 . S
C9663 C9665 1.387 . S
H9664 C9671 0.950 . S
C9665 C9663 1.387 . S
C9665 C9667 1.390 . S
C9665 H9669 0.950 . S
H9666 C9662 0.950 . S
C9667 C9665 1.390 . S
C9667 C9668 1.387 . S
C9667 H9670 0.950 . S
C9668 C9667 1.387 . S
C9668 C9671 1.387 . S
H9669 C9665 0.950 . S
H9670 C9667 0.950 . S
C9671 C9662 1.390 . S
C9671 H9664 0.950 . S
C9671 C9668 1.387 . S
C9672 C9673 1.387 . S
C9672 H9676 0.950 . S
C9672 C9681 1.390 . S
C9673 C9672 1.387 . S
C9673 C9675 1.387 . S
H9674 C9681 0.950 . S
C9675 C9673 1.387 . S
C9675 C9677 1.390 . S
C9675 H9679 0.950 . S
H9676 C9672 0.950 . S
C9677 C9675 1.390 . S
C9677 C9678 1.387 . S
C9677 H9680 0.950 . S
C9678 C9677 1.387 . S
C9678 C9681 1.387 . S
H9679 C9675 0.950 . S
H9680 C9677 0.950 . S
C9681 C9672 1.390 . S
C9681 H9674 0.950 . S
C9681 C9678 1.387 . S
C9682 C9683 1.387 . S
C9682 H9686 0.950 . S
C9682 C9691 1.390 . S
C9683 C9682 1.387 . S
C9683 C9685 1.387 . S
H9684 C9691 0.950 . S
C9685 C9683 1.387 . S
C9685 C9687 1.390 . S
C9685 H9689 0.950 . S
H9686 C9682 0.950 . S
C9687 C9685 1.390 . S
C9687 C9688 1.387 . S
C9687 H9690 0.950 . S
C9688 C9687 1.387 . S
C9688 C9691 1.387 . S
H9689 C9685 0.950 . S
H9690 C9687 0.950 . S
C9691 C9682 1.390 . S
C9691 H9684 0.950 . S
C9691 C9688 1.387 . S
C9692 C9693 1.387 . S
C9692 H9696 0.950 . S
C9692 C9701 1.390 . S
C9693 C9692 1.387 . S
C9693 C9695 1.387 . S
H9694 C9701 0.950 . S
C9695 C9693 1.387 . S
C9695 C9697 1.390 . S
C9695 H9699 0.950 . S
H9696 C9692 0.950 . S
C9697 C9695 1.390 . S
C9697 C9698 1.387 . S
C9697 H9700 0.950 . S
C9698 C9697 1.387 . S
C9698 C9701 1.387 . S
H9699 C9695 0.950 . S
H9700 C9697 0.950 . S
C9701 C9692 1.390 . S
C9701 H9694 0.950 . S
C9701 C9698 1.387 . S
C9702 C9703 1.387 . S
C9702 H9706 0.950 . S
C9702 C9711 1.390 . S
C9703 C9702 1.387 . S
C9703 C9705 1.387 . S
H9704 C9711 0.950 . S
C9705 C9703 1.387 . S
C9705 C9707 1.390 . S
C9705 H9709 0.950 . S
H9706 C9702 0.950 . S
C9707 C9705 1.390 . S
C9707 C9708 1.387 . S
C9707 H9710 0.950 . S
C9708 C9707 1.387 . S
C9708 C9711 1.387 . S
H9709 C9705 0.950 . S
H9710 C9707 0.950 . S
C9711 C9702 1.390 . S
C9711 H9704 0.950 . S
C9711 C9708 1.387 . S
C9712 C9713 1.387 . S
C9712 H9716 0.950 . S
C9712 C9721 1.390 . S
C9713 C9712 1.387 . S
C9713 C9715 1.387 . S
H9714 C9721 0.950 . S
C9715 C9713 1.387 . S
C9715 C9717 1.390 . S
C9715 H9719 0.950 . S
H9716 C9712 0.950 . S
C9717 C9715 1.390 . S
C9717 C9718 1.387 . S
C9717 H9720 0.950 . S
C9718 C9717 1.387 . S
C9718 C9721 1.387 . S
H9719 C9715 0.950 . S
H9720 C9717 0.950 . S
C9721 C9712 1.390 . S
C9721 H9714 0.950 . S
C9721 C9718 1.387 . S
C9722 C9723 1.387 . S
C9722 H9726 0.950 . S
C9722 C9731 1.390 . S
C9723 C9722 1.387 . S
C9723 C9725 1.387 . S
H9724 C9731 0.950 . S
C9725 C9723 1.387 . S
C9725 C9727 1.390 . S
C9725 H9729 0.950 . S
H9726 C9722 0.950 . S
C9727 C9725 1.390 . S
C9727 C9728 1.387 . S
C9727 H9730 0.950 . S
C9728 C9727 1.387 . S
C9728 C9731 1.387 . S
H9729 C9725 0.950 . S
H9730 C9727 0.950 . S
C9731 C9722 1.390 . S
C9731 H9724 0.950 . S
C9731 C9728 1.387 . S
C9732 C9733 1.387 . S
C9732 H9736 0.950 . S
C9732 C9741 1.390 . S
C9733 C9732 1.387 . S
C9733 C9735 1.387 . S
H9734 C9741 0.950 . S
C9735 C9733 1.387 . S
C9735 C9737 1.390 . S
C9735 H9739 0.950 . S
H9736 C9732 0.950 . S
C9737 C9735 1.390 . S
C9737 C9738 1.387 . S
C9737 H9740 0.950 . S
C9738 C9737 1.387 . S
C9738 C9741 1.387 . S
H9739 C9735 0.950 . S
H9740 C9737 0.950 . S
C9741 C9732 1.390 . S
C9741 H9734 0.950 . S
C9741 C9738 1.387 . S
C9742 C9743 1.387 . S
C9742 H9746 0.950 . S
C9742 C9751 1.390 . S
C9743 C9742 1.387 . S
C9743 C9745 1.387 . S
H9744 C9751 0.950 . S
C9745 C9743 1.387 . S
C9745 C9747 1.390 . S
C9745 H9749 0.950 . S
H9746 C9742 0.950 . S
C9747 C9745 1.390 . S
C9747 C9748 1.387 . S
C9747 H9750 0.950 . S
C9748 C9747 1.387 . S
C9748 C9751 1.387 . S
H9749 C9745 0.950 . S
H9750 C9747 0.950 . S
C9751 C9742 1.390 . S
C9751 H9744 0.950 . S
C9751 C9748 1.387 . S
C9752 C9753 1.387 . S
C9752 H9756 0.950 . S
C9752 C9761 1.390 . S
C9753 C9752 1.387 . S
C9753 C9755 1.387 . S
H9754 C9761 0.950 . S
C9755 C9753 1.387 . S
C9755 C9757 1.390 . S
C9755 H9759 0.950 . S
H9756 C9752 0.950 . S
C9757 C9755 1.390 . S
C9757 C9758 1.387 . S
C9757 H9760 0.950 . S
C9758 C9757 1.387 . S
C9758 C9761 1.387 . S
H9759 C9755 0.950 . S
H9760 C9757 0.950 . S
C9761 C9752 1.390 . S
C9761 H9754 0.950 . S
C9761 C9758 1.387 . S
C9762 C9763 1.387 . S
C9762 H9766 0.950 . S
C9762 C9771 1.390 . S
C9763 C9762 1.387 . S
C9763 C9765 1.387 . S
H9764 C9771 0.950 . S
C9765 C9763 1.387 . S
C9765 C9767 1.390 . S
C9765 H9769 0.950 . S
H9766 C9762 0.950 . S
C9767 C9765 1.390 . S
C9767 C9768 1.387 . S
C9767 H9770 0.950 . S
C9768 C9767 1.387 . S
C9768 C9771 1.387 . S
H9769 C9765 0.950 . S
H9770 C9767 0.950 . S
C9771 C9762 1.390 . S
C9771 H9764 0.950 . S
C9771 C9768 1.387 . S
C9772 C9773 1.387 . S
C9772 H9776 0.950 . S
C9772 C9781 1.390 . S
C9773 C9772 1.387 . S
C9773 C9775 1.387 . S
H9774 C9781 0.950 . S
C9775 C9773 1.387 . S
C9775 C9777 1.390 . S
C9775 H9779 0.950 . S
H9776 C9772 0.950 . S
C9777 C9775 1.390 . S
C9777 C9778 1.387 . S
C9777 H9780 0.950 . S
C9778 C9777 1.387 . S
C9778 C9781 1.387 . S
H9779 C9775 0.950 . S
H9780 C9777 0.950 . S
C9781 C9772 1.390 . S
C9781 H9774 0.950 . S
C9781 C9778 1.387 . S
C9782 C9783 1.387 . S
C9782 H9786 0.950 . S
C9782 C9791 1.390 . S
C9783 C9782 1.387 . S
C9783 C9785 1.387 . S
H9784 C9791 0.950 . S
C9785 C9783 1.387 . S
C9785 C9787 1.390 . S
C9785 H9789 0.950 . S
H9786 C9782 0.950 . S
C9787 C9785 1.390 . S
C9787 C9788 1.387 . S
C9787 H9790 0.950 . S
C9788 C9787 1.387 . S
C9788 C9791 1.387 . S
H9789 C9785 0.950 . S
H9790 C9787 0.950 . S
C9791 C9782 1.390 . S
C9791 H9784 0.950 . S
C9791 C9788 1.387 . S
C6918 C4663 1.479 . S
C6913 C15 1.474 . S
C6928 C6231 1.480 . S
C6923 C55 1.475 . S
C6938 C4727 1.479 . S
C6933 C95 1.474 . S
C6948 C6167 1.480 . S
C6943 C135 1.475 . S
C6958 C4855 1.480 . S
C6953 C175 1.475 . S
C6963 C215 1.474 . S
C6968 C6295 1.479 . S
C6978 C4791 1.479 . S
C6973 C255 1.474 . S
C6988 C6359 1.480 . S
C6983 C295 1.475 . S
C6998 C6871 1.480 . S
C6993 C335 1.475 . S
C7003 C375 1.474 . S
C7008 C6679 1.479 . S
C7018 C6903 1.479 . S
C7013 C415 1.474 . S
C7023 C455 1.474 . S
C7028 C6839 1.479 . S
C7038 C6743 1.479 . S
C7033 C495 1.474 . S
C7048 C5239 1.480 . S
C7043 C535 1.474 . S
C7058 C5271 1.479 . S
C7053 C575 1.474 . S
C7063 C615 1.474 . S
C7068 C5175 1.479 . S
C7073 C655 1.474 . S
C7078 C6583 1.479 . S
C7088 C4983 1.479 . S
C7083 C695 1.474 . S
C7098 C6423 1.479 . S
C7093 C735 1.474 . S
C7108 C4919 1.480 . S
C7103 C775 1.475 . S
C7113 C815 1.474 . S
C7118 C4951 1.479 . S
C7128 C6647 1.480 . S
C7123 C855 1.475 . S
C7138 C6551 1.479 . S
C7133 C895 1.474 . S
C7143 C935 1.475 . S
C7148 C6615 1.480 . S
C7153 C975 1.476 . S
C7158 C3895 1.376 . S
C7163 C1015 1.476 . S
C7168 C5463 1.376 . S
C7178 C3959 1.377 . S
C7173 C1055 1.477 . S
C7183 C1095 1.477 . S
C7188 C5399 1.376 . S
C7198 C4087 1.376 . S
C7193 C1135 1.476 . S
C7203 C1175 1.477 . S
C7208 C5527 1.376 . S
C7218 C4023 1.377 . S
C7213 C1215 1.476 . S
C7228 C5591 1.376 . S
C7223 C1255 1.477 . S
C7233 C1295 1.476 . S
C7238 C6103 1.376 . S
C7248 C5911 1.376 . S
C7243 C1335 1.477 . S
C7253 C1375 1.476 . S
C7258 C6135 1.377 . S
C7268 C6071 1.376 . S
C7263 C1415 1.476 . S
C7278 C5975 1.378 . S
C7273 C1455 1.476 . S
C7283 C1495 1.477 . S
C7288 C4471 1.376 . S
C7293 C1535 1.477 . S
C7298 C4503 1.376 . S
C7308 C4407 1.375 . S
C7303 C1575 1.477 . S
C7313 C1615 1.477 . S
C7318 C5815 1.376 . S
C7328 C4215 1.376 . S
C7323 C1655 1.476 . S
C7333 C1695 1.476 . S
C7338 C5655 1.376 . S
C7348 C4151 1.376 . S
C7343 C1735 1.476 . S
C7353 C1775 1.476 . S
C7358 C4183 1.377 . S
C7368 C5879 1.376 . S
C7363 C1815 1.477 . S
C7378 C5783 1.377 . S
C7373 C1855 1.476 . S
C7388 C5847 1.376 . S
C7383 C1895 1.476 . S
C7393 C1935 1.475 . S
C7398 C6199 1.480 . S
C7408 C4695 1.480 . S
C7403 C1975 1.475 . S
C7418 C6263 1.479 . S
C7413 C2015 1.474 . S
C7428 C4631 1.479 . S
C7423 C2055 1.474 . S
C7433 C2095 1.474 . S
C7438 C6391 1.479 . S
C7448 C4759 1.480 . S
C7443 C2135 1.475 . S
C7458 C6327 1.479 . S
C7453 C2175 1.474 . S
C7468 C4823 1.479 . S
C7463 C2215 1.474 . S
C7473 C2255 1.475 . S
C7478 C5335 1.480 . S
C7488 C5143 1.480 . S
C7483 C2295 1.475 . S
C7498 C5367 1.480 . S
C7493 C2335 1.475 . S
C7503 C2375 1.474 . S
C7508 C5303 1.479 . S
C7513 C2415 1.474 . S
C7518 C5207 1.479 . S
C7523 C2455 1.475 . S
C7528 C6775 1.480 . S
C7533 C2495 1.475 . S
C7538 C6807 1.480 . S
C7548 C6711 1.479 . S
C7543 C2535 1.474 . S
C7553 C2575 1.473 . S
C7558 C5047 1.479 . S
C7568 C6519 1.479 . S
C7563 C2615 1.474 . S
C7578 C4887 1.480 . S
C7573 C2655 1.475 . S
C7588 C6455 1.479 . S
C7583 C2695 1.474 . S
C7593 C2735 1.473 . S
C7598 C6487 1.479 . S
C7603 C2775 1.474 . S
C7608 C5111 1.479 . S
C7618 C5015 1.480 . S
C7613 C2815 1.475 . S
C7623 C2855 1.475 . S
C7628 C5079 1.480 . S
C7633 C2895 1.476 . S
C7638 C5431 1.376 . S
C7648 C3927 1.376 . S
C7643 C2935 1.477 . S
C7658 C5495 1.376 . S
C7653 C2975 1.477 . S
C7663 C3015 1.476 . S
C7668 C3863 1.376 . S
C7678 C5623 1.376 . S
C7673 C3055 1.477 . S
C7688 C3991 1.376 . S
C7683 C3095 1.477 . S
C7693 C3135 1.477 . S
C7698 C5559 1.376 . S
C7703 C3175 1.476 . S
C7708 C4055 1.376 . S
C7718 C4567 1.375 . S
C7713 C3215 1.477 . S
C7723 C3255 1.476 . S
C7728 C4375 1.376 . S
C7738 C4599 1.376 . S
C7733 C3295 1.477 . S
C7748 C4535 1.376 . S
C7743 C3335 1.476 . S
C7753 C3375 1.477 . S
C7758 C4439 1.378 . S
C7763 C3415 1.476 . S
C7768 C6007 1.376 . S
C7778 C6039 1.373 . S
C7773 C3455 1.476 . S
C7783 C3495 1.476 . S
C7788 C5943 1.376 . S
C7798 C4279 1.376 . S
C7793 C3535 1.476 . S
C7808 C5751 1.376 . S
C7803 C3575 1.476 . S
C7813 C3615 1.477 . S
C7818 C4119 1.374 . S
C7823 C3655 1.476 . S
C7828 C5687 1.376 . S
C7833 C3695 1.477 . S
C7838 C5719 1.375 . S
C7843 C3735 1.477 . S
C7848 C4343 1.376 . S
C7853 C3775 1.476 . S
C7858 C4247 1.376 . S
C7868 C4311 1.376 . S
C7863 C3815 1.476 . S
C7878 C4145 1.625 . S
C7873 C2 1.709 . S
C7888 C4177 1.624 . S
C7883 C42 1.708 . S
C7893 C82 1.709 . S
C7898 C4209 1.624 . S
C7903 C122 1.708 . S
C7908 C4113 1.624 . S
C7913 C162 1.708 . S
C7918 C4337 1.624 . S
C7928 C4241 1.628 . S
C7923 C202 1.710 . S
C7938 C4273 1.624 . S
C7933 C242 1.708 . S
C7943 C282 1.710 . S
C7948 C4305 1.628 . S
C7953 C322 1.710 . S
C7958 C3953 1.628 . S
C7963 C362 1.708 . S
C7968 C3857 1.624 . S
C7973 C402 1.709 . S
C7978 C3889 1.625 . S
C7988 C3921 1.628 . S
C7983 C442 1.709 . S
C7993 C482 1.709 . S
C7998 C4017 1.627 . S
C8003 C522 1.709 . S
C8008 C4049 1.628 . S
C8013 C562 1.708 . S
C8018 C4081 1.626 . S
C8023 C602 1.710 . S
C8028 C3985 1.628 . S
C8038 C4433 1.628 . S
C8033 C642 1.710 . S
C8043 C682 1.709 . S
C8048 C6097 1.625 . S
C8058 C4369 1.628 . S
C8053 C722 1.710 . S
C8068 C6129 1.624 . S
C8063 C762 1.708 . S
C8073 C802 1.709 . S
C8078 C6065 1.627 . S
C8083 C842 1.709 . S
C8088 C6033 1.627 . S
C8098 C5937 1.624 . S
C8093 C882 1.709 . S
C8108 C6001 1.624 . S
C8103 C922 1.708 . S
C8118 C4913 1.818 . S
C8113 C962 1.813 . S
C8128 C4945 1.817 . S
C8123 C1002 1.813 . S
C8138 C4977 1.818 . S
C8133 C1042 1.813 . S
C8143 C1082 1.813 . S
C8148 C4881 1.817 . S
C8153 C1122 1.813 . S
C8158 C5105 1.817 . S
C8168 C5009 1.818 . S
C8163 C1162 1.813 . S
C8173 C1202 1.813 . S
C8178 C5041 1.818 . S
C8188 C5073 1.819 . S
C8183 C1242 1.813 . S
C8193 C1282 1.813 . S
C8198 C4721 1.818 . S
C8208 C4625 1.818 . S
C8203 C1322 1.813 . S
C8213 C1362 1.813 . S
C8218 C4657 1.818 . S
C8228 C4689 1.819 . S
C8223 C1402 1.813 . S
C8238 C4785 1.818 . S
C8233 C1442 1.813 . S
C8243 C1482 1.813 . S
C8248 C4817 1.818 . S
C8258 C4849 1.818 . S
C8253 C1522 1.813 . S
C8268 C4753 1.818 . S
C8263 C1562 1.813 . S
C8278 C5201 1.819 . S
C8273 C1602 1.813 . S
C8288 C6865 1.818 . S
C8283 C1642 1.813 . S
C8298 C5137 1.818 . S
C8293 C1682 1.813 . S
C8303 C1722 1.813 . S
C8308 C6897 1.818 . S
C8313 C1762 1.813 . S
C8318 C6833 1.818 . S
C8328 C6801 1.818 . S
C8323 C1802 1.813 . S
C8338 C6705 1.819 . S
C8333 C1842 1.814 . S
C8348 C6769 1.818 . S
C8343 C1882 1.813 . S
C8353 C1922 1.709 . S
C8358 C5681 1.627 . S
C8368 C5713 1.628 . S
C8363 C1962 1.709 . S
C8373 C2002 1.709 . S
C8378 C5745 1.627 . S
C8388 C5649 1.628 . S
C8383 C2042 1.709 . S
C8393 C2082 1.709 . S
C8398 C5873 1.624 . S
C8403 C2122 1.708 . S
C8408 C5777 1.624 . S
C8413 C2162 1.708 . S
C8418 C5809 1.624 . S
C8423 C2202 1.710 . S
C8428 C5841 1.628 . S
C8433 C2242 1.710 . S
C8438 C5489 1.626 . S
C8448 C5393 1.627 . S
C8443 C2282 1.709 . S
C8458 C5425 1.624 . S
C8453 C2322 1.708 . S
C8463 C2362 1.708 . S
C8468 C5457 1.624 . S
C8473 C2402 1.711 . S
C8478 C5553 1.628 . S
C8483 C2442 1.709 . S
C8488 C5585 1.627 . S
C8493 C2482 1.708 . S
C8498 C5617 1.624 . S
C8503 C2522 1.709 . S
C8508 C5521 1.628 . S
C8518 C5969 1.624 . S
C8513 C2562 1.708 . S
C8528 C4561 1.624 . S
C8523 C2602 1.708 . S
C8538 C5905 1.625 . S
C8533 C2642 1.708 . S
C8548 C4593 1.624 . S
C8543 C2682 1.708 . S
C8558 C4529 1.627 . S
C8553 C2722 1.709 . S
C8568 C4497 1.628 . S
C8563 C2762 1.710 . S
C8573 C2802 1.710 . S
C8578 C4401 1.627 . S
C8588 C4465 1.628 . S
C8583 C2842 1.710 . S
C8593 C2882 1.813 . S
C8598 C6449 1.818 . S
C8603 C2922 1.813 . S
C8608 C6481 1.818 . S
C8618 C6513 1.819 . S
C8613 C2962 1.813 . S
C8623 C3002 1.813 . S
C8628 C6417 1.817 . S
C8638 C6641 1.818 . S
C8633 C3042 1.813 . S
C8643 C3082 1.813 . S
C8648 C6545 1.818 . S
C8653 C3122 1.813 . S
C8658 C6577 1.819 . S
C8668 C6609 1.819 . S
C8663 C3162 1.813 . S
C8678 C6257 1.819 . S
C8673 C3202 1.814 . S
C8688 C6161 1.817 . S
C8683 C3242 1.813 . S
C8698 C6193 1.818 . S
C8693 C3282 1.813 . S
C8708 C6225 1.818 . S
C8703 C3322 1.813 . S
C8713 C3362 1.813 . S
C8718 C6321 1.819 . S
C8728 C6353 1.819 . S
C8723 C3402 1.813 . S
C8733 C3442 1.812 . S
C8738 C6385 1.817 . S
C8743 C3482 1.814 . S
C8748 C6289 1.818 . S
C8753 C3522 1.813 . S
C8758 C6737 1.819 . S
C8763 C3562 1.813 . S
C8768 C5329 1.818 . S
C8773 C3602 1.812 . S
C8778 C6673 1.818 . S
C8788 C5361 1.818 . S
C8783 C3642 1.813 . S
C8793 C3682 1.813 . S
C8798 C5297 1.818 . S
C8803 C3722 1.813 . S
C8808 C5265 1.817 . S
C8813 C3762 1.813 . S
C8818 C5169 1.819 . S
C8828 C5233 1.818 . S
C8823 C3802 1.813 . S
C8833 C21 1.753 . S
C8838 C3869 1.652 . S
C8843 C61 1.752 . S
C8848 C3901 1.651 . S
C8853 C101 1.752 . S
C8858 C3933 1.654 . S
C8868 C3965 1.651 . S
C8863 C141 1.753 . S
C8878 C3997 1.652 . S
C8873 C181 1.753 . S
C8883 C221 1.754 . S
C8888 C4029 1.653 . S
C8893 C261 1.753 . S
C8898 C4061 1.654 . S
C8903 C301 1.752 . S
C8908 C4093 1.653 . S
C8918 C4125 1.655 . S
C8913 C341 1.753 . S
C8928 C4157 1.654 . S
C8923 C381 1.752 . S
C8933 C421 1.753 . S
C8938 C4189 1.654 . S
C8948 C4221 1.654 . S
C8943 C461 1.752 . S
C8953 C501 1.753 . S
C8958 C4253 1.654 . S
C8963 C541 1.752 . S
C8968 C4285 1.651 . S
C8973 C581 1.752 . S
C8978 C4317 1.654 . S
C8983 C621 1.753 . S
C8988 C4349 1.651 . S
C8993 C661 1.754 . S
C8998 C4381 1.653 . S
C9003 C701 1.752 . S
C9008 C4413 1.651 . S
C9018 C4445 1.654 . S
C9013 C741 1.752 . S
C9028 C4477 1.655 . S
C9023 C781 1.754 . S
C9038 C4509 1.651 . S
C9033 C821 1.752 . S
C9048 C4541 1.655 . S
C9043 C861 1.754 . S
C9053 C901 1.753 . S
C9058 C4573 1.655 . S
C9068 C4605 1.653 . S
C9063 C941 1.754 . S
C9073 C981 1.870 . S
C9078 C4637 1.887 . S
C9083 C1021 1.869 . S
C9088 C4669 1.887 . S
C9093 C1061 1.870 . S
C9098 C4701 1.886 . S
C9108 C4733 1.886 . S
C9103 C1101 1.869 . S
C9113 C1141 1.870 . S
C9118 C4765 1.886 . S
C9128 C4797 1.886 . S
C9123 C1181 1.870 . S
C9133 C1221 1.870 . S
C9138 C4829 1.886 . S
C9143 C1261 1.869 . S
C9148 C4861 1.886 . S
C9158 C4893 1.887 . S
C9153 C1301 1.870 . S
C9163 C1341 1.869 . S
C9168 C4925 1.887 . S
C9178 C4957 1.887 . S
C9173 C1381 1.870 . S
C9183 C1421 1.869 . S
C9188 C4989 1.887 . S
C9198 C5021 1.886 . S
C9193 C1461 1.870 . S
C9208 C5053 1.886 . S
C9203 C1501 1.870 . S
C9218 C5085 1.887 . S
C9213 C1541 1.869 . S
C9223 C1581 1.870 . S
C9228 C5117 1.887 . S
C9233 C1621 1.871 . S
C9238 C5149 1.887 . S
C9243 C1661 1.870 . S
C9248 C5181 1.887 . S
C9253 C1701 1.869 . S
C9258 C5213 1.887 . S
C9263 C1741 1.870 . S
C9268 C5245 1.887 . S
C9273 C1781 1.870 . S
C9278 C5277 1.887 . S
C9288 C5309 1.887 . S
C9283 C1821 1.869 . S
C9293 C1861 1.870 . S
C9298 C5341 1.887 . S
C9308 C5373 1.887 . S
C9303 C1901 1.870 . S
C9313 C1941 1.752 . S
C9318 C5405 1.651 . S
C9328 C5437 1.650 . S
C9323 C1981 1.751 . S
C9338 C5469 1.651 . S
C9333 C2021 1.753 . S
C9348 C5501 1.651 . S
C9343 C2061 1.752 . S
C9353 C2101 1.752 . S
C9358 C5533 1.654 . S
C9363 C2141 1.752 . S
C9368 C5565 1.651 . S
C9378 C5597 1.654 . S
C9373 C2181 1.753 . S
C9388 C5629 1.653 . S
C9383 C2221 1.751 . S
C9393 C2261 1.752 . S
C9398 C5661 1.651 . S
C9403 C2301 1.752 . S
C9408 C5693 1.654 . S
C9413 C2341 1.752 . S
C9418 C5725 1.651 . S
C9423 C2381 1.753 . S
C9428 C5757 1.652 . S
C9433 C2421 1.752 . S
C9438 C5789 1.651 . S
C9448 C5821 1.654 . S
C9443 C2461 1.753 . S
C9458 C5853 1.651 . S
C9453 C2501 1.752 . S
C9468 C5885 1.653 . S
C9463 C2541 1.754 . S
C9478 C5917 1.653 . S
C9473 C2581 1.752 . S
C9483 C2621 1.751 . S
C9488 C5949 1.651 . S
C9493 C2661 1.752 . S
C9498 C5981 1.651 . S
C9508 C6013 1.653 . S
C9503 C2701 1.754 . S
C9513 C2741 1.753 . S
C9518 C6045 1.652 . S
C9528 C6077 1.655 . S
C9523 C2781 1.754 . S
C9538 C6109 1.655 . S
C9533 C2821 1.753 . S
C9548 C6141 1.655 . S
C9543 C2861 1.753 . S
C9553 C2901 1.871 . S
C9558 C6173 1.887 . S
C9563 C2941 1.870 . S
C9568 C6205 1.887 . S
C9573 C2981 1.870 . S
C9578 C6237 1.887 . S
C9583 C3021 1.870 . S
C9588 C6269 1.886 . S
C9598 C6301 1.886 . S
C9593 C3061 1.870 . S
C9608 C6333 1.887 . S
C9603 C3101 1.870 . S
C9618 C6365 1.887 . S
C9613 C3141 1.869 . S
C9623 C3181 1.869 . S
C9628 C6397 1.886 . S
C9633 C3221 1.871 . S
C9638 C6429 1.887 . S
C9648 C6461 1.886 . S
C9643 C3261 1.870 . S
C9658 C6493 1.886 . S
C9653 C3301 1.870 . S
C9668 C6525 1.887 . S
C9663 C3341 1.869 . S
C9678 C6557 1.886 . S
C9673 C3381 1.869 . S
C9688 C6589 1.887 . S
C9683 C3421 1.869 . S
C9698 C6621 1.886 . S
C9693 C3461 1.869 . S
C9708 C6653 1.887 . S
C9703 C3501 1.870 . S
C9718 C6685 1.886 . S
C9713 C3541 1.870 . S
C9728 C6717 1.887 . S
C9723 C3581 1.870 . S
C9738 C6749 1.886 . S
C9733 C3621 1.870 . S
C9743 C3661 1.869 . S
C9748 C6781 1.886 . S
C9758 C6813 1.886 . S
C9753 C3701 1.870 . S
C9763 C3741 1.869 . S
C9768 C6845 1.886 . S
C9778 C6877 1.887 . S
C9773 C3781 1.870 . S
C9788 C6909 1.886 . S
C9783 C3821 1.869 . S
