# Generated by pormake.
# Topology pyr, (3,6)-cn, num edge types: 1
# Building blocks:
#     Node 0, Type 0, BuildingBlock: MIDCAF_clean_linker_0, # of connection points: 3
#     Node 1, Type 0, BuildingBlock: MIDCAF_clean_linker_0, # of connection points: 3
#     Node 2, Type 0, BuildingBlock: MIDCAF_clean_linker_0, # of connection points: 3
#     Node 3, Type 0, BuildingBlock: MIDCAF_clean_linker_0, # of connection points: 3
#     Node 4, Type 0, BuildingBlock: MIDCAF_clean_linker_0, # of connection points: 3
#     Node 5, Type 0, BuildingBlock: MIDCAF_clean_linker_0, # of connection points: 3
#     Node 6, Type 0, BuildingBlock: MIDCAF_clean_linker_0, # of connection points: 3
#     Node 7, Type 0, BuildingBlock: MIDCAF_clean_linker_0, # of connection points: 3
#     Node 8, Type 1, BuildingBlock: LEVNOQ01_clean_sbu_1, # of connection points: 6
#     Node 9, Type 1, BuildingBlock: LEVNOQ01_clean_sbu_1, # of connection points: 6
#     Node 10, Type 1, BuildingBlock: LEVNOQ01_clean_sbu_1, # of connection points: 6
#     Node 11, Type 1, BuildingBlock: LEVNOQ01_clean_sbu_1, # of connection points: 6
#     Edge 12, Type (0, 1), BuildingBlock: UVAHIK_clean_linker_0, # of connection points: 2
#     Edge 13, Type (0, 1), BuildingBlock: UVAHIK_clean_linker_0, # of connection points: 2
#     Edge 14, Type (0, 1), BuildingBlock: UVAHIK_clean_linker_0, # of connection points: 2
#     Edge 15, Type (0, 1), BuildingBlock: UVAHIK_clean_linker_0, # of connection points: 2
#     Edge 16, Type (0, 1), BuildingBlock: UVAHIK_clean_linker_0, # of connection points: 2
#     Edge 17, Type (0, 1), BuildingBlock: UVAHIK_clean_linker_0, # of connection points: 2
#     Edge 18, Type (0, 1), BuildingBlock: UVAHIK_clean_linker_0, # of connection points: 2
#     Edge 19, Type (0, 1), BuildingBlock: UVAHIK_clean_linker_0, # of connection points: 2
#     Edge 20, Type (0, 1), BuildingBlock: UVAHIK_clean_linker_0, # of connection points: 2
#     Edge 21, Type (0, 1), BuildingBlock: UVAHIK_clean_linker_0, # of connection points: 2
#     Edge 22, Type (0, 1), BuildingBlock: UVAHIK_clean_linker_0, # of connection points: 2
#     Edge 23, Type (0, 1), BuildingBlock: UVAHIK_clean_linker_0, # of connection points: 2
#     Edge 24, Type (0, 1), BuildingBlock: UVAHIK_clean_linker_0, # of connection points: 2
#     Edge 25, Type (0, 1), BuildingBlock: UVAHIK_clean_linker_0, # of connection points: 2
#     Edge 26, Type (0, 1), BuildingBlock: UVAHIK_clean_linker_0, # of connection points: 2
#     Edge 27, Type (0, 1), BuildingBlock: UVAHIK_clean_linker_0, # of connection points: 2
#     Edge 28, Type (0, 1), BuildingBlock: UVAHIK_clean_linker_0, # of connection points: 2
#     Edge 29, Type (0, 1), BuildingBlock: UVAHIK_clean_linker_0, # of connection points: 2
#     Edge 30, Type (0, 1), BuildingBlock: UVAHIK_clean_linker_0, # of connection points: 2
#     Edge 31, Type (0, 1), BuildingBlock: UVAHIK_clean_linker_0, # of connection points: 2
#     Edge 32, Type (0, 1), BuildingBlock: UVAHIK_clean_linker_0, # of connection points: 2
#     Edge 33, Type (0, 1), BuildingBlock: UVAHIK_clean_linker_0, # of connection points: 2
#     Edge 34, Type (0, 1), BuildingBlock: UVAHIK_clean_linker_0, # of connection points: 2
#     Edge 35, Type (0, 1), BuildingBlock: UVAHIK_clean_linker_0, # of connection points: 2
# Relax obj value: 0.035
# Max RMSD: 0.111
# Mean RMSD: 0.046
data_MOF--net-pry--node1-LEVNOQ01_clean_sbu_1--node2-MIDCAF_clean_linker_0--edge1-UVAHIK_clean_linker_0
_symmetry_space_group_name_H-M    P1
_symmetry_Int_Tables_number       1
_symmetry_cell_setting            triclinic
loop_
_symmetry_equiv_pos_as_xyz
'x, y, z'
_cell_length_a     56.238815
_cell_length_b     54.304943
_cell_length_c     54.316706
_cell_angle_alpha  92.098173
_cell_angle_beta   91.445623
_cell_angle_gamma 94.316806
loop_
_atom_site_label
_atom_site_type_symbol
_atom_site_fract_x
_atom_site_fract_y
_atom_site_fract_z
_atom_type_partial_charge
C0 C 0.11291 0.13691 0.21622 0.0
C1 C 0.1162 0.1128 0.22368 0.0
C2 C 0.12713 0.09669 0.20732 0.0
C3 C 0.13505 0.10461 0.18452 0.0
H4 H 0.19135 0.09558 0.13823 0.0
H5 H 0.22487 0.07642 0.12042 0.0
H6 H 0.22044 0.12208 0.0572 0.0
H7 H 0.18726 0.14189 0.07541 0.0
H8 H 0.15186 0.18523 0.0764 0.0
H9 H 0.13637 0.22145 0.05827 0.0
H10 H 0.09184 0.23066 0.12107 0.0
H11 H 0.10751 0.19486 0.1394 0.0
H12 H 0.1179 0.16347 0.18822 0.0
H13 H 0.10492 0.15004 0.22833 0.0
H14 H 0.12948 0.0778 0.21198 0.0
H15 H 0.1435 0.0917 0.17253 0.0
N16 N 0.15817 0.12532 0.14179 0.0
N17 N 0.158 0.15302 0.10967 0.0
N18 N 0.13228 0.15719 0.14269 0.0
C19 C 0.16691 0.1331 0.12006 0.0
C20 C 0.14063 0.16516 0.12082 0.0
C21 C 0.14087 0.13723 0.15323 0.0
C22 C 0.18657 0.12045 0.10837 0.0
C23 C 0.19738 0.10153 0.12047 0.0
C24 C 0.21659 0.09035 0.11014 0.0
C25 C 0.22547 0.09765 0.08732 0.0
C26 C 0.21435 0.11622 0.07497 0.0
C27 C 0.19519 0.12751 0.08538 0.0
C28 C 0.13104 0.18706 0.10947 0.0
C29 C 0.13879 0.19497 0.0864 0.0
C30 C 0.1298 0.21569 0.0759 0.0
C31 C 0.11293 0.22908 0.08824 0.0
C32 C 0.10511 0.22107 0.11121 0.0
C33 C 0.11402 0.20036 0.12167 0.0
C34 C 0.13189 0.12873 0.1772 0.0
C35 C 0.12049 0.14471 0.1932 0.0
C36 C 0.30215 0.92432 0.58467 0.0
C37 C 0.29029 0.90799 0.56694 0.0
C38 C 0.30059 0.88612 0.56004 0.0
C39 C 0.32246 0.88077 0.57056 0.0
H40 H 0.37813 0.83889 0.55866 0.0
H41 H 0.39775 0.80402 0.54177 0.0
H42 H 0.45255 0.81509 0.59913 0.0
H43 H 0.43256 0.84971 0.61656 0.0
H44 H 0.42594 0.88938 0.66054 0.0
H45 H 0.43839 0.90901 0.70031 0.0
H46 H 0.37878 0.95462 0.69674 0.0
H47 H 0.36601 0.93474 0.65732 0.0
H48 H 0.33245 0.93179 0.60908 0.0
H49 H 0.29445 0.9412 0.59052 0.0
H50 H 0.29186 0.87329 0.54633 0.0
H51 H 0.32995 0.86374 0.56483 0.0
N52 N 0.36974 0.87316 0.58979 0.0
N53 N 0.3988 0.87946 0.62158 0.0
N54 N 0.36568 0.90327 0.62105 0.0
C55 C 0.39058 0.86725 0.60036 0.0
C56 C 0.38643 0.89755 0.63204 0.0
C57 C 0.35722 0.89115 0.59995 0.0
C58 C 0.4036 0.84705 0.58918 0.0
C59 C 0.39443 0.83405 0.56769 0.0
C60 C 0.40581 0.81411 0.55781 0.0
C61 C 0.42669 0.80666 0.56911 0.0
C62 C 0.43628 0.8201 0.59018 0.0
C63 C 0.42486 0.84004 0.60012 0.0
C64 C 0.39487 0.91032 0.65568 0.0
C65 C 0.41551 0.90365 0.66816 0.0
C66 C 0.42274 0.91501 0.69094 0.0
C67 C 0.40953 0.93333 0.70181 0.0
C68 C 0.38915 0.9403 0.68912 0.0
C69 C 0.38192 0.92895 0.66638 0.0
C70 C 0.33428 0.89703 0.58844 0.0
C71 C 0.32384 0.91884 0.59541 0.0
C72 C 0.60252 0.29876 0.90221 0.0
C73 C 0.58998 0.28417 0.88353 0.0
C74 C 0.58503 0.29464 0.86094 0.0
C75 C 0.59295 0.31904 0.85681 0.0
H76 H 0.58621 0.37309 0.80792 0.0
H77 H 0.5814 0.38412 0.76522 0.0
H78 H 0.64207 0.4377 0.77434 0.0
H79 H 0.64664 0.42711 0.81728 0.0
H80 H 0.67257 0.43416 0.86802 0.0
H81 H 0.70856 0.45104 0.88974 0.0
H82 H 0.69828 0.39628 0.94504 0.0
H83 H 0.66241 0.3787 0.92275 0.0
H84 H 0.62088 0.33377 0.91251 0.0
H85 H 0.60657 0.29106 0.91981 0.0
H86 H 0.57509 0.28388 0.84637 0.0
H87 H 0.58909 0.32629 0.83896 0.0
N88 N 0.61087 0.36836 0.84776 0.0
N89 N 0.63859 0.40206 0.85621 0.0
N90 N 0.63357 0.37071 0.88466 0.0
C91 C 0.62166 0.39011 0.84097 0.0
C92 C 0.64456 0.39262 0.87817 0.0
C93 C 0.61661 0.35851 0.86951 0.0
C94 C 0.61699 0.39901 0.816 0.0
C95 C 0.59843 0.3874 0.80094 0.0
C96 C 0.59576 0.39358 0.77638 0.0
C97 C 0.61162 0.41146 0.76627 0.0
C98 C 0.62952 0.42388 0.7816 0.0
C99 C 0.63215 0.41776 0.80623 0.0
C100 C 0.66467 0.4048 0.8934 0.0
C101 C 0.67773 0.42578 0.88494 0.0
C102 C 0.69838 0.43565 0.89756 0.0
C103 C 0.70646 0.42496 0.9191 0.0
C104 C 0.6928 0.40471 0.92826 0.0
C105 C 0.67214 0.39472 0.91554 0.0
C106 C 0.6063 0.33348 0.8751 0.0
C107 C 0.61074 0.32317 0.89799 0.0
C108 C 0.80763 0.59435 0.45249 0.0
C109 C 0.79434 0.57331 0.44248 0.0
C110 C 0.80416 0.55896 0.42384 0.0
C111 C 0.82655 0.56621 0.41461 0.0
H112 H 0.86059 0.56878 0.3465 0.0
H113 H 0.86788 0.56054 0.30306 0.0
H114 H 0.93486 0.605 0.31042 0.0
H115 H 0.92742 0.61372 0.35362 0.0
H116 H 0.92954 0.65755 0.39443 0.0
H117 H 0.94647 0.6971 0.41214 0.0
H118 H 0.91032 0.68291 0.47991 0.0
H119 H 0.89326 0.64329 0.46233 0.0
H120 H 0.83958 0.61802 0.45147 0.0
H121 H 0.80047 0.6056 0.46699 0.0
H122 H 0.79415 0.54267 0.41582 0.0
H123 H 0.83341 0.55523 0.39973 0.0
N124 N 0.86817 0.58899 0.39029 0.0
N125 N 0.90173 0.61749 0.39173 0.0
N126 N 0.87642 0.61522 0.42522 0.0
C127 C 0.88795 0.59915 0.37944 0.0
C128 C 0.89618 0.62554 0.41468 0.0
C129 C 0.86236 0.5969 0.41327 0.0
C130 C 0.8933 0.5921 0.35361 0.0
C131 C 0.87697 0.57667 0.33894 0.0
C132 C 0.88118 0.57187 0.31401 0.0
C133 C 0.90184 0.58232 0.30317 0.0
C134 C 0.91851 0.59709 0.31803 0.0
C135 C 0.9143 0.60194 0.3429 0.0
C136 C 0.90969 0.64739 0.4268 0.0
C137 C 0.92552 0.66256 0.41328 0.0
C138 C 0.93519 0.68526 0.42337 0.0
C139 C 0.92948 0.69314 0.44728 0.0
C140 C 0.91508 0.67724 0.46146 0.0
C141 C 0.90518 0.65462 0.45129 0.0
C142 C 0.83963 0.58771 0.4242 0.0
C143 C 0.83009 0.60136 0.44361 0.0
C144 C 0.80174 0.93081 0.90109 0.0
C145 C 0.78648 0.91986 0.9184 0.0
C146 C 0.79119 0.89638 0.92671 0.0
C147 C 0.81033 0.88405 0.91761 0.0
H148 H 0.8562 0.82808 0.93255 0.0
H149 H 0.87148 0.79251 0.95209 0.0
H150 H 0.92129 0.78537 0.89348 0.0
H151 H 0.90579 0.82045 0.87369 0.0
H152 H 0.89986 0.85147 0.82493 0.0
H153 H 0.91417 0.86438 0.78491 0.0
H154 H 0.87636 0.93046 0.79214 0.0
H155 H 0.86229 0.91787 0.83203 0.0
H156 H 0.8318 0.92735 0.87826 0.0
H157 H 0.79914 0.94907 0.89465 0.0
H158 H 0.77971 0.88714 0.93977 0.0
H159 H 0.81314 0.86583 0.92408 0.0
N160 N 0.85279 0.86132 0.89972 0.0
N161 N 0.87899 0.85606 0.86724 0.0
N162 N 0.8535 0.88823 0.86691 0.0
C163 C 0.87023 0.84873 0.88918 0.0
C164 C 0.8707 0.8758 0.85597 0.0
C165 C 0.84439 0.88116 0.88868 0.0
C166 C 0.87963 0.82719 0.9014 0.0
C167 C 0.8704 0.81893 0.92377 0.0
C168 C 0.87926 0.79858 0.9351 0.0
C169 C 0.89757 0.78593 0.92434 0.0
C170 C 0.9069 0.79434 0.9021 0.0
C171 C 0.89806 0.81463 0.89079 0.0
C172 C 0.87991 0.88361 0.83181 0.0
C173 C 0.89467 0.8688 0.81804 0.0
C174 C 0.90275 0.8761 0.79502 0.0
C175 C 0.89644 0.89846 0.78535 0.0
C176 C 0.8818 0.91328 0.79917 0.0
C177 C 0.87361 0.90594 0.82204 0.0
C178 C 0.82507 0.89474 0.89974 0.0
C179 C 0.82065 0.91837 0.89178 0.0
C180 C 0.61954 0.07837 0.31901 0.0
C181 C 0.5972 0.08398 0.30944 0.0
C182 C 0.58434 0.10111 0.32265 0.0
C183 C 0.59375 0.11258 0.34465 0.0
H184 H 0.59185 0.17733 0.38762 0.0
H185 H 0.57532 0.21429 0.4045 0.0
H186 H 0.61935 0.21132 0.47041 0.0
H187 H 0.6361 0.1742 0.45356 0.0
H188 H 0.68472 0.14526 0.44683 0.0
H189 H 0.72452 0.13522 0.4603 0.0
H190 H 0.72322 0.07764 0.40321 0.0
H191 H 0.68382 0.08767 0.38954 0.0
H192 H 0.64623 0.08499 0.34761 0.0
H193 H 0.6302 0.06565 0.30919 0.0
H194 H 0.56693 0.10564 0.31607 0.0
H195 H 0.58342 0.12579 0.35421 0.0
N196 N 0.61627 0.13899 0.38773 0.0
N197 N 0.64707 0.14378 0.41792 0.0
N198 N 0.64743 0.11275 0.38682 0.0
C199 C 0.6263 0.15107 0.40826 0.0
C200 C 0.65774 0.12459 0.40729 0.0
C201 C 0.62669 0.11973 0.37695 0.0
C202 C 0.61539 0.17281 0.41917 0.0
C203 C 0.59796 0.18438 0.40578 0.0
C204 C 0.58857 0.20566 0.41537 0.0
C205 C 0.59618 0.21573 0.43868 0.0
C206 C 0.61313 0.20387 0.45242 0.0
C207 C 0.62277 0.1827 0.44269 0.0
C208 C 0.68108 0.11746 0.41691 0.0
C209 C 0.69285 0.13035 0.43723 0.0
C210 C 0.71561 0.12456 0.44504 0.0
C211 C 0.72709 0.10585 0.43262 0.0
C212 C 0.71502 0.09248 0.41285 0.0
C213 C 0.69233 0.09819 0.4051 0.0
C214 C 0.61619 0.10707 0.35406 0.0
C215 C 0.62885 0.08966 0.34105 0.0
C216 C 0.30876 0.59337 0.10892 0.0
C217 C 0.29342 0.60732 0.09526 0.0
C218 C 0.30032 0.63235 0.09166 0.0
C219 C 0.32144 0.64346 0.10259 0.0
H220 H 0.36094 0.71095 0.11522 0.0
H221 H 0.3741 0.7544 0.11069 0.0
H222 H 0.43884 0.74444 0.15229 0.0
H223 H 0.42566 0.70099 0.15714 0.0
H224 H 0.41997 0.65737 0.19864 0.0
H225 H 0.42849 0.64163 0.23915 0.0
H226 H 0.36658 0.5895 0.23019 0.0
H227 H 0.35878 0.60433 0.18957 0.0
H228 H 0.34069 0.59333 0.13105 0.0
H229 H 0.30433 0.5739 0.11153 0.0
H230 H 0.28888 0.6437 0.08138 0.0
H231 H 0.32575 0.663 0.10028 0.0
N232 N 0.36558 0.66514 0.12679 0.0
N233 N 0.3914 0.66571 0.16151 0.0
N234 N 0.36462 0.6313 0.15239 0.0
C235 C 0.38331 0.6769 0.14131 0.0
C236 C 0.38206 0.64293 0.16722 0.0
C237 C 0.35639 0.64213 0.13208 0.0
C238 C 0.39222 0.70256 0.13663 0.0
C239 C 0.37808 0.71794 0.12322 0.0
C240 C 0.38548 0.74283 0.1208 0.0
C241 C 0.40734 0.75273 0.13137 0.0
C242 C 0.42189 0.73721 0.14402 0.0
C243 C 0.41431 0.7124 0.14681 0.0
C244 C 0.38869 0.63214 0.19083 0.0
C245 C 0.40837 0.64234 0.20524 0.0
C246 C 0.41312 0.63347 0.22857 0.0
C247 C 0.39816 0.61437 0.23808 0.0
C248 C 0.37877 0.60392 0.2234 0.0
C249 C 0.37421 0.61254 0.20003 0.0
C250 C 0.33597 0.62981 0.11751 0.0
C251 C 0.3297 0.6045 0.12001 0.0
C252 C 0.07399 0.32631 0.55238 0.0
C253 C 0.05447 0.31434 0.5639 0.0
C254 C 0.04692 0.32452 0.5863 0.0
C255 C 0.05917 0.34558 0.59739 0.0
H256 H 0.06403 0.38819 0.66209 0.0
H257 H 0.05654 0.39935 0.70488 0.0
H258 H 0.12284 0.44518 0.70952 0.0
H259 H 0.13003 0.43466 0.66665 0.0
H260 H 0.15833 0.44479 0.61871 0.0
H261 H 0.19632 0.4595 0.60213 0.0
H262 H 0.18433 0.40784 0.5399 0.0
H263 H 0.146 0.39339 0.55616 0.0
H264 H 0.10155 0.35566 0.55428 0.0
H265 H 0.08048 0.31884 0.53527 0.0
H266 H 0.03171 0.316 0.59548 0.0
H267 H 0.05313 0.35256 0.6149 0.0
N268 N 0.08855 0.38531 0.62247 0.0
N269 N 0.12182 0.41408 0.62368 0.0
N270 N 0.11305 0.38878 0.58827 0.0
C271 C 0.10254 0.40342 0.63488 0.0
C272 C 0.12717 0.40696 0.60036 0.0
C273 C 0.09365 0.37792 0.59913 0.0
C274 C 0.09762 0.41054 0.66081 0.0
C275 C 0.077 0.40071 0.67218 0.0
C276 C 0.07278 0.40696 0.69682 0.0
C277 C 0.08911 0.42312 0.71071 0.0
C278 C 0.1097 0.43296 0.69931 0.0
C279 C 0.11387 0.42682 0.67468 0.0
C280 C 0.14917 0.41763 0.58898 0.0
C281 C 0.16361 0.43668 0.60137 0.0
C282 C 0.18548 0.44508 0.5919 0.0
C283 C 0.19352 0.4346 0.56986 0.0
C284 C 0.17862 0.41639 0.55685 0.0
C285 C 0.15667 0.408 0.56629 0.0
C286 C 0.07926 0.357 0.58632 0.0
C287 C 0.0862 0.34739 0.56341 0.0
O288 O 0.01313 0.01352 0.57387 0.0
Mg289 Mg 0.0378 0.03071 0.55032 0.0
O290 O 0.99282 0.99201 0.54372 0.0
Mg291 Mg 0.0069 0.00627 0.50559 0.0
O292 O 0.02079 0.045 0.52112 0.0
O293 O 0.04163 0.06843 0.54996 0.0
O294 O 0.02277 0.02454 0.46888 0.0
O295 O 0.97053 0.02305 0.50015 0.0
Mg296 Mg 0.99388 0.98887 0.46422 0.0
O297 O 0.99133 0.96511 0.49244 0.0
O298 O 0.02619 0.99157 0.44572 0.0
O299 O 0.96903 0.0163 0.46012 0.0
O300 O 0.97638 0.9565 0.45407 0.0
C301 C 0.06362 0.99397 0.52154 0.0
C302 C 0.99664 0.99748 0.56668 0.0
C303 C 0.02866 0.0667 0.52995 0.0
C304 C 0.03177 0.01415 0.45021 0.0
C305 C 0.96077 0.02619 0.47923 0.0
C306 C 0.98045 0.94968 0.47614 0.0
O307 O 0.0662 0.0112 0.53794 0.0
O308 O 0.0438 0.98894 0.50978 0.0
O309 O 0.46985 0.05753 0.03416 0.0
Mg310 Mg 0.50692 0.06744 0.03137 0.0
O311 O 0.46837 0.02023 0.01532 0.0
Mg312 Mg 0.50755 0.01275 0.00447 0.0
O313 O 0.51691 0.05328 0.99856 0.0
O314 O 0.52052 0.09353 0.00736 0.0
O315 O 0.54749 0.00641 0.99417 0.0
O316 O 0.49433 0.00958 0.96299 0.0
Mg317 Mg 0.51482 0.95788 0.98092 0.0
O318 O 0.4974 0.97217 0.00977 0.0
O319 O 0.5515 0.96624 0.98784 0.0
O320 O 0.50043 0.97173 0.94831 0.0
O321 O 0.49578 0.93187 0.00122 0.0
C322 C 0.52974 0.03134 0.06214 0.0
C323 C 0.45821 0.03766 0.0264 0.0
C324 C 0.5232 0.07535 0.99202 0.0
C325 C 0.5605 0.9883 0.99062 0.0
C326 C 0.49335 0.99312 0.94544 0.0
C327 C 0.49004 0.95002 0.01526 0.0
O328 O 0.52914 0.05422 0.05862 0.0
O329 O 0.52092 0.01491 0.04627 0.0
O330 O 0.47749 0.55262 0.55374 0.0
Mg331 Mg 0.4778 0.5161 0.56516 0.0
O332 O 0.4871 0.54668 0.5146 0.0
Mg333 Mg 0.49422 0.50458 0.50909 0.0
O334 O 0.50588 0.50183 0.54899 0.0
O335 O 0.50396 0.50607 0.58958 0.0
O336 O 0.50153 0.46261 0.50471 0.0
O337 O 0.53433 0.51663 0.50215 0.0
Mg338 Mg 0.50895 0.48888 0.454 0.0
O339 O 0.48278 0.50795 0.46889 0.0
O340 O 0.50494 0.4521 0.46509 0.0
O341 O 0.54189 0.50918 0.46264 0.0
O342 O 0.48544 0.50132 0.42847 0.0
C343 C 0.4404 0.48696 0.53375 0.0
C344 C 0.48141 0.56087 0.53252 0.0
C345 C 0.51524 0.499 0.57053 0.0
C346 C 0.50376 0.44638 0.48746 0.0
C347 C 0.54841 0.51767 0.48403 0.0
C348 C 0.47482 0.51103 0.44678 0.0
O349 O 0.44738 0.4925 0.55578 0.0
O350 O 0.45386 0.49175 0.5156 0.0
O351 O 0.99286 0.44947 0.03767 0.0
Mg352 Mg 0.00593 0.48517 0.04942 0.0
O353 O 0.01374 0.46547 0.00841 0.0
Mg354 Mg 0.00076 0.50704 0.00975 0.0
O355 O 0.98283 0.51225 0.04937 0.0
O356 O 0.99208 0.49066 0.08249 0.0
O357 O 0.98739 0.54868 0.01198 0.0
O358 O 0.96368 0.49141 0.9956 0.0
Mg359 Mg 0.99794 0.53016 0.97411 0.0
O360 O 0.01847 0.50127 0.96963 0.0
O361 O 0.01395 0.56449 0.98796 0.0
O362 O 0.95978 0.5229 0.97213 0.0
O363 O 0.00971 0.52714 0.93981 0.0
C364 C 0.05149 0.51374 0.03941 0.0
C365 C 0.00539 0.44632 0.01919 0.0
C366 C 0.98014 0.50716 0.07248 0.0
C367 C 0.99839 0.56787 0.00365 0.0
C368 C 0.95067 0.50364 0.98184 0.0
C369 C 0.02051 0.50854 0.94711 0.0
O370 O 0.04327 0.49586 0.0518 0.0
O371 O 0.0381 0.52294 0.0235 0.0
C372 C 0.08816 0.11314 0.25941 0.0
C373 C 0.10858 0.10452 0.24844 0.0
C374 C 0.08111 0.10523 0.28257 0.0
C375 C 0.08398 0.05344 0.32289 0.0
H376 H 0.07046 0.09947 0.37606 0.0
C377 C 0.06248 0.01734 0.4181 0.0
C378 C 0.0449 0.0284 0.43156 0.0
C379 C 0.07206 0.02851 0.39744 0.0
C380 C 0.07383 0.08629 0.36136 0.0
H381 H 0.13786 0.08118 0.254 0.0
H382 H 0.12491 0.06672 0.29373 0.0
H383 H 0.08246 0.11506 0.33621 0.0
H384 H 0.02406 0.06024 0.43457 0.0
H385 H 0.03998 0.0794 0.39784 0.0
H386 H 0.0745 0.02461 0.34719 0.0
C387 C 0.11444 0.07963 0.28431 0.0
C388 C 0.0808 0.09528 0.33855 0.0
C389 C 0.12173 0.08782 0.2614 0.0
C390 C 0.03781 0.05146 0.42463 0.0
C391 C 0.04699 0.06242 0.40353 0.0
C392 C 0.07663 0.04443 0.34544 0.0
C393 C 0.09406 0.08823 0.29513 0.0
C394 C 0.08613 0.07893 0.31918 0.0
C395 C 0.06378 0.05073 0.38922 0.0
C396 C 0.07167 0.06069 0.36516 0.0
H397 H 0.0773 0.12566 0.24995 0.0
H398 H 0.06518 0.11196 0.2904 0.0
H399 H 0.08762 0.0404 0.30814 0.0
H400 H 0.06837 0.99962 0.42319 0.0
H401 H 0.08556 0.01931 0.38757 0.0
C402 C 0.44083 0.95077 0.73294 0.0
C403 C 0.41667 0.94479 0.72648 0.0
C404 C 0.44751 0.96097 0.75633 0.0
C405 C 0.4258 0.96607 0.81988 0.0
H406 H 0.48016 0.01417 0.82893 0.0
C407 C 0.45975 0.00155 0.91687 0.0
C408 C 0.48404 0.99836 0.92083 0.0
C409 C 0.44991 0.00028 0.89284 0.0
C410 C 0.46488 0.00082 0.82667 0.0
H411 H 0.38058 0.94492 0.73968 0.0
H412 H 0.39219 0.96322 0.78022 0.0
H413 H 0.46589 0.0011 0.78732 0.0
H414 H 0.51737 0.99261 0.90327 0.0
H415 H 0.50049 0.99117 0.86139 0.0
H416 H 0.42508 0.96552 0.85926 0.0
C417 C 0.40602 0.95978 0.76729 0.0
C418 C 0.45679 0.99319 0.80284 0.0
C419 C 0.39934 0.94954 0.74392 0.0
C420 C 0.49863 0.99545 0.90054 0.0
C421 C 0.48894 0.99463 0.8766 0.0
C422 C 0.4338 0.97382 0.8437 0.0
C423 C 0.4302 0.9655 0.77386 0.0
C424 C 0.43746 0.97532 0.79914 0.0
C425 C 0.46434 0.99617 0.8725 0.0
C426 C 0.45374 0.99088 0.84735 0.0
H427 H 0.45462 0.94761 0.71989 0.0
H428 H 0.46632 0.96481 0.76082 0.0
H429 H 0.41107 0.95205 0.81778 0.0
H430 H 0.44814 0.00337 0.93234 0.0
H431 H 0.4309 0.00162 0.8902 0.0
C432 C 0.60491 0.39709 0.72205 0.0
C433 C 0.60985 0.41657 0.73966 0.0
C434 C 0.60261 0.40186 0.69706 0.0
C435 C 0.61429 0.45006 0.65129 0.0
H436 H 0.55535 0.42139 0.62016 0.0
C437 C 0.55522 0.50124 0.59 0.0
C438 C 0.53812 0.48835 0.57426 0.0
C439 C 0.57268 0.48872 0.60178 0.0
C440 C 0.57233 0.42901 0.62805 0.0
H441 H 0.6166 0.4563 0.74475 0.0
H442 H 0.61251 0.46463 0.70113 0.0
H443 H 0.56865 0.40631 0.65923 0.0
H444 H 0.52709 0.4531 0.55611 0.0
H445 H 0.55782 0.43089 0.57676 0.0
H446 H 0.6172 0.47374 0.62068 0.0
C447 C 0.61081 0.44562 0.70663 0.0
C448 C 0.57988 0.42043 0.65062 0.0
C449 C 0.61304 0.44087 0.73164 0.0
C450 C 0.54032 0.46336 0.56808 0.0
C451 C 0.55773 0.45067 0.58009 0.0
C452 C 0.6068 0.45857 0.62861 0.0
C453 C 0.60532 0.42619 0.6891 0.0
C454 C 0.60031 0.43167 0.66302 0.0
C455 C 0.57305 0.46296 0.59829 0.0
C456 C 0.58507 0.44901 0.61738 0.0
H457 H 0.60283 0.37811 0.72759 0.0
H458 H 0.59853 0.38651 0.68396 0.0
H459 H 0.63041 0.45869 0.6602 0.0
H460 H 0.55368 0.52054 0.59503 0.0
H461 H 0.58403 0.49883 0.61569 0.0
C462 C 0.9154 0.59769 0.26234 0.0
C463 C 0.90585 0.57825 0.2764 0.0
C464 C 0.91941 0.59388 0.23724 0.0
C465 C 0.90317 0.55099 0.18374 0.0
H466 H 0.96407 0.57591 0.159 0.0
C467 C 0.9489 0.50545 0.10353 0.0
C468 C 0.96346 0.51975 0.08806 0.0
C469 C 0.93713 0.51658 0.1227 0.0
C470 C 0.94673 0.56932 0.16539 0.0
H471 H 0.8931 0.53952 0.27501 0.0
H472 H 0.90012 0.53285 0.23127 0.0
H473 H 0.9534 0.58729 0.20088 0.0
H474 H 0.97624 0.55692 0.07943 0.0
H475 H 0.9557 0.5767 0.11348 0.0
H476 H 0.89694 0.53221 0.14855 0.0
C477 C 0.90415 0.55118 0.23957 0.0
C478 C 0.94065 0.57576 0.18946 0.0
C479 C 0.90017 0.55498 0.26468 0.0
C480 C 0.96489 0.54559 0.09104 0.0
C481 C 0.95335 0.55681 0.11061 0.0
C482 C 0.90925 0.54455 0.15969 0.0
C483 C 0.91389 0.57056 0.22557 0.0
C484 C 0.91909 0.5661 0.19914 0.0
C485 C 0.93995 0.5423 0.12709 0.0
C486 C 0.9314 0.55306 0.15049 0.0
H487 H 0.91958 0.61598 0.27067 0.0
H488 H 0.92668 0.60926 0.22693 0.0
H489 H 0.8862 0.54367 0.19046 0.0
H490 H 0.94766 0.48545 0.10159 0.0
H491 H 0.92721 0.50481 0.13515 0.0
C492 C 0.26425 0.10118 0.06499 0.0
C493 C 0.24675 0.08651 0.07699 0.0
C494 C 0.28491 0.09113 0.05663 0.0
C495 C 0.32388 0.04205 0.06987 0.0
H496 H 0.35306 0.06027 0.00851 0.0
C497 C 0.41558 0.02654 0.01262 0.0
C498 C 0.43241 0.03518 0.03109 0.0
C499 C 0.3911 0.02801 0.01643 0.0
C500 C 0.34496 0.0547 0.02552 0.0
H501 H 0.23699 0.04935 0.08859 0.0
H502 H 0.27328 0.03202 0.07446 0.0
H503 H 0.31316 0.07274 0.01757 0.0
H504 H 0.43701 0.05074 0.06834 0.0
H505 H 0.39454 0.05254 0.07526 0.0
H506 H 0.35605 0.02485 0.07824 0.0
C507 C 0.27101 0.05137 0.07169 0.0
C508 C 0.32224 0.06205 0.03082 0.0
C509 C 0.25025 0.06136 0.07988 0.0
C510 C 0.42438 0.04399 0.05379 0.0
C511 C 0.40006 0.04492 0.05779 0.0
C512 C 0.34668 0.03497 0.0647 0.0
C513 C 0.28869 0.0662 0.06019 0.0
C514 C 0.31164 0.05621 0.05328 0.0
C515 C 0.38316 0.03751 0.039 0.0
C516 C 0.35766 0.04163 0.04269 0.0
H517 H 0.26243 0.12068 0.06276 0.0
H518 H 0.29835 0.10315 0.04818 0.0
H519 H 0.3163 0.03739 0.08739 0.0
H520 H 0.42137 0.01984 0.99489 0.0
H521 H 0.37841 0.02214 0.00165 0.0
C522 C 0.26429 0.93768 0.54766 0.0
C523 C 0.26714 0.91387 0.55591 0.0
C524 C 0.24208 0.944 0.53907 0.0
C525 C 0.18115 0.91927 0.51843 0.0
H526 H 0.16501 0.98365 0.54303 0.0
C527 C 0.08563 0.95565 0.51918 0.0
C528 C 0.08476 0.981 0.51543 0.0
C529 C 0.10765 0.94508 0.51938 0.0
C530 C 0.16932 0.96576 0.53566 0.0
H531 H 0.24927 0.8777 0.56083 0.0
H532 H 0.21014 0.88891 0.54624 0.0
H533 H 0.20394 0.96985 0.55282 0.0
H534 H 0.10527 0.01472 0.50675 0.0
H535 H 0.1434 0.99626 0.50623 0.0
H536 H 0.1459 0.91522 0.50177 0.0
C537 C 0.22518 0.90257 0.54607 0.0
C538 C 0.1917 0.95784 0.54127 0.0
C539 C 0.24754 0.89618 0.5545 0.0
C540 C 0.10564 0.99514 0.50981 0.0
C541 C 0.12743 0.98461 0.50969 0.0
C542 C 0.15853 0.92723 0.51286 0.0
C543 C 0.22211 0.92674 0.53879 0.0
C544 C 0.19803 0.93464 0.53255 0.0
C545 C 0.12886 0.95982 0.51573 0.0
C546 C 0.15255 0.95071 0.52122 0.0
H547 H 0.27923 0.95152 0.5481 0.0
H548 H 0.24047 0.96259 0.53301 0.0
H549 H 0.18551 0.90128 0.51143 0.0
H550 H 0.06966 0.94452 0.52375 0.0
H551 H 0.10824 0.92593 0.52409 0.0
C552 C 0.73762 0.45918 0.93134 0.0
C553 C 0.72992 0.4339 0.93076 0.0
C554 C 0.76082 0.46719 0.93928 0.0
C555 C 0.81362 0.45036 0.97418 0.0
H556 H 0.84849 0.49226 0.92896 0.0
C557 C 0.91586 0.47207 0.98343 0.0
C558 C 0.92514 0.49576 0.97736 0.0
C559 C 0.89173 0.46471 0.97892 0.0
C560 C 0.83898 0.48092 0.94205 0.0
H561 H 0.74044 0.39738 0.93907 0.0
H562 H 0.78074 0.41154 0.95349 0.0
H563 H 0.80656 0.4798 0.92041 0.0
H564 H 0.91629 0.53051 0.96237 0.0
H565 H 0.87421 0.51801 0.95522 0.0
H566 H 0.84593 0.45171 0.99603 0.0
C567 C 0.76875 0.42508 0.94773 0.0
C568 C 0.81494 0.47374 0.93708 0.0
C569 C 0.74561 0.41701 0.93955 0.0
C570 C 0.90975 0.51202 0.96701 0.0
C571 C 0.88561 0.50478 0.96278 0.0
C572 C 0.83765 0.45778 0.97932 0.0
C573 C 0.77675 0.45017 0.94708 0.0
C574 C 0.80203 0.45836 0.95305 0.0
C575 C 0.87629 0.48097 0.9685 0.0
C576 C 0.85066 0.47312 0.96327 0.0
H577 H 0.72586 0.47276 0.92521 0.0
H578 H 0.76643 0.48671 0.93898 0.0
H579 H 0.80402 0.43859 0.98686 0.0
H580 H 0.92731 0.45909 0.99136 0.0
H581 H 0.88529 0.44611 0.98323 0.0
C582 C 0.75322 0.58551 0.4498 0.0
C583 C 0.76971 0.56742 0.45058 0.0
C584 C 0.72994 0.5804 0.45746 0.0
C585 C 0.68583 0.52816 0.47072 0.0
H586 H 0.65103 0.58167 0.49738 0.0
C587 C 0.58825 0.51715 0.50513 0.0
C588 C 0.57337 0.52745 0.48776 0.0
C589 C 0.61297 0.52275 0.50506 0.0
C590 C 0.66068 0.56655 0.49021 0.0
H591 H 0.77507 0.52987 0.4601 0.0
H592 H 0.73458 0.52106 0.47457 0.0
H593 H 0.69333 0.58916 0.48894 0.0
H594 H 0.57211 0.55246 0.45771 0.0
H595 H 0.61523 0.56328 0.45851 0.0
H596 H 0.65294 0.50561 0.47252 0.0
C597 C 0.73933 0.53905 0.46739 0.0
C598 C 0.68483 0.57083 0.48504 0.0
C599 C 0.76256 0.54406 0.45923 0.0
C600 C 0.58329 0.5445 0.47138 0.0
C601 C 0.60785 0.55063 0.47181 0.0
C602 C 0.66181 0.52379 0.47643 0.0
C603 C 0.72265 0.55717 0.46659 0.0
C604 C 0.69761 0.55188 0.47456 0.0
C605 C 0.62291 0.53925 0.48814 0.0
C606 C 0.64898 0.54308 0.48571 0.0
H607 H 0.75826 0.60357 0.44287 0.0
H608 H 0.71759 0.59463 0.45579 0.0
H609 H 0.69481 0.51315 0.46238 0.0
H610 H 0.58093 0.50366 0.51765 0.0
H611 H 0.62438 0.51372 0.51771 0.0
C612 C 0.09754 0.25177 0.05205 0.0
C613 C 0.10346 0.25134 0.07737 0.0
C614 C 0.08753 0.27231 0.04225 0.0
C615 C 0.05323 0.32462 0.06147 0.0
H616 H 0.07032 0.35143 0.99854 0.0
C617 C 0.03841 0.4194 0.00873 0.0
C618 C 0.01457 0.4217 0.01508 0.0
C619 C 0.04894 0.39706 0.01203 0.0
C620 C 0.06538 0.34414 0.01614 0.0
H621 H 0.10458 0.27278 0.11191 0.0
H622 H 0.08712 0.30838 0.09492 0.0
H623 H 0.09048 0.31626 0.01387 0.0
H624 H 0.98245 0.40186 0.02738 0.0
H625 H 0.00047 0.36291 0.03237 0.0
H626 H 0.02857 0.35253 0.06418 0.0
C627 C 0.08974 0.29266 0.0827 0.0
C628 C 0.0768 0.3239 0.02485 0.0
C629 C 0.09974 0.27221 0.09246 0.0
C630 C 0.00091 0.40068 0.02251 0.0
C631 C 0.01132 0.37843 0.02562 0.0
C632 C 0.04179 0.34463 0.05276 0.0
C633 C 0.08317 0.29285 0.05755 0.0
C634 C 0.07096 0.31403 0.04774 0.0
C635 C 0.03574 0.37667 0.02162 0.0
C636 C 0.04767 0.3547 0.03 0.0
H637 H 0.09999 0.23595 0.03992 0.0
H638 H 0.08251 0.27177 0.02285 0.0
H639 H 0.04805 0.31733 0.07901 0.0
H640 H 0.04943 0.43535 0.00317 0.0
H641 H 0.06779 0.39633 0.00875 0.0
C642 C 0.57052 0.25099 0.90862 0.0
C643 C 0.58245 0.25792 0.88729 0.0
C644 C 0.56321 0.22623 0.91196 0.0
C645 C 0.57762 0.16373 0.89652 0.0
H646 H 0.51496 0.14667 0.92192 0.0
C647 C 0.51649 0.08276 0.94792 0.0
C648 C 0.53253 0.08073 0.96777 0.0
C649 C 0.52295 0.09785 0.92848 0.0
C650 C 0.53231 0.15085 0.91422 0.0
H651 H 0.59651 0.24449 0.85293 0.0
H652 H 0.58404 0.20099 0.85904 0.0
H653 H 0.52468 0.18815 0.90784 0.0
H654 H 0.56842 0.09018 0.98196 0.0
H655 H 0.57996 0.11607 0.94799 0.0
H656 H 0.58569 0.12677 0.90428 0.0
C657 C 0.58013 0.21478 0.87296 0.0
C658 C 0.53796 0.17474 0.9065 0.0
C659 C 0.58714 0.23962 0.86945 0.0
C660 C 0.55594 0.0913 0.96658 0.0
C661 C 0.56249 0.10616 0.94709 0.0
C662 C 0.57205 0.13983 0.9045 0.0
C663 C 0.56799 0.2079 0.89419 0.0
C664 C 0.56092 0.18164 0.89843 0.0
C665 C 0.54552 0.11099 0.92879 0.0
C666 C 0.54959 0.13343 0.91425 0.0
H667 H 0.56662 0.26476 0.92258 0.0
H668 H 0.55416 0.22134 0.92867 0.0
H669 H 0.59546 0.16862 0.89033 0.0
H670 H 0.49823 0.07496 0.94874 0.0
H671 H 0.50961 0.10105 0.91445 0.0
C672 C 0.94578 0.72432 0.48012 0.0
C673 C 0.93612 0.7189 0.45621 0.0
C674 C 0.9504 0.74892 0.48871 0.0
C675 C 0.92932 0.80957 0.48105 0.0
H676 H 0.99305 0.83851 0.498 0.0
C677 C 0.9563 0.91023 0.46626 0.0
C678 C 0.97292 0.92393 0.48207 0.0
C679 C 0.95049 0.88528 0.4697 0.0
C680 C 0.97504 0.83063 0.49398 0.0
H681 H 0.92358 0.73481 0.4227 0.0
H682 H 0.93129 0.77756 0.4378 0.0
H683 H 0.98606 0.79359 0.49138 0.0
H684 H 0.99588 0.92235 0.51454 0.0
H685 H 0.98567 0.87817 0.52058 0.0
H686 H 0.91822 0.84632 0.48299 0.0
C687 C 0.93549 0.76286 0.44978 0.0
C688 C 0.9711 0.80497 0.4901 0.0
C689 C 0.9313 0.73843 0.44107 0.0
C690 C 0.98301 0.91224 0.50206 0.0
C691 C 0.97727 0.88698 0.50543 0.0
C692 C 0.93317 0.83505 0.4852 0.0
C693 C 0.94488 0.76833 0.4737 0.0
C694 C 0.94839 0.79443 0.48261 0.0
C695 C 0.9611 0.8732 0.48907 0.0
C696 C 0.95626 0.84601 0.49058 0.0
H697 H 0.94963 0.70955 0.49213 0.0
H698 H 0.95769 0.75278 0.50722 0.0
H699 H 0.91158 0.80176 0.47563 0.0
H700 H 0.94807 0.91865 0.45074 0.0
H701 H 0.93831 0.87524 0.45647 0.0
C702 C 0.44608 0.76745 0.57648 0.0
C703 C 0.43756 0.78411 0.5598 0.0
C704 C 0.45499 0.74551 0.56802 0.0
C705 C 0.4506 0.70034 0.51628 0.0
H706 H 0.50339 0.67471 0.55194 0.0
C707 C 0.48103 0.59867 0.50643 0.0
C708 C 0.47959 0.58772 0.52951 0.0
C709 C 0.47916 0.62424 0.50464 0.0
C710 C 0.48887 0.68178 0.54152 0.0
H711 H 0.43229 0.79096 0.52099 0.0
H712 H 0.4477 0.75229 0.50619 0.0
H713 H 0.49452 0.71755 0.55934 0.0
H714 H 0.47486 0.59518 0.56867 0.0
H715 H 0.47193 0.63901 0.56543 0.0
H716 H 0.44442 0.66393 0.49936 0.0
C717 C 0.44733 0.7563 0.52586 0.0
C718 C 0.48367 0.70621 0.54589 0.0
C719 C 0.43847 0.77839 0.53435 0.0
C720 C 0.4762 0.60279 0.55056 0.0
C721 C 0.47463 0.62804 0.5488 0.0
C722 C 0.45589 0.67578 0.51185 0.0
C723 C 0.45561 0.7396 0.54263 0.0
C724 C 0.46385 0.71544 0.53416 0.0
C725 C 0.47625 0.63908 0.52595 0.0
C726 C 0.47445 0.66607 0.52526 0.0
H727 H 0.44515 0.77094 0.59618 0.0
H728 H 0.46072 0.73278 0.58146 0.0
H729 H 0.43519 0.70694 0.50698 0.0
H730 H 0.48352 0.58755 0.48987 0.0
H731 H 0.4803 0.63243 0.48679 0.0
C732 C 0.90484 0.88975 0.7406 0.0
C733 C 0.90503 0.90652 0.76099 0.0
C734 C 0.91205 0.89775 0.71751 0.0
C735 C 0.92124 0.955 0.68232 0.0
H736 H 0.96077 0.91617 0.64098 0.0
C737 C 0.98037 0.99782 0.60887 0.0
C738 C 0.9818 0.98557 0.58576 0.0
C739 C 0.96789 0.98665 0.62783 0.0
C740 C 0.94938 0.92701 0.65212 0.0
H741 H 0.91384 0.94461 0.77328 0.0
H742 H 0.92664 0.95847 0.73333 0.0
H743 H 0.94566 0.89941 0.6793 0.0
H744 H 0.97095 0.95196 0.56436 0.0
H745 H 0.94919 0.93205 0.59803 0.0
H746 H 0.92562 0.98291 0.65565 0.0
C747 C 0.9203 0.93927 0.73489 0.0
C748 C 0.94075 0.91745 0.67411 0.0
C749 C 0.91303 0.93131 0.75787 0.0
C750 C 0.97006 0.96188 0.58193 0.0
C751 C 0.95777 0.95046 0.60121 0.0
C752 C 0.92994 0.96456 0.66051 0.0
C753 C 0.91967 0.92269 0.71431 0.0
C754 C 0.92705 0.93161 0.68979 0.0
C755 C 0.95662 0.96279 0.62437 0.0
C756 C 0.94458 0.95095 0.64545 0.0
H757 H 0.89858 0.87056 0.74235 0.0
H758 H 0.91118 0.88451 0.70206 0.0
H759 H 0.91021 0.96616 0.69355 0.0
H760 H 0.98911 0.01611 0.61244 0.0
H761 H 0.96761 0.99652 0.64551 0.0
C762 C 0.5754 0.08636 0.26861 0.0
C763 C 0.58783 0.07254 0.28541 0.0
C764 C 0.56783 0.07609 0.2455 0.0
C765 C 0.5836 0.03114 0.19887 0.0
H766 H 0.52083 0.03943 0.17054 0.0
C767 C 0.52465 0.01037 0.10192 0.0
C768 C 0.53915 0.0245 0.08622 0.0
C769 C 0.53065 0.01001 0.1271 0.0
C770 C 0.53829 0.0366 0.17835 0.0
H771 H 0.60109 0.0366 0.29122 0.0
H772 H 0.58852 0.01905 0.25053 0.0
H773 H 0.52993 0.05214 0.21367 0.0
H774 H 0.5719 0.04779 0.08379 0.0
H775 H 0.58291 0.04628 0.12744 0.0
H776 H 0.59234 0.01685 0.16315 0.0
C777 C 0.58474 0.03786 0.25537 0.0
C778 C 0.54355 0.04409 0.20291 0.0
C779 C 0.59204 0.048 0.27862 0.0
C780 C 0.56062 0.03654 0.09556 0.0
C781 C 0.56688 0.0357 0.12051 0.0
C782 C 0.57847 0.02405 0.17419 0.0
C783 C 0.57273 0.05186 0.23853 0.0
C784 C 0.56637 0.04179 0.21329 0.0
C785 C 0.55148 0.0233 0.13669 0.0
C786 C 0.55587 0.02704 0.16361 0.0
H787 H 0.57216 0.10542 0.27295 0.0
H788 H 0.55886 0.08741 0.23272 0.0
H789 H 0.60139 0.02932 0.20638 0.0
H790 H 0.5078 0.00131 0.09516 0.0
H791 H 0.51851 0.00031 0.13926 0.0
C792 C 0.41041 0.62215 0.28281 0.0
C793 C 0.40233 0.60557 0.26333 0.0
C794 C 0.41372 0.61378 0.30662 0.0
C795 C 0.42161 0.55592 0.33908 0.0
H796 H 0.41028 0.59584 0.39775 0.0
C797 C 0.43458 0.5141 0.42954 0.0
C798 C 0.45494 0.52598 0.44135 0.0
C799 C 0.42121 0.52675 0.4129 0.0
C800 C 0.41325 0.5845 0.38146 0.0
H801 H 0.39166 0.56709 0.25375 0.0
H802 H 0.39609 0.55286 0.29515 0.0
H803 H 0.402 0.61162 0.35686 0.0
H804 H 0.4757 0.56087 0.44783 0.0
H805 H 0.45224 0.58317 0.41869 0.0
H806 H 0.43271 0.52883 0.36346 0.0
C807 C 0.40048 0.57224 0.29207 0.0
C808 C 0.4088 0.59357 0.35807 0.0
C809 C 0.39757 0.5805 0.26829 0.0
C810 C 0.45978 0.55152 0.43915 0.0
C811 C 0.44644 0.56422 0.42238 0.0
C812 C 0.42559 0.54676 0.36227 0.0
C813 C 0.4088 0.58869 0.31155 0.0
C814 C 0.41301 0.57935 0.33658 0.0
C815 C 0.42828 0.55135 0.40776 0.0
C816 C 0.42148 0.56091 0.38367 0.0
H817 H 0.41393 0.64166 0.27978 0.0
H818 H 0.42044 0.62695 0.32106 0.0
H819 H 0.42585 0.54473 0.32311 0.0
H820 H 0.43075 0.49433 0.43081 0.0
H821 H 0.40712 0.51654 0.40197 0.0
C822 C 0.07463 0.41236 0.75283 0.0
C823 C 0.08459 0.42996 0.73689 0.0
C824 C 0.07004 0.41904 0.77729 0.0
C825 C 0.05995 0.47402 0.81647 0.0
H826 H 0.07095 0.43171 0.87101 0.0
C827 C 0.0497 0.51078 0.91403 0.0
C828 C 0.03506 0.49608 0.92907 0.0
C829 C 0.05888 0.5007 0.89269 0.0
C830 C 0.06769 0.44362 0.85592 0.0
H831 H 0.09758 0.46841 0.73434 0.0
H832 H 0.09024 0.47984 0.77697 0.0
H833 H 0.08035 0.41814 0.82903 0.0
H834 H 0.01976 0.45904 0.93475 0.0
H835 H 0.03564 0.44121 0.89683 0.0
H836 H 0.04725 0.49941 0.84302 0.0
C837 C 0.08563 0.46093 0.77052 0.0
C838 C 0.073 0.43586 0.8319 0.0
C839 C 0.09013 0.4543 0.7461 0.0
C840 C 0.03122 0.47063 0.92348 0.0
C841 C 0.04023 0.46051 0.90178 0.0
C842 C 0.05475 0.48175 0.84033 0.0
C843 C 0.0753 0.44347 0.78636 0.0
C844 C 0.06937 0.45112 0.81193 0.0
C845 C 0.05325 0.47577 0.88563 0.0
C846 C 0.05879 0.46681 0.86039 0.0
H847 H 0.07044 0.39337 0.74644 0.0
H848 H 0.06191 0.40518 0.78893 0.0
H849 H 0.0563 0.48595 0.8015 0.0
H850 H 0.05299 0.53045 0.9181 0.0
H851 H 0.06939 0.51279 0.881 0.0
C852 C 0.75771 0.93036 0.95149 0.0
C853 C 0.76542 0.93258 0.92717 0.0
C854 C 0.73745 0.94157 0.95933 0.0
C855 C 0.68255 0.96731 0.93459 0.0
H856 H 0.67669 0.98957 0.00267 0.0
C857 C 0.59613 0.00606 0.96904 0.0
C858 C 0.58651 0.99236 0.98833 0.0
C859 C 0.62 0.00432 0.96276 0.0
C860 C 0.67816 0.98358 0.98356 0.0
H861 H 0.75761 0.94867 0.89212 0.0
H862 H 0.7232 0.96908 0.90607 0.0
H863 H 0.71453 0.97547 0.98885 0.0
H864 H 0.59429 0.96745 0.01714 0.0
H865 H 0.63613 0.96518 0.0069 0.0
H866 H 0.64611 0.97542 0.92943 0.0
C867 C 0.73245 0.95819 0.919 0.0
C868 C 0.69977 0.97526 0.97565 0.0
C869 C 0.75252 0.94675 0.91108 0.0
C870 C 0.60145 0.9784 0.00237 0.0
C871 C 0.62537 0.9771 0.99648 0.0
C872 C 0.66108 0.97596 0.94243 0.0
C873 C 0.72443 0.95555 0.94316 0.0
C874 C 0.70212 0.96648 0.95117 0.0
C875 C 0.63465 0.98925 0.97603 0.0
C876 C 0.6585 0.98371 0.9671 0.0
H877 H 0.76731 0.91994 0.96456 0.0
H878 H 0.73174 0.93875 0.97797 0.0
H879 H 0.6834 0.96035 0.91573 0.0
H880 H 0.58479 0.01661 0.95772 0.0
H881 H 0.62674 0.01392 0.94695 0.0
C882 C 0.75919 0.09904 0.46431 0.0
C883 C 0.75188 0.10066 0.43951 0.0
C884 C 0.78233 0.09294 0.4704 0.0
C885 C 0.83187 0.06163 0.44315 0.0
H886 H 0.87051 0.09347 0.49712 0.0
C887 C 0.9303 0.04518 0.45345 0.0
C888 C 0.93886 0.0395 0.47693 0.0
C889 C 0.90816 0.05475 0.45049 0.0
C890 C 0.85981 0.0843 0.48214 0.0
H891 H 0.76347 0.09857 0.40177 0.0
H892 H 0.80364 0.0881 0.4123 0.0
H893 H 0.83013 0.10599 0.48902 0.0
H894 H 0.93147 0.04076 0.51593 0.0
H895 H 0.89241 0.05739 0.51068 0.0
H896 H 0.86128 0.03998 0.43615 0.0
C897 C 0.7914 0.09087 0.42706 0.0
C898 C 0.83672 0.09143 0.47752 0.0
C899 C 0.76837 0.09687 0.42101 0.0
C900 C 0.92531 0.04489 0.49759 0.0
C901 C 0.90299 0.05445 0.4946 0.0
C902 C 0.85482 0.05458 0.44773 0.0
C903 C 0.79856 0.08841 0.45177 0.0
C904 C 0.82265 0.08038 0.45773 0.0
C905 C 0.89392 0.05879 0.47091 0.0
C906 C 0.86921 0.06604 0.46702 0.0
H907 H 0.74683 0.10178 0.47896 0.0
H908 H 0.78728 0.09106 0.4896 0.0
H909 H 0.82128 0.05229 0.42818 0.0
H910 H 0.94043 0.04162 0.43717 0.0
H911 H 0.90193 0.05849 0.43206 0.0
C912 C 0.25618 0.58011 0.10135 0.0
C913 C 0.2696 0.59623 0.08639 0.0
C914 C 0.23337 0.57047 0.09382 0.0
C915 C 0.18216 0.5832 0.05491 0.0
H916 H 0.16206 0.51453 0.06508 0.0
C917 C 0.08738 0.54021 0.02698 0.0
C918 C 0.07663 0.52351 0.04329 0.0
C919 C 0.11137 0.54879 0.0304 0.0
C920 C 0.1673 0.53382 0.06235 0.0
H921 H 0.26957 0.61448 0.05152 0.0
H922 H 0.2294 0.59782 0.03853 0.0
H923 H 0.20337 0.52967 0.07398 0.0
H924 H 0.08246 0.50315 0.07626 0.0
H925 H 0.12395 0.51853 0.08255 0.0
H926 H 0.14595 0.58754 0.04389 0.0
C927 C 0.23666 0.5928 0.05614 0.0
C928 C 0.19099 0.54244 0.06736 0.0
C929 C 0.25963 0.60234 0.06361 0.0
C930 C 0.09025 0.51584 0.06323 0.0
C931 C 0.11412 0.52453 0.06674 0.0
C932 C 0.15838 0.5746 0.05003 0.0
C933 C 0.22329 0.57682 0.07124 0.0
C934 C 0.1986 0.56729 0.064 0.0
C935 C 0.12505 0.54096 0.05027 0.0
C936 C 0.15059 0.54988 0.05403 0.0
H937 H 0.26301 0.57544 0.11926 0.0
H938 H 0.22333 0.55856 0.10605 0.0
H939 H 0.18747 0.60251 0.05239 0.0
H940 H 0.07739 0.5464 0.01137 0.0
H941 H 0.11928 0.56124 0.01723 0.0
C942 C 0.23711 0.44423 0.57887 0.0
C943 C 0.21805 0.44142 0.56154 0.0
C944 C 0.26033 0.44992 0.57142 0.0
C945 C 0.29971 0.44689 0.51852 0.0
H946 H 0.34093 0.49097 0.56151 0.0
C947 C 0.40212 0.48132 0.5083 0.0
C948 C 0.41542 0.47674 0.52973 0.0
C949 C 0.37723 0.47626 0.5074 0.0
C950 C 0.32957 0.47875 0.54924 0.0
H951 H 0.20851 0.4424 0.52267 0.0
H952 H 0.2494 0.45248 0.50958 0.0
H953 H 0.29846 0.48568 0.56929 0.0
H954 H 0.41351 0.46101 0.56586 0.0
H955 H 0.37046 0.45237 0.56421 0.0
H956 H 0.33138 0.43993 0.49871 0.0
C957 C 0.24622 0.45008 0.52896 0.0
C958 C 0.3053 0.4756 0.55376 0.0
C959 C 0.22284 0.44434 0.53646 0.0
C960 C 0.40374 0.46514 0.54925 0.0
C961 C 0.3791 0.46018 0.54835 0.0
C962 C 0.32416 0.45024 0.51387 0.0
C963 C 0.26521 0.45304 0.54642 0.0
C964 C 0.2902 0.45898 0.53902 0.0
C965 C 0.36554 0.46658 0.52789 0.0
C966 C 0.33933 0.46561 0.52973 0.0
H967 H 0.23418 0.44147 0.59824 0.0
H968 H 0.27459 0.45142 0.5853 0.0
H969 H 0.28854 0.43394 0.50685 0.0
H970 H 0.41067 0.49027 0.49299 0.0
H971 H 0.36703 0.4813 0.49141 0.0
C972 C 0.91274 0.74353 0.9214 0.0
C973 C 0.90688 0.76399 0.93604 0.0
C974 C 0.92235 0.72331 0.93207 0.0
C975 C 0.92955 0.69143 0.99063 0.0
H976 H 0.98173 0.66364 0.95669 0.0
C977 C 0.96498 0.59546 0.01005 0.0
C978 C 0.9893 0.59273 0.00621 0.0
C979 C 0.95527 0.61803 0.00569 0.0
C980 C 0.96738 0.67131 0.96665 0.0
H981 H 0.90628 0.77887 0.97362 0.0
H982 H 0.923 0.74343 0.99227 0.0
H983 H 0.96394 0.69918 0.94029 0.0
H984 H 0.02287 0.61209 0.99724 0.0
H985 H 0.00618 0.65144 0.99044 0.0
H986 H 0.93316 0.66336 0.01706 0.0
C987 C 0.91998 0.74305 0.97248 0.0
C988 C 0.95693 0.69153 0.957 0.0
C989 C 0.91038 0.76337 0.96177 0.0
C990 C 0.00403 0.61355 1.00014 0.0
C991 C 0.9944 0.63605 0.99599 0.0
C992 C 0.93998 0.67102 1.00027 0.0
C993 C 0.92636 0.7229 0.95772 0.0
C994 C 0.93776 0.70177 0.96872 0.0
C995 C 0.96973 0.63828 0.99757 0.0
C996 C 0.95903 0.66068 0.98836 0.0
H997 H 0.9098 0.74306 0.9016 0.0
H998 H 0.92657 0.7079 0.92017 0.0
H999 H 0.91473 0.69879 1.00005 0.0
H1000 H 0.95313 0.5797 0.01454 0.0
H1001 H 0.93619 0.61906 0.00709 0.0
C1002 C 0.43747 0.78667 0.12081 0.0
C1003 C 0.4148 0.77925 0.12929 0.0
C1004 C 0.4439 0.81162 0.11733 0.0
C1005 C 0.41597 0.86949 0.10545 0.0
H1006 H 0.48221 0.89498 0.10566 0.0
C1007 C 0.4539 0.92966 0.03212 0.0
C1008 C 0.47502 0.9447 0.03631 0.0
C1009 C 0.4431 0.91741 0.05144 0.0
C1010 C 0.46352 0.88859 0.10611 0.0
H1011 H 0.38156 0.792 0.14219 0.0
H1012 H 0.39297 0.83569 0.13682 0.0
H1013 H 0.47138 0.85671 0.12587 0.0
H1014 H 0.50059 0.96061 0.06394 0.0
H1015 H 0.48169 0.93899 0.09816 0.0
H1016 H 0.4082 0.90119 0.08537 0.0
C1017 C 0.40558 0.82227 0.13213 0.0
C1018 C 0.45736 0.86634 0.11731 0.0
C1019 C 0.39903 0.79728 0.13523 0.0
C1020 C 0.4841 0.94923 0.06046 0.0
C1021 C 0.47342 0.93668 0.07991 0.0
C1022 C 0.4221 0.89188 0.09455 0.0
C1023 C 0.42791 0.82975 0.12262 0.0
C1024 C 0.43369 0.85583 0.11593 0.0
C1025 C 0.45348 0.91967 0.07533 0.0
C1026 C 0.44611 0.90094 0.09348 0.0
H1027 H 0.44988 0.77307 0.11597 0.0
H1028 H 0.46105 0.8165 0.10949 0.0
H1029 H 0.39754 0.86211 0.10399 0.0
H1030 H 0.44677 0.92582 0.01353 0.0
H1031 H 0.42796 0.90433 0.04705 0.0
C1032 C 0.03715 0.27099 0.56912 0.0
C1033 C 0.0432 0.2904 0.55348 0.0
C1034 C 0.02874 0.24771 0.55941 0.0
C1035 C 0.03281 0.2081 0.50398 0.0
H1036 H 0.98957 0.16433 0.53969 0.0
C1037 C 0.04391 0.10612 0.51325 0.0
C1038 C 0.02428 0.08955 0.51757 0.0
C1039 C 0.04072 0.13074 0.50871 0.0
C1040 C 0.00121 0.17635 0.52903 0.0
H1041 H 0.044 0.30082 0.51532 0.0
H1042 H 0.0294 0.26002 0.49832 0.0
H1043 H 0.99308 0.20841 0.55036 0.0
H1044 H 0.98581 0.0849 0.51887 0.0
H1045 H 0.98004 0.12839 0.51103 0.0
H1046 H 0.04152 0.17589 0.48322 0.0
C1047 C 0.03143 0.26281 0.51813 0.0
C1048 C 0.00349 0.2016 0.53541 0.0
C1049 C 0.03984 0.28617 0.52787 0.0
C1050 C 0.00117 0.0974 0.5153 0.0
C1051 C 0.99793 0.12228 0.51107 0.0
C1052 C 0.0305 0.18285 0.49757 0.0
C1053 C 0.02615 0.2432 0.53379 0.0
C1054 C 0.02008 0.21759 0.52369 0.0
C1055 C 0.01779 0.13942 0.5088 0.0
C1056 C 0.01547 0.16652 0.51076 0.0
H1057 H 0.03991 0.27342 0.58889 0.0
H1058 H 0.02533 0.23294 0.57202 0.0
H1059 H 0.04578 0.21985 0.49458 0.0
H1060 H 0.0619 0.10041 0.51514 0.0
H1061 H 0.05644 0.14336 0.50733 0.0
C1062 C 0.5857 0.25903 0.43285 0.0
C1063 C 0.58675 0.23889 0.44819 0.0
C1064 C 0.57569 0.28046 0.44105 0.0
C1065 C 0.55652 0.31483 0.49651 0.0
H1066 H 0.51854 0.34561 0.44752 0.0
C1067 C 0.52746 0.41488 0.50654 0.0
C1068 C 0.50714 0.42062 0.49306 0.0
C1069 C 0.53468 0.39074 0.50559 0.0
C1070 C 0.52864 0.3371 0.46168 0.0
H1071 H 0.57877 0.22556 0.48439 0.0
H1072 H 0.56069 0.26298 0.49866 0.0
H1073 H 0.53656 0.30787 0.43666 0.0
H1074 H 0.47719 0.40574 0.47001 0.0
H1075 H 0.48876 0.36338 0.46961 0.0
H1076 H 0.54808 0.34407 0.52168 0.0
C1077 C 0.56793 0.26231 0.48038 0.0
C1078 C 0.53943 0.31561 0.45526 0.0
C1079 C 0.5782 0.24087 0.47222 0.0
C1080 C 0.49294 0.40163 0.48055 0.0
C1081 C 0.49979 0.37747 0.48006 0.0
C1082 C 0.54551 0.33637 0.50305 0.0
C1083 C 0.56619 0.2822 0.46471 0.0
C1084 C 0.55384 0.30441 0.4724 0.0
C1085 C 0.52147 0.37198 0.49136 0.0
C1086 C 0.5316 0.34791 0.48561 0.0
H1087 H 0.59262 0.25819 0.41442 0.0
H1088 H 0.5753 0.29567 0.42872 0.0
H1089 H 0.56757 0.30671 0.51017 0.0
H1090 H 0.53887 0.42941 0.51598 0.0
H1091 H 0.5515 0.3873 0.51446 0.0
loop_
_geom_bond_atom_site_label_1
_geom_bond_atom_site_label_2
_geom_bond_distance
_geom_bond_site_symmetry_2
_ccdc_geom_bond_type
C0 C1 1.384 . S
C0 H13 0.947 . S
C0 C35 1.382 . S
C1 C0 1.384 . S
C1 C2 1.378 . S
C2 C1 1.378 . S
C2 C3 1.378 . S
C2 H14 0.952 . S
C3 C2 1.378 . S
C3 H15 0.950 . S
C3 C34 1.383 . S
H4 C23 0.947 . S
H5 C24 0.946 . S
H6 C26 0.953 . S
H7 C27 0.945 . S
H8 C29 0.952 . S
H9 C30 0.949 . S
H10 C32 0.950 . S
H11 C33 0.948 . S
H12 C35 0.951 . S
H13 C0 0.947 . S
H14 C2 0.952 . S
H15 C3 0.950 . S
N16 C19 1.382 . S
N16 C21 1.363 . S
N17 C19 1.371 . S
N17 C20 1.372 . S
N18 C20 1.361 . S
N18 C21 1.377 . S
C19 N16 1.382 . S
C19 N17 1.371 . S
C19 C22 1.480 . S
C20 N17 1.372 . S
C20 N18 1.361 . S
C20 C28 1.457 . S
C21 N16 1.363 . S
C21 N18 1.377 . S
C21 C34 1.479 . S
C22 C19 1.480 . S
C22 C23 1.383 . S
C22 C27 1.385 . S
C23 H4 0.947 . S
C23 C22 1.383 . S
C23 C24 1.388 . S
C24 H5 0.946 . S
C24 C23 1.388 . S
C24 C25 1.384 . S
C25 C24 1.384 . S
C25 C26 1.377 . S
C26 H6 0.953 . S
C26 C25 1.377 . S
C26 C27 1.369 . S
C27 H7 0.945 . S
C27 C22 1.385 . S
C27 C26 1.369 . S
C28 C20 1.457 . S
C28 C29 1.372 . S
C28 C33 1.364 . S
C29 H8 0.952 . S
C29 C28 1.372 . S
C29 C30 1.389 . S
C30 H9 0.949 . S
C30 C29 1.389 . S
C30 C31 1.387 . S
C31 C30 1.387 . S
C31 C32 1.372 . S
C32 H10 0.950 . S
C32 C31 1.372 . S
C32 C33 1.379 . S
C33 H11 0.948 . S
C33 C28 1.364 . S
C33 C32 1.379 . S
C34 C3 1.383 . S
C34 C21 1.479 . S
C34 C35 1.398 . S
C35 C0 1.382 . S
C35 H12 0.951 . S
C35 C34 1.398 . S
C36 C37 1.384 . S
C36 H49 0.947 . S
C36 C71 1.382 . S
C37 C36 1.384 . S
C37 C38 1.378 . S
C38 C37 1.378 . S
C38 C39 1.378 . S
C38 H50 0.952 . S
C39 C38 1.378 . S
C39 H51 0.950 . S
C39 C70 1.383 . S
H40 C59 0.947 . S
H41 C60 0.946 . S
H42 C62 0.953 . S
H43 C63 0.945 . S
H44 C65 0.952 . S
H45 C66 0.949 . S
H46 C68 0.950 . S
H47 C69 0.948 . S
H48 C71 0.951 . S
H49 C36 0.947 . S
H50 C38 0.952 . S
H51 C39 0.950 . S
N52 C55 1.382 . S
N52 C57 1.363 . S
N53 C55 1.371 . S
N53 C56 1.372 . S
N54 C56 1.361 . S
N54 C57 1.377 . S
C55 N52 1.382 . S
C55 N53 1.371 . S
C55 C58 1.480 . S
C56 N53 1.372 . S
C56 N54 1.361 . S
C56 C64 1.457 . S
C57 N52 1.363 . S
C57 N54 1.377 . S
C57 C70 1.479 . S
C58 C55 1.480 . S
C58 C59 1.383 . S
C58 C63 1.385 . S
C59 H40 0.947 . S
C59 C58 1.383 . S
C59 C60 1.388 . S
C60 H41 0.946 . S
C60 C59 1.388 . S
C60 C61 1.384 . S
C61 C60 1.384 . S
C61 C62 1.377 . S
C62 H42 0.953 . S
C62 C61 1.377 . S
C62 C63 1.369 . S
C63 H43 0.945 . S
C63 C58 1.385 . S
C63 C62 1.369 . S
C64 C56 1.457 . S
C64 C65 1.372 . S
C64 C69 1.364 . S
C65 H44 0.952 . S
C65 C64 1.372 . S
C65 C66 1.389 . S
C66 H45 0.949 . S
C66 C65 1.389 . S
C66 C67 1.387 . S
C67 C66 1.387 . S
C67 C68 1.372 . S
C68 H46 0.950 . S
C68 C67 1.372 . S
C68 C69 1.379 . S
C69 H47 0.948 . S
C69 C64 1.364 . S
C69 C68 1.379 . S
C70 C39 1.383 . S
C70 C57 1.479 . S
C70 C71 1.398 . S
C71 C36 1.382 . S
C71 H48 0.951 . S
C71 C70 1.398 . S
C72 C73 1.384 . S
C72 H85 0.947 . S
C72 C107 1.382 . S
C73 C72 1.384 . S
C73 C74 1.378 . S
C74 C73 1.378 . S
C74 C75 1.378 . S
C74 H86 0.952 . S
C75 C74 1.378 . S
C75 H87 0.950 . S
C75 C106 1.383 . S
H76 C95 0.947 . S
H77 C96 0.946 . S
H78 C98 0.953 . S
H79 C99 0.945 . S
H80 C101 0.952 . S
H81 C102 0.949 . S
H82 C104 0.950 . S
H83 C105 0.948 . S
H84 C107 0.951 . S
H85 C72 0.947 . S
H86 C74 0.952 . S
H87 C75 0.950 . S
N88 C91 1.382 . S
N88 C93 1.363 . S
N89 C91 1.371 . S
N89 C92 1.372 . S
N90 C92 1.361 . S
N90 C93 1.377 . S
C91 N88 1.382 . S
C91 N89 1.371 . S
C91 C94 1.480 . S
C92 N89 1.372 . S
C92 N90 1.361 . S
C92 C100 1.457 . S
C93 N88 1.363 . S
C93 N90 1.377 . S
C93 C106 1.479 . S
C94 C91 1.480 . S
C94 C95 1.383 . S
C94 C99 1.385 . S
C95 H76 0.947 . S
C95 C94 1.383 . S
C95 C96 1.388 . S
C96 H77 0.946 . S
C96 C95 1.388 . S
C96 C97 1.384 . S
C97 C96 1.384 . S
C97 C98 1.377 . S
C98 H78 0.953 . S
C98 C97 1.377 . S
C98 C99 1.369 . S
C99 H79 0.945 . S
C99 C94 1.385 . S
C99 C98 1.369 . S
C100 C92 1.457 . S
C100 C101 1.372 . S
C100 C105 1.364 . S
C101 H80 0.952 . S
C101 C100 1.372 . S
C101 C102 1.389 . S
C102 H81 0.949 . S
C102 C101 1.389 . S
C102 C103 1.387 . S
C103 C102 1.387 . S
C103 C104 1.372 . S
C104 H82 0.950 . S
C104 C103 1.372 . S
C104 C105 1.379 . S
C105 H83 0.948 . S
C105 C100 1.364 . S
C105 C104 1.379 . S
C106 C75 1.383 . S
C106 C93 1.479 . S
C106 C107 1.398 . S
C107 C72 1.382 . S
C107 H84 0.951 . S
C107 C106 1.398 . S
C108 C109 1.384 . S
C108 H121 0.947 . S
C108 C143 1.382 . S
C109 C108 1.384 . S
C109 C110 1.378 . S
C110 C109 1.378 . S
C110 C111 1.378 . S
C110 H122 0.952 . S
C111 C110 1.378 . S
C111 H123 0.950 . S
C111 C142 1.383 . S
H112 C131 0.947 . S
H113 C132 0.946 . S
H114 C134 0.953 . S
H115 C135 0.945 . S
H116 C137 0.952 . S
H117 C138 0.949 . S
H118 C140 0.950 . S
H119 C141 0.948 . S
H120 C143 0.951 . S
H121 C108 0.947 . S
H122 C110 0.952 . S
H123 C111 0.950 . S
N124 C127 1.382 . S
N124 C129 1.363 . S
N125 C127 1.371 . S
N125 C128 1.372 . S
N126 C128 1.361 . S
N126 C129 1.377 . S
C127 N124 1.382 . S
C127 N125 1.371 . S
C127 C130 1.480 . S
C128 N125 1.372 . S
C128 N126 1.361 . S
C128 C136 1.457 . S
C129 N124 1.363 . S
C129 N126 1.377 . S
C129 C142 1.479 . S
C130 C127 1.480 . S
C130 C131 1.383 . S
C130 C135 1.385 . S
C131 H112 0.947 . S
C131 C130 1.383 . S
C131 C132 1.388 . S
C132 H113 0.946 . S
C132 C131 1.388 . S
C132 C133 1.384 . S
C133 C132 1.384 . S
C133 C134 1.377 . S
C134 H114 0.953 . S
C134 C133 1.377 . S
C134 C135 1.369 . S
C135 H115 0.945 . S
C135 C130 1.385 . S
C135 C134 1.369 . S
C136 C128 1.457 . S
C136 C137 1.372 . S
C136 C141 1.364 . S
C137 H116 0.952 . S
C137 C136 1.372 . S
C137 C138 1.389 . S
C138 H117 0.949 . S
C138 C137 1.389 . S
C138 C139 1.387 . S
C139 C138 1.387 . S
C139 C140 1.372 . S
C140 H118 0.950 . S
C140 C139 1.372 . S
C140 C141 1.379 . S
C141 H119 0.948 . S
C141 C136 1.364 . S
C141 C140 1.379 . S
C142 C111 1.383 . S
C142 C129 1.479 . S
C142 C143 1.398 . S
C143 C108 1.382 . S
C143 H120 0.951 . S
C143 C142 1.398 . S
C144 C145 1.384 . S
C144 H157 0.947 . S
C144 C179 1.382 . S
C145 C144 1.384 . S
C145 C146 1.378 . S
C146 C145 1.378 . S
C146 C147 1.378 . S
C146 H158 0.952 . S
C147 C146 1.378 . S
C147 H159 0.950 . S
C147 C178 1.383 . S
H148 C167 0.947 . S
H149 C168 0.946 . S
H150 C170 0.953 . S
H151 C171 0.945 . S
H152 C173 0.952 . S
H153 C174 0.949 . S
H154 C176 0.950 . S
H155 C177 0.948 . S
H156 C179 0.951 . S
H157 C144 0.947 . S
H158 C146 0.952 . S
H159 C147 0.950 . S
N160 C163 1.382 . S
N160 C165 1.363 . S
N161 C163 1.371 . S
N161 C164 1.372 . S
N162 C164 1.361 . S
N162 C165 1.377 . S
C163 N160 1.382 . S
C163 N161 1.371 . S
C163 C166 1.480 . S
C164 N161 1.372 . S
C164 N162 1.361 . S
C164 C172 1.457 . S
C165 N160 1.363 . S
C165 N162 1.377 . S
C165 C178 1.479 . S
C166 C163 1.480 . S
C166 C167 1.383 . S
C166 C171 1.385 . S
C167 H148 0.947 . S
C167 C166 1.383 . S
C167 C168 1.388 . S
C168 H149 0.946 . S
C168 C167 1.388 . S
C168 C169 1.384 . S
C169 C168 1.384 . S
C169 C170 1.377 . S
C170 H150 0.953 . S
C170 C169 1.377 . S
C170 C171 1.369 . S
C171 H151 0.945 . S
C171 C166 1.385 . S
C171 C170 1.369 . S
C172 C164 1.457 . S
C172 C173 1.372 . S
C172 C177 1.364 . S
C173 H152 0.952 . S
C173 C172 1.372 . S
C173 C174 1.389 . S
C174 H153 0.949 . S
C174 C173 1.389 . S
C174 C175 1.387 . S
C175 C174 1.387 . S
C175 C176 1.372 . S
C176 H154 0.950 . S
C176 C175 1.372 . S
C176 C177 1.379 . S
C177 H155 0.948 . S
C177 C172 1.364 . S
C177 C176 1.379 . S
C178 C147 1.383 . S
C178 C165 1.479 . S
C178 C179 1.398 . S
C179 C144 1.382 . S
C179 H156 0.951 . S
C179 C178 1.398 . S
C180 C181 1.384 . S
C180 H193 0.947 . S
C180 C215 1.382 . S
C181 C180 1.384 . S
C181 C182 1.378 . S
C182 C181 1.378 . S
C182 C183 1.378 . S
C182 H194 0.952 . S
C183 C182 1.378 . S
C183 H195 0.950 . S
C183 C214 1.383 . S
H184 C203 0.947 . S
H185 C204 0.946 . S
H186 C206 0.953 . S
H187 C207 0.945 . S
H188 C209 0.952 . S
H189 C210 0.949 . S
H190 C212 0.950 . S
H191 C213 0.948 . S
H192 C215 0.951 . S
H193 C180 0.947 . S
H194 C182 0.952 . S
H195 C183 0.950 . S
N196 C199 1.382 . S
N196 C201 1.363 . S
N197 C199 1.371 . S
N197 C200 1.372 . S
N198 C200 1.361 . S
N198 C201 1.377 . S
C199 N196 1.382 . S
C199 N197 1.371 . S
C199 C202 1.480 . S
C200 N197 1.372 . S
C200 N198 1.361 . S
C200 C208 1.457 . S
C201 N196 1.363 . S
C201 N198 1.377 . S
C201 C214 1.479 . S
C202 C199 1.480 . S
C202 C203 1.383 . S
C202 C207 1.385 . S
C203 H184 0.947 . S
C203 C202 1.383 . S
C203 C204 1.388 . S
C204 H185 0.946 . S
C204 C203 1.388 . S
C204 C205 1.384 . S
C205 C204 1.384 . S
C205 C206 1.377 . S
C206 H186 0.953 . S
C206 C205 1.377 . S
C206 C207 1.369 . S
C207 H187 0.945 . S
C207 C202 1.385 . S
C207 C206 1.369 . S
C208 C200 1.457 . S
C208 C209 1.372 . S
C208 C213 1.364 . S
C209 H188 0.952 . S
C209 C208 1.372 . S
C209 C210 1.389 . S
C210 H189 0.949 . S
C210 C209 1.389 . S
C210 C211 1.387 . S
C211 C210 1.387 . S
C211 C212 1.372 . S
C212 H190 0.950 . S
C212 C211 1.372 . S
C212 C213 1.379 . S
C213 H191 0.948 . S
C213 C208 1.364 . S
C213 C212 1.379 . S
C214 C183 1.383 . S
C214 C201 1.479 . S
C214 C215 1.398 . S
C215 C180 1.382 . S
C215 H192 0.951 . S
C215 C214 1.398 . S
C216 C217 1.384 . S
C216 H229 0.947 . S
C216 C251 1.382 . S
C217 C216 1.384 . S
C217 C218 1.378 . S
C218 C217 1.378 . S
C218 C219 1.378 . S
C218 H230 0.952 . S
C219 C218 1.378 . S
C219 H231 0.950 . S
C219 C250 1.383 . S
H220 C239 0.947 . S
H221 C240 0.946 . S
H222 C242 0.953 . S
H223 C243 0.945 . S
H224 C245 0.952 . S
H225 C246 0.949 . S
H226 C248 0.950 . S
H227 C249 0.948 . S
H228 C251 0.951 . S
H229 C216 0.947 . S
H230 C218 0.952 . S
H231 C219 0.950 . S
N232 C235 1.382 . S
N232 C237 1.363 . S
N233 C235 1.371 . S
N233 C236 1.372 . S
N234 C236 1.361 . S
N234 C237 1.377 . S
C235 N232 1.382 . S
C235 N233 1.371 . S
C235 C238 1.480 . S
C236 N233 1.372 . S
C236 N234 1.361 . S
C236 C244 1.457 . S
C237 N232 1.363 . S
C237 N234 1.377 . S
C237 C250 1.479 . S
C238 C235 1.480 . S
C238 C239 1.383 . S
C238 C243 1.385 . S
C239 H220 0.947 . S
C239 C238 1.383 . S
C239 C240 1.388 . S
C240 H221 0.946 . S
C240 C239 1.388 . S
C240 C241 1.384 . S
C241 C240 1.384 . S
C241 C242 1.377 . S
C242 H222 0.953 . S
C242 C241 1.377 . S
C242 C243 1.369 . S
C243 H223 0.945 . S
C243 C238 1.385 . S
C243 C242 1.369 . S
C244 C236 1.457 . S
C244 C245 1.372 . S
C244 C249 1.364 . S
C245 H224 0.952 . S
C245 C244 1.372 . S
C245 C246 1.389 . S
C246 H225 0.949 . S
C246 C245 1.389 . S
C246 C247 1.387 . S
C247 C246 1.387 . S
C247 C248 1.372 . S
C248 H226 0.950 . S
C248 C247 1.372 . S
C248 C249 1.379 . S
C249 H227 0.948 . S
C249 C244 1.364 . S
C249 C248 1.379 . S
C250 C219 1.383 . S
C250 C237 1.479 . S
C250 C251 1.398 . S
C251 C216 1.382 . S
C251 H228 0.951 . S
C251 C250 1.398 . S
C252 C253 1.384 . S
C252 H265 0.947 . S
C252 C287 1.382 . S
C253 C252 1.384 . S
C253 C254 1.378 . S
C254 C253 1.378 . S
C254 C255 1.378 . S
C254 H266 0.952 . S
C255 C254 1.378 . S
C255 H267 0.950 . S
C255 C286 1.383 . S
H256 C275 0.947 . S
H257 C276 0.946 . S
H258 C278 0.953 . S
H259 C279 0.945 . S
H260 C281 0.952 . S
H261 C282 0.949 . S
H262 C284 0.950 . S
H263 C285 0.948 . S
H264 C287 0.951 . S
H265 C252 0.947 . S
H266 C254 0.952 . S
H267 C255 0.950 . S
N268 C271 1.382 . S
N268 C273 1.363 . S
N269 C271 1.371 . S
N269 C272 1.372 . S
N270 C272 1.361 . S
N270 C273 1.377 . S
C271 N268 1.382 . S
C271 N269 1.371 . S
C271 C274 1.480 . S
C272 N269 1.372 . S
C272 N270 1.361 . S
C272 C280 1.457 . S
C273 N268 1.363 . S
C273 N270 1.377 . S
C273 C286 1.479 . S
C274 C271 1.480 . S
C274 C275 1.383 . S
C274 C279 1.385 . S
C275 H256 0.947 . S
C275 C274 1.383 . S
C275 C276 1.388 . S
C276 H257 0.946 . S
C276 C275 1.388 . S
C276 C277 1.384 . S
C277 C276 1.384 . S
C277 C278 1.377 . S
C278 H258 0.953 . S
C278 C277 1.377 . S
C278 C279 1.369 . S
C279 H259 0.945 . S
C279 C274 1.385 . S
C279 C278 1.369 . S
C280 C272 1.457 . S
C280 C281 1.372 . S
C280 C285 1.364 . S
C281 H260 0.952 . S
C281 C280 1.372 . S
C281 C282 1.389 . S
C282 H261 0.949 . S
C282 C281 1.389 . S
C282 C283 1.387 . S
C283 C282 1.387 . S
C283 C284 1.372 . S
C284 H262 0.950 . S
C284 C283 1.372 . S
C284 C285 1.379 . S
C285 H263 0.948 . S
C285 C280 1.364 . S
C285 C284 1.379 . S
C286 C255 1.383 . S
C286 C273 1.479 . S
C286 C287 1.398 . S
C287 C252 1.382 . S
C287 H264 0.951 . S
C287 C286 1.398 . S
O288 Mg289 1.990 . S
O288 C302 1.253 1_445 S
Mg289 O288 1.990 . S
Mg289 O292 2.180 . S
Mg289 O293 2.117 . S
Mg289 O307 2.030 1_545 S
O290 Mg291 2.072 1_665 S
O290 C302 1.260 . S
Mg291 O290 2.072 1_445 S
Mg291 O292 2.099 . S
Mg291 O294 2.079 . S
Mg291 O295 2.072 1_455 S
Mg291 O297 2.099 1_445 S
Mg291 O308 2.079 1_545 S
O292 Mg289 2.180 . S
O292 Mg291 2.099 . S
O292 C303 1.279 . S
O293 Mg289 2.117 . S
O293 C303 1.250 . S
O294 Mg291 2.079 . S
O294 C304 1.264 . S
O295 Mg291 2.072 1_655 S
O295 C305 1.260 . S
Mg296 O297 2.180 . S
Mg296 O298 2.030 1_565 S
Mg296 O299 1.990 1_565 S
Mg296 O300 2.117 . S
O297 Mg291 2.099 1_665 S
O297 Mg296 2.180 . S
O297 C306 1.279 . S
O298 Mg296 2.030 1_545 S
O298 C304 1.248 1_655 S
O299 Mg296 1.990 1_545 S
O299 C305 1.253 . S
O300 Mg296 2.117 . S
O300 C306 1.250 . S
C301 O307 1.248 . S
C301 O308 1.264 . S
C302 O288 1.253 1_665 S
C302 O290 1.260 . S
C303 O292 1.279 . S
C303 O293 1.250 . S
C304 O294 1.264 . S
C304 O298 1.248 1_455 S
C305 O295 1.260 . S
C305 O299 1.253 . S
C306 O297 1.279 . S
C306 O300 1.250 . S
O307 Mg289 2.030 1_565 S
O307 C301 1.248 . S
O308 Mg291 2.079 1_565 S
O308 C301 1.264 . S
O309 Mg310 1.990 . S
O309 C323 1.253 . S
Mg310 O309 1.990 . S
Mg310 O313 2.169 1_554 S
Mg310 O314 2.117 1_554 S
Mg310 O328 2.030 . S
O311 Mg312 2.072 . S
O311 C323 1.260 . S
Mg312 O311 2.072 . S
Mg312 O313 2.096 1_554 S
Mg312 O315 2.079 1_554 S
Mg312 O316 2.072 1_554 S
Mg312 O318 2.099 1_545 S
Mg312 O329 2.079 . S
O313 Mg310 2.169 1_556 S
O313 Mg312 2.096 1_556 S
O313 C324 1.291 . S
O314 Mg310 2.117 1_556 S
O314 C324 1.250 . S
O315 Mg312 2.079 1_556 S
O315 C325 1.264 1_545 S
O316 Mg312 2.072 1_556 S
O316 C326 1.260 1_545 S
Mg317 O318 2.180 1_556 S
Mg317 O319 2.030 . S
Mg317 O320 1.990 . S
Mg317 O321 2.117 1_556 S
O318 Mg312 2.099 1_565 S
O318 Mg317 2.180 1_554 S
O318 C327 1.279 . S
O319 Mg317 2.030 . S
O319 C325 1.248 . S
O320 Mg317 1.990 . S
O320 C326 1.253 . S
O321 Mg317 2.117 1_554 S
O321 C327 1.250 . S
C322 O328 1.248 . S
C322 O329 1.264 . S
C323 O309 1.253 . S
C323 O311 1.260 . S
C324 O313 1.291 . S
C324 O314 1.250 . S
C325 O315 1.264 1_565 S
C325 O319 1.248 . S
C326 O316 1.260 1_565 S
C326 O320 1.253 . S
C327 O318 1.279 . S
C327 O321 1.250 . S
O328 Mg310 2.030 . S
O328 C322 1.248 . S
O329 Mg312 2.079 . S
O329 C322 1.264 . S
O330 Mg331 1.990 . S
O330 C344 1.253 . S
Mg331 O330 1.990 . S
Mg331 O334 2.180 . S
Mg331 O335 2.117 . S
Mg331 O349 2.030 . S
O332 Mg333 2.072 . S
O332 C344 1.260 . S
Mg333 O332 2.072 . S
Mg333 O334 2.099 . S
Mg333 O336 2.079 . S
Mg333 O337 2.072 . S
Mg333 O339 2.099 . S
Mg333 O350 2.079 . S
O334 Mg331 2.180 . S
O334 Mg333 2.099 . S
O334 C345 1.279 . S
O335 Mg331 2.117 . S
O335 C345 1.250 . S
O336 Mg333 2.079 . S
O336 C346 1.264 . S
O337 Mg333 2.072 . S
O337 C347 1.260 . S
Mg338 O339 2.180 . S
Mg338 O340 2.030 . S
Mg338 O341 1.990 . S
Mg338 O342 2.117 . S
O339 Mg333 2.099 . S
O339 Mg338 2.180 . S
O339 C348 1.279 . S
O340 Mg338 2.030 . S
O340 C346 1.248 . S
O341 Mg338 1.990 . S
O341 C347 1.253 . S
O342 Mg338 2.117 . S
O342 C348 1.250 . S
C343 O349 1.248 . S
C343 O350 1.264 . S
C344 O330 1.253 . S
C344 O332 1.260 . S
C345 O334 1.279 . S
C345 O335 1.250 . S
C346 O336 1.264 . S
C346 O340 1.248 . S
C347 O337 1.260 . S
C347 O341 1.253 . S
C348 O339 1.279 . S
C348 O342 1.250 . S
O349 Mg331 2.030 . S
O349 C343 1.248 . S
O350 Mg333 2.079 . S
O350 C343 1.264 . S
O351 Mg352 1.990 . S
O351 C365 1.253 . S
Mg352 O351 1.990 . S
Mg352 O355 2.180 1_455 S
Mg352 O356 2.117 1_455 S
Mg352 O370 2.030 . S
O353 Mg354 2.072 . S
O353 C365 1.260 . S
Mg354 O353 2.072 . S
Mg354 O355 2.099 1_455 S
Mg354 O357 2.079 1_454 S
Mg354 O358 2.072 1_455 S
Mg354 O360 2.099 1_554 S
Mg354 O371 2.079 . S
O355 Mg352 2.180 1_655 S
O355 Mg354 2.099 1_655 S
O355 C366 1.279 . S
O356 Mg352 2.117 1_655 S
O356 C366 1.250 . S
O357 Mg354 2.079 1_656 S
O357 C367 1.264 . S
O358 Mg354 2.072 1_655 S
O358 C368 1.260 1_554 S
Mg359 O360 2.180 1_655 S
Mg359 O361 2.030 . S
Mg359 O362 1.990 . S
Mg359 O363 2.128 . S
O360 Mg354 2.099 1_556 S
O360 Mg359 2.180 1_455 S
O360 C369 1.279 . S
O361 Mg359 2.030 . S
O361 C367 1.248 . S
O362 Mg359 1.990 . S
O362 C368 1.253 . S
O363 Mg359 2.128 . S
O363 C369 1.240 1_655 S
C364 O370 1.248 . S
C364 O371 1.264 . S
C365 O351 1.253 . S
C365 O353 1.260 . S
C366 O355 1.279 . S
C366 O356 1.250 . S
C367 O357 1.264 . S
C367 O361 1.248 . S
C368 O358 1.260 1_556 S
C368 O362 1.253 . S
C369 O360 1.279 . S
C369 O363 1.240 1_455 S
O370 Mg352 2.030 . S
O370 C364 1.248 . S
O371 Mg354 2.079 . S
O371 C364 1.264 . S
C372 C373 1.349 . S
C372 C374 1.327 . S
C372 H397 0.950 . S
C373 C372 1.349 . S
C373 C389 1.349 . S
C374 C372 1.327 . S
C374 C393 1.429 . S
C374 H398 0.950 . S
C375 C392 1.574 . S
C375 C394 1.368 . S
C375 H399 0.949 . S
H376 C380 0.949 . S
C377 C378 1.349 . S
C377 C379 1.327 . S
C377 H400 0.950 . S
C378 C377 1.349 . S
C378 C390 1.349 . S
C379 C377 1.327 . S
C379 C395 1.429 . S
C379 H401 0.950 . S
C380 H376 0.949 . S
C380 C388 1.574 . S
C380 C396 1.368 . S
H381 C389 0.950 . S
H382 C387 0.950 . S
H383 C388 0.949 . S
H384 C390 0.950 . S
H385 C391 0.950 . S
H386 C392 0.949 . S
C387 H382 0.950 . S
C387 C389 1.327 . S
C387 C393 1.429 . S
C388 C380 1.574 . S
C388 H383 0.949 . S
C388 C394 1.368 . S
C389 C373 1.349 . S
C389 H381 0.950 . S
C389 C387 1.327 . S
C390 C378 1.349 . S
C390 H384 0.950 . S
C390 C391 1.327 . S
C391 H385 0.950 . S
C391 C390 1.327 . S
C391 C395 1.429 . S
C392 C375 1.574 . S
C392 H386 0.949 . S
C392 C396 1.368 . S
C393 C374 1.429 . S
C393 C387 1.429 . S
C393 C394 1.523 . S
C394 C375 1.368 . S
C394 C388 1.368 . S
C394 C393 1.523 . S
C395 C379 1.429 . S
C395 C391 1.429 . S
C395 C396 1.523 . S
C396 C380 1.368 . S
C396 C392 1.368 . S
C396 C395 1.523 . S
H397 C372 0.950 . S
H398 C374 0.950 . S
H399 C375 0.949 . S
H400 C377 0.950 . S
H401 C379 0.950 . S
C402 C403 1.349 . S
C402 C404 1.327 . S
C402 H427 0.950 . S
C403 C402 1.349 . S
C403 C419 1.349 . S
C404 C402 1.327 . S
C404 C423 1.429 . S
C404 H428 0.950 . S
C405 C422 1.574 . S
C405 C424 1.368 . S
C405 H429 0.949 . S
H406 C410 0.949 . S
C407 C408 1.349 . S
C407 C409 1.327 . S
C407 H430 0.950 . S
C408 C407 1.349 . S
C408 C420 1.356 . S
C409 C407 1.327 . S
C409 C425 1.429 . S
C409 H431 0.950 . S
C410 H406 0.949 . S
C410 C418 1.574 . S
C410 C426 1.368 . S
H411 C419 0.950 . S
H412 C417 0.950 . S
H413 C418 0.949 . S
H414 C420 0.937 1_545 S
H415 C421 0.950 . S
H416 C422 0.949 . S
C417 H412 0.950 . S
C417 C419 1.327 . S
C417 C423 1.429 . S
C418 C410 1.574 . S
C418 H413 0.949 . S
C418 C424 1.368 . S
C419 C403 1.349 . S
C419 H411 0.950 . S
C419 C417 1.327 . S
C420 C408 1.356 . S
C420 H414 0.937 1_565 S
C420 C421 1.332 . S
C421 H415 0.950 . S
C421 C420 1.332 . S
C421 C425 1.429 . S
C422 C405 1.574 . S
C422 H416 0.949 . S
C422 C426 1.368 . S
C423 C404 1.429 . S
C423 C417 1.429 . S
C423 C424 1.523 . S
C424 C405 1.368 . S
C424 C418 1.368 . S
C424 C423 1.523 . S
C425 C409 1.429 . S
C425 C421 1.429 . S
C425 C426 1.523 . S
C426 C410 1.368 . S
C426 C422 1.368 . S
C426 C425 1.523 . S
H427 C402 0.950 . S
H428 C404 0.950 . S
H429 C405 0.949 . S
H430 C407 0.950 . S
H431 C409 0.950 . S
C432 C433 1.349 . S
C432 C434 1.327 . S
C432 H457 0.950 . S
C433 C432 1.349 . S
C433 C449 1.349 . S
C434 C432 1.327 . S
C434 C453 1.429 . S
C434 H458 0.950 . S
C435 C452 1.574 . S
C435 C454 1.368 . S
C435 H459 0.949 . S
H436 C440 0.949 . S
C437 C438 1.349 . S
C437 C439 1.327 . S
C437 H460 0.950 . S
C438 C437 1.349 . S
C438 C450 1.349 . S
C439 C437 1.327 . S
C439 C455 1.429 . S
C439 H461 0.950 . S
C440 H436 0.949 . S
C440 C448 1.574 . S
C440 C456 1.368 . S
H441 C449 0.950 . S
H442 C447 0.950 . S
H443 C448 0.949 . S
H444 C450 0.950 . S
H445 C451 0.950 . S
H446 C452 0.949 . S
C447 H442 0.950 . S
C447 C449 1.327 . S
C447 C453 1.429 . S
C448 C440 1.574 . S
C448 H443 0.949 . S
C448 C454 1.368 . S
C449 C433 1.349 . S
C449 H441 0.950 . S
C449 C447 1.327 . S
C450 C438 1.349 . S
C450 H444 0.950 . S
C450 C451 1.327 . S
C451 H445 0.950 . S
C451 C450 1.327 . S
C451 C455 1.429 . S
C452 C435 1.574 . S
C452 H446 0.949 . S
C452 C456 1.368 . S
C453 C434 1.429 . S
C453 C447 1.429 . S
C453 C454 1.523 . S
C454 C435 1.368 . S
C454 C448 1.368 . S
C454 C453 1.523 . S
C455 C439 1.429 . S
C455 C451 1.429 . S
C455 C456 1.523 . S
C456 C440 1.368 . S
C456 C452 1.368 . S
C456 C455 1.523 . S
H457 C432 0.950 . S
H458 C434 0.950 . S
H459 C435 0.949 . S
H460 C437 0.950 . S
H461 C439 0.950 . S
C462 C463 1.349 . S
C462 C464 1.327 . S
C462 H487 0.950 . S
C463 C462 1.349 . S
C463 C479 1.349 . S
C464 C462 1.327 . S
C464 C483 1.429 . S
C464 H488 0.950 . S
C465 C482 1.574 . S
C465 C484 1.368 . S
C465 H489 0.949 . S
H466 C470 0.949 . S
C467 C468 1.349 . S
C467 C469 1.327 . S
C467 H490 0.950 . S
C468 C467 1.349 . S
C468 C480 1.349 . S
C469 C467 1.327 . S
C469 C485 1.429 . S
C469 H491 0.950 . S
C470 H466 0.949 . S
C470 C478 1.574 . S
C470 C486 1.368 . S
H471 C479 0.950 . S
H472 C477 0.950 . S
H473 C478 0.949 . S
H474 C480 0.950 . S
H475 C481 0.950 . S
H476 C482 0.949 . S
C477 H472 0.950 . S
C477 C479 1.327 . S
C477 C483 1.429 . S
C478 C470 1.574 . S
C478 H473 0.949 . S
C478 C484 1.368 . S
C479 C463 1.349 . S
C479 H471 0.950 . S
C479 C477 1.327 . S
C480 C468 1.349 . S
C480 H474 0.950 . S
C480 C481 1.327 . S
C481 H475 0.950 . S
C481 C480 1.327 . S
C481 C485 1.429 . S
C482 C465 1.574 . S
C482 H476 0.949 . S
C482 C486 1.368 . S
C483 C464 1.429 . S
C483 C477 1.429 . S
C483 C484 1.523 . S
C484 C465 1.368 . S
C484 C478 1.368 . S
C484 C483 1.523 . S
C485 C469 1.429 . S
C485 C481 1.429 . S
C485 C486 1.523 . S
C486 C470 1.368 . S
C486 C482 1.368 . S
C486 C485 1.523 . S
H487 C462 0.950 . S
H488 C464 0.950 . S
H489 C465 0.949 . S
H490 C467 0.950 . S
H491 C469 0.950 . S
C492 C493 1.349 . S
C492 C494 1.327 . S
C492 H517 0.950 . S
C493 C492 1.349 . S
C493 C509 1.349 . S
C494 C492 1.327 . S
C494 C513 1.429 . S
C494 H518 0.950 . S
C495 C512 1.574 . S
C495 C514 1.368 . S
C495 H519 0.949 . S
H496 C500 0.949 . S
C497 C498 1.349 . S
C497 C499 1.327 . S
C497 H520 0.950 . S
C498 C497 1.349 . S
C498 C510 1.349 . S
C499 C497 1.327 . S
C499 C515 1.429 . S
C499 H521 0.950 . S
C500 H496 0.949 . S
C500 C508 1.574 . S
C500 C516 1.368 . S
H501 C509 0.950 . S
H502 C507 0.950 . S
H503 C508 0.949 . S
H504 C510 0.950 . S
H505 C511 0.950 . S
H506 C512 0.949 . S
C507 H502 0.950 . S
C507 C509 1.327 . S
C507 C513 1.429 . S
C508 C500 1.574 . S
C508 H503 0.949 . S
C508 C514 1.368 . S
C509 C493 1.349 . S
C509 H501 0.950 . S
C509 C507 1.327 . S
C510 C498 1.349 . S
C510 H504 0.950 . S
C510 C511 1.327 . S
C511 H505 0.950 . S
C511 C510 1.327 . S
C511 C515 1.429 . S
C512 C495 1.574 . S
C512 H506 0.949 . S
C512 C516 1.368 . S
C513 C494 1.429 . S
C513 C507 1.429 . S
C513 C514 1.523 . S
C514 C495 1.368 . S
C514 C508 1.368 . S
C514 C513 1.523 . S
C515 C499 1.429 . S
C515 C511 1.429 . S
C515 C516 1.523 . S
C516 C500 1.368 . S
C516 C512 1.368 . S
C516 C515 1.523 . S
H517 C492 0.950 . S
H518 C494 0.950 . S
H519 C495 0.949 . S
H520 C497 0.950 . S
H521 C499 0.950 . S
C522 C523 1.349 . S
C522 C524 1.327 . S
C522 H547 0.950 . S
C523 C522 1.349 . S
C523 C539 1.349 . S
C524 C522 1.327 . S
C524 C543 1.429 . S
C524 H548 0.950 . S
C525 C542 1.574 . S
C525 C544 1.368 . S
C525 H549 0.949 . S
H526 C530 0.949 . S
C527 C528 1.349 . S
C527 C529 1.327 . S
C527 H550 0.950 . S
C528 C527 1.349 . S
C528 C540 1.349 . S
C529 C527 1.327 . S
C529 C545 1.429 . S
C529 H551 0.950 . S
C530 H526 0.949 . S
C530 C538 1.574 . S
C530 C546 1.368 . S
H531 C539 0.950 . S
H532 C537 0.950 . S
H533 C538 0.949 . S
H534 C540 0.950 1_545 S
H535 C541 0.950 . S
H536 C542 0.949 . S
C537 H532 0.950 . S
C537 C539 1.327 . S
C537 C543 1.429 . S
C538 C530 1.574 . S
C538 H533 0.949 . S
C538 C544 1.368 . S
C539 C523 1.349 . S
C539 H531 0.950 . S
C539 C537 1.327 . S
C540 C528 1.349 . S
C540 H534 0.950 1_565 S
C540 C541 1.327 . S
C541 H535 0.950 . S
C541 C540 1.327 . S
C541 C545 1.429 . S
C542 C525 1.574 . S
C542 H536 0.949 . S
C542 C546 1.368 . S
C543 C524 1.429 . S
C543 C537 1.429 . S
C543 C544 1.523 . S
C544 C525 1.368 . S
C544 C538 1.368 . S
C544 C543 1.523 . S
C545 C529 1.429 . S
C545 C541 1.429 . S
C545 C546 1.523 . S
C546 C530 1.368 . S
C546 C542 1.368 . S
C546 C545 1.523 . S
H547 C522 0.950 . S
H548 C524 0.950 . S
H549 C525 0.949 . S
H550 C527 0.950 . S
H551 C529 0.950 . S
C552 C553 1.349 . S
C552 C554 1.327 . S
C552 H577 0.950 . S
C553 C552 1.349 . S
C553 C569 1.349 . S
C554 C552 1.327 . S
C554 C573 1.429 . S
C554 H578 0.950 . S
C555 C572 1.574 . S
C555 C574 1.368 . S
C555 H579 0.949 . S
H556 C560 0.949 . S
C557 C558 1.349 . S
C557 C559 1.327 . S
C557 H580 0.950 . S
C558 C557 1.349 . S
C558 C570 1.349 . S
C559 C557 1.327 . S
C559 C575 1.429 . S
C559 H581 0.950 . S
C560 H556 0.949 . S
C560 C568 1.574 . S
C560 C576 1.368 . S
H561 C569 0.950 . S
H562 C567 0.950 . S
H563 C568 0.949 . S
H564 C570 0.950 . S
H565 C571 0.950 . S
H566 C572 0.949 . S
C567 H562 0.950 . S
C567 C569 1.327 . S
C567 C573 1.429 . S
C568 C560 1.574 . S
C568 H563 0.949 . S
C568 C574 1.368 . S
C569 C553 1.349 . S
C569 H561 0.950 . S
C569 C567 1.327 . S
C570 C558 1.349 . S
C570 H564 0.950 . S
C570 C571 1.327 . S
C571 H565 0.950 . S
C571 C570 1.327 . S
C571 C575 1.429 . S
C572 C555 1.574 . S
C572 H566 0.949 . S
C572 C576 1.368 . S
C573 C554 1.429 . S
C573 C567 1.429 . S
C573 C574 1.523 . S
C574 C555 1.368 . S
C574 C568 1.368 . S
C574 C573 1.523 . S
C575 C559 1.429 . S
C575 C571 1.429 . S
C575 C576 1.523 . S
C576 C560 1.368 . S
C576 C572 1.368 . S
C576 C575 1.523 . S
H577 C552 0.950 . S
H578 C554 0.950 . S
H579 C555 0.949 . S
H580 C557 0.950 . S
H581 C559 0.950 . S
C582 C583 1.349 . S
C582 C584 1.327 . S
C582 H607 0.950 . S
C583 C582 1.349 . S
C583 C599 1.349 . S
C584 C582 1.327 . S
C584 C603 1.429 . S
C584 H608 0.950 . S
C585 C602 1.574 . S
C585 C604 1.368 . S
C585 H609 0.949 . S
H586 C590 0.949 . S
C587 C588 1.349 . S
C587 C589 1.327 . S
C587 H610 0.950 . S
C588 C587 1.349 . S
C588 C600 1.349 . S
C589 C587 1.327 . S
C589 C605 1.429 . S
C589 H611 0.950 . S
C590 H586 0.949 . S
C590 C598 1.574 . S
C590 C606 1.368 . S
H591 C599 0.950 . S
H592 C597 0.950 . S
H593 C598 0.949 . S
H594 C600 0.950 . S
H595 C601 0.950 . S
H596 C602 0.949 . S
C597 H592 0.950 . S
C597 C599 1.327 . S
C597 C603 1.429 . S
C598 C590 1.574 . S
C598 H593 0.949 . S
C598 C604 1.368 . S
C599 C583 1.349 . S
C599 H591 0.950 . S
C599 C597 1.327 . S
C600 C588 1.349 . S
C600 H594 0.950 . S
C600 C601 1.327 . S
C601 H595 0.950 . S
C601 C600 1.327 . S
C601 C605 1.429 . S
C602 C585 1.574 . S
C602 H596 0.949 . S
C602 C606 1.368 . S
C603 C584 1.429 . S
C603 C597 1.429 . S
C603 C604 1.523 . S
C604 C585 1.368 . S
C604 C598 1.368 . S
C604 C603 1.523 . S
C605 C589 1.429 . S
C605 C601 1.429 . S
C605 C606 1.523 . S
C606 C590 1.368 . S
C606 C602 1.368 . S
C606 C605 1.523 . S
H607 C582 0.950 . S
H608 C584 0.950 . S
H609 C585 0.949 . S
H610 C587 0.950 . S
H611 C589 0.950 . S
C612 C613 1.349 . S
C612 C614 1.327 . S
C612 H637 0.950 . S
C613 C612 1.349 . S
C613 C629 1.349 . S
C614 C612 1.327 . S
C614 C633 1.429 . S
C614 H638 0.950 . S
C615 C632 1.574 . S
C615 C634 1.368 . S
C615 H639 0.949 . S
H616 C620 0.949 . S
C617 C618 1.349 . S
C617 C619 1.327 . S
C617 H640 0.950 . S
C618 C617 1.349 . S
C618 C630 1.349 . S
C619 C617 1.327 . S
C619 C635 1.429 . S
C619 H641 0.950 . S
C620 H616 0.949 . S
C620 C628 1.574 . S
C620 C636 1.368 . S
H621 C629 0.950 . S
H622 C627 0.950 . S
H623 C628 0.949 . S
H624 C630 0.963 . S
H625 C631 0.950 . S
H626 C632 0.949 . S
C627 H622 0.950 . S
C627 C629 1.327 . S
C627 C633 1.429 . S
C628 C620 1.574 . S
C628 H623 0.949 . S
C628 C634 1.368 . S
C629 C613 1.349 . S
C629 H621 0.950 . S
C629 C627 1.327 . S
C630 C618 1.349 . S
C630 H624 0.963 . S
C630 C631 1.327 . S
C631 H625 0.950 . S
C631 C630 1.327 . S
C631 C635 1.429 . S
C632 C615 1.574 . S
C632 H626 0.949 . S
C632 C636 1.368 . S
C633 C614 1.429 . S
C633 C627 1.429 . S
C633 C634 1.523 . S
C634 C615 1.368 . S
C634 C628 1.368 . S
C634 C633 1.523 . S
C635 C619 1.429 . S
C635 C631 1.429 . S
C635 C636 1.523 . S
C636 C620 1.368 . S
C636 C632 1.368 . S
C636 C635 1.523 . S
H637 C612 0.950 . S
H638 C614 0.950 . S
H639 C615 0.949 . S
H640 C617 0.950 . S
H641 C619 0.950 . S
C642 C643 1.349 . S
C642 C644 1.327 . S
C642 H667 0.950 . S
C643 C642 1.349 . S
C643 C659 1.349 . S
C644 C642 1.327 . S
C644 C663 1.429 . S
C644 H668 0.950 . S
C645 C662 1.574 . S
C645 C664 1.368 . S
C645 H669 0.949 . S
H646 C650 0.949 . S
C647 C648 1.349 . S
C647 C649 1.327 . S
C647 H670 0.950 . S
C648 C647 1.349 . S
C648 C660 1.349 . S
C649 C647 1.327 . S
C649 C665 1.429 . S
C649 H671 0.950 . S
C650 H646 0.949 . S
C650 C658 1.574 . S
C650 C666 1.368 . S
H651 C659 0.950 . S
H652 C657 0.950 . S
H653 C658 0.949 . S
H654 C660 0.950 . S
H655 C661 0.950 . S
H656 C662 0.949 . S
C657 H652 0.950 . S
C657 C659 1.327 . S
C657 C663 1.429 . S
C658 C650 1.574 . S
C658 H653 0.949 . S
C658 C664 1.368 . S
C659 C643 1.349 . S
C659 H651 0.950 . S
C659 C657 1.327 . S
C660 C648 1.349 . S
C660 H654 0.950 . S
C660 C661 1.327 . S
C661 H655 0.950 . S
C661 C660 1.327 . S
C661 C665 1.429 . S
C662 C645 1.574 . S
C662 H656 0.949 . S
C662 C666 1.368 . S
C663 C644 1.429 . S
C663 C657 1.429 . S
C663 C664 1.523 . S
C664 C645 1.368 . S
C664 C658 1.368 . S
C664 C663 1.523 . S
C665 C649 1.429 . S
C665 C661 1.429 . S
C665 C666 1.523 . S
C666 C650 1.368 . S
C666 C662 1.368 . S
C666 C665 1.523 . S
H667 C642 0.950 . S
H668 C644 0.950 . S
H669 C645 0.949 . S
H670 C647 0.950 . S
H671 C649 0.950 . S
C672 C673 1.349 . S
C672 C674 1.327 . S
C672 H697 0.950 . S
C673 C672 1.349 . S
C673 C689 1.349 . S
C674 C672 1.327 . S
C674 C693 1.429 . S
C674 H698 0.950 . S
C675 C692 1.574 . S
C675 C694 1.368 . S
C675 H699 0.949 . S
H676 C680 0.949 . S
C677 C678 1.349 . S
C677 C679 1.327 . S
C677 H700 0.950 . S
C678 C677 1.349 . S
C678 C690 1.349 . S
C679 C677 1.327 . S
C679 C695 1.429 . S
C679 H701 0.950 . S
C680 H676 0.949 . S
C680 C688 1.574 . S
C680 C696 1.368 . S
H681 C689 0.950 . S
H682 C687 0.950 . S
H683 C688 0.949 . S
H684 C690 0.950 . S
H685 C691 0.950 . S
H686 C692 0.949 . S
C687 H682 0.950 . S
C687 C689 1.327 . S
C687 C693 1.429 . S
C688 C680 1.574 . S
C688 H683 0.949 . S
C688 C694 1.368 . S
C689 C673 1.349 . S
C689 H681 0.950 . S
C689 C687 1.327 . S
C690 C678 1.349 . S
C690 H684 0.950 . S
C690 C691 1.327 . S
C691 H685 0.950 . S
C691 C690 1.327 . S
C691 C695 1.429 . S
C692 C675 1.574 . S
C692 H686 0.949 . S
C692 C696 1.368 . S
C693 C674 1.429 . S
C693 C687 1.429 . S
C693 C694 1.523 . S
C694 C675 1.368 . S
C694 C688 1.368 . S
C694 C693 1.523 . S
C695 C679 1.429 . S
C695 C691 1.429 . S
C695 C696 1.523 . S
C696 C680 1.368 . S
C696 C692 1.368 . S
C696 C695 1.523 . S
H697 C672 0.950 . S
H698 C674 0.950 . S
H699 C675 0.949 . S
H700 C677 0.950 . S
H701 C679 0.950 . S
C702 C703 1.349 . S
C702 C704 1.327 . S
C702 H727 0.950 . S
C703 C702 1.349 . S
C703 C719 1.349 . S
C704 C702 1.327 . S
C704 C723 1.429 . S
C704 H728 0.950 . S
C705 C722 1.574 . S
C705 C724 1.368 . S
C705 H729 0.949 . S
H706 C710 0.949 . S
C707 C708 1.349 . S
C707 C709 1.327 . S
C707 H730 0.950 . S
C708 C707 1.349 . S
C708 C720 1.349 . S
C709 C707 1.327 . S
C709 C725 1.429 . S
C709 H731 0.950 . S
C710 H706 0.949 . S
C710 C718 1.574 . S
C710 C726 1.368 . S
H711 C719 0.950 . S
H712 C717 0.950 . S
H713 C718 0.949 . S
H714 C720 0.950 . S
H715 C721 0.950 . S
H716 C722 0.949 . S
C717 H712 0.950 . S
C717 C719 1.327 . S
C717 C723 1.429 . S
C718 C710 1.574 . S
C718 H713 0.949 . S
C718 C724 1.368 . S
C719 C703 1.349 . S
C719 H711 0.950 . S
C719 C717 1.327 . S
C720 C708 1.349 . S
C720 H714 0.950 . S
C720 C721 1.327 . S
C721 H715 0.950 . S
C721 C720 1.327 . S
C721 C725 1.429 . S
C722 C705 1.574 . S
C722 H716 0.949 . S
C722 C726 1.368 . S
C723 C704 1.429 . S
C723 C717 1.429 . S
C723 C724 1.523 . S
C724 C705 1.368 . S
C724 C718 1.368 . S
C724 C723 1.523 . S
C725 C709 1.429 . S
C725 C721 1.429 . S
C725 C726 1.523 . S
C726 C710 1.368 . S
C726 C722 1.368 . S
C726 C725 1.523 . S
H727 C702 0.950 . S
H728 C704 0.950 . S
H729 C705 0.949 . S
H730 C707 0.950 . S
H731 C709 0.950 . S
C732 C733 1.349 . S
C732 C734 1.327 . S
C732 H757 0.950 . S
C733 C732 1.349 . S
C733 C749 1.349 . S
C734 C732 1.327 . S
C734 C753 1.429 . S
C734 H758 0.950 . S
C735 C752 1.574 . S
C735 C754 1.368 . S
C735 H759 0.949 . S
H736 C740 0.949 . S
C737 C738 1.349 . S
C737 C739 1.327 . S
C737 H760 0.950 1_565 S
C738 C737 1.349 . S
C738 C750 1.349 . S
C739 C737 1.327 . S
C739 C755 1.429 . S
C739 H761 0.950 . S
C740 H736 0.949 . S
C740 C748 1.574 . S
C740 C756 1.368 . S
H741 C749 0.950 . S
H742 C747 0.950 . S
H743 C748 0.949 . S
H744 C750 0.950 . S
H745 C751 0.950 . S
H746 C752 0.949 . S
C747 H742 0.950 . S
C747 C749 1.327 . S
C747 C753 1.429 . S
C748 C740 1.574 . S
C748 H743 0.949 . S
C748 C754 1.368 . S
C749 C733 1.349 . S
C749 H741 0.950 . S
C749 C747 1.327 . S
C750 C738 1.349 . S
C750 H744 0.950 . S
C750 C751 1.327 . S
C751 H745 0.950 . S
C751 C750 1.327 . S
C751 C755 1.429 . S
C752 C735 1.574 . S
C752 H746 0.949 . S
C752 C756 1.368 . S
C753 C734 1.429 . S
C753 C747 1.429 . S
C753 C754 1.523 . S
C754 C735 1.368 . S
C754 C748 1.368 . S
C754 C753 1.523 . S
C755 C739 1.429 . S
C755 C751 1.429 . S
C755 C756 1.523 . S
C756 C740 1.368 . S
C756 C752 1.368 . S
C756 C755 1.523 . S
H757 C732 0.950 . S
H758 C734 0.950 . S
H759 C735 0.949 . S
H760 C737 0.950 1_545 S
H761 C739 0.950 . S
C762 C763 1.349 . S
C762 C764 1.327 . S
C762 H787 0.950 . S
C763 C762 1.349 . S
C763 C779 1.349 . S
C764 C762 1.327 . S
C764 C783 1.429 . S
C764 H788 0.950 . S
C765 C782 1.574 . S
C765 C784 1.368 . S
C765 H789 0.949 . S
H766 C770 0.949 . S
C767 C768 1.349 . S
C767 C769 1.327 . S
C767 H790 0.953 1_545 S
C768 C767 1.349 . S
C768 C780 1.349 . S
C769 C767 1.327 . S
C769 C785 1.429 . S
C769 H791 0.950 . S
C770 H766 0.949 . S
C770 C778 1.574 . S
C770 C786 1.368 . S
H771 C779 0.950 . S
H772 C777 0.950 . S
H773 C778 0.949 . S
H774 C780 0.950 . S
H775 C781 0.950 . S
H776 C782 0.949 . S
C777 H772 0.950 . S
C777 C779 1.327 . S
C777 C783 1.429 . S
C778 C770 1.574 . S
C778 H773 0.949 . S
C778 C784 1.368 . S
C779 C763 1.349 . S
C779 H771 0.950 . S
C779 C777 1.327 . S
C780 C768 1.349 . S
C780 H774 0.950 . S
C780 C781 1.327 . S
C781 H775 0.950 . S
C781 C780 1.327 . S
C781 C785 1.429 . S
C782 C765 1.574 . S
C782 H776 0.949 . S
C782 C786 1.368 . S
C783 C764 1.429 . S
C783 C777 1.429 . S
C783 C784 1.523 . S
C784 C765 1.368 . S
C784 C778 1.368 . S
C784 C783 1.523 . S
C785 C769 1.429 . S
C785 C781 1.429 . S
C785 C786 1.523 . S
C786 C770 1.368 . S
C786 C782 1.368 . S
C786 C785 1.523 . S
H787 C762 0.950 . S
H788 C764 0.950 . S
H789 C765 0.949 . S
H790 C767 0.953 1_565 S
H791 C769 0.950 . S
C792 C793 1.349 . S
C792 C794 1.327 . S
C792 H817 0.950 . S
C793 C792 1.349 . S
C793 C809 1.349 . S
C794 C792 1.327 . S
C794 C813 1.429 . S
C794 H818 0.950 . S
C795 C812 1.574 . S
C795 C814 1.368 . S
C795 H819 0.949 . S
H796 C800 0.949 . S
C797 C798 1.349 . S
C797 C799 1.327 . S
C797 H820 0.950 . S
C798 C797 1.349 . S
C798 C810 1.349 . S
C799 C797 1.327 . S
C799 C815 1.429 . S
C799 H821 0.950 . S
C800 H796 0.949 . S
C800 C808 1.574 . S
C800 C816 1.368 . S
H801 C809 0.950 . S
H802 C807 0.950 . S
H803 C808 0.949 . S
H804 C810 0.950 . S
H805 C811 0.950 . S
H806 C812 0.949 . S
C807 H802 0.950 . S
C807 C809 1.327 . S
C807 C813 1.429 . S
C808 C800 1.574 . S
C808 H803 0.949 . S
C808 C814 1.368 . S
C809 C793 1.349 . S
C809 H801 0.950 . S
C809 C807 1.327 . S
C810 C798 1.349 . S
C810 H804 0.950 . S
C810 C811 1.327 . S
C811 H805 0.950 . S
C811 C810 1.327 . S
C811 C815 1.429 . S
C812 C795 1.574 . S
C812 H806 0.949 . S
C812 C816 1.368 . S
C813 C794 1.429 . S
C813 C807 1.429 . S
C813 C814 1.523 . S
C814 C795 1.368 . S
C814 C808 1.368 . S
C814 C813 1.523 . S
C815 C799 1.429 . S
C815 C811 1.429 . S
C815 C816 1.523 . S
C816 C800 1.368 . S
C816 C812 1.368 . S
C816 C815 1.523 . S
H817 C792 0.950 . S
H818 C794 0.950 . S
H819 C795 0.949 . S
H820 C797 0.950 . S
H821 C799 0.950 . S
C822 C823 1.349 . S
C822 C824 1.327 . S
C822 H847 0.950 . S
C823 C822 1.349 . S
C823 C839 1.349 . S
C824 C822 1.327 . S
C824 C843 1.429 . S
C824 H848 0.950 . S
C825 C842 1.574 . S
C825 C844 1.368 . S
C825 H849 0.949 . S
H826 C830 0.949 . S
C827 C828 1.349 . S
C827 C829 1.327 . S
C827 H850 0.950 . S
C828 C827 1.349 . S
C828 C840 1.349 . S
C829 C827 1.327 . S
C829 C845 1.429 . S
C829 H851 0.950 . S
C830 H826 0.949 . S
C830 C838 1.574 . S
C830 C846 1.368 . S
H831 C839 0.950 . S
H832 C837 0.950 . S
H833 C838 0.949 . S
H834 C840 0.950 . S
H835 C841 0.950 . S
H836 C842 0.949 . S
C837 H832 0.950 . S
C837 C839 1.327 . S
C837 C843 1.429 . S
C838 C830 1.574 . S
C838 H833 0.949 . S
C838 C844 1.368 . S
C839 C823 1.349 . S
C839 H831 0.950 . S
C839 C837 1.327 . S
C840 C828 1.349 . S
C840 H834 0.950 . S
C840 C841 1.327 . S
C841 H835 0.950 . S
C841 C840 1.327 . S
C841 C845 1.429 . S
C842 C825 1.574 . S
C842 H836 0.949 . S
C842 C846 1.368 . S
C843 C824 1.429 . S
C843 C837 1.429 . S
C843 C844 1.523 . S
C844 C825 1.368 . S
C844 C838 1.368 . S
C844 C843 1.523 . S
C845 C829 1.429 . S
C845 C841 1.429 . S
C845 C846 1.523 . S
C846 C830 1.368 . S
C846 C842 1.368 . S
C846 C845 1.523 . S
H847 C822 0.950 . S
H848 C824 0.950 . S
H849 C825 0.949 . S
H850 C827 0.950 . S
H851 C829 0.950 . S
C852 C853 1.349 . S
C852 C854 1.327 . S
C852 H877 0.950 . S
C853 C852 1.349 . S
C853 C869 1.349 . S
C854 C852 1.327 . S
C854 C873 1.429 . S
C854 H878 0.950 . S
C855 C872 1.574 . S
C855 C874 1.368 . S
C855 H879 0.949 . S
H856 C860 0.949 . S
C857 C858 1.349 . S
C857 C859 1.327 . S
C857 H880 0.950 . S
C858 C857 1.349 . S
C858 C870 1.349 . S
C859 C857 1.327 . S
C859 C875 1.429 . S
C859 H881 0.950 . S
C860 H856 0.949 . S
C860 C868 1.574 . S
C860 C876 1.368 . S
H861 C869 0.950 . S
H862 C867 0.950 . S
H863 C868 0.949 . S
H864 C870 0.950 1_554 S
H865 C871 0.950 . S
H866 C872 0.949 . S
C867 H862 0.950 . S
C867 C869 1.327 . S
C867 C873 1.429 . S
C868 C860 1.574 . S
C868 H863 0.949 . S
C868 C874 1.368 . S
C869 C853 1.349 . S
C869 H861 0.950 . S
C869 C867 1.327 . S
C870 C858 1.349 . S
C870 H864 0.950 1_556 S
C870 C871 1.327 . S
C871 H865 0.950 . S
C871 C870 1.327 . S
C871 C875 1.429 . S
C872 C855 1.574 . S
C872 H866 0.949 . S
C872 C876 1.368 . S
C873 C854 1.429 . S
C873 C867 1.429 . S
C873 C874 1.523 . S
C874 C855 1.368 . S
C874 C868 1.368 . S
C874 C873 1.523 . S
C875 C859 1.429 . S
C875 C871 1.429 . S
C875 C876 1.523 . S
C876 C860 1.368 . S
C876 C872 1.368 . S
C876 C875 1.523 . S
H877 C852 0.950 . S
H878 C854 0.950 . S
H879 C855 0.949 . S
H880 C857 0.950 . S
H881 C859 0.950 . S
C882 C883 1.349 . S
C882 C884 1.327 . S
C882 H907 0.950 . S
C883 C882 1.349 . S
C883 C899 1.349 . S
C884 C882 1.327 . S
C884 C903 1.429 . S
C884 H908 0.950 . S
C885 C902 1.574 . S
C885 C904 1.368 . S
C885 H909 0.949 . S
H886 C890 0.949 . S
C887 C888 1.349 . S
C887 C889 1.327 . S
C887 H910 0.950 . S
C888 C887 1.349 . S
C888 C900 1.349 . S
C889 C887 1.327 . S
C889 C905 1.429 . S
C889 H911 0.950 . S
C890 H886 0.949 . S
C890 C898 1.574 . S
C890 C906 1.368 . S
H891 C899 0.950 . S
H892 C897 0.950 . S
H893 C898 0.949 . S
H894 C900 0.950 . S
H895 C901 0.950 . S
H896 C902 0.949 . S
C897 H892 0.950 . S
C897 C899 1.327 . S
C897 C903 1.429 . S
C898 C890 1.574 . S
C898 H893 0.949 . S
C898 C904 1.368 . S
C899 C883 1.349 . S
C899 H891 0.950 . S
C899 C897 1.327 . S
C900 C888 1.349 . S
C900 H894 0.950 . S
C900 C901 1.327 . S
C901 H895 0.950 . S
C901 C900 1.327 . S
C901 C905 1.429 . S
C902 C885 1.574 . S
C902 H896 0.949 . S
C902 C906 1.368 . S
C903 C884 1.429 . S
C903 C897 1.429 . S
C903 C904 1.523 . S
C904 C885 1.368 . S
C904 C898 1.368 . S
C904 C903 1.523 . S
C905 C889 1.429 . S
C905 C901 1.429 . S
C905 C906 1.523 . S
C906 C890 1.368 . S
C906 C902 1.368 . S
C906 C905 1.523 . S
H907 C882 0.950 . S
H908 C884 0.950 . S
H909 C885 0.949 . S
H910 C887 0.950 . S
H911 C889 0.950 . S
C912 C913 1.349 . S
C912 C914 1.327 . S
C912 H937 0.950 . S
C913 C912 1.349 . S
C913 C929 1.349 . S
C914 C912 1.327 . S
C914 C933 1.429 . S
C914 H938 0.950 . S
C915 C932 1.574 . S
C915 C934 1.368 . S
C915 H939 0.949 . S
H916 C920 0.949 . S
C917 C918 1.349 . S
C917 C919 1.327 . S
C917 H940 0.950 1_554 S
C918 C917 1.349 . S
C918 C930 1.349 . S
C919 C917 1.327 . S
C919 C935 1.429 . S
C919 H941 0.950 . S
C920 H916 0.949 . S
C920 C928 1.574 . S
C920 C936 1.368 . S
H921 C929 0.950 . S
H922 C927 0.950 . S
H923 C928 0.949 . S
H924 C930 0.950 . S
H925 C931 0.950 . S
H926 C932 0.949 . S
C927 H922 0.950 . S
C927 C929 1.327 . S
C927 C933 1.429 . S
C928 C920 1.574 . S
C928 H923 0.949 . S
C928 C934 1.368 . S
C929 C913 1.349 . S
C929 H921 0.950 . S
C929 C927 1.327 . S
C930 C918 1.349 . S
C930 H924 0.950 . S
C930 C931 1.327 . S
C931 H925 0.950 . S
C931 C930 1.327 . S
C931 C935 1.429 . S
C932 C915 1.574 . S
C932 H926 0.949 . S
C932 C936 1.368 . S
C933 C914 1.429 . S
C933 C927 1.429 . S
C933 C934 1.523 . S
C934 C915 1.368 . S
C934 C928 1.368 . S
C934 C933 1.523 . S
C935 C919 1.429 . S
C935 C931 1.429 . S
C935 C936 1.523 . S
C936 C920 1.368 . S
C936 C932 1.368 . S
C936 C935 1.523 . S
H937 C912 0.950 . S
H938 C914 0.950 . S
H939 C915 0.949 . S
H940 C917 0.950 1_556 S
H941 C919 0.950 . S
C942 C943 1.349 . S
C942 C944 1.327 . S
C942 H967 0.950 . S
C943 C942 1.349 . S
C943 C959 1.349 . S
C944 C942 1.327 . S
C944 C963 1.429 . S
C944 H968 0.950 . S
C945 C962 1.574 . S
C945 C964 1.368 . S
C945 H969 0.949 . S
H946 C950 0.949 . S
C947 C948 1.349 . S
C947 C949 1.327 . S
C947 H970 0.950 . S
C948 C947 1.349 . S
C948 C960 1.349 . S
C949 C947 1.327 . S
C949 C965 1.429 . S
C949 H971 0.950 . S
C950 H946 0.949 . S
C950 C958 1.574 . S
C950 C966 1.368 . S
H951 C959 0.950 . S
H952 C957 0.950 . S
H953 C958 0.949 . S
H954 C960 0.950 . S
H955 C961 0.950 . S
H956 C962 0.949 . S
C957 H952 0.950 . S
C957 C959 1.327 . S
C957 C963 1.429 . S
C958 C950 1.574 . S
C958 H953 0.949 . S
C958 C964 1.368 . S
C959 C943 1.349 . S
C959 H951 0.950 . S
C959 C957 1.327 . S
C960 C948 1.349 . S
C960 H954 0.950 . S
C960 C961 1.327 . S
C961 H955 0.950 . S
C961 C960 1.327 . S
C961 C965 1.429 . S
C962 C945 1.574 . S
C962 H956 0.949 . S
C962 C966 1.368 . S
C963 C944 1.429 . S
C963 C957 1.429 . S
C963 C964 1.523 . S
C964 C945 1.368 . S
C964 C958 1.368 . S
C964 C963 1.523 . S
C965 C949 1.429 . S
C965 C961 1.429 . S
C965 C966 1.523 . S
C966 C950 1.368 . S
C966 C962 1.368 . S
C966 C965 1.523 . S
H967 C942 0.950 . S
H968 C944 0.950 . S
H969 C945 0.949 . S
H970 C947 0.950 . S
H971 C949 0.950 . S
C972 C973 1.349 . S
C972 C974 1.327 . S
C972 H997 0.950 . S
C973 C972 1.349 . S
C973 C989 1.349 . S
C974 C972 1.327 . S
C974 C993 1.429 . S
C974 H998 0.950 . S
C975 C992 1.574 . S
C975 C994 1.368 . S
C975 H999 0.949 . S
H976 C980 0.949 . S
C977 C978 1.349 . S
C977 C979 1.327 . S
C977 H1000 0.950 1_556 S
C978 C977 1.349 . S
C978 C990 1.349 . S
C979 C977 1.327 . S
C979 C995 1.429 . S
C979 H1001 0.948 . S
C980 H976 0.949 . S
C980 C988 1.574 . S
C980 C996 1.368 . S
H981 C989 0.950 . S
H982 C987 0.950 . S
H983 C988 0.949 . S
H984 C990 0.950 . S
H985 C991 0.950 . S
H986 C992 0.949 . S
C987 H982 0.950 . S
C987 C989 1.327 . S
C987 C993 1.429 . S
C988 C980 1.574 . S
C988 H983 0.949 . S
C988 C994 1.368 . S
C989 C973 1.349 . S
C989 H981 0.950 . S
C989 C987 1.327 . S
C990 C978 1.349 . S
C990 H984 0.950 . S
C990 C991 1.327 . S
C991 H985 0.950 . S
C991 C990 1.327 . S
C991 C995 1.429 . S
C992 C975 1.574 . S
C992 H986 0.949 . S
C992 C996 1.368 . S
C993 C974 1.429 . S
C993 C987 1.429 . S
C993 C994 1.523 . S
C994 C975 1.368 . S
C994 C988 1.368 . S
C994 C993 1.523 . S
C995 C979 1.429 . S
C995 C991 1.429 . S
C995 C996 1.523 . S
C996 C980 1.368 . S
C996 C992 1.368 . S
C996 C995 1.523 . S
H997 C972 0.950 . S
H998 C974 0.950 . S
H999 C975 0.949 . S
H1000 C977 0.950 1_554 S
H1001 C979 0.948 . S
C1002 C1003 1.349 . S
C1002 C1004 1.327 . S
C1002 H1027 0.950 . S
C1003 C1002 1.349 . S
C1003 C1019 1.349 . S
C1004 C1002 1.327 . S
C1004 C1023 1.429 . S
C1004 H1028 0.950 . S
C1005 C1022 1.574 . S
C1005 C1024 1.368 . S
C1005 H1029 0.949 . S
H1006 C1010 0.949 . S
C1007 C1008 1.349 . S
C1007 C1009 1.327 . S
C1007 H1030 0.950 . S
C1008 C1007 1.349 . S
C1008 C1020 1.349 . S
C1009 C1007 1.327 . S
C1009 C1025 1.429 . S
C1009 H1031 0.950 . S
C1010 H1006 0.949 . S
C1010 C1018 1.574 . S
C1010 C1026 1.368 . S
H1011 C1019 0.950 . S
H1012 C1017 0.950 . S
H1013 C1018 0.949 . S
H1014 C1020 0.950 . S
H1015 C1021 0.950 . S
H1016 C1022 0.949 . S
C1017 H1012 0.950 . S
C1017 C1019 1.327 . S
C1017 C1023 1.429 . S
C1018 C1010 1.574 . S
C1018 H1013 0.949 . S
C1018 C1024 1.368 . S
C1019 C1003 1.349 . S
C1019 H1011 0.950 . S
C1019 C1017 1.327 . S
C1020 C1008 1.349 . S
C1020 H1014 0.950 . S
C1020 C1021 1.327 . S
C1021 H1015 0.950 . S
C1021 C1020 1.327 . S
C1021 C1025 1.429 . S
C1022 C1005 1.574 . S
C1022 H1016 0.949 . S
C1022 C1026 1.368 . S
C1023 C1004 1.429 . S
C1023 C1017 1.429 . S
C1023 C1024 1.523 . S
C1024 C1005 1.368 . S
C1024 C1018 1.368 . S
C1024 C1023 1.523 . S
C1025 C1009 1.429 . S
C1025 C1021 1.429 . S
C1025 C1026 1.523 . S
C1026 C1010 1.368 . S
C1026 C1022 1.368 . S
C1026 C1025 1.523 . S
H1027 C1002 0.950 . S
H1028 C1004 0.950 . S
H1029 C1005 0.949 . S
H1030 C1007 0.950 . S
H1031 C1009 0.950 . S
C1032 C1033 1.349 . S
C1032 C1034 1.327 . S
C1032 H1057 0.950 . S
C1033 C1032 1.349 . S
C1033 C1049 1.349 . S
C1034 C1032 1.327 . S
C1034 C1053 1.429 . S
C1034 H1058 0.950 . S
C1035 C1052 1.574 . S
C1035 C1054 1.368 . S
C1035 H1059 0.949 . S
H1036 C1040 0.949 . S
C1037 C1038 1.349 . S
C1037 C1039 1.327 . S
C1037 H1060 0.950 . S
C1038 C1037 1.349 . S
C1038 C1050 1.349 . S
C1039 C1037 1.327 . S
C1039 C1055 1.429 . S
C1039 H1061 0.950 . S
C1040 H1036 0.949 . S
C1040 C1048 1.574 . S
C1040 C1056 1.368 . S
H1041 C1049 0.950 . S
H1042 C1047 0.950 . S
H1043 C1048 0.949 . S
H1044 C1050 0.950 1_655 S
H1045 C1051 0.950 . S
H1046 C1052 0.949 . S
C1047 H1042 0.950 . S
C1047 C1049 1.327 . S
C1047 C1053 1.429 . S
C1048 C1040 1.574 . S
C1048 H1043 0.949 . S
C1048 C1054 1.368 . S
C1049 C1033 1.349 . S
C1049 H1041 0.950 . S
C1049 C1047 1.327 . S
C1050 C1038 1.349 . S
C1050 H1044 0.950 1_455 S
C1050 C1051 1.327 . S
C1051 H1045 0.950 . S
C1051 C1050 1.327 . S
C1051 C1055 1.429 . S
C1052 C1035 1.574 . S
C1052 H1046 0.949 . S
C1052 C1056 1.368 . S
C1053 C1034 1.429 . S
C1053 C1047 1.429 . S
C1053 C1054 1.523 . S
C1054 C1035 1.368 . S
C1054 C1048 1.368 . S
C1054 C1053 1.523 . S
C1055 C1039 1.429 . S
C1055 C1051 1.429 . S
C1055 C1056 1.523 . S
C1056 C1040 1.368 . S
C1056 C1052 1.368 . S
C1056 C1055 1.523 . S
H1057 C1032 0.950 . S
H1058 C1034 0.950 . S
H1059 C1035 0.949 . S
H1060 C1037 0.950 . S
H1061 C1039 0.950 . S
C1062 C1063 1.349 . S
C1062 C1064 1.327 . S
C1062 H1087 0.950 . S
C1063 C1062 1.349 . S
C1063 C1079 1.349 . S
C1064 C1062 1.327 . S
C1064 C1083 1.429 . S
C1064 H1088 0.950 . S
C1065 C1082 1.574 . S
C1065 C1084 1.368 . S
C1065 H1089 0.949 . S
H1066 C1070 0.949 . S
C1067 C1068 1.349 . S
C1067 C1069 1.327 . S
C1067 H1090 0.950 . S
C1068 C1067 1.349 . S
C1068 C1080 1.349 . S
C1069 C1067 1.327 . S
C1069 C1085 1.429 . S
C1069 H1091 0.950 . S
C1070 H1066 0.949 . S
C1070 C1078 1.574 . S
C1070 C1086 1.368 . S
H1071 C1079 0.950 . S
H1072 C1077 0.950 . S
H1073 C1078 0.949 . S
H1074 C1080 0.950 . S
H1075 C1081 0.950 . S
H1076 C1082 0.949 . S
C1077 H1072 0.950 . S
C1077 C1079 1.327 . S
C1077 C1083 1.429 . S
C1078 C1070 1.574 . S
C1078 H1073 0.949 . S
C1078 C1084 1.368 . S
C1079 C1063 1.349 . S
C1079 H1071 0.950 . S
C1079 C1077 1.327 . S
C1080 C1068 1.349 . S
C1080 H1074 0.950 . S
C1080 C1081 1.327 . S
C1081 H1075 0.950 . S
C1081 C1080 1.327 . S
C1081 C1085 1.429 . S
C1082 C1065 1.574 . S
C1082 H1076 0.949 . S
C1082 C1086 1.368 . S
C1083 C1064 1.429 . S
C1083 C1077 1.429 . S
C1083 C1084 1.523 . S
C1084 C1065 1.368 . S
C1084 C1078 1.368 . S
C1084 C1083 1.523 . S
C1085 C1069 1.429 . S
C1085 C1081 1.429 . S
C1085 C1086 1.523 . S
C1086 C1070 1.368 . S
C1086 C1082 1.368 . S
C1086 C1085 1.523 . S
H1087 C1062 0.950 . S
H1088 C1064 0.950 . S
H1089 C1065 0.949 . S
H1090 C1067 0.950 . S
H1091 C1069 0.950 . S
C373 C1 1.629 . S
C378 C304 1.594 . S
C403 C67 1.482 . S
C408 C326 1.440 . S
C438 C345 1.174 . S
C433 C97 1.385 . S
C463 C133 1.873 . S
C468 C366 1.537 . S
C498 C323 1.818 . S
C493 C25 1.856 . S
C528 C301 1.695 . S
C523 C37 1.730 . S
C558 C368 1.255 . S
C553 C103 1.303 . S
C588 C347 1.411 . S
C583 C109 1.467 . S
C613 C31 1.791 . S
C618 C365 1.752 . S
C648 C324 1.316 . S
C643 C73 1.585 . S
C673 C139 1.712 . S
C678 C306 1.519 . S
C703 C61 1.486 . S
C708 C344 1.482 . S
C738 C302 1.603 . S
C733 C175 1.676 . S
C763 C181 1.267 . S
C768 C322 1.239 . S
C793 C247 1.508 . S
C798 C348 1.270 . S
C823 C277 1.766 . S
C828 C369 1.433 . S
C853 C145 1.807 . S
C858 C325 1.762 . S
C888 C305 1.772 . S
C883 C211 1.819 . S
C918 C364 1.130 . S
C913 C217 1.178 . S
C948 C343 1.532 . S
C943 C283 1.592 . S
C973 C169 1.582 . S
C978 C367 1.536 . S
C1008 C327 1.250 . S
C1003 C241 1.496 . S
C1038 C303 1.301 . S
C1033 C253 1.472 . S
C1063 C205 1.429 . S
C1068 C346 1.416 . S
