# Generated by pormake.
# Topology eea, (3,6)-cn, num edge types: 1
# Building blocks:
#     Node 0, Type 0, BuildingBlock: VETTIZ_charged_linker_0, # of connection points: 3
#     Node 1, Type 0, BuildingBlock: VETTIZ_charged_linker_0, # of connection points: 3
#     Node 2, Type 0, BuildingBlock: VETTIZ_charged_linker_0, # of connection points: 3
#     Node 3, Type 0, BuildingBlock: VETTIZ_charged_linker_0, # of connection points: 3
#     Node 4, Type 0, BuildingBlock: VETTIZ_charged_linker_0, # of connection points: 3
#     Node 5, Type 0, BuildingBlock: VETTIZ_charged_linker_0, # of connection points: 3
#     Node 6, Type 0, BuildingBlock: VETTIZ_charged_linker_0, # of connection points: 3
#     Node 7, Type 0, BuildingBlock: VETTIZ_charged_linker_0, # of connection points: 3
#     Node 8, Type 0, BuildingBlock: VETTIZ_charged_linker_0, # of connection points: 3
#     Node 9, Type 0, BuildingBlock: VETTIZ_charged_linker_0, # of connection points: 3
#     Node 10, Type 0, BuildingBlock: VETTIZ_charged_linker_0, # of connection points: 3
#     Node 11, Type 0, BuildingBlock: VETTIZ_charged_linker_0, # of connection points: 3
#     Node 12, Type 0, BuildingBlock: VETTIZ_charged_linker_0, # of connection points: 3
#     Node 13, Type 0, BuildingBlock: VETTIZ_charged_linker_0, # of connection points: 3
#     Node 14, Type 0, BuildingBlock: VETTIZ_charged_linker_0, # of connection points: 3
#     Node 15, Type 0, BuildingBlock: VETTIZ_charged_linker_0, # of connection points: 3
#     Node 16, Type 0, BuildingBlock: VETTIZ_charged_linker_0, # of connection points: 3
#     Node 17, Type 0, BuildingBlock: VETTIZ_charged_linker_0, # of connection points: 3
#     Node 18, Type 1, BuildingBlock: CUWYAW_clean_sbu_0, # of connection points: 6
#     Node 19, Type 1, BuildingBlock: CUWYAW_clean_sbu_0, # of connection points: 6
#     Node 20, Type 1, BuildingBlock: CUWYAW_clean_sbu_0, # of connection points: 6
#     Node 21, Type 1, BuildingBlock: CUWYAW_clean_sbu_0, # of connection points: 6
#     Node 22, Type 1, BuildingBlock: CUWYAW_clean_sbu_0, # of connection points: 6
#     Node 23, Type 1, BuildingBlock: CUWYAW_clean_sbu_0, # of connection points: 6
#     Node 24, Type 1, BuildingBlock: CUWYAW_clean_sbu_0, # of connection points: 6
#     Node 25, Type 1, BuildingBlock: CUWYAW_clean_sbu_0, # of connection points: 6
#     Node 26, Type 1, BuildingBlock: CUWYAW_clean_sbu_0, # of connection points: 6
#     Edge 27, Type (0, 1), BuildingBlock: XUDNAN_clean_linker_2, # of connection points: 2
#     Edge 28, Type (0, 1), BuildingBlock: XUDNAN_clean_linker_2, # of connection points: 2
#     Edge 29, Type (0, 1), BuildingBlock: XUDNAN_clean_linker_2, # of connection points: 2
#     Edge 30, Type (0, 1), BuildingBlock: XUDNAN_clean_linker_2, # of connection points: 2
#     Edge 31, Type (0, 1), BuildingBlock: XUDNAN_clean_linker_2, # of connection points: 2
#     Edge 32, Type (0, 1), BuildingBlock: XUDNAN_clean_linker_2, # of connection points: 2
#     Edge 33, Type (0, 1), BuildingBlock: XUDNAN_clean_linker_2, # of connection points: 2
#     Edge 34, Type (0, 1), BuildingBlock: XUDNAN_clean_linker_2, # of connection points: 2
#     Edge 35, Type (0, 1), BuildingBlock: XUDNAN_clean_linker_2, # of connection points: 2
#     Edge 36, Type (0, 1), BuildingBlock: XUDNAN_clean_linker_2, # of connection points: 2
#     Edge 37, Type (0, 1), BuildingBlock: XUDNAN_clean_linker_2, # of connection points: 2
#     Edge 38, Type (0, 1), BuildingBlock: XUDNAN_clean_linker_2, # of connection points: 2
#     Edge 39, Type (0, 1), BuildingBlock: XUDNAN_clean_linker_2, # of connection points: 2
#     Edge 40, Type (0, 1), BuildingBlock: XUDNAN_clean_linker_2, # of connection points: 2
#     Edge 41, Type (0, 1), BuildingBlock: XUDNAN_clean_linker_2, # of connection points: 2
#     Edge 42, Type (0, 1), BuildingBlock: XUDNAN_clean_linker_2, # of connection points: 2
#     Edge 43, Type (0, 1), BuildingBlock: XUDNAN_clean_linker_2, # of connection points: 2
#     Edge 44, Type (0, 1), BuildingBlock: XUDNAN_clean_linker_2, # of connection points: 2
#     Edge 45, Type (0, 1), BuildingBlock: XUDNAN_clean_linker_2, # of connection points: 2
#     Edge 46, Type (0, 1), BuildingBlock: XUDNAN_clean_linker_2, # of connection points: 2
#     Edge 47, Type (0, 1), BuildingBlock: XUDNAN_clean_linker_2, # of connection points: 2
#     Edge 48, Type (0, 1), BuildingBlock: XUDNAN_clean_linker_2, # of connection points: 2
#     Edge 49, Type (0, 1), BuildingBlock: XUDNAN_clean_linker_2, # of connection points: 2
#     Edge 50, Type (0, 1), BuildingBlock: XUDNAN_clean_linker_2, # of connection points: 2
#     Edge 51, Type (0, 1), BuildingBlock: XUDNAN_clean_linker_2, # of connection points: 2
#     Edge 52, Type (0, 1), BuildingBlock: XUDNAN_clean_linker_2, # of connection points: 2
#     Edge 53, Type (0, 1), BuildingBlock: XUDNAN_clean_linker_2, # of connection points: 2
#     Edge 54, Type (0, 1), BuildingBlock: XUDNAN_clean_linker_2, # of connection points: 2
#     Edge 55, Type (0, 1), BuildingBlock: XUDNAN_clean_linker_2, # of connection points: 2
#     Edge 56, Type (0, 1), BuildingBlock: XUDNAN_clean_linker_2, # of connection points: 2
#     Edge 57, Type (0, 1), BuildingBlock: XUDNAN_clean_linker_2, # of connection points: 2
#     Edge 58, Type (0, 1), BuildingBlock: XUDNAN_clean_linker_2, # of connection points: 2
#     Edge 59, Type (0, 1), BuildingBlock: XUDNAN_clean_linker_2, # of connection points: 2
#     Edge 60, Type (0, 1), BuildingBlock: XUDNAN_clean_linker_2, # of connection points: 2
#     Edge 61, Type (0, 1), BuildingBlock: XUDNAN_clean_linker_2, # of connection points: 2
#     Edge 62, Type (0, 1), BuildingBlock: XUDNAN_clean_linker_2, # of connection points: 2
#     Edge 63, Type (0, 1), BuildingBlock: XUDNAN_clean_linker_2, # of connection points: 2
#     Edge 64, Type (0, 1), BuildingBlock: XUDNAN_clean_linker_2, # of connection points: 2
#     Edge 65, Type (0, 1), BuildingBlock: XUDNAN_clean_linker_2, # of connection points: 2
#     Edge 66, Type (0, 1), BuildingBlock: XUDNAN_clean_linker_2, # of connection points: 2
#     Edge 67, Type (0, 1), BuildingBlock: XUDNAN_clean_linker_2, # of connection points: 2
#     Edge 68, Type (0, 1), BuildingBlock: XUDNAN_clean_linker_2, # of connection points: 2
#     Edge 69, Type (0, 1), BuildingBlock: XUDNAN_clean_linker_2, # of connection points: 2
#     Edge 70, Type (0, 1), BuildingBlock: XUDNAN_clean_linker_2, # of connection points: 2
#     Edge 71, Type (0, 1), BuildingBlock: XUDNAN_clean_linker_2, # of connection points: 2
#     Edge 72, Type (0, 1), BuildingBlock: XUDNAN_clean_linker_2, # of connection points: 2
#     Edge 73, Type (0, 1), BuildingBlock: XUDNAN_clean_linker_2, # of connection points: 2
#     Edge 74, Type (0, 1), BuildingBlock: XUDNAN_clean_linker_2, # of connection points: 2
#     Edge 75, Type (0, 1), BuildingBlock: XUDNAN_clean_linker_2, # of connection points: 2
#     Edge 76, Type (0, 1), BuildingBlock: XUDNAN_clean_linker_2, # of connection points: 2
#     Edge 77, Type (0, 1), BuildingBlock: XUDNAN_clean_linker_2, # of connection points: 2
#     Edge 78, Type (0, 1), BuildingBlock: XUDNAN_clean_linker_2, # of connection points: 2
#     Edge 79, Type (0, 1), BuildingBlock: XUDNAN_clean_linker_2, # of connection points: 2
#     Edge 80, Type (0, 1), BuildingBlock: XUDNAN_clean_linker_2, # of connection points: 2
# Relax obj value: 0.035
# Max RMSD: 0.135
# Mean RMSD: 0.075
data_MOF--net-eea--node1-CUWYAW_clean_sbu_0--node2-VETTIZ_charged_linker_0--edge1-XUDNAN_clean_linker_2
_symmetry_space_group_name_H-M    P1
_symmetry_Int_Tables_number       1
_symmetry_cell_setting            triclinic
loop_
_symmetry_equiv_pos_as_xyz
'x, y, z'
_cell_length_a     62.043677
_cell_length_b     61.734443
_cell_length_c     90.48802
_cell_angle_alpha  93.447767
_cell_angle_beta   93.320269
_cell_angle_gamma 119.83532
loop_
_atom_site_label
_atom_site_type_symbol
_atom_site_fract_x
_atom_site_fract_y
_atom_site_fract_z
_atom_type_partial_charge
C0 C 0.19895 0.16659 0.39485 0.0
C1 C 0.20604 0.1895 0.40314 0.0
C2 C 0.21515 0.19317 0.41826 0.0
C3 C 0.21055 0.15168 0.41648 0.0
C4 C 0.20157 0.14814 0.40167 0.0
C5 C 0.19629 0.12336 0.39417 0.0
H6 H 0.19223 0.01229 0.39814 0.0
C7 C 0.21163 0.1291 0.42 0.0
C8 C 0.20347 0.11254 0.40692 0.0
H9 H 0.17151 0.03969 0.36016 0.0
H10 H 0.18378 0.07875 0.37469 0.0
H11 H 0.2438 0.06642 0.4104 0.0
H12 H 0.16758 0.03017 0.4209 0.0
H13 H 0.18631 0.04521 0.43769 0.0
H14 H 0.18899 0.0206 0.42768 0.0
H15 H 0.22996 0.0386 0.41991 0.0
H16 H 0.24412 0.06946 0.42989 0.0
C17 C 0.21363 0.12858 0.38154 0.0
C18 C 0.16799 0.10775 0.38891 0.0
C19 C 0.23827 0.12165 0.47287 0.0
C20 C 0.2396 0.10229 0.47954 0.0
C21 C 0.23426 0.0804 0.47056 0.0
C22 C 0.22734 0.07763 0.45525 0.0
C23 C 0.22551 0.09686 0.44879 0.0
C24 C 0.23104 0.11847 0.45755 0.0
C25 C 0.22758 0.13668 0.44877 0.0
C26 C 0.21879 0.12229 0.43337 0.0
C27 C 0.21776 0.09903 0.43345 0.0
C28 C 0.25326 0.16097 0.44914 0.0
C29 C 0.20713 0.14061 0.45536 0.0
C30 C 0.19077 0.02693 0.39294 0.0
C31 C 0.18085 0.02295 0.37801 0.0
C32 C 0.17887 0.04227 0.37168 0.0
C33 C 0.18601 0.06494 0.38015 0.0
C34 C 0.19512 0.0684 0.39518 0.0
C35 C 0.19762 0.04969 0.40132 0.0
C36 C 0.20695 0.0565 0.41761 0.0
C37 C 0.2097 0.08237 0.42017 0.0
C38 C 0.20271 0.08918 0.40699 0.0
C39 C 0.23248 0.0577 0.41971 0.0
C40 C 0.18662 0.03713 0.42653 0.0
H41 H 0.22451 0.17835 0.4365 0.0
H42 H 0.19239 0.16343 0.38313 0.0
H43 H 0.15689 0.11103 0.39705 0.0
H44 H 0.16064 0.08731 0.38803 0.0
H45 H 0.16376 0.11296 0.37802 0.0
H46 H 0.23185 0.14617 0.38454 0.0
H47 H 0.20504 0.13072 0.37102 0.0
H48 H 0.21862 0.11389 0.37943 0.0
H49 H 0.24207 0.13861 0.47951 0.0
H50 H 0.23549 0.06537 0.47539 0.0
H51 H 0.22344 0.06049 0.44906 0.0
H52 H 0.26864 0.15661 0.44913 0.0
H53 H 0.25703 0.17385 0.4593 0.0
H54 H 0.25498 0.17111 0.43923 0.0
H55 H 0.19183 0.12262 0.45854 0.0
H56 H 0.19791 0.147 0.44737 0.0
H57 H 0.21491 0.15425 0.46549 0.0
H58 H 0.22074 0.21071 0.42485 0.0
C59 C 0.21735 0.17437 0.42498 0.0
C60 C 0.97195 0.17761 0.39192 0.0
C61 C 0.99144 0.20045 0.39908 0.0
C62 C 0.99168 0.20605 0.41444 0.0
C63 C 0.9522 0.16726 0.41486 0.0
C64 C 0.95268 0.16145 0.39994 0.0
C65 C 0.93027 0.13697 0.39367 0.0
H66 H 0.81711 0.03816 0.40195 0.0
C67 C 0.92864 0.14699 0.41957 0.0
C68 C 0.91586 0.12917 0.40719 0.0
H69 H 0.85784 0.05412 0.36305 0.0
H70 H 0.8922 0.0911 0.37656 0.0
H71 H 0.8649 0.05171 0.4254 0.0
H72 H 0.83083 0.0942 0.41159 0.0
H73 H 0.83895 0.1016 0.43087 0.0
H74 H 0.81672 0.06969 0.42357 0.0
H75 H 0.83552 0.04614 0.43115 0.0
H76 H 0.86478 0.06925 0.44138 0.0
C77 C 0.93934 0.11864 0.38863 0.0
C78 C 0.91605 0.1424 0.38111 0.0
C79 C 0.90503 0.1533 0.47201 0.0
C80 C 0.88377 0.13801 0.47919 0.0
C81 C 0.86437 0.11571 0.47125 0.0
C82 C 0.86602 0.1088 0.45652 0.0
C83 C 0.88723 0.12437 0.44948 0.0
C84 C 0.90633 0.14618 0.45722 0.0
C85 C 0.92727 0.16054 0.44782 0.0
C86 C 0.91759 0.1437 0.43321 0.0
C87 C 0.89407 0.12256 0.43427 0.0
C88 C 0.95128 0.16208 0.45507 0.0
C89 C 0.92943 0.18637 0.44625 0.0
C90 C 0.83353 0.04951 0.3964 0.0
C91 C 0.83456 0.04331 0.38132 0.0
C92 C 0.85629 0.05871 0.37453 0.0
C93 C 0.87635 0.08015 0.38245 0.0
C94 C 0.87483 0.08646 0.39737 0.0
C95 C 0.85382 0.07111 0.40417 0.0
C96 C 0.85571 0.08081 0.42014 0.0
C97 C 0.88127 0.1045 0.42175 0.0
C98 C 0.89224 0.10773 0.40834 0.0
C99 C 0.85503 0.061 0.43014 0.0
C100 C 0.83442 0.08678 0.42178 0.0
H101 H 0.97306 0.19506 0.43398 0.0
H102 H 0.97149 0.17256 0.38018 0.0
H103 H 0.91648 0.16038 0.38407 0.0
H104 H 0.89603 0.12816 0.37914 0.0
H105 H 0.92463 0.14398 0.3705 0.0
H106 H 0.95657 0.12264 0.39556 0.0
H107 H 0.94369 0.12021 0.37687 0.0
H108 H 0.92571 0.09887 0.38998 0.0
H109 H 0.9204 0.17043 0.47778 0.0
H110 H 0.84757 0.10376 0.47633 0.0
H111 H 0.85055 0.09169 0.45112 0.0
H112 H 0.94683 0.1444 0.45998 0.0
H113 H 0.96068 0.17773 0.46412 0.0
H114 H 0.96471 0.16429 0.44697 0.0
H115 H 0.91059 0.18441 0.44478 0.0
H116 H 0.93854 0.19503 0.4364 0.0
H117 H 0.93977 0.19963 0.45634 0.0
H118 H 0.00653 0.22355 0.4202 0.0
C119 C 0.97213 0.18959 0.42237 0.0
C120 C 0.94841 0.77958 0.39604 0.0
C121 C 0.96781 0.77588 0.40163 0.0
C122 C 0.96997 0.77284 0.41688 0.0
C123 C 0.93282 0.77574 0.42033 0.0
C124 C 0.93128 0.77939 0.40547 0.0
C125 C 0.90929 0.7823 0.40092 0.0
H126 H 0.80393 0.78118 0.41734 0.0
C127 C 0.91135 0.77571 0.42682 0.0
C128 C 0.89764 0.77965 0.41545 0.0
H129 H 0.83558 0.79085 0.37527 0.0
H130 H 0.8706 0.78893 0.38648 0.0
H131 H 0.81451 0.73805 0.42572 0.0
H132 H 0.85693 0.81784 0.4379 0.0
H133 H 0.85821 0.80332 0.45378 0.0
H134 H 0.82842 0.79781 0.44565 0.0
H135 H 0.80493 0.75369 0.43889 0.0
H136 H 0.8259 0.74273 0.44453 0.0
C137 C 0.89199 0.76049 0.38883 0.0
C138 C 0.91927 0.80895 0.39589 0.0
C139 C 0.89649 0.75927 0.48091 0.0
C140 C 0.87759 0.75727 0.48963 0.0
C141 C 0.85862 0.76108 0.48323 0.0
C142 C 0.85823 0.76644 0.46843 0.0
C143 C 0.87694 0.76796 0.4598 0.0
C144 C 0.89576 0.76455 0.46607 0.0
C145 C 0.91401 0.76681 0.45511 0.0
C146 C 0.90297 0.77206 0.44127 0.0
C147 C 0.88119 0.77264 0.44411 0.0
C148 C 0.91323 0.74136 0.45291 0.0
C149 C 0.94001 0.78928 0.46099 0.0
C150 C 0.81862 0.78317 0.41065 0.0
C151 C 0.81696 0.786 0.39539 0.0
C152 C 0.83631 0.78834 0.387 0.0
C153 C 0.85667 0.78725 0.39355 0.0
C154 C 0.85774 0.78356 0.40868 0.0
C155 C 0.83908 0.78183 0.41703 0.0
C156 C 0.84327 0.77742 0.43287 0.0
C157 C 0.86742 0.77671 0.43257 0.0
C158 C 0.87572 0.78029 0.41836 0.0
C159 C 0.82101 0.75176 0.43582 0.0
C160 C 0.84673 0.80009 0.4432 0.0
H161 H 0.95495 0.76998 0.4377 0.0
H162 H 0.94647 0.78249 0.38446 0.0
H163 H 0.93718 0.82276 0.4025 0.0
H164 H 0.90664 0.81643 0.39769 0.0
H165 H 0.92278 0.80924 0.38398 0.0
H166 H 0.89264 0.74316 0.39073 0.0
H167 H 0.89772 0.7654 0.37754 0.0
H168 H 0.87208 0.7548 0.38893 0.0
H169 H 0.91124 0.75629 0.48544 0.0
H170 H 0.8441 0.76011 0.48973 0.0
H171 H 0.84324 0.76908 0.46427 0.0
H172 H 0.89372 0.72547 0.4525 0.0
H173 H 0.92442 0.73941 0.46222 0.0
H174 H 0.9199 0.73858 0.44231 0.0
H175 H 0.93826 0.80498 0.46631 0.0
H176 H 0.95221 0.79735 0.45206 0.0
H177 H 0.94962 0.78381 0.46945 0.0
H178 H 0.98474 0.76995 0.42147 0.0
C179 C 0.95256 0.77272 0.42625 0.0
C180 C 0.16142 0.21258 0.60474 0.0
C181 C 0.1824 0.21317 0.59917 0.0
C182 C 0.18532 0.2155 0.58391 0.0
C183 C 0.1477 0.21828 0.58037 0.0
C184 C 0.14451 0.21528 0.59523 0.0
C185 C 0.12193 0.21613 0.59963 0.0
H186 H 0.0232 0.23108 0.58135 0.0
C187 C 0.12747 0.22195 0.57379 0.0
C188 C 0.11236 0.22075 0.58502 0.0
H189 H 0.04594 0.21563 0.62368 0.0
H190 H 0.08062 0.21533 0.6134 0.0
H191 H 0.07867 0.27204 0.57459 0.0
H192 H 0.03431 0.19268 0.5605 0.0
H193 H 0.04744 0.20896 0.54507 0.0
H194 H 0.02604 0.21508 0.55456 0.0
H195 H 0.05275 0.25964 0.56048 0.0
H196 H 0.08358 0.2672 0.55605 0.0
C197 C 0.13081 0.23855 0.61172 0.0
C198 C 0.10333 0.19018 0.60458 0.0
C199 C 0.12459 0.23695 0.5194 0.0
C200 C 0.10958 0.24296 0.51034 0.0
C201 C 0.09043 0.24539 0.51647 0.0
C202 C 0.08602 0.24138 0.53141 0.0
C203 C 0.10116 0.23525 0.54034 0.0
C204 C 0.12026 0.23345 0.53431 0.0
C205 C 0.13551 0.22835 0.54556 0.0
C206 C 0.1221 0.22674 0.55929 0.0
C207 C 0.10184 0.23057 0.55619 0.0
C208 C 0.16256 0.25106 0.5474 0.0
C209 C 0.13337 0.20292 0.54036 0.0
C210 C 0.03576 0.2278 0.58841 0.0
C211 C 0.03161 0.22317 0.60335 0.0
C212 C 0.04835 0.21878 0.61209 0.0
C213 C 0.06864 0.21876 0.60611 0.0
C214 C 0.07246 0.22324 0.59119 0.0
C215 C 0.0562 0.22767 0.58257 0.0
C216 C 0.06337 0.23202 0.56691 0.0
C217 C 0.08638 0.22915 0.56757 0.0
C218 C 0.0916 0.22412 0.58186 0.0
C219 C 0.0698 0.25904 0.56422 0.0
C220 C 0.04169 0.21126 0.55608 0.0
H221 H 0.17155 0.2201 0.56304 0.0
H222 H 0.15832 0.21033 0.61635 0.0
H223 H 0.10466 0.17485 0.59836 0.0
H224 H 0.08361 0.1851 0.60219 0.0
H225 H 0.10717 0.18943 0.61662 0.0
H226 H 0.14899 0.25467 0.60948 0.0
H227 H 0.13341 0.23328 0.62293 0.0
H228 H 0.11801 0.24611 0.61203 0.0
H229 H 0.1398 0.23553 0.51505 0.0
H230 H 0.07873 0.25011 0.50966 0.0
H231 H 0.07106 0.24329 0.53544 0.0
H232 H 0.16276 0.26881 0.54553 0.0
H233 H 0.17415 0.24856 0.53931 0.0
H234 H 0.1719 0.25458 0.55877 0.0
H235 H 0.114 0.18911 0.5355 0.0
H236 H 0.13724 0.19399 0.54956 0.0
H237 H 0.14611 0.20517 0.53171 0.0
H238 H 0.20135 0.21613 0.57934 0.0
C239 C 0.16809 0.21804 0.57449 0.0
C240 C 0.77661 0.82125 0.62556 0.0
C241 C 0.77521 0.79969 0.61842 0.0
C242 C 0.763 0.79069 0.60393 0.0
C243 C 0.75749 0.82693 0.60314 0.0
C244 C 0.76782 0.83459 0.61774 0.0
C245 C 0.77062 0.85939 0.62325 0.0
H246 H 0.77517 0.96674 0.60757 0.0
C247 C 0.75342 0.84683 0.59763 0.0
C248 C 0.76083 0.86576 0.60941 0.0
H249 H 0.79416 0.94778 0.64969 0.0
H250 H 0.77833 0.90519 0.63922 0.0
H251 H 0.79559 0.93861 0.58745 0.0
H252 H 0.72146 0.91404 0.59972 0.0
H253 H 0.71808 0.9011 0.58133 0.0
H254 H 0.73419 0.93481 0.58556 0.0
H255 H 0.77693 0.95162 0.58104 0.0
H256 H 0.7744 0.92402 0.57141 0.0
C257 C 0.79884 0.87811 0.62772 0.0
C258 C 0.75376 0.85512 0.63602 0.0
C259 C 0.72954 0.84313 0.54256 0.0
C260 C 0.72686 0.85995 0.5339 0.0
C261 C 0.7288 0.88188 0.54105 0.0
C262 C 0.73421 0.8874 0.55652 0.0
C263 C 0.73798 0.87098 0.56494 0.0
C264 C 0.73503 0.84898 0.55799 0.0
C265 C 0.73965 0.83372 0.56873 0.0
C266 C 0.74605 0.8503 0.58324 0.0
C267 C 0.74541 0.8723 0.58091 0.0
C268 C 0.76211 0.83136 0.56406 0.0
C269 C 0.71514 0.80834 0.56882 0.0
C270 C 0.77548 0.95321 0.61454 0.0
C271 C 0.78627 0.96061 0.62938 0.0
C272 C 0.78634 0.94255 0.63816 0.0
C273 C 0.77716 0.91785 0.63205 0.0
C274 C 0.76817 0.91114 0.61692 0.0
C275 C 0.76664 0.9284 0.60853 0.0
C276 C 0.75651 0.91769 0.59263 0.0
C277 C 0.75294 0.89147 0.59283 0.0
C278 C 0.76014 0.88794 0.60706 0.0
C279 C 0.77671 0.93377 0.58249 0.0
C280 C 0.73133 0.91696 0.5895 0.0
H281 H 0.74569 0.79695 0.58503 0.0
H282 H 0.78559 0.82834 0.6368 0.0
H283 H 0.73691 0.83604 0.63439 0.0
H284 H 0.74629 0.86808 0.63652 0.0
H285 H 0.7639 0.85693 0.64697 0.0
H286 H 0.81047 0.8748 0.62 0.0
H287 H 0.80463 0.876 0.63914 0.0
H288 H 0.80418 0.8979 0.62707 0.0
H289 H 0.72775 0.82593 0.53743 0.0
H290 H 0.72695 0.89522 0.53464 0.0
H291 H 0.7359 0.90458 0.56127 0.0
H292 H 0.77653 0.84918 0.56017 0.0
H293 H 0.75612 0.81623 0.55483 0.0
H294 H 0.77201 0.82785 0.57327 0.0
H295 H 0.69853 0.81068 0.56711 0.0
H296 H 0.71346 0.80039 0.5796 0.0
H297 H 0.71344 0.79438 0.55981 0.0
H298 H 0.76164 0.77403 0.59827 0.0
C299 C 0.75402 0.80418 0.59625 0.0
C300 C 0.0472 0.82428 0.60913 0.0
C301 C 0.02535 0.80308 0.60243 0.0
C302 C 0.02401 0.79488 0.58737 0.0
C303 C 0.06565 0.82975 0.58567 0.0
C304 C 0.06694 0.83747 0.60054 0.0
C305 C 0.09035 0.86197 0.60553 0.0
H306 H 0.1975 0.96086 0.5887 0.0
C307 C 0.08854 0.84866 0.57966 0.0
C308 C 0.10298 0.86762 0.59128 0.0
H309 H 0.16591 0.94959 0.63083 0.0
H310 H 0.13151 0.90924 0.62045 0.0
H311 H 0.18705 0.90457 0.5817 0.0
H312 H 0.14764 0.94239 0.56901 0.0
H313 H 0.14418 0.92249 0.55329 0.0
H314 H 0.17503 0.94701 0.56076 0.0
H315 H 0.19694 0.92646 0.56794 0.0
H316 H 0.17503 0.89345 0.56305 0.0
C317 C 0.10555 0.85729 0.61781 0.0
C318 C 0.08281 0.88159 0.61049 0.0
C319 C 0.10228 0.83883 0.5251 0.0
C320 C 0.12169 0.85402 0.5166 0.0
C321 C 0.14221 0.87644 0.52365 0.0
C322 C 0.14352 0.88362 0.53875 0.0
C323 C 0.12402 0.86842 0.54705 0.0
C324 C 0.10387 0.84638 0.54028 0.0
C325 C 0.08478 0.83298 0.55098 0.0
C326 C 0.09702 0.85057 0.56524 0.0
C327 C 0.11991 0.87131 0.56277 0.0
C328 C 0.08249 0.80708 0.5524 0.0
C329 C 0.06009 0.83165 0.54526 0.0
C330 C 0.18332 0.94957 0.59574 0.0
C331 C 0.1844 0.95837 0.61059 0.0
C332 C 0.16533 0.94329 0.6193 0.0
C333 C 0.14544 0.91983 0.61326 0.0
C334 C 0.14445 0.91145 0.59831 0.0
C335 C 0.16327 0.92624 0.58986 0.0
C336 C 0.15898 0.91467 0.57412 0.0
C337 C 0.13438 0.89052 0.57446 0.0
C338 C 0.12598 0.88868 0.58864 0.0
C339 C 0.18061 0.90961 0.5714 0.0
C340 C 0.15648 0.93248 0.56365 0.0
H341 H 0.04196 0.801 0.56751 0.0
H342 H 0.04834 0.83127 0.6206 0.0
H343 H 0.06504 0.87756 0.6042 0.0
H344 H 0.09649 0.90083 0.60821 0.0
H345 H 0.08006 0.88159 0.62251 0.0
H346 H 0.1049 0.83916 0.615 0.0
H347 H 0.09788 0.85641 0.6287 0.0
H348 H 0.12558 0.87164 0.61913 0.0
H349 H 0.08627 0.82145 0.52009 0.0
H350 H 0.15714 0.88887 0.51739 0.0
H351 H 0.1596 0.90096 0.54332 0.0
H352 H 0.10124 0.80877 0.55303 0.0
H353 H 0.07099 0.79356 0.54263 0.0
H354 H 0.07448 0.79893 0.56263 0.0
H355 H 0.06385 0.84864 0.53972 0.0
H356 H 0.04874 0.83131 0.5543 0.0
H357 H 0.04866 0.81502 0.53703 0.0
H358 H 0.0071 0.77869 0.58202 0.0
C359 C 0.04416 0.80796 0.57898 0.0
C360 C 0.87298 0.50459 0.72256 0.0
C361 C 0.88095 0.52867 0.72955 0.0
C362 C 0.8909 0.53459 0.74458 0.0
C363 C 0.88606 0.49321 0.74521 0.0
C364 C 0.87589 0.4873 0.73053 0.0
C365 C 0.87017 0.46158 0.72446 0.0
H366 H 0.8797 0.35843 0.73247 0.0
C367 C 0.88781 0.47161 0.75 0.0
C368 C 0.87854 0.45302 0.73792 0.0
H369 H 0.84946 0.37679 0.69406 0.0
H370 H 0.85532 0.41399 0.70795 0.0
H371 H 0.92523 0.4149 0.74332 0.0
H372 H 0.85038 0.37431 0.75638 0.0
H373 H 0.87087 0.39156 0.77232 0.0
H374 H 0.87399 0.36714 0.76242 0.0
H375 H 0.91437 0.38742 0.75311 0.0
H376 H 0.9263 0.41801 0.7629 0.0
C377 C 0.88638 0.4647 0.71144 0.0
C378 C 0.84162 0.44532 0.7201 0.0
C379 C 0.92651 0.47772 0.80201 0.0
C380 C 0.93158 0.46149 0.8098 0.0
C381 C 0.92436 0.4375 0.80278 0.0
C382 C 0.9129 0.43014 0.78808 0.0
C383 C 0.90851 0.44691 0.78033 0.0
C384 C 0.91502 0.4701 0.78744 0.0
C385 C 0.90879 0.4855 0.77774 0.0
C386 C 0.89737 0.46777 0.76359 0.0
C387 C 0.89743 0.44524 0.76505 0.0
C388 C 0.93353 0.50955 0.77545 0.0
C389 C 0.88946 0.49042 0.78509 0.0
C390 C 0.87418 0.37042 0.72714 0.0
C391 C 0.86462 0.36493 0.71203 0.0
C392 C 0.85748 0.38091 0.70554 0.0
C393 C 0.86083 0.40252 0.71365 0.0
C394 C 0.87154 0.40846 0.72846 0.0
C395 C 0.87751 0.3923 0.73513 0.0
C396 C 0.88819 0.4017 0.75113 0.0
C397 C 0.88835 0.42648 0.75272 0.0
C398 C 0.87871 0.43031 0.73932 0.0
C399 C 0.9149 0.40565 0.75284 0.0
C400 C 0.87013 0.38272 0.76119 0.0
H401 H 0.90127 0.52272 0.76384 0.0
H402 H 0.86558 0.49966 0.71094 0.0
H403 H 0.83115 0.45086 0.72757 0.0
H404 H 0.83431 0.42519 0.72132 0.0
H405 H 0.83653 0.44743 0.70852 0.0
H406 H 0.90502 0.48202 0.71376 0.0
H407 H 0.87736 0.4662 0.70089 0.0
H408 H 0.89057 0.4494 0.70965 0.0
H409 H 0.93142 0.4961 0.80717 0.0
H410 H 0.92811 0.42468 0.80856 0.0
H411 H 0.90816 0.41183 0.78324 0.0
H412 H 0.94932 0.50579 0.77541 0.0
H413 H 0.93854 0.52474 0.78449 0.0
H414 H 0.93298 0.51664 0.7646 0.0
H415 H 0.87626 0.47387 0.79059 0.0
H416 H 0.87747 0.49346 0.77698 0.0
H417 H 0.89881 0.50678 0.7937 0.0
H418 H 0.89698 0.55299 0.75021 0.0
C419 C 0.89336 0.51697 0.75247 0.0
C420 C 0.62797 0.5038 0.72644 0.0
C421 C 0.65061 0.52528 0.73225 0.0
C422 C 0.65329 0.53414 0.74741 0.0
C423 C 0.61171 0.50026 0.75048 0.0
C424 C 0.6092 0.49141 0.73573 0.0
C425 C 0.58534 0.46696 0.73151 0.0
H426 H 0.47708 0.37348 0.75115 0.0
C427 C 0.58889 0.48265 0.75709 0.0
C428 C 0.57355 0.46295 0.74605 0.0
H429 H 0.50978 0.37771 0.70964 0.0
H430 H 0.54396 0.41871 0.71849 0.0
H431 H 0.52679 0.39209 0.77135 0.0
H432 H 0.49066 0.43159 0.75567 0.0
H433 H 0.50248 0.44366 0.77425 0.0
H434 H 0.47937 0.41086 0.76999 0.0
H435 H 0.49964 0.38954 0.77894 0.0
H436 H 0.53074 0.41382 0.78616 0.0
C437 C 0.59206 0.44651 0.72704 0.0
C438 C 0.56976 0.47095 0.71912 0.0
C439 C 0.57651 0.50126 0.81056 0.0
C440 C 0.55704 0.48819 0.81947 0.0
C441 C 0.53597 0.46537 0.81339 0.0
C442 C 0.53427 0.45565 0.79875 0.0
C443 C 0.55388 0.46876 0.79 0.0
C444 C 0.57457 0.49117 0.7959 0.0
C445 C 0.59367 0.50222 0.78492 0.0
C446 C 0.5808 0.48292 0.77144 0.0
C447 C 0.55753 0.46338 0.77454 0.0
C448 C 0.61796 0.50326 0.79126 0.0
C449 C 0.59697 0.52806 0.78192 0.0
C450 C 0.49164 0.38307 0.74396 0.0
C451 C 0.49048 0.37208 0.72962 0.0
C452 C 0.50977 0.38569 0.72062 0.0
C453 C 0.52989 0.40946 0.72586 0.0
C454 C 0.53109 0.41977 0.74036 0.0
C455 C 0.51213 0.40665 0.74912 0.0
C456 C 0.51701 0.4201 0.76442 0.0
C457 C 0.54225 0.44324 0.76346 0.0
C458 C 0.55026 0.44304 0.74931 0.0
C459 C 0.51848 0.4031 0.77592 0.0
C460 C 0.49631 0.42684 0.76634 0.0
H461 H 0.63719 0.5295 0.76789 0.0
H462 H 0.62477 0.49642 0.71488 0.0
H463 H 0.57019 0.48902 0.72172 0.0
H464 H 0.54982 0.45634 0.71792 0.0
H465 H 0.5773 0.47155 0.70822 0.0
H466 H 0.61089 0.45149 0.73219 0.0
H467 H 0.59212 0.44391 0.71479 0.0
H468 H 0.5793 0.4282 0.73101 0.0
H469 H 0.593 0.51874 0.81497 0.0
H470 H 0.52054 0.45517 0.81993 0.0
H471 H 0.51771 0.43825 0.79481 0.0
H472 H 0.6138 0.48788 0.79843 0.0
H473 H 0.63055 0.52133 0.79814 0.0
H474 H 0.62823 0.50043 0.78248 0.0
H475 H 0.57849 0.52689 0.78034 0.0
H476 H 0.60592 0.5349 0.7717 0.0
H477 H 0.60815 0.5424 0.79144 0.0
H478 H 0.67054 0.55022 0.75244 0.0
C479 C 0.63394 0.52189 0.75648 0.0
C480 C 0.62544 0.11254 0.72674 0.0
C481 C 0.64605 0.11084 0.73244 0.0
C482 C 0.64849 0.10774 0.74764 0.0
C483 C 0.60958 0.107 0.75098 0.0
C484 C 0.60763 0.11075 0.73617 0.0
C485 C 0.58483 0.1125 0.73184 0.0
H486 H 0.48092 0.11164 0.75143 0.0
C487 C 0.58765 0.10549 0.7576 0.0
C488 C 0.57325 0.10899 0.74645 0.0
H489 H 0.50801 0.11938 0.70792 0.0
H490 H 0.54339 0.11676 0.71787 0.0
H491 H 0.48847 0.06686 0.75736 0.0
H492 H 0.53458 0.14578 0.77116 0.0
H493 H 0.53377 0.12948 0.78662 0.0
H494 H 0.50514 0.12613 0.77811 0.0
H495 H 0.48217 0.08167 0.77284 0.0
H496 H 0.50277 0.06905 0.77509 0.0
C497 C 0.56801 0.09067 0.71969 0.0
C498 C 0.59355 0.13903 0.72698 0.0
C499 C 0.57286 0.084 0.81095 0.0
C500 C 0.5535 0.0802 0.81978 0.0
C501 C 0.53434 0.0842 0.81391 0.0
C502 C 0.53417 0.09139 0.79954 0.0
C503 C 0.55326 0.09449 0.79076 0.0
C504 C 0.57233 0.09105 0.79653 0.0
C505 C 0.59097 0.09512 0.7855 0.0
C506 C 0.57953 0.10088 0.77206 0.0
C507 C 0.55747 0.10051 0.77524 0.0
C508 C 0.5913 0.07035 0.78242 0.0
C509 C 0.61651 0.11792 0.79184 0.0
C510 C 0.49427 0.11258 0.74394 0.0
C511 C 0.49143 0.11578 0.7288 0.0
C512 C 0.50975 0.11735 0.71965 0.0
C513 C 0.53025 0.11559 0.72544 0.0
C514 C 0.53251 0.11201 0.74053 0.0
C515 C 0.51461 0.11045 0.74947 0.0
C516 C 0.51926 0.10535 0.76504 0.0
C517 C 0.54322 0.1046 0.76406 0.0
C518 C 0.55098 0.10866 0.74971 0.0
C519 C 0.49705 0.07953 0.76788 0.0
C520 C 0.52326 0.12768 0.77591 0.0
H521 H 0.63307 0.10309 0.76834 0.0
H522 H 0.62327 0.11537 0.71517 0.0
H523 H 0.61068 0.15342 0.73402 0.0
H524 H 0.57976 0.14516 0.72831 0.0
H525 H 0.59799 0.13999 0.71524 0.0
H526 H 0.56919 0.07362 0.72157 0.0
H527 H 0.57376 0.09584 0.70844 0.0
H528 H 0.54799 0.08454 0.71975 0.0
H529 H 0.58807 0.08145 0.81514 0.0
H530 H 0.51898 0.08109 0.82029 0.0
H531 H 0.51893 0.09389 0.79574 0.0
H532 H 0.57198 0.05396 0.78123 0.0
H533 H 0.60208 0.0678 0.79171 0.0
H534 H 0.5991 0.06919 0.77196 0.0
H535 H 0.61402 0.1319 0.79874 0.0
H536 H 0.62783 0.12844 0.78304 0.0
H537 H 0.62745 0.11203 0.79898 0.0
H538 H 0.66419 0.10633 0.75226 0.0
C539 C 0.63034 0.10574 0.75692 0.0
C540 C 0.83675 0.55861 0.93958 0.0
C541 C 0.85797 0.56082 0.9335 0.0
C542 C 0.86026 0.56404 0.91827 0.0
C543 C 0.82081 0.56367 0.9157 0.0
C544 C 0.81857 0.56002 0.93056 0.0
C545 C 0.79488 0.55756 0.93551 0.0
H546 H 0.68008 0.54054 0.91889 0.0
C547 C 0.79829 0.56406 0.9096 0.0
C548 C 0.78303 0.56028 0.92114 0.0
H549 H 0.71703 0.54315 0.96161 0.0
H550 H 0.75473 0.55456 0.95067 0.0
H551 H 0.73056 0.59378 0.91112 0.0
H552 H 0.70448 0.51568 0.89736 0.0
H553 H 0.7121 0.53334 0.88185 0.0
H554 H 0.68724 0.53087 0.89221 0.0
H555 H 0.70401 0.57557 0.89765 0.0
H556 H 0.73547 0.59075 0.89237 0.0
C557 C 0.80188 0.57957 0.94763 0.0
C558 C 0.7795 0.53098 0.94068 0.0
C559 C 0.79058 0.58087 0.85597 0.0
C560 C 0.77226 0.58256 0.84703 0.0
C561 C 0.75001 0.57775 0.85311 0.0
C562 C 0.74628 0.57177 0.86785 0.0
C563 C 0.76501 0.57059 0.87668 0.0
C564 C 0.78664 0.575 0.87063 0.0
C565 C 0.80452 0.57276 0.88149 0.0
C566 C 0.79056 0.56726 0.89523 0.0
C567 C 0.76726 0.56579 0.89241 0.0
C568 C 0.82921 0.59832 0.88382 0.0
C569 C 0.80746 0.55042 0.87547 0.0
C570 C 0.69638 0.54365 0.92582 0.0
C571 C 0.69507 0.53962 0.94105 0.0
C572 C 0.717 0.54481 0.94975 0.0
C573 C 0.7391 0.55165 0.94338 0.0
C574 C 0.73972 0.55371 0.92808 0.0
C575 C 0.71908 0.55089 0.91959 0.0
C576 C 0.7247 0.55637 0.90372 0.0
C577 C 0.75134 0.561 0.90404 0.0
C578 C 0.75966 0.55899 0.91836 0.0
C579 C 0.7235 0.58025 0.90092 0.0
C580 C 0.70612 0.53294 0.89313 0.0
H581 H 0.84468 0.56832 0.89786 0.0
H582 H 0.83417 0.5556 0.95117 0.0
H583 H 0.78088 0.5168 0.93323 0.0
H584 H 0.75933 0.52418 0.94032 0.0
H585 H 0.78649 0.53037 0.95214 0.0
H586 H 0.82075 0.59584 0.94671 0.0
H587 H 0.80195 0.57372 0.959 0.0
H588 H 0.78922 0.58733 0.94654 0.0
H589 H 0.80763 0.58385 0.85161 0.0
H590 H 0.73559 0.57899 0.84653 0.0
H591 H 0.729 0.5683 0.87183 0.0
H592 H 0.82531 0.61408 0.88475 0.0
H593 H 0.84051 0.60085 0.87431 0.0
H594 H 0.84076 0.60071 0.89419 0.0
H595 H 0.79005 0.53561 0.86884 0.0
H596 H 0.8108 0.54073 0.88444 0.0
H597 H 0.82281 0.55659 0.86814 0.0
H598 H 0.87649 0.56579 0.91335 0.0
C599 C 0.84182 0.56558 0.90934 0.0
C600 C 0.45556 0.16449 0.95273 0.0
C601 C 0.45443 0.14214 0.94728 0.0
C602 C 0.44166 0.13036 0.93316 0.0
C603 C 0.43313 0.1642 0.92979 0.0
C604 C 0.44486 0.17512 0.94387 0.0
C605 C 0.44518 0.19921 0.94797 0.0
H606 H 0.42325 0.29053 0.92786 0.0
C607 C 0.42529 0.18089 0.92323 0.0
C608 C 0.4322 0.20133 0.93389 0.0
H609 H 0.45464 0.28513 0.9705 0.0
H610 H 0.44914 0.24508 0.96147 0.0
H611 H 0.451 0.27035 0.90796 0.0
H612 H 0.37821 0.23289 0.9236 0.0
H613 H 0.37484 0.21983 0.90525 0.0
H614 H 0.38531 0.25284 0.90885 0.0
H615 H 0.42566 0.27388 0.90042 0.0
H616 H 0.4304 0.24886 0.89321 0.0
C617 C 0.47283 0.22059 0.9508 0.0
C618 C 0.42979 0.19566 0.96144 0.0
C619 C 0.38667 0.16151 0.86952 0.0
C620 C 0.37943 0.17472 0.86022 0.0
C621 C 0.38131 0.19733 0.86609 0.0
C622 C 0.39062 0.2069 0.88091 0.0
C623 C 0.39832 0.19383 0.88999 0.0
C624 C 0.39615 0.17146 0.88431 0.0
C625 C 0.40578 0.16051 0.89558 0.0
C626 C 0.41398 0.17998 0.90892 0.0
C627 C 0.40959 0.19945 0.90554 0.0
C628 C 0.4281 0.15938 0.88955 0.0
C629 C 0.38383 0.13475 0.89858 0.0
C630 C 0.4287 0.28061 0.9353 0.0
C631 C 0.43966 0.29121 0.94988 0.0
C632 C 0.44665 0.27768 0.95913 0.0
C633 C 0.44328 0.2543 0.95389 0.0
C634 C 0.43284 0.24423 0.93921 0.0
C635 C 0.42543 0.25717 0.93024 0.0
C636 C 0.41438 0.24336 0.91502 0.0
C637 C 0.4165 0.22006 0.91634 0.0
C638 C 0.4275 0.22082 0.93047 0.0
C639 C 0.43098 0.25988 0.90345 0.0
C640 C 0.38679 0.23696 0.91291 0.0
H641 H 0.42187 0.1317 0.91362 0.0
H642 H 0.4648 0.17369 0.96367 0.0
H643 H 0.41469 0.17578 0.96138 0.0
H644 H 0.41991 0.20643 0.96127 0.0
H645 H 0.44177 0.20094 0.97214 0.0
H646 H 0.48432 0.21786 0.9427 0.0
H647 H 0.48096 0.22103 0.96215 0.0
H648 H 0.47542 0.23931 0.94931 0.0
H649 H 0.38559 0.14418 0.86527 0.0
H650 H 0.3755 0.20763 0.85919 0.0
H651 H 0.39168 0.22424 0.88466 0.0
H652 H 0.43965 0.17622 0.88374 0.0
H653 H 0.42154 0.14255 0.88146 0.0
H654 H 0.44113 0.15944 0.89839 0.0
H655 H 0.36608 0.13514 0.89834 0.0
H656 H 0.3863 0.12946 0.90973 0.0
H657 H 0.38108 0.11968 0.89003 0.0
H658 H 0.44053 0.11308 0.92876 0.0
C659 C 0.431 0.14129 0.92437 0.0
C660 C 0.72118 0.15865 0.94646 0.0
C661 C 0.70144 0.1348 0.94081 0.0
C662 C 0.69963 0.12663 0.92564 0.0
C663 C 0.7373 0.16558 0.92231 0.0
C664 C 0.73875 0.17355 0.93713 0.0
C665 C 0.76085 0.19916 0.94168 0.0
H666 H 0.86577 0.30015 0.92468 0.0
C667 C 0.75887 0.18567 0.91583 0.0
C668 C 0.77265 0.20533 0.92719 0.0
H669 H 0.8339 0.28737 0.96675 0.0
H670 H 0.79954 0.24751 0.95601 0.0
H671 H 0.85532 0.24385 0.91687 0.0
H672 H 0.81509 0.28123 0.90485 0.0
H673 H 0.81109 0.26104 0.88914 0.0
H674 H 0.84209 0.28597 0.89608 0.0
H675 H 0.86558 0.26723 0.904 0.0
H676 H 0.84437 0.23451 0.89794 0.0
C677 C 0.7779 0.19666 0.95387 0.0
C678 C 0.75111 0.21699 0.94657 0.0
C679 C 0.77276 0.17545 0.86136 0.0
C680 C 0.79137 0.19124 0.85261 0.0
C681 C 0.81075 0.21476 0.85924 0.0
C682 C 0.81162 0.22252 0.87421 0.0
C683 C 0.79298 0.20665 0.88279 0.0
C684 C 0.77391 0.18356 0.87639 0.0
C685 C 0.75574 0.16937 0.88737 0.0
C686 C 0.76712 0.1878 0.90134 0.0
C687 C 0.78899 0.20954 0.89853 0.0
C688 C 0.75623 0.14486 0.88922 0.0
C689 C 0.7298 0.16521 0.88173 0.0
C690 C 0.85146 0.28864 0.93159 0.0
C691 C 0.85256 0.29689 0.94659 0.0
C692 C 0.83335 0.28155 0.95513 0.0
C693 C 0.81346 0.25831 0.94888 0.0
C694 C 0.81268 0.25024 0.93391 0.0
C695 C 0.83137 0.26539 0.9255 0.0
C696 C 0.82713 0.25393 0.9097 0.0
C697 C 0.80292 0.22929 0.91007 0.0
C698 C 0.79468 0.22722 0.92428 0.0
C699 C 0.84924 0.24974 0.90682 0.0
C700 C 0.82383 0.27139 0.8993 0.0
H701 H 0.7152 0.13458 0.90497 0.0
H702 H 0.72288 0.16579 0.95796 0.0
H703 H 0.73294 0.21147 0.94019 0.0
H704 H 0.7636 0.2366 0.94433 0.0
H705 H 0.74819 0.21657 0.95857 0.0
H706 H 0.77786 0.17871 0.95167 0.0
H707 H 0.7714 0.19686 0.96503 0.0
H708 H 0.79771 0.21139 0.95427 0.0
H709 H 0.75756 0.15732 0.8566 0.0
H710 H 0.8256 0.2271 0.85291 0.0
H711 H 0.82693 0.24059 0.87852 0.0
H712 H 0.77563 0.14829 0.88934 0.0
H713 H 0.74468 0.13026 0.87989 0.0
H714 H 0.74983 0.13719 0.89983 0.0
H715 H 0.73168 0.18209 0.87681 0.0
H716 H 0.71761 0.16221 0.89072 0.0
H717 H 0.72011 0.14904 0.87301 0.0
H718 H 0.68464 0.10829 0.921 0.0
C719 C 0.71747 0.14187 0.91637 0.0
C720 C 0.55339 0.84111 0.04923 0.0
C721 C 0.55773 0.86536 0.05355 0.0
C722 C 0.56864 0.87638 0.06815 0.0
C723 C 0.57006 0.83916 0.07372 0.0
C724 C 0.56001 0.82864 0.05934 0.0
C725 C 0.55788 0.80344 0.05614 0.0
H726 H 0.57318 0.70981 0.08006 0.0
C727 C 0.57466 0.82116 0.0814 0.0
C728 C 0.56791 0.80037 0.07106 0.0
H729 H 0.54659 0.71532 0.03598 0.0
H730 H 0.55137 0.75544 0.04423 0.0
H731 H 0.61815 0.76775 0.08602 0.0
H732 H 0.54246 0.72897 0.09722 0.0
H733 H 0.55998 0.75138 0.11234 0.0
H734 H 0.56693 0.7269 0.10739 0.0
H735 H 0.60794 0.746 0.09986 0.0
H736 H 0.61843 0.77881 0.10443 0.0
C737 C 0.57485 0.80537 0.04375 0.0
C738 C 0.52989 0.78362 0.05217 0.0
C739 C 0.6026 0.8379 0.1369 0.0
C740 C 0.60714 0.82387 0.14705 0.0
C741 C 0.60539 0.80105 0.14171 0.0
C742 C 0.59887 0.79214 0.12662 0.0
C743 C 0.59388 0.80606 0.11668 0.0
C744 C 0.59601 0.82865 0.12182 0.0
C745 C 0.59003 0.84084 0.10954 0.0
C746 C 0.58327 0.82143 0.09633 0.0
C747 C 0.58559 0.80115 0.10062 0.0
C748 C 0.61389 0.86602 0.10773 0.0
C749 C 0.56743 0.84353 0.1134 0.0
C750 C 0.56866 0.71981 0.07215 0.0
C751 C 0.55949 0.70937 0.05735 0.0
C752 C 0.55341 0.72281 0.04748 0.0
C753 C 0.55635 0.7462 0.05227 0.0
C754 C 0.56546 0.75636 0.06711 0.0
C755 C 0.57144 0.7432 0.07677 0.0
C756 C 0.58044 0.75672 0.09219 0.0
C757 C 0.5793 0.78037 0.0901 0.0
C758 C 0.57048 0.78001 0.07541 0.0
C759 C 0.6076 0.76257 0.09598 0.0
C760 C 0.56172 0.74023 0.10295 0.0
H761 H 0.58288 0.87277 0.08917 0.0
H762 H 0.54485 0.83177 0.03823 0.0
H763 H 0.51805 0.78765 0.05932 0.0
H764 H 0.52548 0.76442 0.0541 0.0
H765 H 0.52375 0.78365 0.0404 0.0
H766 H 0.59127 0.82465 0.04423 0.0
H767 H 0.56453 0.80087 0.03252 0.0
H768 H 0.58303 0.79316 0.04491 0.0
H769 H 0.60405 0.85562 0.14063 0.0
H770 H 0.60841 0.78966 0.14928 0.0
H771 H 0.59763 0.77454 0.12334 0.0
H772 H 0.63109 0.86534 0.11102 0.0
H773 H 0.61467 0.88182 0.11476 0.0
H774 H 0.61545 0.87043 0.09604 0.0
H775 H 0.55289 0.82602 0.11752 0.0
H776 H 0.55803 0.84666 0.10375 0.0
H777 H 0.57319 0.85918 0.12226 0.0
H778 H 0.57285 0.89523 0.07178 0.0
C779 C 0.5747 0.86339 0.07825 0.0
C780 C 0.2885 0.84671 0.05677 0.0
C781 C 0.31218 0.86581 0.06323 0.0
C782 C 0.31583 0.87127 0.0789 0.0
C783 C 0.2733 0.83831 0.08108 0.0
C784 C 0.26984 0.8329 0.06581 0.0
C785 C 0.24517 0.80996 0.06055 0.0
H786 H 0.13698 0.71202 0.07665 0.0
C787 C 0.2503 0.81967 0.08717 0.0
C788 C 0.23402 0.80279 0.07514 0.0
H789 H 0.16581 0.72722 0.0338 0.0
H790 H 0.20172 0.76588 0.04489 0.0
H791 H 0.18774 0.72676 0.09491 0.0
H792 H 0.15017 0.76799 0.08668 0.0
H793 H 0.165 0.77895 0.10483 0.0
H794 H 0.14147 0.74626 0.1005 0.0
H795 H 0.16027 0.72132 0.10339 0.0
H796 H 0.19111 0.74425 0.11179 0.0
C797 C 0.25023 0.7898 0.05308 0.0
C798 C 0.23 0.81781 0.05023 0.0
C799 C 0.23883 0.82694 0.14237 0.0
C800 C 0.21894 0.81222 0.15068 0.0
C801 C 0.19766 0.79074 0.14342 0.0
C802 C 0.19605 0.78398 0.12824 0.0
C803 C 0.21589 0.79879 0.12006 0.0
C804 C 0.23693 0.81983 0.12708 0.0
C805 C 0.25619 0.83292 0.1164 0.0
C806 C 0.24272 0.81675 0.10181 0.0
C807 C 0.21921 0.79675 0.10415 0.0
C808 C 0.27978 0.83156 0.12131 0.0
C809 C 0.26096 0.85995 0.11606 0.0
C810 C 0.1509 0.72384 0.06963 0.0
C811 C 0.14864 0.71656 0.05435 0.0
C812 C 0.16732 0.73231 0.04564 0.0
C813 C 0.18815 0.75473 0.0521 0.0
C814 C 0.19051 0.76139 0.06749 0.0
C815 C 0.17194 0.74615 0.07594 0.0
C816 C 0.17769 0.75602 0.09212 0.0
C817 C 0.20314 0.77934 0.09205 0.0
C818 C 0.21047 0.78242 0.07762 0.0
C819 C 0.17915 0.73612 0.10115 0.0
C820 C 0.15756 0.76254 0.0964 0.0
H821 H 0.30046 0.86276 0.09962 0.0
H822 H 0.28439 0.84204 0.04485 0.0
H823 H 0.23198 0.83589 0.05487 0.0
H824 H 0.20975 0.80422 0.04906 0.0
H825 H 0.23668 0.82038 0.03899 0.0
H826 H 0.26871 0.79262 0.05738 0.0
H827 H 0.2501 0.79041 0.04084 0.0
H828 H 0.23672 0.77056 0.0555 0.0
H829 H 0.25548 0.84349 0.14765 0.0
H830 H 0.18187 0.77935 0.14945 0.0
H831 H 0.17926 0.7675 0.12346 0.0
H832 H 0.27477 0.81406 0.12661 0.0
H833 H 0.29271 0.8477 0.12951 0.0
H834 H 0.28993 0.8308 0.11184 0.0
H835 H 0.24295 0.85984 0.11493 0.0
H836 H 0.27098 0.8692 0.10659 0.0
H837 H 0.27186 0.87177 0.1265 0.0
H838 H 0.3338 0.8855 0.08439 0.0
C839 C 0.29649 0.85781 0.08781 0.0
C840 C 0.29332 0.45311 0.06347 0.0
C841 C 0.3122 0.44845 0.06871 0.0
C842 C 0.31283 0.44223 0.08341 0.0
C843 C 0.27531 0.44427 0.087 0.0
C844 C 0.27527 0.45096 0.07271 0.0
C845 C 0.25418 0.45548 0.06861 0.0
H846 H 0.15569 0.4654 0.08743 0.0
C847 C 0.25349 0.4434 0.09345 0.0
C848 C 0.24122 0.4501 0.08274 0.0
H849 H 0.18927 0.47785 0.04586 0.0
H850 H 0.21792 0.4656 0.05524 0.0
H851 H 0.15592 0.41284 0.09042 0.0
H852 H 0.20709 0.4885 0.10992 0.0
H853 H 0.20007 0.46765 0.12377 0.0
H854 H 0.17544 0.47066 0.11442 0.0
H855 H 0.14853 0.42702 0.10572 0.0
H856 H 0.16607 0.4112 0.10861 0.0
C857 C 0.23745 0.43618 0.05524 0.0
C858 C 0.26564 0.48342 0.06563 0.0
C859 C 0.23331 0.41501 0.14486 0.0
C860 C 0.21352 0.41062 0.15339 0.0
C861 C 0.19552 0.41658 0.14792 0.0
C862 C 0.19693 0.42616 0.13409 0.0
C863 C 0.21646 0.42974 0.12555 0.0
C864 C 0.23428 0.42427 0.13102 0.0
C865 C 0.25336 0.42857 0.12032 0.0
C866 C 0.24382 0.43707 0.10739 0.0
C867 C 0.22226 0.43793 0.11053 0.0
C868 C 0.25204 0.40322 0.11606 0.0
C869 C 0.2792 0.44963 0.12765 0.0
C870 C 0.1692 0.46536 0.08039 0.0
C871 C 0.17069 0.47343 0.06603 0.0
C872 C 0.18826 0.47265 0.05714 0.0
C873 C 0.20487 0.46534 0.06258 0.0
C874 C 0.20402 0.45846 0.0771 0.0
C875 C 0.18609 0.45794 0.08569 0.0
C876 C 0.18769 0.44892 0.10066 0.0
C877 C 0.2102 0.44531 0.09974 0.0
C878 C 0.21958 0.45106 0.08591 0.0
C879 C 0.16329 0.42377 0.10156 0.0
C880 C 0.1927 0.46988 0.11293 0.0
H881 H 0.29569 0.43498 0.10361 0.0
H882 H 0.29263 0.45849 0.05235 0.0
H883 H 0.2833 0.49556 0.07294 0.0
H884 H 0.25356 0.49128 0.06818 0.0
H885 H 0.27007 0.48599 0.05393 0.0
H886 H 0.23783 0.41837 0.0555 0.0
H887 H 0.24382 0.4436 0.04447 0.0
H888 H 0.21748 0.43038 0.05536 0.0
H889 H 0.24774 0.41112 0.14878 0.0
H890 H 0.17993 0.41321 0.15413 0.0
H891 H 0.18258 0.43012 0.13049 0.0
H892 H 0.23232 0.38755 0.11465 0.0
H893 H 0.26231 0.39904 0.12485 0.0
H894 H 0.25938 0.4025 0.10535 0.0
H895 H 0.27736 0.46399 0.13462 0.0
H896 H 0.292 0.46017 0.11943 0.0
H897 H 0.28823 0.44195 0.13494 0.0
H898 H 0.32726 0.43857 0.0877 0.0
C899 C 0.29443 0.44005 0.09258 0.0
C900 C 0.48752 0.89477 0.28177 0.0
C901 C 0.50659 0.89065 0.27694 0.0
C902 C 0.5096 0.89061 0.26155 0.0
C903 C 0.47594 0.89923 0.25654 0.0
C904 C 0.47216 0.89832 0.27141 0.0
C905 C 0.44933 0.8999 0.27448 0.0
H906 H 0.35031 0.90958 0.24837 0.0
C907 C 0.45683 0.90324 0.24871 0.0
C908 C 0.44091 0.90325 0.25909 0.0
H909 H 0.36585 0.89246 0.29209 0.0
H910 H 0.40497 0.89788 0.28528 0.0
H911 H 0.40836 0.95314 0.24431 0.0
H912 H 0.3651 0.87353 0.2307 0.0
H913 H 0.38102 0.88899 0.21572 0.0
H914 H 0.35821 0.89568 0.22279 0.0
H915 H 0.38325 0.94013 0.22963 0.0
H916 H 0.41447 0.94772 0.22613 0.0
C917 C 0.4575 0.92328 0.2856 0.0
C918 C 0.42997 0.87474 0.28003 0.0
C919 C 0.46115 0.91727 0.19406 0.0
C920 C 0.44685 0.9222 0.18363 0.0
C921 C 0.42673 0.92449 0.18836 0.0
C922 C 0.42073 0.92143 0.20314 0.0
C923 C 0.43499 0.91602 0.21334 0.0
C924 C 0.45497 0.91428 0.20871 0.0
C925 C 0.46832 0.90868 0.22094 0.0
C926 C 0.45322 0.9075 0.23377 0.0
C927 C 0.43358 0.91161 0.22929 0.0
C928 C 0.49549 0.93096 0.22374 0.0
C929 C 0.46609 0.88293 0.21639 0.0
C930 C 0.36194 0.90677 0.2565 0.0
C931 C 0.35451 0.90032 0.27081 0.0
C932 C 0.37089 0.89766 0.28107 0.0
C933 C 0.39354 0.90041 0.27701 0.0
C934 C 0.3999 0.90545 0.26246 0.0
C935 C 0.38435 0.90881 0.25251 0.0
C936 C 0.39366 0.91304 0.23733 0.0
C937 C 0.41688 0.91076 0.23969 0.0
C938 C 0.42055 0.90659 0.2545 0.0
C939 C 0.40017 0.93982 0.23402 0.0
C940 C 0.3735 0.89188 0.22593 0.0
H941 H 0.49818 0.89501 0.23998 0.0
H942 H 0.48424 0.89514 0.29335 0.0
H943 H 0.43347 0.85921 0.27668 0.0
H944 H 0.41068 0.86808 0.27512 0.0
H945 H 0.43053 0.87635 0.29236 0.0
H946 H 0.47441 0.93978 0.28229 0.0
H947 H 0.46209 0.92 0.297 0.0
H948 H 0.44314 0.92884 0.28603 0.0
H949 H 0.47704 0.91587 0.19093 0.0
H950 H 0.41533 0.9282 0.18057 0.0
H951 H 0.40508 0.92317 0.20603 0.0
H952 H 0.49581 0.94915 0.22377 0.0
H953 H 0.50687 0.93023 0.2149 0.0
H954 H 0.50493 0.93174 0.23463 0.0
H955 H 0.44937 0.87086 0.20836 0.0
H956 H 0.46347 0.87173 0.22592 0.0
H957 H 0.48271 0.88531 0.21104 0.0
H958 H 0.52312 0.88655 0.25707 0.0
C959 C 0.4947 0.89518 0.25145 0.0
C960 C 0.13929 0.49926 0.28361 0.0
C961 C 0.13633 0.47681 0.27673 0.0
C962 C 0.12175 0.46658 0.26292 0.0
C963 C 0.1149 0.50207 0.26265 0.0
C964 C 0.1284 0.51142 0.27646 0.0
C965 C 0.12996 0.53546 0.28237 0.0
H966 H 0.10245 0.62727 0.27362 0.0
C967 C 0.10706 0.51999 0.25809 0.0
C968 C 0.11567 0.53944 0.26968 0.0
H969 H 0.14294 0.61872 0.31127 0.0
H970 H 0.13777 0.58084 0.29876 0.0
H971 H 0.13005 0.61328 0.24914 0.0
H972 H 0.05968 0.56839 0.26666 0.0
H973 H 0.05521 0.56133 0.24719 0.0
H974 H 0.06517 0.59281 0.25499 0.0
H975 H 0.10295 0.61534 0.24358 0.0
H976 H 0.10905 0.59253 0.23427 0.0
C977 C 0.15788 0.55629 0.28452 0.0
C978 C 0.11647 0.5307 0.29675 0.0
C979 C 0.06277 0.50687 0.20652 0.0
C980 C 0.05471 0.52112 0.19884 0.0
C981 C 0.05761 0.54332 0.20624 0.0
C982 C 0.06855 0.5513 0.22098 0.0
C983 C 0.07687 0.53706 0.22842 0.0
C984 C 0.07384 0.5152 0.2212 0.0
C985 C 0.08423 0.50273 0.23075 0.0
C986 C 0.09422 0.52083 0.24482 0.0
C987 C 0.08979 0.54089 0.24342 0.0
C988 C 0.10539 0.50187 0.22292 0.0
C989 C 0.06246 0.47665 0.23348 0.0
C990 C 0.11032 0.61731 0.27912 0.0
C991 C 0.12281 0.62595 0.29359 0.0
C992 C 0.13269 0.61227 0.30031 0.0
C993 C 0.12982 0.59027 0.29297 0.0
C994 C 0.11706 0.58172 0.27864 0.0
C995 C 0.10768 0.59522 0.27189 0.0
C996 C 0.0951 0.58336 0.25648 0.0
C997 C 0.09805 0.56029 0.25529 0.0
C998 C 0.11095 0.55953 0.26832 0.0
C999 C 0.1098 0.60201 0.2452 0.0
C1000 C 0.06734 0.57617 0.25616 0.0
H1001 H 0.10051 0.4707 0.24519 0.0
H1002 H 0.15 0.50729 0.29437 0.0
H1003 H 0.10069 0.51103 0.29616 0.0
H1004 H 0.10775 0.54236 0.29855 0.0
H1005 H 0.12943 0.53387 0.3067 0.0
H1006 H 0.16828 0.55358 0.27566 0.0
H1007 H 0.16697 0.55609 0.29541 0.0
H1008 H 0.16073 0.57528 0.28362 0.0
H1009 H 0.06108 0.48988 0.2011 0.0
H1010 H 0.05127 0.55446 0.20064 0.0
H1011 H 0.07022 0.56834 0.22598 0.0
H1012 H 0.11687 0.51967 0.21791 0.0
H1013 H 0.09762 0.48625 0.21384 0.0
H1014 H 0.11869 0.49999 0.23059 0.0
H1015 H 0.04485 0.47711 0.23421 0.0
H1016 H 0.06565 0.47042 0.24416 0.0
H1017 H 0.05898 0.46219 0.22428 0.0
H1018 H 0.1192 0.44924 0.25747 0.0
C1019 C 0.11107 0.47915 0.25581 0.0
C1020 C 0.39338 0.49136 0.27974 0.0
C1021 C 0.37526 0.46786 0.27262 0.0
C1022 C 0.37475 0.46299 0.25713 0.0
C1023 C 0.41051 0.50479 0.25633 0.0
C1024 C 0.41052 0.5094 0.27147 0.0
C1025 C 0.42994 0.53558 0.27752 0.0
H1026 H 0.52045 0.65185 0.26657 0.0
C1027 C 0.43079 0.528 0.25117 0.0
C1028 C 0.442 0.54603 0.2636 0.0
H1029 H 0.48756 0.6244 0.30712 0.0
H1030 H 0.46228 0.58285 0.29459 0.0
H1031 H 0.52506 0.6022 0.25589 0.0
H1032 H 0.47037 0.62395 0.24558 0.0
H1033 H 0.47372 0.61029 0.22894 0.0
H1034 H 0.50021 0.63834 0.23833 0.0
H1035 H 0.53039 0.62625 0.24398 0.0
H1036 H 0.51523 0.59357 0.23681 0.0
C1037 C 0.44836 0.53391 0.2891 0.0
C1038 C 0.41636 0.54906 0.28374 0.0
C1039 C 0.44902 0.53188 0.19675 0.0
C1040 C 0.46605 0.55147 0.18903 0.0
C1041 C 0.48277 0.57492 0.19699 0.0
C1042 C 0.48243 0.57903 0.21232 0.0
C1043 C 0.46501 0.55956 0.21986 0.0
C1044 C 0.4487 0.5364 0.21214 0.0
C1045 C 0.43106 0.51827 0.22209 0.0
C1046 C 0.43979 0.53427 0.23702 0.0
C1047 C 0.45968 0.55849 0.23558 0.0
C1048 C 0.43536 0.49568 0.22225 0.0
C1049 C 0.40409 0.51114 0.21643 0.0
C1050 C 0.50798 0.63671 0.27271 0.0
C1051 C 0.50575 0.64133 0.2878 0.0
C1052 C 0.48929 0.62128 0.29544 0.0
C1053 C 0.4746 0.59715 0.28812 0.0
C1054 C 0.47613 0.5929 0.2729 0.0
C1055 C 0.49284 0.61236 0.26546 0.0
C1056 C 0.49135 0.60417 0.24922 0.0
C1057 C 0.47067 0.57679 0.24816 0.0
C1058 C 0.46194 0.57043 0.26207 0.0
C1059 C 0.51681 0.60678 0.24616 0.0
C1060 C 0.4837 0.62002 0.23992 0.0
H1061 H 0.39128 0.4765 0.23722 0.0
H1062 H 0.39387 0.4959 0.29156 0.0
H1063 H 0.39727 0.54112 0.27792 0.0
H1064 H 0.42579 0.56919 0.28199 0.0
H1065 H 0.41437 0.54715 0.29579 0.0
H1066 H 0.45149 0.5182 0.28555 0.0
H1067 H 0.44098 0.53053 0.30014 0.0
H1068 H 0.46715 0.55081 0.29041 0.0
H1069 H 0.43582 0.51373 0.19088 0.0
H1070 H 0.49622 0.59018 0.1913 0.0
H1071 H 0.49561 0.59734 0.21766 0.0
H1072 H 0.45569 0.50221 0.22338 0.0
H1073 H 0.42689 0.483 0.21176 0.0
H1074 H 0.42782 0.48464 0.23172 0.0
H1075 H 0.40369 0.52746 0.21213 0.0
H1076 H 0.39143 0.50568 0.2253 0.0
H1077 H 0.39618 0.49568 0.20724 0.0
H1078 H 0.36084 0.44498 0.25141 0.0
C1079 C 0.39242 0.48128 0.24895 0.0
C1080 C 0.53271 0.0171 0.04835 0.0
Eu1081 Eu 0.51887 0.01539 0.02035 0.0
C1082 C 0.52206 0.00319 0.06125 0.0
C1083 C 0.4975 0.99572 0.06435 0.0
C1084 C 0.48811 0.98307 0.07687 0.0
C1085 C 0.50288 0.9772 0.08628 0.0
C1086 C 0.52731 0.98444 0.08304 0.0
C1087 C 0.53687 0.99757 0.07074 0.0
C1088 C 0.50921 0.04863 0.00798 0.0
C1089 C 0.4588 0.97635 0.01277 0.0
C1090 C 0.48054 0.00149 0.96009 0.0
Eu1091 Eu 0.49466 1.00025 0.98761 0.0
C1092 C 0.49196 0.00953 0.94616 0.0
C1093 C 0.51457 0.01064 0.94362 0.0
C1094 C 0.5248 0.0178 0.93015 0.0
C1095 C 0.51277 0.02427 0.91905 0.0
C1096 C 0.49029 0.02346 0.9218 0.0
C1097 C 0.48 0.01612 0.93522 0.0
C1098 C 0.50487 0.96694 0.99946 0.0
C1099 C 0.55562 0.03624 0.99484 0.0
O1100 O 0.53736 0.00526 0.03764 0.0
O1101 O 0.5232 0.03035 0.0434 0.0
O1102 O 0.52877 0.05513 0.01717 0.0
O1103 O 0.49515 0.02511 0.0063 0.0
O1104 O 0.47909 0.98441 0.02213 0.0
O1105 O 0.45961 0.98273 0.99905 0.0
O1106 O 0.48619 0.01937 0.97068 0.0
O1107 O 0.4804 0.98195 0.96505 0.0
O1108 O 0.4869 0.96054 0.98903 0.0
O1109 O 0.51826 0.99046 1.0017 0.0
O1110 O 0.53548 0.02755 0.98524 0.0
O1111 O 0.55426 0.03198 0.00902 0.0
H1112 H 0.48561 0.99973 0.05718 0.0
H1113 H 0.46923 0.97762 0.07913 0.0
H1114 H 0.53918 0.98035 0.09018 0.0
H1115 H 0.55591 0.00333 0.06862 0.0
H1116 H 0.52423 0.00581 0.952 0.0
H1117 H 0.54214 0.01831 0.92842 0.0
H1118 H 0.4803 0.02793 0.91345 0.0
H1119 H 0.46253 0.01538 0.937 0.0
C1120 C 0.98644 0.51443 0.0471 0.0
Eu1121 Eu 0.99161 0.50467 0.01954 0.0
C1122 C 0.99232 0.50989 0.06229 0.0
C1123 C 0.97274 0.49495 0.07063 0.0
C1124 C 0.97774 0.49145 0.08528 0.0
C1125 C 0.00244 0.50304 0.09195 0.0
C1126 C 0.02207 0.51781 0.08356 0.0
C1127 C 0.01708 0.52117 0.06886 0.0
C1128 C 0.96751 0.45925 0.00348 0.0
C1129 C 0.03949 0.49633 0.01731 0.0
C1130 C 0.01399 0.48964 0.96168 0.0
Eu1131 Eu 0.01024 0.50203 0.98905 0.0
C1132 C 0.00673 0.49122 0.94614 0.0
C1133 C 0.02526 0.50082 0.93633 0.0
C1134 C 0.01902 0.5015 0.92136 0.0
C1135 C 0.99406 0.49243 0.91586 0.0
C1136 C 0.97546 0.48293 0.92571 0.0
C1137 C 0.98174 0.48241 0.94076 0.0
C1138 C 0.0349 0.54754 0.00498 0.0
C1139 C 0.96623 0.51627 0.99165 0.0
O1140 O 0.00514 0.52979 0.04005 0.0
O1141 O 0.96929 0.49498 0.0384 0.0
O1142 O 0.95641 0.46785 0.01168 0.0
O1143 O 0.99069 0.47428 0.00472 0.0
O1144 O 0.02654 0.50272 0.02584 0.0
O1145 O 0.03472 0.49192 0.00268 0.0
O1146 O 0.99634 0.4747 0.96951 0.0
O1147 O 0.03066 0.51066 0.96939 0.0
O1148 O 0.04552 0.53928 0.9961 0.0
O1149 O 0.01176 0.53249 0.00402 0.0
O1150 O 0.97665 0.5068 0.98295 0.0
O1151 O 0.97177 0.52031 0.00625 0.0
H1152 H 0.95349 0.48625 0.06589 0.0
H1153 H 0.96221 0.48021 0.09151 0.0
H1154 H 0.04131 0.52678 0.08837 0.0
H1155 H 0.03263 0.53282 0.06274 0.0
H1156 H 0.0446 0.50752 0.94021 0.0
H1157 H 0.03373 0.50865 0.91402 0.0
H1158 H 0.9561 0.47604 0.9218 0.0
H1159 H 0.96706 0.47496 0.94811 0.0
C1160 C 0.48074 0.49742 0.95968 0.0
Eu1161 Eu 0.49344 0.50245 0.9881 0.0
C1162 C 0.49404 0.50196 0.94622 0.0
C1163 C 0.48944 0.51464 0.93524 0.0
C1164 C 0.50186 0.51917 0.92239 0.0
C1165 C 0.51897 0.51091 0.92025 0.0
C1166 C 0.52376 0.49843 0.93133 0.0
C1167 C 0.51155 0.49414 0.94426 0.0
C1168 C 0.51185 0.54491 0.00663 0.0
C1169 C 0.55005 0.51066 0.99335 0.0
C1170 C 0.52746 0.5071 0.04776 0.0
Eu1171 Eu 0.51446 0.50056 0.01918 0.0
C1172 C 0.51759 0.51179 0.06125 0.0
C1173 C 0.52566 0.50814 0.07518 0.0
C1174 C 0.51655 0.51273 0.08809 0.0
C1175 C 0.49904 0.52093 0.08729 0.0
C1176 C 0.49071 0.52413 0.07321 0.0
C1177 C 0.50002 0.51976 0.06035 0.0
C1178 C 0.4954 0.45782 1.00077 0.0
C1179 C 0.45692 0.48887 0.0132 0.0
O1180 O 0.47891 0.47899 0.96699 0.0
O1181 O 0.48593 0.51739 0.96845 0.0
O1182 O 0.49222 0.53661 0.99717 0.0
O1183 O 0.52156 0.53124 0.00541 0.0
O1184 O 0.53099 0.5066 0.98397 0.0
O1185 O 0.54924 0.51127 0.00793 0.0
O1186 O 0.53646 0.52524 0.03909 0.0
O1187 O 0.51371 0.48499 0.0403 0.0
O1188 O 0.51469 0.4655 0.01046 0.0
O1189 O 0.4863 0.47199 0.00201 0.0
O1190 O 0.4773 0.49832 0.02267 0.0
O1191 O 0.45767 0.48513 0.99877 0.0
H1192 H 0.47611 0.52092 0.93657 0.0
H1193 H 0.49758 0.52857 0.91394 0.0
H1194 H 0.53699 0.49201 0.93 0.0
H1195 H 0.51572 0.48461 0.95266 0.0
H1196 H 0.53924 0.50199 0.07609 0.0
H1197 H 0.52371 0.51043 0.09871 0.0
H1198 H 0.47699 0.53005 0.0721 0.0
H1199 H 0.49363 0.52281 0.04971 0.0
C1200 C 0.2099 0.35693 0.38227 0.0
Eu1201 Eu 0.19709 0.35172 0.35387 0.0
C1202 C 0.19744 0.34196 0.39456 0.0
C1203 C 0.17812 0.34378 0.40088 0.0
C1204 C 0.16573 0.32877 0.412 0.0
C1205 C 0.1723 0.31154 0.41707 0.0
C1206 C 0.19178 0.30991 0.41085 0.0
C1207 C 0.20423 0.32497 0.39977 0.0
C1208 C 0.18834 0.38235 0.33785 0.0
C1209 C 0.13675 0.31224 0.34824 0.0
C1210 C 0.15533 0.32157 0.29397 0.0
Eu1211 Eu 0.17127 0.32903 0.32211 0.0
C1212 C 0.16505 0.33166 0.27993 0.0
C1213 C 0.18822 0.33544 0.27612 0.0
C1214 C 0.19637 0.34375 0.26238 0.0
C1215 C 0.18169 0.34877 0.25228 0.0
C1216 C 0.15888 0.34573 0.25635 0.0
C1217 C 0.15062 0.33716 0.27002 0.0
C1218 C 0.18324 0.30024 0.33838 0.0
C1219 C 0.23192 0.36754 0.3275 0.0
O1220 O 0.21738 0.34635 0.37242 0.0
O1221 O 0.19979 0.3689 0.37615 0.0
O1222 O 0.20758 0.3902 0.3476 0.0
O1223 O 0.1736 0.35905 0.33786 0.0
O1224 O 0.15761 0.32123 0.3572 0.0
O1225 O 0.137 0.31585 0.33402 0.0
O1226 O 0.15275 0.33663 0.30357 0.0
O1227 O 0.16405 0.30855 0.30027 0.0
O1228 O 0.16281 0.29081 0.32942 0.0
O1229 O 0.19607 0.3234 0.33768 0.0
O1230 O 0.2111 0.35793 0.31836 0.0
O1231 O 0.23165 0.36507 0.34194 0.0
H1232 H 0.17235 0.35662 0.39714 0.0
H1233 H 0.15072 0.33041 0.41645 0.0
H1234 H 0.19768 0.2972 0.41467 0.0
H1235 H 0.2191 0.32319 0.3952 0.0
H1236 H 0.1999 0.33167 0.28366 0.0
H1237 H 0.21411 0.34612 0.25963 0.0
H1238 H 0.14702 0.3492 0.24878 0.0
H1239 H 0.13272 0.33444 0.27276 0.0
C1240 C 0.66706 0.86828 0.38422 0.0
Eu1241 Eu 0.65867 0.84853 0.3568 0.0
C1242 C 0.67818 0.86639 0.39844 0.0
C1243 C 0.68375 0.88435 0.41042 0.0
C1244 C 0.69228 0.88171 0.42442 0.0
C1245 C 0.69527 0.86096 0.42667 0.0
C1246 C 0.69063 0.84351 0.41445 0.0
C1247 C 0.68213 0.84621 0.40041 0.0
C1248 C 0.62114 0.80294 0.34514 0.0
C1249 C 0.6902 0.82005 0.35085 0.0
C1250 C 0.65375 0.81289 0.29747 0.0
Eu1251 Eu 0.66264 0.83274 0.32491 0.0
C1252 C 0.64851 0.81883 0.28276 0.0
C1253 C 0.64499 0.80259 0.27023 0.0
C1254 C 0.64036 0.80807 0.25607 0.0
C1255 C 0.6392 0.82995 0.25421 0.0
C1256 C 0.64238 0.84604 0.26687 0.0
C1257 C 0.64706 0.84053 0.28106 0.0
C1258 C 0.69974 0.87884 0.33632 0.0
C1259 C 0.62881 0.859 0.33113 0.0
O1260 O 0.68236 0.87875 0.37414 0.0
O1261 O 0.64618 0.84827 0.37874 0.0
O1262 O 0.61809 0.81794 0.3543 0.0
O1263 O 0.64391 0.8118 0.34342 0.0
O1264 O 0.68734 0.83592 0.35987 0.0
O1265 O 0.67879 0.81265 0.33719 0.0
O1266 O 0.63636 0.80724 0.30648 0.0
O1267 O 0.67625 0.82777 0.30407 0.0
O1268 O 0.70277 0.86454 0.32661 0.0
O1269 O 0.67699 0.86955 0.33815 0.0
O1270 O 0.63452 0.84591 0.32165 0.0
O1271 O 0.63831 0.86521 0.34518 0.0
H1272 H 0.68098 0.90014 0.40902 0.0
H1273 H 0.69623 0.89578 0.43354 0.0
H1274 H 0.69269 0.8273 0.41583 0.0
H1275 H 0.678 0.83222 0.39121 0.0
H1276 H 0.64586 0.78566 0.2714 0.0
H1277 H 0.63747 0.79502 0.24658 0.0
H1278 H 0.64167 0.86306 0.26579 0.0
H1279 H 0.6497 0.85323 0.29069 0.0
C1280 C 0.11942 0.79754 0.28605 0.0
Eu1281 Eu 0.13521 0.81773 0.31333 0.0
C1282 C 0.1328 0.80133 0.27254 0.0
C1283 C 0.13054 0.81592 0.26189 0.0
C1284 C 0.14495 0.82185 0.24987 0.0
C1285 C 0.16175 0.81308 0.24812 0.0
C1286 C 0.16353 0.79789 0.25852 0.0
C1287 C 0.14928 0.79213 0.27063 0.0
C1288 C 0.14119 0.86219 0.32417 0.0
C1289 C 0.19626 0.84989 0.31432 0.0
C1290 C 0.18483 0.86171 0.3699 0.0
Eu1291 Eu 0.16703 0.83943 0.34302 0.0
C1292 C 0.17522 0.85737 0.38454 0.0
C1293 C 0.18665 0.87644 0.39636 0.0
C1294 C 0.17702 0.87273 0.41018 0.0
C1295 C 0.15568 0.84994 0.41232 0.0
C1296 C 0.14441 0.83082 0.40045 0.0
C1297 C 0.15408 0.83451 0.38667 0.0
C1298 C 0.15963 0.79408 0.33234 0.0
C1299 C 0.10528 0.80576 0.34159 0.0
O1300 O 0.12463 0.78649 0.29644 0.0
O1301 O 0.11771 0.81668 0.29151 0.0
O1302 O 0.12069 0.84427 0.31697 0.0
O1303 O 0.15819 0.85653 0.32466 0.0
O1304 O 0.17463 0.83226 0.30746 0.0
O1305 O 0.19822 0.8588 0.3283 0.0
O1306 O 0.17331 0.86858 0.36038 0.0
O1307 O 0.18932 0.84476 0.36387 0.0
O1308 O 0.17989 0.81101 0.34023 0.0
O1309 O 0.14354 0.8008 0.33187 0.0
O1310 O 0.1268 0.82265 0.34917 0.0
O1311 O 0.10401 0.79797 0.32748 0.0
H1312 H 0.11795 0.82317 0.26301 0.0
H1313 H 0.14283 0.8332 0.24187 0.0
H1314 H 0.17637 0.79091 0.25746 0.0
H1315 H 0.1516 0.78092 0.27863 0.0
H1316 H 0.20287 0.89427 0.39486 0.0
H1317 H 0.18596 0.88784 0.41911 0.0
H1318 H 0.12831 0.81293 0.4019 0.0
H1319 H 0.14502 0.81955 0.37766 0.0
C1320 C 0.87065 0.68171 0.71379 0.0
Eu1321 Eu 0.85455 0.67994 0.68624 0.0
C1322 C 0.85902 0.66844 0.72673 0.0
C1323 C 0.86445 0.68201 0.74075 0.0
C1324 C 0.85245 0.67008 0.75294 0.0
C1325 C 0.83474 0.64424 0.75138 0.0
C1326 C 0.82971 0.6306 0.73733 0.0
C1327 C 0.84163 0.64256 0.72514 0.0
C1328 C 0.83759 0.70823 0.67458 0.0
C1329 C 0.79521 0.63467 0.68016 0.0
C1330 C 0.81138 0.65575 0.62629 0.0
Eu1331 Eu 0.82762 0.66037 0.65417 0.0
C1332 C 0.82026 0.66996 0.61332 0.0
C1333 C 0.81234 0.65714 0.59901 0.0
C1334 C 0.82178 0.66986 0.58656 0.0
C1335 C 0.83946 0.6957 0.58819 0.0
C1336 C 0.84713 0.70859 0.60259 0.0
C1337 C 0.83756 0.69583 0.61504 0.0
C1338 C 0.84765 0.63453 0.66636 0.0
C1339 C 0.88505 0.70766 0.65983 0.0
O1340 O 0.8728 0.66842 0.70274 0.0
O1341 O 0.86331 0.69695 0.70925 0.0
O1342 O 0.85736 0.71713 0.68404 0.0
O1343 O 0.82626 0.68447 0.67277 0.0
O1344 O 0.81604 0.64708 0.6893 0.0
O1345 O 0.79403 0.63812 0.66597 0.0
O1346 O 0.80509 0.66594 0.63708 0.0
O1347 O 0.82422 0.64559 0.63115 0.0
O1348 O 0.82644 0.62368 0.65811 0.0
O1349 O 0.85723 0.65794 0.66726 0.0
O1350 O 0.86326 0.69618 0.65164 0.0
O1351 O 0.88793 0.70199 0.67344 0.0
H1352 H 0.87767 0.70201 0.74221 0.0
H1353 H 0.85657 0.6813 0.76349 0.0
H1354 H 0.81651 0.61062 0.73572 0.0
H1355 H 0.83701 0.6316 0.71443 0.0
H1356 H 0.79914 0.63714 0.59747 0.0
H1357 H 0.81572 0.65927 0.57568 0.0
H1358 H 0.8605 0.72853 0.60423 0.0
H1359 H 0.84386 0.70609 0.62601 0.0
C1360 C 0.31139 0.16785 0.70996 0.0
Eu1361 Eu 0.32274 0.16556 0.68288 0.0
C1362 C 0.31768 0.16252 0.72472 0.0
C1363 C 0.29852 0.14951 0.73374 0.0
C1364 C 0.30403 0.14488 0.74798 0.0
C1365 C 0.32888 0.15339 0.75349 0.0
C1366 C 0.34803 0.16602 0.74434 0.0
C1367 C 0.34247 0.1704 0.73002 0.0
C1368 C 0.29781 0.12574 0.66204 0.0
C1369 C 0.3672 0.15159 0.68154 0.0
C1370 C 0.35572 0.16518 0.62633 0.0
Eu1371 Eu 0.34772 0.1696 0.654 0.0
C1372 C 0.34045 0.15791 0.61193 0.0
C1373 C 0.35198 0.16242 0.59871 0.0
C1374 C 0.33755 0.15476 0.58493 0.0
C1375 C 0.31131 0.14241 0.58417 0.0
C1376 C 0.29988 0.13839 0.59751 0.0
C1377 C 0.31433 0.14607 0.61127 0.0
C1378 C 0.37353 0.20912 0.67467 0.0
C1379 C 0.30388 0.18394 0.65613 0.0
O1380 O 0.32906 0.18698 0.70425 0.0
O1381 O 0.29815 0.14842 0.70015 0.0
O1382 O 0.28679 0.13411 0.67049 0.0
O1383 O 0.32107 0.13796 0.66539 0.0
O1384 O 0.35302 0.15682 0.68969 0.0
O1385 O 0.36754 0.15344 0.66705 0.0
O1386 O 0.3496 0.14732 0.6351 0.0
O1387 O 0.36054 0.18646 0.63343 0.0
O1388 O 0.38414 0.20194 0.66514 0.0
O1389 O 0.35014 0.19721 0.67174 0.0
O1390 O 0.31379 0.17369 0.64762 0.0
O1391 O 0.30814 0.1867 0.67074 0.0
H1392 H 0.27928 0.14322 0.72982 0.0
H1393 H 0.28895 0.13531 0.75486 0.0
H1394 H 0.36731 0.17257 0.74828 0.0
H1395 H 0.35757 0.18015 0.7232 0.0
H1396 H 0.37212 0.17154 0.59903 0.0
H1397 H 0.34692 0.15789 0.57488 0.0
H1398 H 0.27975 0.12925 0.59731 0.0
H1399 H 0.30509 0.14251 0.62138 0.0
C1400 C 0.80913 0.13877 0.62333 0.0
Eu1401 Eu 0.82412 0.15941 0.6507 0.0
C1402 C 0.8196 0.14274 0.60876 0.0
C1403 C 0.81801 0.15969 0.59967 0.0
C1404 C 0.82784 0.1633 0.58592 0.0
C1405 C 0.83939 0.14998 0.58088 0.0
C1406 C 0.84079 0.13287 0.58991 0.0
C1407 C 0.83094 0.12923 0.60366 0.0
C1408 C 0.83157 0.2044 0.66193 0.0
C1409 C 0.88541 0.19151 0.65486 0.0
C1410 C 0.86692 0.1983 0.7094 0.0
Eu1411 Eu 0.85216 0.17857 0.68188 0.0
C1412 C 0.85501 0.1933 0.72334 0.0
C1413 C 0.83355 0.17016 0.72461 0.0
C1414 C 0.82258 0.16536 0.73799 0.0
C1415 C 0.83271 0.18371 0.75032 0.0
C1416 C 0.85405 0.207 0.74888 0.0
C1417 C 0.86506 0.21173 0.73551 0.0
C1418 C 0.84501 0.13369 0.67071 0.0
C1419 C 0.79068 0.14695 0.67752 0.0
O1420 O 0.8188 0.13069 0.63332 0.0
O1421 O 0.80449 0.15581 0.62911 0.0
O1422 O 0.81201 0.18851 0.6531 0.0
O1423 O 0.84715 0.1971 0.66313 0.0
O1424 O 0.86477 0.17515 0.64644 0.0
O1425 O 0.88528 0.19895 0.66884 0.0
O1426 O 0.85821 0.20733 0.6995 0.0
O1427 O 0.87075 0.18077 0.70352 0.0
O1428 O 0.86496 0.15029 0.67901 0.0
O1429 O 0.82919 0.14077 0.66951 0.0
O1430 O 0.81136 0.16348 0.68589 0.0
O1431 O 0.79117 0.13927 0.66367 0.0
H1432 H 0.80909 0.17014 0.60314 0.0
H1433 H 0.826 0.17627 0.57913 0.0
H1434 H 0.84974 0.12244 0.58643 0.0
H1435 H 0.83225 0.11583 0.61031 0.0
H1436 H 0.82538 0.15574 0.71527 0.0
H1437 H 0.80611 0.14731 0.73864 0.0
H1438 H 0.86261 0.22143 0.75819 0.0
H1439 H 0.88157 0.22972 0.7347 0.0
H1440 H 0.35324 0.91438 0.06812 0.0
H1441 H 0.31927 0.84729 0.03653 0.0
H1442 H 0.35104 0.86956 0.01978 0.0
H1443 H 0.3742 0.96048 0.0423 0.0
H1444 H 0.40385 0.98133 0.05288 0.0
H1445 H 0.37729 0.961 0.06228 0.0
H1446 H 0.4022 0.94204 0.07451 0.0
H1447 H 0.42882 0.96283 0.06534 0.0
H1448 H 0.41686 0.92946 0.06288 0.0
H1449 H 0.3851 0.89939 0.00568 0.0
H1450 H 0.42389 0.93282 0.9971 0.0
H1451 H 0.43982 0.97815 0.03912 0.0
C1452 C 0.35246 0.90412 0.05779 0.0
C1453 C 0.33285 0.87913 0.05359 0.0
C1454 C 0.33304 0.86674 0.03987 0.0
C1455 C 0.35128 0.87915 0.03026 0.0
C1456 C 0.36985 0.90379 0.03462 0.0
C1457 C 0.37105 0.91596 0.04822 0.0
C1458 C 0.39412 0.9419 0.05059 0.0
C1459 C 0.38692 0.96238 0.0521 0.0
C1460 C 0.41152 0.94416 0.06413 0.0
C1461 C 0.40558 0.94232 0.03617 0.0
C1462 C 0.39091 0.92033 0.02699 0.0
C1463 C 0.39692 0.9166 0.01282 0.0
C1464 C 0.41883 0.93568 0.008 0.0
C1465 C 0.43467 0.95785 0.01748 0.0
C1466 C 0.42797 0.96124 0.03172 0.0
H1467 H 0.12012 0.45486 0.06785 0.0
H1468 H 0.18523 0.51416 0.05059 0.0
H1469 H 0.15858 0.52694 0.03707 0.0
H1470 H 0.07848 0.43727 0.03609 0.0
H1471 H 0.05173 0.43247 0.04537 0.0
H1472 H 0.07585 0.42885 0.05491 0.0
H1473 H 0.08173 0.46162 0.07637 0.0
H1474 H 0.05734 0.46509 0.06699 0.0
H1475 H 0.08777 0.49223 0.07221 0.0
H1476 H 0.12518 0.52959 0.02268 0.0
H1477 H 0.08649 0.52617 0.01095 0.0
H1478 H 0.04267 0.46831 0.03895 0.0
C1479 C 0.1288 0.47093 0.06154 0.0
C1480 C 0.15472 0.48318 0.06004 0.0
C1481 C 0.16535 0.50406 0.0516 0.0
C1482 C 0.1504 0.51159 0.04394 0.0
C1483 C 0.12486 0.49848 0.04509 0.0
C1484 C 0.11411 0.47902 0.05395 0.0
C1485 C 0.08598 0.46794 0.0529 0.0
C1486 C 0.07221 0.43998 0.04696 0.0
C1487 C 0.07772 0.47197 0.06802 0.0
C1488 C 0.08268 0.48367 0.0417 0.0
C1489 C 0.10543 0.50107 0.03731 0.0
C1490 C 0.10728 0.51644 0.02623 0.0
C1491 C 0.08528 0.51424 0.01955 0.0
C1492 C 0.06189 0.4971 0.02415 0.0
C1493 C 0.0605 0.48173 0.03542 0.0
H1494 H 0.51983 0.67103 0.03978 0.0
H1495 H 0.59152 0.69169 0.06316 0.0
H1496 H 0.5863 0.65072 0.05377 0.0
H1497 H 0.48858 0.60482 0.04554 0.0
H1498 H 0.47135 0.59502 0.02736 0.0
H1499 H 0.48021 0.62534 0.03665 0.0
H1500 H 0.50246 0.64665 0.01389 0.0
H1501 H 0.49368 0.61643 0.00455 0.0
H1502 H 0.52608 0.64072 0.00726 0.0
H1503 H 0.57418 0.60836 0.04054 0.0
H1504 H 0.55584 0.56788 0.02476 0.0
H1505 H 0.49217 0.57535 0.01033 0.0
C1506 C 0.53445 0.66695 0.04292 0.0
C1507 C 0.5561 0.68453 0.05217 0.0
C1508 C 0.57466 0.67837 0.0562 0.0
C1509 C 0.5719 0.6552 0.05089 0.0
C1510 C 0.5504 0.6384 0.04166 0.0
C1511 C 0.53196 0.64396 0.03778 0.0
C1512 C 0.51095 0.62302 0.02741 0.0
C1513 C 0.48632 0.61136 0.03468 0.0
C1514 C 0.50815 0.63226 0.01239 0.0
C1515 C 0.52067 0.60498 0.02581 0.0
C1516 C 0.54338 0.61407 0.03417 0.0
C1517 C 0.55629 0.60094 0.03407 0.0
C1518 C 0.54574 0.57799 0.02512 0.0
C1519 C 0.52256 0.5685 0.01645 0.0
C1520 C 0.50988 0.58213 0.01691 0.0
H1521 H 0.85036 0.33267 0.96479 0.0
H1522 H 0.90239 0.31609 0.94383 0.0
H1523 H 0.93768 0.35618 0.95591 0.0
H1524 H 0.884 0.39949 0.9618 0.0
H1525 H 0.87642 0.40724 0.97955 0.0
H1526 H 0.85539 0.37755 0.96896 0.0
H1527 H 0.85725 0.35428 0.99148 0.0
H1528 H 0.87834 0.38388 0.00212 0.0
H1529 H 0.88713 0.36021 0.99966 0.0
H1530 H 0.96729 0.39732 0.97112 0.0
H1531 H 0.98891 0.43727 0.98752 0.0
H1532 H 0.91731 0.42696 0.99815 0.0
C1533 C 0.86919 0.33745 0.96277 0.0
C1534 C 0.87369 0.32128 0.95341 0.0
C1535 C 0.89855 0.32834 0.95087 0.0
C1536 C 0.91869 0.35098 0.95773 0.0
C1537 C 0.91359 0.36638 0.96701 0.0
C1538 C 0.88944 0.35999 0.96945 0.0
C1539 C 0.88898 0.37979 0.97991 0.0
C1540 C 0.8754 0.39172 0.97208 0.0
C1541 C 0.87723 0.36888 0.99414 0.0
C1542 C 0.91667 0.39822 0.98311 0.0
C1543 C 0.93057 0.39016 0.97557 0.0
C1544 C 0.95659 0.4039 0.97699 0.0
C1545 C 0.96869 0.42655 0.9863 0.0
C1546 C 0.95473 0.43522 0.99396 0.0
C1547 C 0.92842 0.42079 0.99237 0.0
H1548 H 0.65707 0.55123 0.93784 0.0
H1549 H 0.67915 0.50422 0.96057 0.0
H1550 H 0.64464 0.49207 0.97614 0.0
H1551 H 0.63906 0.57344 0.96832 0.0
H1552 H 0.61163 0.57147 0.95892 0.0
H1553 H 0.63713 0.5757 0.94856 0.0
H1554 H 0.60729 0.53588 0.93071 0.0
H1555 H 0.58166 0.53206 0.94085 0.0
H1556 H 0.58807 0.5067 0.93834 0.0
H1557 H 0.61222 0.48966 0.99165 0.0
H1558 H 0.57745 0.49034 0.00323 0.0
H1559 H 0.57214 0.53447 0.96916 0.0
C1560 C 0.65424 0.53792 0.94584 0.0
C1561 C 0.67135 0.52929 0.94825 0.0
C1562 C 0.66688 0.5118 0.95882 0.0
C1563 C 0.64721 0.50462 0.9677 0.0
C1564 C 0.63152 0.51442 0.96561 0.0
C1565 C 0.63416 0.53001 0.95466 0.0
C1566 C 0.61432 0.5376 0.95488 0.0
C1567 C 0.62626 0.56625 0.95785 0.0
C1568 C 0.5968 0.52744 0.94033 0.0
C1569 C 0.60084 0.5245 0.96796 0.0
C1570 C 0.61132 0.51147 0.97405 0.0
C1571 C 0.60346 0.49935 0.98683 0.0
C1572 C 0.58392 0.50005 0.99342 0.0
C1573 C 0.5722 0.5124 0.98707 0.0
C1574 C 0.58074 0.52475 0.97416 0.0
H1575 H 0.43638 0.09327 0.95339 0.0
H1576 H 0.50157 0.16793 0.96137 0.0
H1577 H 0.52273 0.15185 0.97747 0.0
H1578 H 0.43808 0.07623 0.98994 0.0
H1579 H 0.42862 0.04398 0.98429 0.0
H1580 H 0.41893 0.06085 0.97263 0.0
H1581 H 0.43846 0.05089 0.95047 0.0
H1582 H 0.44789 0.03374 0.96208 0.0
H1583 H 0.47077 0.05902 0.9528 0.0
H1584 H 0.53643 0.1283 0.99312 0.0
H1585 H 0.54203 0.09831 0.0074 0.0
H1586 H 0.46762 0.03905 0.99002 0.0
C1587 C 0.45523 0.1061 0.95837 0.0
C1588 C 0.46734 0.13185 0.9562 0.0
C1589 C 0.49188 0.14819 0.96304 0.0
C1590 C 0.5041 0.13922 0.97213 0.0
C1591 C 0.49152 0.11386 0.97425 0.0
C1592 C 0.46769 0.09747 0.96756 0.0
C1593 C 0.45817 0.07123 0.9721 0.0
C1594 C 0.43455 0.06258 0.98023 0.0
C1595 C 0.45356 0.05263 0.95856 0.0
C1596 C 0.48022 0.0756 0.98257 0.0
C1597 C 0.49933 0.10027 0.98352 0.0
C1598 C 0.52165 0.1089 0.99245 0.0
C1599 C 0.52461 0.09178 1.00055 0.0
C1600 C 0.50533 0.0664 0.99969 0.0
C1601 C 0.48277 0.05831 0.99071 0.0
H1602 H 0.6503 0.10587 0.93484 0.0
H1603 H 0.7108 0.12779 0.96954 0.0
H1604 H 0.68022 0.10434 0.987 0.0
H1605 H 0.60787 0.1104 0.95739 0.0
H1606 H 0.58053 0.08308 0.94806 0.0
H1607 H 0.60722 0.10072 0.93809 0.0
H1608 H 0.60864 0.06032 0.93108 0.0
H1609 H 0.58242 0.04244 0.94137 0.0
H1610 H 0.61123 0.04265 0.94556 0.0
H1611 H 0.64303 0.08035 1.00109 0.0
H1612 H 0.60182 0.05616 0.01051 0.0
H1613 H 0.56565 0.04914 0.96648 0.0
C1614 C 0.65714 0.10539 0.94603 0.0
C1615 C 0.68297 0.11883 0.95084 0.0
C1616 C 0.6911 0.11796 0.96566 0.0
C1617 C 0.67388 0.10459 0.97565 0.0
C1618 C 0.64857 0.09199 0.97065 0.0
C1619 C 0.6402 0.09208 0.95616 0.0
C1620 C 0.61195 0.07722 0.9537 0.0
C1621 C 0.60128 0.09386 0.94904 0.0
C1622 C 0.60305 0.0543 0.94224 0.0
C1623 C 0.60576 0.06935 0.96914 0.0
C1624 C 0.62714 0.07791 0.97874 0.0
C1625 C 0.62614 0.07338 0.99366 0.0
C1626 C 0.60263 0.05967 0.99891 0.0
C1627 C 0.58044 0.05069 0.98927 0.0
C1628 C 0.58219 0.05563 0.97418 0.0
H1629 H 0.88154 0.53353 0.92831 0.0
H1630 H 0.87783 0.58566 0.96103 0.0
H1631 H 0.90566 0.58026 0.97903 0.0
H1632 H 0.88037 0.49127 0.95304 0.0
H1633 H 0.9024 0.48486 0.94447 0.0
H1634 H 0.88375 0.49406 0.93347 0.0
H1635 H 0.92376 0.53107 0.92526 0.0
H1636 H 0.94252 0.52174 0.93609 0.0
H1637 H 0.94799 0.55328 0.93919 0.0
H1638 H 0.93007 0.56661 0.99417 0.0
H1639 H 0.95384 0.54851 0.00523 0.0
H1640 H 0.9438 0.506 0.96281 0.0
C1641 C 0.88711 0.54423 0.93914 0.0
C1642 C 0.87741 0.55989 0.94333 0.0
C1643 C 0.8848 0.57333 0.95767 0.0
C1644 C 0.90065 0.57045 0.96796 0.0
C1645 C 0.9092 0.55426 0.9637 0.0
C1646 C 0.90309 0.54164 0.94959 0.0
C1647 C 0.91442 0.52483 0.94817 0.0
C1648 C 0.89401 0.49711 0.94458 0.0
C1649 C 0.9333 0.53324 0.93649 0.0
C1650 C 0.92739 0.5297 0.96376 0.0
C1651 C 0.924 0.5467 0.97248 0.0
C1652 C 0.93316 0.5535 0.98743 0.0
C1653 C 0.94649 0.54294 0.99363 0.0
C1654 C 0.95074 0.52584 0.9849 0.0
C1655 C 0.94099 0.51913 0.96974 0.0
H1656 H 0.48072 0.32873 0.96706 0.0
H1657 H 0.40866 0.31055 0.94529 0.0
H1658 H 0.41602 0.35224 0.95493 0.0
H1659 H 0.47716 0.36022 1.00021 0.0
H1660 H 0.50993 0.3835 0.00245 0.0
H1661 H 0.49958 0.35289 0.99307 0.0
H1662 H 0.52132 0.37336 0.97 0.0
H1663 H 0.5317 0.40405 0.9793 0.0
H1664 H 0.51374 0.39462 0.96136 0.0
H1665 H 0.43061 0.3953 0.96779 0.0
H1666 H 0.45112 0.43624 0.98318 0.0
H1667 H 0.51312 0.42558 0.99684 0.0
C1668 C 0.46641 0.33343 0.96436 0.0
C1669 C 0.4441 0.31636 0.95542 0.0
C1670 C 0.42604 0.32344 0.95196 0.0
C1671 C 0.43 0.34702 0.95743 0.0
C1672 C 0.45213 0.36329 0.9663 0.0
C1673 C 0.47003 0.3568 0.96973 0.0
C1674 C 0.49188 0.37734 0.97985 0.0
C1675 C 0.49479 0.36792 0.99478 0.0
C1676 C 0.51609 0.38797 0.97216 0.0
C1677 C 0.48332 0.39629 0.98175 0.0
C1678 C 0.46044 0.38794 0.97377 0.0
C1679 C 0.44858 0.40208 0.97403 0.0
C1680 C 0.46036 0.42528 0.98277 0.0
C1681 C 0.48366 0.43397 0.99114 0.0
C1682 C 0.49531 0.41935 0.99053 0.0
H1683 H 0.15052 0.68149 0.03538 0.0
H1684 H 0.09915 0.69627 0.05856 0.0
H1685 H 0.06419 0.65452 0.04835 0.0
H1686 H 0.10884 0.64787 0.00202 0.0
H1687 H 0.11978 0.62585 0.99986 0.0
H1688 H 0.14047 0.65712 0.00871 0.0
H1689 H 0.14862 0.63858 0.03193 0.0
H1690 H 0.12784 0.60726 0.0232 0.0
H1691 H 0.12256 0.61685 0.04119 0.0
H1692 H 0.03502 0.61099 0.03577 0.0
H1693 H 0.01375 0.56883 0.02175 0.0
H1694 H 0.08447 0.58257 0.00714 0.0
C1695 C 0.13185 0.67609 0.03813 0.0
C1696 C 0.12747 0.69211 0.04769 0.0
C1697 C 0.10288 0.68418 0.0513 0.0
C1698 C 0.08294 0.66057 0.04552 0.0
C1699 C 0.08795 0.64515 0.03621 0.0
C1700 C 0.1118 0.65258 0.03254 0.0
C1701 C 0.11232 0.63228 0.02259 0.0
C1702 C 0.12085 0.64132 0.00739 0.0
C1703 C 0.12881 0.62321 0.03019 0.0
C1704 C 0.08502 0.61225 0.02122 0.0
C1705 C 0.07125 0.62003 0.02914 0.0
C1706 C 0.0456 0.60469 0.02953 0.0
C1707 C 0.03371 0.5808 0.02158 0.0
C1708 C 0.04753 0.57253 0.01343 0.0
C1709 C 0.07348 0.58846 0.01329 0.0
H1710 H 0.36339 0.47196 0.07469 0.0
H1711 H 0.30282 0.42849 0.03985 0.0
H1712 H 0.33332 0.43416 0.02201 0.0
H1713 H 0.4044 0.51681 0.05219 0.0
H1714 H 0.43256 0.51929 0.06083 0.0
H1715 H 0.40621 0.51082 0.07135 0.0
H1716 H 0.4059 0.47027 0.07751 0.0
H1717 H 0.43252 0.47881 0.06721 0.0
H1718 H 0.40452 0.44877 0.06258 0.0
H1719 H 0.36982 0.44633 0.00762 0.0
H1720 H 0.41062 0.46198 0.99777 0.0
H1721 H 0.44797 0.49709 0.04186 0.0
C1722 C 0.3566 0.46326 0.06338 0.0
C1723 C 0.33076 0.44989 0.05861 0.0
C1724 C 0.32255 0.43906 0.04367 0.0
C1725 C 0.33971 0.44211 0.03347 0.0
C1726 C 0.36503 0.45593 0.03839 0.0
C1727 C 0.37354 0.46613 0.053 0.0
C1728 C 0.40187 0.48064 0.05521 0.0
C1729 C 0.41183 0.50854 0.06019 0.0
C1730 C 0.41178 0.46891 0.06628 0.0
C1731 C 0.40781 0.47704 0.03954 0.0
C1732 C 0.38627 0.46279 0.03004 0.0
C1733 C 0.38687 0.45737 0.01496 0.0
C1734 C 0.41015 0.46646 0.00946 0.0
C1735 C 0.43254 0.48074 0.01903 0.0
C1736 C 0.43124 0.48616 0.03426 0.0
H1737 H 0.54123 0.89881 0.0596 0.0
H1738 H 0.55926 0.8634 0.02313 0.0
H1739 H 0.54613 0.88423 0.00537 0.0
H1740 H 0.48853 0.89817 0.04145 0.0
H1741 H 0.49693 0.92913 0.04951 0.0
H1742 H 0.50653 0.91038 0.05938 0.0
H1743 H 0.55216 0.9465 0.0611 0.0
H1744 H 0.54329 0.9652 0.05058 0.0
H1745 H 0.56633 0.95818 0.04432 0.0
H1746 H 0.52967 0.9078 0.99137 0.0
H1747 H 0.51504 0.936 0.98252 0.0
H1748 H 0.5113 0.95861 0.02808 0.0
C1749 C 0.54275 0.89556 0.04793 0.0
C1750 C 0.55094 0.87899 0.04285 0.0
C1751 C 0.55234 0.87531 0.02737 0.0
C1752 C 0.54511 0.88724 0.01715 0.0
C1753 C 0.53693 0.90319 0.02255 0.0
C1754 C 0.53608 0.90769 0.03759 0.0
C1755 C 0.52778 0.9267 0.04053 0.0
C1756 C 0.50349 0.9154 0.04816 0.0
C1757 C 0.54865 0.95055 0.04969 0.0
C1758 C 0.52359 0.93175 0.02478 0.0
C1759 C 0.52883 0.91789 0.01455 0.0
C1760 C 0.52575 0.91894 0.99928 0.0
C1761 C 0.51739 0.93486 0.99435 0.0
C1762 C 0.51264 0.94965 0.0047 0.0
C1763 C 0.51557 0.94796 0.02005 0.0
H1764 H 0.04288 0.22696 0.40519 0.0
H1765 H 0.98263 0.21507 0.3728 0.0
H1766 H 0.01332 0.24343 0.3569 0.0
H1767 H 0.08468 0.29339 0.40054 0.0
H1768 H 0.11249 0.29101 0.40237 0.0
H1769 H 0.08589 0.27073 0.41172 0.0
H1770 H 0.08561 0.23196 0.39883 0.0
H1771 H 0.11219 0.25229 0.38948 0.0
H1772 H 0.08408 0.22803 0.37881 0.0
H1773 H 0.04973 0.27102 0.34393 0.0
H1774 H 0.09044 0.29735 0.33462 0.0
H1775 H 0.12798 0.29238 0.37525 0.0
C1776 C 0.03623 0.23064 0.39484 0.0
C1777 C 0.01037 0.21873 0.39018 0.0
C1778 C 0.00235 0.22376 0.37649 0.0
C1779 C 0.01962 0.23992 0.36742 0.0
C1780 C 0.04492 0.25102 0.37217 0.0
C1781 C 0.05333 0.24672 0.38555 0.0
C1782 C 0.08169 0.26056 0.38768 0.0
C1783 C 0.09176 0.28009 0.40139 0.0
C1784 C 0.09145 0.2421 0.38876 0.0
C1785 C 0.08775 0.27309 0.37336 0.0
C1786 C 0.0662 0.26729 0.36462 0.0
C1787 C 0.06678 0.27587 0.35069 0.0
C1788 C 0.09002 0.29077 0.34548 0.0
C1789 C 0.11243 0.29702 0.35418 0.0
C1790 C 0.1112 0.28813 0.36837 0.0
H1791 H 0.7948 0.81353 0.40353 0.0
H1792 H 0.78945 0.75731 0.37003 0.0
H1793 H 0.75465 0.75811 0.35597 0.0
H1794 H 0.727 0.79153 0.40169 0.0
H1795 H 0.73198 0.82295 0.40395 0.0
H1796 H 0.75493 0.81633 0.41224 0.0
H1797 H 0.78896 0.85103 0.39851 0.0
H1798 H 0.76608 0.85762 0.39015 0.0
H1799 H 0.7844 0.84981 0.37855 0.0
H1800 H 0.72292 0.76689 0.34462 0.0
H1801 H 0.69552 0.78303 0.33653 0.0
H1802 H 0.72087 0.83397 0.37714 0.0
C1803 C 0.78591 0.80107 0.39339 0.0
C1804 C 0.79476 0.78534 0.38783 0.0
C1805 C 0.78302 0.76959 0.3744 0.0
C1806 C 0.76318 0.76982 0.36638 0.0
C1807 C 0.75522 0.78588 0.37195 0.0
C1808 C 0.76608 0.80118 0.38516 0.0
C1809 C 0.75479 0.81774 0.38811 0.0
C1810 C 0.74138 0.81177 0.40234 0.0
C1811 C 0.77475 0.8457 0.38887 0.0
C1812 C 0.73631 0.80965 0.37435 0.0
C1813 C 0.73678 0.79111 0.36528 0.0
C1814 C 0.72218 0.78124 0.35168 0.0
C1815 C 0.70672 0.79062 0.34716 0.0
C1816 C 0.70597 0.80976 0.35619 0.0
C1817 C 0.72086 0.81921 0.37003 0.0
H1818 H 0.20371 0.99466 0.37429 0.0
H1819 H 0.13554 0.9956 0.36201 0.0
H1820 H 0.11847 0.95484 0.34695 0.0
H1821 H 0.20684 0.96786 0.33862 0.0
H1822 H 0.2184 0.94874 0.34611 0.0
H1823 H 0.22523 0.97769 0.35644 0.0
H1824 H 0.20597 0.95369 0.37914 0.0
H1825 H 0.19929 0.92475 0.36887 0.0
H1826 H 0.17454 0.92731 0.37675 0.0
H1827 H 0.10837 0.91423 0.33368 0.0
H1828 H 0.10607 0.87595 0.32207 0.0
H1829 H 0.18159 0.90163 0.34137 0.0
C1830 C 0.18515 0.98613 0.36848 0.0
C1831 C 0.17093 0.99826 0.36924 0.0
C1832 C 0.14681 0.98672 0.36142 0.0
C1833 C 0.13692 0.96354 0.35291 0.0
C1834 C 0.15144 0.95218 0.35225 0.0
C1835 C 0.17505 0.96302 0.35976 0.0
C1836 C 0.18682 0.94692 0.35678 0.0
C1837 C 0.21074 0.96115 0.34902 0.0
C1838 C 0.19195 0.93762 0.37125 0.0
C1839 C 0.16613 0.92544 0.34642 0.0
C1840 C 0.14584 0.92884 0.34412 0.0
C1841 C 0.12416 0.91137 0.33533 0.0
C1842 C 0.12306 0.8897 0.32877 0.0
C1843 C 0.14359 0.88577 0.33089 0.0
C1844 C 0.16553 0.90405 0.33968 0.0
H1845 H 0.55627 0.67538 0.29047 0.0
H1846 H 0.48544 0.66476 0.30295 0.0
H1847 H 0.50736 0.70584 0.31804 0.0
H1848 H 0.59008 0.70256 0.32553 0.0
H1849 H 0.61874 0.72498 0.31865 0.0
H1850 H 0.59761 0.69597 0.30748 0.0
H1851 H 0.59555 0.72066 0.28576 0.0
H1852 H 0.61692 0.74974 0.29685 0.0
H1853 H 0.5871 0.74444 0.28907 0.0
H1854 H 0.53647 0.74629 0.33287 0.0
H1855 H 0.57156 0.78462 0.34657 0.0
H1856 H 0.62412 0.76915 0.32534 0.0
C1857 C 0.54545 0.68204 0.29615 0.0
C1858 C 0.5192 0.66703 0.29558 0.0
C1859 C 0.50558 0.67602 0.30334 0.0
C1860 C 0.51784 0.69932 0.31188 0.0
C1861 C 0.54375 0.71344 0.31255 0.0
C1862 C 0.55748 0.7053 0.30486 0.0
C1863 C 0.58528 0.72366 0.30824 0.0
C1864 C 0.59871 0.71103 0.3154 0.0
C1865 C 0.59689 0.73531 0.29414 0.0
C1866 C 0.58493 0.74297 0.31925 0.0
C1867 C 0.56075 0.7368 0.32141 0.0
C1868 C 0.55551 0.75144 0.33122 0.0
C1869 C 0.57554 0.77309 0.33899 0.0
C1870 C 0.60047 0.7798 0.33698 0.0
C1871 C 0.6052 0.76449 0.32701 0.0
H1872 H 0.33964 0.90727 0.29835 0.0
H1873 H 0.31106 0.87885 0.25206 0.0
H1874 H 0.26888 0.86697 0.25816 0.0
H1875 H 0.28904 0.85698 0.31326 0.0
H1876 H 0.28838 0.87598 0.32896 0.0
H1877 H 0.31717 0.88524 0.32085 0.0
H1878 H 0.32166 0.92846 0.31695 0.0
H1879 H 0.29283 0.91931 0.32504 0.0
H1880 H 0.2966 0.92978 0.3067 0.0
H1881 H 0.22959 0.85553 0.26904 0.0
H1882 H 0.19482 0.84384 0.28427 0.0
H1883 H 0.24706 0.87697 0.32419 0.0
C1884 C 0.3246 0.89864 0.28945 0.0
C1885 C 0.32911 0.89449 0.27461 0.0
C1886 C 0.30862 0.88313 0.2634 0.0
C1887 C 0.28439 0.87605 0.26677 0.0
C1888 C 0.28068 0.88018 0.28145 0.0
C1889 C 0.30012 0.8911 0.29265 0.0
C1890 C 0.29053 0.89176 0.30768 0.0
C1891 C 0.29664 0.87658 0.31831 0.0
C1892 C 0.30103 0.91895 0.31449 0.0
C1893 C 0.26263 0.87911 0.30315 0.0
C1894 C 0.25756 0.87288 0.28792 0.0
C1895 C 0.23332 0.8604 0.28097 0.0
C1896 C 0.21364 0.85374 0.2898 0.0
C1897 C 0.2181 0.85936 0.30551 0.0
C1898 C 0.24303 0.87259 0.31224 0.0
H1899 H 0.11644 0.42766 0.28286 0.0
H1900 H 0.18531 0.49946 0.28706 0.0
H1901 H 0.20672 0.48159 0.30133 0.0
H1902 H 0.12228 0.41314 0.31885 0.0
H1903 H 0.10984 0.37997 0.31424 0.0
H1904 H 0.10047 0.39702 0.30255 0.0
H1905 H 0.11487 0.38214 0.27968 0.0
H1906 H 0.12408 0.36485 0.29133 0.0
H1907 H 0.14633 0.38768 0.28047 0.0
H1908 H 0.21964 0.45792 0.31699 0.0
H1909 H 0.22372 0.42929 0.33323 0.0
H1910 H 0.1466 0.37236 0.31957 0.0
C1911 C 0.13618 0.43934 0.28648 0.0
C1912 C 0.14931 0.46491 0.28387 0.0
C1913 C 0.17496 0.47986 0.28902 0.0
C1914 C 0.18729 0.46985 0.29706 0.0
C1915 C 0.17373 0.44481 0.29981 0.0
C1916 C 0.14879 0.42962 0.29463 0.0
C1917 C 0.13826 0.40386 0.30017 0.0
C1918 C 0.11643 0.39818 0.30951 0.0
C1919 C 0.13042 0.38343 0.28713 0.0
C1920 C 0.16092 0.40736 0.30971 0.0
C1921 C 0.18123 0.43102 0.3091 0.0
C1922 C 0.20398 0.43923 0.31743 0.0
C1923 C 0.20606 0.42289 0.32669 0.0
C1924 C 0.1855 0.39864 0.3276 0.0
C1925 C 0.16269 0.3907 0.31891 0.0
H1926 H 0.32405 0.44133 0.26708 0.0
H1927 H 0.38511 0.45318 0.29869 0.0
H1928 H 0.35493 0.42721 0.31571 0.0
H1929 H 0.28699 0.44616 0.29334 0.0
H1930 H 0.25744 0.42213 0.28392 0.0
H1931 H 0.28349 0.43934 0.2734 0.0
H1932 H 0.27948 0.39773 0.26219 0.0
H1933 H 0.25323 0.38048 0.2726 0.0
H1934 H 0.27969 0.37584 0.27445 0.0
H1935 H 0.31869 0.40367 0.33031 0.0
H1936 H 0.27832 0.38151 0.34092 0.0
H1937 H 0.24043 0.3843 0.29979 0.0
C1938 C 0.33096 0.43781 0.27739 0.0
C1939 C 0.35688 0.44914 0.28157 0.0
C1940 C 0.36531 0.44467 0.29532 0.0
C1941 C 0.34832 0.42995 0.30504 0.0
C1942 C 0.32293 0.41971 0.30084 0.0
C1943 C 0.3142 0.42318 0.28728 0.0
C1944 C 0.28599 0.41116 0.28588 0.0
C1945 C 0.27803 0.43088 0.28403 0.0
C1946 C 0.2739 0.39004 0.27301 0.0
C1947 C 0.28034 0.40078 0.30083 0.0
C1948 C 0.30192 0.40592 0.30928 0.0
C1949 C 0.30161 0.39924 0.32374 0.0
C1950 C 0.2786 0.38678 0.3297 0.0
C1951 C 0.25618 0.38105 0.32119 0.0
C1952 C 0.25718 0.38817 0.30655 0.0
H1953 H 0.55414 0.89749 0.2741 0.0
H1954 H 0.49608 0.87183 0.30443 0.0
H1955 H 0.52284 0.86502 0.32214 0.0
H1956 H 0.56784 0.84833 0.28026 0.0
H1957 H 0.60063 0.86768 0.27826 0.0
H1958 H 0.57822 0.87358 0.26853 0.0
H1959 H 0.60216 0.91962 0.28062 0.0
H1960 H 0.62452 0.91377 0.29048 0.0
H1961 H 0.6079 0.92584 0.3006 0.0
H1962 H 0.55616 0.86154 0.33701 0.0
H1963 H 0.59087 0.85537 0.34618 0.0
H1964 H 0.6237 0.87611 0.30462 0.0
C1965 C 0.54656 0.89012 0.2843 0.0
C1966 C 0.52277 0.88586 0.28771 0.0
C1967 C 0.51442 0.87646 0.3015 0.0
C1968 C 0.52945 0.87219 0.3117 0.0
C1969 C 0.55258 0.87662 0.30788 0.0
C1970 C 0.56085 0.88476 0.29436 0.0
C1971 C 0.58551 0.88589 0.29243 0.0
C1972 C 0.58288 0.86779 0.27908 0.0
C1973 C 0.60624 0.91289 0.29095 0.0
C1974 C 0.58978 0.87714 0.30703 0.0
C1975 C 0.57084 0.87246 0.31591 0.0
C1976 C 0.571 0.86494 0.33011 0.0
C1977 C 0.59081 0.86164 0.33525 0.0
C1978 C 0.6098 0.86527 0.32607 0.0
C1979 C 0.60931 0.87316 0.31181 0.0
H1980 H 0.13286 0.67051 0.28261 0.0
H1981 H 0.11919 0.63363 0.32325 0.0
H1982 H 0.12702 0.67259 0.33743 0.0
H1983 H 0.18178 0.73026 0.29809 0.0
H1984 H 0.17195 0.7479 0.28719 0.0
H1985 H 0.16465 0.71691 0.28 0.0
H1986 H 0.11766 0.70306 0.27639 0.0
H1987 H 0.12485 0.73405 0.28354 0.0
H1988 H 0.10268 0.70704 0.29197 0.0
H1989 H 0.13856 0.71595 0.34753 0.0
H1990 H 0.1504 0.76064 0.35251 0.0
H1991 H 0.15485 0.76906 0.30543 0.0
C1992 C 0.13111 0.67048 0.29445 0.0
C1993 C 0.1257 0.64901 0.30182 0.0
C1994 C 0.12386 0.64994 0.31737 0.0
C1995 C 0.1281 0.67194 0.32553 0.0
C1996 C 0.13389 0.69286 0.31798 0.0
C1997 C 0.13511 0.69229 0.30277 0.0
C1998 C 0.14179 0.71751 0.29743 0.0
C1999 C 0.16651 0.72881 0.29026 0.0
C2000 C 0.12047 0.71527 0.2867 0.0
C2001 C 0.14453 0.73239 0.31206 0.0
C2002 C 0.1399 0.71779 0.32378 0.0
C2003 C 0.142 0.72752 0.33844 0.0
C2004 C 0.1488 0.75283 0.34118 0.0
C2005 C 0.15325 0.76789 0.32932 0.0
C2006 C 0.15115 0.75763 0.31461 0.0
H2007 H 0.80486 0.99602 0.38992 0.0
H2008 H 0.81573 0.04056 0.35276 0.0
H2009 H 0.78173 0.00352 0.33747 0.0
H2010 H 0.79235 0.94001 0.36884 0.0
H2011 H 0.76869 0.91919 0.37986 0.0
H2012 H 0.7932 0.94943 0.38821 0.0
H2013 H 0.76016 0.96032 0.39657 0.0
H2014 H 0.73555 0.93004 0.38827 0.0
H2015 H 0.73665 0.95821 0.38293 0.0
H2016 H 0.74812 0.96142 0.32576 0.0
H2017 H 0.71588 0.9168 0.31874 0.0
H2018 H 0.72618 0.89967 0.36341 0.0
C2019 C 0.79983 0.99807 0.37864 0.0
C2020 C 0.8131 0.02118 0.37251 0.0
C2021 C 0.80614 0.02297 0.35763 0.0
C2022 C 0.78673 0.00208 0.34888 0.0
C2023 C 0.77431 0.97952 0.35518 0.0
C2024 C 0.78043 0.97737 0.36974 0.0
C2025 C 0.76446 0.95072 0.37364 0.0
C2026 C 0.78065 0.93916 0.37788 0.0
C2027 C 0.74824 0.94978 0.38609 0.0
C2028 C 0.74865 0.93826 0.35895 0.0
C2029 C 0.75461 0.95523 0.34846 0.0
C2030 C 0.7431 0.948 0.33391 0.0
C2031 C 0.72493 0.92274 0.33001 0.0
C2032 C 0.71849 0.90522 0.34063 0.0
C2033 C 0.73048 0.913 0.35524 0.0
H2034 H 0.01921 0.79775 0.40613 0.0
H2035 H 0.95543 0.75114 0.37373 0.0
H2036 H 0.98367 0.75163 0.35555 0.0
H2037 H 0.05991 0.83694 0.3819 0.0
H2038 H 0.08761 0.83821 0.39036 0.0
H2039 H 0.06242 0.83269 0.40134 0.0
H2040 H 0.06059 0.79229 0.40886 0.0
H2041 H 0.085 0.79651 0.39744 0.0
H2042 H 0.05536 0.76788 0.3947 0.0
H2043 H 0.01841 0.75937 0.3403 0.0
H2044 H 0.0577 0.77383 0.32885 0.0
H2045 H 0.09962 0.8153 0.37095 0.0
C2046 C 0.0112 0.78731 0.3953 0.0
C2047 C 0.98509 0.77459 0.39132 0.0
C2048 C 0.97537 0.76134 0.37697 0.0
C2049 C 0.99125 0.76136 0.36658 0.0
C2050 C 0.01686 0.77452 0.37071 0.0
C2051 C 0.02684 0.78712 0.38474 0.0
C2052 C 0.05515 0.80027 0.38611 0.0
C2053 C 0.06696 0.82872 0.39016 0.0
C2054 C 0.06457 0.78855 0.39746 0.0
C2055 C 0.05949 0.79426 0.37042 0.0
C2056 C 0.03709 0.77893 0.36185 0.0
C2057 C 0.0361 0.77122 0.34693 0.0
C2058 C 0.05859 0.77959 0.34051 0.0
C2059 C 0.08185 0.79575 0.34895 0.0
C2060 C 0.08221 0.80293 0.36417 0.0
H2061 H 0.16794 0.18749 0.38476 0.0
H2062 H 0.24384 0.23791 0.40451 0.0
H2063 H 0.24539 0.27172 0.39057 0.0
H2064 H 0.17531 0.2074 0.34896 0.0
H2065 H 0.14548 0.20567 0.34601 0.0
H2066 H 0.14934 0.18573 0.35832 0.0
H2067 H 0.13412 0.20289 0.37971 0.0
H2068 H 0.12999 0.22275 0.36743 0.0
H2069 H 0.14942 0.23628 0.38482 0.0
H2070 H 0.24052 0.29839 0.37289 0.0
H2071 H 0.2282 0.31835 0.35405 0.0
H2072 H 0.15443 0.25205 0.34632 0.0
C2073 C 0.18475 0.20576 0.38624 0.0
C2074 C 0.20579 0.21016 0.39573 0.0
C2075 C 0.22745 0.23427 0.39744 0.0
C2076 C 0.22853 0.25353 0.38953 0.0
C2077 C 0.20767 0.24849 0.3801 0.0
C2078 C 0.18601 0.22538 0.37859 0.0
C2079 C 0.16639 0.22503 0.36755 0.0
C2080 C 0.15869 0.20475 0.35443 0.0
C2081 C 0.14363 0.22153 0.37534 0.0
C2082 C 0.18081 0.25121 0.36267 0.0
C2083 C 0.20454 0.26436 0.37013 0.0
C2084 C 0.22184 0.28848 0.36718 0.0
C2085 C 0.21464 0.29965 0.35646 0.0
C2086 C 0.19024 0.28692 0.34894 0.0
C2087 C 0.17314 0.26227 0.35199 0.0
H2088 H 0.68733 0.57559 0.73407 0.0
H2089 H 0.66199 0.50349 0.70871 0.0
H2090 H 0.69481 0.52413 0.69219 0.0
H2091 H 0.70676 0.61487 0.70451 0.0
H2092 H 0.7346 0.63964 0.71515 0.0
H2093 H 0.70778 0.61965 0.72445 0.0
H2094 H 0.73518 0.60851 0.74132 0.0
H2095 H 0.76224 0.62791 0.73199 0.0
H2096 H 0.75211 0.59514 0.73289 0.0
H2097 H 0.72927 0.55263 0.67768 0.0
H2098 H 0.76662 0.58656 0.6681 0.0
H2099 H 0.77344 0.63875 0.70481 0.0
C2100 C 0.68865 0.56394 0.72517 0.0
C2101 C 0.67136 0.53783 0.72262 0.0
C2102 C 0.67412 0.52362 0.71069 0.0
C2103 C 0.69294 0.53513 0.70126 0.0
C2104 C 0.70937 0.56082 0.70404 0.0
C2105 C 0.70776 0.575 0.71585 0.0
C2106 C 0.72892 0.60199 0.71698 0.0
C2107 C 0.71891 0.6201 0.71516 0.0
C2108 C 0.74562 0.60883 0.73168 0.0
C2109 C 0.74243 0.6008 0.70381 0.0
C2110 C 0.73059 0.57692 0.69638 0.0
C2111 C 0.73888 0.57133 0.68349 0.0
C2112 C 0.75996 0.59066 0.67811 0.0
C2113 C 0.77274 0.61501 0.6858 0.0
C2114 C 0.76399 0.62013 0.69885 0.0
H2115 H 0.4885 0.14347 0.70653 0.0
H2116 H 0.44353 0.09013 0.73671 0.0
H2117 H 0.40724 0.09324 0.72752 0.0
H2118 H 0.46159 0.1823 0.70892 0.0
H2119 H 0.46191 0.18713 0.68947 0.0
H2120 H 0.48472 0.18091 0.69835 0.0
H2121 H 0.47123 0.1431 0.67865 0.0
H2122 H 0.44841 0.14924 0.66966 0.0
H2123 H 0.43887 0.11871 0.67567 0.0
H2124 H 0.37666 0.10408 0.71652 0.0
H2125 H 0.35239 0.11953 0.70275 0.0
H2126 H 0.41522 0.16251 0.67773 0.0
C2127 C 0.47097 0.13211 0.71108 0.0
C2128 C 0.46919 0.11686 0.72258 0.0
C2129 C 0.4458 0.10257 0.72825 0.0
C2130 C 0.42491 0.10398 0.72299 0.0
C2131 C 0.42745 0.11938 0.71182 0.0
C2132 C 0.44974 0.13293 0.70575 0.0
C2133 C 0.44722 0.14791 0.69374 0.0
C2134 C 0.46491 0.17624 0.69787 0.0
C2135 C 0.45169 0.13921 0.67853 0.0
C2136 C 0.42012 0.14089 0.69418 0.0
C2137 C 0.4092 0.12455 0.7048 0.0
C2138 C 0.38485 0.11655 0.70801 0.0
C2139 C 0.37126 0.12548 0.70018 0.0
C2140 C 0.38187 0.14191 0.68909 0.0
C2141 C 0.40655 0.14954 0.68595 0.0
H2142 H 0.84713 0.3163 0.71893 0.0
H2143 H 0.87821 0.36495 0.68395 0.0
H2144 H 0.87296 0.32911 0.66744 0.0
H2145 H 0.87552 0.27759 0.71074 0.0
H2146 H 0.84865 0.24905 0.71483 0.0
H2147 H 0.85571 0.27876 0.7242 0.0
H2148 H 0.8113 0.26972 0.71521 0.0
H2149 H 0.80425 0.2401 0.70572 0.0
H2150 H 0.8009 0.26271 0.6956 0.0
H2151 H 0.86321 0.28819 0.65434 0.0
H2152 H 0.85082 0.24424 0.64583 0.0
H2153 H 0.82605 0.22177 0.68899 0.0
C2154 C 0.85312 0.31942 0.70787 0.0
C2155 C 0.86285 0.34338 0.70268 0.0
C2156 C 0.8703 0.34668 0.68808 0.0
C2157 C 0.86752 0.32648 0.67863 0.0
C2158 C 0.85739 0.30304 0.68395 0.0
C2159 C 0.85046 0.29937 0.69825 0.0
C2160 C 0.83969 0.27204 0.70103 0.0
C2161 C 0.85586 0.2692 0.71343 0.0
C2162 C 0.81241 0.26047 0.7046 0.0
C2163 C 0.84141 0.26102 0.68601 0.0
C2164 C 0.85176 0.27928 0.67635 0.0
C2165 C 0.85515 0.27371 0.6618 0.0
C2166 C 0.848 0.24882 0.65703 0.0
C2167 C 0.83759 0.22999 0.66679 0.0
C2168 C 0.83412 0.23606 0.6814 0.0
H2169 H 0.18142 0.99492 0.62757 0.0
H2170 H 0.23415 0.97824 0.60762 0.0
H2171 H 0.26876 0.02026 0.61757 0.0
H2172 H 0.21189 0.06044 0.62093 0.0
H2173 H 0.20517 0.07039 0.63834 0.0
H2174 H 0.18443 0.03922 0.62936 0.0
H2175 H 0.1893 0.0202 0.65324 0.0
H2176 H 0.20991 0.05129 0.66231 0.0
H2177 H 0.22011 0.02859 0.66119 0.0
H2178 H 0.29765 0.06323 0.63045 0.0
H2179 H 0.31903 0.10425 0.64565 0.0
H2180 H 0.24746 0.09341 0.65676 0.0
C2181 C 0.20028 1.00007 0.62538 0.0
C2182 C 0.20516 0.98336 0.61684 0.0
C2183 C 0.23002 0.99088 0.61403 0.0
C2184 C 0.24977 0.01466 0.61965 0.0
C2185 C 0.2443 0.03072 0.62796 0.0
C2186 C 0.22018 0.02378 0.63082 0.0
C2187 C 0.21942 0.04447 0.64023 0.0
C2188 C 0.20433 0.0542 0.6317 0.0
C2189 C 0.20908 0.0356 0.65513 0.0
C2190 C 0.24694 0.06396 0.64244 0.0
C2191 C 0.26095 0.05569 0.63521 0.0
C2192 C 0.28688 0.07003 0.63604 0.0
C2193 C 0.29885 0.09332 0.64464 0.0
C2194 C 0.28486 0.10205 0.65222 0.0
C2195 C 0.25857 0.08727 0.65096 0.0
H2196 H 1.00106 0.19054 0.62219 0.0
H2197 H 0.01336 0.25516 0.59952 0.0
H2198 H 0.97832 0.25529 0.61116 0.0
H2199 H 0.93445 0.15966 0.61902 0.0
H2200 H 0.93194 0.14841 0.63712 0.0
H2201 H 0.95803 0.15367 0.62704 0.0
H2202 H 0.98855 0.18337 0.64948 0.0
H2203 H 0.96252 0.17833 0.65959 0.0
H2204 H 0.98599 0.20977 0.65669 0.0
H2205 H 0.94162 0.24812 0.62529 0.0
H2206 H 0.90495 0.23281 0.63986 0.0
H2207 H 0.91731 0.17349 0.65346 0.0
C2208 C 0.99657 0.20489 0.61976 0.0
C2209 C 0.01007 0.22292 0.60997 0.0
C2210 C 0.00318 0.24102 0.60686 0.0
C2211 C 0.98343 0.24136 0.61352 0.0
C2212 C 0.97075 0.22349 0.62325 0.0
C2213 C 0.97698 0.20551 0.6263 0.0
C2214 C 0.96013 0.18807 0.63691 0.0
C2215 C 0.94526 0.16084 0.62958 0.0
C2216 C 0.9752 0.19001 0.65153 0.0
C2217 C 0.94331 0.19891 0.63931 0.0
C2218 C 0.94981 0.21945 0.63141 0.0
C2219 C 0.93652 0.23221 0.63161 0.0
C2220 C 0.91588 0.22353 0.63994 0.0
C2221 C 0.90888 0.20241 0.64792 0.0
C2222 C 0.92278 0.19004 0.64766 0.0
H2223 H 0.75869 0.74998 0.62249 0.0
H2224 H 0.8233 0.82505 0.63033 0.0
H2225 H 0.84686 0.80862 0.6437 0.0
H2226 H 0.76445 0.73104 0.65738 0.0
H2227 H 0.75551 0.69917 0.65101 0.0
H2228 H 0.74422 0.71587 0.64038 0.0
H2229 H 0.76252 0.70754 0.61706 0.0
H2230 H 0.7737 0.69064 0.62766 0.0
H2231 H 0.79511 0.71665 0.61822 0.0
H2232 H 0.86225 0.78586 0.65785 0.0
H2233 H 0.86926 0.75726 0.67241 0.0
H2234 H 0.79519 0.69599 0.65607 0.0
C2235 C 0.77793 0.76276 0.62681 0.0
C2236 C 0.78918 0.78879 0.62552 0.0
C2237 C 0.81429 0.8051 0.63141 0.0
C2238 C 0.82788 0.79593 0.6389 0.0
C2239 C 0.81618 0.77036 0.64032 0.0
C2240 C 0.79186 0.75387 0.63442 0.0
C2241 C 0.78349 0.72749 0.63849 0.0
C2242 C 0.76057 0.71784 0.64734 0.0
C2243 C 0.7784 0.70952 0.62452 0.0
C2244 C 0.80653 0.73212 0.64812 0.0
C2245 C 0.82522 0.75694 0.64874 0.0
C2246 C 0.8479 0.76631 0.65735 0.0
C2247 C 0.85161 0.74993 0.66566 0.0
C2248 C 0.83275 0.72445 0.66534 0.0
C2249 C 0.80997 0.71534 0.65636 0.0
H2250 H 0.0169 0.7751 0.62624 0.0
H2251 H 0.98367 0.80572 0.59677 0.0
H2252 H 0.94626 0.78851 0.61054 0.0
H2253 H 0.96016 0.71722 0.62829 0.0
H2254 H 0.96712 0.71468 0.64751 0.0
H2255 H 0.99215 0.73117 0.63616 0.0
H2256 H 0.01083 0.77056 0.65529 0.0
H2257 H 0.98564 0.75425 0.66662 0.0
H2258 H 0.99176 0.78377 0.66033 0.0
H2259 H 0.91271 0.7678 0.62668 0.0
H2260 H 0.88172 0.73991 0.64248 0.0
H2261 H 0.93476 0.72009 0.6613 0.0
C2262 C 0.00171 0.77819 0.62282 0.0
C2263 C 0.00295 0.79171 0.61053 0.0
C2264 C 0.98282 0.79531 0.60615 0.0
C2265 C 0.96168 0.7858 0.61397 0.0
C2266 C 0.96096 0.77262 0.62607 0.0
C2267 C 0.98019 0.76842 0.63039 0.0
C2268 C 0.97357 0.75185 0.64308 0.0
C2269 C 0.97322 0.72727 0.63848 0.0
C2270 C 0.99153 0.76596 0.65717 0.0
C2271 C 0.94749 0.74717 0.64506 0.0
C2272 C 0.94094 0.75979 0.63526 0.0
C2273 C 0.91762 0.75789 0.63443 0.0
C2274 C 0.90014 0.74196 0.64345 0.0
C2275 C 0.90587 0.72786 0.65308 0.0
C2276 C 0.9301 0.73101 0.65423 0.0
H2277 H 0.2079 0.1876 0.59452 0.0
H2278 H 0.20066 0.23771 0.62704 0.0
H2279 H 0.23163 0.23632 0.6446 0.0
H2280 H 0.21445 0.14913 0.62027 0.0
H2281 H 0.23734 0.1454 0.61079 0.0
H2282 H 0.21495 0.15063 0.60044 0.0
H2283 H 0.25098 0.1892 0.59029 0.0
H2284 H 0.27344 0.184 0.60062 0.0
H2285 H 0.27515 0.21402 0.60317 0.0
H2286 H 0.26181 0.22865 0.65896 0.0
H2287 H 0.29043 0.21549 0.66943 0.0
H2288 H 0.2798 0.17119 0.62765 0.0
C2289 C 0.21305 0.19849 0.60528 0.0
C2290 C 0.20164 0.21259 0.60945 0.0
C2291 C 0.20873 0.22638 0.62369 0.0
C2292 C 0.22647 0.22589 0.63371 0.0
C2293 C 0.23713 0.21165 0.62932 0.0
C2294 C 0.23085 0.19826 0.61546 0.0
C2295 C 0.24495 0.18414 0.61375 0.0
C2296 C 0.22684 0.15564 0.61116 0.0
C2297 C 0.26216 0.1934 0.60121 0.0
C2298 C 0.25992 0.19157 0.62889 0.0
C2299 C 0.25507 0.20747 0.63764 0.0
C2300 C 0.26591 0.21634 0.65221 0.0
C2301 C 0.28209 0.20867 0.65806 0.0
C2302 C 0.28739 0.19234 0.64936 0.0
C2303 C 0.27629 0.18387 0.63452 0.0
H2304 H 0.76918 0.9942 0.62921 0.0
H2305 H 0.8333 0.98717 0.64323 0.0
H2306 H 0.85578 0.03126 0.6542 0.0
H2307 H 0.80462 0.05975 0.6205 0.0
H2308 H 0.78272 0.06784 0.62761 0.0
H2309 H 0.77207 0.03617 0.61984 0.0
H2310 H 0.75316 0.01947 0.64432 0.0
H2311 H 0.76377 0.05107 0.65215 0.0
H2312 H 0.77283 0.03159 0.66171 0.0
H2313 H 0.87095 0.07518 0.66422 0.0
H2314 H 0.87754 0.11657 0.67363 0.0
H2315 H 0.8033 0.09545 0.65411 0.0
C2316 C 0.78805 0.00213 0.63445 0.0
C2317 C 0.79953 0.98735 0.63545 0.0
C2318 C 0.82413 0.99816 0.64251 0.0
C2319 C 0.83709 0.0232 0.64868 0.0
C2320 C 0.8252 0.0372 0.64772 0.0
C2321 C 0.80124 0.02715 0.64082 0.0
C2322 C 0.79247 0.04611 0.64204 0.0
C2323 C 0.78769 0.05286 0.62657 0.0
C2324 C 0.76918 0.03648 0.65057 0.0
C2325 C 0.81507 0.06812 0.65091 0.0
C2326 C 0.83382 0.06262 0.65387 0.0
C2327 C 0.85645 0.07977 0.66197 0.0
C2328 C 0.85999 0.10319 0.66729 0.0
C2329 C 0.84094 0.10913 0.6646 0.0
C2330 C 0.81822 0.09139 0.65626 0.0
H2331 H 0.46785 0.3531 0.70102 0.0
H2332 H 0.46689 0.33194 0.74603 0.0
H2333 H 0.43425 0.28869 0.73707 0.0
H2334 H 0.40188 0.31195 0.68883 0.0
H2335 H 0.40763 0.30442 0.67045 0.0
H2336 H 0.42898 0.33443 0.68063 0.0
H2337 H 0.46563 0.32615 0.67759 0.0
H2338 H 0.44443 0.29617 0.6674 0.0
H2339 H 0.46357 0.29799 0.68372 0.0
H2340 H 0.40343 0.24703 0.72305 0.0
H2341 H 0.37799 0.20994 0.70466 0.0
H2342 H 0.4009 0.25763 0.66881 0.0
C2343 C 0.46086 0.33946 0.70904 0.0
C2344 C 0.46993 0.34619 0.72429 0.0
C2345 C 0.45993 0.3276 0.73436 0.0
C2346 C 0.44146 0.30286 0.72937 0.0
C2347 C 0.43324 0.29689 0.71425 0.0
C2348 C 0.4427 0.31462 0.70423 0.0
C2349 C 0.43194 0.30301 0.68843 0.0
C2350 C 0.4167 0.31412 0.68169 0.0
C2351 C 0.45263 0.30601 0.67872 0.0
C2352 C 0.41523 0.27589 0.69112 0.0
C2353 C 0.41596 0.27279 0.70612 0.0
C2354 C 0.40247 0.24928 0.7113 0.0
C2355 C 0.38796 0.2284 0.70085 0.0
C2356 C 0.38725 0.23126 0.68551 0.0
C2357 C 0.40103 0.25521 0.68057 0.0
H2358 H 0.69732 0.13871 0.7373 0.0
H2359 H 0.63657 0.08545 0.70495 0.0
H2360 H 0.66705 0.08778 0.6878 0.0
H2361 H 0.73579 0.17746 0.71093 0.0
H2362 H 0.76479 0.18398 0.72082 0.0
H2363 H 0.73831 0.17733 0.73087 0.0
H2364 H 0.74091 0.14096 0.74225 0.0
H2365 H 0.76764 0.14812 0.73237 0.0
H2366 H 0.74097 0.11679 0.73006 0.0
H2367 H 0.70379 0.09653 0.67396 0.0
H2368 H 0.7445 0.11182 0.664 0.0
H2369 H 0.78169 0.15976 0.70524 0.0
C2370 C 0.69049 0.12732 0.72668 0.0
C2371 C 0.66459 0.11186 0.72244 0.0
C2372 C 0.65633 0.09755 0.70835 0.0
C2373 C 0.67349 0.09866 0.69858 0.0
C2374 C 0.69887 0.11422 0.70304 0.0
C2375 C 0.70739 0.12836 0.71672 0.0
C2376 C 0.73565 0.1443 0.71851 0.0
C2377 C 0.74412 0.17243 0.72039 0.0
C2378 C 0.74694 0.13708 0.73157 0.0
C2379 C 0.74164 0.13686 0.7037 0.0
C2380 C 0.72014 0.11944 0.69497 0.0
C2381 C 0.72079 0.11011 0.6807 0.0
C2382 C 0.74403 0.11894 0.67514 0.0
C2383 C 0.76636 0.13698 0.68381 0.0
C2384 C 0.76503 0.14588 0.69833 0.0
H2385 H 0.84183 0.52453 0.71132 0.0
H2386 H 0.91892 0.5764 0.72835 0.0
H2387 H 0.91895 0.60862 0.71343 0.0
H2388 H 0.84581 0.54233 0.67418 0.0
H2389 H 0.81552 0.53977 0.67242 0.0
H2390 H 0.82136 0.52067 0.68446 0.0
H2391 H 0.80771 0.53793 0.70668 0.0
H2392 H 0.80163 0.55691 0.69465 0.0
H2393 H 0.82263 0.57139 0.71142 0.0
H2394 H 0.91107 0.63472 0.69641 0.0
H2395 H 0.89486 0.65436 0.67946 0.0
H2396 H 0.8225 0.58612 0.67375 0.0
C2397 C 0.85868 0.54268 0.71186 0.0
C2398 C 0.88039 0.54806 0.72096 0.0
C2399 C 0.90205 0.57205 0.72155 0.0
C2400 C 0.90228 0.59038 0.71306 0.0
C2401 C 0.88063 0.58447 0.70414 0.0
C2402 C 0.85914 0.56133 0.70359 0.0
C2403 C 0.83825 0.56011 0.69335 0.0
C2404 C 0.82974 0.5395 0.68033 0.0
C2405 C 0.81626 0.55637 0.70205 0.0
C2406 C 0.85151 0.58604 0.68807 0.0
C2407 C 0.87595 0.59973 0.69444 0.0
C2408 C 0.89195 0.62423 0.69139 0.0
C2409 C 0.8826 0.6352 0.68175 0.0
C2410 C 0.85748 0.62174 0.67539 0.0
C2411 C 0.84184 0.59674 0.67842 0.0
H2412 H 0.44742 0.95646 0.16512 0.0
H2413 H 0.46049 0.89372 0.1666 0.0
H2414 H 0.47427 0.89977 0.14143 0.0
H2415 H 0.42431 0.94366 0.12521 0.0
H2416 H 0.43914 0.97651 0.1225 0.0
H2417 H 0.42883 0.96636 0.14034 0.0
H2418 H 0.47348 0.99688 0.15298 0.0
H2419 H 0.48394 0.00703 0.1352 0.0
H2420 H 0.49948 0.99488 0.14658 0.0
H2421 H 0.48973 0.91448 0.11702 0.0
H2422 H 0.50423 0.93601 0.0944 0.0
H2423 H 0.47979 0.98821 0.10809 0.0
C2424 C 0.4527 0.94368 0.16003 0.0
C2425 C 0.45304 0.92472 0.16793 0.0
C2426 C 0.46046 0.90865 0.16092 0.0
C2427 C 0.46815 0.91181 0.14656 0.0
C2428 C 0.4681 0.93097 0.13923 0.0
C2429 C 0.46035 0.9465 0.14564 0.0
C2430 C 0.46293 0.96618 0.1355 0.0
C2431 C 0.43727 0.96298 0.13059 0.0
C2432 C 0.48104 0.99282 0.14301 0.0
C2433 C 0.47379 0.95957 0.12255 0.0
C2434 C 0.47657 0.93916 0.12494 0.0
C2435 C 0.48739 0.93031 0.11494 0.0
C2436 C 0.49567 0.9427 0.10218 0.0
C2437 C 0.49301 0.96364 0.09949 0.0
C2438 C 0.48169 0.97198 0.10976 0.0
H2439 H 0.06458 0.55057 0.1758 0.0
H2440 H 0.02033 0.4737 0.18626 0.0
H2441 H 0.0026 0.46044 0.15995 0.0
H2442 H 0.01819 0.54971 0.14962 0.0
H2443 H 0.04058 0.56905 0.13747 0.0
H2444 H 0.04974 0.5723 0.15709 0.0
H2445 H 0.08574 0.56426 0.15128 0.0
H2446 H 0.07661 0.56085 0.13163 0.0
H2447 H 0.07877 0.53609 0.13993 0.0
H2448 H 0.98917 0.4558 0.13252 0.0
H2449 H 0.98155 0.46004 0.106 0.0
H2450 H 0.03473 0.53994 0.11361 0.0
C2451 C 0.05099 0.53098 0.17259 0.0
C2452 C 0.04378 0.51316 0.18308 0.0
C2453 C 0.02628 0.48763 0.17838 0.0
C2454 C 0.01604 0.47994 0.16348 0.0
C2455 C 0.0236 0.498 0.15342 0.0
C2456 C 0.04071 0.52298 0.15777 0.0
C2457 C 0.04582 0.53864 0.14478 0.0
C2458 C 0.03812 0.5586 0.1474 0.0
C2459 C 0.07337 0.55066 0.14173 0.0
C2460 C 0.02883 0.51859 0.13243 0.0
C2461 C 0.01613 0.49528 0.13764 0.0
C2462 C 0.99905 0.47395 0.12832 0.0
C2463 C 0.99477 0.47655 0.1133 0.0
C2464 C 0.00761 0.50028 0.10774 0.0
C2465 C 0.02492 0.52149 0.11748 0.0
H2466 H 0.469 0.51429 0.17245 0.0
H2467 H 0.46457 0.58172 0.16885 0.0
H2468 H 0.46934 0.57928 0.14201 0.0
H2469 H 0.51616 0.52907 0.14878 0.0
H2470 H 0.50412 0.49752 0.14028 0.0
H2471 H 0.49745 0.50267 0.15883 0.0
H2472 H 0.45 0.47507 0.15081 0.0
H2473 H 0.45653 0.46967 0.13223 0.0
H2474 H 0.43631 0.48236 0.13515 0.0
H2475 H 0.4781 0.57182 0.11627 0.0
H2476 H 0.49035 0.55987 0.09315 0.0
H2477 H 0.48879 0.49678 0.11296 0.0
C2478 C 0.46845 0.52815 0.1659 0.0
C2479 C 0.46633 0.54816 0.17267 0.0
C2480 C 0.46625 0.5663 0.16385 0.0
C2481 C 0.46884 0.56501 0.1486 0.0
C2482 C 0.4715 0.54544 0.1423 0.0
C2483 C 0.47123 0.52724 0.15062 0.0
C2484 C 0.47611 0.50919 0.14126 0.0
C2485 C 0.49987 0.50965 0.14767 0.0
C2486 C 0.45338 0.48249 0.13977 0.0
C2487 C 0.47974 0.52045 0.12652 0.0
C2488 C 0.47672 0.54118 0.12735 0.0
C2489 C 0.48014 0.55538 0.1154 0.0
C2490 C 0.48698 0.54833 0.10225 0.0
C2491 C 0.49039 0.52724 0.1011 0.0
C2492 C 0.48647 0.51306 0.11344 0.0
H2493 H 0.92025 0.43579 0.83471 0.0
H2494 H 0.97283 0.50673 0.81924 0.0
H2495 H 0.99394 0.52245 0.8447 0.0
H2496 H 0.91447 0.4616 0.8698 0.0
H2497 H 0.91272 0.43664 0.87997 0.0
H2498 H 0.90192 0.4305 0.86044 0.0
H2499 H 0.93171 0.41344 0.85532 0.0
H2500 H 0.94244 0.41933 0.87485 0.0
H2501 H 0.96457 0.43276 0.86135 0.0
H2502 H 0.00915 0.53075 0.87168 0.0
H2503 H 0.01809 0.5308 0.89863 0.0
H2504 H 0.95577 0.45462 0.89688 0.0
C2505 C 0.93637 0.45451 0.83668 0.0
C2506 C 0.94486 0.47009 0.82502 0.0
C2507 C 0.96585 0.4946 0.82805 0.0
C2508 C 0.978 0.50367 0.84246 0.0
C2509 C 0.96896 0.48803 0.85374 0.0
C2510 C 0.94869 0.46395 0.85106 0.0
C2511 C 0.94266 0.45117 0.86527 0.0
C2512 C 0.91638 0.4446 0.86909 0.0
C2513 C 0.94552 0.42779 0.86412 0.0
C2514 C 0.96271 0.47183 0.87632 0.0
C2515 C 0.97768 0.4929 0.86941 0.0
C2516 C 0.99761 0.51435 0.87723 0.0
C2517 C 0.00258 0.51417 0.89251 0.0
C2518 C 0.98765 0.49272 0.89984 0.0
C2519 C 0.96732 0.47138 0.89161 0.0
H2520 H 0.54512 0.46234 0.84401 0.0
H2521 H 0.57075 0.53642 0.8298 0.0
H2522 H 0.56788 0.55177 0.85511 0.0
H2523 H 0.49991 0.46096 0.86528 0.0
H2524 H 0.50476 0.44446 0.8797 0.0
H2525 H 0.51201 0.44033 0.86116 0.0
H2526 H 0.55729 0.45374 0.87137 0.0
H2527 H 0.55014 0.45784 0.89 0.0
H2528 H 0.57603 0.48337 0.88258 0.0
H2529 H 0.55708 0.5574 0.88101 0.0
H2530 H 0.54089 0.55331 0.90568 0.0
H2531 H 0.52271 0.47557 0.90277 0.0
C2532 C 0.55047 0.48189 0.84629 0.0
C2533 C 0.55814 0.49822 0.83498 0.0
C2534 C 0.56509 0.52369 0.83837 0.0
C2535 C 0.56345 0.53253 0.85269 0.0
C2536 C 0.55516 0.51572 0.86349 0.0
C2537 C 0.54907 0.491 0.86049 0.0
C2538 C 0.5392 0.47631 0.8737 0.0
C2539 C 0.51238 0.45422 0.86972 0.0
C2540 C 0.55672 0.46729 0.87977 0.0
C2541 C 0.53985 0.49639 0.88446 0.0
C2542 C 0.5493 0.51906 0.87844 0.0
C2543 C 0.55004 0.53986 0.88593 0.0
C2544 C 0.54069 0.53734 0.89987 0.0
C2545 C 0.53076 0.51419 0.90615 0.0
C2546 C 0.53071 0.49364 0.89839 0.0
H2547 H 0.53859 0.09393 0.84505 0.0
H2548 H 0.56551 0.04523 0.82834 0.0
H2549 H 0.56084 0.02775 0.85253 0.0
H2550 H 0.56654 0.10543 0.88351 0.0
H2551 H 0.53999 0.1047 0.89112 0.0
H2552 H 0.54777 0.11508 0.87298 0.0
H2553 H 0.50308 0.08168 0.86166 0.0
H2554 H 0.49521 0.07113 0.87973 0.0
H2555 H 0.49138 0.04913 0.86436 0.0
H2556 H 0.55017 0.01324 0.87794 0.0
H2557 H 0.53455 0.00303 0.90252 0.0
H2558 H 0.5143 0.06098 0.90254 0.0
C2559 C 0.54363 0.07967 0.84646 0.0
C2560 C 0.55252 0.07106 0.83474 0.0
C2561 C 0.55909 0.05251 0.83718 0.0
C2562 C 0.55636 0.04233 0.85088 0.0
C2563 C 0.5471 0.05093 0.86206 0.0
C2564 C 0.54094 0.06926 0.86002 0.0
C2565 C 0.53027 0.0744 0.87356 0.0
C2566 C 0.54716 0.10151 0.88072 0.0
C2567 C 0.50339 0.06874 0.86958 0.0
C2568 C 0.53088 0.05571 0.88342 0.0
C2569 C 0.54086 0.0425 0.87665 0.0
C2570 C 0.5426 0.02367 0.88342 0.0
C2571 C 0.53377 0.01809 0.89743 0.0
C2572 C 0.52323 0.03122 0.90453 0.0
C2573 C 0.52204 0.05043 0.8974 0.0
H2574 H 0.11853 0.28427 0.49624 0.0
H2575 H 0.11263 0.21135 0.48934 0.0
H2576 H 0.12452 0.21953 0.46377 0.0
H2577 H 0.09662 0.28663 0.45768 0.0
H2578 H 0.11879 0.31964 0.4579 0.0
H2579 H 0.10678 0.30678 0.47492 0.0
H2580 H 0.15198 0.32461 0.48713 0.0
H2581 H 0.16409 0.33744 0.47016 0.0
H2582 H 0.17265 0.31647 0.47827 0.0
H2583 H 0.13958 0.23667 0.43962 0.0
H2584 H 0.15836 0.26211 0.419 0.0
H2585 H 0.15669 0.32487 0.44215 0.0
C2586 C 0.11916 0.26983 0.48917 0.0
C2587 C 0.1144 0.24706 0.49462 0.0
C2588 C 0.1161 0.22885 0.48528 0.0
C2589 C 0.12274 0.2333 0.47076 0.0
C2590 C 0.12776 0.25613 0.46577 0.0
C2591 C 0.1261 0.27413 0.4747 0.0
C2592 C 0.13452 0.2979 0.46711 0.0
C2593 C 0.11288 0.30303 0.46423 0.0
C2594 C 0.15716 0.32042 0.47621 0.0
C2595 C 0.14166 0.29064 0.45268 0.0
C2596 C 0.13726 0.26634 0.45203 0.0
C2597 C 0.14306 0.25571 0.43999 0.0
C2598 C 0.15393 0.2704 0.42839 0.0
C2599 C 0.15921 0.29559 0.42896 0.0
C2600 C 0.15263 0.30561 0.44123 0.0
H2601 H 0.69546 0.86687 0.51473 0.0
H2602 H 0.75071 0.84325 0.51588 0.0
H2603 H 0.74705 0.83855 0.4884 0.0
H2604 H 0.6569 0.82589 0.48149 0.0
H2605 H 0.65048 0.84924 0.47482 0.0
H2606 H 0.656 0.84863 0.49452 0.0
H2607 H 0.69152 0.89513 0.49661 0.0
H2608 H 0.68622 0.89583 0.47692 0.0
H2609 H 0.71686 0.90409 0.48512 0.0
H2610 H 0.73951 0.83942 0.46075 0.0
H2611 H 0.72802 0.84509 0.43521 0.0
H2612 H 0.67772 0.86794 0.45247 0.0
C2613 C 0.70669 0.86057 0.5092 0.0
C2614 C 0.72331 0.85537 0.51743 0.0
C2615 C 0.73756 0.84699 0.50979 0.0
C2616 C 0.73571 0.84438 0.49419 0.0
C2617 C 0.71943 0.85009 0.48642 0.0
C2618 C 0.70505 0.85784 0.49368 0.0
C2619 C 0.68969 0.8637 0.4828 0.0
C2620 C 0.6616 0.84579 0.48345 0.0
C2621 C 0.69649 0.89133 0.48553 0.0
C2622 C 0.69813 0.85863 0.46832 0.0
C2623 C 0.71514 0.85061 0.47058 0.0
C2624 C 0.72602 0.84546 0.45882 0.0
C2625 C 0.71935 0.84868 0.44437 0.0
C2626 C 0.70208 0.85708 0.44186 0.0
C2627 C 0.69125 0.86186 0.45404 0.0
H2628 H 0.16031 0.86009 0.50067 0.0
H2629 H 0.08076 0.83349 0.49571 0.0
H2630 H 0.08016 0.82675 0.46845 0.0
H2631 H 0.17458 0.89557 0.47021 0.0
H2632 H 0.19833 0.88887 0.46477 0.0
H2633 H 0.19189 0.88858 0.48392 0.0
H2634 H 0.18362 0.84308 0.48385 0.0
H2635 H 0.19022 0.84328 0.46471 0.0
H2636 H 0.16093 0.81904 0.46999 0.0
H2637 H 0.08913 0.82635 0.44148 0.0
H2638 H 0.10687 0.8319 0.41727 0.0
H2639 H 0.18063 0.86009 0.44008 0.0
C2640 C 0.14268 0.85271 0.4939 0.0
C2641 C 0.12057 0.84735 0.50038 0.0
C2642 C 0.09788 0.83741 0.49106 0.0
C2643 C 0.09739 0.83366 0.47555 0.0
C2644 C 0.11972 0.83988 0.46953 0.0
C2645 C 0.14191 0.84909 0.47845 0.0
C2646 C 0.16361 0.85576 0.46927 0.0
C2647 C 0.18325 0.88386 0.47222 0.0
C2648 C 0.17528 0.8393 0.47213 0.0
C2649 C 0.15028 0.84937 0.45375 0.0
C2650 C 0.12493 0.83997 0.4541 0.0
C2651 C 0.1089 0.83339 0.4411 0.0
C2652 C 0.11909 0.83648 0.4274 0.0
C2653 C 0.14504 0.84619 0.42683 0.0
C2654 C 0.16074 0.85266 0.4402 0.0
H2655 H 0.64127 0.82189 0.16664 0.0
H2656 H 0.58472 0.84371 0.16409 0.0
H2657 H 0.59023 0.85246 0.19148 0.0
H2658 H 0.62166 0.78838 0.19704 0.0
H2659 H 0.65241 0.79734 0.20538 0.0
H2660 H 0.64696 0.79673 0.18559 0.0
H2661 H 0.68212 0.84325 0.18675 0.0
H2662 H 0.68782 0.84397 0.20658 0.0
H2663 H 0.68108 0.86663 0.19914 0.0
H2664 H 0.59822 0.85366 0.2193 0.0
H2665 H 0.6083 0.8476 0.24503 0.0
H2666 H 0.65941 0.82482 0.2291 0.0
C2667 C 0.6303 0.82886 0.17182 0.0
C2668 C 0.6126 0.83215 0.16323 0.0
C2669 C 0.59867 0.84141 0.17042 0.0
C2670 C 0.60161 0.84634 0.18598 0.0
C2671 C 0.61869 0.84213 0.19414 0.0
C2672 C 0.63296 0.8338 0.18727 0.0
C2673 C 0.64853 0.82881 0.19852 0.0
C2674 C 0.64199 0.80118 0.19651 0.0
C2675 C 0.67655 0.84674 0.1977 0.0
C2676 C 0.64013 0.83472 0.2128 0.0
C2677 C 0.62319 0.84271 0.2101 0.0
C2678 C 0.61178 0.84782 0.22156 0.0
C2679 C 0.61766 0.84438 0.23614 0.0
C2680 C 0.63461 0.83571 0.23906 0.0
C2681 C 0.64625 0.8313 0.22722 0.0
H2682 H 0.20423 0.78127 0.17291 0.0
H2683 H 0.23333 0.85889 0.16444 0.0
H2684 H 0.2266 0.8689 0.19005 0.0
H2685 H 0.15535 0.77563 0.19123 0.0
H2686 H 0.15649 0.75558 0.20457 0.0
H2687 H 0.16797 0.75556 0.18679 0.0
H2688 H 0.21094 0.76631 0.19981 0.0
H2689 H 0.1995 0.76614 0.21769 0.0
H2690 H 0.22747 0.79339 0.21335 0.0
H2691 H 0.21047 0.86879 0.21502 0.0
H2692 H 0.18815 0.85904 0.23765 0.0
H2693 H 0.16902 0.78129 0.22945 0.0
C2694 C 0.20973 0.80051 0.17656 0.0
C2695 C 0.21932 0.81932 0.1667 0.0
C2696 C 0.22628 0.84427 0.17187 0.0
C2697 C 0.22242 0.85008 0.18638 0.0
C2698 C 0.21189 0.8308 0.1956 0.0
C2699 C 0.20596 0.80657 0.19093 0.0
C2700 C 0.19276 0.78875 0.20238 0.0
C2701 C 0.1666 0.76765 0.19585 0.0
C2702 C 0.20862 0.77802 0.20868 0.0
C2703 C 0.19123 0.8065 0.21397 0.0
C2704 C 0.20263 0.83074 0.20996 0.0
C2705 C 0.20188 0.84997 0.21839 0.0
C2706 C 0.189 0.84423 0.23114 0.0
C2707 C 0.17696 0.81943 0.23531 0.0
C2708 C 0.17849 0.8005 0.2267 0.0
H2709 H 0.19749 0.42082 0.17944 0.0
H2710 H 0.22386 0.37358 0.15954 0.0
H2711 H 0.22038 0.35424 0.18294 0.0
H2712 H 0.22753 0.43042 0.21657 0.0
H2713 H 0.20166 0.42866 0.22562 0.0
H2714 H 0.20726 0.43978 0.2075 0.0
H2715 H 0.16213 0.40587 0.19725 0.0
H2716 H 0.15638 0.3947 0.21535 0.0
H2717 H 0.15153 0.37333 0.19936 0.0
H2718 H 0.21342 0.33937 0.20825 0.0
H2719 H 0.20187 0.32884 0.23355 0.0
H2720 H 0.17892 0.38475 0.23698 0.0
C2721 C 0.20243 0.40634 0.17995 0.0
C2722 C 0.21124 0.399 0.16762 0.0
C2723 C 0.21765 0.38004 0.16888 0.0
C2724 C 0.21558 0.36878 0.18211 0.0
C2725 C 0.20693 0.37651 0.19402 0.0
C2726 C 0.20034 0.39475 0.19307 0.0
C2727 C 0.19089 0.39908 0.2074 0.0
C2728 C 0.20786 0.42609 0.2147 0.0
C2729 C 0.16361 0.39287 0.20467 0.0
C2730 C 0.19303 0.38027 0.21649 0.0
C2731 C 0.2025 0.3676 0.20859 0.0
C2732 C 0.20607 0.34923 0.21458 0.0
C2733 C 0.1996 0.34349 0.229 0.0
C2734 C 0.18957 0.356 0.23728 0.0
C2735 C 0.18638 0.37472 0.2309 0.0
H2736 H 0.81579 0.61758 0.83664 0.0
H2737 H 0.73839 0.56241 0.82211 0.0
H2738 H 0.74583 0.57244 0.79621 0.0
H2739 H 0.8221 0.66296 0.81139 0.0
H2740 H 0.85371 0.67165 0.80826 0.0
H2741 H 0.84208 0.66059 0.82569 0.0
H2742 H 0.85379 0.62589 0.82207 0.0
H2743 H 0.86544 0.63683 0.80463 0.0
H2744 H 0.84178 0.60452 0.80529 0.0
H2745 H 0.76212 0.58764 0.77173 0.0
H2746 H 0.78556 0.60777 0.75074 0.0
H2747 H 0.85256 0.65243 0.78115 0.0
C2748 C 0.80039 0.60749 0.82802 0.0
C2749 C 0.77646 0.58915 0.83146 0.0
C2750 C 0.75678 0.57673 0.81983 0.0
C2751 C 0.76088 0.58219 0.80505 0.0
C2752 C 0.78475 0.60016 0.80206 0.0
C2753 C 0.80415 0.61269 0.81323 0.0
C2754 C 0.82807 0.63109 0.80705 0.0
C2755 C 0.83701 0.65818 0.81348 0.0
C2756 C 0.84847 0.62416 0.80993 0.0
C2757 C 0.81914 0.62689 0.79064 0.0
C2758 C 0.7941 0.60895 0.788 0.0
C2759 C 0.78173 0.60172 0.77369 0.0
C2760 C 0.79526 0.61318 0.7618 0.0
C2761 C 0.82092 0.63178 0.76418 0.0
C2762 C 0.83292 0.63857 0.77888 0.0
H2763 H 0.39342 0.20181 0.83631 0.0
H2764 H 0.34501 0.1268 0.84839 0.0
H2765 H 0.32839 0.11216 0.82194 0.0
H2766 H 0.35043 0.20263 0.80955 0.0
H2767 H 0.37334 0.21998 0.79712 0.0
H2768 H 0.38248 0.22386 0.81677 0.0
H2769 H 0.4162 0.21205 0.81155 0.0
H2770 H 0.40714 0.20811 0.79185 0.0
H2771 H 0.40723 0.1828 0.80075 0.0
H2772 H 0.31471 0.10685 0.79441 0.0
H2773 H 0.3063 0.11089 0.76792 0.0
H2774 H 0.36438 0.18927 0.77416 0.0
C2775 C 0.37939 0.18228 0.83338 0.0
C2776 C 0.37039 0.16542 0.84436 0.0
C2777 C 0.35224 0.13994 0.8401 0.0
C2778 C 0.34268 0.13151 0.82513 0.0
C2779 C 0.35172 0.14875 0.8146 0.0
C2780 C 0.36983 0.17355 0.81854 0.0
C2781 C 0.37594 0.18852 0.80523 0.0
C2782 C 0.37019 0.21001 0.8073 0.0
C2783 C 0.40325 0.19845 0.80217 0.0
C2784 C 0.35807 0.16842 0.79321 0.0
C2785 C 0.34427 0.14557 0.79879 0.0
C2786 C 0.32562 0.12456 0.78988 0.0
C2787 C 0.3209 0.12704 0.7749 0.0
C2788 C 0.33486 0.15032 0.76901 0.0
C2789 C 0.3538 0.17113 0.77829 0.0
H2790 H 0.80226 0.21998 0.8292 0.0
H2791 H 0.7811 0.14494 0.8402 0.0
H2792 H 0.78574 0.1335 0.81439 0.0
H2793 H 0.77299 0.20219 0.79043 0.0
H2794 H 0.79817 0.22971 0.784 0.0
H2795 H 0.7901 0.23082 0.80274 0.0
H2796 H 0.8358 0.24595 0.81294 0.0
H2797 H 0.84396 0.24473 0.79427 0.0
H2798 H 0.8498 0.22744 0.80776 0.0
H2799 H 0.79714 0.13183 0.7881 0.0
H2800 H 0.81347 0.13973 0.76356 0.0
H2801 H 0.82696 0.2159 0.76989 0.0
C2802 C 0.79833 0.20104 0.82616 0.0
C2803 C 0.79133 0.18335 0.83674 0.0
C2804 C 0.78617 0.15871 0.83225 0.0
C2805 C 0.78887 0.15209 0.81763 0.0
C2806 C 0.79651 0.17024 0.80761 0.0
C2807 C 0.80095 0.19415 0.81167 0.0
C2808 C 0.81042 0.21069 0.79913 0.0
C2809 C 0.79181 0.21882 0.79376 0.0
C2810 C 0.83654 0.23354 0.80381 0.0
C2811 C 0.81137 0.19259 0.78752 0.0
C2812 C 0.80303 0.16928 0.79253 0.0
C2813 C 0.80334 0.1499 0.78398 0.0
C2814 C 0.81257 0.15455 0.77001 0.0
C2815 C 0.82148 0.17844 0.76472 0.0
C2816 C 0.8205 0.19751 0.7736 0.0
H2817 H 0.27755 0.14249 0.49739 0.0
H2818 H 0.21573 0.06679 0.49848 0.0
H2819 H 0.22638 0.0695 0.52551 0.0
H2820 H 0.32007 0.13731 0.5231 0.0
H2821 H 0.33401 0.16899 0.53183 0.0
H2822 H 0.32082 0.16165 0.51271 0.0
H2823 H 0.29231 0.17984 0.51887 0.0
H2824 H 0.30546 0.18728 0.53802 0.0
H2825 H 0.27215 0.16802 0.5335 0.0
H2826 H 0.24417 0.07997 0.55221 0.0
H2827 H 0.26881 0.09694 0.57671 0.0
H2828 H 0.31928 0.16591 0.55843 0.0
C2829 C 0.26611 0.12662 0.50337 0.0
C2830 C 0.24582 0.10441 0.49585 0.0
C2831 C 0.2315 0.08388 0.50401 0.0
C2832 C 0.23731 0.0853 0.51936 0.0
C2833 C 0.25754 0.10737 0.52642 0.0
C2834 C 0.27177 0.12765 0.51871 0.0
C2835 C 0.2931 0.14879 0.52889 0.0
C2836 C 0.3185 0.15451 0.52383 0.0
C2837 C 0.29059 0.17238 0.52988 0.0
C2838 C 0.28873 0.13712 0.54349 0.0
C2839 C 0.26799 0.1133 0.54183 0.0
C2840 C 0.26036 0.09866 0.55367 0.0
C2841 C 0.27441 0.10853 0.56757 0.0
C2842 C 0.29594 0.13279 0.56953 0.0
C2843 C 0.30302 0.14724 0.55728 0.0
H2844 H 0.86353 0.10739 0.5014 0.0
H2845 H 0.89816 0.18528 0.49213 0.0
H2846 H 0.89238 0.19715 0.51752 0.0
H2847 H 0.81629 0.1077 0.52167 0.0
H2848 H 0.81686 0.08706 0.53476 0.0
H2849 H 0.82536 0.08502 0.51626 0.0
H2850 H 0.86798 0.09165 0.52725 0.0
H2851 H 0.85962 0.09373 0.54581 0.0
H2852 H 0.88803 0.11883 0.54018 0.0
H2853 H 0.88107 0.20022 0.54362 0.0
H2854 H 0.86533 0.19426 0.56837 0.0
H2855 H 0.83654 0.1141 0.56002 0.0
C2856 C 0.8699 0.12696 0.50466 0.0
C2857 C 0.88138 0.14539 0.49472 0.0
C2858 C 0.88969 0.17084 0.49958 0.0
C2859 C 0.88636 0.17776 0.51396 0.0
C2860 C 0.87469 0.15904 0.52338 0.0
C2861 C 0.86662 0.13417 0.51892 0.0
C2862 C 0.85387 0.11755 0.53097 0.0
C2863 C 0.82647 0.09819 0.52559 0.0
C2864 C 0.86824 0.10469 0.53637 0.0
C2865 C 0.85577 0.13692 0.54286 0.0
C2866 C 0.86795 0.16076 0.5383 0.0
C2867 C 0.87154 0.18164 0.54731 0.0
C2868 C 0.86237 0.17803 0.56131 0.0
C2869 C 0.84965 0.15371 0.56617 0.0
C2870 C 0.84648 0.13298 0.55677 0.0
H2871 H 0.83723 0.72486 0.50349 0.0
H2872 H 0.9173 0.77554 0.51121 0.0
H2873 H 0.91641 0.76585 0.53739 0.0
H2874 H 0.82214 0.74015 0.53891 0.0
H2875 H 0.79789 0.70841 0.54049 0.0
H2876 H 0.80502 0.71921 0.52239 0.0
H2877 H 0.81246 0.68245 0.51489 0.0
H2878 H 0.80531 0.67151 0.53295 0.0
H2879 H 0.83463 0.67823 0.5263 0.0
H2880 H 0.90634 0.75094 0.56302 0.0
H2881 H 0.88836 0.73061 0.58545 0.0
H2882 H 0.81485 0.69032 0.56078 0.0
C2883 C 0.85458 0.73409 0.5107 0.0
C2884 C 0.87734 0.75106 0.5053 0.0
C2885 C 0.89968 0.76233 0.51505 0.0
C2886 C 0.89932 0.75705 0.52996 0.0
C2887 C 0.8765 0.74041 0.53494 0.0
C2888 C 0.85456 0.72901 0.52556 0.0
C2889 C 0.83252 0.71162 0.53355 0.0
C2890 C 0.81326 0.72038 0.53385 0.0
C2891 C 0.82053 0.68434 0.5265 0.0
C2892 C 0.84543 0.71501 0.54893 0.0
C2893 C 0.87077 0.73175 0.54955 0.0
C2894 C 0.88651 0.73783 0.56264 0.0
C2895 C 0.87609 0.72632 0.57536 0.0
C2896 C 0.85018 0.70884 0.5749 0.0
C2897 C 0.83475 0.70335 0.56148 0.0
loop_
_geom_bond_atom_site_label_1
_geom_bond_atom_site_label_2
_geom_bond_distance
_geom_bond_site_symmetry_2
_ccdc_geom_bond_type
C0 C1 1.391 . S
C0 C4 1.391 . S
C0 H42 0.948 . S
C1 C0 1.391 . S
C1 C2 1.391 . S
C2 C1 1.391 . S
C2 H58 0.947 . S
C2 C59 1.392 . S
C3 C4 1.391 . S
C3 C7 1.397 . S
C3 C59 1.419 . S
C4 C0 1.391 . S
C4 C3 1.391 . S
C4 C5 1.399 . S
C5 C4 1.399 . S
C5 C8 1.396 . S
C5 C17 1.453 . S
C5 C18 1.684 . S
H6 C30 0.948 . S
C7 C3 1.397 . S
C7 C8 1.394 . S
C7 C26 1.723 . S
C8 C5 1.396 . S
C8 C7 1.394 . S
C8 C38 1.723 . S
H9 C32 0.947 . S
H10 C33 0.948 . S
H11 C39 0.982 . S
H12 C40 0.979 . S
H13 C40 0.980 . S
H14 C40 0.983 . S
H15 C39 0.979 . S
H16 C39 0.977 . S
C17 C5 1.453 . S
C17 H46 0.982 . S
C17 H47 0.979 . S
C17 H48 0.977 . S
C18 C5 1.684 . S
C18 H43 0.979 . S
C18 H44 0.980 . S
C18 H45 0.983 . S
C19 C20 1.391 . S
C19 C24 1.391 . S
C19 H49 0.948 . S
C20 C19 1.391 . S
C20 C21 1.391 . S
C21 C20 1.391 . S
C21 C22 1.392 . S
C21 H50 0.947 . S
C22 C21 1.392 . S
C22 C23 1.419 . S
C22 H51 0.948 . S
C23 C22 1.419 . S
C23 C24 1.391 . S
C23 C27 1.397 . S
C24 C19 1.391 . S
C24 C23 1.391 . S
C24 C25 1.399 . S
C25 C24 1.399 . S
C25 C26 1.396 . S
C25 C28 1.453 . S
C25 C29 1.684 . S
C26 C7 1.723 . S
C26 C25 1.396 . S
C26 C27 1.394 . S
C27 C23 1.397 . S
C27 C26 1.394 . S
C27 C37 1.723 . S
C28 C25 1.453 . S
C28 H52 0.982 . S
C28 H53 0.979 . S
C28 H54 0.977 . S
C29 C25 1.684 . S
C29 H55 0.979 . S
C29 H56 0.980 . S
C29 H57 0.983 . S
C30 H6 0.948 . S
C30 C31 1.391 . S
C30 C35 1.391 . S
C31 C30 1.391 . S
C31 C32 1.391 . S
C32 H9 0.947 . S
C32 C31 1.391 . S
C32 C33 1.392 . S
C33 H10 0.948 . S
C33 C32 1.392 . S
C33 C34 1.419 . S
C34 C33 1.419 . S
C34 C35 1.391 . S
C34 C38 1.397 . S
C35 C30 1.391 . S
C35 C34 1.391 . S
C35 C36 1.399 . S
C36 C35 1.399 . S
C36 C37 1.396 . S
C36 C39 1.453 . S
C36 C40 1.684 . S
C37 C27 1.723 . S
C37 C36 1.396 . S
C37 C38 1.394 . S
C38 C8 1.723 . S
C38 C34 1.397 . S
C38 C37 1.394 . S
C39 H11 0.982 . S
C39 H15 0.979 . S
C39 H16 0.977 . S
C39 C36 1.453 . S
C40 H12 0.979 . S
C40 H13 0.980 . S
C40 H14 0.983 . S
C40 C36 1.684 . S
H41 C59 0.948 . S
H42 C0 0.948 . S
H43 C18 0.979 . S
H44 C18 0.980 . S
H45 C18 0.983 . S
H46 C17 0.982 . S
H47 C17 0.979 . S
H48 C17 0.977 . S
H49 C19 0.948 . S
H50 C21 0.947 . S
H51 C22 0.948 . S
H52 C28 0.982 . S
H53 C28 0.979 . S
H54 C28 0.977 . S
H55 C29 0.979 . S
H56 C29 0.980 . S
H57 C29 0.983 . S
H58 C2 0.947 . S
C59 C2 1.392 . S
C59 C3 1.419 . S
C59 H41 0.948 . S
C60 C61 1.391 . S
C60 C64 1.391 . S
C60 H102 0.948 . S
C61 C60 1.391 . S
C61 C62 1.391 . S
C62 C61 1.391 . S
C62 H118 0.947 . S
C62 C119 1.392 . S
C63 C64 1.391 . S
C63 C67 1.397 . S
C63 C119 1.419 . S
C64 C60 1.391 . S
C64 C63 1.391 . S
C64 C65 1.399 . S
C65 C64 1.399 . S
C65 C68 1.396 . S
C65 C77 1.453 . S
C65 C78 1.684 . S
H66 C90 0.948 . S
C67 C63 1.397 . S
C67 C68 1.394 . S
C67 C86 1.723 . S
C68 C65 1.396 . S
C68 C67 1.394 . S
C68 C98 1.723 . S
H69 C92 0.947 . S
H70 C93 0.948 . S
H71 C99 0.982 . S
H72 C100 0.979 . S
H73 C100 0.980 . S
H74 C100 0.983 . S
H75 C99 0.979 . S
H76 C99 0.977 . S
C77 C65 1.453 . S
C77 H106 0.982 . S
C77 H107 0.979 . S
C77 H108 0.977 . S
C78 C65 1.684 . S
C78 H103 0.979 . S
C78 H104 0.980 . S
C78 H105 0.983 . S
C79 C80 1.391 . S
C79 C84 1.391 . S
C79 H109 0.948 . S
C80 C79 1.391 . S
C80 C81 1.391 . S
C81 C80 1.391 . S
C81 C82 1.392 . S
C81 H110 0.947 . S
C82 C81 1.392 . S
C82 C83 1.419 . S
C82 H111 0.948 . S
C83 C82 1.419 . S
C83 C84 1.391 . S
C83 C87 1.397 . S
C84 C79 1.391 . S
C84 C83 1.391 . S
C84 C85 1.399 . S
C85 C84 1.399 . S
C85 C86 1.396 . S
C85 C88 1.453 . S
C85 C89 1.684 . S
C86 C67 1.723 . S
C86 C85 1.396 . S
C86 C87 1.394 . S
C87 C83 1.397 . S
C87 C86 1.394 . S
C87 C97 1.723 . S
C88 C85 1.453 . S
C88 H112 0.982 . S
C88 H113 0.979 . S
C88 H114 0.977 . S
C89 C85 1.684 . S
C89 H115 0.979 . S
C89 H116 0.980 . S
C89 H117 0.983 . S
C90 H66 0.948 . S
C90 C91 1.391 . S
C90 C95 1.391 . S
C91 C90 1.391 . S
C91 C92 1.391 . S
C92 H69 0.947 . S
C92 C91 1.391 . S
C92 C93 1.392 . S
C93 H70 0.948 . S
C93 C92 1.392 . S
C93 C94 1.419 . S
C94 C93 1.419 . S
C94 C95 1.391 . S
C94 C98 1.397 . S
C95 C90 1.391 . S
C95 C94 1.391 . S
C95 C96 1.399 . S
C96 C95 1.399 . S
C96 C97 1.396 . S
C96 C99 1.453 . S
C96 C100 1.684 . S
C97 C87 1.723 . S
C97 C96 1.396 . S
C97 C98 1.394 . S
C98 C68 1.723 . S
C98 C94 1.397 . S
C98 C97 1.394 . S
C99 H71 0.982 . S
C99 H75 0.979 . S
C99 H76 0.977 . S
C99 C96 1.453 . S
C100 H72 0.979 . S
C100 H73 0.980 . S
C100 H74 0.983 . S
C100 C96 1.684 . S
H101 C119 0.948 . S
H102 C60 0.948 . S
H103 C78 0.979 . S
H104 C78 0.980 . S
H105 C78 0.983 . S
H106 C77 0.982 . S
H107 C77 0.979 . S
H108 C77 0.977 . S
H109 C79 0.948 . S
H110 C81 0.947 . S
H111 C82 0.948 . S
H112 C88 0.982 . S
H113 C88 0.979 . S
H114 C88 0.977 . S
H115 C89 0.979 . S
H116 C89 0.980 . S
H117 C89 0.983 . S
H118 C62 0.947 . S
C119 C62 1.392 . S
C119 C63 1.419 . S
C119 H101 0.948 . S
C120 C121 1.391 . S
C120 C124 1.391 . S
C120 H162 0.948 . S
C121 C120 1.391 . S
C121 C122 1.391 . S
C122 C121 1.391 . S
C122 H178 0.947 . S
C122 C179 1.392 . S
C123 C124 1.391 . S
C123 C127 1.397 . S
C123 C179 1.419 . S
C124 C120 1.391 . S
C124 C123 1.391 . S
C124 C125 1.399 . S
C125 C124 1.399 . S
C125 C128 1.396 . S
C125 C137 1.453 . S
C125 C138 1.684 . S
H126 C150 0.948 . S
C127 C123 1.397 . S
C127 C128 1.394 . S
C127 C146 1.723 . S
C128 C125 1.396 . S
C128 C127 1.394 . S
C128 C158 1.723 . S
H129 C152 0.947 . S
H130 C153 0.948 . S
H131 C159 0.982 . S
H132 C160 0.979 . S
H133 C160 0.980 . S
H134 C160 0.983 . S
H135 C159 0.979 . S
H136 C159 0.977 . S
C137 C125 1.453 . S
C137 H166 0.982 . S
C137 H167 0.979 . S
C137 H168 0.977 . S
C138 C125 1.684 . S
C138 H163 0.979 . S
C138 H164 0.980 . S
C138 H165 0.983 . S
C139 C140 1.391 . S
C139 C144 1.391 . S
C139 H169 0.948 . S
C140 C139 1.391 . S
C140 C141 1.391 . S
C141 C140 1.391 . S
C141 C142 1.392 . S
C141 H170 0.947 . S
C142 C141 1.392 . S
C142 C143 1.419 . S
C142 H171 0.948 . S
C143 C142 1.419 . S
C143 C144 1.391 . S
C143 C147 1.397 . S
C144 C139 1.391 . S
C144 C143 1.391 . S
C144 C145 1.399 . S
C145 C144 1.399 . S
C145 C146 1.396 . S
C145 C148 1.453 . S
C145 C149 1.684 . S
C146 C127 1.723 . S
C146 C145 1.396 . S
C146 C147 1.394 . S
C147 C143 1.397 . S
C147 C146 1.394 . S
C147 C157 1.723 . S
C148 C145 1.453 . S
C148 H172 0.982 . S
C148 H173 0.979 . S
C148 H174 0.977 . S
C149 C145 1.684 . S
C149 H175 0.979 . S
C149 H176 0.980 . S
C149 H177 0.983 . S
C150 H126 0.948 . S
C150 C151 1.391 . S
C150 C155 1.391 . S
C151 C150 1.391 . S
C151 C152 1.391 . S
C152 H129 0.947 . S
C152 C151 1.391 . S
C152 C153 1.392 . S
C153 H130 0.948 . S
C153 C152 1.392 . S
C153 C154 1.419 . S
C154 C153 1.419 . S
C154 C155 1.391 . S
C154 C158 1.397 . S
C155 C150 1.391 . S
C155 C154 1.391 . S
C155 C156 1.399 . S
C156 C155 1.399 . S
C156 C157 1.396 . S
C156 C159 1.453 . S
C156 C160 1.684 . S
C157 C147 1.723 . S
C157 C156 1.396 . S
C157 C158 1.394 . S
C158 C128 1.723 . S
C158 C154 1.397 . S
C158 C157 1.394 . S
C159 H131 0.982 . S
C159 H135 0.979 . S
C159 H136 0.977 . S
C159 C156 1.453 . S
C160 H132 0.979 . S
C160 H133 0.980 . S
C160 H134 0.983 . S
C160 C156 1.684 . S
H161 C179 0.948 . S
H162 C120 0.948 . S
H163 C138 0.979 . S
H164 C138 0.980 . S
H165 C138 0.983 . S
H166 C137 0.982 . S
H167 C137 0.979 . S
H168 C137 0.977 . S
H169 C139 0.948 . S
H170 C141 0.947 . S
H171 C142 0.948 . S
H172 C148 0.982 . S
H173 C148 0.979 . S
H174 C148 0.977 . S
H175 C149 0.979 . S
H176 C149 0.980 . S
H177 C149 0.983 . S
H178 C122 0.947 . S
C179 C122 1.392 . S
C179 C123 1.419 . S
C179 H161 0.948 . S
C180 C181 1.391 . S
C180 C184 1.391 . S
C180 H222 0.948 . S
C181 C180 1.391 . S
C181 C182 1.391 . S
C182 C181 1.391 . S
C182 H238 0.947 . S
C182 C239 1.392 . S
C183 C184 1.391 . S
C183 C187 1.397 . S
C183 C239 1.419 . S
C184 C180 1.391 . S
C184 C183 1.391 . S
C184 C185 1.399 . S
C185 C184 1.399 . S
C185 C188 1.396 . S
C185 C197 1.453 . S
C185 C198 1.684 . S
H186 C210 0.948 . S
C187 C183 1.397 . S
C187 C188 1.394 . S
C187 C206 1.723 . S
C188 C185 1.396 . S
C188 C187 1.394 . S
C188 C218 1.723 . S
H189 C212 0.947 . S
H190 C213 0.948 . S
H191 C219 0.982 . S
H192 C220 0.979 . S
H193 C220 0.980 . S
H194 C220 0.983 . S
H195 C219 0.979 . S
H196 C219 0.977 . S
C197 C185 1.453 . S
C197 H226 0.982 . S
C197 H227 0.979 . S
C197 H228 0.977 . S
C198 C185 1.684 . S
C198 H223 0.979 . S
C198 H224 0.980 . S
C198 H225 0.983 . S
C199 C200 1.391 . S
C199 C204 1.391 . S
C199 H229 0.948 . S
C200 C199 1.391 . S
C200 C201 1.391 . S
C201 C200 1.391 . S
C201 C202 1.392 . S
C201 H230 0.947 . S
C202 C201 1.392 . S
C202 C203 1.419 . S
C202 H231 0.948 . S
C203 C202 1.419 . S
C203 C204 1.391 . S
C203 C207 1.397 . S
C204 C199 1.391 . S
C204 C203 1.391 . S
C204 C205 1.399 . S
C205 C204 1.399 . S
C205 C206 1.396 . S
C205 C208 1.453 . S
C205 C209 1.684 . S
C206 C187 1.723 . S
C206 C205 1.396 . S
C206 C207 1.394 . S
C207 C203 1.397 . S
C207 C206 1.394 . S
C207 C217 1.723 . S
C208 C205 1.453 . S
C208 H232 0.982 . S
C208 H233 0.979 . S
C208 H234 0.977 . S
C209 C205 1.684 . S
C209 H235 0.979 . S
C209 H236 0.980 . S
C209 H237 0.983 . S
C210 H186 0.948 . S
C210 C211 1.391 . S
C210 C215 1.391 . S
C211 C210 1.391 . S
C211 C212 1.391 . S
C212 H189 0.947 . S
C212 C211 1.391 . S
C212 C213 1.392 . S
C213 H190 0.948 . S
C213 C212 1.392 . S
C213 C214 1.419 . S
C214 C213 1.419 . S
C214 C215 1.391 . S
C214 C218 1.397 . S
C215 C210 1.391 . S
C215 C214 1.391 . S
C215 C216 1.399 . S
C216 C215 1.399 . S
C216 C217 1.396 . S
C216 C219 1.453 . S
C216 C220 1.684 . S
C217 C207 1.723 . S
C217 C216 1.396 . S
C217 C218 1.394 . S
C218 C188 1.723 . S
C218 C214 1.397 . S
C218 C217 1.394 . S
C219 H191 0.982 . S
C219 H195 0.979 . S
C219 H196 0.977 . S
C219 C216 1.453 . S
C220 H192 0.979 . S
C220 H193 0.980 . S
C220 H194 0.983 . S
C220 C216 1.684 . S
H221 C239 0.948 . S
H222 C180 0.948 . S
H223 C198 0.979 . S
H224 C198 0.980 . S
H225 C198 0.983 . S
H226 C197 0.982 . S
H227 C197 0.979 . S
H228 C197 0.977 . S
H229 C199 0.948 . S
H230 C201 0.947 . S
H231 C202 0.948 . S
H232 C208 0.982 . S
H233 C208 0.979 . S
H234 C208 0.977 . S
H235 C209 0.979 . S
H236 C209 0.980 . S
H237 C209 0.983 . S
H238 C182 0.947 . S
C239 C182 1.392 . S
C239 C183 1.419 . S
C239 H221 0.948 . S
C240 C241 1.391 . S
C240 C244 1.391 . S
C240 H282 0.948 . S
C241 C240 1.391 . S
C241 C242 1.391 . S
C242 C241 1.391 . S
C242 H298 0.947 . S
C242 C299 1.392 . S
C243 C244 1.391 . S
C243 C247 1.397 . S
C243 C299 1.419 . S
C244 C240 1.391 . S
C244 C243 1.391 . S
C244 C245 1.399 . S
C245 C244 1.399 . S
C245 C248 1.396 . S
C245 C257 1.453 . S
C245 C258 1.684 . S
H246 C270 0.948 . S
C247 C243 1.397 . S
C247 C248 1.394 . S
C247 C266 1.723 . S
C248 C245 1.396 . S
C248 C247 1.394 . S
C248 C278 1.723 . S
H249 C272 0.947 . S
H250 C273 0.948 . S
H251 C279 0.982 . S
H252 C280 0.979 . S
H253 C280 0.980 . S
H254 C280 0.983 . S
H255 C279 0.979 . S
H256 C279 0.977 . S
C257 C245 1.453 . S
C257 H286 0.982 . S
C257 H287 0.979 . S
C257 H288 0.977 . S
C258 C245 1.684 . S
C258 H283 0.979 . S
C258 H284 0.980 . S
C258 H285 0.983 . S
C259 C260 1.391 . S
C259 C264 1.391 . S
C259 H289 0.948 . S
C260 C259 1.391 . S
C260 C261 1.391 . S
C261 C260 1.391 . S
C261 C262 1.392 . S
C261 H290 0.947 . S
C262 C261 1.392 . S
C262 C263 1.419 . S
C262 H291 0.948 . S
C263 C262 1.419 . S
C263 C264 1.391 . S
C263 C267 1.397 . S
C264 C259 1.391 . S
C264 C263 1.391 . S
C264 C265 1.399 . S
C265 C264 1.399 . S
C265 C266 1.396 . S
C265 C268 1.453 . S
C265 C269 1.684 . S
C266 C247 1.723 . S
C266 C265 1.396 . S
C266 C267 1.394 . S
C267 C263 1.397 . S
C267 C266 1.394 . S
C267 C277 1.723 . S
C268 C265 1.453 . S
C268 H292 0.982 . S
C268 H293 0.979 . S
C268 H294 0.977 . S
C269 C265 1.684 . S
C269 H295 0.979 . S
C269 H296 0.980 . S
C269 H297 0.983 . S
C270 H246 0.948 . S
C270 C271 1.391 . S
C270 C275 1.391 . S
C271 C270 1.391 . S
C271 C272 1.391 . S
C272 H249 0.947 . S
C272 C271 1.391 . S
C272 C273 1.392 . S
C273 H250 0.948 . S
C273 C272 1.392 . S
C273 C274 1.419 . S
C274 C273 1.419 . S
C274 C275 1.391 . S
C274 C278 1.397 . S
C275 C270 1.391 . S
C275 C274 1.391 . S
C275 C276 1.399 . S
C276 C275 1.399 . S
C276 C277 1.396 . S
C276 C279 1.453 . S
C276 C280 1.684 . S
C277 C267 1.723 . S
C277 C276 1.396 . S
C277 C278 1.394 . S
C278 C248 1.723 . S
C278 C274 1.397 . S
C278 C277 1.394 . S
C279 H251 0.982 . S
C279 H255 0.979 . S
C279 H256 0.977 . S
C279 C276 1.453 . S
C280 H252 0.979 . S
C280 H253 0.980 . S
C280 H254 0.983 . S
C280 C276 1.684 . S
H281 C299 0.948 . S
H282 C240 0.948 . S
H283 C258 0.979 . S
H284 C258 0.980 . S
H285 C258 0.983 . S
H286 C257 0.982 . S
H287 C257 0.979 . S
H288 C257 0.977 . S
H289 C259 0.948 . S
H290 C261 0.947 . S
H291 C262 0.948 . S
H292 C268 0.982 . S
H293 C268 0.979 . S
H294 C268 0.977 . S
H295 C269 0.979 . S
H296 C269 0.980 . S
H297 C269 0.983 . S
H298 C242 0.947 . S
C299 C242 1.392 . S
C299 C243 1.419 . S
C299 H281 0.948 . S
C300 C301 1.391 . S
C300 C304 1.391 . S
C300 H342 0.948 . S
C301 C300 1.391 . S
C301 C302 1.391 . S
C302 C301 1.391 . S
C302 H358 0.947 . S
C302 C359 1.392 . S
C303 C304 1.391 . S
C303 C307 1.397 . S
C303 C359 1.419 . S
C304 C300 1.391 . S
C304 C303 1.391 . S
C304 C305 1.399 . S
C305 C304 1.399 . S
C305 C308 1.396 . S
C305 C317 1.453 . S
C305 C318 1.684 . S
H306 C330 0.948 . S
C307 C303 1.397 . S
C307 C308 1.394 . S
C307 C326 1.723 . S
C308 C305 1.396 . S
C308 C307 1.394 . S
C308 C338 1.723 . S
H309 C332 0.947 . S
H310 C333 0.948 . S
H311 C339 0.982 . S
H312 C340 0.979 . S
H313 C340 0.980 . S
H314 C340 0.983 . S
H315 C339 0.979 . S
H316 C339 0.977 . S
C317 C305 1.453 . S
C317 H346 0.982 . S
C317 H347 0.979 . S
C317 H348 0.977 . S
C318 C305 1.684 . S
C318 H343 0.979 . S
C318 H344 0.980 . S
C318 H345 0.983 . S
C319 C320 1.391 . S
C319 C324 1.391 . S
C319 H349 0.948 . S
C320 C319 1.391 . S
C320 C321 1.391 . S
C321 C320 1.391 . S
C321 C322 1.392 . S
C321 H350 0.947 . S
C322 C321 1.392 . S
C322 C323 1.419 . S
C322 H351 0.948 . S
C323 C322 1.419 . S
C323 C324 1.391 . S
C323 C327 1.397 . S
C324 C319 1.391 . S
C324 C323 1.391 . S
C324 C325 1.399 . S
C325 C324 1.399 . S
C325 C326 1.396 . S
C325 C328 1.453 . S
C325 C329 1.684 . S
C326 C307 1.723 . S
C326 C325 1.396 . S
C326 C327 1.394 . S
C327 C323 1.397 . S
C327 C326 1.394 . S
C327 C337 1.723 . S
C328 C325 1.453 . S
C328 H352 0.982 . S
C328 H353 0.979 . S
C328 H354 0.977 . S
C329 C325 1.684 . S
C329 H355 0.979 . S
C329 H356 0.980 . S
C329 H357 0.983 . S
C330 H306 0.948 . S
C330 C331 1.391 . S
C330 C335 1.391 . S
C331 C330 1.391 . S
C331 C332 1.391 . S
C332 H309 0.947 . S
C332 C331 1.391 . S
C332 C333 1.392 . S
C333 H310 0.948 . S
C333 C332 1.392 . S
C333 C334 1.419 . S
C334 C333 1.419 . S
C334 C335 1.391 . S
C334 C338 1.397 . S
C335 C330 1.391 . S
C335 C334 1.391 . S
C335 C336 1.399 . S
C336 C335 1.399 . S
C336 C337 1.396 . S
C336 C339 1.453 . S
C336 C340 1.684 . S
C337 C327 1.723 . S
C337 C336 1.396 . S
C337 C338 1.394 . S
C338 C308 1.723 . S
C338 C334 1.397 . S
C338 C337 1.394 . S
C339 H311 0.982 . S
C339 H315 0.979 . S
C339 H316 0.977 . S
C339 C336 1.453 . S
C340 H312 0.979 . S
C340 H313 0.980 . S
C340 H314 0.983 . S
C340 C336 1.684 . S
H341 C359 0.948 . S
H342 C300 0.948 . S
H343 C318 0.979 . S
H344 C318 0.980 . S
H345 C318 0.983 . S
H346 C317 0.982 . S
H347 C317 0.979 . S
H348 C317 0.977 . S
H349 C319 0.948 . S
H350 C321 0.947 . S
H351 C322 0.948 . S
H352 C328 0.982 . S
H353 C328 0.979 . S
H354 C328 0.977 . S
H355 C329 0.979 . S
H356 C329 0.980 . S
H357 C329 0.983 . S
H358 C302 0.947 . S
C359 C302 1.392 . S
C359 C303 1.419 . S
C359 H341 0.948 . S
C360 C361 1.391 . S
C360 C364 1.391 . S
C360 H402 0.948 . S
C361 C360 1.391 . S
C361 C362 1.391 . S
C362 C361 1.391 . S
C362 H418 0.947 . S
C362 C419 1.392 . S
C363 C364 1.391 . S
C363 C367 1.397 . S
C363 C419 1.419 . S
C364 C360 1.391 . S
C364 C363 1.391 . S
C364 C365 1.399 . S
C365 C364 1.399 . S
C365 C368 1.396 . S
C365 C377 1.453 . S
C365 C378 1.684 . S
H366 C390 0.948 . S
C367 C363 1.397 . S
C367 C368 1.394 . S
C367 C386 1.723 . S
C368 C365 1.396 . S
C368 C367 1.394 . S
C368 C398 1.723 . S
H369 C392 0.947 . S
H370 C393 0.948 . S
H371 C399 0.982 . S
H372 C400 0.979 . S
H373 C400 0.980 . S
H374 C400 0.983 . S
H375 C399 0.979 . S
H376 C399 0.977 . S
C377 C365 1.453 . S
C377 H406 0.982 . S
C377 H407 0.979 . S
C377 H408 0.977 . S
C378 C365 1.684 . S
C378 H403 0.979 . S
C378 H404 0.980 . S
C378 H405 0.983 . S
C379 C380 1.391 . S
C379 C384 1.391 . S
C379 H409 0.948 . S
C380 C379 1.391 . S
C380 C381 1.391 . S
C381 C380 1.391 . S
C381 C382 1.392 . S
C381 H410 0.947 . S
C382 C381 1.392 . S
C382 C383 1.419 . S
C382 H411 0.948 . S
C383 C382 1.419 . S
C383 C384 1.391 . S
C383 C387 1.397 . S
C384 C379 1.391 . S
C384 C383 1.391 . S
C384 C385 1.399 . S
C385 C384 1.399 . S
C385 C386 1.396 . S
C385 C388 1.453 . S
C385 C389 1.684 . S
C386 C367 1.723 . S
C386 C385 1.396 . S
C386 C387 1.394 . S
C387 C383 1.397 . S
C387 C386 1.394 . S
C387 C397 1.723 . S
C388 C385 1.453 . S
C388 H412 0.982 1_655 S
C388 H413 0.979 . S
C388 H414 0.977 . S
C389 C385 1.684 . S
C389 H415 0.979 . S
C389 H416 0.980 . S
C389 H417 0.983 . S
C390 H366 0.948 . S
C390 C391 1.391 . S
C390 C395 1.391 . S
C391 C390 1.391 . S
C391 C392 1.391 . S
C392 H369 0.947 . S
C392 C391 1.391 . S
C392 C393 1.392 . S
C393 H370 0.948 . S
C393 C392 1.392 . S
C393 C394 1.419 . S
C394 C393 1.419 . S
C394 C395 1.391 . S
C394 C398 1.397 . S
C395 C390 1.391 . S
C395 C394 1.391 . S
C395 C396 1.399 . S
C396 C395 1.399 . S
C396 C397 1.396 . S
C396 C399 1.453 . S
C396 C400 1.684 . S
C397 C387 1.723 . S
C397 C396 1.396 . S
C397 C398 1.394 . S
C398 C368 1.723 . S
C398 C394 1.397 . S
C398 C397 1.394 . S
C399 H371 0.982 . S
C399 H375 0.979 . S
C399 H376 0.977 . S
C399 C396 1.453 . S
C400 H372 0.979 . S
C400 H373 0.980 . S
C400 H374 0.983 . S
C400 C396 1.684 . S
H401 C419 0.948 . S
H402 C360 0.948 . S
H403 C378 0.979 . S
H404 C378 0.980 . S
H405 C378 0.983 . S
H406 C377 0.982 . S
H407 C377 0.979 . S
H408 C377 0.977 . S
H409 C379 0.948 . S
H410 C381 0.947 . S
H411 C382 0.948 . S
H412 C388 0.982 1_455 S
H413 C388 0.979 . S
H414 C388 0.977 . S
H415 C389 0.979 . S
H416 C389 0.980 . S
H417 C389 0.983 . S
H418 C362 0.947 . S
C419 C362 1.392 . S
C419 C363 1.419 . S
C419 H401 0.948 . S
C420 C421 1.391 . S
C420 C424 1.391 . S
C420 H462 0.948 . S
C421 C420 1.391 . S
C421 C422 1.391 . S
C422 C421 1.391 . S
C422 H478 0.947 . S
C422 C479 1.392 . S
C423 C424 1.391 . S
C423 C427 1.397 . S
C423 C479 1.419 . S
C424 C420 1.391 . S
C424 C423 1.391 . S
C424 C425 1.399 . S
C425 C424 1.399 . S
C425 C428 1.396 . S
C425 C437 1.453 . S
C425 C438 1.684 . S
H426 C450 0.948 . S
C427 C423 1.397 . S
C427 C428 1.394 . S
C427 C446 1.723 . S
C428 C425 1.396 . S
C428 C427 1.394 . S
C428 C458 1.723 . S
H429 C452 0.947 . S
H430 C453 0.948 . S
H431 C459 0.982 . S
H432 C460 0.979 . S
H433 C460 0.980 . S
H434 C460 0.983 . S
H435 C459 0.979 . S
H436 C459 0.977 . S
C437 C425 1.453 . S
C437 H466 0.982 . S
C437 H467 0.979 . S
C437 H468 0.977 . S
C438 C425 1.684 . S
C438 H463 0.979 . S
C438 H464 0.980 . S
C438 H465 0.983 . S
C439 C440 1.391 . S
C439 C444 1.391 . S
C439 H469 0.948 . S
C440 C439 1.391 . S
C440 C441 1.391 . S
C441 C440 1.391 . S
C441 C442 1.392 . S
C441 H470 0.947 . S
C442 C441 1.392 . S
C442 C443 1.419 . S
C442 H471 0.948 . S
C443 C442 1.419 . S
C443 C444 1.391 . S
C443 C447 1.397 . S
C444 C439 1.391 . S
C444 C443 1.391 . S
C444 C445 1.399 . S
C445 C444 1.399 . S
C445 C446 1.396 . S
C445 C448 1.453 . S
C445 C449 1.684 . S
C446 C427 1.723 . S
C446 C445 1.396 . S
C446 C447 1.394 . S
C447 C443 1.397 . S
C447 C446 1.394 . S
C447 C457 1.723 . S
C448 C445 1.453 . S
C448 H472 0.982 . S
C448 H473 0.979 . S
C448 H474 0.977 . S
C449 C445 1.684 . S
C449 H475 0.979 . S
C449 H476 0.980 . S
C449 H477 0.983 . S
C450 H426 0.948 . S
C450 C451 1.391 . S
C450 C455 1.391 . S
C451 C450 1.391 . S
C451 C452 1.391 . S
C452 H429 0.947 . S
C452 C451 1.391 . S
C452 C453 1.392 . S
C453 H430 0.948 . S
C453 C452 1.392 . S
C453 C454 1.419 . S
C454 C453 1.419 . S
C454 C455 1.391 . S
C454 C458 1.397 . S
C455 C450 1.391 . S
C455 C454 1.391 . S
C455 C456 1.399 . S
C456 C455 1.399 . S
C456 C457 1.396 . S
C456 C459 1.453 . S
C456 C460 1.684 . S
C457 C447 1.723 . S
C457 C456 1.396 . S
C457 C458 1.394 . S
C458 C428 1.723 . S
C458 C454 1.397 . S
C458 C457 1.394 . S
C459 H431 0.982 . S
C459 H435 0.979 . S
C459 H436 0.977 . S
C459 C456 1.453 . S
C460 H432 0.979 . S
C460 H433 0.980 . S
C460 H434 0.983 . S
C460 C456 1.684 . S
H461 C479 0.948 . S
H462 C420 0.948 . S
H463 C438 0.979 . S
H464 C438 0.980 . S
H465 C438 0.983 . S
H466 C437 0.982 . S
H467 C437 0.979 . S
H468 C437 0.977 . S
H469 C439 0.948 . S
H470 C441 0.947 . S
H471 C442 0.948 . S
H472 C448 0.982 . S
H473 C448 0.979 . S
H474 C448 0.977 . S
H475 C449 0.979 . S
H476 C449 0.980 . S
H477 C449 0.983 . S
H478 C422 0.947 . S
C479 C422 1.392 . S
C479 C423 1.419 . S
C479 H461 0.948 . S
C480 C481 1.391 . S
C480 C484 1.391 . S
C480 H522 0.948 . S
C481 C480 1.391 . S
C481 C482 1.391 . S
C482 C481 1.391 . S
C482 H538 0.947 . S
C482 C539 1.392 . S
C483 C484 1.391 . S
C483 C487 1.397 . S
C483 C539 1.419 . S
C484 C480 1.391 . S
C484 C483 1.391 . S
C484 C485 1.399 . S
C485 C484 1.399 . S
C485 C488 1.396 . S
C485 C497 1.453 . S
C485 C498 1.684 . S
H486 C510 0.948 . S
C487 C483 1.397 . S
C487 C488 1.394 . S
C487 C506 1.723 . S
C488 C485 1.396 . S
C488 C487 1.394 . S
C488 C518 1.723 . S
H489 C512 0.947 . S
H490 C513 0.948 . S
H491 C519 0.982 . S
H492 C520 0.979 . S
H493 C520 0.980 . S
H494 C520 0.983 . S
H495 C519 0.979 . S
H496 C519 0.977 . S
C497 C485 1.453 . S
C497 H526 0.982 . S
C497 H527 0.979 . S
C497 H528 0.977 . S
C498 C485 1.684 . S
C498 H523 0.979 . S
C498 H524 0.980 . S
C498 H525 0.983 . S
C499 C500 1.391 . S
C499 C504 1.391 . S
C499 H529 0.948 . S
C500 C499 1.391 . S
C500 C501 1.391 . S
C501 C500 1.391 . S
C501 C502 1.392 . S
C501 H530 0.947 . S
C502 C501 1.392 . S
C502 C503 1.419 . S
C502 H531 0.948 . S
C503 C502 1.419 . S
C503 C504 1.391 . S
C503 C507 1.397 . S
C504 C499 1.391 . S
C504 C503 1.391 . S
C504 C505 1.399 . S
C505 C504 1.399 . S
C505 C506 1.396 . S
C505 C508 1.453 . S
C505 C509 1.684 . S
C506 C487 1.723 . S
C506 C505 1.396 . S
C506 C507 1.394 . S
C507 C503 1.397 . S
C507 C506 1.394 . S
C507 C517 1.723 . S
C508 C505 1.453 . S
C508 H532 0.982 . S
C508 H533 0.979 . S
C508 H534 0.977 . S
C509 C505 1.684 . S
C509 H535 0.979 . S
C509 H536 0.980 . S
C509 H537 0.983 . S
C510 H486 0.948 . S
C510 C511 1.391 . S
C510 C515 1.391 . S
C511 C510 1.391 . S
C511 C512 1.391 . S
C512 H489 0.947 . S
C512 C511 1.391 . S
C512 C513 1.392 . S
C513 H490 0.948 . S
C513 C512 1.392 . S
C513 C514 1.419 . S
C514 C513 1.419 . S
C514 C515 1.391 . S
C514 C518 1.397 . S
C515 C510 1.391 . S
C515 C514 1.391 . S
C515 C516 1.399 . S
C516 C515 1.399 . S
C516 C517 1.396 . S
C516 C519 1.453 . S
C516 C520 1.684 . S
C517 C507 1.723 . S
C517 C516 1.396 . S
C517 C518 1.394 . S
C518 C488 1.723 . S
C518 C514 1.397 . S
C518 C517 1.394 . S
C519 H491 0.982 . S
C519 H495 0.979 . S
C519 H496 0.977 . S
C519 C516 1.453 . S
C520 H492 0.979 . S
C520 H493 0.980 . S
C520 H494 0.983 . S
C520 C516 1.684 . S
H521 C539 0.948 . S
H522 C480 0.948 . S
H523 C498 0.979 . S
H524 C498 0.980 . S
H525 C498 0.983 . S
H526 C497 0.982 . S
H527 C497 0.979 . S
H528 C497 0.977 . S
H529 C499 0.948 . S
H530 C501 0.947 . S
H531 C502 0.948 . S
H532 C508 0.982 . S
H533 C508 0.979 . S
H534 C508 0.977 . S
H535 C509 0.979 . S
H536 C509 0.980 . S
H537 C509 0.983 . S
H538 C482 0.947 . S
C539 C482 1.392 . S
C539 C483 1.419 . S
C539 H521 0.948 . S
C540 C541 1.391 . S
C540 C544 1.391 . S
C540 H582 0.948 . S
C541 C540 1.391 . S
C541 C542 1.391 . S
C542 C541 1.391 . S
C542 H598 0.947 . S
C542 C599 1.392 . S
C543 C544 1.391 . S
C543 C547 1.397 . S
C543 C599 1.419 . S
C544 C540 1.391 . S
C544 C543 1.391 . S
C544 C545 1.399 . S
C545 C544 1.399 . S
C545 C548 1.396 . S
C545 C557 1.453 . S
C545 C558 1.684 . S
H546 C570 0.948 . S
C547 C543 1.397 . S
C547 C548 1.394 . S
C547 C566 1.723 . S
C548 C545 1.396 . S
C548 C547 1.394 . S
C548 C578 1.723 . S
H549 C572 0.947 . S
H550 C573 0.948 . S
H551 C579 0.982 . S
H552 C580 0.979 . S
H553 C580 0.980 . S
H554 C580 0.983 . S
H555 C579 0.979 . S
H556 C579 0.977 . S
C557 C545 1.453 . S
C557 H586 0.982 . S
C557 H587 0.979 . S
C557 H588 0.977 . S
C558 C545 1.684 . S
C558 H583 0.979 . S
C558 H584 0.980 . S
C558 H585 0.983 . S
C559 C560 1.391 . S
C559 C564 1.391 . S
C559 H589 0.948 . S
C560 C559 1.391 . S
C560 C561 1.391 . S
C561 C560 1.391 . S
C561 C562 1.392 . S
C561 H590 0.947 . S
C562 C561 1.392 . S
C562 C563 1.419 . S
C562 H591 0.948 . S
C563 C562 1.419 . S
C563 C564 1.391 . S
C563 C567 1.397 . S
C564 C559 1.391 . S
C564 C563 1.391 . S
C564 C565 1.399 . S
C565 C564 1.399 . S
C565 C566 1.396 . S
C565 C568 1.453 . S
C565 C569 1.684 . S
C566 C547 1.723 . S
C566 C565 1.396 . S
C566 C567 1.394 . S
C567 C563 1.397 . S
C567 C566 1.394 . S
C567 C577 1.723 . S
C568 C565 1.453 . S
C568 H592 0.982 . S
C568 H593 0.979 . S
C568 H594 0.977 . S
C569 C565 1.684 . S
C569 H595 0.979 . S
C569 H596 0.980 . S
C569 H597 0.983 . S
C570 H546 0.948 . S
C570 C571 1.391 . S
C570 C575 1.391 . S
C571 C570 1.391 . S
C571 C572 1.391 . S
C572 H549 0.947 . S
C572 C571 1.391 . S
C572 C573 1.392 . S
C573 H550 0.948 . S
C573 C572 1.392 . S
C573 C574 1.419 . S
C574 C573 1.419 . S
C574 C575 1.391 . S
C574 C578 1.397 . S
C575 C570 1.391 . S
C575 C574 1.391 . S
C575 C576 1.399 . S
C576 C575 1.399 . S
C576 C577 1.396 . S
C576 C579 1.453 . S
C576 C580 1.684 . S
C577 C567 1.723 . S
C577 C576 1.396 . S
C577 C578 1.394 . S
C578 C548 1.723 . S
C578 C574 1.397 . S
C578 C577 1.394 . S
C579 H551 0.982 . S
C579 H555 0.979 . S
C579 H556 0.977 . S
C579 C576 1.453 . S
C580 H552 0.979 . S
C580 H553 0.980 . S
C580 H554 0.983 . S
C580 C576 1.684 . S
H581 C599 0.948 . S
H582 C540 0.948 . S
H583 C558 0.979 . S
H584 C558 0.980 . S
H585 C558 0.983 . S
H586 C557 0.982 . S
H587 C557 0.979 . S
H588 C557 0.977 . S
H589 C559 0.948 . S
H590 C561 0.947 . S
H591 C562 0.948 . S
H592 C568 0.982 . S
H593 C568 0.979 . S
H594 C568 0.977 . S
H595 C569 0.979 . S
H596 C569 0.980 . S
H597 C569 0.983 . S
H598 C542 0.947 . S
C599 C542 1.392 . S
C599 C543 1.419 . S
C599 H581 0.948 . S
C600 C601 1.391 . S
C600 C604 1.391 . S
C600 H642 0.948 . S
C601 C600 1.391 . S
C601 C602 1.391 . S
C602 C601 1.391 . S
C602 H658 0.947 . S
C602 C659 1.392 . S
C603 C604 1.391 . S
C603 C607 1.397 . S
C603 C659 1.419 . S
C604 C600 1.391 . S
C604 C603 1.391 . S
C604 C605 1.399 . S
C605 C604 1.399 . S
C605 C608 1.396 . S
C605 C617 1.453 . S
C605 C618 1.684 . S
H606 C630 0.948 . S
C607 C603 1.397 . S
C607 C608 1.394 . S
C607 C626 1.723 . S
C608 C605 1.396 . S
C608 C607 1.394 . S
C608 C638 1.723 . S
H609 C632 0.947 . S
H610 C633 0.948 . S
H611 C639 0.982 . S
H612 C640 0.979 . S
H613 C640 0.980 . S
H614 C640 0.983 . S
H615 C639 0.979 . S
H616 C639 0.977 . S
C617 C605 1.453 . S
C617 H646 0.982 . S
C617 H647 0.979 . S
C617 H648 0.977 . S
C618 C605 1.684 . S
C618 H643 0.979 . S
C618 H644 0.980 . S
C618 H645 0.983 . S
C619 C620 1.391 . S
C619 C624 1.391 . S
C619 H649 0.948 . S
C620 C619 1.391 . S
C620 C621 1.391 . S
C621 C620 1.391 . S
C621 C622 1.392 . S
C621 H650 0.947 . S
C622 C621 1.392 . S
C622 C623 1.419 . S
C622 H651 0.948 . S
C623 C622 1.419 . S
C623 C624 1.391 . S
C623 C627 1.397 . S
C624 C619 1.391 . S
C624 C623 1.391 . S
C624 C625 1.399 . S
C625 C624 1.399 . S
C625 C626 1.396 . S
C625 C628 1.453 . S
C625 C629 1.684 . S
C626 C607 1.723 . S
C626 C625 1.396 . S
C626 C627 1.394 . S
C627 C623 1.397 . S
C627 C626 1.394 . S
C627 C637 1.723 . S
C628 C625 1.453 . S
C628 H652 0.982 . S
C628 H653 0.979 . S
C628 H654 0.977 . S
C629 C625 1.684 . S
C629 H655 0.979 . S
C629 H656 0.980 . S
C629 H657 0.983 . S
C630 H606 0.948 . S
C630 C631 1.391 . S
C630 C635 1.391 . S
C631 C630 1.391 . S
C631 C632 1.391 . S
C632 H609 0.947 . S
C632 C631 1.391 . S
C632 C633 1.392 . S
C633 H610 0.948 . S
C633 C632 1.392 . S
C633 C634 1.419 . S
C634 C633 1.419 . S
C634 C635 1.391 . S
C634 C638 1.397 . S
C635 C630 1.391 . S
C635 C634 1.391 . S
C635 C636 1.399 . S
C636 C635 1.399 . S
C636 C637 1.396 . S
C636 C639 1.453 . S
C636 C640 1.684 . S
C637 C627 1.723 . S
C637 C636 1.396 . S
C637 C638 1.394 . S
C638 C608 1.723 . S
C638 C634 1.397 . S
C638 C637 1.394 . S
C639 H611 0.982 . S
C639 H615 0.979 . S
C639 H616 0.977 . S
C639 C636 1.453 . S
C640 H612 0.979 . S
C640 H613 0.980 . S
C640 H614 0.983 . S
C640 C636 1.684 . S
H641 C659 0.948 . S
H642 C600 0.948 . S
H643 C618 0.979 . S
H644 C618 0.980 . S
H645 C618 0.983 . S
H646 C617 0.982 . S
H647 C617 0.979 . S
H648 C617 0.977 . S
H649 C619 0.948 . S
H650 C621 0.947 . S
H651 C622 0.948 . S
H652 C628 0.982 . S
H653 C628 0.979 . S
H654 C628 0.977 . S
H655 C629 0.979 . S
H656 C629 0.980 . S
H657 C629 0.983 . S
H658 C602 0.947 . S
C659 C602 1.392 . S
C659 C603 1.419 . S
C659 H641 0.948 . S
C660 C661 1.391 . S
C660 C664 1.391 . S
C660 H702 0.948 . S
C661 C660 1.391 . S
C661 C662 1.391 . S
C662 C661 1.391 . S
C662 H718 0.947 . S
C662 C719 1.392 . S
C663 C664 1.391 . S
C663 C667 1.397 . S
C663 C719 1.419 . S
C664 C660 1.391 . S
C664 C663 1.391 . S
C664 C665 1.399 . S
C665 C664 1.399 . S
C665 C668 1.396 . S
C665 C677 1.453 . S
C665 C678 1.684 . S
H666 C690 0.948 . S
C667 C663 1.397 . S
C667 C668 1.394 . S
C667 C686 1.723 . S
C668 C665 1.396 . S
C668 C667 1.394 . S
C668 C698 1.723 . S
H669 C692 0.947 . S
H670 C693 0.948 . S
H671 C699 0.982 . S
H672 C700 0.979 . S
H673 C700 0.980 . S
H674 C700 0.983 . S
H675 C699 0.979 . S
H676 C699 0.977 . S
C677 C665 1.453 . S
C677 H706 0.982 . S
C677 H707 0.979 . S
C677 H708 0.977 . S
C678 C665 1.684 . S
C678 H703 0.979 . S
C678 H704 0.980 . S
C678 H705 0.983 . S
C679 C680 1.391 . S
C679 C684 1.391 . S
C679 H709 0.948 . S
C680 C679 1.391 . S
C680 C681 1.391 . S
C681 C680 1.391 . S
C681 C682 1.392 . S
C681 H710 0.947 . S
C682 C681 1.392 . S
C682 C683 1.419 . S
C682 H711 0.948 . S
C683 C682 1.419 . S
C683 C684 1.391 . S
C683 C687 1.397 . S
C684 C679 1.391 . S
C684 C683 1.391 . S
C684 C685 1.399 . S
C685 C684 1.399 . S
C685 C686 1.396 . S
C685 C688 1.453 . S
C685 C689 1.684 . S
C686 C667 1.723 . S
C686 C685 1.396 . S
C686 C687 1.394 . S
C687 C683 1.397 . S
C687 C686 1.394 . S
C687 C697 1.723 . S
C688 C685 1.453 . S
C688 H712 0.982 . S
C688 H713 0.979 . S
C688 H714 0.977 . S
C689 C685 1.684 . S
C689 H715 0.979 . S
C689 H716 0.980 . S
C689 H717 0.983 . S
C690 H666 0.948 . S
C690 C691 1.391 . S
C690 C695 1.391 . S
C691 C690 1.391 . S
C691 C692 1.391 . S
C692 H669 0.947 . S
C692 C691 1.391 . S
C692 C693 1.392 . S
C693 H670 0.948 . S
C693 C692 1.392 . S
C693 C694 1.419 . S
C694 C693 1.419 . S
C694 C695 1.391 . S
C694 C698 1.397 . S
C695 C690 1.391 . S
C695 C694 1.391 . S
C695 C696 1.399 . S
C696 C695 1.399 . S
C696 C697 1.396 . S
C696 C699 1.453 . S
C696 C700 1.684 . S
C697 C687 1.723 . S
C697 C696 1.396 . S
C697 C698 1.394 . S
C698 C668 1.723 . S
C698 C694 1.397 . S
C698 C697 1.394 . S
C699 H671 0.982 . S
C699 H675 0.979 . S
C699 H676 0.977 . S
C699 C696 1.453 . S
C700 H672 0.979 . S
C700 H673 0.980 . S
C700 H674 0.983 . S
C700 C696 1.684 . S
H701 C719 0.948 . S
H702 C660 0.948 . S
H703 C678 0.979 . S
H704 C678 0.980 . S
H705 C678 0.983 . S
H706 C677 0.982 . S
H707 C677 0.979 . S
H708 C677 0.977 . S
H709 C679 0.948 . S
H710 C681 0.947 . S
H711 C682 0.948 . S
H712 C688 0.982 . S
H713 C688 0.979 . S
H714 C688 0.977 . S
H715 C689 0.979 . S
H716 C689 0.980 . S
H717 C689 0.983 . S
H718 C662 0.947 . S
C719 C662 1.392 . S
C719 C663 1.419 . S
C719 H701 0.948 . S
C720 C721 1.391 . S
C720 C724 1.391 . S
C720 H762 0.948 . S
C721 C720 1.391 . S
C721 C722 1.391 . S
C722 C721 1.391 . S
C722 H778 0.947 . S
C722 C779 1.392 . S
C723 C724 1.391 . S
C723 C727 1.397 . S
C723 C779 1.419 . S
C724 C720 1.391 . S
C724 C723 1.391 . S
C724 C725 1.399 . S
C725 C724 1.399 . S
C725 C728 1.396 . S
C725 C737 1.453 . S
C725 C738 1.684 . S
H726 C750 0.948 . S
C727 C723 1.397 . S
C727 C728 1.394 . S
C727 C746 1.723 . S
C728 C725 1.396 . S
C728 C727 1.394 . S
C728 C758 1.723 . S
H729 C752 0.947 . S
H730 C753 0.948 . S
H731 C759 0.982 . S
H732 C760 0.979 . S
H733 C760 0.980 . S
H734 C760 0.983 . S
H735 C759 0.979 . S
H736 C759 0.977 . S
C737 C725 1.453 . S
C737 H766 0.982 . S
C737 H767 0.979 . S
C737 H768 0.977 . S
C738 C725 1.684 . S
C738 H763 0.979 . S
C738 H764 0.980 . S
C738 H765 0.983 . S
C739 C740 1.391 . S
C739 C744 1.391 . S
C739 H769 0.948 . S
C740 C739 1.391 . S
C740 C741 1.391 . S
C741 C740 1.391 . S
C741 C742 1.392 . S
C741 H770 0.947 . S
C742 C741 1.392 . S
C742 C743 1.419 . S
C742 H771 0.948 . S
C743 C742 1.419 . S
C743 C744 1.391 . S
C743 C747 1.397 . S
C744 C739 1.391 . S
C744 C743 1.391 . S
C744 C745 1.399 . S
C745 C744 1.399 . S
C745 C746 1.396 . S
C745 C748 1.453 . S
C745 C749 1.684 . S
C746 C727 1.723 . S
C746 C745 1.396 . S
C746 C747 1.394 . S
C747 C743 1.397 . S
C747 C746 1.394 . S
C747 C757 1.723 . S
C748 C745 1.453 . S
C748 H772 0.982 . S
C748 H773 0.979 . S
C748 H774 0.977 . S
C749 C745 1.684 . S
C749 H775 0.979 . S
C749 H776 0.980 . S
C749 H777 0.983 . S
C750 H726 0.948 . S
C750 C751 1.391 . S
C750 C755 1.391 . S
C751 C750 1.391 . S
C751 C752 1.391 . S
C752 H729 0.947 . S
C752 C751 1.391 . S
C752 C753 1.392 . S
C753 H730 0.948 . S
C753 C752 1.392 . S
C753 C754 1.419 . S
C754 C753 1.419 . S
C754 C755 1.391 . S
C754 C758 1.397 . S
C755 C750 1.391 . S
C755 C754 1.391 . S
C755 C756 1.399 . S
C756 C755 1.399 . S
C756 C757 1.396 . S
C756 C759 1.453 . S
C756 C760 1.684 . S
C757 C747 1.723 . S
C757 C756 1.396 . S
C757 C758 1.394 . S
C758 C728 1.723 . S
C758 C754 1.397 . S
C758 C757 1.394 . S
C759 H731 0.982 . S
C759 H735 0.979 . S
C759 H736 0.977 . S
C759 C756 1.453 . S
C760 H732 0.979 . S
C760 H733 0.980 . S
C760 H734 0.983 . S
C760 C756 1.684 . S
H761 C779 0.948 . S
H762 C720 0.948 . S
H763 C738 0.979 . S
H764 C738 0.980 . S
H765 C738 0.983 . S
H766 C737 0.982 . S
H767 C737 0.979 . S
H768 C737 0.977 . S
H769 C739 0.948 . S
H770 C741 0.947 . S
H771 C742 0.948 . S
H772 C748 0.982 . S
H773 C748 0.979 . S
H774 C748 0.977 . S
H775 C749 0.979 . S
H776 C749 0.980 . S
H777 C749 0.983 . S
H778 C722 0.947 . S
C779 C722 1.392 . S
C779 C723 1.419 . S
C779 H761 0.948 . S
C780 C781 1.391 . S
C780 C784 1.391 . S
C780 H822 0.948 . S
C781 C780 1.391 . S
C781 C782 1.391 . S
C782 C781 1.391 . S
C782 H838 0.947 . S
C782 C839 1.392 . S
C783 C784 1.391 . S
C783 C787 1.397 . S
C783 C839 1.419 . S
C784 C780 1.391 . S
C784 C783 1.391 . S
C784 C785 1.399 . S
C785 C784 1.399 . S
C785 C788 1.396 . S
C785 C797 1.453 . S
C785 C798 1.684 . S
H786 C810 0.948 . S
C787 C783 1.397 . S
C787 C788 1.394 . S
C787 C806 1.723 . S
C788 C785 1.396 . S
C788 C787 1.394 . S
C788 C818 1.723 . S
H789 C812 0.947 . S
H790 C813 0.948 . S
H791 C819 0.982 . S
H792 C820 0.979 . S
H793 C820 0.980 . S
H794 C820 0.983 . S
H795 C819 0.979 . S
H796 C819 0.977 . S
C797 C785 1.453 . S
C797 H826 0.982 . S
C797 H827 0.979 . S
C797 H828 0.977 . S
C798 C785 1.684 . S
C798 H823 0.979 . S
C798 H824 0.980 . S
C798 H825 0.983 . S
C799 C800 1.391 . S
C799 C804 1.391 . S
C799 H829 0.948 . S
C800 C799 1.391 . S
C800 C801 1.391 . S
C801 C800 1.391 . S
C801 C802 1.392 . S
C801 H830 0.947 . S
C802 C801 1.392 . S
C802 C803 1.419 . S
C802 H831 0.948 . S
C803 C802 1.419 . S
C803 C804 1.391 . S
C803 C807 1.397 . S
C804 C799 1.391 . S
C804 C803 1.391 . S
C804 C805 1.399 . S
C805 C804 1.399 . S
C805 C806 1.396 . S
C805 C808 1.453 . S
C805 C809 1.684 . S
C806 C787 1.723 . S
C806 C805 1.396 . S
C806 C807 1.394 . S
C807 C803 1.397 . S
C807 C806 1.394 . S
C807 C817 1.723 . S
C808 C805 1.453 . S
C808 H832 0.982 . S
C808 H833 0.979 . S
C808 H834 0.977 . S
C809 C805 1.684 . S
C809 H835 0.979 . S
C809 H836 0.980 . S
C809 H837 0.983 . S
C810 H786 0.948 . S
C810 C811 1.391 . S
C810 C815 1.391 . S
C811 C810 1.391 . S
C811 C812 1.391 . S
C812 H789 0.947 . S
C812 C811 1.391 . S
C812 C813 1.392 . S
C813 H790 0.948 . S
C813 C812 1.392 . S
C813 C814 1.419 . S
C814 C813 1.419 . S
C814 C815 1.391 . S
C814 C818 1.397 . S
C815 C810 1.391 . S
C815 C814 1.391 . S
C815 C816 1.399 . S
C816 C815 1.399 . S
C816 C817 1.396 . S
C816 C819 1.453 . S
C816 C820 1.684 . S
C817 C807 1.723 . S
C817 C816 1.396 . S
C817 C818 1.394 . S
C818 C788 1.723 . S
C818 C814 1.397 . S
C818 C817 1.394 . S
C819 H791 0.982 . S
C819 H795 0.979 . S
C819 H796 0.977 . S
C819 C816 1.453 . S
C820 H792 0.979 . S
C820 H793 0.980 . S
C820 H794 0.983 . S
C820 C816 1.684 . S
H821 C839 0.948 . S
H822 C780 0.948 . S
H823 C798 0.979 . S
H824 C798 0.980 . S
H825 C798 0.983 . S
H826 C797 0.982 . S
H827 C797 0.979 . S
H828 C797 0.977 . S
H829 C799 0.948 . S
H830 C801 0.947 . S
H831 C802 0.948 . S
H832 C808 0.982 . S
H833 C808 0.979 . S
H834 C808 0.977 . S
H835 C809 0.979 . S
H836 C809 0.980 . S
H837 C809 0.983 . S
H838 C782 0.947 . S
C839 C782 1.392 . S
C839 C783 1.419 . S
C839 H821 0.948 . S
C840 C841 1.391 . S
C840 C844 1.391 . S
C840 H882 0.948 . S
C841 C840 1.391 . S
C841 C842 1.391 . S
C842 C841 1.391 . S
C842 H898 0.947 . S
C842 C899 1.392 . S
C843 C844 1.391 . S
C843 C847 1.397 . S
C843 C899 1.419 . S
C844 C840 1.391 . S
C844 C843 1.391 . S
C844 C845 1.399 . S
C845 C844 1.399 . S
C845 C848 1.396 . S
C845 C857 1.453 . S
C845 C858 1.684 . S
H846 C870 0.948 . S
C847 C843 1.397 . S
C847 C848 1.394 . S
C847 C866 1.723 . S
C848 C845 1.396 . S
C848 C847 1.394 . S
C848 C878 1.723 . S
H849 C872 0.947 . S
H850 C873 0.948 . S
H851 C879 0.982 . S
H852 C880 0.979 . S
H853 C880 0.980 . S
H854 C880 0.983 . S
H855 C879 0.979 . S
H856 C879 0.977 . S
C857 C845 1.453 . S
C857 H886 0.982 . S
C857 H887 0.979 . S
C857 H888 0.977 . S
C858 C845 1.684 . S
C858 H883 0.979 . S
C858 H884 0.980 . S
C858 H885 0.983 . S
C859 C860 1.391 . S
C859 C864 1.391 . S
C859 H889 0.948 . S
C860 C859 1.391 . S
C860 C861 1.391 . S
C861 C860 1.391 . S
C861 C862 1.392 . S
C861 H890 0.947 . S
C862 C861 1.392 . S
C862 C863 1.419 . S
C862 H891 0.948 . S
C863 C862 1.419 . S
C863 C864 1.391 . S
C863 C867 1.397 . S
C864 C859 1.391 . S
C864 C863 1.391 . S
C864 C865 1.399 . S
C865 C864 1.399 . S
C865 C866 1.396 . S
C865 C868 1.453 . S
C865 C869 1.684 . S
C866 C847 1.723 . S
C866 C865 1.396 . S
C866 C867 1.394 . S
C867 C863 1.397 . S
C867 C866 1.394 . S
C867 C877 1.723 . S
C868 C865 1.453 . S
C868 H892 0.982 . S
C868 H893 0.979 . S
C868 H894 0.977 . S
C869 C865 1.684 . S
C869 H895 0.979 . S
C869 H896 0.980 . S
C869 H897 0.983 . S
C870 H846 0.948 . S
C870 C871 1.391 . S
C870 C875 1.391 . S
C871 C870 1.391 . S
C871 C872 1.391 . S
C872 H849 0.947 . S
C872 C871 1.391 . S
C872 C873 1.392 . S
C873 H850 0.948 . S
C873 C872 1.392 . S
C873 C874 1.419 . S
C874 C873 1.419 . S
C874 C875 1.391 . S
C874 C878 1.397 . S
C875 C870 1.391 . S
C875 C874 1.391 . S
C875 C876 1.399 . S
C876 C875 1.399 . S
C876 C877 1.396 . S
C876 C879 1.453 . S
C876 C880 1.684 . S
C877 C867 1.723 . S
C877 C876 1.396 . S
C877 C878 1.394 . S
C878 C848 1.723 . S
C878 C874 1.397 . S
C878 C877 1.394 . S
C879 H851 0.982 . S
C879 H855 0.979 . S
C879 H856 0.977 . S
C879 C876 1.453 . S
C880 H852 0.979 . S
C880 H853 0.980 . S
C880 H854 0.983 . S
C880 C876 1.684 . S
H881 C899 0.948 . S
H882 C840 0.948 . S
H883 C858 0.979 . S
H884 C858 0.980 . S
H885 C858 0.983 . S
H886 C857 0.982 . S
H887 C857 0.979 . S
H888 C857 0.977 . S
H889 C859 0.948 . S
H890 C861 0.947 . S
H891 C862 0.948 . S
H892 C868 0.982 . S
H893 C868 0.979 . S
H894 C868 0.977 . S
H895 C869 0.979 . S
H896 C869 0.980 . S
H897 C869 0.983 . S
H898 C842 0.947 . S
C899 C842 1.392 . S
C899 C843 1.419 . S
C899 H881 0.948 . S
C900 C901 1.391 . S
C900 C904 1.391 . S
C900 H942 0.948 . S
C901 C900 1.391 . S
C901 C902 1.391 . S
C902 C901 1.391 . S
C902 H958 0.947 . S
C902 C959 1.392 . S
C903 C904 1.391 . S
C903 C907 1.397 . S
C903 C959 1.419 . S
C904 C900 1.391 . S
C904 C903 1.391 . S
C904 C905 1.399 . S
C905 C904 1.399 . S
C905 C908 1.396 . S
C905 C917 1.453 . S
C905 C918 1.684 . S
H906 C930 0.948 . S
C907 C903 1.397 . S
C907 C908 1.394 . S
C907 C926 1.723 . S
C908 C905 1.396 . S
C908 C907 1.394 . S
C908 C938 1.723 . S
H909 C932 0.947 . S
H910 C933 0.948 . S
H911 C939 0.982 . S
H912 C940 0.979 . S
H913 C940 0.980 . S
H914 C940 0.983 . S
H915 C939 0.979 . S
H916 C939 0.977 . S
C917 C905 1.453 . S
C917 H946 0.982 . S
C917 H947 0.979 . S
C917 H948 0.977 . S
C918 C905 1.684 . S
C918 H943 0.979 . S
C918 H944 0.980 . S
C918 H945 0.983 . S
C919 C920 1.391 . S
C919 C924 1.391 . S
C919 H949 0.948 . S
C920 C919 1.391 . S
C920 C921 1.391 . S
C921 C920 1.391 . S
C921 C922 1.392 . S
C921 H950 0.947 . S
C922 C921 1.392 . S
C922 C923 1.419 . S
C922 H951 0.948 . S
C923 C922 1.419 . S
C923 C924 1.391 . S
C923 C927 1.397 . S
C924 C919 1.391 . S
C924 C923 1.391 . S
C924 C925 1.399 . S
C925 C924 1.399 . S
C925 C926 1.396 . S
C925 C928 1.453 . S
C925 C929 1.684 . S
C926 C907 1.723 . S
C926 C925 1.396 . S
C926 C927 1.394 . S
C927 C923 1.397 . S
C927 C926 1.394 . S
C927 C937 1.723 . S
C928 C925 1.453 . S
C928 H952 0.982 . S
C928 H953 0.979 . S
C928 H954 0.977 . S
C929 C925 1.684 . S
C929 H955 0.979 . S
C929 H956 0.980 . S
C929 H957 0.983 . S
C930 H906 0.948 . S
C930 C931 1.391 . S
C930 C935 1.391 . S
C931 C930 1.391 . S
C931 C932 1.391 . S
C932 H909 0.947 . S
C932 C931 1.391 . S
C932 C933 1.392 . S
C933 H910 0.948 . S
C933 C932 1.392 . S
C933 C934 1.419 . S
C934 C933 1.419 . S
C934 C935 1.391 . S
C934 C938 1.397 . S
C935 C930 1.391 . S
C935 C934 1.391 . S
C935 C936 1.399 . S
C936 C935 1.399 . S
C936 C937 1.396 . S
C936 C939 1.453 . S
C936 C940 1.684 . S
C937 C927 1.723 . S
C937 C936 1.396 . S
C937 C938 1.394 . S
C938 C908 1.723 . S
C938 C934 1.397 . S
C938 C937 1.394 . S
C939 H911 0.982 . S
C939 H915 0.979 . S
C939 H916 0.977 . S
C939 C936 1.453 . S
C940 H912 0.979 . S
C940 H913 0.980 . S
C940 H914 0.983 . S
C940 C936 1.684 . S
H941 C959 0.948 . S
H942 C900 0.948 . S
H943 C918 0.979 . S
H944 C918 0.980 . S
H945 C918 0.983 . S
H946 C917 0.982 . S
H947 C917 0.979 . S
H948 C917 0.977 . S
H949 C919 0.948 . S
H950 C921 0.947 . S
H951 C922 0.948 . S
H952 C928 0.982 . S
H953 C928 0.979 . S
H954 C928 0.977 . S
H955 C929 0.979 . S
H956 C929 0.980 . S
H957 C929 0.983 . S
H958 C902 0.947 . S
C959 C902 1.392 . S
C959 C903 1.419 . S
C959 H941 0.948 . S
C960 C961 1.391 . S
C960 C964 1.391 . S
C960 H1002 0.948 . S
C961 C960 1.391 . S
C961 C962 1.391 . S
C962 C961 1.391 . S
C962 H1018 0.947 . S
C962 C1019 1.392 . S
C963 C964 1.391 . S
C963 C967 1.397 . S
C963 C1019 1.419 . S
C964 C960 1.391 . S
C964 C963 1.391 . S
C964 C965 1.399 . S
C965 C964 1.399 . S
C965 C968 1.396 . S
C965 C977 1.453 . S
C965 C978 1.684 . S
H966 C990 0.948 . S
C967 C963 1.397 . S
C967 C968 1.394 . S
C967 C986 1.723 . S
C968 C965 1.396 . S
C968 C967 1.394 . S
C968 C998 1.723 . S
H969 C992 0.947 . S
H970 C993 0.948 . S
H971 C999 0.982 . S
H972 C1000 0.979 1_655 S
H973 C1000 0.980 . S
H974 C1000 0.983 . S
H975 C999 0.979 . S
H976 C999 0.977 . S
C977 C965 1.453 . S
C977 H1006 0.982 . S
C977 H1007 0.979 . S
C977 H1008 0.977 . S
C978 C965 1.684 . S
C978 H1003 0.979 . S
C978 H1004 0.980 . S
C978 H1005 0.983 . S
C979 C980 1.391 . S
C979 C984 1.391 . S
C979 H1009 0.948 . S
C980 C979 1.391 . S
C980 C981 1.391 . S
C981 C980 1.391 . S
C981 C982 1.392 . S
C981 H1010 0.947 . S
C982 C981 1.392 . S
C982 C983 1.419 . S
C982 H1011 0.948 . S
C983 C982 1.419 . S
C983 C984 1.391 . S
C983 C987 1.397 . S
C984 C979 1.391 . S
C984 C983 1.391 . S
C984 C985 1.399 . S
C985 C984 1.399 . S
C985 C986 1.396 . S
C985 C988 1.453 . S
C985 C989 1.684 . S
C986 C967 1.723 . S
C986 C985 1.396 . S
C986 C987 1.394 . S
C987 C983 1.397 . S
C987 C986 1.394 . S
C987 C997 1.723 . S
C988 C985 1.453 . S
C988 H1012 0.982 . S
C988 H1013 0.979 . S
C988 H1014 0.977 . S
C989 C985 1.684 . S
C989 H1015 0.979 1_455 S
C989 H1016 0.980 . S
C989 H1017 0.983 . S
C990 H966 0.948 . S
C990 C991 1.391 . S
C990 C995 1.391 . S
C991 C990 1.391 . S
C991 C992 1.391 . S
C992 H969 0.947 . S
C992 C991 1.391 . S
C992 C993 1.392 . S
C993 H970 0.948 . S
C993 C992 1.392 . S
C993 C994 1.419 . S
C994 C993 1.419 . S
C994 C995 1.391 . S
C994 C998 1.397 . S
C995 C990 1.391 . S
C995 C994 1.391 . S
C995 C996 1.399 . S
C996 C995 1.399 . S
C996 C997 1.396 . S
C996 C999 1.453 . S
C996 C1000 1.684 . S
C997 C987 1.723 . S
C997 C996 1.396 . S
C997 C998 1.394 . S
C998 C968 1.723 . S
C998 C994 1.397 . S
C998 C997 1.394 . S
C999 H971 0.982 . S
C999 H975 0.979 . S
C999 H976 0.977 . S
C999 C996 1.453 . S
C1000 H972 0.979 1_455 S
C1000 H973 0.980 . S
C1000 H974 0.983 . S
C1000 C996 1.684 . S
H1001 C1019 0.948 . S
H1002 C960 0.948 . S
H1003 C978 0.979 . S
H1004 C978 0.980 . S
H1005 C978 0.983 . S
H1006 C977 0.982 . S
H1007 C977 0.979 . S
H1008 C977 0.977 . S
H1009 C979 0.948 . S
H1010 C981 0.947 . S
H1011 C982 0.948 . S
H1012 C988 0.982 . S
H1013 C988 0.979 . S
H1014 C988 0.977 . S
H1015 C989 0.979 1_655 S
H1016 C989 0.980 . S
H1017 C989 0.983 . S
H1018 C962 0.947 . S
C1019 C962 1.392 . S
C1019 C963 1.419 . S
C1019 H1001 0.948 . S
C1020 C1021 1.391 . S
C1020 C1024 1.391 . S
C1020 H1062 0.948 . S
C1021 C1020 1.391 . S
C1021 C1022 1.391 . S
C1022 C1021 1.391 . S
C1022 H1078 0.947 . S
C1022 C1079 1.392 . S
C1023 C1024 1.391 . S
C1023 C1027 1.397 . S
C1023 C1079 1.419 . S
C1024 C1020 1.391 . S
C1024 C1023 1.391 . S
C1024 C1025 1.399 . S
C1025 C1024 1.399 . S
C1025 C1028 1.396 . S
C1025 C1037 1.453 . S
C1025 C1038 1.684 . S
H1026 C1050 0.948 . S
C1027 C1023 1.397 . S
C1027 C1028 1.394 . S
C1027 C1046 1.723 . S
C1028 C1025 1.396 . S
C1028 C1027 1.394 . S
C1028 C1058 1.723 . S
H1029 C1052 0.947 . S
H1030 C1053 0.948 . S
H1031 C1059 0.982 . S
H1032 C1060 0.979 . S
H1033 C1060 0.980 . S
H1034 C1060 0.983 . S
H1035 C1059 0.979 . S
H1036 C1059 0.977 . S
C1037 C1025 1.453 . S
C1037 H1066 0.982 . S
C1037 H1067 0.979 . S
C1037 H1068 0.977 . S
C1038 C1025 1.684 . S
C1038 H1063 0.979 . S
C1038 H1064 0.980 . S
C1038 H1065 0.983 . S
C1039 C1040 1.391 . S
C1039 C1044 1.391 . S
C1039 H1069 0.948 . S
C1040 C1039 1.391 . S
C1040 C1041 1.391 . S
C1041 C1040 1.391 . S
C1041 C1042 1.392 . S
C1041 H1070 0.947 . S
C1042 C1041 1.392 . S
C1042 C1043 1.419 . S
C1042 H1071 0.948 . S
C1043 C1042 1.419 . S
C1043 C1044 1.391 . S
C1043 C1047 1.397 . S
C1044 C1039 1.391 . S
C1044 C1043 1.391 . S
C1044 C1045 1.399 . S
C1045 C1044 1.399 . S
C1045 C1046 1.396 . S
C1045 C1048 1.453 . S
C1045 C1049 1.684 . S
C1046 C1027 1.723 . S
C1046 C1045 1.396 . S
C1046 C1047 1.394 . S
C1047 C1043 1.397 . S
C1047 C1046 1.394 . S
C1047 C1057 1.723 . S
C1048 C1045 1.453 . S
C1048 H1072 0.982 . S
C1048 H1073 0.979 . S
C1048 H1074 0.977 . S
C1049 C1045 1.684 . S
C1049 H1075 0.979 . S
C1049 H1076 0.980 . S
C1049 H1077 0.983 . S
C1050 H1026 0.948 . S
C1050 C1051 1.391 . S
C1050 C1055 1.391 . S
C1051 C1050 1.391 . S
C1051 C1052 1.391 . S
C1052 H1029 0.947 . S
C1052 C1051 1.391 . S
C1052 C1053 1.392 . S
C1053 H1030 0.948 . S
C1053 C1052 1.392 . S
C1053 C1054 1.419 . S
C1054 C1053 1.419 . S
C1054 C1055 1.391 . S
C1054 C1058 1.397 . S
C1055 C1050 1.391 . S
C1055 C1054 1.391 . S
C1055 C1056 1.399 . S
C1056 C1055 1.399 . S
C1056 C1057 1.396 . S
C1056 C1059 1.453 . S
C1056 C1060 1.684 . S
C1057 C1047 1.723 . S
C1057 C1056 1.396 . S
C1057 C1058 1.394 . S
C1058 C1028 1.723 . S
C1058 C1054 1.397 . S
C1058 C1057 1.394 . S
C1059 H1031 0.982 . S
C1059 H1035 0.979 . S
C1059 H1036 0.977 . S
C1059 C1056 1.453 . S
C1060 H1032 0.979 . S
C1060 H1033 0.980 . S
C1060 H1034 0.983 . S
C1060 C1056 1.684 . S
H1061 C1079 0.948 . S
H1062 C1020 0.948 . S
H1063 C1038 0.979 . S
H1064 C1038 0.980 . S
H1065 C1038 0.983 . S
H1066 C1037 0.982 . S
H1067 C1037 0.979 . S
H1068 C1037 0.977 . S
H1069 C1039 0.948 . S
H1070 C1041 0.947 . S
H1071 C1042 0.948 . S
H1072 C1048 0.982 . S
H1073 C1048 0.979 . S
H1074 C1048 0.977 . S
H1075 C1049 0.979 . S
H1076 C1049 0.980 . S
H1077 C1049 0.983 . S
H1078 C1022 0.947 . S
C1079 C1022 1.392 . S
C1079 C1023 1.419 . S
C1079 H1061 0.948 . S
C1080 Eu1081 2.835 . S
C1080 C1082 1.500 . S
C1080 O1100 1.257 1_545 S
C1080 O1101 1.260 . S
Eu1081 C1080 2.835 . S
Eu1081 O1100 2.473 1_545 S
Eu1081 O1101 2.480 . S
Eu1081 O1102 2.430 . S
Eu1081 O1103 2.670 1_554 S
Eu1081 O1104 2.394 1_545 S
Eu1081 O1109 2.355 1_545 S
Eu1081 O1111 2.374 . S
C1082 C1080 1.500 . S
C1082 C1083 1.377 . S
C1082 C1087 1.377 1_545 S
C1083 C1082 1.377 . S
C1083 C1084 1.395 . S
C1083 H1112 0.931 . S
C1084 C1083 1.395 . S
C1084 C1085 1.383 1_545 S
C1084 H1113 0.931 . S
C1085 C1084 1.383 1_565 S
C1085 C1086 1.394 . S
C1086 C1085 1.394 . S
C1086 C1087 1.378 . S
C1086 H1114 0.931 . S
C1087 C1082 1.377 1_565 S
C1087 C1086 1.378 . S
C1087 H1115 0.931 . S
C1088 O1102 1.259 1_556 S
C1088 O1103 1.270 . S
C1089 O1104 1.251 . S
C1089 O1105 1.251 1_554 S
C1090 Eu1091 2.835 . S
C1090 C1092 1.500 . S
C1090 O1106 1.257 1_565 S
C1090 O1107 1.260 . S
Eu1091 C1090 2.835 . S
Eu1091 O1103 2.355 1_565 S
Eu1091 O1105 2.374 . S
Eu1091 O1106 2.473 1_565 S
Eu1091 O1107 2.480 . S
Eu1091 O1108 2.430 . S
Eu1091 O1109 2.670 1_556 S
Eu1091 O1110 2.394 1_565 S
C1092 C1090 1.500 . S
C1092 C1093 1.377 . S
C1092 C1097 1.377 1_565 S
C1093 C1092 1.377 . S
C1093 C1094 1.395 . S
C1093 H1116 0.931 . S
C1094 C1093 1.395 . S
C1094 C1095 1.383 1_565 S
C1094 H1117 0.931 . S
C1095 C1094 1.383 1_545 S
C1095 C1096 1.394 . S
C1096 C1095 1.394 . S
C1096 C1097 1.378 . S
C1096 H1118 0.931 . S
C1097 C1092 1.377 1_545 S
C1097 C1096 1.378 . S
C1097 H1119 0.931 . S
C1098 O1108 1.259 1_554 S
C1098 O1109 1.270 . S
C1099 O1110 1.251 . S
C1099 O1111 1.251 1_556 S
O1100 C1080 1.257 1_565 S
O1100 Eu1081 2.473 1_565 S
O1101 C1080 1.260 . S
O1101 Eu1081 2.480 . S
O1102 Eu1081 2.430 . S
O1102 C1088 1.259 1_554 S
O1103 Eu1081 2.670 1_556 S
O1103 C1088 1.270 . S
O1103 Eu1091 2.355 1_545 S
O1104 Eu1081 2.394 1_565 S
O1104 C1089 1.251 . S
O1105 C1089 1.251 1_556 S
O1105 Eu1091 2.374 . S
O1106 C1090 1.257 1_545 S
O1106 Eu1091 2.473 1_545 S
O1107 C1090 1.260 . S
O1107 Eu1091 2.480 . S
O1108 Eu1091 2.430 . S
O1108 C1098 1.259 1_556 S
O1109 Eu1081 2.355 1_565 S
O1109 Eu1091 2.670 1_554 S
O1109 C1098 1.270 . S
O1110 Eu1091 2.394 1_545 S
O1110 C1099 1.251 . S
O1111 Eu1081 2.374 . S
O1111 C1099 1.251 1_554 S
H1112 C1083 0.931 . S
H1113 C1084 0.931 . S
H1114 C1086 0.931 . S
H1115 C1087 0.931 . S
H1116 C1093 0.931 . S
H1117 C1094 0.931 . S
H1118 C1096 0.931 . S
H1119 C1097 0.931 . S
C1120 Eu1121 2.835 . S
C1120 C1122 1.500 1_655 S
C1120 O1140 1.257 1_655 S
C1120 O1141 1.260 . S
Eu1121 C1120 2.835 . S
Eu1121 O1140 2.473 1_655 S
Eu1121 O1141 2.480 . S
Eu1121 O1142 2.430 . S
Eu1121 O1143 2.670 1_554 S
Eu1121 O1144 2.394 1_655 S
Eu1121 O1149 2.355 1_655 S
Eu1121 O1151 2.395 . S
C1122 C1120 1.500 1_455 S
C1122 C1123 1.377 1_455 S
C1122 C1127 1.377 . S
C1123 C1122 1.377 1_655 S
C1123 C1124 1.395 . S
C1123 H1152 0.931 . S
C1124 C1123 1.395 . S
C1124 C1125 1.383 1_655 S
C1124 H1153 0.931 . S
C1125 C1124 1.383 1_455 S
C1125 C1126 1.394 . S
C1126 C1125 1.394 . S
C1126 C1127 1.378 . S
C1126 H1154 0.931 . S
C1127 C1122 1.377 . S
C1127 C1126 1.378 . S
C1127 H1155 0.931 . S
C1128 O1142 1.259 1_556 S
C1128 O1143 1.270 . S
C1129 O1144 1.251 . S
C1129 O1145 1.285 . S
C1130 Eu1131 2.835 . S
C1130 C1132 1.500 1_455 S
C1130 O1146 1.257 1_455 S
C1130 O1147 1.260 . S
Eu1131 C1130 2.835 . S
Eu1131 O1143 2.355 1_455 S
Eu1131 O1145 2.350 1_556 S
Eu1131 O1146 2.473 1_455 S
Eu1131 O1147 2.480 . S
Eu1131 O1148 2.430 . S
Eu1131 O1149 2.670 1_556 S
Eu1131 O1150 2.394 1_455 S
C1132 C1130 1.500 1_655 S
C1132 C1133 1.377 1_655 S
C1132 C1137 1.377 . S
C1133 C1132 1.377 1_455 S
C1133 C1134 1.395 . S
C1133 H1156 0.931 . S
C1134 C1133 1.395 . S
C1134 C1135 1.383 1_455 S
C1134 H1157 0.931 . S
C1135 C1134 1.383 1_655 S
C1135 C1136 1.394 . S
C1136 C1135 1.394 . S
C1136 C1137 1.378 . S
C1136 H1158 0.931 . S
C1137 C1132 1.377 . S
C1137 C1136 1.378 . S
C1137 H1159 0.931 . S
C1138 O1148 1.259 1_554 S
C1138 O1149 1.270 . S
C1139 O1150 1.251 . S
C1139 O1151 1.222 1_556 S
O1140 C1120 1.257 1_455 S
O1140 Eu1121 2.473 1_455 S
O1141 C1120 1.260 . S
O1141 Eu1121 2.480 . S
O1142 Eu1121 2.430 . S
O1142 C1128 1.259 1_554 S
O1143 Eu1121 2.670 1_556 S
O1143 C1128 1.270 . S
O1143 Eu1131 2.355 1_655 S
O1144 Eu1121 2.394 1_455 S
O1144 C1129 1.251 . S
O1145 C1129 1.285 . S
O1145 Eu1131 2.350 1_554 S
O1146 C1130 1.257 1_655 S
O1146 Eu1131 2.473 1_655 S
O1147 C1130 1.260 . S
O1147 Eu1131 2.480 . S
O1148 Eu1131 2.430 . S
O1148 C1138 1.259 1_556 S
O1149 Eu1121 2.355 1_455 S
O1149 Eu1131 2.670 1_554 S
O1149 C1138 1.270 . S
O1150 Eu1131 2.394 1_655 S
O1150 C1139 1.251 . S
O1151 Eu1121 2.395 . S
O1151 C1139 1.222 1_554 S
H1152 C1123 0.931 . S
H1153 C1124 0.931 . S
H1154 C1126 0.931 . S
H1155 C1127 0.931 . S
H1156 C1133 0.931 . S
H1157 C1134 0.931 . S
H1158 C1136 0.931 . S
H1159 C1137 0.931 . S
C1160 Eu1161 2.835 . S
C1160 C1162 1.500 . S
C1160 O1180 1.257 . S
C1160 O1181 1.260 . S
Eu1161 C1160 2.835 . S
Eu1161 O1180 2.473 . S
Eu1161 O1181 2.480 . S
Eu1161 O1182 2.430 . S
Eu1161 O1183 2.670 1_556 S
Eu1161 O1184 2.394 . S
Eu1161 O1189 2.355 . S
Eu1161 O1191 2.374 . S
C1162 C1160 1.500 . S
C1162 C1163 1.377 . S
C1162 C1167 1.377 . S
C1163 C1162 1.377 . S
C1163 C1164 1.395 . S
C1163 H1192 0.931 . S
C1164 C1163 1.395 . S
C1164 C1165 1.383 . S
C1164 H1193 0.931 . S
C1165 C1164 1.383 . S
C1165 C1166 1.394 . S
C1166 C1165 1.394 . S
C1166 C1167 1.378 . S
C1166 H1194 0.931 . S
C1167 C1162 1.377 . S
C1167 C1166 1.378 . S
C1167 H1195 0.931 . S
C1168 O1182 1.259 1_554 S
C1168 O1183 1.270 . S
C1169 O1184 1.251 . S
C1169 O1185 1.251 1_556 S
C1170 Eu1171 2.835 . S
C1170 C1172 1.500 . S
C1170 O1186 1.257 . S
C1170 O1187 1.260 . S
Eu1171 C1170 2.835 . S
Eu1171 O1183 2.355 . S
Eu1171 O1185 2.374 . S
Eu1171 O1186 2.473 . S
Eu1171 O1187 2.480 . S
Eu1171 O1188 2.430 . S
Eu1171 O1189 2.670 1_554 S
Eu1171 O1190 2.394 . S
C1172 C1170 1.500 . S
C1172 C1173 1.377 . S
C1172 C1177 1.377 . S
C1173 C1172 1.377 . S
C1173 C1174 1.395 . S
C1173 H1196 0.931 . S
C1174 C1173 1.395 . S
C1174 C1175 1.383 . S
C1174 H1197 0.931 . S
C1175 C1174 1.383 . S
C1175 C1176 1.394 . S
C1176 C1175 1.394 . S
C1176 C1177 1.378 . S
C1176 H1198 0.931 . S
C1177 C1172 1.377 . S
C1177 C1176 1.378 . S
C1177 H1199 0.931 . S
C1178 O1188 1.259 1_556 S
C1178 O1189 1.270 . S
C1179 O1190 1.251 . S
C1179 O1191 1.251 1_554 S
O1180 C1160 1.257 . S
O1180 Eu1161 2.473 . S
O1181 C1160 1.260 . S
O1181 Eu1161 2.480 . S
O1182 Eu1161 2.430 . S
O1182 C1168 1.259 1_556 S
O1183 Eu1161 2.670 1_554 S
O1183 C1168 1.270 . S
O1183 Eu1171 2.355 . S
O1184 Eu1161 2.394 . S
O1184 C1169 1.251 . S
O1185 C1169 1.251 1_554 S
O1185 Eu1171 2.374 . S
O1186 C1170 1.257 . S
O1186 Eu1171 2.473 . S
O1187 C1170 1.260 . S
O1187 Eu1171 2.480 . S
O1188 Eu1171 2.430 . S
O1188 C1178 1.259 1_554 S
O1189 Eu1161 2.355 . S
O1189 Eu1171 2.670 1_556 S
O1189 C1178 1.270 . S
O1190 Eu1171 2.394 . S
O1190 C1179 1.251 . S
O1191 Eu1161 2.374 . S
O1191 C1179 1.251 1_556 S
H1192 C1163 0.931 . S
H1193 C1164 0.931 . S
H1194 C1166 0.931 . S
H1195 C1167 0.931 . S
H1196 C1173 0.931 . S
H1197 C1174 0.931 . S
H1198 C1176 0.931 . S
H1199 C1177 0.931 . S
C1200 Eu1201 2.835 . S
C1200 C1202 1.500 . S
C1200 O1220 1.257 . S
C1200 O1221 1.260 . S
Eu1201 C1200 2.835 . S
Eu1201 O1220 2.473 . S
Eu1201 O1221 2.480 . S
Eu1201 O1222 2.430 . S
Eu1201 O1223 2.670 . S
Eu1201 O1224 2.394 . S
Eu1201 O1229 2.355 . S
Eu1201 O1231 2.374 . S
C1202 C1200 1.500 . S
C1202 C1203 1.377 . S
C1202 C1207 1.377 . S
C1203 C1202 1.377 . S
C1203 C1204 1.395 . S
C1203 H1232 0.931 . S
C1204 C1203 1.395 . S
C1204 C1205 1.383 . S
C1204 H1233 0.931 . S
C1205 C1204 1.383 . S
C1205 C1206 1.394 . S
C1206 C1205 1.394 . S
C1206 C1207 1.378 . S
C1206 H1234 0.931 . S
C1207 C1202 1.377 . S
C1207 C1206 1.378 . S
C1207 H1235 0.931 . S
C1208 O1222 1.259 . S
C1208 O1223 1.270 . S
C1209 O1224 1.251 . S
C1209 O1225 1.251 . S
C1210 Eu1211 2.835 . S
C1210 C1212 1.500 . S
C1210 O1226 1.257 . S
C1210 O1227 1.260 . S
Eu1211 C1210 2.835 . S
Eu1211 O1223 2.355 . S
Eu1211 O1225 2.374 . S
Eu1211 O1226 2.473 . S
Eu1211 O1227 2.480 . S
Eu1211 O1228 2.430 . S
Eu1211 O1229 2.670 . S
Eu1211 O1230 2.394 . S
C1212 C1210 1.500 . S
C1212 C1213 1.377 . S
C1212 C1217 1.377 . S
C1213 C1212 1.377 . S
C1213 C1214 1.395 . S
C1213 H1236 0.931 . S
C1214 C1213 1.395 . S
C1214 C1215 1.383 . S
C1214 H1237 0.931 . S
C1215 C1214 1.383 . S
C1215 C1216 1.394 . S
C1216 C1215 1.394 . S
C1216 C1217 1.378 . S
C1216 H1238 0.931 . S
C1217 C1212 1.377 . S
C1217 C1216 1.378 . S
C1217 H1239 0.931 . S
C1218 O1228 1.259 . S
C1218 O1229 1.270 . S
C1219 O1230 1.251 . S
C1219 O1231 1.251 . S
O1220 C1200 1.257 . S
O1220 Eu1201 2.473 . S
O1221 C1200 1.260 . S
O1221 Eu1201 2.480 . S
O1222 Eu1201 2.430 . S
O1222 C1208 1.259 . S
O1223 Eu1201 2.670 . S
O1223 C1208 1.270 . S
O1223 Eu1211 2.355 . S
O1224 Eu1201 2.394 . S
O1224 C1209 1.251 . S
O1225 C1209 1.251 . S
O1225 Eu1211 2.374 . S
O1226 C1210 1.257 . S
O1226 Eu1211 2.473 . S
O1227 C1210 1.260 . S
O1227 Eu1211 2.480 . S
O1228 Eu1211 2.430 . S
O1228 C1218 1.259 . S
O1229 Eu1201 2.355 . S
O1229 Eu1211 2.670 . S
O1229 C1218 1.270 . S
O1230 Eu1211 2.394 . S
O1230 C1219 1.251 . S
O1231 Eu1201 2.374 . S
O1231 C1219 1.251 . S
H1232 C1203 0.931 . S
H1233 C1204 0.931 . S
H1234 C1206 0.931 . S
H1235 C1207 0.931 . S
H1236 C1213 0.931 . S
H1237 C1214 0.931 . S
H1238 C1216 0.931 . S
H1239 C1217 0.931 . S
C1240 Eu1241 2.835 . S
C1240 C1242 1.500 . S
C1240 O1260 1.257 . S
C1240 O1261 1.260 . S
Eu1241 C1240 2.835 . S
Eu1241 O1260 2.473 . S
Eu1241 O1261 2.480 . S
Eu1241 O1262 2.430 . S
Eu1241 O1263 2.670 . S
Eu1241 O1264 2.394 . S
Eu1241 O1269 2.355 . S
Eu1241 O1271 2.374 . S
C1242 C1240 1.500 . S
C1242 C1243 1.377 . S
C1242 C1247 1.377 . S
C1243 C1242 1.377 . S
C1243 C1244 1.395 . S
C1243 H1272 0.931 . S
C1244 C1243 1.395 . S
C1244 C1245 1.383 . S
C1244 H1273 0.931 . S
C1245 C1244 1.383 . S
C1245 C1246 1.394 . S
C1246 C1245 1.394 . S
C1246 C1247 1.378 . S
C1246 H1274 0.931 . S
C1247 C1242 1.377 . S
C1247 C1246 1.378 . S
C1247 H1275 0.931 . S
C1248 O1262 1.259 . S
C1248 O1263 1.270 . S
C1249 O1264 1.251 . S
C1249 O1265 1.251 . S
C1250 Eu1251 2.835 . S
C1250 C1252 1.500 . S
C1250 O1266 1.257 . S
C1250 O1267 1.260 . S
Eu1251 C1250 2.835 . S
Eu1251 O1263 2.355 . S
Eu1251 O1265 2.374 . S
Eu1251 O1266 2.473 . S
Eu1251 O1267 2.480 . S
Eu1251 O1268 2.430 . S
Eu1251 O1269 2.670 . S
Eu1251 O1270 2.394 . S
C1252 C1250 1.500 . S
C1252 C1253 1.377 . S
C1252 C1257 1.377 . S
C1253 C1252 1.377 . S
C1253 C1254 1.395 . S
C1253 H1276 0.931 . S
C1254 C1253 1.395 . S
C1254 C1255 1.383 . S
C1254 H1277 0.931 . S
C1255 C1254 1.383 . S
C1255 C1256 1.394 . S
C1256 C1255 1.394 . S
C1256 C1257 1.378 . S
C1256 H1278 0.931 . S
C1257 C1252 1.377 . S
C1257 C1256 1.378 . S
C1257 H1279 0.931 . S
C1258 O1268 1.259 . S
C1258 O1269 1.270 . S
C1259 O1270 1.251 . S
C1259 O1271 1.251 . S
O1260 C1240 1.257 . S
O1260 Eu1241 2.473 . S
O1261 C1240 1.260 . S
O1261 Eu1241 2.480 . S
O1262 Eu1241 2.430 . S
O1262 C1248 1.259 . S
O1263 Eu1241 2.670 . S
O1263 C1248 1.270 . S
O1263 Eu1251 2.355 . S
O1264 Eu1241 2.394 . S
O1264 C1249 1.251 . S
O1265 C1249 1.251 . S
O1265 Eu1251 2.374 . S
O1266 C1250 1.257 . S
O1266 Eu1251 2.473 . S
O1267 C1250 1.260 . S
O1267 Eu1251 2.480 . S
O1268 Eu1251 2.430 . S
O1268 C1258 1.259 . S
O1269 Eu1241 2.355 . S
O1269 Eu1251 2.670 . S
O1269 C1258 1.270 . S
O1270 Eu1251 2.394 . S
O1270 C1259 1.251 . S
O1271 Eu1241 2.374 . S
O1271 C1259 1.251 . S
H1272 C1243 0.931 . S
H1273 C1244 0.931 . S
H1274 C1246 0.931 . S
H1275 C1247 0.931 . S
H1276 C1253 0.931 . S
H1277 C1254 0.931 . S
H1278 C1256 0.931 . S
H1279 C1257 0.931 . S
C1280 Eu1281 2.835 . S
C1280 C1282 1.500 . S
C1280 O1300 1.257 . S
C1280 O1301 1.260 . S
Eu1281 C1280 2.835 . S
Eu1281 O1300 2.473 . S
Eu1281 O1301 2.480 . S
Eu1281 O1302 2.430 . S
Eu1281 O1303 2.670 . S
Eu1281 O1304 2.394 . S
Eu1281 O1309 2.355 . S
Eu1281 O1311 2.374 . S
C1282 C1280 1.500 . S
C1282 C1283 1.377 . S
C1282 C1287 1.377 . S
C1283 C1282 1.377 . S
C1283 C1284 1.395 . S
C1283 H1312 0.931 . S
C1284 C1283 1.395 . S
C1284 C1285 1.383 . S
C1284 H1313 0.931 . S
C1285 C1284 1.383 . S
C1285 C1286 1.394 . S
C1286 C1285 1.394 . S
C1286 C1287 1.378 . S
C1286 H1314 0.931 . S
C1287 C1282 1.377 . S
C1287 C1286 1.378 . S
C1287 H1315 0.931 . S
C1288 O1302 1.259 . S
C1288 O1303 1.270 . S
C1289 O1304 1.251 . S
C1289 O1305 1.251 . S
C1290 Eu1291 2.835 . S
C1290 C1292 1.500 . S
C1290 O1306 1.257 . S
C1290 O1307 1.260 . S
Eu1291 C1290 2.835 . S
Eu1291 O1303 2.355 . S
Eu1291 O1305 2.374 . S
Eu1291 O1306 2.473 . S
Eu1291 O1307 2.480 . S
Eu1291 O1308 2.430 . S
Eu1291 O1309 2.670 . S
Eu1291 O1310 2.394 . S
C1292 C1290 1.500 . S
C1292 C1293 1.377 . S
C1292 C1297 1.377 . S
C1293 C1292 1.377 . S
C1293 C1294 1.395 . S
C1293 H1316 0.931 . S
C1294 C1293 1.395 . S
C1294 C1295 1.383 . S
C1294 H1317 0.931 . S
C1295 C1294 1.383 . S
C1295 C1296 1.394 . S
C1296 C1295 1.394 . S
C1296 C1297 1.378 . S
C1296 H1318 0.931 . S
C1297 C1292 1.377 . S
C1297 C1296 1.378 . S
C1297 H1319 0.931 . S
C1298 O1308 1.259 . S
C1298 O1309 1.270 . S
C1299 O1310 1.251 . S
C1299 O1311 1.251 . S
O1300 C1280 1.257 . S
O1300 Eu1281 2.473 . S
O1301 C1280 1.260 . S
O1301 Eu1281 2.480 . S
O1302 Eu1281 2.430 . S
O1302 C1288 1.259 . S
O1303 Eu1281 2.670 . S
O1303 C1288 1.270 . S
O1303 Eu1291 2.355 . S
O1304 Eu1281 2.394 . S
O1304 C1289 1.251 . S
O1305 C1289 1.251 . S
O1305 Eu1291 2.374 . S
O1306 C1290 1.257 . S
O1306 Eu1291 2.473 . S
O1307 C1290 1.260 . S
O1307 Eu1291 2.480 . S
O1308 Eu1291 2.430 . S
O1308 C1298 1.259 . S
O1309 Eu1281 2.355 . S
O1309 Eu1291 2.670 . S
O1309 C1298 1.270 . S
O1310 Eu1291 2.394 . S
O1310 C1299 1.251 . S
O1311 Eu1281 2.374 . S
O1311 C1299 1.251 . S
H1312 C1283 0.931 . S
H1313 C1284 0.931 . S
H1314 C1286 0.931 . S
H1315 C1287 0.931 . S
H1316 C1293 0.931 . S
H1317 C1294 0.931 . S
H1318 C1296 0.931 . S
H1319 C1297 0.931 . S
C1320 Eu1321 2.835 . S
C1320 C1322 1.500 . S
C1320 O1340 1.257 . S
C1320 O1341 1.260 . S
Eu1321 C1320 2.835 . S
Eu1321 O1340 2.473 . S
Eu1321 O1341 2.480 . S
Eu1321 O1342 2.430 . S
Eu1321 O1343 2.670 . S
Eu1321 O1344 2.394 . S
Eu1321 O1349 2.355 . S
Eu1321 O1351 2.374 . S
C1322 C1320 1.500 . S
C1322 C1323 1.377 . S
C1322 C1327 1.377 . S
C1323 C1322 1.377 . S
C1323 C1324 1.395 . S
C1323 H1352 0.931 . S
C1324 C1323 1.395 . S
C1324 C1325 1.383 . S
C1324 H1353 0.931 . S
C1325 C1324 1.383 . S
C1325 C1326 1.394 . S
C1326 C1325 1.394 . S
C1326 C1327 1.378 . S
C1326 H1354 0.931 . S
C1327 C1322 1.377 . S
C1327 C1326 1.378 . S
C1327 H1355 0.931 . S
C1328 O1342 1.259 . S
C1328 O1343 1.270 . S
C1329 O1344 1.251 . S
C1329 O1345 1.251 . S
C1330 Eu1331 2.835 . S
C1330 C1332 1.500 . S
C1330 O1346 1.257 . S
C1330 O1347 1.260 . S
Eu1331 C1330 2.835 . S
Eu1331 O1343 2.355 . S
Eu1331 O1345 2.374 . S
Eu1331 O1346 2.473 . S
Eu1331 O1347 2.480 . S
Eu1331 O1348 2.430 . S
Eu1331 O1349 2.670 . S
Eu1331 O1350 2.394 . S
C1332 C1330 1.500 . S
C1332 C1333 1.377 . S
C1332 C1337 1.377 . S
C1333 C1332 1.377 . S
C1333 C1334 1.395 . S
C1333 H1356 0.931 . S
C1334 C1333 1.395 . S
C1334 C1335 1.383 . S
C1334 H1357 0.931 . S
C1335 C1334 1.383 . S
C1335 C1336 1.394 . S
C1336 C1335 1.394 . S
C1336 C1337 1.378 . S
C1336 H1358 0.931 . S
C1337 C1332 1.377 . S
C1337 C1336 1.378 . S
C1337 H1359 0.931 . S
C1338 O1348 1.259 . S
C1338 O1349 1.270 . S
C1339 O1350 1.251 . S
C1339 O1351 1.251 . S
O1340 C1320 1.257 . S
O1340 Eu1321 2.473 . S
O1341 C1320 1.260 . S
O1341 Eu1321 2.480 . S
O1342 Eu1321 2.430 . S
O1342 C1328 1.259 . S
O1343 Eu1321 2.670 . S
O1343 C1328 1.270 . S
O1343 Eu1331 2.355 . S
O1344 Eu1321 2.394 . S
O1344 C1329 1.251 . S
O1345 C1329 1.251 . S
O1345 Eu1331 2.374 . S
O1346 C1330 1.257 . S
O1346 Eu1331 2.473 . S
O1347 C1330 1.260 . S
O1347 Eu1331 2.480 . S
O1348 Eu1331 2.430 . S
O1348 C1338 1.259 . S
O1349 Eu1321 2.355 . S
O1349 Eu1331 2.670 . S
O1349 C1338 1.270 . S
O1350 Eu1331 2.394 . S
O1350 C1339 1.251 . S
O1351 Eu1321 2.374 . S
O1351 C1339 1.251 . S
H1352 C1323 0.931 . S
H1353 C1324 0.931 . S
H1354 C1326 0.931 . S
H1355 C1327 0.931 . S
H1356 C1333 0.931 . S
H1357 C1334 0.931 . S
H1358 C1336 0.931 . S
H1359 C1337 0.931 . S
C1360 Eu1361 2.835 . S
C1360 C1362 1.500 . S
C1360 O1380 1.257 . S
C1360 O1381 1.260 . S
Eu1361 C1360 2.835 . S
Eu1361 O1380 2.473 . S
Eu1361 O1381 2.480 . S
Eu1361 O1382 2.430 . S
Eu1361 O1383 2.670 . S
Eu1361 O1384 2.394 . S
Eu1361 O1389 2.355 . S
Eu1361 O1391 2.374 . S
C1362 C1360 1.500 . S
C1362 C1363 1.377 . S
C1362 C1367 1.377 . S
C1363 C1362 1.377 . S
C1363 C1364 1.395 . S
C1363 H1392 0.931 . S
C1364 C1363 1.395 . S
C1364 C1365 1.383 . S
C1364 H1393 0.931 . S
C1365 C1364 1.383 . S
C1365 C1366 1.394 . S
C1366 C1365 1.394 . S
C1366 C1367 1.378 . S
C1366 H1394 0.931 . S
C1367 C1362 1.377 . S
C1367 C1366 1.378 . S
C1367 H1395 0.931 . S
C1368 O1382 1.259 . S
C1368 O1383 1.270 . S
C1369 O1384 1.251 . S
C1369 O1385 1.251 . S
C1370 Eu1371 2.835 . S
C1370 C1372 1.500 . S
C1370 O1386 1.257 . S
C1370 O1387 1.260 . S
Eu1371 C1370 2.835 . S
Eu1371 O1383 2.355 . S
Eu1371 O1385 2.374 . S
Eu1371 O1386 2.473 . S
Eu1371 O1387 2.480 . S
Eu1371 O1388 2.430 . S
Eu1371 O1389 2.670 . S
Eu1371 O1390 2.394 . S
C1372 C1370 1.500 . S
C1372 C1373 1.377 . S
C1372 C1377 1.377 . S
C1373 C1372 1.377 . S
C1373 C1374 1.395 . S
C1373 H1396 0.931 . S
C1374 C1373 1.395 . S
C1374 C1375 1.383 . S
C1374 H1397 0.931 . S
C1375 C1374 1.383 . S
C1375 C1376 1.394 . S
C1376 C1375 1.394 . S
C1376 C1377 1.378 . S
C1376 H1398 0.931 . S
C1377 C1372 1.377 . S
C1377 C1376 1.378 . S
C1377 H1399 0.931 . S
C1378 O1388 1.259 . S
C1378 O1389 1.270 . S
C1379 O1390 1.251 . S
C1379 O1391 1.251 . S
O1380 C1360 1.257 . S
O1380 Eu1361 2.473 . S
O1381 C1360 1.260 . S
O1381 Eu1361 2.480 . S
O1382 Eu1361 2.430 . S
O1382 C1368 1.259 . S
O1383 Eu1361 2.670 . S
O1383 C1368 1.270 . S
O1383 Eu1371 2.355 . S
O1384 Eu1361 2.394 . S
O1384 C1369 1.251 . S
O1385 C1369 1.251 . S
O1385 Eu1371 2.374 . S
O1386 C1370 1.257 . S
O1386 Eu1371 2.473 . S
O1387 C1370 1.260 . S
O1387 Eu1371 2.480 . S
O1388 Eu1371 2.430 . S
O1388 C1378 1.259 . S
O1389 Eu1361 2.355 . S
O1389 Eu1371 2.670 . S
O1389 C1378 1.270 . S
O1390 Eu1371 2.394 . S
O1390 C1379 1.251 . S
O1391 Eu1361 2.374 . S
O1391 C1379 1.251 . S
H1392 C1363 0.931 . S
H1393 C1364 0.931 . S
H1394 C1366 0.931 . S
H1395 C1367 0.931 . S
H1396 C1373 0.931 . S
H1397 C1374 0.931 . S
H1398 C1376 0.931 . S
H1399 C1377 0.931 . S
C1400 Eu1401 2.835 . S
C1400 C1402 1.500 . S
C1400 O1420 1.257 . S
C1400 O1421 1.260 . S
Eu1401 C1400 2.835 . S
Eu1401 O1420 2.473 . S
Eu1401 O1421 2.480 . S
Eu1401 O1422 2.430 . S
Eu1401 O1423 2.670 . S
Eu1401 O1424 2.394 . S
Eu1401 O1429 2.355 . S
Eu1401 O1431 2.374 . S
C1402 C1400 1.500 . S
C1402 C1403 1.377 . S
C1402 C1407 1.377 . S
C1403 C1402 1.377 . S
C1403 C1404 1.395 . S
C1403 H1432 0.931 . S
C1404 C1403 1.395 . S
C1404 C1405 1.383 . S
C1404 H1433 0.931 . S
C1405 C1404 1.383 . S
C1405 C1406 1.394 . S
C1406 C1405 1.394 . S
C1406 C1407 1.378 . S
C1406 H1434 0.931 . S
C1407 C1402 1.377 . S
C1407 C1406 1.378 . S
C1407 H1435 0.931 . S
C1408 O1422 1.259 . S
C1408 O1423 1.270 . S
C1409 O1424 1.251 . S
C1409 O1425 1.251 . S
C1410 Eu1411 2.835 . S
C1410 C1412 1.500 . S
C1410 O1426 1.257 . S
C1410 O1427 1.260 . S
Eu1411 C1410 2.835 . S
Eu1411 O1423 2.355 . S
Eu1411 O1425 2.374 . S
Eu1411 O1426 2.473 . S
Eu1411 O1427 2.480 . S
Eu1411 O1428 2.430 . S
Eu1411 O1429 2.670 . S
Eu1411 O1430 2.394 . S
C1412 C1410 1.500 . S
C1412 C1413 1.377 . S
C1412 C1417 1.377 . S
C1413 C1412 1.377 . S
C1413 C1414 1.395 . S
C1413 H1436 0.931 . S
C1414 C1413 1.395 . S
C1414 C1415 1.383 . S
C1414 H1437 0.931 . S
C1415 C1414 1.383 . S
C1415 C1416 1.394 . S
C1416 C1415 1.394 . S
C1416 C1417 1.378 . S
C1416 H1438 0.931 . S
C1417 C1412 1.377 . S
C1417 C1416 1.378 . S
C1417 H1439 0.931 . S
C1418 O1428 1.259 . S
C1418 O1429 1.270 . S
C1419 O1430 1.251 . S
C1419 O1431 1.251 . S
O1420 C1400 1.257 . S
O1420 Eu1401 2.473 . S
O1421 C1400 1.260 . S
O1421 Eu1401 2.480 . S
O1422 Eu1401 2.430 . S
O1422 C1408 1.259 . S
O1423 Eu1401 2.670 . S
O1423 C1408 1.270 . S
O1423 Eu1411 2.355 . S
O1424 Eu1401 2.394 . S
O1424 C1409 1.251 . S
O1425 C1409 1.251 . S
O1425 Eu1411 2.374 . S
O1426 C1410 1.257 . S
O1426 Eu1411 2.473 . S
O1427 C1410 1.260 . S
O1427 Eu1411 2.480 . S
O1428 Eu1411 2.430 . S
O1428 C1418 1.259 . S
O1429 Eu1401 2.355 . S
O1429 Eu1411 2.670 . S
O1429 C1418 1.270 . S
O1430 Eu1411 2.394 . S
O1430 C1419 1.251 . S
O1431 Eu1401 2.374 . S
O1431 C1419 1.251 . S
H1432 C1403 0.931 . S
H1433 C1404 0.931 . S
H1434 C1406 0.931 . S
H1435 C1407 0.931 . S
H1436 C1413 0.931 . S
H1437 C1414 0.931 . S
H1438 C1416 0.931 . S
H1439 C1417 0.931 . S
H1440 C1452 0.930 . S
H1441 C1454 0.930 . S
H1442 C1455 0.930 . S
H1443 C1459 0.959 . S
H1444 C1459 0.959 . S
H1445 C1459 0.961 . S
H1446 C1460 0.960 . S
H1447 C1460 0.961 . S
H1448 C1460 0.959 . S
H1449 C1463 0.929 . S
H1450 C1464 0.931 . S
H1451 C1466 0.930 . S
C1452 H1440 0.930 . S
C1452 C1453 1.399 . S
C1452 C1457 1.399 . S
C1453 C1452 1.399 . S
C1453 C1454 1.376 . S
C1454 H1441 0.930 . S
C1454 C1453 1.376 . S
C1454 C1455 1.388 . S
C1455 H1442 0.930 . S
C1455 C1454 1.388 . S
C1455 C1456 1.390 . S
C1456 C1455 1.390 . S
C1456 C1457 1.394 . S
C1456 C1462 1.465 . S
C1457 C1452 1.399 . S
C1457 C1456 1.394 . S
C1457 C1458 1.516 . S
C1458 C1457 1.516 . S
C1458 C1459 1.502 . S
C1458 C1460 1.561 . S
C1458 C1461 1.526 . S
C1459 H1443 0.959 . S
C1459 H1444 0.959 . S
C1459 H1445 0.961 . S
C1459 C1458 1.502 . S
C1460 H1446 0.960 . S
C1460 H1447 0.961 . S
C1460 H1448 0.959 . S
C1460 C1458 1.561 . S
C1461 C1458 1.526 . S
C1461 C1462 1.396 . S
C1461 C1466 1.390 . S
C1462 C1456 1.465 . S
C1462 C1461 1.396 . S
C1462 C1463 1.399 . S
C1463 H1449 0.929 . S
C1463 C1462 1.399 . S
C1463 C1464 1.385 . S
C1464 H1450 0.931 . S
C1464 C1463 1.385 . S
C1464 C1465 1.389 . S
C1465 C1464 1.389 . S
C1465 C1466 1.387 . S
C1466 H1451 0.930 . S
C1466 C1461 1.390 . S
C1466 C1465 1.387 . S
H1467 C1479 0.930 . S
H1468 C1481 0.930 . S
H1469 C1482 0.930 . S
H1470 C1486 0.959 . S
H1471 C1486 0.959 . S
H1472 C1486 0.961 . S
H1473 C1487 0.960 . S
H1474 C1487 0.961 . S
H1475 C1487 0.959 . S
H1476 C1490 0.929 . S
H1477 C1491 0.931 . S
H1478 C1493 0.930 . S
C1479 H1467 0.930 . S
C1479 C1480 1.399 . S
C1479 C1484 1.399 . S
C1480 C1479 1.399 . S
C1480 C1481 1.376 . S
C1481 H1468 0.930 . S
C1481 C1480 1.376 . S
C1481 C1482 1.388 . S
C1482 H1469 0.930 . S
C1482 C1481 1.388 . S
C1482 C1483 1.390 . S
C1483 C1482 1.390 . S
C1483 C1484 1.394 . S
C1483 C1489 1.465 . S
C1484 C1479 1.399 . S
C1484 C1483 1.394 . S
C1484 C1485 1.516 . S
C1485 C1484 1.516 . S
C1485 C1486 1.502 . S
C1485 C1487 1.561 . S
C1485 C1488 1.526 . S
C1486 H1470 0.959 . S
C1486 H1471 0.959 . S
C1486 H1472 0.961 . S
C1486 C1485 1.502 . S
C1487 H1473 0.960 . S
C1487 H1474 0.961 . S
C1487 H1475 0.959 . S
C1487 C1485 1.561 . S
C1488 C1485 1.526 . S
C1488 C1489 1.396 . S
C1488 C1493 1.390 . S
C1489 C1483 1.465 . S
C1489 C1488 1.396 . S
C1489 C1490 1.399 . S
C1490 H1476 0.929 . S
C1490 C1489 1.399 . S
C1490 C1491 1.385 . S
C1491 H1477 0.931 . S
C1491 C1490 1.385 . S
C1491 C1492 1.389 . S
C1492 C1491 1.389 . S
C1492 C1493 1.387 . S
C1493 H1478 0.930 . S
C1493 C1488 1.390 . S
C1493 C1492 1.387 . S
H1494 C1506 0.930 . S
H1495 C1508 0.930 . S
H1496 C1509 0.930 . S
H1497 C1513 0.934 1_554 S
H1498 C1513 0.959 . S
H1499 C1513 0.961 . S
H1500 C1514 0.960 . S
H1501 C1514 0.961 . S
H1502 C1514 0.959 . S
H1503 C1517 0.929 . S
H1504 C1518 0.931 . S
H1505 C1520 0.930 1_556 S
C1506 H1494 0.930 . S
C1506 C1507 1.399 . S
C1506 C1511 1.399 . S
C1507 C1506 1.399 . S
C1507 C1508 1.376 . S
C1508 H1495 0.930 . S
C1508 C1507 1.376 . S
C1508 C1509 1.388 . S
C1509 H1496 0.930 . S
C1509 C1508 1.388 . S
C1509 C1510 1.390 . S
C1510 C1509 1.390 . S
C1510 C1511 1.394 . S
C1510 C1516 1.465 . S
C1511 C1506 1.399 . S
C1511 C1510 1.394 . S
C1511 C1512 1.562 . S
C1512 C1511 1.562 . S
C1512 C1513 1.475 1_554 S
C1512 C1514 1.512 1_554 S
C1512 C1515 1.565 . S
C1513 H1497 0.934 1_556 S
C1513 H1498 0.959 . S
C1513 H1499 0.961 . S
C1513 C1512 1.475 1_556 S
C1514 H1500 0.960 . S
C1514 H1501 0.961 . S
C1514 H1502 0.959 . S
C1514 C1512 1.512 1_556 S
C1515 C1512 1.565 . S
C1515 C1516 1.396 . S
C1515 C1520 1.390 . S
C1516 C1510 1.465 . S
C1516 C1515 1.396 . S
C1516 C1517 1.399 . S
C1517 H1503 0.929 . S
C1517 C1516 1.399 . S
C1517 C1518 1.385 . S
C1518 H1504 0.931 . S
C1518 C1517 1.385 . S
C1518 C1519 1.389 . S
C1519 C1518 1.389 . S
C1519 C1520 1.387 . S
C1520 H1505 0.930 1_554 S
C1520 C1515 1.390 . S
C1520 C1519 1.387 . S
H1521 C1533 0.930 . S
H1522 C1535 0.930 . S
H1523 C1536 0.930 . S
H1524 C1540 0.959 1_556 S
H1525 C1540 0.959 . S
H1526 C1540 0.961 . S
H1527 C1541 0.960 . S
H1528 C1541 0.961 . S
H1529 C1541 0.959 . S
H1530 C1544 0.929 . S
H1531 C1545 0.931 . S
H1532 C1547 0.930 1_554 S
C1533 H1521 0.930 . S
C1533 C1534 1.399 . S
C1533 C1538 1.399 . S
C1534 C1533 1.399 . S
C1534 C1535 1.376 . S
C1535 H1522 0.930 . S
C1535 C1534 1.376 . S
C1535 C1536 1.388 . S
C1536 H1523 0.930 . S
C1536 C1535 1.388 . S
C1536 C1537 1.390 . S
C1537 C1536 1.390 . S
C1537 C1538 1.394 . S
C1537 C1543 1.465 . S
C1538 C1533 1.399 . S
C1538 C1537 1.394 . S
C1538 C1539 1.516 . S
C1539 C1538 1.516 . S
C1539 C1540 1.502 1_556 S
C1539 C1541 1.561 1_556 S
C1539 C1542 1.526 . S
C1540 H1524 0.959 1_554 S
C1540 H1525 0.959 . S
C1540 H1526 0.961 . S
C1540 C1539 1.502 1_554 S
C1541 H1527 0.960 . S
C1541 H1528 0.961 . S
C1541 H1529 0.959 . S
C1541 C1539 1.561 1_554 S
C1542 C1539 1.526 . S
C1542 C1543 1.396 . S
C1542 C1547 1.390 . S
C1543 C1537 1.465 . S
C1543 C1542 1.396 . S
C1543 C1544 1.399 . S
C1544 H1530 0.929 . S
C1544 C1543 1.399 . S
C1544 C1545 1.385 . S
C1545 H1531 0.931 . S
C1545 C1544 1.385 . S
C1545 C1546 1.389 . S
C1546 C1545 1.389 . S
C1546 C1547 1.387 . S
C1547 H1532 0.930 1_556 S
C1547 C1542 1.390 . S
C1547 C1546 1.387 . S
H1548 C1560 0.930 . S
H1549 C1562 0.930 . S
H1550 C1563 0.930 . S
H1551 C1567 0.959 . S
H1552 C1567 0.959 . S
H1553 C1567 0.961 . S
H1554 C1568 0.960 . S
H1555 C1568 0.961 . S
H1556 C1568 0.959 . S
H1557 C1571 0.929 . S
H1558 C1572 0.931 . S
H1559 C1574 0.930 . S
C1560 H1548 0.930 . S
C1560 C1561 1.399 . S
C1560 C1565 1.399 . S
C1561 C1560 1.399 . S
C1561 C1562 1.376 . S
C1562 H1549 0.930 . S
C1562 C1561 1.376 . S
C1562 C1563 1.388 . S
C1563 H1550 0.930 . S
C1563 C1562 1.388 . S
C1563 C1564 1.390 . S
C1564 C1563 1.390 . S
C1564 C1565 1.394 . S
C1564 C1570 1.465 . S
C1565 C1560 1.399 . S
C1565 C1564 1.394 . S
C1565 C1566 1.516 . S
C1566 C1565 1.516 . S
C1566 C1567 1.502 . S
C1566 C1568 1.561 . S
C1566 C1569 1.526 . S
C1567 H1551 0.959 . S
C1567 H1552 0.959 . S
C1567 H1553 0.961 . S
C1567 C1566 1.502 . S
C1568 H1554 0.960 . S
C1568 H1555 0.961 . S
C1568 H1556 0.959 . S
C1568 C1566 1.561 . S
C1569 C1566 1.526 . S
C1569 C1570 1.396 . S
C1569 C1574 1.390 . S
C1570 C1564 1.465 . S
C1570 C1569 1.396 . S
C1570 C1571 1.399 . S
C1571 H1557 0.929 . S
C1571 C1570 1.399 . S
C1571 C1572 1.385 . S
C1572 H1558 0.931 . S
C1572 C1571 1.385 . S
C1572 C1573 1.389 . S
C1573 C1572 1.389 . S
C1573 C1574 1.387 . S
C1574 H1559 0.930 . S
C1574 C1569 1.390 . S
C1574 C1573 1.387 . S
H1575 C1587 0.930 . S
H1576 C1589 0.930 . S
H1577 C1590 0.930 . S
H1578 C1594 0.959 1_554 S
H1579 C1594 0.959 1_554 S
H1580 C1594 0.961 . S
H1581 C1595 0.960 . S
H1582 C1595 0.961 . S
H1583 C1595 0.959 . S
H1584 C1598 0.929 . S
H1585 C1599 0.931 . S
H1586 C1601 0.930 . S
C1587 H1575 0.930 . S
C1587 C1588 1.399 . S
C1587 C1592 1.399 . S
C1588 C1587 1.399 . S
C1588 C1589 1.376 . S
C1589 H1576 0.930 . S
C1589 C1588 1.376 . S
C1589 C1590 1.388 . S
C1590 H1577 0.930 . S
C1590 C1589 1.388 . S
C1590 C1591 1.390 . S
C1591 C1590 1.390 . S
C1591 C1592 1.394 . S
C1591 C1597 1.465 . S
C1592 C1587 1.399 . S
C1592 C1591 1.394 . S
C1592 C1593 1.516 . S
C1593 C1592 1.516 . S
C1593 C1594 1.502 . S
C1593 C1595 1.561 . S
C1593 C1596 1.526 . S
C1594 H1578 0.959 1_556 S
C1594 H1579 0.959 1_556 S
C1594 H1580 0.961 . S
C1594 C1593 1.502 . S
C1595 H1581 0.960 . S
C1595 H1582 0.961 . S
C1595 H1583 0.959 . S
C1595 C1593 1.561 . S
C1596 C1593 1.526 . S
C1596 C1597 1.396 . S
C1596 C1601 1.390 . S
C1597 C1591 1.465 . S
C1597 C1596 1.396 . S
C1597 C1598 1.399 . S
C1598 H1584 0.929 . S
C1598 C1597 1.399 . S
C1598 C1599 1.385 . S
C1599 H1585 0.931 . S
C1599 C1598 1.385 . S
C1599 C1600 1.389 . S
C1600 C1599 1.389 . S
C1600 C1601 1.387 . S
C1601 H1586 0.930 . S
C1601 C1596 1.390 . S
C1601 C1600 1.387 . S
H1602 C1614 0.930 . S
H1603 C1616 0.930 . S
H1604 C1617 0.930 . S
H1605 C1621 0.959 1_554 S
H1606 C1621 0.959 1_554 S
H1607 C1621 0.961 . S
H1608 C1622 0.960 . S
H1609 C1622 0.961 . S
H1610 C1622 0.959 . S
H1611 C1625 0.929 . S
H1612 C1626 0.931 . S
H1613 C1628 0.930 . S
C1614 H1602 0.930 . S
C1614 C1615 1.399 . S
C1614 C1619 1.399 . S
C1615 C1614 1.399 . S
C1615 C1616 1.376 . S
C1616 H1603 0.930 . S
C1616 C1615 1.376 . S
C1616 C1617 1.388 . S
C1617 H1604 0.930 . S
C1617 C1616 1.388 . S
C1617 C1618 1.390 . S
C1618 C1617 1.390 . S
C1618 C1619 1.394 . S
C1618 C1624 1.465 . S
C1619 C1614 1.399 . S
C1619 C1618 1.394 . S
C1619 C1620 1.516 . S
C1620 C1619 1.516 . S
C1620 C1621 1.502 . S
C1620 C1622 1.561 . S
C1620 C1623 1.526 . S
C1621 H1605 0.959 1_556 S
C1621 H1606 0.959 1_556 S
C1621 H1607 0.961 . S
C1621 C1620 1.502 . S
C1622 H1608 0.960 . S
C1622 H1609 0.961 . S
C1622 H1610 0.959 . S
C1622 C1620 1.561 . S
C1623 C1620 1.526 . S
C1623 C1624 1.396 . S
C1623 C1628 1.390 . S
C1624 C1618 1.465 . S
C1624 C1623 1.396 . S
C1624 C1625 1.399 . S
C1625 H1611 0.929 . S
C1625 C1624 1.399 . S
C1625 C1626 1.385 . S
C1626 H1612 0.931 . S
C1626 C1625 1.385 . S
C1626 C1627 1.389 . S
C1627 C1626 1.389 . S
C1627 C1628 1.387 . S
C1628 H1613 0.930 . S
C1628 C1623 1.390 . S
C1628 C1627 1.387 . S
H1629 C1641 0.930 . S
H1630 C1643 0.930 . S
H1631 C1644 0.930 . S
H1632 C1648 0.959 . S
H1633 C1648 0.959 . S
H1634 C1648 0.961 . S
H1635 C1649 0.960 . S
H1636 C1649 0.961 . S
H1637 C1649 0.959 . S
H1638 C1652 0.929 . S
H1639 C1653 0.931 . S
H1640 C1655 0.930 . S
C1641 H1629 0.930 . S
C1641 C1642 1.399 . S
C1641 C1646 1.399 . S
C1642 C1641 1.399 . S
C1642 C1643 1.376 . S
C1643 H1630 0.930 . S
C1643 C1642 1.376 . S
C1643 C1644 1.388 . S
C1644 H1631 0.930 . S
C1644 C1643 1.388 . S
C1644 C1645 1.390 . S
C1645 C1644 1.390 . S
C1645 C1646 1.394 . S
C1645 C1651 1.465 . S
C1646 C1641 1.399 . S
C1646 C1645 1.394 . S
C1646 C1647 1.516 . S
C1647 C1646 1.516 . S
C1647 C1648 1.502 . S
C1647 C1649 1.561 . S
C1647 C1650 1.526 . S
C1648 H1632 0.959 . S
C1648 H1633 0.959 . S
C1648 H1634 0.961 . S
C1648 C1647 1.502 . S
C1649 H1635 0.960 . S
C1649 H1636 0.961 . S
C1649 H1637 0.959 . S
C1649 C1647 1.561 . S
C1650 C1647 1.526 . S
C1650 C1651 1.396 . S
C1650 C1655 1.390 . S
C1651 C1645 1.465 . S
C1651 C1650 1.396 . S
C1651 C1652 1.399 . S
C1652 H1638 0.929 . S
C1652 C1651 1.399 . S
C1652 C1653 1.385 . S
C1653 H1639 0.931 . S
C1653 C1652 1.385 . S
C1653 C1654 1.389 . S
C1654 C1653 1.389 . S
C1654 C1655 1.387 . S
C1655 H1640 0.930 . S
C1655 C1650 1.390 . S
C1655 C1654 1.387 . S
H1656 C1668 0.930 . S
H1657 C1670 0.930 . S
H1658 C1671 0.930 1_554 S
H1659 C1675 0.959 . S
H1660 C1675 0.959 . S
H1661 C1675 0.961 . S
H1662 C1676 0.960 . S
H1663 C1676 0.961 . S
H1664 C1676 0.959 . S
H1665 C1679 0.929 . S
H1666 C1680 0.931 . S
H1667 C1682 0.930 . S
C1668 H1656 0.930 . S
C1668 C1669 1.399 . S
C1668 C1673 1.399 . S
C1669 C1668 1.399 . S
C1669 C1670 1.376 . S
C1670 H1657 0.930 . S
C1670 C1669 1.376 . S
C1670 C1671 1.388 . S
C1671 H1658 0.930 1_556 S
C1671 C1670 1.388 . S
C1671 C1672 1.390 . S
C1672 C1671 1.390 . S
C1672 C1673 1.394 . S
C1672 C1678 1.465 . S
C1673 C1668 1.399 . S
C1673 C1672 1.394 . S
C1673 C1674 1.516 . S
C1674 C1673 1.516 . S
C1674 C1675 1.502 . S
C1674 C1676 1.561 . S
C1674 C1677 1.526 . S
C1675 H1659 0.959 . S
C1675 H1660 0.959 . S
C1675 H1661 0.961 . S
C1675 C1674 1.502 . S
C1676 H1662 0.960 . S
C1676 H1663 0.961 . S
C1676 H1664 0.959 . S
C1676 C1674 1.561 . S
C1677 C1674 1.526 . S
C1677 C1678 1.396 . S
C1677 C1682 1.390 . S
C1678 C1672 1.465 . S
C1678 C1677 1.396 . S
C1678 C1679 1.399 1_556 S
C1679 H1665 0.929 . S
C1679 C1678 1.399 1_554 S
C1679 C1680 1.385 . S
C1680 H1666 0.931 . S
C1680 C1679 1.385 . S
C1680 C1681 1.389 1_554 S
C1681 C1680 1.389 1_556 S
C1681 C1682 1.387 . S
C1682 H1667 0.930 . S
C1682 C1677 1.390 . S
C1682 C1681 1.387 . S
H1683 C1695 0.930 . S
H1684 C1697 0.930 . S
H1685 C1698 0.930 1_556 S
H1686 C1702 0.959 . S
H1687 C1702 0.959 . S
H1688 C1702 0.961 . S
H1689 C1703 0.960 . S
H1690 C1703 0.961 . S
H1691 C1703 0.959 . S
H1692 C1706 0.956 . S
H1693 C1707 0.997 . S
H1694 C1709 0.930 . S
C1695 H1683 0.930 . S
C1695 C1696 1.399 . S
C1695 C1700 1.399 . S
C1696 C1695 1.399 . S
C1696 C1697 1.376 . S
C1697 H1684 0.930 . S
C1697 C1696 1.376 . S
C1697 C1698 1.388 . S
C1698 H1685 0.930 1_554 S
C1698 C1697 1.388 . S
C1698 C1699 1.390 . S
C1699 C1698 1.390 . S
C1699 C1700 1.394 . S
C1699 C1705 1.465 . S
C1700 C1695 1.399 . S
C1700 C1699 1.394 . S
C1700 C1701 1.516 . S
C1701 C1700 1.516 . S
C1701 C1702 1.502 . S
C1701 C1703 1.561 . S
C1701 C1704 1.526 . S
C1702 H1686 0.959 . S
C1702 H1687 0.959 . S
C1702 H1688 0.961 . S
C1702 C1701 1.502 . S
C1703 H1689 0.960 . S
C1703 H1690 0.961 . S
C1703 H1691 0.959 . S
C1703 C1701 1.561 . S
C1704 C1701 1.526 . S
C1704 C1705 1.396 . S
C1704 C1709 1.390 . S
C1705 C1699 1.465 . S
C1705 C1704 1.396 . S
C1705 C1706 1.373 1_554 S
C1706 H1692 0.956 . S
C1706 C1705 1.373 1_556 S
C1706 C1707 1.389 . S
C1707 H1693 0.997 . S
C1707 C1706 1.389 . S
C1707 C1708 1.321 1_556 S
C1708 C1707 1.321 1_554 S
C1708 C1709 1.387 . S
C1709 H1694 0.930 . S
C1709 C1704 1.390 . S
C1709 C1708 1.387 . S
H1710 C1722 0.930 . S
H1711 C1724 0.930 . S
H1712 C1725 0.930 . S
H1713 C1729 0.959 . S
H1714 C1729 0.959 . S
H1715 C1729 0.961 . S
H1716 C1730 0.960 . S
H1717 C1730 0.961 . S
H1718 C1730 0.959 . S
H1719 C1733 0.929 . S
H1720 C1734 0.931 1_556 S
H1721 C1736 0.930 . S
C1722 H1710 0.930 . S
C1722 C1723 1.399 . S
C1722 C1727 1.399 . S
C1723 C1722 1.399 . S
C1723 C1724 1.376 . S
C1724 H1711 0.930 . S
C1724 C1723 1.376 . S
C1724 C1725 1.388 . S
C1725 H1712 0.930 . S
C1725 C1724 1.388 . S
C1725 C1726 1.390 . S
C1726 C1725 1.390 . S
C1726 C1727 1.394 . S
C1726 C1732 1.465 . S
C1727 C1722 1.399 . S
C1727 C1726 1.394 . S
C1727 C1728 1.516 . S
C1728 C1727 1.516 . S
C1728 C1729 1.502 . S
C1728 C1730 1.561 . S
C1728 C1731 1.526 . S
C1729 H1713 0.959 . S
C1729 H1714 0.959 . S
C1729 H1715 0.961 . S
C1729 C1728 1.502 . S
C1730 H1716 0.960 . S
C1730 H1717 0.961 . S
C1730 H1718 0.959 . S
C1730 C1728 1.561 . S
C1731 C1728 1.526 . S
C1731 C1732 1.396 . S
C1731 C1736 1.390 . S
C1732 C1726 1.465 . S
C1732 C1731 1.396 . S
C1732 C1733 1.399 . S
C1733 H1719 0.929 . S
C1733 C1732 1.399 . S
C1733 C1734 1.385 . S
C1734 H1720 0.931 1_554 S
C1734 C1733 1.385 . S
C1734 C1735 1.389 . S
C1735 C1734 1.389 . S
C1735 C1736 1.387 . S
C1736 H1721 0.930 . S
C1736 C1731 1.390 . S
C1736 C1735 1.387 . S
H1737 C1749 0.930 . S
H1738 C1751 0.930 . S
H1739 C1752 0.930 1_556 S
H1740 C1756 0.959 . S
H1741 C1756 0.959 . S
H1742 C1756 0.961 . S
H1743 C1757 0.960 . S
H1744 C1757 0.961 . S
H1745 C1757 0.959 . S
H1746 C1760 0.929 . S
H1747 C1761 0.931 . S
H1748 C1763 0.930 . S
C1749 H1737 0.930 . S
C1749 C1750 1.399 . S
C1749 C1754 1.399 . S
C1750 C1749 1.399 . S
C1750 C1751 1.376 . S
C1751 H1738 0.930 . S
C1751 C1750 1.376 . S
C1751 C1752 1.388 . S
C1752 H1739 0.930 1_554 S
C1752 C1751 1.388 . S
C1752 C1753 1.390 . S
C1753 C1752 1.390 . S
C1753 C1754 1.394 . S
C1753 C1759 1.465 . S
C1754 C1749 1.399 . S
C1754 C1753 1.394 . S
C1754 C1755 1.516 . S
C1755 C1754 1.516 . S
C1755 C1756 1.502 . S
C1755 C1757 1.561 . S
C1755 C1758 1.526 . S
C1756 H1740 0.959 . S
C1756 H1741 0.959 . S
C1756 H1742 0.961 . S
C1756 C1755 1.502 . S
C1757 H1743 0.960 . S
C1757 H1744 0.961 . S
C1757 H1745 0.959 . S
C1757 C1755 1.561 . S
C1758 C1755 1.526 . S
C1758 C1759 1.396 . S
C1758 C1763 1.390 . S
C1759 C1753 1.465 . S
C1759 C1758 1.396 . S
C1759 C1760 1.399 1_554 S
C1760 H1746 0.929 . S
C1760 C1759 1.399 1_556 S
C1760 C1761 1.385 . S
C1761 H1747 0.931 . S
C1761 C1760 1.385 . S
C1761 C1762 1.389 1_556 S
C1762 C1761 1.389 1_554 S
C1762 C1763 1.387 . S
C1763 H1748 0.930 . S
C1763 C1758 1.390 . S
C1763 C1762 1.387 . S
H1764 C1776 0.931 . S
H1765 C1778 0.930 . S
H1766 C1779 0.930 . S
H1767 C1783 0.959 . S
H1768 C1783 0.959 . S
H1769 C1783 0.961 . S
H1770 C1784 0.960 . S
H1771 C1784 0.961 . S
H1772 C1784 0.959 . S
H1773 C1787 0.929 . S
H1774 C1788 0.931 . S
H1775 C1790 0.930 . S
C1776 H1764 0.931 . S
C1776 C1777 1.399 . S
C1776 C1781 1.399 1_655 S
C1777 C1776 1.399 . S
C1777 C1778 1.376 . S
C1778 H1765 0.930 . S
C1778 C1777 1.376 . S
C1778 C1779 1.388 . S
C1779 H1766 0.930 . S
C1779 C1778 1.388 . S
C1779 C1780 1.390 1_655 S
C1780 C1779 1.390 1_455 S
C1780 C1781 1.394 . S
C1780 C1786 1.465 . S
C1781 C1776 1.399 1_455 S
C1781 C1780 1.394 . S
C1781 C1782 1.516 . S
C1782 C1781 1.516 . S
C1782 C1783 1.502 . S
C1782 C1784 1.561 . S
C1782 C1785 1.526 . S
C1783 H1767 0.959 . S
C1783 H1768 0.959 . S
C1783 H1769 0.961 . S
C1783 C1782 1.502 . S
C1784 H1770 0.960 . S
C1784 H1771 0.961 . S
C1784 H1772 0.959 . S
C1784 C1782 1.561 . S
C1785 C1782 1.526 . S
C1785 C1786 1.396 . S
C1785 C1790 1.390 . S
C1786 C1780 1.465 . S
C1786 C1785 1.396 . S
C1786 C1787 1.399 . S
C1787 H1773 0.929 . S
C1787 C1786 1.399 . S
C1787 C1788 1.385 . S
C1788 H1774 0.931 . S
C1788 C1787 1.385 . S
C1788 C1789 1.389 . S
C1789 C1788 1.389 . S
C1789 C1790 1.387 . S
C1790 H1775 0.930 . S
C1790 C1785 1.390 . S
C1790 C1789 1.387 . S
H1791 C1803 0.930 . S
H1792 C1805 0.930 . S
H1793 C1806 0.930 . S
H1794 C1810 0.959 . S
H1795 C1810 0.959 . S
H1796 C1810 0.961 . S
H1797 C1811 0.960 . S
H1798 C1811 0.961 . S
H1799 C1811 0.959 . S
H1800 C1814 0.929 . S
H1801 C1815 0.931 . S
H1802 C1817 0.930 . S
C1803 H1791 0.930 . S
C1803 C1804 1.399 . S
C1803 C1808 1.399 . S
C1804 C1803 1.399 . S
C1804 C1805 1.376 . S
C1805 H1792 0.930 . S
C1805 C1804 1.376 . S
C1805 C1806 1.388 . S
C1806 H1793 0.930 . S
C1806 C1805 1.388 . S
C1806 C1807 1.390 . S
C1807 C1806 1.390 . S
C1807 C1808 1.394 . S
C1807 C1813 1.465 . S
C1808 C1803 1.399 . S
C1808 C1807 1.394 . S
C1808 C1809 1.516 . S
C1809 C1808 1.516 . S
C1809 C1810 1.502 . S
C1809 C1811 1.561 . S
C1809 C1812 1.526 . S
C1810 H1794 0.959 . S
C1810 H1795 0.959 . S
C1810 H1796 0.961 . S
C1810 C1809 1.502 . S
C1811 H1797 0.960 . S
C1811 H1798 0.961 . S
C1811 H1799 0.959 . S
C1811 C1809 1.561 . S
C1812 C1809 1.526 . S
C1812 C1813 1.396 . S
C1812 C1817 1.390 . S
C1813 C1807 1.465 . S
C1813 C1812 1.396 . S
C1813 C1814 1.399 . S
C1814 H1800 0.929 . S
C1814 C1813 1.399 . S
C1814 C1815 1.385 . S
C1815 H1801 0.931 . S
C1815 C1814 1.385 . S
C1815 C1816 1.389 . S
C1816 C1815 1.389 . S
C1816 C1817 1.387 . S
C1817 H1802 0.930 . S
C1817 C1812 1.390 . S
C1817 C1816 1.387 . S
H1818 C1830 0.930 . S
H1819 C1832 0.930 . S
H1820 C1833 0.930 . S
H1821 C1837 0.959 . S
H1822 C1837 0.959 . S
H1823 C1837 0.961 . S
H1824 C1838 0.960 . S
H1825 C1838 0.961 . S
H1826 C1838 0.959 . S
H1827 C1841 0.929 . S
H1828 C1842 0.931 . S
H1829 C1844 0.930 . S
C1830 H1818 0.930 . S
C1830 C1831 1.399 . S
C1830 C1835 1.399 1_545 S
C1831 C1830 1.399 . S
C1831 C1832 1.376 . S
C1832 H1819 0.930 . S
C1832 C1831 1.376 . S
C1832 C1833 1.388 . S
C1833 H1820 0.930 . S
C1833 C1832 1.388 . S
C1833 C1834 1.390 1_545 S
C1834 C1833 1.390 1_565 S
C1834 C1835 1.394 . S
C1834 C1840 1.465 . S
C1835 C1830 1.399 1_565 S
C1835 C1834 1.394 . S
C1835 C1836 1.516 . S
C1836 C1835 1.516 . S
C1836 C1837 1.502 . S
C1836 C1838 1.561 . S
C1836 C1839 1.526 . S
C1837 H1821 0.959 . S
C1837 H1822 0.959 . S
C1837 H1823 0.961 . S
C1837 C1836 1.502 . S
C1838 H1824 0.960 . S
C1838 H1825 0.961 . S
C1838 H1826 0.959 . S
C1838 C1836 1.561 . S
C1839 C1836 1.526 . S
C1839 C1840 1.396 . S
C1839 C1844 1.390 . S
C1840 C1834 1.465 . S
C1840 C1839 1.396 . S
C1840 C1841 1.399 . S
C1841 H1827 0.929 . S
C1841 C1840 1.399 . S
C1841 C1842 1.385 . S
C1842 H1828 0.931 . S
C1842 C1841 1.385 . S
C1842 C1843 1.389 . S
C1843 C1842 1.389 . S
C1843 C1844 1.387 . S
C1844 H1829 0.930 . S
C1844 C1839 1.390 . S
C1844 C1843 1.387 . S
H1845 C1857 0.930 . S
H1846 C1859 0.930 . S
H1847 C1860 0.930 . S
H1848 C1864 0.959 . S
H1849 C1864 0.959 . S
H1850 C1864 0.961 . S
H1851 C1865 0.960 . S
H1852 C1865 0.961 . S
H1853 C1865 0.959 . S
H1854 C1868 0.929 . S
H1855 C1869 0.931 . S
H1856 C1871 0.930 . S
C1857 H1845 0.930 . S
C1857 C1858 1.399 . S
C1857 C1862 1.399 . S
C1858 C1857 1.399 . S
C1858 C1859 1.376 . S
C1859 H1846 0.930 . S
C1859 C1858 1.376 . S
C1859 C1860 1.388 . S
C1860 H1847 0.930 . S
C1860 C1859 1.388 . S
C1860 C1861 1.390 . S
C1861 C1860 1.390 . S
C1861 C1862 1.394 . S
C1861 C1867 1.465 . S
C1862 C1857 1.399 . S
C1862 C1861 1.394 . S
C1862 C1863 1.516 . S
C1863 C1862 1.516 . S
C1863 C1864 1.502 . S
C1863 C1865 1.561 . S
C1863 C1866 1.526 . S
C1864 H1848 0.959 . S
C1864 H1849 0.959 . S
C1864 H1850 0.961 . S
C1864 C1863 1.502 . S
C1865 H1851 0.960 . S
C1865 H1852 0.961 . S
C1865 H1853 0.959 . S
C1865 C1863 1.561 . S
C1866 C1863 1.526 . S
C1866 C1867 1.396 . S
C1866 C1871 1.390 . S
C1867 C1861 1.465 . S
C1867 C1866 1.396 . S
C1867 C1868 1.399 . S
C1868 H1854 0.929 . S
C1868 C1867 1.399 . S
C1868 C1869 1.385 . S
C1869 H1855 0.931 . S
C1869 C1868 1.385 . S
C1869 C1870 1.389 . S
C1870 C1869 1.389 . S
C1870 C1871 1.387 . S
C1871 H1856 0.930 . S
C1871 C1866 1.390 . S
C1871 C1870 1.387 . S
H1872 C1884 0.930 . S
H1873 C1886 0.930 . S
H1874 C1887 0.930 . S
H1875 C1891 0.959 . S
H1876 C1891 0.959 . S
H1877 C1891 0.961 . S
H1878 C1892 0.960 . S
H1879 C1892 0.961 . S
H1880 C1892 0.959 . S
H1881 C1895 0.929 . S
H1882 C1896 0.931 . S
H1883 C1898 0.930 . S
C1884 H1872 0.930 . S
C1884 C1885 1.399 . S
C1884 C1889 1.399 . S
C1885 C1884 1.399 . S
C1885 C1886 1.376 . S
C1886 H1873 0.930 . S
C1886 C1885 1.376 . S
C1886 C1887 1.388 . S
C1887 H1874 0.930 . S
C1887 C1886 1.388 . S
C1887 C1888 1.390 . S
C1888 C1887 1.390 . S
C1888 C1889 1.394 . S
C1888 C1894 1.465 . S
C1889 C1884 1.399 . S
C1889 C1888 1.394 . S
C1889 C1890 1.516 . S
C1890 C1889 1.516 . S
C1890 C1891 1.502 . S
C1890 C1892 1.561 . S
C1890 C1893 1.526 . S
C1891 H1875 0.959 . S
C1891 H1876 0.959 . S
C1891 H1877 0.961 . S
C1891 C1890 1.502 . S
C1892 H1878 0.960 . S
C1892 H1879 0.961 . S
C1892 H1880 0.959 . S
C1892 C1890 1.561 . S
C1893 C1890 1.526 . S
C1893 C1894 1.396 . S
C1893 C1898 1.390 . S
C1894 C1888 1.465 . S
C1894 C1893 1.396 . S
C1894 C1895 1.399 . S
C1895 H1881 0.929 . S
C1895 C1894 1.399 . S
C1895 C1896 1.385 . S
C1896 H1882 0.931 . S
C1896 C1895 1.385 . S
C1896 C1897 1.389 . S
C1897 C1896 1.389 . S
C1897 C1898 1.387 . S
C1898 H1883 0.930 . S
C1898 C1893 1.390 . S
C1898 C1897 1.387 . S
H1899 C1911 0.930 . S
H1900 C1913 0.930 . S
H1901 C1914 0.930 . S
H1902 C1918 0.959 . S
H1903 C1918 0.959 . S
H1904 C1918 0.961 . S
H1905 C1919 0.960 . S
H1906 C1919 0.961 . S
H1907 C1919 0.959 . S
H1908 C1922 0.929 . S
H1909 C1923 0.931 . S
H1910 C1925 0.930 . S
C1911 H1899 0.930 . S
C1911 C1912 1.399 . S
C1911 C1916 1.399 . S
C1912 C1911 1.399 . S
C1912 C1913 1.376 . S
C1913 H1900 0.930 . S
C1913 C1912 1.376 . S
C1913 C1914 1.388 . S
C1914 H1901 0.930 . S
C1914 C1913 1.388 . S
C1914 C1915 1.390 . S
C1915 C1914 1.390 . S
C1915 C1916 1.394 . S
C1915 C1921 1.465 . S
C1916 C1911 1.399 . S
C1916 C1915 1.394 . S
C1916 C1917 1.516 . S
C1917 C1916 1.516 . S
C1917 C1918 1.502 . S
C1917 C1919 1.561 . S
C1917 C1920 1.526 . S
C1918 H1902 0.959 . S
C1918 H1903 0.959 . S
C1918 H1904 0.961 . S
C1918 C1917 1.502 . S
C1919 H1905 0.960 . S
C1919 H1906 0.961 . S
C1919 H1907 0.959 . S
C1919 C1917 1.561 . S
C1920 C1917 1.526 . S
C1920 C1921 1.396 . S
C1920 C1925 1.390 . S
C1921 C1915 1.465 . S
C1921 C1920 1.396 . S
C1921 C1922 1.399 . S
C1922 H1908 0.929 . S
C1922 C1921 1.399 . S
C1922 C1923 1.385 . S
C1923 H1909 0.931 . S
C1923 C1922 1.385 . S
C1923 C1924 1.389 . S
C1924 C1923 1.389 . S
C1924 C1925 1.387 . S
C1925 H1910 0.930 . S
C1925 C1920 1.390 . S
C1925 C1924 1.387 . S
H1926 C1938 0.930 . S
H1927 C1940 0.930 . S
H1928 C1941 0.930 . S
H1929 C1945 0.959 . S
H1930 C1945 0.959 . S
H1931 C1945 0.961 . S
H1932 C1946 0.960 . S
H1933 C1946 0.961 . S
H1934 C1946 0.959 . S
H1935 C1949 0.929 . S
H1936 C1950 0.931 . S
H1937 C1952 0.930 . S
C1938 H1926 0.930 . S
C1938 C1939 1.399 . S
C1938 C1943 1.399 . S
C1939 C1938 1.399 . S
C1939 C1940 1.376 . S
C1940 H1927 0.930 . S
C1940 C1939 1.376 . S
C1940 C1941 1.388 . S
C1941 H1928 0.930 . S
C1941 C1940 1.388 . S
C1941 C1942 1.390 . S
C1942 C1941 1.390 . S
C1942 C1943 1.394 . S
C1942 C1948 1.465 . S
C1943 C1938 1.399 . S
C1943 C1942 1.394 . S
C1943 C1944 1.516 . S
C1944 C1943 1.516 . S
C1944 C1945 1.502 . S
C1944 C1946 1.561 . S
C1944 C1947 1.526 . S
C1945 H1929 0.959 . S
C1945 H1930 0.959 . S
C1945 H1931 0.961 . S
C1945 C1944 1.502 . S
C1946 H1932 0.960 . S
C1946 H1933 0.961 . S
C1946 H1934 0.959 . S
C1946 C1944 1.561 . S
C1947 C1944 1.526 . S
C1947 C1948 1.396 . S
C1947 C1952 1.390 . S
C1948 C1942 1.465 . S
C1948 C1947 1.396 . S
C1948 C1949 1.399 . S
C1949 H1935 0.929 . S
C1949 C1948 1.399 . S
C1949 C1950 1.385 . S
C1950 H1936 0.931 . S
C1950 C1949 1.385 . S
C1950 C1951 1.389 . S
C1951 C1950 1.389 . S
C1951 C1952 1.387 . S
C1952 H1937 0.930 . S
C1952 C1947 1.390 . S
C1952 C1951 1.387 . S
H1953 C1965 0.930 . S
H1954 C1967 0.930 . S
H1955 C1968 0.930 . S
H1956 C1972 0.959 . S
H1957 C1972 0.959 . S
H1958 C1972 0.961 . S
H1959 C1973 0.960 . S
H1960 C1973 0.961 . S
H1961 C1973 0.959 . S
H1962 C1976 0.929 . S
H1963 C1977 0.931 . S
H1964 C1979 0.930 . S
C1965 H1953 0.930 . S
C1965 C1966 1.399 . S
C1965 C1970 1.399 . S
C1966 C1965 1.399 . S
C1966 C1967 1.376 . S
C1967 H1954 0.930 . S
C1967 C1966 1.376 . S
C1967 C1968 1.388 . S
C1968 H1955 0.930 . S
C1968 C1967 1.388 . S
C1968 C1969 1.390 . S
C1969 C1968 1.390 . S
C1969 C1970 1.394 . S
C1969 C1975 1.465 . S
C1970 C1965 1.399 . S
C1970 C1969 1.394 . S
C1970 C1971 1.516 . S
C1971 C1970 1.516 . S
C1971 C1972 1.502 . S
C1971 C1973 1.561 . S
C1971 C1974 1.526 . S
C1972 H1956 0.959 . S
C1972 H1957 0.959 . S
C1972 H1958 0.961 . S
C1972 C1971 1.502 . S
C1973 H1959 0.960 . S
C1973 H1960 0.961 . S
C1973 H1961 0.959 . S
C1973 C1971 1.561 . S
C1974 C1971 1.526 . S
C1974 C1975 1.396 . S
C1974 C1979 1.390 . S
C1975 C1969 1.465 . S
C1975 C1974 1.396 . S
C1975 C1976 1.399 . S
C1976 H1962 0.929 . S
C1976 C1975 1.399 . S
C1976 C1977 1.385 . S
C1977 H1963 0.931 . S
C1977 C1976 1.385 . S
C1977 C1978 1.389 . S
C1978 C1977 1.389 . S
C1978 C1979 1.387 . S
C1979 H1964 0.930 . S
C1979 C1974 1.390 . S
C1979 C1978 1.387 . S
H1980 C1992 0.930 . S
H1981 C1994 0.930 . S
H1982 C1995 0.930 . S
H1983 C1999 0.959 . S
H1984 C1999 0.959 . S
H1985 C1999 0.961 . S
H1986 C2000 0.960 . S
H1987 C2000 0.961 . S
H1988 C2000 0.959 . S
H1989 C2003 0.929 . S
H1990 C2004 0.931 . S
H1991 C2006 0.930 . S
C1992 H1980 0.930 . S
C1992 C1993 1.399 . S
C1992 C1997 1.399 . S
C1993 C1992 1.399 . S
C1993 C1994 1.376 . S
C1994 H1981 0.930 . S
C1994 C1993 1.376 . S
C1994 C1995 1.388 . S
C1995 H1982 0.930 . S
C1995 C1994 1.388 . S
C1995 C1996 1.390 . S
C1996 C1995 1.390 . S
C1996 C1997 1.394 . S
C1996 C2002 1.465 . S
C1997 C1992 1.399 . S
C1997 C1996 1.394 . S
C1997 C1998 1.516 . S
C1998 C1997 1.516 . S
C1998 C1999 1.502 . S
C1998 C2000 1.561 . S
C1998 C2001 1.526 . S
C1999 H1983 0.959 . S
C1999 H1984 0.959 . S
C1999 H1985 0.961 . S
C1999 C1998 1.502 . S
C2000 H1986 0.960 . S
C2000 H1987 0.961 . S
C2000 H1988 0.959 . S
C2000 C1998 1.561 . S
C2001 C1998 1.526 . S
C2001 C2002 1.396 . S
C2001 C2006 1.390 . S
C2002 C1996 1.465 . S
C2002 C2001 1.396 . S
C2002 C2003 1.399 . S
C2003 H1989 0.929 . S
C2003 C2002 1.399 . S
C2003 C2004 1.385 . S
C2004 H1990 0.931 . S
C2004 C2003 1.385 . S
C2004 C2005 1.389 . S
C2005 C2004 1.389 . S
C2005 C2006 1.387 . S
C2006 H1991 0.930 . S
C2006 C2001 1.390 . S
C2006 C2005 1.387 . S
H2007 C2019 0.930 . S
H2008 C2021 0.930 . S
H2009 C2022 0.930 . S
H2010 C2026 0.959 . S
H2011 C2026 0.959 . S
H2012 C2026 0.961 . S
H2013 C2027 0.960 . S
H2014 C2027 0.961 . S
H2015 C2027 0.959 . S
H2016 C2030 0.929 . S
H2017 C2031 0.931 . S
H2018 C2033 0.930 . S
C2019 H2007 0.930 . S
C2019 C2020 1.399 . S
C2019 C2024 1.399 1_545 S
C2020 C2019 1.399 . S
C2020 C2021 1.376 . S
C2021 H2008 0.930 . S
C2021 C2020 1.376 . S
C2021 C2022 1.388 . S
C2022 H2009 0.930 . S
C2022 C2021 1.388 . S
C2022 C2023 1.390 1_545 S
C2023 C2022 1.390 1_565 S
C2023 C2024 1.394 . S
C2023 C2029 1.465 . S
C2024 C2019 1.399 1_565 S
C2024 C2023 1.394 . S
C2024 C2025 1.516 . S
C2025 C2024 1.516 . S
C2025 C2026 1.502 . S
C2025 C2027 1.561 . S
C2025 C2028 1.526 . S
C2026 H2010 0.959 . S
C2026 H2011 0.959 . S
C2026 H2012 0.961 . S
C2026 C2025 1.502 . S
C2027 H2013 0.960 . S
C2027 H2014 0.961 . S
C2027 H2015 0.959 . S
C2027 C2025 1.561 . S
C2028 C2025 1.526 . S
C2028 C2029 1.396 . S
C2028 C2033 1.390 . S
C2029 C2023 1.465 . S
C2029 C2028 1.396 . S
C2029 C2030 1.399 . S
C2030 H2016 0.929 . S
C2030 C2029 1.399 . S
C2030 C2031 1.385 . S
C2031 H2017 0.931 . S
C2031 C2030 1.385 . S
C2031 C2032 1.389 . S
C2032 C2031 1.389 . S
C2032 C2033 1.387 . S
C2033 H2018 0.930 . S
C2033 C2028 1.390 . S
C2033 C2032 1.387 . S
H2034 C2046 0.930 . S
H2035 C2048 0.930 . S
H2036 C2049 0.930 . S
H2037 C2053 0.959 . S
H2038 C2053 0.959 . S
H2039 C2053 0.961 . S
H2040 C2054 0.960 . S
H2041 C2054 0.961 . S
H2042 C2054 0.959 . S
H2043 C2057 0.929 . S
H2044 C2058 0.931 . S
H2045 C2060 0.930 . S
C2046 H2034 0.930 . S
C2046 C2047 1.399 1_455 S
C2046 C2051 1.399 . S
C2047 C2046 1.399 1_655 S
C2047 C2048 1.376 . S
C2048 H2035 0.930 . S
C2048 C2047 1.376 . S
C2048 C2049 1.388 1_655 S
C2049 H2036 0.930 . S
C2049 C2048 1.388 1_455 S
C2049 C2050 1.390 . S
C2050 C2049 1.390 . S
C2050 C2051 1.394 . S
C2050 C2056 1.465 . S
C2051 C2046 1.399 . S
C2051 C2050 1.394 . S
C2051 C2052 1.516 . S
C2052 C2051 1.516 . S
C2052 C2053 1.502 . S
C2052 C2054 1.561 . S
C2052 C2055 1.526 . S
C2053 H2037 0.959 . S
C2053 H2038 0.959 . S
C2053 H2039 0.961 . S
C2053 C2052 1.502 . S
C2054 H2040 0.960 . S
C2054 H2041 0.961 . S
C2054 H2042 0.959 . S
C2054 C2052 1.561 . S
C2055 C2052 1.526 . S
C2055 C2056 1.396 . S
C2055 C2060 1.390 . S
C2056 C2050 1.465 . S
C2056 C2055 1.396 . S
C2056 C2057 1.399 . S
C2057 H2043 0.929 . S
C2057 C2056 1.399 . S
C2057 C2058 1.385 . S
C2058 H2044 0.931 . S
C2058 C2057 1.385 . S
C2058 C2059 1.389 . S
C2059 C2058 1.389 . S
C2059 C2060 1.387 . S
C2060 H2045 0.930 . S
C2060 C2055 1.390 . S
C2060 C2059 1.387 . S
H2061 C2073 0.930 . S
H2062 C2075 0.930 . S
H2063 C2076 0.930 . S
H2064 C2080 0.959 . S
H2065 C2080 0.959 . S
H2066 C2080 0.961 . S
H2067 C2081 0.960 . S
H2068 C2081 0.961 . S
H2069 C2081 0.959 . S
H2070 C2084 0.929 . S
H2071 C2085 0.931 . S
H2072 C2087 0.930 . S
C2073 H2061 0.930 . S
C2073 C2074 1.399 . S
C2073 C2078 1.399 . S
C2074 C2073 1.399 . S
C2074 C2075 1.376 . S
C2075 H2062 0.930 . S
C2075 C2074 1.376 . S
C2075 C2076 1.388 . S
C2076 H2063 0.930 . S
C2076 C2075 1.388 . S
C2076 C2077 1.390 . S
C2077 C2076 1.390 . S
C2077 C2078 1.394 . S
C2077 C2083 1.465 . S
C2078 C2073 1.399 . S
C2078 C2077 1.394 . S
C2078 C2079 1.516 . S
C2079 C2078 1.516 . S
C2079 C2080 1.502 . S
C2079 C2081 1.561 . S
C2079 C2082 1.526 . S
C2080 H2064 0.959 . S
C2080 H2065 0.959 . S
C2080 H2066 0.961 . S
C2080 C2079 1.502 . S
C2081 H2067 0.960 . S
C2081 H2068 0.961 . S
C2081 H2069 0.959 . S
C2081 C2079 1.561 . S
C2082 C2079 1.526 . S
C2082 C2083 1.396 . S
C2082 C2087 1.390 . S
C2083 C2077 1.465 . S
C2083 C2082 1.396 . S
C2083 C2084 1.399 . S
C2084 H2070 0.929 . S
C2084 C2083 1.399 . S
C2084 C2085 1.385 . S
C2085 H2071 0.931 . S
C2085 C2084 1.385 . S
C2085 C2086 1.389 . S
C2086 C2085 1.389 . S
C2086 C2087 1.387 . S
C2087 H2072 0.930 . S
C2087 C2082 1.390 . S
C2087 C2086 1.387 . S
H2088 C2100 0.930 . S
H2089 C2102 0.930 . S
H2090 C2103 0.930 . S
H2091 C2107 0.959 . S
H2092 C2107 0.959 . S
H2093 C2107 0.961 . S
H2094 C2108 0.960 . S
H2095 C2108 0.961 . S
H2096 C2108 0.959 . S
H2097 C2111 0.929 . S
H2098 C2112 0.931 . S
H2099 C2114 0.930 . S
C2100 H2088 0.930 . S
C2100 C2101 1.399 . S
C2100 C2105 1.399 . S
C2101 C2100 1.399 . S
C2101 C2102 1.376 . S
C2102 H2089 0.930 . S
C2102 C2101 1.376 . S
C2102 C2103 1.388 . S
C2103 H2090 0.930 . S
C2103 C2102 1.388 . S
C2103 C2104 1.390 . S
C2104 C2103 1.390 . S
C2104 C2105 1.394 . S
C2104 C2110 1.465 . S
C2105 C2100 1.399 . S
C2105 C2104 1.394 . S
C2105 C2106 1.516 . S
C2106 C2105 1.516 . S
C2106 C2107 1.502 . S
C2106 C2108 1.561 . S
C2106 C2109 1.526 . S
C2107 H2091 0.959 . S
C2107 H2092 0.959 . S
C2107 H2093 0.961 . S
C2107 C2106 1.502 . S
C2108 H2094 0.960 . S
C2108 H2095 0.961 . S
C2108 H2096 0.959 . S
C2108 C2106 1.561 . S
C2109 C2106 1.526 . S
C2109 C2110 1.396 . S
C2109 C2114 1.390 . S
C2110 C2104 1.465 . S
C2110 C2109 1.396 . S
C2110 C2111 1.399 . S
C2111 H2097 0.929 . S
C2111 C2110 1.399 . S
C2111 C2112 1.385 . S
C2112 H2098 0.931 . S
C2112 C2111 1.385 . S
C2112 C2113 1.389 . S
C2113 C2112 1.389 . S
C2113 C2114 1.387 . S
C2114 H2099 0.930 . S
C2114 C2109 1.390 . S
C2114 C2113 1.387 . S
H2115 C2127 0.930 . S
H2116 C2129 0.930 . S
H2117 C2130 0.930 . S
H2118 C2134 0.959 . S
H2119 C2134 0.959 . S
H2120 C2134 0.961 . S
H2121 C2135 0.960 . S
H2122 C2135 0.961 . S
H2123 C2135 0.959 . S
H2124 C2138 0.929 . S
H2125 C2139 0.931 . S
H2126 C2141 0.930 . S
C2127 H2115 0.930 . S
C2127 C2128 1.399 . S
C2127 C2132 1.399 . S
C2128 C2127 1.399 . S
C2128 C2129 1.376 . S
C2129 H2116 0.930 . S
C2129 C2128 1.376 . S
C2129 C2130 1.388 . S
C2130 H2117 0.930 . S
C2130 C2129 1.388 . S
C2130 C2131 1.390 . S
C2131 C2130 1.390 . S
C2131 C2132 1.394 . S
C2131 C2137 1.465 . S
C2132 C2127 1.399 . S
C2132 C2131 1.394 . S
C2132 C2133 1.516 . S
C2133 C2132 1.516 . S
C2133 C2134 1.502 . S
C2133 C2135 1.561 . S
C2133 C2136 1.526 . S
C2134 H2118 0.959 . S
C2134 H2119 0.959 . S
C2134 H2120 0.961 . S
C2134 C2133 1.502 . S
C2135 H2121 0.960 . S
C2135 H2122 0.961 . S
C2135 H2123 0.959 . S
C2135 C2133 1.561 . S
C2136 C2133 1.526 . S
C2136 C2137 1.396 . S
C2136 C2141 1.390 . S
C2137 C2131 1.465 . S
C2137 C2136 1.396 . S
C2137 C2138 1.399 . S
C2138 H2124 0.929 . S
C2138 C2137 1.399 . S
C2138 C2139 1.385 . S
C2139 H2125 0.931 . S
C2139 C2138 1.385 . S
C2139 C2140 1.389 . S
C2140 C2139 1.389 . S
C2140 C2141 1.387 . S
C2141 H2126 0.930 . S
C2141 C2136 1.390 . S
C2141 C2140 1.387 . S
H2142 C2154 0.930 . S
H2143 C2156 0.930 . S
H2144 C2157 0.930 . S
H2145 C2161 0.959 . S
H2146 C2161 0.959 . S
H2147 C2161 0.961 . S
H2148 C2162 0.960 . S
H2149 C2162 0.961 . S
H2150 C2162 0.959 . S
H2151 C2165 0.929 . S
H2152 C2166 0.931 . S
H2153 C2168 0.930 . S
C2154 H2142 0.930 . S
C2154 C2155 1.399 . S
C2154 C2159 1.399 . S
C2155 C2154 1.399 . S
C2155 C2156 1.376 . S
C2156 H2143 0.930 . S
C2156 C2155 1.376 . S
C2156 C2157 1.388 . S
C2157 H2144 0.930 . S
C2157 C2156 1.388 . S
C2157 C2158 1.390 . S
C2158 C2157 1.390 . S
C2158 C2159 1.394 . S
C2158 C2164 1.465 . S
C2159 C2154 1.399 . S
C2159 C2158 1.394 . S
C2159 C2160 1.516 . S
C2160 C2159 1.516 . S
C2160 C2161 1.502 . S
C2160 C2162 1.561 . S
C2160 C2163 1.526 . S
C2161 H2145 0.959 . S
C2161 H2146 0.959 . S
C2161 H2147 0.961 . S
C2161 C2160 1.502 . S
C2162 H2148 0.960 . S
C2162 H2149 0.961 . S
C2162 H2150 0.959 . S
C2162 C2160 1.561 . S
C2163 C2160 1.526 . S
C2163 C2164 1.396 . S
C2163 C2168 1.390 . S
C2164 C2158 1.465 . S
C2164 C2163 1.396 . S
C2164 C2165 1.399 . S
C2165 H2151 0.929 . S
C2165 C2164 1.399 . S
C2165 C2166 1.385 . S
C2166 H2152 0.931 . S
C2166 C2165 1.385 . S
C2166 C2167 1.389 . S
C2167 C2166 1.389 . S
C2167 C2168 1.387 . S
C2168 H2153 0.930 . S
C2168 C2163 1.390 . S
C2168 C2167 1.387 . S
H2169 C2181 0.930 . S
H2170 C2183 0.930 . S
H2171 C2184 0.930 . S
H2172 C2188 0.959 . S
H2173 C2188 0.959 . S
H2174 C2188 0.961 . S
H2175 C2189 0.960 . S
H2176 C2189 0.961 . S
H2177 C2189 0.959 . S
H2178 C2192 0.929 . S
H2179 C2193 0.931 . S
H2180 C2195 0.930 . S
C2181 H2169 0.930 . S
C2181 C2182 1.399 . S
C2181 C2186 1.399 1_565 S
C2182 C2181 1.399 . S
C2182 C2183 1.376 . S
C2183 H2170 0.930 . S
C2183 C2182 1.376 . S
C2183 C2184 1.388 . S
C2184 H2171 0.930 . S
C2184 C2183 1.388 . S
C2184 C2185 1.390 1_565 S
C2185 C2184 1.390 1_545 S
C2185 C2186 1.394 . S
C2185 C2191 1.465 . S
C2186 C2181 1.399 1_545 S
C2186 C2185 1.394 . S
C2186 C2187 1.516 . S
C2187 C2186 1.516 . S
C2187 C2188 1.502 . S
C2187 C2189 1.561 . S
C2187 C2190 1.526 . S
C2188 H2172 0.959 . S
C2188 H2173 0.959 . S
C2188 H2174 0.961 . S
C2188 C2187 1.502 . S
C2189 H2175 0.960 . S
C2189 H2176 0.961 . S
C2189 H2177 0.959 . S
C2189 C2187 1.561 . S
C2190 C2187 1.526 . S
C2190 C2191 1.396 . S
C2190 C2195 1.390 . S
C2191 C2185 1.465 . S
C2191 C2190 1.396 . S
C2191 C2192 1.399 . S
C2192 H2178 0.929 . S
C2192 C2191 1.399 . S
C2192 C2193 1.385 . S
C2193 H2179 0.931 . S
C2193 C2192 1.385 . S
C2193 C2194 1.389 . S
C2194 C2193 1.389 . S
C2194 C2195 1.387 . S
C2195 H2180 0.930 . S
C2195 C2190 1.390 . S
C2195 C2194 1.387 . S
H2196 C2208 0.930 . S
H2197 C2210 0.930 . S
H2198 C2211 0.930 . S
H2199 C2215 0.959 . S
H2200 C2215 0.959 . S
H2201 C2215 0.961 . S
H2202 C2216 0.960 . S
H2203 C2216 0.961 . S
H2204 C2216 0.959 . S
H2205 C2219 0.929 . S
H2206 C2220 0.931 . S
H2207 C2222 0.930 . S
C2208 H2196 0.930 . S
C2208 C2209 1.399 . S
C2208 C2213 1.399 1_455 S
C2209 C2208 1.399 . S
C2209 C2210 1.378 . S
C2210 H2197 0.930 . S
C2210 C2209 1.378 . S
C2210 C2211 1.387 1_455 S
C2211 H2198 0.930 . S
C2211 C2210 1.387 1_655 S
C2211 C2212 1.390 . S
C2212 C2211 1.390 . S
C2212 C2213 1.394 . S
C2212 C2218 1.465 . S
C2213 C2208 1.399 1_655 S
C2213 C2212 1.394 . S
C2213 C2214 1.516 . S
C2214 C2213 1.516 . S
C2214 C2215 1.502 . S
C2214 C2216 1.561 . S
C2214 C2217 1.526 . S
C2215 H2199 0.959 . S
C2215 H2200 0.959 . S
C2215 H2201 0.961 . S
C2215 C2214 1.502 . S
C2216 H2202 0.960 . S
C2216 H2203 0.961 . S
C2216 H2204 0.959 . S
C2216 C2214 1.561 . S
C2217 C2214 1.526 . S
C2217 C2218 1.396 . S
C2217 C2222 1.390 . S
C2218 C2212 1.465 . S
C2218 C2217 1.396 . S
C2218 C2219 1.399 . S
C2219 H2205 0.929 . S
C2219 C2218 1.399 . S
C2219 C2220 1.385 . S
C2220 H2206 0.931 . S
C2220 C2219 1.385 . S
C2220 C2221 1.389 . S
C2221 C2220 1.389 . S
C2221 C2222 1.387 . S
C2222 H2207 0.930 . S
C2222 C2217 1.390 . S
C2222 C2221 1.387 . S
H2223 C2235 0.930 . S
H2224 C2237 0.930 . S
H2225 C2238 0.930 . S
H2226 C2242 0.959 . S
H2227 C2242 0.959 . S
H2228 C2242 0.961 . S
H2229 C2243 0.960 . S
H2230 C2243 0.961 . S
H2231 C2243 0.959 . S
H2232 C2246 0.929 . S
H2233 C2247 0.931 . S
H2234 C2249 0.930 . S
C2235 H2223 0.930 . S
C2235 C2236 1.399 . S
C2235 C2240 1.399 . S
C2236 C2235 1.399 . S
C2236 C2237 1.376 . S
C2237 H2224 0.930 . S
C2237 C2236 1.376 . S
C2237 C2238 1.388 . S
C2238 H2225 0.930 . S
C2238 C2237 1.388 . S
C2238 C2239 1.390 . S
C2239 C2238 1.390 . S
C2239 C2240 1.394 . S
C2239 C2245 1.465 . S
C2240 C2235 1.399 . S
C2240 C2239 1.394 . S
C2240 C2241 1.516 . S
C2241 C2240 1.516 . S
C2241 C2242 1.502 . S
C2241 C2243 1.561 . S
C2241 C2244 1.526 . S
C2242 H2226 0.959 . S
C2242 H2227 0.959 . S
C2242 H2228 0.961 . S
C2242 C2241 1.502 . S
C2243 H2229 0.960 . S
C2243 H2230 0.961 . S
C2243 H2231 0.959 . S
C2243 C2241 1.561 . S
C2244 C2241 1.526 . S
C2244 C2245 1.396 . S
C2244 C2249 1.390 . S
C2245 C2239 1.465 . S
C2245 C2244 1.396 . S
C2245 C2246 1.399 . S
C2246 H2232 0.929 . S
C2246 C2245 1.399 . S
C2246 C2247 1.385 . S
C2247 H2233 0.931 . S
C2247 C2246 1.385 . S
C2247 C2248 1.389 . S
C2248 C2247 1.389 . S
C2248 C2249 1.387 . S
C2249 H2234 0.930 . S
C2249 C2244 1.390 . S
C2249 C2248 1.387 . S
H2250 C2262 0.930 . S
H2251 C2264 0.930 . S
H2252 C2265 0.930 . S
H2253 C2269 0.959 . S
H2254 C2269 0.959 . S
H2255 C2269 0.959 1_455 S
H2256 C2270 0.960 1_455 S
H2257 C2270 0.961 . S
H2258 C2270 0.959 . S
H2259 C2273 0.929 . S
H2260 C2274 0.931 . S
H2261 C2276 0.930 . S
C2262 H2250 0.930 . S
C2262 C2263 1.399 . S
C2262 C2267 1.399 1_455 S
C2263 C2262 1.399 . S
C2263 C2264 1.376 . S
C2264 H2251 0.930 . S
C2264 C2263 1.376 . S
C2264 C2265 1.388 1_455 S
C2265 H2252 0.930 . S
C2265 C2264 1.388 1_655 S
C2265 C2266 1.390 . S
C2266 C2265 1.390 . S
C2266 C2267 1.394 . S
C2266 C2272 1.465 . S
C2267 C2262 1.399 1_655 S
C2267 C2266 1.394 . S
C2267 C2268 1.516 . S
C2268 C2267 1.516 . S
C2268 C2269 1.502 . S
C2268 C2270 1.561 . S
C2268 C2271 1.526 . S
C2269 H2253 0.959 . S
C2269 H2254 0.959 . S
C2269 H2255 0.959 1_655 S
C2269 C2268 1.502 . S
C2270 H2256 0.960 1_655 S
C2270 H2257 0.961 . S
C2270 H2258 0.959 . S
C2270 C2268 1.561 . S
C2271 C2268 1.526 . S
C2271 C2272 1.396 . S
C2271 C2276 1.390 . S
C2272 C2266 1.465 . S
C2272 C2271 1.396 . S
C2272 C2273 1.399 . S
C2273 H2259 0.929 . S
C2273 C2272 1.399 . S
C2273 C2274 1.385 . S
C2274 H2260 0.931 . S
C2274 C2273 1.385 . S
C2274 C2275 1.389 . S
C2275 C2274 1.389 . S
C2275 C2276 1.387 . S
C2276 H2261 0.930 . S
C2276 C2271 1.390 . S
C2276 C2275 1.387 . S
H2277 C2289 0.930 . S
H2278 C2291 0.930 . S
H2279 C2292 0.930 . S
H2280 C2296 0.959 . S
H2281 C2296 0.959 . S
H2282 C2296 0.961 . S
H2283 C2297 0.960 . S
H2284 C2297 0.961 . S
H2285 C2297 0.959 . S
H2286 C2300 0.929 . S
H2287 C2301 0.931 . S
H2288 C2303 0.930 . S
C2289 H2277 0.930 . S
C2289 C2290 1.399 . S
C2289 C2294 1.399 . S
C2290 C2289 1.399 . S
C2290 C2291 1.376 . S
C2291 H2278 0.930 . S
C2291 C2290 1.376 . S
C2291 C2292 1.388 . S
C2292 H2279 0.930 . S
C2292 C2291 1.388 . S
C2292 C2293 1.390 . S
C2293 C2292 1.390 . S
C2293 C2294 1.394 . S
C2293 C2299 1.465 . S
C2294 C2289 1.399 . S
C2294 C2293 1.394 . S
C2294 C2295 1.516 . S
C2295 C2294 1.516 . S
C2295 C2296 1.502 . S
C2295 C2297 1.561 . S
C2295 C2298 1.526 . S
C2296 H2280 0.959 . S
C2296 H2281 0.959 . S
C2296 H2282 0.961 . S
C2296 C2295 1.502 . S
C2297 H2283 0.960 . S
C2297 H2284 0.961 . S
C2297 H2285 0.959 . S
C2297 C2295 1.561 . S
C2298 C2295 1.526 . S
C2298 C2299 1.396 . S
C2298 C2303 1.390 . S
C2299 C2293 1.465 . S
C2299 C2298 1.396 . S
C2299 C2300 1.399 . S
C2300 H2286 0.929 . S
C2300 C2299 1.399 . S
C2300 C2301 1.385 . S
C2301 H2287 0.931 . S
C2301 C2300 1.385 . S
C2301 C2302 1.389 . S
C2302 C2301 1.389 . S
C2302 C2303 1.387 . S
C2303 H2288 0.930 . S
C2303 C2298 1.390 . S
C2303 C2302 1.387 . S
H2304 C2316 0.930 . S
H2305 C2318 0.930 . S
H2306 C2319 0.930 1_545 S
H2307 C2323 0.959 . S
H2308 C2323 0.959 . S
H2309 C2323 0.961 . S
H2310 C2324 0.960 . S
H2311 C2324 0.961 . S
H2312 C2324 0.959 . S
H2313 C2327 0.929 . S
H2314 C2328 0.931 . S
H2315 C2330 0.930 . S
C2316 H2304 0.930 . S
C2316 C2317 1.399 . S
C2316 C2321 1.399 1_565 S
C2317 C2316 1.399 . S
C2317 C2318 1.376 . S
C2318 H2305 0.930 . S
C2318 C2317 1.376 . S
C2318 C2319 1.388 . S
C2319 H2306 0.930 1_565 S
C2319 C2318 1.388 . S
C2319 C2320 1.390 1_565 S
C2320 C2319 1.390 1_545 S
C2320 C2321 1.394 . S
C2320 C2326 1.465 . S
C2321 C2316 1.399 1_545 S
C2321 C2320 1.394 . S
C2321 C2322 1.516 . S
C2322 C2321 1.516 . S
C2322 C2323 1.502 . S
C2322 C2324 1.561 . S
C2322 C2325 1.526 . S
C2323 H2307 0.959 . S
C2323 H2308 0.959 . S
C2323 H2309 0.961 . S
C2323 C2322 1.502 . S
C2324 H2310 0.960 . S
C2324 H2311 0.961 . S
C2324 H2312 0.959 . S
C2324 C2322 1.561 . S
C2325 C2322 1.526 . S
C2325 C2326 1.396 . S
C2325 C2330 1.390 . S
C2326 C2320 1.465 . S
C2326 C2325 1.396 . S
C2326 C2327 1.399 . S
C2327 H2313 0.929 . S
C2327 C2326 1.399 . S
C2327 C2328 1.385 . S
C2328 H2314 0.931 . S
C2328 C2327 1.385 . S
C2328 C2329 1.389 . S
C2329 C2328 1.389 . S
C2329 C2330 1.387 . S
C2330 H2315 0.930 . S
C2330 C2325 1.390 . S
C2330 C2329 1.387 . S
H2331 C2343 0.930 . S
H2332 C2345 0.930 . S
H2333 C2346 0.930 . S
H2334 C2350 0.959 . S
H2335 C2350 0.959 . S
H2336 C2350 0.961 . S
H2337 C2351 0.960 . S
H2338 C2351 0.961 . S
H2339 C2351 0.959 . S
H2340 C2354 0.929 . S
H2341 C2355 0.931 . S
H2342 C2357 0.930 . S
C2343 H2331 0.930 . S
C2343 C2344 1.399 . S
C2343 C2348 1.399 . S
C2344 C2343 1.399 . S
C2344 C2345 1.376 . S
C2345 H2332 0.930 . S
C2345 C2344 1.376 . S
C2345 C2346 1.388 . S
C2346 H2333 0.930 . S
C2346 C2345 1.388 . S
C2346 C2347 1.390 . S
C2347 C2346 1.390 . S
C2347 C2348 1.394 . S
C2347 C2353 1.465 . S
C2348 C2343 1.399 . S
C2348 C2347 1.394 . S
C2348 C2349 1.516 . S
C2349 C2348 1.516 . S
C2349 C2350 1.502 . S
C2349 C2351 1.561 . S
C2349 C2352 1.526 . S
C2350 H2334 0.959 . S
C2350 H2335 0.959 . S
C2350 H2336 0.961 . S
C2350 C2349 1.502 . S
C2351 H2337 0.960 . S
C2351 H2338 0.961 . S
C2351 H2339 0.959 . S
C2351 C2349 1.561 . S
C2352 C2349 1.526 . S
C2352 C2353 1.396 . S
C2352 C2357 1.390 . S
C2353 C2347 1.465 . S
C2353 C2352 1.396 . S
C2353 C2354 1.399 . S
C2354 H2340 0.929 . S
C2354 C2353 1.399 . S
C2354 C2355 1.385 . S
C2355 H2341 0.931 . S
C2355 C2354 1.385 . S
C2355 C2356 1.389 . S
C2356 C2355 1.389 . S
C2356 C2357 1.387 . S
C2357 H2342 0.930 . S
C2357 C2352 1.390 . S
C2357 C2356 1.387 . S
H2358 C2370 0.930 . S
H2359 C2372 0.930 . S
H2360 C2373 0.930 . S
H2361 C2377 0.959 . S
H2362 C2377 0.959 . S
H2363 C2377 0.961 . S
H2364 C2378 0.960 . S
H2365 C2378 0.961 . S
H2366 C2378 0.959 . S
H2367 C2381 0.929 . S
H2368 C2382 0.931 . S
H2369 C2384 0.930 . S
C2370 H2358 0.930 . S
C2370 C2371 1.399 . S
C2370 C2375 1.399 . S
C2371 C2370 1.399 . S
C2371 C2372 1.376 . S
C2372 H2359 0.930 . S
C2372 C2371 1.376 . S
C2372 C2373 1.388 . S
C2373 H2360 0.930 . S
C2373 C2372 1.388 . S
C2373 C2374 1.390 . S
C2374 C2373 1.390 . S
C2374 C2375 1.394 . S
C2374 C2380 1.465 . S
C2375 C2370 1.399 . S
C2375 C2374 1.394 . S
C2375 C2376 1.516 . S
C2376 C2375 1.516 . S
C2376 C2377 1.502 . S
C2376 C2378 1.561 . S
C2376 C2379 1.526 . S
C2377 H2361 0.959 . S
C2377 H2362 0.959 . S
C2377 H2363 0.961 . S
C2377 C2376 1.502 . S
C2378 H2364 0.960 . S
C2378 H2365 0.961 . S
C2378 H2366 0.959 . S
C2378 C2376 1.561 . S
C2379 C2376 1.526 . S
C2379 C2380 1.396 . S
C2379 C2384 1.390 . S
C2380 C2374 1.465 . S
C2380 C2379 1.396 . S
C2380 C2381 1.399 . S
C2381 H2367 0.929 . S
C2381 C2380 1.399 . S
C2381 C2382 1.385 . S
C2382 H2368 0.931 . S
C2382 C2381 1.385 . S
C2382 C2383 1.389 . S
C2383 C2382 1.389 . S
C2383 C2384 1.387 . S
C2384 H2369 0.930 . S
C2384 C2379 1.390 . S
C2384 C2383 1.387 . S
H2385 C2397 0.930 . S
H2386 C2399 0.930 . S
H2387 C2400 0.930 . S
H2388 C2404 0.959 . S
H2389 C2404 0.959 . S
H2390 C2404 0.961 . S
H2391 C2405 0.960 . S
H2392 C2405 0.961 . S
H2393 C2405 0.959 . S
H2394 C2408 0.929 . S
H2395 C2409 0.931 . S
H2396 C2411 0.930 . S
C2397 H2385 0.930 . S
C2397 C2398 1.399 . S
C2397 C2402 1.399 . S
C2398 C2397 1.399 . S
C2398 C2399 1.376 . S
C2399 H2386 0.930 . S
C2399 C2398 1.376 . S
C2399 C2400 1.388 . S
C2400 H2387 0.930 . S
C2400 C2399 1.388 . S
C2400 C2401 1.390 . S
C2401 C2400 1.390 . S
C2401 C2402 1.394 . S
C2401 C2407 1.465 . S
C2402 C2397 1.399 . S
C2402 C2401 1.394 . S
C2402 C2403 1.516 . S
C2403 C2402 1.516 . S
C2403 C2404 1.502 . S
C2403 C2405 1.561 . S
C2403 C2406 1.526 . S
C2404 H2388 0.959 . S
C2404 H2389 0.959 . S
C2404 H2390 0.961 . S
C2404 C2403 1.502 . S
C2405 H2391 0.960 . S
C2405 H2392 0.961 . S
C2405 H2393 0.959 . S
C2405 C2403 1.561 . S
C2406 C2403 1.526 . S
C2406 C2407 1.396 . S
C2406 C2411 1.390 . S
C2407 C2401 1.465 . S
C2407 C2406 1.396 . S
C2407 C2408 1.399 . S
C2408 H2394 0.929 . S
C2408 C2407 1.399 . S
C2408 C2409 1.385 . S
C2409 H2395 0.931 . S
C2409 C2408 1.385 . S
C2409 C2410 1.389 . S
C2410 C2409 1.389 . S
C2410 C2411 1.387 . S
C2411 H2396 0.930 . S
C2411 C2406 1.390 . S
C2411 C2410 1.387 . S
H2412 C2424 0.930 . S
H2413 C2426 0.930 . S
H2414 C2427 0.930 . S
H2415 C2431 0.958 . S
H2416 C2431 0.959 . S
H2417 C2431 0.961 . S
H2418 C2432 0.960 . S
H2419 C2432 0.961 . S
H2420 C2432 0.959 . S
H2421 C2435 0.929 . S
H2422 C2436 0.931 . S
H2423 C2438 0.930 . S
C2424 H2412 0.930 . S
C2424 C2425 1.399 . S
C2424 C2429 1.399 . S
C2425 C2424 1.399 . S
C2425 C2426 1.376 . S
C2426 H2413 0.930 . S
C2426 C2425 1.376 . S
C2426 C2427 1.388 . S
C2427 H2414 0.930 . S
C2427 C2426 1.388 . S
C2427 C2428 1.390 . S
C2428 C2427 1.390 . S
C2428 C2429 1.394 . S
C2428 C2434 1.465 . S
C2429 C2424 1.399 . S
C2429 C2428 1.394 . S
C2429 C2430 1.516 1_565 S
C2430 C2429 1.516 1_545 S
C2430 C2431 1.502 . S
C2430 C2432 1.561 . S
C2430 C2433 1.526 1_545 S
C2431 H2415 0.958 . S
C2431 H2416 0.959 . S
C2431 H2417 0.961 . S
C2431 C2430 1.502 . S
C2432 H2418 0.960 . S
C2432 H2419 0.961 . S
C2432 H2420 0.959 . S
C2432 C2430 1.561 . S
C2433 C2430 1.526 1_565 S
C2433 C2434 1.396 . S
C2433 C2438 1.390 1_565 S
C2434 C2428 1.465 . S
C2434 C2433 1.396 . S
C2434 C2435 1.399 . S
C2435 H2421 0.929 . S
C2435 C2434 1.399 . S
C2435 C2436 1.385 . S
C2436 H2422 0.931 . S
C2436 C2435 1.385 . S
C2436 C2437 1.389 . S
C2437 C2436 1.389 . S
C2437 C2438 1.387 1_565 S
C2438 H2423 0.930 . S
C2438 C2433 1.390 1_545 S
C2438 C2437 1.387 1_545 S
H2439 C2451 0.930 . S
H2440 C2453 0.930 . S
H2441 C2454 0.930 . S
H2442 C2458 0.934 1_655 S
H2443 C2458 0.960 . S
H2444 C2458 0.950 . S
H2445 C2459 0.960 . S
H2446 C2459 0.961 . S
H2447 C2459 0.959 . S
H2448 C2462 0.929 . S
H2449 C2463 0.931 . S
H2450 C2465 0.930 . S
C2451 H2439 0.930 . S
C2451 C2452 1.399 . S
C2451 C2456 1.399 . S
C2452 C2451 1.399 . S
C2452 C2453 1.376 . S
C2453 H2440 0.930 . S
C2453 C2452 1.376 . S
C2453 C2454 1.388 . S
C2454 H2441 0.930 . S
C2454 C2453 1.388 . S
C2454 C2455 1.390 . S
C2455 C2454 1.390 . S
C2455 C2456 1.394 . S
C2455 C2461 1.465 . S
C2456 C2451 1.399 . S
C2456 C2455 1.394 . S
C2456 C2457 1.516 . S
C2457 C2456 1.516 . S
C2457 C2458 1.540 . S
C2457 C2459 1.561 . S
C2457 C2460 1.526 . S
C2458 H2442 0.934 1_455 S
C2458 H2443 0.960 . S
C2458 H2444 0.950 . S
C2458 C2457 1.540 . S
C2459 H2445 0.960 . S
C2459 H2446 0.961 . S
C2459 H2447 0.959 . S
C2459 C2457 1.561 . S
C2460 C2457 1.526 . S
C2460 C2461 1.396 . S
C2460 C2465 1.390 . S
C2461 C2455 1.465 . S
C2461 C2460 1.396 . S
C2461 C2462 1.399 . S
C2462 H2448 0.929 . S
C2462 C2461 1.399 . S
C2462 C2463 1.385 . S
C2463 H2449 0.931 . S
C2463 C2462 1.385 . S
C2463 C2464 1.389 . S
C2464 C2463 1.389 . S
C2464 C2465 1.387 . S
C2465 H2450 0.930 . S
C2465 C2460 1.390 . S
C2465 C2464 1.387 . S
H2466 C2478 0.930 . S
H2467 C2480 0.930 . S
H2468 C2481 0.930 . S
H2469 C2485 0.959 . S
H2470 C2485 0.959 . S
H2471 C2485 0.961 . S
H2472 C2486 0.960 . S
H2473 C2486 0.961 . S
H2474 C2486 0.959 . S
H2475 C2489 0.929 . S
H2476 C2490 0.931 . S
H2477 C2492 0.930 . S
C2478 H2466 0.930 . S
C2478 C2479 1.399 . S
C2478 C2483 1.399 . S
C2479 C2478 1.399 . S
C2479 C2480 1.376 . S
C2480 H2467 0.930 . S
C2480 C2479 1.376 . S
C2480 C2481 1.388 . S
C2481 H2468 0.930 . S
C2481 C2480 1.388 . S
C2481 C2482 1.390 . S
C2482 C2481 1.390 . S
C2482 C2483 1.394 . S
C2482 C2488 1.465 . S
C2483 C2478 1.399 . S
C2483 C2482 1.394 . S
C2483 C2484 1.516 . S
C2484 C2483 1.516 . S
C2484 C2485 1.502 . S
C2484 C2486 1.561 . S
C2484 C2487 1.526 . S
C2485 H2469 0.959 . S
C2485 H2470 0.959 . S
C2485 H2471 0.961 . S
C2485 C2484 1.502 . S
C2486 H2472 0.960 . S
C2486 H2473 0.961 . S
C2486 H2474 0.959 . S
C2486 C2484 1.561 . S
C2487 C2484 1.526 . S
C2487 C2488 1.396 . S
C2487 C2492 1.390 . S
C2488 C2482 1.465 . S
C2488 C2487 1.396 . S
C2488 C2489 1.399 . S
C2489 H2475 0.929 . S
C2489 C2488 1.399 . S
C2489 C2490 1.385 . S
C2490 H2476 0.931 . S
C2490 C2489 1.385 . S
C2490 C2491 1.389 . S
C2491 C2490 1.389 . S
C2491 C2492 1.387 . S
C2492 H2477 0.930 . S
C2492 C2487 1.390 . S
C2492 C2491 1.387 . S
H2493 C2505 0.930 . S
H2494 C2507 0.930 . S
H2495 C2508 0.930 . S
H2496 C2512 0.959 . S
H2497 C2512 0.959 . S
H2498 C2512 0.961 . S
H2499 C2513 0.960 . S
H2500 C2513 0.961 . S
H2501 C2513 0.959 . S
H2502 C2516 0.929 . S
H2503 C2517 0.931 . S
H2504 C2519 0.930 . S
C2505 H2493 0.930 . S
C2505 C2506 1.399 . S
C2505 C2510 1.399 . S
C2506 C2505 1.399 . S
C2506 C2507 1.376 1_655 S
C2507 H2494 0.930 . S
C2507 C2506 1.376 1_455 S
C2507 C2508 1.388 . S
C2508 H2495 0.930 . S
C2508 C2507 1.388 . S
C2508 C2509 1.390 . S
C2509 C2508 1.390 . S
C2509 C2510 1.394 1_455 S
C2509 C2515 1.465 . S
C2510 C2505 1.399 . S
C2510 C2509 1.394 1_655 S
C2510 C2511 1.516 . S
C2511 C2510 1.516 . S
C2511 C2512 1.502 . S
C2511 C2513 1.561 . S
C2511 C2514 1.526 . S
C2512 H2496 0.959 . S
C2512 H2497 0.959 . S
C2512 H2498 0.961 . S
C2512 C2511 1.502 . S
C2513 H2499 0.960 . S
C2513 H2500 0.961 . S
C2513 H2501 0.959 . S
C2513 C2511 1.561 . S
C2514 C2511 1.526 . S
C2514 C2515 1.396 1_655 S
C2514 C2519 1.390 . S
C2515 C2509 1.465 . S
C2515 C2514 1.396 1_455 S
C2515 C2516 1.399 . S
C2516 H2502 0.929 . S
C2516 C2515 1.399 . S
C2516 C2517 1.385 . S
C2517 H2503 0.931 . S
C2517 C2516 1.385 . S
C2517 C2518 1.389 1_455 S
C2518 C2517 1.389 1_655 S
C2518 C2519 1.387 . S
C2519 H2504 0.930 . S
C2519 C2514 1.390 . S
C2519 C2518 1.387 . S
H2520 C2532 0.930 . S
H2521 C2534 0.930 . S
H2522 C2535 0.930 . S
H2523 C2539 0.959 . S
H2524 C2539 0.959 . S
H2525 C2539 0.961 . S
H2526 C2540 0.960 . S
H2527 C2540 0.961 . S
H2528 C2540 0.959 . S
H2529 C2543 0.929 . S
H2530 C2544 0.931 . S
H2531 C2546 0.930 . S
C2532 H2520 0.930 . S
C2532 C2533 1.399 . S
C2532 C2537 1.399 . S
C2533 C2532 1.399 . S
C2533 C2534 1.376 . S
C2534 H2521 0.930 . S
C2534 C2533 1.376 . S
C2534 C2535 1.388 . S
C2535 H2522 0.930 . S
C2535 C2534 1.388 . S
C2535 C2536 1.390 . S
C2536 C2535 1.390 . S
C2536 C2537 1.394 . S
C2536 C2542 1.465 . S
C2537 C2532 1.399 . S
C2537 C2536 1.394 . S
C2537 C2538 1.516 . S
C2538 C2537 1.516 . S
C2538 C2539 1.502 . S
C2538 C2540 1.561 . S
C2538 C2541 1.526 . S
C2539 H2523 0.959 . S
C2539 H2524 0.959 . S
C2539 H2525 0.961 . S
C2539 C2538 1.502 . S
C2540 H2526 0.960 . S
C2540 H2527 0.961 . S
C2540 H2528 0.959 . S
C2540 C2538 1.561 . S
C2541 C2538 1.526 . S
C2541 C2542 1.396 . S
C2541 C2546 1.390 . S
C2542 C2536 1.465 . S
C2542 C2541 1.396 . S
C2542 C2543 1.399 . S
C2543 H2529 0.929 . S
C2543 C2542 1.399 . S
C2543 C2544 1.385 . S
C2544 H2530 0.931 . S
C2544 C2543 1.385 . S
C2544 C2545 1.389 . S
C2545 C2544 1.389 . S
C2545 C2546 1.387 . S
C2546 H2531 0.930 . S
C2546 C2541 1.390 . S
C2546 C2545 1.387 . S
H2547 C2559 0.930 . S
H2548 C2561 0.930 1_565 S
H2549 C2562 0.930 . S
H2550 C2566 0.959 . S
H2551 C2566 0.959 . S
H2552 C2566 0.961 . S
H2553 C2567 0.960 . S
H2554 C2567 0.961 . S
H2555 C2567 0.959 . S
H2556 C2570 0.929 . S
H2557 C2571 0.931 . S
H2558 C2573 0.930 . S
C2559 H2547 0.930 . S
C2559 C2560 1.399 . S
C2559 C2564 1.399 . S
C2560 C2559 1.399 . S
C2560 C2561 1.376 . S
C2561 H2548 0.930 1_545 S
C2561 C2560 1.376 . S
C2561 C2562 1.388 1_545 S
C2562 H2549 0.930 . S
C2562 C2561 1.388 1_565 S
C2562 C2563 1.390 1_565 S
C2563 C2562 1.390 1_545 S
C2563 C2564 1.394 . S
C2563 C2569 1.465 . S
C2564 C2559 1.399 . S
C2564 C2563 1.394 . S
C2564 C2565 1.516 . S
C2565 C2564 1.516 . S
C2565 C2566 1.502 . S
C2565 C2567 1.561 . S
C2565 C2568 1.526 . S
C2566 H2550 0.959 . S
C2566 H2551 0.959 . S
C2566 H2552 0.961 . S
C2566 C2565 1.502 . S
C2567 H2553 0.960 . S
C2567 H2554 0.961 . S
C2567 H2555 0.959 . S
C2567 C2565 1.561 . S
C2568 C2565 1.526 . S
C2568 C2569 1.396 . S
C2568 C2573 1.390 . S
C2569 C2563 1.465 . S
C2569 C2568 1.396 . S
C2569 C2570 1.399 1_545 S
C2570 H2556 0.929 . S
C2570 C2569 1.399 1_565 S
C2570 C2571 1.385 . S
C2571 H2557 0.931 . S
C2571 C2570 1.385 . S
C2571 C2572 1.389 1_565 S
C2572 C2571 1.389 1_545 S
C2572 C2573 1.387 . S
C2573 H2558 0.930 . S
C2573 C2568 1.390 . S
C2573 C2572 1.387 . S
H2574 C2586 0.930 . S
H2575 C2588 0.930 . S
H2576 C2589 0.930 . S
H2577 C2593 0.959 . S
H2578 C2593 0.959 . S
H2579 C2593 0.961 . S
H2580 C2594 0.960 . S
H2581 C2594 0.961 . S
H2582 C2594 0.959 . S
H2583 C2597 0.929 . S
H2584 C2598 0.931 . S
H2585 C2600 0.930 . S
C2586 H2574 0.930 . S
C2586 C2587 1.399 . S
C2586 C2591 1.399 . S
C2587 C2586 1.399 . S
C2587 C2588 1.376 . S
C2588 H2575 0.930 . S
C2588 C2587 1.376 . S
C2588 C2589 1.388 . S
C2589 H2576 0.930 . S
C2589 C2588 1.388 . S
C2589 C2590 1.390 . S
C2590 C2589 1.390 . S
C2590 C2591 1.394 . S
C2590 C2596 1.465 . S
C2591 C2586 1.399 . S
C2591 C2590 1.394 . S
C2591 C2592 1.516 . S
C2592 C2591 1.516 . S
C2592 C2593 1.502 . S
C2592 C2594 1.561 . S
C2592 C2595 1.526 . S
C2593 H2577 0.959 . S
C2593 H2578 0.959 . S
C2593 H2579 0.961 . S
C2593 C2592 1.502 . S
C2594 H2580 0.960 . S
C2594 H2581 0.961 . S
C2594 H2582 0.959 . S
C2594 C2592 1.561 . S
C2595 C2592 1.526 . S
C2595 C2596 1.396 . S
C2595 C2600 1.390 . S
C2596 C2590 1.465 . S
C2596 C2595 1.396 . S
C2596 C2597 1.399 . S
C2597 H2583 0.929 . S
C2597 C2596 1.399 . S
C2597 C2598 1.385 . S
C2598 H2584 0.931 . S
C2598 C2597 1.385 . S
C2598 C2599 1.389 . S
C2599 C2598 1.389 . S
C2599 C2600 1.387 . S
C2600 H2585 0.930 . S
C2600 C2595 1.390 . S
C2600 C2599 1.387 . S
H2601 C2613 0.930 . S
H2602 C2615 0.930 . S
H2603 C2616 0.930 . S
H2604 C2620 0.959 . S
H2605 C2620 0.959 . S
H2606 C2620 0.961 . S
H2607 C2621 0.960 . S
H2608 C2621 0.961 . S
H2609 C2621 0.959 . S
H2610 C2624 0.929 . S
H2611 C2625 0.931 . S
H2612 C2627 0.930 . S
C2613 H2601 0.930 . S
C2613 C2614 1.399 . S
C2613 C2618 1.399 . S
C2614 C2613 1.399 . S
C2614 C2615 1.376 . S
C2615 H2602 0.930 . S
C2615 C2614 1.376 . S
C2615 C2616 1.388 . S
C2616 H2603 0.930 . S
C2616 C2615 1.388 . S
C2616 C2617 1.390 . S
C2617 C2616 1.390 . S
C2617 C2618 1.394 . S
C2617 C2623 1.465 . S
C2618 C2613 1.399 . S
C2618 C2617 1.394 . S
C2618 C2619 1.516 . S
C2619 C2618 1.516 . S
C2619 C2620 1.502 . S
C2619 C2621 1.561 . S
C2619 C2622 1.526 . S
C2620 H2604 0.959 . S
C2620 H2605 0.959 . S
C2620 H2606 0.961 . S
C2620 C2619 1.502 . S
C2621 H2607 0.960 . S
C2621 H2608 0.961 . S
C2621 H2609 0.959 . S
C2621 C2619 1.561 . S
C2622 C2619 1.526 . S
C2622 C2623 1.396 . S
C2622 C2627 1.390 . S
C2623 C2617 1.465 . S
C2623 C2622 1.396 . S
C2623 C2624 1.399 . S
C2624 H2610 0.929 . S
C2624 C2623 1.399 . S
C2624 C2625 1.385 . S
C2625 H2611 0.931 . S
C2625 C2624 1.385 . S
C2625 C2626 1.389 . S
C2626 C2625 1.389 . S
C2626 C2627 1.387 . S
C2627 H2612 0.930 . S
C2627 C2622 1.390 . S
C2627 C2626 1.387 . S
H2628 C2640 0.930 . S
H2629 C2642 0.930 . S
H2630 C2643 0.930 . S
H2631 C2647 0.959 . S
H2632 C2647 0.959 . S
H2633 C2647 0.961 . S
H2634 C2648 0.960 . S
H2635 C2648 0.961 . S
H2636 C2648 0.959 . S
H2637 C2651 0.929 . S
H2638 C2652 0.931 . S
H2639 C2654 0.930 . S
C2640 H2628 0.930 . S
C2640 C2641 1.399 . S
C2640 C2645 1.399 . S
C2641 C2640 1.399 . S
C2641 C2642 1.376 . S
C2642 H2629 0.930 . S
C2642 C2641 1.376 . S
C2642 C2643 1.388 . S
C2643 H2630 0.930 . S
C2643 C2642 1.388 . S
C2643 C2644 1.390 . S
C2644 C2643 1.390 . S
C2644 C2645 1.394 . S
C2644 C2650 1.465 . S
C2645 C2640 1.399 . S
C2645 C2644 1.394 . S
C2645 C2646 1.516 . S
C2646 C2645 1.516 . S
C2646 C2647 1.502 . S
C2646 C2648 1.561 . S
C2646 C2649 1.526 . S
C2647 H2631 0.959 . S
C2647 H2632 0.959 . S
C2647 H2633 0.961 . S
C2647 C2646 1.502 . S
C2648 H2634 0.960 . S
C2648 H2635 0.961 . S
C2648 H2636 0.959 . S
C2648 C2646 1.561 . S
C2649 C2646 1.526 . S
C2649 C2650 1.396 . S
C2649 C2654 1.390 . S
C2650 C2644 1.465 . S
C2650 C2649 1.396 . S
C2650 C2651 1.399 . S
C2651 H2637 0.929 . S
C2651 C2650 1.399 . S
C2651 C2652 1.385 . S
C2652 H2638 0.931 . S
C2652 C2651 1.385 . S
C2652 C2653 1.389 . S
C2653 C2652 1.389 . S
C2653 C2654 1.387 . S
C2654 H2639 0.930 . S
C2654 C2649 1.390 . S
C2654 C2653 1.387 . S
H2655 C2667 0.930 . S
H2656 C2669 0.930 . S
H2657 C2670 0.930 . S
H2658 C2674 0.959 . S
H2659 C2674 0.959 . S
H2660 C2674 0.961 . S
H2661 C2675 0.960 . S
H2662 C2675 0.961 . S
H2663 C2675 0.959 . S
H2664 C2678 0.929 . S
H2665 C2679 0.931 . S
H2666 C2681 0.930 . S
C2667 H2655 0.930 . S
C2667 C2668 1.399 . S
C2667 C2672 1.399 . S
C2668 C2667 1.399 . S
C2668 C2669 1.376 . S
C2669 H2656 0.930 . S
C2669 C2668 1.376 . S
C2669 C2670 1.388 . S
C2670 H2657 0.930 . S
C2670 C2669 1.388 . S
C2670 C2671 1.390 . S
C2671 C2670 1.390 . S
C2671 C2672 1.394 . S
C2671 C2677 1.465 . S
C2672 C2667 1.399 . S
C2672 C2671 1.394 . S
C2672 C2673 1.516 . S
C2673 C2672 1.516 . S
C2673 C2674 1.502 . S
C2673 C2675 1.561 . S
C2673 C2676 1.526 . S
C2674 H2658 0.959 . S
C2674 H2659 0.959 . S
C2674 H2660 0.961 . S
C2674 C2673 1.502 . S
C2675 H2661 0.960 . S
C2675 H2662 0.961 . S
C2675 H2663 0.959 . S
C2675 C2673 1.561 . S
C2676 C2673 1.526 . S
C2676 C2677 1.396 . S
C2676 C2681 1.390 . S
C2677 C2671 1.465 . S
C2677 C2676 1.396 . S
C2677 C2678 1.399 . S
C2678 H2664 0.929 . S
C2678 C2677 1.399 . S
C2678 C2679 1.385 . S
C2679 H2665 0.931 . S
C2679 C2678 1.385 . S
C2679 C2680 1.389 . S
C2680 C2679 1.389 . S
C2680 C2681 1.387 . S
C2681 H2666 0.930 . S
C2681 C2676 1.390 . S
C2681 C2680 1.387 . S
H2682 C2694 0.930 . S
H2683 C2696 0.930 . S
H2684 C2697 0.930 . S
H2685 C2701 0.959 . S
H2686 C2701 0.959 . S
H2687 C2701 0.961 . S
H2688 C2702 0.960 . S
H2689 C2702 0.961 . S
H2690 C2702 0.959 . S
H2691 C2705 0.929 . S
H2692 C2706 0.931 . S
H2693 C2708 0.930 . S
C2694 H2682 0.930 . S
C2694 C2695 1.399 . S
C2694 C2699 1.399 . S
C2695 C2694 1.399 . S
C2695 C2696 1.376 . S
C2696 H2683 0.930 . S
C2696 C2695 1.376 . S
C2696 C2697 1.388 . S
C2697 H2684 0.930 . S
C2697 C2696 1.388 . S
C2697 C2698 1.390 . S
C2698 C2697 1.390 . S
C2698 C2699 1.394 . S
C2698 C2704 1.465 . S
C2699 C2694 1.399 . S
C2699 C2698 1.394 . S
C2699 C2700 1.516 . S
C2700 C2699 1.516 . S
C2700 C2701 1.502 . S
C2700 C2702 1.561 . S
C2700 C2703 1.526 . S
C2701 H2685 0.959 . S
C2701 H2686 0.959 . S
C2701 H2687 0.961 . S
C2701 C2700 1.502 . S
C2702 H2688 0.960 . S
C2702 H2689 0.961 . S
C2702 H2690 0.959 . S
C2702 C2700 1.561 . S
C2703 C2700 1.526 . S
C2703 C2704 1.396 . S
C2703 C2708 1.390 . S
C2704 C2698 1.465 . S
C2704 C2703 1.396 . S
C2704 C2705 1.399 . S
C2705 H2691 0.929 . S
C2705 C2704 1.399 . S
C2705 C2706 1.385 . S
C2706 H2692 0.931 . S
C2706 C2705 1.385 . S
C2706 C2707 1.389 . S
C2707 C2706 1.389 . S
C2707 C2708 1.387 . S
C2708 H2693 0.930 . S
C2708 C2703 1.390 . S
C2708 C2707 1.387 . S
H2709 C2721 0.930 . S
H2710 C2723 0.930 . S
H2711 C2724 0.930 . S
H2712 C2728 0.959 . S
H2713 C2728 0.959 . S
H2714 C2728 0.961 . S
H2715 C2729 0.960 . S
H2716 C2729 0.961 . S
H2717 C2729 0.959 . S
H2718 C2732 0.929 . S
H2719 C2733 0.931 . S
H2720 C2735 0.930 . S
C2721 H2709 0.930 . S
C2721 C2722 1.399 . S
C2721 C2726 1.399 . S
C2722 C2721 1.399 . S
C2722 C2723 1.376 . S
C2723 H2710 0.930 . S
C2723 C2722 1.376 . S
C2723 C2724 1.388 . S
C2724 H2711 0.930 . S
C2724 C2723 1.388 . S
C2724 C2725 1.390 . S
C2725 C2724 1.390 . S
C2725 C2726 1.394 . S
C2725 C2731 1.465 . S
C2726 C2721 1.399 . S
C2726 C2725 1.394 . S
C2726 C2727 1.516 . S
C2727 C2726 1.516 . S
C2727 C2728 1.502 . S
C2727 C2729 1.561 . S
C2727 C2730 1.526 . S
C2728 H2712 0.959 . S
C2728 H2713 0.959 . S
C2728 H2714 0.961 . S
C2728 C2727 1.502 . S
C2729 H2715 0.960 . S
C2729 H2716 0.961 . S
C2729 H2717 0.959 . S
C2729 C2727 1.561 . S
C2730 C2727 1.526 . S
C2730 C2731 1.396 . S
C2730 C2735 1.390 . S
C2731 C2725 1.465 . S
C2731 C2730 1.396 . S
C2731 C2732 1.399 . S
C2732 H2718 0.929 . S
C2732 C2731 1.399 . S
C2732 C2733 1.385 . S
C2733 H2719 0.931 . S
C2733 C2732 1.385 . S
C2733 C2734 1.389 . S
C2734 C2733 1.389 . S
C2734 C2735 1.387 . S
C2735 H2720 0.930 . S
C2735 C2730 1.390 . S
C2735 C2734 1.387 . S
H2736 C2748 0.930 . S
H2737 C2750 0.930 . S
H2738 C2751 0.930 . S
H2739 C2755 0.959 . S
H2740 C2755 0.959 . S
H2741 C2755 0.961 . S
H2742 C2756 0.960 . S
H2743 C2756 0.961 . S
H2744 C2756 0.959 . S
H2745 C2759 0.929 . S
H2746 C2760 0.931 . S
H2747 C2762 0.930 . S
C2748 H2736 0.930 . S
C2748 C2749 1.399 . S
C2748 C2753 1.399 . S
C2749 C2748 1.399 . S
C2749 C2750 1.376 . S
C2750 H2737 0.930 . S
C2750 C2749 1.376 . S
C2750 C2751 1.388 . S
C2751 H2738 0.930 . S
C2751 C2750 1.388 . S
C2751 C2752 1.390 . S
C2752 C2751 1.390 . S
C2752 C2753 1.394 . S
C2752 C2758 1.465 . S
C2753 C2748 1.399 . S
C2753 C2752 1.394 . S
C2753 C2754 1.516 . S
C2754 C2753 1.516 . S
C2754 C2755 1.502 . S
C2754 C2756 1.561 . S
C2754 C2757 1.526 . S
C2755 H2739 0.959 . S
C2755 H2740 0.959 . S
C2755 H2741 0.961 . S
C2755 C2754 1.502 . S
C2756 H2742 0.960 . S
C2756 H2743 0.961 . S
C2756 H2744 0.959 . S
C2756 C2754 1.561 . S
C2757 C2754 1.526 . S
C2757 C2758 1.396 . S
C2757 C2762 1.390 . S
C2758 C2752 1.465 . S
C2758 C2757 1.396 . S
C2758 C2759 1.399 . S
C2759 H2745 0.929 . S
C2759 C2758 1.399 . S
C2759 C2760 1.385 . S
C2760 H2746 0.931 . S
C2760 C2759 1.385 . S
C2760 C2761 1.389 . S
C2761 C2760 1.389 . S
C2761 C2762 1.387 . S
C2762 H2747 0.930 . S
C2762 C2757 1.390 . S
C2762 C2761 1.387 . S
H2763 C2775 0.930 . S
H2764 C2777 0.930 . S
H2765 C2778 0.930 . S
H2766 C2782 0.959 . S
H2767 C2782 0.959 . S
H2768 C2782 0.961 . S
H2769 C2783 0.960 . S
H2770 C2783 0.961 . S
H2771 C2783 0.959 . S
H2772 C2786 0.929 . S
H2773 C2787 0.931 . S
H2774 C2789 0.930 . S
C2775 H2763 0.930 . S
C2775 C2776 1.399 . S
C2775 C2780 1.399 . S
C2776 C2775 1.399 . S
C2776 C2777 1.376 . S
C2777 H2764 0.930 . S
C2777 C2776 1.376 . S
C2777 C2778 1.388 . S
C2778 H2765 0.930 . S
C2778 C2777 1.388 . S
C2778 C2779 1.390 . S
C2779 C2778 1.390 . S
C2779 C2780 1.394 . S
C2779 C2785 1.465 . S
C2780 C2775 1.399 . S
C2780 C2779 1.394 . S
C2780 C2781 1.516 . S
C2781 C2780 1.516 . S
C2781 C2782 1.502 . S
C2781 C2783 1.561 . S
C2781 C2784 1.526 . S
C2782 H2766 0.959 . S
C2782 H2767 0.959 . S
C2782 H2768 0.961 . S
C2782 C2781 1.502 . S
C2783 H2769 0.960 . S
C2783 H2770 0.961 . S
C2783 H2771 0.959 . S
C2783 C2781 1.561 . S
C2784 C2781 1.526 . S
C2784 C2785 1.396 . S
C2784 C2789 1.390 . S
C2785 C2779 1.465 . S
C2785 C2784 1.396 . S
C2785 C2786 1.399 . S
C2786 H2772 0.929 . S
C2786 C2785 1.399 . S
C2786 C2787 1.385 . S
C2787 H2773 0.931 . S
C2787 C2786 1.385 . S
C2787 C2788 1.389 . S
C2788 C2787 1.389 . S
C2788 C2789 1.387 . S
C2789 H2774 0.930 . S
C2789 C2784 1.390 . S
C2789 C2788 1.387 . S
H2790 C2802 0.930 . S
H2791 C2804 0.930 . S
H2792 C2805 0.930 . S
H2793 C2809 0.959 . S
H2794 C2809 0.959 . S
H2795 C2809 0.961 . S
H2796 C2810 0.960 . S
H2797 C2810 0.961 . S
H2798 C2810 0.959 . S
H2799 C2813 0.929 . S
H2800 C2814 0.931 . S
H2801 C2816 0.930 . S
C2802 H2790 0.930 . S
C2802 C2803 1.399 . S
C2802 C2807 1.399 . S
C2803 C2802 1.399 . S
C2803 C2804 1.376 . S
C2804 H2791 0.930 . S
C2804 C2803 1.376 . S
C2804 C2805 1.388 . S
C2805 H2792 0.930 . S
C2805 C2804 1.388 . S
C2805 C2806 1.390 . S
C2806 C2805 1.390 . S
C2806 C2807 1.394 . S
C2806 C2812 1.465 . S
C2807 C2802 1.399 . S
C2807 C2806 1.394 . S
C2807 C2808 1.516 . S
C2808 C2807 1.516 . S
C2808 C2809 1.502 . S
C2808 C2810 1.561 . S
C2808 C2811 1.526 . S
C2809 H2793 0.959 . S
C2809 H2794 0.959 . S
C2809 H2795 0.961 . S
C2809 C2808 1.502 . S
C2810 H2796 0.960 . S
C2810 H2797 0.961 . S
C2810 H2798 0.959 . S
C2810 C2808 1.561 . S
C2811 C2808 1.526 . S
C2811 C2812 1.396 . S
C2811 C2816 1.390 . S
C2812 C2806 1.465 . S
C2812 C2811 1.396 . S
C2812 C2813 1.399 . S
C2813 H2799 0.929 . S
C2813 C2812 1.399 . S
C2813 C2814 1.385 . S
C2814 H2800 0.931 . S
C2814 C2813 1.385 . S
C2814 C2815 1.389 . S
C2815 C2814 1.389 . S
C2815 C2816 1.387 . S
C2816 H2801 0.930 . S
C2816 C2811 1.390 . S
C2816 C2815 1.387 . S
H2817 C2829 0.930 . S
H2818 C2831 0.930 . S
H2819 C2832 0.930 . S
H2820 C2836 0.959 . S
H2821 C2836 0.959 . S
H2822 C2836 0.961 . S
H2823 C2837 0.960 . S
H2824 C2837 0.961 . S
H2825 C2837 0.959 . S
H2826 C2840 0.929 . S
H2827 C2841 0.931 . S
H2828 C2843 0.930 . S
C2829 H2817 0.930 . S
C2829 C2830 1.399 . S
C2829 C2834 1.399 . S
C2830 C2829 1.399 . S
C2830 C2831 1.376 . S
C2831 H2818 0.930 . S
C2831 C2830 1.376 . S
C2831 C2832 1.388 . S
C2832 H2819 0.930 . S
C2832 C2831 1.388 . S
C2832 C2833 1.390 . S
C2833 C2832 1.390 . S
C2833 C2834 1.394 . S
C2833 C2839 1.465 . S
C2834 C2829 1.399 . S
C2834 C2833 1.394 . S
C2834 C2835 1.516 . S
C2835 C2834 1.516 . S
C2835 C2836 1.502 . S
C2835 C2837 1.561 . S
C2835 C2838 1.526 . S
C2836 H2820 0.959 . S
C2836 H2821 0.959 . S
C2836 H2822 0.961 . S
C2836 C2835 1.502 . S
C2837 H2823 0.960 . S
C2837 H2824 0.961 . S
C2837 H2825 0.959 . S
C2837 C2835 1.561 . S
C2838 C2835 1.526 . S
C2838 C2839 1.396 . S
C2838 C2843 1.390 . S
C2839 C2833 1.465 . S
C2839 C2838 1.396 . S
C2839 C2840 1.399 . S
C2840 H2826 0.929 . S
C2840 C2839 1.399 . S
C2840 C2841 1.385 . S
C2841 H2827 0.931 . S
C2841 C2840 1.385 . S
C2841 C2842 1.389 . S
C2842 C2841 1.389 . S
C2842 C2843 1.387 . S
C2843 H2828 0.930 . S
C2843 C2838 1.390 . S
C2843 C2842 1.387 . S
H2844 C2856 0.930 . S
H2845 C2858 0.930 . S
H2846 C2859 0.930 . S
H2847 C2863 0.959 . S
H2848 C2863 0.959 . S
H2849 C2863 0.961 . S
H2850 C2864 0.960 . S
H2851 C2864 0.961 . S
H2852 C2864 0.959 . S
H2853 C2867 0.929 . S
H2854 C2868 0.931 . S
H2855 C2870 0.930 . S
C2856 H2844 0.930 . S
C2856 C2857 1.399 . S
C2856 C2861 1.399 . S
C2857 C2856 1.399 . S
C2857 C2858 1.376 . S
C2858 H2845 0.930 . S
C2858 C2857 1.376 . S
C2858 C2859 1.388 . S
C2859 H2846 0.930 . S
C2859 C2858 1.388 . S
C2859 C2860 1.390 . S
C2860 C2859 1.390 . S
C2860 C2861 1.394 . S
C2860 C2866 1.465 . S
C2861 C2856 1.399 . S
C2861 C2860 1.394 . S
C2861 C2862 1.516 . S
C2862 C2861 1.516 . S
C2862 C2863 1.502 . S
C2862 C2864 1.561 . S
C2862 C2865 1.526 . S
C2863 H2847 0.959 . S
C2863 H2848 0.959 . S
C2863 H2849 0.961 . S
C2863 C2862 1.502 . S
C2864 H2850 0.960 . S
C2864 H2851 0.961 . S
C2864 H2852 0.959 . S
C2864 C2862 1.561 . S
C2865 C2862 1.526 . S
C2865 C2866 1.396 . S
C2865 C2870 1.390 . S
C2866 C2860 1.465 . S
C2866 C2865 1.396 . S
C2866 C2867 1.399 . S
C2867 H2853 0.929 . S
C2867 C2866 1.399 . S
C2867 C2868 1.385 . S
C2868 H2854 0.931 . S
C2868 C2867 1.385 . S
C2868 C2869 1.389 . S
C2869 C2868 1.389 . S
C2869 C2870 1.387 . S
C2870 H2855 0.930 . S
C2870 C2865 1.390 . S
C2870 C2869 1.387 . S
H2871 C2883 0.930 . S
H2872 C2885 0.930 . S
H2873 C2886 0.930 . S
H2874 C2890 0.959 . S
H2875 C2890 0.959 . S
H2876 C2890 0.961 . S
H2877 C2891 0.960 . S
H2878 C2891 0.961 . S
H2879 C2891 0.959 . S
H2880 C2894 0.929 . S
H2881 C2895 0.931 . S
H2882 C2897 0.930 . S
C2883 H2871 0.930 . S
C2883 C2884 1.399 . S
C2883 C2888 1.399 . S
C2884 C2883 1.399 . S
C2884 C2885 1.376 . S
C2885 H2872 0.930 . S
C2885 C2884 1.376 . S
C2885 C2886 1.388 . S
C2886 H2873 0.930 . S
C2886 C2885 1.388 . S
C2886 C2887 1.390 . S
C2887 C2886 1.390 . S
C2887 C2888 1.394 . S
C2887 C2893 1.465 . S
C2888 C2883 1.399 . S
C2888 C2887 1.394 . S
C2888 C2889 1.516 . S
C2889 C2888 1.516 . S
C2889 C2890 1.502 . S
C2889 C2891 1.561 . S
C2889 C2892 1.526 . S
C2890 H2874 0.959 . S
C2890 H2875 0.959 . S
C2890 H2876 0.961 . S
C2890 C2889 1.502 . S
C2891 H2877 0.960 . S
C2891 H2878 0.961 . S
C2891 H2879 0.959 . S
C2891 C2889 1.561 . S
C2892 C2889 1.526 . S
C2892 C2893 1.396 . S
C2892 C2897 1.390 . S
C2893 C2887 1.465 . S
C2893 C2892 1.396 . S
C2893 C2894 1.399 . S
C2894 H2880 0.929 . S
C2894 C2893 1.399 . S
C2894 C2895 1.385 . S
C2895 H2881 0.931 . S
C2895 C2894 1.385 . S
C2895 C2896 1.389 . S
C2896 C2895 1.389 . S
C2896 C2897 1.387 . S
C2897 H2882 0.930 . S
C2897 C2892 1.390 . S
C2897 C2896 1.387 . S
C1453 C781 1.660 . S
C1465 C1089 1.668 . S
C1480 C871 1.706 . S
C1492 C1129 1.738 . S
C1507 C751 1.712 . S
C1519 C1168 1.767 . S
C1534 C691 1.555 . S
C1546 C1128 1.592 . S
C1573 C1169 1.472 . S
C1561 C571 1.364 . S
C1588 C601 1.395 . S
C1600 C1088 1.452 . S
C1627 C1099 1.627 . S
C1615 C661 1.584 . S
C1654 C1139 1.726 . S
C1642 C541 1.721 . S
C1669 C631 1.787 . S
C1681 C1178 1.720 . S
C1696 C811 1.599 . S
C1708 C1138 1.536 . S
C1723 C841 1.466 . S
C1735 C1179 1.419 . S
C1762 C1098 1.418 . S
C1750 C721 1.413 . S
C1789 C1209 1.625 . S
C1777 C61 1.690 . S
C1804 C151 1.741 . S
C1816 C1249 1.721 . S
C1831 C31 1.665 . S
C1843 C1288 1.710 . S
C1858 C1051 1.498 . S
C1870 C1248 1.531 . S
C1885 C931 1.406 . S
C1897 C1289 1.469 . S
C1912 C961 1.428 . S
C1924 C1208 1.428 . S
C1939 C1021 1.616 . S
C1951 C1219 1.608 . S
C1966 C901 1.702 . S
C1978 C1259 1.769 . S
C2005 C1298 1.715 . S
C1993 C991 1.784 . S
C2020 C91 1.601 . S
C2032 C1258 1.537 . S
C2059 C1299 1.415 . S
C2047 C121 1.447 . S
C2074 C1 1.363 . S
C2086 C1218 1.453 . S
C2113 C1329 1.656 . S
C2101 C421 1.671 . S
C2128 C511 1.762 . S
C2140 C1369 1.733 . S
C2167 C1408 1.709 . S
C2155 C391 1.669 . S
C2194 C1368 1.529 . S
C2182 C331 1.504 . S
C2221 C1409 1.422 . S
C2209 C211 1.451 . S
C2236 C241 1.424 . S
C2248 C1328 1.430 . S
C2263 C301 1.560 . S
C2275 C1339 1.657 . S
C2290 C181 1.740 . S
C2302 C1379 1.721 . S
C2329 C1418 1.760 . S
C2317 C271 1.754 . S
C2344 C451 1.576 . S
C2356 C1378 1.573 . S
C2371 C481 1.445 . S
C2383 C1419 1.415 . S
C2398 C361 1.383 . S
C2410 C1338 1.443 . S
C2425 C920 1.314 . S
C2437 C1085 1.311 . S
C2464 C1125 1.859 . S
C2452 C980 1.851 . S
C2479 C1040 1.477 . S
C2491 C1175 1.578 . S
C2506 C380 1.813 . S
C2518 C1135 1.847 . S
C2533 C440 1.567 . S
C2545 C1165 1.578 . S
C2572 C1095 1.337 . S
C2560 C500 1.319 . S
C2587 C200 1.314 . S
C2599 C1205 1.310 . S
C2614 C260 1.822 . S
C2626 C1245 1.845 . S
C2641 C320 1.478 . S
C2653 C1295 1.578 . S
C2668 C740 1.746 . S
C2680 C1255 1.856 . S
C2707 C1285 1.577 . S
C2695 C800 1.571 . S
C2722 C860 1.310 . S
C2734 C1215 1.332 . S
C2749 C560 1.307 . S
C2761 C1325 1.311 . S
C2776 C620 1.850 . S
C2788 C1365 1.859 . S
C2815 C1415 1.575 . S
C2803 C680 1.541 . S
C2830 C20 1.746 . S
C2842 C1375 1.857 . S
C2857 C80 1.572 . S
C2869 C1405 1.577 . S
C2884 C140 1.307 . S
C2896 C1335 1.321 . S
