# Generated by pormake.
# Topology zzz, (3,6)-cn, num edge types: 1
# Building blocks:
#     Node 0, Type 0, BuildingBlock: ESEHIV_clean_linker_0, # of connection points: 3
#     Node 1, Type 0, BuildingBlock: ESEHIV_clean_linker_0, # of connection points: 3
#     Node 2, Type 0, BuildingBlock: ESEHIV_clean_linker_0, # of connection points: 3
#     Node 3, Type 0, BuildingBlock: ESEHIV_clean_linker_0, # of connection points: 3
#     Node 4, Type 0, BuildingBlock: ESEHIV_clean_linker_0, # of connection points: 3
#     Node 5, Type 0, BuildingBlock: ESEHIV_clean_linker_0, # of connection points: 3
#     Node 6, Type 0, BuildingBlock: ESEHIV_clean_linker_0, # of connection points: 3
#     Node 7, Type 0, BuildingBlock: ESEHIV_clean_linker_0, # of connection points: 3
#     Node 8, Type 1, BuildingBlock: INOVEN_clean_sbu_0, # of connection points: 6
#     Node 9, Type 1, BuildingBlock: INOVEN_clean_sbu_0, # of connection points: 6
#     Node 10, Type 1, BuildingBlock: INOVEN_clean_sbu_0, # of connection points: 6
#     Node 11, Type 1, BuildingBlock: INOVEN_clean_sbu_0, # of connection points: 6
#     Edge 12, Type (0, 1), BuildingBlock: XUDNAN_clean_linker_2, # of connection points: 2
#     Edge 13, Type (0, 1), BuildingBlock: XUDNAN_clean_linker_2, # of connection points: 2
#     Edge 14, Type (0, 1), BuildingBlock: XUDNAN_clean_linker_2, # of connection points: 2
#     Edge 15, Type (0, 1), BuildingBlock: XUDNAN_clean_linker_2, # of connection points: 2
#     Edge 16, Type (0, 1), BuildingBlock: XUDNAN_clean_linker_2, # of connection points: 2
#     Edge 17, Type (0, 1), BuildingBlock: XUDNAN_clean_linker_2, # of connection points: 2
#     Edge 18, Type (0, 1), BuildingBlock: XUDNAN_clean_linker_2, # of connection points: 2
#     Edge 19, Type (0, 1), BuildingBlock: XUDNAN_clean_linker_2, # of connection points: 2
#     Edge 20, Type (0, 1), BuildingBlock: XUDNAN_clean_linker_2, # of connection points: 2
#     Edge 21, Type (0, 1), BuildingBlock: XUDNAN_clean_linker_2, # of connection points: 2
#     Edge 22, Type (0, 1), BuildingBlock: XUDNAN_clean_linker_2, # of connection points: 2
#     Edge 23, Type (0, 1), BuildingBlock: XUDNAN_clean_linker_2, # of connection points: 2
#     Edge 24, Type (0, 1), BuildingBlock: XUDNAN_clean_linker_2, # of connection points: 2
#     Edge 25, Type (0, 1), BuildingBlock: XUDNAN_clean_linker_2, # of connection points: 2
#     Edge 26, Type (0, 1), BuildingBlock: XUDNAN_clean_linker_2, # of connection points: 2
#     Edge 27, Type (0, 1), BuildingBlock: XUDNAN_clean_linker_2, # of connection points: 2
#     Edge 28, Type (0, 1), BuildingBlock: XUDNAN_clean_linker_2, # of connection points: 2
#     Edge 29, Type (0, 1), BuildingBlock: XUDNAN_clean_linker_2, # of connection points: 2
#     Edge 30, Type (0, 1), BuildingBlock: XUDNAN_clean_linker_2, # of connection points: 2
#     Edge 31, Type (0, 1), BuildingBlock: XUDNAN_clean_linker_2, # of connection points: 2
#     Edge 32, Type (0, 1), BuildingBlock: XUDNAN_clean_linker_2, # of connection points: 2
#     Edge 33, Type (0, 1), BuildingBlock: XUDNAN_clean_linker_2, # of connection points: 2
#     Edge 34, Type (0, 1), BuildingBlock: XUDNAN_clean_linker_2, # of connection points: 2
#     Edge 35, Type (0, 1), BuildingBlock: XUDNAN_clean_linker_2, # of connection points: 2
# Relax obj value: 0.487
# Max RMSD: 0.262
# Mean RMSD: 0.252
data_MOF--net-zzz--node1-INOVEN_clean_sbu_0--node2-ESEHIV_clean_linker_0--edge1-XUDNAN_clean_linker_2
_symmetry_space_group_name_H-M    P1
_symmetry_Int_Tables_number       1
_symmetry_cell_setting            triclinic
loop_
_symmetry_equiv_pos_as_xyz
'x, y, z'
_cell_length_a     45.474305
_cell_length_b     45.674194
_cell_length_c     14.313568
_cell_angle_alpha  89.913241
_cell_angle_beta   89.837287
_cell_angle_gamma 89.996103
loop_
_atom_site_label
_atom_site_type_symbol
_atom_site_fract_x
_atom_site_fract_y
_atom_site_fract_z
_atom_type_partial_charge
H0 H 0.79101 0.44563 0.37088 0.0
H1 H 0.71152 0.43781 0.21229 0.0
H2 H 0.72995 0.51712 0.36417 0.0
C3 C 0.7695 0.45381 0.35207 0.0
C4 C 0.76165 0.48195 0.3825 0.0
C5 C 0.75204 0.43772 0.28969 0.0
C6 C 0.72538 0.44999 0.25989 0.0
C7 C 0.71743 0.47881 0.28398 0.0
C8 C 0.73553 0.49474 0.34659 0.0
H9 H 0.08696 0.80121 0.34004 0.0
H10 H 0.08688 0.71883 0.1955 0.0
H11 H 0.01432 0.74193 0.3755 0.0
C12 C 0.07705 0.78006 0.32658 0.0
C13 C 0.04995 0.7736 0.36893 0.0
C14 C 0.09059 0.76064 0.2637 0.0
C15 C 0.07682 0.73388 0.24466 0.0
C16 C 0.04915 0.72703 0.28265 0.0
C17 C 0.03584 0.74676 0.34677 0.0
H18 H 0.73248 0.95259 0.31073 0.0
H19 H 0.81646 0.94854 0.17661 0.0
H20 H 0.80194 1.00912 0.40285 0.0
C21 C 0.75551 0.95843 0.3094 0.0
C22 C 0.76553 0.97948 0.37347 0.0
C23 C 0.77339 0.94724 0.23771 0.0
C24 C 0.80236 0.95713 0.23129 0.0
C25 C 0.81247 0.98044 0.28656 0.0
C26 C 0.79424 0.99126 0.35971 0.0
H27 H 0.45361 0.73971 0.33468 0.0
H28 H 0.52682 0.79896 0.34487 0.0
H29 H 0.44872 0.82221 0.19136 0.0
C30 C 0.46274 0.7611 0.31939 0.0
C31 C 0.44723 0.78038 0.26102 0.0
C32 C 0.49104 0.76749 0.35214 0.0
C33 C 0.50463 0.79393 0.32286 0.0
C34 C 0.4891 0.81388 0.26511 0.0
C35 C 0.46041 0.80703 0.23624 0.0
H36 H 0.22382 0.59134 0.15071 0.0
H37 H 0.30336 0.60024 0.30653 0.0
H38 H 0.28897 0.52384 0.13307 0.0
C39 C 0.2455 0.58333 0.16887 0.0
C40 C 0.25422 0.55606 0.13447 0.0
C41 C 0.26328 0.59965 0.22922 0.0
C42 C 0.29056 0.58811 0.2562 0.0
C43 C 0.30061 0.56068 0.22295 0.0
C44 C 0.28213 0.54487 0.16019 0.0
H45 H 0.94476 0.23627 0.16143 0.0
H46 H 0.93509 0.31719 0.30776 0.0
H47 H 1.01097 0.30224 0.13136 0.0
C48 C 0.95186 0.25852 0.17412 0.0
C49 C 0.97838 0.26768 0.13354 0.0
C50 C 0.93605 0.27615 0.23692 0.0
C51 C 0.94714 0.30399 0.25832 0.0
C52 C 0.9744 0.31395 0.22297 0.0
C53 C 0.99 0.29537 0.15981 0.0
H54 H 0.29165 0.95371 0.1106 0.0
H55 H 0.21399 0.95531 0.28001 0.0
H56 H 0.23362 0.02835 0.09945 0.0
C57 C 0.27099 0.96416 0.12858 0.0
C58 C 0.2646 0.99206 0.09225 0.0
C59 C 0.25307 0.951 0.19656 0.0
C60 C 0.22749 0.96524 0.22592 0.0
C61 C 0.22008 0.99293 0.19096 0.0
C62 C 0.23878 1.00655 0.12433 0.0
H63 H 0.58302 0.29747 0.09048 0.0
H64 H 0.50663 0.24252 0.1183 0.0
H65 H 0.58669 0.221 0.26403 0.0
C66 C 0.57295 0.27735 0.11508 0.0
C67 C 0.58865 0.25942 0.17701 0.0
C68 C 0.54343 0.27185 0.09296 0.0
C69 C 0.52958 0.24691 0.13274 0.0
C70 C 0.54543 0.22811 0.19343 0.0
C71 C 0.57482 0.2347 0.21497 0.0
Gd72 Gd 0.04638 0.01428 0.82983 0.0
Gd73 Gd 1.00059 0.02659 0.69931 0.0
C74 C 0.02269 0.9607 0.70108 0.0
C75 C 0.08062 0.99485 0.96022 0.0
C76 C 0.10227 0.97138 0.97272 0.0
C77 C 0.11958 0.96124 0.89807 0.0
C78 C 0.10447 0.95787 0.06006 0.0
C79 C 0.139 0.92225 0.99648 0.0
C80 C 0.12259 0.93357 0.07198 0.0
C81 C 0.13794 0.93695 0.91002 0.0
C82 C 0.06831 0.02955 0.65812 0.0
C83 C 0.02438 0.08028 0.82999 0.0
C84 C 0.9655 0.04591 0.57141 0.0
C85 C 0.94367 0.06952 0.56491 0.0
C86 C 0.91873 0.066 0.50867 0.0
C87 C 0.9476 0.09569 0.61418 0.0
C88 C 0.90344 0.11598 0.54319 0.0
C89 C 0.92782 0.11872 0.60311 0.0
C90 C 0.89869 0.08901 0.49807 0.0
C91 C 0.9786 1.00981 0.8685 0.0
O92 O 0.03401 0.96796 0.78295 0.0
O93 O 1.01214 0.98139 0.64616 0.0
O94 O 0.08786 0.01596 0.90309 0.0
O95 O 0.05327 0.98653 0.95093 0.0
O96 O 0.07928 0.03765 0.73714 0.0
O97 O 0.0465 0.01319 0.67354 0.0
O98 O 1.0107 0.07308 0.75171 0.0
O99 O 0.0372 0.05987 0.88054 0.0
O100 O 0.95871 0.02445 0.62774 0.0
O101 O 0.99306 0.05395 0.57819 0.0
O102 O 0.96888 1.00125 0.78829 0.0
O103 O 1.00002 0.0271 0.85602 0.0
H104 H 0.11819 0.97148 0.82988 0.0
H105 H 0.09118 0.96536 0.11827 0.0
H106 H 0.12214 0.92261 0.13909 0.0
H107 H 0.15038 0.92898 0.85066 0.0
H108 H 0.91513 0.04572 0.47124 0.0
H109 H 0.96651 0.09877 0.65886 0.0
H110 H 0.93271 0.1392 0.63771 0.0
H111 H 0.88002 0.086 0.45228 0.0
Gd112 Gd 0.52343 0.04238 0.8068 0.0
Gd113 Gd 0.50829 1.00072 0.66373 0.0
C114 C 0.57549 0.01465 0.68096 0.0
C115 C 0.55028 0.06143 0.95042 0.0
C116 C 0.57516 0.04438 0.98877 0.0
C117 C 0.60395 0.05137 0.96116 0.0
C118 C 0.56969 0.01648 0.02702 0.0
C119 C 0.61922 1.00087 0.98757 0.0
C120 C 0.59122 0.99479 0.02446 0.0
C121 C 0.62579 0.02988 0.96096 0.0
C122 C 0.5099 0.07013 0.6449 0.0
C123 C 0.45516 0.0292 0.79244 0.0
C124 C 0.487 0.97166 0.52493 0.0
C125 C 0.4634 0.95028 0.51286 0.0
C126 C 0.44754 0.93966 0.58999 0.0
C127 C 0.45634 0.94077 0.42302 0.0
C128 C 0.41606 0.91168 0.48596 0.0
C129 C 0.43298 0.92149 0.40953 0.0
C130 C 0.42395 0.92051 0.57661 0.0
C131 C 0.52209 0.97412 0.82866 0.0
O132 O 0.56779 0.02297 0.7657 0.0
O133 O 0.55505 1.00892 0.61882 0.0
O134 O 0.55486 0.07268 0.86745 0.0
O135 O 0.5245 0.04884 0.95687 0.0
O136 O 0.50391 0.08014 0.7277 0.0
O137 O 0.52431 0.04643 0.6515 0.0
O138 O 0.46249 1.0118 0.72187 0.0
O139 O 0.47535 0.0438 0.83892 0.0
O140 O 0.5093 0.96267 0.57452 0.0
O141 O 0.47876 0.99837 0.54546 0.0
O142 O 0.52953 0.96425 0.74732 0.0
O143 O 0.50696 0.99702 0.81804 0.0
H144 H 0.609 0.07273 0.93223 0.0
H145 H 0.54795 1.01047 0.05114 0.0
H146 H 0.58524 0.97292 0.04669 0.0
H147 H 0.64754 0.03584 0.93659 0.0
H148 H 0.4529 0.94682 0.66007 0.0
H149 H 0.46829 0.94909 0.36305 0.0
H150 H 0.42711 0.91573 0.33862 0.0
H151 H 0.41123 0.91344 0.63665 0.0
Gd152 Gd 0.49427 0.53244 0.81022 0.0
Gd153 Gd 0.53577 0.50752 0.64374 0.0
C154 C 0.52159 0.57792 0.65781 0.0
C155 C 0.47301 0.55202 0.9646 0.0
C156 C 0.44955 0.57288 0.98773 0.0
C157 C 0.42677 0.57865 0.92419 0.0
C158 C 0.45093 0.58858 0.07135 0.0
C159 C 0.40837 0.61746 0.02451 0.0
C160 C 0.4306 0.61075 0.0895 0.0
C161 C 0.40628 0.60073 0.94255 0.0
C162 C 0.46315 0.52494 0.64827 0.0
C163 C 0.50912 0.46195 0.79641 0.0
C164 C 0.55665 0.48628 0.49143 0.0
C165 C 0.57803 0.46268 0.47149 0.0
C166 C 0.60678 0.46941 0.44172 0.0
C167 C 0.57022 0.43324 0.48473 0.0
C168 C 0.61943 0.41763 0.43927 0.0
C169 C 0.59057 0.41107 0.46853 0.0
C170 C 0.62732 0.44708 0.42583 0.0
C171 C 0.56737 0.51461 0.80514 0.0
O172 O 0.50904 0.5747 0.74121 0.0
O173 O 0.53108 0.5555 0.607 0.0
O174 O 0.46435 0.52742 0.92631 0.0
O175 O 0.49648 0.5633 0.92467 0.0
O176 O 0.45195 0.53533 0.7246 0.0
O177 O 0.48976 0.51937 0.66433 0.0
O178 O 0.52171 0.46517 0.71316 0.0
O179 O 0.49945 0.48442 0.84675 0.0
O180 O 0.56743 0.50985 0.53091 0.0
O181 O 0.53106 0.4783 0.52632 0.0
O182 O 0.57815 0.50517 0.72686 0.0
O183 O 0.54051 0.52014 0.79133 0.0
H184 H 0.42535 0.56676 0.85901 0.0
H185 H 0.46845 0.58452 0.12087 0.0
H186 H 0.43348 0.62383 0.15183 0.0
H187 H 0.38952 0.60549 0.89108 0.0
H188 H 0.61339 0.49195 0.43093 0.0
H189 H 0.54828 0.42716 0.50717 0.0
H190 H 0.58325 0.38863 0.47643 0.0
H191 H 0.64928 0.45279 0.40283 0.0
Gd192 Gd 1.00053 0.50236 0.82694 0.0
Gd193 Gd 0.01938 0.54558 0.65618 0.0
C194 C 0.95076 0.52447 0.67943 0.0
C195 C 0.98343 0.48002 0.98273 0.0
C196 C 0.96339 0.45595 1.00736 0.0
C197 C 0.95949 0.43195 0.94717 0.0
C198 C 0.94616 0.45814 0.0881 0.0
C199 C 0.91994 0.41362 0.04568 0.0
C200 C 0.92451 0.43728 0.10681 0.0
C201 C 0.93793 0.41092 0.96627 0.0
C202 C 1.00925 0.472 0.66382 0.0
C203 C 0.06923 0.52287 0.80114 0.0
C204 C 0.03508 0.56839 0.49919 0.0
C205 C 0.05303 0.59387 0.47324 0.0
C206 C 0.05621 0.6176 0.53475 0.0
C207 C 0.06914 0.59341 0.38993 0.0
C208 C 0.09445 0.63818 0.43551 0.0
C209 C 0.08964 0.61539 0.37099 0.0
C210 C 0.07671 0.63963 0.5159 0.0
C211 C 1.01154 0.57616 0.81975 0.0
O212 O 0.95602 0.51282 0.76297 0.0
O213 O 0.9718 0.53542 0.62533 0.0
O214 O 1.00809 0.47247 0.94132 0.0
O215 O 0.97088 0.50316 0.94541 0.0
O216 O 1.00137 0.45991 0.7419 0.0
O217 O 1.01207 0.49895 0.67897 0.0
O218 O 0.06365 0.53258 0.71536 0.0
O219 O 0.04818 0.51362 0.85875 0.0
O220 O 1.00989 0.5742 0.53994 0.0
O221 O 0.0494 0.54666 0.53851 0.0
O222 O 0.01889 0.58793 0.74062 0.0
O223 O 1.00838 0.54915 0.80514 0.0
H224 H 0.97241 0.42998 0.88385 0.0
H225 H 0.94858 0.47667 0.13466 0.0
H226 H 0.91016 0.44067 0.16629 0.0
H227 H 0.93461 0.39313 0.91744 0.0
H228 H 0.04385 0.61843 0.59942 0.0
H229 H 0.06693 0.5753 0.34163 0.0
H230 H 0.1032 0.61323 0.30906 0.0
H231 H 0.0798 0.65693 0.5666 0.0
H232 H 0.21649 0.02068 0.35875 0.0
H233 H 0.16406 0.99358 0.1225 0.0
H234 H 0.11856 1.00446 0.21209 0.0
H235 H 0.1741 0.98833 0.52797 0.0
H236 H 0.17804 0.01649 0.61514 0.0
H237 H 0.20614 1.01158 0.52791 0.0
H238 H 0.20108 0.06579 0.47729 0.0
H239 H 0.17323 0.07107 0.56557 0.0
H240 H 0.16547 0.07991 0.44536 0.0
H241 H 0.07899 1.0105 0.33786 0.0
H242 H 0.04917 0.01557 0.48229 0.0
H243 H 0.12744 0.04022 0.63524 0.0
C244 C 0.1954 0.01845 0.32453 0.0
C245 C 0.19375 1.00733 0.23247 0.0
C246 C 0.16578 1.00311 0.19154 0.0
C247 C 0.13984 1.00892 0.24244 0.0
C248 C 0.1422 0.01897 0.33434 0.0
C249 C 0.16935 0.02422 0.37436 0.0
C250 C 0.16608 0.03288 0.4763 0.0
C251 C 0.18203 1.01101 0.54057 0.0
C252 C 0.17712 0.06428 0.49204 0.0
C253 C 0.13296 0.03094 0.48844 0.0
C254 C 0.11951 0.0229 0.40582 0.0
C255 C 0.08929 0.01745 0.40218 0.0
C256 C 0.07249 0.02032 0.48463 0.0
C257 C 0.08581 0.02873 0.56983 0.0
C258 C 0.11644 0.03439 0.57092 0.0
H259 H 0.52914 0.22269 0.37641 0.0
H260 H 0.53446 0.17439 0.11713 0.0
H261 H 0.52299 0.12837 0.20243 0.0
H262 H 0.5634 0.17124 0.51712 0.0
H263 H 0.5406 0.17683 0.61875 0.0
H264 H 0.54578 0.2061 0.53608 0.0
H265 H 0.48944 0.21056 0.51455 0.0
H266 H 0.48402 0.18152 0.59824 0.0
H267 H 0.46838 0.17864 0.48303 0.0
H268 H 0.51773 0.0866 0.32186 0.0
H269 H 0.514 0.05405 0.46051 0.0
H270 H 0.5092 0.13022 0.64005 0.0
C271 C 0.52677 0.20255 0.33731 0.0
C272 C 0.53196 0.20213 0.23981 0.0
C273 C 0.52977 0.17525 0.19131 0.0
C274 C 0.52352 0.149 0.23948 0.0
C275 C 0.51922 0.15002 0.3362 0.0
C276 C 0.52018 0.17627 0.3842 0.0
C277 C 0.51603 0.17143 0.48837 0.0
C278 C 0.54306 0.18203 0.54326 0.0
C279 C 0.48778 0.18643 0.52308 0.0
C280 C 0.51322 0.13833 0.49212 0.0
C281 C 0.51527 0.12628 0.40379 0.0
C282 C 0.51549 0.09593 0.39097 0.0
C283 C 0.51345 0.07756 0.47009 0.0
C284 C 0.51084 0.08951 0.56098 0.0
C285 C 0.51052 0.12034 0.57143 0.0
H286 H 0.35044 0.59063 0.28427 0.0
H287 H 0.31595 0.50246 0.25265 0.0
H288 H 0.35923 0.48313 0.33578 0.0
H289 H 0.42949 0.57367 0.28045 0.0
H290 H 0.43759 0.59951 0.37201 0.0
H291 H 0.40732 0.60612 0.29397 0.0
H292 H 0.37163 0.6106 0.43334 0.0
H293 H 0.40166 0.60444 0.51236 0.0
H294 H 0.36957 0.58129 0.51768 0.0
H295 H 0.40437 0.47364 0.43907 0.0
H296 H 0.4429 0.47576 0.56148 0.0
H297 H 0.44373 0.57026 0.54144 0.0
C298 C 0.35166 0.56719 0.29418 0.0
C299 C 0.32908 0.54828 0.2611 0.0
C300 C 0.33275 0.51768 0.2748 0.0
C301 C 0.35736 0.50641 0.32286 0.0
C302 C 0.37831 0.52587 0.35794 0.0
C303 C 0.37552 0.55568 0.34448 0.0
C304 C 0.39879 0.57237 0.39878 0.0
C305 C 0.41955 0.58888 0.33229 0.0
C306 C 0.38455 0.59339 0.46976 0.0
C307 C 0.41466 0.54739 0.44714 0.0
C308 C 0.40315 0.52063 0.42067 0.0
C309 C 0.4137 0.49449 0.45909 0.0
C310 C 0.43579 0.49583 0.52802 0.0
C311 C 0.44681 0.52309 0.55897 0.0
C312 C 0.43631 0.54908 0.51694 0.0
H313 H 0.94448 0.36359 0.28582 0.0
H314 H 0.03292 0.32903 0.25235 0.0
H315 H 0.05223 0.37111 0.34109 0.0
H316 H 0.96055 0.44167 0.29429 0.0
H317 H 0.93512 0.44865 0.3886 0.0
H318 H 0.92798 0.41947 0.30763 0.0
H319 H 0.92446 0.38169 0.43991 0.0
H320 H 0.93029 0.41058 0.523 0.0
H321 H 0.95397 0.37891 0.52328 0.0
H322 H 0.06145 0.41465 0.45143 0.0
H323 H 0.05888 0.45176 0.57788 0.0
H324 H 0.96408 0.45327 0.55487 0.0
C325 C 0.96799 0.36454 0.29634 0.0
C326 C 0.98696 0.34224 0.26141 0.0
C327 C 0.01765 0.34563 0.276 0.0
C328 C 0.02889 0.36951 0.32737 0.0
C329 C 1.00929 0.38996 0.36502 0.0
C330 C 0.97939 0.3875 0.35038 0.0
C331 C 0.96245 0.40971 0.40845 0.0
C332 C 0.94556 0.43119 0.34589 0.0
C333 C 0.94158 0.3943 0.47777 0.0
C334 C 0.98738 0.42502 0.4587 0.0
C335 C 0.01434 0.41381 0.43144 0.0
C336 C 0.04044 0.42378 0.4719 0.0
C337 C 0.03885 0.44505 0.54317 0.0
C338 C 1.01138 0.45599 0.57398 0.0
C339 C 0.98543 0.44599 0.53037 0.0
H340 H 0.82247 1.00329 0.11586 0.0
H341 H 0.86562 0.98729 0.38001 0.0
H342 H 0.91395 0.99854 0.30578 0.0
H343 H 0.87163 0.96525 0.98484 0.0
H344 H 0.86978 0.98845 0.88304 0.0
H345 H 0.83891 0.98626 0.96137 0.0
H346 H 0.83985 0.04252 0.98427 0.0
H347 H 0.87047 0.04503 0.90444 0.0
H348 H 0.87342 0.06013 0.0203 0.0
H349 H 0.95885 1.00623 0.19169 0.0
H350 H 0.99328 1.0081 0.05596 0.0
H351 H 0.91894 0.0134 0.86835 0.0
C352 C 0.84199 1.00329 0.15913 0.0
C353 C 0.84022 0.9949 0.25418 0.0
C354 C 0.86634 0.99432 0.30776 0.0
C355 C 0.89391 1.00043 0.26564 0.0
C356 C 0.89495 1.00693 0.16986 0.0
C357 C 0.86941 1.00854 0.11786 0.0
C358 C 0.87589 0.01219 0.01469 0.0
C359 C 0.86331 0.98651 0.95771 0.0
C360 C 0.86422 0.04173 0.97884 0.0
C361 C 0.90913 1.01169 0.01539 0.0
C362 C 0.92 1.00934 0.10529 0.0
C363 C 0.95036 1.00817 0.12141 0.0
C364 C 0.9698 1.00922 0.04403 0.0
C365 C 0.9588 1.0106 0.95163 0.0
C366 C 0.92808 0.01206 0.93803 0.0
H367 H 0.52335 0.82259 0.10954 0.0
H368 H 0.47978 0.86823 0.33558 0.0
H369 H 0.48847 0.91541 0.25488 0.0
H370 H 0.57886 0.88286 0.05259 0.0
H371 H 0.57632 0.87549 0.92923 0.0
H372 H 0.57168 0.84616 0.01247 0.0
H373 H 0.52118 0.83389 0.93886 0.0
H374 H 0.52541 0.86342 0.85667 0.0
H375 H 0.49347 0.86203 0.93139 0.0
H376 H 0.49419 0.95644 0.13882 0.0
H377 H 0.49955 0.98835 1.0001 0.0
H378 H 0.5409 0.91705 0.84937 0.0
C379 C 0.51707 0.84272 0.1441 0.0
C380 C 0.50186 0.8419 0.23055 0.0
C381 C 0.4924 0.8685 0.27126 0.0
C382 C 0.49705 0.89538 0.22555 0.0
C383 C 0.5113 0.89547 0.1391 0.0
C384 C 0.52167 0.86987 0.09936 0.0
C385 C 0.53393 0.87573 1.00207 0.0
C386 C 0.56717 0.8697 0.99893 0.0
C387 C 0.51751 0.8577 0.92791 0.0
C388 C 0.5276 0.90826 0.9917 0.0
C389 C 0.5148 0.91928 0.07196 0.0
C390 C 0.50485 0.94817 0.07651 0.0
C391 C 0.50795 0.96617 0.99722 0.0
C392 C 0.52108 0.95545 0.91423 0.0
C393 C 0.53128 0.92613 0.91226 0.0
H394 H 0.71203 0.48297 0.09617 0.0
H395 H 0.66602 0.50405 0.35235 0.0
H396 H 0.62185 0.51822 0.25975 0.0
H397 H 0.68072 0.54141 0.95163 0.0
H398 H 0.6797 0.51827 0.84979 0.0
H399 H 0.70747 0.51261 0.93746 0.0
H400 H 0.69113 0.45847 0.95411 0.0
H401 H 0.66318 0.464 0.86724 0.0
H402 H 0.65327 0.45029 0.98119 0.0
H403 H 0.58043 0.52593 0.13128 0.0
H404 H 0.54945 0.52806 0.98764 0.0
H405 H 0.62499 0.50218 0.82221 0.0
C406 C 0.69285 0.49114 0.13289 0.0
C407 C 0.69245 0.49241 0.23152 0.0
C408 C 0.66688 0.50309 0.27682 0.0
C409 C 0.64167 0.51104 0.22458 0.0
C410 C 0.64255 0.50859 0.12697 0.0
C411 C 0.66786 0.49922 0.08214 0.0
C412 C 0.66358 0.49723 0.97766 0.0
C413 C 0.68408 0.51866 0.92612 0.0
C414 C 0.66804 0.46563 0.94308 0.0
C415 C 0.63177 0.50654 0.96965 0.0
C416 C 0.6197 0.51311 0.05583 0.0
C417 C 0.58999 0.52112 0.06371 0.0
C418 C 0.57249 0.52231 0.98184 0.0
C419 C 0.58477 0.51549 0.89342 0.0
C420 C 0.61483 0.50776 0.88837 0.0
H421 H 0.02641 0.72313 0.10926 0.0
H422 H 0.04091 0.67203 0.35934 0.0
H423 H 0.02754 0.62673 0.27267 0.0
H424 H 0.96537 0.67829 1.009 0.0
H425 H 0.97915 0.68356 0.89198 0.0
H426 H 0.98455 0.71154 0.97889 0.0
H427 H 0.04068 0.70995 0.94756 0.0
H428 H 0.03556 0.68176 0.86168 0.0
H429 H 0.06003 0.67567 0.95864 0.0
H430 H 0.01847 0.58572 0.14737 0.0
H431 H 0.01423 0.55553 1.003 0.0
H432 H 1.00762 0.63485 0.83829 0.0
C433 C 0.02549 0.70253 0.1468 0.0
C434 C 0.03374 0.7012 0.24181 0.0
C435 C 0.03371 0.67367 0.28749 0.0
C436 C 0.02644 0.6478 0.23831 0.0
C437 C 0.01938 0.6498 0.14329 0.0
C438 C 0.01859 0.6767 0.09868 0.0
C439 C 1.01316 0.67329 0.99494 0.0
C440 C 0.98381 0.68751 0.96708 0.0
C441 C 0.03889 0.6859 0.93738 0.0
C442 C 1.01167 0.64028 0.98685 0.0
C443 C 0.01491 0.62684 0.07283 0.0
C444 C 0.01551 0.59621 0.0802 0.0
C445 C 1.01301 0.57916 0.99793 0.0
C446 C 1.01037 0.59279 0.90937 0.0
C447 C 1.00937 0.6237 0.9049 0.0
H448 H 0.89654 0.23417 0.17965 0.0
H449 H 0.91891 0.28778 0.41928 0.0
H450 H 0.89011 0.25582 0.51953 0.0
H451 H 0.82669 0.19432 0.28744 0.0
H452 H 0.83956 0.16041 0.23769 0.0
H453 H 0.84497 0.1944 0.17554 0.0
H454 H 0.90083 0.18374 0.16542 0.0
H455 H 0.89553 0.15012 0.22662 0.0
H456 H 0.92104 0.17686 0.27151 0.0
H457 H 0.87679 0.21178 0.60261 0.0
H458 H 0.88675 0.16175 0.65658 0.0
H459 H 0.88275 0.13091 0.37081 0.0
C460 C 0.89478 0.23961 0.25295 0.0
C461 C 0.91083 0.26329 0.29072 0.0
C462 C 0.90688 0.27017 0.38654 0.0
C463 C 0.89038 0.25185 0.44502 0.0
C464 C 0.8784 0.2263 0.40784 0.0
C465 C 0.88032 0.2202 0.31319 0.0
C466 C 0.87449 0.18805 0.29426 0.0
C467 C 0.84465 0.18407 0.2459 0.0
C468 C 0.89947 0.17391 0.2363 0.0
C469 C 0.87338 0.17643 0.39344 0.0
C470 C 0.87317 0.19909 0.45758 0.0
C471 C 0.87641 0.19391 0.55307 0.0
C472 C 0.88243 0.16538 0.5831 0.0
C473 C 0.88626 0.14252 0.51752 0.0
C474 C 0.87953 0.14781 0.42267 0.0
H475 H 0.26052 0.94886 0.38246 0.0
H476 H 0.27487 0.89908 0.13004 0.0
H477 H 0.31082 0.86813 0.21232 0.0
H478 H 0.32534 0.96159 0.42677 0.0
H479 H 0.32594 0.95881 0.55251 0.0
H480 H 0.29216 0.96638 0.49458 0.0
H481 H 0.26803 0.92127 0.57275 0.0
H482 H 0.3021 0.91369 0.63236 0.0
H483 H 0.28498 0.88575 0.56225 0.0
H484 H 0.35594 0.85675 0.29428 0.0
H485 H 0.40439 0.86711 0.36281 0.0
H486 H 0.36353 0.92503 0.56384 0.0
C487 C 0.26978 0.93007 0.34697 0.0
C488 C 0.26492 0.92607 0.25068 0.0
C489 C 0.27818 0.9022 0.20429 0.0
C490 C 0.29856 0.88445 0.25089 0.0
C491 C 0.30536 0.89086 0.34379 0.0
C492 C 0.29077 0.9128 0.3923 0.0
C493 C 0.30675 0.92053 0.48176 0.0
C494 C 0.31294 0.95374 0.48902 0.0
C495 C 0.28943 0.90964 0.56734 0.0
C496 C 0.33464 0.90288 0.46878 0.0
C497 C 0.33268 0.88454 0.392 0.0
C498 C 0.3574 0.87024 0.35617 0.0
C499 C 0.38494 0.87639 0.39512 0.0
C500 C 0.38757 0.89698 0.4683 0.0
C501 C 0.36194 0.90866 0.50949 0.0
H502 H 0.60394 0.263 0.35891 0.0
H503 H 0.63533 0.28297 0.08099 0.0
H504 H 0.66736 0.32123 0.14465 0.0
H505 H 0.58802 0.32172 0.42677 0.0
H506 H 0.60083 0.32299 0.54591 0.0
H507 H 0.59438 0.28849 0.49229 0.0
H508 H 0.64766 0.27236 0.52663 0.0
H509 H 0.65431 0.30714 0.5824 0.0
H510 H 0.67808 0.29486 0.48943 0.0
H511 H 0.67361 0.36845 0.21628 0.0
H512 H 0.65647 0.4141 0.28777 0.0
H513 H 0.62659 0.36587 0.53037 0.0
C514 C 0.61931 0.27396 0.31287 0.0
C515 C 0.61683 0.27055 0.21534 0.0
C516 C 0.63671 0.28553 0.15609 0.0
C517 C 0.65514 0.30728 0.19201 0.0
C518 C 0.65403 0.31322 0.28762 0.0
C519 C 0.63767 0.29592 0.34842 0.0
C520 C 0.63479 0.31042 0.44328 0.0
C521 C 0.60261 0.31098 0.47875 0.0
C522 C 0.65492 0.2953 0.51462 0.0
C523 C 0.6463 0.3407 0.41994 0.0
C524 C 0.65906 0.34142 0.33185 0.0
C525 C 0.66483 0.36798 0.28661 0.0
C526 C 0.65497 0.39403 0.32789 0.0
C527 C 0.63958 0.39328 0.4138 0.0
C528 C 0.63796 0.36672 0.46392 0.0
H529 H 0.22866 0.64141 0.14783 0.0
H530 H 0.2681 0.61746 0.412 0.0
H531 H 0.23295 0.64864 0.49404 0.0
H532 H 0.18872 0.71541 0.23552 0.0
H533 H 0.15714 0.70528 0.16709 0.0
H534 H 0.19371 0.69786 0.1239 0.0
H535 H 0.17996 0.64321 0.10359 0.0
H536 H 0.14384 0.65045 0.14623 0.0
H537 H 0.1661 0.62298 0.20276 0.0
H538 H 0.18533 0.66183 0.55108 0.0
H539 H 0.13316 0.65139 0.57405 0.0
H540 H 0.11765 0.66343 0.27838 0.0
C541 C 0.23052 0.64384 0.22276 0.0
C542 C 0.25073 0.62649 0.27334 0.0
C543 C 0.25306 0.63054 0.37092 0.0
C544 C 0.23293 0.64836 0.41845 0.0
C545 C 0.21037 0.66175 0.36788 0.0
C546 C 0.20933 0.66013 0.2712 0.0
C547 C 0.17903 0.66831 0.23506 0.0
C548 C 0.1797 0.69851 0.18762 0.0
C549 C 0.16653 0.64481 0.16828 0.0
C550 C 0.16213 0.66978 0.32629 0.0
C551 C 0.18101 0.66833 0.40208 0.0
C552 C 0.17044 0.6639 0.4926 0.0
C553 C 0.14052 0.65802 0.50518 0.0
C554 C 0.12149 0.65621 0.4274 0.0
C555 C 0.13197 0.66467 0.33852 0.0
H556 H 0.13677 0.79525 0.31832 0.0
H557 H 0.10079 0.75068 0.07733 0.0
H558 H 0.13058 0.78119 0.97429 0.0
H559 H 0.12283 0.85806 0.25114 0.0
H560 H 0.15459 0.87819 0.29048 0.0
H561 H 0.14503 0.84454 0.34619 0.0
H562 H 0.19684 0.82378 0.31082 0.0
H563 H 0.20673 0.85782 0.25472 0.0
H564 H 0.21066 0.82373 0.19268 0.0
H565 H 0.14415 0.82618 0.89981 0.0
H566 H 0.13931 0.87838 0.86632 0.0
H567 H 0.16751 0.89884 0.14759 0.0
C568 C 0.13623 0.79119 0.2439 0.0
C569 C 0.11603 0.77089 0.20637 0.0
C570 C 0.11617 0.76579 0.10883 0.0
C571 C 0.13317 0.78322 0.04913 0.0
C572 C 0.14997 0.80572 0.08753 0.0
C573 C 0.15228 0.80933 0.1834 0.0
C574 C 0.16513 0.83908 0.207 0.0
C575 C 0.1457 0.85592 0.27762 0.0
C576 C 0.19672 0.8359 0.24343 0.0
C577 C 0.16504 0.85321 0.11115 0.0
C578 C 0.15803 0.83306 0.04248 0.0
C579 C 0.15074 0.84193 0.95212 0.0
C580 C 0.1481 0.8719 0.93345 0.0
C581 C 0.15264 0.89275 1.005 0.0
C582 C 0.16368 0.88326 0.09206 0.0
H583 H 0.72776 0.90809 0.24391 0.0
H584 H 0.78671 0.95115 0.04972 0.0
H585 H 0.75006 0.94756 0.92787 0.0
H586 H 0.67025 0.87671 0.04687 0.0
H587 H 0.64074 0.88716 0.1242 0.0
H588 H 0.67405 0.87154 0.17108 0.0
H589 H 0.67959 0.91627 0.27956 0.0
H590 H 0.64681 0.93179 0.23339 0.0
H591 H 0.68052 0.95261 0.22958 0.0
H592 H 0.70532 0.96371 0.85822 0.0
H593 H 0.66154 0.9949 0.85099 0.0
H594 H 0.62785 0.95353 0.10214 0.0
C595 C 0.73313 0.91559 0.1742 0.0
C596 C 0.75945 0.93121 0.15836 0.0
C597 C 0.76664 0.93942 0.06563 0.0
C598 C 0.74557 0.93755 0.99499 0.0
C599 C 0.7173 0.92813 0.0184 0.0
C600 C 0.71112 0.91641 0.106 0.0
C601 C 0.67829 0.91711 0.12583 0.0
C602 C 0.66506 0.8863 0.11636 0.0
C603 C 0.67095 0.93032 0.22258 0.0
C604 C 0.6682 0.93646 0.04623 0.0
C605 C 0.69029 0.94011 0.9805 0.0
C606 C 0.6877 0.96044 0.90811 0.0
C607 C 0.663 0.97865 0.90596 0.0
C608 C 0.64166 0.97734 0.97805 0.0
C609 C 0.64358 0.95486 0.0456 0.0
H610 H 0.40379 0.74582 0.33501 0.0
H611 H 0.42976 0.78992 0.07988 0.0
H612 H 0.39872 0.75696 0.98984 0.0
H613 H 0.4224 0.68474 0.27132 0.0
H614 H 0.39424 0.66166 0.32137 0.0
H615 H 0.40117 0.69673 0.37088 0.0
H616 H 0.34654 0.71094 0.34798 0.0
H617 H 0.33952 0.67539 0.29794 0.0
H618 H 0.32995 0.70806 0.23416 0.0
H619 H 0.38688 0.71058 0.92342 0.0
H620 H 0.39758 0.65903 0.89226 0.0
H621 H 0.38237 0.6382 0.18328 0.0
C622 C 0.40182 0.74915 0.26044 0.0
C623 C 0.41987 0.7699 0.21459 0.0
C624 C 0.41625 0.77432 0.1175 0.0
C625 C 0.39853 0.75543 0.06529 0.0
C626 C 0.38479 0.73202 0.11069 0.0
C627 C 0.3857 0.72914 0.20717 0.0
C628 C 0.37722 0.69835 0.23714 0.0
C629 C 0.40016 0.68461 0.3038 0.0
C630 C 0.34647 0.69819 0.2819 0.0
C631 C 0.37662 0.68331 0.14289 0.0
C632 C 0.37871 0.70348 0.07069 0.0
C633 C 0.38421 0.69468 0.97892 0.0
C634 C 0.39028 0.66516 0.96162 0.0
C635 C 0.39112 0.64478 0.03598 0.0
C636 C 0.38187 0.65358 0.12578 0.0
H637 H 0.79061 0.39689 0.36071 0.0
H638 H 0.7444 0.42026 0.10682 0.0
H639 H 0.78037 0.39337 0.01516 0.0
H640 H 0.84992 0.42269 0.29581 0.0
H641 H 0.87594 0.3971 0.34452 0.0
H642 H 0.84019 0.4002 0.39494 0.0
H643 H 0.8317 0.34466 0.37073 0.0
H644 H 0.86791 0.3415 0.31979 0.0
H645 H 0.83621 0.32881 0.25633 0.0
H646 H 0.8279 0.38578 0.94715 0.0
H647 H 0.87888 0.40011 0.91483 0.0
H648 H 0.90074 0.38738 0.20582 0.0
C649 C 0.78758 0.39541 0.28594 0.0
C650 C 0.76511 0.41167 0.24153 0.0
C651 C 0.76119 0.40822 0.14401 0.0
C652 C 0.78186 0.39287 0.09058 0.0
C653 C 0.80661 0.38136 0.13493 0.0
C654 C 0.80935 0.38196 0.23141 0.0
C655 C 0.84101 0.37663 0.26059 0.0
C656 C 0.85239 0.4006 0.32764 0.0
C657 C 0.84439 0.34608 0.30441 0.0
C658 C 0.85609 0.37784 0.16612 0.0
C659 C 0.83573 0.37827 0.09429 0.0
C660 C 0.84405 0.38445 1.00236 0.0
C661 C 0.87319 0.3926 0.9844 0.0
C662 C 0.89357 0.39498 0.05831 0.0
C663 C 0.88541 0.38552 0.14858 0.0
H664 H 0.95527 0.2339 0.99216 0.0
H665 H 0.03643 0.2503 0.14122 0.0
H666 H 0.05847 0.20633 0.06776 0.0
H667 H 0.95469 0.15875 0.02357 0.0
H668 H 0.93962 0.14967 0.91091 0.0
H669 H 0.93181 0.18471 0.96271 0.0
H670 H 0.95216 0.21098 0.8158 0.0
H671 H 0.95975 0.17597 0.763 0.0
H672 H 0.98874 0.20261 0.77488 0.0
H673 H 0.0688 0.15618 0.99739 0.0
H674 H 0.06835 0.10699 0.92597 0.0
H675 H 0.98077 0.123 0.81875 0.0
C676 C 0.97803 0.22879 1.00718 0.0
C677 C 0.99419 0.24593 0.07229 0.0
C678 C 0.02375 0.23809 0.09061 0.0
C679 C 0.03633 0.21289 0.0497 0.0
C680 C 0.01927 0.19578 0.98948 0.0
C681 C 0.99087 0.20373 0.96695 0.0
C682 C 0.97645 0.18061 0.90552 0.0
C683 C 0.94903 0.16768 0.95356 0.0
C684 C 0.96883 0.1933 0.80906 0.0
C685 C 1.00092 0.15801 0.89831 0.0
C686 C 0.02543 0.16722 0.9474 0.0
C687 C 0.04995 0.14914 0.95729 0.0
C688 C 0.04945 0.12111 0.91659 0.0
C689 C 0.02477 0.11115 0.86525 0.0
C690 C 1.0003 0.13016 0.85528 0.0
H691 H 0.29777 0.96732 0.95029 0.0
H692 H 0.28493 0.0488 0.10029 0.0
H693 H 0.32963 0.06893 0.02546 0.0
H694 H 0.37305 0.96358 0.9804 0.0
H695 H 0.38156 0.94832 0.86745 0.0
H696 H 0.34606 0.94198 0.91942 0.0
H697 H 0.32069 0.96345 0.77282 0.0
H698 H 0.35619 0.96962 0.72006 0.0
H699 H 0.33063 0.99953 0.73247 0.0
H700 H 0.37987 0.07738 0.9541 0.0
H701 H 0.4295 0.07483 0.88445 0.0
H702 H 0.41047 0.98795 0.77885 0.0
C703 C 0.30389 0.9897 0.96571 0.0
C704 C 0.28748 1.00649 0.03138 0.0
C705 C 0.29655 0.03561 0.04937 0.0
C706 C 0.32216 0.04716 1.00758 0.0
C707 C 0.33849 0.02952 0.9468 0.0
C708 C 0.32944 1.00153 0.92466 0.0
C709 C 0.35208 0.98626 0.86292 0.0
C710 C 0.36388 0.95839 0.91041 0.0
C711 C 0.33912 0.97932 0.76635 0.0
C712 C 0.37575 1.0097 0.85604 0.0
C713 C 0.36734 0.03453 0.90457 0.0
C714 C 0.38636 0.05826 0.91451 0.0
C715 C 0.41464 0.05656 0.87483 0.0
C716 C 0.42393 0.03137 0.82498 0.0
C717 C 0.40389 1.0078 0.81449 0.0
H718 H 0.56164 0.30007 0.93273 0.0
H719 H 0.49044 0.29776 0.13455 0.0
H720 H 0.47114 0.34422 0.06989 0.0
H721 H 0.57618 0.37367 0.9514 0.0
H722 H 0.58474 0.38001 0.83001 0.0
H723 H 0.59 0.34423 0.87991 0.0
H724 H 0.55638 0.32148 0.75375 0.0
H725 H 0.55135 0.35719 0.70246 0.0
H726 H 0.51982 0.3358 0.73709 0.0
H727 H 0.46463 0.39505 1.00105 0.0
H728 H 0.46843 0.44336 0.92434 0.0
H729 H 0.54358 0.41285 0.76467 0.0
C730 C 0.54138 0.30881 0.96125 0.0
C731 C 0.5274 0.29496 0.03849 0.0
C732 C 0.50122 0.30745 0.07445 0.0
C733 C 0.49027 0.33407 0.03859 0.0
C734 C 0.50551 0.34787 0.9658 0.0
C735 C 0.53021 0.33534 0.92626 0.0
C736 C 0.54388 0.3556 0.85357 0.0
C737 C 0.57557 0.36386 0.88037 0.0
C738 C 0.54278 0.34169 0.75592 0.0
C739 C 0.5235 0.38188 0.86002 0.0
C740 C 0.50148 0.37694 0.92511 0.0
C741 C 0.48142 0.39884 0.94867 0.0
C742 C 0.48386 0.42634 0.90492 0.0
C743 C 0.50608 0.43196 0.83749 0.0
C744 C 0.52595 0.40916 0.8143 0.0
H745 H 0.19785 0.54067 0.17843 0.0
H746 H 0.2607 0.53944 0.95081 0.0
H747 H 0.22043 0.52746 0.84037 0.0
H748 H 0.14795 0.48191 0.08928 0.0
H749 H 0.11572 0.50091 0.13078 0.0
H750 H 0.15011 0.50465 0.19188 0.0
H751 H 0.14654 0.56098 0.17488 0.0
H752 H 0.11251 0.55749 0.11211 0.0
H753 H 0.14297 0.5769 0.06019 0.0
H754 H 0.17149 0.52324 0.75196 0.0
H755 H 0.12001 0.52187 0.6964 0.0
H756 H 0.08918 0.52522 0.98314 0.0
C757 C 0.20332 0.53665 0.10587 0.0
C758 C 0.23261 0.54041 0.07352 0.0
C759 C 0.23869 0.53591 0.9776 0.0
C760 C 0.21581 0.52945 0.91429 0.0
C761 C 0.18694 0.52733 0.948 0.0
C762 C 0.18078 0.53027 0.04211 0.0
C763 C 0.14785 0.52907 0.06034 0.0
C764 C 0.13995 0.50255 0.12169 0.0
C765 C 0.13683 0.55781 0.10445 0.0
C766 C 0.13623 0.52543 0.9617 0.0
C767 C 0.15908 0.52457 0.89772 0.0
C768 C 0.15357 0.52333 0.80185 0.0
C769 C 0.12416 0.5227 0.77082 0.0
C770 C 0.10037 0.52306 0.83513 0.0
C771 C 0.10674 0.52431 0.93196 0.0
H772 H 0.03662 0.8306 0.32625 0.0
H773 H 0.03728 0.76898 0.55633 0.0
H774 H 0.0283 0.80984 0.66718 0.0
H775 H 0.07495 0.88644 0.43663 0.0
H776 H 0.05441 0.91629 0.3864 0.0
H777 H 0.05734 0.88208 0.32485 0.0
H778 H 1.00061 0.87807 0.31713 0.0
H779 H 0.99745 0.91256 0.37731 0.0
H780 H 0.9793 0.88052 0.42323 0.0
H781 H 0.02614 0.85914 0.75445 0.0
H782 H 0.02474 0.91069 0.80793 0.0
H783 H 0.02316 0.93996 0.51978 0.0
C784 C 0.03383 0.82559 0.39973 0.0
C785 C 0.03715 0.79642 0.43246 0.0
C786 C 0.03413 0.79093 0.52937 0.0
C787 C 0.02935 0.81412 0.59287 0.0
C788 C 0.02728 0.84277 0.55848 0.0
C789 C 0.02881 0.84843 0.46372 0.0
C790 C 0.02704 0.88115 0.44441 0.0
C791 C 0.0551 0.89212 0.39518 0.0
C792 C 0.99945 0.88851 0.38714 0.0
C793 C 0.02473 0.8932 0.54307 0.0
C794 C 0.02513 0.87076 0.60807 0.0
C795 C 0.02523 0.87673 0.70382 0.0
C796 C 0.02457 0.90616 0.73369 0.0
C797 C 0.02342 0.92952 0.66841 0.0
C798 C 0.02343 0.92271 0.57174 0.0
H799 H 0.72299 0.94751 0.46603 0.0
H800 H 0.7569 0.03603 0.44205 0.0
H801 H 0.7143 0.05399 0.53414 0.0
H802 H 0.65149 0.96655 0.41372 0.0
H803 H 0.63417 0.94 0.48927 0.0
H804 H 0.67016 0.9329 0.44239 0.0
H805 H 0.69115 0.92541 0.60752 0.0
H806 H 0.65523 0.93193 0.65694 0.0
H807 H 0.6862 0.95348 0.69444 0.0
H808 H 0.66465 0.06242 0.62054 0.0
H809 H 0.61315 0.06103 0.67867 0.0
H810 H 0.60905 0.96816 0.62073 0.0
C811 C 0.72186 0.97074 0.48055 0.0
C812 C 0.74365 0.99029 0.44545 0.0
C813 C 0.74106 0.02037 0.46851 0.0
C814 C 0.71667 0.03082 0.52036 0.0
C815 C 0.69479 1.01102 0.54838 0.0
C816 C 0.69727 0.98156 0.52869 0.0
C817 C 0.66949 0.96506 0.55577 0.0
C818 C 0.6555 0.95028 0.47016 0.0
C819 C 0.6759 0.94264 0.63328 0.0
C820 C 0.65049 0.98985 0.59202 0.0
C821 C 0.66573 0.0161 0.59008 0.0
C822 C 0.65267 0.04195 0.62179 0.0
C823 C 0.62341 0.04098 0.65477 0.0
C824 C 0.60709 0.01457 0.65332 0.0
C825 C 0.62095 0.98869 0.62193 0.0
H826 H 0.46825 0.73761 0.502 0.0
H827 H 0.54616 0.74342 0.32796 0.0
H828 H 0.5646 0.69718 0.39757 0.0
H829 H 0.50287 0.70297 0.71008 0.0
H830 H 0.47119 0.68015 0.73129 0.0
H831 H 0.46671 0.71571 0.6784 0.0
H832 H 0.43963 0.69174 0.53902 0.0
H833 H 0.44438 0.65611 0.59061 0.0
H834 H 0.45759 0.66309 0.47387 0.0
H835 H 0.57046 0.64618 0.46849 0.0
H836 H 0.5658 0.59778 0.54478 0.0
H837 H 0.48425 0.62541 0.67495 0.0
C838 C 0.48968 0.72967 0.48068 0.0
C839 C 0.50592 0.74442 0.4099 0.0
C840 C 0.53361 0.73297 0.38311 0.0
C841 C 0.54408 0.7065 0.42174 0.0
C842 C 0.52675 0.69181 0.48783 0.0
C843 C 0.50032 0.70331 0.51817 0.0
C844 C 0.48473 0.68237 0.58455 0.0
C845 C 0.48118 0.69612 0.68186 0.0
C846 C 0.45483 0.67277 0.54461 0.0
C847 C 0.50633 0.65703 0.58644 0.0
C848 C 0.53036 0.66284 0.5298 0.0
C849 C 0.55204 0.64176 0.51442 0.0
C850 C 0.54914 0.61423 0.55786 0.0
C851 C 0.52493 0.60788 0.61719 0.0
C852 C 0.50341 0.6298 0.63206 0.0
H853 H 0.79334 0.46093 0.53194 0.0
H854 H 0.78208 0.53846 0.36053 0.0
H855 H 0.82708 0.55971 0.43001 0.0
H856 H 0.82666 0.49657 0.73999 0.0
H857 H 0.85183 0.46661 0.75807 0.0
H858 H 0.81629 0.45994 0.70688 0.0
H859 H 0.84156 0.43545 0.56458 0.0
H860 H 0.87715 0.44237 0.61456 0.0
H861 H 0.86875 0.4556 0.49901 0.0
H862 H 0.87756 0.56894 0.49954 0.0
H863 H 0.92672 0.56743 0.57218 0.0
H864 H 0.90581 0.4837 0.69894 0.0
C865 C 0.79981 0.4828 0.51092 0.0
C866 C 0.78382 0.4981 0.44083 0.0
C867 C 0.79338 0.5265 0.41503 0.0
C868 C 0.81919 0.5386 0.45359 0.0
C869 C 0.83521 0.52216 0.51849 0.0
C870 C 0.82563 0.495 0.54793 0.0
C871 C 0.84802 0.48064 0.61231 0.0
C872 C 0.83492 0.47566 0.71013 0.0
C873 C 0.85954 0.45182 0.57008 0.0
C874 C 0.87194 0.50385 0.61414 0.0
C875 C 0.86412 0.52759 0.55928 0.0
C876 C 0.88356 0.55072 0.54401 0.0
C877 C 0.91155 0.5496 0.5854 0.0
C878 C 0.92007 0.52568 0.64256 0.0
C879 C 0.89974 0.50264 0.65771 0.0
loop_
_geom_bond_atom_site_label_1
_geom_bond_atom_site_label_2
_geom_bond_distance
_geom_bond_site_symmetry_2
_ccdc_geom_bond_type
H0 C3 0.931 . S
H1 C6 0.928 . S
H2 C8 0.930 . S
C3 H0 0.931 . S
C3 C4 1.413 . S
C3 C5 1.360 . S
C4 C3 1.413 . S
C4 C8 1.429 . S
C5 C3 1.360 . S
C5 C6 1.372 . S
C6 H1 0.928 . S
C6 C5 1.372 . S
C6 C7 1.404 . S
C7 C6 1.404 . S
C7 C8 1.391 . S
C8 H2 0.930 . S
C8 C4 1.429 . S
C8 C7 1.391 . S
H9 C12 0.931 . S
H10 C15 0.928 . S
H11 C17 0.930 . S
C12 H9 0.931 . S
C12 C13 1.413 . S
C12 C14 1.360 . S
C13 C12 1.413 . S
C13 C17 1.429 1_655 S
C14 C12 1.360 . S
C14 C15 1.372 . S
C15 H10 0.928 . S
C15 C14 1.372 . S
C15 C16 1.404 . S
C16 C15 1.404 . S
C16 C17 1.390 1_655 S
C17 H11 0.930 . S
C17 C13 1.429 1_455 S
C17 C16 1.390 1_455 S
H18 C21 0.931 . S
H19 C24 0.928 . S
H20 C26 0.930 . S
C21 H18 0.931 . S
C21 C22 1.413 . S
C21 C23 1.360 . S
C22 C21 1.413 . S
C22 C26 1.429 1_565 S
C23 C21 1.360 . S
C23 C24 1.372 . S
C24 H19 0.928 . S
C24 C23 1.372 . S
C24 C25 1.404 . S
C25 C24 1.404 . S
C25 C26 1.390 1_565 S
C26 H20 0.930 . S
C26 C22 1.429 1_545 S
C26 C25 1.390 1_545 S
H27 C30 0.931 . S
H28 C33 0.928 . S
H29 C35 0.930 . S
C30 H27 0.931 . S
C30 C31 1.413 . S
C30 C32 1.360 . S
C31 C30 1.413 . S
C31 C35 1.429 . S
C32 C30 1.360 . S
C32 C33 1.372 . S
C33 H28 0.928 . S
C33 C32 1.372 . S
C33 C34 1.404 . S
C34 C33 1.404 . S
C34 C35 1.391 . S
C35 H29 0.930 . S
C35 C31 1.429 . S
C35 C34 1.391 . S
H36 C39 0.931 . S
H37 C42 0.928 . S
H38 C44 0.930 . S
C39 H36 0.931 . S
C39 C40 1.413 1_554 S
C39 C41 1.360 . S
C40 C39 1.413 1_556 S
C40 C44 1.429 . S
C41 C39 1.360 . S
C41 C42 1.372 . S
C42 H37 0.928 . S
C42 C41 1.372 . S
C42 C43 1.404 . S
C43 C42 1.404 . S
C43 C44 1.391 1_554 S
C44 H38 0.930 . S
C44 C40 1.429 . S
C44 C43 1.391 1_556 S
H45 C48 0.931 . S
H46 C51 0.928 . S
H47 C53 0.930 . S
C48 H45 0.931 . S
C48 C49 1.413 1_554 S
C48 C50 1.360 . S
C49 C48 1.413 1_556 S
C49 C53 1.429 1_655 S
C50 C48 1.360 . S
C50 C51 1.372 . S
C51 H46 0.928 . S
C51 C50 1.372 . S
C51 C52 1.404 . S
C52 C51 1.404 . S
C52 C53 1.390 1_654 S
C53 H47 0.930 . S
C53 C49 1.429 1_455 S
C53 C52 1.390 1_456 S
H54 C57 0.931 . S
H55 C60 0.928 . S
H56 C62 0.930 . S
C57 H54 0.931 . S
C57 C58 1.413 1_554 S
C57 C59 1.360 . S
C58 C57 1.413 1_556 S
C58 C62 1.429 1_565 S
C59 C57 1.360 . S
C59 C60 1.372 . S
C60 H55 0.928 . S
C60 C59 1.372 . S
C60 C61 1.404 . S
C61 C60 1.404 . S
C61 C62 1.391 1_564 S
C62 H56 0.930 . S
C62 C58 1.429 1_545 S
C62 C61 1.391 1_546 S
H63 C66 0.933 . S
H64 C69 0.928 . S
H65 C71 0.930 . S
C66 H63 0.933 . S
C66 C67 1.413 . S
C66 C68 1.360 1_554 S
C67 C66 1.413 . S
C67 C71 1.429 . S
C68 C66 1.360 1_556 S
C68 C69 1.372 . S
C69 H64 0.928 . S
C69 C68 1.372 . S
C69 C70 1.404 1_556 S
C70 C69 1.404 1_554 S
C70 C71 1.391 . S
C71 H65 0.930 . S
C71 C67 1.429 . S
C71 C70 1.391 . S
Gd72 C75 2.818 . S
Gd72 O92 2.377 . S
Gd72 O94 2.448 . S
Gd72 O95 2.506 . S
Gd72 O96 2.435 . S
Gd72 O97 2.717 1_565 S
Gd72 O99 2.395 1_565 S
Gd72 O103 2.327 1_455 S
Gd73 C84 2.818 . S
Gd73 O93 2.395 1_545 S
Gd73 O97 2.327 1_655 S
Gd73 O98 2.377 . S
Gd73 O100 2.448 . S
Gd73 O101 2.506 . S
Gd73 O102 2.435 . S
Gd73 O103 2.717 1_545 S
C74 O92 1.240 1_655 S
C74 O93 1.240 . S
C75 Gd72 2.818 . S
C75 C76 1.510 . S
C75 O94 1.249 . S
C75 O95 1.252 . S
C76 C75 1.510 . S
C76 C77 1.404 . S
C76 C78 1.352 1_556 S
C77 C76 1.404 . S
C77 C81 1.389 1_556 S
C77 H104 0.930 . S
C78 C76 1.352 1_554 S
C78 C80 1.374 . S
C78 H105 0.930 1_454 S
C79 C80 1.359 . S
C79 C81 1.364 . S
C80 C78 1.374 . S
C80 C79 1.359 . S
C80 H106 0.931 . S
C81 C77 1.389 1_554 S
C81 C79 1.364 . S
C81 H107 0.931 . S
C82 O96 1.256 . S
C82 O97 1.257 1_565 S
C83 O98 1.240 1_455 S
C83 O99 1.240 . S
C84 Gd73 2.818 . S
C84 C85 1.510 . S
C84 O100 1.249 . S
C84 O101 1.252 . S
C85 C84 1.510 . S
C85 C86 1.404 . S
C85 C87 1.352 . S
C86 C85 1.404 . S
C86 C90 1.389 . S
C86 H108 0.930 . S
C87 C85 1.352 . S
C87 C89 1.374 . S
C87 H109 0.931 1_655 S
C88 C89 1.359 . S
C88 C90 1.364 . S
C89 C87 1.374 . S
C89 C88 1.359 . S
C89 H110 0.931 . S
C90 C86 1.389 . S
C90 C88 1.364 . S
C90 H111 0.931 . S
C91 O102 1.256 . S
C91 O103 1.257 1_545 S
O92 Gd72 2.377 . S
O92 C74 1.240 1_455 S
O93 Gd73 2.395 1_565 S
O93 C74 1.240 . S
O94 Gd72 2.448 . S
O94 C75 1.249 . S
O95 Gd72 2.506 . S
O95 C75 1.252 . S
O96 Gd72 2.435 . S
O96 C82 1.256 . S
O97 Gd72 2.717 1_545 S
O97 Gd73 2.327 1_455 S
O97 C82 1.257 1_545 S
O98 Gd73 2.377 . S
O98 C83 1.240 1_655 S
O99 Gd72 2.395 1_545 S
O99 C83 1.240 . S
O100 Gd73 2.448 . S
O100 C84 1.249 . S
O101 Gd73 2.506 . S
O101 C84 1.252 . S
O102 Gd73 2.435 . S
O102 C91 1.256 . S
O103 Gd72 2.327 1_655 S
O103 Gd73 2.717 1_565 S
O103 C91 1.257 1_565 S
H104 C77 0.930 . S
H105 C78 0.930 1_656 S
H106 C80 0.931 . S
H107 C81 0.931 . S
H108 C86 0.930 . S
H109 C87 0.931 1_455 S
H110 C89 0.931 . S
H111 C90 0.931 . S
Gd112 C115 2.818 . S
Gd112 O132 2.377 . S
Gd112 O134 2.448 . S
Gd112 O135 2.506 . S
Gd112 O136 2.435 . S
Gd112 O137 2.717 . S
Gd112 O139 2.395 . S
Gd112 O143 2.327 1_545 S
Gd113 C124 2.818 . S
Gd113 O133 2.395 . S
Gd113 O137 2.327 1_565 S
Gd113 O138 2.377 . S
Gd113 O140 2.448 . S
Gd113 O141 2.506 . S
Gd113 O142 2.435 . S
Gd113 O143 2.717 . S
C114 O132 1.240 1_565 S
C114 O133 1.240 . S
C115 Gd112 2.818 . S
C115 C116 1.510 . S
C115 O134 1.249 . S
C115 O135 1.252 . S
C116 C115 1.510 . S
C116 C117 1.404 . S
C116 C118 1.352 1_556 S
C117 C116 1.404 . S
C117 C121 1.389 1_556 S
C117 H144 0.930 . S
C118 C116 1.352 1_554 S
C118 C120 1.374 . S
C118 H145 0.931 1_544 S
C119 C120 1.359 . S
C119 C121 1.364 . S
C120 C118 1.374 . S
C120 C119 1.359 . S
C120 H146 0.961 . S
C121 C117 1.389 1_554 S
C121 C119 1.364 . S
C121 H147 0.931 . S
C122 O136 1.256 . S
C122 O137 1.257 . S
C123 O138 1.240 1_545 S
C123 O139 1.240 . S
C124 Gd113 2.818 . S
C124 C125 1.510 . S
C124 O140 1.249 . S
C124 O141 1.252 . S
C125 C124 1.510 . S
C125 C126 1.404 . S
C125 C127 1.352 . S
C126 C125 1.404 . S
C126 C130 1.389 . S
C126 H148 0.930 . S
C127 C125 1.352 . S
C127 C129 1.374 . S
C127 H149 0.931 1_565 S
C128 C129 1.359 . S
C128 C130 1.364 . S
C129 C127 1.374 . S
C129 C128 1.359 . S
C129 H150 0.954 . S
C130 C126 1.389 . S
C130 C128 1.364 . S
C130 H151 0.931 . S
C131 O142 1.256 . S
C131 O143 1.257 . S
O132 Gd112 2.377 . S
O132 C114 1.240 1_545 S
O133 Gd113 2.395 . S
O133 C114 1.240 . S
O134 Gd112 2.448 . S
O134 C115 1.249 . S
O135 Gd112 2.506 . S
O135 C115 1.252 . S
O136 Gd112 2.435 . S
O136 C122 1.256 . S
O137 Gd112 2.717 . S
O137 Gd113 2.327 1_545 S
O137 C122 1.257 . S
O138 Gd113 2.377 . S
O138 C123 1.240 1_565 S
O139 Gd112 2.395 . S
O139 C123 1.240 . S
O140 Gd113 2.448 . S
O140 C124 1.249 . S
O141 Gd113 2.506 . S
O141 C124 1.252 . S
O142 Gd113 2.435 . S
O142 C131 1.256 . S
O143 Gd112 2.327 1_565 S
O143 Gd113 2.717 . S
O143 C131 1.257 . S
H144 C117 0.930 . S
H145 C118 0.931 1_566 S
H146 C120 0.961 . S
H147 C121 0.931 . S
H148 C126 0.930 . S
H149 C127 0.931 1_545 S
H150 C129 0.954 . S
H151 C130 0.931 . S
Gd152 C155 2.818 . S
Gd152 O172 2.377 . S
Gd152 O174 2.448 . S
Gd152 O175 2.506 . S
Gd152 O176 2.435 . S
Gd152 O177 2.717 . S
Gd152 O179 2.395 . S
Gd152 O183 2.327 . S
Gd153 C164 2.818 . S
Gd153 O173 2.395 . S
Gd153 O177 2.327 . S
Gd153 O178 2.377 . S
Gd153 O180 2.448 . S
Gd153 O181 2.506 . S
Gd153 O182 2.435 . S
Gd153 O183 2.717 . S
C154 O172 1.240 . S
C154 O173 1.240 . S
C155 Gd152 2.818 . S
C155 C156 1.510 . S
C155 O174 1.249 . S
C155 O175 1.252 . S
C156 C155 1.510 . S
C156 C157 1.404 . S
C156 C158 1.352 1_556 S
C157 C156 1.404 . S
C157 C161 1.389 1_556 S
C157 H184 0.930 . S
C158 C156 1.352 1_554 S
C158 C160 1.374 . S
C158 H185 0.931 . S
C159 C160 1.359 . S
C159 C161 1.364 . S
C160 C158 1.374 . S
C160 C159 1.359 . S
C160 H186 0.931 . S
C161 C157 1.389 1_554 S
C161 C159 1.364 . S
C161 H187 0.931 . S
C162 O176 1.256 . S
C162 O177 1.257 . S
C163 O178 1.240 . S
C163 O179 1.240 . S
C164 Gd153 2.818 . S
C164 C165 1.510 . S
C164 O180 1.249 . S
C164 O181 1.252 . S
C165 C164 1.510 . S
C165 C166 1.404 . S
C165 C167 1.352 . S
C166 C165 1.404 . S
C166 C170 1.389 . S
C166 H188 0.930 . S
C167 C165 1.352 . S
C167 C169 1.374 . S
C167 H189 0.931 . S
C168 C169 1.359 . S
C168 C170 1.364 . S
C169 C167 1.374 . S
C169 C168 1.359 . S
C169 H190 0.931 . S
C170 C166 1.389 . S
C170 C168 1.364 . S
C170 H191 0.931 . S
C171 O182 1.256 . S
C171 O183 1.257 . S
O172 Gd152 2.377 . S
O172 C154 1.240 . S
O173 Gd153 2.395 . S
O173 C154 1.240 . S
O174 Gd152 2.448 . S
O174 C155 1.249 . S
O175 Gd152 2.506 . S
O175 C155 1.252 . S
O176 Gd152 2.435 . S
O176 C162 1.256 . S
O177 Gd152 2.717 . S
O177 Gd153 2.327 . S
O177 C162 1.257 . S
O178 Gd153 2.377 . S
O178 C163 1.240 . S
O179 Gd152 2.395 . S
O179 C163 1.240 . S
O180 Gd153 2.448 . S
O180 C164 1.249 . S
O181 Gd153 2.506 . S
O181 C164 1.252 . S
O182 Gd153 2.435 . S
O182 C171 1.256 . S
O183 Gd152 2.327 . S
O183 Gd153 2.717 . S
O183 C171 1.257 . S
H184 C157 0.930 . S
H185 C158 0.931 . S
H186 C160 0.931 . S
H187 C161 0.931 . S
H188 C166 0.930 . S
H189 C167 0.931 . S
H190 C169 0.931 . S
H191 C170 0.931 . S
Gd192 C195 2.818 . S
Gd192 O212 2.377 . S
Gd192 O214 2.448 . S
Gd192 O215 2.506 . S
Gd192 O216 2.435 . S
Gd192 O217 2.717 1_655 S
Gd192 O219 2.395 1_655 S
Gd192 O223 2.327 . S
Gd193 C204 2.818 . S
Gd193 O213 2.395 1_455 S
Gd193 O217 2.327 . S
Gd193 O218 2.377 . S
Gd193 O220 2.448 . S
Gd193 O221 2.506 . S
Gd193 O222 2.435 . S
Gd193 O223 2.717 1_455 S
C194 O212 1.240 . S
C194 O213 1.240 . S
C195 Gd192 2.818 . S
C195 C196 1.510 . S
C195 O214 1.249 . S
C195 O215 1.252 . S
C196 C195 1.510 . S
C196 C197 1.404 . S
C196 C198 1.352 1_556 S
C197 C196 1.404 . S
C197 C201 1.389 1_556 S
C197 H224 0.930 . S
C198 C196 1.352 1_554 S
C198 C200 1.374 . S
C198 H225 0.931 . S
C199 C200 1.359 . S
C199 C201 1.364 . S
C200 C198 1.374 . S
C200 C199 1.359 . S
C200 H226 0.931 . S
C201 C197 1.389 1_554 S
C201 C199 1.364 . S
C201 H227 0.931 . S
C202 O216 1.272 . S
C202 O217 1.249 1_655 S
C203 O218 1.240 . S
C203 O219 1.240 . S
C204 Gd193 2.818 . S
C204 C205 1.510 . S
C204 O220 1.249 . S
C204 O221 1.252 . S
C205 C204 1.510 . S
C205 C206 1.404 . S
C205 C207 1.352 . S
C206 C205 1.404 . S
C206 C210 1.389 . S
C206 H228 0.930 . S
C207 C205 1.352 . S
C207 C209 1.374 . S
C207 H229 0.931 . S
C208 C209 1.359 . S
C208 C210 1.364 . S
C209 C207 1.374 . S
C209 C208 1.359 . S
C209 H230 0.931 . S
C210 C206 1.389 . S
C210 C208 1.364 . S
C210 H231 0.931 . S
C211 O222 1.256 . S
C211 O223 1.257 1_455 S
O212 Gd192 2.377 . S
O212 C194 1.240 . S
O213 Gd193 2.395 1_655 S
O213 C194 1.240 . S
O214 Gd192 2.448 . S
O214 C195 1.249 . S
O215 Gd192 2.506 . S
O215 C195 1.252 . S
O216 Gd192 2.435 . S
O216 C202 1.272 . S
O217 Gd192 2.717 1_455 S
O217 Gd193 2.327 . S
O217 C202 1.249 1_455 S
O218 Gd193 2.377 . S
O218 C203 1.240 . S
O219 Gd192 2.395 1_455 S
O219 C203 1.240 . S
O220 Gd193 2.448 . S
O220 C204 1.249 . S
O221 Gd193 2.506 . S
O221 C204 1.252 . S
O222 Gd193 2.435 . S
O222 C211 1.256 . S
O223 Gd192 2.327 . S
O223 Gd193 2.717 1_655 S
O223 C211 1.257 1_655 S
H224 C197 0.930 . S
H225 C198 0.931 . S
H226 C200 0.931 . S
H227 C201 0.931 . S
H228 C206 0.930 . S
H229 C207 0.931 . S
H230 C209 0.931 . S
H231 C210 0.931 . S
H232 C244 0.930 . S
H233 C246 0.930 . S
H234 C247 0.930 . S
H235 C251 0.959 . S
H236 C251 0.959 . S
H237 C251 0.961 . S
H238 C252 0.960 . S
H239 C252 0.961 . S
H240 C252 0.959 . S
H241 C255 0.929 . S
H242 C256 0.931 . S
H243 C258 0.930 . S
C244 H232 0.930 . S
C244 C245 1.399 1_545 S
C244 C249 1.399 . S
C245 C244 1.399 1_565 S
C245 C246 1.376 . S
C246 H233 0.930 . S
C246 C245 1.376 . S
C246 C247 1.388 . S
C247 H234 0.930 . S
C247 C246 1.388 . S
C247 C248 1.390 . S
C248 C247 1.390 . S
C248 C249 1.394 1_565 S
C248 C254 1.465 . S
C249 C244 1.399 . S
C249 C248 1.394 1_545 S
C249 C250 1.516 . S
C250 C249 1.516 . S
C250 C251 1.502 . S
C250 C252 1.561 . S
C250 C253 1.526 . S
C251 H235 0.959 . S
C251 H236 0.959 . S
C251 H237 0.961 . S
C251 C250 1.502 . S
C252 H238 0.960 . S
C252 H239 0.961 . S
C252 H240 0.959 . S
C252 C250 1.561 . S
C253 C250 1.526 . S
C253 C254 1.396 1_545 S
C253 C258 1.390 . S
C254 C248 1.465 . S
C254 C253 1.396 1_565 S
C254 C255 1.399 . S
C255 H241 0.929 . S
C255 C254 1.399 . S
C255 C256 1.385 . S
C256 H242 0.931 . S
C256 C255 1.385 . S
C256 C257 1.413 . S
C257 C256 1.413 . S
C257 C258 1.368 1_565 S
C258 H243 0.930 . S
C258 C253 1.390 . S
C258 C257 1.368 1_545 S
H259 C271 0.930 . S
H260 C273 0.930 . S
H261 C274 0.930 . S
H262 C278 0.959 . S
H263 C278 0.959 . S
H264 C278 0.961 . S
H265 C279 0.960 . S
H266 C279 0.961 . S
H267 C279 0.959 . S
H268 C282 0.929 . S
H269 C283 0.931 . S
H270 C285 0.930 . S
C271 H259 0.930 . S
C271 C272 1.399 . S
C271 C276 1.399 . S
C272 C271 1.399 . S
C272 C273 1.376 . S
C273 H260 0.930 . S
C273 C272 1.376 . S
C273 C274 1.388 . S
C274 H261 0.930 . S
C274 C273 1.388 . S
C274 C275 1.390 . S
C275 C274 1.390 . S
C275 C276 1.394 . S
C275 C281 1.465 . S
C276 C271 1.399 . S
C276 C275 1.394 . S
C276 C277 1.516 . S
C277 C276 1.516 . S
C277 C278 1.502 . S
C277 C279 1.561 . S
C277 C280 1.526 . S
C278 H262 0.959 . S
C278 H263 0.959 . S
C278 H264 0.961 . S
C278 C277 1.502 . S
C279 H265 0.960 . S
C279 H266 0.961 . S
C279 H267 0.959 . S
C279 C277 1.561 . S
C280 C277 1.526 . S
C280 C281 1.396 . S
C280 C285 1.390 . S
C281 C275 1.465 . S
C281 C280 1.396 . S
C281 C282 1.399 . S
C282 H268 0.929 . S
C282 C281 1.399 . S
C282 C283 1.385 . S
C283 H269 0.931 . S
C283 C282 1.385 . S
C283 C284 1.389 . S
C284 C283 1.389 . S
C284 C285 1.387 . S
C285 H270 0.930 . S
C285 C280 1.390 . S
C285 C284 1.387 . S
H286 C298 0.930 . S
H287 C300 0.930 . S
H288 C301 0.930 . S
H289 C305 0.959 . S
H290 C305 0.959 . S
H291 C305 0.961 . S
H292 C306 0.960 . S
H293 C306 0.961 . S
H294 C306 0.959 . S
H295 C309 0.929 . S
H296 C310 0.931 . S
H297 C312 0.930 . S
C298 H286 0.930 . S
C298 C299 1.399 . S
C298 C303 1.399 . S
C299 C298 1.399 . S
C299 C300 1.376 . S
C300 H287 0.930 . S
C300 C299 1.376 . S
C300 C301 1.388 . S
C301 H288 0.930 . S
C301 C300 1.388 . S
C301 C302 1.390 . S
C302 C301 1.390 . S
C302 C303 1.394 . S
C302 C308 1.465 . S
C303 C298 1.399 . S
C303 C302 1.394 . S
C303 C304 1.516 . S
C304 C303 1.516 . S
C304 C305 1.502 . S
C304 C306 1.561 . S
C304 C307 1.526 . S
C305 H289 0.959 . S
C305 H290 0.959 . S
C305 H291 0.961 . S
C305 C304 1.502 . S
C306 H292 0.960 . S
C306 H293 0.961 . S
C306 H294 0.959 . S
C306 C304 1.561 . S
C307 C304 1.526 . S
C307 C308 1.396 . S
C307 C312 1.390 . S
C308 C302 1.465 . S
C308 C307 1.396 . S
C308 C309 1.399 . S
C309 H295 0.929 . S
C309 C308 1.399 . S
C309 C310 1.385 . S
C310 H296 0.931 . S
C310 C309 1.385 . S
C310 C311 1.389 . S
C311 C310 1.389 . S
C311 C312 1.387 . S
C312 H297 0.930 . S
C312 C307 1.390 . S
C312 C311 1.387 . S
H313 C325 0.930 . S
H314 C327 0.930 . S
H315 C328 0.930 . S
H316 C332 0.959 . S
H317 C332 0.959 . S
H318 C332 0.961 . S
H319 C333 0.960 . S
H320 C333 0.961 . S
H321 C333 0.959 . S
H322 C336 0.929 . S
H323 C337 0.931 . S
H324 C339 0.930 . S
C325 H313 0.930 . S
C325 C326 1.399 1_655 S
C325 C330 1.399 . S
C326 C325 1.399 1_455 S
C326 C327 1.376 . S
C327 H314 0.930 . S
C327 C326 1.376 . S
C327 C328 1.388 . S
C328 H315 0.930 . S
C328 C327 1.388 . S
C328 C329 1.390 . S
C329 C328 1.390 . S
C329 C330 1.394 1_455 S
C329 C335 1.465 . S
C330 C325 1.399 . S
C330 C329 1.394 1_655 S
C330 C331 1.516 . S
C331 C330 1.516 . S
C331 C332 1.502 . S
C331 C333 1.561 1_655 S
C331 C334 1.526 . S
C332 H316 0.959 . S
C332 H317 0.959 . S
C332 H318 0.961 . S
C332 C331 1.502 . S
C333 H319 0.960 . S
C333 H320 0.961 . S
C333 H321 0.959 . S
C333 C331 1.561 1_455 S
C334 C331 1.526 . S
C334 C335 1.396 1_655 S
C334 C339 1.390 . S
C335 C329 1.465 . S
C335 C334 1.396 1_455 S
C335 C336 1.399 . S
C336 H322 0.929 . S
C336 C335 1.399 . S
C336 C337 1.385 . S
C337 H323 0.931 . S
C337 C336 1.385 . S
C337 C338 1.389 . S
C338 C337 1.389 . S
C338 C339 1.387 1_455 S
C339 H324 0.930 . S
C339 C334 1.390 . S
C339 C338 1.387 1_655 S
H340 C352 0.930 . S
H341 C354 0.930 . S
H342 C355 0.930 . S
H343 C359 0.959 . S
H344 C359 0.959 . S
H345 C359 0.961 . S
H346 C360 0.960 . S
H347 C360 0.961 . S
H348 C360 0.959 . S
H349 C363 0.929 . S
H350 C364 0.931 . S
H351 C366 0.930 . S
C352 H340 0.930 . S
C352 C353 1.399 1_545 S
C352 C357 1.399 . S
C353 C352 1.399 1_565 S
C353 C354 1.376 . S
C354 H341 0.930 . S
C354 C353 1.376 . S
C354 C355 1.388 . S
C355 H342 0.930 . S
C355 C354 1.388 . S
C355 C356 1.390 . S
C356 C355 1.390 . S
C356 C357 1.394 1_565 S
C356 C362 1.465 . S
C357 C352 1.399 . S
C357 C356 1.394 1_545 S
C357 C358 1.516 . S
C358 C357 1.516 . S
C358 C359 1.502 . S
C358 C360 1.561 . S
C358 C361 1.526 . S
C359 H343 0.959 . S
C359 H344 0.959 . S
C359 H345 0.961 . S
C359 C358 1.502 . S
C360 H346 0.960 . S
C360 H347 0.961 . S
C360 H348 0.959 . S
C360 C358 1.561 . S
C361 C358 1.526 . S
C361 C362 1.396 1_545 S
C361 C366 1.390 1_554 S
C362 C356 1.465 . S
C362 C361 1.396 1_565 S
C362 C363 1.399 . S
C363 H349 0.929 . S
C363 C362 1.399 . S
C363 C364 1.385 1_554 S
C364 H350 0.931 . S
C364 C363 1.385 1_556 S
C364 C365 1.389 . S
C365 C364 1.389 . S
C365 C366 1.387 1_565 S
C366 H351 0.930 . S
C366 C361 1.390 1_556 S
C366 C365 1.387 1_545 S
H367 C379 0.930 . S
H368 C381 0.930 . S
H369 C382 0.930 . S
H370 C386 0.959 . S
H371 C386 0.959 1_556 S
H372 C386 0.961 . S
H373 C387 0.960 . S
H374 C387 0.961 1_556 S
H375 C387 0.959 . S
H376 C390 0.929 . S
H377 C391 0.931 1_556 S
H378 C393 0.930 . S
C379 H367 0.930 . S
C379 C380 1.399 . S
C379 C384 1.399 . S
C380 C379 1.399 . S
C380 C381 1.376 . S
C381 H368 0.930 . S
C381 C380 1.376 . S
C381 C382 1.388 . S
C382 H369 0.930 . S
C382 C381 1.388 . S
C382 C383 1.390 . S
C383 C382 1.390 . S
C383 C384 1.394 . S
C383 C389 1.465 . S
C384 C379 1.399 . S
C384 C383 1.394 . S
C384 C385 1.516 . S
C385 C384 1.516 . S
C385 C386 1.502 . S
C385 C387 1.561 . S
C385 C388 1.526 . S
C386 H370 0.959 . S
C386 H371 0.959 1_554 S
C386 H372 0.961 . S
C386 C385 1.502 . S
C387 H373 0.960 . S
C387 H374 0.961 1_554 S
C387 H375 0.959 . S
C387 C385 1.561 . S
C388 C385 1.526 . S
C388 C389 1.396 . S
C388 C393 1.390 1_554 S
C389 C383 1.465 . S
C389 C388 1.396 . S
C389 C390 1.399 . S
C390 H376 0.929 . S
C390 C389 1.399 . S
C390 C391 1.385 . S
C391 H377 0.931 1_554 S
C391 C390 1.385 . S
C391 C392 1.389 1_554 S
C392 C391 1.389 1_556 S
C392 C393 1.387 . S
C393 H378 0.930 . S
C393 C388 1.390 1_556 S
C393 C392 1.387 . S
H394 C406 0.930 . S
H395 C408 0.930 . S
H396 C409 0.930 . S
H397 C413 0.959 . S
H398 C413 0.959 . S
H399 C413 0.961 . S
H400 C414 0.960 . S
H401 C414 0.961 . S
H402 C414 0.959 . S
H403 C417 0.929 . S
H404 C418 0.931 . S
H405 C420 0.930 . S
C406 H394 0.930 . S
C406 C407 1.399 . S
C406 C411 1.399 . S
C407 C406 1.399 . S
C407 C408 1.376 . S
C408 H395 0.930 . S
C408 C407 1.376 . S
C408 C409 1.388 . S
C409 H396 0.930 . S
C409 C408 1.388 . S
C409 C410 1.390 . S
C410 C409 1.390 . S
C410 C411 1.394 . S
C410 C416 1.465 . S
C411 C406 1.399 . S
C411 C410 1.394 . S
C411 C412 1.516 . S
C412 C411 1.516 . S
C412 C413 1.502 . S
C412 C414 1.561 . S
C412 C415 1.526 . S
C413 H397 0.959 . S
C413 H398 0.959 . S
C413 H399 0.961 . S
C413 C412 1.502 . S
C414 H400 0.960 . S
C414 H401 0.961 . S
C414 H402 0.959 . S
C414 C412 1.561 . S
C415 C412 1.526 . S
C415 C416 1.396 . S
C415 C420 1.390 1_554 S
C416 C410 1.465 . S
C416 C415 1.396 . S
C416 C417 1.399 . S
C417 H403 0.929 . S
C417 C416 1.399 . S
C417 C418 1.385 1_554 S
C418 H404 0.931 . S
C418 C417 1.385 1_556 S
C418 C419 1.389 . S
C419 C418 1.389 . S
C419 C420 1.387 . S
C420 H405 0.930 . S
C420 C415 1.390 1_556 S
C420 C419 1.387 . S
H421 C433 0.930 . S
H422 C435 0.930 . S
H423 C436 0.930 . S
H424 C440 0.959 . S
H425 C440 0.959 . S
H426 C440 0.961 . S
H427 C441 0.960 . S
H428 C441 0.961 . S
H429 C441 0.959 . S
H430 C444 0.929 . S
H431 C445 0.931 . S
H432 C447 0.930 . S
C433 H421 0.930 . S
C433 C434 1.399 1_655 S
C433 C438 1.399 . S
C434 C433 1.399 1_455 S
C434 C435 1.376 . S
C435 H422 0.930 . S
C435 C434 1.376 . S
C435 C436 1.388 . S
C436 H423 0.930 . S
C436 C435 1.388 . S
C436 C437 1.390 . S
C437 C436 1.390 . S
C437 C438 1.394 1_455 S
C437 C443 1.465 . S
C438 C433 1.399 . S
C438 C437 1.394 1_655 S
C438 C439 1.516 . S
C439 C438 1.516 . S
C439 C440 1.502 . S
C439 C441 1.561 . S
C439 C442 1.526 . S
C440 H424 0.959 . S
C440 H425 0.959 . S
C440 H426 0.961 . S
C440 C439 1.502 . S
C441 H427 0.960 . S
C441 H428 0.961 . S
C441 H429 0.959 . S
C441 C439 1.561 . S
C442 C439 1.526 . S
C442 C443 1.396 1_655 S
C442 C447 1.390 1_554 S
C443 C437 1.465 . S
C443 C442 1.396 1_455 S
C443 C444 1.399 . S
C444 H430 0.929 . S
C444 C443 1.399 . S
C444 C445 1.385 1_554 S
C445 H431 0.931 . S
C445 C444 1.385 1_556 S
C445 C446 1.412 . S
C446 C445 1.412 . S
C446 C447 1.369 1_455 S
C447 H432 0.930 . S
C447 C442 1.390 1_556 S
C447 C446 1.369 1_655 S
H448 C460 0.930 . S
H449 C462 0.930 . S
H450 C463 0.930 . S
H451 C467 0.959 . S
H452 C467 0.959 1_455 S
H453 C467 0.961 1_455 S
H454 C468 0.960 . S
H455 C468 0.961 . S
H456 C468 0.959 . S
H457 C471 0.929 . S
H458 C472 0.931 . S
H459 C474 0.930 . S
C460 H448 0.930 . S
C460 C461 1.399 . S
C460 C465 1.399 1_455 S
C461 C460 1.399 . S
C461 C462 1.376 1_455 S
C462 H449 0.930 . S
C462 C461 1.376 1_655 S
C462 C463 1.388 . S
C463 H450 0.930 . S
C463 C462 1.388 . S
C463 C464 1.390 . S
C464 C463 1.390 . S
C464 C465 1.394 . S
C464 C470 1.465 . S
C465 C460 1.399 1_655 S
C465 C464 1.394 . S
C465 C466 1.517 1_655 S
C466 C465 1.517 1_455 S
C466 C467 1.502 1_455 S
C466 C468 1.558 . S
C466 C469 1.528 1_455 S
C467 H451 0.959 . S
C467 H452 0.959 1_655 S
C467 H453 0.961 1_655 S
C467 C466 1.502 1_655 S
C468 H454 0.960 . S
C468 H455 0.961 . S
C468 H456 0.959 . S
C468 C466 1.558 . S
C469 C466 1.528 1_655 S
C469 C470 1.396 . S
C469 C474 1.390 . S
C470 C464 1.465 . S
C470 C469 1.396 . S
C470 C471 1.399 . S
C471 H457 0.929 . S
C471 C470 1.399 . S
C471 C472 1.385 . S
C472 H458 0.931 . S
C472 C471 1.385 . S
C472 C473 1.389 . S
C473 C472 1.389 . S
C473 C474 1.387 . S
C474 H459 0.930 . S
C474 C469 1.390 . S
C474 C473 1.387 . S
H475 C487 0.930 . S
H476 C489 0.930 . S
H477 C490 0.930 . S
H478 C494 0.959 . S
H479 C494 0.959 . S
H480 C494 0.961 . S
H481 C495 0.960 . S
H482 C495 0.961 . S
H483 C495 0.959 . S
H484 C498 0.929 . S
H485 C499 0.931 . S
H486 C501 0.930 . S
C487 H475 0.930 . S
C487 C488 1.394 1_545 S
C487 C492 1.399 1_545 S
C488 C487 1.394 1_565 S
C488 C489 1.388 . S
C489 H476 0.930 . S
C489 C488 1.388 . S
C489 C490 1.388 . S
C490 H477 0.930 . S
C490 C489 1.388 . S
C490 C491 1.390 . S
C491 C490 1.390 . S
C491 C492 1.394 . S
C491 C497 1.465 . S
C492 C487 1.399 1_565 S
C492 C491 1.394 . S
C492 C493 1.516 1_565 S
C493 C492 1.516 1_545 S
C493 C494 1.502 . S
C493 C495 1.561 . S
C493 C496 1.526 1_545 S
C494 H478 0.959 . S
C494 H479 0.959 . S
C494 H480 0.961 . S
C494 C493 1.502 . S
C495 H481 0.960 . S
C495 H482 0.961 . S
C495 H483 0.959 . S
C495 C493 1.561 . S
C496 C493 1.526 1_565 S
C496 C497 1.396 . S
C496 C501 1.390 . S
C497 C491 1.465 . S
C497 C496 1.396 . S
C497 C498 1.399 . S
C498 H484 0.929 . S
C498 C497 1.399 . S
C498 C499 1.385 . S
C499 H485 0.931 . S
C499 C498 1.385 . S
C499 C500 1.389 . S
C500 C499 1.389 . S
C500 C501 1.387 . S
C501 H486 0.930 . S
C501 C496 1.390 . S
C501 C500 1.387 . S
H502 C514 0.930 . S
H503 C516 0.930 . S
H504 C517 0.930 . S
H505 C521 0.959 . S
H506 C521 0.959 . S
H507 C521 0.961 . S
H508 C522 0.960 . S
H509 C522 0.961 . S
H510 C522 0.959 . S
H511 C525 0.929 . S
H512 C526 0.931 . S
H513 C528 0.930 . S
C514 H502 0.930 . S
C514 C515 1.399 . S
C514 C519 1.399 . S
C515 C514 1.399 . S
C515 C516 1.376 . S
C516 H503 0.930 . S
C516 C515 1.376 . S
C516 C517 1.388 . S
C517 H504 0.930 . S
C517 C516 1.388 . S
C517 C518 1.390 . S
C518 C517 1.390 . S
C518 C519 1.394 . S
C518 C524 1.465 . S
C519 C514 1.399 . S
C519 C518 1.394 . S
C519 C520 1.516 . S
C520 C519 1.516 . S
C520 C521 1.502 . S
C520 C522 1.561 . S
C520 C523 1.526 . S
C521 H505 0.959 . S
C521 H506 0.959 . S
C521 H507 0.961 . S
C521 C520 1.502 . S
C522 H508 0.960 . S
C522 H509 0.961 . S
C522 H510 0.959 . S
C522 C520 1.561 . S
C523 C520 1.526 . S
C523 C524 1.396 . S
C523 C528 1.390 . S
C524 C518 1.465 . S
C524 C523 1.396 . S
C524 C525 1.399 . S
C525 H511 0.929 . S
C525 C524 1.399 . S
C525 C526 1.385 . S
C526 H512 0.931 . S
C526 C525 1.385 . S
C526 C527 1.389 . S
C527 C526 1.389 . S
C527 C528 1.387 . S
C528 H513 0.930 . S
C528 C523 1.390 . S
C528 C527 1.387 . S
H529 C541 0.930 . S
H530 C543 0.930 . S
H531 C544 0.930 . S
H532 C548 0.959 . S
H533 C548 0.959 . S
H534 C548 0.961 . S
H535 C549 0.960 . S
H536 C549 0.961 . S
H537 C549 0.959 . S
H538 C552 0.929 . S
H539 C553 0.931 . S
H540 C555 0.930 . S
C541 H529 0.930 . S
C541 C542 1.399 . S
C541 C546 1.399 . S
C542 C541 1.399 . S
C542 C543 1.376 . S
C543 H530 0.930 . S
C543 C542 1.376 . S
C543 C544 1.388 . S
C544 H531 0.930 . S
C544 C543 1.388 . S
C544 C545 1.390 . S
C545 C544 1.390 . S
C545 C546 1.394 . S
C545 C551 1.465 . S
C546 C541 1.399 . S
C546 C545 1.394 . S
C546 C547 1.516 . S
C547 C546 1.516 . S
C547 C548 1.502 . S
C547 C549 1.561 . S
C547 C550 1.526 . S
C548 H532 0.959 . S
C548 H533 0.959 . S
C548 H534 0.961 . S
C548 C547 1.502 . S
C549 H535 0.960 . S
C549 H536 0.961 . S
C549 H537 0.959 . S
C549 C547 1.561 . S
C550 C547 1.526 . S
C550 C551 1.396 . S
C550 C555 1.390 . S
C551 C545 1.465 . S
C551 C550 1.396 . S
C551 C552 1.399 . S
C552 H538 0.929 . S
C552 C551 1.399 . S
C552 C553 1.385 . S
C553 H539 0.931 . S
C553 C552 1.385 . S
C553 C554 1.389 . S
C554 C553 1.389 . S
C554 C555 1.387 . S
C555 H540 0.930 . S
C555 C550 1.390 . S
C555 C554 1.387 . S
H556 C568 0.930 . S
H557 C570 0.930 . S
H558 C571 0.931 . S
H559 C575 0.959 . S
H560 C575 0.959 . S
H561 C575 0.961 . S
H562 C576 0.960 1_655 S
H563 C576 0.961 1_556 S
H564 C576 0.959 1_655 S
H565 C579 0.929 . S
H566 C580 0.931 . S
H567 C582 0.930 . S
C568 H556 0.930 . S
C568 C569 1.399 1_455 S
C568 C573 1.399 . S
C569 C568 1.399 1_655 S
C569 C570 1.376 . S
C570 H557 0.930 . S
C570 C569 1.376 . S
C570 C571 1.390 . S
C571 H558 0.931 . S
C571 C570 1.390 . S
C571 C572 1.387 1_655 S
C572 C571 1.387 1_455 S
C572 C573 1.394 . S
C572 C578 1.465 . S
C573 C568 1.399 . S
C573 C572 1.394 . S
C573 C574 1.516 . S
C574 C573 1.516 . S
C574 C575 1.502 . S
C574 C576 1.561 . S
C574 C577 1.526 . S
C575 H559 0.959 . S
C575 H560 0.959 . S
C575 H561 0.961 . S
C575 C574 1.502 . S
C576 H562 0.960 1_455 S
C576 H563 0.961 1_554 S
C576 H564 0.959 1_455 S
C576 C574 1.561 . S
C577 C574 1.526 . S
C577 C578 1.396 . S
C577 C582 1.390 . S
C578 C572 1.465 . S
C578 C577 1.396 . S
C578 C579 1.399 . S
C579 H565 0.929 . S
C579 C578 1.399 . S
C579 C580 1.385 . S
C580 H566 0.931 . S
C580 C579 1.385 . S
C580 C581 1.389 . S
C581 C580 1.389 . S
C581 C582 1.387 . S
C582 H567 0.930 . S
C582 C577 1.390 . S
C582 C581 1.387 . S
H583 C595 0.930 . S
H584 C597 0.930 . S
H585 C598 0.930 . S
H586 C602 0.959 . S
H587 C602 0.959 . S
H588 C602 0.961 . S
H589 C603 0.960 . S
H590 C603 0.961 . S
H591 C603 0.959 1_545 S
H592 C606 0.929 . S
H593 C607 0.931 . S
H594 C609 0.930 . S
C595 H583 0.930 . S
C595 C596 1.385 1_565 S
C595 C600 1.399 1_565 S
C596 C595 1.385 1_545 S
C596 C597 1.409 . S
C597 H584 0.930 . S
C597 C596 1.409 . S
C597 C598 1.388 . S
C598 H585 0.930 . S
C598 C597 1.388 . S
C598 C599 1.390 . S
C599 C598 1.390 . S
C599 C600 1.394 . S
C599 C605 1.465 . S
C600 C595 1.399 1_545 S
C600 C599 1.394 . S
C600 C601 1.516 1_545 S
C601 C600 1.516 1_565 S
C601 C602 1.502 . S
C601 C603 1.561 . S
C601 C604 1.526 1_565 S
C602 H586 0.959 . S
C602 H587 0.959 . S
C602 H588 0.961 . S
C602 C601 1.502 . S
C603 H589 0.960 . S
C603 H590 0.961 . S
C603 H591 0.959 1_565 S
C603 C601 1.561 . S
C604 C601 1.526 1_545 S
C604 C605 1.396 . S
C604 C609 1.390 . S
C605 C599 1.465 . S
C605 C604 1.396 . S
C605 C606 1.399 . S
C606 H592 0.929 . S
C606 C605 1.399 . S
C606 C607 1.385 . S
C607 H593 0.931 . S
C607 C606 1.385 . S
C607 C608 1.389 . S
C608 C607 1.389 . S
C608 C609 1.387 . S
C609 H594 0.930 . S
C609 C604 1.390 . S
C609 C608 1.387 . S
H610 C622 0.930 . S
H611 C624 0.930 . S
H612 C625 0.930 . S
H613 C629 0.959 . S
H614 C629 0.959 . S
H615 C629 0.961 . S
H616 C630 0.960 . S
H617 C630 0.961 . S
H618 C630 0.959 . S
H619 C633 0.929 . S
H620 C634 0.931 . S
H621 C636 0.930 . S
C622 H610 0.930 . S
C622 C623 1.399 . S
C622 C627 1.399 . S
C623 C622 1.399 . S
C623 C624 1.376 . S
C624 H611 0.930 . S
C624 C623 1.376 . S
C624 C625 1.388 . S
C625 H612 0.930 . S
C625 C624 1.388 . S
C625 C626 1.390 . S
C626 C625 1.390 . S
C626 C627 1.394 . S
C626 C632 1.465 . S
C627 C622 1.399 . S
C627 C626 1.394 . S
C627 C628 1.516 . S
C628 C627 1.516 . S
C628 C629 1.502 . S
C628 C630 1.561 . S
C628 C631 1.526 . S
C629 H613 0.959 . S
C629 H614 0.959 . S
C629 H615 0.961 . S
C629 C628 1.502 . S
C630 H616 0.960 . S
C630 H617 0.961 . S
C630 H618 0.959 . S
C630 C628 1.561 . S
C631 C628 1.526 . S
C631 C632 1.396 . S
C631 C636 1.390 . S
C632 C626 1.465 . S
C632 C631 1.396 . S
C632 C633 1.399 . S
C633 H619 0.929 . S
C633 C632 1.399 . S
C633 C634 1.385 . S
C634 H620 0.931 . S
C634 C633 1.385 . S
C634 C635 1.389 . S
C635 C634 1.389 . S
C635 C636 1.387 . S
C636 H621 0.930 . S
C636 C631 1.390 . S
C636 C635 1.387 . S
H637 C649 0.930 . S
H638 C651 0.930 . S
H639 C652 0.930 . S
H640 C656 0.959 . S
H641 C656 0.959 . S
H642 C656 0.961 . S
H643 C657 0.960 . S
H644 C657 0.961 . S
H645 C657 0.959 . S
H646 C660 0.929 . S
H647 C661 0.931 1_556 S
H648 C663 0.930 . S
C649 H637 0.930 . S
C649 C650 1.399 . S
C649 C654 1.399 . S
C650 C649 1.399 . S
C650 C651 1.376 . S
C651 H638 0.930 . S
C651 C650 1.376 . S
C651 C652 1.388 . S
C652 H639 0.930 . S
C652 C651 1.388 . S
C652 C653 1.390 . S
C653 C652 1.390 . S
C653 C654 1.394 . S
C653 C659 1.465 . S
C654 C649 1.399 . S
C654 C653 1.394 . S
C654 C655 1.516 . S
C655 C654 1.516 . S
C655 C656 1.502 . S
C655 C657 1.561 . S
C655 C658 1.526 . S
C656 H640 0.959 . S
C656 H641 0.959 . S
C656 H642 0.961 . S
C656 C655 1.502 . S
C657 H643 0.960 . S
C657 H644 0.961 . S
C657 H645 0.959 . S
C657 C655 1.561 . S
C658 C655 1.526 . S
C658 C659 1.396 . S
C658 C663 1.390 . S
C659 C653 1.465 . S
C659 C658 1.396 . S
C659 C660 1.399 . S
C660 H646 0.929 . S
C660 C659 1.399 . S
C660 C661 1.385 . S
C661 H647 0.931 1_554 S
C661 C660 1.385 . S
C661 C662 1.389 . S
C662 C661 1.389 . S
C662 C663 1.387 . S
C663 H648 0.930 . S
C663 C658 1.390 . S
C663 C662 1.387 . S
H664 C676 0.941 . S
H665 C678 0.930 1_554 S
H666 C679 0.930 1_554 S
H667 C683 0.959 . S
H668 C683 0.959 . S
H669 C683 0.961 . S
H670 C684 0.960 . S
H671 C684 0.961 . S
H672 C684 0.959 . S
H673 C687 0.929 . S
H674 C688 0.931 . S
H675 C690 0.930 . S
C676 H664 0.941 . S
C676 C677 1.394 1_655 S
C676 C681 1.394 1_655 S
C677 C676 1.394 1_455 S
C677 C678 1.376 . S
C678 H665 0.930 1_556 S
C678 C677 1.376 . S
C678 C679 1.388 . S
C679 H666 0.930 1_556 S
C679 C678 1.388 . S
C679 C680 1.390 . S
C680 C679 1.390 . S
C680 C681 1.394 . S
C680 C686 1.465 . S
C681 C676 1.394 1_455 S
C681 C680 1.394 . S
C681 C682 1.516 . S
C682 C681 1.516 . S
C682 C683 1.502 1_455 S
C682 C684 1.561 . S
C682 C685 1.526 . S
C683 H667 0.959 . S
C683 H668 0.959 . S
C683 H669 0.961 . S
C683 C682 1.502 1_655 S
C684 H670 0.960 . S
C684 H671 0.961 . S
C684 H672 0.959 . S
C684 C682 1.561 . S
C685 C682 1.526 . S
C685 C686 1.396 . S
C685 C690 1.390 . S
C686 C680 1.465 . S
C686 C685 1.396 . S
C686 C687 1.399 . S
C687 H673 0.929 . S
C687 C686 1.399 . S
C687 C688 1.385 . S
C688 H674 0.931 . S
C688 C687 1.385 . S
C688 C689 1.389 . S
C689 C688 1.389 . S
C689 C690 1.387 . S
C690 H675 0.930 . S
C690 C685 1.390 . S
C690 C689 1.387 . S
H691 C703 0.930 . S
H692 C705 0.930 . S
H693 C706 0.930 . S
H694 C710 0.959 . S
H695 C710 0.959 . S
H696 C710 0.961 . S
H697 C711 0.960 . S
H698 C711 0.961 . S
H699 C711 0.959 . S
H700 C714 0.929 . S
H701 C715 0.931 . S
H702 C717 0.930 . S
C703 H691 0.930 . S
C703 C704 1.399 1_565 S
C703 C708 1.399 . S
C704 C703 1.399 1_545 S
C704 C705 1.376 . S
C705 H692 0.930 . S
C705 C704 1.376 . S
C705 C706 1.388 . S
C706 H693 0.930 . S
C706 C705 1.388 . S
C706 C707 1.390 . S
C707 C706 1.390 . S
C707 C708 1.394 1_545 S
C707 C713 1.465 . S
C708 C703 1.399 . S
C708 C707 1.394 1_565 S
C708 C709 1.516 . S
C709 C708 1.516 . S
C709 C710 1.502 . S
C709 C711 1.561 . S
C709 C712 1.526 . S
C710 H694 0.959 . S
C710 H695 0.959 . S
C710 H696 0.961 . S
C710 C709 1.502 . S
C711 H697 0.960 . S
C711 H698 0.961 . S
C711 H699 0.959 . S
C711 C709 1.561 . S
C712 C709 1.526 . S
C712 C713 1.396 1_565 S
C712 C717 1.390 . S
C713 C707 1.465 . S
C713 C712 1.396 1_545 S
C713 C714 1.399 . S
C714 H700 0.929 . S
C714 C713 1.399 . S
C714 C715 1.385 . S
C715 H701 0.931 . S
C715 C714 1.385 . S
C715 C716 1.389 . S
C716 C715 1.389 . S
C716 C717 1.387 1_545 S
C717 H702 0.930 . S
C717 C712 1.390 . S
C717 C716 1.387 1_565 S
H718 C730 0.930 . S
H719 C732 0.930 1_554 S
H720 C733 0.930 1_554 S
H721 C737 0.959 . S
H722 C737 0.959 . S
H723 C737 0.961 . S
H724 C738 0.960 . S
H725 C738 0.961 . S
H726 C738 0.959 . S
H727 C741 0.937 . S
H728 C742 0.931 . S
H729 C744 0.930 . S
C730 H718 0.930 . S
C730 C731 1.399 . S
C730 C735 1.399 . S
C731 C730 1.399 . S
C731 C732 1.376 . S
C732 H719 0.930 1_556 S
C732 C731 1.376 . S
C732 C733 1.388 . S
C733 H720 0.930 1_556 S
C733 C732 1.388 . S
C733 C734 1.390 . S
C734 C733 1.390 . S
C734 C735 1.394 . S
C734 C740 1.465 . S
C735 C730 1.399 . S
C735 C734 1.394 . S
C735 C736 1.516 . S
C736 C735 1.516 . S
C736 C737 1.502 . S
C736 C738 1.561 . S
C736 C739 1.526 . S
C737 H721 0.959 . S
C737 H722 0.959 . S
C737 H723 0.961 . S
C737 C736 1.502 . S
C738 H724 0.960 . S
C738 H725 0.961 . S
C738 H726 0.959 . S
C738 C736 1.561 . S
C739 C736 1.526 . S
C739 C740 1.396 . S
C739 C744 1.390 . S
C740 C734 1.465 . S
C740 C739 1.396 . S
C740 C741 1.399 . S
C741 H727 0.937 . S
C741 C740 1.399 . S
C741 C742 1.385 . S
C742 H728 0.931 . S
C742 C741 1.385 . S
C742 C743 1.389 . S
C743 C742 1.389 . S
C743 C744 1.387 . S
C744 H729 0.930 . S
C744 C739 1.390 . S
C744 C743 1.387 . S
H745 C757 0.930 . S
H746 C759 0.930 . S
H747 C760 0.930 . S
H748 C764 0.959 . S
H749 C764 0.959 . S
H750 C764 0.961 . S
H751 C765 0.960 . S
H752 C765 0.961 . S
H753 C765 0.959 . S
H754 C768 0.929 . S
H755 C769 0.931 . S
H756 C771 0.930 . S
C757 H745 0.930 . S
C757 C758 1.399 . S
C757 C762 1.399 . S
C758 C757 1.399 . S
C758 C759 1.376 . S
C759 H746 0.930 . S
C759 C758 1.376 . S
C759 C760 1.388 . S
C760 H747 0.930 . S
C760 C759 1.388 . S
C760 C761 1.390 . S
C761 C760 1.390 . S
C761 C762 1.394 . S
C761 C767 1.465 . S
C762 C757 1.399 . S
C762 C761 1.394 . S
C762 C763 1.516 . S
C763 C762 1.516 . S
C763 C764 1.502 . S
C763 C765 1.561 . S
C763 C766 1.526 . S
C764 H748 0.959 . S
C764 H749 0.959 . S
C764 H750 0.961 . S
C764 C763 1.502 . S
C765 H751 0.960 . S
C765 H752 0.961 . S
C765 H753 0.959 . S
C765 C763 1.561 . S
C766 C763 1.526 . S
C766 C767 1.396 . S
C766 C771 1.390 . S
C767 C761 1.465 . S
C767 C766 1.396 . S
C767 C768 1.399 . S
C768 H754 0.929 . S
C768 C767 1.399 . S
C768 C769 1.385 . S
C769 H755 0.931 . S
C769 C768 1.385 . S
C769 C770 1.389 . S
C770 C769 1.389 . S
C770 C771 1.387 . S
C771 H756 0.930 . S
C771 C766 1.390 . S
C771 C770 1.387 . S
H772 C784 0.930 . S
H773 C786 0.930 . S
H774 C787 0.930 . S
H775 C791 0.959 . S
H776 C791 0.959 . S
H777 C791 0.961 . S
H778 C792 0.960 . S
H779 C792 0.961 . S
H780 C792 0.959 . S
H781 C795 0.929 . S
H782 C796 0.931 . S
H783 C798 0.930 1_455 S
C784 H772 0.930 . S
C784 C785 1.399 1_455 S
C784 C789 1.399 1_455 S
C785 C784 1.399 1_655 S
C785 C786 1.376 . S
C786 H773 0.930 . S
C786 C785 1.376 . S
C786 C787 1.388 . S
C787 H774 0.930 . S
C787 C786 1.388 . S
C787 C788 1.390 . S
C788 C787 1.390 . S
C788 C789 1.394 . S
C788 C794 1.465 . S
C789 C784 1.399 1_655 S
C789 C788 1.394 . S
C789 C790 1.516 1_655 S
C790 C789 1.516 1_455 S
C790 C791 1.502 . S
C790 C792 1.561 1_455 S
C790 C793 1.526 1_455 S
C791 H775 0.959 . S
C791 H776 0.959 . S
C791 H777 0.961 . S
C791 C790 1.502 . S
C792 H778 0.960 . S
C792 H779 0.961 . S
C792 H780 0.959 . S
C792 C790 1.561 1_655 S
C793 C790 1.526 1_655 S
C793 C794 1.396 . S
C793 C798 1.390 . S
C794 C788 1.465 . S
C794 C793 1.396 . S
C794 C795 1.399 . S
C795 H781 0.929 . S
C795 C794 1.399 . S
C795 C796 1.385 . S
C796 H782 0.931 . S
C796 C795 1.385 . S
C796 C797 1.389 . S
C797 C796 1.389 . S
C797 C798 1.387 . S
C798 H783 0.930 1_655 S
C798 C793 1.390 . S
C798 C797 1.387 . S
H799 C811 0.930 . S
H800 C813 0.930 . S
H801 C814 0.930 . S
H802 C818 0.959 . S
H803 C818 0.959 . S
H804 C818 0.961 . S
H805 C819 0.960 . S
H806 C819 0.961 . S
H807 C819 0.959 . S
H808 C822 0.929 . S
H809 C823 0.931 . S
H810 C825 0.930 . S
C811 H799 0.930 . S
C811 C812 1.401 . S
C811 C816 1.399 . S
C812 C811 1.401 . S
C812 C813 1.374 1_565 S
C813 H800 0.930 . S
C813 C812 1.374 1_545 S
C813 C814 1.388 . S
C814 H801 0.930 . S
C814 C813 1.388 . S
C814 C815 1.390 . S
C815 C814 1.390 . S
C815 C816 1.394 1_545 S
C815 C821 1.465 . S
C816 C811 1.399 . S
C816 C815 1.394 1_565 S
C816 C817 1.516 . S
C817 C816 1.516 . S
C817 C818 1.502 . S
C817 C819 1.561 . S
C817 C820 1.526 . S
C818 H802 0.959 . S
C818 H803 0.959 . S
C818 H804 0.961 . S
C818 C817 1.502 . S
C819 H805 0.960 . S
C819 H806 0.961 . S
C819 H807 0.959 . S
C819 C817 1.561 . S
C820 C817 1.526 . S
C820 C821 1.396 1_565 S
C820 C825 1.390 . S
C821 C815 1.465 . S
C821 C820 1.396 1_545 S
C821 C822 1.399 . S
C822 H808 0.929 . S
C822 C821 1.399 . S
C822 C823 1.385 . S
C823 H809 0.931 . S
C823 C822 1.385 . S
C823 C824 1.389 1_545 S
C824 C823 1.389 1_565 S
C824 C825 1.387 . S
C825 H810 0.930 . S
C825 C820 1.390 . S
C825 C824 1.387 . S
H826 C838 0.930 . S
H827 C840 0.930 . S
H828 C841 0.930 . S
H829 C845 0.959 . S
H830 C845 0.959 . S
H831 C845 0.961 . S
H832 C846 0.960 . S
H833 C846 0.961 . S
H834 C846 0.959 . S
H835 C849 0.929 . S
H836 C850 0.931 . S
H837 C852 0.930 . S
C838 H826 0.930 . S
C838 C839 1.399 . S
C838 C843 1.399 . S
C839 C838 1.399 . S
C839 C840 1.376 . S
C840 H827 0.930 . S
C840 C839 1.376 . S
C840 C841 1.388 . S
C841 H828 0.930 . S
C841 C840 1.388 . S
C841 C842 1.390 . S
C842 C841 1.390 . S
C842 C843 1.394 . S
C842 C848 1.465 . S
C843 C838 1.399 . S
C843 C842 1.394 . S
C843 C844 1.516 . S
C844 C843 1.516 . S
C844 C845 1.502 . S
C844 C846 1.561 . S
C844 C847 1.526 . S
C845 H829 0.959 . S
C845 H830 0.959 . S
C845 H831 0.961 . S
C845 C844 1.502 . S
C846 H832 0.960 . S
C846 H833 0.961 . S
C846 H834 0.959 . S
C846 C844 1.561 . S
C847 C844 1.526 . S
C847 C848 1.396 . S
C847 C852 1.390 . S
C848 C842 1.465 . S
C848 C847 1.396 . S
C848 C849 1.399 . S
C849 H835 0.929 . S
C849 C848 1.399 . S
C849 C850 1.385 . S
C850 H836 0.931 . S
C850 C849 1.385 . S
C850 C851 1.389 . S
C851 C850 1.389 . S
C851 C852 1.387 . S
C852 H837 0.930 . S
C852 C847 1.390 . S
C852 C851 1.387 . S
H853 C865 0.930 . S
H854 C867 0.930 . S
H855 C868 0.930 . S
H856 C872 0.959 . S
H857 C872 0.959 . S
H858 C872 0.961 . S
H859 C873 0.960 . S
H860 C873 0.961 . S
H861 C873 0.959 . S
H862 C876 0.929 . S
H863 C877 0.931 . S
H864 C879 0.930 . S
C865 H853 0.930 . S
C865 C866 1.399 . S
C865 C870 1.399 . S
C866 C865 1.399 . S
C866 C867 1.376 . S
C867 H854 0.930 . S
C867 C866 1.376 . S
C867 C868 1.388 . S
C868 H855 0.930 . S
C868 C867 1.388 . S
C868 C869 1.390 . S
C869 C868 1.390 . S
C869 C870 1.394 . S
C869 C875 1.465 . S
C870 C865 1.399 . S
C870 C869 1.394 . S
C870 C871 1.516 . S
C871 C870 1.516 . S
C871 C872 1.502 . S
C871 C873 1.561 . S
C871 C874 1.526 . S
C872 H856 0.959 . S
C872 H857 0.959 . S
C872 H858 0.961 . S
C872 C871 1.502 . S
C873 H859 0.960 . S
C873 H860 0.961 . S
C873 H861 0.959 . S
C873 C871 1.561 . S
C874 C871 1.526 . S
C874 C875 1.396 . S
C874 C879 1.390 . S
C875 C869 1.465 . S
C875 C874 1.396 . S
C875 C876 1.399 . S
C876 H862 0.929 . S
C876 C875 1.399 . S
C876 C877 1.385 . S
C877 H863 0.931 . S
C877 C876 1.385 . S
C877 C878 1.389 . S
C878 C877 1.389 . S
C878 C879 1.387 . S
C879 H864 0.930 . S
C879 C874 1.390 . S
C879 C878 1.387 . S
C245 C61 1.834 . S
C257 C82 1.928 . S
C284 C122 1.942 . S
C272 C70 1.781 . S
C311 C162 1.961 . S
C299 C43 1.781 . S
C338 C202 1.951 1_455 S
C326 C52 1.838 1_455 S
C365 C91 1.953 1_565 S
C353 C25 1.839 . S
C380 C34 1.859 . S
C392 C131 1.948 . S
C407 C7 1.779 . S
C419 C171 1.936 . S
C434 C16 1.795 1_455 S
C446 C211 1.934 . S
C473 C88 0.634 . S
C461 C50 0.521 1_455 S
C500 C128 0.657 . S
C488 C59 0.458 . S
C527 C168 0.557 . S
C515 C67 0.436 . S
C542 C41 0.581 . S
C554 C208 0.438 . S
C569 C14 0.529 . S
C581 C79 0.484 . S
C608 C119 0.657 . S
C596 C23 0.430 1_545 S
C635 C159 0.456 . S
C623 C31 0.585 . S
C650 C5 0.564 . S
C662 C199 0.499 . S
C677 C49 1.961 1_455 S
C689 C83 2.241 . S
C704 C58 2.003 1_545 S
C716 C123 2.242 . S
C743 C163 2.223 . S
C731 C68 1.933 . S
C770 C203 2.214 . S
C758 C40 1.954 . S
C785 C13 2.027 . S
C797 C74 2.258 . S
C824 C114 2.209 . S
C812 C22 2.015 . S
C851 C154 2.230 . S
C839 C32 2.012 . S
C866 C4 2.023 . S
C878 C194 2.247 . S
