# Generated by pormake.
# Topology zzz, (3,6)-cn, num edge types: 1
# Building blocks:
#     Node 0, Type 0, BuildingBlock: QEWDON_clean_linker_0, # of connection points: 3
#     Node 1, Type 0, BuildingBlock: QEWDON_clean_linker_0, # of connection points: 3
#     Node 2, Type 0, BuildingBlock: QEWDON_clean_linker_0, # of connection points: 3
#     Node 3, Type 0, BuildingBlock: QEWDON_clean_linker_0, # of connection points: 3
#     Node 4, Type 0, BuildingBlock: QEWDON_clean_linker_0, # of connection points: 3
#     Node 5, Type 0, BuildingBlock: QEWDON_clean_linker_0, # of connection points: 3
#     Node 6, Type 0, BuildingBlock: QEWDON_clean_linker_0, # of connection points: 3
#     Node 7, Type 0, BuildingBlock: QEWDON_clean_linker_0, # of connection points: 3
#     Node 8, Type 1, BuildingBlock: VOLQOD_clean_sbu_1, # of connection points: 6
#     Node 9, Type 1, BuildingBlock: VOLQOD_clean_sbu_1, # of connection points: 6
#     Node 10, Type 1, BuildingBlock: VOLQOD_clean_sbu_1, # of connection points: 6
#     Node 11, Type 1, BuildingBlock: VOLQOD_clean_sbu_1, # of connection points: 6
#     Edge 12, Type (0, 1), BuildingBlock: XIVTED_clean_linker_0, # of connection points: 2
#     Edge 13, Type (0, 1), BuildingBlock: XIVTED_clean_linker_0, # of connection points: 2
#     Edge 14, Type (0, 1), BuildingBlock: XIVTED_clean_linker_0, # of connection points: 2
#     Edge 15, Type (0, 1), BuildingBlock: XIVTED_clean_linker_0, # of connection points: 2
#     Edge 16, Type (0, 1), BuildingBlock: XIVTED_clean_linker_0, # of connection points: 2
#     Edge 17, Type (0, 1), BuildingBlock: XIVTED_clean_linker_0, # of connection points: 2
#     Edge 18, Type (0, 1), BuildingBlock: XIVTED_clean_linker_0, # of connection points: 2
#     Edge 19, Type (0, 1), BuildingBlock: XIVTED_clean_linker_0, # of connection points: 2
#     Edge 20, Type (0, 1), BuildingBlock: XIVTED_clean_linker_0, # of connection points: 2
#     Edge 21, Type (0, 1), BuildingBlock: XIVTED_clean_linker_0, # of connection points: 2
#     Edge 22, Type (0, 1), BuildingBlock: XIVTED_clean_linker_0, # of connection points: 2
#     Edge 23, Type (0, 1), BuildingBlock: XIVTED_clean_linker_0, # of connection points: 2
#     Edge 24, Type (0, 1), BuildingBlock: XIVTED_clean_linker_0, # of connection points: 2
#     Edge 25, Type (0, 1), BuildingBlock: XIVTED_clean_linker_0, # of connection points: 2
#     Edge 26, Type (0, 1), BuildingBlock: XIVTED_clean_linker_0, # of connection points: 2
#     Edge 27, Type (0, 1), BuildingBlock: XIVTED_clean_linker_0, # of connection points: 2
#     Edge 28, Type (0, 1), BuildingBlock: XIVTED_clean_linker_0, # of connection points: 2
#     Edge 29, Type (0, 1), BuildingBlock: XIVTED_clean_linker_0, # of connection points: 2
#     Edge 30, Type (0, 1), BuildingBlock: XIVTED_clean_linker_0, # of connection points: 2
#     Edge 31, Type (0, 1), BuildingBlock: XIVTED_clean_linker_0, # of connection points: 2
#     Edge 32, Type (0, 1), BuildingBlock: XIVTED_clean_linker_0, # of connection points: 2
#     Edge 33, Type (0, 1), BuildingBlock: XIVTED_clean_linker_0, # of connection points: 2
#     Edge 34, Type (0, 1), BuildingBlock: XIVTED_clean_linker_0, # of connection points: 2
#     Edge 35, Type (0, 1), BuildingBlock: XIVTED_clean_linker_0, # of connection points: 2
# Relax obj value: 0.147
# Max RMSD: 0.236
# Mean RMSD: 0.099
data_MOF--net-zzz--node1-VOLQOD_clean_sbu_1--node2-QEWDON_clean_linker_0--edge1-XIVTED_clean_linker_0
_symmetry_space_group_name_H-M    P1
_symmetry_Int_Tables_number       1
_symmetry_cell_setting            triclinic
loop_
_symmetry_equiv_pos_as_xyz
'x, y, z'
_cell_length_a     54.703564
_cell_length_b     54.547156
_cell_length_c     17.372511
_cell_angle_alpha  90.141448
_cell_angle_beta   90.011612
_cell_angle_gamma 90.691068
loop_
_atom_site_label
_atom_site_type_symbol
_atom_site_fract_x
_atom_site_fract_y
_atom_site_fract_z
_atom_type_partial_charge
H0 H 0.78974 0.5215 0.03953 0.0
C1 C 0.80036 0.52542 0.09081 0.0
C2 C 0.82204 0.51242 0.1037 0.0
C3 C 0.79304 0.54403 0.14252 0.0
H4 H 0.85418 0.50978 0.17504 0.0
C5 C 0.83676 0.51873 0.16677 0.0
C6 C 0.8301 0.53721 0.21776 0.0
C7 C 0.80793 0.54926 0.20737 0.0
C8 C 0.77111 0.55932 0.12623 0.0
H9 H 0.80277 0.56316 0.24872 0.0
C10 C 0.75013 0.54956 0.08881 0.0
C11 C 0.7301 0.56469 0.07141 0.0
C12 C 0.77147 0.58439 0.14612 0.0
H13 H 0.78741 0.59292 0.17218 0.0
C14 C 0.75145 0.59913 0.13124 0.0
H15 H 0.74946 0.53041 0.07226 0.0
C16 C 0.73093 0.58942 0.09445 0.0
H17 H 0.71565 0.6014 0.08378 0.0
H18 H 0.75196 0.6183 0.1475 0.0
H19 H 0.00957 0.76927 0.00739 0.0
C20 C 0.00981 0.78003 0.0599 0.0
C21 C 0.02314 0.80223 0.06212 0.0
C22 C 0.99545 0.77264 0.12341 0.0
H23 H 0.03091 0.83471 0.12834 0.0
C24 C 0.0222 0.81675 0.12863 0.0
C25 C 0.00772 0.81006 0.19166 0.0
C26 C 0.99472 0.78777 0.18936 0.0
C27 C 0.97944 0.7504 0.11861 0.0
H28 H 0.98358 0.78256 0.23834 0.0
C29 C 0.98758 0.72866 0.08334 0.0
C30 C 0.97225 0.70773 0.07967 0.0
C31 C 0.95556 0.75099 0.1488 0.0
H32 H 0.94843 0.76756 0.17438 0.0
C33 C 0.94036 0.73035 0.14515 0.0
H34 H 0.00597 0.72782 0.06042 0.0
C35 C 0.94861 0.70884 0.11107 0.0
H36 H 0.9363 0.69316 0.1081 0.0
H37 H 0.92202 0.73107 0.16838 0.0
H38 H 0.72988 0.01083 0.01235 0.0
C39 C 0.7189 0.00807 0.06355 0.0
C40 C 0.6979 0.02235 0.07415 0.0
C41 C 0.72461 0.98915 0.11586 0.0
H42 H 0.66552 0.02722 0.14276 0.0
C43 C 0.68253 0.01737 0.13672 0.0
C44 C 0.68716 0.99802 0.18682 0.0
C45 C 0.70877 0.9848 0.1788 0.0
C46 C 0.74519 0.97203 0.10008 0.0
H47 H 0.71235 0.97016 0.21911 0.0
C48 C 0.76694 0.98005 0.06346 0.0
C49 C 0.7855 0.96326 0.04526 0.0
C50 C 0.74261 0.94697 0.11864 0.0
H51 H 0.72595 0.93972 0.14377 0.0
C52 C 0.76127 0.93056 0.10315 0.0
H53 H 0.76927 0.99913 0.04777 0.0
C54 C 0.78255 0.93858 0.06688 0.0
H55 H 0.79669 0.92535 0.05523 0.0
H56 H 0.75906 0.91142 0.11827 0.0
H57 H 0.50929 0.73717 0.02063 0.0
C58 C 0.51433 0.72549 0.06829 0.0
C59 C 0.50198 0.70294 0.07884 0.0
C60 C 0.53442 0.73204 0.11539 0.0
H61 H 0.50127 0.66936 0.14427 0.0
C62 C 0.50975 0.68731 0.13767 0.0
C63 C 0.52994 0.6932 0.18359 0.0
C64 C 0.54175 0.71588 0.17416 0.0
C65 C 0.54978 0.75398 0.09709 0.0
H66 H 0.55748 0.7203 0.20976 0.0
C67 C 0.53928 0.77655 0.07644 0.0
C68 C 0.55426 0.79695 0.05789 0.0
C69 C 0.57541 0.75205 0.09789 0.0
H70 H 0.58409 0.73484 0.11135 0.0
C71 C 0.59024 0.77208 0.07935 0.0
H72 H 0.51957 0.77833 0.07612 0.0
C73 C 0.57983 0.79433 0.0594 0.0
H74 H 0.59189 0.80938 0.0436 0.0
H75 H 0.60992 0.77026 0.07956 0.0
H76 H 0.24622 0.53681 0.3307 0.0
C77 C 0.23306 0.52908 0.29062 0.0
C78 C 0.20811 0.53018 0.30858 0.0
C79 C 0.24069 0.5187 0.21994 0.0
H80 H 0.17163 0.52115 0.27238 0.0
C81 C 0.19085 0.52083 0.25684 0.0
C82 C 0.19775 0.5107 0.18645 0.0
C83 C 0.22271 0.50907 0.16893 0.0
C84 C 0.2671 0.51888 0.19725 0.0
H85 H 0.22797 0.50068 0.11497 0.0
C86 C 0.28602 0.51674 0.25237 0.0
C87 C 0.31083 0.51741 0.22972 0.0
C88 C 0.27355 0.52176 0.11925 0.0
H89 H 0.25981 0.5244 0.07533 0.0
C90 C 0.29793 0.52168 0.09644 0.0
H91 H 0.28152 0.51479 0.31271 0.0
C92 C 0.3164 0.51938 0.15087 0.0
H93 H 0.33514 0.51915 0.13085 0.0
H94 H 0.30255 0.5236 0.03614 0.0
H95 H 0.01094 0.22851 0.28335 0.0
C96 C 0.02194 0.21615 0.24933 0.0
C97 C 0.01929 0.19085 0.2605 0.0
C98 C 0.03751 0.22523 0.19096 0.0
H99 H 0.02921 0.15502 0.22176 0.0
C100 C 0.03235 0.17455 0.21448 0.0
C101 C 0.04775 0.18301 0.15578 0.0
C102 C 0.05059 0.20843 0.14513 0.0
C103 C 0.03828 0.25195 0.17302 0.0
H104 H 0.06252 0.21503 0.09973 0.0
C105 C 0.03685 0.26973 0.23196 0.0
C106 C 0.03557 0.29483 0.21396 0.0
C107 C 0.03907 0.25984 0.0959 0.0
H108 H 0.03957 0.24679 0.04889 0.0
C109 C 0.03838 0.28474 0.07808 0.0
H110 H 0.03618 0.26408 0.29168 0.0
C111 C 0.03649 0.30214 0.13655 0.0
H112 H 0.03573 0.32136 0.12128 0.0
H113 H 0.03892 0.29054 0.01856 0.0
H114 H 0.27702 1.00118 0.30132 0.0
C115 C 0.28872 0.01265 0.26577 0.0
C116 C 0.31405 0.01257 0.27747 0.0
C117 C 0.27878 0.02628 0.20472 0.0
H118 H 0.34902 0.02537 0.23771 0.0
C119 C 0.3294 0.02648 0.22974 0.0
C120 C 0.31998 0.04013 0.16868 0.0
C121 C 0.29456 0.04018 0.15707 0.0
C122 C 0.25234 0.02419 0.18569 0.0
H123 H 0.28712 0.05057 0.10961 0.0
C124 C 0.23427 0.02499 0.24353 0.0
C125 C 0.20929 0.02312 0.22414 0.0
C126 C 0.24511 0.02098 0.10857 0.0
H127 H 0.25856 0.01973 0.06302 0.0
C128 C 0.22047 0.01885 0.08931 0.0
H129 H 0.2396 0.02771 0.30306 0.0
C130 C 0.20266 0.01994 0.14645 0.0
H131 H 0.18366 0.01796 0.12984 0.0
H132 H 0.21514 0.01624 0.02981 0.0
H133 H 0.51678 0.28049 0.30337 0.0
C134 C 0.50591 0.29207 0.26644 0.0
C135 C 0.5054 0.31739 0.28009 0.0
C136 C 0.49382 0.28206 0.20174 0.0
H137 H 0.49319 0.35229 0.23997 0.0
C138 C 0.49239 0.33262 0.23056 0.0
C139 C 0.48057 0.3232 0.16531 0.0
C140 C 0.48108 0.2978 0.15172 0.0
C141 C 0.49666 0.25575 0.18146 0.0
H142 H 0.47217 0.2904 0.10086 0.0
C143 C 0.49431 0.23716 0.23743 0.0
C144 C 0.49713 0.21229 0.21698 0.0
C145 C 0.50226 0.24919 0.10519 0.0
H146 H 0.50469 0.26306 0.06125 0.0
C147 C 0.50533 0.22471 0.08493 0.0
H148 H 0.48972 0.24202 0.29614 0.0
C149 C 0.50281 0.20639 0.14017 0.0
H150 H 0.50566 0.18755 0.1228 0.0
H151 H 0.50984 0.21991 0.02616 0.0
O152 O 0.06328 1.00362 0.63569 0.0
Zn153 Zn 0.0364 0.99806 0.71536 0.0
O154 O 1.00372 1.00169 0.66684 0.0
Zn155 Zn 0.98551 0.02817 0.7143 0.0
Zn156 Zn 0.00722 0.00782 0.55716 0.0
Zn157 Zn 0.98434 0.9721 0.67787 0.0
O158 O 0.95465 0.01661 0.76986 0.0
O159 O 0.9536 0.97728 0.73746 0.0
O160 O 0.04204 0.02485 0.79655 0.0
O161 O 0.00767 0.04608 0.78613 0.0
O162 O 0.97607 0.05325 0.63575 0.0
O163 O 0.98855 0.03768 0.52443 0.0
O164 O 0.99753 0.97807 0.49452 0.0
O165 O 0.04057 0.96337 0.75863 0.0
O166 O 0.97616 0.9559 0.5779 0.0
O167 O 1.00427 0.94705 0.72959 0.0
C168 C 0.06258 0.01106 0.56619 0.0
C169 C 0.9442 0.9956 0.77132 0.0
C170 C 0.97805 0.05446 0.5629 0.0
C171 C 0.02897 0.0433 0.81396 0.0
C172 C 0.98454 0.95924 0.51055 0.0
C173 C 0.02571 0.94513 0.75685 0.0
O174 O 0.04235 0.0143 0.53173 0.0
O175 O 0.50196 0.07033 0.64795 0.0
Zn176 Zn 0.50607 0.04556 0.73413 0.0
O177 O 0.50507 0.01178 0.69051 0.0
Zn178 Zn 0.47864 0.99239 0.73579 0.0
Zn179 Zn 0.50089 0.01245 0.57868 0.0
Zn180 Zn 0.53529 0.99534 0.71364 0.0
O181 O 0.49044 0.96304 0.79656 0.0
O182 O 0.53072 0.9671 0.78634 0.0
O183 O 0.47763 0.05066 0.80904 0.0
O184 O 0.45913 0.0141 0.80329 0.0
O185 O 0.45455 0.98092 0.65638 0.0
O186 O 0.46988 0.99481 0.54633 0.0
O187 O 0.52975 0.99762 0.52356 0.0
O188 O 0.53929 0.05361 0.78374 0.0
O189 O 0.55223 0.98342 0.61938 0.0
O190 O 0.55888 0.01906 0.75829 0.0
C191 C 0.49895 0.0683 0.57539 0.0
C192 C 0.51194 0.95592 0.81257 0.0
C193 C 0.45327 0.98343 0.58378 0.0
C194 C 0.46012 0.03613 0.82738 0.0
C195 C 0.54858 0.98648 0.54786 0.0
C196 C 0.55873 0.04092 0.78354 0.0
O197 O 0.49815 0.04737 0.54264 0.0
O198 O 0.4565 0.50766 0.64634 0.0
Zn199 Zn 0.48169 0.51094 0.73235 0.0
O200 O 0.51525 0.51166 0.6878 0.0
Zn201 Zn 0.53537 0.48605 0.73272 0.0
Zn202 Zn 0.5142 0.50775 0.57574 0.0
Zn203 Zn 0.53107 0.54265 0.71015 0.0
O204 O 0.56565 0.49907 0.78931 0.0
O205 O 0.5608 0.53912 0.77612 0.0
O206 O 0.47725 0.48145 0.80426 0.0
O207 O 0.51473 0.46595 0.80306 0.0
O208 O 0.54511 0.46148 0.6526 0.0
O209 O 0.52923 0.47566 0.54392 0.0
O210 O 0.53077 0.5359 0.51938 0.0
O211 O 0.47374 0.54349 0.78613 0.0
O212 O 0.54165 0.56032 0.61569 0.0
O213 O 0.5075 0.56492 0.75925 0.0
C214 C 0.45837 0.50716 0.57315 0.0
C215 C 0.57285 0.52106 0.80163 0.0
C216 C 0.54084 0.45934 0.58089 0.0
C217 C 0.49253 0.46521 0.82492 0.0
C218 C 0.54042 0.55578 0.54411 0.0
C219 C 0.48599 0.56356 0.7865 0.0
O220 O 0.47919 0.50741 0.54022 0.0
O221 O 0.98667 0.52798 0.58204 0.0
Zn222 Zn 0.01458 0.52237 0.65903 0.0
O223 O 0.01186 0.48965 0.70844 0.0
Zn224 Zn 0.00626 0.49293 0.81899 0.0
Zn225 Zn 0.98492 0.47127 0.66345 0.0
Zn226 Zn 0.04144 0.47078 0.69225 0.0
O227 O 0.03513 0.48057 0.87888 0.0
O228 O 0.05822 0.46237 0.79136 0.0
O229 O 0.01079 0.54893 0.73951 0.0
O230 O 1.00324 0.52857 0.8476 0.0
O231 O 0.97481 0.47602 0.8519 0.0
O232 O 0.96037 0.46078 0.74215 0.0
O233 O 0.99604 0.44206 0.60248 0.0
O234 O 0.04851 0.52755 0.61199 0.0
O235 O 0.03578 0.44037 0.62729 0.0
O236 O 0.06601 0.49209 0.63984 0.0
C237 C 0.96802 0.51442 0.5677 0.0
C238 C 0.05426 0.46877 0.86066 0.0
C239 C 0.95837 0.46438 0.81416 0.0
C240 C 0.00594 0.54867 0.81124 0.0
C241 C 0.01667 0.43177 0.5945 0.0
C242 C 0.06713 0.51365 0.61225 0.0
O243 O 0.96592 0.493 0.59562 0.0
H244 H 0.20771 1.00095 0.3665 0.0
H245 H 0.068 0.03629 0.43207 0.0
H246 H 0.16655 0.04832 0.2175 0.0
H247 H 0.10944 0.99647 0.60122 0.0
H248 H 0.1049 0.04186 0.35615 0.0
H249 H 0.17326 1.00038 0.45719 0.0
C250 C 0.19158 0.01147 0.35334 0.0
C251 C 0.18987 0.02443 0.28379 0.0
C252 C 0.10607 0.03201 0.41004 0.0
C253 C 0.15041 0.02366 0.38662 0.0
C254 C 0.08491 0.02874 0.45347 0.0
C255 C 0.08553 0.01571 0.52296 0.0
C256 C 0.12815 0.02197 0.43549 0.0
C257 C 0.10811 0.0066 0.54792 0.0
C258 C 0.17189 0.01104 0.40491 0.0
C259 C 0.16849 0.03763 0.26953 0.0
N260 N 0.12852 0.00971 0.50381 0.0
N261 N 0.1496 0.03676 0.32007 0.0
H262 H 0.47447 0.1677 0.198 0.0
H263 H 0.50808 0.11641 0.61596 0.0
H264 H 0.5132 0.21119 0.36751 0.0
H265 H 0.4846 0.07113 0.42495 0.0
H266 H 0.50549 0.15259 0.53281 0.0
H267 H 0.47321 0.13354 0.28793 0.0
C268 C 0.48275 0.17008 0.2542 0.0
C269 C 0.4943 0.19229 0.27464 0.0
C270 C 0.50085 0.13472 0.50936 0.0
C271 C 0.49266 0.15312 0.37872 0.0
C272 C 0.50226 0.11406 0.55679 0.0
C273 C 0.49666 0.09063 0.52738 0.0
C274 C 0.49356 0.13194 0.43225 0.0
C275 C 0.48925 0.08874 0.45017 0.0
C276 C 0.48194 0.15055 0.3057 0.0
C277 C 0.50407 0.19445 0.34924 0.0
N278 N 0.48793 0.10907 0.40548 0.0
N279 N 0.50318 0.17505 0.39846 0.0
H280 H 0.31371 0.49054 0.36474 0.0
H281 H 0.45536 0.51906 0.4212 0.0
H282 H 0.35447 0.54249 0.22645 0.0
H283 H 0.41053 0.49688 0.61397 0.0
H284 H 0.41877 0.52184 0.34209 0.0
H285 H 0.3489 0.48793 0.45226 0.0
C286 C 0.32988 0.50152 0.3529 0.0
C287 C 0.33115 0.51647 0.28707 0.0
C288 C 0.4169 0.51636 0.4017 0.0
C289 C 0.37153 0.51309 0.38601 0.0
C290 C 0.43783 0.5146 0.44691 0.0
C291 C 0.43607 0.50775 0.52456 0.0
C292 C 0.39392 0.5109 0.43363 0.0
C293 C 0.41273 0.50233 0.55448 0.0
C294 C 0.34997 0.49991 0.40273 0.0
C295 C 0.35276 0.53013 0.27481 0.0
N296 N 0.39252 0.5039 0.50882 0.0
N297 N 0.37207 0.52791 0.32316 0.0
H298 H 0.06168 0.30063 0.3479 0.0
H299 H 0.98242 0.41388 0.49366 0.0
H300 H 1.00208 0.33132 0.21899 0.0
H301 H 0.05513 0.40011 0.57881 0.0
H302 H 0.98638 0.37934 0.40532 0.0
H303 H 0.05661 0.33288 0.44562 0.0
C304 C 0.04745 0.31407 0.34054 0.0
C305 C 0.03237 0.31348 0.2752 0.0
C306 C 1.00145 0.38384 0.44347 0.0
C307 C 0.02639 0.35011 0.38632 0.0
C308 C 0.99918 0.40351 0.49422 0.0
C309 C 0.01853 0.41003 0.54359 0.0
C310 C 0.02312 0.37034 0.44238 0.0
C311 C 0.03981 0.39585 0.54147 0.0
C312 C 0.04465 0.33248 0.39594 0.0
C313 C 0.01427 0.33133 0.26809 0.0
N314 N 0.04154 0.37665 0.49168 0.0
N315 N 0.01175 0.34887 0.32299 0.0
H316 H 0.81476 0.00453 0.06388 0.0
H317 H 0.91454 0.95517 0.76748 0.0
H318 H 0.80655 0.93912 0.92559 0.0
H319 H 0.91937 0.02798 0.86501 0.0
H320 H 0.87544 0.9491 0.83061 0.0
H321 H 0.85308 0.01408 -0.00465 0.0
C322 C 0.82089 0.99232 0.01876 0.0
C323 C 0.80764 0.97079 0.00126 0.0
C324 C 0.88493 0.96648 0.83828 0.0
C325 C 0.85136 0.98144 0.92352 0.0
C326 C 0.90741 0.96994 0.80236 0.0
C327 C 0.92038 0.99214 0.81091 0.0
C328 C 0.87517 0.98524 0.88392 0.0
C329 C 0.91001 0.01057 0.85677 0.0
C330 C 0.84277 0.99772 0.97997 0.0
C331 C 0.81643 0.9556 0.9424 0.0
N332 N 0.88801 0.00668 0.89191 0.0
N333 N 0.83773 0.96113 0.90621 0.0
H334 H 0.51429 0.80566 0.96545 0.0
H335 H 0.55184 0.94448 0.89849 0.0
H336 H 0.5703 0.84301 0.09765 0.0
H337 H 0.48038 0.91693 0.83456 0.0
H338 H 0.55915 0.90665 0.96881 0.0
H339 H 0.50108 0.84541 0.91552 0.0
C340 C 0.52356 0.82219 0.98497 0.0
C341 C 0.54374 0.8209 0.03484 0.0
C342 C 0.54175 0.90892 0.94009 0.0
C343 C 0.529 0.86628 0.97686 0.0
C344 C 0.53761 0.9305 0.89963 0.0
C345 C 0.51551 0.93382 0.86034 0.0
C346 C 0.52388 0.89022 0.94019 0.0
C347 C 0.49766 0.91512 0.86425 0.0
C348 C 0.51607 0.84485 0.95617 0.0
C349 C 0.55511 0.84298 0.05769 0.0
N350 N 0.50236 0.89393 0.90261 0.0
N351 N 0.54781 0.86465 0.0278 0.0
H352 H 0.70491 0.52058 0.08652 0.0
H353 H 0.59652 0.56504 0.81563 0.0
H354 H 0.70599 0.58768 0.9554 0.0
H355 H 0.60274 0.48898 0.88043 0.0
H356 H 0.63529 0.5738 0.87801 0.0
H357 H 0.66693 0.50827 0.01985 0.0
C358 C 0.69734 0.53259 0.04333 0.0
C359 C 0.70846 0.55541 0.02755 0.0
C360 C 0.62829 0.55514 0.87865 0.0
C361 C 0.66502 0.54163 0.95225 0.0
C362 C 0.60597 0.55011 0.84327 0.0
C363 C 0.59623 0.52618 0.84255 0.0
C364 C 0.64114 0.53623 0.9146 0.0
C365 C 0.60956 0.50768 0.87941 0.0
C366 C 0.67564 0.5256 0.00564 0.0
C367 C 0.69779 0.57024 0.97112 0.0
N368 N 0.63134 0.5131 0.91428 0.0
N369 N 0.67667 0.5632 0.93624 0.0
H370 H 0.99629 0.70218 0.94209 0.0
H371 H 0.99281 0.5554 0.96191 0.0
H372 H 0.96683 0.66088 0.1329 0.0
H373 H 0.01257 0.5956 0.75682 0.0
H374 H 0.98714 0.59412 0.02947 0.0
H375 H 0.00665 0.66356 0.87794 0.0
C376 C 0.99226 0.68499 0.97083 0.0
C377 C 0.98052 0.68471 0.04265 0.0
C378 C 0.99276 0.5945 0.96973 0.0
C379 C 0.99213 0.64055 0.96957 0.0
C380 C 0.99603 0.57235 0.93101 0.0
C381 C 1.00307 0.57217 0.85328 0.0
C382 C 0.9966 0.61674 0.93075 0.0
C383 C 0.00702 0.59481 0.81657 0.0
C384 C 0.99801 0.66298 0.934 0.0
C385 C 0.97554 0.66193 0.07703 0.0
N386 N 1.00369 0.61617 0.85558 0.0
N387 N 0.9813 0.64081 0.04014 0.0
H388 H 0.9755 0.16993 0.22703 0.0
H389 H 0.96704 0.0611 0.41098 0.0
H390 H 0.02408 0.18628 0.41584 0.0
H391 H 0.97604 0.10039 0.62521 0.0
H392 H 0.96669 0.10009 0.34276 0.0
H393 H 0.95419 0.1396 0.30722 0.0
C394 C 0.98102 0.16773 0.28651 0.0
C395 C 1.00155 0.18035 0.31522 0.0
C396 C 0.9678 0.1003 0.40497 0.0
C397 C 0.97823 0.14511 0.40545 0.0
C398 C 0.9682 0.07799 0.44384 0.0
C399 C 0.97179 0.07752 0.52366 0.0
C400 C 0.97154 0.12227 0.44613 0.0
C401 C 0.97325 0.09994 0.56352 0.0
C402 C 0.96914 0.15021 0.33172 0.0
C403 C 0.00826 0.17683 0.39207 0.0
N404 N 0.97385 0.12142 0.52406 0.0
N405 N 0.99688 0.15914 0.43437 0.0
H406 H 0.33728 0.9701 0.24884 0.0
H407 H 0.44691 0.97258 0.43133 0.0
H408 H 0.31903 0.02 0.43189 0.0
H409 H 0.40752 0.97927 0.6454 0.0
H410 H 0.40801 0.96952 0.36298 0.0
H411 H 0.36918 0.95254 0.33018 0.0
C412 C 0.33942 0.97664 0.30744 0.0
C413 C 0.32574 0.9965 0.33409 0.0
C414 C 0.40782 0.97077 0.42518 0.0
C415 C 0.36264 0.97743 0.42553 0.0
C416 C 0.43006 0.97274 0.46408 0.0
C417 C 0.43042 0.97632 0.54394 0.0
C418 C 0.38582 0.97296 0.46634 0.0
C419 C 0.40804 0.97648 0.5837 0.0
C420 C 0.35781 0.96692 0.35323 0.0
C421 C 0.32925 0.00464 0.40977 0.0
N422 N 0.3866 0.97554 0.54421 0.0
N423 N 0.34772 0.99531 0.45269 0.0
H424 H 0.54965 0.3385 0.25809 0.0
H425 H 0.55063 0.45123 0.42873 0.0
H426 H 0.49482 0.32539 0.43147 0.0
H427 H 0.54138 0.4139 0.64564 0.0
H428 H 0.55091 0.41148 0.36328 0.0
H429 H 0.56748 0.3711 0.33857 0.0
C430 C 0.54206 0.34185 0.31471 0.0
C431 C 0.52085 0.32938 0.33872 0.0
C432 C 0.54964 0.41195 0.42547 0.0
C433 C 0.54042 0.36696 0.42909 0.0
C434 C 0.54931 0.43463 0.46268 0.0
C435 C 0.546 0.43581 0.54254 0.0
C436 C 0.546 0.39037 0.46831 0.0
C437 C 0.54415 0.41375 0.58393 0.0
C438 C 0.55197 0.36063 0.35988 0.0
C439 C 0.5113 0.33457 0.41161 0.0
N440 N 0.54349 0.39191 0.54606 0.0
N441 N 0.52099 0.35329 0.45407 0.0
H442 H 0.21235 0.50939 0.44954 0.0
H443 H 0.07795 0.55519 0.52731 0.0
H444 H 0.18023 0.57041 0.33176 0.0
H445 H 0.11152 0.49311 0.63696 0.0
H446 H 0.11828 0.56779 0.47831 0.0
H447 H 0.1802 0.51161 0.54676 0.0
C448 C 0.19926 0.52411 0.44654 0.0
C449 C 0.19864 0.53952 0.38234 0.0
C450 C 0.1168 0.55159 0.51397 0.0
C451 C 0.16106 0.54135 0.49024 0.0
C452 C 0.09376 0.54431 0.54146 0.0
C453 C 0.09121 0.52271 0.58458 0.0
C454 C 0.13736 0.53719 0.53006 0.0
C455 C 0.11242 0.50955 0.60226 0.0
C456 C 0.18056 0.5251 0.50113 0.0
C457 C 0.18111 0.55811 0.38048 0.0
N458 N 0.13446 0.51685 0.57438 0.0
N459 N 0.1625 0.55803 0.43221 0.0
H460 H 0.06697 0.82682 0.04676 0.0
H461 H 0.00801 0.90161 0.70499 0.0
H462 H 1.00282 0.80469 0.91878 0.0
H463 H 0.06068 0.93232 0.86429 0.0
H464 H 0.01581 0.86102 0.75588 0.0
H465 H 0.07482 0.85919 0.95225 0.0
C466 C 0.05507 0.82817 -0.00287 0.0
C467 C 0.03377 0.81355 -0.00813 0.0
C468 C 0.02591 0.87653 0.77928 0.0
C469 C 0.04258 0.85047 0.88421 0.0
C470 C 0.02136 0.89979 0.75064 0.0
C471 C 0.0332 0.92049 0.78217 0.0
C472 C 0.0422 0.87381 0.8408 0.0
C473 C 0.05087 0.91688 0.83937 0.0
C474 C 0.05947 0.84676 0.94365 0.0
C475 C 0.01927 0.8157 0.92579 0.0
N476 N 0.0545 0.89397 0.86808 0.0
N477 N 0.02362 0.83425 0.87549 0.0
H478 H 0.67857 0.06838 0.08863 0.0
H479 H 0.56813 0.07048 0.90931 0.0
H480 H 0.69381 0.01227 0.92084 0.0
H481 H 0.60289 0.03407 0.71882 0.0
H482 H 0.60837 0.07777 0.96712 0.0
H483 H 0.64736 0.08485 0.0031 0.0
C484 C 0.67589 0.06004 0.03254 0.0
C485 C 0.68819 0.03842 0.01285 0.0
C486 C 0.60743 0.06903 0.91128 0.0
C487 C 0.65191 0.05647 0.91622 0.0
C488 C 0.58433 0.0648 0.87853 0.0
C489 C 0.58228 0.05117 0.81041 0.0
C490 C 0.62841 0.05956 0.87502 0.0
C491 C 0.60374 0.04415 0.77257 0.0
C492 C 0.65774 0.06918 0.9843 0.0
C493 C 0.6845 0.0287 0.93901 0.0
N494 N 0.62583 0.04801 0.80603 0.0
N495 N 0.66624 0.03742 0.8942 0.0
H496 H 0.50586 0.70537 0.92194 0.0
H497 H 0.45707 0.57147 0.91438 0.0
H498 H 0.45981 0.67577 0.10143 0.0
H499 H 0.49086 0.60809 0.7215 0.0
H500 H 0.44834 0.61175 0.97156 0.0
H501 H 0.48983 0.67451 0.83401 0.0
C502 C 0.49164 0.69301 0.94227 0.0
C503 C 0.48495 0.69253 0.02015 0.0
C504 C 0.45707 0.61096 0.9157 0.0
C505 C 0.46744 0.65617 0.92062 0.0
C506 C 0.46202 0.58798 0.88325 0.0
C507 C 0.4753 0.5866 0.81449 0.0
C508 C 0.46556 0.63244 0.8788 0.0
C509 C 0.4812 0.60844 0.7759 0.0
C510 C 0.48268 0.67504 0.89209 0.0
C511 C 0.46622 0.67611 0.04248 0.0
N512 N 0.47667 0.6304 0.80912 0.0
N513 N 0.45882 0.65793 -0.00612 0.0
H514 H 0.82608 0.51682 0.94707 0.0
H515 H 0.94882 0.45624 0.96689 0.0
H516 H 0.8413 0.46755 0.13434 0.0
H517 H 0.91361 0.46218 0.74549 0.0
H518 H 0.90867 0.45791 0.02872 0.0
H519 H 0.85536 0.49465 0.86716 0.0
C520 C 0.83481 0.50074 0.97037 0.0
C521 C 0.83178 0.49438 0.04795 0.0
C522 C 0.9097 0.45814 0.96646 0.0
C523 C 0.86577 0.46962 0.9582 0.0
C524 C 0.9326 0.45725 0.93128 0.0
C525 C 0.93455 0.45929 0.85115 0.0
C526 C 0.88876 0.46192 0.92127 0.0
C527 C 0.91293 0.46059 0.80757 0.0
C528 C 0.85166 0.48818 0.92495 0.0
C529 C 0.84366 0.47341 0.07527 0.0
N530 N 0.89095 0.46261 0.8433 0.0
N531 N 0.86079 0.46227 0.03134 0.0
H532 H 0.0475 0.18667 -0.00094 0.0
H533 H 0.06098 0.04216 0.93753 0.0
H534 H 0.06826 0.13794 0.18249 0.0
H535 H 0.02085 0.09133 0.79161 0.0
H536 H 0.07479 0.07778 0.01498 0.0
H537 H 0.05089 0.15285 0.90806 0.0
C538 C 0.05355 0.16906 0.01996 0.0
C539 C 0.05706 0.16502 0.09883 0.0
C540 C 0.06321 0.08065 0.96533 0.0
C541 C 0.06016 0.12596 -0.00486 0.0
C542 C 0.05533 0.06041 0.92145 0.0
C543 C 0.03934 0.06383 0.85936 0.0
C544 C 0.05543 0.10432 0.94539 0.0
C545 C 0.0327 0.08782 0.84021 0.0
C546 C 0.05517 0.14964 0.96803 0.0
C547 C 0.06477 0.14167 0.12233 0.0
N548 N 0.04069 0.10705 0.88309 0.0
N549 N 0.06556 0.12284 0.07095 0.0
H550 H 0.31653 0.03831 0.01177 0.0
H551 H 0.45869 0.06786 0.95183 0.0
H552 H 0.36317 0.06533 0.19439 0.0
H553 H 0.41295 0.0247 0.79982 0.0
H554 H 0.42216 0.07769 0.02903 0.0
H555 H 0.34954 0.04556 0.92037 0.0
C556 C 0.33346 0.04646 0.03245 0.0
C557 C 0.33723 0.05072 0.11122 0.0
C558 C 0.42019 0.06638 0.97802 0.0
C559 C 0.37547 0.05833 0.00696 0.0
C560 C 0.44095 0.06082 0.93418 0.0
C561 C 0.43879 0.04507 0.87056 0.0
C562 C 0.39728 0.05646 0.95673 0.0
C563 C 0.41546 0.03648 0.84954 0.0
C564 C 0.35246 0.05033 0.98026 0.0
C565 C 0.35971 0.06118 0.13438 0.0
N566 N 0.3957 0.04217 0.89264 0.0
N567 N 0.37819 0.06417 0.08273 0.0
H568 H 0.45378 0.36513 0.18557 0.0
H569 H 0.50828 0.41921 0.80205 0.0
H570 H 0.48864 0.32163 0.01033 0.0
H571 H 0.45805 0.46058 0.94109 0.0
H572 H 0.49775 0.38251 0.87386 0.0
H573 H 0.45059 0.39896 0.09367 0.0
C574 C 0.46018 0.36248 0.12717 0.0
C575 C 0.47188 0.34065 0.10598 0.0
C576 C 0.48877 0.39947 0.88864 0.0
C577 C 0.46854 0.37931 0.00111 0.0
C578 C 0.49495 0.42053 0.84798 0.0
C579 C 0.48434 0.44305 0.86668 0.0
C580 C 0.47217 0.40084 0.94998 0.0
C581 C 0.46678 0.44357 0.92548 0.0
C582 C 0.45836 0.3818 0.07482 0.0
C583 C 0.47953 0.33807 0.02941 0.0
N584 N 0.46154 0.4228 0.96624 0.0
N585 N 0.47816 0.35733 0.98031 0.0
H586 H 0.15666 0.53546 0.14997 0.0
H587 H 0.09914 0.44697 0.84314 0.0
H588 H 0.19411 0.46811 0.09946 0.0
H589 H 0.05604 0.48799 0.00596 0.0
H590 H 0.13544 0.45469 0.92318 0.0
H591 H 0.12142 0.52051 0.07808 0.0
C592 C 0.15748 0.51747 0.12356 0.0
C593 C 0.17817 0.50277 0.13225 0.0
C594 C 0.11789 0.4615 0.94181 0.0
C595 C 0.1378 0.48566 0.04871 0.0
C596 C 0.09713 0.45706 0.8965 0.0
C597 C 0.0745 0.46721 0.9171 0.0
C598 C 0.11596 0.4765 0.00707 0.0
C599 C 0.07305 0.48003 0.98704 0.0
C600 C 0.1373 0.50893 0.08282 0.0
C601 C 0.17847 0.47996 0.09443 0.0
N602 N 0.09358 0.48473 0.02855 0.0
N603 N 0.15846 0.47201 0.0541 0.0
H604 H 0.04189 0.83927 0.26259 0.0
H605 H 0.95207 0.9205 0.50833 0.0
H606 H 0.96438 0.8235 0.25861 0.0
H607 H 0.01564 0.94991 0.3919 0.0
H608 H 0.95682 0.88198 0.43656 0.0
H609 H 0.034 0.87628 0.33745 0.0
C610 C 0.02324 0.84337 0.27864 0.0
C611 C 1.00373 0.82849 0.25325 0.0
C612 C 0.96945 0.89705 0.42625 0.0
C613 C 0.99464 0.87075 0.33885 0.0
C614 C 0.9667 0.91904 0.46662 0.0
C615 C 0.9835 0.93844 0.45605 0.0
C616 C 0.98948 0.89435 0.37676 0.0
C617 C 1.00219 0.93553 0.40162 0.0
C618 C 0.01876 0.86456 0.32074 0.0
C619 C 0.97996 0.83444 0.27705 0.0
N620 N 1.00492 0.91374 0.365 0.0
N621 N 0.97602 0.85528 0.31823 0.0
H622 H 0.64013 0.98812 0.14822 0.0
H623 H 0.59491 0.97124 0.58151 0.0
H624 H 0.68921 0.98836 0.34251 0.0
H625 H 0.54749 0.98765 0.39007 0.0
H626 H 0.62926 0.96815 0.49239 0.0
H627 H 0.60611 0.97872 0.23403 0.0
C628 C 0.6437 0.98612 0.20923 0.0
C629 C 0.66736 0.98963 0.23885 0.0
C630 C 0.61127 0.97209 0.46989 0.0
C631 C 0.62848 0.9787 0.3374 0.0
C632 C 0.59158 0.97374 0.52059 0.0
C633 C 0.56828 0.98007 0.49334 0.0
C634 C 0.60762 0.97664 0.39137 0.0
C635 C 0.56514 0.98302 0.41381 0.0
C636 C 0.6243 0.98067 0.25809 0.0
C637 C 0.67116 0.98609 0.31778 0.0
N638 N 0.58463 0.9815 0.36576 0.0
N639 N 0.6518 0.98111 0.36473 0.0
H640 H 0.54201 0.64686 0.14346 0.0
H641 H 0.5563 0.6024 0.57773 0.0
H642 H 0.54049 0.69593 0.33825 0.0
H643 H 0.5403 0.55424 0.38599 0.0
H644 H 0.56079 0.63657 0.4883 0.0
H645 H 0.5518 0.61305 0.22935 0.0
C646 C 0.54402 0.6505 0.20449 0.0
C647 C 0.53993 0.67403 0.23433 0.0
C648 C 0.55664 0.61846 0.46579 0.0
C649 C 0.5511 0.63545 0.33289 0.0
C650 C 0.55414 0.59886 0.51671 0.0
C651 C 0.5475 0.57541 0.48946 0.0
C652 C 0.55261 0.61459 0.38701 0.0
C653 C 0.54513 0.57201 0.40975 0.0
C654 C 0.54961 0.63122 0.2534 0.0
C655 C 0.54329 0.67797 0.31334 0.0
N656 N 0.54744 0.59145 0.36142 0.0
N657 N 0.54835 0.65873 0.36029 0.0
H658 H 0.87414 0.55991 0.20138 0.0
H659 H 0.92057 0.50204 0.58886 0.0
H660 H 0.82621 0.52808 0.37146 0.0
H661 H 0.96704 0.54859 0.44989 0.0
H662 H 0.88539 0.51482 0.51471 0.0
H663 H 0.90747 0.56043 0.29572 0.0
C664 C 0.87051 0.55379 0.25962 0.0
C665 C 0.84752 0.544 0.27924 0.0
C666 C 0.90317 0.52249 0.50051 0.0
C667 C 0.88557 0.54375 0.38631 0.0
C668 C 0.92337 0.51503 0.54249 0.0
C669 C 0.94687 0.52392 0.52451 0.0
C670 C 0.90636 0.53869 0.43873 0.0
C671 C 0.94926 0.54113 0.46507 0.0
C672 C 0.88953 0.55394 0.31321 0.0
C673 C 0.84368 0.53593 0.35462 0.0
N674 N 0.92926 0.54767 0.42326 0.0
N675 N 0.86266 0.5356 0.40514 0.0
loop_
_geom_bond_atom_site_label_1
_geom_bond_atom_site_label_2
_geom_bond_distance
_geom_bond_site_symmetry_2
_ccdc_geom_bond_type
H0 C1 0.949 . S
C1 H0 0.949 . S
C1 C2 1.395 . S
C1 C3 1.391 1_556 S
C2 C1 1.395 . S
C2 C5 1.390 1_556 S
C3 C1 1.391 1_554 S
C3 C7 1.387 . S
C3 C8 1.491 . S
H4 C5 0.950 . S
C5 C2 1.390 1_554 S
C5 H4 0.950 . S
C5 C6 1.378 . S
C6 C5 1.378 . S
C6 C7 1.409 . S
C7 C3 1.387 . S
C7 C6 1.409 . S
C7 H9 0.951 . S
C8 C3 1.491 . S
C8 C10 1.382 1_554 S
C8 C12 1.404 . S
H9 C7 0.951 . S
C10 C8 1.382 1_556 S
C10 C11 1.390 . S
C10 H15 0.949 . S
C11 C10 1.390 . S
C11 C16 1.399 1_556 S
C12 C8 1.404 . S
C12 H13 0.950 . S
C12 C14 1.375 . S
H13 C12 0.950 . S
C14 C12 1.375 . S
C14 C16 1.382 . S
C14 H18 0.950 . S
H15 C10 0.949 . S
C16 C11 1.399 1_554 S
C16 C14 1.382 . S
C16 H17 0.952 . S
H17 C16 0.952 . S
H18 C14 0.950 . S
H19 C20 0.949 . S
C20 H19 0.949 . S
C20 C21 1.390 1_655 S
C20 C22 1.391 . S
C21 C20 1.390 1_455 S
C21 C24 1.393 . S
C22 C20 1.391 . S
C22 C26 1.387 . S
C22 C27 1.491 . S
H23 C24 0.950 . S
C24 C21 1.393 . S
C24 H23 0.950 . S
C24 C25 1.379 . S
C25 C24 1.379 . S
C25 C26 1.407 1_455 S
C26 C22 1.387 . S
C26 C25 1.407 1_655 S
C26 H28 0.951 . S
C27 C22 1.491 . S
C27 C29 1.382 . S
C27 C31 1.404 . S
H28 C26 0.951 . S
C29 C27 1.382 . S
C29 C30 1.390 . S
C29 H34 0.949 1_655 S
C30 C29 1.390 . S
C30 C35 1.399 . S
C31 C27 1.404 . S
C31 H32 0.950 . S
C31 C33 1.375 . S
H32 C31 0.950 . S
C33 C31 1.375 . S
C33 C35 1.382 . S
C33 H37 0.950 . S
H34 C29 0.949 1_455 S
C35 C30 1.399 . S
C35 C33 1.382 . S
C35 H36 0.952 . S
H36 C35 0.952 . S
H37 C33 0.950 . S
H38 C39 0.949 1_556 S
C39 H38 0.949 1_554 S
C39 C40 1.393 1_565 S
C39 C41 1.391 . S
C40 C39 1.393 1_545 S
C40 C43 1.391 . S
C41 C39 1.391 . S
C41 C45 1.387 . S
C41 C46 1.491 . S
H42 C43 0.950 . S
C43 C40 1.391 . S
C43 H42 0.950 . S
C43 C44 1.378 1_545 S
C44 C43 1.378 1_565 S
C44 C45 1.408 . S
C45 C41 1.387 . S
C45 C44 1.408 . S
C45 H47 0.951 . S
C46 C41 1.491 . S
C46 C48 1.382 . S
C46 C50 1.404 . S
H47 C45 0.951 . S
C48 C46 1.382 . S
C48 C49 1.390 . S
C48 H53 0.949 1_564 S
C49 C48 1.390 . S
C49 C54 1.399 . S
C50 C46 1.404 . S
C50 H51 0.950 . S
C50 C52 1.375 . S
H51 C50 0.950 . S
C52 C50 1.375 . S
C52 C54 1.382 . S
C52 H56 0.950 . S
H53 C48 0.949 1_546 S
C54 C49 1.399 . S
C54 C52 1.382 . S
C54 H55 0.952 . S
H55 C54 0.952 . S
H56 C52 0.950 . S
H57 C58 0.949 . S
C58 H57 0.949 . S
C58 C59 1.395 . S
C58 C60 1.391 1_556 S
C59 C58 1.395 . S
C59 C62 1.390 1_556 S
C60 C58 1.391 1_554 S
C60 C64 1.387 . S
C60 C65 1.491 . S
H61 C62 0.950 . S
C62 C59 1.390 1_554 S
C62 H61 0.950 . S
C62 C63 1.378 . S
C63 C62 1.378 . S
C63 C64 1.409 . S
C64 C60 1.387 . S
C64 C63 1.409 . S
C64 H66 0.951 . S
C65 C60 1.491 . S
C65 C67 1.382 1_554 S
C65 C69 1.404 . S
H66 C64 0.951 . S
C67 C65 1.382 1_556 S
C67 C68 1.390 . S
C67 H72 0.949 . S
C68 C67 1.390 . S
C68 C73 1.399 1_556 S
C69 C65 1.404 . S
C69 H70 0.950 . S
C69 C71 1.375 . S
H70 C69 0.950 . S
C71 C69 1.375 . S
C71 C73 1.382 . S
C71 H75 0.950 . S
H72 C67 0.949 . S
C73 C68 1.399 1_554 S
C73 C71 1.382 . S
C73 H74 0.952 . S
H74 C73 0.952 . S
H75 C71 0.950 . S
H76 C77 0.949 . S
C77 H76 0.949 . S
C77 C78 1.395 . S
C77 C79 1.391 . S
C78 C77 1.395 . S
C78 C81 1.390 . S
C79 C77 1.391 . S
C79 C83 1.387 . S
C79 C84 1.491 . S
H80 C81 0.950 . S
C81 C78 1.390 . S
C81 H80 0.950 . S
C81 C82 1.378 . S
C82 C81 1.378 . S
C82 C83 1.409 . S
C83 C79 1.387 . S
C83 C82 1.409 . S
C83 H85 0.951 . S
C84 C79 1.491 . S
C84 C86 1.382 . S
C84 C88 1.404 . S
H85 C83 0.951 . S
C86 C84 1.382 . S
C86 C87 1.390 . S
C86 H91 0.949 . S
C87 C86 1.390 . S
C87 C92 1.399 . S
C88 C84 1.404 . S
C88 H89 0.950 . S
C88 C90 1.375 . S
H89 C88 0.950 . S
C90 C88 1.375 . S
C90 C92 1.382 . S
C90 H94 0.950 . S
H91 C86 0.949 . S
C92 C87 1.399 . S
C92 C90 1.382 . S
C92 H93 0.952 . S
H93 C92 0.952 . S
H94 C90 0.950 . S
H95 C96 0.949 . S
C96 H95 0.949 . S
C96 C97 1.395 . S
C96 C98 1.391 . S
C97 C96 1.395 . S
C97 C100 1.390 . S
C98 C96 1.391 . S
C98 C102 1.387 . S
C98 C103 1.491 . S
H99 C100 0.950 . S
C100 C97 1.390 . S
C100 H99 0.950 . S
C100 C101 1.378 . S
C101 C100 1.378 . S
C101 C102 1.409 . S
C102 C98 1.387 . S
C102 C101 1.409 . S
C102 H104 0.951 . S
C103 C98 1.491 . S
C103 C105 1.382 . S
C103 C107 1.404 . S
H104 C102 0.951 . S
C105 C103 1.382 . S
C105 C106 1.390 . S
C105 H110 0.949 . S
C106 C105 1.390 . S
C106 C111 1.399 . S
C107 C103 1.404 . S
C107 H108 0.950 1_455 S
C107 C109 1.372 1_455 S
H108 C107 0.950 1_655 S
C109 C107 1.372 1_655 S
C109 C111 1.377 1_655 S
C109 H113 0.959 . S
H110 C105 0.949 . S
C111 C106 1.399 . S
C111 C109 1.377 1_455 S
C111 H112 0.952 . S
H112 C111 0.952 . S
H113 C109 0.959 . S
H114 C115 0.949 . S
C115 H114 0.949 . S
C115 C116 1.395 . S
C115 C117 1.391 . S
C116 C115 1.395 . S
C116 C119 1.390 . S
C117 C115 1.391 . S
C117 C121 1.387 . S
C117 C122 1.491 1_545 S
H118 C119 0.950 . S
C119 C116 1.390 . S
C119 H118 0.950 . S
C119 C120 1.378 . S
C120 C119 1.378 . S
C120 C121 1.409 . S
C121 C117 1.387 . S
C121 C120 1.409 . S
C121 H123 0.951 . S
C122 C117 1.491 1_565 S
C122 C124 1.382 1_565 S
C122 C126 1.404 . S
H123 C121 0.951 . S
C124 C122 1.382 1_545 S
C124 C125 1.390 . S
C124 H129 0.949 . S
C125 C124 1.390 . S
C125 C130 1.399 1_545 S
C126 C122 1.404 . S
C126 H127 0.950 . S
C126 C128 1.375 . S
H127 C126 0.950 . S
C128 C126 1.375 . S
C128 C130 1.382 . S
C128 H132 0.950 . S
H129 C124 0.949 . S
C130 C125 1.399 1_565 S
C130 C128 1.382 . S
C130 H131 0.952 . S
H131 C130 0.952 . S
H132 C128 0.950 . S
H133 C134 0.949 . S
C134 H133 0.949 . S
C134 C135 1.395 . S
C134 C136 1.391 . S
C135 C134 1.395 . S
C135 C138 1.390 . S
C136 C134 1.391 . S
C136 C140 1.387 . S
C136 C141 1.491 . S
H137 C138 0.950 . S
C138 C135 1.390 . S
C138 H137 0.950 . S
C138 C139 1.378 . S
C139 C138 1.378 . S
C139 C140 1.409 . S
C140 C136 1.387 . S
C140 C139 1.409 . S
C140 H142 0.951 . S
C141 C136 1.491 . S
C141 C143 1.382 . S
C141 C145 1.404 . S
H142 C140 0.951 . S
C143 C141 1.382 . S
C143 C144 1.390 . S
C143 H148 0.949 . S
C144 C143 1.390 . S
C144 C149 1.399 . S
C145 C141 1.404 . S
C145 H146 0.950 . S
C145 C147 1.375 . S
H146 C145 0.950 . S
C147 C145 1.375 . S
C147 C149 1.382 . S
C147 H151 0.950 . S
H148 C143 0.949 . S
C149 C144 1.399 . S
C149 C147 1.382 . S
C149 H150 0.952 . S
H150 C149 0.952 . S
H151 C147 0.950 . S
O152 Zn153 1.956 . S
O152 C168 1.225 1_545 S
Zn153 O152 1.956 . S
Zn153 O154 1.948 1_545 S
Zn153 O160 1.946 . S
Zn153 O165 1.891 1_545 S
O154 Zn153 1.948 1_565 S
O154 Zn155 1.902 1_465 S
O154 Zn156 1.952 . S
O154 Zn157 1.965 1_455 S
Zn155 O154 1.902 1_645 S
Zn155 O158 1.933 . S
Zn155 O161 1.941 1_655 S
Zn155 O162 1.965 . S
Zn156 O154 1.952 . S
Zn156 O163 1.938 1_565 S
Zn156 O164 1.906 . S
Zn156 O174 1.953 . S
Zn157 O154 1.965 1_655 S
Zn157 O159 1.932 . S
Zn157 O166 1.977 . S
Zn157 O167 1.910 1_655 S
O158 Zn155 1.933 . S
O158 C169 1.226 . S
O159 Zn157 1.932 . S
O159 C169 1.307 1_565 S
O160 Zn153 1.946 . S
O160 C171 1.253 . S
O161 Zn155 1.941 1_455 S
O161 C171 1.283 . S
O162 Zn155 1.965 . S
O162 C170 1.303 1_655 S
O163 Zn156 1.938 1_545 S
O163 C170 1.247 . S
O164 Zn156 1.906 . S
O164 C172 1.304 1_455 S
O165 Zn153 1.891 1_565 S
O165 C173 1.311 . S
O166 Zn157 1.977 . S
O166 C172 1.272 . S
O167 Zn157 1.910 1_455 S
O167 C173 1.231 . S
C168 O152 1.225 1_565 S
C168 O174 1.298 . S
C169 O158 1.226 . S
C169 O159 1.307 1_545 S
C170 O162 1.303 1_455 S
C170 O163 1.247 . S
C171 O160 1.253 . S
C171 O161 1.283 . S
C172 O164 1.304 1_655 S
C172 O166 1.272 . S
C173 O165 1.311 . S
C173 O167 1.231 . S
O174 Zn156 1.953 . S
O174 C168 1.298 . S
O175 Zn176 1.953 . S
O175 C191 1.225 . S
Zn176 O175 1.953 . S
Zn176 O177 1.949 . S
Zn176 O183 1.919 . S
Zn176 O188 1.924 . S
O177 Zn176 1.949 . S
O177 Zn178 1.923 1_545 S
O177 Zn179 1.950 . S
O177 Zn180 1.945 1_545 S
Zn178 O177 1.923 1_565 S
Zn178 O181 1.933 . S
Zn178 O184 1.941 . S
Zn178 O185 1.965 . S
Zn179 O177 1.950 . S
Zn179 O186 1.938 . S
Zn179 O187 1.906 . S
Zn179 O197 1.953 . S
Zn180 O177 1.945 1_565 S
Zn180 O182 1.932 . S
Zn180 O189 1.977 . S
Zn180 O190 1.910 1_565 S
O181 Zn178 1.933 . S
O181 C192 1.226 . S
O182 Zn180 1.932 . S
O182 C192 1.307 . S
O183 Zn176 1.919 . S
O183 C194 1.253 . S
O184 Zn178 1.941 . S
O184 C194 1.283 1_565 S
O185 Zn178 1.965 . S
O185 C193 1.303 1_565 S
O186 Zn179 1.938 . S
O186 C193 1.247 . S
O187 Zn179 1.906 . S
O187 C195 1.304 1_545 S
O188 Zn176 1.924 . S
O188 C196 1.311 . S
O189 Zn180 1.977 . S
O189 C195 1.272 . S
O190 Zn180 1.910 1_545 S
O190 C196 1.231 . S
C191 O175 1.225 . S
C191 O197 1.298 . S
C192 O181 1.226 . S
C192 O182 1.307 . S
C193 O185 1.303 1_545 S
C193 O186 1.247 . S
C194 O183 1.253 . S
C194 O184 1.283 1_545 S
C195 O187 1.304 1_565 S
C195 O189 1.272 . S
C196 O188 1.311 . S
C196 O190 1.231 . S
O197 Zn179 1.953 . S
O197 C191 1.298 . S
O198 Zn199 1.953 . S
O198 C214 1.225 . S
Zn199 O198 1.953 . S
Zn199 O200 1.949 . S
Zn199 O206 1.919 . S
Zn199 O211 1.924 . S
O200 Zn199 1.949 . S
O200 Zn201 1.923 . S
O200 Zn202 1.950 . S
O200 Zn203 1.945 . S
Zn201 O200 1.923 . S
Zn201 O204 1.933 . S
Zn201 O207 1.941 . S
Zn201 O208 1.965 . S
Zn202 O200 1.950 . S
Zn202 O209 1.938 . S
Zn202 O210 1.906 . S
Zn202 O220 1.953 . S
Zn203 O200 1.945 . S
Zn203 O205 1.932 . S
Zn203 O212 1.977 . S
Zn203 O213 1.910 . S
O204 Zn201 1.933 . S
O204 C215 1.226 . S
O205 Zn203 1.932 . S
O205 C215 1.307 . S
O206 Zn199 1.919 . S
O206 C217 1.253 . S
O207 Zn201 1.941 . S
O207 C217 1.283 . S
O208 Zn201 1.965 . S
O208 C216 1.303 . S
O209 Zn202 1.938 . S
O209 C216 1.247 . S
O210 Zn202 1.906 . S
O210 C218 1.304 . S
O211 Zn199 1.924 . S
O211 C219 1.311 . S
O212 Zn203 1.977 . S
O212 C218 1.272 . S
O213 Zn203 1.910 . S
O213 C219 1.231 . S
C214 O198 1.225 . S
C214 O220 1.298 . S
C215 O204 1.226 . S
C215 O205 1.307 . S
C216 O208 1.303 . S
C216 O209 1.247 . S
C217 O206 1.253 . S
C217 O207 1.283 . S
C218 O210 1.304 . S
C218 O212 1.272 . S
C219 O211 1.311 . S
C219 O213 1.231 . S
O220 Zn202 1.953 . S
O220 C214 1.298 . S
O221 Zn222 1.953 1_655 S
O221 C237 1.225 . S
Zn222 O221 1.953 1_455 S
Zn222 O223 1.949 . S
Zn222 O229 1.919 . S
Zn222 O234 1.924 . S
O223 Zn222 1.949 . S
O223 Zn224 1.917 1_455 S
O223 Zn225 1.929 1_455 S
O223 Zn226 1.973 . S
Zn224 O223 1.917 1_655 S
Zn224 O227 1.933 1_655 S
Zn224 O230 1.941 . S
Zn224 O231 1.965 . S
Zn225 O223 1.929 1_655 S
Zn225 O232 1.938 . S
Zn225 O233 1.906 . S
Zn225 O243 1.953 . S
Zn226 O223 1.973 . S
Zn226 O228 1.932 . S
Zn226 O235 1.977 . S
Zn226 O236 1.910 . S
O227 Zn224 1.933 1_455 S
O227 C238 1.226 . S
O228 Zn226 1.932 . S
O228 C238 1.307 . S
O229 Zn222 1.919 . S
O229 C240 1.254 . S
O230 Zn224 1.941 . S
O230 C240 1.278 1_655 S
O231 Zn224 1.965 . S
O231 C239 1.303 . S
O232 Zn225 1.938 . S
O232 C239 1.247 . S
O233 Zn225 1.906 . S
O233 C241 1.304 1_655 S
O234 Zn222 1.924 . S
O234 C242 1.311 . S
O235 Zn226 1.977 . S
O235 C241 1.272 . S
O236 Zn226 1.910 . S
O236 C242 1.231 . S
C237 O221 1.225 . S
C237 O243 1.298 . S
C238 O227 1.226 . S
C238 O228 1.307 . S
C239 O231 1.303 . S
C239 O232 1.247 . S
C240 O229 1.254 . S
C240 O230 1.278 1_455 S
C241 O233 1.304 1_455 S
C241 O235 1.272 . S
C242 O234 1.311 . S
C242 O236 1.231 . S
O243 Zn225 1.953 . S
O243 C237 1.298 . S
H244 C250 0.930 . S
H245 C254 0.930 . S
H246 C259 0.929 . S
H247 C257 0.929 . S
H248 C252 0.929 . S
H249 C258 0.929 . S
C250 H244 0.930 . S
C250 C251 1.367 . S
C250 C258 1.378 . S
C251 C250 1.367 . S
C251 C259 1.433 1_545 S
C252 H248 0.929 . S
C252 C254 1.378 . S
C252 C256 1.350 1_565 S
C253 C256 1.463 . S
C253 C258 1.350 . S
C253 N261 1.427 1_545 S
C254 H245 0.930 . S
C254 C252 1.378 . S
C254 C255 1.384 . S
C255 C254 1.384 . S
C255 C257 1.414 1_565 S
C256 C252 1.350 1_545 S
C256 C253 1.463 . S
C256 N260 1.427 . S
C257 H247 0.929 . S
C257 C255 1.414 1_545 S
C257 N260 1.384 . S
C258 H249 0.929 . S
C258 C250 1.378 . S
C258 C253 1.350 . S
C259 H246 0.929 . S
C259 C251 1.433 1_565 S
C259 N261 1.384 . S
N260 C256 1.427 . S
N260 C257 1.384 . S
N261 C253 1.427 1_565 S
N261 C259 1.384 . S
H262 C268 0.930 . S
H263 C272 0.930 . S
H264 C277 0.929 . S
H265 C275 0.929 . S
H266 C270 0.929 . S
H267 C276 0.929 . S
C268 H262 0.930 . S
C268 C269 1.367 . S
C268 C276 1.378 . S
C269 C268 1.367 . S
C269 C277 1.433 . S
C270 H266 0.929 . S
C270 C272 1.378 . S
C270 C274 1.350 . S
C271 C274 1.463 . S
C271 C276 1.350 . S
C271 N279 1.427 . S
C272 H263 0.930 . S
C272 C270 1.378 . S
C272 C273 1.367 . S
C273 C272 1.367 . S
C273 C275 1.433 . S
C274 C270 1.350 . S
C274 C271 1.463 . S
C274 N278 1.427 . S
C275 H265 0.929 . S
C275 C273 1.433 . S
C275 N278 1.384 . S
C276 H267 0.929 . S
C276 C268 1.378 . S
C276 C271 1.350 . S
C277 H264 0.929 . S
C277 C269 1.433 . S
C277 N279 1.384 . S
N278 C274 1.427 . S
N278 C275 1.384 . S
N279 C271 1.427 . S
N279 C277 1.384 . S
H280 C286 0.930 . S
H281 C290 0.930 . S
H282 C295 0.929 . S
H283 C293 0.929 . S
H284 C288 0.929 . S
H285 C294 0.929 . S
C286 H280 0.930 . S
C286 C287 1.367 . S
C286 C294 1.378 . S
C287 C286 1.367 . S
C287 C295 1.433 . S
C288 H284 0.929 . S
C288 C290 1.378 . S
C288 C292 1.350 . S
C289 C292 1.463 . S
C289 C294 1.350 . S
C289 N297 1.427 . S
C290 H281 0.930 . S
C290 C288 1.378 . S
C290 C291 1.367 . S
C291 C290 1.367 . S
C291 C293 1.433 . S
C292 C288 1.350 . S
C292 C289 1.463 . S
C292 N296 1.427 . S
C293 H283 0.929 . S
C293 C291 1.433 . S
C293 N296 1.384 . S
C294 H285 0.929 . S
C294 C286 1.378 . S
C294 C289 1.350 . S
C295 H282 0.929 . S
C295 C287 1.433 . S
C295 N297 1.384 . S
N296 C292 1.427 . S
N296 C293 1.384 . S
N297 C289 1.427 . S
N297 C295 1.384 . S
H298 C304 0.930 . S
H299 C308 0.930 . S
H300 C313 0.929 1_655 S
H301 C311 0.929 . S
H302 C306 0.929 . S
H303 C312 0.929 . S
C304 H298 0.930 . S
C304 C305 1.367 . S
C304 C312 1.378 . S
C305 C304 1.367 . S
C305 C313 1.433 . S
C306 H302 0.929 . S
C306 C308 1.378 . S
C306 C310 1.350 1_655 S
C307 C310 1.463 . S
C307 C312 1.350 . S
C307 N315 1.427 . S
C308 H299 0.930 . S
C308 C306 1.378 . S
C308 C309 1.367 1_655 S
C309 C308 1.367 1_455 S
C309 C311 1.433 . S
C310 C306 1.350 1_455 S
C310 C307 1.463 . S
C310 N314 1.427 . S
C311 H301 0.929 . S
C311 C309 1.433 . S
C311 N314 1.384 . S
C312 H303 0.929 . S
C312 C304 1.378 . S
C312 C307 1.350 . S
C313 H300 0.929 1_455 S
C313 C305 1.433 . S
C313 N315 1.384 . S
N314 C310 1.427 . S
N314 C311 1.384 . S
N315 C307 1.427 . S
N315 C313 1.384 . S
H316 C322 0.930 1_554 S
H317 C326 0.930 . S
H318 C331 0.929 . S
H319 C329 0.929 . S
H320 C324 0.929 . S
H321 C330 0.929 . S
C322 H316 0.930 1_556 S
C322 C323 1.360 1_545 S
C322 C330 1.378 . S
C323 C322 1.360 1_565 S
C323 C331 1.440 . S
C324 H320 0.929 . S
C324 C326 1.378 . S
C324 C328 1.354 . S
C325 C328 1.461 1_545 S
C325 C330 1.380 . S
C325 N333 1.397 1_545 S
C326 H317 0.930 . S
C326 C324 1.378 . S
C326 C327 1.334 1_565 S
C327 C326 1.334 1_545 S
C327 C329 1.466 . S
C328 C324 1.354 . S
C328 C325 1.461 1_565 S
C328 N332 1.423 1_565 S
C329 H319 0.929 . S
C329 C327 1.466 . S
C329 N332 1.384 . S
C330 H321 0.929 . S
C330 C322 1.378 . S
C330 C325 1.380 . S
C331 H318 0.929 . S
C331 C323 1.440 . S
C331 N333 1.384 . S
N332 C328 1.423 1_545 S
N332 C329 1.384 . S
N333 C325 1.397 1_565 S
N333 C331 1.384 . S
H334 C340 0.930 . S
H335 C344 0.930 . S
H336 C349 0.929 1_554 S
H337 C347 0.929 . S
H338 C342 0.929 . S
H339 C348 0.929 . S
C340 H334 0.930 . S
C340 C341 1.367 . S
C340 C348 1.378 . S
C341 C340 1.367 . S
C341 C349 1.433 . S
C342 H338 0.929 . S
C342 C344 1.378 . S
C342 C346 1.350 . S
C343 C346 1.463 . S
C343 C348 1.350 . S
C343 N351 1.427 . S
C344 H335 0.930 . S
C344 C342 1.378 . S
C344 C345 1.367 . S
C345 C344 1.367 . S
C345 C347 1.433 . S
C346 C342 1.350 . S
C346 C343 1.463 . S
C346 N350 1.427 . S
C347 H337 0.929 . S
C347 C345 1.433 . S
C347 N350 1.384 . S
C348 H339 0.929 . S
C348 C340 1.378 . S
C348 C343 1.350 . S
C349 H336 0.929 1_556 S
C349 C341 1.433 . S
C349 N351 1.384 . S
N350 C346 1.427 . S
N350 C347 1.384 . S
N351 C343 1.427 . S
N351 C349 1.384 . S
H352 C358 0.930 . S
H353 C362 0.930 . S
H354 C367 0.929 . S
H355 C365 0.929 . S
H356 C360 0.929 . S
H357 C366 0.929 . S
C358 H352 0.930 . S
C358 C359 1.367 . S
C358 C366 1.378 . S
C359 C358 1.367 . S
C359 C367 1.433 . S
C360 H356 0.929 . S
C360 C362 1.378 . S
C360 C364 1.350 . S
C361 C364 1.463 . S
C361 C366 1.350 . S
C361 N369 1.427 . S
C362 H353 0.930 . S
C362 C360 1.378 . S
C362 C363 1.367 . S
C363 C362 1.367 . S
C363 C365 1.433 . S
C364 C360 1.350 . S
C364 C361 1.463 . S
C364 N368 1.427 . S
C365 H355 0.929 . S
C365 C363 1.433 . S
C365 N368 1.384 . S
C366 H357 0.929 . S
C366 C358 1.378 . S
C366 C361 1.350 . S
C367 H354 0.929 . S
C367 C359 1.433 . S
C367 N369 1.384 . S
N368 C364 1.427 . S
N368 C365 1.384 . S
N369 C361 1.427 . S
N369 C367 1.384 . S
H370 C376 0.930 . S
H371 C380 0.930 . S
H372 C385 0.929 . S
H373 C383 0.929 . S
H374 C378 0.929 . S
H375 C384 0.929 . S
C376 H370 0.930 . S
C376 C377 1.367 . S
C376 C384 1.378 . S
C377 C376 1.367 . S
C377 C385 1.433 1_656 S
C378 H374 0.929 . S
C378 C380 1.378 . S
C378 C382 1.350 . S
C379 C382 1.465 . S
C379 C384 1.341 1_455 S
C379 N387 1.435 . S
C380 H371 0.930 . S
C380 C378 1.378 . S
C380 C381 1.367 . S
C381 C380 1.367 . S
C381 C383 1.433 1_455 S
C382 C378 1.350 . S
C382 C379 1.465 . S
C382 N386 1.427 1_455 S
C383 H373 0.929 . S
C383 C381 1.433 1_655 S
C383 N386 1.384 . S
C384 H375 0.929 . S
C384 C376 1.378 . S
C384 C379 1.341 1_655 S
C385 H372 0.929 . S
C385 C377 1.433 1_454 S
C385 N387 1.384 1_554 S
N386 C382 1.427 1_655 S
N386 C383 1.384 . S
N387 C379 1.435 . S
N387 C385 1.384 1_556 S
H388 C394 0.930 . S
H389 C398 0.930 . S
H390 C403 0.929 . S
H391 C401 0.919 1_655 S
H392 C396 0.929 . S
H393 C402 0.929 . S
C394 H388 0.930 . S
C394 C395 1.367 . S
C394 C402 1.378 . S
C395 C394 1.367 . S
C395 C403 1.433 . S
C396 H392 0.929 . S
C396 C398 1.378 . S
C396 C400 1.350 . S
C397 C400 1.463 . S
C397 C402 1.350 . S
C397 N405 1.427 . S
C398 H389 0.930 . S
C398 C396 1.378 . S
C398 C399 1.367 . S
C399 C398 1.367 . S
C399 C401 1.433 . S
C400 C396 1.350 . S
C400 C397 1.463 . S
C400 N404 1.427 . S
C401 H391 0.919 1_455 S
C401 C399 1.433 . S
C401 N404 1.384 . S
C402 H393 0.929 . S
C402 C394 1.378 . S
C402 C397 1.350 . S
C403 H390 0.929 . S
C403 C395 1.433 . S
C403 N405 1.384 . S
N404 C400 1.427 . S
N404 C401 1.384 . S
N405 C397 1.427 . S
N405 C403 1.384 . S
H406 C412 0.930 . S
H407 C416 0.930 . S
H408 C421 0.929 . S
H409 C419 0.929 . S
H410 C414 0.929 . S
H411 C420 0.929 . S
C412 H406 0.930 . S
C412 C413 1.367 . S
C412 C420 1.378 . S
C413 C412 1.367 . S
C413 C421 1.433 . S
C414 H410 0.929 . S
C414 C416 1.378 . S
C414 C418 1.350 . S
C415 C418 1.463 . S
C415 C420 1.350 . S
C415 N423 1.427 . S
C416 H407 0.930 . S
C416 C414 1.378 . S
C416 C417 1.367 . S
C417 C416 1.367 . S
C417 C419 1.433 . S
C418 C414 1.350 . S
C418 C415 1.463 . S
C418 N422 1.427 . S
C419 H409 0.929 . S
C419 C417 1.433 . S
C419 N422 1.384 . S
C420 H411 0.929 . S
C420 C412 1.378 . S
C420 C415 1.350 . S
C421 H408 0.929 . S
C421 C413 1.433 . S
C421 N423 1.384 . S
N422 C418 1.427 . S
N422 C419 1.384 . S
N423 C415 1.427 . S
N423 C421 1.384 . S
H424 C430 0.930 . S
H425 C434 0.930 . S
H426 C439 0.929 . S
H427 C437 0.929 . S
H428 C432 0.929 . S
H429 C438 0.929 . S
C430 H424 0.930 . S
C430 C431 1.367 . S
C430 C438 1.378 . S
C431 C430 1.367 . S
C431 C439 1.433 . S
C432 H428 0.929 . S
C432 C434 1.378 . S
C432 C436 1.350 . S
C433 C436 1.463 . S
C433 C438 1.350 . S
C433 N441 1.427 . S
C434 H425 0.930 . S
C434 C432 1.378 . S
C434 C435 1.367 . S
C435 C434 1.367 . S
C435 C437 1.433 . S
C436 C432 1.350 . S
C436 C433 1.463 . S
C436 N440 1.427 . S
C437 H427 0.929 . S
C437 C435 1.433 . S
C437 N440 1.384 . S
C438 H429 0.929 . S
C438 C430 1.378 . S
C438 C433 1.350 . S
C439 H426 0.929 . S
C439 C431 1.433 . S
C439 N441 1.384 . S
N440 C436 1.427 . S
N440 C437 1.384 . S
N441 C433 1.427 . S
N441 C439 1.384 . S
H442 C448 0.930 . S
H443 C452 0.930 . S
H444 C457 0.929 . S
H445 C455 0.929 . S
H446 C450 0.929 . S
H447 C456 0.929 . S
C448 H442 0.930 . S
C448 C449 1.367 . S
C448 C456 1.378 . S
C449 C448 1.367 . S
C449 C457 1.433 . S
C450 H446 0.929 . S
C450 C452 1.378 . S
C450 C454 1.350 . S
C451 C454 1.463 . S
C451 C456 1.350 . S
C451 N459 1.427 . S
C452 H443 0.930 . S
C452 C450 1.378 . S
C452 C453 1.367 . S
C453 C452 1.367 . S
C453 C455 1.433 . S
C454 C450 1.350 . S
C454 C451 1.463 . S
C454 N458 1.427 . S
C455 H445 0.929 . S
C455 C453 1.433 . S
C455 N458 1.384 . S
C456 H447 0.929 . S
C456 C448 1.378 . S
C456 C451 1.350 . S
C457 H444 0.929 . S
C457 C449 1.433 . S
C457 N459 1.384 . S
N458 C454 1.427 . S
N458 C455 1.384 . S
N459 C451 1.427 . S
N459 C457 1.384 . S
H460 C466 0.930 . S
H461 C470 0.930 . S
H462 C475 0.929 . S
H463 C473 0.929 . S
H464 C468 0.929 . S
H465 C474 0.929 . S
C466 H460 0.930 . S
C466 C467 1.367 . S
C466 C474 1.378 . S
C467 C466 1.367 . S
C467 C475 1.433 1_454 S
C468 H464 0.929 . S
C468 C470 1.378 . S
C468 C472 1.350 . S
C469 C472 1.463 . S
C469 C474 1.350 1_556 S
C469 N477 1.440 . S
C470 H461 0.930 . S
C470 C468 1.378 . S
C470 C471 1.367 . S
C471 C470 1.367 . S
C471 C473 1.433 . S
C472 C468 1.350 . S
C472 C469 1.463 . S
C472 N476 1.427 . S
C473 H463 0.929 . S
C473 C471 1.433 . S
C473 N476 1.384 . S
C474 H465 0.929 . S
C474 C466 1.378 . S
C474 C469 1.350 1_554 S
C475 H462 0.929 . S
C475 C467 1.433 1_656 S
C475 N477 1.378 1_655 S
N476 C472 1.427 . S
N476 C473 1.384 . S
N477 C469 1.440 . S
N477 C475 1.378 1_455 S
H478 C484 0.930 1_554 S
H479 C488 0.930 1_565 S
H480 C493 0.929 . S
H481 C491 0.929 . S
H482 C486 0.909 1_565 S
H483 C492 0.929 . S
C484 H478 0.930 1_556 S
C484 C485 1.367 . S
C484 C492 1.378 . S
C485 C484 1.367 . S
C485 C493 1.433 1_545 S
C486 H482 0.909 1_545 S
C486 C488 1.383 . S
C486 C490 1.365 . S
C487 C490 1.463 . S
C487 C492 1.350 . S
C487 N495 1.427 1_545 S
C488 H479 0.930 1_545 S
C488 C486 1.383 . S
C488 C489 1.367 . S
C489 C488 1.367 . S
C489 C491 1.433 . S
C490 C486 1.365 . S
C490 C487 1.463 . S
C490 N494 1.427 . S
C491 H481 0.929 . S
C491 C489 1.433 . S
C491 N494 1.384 . S
C492 H483 0.929 . S
C492 C484 1.378 . S
C492 C487 1.350 . S
C493 H480 0.929 . S
C493 C485 1.433 1_565 S
C493 N495 1.384 . S
N494 C490 1.427 . S
N494 C491 1.384 . S
N495 C487 1.427 1_565 S
N495 C493 1.384 . S
H496 C502 0.930 . S
H497 C506 0.930 . S
H498 C511 0.929 . S
H499 C509 0.929 . S
H500 C504 0.929 . S
H501 C510 0.929 . S
C502 H496 0.930 . S
C502 C503 1.367 . S
C502 C510 1.378 . S
C503 C502 1.367 . S
C503 C511 1.433 . S
C504 H500 0.929 . S
C504 C506 1.378 . S
C504 C508 1.350 . S
C505 C508 1.463 . S
C505 C510 1.350 . S
C505 N513 1.427 . S
C506 H497 0.930 . S
C506 C504 1.378 . S
C506 C507 1.367 . S
C507 C506 1.367 . S
C507 C509 1.433 . S
C508 C504 1.350 . S
C508 C505 1.463 . S
C508 N512 1.427 . S
C509 H499 0.929 . S
C509 C507 1.433 . S
C509 N512 1.384 . S
C510 H501 0.929 . S
C510 C502 1.378 . S
C510 C505 1.350 . S
C511 H498 0.929 . S
C511 C503 1.433 . S
C511 N513 1.384 . S
N512 C508 1.427 . S
N512 C509 1.384 . S
N513 C505 1.427 . S
N513 C511 1.384 . S
H514 C520 0.930 . S
H515 C524 0.930 . S
H516 C529 0.929 1_554 S
H517 C527 0.929 . S
H518 C522 0.929 . S
H519 C528 0.929 . S
C520 H514 0.930 . S
C520 C521 1.367 . S
C520 C528 1.378 . S
C521 C520 1.367 . S
C521 C529 1.433 . S
C522 H518 0.929 . S
C522 C524 1.378 . S
C522 C526 1.350 . S
C523 C526 1.463 . S
C523 C528 1.350 . S
C523 N531 1.427 . S
C524 H515 0.930 . S
C524 C522 1.378 . S
C524 C525 1.367 . S
C525 C524 1.367 . S
C525 C527 1.433 . S
C526 C522 1.350 . S
C526 C523 1.463 . S
C526 N530 1.427 . S
C527 H517 0.929 . S
C527 C525 1.433 . S
C527 N530 1.384 . S
C528 H519 0.929 . S
C528 C520 1.378 . S
C528 C523 1.350 . S
C529 H516 0.929 1_556 S
C529 C521 1.433 . S
C529 N531 1.384 . S
N530 C526 1.427 . S
N530 C527 1.384 . S
N531 C523 1.427 . S
N531 C529 1.384 . S
H532 C538 0.930 . S
H533 C542 0.930 . S
H534 C547 0.929 . S
H535 C545 0.929 . S
H536 C540 0.929 . S
H537 C546 0.929 . S
C538 H532 0.930 . S
C538 C539 1.367 . S
C538 C546 1.378 . S
C539 C538 1.367 . S
C539 C547 1.433 . S
C540 H536 0.929 . S
C540 C542 1.378 . S
C540 C544 1.350 1_556 S
C541 C544 1.463 . S
C541 C546 1.350 . S
C541 N549 1.427 . S
C542 H533 0.930 . S
C542 C540 1.378 . S
C542 C543 1.367 . S
C543 C542 1.367 . S
C543 C545 1.433 1_556 S
C544 C540 1.350 1_554 S
C544 C541 1.463 . S
C544 N548 1.427 . S
C545 H535 0.929 . S
C545 C543 1.433 1_554 S
C545 N548 1.384 . S
C546 H537 0.929 . S
C546 C538 1.378 . S
C546 C541 1.350 . S
C547 H534 0.929 . S
C547 C539 1.433 . S
C547 N549 1.384 . S
N548 C544 1.427 . S
N548 C545 1.384 . S
N549 C541 1.427 . S
N549 C547 1.384 . S
H550 C556 0.930 . S
H551 C560 0.930 . S
H552 C565 0.929 . S
H553 C563 0.929 . S
H554 C558 0.929 . S
H555 C564 0.929 1_556 S
C556 H550 0.930 . S
C556 C557 1.367 1_565 S
C556 C564 1.378 . S
C557 C556 1.367 1_545 S
C557 C565 1.433 . S
C558 H554 0.929 . S
C558 C560 1.378 1_554 S
C558 C562 1.350 . S
C559 C562 1.463 . S
C559 C564 1.350 1_545 S
C559 N567 1.427 . S
C560 H551 0.930 . S
C560 C558 1.378 1_556 S
C560 C561 1.367 . S
C561 C560 1.367 . S
C561 C563 1.433 1_545 S
C562 C558 1.350 . S
C562 C559 1.463 . S
C562 N566 1.427 1_544 S
C563 H553 0.929 . S
C563 C561 1.433 1_565 S
C563 N566 1.384 . S
C564 H555 0.929 1_554 S
C564 C556 1.378 . S
C564 C559 1.350 1_565 S
C565 H552 0.929 . S
C565 C557 1.433 . S
C565 N567 1.384 . S
N566 C562 1.427 1_566 S
N566 C563 1.384 . S
N567 C559 1.427 . S
N567 C565 1.384 . S
H568 C574 0.930 . S
H569 C578 0.930 . S
H570 C583 0.929 . S
H571 C581 0.929 . S
H572 C576 0.929 . S
H573 C582 0.929 . S
C574 H568 0.930 . S
C574 C575 1.367 . S
C574 C582 1.378 . S
C575 C574 1.367 . S
C575 C583 1.433 . S
C576 H572 0.929 . S
C576 C578 1.378 . S
C576 C580 1.350 . S
C577 C580 1.463 1_554 S
C577 C582 1.350 . S
C577 N585 1.427 . S
C578 H569 0.930 . S
C578 C576 1.378 . S
C578 C579 1.367 . S
C579 C578 1.367 . S
C579 C581 1.433 . S
C580 C576 1.350 . S
C580 C577 1.463 1_556 S
C580 N584 1.427 . S
C581 H571 0.929 . S
C581 C579 1.433 . S
C581 N584 1.384 . S
C582 H573 0.929 . S
C582 C574 1.378 . S
C582 C577 1.350 . S
C583 H570 0.929 . S
C583 C575 1.433 . S
C583 N585 1.384 . S
N584 C580 1.427 . S
N584 C581 1.384 . S
N585 C577 1.427 . S
N585 C583 1.384 . S
H586 C592 0.930 . S
H587 C596 0.930 . S
H588 C601 0.929 . S
H589 C599 0.929 . S
H590 C594 0.929 . S
H591 C600 0.929 . S
C592 H586 0.930 . S
C592 C593 1.367 . S
C592 C600 1.378 . S
C593 C592 1.367 . S
C593 C601 1.433 . S
C594 H590 0.929 . S
C594 C596 1.378 . S
C594 C598 1.350 . S
C595 C598 1.463 1_554 S
C595 C600 1.350 . S
C595 N603 1.427 1_554 S
C596 H587 0.930 . S
C596 C594 1.378 . S
C596 C597 1.367 . S
C597 C596 1.367 . S
C597 C599 1.433 . S
C598 C594 1.350 . S
C598 C595 1.463 1_556 S
C598 N602 1.427 1_556 S
C599 H589 0.929 . S
C599 C597 1.433 . S
C599 N602 1.384 1_556 S
C600 H591 0.929 . S
C600 C592 1.378 . S
C600 C595 1.350 . S
C601 H588 0.929 . S
C601 C593 1.433 . S
C601 N603 1.384 1_554 S
N602 C598 1.427 1_554 S
N602 C599 1.384 1_554 S
N603 C595 1.427 1_556 S
N603 C601 1.384 1_556 S
H604 C610 0.930 . S
H605 C614 0.930 . S
H606 C619 0.929 . S
H607 C617 0.929 . S
H608 C612 0.929 . S
H609 C618 0.929 . S
C610 H604 0.930 . S
C610 C611 1.362 1_455 S
C610 C618 1.378 . S
C611 C610 1.362 1_655 S
C611 C619 1.439 . S
C612 H608 0.929 . S
C612 C614 1.378 . S
C612 C616 1.350 . S
C613 C616 1.463 . S
C613 C618 1.350 1_655 S
C613 N621 1.427 . S
C614 H605 0.930 . S
C614 C612 1.378 . S
C614 C615 1.367 . S
C615 C614 1.367 . S
C615 C617 1.433 1_655 S
C616 C612 1.350 . S
C616 C613 1.463 . S
C616 N620 1.427 1_655 S
C617 H607 0.929 . S
C617 C615 1.433 1_455 S
C617 N620 1.384 . S
C618 H609 0.929 . S
C618 C610 1.378 . S
C618 C613 1.350 1_455 S
C619 H606 0.929 . S
C619 C611 1.439 . S
C619 N621 1.384 . S
N620 C616 1.427 1_455 S
N620 C617 1.384 . S
N621 C613 1.427 . S
N621 C619 1.384 . S
H622 C628 0.930 . S
H623 C632 0.930 1_545 S
H624 C637 0.929 . S
H625 C635 0.929 . S
H626 C630 0.929 . S
H627 C636 0.929 . S
C628 H622 0.930 . S
C628 C629 1.367 . S
C628 C636 1.378 . S
C629 C628 1.367 . S
C629 C637 1.433 1_565 S
C630 H626 0.929 . S
C630 C632 1.378 1_545 S
C630 C634 1.350 1_545 S
C631 C634 1.463 . S
C631 C636 1.350 . S
C631 N639 1.427 1_565 S
C632 H623 0.930 1_565 S
C632 C630 1.378 1_565 S
C632 C633 1.367 . S
C633 C632 1.367 . S
C633 C635 1.433 . S
C634 C630 1.350 1_565 S
C634 C631 1.463 . S
C634 N638 1.427 . S
C635 H625 0.929 . S
C635 C633 1.433 . S
C635 N638 1.384 . S
C636 H627 0.929 . S
C636 C628 1.378 . S
C636 C631 1.350 . S
C637 H624 0.929 . S
C637 C629 1.433 1_545 S
C637 N639 1.384 . S
N638 C634 1.427 . S
N638 C635 1.384 . S
N639 C631 1.427 1_545 S
N639 C637 1.384 . S
H640 C646 0.930 . S
H641 C650 0.930 . S
H642 C655 0.929 . S
H643 C653 0.929 . S
H644 C648 0.929 . S
H645 C654 0.929 . S
C646 H640 0.930 . S
C646 C647 1.367 . S
C646 C654 1.378 . S
C647 C646 1.367 . S
C647 C655 1.433 . S
C648 H644 0.929 . S
C648 C650 1.378 . S
C648 C652 1.350 . S
C649 C652 1.463 . S
C649 C654 1.350 . S
C649 N657 1.427 . S
C650 H641 0.930 . S
C650 C648 1.378 . S
C650 C651 1.367 . S
C651 C650 1.367 . S
C651 C653 1.433 . S
C652 C648 1.350 . S
C652 C649 1.463 . S
C652 N656 1.427 . S
C653 H643 0.929 . S
C653 C651 1.433 . S
C653 N656 1.384 . S
C654 H645 0.929 . S
C654 C646 1.378 . S
C654 C649 1.350 . S
C655 H642 0.929 . S
C655 C647 1.433 . S
C655 N657 1.384 . S
N656 C652 1.427 . S
N656 C653 1.384 . S
N657 C649 1.427 . S
N657 C655 1.384 . S
H658 C664 0.930 . S
H659 C668 0.930 . S
H660 C673 0.929 . S
H661 C671 0.929 . S
H662 C666 0.929 . S
H663 C672 0.929 . S
C664 H658 0.930 . S
C664 C665 1.367 . S
C664 C672 1.378 . S
C665 C664 1.367 . S
C665 C673 1.433 . S
C666 H662 0.929 . S
C666 C668 1.378 . S
C666 C670 1.350 . S
C667 C670 1.463 . S
C667 C672 1.350 . S
C667 N675 1.427 . S
C668 H659 0.930 . S
C668 C666 1.378 . S
C668 C669 1.367 . S
C669 C668 1.367 . S
C669 C671 1.433 . S
C670 C666 1.350 . S
C670 C667 1.463 . S
C670 N674 1.427 . S
C671 H661 0.929 . S
C671 C669 1.433 . S
C671 N674 1.384 . S
C672 H663 0.929 . S
C672 C664 1.378 . S
C672 C667 1.350 . S
C673 H660 0.929 . S
C673 C665 1.433 . S
C673 N675 1.384 . S
N674 C670 1.427 . S
N674 C671 1.384 . S
N675 C667 1.427 . S
N675 C673 1.384 . S
C251 C125 1.558 . S
C255 C168 1.604 . S
C273 C191 1.636 . S
C269 C144 1.557 . S
C291 C214 1.651 . S
C287 C87 1.598 . S
C309 C241 1.527 . S
C305 C106 1.506 . S
C327 C169 1.587 . S
C323 C49 1.523 1_556 S
C341 C68 1.476 . S
C345 C192 1.523 . S
C359 C11 1.467 . S
C363 C215 1.520 . S
C377 C30 1.591 1_556 S
C381 C240 1.609 . S
C399 C170 0.523 . S
C395 C97 0.563 . S
C417 C193 0.519 . S
C413 C116 0.541 . S
C435 C216 0.547 . S
C431 C135 0.601 . S
C449 C78 0.703 . S
C453 C242 0.709 . S
C467 C21 0.771 . S
C471 C173 0.775 . S
C489 C196 0.745 . S
C485 C40 0.759 1_556 S
C507 C219 0.743 . S
C503 C59 0.729 . S
C521 C2 0.562 . S
C525 C239 0.488 . S
C539 C101 1.590 . S
C543 C171 1.557 . S
C557 C120 1.560 . S
C561 C194 1.543 . S
C579 C217 1.555 . S
C575 C139 1.567 . S
C597 C238 1.398 . S
C593 C82 1.363 . S
C611 C25 1.614 1_655 S
C615 C172 1.555 . S
C633 C195 1.488 . S
C629 C44 1.564 . S
C651 C218 1.474 . S
C647 C63 1.544 . S
C665 C6 1.717 . S
C669 C237 1.746 . S
