# Generated by pormake.
# Topology dag, (6,3)-cn, num edge types: 1
# Building blocks:
#     Node 0, Type 0, BuildingBlock: IZENUY_clean_sbu_0, # of connection points: 6
#     Node 1, Type 0, BuildingBlock: IZENUY_clean_sbu_0, # of connection points: 6
#     Node 2, Type 0, BuildingBlock: IZENUY_clean_sbu_0, # of connection points: 6
#     Node 3, Type 0, BuildingBlock: IZENUY_clean_sbu_0, # of connection points: 6
#     Node 4, Type 1, BuildingBlock: BETDAH_clean_linker_0, # of connection points: 3
#     Node 5, Type 1, BuildingBlock: BETDAH_clean_linker_0, # of connection points: 3
#     Node 6, Type 1, BuildingBlock: BETDAH_clean_linker_0, # of connection points: 3
#     Node 7, Type 1, BuildingBlock: BETDAH_clean_linker_0, # of connection points: 3
#     Node 8, Type 1, BuildingBlock: BETDAH_clean_linker_0, # of connection points: 3
#     Node 9, Type 1, BuildingBlock: BETDAH_clean_linker_0, # of connection points: 3
#     Node 10, Type 1, BuildingBlock: BETDAH_clean_linker_0, # of connection points: 3
#     Node 11, Type 1, BuildingBlock: BETDAH_clean_linker_0, # of connection points: 3
#     Edge 12, Type (0, 1), BuildingBlock: MIFKUJ_clean_linker_0, # of connection points: 2
#     Edge 13, Type (0, 1), BuildingBlock: MIFKUJ_clean_linker_0, # of connection points: 2
#     Edge 14, Type (0, 1), BuildingBlock: MIFKUJ_clean_linker_0, # of connection points: 2
#     Edge 15, Type (0, 1), BuildingBlock: MIFKUJ_clean_linker_0, # of connection points: 2
#     Edge 16, Type (0, 1), BuildingBlock: MIFKUJ_clean_linker_0, # of connection points: 2
#     Edge 17, Type (0, 1), BuildingBlock: MIFKUJ_clean_linker_0, # of connection points: 2
#     Edge 18, Type (0, 1), BuildingBlock: MIFKUJ_clean_linker_0, # of connection points: 2
#     Edge 19, Type (0, 1), BuildingBlock: MIFKUJ_clean_linker_0, # of connection points: 2
#     Edge 20, Type (0, 1), BuildingBlock: MIFKUJ_clean_linker_0, # of connection points: 2
#     Edge 21, Type (0, 1), BuildingBlock: MIFKUJ_clean_linker_0, # of connection points: 2
#     Edge 22, Type (0, 1), BuildingBlock: MIFKUJ_clean_linker_0, # of connection points: 2
#     Edge 23, Type (0, 1), BuildingBlock: MIFKUJ_clean_linker_0, # of connection points: 2
#     Edge 24, Type (0, 1), BuildingBlock: MIFKUJ_clean_linker_0, # of connection points: 2
#     Edge 25, Type (0, 1), BuildingBlock: MIFKUJ_clean_linker_0, # of connection points: 2
#     Edge 26, Type (0, 1), BuildingBlock: MIFKUJ_clean_linker_0, # of connection points: 2
#     Edge 27, Type (0, 1), BuildingBlock: MIFKUJ_clean_linker_0, # of connection points: 2
#     Edge 28, Type (0, 1), BuildingBlock: MIFKUJ_clean_linker_0, # of connection points: 2
#     Edge 29, Type (0, 1), BuildingBlock: MIFKUJ_clean_linker_0, # of connection points: 2
#     Edge 30, Type (0, 1), BuildingBlock: MIFKUJ_clean_linker_0, # of connection points: 2
#     Edge 31, Type (0, 1), BuildingBlock: MIFKUJ_clean_linker_0, # of connection points: 2
#     Edge 32, Type (0, 1), BuildingBlock: MIFKUJ_clean_linker_0, # of connection points: 2
#     Edge 33, Type (0, 1), BuildingBlock: MIFKUJ_clean_linker_0, # of connection points: 2
#     Edge 34, Type (0, 1), BuildingBlock: MIFKUJ_clean_linker_0, # of connection points: 2
#     Edge 35, Type (0, 1), BuildingBlock: MIFKUJ_clean_linker_0, # of connection points: 2
# Relax obj value: 0.095
# Max RMSD: 0.099
# Mean RMSD: 0.084
data_MOF--net-dag--node1-IZENUY_clean_sbu_0--node2-BETDAH_clean_linker_0--edge1-MIFKUJ_clean_linker_0
_symmetry_space_group_name_H-M    P1
_symmetry_Int_Tables_number       1
_symmetry_cell_setting            triclinic
loop_
_symmetry_equiv_pos_as_xyz
'x, y, z'
_cell_length_a     50.015888
_cell_length_b     53.079426
_cell_length_c     45.919441
_cell_angle_alpha  93.684352
_cell_angle_beta   90.073558
_cell_angle_gamma 90.030285
loop_
_atom_site_label
_atom_site_type_symbol
_atom_site_fract_x
_atom_site_fract_y
_atom_site_fract_z
_atom_type_partial_charge
Fe0 Fe 0.15916 0.84665 0.07202 0.0
Fe1 Fe 0.10052 0.86046 0.06242 0.0
O2 O 0.12552 0.83732 0.06601 0.0
Fe3 Fe 0.11677 0.80489 0.0635 0.0
O4 O 0.12912 0.80082 0.10005 0.0
O5 O 0.16729 0.82057 0.09473 0.0
O6 O 0.15082 0.8652 0.10546 0.0
C7 C 0.13441 0.88327 0.10636 0.0
C8 C 0.16621 0.80578 0.03337 0.0
O9 O 0.11675 0.88454 0.08676 0.0
C10 C 0.08532 0.82181 0.02038 0.0
O11 O 0.15695 0.87434 0.05033 0.0
O12 O 0.11684 0.87217 0.03065 0.0
O13 O 0.1485 0.79402 0.04682 0.0
O14 O 0.16997 0.82906 0.03906 0.0
C15 C 0.07399 0.8281 0.09588 0.0
O16 O 0.07955 0.84075 0.03733 0.0
O17 O 0.10381 0.80694 0.02666 0.0
C18 C 0.14063 0.8802 0.03077 0.0
O19 O 0.0828 0.85022 0.09397 0.0
O20 O 0.0834 0.80987 0.07984 0.0
C21 C 0.1524 0.80644 0.10888 0.0
Fe22 Fe 0.67611 0.63837 0.47738 0.0
Fe23 Fe 0.63081 0.67641 0.49157 0.0
O24 O 0.64241 0.6449 0.48696 0.0
Fe25 Fe 0.62016 0.61972 0.49199 0.0
O26 O 0.64018 0.60919 0.52171 0.0
O27 O 0.67835 0.60988 0.4981 0.0
O28 O 0.68825 0.65604 0.50989 0.0
C29 C 0.68258 0.67877 0.517 0.0
C30 C 0.65075 0.60138 0.44359 0.0
O31 O 0.6627 0.68934 0.50576 0.0
C32 C 0.58817 0.65041 0.46189 0.0
O33 O 0.67982 0.66568 0.45519 0.0
O34 O 0.6396 0.68236 0.45432 0.0
O35 O 0.63641 0.59752 0.46551 0.0
O36 O 0.6662 0.62021 0.44402 0.0
C37 C 0.60531 0.65565 0.53692 0.0
O38 O 0.59687 0.66899 0.47795 0.0
O39 O 0.59891 0.62896 0.46256 0.0
C40 C 0.66249 0.67901 0.44321 0.0
O41 O 0.62119 0.67252 0.52934 0.0
O42 O 0.59967 0.63704 0.51944 0.0
C43 C 0.66448 0.6031 0.51934 0.0
Fe44 Fe 0.87993 0.18756 0.00078 0.0
Fe45 Fe 0.89451 0.13158 0.00122 0.0
O46 O 0.87044 0.15538 0.99671 0.0
Fe47 Fe 0.83696 0.14689 0.98814 0.0
O48 O 0.83834 0.16266 0.95456 0.0
O49 O 0.8563 0.19793 0.97314 0.0
O50 O 0.90434 0.18361 0.97169 0.0
C51 C 0.92353 0.1683 0.97195 0.0
C52 C 0.83157 0.18955 0.02834 0.0
O53 O 0.92277 0.14973 0.98792 0.0
C54 C 0.84824 0.11236 0.02766 0.0
O55 O 0.90521 0.18289 0.02932 0.0
O56 O 0.90062 0.14299 0.03854 0.0
O57 O 0.82206 0.17464 0.00823 0.0
O58 O 0.85632 0.1937 0.03006 0.0
C59 C 0.86757 0.11083 0.95396 0.0
O60 O 0.87081 0.10906 0.01555 0.0
O61 O 0.8334 0.13036 0.02123 0.0
C62 C 0.9082 0.16508 0.04624 0.0
O63 O 0.88973 0.1187 0.96409 0.0
O64 O 0.84585 0.11767 0.96637 0.0
C65 C 0.84436 0.1855 0.95249 0.0
Fe66 Fe 0.38381 0.37951 0.56892 0.0
Fe67 Fe 0.32657 0.36419 0.58329 0.0
O68 O 0.35995 0.35575 0.57427 0.0
Fe69 Fe 0.36966 0.32368 0.57031 0.0
O70 O 0.4039 0.32952 0.58413 0.0
O71 O 0.40388 0.36973 0.59909 0.0
O72 O 0.36839 0.40319 0.59426 0.0
C73 C 0.35294 0.40111 0.61574 0.0
C74 C 0.39714 0.3421 0.52515 0.0
O75 O 0.33701 0.3827 0.61622 0.0
C76 C 0.31846 0.32369 0.54401 0.0
O77 O 0.36493 0.3903 0.53846 0.0
O78 O 0.32635 0.3921 0.56152 0.0
O79 O 0.37971 0.32657 0.5325 0.0
O80 O 0.40383 0.36052 0.54241 0.0
C81 C 0.33757 0.32356 0.61856 0.0
O82 O 0.31382 0.34661 0.55106 0.0
O83 O 0.33724 0.31215 0.55604 0.0
C84 C 0.34088 0.39741 0.54012 0.0
O85 O 0.32106 0.33758 0.60628 0.0
O86 O 0.36026 0.31883 0.6076 0.0
C87 C 0.41345 0.34779 0.60009 0.0
H88 H 0.10337 0.12674 0.23521 0.0
H89 H 0.18621 0.13632 0.25859 0.0
H90 H 0.13325 0.20012 0.26423 0.0
C91 C 0.11953 0.13858 0.24398 0.0
C92 C 0.11498 0.16446 0.25011 0.0
C93 C 0.14515 0.12819 0.2467 0.0
C94 C 0.16612 0.14382 0.25726 0.0
C95 C 0.16169 0.16957 0.26441 0.0
C96 C 0.1362 0.17995 0.2605 0.0
N97 N 0.18388 0.18545 0.27097 0.0
C98 C 0.1885 0.19672 0.29864 0.0
H99 H 0.41824 0.61877 0.75136 0.0
H100 H 0.4334 0.68481 0.80793 0.0
H101 H 0.36334 0.63948 0.8209 0.0
C102 C 0.41251 0.63136 0.76986 0.0
C103 C 0.38886 0.62678 0.78505 0.0
C104 C 0.42865 0.65219 0.77793 0.0
C105 C 0.42109 0.66854 0.80163 0.0
C106 C 0.39763 0.66419 0.81724 0.0
C107 C 0.38148 0.64311 0.809 0.0
N108 N 0.39118 0.68141 0.84109 0.0
C109 C 0.36617 0.68368 0.85413 0.0
H110 H 0.82255 0.89068 0.167 0.0
H111 H 0.7854 0.82048 0.18624 0.0
H112 H 0.73718 0.88312 0.16263 0.0
C113 C 0.80472 0.87958 0.17023 0.0
C114 C 0.77965 0.89017 0.16497 0.0
C115 C 0.80716 0.85441 0.17766 0.0
C116 C 0.78384 0.83993 0.18057 0.0
C117 C 0.75856 0.8504 0.17524 0.0
C118 C 0.75668 0.87527 0.16696 0.0
N119 N 0.73468 0.83622 0.17716 0.0
C120 C 0.73105 0.81796 0.19711 0.0
H121 H 0.66555 0.38473 0.67486 0.0
H122 H 0.7 0.31362 0.69437 0.0
H123 H 0.74997 0.37217 0.66354 0.0
C124 C 0.68308 0.37299 0.67705 0.0
C125 C 0.70817 0.38189 0.66875 0.0
C126 C 0.6799 0.34849 0.68631 0.0
C127 C 0.70232 0.3327 0.68766 0.0
C128 C 0.72761 0.34142 0.67945 0.0
C129 C 0.73034 0.36575 0.66975 0.0
N130 N 0.75056 0.32588 0.68003 0.0
C131 C 0.7558 0.31091 0.70302 0.0
H132 H 0.57519 0.39076 0.29779 0.0
H133 H 0.64553 0.36286 0.25251 0.0
H134 H 0.58444 0.31116 0.27665 0.0
C135 C 0.58614 0.37518 0.28705 0.0
C136 C 0.57648 0.35046 0.28836 0.0
C137 C 0.61104 0.37978 0.2743 0.0
C138 C 0.62602 0.35945 0.26171 0.0
C139 C 0.61607 0.33465 0.26223 0.0
C140 C 0.59159 0.33039 0.27575 0.0
N141 N 0.63064 0.3132 0.25124 0.0
C142 C 0.65078 0.31318 0.23047 0.0
H143 H 0.15803 0.11373 0.89666 0.0
H144 H 0.20506 0.1724 0.86161 0.0
H145 H 0.23997 0.09945 0.87307 0.0
C146 C 0.17676 0.12003 0.88769 0.0
C147 C 0.19849 0.10343 0.88533 0.0
C148 C 0.17905 0.14492 0.87947 0.0
C149 C 0.20326 0.15314 0.86785 0.0
C150 C 0.22539 0.13663 0.86573 0.0
C151 C 0.22288 0.11202 0.87473 0.0
N152 N 0.2507 0.14416 0.85544 0.0
C153 C 0.25525 0.1659 0.84096 0.0
H154 H 0.32814 0.60079 0.37985 0.0
H155 H 0.30228 0.6766 0.36648 0.0
H156 H 0.24535 0.62047 0.38923 0.0
C157 C 0.31233 0.61454 0.3779 0.0
C158 C 0.28597 0.6074 0.38363 0.0
C159 C 0.31872 0.63946 0.37191 0.0
C160 C 0.29791 0.65728 0.37111 0.0
C161 C 0.27147 0.65037 0.37753 0.0
C162 C 0.26572 0.6256 0.38417 0.0
N163 N 0.25042 0.66818 0.37834 0.0
C164 C 0.24763 0.68549 0.3572 0.0
H165 H 0.89717 0.87876 0.81847 0.0
H166 H 0.91323 0.82046 0.75127 0.0
H167 H 0.8633 0.88337 0.73289 0.0
C168 C 0.89371 0.87033 0.79664 0.0
C169 C 0.87801 0.88333 0.77718 0.0
C170 C 0.90659 0.84765 0.7877 0.0
C171 C 0.90323 0.83777 0.75879 0.0
C172 C 0.88718 0.85033 0.73927 0.0
C173 C 0.87482 0.87324 0.74836 0.0
N174 N 0.88592 0.8412 0.7097 0.0
C175 C 0.86431 0.82728 0.69851 0.0
H176 H 0.10789 0.92806 0.10741 0.0
H177 H 0.11834 0.96686 0.13614 0.0
H178 H 0.18108 0.92893 0.18053 0.0
H179 H 0.17108 0.88958 0.15123 0.0
H180 H 0.143 0.96439 0.21657 0.0
H181 H 0.20366 0.96102 0.13597 0.0
H182 H 0.21662 0.954 0.08432 0.0
H183 H 0.16438 0.01378 0.06146 0.0
H184 H 0.15058 0.02079 0.11292 0.0
H185 H 0.1741 0.09119 0.27197 0.0
H186 H 0.18088 0.04736 0.25264 0.0
H187 H 0.13421 0.06238 0.17653 0.0
H188 H 0.12861 0.10603 0.19504 0.0
H189 H 0.17565 0.03519 0.16066 0.0
H190 H 0.10809 0.03249 0.2364 0.0
H191 H 0.091 0.03903 0.28669 0.0
H192 H 0.15277 0.99108 0.31722 0.0
H193 H 0.17041 0.98452 0.26711 0.0
C194 C 0.12377 0.9277 0.12344 0.0
C195 C 0.13882 0.90567 0.12679 0.0
C196 C 0.12972 0.94998 0.13981 0.0
C197 C 0.15065 0.95076 0.16012 0.0
C198 C 0.16491 0.92862 0.16479 0.0
C199 C 0.15917 0.90622 0.14806 0.0
C200 C 0.15786 0.97526 0.17526 0.0
C201 C 0.15083 0.97978 0.20466 0.0
C202 C 0.16758 0.99531 0.15939 0.0
C203 C 0.17593 0.9913 0.12836 0.0
C204 C 0.19471 0.97251 0.11992 0.0
C205 C 0.20223 0.96855 0.09067 0.0
C206 C 0.1913 0.98341 0.06963 0.0
C207 C 0.17281 0.00227 0.07779 0.0
C208 C 0.16514 0.00625 0.10702 0.0
C209 C 0.16553 0.08508 0.25102 0.0
C210 C 0.15028 0.10183 0.23527 0.0
C211 C 0.16927 0.06004 0.24008 0.0
C212 C 0.15774 0.05144 0.21329 0.0
C213 C 0.14324 0.06846 0.19727 0.0
C214 C 0.13968 0.09334 0.20806 0.0
C215 C 0.15987 0.02468 0.20182 0.0
C216 C 0.16859 0.01973 0.17295 0.0
C217 C 0.15135 0.00434 0.21806 0.0
C218 C 0.14077 0.00829 0.24813 0.0
C219 C 0.11815 0.02352 0.25389 0.0
C220 C 0.10834 0.02719 0.28234 0.0
C221 C 0.12085 0.01555 0.30515 0.0
C222 C 0.14315 0.00014 0.29954 0.0
C223 C 0.15305 0.99643 0.27113 0.0
H224 H 0.11323 0.01841 0.32716 0.0
H225 H 0.19725 0.98034 0.04703 0.0
H226 H 0.6075 0.69469 0.57979 0.0
H227 H 0.58177 0.69838 0.62551 0.0
H228 H 0.54555 0.62587 0.60356 0.0
H229 H 0.5707 0.62207 0.55838 0.0
H230 H 0.50853 0.66038 0.6191 0.0
H231 H 0.59396 0.63279 0.65474 0.0
H232 H 0.64236 0.63503 0.66508 0.0
H233 H 0.63143 0.70573 0.71444 0.0
H234 H 0.58302 0.70411 0.70406 0.0
H235 H 0.47044 0.62058 0.76503 0.0
H236 H 0.50605 0.6263 0.72933 0.0
H237 H 0.47515 0.70014 0.71411 0.0
H238 H 0.43992 0.69476 0.75039 0.0
H239 H 0.54664 0.66885 0.7191 0.0
H240 H 0.46551 0.69276 0.6379 0.0
H241 H 0.41699 0.6866 0.63032 0.0
H242 H 0.42055 0.61698 0.67291 0.0
H243 H 0.46913 0.62242 0.68007 0.0
C244 C 0.5941 0.67954 0.58481 0.0
C245 C 0.59097 0.65823 0.56522 0.0
C246 C 0.57951 0.68163 0.61096 0.0
C247 C 0.56167 0.66242 0.61786 0.0
C248 C 0.55901 0.64101 0.59859 0.0
C249 C 0.57348 0.6389 0.57269 0.0
C250 C 0.54479 0.66454 0.64446 0.0
C251 C 0.51696 0.66247 0.64091 0.0
C252 C 0.55569 0.6671 0.67299 0.0
C253 C 0.58491 0.66847 0.67834 0.0
C254 C 0.60192 0.64898 0.66748 0.0
C255 C 0.62935 0.65009 0.67343 0.0
C256 C 0.63993 0.6705 0.69043 0.0
C257 C 0.62318 0.68993 0.7013 0.0
C258 C 0.59577 0.68893 0.69538 0.0
C259 C 0.47179 0.6383 0.75465 0.0
C260 C 0.45255 0.65726 0.76034 0.0
C261 C 0.49218 0.64161 0.73447 0.0
C262 C 0.49319 0.66365 0.71923 0.0
C263 C 0.47477 0.6831 0.7259 0.0
C264 C 0.4547 0.68002 0.74653 0.0
C265 C 0.51071 0.66463 0.69344 0.0
C266 C 0.53842 0.66727 0.69718 0.0
C267 C 0.49987 0.66213 0.66499 0.0
C268 C 0.47084 0.65822 0.65989 0.0
C269 C 0.45593 0.67609 0.64551 0.0
C270 C 0.42844 0.6727 0.64126 0.0
C271 C 0.41569 0.65146 0.65122 0.0
C272 C 0.43043 0.63346 0.66528 0.0
C273 C 0.45794 0.6367 0.66945 0.0
H274 H 0.39439 0.64891 0.64799 0.0
H275 H 0.66109 0.67122 0.6953 0.0
H276 H 0.79731 0.10745 0.04903 0.0
H277 H 0.77971 0.07253 0.07569 0.0
H278 H 0.85796 0.03834 0.07486 0.0
H279 H 0.87559 0.07279 0.04803 0.0
H280 H 0.82083 0.00504 0.05649 0.0
H281 H 0.83191 0.06773 0.1365 0.0
H282 H 0.82463 0.1092 0.16266 0.0
H283 H 0.74017 0.09499 0.16488 0.0
H284 H 0.74689 0.05358 0.13829 0.0
H285 H 0.80463 0.93184 0.18982 0.0
H286 H 0.80866 0.97323 0.1697 0.0
H287 H 0.75529 0.94914 0.09946 0.0
H288 H 0.75148 0.90751 0.11929 0.0
H289 H 0.77567 0.01241 0.15284 0.0
H290 H 0.7858 0.96634 0.03685 0.0
H291 H 0.79643 0.92489 0.01211 0.0
H292 H 0.8448 0.90636 0.08505 0.0
H293 H 0.8348 0.94783 0.10996 0.0
C294 C 0.81082 0.09261 0.05479 0.0
C295 C 0.83782 0.09278 0.04617 0.0
C296 C 0.80073 0.07271 0.07006 0.0
C297 C 0.81753 0.05283 0.07717 0.0
C298 C 0.84461 0.05341 0.06938 0.0
C299 C 0.85467 0.07316 0.05409 0.0
C300 C 0.80694 0.0307 0.09151 0.0
C301 C 0.81078 0.00673 0.07746 0.0
C302 C 0.79389 0.03288 0.1189 0.0
C303 C 0.78988 0.05767 0.13513 0.0
C304 C 0.81176 0.07353 0.14235 0.0
C305 C 0.80774 0.09701 0.15729 0.0
C306 C 0.78195 0.10475 0.16537 0.0
C307 C 0.76013 0.08899 0.15857 0.0
C308 C 0.76404 0.06551 0.14358 0.0
C309 C 0.79339 0.93555 0.17037 0.0
C310 C 0.77806 0.9164 0.15584 0.0
C311 C 0.7955 0.95925 0.15908 0.0
C312 C 0.78249 0.96412 0.13297 0.0
C313 C 0.76557 0.94566 0.11959 0.0
C314 C 0.76337 0.92194 0.13096 0.0
C315 C 0.78973 0.98691 0.11779 0.0
C316 C 0.78528 0.0109 0.13163 0.0
C317 C 0.8027 0.98483 0.09039 0.0
C318 C 0.80926 0.96003 0.07539 0.0
C319 C 0.79877 0.95343 0.04754 0.0
C320 C 0.80469 0.92995 0.03349 0.0
C321 C 0.8212 0.91296 0.04705 0.0
C322 C 0.83194 0.91949 0.07462 0.0
C323 C 0.82614 0.94297 0.08871 0.0
H324 H 0.82572 0.89478 0.03616 0.0
H325 H 0.77888 0.12292 0.17695 0.0
H326 H 0.44625 0.30648 0.59724 0.0
H327 H 0.48953 0.30208 0.62091 0.0
H328 H 0.48056 0.37614 0.66428 0.0
H329 H 0.43751 0.38099 0.64002 0.0
H330 H 0.52759 0.37207 0.64017 0.0
H331 H 0.47641 0.32067 0.70127 0.0
H332 H 0.44499 0.28674 0.71219 0.0
H333 H 0.49797 0.23146 0.67152 0.0
H334 H 0.52954 0.2651 0.65994 0.0
H335 H 0.64211 0.37052 0.72195 0.0
H336 H 0.59386 0.36398 0.71748 0.0
H337 H 0.60723 0.30018 0.65632 0.0
H338 H 0.65566 0.30666 0.66076 0.0
H339 H 0.55751 0.29833 0.693 0.0
H340 H 0.60532 0.35062 0.62708 0.0
H341 H 0.63775 0.38422 0.61791 0.0
H342 H 0.59026 0.43796 0.66896 0.0
H343 H 0.55785 0.40449 0.679 0.0
C344 C 0.45331 0.32174 0.61207 0.0
C345 C 0.43848 0.34417 0.61659 0.0
C346 C 0.47803 0.31912 0.62575 0.0
C347 C 0.48824 0.33868 0.64461 0.0
C348 C 0.47311 0.3608 0.6498 0.0
C349 C 0.44849 0.36354 0.63592 0.0
C350 C 0.51552 0.33686 0.65718 0.0
C351 C 0.53386 0.35614 0.65217 0.0
C352 C 0.52404 0.31578 0.67226 0.0
C353 C 0.50525 0.29545 0.67952 0.0
C354 C 0.48129 0.30129 0.69448 0.0
C355 C 0.46346 0.28211 0.70081 0.0
C356 C 0.46945 0.25697 0.6925 0.0
C357 C 0.49334 0.25095 0.67793 0.0
C358 C 0.51123 0.27007 0.6715 0.0
C359 C 0.63476 0.35445 0.70852 0.0
C360 C 0.65247 0.3393 0.69137 0.0
C361 C 0.60723 0.35071 0.70602 0.0
C362 C 0.59707 0.33188 0.68621 0.0
C363 C 0.61475 0.31479 0.67176 0.0
C364 C 0.64239 0.3185 0.67431 0.0
C365 C 0.56908 0.33357 0.67607 0.0
C366 C 0.55087 0.3143 0.68129 0.0
C367 C 0.56052 0.35464 0.66115 0.0
C368 C 0.5793 0.37502 0.65401 0.0
C369 C 0.60185 0.36959 0.63644 0.0
C370 C 0.62022 0.3886 0.63108 0.0
C371 C 0.61609 0.4132 0.64286 0.0
C372 C 0.59346 0.41887 0.65988 0.0
C373 C 0.57508 0.3999 0.66541 0.0
H374 H 0.6304 0.42787 0.63881 0.0
H375 H 0.4556 0.24214 0.6974 0.0
H376 H 0.67692 0.60241 0.39064 0.0
H377 H 0.67419 0.57067 0.3492 0.0
H378 H 0.62121 0.52579 0.39885 0.0
H379 H 0.62348 0.55702 0.43963 0.0
H380 H 0.68701 0.52084 0.34266 0.0
H381 H 0.57233 0.5012 0.35804 0.0
H382 H 0.53194 0.5259 0.37142 0.0
H383 H 0.56989 0.59329 0.34496 0.0
H384 H 0.61029 0.56896 0.33081 0.0
H385 H 0.65256 0.3951 0.30876 0.0
H386 H 0.66393 0.43843 0.32503 0.0
H387 H 0.60588 0.466 0.26501 0.0
H388 H 0.59334 0.42235 0.25027 0.0
H389 H 0.59741 0.48909 0.31173 0.0
H390 H 0.67767 0.47728 0.26042 0.0
H391 H 0.7189 0.45652 0.24191 0.0
H392 H 0.7508 0.45854 0.32888 0.0
H393 H 0.70961 0.47897 0.34801 0.0
C394 C 0.66473 0.58574 0.39265 0.0
C395 C 0.65034 0.58236 0.41845 0.0
C396 C 0.66321 0.56764 0.36899 0.0
C397 C 0.64712 0.54607 0.37076 0.0
C398 C 0.63329 0.54252 0.3967 0.0
C399 C 0.63474 0.56044 0.42014 0.0
C400 C 0.64456 0.52673 0.34604 0.0
C401 C 0.6675 0.51398 0.33553 0.0
C402 C 0.61913 0.51859 0.33568 0.0
C403 C 0.59447 0.5332 0.34346 0.0
C404 C 0.57201 0.52124 0.35479 0.0
C405 C 0.5491 0.5352 0.36256 0.0
C406 C 0.54835 0.56115 0.35906 0.0
C407 C 0.57049 0.57319 0.34768 0.0
C408 C 0.5934 0.55932 0.33979 0.0
C409 C 0.6429 0.41047 0.29842 0.0
C410 C 0.62232 0.40552 0.27809 0.0
C411 C 0.64945 0.43532 0.30762 0.0
C412 C 0.63603 0.45579 0.2961 0.0
C413 C 0.61655 0.4507 0.27436 0.0
C414 C 0.60953 0.42579 0.26571 0.0
C415 C 0.63988 0.48195 0.30953 0.0
C416 C 0.61709 0.49609 0.31802 0.0
C417 C 0.66552 0.49189 0.31697 0.0
C418 C 0.69045 0.47961 0.30566 0.0
C419 C 0.6934 0.47316 0.27564 0.0
C420 C 0.71678 0.46146 0.26503 0.0
C421 C 0.73745 0.4562 0.28421 0.0
C422 C 0.73478 0.46265 0.31404 0.0
C423 C 0.71143 0.47435 0.32477 0.0
H424 H 0.75553 0.44713 0.27595 0.0
H425 H 0.53063 0.57194 0.36515 0.0
H426 H 0.93068 0.19634 0.92436 0.0
H427 H 0.97336 0.20622 0.9009 0.0
H428 H 0.0157 0.16433 0.96381 0.0
H429 H 0.97352 0.15388 0.98673 0.0
H430 H 0.03594 0.21687 0.95227 0.0
H431 H 0.00652 0.13461 0.90468 0.0
H432 H 0.9736 0.10937 0.87526 0.0
H433 H 0.9799 0.16055 0.80685 0.0
H434 H 0.01263 0.18625 0.83609 0.0
H435 H 0.15497 0.15638 0.931 0.0
H436 H 0.11131 0.17551 0.93897 0.0
H437 H 0.10673 0.19074 0.84782 0.0
H438 H 0.15072 0.17066 0.8397 0.0
H439 H 0.06385 0.16724 0.86221 0.0
H440 H 0.10509 0.24035 0.90286 0.0
H441 H 0.13728 0.26706 0.9314 0.0
H442 H 0.10823 0.23827 0.0107 0.0
H443 H 0.07615 0.21108 0.98268 0.0
C444 C 0.94914 0.18926 0.9331 0.0
C445 C 0.9488 0.17423 0.95726 0.0
C446 C 0.9734 0.19497 0.91977 0.0
C447 C 0.99756 0.18615 0.93086 0.0
C448 C 0.99722 0.17144 0.95513 0.0
C449 C 0.97309 0.16531 0.96802 0.0
C450 C 0.02347 0.19102 0.91691 0.0
C451 C 0.04217 0.20629 0.93245 0.0
C452 C 0.03098 0.17818 0.89033 0.0
C453 C 0.01173 0.16248 0.87266 0.0
C454 C 0.00073 0.14056 0.88345 0.0
C455 C 0.98214 0.12616 0.8668 0.0
C456 C 0.9746 0.1334 0.83924 0.0
C457 C 0.98572 0.15499 0.82822 0.0
C458 C 0.00429 0.16947 0.84481 0.0
C459 C 0.14499 0.16449 0.91284 0.0
C460 C 0.15603 0.16202 0.88475 0.0
C461 C 0.12007 0.17564 0.91742 0.0
C462 C 0.1057 0.1849 0.89407 0.0
C463 C 0.11748 0.18387 0.8662 0.0
C464 C 0.14261 0.17258 0.86159 0.0
C465 C 0.07716 0.19195 0.89858 0.0
C466 C 0.05776 0.17887 0.88134 0.0
C467 C 0.06893 0.20724 0.92339 0.0
C468 C 0.08813 0.22365 0.94058 0.0
C469 C 0.10563 0.2396 0.92638 0.0
C470 C 0.12387 0.25485 0.94248 0.0
C471 C 0.12479 0.25437 0.97285 0.0
C472 C 0.10745 0.23866 0.98718 0.0
C473 C 0.08917 0.22338 0.97119 0.0
H474 H 0.13894 0.26618 0.98527 0.0
H475 H 0.96019 0.12224 0.82639 0.0
H476 H 0.29671 0.42754 0.54519 0.0
H477 H 0.2814 0.45801 0.51133 0.0
H478 H 0.34578 0.43616 0.4525 0.0
H479 H 0.36176 0.40616 0.48679 0.0
H480 H 0.34393 0.48473 0.45966 0.0
H481 H 0.27903 0.42099 0.43693 0.0
H482 H 0.24448 0.3895 0.44667 0.0
H483 H 0.19395 0.44808 0.48477 0.0
H484 H 0.22838 0.4799 0.47568 0.0
H485 H 0.30304 0.56403 0.35481 0.0
H486 H 0.30427 0.52214 0.37398 0.0
H487 H 0.25835 0.54983 0.44874 0.0
H488 H 0.25725 0.59192 0.4298 0.0
H489 H 0.24983 0.49549 0.42814 0.0
H490 H 0.31915 0.55742 0.45623 0.0
H491 H 0.35281 0.58871 0.44316 0.0
H492 H 0.39515 0.53123 0.3919 0.0
H493 H 0.3613 0.4997 0.40408 0.0
C494 C 0.30747 0.42903 0.52491 0.0
C495 C 0.33055 0.41458 0.51873 0.0
C496 C 0.29857 0.44635 0.50546 0.0
C497 C 0.31224 0.44917 0.47919 0.0
C498 C 0.33492 0.43429 0.47264 0.0
C499 C 0.34404 0.41719 0.49226 0.0
C500 C 0.30411 0.46902 0.45972 0.0
C501 C 0.32345 0.48667 0.45232 0.0
C502 C 0.27728 0.47189 0.45046 0.0
C503 C 0.25641 0.45283 0.45581 0.0
C504 C 0.26064 0.42715 0.44757 0.0
C505 C 0.24106 0.40923 0.45295 0.0
C506 C 0.21706 0.41678 0.46637 0.0
C507 C 0.21256 0.44226 0.47438 0.0
C508 C 0.2321 0.46026 0.46909 0.0
C509 C 0.29255 0.56098 0.37491 0.0
C510 C 0.28054 0.58124 0.39119 0.0
C511 C 0.29309 0.53704 0.38568 0.0
C512 C 0.2817 0.53312 0.41289 0.0
C513 C 0.26716 0.55258 0.42763 0.0
C514 C 0.26662 0.5766 0.41685 0.0
C515 C 0.28961 0.51086 0.42846 0.0
C516 C 0.27031 0.49304 0.43522 0.0
C517 C 0.31651 0.50762 0.43698 0.0
C518 C 0.33756 0.52627 0.43082 0.0
C519 C 0.33557 0.55148 0.44206 0.0
C520 C 0.35466 0.56927 0.4348 0.0
C521 C 0.37609 0.56199 0.41668 0.0
C522 C 0.37852 0.53686 0.4059 0.0
C523 C 0.35938 0.51902 0.41296 0.0
H524 H 0.39081 0.5758 0.41103 0.0
H525 H 0.20192 0.40288 0.47052 0.0
H526 H 0.03248 0.83183 0.0153 0.0
H527 H 0.00449 0.82593 0.97179 0.0
H528 H 0.07146 0.79383 0.92335 0.0
H529 H 0.09963 0.79921 0.96736 0.0
H530 H 0.04386 0.83579 0.898 0.0
H531 H 0.02531 0.75623 0.93608 0.0
H532 H 0.01268 0.72706 0.97336 0.0
H533 H 0.9354 0.76195 0.98155 0.0
H534 H 0.94784 0.79188 0.94504 0.0
H535 H 0.95625 0.82734 0.77635 0.0
H536 H 0.98867 0.8132 0.81179 0.0
H537 H 0.93152 0.8283 0.88102 0.0
H538 H 0.89874 0.84137 0.84566 0.0
H539 H 0.95902 0.78731 0.89082 0.0
H540 H 0.97953 0.87175 0.86468 0.0
H541 H 0.99063 0.90474 0.83122 0.0
H542 H 0.06174 0.86441 0.80433 0.0
H543 H 0.0509 0.831 0.83742 0.0
C544 C 0.04118 0.82325 0.99548 0.0
C545 C 0.06823 0.81607 0.9946 0.0
C546 C 0.02514 0.81977 0.97071 0.0
C547 C 0.03591 0.80936 0.94445 0.0
C548 C 0.06281 0.80179 0.94352 0.0
C549 C 0.07881 0.80479 0.96859 0.0
C550 C 0.01925 0.80833 0.91773 0.0
C551 C 0.02566 0.82468 0.89597 0.0
C552 C 0.99513 0.79439 0.9157 0.0
C553 C 0.98762 0.77647 0.93789 0.0
C554 C 0.00574 0.75792 0.94607 0.0
C555 C 0.9986 0.74122 0.96709 0.0
C556 C 0.97328 0.74269 0.97988 0.0
C557 C 0.95503 0.76084 0.97165 0.0
C558 C 0.96213 0.77772 0.95083 0.0
C559 C 0.95035 0.827 0.799 0.0
C560 C 0.92499 0.83573 0.80823 0.0
C561 C 0.969 0.81915 0.81928 0.0
C562 C 0.9627 0.82012 0.84915 0.0
C563 C 0.9369 0.82747 0.85813 0.0
C564 C 0.91824 0.83515 0.83791 0.0
C565 C 0.9833 0.81524 0.87143 0.0
C566 C 0.97757 0.79791 0.89242 0.0
C567 C 0.00776 0.82873 0.8732 0.0
C568 C 0.01422 0.84871 0.8532 0.0
C569 C 0.9974 0.8698 0.85144 0.0
C570 C 0.00367 0.88859 0.83258 0.0
C571 C 0.02681 0.88661 0.81557 0.0
C572 C 0.04378 0.86587 0.81745 0.0
C573 C 0.0376 0.84701 0.83625 0.0
H574 H 0.03163 0.90119 0.80099 0.0
H575 H 0.96778 0.72974 0.99613 0.0
H576 H 0.91038 0.08824 0.92573 0.0
H577 H 0.90973 0.05283 0.88902 0.0
H578 H 0.82353 0.05214 0.89129 0.0
H579 H 0.82393 0.08769 0.92785 0.0
H580 H 0.8916 0.00636 0.895 0.0
H581 H 0.79978 0.03103 0.82383 0.0
H582 H 0.77796 0.069 0.80653 0.0
H583 H 0.85202 0.10972 0.81538 0.0
H584 H 0.87437 0.07195 0.83218 0.0
H585 H 0.84811 0.89558 0.82538 0.0
H586 H 0.84183 0.93785 0.84879 0.0
H587 H 0.87946 0.97033 0.77551 0.0
H588 H 0.88556 0.92793 0.75182 0.0
H589 H 0.83906 0.00203 0.80296 0.0
H590 H 0.91806 0.95658 0.82659 0.0
H591 H 0.94214 0.91874 0.84075 0.0
H592 H 0.90088 0.92236 0.92284 0.0
H593 H 0.87599 0.95987 0.90882 0.0
C594 C 0.89124 0.08075 0.91824 0.0
C595 C 0.8672 0.09074 0.92993 0.0
C596 C 0.89093 0.06045 0.89728 0.0
C597 C 0.8666 0.04985 0.88735 0.0
C598 C 0.84255 0.06019 0.89837 0.0
C599 C 0.84283 0.08046 0.9194 0.0
C600 C 0.8664 0.02704 0.86681 0.0
C601 C 0.88017 0.00552 0.87486 0.0
C602 C 0.85188 0.02599 0.84023 0.0
C603 C 0.83867 0.04869 0.82956 0.0
C604 C 0.81144 0.04805 0.82193 0.0
C605 C 0.79897 0.06956 0.81222 0.0
C606 C 0.81357 0.0918 0.80993 0.0
C607 C 0.8407 0.09254 0.81723 0.0
C608 C 0.85326 0.07108 0.82688 0.0
C609 C 0.85419 0.91181 0.81384 0.0
C610 C 0.86756 0.90856 0.78698 0.0
C611 C 0.85061 0.93591 0.8272 0.0
C612 C 0.86064 0.95714 0.81411 0.0
C613 C 0.8716 0.95417 0.78596 0.0
C614 C 0.87505 0.92997 0.77245 0.0
C615 C 0.86356 0.98139 0.83174 0.0
C616 C 0.85045 0.00305 0.82312 0.0
C617 C 0.87925 0.98285 0.85749 0.0
C618 C 0.895 0.96093 0.86655 0.0
C619 C 0.91402 0.94924 0.84761 0.0
C620 C 0.92781 0.92784 0.85559 0.0
C621 C 0.92304 0.91814 0.88267 0.0
C622 C 0.90453 0.92989 0.90186 0.0
C623 C 0.89057 0.95122 0.8939 0.0
H624 H 0.9337 0.90153 0.88879 0.0
H625 H 0.80389 0.10844 0.80246 0.0
H626 H 0.37922 0.32096 0.47247 0.0
H627 H 0.40332 0.31968 0.4256 0.0
H628 H 0.47264 0.35233 0.46955 0.0
H629 H 0.44855 0.35458 0.51558 0.0
H630 H 0.46242 0.37655 0.42361 0.0
H631 H 0.46652 0.28864 0.44613 0.0
H632 H 0.44796 0.24693 0.45563 0.0
H633 H 0.41014 0.24235 0.37146 0.0
H634 H 0.42799 0.28433 0.36172 0.0
H635 H 0.56996 0.31483 0.3279 0.0
H636 H 0.53239 0.31 0.36084 0.0
H637 H 0.49037 0.36986 0.32092 0.0
H638 H 0.52826 0.37503 0.28799 0.0
H639 H 0.48004 0.29993 0.35894 0.0
H640 H 0.46025 0.40637 0.37492 0.0
H641 H 0.48305 0.44685 0.36811 0.0
H642 H 0.5592 0.41191 0.38102 0.0
H643 H 0.53682 0.37136 0.38832 0.0
C644 C 0.39971 0.32753 0.47199 0.0
C645 C 0.41201 0.338 0.49753 0.0
C646 C 0.41343 0.32679 0.4453 0.0
C647 C 0.43977 0.33596 0.44405 0.0
C648 C 0.45224 0.34544 0.46985 0.0
C649 C 0.43849 0.34661 0.4962 0.0
C650 C 0.45456 0.33671 0.41609 0.0
C651 C 0.46599 0.3598 0.40933 0.0
C652 C 0.45921 0.31492 0.39734 0.0
C653 C 0.44827 0.28981 0.40337 0.0
C654 C 0.45399 0.27889 0.42979 0.0
C655 C 0.44363 0.25517 0.43519 0.0
C656 C 0.42782 0.24203 0.4142 0.0
C657 C 0.42239 0.25255 0.38771 0.0
C658 C 0.43255 0.27634 0.38227 0.0
C659 C 0.55247 0.32658 0.32563 0.0
C660 C 0.55214 0.34546 0.30552 0.0
C661 C 0.53097 0.32376 0.34447 0.0
C662 C 0.50869 0.33974 0.34358 0.0
C663 C 0.50753 0.35755 0.32225 0.0
C664 C 0.52919 0.36054 0.30354 0.0
C665 C 0.48844 0.33956 0.36715 0.0
C666 C 0.47589 0.31672 0.37293 0.0
C667 C 0.48322 0.36142 0.38554 0.0
C668 C 0.49687 0.38581 0.38177 0.0
C669 C 0.48185 0.40738 0.37639 0.0
C670 C 0.4947 0.43032 0.37245 0.0
C671 C 0.52256 0.43192 0.37402 0.0
C672 C 0.53763 0.41062 0.3797 0.0
C673 C 0.52487 0.38767 0.38374 0.0
H674 H 0.53247 0.44968 0.37089 0.0
H675 H 0.41982 0.22367 0.41843 0.0
H676 H 0.11206 0.89818 0.98531 0.0
H677 H 0.12422 0.93346 0.95602 0.0
H678 H 0.199 0.94185 0.00254 0.0
H679 H 0.18719 0.90688 0.03176 0.0
H680 H 0.17097 0.98601 0.00176 0.0
H681 H 0.19881 0.91855 0.93358 0.0
H682 H 0.19286 0.87915 0.90279 0.0
H683 H 0.13048 0.91375 0.85497 0.0
H684 H 0.13581 0.95327 0.88576 0.0
H685 H 0.23212 0.07866 0.92069 0.0
H686 H 0.22445 0.03785 0.94137 0.0
H687 H 0.15039 0.02946 0.89344 0.0
H688 H 0.15814 0.07003 0.87241 0.0
H689 H 0.1778 0.98476 0.89392 0.0
H690 H 0.14962 0.05174 0.96205 0.0
H691 H 0.1538 0.09072 0.99392 0.0
H692 H 0.21538 0.05647 0.04324 0.0
H693 H 0.212 0.01746 0.01125 0.0
C694 C 0.13122 0.90736 0.98905 0.0
C695 C 0.14856 0.89979 0.01098 0.0
C696 C 0.13817 0.92743 0.97224 0.0
C697 C 0.16252 0.94018 0.97715 0.0
C698 C 0.18011 0.93224 0.99846 0.0
C699 C 0.1733 0.91218 0.01509 0.0
C700 C 0.16906 0.9629 0.96155 0.0
C701 C 0.173 0.98566 0.97822 0.0
C702 C 0.17069 0.9625 0.93079 0.0
C703 C 0.16753 0.93879 0.91218 0.0
C704 C 0.18367 0.91769 0.91667 0.0
C705 C 0.18044 0.89535 0.89918 0.0
C706 C 0.16125 0.89392 0.87699 0.0
C707 C 0.14531 0.91487 0.87219 0.0
C708 C 0.14844 0.93725 0.88963 0.0
C709 C 0.21449 0.06785 0.91414 0.0
C710 C 0.1956 0.07755 0.89516 0.0
C711 C 0.21004 0.04467 0.9261 0.0
C712 C 0.18667 0.03085 0.91921 0.0
C713 C 0.16849 0.03989 0.8991 0.0
C714 C 0.17286 0.0631 0.88727 0.0
C715 C 0.18034 0.00776 0.93425 0.0
C716 C 0.17615 0.98503 0.91749 0.0
C717 C 0.17842 0.00814 0.96502 0.0
C718 C 0.18084 0.03179 0.98395 0.0
C719 C 0.16432 0.05263 0.97943 0.0
C720 C 0.1665 0.07472 0.99757 0.0
C721 C 0.18493 0.07611 0.02051 0.0
C722 C 0.2012 0.0554 0.02538 0.0
C723 C 0.19918 0.03331 0.00723 0.0
H724 H 0.18653 0.0932 0.03458 0.0
H725 H 0.15878 0.87661 0.86347 0.0
H726 H 0.56326 0.61481 0.42536 0.0
H727 H 0.51944 0.61799 0.40228 0.0
H728 H 0.5121 0.69485 0.43797 0.0
H729 H 0.55575 0.69183 0.46133 0.0
H730 H 0.469 0.66574 0.45013 0.0
H731 H 0.5213 0.68228 0.36468 0.0
H732 H 0.55702 0.67241 0.32875 0.0
H733 H 0.5193 0.60158 0.3038 0.0
H734 H 0.48347 0.61094 0.33975 0.0
H735 H 0.34277 0.68348 0.39314 0.0
H736 H 0.39056 0.69115 0.39927 0.0
H737 H 0.40755 0.61893 0.35466 0.0
H738 H 0.35996 0.6121 0.34617 0.0
H739 H 0.44686 0.64856 0.34537 0.0
H740 H 0.39945 0.62653 0.43076 0.0
H741 H 0.36479 0.63052 0.46896 0.0
H742 H 0.39428 0.70415 0.4968 0.0
H743 H 0.42892 0.70074 0.45851 0.0
C744 C 0.55247 0.6325 0.42807 0.0
C745 C 0.56291 0.65299 0.44547 0.0
C746 C 0.52748 0.63432 0.41469 0.0
C747 C 0.51257 0.6567 0.41833 0.0
C748 C 0.52331 0.67742 0.4349 0.0
C749 C 0.54828 0.67565 0.44822 0.0
C750 C 0.48488 0.65785 0.40696 0.0
C751 C 0.46419 0.66255 0.42713 0.0
C752 C 0.4786 0.65261 0.37714 0.0
C753 C 0.49974 0.6473 0.35496 0.0
C754 C 0.52066 0.66458 0.35157 0.0
C755 C 0.54092 0.65908 0.33119 0.0
C756 C 0.54041 0.63639 0.31399 0.0
C757 C 0.51961 0.61919 0.31707 0.0
C758 C 0.49929 0.62461 0.3374 0.0
C759 C 0.35662 0.66965 0.38358 0.0
C760 C 0.34739 0.64683 0.36984 0.0
C761 C 0.38402 0.67392 0.38747 0.0
C762 C 0.40264 0.65518 0.37844 0.0
C763 C 0.39362 0.63352 0.36225 0.0
C764 C 0.3663 0.62951 0.35773 0.0
C765 C 0.4309 0.65675 0.38855 0.0
C766 C 0.45168 0.65228 0.36828 0.0
C767 C 0.43733 0.66145 0.41849 0.0
C768 C 0.41657 0.66351 0.44157 0.0
C769 C 0.39842 0.64364 0.4449 0.0
C770 C 0.3788 0.64578 0.46657 0.0
C771 C 0.37729 0.6676 0.48522 0.0
C772 C 0.39545 0.68729 0.48229 0.0
C773 C 0.41508 0.68527 0.46062 0.0
H774 H 0.36208 0.66921 0.50199 0.0
H775 H 0.55612 0.63212 0.29827 0.0
H776 H 0.33559 0.40125 0.67281 0.0
H777 H 0.33585 0.4373 0.70934 0.0
H778 H 0.36595 0.48526 0.64434 0.0
H779 H 0.36668 0.4496 0.60862 0.0
H780 H 0.39327 0.49381 0.69051 0.0
H781 H 0.29885 0.48573 0.66949 0.0
H782 H 0.25537 0.46377 0.6662 0.0
H783 H 0.25784 0.45345 0.75815 0.0
H784 H 0.30153 0.47509 0.76191 0.0
H785 H 0.36751 0.61674 0.73145 0.0
H786 H 0.35273 0.57554 0.7107 0.0
H787 H 0.36013 0.54498 0.79508 0.0
H788 H 0.37498 0.5865 0.81608 0.0
H789 H 0.31451 0.52423 0.74827 0.0
H790 H 0.41082 0.53714 0.76614 0.0
H791 H 0.45023 0.56507 0.76521 0.0
H792 H 0.4407 0.57007 0.67283 0.0
H793 H 0.40083 0.54266 0.67336 0.0
C794 C 0.34215 0.41956 0.66645 0.0
C795 C 0.35134 0.42254 0.63794 0.0
C796 C 0.34223 0.44015 0.68727 0.0
C797 C 0.35096 0.46408 0.67965 0.0
C798 C 0.35945 0.46701 0.65096 0.0
C799 C 0.35981 0.44653 0.63048 0.0
C800 C 0.35212 0.48627 0.70118 0.0
C801 C 0.376 0.50026 0.70316 0.0
C802 C 0.3298 0.49473 0.71814 0.0
C803 C 0.30359 0.48172 0.71591 0.0
C804 C 0.29022 0.47858 0.68896 0.0
C805 C 0.26552 0.46624 0.68702 0.0
C806 C 0.2539 0.45714 0.71193 0.0
C807 C 0.26691 0.46045 0.73886 0.0
C808 C 0.29162 0.47276 0.74091 0.0
C809 C 0.36494 0.60149 0.7458 0.0
C810 C 0.37257 0.6046 0.77524 0.0
C811 C 0.3564 0.57803 0.73398 0.0
C812 C 0.35555 0.55727 0.75135 0.0
C813 C 0.36049 0.56088 0.78143 0.0
C814 C 0.369 0.58453 0.79337 0.0
C815 C 0.35531 0.53161 0.73677 0.0
C816 C 0.33183 0.51716 0.73613 0.0
C817 C 0.37779 0.52286 0.72048 0.0
C818 C 0.40277 0.53795 0.71983 0.0
C819 C 0.4171 0.54425 0.74565 0.0
C820 C 0.43948 0.56002 0.7452 0.0
C821 C 0.44793 0.56938 0.71898 0.0
C822 C 0.43411 0.56283 0.69313 0.0
C823 C 0.41163 0.54716 0.69349 0.0
H824 H 0.46518 0.58168 0.71869 0.0
H825 H 0.23477 0.44759 0.71038 0.0
H826 H 0.04299 0.78558 0.09611 0.0
H827 H 0.99903 0.78152 0.11849 0.0
H828 H 0.00494 0.85777 0.15637 0.0
H829 H 0.04896 0.86207 0.13413 0.0
H830 H 0.97983 0.82326 0.19354 0.0
H831 H 0.97484 0.84955 0.09362 0.0
H832 H 0.98579 0.84382 0.04123 0.0
H833 H 0.94768 0.77115 0.03654 0.0
H834 H 0.93673 0.77639 0.08894 0.0
H835 H 0.8512 0.87558 0.20462 0.0
H836 H 0.89743 0.86211 0.19833 0.0
H837 H 0.8712 0.79435 0.14953 0.0
H838 H 0.82474 0.80849 0.15454 0.0
H839 H 0.90706 0.81613 0.11989 0.0
H840 H 0.90398 0.79328 0.21778 0.0
H841 H 0.8943 0.79766 0.27048 0.0
H842 H 0.94776 0.86095 0.28047 0.0
H843 H 0.95749 0.85721 0.22774 0.0
C844 C 0.03521 0.80136 0.10964 0.0
C845 C 0.04934 0.82431 0.11295 0.0
C846 C 0.01008 0.79896 0.12243 0.0
C847 C 0.99866 0.81943 0.13881 0.0
C848 C 0.01344 0.84176 0.14381 0.0
C849 C 0.03852 0.84423 0.13091 0.0
C850 C 0.97026 0.81871 0.14785 0.0
C851 C 0.96382 0.82175 0.17757 0.0
C852 C 0.94951 0.81596 0.12694 0.0
C853 C 0.95518 0.81326 0.0952 0.0
C854 C 0.96886 0.83233 0.08139 0.0
C855 C 0.97508 0.82917 0.0517 0.0
C856 C 0.96752 0.80711 0.03555 0.0
C857 C 0.95355 0.78823 0.04903 0.0
C858 C 0.9473 0.7913 0.07871 0.0
C859 C 0.85522 0.8576 0.19294 0.0
C860 C 0.83431 0.84327 0.17976 0.0
C861 C 0.88172 0.84975 0.18963 0.0
C862 C 0.88794 0.82711 0.17354 0.0
C863 C 0.86695 0.8119 0.16202 0.0
C864 C 0.84036 0.81988 0.16514 0.0
C865 C 0.91625 0.82116 0.16585 0.0
C866 C 0.92282 0.81702 0.13618 0.0
C867 C 0.93705 0.82271 0.18692 0.0
C868 C 0.93135 0.82503 0.21872 0.0
C869 C 0.91354 0.80825 0.23116 0.0
C870 C 0.90807 0.8106 0.26106 0.0
C871 C 0.92038 0.82959 0.2788 0.0
C872 C 0.93824 0.84624 0.26669 0.0
C873 C 0.94378 0.84398 0.2368 0.0
H874 H 0.91611 0.83138 0.30194 0.0
H875 H 0.97246 0.80467 0.01261 0.0
H876 H 0.64405 0.5897 0.57128 0.0
H877 H 0.65942 0.55565 0.60058 0.0
H878 H 0.72472 0.54044 0.54079 0.0
H879 H 0.70964 0.57454 0.5114 0.0
H880 H 0.69207 0.49866 0.54977 0.0
H881 H 0.7387 0.56388 0.60671 0.0
H882 H 0.74307 0.60447 0.63561 0.0
H883 H 0.68638 0.57966 0.6978 0.0
H884 H 0.68132 0.53907 0.66905 0.0
H885 H 0.73944 0.39668 0.62381 0.0
H886 H 0.73977 0.43764 0.60262 0.0
H887 H 0.68151 0.46557 0.66593 0.0
H888 H 0.68235 0.42522 0.68848 0.0
H889 H 0.71512 0.50212 0.65508 0.0
H890 H 0.66231 0.44201 0.59779 0.0
H891 H 0.65287 0.40189 0.56955 0.0
H892 H 0.71495 0.41774 0.50886 0.0
H893 H 0.72492 0.45788 0.53692 0.0
C894 C 0.6619 0.57935 0.56458 0.0
C895 C 0.67547 0.58462 0.53886 0.0
C896 C 0.67075 0.56003 0.58145 0.0
C897 C 0.69321 0.54564 0.57282 0.0
C898 C 0.70737 0.55144 0.54778 0.0
C899 C 0.69872 0.57092 0.53106 0.0
C900 C 0.70017 0.52291 0.58817 0.0
C901 C 0.69773 0.49941 0.57264 0.0
C902 C 0.70647 0.52402 0.61825 0.0
C903 C 0.70951 0.54845 0.63559 0.0
C904 C 0.72699 0.56714 0.62641 0.0
C905 C 0.72962 0.59015 0.64279 0.0
C906 C 0.71501 0.59463 0.66851 0.0
C907 C 0.6977 0.57615 0.67788 0.0
C908 C 0.69497 0.55313 0.66157 0.0
C909 C 0.72725 0.41171 0.63378 0.0
C910 C 0.7106 0.4075 0.65765 0.0
C911 C 0.72725 0.43506 0.62143 0.0
C912 C 0.71024 0.45448 0.63231 0.0
C913 C 0.69469 0.45081 0.65706 0.0
C914 C 0.69494 0.4276 0.66969 0.0
C915 C 0.70708 0.47785 0.61663 0.0
C916 C 0.70997 0.5014 0.63209 0.0
C917 C 0.70051 0.47689 0.58658 0.0
C918 C 0.69457 0.45279 0.56964 0.0
C919 C 0.67408 0.43684 0.57855 0.0
C920 C 0.66861 0.41412 0.56257 0.0
C921 C 0.68338 0.40722 0.5375 0.0
C922 C 0.70358 0.42308 0.52832 0.0
C923 C 0.70913 0.44583 0.54423 0.0
H924 H 0.67912 0.38962 0.52515 0.0
H925 H 0.71719 0.61237 0.68126 0.0
H926 H 0.92428 0.12962 0.08307 0.0
H927 H 0.95427 0.13531 0.12482 0.0
H928 H 0.95843 0.21517 0.11316 0.0
H929 H 0.92839 0.20968 0.07094 0.0
H930 H 0.0059 0.15301 0.12069 0.0
H931 H 0.96866 0.24371 0.18518 0.0
H932 H 0.92614 0.2661 0.19548 0.0
H933 H 0.88302 0.19629 0.18266 0.0
H934 H 0.92527 0.17344 0.17277 0.0
H935 H 0.10797 0.20044 0.21144 0.0
H936 H 0.06705 0.2078 0.18392 0.0
H937 H 0.02341 0.1589 0.23825 0.0
H938 H 0.06446 0.15106 0.26552 0.0
H939 H 0.99397 0.20693 0.2122 0.0
H940 H 0.03977 0.12563 0.18997 0.0
H941 H 0.08027 0.09992 0.18055 0.0
H942 H 0.10219 0.14619 0.11099 0.0
H943 H 0.06172 0.17219 0.12011 0.0
C944 C 0.93128 0.14849 0.08946 0.0
C945 C 0.92415 0.16917 0.07339 0.0
C946 C 0.94844 0.15168 0.11337 0.0
C947 C 0.95859 0.17563 0.12202 0.0
C948 C 0.95067 0.19654 0.1069 0.0
C949 C 0.93361 0.19334 0.08272 0.0
C950 C 0.9792 0.17814 0.14525 0.0
C951 C 0.00318 0.16484 0.14063 0.0
C952 C 0.97564 0.19343 0.17139 0.0
C953 C 0.95015 0.20693 0.17788 0.0
C954 C 0.95012 0.23313 0.18467 0.0
C955 C 0.92606 0.2459 0.19044 0.0
C956 C 0.90189 0.23264 0.18961 0.0
C957 C 0.90174 0.20656 0.18316 0.0
C958 C 0.92574 0.1937 0.17743 0.0
C959 C 0.0894 0.19222 0.2184 0.0
C960 C 0.08932 0.17518 0.24056 0.0
C961 C 0.06605 0.19641 0.20264 0.0
C962 C 0.04227 0.1839 0.20911 0.0
C963 C 0.04151 0.16893 0.23317 0.0
C964 C 0.06495 0.16442 0.24866 0.0
C965 C 0.02048 0.18196 0.18726 0.0
C966 C 0.99651 0.19531 0.19209 0.0
C967 C 0.02365 0.16637 0.1614 0.0
C968 C 0.04797 0.15094 0.15589 0.0
C969 C 0.05336 0.13041 0.17282 0.0
C970 C 0.07625 0.11576 0.16749 0.0
C971 C 0.09387 0.12148 0.14525 0.0
C972 C 0.08856 0.14181 0.12824 0.0
C973 C 0.06562 0.15647 0.13343 0.0
H974 H 0.11159 0.11011 0.14115 0.0
H975 H 0.88328 0.24256 0.19403 0.0
H976 H 0.20172 0.81421 0.13333 0.0
H977 H 0.22029 0.79519 0.17584 0.0
H978 H 0.14662 0.75456 0.1866 0.0
H979 H 0.12787 0.77328 0.14374 0.0
H980 H 0.20549 0.79717 0.23213 0.0
H981 H 0.1619 0.69678 0.2106 0.0
H982 H 0.14758 0.6682 0.16899 0.0
H983 H 0.20134 0.70504 0.11254 0.0
H984 H 0.21624 0.7336 0.15388 0.0
H985 H 0.21256 0.72382 0.35691 0.0
H986 H 0.1996 0.74694 0.31448 0.0
H987 H 0.25783 0.70483 0.26187 0.0
H988 H 0.27053 0.68157 0.30433 0.0
H989 H 0.21001 0.70406 0.23591 0.0
H990 H 0.26777 0.76684 0.28105 0.0
H991 H 0.2853 0.79547 0.321 0.0
H992 H 0.20977 0.83383 0.32731 0.0
H993 H 0.19165 0.80519 0.28766 0.0
C994 C 0.18941 0.8012 0.14465 0.0
C995 C 0.16336 0.79509 0.13496 0.0
C996 C 0.20005 0.79045 0.16905 0.0
C997 C 0.18493 0.77333 0.18419 0.0
C998 C 0.15875 0.7675 0.17494 0.0
C999 C 0.14806 0.77824 0.15049 0.0
C1000 C 0.19678 0.76133 0.2094 0.0
C1001 C 0.20646 0.77682 0.23301 0.0
C1002 C 0.19851 0.73479 0.21023 0.0
C1003 C 0.18997 0.71748 0.18529 0.0
C1004 C 0.17073 0.69871 0.18933 0.0
C1005 C 0.1625 0.68253 0.16579 0.0
C1006 C 0.17348 0.68486 0.13812 0.0
C1007 C 0.19278 0.70332 0.13396 0.0
C1008 C 0.2011 0.71953 0.15743 0.0
C1009 C 0.22286 0.71996 0.33636 0.0
C1010 C 0.24256 0.70125 0.33357 0.0
C1011 C 0.21551 0.73312 0.31221 0.0
C1012 C 0.22785 0.72767 0.28507 0.0
C1013 C 0.24808 0.70931 0.28262 0.0
C1014 C 0.25542 0.69618 0.30678 0.0
C1015 C 0.21843 0.73989 0.25886 0.0
C1016 C 0.20909 0.72442 0.23506 0.0
C1017 C 0.21746 0.76644 0.25769 0.0
C1018 C 0.22829 0.78371 0.28155 0.0
C1019 C 0.25483 0.78124 0.29112 0.0
C1020 C 0.26488 0.7975 0.31368 0.0
C1021 C 0.24864 0.81642 0.32673 0.0
C1022 C 0.22232 0.81915 0.3172 0.0
C1023 C 0.21216 0.80292 0.29466 0.0
H1024 H 0.25647 0.82899 0.34419 0.0
H1025 H 0.16706 0.67232 0.11992 0.0
H1026 H 0.72611 0.66262 0.54707 0.0
H1027 H 0.7556 0.68792 0.5799 0.0
H1028 H 0.70913 0.75439 0.56541 0.0
H1029 H 0.67968 0.72936 0.53242 0.0
H1030 H 0.76266 0.76347 0.5623 0.0
H1031 H 0.70217 0.72586 0.62758 0.0
H1032 H 0.67793 0.68988 0.64626 0.0
H1033 H 0.75232 0.65621 0.66974 0.0
H1034 H 0.77709 0.69183 0.65058 0.0
H1035 H 0.81888 0.84392 0.67458 0.0
H1036 H 0.78585 0.81831 0.64623 0.0
H1037 H 0.83074 0.751 0.6616 0.0
H1038 H 0.86351 0.77665 0.69028 0.0
H1039 H 0.77725 0.74234 0.66486 0.0
H1040 H 0.83767 0.7792 0.59819 0.0
H1041 H 0.86204 0.81382 0.57659 0.0
H1042 H 0.78761 0.8482 0.55461 0.0
H1043 H 0.7628 0.81393 0.57644 0.0
C1044 C 0.72215 0.68262 0.55083 0.0
C1045 C 0.70049 0.69393 0.53708 0.0
C1046 C 0.73898 0.69704 0.5697 0.0
C1047 C 0.73444 0.72302 0.57526 0.0
C1048 C 0.713 0.73439 0.56141 0.0
C1049 C 0.69612 0.72 0.54263 0.0
C1050 C 0.75209 0.73839 0.59547 0.0
C1051 C 0.76554 0.75908 0.58485 0.0
C1052 C 0.75628 0.73232 0.6247 0.0
C1053 C 0.74149 0.71141 0.63742 0.0
C1054 C 0.71338 0.71075 0.63664 0.0
C1055 C 0.69954 0.69041 0.64731 0.0
C1056 C 0.71358 0.67075 0.65917 0.0
C1057 C 0.74149 0.67146 0.66053 0.0
C1058 C 0.75544 0.69173 0.64978 0.0
C1059 C 0.82136 0.82361 0.67218 0.0
C1060 C 0.84352 0.81209 0.68443 0.0
C1061 C 0.80263 0.80902 0.65593 0.0
C1062 C 0.80601 0.78275 0.65146 0.0
C1063 C 0.82772 0.7712 0.66474 0.0
C1064 C 0.84641 0.78581 0.68103 0.0
C1065 C 0.78777 0.76753 0.63169 0.0
C1066 C 0.77426 0.74681 0.64237 0.0
C1067 C 0.78352 0.77355 0.60243 0.0
C1068 C 0.79839 0.79415 0.58923 0.0
C1069 C 0.82651 0.79425 0.58895 0.0
C1070 C 0.8404 0.81379 0.57664 0.0
C1071 C 0.82638 0.83324 0.56431 0.0
C1072 C 0.79844 0.83315 0.56421 0.0
C1073 C 0.78445 0.81366 0.57653 0.0
H1074 H 0.83717 0.84835 0.55478 0.0
H1075 H 0.70281 0.65499 0.66732 0.0
H1076 H 0.84543 0.22099 0.07538 0.0
H1077 H 0.81584 0.2453 0.10869 0.0
H1078 H 0.7472 0.21531 0.06124 0.0
H1079 H 0.77671 0.19096 0.0275 0.0
H1080 H 0.7439 0.26705 0.07429 0.0
H1081 H 0.76326 0.1922 0.12494 0.0
H1082 H 0.79362 0.16092 0.14474 0.0
H1083 H 0.83043 0.21925 0.20025 0.0
H1084 H 0.80045 0.25095 0.18052 0.0
H1085 H 0.64058 0.29313 0.17677 0.0
H1086 H 0.67324 0.27597 0.1412 0.0
H1087 H 0.73749 0.30194 0.19849 0.0
H1088 H 0.7045 0.31856 0.23449 0.0
H1089 H 0.74541 0.25462 0.18046 0.0
H1090 H 0.72454 0.32926 0.13276 0.0
H1091 H 0.69581 0.36129 0.11193 0.0
H1092 H 0.66352 0.30497 0.05037 0.0
H1093 H 0.69179 0.2725 0.07109 0.0
C1094 C 0.82404 0.21952 0.07194 0.0
C1095 C 0.81344 0.20397 0.04874 0.0
C1096 C 0.80716 0.23341 0.09109 0.0
C1097 C 0.77934 0.23197 0.08755 0.0
C1098 C 0.76864 0.21667 0.06432 0.0
C1099 C 0.78553 0.20268 0.04516 0.0
C1100 C 0.76143 0.24633 0.10827 0.0
C1101 C 0.74395 0.26417 0.09747 0.0
C1102 C 0.76222 0.2431 0.1386 0.0
C1103 C 0.77975 0.22397 0.1511 0.0
C1104 C 0.77789 0.19837 0.1413 0.0
C1105 C 0.79501 0.18056 0.15253 0.0
C1106 C 0.81395 0.18809 0.17373 0.0
C1107 C 0.81573 0.21344 0.18384 0.0
C1108 C 0.79865 0.23133 0.17268 0.0
C1109 C 0.66171 0.29568 0.18135 0.0
C1110 C 0.67023 0.30736 0.20795 0.0
C1111 C 0.68037 0.28592 0.16105 0.0
C1112 C 0.7079 0.28788 0.16697 0.0
C1113 C 0.71638 0.30027 0.19339 0.0
C1114 C 0.69763 0.30993 0.2138 0.0
C1115 C 0.72753 0.27532 0.14653 0.0
C1116 C 0.74539 0.25774 0.15735 0.0
C1117 C 0.72719 0.27892 0.11622 0.0
C1118 C 0.71015 0.2984 0.10365 0.0
C1119 C 0.71117 0.32365 0.11493 0.0
C1120 C 0.69499 0.3419 0.10311 0.0
C1121 C 0.67781 0.33516 0.07988 0.0
C1122 C 0.67682 0.31016 0.06838 0.0
C1123 C 0.69295 0.29183 0.08013 0.0
H1124 H 0.66531 0.34931 0.07077 0.0
H1125 H 0.82723 0.17428 0.18235 0.0
H1126 H 0.36978 0.3038 0.65926 0.0
H1127 H 0.3562 0.2813 0.70159 0.0
H1128 H 0.27328 0.29119 0.67878 0.0
H1129 H 0.28676 0.31467 0.63712 0.0
H1130 H 0.27853 0.2968 0.73543 0.0
H1131 H 0.30845 0.23459 0.66132 0.0
H1132 H 0.34045 0.2154 0.62559 0.0
H1133 H 0.39768 0.2067 0.69401 0.0
H1134 H 0.36609 0.22607 0.73011 0.0
H1135 H 0.22323 0.19215 0.8065 0.0
H1136 H 0.23773 0.22373 0.77292 0.0
H1137 H 0.31889 0.217 0.80362 0.0
H1138 H 0.30436 0.18537 0.83693 0.0
H1139 H 0.31574 0.21112 0.74509 0.0
H1140 H 0.28348 0.27041 0.8199 0.0
H1141 H 0.25076 0.2892 0.85504 0.0
H1142 H 0.19687 0.30268 0.78488 0.0
H1143 H 0.22911 0.28364 0.74931 0.0
C1144 C 0.34866 0.30124 0.66334 0.0
C1145 C 0.32933 0.31073 0.6447 0.0
C1146 C 0.34091 0.28833 0.6875 0.0
C1147 C 0.31371 0.28406 0.69303 0.0
C1148 C 0.29438 0.29418 0.67492 0.0
C1149 C 0.3021 0.30752 0.65106 0.0
C1150 C 0.30541 0.26833 0.71704 0.0
C1151 C 0.28645 0.27796 0.73738 0.0
C1152 C 0.31614 0.24393 0.71997 0.0
C1153 C 0.335 0.23196 0.69836 0.0
C1154 C 0.32791 0.22868 0.66871 0.0
C1155 C 0.34596 0.21776 0.6484 0.0
C1156 C 0.3711 0.20988 0.65751 0.0
C1157 C 0.3782 0.21282 0.68698 0.0
C1158 C 0.36022 0.22374 0.70738 0.0
C1159 C 0.24403 0.19789 0.80635 0.0
C1160 C 0.26278 0.18666 0.82411 0.0
C1161 C 0.25229 0.2159 0.7873 0.0
C1162 C 0.27938 0.22279 0.78589 0.0
C1163 C 0.29791 0.21198 0.8044 0.0
C1164 C 0.28963 0.19405 0.82343 0.0
C1165 C 0.28881 0.23955 0.76343 0.0
C1166 C 0.30794 0.23003 0.74329 0.0
C1167 C 0.27807 0.26392 0.76062 0.0
C1168 C 0.25862 0.27537 0.78196 0.0
C1169 C 0.26455 0.27718 0.81197 0.0
C1170 C 0.24611 0.28792 0.83197 0.0
C1171 C 0.22172 0.29707 0.82221 0.0
C1172 C 0.21575 0.29555 0.79241 0.0
C1173 C 0.23412 0.28482 0.77232 0.0
H1174 H 0.20747 0.30538 0.83772 0.0
H1175 H 0.38506 0.20146 0.64175 0.0
H1176 H 0.63031 0.70724 0.40955 0.0
H1177 H 0.64287 0.7285 0.36588 0.0
H1178 H 0.72372 0.7014 0.3733 0.0
H1179 H 0.71148 0.68026 0.41704 0.0
H1180 H 0.72222 0.75119 0.36271 0.0
H1181 H 0.68294 0.67417 0.32278 0.0
H1182 H 0.64783 0.64158 0.31732 0.0
H1183 H 0.59253 0.69636 0.28791 0.0
H1184 H 0.62724 0.72941 0.29357 0.0
H1185 H 0.7653 0.78797 0.22456 0.0
H1186 H 0.75432 0.76117 0.26463 0.0
H1187 H 0.67158 0.78367 0.25953 0.0
H1188 H 0.68255 0.80999 0.21922 0.0
H1189 H 0.67529 0.73428 0.26817 0.0
H1190 H 0.71352 0.81156 0.31057 0.0
H1191 H 0.74803 0.84463 0.31729 0.0
H1192 H 0.80478 0.78956 0.34301 0.0
H1193 H 0.77067 0.75608 0.33606 0.0
C1194 C 0.65078 0.70582 0.40193 0.0
C1195 C 0.66989 0.69206 0.41683 0.0
C1196 C 0.65788 0.71787 0.37689 0.0
C1197 C 0.68417 0.71632 0.36623 0.0
C1198 C 0.70332 0.7028 0.38116 0.0
C1199 C 0.69624 0.69068 0.40613 0.0
C1200 C 0.69182 0.72908 0.33971 0.0
C1201 C 0.71226 0.74721 0.34191 0.0
C1202 C 0.67843 0.72421 0.31277 0.0
C1203 C 0.65764 0.70431 0.30882 0.0
C1204 C 0.66325 0.67931 0.31531 0.0
C1205 C 0.64343 0.66075 0.31216 0.0
C1206 C 0.61796 0.66691 0.30232 0.0
C1207 C 0.61228 0.69163 0.29553 0.0
C1208 C 0.63203 0.71028 0.29867 0.0
C1209 C 0.74478 0.78685 0.2319 0.0
C1210 C 0.72469 0.80085 0.21914 0.0
C1211 C 0.73852 0.7717 0.25478 0.0
C1212 C 0.71216 0.77066 0.2653 0.0
C1213 C 0.69201 0.78415 0.25177 0.0
C1214 C 0.69827 0.7992 0.22888 0.0
C1215 C 0.70566 0.75647 0.29119 0.0
C1216 C 0.6854 0.73812 0.2889 0.0
C1217 C 0.71916 0.76116 0.31812 0.0
C1218 C 0.73964 0.78128 0.32249 0.0
C1219 C 0.73341 0.80648 0.31746 0.0
C1220 C 0.75289 0.82529 0.32133 0.0
C1221 C 0.77861 0.81919 0.33049 0.0
C1222 C 0.78487 0.79425 0.33587 0.0
C1223 C 0.76547 0.77535 0.33198 0.0
H1224 H 0.79366 0.83378 0.33347 0.0
H1225 H 0.60266 0.65251 0.2999 0.0
H1226 H 0.8173 0.16465 0.90516 0.0
H1227 H 0.80185 0.18557 0.86254 0.0
H1228 H 0.83579 0.25584 0.89767 0.0
H1229 H 0.85106 0.23512 0.9408 0.0
H1230 H 0.78564 0.26211 0.87707 0.0
H1231 H 0.86651 0.22157 0.8424 0.0
H1232 H 0.89738 0.18574 0.83313 0.0
H1233 H 0.83826 0.14685 0.77928 0.0
H1234 H 0.80688 0.18231 0.78856 0.0
H1235 H 0.78155 0.33045 0.75019 0.0
H1236 H 0.79577 0.30815 0.79266 0.0
H1237 H 0.76102 0.23923 0.75442 0.0
H1238 H 0.7471 0.26165 0.7116 0.0
H1239 H 0.81045 0.23131 0.77639 0.0
H1240 H 0.72989 0.27186 0.81011 0.0
H1241 H 0.69871 0.30742 0.8194 0.0
H1242 H 0.75668 0.34586 0.87519 0.0
H1243 H 0.78839 0.31067 0.8659 0.0
C1244 C 0.82154 0.18456 0.9039 0.0
C1245 C 0.83541 0.19823 0.92645 0.0
C1246 C 0.81279 0.19645 0.87941 0.0
C1247 C 0.81792 0.22218 0.87682 0.0
C1248 C 0.83167 0.23594 0.89928 0.0
C1249 C 0.84042 0.22406 0.92385 0.0
C1250 C 0.80851 0.23481 0.85086 0.0
C1251 C 0.79136 0.25562 0.85507 0.0
C1252 C 0.81535 0.22579 0.82216 0.0
C1253 C 0.83426 0.20451 0.81638 0.0
C1254 C 0.86002 0.2053 0.82875 0.0
C1255 C 0.87762 0.18507 0.82347 0.0
C1256 C 0.86977 0.16402 0.80567 0.0
C1257 C 0.84431 0.16317 0.79307 0.0
C1258 C 0.82662 0.18334 0.79831 0.0
C1259 C 0.7769 0.31056 0.75104 0.0
C1260 C 0.76324 0.29761 0.72805 0.0
C1261 C 0.78492 0.29788 0.77525 0.0
C1262 C 0.77917 0.2721 0.77684 0.0
C1263 C 0.76558 0.25913 0.75363 0.0
C1264 C 0.75758 0.27187 0.72934 0.0
C1265 C 0.78775 0.25875 0.80262 0.0
C1266 C 0.8047 0.23778 0.79839 0.0
C1267 C 0.78068 0.26758 0.83132 0.0
C1268 C 0.7616 0.28872 0.8371 0.0
C1269 C 0.73607 0.28798 0.82418 0.0
C1270 C 0.71829 0.30806 0.82948 0.0
C1271 C 0.72573 0.32891 0.84782 0.0
C1272 C 0.75096 0.3297 0.86097 0.0
C1273 C 0.76883 0.30968 0.85571 0.0
H1274 H 0.71193 0.34444 0.85189 0.0
H1275 H 0.88343 0.14839 0.8016 0.0
H1276 H 0.32304 0.27449 0.52295 0.0
H1277 H 0.29759 0.25282 0.48347 0.0
H1278 H 0.25058 0.31992 0.47424 0.0
H1279 H 0.27584 0.34182 0.51396 0.0
H1280 H 0.21978 0.27619 0.4695 0.0
H1281 H 0.29967 0.30798 0.42785 0.0
H1282 H 0.34831 0.315 0.42527 0.0
H1283 H 0.36136 0.23505 0.41362 0.0
H1284 H 0.31273 0.22751 0.41645 0.0
H1285 H 0.17306 0.24176 0.32406 0.0
H1286 H 0.19211 0.26307 0.36851 0.0
H1287 H 0.24341 0.1989 0.37905 0.0
H1288 H 0.22448 0.17781 0.33458 0.0
H1289 H 0.27122 0.24238 0.38329 0.0
H1290 H 0.19022 0.21105 0.42416 0.0
H1291 H 0.14152 0.20489 0.42804 0.0
H1292 H 0.13028 0.28501 0.44102 0.0
H1293 H 0.17891 0.29168 0.43681 0.0
C1294 C 0.30713 0.28463 0.51278 0.0
C1295 C 0.30161 0.30997 0.52158 0.0
C1296 C 0.29263 0.27221 0.49014 0.0
C1297 C 0.27239 0.28485 0.4757 0.0
C1298 C 0.26613 0.30983 0.48508 0.0
C1299 C 0.28066 0.32232 0.50774 0.0
C1300 C 0.25877 0.27231 0.44993 0.0
C1301 C 0.23093 0.26907 0.45047 0.0
C1302 C 0.2734 0.26275 0.42528 0.0
C1303 C 0.30258 0.26717 0.42265 0.0
C1304 C 0.31291 0.29188 0.42487 0.0
C1305 C 0.34047 0.29595 0.42336 0.0
C1306 C 0.3579 0.27547 0.41945 0.0
C1307 C 0.34781 0.25088 0.41673 0.0
C1308 C 0.32024 0.2467 0.41824 0.0
C1309 C 0.18809 0.23216 0.33626 0.0
C1310 C 0.19729 0.20821 0.32632 0.0
C1311 C 0.19894 0.24427 0.36159 0.0
C1312 C 0.21912 0.23253 0.37722 0.0
C1313 C 0.22789 0.20832 0.36738 0.0
C1314 C 0.21701 0.19624 0.34214 0.0
C1315 C 0.23215 0.24591 0.40291 0.0
C1316 C 0.25997 0.24944 0.40229 0.0
C1317 C 0.21743 0.25584 0.42735 0.0
C1318 C 0.18819 0.25188 0.42986 0.0
C1319 C 0.17735 0.22737 0.42758 0.0
C1320 C 0.14976 0.22378 0.4299 0.0
C1321 C 0.13281 0.24455 0.43469 0.0
C1322 C 0.14343 0.26895 0.43726 0.0
C1323 C 0.17101 0.27264 0.43494 0.0
H1324 H 0.11146 0.24173 0.43648 0.0
H1325 H 0.37921 0.27868 0.41852 0.0
H1326 H 0.20855 0.82429 0.00368 0.0
H1327 H 0.23957 0.80084 0.97115 0.0
H1328 H 0.19667 0.73193 0.984 0.0
H1329 H 0.16533 0.75527 0.01646 0.0
H1330 H 0.27317 0.76351 0.98283 0.0
H1331 H 0.20139 0.69372 0.92016 0.0
H1332 H 0.15428 0.69177 0.90414 0.0
H1333 H 0.15217 0.77256 0.90285 0.0
H1334 H 0.19936 0.77497 0.9184 0.0
H1335 H 0.35266 0.67146 0.90819 0.0
H1336 H 0.31486 0.68861 0.93722 0.0
H1337 H 0.28787 0.72855 0.86369 0.0
H1338 H 0.3255 0.7111 0.83461 0.0
H1339 H 0.24561 0.71118 0.8944 0.0
H1340 H 0.3268 0.75812 0.9141 0.0
H1341 H 0.37422 0.7634 0.92803 0.0
H1342 H 0.35778 0.7345 0.01138 0.0
H1343 H 0.31031 0.72874 0.99777 0.0
C1344 C 0.20558 0.80416 0.99953 0.0
C1345 C 0.18446 0.79167 0.01279 0.0
C1346 C 0.2234 0.79078 0.98097 0.0
C1347 C 0.2204 0.76466 0.97507 0.0
C1348 C 0.1992 0.75213 0.98801 0.0
C1349 C 0.18136 0.7655 0.00665 0.0
C1350 C 0.23994 0.75054 0.95599 0.0
C1351 C 0.2671 0.752 0.96357 0.0
C1352 C 0.23207 0.73576 0.93066 0.0
C1353 C 0.20383 0.73451 0.92077 0.0
C1354 C 0.1909 0.71105 0.91634 0.0
C1355 C 0.16418 0.70987 0.90735 0.0
C1356 C 0.15022 0.73203 0.90258 0.0
C1357 C 0.16298 0.75542 0.90666 0.0
C1358 C 0.1897 0.7567 0.91559 0.0
C1359 C 0.3382 0.68338 0.89812 0.0
C1360 C 0.34168 0.69002 0.86934 0.0
C1361 C 0.31675 0.69325 0.91468 0.0
C1362 C 0.29875 0.71013 0.90272 0.0
C1363 C 0.30147 0.71556 0.87333 0.0
C1364 C 0.32291 0.70563 0.85677 0.0
C1365 C 0.27875 0.72396 0.92149 0.0
C1366 C 0.25158 0.72249 0.91384 0.0
C1367 C 0.2866 0.73916 0.94651 0.0
C1368 C 0.31509 0.74276 0.95481 0.0
C1369 C 0.33335 0.75273 0.93532 0.0
C1370 C 0.36022 0.75583 0.94316 0.0
C1371 C 0.36902 0.74923 0.97054 0.0
C1372 C 0.35094 0.73957 0.99016 0.0
C1373 C 0.32405 0.73639 0.9824 0.0
H1374 H 0.38983 0.75164 0.97658 0.0
H1375 H 0.12952 0.73108 0.89567 0.0
loop_
_geom_bond_atom_site_label_1
_geom_bond_atom_site_label_2
_geom_bond_distance
_geom_bond_site_symmetry_2
_ccdc_geom_bond_type
Fe0 O2 1.918 . S
Fe0 O5 1.997 . S
Fe0 O6 2.002 . S
Fe0 O11 1.976 . S
Fe0 O14 1.996 . S
Fe1 O2 1.918 . S
Fe1 O9 1.997 . S
Fe1 O12 1.996 . S
Fe1 O16 1.976 . S
Fe1 O19 2.002 . S
O2 Fe0 1.918 . S
O2 Fe1 1.918 . S
O2 Fe3 1.918 . S
Fe3 O2 1.918 . S
Fe3 O4 2.002 . S
Fe3 O13 1.976 . S
Fe3 O17 1.996 . S
Fe3 O20 1.997 . S
O4 Fe3 2.002 . S
O4 C21 1.295 . S
O5 Fe0 1.997 . S
O5 C21 1.235 . S
O6 Fe0 2.002 . S
O6 C7 1.295 . S
C7 O6 1.295 . S
C7 O9 1.235 . S
C8 O13 1.287 . S
C8 O14 1.255 . S
O9 Fe1 1.997 . S
O9 C7 1.235 . S
C10 O16 1.287 1_556 S
C10 O17 1.255 1_556 S
O11 Fe0 1.976 . S
O11 C18 1.287 . S
O12 Fe1 1.996 . S
O12 C18 1.255 . S
O13 Fe3 1.976 . S
O13 C8 1.287 . S
O14 Fe0 1.996 . S
O14 C8 1.255 . S
C15 O19 1.295 . S
C15 O20 1.235 . S
O16 Fe1 1.976 . S
O16 C10 1.287 1_554 S
O17 Fe3 1.996 . S
O17 C10 1.255 1_554 S
C18 O11 1.287 . S
C18 O12 1.255 . S
O19 Fe1 2.002 . S
O19 C15 1.295 . S
O20 Fe3 1.997 . S
O20 C15 1.235 . S
C21 O4 1.295 . S
C21 O5 1.235 . S
Fe22 O24 1.918 . S
Fe22 O27 1.997 . S
Fe22 O28 2.002 . S
Fe22 O33 1.976 . S
Fe22 O36 1.996 . S
Fe23 O24 1.918 . S
Fe23 O31 1.997 . S
Fe23 O34 1.996 . S
Fe23 O38 1.976 . S
Fe23 O41 2.002 . S
O24 Fe22 1.918 . S
O24 Fe23 1.918 . S
O24 Fe25 1.918 . S
Fe25 O24 1.918 . S
Fe25 O26 2.002 . S
Fe25 O35 1.976 . S
Fe25 O39 1.996 . S
Fe25 O42 1.997 . S
O26 Fe25 2.002 . S
O26 C43 1.295 . S
O27 Fe22 1.997 . S
O27 C43 1.235 . S
O28 Fe22 2.002 . S
O28 C29 1.295 . S
C29 O28 1.295 . S
C29 O31 1.235 . S
C30 O35 1.287 . S
C30 O36 1.255 . S
O31 Fe23 1.997 . S
O31 C29 1.235 . S
C32 O38 1.287 . S
C32 O39 1.255 . S
O33 Fe22 1.976 . S
O33 C40 1.287 . S
O34 Fe23 1.996 . S
O34 C40 1.255 . S
O35 Fe25 1.976 . S
O35 C30 1.287 . S
O36 Fe22 1.996 . S
O36 C30 1.255 . S
C37 O41 1.295 . S
C37 O42 1.235 . S
O38 Fe23 1.976 . S
O38 C32 1.287 . S
O39 Fe25 1.996 . S
O39 C32 1.255 . S
C40 O33 1.287 . S
C40 O34 1.255 . S
O41 Fe23 2.002 . S
O41 C37 1.295 . S
O42 Fe25 1.997 . S
O42 C37 1.235 . S
C43 O26 1.295 . S
C43 O27 1.235 . S
Fe44 O46 1.918 . S
Fe44 O49 1.997 1_554 S
Fe44 O50 2.002 1_554 S
Fe44 O55 1.976 . S
Fe44 O58 1.996 . S
Fe45 O46 1.918 . S
Fe45 O53 1.997 1_554 S
Fe45 O56 1.996 . S
Fe45 O60 1.976 . S
Fe45 O63 2.002 1_554 S
O46 Fe44 1.918 . S
O46 Fe45 1.918 . S
O46 Fe47 1.918 1_554 S
Fe47 O46 1.918 1_556 S
Fe47 O48 2.002 . S
Fe47 O57 1.976 1_556 S
Fe47 O61 1.996 1_556 S
Fe47 O64 1.997 . S
O48 Fe47 2.002 . S
O48 C65 1.295 . S
O49 Fe44 1.997 1_556 S
O49 C65 1.235 . S
O50 Fe44 2.002 1_556 S
O50 C51 1.295 . S
C51 O50 1.295 . S
C51 O53 1.235 . S
C52 O57 1.287 . S
C52 O58 1.255 . S
O53 Fe45 1.997 1_556 S
O53 C51 1.235 . S
C54 O60 1.287 . S
C54 O61 1.255 . S
O55 Fe44 1.976 . S
O55 C62 1.287 . S
O56 Fe45 1.996 . S
O56 C62 1.255 . S
O57 Fe47 1.976 1_554 S
O57 C52 1.287 . S
O58 Fe44 1.996 . S
O58 C52 1.255 . S
C59 O63 1.295 . S
C59 O64 1.235 . S
O60 Fe45 1.976 . S
O60 C54 1.287 . S
O61 Fe47 1.996 1_554 S
O61 C54 1.255 . S
C62 O55 1.287 . S
C62 O56 1.255 . S
O63 Fe45 2.002 1_556 S
O63 C59 1.295 . S
O64 Fe47 1.997 . S
O64 C59 1.235 . S
C65 O48 1.295 . S
C65 O49 1.235 . S
Fe66 O68 1.918 . S
Fe66 O71 1.997 . S
Fe66 O72 2.002 . S
Fe66 O77 1.976 . S
Fe66 O80 1.996 . S
Fe67 O68 1.918 . S
Fe67 O75 1.997 . S
Fe67 O78 1.996 . S
Fe67 O82 1.976 . S
Fe67 O85 2.002 . S
O68 Fe66 1.918 . S
O68 Fe67 1.918 . S
O68 Fe69 1.918 . S
Fe69 O68 1.918 . S
Fe69 O70 2.002 . S
Fe69 O79 1.976 . S
Fe69 O83 1.996 . S
Fe69 O86 1.997 . S
O70 Fe69 2.002 . S
O70 C87 1.295 . S
O71 Fe66 1.997 . S
O71 C87 1.235 . S
O72 Fe66 2.002 . S
O72 C73 1.295 . S
C73 O72 1.295 . S
C73 O75 1.235 . S
C74 O79 1.287 . S
C74 O80 1.255 . S
O75 Fe67 1.997 . S
O75 C73 1.235 . S
C76 O82 1.287 . S
C76 O83 1.255 . S
O77 Fe66 1.976 . S
O77 C84 1.287 . S
O78 Fe67 1.996 . S
O78 C84 1.255 . S
O79 Fe69 1.976 . S
O79 C74 1.287 . S
O80 Fe66 1.996 . S
O80 C74 1.255 . S
C81 O85 1.295 . S
C81 O86 1.235 . S
O82 Fe67 1.976 . S
O82 C76 1.287 . S
O83 Fe69 1.996 . S
O83 C76 1.255 . S
C84 O77 1.287 . S
C84 O78 1.255 . S
O85 Fe67 2.002 . S
O85 C81 1.295 . S
O86 Fe69 1.997 . S
O86 C81 1.235 . S
C87 O70 1.295 . S
C87 O71 1.235 . S
H88 C91 0.929 . S
H89 C94 0.929 . S
H90 C96 0.930 . S
C91 H88 0.929 . S
C91 C92 1.398 . S
C91 C93 1.396 . S
C92 C91 1.398 . S
C92 C96 1.407 . S
C93 C91 1.396 . S
C93 C94 1.394 . S
C94 H89 0.929 . S
C94 C93 1.394 . S
C94 C95 1.382 . S
C95 C94 1.382 . S
C95 C96 1.392 . S
C95 N97 1.420 . S
C96 H90 0.930 . S
C96 C92 1.407 . S
C96 C95 1.392 . S
N97 C95 1.420 . S
N97 C98 1.244 . S
C98 N97 1.244 . S
H99 C102 0.929 . S
H100 C105 0.929 . S
H101 C107 0.930 . S
C102 H99 0.929 . S
C102 C103 1.398 . S
C102 C104 1.396 . S
C103 C102 1.398 . S
C103 C107 1.407 . S
C104 C102 1.396 . S
C104 C105 1.394 . S
C105 H100 0.929 . S
C105 C104 1.394 . S
C105 C106 1.382 . S
C106 C105 1.382 . S
C106 C107 1.392 . S
C106 N108 1.420 . S
C107 H101 0.930 . S
C107 C103 1.407 . S
C107 C106 1.392 . S
N108 C106 1.420 . S
N108 C109 1.244 . S
C109 N108 1.244 . S
H110 C113 0.929 . S
H111 C116 0.929 . S
H112 C118 0.930 . S
C113 H110 0.929 . S
C113 C114 1.398 . S
C113 C115 1.396 . S
C114 C113 1.398 . S
C114 C118 1.407 . S
C115 C113 1.396 . S
C115 C116 1.394 . S
C116 H111 0.929 . S
C116 C115 1.394 . S
C116 C117 1.382 . S
C117 C116 1.382 . S
C117 C118 1.392 . S
C117 N119 1.420 . S
C118 H112 0.930 . S
C118 C114 1.407 . S
C118 C117 1.392 . S
N119 C117 1.420 . S
N119 C120 1.244 . S
C120 N119 1.244 . S
H121 C124 0.929 . S
H122 C127 0.929 . S
H123 C129 0.930 . S
C124 H121 0.929 . S
C124 C125 1.398 . S
C124 C126 1.396 . S
C125 C124 1.398 . S
C125 C129 1.407 . S
C126 C124 1.396 . S
C126 C127 1.394 . S
C127 H122 0.929 . S
C127 C126 1.394 . S
C127 C128 1.382 . S
C128 C127 1.382 . S
C128 C129 1.392 . S
C128 N130 1.420 . S
C129 H123 0.930 . S
C129 C125 1.407 . S
C129 C128 1.392 . S
N130 C128 1.420 . S
N130 C131 1.244 . S
C131 N130 1.244 . S
H132 C135 0.929 . S
H133 C138 0.929 . S
H134 C140 0.930 . S
C135 H132 0.929 . S
C135 C136 1.398 . S
C135 C137 1.396 . S
C136 C135 1.398 . S
C136 C140 1.407 . S
C137 C135 1.396 . S
C137 C138 1.394 . S
C138 H133 0.929 . S
C138 C137 1.394 . S
C138 C139 1.382 . S
C139 C138 1.382 . S
C139 C140 1.392 . S
C139 N141 1.420 . S
C140 H134 0.930 . S
C140 C136 1.407 . S
C140 C139 1.392 . S
N141 C139 1.420 . S
N141 C142 1.244 . S
C142 N141 1.244 . S
H143 C146 0.929 . S
H144 C149 0.929 . S
H145 C151 0.930 . S
C146 H143 0.929 . S
C146 C147 1.398 . S
C146 C148 1.396 . S
C147 C146 1.398 . S
C147 C151 1.407 . S
C148 C146 1.396 . S
C148 C149 1.394 . S
C149 H144 0.929 . S
C149 C148 1.394 . S
C149 C150 1.382 . S
C150 C149 1.382 . S
C150 C151 1.392 . S
C150 N152 1.420 . S
C151 H145 0.930 . S
C151 C147 1.407 . S
C151 C150 1.392 . S
N152 C150 1.420 . S
N152 C153 1.244 . S
C153 N152 1.244 . S
H154 C157 0.929 . S
H155 C160 0.929 . S
H156 C162 0.930 . S
C157 H154 0.929 . S
C157 C158 1.398 . S
C157 C159 1.396 . S
C158 C157 1.398 . S
C158 C162 1.407 . S
C159 C157 1.396 . S
C159 C160 1.394 . S
C160 H155 0.929 . S
C160 C159 1.394 . S
C160 C161 1.382 . S
C161 C160 1.382 . S
C161 C162 1.392 . S
C161 N163 1.420 . S
C162 H156 0.930 . S
C162 C158 1.407 . S
C162 C161 1.392 . S
N163 C161 1.420 . S
N163 C164 1.244 . S
C164 N163 1.244 . S
H165 C168 0.929 . S
H166 C171 0.929 . S
H167 C173 0.930 . S
C168 H165 0.929 . S
C168 C169 1.398 . S
C168 C170 1.396 . S
C169 C168 1.398 . S
C169 C173 1.407 . S
C170 C168 1.396 . S
C170 C171 1.394 . S
C171 H166 0.929 . S
C171 C170 1.394 . S
C171 C172 1.382 . S
C172 C171 1.382 . S
C172 C173 1.392 . S
C172 N174 1.420 . S
C173 H167 0.930 . S
C173 C169 1.407 . S
C173 C172 1.392 . S
N174 C172 1.420 . S
N174 C175 1.244 . S
C175 N174 1.244 . S
H176 C194 0.951 . S
H177 C196 0.951 . S
H178 C198 0.950 . S
H179 C199 0.950 . S
H180 C201 0.950 . S
H181 C204 0.950 . S
H182 C205 0.950 . S
H183 C207 0.950 . S
H184 C208 0.950 . S
H185 C209 0.951 . S
H186 C211 0.951 . S
H187 C213 0.950 . S
H188 C214 0.950 . S
H189 C216 0.950 . S
H190 C219 0.950 . S
H191 C220 0.952 . S
H192 C222 0.950 . S
H193 C223 0.950 . S
C194 H176 0.951 . S
C194 C195 1.366 . S
C194 C196 1.388 . S
C195 C194 1.366 . S
C195 C199 1.385 . S
C196 H177 0.951 . S
C196 C194 1.388 . S
C196 C197 1.366 . S
C197 C196 1.366 . S
C197 C198 1.414 . S
C197 C200 1.499 . S
C198 H178 0.950 . S
C198 C197 1.414 . S
C198 C199 1.374 . S
C199 H179 0.950 . S
C199 C195 1.385 . S
C199 C198 1.374 . S
C200 C197 1.499 . S
C200 C201 1.373 . S
C200 C202 1.389 1_565 S
C201 H180 0.950 . S
C201 C200 1.373 . S
C201 C217 1.377 1_565 S
C202 C200 1.389 1_545 S
C202 C203 1.524 . S
C202 C216 1.377 . S
C203 C202 1.524 . S
C203 C204 1.397 . S
C203 C208 1.363 . S
C204 H181 0.950 . S
C204 C203 1.397 . S
C204 C205 1.334 . S
C205 H182 0.950 . S
C205 C204 1.334 . S
C205 C206 1.287 . S
C206 C205 1.287 . S
C206 C207 1.524 . S
C206 H225 0.913 . S
C207 H183 0.950 . S
C207 C206 1.524 . S
C207 C208 1.415 . S
C208 H184 0.950 . S
C208 C203 1.363 . S
C208 C207 1.415 . S
C209 H185 0.951 . S
C209 C210 1.366 . S
C209 C211 1.388 . S
C210 C209 1.366 . S
C210 C214 1.385 . S
C211 H186 0.951 . S
C211 C209 1.388 . S
C211 C212 1.366 . S
C212 C211 1.366 . S
C212 C213 1.414 . S
C212 C215 1.499 . S
C213 H187 0.950 . S
C213 C212 1.414 . S
C213 C214 1.374 . S
C214 H188 0.950 . S
C214 C210 1.385 . S
C214 C213 1.374 . S
C215 C212 1.499 . S
C215 C216 1.373 . S
C215 C217 1.389 . S
C216 H189 0.950 . S
C216 C202 1.377 . S
C216 C215 1.373 . S
C217 C201 1.377 1_545 S
C217 C215 1.389 . S
C217 C218 1.524 1_545 S
C218 C217 1.524 1_565 S
C218 C219 1.397 1_565 S
C218 C223 1.363 . S
C219 H190 0.950 . S
C219 C218 1.397 1_545 S
C219 C220 1.336 . S
C220 H191 0.952 . S
C220 C219 1.336 . S
C220 C221 1.283 1_545 S
C221 C220 1.283 1_565 S
C221 C222 1.524 . S
C221 H224 0.999 . S
C222 H192 0.950 . S
C222 C221 1.524 . S
C222 C223 1.415 . S
C223 H193 0.950 . S
C223 C218 1.363 . S
C223 C222 1.415 . S
H224 C221 0.999 . S
H225 C206 0.913 . S
H226 C244 0.951 . S
H227 C246 0.951 . S
H228 C248 0.950 . S
H229 C249 0.950 . S
H230 C251 0.950 . S
H231 C254 0.950 . S
H232 C255 0.950 . S
H233 C257 0.950 . S
H234 C258 0.950 . S
H235 C259 0.951 . S
H236 C261 0.951 . S
H237 C263 0.950 . S
H238 C264 0.950 . S
H239 C266 0.950 . S
H240 C269 0.950 . S
H241 C270 0.950 . S
H242 C272 0.950 . S
H243 C273 0.950 . S
C244 H226 0.951 . S
C244 C245 1.366 . S
C244 C246 1.388 . S
C245 C244 1.366 . S
C245 C249 1.385 . S
C246 H227 0.951 . S
C246 C244 1.388 . S
C246 C247 1.366 . S
C247 C246 1.366 . S
C247 C248 1.414 . S
C247 C250 1.499 . S
C248 H228 0.950 . S
C248 C247 1.414 . S
C248 C249 1.374 . S
C249 H229 0.950 . S
C249 C245 1.385 . S
C249 C248 1.374 . S
C250 C247 1.499 . S
C250 C251 1.373 . S
C250 C252 1.389 . S
C251 H230 0.950 . S
C251 C250 1.373 . S
C251 C267 1.377 . S
C252 C250 1.389 . S
C252 C253 1.524 . S
C252 C266 1.377 . S
C253 C252 1.524 . S
C253 C254 1.397 . S
C253 C258 1.363 . S
C254 H231 0.950 . S
C254 C253 1.397 . S
C254 C255 1.334 . S
C255 H232 0.950 . S
C255 C254 1.334 . S
C255 C256 1.287 . S
C256 C255 1.287 . S
C256 C257 1.524 . S
C256 H275 0.913 . S
C257 H233 0.950 . S
C257 C256 1.524 . S
C257 C258 1.415 . S
C258 H234 0.950 . S
C258 C253 1.363 . S
C258 C257 1.415 . S
C259 H235 0.951 . S
C259 C260 1.366 . S
C259 C261 1.388 . S
C260 C259 1.366 . S
C260 C264 1.385 . S
C261 H236 0.951 . S
C261 C259 1.388 . S
C261 C262 1.366 . S
C262 C261 1.366 . S
C262 C263 1.414 . S
C262 C265 1.499 . S
C263 H237 0.950 . S
C263 C262 1.414 . S
C263 C264 1.374 . S
C264 H238 0.950 . S
C264 C260 1.385 . S
C264 C263 1.374 . S
C265 C262 1.499 . S
C265 C266 1.373 . S
C265 C267 1.389 . S
C266 H239 0.950 . S
C266 C252 1.377 . S
C266 C265 1.373 . S
C267 C251 1.377 . S
C267 C265 1.389 . S
C267 C268 1.524 . S
C268 C267 1.524 . S
C268 C269 1.397 . S
C268 C273 1.363 . S
C269 H240 0.950 . S
C269 C268 1.397 . S
C269 C270 1.334 . S
C270 H241 0.950 . S
C270 C269 1.334 . S
C270 C271 1.287 . S
C271 C270 1.287 . S
C271 C272 1.524 . S
C271 H274 0.999 . S
C272 H242 0.950 . S
C272 C271 1.524 . S
C272 C273 1.415 . S
C273 H243 0.950 . S
C273 C268 1.363 . S
C273 C272 1.415 . S
H274 C271 0.999 . S
H275 C256 0.913 . S
H276 C294 0.951 . S
H277 C296 0.951 . S
H278 C298 0.950 . S
H279 C299 0.950 . S
H280 C301 0.950 . S
H281 C304 0.950 . S
H282 C305 0.950 . S
H283 C307 0.950 . S
H284 C308 0.950 . S
H285 C309 0.951 . S
H286 C311 0.951 . S
H287 C313 0.950 . S
H288 C314 0.950 . S
H289 C316 0.950 . S
H290 C319 0.950 . S
H291 C320 0.950 . S
H292 C322 0.950 . S
H293 C323 0.950 . S
C294 H276 0.951 . S
C294 C295 1.366 . S
C294 C296 1.388 . S
C295 C294 1.366 . S
C295 C299 1.385 . S
C296 H277 0.951 . S
C296 C294 1.388 . S
C296 C297 1.366 . S
C297 C296 1.366 . S
C297 C298 1.414 . S
C297 C300 1.499 . S
C298 H278 0.950 . S
C298 C297 1.414 . S
C298 C299 1.374 . S
C299 H279 0.950 . S
C299 C295 1.385 . S
C299 C298 1.374 . S
C300 C297 1.499 . S
C300 C301 1.373 1_545 S
C300 C302 1.389 . S
C301 H280 0.950 . S
C301 C300 1.373 1_565 S
C301 C317 1.377 . S
C302 C300 1.389 . S
C302 C303 1.524 . S
C302 C316 1.377 1_545 S
C303 C302 1.524 . S
C303 C304 1.397 . S
C303 C308 1.363 . S
C304 H281 0.950 . S
C304 C303 1.397 . S
C304 C305 1.334 . S
C305 H282 0.950 . S
C305 C304 1.334 . S
C305 C306 1.287 . S
C306 C305 1.287 . S
C306 C307 1.524 . S
C306 H325 0.913 . S
C307 H283 0.950 . S
C307 C306 1.524 . S
C307 C308 1.415 . S
C308 H284 0.950 . S
C308 C303 1.363 . S
C308 C307 1.415 . S
C309 H285 0.951 . S
C309 C310 1.366 . S
C309 C311 1.388 . S
C310 C309 1.366 . S
C310 C314 1.385 . S
C311 H286 0.951 . S
C311 C309 1.388 . S
C311 C312 1.366 . S
C312 C311 1.366 . S
C312 C313 1.414 . S
C312 C315 1.499 . S
C313 H287 0.950 . S
C313 C312 1.414 . S
C313 C314 1.374 . S
C314 H288 0.950 . S
C314 C310 1.385 . S
C314 C313 1.374 . S
C315 C312 1.499 . S
C315 C316 1.373 . S
C315 C317 1.389 . S
C316 H289 0.950 . S
C316 C302 1.377 1_565 S
C316 C315 1.373 . S
C317 C301 1.377 . S
C317 C315 1.389 . S
C317 C318 1.524 . S
C318 C317 1.524 . S
C318 C319 1.397 . S
C318 C323 1.363 . S
C319 H290 0.950 . S
C319 C318 1.397 . S
C319 C320 1.334 . S
C320 H291 0.950 . S
C320 C319 1.334 . S
C320 C321 1.287 . S
C321 C320 1.287 . S
C321 C322 1.524 . S
C321 H324 0.999 . S
C322 H292 0.950 . S
C322 C321 1.524 . S
C322 C323 1.415 . S
C323 H293 0.950 . S
C323 C318 1.363 . S
C323 C322 1.415 . S
H324 C321 0.999 . S
H325 C306 0.913 . S
H326 C344 0.951 . S
H327 C346 0.951 . S
H328 C348 0.950 . S
H329 C349 0.950 . S
H330 C351 0.950 . S
H331 C354 0.950 . S
H332 C355 0.950 . S
H333 C357 0.950 . S
H334 C358 0.950 . S
H335 C359 0.951 . S
H336 C361 0.951 . S
H337 C363 0.950 . S
H338 C364 0.950 . S
H339 C366 0.950 . S
H340 C369 0.950 . S
H341 C370 0.950 . S
H342 C372 0.950 . S
H343 C373 0.950 . S
C344 H326 0.951 . S
C344 C345 1.366 . S
C344 C346 1.388 . S
C345 C344 1.366 . S
C345 C349 1.385 . S
C346 H327 0.951 . S
C346 C344 1.388 . S
C346 C347 1.366 . S
C347 C346 1.366 . S
C347 C348 1.414 . S
C347 C350 1.499 . S
C348 H328 0.950 . S
C348 C347 1.414 . S
C348 C349 1.374 . S
C349 H329 0.950 . S
C349 C345 1.385 . S
C349 C348 1.374 . S
C350 C347 1.499 . S
C350 C351 1.373 . S
C350 C352 1.389 . S
C351 H330 0.950 . S
C351 C350 1.373 . S
C351 C367 1.377 . S
C352 C350 1.389 . S
C352 C353 1.524 . S
C352 C366 1.377 . S
C353 C352 1.524 . S
C353 C354 1.397 . S
C353 C358 1.363 . S
C354 H331 0.950 . S
C354 C353 1.397 . S
C354 C355 1.334 . S
C355 H332 0.950 . S
C355 C354 1.334 . S
C355 C356 1.287 . S
C356 C355 1.287 . S
C356 C357 1.524 . S
C356 H375 0.913 . S
C357 H333 0.950 . S
C357 C356 1.524 . S
C357 C358 1.415 . S
C358 H334 0.950 . S
C358 C353 1.363 . S
C358 C357 1.415 . S
C359 H335 0.951 . S
C359 C360 1.366 . S
C359 C361 1.388 . S
C360 C359 1.366 . S
C360 C364 1.385 . S
C361 H336 0.951 . S
C361 C359 1.388 . S
C361 C362 1.366 . S
C362 C361 1.366 . S
C362 C363 1.414 . S
C362 C365 1.499 . S
C363 H337 0.950 . S
C363 C362 1.414 . S
C363 C364 1.374 . S
C364 H338 0.950 . S
C364 C360 1.385 . S
C364 C363 1.374 . S
C365 C362 1.499 . S
C365 C366 1.373 . S
C365 C367 1.389 . S
C366 H339 0.950 . S
C366 C352 1.377 . S
C366 C365 1.373 . S
C367 C351 1.377 . S
C367 C365 1.389 . S
C367 C368 1.524 . S
C368 C367 1.524 . S
C368 C369 1.397 . S
C368 C373 1.363 . S
C369 H340 0.950 . S
C369 C368 1.397 . S
C369 C370 1.334 . S
C370 H341 0.950 . S
C370 C369 1.334 . S
C370 C371 1.287 . S
C371 C370 1.287 . S
C371 C372 1.524 . S
C371 H374 0.999 . S
C372 H342 0.950 . S
C372 C371 1.524 . S
C372 C373 1.415 . S
C373 H343 0.950 . S
C373 C368 1.363 . S
C373 C372 1.415 . S
H374 C371 0.999 . S
H375 C356 0.913 . S
H376 C394 0.951 . S
H377 C396 0.951 . S
H378 C398 0.950 . S
H379 C399 0.950 . S
H380 C401 0.950 . S
H381 C404 0.950 . S
H382 C405 0.950 . S
H383 C407 0.950 . S
H384 C408 0.950 . S
H385 C409 0.951 . S
H386 C411 0.951 . S
H387 C413 0.950 . S
H388 C414 0.950 . S
H389 C416 0.950 . S
H390 C419 0.950 . S
H391 C420 0.950 . S
H392 C422 0.950 . S
H393 C423 0.950 . S
C394 H376 0.951 . S
C394 C395 1.366 . S
C394 C396 1.388 . S
C395 C394 1.366 . S
C395 C399 1.385 . S
C396 H377 0.951 . S
C396 C394 1.388 . S
C396 C397 1.366 . S
C397 C396 1.366 . S
C397 C398 1.414 . S
C397 C400 1.499 . S
C398 H378 0.950 . S
C398 C397 1.414 . S
C398 C399 1.374 . S
C399 H379 0.950 . S
C399 C395 1.385 . S
C399 C398 1.374 . S
C400 C397 1.499 . S
C400 C401 1.373 . S
C400 C402 1.389 . S
C401 H380 0.950 . S
C401 C400 1.373 . S
C401 C417 1.377 . S
C402 C400 1.389 . S
C402 C403 1.524 . S
C402 C416 1.377 . S
C403 C402 1.524 . S
C403 C404 1.397 . S
C403 C408 1.363 . S
C404 H381 0.950 . S
C404 C403 1.397 . S
C404 C405 1.334 . S
C405 H382 0.950 . S
C405 C404 1.334 . S
C405 C406 1.287 . S
C406 C405 1.287 . S
C406 C407 1.524 . S
C406 H425 0.913 . S
C407 H383 0.950 . S
C407 C406 1.524 . S
C407 C408 1.415 . S
C408 H384 0.950 . S
C408 C403 1.363 . S
C408 C407 1.415 . S
C409 H385 0.951 . S
C409 C410 1.366 . S
C409 C411 1.388 . S
C410 C409 1.366 . S
C410 C414 1.385 . S
C411 H386 0.951 . S
C411 C409 1.388 . S
C411 C412 1.366 . S
C412 C411 1.366 . S
C412 C413 1.414 . S
C412 C415 1.499 . S
C413 H387 0.950 . S
C413 C412 1.414 . S
C413 C414 1.374 . S
C414 H388 0.950 . S
C414 C410 1.385 . S
C414 C413 1.374 . S
C415 C412 1.499 . S
C415 C416 1.373 . S
C415 C417 1.389 . S
C416 H389 0.950 . S
C416 C402 1.377 . S
C416 C415 1.373 . S
C417 C401 1.377 . S
C417 C415 1.389 . S
C417 C418 1.524 . S
C418 C417 1.524 . S
C418 C419 1.397 . S
C418 C423 1.363 . S
C419 H390 0.950 . S
C419 C418 1.397 . S
C419 C420 1.334 . S
C420 H391 0.950 . S
C420 C419 1.334 . S
C420 C421 1.287 . S
C421 C420 1.287 . S
C421 C422 1.524 . S
C421 H424 0.999 . S
C422 H392 0.950 . S
C422 C421 1.524 . S
C422 C423 1.415 . S
C423 H393 0.950 . S
C423 C418 1.363 . S
C423 C422 1.415 . S
H424 C421 0.999 . S
H425 C406 0.913 . S
H426 C444 0.951 . S
H427 C446 0.951 . S
H428 C448 0.927 1_455 S
H429 C449 0.950 1_554 S
H430 C451 0.950 . S
H431 C454 0.950 . S
H432 C455 0.950 . S
H433 C457 0.950 . S
H434 C458 0.950 . S
H435 C459 0.951 . S
H436 C461 0.951 . S
H437 C463 0.950 . S
H438 C464 0.950 . S
H439 C466 0.950 . S
H440 C469 0.950 . S
H441 C470 0.950 . S
H442 C472 0.950 . S
H443 C473 0.962 . S
C444 H426 0.951 . S
C444 C445 1.366 . S
C444 C446 1.388 . S
C445 C444 1.366 . S
C445 C449 1.385 . S
C446 H427 0.951 . S
C446 C444 1.388 . S
C446 C447 1.366 1_655 S
C447 C446 1.366 1_455 S
C447 C448 1.407 1_455 S
C447 C450 1.499 . S
C448 H428 0.927 1_655 S
C448 C447 1.407 1_655 S
C448 C449 1.405 . S
C449 H429 0.950 1_556 S
C449 C445 1.385 . S
C449 C448 1.405 . S
C450 C447 1.499 . S
C450 C451 1.373 . S
C450 C452 1.389 . S
C451 H430 0.950 . S
C451 C450 1.373 . S
C451 C467 1.377 . S
C452 C450 1.389 . S
C452 C453 1.524 . S
C452 C466 1.377 . S
C453 C452 1.524 . S
C453 C454 1.397 . S
C453 C458 1.363 . S
C454 H431 0.950 . S
C454 C453 1.397 . S
C454 C455 1.334 1_455 S
C455 H432 0.950 . S
C455 C454 1.334 1_655 S
C455 C456 1.287 . S
C456 C455 1.287 . S
C456 C457 1.524 1_655 S
C456 H475 0.913 . S
C457 H433 0.950 . S
C457 C456 1.524 1_455 S
C457 C458 1.415 . S
C458 H434 0.950 . S
C458 C453 1.363 . S
C458 C457 1.415 . S
C459 H435 0.951 . S
C459 C460 1.366 . S
C459 C461 1.388 . S
C460 C459 1.366 . S
C460 C464 1.385 . S
C461 H436 0.951 . S
C461 C459 1.388 . S
C461 C462 1.366 . S
C462 C461 1.366 . S
C462 C463 1.414 . S
C462 C465 1.499 . S
C463 H437 0.950 . S
C463 C462 1.414 . S
C463 C464 1.374 . S
C464 H438 0.950 . S
C464 C460 1.385 . S
C464 C463 1.374 . S
C465 C462 1.499 . S
C465 C466 1.373 . S
C465 C467 1.389 . S
C466 H439 0.950 . S
C466 C452 1.377 . S
C466 C465 1.373 . S
C467 C451 1.377 . S
C467 C465 1.389 . S
C467 C468 1.524 . S
C468 C467 1.524 . S
C468 C469 1.397 . S
C468 C473 1.326 1_556 S
C469 H440 0.950 . S
C469 C468 1.397 . S
C469 C470 1.334 . S
C470 H441 0.950 . S
C470 C469 1.334 . S
C470 C471 1.287 1_556 S
C471 C470 1.287 1_554 S
C471 C472 1.524 . S
C471 H474 0.999 . S
C472 H442 0.950 . S
C472 C471 1.524 . S
C472 C473 1.442 . S
C473 H443 0.962 . S
C473 C468 1.326 1_554 S
C473 C472 1.442 . S
H474 C471 0.999 . S
H475 C456 0.913 . S
H476 C494 0.951 . S
H477 C496 0.951 . S
H478 C498 0.950 . S
H479 C499 0.950 . S
H480 C501 0.950 . S
H481 C504 0.950 . S
H482 C505 0.950 . S
H483 C507 0.950 . S
H484 C508 0.950 . S
H485 C509 0.951 . S
H486 C511 0.951 . S
H487 C513 0.950 . S
H488 C514 0.950 . S
H489 C516 0.950 . S
H490 C519 0.950 . S
H491 C520 0.950 . S
H492 C522 0.950 . S
H493 C523 0.950 . S
C494 H476 0.951 . S
C494 C495 1.366 . S
C494 C496 1.388 . S
C495 C494 1.366 . S
C495 C499 1.385 . S
C496 H477 0.951 . S
C496 C494 1.388 . S
C496 C497 1.366 . S
C497 C496 1.366 . S
C497 C498 1.414 . S
C497 C500 1.499 . S
C498 H478 0.950 . S
C498 C497 1.414 . S
C498 C499 1.374 . S
C499 H479 0.950 . S
C499 C495 1.385 . S
C499 C498 1.374 . S
C500 C497 1.499 . S
C500 C501 1.373 . S
C500 C502 1.389 . S
C501 H480 0.950 . S
C501 C500 1.373 . S
C501 C517 1.377 . S
C502 C500 1.389 . S
C502 C503 1.524 . S
C502 C516 1.377 . S
C503 C502 1.524 . S
C503 C504 1.397 . S
C503 C508 1.363 . S
C504 H481 0.950 . S
C504 C503 1.397 . S
C504 C505 1.334 . S
C505 H482 0.950 . S
C505 C504 1.334 . S
C505 C506 1.287 . S
C506 C505 1.287 . S
C506 C507 1.524 . S
C506 H525 0.913 . S
C507 H483 0.950 . S
C507 C506 1.524 . S
C507 C508 1.415 . S
C508 H484 0.950 . S
C508 C503 1.363 . S
C508 C507 1.415 . S
C509 H485 0.951 . S
C509 C510 1.366 . S
C509 C511 1.388 . S
C510 C509 1.366 . S
C510 C514 1.385 . S
C511 H486 0.951 . S
C511 C509 1.388 . S
C511 C512 1.366 . S
C512 C511 1.366 . S
C512 C513 1.414 . S
C512 C515 1.499 . S
C513 H487 0.950 . S
C513 C512 1.414 . S
C513 C514 1.374 . S
C514 H488 0.950 . S
C514 C510 1.385 . S
C514 C513 1.374 . S
C515 C512 1.499 . S
C515 C516 1.373 . S
C515 C517 1.389 . S
C516 H489 0.950 . S
C516 C502 1.377 . S
C516 C515 1.373 . S
C517 C501 1.377 . S
C517 C515 1.389 . S
C517 C518 1.524 . S
C518 C517 1.524 . S
C518 C519 1.397 . S
C518 C523 1.363 . S
C519 H490 0.950 . S
C519 C518 1.397 . S
C519 C520 1.334 . S
C520 H491 0.950 . S
C520 C519 1.334 . S
C520 C521 1.287 . S
C521 C520 1.287 . S
C521 C522 1.524 . S
C521 H524 0.999 . S
C522 H492 0.950 . S
C522 C521 1.524 . S
C522 C523 1.415 . S
C523 H493 0.950 . S
C523 C518 1.363 . S
C523 C522 1.415 . S
H524 C521 0.999 . S
H525 C506 0.913 . S
H526 C544 0.951 . S
H527 C546 0.951 . S
H528 C548 0.950 . S
H529 C549 0.950 . S
H530 C551 0.950 . S
H531 C554 0.950 1_455 S
H532 C555 0.950 . S
H533 C557 0.950 . S
H534 C558 0.950 . S
H535 C559 0.951 . S
H536 C561 0.951 . S
H537 C563 0.950 . S
H538 C564 0.950 . S
H539 C566 0.950 . S
H540 C569 0.950 . S
H541 C570 0.950 . S
H542 C572 0.950 . S
H543 C573 0.950 . S
C544 H526 0.951 . S
C544 C545 1.366 . S
C544 C546 1.388 . S
C545 C544 1.366 . S
C545 C549 1.385 . S
C546 H527 0.951 . S
C546 C544 1.388 . S
C546 C547 1.366 . S
C547 C546 1.366 . S
C547 C548 1.414 . S
C547 C550 1.499 . S
C548 H528 0.950 . S
C548 C547 1.414 . S
C548 C549 1.374 . S
C549 H529 0.950 . S
C549 C545 1.385 . S
C549 C548 1.374 . S
C550 C547 1.499 . S
C550 C551 1.373 . S
C550 C552 1.389 1_455 S
C551 H530 0.950 . S
C551 C550 1.373 . S
C551 C567 1.377 . S
C552 C550 1.389 1_655 S
C552 C553 1.524 . S
C552 C566 1.377 . S
C553 C552 1.524 . S
C553 C554 1.397 . S
C553 C558 1.363 . S
C554 H531 0.950 1_655 S
C554 C553 1.397 . S
C554 C555 1.334 . S
C555 H532 0.950 . S
C555 C554 1.334 . S
C555 C556 1.287 . S
C556 C555 1.287 . S
C556 C557 1.524 . S
C556 H575 0.913 . S
C557 H533 0.950 . S
C557 C556 1.524 . S
C557 C558 1.415 . S
C558 H534 0.950 . S
C558 C553 1.363 . S
C558 C557 1.415 . S
C559 H535 0.951 . S
C559 C560 1.366 . S
C559 C561 1.388 . S
C560 C559 1.366 . S
C560 C564 1.385 . S
C561 H536 0.951 . S
C561 C559 1.388 . S
C561 C562 1.366 . S
C562 C561 1.366 . S
C562 C563 1.414 . S
C562 C565 1.499 . S
C563 H537 0.950 . S
C563 C562 1.414 . S
C563 C564 1.374 . S
C564 H538 0.950 . S
C564 C560 1.385 . S
C564 C563 1.374 . S
C565 C562 1.499 . S
C565 C566 1.373 . S
C565 C567 1.389 1_655 S
C566 H539 0.950 . S
C566 C552 1.377 . S
C566 C565 1.373 . S
C567 C551 1.377 . S
C567 C565 1.389 1_455 S
C567 C568 1.524 . S
C568 C567 1.524 . S
C568 C569 1.397 . S
C568 C573 1.363 . S
C569 H540 0.950 . S
C569 C568 1.397 . S
C569 C570 1.334 . S
C570 H541 0.950 . S
C570 C569 1.334 . S
C570 C571 1.287 . S
C571 C570 1.287 . S
C571 C572 1.524 . S
C571 H574 0.999 . S
C572 H542 0.950 . S
C572 C571 1.524 . S
C572 C573 1.415 . S
C573 H543 0.950 . S
C573 C568 1.363 . S
C573 C572 1.415 . S
H574 C571 0.999 . S
H575 C556 0.913 . S
H576 C594 0.951 . S
H577 C596 0.951 . S
H578 C598 0.950 . S
H579 C599 0.950 . S
H580 C601 0.950 . S
H581 C604 0.950 . S
H582 C605 0.950 . S
H583 C607 0.950 . S
H584 C608 0.950 . S
H585 C609 0.951 . S
H586 C611 0.951 . S
H587 C613 0.950 . S
H588 C614 0.950 . S
H589 C616 0.950 . S
H590 C619 0.950 . S
H591 C620 0.950 . S
H592 C622 0.950 . S
H593 C623 0.950 . S
C594 H576 0.951 . S
C594 C595 1.366 . S
C594 C596 1.388 . S
C595 C594 1.366 . S
C595 C599 1.385 . S
C596 H577 0.951 . S
C596 C594 1.388 . S
C596 C597 1.366 . S
C597 C596 1.366 . S
C597 C598 1.414 . S
C597 C600 1.499 . S
C598 H578 0.950 . S
C598 C597 1.414 . S
C598 C599 1.374 . S
C599 H579 0.950 . S
C599 C595 1.385 . S
C599 C598 1.374 . S
C600 C597 1.499 . S
C600 C601 1.373 1_545 S
C600 C602 1.389 . S
C601 H580 0.950 . S
C601 C600 1.373 1_565 S
C601 C617 1.377 . S
C602 C600 1.389 . S
C602 C603 1.524 . S
C602 C616 1.377 1_545 S
C603 C602 1.524 . S
C603 C604 1.397 . S
C603 C608 1.363 . S
C604 H581 0.950 . S
C604 C603 1.397 . S
C604 C605 1.334 . S
C605 H582 0.950 . S
C605 C604 1.334 . S
C605 C606 1.287 . S
C606 C605 1.287 . S
C606 C607 1.524 . S
C606 H625 0.913 . S
C607 H583 0.950 . S
C607 C606 1.524 . S
C607 C608 1.415 . S
C608 H584 0.950 . S
C608 C603 1.363 . S
C608 C607 1.415 . S
C609 H585 0.951 . S
C609 C610 1.366 . S
C609 C611 1.388 . S
C610 C609 1.366 . S
C610 C614 1.385 . S
C611 H586 0.951 . S
C611 C609 1.388 . S
C611 C612 1.366 . S
C612 C611 1.366 . S
C612 C613 1.414 . S
C612 C615 1.499 . S
C613 H587 0.950 . S
C613 C612 1.414 . S
C613 C614 1.374 . S
C614 H588 0.950 . S
C614 C610 1.385 . S
C614 C613 1.374 . S
C615 C612 1.499 . S
C615 C616 1.373 . S
C615 C617 1.389 . S
C616 H589 0.950 . S
C616 C602 1.377 1_565 S
C616 C615 1.373 . S
C617 C601 1.377 . S
C617 C615 1.389 . S
C617 C618 1.524 . S
C618 C617 1.524 . S
C618 C619 1.397 . S
C618 C623 1.363 . S
C619 H590 0.950 . S
C619 C618 1.397 . S
C619 C620 1.334 . S
C620 H591 0.950 . S
C620 C619 1.334 . S
C620 C621 1.287 . S
C621 C620 1.287 . S
C621 C622 1.524 . S
C621 H624 0.999 . S
C622 H592 0.950 . S
C622 C621 1.524 . S
C622 C623 1.415 . S
C623 H593 0.950 . S
C623 C618 1.363 . S
C623 C622 1.415 . S
H624 C621 0.999 . S
H625 C606 0.913 . S
H626 C644 0.951 . S
H627 C646 0.951 . S
H628 C648 0.950 . S
H629 C649 0.950 . S
H630 C651 0.950 . S
H631 C654 0.950 . S
H632 C655 0.950 . S
H633 C657 0.950 . S
H634 C658 0.950 . S
H635 C659 0.951 . S
H636 C661 0.951 . S
H637 C663 0.950 . S
H638 C664 0.950 . S
H639 C666 0.950 . S
H640 C669 0.950 . S
H641 C670 0.950 . S
H642 C672 0.950 . S
H643 C673 0.950 . S
C644 H626 0.951 . S
C644 C645 1.366 . S
C644 C646 1.388 . S
C645 C644 1.366 . S
C645 C649 1.385 . S
C646 H627 0.951 . S
C646 C644 1.388 . S
C646 C647 1.366 . S
C647 C646 1.366 . S
C647 C648 1.414 . S
C647 C650 1.499 . S
C648 H628 0.950 . S
C648 C647 1.414 . S
C648 C649 1.374 . S
C649 H629 0.950 . S
C649 C645 1.385 . S
C649 C648 1.374 . S
C650 C647 1.499 . S
C650 C651 1.373 . S
C650 C652 1.389 . S
C651 H630 0.950 . S
C651 C650 1.373 . S
C651 C667 1.377 . S
C652 C650 1.389 . S
C652 C653 1.524 . S
C652 C666 1.377 . S
C653 C652 1.524 . S
C653 C654 1.397 . S
C653 C658 1.363 . S
C654 H631 0.950 . S
C654 C653 1.397 . S
C654 C655 1.334 . S
C655 H632 0.950 . S
C655 C654 1.334 . S
C655 C656 1.287 . S
C656 C655 1.287 . S
C656 C657 1.524 . S
C656 H675 0.913 . S
C657 H633 0.950 . S
C657 C656 1.524 . S
C657 C658 1.415 . S
C658 H634 0.950 . S
C658 C653 1.363 . S
C658 C657 1.415 . S
C659 H635 0.951 . S
C659 C660 1.366 . S
C659 C661 1.388 . S
C660 C659 1.366 . S
C660 C664 1.385 . S
C661 H636 0.951 . S
C661 C659 1.388 . S
C661 C662 1.366 . S
C662 C661 1.366 . S
C662 C663 1.414 . S
C662 C665 1.499 . S
C663 H637 0.950 . S
C663 C662 1.414 . S
C663 C664 1.374 . S
C664 H638 0.950 . S
C664 C660 1.385 . S
C664 C663 1.374 . S
C665 C662 1.499 . S
C665 C666 1.373 . S
C665 C667 1.389 . S
C666 H639 0.950 . S
C666 C652 1.377 . S
C666 C665 1.373 . S
C667 C651 1.377 . S
C667 C665 1.389 . S
C667 C668 1.524 . S
C668 C667 1.524 . S
C668 C669 1.397 . S
C668 C673 1.363 . S
C669 H640 0.950 . S
C669 C668 1.397 . S
C669 C670 1.334 . S
C670 H641 0.950 . S
C670 C669 1.334 . S
C670 C671 1.287 . S
C671 C670 1.287 . S
C671 C672 1.524 . S
C671 H674 0.999 . S
C672 H642 0.950 . S
C672 C671 1.524 . S
C672 C673 1.415 . S
C673 H643 0.950 . S
C673 C668 1.363 . S
C673 C672 1.415 . S
H674 C671 0.999 . S
H675 C656 0.913 . S
H676 C694 0.951 . S
H677 C696 0.951 . S
H678 C698 0.950 . S
H679 C699 0.950 . S
H680 C701 0.950 . S
H681 C704 0.950 . S
H682 C705 0.950 . S
H683 C707 0.950 . S
H684 C708 0.950 . S
H685 C709 0.951 . S
H686 C711 0.951 . S
H687 C713 0.950 . S
H688 C714 0.950 . S
H689 C716 0.950 . S
H690 C719 0.950 . S
H691 C720 0.950 . S
H692 C722 0.950 . S
H693 C723 0.968 . S
C694 H676 0.951 . S
C694 C695 1.366 1_556 S
C694 C696 1.388 . S
C695 C694 1.366 1_554 S
C695 C699 1.385 . S
C696 H677 0.951 . S
C696 C694 1.388 . S
C696 C697 1.366 . S
C697 C696 1.366 . S
C697 C698 1.414 1_556 S
C697 C700 1.499 . S
C698 H678 0.950 . S
C698 C697 1.414 1_554 S
C698 C699 1.374 . S
C699 H679 0.950 . S
C699 C695 1.385 . S
C699 C698 1.374 . S
C700 C697 1.499 . S
C700 C701 1.373 1_565 S
C700 C702 1.389 . S
C701 H680 0.950 . S
C701 C700 1.373 1_545 S
C701 C717 1.377 . S
C702 C700 1.389 . S
C702 C703 1.524 . S
C702 C716 1.377 1_565 S
C703 C702 1.524 . S
C703 C704 1.397 . S
C703 C708 1.363 . S
C704 H681 0.950 . S
C704 C703 1.397 . S
C704 C705 1.334 . S
C705 H682 0.950 . S
C705 C704 1.334 . S
C705 C706 1.287 . S
C706 C705 1.287 . S
C706 C707 1.524 . S
C706 H725 0.913 . S
C707 H683 0.950 . S
C707 C706 1.524 . S
C707 C708 1.415 . S
C708 H684 0.950 . S
C708 C703 1.363 . S
C708 C707 1.415 . S
C709 H685 0.951 . S
C709 C710 1.366 . S
C709 C711 1.388 . S
C710 C709 1.366 . S
C710 C714 1.385 . S
C711 H686 0.951 . S
C711 C709 1.388 . S
C711 C712 1.366 . S
C712 C711 1.366 . S
C712 C713 1.414 . S
C712 C715 1.499 . S
C713 H687 0.950 . S
C713 C712 1.414 . S
C713 C714 1.374 . S
C714 H688 0.950 . S
C714 C710 1.385 . S
C714 C713 1.374 . S
C715 C712 1.499 . S
C715 C716 1.373 . S
C715 C717 1.389 . S
C716 H689 0.950 . S
C716 C702 1.377 1_545 S
C716 C715 1.373 . S
C717 C701 1.377 . S
C717 C715 1.389 . S
C717 C718 1.524 . S
C718 C717 1.524 . S
C718 C719 1.397 . S
C718 C723 1.339 1_556 S
C719 H690 0.950 . S
C719 C718 1.397 . S
C719 C720 1.334 . S
C720 H691 0.950 . S
C720 C719 1.334 . S
C720 C721 1.287 . S
C721 C720 1.287 . S
C721 C722 1.524 1_556 S
C721 H724 0.999 . S
C722 H692 0.950 . S
C722 C721 1.524 1_554 S
C722 C723 1.421 . S
C723 H693 0.968 . S
C723 C718 1.339 1_554 S
C723 C722 1.421 . S
H724 C721 0.999 . S
H725 C706 0.913 . S
H726 C744 0.951 . S
H727 C746 0.951 . S
H728 C748 0.950 . S
H729 C749 0.950 . S
H730 C751 0.950 . S
H731 C754 0.950 . S
H732 C755 0.950 . S
H733 C757 0.950 . S
H734 C758 0.950 . S
H735 C759 0.951 . S
H736 C761 0.951 . S
H737 C763 0.950 . S
H738 C764 0.950 . S
H739 C766 0.950 . S
H740 C769 0.950 . S
H741 C770 0.950 . S
H742 C772 0.950 . S
H743 C773 0.950 . S
C744 H726 0.951 . S
C744 C745 1.366 . S
C744 C746 1.388 . S
C745 C744 1.366 . S
C745 C749 1.385 . S
C746 H727 0.951 . S
C746 C744 1.388 . S
C746 C747 1.366 . S
C747 C746 1.366 . S
C747 C748 1.414 . S
C747 C750 1.499 . S
C748 H728 0.950 . S
C748 C747 1.414 . S
C748 C749 1.374 . S
C749 H729 0.950 . S
C749 C745 1.385 . S
C749 C748 1.374 . S
C750 C747 1.499 . S
C750 C751 1.373 . S
C750 C752 1.389 . S
C751 H730 0.950 . S
C751 C750 1.373 . S
C751 C767 1.377 . S
C752 C750 1.389 . S
C752 C753 1.524 . S
C752 C766 1.377 . S
C753 C752 1.524 . S
C753 C754 1.397 . S
C753 C758 1.363 . S
C754 H731 0.950 . S
C754 C753 1.397 . S
C754 C755 1.334 . S
C755 H732 0.950 . S
C755 C754 1.334 . S
C755 C756 1.287 . S
C756 C755 1.287 . S
C756 C757 1.524 . S
C756 H775 0.913 . S
C757 H733 0.950 . S
C757 C756 1.524 . S
C757 C758 1.415 . S
C758 H734 0.950 . S
C758 C753 1.363 . S
C758 C757 1.415 . S
C759 H735 0.951 . S
C759 C760 1.366 . S
C759 C761 1.388 . S
C760 C759 1.366 . S
C760 C764 1.385 . S
C761 H736 0.951 . S
C761 C759 1.388 . S
C761 C762 1.366 . S
C762 C761 1.366 . S
C762 C763 1.414 . S
C762 C765 1.499 . S
C763 H737 0.950 . S
C763 C762 1.414 . S
C763 C764 1.374 . S
C764 H738 0.950 . S
C764 C760 1.385 . S
C764 C763 1.374 . S
C765 C762 1.499 . S
C765 C766 1.373 . S
C765 C767 1.389 . S
C766 H739 0.950 . S
C766 C752 1.377 . S
C766 C765 1.373 . S
C767 C751 1.377 . S
C767 C765 1.389 . S
C767 C768 1.524 . S
C768 C767 1.524 . S
C768 C769 1.397 . S
C768 C773 1.363 . S
C769 H740 0.950 . S
C769 C768 1.397 . S
C769 C770 1.334 . S
C770 H741 0.950 . S
C770 C769 1.334 . S
C770 C771 1.287 . S
C771 C770 1.287 . S
C771 C772 1.524 . S
C771 H774 0.999 . S
C772 H742 0.950 . S
C772 C771 1.524 . S
C772 C773 1.415 . S
C773 H743 0.950 . S
C773 C768 1.363 . S
C773 C772 1.415 . S
H774 C771 0.999 . S
H775 C756 0.913 . S
H776 C794 0.951 . S
H777 C796 0.951 . S
H778 C798 0.950 . S
H779 C799 0.950 . S
H780 C801 0.950 . S
H781 C804 0.950 . S
H782 C805 0.950 . S
H783 C807 0.950 . S
H784 C808 0.950 . S
H785 C809 0.951 . S
H786 C811 0.951 . S
H787 C813 0.950 . S
H788 C814 0.950 . S
H789 C816 0.950 . S
H790 C819 0.950 . S
H791 C820 0.950 . S
H792 C822 0.950 . S
H793 C823 0.950 . S
C794 H776 0.951 . S
C794 C795 1.366 . S
C794 C796 1.388 . S
C795 C794 1.366 . S
C795 C799 1.385 . S
C796 H777 0.951 . S
C796 C794 1.388 . S
C796 C797 1.366 . S
C797 C796 1.366 . S
C797 C798 1.414 . S
C797 C800 1.499 . S
C798 H778 0.950 . S
C798 C797 1.414 . S
C798 C799 1.374 . S
C799 H779 0.950 . S
C799 C795 1.385 . S
C799 C798 1.374 . S
C800 C797 1.499 . S
C800 C801 1.373 . S
C800 C802 1.389 . S
C801 H780 0.950 . S
C801 C800 1.373 . S
C801 C817 1.377 . S
C802 C800 1.389 . S
C802 C803 1.524 . S
C802 C816 1.377 . S
C803 C802 1.524 . S
C803 C804 1.397 . S
C803 C808 1.363 . S
C804 H781 0.950 . S
C804 C803 1.397 . S
C804 C805 1.334 . S
C805 H782 0.950 . S
C805 C804 1.334 . S
C805 C806 1.287 . S
C806 C805 1.287 . S
C806 C807 1.524 . S
C806 H825 0.913 . S
C807 H783 0.950 . S
C807 C806 1.524 . S
C807 C808 1.415 . S
C808 H784 0.950 . S
C808 C803 1.363 . S
C808 C807 1.415 . S
C809 H785 0.951 . S
C809 C810 1.366 . S
C809 C811 1.388 . S
C810 C809 1.366 . S
C810 C814 1.385 . S
C811 H786 0.951 . S
C811 C809 1.388 . S
C811 C812 1.366 . S
C812 C811 1.366 . S
C812 C813 1.414 . S
C812 C815 1.499 . S
C813 H787 0.950 . S
C813 C812 1.414 . S
C813 C814 1.374 . S
C814 H788 0.950 . S
C814 C810 1.385 . S
C814 C813 1.374 . S
C815 C812 1.499 . S
C815 C816 1.373 . S
C815 C817 1.389 . S
C816 H789 0.950 . S
C816 C802 1.377 . S
C816 C815 1.373 . S
C817 C801 1.377 . S
C817 C815 1.389 . S
C817 C818 1.524 . S
C818 C817 1.524 . S
C818 C819 1.397 . S
C818 C823 1.363 . S
C819 H790 0.950 . S
C819 C818 1.397 . S
C819 C820 1.334 . S
C820 H791 0.950 . S
C820 C819 1.334 . S
C820 C821 1.287 . S
C821 C820 1.287 . S
C821 C822 1.524 . S
C821 H824 0.999 . S
C822 H792 0.950 . S
C822 C821 1.524 . S
C822 C823 1.415 . S
C823 H793 0.950 . S
C823 C818 1.363 . S
C823 C822 1.415 . S
H824 C821 0.999 . S
H825 C806 0.913 . S
H826 C844 0.951 . S
H827 C846 0.951 1_655 S
H828 C848 0.935 1_655 S
H829 C849 0.950 . S
H830 C851 0.950 . S
H831 C854 0.950 . S
H832 C855 0.950 . S
H833 C857 0.950 . S
H834 C858 0.950 . S
H835 C859 0.951 . S
H836 C861 0.951 . S
H837 C863 0.950 . S
H838 C864 0.950 . S
H839 C866 0.950 . S
H840 C869 0.950 . S
H841 C870 0.950 . S
H842 C872 0.950 . S
H843 C873 0.950 . S
C844 H826 0.951 . S
C844 C845 1.366 . S
C844 C846 1.388 . S
C845 C844 1.366 . S
C845 C849 1.385 . S
C846 H827 0.951 1_455 S
C846 C844 1.388 . S
C846 C847 1.366 1_455 S
C847 C846 1.366 1_655 S
C847 C848 1.414 1_655 S
C847 C850 1.499 . S
C848 H828 0.935 1_455 S
C848 C847 1.414 1_455 S
C848 C849 1.374 . S
C849 H829 0.950 . S
C849 C845 1.385 . S
C849 C848 1.374 . S
C850 C847 1.499 . S
C850 C851 1.373 . S
C850 C852 1.389 . S
C851 H830 0.950 . S
C851 C850 1.373 . S
C851 C867 1.377 . S
C852 C850 1.389 . S
C852 C853 1.524 . S
C852 C866 1.377 . S
C853 C852 1.524 . S
C853 C854 1.397 . S
C853 C858 1.363 . S
C854 H831 0.950 . S
C854 C853 1.397 . S
C854 C855 1.334 . S
C855 H832 0.950 . S
C855 C854 1.334 . S
C855 C856 1.287 . S
C856 C855 1.287 . S
C856 C857 1.524 . S
C856 H875 0.913 1_554 S
C857 H833 0.950 . S
C857 C856 1.524 . S
C857 C858 1.415 . S
C858 H834 0.950 . S
C858 C853 1.363 . S
C858 C857 1.415 . S
C859 H835 0.951 . S
C859 C860 1.366 . S
C859 C861 1.388 . S
C860 C859 1.366 . S
C860 C864 1.385 . S
C861 H836 0.951 . S
C861 C859 1.388 . S
C861 C862 1.366 . S
C862 C861 1.366 . S
C862 C863 1.414 . S
C862 C865 1.499 . S
C863 H837 0.950 . S
C863 C862 1.414 . S
C863 C864 1.374 . S
C864 H838 0.950 . S
C864 C860 1.385 . S
C864 C863 1.374 . S
C865 C862 1.499 . S
C865 C866 1.373 . S
C865 C867 1.389 . S
C866 H839 0.950 . S
C866 C852 1.377 . S
C866 C865 1.373 . S
C867 C851 1.377 . S
C867 C865 1.389 . S
C867 C868 1.524 . S
C868 C867 1.524 . S
C868 C869 1.397 . S
C868 C873 1.363 . S
C869 H840 0.950 . S
C869 C868 1.397 . S
C869 C870 1.334 . S
C870 H841 0.950 . S
C870 C869 1.334 . S
C870 C871 1.287 . S
C871 C870 1.287 . S
C871 C872 1.524 . S
C871 H874 0.999 . S
C872 H842 0.950 . S
C872 C871 1.524 . S
C872 C873 1.415 . S
C873 H843 0.950 . S
C873 C868 1.363 . S
C873 C872 1.415 . S
H874 C871 0.999 . S
H875 C856 0.913 1_556 S
H876 C894 0.951 . S
H877 C896 0.951 . S
H878 C898 0.950 . S
H879 C899 0.950 . S
H880 C901 0.950 . S
H881 C904 0.950 . S
H882 C905 0.950 . S
H883 C907 0.950 . S
H884 C908 0.950 . S
H885 C909 0.951 . S
H886 C911 0.951 . S
H887 C913 0.950 . S
H888 C914 0.950 . S
H889 C916 0.950 . S
H890 C919 0.950 . S
H891 C920 0.950 . S
H892 C922 0.950 . S
H893 C923 0.950 . S
C894 H876 0.951 . S
C894 C895 1.366 . S
C894 C896 1.388 . S
C895 C894 1.366 . S
C895 C899 1.385 . S
C896 H877 0.951 . S
C896 C894 1.388 . S
C896 C897 1.366 . S
C897 C896 1.366 . S
C897 C898 1.414 . S
C897 C900 1.499 . S
C898 H878 0.950 . S
C898 C897 1.414 . S
C898 C899 1.374 . S
C899 H879 0.950 . S
C899 C895 1.385 . S
C899 C898 1.374 . S
C900 C897 1.499 . S
C900 C901 1.373 . S
C900 C902 1.389 . S
C901 H880 0.950 . S
C901 C900 1.373 . S
C901 C917 1.377 . S
C902 C900 1.389 . S
C902 C903 1.524 . S
C902 C916 1.377 . S
C903 C902 1.524 . S
C903 C904 1.397 . S
C903 C908 1.363 . S
C904 H881 0.950 . S
C904 C903 1.397 . S
C904 C905 1.334 . S
C905 H882 0.950 . S
C905 C904 1.334 . S
C905 C906 1.287 . S
C906 C905 1.287 . S
C906 C907 1.524 . S
C906 H925 0.913 . S
C907 H883 0.950 . S
C907 C906 1.524 . S
C907 C908 1.415 . S
C908 H884 0.950 . S
C908 C903 1.363 . S
C908 C907 1.415 . S
C909 H885 0.951 . S
C909 C910 1.366 . S
C909 C911 1.388 . S
C910 C909 1.366 . S
C910 C914 1.385 . S
C911 H886 0.951 . S
C911 C909 1.388 . S
C911 C912 1.366 . S
C912 C911 1.366 . S
C912 C913 1.414 . S
C912 C915 1.499 . S
C913 H887 0.950 . S
C913 C912 1.414 . S
C913 C914 1.374 . S
C914 H888 0.950 . S
C914 C910 1.385 . S
C914 C913 1.374 . S
C915 C912 1.499 . S
C915 C916 1.373 . S
C915 C917 1.389 . S
C916 H889 0.950 . S
C916 C902 1.377 . S
C916 C915 1.373 . S
C917 C901 1.377 . S
C917 C915 1.389 . S
C917 C918 1.524 . S
C918 C917 1.524 . S
C918 C919 1.397 . S
C918 C923 1.363 . S
C919 H890 0.950 . S
C919 C918 1.397 . S
C919 C920 1.334 . S
C920 H891 0.950 . S
C920 C919 1.334 . S
C920 C921 1.287 . S
C921 C920 1.287 . S
C921 C922 1.524 . S
C921 H924 0.999 . S
C922 H892 0.950 . S
C922 C921 1.524 . S
C922 C923 1.415 . S
C923 H893 0.950 . S
C923 C918 1.363 . S
C923 C922 1.415 . S
H924 C921 0.999 . S
H925 C906 0.913 . S
H926 C944 0.951 . S
H927 C946 0.951 . S
H928 C948 0.950 . S
H929 C949 0.950 . S
H930 C951 0.950 . S
H931 C954 0.950 . S
H932 C955 0.950 . S
H933 C957 0.950 . S
H934 C958 0.950 . S
H935 C959 0.951 . S
H936 C961 0.951 . S
H937 C963 0.950 1_655 S
H938 C964 0.950 . S
H939 C966 0.950 . S
H940 C969 0.950 . S
H941 C970 0.950 . S
H942 C972 0.950 . S
H943 C973 0.950 . S
C944 H926 0.951 . S
C944 C945 1.366 . S
C944 C946 1.388 . S
C945 C944 1.366 . S
C945 C949 1.385 . S
C946 H927 0.951 . S
C946 C944 1.388 . S
C946 C947 1.366 . S
C947 C946 1.366 . S
C947 C948 1.414 . S
C947 C950 1.499 . S
C948 H928 0.950 . S
C948 C947 1.414 . S
C948 C949 1.374 . S
C949 H929 0.950 . S
C949 C945 1.385 . S
C949 C948 1.374 . S
C950 C947 1.499 . S
C950 C951 1.373 . S
C950 C952 1.389 . S
C951 H930 0.950 . S
C951 C950 1.373 . S
C951 C967 1.377 1_655 S
C952 C950 1.389 . S
C952 C953 1.524 . S
C952 C966 1.377 . S
C953 C952 1.524 . S
C953 C954 1.397 . S
C953 C958 1.363 . S
C954 H931 0.950 . S
C954 C953 1.397 . S
C954 C955 1.334 . S
C955 H932 0.950 . S
C955 C954 1.334 . S
C955 C956 1.287 . S
C956 C955 1.287 . S
C956 C957 1.524 . S
C956 H975 0.913 . S
C957 H933 0.950 . S
C957 C956 1.524 . S
C957 C958 1.415 . S
C958 H934 0.950 . S
C958 C953 1.363 . S
C958 C957 1.415 . S
C959 H935 0.951 . S
C959 C960 1.366 . S
C959 C961 1.388 . S
C960 C959 1.366 . S
C960 C964 1.385 . S
C961 H936 0.951 . S
C961 C959 1.388 . S
C961 C962 1.366 . S
C962 C961 1.366 . S
C962 C963 1.414 . S
C962 C965 1.499 . S
C963 H937 0.950 1_455 S
C963 C962 1.414 . S
C963 C964 1.374 . S
C964 H938 0.950 . S
C964 C960 1.385 . S
C964 C963 1.374 . S
C965 C962 1.499 . S
C965 C966 1.373 1_455 S
C965 C967 1.389 . S
C966 H939 0.950 . S
C966 C952 1.377 . S
C966 C965 1.373 1_655 S
C967 C951 1.377 1_455 S
C967 C965 1.389 . S
C967 C968 1.524 . S
C968 C967 1.524 . S
C968 C969 1.397 . S
C968 C973 1.363 . S
C969 H940 0.950 . S
C969 C968 1.397 . S
C969 C970 1.334 . S
C970 H941 0.950 . S
C970 C969 1.334 . S
C970 C971 1.287 . S
C971 C970 1.287 . S
C971 C972 1.524 . S
C971 H974 0.999 . S
C972 H942 0.950 . S
C972 C971 1.524 . S
C972 C973 1.415 . S
C973 H943 0.950 . S
C973 C968 1.363 . S
C973 C972 1.415 . S
H974 C971 0.999 . S
H975 C956 0.913 . S
H976 C994 0.951 . S
H977 C996 0.951 . S
H978 C998 0.950 . S
H979 C999 0.950 . S
H980 C1001 0.950 . S
H981 C1004 0.950 . S
H982 C1005 0.950 . S
H983 C1007 0.950 . S
H984 C1008 0.950 . S
H985 C1009 0.951 . S
H986 C1011 0.951 . S
H987 C1013 0.950 . S
H988 C1014 0.950 . S
H989 C1016 0.950 . S
H990 C1019 0.950 . S
H991 C1020 0.950 . S
H992 C1022 0.950 . S
H993 C1023 0.950 . S
C994 H976 0.951 . S
C994 C995 1.366 . S
C994 C996 1.388 . S
C995 C994 1.366 . S
C995 C999 1.385 . S
C996 H977 0.951 . S
C996 C994 1.388 . S
C996 C997 1.366 . S
C997 C996 1.366 . S
C997 C998 1.414 . S
C997 C1000 1.499 . S
C998 H978 0.950 . S
C998 C997 1.414 . S
C998 C999 1.374 . S
C999 H979 0.950 . S
C999 C995 1.385 . S
C999 C998 1.374 . S
C1000 C997 1.499 . S
C1000 C1001 1.373 . S
C1000 C1002 1.389 . S
C1001 H980 0.950 . S
C1001 C1000 1.373 . S
C1001 C1017 1.377 . S
C1002 C1000 1.389 . S
C1002 C1003 1.524 . S
C1002 C1016 1.377 . S
C1003 C1002 1.524 . S
C1003 C1004 1.397 . S
C1003 C1008 1.363 . S
C1004 H981 0.950 . S
C1004 C1003 1.397 . S
C1004 C1005 1.334 . S
C1005 H982 0.950 . S
C1005 C1004 1.334 . S
C1005 C1006 1.287 . S
C1006 C1005 1.287 . S
C1006 C1007 1.524 . S
C1006 H1025 0.913 . S
C1007 H983 0.950 . S
C1007 C1006 1.524 . S
C1007 C1008 1.415 . S
C1008 H984 0.950 . S
C1008 C1003 1.363 . S
C1008 C1007 1.415 . S
C1009 H985 0.951 . S
C1009 C1010 1.366 . S
C1009 C1011 1.388 . S
C1010 C1009 1.366 . S
C1010 C1014 1.385 . S
C1011 H986 0.951 . S
C1011 C1009 1.388 . S
C1011 C1012 1.366 . S
C1012 C1011 1.366 . S
C1012 C1013 1.414 . S
C1012 C1015 1.499 . S
C1013 H987 0.950 . S
C1013 C1012 1.414 . S
C1013 C1014 1.374 . S
C1014 H988 0.950 . S
C1014 C1010 1.385 . S
C1014 C1013 1.374 . S
C1015 C1012 1.499 . S
C1015 C1016 1.373 . S
C1015 C1017 1.389 . S
C1016 H989 0.950 . S
C1016 C1002 1.377 . S
C1016 C1015 1.373 . S
C1017 C1001 1.377 . S
C1017 C1015 1.389 . S
C1017 C1018 1.524 . S
C1018 C1017 1.524 . S
C1018 C1019 1.397 . S
C1018 C1023 1.363 . S
C1019 H990 0.950 . S
C1019 C1018 1.397 . S
C1019 C1020 1.334 . S
C1020 H991 0.950 . S
C1020 C1019 1.334 . S
C1020 C1021 1.287 . S
C1021 C1020 1.287 . S
C1021 C1022 1.524 . S
C1021 H1024 0.999 . S
C1022 H992 0.950 . S
C1022 C1021 1.524 . S
C1022 C1023 1.415 . S
C1023 H993 0.950 . S
C1023 C1018 1.363 . S
C1023 C1022 1.415 . S
H1024 C1021 0.999 . S
H1025 C1006 0.913 . S
H1026 C1044 0.951 . S
H1027 C1046 0.951 . S
H1028 C1048 0.950 . S
H1029 C1049 0.950 . S
H1030 C1051 0.950 . S
H1031 C1054 0.950 . S
H1032 C1055 0.950 . S
H1033 C1057 0.950 . S
H1034 C1058 0.950 . S
H1035 C1059 0.951 . S
H1036 C1061 0.951 . S
H1037 C1063 0.950 . S
H1038 C1064 0.950 . S
H1039 C1066 0.950 . S
H1040 C1069 0.950 . S
H1041 C1070 0.950 . S
H1042 C1072 0.950 . S
H1043 C1073 0.950 . S
C1044 H1026 0.951 . S
C1044 C1045 1.366 . S
C1044 C1046 1.388 . S
C1045 C1044 1.366 . S
C1045 C1049 1.385 . S
C1046 H1027 0.951 . S
C1046 C1044 1.388 . S
C1046 C1047 1.366 . S
C1047 C1046 1.366 . S
C1047 C1048 1.414 . S
C1047 C1050 1.499 . S
C1048 H1028 0.950 . S
C1048 C1047 1.414 . S
C1048 C1049 1.374 . S
C1049 H1029 0.950 . S
C1049 C1045 1.385 . S
C1049 C1048 1.374 . S
C1050 C1047 1.499 . S
C1050 C1051 1.373 . S
C1050 C1052 1.389 . S
C1051 H1030 0.950 . S
C1051 C1050 1.373 . S
C1051 C1067 1.377 . S
C1052 C1050 1.389 . S
C1052 C1053 1.524 . S
C1052 C1066 1.377 . S
C1053 C1052 1.524 . S
C1053 C1054 1.397 . S
C1053 C1058 1.363 . S
C1054 H1031 0.950 . S
C1054 C1053 1.397 . S
C1054 C1055 1.334 . S
C1055 H1032 0.950 . S
C1055 C1054 1.334 . S
C1055 C1056 1.287 . S
C1056 C1055 1.287 . S
C1056 C1057 1.524 . S
C1056 H1075 0.913 . S
C1057 H1033 0.950 . S
C1057 C1056 1.524 . S
C1057 C1058 1.415 . S
C1058 H1034 0.950 . S
C1058 C1053 1.363 . S
C1058 C1057 1.415 . S
C1059 H1035 0.951 . S
C1059 C1060 1.366 . S
C1059 C1061 1.388 . S
C1060 C1059 1.366 . S
C1060 C1064 1.385 . S
C1061 H1036 0.951 . S
C1061 C1059 1.388 . S
C1061 C1062 1.366 . S
C1062 C1061 1.366 . S
C1062 C1063 1.414 . S
C1062 C1065 1.499 . S
C1063 H1037 0.950 . S
C1063 C1062 1.414 . S
C1063 C1064 1.374 . S
C1064 H1038 0.950 . S
C1064 C1060 1.385 . S
C1064 C1063 1.374 . S
C1065 C1062 1.499 . S
C1065 C1066 1.373 . S
C1065 C1067 1.389 . S
C1066 H1039 0.950 . S
C1066 C1052 1.377 . S
C1066 C1065 1.373 . S
C1067 C1051 1.377 . S
C1067 C1065 1.389 . S
C1067 C1068 1.524 . S
C1068 C1067 1.524 . S
C1068 C1069 1.397 . S
C1068 C1073 1.363 . S
C1069 H1040 0.950 . S
C1069 C1068 1.397 . S
C1069 C1070 1.334 . S
C1070 H1041 0.950 . S
C1070 C1069 1.334 . S
C1070 C1071 1.287 . S
C1071 C1070 1.287 . S
C1071 C1072 1.524 . S
C1071 H1074 0.999 . S
C1072 H1042 0.950 . S
C1072 C1071 1.524 . S
C1072 C1073 1.415 . S
C1073 H1043 0.950 . S
C1073 C1068 1.363 . S
C1073 C1072 1.415 . S
H1074 C1071 0.999 . S
H1075 C1056 0.913 . S
H1076 C1094 0.951 . S
H1077 C1096 0.951 . S
H1078 C1098 0.950 . S
H1079 C1099 0.950 . S
H1080 C1101 0.950 . S
H1081 C1104 0.950 . S
H1082 C1105 0.950 . S
H1083 C1107 0.950 . S
H1084 C1108 0.950 . S
H1085 C1109 0.951 . S
H1086 C1111 0.951 . S
H1087 C1113 0.950 . S
H1088 C1114 0.950 . S
H1089 C1116 0.950 . S
H1090 C1119 0.950 . S
H1091 C1120 0.950 . S
H1092 C1122 0.950 . S
H1093 C1123 0.950 . S
C1094 H1076 0.951 . S
C1094 C1095 1.366 . S
C1094 C1096 1.388 . S
C1095 C1094 1.366 . S
C1095 C1099 1.385 . S
C1096 H1077 0.951 . S
C1096 C1094 1.388 . S
C1096 C1097 1.366 . S
C1097 C1096 1.366 . S
C1097 C1098 1.414 . S
C1097 C1100 1.499 . S
C1098 H1078 0.950 . S
C1098 C1097 1.414 . S
C1098 C1099 1.374 . S
C1099 H1079 0.950 . S
C1099 C1095 1.385 . S
C1099 C1098 1.374 . S
C1100 C1097 1.499 . S
C1100 C1101 1.373 . S
C1100 C1102 1.389 . S
C1101 H1080 0.950 . S
C1101 C1100 1.373 . S
C1101 C1117 1.377 . S
C1102 C1100 1.389 . S
C1102 C1103 1.524 . S
C1102 C1116 1.377 . S
C1103 C1102 1.524 . S
C1103 C1104 1.397 . S
C1103 C1108 1.363 . S
C1104 H1081 0.950 . S
C1104 C1103 1.397 . S
C1104 C1105 1.334 . S
C1105 H1082 0.950 . S
C1105 C1104 1.334 . S
C1105 C1106 1.287 . S
C1106 C1105 1.287 . S
C1106 C1107 1.524 . S
C1106 H1125 0.913 . S
C1107 H1083 0.950 . S
C1107 C1106 1.524 . S
C1107 C1108 1.415 . S
C1108 H1084 0.950 . S
C1108 C1103 1.363 . S
C1108 C1107 1.415 . S
C1109 H1085 0.951 . S
C1109 C1110 1.366 . S
C1109 C1111 1.388 . S
C1110 C1109 1.366 . S
C1110 C1114 1.385 . S
C1111 H1086 0.951 . S
C1111 C1109 1.388 . S
C1111 C1112 1.366 . S
C1112 C1111 1.366 . S
C1112 C1113 1.414 . S
C1112 C1115 1.499 . S
C1113 H1087 0.950 . S
C1113 C1112 1.414 . S
C1113 C1114 1.374 . S
C1114 H1088 0.950 . S
C1114 C1110 1.385 . S
C1114 C1113 1.374 . S
C1115 C1112 1.499 . S
C1115 C1116 1.373 . S
C1115 C1117 1.389 . S
C1116 H1089 0.950 . S
C1116 C1102 1.377 . S
C1116 C1115 1.373 . S
C1117 C1101 1.377 . S
C1117 C1115 1.389 . S
C1117 C1118 1.524 . S
C1118 C1117 1.524 . S
C1118 C1119 1.397 . S
C1118 C1123 1.363 . S
C1119 H1090 0.950 . S
C1119 C1118 1.397 . S
C1119 C1120 1.334 . S
C1120 H1091 0.950 . S
C1120 C1119 1.334 . S
C1120 C1121 1.287 . S
C1121 C1120 1.287 . S
C1121 C1122 1.524 . S
C1121 H1124 0.999 . S
C1122 H1092 0.950 . S
C1122 C1121 1.524 . S
C1122 C1123 1.415 . S
C1123 H1093 0.950 . S
C1123 C1118 1.363 . S
C1123 C1122 1.415 . S
H1124 C1121 0.999 . S
H1125 C1106 0.913 . S
H1126 C1144 0.951 . S
H1127 C1146 0.951 . S
H1128 C1148 0.950 . S
H1129 C1149 0.950 . S
H1130 C1151 0.950 . S
H1131 C1154 0.950 . S
H1132 C1155 0.950 . S
H1133 C1157 0.950 . S
H1134 C1158 0.950 . S
H1135 C1159 0.951 . S
H1136 C1161 0.951 . S
H1137 C1163 0.950 . S
H1138 C1164 0.950 . S
H1139 C1166 0.950 . S
H1140 C1169 0.950 . S
H1141 C1170 0.950 . S
H1142 C1172 0.950 . S
H1143 C1173 0.950 . S
C1144 H1126 0.951 . S
C1144 C1145 1.366 . S
C1144 C1146 1.388 . S
C1145 C1144 1.366 . S
C1145 C1149 1.385 . S
C1146 H1127 0.951 . S
C1146 C1144 1.388 . S
C1146 C1147 1.366 . S
C1147 C1146 1.366 . S
C1147 C1148 1.414 . S
C1147 C1150 1.499 . S
C1148 H1128 0.950 . S
C1148 C1147 1.414 . S
C1148 C1149 1.374 . S
C1149 H1129 0.950 . S
C1149 C1145 1.385 . S
C1149 C1148 1.374 . S
C1150 C1147 1.499 . S
C1150 C1151 1.373 . S
C1150 C1152 1.389 . S
C1151 H1130 0.950 . S
C1151 C1150 1.373 . S
C1151 C1167 1.377 . S
C1152 C1150 1.389 . S
C1152 C1153 1.524 . S
C1152 C1166 1.377 . S
C1153 C1152 1.524 . S
C1153 C1154 1.397 . S
C1153 C1158 1.363 . S
C1154 H1131 0.950 . S
C1154 C1153 1.397 . S
C1154 C1155 1.334 . S
C1155 H1132 0.950 . S
C1155 C1154 1.334 . S
C1155 C1156 1.287 . S
C1156 C1155 1.287 . S
C1156 C1157 1.524 . S
C1156 H1175 0.913 . S
C1157 H1133 0.950 . S
C1157 C1156 1.524 . S
C1157 C1158 1.415 . S
C1158 H1134 0.950 . S
C1158 C1153 1.363 . S
C1158 C1157 1.415 . S
C1159 H1135 0.951 . S
C1159 C1160 1.366 . S
C1159 C1161 1.388 . S
C1160 C1159 1.366 . S
C1160 C1164 1.385 . S
C1161 H1136 0.951 . S
C1161 C1159 1.388 . S
C1161 C1162 1.366 . S
C1162 C1161 1.366 . S
C1162 C1163 1.414 . S
C1162 C1165 1.499 . S
C1163 H1137 0.950 . S
C1163 C1162 1.414 . S
C1163 C1164 1.374 . S
C1164 H1138 0.950 . S
C1164 C1160 1.385 . S
C1164 C1163 1.374 . S
C1165 C1162 1.499 . S
C1165 C1166 1.373 . S
C1165 C1167 1.389 . S
C1166 H1139 0.950 . S
C1166 C1152 1.377 . S
C1166 C1165 1.373 . S
C1167 C1151 1.377 . S
C1167 C1165 1.389 . S
C1167 C1168 1.524 . S
C1168 C1167 1.524 . S
C1168 C1169 1.397 . S
C1168 C1173 1.363 . S
C1169 H1140 0.950 . S
C1169 C1168 1.397 . S
C1169 C1170 1.334 . S
C1170 H1141 0.950 . S
C1170 C1169 1.334 . S
C1170 C1171 1.287 . S
C1171 C1170 1.287 . S
C1171 C1172 1.524 . S
C1171 H1174 0.999 . S
C1172 H1142 0.950 . S
C1172 C1171 1.524 . S
C1172 C1173 1.415 . S
C1173 H1143 0.950 . S
C1173 C1168 1.363 . S
C1173 C1172 1.415 . S
H1174 C1171 0.999 . S
H1175 C1156 0.913 . S
H1176 C1194 0.951 . S
H1177 C1196 0.951 . S
H1178 C1198 0.950 . S
H1179 C1199 0.950 . S
H1180 C1201 0.950 . S
H1181 C1204 0.950 . S
H1182 C1205 0.950 . S
H1183 C1207 0.950 . S
H1184 C1208 0.950 . S
H1185 C1209 0.951 . S
H1186 C1211 0.951 . S
H1187 C1213 0.950 . S
H1188 C1214 0.950 . S
H1189 C1216 0.950 . S
H1190 C1219 0.950 . S
H1191 C1220 0.950 . S
H1192 C1222 0.950 . S
H1193 C1223 0.950 . S
C1194 H1176 0.951 . S
C1194 C1195 1.366 . S
C1194 C1196 1.388 . S
C1195 C1194 1.366 . S
C1195 C1199 1.385 . S
C1196 H1177 0.951 . S
C1196 C1194 1.388 . S
C1196 C1197 1.366 . S
C1197 C1196 1.366 . S
C1197 C1198 1.414 . S
C1197 C1200 1.499 . S
C1198 H1178 0.950 . S
C1198 C1197 1.414 . S
C1198 C1199 1.374 . S
C1199 H1179 0.950 . S
C1199 C1195 1.385 . S
C1199 C1198 1.374 . S
C1200 C1197 1.499 . S
C1200 C1201 1.373 . S
C1200 C1202 1.389 . S
C1201 H1180 0.950 . S
C1201 C1200 1.373 . S
C1201 C1217 1.377 . S
C1202 C1200 1.389 . S
C1202 C1203 1.524 . S
C1202 C1216 1.377 . S
C1203 C1202 1.524 . S
C1203 C1204 1.397 . S
C1203 C1208 1.363 . S
C1204 H1181 0.950 . S
C1204 C1203 1.397 . S
C1204 C1205 1.334 . S
C1205 H1182 0.950 . S
C1205 C1204 1.334 . S
C1205 C1206 1.287 . S
C1206 C1205 1.287 . S
C1206 C1207 1.524 . S
C1206 H1225 0.913 . S
C1207 H1183 0.950 . S
C1207 C1206 1.524 . S
C1207 C1208 1.415 . S
C1208 H1184 0.950 . S
C1208 C1203 1.363 . S
C1208 C1207 1.415 . S
C1209 H1185 0.951 . S
C1209 C1210 1.366 . S
C1209 C1211 1.388 . S
C1210 C1209 1.366 . S
C1210 C1214 1.385 . S
C1211 H1186 0.951 . S
C1211 C1209 1.388 . S
C1211 C1212 1.366 . S
C1212 C1211 1.366 . S
C1212 C1213 1.414 . S
C1212 C1215 1.499 . S
C1213 H1187 0.950 . S
C1213 C1212 1.414 . S
C1213 C1214 1.374 . S
C1214 H1188 0.950 . S
C1214 C1210 1.385 . S
C1214 C1213 1.374 . S
C1215 C1212 1.499 . S
C1215 C1216 1.373 . S
C1215 C1217 1.389 . S
C1216 H1189 0.950 . S
C1216 C1202 1.377 . S
C1216 C1215 1.373 . S
C1217 C1201 1.377 . S
C1217 C1215 1.389 . S
C1217 C1218 1.524 . S
C1218 C1217 1.524 . S
C1218 C1219 1.397 . S
C1218 C1223 1.363 . S
C1219 H1190 0.950 . S
C1219 C1218 1.397 . S
C1219 C1220 1.334 . S
C1220 H1191 0.950 . S
C1220 C1219 1.334 . S
C1220 C1221 1.287 . S
C1221 C1220 1.287 . S
C1221 C1222 1.524 . S
C1221 H1224 0.999 . S
C1222 H1192 0.950 . S
C1222 C1221 1.524 . S
C1222 C1223 1.415 . S
C1223 H1193 0.950 . S
C1223 C1218 1.363 . S
C1223 C1222 1.415 . S
H1224 C1221 0.999 . S
H1225 C1206 0.913 . S
H1226 C1244 0.951 . S
H1227 C1246 0.951 . S
H1228 C1248 0.950 . S
H1229 C1249 0.950 . S
H1230 C1251 0.950 . S
H1231 C1254 0.950 . S
H1232 C1255 0.950 . S
H1233 C1257 0.950 . S
H1234 C1258 0.950 . S
H1235 C1259 0.951 . S
H1236 C1261 0.951 . S
H1237 C1263 0.950 . S
H1238 C1264 0.950 . S
H1239 C1266 0.950 . S
H1240 C1269 0.950 . S
H1241 C1270 0.950 . S
H1242 C1272 0.950 . S
H1243 C1273 0.950 . S
C1244 H1226 0.951 . S
C1244 C1245 1.366 . S
C1244 C1246 1.388 . S
C1245 C1244 1.366 . S
C1245 C1249 1.385 . S
C1246 H1227 0.951 . S
C1246 C1244 1.388 . S
C1246 C1247 1.366 . S
C1247 C1246 1.366 . S
C1247 C1248 1.414 . S
C1247 C1250 1.499 . S
C1248 H1228 0.950 . S
C1248 C1247 1.414 . S
C1248 C1249 1.374 . S
C1249 H1229 0.950 . S
C1249 C1245 1.385 . S
C1249 C1248 1.374 . S
C1250 C1247 1.499 . S
C1250 C1251 1.373 . S
C1250 C1252 1.389 . S
C1251 H1230 0.950 . S
C1251 C1250 1.373 . S
C1251 C1267 1.377 . S
C1252 C1250 1.389 . S
C1252 C1253 1.524 . S
C1252 C1266 1.377 . S
C1253 C1252 1.524 . S
C1253 C1254 1.397 . S
C1253 C1258 1.363 . S
C1254 H1231 0.950 . S
C1254 C1253 1.397 . S
C1254 C1255 1.334 . S
C1255 H1232 0.950 . S
C1255 C1254 1.334 . S
C1255 C1256 1.287 . S
C1256 C1255 1.287 . S
C1256 C1257 1.524 . S
C1256 H1275 0.913 . S
C1257 H1233 0.950 . S
C1257 C1256 1.524 . S
C1257 C1258 1.415 . S
C1258 H1234 0.950 . S
C1258 C1253 1.363 . S
C1258 C1257 1.415 . S
C1259 H1235 0.951 . S
C1259 C1260 1.366 . S
C1259 C1261 1.388 . S
C1260 C1259 1.366 . S
C1260 C1264 1.385 . S
C1261 H1236 0.951 . S
C1261 C1259 1.388 . S
C1261 C1262 1.366 . S
C1262 C1261 1.366 . S
C1262 C1263 1.414 . S
C1262 C1265 1.499 . S
C1263 H1237 0.950 . S
C1263 C1262 1.414 . S
C1263 C1264 1.374 . S
C1264 H1238 0.950 . S
C1264 C1260 1.385 . S
C1264 C1263 1.374 . S
C1265 C1262 1.499 . S
C1265 C1266 1.373 . S
C1265 C1267 1.389 . S
C1266 H1239 0.950 . S
C1266 C1252 1.377 . S
C1266 C1265 1.373 . S
C1267 C1251 1.377 . S
C1267 C1265 1.389 . S
C1267 C1268 1.524 . S
C1268 C1267 1.524 . S
C1268 C1269 1.397 . S
C1268 C1273 1.363 . S
C1269 H1240 0.950 . S
C1269 C1268 1.397 . S
C1269 C1270 1.334 . S
C1270 H1241 0.950 . S
C1270 C1269 1.334 . S
C1270 C1271 1.287 . S
C1271 C1270 1.287 . S
C1271 C1272 1.524 . S
C1271 H1274 0.999 . S
C1272 H1242 0.950 . S
C1272 C1271 1.524 . S
C1272 C1273 1.415 . S
C1273 H1243 0.950 . S
C1273 C1268 1.363 . S
C1273 C1272 1.415 . S
H1274 C1271 0.999 . S
H1275 C1256 0.913 . S
H1276 C1294 0.951 . S
H1277 C1296 0.951 . S
H1278 C1298 0.950 . S
H1279 C1299 0.950 . S
H1280 C1301 0.950 . S
H1281 C1304 0.950 . S
H1282 C1305 0.950 . S
H1283 C1307 0.950 . S
H1284 C1308 0.950 . S
H1285 C1309 0.951 . S
H1286 C1311 0.951 . S
H1287 C1313 0.950 . S
H1288 C1314 0.950 . S
H1289 C1316 0.950 . S
H1290 C1319 0.950 . S
H1291 C1320 0.950 . S
H1292 C1322 0.950 . S
H1293 C1323 0.950 . S
C1294 H1276 0.951 . S
C1294 C1295 1.366 . S
C1294 C1296 1.388 . S
C1295 C1294 1.366 . S
C1295 C1299 1.385 . S
C1296 H1277 0.951 . S
C1296 C1294 1.388 . S
C1296 C1297 1.366 . S
C1297 C1296 1.366 . S
C1297 C1298 1.414 . S
C1297 C1300 1.499 . S
C1298 H1278 0.950 . S
C1298 C1297 1.414 . S
C1298 C1299 1.374 . S
C1299 H1279 0.950 . S
C1299 C1295 1.385 . S
C1299 C1298 1.374 . S
C1300 C1297 1.499 . S
C1300 C1301 1.373 . S
C1300 C1302 1.389 . S
C1301 H1280 0.950 . S
C1301 C1300 1.373 . S
C1301 C1317 1.377 . S
C1302 C1300 1.389 . S
C1302 C1303 1.524 . S
C1302 C1316 1.377 . S
C1303 C1302 1.524 . S
C1303 C1304 1.397 . S
C1303 C1308 1.363 . S
C1304 H1281 0.950 . S
C1304 C1303 1.397 . S
C1304 C1305 1.334 . S
C1305 H1282 0.950 . S
C1305 C1304 1.334 . S
C1305 C1306 1.287 . S
C1306 C1305 1.287 . S
C1306 C1307 1.524 . S
C1306 H1325 0.913 . S
C1307 H1283 0.950 . S
C1307 C1306 1.524 . S
C1307 C1308 1.415 . S
C1308 H1284 0.950 . S
C1308 C1303 1.363 . S
C1308 C1307 1.415 . S
C1309 H1285 0.951 . S
C1309 C1310 1.366 . S
C1309 C1311 1.388 . S
C1310 C1309 1.366 . S
C1310 C1314 1.385 . S
C1311 H1286 0.951 . S
C1311 C1309 1.388 . S
C1311 C1312 1.366 . S
C1312 C1311 1.366 . S
C1312 C1313 1.414 . S
C1312 C1315 1.499 . S
C1313 H1287 0.950 . S
C1313 C1312 1.414 . S
C1313 C1314 1.374 . S
C1314 H1288 0.950 . S
C1314 C1310 1.385 . S
C1314 C1313 1.374 . S
C1315 C1312 1.499 . S
C1315 C1316 1.373 . S
C1315 C1317 1.389 . S
C1316 H1289 0.950 . S
C1316 C1302 1.377 . S
C1316 C1315 1.373 . S
C1317 C1301 1.377 . S
C1317 C1315 1.389 . S
C1317 C1318 1.524 . S
C1318 C1317 1.524 . S
C1318 C1319 1.397 . S
C1318 C1323 1.363 . S
C1319 H1290 0.950 . S
C1319 C1318 1.397 . S
C1319 C1320 1.334 . S
C1320 H1291 0.950 . S
C1320 C1319 1.334 . S
C1320 C1321 1.287 . S
C1321 C1320 1.287 . S
C1321 C1322 1.524 . S
C1321 H1324 0.999 . S
C1322 H1292 0.950 . S
C1322 C1321 1.524 . S
C1322 C1323 1.415 . S
C1323 H1293 0.950 . S
C1323 C1318 1.363 . S
C1323 C1322 1.415 . S
H1324 C1321 0.999 . S
H1325 C1306 0.913 . S
H1326 C1344 0.951 . S
H1327 C1346 0.951 . S
H1328 C1348 0.951 . S
H1329 C1349 0.950 . S
H1330 C1351 0.950 . S
H1331 C1354 0.950 . S
H1332 C1355 0.950 . S
H1333 C1357 0.950 . S
H1334 C1358 0.950 . S
H1335 C1359 0.951 . S
H1336 C1361 0.951 . S
H1337 C1363 0.950 . S
H1338 C1364 0.950 . S
H1339 C1366 0.950 . S
H1340 C1369 0.950 . S
H1341 C1370 0.950 . S
H1342 C1372 0.950 1_554 S
H1343 C1373 0.975 . S
C1344 H1326 0.951 . S
C1344 C1345 1.388 . S
C1344 C1346 1.388 . S
C1345 C1344 1.388 . S
C1345 C1349 1.373 1_556 S
C1346 H1327 0.951 . S
C1346 C1344 1.388 . S
C1346 C1347 1.366 . S
C1347 C1346 1.366 . S
C1347 C1348 1.412 1_556 S
C1347 C1350 1.499 . S
C1348 H1328 0.951 . S
C1348 C1347 1.412 1_554 S
C1348 C1349 1.374 . S
C1349 H1329 0.950 . S
C1349 C1345 1.373 1_554 S
C1349 C1348 1.374 . S
C1350 C1347 1.499 . S
C1350 C1351 1.373 . S
C1350 C1352 1.389 . S
C1351 H1330 0.950 . S
C1351 C1350 1.373 . S
C1351 C1367 1.377 . S
C1352 C1350 1.389 . S
C1352 C1353 1.524 . S
C1352 C1366 1.377 . S
C1353 C1352 1.524 . S
C1353 C1354 1.397 . S
C1353 C1358 1.363 . S
C1354 H1331 0.950 . S
C1354 C1353 1.397 . S
C1354 C1355 1.334 . S
C1355 H1332 0.950 . S
C1355 C1354 1.334 . S
C1355 C1356 1.287 . S
C1356 C1355 1.287 . S
C1356 C1357 1.524 . S
C1356 H1375 0.913 . S
C1357 H1333 0.950 . S
C1357 C1356 1.524 . S
C1357 C1358 1.415 . S
C1358 H1334 0.950 . S
C1358 C1353 1.363 . S
C1358 C1357 1.415 . S
C1359 H1335 0.951 . S
C1359 C1360 1.366 . S
C1359 C1361 1.388 . S
C1360 C1359 1.366 . S
C1360 C1364 1.385 . S
C1361 H1336 0.951 . S
C1361 C1359 1.388 . S
C1361 C1362 1.366 . S
C1362 C1361 1.366 . S
C1362 C1363 1.414 . S
C1362 C1365 1.499 . S
C1363 H1337 0.950 . S
C1363 C1362 1.414 . S
C1363 C1364 1.374 . S
C1364 H1338 0.950 . S
C1364 C1360 1.385 . S
C1364 C1363 1.374 . S
C1365 C1362 1.499 . S
C1365 C1366 1.373 . S
C1365 C1367 1.389 . S
C1366 H1339 0.950 . S
C1366 C1352 1.377 . S
C1366 C1365 1.373 . S
C1367 C1351 1.377 . S
C1367 C1365 1.389 . S
C1367 C1368 1.524 . S
C1368 C1367 1.524 . S
C1368 C1369 1.397 . S
C1368 C1373 1.363 . S
C1369 H1340 0.950 . S
C1369 C1368 1.397 . S
C1369 C1370 1.334 . S
C1370 H1341 0.950 . S
C1370 C1369 1.334 . S
C1370 C1371 1.287 . S
C1371 C1370 1.287 . S
C1371 C1372 1.524 . S
C1371 H1374 0.999 . S
C1372 H1342 0.950 1_556 S
C1372 C1371 1.524 . S
C1372 C1373 1.415 . S
C1373 H1343 0.975 . S
C1373 C1368 1.363 . S
C1373 C1372 1.415 . S
H1374 C1371 0.999 . S
H1375 C1356 0.913 . S
C195 C7 1.398 . S
C210 C93 1.345 . S
C245 C37 1.315 . S
C260 C104 1.250 . S
C295 C54 1.267 . S
C310 C114 1.218 . S
C360 C126 1.329 . S
C345 C87 1.351 . S
C410 C137 1.303 . S
C395 C30 1.362 . S
C445 C51 1.364 . S
C460 C148 1.341 . S
C495 C84 1.313 . S
C510 C158 1.260 . S
C545 C10 1.279 . S
C560 C170 1.209 . S
C595 C59 1.280 . S
C610 C169 1.263 . S
C660 C136 1.069 . S
C645 C74 1.097 . S
C710 C147 1.227 . S
C695 C18 1.265 . S
C745 C32 1.361 . S
C760 C159 1.324 . S
C810 C103 1.247 . S
C795 C73 1.267 . S
C845 C15 1.369 . S
C860 C115 1.343 . S
C910 C125 1.263 . S
C895 C43 1.291 . S
C960 C92 1.070 . S
C945 C62 1.098 . S
C1010 C164 1.419 . S
C995 C21 1.438 . S
C1060 C175 1.393 . S
C1045 C29 1.389 . S
C1095 C52 1.301 . S
C1110 C142 1.293 . S
C1160 C153 1.356 . S
C1145 C81 1.376 . S
C1210 C120 1.383 . S
C1195 C40 1.402 . S
C1245 C65 1.380 . S
C1260 C131 1.360 . S
C1310 C98 1.304 . S
C1295 C76 1.312 . S
C1360 C109 1.396 . S
C1345 C8 1.390 1_556 S
