# Generated by pormake.
# Topology anh, (6,3)-cn, num edge types: 1
# Building blocks:
#     Node 0, Type 0, BuildingBlock: VOLQOD_clean_sbu_1, # of connection points: 6
#     Node 1, Type 0, BuildingBlock: VOLQOD_clean_sbu_1, # of connection points: 6
#     Node 2, Type 0, BuildingBlock: VOLQOD_clean_sbu_1, # of connection points: 6
#     Node 3, Type 1, BuildingBlock: BELTOD_clean_linker_0, # of connection points: 3
#     Node 4, Type 1, BuildingBlock: BELTOD_clean_linker_0, # of connection points: 3
#     Node 5, Type 1, BuildingBlock: BELTOD_clean_linker_0, # of connection points: 3
#     Node 6, Type 1, BuildingBlock: BELTOD_clean_linker_0, # of connection points: 3
#     Node 7, Type 1, BuildingBlock: BELTOD_clean_linker_0, # of connection points: 3
#     Node 8, Type 1, BuildingBlock: BELTOD_clean_linker_0, # of connection points: 3
#     Edge 9, Type (0, 1), BuildingBlock: UVAHIK_clean_linker_0, # of connection points: 2
#     Edge 10, Type (0, 1), BuildingBlock: UVAHIK_clean_linker_0, # of connection points: 2
#     Edge 11, Type (0, 1), BuildingBlock: UVAHIK_clean_linker_0, # of connection points: 2
#     Edge 12, Type (0, 1), BuildingBlock: UVAHIK_clean_linker_0, # of connection points: 2
#     Edge 13, Type (0, 1), BuildingBlock: UVAHIK_clean_linker_0, # of connection points: 2
#     Edge 14, Type (0, 1), BuildingBlock: UVAHIK_clean_linker_0, # of connection points: 2
#     Edge 15, Type (0, 1), BuildingBlock: UVAHIK_clean_linker_0, # of connection points: 2
#     Edge 16, Type (0, 1), BuildingBlock: UVAHIK_clean_linker_0, # of connection points: 2
#     Edge 17, Type (0, 1), BuildingBlock: UVAHIK_clean_linker_0, # of connection points: 2
#     Edge 18, Type (0, 1), BuildingBlock: UVAHIK_clean_linker_0, # of connection points: 2
#     Edge 19, Type (0, 1), BuildingBlock: UVAHIK_clean_linker_0, # of connection points: 2
#     Edge 20, Type (0, 1), BuildingBlock: UVAHIK_clean_linker_0, # of connection points: 2
#     Edge 21, Type (0, 1), BuildingBlock: UVAHIK_clean_linker_0, # of connection points: 2
#     Edge 22, Type (0, 1), BuildingBlock: UVAHIK_clean_linker_0, # of connection points: 2
#     Edge 23, Type (0, 1), BuildingBlock: UVAHIK_clean_linker_0, # of connection points: 2
#     Edge 24, Type (0, 1), BuildingBlock: UVAHIK_clean_linker_0, # of connection points: 2
#     Edge 25, Type (0, 1), BuildingBlock: UVAHIK_clean_linker_0, # of connection points: 2
#     Edge 26, Type (0, 1), BuildingBlock: UVAHIK_clean_linker_0, # of connection points: 2
# Relax obj value: 0.161
# Max RMSD: 0.227
# Mean RMSD: 0.106
data_MOF--net-anh--node1-VOLQOD_clean_sbu_1--node2-BELTOD_clean_linker_0--edge1-UVAHIK_clean_linker_0
_symmetry_space_group_name_H-M    P1
_symmetry_Int_Tables_number       1
_symmetry_cell_setting            triclinic
loop_
_symmetry_equiv_pos_as_xyz
'x, y, z'
_cell_length_a     40.15641
_cell_length_b     40.138572
_cell_length_c     85.375226
_cell_angle_alpha  90.260788
_cell_angle_beta   89.82261
_cell_angle_gamma 120.1053
loop_
_atom_site_label
_atom_site_type_symbol
_atom_site_fract_x
_atom_site_fract_y
_atom_site_fract_z
_atom_type_partial_charge
O0 O -0.00177 0.55635 0.19981 0.0
Zn1 Zn 0.00038 0.57516 0.17761 0.0
O2 O 0.00727 0.5423 0.16224 0.0
Zn3 Zn 0.96475 0.52032 0.14733 0.0
Zn4 Zn 0.00915 0.50085 0.17316 0.0
Zn5 Zn 0.05502 0.57216 0.15064 0.0
O6 O 0.98299 0.53163 0.12487 0.0
O7 O 0.04551 0.57248 0.1276 0.0
O8 O 0.95179 0.57711 0.17315 0.0
O9 O 0.93148 0.54346 0.15098 0.0
O10 O 0.93109 0.46278 0.15023 0.0
O11 O 0.96331 0.44979 0.16793 0.0
O12 O 0.0566 0.4986 0.16784 0.0
O13 O 0.04576 0.62954 0.1768 0.0
O14 O 0.08991 0.54998 0.1529 0.0
O15 O 0.08318 0.62663 0.15826 0.0
C16 C 0.00322 0.52974 0.20536 0.0
C17 C 0.01594 0.55416 0.11896 0.0
C18 C 0.93462 0.43888 0.15883 0.0
C19 C 0.92852 0.56413 0.16163 0.0
C20 C 0.08648 0.52042 0.15985 0.0
C21 C 0.07638 0.64549 0.16856 0.0
O22 O 0.00864 0.50748 0.19639 0.0
O23 O 0.44414 0.01602 0.46397 0.0
Zn24 Zn 0.42636 0.0153 0.4863 0.0
O25 O 0.46119 0.01151 0.50141 0.0
Zn26 Zn 0.4848 0.05706 0.51478 0.0
Zn27 Zn 0.50156 0.00763 0.49026 0.0
Zn28 Zn 0.43288 0.96614 0.51458 0.0
O29 O 0.47813 0.04301 0.53759 0.0
O30 O 0.43841 0.9798 0.53753 0.0
O31 O 0.42322 0.06363 0.49 0.0
O32 O 0.46088 0.08946 0.51087 0.0
O33 O 0.54171 0.09004 0.5105 0.0
O34 O 0.5535 0.05308 0.49474 0.0
O35 O 0.50278 0.95965 0.49579 0.0
O36 O 0.37284 0.96917 0.4883 0.0
O37 O 0.45366 0.9301 0.51221 0.0
O38 O 0.37714 0.93679 0.5085 0.0
C39 C 0.47141 0.01215 0.45829 0.0
C40 C 0.4584 0.0114 0.54488 0.0
C41 C 0.56508 0.084 0.50256 0.0
C42 C 0.43795 0.08939 0.50062 0.0
C43 C 0.48157 0.93132 0.50462 0.0
C44 C 0.35755 0.94076 0.49772 0.0
O45 O 0.49443 0.00785 0.46712 0.0
O46 O 0.45714 0.46653 0.79596 0.0
Zn47 Zn 0.43889 0.44678 0.81797 0.0
O48 O 0.47731 0.4796 0.83376 0.0
Zn49 Zn 0.45485 0.49976 0.8487 0.0
Zn50 Zn 0.52076 0.52229 0.82332 0.0
Zn51 Zn 0.49577 0.45031 0.84528 0.0
O52 O 0.46003 0.48686 0.8711 0.0
O53 O 0.48365 0.44775 0.86819 0.0
O54 O 0.3875 0.44367 0.82194 0.0
O55 O 0.39865 0.47608 0.84436 0.0
O56 O 0.47825 0.55744 0.84659 0.0
O57 O 0.52432 0.57232 0.82896 0.0
O58 O 0.57087 0.52602 0.82903 0.0
O59 O 0.43098 0.39281 0.81854 0.0
O60 O 0.55335 0.47441 0.84371 0.0
O61 O 0.47156 0.39655 0.83702 0.0
C62 C 0.48877 0.49407 0.79075 0.0
C63 C 0.47079 0.4646 0.87689 0.0
C64 C 0.50586 0.58218 0.83821 0.0
C65 C 0.376 0.45577 0.83341 0.0
C66 C 0.57936 0.50471 0.83706 0.0
C67 C 0.44636 0.37747 0.82662 0.0
O68 O 0.51542 0.5167 0.80001 0.0
P69 P 0.55259 0.96971 0.242 0.0
H70 H 0.50794 0.90712 0.21976 0.0
H71 H 0.44498 0.88384 0.20765 0.0
H72 H 0.43656 0.97637 0.22985 0.0
H73 H 0.49896 -0.00128 0.24226 0.0
H74 H 0.61752 0.98527 0.22159 0.0
H75 H 0.66454 0.04289 0.20762 0.0
H76 H 0.61171 0.1054 0.22662 0.0
H77 H 0.56601 0.04817 0.24103 0.0
H78 H 0.4883 0.92984 0.26358 0.0
H79 H 0.60447 0.02593 0.26534 0.0
O80 O 0.56442 0.9354 0.24097 0.0
H81 H 0.4788 0.94076 0.29095 0.0
H82 H 0.59504 0.0372 0.29281 0.0
C83 C 0.50779 0.95428 0.23205 0.0
C84 C 0.4926 0.92246 0.22195 0.0
C85 C 0.45675 0.90941 0.21493 0.0
C86 C 0.43569 0.9282 0.21784 0.0
C87 C 0.4518 0.96096 0.22755 0.0
C88 C 0.48758 0.97391 0.23456 0.0
C89 C 0.5886 0.01263 0.23248 0.0
C90 C 0.6164 0.01152 0.22288 0.0
C91 C 0.64301 0.04441 0.21476 0.0
C92 C 0.64194 0.07884 0.21597 0.0
C93 C 0.61383 0.07962 0.2256 0.0
C94 C 0.58746 0.04682 0.23378 0.0
C95 C 0.54668 0.97782 0.2623 0.0
C96 C 0.51166 0.95356 0.26982 0.0
C97 C 0.50621 0.95988 0.28545 0.0
C98 C 0.53597 0.9902 0.29395 0.0
C99 C 0.57156 0.01366 0.28654 0.0
C100 C 0.5769 0.00741 0.27082 0.0
P101 P 0.62308 0.57412 0.57488 0.0
H102 H 0.64251 0.5182 0.56197 0.0
H103 H 0.60429 0.45692 0.54818 0.0
H104 H 0.50456 0.47092 0.55097 0.0
H105 H 0.54297 0.53227 0.56464 0.0
H106 H 0.6143 0.63652 0.58873 0.0
H107 H 0.59853 0.68262 0.57732 0.0
H108 H 0.59886 0.6383 0.53115 0.0
H109 H 0.61455 0.59214 0.54264 0.0
H110 H 0.66146 0.56947 0.60325 0.0
H111 H 0.55207 0.55787 0.59091 0.0
O112 O 0.67 0.58934 0.5733 0.0
H113 H 0.6412 0.55644 0.63063 0.0
H114 H 0.53115 0.54377 0.61815 0.0
C115 C 0.59558 0.52977 0.56426 0.0
C116 C 0.61253 0.50824 0.5595 0.0
C117 C 0.59071 0.47334 0.55156 0.0
C118 C 0.55149 0.45926 0.54846 0.0
C119 C 0.53464 0.48096 0.55329 0.0
C120 C 0.55656 0.51599 0.5611 0.0
C121 C 0.61428 0.61005 0.56656 0.0
C122 C 0.61075 0.63651 0.57617 0.0
C123 C 0.60179 0.66288 0.56964 0.0
C124 C 0.59696 0.66366 0.55337 0.0
C125 C 0.60242 0.63835 0.54372 0.0
C126 C 0.61111 0.61181 0.55028 0.0
C127 C 0.60843 0.56504 0.59509 0.0
C128 C 0.63307 0.56411 0.60642 0.0
C129 C 0.6213 0.55632 0.62206 0.0
C130 C 0.58454 0.5491 0.6266 0.0
C131 C 0.55983 0.54975 0.61511 0.0
C132 C 0.57166 0.55753 0.5995 0.0
P133 P 0.08438 0.64781 0.89961 0.0
H134 H 0.13059 0.65683 0.87184 0.0
H135 H 0.14945 0.61432 0.85886 0.0
H136 H 0.08753 0.52737 0.89397 0.0
H137 H 0.06946 0.57028 0.90698 0.0
H138 H 0.05461 0.69783 0.88983 0.0
H139 H 0.99329 0.68411 0.87818 0.0
H140 H 0.9552 0.56251 0.87838 0.0
H141 H 0.01628 0.57638 0.88991 0.0
H142 H 0.13247 0.64225 0.92373 0.0
H143 H 0.02163 0.63478 0.92122 0.0
O144 O 0.11807 0.69374 0.89685 0.0
H145 H 0.1232 0.62854 0.95179 0.0
H146 H 0.01255 0.62197 0.94924 0.0
C147 C 0.09967 0.61713 0.89061 0.0
C148 C 0.12148 0.62877 0.87681 0.0
C149 C 0.13179 0.60424 0.8693 0.0
C150 C 0.12009 0.56749 0.87542 0.0
C151 C 0.09756 0.55572 0.88911 0.0
C152 C 0.08732 0.58029 0.8966 0.0
C153 C 0.04028 0.6382 0.89038 0.0
C154 C 0.0332 0.66829 0.88718 0.0
C155 C -0.0019 0.66041 0.88063 0.0
C156 C 0.96962 0.62226 0.87723 0.0
C157 C 0.97689 0.59224 0.88055 0.0
C158 C 0.01182 0.60015 0.88717 0.0
C159 C 0.07753 0.63889 0.92034 0.0
C160 C 0.1062 0.63776 0.92924 0.0
C161 C 0.10095 0.63016 0.94529 0.0
C162 C 0.067 0.62391 0.95275 0.0
C163 C 0.03868 0.62588 0.94381 0.0
C164 C 0.04395 0.6334 0.92776 0.0
P165 P 0.04517 0.4587 0.42285 0.0
H166 H 0.11706 0.51145 0.43905 0.0
H167 H 0.14068 0.57483 0.45099 0.0
H168 H 0.03512 0.57162 0.43813 0.0
H169 H 0.01163 0.50814 0.42623 0.0
H170 H 0.9769 0.38786 0.41219 0.0
H171 H 0.91768 0.34133 0.42553 0.0
H172 H 0.95949 0.40663 0.46849 0.0
H173 H 0.0186 0.45285 0.45512 0.0
H174 H 0.09268 0.46924 0.39534 0.0
H175 H 0.98298 0.45983 0.40537 0.0
O176 O 0.07733 0.44433 0.42502 0.0
H177 H 0.08543 0.47938 0.36768 0.0
H178 H 0.97599 0.47116 0.3778 0.0
C179 C 0.06275 0.50531 0.43165 0.0
C180 C 0.09899 0.52434 0.43881 0.0
C181 C 0.11233 0.56044 0.44572 0.0
C182 C 0.08968 0.57812 0.44551 0.0
C183 C 0.05333 0.55886 0.43833 0.0
C184 C 0.03991 0.52263 0.43153 0.0
C185 C 0.00152 0.42447 0.43254 0.0
C186 C 0.97312 0.39237 0.42443 0.0
C187 C 0.93933 0.36581 0.43206 0.0
C188 C 0.93381 0.37058 0.44801 0.0
C189 C 0.96295 0.40216 0.45621 0.0
C190 C -0.00341 0.42879 0.44853 0.0
C191 C 0.03807 0.4631 0.40234 0.0
C192 C 0.06688 0.46908 0.39156 0.0
C193 C 0.06287 0.47531 0.37577 0.0
C194 C 0.03014 0.47617 0.37051 0.0
C195 C 0.00128 0.47012 0.3814 0.0
C196 C 0.00531 0.46379 0.39719 0.0
P197 P 0.61046 0.05513 0.75698 0.0
H198 H 0.63148 0.12897 0.77205 0.0
H199 H 0.59279 0.15561 0.78241 0.0
H200 H 0.4889 0.05083 0.76966 0.0
H201 H 0.52768 0.02421 0.75949 0.0
H202 H 0.61196 0.98508 0.74851 0.0
H203 H 0.59757 0.92732 0.76332 0.0
H204 H 0.57452 0.97558 0.80447 0.0
H205 H 0.5891 0.03325 0.78964 0.0
H206 H 0.64511 0.09874 0.72845 0.0
H207 H 0.54618 0.99002 0.74095 0.0
O208 O 0.65736 0.08702 0.75854 0.0
H209 H 0.6238 0.08871 0.7012 0.0
H210 H 0.52382 0.9804 0.7139 0.0
C211 C 0.58242 0.07482 0.76485 0.0
C212 C 0.60041 0.11172 0.77151 0.0
C213 C 0.57828 0.12681 0.77749 0.0
C214 C 0.53786 0.10526 0.77679 0.0
C215 C 0.51999 0.0682 0.77018 0.0
C216 C 0.54213 0.05301 0.76436 0.0
C217 C 0.60034 0.01282 0.76784 0.0
C218 C 0.60346 0.98305 0.76067 0.0
C219 C 0.59523 0.9501 0.76914 0.0
C220 C 0.58448 0.94678 0.785 0.0
C221 C 0.58274 0.97734 0.79228 0.0
C222 C 0.59075 0.01015 0.78377 0.0
C223 C 0.59758 0.04485 0.73665 0.0
C224 C 0.61906 0.07245 0.72528 0.0
C225 C 0.60656 0.06687 0.70974 0.0
C226 C 0.57195 0.03382 0.70535 0.0
C227 C 0.55087 0.0059 0.71679 0.0
C228 C 0.56356 0.01143 0.7323 0.0
P229 P 0.44204 0.36927 0.09611 0.0
H230 H 0.47912 0.36087 0.12393 0.0
H231 H 0.5414 0.403 0.13632 0.0
H232 H 0.5689 0.48678 0.09963 0.0
H233 H 0.50707 0.44427 0.08722 0.0
H234 H 0.36242 0.32445 0.10729 0.0
H235 H 0.31811 0.34349 0.11839 0.0
H236 H 0.40777 0.46302 0.11601 0.0
H237 H 0.4511 0.44389 0.10448 0.0
H238 H 0.49382 0.37146 0.0716 0.0
H239 H 0.39178 0.38121 0.07463 0.0
O240 O 0.42727 0.32306 0.09965 0.0
H241 H 0.49739 0.38367 0.04343 0.0
H242 H 0.39457 0.39245 0.04652 0.0
C243 C 0.48905 0.39894 0.10443 0.0
C244 C 0.49885 0.38808 0.11846 0.0
C245 C 0.53421 0.41241 0.12563 0.0
C246 C 0.56015 0.44822 0.11893 0.0
C247 C 0.54989 0.45913 0.10494 0.0
C248 C 0.51459 0.43476 0.0978 0.0
C249 C 0.41023 0.38271 0.10534 0.0
C250 C 0.37255 0.35469 0.10931 0.0
C251 C 0.34733 0.36562 0.1157 0.0
C252 C 0.35944 0.40479 0.1181 0.0
C253 C 0.39736 0.43265 0.11415 0.0
C254 C 0.42237 0.42171 0.10771 0.0
C255 C 0.44307 0.37623 0.07526 0.0
C256 C 0.47211 0.37607 0.06618 0.0
C257 C 0.47395 0.38281 0.05007 0.0
C258 C 0.44644 0.38938 0.04273 0.0
C259 C 0.4167 0.38834 0.05185 0.0
C260 C 0.41498 0.38173 0.06795 0.0
C261 C 0.11457 0.47863 0.16611 0.0
C262 C 0.11713 0.51045 0.15817 0.0
C263 C 0.14242 0.46797 0.16384 0.0
C264 C 0.24096 0.50332 0.14853 0.0
H265 H 0.20489 0.39476 0.142 0.0
C266 C 0.33254 0.44917 0.11804 0.0
C267 C 0.3325 0.41681 0.1243 0.0
C268 C 0.30749 0.46083 0.12383 0.0
C269 C 0.21547 0.4251 0.14402 0.0
H270 H 0.15148 0.55651 0.14186 0.0
H271 H 0.19966 0.53757 0.13773 0.0
H272 H 0.15917 0.41525 0.14934 0.0
H273 H 0.30618 0.37144 0.14163 0.0
H274 H 0.26189 0.39163 0.15162 0.0
H275 H 0.29711 0.51318 0.14281 0.0
C276 C 0.17642 0.52116 0.14589 0.0
C277 C 0.18931 0.43686 0.14825 0.0
C278 C 0.14864 0.53189 0.14818 0.0
C279 C 0.3066 0.39622 0.13644 0.0
C280 C 0.28134 0.40781 0.14219 0.0
C281 C 0.26707 0.49157 0.14425 0.0
C282 C 0.17342 0.48885 0.15357 0.0
C283 C 0.20168 0.47616 0.15032 0.0
C284 C 0.28164 0.4403 0.13596 0.0
C285 C 0.25448 0.4524 0.14172 0.0
H286 H 0.0908 0.46162 0.17397 0.0
H287 H 0.13961 0.44327 0.1701 0.0
H288 H 0.25151 0.53374 0.15032 0.0
H289 H 0.35154 0.4652 0.10846 0.0
H290 H 0.30783 0.48552 0.11858 0.0
C291 C 0.61835 0.15205 0.50672 0.0
C292 C 0.60603 0.1144 0.50144 0.0
C293 C 0.65607 0.18161 0.50396 0.0
C294 C 0.72452 0.23946 0.48465 0.0
H295 H 0.81303 0.22515 0.4868 0.0
C296 C 0.86196 0.33037 0.44872 0.0
C297 C 0.89761 0.34297 0.45604 0.0
C298 C 0.82776 0.30464 0.45628 0.0
C299 C 0.78869 0.22977 0.4863 0.0
H300 H 0.62426 0.07789 0.4899 0.0
H301 H 0.6898 0.12935 0.48509 0.0
H302 H 0.75133 0.17605 0.49756 0.0
H303 H 0.92546 0.33831 0.47696 0.0
H304 H 0.8655 0.29324 0.49021 0.0
H305 H 0.76165 0.29285 0.47317 0.0
C306 C 0.67042 0.13605 0.49139 0.0
C307 C 0.75334 0.20156 0.49235 0.0
C308 C 0.63273 0.10659 0.49404 0.0
C309 C 0.89836 0.32929 0.47109 0.0
C310 C 0.86412 0.30332 0.47862 0.0
C311 C 0.75978 0.26755 0.47853 0.0
C312 C 0.68225 0.17402 0.496 0.0
C313 C 0.72074 0.20581 0.49134 0.0
C314 C 0.82847 0.2908 0.47129 0.0
C315 C 0.79204 0.26266 0.47903 0.0
H316 H 0.59854 0.15901 0.51249 0.0
H317 H 0.66455 0.21056 0.50779 0.0
H318 H 0.69985 0.24341 0.48357 0.0
H319 H 0.86048 0.34071 0.43719 0.0
H320 H 0.80074 0.29512 0.45025 0.0
C321 C 0.54973 0.65121 0.8314 0.0
C322 C 0.51539 0.62287 0.83835 0.0
C323 C 0.55697 0.68879 0.82972 0.0
C324 C 0.57188 0.77048 0.83214 0.0
H325 H 0.48782 0.77641 0.81274 0.0
C326 C 0.58869 0.91356 0.80913 0.0
C327 C 0.57468 0.91136 0.79387 0.0
C328 C 0.57981 0.88003 0.81733 0.0
C329 C 0.5115 0.77522 0.81821 0.0
H330 H 0.46255 0.61223 0.84971 0.0
H331 H 0.4752 0.67816 0.84666 0.0
H332 H 0.47667 0.71507 0.82305 0.0
H333 H 0.5396 0.87242 0.77539 0.0
H334 H 0.52444 0.81396 0.7896 0.0
H335 H 0.60713 0.83026 0.82664 0.0
C336 C 0.49637 0.67105 0.84246 0.0
C337 C 0.50502 0.74022 0.82428 0.0
C338 C 0.48924 0.6334 0.84427 0.0
C339 C 0.55115 0.87501 0.78707 0.0
C340 C 0.54207 0.84154 0.79529 0.0
C341 C 0.57832 0.80554 0.82613 0.0
C342 C 0.52995 0.6989 0.83487 0.0
C343 C 0.53541 0.73724 0.83091 0.0
C344 C 0.55646 0.84368 0.81047 0.0
C345 C 0.54845 0.80798 0.81871 0.0
H346 H 0.5706 0.64411 0.8268 0.0
H347 H 0.58292 0.70945 0.82367 0.0
H348 H 0.59575 0.76908 0.83732 0.0
H349 H 0.60709 0.94123 0.81463 0.0
H350 H 0.59118 0.88252 0.82904 0.0
C351 C 0.88152 0.57266 0.14586 0.0
C352 C 0.89613 0.57147 0.16063 0.0
C353 C 0.84747 0.57362 0.14459 0.0
C354 C 0.75686 0.53492 0.16435 0.0
H355 H 0.73486 0.58575 0.13078 0.0
C356 C 0.60186 0.47831 0.14264 0.0
C357 C 0.59816 0.47369 0.12628 0.0
C358 C 0.6381 0.50058 0.1495 0.0
C359 C 0.74052 0.57145 0.14026 0.0
H360 H 0.88791 0.5725 0.18568 0.0
H361 H 0.82727 0.57316 0.18345 0.0
H362 H 0.80148 0.60907 0.13851 0.0
H363 H 0.62956 0.4893 0.10431 0.0
H364 H 0.6925 0.52772 0.1162 0.0
H365 H 0.69626 0.49563 0.16541 0.0
C366 C 0.84256 0.57371 0.17289 0.0
C367 C 0.7786 0.58493 0.14473 0.0
C368 C 0.8772 0.57346 0.17416 0.0
C369 C 0.63131 0.4927 0.11692 0.0
C370 C 0.66744 0.51491 0.12376 0.0
C371 C 0.71876 0.5213 0.15983 0.0
C372 C 0.82695 0.57286 0.15807 0.0
C373 C 0.78721 0.56569 0.15633 0.0
C374 C 0.67136 0.51869 0.14014 0.0
C375 C 0.71035 0.53833 0.14724 0.0
H376 H 0.89572 0.57142 0.13524 0.0
H377 H 0.83596 0.57247 0.13301 0.0
H378 H 0.76265 0.51933 0.17325 0.0
H379 H 0.57675 0.46454 0.15014 0.0
H380 H 0.64015 0.50322 0.16214 0.0
C381 C 0.29595 0.9109 0.48236 0.0
C382 C 0.31742 0.90949 0.49506 0.0
C383 C 0.26081 0.87859 0.47832 0.0
C384 C 0.18764 0.77939 0.49129 0.0
H385 H 0.18499 0.75552 0.4471 0.0
C386 C 0.12312 0.62594 0.46705 0.0
C387 C 0.10444 0.61689 0.45247 0.0
C388 C 0.13977 0.66329 0.47306 0.0
C389 C 0.18469 0.76196 0.45941 0.0
H390 H 0.31722 0.874 0.51422 0.0
H391 H 0.25678 0.81777 0.507 0.0
H392 H 0.23074 0.81967 0.45649 0.0
H393 H 0.08736 0.63945 0.43299 0.0
H394 H 0.11663 0.70492 0.4435 0.0
H395 H 0.14294 0.72072 0.49424 0.0
C396 C 0.26667 0.84379 0.50022 0.0
C397 C 0.2109 0.79886 0.46482 0.0
C398 C 0.30164 0.87607 0.50429 0.0
C399 C 0.10148 0.64559 0.44428 0.0
C400 C 0.11839 0.68307 0.45025 0.0
C401 C 0.16156 0.74237 0.48589 0.0
C402 C 0.24648 0.8442 0.48686 0.0
C403 C 0.2136 0.80765 0.48089 0.0
C404 C 0.13828 0.69243 0.46457 0.0
C405 C 0.16071 0.73298 0.46996 0.0
H406 H 0.30704 0.93634 0.4751 0.0
H407 H 0.2456 0.88009 0.46813 0.0
H408 H 0.18846 0.78544 0.5037 0.0
H409 H 0.12541 0.60425 0.47369 0.0
H410 H 0.15527 0.6697 0.48404 0.0
C411 C 0.41612 0.318 0.80976 0.0
C412 C 0.43741 0.33767 0.82313 0.0
C413 C 0.41282 0.28286 0.80533 0.0
C414 C 0.43295 0.20607 0.81863 0.0
H415 H 0.46149 0.20633 0.77519 0.0
C416 C 0.52296 0.14061 0.79727 0.0
C417 C 0.5145 0.12172 0.78272 0.0
C418 C 0.50242 0.15809 0.80248 0.0
C419 C 0.4527 0.20529 0.78727 0.0
H420 H 0.46942 0.33444 0.84295 0.0
H421 H 0.46432 0.27404 0.83512 0.0
H422 H 0.44337 0.25272 0.78407 0.0
H423 H 0.47744 0.10551 0.76233 0.0
H424 H 0.44169 0.13656 0.77141 0.0
H425 H 0.4447 0.16009 0.82196 0.0
C426 C 0.44982 0.2853 0.82809 0.0
C427 C 0.44217 0.23182 0.79237 0.0
C428 C 0.4531 0.32027 0.8325 0.0
C429 C 0.48442 0.11977 0.77364 0.0
C430 C 0.46411 0.13762 0.77878 0.0
C431 C 0.44377 0.17974 0.81355 0.0
C432 C 0.43066 0.26672 0.81421 0.0
C433 C 0.43357 0.23346 0.80823 0.0
C434 C 0.47323 0.15733 0.79318 0.0
C435 C 0.45503 0.18002 0.79794 0.0
H436 H 0.40342 0.33048 0.80235 0.0
H437 H 0.39741 0.26897 0.79468 0.0
H438 H 0.42569 0.20607 0.83086 0.0
H439 H 0.54576 0.1422 0.80456 0.0
H440 H 0.51041 0.17349 0.81354 0.0
C441 C 0.47051 0.87112 0.51789 0.0
C442 C 0.49064 0.90014 0.50675 0.0
C443 C 0.48082 0.8433 0.52078 0.0
C444 C 0.56339 0.82765 0.51745 0.0
H445 H 0.48711 0.72287 0.52841 0.0
C446 C 0.60267 0.71111 0.53297 0.0
C447 C 0.58492 0.68984 0.54656 0.0
C448 C 0.59076 0.73538 0.52652 0.0
C449 C 0.50872 0.75208 0.52541 0.0
H450 H 0.53651 0.92177 0.48948 0.0
H451 H 0.55408 0.87274 0.49436 0.0
H452 H 0.46624 0.76705 0.51939 0.0
H453 H 0.54045 0.67673 0.56388 0.0
H454 H 0.51982 0.71921 0.55267 0.0
H455 H 0.60583 0.81259 0.52361 0.0
C456 C 0.53079 0.872 0.50107 0.0
C457 C 0.4968 0.7774 0.52027 0.0
C458 C 0.52057 0.89997 0.49822 0.0
C459 C 0.55493 0.69311 0.5535 0.0
C460 C 0.54282 0.71706 0.54698 0.0
C461 C 0.5753 0.80222 0.52251 0.0
C462 C 0.51138 0.84367 0.51254 0.0
C463 C 0.52398 0.8157 0.51652 0.0
C464 C 0.56062 0.73845 0.53344 0.0
C465 C 0.54807 0.76441 0.52681 0.0
H466 H 0.44736 0.8704 0.52471 0.0
H467 H 0.46561 0.82226 0.52986 0.0
H468 H 0.5851 0.85708 0.51486 0.0
H469 H 0.62599 0.70925 0.52743 0.0
H470 H 0.60487 0.75144 0.51604 0.0
C471 C 0.63082 0.4952 0.84911 0.0
C472 C 0.62031 0.5161 0.8391 0.0
C473 C 0.66956 0.5071 0.85161 0.0
C474 C 0.75283 0.52721 0.84884 0.0
H475 H 0.82404 0.63629 0.8549 0.0
C476 C 0.91454 0.58586 0.85875 0.0
C477 C 0.93188 0.6134 0.87072 0.0
C478 C 0.87777 0.57546 0.85338 0.0
C479 C 0.80449 0.60573 0.85329 0.0
H480 H 0.64234 0.56538 0.82356 0.0
H481 H 0.70986 0.58575 0.82779 0.0
H482 H 0.75695 0.61419 0.84862 0.0
H483 H 0.92458 0.65205 0.88631 0.0
H484 H 0.86024 0.6337 0.87704 0.0
H485 H 0.79999 0.51859 0.85407 0.0
C486 C 0.68814 0.56055 0.8339 0.0
C487 C 0.76615 0.5931 0.84951 0.0
C488 C 0.64941 0.54872 0.83142 0.0
C489 C 0.91213 0.63107 0.87694 0.0
C490 C 0.87528 0.62057 0.87161 0.0
C491 C 0.79114 0.53983 0.85264 0.0
C492 C 0.69866 0.54008 0.84414 0.0
C493 C 0.73981 0.55365 0.84738 0.0
C494 C 0.85749 0.59227 0.85992 0.0
C495 C 0.81733 0.57921 0.85504 0.0
H496 H 0.60917 0.47 0.85524 0.0
H497 H 0.6767 0.49097 0.85973 0.0
H498 H 0.73337 0.49668 0.84709 0.0
H499 H 0.92937 0.57221 0.85357 0.0
H500 H 0.86515 0.55409 0.84416 0.0
C501 C 0.13921 0.70411 0.16221 0.0
C502 C 0.10631 0.68588 0.17177 0.0
C503 C 0.17015 0.73992 0.16638 0.0
C504 C 0.21534 0.79451 0.20177 0.0
H505 H 0.2866 0.86959 0.17214 0.0
C506 C 0.36653 0.91001 0.22109 0.0
C507 C 0.39616 0.91224 0.21153 0.0
C508 C 0.32852 0.89125 0.2158 0.0
C509 C 0.26692 0.84894 0.18056 0.0
H510 H 0.07895 0.69236 0.19261 0.0
H511 H 0.13315 0.75516 0.19986 0.0
H512 H 0.22251 0.82057 0.1634 0.0
H513 H 0.40948 0.89869 0.18857 0.0
H514 H 0.34305 0.8651 0.17946 0.0
H515 H 0.26011 0.82158 0.21876 0.0
C516 C 0.1351 0.74136 0.18925 0.0
C517 C 0.23024 0.82092 0.17557 0.0
C518 C 0.10402 0.70546 0.18505 0.0
C519 C 0.38721 0.89694 0.19629 0.0
C520 C 0.34919 0.87816 0.191 0.0
C521 C 0.25193 0.82249 0.20676 0.0
C522 C 0.16895 0.7584 0.1802 0.0
C523 C 0.20455 0.7926 0.18601 0.0
C524 C 0.3193 0.87428 0.20084 0.0
C525 C 0.27857 0.84922 0.19609 0.0
H526 H 0.14183 0.69002 0.15181 0.0
H527 H 0.19589 0.75199 0.15922 0.0
H528 H 0.1965 0.77285 0.21007 0.0
H529 H 0.37241 0.92127 0.23294 0.0
H530 H 0.30618 0.88906 0.22359 0.0
C531 C 0.40752 0.12396 0.51251 0.0
C532 C 0.4307 0.12165 0.50077 0.0
C533 C 0.40797 0.15854 0.5152 0.0
C534 C 0.44951 0.26007 0.50078 0.0
H535 H 0.45841 0.28258 0.54529 0.0
C536 C 0.54216 0.41137 0.52753 0.0
C537 C 0.528 0.4214 0.54071 0.0
C538 C 0.52127 0.37459 0.52096 0.0
C539 C 0.45529 0.27663 0.53283 0.0
H540 H 0.47126 0.15228 0.48221 0.0
H541 H 0.47332 0.21313 0.48715 0.0
H542 H 0.43619 0.21729 0.53651 0.0
H543 H 0.48043 0.40127 0.55708 0.0
H544 H 0.44405 0.3368 0.54566 0.0
H545 H 0.47124 0.32043 0.49729 0.0
C546 C 0.45372 0.18829 0.49401 0.0
C547 C 0.44233 0.23904 0.52774 0.0
C548 C 0.45269 0.15349 0.49116 0.0
C549 C 0.49195 0.39437 0.54688 0.0
C550 C 0.47124 0.35747 0.5404 0.0
C551 C 0.46297 0.29787 0.5059 0.0
C552 C 0.43252 0.19168 0.50648 0.0
C553 C 0.44014 0.23037 0.51165 0.0
C554 C 0.486 0.34702 0.52754 0.0
C555 C 0.4668 0.3066 0.52198 0.0
H556 H 0.39058 0.09962 0.5201 0.0
H557 H 0.39057 0.15979 0.52464 0.0
H558 H 0.44754 0.25438 0.48831 0.0
H559 H 0.56969 0.4318 0.52245 0.0
H560 H 0.53353 0.36721 0.51115 0.0
C561 C 0.31874 0.44516 0.84861 0.0
C562 C 0.33602 0.44791 0.834 0.0
C563 C 0.28354 0.44395 0.8496 0.0
C564 C 0.23358 0.48456 0.82997 0.0
H565 H 0.15722 0.43024 0.86223 0.0
C566 C 0.13338 0.53921 0.85147 0.0
C567 C 0.13251 0.5421 0.86788 0.0
C568 C 0.14781 0.51746 0.84447 0.0
C569 C 0.17818 0.44555 0.85311 0.0
H570 H 0.32923 0.44941 0.80889 0.0
H571 H 0.26761 0.44832 0.81065 0.0
H572 H 0.20139 0.40787 0.8546 0.0
H573 H 0.14541 0.52377 0.88977 0.0
H574 H 0.17074 0.48627 0.87764 0.0
H575 H 0.21236 0.52385 0.82921 0.0
C576 C 0.28131 0.44672 0.8213 0.0
C577 C 0.20329 0.4326 0.8487 0.0
C578 C 0.31639 0.44721 0.8203 0.0
C579 C 0.14516 0.52173 0.87711 0.0
C580 C 0.15957 0.50006 0.87013 0.0
C581 C 0.20861 0.49765 0.83444 0.0
C582 C 0.26508 0.44605 0.836 0.0
C583 C 0.23233 0.45302 0.83759 0.0
C584 C 0.16167 0.49815 0.85373 0.0
C585 C 0.18182 0.47931 0.84657 0.0
H586 H 0.33318 0.44542 0.85935 0.0
H587 H 0.27204 0.44391 0.8611 0.0
H588 H 0.25588 0.50107 0.82146 0.0
H589 H 0.12323 0.55407 0.84404 0.0
H590 H 0.14868 0.51625 0.83181 0.0
C591 C 0.8665 0.38699 0.15371 0.0
C592 C 0.90354 0.39812 0.15931 0.0
C593 C 0.83596 0.34963 0.15626 0.0
C594 C 0.77651 0.28316 0.17601 0.0
H595 H 0.78595 0.19164 0.17426 0.0
C596 C 0.68534 0.15044 0.21415 0.0
C597 C 0.6699 0.1138 0.20723 0.0
C598 C 0.71128 0.18338 0.20595 0.0
C599 C 0.78269 0.21684 0.17464 0.0
H600 H 0.9381 0.37806 0.17102 0.0
H601 H 0.88499 0.31308 0.1754 0.0
H602 H 0.83632 0.25176 0.16281 0.0
H603 H 0.6695 0.08322 0.18612 0.0
H604 H 0.71561 0.1409 0.17192 0.0
H605 H 0.72347 0.24859 0.18821 0.0
C606 C 0.87947 0.33314 0.16906 0.0
C607 C 0.81159 0.25125 0.16817 0.0
C608 C 0.90986 0.3705 0.16666 0.0
C609 C 0.68126 0.11092 0.1919 0.0
C610 C 0.70751 0.14392 0.18373 0.0
C611 C 0.74782 0.24887 0.18257 0.0
C612 C 0.84202 0.32262 0.16428 0.0
C613 C 0.80914 0.28494 0.16908 0.0
C614 C 0.72264 0.18047 0.19066 0.0
C615 C 0.75102 0.2156 0.18225 0.0
H616 H 0.8607 0.40758 0.14798 0.0
H617 H 0.80742 0.34215 0.15233 0.0
H618 H 0.77399 0.30871 0.17702 0.0
H619 H 0.67786 0.15371 0.22603 0.0
H620 H 0.72306 0.21113 0.2117 0.0
C621 C 0.98846 0.539 0.09173 0.0
C622 C 0.02017 0.5594 0.10175 0.0
C623 C 0.99272 0.5443 0.07551 0.0
C624 C 0.06644 0.58033 0.04414 0.0
H625 H 0.98881 0.5883 0.02023 0.0
C626 C 0.0916 0.63474 0.98041 0.0
C627 C 0.06108 0.61528 0.96978 0.0
C628 C 0.086 0.62659 0.99641 0.0
C629 C 0.01052 0.58569 0.02672 0.0
H630 H 0.08124 0.60149 0.1025 0.0
H631 H 0.08846 0.61101 0.07434 0.0
H632 H 0.97994 0.57617 0.04833 0.0
H633 H 0.00085 0.57148 0.96764 0.0
H634 H 0.99105 0.55745 0.99558 0.0
H635 H 0.0972 0.59023 0.02256 0.0
C636 C 0.06042 0.59046 0.07898 0.0
C637 C 0.00543 0.5787 0.04282 0.0
C638 C 0.0562 0.58516 0.09516 0.0
C639 C 0.02482 0.58746 0.97554 0.0
C640 C 0.01919 0.57937 0.99155 0.0
C641 C 0.07157 0.58741 0.02806 0.0
C642 C 0.02877 0.5701 0.06895 0.0
C643 C 0.03345 0.57618 0.05174 0.0
C644 C 0.04973 0.59883 0.00216 0.0
C645 C 0.04379 0.59039 0.01918 0.0
H646 H 0.96031 0.51886 0.0964 0.0
H647 H 0.96784 0.52786 0.06809 0.0
H648 H 0.08826 0.57786 0.05061 0.0
H649 H 0.11974 0.65676 0.9764 0.0
H650 H 0.10996 0.6425 0.00432 0.0
C651 C 0.51053 0.01478 0.43499 0.0
C652 C 0.47717 0.01313 0.44111 0.0
C653 C 0.5164 0.01567 0.41886 0.0
C654 C 0.46531 0.98862 0.38147 0.0
H655 H 0.56657 0.05677 0.36413 0.0
C656 C 0.49522 0.99524 0.31508 0.0
C657 C 0.52973 -0.00301 0.31052 0.0
C658 C 0.48863 0.00024 0.33075 0.0
C659 C 0.53822 0.03732 0.3688 0.0
H660 H 0.42381 0.01119 0.435 0.0
H661 H 0.43407 0.01248 0.40668 0.0
H662 H 0.55498 0.05996 0.39201 0.0
H663 H 0.58442 0.00548 0.31879 0.0
H664 H 0.57281 0.01377 0.3462 0.0
H665 H 0.44873 0.96529 0.35838 0.0
C666 C 0.45558 0.01303 0.41448 0.0
C667 C 0.53156 0.03924 0.38476 0.0
C668 C 0.4498 0.01244 0.43068 0.0
C669 C 0.55775 0.00441 0.32193 0.0
C670 C 0.55109 0.00924 0.33763 0.0
C671 C 0.47201 0.98656 0.36552 0.0
C672 C 0.489 0.01472 0.40842 0.0
C673 C 0.49518 0.01459 0.39129 0.0
C674 C 0.51633 0.00697 0.34224 0.0
C675 C 0.50867 0.0106 0.35903 0.0
H676 H 0.53228 0.01541 0.44267 0.0
H677 H 0.54218 0.01642 0.41456 0.0
H678 H 0.4371 0.96897 0.38622 0.0
H679 H 0.47335 0.99017 0.3065 0.0
H680 H 0.46185 -0.00101 0.33386 0.0
C681 C 0.53117 0.52873 0.76791 0.0
C682 C 0.49564 0.49931 0.77363 0.0
C683 C 0.53883 0.53276 0.75187 0.0
C684 C 0.49333 0.50865 0.71298 0.0
H685 H 0.59404 0.52867 0.69947 0.0
C686 C 0.58111 0.51768 0.65241 0.0
C687 C 0.57207 0.54108 0.64323 0.0
C688 C 0.56998 0.51071 0.66812 0.0
C689 C 0.56567 0.52276 0.70302 0.0
H690 H 0.43993 0.45156 0.76683 0.0
H691 H 0.45346 0.4587 0.73872 0.0
H692 H 0.57764 0.51984 0.72721 0.0
H693 H 0.5443 0.57556 0.64344 0.0
H694 H 0.52482 0.56329 0.67086 0.0
H695 H 0.48136 0.51137 0.68872 0.0
C696 C 0.47527 0.47868 0.74674 0.0
C697 C 0.55643 0.51813 0.71894 0.0
C698 C 0.46761 0.47452 0.76284 0.0
C699 C 0.55126 0.55697 0.65011 0.0
C700 C 0.54007 0.54993 0.66582 0.0
C701 C 0.50266 0.51346 0.69703 0.0
C702 C 0.51117 0.50757 0.74111 0.0
C703 C 0.52027 0.51128 0.72411 0.0
C704 C 0.54951 0.52691 0.67503 0.0
C705 C 0.539 0.52072 0.69189 0.0
H706 H 0.55341 0.54851 0.77583 0.0
H707 H 0.56651 0.55574 0.74789 0.0
H708 H 0.46532 0.50361 0.71662 0.0
H709 H 0.59651 0.50445 0.6474 0.0
H710 H 0.5772 0.49238 0.67484 0.0
C711 C 0.44849 0.97616 0.57019 0.0
C712 C 0.46138 0.01104 0.56215 0.0
C713 C 0.45544 0.97619 0.58622 0.0
C714 C 0.48148 0.03534 0.62214 0.0
H715 H 0.52867 0.97572 0.63466 0.0
C716 C 0.56041 0.06123 0.68096 0.0
C717 C 0.55702 0.0293 0.6891 0.0
C718 C 0.54566 0.05703 0.66584 0.0
C719 C 0.51494 0.99204 0.63145 0.0
H720 H 0.48998 0.07316 0.56482 0.0
H721 H 0.50182 0.07309 0.59279 0.0
H722 H 0.50622 0.97124 0.60783 0.0
H723 H 0.53564 0.96787 0.6876 0.0
H724 H 0.50893 0.96034 0.66138 0.0
H725 H 0.4902 0.05623 0.64572 0.0
C726 C 0.48641 0.04577 0.58668 0.0
C727 C 0.5021 0.98947 0.61607 0.0
C728 C 0.47979 0.04579 0.57064 0.0
C729 C 0.53846 0.99302 0.68173 0.0
C730 C 0.52351 0.98878 0.66662 0.0
C731 C 0.49406 0.0377 0.63756 0.0
C732 C 0.47504 0.01103 0.59457 0.0
C733 C 0.4857 0.01147 0.6112 0.0
C734 C 0.52689 0.02074 0.6585 0.0
C735 C 0.51146 0.01651 0.64235 0.0
H736 H 0.4342 0.94887 0.56401 0.0
H737 H 0.446 0.94896 0.59205 0.0
H738 H 0.46853 0.05227 0.61875 0.0
H739 H 0.57399 0.08951 0.68635 0.0
H740 H 0.54932 0.08239 0.65986 0.0
C741 C 0.45649 0.4777 0.90418 0.0
C742 C 0.46841 0.458 0.89402 0.0
C743 C 0.45446 0.47135 0.92034 0.0
C744 C 0.49055 0.43347 0.95142 0.0
H745 H 0.40449 0.42534 0.97529 0.0
C746 C 0.45951 0.37788 0.015 0.0
C747 C 0.44895 0.39773 0.02569 0.0
C748 C 0.46216 0.38603 -0.001 0.0
C749 C 0.42891 0.42794 0.96881 0.0
H750 H 0.48725 0.4159 0.89294 0.0
H751 H 0.48316 0.40449 0.92098 0.0
H752 H 0.40868 0.43841 0.94726 0.0
H753 H 0.43347 0.44215 0.02791 0.0
H754 H 0.4378 0.45609 -2e-05 0.0
H755 H 0.51056 0.42264 0.97295 0.0
C756 C 0.47603 0.42536 0.91652 0.0
C757 C 0.43135 0.43548 0.95275 0.0
C758 C 0.47814 0.43176 0.9004 0.0
C759 C 0.44104 0.42585 0.01998 0.0
C760 C 0.44357 0.4339 0.00398 0.0
C761 C 0.48803 0.4258 0.96745 0.0
C762 C 0.46426 0.44513 0.9267 0.0
C763 C 0.46211 0.43816 0.94385 0.0
C764 C 0.45423 0.41413 0.99331 0.0
C765 C 0.45711 0.4228 0.97632 0.0
H766 H 0.44889 0.49819 0.89968 0.0
H767 H 0.44569 0.48736 0.92788 0.0
H768 H 0.515 0.43604 0.94498 0.0
H769 H 0.46523 0.35564 0.01897 0.0
H770 H 0.4699 0.3699 0.99104 0.0
C771 C 0.01308 0.49807 0.22865 0.0
C772 C 0.00385 0.52493 0.22254 0.0
C773 C 0.01518 0.49418 0.24478 0.0
C774 C 0.9833 0.5113 0.28277 0.0
H775 H 0.06983 0.50397 0.29863 0.0
C776 C 0.05872 0.51144 0.34538 0.0
C777 C 0.02647 0.4839 0.35377 0.0
C778 C 0.05559 0.51819 0.32957 0.0
C779 C 0.04565 0.50627 0.29441 0.0
H780 H 0.98886 0.56829 0.22871 0.0
H781 H 0.99245 0.56132 0.25702 0.0
H782 H 0.06505 0.51274 0.27067 0.0
H783 H 0.96553 0.44202 0.35208 0.0
H784 H 0.96006 0.45404 0.32447 0.0
H785 H 0.96398 0.50483 0.30659 0.0
C786 C -0.00202 0.54328 0.24922 0.0
C787 C 0.04271 0.51091 0.27838 0.0
C788 C -0.0039 0.54737 0.23301 0.0
C789 C 0.99084 0.46375 0.34602 0.0
C790 C 0.98769 0.47063 0.3302 0.0
C791 C 0.98611 0.50639 0.29883 0.0
C792 C 0.00794 0.51691 0.25525 0.0
C793 C 0.01142 0.51326 0.27237 0.0
C794 C 0.02011 0.49769 0.32178 0.0
C795 C 0.01729 0.50372 0.30481 0.0
H796 H 0.01911 0.48018 0.22097 0.0
H797 H 0.02235 0.4732 0.24908 0.0
H798 H 0.95876 0.51281 0.27845 0.0
H799 H 0.0864 0.52807 0.35106 0.0
H800 H 0.08096 0.53966 0.32345 0.0
loop_
_geom_bond_atom_site_label_1
_geom_bond_atom_site_label_2
_geom_bond_distance
_geom_bond_site_symmetry_2
_ccdc_geom_bond_type
O0 Zn1 1.953 . S
O0 C16 1.225 . S
Zn1 O0 1.953 . S
Zn1 O2 1.949 . S
Zn1 O8 1.919 1_455 S
Zn1 O13 1.924 . S
O2 Zn1 1.949 . S
O2 Zn3 1.923 1_455 S
O2 Zn4 1.950 . S
O2 Zn5 1.945 . S
Zn3 O2 1.923 1_655 S
Zn3 O6 1.933 . S
Zn3 O9 1.941 . S
Zn3 O10 1.965 . S
Zn4 O2 1.950 . S
Zn4 O11 1.938 1_455 S
Zn4 O12 1.906 . S
Zn4 O22 1.953 . S
Zn5 O2 1.945 . S
Zn5 O7 1.932 . S
Zn5 O14 1.977 . S
Zn5 O15 1.910 . S
O6 Zn3 1.933 . S
O6 C17 1.226 1_655 S
O7 Zn5 1.932 . S
O7 C17 1.307 . S
O8 Zn1 1.919 1_655 S
O8 C19 1.253 . S
O9 Zn3 1.941 . S
O9 C19 1.283 . S
O10 Zn3 1.965 . S
O10 C18 1.303 . S
O11 Zn4 1.938 1_655 S
O11 C18 1.247 . S
O12 Zn4 1.906 . S
O12 C20 1.304 . S
O13 Zn1 1.924 . S
O13 C21 1.311 . S
O14 Zn5 1.977 . S
O14 C20 1.272 . S
O15 Zn5 1.910 . S
O15 C21 1.231 . S
C16 O0 1.225 . S
C16 O22 1.298 . S
C17 O6 1.226 1_455 S
C17 O7 1.307 . S
C18 O10 1.303 . S
C18 O11 1.247 . S
C19 O8 1.253 . S
C19 O9 1.283 . S
C20 O12 1.304 . S
C20 O14 1.272 . S
C21 O13 1.311 . S
C21 O15 1.231 . S
O22 Zn4 1.953 . S
O22 C16 1.298 . S
O23 Zn24 1.953 . S
O23 C39 1.225 . S
Zn24 O23 1.953 . S
Zn24 O25 1.949 . S
Zn24 O31 1.919 . S
Zn24 O36 1.924 1_545 S
O25 Zn24 1.949 . S
O25 Zn26 1.923 . S
O25 Zn27 1.950 . S
O25 Zn28 1.945 1_545 S
Zn26 O25 1.923 . S
Zn26 O29 1.933 . S
Zn26 O32 1.941 . S
Zn26 O33 1.965 . S
Zn27 O25 1.950 . S
Zn27 O34 1.938 . S
Zn27 O35 1.906 1_545 S
Zn27 O45 1.953 . S
Zn28 O25 1.945 1_565 S
Zn28 O30 1.932 . S
Zn28 O37 1.977 . S
Zn28 O38 1.910 . S
O29 Zn26 1.933 . S
O29 C40 1.226 . S
O30 Zn28 1.932 . S
O30 C40 1.307 1_565 S
O31 Zn24 1.919 . S
O31 C42 1.253 . S
O32 Zn26 1.941 . S
O32 C42 1.283 . S
O33 Zn26 1.965 . S
O33 C41 1.303 . S
O34 Zn27 1.938 . S
O34 C41 1.247 . S
O35 Zn27 1.906 1_565 S
O35 C43 1.304 . S
O36 Zn24 1.924 1_565 S
O36 C44 1.311 . S
O37 Zn28 1.977 . S
O37 C43 1.272 . S
O38 Zn28 1.910 . S
O38 C44 1.231 . S
C39 O23 1.225 . S
C39 O45 1.298 . S
C40 O29 1.226 . S
C40 O30 1.307 1_545 S
C41 O33 1.303 . S
C41 O34 1.247 . S
C42 O31 1.253 . S
C42 O32 1.283 . S
C43 O35 1.304 . S
C43 O37 1.272 . S
C44 O36 1.311 . S
C44 O38 1.231 . S
O45 Zn27 1.953 . S
O45 C39 1.298 . S
O46 Zn47 1.953 . S
O46 C62 1.225 . S
Zn47 O46 1.953 . S
Zn47 O48 1.949 . S
Zn47 O54 1.919 . S
Zn47 O59 1.924 . S
O48 Zn47 1.949 . S
O48 Zn49 1.923 . S
O48 Zn50 1.950 . S
O48 Zn51 1.945 . S
Zn49 O48 1.923 . S
Zn49 O52 1.933 . S
Zn49 O55 1.941 . S
Zn49 O56 1.965 . S
Zn50 O48 1.950 . S
Zn50 O57 1.938 . S
Zn50 O58 1.906 . S
Zn50 O68 1.953 . S
Zn51 O48 1.945 . S
Zn51 O53 1.932 . S
Zn51 O60 1.977 . S
Zn51 O61 1.910 . S
O52 Zn49 1.933 . S
O52 C63 1.226 . S
O53 Zn51 1.932 . S
O53 C63 1.307 . S
O54 Zn47 1.919 . S
O54 C65 1.253 . S
O55 Zn49 1.941 . S
O55 C65 1.283 . S
O56 Zn49 1.965 . S
O56 C64 1.303 . S
O57 Zn50 1.938 . S
O57 C64 1.247 . S
O58 Zn50 1.906 . S
O58 C66 1.304 . S
O59 Zn47 1.924 . S
O59 C67 1.311 . S
O60 Zn51 1.977 . S
O60 C66 1.272 . S
O61 Zn51 1.910 . S
O61 C67 1.231 . S
C62 O46 1.225 . S
C62 O68 1.298 . S
C63 O52 1.226 . S
C63 O53 1.307 . S
C64 O56 1.303 . S
C64 O57 1.247 . S
C65 O54 1.253 . S
C65 O55 1.283 . S
C66 O58 1.304 . S
C66 O60 1.272 . S
C67 O59 1.311 . S
C67 O61 1.231 . S
O68 Zn50 1.953 . S
O68 C62 1.298 . S
P69 O80 1.490 . S
P69 C83 1.812 . S
P69 C89 1.803 1_565 S
P69 C95 1.819 1_565 S
H70 C84 0.941 . S
H71 C85 0.939 . S
H72 C87 0.940 . S
H73 C88 0.940 . S
H74 C90 0.939 . S
H75 C91 0.942 . S
H76 C93 0.940 . S
H77 C94 0.939 . S
H78 C96 0.941 . S
H79 C100 0.939 . S
O80 P69 1.490 . S
H81 C97 0.939 . S
H82 C99 0.940 . S
C83 P69 1.812 . S
C83 C84 1.389 . S
C83 C88 1.391 . S
C84 H70 0.941 . S
C84 C83 1.389 . S
C84 C85 1.397 . S
C85 H71 0.939 . S
C85 C84 1.397 . S
C85 C86 1.378 . S
C86 C85 1.378 . S
C86 C87 1.378 . S
C87 H72 0.940 . S
C87 C86 1.378 . S
C87 C88 1.396 . S
C88 H73 0.940 . S
C88 C83 1.391 . S
C88 C87 1.396 . S
C89 P69 1.803 1_545 S
C89 C90 1.378 . S
C89 C94 1.400 . S
C90 H74 0.939 . S
C90 C89 1.378 . S
C90 C91 1.361 . S
C91 H75 0.942 . S
C91 C90 1.361 . S
C91 C92 1.369 . S
C92 C91 1.369 . S
C92 C93 1.404 . S
C93 H76 0.940 . S
C93 C92 1.404 . S
C93 C94 1.389 . S
C94 H77 0.939 . S
C94 C89 1.400 . S
C94 C93 1.389 . S
C95 P69 1.819 1_545 S
C95 C96 1.391 1_545 S
C95 C100 1.391 . S
C96 H78 0.941 . S
C96 C95 1.391 1_565 S
C96 C97 1.396 . S
C97 H81 0.939 . S
C97 C96 1.396 . S
C97 C98 1.397 1_565 S
C98 C97 1.397 1_545 S
C98 C99 1.385 . S
C99 H82 0.940 . S
C99 C98 1.385 . S
C99 C100 1.388 . S
C100 H79 0.939 . S
C100 C95 1.391 . S
C100 C99 1.388 . S
P101 O112 1.490 . S
P101 C115 1.812 . S
P101 C121 1.803 . S
P101 C127 1.819 . S
H102 C116 0.941 . S
H103 C117 0.939 . S
H104 C119 0.940 . S
H105 C120 0.940 . S
H106 C122 0.939 . S
H107 C123 0.942 . S
H108 C125 0.940 . S
H109 C126 0.939 . S
H110 C128 0.941 . S
H111 C132 0.939 . S
O112 P101 1.490 . S
H113 C129 0.939 . S
H114 C131 0.940 . S
C115 P101 1.812 . S
C115 C116 1.389 . S
C115 C120 1.391 . S
C116 H102 0.941 . S
C116 C115 1.389 . S
C116 C117 1.397 . S
C117 H103 0.939 . S
C117 C116 1.397 . S
C117 C118 1.378 . S
C118 C117 1.378 . S
C118 C119 1.378 . S
C119 H104 0.940 . S
C119 C118 1.378 . S
C119 C120 1.396 . S
C120 H105 0.940 . S
C120 C115 1.391 . S
C120 C119 1.396 . S
C121 P101 1.803 . S
C121 C122 1.378 . S
C121 C126 1.400 . S
C122 H106 0.939 . S
C122 C121 1.378 . S
C122 C123 1.361 . S
C123 H107 0.942 . S
C123 C122 1.361 . S
C123 C124 1.369 . S
C124 C123 1.369 . S
C124 C125 1.404 . S
C125 H108 0.940 . S
C125 C124 1.404 . S
C125 C126 1.389 . S
C126 H109 0.939 . S
C126 C121 1.400 . S
C126 C125 1.389 . S
C127 P101 1.819 . S
C127 C128 1.391 . S
C127 C132 1.391 . S
C128 H110 0.941 . S
C128 C127 1.391 . S
C128 C129 1.396 . S
C129 H113 0.939 . S
C129 C128 1.396 . S
C129 C130 1.397 . S
C130 C129 1.397 . S
C130 C131 1.385 . S
C131 H114 0.940 . S
C131 C130 1.385 . S
C131 C132 1.388 . S
C132 H111 0.939 . S
C132 C127 1.391 . S
C132 C131 1.388 . S
P133 O144 1.490 . S
P133 C147 1.812 . S
P133 C153 1.803 . S
P133 C159 1.819 . S
H134 C148 0.941 . S
H135 C149 0.939 . S
H136 C151 0.940 . S
H137 C152 0.940 . S
H138 C154 0.939 . S
H139 C155 0.942 . S
H140 C157 0.940 . S
H141 C158 0.939 . S
H142 C160 0.941 . S
H143 C164 0.939 1_655 S
O144 P133 1.490 . S
H145 C161 0.939 . S
H146 C163 0.940 . S
C147 P133 1.812 . S
C147 C148 1.389 . S
C147 C152 1.391 . S
C148 H134 0.941 . S
C148 C147 1.389 . S
C148 C149 1.397 . S
C149 H135 0.939 . S
C149 C148 1.397 . S
C149 C150 1.378 . S
C150 C149 1.378 . S
C150 C151 1.378 . S
C151 H136 0.940 . S
C151 C150 1.378 . S
C151 C152 1.396 . S
C152 H137 0.940 . S
C152 C147 1.391 . S
C152 C151 1.396 . S
C153 P133 1.803 . S
C153 C154 1.378 1_455 S
C153 C158 1.400 1_455 S
C154 H138 0.939 . S
C154 C153 1.378 1_655 S
C154 C155 1.361 . S
C155 H139 0.942 . S
C155 C154 1.361 . S
C155 C156 1.369 . S
C156 C155 1.369 . S
C156 C157 1.404 . S
C157 H140 0.940 . S
C157 C156 1.404 . S
C157 C158 1.389 . S
C158 H141 0.939 . S
C158 C153 1.400 1_655 S
C158 C157 1.389 . S
C159 P133 1.819 . S
C159 C160 1.391 . S
C159 C164 1.391 . S
C160 H142 0.941 . S
C160 C159 1.391 . S
C160 C161 1.396 . S
C161 H145 0.939 . S
C161 C160 1.396 . S
C161 C162 1.397 . S
C162 C161 1.397 . S
C162 C163 1.385 1_455 S
C163 H146 0.940 . S
C163 C162 1.385 1_655 S
C163 C164 1.388 1_655 S
C164 H143 0.939 1_455 S
C164 C159 1.391 . S
C164 C163 1.388 1_455 S
P165 O176 1.490 . S
P165 C179 1.812 . S
P165 C185 1.803 1_455 S
P165 C191 1.819 . S
H166 C180 0.941 . S
H167 C181 0.939 . S
H168 C183 0.940 . S
H169 C184 0.940 . S
H170 C186 0.939 . S
H171 C187 0.942 . S
H172 C189 0.940 . S
H173 C190 0.939 . S
H174 C192 0.941 . S
H175 C196 0.939 . S
O176 P165 1.490 . S
H177 C193 0.939 . S
H178 C195 0.940 . S
C179 P165 1.812 . S
C179 C180 1.389 . S
C179 C184 1.391 . S
C180 H166 0.941 . S
C180 C179 1.389 . S
C180 C181 1.397 . S
C181 H167 0.939 . S
C181 C180 1.397 . S
C181 C182 1.378 . S
C182 C181 1.378 . S
C182 C183 1.378 . S
C183 H168 0.940 . S
C183 C182 1.378 . S
C183 C184 1.396 . S
C184 H169 0.940 . S
C184 C179 1.391 . S
C184 C183 1.396 . S
C185 P165 1.803 1_655 S
C185 C186 1.378 . S
C185 C190 1.400 . S
C186 H170 0.939 . S
C186 C185 1.378 . S
C186 C187 1.361 . S
C187 H171 0.942 . S
C187 C186 1.361 . S
C187 C188 1.369 . S
C188 C187 1.369 . S
C188 C189 1.404 . S
C189 H172 0.940 . S
C189 C188 1.404 . S
C189 C190 1.389 . S
C190 H173 0.939 . S
C190 C185 1.400 . S
C190 C189 1.389 . S
C191 P165 1.819 . S
C191 C192 1.391 . S
C191 C196 1.391 1_455 S
C192 H174 0.941 . S
C192 C191 1.391 . S
C192 C193 1.396 . S
C193 H177 0.939 . S
C193 C192 1.396 . S
C193 C194 1.397 . S
C194 C193 1.397 . S
C194 C195 1.385 1_455 S
C195 H178 0.940 . S
C195 C194 1.385 1_655 S
C195 C196 1.388 . S
C196 H175 0.939 . S
C196 C191 1.391 1_655 S
C196 C195 1.388 . S
P197 O208 1.490 . S
P197 C211 1.812 . S
P197 C217 1.803 1_545 S
P197 C223 1.819 . S
H198 C212 0.941 . S
H199 C213 0.939 . S
H200 C215 0.940 . S
H201 C216 0.940 . S
H202 C218 0.939 . S
H203 C219 0.942 . S
H204 C221 0.940 . S
H205 C222 0.939 . S
H206 C224 0.941 . S
H207 C228 0.939 . S
O208 P197 1.490 . S
H209 C225 0.939 . S
H210 C227 0.940 . S
C211 P197 1.812 . S
C211 C212 1.389 . S
C211 C216 1.391 . S
C212 H198 0.941 . S
C212 C211 1.389 . S
C212 C213 1.397 . S
C213 H199 0.939 . S
C213 C212 1.397 . S
C213 C214 1.378 . S
C214 C213 1.378 . S
C214 C215 1.378 . S
C215 H200 0.940 . S
C215 C214 1.378 . S
C215 C216 1.396 . S
C216 H201 0.940 . S
C216 C211 1.391 . S
C216 C215 1.396 . S
C217 P197 1.803 1_565 S
C217 C218 1.378 . S
C217 C222 1.400 . S
C218 H202 0.939 . S
C218 C217 1.378 . S
C218 C219 1.361 . S
C219 H203 0.942 . S
C219 C218 1.361 . S
C219 C220 1.369 . S
C220 C219 1.369 . S
C220 C221 1.404 . S
C221 H204 0.940 . S
C221 C220 1.404 . S
C221 C222 1.389 . S
C222 H205 0.939 . S
C222 C217 1.400 . S
C222 C221 1.389 . S
C223 P197 1.819 . S
C223 C224 1.391 . S
C223 C228 1.391 1_545 S
C224 H206 0.941 . S
C224 C223 1.391 . S
C224 C225 1.396 . S
C225 H209 0.939 . S
C225 C224 1.396 . S
C225 C226 1.397 . S
C226 C225 1.397 . S
C226 C227 1.385 1_545 S
C227 H210 0.940 . S
C227 C226 1.385 1_565 S
C227 C228 1.388 . S
C228 H207 0.939 . S
C228 C223 1.391 1_565 S
C228 C227 1.388 . S
P229 O240 1.490 . S
P229 C243 1.812 . S
P229 C249 1.803 . S
P229 C255 1.819 . S
H230 C244 0.941 . S
H231 C245 0.939 . S
H232 C247 0.940 . S
H233 C248 0.940 . S
H234 C250 0.939 . S
H235 C251 0.942 . S
H236 C253 0.940 . S
H237 C254 0.939 . S
H238 C256 0.941 . S
H239 C260 0.939 . S
O240 P229 1.490 . S
H241 C257 0.939 . S
H242 C259 0.940 . S
C243 P229 1.812 . S
C243 C244 1.389 . S
C243 C248 1.391 . S
C244 H230 0.941 . S
C244 C243 1.389 . S
C244 C245 1.397 . S
C245 H231 0.939 . S
C245 C244 1.397 . S
C245 C246 1.378 . S
C246 C245 1.378 . S
C246 C247 1.378 . S
C247 H232 0.940 . S
C247 C246 1.378 . S
C247 C248 1.396 . S
C248 H233 0.940 . S
C248 C243 1.391 . S
C248 C247 1.396 . S
C249 P229 1.803 . S
C249 C250 1.378 . S
C249 C254 1.400 . S
C250 H234 0.939 . S
C250 C249 1.378 . S
C250 C251 1.361 . S
C251 H235 0.942 . S
C251 C250 1.361 . S
C251 C252 1.369 . S
C252 C251 1.369 . S
C252 C253 1.404 . S
C253 H236 0.940 . S
C253 C252 1.404 . S
C253 C254 1.389 . S
C254 H237 0.939 . S
C254 C249 1.400 . S
C254 C253 1.389 . S
C255 P229 1.819 . S
C255 C256 1.391 . S
C255 C260 1.391 . S
C256 H238 0.941 . S
C256 C255 1.391 . S
C256 C257 1.396 . S
C257 H241 0.939 . S
C257 C256 1.396 . S
C257 C258 1.397 . S
C258 C257 1.397 . S
C258 C259 1.385 . S
C259 H242 0.940 . S
C259 C258 1.385 . S
C259 C260 1.388 . S
C260 H239 0.939 . S
C260 C255 1.391 . S
C260 C259 1.388 . S
C261 C262 1.349 . S
C261 C263 1.327 . S
C261 H286 0.950 . S
C262 C261 1.349 . S
C262 C278 1.349 . S
C263 C261 1.327 . S
C263 C282 1.429 . S
C263 H287 0.950 . S
C264 C281 1.574 . S
C264 C283 1.368 . S
C264 H288 0.949 . S
H265 C269 0.949 . S
C266 C267 1.349 . S
C266 C268 1.327 . S
C266 H289 0.950 . S
C267 C266 1.349 . S
C267 C279 1.349 . S
C268 C266 1.327 . S
C268 C284 1.429 . S
C268 H290 0.950 . S
C269 H265 0.949 . S
C269 C277 1.574 . S
C269 C285 1.368 . S
H270 C278 0.950 . S
H271 C276 0.950 . S
H272 C277 0.949 . S
H273 C279 0.950 . S
H274 C280 0.950 . S
H275 C281 0.949 . S
C276 H271 0.950 . S
C276 C278 1.327 . S
C276 C282 1.429 . S
C277 C269 1.574 . S
C277 H272 0.949 . S
C277 C283 1.368 . S
C278 C262 1.349 . S
C278 H270 0.950 . S
C278 C276 1.327 . S
C279 C267 1.349 . S
C279 H273 0.950 . S
C279 C280 1.327 . S
C280 H274 0.950 . S
C280 C279 1.327 . S
C280 C284 1.429 . S
C281 C264 1.574 . S
C281 H275 0.949 . S
C281 C285 1.368 . S
C282 C263 1.429 . S
C282 C276 1.429 . S
C282 C283 1.523 . S
C283 C264 1.368 . S
C283 C277 1.368 . S
C283 C282 1.523 . S
C284 C268 1.429 . S
C284 C280 1.429 . S
C284 C285 1.523 . S
C285 C269 1.368 . S
C285 C281 1.368 . S
C285 C284 1.523 . S
H286 C261 0.950 . S
H287 C263 0.950 . S
H288 C264 0.949 . S
H289 C266 0.950 . S
H290 C268 0.950 . S
C291 C292 1.349 . S
C291 C293 1.327 . S
C291 H316 0.950 . S
C292 C291 1.349 . S
C292 C308 1.349 . S
C293 C291 1.327 . S
C293 C312 1.429 . S
C293 H317 0.950 . S
C294 C311 1.574 . S
C294 C313 1.368 . S
C294 H318 0.949 . S
H295 C299 0.949 . S
C296 C297 1.349 . S
C296 C298 1.327 . S
C296 H319 0.950 . S
C297 C296 1.349 . S
C297 C309 1.349 . S
C298 C296 1.327 . S
C298 C314 1.429 . S
C298 H320 0.950 . S
C299 H295 0.949 . S
C299 C307 1.574 . S
C299 C315 1.368 . S
H300 C308 0.950 . S
H301 C306 0.950 . S
H302 C307 0.949 . S
H303 C309 0.950 . S
H304 C310 0.950 . S
H305 C311 0.949 . S
C306 H301 0.950 . S
C306 C308 1.327 . S
C306 C312 1.429 . S
C307 C299 1.574 . S
C307 H302 0.949 . S
C307 C313 1.368 . S
C308 C292 1.349 . S
C308 H300 0.950 . S
C308 C306 1.327 . S
C309 C297 1.349 . S
C309 H303 0.950 . S
C309 C310 1.327 . S
C310 H304 0.950 . S
C310 C309 1.327 . S
C310 C314 1.429 . S
C311 C294 1.574 . S
C311 H305 0.949 . S
C311 C315 1.368 . S
C312 C293 1.429 . S
C312 C306 1.429 . S
C312 C313 1.523 . S
C313 C294 1.368 . S
C313 C307 1.368 . S
C313 C312 1.523 . S
C314 C298 1.429 . S
C314 C310 1.429 . S
C314 C315 1.523 . S
C315 C299 1.368 . S
C315 C311 1.368 . S
C315 C314 1.523 . S
H316 C291 0.950 . S
H317 C293 0.950 . S
H318 C294 0.949 . S
H319 C296 0.950 . S
H320 C298 0.950 . S
C321 C322 1.349 . S
C321 C323 1.327 . S
C321 H346 0.950 . S
C322 C321 1.349 . S
C322 C338 1.349 . S
C323 C321 1.327 . S
C323 C342 1.429 . S
C323 H347 0.950 . S
C324 C341 1.574 . S
C324 C343 1.368 . S
C324 H348 0.949 . S
H325 C329 0.949 . S
C326 C327 1.349 . S
C326 C328 1.327 . S
C326 H349 0.950 . S
C327 C326 1.349 . S
C327 C339 1.349 . S
C328 C326 1.327 . S
C328 C344 1.429 . S
C328 H350 0.950 . S
C329 H325 0.949 . S
C329 C337 1.574 . S
C329 C345 1.368 . S
H330 C338 0.950 . S
H331 C336 0.950 . S
H332 C337 0.949 . S
H333 C339 0.950 . S
H334 C340 0.950 . S
H335 C341 0.949 . S
C336 H331 0.950 . S
C336 C338 1.327 . S
C336 C342 1.429 . S
C337 C329 1.574 . S
C337 H332 0.949 . S
C337 C343 1.368 . S
C338 C322 1.349 . S
C338 H330 0.950 . S
C338 C336 1.327 . S
C339 C327 1.349 . S
C339 H333 0.950 . S
C339 C340 1.327 . S
C340 H334 0.950 . S
C340 C339 1.327 . S
C340 C344 1.429 . S
C341 C324 1.574 . S
C341 H335 0.949 . S
C341 C345 1.368 . S
C342 C323 1.429 . S
C342 C336 1.429 . S
C342 C343 1.523 . S
C343 C324 1.368 . S
C343 C337 1.368 . S
C343 C342 1.523 . S
C344 C328 1.429 . S
C344 C340 1.429 . S
C344 C345 1.523 . S
C345 C329 1.368 . S
C345 C341 1.368 . S
C345 C344 1.523 . S
H346 C321 0.950 . S
H347 C323 0.950 . S
H348 C324 0.949 . S
H349 C326 0.950 . S
H350 C328 0.950 . S
C351 C352 1.349 . S
C351 C353 1.327 . S
C351 H376 0.950 . S
C352 C351 1.349 . S
C352 C368 1.349 . S
C353 C351 1.327 . S
C353 C372 1.429 . S
C353 H377 0.950 . S
C354 C371 1.574 . S
C354 C373 1.368 . S
C354 H378 0.949 . S
H355 C359 0.949 . S
C356 C357 1.349 . S
C356 C358 1.327 . S
C356 H379 0.950 . S
C357 C356 1.349 . S
C357 C369 1.349 . S
C358 C356 1.327 . S
C358 C374 1.429 . S
C358 H380 0.950 . S
C359 H355 0.949 . S
C359 C367 1.574 . S
C359 C375 1.368 . S
H360 C368 0.950 . S
H361 C366 0.950 . S
H362 C367 0.949 . S
H363 C369 0.950 . S
H364 C370 0.950 . S
H365 C371 0.949 . S
C366 H361 0.950 . S
C366 C368 1.327 . S
C366 C372 1.429 . S
C367 C359 1.574 . S
C367 H362 0.949 . S
C367 C373 1.368 . S
C368 C352 1.349 . S
C368 H360 0.950 . S
C368 C366 1.327 . S
C369 C357 1.349 . S
C369 H363 0.950 . S
C369 C370 1.327 . S
C370 H364 0.950 . S
C370 C369 1.327 . S
C370 C374 1.429 . S
C371 C354 1.574 . S
C371 H365 0.949 . S
C371 C375 1.368 . S
C372 C353 1.429 . S
C372 C366 1.429 . S
C372 C373 1.523 . S
C373 C354 1.368 . S
C373 C367 1.368 . S
C373 C372 1.523 . S
C374 C358 1.429 . S
C374 C370 1.429 . S
C374 C375 1.523 . S
C375 C359 1.368 . S
C375 C371 1.368 . S
C375 C374 1.523 . S
H376 C351 0.950 . S
H377 C353 0.950 . S
H378 C354 0.949 . S
H379 C356 0.950 . S
H380 C358 0.950 . S
C381 C382 1.349 . S
C381 C383 1.327 . S
C381 H406 0.950 . S
C382 C381 1.349 . S
C382 C398 1.349 . S
C383 C381 1.327 . S
C383 C402 1.429 . S
C383 H407 0.950 . S
C384 C401 1.574 . S
C384 C403 1.368 . S
C384 H408 0.949 . S
H385 C389 0.949 . S
C386 C387 1.349 . S
C386 C388 1.327 . S
C386 H409 0.950 . S
C387 C386 1.349 . S
C387 C399 1.349 . S
C388 C386 1.327 . S
C388 C404 1.429 . S
C388 H410 0.950 . S
C389 H385 0.949 . S
C389 C397 1.574 . S
C389 C405 1.368 . S
H390 C398 0.950 . S
H391 C396 0.950 . S
H392 C397 0.949 . S
H393 C399 0.950 . S
H394 C400 0.950 . S
H395 C401 0.949 . S
C396 H391 0.950 . S
C396 C398 1.327 . S
C396 C402 1.429 . S
C397 C389 1.574 . S
C397 H392 0.949 . S
C397 C403 1.368 . S
C398 C382 1.349 . S
C398 H390 0.950 . S
C398 C396 1.327 . S
C399 C387 1.349 . S
C399 H393 0.950 . S
C399 C400 1.327 . S
C400 H394 0.950 . S
C400 C399 1.327 . S
C400 C404 1.429 . S
C401 C384 1.574 . S
C401 H395 0.949 . S
C401 C405 1.368 . S
C402 C383 1.429 . S
C402 C396 1.429 . S
C402 C403 1.523 . S
C403 C384 1.368 . S
C403 C397 1.368 . S
C403 C402 1.523 . S
C404 C388 1.429 . S
C404 C400 1.429 . S
C404 C405 1.523 . S
C405 C389 1.368 . S
C405 C401 1.368 . S
C405 C404 1.523 . S
H406 C381 0.950 . S
H407 C383 0.950 . S
H408 C384 0.949 . S
H409 C386 0.950 . S
H410 C388 0.950 . S
C411 C412 1.349 . S
C411 C413 1.327 . S
C411 H436 0.950 . S
C412 C411 1.349 . S
C412 C428 1.349 . S
C413 C411 1.327 . S
C413 C432 1.429 . S
C413 H437 0.950 . S
C414 C431 1.574 . S
C414 C433 1.368 . S
C414 H438 0.949 . S
H415 C419 0.949 . S
C416 C417 1.349 . S
C416 C418 1.327 . S
C416 H439 0.950 . S
C417 C416 1.349 . S
C417 C429 1.349 . S
C418 C416 1.327 . S
C418 C434 1.429 . S
C418 H440 0.950 . S
C419 H415 0.949 . S
C419 C427 1.574 . S
C419 C435 1.368 . S
H420 C428 0.950 . S
H421 C426 0.950 . S
H422 C427 0.949 . S
H423 C429 0.950 . S
H424 C430 0.950 . S
H425 C431 0.949 . S
C426 H421 0.950 . S
C426 C428 1.327 . S
C426 C432 1.429 . S
C427 C419 1.574 . S
C427 H422 0.949 . S
C427 C433 1.368 . S
C428 C412 1.349 . S
C428 H420 0.950 . S
C428 C426 1.327 . S
C429 C417 1.349 . S
C429 H423 0.950 . S
C429 C430 1.327 . S
C430 H424 0.950 . S
C430 C429 1.327 . S
C430 C434 1.429 . S
C431 C414 1.574 . S
C431 H425 0.949 . S
C431 C435 1.368 . S
C432 C413 1.429 . S
C432 C426 1.429 . S
C432 C433 1.523 . S
C433 C414 1.368 . S
C433 C427 1.368 . S
C433 C432 1.523 . S
C434 C418 1.429 . S
C434 C430 1.429 . S
C434 C435 1.523 . S
C435 C419 1.368 . S
C435 C431 1.368 . S
C435 C434 1.523 . S
H436 C411 0.950 . S
H437 C413 0.950 . S
H438 C414 0.949 . S
H439 C416 0.950 . S
H440 C418 0.950 . S
C441 C442 1.349 . S
C441 C443 1.327 . S
C441 H466 0.950 . S
C442 C441 1.349 . S
C442 C458 1.349 . S
C443 C441 1.327 . S
C443 C462 1.429 . S
C443 H467 0.950 . S
C444 C461 1.574 . S
C444 C463 1.368 . S
C444 H468 0.949 . S
H445 C449 0.949 . S
C446 C447 1.349 . S
C446 C448 1.327 . S
C446 H469 0.950 . S
C447 C446 1.349 . S
C447 C459 1.349 . S
C448 C446 1.327 . S
C448 C464 1.429 . S
C448 H470 0.950 . S
C449 H445 0.949 . S
C449 C457 1.574 . S
C449 C465 1.368 . S
H450 C458 0.950 . S
H451 C456 0.950 . S
H452 C457 0.949 . S
H453 C459 0.950 . S
H454 C460 0.950 . S
H455 C461 0.949 . S
C456 H451 0.950 . S
C456 C458 1.327 . S
C456 C462 1.429 . S
C457 C449 1.574 . S
C457 H452 0.949 . S
C457 C463 1.368 . S
C458 C442 1.349 . S
C458 H450 0.950 . S
C458 C456 1.327 . S
C459 C447 1.349 . S
C459 H453 0.950 . S
C459 C460 1.327 . S
C460 H454 0.950 . S
C460 C459 1.327 . S
C460 C464 1.429 . S
C461 C444 1.574 . S
C461 H455 0.949 . S
C461 C465 1.368 . S
C462 C443 1.429 . S
C462 C456 1.429 . S
C462 C463 1.523 . S
C463 C444 1.368 . S
C463 C457 1.368 . S
C463 C462 1.523 . S
C464 C448 1.429 . S
C464 C460 1.429 . S
C464 C465 1.523 . S
C465 C449 1.368 . S
C465 C461 1.368 . S
C465 C464 1.523 . S
H466 C441 0.950 . S
H467 C443 0.950 . S
H468 C444 0.949 . S
H469 C446 0.950 . S
H470 C448 0.950 . S
C471 C472 1.349 . S
C471 C473 1.327 . S
C471 H496 0.950 . S
C472 C471 1.349 . S
C472 C488 1.349 . S
C473 C471 1.327 . S
C473 C492 1.429 . S
C473 H497 0.950 . S
C474 C491 1.574 . S
C474 C493 1.368 . S
C474 H498 0.949 . S
H475 C479 0.949 . S
C476 C477 1.349 . S
C476 C478 1.327 . S
C476 H499 0.950 . S
C477 C476 1.349 . S
C477 C489 1.349 . S
C478 C476 1.327 . S
C478 C494 1.429 . S
C478 H500 0.950 . S
C479 H475 0.949 . S
C479 C487 1.574 . S
C479 C495 1.368 . S
H480 C488 0.950 . S
H481 C486 0.950 . S
H482 C487 0.949 . S
H483 C489 0.950 . S
H484 C490 0.950 . S
H485 C491 0.949 . S
C486 H481 0.950 . S
C486 C488 1.327 . S
C486 C492 1.429 . S
C487 C479 1.574 . S
C487 H482 0.949 . S
C487 C493 1.368 . S
C488 C472 1.349 . S
C488 H480 0.950 . S
C488 C486 1.327 . S
C489 C477 1.349 . S
C489 H483 0.950 . S
C489 C490 1.327 . S
C490 H484 0.950 . S
C490 C489 1.327 . S
C490 C494 1.429 . S
C491 C474 1.574 . S
C491 H485 0.949 . S
C491 C495 1.368 . S
C492 C473 1.429 . S
C492 C486 1.429 . S
C492 C493 1.523 . S
C493 C474 1.368 . S
C493 C487 1.368 . S
C493 C492 1.523 . S
C494 C478 1.429 . S
C494 C490 1.429 . S
C494 C495 1.523 . S
C495 C479 1.368 . S
C495 C491 1.368 . S
C495 C494 1.523 . S
H496 C471 0.950 . S
H497 C473 0.950 . S
H498 C474 0.949 . S
H499 C476 0.950 . S
H500 C478 0.950 . S
C501 C502 1.349 . S
C501 C503 1.327 . S
C501 H526 0.950 . S
C502 C501 1.349 . S
C502 C518 1.349 . S
C503 C501 1.327 . S
C503 C522 1.429 . S
C503 H527 0.950 . S
C504 C521 1.574 . S
C504 C523 1.368 . S
C504 H528 0.949 . S
H505 C509 0.949 . S
C506 C507 1.349 . S
C506 C508 1.327 . S
C506 H529 0.950 . S
C507 C506 1.349 . S
C507 C519 1.349 . S
C508 C506 1.327 . S
C508 C524 1.429 . S
C508 H530 0.950 . S
C509 H505 0.949 . S
C509 C517 1.574 . S
C509 C525 1.368 . S
H510 C518 0.950 . S
H511 C516 0.950 . S
H512 C517 0.949 . S
H513 C519 0.950 . S
H514 C520 0.950 . S
H515 C521 0.949 . S
C516 H511 0.950 . S
C516 C518 1.327 . S
C516 C522 1.429 . S
C517 C509 1.574 . S
C517 H512 0.949 . S
C517 C523 1.368 . S
C518 C502 1.349 . S
C518 H510 0.950 . S
C518 C516 1.327 . S
C519 C507 1.349 . S
C519 H513 0.950 . S
C519 C520 1.327 . S
C520 H514 0.950 . S
C520 C519 1.327 . S
C520 C524 1.429 . S
C521 C504 1.574 . S
C521 H515 0.949 . S
C521 C525 1.368 . S
C522 C503 1.429 . S
C522 C516 1.429 . S
C522 C523 1.523 . S
C523 C504 1.368 . S
C523 C517 1.368 . S
C523 C522 1.523 . S
C524 C508 1.429 . S
C524 C520 1.429 . S
C524 C525 1.523 . S
C525 C509 1.368 . S
C525 C521 1.368 . S
C525 C524 1.523 . S
H526 C501 0.950 . S
H527 C503 0.950 . S
H528 C504 0.949 . S
H529 C506 0.950 . S
H530 C508 0.950 . S
C531 C532 1.349 . S
C531 C533 1.327 . S
C531 H556 0.950 . S
C532 C531 1.349 . S
C532 C548 1.349 . S
C533 C531 1.327 . S
C533 C552 1.429 . S
C533 H557 0.950 . S
C534 C551 1.574 . S
C534 C553 1.368 . S
C534 H558 0.949 . S
H535 C539 0.949 . S
C536 C537 1.349 . S
C536 C538 1.327 . S
C536 H559 0.950 . S
C537 C536 1.349 . S
C537 C549 1.349 . S
C538 C536 1.327 . S
C538 C554 1.429 . S
C538 H560 0.950 . S
C539 H535 0.949 . S
C539 C547 1.574 . S
C539 C555 1.368 . S
H540 C548 0.950 . S
H541 C546 0.950 . S
H542 C547 0.949 . S
H543 C549 0.950 . S
H544 C550 0.950 . S
H545 C551 0.949 . S
C546 H541 0.950 . S
C546 C548 1.327 . S
C546 C552 1.429 . S
C547 C539 1.574 . S
C547 H542 0.949 . S
C547 C553 1.368 . S
C548 C532 1.349 . S
C548 H540 0.950 . S
C548 C546 1.327 . S
C549 C537 1.349 . S
C549 H543 0.950 . S
C549 C550 1.327 . S
C550 H544 0.950 . S
C550 C549 1.327 . S
C550 C554 1.429 . S
C551 C534 1.574 . S
C551 H545 0.949 . S
C551 C555 1.368 . S
C552 C533 1.429 . S
C552 C546 1.429 . S
C552 C553 1.523 . S
C553 C534 1.368 . S
C553 C547 1.368 . S
C553 C552 1.523 . S
C554 C538 1.429 . S
C554 C550 1.429 . S
C554 C555 1.523 . S
C555 C539 1.368 . S
C555 C551 1.368 . S
C555 C554 1.523 . S
H556 C531 0.950 . S
H557 C533 0.950 . S
H558 C534 0.949 . S
H559 C536 0.950 . S
H560 C538 0.950 . S
C561 C562 1.349 . S
C561 C563 1.327 . S
C561 H586 0.950 . S
C562 C561 1.349 . S
C562 C578 1.349 . S
C563 C561 1.327 . S
C563 C582 1.429 . S
C563 H587 0.950 . S
C564 C581 1.574 . S
C564 C583 1.368 . S
C564 H588 0.949 . S
H565 C569 0.949 . S
C566 C567 1.349 . S
C566 C568 1.327 . S
C566 H589 0.950 . S
C567 C566 1.349 . S
C567 C579 1.349 . S
C568 C566 1.327 . S
C568 C584 1.429 . S
C568 H590 0.950 . S
C569 H565 0.949 . S
C569 C577 1.574 . S
C569 C585 1.368 . S
H570 C578 0.950 . S
H571 C576 0.950 . S
H572 C577 0.949 . S
H573 C579 0.950 . S
H574 C580 0.950 . S
H575 C581 0.949 . S
C576 H571 0.950 . S
C576 C578 1.327 . S
C576 C582 1.429 . S
C577 C569 1.574 . S
C577 H572 0.949 . S
C577 C583 1.368 . S
C578 C562 1.349 . S
C578 H570 0.950 . S
C578 C576 1.327 . S
C579 C567 1.349 . S
C579 H573 0.950 . S
C579 C580 1.327 . S
C580 H574 0.950 . S
C580 C579 1.327 . S
C580 C584 1.429 . S
C581 C564 1.574 . S
C581 H575 0.949 . S
C581 C585 1.368 . S
C582 C563 1.429 . S
C582 C576 1.429 . S
C582 C583 1.523 . S
C583 C564 1.368 . S
C583 C577 1.368 . S
C583 C582 1.523 . S
C584 C568 1.429 . S
C584 C580 1.429 . S
C584 C585 1.523 . S
C585 C569 1.368 . S
C585 C581 1.368 . S
C585 C584 1.523 . S
H586 C561 0.950 . S
H587 C563 0.950 . S
H588 C564 0.949 . S
H589 C566 0.950 . S
H590 C568 0.950 . S
C591 C592 1.349 . S
C591 C593 1.327 . S
C591 H616 0.950 . S
C592 C591 1.349 . S
C592 C608 1.349 . S
C593 C591 1.327 . S
C593 C612 1.429 . S
C593 H617 0.950 . S
C594 C611 1.574 . S
C594 C613 1.368 . S
C594 H618 0.949 . S
H595 C599 0.949 . S
C596 C597 1.349 . S
C596 C598 1.327 . S
C596 H619 0.950 . S
C597 C596 1.349 . S
C597 C609 1.349 . S
C598 C596 1.327 . S
C598 C614 1.429 . S
C598 H620 0.950 . S
C599 H595 0.949 . S
C599 C607 1.574 . S
C599 C615 1.368 . S
H600 C608 0.950 . S
H601 C606 0.950 . S
H602 C607 0.949 . S
H603 C609 0.950 . S
H604 C610 0.950 . S
H605 C611 0.949 . S
C606 H601 0.950 . S
C606 C608 1.327 . S
C606 C612 1.429 . S
C607 C599 1.574 . S
C607 H602 0.949 . S
C607 C613 1.368 . S
C608 C592 1.349 . S
C608 H600 0.950 . S
C608 C606 1.327 . S
C609 C597 1.349 . S
C609 H603 0.950 . S
C609 C610 1.327 . S
C610 H604 0.950 . S
C610 C609 1.327 . S
C610 C614 1.429 . S
C611 C594 1.574 . S
C611 H605 0.949 . S
C611 C615 1.368 . S
C612 C593 1.429 . S
C612 C606 1.429 . S
C612 C613 1.523 . S
C613 C594 1.368 . S
C613 C607 1.368 . S
C613 C612 1.523 . S
C614 C598 1.429 . S
C614 C610 1.429 . S
C614 C615 1.523 . S
C615 C599 1.368 . S
C615 C611 1.368 . S
C615 C614 1.523 . S
H616 C591 0.950 . S
H617 C593 0.950 . S
H618 C594 0.949 . S
H619 C596 0.950 . S
H620 C598 0.950 . S
C621 C622 1.349 1_655 S
C621 C623 1.327 . S
C621 H646 0.950 . S
C622 C621 1.349 1_455 S
C622 C638 1.349 . S
C623 C621 1.327 . S
C623 C642 1.429 1_655 S
C623 H647 0.950 . S
C624 C641 1.574 . S
C624 C643 1.368 . S
C624 H648 0.949 . S
H625 C629 0.949 . S
C626 C627 1.349 . S
C626 C628 1.370 . S
C626 H649 0.950 . S
C627 C626 1.349 . S
C627 C639 1.349 1_455 S
C628 C626 1.370 . S
C628 C644 1.407 1_556 S
C628 H650 0.929 1_556 S
C629 H625 0.949 . S
C629 C637 1.574 . S
C629 C645 1.368 1_655 S
H630 C638 0.950 . S
H631 C636 0.950 . S
H632 C637 0.949 . S
H633 C639 0.950 . S
H634 C640 0.950 1_554 S
H635 C641 0.949 . S
C636 H631 0.950 . S
C636 C638 1.327 . S
C636 C642 1.429 . S
C637 C629 1.574 . S
C637 H632 0.949 . S
C637 C643 1.368 1_655 S
C638 C622 1.349 . S
C638 H630 0.950 . S
C638 C636 1.327 . S
C639 C627 1.349 1_655 S
C639 H633 0.950 . S
C639 C640 1.327 . S
C640 H634 0.950 1_556 S
C640 C639 1.327 . S
C640 C644 1.429 1_656 S
C641 C624 1.574 . S
C641 H635 0.949 . S
C641 C645 1.368 . S
C642 C623 1.429 1_455 S
C642 C636 1.429 . S
C642 C643 1.523 . S
C643 C624 1.368 . S
C643 C637 1.368 1_455 S
C643 C642 1.523 . S
C644 C628 1.407 1_554 S
C644 C640 1.429 1_454 S
C644 C645 1.523 . S
C645 C629 1.368 1_455 S
C645 C641 1.368 . S
C645 C644 1.523 . S
H646 C621 0.950 . S
H647 C623 0.950 . S
H648 C624 0.949 . S
H649 C626 0.950 . S
H650 C628 0.929 1_554 S
C651 C652 1.349 . S
C651 C653 1.327 . S
C651 H676 0.950 . S
C652 C651 1.349 . S
C652 C668 1.349 1_545 S
C653 C651 1.327 . S
C653 C672 1.429 . S
C653 H677 0.950 . S
C654 C671 1.574 . S
C654 C673 1.368 1_565 S
C654 H678 0.949 . S
H655 C659 0.949 . S
C656 C657 1.349 1_565 S
C656 C658 1.327 . S
C656 H679 0.950 . S
C657 C656 1.349 1_545 S
C657 C669 1.349 . S
C658 C656 1.327 . S
C658 C674 1.429 1_565 S
C658 H680 0.950 . S
C659 H655 0.949 . S
C659 C667 1.574 . S
C659 C675 1.368 . S
H660 C668 0.950 . S
H661 C666 0.950 . S
H662 C667 0.949 . S
H663 C669 0.950 . S
H664 C670 0.950 . S
H665 C671 0.949 . S
C666 H661 0.950 . S
C666 C668 1.327 . S
C666 C672 1.429 1_565 S
C667 C659 1.574 . S
C667 H662 0.949 . S
C667 C673 1.368 . S
C668 C652 1.349 1_565 S
C668 H660 0.950 . S
C668 C666 1.327 . S
C669 C657 1.349 . S
C669 H663 0.950 . S
C669 C670 1.327 . S
C670 H664 0.950 . S
C670 C669 1.327 . S
C670 C674 1.429 . S
C671 C654 1.574 . S
C671 H665 0.949 . S
C671 C675 1.368 1_565 S
C672 C653 1.429 . S
C672 C666 1.429 1_545 S
C672 C673 1.523 . S
C673 C654 1.368 1_545 S
C673 C667 1.368 . S
C673 C672 1.523 . S
C674 C658 1.429 1_545 S
C674 C670 1.429 . S
C674 C675 1.523 . S
C675 C659 1.368 . S
C675 C671 1.368 1_545 S
C675 C674 1.523 . S
H676 C651 0.950 . S
H677 C653 0.950 . S
H678 C654 0.949 . S
H679 C656 0.950 . S
H680 C658 0.950 . S
C681 C682 1.349 . S
C681 C683 1.327 . S
C681 H706 0.950 . S
C682 C681 1.349 . S
C682 C698 1.349 . S
C683 C681 1.327 . S
C683 C702 1.429 . S
C683 H707 0.950 . S
C684 C701 1.574 . S
C684 C703 1.368 . S
C684 H708 0.949 . S
H685 C689 0.949 . S
C686 C687 1.349 . S
C686 C688 1.327 . S
C686 H709 0.950 . S
C687 C686 1.349 . S
C687 C699 1.349 . S
C688 C686 1.327 . S
C688 C704 1.429 . S
C688 H710 0.950 . S
C689 H685 0.949 . S
C689 C697 1.574 . S
C689 C705 1.368 . S
H690 C698 0.950 . S
H691 C696 0.950 . S
H692 C697 0.949 . S
H693 C699 0.950 . S
H694 C700 0.950 . S
H695 C701 0.949 . S
C696 H691 0.950 . S
C696 C698 1.327 . S
C696 C702 1.429 . S
C697 C689 1.574 . S
C697 H692 0.949 . S
C697 C703 1.368 . S
C698 C682 1.349 . S
C698 H690 0.950 . S
C698 C696 1.327 . S
C699 C687 1.349 . S
C699 H693 0.950 . S
C699 C700 1.327 . S
C700 H694 0.950 . S
C700 C699 1.327 . S
C700 C704 1.429 . S
C701 C684 1.574 . S
C701 H695 0.949 . S
C701 C705 1.368 . S
C702 C683 1.429 . S
C702 C696 1.429 . S
C702 C703 1.523 . S
C703 C684 1.368 . S
C703 C697 1.368 . S
C703 C702 1.523 . S
C704 C688 1.429 . S
C704 C700 1.429 . S
C704 C705 1.523 . S
C705 C689 1.368 . S
C705 C701 1.368 . S
C705 C704 1.523 . S
H706 C681 0.950 . S
H707 C683 0.950 . S
H708 C684 0.949 . S
H709 C686 0.950 . S
H710 C688 0.950 . S
C711 C712 1.349 1_565 S
C711 C713 1.327 . S
C711 H736 0.950 . S
C712 C711 1.349 1_545 S
C712 C728 1.349 . S
C713 C711 1.327 . S
C713 C732 1.429 1_565 S
C713 H737 0.950 . S
C714 C731 1.574 . S
C714 C733 1.368 . S
C714 H738 0.949 . S
H715 C719 0.949 . S
C716 C717 1.349 . S
C716 C718 1.327 . S
C716 H739 0.950 . S
C717 C716 1.349 . S
C717 C729 1.349 1_545 S
C718 C716 1.327 . S
C718 C734 1.429 . S
C718 H740 0.950 . S
C719 H715 0.949 . S
C719 C727 1.574 . S
C719 C735 1.368 1_565 S
H720 C728 0.950 . S
H721 C726 0.950 . S
H722 C727 0.949 . S
H723 C729 0.950 . S
H724 C730 0.950 . S
H725 C731 0.949 . S
C726 H721 0.950 . S
C726 C728 1.327 . S
C726 C732 1.429 . S
C727 C719 1.574 . S
C727 H722 0.949 . S
C727 C733 1.368 1_565 S
C728 C712 1.349 . S
C728 H720 0.950 . S
C728 C726 1.327 . S
C729 C717 1.349 1_565 S
C729 H723 0.950 . S
C729 C730 1.327 . S
C730 H724 0.950 . S
C730 C729 1.327 . S
C730 C734 1.429 1_565 S
C731 C714 1.574 . S
C731 H725 0.949 . S
C731 C735 1.368 . S
C732 C713 1.429 1_545 S
C732 C726 1.429 . S
C732 C733 1.523 . S
C733 C714 1.368 . S
C733 C727 1.368 1_545 S
C733 C732 1.523 . S
C734 C718 1.429 . S
C734 C730 1.429 1_545 S
C734 C735 1.523 . S
C735 C719 1.368 1_545 S
C735 C731 1.368 . S
C735 C734 1.523 . S
H736 C711 0.950 . S
H737 C713 0.950 . S
H738 C714 0.949 . S
H739 C716 0.950 . S
H740 C718 0.950 . S
C741 C742 1.349 . S
C741 C743 1.327 . S
C741 H766 0.950 . S
C742 C741 1.349 . S
C742 C758 1.349 . S
C743 C741 1.327 . S
C743 C762 1.429 . S
C743 H767 0.950 . S
C744 C761 1.574 . S
C744 C763 1.368 . S
C744 H768 0.949 . S
H745 C749 0.949 . S
C746 C747 1.349 . S
C746 C748 1.367 . S
C746 H769 0.950 . S
C747 C746 1.349 . S
C747 C759 1.349 . S
C748 C746 1.367 . S
C748 C764 1.408 1_554 S
C748 H770 0.930 1_554 S
C749 H745 0.949 . S
C749 C757 1.574 . S
C749 C765 1.368 . S
H750 C758 0.950 . S
H751 C756 0.950 . S
H752 C757 0.949 . S
H753 C759 0.950 . S
H754 C760 0.950 1_556 S
H755 C761 0.949 . S
C756 H751 0.950 . S
C756 C758 1.327 . S
C756 C762 1.429 . S
C757 C749 1.574 . S
C757 H752 0.949 . S
C757 C763 1.368 . S
C758 C742 1.349 . S
C758 H750 0.950 . S
C758 C756 1.327 . S
C759 C747 1.349 . S
C759 H753 0.950 . S
C759 C760 1.327 . S
C760 H754 0.950 1_554 S
C760 C759 1.327 . S
C760 C764 1.429 1_554 S
C761 C744 1.574 . S
C761 H755 0.949 . S
C761 C765 1.368 . S
C762 C743 1.429 . S
C762 C756 1.429 . S
C762 C763 1.523 . S
C763 C744 1.368 . S
C763 C757 1.368 . S
C763 C762 1.523 . S
C764 C748 1.408 1_556 S
C764 C760 1.429 1_556 S
C764 C765 1.523 . S
C765 C749 1.368 . S
C765 C761 1.368 . S
C765 C764 1.523 . S
H766 C741 0.950 . S
H767 C743 0.950 . S
H768 C744 0.949 . S
H769 C746 0.950 . S
H770 C748 0.930 1_556 S
C771 C772 1.349 . S
C771 C773 1.327 . S
C771 H796 0.950 . S
C772 C771 1.349 . S
C772 C788 1.349 . S
C773 C771 1.327 . S
C773 C792 1.429 . S
C773 H797 0.950 . S
C774 C791 1.574 . S
C774 C793 1.368 . S
C774 H798 0.949 . S
H775 C779 0.949 . S
C776 C777 1.349 . S
C776 C778 1.327 . S
C776 H799 0.950 . S
C777 C776 1.349 . S
C777 C789 1.349 . S
C778 C776 1.327 . S
C778 C794 1.429 . S
C778 H800 0.950 . S
C779 H775 0.949 . S
C779 C787 1.574 . S
C779 C795 1.368 . S
H780 C788 0.950 . S
H781 C786 0.950 . S
H782 C787 0.949 . S
H783 C789 0.950 . S
H784 C790 0.950 . S
H785 C791 0.949 . S
C786 H781 0.950 . S
C786 C788 1.327 . S
C786 C792 1.429 . S
C787 C779 1.574 . S
C787 H782 0.949 . S
C787 C793 1.368 . S
C788 C772 1.349 . S
C788 H780 0.950 . S
C788 C786 1.327 . S
C789 C777 1.349 . S
C789 H783 0.950 . S
C789 C790 1.327 . S
C790 H784 0.950 . S
C790 C789 1.327 . S
C790 C794 1.429 . S
C791 C774 1.574 . S
C791 H785 0.949 . S
C791 C795 1.368 . S
C792 C773 1.429 . S
C792 C786 1.429 . S
C792 C793 1.523 . S
C793 C774 1.368 . S
C793 C787 1.368 . S
C793 C792 1.523 . S
C794 C778 1.429 . S
C794 C790 1.429 . S
C794 C795 1.523 . S
C795 C779 1.368 . S
C795 C791 1.368 . S
C795 C794 1.523 . S
H796 C771 0.950 . S
H797 C773 0.950 . S
H798 C774 0.949 . S
H799 C776 0.950 . S
H800 C778 0.950 . S
C262 C20 1.062 . S
C267 C252 1.065 . S
C292 C41 1.147 . S
C297 C188 1.119 . S
C322 C64 1.167 . S
C327 C220 1.135 . S
C352 C19 1.154 . S
C357 C246 1.186 . S
C387 C182 1.125 . S
C382 C44 1.129 . S
C417 C214 1.112 . S
C412 C67 1.119 . S
C442 C43 1.089 . S
C447 C124 1.093 . S
C472 C66 1.061 . S
C477 C156 1.065 . S
C502 C21 1.128 . S
C507 C86 1.123 . S
C537 C118 1.144 . S
C532 C42 1.117 . S
C567 C150 1.186 . S
C562 C65 1.155 . S
C592 C18 1.149 . S
C597 C92 1.120 . S
C627 C162 1.432 . S
C622 C17 1.458 . S
C652 C39 1.454 . S
C657 C98 1.423 . S
C682 C62 1.474 . S
C687 C130 1.447 . S
C717 C226 1.405 . S
C712 C40 1.437 . S
C747 C258 1.432 . S
C742 C63 1.458 . S
C772 C16 1.454 . S
C777 C194 1.423 . S
