# Generated by pormake.
# Topology tsx, (6,3)-cn, num edge types: 1
# Building blocks:
#     Node 0, Type 0, BuildingBlock: VOLQOD_clean_sbu_1, # of connection points: 6
#     Node 1, Type 0, BuildingBlock: VOLQOD_clean_sbu_1, # of connection points: 6
#     Node 2, Type 1, BuildingBlock: VETTIZ_charged_linker_0, # of connection points: 3
#     Node 3, Type 1, BuildingBlock: VETTIZ_charged_linker_0, # of connection points: 3
#     Node 4, Type 1, BuildingBlock: VETTIZ_charged_linker_0, # of connection points: 3
#     Node 5, Type 1, BuildingBlock: VETTIZ_charged_linker_0, # of connection points: 3
#     Edge 6, Type (0, 1), BuildingBlock: OJICUG_clean_linker_0, # of connection points: 2
#     Edge 7, Type (0, 1), BuildingBlock: OJICUG_clean_linker_0, # of connection points: 2
#     Edge 8, Type (0, 1), BuildingBlock: OJICUG_clean_linker_0, # of connection points: 2
#     Edge 9, Type (0, 1), BuildingBlock: OJICUG_clean_linker_0, # of connection points: 2
#     Edge 10, Type (0, 1), BuildingBlock: OJICUG_clean_linker_0, # of connection points: 2
#     Edge 11, Type (0, 1), BuildingBlock: OJICUG_clean_linker_0, # of connection points: 2
#     Edge 12, Type (0, 1), BuildingBlock: OJICUG_clean_linker_0, # of connection points: 2
#     Edge 13, Type (0, 1), BuildingBlock: OJICUG_clean_linker_0, # of connection points: 2
#     Edge 14, Type (0, 1), BuildingBlock: OJICUG_clean_linker_0, # of connection points: 2
#     Edge 15, Type (0, 1), BuildingBlock: OJICUG_clean_linker_0, # of connection points: 2
#     Edge 16, Type (0, 1), BuildingBlock: OJICUG_clean_linker_0, # of connection points: 2
#     Edge 17, Type (0, 1), BuildingBlock: OJICUG_clean_linker_0, # of connection points: 2
# Relax obj value: 0.078
# Max RMSD: 0.110
# Mean RMSD: 0.085
data_MOF--net-tsx--node1-VOLQOD_clean_sbu_1--node2-VETTIZ_charged_linker_0--edge1-OJICUG_clean_linker_0
_symmetry_space_group_name_H-M    P1
_symmetry_Int_Tables_number       1
_symmetry_cell_setting            triclinic
loop_
_symmetry_equiv_pos_as_xyz
'x, y, z'
_cell_length_a     19.145235
_cell_length_b     19.814594
_cell_length_c     39.895156
_cell_angle_alpha  90.727342
_cell_angle_beta   88.744812
_cell_angle_gamma 90.097776
loop_
_atom_site_label
_atom_site_type_symbol
_atom_site_fract_x
_atom_site_fract_y
_atom_site_fract_z
_atom_type_partial_charge
O0 O 0.05043 0.99192 0.06452 0.0
Zn1 Zn 0.09088 0.99944 0.01787 0.0
O2 O 0.01587 0.01812 -0.01213 0.0
Zn3 Zn 0.9931 0.93574 0.96386 0.0
Zn4 Zn 0.93525 0.04878 0.01375 0.0
Zn5 Zn 0.04398 0.08909 0.95753 0.0
O6 O 0.99868 0.95241 0.91456 0.0
O7 O 0.05549 0.05062 0.91133 0.0
O8 O 0.14276 0.91282 0.0049 0.0
O9 O 0.0658 0.86528 0.97117 0.0
O10 O 0.89889 0.89784 0.97827 0.0
O11 O 0.86101 0.9779 0.01347 0.0
O12 O 0.89276 0.13271 -0.00458 0.0
O13 O 0.15711 0.07861 0.01808 0.0
O14 O 0.9678 0.1584 0.95444 0.0
O15 O 0.13102 0.13738 0.97288 0.0
C16 C 1.00094 0.02535 0.0787 0.0
C17 C 0.02995 0.99791 0.89763 0.0
C18 C 0.85269 0.92123 -0.00124 0.0
C19 C 0.12322 0.86329 -0.01339 0.0
C20 C 0.91143 0.16989 0.97104 0.0
C21 C 0.16799 0.12826 -0.0014 0.0
O22 O 0.95843 0.06023 0.06202 0.0
O23 O 0.55915 0.49376 0.56347 0.0
Zn24 Zn 0.59647 0.495 0.51588 0.0
O25 O 0.5192 0.51249 0.48647 0.0
Zn26 Zn 0.49694 0.43025 0.46203 0.0
Zn27 Zn 0.43833 0.54228 0.51259 0.0
Zn28 Zn 0.5441 0.58389 0.45597 0.0
O29 O 0.50573 0.4456 0.41251 0.0
O30 O 0.55921 0.54551 0.40993 0.0
O31 O 0.64501 0.40583 0.50452 0.0
O32 O 0.56811 0.35927 0.47046 0.0
O33 O 0.40262 0.39225 0.47594 0.0
O34 O 0.36617 0.46946 0.51305 0.0
O35 O 0.39248 0.62449 0.49372 0.0
O36 O 0.66651 0.57137 0.51297 0.0
O37 O 0.46594 0.65037 0.45218 0.0
O38 O 0.62872 0.63457 0.47148 0.0
C39 C 0.50857 0.52595 0.57752 0.0
C40 C 0.5368 0.49178 0.39594 0.0
C41 C 0.35754 0.41375 0.49749 0.0
C42 C 0.62471 0.35625 0.48648 0.0
C43 C 0.40955 0.66102 0.46884 0.0
C44 C 0.67205 0.62332 0.49452 0.0
O45 O 0.46277 0.55626 0.56063 0.0
C46 C 0.15557 0.87309 0.42686 0.0
C47 C 0.20452 0.83215 0.40947 0.0
C48 C 0.20007 0.82498 0.3744 0.0
C49 C 0.1002 0.89965 0.37452 0.0
C50 C 0.10421 0.90657 0.40884 0.0
C51 C 0.04847 0.95275 0.4231 0.0
H52 H 0.77009 0.15611 0.39475 0.0
C53 C 0.04046 0.94002 0.36356 0.0
C54 C 0.00844 0.9702 0.39196 0.0
H55 H 0.86073 0.11406 0.49019 0.0
H56 H 0.94429 0.03787 0.46295 0.0
H57 H 0.91393 0.17117 0.35484 0.0
H58 H 0.77083 0.00517 0.36666 0.0
H59 H 0.802 1.00139 0.32496 0.0
H60 H 0.75335 0.07446 0.33959 0.0
H61 H 0.82984 0.16884 0.33584 0.0
H62 H 0.90583 0.13268 0.31528 0.0
C63 C 0.08568 0.01524 0.4377 0.0
C64 C 1.00361 0.91275 0.4486 0.0
C65 C 1.00271 0.96606 0.23954 0.0
C66 C 0.95321 1.00116 0.22103 0.0
C67 C 0.89699 0.03322 0.23822 0.0
C68 C 0.89207 0.03271 0.27329 0.0
C69 C 0.94377 0.9997 0.29138 0.0
C70 C 0.99661 0.96547 0.27439 0.0
C71 C 0.04559 0.93108 0.29747 0.0
C72 C 0.0151 0.95275 0.33124 0.0
C73 C 0.95609 0.99346 0.32757 0.0
C74 C 0.11984 0.96044 0.29121 0.0
C75 C 0.03946 0.8537 0.29154 0.0
C76 C 0.80745 0.12986 0.40988 0.0
C77 C 0.80929 0.14093 0.44465 0.0
C78 C 0.85943 0.10675 0.46331 0.0
C79 C 0.90759 0.06257 0.44742 0.0
C80 C 0.9058 0.05292 0.41243 0.0
C81 C 0.85582 0.08623 0.39441 0.0
C82 C 0.86176 0.07185 0.35748 0.0
C83 C 0.92328 0.02396 0.3561 0.0
C84 C 0.94925 0.01275 0.38826 0.0
C85 C 0.87825 0.13935 0.33964 0.0
C86 C 0.79347 0.03682 0.34629 0.0
H87 H 0.14769 0.85041 0.33028 0.0
H88 H 0.15766 0.87951 0.45382 0.0
H89 H 0.99676 0.85951 0.44007 0.0
H90 H 0.95016 0.93281 0.45128 0.0
H91 H 0.02851 0.9119 0.47343 0.0
H92 H 0.11807 0.04013 0.41792 0.0
H93 H 0.12148 0.99991 0.45768 0.0
H94 H 0.04964 0.05393 0.44788 0.0
H95 H 0.04692 0.94121 0.22738 0.0
H96 H 0.85701 0.05918 0.2246 0.0
H97 H 0.84882 0.05896 0.28495 0.0
H98 H 0.11741 0.01588 0.28726 0.0
H99 H 0.14504 0.9372 0.26854 0.0
H100 H 0.15474 0.95417 0.31257 0.0
H101 H 0.98785 0.83954 0.28121 0.0
H102 H 0.04252 0.82496 0.31508 0.0
H103 H 0.0803 0.83512 0.27352 0.0
H104 H 0.23626 0.79269 0.36047 0.0
C105 C 0.14813 0.85817 0.3569 0.0
C106 C 0.12024 0.18142 0.54277 0.0
C107 C 0.16247 0.23036 0.55812 0.0
C108 C 0.16969 0.22984 0.59318 0.0
C109 C 0.0957 0.13107 0.59693 0.0
C110 C 0.08714 0.13249 0.56271 0.0
C111 C 0.0405 0.07636 0.55074 0.0
H112 H 0.85718 0.79182 0.58814 0.0
C113 C 0.05651 0.07269 0.61009 0.0
C114 C 0.0229 0.04067 0.58328 0.0
H115 H 0.87487 0.88819 0.49188 0.0
H116 H 0.94468 0.9776 0.51632 0.0
H117 H 0.01889 0.8162 0.61103 0.0
H118 H 0.8236 0.91884 0.62761 0.0
H119 H 0.87115 0.93459 0.66396 0.0
H120 H 0.84803 0.84885 0.65283 0.0
H121 H 0.94694 0.78302 0.63534 0.0
H122 H 0.01138 0.83704 0.65398 0.0
C123 C 0.08422 0.03123 0.52668 0.0
C124 C 0.97565 0.1082 0.53492 0.0
C125 C 0.06814 0.0199 0.73352 0.0
C126 C 0.0332 0.97265 0.75383 0.0
C127 C 0.9909 0.92315 0.73863 0.0
C128 C 0.98205 0.92208 0.70393 0.0
C129 C 0.01512 0.97144 0.68422 0.0
C130 C 0.05733 0.01916 0.69909 0.0
C131 C 0.08464 0.07034 0.67469 0.0
C132 C 0.05135 0.04561 0.64268 0.0
C133 C 0.01173 0.98724 0.64834 0.0
C134 C 0.16531 0.06406 0.67295 0.0
C135 C 0.05713 0.14101 0.68588 0.0
C136 C 0.87746 0.83114 0.57199 0.0
C137 C 0.86232 0.83171 0.53773 0.0
C138 C 0.88689 0.88602 0.5182 0.0
C139 C 0.92749 0.93775 0.53242 0.0
C140 C 0.94336 0.93545 0.56662 0.0
C141 C 0.91746 0.88304 0.58578 0.0
C142 C 0.93532 0.8901 0.62203 0.0
C143 C 0.97769 0.95463 0.62148 0.0
C144 C 0.98283 0.98114 0.58902 0.0
C145 C 0.98017 0.82838 0.63142 0.0
C146 C 0.8663 0.89809 0.6429 0.0
H147 H 0.14513 0.18249 0.63908 0.0
H148 H 0.11333 0.18125 0.5159 0.0
H149 H 0.96081 0.15622 0.54795 0.0
H150 H 0.92879 0.07594 0.5373 0.0
H151 H 0.98617 0.11983 0.50813 0.0
H152 H 0.13219 0.01348 0.5391 0.0
H153 H 0.10091 0.0606 0.50449 0.0
H154 H 0.0562 0.98586 0.51824 0.0
H155 H 0.10179 0.05813 0.74421 0.0
H156 H 0.96245 0.88667 0.75362 0.0
H157 H 0.94856 0.88372 0.69396 0.0
H158 H 0.18141 0.01013 0.67328 0.0
H159 H 0.18934 0.08988 0.69473 0.0
H160 H 0.18882 0.08425 0.64965 0.0
H161 H 0.00737 0.13718 0.70068 0.0
H162 H 0.04403 0.1732 0.66445 0.0
H163 H 0.09543 0.16789 0.70177 0.0
H164 H 0.20263 0.26664 0.60551 0.0
C165 C 0.13664 0.18054 0.61262 0.0
C166 C 0.6594 0.38428 0.92892 0.0
C167 C 0.70945 0.34397 0.91185 0.0
C168 C 0.70627 0.3369 0.87673 0.0
C169 C 0.60583 0.41068 0.87611 0.0
C170 C 0.60823 0.41716 0.91052 0.0
C171 C 0.55217 0.46361 0.92427 0.0
H172 H 0.27558 0.66733 0.89378 0.0
C173 C 0.54685 0.45137 0.86459 0.0
C174 C 0.51357 0.4812 0.89274 0.0
H175 H 0.36325 0.62515 -0.01011 0.0
H176 H 0.44909 0.55074 0.96319 0.0
H177 H 0.42224 0.68296 0.85517 0.0
H178 H 0.27818 0.51695 0.86486 0.0
H179 H 0.31098 0.51461 0.8234 0.0
H180 H 0.26161 0.5871 0.83818 0.0
H181 H 0.3384 0.6818 0.83589 0.0
H182 H 0.41428 0.64553 0.81533 0.0
C183 C 0.58918 0.5262 0.93888 0.0
C184 C 0.50619 0.42395 0.94961 0.0
C185 C 0.51599 0.47943 0.74009 0.0
C186 C 0.46686 0.51366 0.72095 0.0
C187 C 0.41004 0.54593 0.73763 0.0
C188 C 0.40384 0.54592 0.77271 0.0
C189 C 0.45476 0.51311 0.79138 0.0
C190 C 0.50844 0.47909 0.77492 0.0
C191 C 0.55596 0.44415 0.79849 0.0
C192 C 0.52354 0.46511 0.83199 0.0
C193 C 0.46498 0.50617 0.82775 0.0
C194 C 0.63049 0.47364 0.79337 0.0
C195 C 0.55018 0.36688 0.79206 0.0
C196 C 0.31249 0.64114 0.90917 0.0
C197 C 0.31295 0.6519 0.944 0.0
C198 C 0.36287 0.61808 0.96299 0.0
C199 C 0.412 0.57447 0.94742 0.0
C200 C 0.41096 0.5645 0.9124 0.0
C201 C 0.36158 0.59782 0.894 0.0
C202 C 0.3692 0.58406 0.85703 0.0
C203 C 0.43074 0.53617 0.85607 0.0
C204 C 0.45513 0.52441 0.88849 0.0
C205 C 0.38651 0.65183 0.83965 0.0
C206 C 0.30151 0.5493 0.84493 0.0
H207 H 0.65552 0.36232 0.8322 0.0
H208 H 0.66062 0.3908 0.9559 0.0
H209 H 0.49783 0.37129 0.94052 0.0
H210 H 0.45325 0.44506 0.95302 0.0
H211 H 0.53151 0.42122 0.97431 0.0
H212 H 0.62818 0.54629 0.92045 0.0
H213 H 0.61795 0.51277 0.96167 0.0
H214 H 0.55318 0.56831 0.9445 0.0
H215 H 0.56066 0.45445 0.72843 0.0
H216 H 0.37022 0.57121 0.72361 0.0
H217 H 0.35997 0.57197 0.78393 0.0
H218 H 0.6283 0.52924 0.78993 0.0
H219 H 0.65677 0.45122 0.77078 0.0
H220 H 0.66428 0.46646 0.81507 0.0
H221 H 0.49957 0.35299 0.78061 0.0
H222 H 0.55109 0.33768 0.81554 0.0
H223 H 0.59252 0.34855 0.7748 0.0
H224 H 0.7432 0.30501 0.86303 0.0
C225 C 0.65476 0.36976 0.85884 0.0
C226 C 0.60853 0.69504 0.04504 0.0
C227 C 0.65576 0.74071 0.05944 0.0
C228 C 0.67069 0.73572 0.09371 0.0
C229 C 0.59593 0.63766 0.09824 0.0
C230 C 0.57875 0.64423 0.06503 0.0
C231 C 0.52947 0.58948 0.05386 0.0
H232 H 0.3853 0.28314 0.08712 0.0
C233 C 0.5624 0.5758 0.11097 0.0
C234 C 0.52412 0.54623 0.08495 0.0
H235 H 0.35246 0.40321 -0.00102 0.0
H236 H 0.42673 0.49077 0.02152 0.0
H237 H 0.54814 0.32037 0.10303 0.0
H238 H 0.34618 0.39594 0.13282 0.0
H239 H 0.39968 0.41771 0.16635 0.0
H240 H 0.38672 0.32981 0.15551 0.0
H241 H 0.48436 0.27546 0.12785 0.0
H242 H 0.54587 0.33187 0.14703 0.0
C243 C 0.56386 0.55186 0.02393 0.0
C244 C 0.45912 0.62298 0.04597 0.0
C245 C 0.59117 0.51341 0.23237 0.0
C246 C 0.56033 0.46288 0.25226 0.0
C247 C 0.52443 0.40952 0.23638 0.0
C248 C 0.51595 0.4088 0.20164 0.0
C249 C 0.54211 0.46271 0.1826 0.0
C250 C 0.58007 0.51317 0.19792 0.0
C251 C 0.60095 0.56814 0.17414 0.0
C252 C 0.56616 0.54386 0.1424 0.0
C253 C 0.53283 0.4818 0.14738 0.0
C254 C 0.6818 0.56793 0.17046 0.0
C255 C 0.56913 0.63555 0.18751 0.0
C256 C 0.39354 0.32805 0.07239 0.0
C257 C 0.36221 0.33561 0.04114 0.0
C258 C 0.37632 0.39509 0.02295 0.0
C259 C 0.41919 0.44632 0.03621 0.0
C260 C 0.44809 0.43833 0.06808 0.0
C261 C 0.43378 0.38014 0.08567 0.0
C262 C 0.45958 0.38292 0.12083 0.0
C263 C 0.49555 0.45086 0.12106 0.0
C264 C 0.48989 0.48316 0.09006 0.0
C265 C 0.51206 0.32448 0.12521 0.0
C266 C 0.39517 0.38113 0.14529 0.0
H267 H 0.65633 0.68239 0.13882 0.0
H268 H 0.5961 0.6983 0.01875 0.0
H269 H 0.444 0.66013 0.06597 0.0
H270 H 0.41554 0.58666 0.04491 0.0
H271 H 0.46313 0.65053 0.02193 0.0
H272 H 0.61901 0.53898 0.02929 0.0
H273 H 0.56373 0.58463 0.00168 0.0
H274 H 0.53793 0.50399 0.01774 0.0
H275 H 0.62074 0.55425 0.24348 0.0
H276 H 0.49976 0.3699 0.25086 0.0
H277 H 0.48734 0.36738 0.19117 0.0
H278 H 0.70339 0.51642 0.17388 0.0
H279 H 0.7059 0.60165 0.18943 0.0
H280 H 0.70049 0.58256 0.14516 0.0
H281 H 0.51677 0.62703 0.19938 0.0
H282 H 0.55983 0.67238 0.16756 0.0
H283 H 0.60284 0.65926 0.20668 0.0
H284 H 0.70739 0.77014 0.10523 0.0
C285 C 0.64139 0.68432 0.11311 0.0
C286 C 0.25758 0.21745 -0.0154 0.0
C287 C 0.219 0.18039 0.00846 0.0
H288 H 0.33508 0.29407 0.97603 0.0
C289 C 0.22633 0.1958 0.04255 0.0
H290 H 0.25231 0.20675 0.95808 0.0
C291 C 0.27104 0.24715 0.05275 0.0
C292 C 0.31202 0.28314 0.02923 0.0
H293 H 0.19579 0.16938 0.06146 0.0
H294 H 0.27249 0.25895 0.07929 0.0
C295 C 0.30441 0.26784 -0.00509 0.0
C296 C 0.14648 0.74978 0.96068 0.0
C297 C 0.16978 0.80431 0.98044 0.0
H298 H 0.1732 0.65859 0.9342 0.0
C299 C 0.23908 0.80388 -0.00847 0.0
H300 H 0.09329 0.74775 0.952 0.0
C301 C 0.28503 0.75211 0.9813 0.0
C302 C 0.2625 0.70021 0.95971 0.0
H303 H 0.25868 0.84492 0.00686 0.0
H304 H 0.33903 0.75465 -0.0112 0.0
C305 C 0.19226 0.69856 0.9504 0.0
C306 C 0.78437 0.81276 -0.00352 0.0
C307 C 0.79234 0.87886 0.00914 0.0
H308 H 0.73333 0.71699 0.00243 0.0
C309 C 0.74665 0.90168 0.03498 0.0
H310 H 0.81837 0.79372 0.97648 0.0
C311 C 0.69857 0.85775 0.04984 0.0
C312 C 0.69442 0.7904 0.03889 0.0
H313 H 0.75064 0.95245 0.04516 0.0
H314 H 0.66697 0.87548 0.07102 0.0
C315 C 0.73552 0.76892 0.01119 0.0
C316 C 0.88169 0.26205 0.93155 0.0
C317 C 0.86324 0.22261 0.95941 0.0
H318 H 0.84777 0.3323 0.89507 0.0
C319 C 0.79582 0.22942 0.97382 0.0
H320 H 0.93334 0.25866 0.92001 0.0
C321 C 0.7466 0.27147 0.95934 0.0
C322 C 0.7639 0.30743 0.93019 0.0
H323 H 0.77992 0.19995 -0.00464 0.0
H324 H 0.69405 0.27305 0.96994 0.0
C325 C 0.83256 0.30399 0.91712 0.0
C326 C 0.721 0.74037 0.48952 0.0
C327 C 0.72619 0.67448 0.50198 0.0
H328 H 0.75905 0.84197 0.49138 0.0
C329 C 0.78053 0.65952 0.52375 0.0
H330 H 0.67964 0.75364 0.47273 0.0
C331 C 0.82663 0.70994 0.53404 0.0
C332 C 0.819 0.77677 0.52317 0.0
H333 H 0.78656 0.60912 0.53348 0.0
H334 H 0.86743 0.69679 0.55116 0.0
C335 C 0.76675 0.79105 0.5001 0.0
C336 C 0.64474 0.24085 0.46227 0.0
C337 C 0.66975 0.29602 0.48107 0.0
H338 H 0.66912 0.14824 0.43653 0.0
C339 C 0.73946 0.29515 0.49155 0.0
H340 H 0.59115 0.23916 0.45413 0.0
C341 C 0.78426 0.24239 0.48144 0.0
C342 C 0.76007 0.18995 0.46062 0.0
H343 H 0.76033 0.3367 0.50613 0.0
H344 H 0.83866 0.24462 0.4883 0.0
C345 C 0.68937 0.18862 0.45212 0.0
C346 C 0.293 0.30321 0.496 0.0
C347 C 0.29838 0.37005 0.50799 0.0
H348 H 0.24489 0.20628 0.50254 0.0
C349 C 0.25135 0.39255 0.53331 0.0
H350 H 0.32817 0.28435 0.47643 0.0
C351 C 0.20415 0.34789 0.54824 0.0
C352 C 0.20245 0.27995 0.538 0.0
H353 H 0.25331 0.44389 0.5429 0.0
H354 H 0.17089 0.36582 0.56879 0.0
C355 C 0.24522 0.25853 0.51086 0.0
C356 C 0.29272 0.71856 0.47141 0.0
C357 C 0.36002 0.71222 0.45684 0.0
H358 H 0.19049 0.76138 0.46772 0.0
C359 C 0.37747 0.75099 0.42858 0.0
H360 H 0.27758 0.68955 0.49322 0.0
C361 C 0.32767 0.79205 0.41408 0.0
C362 C 0.25931 0.79541 0.42749 0.0
H363 H 0.42898 0.74792 0.41688 0.0
H364 H 0.34224 0.82001 0.39183 0.0
C365 C 0.24284 0.75985 0.45688 0.0
C366 C 0.00577 0.95965 0.13114 0.0
C367 C 0.98922 0.01976 0.11499 0.0
H368 H 1.0036 0.90507 0.17683 0.0
C369 C 0.95831 0.07294 0.13346 0.0
H370 H 0.02825 0.91738 0.11721 0.0
C371 C 0.94575 0.06668 0.16785 0.0
C372 C 0.96245 0.00652 0.18419 0.0
H373 H 0.945 0.11977 0.12143 0.0
H374 H 0.92442 0.10957 0.18166 0.0
C375 C 0.99166 0.95274 0.1653 0.0
C376 C 0.03796 0.04845 0.84112 0.0
C377 C 0.03447 0.99075 0.86103 0.0
H378 H 0.03758 0.08811 0.79183 0.0
C379 C 0.0333 0.92666 0.84569 0.0
H380 H 0.03817 0.09849 0.8524 0.0
C381 C 0.03504 0.92045 0.81082 0.0
C382 C 0.03657 0.97831 0.79078 0.0
H383 H 0.03129 0.88138 0.86062 0.0
H384 H 0.03494 0.87038 0.79962 0.0
C385 C 0.03819 0.04235 0.80637 0.0
C386 C 0.5189 0.46616 0.63151 0.0
C387 C 0.49952 0.52395 0.61413 0.0
H388 H 0.52005 0.41581 0.67834 0.0
C389 C 0.46798 0.57797 0.63173 0.0
H390 H 0.54199 0.42326 0.61832 0.0
C391 C 0.45717 0.57471 0.66638 0.0
C392 C 0.47614 0.51662 0.68394 0.0
H393 H 0.45255 0.62309 0.61875 0.0
H394 H 0.43498 0.61818 0.67938 0.0
C395 C 0.50643 0.4621 0.66595 0.0
C396 C 0.54793 0.54098 0.3392 0.0
C397 C 0.54591 0.4838 0.35949 0.0
H398 H 0.55141 0.57924 0.28966 0.0
C399 C 0.55191 0.41943 0.34464 0.0
H400 H 0.54279 0.59118 0.35007 0.0
C401 C 0.55936 0.41242 0.30988 0.0
C402 C 0.55934 0.46964 0.28935 0.0
H403 H 0.55131 0.37459 0.35991 0.0
H404 H 0.56474 0.36219 0.29916 0.0
C405 C 0.55368 0.534 0.30452 0.0
loop_
_geom_bond_atom_site_label_1
_geom_bond_atom_site_label_2
_geom_bond_distance
_geom_bond_site_symmetry_2
_ccdc_geom_bond_type
O0 Zn1 1.953 . S
O0 C16 1.225 1_565 S
Zn1 O0 1.953 . S
Zn1 O2 1.949 1_565 S
Zn1 O8 1.919 . S
Zn1 O13 1.924 1_565 S
O2 Zn1 1.949 1_545 S
O2 Zn3 1.923 1_444 S
O2 Zn4 1.950 1_455 S
O2 Zn5 1.945 1_554 S
Zn3 O2 1.923 1_666 S
Zn3 O6 1.933 . S
Zn3 O9 1.941 1_655 S
Zn3 O10 1.965 . S
Zn4 O2 1.950 1_655 S
Zn4 O11 1.938 1_545 S
Zn4 O12 1.906 . S
Zn4 O22 1.953 . S
Zn5 O2 1.945 1_556 S
Zn5 O7 1.932 . S
Zn5 O14 1.977 1_455 S
Zn5 O15 1.910 . S
O6 Zn3 1.933 . S
O6 C17 1.226 1_665 S
O7 Zn5 1.932 . S
O7 C17 1.307 . S
O8 Zn1 1.919 . S
O8 C19 1.253 1_554 S
O9 Zn3 1.941 1_455 S
O9 C19 1.283 . S
O10 Zn3 1.965 . S
O10 C18 1.303 1_556 S
O11 Zn4 1.938 1_565 S
O11 C18 1.247 . S
O12 Zn4 1.906 . S
O12 C20 1.304 1_554 S
O13 Zn1 1.924 1_545 S
O13 C21 1.311 . S
O14 Zn5 1.977 1_655 S
O14 C20 1.272 . S
O15 Zn5 1.910 . S
O15 C21 1.231 1_556 S
C16 O0 1.225 1_545 S
C16 O22 1.298 1_455 S
C17 O6 1.226 1_445 S
C17 O7 1.307 . S
C18 O10 1.303 1_554 S
C18 O11 1.247 . S
C19 O8 1.253 1_556 S
C19 O9 1.283 . S
C20 O12 1.304 1_556 S
C20 O14 1.272 . S
C21 O13 1.311 . S
C21 O15 1.231 1_554 S
O22 Zn4 1.953 . S
O22 C16 1.298 1_655 S
O23 Zn24 1.953 . S
O23 C39 1.225 . S
Zn24 O23 1.953 . S
Zn24 O25 1.949 . S
Zn24 O31 1.919 . S
Zn24 O36 1.924 . S
O25 Zn24 1.949 . S
O25 Zn26 1.923 . S
O25 Zn27 1.950 . S
O25 Zn28 1.945 . S
Zn26 O25 1.923 . S
Zn26 O29 1.933 . S
Zn26 O32 1.941 . S
Zn26 O33 1.965 . S
Zn27 O25 1.950 . S
Zn27 O34 1.938 . S
Zn27 O35 1.906 . S
Zn27 O45 1.953 . S
Zn28 O25 1.945 . S
Zn28 O30 1.932 . S
Zn28 O37 1.977 . S
Zn28 O38 1.910 . S
O29 Zn26 1.933 . S
O29 C40 1.226 . S
O30 Zn28 1.932 . S
O30 C40 1.307 . S
O31 Zn24 1.919 . S
O31 C42 1.253 . S
O32 Zn26 1.941 . S
O32 C42 1.283 . S
O33 Zn26 1.965 . S
O33 C41 1.303 . S
O34 Zn27 1.938 . S
O34 C41 1.247 . S
O35 Zn27 1.906 . S
O35 C43 1.304 . S
O36 Zn24 1.924 . S
O36 C44 1.311 . S
O37 Zn28 1.977 . S
O37 C43 1.272 . S
O38 Zn28 1.910 . S
O38 C44 1.231 . S
C39 O23 1.225 . S
C39 O45 1.298 . S
C40 O29 1.226 . S
C40 O30 1.307 . S
C41 O33 1.303 . S
C41 O34 1.247 . S
C42 O31 1.253 . S
C42 O32 1.283 . S
C43 O35 1.304 . S
C43 O37 1.272 . S
C44 O36 1.311 . S
C44 O38 1.231 . S
O45 Zn27 1.953 . S
O45 C39 1.298 . S
C46 C47 1.391 . S
C46 C50 1.391 . S
C46 H88 0.948 . S
C47 C46 1.391 . S
C47 C48 1.391 . S
C48 C47 1.391 . S
C48 H104 0.947 . S
C48 C105 1.392 . S
C49 C50 1.391 . S
C49 C53 1.397 . S
C49 C105 1.419 . S
C50 C46 1.391 . S
C50 C49 1.391 . S
C50 C51 1.399 . S
C51 C50 1.399 . S
C51 C54 1.396 . S
C51 C63 1.453 1_565 S
C51 C64 1.684 1_455 S
H52 C76 0.948 . S
C53 C49 1.397 . S
C53 C54 1.394 . S
C53 C72 1.723 . S
C54 C51 1.396 . S
C54 C53 1.394 . S
C54 C84 1.723 1_465 S
H55 C78 0.947 . S
H56 C79 0.948 . S
H57 C85 0.982 . S
H58 C86 0.979 . S
H59 C86 0.980 . S
H60 C86 0.983 . S
H61 C85 0.979 . S
H62 C85 0.977 . S
C63 C51 1.453 1_545 S
C63 H92 0.982 . S
C63 H93 0.979 1_545 S
C63 H94 0.977 . S
C64 C51 1.684 1_655 S
C64 H89 0.979 . S
C64 H90 0.980 . S
C64 H91 0.983 1_655 S
C65 C66 1.391 1_465 S
C65 C70 1.391 . S
C65 H95 0.948 . S
C66 C65 1.391 1_645 S
C66 C67 1.391 . S
C67 C66 1.391 . S
C67 C68 1.392 . S
C67 H96 0.947 . S
C68 C67 1.392 . S
C68 C69 1.419 . S
C68 H97 0.948 . S
C69 C68 1.419 . S
C69 C70 1.391 1_645 S
C69 C73 1.397 . S
C70 C65 1.391 . S
C70 C69 1.391 1_465 S
C70 C71 1.399 . S
C71 C70 1.399 . S
C71 C72 1.396 . S
C71 C74 1.453 . S
C71 C75 1.684 . S
C72 C53 1.723 . S
C72 C71 1.396 . S
C72 C73 1.394 1_465 S
C73 C69 1.397 . S
C73 C72 1.394 1_645 S
C73 C83 1.723 . S
C74 C71 1.453 . S
C74 H98 0.982 . S
C74 H99 0.979 . S
C74 H100 0.977 . S
C75 C71 1.684 . S
C75 H101 0.979 . S
C75 H102 0.980 . S
C75 H103 0.983 . S
C76 H52 0.948 . S
C76 C77 1.391 . S
C76 C81 1.391 . S
C77 C76 1.391 . S
C77 C78 1.391 . S
C78 H55 0.947 . S
C78 C77 1.391 . S
C78 C79 1.392 . S
C79 H56 0.948 . S
C79 C78 1.392 . S
C79 C80 1.419 . S
C80 C79 1.419 . S
C80 C81 1.391 . S
C80 C84 1.397 . S
C81 C76 1.391 . S
C81 C80 1.391 . S
C81 C82 1.399 . S
C82 C81 1.399 . S
C82 C83 1.396 . S
C82 C85 1.453 . S
C82 C86 1.684 . S
C83 C73 1.723 . S
C83 C82 1.396 . S
C83 C84 1.394 . S
C84 C54 1.723 1_645 S
C84 C80 1.397 . S
C84 C83 1.394 . S
C85 H57 0.982 . S
C85 H61 0.979 . S
C85 H62 0.977 . S
C85 C82 1.453 . S
C86 H58 0.979 . S
C86 H59 0.980 . S
C86 H60 0.983 . S
C86 C82 1.684 . S
H87 C105 0.948 . S
H88 C46 0.948 . S
H89 C64 0.979 . S
H90 C64 0.980 . S
H91 C64 0.983 1_455 S
H92 C63 0.982 . S
H93 C63 0.979 1_565 S
H94 C63 0.977 . S
H95 C65 0.948 . S
H96 C67 0.947 . S
H97 C68 0.948 . S
H98 C74 0.982 . S
H99 C74 0.979 . S
H100 C74 0.977 . S
H101 C75 0.979 . S
H102 C75 0.980 . S
H103 C75 0.983 . S
H104 C48 0.947 . S
C105 C48 1.392 . S
C105 C49 1.419 . S
C105 H87 0.948 . S
C106 C107 1.391 . S
C106 C110 1.391 . S
C106 H148 0.948 . S
C107 C106 1.391 . S
C107 C108 1.391 . S
C108 C107 1.391 . S
C108 H164 0.947 . S
C108 C165 1.392 . S
C109 C110 1.391 . S
C109 C113 1.397 . S
C109 C165 1.419 . S
C110 C106 1.391 . S
C110 C109 1.391 . S
C110 C111 1.399 . S
C111 C110 1.399 . S
C111 C114 1.396 . S
C111 C123 1.453 1_545 S
C111 C124 1.684 1_455 S
H112 C136 0.948 . S
C113 C109 1.397 . S
C113 C114 1.394 . S
C113 C132 1.723 . S
C114 C111 1.396 . S
C114 C113 1.394 . S
C114 C144 1.723 1_445 S
H115 C138 0.947 . S
H116 C139 0.948 . S
H117 C145 0.982 . S
H118 C146 0.979 . S
H119 C146 0.980 . S
H120 C146 0.983 . S
H121 C145 0.979 . S
H122 C145 0.977 . S
C123 C111 1.453 1_565 S
C123 H152 0.982 . S
C123 H153 0.979 1_565 S
C123 H154 0.977 . S
C124 C111 1.684 1_655 S
C124 H149 0.979 . S
C124 H150 0.980 . S
C124 H151 0.983 1_655 S
C125 C126 1.392 . S
C125 C130 1.391 . S
C125 H155 0.948 . S
C126 C125 1.392 . S
C126 C127 1.390 1_445 S
C127 C126 1.390 1_665 S
C127 C128 1.392 . S
C127 H156 0.947 . S
C128 C127 1.392 . S
C128 C129 1.419 . S
C128 H157 0.948 . S
C129 C128 1.419 . S
C129 C130 1.391 1_665 S
C129 C133 1.397 1_655 S
C130 C125 1.391 . S
C130 C129 1.391 1_445 S
C130 C131 1.399 . S
C131 C130 1.399 . S
C131 C132 1.396 . S
C131 C134 1.453 . S
C131 C135 1.684 . S
C132 C113 1.723 . S
C132 C131 1.396 . S
C132 C133 1.394 1_545 S
C133 C129 1.397 1_455 S
C133 C132 1.394 1_565 S
C133 C143 1.723 1_455 S
C134 C131 1.453 . S
C134 H158 0.982 . S
C134 H159 0.979 . S
C134 H160 0.977 . S
C135 C131 1.684 . S
C135 H161 0.979 . S
C135 H162 0.980 . S
C135 H163 0.983 . S
C136 H112 0.948 . S
C136 C137 1.391 . S
C136 C141 1.391 . S
C137 C136 1.391 . S
C137 C138 1.391 . S
C138 H115 0.947 . S
C138 C137 1.391 . S
C138 C139 1.392 . S
C139 H116 0.948 . S
C139 C138 1.392 . S
C139 C140 1.419 . S
C140 C139 1.419 . S
C140 C141 1.391 . S
C140 C144 1.397 . S
C141 C136 1.391 . S
C141 C140 1.391 . S
C141 C142 1.399 . S
C142 C141 1.399 . S
C142 C143 1.396 . S
C142 C145 1.453 . S
C142 C146 1.684 . S
C143 C133 1.723 1_655 S
C143 C142 1.396 . S
C143 C144 1.394 . S
C144 C114 1.723 1_665 S
C144 C140 1.397 . S
C144 C143 1.394 . S
C145 H117 0.982 . S
C145 H121 0.979 . S
C145 H122 0.977 . S
C145 C142 1.453 . S
C146 H118 0.979 . S
C146 H119 0.980 . S
C146 H120 0.983 . S
C146 C142 1.684 . S
H147 C165 0.948 . S
H148 C106 0.948 . S
H149 C124 0.979 . S
H150 C124 0.980 . S
H151 C124 0.983 1_455 S
H152 C123 0.982 . S
H153 C123 0.979 1_545 S
H154 C123 0.977 . S
H155 C125 0.948 . S
H156 C127 0.947 . S
H157 C128 0.948 . S
H158 C134 0.982 . S
H159 C134 0.979 . S
H160 C134 0.977 . S
H161 C135 0.979 . S
H162 C135 0.980 . S
H163 C135 0.983 . S
H164 C108 0.947 . S
C165 C108 1.392 . S
C165 C109 1.419 . S
C165 H147 0.948 . S
C166 C167 1.391 . S
C166 C170 1.391 . S
C166 H208 0.948 . S
C167 C166 1.391 . S
C167 C168 1.391 . S
C168 C167 1.391 . S
C168 H224 0.947 . S
C168 C225 1.392 . S
C169 C170 1.391 . S
C169 C173 1.397 . S
C169 C225 1.419 . S
C170 C166 1.391 . S
C170 C169 1.391 . S
C170 C171 1.399 . S
C171 C170 1.399 . S
C171 C174 1.396 . S
C171 C183 1.453 . S
C171 C184 1.684 . S
H172 C196 0.948 . S
C173 C169 1.397 . S
C173 C174 1.394 . S
C173 C192 1.723 . S
C174 C171 1.396 . S
C174 C173 1.394 . S
C174 C204 1.723 . S
H175 C198 0.947 1_554 S
H176 C199 0.948 . S
H177 C205 0.982 . S
H178 C206 0.979 . S
H179 C206 0.980 . S
H180 C206 0.983 . S
H181 C205 0.979 . S
H182 C205 0.977 . S
C183 C171 1.453 . S
C183 H212 0.982 . S
C183 H213 0.979 1_556 S
C183 H214 0.977 . S
C184 C171 1.684 . S
C184 H209 0.979 . S
C184 H210 0.980 . S
C184 H211 0.983 1_556 S
C185 C186 1.391 . S
C185 C190 1.391 . S
C185 H215 0.948 . S
C186 C185 1.391 . S
C186 C187 1.391 . S
C187 C186 1.391 . S
C187 C188 1.392 . S
C187 H216 0.947 . S
C188 C187 1.392 . S
C188 C189 1.419 . S
C188 H217 0.948 . S
C189 C188 1.419 . S
C189 C190 1.391 . S
C189 C193 1.397 . S
C190 C185 1.391 . S
C190 C189 1.391 . S
C190 C191 1.399 . S
C191 C190 1.399 . S
C191 C192 1.396 . S
C191 C194 1.453 . S
C191 C195 1.684 . S
C192 C173 1.723 . S
C192 C191 1.396 . S
C192 C193 1.394 . S
C193 C189 1.397 . S
C193 C192 1.394 . S
C193 C203 1.723 . S
C194 C191 1.453 . S
C194 H218 0.982 . S
C194 H219 0.979 . S
C194 H220 0.977 . S
C195 C191 1.684 . S
C195 H221 0.979 . S
C195 H222 0.980 . S
C195 H223 0.983 . S
C196 H172 0.948 . S
C196 C197 1.391 . S
C196 C201 1.391 . S
C197 C196 1.391 . S
C197 C198 1.391 . S
C198 H175 0.947 1_556 S
C198 C197 1.391 . S
C198 C199 1.392 . S
C199 H176 0.948 . S
C199 C198 1.392 . S
C199 C200 1.419 . S
C200 C199 1.419 . S
C200 C201 1.391 . S
C200 C204 1.397 . S
C201 C196 1.391 . S
C201 C200 1.391 . S
C201 C202 1.399 . S
C202 C201 1.399 . S
C202 C203 1.396 . S
C202 C205 1.453 . S
C202 C206 1.684 . S
C203 C193 1.723 . S
C203 C202 1.396 . S
C203 C204 1.394 . S
C204 C174 1.723 . S
C204 C200 1.397 . S
C204 C203 1.394 . S
C205 H177 0.982 . S
C205 H181 0.979 . S
C205 H182 0.977 . S
C205 C202 1.453 . S
C206 H178 0.979 . S
C206 H179 0.980 . S
C206 H180 0.983 . S
C206 C202 1.684 . S
H207 C225 0.948 . S
H208 C166 0.948 . S
H209 C184 0.979 . S
H210 C184 0.980 . S
H211 C184 0.983 1_554 S
H212 C183 0.982 . S
H213 C183 0.979 1_554 S
H214 C183 0.977 . S
H215 C185 0.948 . S
H216 C187 0.947 . S
H217 C188 0.948 . S
H218 C194 0.982 . S
H219 C194 0.979 . S
H220 C194 0.977 . S
H221 C195 0.979 . S
H222 C195 0.980 . S
H223 C195 0.983 . S
H224 C168 0.947 . S
C225 C168 1.392 . S
C225 C169 1.419 . S
C225 H207 0.948 . S
C226 C227 1.391 . S
C226 C230 1.391 . S
C226 H268 0.948 . S
C227 C226 1.391 . S
C227 C228 1.391 . S
C228 C227 1.391 . S
C228 H284 0.947 . S
C228 C285 1.392 . S
C229 C230 1.391 . S
C229 C233 1.397 . S
C229 C285 1.419 . S
C230 C226 1.391 . S
C230 C229 1.391 . S
C230 C231 1.399 . S
C231 C230 1.399 . S
C231 C234 1.396 . S
C231 C243 1.453 . S
C231 C244 1.684 . S
H232 C256 0.948 . S
C233 C229 1.397 . S
C233 C234 1.394 . S
C233 C252 1.723 . S
C234 C231 1.396 . S
C234 C233 1.394 . S
C234 C264 1.723 . S
H235 C258 0.947 1_556 S
H236 C259 0.948 . S
H237 C265 0.982 . S
H238 C266 0.979 . S
H239 C266 0.980 . S
H240 C266 0.983 . S
H241 C265 0.979 . S
H242 C265 0.977 . S
C243 C231 1.453 . S
C243 H272 0.982 . S
C243 H273 0.979 . S
C243 H274 0.977 . S
C244 C231 1.684 . S
C244 H269 0.979 . S
C244 H270 0.980 . S
C244 H271 0.983 1_554 S
C245 C246 1.391 . S
C245 C250 1.391 . S
C245 H275 0.948 . S
C246 C245 1.391 . S
C246 C247 1.391 . S
C247 C246 1.391 . S
C247 C248 1.392 . S
C247 H276 0.947 . S
C248 C247 1.392 . S
C248 C249 1.419 . S
C248 H277 0.948 . S
C249 C248 1.419 . S
C249 C250 1.391 . S
C249 C253 1.397 . S
C250 C245 1.391 . S
C250 C249 1.391 . S
C250 C251 1.399 . S
C251 C250 1.399 . S
C251 C252 1.396 . S
C251 C254 1.453 . S
C251 C255 1.684 . S
C252 C233 1.723 . S
C252 C251 1.396 . S
C252 C253 1.394 . S
C253 C249 1.397 . S
C253 C252 1.394 . S
C253 C263 1.723 . S
C254 C251 1.453 . S
C254 H278 0.982 . S
C254 H279 0.979 . S
C254 H280 0.977 . S
C255 C251 1.684 . S
C255 H281 0.979 . S
C255 H282 0.980 . S
C255 H283 0.983 . S
C256 H232 0.948 . S
C256 C257 1.391 . S
C256 C261 1.391 . S
C257 C256 1.391 . S
C257 C258 1.391 . S
C258 H235 0.947 1_554 S
C258 C257 1.391 . S
C258 C259 1.392 . S
C259 H236 0.948 . S
C259 C258 1.392 . S
C259 C260 1.419 . S
C260 C259 1.419 . S
C260 C261 1.391 . S
C260 C264 1.397 . S
C261 C256 1.391 . S
C261 C260 1.391 . S
C261 C262 1.399 . S
C262 C261 1.399 . S
C262 C263 1.396 . S
C262 C265 1.453 . S
C262 C266 1.684 . S
C263 C253 1.723 . S
C263 C262 1.396 . S
C263 C264 1.394 . S
C264 C234 1.723 . S
C264 C260 1.397 . S
C264 C263 1.394 . S
C265 H237 0.982 . S
C265 H241 0.979 . S
C265 H242 0.977 . S
C265 C262 1.453 . S
C266 H238 0.979 . S
C266 H239 0.980 . S
C266 H240 0.983 . S
C266 C262 1.684 . S
H267 C285 0.948 . S
H268 C226 0.948 . S
H269 C244 0.979 . S
H270 C244 0.980 . S
H271 C244 0.983 1_556 S
H272 C243 0.982 . S
H273 C243 0.979 . S
H274 C243 0.977 . S
H275 C245 0.948 . S
H276 C247 0.947 . S
H277 C248 0.948 . S
H278 C254 0.982 . S
H279 C254 0.979 . S
H280 C254 0.977 . S
H281 C255 0.979 . S
H282 C255 0.980 . S
H283 C255 0.983 . S
H284 C228 0.947 . S
C285 C228 1.392 . S
C285 C229 1.419 . S
C285 H267 0.948 . S
C286 C287 1.387 1_556 S
C286 H290 0.950 . S
C286 C295 1.390 1_556 S
C287 C286 1.387 1_554 S
C287 C289 1.387 . S
H288 C295 0.950 1_556 S
C289 C287 1.387 . S
C289 C291 1.390 . S
C289 H293 0.950 . S
H290 C286 0.950 . S
C291 C289 1.390 . S
C291 C292 1.387 . S
C291 H294 0.950 . S
C292 C291 1.387 . S
C292 C295 1.387 . S
H293 C289 0.950 . S
H294 C291 0.950 . S
C295 C286 1.390 1_554 S
C295 H288 0.950 1_554 S
C295 C292 1.387 . S
C296 C297 1.387 1_554 S
C296 H300 0.950 . S
C296 C305 1.390 . S
C297 C296 1.387 1_556 S
C297 C299 1.387 . S
H298 C305 0.950 . S
C299 C297 1.387 . S
C299 C301 1.390 . S
C299 H303 0.950 . S
H300 C296 0.950 . S
C301 C299 1.390 . S
C301 C302 1.387 . S
C301 H304 0.950 . S
C302 C301 1.387 . S
C302 C305 1.387 1_556 S
H303 C299 0.950 . S
H304 C301 0.950 . S
C305 C296 1.390 . S
C305 H298 0.950 . S
C305 C302 1.387 1_554 S
C306 C307 1.387 1_556 S
C306 H310 0.950 . S
C306 C315 1.390 1_556 S
C307 C306 1.387 1_554 S
C307 C309 1.387 . S
H308 C315 0.950 1_556 S
C309 C307 1.387 . S
C309 C311 1.390 . S
C309 H313 0.950 . S
H310 C306 0.950 . S
C311 C309 1.390 . S
C311 C312 1.387 . S
C311 H314 0.950 . S
C312 C311 1.387 . S
C312 C315 1.387 . S
H313 C309 0.950 . S
H314 C311 0.950 . S
C315 C306 1.390 1_554 S
C315 H308 0.950 1_554 S
C315 C312 1.387 . S
C316 C317 1.387 1_554 S
C316 H320 0.950 . S
C316 C325 1.390 . S
C317 C316 1.387 1_556 S
C317 C319 1.387 . S
H318 C325 0.950 . S
C319 C317 1.387 . S
C319 C321 1.390 . S
C319 H323 0.950 . S
H320 C316 0.950 . S
C321 C319 1.390 . S
C321 C322 1.387 . S
C321 H324 0.950 . S
C322 C321 1.387 . S
C322 C325 1.387 1_556 S
H323 C319 0.950 . S
H324 C321 0.950 . S
C325 C316 1.390 . S
C325 H318 0.950 . S
C325 C322 1.387 1_554 S
C326 C327 1.387 . S
C326 H330 0.950 . S
C326 C335 1.390 . S
C327 C326 1.387 . S
C327 C329 1.387 . S
H328 C335 0.950 . S
C329 C327 1.387 . S
C329 C331 1.390 . S
C329 H333 0.950 . S
H330 C326 0.950 . S
C331 C329 1.390 . S
C331 C332 1.387 . S
C331 H334 0.950 . S
C332 C331 1.387 . S
C332 C335 1.387 . S
H333 C329 0.950 . S
H334 C331 0.950 . S
C335 C326 1.390 . S
C335 H328 0.950 . S
C335 C332 1.387 . S
C336 C337 1.387 . S
C336 H340 0.950 . S
C336 C345 1.390 . S
C337 C336 1.387 . S
C337 C339 1.387 . S
H338 C345 0.950 . S
C339 C337 1.387 . S
C339 C341 1.390 . S
C339 H343 0.950 . S
H340 C336 0.950 . S
C341 C339 1.390 . S
C341 C342 1.387 . S
C341 H344 0.950 . S
C342 C341 1.387 . S
C342 C345 1.387 . S
H343 C339 0.950 . S
H344 C341 0.950 . S
C345 C336 1.390 . S
C345 H338 0.950 . S
C345 C342 1.387 . S
C346 C347 1.387 . S
C346 H350 0.950 . S
C346 C355 1.390 . S
C347 C346 1.387 . S
C347 C349 1.387 . S
H348 C355 0.950 . S
C349 C347 1.387 . S
C349 C351 1.390 . S
C349 H353 0.950 . S
H350 C346 0.950 . S
C351 C349 1.390 . S
C351 C352 1.387 . S
C351 H354 0.950 . S
C352 C351 1.387 . S
C352 C355 1.387 . S
H353 C349 0.950 . S
H354 C351 0.950 . S
C355 C346 1.390 . S
C355 H348 0.950 . S
C355 C352 1.387 . S
C356 C357 1.387 . S
C356 H360 0.950 . S
C356 C365 1.390 . S
C357 C356 1.387 . S
C357 C359 1.387 . S
H358 C365 0.950 . S
C359 C357 1.387 . S
C359 C361 1.390 . S
C359 H363 0.950 . S
H360 C356 0.950 . S
C361 C359 1.390 . S
C361 C362 1.387 . S
C361 H364 0.950 . S
C362 C361 1.387 . S
C362 C365 1.387 . S
H363 C359 0.950 . S
H364 C361 0.950 . S
C365 C356 1.390 . S
C365 H358 0.950 . S
C365 C362 1.387 . S
C366 C367 1.387 1_565 S
C366 H370 0.950 . S
C366 C375 1.390 . S
C367 C366 1.387 1_545 S
C367 C369 1.387 . S
H368 C375 0.950 . S
C369 C367 1.387 . S
C369 C371 1.390 . S
C369 H373 0.950 . S
H370 C366 0.950 . S
C371 C369 1.390 . S
C371 C372 1.391 . S
C371 H374 0.950 . S
C372 C371 1.391 . S
C372 C375 1.384 1_545 S
H373 C369 0.950 . S
H374 C371 0.950 . S
C375 C366 1.390 . S
C375 H368 0.950 . S
C375 C372 1.384 1_565 S
C376 C377 1.387 1_655 S
C376 H380 0.950 . S
C376 C385 1.390 . S
C377 C376 1.387 1_455 S
C377 C379 1.387 1_545 S
H378 C385 0.950 . S
C379 C377 1.387 1_565 S
C379 C381 1.390 . S
C379 H383 0.950 . S
H380 C376 0.950 . S
C381 C379 1.390 . S
C381 C382 1.387 1_565 S
C381 H384 0.950 . S
C382 C381 1.387 1_545 S
C382 C385 1.387 1_455 S
H383 C379 0.950 . S
H384 C381 0.950 . S
C385 C376 1.390 . S
C385 H378 0.950 . S
C385 C382 1.387 1_655 S
C386 C387 1.387 . S
C386 H390 0.950 . S
C386 C395 1.390 . S
C387 C386 1.387 . S
C387 C389 1.387 . S
H388 C395 0.950 . S
C389 C387 1.387 . S
C389 C391 1.390 . S
C389 H393 0.950 . S
H390 C386 0.950 . S
C391 C389 1.390 . S
C391 C392 1.387 . S
C391 H394 0.950 . S
C392 C391 1.387 . S
C392 C395 1.387 . S
H393 C389 0.950 . S
H394 C391 0.950 . S
C395 C386 1.390 . S
C395 H388 0.950 . S
C395 C392 1.387 . S
C396 C397 1.387 . S
C396 H400 0.950 . S
C396 C405 1.390 . S
C397 C396 1.387 . S
C397 C399 1.387 . S
H398 C405 0.950 . S
C399 C397 1.387 . S
C399 C401 1.390 . S
C399 H403 0.950 . S
H400 C396 0.950 . S
C401 C399 1.390 . S
C401 C402 1.387 . S
C401 H404 0.950 . S
C402 C401 1.387 . S
C402 C405 1.387 . S
H403 C399 0.950 . S
H404 C401 0.950 . S
C405 C396 1.390 . S
C405 H398 0.950 . S
C405 C402 1.387 . S
C292 C257 1.502 . S
C287 C21 1.490 . S
C297 C19 1.481 . S
C302 C197 1.502 . S
C307 C18 1.460 . S
C312 C227 1.389 . S
C317 C20 1.481 . S
C322 C167 1.403 . S
C327 C44 1.490 . S
C332 C137 1.502 . S
C337 C42 1.481 . S
C342 C77 1.501 . S
C352 C107 1.389 . S
C347 C41 1.460 . S
C362 C47 1.404 . S
C357 C43 1.482 . S
C367 C16 1.496 . S
C372 C66 1.476 1_455 S
C377 C17 1.464 . S
C382 C126 1.442 . S
C392 C186 1.477 . S
C387 C39 1.496 . S
C397 C40 1.464 . S
C402 C246 1.442 . S
