# Generated by pormake.
# Topology eea, (3,6)-cn, num edge types: 1
# Building blocks:
#     Node 0, Type 0, BuildingBlock: BETDIP_clean_linker_0, # of connection points: 3
#     Node 1, Type 0, BuildingBlock: BETDIP_clean_linker_0, # of connection points: 3
#     Node 2, Type 0, BuildingBlock: BETDIP_clean_linker_0, # of connection points: 3
#     Node 3, Type 0, BuildingBlock: BETDIP_clean_linker_0, # of connection points: 3
#     Node 4, Type 0, BuildingBlock: BETDIP_clean_linker_0, # of connection points: 3
#     Node 5, Type 0, BuildingBlock: BETDIP_clean_linker_0, # of connection points: 3
#     Node 6, Type 0, BuildingBlock: BETDIP_clean_linker_0, # of connection points: 3
#     Node 7, Type 0, BuildingBlock: BETDIP_clean_linker_0, # of connection points: 3
#     Node 8, Type 0, BuildingBlock: BETDIP_clean_linker_0, # of connection points: 3
#     Node 9, Type 0, BuildingBlock: BETDIP_clean_linker_0, # of connection points: 3
#     Node 10, Type 0, BuildingBlock: BETDIP_clean_linker_0, # of connection points: 3
#     Node 11, Type 0, BuildingBlock: BETDIP_clean_linker_0, # of connection points: 3
#     Node 12, Type 0, BuildingBlock: BETDIP_clean_linker_0, # of connection points: 3
#     Node 13, Type 0, BuildingBlock: BETDIP_clean_linker_0, # of connection points: 3
#     Node 14, Type 0, BuildingBlock: BETDIP_clean_linker_0, # of connection points: 3
#     Node 15, Type 0, BuildingBlock: BETDIP_clean_linker_0, # of connection points: 3
#     Node 16, Type 0, BuildingBlock: BETDIP_clean_linker_0, # of connection points: 3
#     Node 17, Type 0, BuildingBlock: BETDIP_clean_linker_0, # of connection points: 3
#     Node 18, Type 1, BuildingBlock: KUMJIN_clean_sbu_0, # of connection points: 6
#     Node 19, Type 1, BuildingBlock: KUMJIN_clean_sbu_0, # of connection points: 6
#     Node 20, Type 1, BuildingBlock: KUMJIN_clean_sbu_0, # of connection points: 6
#     Node 21, Type 1, BuildingBlock: KUMJIN_clean_sbu_0, # of connection points: 6
#     Node 22, Type 1, BuildingBlock: KUMJIN_clean_sbu_0, # of connection points: 6
#     Node 23, Type 1, BuildingBlock: KUMJIN_clean_sbu_0, # of connection points: 6
#     Node 24, Type 1, BuildingBlock: KUMJIN_clean_sbu_0, # of connection points: 6
#     Node 25, Type 1, BuildingBlock: KUMJIN_clean_sbu_0, # of connection points: 6
#     Node 26, Type 1, BuildingBlock: KUMJIN_clean_sbu_0, # of connection points: 6
#     Edge 27, Type (0, 1), BuildingBlock: CIFDUS_clean_linker_0, # of connection points: 2
#     Edge 28, Type (0, 1), BuildingBlock: CIFDUS_clean_linker_0, # of connection points: 2
#     Edge 29, Type (0, 1), BuildingBlock: CIFDUS_clean_linker_0, # of connection points: 2
#     Edge 30, Type (0, 1), BuildingBlock: CIFDUS_clean_linker_0, # of connection points: 2
#     Edge 31, Type (0, 1), BuildingBlock: CIFDUS_clean_linker_0, # of connection points: 2
#     Edge 32, Type (0, 1), BuildingBlock: CIFDUS_clean_linker_0, # of connection points: 2
#     Edge 33, Type (0, 1), BuildingBlock: CIFDUS_clean_linker_0, # of connection points: 2
#     Edge 34, Type (0, 1), BuildingBlock: CIFDUS_clean_linker_0, # of connection points: 2
#     Edge 35, Type (0, 1), BuildingBlock: CIFDUS_clean_linker_0, # of connection points: 2
#     Edge 36, Type (0, 1), BuildingBlock: CIFDUS_clean_linker_0, # of connection points: 2
#     Edge 37, Type (0, 1), BuildingBlock: CIFDUS_clean_linker_0, # of connection points: 2
#     Edge 38, Type (0, 1), BuildingBlock: CIFDUS_clean_linker_0, # of connection points: 2
#     Edge 39, Type (0, 1), BuildingBlock: CIFDUS_clean_linker_0, # of connection points: 2
#     Edge 40, Type (0, 1), BuildingBlock: CIFDUS_clean_linker_0, # of connection points: 2
#     Edge 41, Type (0, 1), BuildingBlock: CIFDUS_clean_linker_0, # of connection points: 2
#     Edge 42, Type (0, 1), BuildingBlock: CIFDUS_clean_linker_0, # of connection points: 2
#     Edge 43, Type (0, 1), BuildingBlock: CIFDUS_clean_linker_0, # of connection points: 2
#     Edge 44, Type (0, 1), BuildingBlock: CIFDUS_clean_linker_0, # of connection points: 2
#     Edge 45, Type (0, 1), BuildingBlock: CIFDUS_clean_linker_0, # of connection points: 2
#     Edge 46, Type (0, 1), BuildingBlock: CIFDUS_clean_linker_0, # of connection points: 2
#     Edge 47, Type (0, 1), BuildingBlock: CIFDUS_clean_linker_0, # of connection points: 2
#     Edge 48, Type (0, 1), BuildingBlock: CIFDUS_clean_linker_0, # of connection points: 2
#     Edge 49, Type (0, 1), BuildingBlock: CIFDUS_clean_linker_0, # of connection points: 2
#     Edge 50, Type (0, 1), BuildingBlock: CIFDUS_clean_linker_0, # of connection points: 2
#     Edge 51, Type (0, 1), BuildingBlock: CIFDUS_clean_linker_0, # of connection points: 2
#     Edge 52, Type (0, 1), BuildingBlock: CIFDUS_clean_linker_0, # of connection points: 2
#     Edge 53, Type (0, 1), BuildingBlock: CIFDUS_clean_linker_0, # of connection points: 2
#     Edge 54, Type (0, 1), BuildingBlock: CIFDUS_clean_linker_0, # of connection points: 2
#     Edge 55, Type (0, 1), BuildingBlock: CIFDUS_clean_linker_0, # of connection points: 2
#     Edge 56, Type (0, 1), BuildingBlock: CIFDUS_clean_linker_0, # of connection points: 2
#     Edge 57, Type (0, 1), BuildingBlock: CIFDUS_clean_linker_0, # of connection points: 2
#     Edge 58, Type (0, 1), BuildingBlock: CIFDUS_clean_linker_0, # of connection points: 2
#     Edge 59, Type (0, 1), BuildingBlock: CIFDUS_clean_linker_0, # of connection points: 2
#     Edge 60, Type (0, 1), BuildingBlock: CIFDUS_clean_linker_0, # of connection points: 2
#     Edge 61, Type (0, 1), BuildingBlock: CIFDUS_clean_linker_0, # of connection points: 2
#     Edge 62, Type (0, 1), BuildingBlock: CIFDUS_clean_linker_0, # of connection points: 2
#     Edge 63, Type (0, 1), BuildingBlock: CIFDUS_clean_linker_0, # of connection points: 2
#     Edge 64, Type (0, 1), BuildingBlock: CIFDUS_clean_linker_0, # of connection points: 2
#     Edge 65, Type (0, 1), BuildingBlock: CIFDUS_clean_linker_0, # of connection points: 2
#     Edge 66, Type (0, 1), BuildingBlock: CIFDUS_clean_linker_0, # of connection points: 2
#     Edge 67, Type (0, 1), BuildingBlock: CIFDUS_clean_linker_0, # of connection points: 2
#     Edge 68, Type (0, 1), BuildingBlock: CIFDUS_clean_linker_0, # of connection points: 2
#     Edge 69, Type (0, 1), BuildingBlock: CIFDUS_clean_linker_0, # of connection points: 2
#     Edge 70, Type (0, 1), BuildingBlock: CIFDUS_clean_linker_0, # of connection points: 2
#     Edge 71, Type (0, 1), BuildingBlock: CIFDUS_clean_linker_0, # of connection points: 2
#     Edge 72, Type (0, 1), BuildingBlock: CIFDUS_clean_linker_0, # of connection points: 2
#     Edge 73, Type (0, 1), BuildingBlock: CIFDUS_clean_linker_0, # of connection points: 2
#     Edge 74, Type (0, 1), BuildingBlock: CIFDUS_clean_linker_0, # of connection points: 2
#     Edge 75, Type (0, 1), BuildingBlock: CIFDUS_clean_linker_0, # of connection points: 2
#     Edge 76, Type (0, 1), BuildingBlock: CIFDUS_clean_linker_0, # of connection points: 2
#     Edge 77, Type (0, 1), BuildingBlock: CIFDUS_clean_linker_0, # of connection points: 2
#     Edge 78, Type (0, 1), BuildingBlock: CIFDUS_clean_linker_0, # of connection points: 2
#     Edge 79, Type (0, 1), BuildingBlock: CIFDUS_clean_linker_0, # of connection points: 2
#     Edge 80, Type (0, 1), BuildingBlock: CIFDUS_clean_linker_0, # of connection points: 2
# Relax obj value: 0.026
# Max RMSD: 0.174
# Mean RMSD: 0.125
data_MOF--net-eea--node1-KUMJIN_clean_sbu_0--node2-BETDIP_clean_linker_0--edge1-CIFDUS_clean_linker_0
_symmetry_space_group_name_H-M    P1
_symmetry_Int_Tables_number       1
_symmetry_cell_setting            triclinic
loop_
_symmetry_equiv_pos_as_xyz
'x, y, z'
_cell_length_a     47.035168
_cell_length_b     48.542468
_cell_length_c     59.736003
_cell_angle_alpha  89.618648
_cell_angle_beta   89.91458
_cell_angle_gamma 119.85557
loop_
_atom_site_label
_atom_site_type_symbol
_atom_site_fract_x
_atom_site_fract_y
_atom_site_fract_z
_atom_type_partial_charge
H0 H 0.2409 0.10152 0.38333 0.0
H1 H 0.26731 0.16141 0.44088 0.0
H2 H 0.2809 0.0802 0.44147 0.0
H3 H 0.21373 0.15287 0.43115 0.0
C4 C 0.21984 0.16074 0.41383 0.0
C5 C 0.25076 0.10697 0.40012 0.0
C6 C 0.26154 0.08787 0.41082 0.0
C7 C 0.2515 0.13259 0.41127 0.0
C8 C 0.2652 0.14059 0.43279 0.0
C9 C 0.27657 0.12221 0.44371 0.0
C10 C 0.27403 0.09558 0.43269 0.0
N11 N 0.23743 0.14952 0.401 0.0
H12 H 0.94271 0.13106 0.38485 0.0
H13 H 0.86532 0.11022 0.43215 0.0
H14 H 0.94932 0.20364 0.42913 0.0
H15 H 0.85418 0.06141 0.42885 0.0
C16 C 0.86012 0.05856 0.41178 0.0
C17 C 0.93236 0.13858 0.39809 0.0
C18 C 0.94914 0.17024 0.4054 0.0
C19 C 0.90237 0.11644 0.40785 0.0
C20 C 0.88904 0.12642 0.42499 0.0
C21 C 0.90596 0.15765 0.433 0.0
C22 C 0.93576 0.1796 0.42283 0.0
N23 N 0.8861 0.08453 0.40002 0.0
H24 H 0.90063 0.80495 0.38262 0.0
H25 H 0.92342 0.76308 0.43837 0.0
H26 H 0.83688 0.77177 0.44054 0.0
H27 H 0.96277 0.82997 0.37938 0.0
C28 C 0.96505 0.80923 0.38315 0.0
C29 C 0.89515 0.79486 0.39935 0.0
C30 C 0.86617 0.78954 0.41037 0.0
C31 C 0.9157 0.785 0.40958 0.0
C32 C 0.90773 0.77103 0.43089 0.0
C33 C 0.87983 0.76668 0.44249 0.0
C34 C 0.85884 0.7755 0.43192 0.0
N35 N 0.94302 0.7859 0.39858 0.0
H36 H 0.07655 0.19301 0.65866 0.0
H37 H 0.15023 0.23865 0.6073 0.0
H38 H 0.06259 0.24522 0.60522 0.0
H39 H 0.1818 0.2497 0.64175 0.0
C40 C 0.17112 0.22481 0.64647 0.0
C41 C 0.08497 0.20695 0.64336 0.0
C42 C 0.06569 0.21839 0.63318 0.0
C43 C 0.11597 0.21493 0.63448 0.0
C44 C 0.12675 0.23292 0.61451 0.0
C45 C 0.10766 0.24399 0.60392 0.0
C46 C 0.07742 0.23684 0.61347 0.0
N47 N 0.1363 0.20514 0.6458 0.0
H48 H 0.82737 0.8896 0.64845 0.0
H49 H 0.76843 0.9084 0.60311 0.0
H50 H 0.75115 0.81353 0.61005 0.0
H51 H 0.81013 0.95734 0.60429 0.0
C52 C 0.8181 0.96044 0.62159 0.0
C53 C 0.80747 0.88081 0.63654 0.0
C54 C 0.79015 0.84837 0.63085 0.0
C55 C 0.80001 0.90263 0.62668 0.0
C56 C 0.77485 0.892 0.61074 0.0
C57 C 0.75784 0.86006 0.60427 0.0
C58 C 0.76529 0.83833 0.61456 0.0
N59 N 0.81753 0.93486 0.63366 0.0
H60 H 0.13677 0.92471 0.64868 0.0
H61 H 0.09824 0.86493 0.59098 0.0
H62 H 0.19134 0.95132 0.58674 0.0
H63 H 0.05097 0.88097 0.61851 0.0
C64 C 0.05407 0.86456 0.62932 0.0
C65 C 0.13909 0.92025 0.63121 0.0
C66 C 0.16716 0.94173 0.61887 0.0
C67 C 0.114 0.89276 0.62112 0.0
C68 C 0.11727 0.88642 0.5986 0.0
C69 C 0.14525 0.90745 0.58608 0.0
C70 C 0.16978 0.93507 0.59633 0.0
N71 N 0.08637 0.87068 0.63399 0.0
H72 H 0.88344 0.41435 0.73056 0.0
H73 H 0.94849 0.48858 0.77489 0.0
H74 H 0.94043 0.39673 0.77882 0.0
H75 H 0.94656 0.52042 0.74924 0.0
C76 C 0.92282 0.50791 0.74119 0.0
C77 C 0.90127 0.42252 0.74394 0.0
C78 C 0.91014 0.40162 0.75391 0.0
C79 C 0.9153 0.45406 0.75101 0.0
C80 C 0.93797 0.4646 0.76874 0.0
C81 C 0.94729 0.44402 0.7787 0.0
C82 C 0.93324 0.41265 0.77119 0.0
N83 N 0.90563 0.4742 0.74009 0.0
H84 H 0.61627 0.4681 0.71678 0.0
H85 H 0.55636 0.4331 0.77624 0.0
H86 H 0.63622 0.52918 0.7735 0.0
H87 H 0.5169 0.40916 0.74905 0.0
C88 C 0.5285 0.39912 0.73875 0.0
C89 C 0.61081 0.47171 0.73378 0.0
C90 C 0.62986 0.50148 0.74398 0.0
C91 C 0.5834 0.44721 0.745 0.0
C92 C 0.57645 0.45223 0.7671 0.0
C93 C 0.59542 0.48164 0.77763 0.0
C94 C 0.62195 0.50608 0.76584 0.0
N95 N 0.56267 0.41802 0.7338 0.0
H96 H 0.5564 0.15662 0.71527 0.0
H97 H 0.58633 0.11602 0.76812 0.0
H98 H 0.49378 0.11359 0.77256 0.0
H99 H 0.60441 0.10155 0.73432 0.0
C100 C 0.61877 0.12579 0.72805 0.0
C101 C 0.55171 0.14469 0.73137 0.0
C102 C 0.52185 0.13524 0.74266 0.0
C103 C 0.57481 0.13723 0.74024 0.0
C104 C 0.56849 0.12153 0.76116 0.0
C105 C 0.53931 0.11285 0.77307 0.0
C106 C 0.5162 0.11975 0.76353 0.0
N107 N 0.60418 0.14547 0.72801 0.0
H108 H 0.78347 0.5589 0.99379 0.0
H109 H 0.84199 0.57344 0.93465 0.0
H110 H 0.76017 0.58991 0.93235 0.0
H111 H 0.83311 0.51871 0.95878 0.0
C112 C 0.84792 0.53726 0.97061 0.0
C113 C 0.78806 0.56481 0.97614 0.0
C114 C 0.76789 0.57359 0.96415 0.0
C115 C 0.81465 0.56433 0.96547 0.0
C116 C 0.82113 0.57305 0.9427 0.0
C117 C 0.80167 0.58247 0.93056 0.0
C118 C 0.77502 0.58229 0.94144 0.0
N119 N 0.83651 0.55793 0.97816 0.0
H120 H 0.47232 0.22992 0.98378 0.0
H121 H 0.42232 0.24244 0.92803 0.0
H122 H 0.42763 0.15687 0.93386 0.0
H123 H 0.49509 0.2841 0.98645 0.0
C124 C 0.47809 0.29053 0.97909 0.0
C125 C 0.45912 0.22137 0.96824 0.0
C126 C 0.45142 0.19105 0.96034 0.0
C127 C 0.44838 0.23979 0.95644 0.0
C128 C 0.43012 0.22785 0.93697 0.0
C129 C 0.42241 0.19803 0.92865 0.0
C130 C 0.43342 0.17989 0.9403 0.0
N131 N 0.45416 0.27002 0.96362 0.0
H132 H 0.79577 0.24066 0.99083 0.0
H133 H 0.78532 0.18481 0.93269 0.0
H134 H 0.86751 0.27924 0.93753 0.0
H135 H 0.73414 0.20538 0.98872 0.0
C136 C 0.73255 0.18309 0.98397 0.0
C137 C 0.80433 0.23862 0.97442 0.0
C138 C 0.83453 0.26338 0.96596 0.0
C139 C 0.78641 0.21032 0.96211 0.0
C140 C 0.79863 0.20711 0.94151 0.0
C141 C 0.82779 0.23178 0.93241 0.0
C142 C 0.84525 0.25988 0.94465 0.0
N143 N 0.7575 0.18329 0.97038 0.0
H144 H 0.56638 0.77412 0.05567 0.0
H145 H 0.60391 0.82801 0.11582 0.0
H146 H 0.5974 0.73687 0.11038 0.0
H147 H 0.54068 0.8053 0.05315 0.0
C148 C 0.5578 0.82788 0.06065 0.0
C149 C 0.57567 0.77614 0.0725 0.0
C150 C 0.5813 0.7521 0.08124 0.0
C151 C 0.58371 0.80347 0.0852 0.0
C152 C 0.59711 0.80653 0.10649 0.0
C153 C 0.60193 0.78263 0.11585 0.0
C154 C 0.59406 0.75556 0.10309 0.0
N155 N 0.58017 0.82926 0.07715 0.0
H156 H 0.28141 0.78699 0.0485 0.0
H157 H 0.21874 0.7612 0.10649 0.0
H158 H 0.29705 0.85714 0.09828 0.0
H159 H 0.22315 0.71509 0.10166 0.0
C160 C 0.21507 0.71185 0.08434 0.0
C161 C 0.27473 0.79351 0.06414 0.0
C162 C 0.29234 0.8252 0.07164 0.0
C163 C 0.24855 0.77011 0.07691 0.0
C164 C 0.23973 0.77875 0.09706 0.0
C165 C 0.25701 0.81002 0.10488 0.0
C166 C 0.28317 0.8331 0.09204 0.0
N167 N 0.23063 0.73815 0.06921 0.0
H168 H 0.2425 0.47158 0.05474 0.0
H169 H 0.26148 0.42561 0.10962 0.0
H170 H 0.17573 0.43583 0.11097 0.0
H171 H 0.30942 0.50006 0.05767 0.0
C172 C 0.31036 0.47829 0.05984 0.0
C173 C 0.23601 0.46063 0.0712 0.0
C174 C 0.20609 0.45435 0.08146 0.0
C175 C 0.25616 0.45037 0.08168 0.0
C176 C 0.24651 0.43455 0.10238 0.0
C177 C 0.21793 0.42952 0.11352 0.0
C178 C 0.19792 0.43952 0.10277 0.0
N179 N 0.28416 0.4518 0.07113 0.0
H180 H 0.42935 0.87406 0.32593 0.0
H181 H 0.487 0.88614 0.26689 0.0
H182 H 0.39952 0.89333 0.26232 0.0
H183 H 0.48398 0.83743 0.29344 0.0
C184 C 0.4977 0.85698 0.30485 0.0
C185 C 0.43331 0.87858 0.30809 0.0
C186 C 0.41086 0.88323 0.2953 0.0
C187 C 0.46078 0.87948 0.29789 0.0
C188 C 0.46564 0.88504 0.27469 0.0
C189 C 0.44398 0.8906 0.2617 0.0
C190 C 0.41679 0.88985 0.27223 0.0
N191 N 0.48428 0.87645 0.31118 0.0
H192 H 0.14479 0.55369 0.32418 0.0
H193 H 0.11443 0.58495 0.26586 0.0
H194 H 0.09478 0.48909 0.27024 0.0
H195 H 0.15399 0.63192 0.27506 0.0
C196 C 0.15426 0.63234 0.29322 0.0
C197 C 0.13337 0.54886 0.30785 0.0
C198 C 0.11948 0.51813 0.2988 0.0
C199 C 0.13236 0.57346 0.29596 0.0
C200 C 0.11656 0.5668 0.27501 0.0
C201 C 0.10331 0.53652 0.26557 0.0
C202 C 0.105 0.51248 0.27754 0.0
N203 N 0.14654 0.6043 0.30564 0.0
H204 H 0.46375 0.58296 0.3245 0.0
H205 H 0.44826 0.51505 0.27334 0.0
H206 H 0.53747 0.60486 0.27396 0.0
H207 H 0.41394 0.48062 0.30108 0.0
C208 C 0.4025 0.4936 0.30764 0.0
C209 C 0.47243 0.57662 0.30968 0.0
C210 C 0.50353 0.59761 0.30071 0.0
C211 C 0.45247 0.54686 0.30009 0.0
C212 C 0.46357 0.53786 0.28106 0.0
C213 C 0.49467 0.55858 0.27192 0.0
C214 C 0.51411 0.58845 0.28163 0.0
N215 N 0.42102 0.52712 0.30971 0.0
Eu216 Eu 0.48703 0.99221 0.98829 0.0
C217 C 0.55892 0.09897 0.05937 0.0
C218 C 0.61521 0.1104 0.05775 0.0
C219 C 0.60331 0.15201 0.06792 0.0
C220 C 0.58134 0.08909 0.05524 0.0
C221 C 0.56958 0.13038 0.06621 0.0
C222 C 0.62608 0.14204 0.06369 0.0
C223 C 0.51278 0.11596 0.07094 0.0
N224 N 0.52656 0.0775 0.05763 0.0
C225 C 0.50345 0.08507 0.06425 0.0
C226 C 0.54601 0.13885 0.07166 0.0
Eu227 Eu 0.51241 0.026 0.04527 0.0
N228 N 0.57004 0.05844 0.04929 0.0
C229 C 0.59124 0.04702 0.04711 0.0
C230 C 0.63711 0.09916 0.0545 0.0
C231 C 0.62502 0.06723 0.04946 0.0
H232 H 0.47772 0.06737 0.06363 0.0
H233 H 0.64172 0.05819 0.04719 0.0
H234 H 0.65201 0.15882 0.06545 0.0
H235 H 0.49437 0.12208 0.07557 0.0
H236 H 0.58248 0.02253 0.04302 0.0
H237 H 0.35423 0.9424 0.98561 0.0
H238 H 0.6633 0.11479 0.05618 0.0
H239 H 0.53159 0.96009 0.97018 0.0
H240 H 0.41194 0.98468 0.98865 0.0
H241 H 0.52309 0.90758 0.95892 0.0
H242 H 0.61199 0.17632 0.07294 0.0
H243 H 0.34071 0.88698 0.97872 0.0
H244 H 0.3604 0.84849 0.97053 0.0
H245 H 0.5532 0.16275 0.07695 0.0
H246 H 0.40632 0.83907 0.96297 0.0
N247 N 0.43102 0.95354 0.98415 0.0
C248 C 0.40644 0.96068 0.98554 0.0
C249 C 0.36612 0.90548 0.98003 0.0
C250 C 0.39151 0.89866 0.97723 0.0
C251 C 0.37365 0.93674 0.98385 0.0
C252 C 0.42416 0.92359 0.97923 0.0
H253 H 0.46704 0.86107 0.95823 0.0
N254 N 0.48095 0.9432 0.97611 0.0
C255 C 0.50231 0.91025 0.96346 0.0
C256 C 0.44991 0.91826 0.97494 0.0
C257 C 0.50704 0.93994 0.96975 0.0
C258 C 0.47063 0.88403 0.96313 0.0
C259 C 0.44389 0.88791 0.96862 0.0
O260 O 0.5119 0.00667 0.9558 0.0
O261 O 0.52517 0.03066 1.00915 0.0
O262 O 0.50372 0.0606 0.02411 0.0
O263 O 0.46869 0.02647 0.99668 0.0
O264 O 0.54257 0.01403 0.98424 0.0
O265 O 0.46772 0.00895 0.96137 0.0
O266 O 0.52674 0.00612 0.07308 0.0
O267 O 0.47333 0.98816 0.02453 0.0
O268 O 0.49032 0.95571 0.00972 0.0
O269 O 0.52544 0.98672 0.03811 0.0
O270 O 0.45793 0.00775 0.049 0.0
O271 O 0.48732 0.01626 0.07772 0.0
C272 C 0.55104 0.03462 1.0 0.0
C273 C 0.47791 0.99815 0.92456 0.0
C274 C 0.47418 0.00396 0.88404 0.0
C275 C 0.48603 0.01759 0.90524 0.0
C276 C 0.45477 0.9707 0.88254 0.0
C277 C 0.4583 0.96516 0.92249 0.0
C278 C 0.44694 0.95154 0.90162 0.0
C279 C 0.48185 0.05351 1.00793 0.0
C280 C 0.48991 0.01214 0.94681 0.0
C281 C 0.41146 0.86266 0.96757 0.0
C282 C 0.38531 0.86802 0.97189 0.0
C283 C 0.44825 0.98648 0.03363 0.0
C284 C 0.48355 0.97215 0.09735 0.0
C285 C 0.48165 0.96937 0.12089 0.0
C286 C 0.46317 0.9393 0.13135 0.0
C287 C 0.44644 0.91229 0.1178 0.0
C288 C 0.46653 0.94485 0.08429 0.0
C289 C 0.44806 0.91513 0.09448 0.0
C290 C 0.51026 0.9599 0.0265 0.0
C291 C 0.50344 1.00341 0.08639 0.0
H292 H 0.50094 0.04314 0.90678 0.0
H293 H 0.44575 0.95941 0.86651 0.0
H294 H 0.45176 0.94988 0.937 0.0
H295 H 0.43195 0.92601 0.90022 0.0
H296 H 0.4949 0.99045 0.131 0.0
H297 H 0.43166 0.88895 0.12525 0.0
H298 H 0.4676 0.94654 0.06621 0.0
H299 H 0.43492 0.89419 0.08425 0.0
Eu300 Eu 0.04564 0.49485 0.997 0.0
C301 C 0.92426 0.45238 0.05691 0.0
C302 C 0.91115 0.49442 0.05237 0.0
C303 C 0.8675 0.44014 0.05886 0.0
C304 C 0.9343 0.484 0.05279 0.0
C305 C 0.89085 0.43023 0.0606 0.0
C306 C 0.87765 0.47219 0.05477 0.0
C307 C 0.90645 0.39104 0.06992 0.0
N308 N 0.94747 0.44373 0.05889 0.0
C309 C 0.9393 0.41395 0.06632 0.0
C310 C 0.88205 0.39908 0.06671 0.0
Eu311 Eu 1.00225 0.48316 0.05073 0.0
N312 N 0.96687 0.50487 0.05063 0.0
C313 C 0.97812 0.5368 0.04978 0.0
C314 C 0.92246 0.52698 0.05033 0.0
C315 C 0.95612 0.5483 0.04949 0.0
H316 H 0.95817 0.40765 0.06858 0.0
H317 H 0.96515 0.57358 0.04833 0.0
H318 H 0.85948 0.4797 0.05417 0.0
H319 H 0.89998 0.36722 0.07513 0.0
H320 H 1.00401 0.55358 0.04883 0.0
H321 H 0.09555 0.41439 1.0012 0.0
H322 H 0.90548 0.53595 0.04993 0.0
H323 H 0.0806 0.56688 0.97304 0.0
H324 H 0.05231 0.42891 1.00069 0.0
H325 H 0.13596 0.61006 0.96232 0.0
H326 H 0.84167 0.42341 0.06137 0.0
H327 H 0.15371 0.45599 0.99681 0.0
H328 H 0.19494 0.51319 0.98879 0.0
H329 H 0.85663 0.38135 0.06964 0.0
H330 H 0.20604 0.56674 0.97815 0.0
N331 N 0.08552 0.47846 0.99682 0.0
C332 C 0.07751 0.44734 0.99869 0.0
C333 C 0.13479 0.46252 0.99659 0.0
C334 C 0.14263 0.49405 0.993 0.0
C335 C 0.10199 0.43898 0.99899 0.0
C336 C 0.11706 0.50128 0.99296 0.0
H337 H 0.18407 0.60292 0.96769 0.0
N338 N 0.09762 0.53649 0.98527 0.0
C339 C 0.1328 0.58813 0.96941 0.0
C340 C 0.12333 0.53132 0.98699 0.0
C341 C 0.10154 0.56368 0.97547 0.0
C342 C 0.15991 0.58405 0.97255 0.0
C343 C 0.15528 0.55508 0.98092 0.0
O344 O 0.03062 0.50337 0.96433 0.0
O345 O 1.00254 0.49236 0.01443 0.0
O346 O 0.96951 0.44209 0.02792 0.0
O347 O 1.00897 0.44244 1.00425 0.0
O348 O 0.02385 0.52717 0.99045 0.0
O349 O 0.03541 0.46174 0.96952 0.0
O350 O 1.00541 0.46764 0.0846 0.0
O351 O 0.0461 0.48537 0.03388 0.0
O352 O 0.07804 0.53852 0.01686 0.0
O353 O 0.04301 0.53525 0.04603 0.0
O354 O 0.02121 0.44916 0.05704 0.0
O355 O 0.01843 0.5166 0.07841 0.0
C356 C 1.00001 0.51416 1.00467 0.0
C357 C 0.04774 0.48566 0.93353 0.0
C358 C 0.0469 0.49153 0.893 0.0
C359 C 0.03081 0.48406 0.91388 0.0
C360 C 0.08038 0.50076 0.89213 0.0
C361 C 0.08106 0.49474 0.93238 0.0
C362 C 0.09727 0.5023 0.91174 0.0
C363 C 0.979 0.42823 0.01301 0.0
C364 C 0.03045 0.47913 0.95507 0.0
C365 C 0.18123 0.54867 0.98244 0.0
C366 C 0.17491 0.51817 0.98849 0.0
C367 C 0.04631 0.4623 0.04384 0.0
C368 C 0.99665 0.49499 0.11393 0.0
C369 C 0.01392 0.50485 0.1341 0.0
C370 C 0.99793 0.50505 0.15401 0.0
C371 C 0.96432 0.49533 0.15329 0.0
C372 C 0.96321 0.48546 0.11355 0.0
C373 C 0.94716 0.48565 0.13316 0.0
C374 C 0.07044 0.55071 0.034 0.0
C375 C 0.01403 0.49519 0.09344 0.0
H376 H 1.00494 0.4766 0.9149 0.0
H377 H 0.09353 0.50695 0.87634 0.0
H378 H 0.09452 0.49607 0.94735 0.0
H379 H 0.12303 0.50944 0.91093 0.0
H380 H 0.0399 0.51268 0.1342 0.0
H381 H 0.95115 0.49474 0.16834 0.0
H382 H 0.94955 0.47792 0.09817 0.0
H383 H 0.9213 0.47815 0.13278 0.0
Eu384 Eu 0.55534 0.52347 0.04977 0.0
C385 C 0.49042 0.56915 0.98023 0.0
C386 C 0.43302 0.52872 0.98144 0.0
C387 C 0.4486 0.5834 0.97256 0.0
C388 C 0.46641 0.5379 0.98387 0.0
C389 C 0.48183 0.5921 0.97398 0.0
C390 C 0.42423 0.55177 0.97629 0.0
C391 C 0.53949 0.62972 0.96874 0.0
N392 N 0.52227 0.57665 0.98136 0.0
C393 C 0.54675 0.60603 0.97478 0.0
C394 C 0.5069 0.62285 0.96863 0.0
Eu395 Eu 0.53272 0.53583 0.99304 0.0
N396 N 0.47573 0.51621 0.98878 0.0
C397 C 0.45301 0.48461 0.98996 0.0
C398 C 0.40952 0.49656 0.98379 0.0
C399 C 0.41961 0.47437 0.98775 0.0
H400 H 0.57198 0.61138 0.97501 0.0
H401 H 0.40166 0.44937 0.98925 0.0
H402 H 0.3987 0.54522 0.97463 0.0
H403 H 0.55899 0.65322 0.96416 0.0
H404 H 0.46035 0.46717 0.99316 0.0
H405 H 0.68859 0.5996 0.05175 0.0
H406 H 0.38362 0.48856 0.98215 0.0
H407 H 0.50941 0.44861 0.0686 0.0
H408 H 0.63135 0.5874 0.04815 0.0
H409 H 0.51672 0.40385 0.08101 0.0
H410 H 0.44149 0.60077 0.96802 0.0
H411 H 0.70081 0.55666 0.06035 0.0
H412 H 0.6799 0.49924 0.06994 0.0
H413 H 0.50131 0.64118 0.96379 0.0
H414 H 0.6332 0.44606 0.07803 0.0
N415 N 0.61111 0.53783 0.05402 0.0
C416 C 0.63621 0.56841 0.05197 0.0
C417 C 0.67557 0.55113 0.05876 0.0
C418 C 0.64968 0.52012 0.06207 0.0
C419 C 0.66877 0.57544 0.05397 0.0
C420 C 0.61728 0.51416 0.05967 0.0
H421 H 0.57232 0.41038 0.08249 0.0
N422 N 0.56024 0.47976 0.06262 0.0
C423 C 0.53781 0.4263 0.07625 0.0
C424 C 0.59105 0.48425 0.06423 0.0
C425 C 0.53376 0.45168 0.06927 0.0
C426 C 0.56924 0.43007 0.07702 0.0
C427 C 0.5964 0.45943 0.07129 0.0
O428 O 0.52795 0.51411 0.0811 0.0
O429 O 0.51796 0.52725 0.02894 0.0
O430 O 0.54098 0.57789 0.01464 0.0
O431 O 0.57526 0.57599 0.04195 0.0
O432 O 0.49973 0.49177 0.05271 0.0
O433 O 0.57584 0.55605 0.07793 0.0
O434 O 0.55721 0.55001 0.9604 0.0
O435 O 0.57036 0.53282 0.01378 0.0
O436 O 0.55014 0.48319 0.02894 0.0
O437 O 0.517 0.48296 0.99985 0.0
O438 O 0.58813 0.5678 0.98967 0.0
O439 O 0.51754 0.50193 0.96558 0.0
C440 C 0.49168 0.50553 0.03749 0.0
C441 C 0.56002 0.53093 0.11352 0.0
C442 C 0.5498 0.52351 0.15386 0.0
C443 C 0.54338 0.5322 0.13268 0.0
C444 C 0.5728 0.51303 0.15535 0.0
C445 C 0.58341 0.52121 0.11558 0.0
C446 C 0.58958 0.51211 0.13636 0.0
C447 C 0.5623 0.59101 0.03115 0.0
C448 C 0.55156 0.53818 0.09139 0.0
C449 C 0.62859 0.4649 0.07284 0.0
C450 C 0.65518 0.49518 0.06821 0.0
C451 C 0.59653 0.55428 1.00488 0.0
C452 C 0.52468 0.52338 0.92905 0.0
C453 C 0.53388 0.51278 0.90992 0.0
C454 C 0.52038 0.51275 0.88882 0.0
C455 C 0.49798 0.52393 0.88721 0.0
C456 C 0.50225 0.53427 0.92694 0.0
C457 C 0.48907 0.53461 0.90613 0.0
C458 C 0.53063 0.46934 0.01183 0.0
C459 C 0.53812 0.5226 0.95117 0.0
H460 H 0.52578 0.54033 0.13106 0.0
H461 H 0.57782 0.50542 0.17121 0.0
H462 H 0.59681 0.5205 0.10116 0.0
H463 H 0.60739 0.50426 0.13774 0.0
H464 H 0.551 0.50407 0.91154 0.0
H465 H 0.48756 0.52472 0.87122 0.0
H466 H 0.49485 0.54245 0.94135 0.0
H467 H 0.47184 0.54317 0.90467 0.0
Eu468 Eu 0.15477 0.3243 0.32401 0.0
C469 C 0.23709 0.42311 0.39356 0.0
C470 C 0.29071 0.4285 0.38832 0.0
C471 C 0.28611 0.47404 0.39989 0.0
C472 C 0.25623 0.40999 0.38772 0.0
C473 C 0.2518 0.45502 0.40039 0.0
C474 C 0.30554 0.4608 0.39384 0.0
C475 C 0.19785 0.44584 0.41021 0.0
N476 N 0.20407 0.404 0.39406 0.0
C477 C 0.18447 0.41429 0.40342 0.0
C478 C 0.23163 0.46647 0.40832 0.0
Eu479 Eu 0.18325 0.35124 0.38144 0.0
N480 N 0.24114 0.37871 0.38255 0.0
C481 C 0.25894 0.36386 0.37926 0.0
C482 C 0.30921 0.41375 0.38394 0.0
C483 C 0.29322 0.38117 0.37977 0.0
H484 H 0.15833 0.3983 0.40483 0.0
H485 H 0.30728 0.36944 0.3767 0.0
H486 H 0.332 0.47552 0.39409 0.0
H487 H 0.18216 0.45421 0.41692 0.0
H488 H 0.24683 0.33878 0.37576 0.0
H489 H 0.09023 0.37408 0.27758 0.0
H490 H 0.33575 0.42714 0.38418 0.0
H491 H 0.12593 0.2467 0.33773 0.0
H492 H 0.13833 0.37208 0.29216 0.0
H493 H 0.07359 0.19715 0.34033 0.0
H494 H 0.29788 0.49873 0.4048 0.0
H495 H 0.03435 0.3292 0.28476 0.0
H496 H 0.99869 0.27376 0.29944 0.0
H497 H 0.24198 0.49085 0.41373 0.0
H498 H 0.9943 0.22525 0.31599 0.0
N499 N 0.10981 0.32759 0.3088 0.0
C500 C 0.11395 0.35248 0.29553 0.0
C501 C 0.05536 0.32836 0.29136 0.0
C502 C 0.05149 0.30151 0.30288 0.0
C503 C 0.08683 0.35369 0.28722 0.0
C504 C 0.07965 0.30164 0.31118 0.0
H505 H 0.02212 0.1962 0.33044 0.0
N506 N 0.10512 0.27475 0.32678 0.0
C507 C 0.07422 0.21872 0.33477 0.0
C508 C 0.07725 0.2743 0.32025 0.0
C509 C 0.10406 0.24721 0.33337 0.0
C510 C 0.04523 0.21827 0.32919 0.0
C511 C 0.0465 0.24616 0.32159 0.0
O512 O 0.15826 0.29347 0.2989 0.0
O513 O 0.19869 0.3491 0.34629 0.0
O514 O 0.18055 0.39075 0.36285 0.0
O515 O 0.14346 0.36318 0.3343 0.0
O516 O 0.19861 0.37225 0.31681 0.0
O517 O 0.17381 0.34213 0.29032 0.0
O518 O 0.15595 0.33777 0.41313 0.0
O519 O 0.14191 0.31592 0.36032 0.0
O520 O 0.17665 0.29433 0.337 0.0
O521 O 0.1857 0.30684 0.37499 0.0
O522 O 0.13087 0.34055 0.38406 0.0
O523 O 0.19911 0.33349 0.40982 0.0
C524 C 0.2153 0.37351 0.33419 0.0
C525 C 0.14908 0.30461 0.26132 0.0
C526 C 0.14155 0.31648 0.22231 0.0
C527 C 0.15876 0.32584 0.24282 0.0
C528 C 0.11489 0.28529 0.22068 0.0
C529 C 0.12197 0.27393 0.25911 0.0
C530 C 0.10517 0.26441 0.23891 0.0
C531 C 0.15991 0.38855 0.34704 0.0
C532 C 0.16723 0.31454 0.2828 0.0
C533 C 0.01814 0.2465 0.31475 0.0
C534 C 0.02063 0.27414 0.3054 0.0
C535 C 0.11896 0.31876 0.36902 0.0
C536 C 0.18569 0.34291 0.44611 0.0
C537 C 0.17187 0.32229 0.46465 0.0
C538 C 0.18015 0.33386 0.48668 0.0
C539 C 0.20258 0.36632 0.48979 0.0
C540 C 0.20823 0.37508 0.44968 0.0
C541 C 0.21655 0.38668 0.47141 0.0
C542 C 0.18393 0.28947 0.35758 0.0
C543 C 0.17597 0.3307 0.42322 0.0
H544 H 0.17933 0.34969 0.24455 0.0
H545 H 0.10158 0.27671 0.20516 0.0
H546 H 0.11371 0.25715 0.27294 0.0
H547 H 0.08452 0.2406 0.23734 0.0
H548 H 0.15437 0.29742 0.46192 0.0
H549 H 0.20973 0.37588 0.50647 0.0
H550 H 0.21939 0.39123 0.43571 0.0
H551 H 0.23396 0.41156 0.47402 0.0
Eu552 Eu 0.70743 0.83548 0.33155 0.0
C553 C 0.58193 0.77532 0.39116 0.0
C554 C 0.56151 0.81219 0.38851 0.0
C555 C 0.5233 0.75572 0.39331 0.0
C556 C 0.58777 0.80596 0.38829 0.0
C557 C 0.54969 0.7499 0.39416 0.0
C558 C 0.5292 0.78683 0.39049 0.0
C559 C 0.57225 0.71536 0.40046 0.0
N560 N 0.60797 0.77059 0.39206 0.0
C561 C 0.60377 0.74139 0.39753 0.0
C562 C 0.54504 0.71954 0.39848 0.0
Eu563 Eu 0.66036 0.81518 0.38491 0.0
N564 N 0.61927 0.82987 0.38644 0.0
C565 C 0.62637 0.86079 0.38646 0.0
C566 C 0.56857 0.84377 0.38734 0.0
C567 C 0.60118 0.86819 0.38673 0.0
H568 H 0.62472 0.73799 0.39886 0.0
H569 H 0.60694 0.89273 0.38622 0.0
H570 H 0.50869 0.79111 0.39042 0.0
H571 H 0.56896 0.69209 0.40419 0.0
H572 H 0.65141 0.87993 0.38573 0.0
H573 H 0.7676 0.76408 0.32755 0.0
H574 H 0.5491 0.84957 0.38741 0.0
H575 H 0.7376 0.91142 0.31604 0.0
H576 H 0.72091 0.77372 0.32947 0.0
H577 H 0.79135 0.9589 0.3079 0.0
H578 H 0.49832 0.73647 0.39535 0.0
H579 H 0.82425 0.80944 0.32514 0.0
H580 H 0.86173 0.8684 0.32105 0.0
H581 H 0.52065 0.69936 0.40082 0.0
H582 H 0.8682 0.92153 0.31543 0.0
N583 N 0.75077 0.82405 0.32902 0.0
C584 C 0.74546 0.79374 0.32842 0.0
C585 C 0.80383 0.81381 0.32602 0.0
C586 C 0.80892 0.84476 0.32501 0.0
C587 C 0.77189 0.78816 0.32731 0.0
C588 C 0.78148 0.84912 0.32633 0.0
H589 H 0.84201 0.95538 0.30992 0.0
N590 N 0.75783 0.88167 0.32288 0.0
C591 C 0.78996 0.93658 0.31223 0.0
C592 C 0.78513 0.87892 0.32309 0.0
C593 C 0.75958 0.90967 0.31679 0.0
C594 C 0.81851 0.93452 0.31347 0.0
C595 C 0.8163 0.90532 0.31859 0.0
O596 O 0.69788 0.84753 0.29812 0.0
O597 O 0.66287 0.82878 0.34922 0.0
O598 O 0.63151 0.77678 0.35994 0.0
O599 O 0.67373 0.78192 0.33659 0.0
O600 O 0.68151 0.86445 0.32592 0.0
O601 O 0.69444 0.80194 0.30404 0.0
O602 O 0.67062 0.80089 0.41726 0.0
O603 O 0.70565 0.8215 0.3676 0.0
O604 O 0.73715 0.87465 0.35617 0.0
O605 O 0.69555 0.8684 0.38058 0.0
O606 O 0.6823 0.78335 0.38957 0.0
O607 O 0.67058 0.84535 0.41418 0.0
C608 C 0.65794 0.84946 0.34008 0.0
C609 C 0.71024 0.82416 0.26783 0.0
C610 C 0.70775 0.81528 0.22742 0.0
C611 C 0.69196 0.81263 0.24808 0.0
C612 C 0.74217 0.82964 0.227 0.0
C613 C 0.74445 0.83831 0.26697 0.0
C614 C 0.76029 0.84098 0.24665 0.0
C615 C 0.6434 0.76563 0.34466 0.0
C616 C 0.69332 0.82119 0.28919 0.0
C617 C 0.84398 0.90147 0.31859 0.0
C618 C 0.8403 0.87122 0.32181 0.0
C619 C 0.70717 0.79845 0.3764 0.0
C620 C 0.65585 0.81887 0.44929 0.0
C621 C 0.67309 0.82119 0.46898 0.0
C622 C 0.65737 0.81469 0.49 0.0
C623 C 0.624 0.80585 0.49095 0.0
C624 C 0.62256 0.80985 0.45052 0.0
C625 C 0.60677 0.80341 0.47131 0.0
C626 C 0.72574 0.88503 0.37237 0.0
C627 C 0.67306 0.82543 0.4277 0.0
H628 H 0.66547 0.80138 0.24889 0.0
H629 H 0.75523 0.83264 0.21141 0.0
H630 H 0.75889 0.84732 0.28196 0.0
H631 H 0.78674 0.85207 0.24609 0.0
H632 H 0.6989 0.82846 0.46791 0.0
H633 H 0.61115 0.80047 0.50684 0.0
H634 H 0.60886 0.80778 0.43548 0.0
H635 H 0.58106 0.79642 0.4722 0.0
Eu636 Eu 0.20712 0.85392 0.36957 0.0
C637 C 0.14389 0.90427 0.30091 0.0
C638 C 0.08657 0.86366 0.30045 0.0
C639 C 0.10226 0.91876 0.29318 0.0
C640 C 0.11986 0.87279 0.3034 0.0
C641 C 0.13544 0.92752 0.29527 0.0
C642 C 0.07786 0.88689 0.29578 0.0
C643 C 0.19326 0.96583 0.29234 0.0
N644 N 0.17569 0.91189 0.30287 0.0
C645 C 0.2004 0.94188 0.29782 0.0
C646 C 0.16063 0.95872 0.29133 0.0
Eu647 Eu 0.18593 0.87052 0.31335 0.0
N648 N 0.12912 0.85094 0.30787 0.0
C649 C 0.10644 0.81928 0.30816 0.0
C650 C 0.06308 0.83138 0.30187 0.0
C651 C 0.07312 0.80908 0.30546 0.0
H652 H 0.22566 0.94747 0.29872 0.0
H653 H 0.05519 0.78401 0.30626 0.0
H654 H 0.05239 0.88036 0.29369 0.0
H655 H 0.21291 0.98973 0.28891 0.0
H656 H 0.11369 0.80171 0.31104 0.0
H657 H 0.3392 0.9352 0.37503 0.0
H658 H 0.03724 0.82341 0.29982 0.0
H659 H 0.16425 0.77919 0.38855 0.0
H660 H 0.28115 0.92031 0.37109 0.0
H661 H 0.17397 0.73574 0.40075 0.0
H662 H 0.09525 0.93634 0.28907 0.0
H663 H 0.35425 0.89368 0.38143 0.0
H664 H 0.33599 0.83615 0.38881 0.0
H665 H 0.15515 0.97728 0.28699 0.0
H666 H 0.29092 0.78173 0.39596 0.0
N667 N 0.26341 0.87069 0.3744 0.0
C668 C 0.28729 0.90192 0.37391 0.0
C669 C 0.32869 0.88698 0.37966 0.0
C670 C 0.30391 0.85522 0.38172 0.0
C671 C 0.32029 0.91049 0.37613 0.0
C672 C 0.27105 0.84778 0.37914 0.0
H673 H 0.2304 0.74423 0.40104 0.0
N674 N 0.21454 0.81147 0.38172 0.0
C675 C 0.19437 0.75847 0.39566 0.0
C676 C 0.24578 0.81717 0.38298 0.0
C677 C 0.18895 0.78308 0.38879 0.0
C678 C 0.22626 0.76332 0.39572 0.0
C679 C 0.25253 0.79313 0.38972 0.0
O680 O 0.17836 0.84123 0.40058 0.0
O681 O 0.17022 0.85789 0.34871 0.0
O682 O 0.19001 0.90859 0.33658 0.0
O683 O 0.22431 0.90687 0.36404 0.0
O684 O 0.1516 0.8211 0.37145 0.0
O685 O 0.22431 0.88535 0.39856 0.0
O686 O 0.21461 0.88691 0.28239 0.0
O687 O 0.22371 0.86666 0.33385 0.0
O688 O 0.20029 0.81317 0.34752 0.0
O689 O 0.17013 0.81813 0.31826 0.0
O690 O 0.24041 0.90527 0.3124 0.0
O691 O 0.1716 0.84013 0.28392 0.0
C692 C 0.14384 0.83549 0.35653 0.0
C693 C 0.20813 0.85984 0.43402 0.0
C694 C 0.19854 0.85526 0.47453 0.0
C695 C 0.19202 0.86284 0.45299 0.0
C696 C 0.2216 0.84499 0.47675 0.0
C697 C 0.23117 0.84978 0.43675 0.0
C698 C 0.23783 0.84242 0.458 0.0
C699 C 0.21024 0.92122 0.3536 0.0
C700 C 0.19991 0.86604 0.41143 0.0
C701 C 0.28522 0.79998 0.39109 0.0
C702 C 0.31088 0.83097 0.38704 0.0
C703 C 0.24933 0.89067 0.32635 0.0
C704 C 0.18545 0.86661 0.24889 0.0
C705 C 0.20067 0.86273 0.22987 0.0
C706 C 0.19226 0.86798 0.20825 0.0
C707 C 0.16844 0.87729 0.20605 0.0
C708 C 0.16169 0.87575 0.24629 0.0
C709 C 0.1533 0.88111 0.22497 0.0
C710 C 0.18198 0.80227 0.32934 0.0
C711 C 0.19494 0.86145 0.27129 0.0
H712 H 0.17407 0.87046 0.45094 0.0
H713 H 0.22743 0.83936 0.49308 0.0
H714 H 0.24395 0.84755 0.42246 0.0
H715 H 0.25564 0.83465 0.45994 0.0
H716 H 0.21925 0.85593 0.23195 0.0
H717 H 0.16105 0.88107 0.18968 0.0
H718 H 0.1496 0.87868 0.26069 0.0
H719 H 0.13487 0.8881 0.22308 0.0
Eu720 Eu 0.84032 0.65192 0.65752 0.0
C721 C 0.8904 0.76775 0.72291 0.0
C722 C 0.94955 0.7934 0.72081 0.0
C723 C 0.9234 0.82468 0.72868 0.0
C724 C 0.91839 0.76597 0.71919 0.0
C725 C 0.89256 0.79695 0.72834 0.0
C726 C 0.95187 0.82292 0.72489 0.0
C727 C 0.83404 0.76858 0.73487 0.0
N728 N 0.86112 0.74045 0.72267 0.0
C729 C 0.83317 0.74022 0.72926 0.0
C730 C 0.86379 0.79716 0.73403 0.0
Eu731 Eu 0.86121 0.69353 0.71217 0.0
N732 N 0.91521 0.73699 0.71574 0.0
C733 C 0.94217 0.73334 0.71589 0.0
C734 C 0.97738 0.7901 0.71923 0.0
C735 C 0.97364 0.75983 0.71723 0.0
H736 H 0.81004 0.71829 0.72972 0.0
H737 H 0.99497 0.75689 0.71662 0.0
H738 H 0.97557 0.84432 0.72592 0.0
H739 H 0.81175 0.76839 0.73965 0.0
H740 H 0.93963 0.71011 0.71425 0.0
H741 H 0.70697 0.59685 0.65274 0.0
H742 H 1.00177 0.81058 0.72033 0.0
H743 H 0.88758 0.62088 0.64404 0.0
H744 H 0.76376 0.64096 0.6554 0.0
H745 H 0.88175 0.56819 0.63679 0.0
H746 H 0.92556 0.84743 0.73256 0.0
H747 H 0.69592 0.54164 0.64921 0.0
H748 H 0.71803 0.50427 0.64495 0.0
H749 H 0.8644 0.81909 0.73834 0.0
H750 H 0.76559 0.49644 0.64062 0.0
N751 N 0.78495 0.61114 0.65402 0.0
C752 C 0.75945 0.61708 0.6538 0.0
C753 C 0.72098 0.56095 0.65036 0.0
C754 C 0.7473 0.55522 0.64929 0.0
C755 C 0.72712 0.59208 0.6523 0.0
C756 C 0.77944 0.58121 0.65098 0.0
H757 H 0.82672 0.52017 0.63729 0.0
N758 N 0.83652 0.60261 0.6491 0.0
C759 C 0.86026 0.57025 0.64014 0.0
C760 C 0.80609 0.57678 0.64853 0.0
C761 C 0.86348 0.60002 0.64416 0.0
C762 C 0.82917 0.54319 0.6405 0.0
C763 C 0.80153 0.54629 0.64436 0.0
O764 O 0.86431 0.66147 0.62468 0.0
O765 O 0.87622 0.69488 0.67634 0.0
O766 O 0.8501 0.72313 0.68811 0.0
O767 O 0.81873 0.6847 0.66163 0.0
O768 O 0.89568 0.67614 0.65409 0.0
O769 O 0.82176 0.66683 0.62923 0.0
O770 O 0.83571 0.67851 0.74448 0.0
O771 O 0.82588 0.65065 0.69314 0.0
O772 O 0.85196 0.62343 0.68233 0.0
O773 O 0.88565 0.66358 0.70691 0.0
O774 O 0.80558 0.66844 0.71512 0.0
O775 O 0.88235 0.68073 0.74021 0.0
C776 C 0.90275 0.69873 0.66806 0.0
C777 C 0.83036 0.65287 0.59319 0.0
C778 C 0.82169 0.65802 0.55329 0.0
C779 C 0.8349 0.67198 0.57416 0.0
C780 C 0.80411 0.62465 0.55186 0.0
C781 C 0.81272 0.61973 0.5913 0.0
C782 C 0.79973 0.60575 0.57072 0.0
C783 C 0.82998 0.71311 0.67076 0.0
C784 C 0.84325 0.66771 0.61503 0.0
C785 C 0.76961 0.52011 0.64361 0.0
C786 C 0.74253 0.52457 0.64607 0.0
C787 C 0.79902 0.64599 0.70115 0.0
C788 C 0.86891 0.68962 0.77657 0.0
C789 C 0.86081 0.67008 0.79585 0.0
C790 C 0.87147 0.68363 0.8172 0.0
C791 C 0.88975 0.71694 0.81889 0.0
C792 C 0.88716 0.7227 0.7788 0.0
C793 C 0.8974 0.73623 0.79985 0.0
C794 C 0.87436 0.63492 0.69828 0.0
C795 C 0.85882 0.67549 0.75418 0.0
H796 H 0.84822 0.69761 0.57571 0.0
H797 H 0.79409 0.6131 0.53606 0.0
H798 H 0.80891 0.60468 0.60572 0.0
H799 H 0.78621 0.58013 0.56937 0.0
H800 H 0.84688 0.64447 0.79417 0.0
H801 H 0.89794 0.72814 0.83504 0.0
H802 H 0.89359 0.73806 0.76424 0.0
H803 H 0.91143 0.76181 0.80143 0.0
Eu804 Eu 0.36405 0.17393 0.66328 0.0
C805 C 0.23746 0.12588 0.72191 0.0
C806 C 0.22312 0.16737 0.72132 0.0
C807 C 0.18035 0.11216 0.72523 0.0
C808 C 0.24681 0.15768 0.72003 0.0
C809 C 0.20421 0.10281 0.72506 0.0
C810 C 0.1898 0.14439 0.72336 0.0
C811 C 0.2209 0.06339 0.72965 0.0
N812 N 0.26115 0.1177 0.72193 0.0
C813 C 0.25356 0.08716 0.72661 0.0
C814 C 0.19606 0.07117 0.72859 0.0
Eu815 Eu 0.31572 0.15902 0.71556 0.0
N816 N 0.27923 0.17928 0.71815 0.0
C817 C 0.28976 0.21103 0.7191 0.0
C818 C 0.23371 0.19989 0.7211 0.0
C819 C 0.26721 0.22181 0.72032 0.0
H820 H 0.27264 0.08097 0.7273 0.0
H821 H 0.2757 0.24702 0.72049 0.0
H822 H 0.17122 0.15137 0.72408 0.0
H823 H 0.21491 0.0391 0.73279 0.0
H824 H 0.31553 0.22825 0.71834 0.0
H825 H 0.39876 0.08192 0.66351 0.0
H826 H 0.21629 0.2083 0.72198 0.0
H827 H 0.40991 0.25054 0.64856 0.0
H828 H 0.36079 0.10308 0.66336 0.0
H829 H 0.46846 0.29053 0.64301 0.0
H830 H 0.15464 0.09475 0.72738 0.0
H831 H 0.45867 0.1187 0.6625 0.0
H832 H 0.50554 0.17477 0.65954 0.0
H833 H 0.17079 0.05273 0.73104 0.0
H834 H 0.5246 0.23169 0.65427 0.0
N835 N 0.39872 0.15148 0.66281 0.0
C836 C 0.38683 0.11944 0.66281 0.0
C837 C 0.44209 0.12815 0.66238 0.0
C838 C 0.45407 0.1609 0.6611 0.0
C839 C 0.4083 0.10732 0.66291 0.0
C840 C 0.43144 0.17196 0.66116 0.0
H841 H 0.51092 0.27503 0.64768 0.0
N842 N 0.41946 0.2133 0.65697 0.0
C843 C 0.46143 0.2663 0.64745 0.0
C844 C 0.44219 0.20395 0.65837 0.0
C845 C 0.42836 0.24364 0.65054 0.0
C846 C 0.48533 0.25748 0.65019 0.0
C847 C 0.47581 0.22583 0.65524 0.0
O848 O 0.3604 0.19103 0.6301 0.0
O849 O 0.32157 0.17401 0.67978 0.0
O850 O 0.28271 0.12431 0.68962 0.0
O851 O 0.32146 0.12208 0.66652 0.0
O852 O 0.34789 0.21039 0.65715 0.0
O853 O 0.35017 0.14265 0.63427 0.0
O854 O 0.32252 0.14174 0.74779 0.0
O855 O 0.35918 0.16032 0.6993 0.0
O856 O 0.39588 0.21252 0.68807 0.0
O857 O 0.3557 0.21118 0.7118 0.0
O858 O 0.33168 0.12214 0.72014 0.0
O859 O 0.32852 0.18884 0.74532 0.0
C860 C 0.32297 0.1981 0.6705 0.0
C861 C 0.37298 0.16814 0.59972 0.0
C862 C 0.37534 0.16165 0.55931 0.0
C863 C 0.35711 0.15786 0.57902 0.0
C864 C 0.40969 0.17599 0.56078 0.0
C865 C 0.40715 0.18201 0.60072 0.0
C866 C 0.42537 0.18593 0.58136 0.0
C867 C 0.29092 0.11008 0.67419 0.0
C868 C 0.3538 0.16473 0.62009 0.0
C869 C 0.49862 0.21519 0.65634 0.0
C870 C 0.48776 0.18277 0.65928 0.0
C871 C 0.35771 0.13584 0.70785 0.0
C872 C 0.30939 0.16117 0.77975 0.0
C873 C 0.32602 0.16723 0.80023 0.0
C874 C 0.30875 0.16095 0.82066 0.0
C875 C 0.27453 0.14819 0.82016 0.0
C876 C 0.27537 0.14873 0.77968 0.0
C877 C 0.25805 0.14221 0.7998 0.0
C878 C 0.38607 0.22541 0.70361 0.0
C879 C 0.32765 0.167 0.75863 0.0
H880 H 0.33063 0.14671 0.57836 0.0
H881 H 0.42459 0.17996 0.54597 0.0
H882 H 0.4198 0.18999 0.61639 0.0
H883 H 0.45178 0.19691 0.58229 0.0
H884 H 0.3524 0.17723 0.80021 0.0
H885 H 0.26043 0.14261 0.83554 0.0
H886 H 0.26219 0.14392 0.76413 0.0
H887 H 0.23175 0.13242 0.79962 0.0
Eu888 Eu 0.85995 0.17243 0.70687 0.0
C889 C 0.78403 0.21689 0.64324 0.0
C890 C 0.7275 0.17505 0.64649 0.0
C891 C 0.74018 0.22915 0.63848 0.0
C892 C 0.76134 0.18549 0.64741 0.0
C893 C 0.77374 0.2389 0.63791 0.0
C894 C 0.71707 0.19724 0.64281 0.0
C895 C 0.83001 0.27709 0.62877 0.0
N896 N 0.81612 0.22527 0.6424 0.0
C897 C 0.83888 0.25428 0.63408 0.0
C898 C 0.79736 0.26958 0.63113 0.0
Eu899 Eu 0.83004 0.18636 0.65279 0.0
N900 N 0.77235 0.1647 0.65052 0.0
C901 C 0.75078 0.13274 0.65065 0.0
C902 C 0.70524 0.14249 0.64833 0.0
C903 C 0.71697 0.1212 0.64995 0.0
H904 H 0.86413 0.26011 0.63222 0.0
H905 H 0.69999 0.0959 0.65078 0.0
H906 H 0.69119 0.18976 0.64239 0.0
H907 H 0.84833 0.30041 0.62285 0.0
H908 H 0.75938 0.11596 0.652 0.0
H909 H 0.9891 0.26456 0.71059 0.0
H910 H 0.67905 0.1335 0.64777 0.0
H911 H 0.82566 0.09602 0.72212 0.0
H912 H 0.92959 0.24348 0.70815 0.0
H913 H 0.84249 0.05625 0.73058 0.0
H914 H 0.73179 0.2458 0.63476 0.0
H915 H 1.01098 0.2278 0.71438 0.0
H916 H 0.99987 0.17182 0.71921 0.0
H917 H 0.79048 0.28719 0.62686 0.0
H918 H 0.95995 0.11505 0.72466 0.0
N919 N 0.91756 0.19503 0.70995 0.0
C920 C 0.93863 0.22707 0.70989 0.0
C921 C 0.98474 0.21836 0.71336 0.0
C922 C 0.96294 0.18565 0.71477 0.0
C923 C 0.97249 0.23918 0.71126 0.0
C924 C 0.92902 0.1746 0.71321 0.0
H925 H 0.90122 0.07182 0.72939 0.0
N926 N 0.87429 0.13338 0.71587 0.0
C927 C 0.86079 0.08046 0.72646 0.0
C928 C 0.90666 0.14273 0.7162 0.0
C929 C 0.85135 0.10302 0.72172 0.0
C930 C 0.89395 0.08932 0.7257 0.0
C931 C 0.91742 0.12091 0.72089 0.0
O932 O 0.83622 0.15564 0.73952 0.0
O933 O 0.81826 0.17287 0.689 0.0
O934 O 0.83792 0.22685 0.67501 0.0
O935 O 0.87162 0.22391 0.70279 0.0
O936 O 0.8065 0.13522 0.71078 0.0
O937 O 0.87455 0.20458 0.73532 0.0
O938 O 0.85664 0.20033 0.62096 0.0
O939 O 0.87132 0.18606 0.67101 0.0
O940 O 0.85605 0.13513 0.68232 0.0
O941 O 0.81699 0.13491 0.65831 0.0
O942 O 0.8841 0.22294 0.64861 0.0
O943 O 0.81244 0.1548 0.62394 0.0
C944 C 0.79468 0.14813 0.69764 0.0
C945 C 0.86807 0.18154 0.77121 0.0
C946 C 0.86888 0.18779 0.81186 0.0
C947 C 0.85638 0.1889 0.79063 0.0
C948 C 0.89336 0.1792 0.8132 0.0
C949 C 0.89251 0.17317 0.77295 0.0
C950 C 0.90507 0.17202 0.79387 0.0
C951 C 0.85807 0.23861 0.69221 0.0
C952 C 0.85453 0.18276 0.74931 0.0
C953 C 0.95118 0.1315 0.72134 0.0
C954 C 0.9739 0.16383 0.71827 0.0
C955 C 0.89543 0.21022 0.66238 0.0
C956 C 0.82562 0.1796 0.58831 0.0
C957 C 0.8384 0.17257 0.56937 0.0
C958 C 0.83028 0.17784 0.5477 0.0
C959 C 0.80924 0.19047 0.54531 0.0
C960 C 0.80445 0.19191 0.58565 0.0
C961 C 0.79638 0.19735 0.5642 0.0
C962 C 0.83432 0.12221 0.66603 0.0
C963 C 0.83555 0.1748 0.61061 0.0
H964 H 0.8378 0.19579 0.78912 0.0
H965 H 0.90314 0.17753 0.82923 0.0
H966 H 0.90184 0.1675 0.75819 0.0
H967 H 0.92383 0.16539 0.79512 0.0
H968 H 0.85505 0.16338 0.57154 0.0
H969 H 0.80231 0.19452 0.52886 0.0
H970 H 0.79429 0.19737 0.60007 0.0
H971 H 0.78004 0.20688 0.56222 0.0
H972 H 0.30524 0.88493 0.06162 0.0
H973 H 0.34415 0.82185 0.05334 0.0
H974 H 0.39509 0.86567 0.0378 0.0
H975 H 0.43102 0.92354 0.03112 0.0
H976 H 0.39188 0.98619 0.04102 0.0
H977 H 0.33866 0.94105 0.0513 0.0
C978 C 0.32475 0.8807 0.05622 0.0
C979 C 0.32105 0.85026 0.05893 0.0
C980 C 0.35406 0.90605 0.04771 0.0
C981 C 0.34633 0.84503 0.05144 0.0
C982 C 0.37557 0.87015 0.0427 0.0
C983 C 0.41057 0.92712 0.03495 0.0
C984 C 0.41523 0.95813 0.03516 0.0
C985 C 0.38009 0.90099 0.04136 0.0
C986 C 0.38873 0.96251 0.04064 0.0
C987 C 0.35836 0.93674 0.0466 0.0
H988 H 0.1418 0.41316 0.07426 0.0
H989 H 0.21547 0.51084 0.06313 0.0
H990 H 0.17326 0.52245 0.04915 0.0
H991 H 0.11374 0.50521 0.04322 0.0
H992 H 0.04179 0.40656 0.05387 0.0
H993 H 0.08463 0.39513 0.06503 0.0
C994 C 0.14872 0.43698 0.06861 0.0
C995 C 0.18177 0.46115 0.07001 0.0
C996 C 0.12437 0.4434 0.06069 0.0
C997 C 0.19028 0.49177 0.06227 0.0
C998 C 0.16604 0.49844 0.05443 0.0
C999 C 0.10764 0.48116 0.04755 0.0
C1000 C 0.07443 0.45666 0.04747 0.0
C1001 C 0.13277 0.47456 0.05399 0.0
C1002 C 0.067 0.42578 0.05364 0.0
C1003 C 0.09153 0.41919 0.06007 0.0
H1004 H 0.61852 0.72369 0.07837 0.0
H1005 H 0.52881 0.71607 0.05366 0.0
H1006 H 0.51618 0.66702 0.03414 0.0
H1007 H 0.5288 0.62385 0.02645 0.0
H1008 H 0.61776 0.63168 0.05319 0.0
H1009 H 0.63219 0.68267 0.06957 0.0
C1010 C 0.59606 0.71128 0.06883 0.0
C1011 C 0.57448 0.72349 0.06782 0.0
C1012 C 0.58869 0.68286 0.05802 0.0
C1013 C 0.54598 0.7074 0.05476 0.0
C1014 C 0.53863 0.67918 0.04368 0.0
C1015 C 0.55153 0.63694 0.03562 0.0
C1016 C 0.57202 0.62369 0.03868 0.0
C1017 C 0.55955 0.66635 0.04548 0.0
C1018 C 0.60132 0.641 0.05071 0.0
C1019 C 0.60965 0.67027 0.06012 0.0
H1020 H 0.9006 0.29209 0.97021 0.0
H1021 H 0.81762 0.30045 0.99153 0.0
H1022 H 0.85479 0.35132 0.00945 0.0
H1023 H 0.91154 0.39561 0.01634 0.0
H1024 H 0.99345 0.38672 0.99276 0.0
H1025 H 0.95605 0.33434 0.97812 0.0
C1026 C 0.89049 0.30504 0.97867 0.0
C1027 C 0.85627 0.29259 0.97913 0.0
C1028 C 0.91195 0.33447 0.98836 0.0
C1029 C 0.84378 0.30936 0.99085 0.0
C1030 C 0.86509 0.3386 1.00095 0.0
C1031 C 0.92118 0.38204 1.00822 0.0
C1032 C 0.95544 0.39535 1.00562 0.0
C1033 C 0.89932 0.35174 0.99944 0.0
C1034 C 0.96737 0.37741 0.99489 0.0
C1035 C 0.94594 0.34731 0.98651 0.0
H1036 H 0.71325 0.52684 0.986 0.0
H1037 H 0.7604 0.62538 0.96607 0.0
H1038 H 0.71281 0.62874 0.97869 0.0
H1039 H 0.65584 0.60271 0.99236 0.0
H1040 H 0.60693 0.50353 0.01042 0.0
H1041 H 0.65669 0.5014 1.00202 0.0
C1042 C 0.71326 0.54915 0.98485 0.0
C1043 C 0.74042 0.57584 0.97505 0.0
C1044 C 0.68526 0.55074 0.99174 0.0
C1045 C 0.73985 0.60449 0.97344 0.0
C1046 C 0.71257 0.6064 0.98062 0.0
C1047 C 0.65625 0.58075 0.99476 0.0
C1048 C 0.62774 0.5535 1.00246 0.0
C1049 C 0.68482 0.57954 0.98931 0.0
C1050 C 0.62858 0.52508 1.00508 0.0
C1051 C 0.65708 0.52379 1.00005 0.0
H1052 H 0.41505 0.12746 0.96802 0.0
H1053 H 0.5101 0.20826 0.98127 0.0
H1054 H 0.52721 0.1734 0.99936 0.0
H1055 H 0.51636 0.11886 1.00875 0.0
H1056 H 0.42168 0.03882 0.99322 0.0
H1057 H 0.40346 0.07431 0.97867 0.0
C1058 C 0.43961 0.13753 0.97473 0.0
C1059 C 0.46136 0.17045 0.97294 0.0
C1060 C 0.44946 0.11734 0.98468 0.0
C1061 C 0.49276 0.18305 0.9824 0.0
C1062 C 0.50264 0.16306 0.99265 0.0
C1063 C 0.49163 0.10933 1.00245 0.0
C1064 C 0.47053 0.07616 1.00187 0.0
C1065 C 0.48137 0.13003 0.99356 0.0
C1066 C 0.43859 0.06416 0.99358 0.0
C1067 C 0.42808 0.08446 0.98525 0.0
H1068 H 0.67306 0.17457 0.99694 0.0
H1069 H 0.72223 0.12272 0.9794 0.0
H1070 H 0.67083 0.0726 0.98319 0.0
H1071 H 0.61121 0.0431 0.9903 0.0
H1072 H 0.56148 0.09472 1.00649 0.0
H1073 H 0.61323 0.1449 1.00431 0.0
C1074 C 0.67249 0.15226 0.9941 0.0
C1075 C 0.70149 0.15252 0.9878 0.0
C1076 C 0.64257 0.12333 0.99596 0.0
C1077 C 0.70033 0.12337 0.98411 0.0
C1078 C 0.67087 0.09459 0.98626 0.0
C1079 C 0.61183 0.06537 0.99344 0.0
C1080 C 0.58267 0.06506 0.99921 0.0
C1081 C 0.64176 0.09425 0.99193 0.0
C1082 C 0.58366 0.09414 1.00271 0.0
C1083 C 0.6133 0.12293 1.00132 0.0
H1084 H 0.85757 0.48763 0.9795 0.0
H1085 H 0.90623 0.58976 0.98151 0.0
H1086 H 0.95781 0.59187 0.99178 0.0
H1087 H 0.98987 0.56442 0.99838 0.0
H1088 H 0.93926 0.46211 1.00034 0.0
H1089 H 0.88794 0.46019 0.99043 0.0
C1090 C 0.87942 0.51032 0.98246 0.0
C1091 C 0.87812 0.53852 0.97963 0.0
C1092 C 0.90875 0.51126 0.98896 0.0
C1093 C 0.90652 0.56773 0.98369 0.0
C1094 C 0.93608 0.56892 0.98941 0.0
C1095 C 0.96749 0.54175 0.99681 0.0
C1096 C 0.96841 0.51345 1.00039 0.0
C1097 C 0.93764 0.54085 0.99177 0.0
C1098 C 0.93924 0.48424 0.99815 0.0
C1099 C 0.90983 0.48314 0.99235 0.0
H1100 H 0.52717 0.33833 1.00169 0.0
H1101 H 0.43916 0.31483 0.96508 0.0
H1102 H 0.44782 0.36823 0.97118 0.0
H1103 H 0.4805 0.42206 0.98742 0.0
H1104 H 0.56905 0.44458 0.0233 0.0
H1105 H 0.56006 0.39165 0.017 0.0
C1106 C 0.50988 0.34492 0.9951 0.0
C1107 C 0.48265 0.32265 0.98302 0.0
C1108 C 0.51509 0.3757 0.99853 0.0
C1109 C 0.46044 0.33152 0.97446 0.0
C1110 C 0.46537 0.36212 0.97792 0.0
C1111 C 0.49787 0.41539 0.99369 0.0
C1112 C 0.52513 0.43732 1.0061 0.0
C1113 C 0.49267 0.38451 0.98993 0.0
C1114 C 0.54745 0.42819 0.01407 0.0
C1115 C 0.54247 0.39783 0.01042 0.0
H1116 H 0.18489 0.69264 0.04338 0.0
H1117 H 0.18242 0.6608 0.11128 0.0
H1118 H 0.13586 0.60879 0.10241 0.0
H1119 H 0.09656 0.57154 0.07503 0.0
H1120 H 0.09919 0.60304 1.00715 0.0
H1121 H 0.14462 0.65571 0.01619 0.0
C1122 C 0.17418 0.6743 0.05619 0.0
C1123 C 0.18719 0.6805 0.07794 0.0
C1124 C 0.14733 0.6443 0.05095 0.0
C1125 C 0.17291 0.65651 0.09438 0.0
C1126 C 0.14622 0.62678 0.08935 0.0
C1127 C 0.10688 0.59014 0.06236 0.0
C1128 C 0.09493 0.58341 0.04039 0.0
C1129 C 0.13324 0.62033 0.06769 0.0
C1130 C 0.10859 0.60751 0.02403 0.0
C1131 C 0.13444 0.63769 0.02924 0.0
H1132 H 0.36981 0.52804 0.04655 0.0
H1133 H 0.32102 0.42763 0.06139 0.0
H1134 H 0.37204 0.42722 0.05512 0.0
H1135 H 0.43139 0.45551 0.04679 0.0
H1136 H 0.48098 0.55601 0.03283 0.0
H1137 H 0.42937 0.55629 0.03729 0.0
C1138 C 0.37033 0.50605 0.04826 0.0
C1139 C 0.34142 0.47796 0.05457 0.0
C1140 C 0.40012 0.50599 0.04481 0.0
C1141 C 0.34269 0.44969 0.05672 0.0
C1142 C 0.372 0.44941 0.05313 0.0
C1143 C 0.4308 0.47742 0.04456 0.0
C1144 C 0.45995 0.50553 0.03891 0.0
C1145 C 0.40096 0.47743 0.04741 0.0
C1146 C 0.45886 0.53385 0.03657 0.0
C1147 C 0.42929 0.53405 0.03929 0.0
H1148 H 0.50912 0.82977 0.03803 0.0
H1149 H 0.59841 0.88962 0.07369 0.0
H1150 H 0.5914 0.93564 0.06703 0.0
H1151 H 0.55988 0.95927 0.05059 0.0
H1152 H 0.46969 0.89811 0.01603 0.0
H1153 H 0.47706 0.85274 0.02272 0.0
C1154 C 0.52707 0.85292 0.04427 0.0
C1155 C 0.5542 0.85619 0.05626 0.0
C1156 C 0.52273 0.87926 0.04057 0.0
C1157 C 0.5772 0.88634 0.0644 0.0
C1158 C 0.57321 0.91274 0.06061 0.0
C1159 C 0.5418 0.93599 0.04465 0.0
C1160 C 0.51463 0.93243 0.03242 0.0
C1161 C 0.54603 0.90953 0.04872 0.0
C1162 C 0.49132 0.90192 0.02499 0.0
C1163 C 0.49537 0.87575 0.02891 0.0
H1164 H 0.96865 0.22885 0.38799 0.0
H1165 H 1.00264 0.16294 0.40228 0.0
H1166 H 0.05832 0.20282 0.391 0.0
H1167 H 0.09805 0.25785 0.38012 0.0
H1168 H 0.06423 0.32338 0.36445 0.0
H1169 H 1.00767 0.28241 0.37334 0.0
C1170 C 0.98827 0.22324 0.38839 0.0
C1171 C 0.98176 0.19319 0.39607 0.0
C1172 C 0.02013 0.24621 0.38176 0.0
C1173 C 1.00716 0.18592 0.39635 0.0
C1174 C 0.03898 0.20875 0.39006 0.0
C1175 C 0.07806 0.26274 0.37803 0.0
C1176 C 0.08482 0.29306 0.37104 0.0
C1177 C 0.04583 0.23912 0.38313 0.0
C1178 C 0.0592 0.29984 0.36937 0.0
C1179 C 0.02702 0.27652 0.37452 0.0
H1180 H 0.80339 0.74809 0.39991 0.0
H1181 H 0.87521 0.84758 0.39671 0.0
H1182 H 0.83297 0.85985 0.3839 0.0
H1183 H 0.77371 0.84214 0.37743 0.0
H1184 H 0.70343 0.74191 0.37988 0.0
H1185 H 0.74667 0.73007 0.38909 0.0
C1186 C 0.80984 0.77241 0.39609 0.0
C1187 C 0.84223 0.79691 0.39942 0.0
C1188 C 0.78553 0.77916 0.38877 0.0
C1189 C 0.8504 0.82832 0.39426 0.0
C1190 C 0.82619 0.83532 0.38709 0.0
C1191 C 0.76815 0.81774 0.37943 0.0
C1192 C 0.73539 0.79286 0.37775 0.0
C1193 C 0.79341 0.81098 0.3848 0.0
C1194 C 0.72843 0.7614 0.38091 0.0
C1195 C 0.75314 0.75459 0.38625 0.0
H1196 H 0.21192 0.04593 0.38411 0.0
H1197 H 0.30388 0.0644 0.41291 0.0
H1198 H 0.29603 0.01442 0.3981 0.0
H1199 H 0.26223 0.96454 0.37784 0.0
H1200 H 0.17218 0.94817 0.34708 0.0
H1201 H 0.18061 0.99857 0.36133 0.0
C1202 C 0.23065 0.03947 0.3868 0.0
C1203 C 0.25827 0.05891 0.39987 0.0
C1204 C 0.22633 0.01095 0.37789 0.0
C1205 C 0.28197 0.04966 0.40336 0.0
C1206 C 0.27762 0.02112 0.39478 0.0
C1207 C 0.24451 0.97206 0.37425 0.0
C1208 C 0.21653 0.9525 0.36158 0.0
C1209 C 0.24968 1.00136 0.38227 0.0
C1210 C 0.19398 0.96275 0.35679 0.0
C1211 C 0.19871 0.99157 0.36497 0.0
H1212 H 0.57 0.62799 0.3047 0.0
H1213 H 0.48589 0.63799 0.32041 0.0
H1214 H 0.52176 0.68989 0.33673 0.0
H1215 H 0.57705 0.73346 0.34482 0.0
H1216 H 0.66121 0.72538 0.32592 0.0
H1217 H 0.62513 0.67191 0.31186 0.0
C1218 C 0.5594 0.64163 0.31134 0.0
C1219 C 0.52518 0.62898 0.31115 0.0
C1220 C 0.58019 0.67191 0.31993 0.0
C1221 C 0.51203 0.64679 0.32053 0.0
C1222 C 0.53256 0.67664 0.3297 0.0
C1223 C 0.5875 0.71993 0.33772 0.0
C1224 C 0.62171 0.73327 0.3364 0.0
C1225 C 0.56666 0.68953 0.32928 0.0
C1226 C 0.63493 0.71565 0.32698 0.0
C1227 C 0.61433 0.68508 0.31901 0.0
H1228 H 0.39392 0.92893 0.29878 0.0
H1229 H 0.35962 0.83064 0.31447 0.0
H1230 H 0.30665 0.82383 0.32689 0.0
H1231 H 0.26824 0.8451 0.32991 0.0
H1232 H 0.30489 0.94457 0.31642 0.0
H1233 H 0.35842 0.95164 0.30649 0.0
C1234 C 0.37495 0.90616 0.3052 0.0
C1235 C 0.38053 0.88028 0.30556 0.0
C1236 C 0.34478 0.90257 0.31253 0.0
C1237 C 0.35587 0.85091 0.31406 0.0
C1238 C 0.32552 0.84699 0.32104 0.0
C1239 C 0.28821 0.86844 0.32537 0.0
C1240 C 0.28257 0.89436 0.32407 0.0
C1241 C 0.3194 0.87251 0.31992 0.0
C1242 C 0.30858 0.92429 0.31764 0.0
C1243 C 0.33924 0.92837 0.31191 0.0
H1244 H 0.17048 0.51962 0.32189 0.0
H1245 H 0.07004 0.45675 0.30282 0.0
H1246 H 0.07331 0.41121 0.31691 0.0
H1247 H 0.10574 0.38869 0.3321 0.0
H1248 H 0.2056 0.45099 0.35228 0.0
H1249 H 0.20123 0.4973 0.34097 0.0
C1250 C 0.14911 0.49606 0.32127 0.0
C1251 C 0.12029 0.49159 0.31088 0.0
C1252 C 0.15106 0.46982 0.32954 0.0
C1253 C 0.09281 0.46081 0.31022 0.0
C1254 C 0.09458 0.43472 0.31834 0.0
C1255 C 0.12651 0.41243 0.334 0.0
C1256 C 0.1561 0.41645 0.34254 0.0
C1257 C 0.12381 0.43885 0.32749 0.0
C1258 C 0.18257 0.44732 0.34561 0.0
C1259 C 0.18013 0.4738 0.33907 0.0
H1260 H 0.36428 0.43008 0.31122 0.0
H1261 H 0.36379 0.51764 0.32193 0.0
H1262 H 0.30608 0.48791 0.33288 0.0
H1263 H 0.25454 0.43683 0.33686 0.0
H1264 H 0.25503 0.3494 0.32641 0.0
H1265 H 0.31384 0.37907 0.31787 0.0
C1266 C 0.35151 0.44258 0.31608 0.0
C1267 C 0.36813 0.4759 0.31557 0.0
C1268 C 0.31833 0.42534 0.32236 0.0
C1269 C 0.35151 0.49194 0.32207 0.0
C1270 C 0.31847 0.47498 0.32831 0.0
C1271 C 0.26786 0.42447 0.33313 0.0
C1272 C 0.25111 0.39121 0.33278 0.0
C1273 C 0.30152 0.44169 0.32818 0.0
C1274 C 0.26797 0.3751 0.32732 0.0
C1275 C 0.30141 0.39203 0.32229 0.0
H1276 H 0.5128 0.81102 0.31334 0.0
H1277 H 0.55233 0.91214 0.31754 0.0
H1278 H 0.60556 0.91897 0.329 0.0
H1279 H 0.64192 0.89609 0.33566 0.0
H1280 H 0.60027 0.79447 0.33426 0.0
H1281 H 0.54706 0.78783 0.32416 0.0
C1282 C 0.533 0.83451 0.31704 0.0
C1283 C 0.52873 0.86105 0.31447 0.0
C1284 C 0.56325 0.83812 0.32409 0.0
C1285 C 0.55497 0.89133 0.31948 0.0
C1286 C 0.58547 0.89524 0.3259 0.0
C1287 C 0.62103 0.87253 0.33336 0.0
C1288 C 0.62502 0.84578 0.3361 0.0
C1289 C 0.59009 0.86884 0.32791 0.0
C1290 C 0.59781 0.81539 0.3329 0.0
C1291 C 0.56734 0.81159 0.3269 0.0
H1292 H 0.14586 0.67807 0.27493 0.0
H1293 H 0.1771 0.65322 0.3358 0.0
H1294 H 0.18938 0.7042 0.35233 0.0
H1295 H 0.19209 0.7563 0.34877 0.0
H1296 H 0.15574 0.77784 0.28868 0.0
H1297 H 0.14496 0.7279 0.27247 0.0
C1298 C 0.15529 0.68383 0.29185 0.0
C1299 C 0.16076 0.66217 0.30411 0.0
C1300 C 0.16144 0.71262 0.30133 0.0
C1301 C 0.17265 0.6696 0.32608 0.0
C1302 C 0.17973 0.69874 0.33547 0.0
C1303 C 0.18136 0.74993 0.33232 0.0
C1304 C 0.17459 0.77099 0.32018 0.0
C1305 C 0.17428 0.7205 0.3232 0.0
C1306 C 0.16114 0.76229 0.29861 0.0
C1307 C 0.15494 0.73363 0.28922 0.0
H1308 H 0.79972 0.0146 0.42447 0.0
H1309 H 0.87452 0.03305 0.3754 0.0
H1310 H 0.83979 0.98035 0.3592 0.0
H1311 H 0.78848 0.92873 0.35979 0.0
H1312 H 0.71213 0.91303 0.40704 0.0
H1313 H 0.74741 0.96473 0.42344 0.0
C1314 C 0.80834 0.00704 0.41019 0.0
C1315 C 0.83953 0.02743 0.40117 0.0
C1316 C 0.78804 0.9772 0.40074 0.0
C1317 C 0.85048 0.01768 0.38257 0.0
C1318 C 0.83069 0.98756 0.37337 0.0
C1319 C 0.77925 0.93679 0.37333 0.0
C1320 C 0.74741 0.91695 0.38187 0.0
C1321 C 0.7994 0.9671 0.38236 0.0
C1322 C 0.73637 0.92766 0.39995 0.0
C1323 C 0.75655 0.95731 0.4094 0.0
H1324 H 0.02304 0.85836 0.36795 0.0
H1325 H 0.97451 0.75805 0.38296 0.0
H1326 H 0.02484 0.75709 0.37473 0.0
H1327 H 0.08378 0.78524 0.36534 0.0
H1328 H 0.13325 0.88606 0.35273 0.0
H1329 H 0.08197 0.88638 0.35771 0.0
C1330 C 0.02347 0.83627 0.36917 0.0
C1331 C 0.99506 0.8084 0.37619 0.0
C1332 C 0.05285 0.83599 0.36486 0.0
C1333 C 0.99604 0.77995 0.3778 0.0
C1334 C 0.02487 0.77935 0.37309 0.0
C1335 C 0.08318 0.80719 0.36347 0.0
C1336 C 0.11222 0.83541 0.35799 0.0
C1337 C 0.05358 0.8073 0.36695 0.0
C1338 C 0.11122 0.86381 0.35618 0.0
C1339 C 0.08183 0.86405 0.35925 0.0
H1340 H 0.22915 0.18743 0.37138 0.0
H1341 H 0.18584 0.18238 0.43614 0.0
H1342 H 0.16907 0.21997 0.42375 0.0
H1343 H 0.16892 0.25601 0.39568 0.0
H1344 H 0.21171 0.26299 0.33057 0.0
H1345 H 0.22601 0.22244 0.34172 0.0
C1346 C 0.21588 0.19448 0.38266 0.0
C1347 C 0.20891 0.18234 0.40474 0.0
C1348 C 0.20625 0.21635 0.37538 0.0
C1349 C 0.1916 0.19153 0.41914 0.0
C1350 C 0.18198 0.21301 0.41209 0.0
C1351 C 0.18136 0.24868 0.38384 0.0
C1352 C 0.18971 0.26276 0.36246 0.0
C1353 C 0.18956 0.22584 0.39041 0.0
C1354 C 0.20509 0.25247 0.34716 0.0
C1355 C 0.2134 0.22947 0.3536 0.0
H1356 H 0.68611 0.50695 0.72576 0.0
H1357 H 0.63399 0.55808 0.73546 0.0
H1358 H 0.68078 0.60661 0.72085 0.0
H1359 H 0.73837 0.63592 0.709 0.0
H1360 H 0.79227 0.58635 0.70089 0.0
H1361 H 0.74324 0.53599 0.71079 0.0
C1362 C 0.6849 0.52861 0.72421 0.0
C1363 C 0.65671 0.52901 0.73177 0.0
C1364 C 0.71236 0.5568 0.71621 0.0
C1365 C 0.6555 0.55728 0.72987 0.0
C1366 C 0.68226 0.58505 0.72157 0.0
C1367 C 0.73916 0.61396 0.70906 0.0
C1368 C 0.76871 0.61478 0.70387 0.0
C1369 C 0.71111 0.58532 0.71527 0.0
C1370 C 0.76964 0.58627 0.70434 0.0
C1371 C 0.74163 0.55749 0.7102 0.0
H1372 H 0.45778 0.09166 0.73712 0.0
H1373 H 0.52739 0.19079 0.72634 0.0
H1374 H 0.48298 0.2001 0.71414 0.0
H1375 H 0.42345 0.1803 0.70901 0.0
H1376 H 0.35489 0.08049 0.7183 0.0
H1377 H 0.39958 0.07126 0.72907 0.0
C1378 C 0.46324 0.11529 0.73199 0.0
C1379 C 0.49578 0.14057 0.73287 0.0
C1380 C 0.43767 0.12036 0.72497 0.0
C1381 C 0.50257 0.17095 0.72582 0.0
C1382 C 0.47713 0.17629 0.71903 0.0
C1383 C 0.41845 0.15647 0.71296 0.0
C1384 C 0.38592 0.13096 0.71243 0.0
C1385 C 0.44447 0.15125 0.71886 0.0
C1386 C 0.37972 0.1004 0.71832 0.0
C1387 C 0.40527 0.09511 0.72446 0.0
H1388 H 0.90198 0.38173 0.71085 0.0
H1389 H 0.88801 0.34749 0.77908 0.0
H1390 H 0.87052 0.29385 0.76595 0.0
H1391 H 0.86105 0.25705 0.73503 0.0
H1392 H 0.87538 0.29158 0.66704 0.0
H1393 H 0.89018 0.34454 0.68 0.0
C1394 C 0.89454 0.36242 0.72283 0.0
C1395 C 0.89647 0.3686 0.74588 0.0
C1396 C 0.88453 0.33169 0.71518 0.0
C1397 C 0.88718 0.3434 0.76122 0.0
C1398 C 0.87711 0.31273 0.75375 0.0
C1399 C 0.86735 0.27623 0.72312 0.0
C1400 C 0.86658 0.27041 0.70009 0.0
C1401 C 0.87613 0.3067 0.73078 0.0
C1402 C 0.87472 0.29528 0.68476 0.0
C1403 C 0.88359 0.32567 0.69221 0.0
H1404 H 0.1619 0.985 0.64503 0.0
H1405 H 0.23322 0.96479 0.61559 0.0
H1406 H 0.27774 0.01485 0.62972 0.0
H1407 H 0.29669 0.06524 0.64988 0.0
H1408 H 0.22493 0.08548 0.67875 0.0
H1409 H 0.18079 0.03484 0.66568 0.0
C1410 C 0.18718 0.99137 0.64196 0.0
C1411 C 0.1941 0.97114 0.62917 0.0
C1412 C 0.21278 0.02042 0.65 0.0
C1413 C 0.2271 0.98003 0.62515 0.0
C1414 C 0.25264 0.00868 0.63326 0.0
C1415 C 0.27141 0.05861 0.65327 0.0
C1416 C 0.26438 0.07923 0.66549 0.0
C1417 C 0.24582 0.02928 0.64553 0.0
C1418 C 0.23133 0.07007 0.66969 0.0
C1419 C 0.2059 0.04104 0.66213 0.0
H1420 H 0.04415 0.26035 0.63948 0.0
H1421 H 0.01458 0.16149 0.64848 0.0
H1422 H 0.95949 0.15002 0.65978 0.0
H1423 H 0.91817 0.16763 0.66365 0.0
H1424 H 0.94908 0.26683 0.6547 0.0
H1425 H 1.00484 0.2785 0.6464 0.0
C1426 C 0.02569 0.23627 0.64397 0.0
C1427 C 0.03343 0.21175 0.64278 0.0
C1428 C 0.9941 0.22985 0.65021 0.0
C1429 C 1.00936 0.18083 0.64919 0.0
C1430 C 0.97775 0.17422 0.65547 0.0
C1431 C 0.93731 0.19185 0.66036 0.0
C1432 C 0.9296 0.21647 0.66015 0.0
C1433 C 0.96959 0.19844 0.65557 0.0
C1434 C 0.95447 0.24758 0.65518 0.0
C1435 C 0.98637 0.25426 0.65042 0.0
H1436 H 0.7856 0.79423 0.61307 0.0
H1437 H 0.81294 0.8499 0.67361 0.0
H1438 H 0.82931 0.81433 0.69053 0.0
H1439 H 0.83637 0.76774 0.6881 0.0
H1440 H 0.80105 0.70771 0.63006 0.0
H1441 H 0.7868 0.74449 0.61243 0.0
C1442 C 0.79438 0.79842 0.63015 0.0
C1443 C 0.79834 0.82533 0.64173 0.0
C1444 C 0.80234 0.77699 0.64032 0.0
C1445 C 0.81051 0.83021 0.66378 0.0
C1446 C 0.81959 0.8096 0.67367 0.0
C1447 C 0.82501 0.7623 0.67183 0.0
C1448 C 0.81973 0.73478 0.66063 0.0
C1449 C 0.81573 0.783 0.66206 0.0
C1450 C 0.80543 0.72858 0.63924 0.0
C1451 C 0.79725 0.74967 0.62907 0.0
H1452 H 0.04606 0.80803 0.64531 0.0
H1453 H 0.99535 0.8607 0.63655 0.0
H1454 H 0.94467 0.8156 0.65106 0.0
H1455 H 0.9133 0.75917 0.66293 0.0
H1456 H 0.96285 0.70489 0.66731 0.0
H1457 H 0.01517 0.75226 0.65816 0.0
C1458 C 0.02403 0.80975 0.64689 0.0
C1459 C 0.02449 0.83772 0.63996 0.0
C1460 C 0.99459 0.78322 0.65444 0.0
C1461 C 0.99558 0.83939 0.64177 0.0
C1462 C 0.96658 0.8136 0.65006 0.0
C1463 C 0.93573 0.75801 0.66236 0.0
C1464 C 0.93442 0.72877 0.66621 0.0
C1465 C 0.96555 0.7851 0.65602 0.0
C1466 C 0.96343 0.72728 0.66468 0.0
C1467 C 0.99331 0.75432 0.65934 0.0
H1468 H 0.23568 0.26076 0.6531 0.0
H1469 H 0.15777 0.16333 0.65573 0.0
H1470 H 0.19762 0.14614 0.66472 0.0
H1471 H 0.25578 0.15906 0.66952 0.0
H1472 H 0.33252 0.25711 0.66689 0.0
H1473 H 0.29216 0.2738 0.6601 0.0
C1474 C 0.22736 0.23574 0.65578 0.0
C1475 C 0.19387 0.21338 0.65361 0.0
C1476 C 0.25034 0.22615 0.66083 0.0
C1477 C 0.18342 0.18106 0.65724 0.0
C1478 C 0.20625 0.17123 0.6623 0.0
C1479 C 0.26345 0.18406 0.66791 0.0
C1480 C 0.29708 0.20695 0.66917 0.0
C1481 C 0.23992 0.19356 0.66384 0.0
C1482 C 0.3068 0.23917 0.6663 0.0
C1483 C 0.28374 0.24872 0.66236 0.0
H1484 H 0.79744 1.00028 0.60894 0.0
H1485 H 0.85484 0.98681 0.6594 0.0
H1486 H 0.86598 0.03651 0.67744 0.0
H1487 H 0.85925 0.08387 0.67844 0.0
H1488 H 0.79694 0.09332 0.62955 0.0
H1489 H 0.78824 0.04541 0.6112 0.0
C1490 C 0.81246 0.00834 0.62387 0.0
C1491 C 0.82547 0.99024 0.63279 0.0
C1492 C 0.81787 0.0362 0.63441 0.0
C1493 C 0.84456 1.0005 0.65227 0.0
C1494 C 0.85093 0.02886 0.66254 0.0
C1495 C 0.84339 0.07522 0.66402 0.0
C1496 C 0.82865 0.09226 0.65563 0.0
C1497 C 0.8376 0.04689 0.65377 0.0
C1498 C 0.80862 0.08086 0.63656 0.0
C1499 C 0.80357 0.05336 0.62596 0.0
H1500 H 0.46403 0.36246 0.7457 0.0
H1501 H 0.54517 0.36295 0.71175 0.0
H1502 H 0.50838 0.30903 0.69798 0.0
H1503 H 0.45279 0.26134 0.6962 0.0
H1504 H 0.37239 0.26281 0.73015 0.0
H1505 H 0.4093 0.31596 0.74355 0.0
C1506 C 0.47369 0.35079 0.73524 0.0
C1507 C 0.50723 0.36669 0.72974 0.0
C1508 C 0.45249 0.31998 0.72747 0.0
C1509 C 0.51943 0.35127 0.71621 0.0
C1510 C 0.49838 0.32041 0.70837 0.0
C1511 C 0.44324 0.27342 0.70626 0.0
C1512 C 0.40953 0.25793 0.7118 0.0
C1513 C 0.46478 0.30448 0.71392 0.0
C1514 C 0.39798 0.27386 0.72542 0.0
C1515 C 0.41913 0.30444 0.73314 0.0
H1516 H 0.64502 0.08874 0.72104 0.0
H1517 H 0.6679 0.18617 0.71547 0.0
H1518 H 0.72429 0.20201 0.704 0.0
H1519 H 0.76842 0.18811 0.69816 0.0
H1520 H 0.74339 0.08993 0.70375 0.0
H1521 H 0.68679 0.07449 0.71264 0.0
C1522 C 0.66228 0.11345 0.71717 0.0
C1523 C 0.65234 0.13622 0.71927 0.0
C1524 C 0.69446 0.12227 0.71069 0.0
C1525 C 0.67492 0.16813 0.71404 0.0
C1526 C 0.70722 0.17719 0.70757 0.0
C1527 C 0.75033 0.16333 0.7009 0.0
C1528 C 0.75997 0.14007 0.69999 0.0
C1529 C 0.71749 0.15451 0.70617 0.0
C1530 C 0.7365 0.10816 0.70416 0.0
C1531 C 0.70413 0.09931 0.70929 0.0
H1532 H 0.94827 0.57097 0.74368 0.0
H1533 H 0.86751 0.48703 0.71537 0.0
H1534 H 0.84603 0.5192 0.69881 0.0
H1535 H 0.84955 0.57116 0.69328 0.0
H1536 H 0.93001 0.65468 0.7226 0.0
H1537 H 0.95212 0.62269 0.73787 0.0
C1538 C 0.926 0.55978 0.73384 0.0
C1539 C 0.9095 0.52679 0.73078 0.0
C1540 C 0.91367 0.57832 0.7246 0.0
C1541 C 0.88063 0.51244 0.71804 0.0
C1542 C 0.86835 0.53081 0.70855 0.0
C1543 C 0.87207 0.5824 0.70285 0.0
C1544 C 0.88808 0.6153 0.70674 0.0
C1545 C 0.88459 0.56378 0.71183 0.0
C1546 C 0.91705 0.62941 0.71939 0.0
C1547 C 0.92979 0.61114 0.72814 0.0
H1548 H 0.44169 0.93679 0.23651 0.0
H1549 H 0.45859 0.85749 0.23153 0.0
H1550 H 0.46684 0.86602 0.19113 0.0
H1551 H 0.46834 0.89535 0.15701 0.0
H1552 H 0.45239 0.97524 0.16173 0.0
H1553 H 0.44504 0.9674 0.20231 0.0
C1554 C 0.44707 0.92134 0.22655 0.0
C1555 C 0.44941 0.89646 0.23708 0.0
C1556 C 0.45209 0.92657 0.20325 0.0
C1557 C 0.45687 0.87693 0.22394 0.0
C1558 C 0.46149 0.88173 0.2008 0.0
C1559 C 0.46319 0.91103 0.16691 0.0
C1560 C 0.46076 0.93577 0.15626 0.0
C1561 C 0.45904 0.90639 0.19025 0.0
C1562 C 0.45464 0.95617 0.16945 0.0
C1563 C 0.45022 0.95156 0.19267 0.0
H1564 H 0.05997 0.55358 0.24956 0.0
H1565 H 0.11133 0.504 0.23138 0.0
H1566 H 0.08352 0.49014 0.19532 0.0
H1567 H 0.04347 0.4907 0.16944 0.0
H1568 H 0.99313 0.54152 0.18697 0.0
H1569 H 0.02164 0.55621 0.22281 0.0
C1570 C 0.06538 0.5401 0.23758 0.0
C1571 C 0.08755 0.5297 0.24321 0.0
C1572 C 0.04933 0.53225 0.21682 0.0
C1573 C 0.09399 0.5119 0.2276 0.0
C1574 C 0.07821 0.50407 0.20694 0.0
C1575 C 0.03905 0.50537 0.18094 0.0
C1576 C 0.0161 0.51489 0.1755 0.0
C1577 C 0.05565 0.51391 0.20144 0.0
C1578 C 1.01029 0.53344 0.19084 0.0
C1579 C 0.02673 0.54203 0.21129 0.0
H1580 H 0.46409 0.53319 0.23226 0.0
H1581 H 0.5548 0.5644 0.2677 0.0
H1582 H 0.57953 0.55597 0.23447 0.0
H1583 H 0.57668 0.54304 0.19496 0.0
H1584 H 0.48595 0.51009 0.15911 0.0
H1585 H 0.46014 0.51642 0.19276 0.0
C1586 C 0.48906 0.53761 0.23274 0.0
C1587 C 0.50769 0.54966 0.25233 0.0
C1588 C 0.5033 0.53289 0.21345 0.0
C1589 C 0.54012 0.55552 0.25272 0.0
C1590 C 0.55428 0.55071 0.23374 0.0
C1591 C 0.55106 0.53661 0.19452 0.0
C1592 C 0.53339 0.52613 0.17444 0.0
C1593 C 0.53629 0.53991 0.21393 0.0
C1594 C 0.50039 0.51869 0.1742 0.0
C1595 C 0.4855 0.52207 0.1935 0.0
H1596 H 0.94919 0.47729 0.8157 0.0
H1597 H 0.99943 0.43455 0.78304 0.0
H1598 H 0.03586 0.44703 0.81508 0.0
H1599 H 0.0508 0.46657 0.85334 0.0
H1600 H 1.00116 0.50988 0.88607 0.0
H1601 H 0.96716 0.50072 0.85302 0.0
C1602 C 0.96849 0.47123 0.81546 0.0
C1603 C 0.97144 0.45478 0.79715 0.0
C1604 C 0.98923 0.47829 0.83402 0.0
C1605 C 0.99637 0.4468 0.79713 0.0
C1606 C 0.01725 0.45398 0.8154 0.0
C1607 C 0.03299 0.47456 0.85311 0.0
C1608 C 0.02837 0.48865 0.87222 0.0
C1609 C 0.01351 0.46919 0.83409 0.0
C1610 C 1.00482 0.49847 0.87172 0.0
C1611 C 0.98547 0.49338 0.85279 0.0
H1612 H 0.53441 0.4626 0.79449 0.0
H1613 H 0.63678 0.5142 0.81218 0.0
H1614 H 0.62269 0.52704 0.84856 0.0
H1615 H 0.5813 0.52583 0.87473 0.0
H1616 H 0.47907 0.47371 0.85678 0.0
H1617 H 0.49308 0.45852 0.82138 0.0
C1618 C 0.55365 0.47619 0.80642 0.0
C1619 C 0.58664 0.4875 0.80047 0.0
C1620 C 0.54539 0.48352 0.82732 0.0
C1621 C 0.61121 0.50554 0.81612 0.0
C1622 C 0.60316 0.51279 0.837 0.0
C1623 C 0.56209 0.51076 0.86321 0.0
C1624 C 0.5292 0.50119 0.86835 0.0
C1625 C 0.57035 0.50224 0.8427 0.0
C1626 C 0.50462 0.48185 0.85311 0.0
C1627 C 0.51259 0.47306 0.83287 0.0
H1628 H 0.48095 0.06503 0.78914 0.0
H1629 H 0.58261 0.12318 0.8073 0.0
H1630 H 0.57154 0.09571 0.84343 0.0
H1631 H 0.53285 0.05423 0.86985 0.0
H1632 H 0.43105 0.99792 0.85155 0.0
H1633 H 0.44222 0.02614 0.81588 0.0
C1634 C 0.50069 0.07215 0.80107 0.0
C1635 C 0.53262 0.09625 0.79531 0.0
C1636 C 0.49409 0.05658 0.82196 0.0
C1637 C 0.55788 0.10444 0.81099 0.0
C1638 C 0.55151 0.08889 0.8318 0.0
C1639 C 0.51308 0.04847 0.85816 0.0
C1640 C 0.4812 0.02373 0.86334 0.0
C1641 C 0.5197 0.06483 0.83747 0.0
C1642 C 0.4559 0.01646 0.8479 0.0
C1643 C 0.46225 0.03264 0.82747 0.0
H1644 H 0.13126 0.232 0.56557 0.0
H1645 H 0.11073 0.30065 0.59588 0.0
H1646 H 0.1306 0.33406 0.56228 0.0
H1647 H 0.1545 0.34422 0.52444 0.0
H1648 H 0.17388 0.27523 0.49346 0.0
H1649 H 0.15348 0.24139 0.52693 0.0
C1650 C 0.13127 0.25434 0.56479 0.0
C1651 C 0.11965 0.2639 0.58323 0.0
C1652 C 0.14238 0.27329 0.54524 0.0
C1653 C 0.11938 0.29269 0.58188 0.0
C1654 C 0.13082 0.31184 0.56269 0.0
C1655 C 0.15431 0.3218 0.52504 0.0
C1656 C 0.16588 0.31237 0.5065 0.0
C1657 C 0.14245 0.30244 0.54429 0.0
C1658 C 0.16493 0.28297 0.50741 0.0
C1659 C 0.15345 0.2637 0.52661 0.0
H1660 H 0.7531 0.82499 0.5678 0.0
H1661 H 0.7081 0.87333 0.59963 0.0
H1662 H 0.67188 0.86219 0.56752 0.0
H1663 H 0.65562 0.84186 0.52935 0.0
H1664 H 0.70117 0.79413 0.49729 0.0
H1665 H 0.73455 0.80191 0.53047 0.0
C1666 C 0.73494 0.83256 0.56785 0.0
C1667 C 0.73332 0.85002 0.58601 0.0
C1668 C 0.71456 0.8265 0.54918 0.0
C1669 C 0.70999 0.86009 0.58574 0.0
C1670 C 0.68929 0.85372 0.5674 0.0
C1671 C 0.67248 0.83274 0.52975 0.0
C1672 C 0.67602 0.81762 0.51079 0.0
C1673 C 0.69175 0.83745 0.54885 0.0
C1674 C 0.69832 0.80629 0.51151 0.0
C1675 C 0.71731 0.81059 0.53053 0.0
H1676 H 0.13941 0.85246 0.57015 0.0
H1677 H 0.16336 0.94691 0.54962 0.0
H1678 H 0.1792 0.93817 0.51246 0.0
H1679 H 0.19101 0.90533 0.48688 0.0
H1680 H 0.16915 0.81171 0.5081 0.0
H1681 H 0.14756 0.81828 0.54366 0.0
C1682 C 0.14745 0.87085 0.55737 0.0
C1683 C 0.15028 0.90031 0.56266 0.0
C1684 C 0.15724 0.8659 0.53618 0.0
C1685 C 0.16119 0.9241 0.54601 0.0
C1686 C 0.17028 0.91912 0.52476 0.0
C1687 C 0.18097 0.88619 0.49914 0.0
C1688 C 0.18189 0.85816 0.49489 0.0
C1689 C 0.16914 0.89038 0.5198 0.0
C1690 C 0.16908 0.83367 0.51106 0.0
C1691 C 0.15668 0.83739 0.53141 0.0
H1692 H 0.64929 0.76994 0.13052 0.0
H1693 H 0.58559 0.80458 0.15287 0.0
H1694 H 0.6117 0.81653 0.18951 0.0
H1695 H 0.6549 0.82037 0.21444 0.0
H1696 H 0.71784 0.78457 0.1926 0.0
H1697 H 0.68976 0.76989 0.15664 0.0
C1698 C 0.64076 0.7796 0.14353 0.0
C1699 C 0.61575 0.78667 0.13881 0.0
C1700 C 0.65596 0.78653 0.16463 0.0
C1701 C 0.6052 0.79944 0.15587 0.0
C1702 C 0.62004 0.8062 0.17688 0.0
C1703 C 0.66214 0.80884 0.202 0.0
C1704 C 0.68872 0.80392 0.20624 0.0
C1705 C 0.64582 0.80035 0.18133 0.0
C1706 C 0.69793 0.78928 0.1897 0.0
C1707 C 0.68175 0.78069 0.16914 0.0
H1708 H 0.25056 0.86163 0.11412 0.0
H1709 H 0.24179 0.77667 0.14421 0.0
H1710 H 0.22218 0.78767 0.17901 0.0
H1711 H 0.20496 0.81995 0.20033 0.0
H1712 H 0.21405 0.90519 0.1705 0.0
H1713 H 0.23611 0.89558 0.13625 0.0
C1714 C 0.24479 0.84578 0.1284 0.0
C1715 C 0.24741 0.81825 0.12649 0.0
C1716 C 0.23336 0.85216 0.14838 0.0
C1717 C 0.23951 0.79777 0.14511 0.0
C1718 C 0.2284 0.80409 0.16505 0.0
C1719 C 0.21223 0.8367 0.18647 0.0
C1720 C 0.20767 0.86316 0.18798 0.0
C1721 C 0.22484 0.831 0.1668 0.0
C1722 C 0.21682 0.88436 0.16969 0.0
C1723 C 0.22958 0.87897 0.15012 0.0
H1724 H 0.15631 0.38861 0.13045 0.0
H1725 H 0.25885 0.43281 0.14765 0.0
H1726 H 0.24467 0.40264 0.1826 0.0
H1727 H 0.20327 0.36172 0.20778 0.0
H1728 H 0.10069 0.32147 0.1919 0.0
H1729 H 0.11495 0.3524 0.15737 0.0
C1730 C 0.17568 0.39228 0.14193 0.0
C1731 C 0.20875 0.41284 0.13591 0.0
C1732 C 0.16737 0.37531 0.1624 0.0
C1733 C 0.23321 0.4166 0.15124 0.0
C1734 C 0.22512 0.3995 0.17146 0.0
C1735 C 0.18396 0.36004 0.19701 0.0
C1736 C 0.15088 0.33851 0.20245 0.0
C1737 C 0.19228 0.37844 0.17713 0.0
C1738 C 0.12639 0.33691 0.18802 0.0
C1739 C 0.1345 0.35483 0.16823 0.0
H1740 H 0.86201 0.62405 0.9133 0.0
H1741 H 0.76021 0.56886 0.89492 0.0
H1742 H 0.77296 0.59337 0.85765 0.0
H1743 H 0.81259 0.63357 0.83104 0.0
H1744 H 0.91406 0.68932 0.85007 0.0
H1745 H 0.90201 0.66137 0.88599 0.0
C1746 C 0.8427 0.6169 0.90101 0.0
C1747 C 0.81017 0.59468 0.90702 0.0
C1748 C 0.85014 0.63144 0.87966 0.0
C1749 C 0.78542 0.58614 0.89089 0.0
C1750 C 0.7927 0.60013 0.86952 0.0
C1751 C 0.83211 0.63919 0.84292 0.0
C1752 C 0.86415 0.66372 0.83789 0.0
C1753 C 0.8249 0.62328 0.86382 0.0
C1754 C 0.88912 0.67087 0.85359 0.0
C1755 C 0.88226 0.65485 0.87416 0.0
H1756 H 0.36882 0.2021 0.91723 0.0
H1757 H 0.43182 0.1676 0.89318 0.0
H1758 H 0.40174 0.15224 0.85782 0.0
H1759 H 0.3588 0.15072 0.83316 0.0
H1760 H 0.29807 0.18795 0.8572 0.0
H1761 H 0.32624 0.20038 0.89303 0.0
C1762 C 0.37615 0.19139 0.90422 0.0
C1763 C 0.40275 0.1863 0.9078 0.0
C1764 C 0.35923 0.18324 0.88386 0.0
C1765 C 0.41132 0.17162 0.89095 0.0
C1766 C 0.39429 0.16308 0.87065 0.0
C1767 C 0.35189 0.16174 0.8462 0.0
C1768 C 0.32626 0.16831 0.84245 0.0
C1769 C 0.36846 0.16917 0.8668 0.0
C1770 C 0.31734 0.18219 0.85967 0.0
C1771 C 0.33355 0.18948 0.88016 0.0
H1772 H 0.79347 0.20328 0.89446 0.0
H1773 H 0.89147 0.25066 0.92139 0.0
H1774 H 0.91282 0.24263 0.88632 0.0
H1775 H 0.90366 0.22087 0.84838 0.0
H1776 H 0.80538 0.171 0.82206 0.0
H1777 H 0.7843 0.18141 0.85643 0.0
C1778 C 0.81947 0.21169 0.89273 0.0
C1779 C 0.84075 0.2276 0.91064 0.0
C1780 C 0.83161 0.20656 0.87258 0.0
C1781 C 0.87449 0.23877 0.90786 0.0
C1782 C 0.88674 0.23397 0.88783 0.0
C1783 C 0.87758 0.21203 0.85019 0.0
C1784 C 0.8562 0.19507 0.83259 0.0
C1785 C 0.86551 0.21769 0.87015 0.0
C1786 C 0.82254 0.18444 0.83515 0.0
C1787 C 0.81039 0.19019 0.8549 0.0
H1788 H 0.32765 0.11713 0.46057 0.0
H1789 H 0.25745 0.14597 0.47872 0.0
H1790 H 0.28162 0.16063 0.51588 0.0
H1791 H 0.32326 0.16599 0.54313 0.0
H1792 H 0.39054 0.13326 0.5256 0.0
H1793 H 0.36655 0.11904 0.48844 0.0
C1794 C 0.3172 0.12613 0.47271 0.0
C1795 C 0.29079 0.13053 0.46665 0.0
C1796 C 0.33073 0.13388 0.49423 0.0
C1797 C 0.27815 0.14287 0.48263 0.0
C1798 C 0.29179 0.15103 0.50401 0.0
C1799 C 0.33238 0.15531 0.53133 0.0
C1800 C 0.35897 0.15108 0.53719 0.0
C1801 C 0.31816 0.14672 0.50998 0.0
C1802 C 0.37062 0.1375 0.52147 0.0
C1803 C 0.35678 0.12915 0.50022 0.0
H1804 H 0.88115 0.12373 0.4713 0.0
H1805 H 0.90248 0.21187 0.43918 0.0
H1806 H 0.881 0.22601 0.47184 0.0
H1807 H 0.8558 0.21299 0.50952 0.0
H1808 H 0.83429 0.12439 0.54109 0.0
H1809 H 0.85609 0.11072 0.50858 0.0
C1810 C 0.88079 0.1459 0.47133 0.0
C1811 C 0.89313 0.16659 0.45275 0.0
C1812 C 0.86842 0.1538 0.49008 0.0
C1813 C 0.89323 0.19558 0.4533 0.0
C1814 C 0.88083 0.2036 0.47192 0.0
C1815 C 0.85567 0.19059 0.50918 0.0
C1816 C 0.84345 0.16975 0.52772 0.0
C1817 C 0.86827 0.18284 0.49039 0.0
C1818 C 0.84389 0.14102 0.52717 0.0
C1819 C 0.8562 0.1331 0.50854 0.0
H1820 H 0.8215 0.71945 0.45936 0.0
H1821 H 0.92263 0.78131 0.47709 0.0
H1822 H 0.91329 0.75456 0.51334 0.0
H1823 H 0.87735 0.71125 0.53911 0.0
H1824 H 0.77626 0.64912 0.52139 0.0
H1825 H 0.78458 0.67827 0.48627 0.0
C1826 C 0.84134 0.72739 0.47131 0.0
C1827 C 0.87278 0.75221 0.46539 0.0
C1828 C 0.83589 0.71163 0.49213 0.0
C1829 C 0.89829 0.76198 0.48105 0.0
C1830 C 0.89296 0.74673 0.50183 0.0
C1831 C 0.85701 0.70439 0.52774 0.0
C1832 C 0.8263 0.6778 0.53287 0.0
C1833 C 0.86201 0.72116 0.50742 0.0
C1834 C 0.80032 0.66913 0.51775 0.0
C1835 C 0.80501 0.68588 0.49766 0.0
loop_
_geom_bond_atom_site_label_1
_geom_bond_atom_site_label_2
_geom_bond_distance
_geom_bond_site_symmetry_2
_ccdc_geom_bond_type
H0 C5 0.930 . S
H1 C8 0.930 . S
H2 C10 0.930 . S
H3 C4 1.016 . S
C4 H3 1.016 . S
C4 N11 1.286 . S
C5 H0 0.930 . S
C5 C6 1.397 . S
C5 C7 1.361 . S
C6 C5 1.397 . S
C6 C10 1.390 . S
C7 C5 1.361 . S
C7 C8 1.393 . S
C7 N11 1.413 . S
C8 H1 0.930 . S
C8 C7 1.393 . S
C8 C9 1.399 . S
C9 C8 1.399 . S
C9 C10 1.381 . S
C10 H2 0.930 . S
C10 C6 1.390 . S
C10 C9 1.381 . S
N11 C4 1.286 . S
N11 C7 1.413 . S
H12 C17 0.930 . S
H13 C20 0.930 . S
H14 C22 0.930 . S
H15 C16 1.016 . S
C16 H15 1.016 . S
C16 N23 1.286 . S
C17 H12 0.930 . S
C17 C18 1.397 . S
C17 C19 1.361 . S
C18 C17 1.397 . S
C18 C22 1.390 . S
C19 C17 1.361 . S
C19 C20 1.393 . S
C19 N23 1.413 . S
C20 H13 0.930 . S
C20 C19 1.393 . S
C20 C21 1.399 . S
C21 C20 1.399 . S
C21 C22 1.381 . S
C22 H14 0.930 . S
C22 C18 1.390 . S
C22 C21 1.381 . S
N23 C16 1.286 . S
N23 C19 1.413 . S
H24 C29 0.930 . S
H25 C32 0.930 . S
H26 C34 0.930 . S
H27 C28 1.016 . S
C28 H27 1.016 . S
C28 N35 1.286 . S
C29 H24 0.930 . S
C29 C30 1.397 . S
C29 C31 1.361 . S
C30 C29 1.397 . S
C30 C34 1.390 . S
C31 C29 1.361 . S
C31 C32 1.393 . S
C31 N35 1.413 . S
C32 H25 0.930 . S
C32 C31 1.393 . S
C32 C33 1.399 . S
C33 C32 1.399 . S
C33 C34 1.381 . S
C34 H26 0.930 . S
C34 C30 1.390 . S
C34 C33 1.381 . S
N35 C28 1.286 . S
N35 C31 1.413 . S
H36 C41 0.930 . S
H37 C44 0.930 . S
H38 C46 0.930 . S
H39 C40 1.016 . S
C40 H39 1.016 . S
C40 N47 1.286 . S
C41 H36 0.930 . S
C41 C42 1.397 . S
C41 C43 1.361 . S
C42 C41 1.397 . S
C42 C46 1.390 . S
C43 C41 1.361 . S
C43 C44 1.393 . S
C43 N47 1.413 . S
C44 H37 0.930 . S
C44 C43 1.393 . S
C44 C45 1.399 . S
C45 C44 1.399 . S
C45 C46 1.381 . S
C46 H38 0.930 . S
C46 C42 1.390 . S
C46 C45 1.381 . S
N47 C40 1.286 . S
N47 C43 1.413 . S
H48 C53 0.930 . S
H49 C56 0.930 . S
H50 C58 0.930 . S
H51 C52 1.016 . S
C52 H51 1.016 . S
C52 N59 1.286 . S
C53 H48 0.930 . S
C53 C54 1.397 . S
C53 C55 1.361 . S
C54 C53 1.397 . S
C54 C58 1.390 . S
C55 C53 1.361 . S
C55 C56 1.393 . S
C55 N59 1.413 . S
C56 H49 0.930 . S
C56 C55 1.393 . S
C56 C57 1.399 . S
C57 C56 1.399 . S
C57 C58 1.381 . S
C58 H50 0.930 . S
C58 C54 1.390 . S
C58 C57 1.381 . S
N59 C52 1.286 . S
N59 C55 1.413 . S
H60 C65 0.930 . S
H61 C68 0.930 . S
H62 C70 0.930 . S
H63 C64 1.016 . S
C64 H63 1.016 . S
C64 N71 1.286 . S
C65 H60 0.930 . S
C65 C66 1.397 . S
C65 C67 1.361 . S
C66 C65 1.397 . S
C66 C70 1.390 . S
C67 C65 1.361 . S
C67 C68 1.393 . S
C67 N71 1.413 . S
C68 H61 0.930 . S
C68 C67 1.393 . S
C68 C69 1.399 . S
C69 C68 1.399 . S
C69 C70 1.381 . S
C70 H62 0.930 . S
C70 C66 1.390 . S
C70 C69 1.381 . S
N71 C64 1.286 . S
N71 C67 1.413 . S
H72 C77 0.930 . S
H73 C80 0.930 . S
H74 C82 0.930 . S
H75 C76 1.016 . S
C76 H75 1.016 . S
C76 N83 1.286 . S
C77 H72 0.930 . S
C77 C78 1.397 . S
C77 C79 1.361 . S
C78 C77 1.397 . S
C78 C82 1.390 . S
C79 C77 1.361 . S
C79 C80 1.393 . S
C79 N83 1.413 . S
C80 H73 0.930 . S
C80 C79 1.393 . S
C80 C81 1.399 . S
C81 C80 1.399 . S
C81 C82 1.381 . S
C82 H74 0.930 . S
C82 C78 1.390 . S
C82 C81 1.381 . S
N83 C76 1.286 . S
N83 C79 1.413 . S
H84 C89 0.930 . S
H85 C92 0.930 . S
H86 C94 0.930 . S
H87 C88 1.016 . S
C88 H87 1.016 . S
C88 N95 1.286 . S
C89 H84 0.930 . S
C89 C90 1.397 . S
C89 C91 1.361 . S
C90 C89 1.397 . S
C90 C94 1.390 . S
C91 C89 1.361 . S
C91 C92 1.393 . S
C91 N95 1.413 . S
C92 H85 0.930 . S
C92 C91 1.393 . S
C92 C93 1.399 . S
C93 C92 1.399 . S
C93 C94 1.381 . S
C94 H86 0.930 . S
C94 C90 1.390 . S
C94 C93 1.381 . S
N95 C88 1.286 . S
N95 C91 1.413 . S
H96 C101 0.930 . S
H97 C104 0.930 . S
H98 C106 0.930 . S
H99 C100 1.016 . S
C100 H99 1.016 . S
C100 N107 1.286 . S
C101 H96 0.930 . S
C101 C102 1.397 . S
C101 C103 1.361 . S
C102 C101 1.397 . S
C102 C106 1.390 . S
C103 C101 1.361 . S
C103 C104 1.393 . S
C103 N107 1.413 . S
C104 H97 0.930 . S
C104 C103 1.393 . S
C104 C105 1.399 . S
C105 C104 1.399 . S
C105 C106 1.381 . S
C106 H98 0.930 . S
C106 C102 1.390 . S
C106 C105 1.381 . S
N107 C100 1.286 . S
N107 C103 1.413 . S
H108 C113 0.930 . S
H109 C116 0.930 . S
H110 C118 0.930 . S
H111 C112 1.016 . S
C112 H111 1.016 . S
C112 N119 1.286 . S
C113 H108 0.930 . S
C113 C114 1.397 . S
C113 C115 1.361 . S
C114 C113 1.397 . S
C114 C118 1.390 . S
C115 C113 1.361 . S
C115 C116 1.393 . S
C115 N119 1.413 . S
C116 H109 0.930 . S
C116 C115 1.393 . S
C116 C117 1.399 . S
C117 C116 1.399 . S
C117 C118 1.381 . S
C118 H110 0.930 . S
C118 C114 1.390 . S
C118 C117 1.381 . S
N119 C112 1.286 . S
N119 C115 1.413 . S
H120 C125 0.930 . S
H121 C128 0.930 . S
H122 C130 0.930 . S
H123 C124 1.016 . S
C124 H123 1.016 . S
C124 N131 1.286 . S
C125 H120 0.930 . S
C125 C126 1.397 . S
C125 C127 1.361 . S
C126 C125 1.397 . S
C126 C130 1.390 . S
C127 C125 1.361 . S
C127 C128 1.393 . S
C127 N131 1.413 . S
C128 H121 0.930 . S
C128 C127 1.393 . S
C128 C129 1.399 . S
C129 C128 1.399 . S
C129 C130 1.381 . S
C130 H122 0.930 . S
C130 C126 1.390 . S
C130 C129 1.381 . S
N131 C124 1.286 . S
N131 C127 1.413 . S
H132 C137 0.930 . S
H133 C140 0.930 . S
H134 C142 0.930 . S
H135 C136 1.016 . S
C136 H135 1.016 . S
C136 N143 1.286 . S
C137 H132 0.930 . S
C137 C138 1.397 . S
C137 C139 1.361 . S
C138 C137 1.397 . S
C138 C142 1.390 . S
C139 C137 1.361 . S
C139 C140 1.393 . S
C139 N143 1.413 . S
C140 H133 0.930 . S
C140 C139 1.393 . S
C140 C141 1.399 . S
C141 C140 1.399 . S
C141 C142 1.381 . S
C142 H134 0.930 . S
C142 C138 1.390 . S
C142 C141 1.381 . S
N143 C136 1.286 . S
N143 C139 1.413 . S
H144 C149 0.930 . S
H145 C152 0.930 . S
H146 C154 0.930 . S
H147 C148 1.016 . S
C148 H147 1.016 . S
C148 N155 1.286 . S
C149 H144 0.930 . S
C149 C150 1.397 . S
C149 C151 1.361 . S
C150 C149 1.397 . S
C150 C154 1.390 . S
C151 C149 1.361 . S
C151 C152 1.393 . S
C151 N155 1.413 . S
C152 H145 0.930 . S
C152 C151 1.393 . S
C152 C153 1.399 . S
C153 C152 1.399 . S
C153 C154 1.381 . S
C154 H146 0.930 . S
C154 C150 1.390 . S
C154 C153 1.381 . S
N155 C148 1.286 . S
N155 C151 1.413 . S
H156 C161 0.930 . S
H157 C164 0.930 . S
H158 C166 0.930 . S
H159 C160 1.016 . S
C160 H159 1.016 . S
C160 N167 1.286 . S
C161 H156 0.930 . S
C161 C162 1.397 . S
C161 C163 1.361 . S
C162 C161 1.397 . S
C162 C166 1.390 . S
C163 C161 1.361 . S
C163 C164 1.393 . S
C163 N167 1.413 . S
C164 H157 0.930 . S
C164 C163 1.393 . S
C164 C165 1.399 . S
C165 C164 1.399 . S
C165 C166 1.381 . S
C166 H158 0.930 . S
C166 C162 1.390 . S
C166 C165 1.381 . S
N167 C160 1.286 . S
N167 C163 1.413 . S
H168 C173 0.930 . S
H169 C176 0.930 . S
H170 C178 0.930 . S
H171 C172 1.016 . S
C172 H171 1.016 . S
C172 N179 1.286 . S
C173 H168 0.930 . S
C173 C174 1.397 . S
C173 C175 1.361 . S
C174 C173 1.397 . S
C174 C178 1.390 . S
C175 C173 1.361 . S
C175 C176 1.393 . S
C175 N179 1.413 . S
C176 H169 0.930 . S
C176 C175 1.393 . S
C176 C177 1.399 . S
C177 C176 1.399 . S
C177 C178 1.381 . S
C178 H170 0.930 . S
C178 C174 1.390 . S
C178 C177 1.381 . S
N179 C172 1.286 . S
N179 C175 1.413 . S
H180 C185 0.930 . S
H181 C188 0.930 . S
H182 C190 0.930 . S
H183 C184 1.016 . S
C184 H183 1.016 . S
C184 N191 1.286 . S
C185 H180 0.930 . S
C185 C186 1.397 . S
C185 C187 1.361 . S
C186 C185 1.397 . S
C186 C190 1.390 . S
C187 C185 1.361 . S
C187 C188 1.393 . S
C187 N191 1.413 . S
C188 H181 0.930 . S
C188 C187 1.393 . S
C188 C189 1.399 . S
C189 C188 1.399 . S
C189 C190 1.381 . S
C190 H182 0.930 . S
C190 C186 1.390 . S
C190 C189 1.381 . S
N191 C184 1.286 . S
N191 C187 1.413 . S
H192 C197 0.930 . S
H193 C200 0.930 . S
H194 C202 0.930 . S
H195 C196 1.016 . S
C196 H195 1.016 . S
C196 N203 1.286 . S
C197 H192 0.930 . S
C197 C198 1.397 . S
C197 C199 1.361 . S
C198 C197 1.397 . S
C198 C202 1.390 . S
C199 C197 1.361 . S
C199 C200 1.393 . S
C199 N203 1.413 . S
C200 H193 0.930 . S
C200 C199 1.393 . S
C200 C201 1.399 . S
C201 C200 1.399 . S
C201 C202 1.381 . S
C202 H194 0.930 . S
C202 C198 1.390 . S
C202 C201 1.381 . S
N203 C196 1.286 . S
N203 C199 1.413 . S
H204 C209 0.930 . S
H205 C212 0.930 . S
H206 C214 0.930 . S
H207 C208 1.016 . S
C208 H207 1.016 . S
C208 N215 1.286 . S
C209 H204 0.930 . S
C209 C210 1.397 . S
C209 C211 1.361 . S
C210 C209 1.397 . S
C210 C214 1.390 . S
C211 C209 1.361 . S
C211 C212 1.393 . S
C211 N215 1.413 . S
C212 H205 0.930 . S
C212 C211 1.393 . S
C212 C213 1.399 . S
C213 C212 1.399 . S
C213 C214 1.381 . S
C214 H206 0.930 . S
C214 C210 1.390 . S
C214 C213 1.381 . S
N215 C208 1.286 . S
N215 C211 1.413 . S
Eu216 N247 2.657 . S
Eu216 N254 2.609 . S
Eu216 O260 2.558 . S
Eu216 O261 2.612 1_566 S
Eu216 O263 2.339 1_565 S
Eu216 O264 2.563 1_565 S
Eu216 O265 2.419 1_565 S
Eu216 O267 2.380 1_556 S
Eu216 O268 2.432 . S
Eu216 C280 2.848 . S
C217 C220 1.429 . S
C217 C221 1.411 . S
C217 N224 1.377 . S
C218 C220 1.420 . S
C218 C222 1.423 . S
C218 C230 1.392 . S
C219 C221 1.420 . S
C219 C222 1.351 . S
C219 H242 0.931 . S
C220 C217 1.429 . S
C220 C218 1.420 . S
C220 N228 1.362 . S
C221 C217 1.411 . S
C221 C219 1.420 . S
C221 C226 1.395 . S
C222 C218 1.423 . S
C222 C219 1.351 . S
C222 H234 0.930 . S
C223 C225 1.400 . S
C223 C226 1.386 . S
C223 H235 0.930 . S
N224 C217 1.377 . S
N224 C225 1.321 . S
N224 Eu227 2.609 . S
C225 C223 1.400 . S
C225 N224 1.321 . S
C225 H232 0.930 . S
C226 C221 1.395 . S
C226 C223 1.386 . S
C226 H245 0.930 . S
Eu227 N224 2.609 . S
Eu227 N228 2.657 . S
Eu227 O261 2.380 . S
Eu227 O262 2.432 . S
Eu227 O266 2.558 . S
Eu227 O267 2.612 1_545 S
Eu227 O269 2.339 1_545 S
Eu227 O270 2.563 1_545 S
Eu227 O271 2.419 1_545 S
Eu227 C291 2.848 . S
N228 C220 1.362 . S
N228 Eu227 2.657 . S
N228 C229 1.334 . S
C229 N228 1.334 . S
C229 C231 1.413 . S
C229 H236 0.929 . S
C230 C218 1.392 . S
C230 C231 1.367 . S
C230 H238 0.930 . S
C231 C229 1.413 . S
C231 C230 1.367 . S
C231 H233 0.930 . S
H232 C225 0.930 . S
H233 C231 0.930 . S
H234 C222 0.930 . S
H235 C223 0.930 . S
H236 C229 0.929 . S
H237 C251 0.930 . S
H238 C230 0.930 . S
H239 C257 0.930 . S
H240 C248 0.929 . S
H241 C255 0.930 . S
H242 C219 0.931 . S
H243 C249 0.930 . S
H244 C282 0.930 . S
H245 C226 0.930 . S
H246 C281 0.931 . S
N247 Eu216 2.657 . S
N247 C248 1.334 . S
N247 C252 1.362 . S
C248 H240 0.929 . S
C248 N247 1.334 . S
C248 C251 1.413 . S
C249 H243 0.930 . S
C249 C250 1.392 . S
C249 C251 1.367 . S
C250 C249 1.392 . S
C250 C252 1.420 . S
C250 C282 1.423 . S
C251 H237 0.930 . S
C251 C248 1.413 . S
C251 C249 1.367 . S
C252 N247 1.362 . S
C252 C250 1.420 . S
C252 C256 1.429 . S
H253 C258 0.930 . S
N254 Eu216 2.609 . S
N254 C256 1.377 . S
N254 C257 1.321 . S
C255 H241 0.930 . S
C255 C257 1.400 . S
C255 C258 1.386 . S
C256 C252 1.429 . S
C256 N254 1.377 . S
C256 C259 1.411 . S
C257 H239 0.930 . S
C257 N254 1.321 . S
C257 C255 1.400 . S
C258 H253 0.930 . S
C258 C255 1.386 . S
C258 C259 1.395 . S
C259 C256 1.411 . S
C259 C258 1.395 . S
C259 C281 1.420 . S
O260 Eu216 2.558 . S
O260 C280 1.257 . S
O261 Eu216 2.612 1_544 S
O261 Eu227 2.380 . S
O261 C272 1.276 1_554 S
O262 Eu227 2.432 . S
O262 C279 1.285 . S
O263 Eu216 2.339 1_545 S
O263 C279 1.240 1_556 S
O264 Eu216 2.563 1_545 S
O264 C272 1.235 . S
O265 Eu216 2.419 1_545 S
O265 C280 1.249 1_545 S
O266 Eu227 2.558 . S
O266 C291 1.257 . S
O267 Eu216 2.380 1_554 S
O267 Eu227 2.612 1_565 S
O267 C283 1.276 . S
O268 Eu216 2.432 . S
O268 C290 1.264 1_556 S
O269 Eu227 2.339 1_565 S
O269 C290 1.254 . S
O270 Eu227 2.563 1_565 S
O270 C283 1.235 . S
O271 Eu227 2.419 1_565 S
O271 C291 1.249 1_565 S
C272 O261 1.276 1_556 S
C272 O264 1.235 . S
C273 C275 1.393 . S
C273 C277 1.395 1_545 S
C273 C280 1.492 1_545 S
C274 C275 1.392 . S
C274 C276 1.386 . S
C275 C273 1.393 . S
C275 C274 1.392 . S
C275 H292 0.930 . S
C276 C274 1.386 . S
C276 C278 1.395 1_545 S
C276 H293 0.930 . S
C277 C273 1.395 1_565 S
C277 C278 1.379 . S
C277 H294 0.930 . S
C278 C276 1.395 1_565 S
C278 C277 1.379 . S
C278 H295 0.930 . S
C279 O262 1.285 . S
C279 O263 1.240 1_554 S
C280 Eu216 2.848 . S
C280 O260 1.257 . S
C280 O265 1.249 1_565 S
C280 C273 1.492 1_565 S
C281 H246 0.931 . S
C281 C259 1.420 . S
C281 C282 1.351 . S
C282 H244 0.930 . S
C282 C250 1.423 . S
C282 C281 1.351 . S
C283 O267 1.276 . S
C283 O270 1.235 . S
C284 C285 1.390 . S
C284 C288 1.397 1_565 S
C284 C291 1.492 1_565 S
C285 C284 1.390 . S
C285 C286 1.392 . S
C285 H296 0.930 . S
C286 C285 1.392 . S
C286 C287 1.386 . S
C287 C286 1.386 . S
C287 C289 1.395 1_565 S
C287 H297 0.930 . S
C288 C284 1.397 1_545 S
C288 C289 1.379 . S
C288 H298 0.930 . S
C289 C287 1.395 1_545 S
C289 C288 1.379 . S
C289 H299 0.930 . S
C290 O268 1.264 1_554 S
C290 O269 1.254 . S
C291 Eu227 2.848 . S
C291 O266 1.257 . S
C291 O271 1.249 1_545 S
C291 C284 1.492 1_545 S
H292 C275 0.930 . S
H293 C276 0.930 . S
H294 C277 0.930 . S
H295 C278 0.930 . S
H296 C285 0.930 . S
H297 C287 0.930 . S
H298 C288 0.930 . S
H299 C289 0.930 . S
Eu300 N331 2.657 . S
Eu300 N338 2.609 . S
Eu300 O344 2.558 . S
Eu300 O345 2.612 1_456 S
Eu300 O347 2.339 1_455 S
Eu300 O348 2.563 1_455 S
Eu300 O349 2.413 1_455 S
Eu300 O351 2.380 1_556 S
Eu300 O352 2.432 . S
Eu300 C364 2.848 . S
C301 C304 1.429 . S
C301 C305 1.411 . S
C301 N308 1.377 . S
C302 C304 1.420 . S
C302 C306 1.423 . S
C302 C314 1.392 . S
C303 C305 1.420 . S
C303 C306 1.351 . S
C303 H326 0.931 . S
C304 C301 1.429 . S
C304 C302 1.420 . S
C304 N312 1.362 . S
C305 C301 1.411 . S
C305 C303 1.420 . S
C305 C310 1.395 . S
C306 C302 1.423 . S
C306 C303 1.351 . S
C306 H318 0.930 . S
C307 C309 1.400 . S
C307 C310 1.386 . S
C307 H319 0.930 . S
N308 C301 1.377 . S
N308 C309 1.321 . S
N308 Eu311 2.609 . S
C309 C307 1.400 . S
C309 N308 1.321 . S
C309 H316 0.930 . S
C310 C305 1.395 . S
C310 C307 1.386 . S
C310 H329 0.930 . S
Eu311 N308 2.609 . S
Eu311 N312 2.657 . S
Eu311 O345 2.380 . S
Eu311 O346 2.432 . S
Eu311 O350 2.558 . S
Eu311 O351 2.612 1_655 S
Eu311 O353 2.339 1_655 S
Eu311 O354 2.563 1_655 S
Eu311 O355 2.419 1_655 S
Eu311 C375 2.848 . S
N312 C304 1.362 . S
N312 Eu311 2.657 . S
N312 C313 1.334 . S
C313 N312 1.334 . S
C313 C315 1.413 . S
C313 H320 0.929 . S
C314 C302 1.392 . S
C314 C315 1.367 . S
C314 H322 0.930 . S
C315 C313 1.413 . S
C315 C314 1.367 . S
C315 H317 0.930 . S
H316 C309 0.930 . S
H317 C315 0.930 . S
H318 C306 0.930 . S
H319 C307 0.930 . S
H320 C313 0.929 . S
H321 C335 0.930 . S
H322 C314 0.930 . S
H323 C341 0.930 . S
H324 C332 0.929 . S
H325 C339 0.930 . S
H326 C303 0.931 . S
H327 C333 0.930 . S
H328 C366 0.930 . S
H329 C310 0.930 . S
H330 C365 0.931 . S
N331 Eu300 2.657 . S
N331 C332 1.334 . S
N331 C336 1.362 . S
C332 H324 0.929 . S
C332 N331 1.334 . S
C332 C335 1.413 . S
C333 H327 0.930 . S
C333 C334 1.392 . S
C333 C335 1.367 . S
C334 C333 1.392 . S
C334 C336 1.420 . S
C334 C366 1.423 . S
C335 H321 0.930 . S
C335 C332 1.413 . S
C335 C333 1.367 . S
C336 N331 1.362 . S
C336 C334 1.420 . S
C336 C340 1.429 . S
H337 C342 0.930 . S
N338 Eu300 2.609 . S
N338 C340 1.377 . S
N338 C341 1.321 . S
C339 H325 0.930 . S
C339 C341 1.400 . S
C339 C342 1.386 . S
C340 C336 1.429 . S
C340 N338 1.377 . S
C340 C343 1.411 . S
C341 H323 0.930 . S
C341 N338 1.321 . S
C341 C339 1.400 . S
C342 H337 0.930 . S
C342 C339 1.386 . S
C342 C343 1.395 . S
C343 C340 1.411 . S
C343 C342 1.395 . S
C343 C365 1.420 . S
O344 Eu300 2.558 . S
O344 C364 1.257 . S
O345 Eu300 2.612 1_654 S
O345 Eu311 2.380 . S
O345 C356 1.276 1_554 S
O346 Eu311 2.432 . S
O346 C363 1.230 1_554 S
O347 Eu300 2.339 1_655 S
O347 C363 1.277 . S
O348 Eu300 2.563 1_655 S
O348 C356 1.235 . S
O349 Eu300 2.413 1_655 S
O349 C364 1.251 1_655 S
O350 Eu311 2.558 . S
O350 C375 1.257 . S
O351 Eu300 2.380 1_554 S
O351 Eu311 2.612 1_455 S
O351 C367 1.276 . S
O352 Eu300 2.432 . S
O352 C374 1.264 1_556 S
O353 Eu311 2.339 1_455 S
O353 C374 1.254 . S
O354 Eu311 2.563 1_455 S
O354 C367 1.235 . S
O355 Eu311 2.419 1_455 S
O355 C375 1.249 1_455 S
C356 O345 1.276 1_556 S
C356 O348 1.235 . S
C357 C359 1.393 1_455 S
C357 C361 1.395 . S
C357 C364 1.492 . S
C358 C359 1.392 . S
C358 C360 1.386 . S
C359 C357 1.393 1_655 S
C359 C358 1.392 . S
C359 H376 0.930 . S
C360 C358 1.386 . S
C360 C362 1.395 1_655 S
C360 H377 0.930 . S
C361 C357 1.395 . S
C361 C362 1.379 . S
C361 H378 0.930 . S
C362 C360 1.395 1_455 S
C362 C361 1.379 . S
C362 H379 0.930 . S
C363 O346 1.230 1_556 S
C363 O347 1.277 . S
C364 Eu300 2.848 . S
C364 O344 1.257 . S
C364 O349 1.251 1_455 S
C364 C357 1.492 . S
C365 H330 0.931 . S
C365 C343 1.420 . S
C365 C366 1.351 . S
C366 H328 0.930 . S
C366 C334 1.423 . S
C366 C365 1.351 . S
C367 O351 1.276 . S
C367 O354 1.235 . S
C368 C369 1.393 . S
C368 C372 1.395 1_455 S
C368 C375 1.492 1_455 S
C369 C368 1.393 . S
C369 C370 1.392 . S
C369 H380 0.930 . S
C370 C369 1.392 . S
C370 C371 1.386 . S
C371 C370 1.386 . S
C371 C373 1.395 1_455 S
C371 H381 0.930 . S
C372 C368 1.395 1_655 S
C372 C373 1.379 . S
C372 H382 0.930 . S
C373 C371 1.395 1_655 S
C373 C372 1.379 . S
C373 H383 0.930 . S
C374 O352 1.264 1_554 S
C374 O353 1.254 . S
C375 Eu311 2.848 . S
C375 O350 1.257 . S
C375 O355 1.249 1_655 S
C375 C368 1.492 1_655 S
H376 C359 0.930 . S
H377 C360 0.930 . S
H378 C361 0.930 . S
H379 C362 0.930 . S
H380 C369 0.930 . S
H381 C371 0.930 . S
H382 C372 0.930 . S
H383 C373 0.930 . S
Eu384 N415 2.657 . S
Eu384 N422 2.609 . S
Eu384 O428 2.558 . S
Eu384 O429 2.612 . S
Eu384 O431 2.339 . S
Eu384 O432 2.563 . S
Eu384 O433 2.419 . S
Eu384 O435 2.380 . S
Eu384 O436 2.432 . S
Eu384 C448 2.848 . S
C385 C388 1.429 . S
C385 C389 1.411 . S
C385 N392 1.377 . S
C386 C388 1.420 . S
C386 C390 1.423 . S
C386 C398 1.392 . S
C387 C389 1.420 . S
C387 C390 1.351 . S
C387 H410 0.931 . S
C388 C385 1.429 . S
C388 C386 1.420 . S
C388 N396 1.362 . S
C389 C385 1.411 . S
C389 C387 1.420 . S
C389 C394 1.395 . S
C390 C386 1.423 . S
C390 C387 1.351 . S
C390 H402 0.930 . S
C391 C393 1.400 . S
C391 C394 1.386 . S
C391 H403 0.930 . S
N392 C385 1.377 . S
N392 C393 1.321 . S
N392 Eu395 2.609 . S
C393 C391 1.400 . S
C393 N392 1.321 . S
C393 H400 0.930 . S
C394 C389 1.395 . S
C394 C391 1.386 . S
C394 H413 0.930 . S
Eu395 N392 2.609 . S
Eu395 N396 2.657 . S
Eu395 O429 2.380 1_556 S
Eu395 O430 2.451 . S
Eu395 O434 2.558 . S
Eu395 O435 2.612 1_556 S
Eu395 O437 2.339 . S
Eu395 O438 2.563 . S
Eu395 O439 2.419 . S
Eu395 C459 2.848 . S
N396 C388 1.362 . S
N396 Eu395 2.657 . S
N396 C397 1.334 . S
C397 N396 1.334 . S
C397 C399 1.413 . S
C397 H404 0.929 . S
C398 C386 1.392 . S
C398 C399 1.367 . S
C398 H406 0.930 . S
C399 C397 1.413 . S
C399 C398 1.367 . S
C399 H401 0.930 . S
H400 C393 0.930 . S
H401 C399 0.930 . S
H402 C390 0.930 . S
H403 C391 0.930 . S
H404 C397 0.929 . S
H405 C419 0.930 . S
H406 C398 0.930 . S
H407 C425 0.930 . S
H408 C416 0.929 . S
H409 C423 0.930 . S
H410 C387 0.931 . S
H411 C417 0.930 . S
H412 C450 0.930 . S
H413 C394 0.930 . S
H414 C449 0.931 . S
N415 Eu384 2.657 . S
N415 C416 1.334 . S
N415 C420 1.362 . S
C416 H408 0.929 . S
C416 N415 1.334 . S
C416 C419 1.413 . S
C417 H411 0.930 . S
C417 C418 1.392 . S
C417 C419 1.367 . S
C418 C417 1.392 . S
C418 C420 1.420 . S
C418 C450 1.423 . S
C419 H405 0.930 . S
C419 C416 1.413 . S
C419 C417 1.367 . S
C420 N415 1.362 . S
C420 C418 1.420 . S
C420 C424 1.429 . S
H421 C426 0.930 . S
N422 Eu384 2.609 . S
N422 C424 1.377 . S
N422 C425 1.321 . S
C423 H409 0.930 . S
C423 C425 1.400 . S
C423 C426 1.386 . S
C424 C420 1.429 . S
C424 N422 1.377 . S
C424 C427 1.411 . S
C425 H407 0.930 . S
C425 N422 1.321 . S
C425 C423 1.400 . S
C426 H421 0.930 . S
C426 C423 1.386 . S
C426 C427 1.395 . S
C427 C424 1.411 . S
C427 C426 1.395 . S
C427 C449 1.420 . S
O428 Eu384 2.558 . S
O428 C448 1.257 . S
O429 Eu384 2.612 . S
O429 Eu395 2.380 1_554 S
O429 C440 1.276 . S
O430 Eu395 2.451 . S
O430 C447 1.228 1_556 S
O431 Eu384 2.339 . S
O431 C447 1.254 . S
O432 Eu384 2.563 . S
O432 C440 1.235 . S
O433 Eu384 2.419 . S
O433 C448 1.249 . S
O434 Eu395 2.558 . S
O434 C459 1.257 . S
O435 Eu384 2.380 . S
O435 Eu395 2.612 1_554 S
O435 C451 1.276 1_554 S
O436 Eu384 2.432 . S
O436 C458 1.315 . S
O437 Eu395 2.339 . S
O437 C458 1.220 1_556 S
O438 Eu395 2.563 . S
O438 C451 1.235 . S
O439 Eu395 2.419 . S
O439 C459 1.249 . S
C440 O429 1.276 . S
C440 O432 1.235 . S
C441 C443 1.393 . S
C441 C445 1.395 . S
C441 C448 1.492 . S
C442 C443 1.392 . S
C442 C444 1.386 . S
C443 C441 1.393 . S
C443 C442 1.392 . S
C443 H460 0.930 . S
C444 C442 1.386 . S
C444 C446 1.395 . S
C444 H461 0.930 . S
C445 C441 1.395 . S
C445 C446 1.379 . S
C445 H462 0.930 . S
C446 C444 1.395 . S
C446 C445 1.379 . S
C446 H463 0.930 . S
C447 O430 1.228 1_554 S
C447 O431 1.254 . S
C448 Eu384 2.848 . S
C448 O428 1.257 . S
C448 O433 1.249 . S
C448 C441 1.492 . S
C449 H414 0.931 . S
C449 C427 1.420 . S
C449 C450 1.351 . S
C450 H412 0.930 . S
C450 C418 1.423 . S
C450 C449 1.351 . S
C451 O435 1.276 1_556 S
C451 O438 1.235 . S
C452 C453 1.393 . S
C452 C456 1.395 . S
C452 C459 1.492 . S
C453 C452 1.393 . S
C453 C454 1.392 . S
C453 H464 0.930 . S
C454 C453 1.392 . S
C454 C455 1.386 . S
C455 C454 1.386 . S
C455 C457 1.395 . S
C455 H465 0.930 . S
C456 C452 1.395 . S
C456 C457 1.379 . S
C456 H466 0.930 . S
C457 C455 1.395 . S
C457 C456 1.379 . S
C457 H467 0.930 . S
C458 O436 1.315 . S
C458 O437 1.220 1_554 S
C459 Eu395 2.848 . S
C459 O434 1.257 . S
C459 O439 1.249 . S
C459 C452 1.492 . S
H460 C443 0.930 . S
H461 C444 0.930 . S
H462 C445 0.930 . S
H463 C446 0.930 . S
H464 C453 0.930 . S
H465 C455 0.930 . S
H466 C456 0.930 . S
H467 C457 0.930 . S
Eu468 N499 2.657 . S
Eu468 N506 2.609 . S
Eu468 O512 2.558 . S
Eu468 O513 2.612 . S
Eu468 O515 2.339 . S
Eu468 O516 2.563 . S
Eu468 O517 2.419 . S
Eu468 O519 2.380 . S
Eu468 O520 2.432 . S
Eu468 C532 2.848 . S
C469 C472 1.429 . S
C469 C473 1.411 . S
C469 N476 1.377 . S
C470 C472 1.420 . S
C470 C474 1.423 . S
C470 C482 1.392 . S
C471 C473 1.420 . S
C471 C474 1.351 . S
C471 H494 0.931 . S
C472 C469 1.429 . S
C472 C470 1.420 . S
C472 N480 1.362 . S
C473 C469 1.411 . S
C473 C471 1.420 . S
C473 C478 1.395 . S
C474 C470 1.423 . S
C474 C471 1.351 . S
C474 H486 0.930 . S
C475 C477 1.400 . S
C475 C478 1.386 . S
C475 H487 0.930 . S
N476 C469 1.377 . S
N476 C477 1.321 . S
N476 Eu479 2.609 . S
C477 C475 1.400 . S
C477 N476 1.321 . S
C477 H484 0.930 . S
C478 C473 1.395 . S
C478 C475 1.386 . S
C478 H497 0.930 . S
Eu479 N476 2.609 . S
Eu479 N480 2.657 . S
Eu479 O513 2.380 . S
Eu479 O514 2.432 . S
Eu479 O518 2.558 . S
Eu479 O519 2.612 . S
Eu479 O521 2.339 . S
Eu479 O522 2.563 . S
Eu479 O523 2.419 . S
Eu479 C543 2.848 . S
N480 C472 1.362 . S
N480 Eu479 2.657 . S
N480 C481 1.334 . S
C481 N480 1.334 . S
C481 C483 1.413 . S
C481 H488 0.929 . S
C482 C470 1.392 . S
C482 C483 1.367 . S
C482 H490 0.930 . S
C483 C481 1.413 . S
C483 C482 1.367 . S
C483 H485 0.930 . S
H484 C477 0.930 . S
H485 C483 0.930 . S
H486 C474 0.930 . S
H487 C475 0.930 . S
H488 C481 0.929 . S
H489 C503 0.930 . S
H490 C482 0.930 . S
H491 C509 0.930 . S
H492 C500 0.929 . S
H493 C507 0.930 . S
H494 C471 0.931 . S
H495 C501 0.930 . S
H496 C534 0.930 . S
H497 C478 0.930 . S
H498 C533 0.931 . S
N499 Eu468 2.657 . S
N499 C500 1.334 . S
N499 C504 1.362 . S
C500 H492 0.929 . S
C500 N499 1.334 . S
C500 C503 1.413 . S
C501 H495 0.930 . S
C501 C502 1.392 1_655 S
C501 C503 1.367 1_655 S
C502 C501 1.392 1_455 S
C502 C504 1.420 . S
C502 C534 1.423 1_455 S
C503 H489 0.930 . S
C503 C500 1.413 . S
C503 C501 1.367 1_455 S
C504 N499 1.362 . S
C504 C502 1.420 . S
C504 C508 1.429 . S
H505 C510 0.930 . S
N506 Eu468 2.609 . S
N506 C508 1.377 . S
N506 C509 1.321 . S
C507 H493 0.930 . S
C507 C509 1.400 . S
C507 C510 1.386 . S
C508 C504 1.429 . S
C508 N506 1.377 . S
C508 C511 1.411 . S
C509 H491 0.930 . S
C509 N506 1.321 . S
C509 C507 1.400 . S
C510 H505 0.930 . S
C510 C507 1.386 . S
C510 C511 1.395 . S
C511 C508 1.411 . S
C511 C510 1.395 . S
C511 C533 1.420 . S
O512 Eu468 2.558 . S
O512 C532 1.257 . S
O513 Eu468 2.612 . S
O513 Eu479 2.380 . S
O513 C524 1.276 . S
O514 Eu479 2.432 . S
O514 C531 1.264 . S
O515 Eu468 2.339 . S
O515 C531 1.254 . S
O516 Eu468 2.563 . S
O516 C524 1.235 . S
O517 Eu468 2.419 . S
O517 C532 1.249 . S
O518 Eu479 2.558 . S
O518 C543 1.257 . S
O519 Eu468 2.380 . S
O519 Eu479 2.612 . S
O519 C535 1.276 . S
O520 Eu468 2.432 . S
O520 C542 1.264 . S
O521 Eu479 2.339 . S
O521 C542 1.254 . S
O522 Eu479 2.563 . S
O522 C535 1.235 . S
O523 Eu479 2.419 . S
O523 C543 1.249 . S
C524 O513 1.276 . S
C524 O516 1.235 . S
C525 C527 1.393 . S
C525 C529 1.395 . S
C525 C532 1.492 . S
C526 C527 1.392 . S
C526 C528 1.386 . S
C527 C525 1.393 . S
C527 C526 1.392 . S
C527 H544 0.930 . S
C528 C526 1.386 . S
C528 C530 1.395 . S
C528 H545 0.930 . S
C529 C525 1.395 . S
C529 C530 1.379 . S
C529 H546 0.930 . S
C530 C528 1.395 . S
C530 C529 1.379 . S
C530 H547 0.930 . S
C531 O514 1.264 . S
C531 O515 1.254 . S
C532 Eu468 2.848 . S
C532 O512 1.257 . S
C532 O517 1.249 . S
C532 C525 1.492 . S
C533 H498 0.931 . S
C533 C511 1.420 . S
C533 C534 1.351 1_455 S
C534 H496 0.930 . S
C534 C502 1.423 1_655 S
C534 C533 1.351 1_655 S
C535 O519 1.276 . S
C535 O522 1.235 . S
C536 C537 1.393 . S
C536 C540 1.395 . S
C536 C543 1.492 . S
C537 C536 1.393 . S
C537 C538 1.392 . S
C537 H548 0.930 . S
C538 C537 1.392 . S
C538 C539 1.386 . S
C539 C538 1.386 . S
C539 C541 1.395 . S
C539 H549 0.930 . S
C540 C536 1.395 . S
C540 C541 1.379 . S
C540 H550 0.930 . S
C541 C539 1.395 . S
C541 C540 1.379 . S
C541 H551 0.930 . S
C542 O520 1.264 . S
C542 O521 1.254 . S
C543 Eu479 2.848 . S
C543 O518 1.257 . S
C543 O523 1.249 . S
C543 C536 1.492 . S
H544 C527 0.930 . S
H545 C528 0.930 . S
H546 C529 0.930 . S
H547 C530 0.930 . S
H548 C537 0.930 . S
H549 C539 0.930 . S
H550 C540 0.930 . S
H551 C541 0.930 . S
Eu552 N583 2.657 . S
Eu552 N590 2.609 . S
Eu552 O596 2.558 . S
Eu552 O597 2.612 . S
Eu552 O599 2.339 . S
Eu552 O600 2.563 . S
Eu552 O601 2.419 . S
Eu552 O603 2.380 . S
Eu552 O604 2.432 . S
Eu552 C616 2.848 . S
C553 C556 1.429 . S
C553 C557 1.411 . S
C553 N560 1.377 . S
C554 C556 1.420 . S
C554 C558 1.423 . S
C554 C566 1.392 . S
C555 C557 1.420 . S
C555 C558 1.351 . S
C555 H578 0.931 . S
C556 C553 1.429 . S
C556 C554 1.420 . S
C556 N564 1.362 . S
C557 C553 1.411 . S
C557 C555 1.420 . S
C557 C562 1.395 . S
C558 C554 1.423 . S
C558 C555 1.351 . S
C558 H570 0.930 . S
C559 C561 1.400 . S
C559 C562 1.386 . S
C559 H571 0.930 . S
N560 C553 1.377 . S
N560 C561 1.321 . S
N560 Eu563 2.609 . S
C561 C559 1.400 . S
C561 N560 1.321 . S
C561 H568 0.930 . S
C562 C557 1.395 . S
C562 C559 1.386 . S
C562 H581 0.930 . S
Eu563 N560 2.609 . S
Eu563 N564 2.657 . S
Eu563 O597 2.380 . S
Eu563 O598 2.432 . S
Eu563 O602 2.558 . S
Eu563 O603 2.612 . S
Eu563 O605 2.339 . S
Eu563 O606 2.563 . S
Eu563 O607 2.419 . S
Eu563 C627 2.848 . S
N564 C556 1.362 . S
N564 Eu563 2.657 . S
N564 C565 1.334 . S
C565 N564 1.334 . S
C565 C567 1.413 . S
C565 H572 0.929 . S
C566 C554 1.392 . S
C566 C567 1.367 . S
C566 H574 0.930 . S
C567 C565 1.413 . S
C567 C566 1.367 . S
C567 H569 0.930 . S
H568 C561 0.930 . S
H569 C567 0.930 . S
H570 C558 0.930 . S
H571 C559 0.930 . S
H572 C565 0.929 . S
H573 C587 0.930 . S
H574 C566 0.930 . S
H575 C593 0.930 . S
H576 C584 0.929 . S
H577 C591 0.930 . S
H578 C555 0.931 . S
H579 C585 0.930 . S
H580 C618 0.930 . S
H581 C562 0.930 . S
H582 C617 0.931 . S
N583 Eu552 2.657 . S
N583 C584 1.334 . S
N583 C588 1.362 . S
C584 H576 0.929 . S
C584 N583 1.334 . S
C584 C587 1.413 . S
C585 H579 0.930 . S
C585 C586 1.392 . S
C585 C587 1.367 . S
C586 C585 1.392 . S
C586 C588 1.420 . S
C586 C618 1.423 . S
C587 H573 0.930 . S
C587 C584 1.413 . S
C587 C585 1.367 . S
C588 N583 1.362 . S
C588 C586 1.420 . S
C588 C592 1.429 . S
H589 C594 0.930 . S
N590 Eu552 2.609 . S
N590 C592 1.377 . S
N590 C593 1.321 . S
C591 H577 0.930 . S
C591 C593 1.400 . S
C591 C594 1.386 . S
C592 C588 1.429 . S
C592 N590 1.377 . S
C592 C595 1.411 . S
C593 H575 0.930 . S
C593 N590 1.321 . S
C593 C591 1.400 . S
C594 H589 0.930 . S
C594 C591 1.386 . S
C594 C595 1.395 . S
C595 C592 1.411 . S
C595 C594 1.395 . S
C595 C617 1.420 . S
O596 Eu552 2.558 . S
O596 C616 1.257 . S
O597 Eu552 2.612 . S
O597 Eu563 2.380 . S
O597 C608 1.276 . S
O598 Eu563 2.432 . S
O598 C615 1.264 . S
O599 Eu552 2.339 . S
O599 C615 1.254 . S
O600 Eu552 2.563 . S
O600 C608 1.235 . S
O601 Eu552 2.419 . S
O601 C616 1.249 . S
O602 Eu563 2.558 . S
O602 C627 1.257 . S
O603 Eu552 2.380 . S
O603 Eu563 2.612 . S
O603 C619 1.276 . S
O604 Eu552 2.432 . S
O604 C626 1.264 . S
O605 Eu563 2.339 . S
O605 C626 1.254 . S
O606 Eu563 2.563 . S
O606 C619 1.235 . S
O607 Eu563 2.419 . S
O607 C627 1.249 . S
C608 O597 1.276 . S
C608 O600 1.235 . S
C609 C611 1.393 . S
C609 C613 1.395 . S
C609 C616 1.492 . S
C610 C611 1.392 . S
C610 C612 1.386 . S
C611 C609 1.393 . S
C611 C610 1.392 . S
C611 H628 0.930 . S
C612 C610 1.386 . S
C612 C614 1.395 . S
C612 H629 0.930 . S
C613 C609 1.395 . S
C613 C614 1.379 . S
C613 H630 0.930 . S
C614 C612 1.395 . S
C614 C613 1.379 . S
C614 H631 0.930 . S
C615 O598 1.264 . S
C615 O599 1.254 . S
C616 Eu552 2.848 . S
C616 O596 1.257 . S
C616 O601 1.249 . S
C616 C609 1.492 . S
C617 H582 0.931 . S
C617 C595 1.420 . S
C617 C618 1.351 . S
C618 H580 0.930 . S
C618 C586 1.423 . S
C618 C617 1.351 . S
C619 O603 1.276 . S
C619 O606 1.235 . S
C620 C621 1.393 . S
C620 C624 1.395 . S
C620 C627 1.492 . S
C621 C620 1.393 . S
C621 C622 1.392 . S
C621 H632 0.930 . S
C622 C621 1.392 . S
C622 C623 1.386 . S
C623 C622 1.386 . S
C623 C625 1.395 . S
C623 H633 0.930 . S
C624 C620 1.395 . S
C624 C625 1.379 . S
C624 H634 0.930 . S
C625 C623 1.395 . S
C625 C624 1.379 . S
C625 H635 0.930 . S
C626 O604 1.264 . S
C626 O605 1.254 . S
C627 Eu563 2.848 . S
C627 O602 1.257 . S
C627 O607 1.249 . S
C627 C620 1.492 . S
H628 C611 0.930 . S
H629 C612 0.930 . S
H630 C613 0.930 . S
H631 C614 0.930 . S
H632 C621 0.930 . S
H633 C623 0.930 . S
H634 C624 0.930 . S
H635 C625 0.930 . S
Eu636 N667 2.657 . S
Eu636 N674 2.609 . S
Eu636 O680 2.558 . S
Eu636 O681 2.612 . S
Eu636 O683 2.339 . S
Eu636 O684 2.563 . S
Eu636 O685 2.419 . S
Eu636 O687 2.380 . S
Eu636 O688 2.432 . S
Eu636 C700 2.848 . S
C637 C640 1.429 . S
C637 C641 1.411 . S
C637 N644 1.377 . S
C638 C640 1.420 . S
C638 C642 1.423 . S
C638 C650 1.392 . S
C639 C641 1.420 . S
C639 C642 1.351 . S
C639 H662 0.931 . S
C640 C637 1.429 . S
C640 C638 1.420 . S
C640 N648 1.362 . S
C641 C637 1.411 . S
C641 C639 1.420 . S
C641 C646 1.395 . S
C642 C638 1.423 . S
C642 C639 1.351 . S
C642 H654 0.930 . S
C643 C645 1.400 . S
C643 C646 1.386 . S
C643 H655 0.930 . S
N644 C637 1.377 . S
N644 C645 1.321 . S
N644 Eu647 2.609 . S
C645 C643 1.400 . S
C645 N644 1.321 . S
C645 H652 0.930 . S
C646 C641 1.395 . S
C646 C643 1.386 . S
C646 H665 0.930 . S
Eu647 N644 2.609 . S
Eu647 N648 2.657 . S
Eu647 O681 2.380 . S
Eu647 O682 2.432 . S
Eu647 O686 2.558 . S
Eu647 O687 2.612 . S
Eu647 O689 2.339 . S
Eu647 O690 2.563 . S
Eu647 O691 2.419 . S
Eu647 C711 2.848 . S
N648 C640 1.362 . S
N648 Eu647 2.657 . S
N648 C649 1.334 . S
C649 N648 1.334 . S
C649 C651 1.413 . S
C649 H656 0.929 . S
C650 C638 1.392 . S
C650 C651 1.367 . S
C650 H658 0.930 . S
C651 C649 1.413 . S
C651 C650 1.367 . S
C651 H653 0.930 . S
H652 C645 0.930 . S
H653 C651 0.930 . S
H654 C642 0.930 . S
H655 C643 0.930 . S
H656 C649 0.929 . S
H657 C671 0.930 . S
H658 C650 0.930 . S
H659 C677 0.930 . S
H660 C668 0.929 . S
H661 C675 0.930 . S
H662 C639 0.931 . S
H663 C669 0.930 . S
H664 C702 0.930 . S
H665 C646 0.930 . S
H666 C701 0.931 . S
N667 Eu636 2.657 . S
N667 C668 1.334 . S
N667 C672 1.362 . S
C668 H660 0.929 . S
C668 N667 1.334 . S
C668 C671 1.413 . S
C669 H663 0.930 . S
C669 C670 1.392 . S
C669 C671 1.367 . S
C670 C669 1.392 . S
C670 C672 1.420 . S
C670 C702 1.423 . S
C671 H657 0.930 . S
C671 C668 1.413 . S
C671 C669 1.367 . S
C672 N667 1.362 . S
C672 C670 1.420 . S
C672 C676 1.429 . S
H673 C678 0.930 . S
N674 Eu636 2.609 . S
N674 C676 1.377 . S
N674 C677 1.321 . S
C675 H661 0.930 . S
C675 C677 1.400 . S
C675 C678 1.386 . S
C676 C672 1.429 . S
C676 N674 1.377 . S
C676 C679 1.411 . S
C677 H659 0.930 . S
C677 N674 1.321 . S
C677 C675 1.400 . S
C678 H673 0.930 . S
C678 C675 1.386 . S
C678 C679 1.395 . S
C679 C676 1.411 . S
C679 C678 1.395 . S
C679 C701 1.420 . S
O680 Eu636 2.558 . S
O680 C700 1.257 . S
O681 Eu636 2.612 . S
O681 Eu647 2.380 . S
O681 C692 1.276 . S
O682 Eu647 2.432 . S
O682 C699 1.264 . S
O683 Eu636 2.339 . S
O683 C699 1.254 . S
O684 Eu636 2.563 . S
O684 C692 1.235 . S
O685 Eu636 2.419 . S
O685 C700 1.249 . S
O686 Eu647 2.558 . S
O686 C711 1.257 . S
O687 Eu636 2.380 . S
O687 Eu647 2.612 . S
O687 C703 1.276 . S
O688 Eu636 2.432 . S
O688 C710 1.264 . S
O689 Eu647 2.339 . S
O689 C710 1.254 . S
O690 Eu647 2.563 . S
O690 C703 1.235 . S
O691 Eu647 2.419 . S
O691 C711 1.249 . S
C692 O681 1.276 . S
C692 O684 1.235 . S
C693 C695 1.393 . S
C693 C697 1.395 . S
C693 C700 1.492 . S
C694 C695 1.392 . S
C694 C696 1.386 . S
C695 C693 1.393 . S
C695 C694 1.392 . S
C695 H712 0.930 . S
C696 C694 1.386 . S
C696 C698 1.395 . S
C696 H713 0.930 . S
C697 C693 1.395 . S
C697 C698 1.379 . S
C697 H714 0.930 . S
C698 C696 1.395 . S
C698 C697 1.379 . S
C698 H715 0.930 . S
C699 O682 1.264 . S
C699 O683 1.254 . S
C700 Eu636 2.848 . S
C700 O680 1.257 . S
C700 O685 1.249 . S
C700 C693 1.492 . S
C701 H666 0.931 . S
C701 C679 1.420 . S
C701 C702 1.351 . S
C702 H664 0.930 . S
C702 C670 1.423 . S
C702 C701 1.351 . S
C703 O687 1.276 . S
C703 O690 1.235 . S
C704 C705 1.393 . S
C704 C708 1.395 . S
C704 C711 1.492 . S
C705 C704 1.393 . S
C705 C706 1.392 . S
C705 H716 0.930 . S
C706 C705 1.392 . S
C706 C707 1.386 . S
C707 C706 1.386 . S
C707 C709 1.395 . S
C707 H717 0.930 . S
C708 C704 1.395 . S
C708 C709 1.379 . S
C708 H718 0.930 . S
C709 C707 1.395 . S
C709 C708 1.379 . S
C709 H719 0.930 . S
C710 O688 1.264 . S
C710 O689 1.254 . S
C711 Eu647 2.848 . S
C711 O686 1.257 . S
C711 O691 1.249 . S
C711 C704 1.492 . S
H712 C695 0.930 . S
H713 C696 0.930 . S
H714 C697 0.930 . S
H715 C698 0.930 . S
H716 C705 0.930 . S
H717 C707 0.930 . S
H718 C708 0.930 . S
H719 C709 0.930 . S
Eu720 N751 2.657 . S
Eu720 N758 2.609 . S
Eu720 O764 2.558 . S
Eu720 O765 2.612 . S
Eu720 O767 2.339 . S
Eu720 O768 2.563 . S
Eu720 O769 2.419 . S
Eu720 O771 2.380 . S
Eu720 O772 2.432 . S
Eu720 C784 2.848 . S
C721 C724 1.429 . S
C721 C725 1.411 . S
C721 N728 1.377 . S
C722 C724 1.420 . S
C722 C726 1.423 . S
C722 C734 1.392 . S
C723 C725 1.420 . S
C723 C726 1.351 . S
C723 H746 0.931 . S
C724 C721 1.429 . S
C724 C722 1.420 . S
C724 N732 1.362 . S
C725 C721 1.411 . S
C725 C723 1.420 . S
C725 C730 1.395 . S
C726 C722 1.423 . S
C726 C723 1.351 . S
C726 H738 0.930 . S
C727 C729 1.400 . S
C727 C730 1.386 . S
C727 H739 0.930 . S
N728 C721 1.377 . S
N728 C729 1.321 . S
N728 Eu731 2.609 . S
C729 C727 1.400 . S
C729 N728 1.321 . S
C729 H736 0.930 . S
C730 C725 1.395 . S
C730 C727 1.386 . S
C730 H749 0.930 . S
Eu731 N728 2.609 . S
Eu731 N732 2.657 . S
Eu731 O765 2.380 . S
Eu731 O766 2.432 . S
Eu731 O770 2.558 . S
Eu731 O771 2.612 . S
Eu731 O773 2.339 . S
Eu731 O774 2.563 . S
Eu731 O775 2.419 . S
Eu731 C795 2.848 . S
N732 C724 1.362 . S
N732 Eu731 2.657 . S
N732 C733 1.334 . S
C733 N732 1.334 . S
C733 C735 1.413 . S
C733 H740 0.929 . S
C734 C722 1.392 . S
C734 C735 1.367 . S
C734 H742 0.930 . S
C735 C733 1.413 . S
C735 C734 1.367 . S
C735 H737 0.930 . S
H736 C729 0.930 . S
H737 C735 0.930 . S
H738 C726 0.930 . S
H739 C727 0.930 . S
H740 C733 0.929 . S
H741 C755 0.930 . S
H742 C734 0.930 . S
H743 C761 0.930 . S
H744 C752 0.929 . S
H745 C759 0.930 . S
H746 C723 0.931 . S
H747 C753 0.930 . S
H748 C786 0.930 . S
H749 C730 0.930 . S
H750 C785 0.931 . S
N751 Eu720 2.657 . S
N751 C752 1.334 . S
N751 C756 1.362 . S
C752 H744 0.929 . S
C752 N751 1.334 . S
C752 C755 1.413 . S
C753 H747 0.930 . S
C753 C754 1.392 . S
C753 C755 1.367 . S
C754 C753 1.392 . S
C754 C756 1.420 . S
C754 C786 1.423 . S
C755 H741 0.930 . S
C755 C752 1.413 . S
C755 C753 1.367 . S
C756 N751 1.362 . S
C756 C754 1.420 . S
C756 C760 1.429 . S
H757 C762 0.930 . S
N758 Eu720 2.609 . S
N758 C760 1.377 . S
N758 C761 1.321 . S
C759 H745 0.930 . S
C759 C761 1.400 . S
C759 C762 1.386 . S
C760 C756 1.429 . S
C760 N758 1.377 . S
C760 C763 1.411 . S
C761 H743 0.930 . S
C761 N758 1.321 . S
C761 C759 1.400 . S
C762 H757 0.930 . S
C762 C759 1.386 . S
C762 C763 1.395 . S
C763 C760 1.411 . S
C763 C762 1.395 . S
C763 C785 1.420 . S
O764 Eu720 2.558 . S
O764 C784 1.257 . S
O765 Eu720 2.612 . S
O765 Eu731 2.380 . S
O765 C776 1.276 . S
O766 Eu731 2.432 . S
O766 C783 1.264 . S
O767 Eu720 2.339 . S
O767 C783 1.254 . S
O768 Eu720 2.563 . S
O768 C776 1.235 . S
O769 Eu720 2.419 . S
O769 C784 1.249 . S
O770 Eu731 2.558 . S
O770 C795 1.257 . S
O771 Eu720 2.380 . S
O771 Eu731 2.612 . S
O771 C787 1.276 . S
O772 Eu720 2.432 . S
O772 C794 1.264 . S
O773 Eu731 2.339 . S
O773 C794 1.254 . S
O774 Eu731 2.563 . S
O774 C787 1.235 . S
O775 Eu731 2.419 . S
O775 C795 1.249 . S
C776 O765 1.276 . S
C776 O768 1.235 . S
C777 C779 1.393 . S
C777 C781 1.395 . S
C777 C784 1.492 . S
C778 C779 1.392 . S
C778 C780 1.386 . S
C779 C777 1.393 . S
C779 C778 1.392 . S
C779 H796 0.930 . S
C780 C778 1.386 . S
C780 C782 1.395 . S
C780 H797 0.930 . S
C781 C777 1.395 . S
C781 C782 1.379 . S
C781 H798 0.930 . S
C782 C780 1.395 . S
C782 C781 1.379 . S
C782 H799 0.930 . S
C783 O766 1.264 . S
C783 O767 1.254 . S
C784 Eu720 2.848 . S
C784 O764 1.257 . S
C784 O769 1.249 . S
C784 C777 1.492 . S
C785 H750 0.931 . S
C785 C763 1.420 . S
C785 C786 1.351 . S
C786 H748 0.930 . S
C786 C754 1.423 . S
C786 C785 1.351 . S
C787 O771 1.276 . S
C787 O774 1.235 . S
C788 C789 1.393 . S
C788 C792 1.395 . S
C788 C795 1.492 . S
C789 C788 1.393 . S
C789 C790 1.392 . S
C789 H800 0.930 . S
C790 C789 1.392 . S
C790 C791 1.386 . S
C791 C790 1.386 . S
C791 C793 1.395 . S
C791 H801 0.930 . S
C792 C788 1.395 . S
C792 C793 1.379 . S
C792 H802 0.930 . S
C793 C791 1.395 . S
C793 C792 1.379 . S
C793 H803 0.930 . S
C794 O772 1.264 . S
C794 O773 1.254 . S
C795 Eu731 2.848 . S
C795 O770 1.257 . S
C795 O775 1.249 . S
C795 C788 1.492 . S
H796 C779 0.930 . S
H797 C780 0.930 . S
H798 C781 0.930 . S
H799 C782 0.930 . S
H800 C789 0.930 . S
H801 C791 0.930 . S
H802 C792 0.930 . S
H803 C793 0.930 . S
Eu804 N835 2.657 . S
Eu804 N842 2.609 . S
Eu804 O848 2.558 . S
Eu804 O849 2.612 . S
Eu804 O851 2.339 . S
Eu804 O852 2.563 . S
Eu804 O853 2.419 . S
Eu804 O855 2.380 . S
Eu804 O856 2.432 . S
Eu804 C868 2.848 . S
C805 C808 1.429 . S
C805 C809 1.411 . S
C805 N812 1.377 . S
C806 C808 1.420 . S
C806 C810 1.423 . S
C806 C818 1.392 . S
C807 C809 1.420 . S
C807 C810 1.351 . S
C807 H830 0.931 . S
C808 C805 1.429 . S
C808 C806 1.420 . S
C808 N816 1.362 . S
C809 C805 1.411 . S
C809 C807 1.420 . S
C809 C814 1.395 . S
C810 C806 1.423 . S
C810 C807 1.351 . S
C810 H822 0.930 . S
C811 C813 1.400 . S
C811 C814 1.386 . S
C811 H823 0.930 . S
N812 C805 1.377 . S
N812 C813 1.321 . S
N812 Eu815 2.609 . S
C813 C811 1.400 . S
C813 N812 1.321 . S
C813 H820 0.930 . S
C814 C809 1.395 . S
C814 C811 1.386 . S
C814 H833 0.930 . S
Eu815 N812 2.609 . S
Eu815 N816 2.657 . S
Eu815 O849 2.380 . S
Eu815 O850 2.432 . S
Eu815 O854 2.558 . S
Eu815 O855 2.612 . S
Eu815 O857 2.339 . S
Eu815 O858 2.563 . S
Eu815 O859 2.419 . S
Eu815 C879 2.848 . S
N816 C808 1.362 . S
N816 Eu815 2.657 . S
N816 C817 1.334 . S
C817 N816 1.334 . S
C817 C819 1.413 . S
C817 H824 0.929 . S
C818 C806 1.392 . S
C818 C819 1.367 . S
C818 H826 0.930 . S
C819 C817 1.413 . S
C819 C818 1.367 . S
C819 H821 0.930 . S
H820 C813 0.930 . S
H821 C819 0.930 . S
H822 C810 0.930 . S
H823 C811 0.930 . S
H824 C817 0.929 . S
H825 C839 0.930 . S
H826 C818 0.930 . S
H827 C845 0.930 . S
H828 C836 0.929 . S
H829 C843 0.930 . S
H830 C807 0.931 . S
H831 C837 0.930 . S
H832 C870 0.930 . S
H833 C814 0.930 . S
H834 C869 0.931 . S
N835 Eu804 2.657 . S
N835 C836 1.334 . S
N835 C840 1.362 . S
C836 H828 0.929 . S
C836 N835 1.334 . S
C836 C839 1.413 . S
C837 H831 0.930 . S
C837 C838 1.392 . S
C837 C839 1.367 . S
C838 C837 1.392 . S
C838 C840 1.420 . S
C838 C870 1.423 . S
C839 H825 0.930 . S
C839 C836 1.413 . S
C839 C837 1.367 . S
C840 N835 1.362 . S
C840 C838 1.420 . S
C840 C844 1.429 . S
H841 C846 0.930 . S
N842 Eu804 2.609 . S
N842 C844 1.377 . S
N842 C845 1.321 . S
C843 H829 0.930 . S
C843 C845 1.400 . S
C843 C846 1.386 . S
C844 C840 1.429 . S
C844 N842 1.377 . S
C844 C847 1.411 . S
C845 H827 0.930 . S
C845 N842 1.321 . S
C845 C843 1.400 . S
C846 H841 0.930 . S
C846 C843 1.386 . S
C846 C847 1.395 . S
C847 C844 1.411 . S
C847 C846 1.395 . S
C847 C869 1.420 . S
O848 Eu804 2.558 . S
O848 C868 1.257 . S
O849 Eu804 2.612 . S
O849 Eu815 2.380 . S
O849 C860 1.276 . S
O850 Eu815 2.432 . S
O850 C867 1.264 . S
O851 Eu804 2.339 . S
O851 C867 1.254 . S
O852 Eu804 2.563 . S
O852 C860 1.235 . S
O853 Eu804 2.419 . S
O853 C868 1.249 . S
O854 Eu815 2.558 . S
O854 C879 1.257 . S
O855 Eu804 2.380 . S
O855 Eu815 2.612 . S
O855 C871 1.276 . S
O856 Eu804 2.432 . S
O856 C878 1.264 . S
O857 Eu815 2.339 . S
O857 C878 1.254 . S
O858 Eu815 2.563 . S
O858 C871 1.235 . S
O859 Eu815 2.419 . S
O859 C879 1.249 . S
C860 O849 1.276 . S
C860 O852 1.235 . S
C861 C863 1.393 . S
C861 C865 1.395 . S
C861 C868 1.492 . S
C862 C863 1.392 . S
C862 C864 1.386 . S
C863 C861 1.393 . S
C863 C862 1.392 . S
C863 H880 0.930 . S
C864 C862 1.386 . S
C864 C866 1.395 . S
C864 H881 0.930 . S
C865 C861 1.395 . S
C865 C866 1.379 . S
C865 H882 0.930 . S
C866 C864 1.395 . S
C866 C865 1.379 . S
C866 H883 0.930 . S
C867 O850 1.264 . S
C867 O851 1.254 . S
C868 Eu804 2.848 . S
C868 O848 1.257 . S
C868 O853 1.249 . S
C868 C861 1.492 . S
C869 H834 0.931 . S
C869 C847 1.420 . S
C869 C870 1.351 . S
C870 H832 0.930 . S
C870 C838 1.423 . S
C870 C869 1.351 . S
C871 O855 1.276 . S
C871 O858 1.235 . S
C872 C873 1.393 . S
C872 C876 1.395 . S
C872 C879 1.492 . S
C873 C872 1.393 . S
C873 C874 1.392 . S
C873 H884 0.930 . S
C874 C873 1.392 . S
C874 C875 1.386 . S
C875 C874 1.386 . S
C875 C877 1.395 . S
C875 H885 0.930 . S
C876 C872 1.395 . S
C876 C877 1.379 . S
C876 H886 0.930 . S
C877 C875 1.395 . S
C877 C876 1.379 . S
C877 H887 0.930 . S
C878 O856 1.264 . S
C878 O857 1.254 . S
C879 Eu815 2.848 . S
C879 O854 1.257 . S
C879 O859 1.249 . S
C879 C872 1.492 . S
H880 C863 0.930 . S
H881 C864 0.930 . S
H882 C865 0.930 . S
H883 C866 0.930 . S
H884 C873 0.930 . S
H885 C875 0.930 . S
H886 C876 0.930 . S
H887 C877 0.930 . S
Eu888 N919 2.657 . S
Eu888 N926 2.609 . S
Eu888 O932 2.558 . S
Eu888 O933 2.612 . S
Eu888 O935 2.339 . S
Eu888 O936 2.563 . S
Eu888 O937 2.419 . S
Eu888 O939 2.380 . S
Eu888 O940 2.432 . S
Eu888 C952 2.848 . S
C889 C892 1.429 . S
C889 C893 1.411 . S
C889 N896 1.377 . S
C890 C892 1.420 . S
C890 C894 1.423 . S
C890 C902 1.392 . S
C891 C893 1.420 . S
C891 C894 1.351 . S
C891 H914 0.931 . S
C892 C889 1.429 . S
C892 C890 1.420 . S
C892 N900 1.362 . S
C893 C889 1.411 . S
C893 C891 1.420 . S
C893 C898 1.395 . S
C894 C890 1.423 . S
C894 C891 1.351 . S
C894 H906 0.930 . S
C895 C897 1.400 . S
C895 C898 1.386 . S
C895 H907 0.930 . S
N896 C889 1.377 . S
N896 C897 1.321 . S
N896 Eu899 2.609 . S
C897 C895 1.400 . S
C897 N896 1.321 . S
C897 H904 0.930 . S
C898 C893 1.395 . S
C898 C895 1.386 . S
C898 H917 0.930 . S
Eu899 N896 2.609 . S
Eu899 N900 2.657 . S
Eu899 O933 2.380 . S
Eu899 O934 2.432 . S
Eu899 O938 2.558 . S
Eu899 O939 2.612 . S
Eu899 O941 2.339 . S
Eu899 O942 2.563 . S
Eu899 O943 2.419 . S
Eu899 C963 2.848 . S
N900 C892 1.362 . S
N900 Eu899 2.657 . S
N900 C901 1.334 . S
C901 N900 1.334 . S
C901 C903 1.413 . S
C901 H908 0.929 . S
C902 C890 1.392 . S
C902 C903 1.367 . S
C902 H910 0.930 . S
C903 C901 1.413 . S
C903 C902 1.367 . S
C903 H905 0.930 . S
H904 C897 0.930 . S
H905 C903 0.930 . S
H906 C894 0.930 . S
H907 C895 0.930 . S
H908 C901 0.929 . S
H909 C923 0.930 1_455 S
H910 C902 0.930 . S
H911 C929 0.930 . S
H912 C920 0.929 . S
H913 C927 0.930 . S
H914 C891 0.931 . S
H915 C921 0.930 . S
H916 C954 0.930 . S
H917 C898 0.930 . S
H918 C953 0.931 1_455 S
N919 Eu888 2.657 . S
N919 C920 1.334 . S
N919 C924 1.362 . S
C920 H912 0.929 . S
C920 N919 1.334 . S
C920 C923 1.413 . S
C921 H915 0.930 . S
C921 C922 1.392 1_455 S
C921 C923 1.367 1_455 S
C922 C921 1.392 1_655 S
C922 C924 1.420 . S
C922 C954 1.423 1_655 S
C923 H909 0.930 1_655 S
C923 C920 1.413 . S
C923 C921 1.367 1_655 S
C924 N919 1.362 . S
C924 C922 1.420 . S
C924 C928 1.429 . S
H925 C930 0.930 . S
N926 Eu888 2.609 . S
N926 C928 1.377 . S
N926 C929 1.321 . S
C927 H913 0.930 . S
C927 C929 1.400 . S
C927 C930 1.386 . S
C928 C924 1.429 . S
C928 N926 1.377 . S
C928 C931 1.411 . S
C929 H911 0.930 . S
C929 N926 1.321 . S
C929 C927 1.400 . S
C930 H925 0.930 . S
C930 C927 1.386 . S
C930 C931 1.395 . S
C931 C928 1.411 . S
C931 C930 1.395 . S
C931 C953 1.420 . S
O932 Eu888 2.558 . S
O932 C952 1.257 . S
O933 Eu888 2.612 . S
O933 Eu899 2.380 . S
O933 C944 1.276 . S
O934 Eu899 2.432 . S
O934 C951 1.264 . S
O935 Eu888 2.339 . S
O935 C951 1.254 . S
O936 Eu888 2.563 . S
O936 C944 1.235 . S
O937 Eu888 2.419 . S
O937 C952 1.249 . S
O938 Eu899 2.558 . S
O938 C963 1.257 . S
O939 Eu888 2.380 . S
O939 Eu899 2.612 . S
O939 C955 1.276 . S
O940 Eu888 2.432 . S
O940 C962 1.264 . S
O941 Eu899 2.339 . S
O941 C962 1.254 . S
O942 Eu899 2.563 . S
O942 C955 1.235 . S
O943 Eu899 2.419 . S
O943 C963 1.249 . S
C944 O933 1.276 . S
C944 O936 1.235 . S
C945 C947 1.393 . S
C945 C949 1.395 . S
C945 C952 1.492 . S
C946 C947 1.392 . S
C946 C948 1.386 . S
C947 C945 1.393 . S
C947 C946 1.392 . S
C947 H964 0.930 . S
C948 C946 1.386 . S
C948 C950 1.395 . S
C948 H965 0.930 . S
C949 C945 1.395 . S
C949 C950 1.379 . S
C949 H966 0.930 . S
C950 C948 1.395 . S
C950 C949 1.379 . S
C950 H967 0.930 . S
C951 O934 1.264 . S
C951 O935 1.254 . S
C952 Eu888 2.848 . S
C952 O932 1.257 . S
C952 O937 1.249 . S
C952 C945 1.492 . S
C953 H918 0.931 1_655 S
C953 C931 1.420 . S
C953 C954 1.351 1_655 S
C954 H916 0.930 . S
C954 C922 1.423 1_455 S
C954 C953 1.351 1_455 S
C955 O939 1.276 . S
C955 O942 1.235 . S
C956 C957 1.393 . S
C956 C960 1.395 . S
C956 C963 1.492 . S
C957 C956 1.393 . S
C957 C958 1.392 . S
C957 H968 0.930 . S
C958 C957 1.392 . S
C958 C959 1.386 . S
C959 C958 1.386 . S
C959 C961 1.395 . S
C959 H969 0.930 . S
C960 C956 1.395 . S
C960 C961 1.379 . S
C960 H970 0.930 . S
C961 C959 1.395 . S
C961 C960 1.379 . S
C961 H971 0.930 . S
C962 O940 1.264 . S
C962 O941 1.254 . S
C963 Eu899 2.848 . S
C963 O938 1.257 . S
C963 O943 1.249 . S
C963 C956 1.492 . S
H964 C947 0.930 . S
H965 C948 0.930 . S
H966 C949 0.930 . S
H967 C950 0.930 . S
H968 C957 0.930 . S
H969 C959 0.930 . S
H970 C960 0.930 . S
H971 C961 0.930 . S
H972 C978 0.930 . S
H973 C981 0.930 . S
H974 C982 0.930 . S
H975 C983 0.930 . S
H976 C986 0.930 . S
H977 C987 0.930 . S
C978 H972 0.930 . S
C978 C979 1.355 . S
C978 C980 1.415 . S
C979 C978 1.355 . S
C979 C981 1.419 . S
C980 C978 1.415 . S
C980 C985 1.425 . S
C980 C987 1.409 . S
C981 H973 0.930 . S
C981 C979 1.419 . S
C981 C982 1.362 . S
C982 H974 0.930 . S
C982 C981 1.362 . S
C982 C985 1.409 . S
C983 H975 0.930 . S
C983 C984 1.355 . S
C983 C985 1.415 . S
C984 C983 1.355 . S
C984 C986 1.419 . S
C985 C980 1.425 . S
C985 C982 1.409 . S
C985 C983 1.415 . S
C986 H976 0.930 . S
C986 C984 1.419 . S
C986 C987 1.362 . S
C987 H977 0.930 . S
C987 C980 1.409 . S
C987 C986 1.362 . S
H988 C994 0.930 . S
H989 C997 0.930 . S
H990 C998 0.930 . S
H991 C999 0.930 . S
H992 C1002 0.930 . S
H993 C1003 0.930 . S
C994 H988 0.930 . S
C994 C995 1.355 . S
C994 C996 1.415 . S
C995 C994 1.355 . S
C995 C997 1.419 . S
C996 C994 1.415 . S
C996 C1001 1.425 . S
C996 C1003 1.409 . S
C997 H989 0.930 . S
C997 C995 1.419 . S
C997 C998 1.362 . S
C998 H990 0.930 . S
C998 C997 1.362 . S
C998 C1001 1.409 . S
C999 H991 0.930 . S
C999 C1000 1.355 . S
C999 C1001 1.415 . S
C1000 C999 1.355 . S
C1000 C1002 1.419 . S
C1001 C996 1.425 . S
C1001 C998 1.409 . S
C1001 C999 1.415 . S
C1002 H992 0.930 . S
C1002 C1000 1.419 . S
C1002 C1003 1.362 . S
C1003 H993 0.930 . S
C1003 C996 1.409 . S
C1003 C1002 1.362 . S
H1004 C1010 0.930 . S
H1005 C1013 0.930 . S
H1006 C1014 0.930 . S
H1007 C1015 0.930 . S
H1008 C1018 0.930 . S
H1009 C1019 0.930 . S
C1010 H1004 0.930 . S
C1010 C1011 1.355 . S
C1010 C1012 1.415 . S
C1011 C1010 1.355 . S
C1011 C1013 1.419 . S
C1012 C1010 1.415 . S
C1012 C1017 1.425 . S
C1012 C1019 1.409 . S
C1013 H1005 0.930 . S
C1013 C1011 1.419 . S
C1013 C1014 1.362 . S
C1014 H1006 0.930 . S
C1014 C1013 1.362 . S
C1014 C1017 1.409 . S
C1015 H1007 0.930 . S
C1015 C1016 1.355 . S
C1015 C1017 1.415 . S
C1016 C1015 1.355 . S
C1016 C1018 1.419 . S
C1017 C1012 1.425 . S
C1017 C1014 1.409 . S
C1017 C1015 1.415 . S
C1018 H1008 0.930 . S
C1018 C1016 1.419 . S
C1018 C1019 1.362 . S
C1019 H1009 0.930 . S
C1019 C1012 1.409 . S
C1019 C1018 1.362 . S
H1020 C1026 0.930 . S
H1021 C1029 0.930 . S
H1022 C1030 0.930 . S
H1023 C1031 0.930 . S
H1024 C1034 0.930 . S
H1025 C1035 0.930 . S
C1026 H1020 0.930 . S
C1026 C1027 1.355 . S
C1026 C1028 1.415 . S
C1027 C1026 1.355 . S
C1027 C1029 1.419 . S
C1028 C1026 1.415 . S
C1028 C1033 1.425 . S
C1028 C1035 1.409 . S
C1029 H1021 0.930 . S
C1029 C1027 1.419 . S
C1029 C1030 1.362 . S
C1030 H1022 0.930 . S
C1030 C1029 1.362 . S
C1030 C1033 1.409 . S
C1031 H1023 0.930 . S
C1031 C1032 1.355 . S
C1031 C1033 1.415 . S
C1032 C1031 1.355 . S
C1032 C1034 1.419 . S
C1033 C1028 1.425 . S
C1033 C1030 1.409 . S
C1033 C1031 1.415 . S
C1034 H1024 0.930 . S
C1034 C1032 1.419 . S
C1034 C1035 1.362 . S
C1035 H1025 0.930 . S
C1035 C1028 1.409 . S
C1035 C1034 1.362 . S
H1036 C1042 0.930 . S
H1037 C1045 0.930 . S
H1038 C1046 0.930 . S
H1039 C1047 0.930 . S
H1040 C1050 0.930 . S
H1041 C1051 0.930 . S
C1042 H1036 0.930 . S
C1042 C1043 1.355 . S
C1042 C1044 1.415 . S
C1043 C1042 1.355 . S
C1043 C1045 1.419 . S
C1044 C1042 1.415 . S
C1044 C1049 1.425 . S
C1044 C1051 1.409 . S
C1045 H1037 0.930 . S
C1045 C1043 1.419 . S
C1045 C1046 1.362 . S
C1046 H1038 0.930 . S
C1046 C1045 1.362 . S
C1046 C1049 1.409 . S
C1047 H1039 0.930 . S
C1047 C1048 1.355 . S
C1047 C1049 1.415 . S
C1048 C1047 1.355 . S
C1048 C1050 1.419 . S
C1049 C1044 1.425 . S
C1049 C1046 1.409 . S
C1049 C1047 1.415 . S
C1050 H1040 0.930 . S
C1050 C1048 1.419 . S
C1050 C1051 1.362 . S
C1051 H1041 0.930 . S
C1051 C1044 1.409 . S
C1051 C1050 1.362 . S
H1052 C1058 0.930 . S
H1053 C1061 0.930 . S
H1054 C1062 0.930 . S
H1055 C1063 0.930 . S
H1056 C1066 0.930 1_554 S
H1057 C1067 0.930 . S
C1058 H1052 0.930 . S
C1058 C1059 1.355 . S
C1058 C1060 1.415 . S
C1059 C1058 1.355 . S
C1059 C1061 1.419 . S
C1060 C1058 1.415 . S
C1060 C1065 1.425 . S
C1060 C1067 1.409 . S
C1061 H1053 0.930 . S
C1061 C1059 1.419 . S
C1061 C1062 1.362 . S
C1062 H1054 0.930 . S
C1062 C1061 1.362 . S
C1062 C1065 1.409 . S
C1063 H1055 0.930 . S
C1063 C1064 1.355 . S
C1063 C1065 1.415 . S
C1064 C1063 1.355 . S
C1064 C1066 1.419 . S
C1065 C1060 1.425 . S
C1065 C1062 1.409 . S
C1065 C1063 1.415 . S
C1066 H1056 0.930 1_556 S
C1066 C1064 1.419 . S
C1066 C1067 1.362 . S
C1067 H1057 0.930 . S
C1067 C1060 1.409 . S
C1067 C1066 1.362 . S
H1068 C1074 0.930 . S
H1069 C1077 0.930 . S
H1070 C1078 0.930 . S
H1071 C1079 0.930 . S
H1072 C1082 0.930 . S
H1073 C1083 0.930 . S
C1074 H1068 0.930 . S
C1074 C1075 1.355 . S
C1074 C1076 1.415 . S
C1075 C1074 1.355 . S
C1075 C1077 1.419 . S
C1076 C1074 1.415 . S
C1076 C1081 1.425 . S
C1076 C1083 1.409 1_556 S
C1077 H1069 0.930 . S
C1077 C1075 1.419 . S
C1077 C1078 1.362 . S
C1078 H1070 0.930 . S
C1078 C1077 1.362 . S
C1078 C1081 1.409 . S
C1079 H1071 0.930 . S
C1079 C1080 1.355 . S
C1079 C1081 1.415 . S
C1080 C1079 1.355 . S
C1080 C1082 1.419 1_556 S
C1081 C1076 1.425 . S
C1081 C1078 1.409 . S
C1081 C1079 1.415 . S
C1082 H1072 0.930 . S
C1082 C1080 1.419 1_554 S
C1082 C1083 1.362 . S
C1083 H1073 0.930 . S
C1083 C1076 1.409 1_554 S
C1083 C1082 1.362 . S
H1084 C1090 0.930 . S
H1085 C1093 0.930 . S
H1086 C1094 0.930 1_554 S
H1087 C1095 0.930 1_554 S
H1088 C1098 0.930 . S
H1089 C1099 0.930 . S
C1090 H1084 0.930 . S
C1090 C1091 1.355 . S
C1090 C1092 1.415 . S
C1091 C1090 1.355 . S
C1091 C1093 1.419 . S
C1092 C1090 1.415 . S
C1092 C1097 1.425 . S
C1092 C1099 1.409 . S
C1093 H1085 0.930 . S
C1093 C1091 1.419 . S
C1093 C1094 1.362 . S
C1094 H1086 0.930 1_556 S
C1094 C1093 1.362 . S
C1094 C1097 1.409 . S
C1095 H1087 0.930 1_556 S
C1095 C1096 1.355 . S
C1095 C1097 1.415 . S
C1096 C1095 1.355 . S
C1096 C1098 1.419 . S
C1097 C1092 1.425 . S
C1097 C1094 1.409 . S
C1097 C1095 1.415 . S
C1098 H1088 0.930 . S
C1098 C1096 1.419 . S
C1098 C1099 1.362 . S
C1099 H1089 0.930 . S
C1099 C1092 1.409 . S
C1099 C1098 1.362 . S
H1100 C1106 0.930 . S
H1101 C1109 0.930 . S
H1102 C1110 0.930 . S
H1103 C1111 0.930 . S
H1104 C1114 0.930 . S
H1105 C1115 0.930 . S
C1106 H1100 0.930 . S
C1106 C1107 1.355 . S
C1106 C1108 1.415 . S
C1107 C1106 1.355 . S
C1107 C1109 1.419 . S
C1108 C1106 1.415 . S
C1108 C1113 1.425 . S
C1108 C1115 1.409 . S
C1109 H1101 0.930 . S
C1109 C1107 1.419 . S
C1109 C1110 1.362 . S
C1110 H1102 0.930 . S
C1110 C1109 1.362 . S
C1110 C1113 1.409 . S
C1111 H1103 0.930 . S
C1111 C1112 1.355 . S
C1111 C1113 1.415 . S
C1112 C1111 1.355 . S
C1112 C1114 1.419 . S
C1113 C1108 1.425 . S
C1113 C1110 1.409 . S
C1113 C1111 1.415 . S
C1114 H1104 0.930 . S
C1114 C1112 1.419 . S
C1114 C1115 1.362 . S
C1115 H1105 0.930 . S
C1115 C1108 1.409 . S
C1115 C1114 1.362 . S
H1116 C1122 0.930 . S
H1117 C1125 0.930 . S
H1118 C1126 0.930 . S
H1119 C1127 0.930 . S
H1120 C1130 0.930 . S
H1121 C1131 0.930 . S
C1122 H1116 0.930 . S
C1122 C1123 1.355 . S
C1122 C1124 1.415 . S
C1123 C1122 1.355 . S
C1123 C1125 1.419 . S
C1124 C1122 1.415 . S
C1124 C1129 1.425 . S
C1124 C1131 1.409 . S
C1125 H1117 0.930 . S
C1125 C1123 1.419 . S
C1125 C1126 1.362 . S
C1126 H1118 0.930 . S
C1126 C1125 1.362 . S
C1126 C1129 1.409 . S
C1127 H1119 0.930 . S
C1127 C1128 1.355 . S
C1127 C1129 1.415 . S
C1128 C1127 1.355 . S
C1128 C1130 1.419 . S
C1129 C1124 1.425 . S
C1129 C1126 1.409 . S
C1129 C1127 1.415 . S
C1130 H1120 0.930 . S
C1130 C1128 1.419 . S
C1130 C1131 1.362 . S
C1131 H1121 0.930 . S
C1131 C1124 1.409 . S
C1131 C1130 1.362 . S
H1132 C1138 0.930 . S
H1133 C1141 0.930 . S
H1134 C1142 0.930 . S
H1135 C1143 0.930 . S
H1136 C1146 0.930 . S
H1137 C1147 0.930 . S
C1138 H1132 0.930 . S
C1138 C1139 1.355 . S
C1138 C1140 1.415 . S
C1139 C1138 1.355 . S
C1139 C1141 1.419 . S
C1140 C1138 1.415 . S
C1140 C1145 1.425 . S
C1140 C1147 1.409 . S
C1141 H1133 0.930 . S
C1141 C1139 1.419 . S
C1141 C1142 1.362 . S
C1142 H1134 0.930 . S
C1142 C1141 1.362 . S
C1142 C1145 1.409 . S
C1143 H1135 0.930 . S
C1143 C1144 1.355 . S
C1143 C1145 1.415 . S
C1144 C1143 1.355 . S
C1144 C1146 1.419 . S
C1145 C1140 1.425 . S
C1145 C1142 1.409 . S
C1145 C1143 1.415 . S
C1146 H1136 0.930 . S
C1146 C1144 1.419 . S
C1146 C1147 1.362 . S
C1147 H1137 0.930 . S
C1147 C1140 1.409 . S
C1147 C1146 1.362 . S
H1148 C1154 0.930 . S
H1149 C1157 0.930 . S
H1150 C1158 0.930 . S
H1151 C1159 0.930 . S
H1152 C1162 0.930 . S
H1153 C1163 0.930 . S
C1154 H1148 0.930 . S
C1154 C1155 1.355 . S
C1154 C1156 1.415 . S
C1155 C1154 1.355 . S
C1155 C1157 1.419 . S
C1156 C1154 1.415 . S
C1156 C1161 1.425 . S
C1156 C1163 1.409 . S
C1157 H1149 0.930 . S
C1157 C1155 1.419 . S
C1157 C1158 1.362 . S
C1158 H1150 0.930 . S
C1158 C1157 1.362 . S
C1158 C1161 1.409 . S
C1159 H1151 0.930 . S
C1159 C1160 1.355 . S
C1159 C1161 1.415 . S
C1160 C1159 1.355 . S
C1160 C1162 1.419 . S
C1161 C1156 1.425 . S
C1161 C1158 1.409 . S
C1161 C1159 1.415 . S
C1162 H1152 0.930 . S
C1162 C1160 1.419 . S
C1162 C1163 1.362 . S
C1163 H1153 0.930 . S
C1163 C1156 1.409 . S
C1163 C1162 1.362 . S
H1164 C1170 0.930 . S
H1165 C1173 0.930 . S
H1166 C1174 0.930 . S
H1167 C1175 0.930 . S
H1168 C1178 0.930 . S
H1169 C1179 0.959 . S
C1170 H1164 0.930 . S
C1170 C1171 1.355 . S
C1170 C1172 1.415 . S
C1171 C1170 1.355 . S
C1171 C1173 1.419 . S
C1172 C1170 1.415 . S
C1172 C1177 1.425 1_655 S
C1172 C1179 1.401 . S
C1173 H1165 0.930 . S
C1173 C1171 1.419 . S
C1173 C1174 1.362 1_655 S
C1174 H1166 0.930 . S
C1174 C1173 1.362 1_455 S
C1174 C1177 1.409 . S
C1175 H1167 0.930 . S
C1175 C1176 1.355 . S
C1175 C1177 1.415 . S
C1176 C1175 1.355 . S
C1176 C1178 1.419 . S
C1177 C1172 1.425 1_455 S
C1177 C1174 1.409 . S
C1177 C1175 1.415 . S
C1178 H1168 0.930 . S
C1178 C1176 1.419 . S
C1178 C1179 1.343 1_455 S
C1179 H1169 0.959 . S
C1179 C1172 1.401 . S
C1179 C1178 1.343 1_655 S
H1180 C1186 0.930 . S
H1181 C1189 0.930 . S
H1182 C1190 0.930 . S
H1183 C1191 0.930 . S
H1184 C1194 0.930 . S
H1185 C1195 0.930 . S
C1186 H1180 0.930 . S
C1186 C1187 1.355 . S
C1186 C1188 1.415 . S
C1187 C1186 1.355 . S
C1187 C1189 1.419 . S
C1188 C1186 1.415 . S
C1188 C1193 1.425 . S
C1188 C1195 1.409 . S
C1189 H1181 0.930 . S
C1189 C1187 1.419 . S
C1189 C1190 1.362 . S
C1190 H1182 0.930 . S
C1190 C1189 1.362 . S
C1190 C1193 1.409 . S
C1191 H1183 0.930 . S
C1191 C1192 1.355 . S
C1191 C1193 1.415 . S
C1192 C1191 1.355 . S
C1192 C1194 1.419 . S
C1193 C1188 1.425 . S
C1193 C1190 1.409 . S
C1193 C1191 1.415 . S
C1194 H1184 0.930 . S
C1194 C1192 1.419 . S
C1194 C1195 1.362 . S
C1195 H1185 0.930 . S
C1195 C1188 1.409 . S
C1195 C1194 1.362 . S
H1196 C1202 0.930 . S
H1197 C1205 0.930 . S
H1198 C1206 0.930 . S
H1199 C1207 0.930 . S
H1200 C1210 0.930 . S
H1201 C1211 0.930 . S
C1202 H1196 0.930 . S
C1202 C1203 1.355 . S
C1202 C1204 1.415 . S
C1203 C1202 1.355 . S
C1203 C1205 1.419 . S
C1204 C1202 1.415 . S
C1204 C1209 1.425 . S
C1204 C1211 1.409 1_545 S
C1205 H1197 0.930 . S
C1205 C1203 1.419 . S
C1205 C1206 1.362 . S
C1206 H1198 0.930 . S
C1206 C1205 1.362 . S
C1206 C1209 1.409 . S
C1207 H1199 0.930 . S
C1207 C1208 1.355 . S
C1207 C1209 1.415 1_565 S
C1208 C1207 1.355 . S
C1208 C1210 1.419 . S
C1209 C1204 1.425 . S
C1209 C1206 1.409 . S
C1209 C1207 1.415 1_545 S
C1210 H1200 0.930 . S
C1210 C1208 1.419 . S
C1210 C1211 1.362 . S
C1211 H1201 0.930 . S
C1211 C1204 1.409 1_565 S
C1211 C1210 1.362 . S
H1212 C1218 0.930 . S
H1213 C1221 0.930 . S
H1214 C1222 0.930 . S
H1215 C1223 0.930 . S
H1216 C1226 0.930 . S
H1217 C1227 0.930 . S
C1218 H1212 0.930 . S
C1218 C1219 1.355 . S
C1218 C1220 1.415 . S
C1219 C1218 1.355 . S
C1219 C1221 1.419 . S
C1220 C1218 1.415 . S
C1220 C1225 1.425 . S
C1220 C1227 1.409 . S
C1221 H1213 0.930 . S
C1221 C1219 1.419 . S
C1221 C1222 1.362 . S
C1222 H1214 0.930 . S
C1222 C1221 1.362 . S
C1222 C1225 1.409 . S
C1223 H1215 0.930 . S
C1223 C1224 1.355 . S
C1223 C1225 1.415 . S
C1224 C1223 1.355 . S
C1224 C1226 1.419 . S
C1225 C1220 1.425 . S
C1225 C1222 1.409 . S
C1225 C1223 1.415 . S
C1226 H1216 0.930 . S
C1226 C1224 1.419 . S
C1226 C1227 1.362 . S
C1227 H1217 0.930 . S
C1227 C1220 1.409 . S
C1227 C1226 1.362 . S
H1228 C1234 0.930 . S
H1229 C1237 0.930 . S
H1230 C1238 0.930 . S
H1231 C1239 0.930 . S
H1232 C1242 0.930 . S
H1233 C1243 0.930 . S
C1234 H1228 0.930 . S
C1234 C1235 1.355 . S
C1234 C1236 1.415 . S
C1235 C1234 1.355 . S
C1235 C1237 1.419 . S
C1236 C1234 1.415 . S
C1236 C1241 1.425 . S
C1236 C1243 1.409 . S
C1237 H1229 0.930 . S
C1237 C1235 1.419 . S
C1237 C1238 1.362 . S
C1238 H1230 0.930 . S
C1238 C1237 1.362 . S
C1238 C1241 1.409 . S
C1239 H1231 0.930 . S
C1239 C1240 1.355 . S
C1239 C1241 1.415 . S
C1240 C1239 1.355 . S
C1240 C1242 1.419 . S
C1241 C1236 1.425 . S
C1241 C1238 1.409 . S
C1241 C1239 1.415 . S
C1242 H1232 0.930 . S
C1242 C1240 1.419 . S
C1242 C1243 1.362 . S
C1243 H1233 0.930 . S
C1243 C1236 1.409 . S
C1243 C1242 1.362 . S
H1244 C1250 0.930 . S
H1245 C1253 0.930 . S
H1246 C1254 0.930 . S
H1247 C1255 0.930 . S
H1248 C1258 0.930 . S
H1249 C1259 0.930 . S
C1250 H1244 0.930 . S
C1250 C1251 1.355 . S
C1250 C1252 1.415 . S
C1251 C1250 1.355 . S
C1251 C1253 1.419 . S
C1252 C1250 1.415 . S
C1252 C1257 1.425 . S
C1252 C1259 1.409 . S
C1253 H1245 0.930 . S
C1253 C1251 1.419 . S
C1253 C1254 1.362 . S
C1254 H1246 0.930 . S
C1254 C1253 1.362 . S
C1254 C1257 1.409 . S
C1255 H1247 0.930 . S
C1255 C1256 1.355 . S
C1255 C1257 1.415 . S
C1256 C1255 1.355 . S
C1256 C1258 1.419 . S
C1257 C1252 1.425 . S
C1257 C1254 1.409 . S
C1257 C1255 1.415 . S
C1258 H1248 0.930 . S
C1258 C1256 1.419 . S
C1258 C1259 1.362 . S
C1259 H1249 0.930 . S
C1259 C1252 1.409 . S
C1259 C1258 1.362 . S
H1260 C1266 0.930 . S
H1261 C1269 0.930 . S
H1262 C1270 0.930 . S
H1263 C1271 0.930 . S
H1264 C1274 0.930 . S
H1265 C1275 0.930 . S
C1266 H1260 0.930 . S
C1266 C1267 1.355 . S
C1266 C1268 1.415 . S
C1267 C1266 1.355 . S
C1267 C1269 1.419 . S
C1268 C1266 1.415 . S
C1268 C1273 1.425 . S
C1268 C1275 1.409 . S
C1269 H1261 0.930 . S
C1269 C1267 1.419 . S
C1269 C1270 1.362 . S
C1270 H1262 0.930 . S
C1270 C1269 1.362 . S
C1270 C1273 1.409 . S
C1271 H1263 0.930 . S
C1271 C1272 1.355 . S
C1271 C1273 1.415 . S
C1272 C1271 1.355 . S
C1272 C1274 1.419 . S
C1273 C1268 1.425 . S
C1273 C1270 1.409 . S
C1273 C1271 1.415 . S
C1274 H1264 0.930 . S
C1274 C1272 1.419 . S
C1274 C1275 1.362 . S
C1275 H1265 0.930 . S
C1275 C1268 1.409 . S
C1275 C1274 1.362 . S
H1276 C1282 0.930 . S
H1277 C1285 0.930 . S
H1278 C1286 0.930 . S
H1279 C1287 0.930 . S
H1280 C1290 0.930 . S
H1281 C1291 0.930 . S
C1282 H1276 0.930 . S
C1282 C1283 1.355 . S
C1282 C1284 1.415 . S
C1283 C1282 1.355 . S
C1283 C1285 1.419 . S
C1284 C1282 1.415 . S
C1284 C1289 1.425 . S
C1284 C1291 1.409 . S
C1285 H1277 0.930 . S
C1285 C1283 1.419 . S
C1285 C1286 1.362 . S
C1286 H1278 0.930 . S
C1286 C1285 1.362 . S
C1286 C1289 1.409 . S
C1287 H1279 0.930 . S
C1287 C1288 1.355 . S
C1287 C1289 1.415 . S
C1288 C1287 1.355 . S
C1288 C1290 1.419 . S
C1289 C1284 1.425 . S
C1289 C1286 1.409 . S
C1289 C1287 1.415 . S
C1290 H1280 0.930 . S
C1290 C1288 1.419 . S
C1290 C1291 1.362 . S
C1291 H1281 0.930 . S
C1291 C1284 1.409 . S
C1291 C1290 1.362 . S
H1292 C1298 0.930 . S
H1293 C1301 0.930 . S
H1294 C1302 0.930 . S
H1295 C1303 0.930 . S
H1296 C1306 0.930 . S
H1297 C1307 0.930 . S
C1298 H1292 0.930 . S
C1298 C1299 1.355 . S
C1298 C1300 1.415 . S
C1299 C1298 1.355 . S
C1299 C1301 1.419 . S
C1300 C1298 1.415 . S
C1300 C1305 1.425 . S
C1300 C1307 1.409 . S
C1301 H1293 0.930 . S
C1301 C1299 1.419 . S
C1301 C1302 1.362 . S
C1302 H1294 0.930 . S
C1302 C1301 1.362 . S
C1302 C1305 1.409 . S
C1303 H1295 0.930 . S
C1303 C1304 1.355 . S
C1303 C1305 1.415 . S
C1304 C1303 1.355 . S
C1304 C1306 1.419 . S
C1305 C1300 1.425 . S
C1305 C1302 1.409 . S
C1305 C1303 1.415 . S
C1306 H1296 0.930 . S
C1306 C1304 1.419 . S
C1306 C1307 1.362 . S
C1307 H1297 0.930 . S
C1307 C1300 1.409 . S
C1307 C1306 1.362 . S
H1308 C1314 0.930 . S
H1309 C1317 0.930 . S
H1310 C1318 0.930 . S
H1311 C1319 0.930 . S
H1312 C1322 0.930 . S
H1313 C1323 0.930 . S
C1314 H1308 0.930 . S
C1314 C1315 1.355 1_565 S
C1314 C1316 1.415 . S
C1315 C1314 1.355 1_545 S
C1315 C1317 1.419 . S
C1316 C1314 1.415 . S
C1316 C1321 1.425 . S
C1316 C1323 1.409 . S
C1317 H1309 0.930 . S
C1317 C1315 1.419 . S
C1317 C1318 1.362 1_545 S
C1318 H1310 0.930 . S
C1318 C1317 1.362 1_565 S
C1318 C1321 1.409 . S
C1319 H1311 0.930 . S
C1319 C1320 1.355 . S
C1319 C1321 1.415 . S
C1320 C1319 1.355 . S
C1320 C1322 1.419 . S
C1321 C1316 1.425 . S
C1321 C1318 1.409 . S
C1321 C1319 1.415 . S
C1322 H1312 0.930 . S
C1322 C1320 1.419 . S
C1322 C1323 1.362 . S
C1323 H1313 0.930 . S
C1323 C1316 1.409 . S
C1323 C1322 1.362 . S
H1324 C1330 0.930 . S
H1325 C1333 0.930 . S
H1326 C1334 0.930 . S
H1327 C1335 0.930 . S
H1328 C1338 0.930 . S
H1329 C1339 0.930 . S
C1330 H1324 0.930 . S
C1330 C1331 1.355 . S
C1330 C1332 1.415 . S
C1331 C1330 1.355 . S
C1331 C1333 1.419 . S
C1332 C1330 1.415 . S
C1332 C1337 1.425 . S
C1332 C1339 1.409 . S
C1333 H1325 0.930 . S
C1333 C1331 1.419 . S
C1333 C1334 1.362 . S
C1334 H1326 0.930 . S
C1334 C1333 1.362 . S
C1334 C1337 1.409 . S
C1335 H1327 0.930 . S
C1335 C1336 1.355 . S
C1335 C1337 1.415 . S
C1336 C1335 1.355 . S
C1336 C1338 1.419 . S
C1337 C1332 1.425 . S
C1337 C1334 1.409 . S
C1337 C1335 1.415 . S
C1338 H1328 0.930 . S
C1338 C1336 1.419 . S
C1338 C1339 1.362 . S
C1339 H1329 0.930 . S
C1339 C1332 1.409 . S
C1339 C1338 1.362 . S
H1340 C1346 0.930 . S
H1341 C1349 0.930 . S
H1342 C1350 0.930 . S
H1343 C1351 0.930 . S
H1344 C1354 0.930 . S
H1345 C1355 0.930 . S
C1346 H1340 0.930 . S
C1346 C1347 1.355 . S
C1346 C1348 1.415 . S
C1347 C1346 1.355 . S
C1347 C1349 1.419 . S
C1348 C1346 1.415 . S
C1348 C1353 1.425 . S
C1348 C1355 1.409 . S
C1349 H1341 0.930 . S
C1349 C1347 1.419 . S
C1349 C1350 1.362 . S
C1350 H1342 0.930 . S
C1350 C1349 1.362 . S
C1350 C1353 1.409 . S
C1351 H1343 0.930 . S
C1351 C1352 1.355 . S
C1351 C1353 1.415 . S
C1352 C1351 1.355 . S
C1352 C1354 1.419 . S
C1353 C1348 1.425 . S
C1353 C1350 1.409 . S
C1353 C1351 1.415 . S
C1354 H1344 0.930 . S
C1354 C1352 1.419 . S
C1354 C1355 1.362 . S
C1355 H1345 0.930 . S
C1355 C1348 1.409 . S
C1355 C1354 1.362 . S
H1356 C1362 0.930 . S
H1357 C1365 0.930 . S
H1358 C1366 0.930 . S
H1359 C1367 0.930 . S
H1360 C1370 0.930 . S
H1361 C1371 0.930 . S
C1362 H1356 0.930 . S
C1362 C1363 1.355 . S
C1362 C1364 1.415 . S
C1363 C1362 1.355 . S
C1363 C1365 1.419 . S
C1364 C1362 1.415 . S
C1364 C1369 1.425 . S
C1364 C1371 1.409 . S
C1365 H1357 0.930 . S
C1365 C1363 1.419 . S
C1365 C1366 1.362 . S
C1366 H1358 0.930 . S
C1366 C1365 1.362 . S
C1366 C1369 1.409 . S
C1367 H1359 0.930 . S
C1367 C1368 1.355 . S
C1367 C1369 1.415 . S
C1368 C1367 1.355 . S
C1368 C1370 1.419 . S
C1369 C1364 1.425 . S
C1369 C1366 1.409 . S
C1369 C1367 1.415 . S
C1370 H1360 0.930 . S
C1370 C1368 1.419 . S
C1370 C1371 1.362 . S
C1371 H1361 0.930 . S
C1371 C1364 1.409 . S
C1371 C1370 1.362 . S
H1372 C1378 0.930 . S
H1373 C1381 0.930 . S
H1374 C1382 0.930 . S
H1375 C1383 0.930 . S
H1376 C1386 0.930 . S
H1377 C1387 0.930 . S
C1378 H1372 0.930 . S
C1378 C1379 1.355 . S
C1378 C1380 1.415 . S
C1379 C1378 1.355 . S
C1379 C1381 1.419 . S
C1380 C1378 1.415 . S
C1380 C1385 1.425 . S
C1380 C1387 1.409 . S
C1381 H1373 0.930 . S
C1381 C1379 1.419 . S
C1381 C1382 1.362 . S
C1382 H1374 0.930 . S
C1382 C1381 1.362 . S
C1382 C1385 1.409 . S
C1383 H1375 0.930 . S
C1383 C1384 1.355 . S
C1383 C1385 1.415 . S
C1384 C1383 1.355 . S
C1384 C1386 1.419 . S
C1385 C1380 1.425 . S
C1385 C1382 1.409 . S
C1385 C1383 1.415 . S
C1386 H1376 0.930 . S
C1386 C1384 1.419 . S
C1386 C1387 1.362 . S
C1387 H1377 0.930 . S
C1387 C1380 1.409 . S
C1387 C1386 1.362 . S
H1388 C1394 0.930 . S
H1389 C1397 0.930 . S
H1390 C1398 0.930 . S
H1391 C1399 0.930 . S
H1392 C1402 0.930 . S
H1393 C1403 0.930 . S
C1394 H1388 0.930 . S
C1394 C1395 1.355 . S
C1394 C1396 1.415 . S
C1395 C1394 1.355 . S
C1395 C1397 1.419 . S
C1396 C1394 1.415 . S
C1396 C1401 1.425 . S
C1396 C1403 1.409 . S
C1397 H1389 0.930 . S
C1397 C1395 1.419 . S
C1397 C1398 1.362 . S
C1398 H1390 0.930 . S
C1398 C1397 1.362 . S
C1398 C1401 1.409 . S
C1399 H1391 0.930 . S
C1399 C1400 1.355 . S
C1399 C1401 1.415 . S
C1400 C1399 1.355 . S
C1400 C1402 1.419 . S
C1401 C1396 1.425 . S
C1401 C1398 1.409 . S
C1401 C1399 1.415 . S
C1402 H1392 0.930 . S
C1402 C1400 1.419 . S
C1402 C1403 1.362 . S
C1403 H1393 0.930 . S
C1403 C1396 1.409 . S
C1403 C1402 1.362 . S
H1404 C1410 0.930 . S
H1405 C1413 0.930 . S
H1406 C1414 0.930 . S
H1407 C1415 0.930 . S
H1408 C1418 0.930 . S
H1409 C1419 0.930 . S
C1410 H1404 0.930 . S
C1410 C1411 1.355 . S
C1410 C1412 1.424 . S
C1411 C1410 1.355 . S
C1411 C1413 1.419 . S
C1412 C1410 1.424 . S
C1412 C1417 1.448 1_565 S
C1412 C1419 1.389 1_565 S
C1413 H1405 0.930 . S
C1413 C1411 1.419 . S
C1413 C1414 1.362 . S
C1414 H1406 0.930 . S
C1414 C1413 1.362 . S
C1414 C1417 1.389 1_565 S
C1415 H1407 0.930 . S
C1415 C1416 1.355 . S
C1415 C1417 1.424 . S
C1416 C1415 1.355 . S
C1416 C1418 1.419 . S
C1417 C1412 1.448 1_545 S
C1417 C1414 1.389 1_545 S
C1417 C1415 1.424 . S
C1418 H1408 0.930 . S
C1418 C1416 1.419 . S
C1418 C1419 1.362 . S
C1419 H1409 0.930 . S
C1419 C1412 1.389 1_545 S
C1419 C1418 1.362 . S
H1420 C1426 0.930 . S
H1421 C1429 0.930 . S
H1422 C1430 0.930 . S
H1423 C1431 0.930 . S
H1424 C1434 0.930 . S
H1425 C1435 0.930 . S
C1426 H1420 0.930 . S
C1426 C1427 1.355 . S
C1426 C1428 1.415 . S
C1427 C1426 1.355 . S
C1427 C1429 1.419 . S
C1428 C1426 1.415 . S
C1428 C1433 1.425 1_455 S
C1428 C1435 1.409 . S
C1429 H1421 0.930 . S
C1429 C1427 1.419 . S
C1429 C1430 1.362 1_455 S
C1430 H1422 0.930 . S
C1430 C1429 1.362 1_655 S
C1430 C1433 1.409 . S
C1431 H1423 0.930 . S
C1431 C1432 1.355 . S
C1431 C1433 1.415 . S
C1432 C1431 1.355 . S
C1432 C1434 1.419 . S
C1433 C1428 1.425 1_655 S
C1433 C1430 1.409 . S
C1433 C1431 1.415 . S
C1434 H1424 0.930 . S
C1434 C1432 1.419 . S
C1434 C1435 1.362 1_655 S
C1435 H1425 0.930 . S
C1435 C1428 1.409 . S
C1435 C1434 1.362 1_455 S
H1436 C1442 0.930 . S
H1437 C1445 0.930 . S
H1438 C1446 0.930 . S
H1439 C1447 0.930 . S
H1440 C1450 0.930 . S
H1441 C1451 0.930 . S
C1442 H1436 0.930 . S
C1442 C1443 1.355 . S
C1442 C1444 1.415 . S
C1443 C1442 1.355 . S
C1443 C1445 1.419 . S
C1444 C1442 1.415 . S
C1444 C1449 1.425 . S
C1444 C1451 1.409 . S
C1445 H1437 0.930 . S
C1445 C1443 1.419 . S
C1445 C1446 1.362 . S
C1446 H1438 0.930 . S
C1446 C1445 1.362 . S
C1446 C1449 1.409 . S
C1447 H1439 0.930 . S
C1447 C1448 1.355 . S
C1447 C1449 1.415 . S
C1448 C1447 1.355 . S
C1448 C1450 1.419 . S
C1449 C1444 1.425 . S
C1449 C1446 1.409 . S
C1449 C1447 1.415 . S
C1450 H1440 0.930 . S
C1450 C1448 1.419 . S
C1450 C1451 1.362 . S
C1451 H1441 0.930 . S
C1451 C1444 1.409 . S
C1451 C1450 1.362 . S
H1452 C1458 0.916 1_455 S
H1453 C1461 0.930 . S
H1454 C1462 0.930 . S
H1455 C1463 0.930 . S
H1456 C1466 0.930 . S
H1457 C1467 0.930 . S
C1458 H1452 0.916 1_655 S
C1458 C1459 1.355 . S
C1458 C1460 1.415 . S
C1459 C1458 1.355 . S
C1459 C1461 1.448 . S
C1460 C1458 1.415 . S
C1460 C1465 1.425 . S
C1460 C1467 1.409 . S
C1461 H1453 0.930 . S
C1461 C1459 1.448 . S
C1461 C1462 1.362 . S
C1462 H1454 0.930 . S
C1462 C1461 1.362 . S
C1462 C1465 1.409 . S
C1463 H1455 0.930 . S
C1463 C1464 1.355 . S
C1463 C1465 1.415 . S
C1464 C1463 1.355 . S
C1464 C1466 1.419 . S
C1465 C1460 1.425 . S
C1465 C1462 1.409 . S
C1465 C1463 1.415 . S
C1466 H1456 0.930 . S
C1466 C1464 1.419 . S
C1466 C1467 1.362 . S
C1467 H1457 0.930 . S
C1467 C1460 1.409 . S
C1467 C1466 1.362 . S
H1468 C1474 0.930 . S
H1469 C1477 0.930 . S
H1470 C1478 0.930 . S
H1471 C1479 0.930 . S
H1472 C1482 0.930 . S
H1473 C1483 0.930 . S
C1474 H1468 0.930 . S
C1474 C1475 1.355 . S
C1474 C1476 1.415 . S
C1475 C1474 1.355 . S
C1475 C1477 1.419 . S
C1476 C1474 1.415 . S
C1476 C1481 1.425 . S
C1476 C1483 1.409 . S
C1477 H1469 0.930 . S
C1477 C1475 1.419 . S
C1477 C1478 1.362 . S
C1478 H1470 0.930 . S
C1478 C1477 1.362 . S
C1478 C1481 1.409 . S
C1479 H1471 0.930 . S
C1479 C1480 1.355 . S
C1479 C1481 1.415 . S
C1480 C1479 1.355 . S
C1480 C1482 1.419 . S
C1481 C1476 1.425 . S
C1481 C1478 1.409 . S
C1481 C1479 1.415 . S
C1482 H1472 0.930 . S
C1482 C1480 1.419 . S
C1482 C1483 1.362 . S
C1483 H1473 0.930 . S
C1483 C1476 1.409 . S
C1483 C1482 1.362 . S
H1484 C1490 0.930 . S
H1485 C1493 0.930 1_565 S
H1486 C1494 0.930 . S
H1487 C1495 0.930 . S
H1488 C1498 0.930 . S
H1489 C1499 0.930 . S
C1490 H1484 0.930 . S
C1490 C1491 1.355 1_545 S
C1490 C1492 1.415 . S
C1491 C1490 1.355 1_565 S
C1491 C1493 1.419 1_565 S
C1492 C1490 1.415 . S
C1492 C1497 1.425 . S
C1492 C1499 1.409 . S
C1493 H1485 0.930 1_545 S
C1493 C1491 1.419 1_545 S
C1493 C1494 1.362 . S
C1494 H1486 0.930 . S
C1494 C1493 1.362 . S
C1494 C1497 1.409 . S
C1495 H1487 0.930 . S
C1495 C1496 1.355 . S
C1495 C1497 1.415 . S
C1496 C1495 1.355 . S
C1496 C1498 1.419 . S
C1497 C1492 1.425 . S
C1497 C1494 1.409 . S
C1497 C1495 1.415 . S
C1498 H1488 0.930 . S
C1498 C1496 1.419 . S
C1498 C1499 1.362 . S
C1499 H1489 0.930 . S
C1499 C1492 1.409 . S
C1499 C1498 1.362 . S
H1500 C1506 0.930 . S
H1501 C1509 0.930 . S
H1502 C1510 0.930 . S
H1503 C1511 0.930 . S
H1504 C1514 0.930 . S
H1505 C1515 0.930 . S
C1506 H1500 0.930 . S
C1506 C1507 1.355 . S
C1506 C1508 1.415 . S
C1507 C1506 1.355 . S
C1507 C1509 1.419 . S
C1508 C1506 1.415 . S
C1508 C1513 1.425 . S
C1508 C1515 1.409 . S
C1509 H1501 0.930 . S
C1509 C1507 1.419 . S
C1509 C1510 1.362 . S
C1510 H1502 0.930 . S
C1510 C1509 1.362 . S
C1510 C1513 1.409 . S
C1511 H1503 0.930 . S
C1511 C1512 1.355 . S
C1511 C1513 1.415 . S
C1512 C1511 1.355 . S
C1512 C1514 1.419 . S
C1513 C1508 1.425 . S
C1513 C1510 1.409 . S
C1513 C1511 1.415 . S
C1514 H1504 0.930 . S
C1514 C1512 1.419 . S
C1514 C1515 1.362 . S
C1515 H1505 0.930 . S
C1515 C1508 1.409 . S
C1515 C1514 1.362 . S
H1516 C1522 0.930 . S
H1517 C1525 0.930 . S
H1518 C1526 0.930 . S
H1519 C1527 0.930 . S
H1520 C1530 0.930 . S
H1521 C1531 0.930 . S
C1522 H1516 0.930 . S
C1522 C1523 1.355 . S
C1522 C1524 1.415 . S
C1523 C1522 1.355 . S
C1523 C1525 1.419 . S
C1524 C1522 1.415 . S
C1524 C1529 1.425 . S
C1524 C1531 1.409 . S
C1525 H1517 0.930 . S
C1525 C1523 1.419 . S
C1525 C1526 1.362 . S
C1526 H1518 0.930 . S
C1526 C1525 1.362 . S
C1526 C1529 1.409 . S
C1527 H1519 0.930 . S
C1527 C1528 1.355 . S
C1527 C1529 1.415 . S
C1528 C1527 1.355 . S
C1528 C1530 1.419 . S
C1529 C1524 1.425 . S
C1529 C1526 1.409 . S
C1529 C1527 1.415 . S
C1530 H1520 0.930 . S
C1530 C1528 1.419 . S
C1530 C1531 1.362 . S
C1531 H1521 0.930 . S
C1531 C1524 1.409 . S
C1531 C1530 1.362 . S
H1532 C1538 0.930 . S
H1533 C1541 0.930 . S
H1534 C1542 0.930 . S
H1535 C1543 0.930 . S
H1536 C1546 0.930 . S
H1537 C1547 0.930 . S
C1538 H1532 0.930 . S
C1538 C1539 1.355 . S
C1538 C1540 1.415 . S
C1539 C1538 1.355 . S
C1539 C1541 1.419 . S
C1540 C1538 1.415 . S
C1540 C1545 1.425 . S
C1540 C1547 1.409 . S
C1541 H1533 0.930 . S
C1541 C1539 1.419 . S
C1541 C1542 1.362 . S
C1542 H1534 0.930 . S
C1542 C1541 1.362 . S
C1542 C1545 1.409 . S
C1543 H1535 0.930 . S
C1543 C1544 1.355 . S
C1543 C1545 1.415 . S
C1544 C1543 1.355 . S
C1544 C1546 1.419 . S
C1545 C1540 1.425 . S
C1545 C1542 1.409 . S
C1545 C1543 1.415 . S
C1546 H1536 0.930 . S
C1546 C1544 1.419 . S
C1546 C1547 1.362 . S
C1547 H1537 0.930 . S
C1547 C1540 1.409 . S
C1547 C1546 1.362 . S
H1548 C1554 0.930 . S
H1549 C1557 0.930 . S
H1550 C1558 0.930 . S
H1551 C1559 0.930 . S
H1552 C1562 0.930 . S
H1553 C1563 0.930 . S
C1554 H1548 0.930 . S
C1554 C1555 1.355 . S
C1554 C1556 1.415 . S
C1555 C1554 1.355 . S
C1555 C1557 1.419 . S
C1556 C1554 1.415 . S
C1556 C1561 1.425 . S
C1556 C1563 1.409 . S
C1557 H1549 0.930 . S
C1557 C1555 1.419 . S
C1557 C1558 1.362 . S
C1558 H1550 0.930 . S
C1558 C1557 1.362 . S
C1558 C1561 1.409 . S
C1559 H1551 0.930 . S
C1559 C1560 1.355 . S
C1559 C1561 1.415 . S
C1560 C1559 1.355 . S
C1560 C1562 1.419 . S
C1561 C1556 1.425 . S
C1561 C1558 1.409 . S
C1561 C1559 1.415 . S
C1562 H1552 0.930 . S
C1562 C1560 1.419 . S
C1562 C1563 1.362 . S
C1563 H1553 0.930 . S
C1563 C1556 1.409 . S
C1563 C1562 1.362 . S
H1564 C1570 0.930 . S
H1565 C1573 0.930 . S
H1566 C1574 0.930 . S
H1567 C1575 0.930 . S
H1568 C1578 0.930 . S
H1569 C1579 0.930 . S
C1570 H1564 0.930 . S
C1570 C1571 1.355 . S
C1570 C1572 1.415 . S
C1571 C1570 1.355 . S
C1571 C1573 1.419 . S
C1572 C1570 1.415 . S
C1572 C1577 1.425 . S
C1572 C1579 1.409 . S
C1573 H1565 0.930 . S
C1573 C1571 1.419 . S
C1573 C1574 1.362 . S
C1574 H1566 0.930 . S
C1574 C1573 1.362 . S
C1574 C1577 1.409 . S
C1575 H1567 0.930 . S
C1575 C1576 1.355 . S
C1575 C1577 1.415 . S
C1576 C1575 1.355 . S
C1576 C1578 1.419 . S
C1577 C1572 1.425 . S
C1577 C1574 1.409 . S
C1577 C1575 1.415 . S
C1578 H1568 0.930 . S
C1578 C1576 1.419 . S
C1578 C1579 1.362 . S
C1579 H1569 0.930 . S
C1579 C1572 1.409 . S
C1579 C1578 1.362 . S
H1580 C1586 0.930 . S
H1581 C1589 0.930 . S
H1582 C1590 0.930 . S
H1583 C1591 0.930 . S
H1584 C1594 0.930 . S
H1585 C1595 0.930 . S
C1586 H1580 0.930 . S
C1586 C1587 1.355 . S
C1586 C1588 1.415 . S
C1587 C1586 1.355 . S
C1587 C1589 1.419 . S
C1588 C1586 1.415 . S
C1588 C1593 1.425 . S
C1588 C1595 1.409 . S
C1589 H1581 0.930 . S
C1589 C1587 1.419 . S
C1589 C1590 1.362 . S
C1590 H1582 0.930 . S
C1590 C1589 1.362 . S
C1590 C1593 1.409 . S
C1591 H1583 0.930 . S
C1591 C1592 1.355 . S
C1591 C1593 1.415 . S
C1592 C1591 1.355 . S
C1592 C1594 1.419 . S
C1593 C1588 1.425 . S
C1593 C1590 1.409 . S
C1593 C1591 1.415 . S
C1594 H1584 0.930 . S
C1594 C1592 1.419 . S
C1594 C1595 1.362 . S
C1595 H1585 0.930 . S
C1595 C1588 1.409 . S
C1595 C1594 1.362 . S
H1596 C1602 0.930 . S
H1597 C1605 0.930 . S
H1598 C1606 0.930 . S
H1599 C1607 0.930 . S
H1600 C1610 0.930 . S
H1601 C1611 0.930 . S
C1602 H1596 0.930 . S
C1602 C1603 1.355 . S
C1602 C1604 1.415 . S
C1603 C1602 1.355 . S
C1603 C1605 1.419 . S
C1604 C1602 1.415 . S
C1604 C1609 1.425 . S
C1604 C1611 1.409 . S
C1605 H1597 0.930 . S
C1605 C1603 1.419 . S
C1605 C1606 1.362 . S
C1606 H1598 0.930 . S
C1606 C1605 1.362 . S
C1606 C1609 1.409 . S
C1607 H1599 0.930 . S
C1607 C1608 1.355 . S
C1607 C1609 1.415 . S
C1608 C1607 1.355 . S
C1608 C1610 1.419 . S
C1609 C1604 1.425 . S
C1609 C1606 1.409 . S
C1609 C1607 1.415 . S
C1610 H1600 0.930 . S
C1610 C1608 1.419 . S
C1610 C1611 1.362 . S
C1611 H1601 0.930 . S
C1611 C1604 1.409 . S
C1611 C1610 1.362 . S
H1612 C1618 0.930 . S
H1613 C1621 0.930 . S
H1614 C1622 0.930 . S
H1615 C1623 0.930 . S
H1616 C1626 0.930 . S
H1617 C1627 0.930 . S
C1618 H1612 0.930 . S
C1618 C1619 1.355 . S
C1618 C1620 1.415 . S
C1619 C1618 1.355 . S
C1619 C1621 1.419 . S
C1620 C1618 1.415 . S
C1620 C1625 1.425 . S
C1620 C1627 1.409 . S
C1621 H1613 0.930 . S
C1621 C1619 1.419 . S
C1621 C1622 1.362 . S
C1622 H1614 0.930 . S
C1622 C1621 1.362 . S
C1622 C1625 1.409 . S
C1623 H1615 0.930 . S
C1623 C1624 1.355 . S
C1623 C1625 1.415 . S
C1624 C1623 1.355 . S
C1624 C1626 1.419 . S
C1625 C1620 1.425 . S
C1625 C1622 1.409 . S
C1625 C1623 1.415 . S
C1626 H1616 0.930 . S
C1626 C1624 1.419 . S
C1626 C1627 1.362 . S
C1627 H1617 0.930 . S
C1627 C1620 1.409 . S
C1627 C1626 1.362 . S
H1628 C1634 0.930 . S
H1629 C1637 0.930 . S
H1630 C1638 0.930 . S
H1631 C1639 0.930 . S
H1632 C1642 0.930 . S
H1633 C1643 0.930 . S
C1634 H1628 0.930 . S
C1634 C1635 1.355 . S
C1634 C1636 1.415 . S
C1635 C1634 1.355 . S
C1635 C1637 1.419 . S
C1636 C1634 1.415 . S
C1636 C1641 1.425 . S
C1636 C1643 1.409 . S
C1637 H1629 0.930 . S
C1637 C1635 1.419 . S
C1637 C1638 1.362 . S
C1638 H1630 0.930 . S
C1638 C1637 1.362 . S
C1638 C1641 1.409 . S
C1639 H1631 0.930 . S
C1639 C1640 1.355 . S
C1639 C1641 1.415 . S
C1640 C1639 1.355 . S
C1640 C1642 1.419 . S
C1641 C1636 1.425 . S
C1641 C1638 1.409 . S
C1641 C1639 1.415 . S
C1642 H1632 0.930 . S
C1642 C1640 1.419 . S
C1642 C1643 1.362 . S
C1643 H1633 0.930 . S
C1643 C1636 1.409 . S
C1643 C1642 1.362 . S
H1644 C1650 0.930 . S
H1645 C1653 0.930 . S
H1646 C1654 0.930 . S
H1647 C1655 0.930 . S
H1648 C1658 0.930 . S
H1649 C1659 0.930 . S
C1650 H1644 0.930 . S
C1650 C1651 1.355 . S
C1650 C1652 1.415 . S
C1651 C1650 1.355 . S
C1651 C1653 1.419 . S
C1652 C1650 1.415 . S
C1652 C1657 1.425 . S
C1652 C1659 1.409 . S
C1653 H1645 0.930 . S
C1653 C1651 1.419 . S
C1653 C1654 1.362 . S
C1654 H1646 0.930 . S
C1654 C1653 1.362 . S
C1654 C1657 1.409 . S
C1655 H1647 0.930 . S
C1655 C1656 1.355 . S
C1655 C1657 1.415 . S
C1656 C1655 1.355 . S
C1656 C1658 1.419 . S
C1657 C1652 1.425 . S
C1657 C1654 1.409 . S
C1657 C1655 1.415 . S
C1658 H1648 0.930 . S
C1658 C1656 1.419 . S
C1658 C1659 1.362 . S
C1659 H1649 0.930 . S
C1659 C1652 1.409 . S
C1659 C1658 1.362 . S
H1660 C1666 0.930 . S
H1661 C1669 0.930 . S
H1662 C1670 0.930 . S
H1663 C1671 0.930 . S
H1664 C1674 0.930 . S
H1665 C1675 0.930 . S
C1666 H1660 0.930 . S
C1666 C1667 1.355 . S
C1666 C1668 1.415 . S
C1667 C1666 1.355 . S
C1667 C1669 1.419 . S
C1668 C1666 1.415 . S
C1668 C1673 1.425 . S
C1668 C1675 1.409 . S
C1669 H1661 0.930 . S
C1669 C1667 1.419 . S
C1669 C1670 1.362 . S
C1670 H1662 0.930 . S
C1670 C1669 1.362 . S
C1670 C1673 1.409 . S
C1671 H1663 0.930 . S
C1671 C1672 1.355 . S
C1671 C1673 1.415 . S
C1672 C1671 1.355 . S
C1672 C1674 1.419 . S
C1673 C1668 1.425 . S
C1673 C1670 1.409 . S
C1673 C1671 1.415 . S
C1674 H1664 0.930 . S
C1674 C1672 1.419 . S
C1674 C1675 1.362 . S
C1675 H1665 0.930 . S
C1675 C1668 1.409 . S
C1675 C1674 1.362 . S
H1676 C1682 0.930 . S
H1677 C1685 0.930 . S
H1678 C1686 0.930 . S
H1679 C1687 0.930 . S
H1680 C1690 0.930 . S
H1681 C1691 0.930 . S
C1682 H1676 0.930 . S
C1682 C1683 1.355 . S
C1682 C1684 1.415 . S
C1683 C1682 1.355 . S
C1683 C1685 1.419 . S
C1684 C1682 1.415 . S
C1684 C1689 1.425 . S
C1684 C1691 1.409 . S
C1685 H1677 0.930 . S
C1685 C1683 1.419 . S
C1685 C1686 1.362 . S
C1686 H1678 0.930 . S
C1686 C1685 1.362 . S
C1686 C1689 1.409 . S
C1687 H1679 0.930 . S
C1687 C1688 1.355 . S
C1687 C1689 1.415 . S
C1688 C1687 1.355 . S
C1688 C1690 1.419 . S
C1689 C1684 1.425 . S
C1689 C1686 1.409 . S
C1689 C1687 1.415 . S
C1690 H1680 0.930 . S
C1690 C1688 1.419 . S
C1690 C1691 1.362 . S
C1691 H1681 0.930 . S
C1691 C1684 1.409 . S
C1691 C1690 1.362 . S
H1692 C1698 0.930 . S
H1693 C1701 0.930 . S
H1694 C1702 0.930 . S
H1695 C1703 0.930 . S
H1696 C1706 0.930 . S
H1697 C1707 0.930 . S
C1698 H1692 0.930 . S
C1698 C1699 1.355 . S
C1698 C1700 1.415 . S
C1699 C1698 1.355 . S
C1699 C1701 1.419 . S
C1700 C1698 1.415 . S
C1700 C1705 1.425 . S
C1700 C1707 1.409 . S
C1701 H1693 0.930 . S
C1701 C1699 1.419 . S
C1701 C1702 1.362 . S
C1702 H1694 0.930 . S
C1702 C1701 1.362 . S
C1702 C1705 1.409 . S
C1703 H1695 0.930 . S
C1703 C1704 1.355 . S
C1703 C1705 1.415 . S
C1704 C1703 1.355 . S
C1704 C1706 1.419 . S
C1705 C1700 1.425 . S
C1705 C1702 1.409 . S
C1705 C1703 1.415 . S
C1706 H1696 0.930 . S
C1706 C1704 1.419 . S
C1706 C1707 1.362 . S
C1707 H1697 0.930 . S
C1707 C1700 1.409 . S
C1707 C1706 1.362 . S
H1708 C1714 0.930 . S
H1709 C1717 0.930 . S
H1710 C1718 0.930 . S
H1711 C1719 0.930 . S
H1712 C1722 0.930 . S
H1713 C1723 0.930 . S
C1714 H1708 0.930 . S
C1714 C1715 1.355 . S
C1714 C1716 1.415 . S
C1715 C1714 1.355 . S
C1715 C1717 1.419 . S
C1716 C1714 1.415 . S
C1716 C1721 1.425 . S
C1716 C1723 1.409 . S
C1717 H1709 0.930 . S
C1717 C1715 1.419 . S
C1717 C1718 1.362 . S
C1718 H1710 0.930 . S
C1718 C1717 1.362 . S
C1718 C1721 1.409 . S
C1719 H1711 0.930 . S
C1719 C1720 1.355 . S
C1719 C1721 1.415 . S
C1720 C1719 1.355 . S
C1720 C1722 1.419 . S
C1721 C1716 1.425 . S
C1721 C1718 1.409 . S
C1721 C1719 1.415 . S
C1722 H1712 0.930 . S
C1722 C1720 1.419 . S
C1722 C1723 1.362 . S
C1723 H1713 0.930 . S
C1723 C1716 1.409 . S
C1723 C1722 1.362 . S
H1724 C1730 0.930 . S
H1725 C1733 0.930 . S
H1726 C1734 0.930 . S
H1727 C1735 0.930 . S
H1728 C1738 0.930 . S
H1729 C1739 0.930 . S
C1730 H1724 0.930 . S
C1730 C1731 1.355 . S
C1730 C1732 1.415 . S
C1731 C1730 1.355 . S
C1731 C1733 1.419 . S
C1732 C1730 1.415 . S
C1732 C1737 1.425 . S
C1732 C1739 1.409 . S
C1733 H1725 0.930 . S
C1733 C1731 1.419 . S
C1733 C1734 1.362 . S
C1734 H1726 0.930 . S
C1734 C1733 1.362 . S
C1734 C1737 1.409 . S
C1735 H1727 0.930 . S
C1735 C1736 1.355 . S
C1735 C1737 1.415 . S
C1736 C1735 1.355 . S
C1736 C1738 1.419 . S
C1737 C1732 1.425 . S
C1737 C1734 1.409 . S
C1737 C1735 1.415 . S
C1738 H1728 0.930 . S
C1738 C1736 1.419 . S
C1738 C1739 1.362 . S
C1739 H1729 0.930 . S
C1739 C1732 1.409 . S
C1739 C1738 1.362 . S
H1740 C1746 0.930 . S
H1741 C1749 0.930 . S
H1742 C1750 0.930 . S
H1743 C1751 0.930 . S
H1744 C1754 0.930 . S
H1745 C1755 0.930 . S
C1746 H1740 0.930 . S
C1746 C1747 1.355 . S
C1746 C1748 1.415 . S
C1747 C1746 1.355 . S
C1747 C1749 1.419 . S
C1748 C1746 1.415 . S
C1748 C1753 1.425 . S
C1748 C1755 1.409 . S
C1749 H1741 0.930 . S
C1749 C1747 1.419 . S
C1749 C1750 1.362 . S
C1750 H1742 0.930 . S
C1750 C1749 1.362 . S
C1750 C1753 1.409 . S
C1751 H1743 0.930 . S
C1751 C1752 1.355 . S
C1751 C1753 1.415 . S
C1752 C1751 1.355 . S
C1752 C1754 1.419 . S
C1753 C1748 1.425 . S
C1753 C1750 1.409 . S
C1753 C1751 1.415 . S
C1754 H1744 0.930 . S
C1754 C1752 1.419 . S
C1754 C1755 1.362 . S
C1755 H1745 0.930 . S
C1755 C1748 1.409 . S
C1755 C1754 1.362 . S
H1756 C1762 0.930 . S
H1757 C1765 0.930 . S
H1758 C1766 0.930 . S
H1759 C1767 0.930 . S
H1760 C1770 0.930 . S
H1761 C1771 0.930 . S
C1762 H1756 0.930 . S
C1762 C1763 1.355 . S
C1762 C1764 1.415 . S
C1763 C1762 1.355 . S
C1763 C1765 1.419 . S
C1764 C1762 1.415 . S
C1764 C1769 1.425 . S
C1764 C1771 1.409 . S
C1765 H1757 0.930 . S
C1765 C1763 1.419 . S
C1765 C1766 1.362 . S
C1766 H1758 0.930 . S
C1766 C1765 1.362 . S
C1766 C1769 1.409 . S
C1767 H1759 0.930 . S
C1767 C1768 1.355 . S
C1767 C1769 1.415 . S
C1768 C1767 1.355 . S
C1768 C1770 1.419 . S
C1769 C1764 1.425 . S
C1769 C1766 1.409 . S
C1769 C1767 1.415 . S
C1770 H1760 0.930 . S
C1770 C1768 1.419 . S
C1770 C1771 1.362 . S
C1771 H1761 0.930 . S
C1771 C1764 1.409 . S
C1771 C1770 1.362 . S
H1772 C1778 0.930 . S
H1773 C1781 0.930 . S
H1774 C1782 0.930 . S
H1775 C1783 0.930 . S
H1776 C1786 0.930 . S
H1777 C1787 0.930 . S
C1778 H1772 0.930 . S
C1778 C1779 1.355 . S
C1778 C1780 1.415 . S
C1779 C1778 1.355 . S
C1779 C1781 1.419 . S
C1780 C1778 1.415 . S
C1780 C1785 1.425 . S
C1780 C1787 1.409 . S
C1781 H1773 0.930 . S
C1781 C1779 1.419 . S
C1781 C1782 1.362 . S
C1782 H1774 0.930 . S
C1782 C1781 1.362 . S
C1782 C1785 1.409 . S
C1783 H1775 0.930 . S
C1783 C1784 1.355 . S
C1783 C1785 1.415 . S
C1784 C1783 1.355 . S
C1784 C1786 1.419 . S
C1785 C1780 1.425 . S
C1785 C1782 1.409 . S
C1785 C1783 1.415 . S
C1786 H1776 0.930 . S
C1786 C1784 1.419 . S
C1786 C1787 1.362 . S
C1787 H1777 0.930 . S
C1787 C1780 1.409 . S
C1787 C1786 1.362 . S
H1788 C1794 0.930 . S
H1789 C1797 0.930 . S
H1790 C1798 0.930 . S
H1791 C1799 0.930 . S
H1792 C1802 0.930 . S
H1793 C1803 0.930 . S
C1794 H1788 0.930 . S
C1794 C1795 1.355 . S
C1794 C1796 1.415 . S
C1795 C1794 1.355 . S
C1795 C1797 1.419 . S
C1796 C1794 1.415 . S
C1796 C1801 1.425 . S
C1796 C1803 1.409 . S
C1797 H1789 0.930 . S
C1797 C1795 1.419 . S
C1797 C1798 1.362 . S
C1798 H1790 0.930 . S
C1798 C1797 1.362 . S
C1798 C1801 1.409 . S
C1799 H1791 0.930 . S
C1799 C1800 1.355 . S
C1799 C1801 1.415 . S
C1800 C1799 1.355 . S
C1800 C1802 1.419 . S
C1801 C1796 1.425 . S
C1801 C1798 1.409 . S
C1801 C1799 1.415 . S
C1802 H1792 0.930 . S
C1802 C1800 1.419 . S
C1802 C1803 1.362 . S
C1803 H1793 0.930 . S
C1803 C1796 1.409 . S
C1803 C1802 1.362 . S
H1804 C1810 0.930 . S
H1805 C1813 0.930 . S
H1806 C1814 0.930 . S
H1807 C1815 0.930 . S
H1808 C1818 0.930 . S
H1809 C1819 0.930 . S
C1810 H1804 0.930 . S
C1810 C1811 1.355 . S
C1810 C1812 1.415 . S
C1811 C1810 1.355 . S
C1811 C1813 1.419 . S
C1812 C1810 1.415 . S
C1812 C1817 1.425 . S
C1812 C1819 1.409 . S
C1813 H1805 0.930 . S
C1813 C1811 1.419 . S
C1813 C1814 1.362 . S
C1814 H1806 0.930 . S
C1814 C1813 1.362 . S
C1814 C1817 1.409 . S
C1815 H1807 0.930 . S
C1815 C1816 1.355 . S
C1815 C1817 1.415 . S
C1816 C1815 1.355 . S
C1816 C1818 1.419 . S
C1817 C1812 1.425 . S
C1817 C1814 1.409 . S
C1817 C1815 1.415 . S
C1818 H1808 0.930 . S
C1818 C1816 1.419 . S
C1818 C1819 1.362 . S
C1819 H1809 0.930 . S
C1819 C1812 1.409 . S
C1819 C1818 1.362 . S
H1820 C1826 0.930 . S
H1821 C1829 0.930 . S
H1822 C1830 0.930 . S
H1823 C1831 0.930 . S
H1824 C1834 0.930 . S
H1825 C1835 0.930 . S
C1826 H1820 0.930 . S
C1826 C1827 1.355 . S
C1826 C1828 1.415 . S
C1827 C1826 1.355 . S
C1827 C1829 1.419 . S
C1828 C1826 1.415 . S
C1828 C1833 1.425 . S
C1828 C1835 1.409 . S
C1829 H1821 0.930 . S
C1829 C1827 1.419 . S
C1829 C1830 1.362 . S
C1830 H1822 0.930 . S
C1830 C1829 1.362 . S
C1830 C1833 1.409 . S
C1831 H1823 0.930 . S
C1831 C1832 1.355 . S
C1831 C1833 1.415 . S
C1832 C1831 1.355 . S
C1832 C1834 1.419 . S
C1833 C1828 1.425 . S
C1833 C1830 1.409 . S
C1833 C1831 1.415 . S
C1834 H1824 0.930 . S
C1834 C1832 1.419 . S
C1834 C1835 1.362 . S
C1835 H1825 0.930 . S
C1835 C1828 1.409 . S
C1835 C1834 1.362 . S
C979 C162 1.465 . S
C984 C283 1.389 . S
C995 C174 1.493 . S
C1000 C367 1.424 . S
C1011 C150 1.461 . S
C1016 C447 1.435 . S
C1027 C138 1.449 . S
C1032 C363 1.439 . S
C1048 C451 1.391 . S
C1043 C114 1.431 . S
C1059 C126 1.423 . S
C1064 C279 1.388 1_556 S
C1080 C272 1.483 . S
C1075 C136 1.489 . S
C1096 C356 1.463 . S
C1091 C112 1.536 . S
C1107 C124 1.525 . S
C1112 C458 1.500 1_556 S
C1123 C160 1.464 . S
C1128 C374 1.420 . S
C1139 C172 1.490 . S
C1144 C440 1.416 . S
C1160 C290 1.472 . S
C1155 C148 1.479 . S
C1176 C535 1.375 . S
C1171 C18 1.467 . S
C1187 C30 1.490 . S
C1192 C619 1.393 . S
C1203 C6 1.437 . S
C1208 C699 1.449 . S
C1219 C210 1.446 . S
C1224 C615 1.422 . S
C1235 C186 1.452 . S
C1240 C703 1.347 . S
C1251 C198 1.402 . S
C1256 C531 1.417 . S
C1267 C208 1.475 . S
C1272 C524 1.457 . S
C1283 C184 1.522 . S
C1288 C608 1.491 . S
C1304 C710 1.513 . S
C1299 C196 1.532 . S
C1315 C16 1.509 . S
C1320 C626 1.476 . S
C1336 C692 1.460 . S
C1331 C28 1.463 1_455 S
C1347 C4 1.453 . S
C1352 C542 1.395 . S
C1368 C787 1.441 . S
C1363 C90 1.446 . S
C1379 C102 1.476 . S
C1384 C871 1.465 . S
C1400 C951 1.431 . S
C1395 C78 1.455 . S
C1416 C867 1.436 . S
C1411 C66 1.421 . S
C1432 C955 1.411 . S
C1427 C42 1.446 . S
C1443 C54 1.414 . S
C1448 C783 1.427 . S
C1459 C64 1.449 1_655 S
C1464 C776 1.460 . S
C1475 C40 1.496 . S
C1480 C860 1.491 . S
C1496 C962 1.463 . S
C1491 C52 1.524 . S
C1507 C88 1.510 . S
C1512 C878 1.468 . S
C1523 C100 1.455 . S
C1528 C944 1.431 . S
C1539 C76 1.465 . S
C1544 C794 1.399 . S
C1555 C189 1.578 . S
C1560 C286 1.404 . S
C1576 C370 1.426 . S
C1571 C201 1.621 . S
C1587 C213 1.570 . S
C1592 C442 1.445 . S
C1603 C81 1.582 . S
C1608 C358 1.436 . S
C1619 C93 1.585 . S
C1624 C454 1.399 . S
C1640 C274 1.329 . S
C1635 C105 1.548 . S
C1651 C45 1.553 . S
C1656 C538 1.502 . S
C1667 C57 1.636 . S
C1672 C622 1.443 . S
C1683 C69 1.554 . S
C1688 C694 1.341 . S
C1699 C153 1.578 . S
C1704 C610 1.327 . S
C1720 C706 1.401 . S
C1715 C165 1.594 . S
C1731 C177 1.554 . S
C1736 C526 1.363 . S
C1747 C117 1.555 . S
C1752 C790 1.438 . S
C1763 C129 1.616 . S
C1768 C874 1.431 . S
C1784 C946 1.429 . S
C1779 C141 1.561 . S
C1795 C9 1.603 . S
C1800 C862 1.387 . S
C1811 C21 1.568 . S
C1816 C958 1.496 . S
C1827 C33 1.555 . S
C1832 C778 1.367 . S
