# Generated by pormake.
# Topology anh, (6,3)-cn, num edge types: 1
# Building blocks:
#     Node 0, Type 0, BuildingBlock: GEDQOX_clean_sbu_0, # of connection points: 6
#     Node 1, Type 0, BuildingBlock: GEDQOX_clean_sbu_0, # of connection points: 6
#     Node 2, Type 0, BuildingBlock: GEDQOX_clean_sbu_0, # of connection points: 6
#     Node 3, Type 1, BuildingBlock: VETTIZ_charged_linker_0, # of connection points: 3
#     Node 4, Type 1, BuildingBlock: VETTIZ_charged_linker_0, # of connection points: 3
#     Node 5, Type 1, BuildingBlock: VETTIZ_charged_linker_0, # of connection points: 3
#     Node 6, Type 1, BuildingBlock: VETTIZ_charged_linker_0, # of connection points: 3
#     Node 7, Type 1, BuildingBlock: VETTIZ_charged_linker_0, # of connection points: 3
#     Node 8, Type 1, BuildingBlock: VETTIZ_charged_linker_0, # of connection points: 3
#     Edge 9, Type (0, 1), BuildingBlock: UVAHIK_clean_linker_0, # of connection points: 2
#     Edge 10, Type (0, 1), BuildingBlock: UVAHIK_clean_linker_0, # of connection points: 2
#     Edge 11, Type (0, 1), BuildingBlock: UVAHIK_clean_linker_0, # of connection points: 2
#     Edge 12, Type (0, 1), BuildingBlock: UVAHIK_clean_linker_0, # of connection points: 2
#     Edge 13, Type (0, 1), BuildingBlock: UVAHIK_clean_linker_0, # of connection points: 2
#     Edge 14, Type (0, 1), BuildingBlock: UVAHIK_clean_linker_0, # of connection points: 2
#     Edge 15, Type (0, 1), BuildingBlock: UVAHIK_clean_linker_0, # of connection points: 2
#     Edge 16, Type (0, 1), BuildingBlock: UVAHIK_clean_linker_0, # of connection points: 2
#     Edge 17, Type (0, 1), BuildingBlock: UVAHIK_clean_linker_0, # of connection points: 2
#     Edge 18, Type (0, 1), BuildingBlock: UVAHIK_clean_linker_0, # of connection points: 2
#     Edge 19, Type (0, 1), BuildingBlock: UVAHIK_clean_linker_0, # of connection points: 2
#     Edge 20, Type (0, 1), BuildingBlock: UVAHIK_clean_linker_0, # of connection points: 2
#     Edge 21, Type (0, 1), BuildingBlock: UVAHIK_clean_linker_0, # of connection points: 2
#     Edge 22, Type (0, 1), BuildingBlock: UVAHIK_clean_linker_0, # of connection points: 2
#     Edge 23, Type (0, 1), BuildingBlock: UVAHIK_clean_linker_0, # of connection points: 2
#     Edge 24, Type (0, 1), BuildingBlock: UVAHIK_clean_linker_0, # of connection points: 2
#     Edge 25, Type (0, 1), BuildingBlock: UVAHIK_clean_linker_0, # of connection points: 2
#     Edge 26, Type (0, 1), BuildingBlock: UVAHIK_clean_linker_0, # of connection points: 2
# Relax obj value: 0.165
# Max RMSD: 0.202
# Mean RMSD: 0.154
data_MOF--net-anh--node1-GEDQOX_clean_sbu_0--node2-VETTIZ_charged_linker_0--edge1-UVAHIK_clean_linker_0
_symmetry_space_group_name_H-M    P1
_symmetry_Int_Tables_number       1
_symmetry_cell_setting            triclinic
loop_
_symmetry_equiv_pos_as_xyz
'x, y, z'
_cell_length_a     44.738876
_cell_length_b     43.658133
_cell_length_c     83.09303
_cell_angle_alpha  93.103892
_cell_angle_beta   90.724663
_cell_angle_gamma 107.59273
loop_
_atom_site_label
_atom_site_type_symbol
_atom_site_fract_x
_atom_site_fract_y
_atom_site_fract_z
_atom_type_partial_charge
Nd0 Nd 0.07907 0.54058 0.14704 0.0
Nd1 Nd 0.05882 0.46908 0.1518 0.0
C2 C 0.10678 0.59843 0.1369 0.0
C3 C 0.13809 0.62198 0.13936 0.0
C4 C 0.14894 0.64598 0.12845 0.0
C5 C 0.17875 0.66843 0.13073 0.0
C6 C 0.19822 0.66729 0.144 0.0
C7 C 0.1872 0.64288 0.15482 0.0
C8 C 0.1575 0.62037 0.15247 0.0
C9 C 0.07043 0.52601 0.1786 0.0
C10 C 0.13381 0.50308 0.15136 0.0
C11 C 1.03163 0.41014 0.16085 0.0
C12 C 0.99947 0.3885 0.16302 0.0
C13 C 0.98265 0.39198 0.17683 0.0
C14 C 0.95259 0.37097 0.17889 0.0
C15 C 0.93861 0.34597 0.16722 0.0
C16 C 0.95547 0.34257 0.15341 0.0
C17 C 0.98557 0.36349 0.15138 0.0
C18 C 0.06954 0.48555 0.12064 0.0
C19 C 1.00436 0.50633 0.14745 0.0
O20 O 0.10564 0.57178 0.12855 0.0
O21 O 0.08924 0.59348 0.14956 0.0
O22 O 0.0636 0.54989 0.17249 0.0
O23 O 0.08324 0.51194 0.1684 0.0
O24 O 0.12663 0.52893 0.14712 0.0
O25 O 0.11179 0.47694 0.15533 0.0
O26 O 1.04211 0.43524 0.17103 0.0
O27 O 1.03983 0.41649 0.14604 0.0
O28 O 0.07816 0.46267 0.12673 0.0
O29 O 0.05498 0.49784 0.13067 0.0
O30 O 1.0118 0.48187 0.15337 0.0
O31 O 1.02629 0.53083 0.1419 0.0
H32 H 0.13436 0.64734 0.11817 0.0
H33 H 0.18662 0.68651 0.12201 0.0
H34 H 0.20127 0.64145 0.16528 0.0
H35 H 0.14957 0.60182 0.16097 0.0
H36 H 0.99273 0.41076 0.18614 0.0
H37 H 0.94057 0.37399 0.18982 0.0
H38 H 0.94534 0.32384 0.14409 0.0
H39 H 0.99801 0.36004 0.14066 0.0
Nd40 Nd 0.5201 0.99899 0.507 0.0
Nd41 Nd 0.58853 0.01775 0.49809 0.0
C42 C 0.4646 0.97284 0.51936 0.0
C43 C 0.44072 0.94118 0.51723 0.0
C44 C 0.41616 0.93236 0.52799 0.0
C45 C 0.3931 0.90242 0.5258 0.0
C46 C 0.3942 0.88082 0.51275 0.0
C47 C 0.41918 0.88981 0.5021 0.0
C48 C 0.44226 0.91962 0.50436 0.0
C49 C 0.53012 0.0032 0.47462 0.0
C50 C 0.55496 0.94229 0.50061 0.0
C51 C 0.64358 0.04331 0.48517 0.0
C52 C 0.66633 0.07554 0.4837 0.0
C53 C 0.67453 0.08643 0.46831 0.0
C54 C 0.69621 0.11664 0.46655 0.0
C55 C 0.71037 0.13653 0.48016 0.0
C56 C 0.70217 0.12562 0.49558 0.0
C57 C 0.68027 0.09547 0.49735 0.0
C58 C 0.57839 0.01246 0.53042 0.0
C59 C 0.5537 0.07418 0.5047 0.0
O60 O 0.49104 0.97329 0.52644 0.0
O61 O 0.46875 0.99042 0.50685 0.0
O62 O 0.50855 0.01256 0.48179 0.0
O63 O 0.54431 0.99075 0.48425 0.0
O64 O 0.53222 0.95112 0.50762 0.0
O65 O 0.57821 0.96332 0.49376 0.0
O66 O 0.61687 0.03717 0.47712 0.0
O67 O 0.6404 0.03174 0.49946 0.0
O68 O 0.6 0.00336 0.5231 0.0
O69 O 0.5643 0.02542 0.52096 0.0
O70 O 0.5758 0.06536 0.49703 0.0
O71 O 0.53154 0.05319 0.51222 0.0
H72 H 0.41477 0.94866 0.53806 0.0
H73 H 0.37452 0.89616 0.53438 0.0
H74 H 0.42062 0.8741 0.49179 0.0
H75 H 0.46117 0.92603 0.49595 0.0
H76 H 0.66424 0.07146 0.45761 0.0
H77 H 0.70233 0.12417 0.4545 0.0
H78 H 0.71248 0.14053 0.50629 0.0
H79 H 0.67433 0.08782 0.50939 0.0
Nd80 Nd 0.51761 0.49608 0.82479 0.0
Nd81 Nd 0.58453 0.52248 0.83586 0.0
C82 C 0.46337 0.4902 0.81027 0.0
C83 C 0.44759 0.51506 0.80798 0.0
C84 C 0.4545 0.53473 0.79477 0.0
C85 C 0.444 0.56178 0.79416 0.0
C86 C 0.42656 0.56966 0.80676 0.0
C87 C 0.41816 0.54901 0.81945 0.0
C88 C 0.4284 0.52195 0.82002 0.0
C89 C 0.5272 0.49426 0.8573 0.0
C90 C 0.54795 0.5739 0.83385 0.0
C91 C 0.64163 0.53308 0.84811 0.0
C92 C 0.66859 0.52299 0.84239 0.0
C93 C 0.67736 0.49905 0.85012 0.0
C94 C 0.70156 0.48798 0.84416 0.0
C95 C 0.71759 0.50082 0.83043 0.0
C96 C 0.70896 0.52491 0.82278 0.0
C97 C 0.68473 0.53587 0.82868 0.0
C98 C 0.57529 0.52261 0.80314 0.0
C99 C 0.55254 0.44338 0.82802 0.0
O100 O 0.48921 0.49341 0.80242 0.0
O101 O 0.46574 0.48229 0.8251 0.0
O102 O 0.50751 0.47106 0.84862 0.0
O103 O 0.54022 0.51775 0.84902 0.0
O104 O 0.52831 0.55117 0.82445 0.0
O105 O 0.56995 0.56742 0.84249 0.0
O106 O 0.61746 0.51027 0.85278 0.0
O107 O 0.63348 0.55372 0.83958 0.0
O108 O 0.59571 0.54546 0.8115 0.0
O109 O 0.56205 0.50005 0.81183 0.0
O110 O 0.57463 0.46696 0.83586 0.0
O111 O 0.52884 0.44903 0.82046 0.0
H112 H 0.46907 0.52999 0.78523 0.0
H113 H 0.45056 0.5772 0.78419 0.0
H114 H 0.40401 0.5541 0.82912 0.0
H115 H 0.42229 0.50715 0.83025 0.0
H116 H 0.66535 0.48872 0.8607 0.0
H117 H 0.70808 0.46976 0.85046 0.0
H118 H 0.72077 0.53511 0.81213 0.0
H119 H 0.67851 0.55422 0.82235 0.0
C120 C 0.6328 0.08904 0.2038 0.0
C121 C 0.65381 0.11556 0.21251 0.0
C122 C 0.65221 0.11817 0.22943 0.0
C123 C 0.6102 0.06782 0.22884 0.0
C124 C 0.61101 0.06563 0.2122 0.0
C125 C 0.58625 0.03621 0.20497 0.0
H126 H 0.47151 0.89704 0.21679 0.0
C127 C 0.58608 0.03903 0.23399 0.0
C128 C 0.57182 0.02035 0.22007 0.0
H129 H 0.49894 0.93999 0.17153 0.0
H130 H 0.53867 0.98441 0.18555 0.0
H131 H 0.54006 0.91125 0.2324 0.0
H132 H 0.47176 0.96247 0.23574 0.0
H133 H 0.48735 0.96262 0.25526 0.0
H134 H 0.46696 0.92482 0.24469 0.0
H135 H 0.50661 0.89877 0.24487 0.0
H136 H 0.54288 0.92775 0.2523 0.0
C137 C 0.6027 0.01519 0.19516 0.0
C138 C 0.56252 0.04747 0.19493 0.0
C139 C 0.57103 0.02221 0.29378 0.0
C140 C 0.5528 0.99639 0.30223 0.0
C141 C 0.53378 0.9686 0.29355 0.0
C142 C 0.53248 0.96673 0.27665 0.0
C143 C 0.55062 0.99285 0.26833 0.0
C144 C 0.56985 0.01976 0.27689 0.0
C145 C 0.58888 0.04429 0.26601 0.0
C146 C 0.57727 0.02801 0.24951 0.0
C147 C 0.55465 0.99811 0.25097 0.0
C148 C 0.62405 0.04793 0.26929 0.0
C149 C 0.57997 0.07574 0.26901 0.0
C150 C 0.48638 0.9158 0.20987 0.0
C151 C 0.48241 0.91494 0.19305 0.0
C152 C 0.50165 0.94021 0.18451 0.0
C153 C 0.52461 0.96593 0.19267 0.0
C154 C 0.52801 0.96659 0.20956 0.0
C155 C 0.5089 0.94181 0.21784 0.0
C156 C 0.51444 0.94714 0.23577 0.0
C157 C 0.53984 0.97937 0.23696 0.0
C158 C 0.54806 0.99055 0.22158 0.0
C159 C 0.52642 0.91981 0.24179 0.0
C160 C 0.4836 0.9492 0.2434 0.0
H161 H 0.6309 0.09777 0.25051 0.0
H162 H 0.63323 0.08671 0.19076 0.0
H163 H 0.56104 0.07122 0.19977 0.0
H164 H 0.53829 0.03112 0.19535 0.0
H165 H 0.56943 0.05002 0.18216 0.0
H166 H 0.62315 0.01278 0.20216 0.0
H167 H 0.61143 0.02616 0.1837 0.0
H168 H 0.58732 0.99044 0.19228 0.0
H169 H 0.58628 0.04362 0.30019 0.0
H170 H 0.51952 0.94847 0.29987 0.0
H171 H 0.51734 0.94504 0.27074 0.0
H172 H 0.62725 0.02488 0.27284 0.0
H173 H 0.63419 0.06641 0.27921 0.0
H174 H 0.63838 0.05393 0.25851 0.0
H175 H 0.55449 0.07028 0.2713 0.0
H176 H 0.5839 0.09074 0.25849 0.0
H177 H 0.59309 0.0903 0.27967 0.0
H178 H 0.66828 0.13825 0.23639 0.0
C179 C 0.63063 0.09449 0.23762 0.0
C180 C 0.55041 0.59674 0.52781 0.0
C181 C 0.54761 0.62528 0.53551 0.0
C182 C 0.54596 0.62755 0.55242 0.0
C183 C 0.549 0.57339 0.55382 0.0
C184 C 0.55071 0.57092 0.53721 0.0
C185 C 0.55186 0.53797 0.53123 0.0
H186 H 0.54487 0.38564 0.54962 0.0
C187 C 0.54904 0.54248 0.56013 0.0
C188 C 0.55045 0.52131 0.54699 0.0
H189 H 0.5539 0.42309 0.5023 0.0
H190 H 0.55531 0.47587 0.51406 0.0
H191 H 0.59612 0.44404 0.56629 0.0
H192 H 0.49572 0.41963 0.5629 0.0
H193 H 0.50694 0.43433 0.58287 0.0
H194 H 0.51599 0.39896 0.57502 0.0
H195 H 0.57129 0.41522 0.57875 0.0
H196 H 0.58496 0.45761 0.58482 0.0
C197 C 0.58334 0.54196 0.52285 0.0
C198 C 0.52262 0.52205 0.52017 0.0
C199 C 0.5455 0.53034 0.6207 0.0
C200 C 0.54502 0.50452 0.63023 0.0
C201 C 0.54482 0.47485 0.62256 0.0
C202 C 0.54528 0.47098 0.60574 0.0
C203 C 0.54598 0.49705 0.59639 0.0
C204 C 0.54601 0.52606 0.60388 0.0
C205 C 0.54666 0.551 0.59198 0.0
C206 C 0.5476 0.53227 0.57612 0.0
C207 C 0.54713 0.50076 0.57882 0.0
C208 C 0.57717 0.57933 0.59532 0.0
C209 C 0.51593 0.56035 0.59347 0.0
C210 C 0.5468 0.40509 0.54174 0.0
C211 C 0.54867 0.40014 0.52502 0.0
C212 C 0.55221 0.42636 0.51523 0.0
C213 C 0.55289 0.45686 0.52207 0.0
C214 C 0.55031 0.46116 0.53888 0.0
C215 C 0.54781 0.43546 0.54835 0.0
C216 C 0.54661 0.4441 0.56596 0.0
C217 C 0.54803 0.47911 0.56563 0.0
C218 C 0.54999 0.48922 0.54977 0.0
C219 C 0.57604 0.4399 0.57453 0.0
C220 C 0.51483 0.42314 0.57217 0.0
H221 H 0.54536 0.60534 0.57437 0.0
H222 H 0.55156 0.59434 0.51481 0.0
H223 H 0.50138 0.52618 0.52551 0.0
H224 H 0.51727 0.4957 0.51852 0.0
H225 H 0.52553 0.53228 0.50813 0.0
H226 H 0.6028 0.56031 0.52968 0.0
H227 H 0.5824 0.54994 0.51044 0.0
H228 H 0.59021 0.5197 0.52231 0.0
H229 H 0.54529 0.55334 0.62619 0.0
H230 H 0.54491 0.4547 0.62959 0.0
H231 H 0.54522 0.44782 0.60071 0.0
H232 H 0.59712 0.57025 0.5984 0.0
H233 H 0.57448 0.59551 0.60562 0.0
H234 H 0.58478 0.59373 0.58477 0.0
H235 H 0.49653 0.54037 0.59796 0.0
H236 H 0.50685 0.56513 0.58173 0.0
H237 H 0.51918 0.58168 0.60199 0.0
H238 H 0.54416 0.6494 0.5586 0.0
C239 C 0.54673 0.60192 0.56157 0.0
C240 C 0.19077 0.65117 0.85787 0.0
C241 C 0.21756 0.67169 0.86624 0.0
C242 C 0.21779 0.67381 0.88327 0.0
C243 C 0.1678 0.63192 0.88311 0.0
C244 C 0.16628 0.63176 0.86649 0.0
C245 C 0.13678 0.60787 0.85934 0.0
H246 H 1.00592 0.48478 0.87015 0.0
C247 C 0.14032 0.60626 0.88824 0.0
C248 C 0.12194 0.59227 0.87435 0.0
H249 H 1.03244 0.53659 0.82701 0.0
H250 H 0.08068 0.56909 0.84039 0.0
H251 H 0.0771 0.4852 0.88271 0.0
H252 H 1.01639 0.54355 0.8913 0.0
H253 H 1.03751 0.54669 0.90952 0.0
H254 H 1.01227 0.50784 0.90186 0.0
H255 H 1.04136 0.47261 0.89351 0.0
H256 H 0.07812 0.49446 0.90361 0.0
C257 C 0.14595 0.58361 0.84763 0.0
C258 C 0.11675 0.62669 0.85136 0.0
C259 C 0.13099 0.57663 0.94694 0.0
C260 C 0.10862 0.55259 0.95483 0.0
C261 C 0.0829 0.5318 0.94575 0.0
C262 C 0.07974 0.53433 0.92919 0.0
C263 C 0.10227 0.55818 0.92147 0.0
C264 C 0.12728 0.579 0.93029 0.0
C265 C 0.14856 0.6031 0.91989 0.0
C266 C 0.13197 0.59324 0.90346 0.0
C267 C 0.10506 0.56676 0.90454 0.0
C268 C 0.18119 0.59771 0.92032 0.0
C269 C 0.14873 0.63731 0.92602 0.0
C270 C 1.02204 0.503 0.86347 0.0
C271 C 1.01497 0.50812 0.84749 0.0
C272 C 1.03719 0.53177 0.83927 0.0
C273 C 0.065 0.55108 0.84715 0.0
C274 C 0.07047 0.54704 0.86349 0.0
C275 C 1.04917 0.5232 0.87132 0.0
C276 C 0.05686 0.52432 0.88901 0.0
C277 C 0.08633 0.5529 0.89057 0.0
C278 C 0.09453 0.56576 0.87557 0.0
C279 C 0.06356 0.49249 0.89255 0.0
C280 C 1.02941 0.53069 0.89852 0.0
H281 H 0.19517 0.65603 0.90464 0.0
H282 H 0.18948 0.6487 0.84483 0.0
H283 H 0.12241 0.65177 0.85672 0.0
H284 H 0.09135 0.61599 0.85325 0.0
H285 H 0.1208 0.62816 0.83823 0.0
H286 H 0.16481 0.57549 0.85318 0.0
H287 H 0.15479 0.59475 0.83623 0.0
H288 H 0.12636 0.56157 0.84459 0.0
H289 H 0.15106 0.593 0.9535 0.0
H290 H 0.06479 0.51367 0.95148 0.0
H291 H 0.05969 0.51761 0.92308 0.0
H292 H 0.17873 0.57154 0.91917 0.0
H293 H 0.19405 0.60772 0.93189 0.0
H294 H 0.19599 0.60828 0.91032 0.0
H295 H 0.12573 0.63693 0.9311 0.0
H296 H 0.15219 0.65418 0.91627 0.0
H297 H 0.16704 0.64745 0.93566 0.0
H298 H 0.23754 0.69007 0.89012 0.0
C299 C 0.19316 0.65398 0.89172 0.0
C300 C 0.98015 0.43745 0.44737 0.0
C301 C 0.95646 0.41414 0.43817 0.0
C302 C 0.95849 0.41225 0.42126 0.0
C303 C 1.00673 0.45645 0.42282 0.0
C304 C 1.00495 0.45848 0.43943 0.0
C305 C 1.03177 0.48544 0.44711 0.0
H306 H 0.16761 0.60526 0.43765 0.0
C307 C 1.03508 0.48159 0.41822 0.0
C308 C 1.04996 0.49882 0.43237 0.0
H309 H 0.12051 0.57832 0.48211 0.0
H310 H 0.07905 0.53666 0.46741 0.0
H311 H 0.15522 0.53259 0.42114 0.0
H312 H 0.10839 0.6049 0.4185 0.0
H313 H 0.10317 0.58491 0.39932 0.0
H314 H 0.14232 0.60635 0.40695 0.0
H315 H 0.17138 0.56998 0.41182 0.0
H316 H 0.14584 0.53512 0.40072 0.0
C317 C 1.05088 0.47062 0.45829 0.0
C318 C 1.01806 0.51021 0.45583 0.0
C319 C 0.06074 0.49247 0.35896 0.0
C320 C 0.08441 0.51459 0.35089 0.0
C321 C 0.10787 0.53836 0.35997 0.0
C322 C 0.10764 0.54026 0.37685 0.0
C323 C 0.0835 0.51836 0.38477 0.0
C324 C 0.06059 0.49499 0.37584 0.0
C325 C 1.0361 0.47466 0.38628 0.0
C326 C 1.04806 0.48976 0.40295 0.0
C327 C 0.07591 0.51512 0.40198 0.0
C328 C 1.03714 0.43952 0.38408 0.0
C329 C 1.00404 0.47923 0.3817 0.0
C330 C 0.14856 0.59009 0.44424 0.0
C331 C 0.14746 0.59462 0.46104 0.0
C332 C 0.12182 0.57509 0.46915 0.0
C333 C 0.09788 0.55096 0.4606 0.0
C334 C 0.09941 0.54666 0.44374 0.0
C335 C 0.12438 0.56636 0.43588 0.0
C336 C 0.1216 0.55984 0.41792 0.0
C337 C 0.09119 0.53246 0.41623 0.0
C338 C 0.07828 0.52456 0.43137 0.0
C339 C 0.15001 0.54898 0.41247 0.0
C340 C 0.11893 0.59051 0.41015 0.0
H341 H 0.98346 0.4303 0.40068 0.0
H342 H 0.97912 0.43959 0.46038 0.0
H343 H 0.99713 0.51214 0.44907 0.0
H344 H 1.03459 0.53485 0.45662 0.0
H345 H 1.01069 0.50307 0.46814 0.0
H346 H 0.05414 0.44847 0.45232 0.0
H347 H 1.0386 0.46391 0.46971 0.0
H348 H 0.07474 0.48678 0.46123 0.0
H349 H 1.04215 0.47425 0.35227 0.0
H350 H 0.12642 0.55553 0.35397 0.0
H351 H 0.12614 0.55891 0.38305 0.0
H352 H 0.06169 0.43893 0.38278 0.0
H353 H 1.02349 0.42699 0.37311 0.0
H354 H 1.02854 0.42527 0.39458 0.0
H355 H 1.00711 0.50371 0.37745 0.0
H356 H 0.98846 0.47754 0.39205 0.0
H357 H 0.99165 0.46151 0.37187 0.0
H358 H 0.94086 0.3942 0.41393 0.0
C359 C 0.9834 0.43315 0.41357 0.0
C360 C 0.55076 0.91938 0.80454 0.0
C361 C 0.54702 0.88906 0.79657 0.0
C362 C 0.54598 0.88628 0.77961 0.0
C363 C 0.55121 0.94291 0.77862 0.0
C364 C 0.55245 0.94597 0.79529 0.0
C365 C 0.55454 0.9798 0.80147 0.0
H366 H 0.55087 0.12934 0.78366 0.0
C367 C 0.55234 0.97429 0.77246 0.0
C368 C 0.55405 0.99618 0.78576 0.0
H369 H 0.55905 0.09632 0.83106 0.0
H370 H 0.55986 0.04437 0.81909 0.0
H371 H 0.60185 0.10185 0.76843 0.0
H372 H 0.50131 0.06602 0.76858 0.0
H373 H 0.51223 0.05781 0.74898 0.0
H374 H 0.5222 0.09895 0.75704 0.0
H375 H 0.57754 0.11645 0.75546 0.0
H376 H 0.59031 0.08218 0.74939 0.0
C377 C 0.58598 0.9943 0.81103 0.0
C378 C 0.52531 0.97825 0.8115 0.0
C379 C 0.54918 0.98565 0.71183 0.0
C380 C 0.54877 0.01144 0.70246 0.0
C381 C 0.54924 0.04103 0.71031 0.0
C382 C 0.55015 0.04494 0.72715 0.0
C383 C 0.55055 0.019 0.73636 0.0
C384 C 0.55001 0.98996 0.72869 0.0
C385 C 0.55005 0.96499 0.74048 0.0
C386 C 0.55133 0.98408 0.75648 0.0
C387 C 0.55158 0.01559 0.75395 0.0
C388 C 0.58014 0.95493 0.73802 0.0
C389 C 0.51892 0.93703 0.73789 0.0
C390 C 0.55257 0.11084 0.79149 0.0
C391 C 0.5543 0.1166 0.80828 0.0
C392 C 0.55746 0.09226 0.81806 0.0
C393 C 0.55778 0.06216 0.81109 0.0
C394 C 0.55521 0.05656 0.79419 0.0
C395 C 0.55323 0.08108 0.78476 0.0
C396 C 0.552 0.072 0.76708 0.0
C397 C 0.55281 0.03764 0.76727 0.0
C398 C 0.55442 0.02833 0.78314 0.0
C399 C 0.58174 0.09427 0.75956 0.0
C400 C 0.52048 0.07393 0.7599 0.0
H401 H 0.54717 0.90902 0.75776 0.0
H402 H 0.55145 0.92207 0.81758 0.0
H403 H 0.50383 0.96175 0.80528 0.0
H404 H 0.52088 1.00169 0.8132 0.0
H405 H 0.52753 0.96912 0.82354 0.0
H406 H 0.60518 0.98745 0.80487 0.0
H407 H 0.58447 0.98542 0.82336 0.0
H408 H 0.59364 0.02086 0.81192 0.0
H409 H 0.54848 0.96249 0.70617 0.0
H410 H 0.54938 0.06141 0.7034 0.0
H411 H 0.55052 0.0681 0.73232 0.0
H412 H 0.6005 0.97625 0.73585 0.0
H413 H 0.57725 0.93749 0.72744 0.0
H414 H 0.58719 0.94446 0.74869 0.0
H415 H 0.49994 0.94543 0.73269 0.0
H416 H 0.50944 0.92673 0.74931 0.0
H417 H 0.52188 0.91753 0.72951 0.0
H418 H 0.54339 0.86322 0.77326 0.0
C419 C 0.5482 0.91294 0.77062 0.0
C420 C 0.65308 0.50069 0.13297 0.0
C421 C 0.68065 0.49918 0.12508 0.0
C422 C 0.67982 0.4952 0.1082 0.0
C423 C 0.62578 0.49559 0.10692 0.0
C424 C 0.6257 0.4988 0.12356 0.0
C425 C 0.5938 0.50026 0.12925 0.0
H426 H 0.44525 0.50187 0.1061 0.0
C427 C 0.59494 0.49566 0.10033 0.0
C428 C 0.57554 0.49833 0.11327 0.0
H429 H 0.47946 0.50663 0.15526 0.0
H430 H 0.52992 0.50319 0.14554 0.0
H431 H 0.50346 0.55146 0.09442 0.0
H432 H 0.47328 0.44828 0.09219 0.0
H433 H 0.48829 0.45946 0.07324 0.0
H434 H 0.4555 0.47165 0.08036 0.0
H435 H 0.47571 0.5282 0.0793 0.0
H436 H 0.51744 0.54029 0.07612 0.0
C437 C 0.59825 0.53254 0.13891 0.0
C438 C 0.57917 0.47086 0.13916 0.0
C439 C 0.57923 0.49142 0.03929 0.0
C440 C 0.55464 0.49433 0.02942 0.0
C441 C 0.52735 0.49764 0.03652 0.0
C442 C 0.52443 0.49793 0.05327 0.0
C443 C 0.54931 0.4954 0.06311 0.0
C444 C 0.57618 0.49244 0.05609 0.0
C445 C 0.60075 0.49178 0.06847 0.0
C446 C 0.58406 0.49456 0.0841 0.0
C447 C 0.55393 0.49628 0.08084 0.0
C448 C 0.62982 0.52158 0.0665 0.0
C449 C 0.60705 0.45879 0.06615 0.0
C450 C 0.46346 0.5026 0.11496 0.0
C451 C 0.45808 0.50508 0.1315 0.0
C452 C 0.48268 0.50478 0.1424 0.0
C453 C 0.51203 0.50292 0.13674 0.0
C454 C 0.51696 0.50119 0.12 0.0
C455 C 0.49248 0.50101 0.10958 0.0
C456 C 0.50068 0.49973 0.09226 0.0
C457 C 0.53394 0.4984 0.09366 0.0
C458 C 0.54414 0.49934 0.1099 0.0
C459 C 0.4991 0.53133 0.08501 0.0
C460 C 0.47828 0.46834 0.08394 0.0
H461 H 0.65427 0.49047 0.08635 0.0
H462 H 0.65304 0.50367 0.14599 0.0
H463 H 0.58008 0.44839 0.13248 0.0
H464 H 0.55428 0.46772 0.14157 0.0
H465 H 0.59213 0.47311 0.15087 0.0
H466 H 0.61219 0.55288 0.13199 0.0
H467 H 0.61089 0.53322 0.15058 0.0
H468 H 0.5757 0.53696 0.14142 0.0
H469 H 0.60061 0.48922 0.03407 0.0
H470 H 0.50815 0.4998 0.02904 0.0
H471 H 0.50287 0.50021 0.05785 0.0
H472 H 0.62303 0.54168 0.06143 0.0
H473 H 0.64689 0.51563 0.05827 0.0
H474 H 0.64191 0.53205 0.07812 0.0
H475 H 0.58517 0.43937 0.06233 0.0
H476 H 0.61494 0.45081 0.0774 0.0
H477 H 0.62456 0.4593 0.05673 0.0
H478 H 0.70052 0.49384 0.10191 0.0
C479 C 0.6528 0.49331 0.09916 0.0
C480 C 0.19174 0.53329 0.15298 0.0
C481 C 0.16754 0.50382 0.15163 0.0
C482 C 0.22343 0.53426 0.15278 0.0
C483 C 0.27712 0.48141 0.15428 0.0
H484 H 0.33641 0.55656 0.13788 0.0
C485 C 0.41076 0.49215 0.14976 0.0
C486 C 0.4269 0.50831 0.13673 0.0
C487 C 0.38005 0.49274 0.15315 0.0
C488 C 0.32035 0.53504 0.1423 0.0
H489 H 0.15807 0.45215 0.1489 0.0
H490 H 0.21291 0.45369 0.14772 0.0
H491 H 0.28204 0.55413 0.13972 0.0
H492 H 0.42343 0.53947 0.11777 0.0
H493 H 0.37052 0.53916 0.123 0.0
H494 H 0.31539 0.46156 0.15584 0.0
C495 C 0.20775 0.47626 0.14954 0.0
C496 C 0.28879 0.53391 0.1437 0.0
C497 C 0.17602 0.4753 0.15011 0.0
C498 C 0.41179 0.52604 0.12768 0.0
C499 C 0.38122 0.52632 0.13091 0.0
C500 C 0.30869 0.4823 0.1526 0.0
C501 C 0.23219 0.5058 0.1508 0.0
C502 C 0.26638 0.50705 0.14967 0.0
C503 C 0.36448 0.50948 0.14361 0.0
C504 C 0.33093 0.50905 0.14643 0.0
H505 H 0.18622 0.55579 0.15434 0.0
H506 H 0.241 0.55757 0.15428 0.0
H507 H 0.26121 0.46043 0.15925 0.0
H508 H 0.42143 0.4782 0.15703 0.0
H509 H 0.36851 0.47989 0.16324 0.0
C510 C 0.72878 0.18864 0.4666 0.0
C511 C 0.73392 0.16832 0.47816 0.0
C512 C 0.75165 0.21766 0.46399 0.0
C513 C 0.82484 0.27693 0.48131 0.0
H514 H 0.83867 0.29693 0.43661 0.0
C515 C 0.93456 0.37381 0.45882 0.0
C516 C 0.92968 0.39129 0.44585 0.0
C517 C 0.90972 0.34894 0.46438 0.0
C518 C 0.83486 0.292 0.44918 0.0
H519 H 0.76688 0.16284 0.49629 0.0
H520 H 0.80707 0.21338 0.49161 0.0
H521 H 0.79728 0.24914 0.44313 0.0
H522 H 0.89462 0.39828 0.42943 0.0
H523 H 0.85137 0.35531 0.43919 0.0
H524 H 0.86307 0.31977 0.48723 0.0
C525 C 0.78514 0.20712 0.48471 0.0
C526 C 0.81105 0.26455 0.45293 0.0
C527 C 0.76214 0.17811 0.48738 0.0
C528 C 0.89919 0.38477 0.43923 0.0
C529 C 0.87445 0.3601 0.44479 0.0
C530 C 0.84883 0.30447 0.47753 0.0
C531 C 0.78036 0.22702 0.47281 0.0
C532 C 0.80563 0.25666 0.46904 0.0
C533 C 0.87958 0.34123 0.45709 0.0
C534 C 0.85401 0.31236 0.46141 0.0
H535 H 0.70703 0.18204 0.45951 0.0
H536 H 0.74686 0.23272 0.45498 0.0
H537 H 0.82114 0.27172 0.49385 0.0
H538 H 0.95785 0.37825 0.4641 0.0
H539 H 0.91445 0.33479 0.47385 0.0
C540 C 0.56988 0.63374 0.84025 0.0
C541 C 0.54542 0.60704 0.83398 0.0
C542 C 0.5684 0.66512 0.83874 0.0
C543 C 0.53034 0.70948 0.81283 0.0
H544 H 0.56157 0.78001 0.84511 0.0
C545 C 0.51702 0.83273 0.80202 0.0
C546 C 0.54336 0.85965 0.80543 0.0
C547 C 0.51561 0.80296 0.80784 0.0
C548 C 0.55295 0.7606 0.83594 0.0
H549 H 0.49934 0.59233 0.8221 0.0
H550 H 0.49658 0.64661 0.81974 0.0
H551 H 0.56229 0.72581 0.85095 0.0
H552 H 0.58826 0.8771 0.81822 0.0
H553 H 0.58617 0.82467 0.82828 0.0
H554 H 0.52146 0.7439 0.7977 0.0
C555 C 0.51732 0.64354 0.82543 0.0
C556 C 0.55337 0.72954 0.83928 0.0
C557 C 0.51886 0.61233 0.82686 0.0
C558 C 0.56759 0.85669 0.81554 0.0
C559 C 0.56635 0.82667 0.82127 0.0
C560 C 0.52995 0.74034 0.8095 0.0
C561 C 0.54238 0.6704 0.83098 0.0
C562 C 0.54192 0.70356 0.82777 0.0
C563 C 0.54076 0.7992 0.81704 0.0
C564 C 0.54108 0.76634 0.821 0.0
H565 H 0.59066 0.63048 0.8458 0.0
H566 H 0.58819 0.68524 0.84308 0.0
H567 H 0.52207 0.69031 0.8035 0.0
H568 H 0.49793 0.8345 0.79433 0.0
H569 H 0.49516 0.78259 0.8047 0.0
C570 C 0.94628 0.47888 0.15098 0.0
C571 C 0.97067 0.506 0.14679 0.0
C572 C 0.91471 0.47859 0.1502 0.0
C573 C 0.86221 0.52166 0.13219 0.0
H574 H 0.80223 0.47533 0.16239 0.0
C575 C 0.73606 0.53125 0.13247 0.0
C576 C 0.71128 0.50262 0.13353 0.0
C577 C 0.76723 0.53237 0.13587 0.0
C578 C 0.81857 0.48825 0.15377 0.0
H579 H 0.98045 0.55435 0.13874 0.0
H580 H 0.92601 0.55418 0.13772 0.0
H581 H 0.85688 0.47572 0.16448 0.0
H582 H 0.69989 0.45275 0.13923 0.0
H583 H 0.75422 0.45468 0.14551 0.0
H584 H 0.82403 0.53424 0.12151 0.0
C585 C 0.93098 0.53268 0.14126 0.0
C586 C 0.85009 0.48841 0.15493 0.0
C587 C 0.96247 0.53289 0.14195 0.0
C588 C 0.71834 0.47543 0.13878 0.0
C589 C 0.7496 0.47653 0.14225 0.0
C590 C 0.83084 0.52166 0.1311 0.0
C591 C 0.90643 0.50547 0.14528 0.0
C592 C 0.87254 0.50515 0.14416 0.0
C593 C 0.77469 0.50476 0.14032 0.0
C594 C 0.80843 0.50502 0.14187 0.0
H595 H 0.95149 0.45762 0.15473 0.0
H596 H 0.89677 0.45695 0.15321 0.0
H597 H 0.87824 0.53423 0.12337 0.0
H598 H 0.73148 0.55237 0.12809 0.0
H599 H 0.78563 0.55473 0.13451 0.0
C600 C 0.37651 0.82177 0.50411 0.0
C601 C 0.36914 0.84937 0.51 0.0
C602 C 0.35284 0.79276 0.50057 0.0
C603 C 0.27074 0.74777 0.50822 0.0
H604 H 0.27394 0.70473 0.46652 0.0
C605 C 0.16607 0.64402 0.47982 0.0
C606 C 0.17289 0.62027 0.46976 0.0
C607 C 0.1903 0.67056 0.48627 0.0
C608 C 0.27288 0.71599 0.47835 0.0
H609 H 0.33086 0.86767 0.51704 0.0
H610 H 0.28967 0.81681 0.51112 0.0
H611 H 0.3157 0.75333 0.47505 0.0
H612 H 0.21022 0.6044 0.45937 0.0
H613 H 0.2525 0.64986 0.47104 0.0
H614 H 0.22796 0.71025 0.51157 0.0
C615 C 0.31385 0.81773 0.5093 0.0
C616 C 0.29684 0.74398 0.4832 0.0
C617 C 0.33751 0.84687 0.51273 0.0
C618 C 0.20435 0.62263 0.46694 0.0
C619 C 0.22853 0.64883 0.47353 0.0
C620 C 0.24684 0.71949 0.50343 0.0
C621 C 0.32123 0.79051 0.50295 0.0
C622 C 0.29601 0.76025 0.49815 0.0
C623 C 0.22184 0.67365 0.48291 0.0
C624 C 0.24757 0.70326 0.4884 0.0
H625 H 0.40061 0.82255 0.5022 0.0
H626 H 0.35929 0.77204 0.49592 0.0
H627 H 0.26961 0.75968 0.51987 0.0
H628 H 0.14197 0.64285 0.48206 0.0
H629 H 0.18417 0.68927 0.49331 0.0
C630 C 0.57866 0.40264 0.83611 0.0
C631 C 0.55391 0.40981 0.82808 0.0
C632 C 0.57923 0.37076 0.83652 0.0
C633 C 0.52717 0.28644 0.83134 0.0
H634 H 0.60411 0.26524 0.82365 0.0
C635 C 0.52836 0.15979 0.80971 0.0
C636 C 0.55243 0.14804 0.81514 0.0
C637 C 0.52847 0.19109 0.81418 0.0
C638 C 0.58254 0.27078 0.82612 0.0
H639 H 0.51056 0.38894 0.81406 0.0
H640 H 0.51175 0.33373 0.81464 0.0
H641 H 0.60503 0.32157 0.82545 0.0
H642 H 0.59494 0.15941 0.82995 0.0
H643 H 0.59522 0.21457 0.83786 0.0
H644 H 0.50453 0.23571 0.83163 0.0
C645 C 0.53048 0.35261 0.82084 0.0
C646 C 0.58305 0.30309 0.82712 0.0
C647 C 0.52994 0.38439 0.8204 0.0
C648 C 0.57602 0.16785 0.82569 0.0
C649 C 0.57631 0.19946 0.83007 0.0
C650 C 0.52666 0.25422 0.83034 0.0
C651 C 0.55501 0.34532 0.82898 0.0
C652 C 0.55522 0.31127 0.82938 0.0
C653 C 0.55277 0.21159 0.82414 0.0
C654 C 0.55419 0.24593 0.82735 0.0
H655 H 0.5975 0.4216 0.84218 0.0
H656 H 0.59838 0.36599 0.84297 0.0
H657 H 0.50543 0.29188 0.83348 0.0
H658 H 0.50985 0.14498 0.80159 0.0
H659 H 0.51016 0.19967 0.80924 0.0
C660 C 0.57839 0.89759 0.49399 0.0
C661 C 0.55388 0.90794 0.50041 0.0
C662 C 0.57759 0.86529 0.49436 0.0
C663 C 0.52356 0.78318 0.49989 0.0
H664 H 0.5991 0.7647 0.51366 0.0
C665 C 0.52191 0.66683 0.52937 0.0
C666 C 0.54597 0.65298 0.52635 0.0
C667 C 0.52243 0.69571 0.52278 0.0
C668 C 0.57794 0.76934 0.50949 0.0
H669 H 0.50903 0.89217 0.512 0.0
H670 H 0.50786 0.83631 0.51282 0.0
H671 H 0.60118 0.81992 0.50884 0.0
H672 H 0.58884 0.65773 0.51357 0.0
H673 H 0.5899 0.70864 0.50198 0.0
H674 H 0.50011 0.73276 0.50108 0.0
C675 C 0.52754 0.85294 0.5073 0.0
C676 C 0.57911 0.80105 0.50674 0.0
C677 C 0.52836 0.88515 0.50696 0.0
C678 C 0.56992 0.66786 0.516 0.0
C679 C 0.57065 0.69709 0.50951 0.0
C680 C 0.52237 0.75154 0.50268 0.0
C681 C 0.55221 0.84258 0.5011 0.0
C682 C 0.55177 0.80848 0.50228 0.0
C683 C 0.54718 0.71164 0.51309 0.0
C684 C 0.54938 0.74434 0.50788 0.0
H685 H 0.59837 0.91446 0.48882 0.0
H686 H 0.59684 0.85809 0.48934 0.0
H687 H 0.50219 0.7879 0.49612 0.0
H688 H 0.50314 0.65578 0.53729 0.0
H689 H 0.50416 0.70634 0.52594 0.0
C690 C 0.77217 0.51317 0.82047 0.0
C691 C 0.74425 0.49024 0.82456 0.0
C692 C 0.79846 0.50384 0.8165 0.0
C693 C 0.83319 0.4414 0.82617 0.0
H694 H 0.90092 0.49451 0.8019 0.0
C695 C 0.9777 0.48419 0.8237 0.0
C696 C 0.98298 0.49197 0.84038 0.0
C697 C 0.94704 0.47242 0.81715 0.0
C698 C 0.88213 0.47872 0.80839 0.0
H699 H 0.72119 0.43929 0.82657 0.0
H700 H 0.76723 0.42285 0.81953 0.0
H701 H 0.84745 0.49572 0.79706 0.0
H702 H 0.95971 0.4931 0.86315 0.0
H703 H 0.90725 0.47206 0.85192 0.0
H704 H 0.86806 0.42542 0.83794 0.0
C705 C 0.76894 0.44815 0.81967 0.0
C706 C 0.85153 0.47974 0.80578 0.0
C707 C 0.74263 0.45754 0.82375 0.0
C708 C 0.95693 0.4865 0.85035 0.0
C709 C 0.92659 0.4744 0.84388 0.0
C710 C 0.86368 0.44018 0.82867 0.0
C711 C 0.79745 0.47131 0.81645 0.0
C712 C 0.82713 0.46273 0.81541 0.0
C713 C 0.9212 0.46781 0.8272 0.0
C714 C 0.88872 0.46048 0.82059 0.0
H715 H 0.77424 0.53858 0.82113 0.0
H716 H 0.8201 0.52249 0.81444 0.0
H717 H 0.81507 0.42783 0.83379 0.0
H718 H 0.99718 0.48779 0.81568 0.0
H719 H 0.94352 0.4676 0.80423 0.0
C720 C 0.2551 0.68296 0.15296 0.0
C721 C 0.22963 0.6917 0.14674 0.0
C722 C 0.28412 0.70615 0.15632 0.0
C723 C 0.33273 0.78761 0.14738 0.0
H724 H 0.37146 0.7875 0.18936 0.0
C725 C 0.43515 0.8949 0.17441 0.0
C726 C 0.4572 0.88834 0.18476 0.0
C727 C 0.40905 0.87003 0.16828 0.0
C728 C 0.3614 0.78762 0.17745 0.0
H729 H 0.21508 0.73189 0.13902 0.0
H730 H 0.26591 0.77216 0.14462 0.0
H731 H 0.32306 0.74567 0.18135 0.0
H732 H 0.47041 0.85058 0.19604 0.0
H733 H 0.4256 0.80705 0.18494 0.0
H734 H 0.37116 0.82949 0.14342 0.0
C735 C 0.26335 0.74728 0.14681 0.0
C736 C 0.33353 0.76364 0.1729 0.0
C737 C 0.23423 0.72414 0.14358 0.0
C738 C 0.45352 0.85631 0.18823 0.0
C739 C 0.4277 0.83144 0.18196 0.0
C740 C 0.36084 0.81148 0.15187 0.0
C741 C 0.28849 0.73859 0.15341 0.0
C742 C 0.31877 0.76347 0.15786 0.0
C743 C 0.40466 0.83803 0.17224 0.0
C744 C 0.37546 0.81191 0.16702 0.0
H745 H 0.25268 0.65815 0.15523 0.0
H746 H 0.3032 0.69867 0.16119 0.0
H747 H 0.32202 0.7879 0.13565 0.0
H748 H 0.43729 0.91944 0.17167 0.0
H749 H 0.3917 0.87615 0.16099 0.0
C750 C 0.52978 0.11783 0.51232 0.0
C751 C 0.55374 0.10822 0.5048 0.0
C752 C 0.52925 0.14966 0.51208 0.0
C753 C 0.57952 0.23265 0.50682 0.0
H754 H 0.49963 0.24911 0.50148 0.0
C755 C 0.57005 0.36241 0.5081 0.0
C756 C 0.54687 0.36744 0.51823 0.0
C757 C 0.57056 0.33105 0.50379 0.0
C758 C 0.52213 0.24495 0.50303 0.0
H759 H 0.59612 0.1248 0.49118 0.0
H760 H 0.59511 0.18035 0.49075 0.0
H761 H 0.5017 0.19389 0.49958 0.0
H762 H 0.50511 0.34381 0.53105 0.0
H763 H 0.5059 0.28942 0.52358 0.0
H764 H 0.59984 0.28375 0.51059 0.0
C765 C 0.57682 0.16325 0.49692 0.0
C766 C 0.52331 0.21327 0.50199 0.0
C767 C 0.57732 0.13134 0.49713 0.0
C768 C 0.52336 0.34062 0.52328 0.0
C769 C 0.52371 0.30943 0.5189 0.0
C770 C 0.57834 0.26439 0.50786 0.0
C771 C 0.55268 0.17276 0.50433 0.0
C772 C 0.55192 0.20666 0.50419 0.0
C773 C 0.54767 0.3042 0.50939 0.0
C774 C 0.54953 0.27089 0.5063 0.0
H775 H 0.51127 0.10075 0.51838 0.0
H776 H 0.51061 0.15624 0.51816 0.0
H777 H 0.60192 0.22844 0.5087 0.0
H778 H 0.58853 0.38268 0.50411 0.0
H779 H 0.58916 0.32782 0.49631 0.0
C780 C 0.40237 0.60737 0.79365 0.0
C781 C 0.41732 0.5995 0.80708 0.0
C782 C 0.38904 0.63255 0.79504 0.0
C783 C 0.37867 0.69726 0.82427 0.0
H784 H 0.29152 0.66121 0.81027 0.0
C785 C 0.2446 0.69564 0.8413 0.0
C786 C 0.24646 0.68692 0.85729 0.0
C787 C 0.27079 0.70158 0.83157 0.0
C788 C 0.31591 0.6724 0.81392 0.0
H789 H 0.43329 0.61382 0.83184 0.0
H790 H 0.40948 0.65677 0.83448 0.0
H791 H 0.33047 0.63949 0.7984 0.0
H792 H 0.27859 0.68134 0.87596 0.0
H793 H 0.3239 0.69259 0.85926 0.0
H794 H 0.36315 0.7279 0.84103 0.0
C795 C 0.40796 0.64399 0.82282 0.0
C796 C 0.3384 0.6599 0.80707 0.0
C797 C 0.42121 0.61895 0.82142 0.0
C798 C 0.276 0.68814 0.86381 0.0
C799 C 0.30221 0.69463 0.85418 0.0
C800 C 0.35607 0.7095 0.83126 0.0
C801 C 0.39051 0.65024 0.80987 0.0
C802 C 0.36969 0.67072 0.81294 0.0
C803 C 0.29948 0.69963 0.83774 0.0
C804 C 0.32421 0.69576 0.82683 0.0
H805 H 0.39933 0.59289 0.7824 0.0
H806 H 0.37621 0.63705 0.78475 0.0
H807 H 0.40276 0.70682 0.82872 0.0
H808 H 0.22249 0.69599 0.83599 0.0
H809 H 0.26814 0.70573 0.81897 0.0
C810 C 0.88323 0.33418 0.17663 0.0
C811 C 0.90686 0.32319 0.16962 0.0
C812 C 0.85388 0.31261 0.17954 0.0
C813 C 0.80067 0.23115 0.16829 0.0
H814 H 0.76731 0.23894 0.21061 0.0
C815 C 0.69848 0.13087 0.19363 0.0
C816 C 0.67828 0.14011 0.20433 0.0
C817 C 0.72436 0.15401 0.18775 0.0
C818 C 0.77588 0.23669 0.19861 0.0
H819 H 0.91783 0.28073 0.16004 0.0
H820 H 0.86648 0.24322 0.16493 0.0
H821 H 0.81609 0.27785 0.20344 0.0
H822 H 0.66793 0.18078 0.2164 0.0
H823 H 0.71239 0.22123 0.20579 0.0
H824 H 0.7604 0.18992 0.16346 0.0
C825 C 0.87066 0.2686 0.16806 0.0
C826 C 0.80396 0.25901 0.19453 0.0
C827 C 0.9001 0.29015 0.16525 0.0
C828 C 0.68342 0.17299 0.20834 0.0
C829 C 0.70902 0.19611 0.20234 0.0
C830 C 0.77238 0.2089 0.17233 0.0
C831 C 0.84735 0.27954 0.17541 0.0
C832 C 0.8168 0.25641 0.17937 0.0
C833 C 0.73038 0.1869 0.19234 0.0
C834 C 0.75969 0.21128 0.18759 0.0
H835 H 0.88736 0.35952 0.17986 0.0
H836 H 0.83623 0.32184 0.185 0.0
H837 H 0.80984 0.22872 0.15644 0.0
H838 H 0.69517 0.10564 0.19046 0.0
H839 H 0.74039 0.14594 0.1802 0.0
C840 C 0.0994 0.48734 0.09539 0.0
C841 C 0.07683 0.49662 0.10433 0.0
C842 C 0.10613 0.49765 0.07985 0.0
C843 C 0.06946 0.5183 0.04506 0.0
H844 H 0.15381 0.55638 0.03019 0.0
C845 C 0.10164 0.51829 0.97856 0.0
C846 C 0.11126 0.5491 0.97245 0.0
C847 C 0.10026 0.51477 -0.00488 0.0
C848 C 0.13021 0.54592 0.03427 0.0
H849 H 1.0439 0.52424 0.10429 0.0
H850 H 0.05497 0.54143 0.07684 0.0
H851 H 0.14566 0.54524 0.05879 0.0
H852 H 0.12877 0.60032 0.9791 0.0
H853 H 0.12745 0.59384 0.00825 0.0
H854 H 0.05411 0.51773 0.02048 0.0
C855 C 0.06762 0.52647 0.08194 0.0
C856 C 0.12555 0.53946 0.05052 0.0
C857 C 0.06131 0.51664 0.09758 0.0
C858 C 0.12141 0.57625 0.98337 0.0
C859 C 0.12053 0.57263 2e-05 0.0
C860 C 0.07417 0.52414 0.02881 0.0
C861 C 0.08999 0.51694 0.07293 0.0
C862 C 0.09513 0.52547 0.056 0.0
C863 C 0.10917 0.54189 0.00594 0.0
C864 C 0.10455 0.5378 0.0233 0.0
H865 H 0.11183 0.47209 0.1004 0.0
H866 H 0.12329 0.4898 0.07306 0.0
H867 H 1.04583 0.50727 0.04898 0.0
H868 H 0.09454 0.4968 0.97053 0.0
H869 H 0.09178 0.49082 -0.0005 0.0
C870 C 0.55238 0.98539 0.4497 0.0
C871 C 0.5353 0.00412 0.45717 0.0
C872 C 0.55628 0.98537 0.43304 0.0
C873 C 0.55859 0.03243 0.39807 0.0
H874 H 0.53124 0.95037 0.37339 0.0
C875 C 0.54786 0.02462 0.32858 0.0
C876 C 0.55345 0.99838 0.32005 0.0
C877 C 0.54722 0.02589 0.34541 0.0
C878 C 0.53961 0.97349 0.38005 0.0
H879 H 0.50976 0.03821 0.45331 0.0
H880 H 0.51729 0.03878 0.42416 0.0
H881 H 0.52835 0.95193 0.40265 0.0
H882 H 0.56382 0.95346 0.32227 0.0
H883 H 0.56416 0.95621 0.35166 0.0
H884 H 0.57074 0.05412 0.37566 0.0
C885 C 0.52731 0.0239 0.43118 0.0
C886 C 0.53775 0.97432 0.39683 0.0
C887 C 0.52288 0.02344 0.4478 0.0
C888 C 0.5591 0.97377 0.32861 0.0
C889 C 0.55907 0.97531 0.34545 0.0
C890 C 0.56103 0.03161 0.38131 0.0
C891 C 0.54373 0.00458 0.42365 0.0
C892 C 0.54696 0.00379 0.40596 0.0
C893 C 0.55276 1.00121 0.3541 0.0
C894 C 0.5513 0.00213 0.37203 0.0
H895 H 0.56224 0.97034 0.45668 0.0
H896 H 0.56917 0.97042 0.42748 0.0
H897 H 0.56609 0.05544 0.4049 0.0
H898 H 0.54316 0.04375 0.3222 0.0
H899 H 0.54169 0.04592 0.35154 0.0
C900 C 0.54941 0.49507 0.7772 0.0
C901 C 0.57045 0.52192 0.78555 0.0
C902 C 0.54521 0.49446 0.76047 0.0
C903 C 0.58488 0.53091 0.72449 0.0
H904 H 0.50226 0.49648 0.70395 0.0
C905 C 0.56505 0.53659 0.65623 0.0
C906 C 0.54544 0.50851 0.64809 0.0
C907 C 0.56676 0.53958 0.67307 0.0
C908 C 0.52551 0.50593 0.70951 0.0
H909 H 0.60321 0.56936 0.78312 0.0
H910 H 0.59582 0.5684 0.75394 0.0
H911 H 0.50785 0.49886 0.7333 0.0
H912 H 0.5114 0.46204 0.65125 0.0
H913 H 0.51485 0.46698 0.68062 0.0
H914 H 0.60263 0.53769 0.70075 0.0
C915 C 0.58285 0.54764 0.76024 0.0
C916 C 0.5287 0.50727 0.72631 0.0
C917 C 0.58699 0.54826 0.77695 0.0
C918 C 0.52704 0.4838 0.65717 0.0
C919 C 0.52874 0.4868 0.674 0.0
C920 C 0.5817 0.52954 0.70771 0.0
C921 C 0.56205 0.52068 0.7518 0.0
C922 C 0.55845 0.51969 0.73398 0.0
C923 C 0.54888 0.51457 0.68214 0.0
C924 C 0.552 0.51694 0.70002 0.0
H925 H 0.53639 0.47442 0.78357 0.0
H926 H 0.52927 0.47319 0.7543 0.0
H927 H 0.60817 0.54013 0.73002 0.0
H928 H 0.57971 0.55596 0.6496 0.0
H929 H 0.58222 0.56145 0.67899 0.0
C930 C 0.55004 0.02231 0.55496 0.0
C931 C 0.57265 0.01005 0.5478 0.0
C932 C 0.54511 0.02051 0.57151 0.0
C933 C 0.55791 0.97778 0.60696 0.0
H934 H 0.55057 0.05348 0.63117 0.0
C935 C 0.5677 0.9924 0.67659 0.0
C936 C 0.54828 0.00791 0.68458 0.0
C937 C 0.56856 0.99082 0.65976 0.0
C938 C 0.55211 0.03195 0.62458 0.0
H939 H 0.60748 0.98588 0.55219 0.0
H940 H 0.59907 0.98294 0.5811 0.0
H941 H 0.55573 0.05413 0.60204 0.0
H942 H 0.51352 0.03264 0.68116 0.0
H943 H 0.51485 0.02968 0.65181 0.0
H944 H 0.55448 0.95567 0.62953 0.0
C945 C 0.58495 0.99368 0.57395 0.0
C946 C 0.55508 0.03234 0.60787 0.0
C947 C 0.58992 0.99556 0.55742 0.0
C948 C 0.52915 0.02104 0.67536 0.0
C949 C 0.52994 0.01938 0.65855 0.0
C950 C 0.55486 0.97736 0.62368 0.0
C951 C 0.56262 0.00631 0.5812 0.0
C952 C 0.55822 0.00534 0.59888 0.0
C953 C 0.54994 0.00461 0.65054 0.0
C954 C 0.5521 0.00451 0.6327 0.0
H955 H 0.53626 0.03343 0.54779 0.0
H956 H 0.52747 0.0301 0.5767 0.0
H957 H 0.55985 0.95643 0.60034 0.0
H958 H 0.58296 0.98236 0.68337 0.0
H959 H 0.58452 0.97962 0.654 0.0
C960 C 0.54658 0.52228 0.88414 0.0
C961 C 0.53297 0.49361 0.87476 0.0
C962 C 0.55141 0.52167 0.90076 0.0
C963 C 0.52689 0.46818 0.93495 0.0
H964 H 0.59519 0.53366 0.95759 0.0
C965 C 0.55883 0.46679 0.00277 0.0
C966 C 0.55725 0.49439 0.01175 0.0
C967 C 0.55845 0.46602 0.98591 0.0
C968 C 0.57609 0.51521 0.95137 0.0
H969 H 0.51479 0.44175 0.87514 0.0
H970 H 0.52459 0.44034 0.90395 0.0
H971 H 0.59001 0.53292 0.9283 0.0
H972 H 0.55509 0.54305 0.01045 0.0
H973 H 0.55556 0.54214 0.98091 0.0
H974 H 0.51372 0.4501 0.95815 0.0
C975 C 0.53041 0.46353 0.89873 0.0
C976 C 0.57287 0.51489 0.9346 0.0
C977 C 0.52495 0.46425 0.88218 0.0
C978 C 0.55637 0.52156 0.0037 0.0
C979 C 0.55672 0.52106 0.98688 0.0
C980 C 0.53056 0.46812 0.95167 0.0
C981 C 0.5434 0.49226 0.90833 0.0
C982 C 0.54793 0.49164 0.92614 0.0
C983 C 0.55724 0.49312 0.97784 0.0
C984 C 0.55493 0.49187 0.96004 0.0
H985 H 0.55289 0.54528 0.87868 0.0
H986 H 0.56086 0.54439 0.90767 0.0
H987 H 0.50701 0.45026 0.92904 0.0
H988 H 0.55935 0.44555 0.00879 0.0
H989 H 0.5589 0.44424 0.97915 0.0
C990 C 0.07799 0.49522 0.20211 0.0
C991 C 0.07075 0.52166 0.19606 0.0
C992 C 0.07952 0.49216 0.21876 0.0
C993 C 0.0975 0.54028 0.25646 0.0
H994 H 1.0479 0.46498 0.27728 0.0
C995 C 0.08662 0.5421 0.32518 0.0
C996 C 0.08396 0.51384 0.33307 0.0
C997 C 0.08566 0.54157 0.30837 0.0
C998 C 0.06239 0.48596 0.27167 0.0
H999 H 0.0591 0.56537 0.20258 0.0
H1000 H 0.06263 0.56043 0.23161 0.0
H1001 H 1.04517 0.46606 0.24792 0.0
H1002 H 0.07854 0.46291 0.32968 0.0
H1003 H 0.07802 0.46206 0.30024 0.0
H1004 H 0.11547 0.56009 0.27991 0.0
C1005 C 0.06689 0.54203 0.22349 0.0
C1006 C 0.06065 0.48657 0.25486 0.0
C1007 C 0.06478 0.54477 0.2069 0.0
C1008 C 0.08046 0.485 0.32384 0.0
C1009 C 0.08 0.48453 0.30699 0.0
C1010 C 0.09968 0.53949 0.27318 0.0
C1011 C 0.07446 0.51584 0.22957 0.0
C1012 C 0.07779 0.51397 0.24718 0.0
C1013 C 0.08255 0.51284 0.29902 0.0
C1014 C 0.08171 0.51259 0.28107 0.0
H1015 H 0.08276 0.47711 0.19399 0.0
H1016 H 0.08547 0.4718 0.22321 0.0
H1017 H 0.11128 0.56151 0.25074 0.0
H1018 H 0.08882 0.56455 0.33203 0.0
H1019 H 0.08686 0.56369 0.30275 0.0
loop_
_geom_bond_atom_site_label_1
_geom_bond_atom_site_label_2
_geom_bond_distance
_geom_bond_site_symmetry_2
_ccdc_geom_bond_type
Nd0 C2 2.836 . S
Nd0 O20 2.500 . S
Nd0 O21 2.492 . S
Nd0 O22 2.487 . S
Nd0 O23 2.682 . S
Nd0 O24 2.410 . S
Nd0 O29 2.414 . S
Nd0 O31 2.424 1_455 S
Nd1 C11 2.836 1_455 S
Nd1 O23 2.414 . S
Nd1 O25 2.424 . S
Nd1 O26 2.500 1_455 S
Nd1 O27 2.492 1_455 S
Nd1 O28 2.487 . S
Nd1 O29 2.682 . S
Nd1 O30 2.410 1_455 S
C2 Nd0 2.836 . S
C2 C3 1.498 . S
C2 O20 1.258 . S
C2 O21 1.239 . S
C3 C2 1.498 . S
C3 C4 1.366 . S
C3 C8 1.407 . S
C4 C3 1.366 . S
C4 C5 1.392 . S
C4 H32 0.930 . S
C5 C4 1.392 . S
C5 C6 1.398 . S
C5 H33 0.929 . S
C6 C5 1.398 . S
C6 C7 1.352 . S
C7 C6 1.352 . S
C7 C8 1.384 . S
C7 H34 0.930 . S
C8 C3 1.407 . S
C8 C7 1.384 . S
C8 H35 0.929 . S
C9 O22 1.241 . S
C9 O23 1.273 . S
C10 O24 1.251 . S
C10 O25 1.268 . S
C11 Nd1 2.836 1_655 S
C11 C12 1.498 . S
C11 O26 1.258 . S
C11 O27 1.239 . S
C12 C11 1.498 . S
C12 C13 1.366 . S
C12 C17 1.407 . S
C13 C12 1.366 . S
C13 C14 1.392 . S
C13 H36 0.930 . S
C14 C13 1.392 . S
C14 C15 1.398 . S
C14 H37 0.929 . S
C15 C14 1.398 . S
C15 C16 1.352 . S
C16 C15 1.352 . S
C16 C17 1.384 . S
C16 H38 0.930 . S
C17 C12 1.407 . S
C17 C16 1.384 . S
C17 H39 0.929 . S
C18 O28 1.241 . S
C18 O29 1.273 . S
C19 O30 1.251 . S
C19 O31 1.268 . S
O20 Nd0 2.500 . S
O20 C2 1.258 . S
O21 Nd0 2.492 . S
O21 C2 1.239 . S
O22 Nd0 2.487 . S
O22 C9 1.241 . S
O23 Nd0 2.682 . S
O23 Nd1 2.414 . S
O23 C9 1.273 . S
O24 Nd0 2.410 . S
O24 C10 1.251 . S
O25 Nd1 2.424 . S
O25 C10 1.268 . S
O26 Nd1 2.500 1_655 S
O26 C11 1.258 . S
O27 Nd1 2.492 1_655 S
O27 C11 1.239 . S
O28 Nd1 2.487 . S
O28 C18 1.241 . S
O29 Nd0 2.414 . S
O29 Nd1 2.682 . S
O29 C18 1.273 . S
O30 Nd1 2.410 1_655 S
O30 C19 1.251 . S
O31 Nd0 2.424 1_655 S
O31 C19 1.268 . S
H32 C4 0.930 . S
H33 C5 0.929 . S
H34 C7 0.930 . S
H35 C8 0.929 . S
H36 C13 0.930 . S
H37 C14 0.929 . S
H38 C16 0.930 . S
H39 C17 0.929 . S
Nd40 C42 2.836 1_545 S
Nd40 O60 2.500 1_545 S
Nd40 O61 2.492 1_545 S
Nd40 O62 2.487 . S
Nd40 O63 2.682 . S
Nd40 O64 2.410 1_545 S
Nd40 O69 2.414 . S
Nd40 O71 2.424 . S
Nd41 C51 2.836 . S
Nd41 O63 2.414 . S
Nd41 O65 2.424 1_545 S
Nd41 O66 2.500 . S
Nd41 O67 2.492 . S
Nd41 O68 2.487 . S
Nd41 O69 2.682 . S
Nd41 O70 2.410 . S
C42 Nd40 2.836 1_565 S
C42 C43 1.498 . S
C42 O60 1.258 . S
C42 O61 1.239 . S
C43 C42 1.498 . S
C43 C44 1.366 . S
C43 C48 1.407 . S
C44 C43 1.366 . S
C44 C45 1.392 . S
C44 H72 0.930 . S
C45 C44 1.392 . S
C45 C46 1.398 . S
C45 H73 0.929 . S
C46 C45 1.398 . S
C46 C47 1.352 . S
C47 C46 1.352 . S
C47 C48 1.384 . S
C47 H74 0.930 . S
C48 C43 1.407 . S
C48 C47 1.384 . S
C48 H75 0.929 . S
C49 O62 1.241 . S
C49 O63 1.273 . S
C50 O64 1.251 . S
C50 O65 1.268 . S
C51 Nd41 2.836 . S
C51 C52 1.498 . S
C51 O66 1.258 . S
C51 O67 1.239 . S
C52 C51 1.498 . S
C52 C53 1.366 . S
C52 C57 1.407 . S
C53 C52 1.366 . S
C53 C54 1.392 . S
C53 H76 0.930 . S
C54 C53 1.392 . S
C54 C55 1.398 . S
C54 H77 0.929 . S
C55 C54 1.398 . S
C55 C56 1.352 . S
C56 C55 1.352 . S
C56 C57 1.384 . S
C56 H78 0.930 . S
C57 C52 1.407 . S
C57 C56 1.384 . S
C57 H79 0.929 . S
C58 O68 1.241 . S
C58 O69 1.273 . S
C59 O70 1.251 . S
C59 O71 1.268 . S
O60 Nd40 2.500 1_565 S
O60 C42 1.258 . S
O61 Nd40 2.492 1_565 S
O61 C42 1.239 . S
O62 Nd40 2.487 . S
O62 C49 1.241 . S
O63 Nd40 2.682 . S
O63 Nd41 2.414 . S
O63 C49 1.273 . S
O64 Nd40 2.410 1_565 S
O64 C50 1.251 . S
O65 Nd41 2.424 1_565 S
O65 C50 1.268 . S
O66 Nd41 2.500 . S
O66 C51 1.258 . S
O67 Nd41 2.492 . S
O67 C51 1.239 . S
O68 Nd41 2.487 . S
O68 C58 1.241 . S
O69 Nd40 2.414 . S
O69 Nd41 2.682 . S
O69 C58 1.273 . S
O70 Nd41 2.410 . S
O70 C59 1.251 . S
O71 Nd40 2.424 . S
O71 C59 1.268 . S
H72 C44 0.930 . S
H73 C45 0.929 . S
H74 C47 0.930 . S
H75 C48 0.929 . S
H76 C53 0.930 . S
H77 C54 0.929 . S
H78 C56 0.930 . S
H79 C57 0.929 . S
Nd80 C82 2.836 . S
Nd80 O100 2.500 . S
Nd80 O101 2.492 . S
Nd80 O102 2.487 . S
Nd80 O103 2.682 . S
Nd80 O104 2.410 . S
Nd80 O109 2.414 . S
Nd80 O111 2.424 . S
Nd81 C91 2.836 . S
Nd81 O103 2.414 . S
Nd81 O105 2.424 . S
Nd81 O106 2.500 . S
Nd81 O107 2.492 . S
Nd81 O108 2.487 . S
Nd81 O109 2.682 . S
Nd81 O110 2.410 . S
C82 Nd80 2.836 . S
C82 C83 1.498 . S
C82 O100 1.258 . S
C82 O101 1.239 . S
C83 C82 1.498 . S
C83 C84 1.366 . S
C83 C88 1.407 . S
C84 C83 1.366 . S
C84 C85 1.392 . S
C84 H112 0.930 . S
C85 C84 1.392 . S
C85 C86 1.398 . S
C85 H113 0.929 . S
C86 C85 1.398 . S
C86 C87 1.352 . S
C87 C86 1.352 . S
C87 C88 1.384 . S
C87 H114 0.930 . S
C88 C83 1.407 . S
C88 C87 1.384 . S
C88 H115 0.929 . S
C89 O102 1.241 . S
C89 O103 1.273 . S
C90 O104 1.251 . S
C90 O105 1.268 . S
C91 Nd81 2.836 . S
C91 C92 1.498 . S
C91 O106 1.258 . S
C91 O107 1.239 . S
C92 C91 1.498 . S
C92 C93 1.366 . S
C92 C97 1.407 . S
C93 C92 1.366 . S
C93 C94 1.392 . S
C93 H116 0.930 . S
C94 C93 1.392 . S
C94 C95 1.398 . S
C94 H117 0.929 . S
C95 C94 1.398 . S
C95 C96 1.352 . S
C96 C95 1.352 . S
C96 C97 1.384 . S
C96 H118 0.930 . S
C97 C92 1.407 . S
C97 C96 1.384 . S
C97 H119 0.929 . S
C98 O108 1.241 . S
C98 O109 1.273 . S
C99 O110 1.251 . S
C99 O111 1.268 . S
O100 Nd80 2.500 . S
O100 C82 1.258 . S
O101 Nd80 2.492 . S
O101 C82 1.239 . S
O102 Nd80 2.487 . S
O102 C89 1.241 . S
O103 Nd80 2.682 . S
O103 Nd81 2.414 . S
O103 C89 1.273 . S
O104 Nd80 2.410 . S
O104 C90 1.251 . S
O105 Nd81 2.424 . S
O105 C90 1.268 . S
O106 Nd81 2.500 . S
O106 C91 1.258 . S
O107 Nd81 2.492 . S
O107 C91 1.239 . S
O108 Nd81 2.487 . S
O108 C98 1.241 . S
O109 Nd80 2.414 . S
O109 Nd81 2.682 . S
O109 C98 1.273 . S
O110 Nd81 2.410 . S
O110 C99 1.251 . S
O111 Nd80 2.424 . S
O111 C99 1.268 . S
H112 C84 0.930 . S
H113 C85 0.929 . S
H114 C87 0.930 . S
H115 C88 0.929 . S
H116 C93 0.930 . S
H117 C94 0.929 . S
H118 C96 0.930 . S
H119 C97 0.929 . S
C120 C121 1.391 . S
C120 C124 1.391 . S
C120 H162 0.948 . S
C121 C120 1.391 . S
C121 C122 1.391 . S
C122 C121 1.391 . S
C122 H178 0.947 . S
C122 C179 1.392 . S
C123 C124 1.391 . S
C123 C127 1.397 . S
C123 C179 1.419 . S
C124 C120 1.391 . S
C124 C123 1.391 . S
C124 C125 1.399 . S
C125 C124 1.399 . S
C125 C128 1.396 . S
C125 C137 1.453 . S
C125 C138 1.684 . S
H126 C150 0.948 . S
C127 C123 1.397 . S
C127 C128 1.394 . S
C127 C146 1.723 . S
C128 C125 1.396 . S
C128 C127 1.394 . S
C128 C158 1.723 . S
H129 C152 0.947 . S
H130 C153 0.948 . S
H131 C159 0.982 . S
H132 C160 0.979 . S
H133 C160 0.980 . S
H134 C160 0.983 . S
H135 C159 0.979 . S
H136 C159 0.977 . S
C137 C125 1.453 . S
C137 H166 0.982 . S
C137 H167 0.979 . S
C137 H168 0.977 . S
C138 C125 1.684 . S
C138 H163 0.979 . S
C138 H164 0.980 . S
C138 H165 0.983 . S
C139 C140 1.391 . S
C139 C144 1.391 . S
C139 H169 0.948 . S
C140 C139 1.391 . S
C140 C141 1.391 . S
C141 C140 1.391 . S
C141 C142 1.392 . S
C141 H170 0.947 1_545 S
C142 C141 1.392 . S
C142 C143 1.419 . S
C142 H171 0.948 1_545 S
C143 C142 1.419 . S
C143 C144 1.391 . S
C143 C147 1.397 . S
C144 C139 1.391 . S
C144 C143 1.391 . S
C144 C145 1.399 . S
C145 C144 1.399 . S
C145 C146 1.396 . S
C145 C148 1.453 . S
C145 C149 1.684 . S
C146 C127 1.723 . S
C146 C145 1.396 . S
C146 C147 1.394 . S
C147 C143 1.397 . S
C147 C146 1.394 . S
C147 C157 1.723 1_545 S
C148 C145 1.453 . S
C148 H172 0.982 . S
C148 H173 0.979 . S
C148 H174 0.977 . S
C149 C145 1.684 . S
C149 H175 0.979 . S
C149 H176 0.980 . S
C149 H177 0.983 . S
C150 H126 0.948 . S
C150 C151 1.391 . S
C150 C155 1.391 . S
C151 C150 1.391 . S
C151 C152 1.391 . S
C152 H129 0.947 . S
C152 C151 1.391 . S
C152 C153 1.392 . S
C153 H130 0.948 . S
C153 C152 1.392 . S
C153 C154 1.419 . S
C154 C153 1.419 . S
C154 C155 1.391 . S
C154 C158 1.397 1_565 S
C155 C150 1.391 . S
C155 C154 1.391 . S
C155 C156 1.399 . S
C156 C155 1.399 . S
C156 C157 1.396 . S
C156 C159 1.453 . S
C156 C160 1.684 . S
C157 C147 1.723 1_565 S
C157 C156 1.396 . S
C157 C158 1.394 1_565 S
C158 C128 1.723 . S
C158 C154 1.397 1_545 S
C158 C157 1.394 1_545 S
C159 H131 0.982 . S
C159 H135 0.979 . S
C159 H136 0.977 . S
C159 C156 1.453 . S
C160 H132 0.979 . S
C160 H133 0.980 . S
C160 H134 0.983 . S
C160 C156 1.684 . S
H161 C179 0.948 . S
H162 C120 0.948 . S
H163 C138 0.979 . S
H164 C138 0.980 . S
H165 C138 0.983 . S
H166 C137 0.982 . S
H167 C137 0.979 . S
H168 C137 0.977 . S
H169 C139 0.948 . S
H170 C141 0.947 1_565 S
H171 C142 0.948 1_565 S
H172 C148 0.982 . S
H173 C148 0.979 . S
H174 C148 0.977 . S
H175 C149 0.979 . S
H176 C149 0.980 . S
H177 C149 0.983 . S
H178 C122 0.947 . S
C179 C122 1.392 . S
C179 C123 1.419 . S
C179 H161 0.948 . S
C180 C181 1.391 . S
C180 C184 1.391 . S
C180 H222 0.948 . S
C181 C180 1.391 . S
C181 C182 1.391 . S
C182 C181 1.391 . S
C182 H238 0.947 . S
C182 C239 1.392 . S
C183 C184 1.391 . S
C183 C187 1.397 . S
C183 C239 1.419 . S
C184 C180 1.391 . S
C184 C183 1.391 . S
C184 C185 1.399 . S
C185 C184 1.399 . S
C185 C188 1.396 . S
C185 C197 1.453 . S
C185 C198 1.684 . S
H186 C210 0.948 . S
C187 C183 1.397 . S
C187 C188 1.394 . S
C187 C206 1.723 . S
C188 C185 1.396 . S
C188 C187 1.394 . S
C188 C218 1.723 . S
H189 C212 0.947 . S
H190 C213 0.948 . S
H191 C219 0.982 . S
H192 C220 0.979 . S
H193 C220 0.980 . S
H194 C220 0.983 . S
H195 C219 0.979 . S
H196 C219 0.977 . S
C197 C185 1.453 . S
C197 H226 0.982 . S
C197 H227 0.979 . S
C197 H228 0.977 . S
C198 C185 1.684 . S
C198 H223 0.979 . S
C198 H224 0.980 . S
C198 H225 0.983 . S
C199 C200 1.391 . S
C199 C204 1.391 . S
C199 H229 0.948 . S
C200 C199 1.391 . S
C200 C201 1.391 . S
C201 C200 1.391 . S
C201 C202 1.392 . S
C201 H230 0.947 . S
C202 C201 1.392 . S
C202 C203 1.419 . S
C202 H231 0.948 . S
C203 C202 1.419 . S
C203 C204 1.391 . S
C203 C207 1.397 . S
C204 C199 1.391 . S
C204 C203 1.391 . S
C204 C205 1.399 . S
C205 C204 1.399 . S
C205 C206 1.396 . S
C205 C208 1.453 . S
C205 C209 1.684 . S
C206 C187 1.723 . S
C206 C205 1.396 . S
C206 C207 1.394 . S
C207 C203 1.397 . S
C207 C206 1.394 . S
C207 C217 1.723 . S
C208 C205 1.453 . S
C208 H232 0.982 . S
C208 H233 0.979 . S
C208 H234 0.977 . S
C209 C205 1.684 . S
C209 H235 0.979 . S
C209 H236 0.980 . S
C209 H237 0.983 . S
C210 H186 0.948 . S
C210 C211 1.391 . S
C210 C215 1.391 . S
C211 C210 1.391 . S
C211 C212 1.391 . S
C212 H189 0.947 . S
C212 C211 1.391 . S
C212 C213 1.392 . S
C213 H190 0.948 . S
C213 C212 1.392 . S
C213 C214 1.419 . S
C214 C213 1.419 . S
C214 C215 1.391 . S
C214 C218 1.397 . S
C215 C210 1.391 . S
C215 C214 1.391 . S
C215 C216 1.399 . S
C216 C215 1.399 . S
C216 C217 1.396 . S
C216 C219 1.453 . S
C216 C220 1.684 . S
C217 C207 1.723 . S
C217 C216 1.396 . S
C217 C218 1.394 . S
C218 C188 1.723 . S
C218 C214 1.397 . S
C218 C217 1.394 . S
C219 H191 0.982 . S
C219 H195 0.979 . S
C219 H196 0.977 . S
C219 C216 1.453 . S
C220 H192 0.979 . S
C220 H193 0.980 . S
C220 H194 0.983 . S
C220 C216 1.684 . S
H221 C239 0.948 . S
H222 C180 0.948 . S
H223 C198 0.979 . S
H224 C198 0.980 . S
H225 C198 0.983 . S
H226 C197 0.982 . S
H227 C197 0.979 . S
H228 C197 0.977 . S
H229 C199 0.948 . S
H230 C201 0.947 . S
H231 C202 0.948 . S
H232 C208 0.982 . S
H233 C208 0.979 . S
H234 C208 0.977 . S
H235 C209 0.979 . S
H236 C209 0.980 . S
H237 C209 0.983 . S
H238 C182 0.947 . S
C239 C182 1.392 . S
C239 C183 1.419 . S
C239 H221 0.948 . S
C240 C241 1.391 . S
C240 C244 1.391 . S
C240 H282 0.948 . S
C241 C240 1.391 . S
C241 C242 1.391 . S
C242 C241 1.391 . S
C242 H298 0.947 . S
C242 C299 1.392 . S
C243 C244 1.391 . S
C243 C247 1.397 . S
C243 C299 1.419 . S
C244 C240 1.391 . S
C244 C243 1.391 . S
C244 C245 1.399 . S
C245 C244 1.399 . S
C245 C248 1.396 . S
C245 C257 1.453 . S
C245 C258 1.684 . S
H246 C270 0.948 . S
C247 C243 1.397 . S
C247 C248 1.394 . S
C247 C266 1.723 . S
C248 C245 1.396 . S
C248 C247 1.394 . S
C248 C278 1.723 . S
H249 C272 0.947 . S
H250 C273 0.948 1_455 S
H251 C279 0.982 . S
H252 C280 0.979 . S
H253 C280 0.980 . S
H254 C280 0.983 . S
H255 C279 0.979 . S
H256 C279 0.977 . S
C257 C245 1.453 . S
C257 H286 0.982 . S
C257 H287 0.979 . S
C257 H288 0.977 . S
C258 C245 1.684 . S
C258 H283 0.979 . S
C258 H284 0.980 . S
C258 H285 0.983 . S
C259 C260 1.391 . S
C259 C264 1.391 . S
C259 H289 0.948 . S
C260 C259 1.391 . S
C260 C261 1.391 . S
C261 C260 1.391 . S
C261 C262 1.392 . S
C261 H290 0.947 1_455 S
C262 C261 1.392 . S
C262 C263 1.419 . S
C262 H291 0.948 1_455 S
C263 C262 1.419 . S
C263 C264 1.391 . S
C263 C267 1.397 . S
C264 C259 1.391 . S
C264 C263 1.391 . S
C264 C265 1.399 . S
C265 C264 1.399 . S
C265 C266 1.396 . S
C265 C268 1.453 . S
C265 C269 1.684 . S
C266 C247 1.723 . S
C266 C265 1.396 . S
C266 C267 1.394 . S
C267 C263 1.397 . S
C267 C266 1.394 . S
C267 C277 1.723 . S
C268 C265 1.453 . S
C268 H292 0.982 . S
C268 H293 0.979 . S
C268 H294 0.977 . S
C269 C265 1.684 . S
C269 H295 0.979 . S
C269 H296 0.980 . S
C269 H297 0.983 . S
C270 H246 0.948 . S
C270 C271 1.391 . S
C270 C275 1.391 . S
C271 C270 1.391 . S
C271 C272 1.391 . S
C272 H249 0.947 . S
C272 C271 1.391 . S
C272 C273 1.392 . S
C273 H250 0.948 1_655 S
C273 C272 1.392 . S
C273 C274 1.419 . S
C274 C273 1.419 . S
C274 C275 1.391 . S
C274 C278 1.397 1_655 S
C275 C270 1.391 . S
C275 C274 1.391 . S
C275 C276 1.399 . S
C276 C275 1.399 . S
C276 C277 1.396 1_655 S
C276 C279 1.453 . S
C276 C280 1.684 . S
C277 C267 1.723 . S
C277 C276 1.396 1_455 S
C277 C278 1.394 . S
C278 C248 1.723 . S
C278 C274 1.397 1_455 S
C278 C277 1.394 . S
C279 H251 0.982 . S
C279 H255 0.979 . S
C279 H256 0.977 . S
C279 C276 1.453 . S
C280 H252 0.979 . S
C280 H253 0.980 . S
C280 H254 0.983 . S
C280 C276 1.684 . S
H281 C299 0.948 . S
H282 C240 0.948 . S
H283 C258 0.979 . S
H284 C258 0.980 . S
H285 C258 0.983 . S
H286 C257 0.982 . S
H287 C257 0.979 . S
H288 C257 0.977 . S
H289 C259 0.948 . S
H290 C261 0.947 1_655 S
H291 C262 0.948 1_655 S
H292 C268 0.982 . S
H293 C268 0.979 . S
H294 C268 0.977 . S
H295 C269 0.979 . S
H296 C269 0.980 . S
H297 C269 0.983 . S
H298 C242 0.947 . S
C299 C242 1.392 . S
C299 C243 1.419 . S
C299 H281 0.948 . S
C300 C301 1.391 . S
C300 C304 1.391 . S
C300 H342 0.948 . S
C301 C300 1.391 . S
C301 C302 1.391 . S
C302 C301 1.391 . S
C302 H358 0.947 . S
C302 C359 1.392 . S
C303 C304 1.391 . S
C303 C307 1.397 . S
C303 C359 1.419 . S
C304 C300 1.391 . S
C304 C303 1.391 . S
C304 C305 1.399 . S
C305 C304 1.399 . S
C305 C308 1.396 . S
C305 C317 1.453 . S
C305 C318 1.684 . S
H306 C330 0.948 . S
C307 C303 1.397 . S
C307 C308 1.394 . S
C307 C326 1.723 . S
C308 C305 1.396 . S
C308 C307 1.394 . S
C308 C338 1.723 1_655 S
H309 C332 0.947 . S
H310 C333 0.948 . S
H311 C339 0.982 . S
H312 C340 0.979 . S
H313 C340 0.980 . S
H314 C340 0.983 . S
H315 C339 0.979 . S
H316 C339 0.977 . S
C317 C305 1.453 . S
C317 H346 0.982 1_655 S
C317 H347 0.979 . S
C317 H348 0.977 1_655 S
C318 C305 1.684 . S
C318 H343 0.979 . S
C318 H344 0.980 . S
C318 H345 0.983 . S
C319 C320 1.391 1_655 S
C319 C324 1.391 . S
C319 H349 0.948 . S
C320 C319 1.391 1_455 S
C320 C321 1.391 . S
C321 C320 1.391 . S
C321 C322 1.392 . S
C321 H350 0.947 . S
C322 C321 1.392 . S
C322 C323 1.419 . S
C322 H351 0.948 . S
C323 C322 1.419 . S
C323 C324 1.391 1_455 S
C323 C327 1.397 . S
C324 C319 1.391 . S
C324 C323 1.391 1_655 S
C324 C325 1.399 . S
C325 C324 1.399 . S
C325 C326 1.396 . S
C325 C328 1.453 . S
C325 C329 1.684 . S
C326 C307 1.723 . S
C326 C325 1.396 . S
C326 C327 1.394 1_655 S
C327 C323 1.397 . S
C327 C326 1.394 1_455 S
C327 C337 1.723 . S
C328 C325 1.453 . S
C328 H352 0.982 . S
C328 H353 0.979 . S
C328 H354 0.977 . S
C329 C325 1.684 . S
C329 H355 0.979 . S
C329 H356 0.980 . S
C329 H357 0.983 . S
C330 H306 0.948 . S
C330 C331 1.391 . S
C330 C335 1.391 . S
C331 C330 1.391 . S
C331 C332 1.391 . S
C332 H309 0.947 . S
C332 C331 1.391 . S
C332 C333 1.392 . S
C333 H310 0.948 . S
C333 C332 1.392 . S
C333 C334 1.419 . S
C334 C333 1.419 . S
C334 C335 1.391 . S
C334 C338 1.397 . S
C335 C330 1.391 . S
C335 C334 1.391 . S
C335 C336 1.399 . S
C336 C335 1.399 . S
C336 C337 1.396 . S
C336 C339 1.453 . S
C336 C340 1.684 . S
C337 C327 1.723 . S
C337 C336 1.396 . S
C337 C338 1.394 . S
C338 C308 1.723 1_455 S
C338 C334 1.397 . S
C338 C337 1.394 . S
C339 H311 0.982 . S
C339 H315 0.979 . S
C339 H316 0.977 . S
C339 C336 1.453 . S
C340 H312 0.979 . S
C340 H313 0.980 . S
C340 H314 0.983 . S
C340 C336 1.684 . S
H341 C359 0.948 . S
H342 C300 0.948 . S
H343 C318 0.979 . S
H344 C318 0.980 . S
H345 C318 0.983 . S
H346 C317 0.982 1_455 S
H347 C317 0.979 . S
H348 C317 0.977 1_455 S
H349 C319 0.948 . S
H350 C321 0.947 . S
H351 C322 0.948 . S
H352 C328 0.982 . S
H353 C328 0.979 . S
H354 C328 0.977 . S
H355 C329 0.979 . S
H356 C329 0.980 . S
H357 C329 0.983 . S
H358 C302 0.947 . S
C359 C302 1.392 . S
C359 C303 1.419 . S
C359 H341 0.948 . S
C360 C361 1.391 . S
C360 C364 1.391 . S
C360 H402 0.948 . S
C361 C360 1.391 . S
C361 C362 1.391 . S
C362 C361 1.391 . S
C362 H418 0.947 . S
C362 C419 1.392 . S
C363 C364 1.391 . S
C363 C367 1.397 . S
C363 C419 1.419 . S
C364 C360 1.391 . S
C364 C363 1.391 . S
C364 C365 1.399 . S
C365 C364 1.399 . S
C365 C368 1.379 1_565 S
C365 C377 1.453 1_565 S
C365 C378 1.684 . S
H366 C390 0.948 . S
C367 C363 1.397 . S
C367 C368 1.374 1_565 S
C367 C386 1.723 . S
C368 C365 1.379 1_545 S
C368 C367 1.374 1_545 S
C368 C398 1.754 . S
H369 C392 0.947 . S
H370 C393 0.948 . S
H371 C399 0.982 . S
H372 C400 0.979 . S
H373 C400 0.980 . S
H374 C400 0.983 . S
H375 C399 0.979 . S
H376 C399 0.977 . S
C377 C365 1.453 1_545 S
C377 H406 0.982 . S
C377 H407 0.979 1_545 S
C377 H408 0.977 . S
C378 C365 1.684 . S
C378 H403 0.979 . S
C378 H404 0.980 1_565 S
C378 H405 0.983 . S
C379 C380 1.391 1_565 S
C379 C384 1.391 . S
C379 H409 0.948 . S
C380 C379 1.391 1_545 S
C380 C381 1.391 . S
C381 C380 1.391 . S
C381 C382 1.392 . S
C381 H410 0.947 . S
C382 C381 1.392 . S
C382 C383 1.419 . S
C382 H411 0.948 . S
C383 C382 1.419 . S
C383 C384 1.391 1_545 S
C383 C387 1.397 . S
C384 C379 1.391 . S
C384 C383 1.391 1_565 S
C384 C385 1.399 . S
C385 C384 1.399 . S
C385 C386 1.396 . S
C385 C388 1.453 . S
C385 C389 1.684 . S
C386 C367 1.723 . S
C386 C385 1.396 . S
C386 C387 1.394 1_565 S
C387 C383 1.397 . S
C387 C386 1.394 1_545 S
C387 C397 1.723 . S
C388 C385 1.453 . S
C388 H412 0.982 . S
C388 H413 0.979 . S
C388 H414 0.977 . S
C389 C385 1.684 . S
C389 H415 0.979 . S
C389 H416 0.980 . S
C389 H417 0.983 . S
C390 H366 0.948 . S
C390 C391 1.391 . S
C390 C395 1.391 . S
C391 C390 1.391 . S
C391 C392 1.391 . S
C392 H369 0.947 . S
C392 C391 1.391 . S
C392 C393 1.392 . S
C393 H370 0.948 . S
C393 C392 1.392 . S
C393 C394 1.419 . S
C394 C393 1.419 . S
C394 C395 1.391 . S
C394 C398 1.397 . S
C395 C390 1.391 . S
C395 C394 1.391 . S
C395 C396 1.399 . S
C396 C395 1.399 . S
C396 C397 1.396 . S
C396 C399 1.453 . S
C396 C400 1.684 . S
C397 C387 1.723 . S
C397 C396 1.396 . S
C397 C398 1.394 . S
C398 C368 1.754 . S
C398 C394 1.397 . S
C398 C397 1.394 . S
C399 H371 0.982 . S
C399 H375 0.979 . S
C399 H376 0.977 . S
C399 C396 1.453 . S
C400 H372 0.979 . S
C400 H373 0.980 . S
C400 H374 0.983 . S
C400 C396 1.684 . S
H401 C419 0.948 . S
H402 C360 0.948 . S
H403 C378 0.979 . S
H404 C378 0.980 1_545 S
H405 C378 0.983 . S
H406 C377 0.982 . S
H407 C377 0.979 1_565 S
H408 C377 0.977 . S
H409 C379 0.948 . S
H410 C381 0.947 . S
H411 C382 0.948 . S
H412 C388 0.982 . S
H413 C388 0.979 . S
H414 C388 0.977 . S
H415 C389 0.979 . S
H416 C389 0.980 . S
H417 C389 0.983 . S
H418 C362 0.947 . S
C419 C362 1.392 . S
C419 C363 1.419 . S
C419 H401 0.948 . S
C420 C421 1.391 . S
C420 C424 1.391 . S
C420 H462 0.948 . S
C421 C420 1.391 . S
C421 C422 1.391 . S
C422 C421 1.391 . S
C422 H478 0.947 . S
C422 C479 1.392 . S
C423 C424 1.391 . S
C423 C427 1.397 . S
C423 C479 1.419 . S
C424 C420 1.391 . S
C424 C423 1.391 . S
C424 C425 1.399 . S
C425 C424 1.399 . S
C425 C428 1.396 . S
C425 C437 1.453 . S
C425 C438 1.684 . S
H426 C450 0.948 . S
C427 C423 1.397 . S
C427 C428 1.394 . S
C427 C446 1.723 . S
C428 C425 1.396 . S
C428 C427 1.394 . S
C428 C458 1.723 . S
H429 C452 0.947 . S
H430 C453 0.948 . S
H431 C459 0.982 . S
H432 C460 0.979 . S
H433 C460 0.980 . S
H434 C460 0.983 . S
H435 C459 0.979 . S
H436 C459 0.977 . S
C437 C425 1.453 . S
C437 H466 0.982 . S
C437 H467 0.979 . S
C437 H468 0.977 . S
C438 C425 1.684 . S
C438 H463 0.979 . S
C438 H464 0.980 . S
C438 H465 0.983 . S
C439 C440 1.391 . S
C439 C444 1.391 . S
C439 H469 0.948 . S
C440 C439 1.391 . S
C440 C441 1.391 . S
C441 C440 1.391 . S
C441 C442 1.392 . S
C441 H470 0.947 . S
C442 C441 1.392 . S
C442 C443 1.419 . S
C442 H471 0.948 . S
C443 C442 1.419 . S
C443 C444 1.391 . S
C443 C447 1.397 . S
C444 C439 1.391 . S
C444 C443 1.391 . S
C444 C445 1.399 . S
C445 C444 1.399 . S
C445 C446 1.396 . S
C445 C448 1.453 . S
C445 C449 1.684 . S
C446 C427 1.723 . S
C446 C445 1.396 . S
C446 C447 1.394 . S
C447 C443 1.397 . S
C447 C446 1.394 . S
C447 C457 1.723 . S
C448 C445 1.453 . S
C448 H472 0.982 . S
C448 H473 0.979 . S
C448 H474 0.977 . S
C449 C445 1.684 . S
C449 H475 0.979 . S
C449 H476 0.980 . S
C449 H477 0.983 . S
C450 H426 0.948 . S
C450 C451 1.391 . S
C450 C455 1.391 . S
C451 C450 1.391 . S
C451 C452 1.391 . S
C452 H429 0.947 . S
C452 C451 1.391 . S
C452 C453 1.392 . S
C453 H430 0.948 . S
C453 C452 1.392 . S
C453 C454 1.419 . S
C454 C453 1.419 . S
C454 C455 1.391 . S
C454 C458 1.397 . S
C455 C450 1.391 . S
C455 C454 1.391 . S
C455 C456 1.399 . S
C456 C455 1.399 . S
C456 C457 1.396 . S
C456 C459 1.453 . S
C456 C460 1.684 . S
C457 C447 1.723 . S
C457 C456 1.396 . S
C457 C458 1.394 . S
C458 C428 1.723 . S
C458 C454 1.397 . S
C458 C457 1.394 . S
C459 H431 0.982 . S
C459 H435 0.979 . S
C459 H436 0.977 . S
C459 C456 1.453 . S
C460 H432 0.979 . S
C460 H433 0.980 . S
C460 H434 0.983 . S
C460 C456 1.684 . S
H461 C479 0.948 . S
H462 C420 0.948 . S
H463 C438 0.979 . S
H464 C438 0.980 . S
H465 C438 0.983 . S
H466 C437 0.982 . S
H467 C437 0.979 . S
H468 C437 0.977 . S
H469 C439 0.948 . S
H470 C441 0.947 . S
H471 C442 0.948 . S
H472 C448 0.982 . S
H473 C448 0.979 . S
H474 C448 0.977 . S
H475 C449 0.979 . S
H476 C449 0.980 . S
H477 C449 0.983 . S
H478 C422 0.947 . S
C479 C422 1.392 . S
C479 C423 1.419 . S
C479 H461 0.948 . S
C480 C481 1.349 . S
C480 C482 1.327 . S
C480 H505 0.950 . S
C481 C480 1.349 . S
C481 C497 1.349 . S
C482 C480 1.327 . S
C482 C501 1.429 . S
C482 H506 0.950 . S
C483 C500 1.574 . S
C483 C502 1.368 . S
C483 H507 0.949 . S
H484 C488 0.949 . S
C485 C486 1.349 . S
C485 C487 1.327 . S
C485 H508 0.950 . S
C486 C485 1.349 . S
C486 C498 1.349 . S
C487 C485 1.327 . S
C487 C503 1.429 . S
C487 H509 0.950 . S
C488 H484 0.949 . S
C488 C496 1.574 . S
C488 C504 1.368 . S
H489 C497 0.950 . S
H490 C495 0.950 . S
H491 C496 0.949 . S
H492 C498 0.950 . S
H493 C499 0.950 . S
H494 C500 0.949 . S
C495 H490 0.950 . S
C495 C497 1.327 . S
C495 C501 1.429 . S
C496 C488 1.574 . S
C496 H491 0.949 . S
C496 C502 1.368 . S
C497 C481 1.349 . S
C497 H489 0.950 . S
C497 C495 1.327 . S
C498 C486 1.349 . S
C498 H492 0.950 . S
C498 C499 1.327 . S
C499 H493 0.950 . S
C499 C498 1.327 . S
C499 C503 1.429 . S
C500 C483 1.574 . S
C500 H494 0.949 . S
C500 C504 1.368 . S
C501 C482 1.429 . S
C501 C495 1.429 . S
C501 C502 1.523 . S
C502 C483 1.368 . S
C502 C496 1.368 . S
C502 C501 1.523 . S
C503 C487 1.429 . S
C503 C499 1.429 . S
C503 C504 1.523 . S
C504 C488 1.368 . S
C504 C500 1.368 . S
C504 C503 1.523 . S
H505 C480 0.950 . S
H506 C482 0.950 . S
H507 C483 0.949 . S
H508 C485 0.950 . S
H509 C487 0.950 . S
C510 C511 1.349 . S
C510 C512 1.327 . S
C510 H535 0.950 . S
C511 C510 1.349 . S
C511 C527 1.349 . S
C512 C510 1.327 . S
C512 C531 1.429 . S
C512 H536 0.950 . S
C513 C530 1.574 . S
C513 C532 1.368 . S
C513 H537 0.949 . S
H514 C518 0.949 . S
C515 C516 1.349 . S
C515 C517 1.327 . S
C515 H538 0.950 . S
C516 C515 1.349 . S
C516 C528 1.349 . S
C517 C515 1.327 . S
C517 C533 1.429 . S
C517 H539 0.950 . S
C518 H514 0.949 . S
C518 C526 1.574 . S
C518 C534 1.368 . S
H519 C527 0.950 . S
H520 C525 0.950 . S
H521 C526 0.949 . S
H522 C528 0.950 . S
H523 C529 0.950 . S
H524 C530 0.949 . S
C525 H520 0.950 . S
C525 C527 1.327 . S
C525 C531 1.429 . S
C526 C518 1.574 . S
C526 H521 0.949 . S
C526 C532 1.368 . S
C527 C511 1.349 . S
C527 H519 0.950 . S
C527 C525 1.327 . S
C528 C516 1.349 . S
C528 H522 0.950 . S
C528 C529 1.327 . S
C529 H523 0.950 . S
C529 C528 1.327 . S
C529 C533 1.429 . S
C530 C513 1.574 . S
C530 H524 0.949 . S
C530 C534 1.368 . S
C531 C512 1.429 . S
C531 C525 1.429 . S
C531 C532 1.523 . S
C532 C513 1.368 . S
C532 C526 1.368 . S
C532 C531 1.523 . S
C533 C517 1.429 . S
C533 C529 1.429 . S
C533 C534 1.523 . S
C534 C518 1.368 . S
C534 C530 1.368 . S
C534 C533 1.523 . S
H535 C510 0.950 . S
H536 C512 0.950 . S
H537 C513 0.949 . S
H538 C515 0.950 . S
H539 C517 0.950 . S
C540 C541 1.349 . S
C540 C542 1.327 . S
C540 H565 0.950 . S
C541 C540 1.349 . S
C541 C557 1.349 . S
C542 C540 1.327 . S
C542 C561 1.429 . S
C542 H566 0.950 . S
C543 C560 1.574 . S
C543 C562 1.368 . S
C543 H567 0.949 . S
H544 C548 0.949 . S
C545 C546 1.349 . S
C545 C547 1.327 . S
C545 H568 0.950 . S
C546 C545 1.349 . S
C546 C558 1.349 . S
C547 C545 1.327 . S
C547 C563 1.429 . S
C547 H569 0.950 . S
C548 H544 0.949 . S
C548 C556 1.574 . S
C548 C564 1.368 . S
H549 C557 0.950 . S
H550 C555 0.950 . S
H551 C556 0.949 . S
H552 C558 0.950 . S
H553 C559 0.950 . S
H554 C560 0.949 . S
C555 H550 0.950 . S
C555 C557 1.327 . S
C555 C561 1.429 . S
C556 C548 1.574 . S
C556 H551 0.949 . S
C556 C562 1.368 . S
C557 C541 1.349 . S
C557 H549 0.950 . S
C557 C555 1.327 . S
C558 C546 1.349 . S
C558 H552 0.950 . S
C558 C559 1.327 . S
C559 H553 0.950 . S
C559 C558 1.327 . S
C559 C563 1.429 . S
C560 C543 1.574 . S
C560 H554 0.949 . S
C560 C564 1.368 . S
C561 C542 1.429 . S
C561 C555 1.429 . S
C561 C562 1.523 . S
C562 C543 1.368 . S
C562 C556 1.368 . S
C562 C561 1.523 . S
C563 C547 1.429 . S
C563 C559 1.429 . S
C563 C564 1.523 . S
C564 C548 1.368 . S
C564 C560 1.368 . S
C564 C563 1.523 . S
H565 C540 0.950 . S
H566 C542 0.950 . S
H567 C543 0.949 . S
H568 C545 0.950 . S
H569 C547 0.950 . S
C570 C571 1.349 . S
C570 C572 1.327 . S
C570 H595 0.950 . S
C571 C570 1.349 . S
C571 C587 1.349 . S
C572 C570 1.327 . S
C572 C591 1.429 . S
C572 H596 0.950 . S
C573 C590 1.574 . S
C573 C592 1.368 . S
C573 H597 0.949 . S
H574 C578 0.949 . S
C575 C576 1.349 . S
C575 C577 1.327 . S
C575 H598 0.950 . S
C576 C575 1.349 . S
C576 C588 1.349 . S
C577 C575 1.327 . S
C577 C593 1.429 . S
C577 H599 0.950 . S
C578 H574 0.949 . S
C578 C586 1.574 . S
C578 C594 1.368 . S
H579 C587 0.950 . S
H580 C585 0.950 . S
H581 C586 0.949 . S
H582 C588 0.950 . S
H583 C589 0.950 . S
H584 C590 0.949 . S
C585 H580 0.950 . S
C585 C587 1.327 . S
C585 C591 1.429 . S
C586 C578 1.574 . S
C586 H581 0.949 . S
C586 C592 1.368 . S
C587 C571 1.349 . S
C587 H579 0.950 . S
C587 C585 1.327 . S
C588 C576 1.349 . S
C588 H582 0.950 . S
C588 C589 1.327 . S
C589 H583 0.950 . S
C589 C588 1.327 . S
C589 C593 1.429 . S
C590 C573 1.574 . S
C590 H584 0.949 . S
C590 C594 1.368 . S
C591 C572 1.429 . S
C591 C585 1.429 . S
C591 C592 1.523 . S
C592 C573 1.368 . S
C592 C586 1.368 . S
C592 C591 1.523 . S
C593 C577 1.429 . S
C593 C589 1.429 . S
C593 C594 1.523 . S
C594 C578 1.368 . S
C594 C590 1.368 . S
C594 C593 1.523 . S
H595 C570 0.950 . S
H596 C572 0.950 . S
H597 C573 0.949 . S
H598 C575 0.950 . S
H599 C577 0.950 . S
C600 C601 1.349 . S
C600 C602 1.327 . S
C600 H625 0.950 . S
C601 C600 1.349 . S
C601 C617 1.349 . S
C602 C600 1.327 . S
C602 C621 1.429 . S
C602 H626 0.950 . S
C603 C620 1.574 . S
C603 C622 1.368 . S
C603 H627 0.949 . S
H604 C608 0.949 . S
C605 C606 1.349 . S
C605 C607 1.327 . S
C605 H628 0.950 . S
C606 C605 1.349 . S
C606 C618 1.349 . S
C607 C605 1.327 . S
C607 C623 1.429 . S
C607 H629 0.950 . S
C608 H604 0.949 . S
C608 C616 1.574 . S
C608 C624 1.368 . S
H609 C617 0.950 . S
H610 C615 0.950 . S
H611 C616 0.949 . S
H612 C618 0.950 . S
H613 C619 0.950 . S
H614 C620 0.949 . S
C615 H610 0.950 . S
C615 C617 1.327 . S
C615 C621 1.429 . S
C616 C608 1.574 . S
C616 H611 0.949 . S
C616 C622 1.368 . S
C617 C601 1.349 . S
C617 H609 0.950 . S
C617 C615 1.327 . S
C618 C606 1.349 . S
C618 H612 0.950 . S
C618 C619 1.327 . S
C619 H613 0.950 . S
C619 C618 1.327 . S
C619 C623 1.429 . S
C620 C603 1.574 . S
C620 H614 0.949 . S
C620 C624 1.368 . S
C621 C602 1.429 . S
C621 C615 1.429 . S
C621 C622 1.523 . S
C622 C603 1.368 . S
C622 C616 1.368 . S
C622 C621 1.523 . S
C623 C607 1.429 . S
C623 C619 1.429 . S
C623 C624 1.523 . S
C624 C608 1.368 . S
C624 C620 1.368 . S
C624 C623 1.523 . S
H625 C600 0.950 . S
H626 C602 0.950 . S
H627 C603 0.949 . S
H628 C605 0.950 . S
H629 C607 0.950 . S
C630 C631 1.349 . S
C630 C632 1.327 . S
C630 H655 0.950 . S
C631 C630 1.349 . S
C631 C647 1.349 . S
C632 C630 1.327 . S
C632 C651 1.429 . S
C632 H656 0.950 . S
C633 C650 1.574 . S
C633 C652 1.368 . S
C633 H657 0.949 . S
H634 C638 0.949 . S
C635 C636 1.349 . S
C635 C637 1.327 . S
C635 H658 0.950 . S
C636 C635 1.349 . S
C636 C648 1.349 . S
C637 C635 1.327 . S
C637 C653 1.429 . S
C637 H659 0.950 . S
C638 H634 0.949 . S
C638 C646 1.574 . S
C638 C654 1.368 . S
H639 C647 0.950 . S
H640 C645 0.950 . S
H641 C646 0.949 . S
H642 C648 0.950 . S
H643 C649 0.950 . S
H644 C650 0.949 . S
C645 H640 0.950 . S
C645 C647 1.327 . S
C645 C651 1.429 . S
C646 C638 1.574 . S
C646 H641 0.949 . S
C646 C652 1.368 . S
C647 C631 1.349 . S
C647 H639 0.950 . S
C647 C645 1.327 . S
C648 C636 1.349 . S
C648 H642 0.950 . S
C648 C649 1.327 . S
C649 H643 0.950 . S
C649 C648 1.327 . S
C649 C653 1.429 . S
C650 C633 1.574 . S
C650 H644 0.949 . S
C650 C654 1.368 . S
C651 C632 1.429 . S
C651 C645 1.429 . S
C651 C652 1.523 . S
C652 C633 1.368 . S
C652 C646 1.368 . S
C652 C651 1.523 . S
C653 C637 1.429 . S
C653 C649 1.429 . S
C653 C654 1.523 . S
C654 C638 1.368 . S
C654 C650 1.368 . S
C654 C653 1.523 . S
H655 C630 0.950 . S
H656 C632 0.950 . S
H657 C633 0.949 . S
H658 C635 0.950 . S
H659 C637 0.950 . S
C660 C661 1.349 . S
C660 C662 1.327 . S
C660 H685 0.950 . S
C661 C660 1.349 . S
C661 C677 1.349 . S
C662 C660 1.327 . S
C662 C681 1.429 . S
C662 H686 0.950 . S
C663 C680 1.574 . S
C663 C682 1.368 . S
C663 H687 0.949 . S
H664 C668 0.949 . S
C665 C666 1.349 . S
C665 C667 1.327 . S
C665 H688 0.950 . S
C666 C665 1.349 . S
C666 C678 1.349 . S
C667 C665 1.327 . S
C667 C683 1.429 . S
C667 H689 0.950 . S
C668 H664 0.949 . S
C668 C676 1.574 . S
C668 C684 1.368 . S
H669 C677 0.950 . S
H670 C675 0.950 . S
H671 C676 0.949 . S
H672 C678 0.950 . S
H673 C679 0.950 . S
H674 C680 0.949 . S
C675 H670 0.950 . S
C675 C677 1.327 . S
C675 C681 1.429 . S
C676 C668 1.574 . S
C676 H671 0.949 . S
C676 C682 1.368 . S
C677 C661 1.349 . S
C677 H669 0.950 . S
C677 C675 1.327 . S
C678 C666 1.349 . S
C678 H672 0.950 . S
C678 C679 1.327 . S
C679 H673 0.950 . S
C679 C678 1.327 . S
C679 C683 1.429 . S
C680 C663 1.574 . S
C680 H674 0.949 . S
C680 C684 1.368 . S
C681 C662 1.429 . S
C681 C675 1.429 . S
C681 C682 1.523 . S
C682 C663 1.368 . S
C682 C676 1.368 . S
C682 C681 1.523 . S
C683 C667 1.429 . S
C683 C679 1.429 . S
C683 C684 1.523 . S
C684 C668 1.368 . S
C684 C680 1.368 . S
C684 C683 1.523 . S
H685 C660 0.950 . S
H686 C662 0.950 . S
H687 C663 0.949 . S
H688 C665 0.950 . S
H689 C667 0.950 . S
C690 C691 1.349 . S
C690 C692 1.327 . S
C690 H715 0.950 . S
C691 C690 1.349 . S
C691 C707 1.349 . S
C692 C690 1.327 . S
C692 C711 1.429 . S
C692 H716 0.950 . S
C693 C710 1.574 . S
C693 C712 1.368 . S
C693 H717 0.949 . S
H694 C698 0.949 . S
C695 C696 1.349 . S
C695 C697 1.327 . S
C695 H718 0.950 . S
C696 C695 1.349 . S
C696 C708 1.349 . S
C697 C695 1.327 . S
C697 C713 1.429 . S
C697 H719 0.950 . S
C698 H694 0.949 . S
C698 C706 1.574 . S
C698 C714 1.368 . S
H699 C707 0.950 . S
H700 C705 0.950 . S
H701 C706 0.949 . S
H702 C708 0.950 . S
H703 C709 0.950 . S
H704 C710 0.949 . S
C705 H700 0.950 . S
C705 C707 1.327 . S
C705 C711 1.429 . S
C706 C698 1.574 . S
C706 H701 0.949 . S
C706 C712 1.368 . S
C707 C691 1.349 . S
C707 H699 0.950 . S
C707 C705 1.327 . S
C708 C696 1.349 . S
C708 H702 0.950 . S
C708 C709 1.327 . S
C709 H703 0.950 . S
C709 C708 1.327 . S
C709 C713 1.429 . S
C710 C693 1.574 . S
C710 H704 0.949 . S
C710 C714 1.368 . S
C711 C692 1.429 . S
C711 C705 1.429 . S
C711 C712 1.523 . S
C712 C693 1.368 . S
C712 C706 1.368 . S
C712 C711 1.523 . S
C713 C697 1.429 . S
C713 C709 1.429 . S
C713 C714 1.523 . S
C714 C698 1.368 . S
C714 C710 1.368 . S
C714 C713 1.523 . S
H715 C690 0.950 . S
H716 C692 0.950 . S
H717 C693 0.949 . S
H718 C695 0.950 . S
H719 C697 0.950 . S
C720 C721 1.349 . S
C720 C722 1.327 . S
C720 H745 0.950 . S
C721 C720 1.349 . S
C721 C737 1.349 . S
C722 C720 1.327 . S
C722 C741 1.429 . S
C722 H746 0.950 . S
C723 C740 1.574 . S
C723 C742 1.368 . S
C723 H747 0.949 . S
H724 C728 0.949 . S
C725 C726 1.349 . S
C725 C727 1.327 . S
C725 H748 0.950 . S
C726 C725 1.349 . S
C726 C738 1.349 . S
C727 C725 1.327 . S
C727 C743 1.429 . S
C727 H749 0.950 . S
C728 H724 0.949 . S
C728 C736 1.574 . S
C728 C744 1.368 . S
H729 C737 0.950 . S
H730 C735 0.950 . S
H731 C736 0.949 . S
H732 C738 0.950 . S
H733 C739 0.950 . S
H734 C740 0.949 . S
C735 H730 0.950 . S
C735 C737 1.327 . S
C735 C741 1.429 . S
C736 C728 1.574 . S
C736 H731 0.949 . S
C736 C742 1.368 . S
C737 C721 1.349 . S
C737 H729 0.950 . S
C737 C735 1.327 . S
C738 C726 1.349 . S
C738 H732 0.950 . S
C738 C739 1.327 . S
C739 H733 0.950 . S
C739 C738 1.327 . S
C739 C743 1.429 . S
C740 C723 1.574 . S
C740 H734 0.949 . S
C740 C744 1.368 . S
C741 C722 1.429 . S
C741 C735 1.429 . S
C741 C742 1.523 . S
C742 C723 1.368 . S
C742 C736 1.368 . S
C742 C741 1.523 . S
C743 C727 1.429 . S
C743 C739 1.429 . S
C743 C744 1.523 . S
C744 C728 1.368 . S
C744 C740 1.368 . S
C744 C743 1.523 . S
H745 C720 0.950 . S
H746 C722 0.950 . S
H747 C723 0.949 . S
H748 C725 0.950 . S
H749 C727 0.950 . S
C750 C751 1.349 . S
C750 C752 1.327 . S
C750 H775 0.950 . S
C751 C750 1.349 . S
C751 C767 1.349 . S
C752 C750 1.327 . S
C752 C771 1.429 . S
C752 H776 0.950 . S
C753 C770 1.574 . S
C753 C772 1.368 . S
C753 H777 0.949 . S
H754 C758 0.949 . S
C755 C756 1.349 . S
C755 C757 1.327 . S
C755 H778 0.950 . S
C756 C755 1.349 . S
C756 C768 1.349 . S
C757 C755 1.327 . S
C757 C773 1.429 . S
C757 H779 0.950 . S
C758 H754 0.949 . S
C758 C766 1.574 . S
C758 C774 1.368 . S
H759 C767 0.950 . S
H760 C765 0.950 . S
H761 C766 0.949 . S
H762 C768 0.950 . S
H763 C769 0.950 . S
H764 C770 0.949 . S
C765 H760 0.950 . S
C765 C767 1.327 . S
C765 C771 1.429 . S
C766 C758 1.574 . S
C766 H761 0.949 . S
C766 C772 1.368 . S
C767 C751 1.349 . S
C767 H759 0.950 . S
C767 C765 1.327 . S
C768 C756 1.349 . S
C768 H762 0.950 . S
C768 C769 1.327 . S
C769 H763 0.950 . S
C769 C768 1.327 . S
C769 C773 1.429 . S
C770 C753 1.574 . S
C770 H764 0.949 . S
C770 C774 1.368 . S
C771 C752 1.429 . S
C771 C765 1.429 . S
C771 C772 1.523 . S
C772 C753 1.368 . S
C772 C766 1.368 . S
C772 C771 1.523 . S
C773 C757 1.429 . S
C773 C769 1.429 . S
C773 C774 1.523 . S
C774 C758 1.368 . S
C774 C770 1.368 . S
C774 C773 1.523 . S
H775 C750 0.950 . S
H776 C752 0.950 . S
H777 C753 0.949 . S
H778 C755 0.950 . S
H779 C757 0.950 . S
C780 C781 1.349 . S
C780 C782 1.327 . S
C780 H805 0.950 . S
C781 C780 1.349 . S
C781 C797 1.349 . S
C782 C780 1.327 . S
C782 C801 1.429 . S
C782 H806 0.950 . S
C783 C800 1.574 . S
C783 C802 1.368 . S
C783 H807 0.949 . S
H784 C788 0.949 . S
C785 C786 1.349 . S
C785 C787 1.327 . S
C785 H808 0.950 . S
C786 C785 1.349 . S
C786 C798 1.349 . S
C787 C785 1.327 . S
C787 C803 1.429 . S
C787 H809 0.950 . S
C788 H784 0.949 . S
C788 C796 1.574 . S
C788 C804 1.368 . S
H789 C797 0.950 . S
H790 C795 0.950 . S
H791 C796 0.949 . S
H792 C798 0.950 . S
H793 C799 0.950 . S
H794 C800 0.949 . S
C795 H790 0.950 . S
C795 C797 1.327 . S
C795 C801 1.429 . S
C796 C788 1.574 . S
C796 H791 0.949 . S
C796 C802 1.368 . S
C797 C781 1.349 . S
C797 H789 0.950 . S
C797 C795 1.327 . S
C798 C786 1.349 . S
C798 H792 0.950 . S
C798 C799 1.327 . S
C799 H793 0.950 . S
C799 C798 1.327 . S
C799 C803 1.429 . S
C800 C783 1.574 . S
C800 H794 0.949 . S
C800 C804 1.368 . S
C801 C782 1.429 . S
C801 C795 1.429 . S
C801 C802 1.523 . S
C802 C783 1.368 . S
C802 C796 1.368 . S
C802 C801 1.523 . S
C803 C787 1.429 . S
C803 C799 1.429 . S
C803 C804 1.523 . S
C804 C788 1.368 . S
C804 C800 1.368 . S
C804 C803 1.523 . S
H805 C780 0.950 . S
H806 C782 0.950 . S
H807 C783 0.949 . S
H808 C785 0.950 . S
H809 C787 0.950 . S
C810 C811 1.349 . S
C810 C812 1.327 . S
C810 H835 0.950 . S
C811 C810 1.349 . S
C811 C827 1.349 . S
C812 C810 1.327 . S
C812 C831 1.429 . S
C812 H836 0.950 . S
C813 C830 1.574 . S
C813 C832 1.368 . S
C813 H837 0.949 . S
H814 C818 0.949 . S
C815 C816 1.349 . S
C815 C817 1.327 . S
C815 H838 0.950 . S
C816 C815 1.349 . S
C816 C828 1.349 . S
C817 C815 1.327 . S
C817 C833 1.429 . S
C817 H839 0.950 . S
C818 H814 0.949 . S
C818 C826 1.574 . S
C818 C834 1.368 . S
H819 C827 0.950 . S
H820 C825 0.950 . S
H821 C826 0.949 . S
H822 C828 0.950 . S
H823 C829 0.950 . S
H824 C830 0.949 . S
C825 H820 0.950 . S
C825 C827 1.327 . S
C825 C831 1.429 . S
C826 C818 1.574 . S
C826 H821 0.949 . S
C826 C832 1.368 . S
C827 C811 1.349 . S
C827 H819 0.950 . S
C827 C825 1.327 . S
C828 C816 1.349 . S
C828 H822 0.950 . S
C828 C829 1.327 . S
C829 H823 0.950 . S
C829 C828 1.327 . S
C829 C833 1.429 . S
C830 C813 1.574 . S
C830 H824 0.949 . S
C830 C834 1.368 . S
C831 C812 1.429 . S
C831 C825 1.429 . S
C831 C832 1.523 . S
C832 C813 1.368 . S
C832 C826 1.368 . S
C832 C831 1.523 . S
C833 C817 1.429 . S
C833 C829 1.429 . S
C833 C834 1.523 . S
C834 C818 1.368 . S
C834 C830 1.368 . S
C834 C833 1.523 . S
H835 C810 0.950 . S
H836 C812 0.950 . S
H837 C813 0.949 . S
H838 C815 0.950 . S
H839 C817 0.950 . S
C840 C841 1.349 . S
C840 C842 1.327 . S
C840 H865 0.950 . S
C841 C840 1.349 . S
C841 C857 1.349 . S
C842 C840 1.327 . S
C842 C861 1.429 . S
C842 H866 0.950 . S
C843 C860 1.574 . S
C843 C862 1.368 . S
C843 H867 0.949 1_455 S
H844 C848 0.949 . S
C845 C846 1.349 . S
C845 C847 1.327 1_556 S
C845 H868 0.950 1_455 S
C846 C845 1.349 . S
C846 C858 1.349 . S
C847 C845 1.327 1_554 S
C847 C863 1.429 . S
C847 H869 0.950 1_455 S
C848 H844 0.949 . S
C848 C856 1.574 . S
C848 C864 1.368 . S
H849 C857 0.950 1_655 S
H850 C855 0.950 1_655 S
H851 C856 0.949 . S
H852 C858 0.950 . S
H853 C859 0.950 . S
H854 C860 0.949 1_655 S
C855 H850 0.950 1_455 S
C855 C857 1.327 . S
C855 C861 1.429 . S
C856 C848 1.574 . S
C856 H851 0.949 . S
C856 C862 1.368 . S
C857 C841 1.349 . S
C857 H849 0.950 1_455 S
C857 C855 1.327 . S
C858 C846 1.349 . S
C858 H852 0.950 . S
C858 C859 1.327 1_556 S
C859 H853 0.950 . S
C859 C858 1.327 1_554 S
C859 C863 1.429 . S
C860 C843 1.574 . S
C860 H854 0.949 1_455 S
C860 C864 1.368 . S
C861 C842 1.429 . S
C861 C855 1.429 . S
C861 C862 1.523 . S
C862 C843 1.368 . S
C862 C856 1.368 . S
C862 C861 1.523 . S
C863 C847 1.429 . S
C863 C859 1.429 . S
C863 C864 1.523 . S
C864 C848 1.368 . S
C864 C860 1.368 . S
C864 C863 1.523 . S
H865 C840 0.950 . S
H866 C842 0.950 . S
H867 C843 0.949 1_655 S
H868 C845 0.950 1_655 S
H869 C847 0.950 1_655 S
C870 C871 1.358 . S
C870 C872 1.329 . S
C870 H895 0.939 1_545 S
C871 C870 1.358 . S
C871 C887 1.349 . S
C872 C870 1.329 . S
C872 C891 1.429 . S
C872 H896 0.950 1_545 S
C873 C890 1.574 . S
C873 C892 1.368 . S
C873 H897 0.949 . S
H874 C878 0.949 1_565 S
C875 C876 1.349 . S
C875 C877 1.327 . S
C875 H898 0.950 . S
C876 C875 1.349 . S
C876 C888 1.349 . S
C877 C875 1.327 . S
C877 C893 1.429 . S
C877 H899 0.950 . S
C878 H874 0.949 1_545 S
C878 C886 1.574 . S
C878 C894 1.368 . S
H879 C887 0.950 . S
H880 C885 0.950 . S
H881 C886 0.949 1_565 S
H882 C888 0.950 1_565 S
H883 C889 0.950 1_565 S
H884 C890 0.949 . S
C885 H880 0.950 . S
C885 C887 1.327 . S
C885 C891 1.429 . S
C886 C878 1.574 . S
C886 H881 0.949 1_545 S
C886 C892 1.368 . S
C887 C871 1.349 . S
C887 H879 0.950 . S
C887 C885 1.327 . S
C888 C876 1.349 . S
C888 H882 0.950 1_545 S
C888 C889 1.327 . S
C889 H883 0.950 1_545 S
C889 C888 1.327 . S
C889 C893 1.429 . S
C890 C873 1.574 . S
C890 H884 0.949 . S
C890 C894 1.368 . S
C891 C872 1.429 . S
C891 C885 1.429 . S
C891 C892 1.523 . S
C892 C873 1.368 . S
C892 C886 1.368 . S
C892 C891 1.523 . S
C893 C877 1.429 . S
C893 C889 1.429 . S
C893 C894 1.523 . S
C894 C878 1.368 . S
C894 C890 1.368 . S
C894 C893 1.523 . S
H895 C870 0.939 1_565 S
H896 C872 0.950 1_565 S
H897 C873 0.949 . S
H898 C875 0.950 . S
H899 C877 0.950 . S
C900 C901 1.349 . S
C900 C902 1.327 . S
C900 H925 0.950 . S
C901 C900 1.349 . S
C901 C917 1.349 . S
C902 C900 1.327 . S
C902 C921 1.429 . S
C902 H926 0.950 . S
C903 C920 1.574 . S
C903 C922 1.368 . S
C903 H927 0.949 . S
H904 C908 0.949 . S
C905 C906 1.349 . S
C905 C907 1.327 . S
C905 H928 0.950 . S
C906 C905 1.349 . S
C906 C918 1.349 . S
C907 C905 1.327 . S
C907 C923 1.429 . S
C907 H929 0.950 . S
C908 H904 0.949 . S
C908 C916 1.574 . S
C908 C924 1.368 . S
H909 C917 0.950 . S
H910 C915 0.950 . S
H911 C916 0.949 . S
H912 C918 0.950 . S
H913 C919 0.950 . S
H914 C920 0.949 . S
C915 H910 0.950 . S
C915 C917 1.327 . S
C915 C921 1.429 . S
C916 C908 1.574 . S
C916 H911 0.949 . S
C916 C922 1.368 . S
C917 C901 1.349 . S
C917 H909 0.950 . S
C917 C915 1.327 . S
C918 C906 1.349 . S
C918 H912 0.950 . S
C918 C919 1.327 . S
C919 H913 0.950 . S
C919 C918 1.327 . S
C919 C923 1.429 . S
C920 C903 1.574 . S
C920 H914 0.949 . S
C920 C924 1.368 . S
C921 C902 1.429 . S
C921 C915 1.429 . S
C921 C922 1.523 . S
C922 C903 1.368 . S
C922 C916 1.368 . S
C922 C921 1.523 . S
C923 C907 1.429 . S
C923 C919 1.429 . S
C923 C924 1.523 . S
C924 C908 1.368 . S
C924 C920 1.368 . S
C924 C923 1.523 . S
H925 C900 0.950 . S
H926 C902 0.950 . S
H927 C903 0.949 . S
H928 C905 0.950 . S
H929 C907 0.950 . S
C930 C931 1.349 . S
C930 C932 1.327 . S
C930 H955 0.950 . S
C931 C930 1.349 . S
C931 C947 1.349 1_545 S
C932 C930 1.327 . S
C932 C951 1.429 . S
C932 H956 0.950 . S
C933 C950 1.574 . S
C933 C952 1.368 1_565 S
C933 H957 0.949 . S
H934 C938 0.949 . S
C935 C936 1.349 1_565 S
C935 C937 1.327 . S
C935 H958 0.950 . S
C936 C935 1.349 1_545 S
C936 C948 1.349 . S
C937 C935 1.327 . S
C937 C953 1.429 1_565 S
C937 H959 0.950 . S
C938 H934 0.949 . S
C938 C946 1.574 . S
C938 C954 1.368 . S
H939 C947 0.950 . S
H940 C945 0.950 . S
H941 C946 0.949 . S
H942 C948 0.950 . S
H943 C949 0.950 . S
H944 C950 0.949 . S
C945 H940 0.950 . S
C945 C947 1.327 . S
C945 C951 1.429 1_565 S
C946 C938 1.574 . S
C946 H941 0.949 . S
C946 C952 1.368 . S
C947 C931 1.349 1_565 S
C947 H939 0.950 . S
C947 C945 1.327 . S
C948 C936 1.349 . S
C948 H942 0.950 . S
C948 C949 1.327 . S
C949 H943 0.950 . S
C949 C948 1.327 . S
C949 C953 1.429 . S
C950 C933 1.574 . S
C950 H944 0.949 . S
C950 C954 1.368 1_565 S
C951 C932 1.429 . S
C951 C945 1.429 1_545 S
C951 C952 1.523 . S
C952 C933 1.368 1_545 S
C952 C946 1.368 . S
C952 C951 1.523 . S
C953 C937 1.429 1_545 S
C953 C949 1.429 . S
C953 C954 1.523 . S
C954 C938 1.368 . S
C954 C950 1.368 1_545 S
C954 C953 1.523 . S
H955 C930 0.950 . S
H956 C932 0.950 . S
H957 C933 0.949 . S
H958 C935 0.950 . S
H959 C937 0.950 . S
C960 C961 1.349 . S
C960 C962 1.327 . S
C960 H985 0.950 . S
C961 C960 1.349 . S
C961 C977 1.349 . S
C962 C960 1.327 . S
C962 C981 1.429 . S
C962 H986 0.950 . S
C963 C980 1.574 . S
C963 C982 1.368 . S
C963 H987 0.949 . S
H964 C968 0.949 . S
C965 C966 1.349 . S
C965 C967 1.327 1_554 S
C965 H988 0.950 . S
C966 C965 1.349 . S
C966 C978 1.349 . S
C967 C965 1.327 1_556 S
C967 C983 1.429 . S
C967 H989 0.950 . S
C968 H964 0.949 . S
C968 C976 1.574 . S
C968 C984 1.368 . S
H969 C977 0.950 . S
H970 C975 0.950 . S
H971 C976 0.949 . S
H972 C978 0.950 . S
H973 C979 0.950 . S
H974 C980 0.949 . S
C975 H970 0.950 . S
C975 C977 1.327 . S
C975 C981 1.429 . S
C976 C968 1.574 . S
C976 H971 0.949 . S
C976 C982 1.368 . S
C977 C961 1.349 . S
C977 H969 0.950 . S
C977 C975 1.327 . S
C978 C966 1.349 . S
C978 H972 0.950 . S
C978 C979 1.327 1_554 S
C979 H973 0.950 . S
C979 C978 1.327 1_556 S
C979 C983 1.429 . S
C980 C963 1.574 . S
C980 H974 0.949 . S
C980 C984 1.368 . S
C981 C962 1.429 . S
C981 C975 1.429 . S
C981 C982 1.523 . S
C982 C963 1.368 . S
C982 C976 1.368 . S
C982 C981 1.523 . S
C983 C967 1.429 . S
C983 C979 1.429 . S
C983 C984 1.523 . S
C984 C968 1.368 . S
C984 C980 1.368 . S
C984 C983 1.523 . S
H985 C960 0.950 . S
H986 C962 0.950 . S
H987 C963 0.949 . S
H988 C965 0.950 . S
H989 C967 0.950 . S
C990 C991 1.349 . S
C990 C992 1.327 . S
C990 H1015 0.950 . S
C991 C990 1.349 . S
C991 C1007 1.349 . S
C992 C990 1.327 . S
C992 C1011 1.429 . S
C992 H1016 0.950 . S
C993 C1010 1.574 . S
C993 C1012 1.368 . S
C993 H1017 0.962 . S
H994 C998 0.949 . S
C995 C996 1.337 1_655 S
C995 C997 1.327 . S
C995 H1018 0.950 . S
C996 C995 1.337 1_455 S
C996 C1008 1.363 . S
C997 C995 1.327 . S
C997 C1013 1.429 1_655 S
C997 H1019 0.950 . S
C998 H994 0.949 . S
C998 C1006 1.574 . S
C998 C1014 1.368 . S
H999 C1007 0.950 . S
H1000 C1005 0.950 . S
H1001 C1006 0.949 . S
H1002 C1008 0.950 . S
H1003 C1009 0.950 . S
H1004 C1010 0.949 1_655 S
C1005 H1000 0.950 . S
C1005 C1007 1.327 . S
C1005 C1011 1.429 . S
C1006 C998 1.574 . S
C1006 H1001 0.949 . S
C1006 C1012 1.368 . S
C1007 C991 1.349 . S
C1007 H999 0.950 . S
C1007 C1005 1.327 . S
C1008 C996 1.363 . S
C1008 H1002 0.950 . S
C1008 C1009 1.327 . S
C1009 H1003 0.950 . S
C1009 C1008 1.327 . S
C1009 C1013 1.429 . S
C1010 C993 1.574 . S
C1010 H1004 0.949 1_455 S
C1010 C1014 1.368 . S
C1011 C992 1.429 . S
C1011 C1005 1.429 . S
C1011 C1012 1.523 . S
C1012 C993 1.368 . S
C1012 C1006 1.368 . S
C1012 C1011 1.523 . S
C1013 C997 1.429 1_455 S
C1013 C1009 1.429 . S
C1013 C1014 1.523 . S
C1014 C998 1.368 . S
C1014 C1010 1.368 . S
C1014 C1013 1.523 . S
H1015 C990 0.950 . S
H1016 C992 0.950 . S
H1017 C993 0.962 . S
H1018 C995 0.950 . S
H1019 C997 0.950 . S
C481 C10 3.067 . S
C486 C451 3.064 . S
C511 C55 1.148 . S
C516 C301 1.115 . S
C541 C90 1.837 . S
C546 C361 1.727 . S
C571 C19 2.912 . S
C576 C421 2.790 . S
C606 C331 1.277 . S
C601 C46 1.257 . S
C636 C391 2.032 . S
C631 C99 2.008 . S
C661 C50 1.850 . S
C666 C181 1.733 . S
C691 C95 0.478 . S
C696 C271 0.423 . S
C721 C6 1.297 . S
C726 C151 1.310 . S
C756 C211 1.990 . S
C751 C59 1.977 . S
C786 C241 0.412 . S
C781 C86 0.350 . S
C811 C15 1.171 . S
C816 C121 1.143 . S
C846 C260 1.111 . S
C841 C18 1.102 . S
C871 C49 1.451 . S
C876 C140 1.468 . S
C901 C98 1.338 . S
C906 C200 1.350 . S
C936 C380 1.354 . S
C931 C58 1.337 . S
C966 C440 1.742 . S
C961 C89 1.696 . S
C991 C9 1.455 . S
C996 C320 1.482 . S
