# Generated by pormake.
# Topology zzz, (3,6)-cn, num edge types: 1
# Building blocks:
#     Node 0, Type 0, BuildingBlock: BETDAH_clean_linker_0, # of connection points: 3
#     Node 1, Type 0, BuildingBlock: BETDAH_clean_linker_0, # of connection points: 3
#     Node 2, Type 0, BuildingBlock: BETDAH_clean_linker_0, # of connection points: 3
#     Node 3, Type 0, BuildingBlock: BETDAH_clean_linker_0, # of connection points: 3
#     Node 4, Type 0, BuildingBlock: BETDAH_clean_linker_0, # of connection points: 3
#     Node 5, Type 0, BuildingBlock: BETDAH_clean_linker_0, # of connection points: 3
#     Node 6, Type 0, BuildingBlock: BETDAH_clean_linker_0, # of connection points: 3
#     Node 7, Type 0, BuildingBlock: BETDAH_clean_linker_0, # of connection points: 3
#     Node 8, Type 1, BuildingBlock: NUHQIS_clean_sbu_0, # of connection points: 6
#     Node 9, Type 1, BuildingBlock: NUHQIS_clean_sbu_0, # of connection points: 6
#     Node 10, Type 1, BuildingBlock: NUHQIS_clean_sbu_0, # of connection points: 6
#     Node 11, Type 1, BuildingBlock: NUHQIS_clean_sbu_0, # of connection points: 6
#     Edge 12, Type (0, 1), None
#     Edge 13, Type (0, 1), None
#     Edge 14, Type (0, 1), None
#     Edge 15, Type (0, 1), None
#     Edge 16, Type (0, 1), None
#     Edge 17, Type (0, 1), None
#     Edge 18, Type (0, 1), None
#     Edge 19, Type (0, 1), None
#     Edge 20, Type (0, 1), None
#     Edge 21, Type (0, 1), None
#     Edge 22, Type (0, 1), None
#     Edge 23, Type (0, 1), None
#     Edge 24, Type (0, 1), None
#     Edge 25, Type (0, 1), None
#     Edge 26, Type (0, 1), None
#     Edge 27, Type (0, 1), None
#     Edge 28, Type (0, 1), None
#     Edge 29, Type (0, 1), None
#     Edge 30, Type (0, 1), None
#     Edge 31, Type (0, 1), None
#     Edge 32, Type (0, 1), None
#     Edge 33, Type (0, 1), None
#     Edge 34, Type (0, 1), None
#     Edge 35, Type (0, 1), None
# Relax obj value: 0.626
# Max RMSD: 0.223
# Mean RMSD: 0.131
data_MOF--net-zzz--node1-NUHQIS_clean_sbu_0--node2-BETDAH_clean_linker_0--edge1-none
_symmetry_space_group_name_H-M    P1
_symmetry_Int_Tables_number       1
_symmetry_cell_setting            triclinic
loop_
_symmetry_equiv_pos_as_xyz
'x, y, z'
_cell_length_a     23.64258
_cell_length_b     23.648264
_cell_length_c     6.894833
_cell_angle_alpha  89.720797
_cell_angle_beta   89.649119
_cell_angle_gamma 90.063813
loop_
_atom_site_label
_atom_site_type_symbol
_atom_site_fract_x
_atom_site_fract_y
_atom_site_fract_z
_atom_type_partial_charge
H0 H 0.85044 0.49618 0.64386 0.0
H1 H 0.75223 0.48816 0.22648 0.0
H2 H 0.82489 0.61734 0.57542 0.0
C3 C 0.83602 0.4654 0.61755 0.0
C4 C 0.85595 0.52718 0.64599 0.0
C5 C 0.80171 0.4535 0.45871 0.0
C6 C 0.77448 0.49746 0.35791 0.0
C7 C 0.77314 0.55351 0.42181 0.0
C8 C 0.81845 0.57286 0.54711 0.0
N9 N 0.72753 0.58941 0.35254 0.0
C10 C 0.67812 0.57118 0.24884 0.0
H11 H 0.06253 0.85311 0.62638 0.0
H12 H 0.06835 0.75186 0.21526 0.0
H13 H 0.94149 0.82283 0.58628 0.0
C14 C 0.09335 0.83999 0.59258 0.0
C15 C 0.03146 0.85724 0.63626 0.0
C16 C 0.10401 0.8041 0.43616 0.0
C17 C 0.05965 0.77512 0.34563 0.0
C18 C 1.00436 0.77298 0.41931 0.0
C19 C 0.98564 0.81787 0.54825 0.0
N20 N 0.96847 0.72659 0.35727 0.0
C21 C 0.98645 0.67752 0.25098 0.0
H22 H 0.70171 0.06043 0.60778 0.0
H23 H 0.80749 0.06302 0.20571 0.0
H24 H 0.7381 0.94058 0.60538 0.0
C25 C 0.71302 0.09089 0.56499 0.0
C26 C 0.69914 0.02963 0.6282 0.0
C27 C 0.75074 0.09981 0.41154 0.0
C28 C 0.78242 0.0552 0.3341 0.0
C29 C 0.78579 1.00153 0.42135 0.0
C30 C 0.74113 0.98382 0.55452 0.0
N31 N 0.83398 0.96641 0.3714 0.0
C32 C 0.88311 0.9849 0.26548 0.0
H33 H 0.49765 0.70551 0.63232 0.0
H34 H 0.49174 0.80758 0.22133 0.0
H35 H 0.61862 0.73653 0.59111 0.0
C36 C 0.46685 0.71825 0.5996 0.0
C37 C 0.52871 0.70138 0.6422 0.0
C38 C 0.45635 0.75376 0.442 0.0
C39 C 0.50058 0.78357 0.35075 0.0
C40 C 0.55564 0.78621 0.42482 0.0
C41 C 0.57454 0.74118 0.55338 0.0
N42 N 0.59098 0.83352 0.36507 0.0
C43 C 0.57239 0.88269 0.26027 0.0
H44 H 0.20058 0.61008 0.06462 0.0
H45 H 0.30726 0.57266 0.55296 0.0
H46 H 0.22901 0.43975 0.24512 0.0
C47 C 0.22119 0.5808 0.1615 0.0
C48 C 0.20252 0.52513 0.15715 0.0
C49 C 0.25568 0.60051 0.31359 0.0
C50 C 0.28469 0.56063 0.42532 0.0
C51 C 0.28398 0.50377 0.37946 0.0
C52 C 0.23732 0.48451 0.25981 0.0
N53 N 0.32782 0.46772 0.46108 0.0
C54 C 0.37816 0.48648 0.55908 0.0
H55 H 0.94559 0.19579 0.09596 0.0
H56 H 0.98689 0.30774 0.56478 0.0
H57 H 0.11765 0.23109 0.23226 0.0
C58 C 0.97575 0.21809 0.18395 0.0
C59 C 0.03183 0.20169 0.16485 0.0
C60 C 0.9576 0.25377 0.33588 0.0
C61 C 0.99819 0.28414 0.4379 0.0
C62 C 0.05445 0.28417 0.38142 0.0
C63 C 0.073 0.23794 0.25766 0.0
N64 N 0.09072 0.32887 0.45499 0.0
C65 C 0.07216 0.37872 0.55658 0.0
H66 H 0.36809 0.94732 0.12991 0.0
H67 H 0.24716 0.99295 0.57117 0.0
H68 H 0.3218 0.11969 0.20632 0.0
C69 C 0.34288 0.97816 0.20567 0.0
C70 C 0.35578 0.03415 0.16723 0.0
C71 C 0.30563 0.96212 0.35701 0.0
C72 C 0.27263 1.00329 0.44609 0.0
C73 C 0.27119 0.05815 0.37466 0.0
C74 C 0.31707 0.07562 0.24594 0.0
N75 N 0.22476 0.09424 0.43541 0.0
C76 C 0.17566 0.07651 0.54392 0.0
H77 H 0.60935 0.36157 0.08422 0.0
H78 H 0.56865 0.24744 0.55363 0.0
H79 H 0.43754 0.32537 0.22781 0.0
C80 C 0.57934 0.33887 0.17364 0.0
C81 C 0.52331 0.35513 0.15766 0.0
C82 C 0.59756 0.30328 0.32561 0.0
C83 C 0.55713 0.272 0.42847 0.0
C84 C 0.50088 0.27185 0.37322 0.0
C85 C 0.4822 0.31851 0.2513 0.0
N86 N 0.46473 0.22654 0.44539 0.0
C87 C 0.48348 0.17641 0.54512 0.0
Tb88 Tb 0.06861 1.01143 0.05967 0.0
Eu89 Eu 0.98706 0.05219 0.74164 0.0
C90 C 0.12388 0.0582 0.65595 0.0
C91 C 0.0396 0.14458 0.0603 0.0
C92 C 0.17212 0.92097 0.27812 0.0
C93 C 0.16 0.8276 0.14904 0.0
C94 C 0.16441 0.88584 0.11598 0.0
C95 C 0.19211 0.89698 0.45045 0.0
C96 C 0.19955 0.83855 0.4599 0.0
C97 C 0.16119 0.80939 0.34371 0.0
C98 C 0.14146 0.97368 0.28849 0.0
O99 O 0.98585 0.99289 0.20629 0.0
O100 O 0.92523 0.03051 0.98532 0.0
O101 O 0.99153 0.95894 0.65705 0.0
O102 O 0.05095 0.93168 0.89745 0.0
C103 C 0.93364 1.00369 0.14894 0.0
O104 O 0.89932 0.05544 0.65197 0.0
O105 O 0.9646 0.09284 0.47044 0.0
O106 O 0.07272 0.06914 0.59055 0.0
O107 O 0.12991 0.03296 0.82504 0.0
O108 O 0.06205 0.10124 0.15282 0.0
O109 O 1.00871 0.13474 0.90383 0.0
C110 C 1.0174 0.91829 0.75082 0.0
O111 O 0.15281 1.00981 0.15198 0.0
O112 O 0.0873 0.96766 0.31574 0.0
C113 C 0.88014 0.14024 0.49896 0.0
C114 C 0.89849 0.24914 0.41226 0.0
C115 C 0.86182 0.2198 0.29154 0.0
C116 C 0.86468 0.16158 0.31738 0.0
C117 C 0.88645 0.17772 0.65487 0.0
C118 C 0.89448 0.23472 0.61059 0.0
C119 C 0.91052 0.08776 0.50427 0.0
H120 H 0.14171 0.80146 1.03716 0.0
H121 H 0.1523 0.90309 0.97663 0.0
H122 H 0.19414 0.92067 0.58368 0.0
H123 H 0.21097 0.82085 0.59959 0.0
H124 H 0.85436 0.23549 0.14597 0.0
H125 H 0.86268 0.13505 0.19054 0.0
H126 H 0.89624 0.16244 0.7992 0.0
H127 H 0.91201 0.2617 0.72148 0.0
Tb128 Tb 0.54617 0.06811 0.05765 0.0
Eu129 Eu 0.50459 0.98753 0.74439 0.0
C130 C 0.50046 0.12404 0.65581 0.0
C131 C 0.41244 0.04195 0.05939 0.0
C132 C 0.6363 0.17236 0.26036 0.0
C133 C 0.72778 0.15413 0.1216 0.0
C134 C 0.66987 0.16253 0.09422 0.0
C135 C 0.66248 0.19204 0.42856 0.0
C136 C 0.72113 0.19684 0.43004 0.0
C137 C 0.74709 0.15607 0.31367 0.0
C138 C 0.58342 0.14232 0.27992 0.0
O139 O 0.5675 0.98556 0.19948 0.0
O140 O 0.52164 0.92641 0.99448 0.0
O141 O 0.59777 0.99067 0.65724 0.0
O142 O 0.62618 0.0496 0.8958 0.0
C143 C 0.55261 0.93376 0.14909 0.0
O144 O 0.50283 0.89945 0.65829 0.0
O145 O 0.46451 0.96346 0.47533 0.0
O146 O 0.48855 0.073 0.59098 0.0
O147 O 0.52614 0.12952 0.82326 0.0
O148 O 0.4567 0.06058 0.15544 0.0
O149 O 0.42126 1.01222 0.89946 0.0
C150 C 0.63899 1.01559 0.74964 0.0
O151 O 0.54689 0.15271 0.14526 0.0
O152 O 0.58905 0.08837 0.31266 0.0
C153 C 0.41679 0.8798 0.51901 0.0
C154 C 0.30929 0.90433 0.44161 0.0
C155 C 0.3352 0.86484 0.32146 0.0
C156 C 0.39343 0.8642 0.34138 0.0
C157 C 0.38068 0.8894 0.67835 0.0
C158 C 0.3244 0.90196 0.63846 0.0
C159 C 0.46959 0.90964 0.5135 0.0
H160 H 0.75192 0.13288 1.00968 0.0
H161 H 0.65102 0.15102 0.95739 0.0
H162 H 0.64027 0.1948 0.56543 0.0
H163 H 0.74036 0.2079 0.56709 0.0
H164 H 0.31842 0.85778 0.17759 0.0
H165 H 0.41878 0.8604 0.21134 0.0
H166 H 0.39748 0.89951 0.81987 0.0
H167 H 0.29968 0.92346 0.74832 0.0
Tb168 Tb 0.49072 0.54628 0.0649 0.0
Eu169 Eu 0.56897 0.50583 0.73933 0.0
C170 C 0.4313 0.50265 0.66698 0.0
C171 C 0.5157 0.41281 0.057 0.0
C172 C 0.38879 0.63669 0.29041 0.0
C173 C 0.40064 0.72994 0.15765 0.0
C174 C 0.39618 0.67182 0.12651 0.0
C175 C 0.36851 0.66043 0.46312 0.0
C176 C 0.36091 0.71874 0.47071 0.0
C177 C 0.39936 0.74774 0.35176 0.0
C178 C 0.41923 0.58398 0.29975 0.0
O179 O 0.57464 0.56564 0.19955 0.0
O180 O 0.63265 0.52309 0.98037 0.0
O181 O 0.56812 0.5997 0.66069 0.0
O182 O 0.50792 0.6261 0.9007 0.0
C183 C 0.62626 0.55212 0.1404 0.0
O184 O 0.65606 0.50173 0.64027 0.0
O185 O 0.58929 0.46586 0.46548 0.0
O186 O 0.48207 0.49342 0.59253 0.0
O187 O 0.4269 0.52488 0.84095 0.0
O188 O 0.49772 0.45648 0.15799 0.0
O189 O 0.54434 0.42244 0.89415 0.0
C190 C 0.54245 0.64005 0.75583 0.0
O191 O 0.40706 0.54812 0.165 0.0
O192 O 0.47353 0.58958 0.32247 0.0
C193 C 0.67316 0.4173 0.48547 0.0
C194 C 0.65648 0.30877 0.40011 0.0
C195 C 0.69306 0.33868 0.27801 0.0
C196 C 0.6896 0.39676 0.30343 0.0
C197 C 0.66702 0.3794 0.64185 0.0
C198 C 0.66009 0.32243 0.59816 0.0
C199 C 0.64358 0.47009 0.49361 0.0
H200 H 0.41917 0.75618 0.0448 0.0
H201 H 0.4081 0.65465 0.98699 0.0
H202 H 0.36725 0.6368 0.59767 0.0
H203 H 0.34968 0.73645 0.61046 0.0
H204 H 0.70089 0.32335 0.13241 0.0
H205 H 0.69147 0.42364 0.17634 0.0
H206 H 0.65678 0.39419 0.78629 0.0
H207 H 0.64269 0.29484 0.70923 0.0
Tb208 Tb 1.01126 0.4901 0.06597 0.0
Eu209 Eu 0.05201 0.5693 0.73721 0.0
C210 C 0.05578 0.4314 0.66661 0.0
C211 C 0.14463 0.51757 0.05799 0.0
C212 C 0.91993 0.38876 0.30334 0.0
C213 C 0.82572 0.39602 0.17762 0.0
C214 C 0.88396 0.39439 0.1424 0.0
C215 C 0.89744 0.36839 0.47888 0.0
C216 C 0.83924 0.35919 0.49237 0.0
C217 C 0.80829 0.3957 0.37335 0.0
C218 C 0.97264 0.4197 0.30578 0.0
O219 O 0.99255 0.57429 0.20027 0.0
O220 O 0.03349 0.63296 0.97732 0.0
O221 O 0.95784 0.56809 0.66239 0.0
O222 O 0.93222 0.50559 0.89817 0.0
C223 C 1.00526 0.62604 0.13983 0.0
O224 O 0.05626 0.65583 0.63218 0.0
O225 O 0.09342 0.58836 0.46311 0.0
O226 O 0.06388 0.48224 0.59115 0.0
O227 O 0.03449 0.42652 0.84269 0.0
O228 O 0.10119 0.49715 0.15677 0.0
O229 O 0.1348 0.54675 0.8967 0.0
C230 C 0.9179 0.54052 0.75538 0.0
O231 O 1.00836 0.40683 0.16998 0.0
O232 O 0.96693 0.4741 0.32413 0.0
C233 C 0.14057 0.67348 0.47182 0.0
C234 C 0.24995 0.66032 0.38169 0.0
C235 C 0.21843 0.69487 0.25863 0.0
C236 C 0.16036 0.68959 0.28756 0.0
C237 C 0.17884 0.66977 0.62628 0.0
C238 C 0.23607 0.6654 0.58016 0.0
C239 C 0.08828 0.64277 0.48584 0.0
H240 H 0.79842 0.41205 0.06452 0.0
H241 H 0.90019 0.40645 1.00102 0.0
H242 H 0.92197 0.36753 0.6106 0.0
H243 H 0.82243 0.34787 0.63394 0.0
H244 H 0.2334 0.70271 0.11208 0.0
H245 H 0.13306 0.69043 0.16241 0.0
H246 H 0.16462 0.66003 0.77236 0.0
H247 H 0.26442 0.6507 0.69222 0.0
loop_
_geom_bond_atom_site_label_1
_geom_bond_atom_site_label_2
_geom_bond_distance
_geom_bond_site_symmetry_2
_ccdc_geom_bond_type
H0 C3 0.929 . S
H1 C6 0.929 . S
H2 C8 0.930 . S
C3 H0 0.929 . S
C3 C4 1.398 . S
C3 C5 1.396 . S
C4 C3 1.398 . S
C4 C8 1.407 . S
C5 C3 1.396 . S
C5 C6 1.394 . S
C6 H1 0.929 . S
C6 C5 1.394 . S
C6 C7 1.382 . S
C7 C6 1.382 . S
C7 C8 1.392 . S
C7 N9 1.420 . S
C8 H2 0.930 . S
C8 C4 1.407 . S
C8 C7 1.392 . S
N9 C7 1.420 . S
N9 C10 1.244 . S
C10 N9 1.244 . S
H11 C14 0.929 . S
H12 C17 0.929 . S
H13 C19 0.930 . S
C14 H11 0.929 . S
C14 C15 1.398 1_655 S
C14 C16 1.394 1_655 S
C15 C14 1.398 1_455 S
C15 C19 1.407 . S
C16 C14 1.394 1_455 S
C16 C17 1.398 . S
C17 H12 0.929 . S
C17 C16 1.398 . S
C17 C18 1.382 . S
C18 C17 1.382 . S
C18 C19 1.392 . S
C18 N20 1.420 . S
C19 H13 0.930 . S
C19 C15 1.407 . S
C19 C18 1.392 . S
N20 C18 1.420 . S
N20 C21 1.244 1_455 S
C21 N20 1.244 1_655 S
H22 C25 0.929 . S
H23 C28 0.929 . S
H24 C30 0.930 . S
C25 H22 0.929 . S
C25 C26 1.398 1_565 S
C25 C27 1.394 1_565 S
C26 C25 1.398 1_545 S
C26 C30 1.407 . S
C27 C25 1.394 1_545 S
C27 C28 1.398 . S
C28 H23 0.929 . S
C28 C27 1.398 . S
C28 C29 1.382 . S
C29 C28 1.382 . S
C29 C30 1.392 . S
C29 N31 1.420 . S
C30 H24 0.930 . S
C30 C26 1.407 . S
C30 C29 1.392 . S
N31 C29 1.420 . S
N31 C32 1.244 1_545 S
C32 N31 1.244 1_565 S
H33 C36 0.929 . S
H34 C39 0.929 . S
H35 C41 0.930 . S
C36 H33 0.929 . S
C36 C37 1.398 . S
C36 C38 1.396 . S
C37 C36 1.398 . S
C37 C41 1.407 . S
C38 C36 1.396 . S
C38 C39 1.394 . S
C39 H34 0.929 . S
C39 C38 1.394 . S
C39 C40 1.382 . S
C40 C39 1.382 . S
C40 C41 1.392 . S
C40 N42 1.420 . S
C41 H35 0.930 . S
C41 C37 1.407 . S
C41 C40 1.392 . S
N42 C40 1.420 . S
N42 C43 1.244 . S
C43 N42 1.244 . S
H44 C47 0.929 . S
H45 C50 0.929 . S
H46 C52 0.930 . S
C47 H44 0.929 . S
C47 C48 1.398 . S
C47 C49 1.396 1_556 S
C48 C47 1.398 . S
C48 C52 1.407 . S
C49 C47 1.396 1_554 S
C49 C50 1.394 . S
C50 H45 0.929 . S
C50 C49 1.394 . S
C50 C51 1.382 . S
C51 C50 1.382 . S
C51 C52 1.392 1_554 S
C51 N53 1.420 . S
C52 H46 0.930 . S
C52 C48 1.407 . S
C52 C51 1.392 1_556 S
N53 C51 1.420 . S
N53 C54 1.244 . S
C54 N53 1.244 . S
H55 C58 0.929 1_556 S
H56 C61 0.929 . S
H57 C63 0.930 . S
C58 H55 0.929 1_554 S
C58 C59 1.398 1_654 S
C58 C60 1.396 1_655 S
C59 C58 1.398 1_456 S
C59 C63 1.407 . S
C60 C58 1.396 1_455 S
C60 C61 1.394 . S
C61 H56 0.929 . S
C61 C60 1.394 . S
C61 C62 1.382 . S
C62 C61 1.382 . S
C62 C63 1.392 1_554 S
C62 N64 1.420 . S
C63 H57 0.930 . S
C63 C59 1.407 . S
C63 C62 1.392 1_556 S
N64 C62 1.420 . S
N64 C65 1.244 1_455 S
C65 N64 1.244 1_655 S
H66 C69 0.929 . S
H67 C72 0.929 . S
H68 C74 0.930 . S
C69 H66 0.929 . S
C69 C70 1.398 1_565 S
C69 C71 1.396 1_566 S
C70 C69 1.398 1_545 S
C70 C74 1.407 . S
C71 C69 1.396 1_544 S
C71 C72 1.394 . S
C72 H67 0.929 . S
C72 C71 1.394 . S
C72 C73 1.382 . S
C73 C72 1.382 . S
C73 C74 1.392 1_554 S
C73 N75 1.420 . S
C74 H68 0.930 . S
C74 C70 1.407 . S
C74 C73 1.392 1_556 S
N75 C73 1.420 . S
N75 C76 1.244 1_545 S
C76 N75 1.244 1_565 S
H77 C80 0.929 . S
H78 C83 0.929 . S
H79 C85 0.930 . S
C80 H77 0.929 . S
C80 C81 1.398 . S
C80 C82 1.396 1_556 S
C81 C80 1.398 . S
C81 C85 1.407 . S
C82 C80 1.396 1_554 S
C82 C83 1.394 . S
C83 H78 0.929 . S
C83 C82 1.394 . S
C83 C84 1.382 . S
C84 C83 1.382 . S
C84 C85 1.392 1_554 S
C84 N86 1.420 . S
C85 H79 0.930 . S
C85 C81 1.407 . S
C85 C84 1.392 1_556 S
N86 C84 1.420 . S
N86 C87 1.244 . S
C87 N86 1.244 . S
Tb88 C98 2.825 . S
Tb88 O99 2.347 1_455 S
Tb88 O102 2.366 1_554 S
Tb88 O107 2.418 1_554 S
Tb88 O108 2.384 1_565 S
Tb88 O111 2.479 . S
Tb88 O112 2.471 . S
Eu89 O100 2.418 . S
Eu89 O101 2.384 1_545 S
Eu89 O104 2.479 . S
Eu89 O105 2.471 . S
Eu89 O106 2.347 1_655 S
Eu89 O109 2.366 . S
Eu89 C119 2.825 . S
C90 O106 1.259 1_565 S
C90 O107 1.265 . S
C91 O108 1.255 1_556 S
C91 O109 1.265 1_455 S
C92 C94 1.380 . S
C92 C95 1.374 . S
C92 C98 1.507 . S
C93 C94 1.384 . S
C93 C97 1.387 . S
C93 H120 0.930 . S
C94 C92 1.380 . S
C94 C93 1.384 . S
C94 H121 0.931 . S
C95 C92 1.374 . S
C95 C96 1.390 . S
C95 H122 0.930 . S
C96 C95 1.390 . S
C96 C97 1.391 . S
C96 H123 0.930 . S
C97 C93 1.387 . S
C97 C96 1.391 . S
C98 Tb88 2.825 . S
C98 C92 1.507 . S
C98 O111 1.238 . S
C98 O112 1.247 . S
O99 Tb88 2.347 1_655 S
O99 C103 1.259 1_565 S
O100 Eu89 2.418 . S
O100 C103 1.265 1_556 S
O101 Eu89 2.384 1_565 S
O101 C110 1.255 . S
O102 Tb88 2.366 1_556 S
O102 C110 1.265 1_455 S
C103 O99 1.259 1_545 S
C103 O100 1.265 1_554 S
O104 Eu89 2.479 . S
O104 C119 1.238 . S
O105 Eu89 2.471 . S
O105 C119 1.247 . S
O106 Eu89 2.347 1_455 S
O106 C90 1.259 1_545 S
O107 Tb88 2.418 1_556 S
O107 C90 1.265 . S
O108 Tb88 2.384 1_545 S
O108 C91 1.255 1_554 S
O109 Eu89 2.366 . S
O109 C91 1.265 1_655 S
C110 O101 1.255 . S
C110 O102 1.265 1_655 S
O111 Tb88 2.479 . S
O111 C98 1.238 . S
O112 Tb88 2.471 . S
O112 C98 1.247 . S
C113 C116 1.380 . S
C113 C117 1.374 . S
C113 C119 1.507 . S
C114 C115 1.387 . S
C114 C118 1.391 . S
C115 C114 1.387 . S
C115 C116 1.384 . S
C115 H124 0.930 . S
C116 C113 1.380 . S
C116 C115 1.384 . S
C116 H125 0.931 . S
C117 C113 1.374 . S
C117 C118 1.390 . S
C117 H126 0.949 . S
C118 C114 1.391 . S
C118 C117 1.390 . S
C118 H127 0.930 . S
C119 Eu89 2.825 . S
C119 O104 1.238 . S
C119 O105 1.247 . S
C119 C113 1.507 . S
H120 C93 0.930 . S
H121 C94 0.931 . S
H122 C95 0.930 . S
H123 C96 0.930 . S
H124 C115 0.930 . S
H125 C116 0.931 . S
H126 C117 0.949 . S
H127 C118 0.930 . S
Tb128 C138 2.825 . S
Tb128 O139 2.347 1_545 S
Tb128 O142 2.366 1_554 S
Tb128 O147 2.418 1_554 S
Tb128 O148 2.384 1_554 S
Tb128 O151 2.479 . S
Tb128 O152 2.471 . S
Eu129 O140 2.418 . S
Eu129 O141 2.384 . S
Eu129 O144 2.479 . S
Eu129 O145 2.471 . S
Eu129 O146 2.347 1_565 S
Eu129 O149 2.366 . S
Eu129 C159 2.825 . S
C130 O146 1.259 . S
C130 O147 1.265 . S
C131 O148 1.255 . S
C131 O149 1.265 1_545 S
C132 C134 1.380 . S
C132 C135 1.374 . S
C132 C138 1.507 . S
C133 C134 1.384 . S
C133 C137 1.387 . S
C133 H160 0.930 . S
C134 C132 1.380 . S
C134 C133 1.384 . S
C134 H161 0.931 . S
C135 C132 1.374 . S
C135 C136 1.390 . S
C135 H162 0.930 1_545 S
C136 C135 1.390 . S
C136 C137 1.391 . S
C136 H163 0.930 . S
C137 C133 1.387 . S
C137 C136 1.391 . S
C138 Tb128 2.825 . S
C138 C132 1.507 . S
C138 O151 1.238 . S
C138 O152 1.247 . S
O139 Tb128 2.347 1_565 S
O139 C143 1.259 . S
O140 Eu129 2.418 . S
O140 C143 1.265 1_556 S
O141 Eu129 2.384 . S
O141 C150 1.255 . S
O142 Tb128 2.366 1_556 S
O142 C150 1.265 1_545 S
C143 O139 1.259 . S
C143 O140 1.265 1_554 S
O144 Eu129 2.479 . S
O144 C159 1.238 . S
O145 Eu129 2.471 . S
O145 C159 1.247 . S
O146 Eu129 2.347 1_545 S
O146 C130 1.259 . S
O147 Tb128 2.418 1_556 S
O147 C130 1.265 . S
O148 Tb128 2.384 1_556 S
O148 C131 1.255 . S
O149 Eu129 2.366 . S
O149 C131 1.265 1_565 S
C150 O141 1.255 . S
C150 O142 1.265 1_565 S
O151 Tb128 2.479 . S
O151 C138 1.238 . S
O152 Tb128 2.471 . S
O152 C138 1.247 . S
C153 C156 1.380 . S
C153 C157 1.374 . S
C153 C159 1.507 . S
C154 C155 1.387 . S
C154 C158 1.391 . S
C155 C154 1.387 . S
C155 C156 1.384 . S
C155 H164 0.930 . S
C156 C153 1.380 . S
C156 C155 1.384 . S
C156 H165 0.931 . S
C157 C153 1.374 . S
C157 C158 1.390 . S
C157 H166 0.930 1_565 S
C158 C154 1.391 . S
C158 C157 1.390 . S
C158 H167 0.930 . S
C159 Eu129 2.825 . S
C159 O144 1.238 . S
C159 O145 1.247 . S
C159 C153 1.507 . S
H160 C133 0.930 . S
H161 C134 0.931 . S
H162 C135 0.930 1_565 S
H163 C136 0.930 . S
H164 C155 0.930 . S
H165 C156 0.931 . S
H166 C157 0.930 1_545 S
H167 C158 0.930 . S
Tb168 C178 2.825 . S
Tb168 O179 2.347 . S
Tb168 O182 2.366 1_554 S
Tb168 O187 2.418 1_554 S
Tb168 O188 2.384 1_554 S
Tb168 O191 2.479 . S
Tb168 O192 2.471 . S
Eu169 O180 2.418 . S
Eu169 O181 2.384 . S
Eu169 O184 2.479 . S
Eu169 O185 2.471 . S
Eu169 O186 2.347 . S
Eu169 O189 2.366 . S
Eu169 C199 2.825 . S
C170 O186 1.259 . S
C170 O187 1.265 . S
C171 O188 1.255 . S
C171 O189 1.265 . S
C172 C174 1.380 . S
C172 C175 1.374 . S
C172 C178 1.507 . S
C173 C174 1.384 . S
C173 C177 1.387 . S
C173 H200 0.930 . S
C174 C172 1.380 . S
C174 C173 1.384 . S
C174 H201 0.931 . S
C175 C172 1.374 . S
C175 C176 1.390 . S
C175 H202 0.930 . S
C176 C175 1.390 . S
C176 C177 1.391 . S
C176 H203 0.930 . S
C177 C173 1.387 . S
C177 C176 1.391 . S
C178 Tb168 2.825 . S
C178 C172 1.507 . S
C178 O191 1.238 . S
C178 O192 1.247 . S
O179 Tb168 2.347 . S
O179 C183 1.259 . S
O180 Eu169 2.418 . S
O180 C183 1.265 1_556 S
O181 Eu169 2.384 . S
O181 C190 1.255 . S
O182 Tb168 2.366 1_556 S
O182 C190 1.265 . S
C183 O179 1.259 . S
C183 O180 1.265 1_554 S
O184 Eu169 2.479 . S
O184 C199 1.238 . S
O185 Eu169 2.471 . S
O185 C199 1.247 . S
O186 Eu169 2.347 . S
O186 C170 1.259 . S
O187 Tb168 2.418 1_556 S
O187 C170 1.265 . S
O188 Tb168 2.384 1_556 S
O188 C171 1.255 . S
O189 Eu169 2.366 . S
O189 C171 1.265 . S
C190 O181 1.255 . S
C190 O182 1.265 . S
O191 Tb168 2.479 . S
O191 C178 1.238 . S
O192 Tb168 2.471 . S
O192 C178 1.247 . S
C193 C196 1.380 . S
C193 C197 1.374 . S
C193 C199 1.507 . S
C194 C195 1.387 . S
C194 C198 1.391 . S
C195 C194 1.387 . S
C195 C196 1.384 . S
C195 H204 0.930 . S
C196 C193 1.380 . S
C196 C195 1.384 . S
C196 H205 0.931 . S
C197 C193 1.374 . S
C197 C198 1.390 . S
C197 H206 0.930 . S
C198 C194 1.391 . S
C198 C197 1.390 . S
C198 H207 0.930 . S
C199 Eu169 2.825 . S
C199 O184 1.238 . S
C199 O185 1.247 . S
C199 C193 1.507 . S
H200 C173 0.930 . S
H201 C174 0.931 . S
H202 C175 0.930 . S
H203 C176 0.930 . S
H204 C195 0.930 . S
H205 C196 0.931 . S
H206 C197 0.930 . S
H207 C198 0.930 . S
Tb208 C218 2.825 . S
Tb208 O219 2.347 . S
Tb208 O222 2.366 1_554 S
Tb208 O227 2.418 1_554 S
Tb208 O228 2.384 1_655 S
Tb208 O231 2.479 . S
Tb208 O232 2.471 . S
Eu209 O220 2.418 . S
Eu209 O221 2.384 1_455 S
Eu209 O224 2.479 . S
Eu209 O225 2.471 . S
Eu209 O226 2.347 . S
Eu209 O229 2.366 . S
Eu209 C239 2.825 . S
C210 O226 1.259 1_655 S
C210 O227 1.265 . S
C211 O228 1.255 1_556 S
C211 O229 1.265 . S
C212 C214 1.380 . S
C212 C215 1.374 . S
C212 C218 1.507 . S
C213 C214 1.384 . S
C213 C217 1.387 . S
C213 H240 0.930 . S
C214 C212 1.380 . S
C214 C213 1.384 . S
C214 H241 0.931 . S
C215 C212 1.374 . S
C215 C216 1.390 . S
C215 H242 0.930 . S
C216 C215 1.390 . S
C216 C217 1.391 . S
C216 H243 0.930 . S
C217 C213 1.387 . S
C217 C216 1.391 . S
C218 Tb208 2.825 . S
C218 C212 1.507 . S
C218 O231 1.238 . S
C218 O232 1.247 . S
O219 Tb208 2.347 . S
O219 C223 1.259 1_655 S
O220 Eu209 2.418 . S
O220 C223 1.265 1_556 S
O221 Eu209 2.384 1_655 S
O221 C230 1.255 . S
O222 Tb208 2.366 1_556 S
O222 C230 1.265 . S
C223 O219 1.259 1_455 S
C223 O220 1.265 1_554 S
O224 Eu209 2.479 . S
O224 C239 1.238 . S
O225 Eu209 2.471 . S
O225 C239 1.247 . S
O226 Eu209 2.347 . S
O226 C210 1.259 1_455 S
O227 Tb208 2.418 1_556 S
O227 C210 1.265 . S
O228 Tb208 2.384 1_455 S
O228 C211 1.255 1_554 S
O229 Eu209 2.366 . S
O229 C211 1.265 . S
C230 O221 1.255 . S
C230 O222 1.265 . S
O231 Tb208 2.479 . S
O231 C218 1.238 . S
O232 Tb208 2.471 . S
O232 C218 1.247 . S
C233 C236 1.380 . S
C233 C237 1.374 . S
C233 C239 1.507 . S
C234 C235 1.387 . S
C234 C238 1.391 . S
C235 C234 1.387 . S
C235 C236 1.384 . S
C235 H244 0.930 . S
C236 C233 1.380 . S
C236 C235 1.384 . S
C236 H245 0.931 . S
C237 C233 1.374 . S
C237 C238 1.390 . S
C237 H246 0.930 . S
C238 C234 1.391 . S
C238 C237 1.390 . S
C238 H247 0.930 . S
C239 Eu209 2.825 . S
C239 O224 1.238 . S
C239 O225 1.247 . S
C239 C233 1.507 . S
H240 C213 0.930 . S
H241 C214 0.931 . S
H242 C215 0.930 . S
H243 C216 0.930 . S
H244 C235 0.930 . S
H245 C236 0.931 . S
H246 C237 0.930 . S
H247 C238 0.930 . S
C76 C90 3.590 . S
C130 C87 3.622 . S
C170 C54 3.650 . S
C210 C65 3.609 . S
C103 C32 3.594 1_545 S
C43 C143 3.615 . S
C10 C183 3.643 . S
C21 C223 3.611 1_655 S
C114 C60 2.373 1_655 S
C154 C71 2.211 1_565 S
C194 C82 2.069 . S
C49 C234 2.204 . S
C16 C97 2.348 . S
C137 C27 2.187 . S
C177 C38 2.018 . S
C5 C217 2.153 . S
C59 C91 3.960 . S
C70 C131 3.882 . S
C171 C81 3.883 . S
C211 C48 3.958 . S
C15 C110 3.976 1_455 S
C150 C26 3.894 1_565 S
C190 C37 3.906 . S
C4 C230 3.984 . S
