# Generated by pormake.
# Topology pyr, (3,6)-cn, num edge types: 1
# Building blocks:
#     Node 0, Type 0, BuildingBlock: BELTOD_clean_linker_0, # of connection points: 3
#     Node 1, Type 0, BuildingBlock: BELTOD_clean_linker_0, # of connection points: 3
#     Node 2, Type 0, BuildingBlock: BELTOD_clean_linker_0, # of connection points: 3
#     Node 3, Type 0, BuildingBlock: BELTOD_clean_linker_0, # of connection points: 3
#     Node 4, Type 0, BuildingBlock: BELTOD_clean_linker_0, # of connection points: 3
#     Node 5, Type 0, BuildingBlock: BELTOD_clean_linker_0, # of connection points: 3
#     Node 6, Type 0, BuildingBlock: BELTOD_clean_linker_0, # of connection points: 3
#     Node 7, Type 0, BuildingBlock: BELTOD_clean_linker_0, # of connection points: 3
#     Node 8, Type 1, BuildingBlock: PAMTOO_clean_sbu_0, # of connection points: 6
#     Node 9, Type 1, BuildingBlock: PAMTOO_clean_sbu_0, # of connection points: 6
#     Node 10, Type 1, BuildingBlock: PAMTOO_clean_sbu_0, # of connection points: 6
#     Node 11, Type 1, BuildingBlock: PAMTOO_clean_sbu_0, # of connection points: 6
#     Edge 12, Type (0, 1), None
#     Edge 13, Type (0, 1), None
#     Edge 14, Type (0, 1), None
#     Edge 15, Type (0, 1), None
#     Edge 16, Type (0, 1), None
#     Edge 17, Type (0, 1), None
#     Edge 18, Type (0, 1), None
#     Edge 19, Type (0, 1), None
#     Edge 20, Type (0, 1), None
#     Edge 21, Type (0, 1), None
#     Edge 22, Type (0, 1), None
#     Edge 23, Type (0, 1), None
#     Edge 24, Type (0, 1), None
#     Edge 25, Type (0, 1), None
#     Edge 26, Type (0, 1), None
#     Edge 27, Type (0, 1), None
#     Edge 28, Type (0, 1), None
#     Edge 29, Type (0, 1), None
#     Edge 30, Type (0, 1), None
#     Edge 31, Type (0, 1), None
#     Edge 32, Type (0, 1), None
#     Edge 33, Type (0, 1), None
#     Edge 34, Type (0, 1), None
#     Edge 35, Type (0, 1), None
# Relax obj value: 0.274
# Max RMSD: 0.208
# Mean RMSD: 0.094
data_MOF--net-pyr--node1-PAMTOO_clean_sbu_0--node2-BELTOD_clean_linker_0--edge1-none
_symmetry_space_group_name_H-M    P1
_symmetry_Int_Tables_number       1
_symmetry_cell_setting            triclinic
loop_
_symmetry_equiv_pos_as_xyz
'x, y, z'
_cell_length_a     21.993588
_cell_length_b     23.441885
_cell_length_c     22.361866
_cell_angle_alpha  89.94131
_cell_angle_beta   90.323997
_cell_angle_gamma 106.68766
loop_
_atom_site_label
_atom_site_type_symbol
_atom_site_fract_x
_atom_site_fract_y
_atom_site_fract_z
_atom_type_partial_charge
P0 P 0.48092 0.37062 0.31416 0.0
H1 H 0.58748 0.35905 0.23867 0.0
H2 H 0.60929 0.27112 0.19306 0.0
H3 H 0.44046 0.15765 0.27486 0.0
H4 H 0.41862 0.244 0.31951 0.0
H5 H 0.42984 0.47292 0.31175 0.0
H6 H 0.32617 0.48304 0.28119 0.0
H7 H 0.27589 0.3047 0.20869 0.0
H8 H 0.37875 0.29563 0.23757 0.0
H9 H 0.5396 0.31008 0.40119 0.0
H10 H 0.37668 0.37776 0.39437 0.0
O11 O 0.54272 0.43174 0.31324 0.0
H12 H 0.49192 0.24499 0.48375 0.0
H13 H 0.32847 0.31228 0.47507 0.0
C14 C 0.50086 0.30809 0.28153 0.0
C15 C 0.55583 0.31512 0.24736 0.0
C16 C 0.56899 0.26502 0.22252 0.0
C17 C 0.5272 0.20796 0.23198 0.0
C18 C 0.47404 0.20117 0.26827 0.0
C19 C 0.46107 0.25065 0.29286 0.0
C20 C 0.41247 0.38352 0.27743 0.0
C21 C 0.39702 0.43668 0.28792 0.0
C22 C 0.3374 0.44203 0.27116 0.0
C23 C 0.29227 0.3943 0.24322 0.0
C24 C 0.30939 0.34244 0.22989 0.0
C25 C 0.36869 0.33712 0.24686 0.0
C26 C 0.46058 0.34699 0.38983 0.0
C27 C 0.49448 0.31238 0.41855 0.0
C28 C 0.46713 0.27502 0.46569 0.0
C29 C 0.4054 0.27177 0.48447 0.0
C30 C 0.37593 0.31318 0.46157 0.0
C31 C 0.4034 0.35056 0.41451 0.0
P32 P 0.14935 0.87258 0.84409 0.0
H33 H 0.20349 0.8022 0.92563 0.0
H34 H 0.20774 0.81287 1.03163 0.0
H35 H 0.0406 0.87435 1.02702 0.0
H36 H 0.03698 0.86419 0.91901 0.0
H37 H 0.26259 0.92838 0.77531 0.0
H38 H 0.34745 0.89151 0.73612 0.0
H39 H 0.24312 0.71263 0.78748 0.0
H40 H 0.15759 0.75006 0.82652 0.0
H41 H 0.06548 0.94799 0.85388 0.0
H42 H 0.10013 0.82215 0.72737 0.0
O43 O 0.19091 0.9412 0.86471 0.0
H44 H 1.00908 0.98695 0.77716 0.0
H45 H 0.04538 0.86241 0.64995 0.0
C46 C 0.12214 0.83573 0.91346 0.0
C47 C 0.16514 0.81459 0.94694 0.0
C48 C 0.16751 0.82102 1.00886 0.0
C49 C 0.12906 0.85181 1.03692 0.0
C50 C 0.07465 0.85568 1.00567 0.0
C51 C 0.07269 0.85013 0.94343 0.0
C52 C 0.20483 0.84217 0.80555 0.0
C53 C 0.25751 0.8811 0.77761 0.0
C54 C 0.30595 0.85996 0.75496 0.0
C55 C 0.30245 0.79936 0.75971 0.0
C56 C 0.24762 0.75978 0.78436 0.0
C57 C 0.19867 0.78098 0.80637 0.0
C58 C 0.08761 0.88263 0.79607 0.0
C59 C 0.05822 0.92666 0.81044 0.0
C60 C 0.02586 0.94899 0.76655 0.0
C61 C 0.02392 0.92827 0.70764 0.0
C62 C 0.04679 0.87935 0.69517 0.0
C63 C 0.07827 0.85643 0.73932 0.0
P64 P 0.6722 0.38747 0.88436 0.0
H65 H 0.77194 0.34391 0.93482 0.0
H66 H 0.86357 0.38699 0.99908 0.0
H67 H 0.81476 0.55278 1.00345 0.0
H68 H 0.7211 0.50816 0.94067 0.0
H69 H 0.57737 0.27269 0.85536 0.0
H70 H 0.52869 0.18437 0.91695 0.0
H71 H 0.60674 0.28387 1.07537 0.0
H72 H 0.65235 0.37211 1.01472 0.0
H73 H 0.72464 0.50672 0.8293 0.0
H74 H 0.54345 0.37334 0.83736 0.0
O75 O 0.7002 0.35113 0.83206 0.0
H76 H 0.68262 0.56156 0.75355 0.0
H77 H 0.50215 0.42647 0.76035 0.0
C78 C 0.74068 0.42333 0.93093 0.0
C79 C 0.78093 0.38966 0.9494 0.0
C80 C 0.83314 0.41421 0.98681 0.0
C81 C 0.847 0.47354 1.00643 0.0
C82 C 0.80578 0.50701 0.98897 0.0
C83 C 0.75252 0.4818 0.95237 0.0
C84 C 0.61935 0.3294 0.92994 0.0
C85 C 0.58201 0.27622 0.90355 0.0
C86 C 0.55435 0.22553 0.93879 0.0
C87 C 0.56468 0.22678 1.001 0.0
C88 C 0.59848 0.28115 1.02751 0.0
C89 C 0.62457 0.33195 0.99261 0.0
C90 C 0.63673 0.43659 0.84142 0.0
C91 C 0.67508 0.49025 0.81675 0.0
C92 C 0.65117 0.52152 0.77272 0.0
C93 C 0.5889 0.49869 0.75052 0.0
C94 C 0.55033 0.44567 0.77622 0.0
C95 C 0.57381 0.41526 0.82095 0.0
P96 P 0.84805 0.72882 0.36457 0.0
H97 H 0.92783 0.84658 0.32488 0.0
H98 H 0.97916 0.93816 0.38105 0.0
H99 H 0.93816 0.84002 0.54624 0.0
H100 H 0.89084 0.74833 0.49037 0.0
H101 H 0.89839 0.75798 0.24558 0.0
H102 H 0.94299 0.70799 0.17002 0.0
H103 H 0.92725 0.56018 0.28995 0.0
H104 H 0.88464 0.61243 0.36756 0.0
H105 H 0.7717 0.77639 0.44314 0.0
H106 H 0.78908 0.60117 0.40666 0.0
O107 O 0.80726 0.76158 0.31965 0.0
H108 H 0.68931 0.73484 0.5159 0.0
H109 H 0.707 0.55926 0.48085 0.0
C110 C 0.90429 0.79037 0.40319 0.0
C111 C 0.932 0.84421 0.37303 0.0
C112 C 0.96095 0.89671 0.40516 0.0
C113 C 0.96131 0.89639 0.46802 0.0
C114 C 0.93757 0.84175 0.49781 0.0
C115 C 0.91066 0.78914 0.46571 0.0
C116 C 0.88534 0.68861 0.31227 0.0
C117 C 0.90411 0.71474 0.25621 0.0
C118 C 0.92982 0.68578 0.2125 0.0
C119 C 0.93777 0.62911 0.22283 0.0
C120 C 0.92045 0.60308 0.27959 0.0
C121 C 0.8955 0.63295 0.32417 0.0
C122 C 0.78817 0.69248 0.41957 0.0
C123 C 0.75852 0.72884 0.45129 0.0
C124 C 0.71122 0.70499 0.49334 0.0
C125 C 0.69138 0.64356 0.50492 0.0
C126 C 0.72135 0.60686 0.47358 0.0
C127 C 0.7689 0.63097 0.43098 0.0
P128 P 0.64027 0.86104 0.8818 0.0
H129 H 0.66312 0.88991 1.00597 0.0
H130 H 0.61247 0.95009 1.06475 0.0
H131 H 0.44922 0.90193 0.9476 0.0
H132 H 0.49922 0.83863 0.88989 0.0
H133 H 0.77207 0.8951 0.84637 0.0
H134 H 0.86106 0.85658 0.86899 0.0
H135 H 0.74002 0.72141 0.9816 0.0
H136 H 0.65047 0.76149 0.95932 0.0
H137 H 0.54071 0.88575 0.80645 0.0
H138 H 0.67071 0.77906 0.79517 0.0
O139 O 0.67449 0.93331 0.86897 0.0
H140 H 0.55056 0.90439 0.70081 0.0
H141 H 0.68952 0.80648 0.69199 0.0
C142 C 0.58654 0.86239 0.94162 0.0
C143 C 0.61485 0.88899 0.99473 0.0
C144 C 0.58624 0.92429 1.02784 0.0
C145 C 0.52839 0.9324 1.00881 0.0
C146 C 0.49464 0.89729 0.96209 0.0
C147 C 0.52361 0.86165 0.92883 0.0
C148 C 0.705 0.83189 0.9022 0.0
C149 C 0.76464 0.8576 0.87656 0.0
C150 C 0.81546 0.83506 0.88895 0.0
C151 C 0.80771 0.78584 0.927 0.0
C152 C 0.74766 0.75985 0.95263 0.0
C153 C 0.69647 0.78253 0.93995 0.0
C154 C 0.60745 0.8333 0.81012 0.0
C155 C 0.56866 0.86316 0.7813 0.0
C156 C 0.57613 0.87573 0.72039 0.0
C157 C 0.62603 0.86279 0.68936 0.0
C158 C 0.65304 0.82058 0.71475 0.0
C159 C 0.64252 0.80492 0.77482 0.0
P160 P 0.97483 0.36167 0.39599 0.0
H161 H 0.93195 0.46677 0.42044 0.0
H162 H 0.82851 0.47806 0.4484 0.0
H163 H 0.75429 0.28689 0.46457 0.0
H164 H 0.8571 0.2763 0.43897 0.0
H165 H 0.07322 0.34629 0.48034 0.0
H166 H 0.09753 0.25679 0.5187 0.0
H167 H 0.94206 0.14655 0.4142 0.0
H168 H 0.91838 0.23474 0.37656 0.0
H169 H 0.88133 0.38411 0.31103 0.0
H170 H 0.03629 0.30556 0.30713 0.0
O171 O 0.03559 0.42285 0.4053 0.0
H172 H 0.8365 0.32929 0.22216 0.0
H173 H 0.99244 0.25135 0.21638 0.0
C174 C 0.9032 0.37081 0.42881 0.0
C175 C 0.89386 0.42747 0.43171 0.0
C176 C 0.83433 0.43375 0.44674 0.0
C177 C 0.78282 0.38331 0.45863 0.0
C178 C 0.79291 0.32681 0.45673 0.0
C179 C 0.85227 0.32068 0.44193 0.0
C180 C 0.99342 0.29723 0.42631 0.0
C181 C 0.04461 0.30279 0.46576 0.0
C182 C 0.05896 0.25175 0.48694 0.0
C183 C 0.02189 0.19476 0.46905 0.0
C184 C 0.97152 0.18977 0.4288 0.0
C185 C 0.95752 0.24034 0.40774 0.0
C186 C 0.96018 0.34628 0.3176 0.0
C187 C 0.90703 0.35661 0.29 0.0
C188 C 0.88163 0.32542 0.23833 0.0
C189 C 0.9095 0.28387 0.2134 0.0
C190 C 0.96842 0.28113 0.23593 0.0
C191 C 0.99371 0.31238 0.28769 0.0
P192 P 0.40446 0.71074 0.25793 0.0
H193 H 0.35353 0.73799 0.14328 0.0
H194 H 0.25089 0.69892 1.09187 0.0
H195 H 0.18176 0.58483 0.24365 0.0
H196 H 0.28342 0.62435 0.29429 0.0
H197 H 0.53076 0.79442 0.23993 0.0
H198 H 0.56533 0.8982 0.20747 0.0
H199 H 0.37418 0.90986 0.22918 0.0
H200 H 0.34009 0.80578 0.26163 0.0
H201 H 0.40732 0.59177 0.29437 0.0
H202 H 0.42184 0.7579 0.38351 0.0
O203 O 0.4514 0.68586 0.21276 0.0
H204 H 0.43226 0.54925 0.38805 0.0
H205 H 0.44608 0.7151 0.4783 0.0
C206 C 0.32617 0.68478 0.22323 0.0
C207 C 0.3158 0.70505 0.16573 0.0
C208 C 0.2571 0.68253 0.13611 0.0
C209 C 0.20753 0.63865 0.16318 0.0
C210 C 0.21836 0.61874 0.221 0.0
C211 C 0.2768 0.64142 0.2505 0.0
C212 C 0.43255 0.79167 0.25247 0.0
C213 C 0.49652 0.81965 0.23922 0.0
C214 C 0.51626 0.87927 0.22035 0.0
C215 C 0.47249 0.91264 0.21453 0.0
C216 C 0.40933 0.88577 0.23252 0.0
C217 C 0.38968 0.82602 0.2514 0.0
C218 C 0.41288 0.67836 0.33124 0.0
C219 C 0.41491 0.61899 0.33435 0.0
C220 C 0.42944 0.59459 0.38822 0.0
C221 C 0.44171 0.62851 0.44123 0.0
C222 C 0.43679 0.68731 0.43871 0.0
C223 C 0.42288 0.71201 0.38432 0.0
P224 P 0.18812 0.36839 0.80268 0.0
H225 H 0.20007 0.24719 0.79972 0.0
H226 H 0.15099 0.15997 0.73959 0.0
H227 H 0.02155 0.24879 0.66421 0.0
H228 H 0.07237 0.33787 0.72484 0.0
H229 H 0.25969 0.49544 0.79982 0.0
H230 H 0.3441 0.55212 0.73477 0.0
H231 H 0.31263 0.40039 0.61683 0.0
H232 H 0.22761 0.34438 0.68164 0.0
H233 H 0.1636 0.3516 0.93093 0.0
H234 H 0.12787 0.46818 0.79475 0.0
O235 O 0.24267 0.34906 0.84375 0.0
H236 H 0.12606 0.40708 1.00753 0.0
H237 H 0.08854 0.52376 0.87179 0.0
C238 C 0.1396 0.29952 0.768 0.0
C239 C 0.16023 0.2481 0.77154 0.0
C240 C 0.13223 0.19785 0.73644 0.0
C241 C 0.08225 0.19696 0.69666 0.0
C242 C 0.05962 0.24757 0.69465 0.0
C243 C 0.08843 0.29853 0.72959 0.0
C244 C 0.23557 0.41588 0.74541 0.0
C245 C 0.26893 0.47506 0.75875 0.0
C246 C 0.31795 0.50734 0.72147 0.0
C247 C 0.33589 0.48087 0.67034 0.0
C248 C 0.30028 0.42253 0.65544 0.0
C249 C 0.25102 0.39041 0.69267 0.0
C250 C 0.14931 0.40557 0.85653 0.0
C251 C 0.14715 0.38895 0.91717 0.0
C252 C 0.12595 0.42123 0.96141 0.0
C253 C 0.10506 0.47091 0.94656 0.0
C254 C 0.10482 0.48625 0.88536 0.0
C255 C 0.12688 0.45412 0.84096 0.0
Dy256 Dy 0.09372 1.0554 0.5617 0.0
Dy257 Dy 0.94736 1.04841 0.58615 0.0
C258 C 0.0577 0.14489 0.65535 0.0
O259 O 0.05417 0.97234 0.61331 0.0
O260 O 0.97602 0.99958 0.66288 0.0
O261 O 0.18424 1.05114 0.59575 0.0
O262 O 0.17119 0.06369 0.50074 0.0
O263 O 0.94495 0.9598 0.54727 0.0
O264 O 0.03516 0.99327 0.4918 0.0
O265 O 0.98026 0.09357 0.49985 0.0
O266 O 0.08081 0.14059 0.52702 0.0
O267 O 0.85759 1.03947 0.54246 0.0
O268 O 0.86732 1.05543 0.63806 0.0
C269 C 0.01485 0.96632 0.65815 0.0
O270 O 0.09379 0.10985 0.64474 0.0
O271 O 1.00238 0.13568 0.62824 0.0
C272 C 0.26881 0.11455 0.54272 0.0
C273 C 0.36628 0.21775 0.51518 0.0
C274 C 0.31703 0.22089 0.55369 0.0
C275 C 0.26824 0.16958 0.567 0.0
C276 C 0.32083 0.11027 0.50942 0.0
C277 C 0.36935 0.16147 0.49576 0.0
C278 C 0.2116 0.064 0.54386 0.0
C279 C 0.98117 0.95259 0.50312 0.0
C280 C 0.02957 0.14036 0.49721 0.0
C281 C 0.76865 0.99682 0.60235 0.0
C282 C 0.6642 0.90721 0.64616 0.0
C283 C 0.70854 0.89251 0.60836 0.0
C284 C 0.76109 0.93702 0.58744 0.0
C285 C 0.72053 1.01227 0.63277 0.0
C286 C 0.66875 0.96807 0.65443 0.0
C287 C 0.82858 1.04291 0.59233 0.0
H288 H 0.31378 0.26344 0.56991 0.0
H289 H 0.22811 0.1735 0.59288 0.0
H290 H 0.32167 0.06806 0.49026 0.0
H291 H 0.40596 0.15726 0.46535 0.0
H292 H 0.70568 0.8465 0.59904 0.0
H293 H 0.79753 0.92439 0.56284 0.0
H294 H 0.72535 1.05838 0.64383 0.0
H295 H 0.63638 0.98238 0.68296 0.0
Dy296 Dy 0.442 0.06201 0.09945 0.0
Dy297 Dy 0.59533 0.07969 0.1171 0.0
C298 C 0.49098 0.97201 0.18381 0.0
O299 O 0.47804 0.14153 0.15656 0.0
O300 O 0.5757 0.13644 0.19048 0.0
O301 O 0.35569 0.06675 0.14121 0.0
O302 O 0.35677 1.04724 1.04622 0.0
O303 O 0.58855 0.16566 1.07869 0.0
O304 O 0.49339 0.1291 1.02948 0.0
O305 O 0.55716 1.03534 1.03172 0.0
O306 O 0.45938 0.98069 1.05937 0.0
O307 O 0.68351 0.09462 1.06954 0.0
O308 O 0.67891 0.07314 0.1642 0.0
C309 C 0.52732 0.1587 0.19218 0.0
O310 O 0.44755 0.99985 0.17469 0.0
O311 O 0.5479 0.9914 0.16012 0.0
C312 C 0.26391 1.00187 0.09952 0.0
C313 C 0.16138 0.90089 1.07878 0.0
C314 C 0.21382 0.89627 0.11296 0.0
C315 C 0.26573 0.94645 0.12183 0.0
C316 C 0.20723 1.00851 1.07669 0.0
C317 C 0.15579 0.95848 1.06714 0.0
C318 C 0.32208 1.05074 0.09268 0.0
C319 C 0.54744 0.17135 1.03793 0.0
C320 C 0.51198 0.9851 1.0306 0.0
C321 C 0.77278 0.1399 0.12947 0.0
C322 C 0.87064 0.2355 0.17471 0.0
C323 C 0.82514 0.24606 0.13509 0.0
C324 C 0.77607 0.19857 0.11313 0.0
C325 C 0.82148 0.12892 0.16385 0.0
C326 C 0.86997 0.17625 0.18643 0.0
C327 C 0.71548 0.09075 0.11793 0.0
H328 H 0.21852 0.8531 0.12557 0.0
H329 H 0.30894 0.94107 0.14137 0.0
H330 H 0.20465 1.05151 1.06093 0.0
H331 H 0.11578 0.96516 1.04273 0.0
H332 H 0.82498 0.29106 0.12427 0.0
H333 H 0.7389 0.20798 1.08633 0.0
H334 H 0.81959 0.08387 0.17677 0.0
H335 H 0.90353 0.1661 0.21728 0.0
Dy336 Dy 0.51655 0.50374 0.56396 0.0
Dy337 Dy 0.52299 0.62653 0.63082 0.0
C338 C 0.56519 0.52521 0.69711 0.0
O339 O 0.41526 0.48483 0.5931 0.0
O340 O 0.43189 0.56168 0.66078 0.0
O341 O 0.53092 0.41695 0.57447 0.0
O342 O 0.5152 0.44835 0.48642 0.0
O343 O 0.46379 0.63042 0.54888 0.0
O344 O 0.48669 0.55777 0.492 0.0
O345 O 0.60329 0.65248 0.56575 0.0
O346 O 0.61734 0.56051 0.55523 0.0
O347 O 0.53055 0.72052 0.63386 0.0
O348 O 0.52166 0.66994 0.71577 0.0
C349 C 0.39592 0.51144 0.63809 0.0
O350 O 0.52262 0.48988 0.66261 0.0
O351 O 0.5861 0.58199 0.68285 0.0
C352 C 0.59697 0.40085 0.49808 0.0
C353 C 0.71849 0.38909 0.47175 0.0
C354 C 0.67965 0.35237 0.51478 0.0
C355 C 0.61958 0.35811 0.52764 0.0
C356 C 0.63491 0.43659 0.45396 0.0
C357 C 0.695 0.43077 0.44096 0.0
C358 C 0.5364 0.41064 0.51717 0.0
C359 C 0.46407 0.60392 0.49693 0.0
C360 C 0.63582 0.61794 0.54487 0.0
C361 C 0.46378 0.74096 0.70907 0.0
C362 C 0.35723 0.7784 0.74161 0.0
C363 C 0.38908 0.79759 0.68768 0.0
C364 C 0.44165 0.77895 0.67149 0.0
C365 C 0.43267 0.72282 0.76362 0.0
C366 C 0.37974 0.74102 0.77951 0.0
C367 C 0.51779 0.71904 0.69079 0.0
H368 H 0.69622 0.32005 0.53968 0.0
H369 H 0.59127 0.33003 0.56182 0.0
H370 H 0.61884 0.46993 0.43024 0.0
H371 H 0.723 0.45897 0.40673 0.0
H372 H 0.37291 0.82656 0.65767 0.0
H373 H 0.46484 0.79421 0.62942 0.0
H374 H 0.44894 0.69421 0.79399 0.0
H375 H 0.35699 0.72659 0.82196 0.0
Dy376 Dy 0.03152 0.61142 1.04259 0.0
Dy377 Dy 0.02321 0.49764 0.12575 0.0
C378 C 0.96672 0.60023 0.17482 0.0
O379 O 0.13189 0.62789 1.07846 0.0
O380 O 0.10268 0.57108 0.16194 0.0
O381 O 0.04798 0.70589 1.02901 0.0
O382 O 0.01698 0.6448 0.95513 0.0
O383 O 0.09102 0.49449 1.05135 0.0
O384 O 0.05147 0.54334 0.98037 0.0
O385 O 0.93914 0.46735 1.06407 0.0
O386 O 0.92865 0.5594 1.04307 0.0
O387 O 0.02335 0.40564 0.13292 0.0
O388 O 0.02871 0.45896 0.21267 0.0
C389 C 0.14495 0.61187 0.13256 0.0
O390 O 0.9993 0.63466 0.13241 0.0
O391 O 0.95996 0.54241 0.17514 0.0
C392 C 0.9693 0.7218 0.9636 0.0
C393 C 0.86248 0.76226 0.93951 0.0
C394 C 0.87451 0.74555 0.99777 0.0
C395 C 0.92736 0.72545 1.00969 0.0
C396 C 0.95684 0.73737 0.90526 0.0
C397 C 0.90419 0.75775 0.89335 0.0
C398 C 0.02363 0.69831 0.97524 0.0
C399 C 0.08201 0.50472 0.99465 0.0
C400 C 0.90667 0.50117 1.04073 0.0
C401 C 0.10197 0.40242 0.20533 0.0
C402 C 0.22676 0.39726 0.23007 0.0
C403 C 0.19553 0.37318 0.1768 0.0
C404 C 0.13389 0.37559 0.16463 0.0
C405 C 0.1325 0.42501 0.25936 0.0
C406 C 0.19417 0.42259 0.27152 0.0
C407 C 0.04018 0.41231 0.1891 0.0
H408 H 0.84364 0.74889 1.03435 0.0
H409 H 0.93527 0.71256 1.05494 0.0
H410 H 0.98807 0.73403 0.86895 0.0
H411 H 0.89583 0.76949 0.84781 0.0
H412 H 0.21925 0.35354 0.14376 0.0
H413 H 0.11196 0.35775 0.12255 0.0
H414 H 0.10916 0.44565 0.29185 0.0
H415 H 0.21621 0.44032 0.3136 0.0
loop_
_geom_bond_atom_site_label_1
_geom_bond_atom_site_label_2
_geom_bond_distance
_geom_bond_site_symmetry_2
_ccdc_geom_bond_type
P0 O11 1.490 . S
P0 C14 1.812 . S
P0 C20 1.803 . S
P0 C26 1.819 . S
H1 C15 0.941 . S
H2 C16 0.939 . S
H3 C18 0.940 . S
H4 C19 0.940 . S
H5 C21 0.939 . S
H6 C22 0.942 . S
H7 C24 0.940 . S
H8 C25 0.939 . S
H9 C27 0.941 . S
H10 C31 0.939 . S
O11 P0 1.490 . S
H12 C28 0.939 . S
H13 C30 0.940 . S
C14 P0 1.812 . S
C14 C15 1.389 . S
C14 C19 1.391 . S
C15 H1 0.941 . S
C15 C14 1.389 . S
C15 C16 1.397 . S
C16 H2 0.939 . S
C16 C15 1.397 . S
C16 C17 1.378 . S
C17 C16 1.378 . S
C17 C18 1.378 . S
C18 H3 0.940 . S
C18 C17 1.378 . S
C18 C19 1.396 . S
C19 H4 0.940 . S
C19 C14 1.391 . S
C19 C18 1.396 . S
C20 P0 1.803 . S
C20 C21 1.378 . S
C20 C25 1.400 . S
C21 H5 0.939 . S
C21 C20 1.378 . S
C21 C22 1.361 . S
C22 H6 0.942 . S
C22 C21 1.361 . S
C22 C23 1.369 . S
C23 C22 1.369 . S
C23 C24 1.404 . S
C24 H7 0.940 . S
C24 C23 1.404 . S
C24 C25 1.389 . S
C25 H8 0.939 . S
C25 C20 1.400 . S
C25 C24 1.389 . S
C26 P0 1.819 . S
C26 C27 1.391 . S
C26 C31 1.391 . S
C27 H9 0.941 . S
C27 C26 1.391 . S
C27 C28 1.396 . S
C28 H12 0.939 . S
C28 C27 1.396 . S
C28 C29 1.397 . S
C29 C28 1.397 . S
C29 C30 1.385 . S
C30 H13 0.940 . S
C30 C29 1.385 . S
C30 C31 1.388 . S
C31 H10 0.939 . S
C31 C26 1.391 . S
C31 C30 1.388 . S
P32 O43 1.490 . S
P32 C46 1.812 . S
P32 C52 1.803 . S
P32 C58 1.819 . S
H33 C47 0.941 . S
H34 C48 0.939 . S
H35 C50 0.940 . S
H36 C51 0.940 . S
H37 C53 0.939 . S
H38 C54 0.942 . S
H39 C56 0.940 . S
H40 C57 0.939 . S
H41 C59 0.941 . S
H42 C63 0.939 . S
O43 P32 1.490 . S
H44 C60 0.939 . S
H45 C62 0.940 . S
C46 P32 1.812 . S
C46 C47 1.389 . S
C46 C51 1.391 . S
C47 H33 0.941 . S
C47 C46 1.389 . S
C47 C48 1.397 . S
C48 H34 0.939 . S
C48 C47 1.397 . S
C48 C49 1.378 . S
C49 C48 1.378 . S
C49 C50 1.378 . S
C50 H35 0.940 . S
C50 C49 1.378 . S
C50 C51 1.396 . S
C51 H36 0.940 . S
C51 C46 1.391 . S
C51 C50 1.396 . S
C52 P32 1.803 . S
C52 C53 1.378 . S
C52 C57 1.400 . S
C53 H37 0.939 . S
C53 C52 1.378 . S
C53 C54 1.361 . S
C54 H38 0.942 . S
C54 C53 1.361 . S
C54 C55 1.369 . S
C55 C54 1.369 . S
C55 C56 1.404 . S
C56 H39 0.940 . S
C56 C55 1.404 . S
C56 C57 1.389 . S
C57 H40 0.939 . S
C57 C52 1.400 . S
C57 C56 1.389 . S
C58 P32 1.819 . S
C58 C59 1.391 . S
C58 C63 1.391 . S
C59 H41 0.941 . S
C59 C58 1.391 . S
C59 C60 1.396 1_455 S
C60 H44 0.939 . S
C60 C59 1.396 1_655 S
C60 C61 1.397 . S
C61 C60 1.397 . S
C61 C62 1.385 . S
C62 H45 0.940 . S
C62 C61 1.385 . S
C62 C63 1.388 1_655 S
C63 H42 0.939 . S
C63 C58 1.391 . S
C63 C62 1.388 1_455 S
P64 O75 1.490 . S
P64 C78 1.812 . S
P64 C84 1.803 . S
P64 C90 1.819 . S
H65 C79 0.941 . S
H66 C80 0.939 . S
H67 C82 0.940 . S
H68 C83 0.940 . S
H69 C85 0.939 . S
H70 C86 0.942 . S
H71 C88 0.940 . S
H72 C89 0.939 . S
H73 C91 0.941 . S
H74 C95 0.939 . S
O75 P64 1.490 . S
H76 C92 0.939 . S
H77 C94 0.940 . S
C78 P64 1.812 . S
C78 C79 1.389 . S
C78 C83 1.391 . S
C79 H65 0.941 . S
C79 C78 1.389 . S
C79 C80 1.397 . S
C80 H66 0.939 . S
C80 C79 1.397 . S
C80 C81 1.378 . S
C81 C80 1.378 . S
C81 C82 1.378 . S
C82 H67 0.940 . S
C82 C81 1.378 . S
C82 C83 1.396 . S
C83 H68 0.940 . S
C83 C78 1.391 . S
C83 C82 1.396 . S
C84 P64 1.803 . S
C84 C85 1.378 . S
C84 C89 1.400 . S
C85 H69 0.939 . S
C85 C84 1.378 . S
C85 C86 1.361 . S
C86 H70 0.942 . S
C86 C85 1.361 . S
C86 C87 1.369 . S
C87 C86 1.369 . S
C87 C88 1.404 . S
C88 H71 0.940 . S
C88 C87 1.404 . S
C88 C89 1.389 . S
C89 H72 0.939 . S
C89 C84 1.400 . S
C89 C88 1.389 . S
C90 P64 1.819 . S
C90 C91 1.391 . S
C90 C95 1.391 . S
C91 H73 0.941 . S
C91 C90 1.391 . S
C91 C92 1.396 . S
C92 H76 0.939 . S
C92 C91 1.396 . S
C92 C93 1.397 . S
C93 C92 1.397 . S
C93 C94 1.385 . S
C94 H77 0.940 . S
C94 C93 1.385 . S
C94 C95 1.388 . S
C95 H74 0.939 . S
C95 C90 1.391 . S
C95 C94 1.388 . S
P96 O107 1.490 . S
P96 C110 1.812 . S
P96 C116 1.803 . S
P96 C122 1.819 . S
H97 C111 0.941 . S
H98 C112 0.939 . S
H99 C114 0.940 . S
H100 C115 0.940 . S
H101 C117 0.939 . S
H102 C118 0.942 . S
H103 C120 0.940 . S
H104 C121 0.939 . S
H105 C123 0.941 . S
H106 C127 0.939 . S
O107 P96 1.490 . S
H108 C124 0.939 . S
H109 C126 0.940 . S
C110 P96 1.812 . S
C110 C111 1.389 . S
C110 C115 1.391 . S
C111 H97 0.941 . S
C111 C110 1.389 . S
C111 C112 1.397 . S
C112 H98 0.939 . S
C112 C111 1.397 . S
C112 C113 1.378 . S
C113 C112 1.378 . S
C113 C114 1.378 . S
C114 H99 0.940 . S
C114 C113 1.378 . S
C114 C115 1.396 . S
C115 H100 0.940 . S
C115 C110 1.391 . S
C115 C114 1.396 . S
C116 P96 1.803 . S
C116 C117 1.378 . S
C116 C121 1.400 . S
C117 H101 0.939 . S
C117 C116 1.378 . S
C117 C118 1.361 . S
C118 H102 0.942 . S
C118 C117 1.361 . S
C118 C119 1.369 . S
C119 C118 1.369 . S
C119 C120 1.404 . S
C120 H103 0.940 . S
C120 C119 1.404 . S
C120 C121 1.389 . S
C121 H104 0.939 . S
C121 C116 1.400 . S
C121 C120 1.389 . S
C122 P96 1.819 . S
C122 C123 1.391 . S
C122 C127 1.391 . S
C123 H105 0.941 . S
C123 C122 1.391 . S
C123 C124 1.396 . S
C124 H108 0.939 . S
C124 C123 1.396 . S
C124 C125 1.397 . S
C125 C124 1.397 . S
C125 C126 1.385 . S
C126 H109 0.940 . S
C126 C125 1.385 . S
C126 C127 1.388 . S
C127 H106 0.939 . S
C127 C122 1.391 . S
C127 C126 1.388 . S
P128 O139 1.490 . S
P128 C142 1.812 . S
P128 C148 1.803 . S
P128 C154 1.819 . S
H129 C143 0.941 . S
H130 C144 0.939 . S
H131 C146 0.940 . S
H132 C147 0.940 . S
H133 C149 0.939 . S
H134 C150 0.942 . S
H135 C152 0.940 . S
H136 C153 0.939 . S
H137 C155 0.941 . S
H138 C159 0.939 . S
O139 P128 1.490 . S
H140 C156 0.939 . S
H141 C158 0.940 . S
C142 P128 1.812 . S
C142 C143 1.389 . S
C142 C147 1.391 . S
C143 H129 0.941 . S
C143 C142 1.389 . S
C143 C144 1.397 . S
C144 H130 0.939 . S
C144 C143 1.397 . S
C144 C145 1.378 . S
C145 C144 1.378 . S
C145 C146 1.378 . S
C146 H131 0.940 . S
C146 C145 1.378 . S
C146 C147 1.396 . S
C147 H132 0.940 . S
C147 C142 1.391 . S
C147 C146 1.396 . S
C148 P128 1.803 . S
C148 C149 1.378 . S
C148 C153 1.400 . S
C149 H133 0.939 . S
C149 C148 1.378 . S
C149 C150 1.361 . S
C150 H134 0.942 . S
C150 C149 1.361 . S
C150 C151 1.369 . S
C151 C150 1.369 . S
C151 C152 1.404 . S
C152 H135 0.940 . S
C152 C151 1.404 . S
C152 C153 1.389 . S
C153 H136 0.939 . S
C153 C148 1.400 . S
C153 C152 1.389 . S
C154 P128 1.819 . S
C154 C155 1.391 . S
C154 C159 1.391 . S
C155 H137 0.941 . S
C155 C154 1.391 . S
C155 C156 1.396 . S
C156 H140 0.939 . S
C156 C155 1.396 . S
C156 C157 1.397 . S
C157 C156 1.397 . S
C157 C158 1.385 . S
C158 H141 0.940 . S
C158 C157 1.385 . S
C158 C159 1.388 . S
C159 H138 0.939 . S
C159 C154 1.391 . S
C159 C158 1.388 . S
P160 O171 1.490 . S
P160 C174 1.812 1_455 S
P160 C180 1.803 . S
P160 C186 1.819 1_455 S
H161 C175 0.941 1_455 S
H162 C176 0.939 . S
H163 C178 0.940 . S
H164 C179 0.940 . S
H165 C181 0.939 . S
H166 C182 0.942 . S
H167 C184 0.940 . S
H168 C185 0.939 1_655 S
H169 C187 0.941 . S
H170 C191 0.939 . S
O171 P160 1.490 . S
H172 C188 0.939 . S
H173 C190 0.940 . S
C174 P160 1.812 1_655 S
C174 C175 1.389 . S
C174 C179 1.391 . S
C175 H161 0.941 1_655 S
C175 C174 1.389 . S
C175 C176 1.397 . S
C176 H162 0.939 . S
C176 C175 1.397 . S
C176 C177 1.378 . S
C177 C176 1.378 . S
C177 C178 1.378 . S
C178 H163 0.940 . S
C178 C177 1.378 . S
C178 C179 1.396 . S
C179 H164 0.940 . S
C179 C174 1.391 . S
C179 C178 1.396 . S
C180 P160 1.803 . S
C180 C181 1.378 . S
C180 C185 1.400 . S
C181 H165 0.939 . S
C181 C180 1.378 . S
C181 C182 1.361 . S
C182 H166 0.942 . S
C182 C181 1.361 . S
C182 C183 1.369 . S
C183 C182 1.369 . S
C183 C184 1.404 . S
C184 H167 0.940 . S
C184 C183 1.404 . S
C184 C185 1.389 . S
C185 H168 0.939 1_455 S
C185 C180 1.400 . S
C185 C184 1.389 . S
C186 P160 1.819 1_655 S
C186 C187 1.391 . S
C186 C191 1.391 . S
C187 H169 0.941 . S
C187 C186 1.391 . S
C187 C188 1.396 . S
C188 H172 0.939 . S
C188 C187 1.396 . S
C188 C189 1.397 . S
C189 C188 1.397 . S
C189 C190 1.385 . S
C190 H173 0.940 . S
C190 C189 1.385 . S
C190 C191 1.388 . S
C191 H170 0.939 . S
C191 C186 1.391 . S
C191 C190 1.388 . S
P192 O203 1.490 . S
P192 C206 1.812 . S
P192 C212 1.803 . S
P192 C218 1.819 . S
H193 C207 0.941 . S
H194 C208 0.939 . S
H195 C210 0.940 . S
H196 C211 0.940 . S
H197 C213 0.939 . S
H198 C214 0.942 . S
H199 C216 0.940 . S
H200 C217 0.939 . S
H201 C219 0.941 . S
H202 C223 0.939 . S
O203 P192 1.490 . S
H204 C220 0.939 . S
H205 C222 0.940 . S
C206 P192 1.812 . S
C206 C207 1.389 . S
C206 C211 1.391 . S
C207 H193 0.941 . S
C207 C206 1.389 . S
C207 C208 1.397 . S
C208 H194 0.939 . S
C208 C207 1.397 . S
C208 C209 1.378 . S
C209 C208 1.378 . S
C209 C210 1.378 . S
C210 H195 0.940 . S
C210 C209 1.378 . S
C210 C211 1.396 . S
C211 H196 0.940 . S
C211 C206 1.391 . S
C211 C210 1.396 . S
C212 P192 1.803 . S
C212 C213 1.378 . S
C212 C217 1.400 . S
C213 H197 0.939 . S
C213 C212 1.378 . S
C213 C214 1.361 . S
C214 H198 0.942 . S
C214 C213 1.361 . S
C214 C215 1.369 . S
C215 C214 1.369 . S
C215 C216 1.404 . S
C216 H199 0.940 . S
C216 C215 1.404 . S
C216 C217 1.389 . S
C217 H200 0.939 . S
C217 C212 1.400 . S
C217 C216 1.389 . S
C218 P192 1.819 . S
C218 C219 1.391 . S
C218 C223 1.391 . S
C219 H201 0.941 . S
C219 C218 1.391 . S
C219 C220 1.396 . S
C220 H204 0.939 . S
C220 C219 1.396 . S
C220 C221 1.397 . S
C221 C220 1.397 . S
C221 C222 1.385 . S
C222 H205 0.940 . S
C222 C221 1.385 . S
C222 C223 1.388 . S
C223 H202 0.939 . S
C223 C218 1.391 . S
C223 C222 1.388 . S
P224 O235 1.490 . S
P224 C238 1.812 . S
P224 C244 1.803 . S
P224 C250 1.819 . S
H225 C239 0.941 . S
H226 C240 0.939 . S
H227 C242 0.940 . S
H228 C243 0.940 . S
H229 C245 0.939 . S
H230 C246 0.942 . S
H231 C248 0.940 . S
H232 C249 0.939 . S
H233 C251 0.941 . S
H234 C255 0.939 . S
O235 P224 1.490 . S
H236 C252 0.939 . S
H237 C254 0.940 . S
C238 P224 1.812 . S
C238 C239 1.389 . S
C238 C243 1.391 . S
C239 H225 0.941 . S
C239 C238 1.389 . S
C239 C240 1.397 . S
C240 H226 0.939 . S
C240 C239 1.397 . S
C240 C241 1.378 . S
C241 C240 1.378 . S
C241 C242 1.378 . S
C242 H227 0.940 . S
C242 C241 1.378 . S
C242 C243 1.396 . S
C243 H228 0.940 . S
C243 C238 1.391 . S
C243 C242 1.396 . S
C244 P224 1.803 . S
C244 C245 1.378 . S
C244 C249 1.400 . S
C245 H229 0.939 . S
C245 C244 1.378 . S
C245 C246 1.361 . S
C246 H230 0.942 . S
C246 C245 1.361 . S
C246 C247 1.369 . S
C247 C246 1.369 . S
C247 C248 1.404 . S
C248 H231 0.940 . S
C248 C247 1.404 . S
C248 C249 1.389 . S
C249 H232 0.939 . S
C249 C244 1.400 . S
C249 C248 1.389 . S
C250 P224 1.819 . S
C250 C251 1.391 . S
C250 C255 1.391 . S
C251 H233 0.941 . S
C251 C250 1.391 . S
C251 C252 1.396 . S
C252 H236 0.939 . S
C252 C251 1.396 . S
C252 C253 1.397 . S
C253 C252 1.397 . S
C253 C254 1.385 . S
C254 H237 0.940 . S
C254 C253 1.385 . S
C254 C255 1.388 . S
C255 H234 0.939 . S
C255 C250 1.391 . S
C255 C254 1.388 . S
Dy256 O259 2.307 1_545 S
Dy256 O261 2.395 . S
Dy256 O262 2.379 . S
Dy256 O264 2.339 1_545 S
Dy256 O266 2.298 . S
Dy256 O270 2.275 . S
Dy256 C278 2.738 . S
Dy257 O260 2.298 . S
Dy257 O263 2.275 . S
Dy257 O265 2.307 1_565 S
Dy257 O267 2.395 . S
Dy257 O268 2.379 . S
Dy257 O271 2.339 1_565 S
Dy257 C287 2.738 . S
C258 O270 1.254 . S
C258 O271 1.257 1_455 S
O259 Dy256 2.307 1_565 S
O259 C269 1.266 . S
O260 Dy257 2.298 . S
O260 C269 1.236 1_655 S
O261 Dy256 2.395 . S
O261 C278 1.255 . S
O262 Dy256 2.379 . S
O262 C278 1.249 . S
O263 Dy257 2.275 . S
O263 C279 1.254 . S
O264 Dy256 2.339 1_565 S
O264 C279 1.257 1_455 S
O265 Dy257 2.307 1_545 S
O265 C280 1.266 . S
O266 Dy256 2.298 . S
O266 C280 1.236 1_455 S
O267 Dy257 2.395 . S
O267 C287 1.255 . S
O268 Dy257 2.379 . S
O268 C287 1.249 . S
C269 O259 1.266 . S
C269 O260 1.236 1_455 S
O270 Dy256 2.275 . S
O270 C258 1.254 . S
O271 Dy257 2.339 1_545 S
O271 C258 1.257 1_655 S
C272 C275 1.344 . S
C272 C276 1.328 . S
C272 C278 1.516 . S
C273 C274 1.304 . S
C273 C277 1.323 . S
C274 C273 1.304 . S
C274 C275 1.371 . S
C274 H288 0.930 . S
C275 C272 1.344 . S
C275 C274 1.371 . S
C275 H289 0.931 . S
C276 C272 1.328 . S
C276 C277 1.433 . S
C276 H290 0.931 . S
C277 C273 1.323 . S
C277 C276 1.433 . S
C277 H291 0.933 . S
C278 Dy256 2.738 . S
C278 O261 1.255 . S
C278 O262 1.249 . S
C278 C272 1.516 . S
C279 O263 1.254 . S
C279 O264 1.257 1_655 S
C280 O265 1.266 . S
C280 O266 1.236 1_655 S
C281 C284 1.344 . S
C281 C285 1.328 . S
C281 C287 1.516 . S
C282 C283 1.304 . S
C282 C286 1.323 . S
C283 C282 1.304 . S
C283 C284 1.371 . S
C283 H292 0.930 . S
C284 C281 1.344 . S
C284 C283 1.371 . S
C284 H293 0.931 . S
C285 C281 1.328 . S
C285 C286 1.433 . S
C285 H294 0.931 . S
C286 C282 1.323 . S
C286 C285 1.433 . S
C286 H295 0.933 . S
C287 Dy257 2.738 . S
C287 O267 1.255 . S
C287 O268 1.249 . S
C287 C281 1.516 . S
H288 C274 0.930 . S
H289 C275 0.931 . S
H290 C276 0.931 . S
H291 C277 0.933 . S
H292 C283 0.930 . S
H293 C284 0.931 . S
H294 C285 0.931 . S
H295 C286 0.933 . S
Dy296 O299 2.307 1_556 S
Dy296 O301 2.395 1_545 S
Dy296 O302 2.379 1_545 S
Dy296 O304 2.339 . S
Dy296 O306 2.298 1_545 S
Dy296 O310 2.275 1_546 S
Dy296 C318 2.738 1_545 S
Dy297 O300 2.298 . S
Dy297 O303 2.275 1_554 S
Dy297 O305 2.307 1_544 S
Dy297 O307 2.395 . S
Dy297 O308 2.379 . S
Dy297 O311 2.339 1_545 S
Dy297 C327 2.738 . S
C298 O310 1.254 . S
C298 O311 1.257 . S
O299 Dy296 2.307 1_554 S
O299 C309 1.266 . S
O300 Dy297 2.298 . S
O300 C309 1.236 . S
O301 Dy296 2.395 1_565 S
O301 C318 1.255 . S
O302 Dy296 2.379 1_565 S
O302 C318 1.249 . S
O303 Dy297 2.275 1_556 S
O303 C319 1.254 . S
O304 Dy296 2.339 . S
O304 C319 1.257 . S
O305 Dy297 2.307 1_566 S
O305 C320 1.266 . S
O306 Dy296 2.298 1_565 S
O306 C320 1.236 . S
O307 Dy297 2.395 . S
O307 C327 1.255 . S
O308 Dy297 2.379 . S
O308 C327 1.249 . S
C309 O299 1.266 . S
C309 O300 1.236 . S
O310 Dy296 2.275 1_564 S
O310 C298 1.254 . S
O311 Dy297 2.339 1_565 S
O311 C298 1.257 . S
C312 C315 1.344 . S
C312 C316 1.328 . S
C312 C318 1.516 . S
C313 C314 1.304 . S
C313 C317 1.323 . S
C314 C313 1.304 . S
C314 C315 1.371 . S
C314 H328 0.930 . S
C315 C312 1.344 . S
C315 C314 1.371 . S
C315 H329 0.931 . S
C316 C312 1.328 . S
C316 C317 1.433 . S
C316 H330 0.931 . S
C317 C313 1.323 . S
C317 C316 1.433 . S
C317 H331 0.933 . S
C318 Dy296 2.738 1_565 S
C318 O301 1.255 . S
C318 O302 1.249 . S
C318 C312 1.516 . S
C319 O303 1.254 . S
C319 O304 1.257 . S
C320 O305 1.266 . S
C320 O306 1.236 . S
C321 C324 1.344 . S
C321 C325 1.328 . S
C321 C327 1.516 . S
C322 C323 1.304 . S
C322 C326 1.323 . S
C323 C322 1.304 . S
C323 C324 1.371 . S
C323 H332 0.930 . S
C324 C321 1.344 . S
C324 C323 1.371 . S
C324 H333 0.931 . S
C325 C321 1.328 . S
C325 C326 1.433 . S
C325 H334 0.931 . S
C326 C322 1.323 . S
C326 C325 1.433 . S
C326 H335 0.933 . S
C327 Dy297 2.738 . S
C327 O307 1.255 . S
C327 O308 1.249 . S
C327 C321 1.516 . S
H328 C314 0.930 . S
H329 C315 0.931 . S
H330 C316 0.931 . S
H331 C317 0.933 . S
H332 C323 0.930 . S
H333 C324 0.931 . S
H334 C325 0.931 . S
H335 C326 0.933 . S
Dy336 O339 2.307 . S
Dy336 O341 2.395 . S
Dy336 O342 2.379 . S
Dy336 O344 2.339 . S
Dy336 O346 2.298 . S
Dy336 O350 2.275 . S
Dy336 C358 2.738 . S
Dy337 O340 2.298 . S
Dy337 O343 2.275 . S
Dy337 O345 2.307 . S
Dy337 O347 2.395 . S
Dy337 O348 2.379 . S
Dy337 O351 2.339 . S
Dy337 C367 2.738 . S
C338 O350 1.254 . S
C338 O351 1.257 . S
O339 Dy336 2.307 . S
O339 C349 1.266 . S
O340 Dy337 2.298 . S
O340 C349 1.236 . S
O341 Dy336 2.395 . S
O341 C358 1.255 . S
O342 Dy336 2.379 . S
O342 C358 1.249 . S
O343 Dy337 2.275 . S
O343 C359 1.254 . S
O344 Dy336 2.339 . S
O344 C359 1.257 . S
O345 Dy337 2.307 . S
O345 C360 1.266 . S
O346 Dy336 2.298 . S
O346 C360 1.236 . S
O347 Dy337 2.395 . S
O347 C367 1.255 . S
O348 Dy337 2.379 . S
O348 C367 1.249 . S
C349 O339 1.266 . S
C349 O340 1.236 . S
O350 Dy336 2.275 . S
O350 C338 1.254 . S
O351 Dy337 2.339 . S
O351 C338 1.257 . S
C352 C355 1.344 . S
C352 C356 1.328 . S
C352 C358 1.516 . S
C353 C354 1.304 . S
C353 C357 1.323 . S
C354 C353 1.304 . S
C354 C355 1.371 . S
C354 H368 0.930 . S
C355 C352 1.344 . S
C355 C354 1.371 . S
C355 H369 0.931 . S
C356 C352 1.328 . S
C356 C357 1.433 . S
C356 H370 0.931 . S
C357 C353 1.323 . S
C357 C356 1.433 . S
C357 H371 0.933 . S
C358 Dy336 2.738 . S
C358 O341 1.255 . S
C358 O342 1.249 . S
C358 C352 1.516 . S
C359 O343 1.254 . S
C359 O344 1.257 . S
C360 O345 1.266 . S
C360 O346 1.236 . S
C361 C364 1.344 . S
C361 C365 1.328 . S
C361 C367 1.516 . S
C362 C363 1.304 . S
C362 C366 1.323 . S
C363 C362 1.304 . S
C363 C364 1.371 . S
C363 H372 0.930 . S
C364 C361 1.344 . S
C364 C363 1.371 . S
C364 H373 0.931 . S
C365 C361 1.328 . S
C365 C366 1.433 . S
C365 H374 0.931 . S
C366 C362 1.323 . S
C366 C365 1.433 . S
C366 H375 0.933 . S
C367 Dy337 2.738 . S
C367 O347 1.255 . S
C367 O348 1.249 . S
C367 C361 1.516 . S
H368 C354 0.930 . S
H369 C355 0.931 . S
H370 C356 0.931 . S
H371 C357 0.933 . S
H372 C363 0.930 . S
H373 C364 0.931 . S
H374 C365 0.931 . S
H375 C366 0.933 . S
Dy376 O379 2.307 1_656 S
Dy376 O381 2.395 . S
Dy376 O382 2.379 . S
Dy376 O384 2.339 1_655 S
Dy376 O386 2.298 . S
Dy376 O390 2.275 1_556 S
Dy376 C398 2.738 . S
Dy377 O380 2.298 . S
Dy377 O383 2.275 1_554 S
Dy377 O385 2.307 1_455 S
Dy377 O387 2.395 . S
Dy377 O388 2.379 . S
Dy377 O391 2.339 1_455 S
Dy377 C407 2.738 . S
C378 O390 1.254 . S
C378 O391 1.257 . S
O379 Dy376 2.307 1_454 S
O379 C389 1.266 . S
O380 Dy377 2.298 . S
O380 C389 1.236 . S
O381 Dy376 2.395 . S
O381 C398 1.255 . S
O382 Dy376 2.379 . S
O382 C398 1.249 . S
O383 Dy377 2.275 1_556 S
O383 C399 1.254 . S
O384 Dy376 2.339 1_455 S
O384 C399 1.257 . S
O385 Dy377 2.307 1_655 S
O385 C400 1.266 1_554 S
O386 Dy376 2.298 . S
O386 C400 1.236 . S
O387 Dy377 2.395 . S
O387 C407 1.255 . S
O388 Dy377 2.379 . S
O388 C407 1.249 . S
C389 O379 1.266 . S
C389 O380 1.236 . S
O390 Dy376 2.275 1_554 S
O390 C378 1.254 . S
O391 Dy377 2.339 1_655 S
O391 C378 1.257 . S
C392 C395 1.344 . S
C392 C396 1.328 . S
C392 C398 1.516 . S
C393 C394 1.304 . S
C393 C397 1.323 . S
C394 C393 1.304 . S
C394 C395 1.371 . S
C394 H408 0.930 . S
C395 C392 1.344 . S
C395 C394 1.371 . S
C395 H409 0.931 . S
C396 C392 1.328 . S
C396 C397 1.433 . S
C396 H410 0.931 . S
C397 C393 1.323 . S
C397 C396 1.433 . S
C397 H411 0.933 . S
C398 Dy376 2.738 . S
C398 O381 1.255 . S
C398 O382 1.249 . S
C398 C392 1.516 . S
C399 O383 1.254 . S
C399 O384 1.257 . S
C400 O385 1.266 1_556 S
C400 O386 1.236 . S
C401 C404 1.344 . S
C401 C405 1.328 . S
C401 C407 1.516 . S
C402 C403 1.304 . S
C402 C406 1.323 . S
C403 C402 1.304 . S
C403 C404 1.371 . S
C403 H412 0.930 . S
C404 C401 1.344 . S
C404 C403 1.371 . S
C404 H413 0.931 . S
C405 C401 1.328 . S
C405 C406 1.433 . S
C405 H414 0.931 . S
C406 C402 1.323 . S
C406 C405 1.433 . S
C406 H415 0.933 . S
C407 Dy377 2.738 . S
C407 O387 1.255 . S
C407 O388 1.249 . S
C407 C401 1.516 . S
H408 C394 0.930 . S
H409 C395 0.931 . S
H410 C396 0.931 . S
H411 C397 0.933 . S
H412 C403 0.930 . S
H413 C404 0.931 . S
H414 C405 0.931 . S
H415 C406 0.933 . S
C29 C273 1.717 . S
C49 C313 1.273 . S
C338 C93 3.711 . S
C119 C378 3.554 . S
C309 C17 3.362 . S
C269 C61 2.858 1_455 S
C400 C81 2.488 . S
C360 C125 2.455 . S
C23 C402 3.080 . S
C319 C87 3.084 . S
C113 C279 3.136 . S
C55 C362 2.697 . S
C282 C157 1.429 . S
C189 C322 1.886 . S
C221 C359 3.693 . S
C253 C399 3.689 . S
C145 C320 2.917 . S
C280 C183 3.465 1_655 S
C389 C209 2.476 . S
C349 C247 2.453 . S
C151 C393 2.795 . S
C298 C215 3.185 . S
C258 C241 3.137 . S
C177 C353 3.108 . S
