# Generated by pormake.
# Topology pth, (4,4)-cn, num edge types: 1
# Building blocks:
#     Node 0, Type 0, BuildingBlock: GALJAG_clean_sbu_0, # of connection points: 4
#     Node 1, Type 0, BuildingBlock: GALJAG_clean_sbu_0, # of connection points: 4
#     Node 2, Type 0, BuildingBlock: GALJAG_clean_sbu_0, # of connection points: 4
#     Node 3, Type 1, BuildingBlock: NAHDIM_clean_linker_0, # of connection points: 4
#     Node 4, Type 1, BuildingBlock: NAHDIM_clean_linker_0, # of connection points: 4
#     Node 5, Type 1, BuildingBlock: NAHDIM_clean_linker_0, # of connection points: 4
#     Edge 6, Type (0, 1), BuildingBlock: UVAHIK_clean_linker_0, # of connection points: 2
#     Edge 7, Type (0, 1), BuildingBlock: UVAHIK_clean_linker_0, # of connection points: 2
#     Edge 8, Type (0, 1), BuildingBlock: UVAHIK_clean_linker_0, # of connection points: 2
#     Edge 9, Type (0, 1), BuildingBlock: UVAHIK_clean_linker_0, # of connection points: 2
#     Edge 10, Type (0, 1), BuildingBlock: UVAHIK_clean_linker_0, # of connection points: 2
#     Edge 11, Type (0, 1), BuildingBlock: UVAHIK_clean_linker_0, # of connection points: 2
#     Edge 12, Type (0, 1), BuildingBlock: UVAHIK_clean_linker_0, # of connection points: 2
#     Edge 13, Type (0, 1), BuildingBlock: UVAHIK_clean_linker_0, # of connection points: 2
#     Edge 14, Type (0, 1), BuildingBlock: UVAHIK_clean_linker_0, # of connection points: 2
#     Edge 15, Type (0, 1), BuildingBlock: UVAHIK_clean_linker_0, # of connection points: 2
#     Edge 16, Type (0, 1), BuildingBlock: UVAHIK_clean_linker_0, # of connection points: 2
#     Edge 17, Type (0, 1), BuildingBlock: UVAHIK_clean_linker_0, # of connection points: 2
# Relax obj value: 0.024
# Max RMSD: 0.067
# Mean RMSD: 0.066
data_MOF--net-pth--node1-GALJAG_clean_sbu_0--node2-NAHDIM_clean_linker_0--edge1-UVAHIK_clean_linker_0
_symmetry_space_group_name_H-M    P1
_symmetry_Int_Tables_number       1
_symmetry_cell_setting            triclinic
loop_
_symmetry_equiv_pos_as_xyz
'x, y, z'
_cell_length_a     39.275611
_cell_length_b     39.243956
_cell_length_c     95.49959
_cell_angle_alpha  89.907033
_cell_angle_beta   90.741057
_cell_angle_gamma 120.01907
loop_
_atom_site_label
_atom_site_type_symbol
_atom_site_fract_x
_atom_site_fract_y
_atom_site_fract_z
_atom_type_partial_charge
In0 In 0.01756 0.04248 0.03761 0.0
O1 O 0.98811 0.07342 0.04818 0.0
O2 O 0.03842 0.07686 0.05805 0.0
C3 C 0.9554 0.00541 0.01993 0.0
C4 C 0.07673 0.0934 0.02133 0.0
C5 C 0.02522 0.98467 0.05013 0.0
O6 O 0.95181 0.00382 0.03307 0.0
O7 O 0.99013 0.02657 0.01573 0.0
O8 O 0.05377 0.01918 0.04892 0.0
O9 O 0.99347 0.97934 0.04481 0.0
C10 C 0.01241 0.08664 0.05827 0.0
O11 O 0.05541 0.10275 0.02822 0.0
O12 O 0.06804 0.05785 0.02249 0.0
In13 In 0.02522 0.04855 0.37621 0.0
O14 O 0.05612 0.11169 0.36783 0.0
O15 O 0.00671 0.06757 0.35654 0.0
C16 C 0.07771 0.04944 0.39483 0.0
C17 C 0.97043 0.04885 0.39285 0.0
C18 C 0.01839 0.98993 0.35971 0.0
O19 O 0.08762 0.07511 0.38535 0.0
O20 O 0.04158 0.02409 0.39494 0.0
O21 O 0.98925 0.98823 0.36584 0.0
O22 O 0.05068 0.0212 0.36185 0.0
C23 C 0.03284 0.10332 0.3575 0.0
O24 O 0.96352 0.01914 0.38558 0.0
O25 O 0.00473 0.07783 0.39174 0.0
In26 In 0.01228 0.03521 0.70736 0.0
O27 O 0.98764 0.97771 0.71943 0.0
O28 O 0.95737 0.00987 0.72077 0.0
C29 C 0.0619 0.02441 0.69093 0.0
C30 C 0.96942 0.04982 0.68851 0.0
C31 C 0.05816 0.08821 0.72703 0.0
O32 O 0.02886 0.9964 0.69445 0.0
O33 O 0.06966 0.05748 0.69563 0.0
O34 O 0.04282 0.09701 0.71699 0.0
O35 O 0.04994 0.05277 0.7272 0.0
C36 C 0.95908 0.9798 0.72439 0.0
O37 O 0.99697 0.07664 0.69567 0.0
O38 O 0.96352 0.01566 0.69081 0.0
C39 C 0.94827 0.61141 0.30061 0.0
C40 C 0.97897 0.64535 0.29183 0.0
C41 C 0.98195 0.62714 0.26774 0.0
C42 C 0.02256 0.64198 0.26656 0.0
C43 C 0.03715 0.62634 0.25665 0.0
C44 C 0.01055 0.59541 0.24774 0.0
C45 C 0.96974 0.58199 0.2484 0.0
C46 C 0.95607 0.59853 0.25829 0.0
C47 C 0.08087 0.64212 0.25593 0.0
C48 C 0.94038 0.54914 0.23904 0.0
C49 C 0.00744 0.33104 0.27798 0.0
C50 C 0.00181 0.35551 0.26734 0.0
C51 C 0.0354 0.4221 0.25799 0.0
C52 C 0.00168 0.41836 0.2512 0.0
C53 C 0.00267 0.45039 0.24435 0.0
C54 C 0.03814 0.48695 0.24419 0.0
C55 C 0.07224 0.49085 0.25089 0.0
C56 C 0.07041 0.45824 0.2577 0.0
C57 C 0.96562 0.44522 0.23738 0.0
C58 C 0.11045 0.52947 0.25085 0.0
C59 C 0.05092 0.4415 0.15723 0.0
C60 C 0.01428 0.43789 0.16005 0.0
C61 C 0.01183 0.46902 0.16616 0.0
C62 C 0.04675 0.50474 0.16928 0.0
C63 C 0.08354 0.50956 0.16539 0.0
C64 C 0.08513 0.47779 0.15934 0.0
C65 C 0.97196 0.46326 0.16972 0.0
C66 C 0.12122 0.54755 0.16831 0.0
C67 C 0.97148 0.73828 0.17048 0.0
C68 C 0.99752 0.72973 0.16104 0.0
C69 C 0.99283 0.66514 0.16256 0.0
C70 C 0.96527 0.62638 0.16587 0.0
C71 C 0.97716 0.60038 0.17093 0.0
C72 C 0.01777 0.61353 0.17251 0.0
C73 C 0.04589 0.65199 0.16833 0.0
C74 C 0.03312 0.67744 0.1633 0.0
C75 C 0.94632 0.55933 0.17508 0.0
C76 C 0.08934 0.66652 0.16961 0.0
C77 C 0.02479 0.57447 0.23874 0.0
C78 C 0.03015 0.5453 0.24504 0.0
C79 C 0.03899 0.52098 0.2371 0.0
C80 C 0.04337 0.52615 0.22247 0.0
C81 C 0.05181 0.50182 0.21418 0.0
C82 C 0.05312 0.50513 0.19968 0.0
C83 C 0.04624 0.53304 0.19291 0.0
C84 C 0.04481 0.53477 0.17813 0.0
C85 C 0.0371 0.56233 0.17172 0.0
C86 C 0.03046 0.58819 0.17974 0.0
C87 C 0.03203 0.58706 0.19454 0.0
C88 C 0.02532 0.61257 0.20291 0.0
C89 C 0.02398 0.60925 0.21743 0.0
C90 C 0.02913 0.5802 0.22411 0.0
C91 C 0.03792 0.55554 0.21593 0.0
C92 C 0.03936 0.55898 0.20112 0.0
C93 C 0.05233 0.36926 0.17149 0.0
C94 C 0.03314 0.37252 0.15785 0.0
O95 O 0.96686 0.63955 0.27792 0.0
O96 O 0.97927 0.68951 0.15866 0.0
O97 O 0.05424 0.41052 0.15267 0.0
O98 O 0.03503 0.39176 0.26504 0.0
H99 H 0.00681 0.6447 0.29328 0.0
H100 H 0.94638 0.58339 0.29728 0.0
H101 H 0.9187 0.60827 0.29922 0.0
H102 H 0.95678 0.61635 0.31188 0.0
H103 H 0.04284 0.66556 0.27344 0.0
H104 H 0.92485 0.58792 0.25913 0.0
H105 H 0.08767 0.61959 0.25995 0.0
H106 H 0.09792 0.66946 0.26223 0.0
H107 H 0.09063 0.64823 0.24489 0.0
H108 H 0.90953 0.54052 0.24149 0.0
H109 H 0.9439 0.52291 0.24013 0.0
H110 H 0.94586 0.55854 0.22794 0.0
H111 H 0.98703 0.33977 0.25741 0.0
H112 H 0.97017 0.327 0.29422 0.0
H113 H 0.04017 0.3442 0.27949 0.0
H114 H 0.00348 0.3045 0.27204 0.0
H115 H 0.97435 0.39057 0.25125 0.0
H116 H 0.09628 0.4609 0.26295 0.0
H117 H 0.97054 0.45128 0.22601 0.0
H118 H 0.95801 0.46663 0.24183 0.0
H119 H 0.94019 0.41507 0.23871 0.0
H120 H 0.13468 0.52744 0.25618 0.0
H121 H 0.1065 0.55234 0.25619 0.0
H122 H 0.11905 0.53922 0.23989 0.0
H123 H 0.0027 0.36492 0.16049 0.0
H124 H 0.98747 0.41075 0.15761 0.0
H125 H 0.11325 0.4806 0.15682 0.0
H126 H 0.97048 0.46763 0.18113 0.0
H127 H 0.94763 0.43352 0.16676 0.0
H128 H 0.96745 0.48557 0.16417 0.0
H129 H 0.14688 0.54826 0.16326 0.0
H130 H 0.12675 0.55122 0.17979 0.0
H131 H 0.11852 0.57289 0.16453 0.0
H132 H 0.02603 0.74076 0.16674 0.0
H133 H 0.98541 0.77041 0.17253 0.0
H134 H 0.96752 0.72312 0.18067 0.0
H135 H 0.94204 0.7276 0.16556 0.0
H136 H 0.93426 0.61697 0.16495 0.0
H137 H 0.05465 0.7068 0.16002 0.0
H138 H 0.94801 0.55575 0.18655 0.0
H139 H 0.9519 0.5374 0.16985 0.0
H140 H 0.91608 0.5528 0.17229 0.0
H141 H 0.10749 0.69654 0.16526 0.0
H142 H 0.0964 0.64604 0.16404 0.0
H143 H 0.09749 0.66695 0.18081 0.0
H144 H 0.02554 0.54022 0.25621 0.0
H145 H 0.05685 0.47948 0.2188 0.0
H146 H 0.05905 0.48506 0.19387 0.0
H147 H 0.03473 0.56261 0.16039 0.0
H148 H 0.02042 0.63504 0.19834 0.0
H149 H 0.01813 0.62924 0.22335 0.0
H150 H 0.037 0.33838 0.17527 0.0
H151 H 0.05019 0.3881 0.1797 0.0
H152 H 0.08393 0.37916 0.17001 0.0
C153 C 0.37391 0.96298 0.63355 0.0
C154 C 0.36718 0.98948 0.62347 0.0
C155 C 0.38979 0.98926 0.60004 0.0
C156 C 0.4095 0.02942 0.59677 0.0
C157 C 0.44065 0.04499 0.5873 0.0
C158 C 0.45241 0.01983 0.5811 0.0
C159 C 0.43132 0.97896 0.58393 0.0
C160 C 0.39974 0.9641 0.59323 0.0
C161 C 0.46176 0.0885 0.58424 0.0
C162 C 0.44317 0.95126 0.57761 0.0
C163 C 0.683 0.15044 0.63688 0.0
C164 C 0.68234 0.12244 0.62561 0.0
C165 C 0.65802 0.12212 0.60206 0.0
C166 C 0.63945 0.08162 0.59922 0.0
C167 C 0.60893 0.06426 0.58922 0.0
C168 C 0.59677 0.08796 0.582 0.0
C169 C 0.61696 0.12915 0.58431 0.0
C170 C 0.64784 0.14579 0.5942 0.0
C171 C 0.5888 0.02044 0.58671 0.0
C172 C 0.60473 0.15532 0.57683 0.0
C173 C 0.67052 0.10164 0.49331 0.0
C174 C 0.64876 0.0625 0.49783 0.0
C175 C 0.61221 0.04862 0.50423 0.0
C176 C 0.59724 0.07444 0.5061 0.0
C177 C 0.61831 0.11334 0.50096 0.0
C178 C 0.65459 0.12631 0.49449 0.0
C179 C 0.58986 0.00659 0.5092 0.0
C180 C 0.60297 0.14147 0.50265 0.0
C181 C 0.27639 0.93726 0.49841 0.0
C182 C 0.31091 0.97502 0.4927 0.0
C183 C 0.37711 0.98438 0.49292 0.0
C184 C 0.39477 0.96136 0.49465 0.0
C185 C 0.43225 0.97707 0.50084 0.0
C186 C 0.45268 0.01702 0.50508 0.0
C187 C 0.43615 0.04123 0.50235 0.0
C188 C 0.39839 0.02459 0.49632 0.0
C189 C 0.4493 0.95062 0.50341 0.0
C190 C 0.45781 0.08431 0.50627 0.0
C191 C 0.48893 0.03674 0.57279 0.0
C192 C 0.52463 0.05368 0.58017 0.0
C193 C 0.56041 0.06925 0.57325 0.0
C194 C 0.56082 0.06732 0.55849 0.0
C195 C 0.59619 0.08137 0.5512 0.0
C196 C 0.59622 0.07944 0.53665 0.0
C197 C 0.56088 0.0635 0.52883 0.0
C198 C 0.56057 0.06132 0.51404 0.0
C199 C 0.52504 0.04618 0.50657 0.0
C200 C 0.48947 0.03253 0.51352 0.0
C201 C 0.48905 0.03354 0.52832 0.0
C202 C 0.45362 0.01913 0.53565 0.0
C203 C 0.45348 0.02027 0.55021 0.0
C204 C 0.48874 0.03578 0.558 0.0
C205 C 0.52483 0.05081 0.55083 0.0
C206 C 0.52493 0.04931 0.53598 0.0
C207 C 0.77047 0.14576 0.49791 0.0
C208 C 0.73562 0.10817 0.49193 0.0
O209 O 0.36177 0.97438 0.60999 0.0
O210 O 0.33945 0.96686 0.4881 0.0
O211 O 0.70665 0.11642 0.48763 0.0
O212 O 0.68505 0.13898 0.61254 0.0
H213 H 0.39404 0.01915 0.62417 0.0
H214 H 0.40095 0.96252 0.6306 0.0
H215 H 0.34875 0.93233 0.63315 0.0
H216 H 0.3778 0.97437 0.64444 0.0
H217 H 0.40078 0.04859 0.60177 0.0
H218 H 0.38389 0.93304 0.59574 0.0
H219 H 0.49131 0.10279 0.58933 0.0
H220 H 0.44552 0.10289 0.58818 0.0
H221 H 0.46601 0.09356 0.57279 0.0
H222 H 0.4249 0.92062 0.58141 0.0
H223 H 0.4745 0.9615 0.58018 0.0
H224 H 0.44025 0.95116 0.56604 0.0
H225 H 0.65363 0.09468 0.62671 0.0
H226 H 0.68141 0.13796 0.64747 0.0
H227 H 0.65722 0.15462 0.63541 0.0
H228 H 0.71015 0.17968 0.63626 0.0
H229 H 0.64842 0.0635 0.60496 0.0
H230 H 0.66286 0.17713 0.59635 0.0
H231 H 0.58558 0.01399 0.57529 0.0
H232 H 0.55884 0.00622 0.59117 0.0
H233 H 0.60517 0.00711 0.59161 0.0
H234 H 0.62306 0.1867 0.57999 0.0
H235 H 0.57349 0.14547 0.57908 0.0
H236 H 0.60712 0.15297 0.56535 0.0
H237 H 0.72503 0.08604 0.50048 0.0
H238 H 0.66018 0.04275 0.49633 0.0
H239 H 0.67134 0.15624 0.4907 0.0
H240 H 0.58804 0.0062 0.5208 0.0
H241 H 0.60401 0.98942 0.50603 0.0
H242 H 0.55931 0.99187 0.50494 0.0
H243 H 0.62287 0.17077 0.49805 0.0
H244 H 0.59936 0.14537 0.51395 0.0
H245 H 0.57356 0.129 0.49753 0.0
H246 H 0.3223 0.99657 0.50153 0.0
H247 H 0.25315 0.94304 0.50226 0.0
H248 H 0.28664 0.92625 0.5073 0.0
H249 H 0.26358 0.91405 0.49017 0.0
H250 H 0.37831 0.93053 0.4917 0.0
H251 H 0.38536 0.04286 0.4944 0.0
H252 H 0.45418 0.94912 0.51482 0.0
H253 H 0.47831 0.96308 0.49829 0.0
H254 H 0.42983 0.92029 0.49936 0.0
H255 H 0.44326 0.10011 0.50189 0.0
H256 H 0.48851 0.0986 0.50247 0.0
H257 H 0.45917 0.08735 0.51785 0.0
H258 H 0.52456 0.05479 0.59153 0.0
H259 H 0.62422 0.09391 0.55669 0.0
H260 H 0.62436 0.09073 0.53162 0.0
H261 H 0.52507 0.0449 0.49522 0.0
H262 H 0.4255 0.00668 0.53024 0.0
H263 H 0.42539 0.00884 0.55529 0.0
H264 H 0.79401 0.13995 0.50163 0.0
H265 H 0.76077 0.15644 0.50694 0.0
H266 H 0.78269 0.16922 0.48985 0.0
C267 C 0.65273 0.61122 0.78665 0.0
C268 C 0.65734 0.64475 0.79613 0.0
C269 C 0.63744 0.623 0.81991 0.0
C270 C 0.61283 0.63854 0.82254 0.0
C271 C 0.58238 0.62068 0.83225 0.0
C272 C 0.57657 0.58665 0.83943 0.0
C273 C 0.60271 0.57219 0.83731 0.0
C274 C 0.63324 0.59098 0.82767 0.0
C275 C 0.55567 0.63743 0.83452 0.0
C276 C 0.5974 0.53597 0.84477 0.0
C277 C 0.30674 0.32303 0.80886 0.0
C278 C 0.33828 0.34885 0.81898 0.0
C279 C 0.37472 0.41667 0.8273 0.0
C280 C 0.40361 0.41175 0.83438 0.0
C281 C 0.43537 0.44338 0.84124 0.0
C282 C 0.43846 0.48085 0.8411 0.0
C283 C 0.40961 0.48611 0.834 0.0
C284 C 0.37799 0.45383 0.82719 0.0
C285 C 0.46566 0.43665 0.8487 0.0
C286 C 0.41212 0.52572 0.83373 0.0
C287 C 0.36096 0.453 0.92606 0.0
C288 C 0.38599 0.43824 0.92296 0.0
C289 C 0.42386 0.46316 0.91786 0.0
C290 C 0.43664 0.5035 0.91574 0.0
C291 C 0.41254 0.5189 0.91988 0.0
C292 C 0.37502 0.49338 0.92515 0.0
C293 C 0.44939 0.446 0.91405 0.0
C294 C 0.42557 0.56187 0.918 0.0
C295 C 0.75703 0.68265 0.92601 0.0
C296 C 0.72309 0.69064 0.92802 0.0
C297 C 0.65489 0.63832 0.92843 0.0
C298 C 0.63538 0.59734 0.92777 0.0
C299 C 0.59848 0.57607 0.92114 0.0
C300 C 0.5802 0.59648 0.91553 0.0
C301 C 0.59868 0.63786 0.91712 0.0
C302 C 0.63621 0.65847 0.92338 0.0
C303 C 0.57957 0.53193 0.91983 0.0
C304 C 0.57924 0.66038 0.9119 0.0
C305 C 0.54111 0.56423 0.8481 0.0
C306 C 0.50637 0.53709 0.8412 0.0
C307 C 0.47188 0.51406 0.84859 0.0
C308 C 0.47135 0.51922 0.8632 0.0
C309 C 0.43662 0.49776 0.87081 0.0
C310 C 0.43673 0.50147 0.88527 0.0
C311 C 0.47178 0.52609 0.89273 0.0
C312 C 0.47258 0.52812 0.90753 0.0
C313 C 0.50796 0.55233 0.91464 0.0
C314 C 0.54295 0.57459 0.90735 0.0
C315 C 0.54264 0.57334 0.89251 0.0
C316 C 0.5772 0.59541 0.88479 0.0
C317 C 0.57661 0.5934 0.87023 0.0
C318 C 0.54173 0.56821 0.86284 0.0
C319 C 0.50659 0.54572 0.87039 0.0
C320 C 0.50694 0.54871 0.88522 0.0
C321 C 0.26117 0.39033 0.91823 0.0
C322 C 0.29821 0.39179 0.92418 0.0
O323 O 0.66489 0.63792 0.80976 0.0
O324 O 0.69185 0.65768 0.93389 0.0
O325 O 0.32294 0.42905 0.92967 0.0
O326 O 0.34372 0.38644 0.82043 0.0
H327 H 0.62898 0.64469 0.79538 0.0
H328 H 0.62706 0.58305 0.79002 0.0
H329 H 0.6793 0.60808 0.78722 0.0
H330 H 0.64761 0.61671 0.77561 0.0
H331 H 0.61716 0.66434 0.81689 0.0
H332 H 0.65286 0.57966 0.82567 0.0
H333 H 0.52586 0.61658 0.83031 0.0
H334 H 0.56655 0.6663 0.82929 0.0
H335 H 0.55286 0.64109 0.8459 0.0
H336 H 0.62049 0.52874 0.84206 0.0
H337 H 0.56821 0.51045 0.84199 0.0
H338 H 0.59813 0.54038 0.85627 0.0
H339 H 0.33732 0.33482 0.82926 0.0
H340 H 0.33745 0.31359 0.79294 0.0
H341 H 0.28833 0.33729 0.80693 0.0
H342 H 0.28394 0.29837 0.81534 0.0
H343 H 0.40169 0.38329 0.83462 0.0
H344 H 0.35568 0.45748 0.82172 0.0
H345 H 0.46578 0.44252 0.86007 0.0
H346 H 0.49542 0.45739 0.84471 0.0
H347 H 0.45995 0.40612 0.84731 0.0
H348 H 0.38713 0.52497 0.82787 0.0
H349 H 0.44006 0.54764 0.8288 0.0
H350 H 0.41249 0.53585 0.84461 0.0
H351 H 0.31228 0.38552 0.91525 0.0
H352 H 0.37572 0.40717 0.92427 0.0
H353 H 0.3557 0.50454 0.92789 0.0
H354 H 0.45043 0.44421 0.90248 0.0
H355 H 0.43804 0.416 0.91839 0.0
H356 H 0.47995 0.46528 0.91796 0.0
H357 H 0.4041 0.56957 0.92229 0.0
H358 H 0.42939 0.5692 0.90669 0.0
H359 H 0.45449 0.58031 0.92329 0.0
H360 H 0.71475 0.69636 0.91742 0.0
H361 H 0.78232 0.70832 0.92105 0.0
H362 H 0.74736 0.65662 0.91908 0.0
H363 H 0.7668 0.67665 0.93623 0.0
H364 H 0.64996 0.58217 0.93193 0.0
H365 H 0.65102 0.69023 0.92434 0.0
H366 H 0.57119 0.52266 0.90874 0.0
H367 H 0.5523 0.51767 0.92607 0.0
H368 H 0.59928 0.52104 0.92359 0.0
H369 H 0.59415 0.69102 0.91602 0.0
H370 H 0.54787 0.64525 0.91499 0.0
H371 H 0.58012 0.66156 0.9003 0.0
H372 H 0.50654 0.53283 0.82998 0.0
H373 H 0.40893 0.47784 0.86566 0.0
H374 H 0.40901 0.4842 0.89053 0.0
H375 H 0.50845 0.55308 0.926 0.0
H376 H 0.60518 0.61453 0.8899 0.0
H377 H 0.60403 0.61117 0.86484 0.0
H378 H 0.24564 0.39692 0.92651 0.0
H379 H 0.24088 0.36077 0.9137 0.0
H380 H 0.26928 0.41249 0.90979 0.0
C381 C 0.98001 0.11934 0.07036 0.0
C382 C 0.01234 0.11364 0.06899 0.0
C383 C 0.98108 0.14637 0.08015 0.0
C384 C 0.03723 0.20555 0.11152 0.0
H385 H 0.98804 0.26713 0.10187 0.0
C386 C 0.06504 0.34378 0.14249 0.0
C387 C 0.03092 0.34357 0.14692 0.0
C388 C 0.06239 0.31571 0.13287 0.0
C389 C 0.00175 0.24998 0.1047 0.0
H390 H 0.07117 0.13169 0.07668 0.0
H391 H 0.07372 0.17968 0.0933 0.0
H392 H 0.98369 0.2174 0.0855 0.0
H393 H 0.96763 0.31521 0.14415 0.0
H394 H 0.9632 0.26673 0.1271 0.0
H395 H 0.05628 0.23926 0.13054 0.0
C396 C 0.04697 0.16261 0.08721 0.0
C397 C 0.99905 0.22127 0.09538 0.0
C398 C 0.04563 0.13522 0.0776 0.0
C399 C 0.99436 0.31581 0.14106 0.0
C400 C 0.99181 0.2882 0.13128 0.0
C401 C 0.04044 0.23468 0.12071 0.0
C402 C 0.01476 0.16867 0.08861 0.0
C403 C 0.01678 0.19865 0.09866 0.0
C404 C 0.02572 0.28756 0.12725 0.0
C405 C 0.02271 0.25712 0.11739 0.0
H406 H 0.95391 0.10295 0.06388 0.0
H407 H 0.95543 0.14965 0.08109 0.0
H408 H 0.05055 0.18823 0.11457 0.0
H409 H 0.09369 0.36534 0.14658 0.0
H410 H 0.08902 0.31611 0.12976 0.0
C411 C 0.95115 0.08435 0.40972 0.0
C412 C 0.94089 0.05025 0.40187 0.0
C413 C 0.92355 0.08649 0.41813 0.0
C414 C 0.83041 0.02607 0.43645 0.0
H415 H 0.8323 0.12567 0.4386 0.0
C416 C 0.76436 0.06826 0.48233 0.0
C417 C 0.74888 0.09315 0.47978 0.0
C418 C 0.78152 0.05825 0.47155 0.0
C419 C 0.83076 0.09738 0.43799 0.0
H420 H 0.89369 0.99149 0.39673 0.0
H421 H 0.84506 0.99533 0.41144 0.0
H422 H 0.87388 0.11754 0.42195 0.0
H423 H 0.73888 0.12676 0.46385 0.0
H424 H 0.7675 0.10821 0.44493 0.0
H425 H 0.78701 0.00589 0.45248 0.0
C426 C 0.87465 0.02029 0.41113 0.0
C427 C 0.8551 0.09292 0.42857 0.0
C428 C 0.90241 0.01814 0.40268 0.0
C429 C 0.75004 0.10706 0.46612 0.0
C430 C 0.76685 0.09676 0.45531 0.0
C431 C 0.80586 0.03048 0.44587 0.0
C432 C 0.88491 0.05464 0.41889 0.0
C433 C 0.85592 0.05758 0.4279 0.0
C434 C 0.78366 0.073 0.45795 0.0
C435 C 0.80632 0.06647 0.44695 0.0
H436 H 0.98062 0.10952 0.40938 0.0
H437 H 0.93269 0.11307 0.42419 0.0
H438 H 0.8304 0.99848 0.43622 0.0
H439 H 0.76445 0.0577 0.49281 0.0
H440 H 0.79472 0.04045 0.47405 0.0
C441 C 0.89477 0.94899 0.73676 0.0
C442 C 0.92961 0.94909 0.73352 0.0
C443 C 0.86614 0.91899 0.74493 0.0
C444 C 0.84995 0.84223 0.77047 0.0
H445 H 0.74293 0.78971 0.75595 0.0
C446 C 0.72933 0.69189 0.79118 0.0
C447 C 0.69025 0.68397 0.79116 0.0
C448 C 0.7591 0.72679 0.78545 0.0
C449 C 0.77246 0.80444 0.76034 0.0
H450 H 0.96233 0.91857 0.73658 0.0
H451 H 0.9124 0.86631 0.75096 0.0
H452 H 0.79389 0.84632 0.74369 0.0
H453 H 0.65205 0.70721 0.7858 0.0
H454 H 0.70407 0.76864 0.77623 0.0
H455 H 0.82857 0.80052 0.78717 0.0
C456 C 0.90726 0.88942 0.74717 0.0
C457 C 0.80169 0.83684 0.75326 0.0
C458 C 0.9357 0.91917 0.73888 0.0
C459 C 0.68185 0.71237 0.78584 0.0
C460 C 0.71164 0.74743 0.78025 0.0
C461 C 0.8206 0.81003 0.77765 0.0
C462 C 0.872 0.88879 0.75014 0.0
C463 C 0.84079 0.85581 0.75816 0.0
C464 C 0.75052 0.75475 0.77971 0.0
C465 C 0.78153 0.79046 0.77259 0.0
H466 H 0.88932 0.97173 0.7328 0.0
H467 H 0.83936 0.91938 0.74715 0.0
H468 H 0.87981 0.85661 0.77456 0.0
H469 H 0.73664 0.67058 0.7953 0.0
H470 H 0.78857 0.73117 0.78511 0.0
C471 C 0.99501 0.91541 0.05837 0.0
C472 C 0.02731 0.95386 0.05833 0.0
C473 C 0.99427 0.88738 0.06756 0.0
C474 C 0.05469 0.86548 0.09222 0.0
H475 H 0.95587 0.80731 0.11169 0.0
C476 C 0.03849 0.78716 0.14516 0.0
C477 C 0.00395 0.75106 0.1473 0.0
C478 C 0.04301 0.80874 0.13298 0.0
C479 C 0.98348 0.82276 0.10621 0.0
H480 H 0.08505 0.99267 0.06731 0.0
H481 H 0.08352 0.94384 0.08358 0.0
H482 H 0.96123 0.85029 0.09251 0.0
H483 H 0.94708 0.70915 0.13839 0.0
H484 H 0.95516 0.74646 0.11701 0.0
H485 H 0.07706 0.83841 0.10626 0.0
C486 C 0.05894 0.93518 0.0764 0.0
C487 C 0.98656 0.84742 0.09519 0.0
C488 C 0.05979 0.96321 0.06712 0.0
C489 C 0.9742 0.73669 0.13693 0.0
C490 C 0.97871 0.75821 0.12477 0.0
C491 C 0.0516 0.84076 0.1033 0.0
C492 C 0.02567 0.89728 0.07698 0.0
C493 C 0.02224 0.86928 0.08811 0.0
C494 C 0.0129 0.79476 0.12275 0.0
C495 C 0.016 0.81934 0.11047 0.0
H496 H 0.96971 0.90726 0.0516 0.0
H497 H 0.96858 0.8582 0.06753 0.0
H498 H 0.08246 0.88164 0.08688 0.0
H499 H 0.06161 0.79912 0.15308 0.0
H500 H 0.06944 0.83705 0.13183 0.0
C501 C 0.14658 0.07484 0.40391 0.0
C502 C 0.10613 0.04754 0.40461 0.0
C503 C 0.17333 0.07104 0.41268 0.0
C504 C 0.18272 0.996 0.43271 0.0
H505 H 0.26711 0.08398 0.45292 0.0
C506 C 0.2903 0.97409 0.46737 0.0
C507 C 0.297 0.9908 0.48084 0.0
C508 C 0.27273 0.98527 0.45692 0.0
C509 C 0.24369 0.05916 0.44732 0.0
H510 H 0.06185 0.99564 0.41528 0.0
H511 H 0.10829 0.98917 0.43055 0.0
H512 H 0.22394 0.09514 0.43718 0.0
H513 H 0.29098 0.03253 0.49388 0.0
H514 H 0.25987 0.05184 0.47565 0.0
H515 H 0.20132 0.95974 0.44308 0.0
C516 C 0.11949 0.01314 0.42312 0.0
C517 C 0.21922 0.0656 0.43824 0.0
C518 C 0.09286 0.01701 0.41443 0.0
C519 C 0.28664 0.01961 0.48353 0.0
C520 C 0.26899 0.03075 0.47308 0.0
C521 C 0.20716 0.98959 0.44171 0.0
C522 C 0.16004 0.03973 0.42221 0.0
C523 C 0.18804 0.03392 0.43105 0.0
C524 C 0.26105 0.01307 0.45974 0.0
C525 C 0.2376 0.02096 0.44927 0.0
H526 H 0.15761 0.09869 0.39643 0.0
H527 H 0.20444 0.09191 0.41174 0.0
H528 H 0.15929 0.97108 0.42715 0.0
H529 H 0.29758 0.95149 0.46506 0.0
H530 H 0.26741 0.97143 0.4467 0.0
C531 C 0.0973 0.10495 0.74924 0.0
C532 C 0.08588 0.11747 0.73721 0.0
C533 C 0.1266 0.13228 0.75818 0.0
C534 C 0.18665 0.239 0.7669 0.0
H535 H 0.26132 0.20802 0.77963 0.0
C536 C 0.35094 0.36827 0.79326 0.0
C537 C 0.36274 0.34696 0.8088 0.0
C538 C 0.30679 0.33409 0.78385 0.0
C539 C 0.24046 0.21697 0.7764 0.0
H540 H 0.09487 0.1684 0.72536 0.0
H541 H 0.14697 0.21627 0.74078 0.0
H542 H 0.20422 0.16221 0.76597 0.0
H543 H 0.35504 0.28222 0.81904 0.0
H544 H 0.28663 0.23065 0.80245 0.0
H545 H 0.22402 0.29437 0.77713 0.0
C546 C 0.13286 0.18537 0.74346 0.0
C547 C 0.2076 0.19062 0.76854 0.0
C548 C 0.10315 0.15796 0.73459 0.0
C549 C 0.34521 0.29362 0.81055 0.0
C550 C 0.30146 0.262 0.8006 0.0
C551 C 0.21987 0.26556 0.77472 0.0
C552 C 0.14558 0.17275 0.75518 0.0
C553 C 0.18011 0.20113 0.76375 0.0
C554 C 0.28195 0.2821 0.78784 0.0
C555 C 0.24688 0.2546 0.77959 0.0
H556 H 0.08413 0.07392 0.75162 0.0
H557 H 0.13492 0.12158 0.76731 0.0
H558 H 0.16594 0.24796 0.76346 0.0
H559 H 0.36452 0.39969 0.79171 0.0
H560 H 0.29544 0.34485 0.77565 0.0
C561 C 0.95707 0.09617 0.67432 0.0
C562 C 0.94488 0.05763 0.67868 0.0
C563 C 0.93271 0.1039 0.66572 0.0
C564 C 0.84087 0.05536 0.64368 0.0
H565 H 0.8368 0.14929 0.65315 0.0
C566 C 0.70813 0.07706 0.63232 0.0
C567 C 0.71581 0.11436 0.62788 0.0
C568 C 0.73904 0.07055 0.63584 0.0
C569 C 0.83801 0.12327 0.65021 0.0
H570 H 0.89816 0.99682 0.67728 0.0
H571 H 0.85491 0.01036 0.66278 0.0
H572 H 0.8855 0.13731 0.66448 0.0
H573 H 0.76172 0.17357 0.623 0.0
H574 H 0.8159 0.16237 0.6294 0.0
H575 H 0.79174 0.04058 0.62993 0.0
C576 C 0.88367 0.0346 0.66561 0.0
C577 C 0.86606 0.11639 0.65668 0.0
C578 C 0.90833 0.02682 0.67403 0.0
C579 C 0.75503 0.14463 0.6265 0.0
C580 C 0.78594 0.13824 0.63017 0.0
C581 C 0.81245 0.06203 0.63734 0.0
C582 C 0.8953 0.07335 0.66151 0.0
C583 C 0.86756 0.08209 0.65365 0.0
C584 C 0.7782 0.10135 0.63512 0.0
C585 C 0.81048 0.09583 0.64068 0.0
H586 H 0.98534 0.12042 0.67763 0.0
H587 H 0.94308 0.13396 0.66252 0.0
H588 H 0.84161 0.02902 0.64087 0.0
H589 H 0.67818 0.05321 0.63347 0.0
H590 H 0.73223 0.04191 0.63974 0.0
C591 C 0.88968 0.9464 0.01517 0.0
C592 C 0.9226 0.98062 0.01028 0.0
C593 C 0.86187 0.91926 0.00572 0.0
C594 C 0.85573 0.88911 0.96866 0.0
H595 H 0.74723 0.81576 0.97791 0.0
C596 C 0.7542 0.76402 0.93115 0.0
C597 C 0.73629 0.7265 0.93724 0.0
C598 C 0.7714 0.79781 0.93953 0.0
C599 C 0.77746 0.83618 0.9752 0.0
H600 H 0.95075 0.01507 0.99187 0.0
H601 H 0.90131 0.96883 0.97541 0.0
H602 H 0.78701 0.87186 0.99337 0.0
H603 H 0.72216 0.69493 0.95692 0.0
H604 H 0.75167 0.7541 0.97159 0.0
H605 H 0.84613 0.85338 0.95053 0.0
C606 C 0.89764 0.96192 0.98647 0.0
C607 C 0.80034 0.86821 0.98407 0.0
C608 C 0.92582 0.98864 0.99589 0.0
C609 C 0.73504 0.72344 0.95192 0.0
C610 C 0.75188 0.75727 0.96032 0.0
C611 C 0.83273 0.85751 0.95973 0.0
C612 C 0.8661 0.92613 0.9912 0.0
C613 C 0.84006 0.89468 0.98106 0.0
C614 C 0.77098 0.79476 0.95419 0.0
C615 C 0.79361 0.83034 0.96302 0.0
H616 H 0.88658 0.93941 0.02622 0.0
H617 H 0.83833 0.89197 0.00981 0.0
H618 H 0.88634 0.90814 0.9661 0.0
H619 H 0.75603 0.76718 0.91987 0.0
H620 H 0.78588 0.82638 0.93455 0.0
C621 C 0.97847 0.92612 0.34687 0.0
C622 C 0.01536 0.95748 0.35101 0.0
C623 C 0.97582 0.89482 0.33902 0.0
C624 C 0.02804 0.84177 0.33299 0.0
H625 H 0.96159 0.80017 0.29985 0.0
C626 C 0.02193 0.7136 0.30191 0.0
C627 C 0.98495 0.68451 0.29686 0.0
C628 C 0.02718 0.74909 0.3072 0.0
C629 C 0.97993 0.8111 0.30918 0.0
H630 H 0.07838 0.98101 0.35008 0.0
H631 H 0.07365 0.92593 0.3366 0.0
H632 H 0.96707 0.85779 0.31177 0.0
H633 H 0.92494 0.67051 0.2927 0.0
H634 H 0.93349 0.73163 0.3025 0.0
H635 H 0.03988 0.79459 0.33087 0.0
C636 C 0.04687 0.92568 0.33938 0.0
C637 C 0.98314 0.84418 0.31595 0.0
C638 C 0.04954 0.95721 0.34704 0.0
C639 C 0.95362 0.69218 0.29674 0.0
C640 C 0.95871 0.72745 0.30221 0.0
C641 C 0.02443 0.80845 0.32636 0.0
C642 C 0.00999 0.8941 0.33538 0.0
C643 C 0.00719 0.85974 0.32793 0.0
C644 C 0.99545 0.75617 0.30768 0.0
C645 C 0.00027 0.79258 0.31438 0.0
H646 H 0.95167 0.92567 0.34976 0.0
H647 H 0.94703 0.87066 0.33614 0.0
H648 H 0.04638 0.85291 0.34233 0.0
H649 H 0.04676 0.70874 0.3019 0.0
H650 H 0.05614 0.77088 0.31098 0.0
C651 C 0.12723 0.05133 0.67964 0.0
C652 C 0.08973 0.01917 0.6822 0.0
C653 C 0.15412 0.04663 0.67166 0.0
C654 C 0.17727 0.97125 0.65968 0.0
H655 H 0.24832 0.05484 0.63509 0.0
C656 C 0.2937 0.95959 0.62679 0.0
C657 C 0.33181 0.99243 0.62776 0.0
C658 C 0.26151 0.96163 0.63185 0.0
C659 C 0.22873 0.0313 0.64194 0.0
H660 H 0.05068 0.95694 0.67829 0.0
H661 H 0.09753 0.94875 0.66412 0.0
H662 H 0.19643 0.0602 0.64684 0.0
H663 H 0.36601 0.05328 0.63451 0.0
H664 H 0.30984 0.05697 0.64324 0.0
H665 H 0.20987 0.94253 0.65483 0.0
C666 C 0.10636 0.97752 0.66846 0.0
C667 C 0.19907 0.03439 0.64871 0.0
C668 C 0.07946 0.98222 0.67651 0.0
C669 C 0.33695 0.0276 0.63355 0.0
C670 C 0.30478 0.02973 0.6385 0.0
C671 C 0.20681 0.96806 0.65284 0.0
C672 C 0.14409 0.00968 0.66598 0.0
C673 C 0.17343 0.00475 0.65786 0.0
C674 C 0.26679 0.99664 0.63788 0.0
C675 C 0.23327 0.99837 0.64409 0.0
H676 H 0.13607 0.08015 0.68394 0.0
H677 H 0.18312 0.07187 0.67019 0.0
H678 H 0.15837 0.94811 0.66678 0.0
H679 H 0.28897 0.93214 0.62236 0.0
H680 H 0.23252 0.93577 0.63113 0.0
C681 C 0.12153 0.16227 0.01379 0.0
C682 C 0.10871 0.12201 0.01243 0.0
C683 C 0.15035 0.18961 0.00502 0.0
C684 C 0.18881 0.19903 0.97006 0.0
H685 H 0.26905 0.30158 0.98371 0.0
C686 C 0.28424 0.32454 0.93211 0.0
C687 C 0.28739 0.36092 0.93537 0.0
C688 C 0.27006 0.29429 0.94197 0.0
C689 C 0.24679 0.2731 0.97973 0.0
H690 H 0.11642 0.07871 0.001 0.0
H691 H 0.16667 0.1268 0.98538 0.0
H692 H 0.23003 0.24966 0.00037 0.0
H693 H 0.27827 0.39424 0.95147 0.0
H694 H 0.25326 0.34152 0.96865 0.0
H695 H 0.2042 0.22288 0.94945 0.0
C696 C 0.15441 0.13705 0.99333 0.0
C697 C 0.22455 0.24338 0.98926 0.0
C698 C 0.12581 0.10962 0.00227 0.0
C699 C 0.27677 0.36672 0.94877 0.0
C700 C 0.2626 0.33653 0.95861 0.0
C701 C 0.21094 0.22883 0.96051 0.0
C702 C 0.16675 0.1773 0.99458 0.0
C703 C 0.19457 0.20643 0.98453 0.0
C704 C 0.2585 0.29975 0.95526 0.0
C705 C 0.23937 0.26656 0.96526 0.0
H706 H 0.10895 0.17268 0.02156 0.0
H707 H 0.15883 0.22035 0.0061 0.0
H708 H 0.16568 0.17093 0.96611 0.0
H709 H 0.2919 0.31922 0.92181 0.0
H710 H 0.26753 0.26641 0.9391 0.0
C711 C 0.05545 0.1734 0.35118 0.0
C712 C 0.03344 0.13309 0.34791 0.0
C713 C 0.05154 0.20086 0.34296 0.0
C714 C 0.97905 0.20535 0.31944 0.0
H715 H 0.0645 0.3087 0.30972 0.0
C716 C 0.93972 0.30401 0.27722 0.0
C717 C 0.97738 0.35712 0.27761 0.0
C718 C 0.95153 0.27338 0.28782 0.0
C719 C 0.04032 0.2801 0.31251 0.0
H720 H 0.99212 0.09008 0.33306 0.0
H721 H 0.98596 0.13786 0.31862 0.0
H722 H 0.07851 0.26359 0.32298 0.0
H723 H 0.03181 0.4123 0.29325 0.0
H724 H 0.04566 0.35941 0.31041 0.0
H725 H 0.94084 0.22164 0.30916 0.0
C726 C 0.0054 0.14828 0.3277 0.0
C727 C 0.04835 0.25427 0.32006 0.0
C728 C 0.00913 0.12093 0.33591 0.0
C729 C 0.01276 0.38074 0.29249 0.0
C730 C 0.02228 0.34756 0.30262 0.0
C731 C 0.9711 0.23106 0.31191 0.0
C732 C 0.02565 0.1884 0.33135 0.0
C733 C 0.01778 0.21645 0.32349 0.0
C734 C 0.99296 0.29492 0.29992 0.0
C735 C 0.00164 0.2685 0.30826 0.0
H736 H 0.07437 0.18353 0.36039 0.0
H737 H 0.06744 0.23156 0.34607 0.0
H738 H 0.95468 0.17685 0.32225 0.0
H739 H 0.91742 0.29148 0.26905 0.0
H740 H 0.93395 0.24178 0.28666 0.0
loop_
_geom_bond_atom_site_label_1
_geom_bond_atom_site_label_2
_geom_bond_distance
_geom_bond_site_symmetry_2
_ccdc_geom_bond_type
In0 O1 2.294 1_455 S
In0 O2 2.326 . S
In0 O6 2.266 1_445 S
In0 O7 2.326 1_445 S
In0 O8 2.266 1_545 S
In0 O9 2.326 1_445 S
In0 O11 2.294 . S
In0 O12 2.326 . S
O1 In0 2.294 1_655 S
O1 C10 1.240 1_655 S
O2 In0 2.326 . S
O2 C10 1.252 . S
C3 O6 1.252 . S
C3 O7 1.260 . S
C4 O11 1.240 . S
C4 O12 1.252 . S
C5 O8 1.252 . S
C5 O9 1.260 1_455 S
O6 In0 2.266 1_665 S
O6 C3 1.252 . S
O7 In0 2.326 1_665 S
O7 C3 1.260 . S
O8 In0 2.266 1_565 S
O8 C5 1.252 . S
O9 In0 2.326 1_665 S
O9 C5 1.260 1_655 S
C10 O1 1.240 1_455 S
C10 O2 1.252 . S
O11 In0 2.294 . S
O11 C4 1.240 . S
O12 In0 2.326 . S
O12 C4 1.252 . S
In13 O14 2.294 . S
In13 O15 2.326 1_455 S
In13 O19 2.266 . S
In13 O20 2.326 . S
In13 O21 2.266 1_445 S
In13 O22 2.326 . S
In13 O24 2.294 1_455 S
In13 O25 2.326 1_455 S
O14 In13 2.294 . S
O14 C23 1.240 . S
O15 In13 2.326 1_655 S
O15 C23 1.252 1_655 S
C16 O19 1.252 . S
C16 O20 1.260 . S
C17 O24 1.240 . S
C17 O25 1.252 . S
C18 O21 1.252 1_455 S
C18 O22 1.260 1_565 S
O19 In13 2.266 . S
O19 C16 1.252 . S
O20 In13 2.326 . S
O20 C16 1.260 . S
O21 In13 2.266 1_665 S
O21 C18 1.252 1_655 S
O22 In13 2.326 . S
O22 C18 1.260 1_545 S
C23 O14 1.240 . S
C23 O15 1.252 1_455 S
O24 In13 2.294 1_655 S
O24 C17 1.240 . S
O25 In13 2.326 1_655 S
O25 C17 1.252 . S
In26 O27 2.294 1_445 S
In26 O28 2.326 1_455 S
In26 O32 2.266 . S
In26 O33 2.326 . S
In26 O34 2.266 . S
In26 O35 2.326 . S
In26 O37 2.294 1_455 S
In26 O38 2.326 1_455 S
O27 In26 2.294 1_665 S
O27 C36 1.240 . S
O28 In26 2.326 1_655 S
O28 C36 1.252 1_545 S
C29 O32 1.252 . S
C29 O33 1.260 . S
C30 O37 1.240 . S
C30 O38 1.252 . S
C31 O34 1.252 . S
C31 O35 1.260 . S
O32 In26 2.266 . S
O32 C29 1.252 . S
O33 In26 2.326 . S
O33 C29 1.260 . S
O34 In26 2.266 . S
O34 C31 1.252 . S
O35 In26 2.326 . S
O35 C31 1.260 . S
C36 O27 1.240 . S
C36 O28 1.252 1_565 S
O37 In26 2.294 1_655 S
O37 C30 1.240 . S
O38 In26 2.326 1_655 S
O38 C30 1.252 . S
C39 C40 1.560 . S
C39 H100 0.959 . S
C39 H101 0.959 . S
C39 H102 0.960 . S
C40 C39 1.560 . S
C40 O95 1.426 . S
C40 H99 0.980 1_655 S
C41 C42 1.407 1_655 S
C41 C46 1.418 . S
C41 O95 1.334 . S
C42 C41 1.407 1_455 S
C42 C43 1.360 . S
C42 H103 0.929 . S
C43 C42 1.360 . S
C43 C44 1.401 . S
C43 C47 1.527 . S
C44 C43 1.401 . S
C44 C45 1.405 1_455 S
C44 C77 1.587 . S
C45 C44 1.405 1_655 S
C45 C46 1.332 . S
C45 C48 1.496 . S
C46 C41 1.418 . S
C46 C45 1.332 . S
C46 H104 0.929 . S
C47 C43 1.527 . S
C47 H105 0.959 . S
C47 H106 0.961 . S
C47 H107 0.961 . S
C48 C45 1.496 . S
C48 H108 0.960 . S
C48 H109 0.960 . S
C48 H110 0.961 . S
C49 C50 1.517 . S
C49 H112 0.961 . S
C49 H113 0.960 . S
C49 H114 0.959 . S
C50 C49 1.517 . S
C50 O98 1.468 . S
C50 H111 0.980 . S
C51 C52 1.349 . S
C51 C56 1.367 . S
C51 O98 1.408 . S
C52 C51 1.349 . S
C52 C53 1.407 . S
C52 H115 0.930 . S
C53 C52 1.407 . S
C53 C54 1.449 . S
C53 C57 1.535 1_455 S
C54 C53 1.449 . S
C54 C55 1.384 . S
C54 C79 1.553 . S
C55 C54 1.384 . S
C55 C56 1.364 . S
C55 C58 1.450 . S
C56 C51 1.367 . S
C56 C55 1.364 . S
C56 H116 0.931 . S
C57 C53 1.535 1_655 S
C57 H117 0.959 . S
C57 H118 0.961 . S
C57 H119 0.959 . S
C58 C55 1.450 . S
C58 H120 0.960 . S
C58 H121 0.960 . S
C58 H122 0.960 . S
C59 C60 1.309 . S
C59 C64 1.304 . S
C59 O97 1.435 . S
C60 C59 1.309 . S
C60 C61 1.476 . S
C60 H124 0.930 1_455 S
C61 C60 1.476 . S
C61 C62 1.400 . S
C61 C65 1.567 1_455 S
C62 C61 1.400 . S
C62 C63 1.373 . S
C62 C84 1.432 . S
C63 C62 1.373 . S
C63 C64 1.339 . S
C63 C66 1.530 . S
C64 C59 1.304 . S
C64 C63 1.339 . S
C64 H125 0.930 . S
C65 C61 1.567 1_655 S
C65 H126 0.961 . S
C65 H127 0.960 . S
C65 H128 0.958 . S
C66 C63 1.530 . S
C66 H129 0.961 . S
C66 H130 0.960 . S
C66 H131 0.960 . S
C67 C68 1.530 1_655 S
C67 H133 0.961 . S
C67 H134 0.961 . S
C67 H135 0.959 . S
C68 C67 1.530 1_455 S
C68 O96 1.412 1_455 S
C68 H132 0.980 . S
C69 C70 1.288 . S
C69 C74 1.377 1_655 S
C69 O96 1.393 . S
C70 C69 1.288 . S
C70 C71 1.369 . S
C70 H136 0.932 . S
C71 C70 1.369 . S
C71 C72 1.398 1_655 S
C71 C75 1.527 . S
C72 C71 1.398 1_455 S
C72 C73 1.380 . S
C72 C86 1.497 . S
C73 C72 1.380 . S
C73 C74 1.383 . S
C73 C76 1.603 . S
C74 C69 1.377 1_455 S
C74 C73 1.383 . S
C74 H137 0.929 . S
C75 C71 1.527 . S
C75 H138 0.961 . S
C75 H139 0.959 . S
C75 H140 0.959 . S
C76 C73 1.603 . S
C76 H141 0.960 . S
C76 H142 0.962 . S
C76 H143 0.961 . S
C77 C44 1.587 . S
C77 C78 1.360 . S
C77 C90 1.412 . S
C78 C77 1.360 . S
C78 C79 1.365 . S
C78 H144 0.929 . S
C79 C54 1.553 . S
C79 C78 1.365 . S
C79 C80 1.404 . S
C80 C79 1.404 . S
C80 C81 1.395 . S
C80 C91 1.451 . S
C81 C80 1.395 . S
C81 C82 1.322 . S
C81 H145 0.930 . S
C82 C81 1.322 . S
C82 C83 1.459 . S
C82 H146 0.929 . S
C83 C82 1.459 . S
C83 C84 1.445 . S
C83 C92 1.395 . S
C84 C62 1.432 . S
C84 C83 1.445 . S
C84 C85 1.370 . S
C85 C84 1.370 . S
C85 C86 1.438 . S
C85 H147 0.930 . S
C86 C72 1.497 . S
C86 C85 1.438 . S
C86 C87 1.360 . S
C87 C86 1.360 . S
C87 C88 1.401 . S
C87 C92 1.446 . S
C88 C87 1.401 . S
C88 C89 1.347 . S
C88 H148 0.929 . S
C89 C88 1.347 . S
C89 C90 1.455 . S
C89 H149 0.930 . S
C90 C77 1.412 . S
C90 C89 1.455 . S
C90 C91 1.331 . S
C91 C80 1.451 . S
C91 C90 1.331 . S
C91 C92 1.497 . S
C92 C83 1.395 . S
C92 C87 1.446 . S
C92 C91 1.497 . S
C93 C94 1.582 . S
C93 H150 0.962 . S
C93 H151 0.959 . S
C93 H152 0.958 . S
C94 C93 1.582 . S
C94 O97 1.458 . S
C94 H123 0.980 . S
O95 C40 1.426 . S
O95 C41 1.334 . S
O96 C68 1.412 1_655 S
O96 C69 1.393 . S
O97 C59 1.435 . S
O97 C94 1.458 . S
O98 C50 1.468 . S
O98 C51 1.408 . S
H99 C40 0.980 1_455 S
H100 C39 0.959 . S
H101 C39 0.959 . S
H102 C39 0.960 . S
H103 C42 0.929 . S
H104 C46 0.929 . S
H105 C47 0.959 . S
H106 C47 0.961 . S
H107 C47 0.961 . S
H108 C48 0.960 . S
H109 C48 0.960 . S
H110 C48 0.961 . S
H111 C50 0.980 . S
H112 C49 0.961 . S
H113 C49 0.960 . S
H114 C49 0.959 . S
H115 C52 0.930 . S
H116 C56 0.931 . S
H117 C57 0.959 . S
H118 C57 0.961 . S
H119 C57 0.959 . S
H120 C58 0.960 . S
H121 C58 0.960 . S
H122 C58 0.960 . S
H123 C94 0.980 . S
H124 C60 0.930 1_655 S
H125 C64 0.930 . S
H126 C65 0.961 . S
H127 C65 0.960 . S
H128 C65 0.958 . S
H129 C66 0.961 . S
H130 C66 0.960 . S
H131 C66 0.960 . S
H132 C68 0.980 . S
H133 C67 0.961 . S
H134 C67 0.961 . S
H135 C67 0.959 . S
H136 C70 0.932 . S
H137 C74 0.929 . S
H138 C75 0.961 . S
H139 C75 0.959 . S
H140 C75 0.959 . S
H141 C76 0.960 . S
H142 C76 0.962 . S
H143 C76 0.961 . S
H144 C78 0.929 . S
H145 C81 0.930 . S
H146 C82 0.929 . S
H147 C85 0.930 . S
H148 C88 0.929 . S
H149 C89 0.930 . S
H150 C93 0.962 . S
H151 C93 0.959 . S
H152 C93 0.958 . S
C153 C154 1.560 1_565 S
C153 H214 0.959 . S
C153 H215 0.959 . S
C153 H216 0.960 1_565 S
C154 C153 1.560 1_545 S
C154 O209 1.424 1_545 S
C154 H213 0.980 . S
C155 C156 1.407 . S
C155 C160 1.418 1_545 S
C155 O209 1.334 1_545 S
C156 C155 1.407 . S
C156 C157 1.360 . S
C156 H217 0.929 . S
C157 C156 1.360 . S
C157 C158 1.401 . S
C157 C161 1.527 . S
C158 C157 1.401 . S
C158 C159 1.405 . S
C158 C191 1.587 . S
C159 C158 1.405 . S
C159 C160 1.332 1_545 S
C159 C162 1.496 1_545 S
C160 C155 1.418 1_565 S
C160 C159 1.332 1_565 S
C160 H218 0.929 . S
C161 C157 1.527 . S
C161 H219 0.959 . S
C161 H220 0.961 . S
C161 H221 0.961 . S
C162 C159 1.496 1_565 S
C162 H222 0.960 . S
C162 H223 0.960 . S
C162 H224 0.961 . S
C163 C164 1.517 . S
C163 H226 0.961 . S
C163 H227 0.960 . S
C163 H228 0.959 . S
C164 C163 1.517 . S
C164 O212 1.468 . S
C164 H225 0.980 . S
C165 C166 1.349 . S
C165 C170 1.367 . S
C165 O212 1.408 . S
C166 C165 1.349 . S
C166 C167 1.407 . S
C166 H229 0.930 . S
C167 C166 1.407 . S
C167 C168 1.449 . S
C167 C171 1.535 . S
C168 C167 1.449 . S
C168 C169 1.384 . S
C168 C193 1.553 . S
C169 C168 1.384 . S
C169 C170 1.364 . S
C169 C172 1.450 . S
C170 C165 1.367 . S
C170 C169 1.364 . S
C170 H230 0.931 . S
C171 C167 1.535 . S
C171 H231 0.959 . S
C171 H232 0.961 1_545 S
C171 H233 0.959 1_545 S
C172 C169 1.450 . S
C172 H234 0.960 . S
C172 H235 0.960 . S
C172 H236 0.960 . S
C173 C174 1.309 . S
C173 C178 1.304 . S
C173 O211 1.435 . S
C174 C173 1.309 . S
C174 C175 1.476 . S
C174 H238 0.930 . S
C175 C174 1.476 . S
C175 C176 1.400 . S
C175 C179 1.567 1_545 S
C176 C175 1.400 . S
C176 C177 1.373 . S
C176 C198 1.432 . S
C177 C176 1.373 . S
C177 C178 1.339 . S
C177 C180 1.530 . S
C178 C173 1.304 . S
C178 C177 1.339 . S
C178 H239 0.930 . S
C179 C175 1.567 1_565 S
C179 H240 0.961 . S
C179 H241 0.960 . S
C179 H242 0.958 . S
C180 C177 1.530 . S
C180 H243 0.961 . S
C180 H244 0.960 . S
C180 H245 0.960 . S
C181 C182 1.530 . S
C181 H247 0.961 . S
C181 H248 0.961 1_545 S
C181 H249 0.959 1_545 S
C182 C181 1.530 . S
C182 O210 1.412 . S
C182 H246 0.980 . S
C183 C184 1.288 1_545 S
C183 C188 1.377 . S
C183 O210 1.393 . S
C184 C183 1.288 1_565 S
C184 C185 1.369 1_565 S
C184 H250 0.932 . S
C185 C184 1.369 1_545 S
C185 C186 1.398 . S
C185 C189 1.527 1_545 S
C186 C185 1.398 . S
C186 C187 1.380 . S
C186 C200 1.497 . S
C187 C186 1.380 . S
C187 C188 1.383 . S
C187 C190 1.603 . S
C188 C183 1.377 . S
C188 C187 1.383 . S
C188 H251 0.929 . S
C189 C185 1.527 1_565 S
C189 H252 0.961 . S
C189 H253 0.959 . S
C189 H254 0.959 . S
C190 C187 1.603 . S
C190 H255 0.960 . S
C190 H256 0.962 . S
C190 H257 0.961 . S
C191 C158 1.587 . S
C191 C192 1.360 . S
C191 C204 1.412 . S
C192 C191 1.360 . S
C192 C193 1.365 . S
C192 H258 0.929 . S
C193 C168 1.553 . S
C193 C192 1.365 . S
C193 C194 1.404 . S
C194 C193 1.404 . S
C194 C195 1.395 . S
C194 C205 1.451 . S
C195 C194 1.395 . S
C195 C196 1.322 . S
C195 H259 0.930 . S
C196 C195 1.322 . S
C196 C197 1.459 . S
C196 H260 0.929 . S
C197 C196 1.459 . S
C197 C198 1.445 . S
C197 C206 1.395 . S
C198 C176 1.432 . S
C198 C197 1.445 . S
C198 C199 1.370 . S
C199 C198 1.370 . S
C199 C200 1.438 . S
C199 H261 0.930 . S
C200 C186 1.497 . S
C200 C199 1.438 . S
C200 C201 1.360 . S
C201 C200 1.360 . S
C201 C202 1.401 . S
C201 C206 1.446 . S
C202 C201 1.401 . S
C202 C203 1.347 . S
C202 H262 0.929 . S
C203 C202 1.347 . S
C203 C204 1.455 . S
C203 H263 0.930 . S
C204 C191 1.412 . S
C204 C203 1.455 . S
C204 C205 1.331 . S
C205 C194 1.451 . S
C205 C204 1.331 . S
C205 C206 1.497 . S
C206 C197 1.395 . S
C206 C201 1.446 . S
C206 C205 1.497 . S
C207 C208 1.582 . S
C207 H264 0.962 . S
C207 H265 0.959 . S
C207 H266 0.958 . S
C208 C207 1.582 . S
C208 O211 1.458 . S
C208 H237 0.980 . S
O209 C154 1.424 1_565 S
O209 C155 1.334 1_565 S
O210 C182 1.412 . S
O210 C183 1.393 . S
O211 C173 1.435 . S
O211 C208 1.458 . S
O212 C164 1.468 . S
O212 C165 1.408 . S
H213 C154 0.980 . S
H214 C153 0.959 . S
H215 C153 0.959 . S
H216 C153 0.960 1_545 S
H217 C156 0.929 . S
H218 C160 0.929 . S
H219 C161 0.959 . S
H220 C161 0.961 . S
H221 C161 0.961 . S
H222 C162 0.960 . S
H223 C162 0.960 . S
H224 C162 0.961 . S
H225 C164 0.980 . S
H226 C163 0.961 . S
H227 C163 0.960 . S
H228 C163 0.959 . S
H229 C166 0.930 . S
H230 C170 0.931 . S
H231 C171 0.959 . S
H232 C171 0.961 1_565 S
H233 C171 0.959 1_565 S
H234 C172 0.960 . S
H235 C172 0.960 . S
H236 C172 0.960 . S
H237 C208 0.980 . S
H238 C174 0.930 . S
H239 C178 0.930 . S
H240 C179 0.961 . S
H241 C179 0.960 . S
H242 C179 0.958 . S
H243 C180 0.961 . S
H244 C180 0.960 . S
H245 C180 0.960 . S
H246 C182 0.980 . S
H247 C181 0.961 . S
H248 C181 0.961 1_565 S
H249 C181 0.959 1_565 S
H250 C184 0.932 . S
H251 C188 0.929 . S
H252 C189 0.961 . S
H253 C189 0.959 . S
H254 C189 0.959 . S
H255 C190 0.960 . S
H256 C190 0.962 . S
H257 C190 0.961 . S
H258 C192 0.929 . S
H259 C195 0.930 . S
H260 C196 0.929 . S
H261 C199 0.930 . S
H262 C202 0.929 . S
H263 C203 0.930 . S
H264 C207 0.962 . S
H265 C207 0.959 . S
H266 C207 0.958 . S
C267 C268 1.560 . S
C267 H328 0.959 . S
C267 H329 0.959 . S
C267 H330 0.960 . S
C268 C267 1.560 . S
C268 O323 1.426 . S
C268 H327 0.980 . S
C269 C270 1.407 . S
C269 C274 1.418 . S
C269 O323 1.334 . S
C270 C269 1.407 . S
C270 C271 1.360 . S
C270 H331 0.929 . S
C271 C270 1.360 . S
C271 C272 1.401 . S
C271 C275 1.527 . S
C272 C271 1.401 . S
C272 C273 1.405 . S
C272 C305 1.587 . S
C273 C272 1.405 . S
C273 C274 1.332 . S
C273 C276 1.496 . S
C274 C269 1.418 . S
C274 C273 1.332 . S
C274 H332 0.929 . S
C275 C271 1.527 . S
C275 H333 0.959 . S
C275 H334 0.961 . S
C275 H335 0.961 . S
C276 C273 1.496 . S
C276 H336 0.960 . S
C276 H337 0.960 . S
C276 H338 0.961 . S
C277 C278 1.517 . S
C277 H340 0.961 . S
C277 H341 0.960 . S
C277 H342 0.959 . S
C278 C277 1.517 . S
C278 O326 1.468 . S
C278 H339 0.980 . S
C279 C280 1.349 . S
C279 C284 1.367 . S
C279 O326 1.408 . S
C280 C279 1.349 . S
C280 C281 1.407 . S
C280 H343 0.930 . S
C281 C280 1.407 . S
C281 C282 1.449 . S
C281 C285 1.535 . S
C282 C281 1.449 . S
C282 C283 1.384 . S
C282 C307 1.553 . S
C283 C282 1.384 . S
C283 C284 1.364 . S
C283 C286 1.450 . S
C284 C279 1.367 . S
C284 C283 1.364 . S
C284 H344 0.931 . S
C285 C281 1.535 . S
C285 H345 0.959 . S
C285 H346 0.961 . S
C285 H347 0.959 . S
C286 C283 1.450 . S
C286 H348 0.960 . S
C286 H349 0.960 . S
C286 H350 0.960 . S
C287 C288 1.309 . S
C287 C292 1.304 . S
C287 O325 1.435 . S
C288 C287 1.309 . S
C288 C289 1.476 . S
C288 H352 0.930 . S
C289 C288 1.476 . S
C289 C290 1.400 . S
C289 C293 1.567 . S
C290 C289 1.400 . S
C290 C291 1.373 . S
C290 C312 1.432 . S
C291 C290 1.373 . S
C291 C292 1.339 . S
C291 C294 1.530 . S
C292 C287 1.304 . S
C292 C291 1.339 . S
C292 H353 0.930 . S
C293 C289 1.567 . S
C293 H354 0.961 . S
C293 H355 0.960 . S
C293 H356 0.958 . S
C294 C291 1.530 . S
C294 H357 0.961 . S
C294 H358 0.960 . S
C294 H359 0.960 . S
C295 C296 1.530 . S
C295 H361 0.961 . S
C295 H362 0.961 . S
C295 H363 0.959 . S
C296 C295 1.530 . S
C296 O324 1.412 . S
C296 H360 0.980 . S
C297 C298 1.288 . S
C297 C302 1.377 . S
C297 O324 1.393 . S
C298 C297 1.288 . S
C298 C299 1.369 . S
C298 H364 0.932 . S
C299 C298 1.369 . S
C299 C300 1.398 . S
C299 C303 1.527 . S
C300 C299 1.398 . S
C300 C301 1.380 . S
C300 C314 1.497 . S
C301 C300 1.380 . S
C301 C302 1.383 . S
C301 C304 1.603 . S
C302 C297 1.377 . S
C302 C301 1.383 . S
C302 H365 0.929 . S
C303 C299 1.527 . S
C303 H366 0.961 . S
C303 H367 0.959 . S
C303 H368 0.959 . S
C304 C301 1.603 . S
C304 H369 0.960 . S
C304 H370 0.962 . S
C304 H371 0.961 . S
C305 C272 1.587 . S
C305 C306 1.360 . S
C305 C318 1.412 . S
C306 C305 1.360 . S
C306 C307 1.365 . S
C306 H372 0.929 . S
C307 C282 1.553 . S
C307 C306 1.365 . S
C307 C308 1.404 . S
C308 C307 1.404 . S
C308 C309 1.395 . S
C308 C319 1.451 . S
C309 C308 1.395 . S
C309 C310 1.322 . S
C309 H373 0.930 . S
C310 C309 1.322 . S
C310 C311 1.459 . S
C310 H374 0.929 . S
C311 C310 1.459 . S
C311 C312 1.445 . S
C311 C320 1.395 . S
C312 C290 1.432 . S
C312 C311 1.445 . S
C312 C313 1.370 . S
C313 C312 1.370 . S
C313 C314 1.438 . S
C313 H375 0.930 . S
C314 C300 1.497 . S
C314 C313 1.438 . S
C314 C315 1.360 . S
C315 C314 1.360 . S
C315 C316 1.401 . S
C315 C320 1.446 . S
C316 C315 1.401 . S
C316 C317 1.347 . S
C316 H376 0.929 . S
C317 C316 1.347 . S
C317 C318 1.455 . S
C317 H377 0.930 . S
C318 C305 1.412 . S
C318 C317 1.455 . S
C318 C319 1.331 . S
C319 C308 1.451 . S
C319 C318 1.331 . S
C319 C320 1.497 . S
C320 C311 1.395 . S
C320 C315 1.446 . S
C320 C319 1.497 . S
C321 C322 1.582 . S
C321 H378 0.962 . S
C321 H379 0.959 . S
C321 H380 0.958 . S
C322 C321 1.582 . S
C322 O325 1.458 . S
C322 H351 0.980 . S
O323 C268 1.426 . S
O323 C269 1.334 . S
O324 C296 1.412 . S
O324 C297 1.393 . S
O325 C287 1.435 . S
O325 C322 1.458 . S
O326 C278 1.468 . S
O326 C279 1.408 . S
H327 C268 0.980 . S
H328 C267 0.959 . S
H329 C267 0.959 . S
H330 C267 0.960 . S
H331 C270 0.929 . S
H332 C274 0.929 . S
H333 C275 0.959 . S
H334 C275 0.961 . S
H335 C275 0.961 . S
H336 C276 0.960 . S
H337 C276 0.960 . S
H338 C276 0.961 . S
H339 C278 0.980 . S
H340 C277 0.961 . S
H341 C277 0.960 . S
H342 C277 0.959 . S
H343 C280 0.930 . S
H344 C284 0.931 . S
H345 C285 0.959 . S
H346 C285 0.961 . S
H347 C285 0.959 . S
H348 C286 0.960 . S
H349 C286 0.960 . S
H350 C286 0.960 . S
H351 C322 0.980 . S
H352 C288 0.930 . S
H353 C292 0.930 . S
H354 C293 0.961 . S
H355 C293 0.960 . S
H356 C293 0.958 . S
H357 C294 0.961 . S
H358 C294 0.960 . S
H359 C294 0.960 . S
H360 C296 0.980 . S
H361 C295 0.961 . S
H362 C295 0.961 . S
H363 C295 0.959 . S
H364 C298 0.932 . S
H365 C302 0.929 . S
H366 C303 0.961 . S
H367 C303 0.959 . S
H368 C303 0.959 . S
H369 C304 0.960 . S
H370 C304 0.962 . S
H371 C304 0.961 . S
H372 C306 0.929 . S
H373 C309 0.930 . S
H374 C310 0.929 . S
H375 C313 0.930 . S
H376 C316 0.929 . S
H377 C317 0.930 . S
H378 C321 0.962 . S
H379 C321 0.959 . S
H380 C321 0.958 . S
C381 C382 1.349 1_655 S
C381 C383 1.327 . S
C381 H406 0.950 . S
C382 C381 1.349 1_455 S
C382 C398 1.349 . S
C383 C381 1.327 . S
C383 C402 1.429 1_655 S
C383 H407 0.950 . S
C384 C401 1.574 . S
C384 C403 1.368 . S
C384 H408 0.949 . S
H385 C389 0.949 . S
C386 C387 1.349 . S
C386 C388 1.327 . S
C386 H409 0.950 . S
C387 C386 1.349 . S
C387 C399 1.349 1_455 S
C388 C386 1.327 . S
C388 C404 1.429 . S
C388 H410 0.950 . S
C389 H385 0.949 . S
C389 C397 1.574 . S
C389 C405 1.368 1_655 S
H390 C398 0.950 . S
H391 C396 0.950 . S
H392 C397 0.949 . S
H393 C399 0.950 . S
H394 C400 0.950 . S
H395 C401 0.949 . S
C396 H391 0.950 . S
C396 C398 1.327 . S
C396 C402 1.429 . S
C397 C389 1.574 . S
C397 H392 0.949 . S
C397 C403 1.368 1_655 S
C398 C382 1.349 . S
C398 H390 0.950 . S
C398 C396 1.327 . S
C399 C387 1.349 1_655 S
C399 H393 0.950 . S
C399 C400 1.327 . S
C400 H394 0.950 . S
C400 C399 1.327 . S
C400 C404 1.429 1_655 S
C401 C384 1.574 . S
C401 H395 0.949 . S
C401 C405 1.368 . S
C402 C383 1.429 1_455 S
C402 C396 1.429 . S
C402 C403 1.523 . S
C403 C384 1.368 . S
C403 C397 1.368 1_455 S
C403 C402 1.523 . S
C404 C388 1.429 . S
C404 C400 1.429 1_455 S
C404 C405 1.523 . S
C405 C389 1.368 1_455 S
C405 C401 1.368 . S
C405 C404 1.523 . S
H406 C381 0.950 . S
H407 C383 0.950 . S
H408 C384 0.949 . S
H409 C386 0.950 . S
H410 C388 0.950 . S
C411 C412 1.349 . S
C411 C413 1.327 . S
C411 H436 0.950 . S
C412 C411 1.349 . S
C412 C428 1.349 . S
C413 C411 1.327 . S
C413 C432 1.429 . S
C413 H437 0.950 . S
C414 C431 1.574 . S
C414 C433 1.368 . S
C414 H438 0.949 1_545 S
H415 C419 0.949 . S
C416 C417 1.349 . S
C416 C418 1.327 . S
C416 H439 0.950 1_545 S
C417 C416 1.349 . S
C417 C429 1.349 . S
C418 C416 1.327 . S
C418 C434 1.429 . S
C418 H440 0.950 1_545 S
C419 H415 0.949 . S
C419 C427 1.574 . S
C419 C435 1.368 . S
H420 C428 0.917 1_565 S
H421 C426 0.950 1_565 S
H422 C427 0.949 . S
H423 C429 0.950 . S
H424 C430 0.950 . S
H425 C431 0.949 1_565 S
C426 H421 0.950 1_545 S
C426 C428 1.327 . S
C426 C432 1.429 . S
C427 C419 1.574 . S
C427 H422 0.949 . S
C427 C433 1.368 . S
C428 C412 1.349 . S
C428 H420 0.917 1_545 S
C428 C426 1.327 . S
C429 C417 1.349 . S
C429 H423 0.950 . S
C429 C430 1.327 . S
C430 H424 0.950 . S
C430 C429 1.327 . S
C430 C434 1.429 . S
C431 C414 1.574 . S
C431 H425 0.949 1_545 S
C431 C435 1.368 . S
C432 C413 1.429 . S
C432 C426 1.429 . S
C432 C433 1.523 . S
C433 C414 1.368 . S
C433 C427 1.368 . S
C433 C432 1.523 . S
C434 C418 1.429 . S
C434 C430 1.429 . S
C434 C435 1.523 . S
C435 C419 1.368 . S
C435 C431 1.368 . S
C435 C434 1.523 . S
H436 C411 0.950 . S
H437 C413 0.950 . S
H438 C414 0.949 1_565 S
H439 C416 0.950 1_565 S
H440 C418 0.950 1_565 S
C441 C442 1.349 . S
C441 C443 1.327 . S
C441 H466 0.950 . S
C442 C441 1.349 . S
C442 C458 1.349 . S
C443 C441 1.327 . S
C443 C462 1.429 . S
C443 H467 0.950 . S
C444 C461 1.574 . S
C444 C463 1.368 . S
C444 H468 0.949 . S
H445 C449 0.949 . S
C446 C447 1.349 . S
C446 C448 1.327 . S
C446 H469 0.950 . S
C447 C446 1.349 . S
C447 C459 1.349 . S
C448 C446 1.327 . S
C448 C464 1.429 . S
C448 H470 0.950 . S
C449 H445 0.949 . S
C449 C457 1.574 . S
C449 C465 1.368 . S
H450 C458 0.950 . S
H451 C456 0.950 . S
H452 C457 0.949 . S
H453 C459 0.950 . S
H454 C460 0.950 . S
H455 C461 0.949 . S
C456 H451 0.950 . S
C456 C458 1.327 . S
C456 C462 1.429 . S
C457 C449 1.574 . S
C457 H452 0.949 . S
C457 C463 1.368 . S
C458 C442 1.349 . S
C458 H450 0.950 . S
C458 C456 1.327 . S
C459 C447 1.349 . S
C459 H453 0.950 . S
C459 C460 1.327 . S
C460 H454 0.950 . S
C460 C459 1.327 . S
C460 C464 1.429 . S
C461 C444 1.574 . S
C461 H455 0.949 . S
C461 C465 1.368 . S
C462 C443 1.429 . S
C462 C456 1.429 . S
C462 C463 1.523 . S
C463 C444 1.368 . S
C463 C457 1.368 . S
C463 C462 1.523 . S
C464 C448 1.429 . S
C464 C460 1.429 . S
C464 C465 1.523 . S
C465 C449 1.368 . S
C465 C461 1.368 . S
C465 C464 1.523 . S
H466 C441 0.950 . S
H467 C443 0.950 . S
H468 C444 0.949 . S
H469 C446 0.950 . S
H470 C448 0.950 . S
C471 C472 1.349 1_655 S
C471 C473 1.327 . S
C471 H496 0.950 . S
C472 C471 1.349 1_455 S
C472 C488 1.349 . S
C473 C471 1.327 . S
C473 C492 1.429 1_655 S
C473 H497 0.950 . S
C474 C491 1.574 . S
C474 C493 1.368 . S
C474 H498 0.949 . S
H475 C479 0.949 . S
C476 C477 1.349 . S
C476 C478 1.327 . S
C476 H499 0.950 . S
C477 C476 1.349 . S
C477 C489 1.349 1_455 S
C478 C476 1.327 . S
C478 C494 1.429 . S
C478 H500 0.950 . S
C479 H475 0.949 . S
C479 C487 1.574 . S
C479 C495 1.368 1_655 S
H480 C488 0.950 . S
H481 C486 0.950 . S
H482 C487 0.949 . S
H483 C489 0.950 . S
H484 C490 0.950 . S
H485 C491 0.949 . S
C486 H481 0.950 . S
C486 C488 1.327 . S
C486 C492 1.429 . S
C487 C479 1.574 . S
C487 H482 0.949 . S
C487 C493 1.368 1_655 S
C488 C472 1.349 . S
C488 H480 0.950 . S
C488 C486 1.327 . S
C489 C477 1.349 1_655 S
C489 H483 0.950 . S
C489 C490 1.327 . S
C490 H484 0.950 . S
C490 C489 1.327 . S
C490 C494 1.429 1_655 S
C491 C474 1.574 . S
C491 H485 0.949 . S
C491 C495 1.368 . S
C492 C473 1.429 1_455 S
C492 C486 1.429 . S
C492 C493 1.523 . S
C493 C474 1.368 . S
C493 C487 1.368 1_455 S
C493 C492 1.523 . S
C494 C478 1.429 . S
C494 C490 1.429 1_455 S
C494 C495 1.523 . S
C495 C479 1.368 1_455 S
C495 C491 1.368 . S
C495 C494 1.523 . S
H496 C471 0.950 . S
H497 C473 0.950 . S
H498 C474 0.949 . S
H499 C476 0.950 . S
H500 C478 0.950 . S
C501 C502 1.349 . S
C501 C503 1.327 . S
C501 H526 0.950 . S
C502 C501 1.349 . S
C502 C518 1.349 . S
C503 C501 1.327 . S
C503 C522 1.429 . S
C503 H527 0.950 . S
C504 C521 1.574 . S
C504 C523 1.368 . S
C504 H528 0.949 1_545 S
H505 C509 0.949 . S
C506 C507 1.349 . S
C506 C508 1.327 . S
C506 H529 0.950 . S
C507 C506 1.349 . S
C507 C519 1.349 . S
C508 C506 1.327 . S
C508 C524 1.429 . S
C508 H530 0.966 . S
C509 H505 0.949 . S
C509 C517 1.574 . S
C509 C525 1.368 . S
H510 C518 0.950 1_565 S
H511 C516 0.950 1_565 S
H512 C517 0.949 . S
H513 C519 0.950 . S
H514 C520 0.950 . S
H515 C521 0.949 1_565 S
C516 H511 0.950 1_545 S
C516 C518 1.327 . S
C516 C522 1.429 . S
C517 C509 1.574 . S
C517 H512 0.949 . S
C517 C523 1.368 . S
C518 C502 1.349 . S
C518 H510 0.950 1_545 S
C518 C516 1.327 . S
C519 C507 1.349 . S
C519 H513 0.950 . S
C519 C520 1.327 . S
C520 H514 0.950 . S
C520 C519 1.327 . S
C520 C524 1.429 . S
C521 C504 1.574 . S
C521 H515 0.949 1_545 S
C521 C525 1.368 . S
C522 C503 1.429 . S
C522 C516 1.429 . S
C522 C523 1.523 . S
C523 C504 1.368 . S
C523 C517 1.368 . S
C523 C522 1.523 . S
C524 C508 1.429 . S
C524 C520 1.429 . S
C524 C525 1.523 . S
C525 C509 1.368 . S
C525 C521 1.368 . S
C525 C524 1.523 . S
H526 C501 0.950 . S
H527 C503 0.950 . S
H528 C504 0.949 1_565 S
H529 C506 0.950 . S
H530 C508 0.966 . S
C531 C532 1.349 . S
C531 C533 1.327 . S
C531 H556 0.950 . S
C532 C531 1.349 . S
C532 C548 1.349 . S
C533 C531 1.327 . S
C533 C552 1.429 . S
C533 H557 0.950 . S
C534 C551 1.574 . S
C534 C553 1.368 . S
C534 H558 0.949 . S
H535 C539 0.949 . S
C536 C537 1.349 . S
C536 C538 1.327 . S
C536 H559 0.950 . S
C537 C536 1.349 . S
C537 C549 1.349 . S
C538 C536 1.327 . S
C538 C554 1.429 . S
C538 H560 0.950 . S
C539 H535 0.949 . S
C539 C547 1.574 . S
C539 C555 1.368 . S
H540 C548 0.950 . S
H541 C546 0.950 . S
H542 C547 0.949 . S
H543 C549 0.950 . S
H544 C550 0.950 . S
H545 C551 0.949 . S
C546 H541 0.950 . S
C546 C548 1.327 . S
C546 C552 1.429 . S
C547 C539 1.574 . S
C547 H542 0.949 . S
C547 C553 1.368 . S
C548 C532 1.349 . S
C548 H540 0.950 . S
C548 C546 1.327 . S
C549 C537 1.349 . S
C549 H543 0.950 . S
C549 C550 1.327 . S
C550 H544 0.950 . S
C550 C549 1.327 . S
C550 C554 1.429 . S
C551 C534 1.574 . S
C551 H545 0.949 . S
C551 C555 1.368 . S
C552 C533 1.429 . S
C552 C546 1.429 . S
C552 C553 1.523 . S
C553 C534 1.368 . S
C553 C547 1.368 . S
C553 C552 1.523 . S
C554 C538 1.429 . S
C554 C550 1.429 . S
C554 C555 1.523 . S
C555 C539 1.368 . S
C555 C551 1.368 . S
C555 C554 1.523 . S
H556 C531 0.950 . S
H557 C533 0.950 . S
H558 C534 0.949 . S
H559 C536 0.950 . S
H560 C538 0.950 . S
C561 C562 1.349 . S
C561 C563 1.327 . S
C561 H586 0.950 . S
C562 C561 1.349 . S
C562 C578 1.349 . S
C563 C561 1.327 . S
C563 C582 1.429 . S
C563 H587 0.950 . S
C564 C581 1.574 . S
C564 C583 1.368 . S
C564 H588 0.949 1_545 S
H565 C569 0.949 . S
C566 C567 1.349 . S
C566 C568 1.327 . S
C566 H589 0.950 1_545 S
C567 C566 1.349 . S
C567 C579 1.349 . S
C568 C566 1.327 . S
C568 C584 1.429 . S
C568 H590 0.950 1_545 S
C569 H565 0.949 . S
C569 C577 1.574 . S
C569 C585 1.368 . S
H570 C578 0.950 1_565 S
H571 C576 0.950 1_565 S
H572 C577 0.949 . S
H573 C579 0.950 . S
H574 C580 0.950 . S
H575 C581 0.949 1_565 S
C576 H571 0.950 1_545 S
C576 C578 1.327 . S
C576 C582 1.429 . S
C577 C569 1.574 . S
C577 H572 0.949 . S
C577 C583 1.368 . S
C578 C562 1.349 . S
C578 H570 0.950 1_545 S
C578 C576 1.327 . S
C579 C567 1.349 . S
C579 H573 0.950 . S
C579 C580 1.327 . S
C580 H574 0.950 . S
C580 C579 1.327 . S
C580 C584 1.429 . S
C581 C564 1.574 . S
C581 H575 0.949 1_545 S
C581 C585 1.368 . S
C582 C563 1.429 . S
C582 C576 1.429 . S
C582 C583 1.523 . S
C583 C564 1.368 . S
C583 C577 1.368 . S
C583 C582 1.523 . S
C584 C568 1.429 . S
C584 C580 1.429 . S
C584 C585 1.523 . S
C585 C569 1.368 . S
C585 C581 1.368 . S
C585 C584 1.523 . S
H586 C561 0.950 . S
H587 C563 0.950 . S
H588 C564 0.949 1_565 S
H589 C566 0.950 1_565 S
H590 C568 0.950 1_565 S
C591 C592 1.349 . S
C591 C593 1.327 . S
C591 H616 0.950 . S
C592 C591 1.349 . S
C592 C608 1.349 . S
C593 C591 1.327 . S
C593 C612 1.429 . S
C593 H617 0.950 . S
C594 C611 1.574 . S
C594 C613 1.368 . S
C594 H618 0.949 . S
H595 C599 0.949 . S
C596 C597 1.349 . S
C596 C598 1.327 . S
C596 H619 0.950 . S
C597 C596 1.349 . S
C597 C609 1.349 . S
C598 C596 1.327 . S
C598 C614 1.429 . S
C598 H620 0.950 . S
C599 H595 0.949 . S
C599 C607 1.615 . S
C599 C615 1.368 . S
H600 C608 0.950 . S
H601 C606 0.950 . S
H602 C607 0.881 1_554 S
H603 C609 0.950 . S
H604 C610 0.950 . S
H605 C611 0.949 . S
C606 H601 0.950 . S
C606 C608 1.327 1_556 S
C606 C612 1.429 1_556 S
C607 C599 1.615 . S
C607 H602 0.881 1_556 S
C607 C613 1.405 . S
C608 C592 1.349 . S
C608 H600 0.950 . S
C608 C606 1.327 1_554 S
C609 C597 1.349 . S
C609 H603 0.950 . S
C609 C610 1.327 . S
C610 H604 0.950 . S
C610 C609 1.327 . S
C610 C614 1.429 . S
C611 C594 1.574 . S
C611 H605 0.949 . S
C611 C615 1.368 . S
C612 C593 1.429 . S
C612 C606 1.429 1_554 S
C612 C613 1.523 1_554 S
C613 C594 1.368 . S
C613 C607 1.405 . S
C613 C612 1.523 1_556 S
C614 C598 1.429 . S
C614 C610 1.429 . S
C614 C615 1.523 . S
C615 C599 1.368 . S
C615 C611 1.368 . S
C615 C614 1.523 . S
H616 C591 0.950 . S
H617 C593 0.950 . S
H618 C594 0.949 . S
H619 C596 0.950 . S
H620 C598 0.950 . S
C621 C622 1.349 1_655 S
C621 C623 1.327 . S
C621 H646 0.950 . S
C622 C621 1.349 1_455 S
C622 C638 1.349 . S
C623 C621 1.327 . S
C623 C642 1.429 1_655 S
C623 H647 0.950 . S
C624 C641 1.574 . S
C624 C643 1.368 . S
C624 H648 0.949 . S
H625 C629 0.949 . S
C626 C627 1.349 . S
C626 C628 1.327 . S
C626 H649 0.950 . S
C627 C626 1.349 . S
C627 C639 1.349 1_455 S
C628 C626 1.327 . S
C628 C644 1.429 . S
C628 H650 0.950 . S
C629 H625 0.949 . S
C629 C637 1.574 . S
C629 C645 1.368 1_655 S
H630 C638 0.950 . S
H631 C636 0.950 . S
H632 C637 0.949 . S
H633 C639 0.950 . S
H634 C640 0.950 . S
H635 C641 0.949 . S
C636 H631 0.950 . S
C636 C638 1.327 . S
C636 C642 1.429 . S
C637 C629 1.574 . S
C637 H632 0.949 . S
C637 C643 1.368 1_655 S
C638 C622 1.349 . S
C638 H630 0.950 . S
C638 C636 1.327 . S
C639 C627 1.349 1_655 S
C639 H633 0.950 . S
C639 C640 1.327 . S
C640 H634 0.950 . S
C640 C639 1.327 . S
C640 C644 1.429 1_655 S
C641 C624 1.574 . S
C641 H635 0.949 . S
C641 C645 1.368 . S
C642 C623 1.429 1_455 S
C642 C636 1.429 . S
C642 C643 1.523 . S
C643 C624 1.368 . S
C643 C637 1.368 1_455 S
C643 C642 1.523 . S
C644 C628 1.429 . S
C644 C640 1.429 1_455 S
C644 C645 1.523 . S
C645 C629 1.368 1_455 S
C645 C641 1.368 . S
C645 C644 1.523 . S
H646 C621 0.950 . S
H647 C623 0.950 . S
H648 C624 0.949 . S
H649 C626 0.950 . S
H650 C628 0.950 . S
C651 C652 1.349 . S
C651 C653 1.327 . S
C651 H676 0.950 . S
C652 C651 1.349 . S
C652 C668 1.349 . S
C653 C651 1.327 . S
C653 C672 1.429 . S
C653 H677 0.950 . S
C654 C671 1.574 . S
C654 C673 1.368 . S
C654 H678 0.949 1_545 S
H655 C659 0.949 . S
C656 C657 1.349 . S
C656 C658 1.327 . S
C656 H679 0.950 1_545 S
C657 C656 1.349 . S
C657 C669 1.349 . S
C658 C656 1.327 . S
C658 C674 1.429 . S
C658 H680 0.950 1_545 S
C659 H655 0.949 . S
C659 C667 1.574 . S
C659 C675 1.368 . S
H660 C668 0.950 1_565 S
H661 C666 0.950 1_565 S
H662 C667 0.949 . S
H663 C669 0.950 . S
H664 C670 0.950 . S
H665 C671 0.949 1_565 S
C666 H661 0.950 1_545 S
C666 C668 1.327 . S
C666 C672 1.429 . S
C667 C659 1.574 . S
C667 H662 0.949 . S
C667 C673 1.368 . S
C668 C652 1.349 . S
C668 H660 0.950 1_545 S
C668 C666 1.327 . S
C669 C657 1.349 . S
C669 H663 0.950 . S
C669 C670 1.327 . S
C670 H664 0.950 . S
C670 C669 1.327 . S
C670 C674 1.429 . S
C671 C654 1.574 . S
C671 H665 0.949 1_545 S
C671 C675 1.368 . S
C672 C653 1.429 . S
C672 C666 1.429 . S
C672 C673 1.523 . S
C673 C654 1.368 . S
C673 C667 1.368 . S
C673 C672 1.523 . S
C674 C658 1.429 . S
C674 C670 1.429 . S
C674 C675 1.523 . S
C675 C659 1.368 . S
C675 C671 1.368 . S
C675 C674 1.523 . S
H676 C651 0.950 . S
H677 C653 0.950 . S
H678 C654 0.949 1_565 S
H679 C656 0.950 1_565 S
H680 C658 0.950 1_565 S
C681 C682 1.349 . S
C681 C683 1.327 . S
C681 H706 0.950 . S
C682 C681 1.349 . S
C682 C698 1.349 . S
C683 C681 1.327 . S
C683 C702 1.395 1_554 S
C683 H707 0.950 . S
C684 C701 1.574 . S
C684 C703 1.368 . S
C684 H708 0.949 . S
H685 C689 0.949 . S
C686 C687 1.349 . S
C686 C688 1.327 . S
C686 H709 0.950 . S
C687 C686 1.349 . S
C687 C699 1.349 . S
C688 C686 1.327 . S
C688 C704 1.429 . S
C688 H710 0.950 . S
C689 H685 0.949 . S
C689 C697 1.574 . S
C689 C705 1.368 . S
H690 C698 0.951 1_556 S
H691 C696 0.950 . S
H692 C697 0.949 1_554 S
H693 C699 0.950 . S
H694 C700 0.950 . S
H695 C701 0.949 . S
C696 H691 0.950 . S
C696 C698 1.327 1_556 S
C696 C702 1.439 . S
C697 C689 1.574 . S
C697 H692 0.949 1_556 S
C697 C703 1.368 . S
C698 C682 1.349 . S
C698 H690 0.951 1_554 S
C698 C696 1.327 1_554 S
C699 C687 1.349 . S
C699 H693 0.950 . S
C699 C700 1.327 . S
C700 H694 0.950 . S
C700 C699 1.327 . S
C700 C704 1.429 . S
C701 C684 1.574 . S
C701 H695 0.949 . S
C701 C705 1.368 . S
C702 C683 1.395 1_556 S
C702 C696 1.439 . S
C702 C703 1.544 . S
C703 C684 1.368 . S
C703 C697 1.368 . S
C703 C702 1.544 . S
C704 C688 1.429 . S
C704 C700 1.429 . S
C704 C705 1.523 . S
C705 C689 1.368 . S
C705 C701 1.368 . S
C705 C704 1.523 . S
H706 C681 0.950 . S
H707 C683 0.950 . S
H708 C684 0.949 . S
H709 C686 0.950 . S
H710 C688 0.950 . S
C711 C712 1.349 . S
C711 C713 1.327 . S
C711 H736 0.950 . S
C712 C711 1.349 . S
C712 C728 1.349 1_455 S
C713 C711 1.327 . S
C713 C732 1.429 . S
C713 H737 0.950 . S
C714 C731 1.574 . S
C714 C733 1.368 1_655 S
C714 H738 0.949 . S
H715 C719 0.949 . S
C716 C717 1.349 1_655 S
C716 C718 1.327 . S
C716 H739 0.950 . S
C717 C716 1.349 1_455 S
C717 C729 1.349 . S
C718 C716 1.327 . S
C718 C734 1.429 1_655 S
C718 H740 0.950 . S
C719 H715 0.949 . S
C719 C727 1.574 . S
C719 C735 1.368 . S
H720 C728 0.950 . S
H721 C726 0.950 . S
H722 C727 0.949 . S
H723 C729 0.950 . S
H724 C730 0.950 . S
H725 C731 0.949 . S
C726 H721 0.950 . S
C726 C728 1.327 . S
C726 C732 1.429 1_655 S
C727 C719 1.574 . S
C727 H722 0.949 . S
C727 C733 1.368 . S
C728 C712 1.349 1_655 S
C728 H720 0.950 . S
C728 C726 1.327 . S
C729 C717 1.349 . S
C729 H723 0.950 . S
C729 C730 1.327 . S
C730 H724 0.950 . S
C730 C729 1.327 . S
C730 C734 1.429 . S
C731 C714 1.574 . S
C731 H725 0.949 . S
C731 C735 1.368 1_655 S
C732 C713 1.429 . S
C732 C726 1.429 1_455 S
C732 C733 1.523 . S
C733 C714 1.368 1_455 S
C733 C727 1.368 . S
C733 C732 1.523 . S
C734 C718 1.429 1_455 S
C734 C730 1.429 . S
C734 C735 1.523 . S
C735 C719 1.368 . S
C735 C731 1.368 1_455 S
C735 C734 1.523 . S
H736 C711 0.950 . S
H737 C713 0.950 . S
H738 C714 0.949 . S
H739 C716 0.950 . S
H740 C718 0.950 . S
C387 C94 1.170 . S
C382 C10 1.622 . S
C412 C17 1.630 . S
C417 C208 1.180 . S
C442 C36 1.367 . S
C447 C268 1.098 . S
C472 C5 1.462 . S
C477 C68 1.154 . S
C507 C182 1.158 . S
C502 C16 1.471 . S
C532 C31 1.535 . S
C537 C278 0.966 . S
C567 C164 0.971 . S
C562 C30 1.537 . S
C592 C3 1.465 . S
C597 C296 1.156 . S
C627 C40 1.099 1_455 S
C622 C18 1.367 . S
C657 C154 1.100 . S
C652 C29 1.372 . S
C687 C322 1.173 . S
C682 C4 1.626 . S
C712 C23 1.525 . S
C717 C50 0.957 . S
