# Generated by pormake.
# Topology pyr, (3,6)-cn, num edge types: 1
# Building blocks:
#     Node 0, Type 0, BuildingBlock: BELTOD_clean_linker_0, # of connection points: 3
#     Node 1, Type 0, BuildingBlock: BELTOD_clean_linker_0, # of connection points: 3
#     Node 2, Type 0, BuildingBlock: BELTOD_clean_linker_0, # of connection points: 3
#     Node 3, Type 0, BuildingBlock: BELTOD_clean_linker_0, # of connection points: 3
#     Node 4, Type 0, BuildingBlock: BELTOD_clean_linker_0, # of connection points: 3
#     Node 5, Type 0, BuildingBlock: BELTOD_clean_linker_0, # of connection points: 3
#     Node 6, Type 0, BuildingBlock: BELTOD_clean_linker_0, # of connection points: 3
#     Node 7, Type 0, BuildingBlock: BELTOD_clean_linker_0, # of connection points: 3
#     Node 8, Type 1, BuildingBlock: BETDIP_clean_sbu_0, # of connection points: 6
#     Node 9, Type 1, BuildingBlock: BETDIP_clean_sbu_0, # of connection points: 6
#     Node 10, Type 1, BuildingBlock: BETDIP_clean_sbu_0, # of connection points: 6
#     Node 11, Type 1, BuildingBlock: BETDIP_clean_sbu_0, # of connection points: 6
#     Edge 12, Type (0, 1), None
#     Edge 13, Type (0, 1), None
#     Edge 14, Type (0, 1), None
#     Edge 15, Type (0, 1), None
#     Edge 16, Type (0, 1), None
#     Edge 17, Type (0, 1), None
#     Edge 18, Type (0, 1), None
#     Edge 19, Type (0, 1), None
#     Edge 20, Type (0, 1), None
#     Edge 21, Type (0, 1), None
#     Edge 22, Type (0, 1), None
#     Edge 23, Type (0, 1), None
#     Edge 24, Type (0, 1), None
#     Edge 25, Type (0, 1), None
#     Edge 26, Type (0, 1), None
#     Edge 27, Type (0, 1), None
#     Edge 28, Type (0, 1), None
#     Edge 29, Type (0, 1), None
#     Edge 30, Type (0, 1), None
#     Edge 31, Type (0, 1), None
#     Edge 32, Type (0, 1), None
#     Edge 33, Type (0, 1), None
#     Edge 34, Type (0, 1), None
#     Edge 35, Type (0, 1), None
# Relax obj value: 0.294
# Max RMSD: 0.225
# Mean RMSD: 0.111
data_MOF--net-pyr--node1-BETDIP_clean_sbu_0--node2-BELTOD_clean_linker_0--edge1-none
_symmetry_space_group_name_H-M    P1
_symmetry_Int_Tables_number       1
_symmetry_cell_setting            triclinic
loop_
_symmetry_equiv_pos_as_xyz
'x, y, z'
_cell_length_a     21.463238
_cell_length_b     22.928497
_cell_length_c     20.661816
_cell_angle_alpha  88.015778
_cell_angle_beta   94.76153
_cell_angle_gamma 107.49399
loop_
_atom_site_label
_atom_site_type_symbol
_atom_site_fract_x
_atom_site_fract_y
_atom_site_fract_z
_atom_type_partial_charge
P0 P 0.54637 0.40769 0.33901 0.0
H1 H 0.63577 0.37961 0.2503 0.0
H2 H 0.64127 0.28178 0.20892 0.0
H3 H 0.48923 0.18514 0.33256 0.0
H4 H 0.47854 0.28005 0.36589 0.0
H5 H 0.51942 0.52329 0.30354 0.0
H6 H 0.41408 0.54244 0.27629 0.0
H7 H 0.32326 0.34978 0.24153 0.0
H8 H 0.42781 0.33098 0.26844 0.0
H9 H 0.58544 0.34407 0.45367 0.0
H10 H 0.44151 0.43847 0.40339 0.0
O11 O 0.61611 0.46503 0.34042 0.0
H12 H 0.51905 0.28827 0.53917 0.0
H13 H 0.37431 0.38151 0.48535 0.0
C14 C 0.55797 0.33751 0.31272 0.0
C15 C 0.60435 0.33707 0.26872 0.0
C16 C 0.60816 0.28118 0.24594 0.0
C17 C 0.56619 0.22538 0.26789 0.0
C18 C 0.52283 0.22677 0.31469 0.0
C19 C 0.51708 0.28177 0.33466 0.0
C20 C 0.48186 0.42568 0.28822 0.0
C21 C 0.47763 0.48566 0.28677 0.0
C22 C 0.41707 0.49645 0.27196 0.0
C23 C 0.36004 0.44725 0.25874 0.0
C24 C 0.36606 0.38836 0.2532 0.0
C25 C 0.42637 0.37771 0.26775 0.0
C26 C 0.51693 0.39289 0.41931 0.0
C27 C 0.54053 0.35409 0.46189 0.0
C28 C 0.50187 0.32132 0.51001 0.0
C29 C 0.43984 0.32828 0.5172 0.0
C30 C 0.42122 0.37405 0.4808 0.0
C31 C 0.45994 0.40668 0.43296 0.0
P32 P 0.14423 0.84191 0.88666 0.0
H33 H 0.21524 0.7929 0.98886 0.0
H34 H 0.22687 0.81707 1.10174 0.0
H35 H 0.04724 0.8668 1.08018 0.0
H36 H 0.03558 0.84158 0.96547 0.0
H37 H 0.17543 0.85107 0.75291 0.0
H38 H 0.2525 0.81098 0.70358 0.0
H39 H 0.24195 0.68075 0.86137 0.0
H40 H 0.16185 0.71928 0.90933 0.0
H41 H 0.12153 0.95455 0.91786 0.0
H42 H 0.04776 0.81565 0.77164 0.0
O43 O 0.21536 0.89728 0.89723 0.0
H44 H 0.07843 1.02511 0.85059 0.0
H45 H 1.00372 0.88671 0.70408 0.0
C46 C 0.1256 0.81709 0.96799 0.0
C47 C 0.17546 0.80448 1.00882 0.0
C48 C 0.18226 0.81895 1.07439 0.0
C49 C 0.13987 0.84746 1.09949 0.0
C50 C 0.08236 0.84751 1.06153 0.0
C51 C 0.07564 0.83303 0.99567 0.0
C52 C 0.16392 0.7892 0.83563 0.0
C53 C 0.18613 0.81126 0.77494 0.0
C54 C 0.23093 0.78864 0.74694 0.0
C55 C 0.25465 0.74417 0.77984 0.0
C56 C 0.22543 0.71617 0.83593 0.0
C57 C 0.17962 0.73822 0.86333 0.0
C58 C 0.0893 0.88067 0.84877 0.0
C59 C 0.09353 0.93834 0.8725 0.0
C60 C 0.06863 0.97854 0.83435 0.0
C61 C 0.03818 0.96104 0.77255 0.0
C62 C 0.02643 0.90063 0.75217 0.0
C63 C 0.05212 0.86034 0.79035 0.0
P64 P 0.67456 0.39732 0.95311 0.0
H65 H 0.8094 0.46122 0.92894 0.0
H66 H 0.90954 0.50324 0.99782 0.0
H67 H 0.80047 0.45759 0.16813 0.0
H68 H 0.69948 0.4143 1.09858 0.0
H69 H 0.62256 0.26611 0.92237 0.0
H70 H 0.54937 0.17792 0.97435 0.0
H71 H 0.51667 0.29562 1.11757 0.0
H72 H 0.58818 0.38522 1.06326 0.0
H73 H 0.72238 0.53275 0.93749 0.0
H74 H 0.56238 0.38434 0.85708 0.0
O75 O 0.70533 0.3651 0.89736 0.0
H76 H 0.69434 0.60301 0.85622 0.0
H77 H 0.53389 0.45452 0.77583 0.0
C78 C 0.74621 0.43371 1.00789 0.0
C79 C 0.80644 0.46025 0.98105 0.0
C80 C 0.864 0.48468 1.02069 0.0
C81 C 0.86326 0.48377 1.08867 0.0
C82 C 0.80278 0.45874 1.11593 0.0
C83 C 0.7447 0.43416 1.07589 0.0
C84 C 0.61318 0.33317 0.98955 0.0
C85 C 0.59977 0.27378 0.96472 0.0
C86 C 0.55792 0.22271 0.99487 0.0
C87 C 0.52848 0.22907 1.05133 0.0
C88 C 0.53927 0.28875 1.07466 0.0
C89 C 0.58068 0.3402 1.04382 0.0
C90 C 0.64367 0.45288 0.90504 0.0
C91 C 0.68024 0.51524 0.90349 0.0
C92 C 0.66462 0.55556 0.8562 0.0
C93 C 0.61244 0.53452 0.80851 0.0
C94 C 0.57485 0.47246 0.81121 0.0
C95 C 0.59049 0.43227 0.8585 0.0
P96 P 0.86675 0.78135 0.41387 0.0
H97 H 0.8719 0.91087 0.40964 0.0
H98 H 0.94011 1.00068 0.469 0.0
H99 H 0.05663 0.89279 0.56132 0.0
H100 H 0.98744 0.80213 0.50165 0.0
H101 H 0.87996 0.78314 0.27437 0.0
H102 H 0.91992 0.72357 0.20224 0.0
H103 H 0.97318 0.62224 0.36676 0.0
H104 H 0.93154 0.68261 0.43968 0.0
H105 H 0.82008 0.82048 0.52884 0.0
H106 H 0.7967 0.65011 0.43347 0.0
O107 O 0.81407 0.80531 0.36388 0.0
H108 H 0.73506 0.76898 0.6003 0.0
H109 H 0.71226 0.598 0.50564 0.0
C110 C 0.92512 0.84953 0.44996 0.0
C111 C 0.9128 0.90635 0.44158 0.0
C112 C 0.95162 0.95791 0.47603 0.0
C113 C 1.00381 0.95403 0.5199 0.0
C114 C 0.01691 0.89738 0.52762 0.0
C115 C 0.97771 0.84556 0.49321 0.0
C116 C 0.90176 0.7373 0.36288 0.0
C117 C 0.89985 0.74803 0.29548 0.0
C118 C 0.92274 0.71343 0.25381 0.0
C119 C 0.94937 0.66715 0.27805 0.0
C120 C 0.95256 0.65701 0.34598 0.0
C121 C 0.92904 0.69176 0.38793 0.0
C122 C 0.81654 0.73907 0.47657 0.0
C123 C 0.79835 0.77151 0.52456 0.0
C124 C 0.74904 0.742 0.56533 0.0
C125 C 0.71642 0.67915 0.55908 0.0
C126 C 0.73648 0.64627 0.51252 0.0
C127 C 0.78537 0.67604 0.47122 0.0
P128 P 0.58617 0.85436 1.01331 0.0
H129 H 0.47664 0.80907 1.09622 0.0
H130 H 0.4166 0.87988 1.11761 0.0
H131 H 0.44999 0.95909 0.92668 0.0
H132 H 0.50218 0.8833 0.90262 0.0
H133 H 0.66758 0.83574 1.12742 0.0
H134 H 0.75159 0.78448 1.13383 0.0
H135 H 0.66296 0.68555 0.95903 0.0
H136 H 0.57634 0.7351 0.95459 0.0
H137 H 0.68091 0.97315 0.98832 0.0
H138 H 0.57851 0.80997 0.88035 0.0
O139 O 0.61191 0.90689 1.07147 0.0
H140 H 0.73693 1.0178 0.89278 0.0
H141 H 0.63722 0.85298 0.78552 0.0
C142 C 0.49974 0.84508 1.00023 0.0
C143 C 0.46579 0.83754 1.05656 0.0
C144 C 0.43208 0.87913 1.06916 0.0
C145 C 0.43356 0.92796 1.02546 0.0
C146 C 0.45067 0.92343 0.96231 0.0
C147 C 0.48129 0.87989 0.94894 0.0
C148 C 0.61727 0.79165 1.03854 0.0
C149 C 0.66407 0.80117 1.09179 0.0
C150 C 0.71288 0.77229 1.0951 0.0
C151 C 0.71574 0.73343 1.04512 0.0
C152 C 0.66291 0.71644 0.99752 0.0
C153 C 0.61342 0.74503 0.99475 0.0
C154 C 0.6267 0.88743 0.9421 0.0
C155 C 0.67089 0.94648 0.94439 0.0
C156 C 0.70315 0.97197 0.88968 0.0
C157 C 0.69219 0.93858 0.83185 0.0
C158 C 0.64661 0.87995 0.82925 0.0
C159 C 0.61395 0.85476 0.88392 0.0
P160 P 0.97931 0.39184 0.392 0.0
H161 H 0.94356 0.49811 0.43241 0.0
H162 H 0.84822 0.50729 0.48385 0.0
H163 H 0.77541 0.31038 0.50053 0.0
H164 H 0.87073 0.30176 0.45063 0.0
H165 H 0.08714 0.38463 0.4866 0.0
H166 H 0.11377 0.29716 0.54082 0.0
H167 H 0.95697 0.17387 0.42262 0.0
H168 H 0.93047 0.2604 0.36976 0.0
H169 H 0.85829 0.40139 0.32015 0.0
H170 H 0.02474 0.34259 0.28269 0.0
O171 O 0.04143 0.45641 0.39376 0.0
H172 H 0.799 0.35043 0.22386 0.0
H173 H 0.96804 0.2965 0.18139 0.0
C174 C 0.91547 0.39938 0.43949 0.0
C175 C 0.90786 0.45707 0.44867 0.0
C176 C 0.85282 0.46216 0.47716 0.0
C177 C 0.80419 0.40949 0.49641 0.0
C178 C 0.81242 0.35188 0.48743 0.0
C179 C 0.86732 0.34691 0.45902 0.0
C180 C 1.00713 0.3291 0.42391 0.0
C181 C 0.0597 0.33874 0.47139 0.0
C182 C 0.07515 0.28877 0.50194 0.0
C183 C 0.03743 0.22871 0.48584 0.0
C184 C 0.98701 0.21956 0.43599 0.0
C185 C 0.9719 0.26922 0.40556 0.0
C186 C 0.94524 0.37399 0.30993 0.0
C187 C 0.88314 0.37922 0.29007 0.0
C188 C 0.84937 0.35062 0.23366 0.0
C189 C 0.87783 0.31755 0.19503 0.0
C190 C 0.94345 0.31941 0.21101 0.0
C191 C 0.97635 0.34637 0.26866 0.0
P192 P 0.41544 0.72925 0.29432 0.0
H193 H 0.36924 0.73782 0.1593 0.0
H194 H 0.26111 0.70984 1.09992 0.0
H195 H 0.17105 0.65339 0.27995 0.0
H196 H 0.28005 0.6803 0.33931 0.0
H197 H 0.54405 0.79962 0.25401 0.0
H198 H 0.58519 0.90213 0.20936 0.0
H199 H 0.4157 0.94573 0.26495 0.0
H200 H 0.37151 0.84012 0.30699 0.0
H201 H 0.36404 0.60528 0.34475 0.0
H202 H 0.49524 0.77513 0.41861 0.0
O203 O 0.45467 0.69557 0.24822 0.0
H204 H 0.39887 0.55047 0.43736 0.0
H205 H 0.52863 0.72018 0.51386 0.0
C206 C 0.33316 0.71029 0.25382 0.0
C207 C 0.32628 0.7191 0.18619 0.0
C208 C 0.26431 0.70318 0.15211 0.0
C209 C 0.20731 0.67833 0.18485 0.0
C210 C 0.21401 0.6712 0.25299 0.0
C211 C 0.27635 0.68686 0.28716 0.0
C212 C 0.45408 0.81122 0.28338 0.0
C213 C 0.51573 0.83104 0.2581 0.0
C214 C 0.53937 0.89012 0.23233 0.0
C215 C 0.50298 0.93196 0.23251 0.0
C216 C 0.44421 0.91433 0.26353 0.0
C217 C 0.41939 0.85409 0.28802 0.0
C218 C 0.42548 0.6949 0.37466 0.0
C219 C 0.39832 0.63139 0.38227 0.0
C220 C 0.41876 0.59985 0.43542 0.0
C221 C 0.46629 0.63076 0.48375 0.0
C222 C 0.49112 0.69493 0.47834 0.0
C223 C 0.4717 0.72651 0.42383 0.0
P224 P 0.20088 0.39153 0.86037 0.0
H225 H 0.1967 0.26253 0.857 0.0
H226 H 0.13302 0.17678 0.78931 0.0
H227 H 0.018 0.288 0.7015 0.0
H228 H 0.08272 0.37468 0.76956 0.0
H229 H 0.27282 0.5235 0.84994 0.0
H230 H 0.36049 0.57889 0.78219 0.0
H231 H 0.33527 0.4137 0.67544 0.0
H232 H 0.24745 0.35925 0.74192 0.0
H233 H 0.18911 0.3874 1.00049 0.0
H234 H 0.13417 0.48861 0.83745 0.0
O235 O 0.25271 0.36546 0.90928 0.0
H236 H 0.14965 0.44599 1.0745 0.0
H237 H 0.09302 0.54766 0.91205 0.0
C238 C 0.14384 0.32518 0.81965 0.0
C239 C 0.15696 0.26855 0.82434 0.0
C240 C 0.12089 0.2194 0.78497 0.0
C241 C 0.07067 0.22554 0.73975 0.0
C242 C 0.05634 0.28175 0.73604 0.0
C243 C 0.09289 0.33122 0.77531 0.0
C244 C 0.25209 0.43735 0.80044 0.0
C245 C 0.28432 0.49977 0.81034 0.0
C246 C 0.33485 0.53138 0.77157 0.0
C247 C 0.35532 0.50063 0.72334 0.0
C248 C 0.32094 0.43886 0.7119 0.0
C249 C 0.2701 0.40767 0.74996 0.0
C250 C 0.16529 0.43356 0.91296 0.0
C251 C 0.16845 0.42232 0.98029 0.0
C252 C 0.14596 0.45634 1.02302 0.0
C253 C 0.1186 0.50239 0.99982 0.0
C254 C 0.11423 0.51299 0.93202 0.0
C255 C 0.13735 0.47894 0.88908 0.0
Tb256 Tb 0.96857 1.08011 0.62089 0.0
Tb257 Tb 0.11152 0.10509 0.62833 0.0
C258 C 0.84661 1.03361 0.61641 0.0
C259 C 0.80573 1.01029 0.67019 0.0
C260 C 0.73903 0.97889 0.65909 0.0
C261 C 0.7015 0.95581 0.71164 0.0
C262 C 0.73058 0.96388 0.77567 0.0
C263 C 0.79761 0.99541 0.78607 0.0
C264 C 0.83472 1.01856 0.73384 0.0
C265 C 0.0342 0.17405 0.6961 0.0
C266 C 0.03703 1.00901 0.7245 0.0
C267 C 0.23461 0.14666 0.63874 0.0
C268 C 0.28864 0.1948 0.6121 0.0
C269 C 0.29372 0.25714 0.61585 0.0
C270 C 0.34495 0.30113 0.58802 0.0
C271 C 0.39159 0.28351 0.55576 0.0
C272 C 0.38728 0.22115 0.55423 0.0
C273 C 0.33657 0.17741 0.58241 0.0
C274 C 0.04359 1.00837 0.55811 0.0
C275 C 0.04238 0.17646 0.52738 0.0
O276 O 0.8869 1.00273 0.60565 0.0
O277 O 0.87559 0.09253 0.61745 0.0
O278 O 0.04669 0.12415 0.69154 0.0
O279 O 0.98057 0.17087 0.66121 0.0
O280 O 0.98276 1.00823 0.68896 0.0
O281 O 0.09326 1.05053 0.71556 0.0
O282 O 0.19649 0.16333 0.6757 0.0
O283 O 0.20187 0.10334 0.59864 0.0
O284 O 0.03287 1.05949 0.55871 0.0
O285 O 0.09528 1.0108 0.59612 0.0
O286 O 0.09495 0.1805 0.56733 0.0
O287 O 0.98956 0.12906 0.53048 0.0
H288 H 0.71617 0.97215 0.61005 0.0
H289 H 0.64983 0.93205 0.70223 0.0
H290 H 0.8218 1.00133 0.83458 0.0
H291 H 0.88638 1.04262 0.7431 0.0
H292 H 0.25775 0.2719 0.63921 0.0
H293 H 0.34724 0.34879 0.59055 0.0
H294 H 0.42135 0.20559 0.52877 0.0
H295 H 0.33386 0.12958 0.57957 0.0
Tb296 Tb 0.56728 0.08615 1.11705 0.0
Tb297 Tb 0.43784 1.07692 0.16321 0.0
C298 C 0.68021 0.11988 1.07708 0.0
C299 C 0.73664 0.17453 1.08878 0.0
C300 C 0.72873 0.23311 1.08832 0.0
C301 C 0.77827 0.28197 1.11627 0.0
C302 C 0.83558 0.27271 0.14711 0.0
C303 C 0.84563 0.21517 0.14147 0.0
C304 C 0.79674 0.16674 1.11212 0.0
C305 C 0.52323 0.98851 0.19152 0.0
C306 C 0.55512 0.16728 0.23328 0.0
C307 C 0.32504 1.05105 0.20398 0.0
C308 C 0.26547 0.9981 0.19883 0.0
C309 C 0.26585 0.93943 0.22059 0.0
C310 C 0.21674 0.88786 0.19698 0.0
C311 C 0.16772 0.89459 0.15028 0.0
C312 C 0.16125 0.95354 1.13865 0.0
C313 C 0.20991 1.00483 0.1627 0.0
C314 C 0.48823 0.17377 1.08625 0.0
C315 C 0.4467 0.98925 1.0531 0.0
O316 O 0.62857 0.12704 1.04343 0.0
O317 O 0.66476 0.08562 1.12867 0.0
O318 O 0.51583 1.04071 0.19997 0.0
O319 O 0.55931 0.99209 0.1437 0.0
O320 O 0.58767 0.165 0.1823 0.0
O321 O 0.50033 0.12428 0.24313 0.0
O322 O 0.37612 1.04408 0.23872 0.0
O323 O 0.34108 1.07961 0.14906 0.0
O324 O 0.48932 0.11952 1.08039 0.0
O325 O 0.4556 0.17471 1.13585 0.0
O326 O 0.41523 0.9953 1.10347 0.0
O327 O 0.5035 1.02943 1.04129 0.0
H328 H 0.68276 0.24042 1.07075 0.0
H329 H 0.76933 0.32574 1.11795 0.0
H330 H 0.88848 0.20541 0.16477 0.0
H331 H 0.80372 0.12181 1.11291 0.0
H332 H 0.30639 0.93287 0.25136 0.0
H333 H 0.22161 0.84302 0.20926 0.0
H334 H 0.12382 0.96127 1.10399 0.0
H335 H 0.20745 1.04979 0.14717 0.0
Tb336 Tb 0.54447 0.64962 0.68204 0.0
Tb337 Tb 0.54016 0.52647 0.62223 0.0
C338 C 0.50819 0.73774 0.7135 0.0
C339 C 0.44296 0.73941 0.72968 0.0
C340 C 0.39086 0.73158 0.68142 0.0
C341 C 0.32866 0.73041 0.69784 0.0
C342 C 0.31724 0.7365 0.76279 0.0
C343 C 0.36904 0.74354 0.81106 0.0
C344 C 0.43129 0.74523 0.79463 0.0
C345 C 0.59609 0.57669 0.75697 0.0
C346 C 0.41696 0.53011 0.6914 0.0
C347 C 0.58237 0.43642 0.61762 0.0
C348 C 0.63411 0.42537 0.58221 0.0
C349 C 0.66454 0.38209 0.60614 0.0
C350 C 0.71933 0.37649 0.57783 0.0
C351 C 0.74474 0.41433 0.52518 0.0
C352 C 0.71303 0.45683 0.50048 0.0
C353 C 0.65829 0.46241 0.52893 0.0
C354 C 0.49423 0.59388 0.5333 0.0
C355 C 0.65836 0.64911 0.59653 0.0
O356 O 0.51368 0.72559 0.65307 0.0
O357 O 0.53753 0.70822 0.75497 0.0
O358 O 0.54627 0.56191 0.71724 0.0
O359 O 0.61912 0.63614 0.7568 0.0
O360 O 0.44437 0.59025 0.69753 0.0
O361 O 0.44691 0.49445 0.66576 0.0
O362 O 0.60446 0.47953 0.661 0.0
O363 O 0.52963 0.44088 0.58316 0.0
O364 O 0.51761 0.60672 0.59116 0.0
O365 O 0.49504 0.53813 0.5241 0.0
O366 O 0.63409 0.58867 0.59436 0.0
O367 O 0.63017 0.68362 0.62645 0.0
H368 H 0.39794 0.72642 0.63088 0.0
H369 H 0.28964 0.72546 0.65974 0.0
H370 H 0.36204 0.74997 0.86136 0.0
H371 H 0.47032 0.75108 0.83282 0.0
H372 H 0.647 0.35378 0.64786 0.0
H373 H 0.74292 0.34372 0.59844 0.0
H374 H 0.7305 0.48579 0.4592 0.0
H375 H 0.63505 0.4959 0.50971 0.0
Tb376 Tb 0.02269 0.62765 1.08738 0.0
Tb377 Tb 0.04456 0.5398 0.19121 0.0
C378 C 0.96066 0.68345 1.01367 0.0
C379 C 0.89726 0.69563 1.01944 0.0
C380 C 0.83706 0.64893 1.01064 0.0
C381 C 0.77787 0.66057 1.01946 0.0
C382 C 0.77773 0.71895 1.03764 0.0
C383 C 0.83779 0.76561 1.04551 0.0
C384 C 0.89665 0.7541 1.03639 0.0
C385 C 0.14161 0.65965 0.14791 0.0
C386 C 0.97608 0.63272 0.23214 0.0
C387 C 0.10423 0.48085 0.26385 0.0
C388 C 0.16938 0.47249 0.26195 0.0
C389 C 0.21757 0.5131 0.22636 0.0
C390 C 0.27959 0.50516 0.22497 0.0
C391 C 0.294 0.45573 0.25819 0.0
C392 C 0.24533 0.41499 0.29346 0.0
C393 C 0.18365 0.42341 0.29541 0.0
C394 C 0.92609 0.50784 1.12946 0.0
C395 C 0.09191 0.53616 1.04628 0.0
O396 O 0.95785 0.6264 1.00549 0.0
O397 O 1.00914 0.71102 1.05533 0.0
O398 O 0.08814 0.63413 0.17223 0.0
O399 O 0.12913 0.67301 1.08737 0.0
O400 O 0.96922 0.64397 0.16879 0.0
O401 O 1.00846 0.59453 0.25472 0.0
O402 O 0.1039 0.53628 0.27617 0.0
O403 O 0.06142 0.45627 0.21621 0.0
O404 O 0.9802 0.53341 1.10661 0.0
O405 O 0.93758 0.49368 0.18991 0.0
O406 O 0.09961 0.52554 1.10972 0.0
O407 O 0.05855 0.57341 1.02379 0.0
H408 H 0.8355 0.60324 0.99739 0.0
H409 H 0.73238 0.62385 1.01277 0.0
H410 H 0.83932 0.8116 1.05775 0.0
H411 H 0.94177 0.79107 1.04305 0.0
H412 H 0.20726 0.55099 0.19967 0.0
H413 H 0.31597 0.53725 0.19748 0.0
H414 H 0.25537 0.37716 0.32067 0.0
H415 H 0.14721 0.39175 0.32328 0.0
loop_
_geom_bond_atom_site_label_1
_geom_bond_atom_site_label_2
_geom_bond_distance
_geom_bond_site_symmetry_2
_ccdc_geom_bond_type
P0 O11 1.490 . S
P0 C14 1.812 . S
P0 C20 1.803 . S
P0 C26 1.819 . S
H1 C15 0.941 . S
H2 C16 0.939 . S
H3 C18 0.940 . S
H4 C19 0.940 . S
H5 C21 0.939 . S
H6 C22 0.942 . S
H7 C24 0.940 . S
H8 C25 0.939 . S
H9 C27 0.941 . S
H10 C31 0.939 . S
O11 P0 1.490 . S
H12 C28 0.939 . S
H13 C30 0.940 . S
C14 P0 1.812 . S
C14 C15 1.389 . S
C14 C19 1.391 . S
C15 H1 0.941 . S
C15 C14 1.389 . S
C15 C16 1.397 . S
C16 H2 0.939 . S
C16 C15 1.397 . S
C16 C17 1.378 . S
C17 C16 1.378 . S
C17 C18 1.378 . S
C18 H3 0.940 . S
C18 C17 1.378 . S
C18 C19 1.396 . S
C19 H4 0.940 . S
C19 C14 1.391 . S
C19 C18 1.396 . S
C20 P0 1.803 . S
C20 C21 1.378 . S
C20 C25 1.400 . S
C21 H5 0.939 . S
C21 C20 1.378 . S
C21 C22 1.361 . S
C22 H6 0.942 . S
C22 C21 1.361 . S
C22 C23 1.369 . S
C23 C22 1.369 . S
C23 C24 1.404 . S
C24 H7 0.940 . S
C24 C23 1.404 . S
C24 C25 1.389 . S
C25 H8 0.939 . S
C25 C20 1.400 . S
C25 C24 1.389 . S
C26 P0 1.819 . S
C26 C27 1.391 . S
C26 C31 1.391 . S
C27 H9 0.941 . S
C27 C26 1.391 . S
C27 C28 1.396 . S
C28 H12 0.939 . S
C28 C27 1.396 . S
C28 C29 1.397 . S
C29 C28 1.397 . S
C29 C30 1.385 . S
C30 H13 0.940 . S
C30 C29 1.385 . S
C30 C31 1.388 . S
C31 H10 0.939 . S
C31 C26 1.391 . S
C31 C30 1.388 . S
P32 O43 1.490 . S
P32 C46 1.812 . S
P32 C52 1.803 . S
P32 C58 1.819 . S
H33 C47 0.941 . S
H34 C48 0.939 . S
H35 C50 0.940 . S
H36 C51 0.940 . S
H37 C53 0.939 . S
H38 C54 0.942 . S
H39 C56 0.940 . S
H40 C57 0.939 . S
H41 C59 0.941 . S
H42 C63 0.939 . S
O43 P32 1.490 . S
H44 C60 0.939 . S
H45 C62 0.940 . S
C46 P32 1.812 . S
C46 C47 1.389 . S
C46 C51 1.391 . S
C47 H33 0.941 . S
C47 C46 1.389 . S
C47 C48 1.397 . S
C48 H34 0.939 . S
C48 C47 1.397 . S
C48 C49 1.378 . S
C49 C48 1.378 . S
C49 C50 1.378 . S
C50 H35 0.940 . S
C50 C49 1.378 . S
C50 C51 1.396 . S
C51 H36 0.940 . S
C51 C46 1.391 . S
C51 C50 1.396 . S
C52 P32 1.803 . S
C52 C53 1.378 . S
C52 C57 1.400 . S
C53 H37 0.939 . S
C53 C52 1.378 . S
C53 C54 1.361 . S
C54 H38 0.942 . S
C54 C53 1.361 . S
C54 C55 1.369 . S
C55 C54 1.369 . S
C55 C56 1.404 . S
C56 H39 0.940 . S
C56 C55 1.404 . S
C56 C57 1.389 . S
C57 H40 0.939 . S
C57 C52 1.400 . S
C57 C56 1.389 . S
C58 P32 1.819 . S
C58 C59 1.391 . S
C58 C63 1.391 1_455 S
C59 H41 0.941 . S
C59 C58 1.391 . S
C59 C60 1.396 1_455 S
C60 H44 0.939 . S
C60 C59 1.396 1_655 S
C60 C61 1.397 . S
C61 C60 1.397 . S
C61 C62 1.385 . S
C62 H45 0.940 . S
C62 C61 1.385 . S
C62 C63 1.388 . S
C63 H42 0.939 . S
C63 C58 1.391 1_655 S
C63 C62 1.388 . S
P64 O75 1.490 . S
P64 C78 1.812 . S
P64 C84 1.803 . S
P64 C90 1.819 . S
H65 C79 0.941 . S
H66 C80 0.939 . S
H67 C82 0.940 . S
H68 C83 0.940 . S
H69 C85 0.939 . S
H70 C86 0.942 . S
H71 C88 0.940 . S
H72 C89 0.939 . S
H73 C91 0.941 . S
H74 C95 0.939 . S
O75 P64 1.490 . S
H76 C92 0.939 . S
H77 C94 0.940 . S
C78 P64 1.812 . S
C78 C79 1.389 . S
C78 C83 1.391 . S
C79 H65 0.941 . S
C79 C78 1.389 . S
C79 C80 1.397 . S
C80 H66 0.939 . S
C80 C79 1.397 . S
C80 C81 1.378 . S
C81 C80 1.378 . S
C81 C82 1.378 . S
C82 H67 0.940 . S
C82 C81 1.378 . S
C82 C83 1.396 . S
C83 H68 0.940 . S
C83 C78 1.391 . S
C83 C82 1.396 . S
C84 P64 1.803 . S
C84 C85 1.378 . S
C84 C89 1.400 . S
C85 H69 0.939 . S
C85 C84 1.378 . S
C85 C86 1.361 . S
C86 H70 0.942 . S
C86 C85 1.361 . S
C86 C87 1.369 . S
C87 C86 1.369 . S
C87 C88 1.404 . S
C88 H71 0.940 . S
C88 C87 1.404 . S
C88 C89 1.389 . S
C89 H72 0.939 . S
C89 C84 1.400 . S
C89 C88 1.389 . S
C90 P64 1.819 . S
C90 C91 1.391 . S
C90 C95 1.391 . S
C91 H73 0.941 . S
C91 C90 1.391 . S
C91 C92 1.396 . S
C92 H76 0.939 . S
C92 C91 1.396 . S
C92 C93 1.397 . S
C93 C92 1.397 . S
C93 C94 1.385 . S
C94 H77 0.940 . S
C94 C93 1.385 . S
C94 C95 1.388 . S
C95 H74 0.939 . S
C95 C90 1.391 . S
C95 C94 1.388 . S
P96 O107 1.490 . S
P96 C110 1.812 . S
P96 C116 1.803 . S
P96 C122 1.819 . S
H97 C111 0.941 . S
H98 C112 0.939 . S
H99 C114 0.940 . S
H100 C115 0.940 . S
H101 C117 0.939 . S
H102 C118 0.942 . S
H103 C120 0.940 . S
H104 C121 0.939 . S
H105 C123 0.941 . S
H106 C127 0.939 . S
O107 P96 1.490 . S
H108 C124 0.939 . S
H109 C126 0.940 . S
C110 P96 1.812 . S
C110 C111 1.389 . S
C110 C115 1.391 . S
C111 H97 0.941 . S
C111 C110 1.389 . S
C111 C112 1.397 . S
C112 H98 0.939 . S
C112 C111 1.397 . S
C112 C113 1.378 . S
C113 C112 1.378 . S
C113 C114 1.378 . S
C114 H99 0.940 . S
C114 C113 1.378 . S
C114 C115 1.396 . S
C115 H100 0.940 . S
C115 C110 1.391 . S
C115 C114 1.396 . S
C116 P96 1.803 . S
C116 C117 1.378 . S
C116 C121 1.400 . S
C117 H101 0.939 . S
C117 C116 1.378 . S
C117 C118 1.361 . S
C118 H102 0.942 . S
C118 C117 1.361 . S
C118 C119 1.369 . S
C119 C118 1.369 . S
C119 C120 1.404 . S
C120 H103 0.940 . S
C120 C119 1.404 . S
C120 C121 1.389 . S
C121 H104 0.939 . S
C121 C116 1.400 . S
C121 C120 1.389 . S
C122 P96 1.819 . S
C122 C123 1.391 . S
C122 C127 1.391 . S
C123 H105 0.941 . S
C123 C122 1.391 . S
C123 C124 1.396 . S
C124 H108 0.939 . S
C124 C123 1.396 . S
C124 C125 1.397 . S
C125 C124 1.397 . S
C125 C126 1.385 . S
C126 H109 0.940 . S
C126 C125 1.385 . S
C126 C127 1.388 . S
C127 H106 0.939 . S
C127 C122 1.391 . S
C127 C126 1.388 . S
P128 O139 1.490 . S
P128 C142 1.812 . S
P128 C148 1.803 . S
P128 C154 1.819 . S
H129 C143 0.941 . S
H130 C144 0.939 . S
H131 C146 0.940 . S
H132 C147 0.940 . S
H133 C149 0.939 . S
H134 C150 0.942 . S
H135 C152 0.940 . S
H136 C153 0.939 . S
H137 C155 0.941 . S
H138 C159 0.939 . S
O139 P128 1.490 . S
H140 C156 0.939 . S
H141 C158 0.940 . S
C142 P128 1.812 . S
C142 C143 1.389 . S
C142 C147 1.391 . S
C143 H129 0.941 . S
C143 C142 1.389 . S
C143 C144 1.397 . S
C144 H130 0.939 . S
C144 C143 1.397 . S
C144 C145 1.378 . S
C145 C144 1.378 . S
C145 C146 1.378 . S
C146 H131 0.940 . S
C146 C145 1.378 . S
C146 C147 1.396 . S
C147 H132 0.940 . S
C147 C142 1.391 . S
C147 C146 1.396 . S
C148 P128 1.803 . S
C148 C149 1.378 . S
C148 C153 1.400 . S
C149 H133 0.939 . S
C149 C148 1.378 . S
C149 C150 1.361 . S
C150 H134 0.942 . S
C150 C149 1.361 . S
C150 C151 1.369 . S
C151 C150 1.369 . S
C151 C152 1.404 . S
C152 H135 0.940 . S
C152 C151 1.404 . S
C152 C153 1.389 . S
C153 H136 0.939 . S
C153 C148 1.400 . S
C153 C152 1.389 . S
C154 P128 1.819 . S
C154 C155 1.391 . S
C154 C159 1.391 . S
C155 H137 0.941 . S
C155 C154 1.391 . S
C155 C156 1.396 . S
C156 H140 0.939 . S
C156 C155 1.396 . S
C156 C157 1.397 . S
C157 C156 1.397 . S
C157 C158 1.385 . S
C158 H141 0.940 . S
C158 C157 1.385 . S
C158 C159 1.388 . S
C159 H138 0.939 . S
C159 C154 1.391 . S
C159 C158 1.388 . S
P160 O171 1.490 . S
P160 C174 1.812 1_455 S
P160 C180 1.803 . S
P160 C186 1.819 1_455 S
H161 C175 0.941 . S
H162 C176 0.939 . S
H163 C178 0.940 . S
H164 C179 0.940 . S
H165 C181 0.939 . S
H166 C182 0.942 . S
H167 C184 0.940 . S
H168 C185 0.939 1_655 S
H169 C187 0.941 . S
H170 C191 0.939 . S
O171 P160 1.490 . S
H172 C188 0.939 . S
H173 C190 0.940 . S
C174 P160 1.812 1_655 S
C174 C175 1.389 1_655 S
C174 C179 1.391 . S
C175 H161 0.941 . S
C175 C174 1.389 1_455 S
C175 C176 1.397 1_455 S
C176 H162 0.939 . S
C176 C175 1.397 1_655 S
C176 C177 1.378 . S
C177 C176 1.378 . S
C177 C178 1.378 . S
C178 H163 0.940 . S
C178 C177 1.378 . S
C178 C179 1.396 . S
C179 H164 0.940 . S
C179 C174 1.391 . S
C179 C178 1.396 . S
C180 P160 1.803 . S
C180 C181 1.378 . S
C180 C185 1.400 . S
C181 H165 0.939 . S
C181 C180 1.378 . S
C181 C182 1.361 . S
C182 H166 0.942 . S
C182 C181 1.361 . S
C182 C183 1.369 . S
C183 C182 1.369 . S
C183 C184 1.404 . S
C184 H167 0.940 . S
C184 C183 1.404 . S
C184 C185 1.389 . S
C185 H168 0.939 1_455 S
C185 C180 1.400 . S
C185 C184 1.389 . S
C186 P160 1.819 1_655 S
C186 C187 1.391 . S
C186 C191 1.391 . S
C187 H169 0.941 . S
C187 C186 1.391 . S
C187 C188 1.396 . S
C188 H172 0.939 . S
C188 C187 1.396 . S
C188 C189 1.397 . S
C189 C188 1.397 . S
C189 C190 1.385 . S
C190 H173 0.940 . S
C190 C189 1.385 . S
C190 C191 1.388 . S
C191 H170 0.939 . S
C191 C186 1.391 . S
C191 C190 1.388 . S
P192 O203 1.490 . S
P192 C206 1.812 . S
P192 C212 1.803 . S
P192 C218 1.819 . S
H193 C207 0.941 . S
H194 C208 0.939 . S
H195 C210 0.940 . S
H196 C211 0.940 . S
H197 C213 0.939 . S
H198 C214 0.942 . S
H199 C216 0.940 . S
H200 C217 0.939 . S
H201 C219 0.941 . S
H202 C223 0.939 . S
O203 P192 1.490 . S
H204 C220 0.939 . S
H205 C222 0.940 . S
C206 P192 1.812 . S
C206 C207 1.389 . S
C206 C211 1.391 . S
C207 H193 0.941 . S
C207 C206 1.389 . S
C207 C208 1.397 . S
C208 H194 0.939 . S
C208 C207 1.397 . S
C208 C209 1.378 . S
C209 C208 1.378 . S
C209 C210 1.378 . S
C210 H195 0.940 . S
C210 C209 1.378 . S
C210 C211 1.396 . S
C211 H196 0.940 . S
C211 C206 1.391 . S
C211 C210 1.396 . S
C212 P192 1.803 . S
C212 C213 1.378 . S
C212 C217 1.400 . S
C213 H197 0.939 . S
C213 C212 1.378 . S
C213 C214 1.361 . S
C214 H198 0.942 . S
C214 C213 1.361 . S
C214 C215 1.369 . S
C215 C214 1.369 . S
C215 C216 1.404 . S
C216 H199 0.940 . S
C216 C215 1.404 . S
C216 C217 1.389 . S
C217 H200 0.939 . S
C217 C212 1.400 . S
C217 C216 1.389 . S
C218 P192 1.819 . S
C218 C219 1.391 . S
C218 C223 1.391 . S
C219 H201 0.941 . S
C219 C218 1.391 . S
C219 C220 1.396 . S
C220 H204 0.939 . S
C220 C219 1.396 . S
C220 C221 1.397 . S
C221 C220 1.397 . S
C221 C222 1.385 . S
C222 H205 0.940 . S
C222 C221 1.385 . S
C222 C223 1.388 . S
C223 H202 0.939 . S
C223 C218 1.391 . S
C223 C222 1.388 . S
P224 O235 1.490 . S
P224 C238 1.812 . S
P224 C244 1.803 . S
P224 C250 1.819 . S
H225 C239 0.941 . S
H226 C240 0.939 . S
H227 C242 0.940 . S
H228 C243 0.940 . S
H229 C245 0.939 . S
H230 C246 0.942 . S
H231 C248 0.940 . S
H232 C249 0.939 . S
H233 C251 0.941 . S
H234 C255 0.939 . S
O235 P224 1.490 . S
H236 C252 0.939 . S
H237 C254 0.940 . S
C238 P224 1.812 . S
C238 C239 1.389 . S
C238 C243 1.391 . S
C239 H225 0.941 . S
C239 C238 1.389 . S
C239 C240 1.397 . S
C240 H226 0.939 . S
C240 C239 1.397 . S
C240 C241 1.378 . S
C241 C240 1.378 . S
C241 C242 1.378 . S
C242 H227 0.940 . S
C242 C241 1.378 . S
C242 C243 1.396 . S
C243 H228 0.940 . S
C243 C238 1.391 . S
C243 C242 1.396 . S
C244 P224 1.803 . S
C244 C245 1.378 . S
C244 C249 1.400 . S
C245 H229 0.939 . S
C245 C244 1.378 . S
C245 C246 1.361 . S
C246 H230 0.942 . S
C246 C245 1.361 . S
C246 C247 1.369 . S
C247 C246 1.369 . S
C247 C248 1.404 . S
C248 H231 0.940 . S
C248 C247 1.404 . S
C248 C249 1.389 . S
C249 H232 0.939 . S
C249 C244 1.400 . S
C249 C248 1.389 . S
C250 P224 1.819 . S
C250 C251 1.391 . S
C250 C255 1.391 . S
C251 H233 0.941 . S
C251 C250 1.391 . S
C251 C252 1.396 . S
C252 H236 0.939 . S
C252 C251 1.396 . S
C252 C253 1.397 . S
C253 C252 1.397 . S
C253 C254 1.385 . S
C254 H237 0.940 . S
C254 C253 1.385 . S
C254 C255 1.388 . S
C255 H234 0.939 . S
C255 C250 1.391 . S
C255 C254 1.388 . S
Tb256 C258 2.809 1_545 S
Tb256 O276 2.484 1_545 S
Tb256 O277 2.440 1_545 S
Tb256 O278 2.658 1_655 S
Tb256 O279 2.409 . S
Tb256 O280 2.378 1_545 S
Tb256 O284 2.325 1_545 S
Tb256 O287 2.341 . S
Tb257 C267 2.809 . S
Tb257 O278 2.325 . S
Tb257 O281 2.341 1_545 S
Tb257 O282 2.484 . S
Tb257 O283 2.440 . S
Tb257 O284 2.658 1_445 S
Tb257 O285 2.409 1_545 S
Tb257 O286 2.378 . S
C258 Tb256 2.809 1_565 S
C258 C259 1.514 . S
C258 O276 1.248 . S
C258 O277 1.266 . S
C259 C258 1.514 . S
C259 C260 1.359 . S
C259 C264 1.348 . S
C260 C259 1.359 . S
C260 C261 1.380 . S
C260 H288 0.929 . S
C261 C260 1.380 . S
C261 C262 1.347 . S
C261 H289 0.931 . S
C262 C261 1.347 . S
C262 C263 1.369 . S
C263 C262 1.369 . S
C263 C264 1.408 . S
C263 H290 0.930 . S
C264 C259 1.348 . S
C264 C263 1.408 . S
C264 H291 0.930 . S
C265 O278 1.281 . S
C265 O279 1.254 1_455 S
C266 O280 1.236 1_455 S
C266 O281 1.266 . S
C267 Tb257 2.809 . S
C267 C268 1.514 . S
C267 O282 1.248 . S
C267 O283 1.266 . S
C268 C267 1.514 . S
C268 C269 1.359 . S
C268 C273 1.348 . S
C269 C268 1.359 . S
C269 C270 1.380 . S
C269 H292 0.929 . S
C270 C269 1.380 . S
C270 C271 1.347 . S
C270 H293 0.931 . S
C271 C270 1.347 . S
C271 C272 1.369 . S
C272 C271 1.369 . S
C272 C273 1.408 . S
C272 H294 0.930 . S
C273 C268 1.348 . S
C273 C272 1.408 . S
C273 H295 0.930 . S
C274 O284 1.281 . S
C274 O285 1.254 1_655 S
C275 O286 1.236 1_655 S
C275 O287 1.266 . S
O276 Tb256 2.484 1_565 S
O276 C258 1.248 . S
O277 Tb256 2.440 1_565 S
O277 C258 1.266 . S
O278 Tb256 2.658 1_455 S
O278 Tb257 2.325 . S
O278 C265 1.281 . S
O279 Tb256 2.409 . S
O279 C265 1.254 1_655 S
O280 Tb256 2.378 1_565 S
O280 C266 1.236 1_655 S
O281 Tb257 2.341 1_565 S
O281 C266 1.266 . S
O282 Tb257 2.484 . S
O282 C267 1.248 . S
O283 Tb257 2.440 . S
O283 C267 1.266 . S
O284 Tb256 2.325 1_565 S
O284 Tb257 2.658 1_665 S
O284 C274 1.281 . S
O285 Tb257 2.409 1_565 S
O285 C274 1.254 1_455 S
O286 Tb257 2.378 . S
O286 C275 1.236 1_455 S
O287 Tb256 2.341 . S
O287 C275 1.266 . S
H288 C260 0.929 . S
H289 C261 0.931 . S
H290 C263 0.930 . S
H291 C264 0.930 . S
H292 C269 0.929 . S
H293 C270 0.931 . S
H294 C272 0.930 . S
H295 C273 0.930 . S
Tb296 C298 2.809 . S
Tb296 O316 2.484 . S
Tb296 O317 2.440 . S
Tb296 O318 2.658 1_545 S
Tb296 O319 2.409 1_545 S
Tb296 O320 2.378 . S
Tb296 O324 2.325 1_554 S
Tb296 O327 2.341 1_544 S
Tb297 C307 2.809 1_545 S
Tb297 O318 2.325 1_546 S
Tb297 O321 2.341 1_556 S
Tb297 O322 2.484 1_545 S
Tb297 O323 2.440 1_545 S
Tb297 O324 2.658 . S
Tb297 O325 2.409 . S
Tb297 O326 2.378 1_545 S
C298 Tb296 2.809 . S
C298 C299 1.514 . S
C298 O316 1.248 . S
C298 O317 1.266 . S
C299 C298 1.514 . S
C299 C300 1.359 . S
C299 C304 1.348 . S
C300 C299 1.359 . S
C300 C301 1.380 . S
C300 H328 0.929 . S
C301 C300 1.380 . S
C301 C302 1.347 . S
C301 H329 0.931 . S
C302 C301 1.347 . S
C302 C303 1.369 . S
C303 C302 1.369 . S
C303 C304 1.408 . S
C303 H330 0.930 . S
C304 C299 1.348 . S
C304 C303 1.408 . S
C304 H331 0.930 . S
C305 O318 1.281 . S
C305 O319 1.254 . S
C306 O320 1.236 . S
C306 O321 1.266 . S
C307 Tb297 2.809 1_565 S
C307 C308 1.514 . S
C307 O322 1.248 . S
C307 O323 1.266 . S
C308 C307 1.514 . S
C308 C309 1.359 . S
C308 C313 1.348 . S
C309 C308 1.359 . S
C309 C310 1.380 . S
C309 H332 0.929 . S
C310 C309 1.380 . S
C310 C311 1.347 . S
C310 H333 0.931 . S
C311 C310 1.347 . S
C311 C312 1.369 . S
C312 C311 1.369 . S
C312 C313 1.408 . S
C312 H334 0.930 . S
C313 C308 1.348 . S
C313 C312 1.408 . S
C313 H335 0.930 . S
C314 O324 1.281 . S
C314 O325 1.254 . S
C315 O326 1.236 . S
C315 O327 1.266 . S
O316 Tb296 2.484 . S
O316 C298 1.248 . S
O317 Tb296 2.440 . S
O317 C298 1.266 . S
O318 Tb296 2.658 1_565 S
O318 Tb297 2.325 1_564 S
O318 C305 1.281 . S
O319 Tb296 2.409 1_565 S
O319 C305 1.254 . S
O320 Tb296 2.378 . S
O320 C306 1.236 . S
O321 Tb297 2.341 1_554 S
O321 C306 1.266 . S
O322 Tb297 2.484 1_565 S
O322 C307 1.248 . S
O323 Tb297 2.440 1_565 S
O323 C307 1.266 . S
O324 Tb296 2.325 1_556 S
O324 Tb297 2.658 . S
O324 C314 1.281 . S
O325 Tb297 2.409 . S
O325 C314 1.254 . S
O326 Tb297 2.378 1_565 S
O326 C315 1.236 . S
O327 Tb296 2.341 1_566 S
O327 C315 1.266 . S
H328 C300 0.929 . S
H329 C301 0.931 . S
H330 C303 0.930 . S
H331 C304 0.930 . S
H332 C309 0.929 . S
H333 C310 0.931 . S
H334 C312 0.930 . S
H335 C313 0.930 . S
Tb336 C338 2.809 . S
Tb336 O356 2.484 . S
Tb336 O357 2.440 . S
Tb336 O358 2.658 . S
Tb336 O359 2.409 . S
Tb336 O360 2.378 . S
Tb336 O364 2.325 . S
Tb336 O367 2.341 . S
Tb337 C347 2.809 . S
Tb337 O358 2.325 . S
Tb337 O361 2.341 . S
Tb337 O362 2.484 . S
Tb337 O363 2.440 . S
Tb337 O364 2.658 . S
Tb337 O365 2.409 . S
Tb337 O366 2.378 . S
C338 Tb336 2.809 . S
C338 C339 1.514 . S
C338 O356 1.248 . S
C338 O357 1.266 . S
C339 C338 1.514 . S
C339 C340 1.359 . S
C339 C344 1.348 . S
C340 C339 1.359 . S
C340 C341 1.380 . S
C340 H368 0.929 . S
C341 C340 1.380 . S
C341 C342 1.347 . S
C341 H369 0.931 . S
C342 C341 1.347 . S
C342 C343 1.369 . S
C343 C342 1.369 . S
C343 C344 1.408 . S
C343 H370 0.930 . S
C344 C339 1.348 . S
C344 C343 1.408 . S
C344 H371 0.930 . S
C345 O358 1.281 . S
C345 O359 1.254 . S
C346 O360 1.236 . S
C346 O361 1.266 . S
C347 Tb337 2.809 . S
C347 C348 1.514 . S
C347 O362 1.248 . S
C347 O363 1.266 . S
C348 C347 1.514 . S
C348 C349 1.359 . S
C348 C353 1.348 . S
C349 C348 1.359 . S
C349 C350 1.380 . S
C349 H372 0.929 . S
C350 C349 1.380 . S
C350 C351 1.347 . S
C350 H373 0.931 . S
C351 C350 1.347 . S
C351 C352 1.369 . S
C352 C351 1.369 . S
C352 C353 1.408 . S
C352 H374 0.930 . S
C353 C348 1.348 . S
C353 C352 1.408 . S
C353 H375 0.930 . S
C354 O364 1.281 . S
C354 O365 1.254 . S
C355 O366 1.236 . S
C355 O367 1.266 . S
O356 Tb336 2.484 . S
O356 C338 1.248 . S
O357 Tb336 2.440 . S
O357 C338 1.266 . S
O358 Tb336 2.658 . S
O358 Tb337 2.325 . S
O358 C345 1.281 . S
O359 Tb336 2.409 . S
O359 C345 1.254 . S
O360 Tb336 2.378 . S
O360 C346 1.236 . S
O361 Tb337 2.341 . S
O361 C346 1.266 . S
O362 Tb337 2.484 . S
O362 C347 1.248 . S
O363 Tb337 2.440 . S
O363 C347 1.266 . S
O364 Tb336 2.325 . S
O364 Tb337 2.658 . S
O364 C354 1.281 . S
O365 Tb337 2.409 . S
O365 C354 1.254 . S
O366 Tb337 2.378 . S
O366 C355 1.236 . S
O367 Tb336 2.341 . S
O367 C355 1.266 . S
H368 C340 0.929 . S
H369 C341 0.931 . S
H370 C343 0.930 . S
H371 C344 0.930 . S
H372 C349 0.929 . S
H373 C350 0.931 . S
H374 C352 0.930 . S
H375 C353 0.930 . S
Tb376 C378 2.809 . S
Tb376 O396 2.484 . S
Tb376 O397 2.440 . S
Tb376 O398 2.658 1_656 S
Tb376 O399 2.409 1_656 S
Tb376 O400 2.378 1_556 S
Tb376 O404 2.325 . S
Tb376 O407 2.341 1_655 S
Tb377 C387 2.809 . S
Tb377 O398 2.325 . S
Tb377 O401 2.341 1_455 S
Tb377 O402 2.484 . S
Tb377 O403 2.440 . S
Tb377 O404 2.658 1_454 S
Tb377 O405 2.409 1_455 S
Tb377 O406 2.378 1_554 S
C378 Tb376 2.809 . S
C378 C379 1.514 . S
C378 O396 1.248 . S
C378 O397 1.266 . S
C379 C378 1.514 . S
C379 C380 1.359 . S
C379 C384 1.348 . S
C380 C379 1.359 . S
C380 C381 1.380 . S
C380 H408 0.929 . S
C381 C380 1.380 . S
C381 C382 1.347 . S
C381 H409 0.931 . S
C382 C381 1.347 . S
C382 C383 1.369 . S
C383 C382 1.369 . S
C383 C384 1.408 . S
C383 H410 0.930 . S
C384 C379 1.348 . S
C384 C383 1.408 . S
C384 H411 0.930 . S
C385 O398 1.281 . S
C385 O399 1.254 . S
C386 O400 1.236 . S
C386 O401 1.266 . S
C387 Tb377 2.809 . S
C387 C388 1.514 . S
C387 O402 1.248 . S
C387 O403 1.266 . S
C388 C387 1.514 . S
C388 C389 1.359 . S
C388 C393 1.348 . S
C389 C388 1.359 . S
C389 C390 1.380 . S
C389 H412 0.929 . S
C390 C389 1.380 . S
C390 C391 1.347 . S
C390 H413 0.931 . S
C391 C390 1.347 . S
C391 C392 1.369 . S
C392 C391 1.369 . S
C392 C393 1.408 . S
C392 H414 0.930 . S
C393 C388 1.348 . S
C393 C392 1.408 . S
C393 H415 0.930 . S
C394 O404 1.281 . S
C394 O405 1.254 1_556 S
C395 O406 1.236 . S
C395 O407 1.266 . S
O396 Tb376 2.484 . S
O396 C378 1.248 . S
O397 Tb376 2.440 . S
O397 C378 1.266 . S
O398 Tb376 2.658 1_454 S
O398 Tb377 2.325 . S
O398 C385 1.281 . S
O399 Tb376 2.409 1_454 S
O399 C385 1.254 . S
O400 Tb376 2.378 1_554 S
O400 C386 1.236 . S
O401 Tb377 2.341 1_655 S
O401 C386 1.266 . S
O402 Tb377 2.484 . S
O402 C387 1.248 . S
O403 Tb377 2.440 . S
O403 C387 1.266 . S
O404 Tb376 2.325 . S
O404 Tb377 2.658 1_656 S
O404 C394 1.281 . S
O405 Tb377 2.409 1_655 S
O405 C394 1.254 1_554 S
O406 Tb377 2.378 1_556 S
O406 C395 1.236 . S
O407 Tb376 2.341 1_455 S
O407 C395 1.266 . S
H408 C380 0.929 . S
H409 C381 0.931 . S
H410 C383 0.930 . S
H411 C384 0.930 . S
H412 C389 0.929 . S
H413 C390 0.931 . S
H414 C392 0.930 . S
H415 C393 0.930 . S
C29 C271 1.864 . S
C49 C311 1.651 . S
C345 C93 3.697 . S
C119 C386 3.705 . S
C306 C17 2.945 . S
C266 C61 3.521 1_455 S
C394 C81 2.509 . S
C355 C125 2.694 . S
C23 C391 3.678 . S
C314 C87 2.903 . S
C113 C274 3.389 . S
C55 C342 2.723 . S
C262 C157 1.768 . S
C189 C302 2.322 . S
C221 C354 3.575 . S
C253 C395 3.823 . S
C145 C315 2.505 . S
C275 C183 4.081 1_655 S
C385 C209 2.393 . S
C346 C247 2.678 . S
C151 C382 3.148 . S
C305 C215 2.839 . S
C265 C241 3.391 . S
C177 C351 3.097 . S
