# Generated by pormake.
# Topology zzz, (3,6)-cn, num edge types: 1
# Building blocks:
#     Node 0, Type 0, BuildingBlock: BELTOD_clean_linker_0, # of connection points: 3
#     Node 1, Type 0, BuildingBlock: BELTOD_clean_linker_0, # of connection points: 3
#     Node 2, Type 0, BuildingBlock: BELTOD_clean_linker_0, # of connection points: 3
#     Node 3, Type 0, BuildingBlock: BELTOD_clean_linker_0, # of connection points: 3
#     Node 4, Type 0, BuildingBlock: BELTOD_clean_linker_0, # of connection points: 3
#     Node 5, Type 0, BuildingBlock: BELTOD_clean_linker_0, # of connection points: 3
#     Node 6, Type 0, BuildingBlock: BELTOD_clean_linker_0, # of connection points: 3
#     Node 7, Type 0, BuildingBlock: BELTOD_clean_linker_0, # of connection points: 3
#     Node 8, Type 1, BuildingBlock: BETFEN_clean_sbu_0, # of connection points: 6
#     Node 9, Type 1, BuildingBlock: BETFEN_clean_sbu_0, # of connection points: 6
#     Node 10, Type 1, BuildingBlock: BETFEN_clean_sbu_0, # of connection points: 6
#     Node 11, Type 1, BuildingBlock: BETFEN_clean_sbu_0, # of connection points: 6
#     Edge 12, Type (0, 1), BuildingBlock: KIFKEQ_clean_linker_1, # of connection points: 2
#     Edge 13, Type (0, 1), BuildingBlock: KIFKEQ_clean_linker_1, # of connection points: 2
#     Edge 14, Type (0, 1), BuildingBlock: KIFKEQ_clean_linker_1, # of connection points: 2
#     Edge 15, Type (0, 1), BuildingBlock: KIFKEQ_clean_linker_1, # of connection points: 2
#     Edge 16, Type (0, 1), BuildingBlock: KIFKEQ_clean_linker_1, # of connection points: 2
#     Edge 17, Type (0, 1), BuildingBlock: KIFKEQ_clean_linker_1, # of connection points: 2
#     Edge 18, Type (0, 1), BuildingBlock: KIFKEQ_clean_linker_1, # of connection points: 2
#     Edge 19, Type (0, 1), BuildingBlock: KIFKEQ_clean_linker_1, # of connection points: 2
#     Edge 20, Type (0, 1), BuildingBlock: KIFKEQ_clean_linker_1, # of connection points: 2
#     Edge 21, Type (0, 1), BuildingBlock: KIFKEQ_clean_linker_1, # of connection points: 2
#     Edge 22, Type (0, 1), BuildingBlock: KIFKEQ_clean_linker_1, # of connection points: 2
#     Edge 23, Type (0, 1), BuildingBlock: KIFKEQ_clean_linker_1, # of connection points: 2
#     Edge 24, Type (0, 1), BuildingBlock: KIFKEQ_clean_linker_1, # of connection points: 2
#     Edge 25, Type (0, 1), BuildingBlock: KIFKEQ_clean_linker_1, # of connection points: 2
#     Edge 26, Type (0, 1), BuildingBlock: KIFKEQ_clean_linker_1, # of connection points: 2
#     Edge 27, Type (0, 1), BuildingBlock: KIFKEQ_clean_linker_1, # of connection points: 2
#     Edge 28, Type (0, 1), BuildingBlock: KIFKEQ_clean_linker_1, # of connection points: 2
#     Edge 29, Type (0, 1), BuildingBlock: KIFKEQ_clean_linker_1, # of connection points: 2
#     Edge 30, Type (0, 1), BuildingBlock: KIFKEQ_clean_linker_1, # of connection points: 2
#     Edge 31, Type (0, 1), BuildingBlock: KIFKEQ_clean_linker_1, # of connection points: 2
#     Edge 32, Type (0, 1), BuildingBlock: KIFKEQ_clean_linker_1, # of connection points: 2
#     Edge 33, Type (0, 1), BuildingBlock: KIFKEQ_clean_linker_1, # of connection points: 2
#     Edge 34, Type (0, 1), BuildingBlock: KIFKEQ_clean_linker_1, # of connection points: 2
#     Edge 35, Type (0, 1), BuildingBlock: KIFKEQ_clean_linker_1, # of connection points: 2
# Relax obj value: 0.437
# Max RMSD: 0.257
# Mean RMSD: 0.244
data_MOF--net-zzz--node1-BETFEN_clean_sbu_0--node2-BELTOD_clean_linker_0--edge1-KIFKEQ_clean_linker_1
_symmetry_space_group_name_H-M    P1
_symmetry_Int_Tables_number       1
_symmetry_cell_setting            triclinic
loop_
_symmetry_equiv_pos_as_xyz
'x, y, z'
_cell_length_a     56.471299
_cell_length_b     56.510704
_cell_length_c     17.305526
_cell_angle_alpha  90.019892
_cell_angle_beta   89.925094
_cell_angle_gamma 89.931554
loop_
_atom_site_label
_atom_site_type_symbol
_atom_site_fract_x
_atom_site_fract_y
_atom_site_fract_z
_atom_type_partial_charge
P0 P 0.73143 0.47398 0.38888 0.0
H1 H 0.74268 0.49187 0.54362 0.0
H2 H 0.78004 0.50576 0.5974 0.0
H3 H 0.80883 0.51203 0.3671 0.0
H4 H 0.77125 0.49822 0.3135 0.0
H5 H 0.68431 0.45773 0.3527 0.0
H6 H 0.65587 0.46784 0.25317 0.0
H7 H 0.70129 0.52485 0.17703 0.0
H8 H 0.73028 0.51383 0.27629 0.0
H9 H 0.77013 0.44496 0.44368 0.0
H10 H 0.72989 0.45191 0.23319 0.0
O11 O 0.71737 0.46221 0.46454 0.0
H12 H 0.79973 0.42189 0.37594 0.0
H13 H 0.75852 0.4272 0.16582 0.0
C14 C 0.754 0.49402 0.42429 0.0
C15 C 0.75663 0.49711 0.50428 0.0
C16 C 0.77821 0.50475 0.53519 0.0
C17 C 0.79767 0.50951 0.48675 0.0
C18 C 0.79426 0.50858 0.4062 0.0
C19 C 0.77262 0.50088 0.37531 0.0
C20 C 0.70923 0.48531 0.32322 0.0
C21 C 0.68796 0.47276 0.3158 0.0
C22 C 0.67159 0.47866 0.25855 0.0
C23 C 0.676 0.49735 0.20677 0.0
C24 C 0.69727 0.51022 0.21522 0.0
C25 C 0.71381 0.50413 0.2726 0.0
C26 C 0.74813 0.45068 0.34327 0.0
C27 C 0.76721 0.44073 0.38337 0.0
C28 C 0.78411 0.42726 0.34432 0.0
C29 C 0.78195 0.42299 0.26444 0.0
C30 C 0.76126 0.43076 0.22662 0.0
C31 C 0.74466 0.44479 0.26543 0.0
P32 P 0.04375 0.73039 0.40637 0.0
H33 H 0.0248 0.74413 0.55776 0.0
H34 H 1.01043 0.78239 0.603 0.0
H35 H 1.00432 0.80621 0.36681 0.0
H36 H 0.01846 0.76771 0.32185 0.0
H37 H 0.06077 0.68272 0.38218 0.0
H38 H 0.05228 0.65262 0.28509 0.0
H39 H 0.99581 0.69594 0.1945 0.0
H40 H 1.00459 0.72641 0.29208 0.0
H41 H 0.0687 0.77344 0.44635 0.0
H42 H 0.06941 0.72351 0.25781 0.0
O43 O 0.05584 0.7183 0.48498 0.0
H44 H 0.08963 0.80179 0.36803 0.0
H45 H 0.09266 0.7509 0.18082 0.0
C46 C 0.02278 0.75292 0.43625 0.0
C47 C 0.01943 0.75715 0.51539 0.0
C48 C 0.01151 0.77926 0.54134 0.0
C49 C 1.00682 0.79764 0.48866 0.0
C50 C 1.00776 0.79251 0.40909 0.0
C51 C 0.01564 0.77033 0.38317 0.0
C52 C 0.03311 0.70671 0.34532 0.0
C53 C 0.04614 0.68557 0.34288 0.0
C54 C 0.04141 0.66843 0.28693 0.0
C55 C 0.02344 0.67196 0.23215 0.0
C56 C 1.00964 0.69269 0.23651 0.0
C57 C 0.01463 0.71009 0.29225 0.0
C58 C 0.06656 0.74678 0.35701 0.0
C59 C 0.07415 0.76824 0.38874 0.0
C60 C 0.08652 0.78447 0.34355 0.0
C61 C 0.09233 0.7792 0.26615 0.0
C62 C 0.08756 0.7562 0.23858 0.0
C63 C 0.07441 0.74027 0.28314 0.0
P64 P 0.78918 0.0396 0.38223 0.0
H65 H 0.77501 0.02803 0.54087 0.0
H66 H 0.73716 0.01495 0.59262 0.0
H67 H 0.71396 0.99719 0.36201 0.0
H68 H 0.75148 0.01125 0.31049 0.0
H69 H 0.84082 0.03425 0.38276 0.0
H70 H 0.86916 0.02404 0.28166 0.0
H71 H 0.81146 1.00564 0.12969 0.0
H72 H 0.78317 0.0163 0.23054 0.0
H73 H 0.74821 0.06677 0.43186 0.0
H74 H 0.79438 0.06539 0.23303 0.0
O75 O 0.80452 0.05144 0.45498 0.0
H76 H 0.7199 0.09051 0.361 0.0
H77 H 0.76626 0.08985 0.16185 0.0
C78 C 0.76642 0.02046 0.42153 0.0
C79 C 0.7622 0.02049 0.50152 0.0
C80 C 0.74035 0.01303 0.53124 0.0
C81 C 0.7222 1.00539 0.48149 0.0
C82 C 0.72729 1.00343 0.40204 0.0
C83 C 0.74909 0.01101 0.37241 0.0
C84 C 0.80972 0.02603 0.31477 0.0
C85 C 0.83418 0.02746 0.32848 0.0
C86 C 0.85047 0.02156 0.27045 0.0
C87 C 0.84261 0.01426 0.19715 0.0
C88 C 0.81811 0.0115 0.18516 0.0
C89 C 0.80185 0.01726 0.24343 0.0
C90 C 0.77281 0.06318 0.33654 0.0
C91 C 0.75253 0.07201 0.37335 0.0
C92 C 0.73639 0.08591 0.33276 0.0
C93 C 0.74046 0.09165 0.25477 0.0
C94 C 0.76222 0.08512 0.22105 0.0
C95 C 0.77832 0.07102 0.26175 0.0
P96 P 0.47697 0.78934 0.39463 0.0
H97 H 0.49553 0.77655 0.54724 0.0
H98 H 0.51064 0.7389 0.59535 0.0
H99 H 0.51644 0.71316 0.36106 0.0
H100 H 0.50165 0.75106 0.31327 0.0
H101 H 0.4598 0.83627 0.3597 0.0
H102 H 0.47102 0.86592 0.26495 0.0
H103 H 0.53068 0.82267 0.19629 0.0
H104 H 0.51868 0.79256 0.29043 0.0
H105 H 0.44771 0.75012 0.44309 0.0
H106 H 0.45673 0.7919 0.23666 0.0
O107 O 0.46467 0.80213 0.47186 0.0
H108 H 0.42602 0.7207 0.37017 0.0
H109 H 0.43341 0.76343 0.16395 0.0
C110 C 0.49741 0.76671 0.42655 0.0
C111 C 0.50093 0.76321 0.50591 0.0
C112 C 0.50929 0.74148 0.53349 0.0
C113 C 0.51422 0.72276 0.48222 0.0
C114 C 0.51288 0.72714 0.40227 0.0
C115 C 0.50456 0.74894 0.37474 0.0
C116 C 0.48861 0.81238 0.33315 0.0
C117 C 0.4756 0.83336 0.32543 0.0
C118 C 0.48213 0.85041 0.2711 0.0
C119 C 0.5019 0.8469 0.22282 0.0
C120 C 0.51524 0.82595 0.23186 0.0
C121 C 0.50855 0.80877 0.28624 0.0
C122 C 0.45425 0.77295 0.34523 0.0
C123 C 0.44415 0.75343 0.38254 0.0
C124 C 0.43152 0.73662 0.34047 0.0
C125 C 0.42829 0.73928 0.26024 0.0
C126 C 0.43619 0.76033 0.22499 0.0
C127 C 0.44938 0.77686 0.26688 0.0
P128 P 0.30027 0.45041 0.05669 0.0
H129 H 0.28361 0.4543 0.89731 0.0
H130 H 0.24591 0.46862 0.84678 0.0
H131 H 0.23143 0.50321 0.0637 0.0
H132 H 0.2689 0.48809 0.11559 0.0
H133 H 0.34242 0.42815 0.11638 0.0
H134 H 0.37241 0.44007 0.20907 0.0
H135 H 0.34118 0.50988 0.22008 0.0
H136 H 0.3107 0.49743 0.12787 0.0
H137 H 0.26059 0.41993 0.02074 0.0
H138 H 0.2959 0.44487 0.22609 0.0
O139 O 0.31181 0.43226 0.99045 0.0
H140 H 0.22472 0.41333 0.09486 0.0
H141 H 0.26066 0.43661 0.30175 0.0
C142 C 0.2796 0.47047 0.01005 0.0
C143 C 0.27298 0.46584 0.93327 0.0
C144 C 0.25122 0.47381 0.90449 0.0
C145 C 0.23571 0.48691 0.95142 0.0
C146 C 0.24316 0.49334 0.02601 0.0
C147 C 0.26482 0.485 0.05532 0.0
C148 C 0.32443 0.46193 0.11423 0.0
C149 C 0.34229 0.4462 0.13741 0.0
C150 C 0.35954 0.45311 0.19062 0.0
C151 C 0.35942 0.47602 0.22247 0.0
C152 C 0.34175 0.492 0.19767 0.0
C153 C 0.32436 0.48498 0.14429 0.0
C154 C 0.2807 0.43353 0.11724 0.0
C155 C 0.26109 0.42265 0.08269 0.0
C156 C 0.2405 0.41878 0.12549 0.0
C157 C 0.23952 0.42534 0.20383 0.0
C158 C 0.2606 0.43223 0.24082 0.0
C159 C 0.28094 0.43677 0.19751 0.0
P160 P 0.06167 0.29937 0.05787 0.0
H161 H 0.0528 0.28494 0.89922 0.0
H162 H 0.03711 0.24819 0.84953 0.0
H163 H 1.00754 0.23244 0.07436 0.0
H164 H 0.02462 0.26907 0.12459 0.0
H165 H 0.08924 0.32669 0.16618 0.0
H166 H 0.07939 0.35566 0.26523 0.0
H167 H 1.0051 0.3478 0.21101 0.0
H168 H 0.01528 0.31806 0.11259 0.0
H169 H 0.0952 0.26816 0.98164 0.0
H170 H 0.07026 0.2809 0.21368 0.0
O171 O 0.0751 0.31484 0.98841 0.0
H172 H 0.10889 0.22884 0.0204 0.0
H173 H 0.08475 0.24224 0.253 0.0
C174 C 0.03966 0.28011 0.01558 0.0
C175 C 0.04202 0.27419 0.93722 0.0
C176 C 0.03306 0.25284 0.90875 0.0
C177 C 0.0213 0.23681 0.95789 0.0
C178 C 0.01699 0.2439 0.03488 0.0
C179 C 0.02623 0.26523 0.06349 0.0
C180 C 0.05299 0.31991 0.13297 0.0
C181 C 0.07079 0.33104 0.176 0.0
C182 C 0.06511 0.34787 0.2322 0.0
C183 C 0.04142 0.35431 0.24618 0.0
C184 C 0.02352 0.34313 0.20256 0.0
C185 C 0.02929 0.32613 0.14614 0.0
C186 C 0.08192 0.27762 0.09485 0.0
C187 C 0.09399 0.26314 0.04192 0.0
C188 C 0.10169 0.24063 0.06387 0.0
C189 C 0.09782 0.23257 0.13952 0.0
C190 C 0.08826 0.24817 0.19456 0.0
C191 C 0.08004 0.27042 0.17211 0.0
P192 P 0.22274 0.07624 0.06225 0.0
H193 H 0.23948 0.07523 0.90275 0.0
H194 H 0.27644 0.0598 0.84996 0.0
H195 H 0.28693 0.01836 0.05622 0.0
H196 H 0.25004 0.03427 0.11001 0.0
H197 H 0.1861 0.10098 0.14522 0.0
H198 H 0.15549 0.08882 0.23583 0.0
H199 H 0.17557 0.01568 0.20225 0.0
H200 H 0.20665 0.02824 0.11182 0.0
H201 H 0.26033 0.10968 0.02852 0.0
H202 H 0.23421 0.07142 0.22667 0.0
O203 O 0.21183 0.0963 1.00111 0.0
H204 H 0.29933 0.11214 0.08827 0.0
H205 H 0.27285 0.07451 0.28738 0.0
C206 C 0.24153 0.05567 0.01009 0.0
C207 C 0.24899 0.06195 0.93543 0.0
C208 C 0.27038 0.05337 0.90555 0.0
C209 C 0.2847 0.0381 0.94932 0.0
C210 C 0.27618 0.02998 0.02094 0.0
C211 C 0.25484 0.03883 0.05129 0.0
C212 C 0.19858 0.06555 0.12133 0.0
C213 C 0.18371 0.08227 0.15642 0.0
C214 C 0.16608 0.07525 0.20819 0.0
C215 C 0.16286 0.05122 0.22648 0.0
C216 C 0.17764 0.03437 0.1902 0.0
C217 C 0.19538 0.04149 0.13808 0.0
C218 C 0.2444 0.09021 0.12274 0.0
C219 C 0.26252 0.10319 0.08697 0.0
C220 C 0.28488 0.10453 0.12109 0.0
C221 C 0.28918 0.09298 0.19149 0.0
C222 C 0.27003 0.08321 0.23236 0.0
C223 C 0.2478 0.08165 0.19789 0.0
P224 P 0.45574 0.22381 0.054 0.0
H225 H 0.46848 0.23756 0.89639 0.0
H226 H 0.48516 0.27456 0.84908 0.0
H227 H 0.50655 0.29263 0.08107 0.0
H228 H 0.48996 0.25536 0.12809 0.0
H229 H 0.42855 0.19042 0.14368 0.0
H230 H 0.43887 0.16058 0.23983 0.0
H231 H 0.51268 0.1795 0.21749 0.0
H232 H 0.50207 0.2096 0.1211 0.0
H233 H 0.42033 0.25455 0.98497 0.0
H234 H 0.44926 0.24148 0.21135 0.0
O235 O 0.44231 0.20954 0.98191 0.0
H236 H 0.40741 0.29379 0.02653 0.0
H237 H 0.4368 0.28054 0.25286 0.0
C238 C 0.47811 0.24345 0.01585 0.0
C239 C 0.47782 0.24883 0.93668 0.0
C240 C 0.48722 0.27019 0.90964 0.0
C241 C 0.49681 0.28676 0.96151 0.0
C242 C 0.49899 0.28039 0.03978 0.0
C243 C 0.48986 0.25886 0.06656 0.0
C244 C 0.4645 0.20227 0.12551 0.0
C245 C 0.44697 0.18815 0.15947 0.0
C246 C 0.45293 0.17097 0.21413 0.0
C247 C 0.47664 0.1675 0.23621 0.0
C248 C 0.49423 0.18183 0.20227 0.0
C249 C 0.48822 0.19902 0.14703 0.0
C250 C 0.43565 0.24502 0.09512 0.0
C251 C 0.42273 0.25957 0.04486 0.0
C252 C 0.41565 0.28216 0.06836 0.0
C253 C 0.4215 0.29048 0.14247 0.0
C254 C 0.43184 0.2747 0.19552 0.0
C255 C 0.43893 0.25216 0.17188 0.0
Pr256 Pr 0.01847 1.01022 0.79399 0.0
Pr257 Pr 0.99028 0.02718 0.63045 0.0
C258 C 0.02958 0.99242 0.93272 0.0
C259 C 0.04332 0.97149 0.95527 0.0
C260 C 0.05284 0.96957 0.02973 0.0
C261 C 0.06495 0.94901 0.05158 0.0
C262 C 0.06744 0.93012 0.99925 0.0
C263 C 0.05859 0.93252 0.92389 0.0
C264 C 0.04676 0.95309 0.90194 0.0
C265 C 0.04983 0.01868 0.66972 0.0
C266 C 1.00164 0.96952 0.6617 0.0
C267 C 0.984 0.04376 0.48679 0.0
C268 C 0.99807 0.05987 0.43731 0.0
C269 C 0.99691 0.08446 0.44847 0.0
C270 C 0.01245 0.09947 0.40965 0.0
C271 C 0.02958 0.0903 0.35872 0.0
C272 C 0.02979 0.06586 0.34373 0.0
C273 C 0.01415 0.05079 0.3826 0.0
C274 C 0.9587 0.01728 0.75191 0.0
C275 C 1.00711 0.06715 0.76447 0.0
O276 O 1.00945 0.98796 0.89785 0.0
O277 O 0.0417 1.00955 0.90045 0.0
O278 O 0.02771 0.02082 0.67174 0.0
O279 O 0.057 0.01154 0.7372 0.0
O280 O 0.99449 0.98611 0.61255 0.0
O281 O 1.00988 0.97422 0.73193 0.0
O282 O 0.99324 0.02289 0.50074 0.0
O283 O 0.97386 0.05325 0.54767 0.0
O284 O 0.98093 0.01668 0.75226 0.0
O285 O 0.95151 0.02273 0.68259 0.0
O286 O 0.01061 0.05024 0.81635 0.0
O287 O 1.00261 0.06277 0.69036 0.0
H288 H 0.05049 0.98373 0.0713 0.0
H289 H 0.07148 0.94746 0.1102 0.0
H290 H 0.06043 0.91827 0.88241 0.0
H291 H 0.03984 0.95443 0.84375 0.0
H292 H 0.98445 0.09217 0.48895 0.0
H293 H 0.01122 0.11831 0.42041 0.0
H294 H 0.04264 0.05827 0.30437 0.0
H295 H 0.01528 0.03192 0.37205 0.0
Pr296 Pr 0.51285 0.02331 0.79961 0.0
Pr297 Pr 0.49554 0.99377 0.65679 0.0
C298 C 0.52457 0.04479 0.93277 0.0
C299 C 0.5454 0.0581 0.95852 0.0
C300 C 0.54384 0.07342 0.02195 0.0
C301 C 0.5639 0.08565 0.04739 0.0
C302 C 0.58584 0.08266 0.0098 0.0
C303 C 0.58706 0.06766 0.94495 0.0
C304 C 0.56701 0.0556 0.91938 0.0
C305 C 0.50921 0.04822 0.66065 0.0
C306 C 0.5537 1.00228 0.6853 0.0
C307 C 0.48334 0.98369 0.51067 0.0
C308 C 0.47084 0.99653 0.449 0.0
C309 C 0.45075 0.98638 0.41527 0.0
C310 C 0.43664 0.9996 0.36516 0.0
C311 C 0.44242 0.02322 0.34788 0.0
C312 C 0.46335 0.03288 0.37802 0.0
C313 C 0.47747 0.01965 0.42816 0.0
C314 C 0.50523 0.96185 0.77703 0.0
C315 C 0.45475 0.0127 0.77895 0.0
O316 O 0.52797 0.02218 0.92021 0.0
O317 O 0.51173 0.05502 0.8795 0.0
O318 O 0.4943 0.03344 0.68559 0.0
O319 O 0.52678 0.05068 0.70831 0.0
O320 O 0.53641 0.99868 0.63522 0.0
O321 O 0.54933 1.00874 0.75723 0.0
O322 O 0.50429 0.99169 0.52987 0.0
O323 O 0.4704 0.97744 0.57021 0.0
O324 O 0.50748 0.98399 0.77936 0.0
O325 O 0.49775 0.95534 0.70944 0.0
O326 O 0.47217 0.01864 0.82623 0.0
O327 O 0.45881 1.00495 0.70807 0.0
H328 H 0.52719 0.07574 0.0522 0.0
H329 H 0.56227 0.09728 0.09687 0.0
H330 H 0.60368 0.06457 0.91533 0.0
H331 H 0.56848 0.04397 0.86978 0.0
H332 H 0.44536 0.96857 0.43044 0.0
H333 H 0.42047 0.99172 0.34352 0.0
H334 H 0.4684 0.05087 0.36466 0.0
H335 H 0.49305 0.02786 0.4527 0.0
Pr336 Pr 0.50308 0.51245 0.79636 0.0
Pr337 Pr 0.53011 0.49413 0.63265 0.0
C338 C 0.49168 0.52964 0.93581 0.0
C339 C 0.47607 0.54878 0.96295 0.0
C340 C 0.4622 0.5457 0.02939 0.0
C341 C 0.44772 0.56408 0.05615 0.0
C342 C 0.447 0.58593 0.01703 0.0
C343 C 0.46056 0.58863 0.94929 0.0
C344 C 0.47478 0.57022 0.92227 0.0
C345 C 0.4712 0.50451 0.67285 0.0
C346 C 0.52106 0.55228 0.66406 0.0
C347 C 0.53424 0.4776 0.48814 0.0
C348 C 0.51752 0.46434 0.43977 0.0
C349 C 0.51944 0.46474 0.35911 0.0
C350 C 0.50363 0.45169 0.31376 0.0
C351 C 0.48569 0.43802 0.34855 0.0
C352 C 0.48345 0.43838 0.42951 0.0
C353 C 0.49917 0.45144 0.47456 0.0
C354 C 0.56263 0.50167 0.75334 0.0
C355 C 0.51313 0.45553 0.76795 0.0
O356 O 0.51064 0.53626 0.8976 0.0
O357 O 0.48113 0.51111 0.90594 0.0
O358 O 0.49321 0.50196 0.67491 0.0
O359 O 0.46422 0.51167 0.74057 0.0
O360 O 0.52732 0.53533 0.61482 0.0
O361 O 0.51301 0.54806 0.73484 0.0
O362 O 0.52827 0.49954 0.50315 0.0
O363 O 0.54243 0.4662 0.54852 0.0
O364 O 0.5405 0.50439 0.75433 0.0
O365 O 0.56914 0.49514 0.68417 0.0
O366 O 0.5122 0.47276 0.8198 0.0
O367 O 0.51517 0.45968 0.69265 0.0
H368 H 0.46274 0.52915 0.06095 0.0
H369 H 0.43729 0.56124 0.10785 0.0
H370 H 0.46089 0.60526 0.91828 0.0
H371 H 0.4851 0.57295 0.87019 0.0
H372 H 0.53328 0.47492 0.33132 0.0
H373 H 0.50564 0.45207 0.25153 0.0
H374 H 0.47011 0.42788 0.45852 0.0
H375 H 0.49719 0.45121 0.53685 0.0
Pr376 Pr 1.00762 0.4992 0.81744 0.0
Pr377 Pr 0.02451 0.5277 0.65612 0.0
C378 C 0.99191 0.48688 0.95791 0.0
C379 C 0.97305 0.47097 0.98479 0.0
C380 C 0.97606 0.45759 0.05224 0.0
C381 C 0.95798 0.44262 0.07808 0.0
C382 C 0.93654 0.4409 0.03693 0.0
C383 C 0.93394 0.45399 0.96827 0.0
C384 C 0.95205 0.46871 0.94222 0.0
C385 C 0.01489 0.46803 0.69208 0.0
C386 C 0.96662 0.51683 0.68817 0.0
C387 C 0.03861 0.53637 0.51061 0.0
C388 C 0.05484 0.52499 0.45477 0.0
C389 C 0.07811 0.53337 0.44735 0.0
C390 C 0.09464 0.52091 0.40353 0.0
C391 C 0.08822 0.49983 0.36593 0.0
C392 C 0.06462 0.49221 0.36912 0.0
C393 C 0.04796 0.50486 0.41249 0.0
C394 C 0.01666 0.55929 0.77958 0.0
C395 C 0.06499 0.50884 0.78324 0.0
O396 O 0.98488 0.5061 0.92208 0.0
O397 O 1.01017 0.47661 0.92515 0.0
O398 O 0.01782 0.49005 0.69471 0.0
O399 O 1.00744 0.46094 0.7593 0.0
O400 O 0.98335 0.52442 0.64027 0.0
O401 O 0.97118 0.50803 0.7578 0.0
O402 O 0.01888 0.5252 0.527 0.0
O403 O 0.04859 0.54604 0.5713 0.0
O404 O 0.01434 0.53715 0.7794 0.0
O405 O 0.02274 0.56618 0.71064 0.0
O406 O 0.04823 0.50608 0.83631 0.0
O407 O 0.06025 0.51354 0.7096 0.0
H408 H 0.99232 0.45886 0.08518 0.0
H409 H 0.96072 0.43258 0.1306 0.0
H410 H 0.91759 0.45355 0.93571 0.0
H411 H 0.94945 0.47863 0.88933 0.0
H412 H 0.08384 0.54907 0.478 0.0
H413 H 0.11276 0.52716 0.40231 0.0
H414 H 0.0592 0.47624 0.33941 0.0
H415 H 0.02995 0.49837 0.41511 0.0
H416 H 0.1183 0.06967 0.24981 0.0
H417 H 0.1666 0.01695 0.3385 0.0
H418 H 0.09087 0.06127 0.35479 0.0
H419 H 0.1386 1.00766 0.44122 0.0
H420 H 0.09791 0.01799 0.66752 0.0
H421 H 0.1243 0.02455 0.55816 0.0
H422 H 0.06378 0.03347 0.40877 0.0
H423 H 0.03742 0.02811 0.51982 0.0
C424 C 0.12303 0.05614 0.29133 0.0
C425 C 0.14488 0.04418 0.28578 0.0
C426 C 0.10711 0.05111 0.35123 0.0
C427 C 0.1125 0.03388 0.40725 0.0
C428 C 0.13397 0.02134 0.40012 0.0
C429 C 0.14994 0.02643 0.34034 0.0
C430 C 0.09023 0.02144 0.61131 0.0
C431 C 0.06554 0.02259 0.60218 0.0
C432 C 0.10538 0.02501 0.5483 0.0
C433 C 0.09623 0.02959 0.47415 0.0
C434 C 0.07146 0.03051 0.46512 0.0
C435 C 0.05632 0.02723 0.52851 0.0
H436 H 0.50799 0.17067 0.35687 0.0
H437 H 0.45891 0.12254 0.2483 0.0
H438 H 0.51619 0.14125 0.45632 0.0
H439 H 0.46722 0.09306 0.34689 0.0
H440 H 0.46785 0.05585 0.58243 0.0
H441 H 0.46059 0.08426 0.47893 0.0
H442 H 0.53441 0.10441 0.48325 0.0
H443 H 0.54128 0.07671 0.58902 0.0
C444 C 0.4992 0.15368 0.35357 0.0
C445 C 0.48271 0.14906 0.29469 0.0
C446 C 0.50392 0.13673 0.41065 0.0
C447 C 0.49238 0.11463 0.41014 0.0
C448 C 0.47619 0.10992 0.35031 0.0
C449 C 0.47143 0.12687 0.2935 0.0
C450 C 0.48251 0.06633 0.561 0.0
C451 C 0.50511 0.06414 0.59398 0.0
C452 C 0.47841 0.08255 0.50126 0.0
C453 C 0.49689 0.09679 0.47239 0.0
C454 C 0.51962 0.09414 0.50464 0.0
C455 C 0.52363 0.07811 0.56495 0.0
H456 H 0.3523 0.50371 0.35125 0.0
H457 H 0.40634 0.46297 0.23444 0.0
H458 H 0.37975 0.51195 0.45579 0.0
H459 H 0.4334 0.47013 0.34094 0.0
H460 H 0.48362 0.50108 0.52038 0.0
H461 H 0.45763 0.49596 0.40908 0.0
H462 H 0.39714 0.49415 0.56259 0.0
H463 H 0.42329 0.50007 0.67263 0.0
C464 C 0.37008 0.49661 0.34739 0.0
C465 C 0.3769 0.48251 0.2841 0.0
C466 C 0.3858 0.50101 0.40833 0.0
C467 C 0.40882 0.49133 0.40829 0.0
C468 C 0.41589 0.47789 0.34371 0.0
C469 C 0.4002 0.47356 0.28262 0.0
C470 C 0.46481 0.49943 0.52997 0.0
C471 C 0.45556 0.50082 0.6051 0.0
C472 C 0.44979 0.49647 0.46617 0.0
C473 C 0.42506 0.49472 0.47605 0.0
C474 C 0.41593 0.49596 0.55182 0.0
C475 C 0.43096 0.49914 0.61529 0.0
H476 H 1.00413 0.35497 0.34884 0.0
H477 H 0.06578 0.39505 0.28051 0.0
H478 H 0.99634 0.38343 0.45169 0.0
H479 H 0.05876 0.42272 0.38563 0.0
H480 H 0.03031 0.47973 0.54694 0.0
H481 H 0.03461 0.45346 0.43487 0.0
H482 H 0.01151 0.39445 0.57415 0.0
H483 H 1.00629 0.42085 0.68404 0.0
C484 C 0.01597 0.3699 0.35533 0.0
C485 C 0.03572 0.37248 0.30646 0.0
C486 C 0.01168 0.3861 0.41516 0.0
C487 C 0.02704 0.40534 0.42798 0.0
C488 C 0.0464 0.40829 0.37764 0.0
C489 C 0.05063 0.39215 0.31773 0.0
C490 C 0.02593 0.46121 0.55285 0.0
C491 C 0.01779 0.45243 0.62381 0.0
C492 C 0.02861 0.44608 0.48905 0.0
C493 C 0.0234 0.42176 0.49499 0.0
C494 C 0.01528 0.41308 0.56648 0.0
C495 C 0.01248 0.42821 0.62988 0.0
H496 H 0.83755 0.03027 0.04948 0.0
H497 H 0.88665 0.99317 0.19723 0.0
H498 H 0.86596 0.02878 0.94435 0.0
H499 H 0.91518 0.99116 0.09088 0.0
H500 H 0.96942 0.01752 0.90663 0.0
H501 H 0.9416 0.01474 0.01497 0.0
H502 H 0.88419 1.0039 0.85375 0.0
H503 H 0.91182 1.00763 0.74654 0.0
C504 C 0.85426 0.02132 0.05906 0.0
C505 C 0.85969 0.01168 0.13176 0.0
C506 C 0.87064 0.02043 0.99852 0.0
C507 C 0.89295 1.00969 0.00847 0.0
C508 C 0.89834 0.99983 0.08111 0.0
C509 C 0.88194 1.00088 0.14206 0.0
C510 C 0.95089 0.01424 0.89479 0.0
C511 C 0.94275 0.01289 0.81828 0.0
C512 C 0.9349 0.01259 0.95681 0.0
C513 C 0.91048 1.00938 0.94346 0.0
C514 C 0.90269 1.00699 0.86661 0.0
C515 C 0.91857 1.00893 0.80496 0.0
H516 H 0.51815 0.83819 0.07566 0.0
H517 H 0.49797 0.89544 0.22778 0.0
H518 H 0.52309 0.8662 0.97036 0.0
H519 H 0.5013 0.9232 0.12112 0.0
H520 H 0.52175 0.97165 0.9229 0.0
H521 H 0.52516 0.94421 0.03187 0.0
H522 H 0.49819 0.88778 0.888 0.0
H523 H 0.49574 0.91489 0.77958 0.0
C524 C 0.515 0.85676 0.08712 0.0
C525 C 0.50739 0.86439 0.16045 0.0
C526 C 0.51748 0.87285 0.02614 0.0
C527 C 0.5122 0.89702 0.03644 0.0
C528 C 0.50564 0.90481 0.11067 0.0
C529 C 0.50338 0.88876 0.17183 0.0
C530 C 0.5168 0.95331 0.91475 0.0
C531 C 0.50846 0.94542 0.84282 0.0
C532 C 0.51861 0.93758 0.97723 0.0
C533 C 0.51197 0.91365 0.96915 0.0
C534 C 0.50395 0.90586 0.89651 0.0
C535 C 0.50233 0.9215 0.83424 0.0
H536 H 0.62732 0.49421 0.20851 0.0
H537 H 0.68582 0.51155 0.05773 0.0
H538 H 0.60024 0.49688 0.10019 0.0
H539 H 0.65845 0.51607 0.95046 0.0
H540 H 0.60956 0.49141 0.75678 0.0
H541 H 0.63643 0.49287 0.86615 0.0
H542 H 0.57977 0.5197 0.0101 0.0
H543 H 0.55263 0.51695 0.90059 0.0
C544 C 0.63446 0.49881 0.15242 0.0
C545 C 0.65897 0.50225 0.14223 0.0
C546 C 0.61876 0.50073 0.09012 0.0
C547 C 0.627 0.50648 0.01565 0.0
C548 C 0.65137 0.51106 0.00627 0.0
C549 C 0.66712 0.50886 0.06844 0.0
C550 C 0.60286 0.49772 0.81175 0.0
C551 C 0.57895 0.50409 0.82002 0.0
C552 C 0.61837 0.49877 0.87465 0.0
C553 C 0.6105 0.50651 0.94769 0.0
C554 C 0.58655 0.51331 0.9554 0.0
C555 C 0.57095 0.51197 0.89243 0.0
H556 H 0.05787 0.65631 0.13543 0.0
H557 H 0.98311 0.64935 0.18204 0.0
H558 H 0.05434 0.62859 0.02776 0.0
H559 H 0.97967 0.62101 0.07426 0.0
H560 H 0.99996 0.54995 0.92652 0.0
H561 H 0.99958 0.57713 0.03785 0.0
H562 H 0.03017 0.63182 0.89558 0.0
H563 H 0.03004 0.60513 0.78495 0.0
C564 C 0.0407 0.64868 0.12291 0.0
C565 C 0.02077 0.65496 0.16712 0.0
C566 C 0.03868 0.63289 0.06119 0.0
C567 C 0.01675 0.62264 0.04285 0.0
C568 C 0.9968 0.62858 0.08759 0.0
C569 C 0.99873 0.64485 0.1487 0.0
C570 C 1.00634 0.56783 0.91911 0.0
C571 C 0.01506 0.57537 0.84711 0.0
C572 C 1.00605 0.58338 0.98257 0.0
C573 C 0.01494 0.60653 0.97521 0.0
C574 C 0.02334 0.61405 0.90296 0.0
C575 C 0.02321 0.59874 0.83962 0.0
H576 H 0.11989 0.21032 0.25999 0.0
H577 H 0.07569 0.19769 0.06108 0.0
H578 H 0.11124 0.17052 0.3074 0.0
H579 H 0.06597 0.15867 0.10961 0.0
H580 H 0.04688 0.08986 0.20995 0.0
H581 H 0.07243 0.11935 0.1493 0.0
H582 H 0.07673 0.15693 0.36665 0.0
H583 H 0.05273 0.12687 0.42752 0.0
C584 C 0.10887 0.19873 0.22549 0.0
C585 C 0.09839 0.20701 0.15723 0.0
C586 C 0.10368 0.17605 0.25283 0.0
C587 C 0.08741 0.16153 0.21345 0.0
C588 C 0.07872 0.16913 0.14143 0.0
C589 C 0.08427 0.1916 0.11344 0.0
C590 C 0.05383 0.10411 0.24504 0.0
C591 C 0.04727 0.10638 0.32307 0.0
C592 C 0.06833 0.12113 0.21017 0.0
C593 C 0.07644 0.14078 0.25259 0.0
C594 C 0.07111 0.14204 0.33189 0.0
C595 C 0.05687 0.12499 0.36668 0.0
H596 H 0.32911 0.12097 0.1989 0.0
H597 H 0.30448 0.04911 0.22644 0.0
H598 H 0.37001 0.10752 0.22222 0.0
H599 H 0.34467 0.03593 0.24973 0.0
H600 H 0.41741 0.01237 0.21771 0.0
H601 H 0.38227 0.03284 0.17002 0.0
H602 H 0.39288 0.08833 0.33795 0.0
H603 H 0.42799 0.06784 0.38599 0.0
C604 C 0.33243 0.10244 0.21061 0.0
C605 C 0.31364 0.08616 0.21236 0.0
C606 C 0.35572 0.09476 0.22358 0.0
C607 C 0.36045 0.07066 0.23651 0.0
C608 C 0.34159 0.05454 0.2385 0.0
C609 C 0.3185 0.06218 0.22664 0.0
C610 C 0.41253 0.0292 0.24324 0.0
C611 C 0.42513 0.03828 0.30648 0.0
C612 C 0.39248 0.04091 0.21596 0.0
C613 C 0.38467 0.06187 0.25152 0.0
C614 C 0.39857 0.0722 0.30957 0.0
C615 C 0.41867 0.06046 0.33695 0.0
H616 H 0.40923 0.31279 0.2777 0.0
H617 H 0.43496 0.32635 0.04665 0.0
H618 H 0.41993 0.35293 0.31522 0.0
H619 H 0.44472 0.36668 0.08322 0.0
H620 H 0.43848 0.42745 0.36775 0.0
H621 H 0.41629 0.39577 0.30535 0.0
H622 H 0.47719 0.37957 0.16335 0.0
H623 H 0.49923 0.41107 0.22511 0.0
C624 C 0.41646 0.32457 0.23431 0.0
C625 C 0.4215 0.31625 0.15957 0.0
C626 C 0.42242 0.34767 0.25557 0.0
C627 C 0.43352 0.3629 0.20245 0.0
C628 C 0.43653 0.35526 0.1258 0.0
C629 C 0.43061 0.33218 0.1046 0.0
C630 C 0.447 0.41738 0.3223 0.0
C631 C 0.47075 0.42173 0.30196 0.0
C632 C 0.43426 0.39923 0.28659 0.0
C633 C 0.445 0.38501 0.22984 0.0
C634 C 0.46821 0.39037 0.20606 0.0
C635 C 0.48091 0.4085 0.24165 0.0
H636 H 0.22875 0.46328 0.29373 0.0
H637 H 0.19724 0.40083 0.19205 0.0
H638 H 0.18993 0.47783 0.32772 0.0
H639 H 0.15778 0.41621 0.2248 0.0
H640 H 0.09566 0.45234 0.38348 0.0
H641 H 0.13127 0.4302 0.34598 0.0
H642 H 0.1583 0.49235 0.23091 0.0
H643 H 0.12289 0.51435 0.26781 0.0
C644 C 0.21365 0.4522 0.28062 0.0
C645 C 0.21624 0.43082 0.23981 0.0
C646 C 0.19131 0.46084 0.29898 0.0
C647 C 0.17095 0.44842 0.27692 0.0
C648 C 0.17331 0.42619 0.24158 0.0
C649 C 0.19585 0.41746 0.22285 0.0
C650 C 0.10892 0.461 0.34818 0.0
C651 C 0.10679 0.48514 0.32946 0.0
C652 C 0.12926 0.44837 0.32708 0.0
C653 C 0.14763 0.4598 0.28729 0.0
C654 C 0.14455 0.48334 0.26318 0.0
C655 C 0.12432 0.49589 0.28408 0.0
H656 H 0.08343 0.78271 0.10985 0.0
H657 H 0.1171 0.82046 0.29766 0.0
H658 H 0.08496 0.81784 0.0317 0.0
H659 H 0.1156 0.85649 0.22248 0.0
H660 H 0.10916 0.9213 0.07511 0.0
H661 H 0.12325 0.88315 0.12405 0.0
H662 H 0.06002 0.84976 0.03419 0.0
H663 H 0.04701 0.88728 0.9826 0.0
C664 C 0.09157 0.79825 0.13471 0.0
C665 C 0.09925 0.79868 0.21211 0.0
C666 C 0.09194 0.81874 0.08987 0.0
C667 C 0.09918 0.84043 0.12184 0.0
C668 C 0.10945 0.8403 0.19585 0.0
C669 C 0.10987 0.81957 0.23987 0.0
C670 C 0.09861 0.9056 0.06516 0.0
C671 C 0.07708 0.90712 0.02503 0.0
C672 C 0.10658 0.88376 0.0933 0.0
C673 C 0.0929 0.86315 0.08311 0.0
C674 C 0.07154 0.86489 0.0415 0.0
C675 C 0.06387 0.88651 0.01235 0.0
H676 H 0.72921 0.079 0.10701 0.0
H677 H 0.70617 0.12425 0.29418 0.0
H678 H 0.69186 0.08539 0.04164 0.0
H679 H 0.66827 0.13009 0.22894 0.0
H680 H 0.62329 0.10162 0.9294 0.0
H681 H 0.66208 0.11235 0.98078 0.0
H682 H 0.63681 0.09912 0.21233 0.0
H683 H 0.59839 0.0879 0.16143 0.0
C684 C 0.71659 0.09105 0.13305 0.0
C685 C 0.72061 0.10077 0.20672 0.0
C686 C 0.69505 0.09466 0.09542 0.0
C687 C 0.677 0.10794 0.13078 0.0
C688 C 0.68177 0.11945 0.201 0.0
C689 C 0.70343 0.11603 0.23838 0.0
C690 C 0.62594 0.10124 0.99136 0.0
C691 C 0.60781 0.09349 0.04117 0.0
C692 C 0.6481 0.10754 0.02069 0.0
C693 C 0.65251 0.10646 0.10046 0.0
C694 C 0.63388 0.10045 0.15063 0.0
C695 C 0.6118 0.09398 0.12133 0.0
H696 H 0.39615 0.70419 0.29786 0.0
H697 H 0.44323 0.72698 0.11486 0.0
H698 H 0.39237 0.6657 0.23479 0.0
H699 H 0.43817 0.68935 0.05082 0.0
H700 H 0.42275 0.62067 0.9387 0.0
H701 H 0.40941 0.65863 0.99037 0.0
H702 H 0.4276 0.63568 0.22055 0.0
H703 H 0.44189 0.59826 0.16932 0.0
C704 C 0.40524 0.70133 0.24354 0.0
C705 C 0.42045 0.7187 0.21272 0.0
C706 C 0.40286 0.67934 0.20723 0.0
C707 C 0.41511 0.67456 0.13837 0.0
C708 C 0.42833 0.69265 0.10352 0.0
C709 C 0.43112 0.71439 0.14045 0.0
C710 C 0.4237 0.62359 1.00046 0.0
C711 C 0.43395 0.60656 0.04956 0.0
C712 C 0.41582 0.64523 0.02995 0.0
C713 C 0.4176 0.65007 0.10925 0.0
C714 C 0.42578 0.63229 0.15921 0.0
C715 C 0.43399 0.61079 0.12968 0.0
H716 H 0.8164 0.39093 0.30897 0.0
H717 H 0.79543 0.43577 0.11807 0.0
H718 H 0.8555 0.38629 0.25028 0.0
H719 H 0.83365 0.42984 0.05849 0.0
H720 H 0.92287 0.43636 0.18813 0.0
H721 H 0.88528 0.42154 0.23616 0.0
H722 H 0.86543 0.40096 1.00505 0.0
H723 H 0.90359 0.41488 0.95671 0.0
C724 C 0.81979 0.39931 0.25382 0.0
C725 C 0.80277 0.41424 0.21956 0.0
C726 C 0.84212 0.39643 0.22002 0.0
C727 C 0.8476 0.40787 0.15032 0.0
C728 C 0.82983 0.42062 0.11196 0.0
C729 C 0.80774 0.42393 0.14636 0.0
C730 C 0.91101 0.4278 0.14775 0.0
C731 C 0.91611 0.42731 0.06818 0.0
C732 C 0.88942 0.41928 0.17545 0.0
C733 C 0.87241 0.41032 0.12411 0.0
C734 C 0.87821 0.40798 0.04563 0.0
C735 C 0.89996 0.41618 0.01802 0.0
H736 H 0.02213 0.19537 0.04198 0.0
H737 H 1.0087 0.22165 0.8116 0.0
H738 H 0.01663 0.15527 0.9967 0.0
H739 H 1.00566 0.1814 0.76458 0.0
H740 H 0.9848 0.10612 0.704 0.0
H741 H 0.98554 0.14662 0.75248 0.0
H742 H 0.03445 0.12521 0.93172 0.0
H743 H 0.03226 0.08467 0.88613 0.0
C744 C 0.01781 0.19274 0.98167 0.0
C745 C 0.01591 0.21211 0.93082 0.0
C746 C 0.01518 0.16947 0.95502 0.0
C747 C 0.01106 0.16464 0.87621 0.0
C748 C 1.0086 0.18406 0.82573 0.0
C749 C 0.01074 0.20736 0.8527 0.0
C750 C 0.99567 0.11015 0.75383 0.0
C751 C 1.00838 0.09213 0.79133 0.0
C752 C 0.99624 0.13349 0.78164 0.0
C753 C 1.01 0.13959 0.84675 0.0
C754 C 0.02306 0.12144 0.88302 0.0
C755 C 0.02203 0.09807 0.85632 0.0
H756 H 0.31842 0.0703 0.91175 0.0
H757 H 0.30712 0.9951 0.93278 0.0
H758 H 0.35951 0.06322 0.87331 0.0
H759 H 0.34836 0.98793 0.89249 0.0
H760 H 0.41493 0.99111 0.7217 0.0
H761 H 0.37388 0.99599 0.76525 0.0
H762 H 0.39701 0.04522 0.94 0.0
H763 H 0.43804 0.04007 0.89777 0.0
C764 C 0.32471 0.05222 0.90744 0.0
C765 C 0.30951 0.03323 0.92459 0.0
C766 C 0.34827 0.04818 0.88601 0.0
C767 C 0.35716 0.02503 0.87982 0.0
C768 C 0.34194 1.00596 0.89638 0.0
C769 C 0.31842 1.01004 0.91959 0.0
C770 C 0.41128 1.0029 0.76962 0.0
C771 C 0.42982 0.01524 0.80608 0.0
C772 C 0.38779 1.00557 0.79481 0.0
C773 C 0.38223 0.02101 0.85593 0.0
C774 C 0.40074 0.03329 0.89249 0.0
C775 C 0.42426 0.03026 0.8684 0.0
H776 H 0.48407 0.32788 0.03317 0.0
H777 H 0.51983 0.3015 0.83002 0.0
H778 H 0.48846 0.36817 0.98625 0.0
H779 H 0.52489 0.34201 0.78353 0.0
H780 H 0.50648 0.41493 0.68306 0.0
H781 H 0.50367 0.37437 0.73046 0.0
H782 H 0.51518 0.39923 0.96363 0.0
H783 H 0.51712 0.43967 0.91665 0.0
C784 C 0.49337 0.33073 0.97919 0.0
C785 C 0.50174 0.31144 0.93561 0.0
C786 C 0.4959 0.35392 0.95209 0.0
C787 C 0.50705 0.35854 0.88081 0.0
C788 C 0.51583 0.33921 0.83794 0.0
C789 C 0.5131 0.31597 0.8648 0.0
C790 C 0.50841 0.41173 0.74443 0.0
C791 C 0.51188 0.43065 0.79596 0.0
C792 C 0.50697 0.38839 0.77169 0.0
C793 C 0.50915 0.38335 0.85114 0.0
C794 C 0.51294 0.40232 0.90233 0.0
C795 C 0.51418 0.42561 0.87521 0.0
H796 H 0.21237 0.52931 0.93273 0.0
H797 H 0.20295 0.45382 0.91391 0.0
H798 H 0.17112 0.53539 0.89055 0.0
H799 H 0.16173 0.45981 0.87433 0.0
H800 H 0.08244 0.48369 0.9056 0.0
H801 H 0.12374 0.47914 0.94566 0.0
H802 H 0.14597 0.52432 0.75849 0.0
H803 H 0.10462 0.5284 0.71669 0.0
C804 C 0.20146 0.51407 0.91967 0.0
C805 C 0.21086 0.49111 0.92599 0.0
C806 C 0.17795 0.51753 0.89539 0.0
C807 C 0.16323 0.49806 0.87916 0.0
C808 C 0.17262 0.47513 0.88659 0.0
C809 C 0.19621 0.47171 0.90889 0.0
C810 C 0.09609 0.49268 0.87288 0.0
C811 C 0.09018 0.50636 0.80773 0.0
C812 C 0.11975 0.49001 0.89579 0.0
C813 C 0.13807 0.50142 0.85533 0.0
C814 C 0.1322 0.51544 0.791 0.0
C815 C 0.10855 0.51765 0.76686 0.0
H816 H 0.03182 0.81995 0.60198 0.0
H817 H 0.9759 0.83203 0.43675 0.0
H818 H 0.02946 0.86091 0.64312 0.0
H819 H 0.97313 0.87325 0.47917 0.0
H820 H 1.00755 0.92994 0.75111 0.0
H821 H 1.00667 0.88874 0.71127 0.0
H822 H 0.99327 0.91029 0.47577 0.0
H823 H 0.99333 0.95163 0.51632 0.0
C824 C 0.01861 0.83124 0.5755 0.0
C825 C 1.00387 0.82252 0.51654 0.0
C826 C 0.01725 0.85486 0.59918 0.0
C827 C 1.001 0.87058 0.56501 0.0
C828 C 0.98608 0.86184 0.5063 0.0
C829 C 0.98757 0.83814 0.48216 0.0
C830 C 1.00434 0.92597 0.6908 0.0
C831 C 1.0006 0.94425 0.63699 0.0
C832 C 1.00396 0.90223 0.66774 0.0
C833 C 1.00007 0.89598 0.58998 0.0
C834 C 0.99602 0.91427 0.53629 0.0
C835 C 0.99621 0.93807 0.55952 0.0
H836 H 0.70754 0.98576 0.61973 0.0
H837 H 0.68067 0.01814 0.41133 0.0
H838 H 0.6672 0.98337 0.67071 0.0
H839 H 0.64063 0.01551 0.46174 0.0
H840 H 0.56929 0.9891 0.54183 0.0
H841 H 0.60977 0.98756 0.49407 0.0
H842 H 0.63543 1.00951 0.71782 0.0
H843 H 0.59477 0.01074 0.76633 0.0
C844 C 0.69309 0.9923 0.58462 0.0
C845 C 0.6975 1.00199 0.51101 0.0
C846 C 0.66995 0.99096 0.61396 0.0
C847 C 0.65059 0.9992 0.57036 0.0
C848 C 0.65499 1.00858 0.49646 0.0
C849 C 0.67806 1.00999 0.46731 0.0
C850 C 0.5835 0.99349 0.58123 0.0
C851 C 0.57865 1.00015 0.658 0.0
C852 C 0.60678 0.99271 0.55358 0.0
C853 C 0.62593 0.99857 0.60181 0.0
C854 C 0.62116 1.00468 0.67919 0.0
C855 C 0.5978 1.00549 0.70693 0.0
H856 H 0.54562 0.6887 0.43114 0.0
H857 H 0.49035 0.70092 0.59914 0.0
H858 H 0.54928 0.6478 0.47602 0.0
H859 H 0.49367 0.6603 0.64294 0.0
H860 H 0.51683 0.59221 0.7527 0.0
H861 H 0.5177 0.63324 0.71103 0.0
H862 H 0.52889 0.61061 0.47525 0.0
H863 H 0.52879 0.56943 0.51746 0.0
C864 C 0.5343 0.68269 0.47773 0.0
C865 C 0.51788 0.69823 0.51203 0.0
C866 C 0.53631 0.6592 0.50329 0.0
C867 C 0.52184 0.65062 0.56346 0.0
C868 C 0.50553 0.66628 0.5978 0.0
C869 C 0.50363 0.6897 0.57263 0.0
C870 C 0.5196 0.59591 0.69195 0.0
C871 C 0.52262 0.57739 0.63848 0.0
C872 C 0.51997 0.61954 0.6679 0.0
C873 C 0.52315 0.6254 0.5895 0.0
C874 C 0.52667 0.60688 0.53618 0.0
C875 C 0.52647 0.5832 0.56039 0.0
H876 H 0.83229 0.54122 0.44336 0.0
H877 H 0.81814 0.4847 0.60449 0.0
H878 H 0.87246 0.54475 0.49446 0.0
H879 H 0.85822 0.48771 0.65416 0.0
H880 H 0.92602 0.50941 0.7727 0.0
H881 H 0.8852 0.50982 0.72741 0.0
H882 H 0.90954 0.52561 0.49625 0.0
H883 H 0.95019 0.52608 0.54215 0.0
C884 C 0.83775 0.52955 0.48968 0.0
C885 C 0.82186 0.51283 0.52015 0.0
C886 C 0.86086 0.53147 0.51887 0.0
C887 C 0.86882 0.51652 0.57877 0.0
C888 C 0.85278 0.49992 0.60936 0.0
C889 C 0.82967 0.49816 0.58071 0.0
C890 C 0.92268 0.51311 0.71228 0.0
C891 C 0.94153 0.51771 0.66126 0.0
C892 C 0.89918 0.5132 0.68603 0.0
C893 C 0.89384 0.51766 0.60779 0.0
C894 C 0.91274 0.52249 0.55706 0.0
C895 C 0.93619 0.5226 0.58344 0.0
loop_
_geom_bond_atom_site_label_1
_geom_bond_atom_site_label_2
_geom_bond_distance
_geom_bond_site_symmetry_2
_ccdc_geom_bond_type
P0 O11 1.490 . S
P0 C14 1.812 . S
P0 C20 1.803 . S
P0 C26 1.819 . S
H1 C15 0.941 . S
H2 C16 0.939 . S
H3 C18 0.940 . S
H4 C19 0.940 . S
H5 C21 0.939 . S
H6 C22 0.942 . S
H7 C24 0.940 . S
H8 C25 0.939 . S
H9 C27 0.941 . S
H10 C31 0.939 . S
O11 P0 1.490 . S
H12 C28 0.939 . S
H13 C30 0.940 . S
C14 P0 1.812 . S
C14 C15 1.389 . S
C14 C19 1.391 . S
C15 H1 0.941 . S
C15 C14 1.389 . S
C15 C16 1.397 . S
C16 H2 0.939 . S
C16 C15 1.397 . S
C16 C17 1.378 . S
C17 C16 1.378 . S
C17 C18 1.378 . S
C18 H3 0.940 . S
C18 C17 1.378 . S
C18 C19 1.396 . S
C19 H4 0.940 . S
C19 C14 1.391 . S
C19 C18 1.396 . S
C20 P0 1.803 . S
C20 C21 1.378 . S
C20 C25 1.400 . S
C21 H5 0.939 . S
C21 C20 1.378 . S
C21 C22 1.361 . S
C22 H6 0.942 . S
C22 C21 1.361 . S
C22 C23 1.369 . S
C23 C22 1.369 . S
C23 C24 1.404 . S
C24 H7 0.940 . S
C24 C23 1.404 . S
C24 C25 1.389 . S
C25 H8 0.939 . S
C25 C20 1.400 . S
C25 C24 1.389 . S
C26 P0 1.819 . S
C26 C27 1.391 . S
C26 C31 1.391 . S
C27 H9 0.941 . S
C27 C26 1.391 . S
C27 C28 1.396 . S
C28 H12 0.939 . S
C28 C27 1.396 . S
C28 C29 1.397 . S
C29 C28 1.397 . S
C29 C30 1.385 . S
C30 H13 0.940 . S
C30 C29 1.385 . S
C30 C31 1.388 . S
C31 H10 0.939 . S
C31 C26 1.391 . S
C31 C30 1.388 . S
P32 O43 1.490 . S
P32 C46 1.812 . S
P32 C52 1.803 . S
P32 C58 1.819 . S
H33 C47 0.941 . S
H34 C48 0.939 . S
H35 C50 0.940 . S
H36 C51 0.950 . S
H37 C53 0.939 . S
H38 C54 0.942 . S
H39 C56 0.940 . S
H40 C57 0.959 . S
H41 C59 0.941 . S
H42 C63 0.929 1_655 S
O43 P32 1.490 . S
H44 C60 0.939 . S
H45 C62 0.940 . S
C46 P32 1.812 . S
C46 C47 1.389 . S
C46 C51 1.375 1_455 S
C47 H33 0.941 . S
C47 C46 1.389 . S
C47 C48 1.397 . S
C48 H34 0.939 . S
C48 C47 1.397 . S
C48 C49 1.378 . S
C49 C48 1.378 . S
C49 C50 1.378 1_455 S
C50 H35 0.940 . S
C50 C49 1.378 1_655 S
C50 C51 1.403 . S
C51 H36 0.950 . S
C51 C46 1.375 1_655 S
C51 C50 1.403 . S
C52 P32 1.803 . S
C52 C53 1.378 . S
C52 C57 1.368 1_455 S
C53 H37 0.939 . S
C53 C52 1.378 . S
C53 C54 1.361 . S
C54 H38 0.942 . S
C54 C53 1.361 . S
C54 C55 1.369 . S
C55 C54 1.369 . S
C55 C56 1.404 1_455 S
C56 H39 0.940 . S
C56 C55 1.404 1_655 S
C56 C57 1.402 . S
C57 H40 0.959 . S
C57 C52 1.368 1_655 S
C57 C56 1.402 . S
C58 P32 1.819 . S
C58 C59 1.391 . S
C58 C63 1.391 . S
C59 H41 0.941 . S
C59 C58 1.391 . S
C59 C60 1.396 . S
C60 H44 0.939 . S
C60 C59 1.396 . S
C60 C61 1.397 . S
C61 C60 1.397 . S
C61 C62 1.385 1_455 S
C62 H45 0.940 . S
C62 C61 1.385 1_655 S
C62 C63 1.388 1_655 S
C63 H42 0.929 1_455 S
C63 C58 1.391 . S
C63 C62 1.388 1_455 S
P64 O75 1.490 . S
P64 C78 1.812 . S
P64 C84 1.803 . S
P64 C90 1.819 . S
H65 C79 0.941 . S
H66 C80 0.939 . S
H67 C82 0.940 . S
H68 C83 0.950 . S
H69 C85 0.939 . S
H70 C86 0.942 . S
H71 C88 0.940 . S
H72 C89 0.959 . S
H73 C91 0.941 . S
H74 C95 0.929 1_565 S
O75 P64 1.490 . S
H76 C92 0.939 . S
H77 C94 0.940 . S
C78 P64 1.812 . S
C78 C79 1.389 . S
C78 C83 1.375 1_545 S
C79 H65 0.941 . S
C79 C78 1.389 . S
C79 C80 1.397 . S
C80 H66 0.939 . S
C80 C79 1.397 . S
C80 C81 1.378 . S
C81 C80 1.378 . S
C81 C82 1.378 1_545 S
C82 H67 0.940 . S
C82 C81 1.378 1_565 S
C82 C83 1.403 . S
C83 H68 0.950 . S
C83 C78 1.375 1_565 S
C83 C82 1.403 . S
C84 P64 1.803 . S
C84 C85 1.378 . S
C84 C89 1.368 1_545 S
C85 H69 0.939 . S
C85 C84 1.378 . S
C85 C86 1.361 . S
C86 H70 0.942 . S
C86 C85 1.361 . S
C86 C87 1.369 . S
C87 C86 1.369 . S
C87 C88 1.404 1_545 S
C88 H71 0.940 . S
C88 C87 1.404 1_565 S
C88 C89 1.402 . S
C89 H72 0.959 . S
C89 C84 1.368 1_565 S
C89 C88 1.402 . S
C90 P64 1.819 . S
C90 C91 1.391 . S
C90 C95 1.391 . S
C91 H73 0.941 . S
C91 C90 1.391 . S
C91 C92 1.396 . S
C92 H76 0.939 . S
C92 C91 1.396 . S
C92 C93 1.397 . S
C93 C92 1.397 . S
C93 C94 1.385 1_545 S
C94 H77 0.940 . S
C94 C93 1.385 1_565 S
C94 C95 1.388 1_565 S
C95 H74 0.929 1_545 S
C95 C90 1.391 . S
C95 C94 1.388 1_545 S
P96 O107 1.490 . S
P96 C110 1.812 . S
P96 C116 1.803 . S
P96 C122 1.819 . S
H97 C111 0.941 . S
H98 C112 0.939 . S
H99 C114 0.940 . S
H100 C115 0.940 . S
H101 C117 0.939 . S
H102 C118 0.942 . S
H103 C120 0.940 . S
H104 C121 0.939 . S
H105 C123 0.941 . S
H106 C127 0.939 . S
O107 P96 1.490 . S
H108 C124 0.939 . S
H109 C126 0.940 . S
C110 P96 1.812 . S
C110 C111 1.389 . S
C110 C115 1.391 . S
C111 H97 0.941 . S
C111 C110 1.389 . S
C111 C112 1.397 . S
C112 H98 0.939 . S
C112 C111 1.397 . S
C112 C113 1.378 . S
C113 C112 1.378 . S
C113 C114 1.378 . S
C114 H99 0.940 . S
C114 C113 1.378 . S
C114 C115 1.396 . S
C115 H100 0.940 . S
C115 C110 1.391 . S
C115 C114 1.396 . S
C116 P96 1.803 . S
C116 C117 1.378 . S
C116 C121 1.400 . S
C117 H101 0.939 . S
C117 C116 1.378 . S
C117 C118 1.361 . S
C118 H102 0.942 . S
C118 C117 1.361 . S
C118 C119 1.369 . S
C119 C118 1.369 . S
C119 C120 1.404 . S
C120 H103 0.940 . S
C120 C119 1.404 . S
C120 C121 1.389 . S
C121 H104 0.939 . S
C121 C116 1.400 . S
C121 C120 1.389 . S
C122 P96 1.819 . S
C122 C123 1.391 . S
C122 C127 1.391 . S
C123 H105 0.941 . S
C123 C122 1.391 . S
C123 C124 1.396 . S
C124 H108 0.939 . S
C124 C123 1.396 . S
C124 C125 1.397 . S
C125 C124 1.397 . S
C125 C126 1.385 . S
C126 H109 0.940 . S
C126 C125 1.385 . S
C126 C127 1.388 . S
C127 H106 0.939 . S
C127 C122 1.391 . S
C127 C126 1.388 . S
P128 O139 1.490 . S
P128 C142 1.812 1_554 S
P128 C148 1.803 . S
P128 C154 1.819 . S
H129 C143 0.941 . S
H130 C144 0.939 . S
H131 C146 0.940 . S
H132 C147 0.940 . S
H133 C149 0.939 . S
H134 C150 0.942 . S
H135 C152 0.940 . S
H136 C153 0.939 . S
H137 C155 0.941 . S
H138 C159 0.939 . S
O139 P128 1.490 . S
H140 C156 0.939 . S
H141 C158 0.940 . S
C142 P128 1.812 1_556 S
C142 C143 1.389 . S
C142 C147 1.391 . S
C143 H129 0.941 . S
C143 C142 1.389 . S
C143 C144 1.397 . S
C144 H130 0.939 . S
C144 C143 1.397 . S
C144 C145 1.378 . S
C145 C144 1.378 . S
C145 C146 1.378 . S
C146 H131 0.940 . S
C146 C145 1.378 . S
C146 C147 1.396 . S
C147 H132 0.940 . S
C147 C142 1.391 . S
C147 C146 1.396 . S
C148 P128 1.803 . S
C148 C149 1.378 . S
C148 C153 1.400 . S
C149 H133 0.939 . S
C149 C148 1.378 . S
C149 C150 1.361 . S
C150 H134 0.942 . S
C150 C149 1.361 . S
C150 C151 1.369 . S
C151 C150 1.369 . S
C151 C152 1.404 . S
C152 H135 0.940 . S
C152 C151 1.404 . S
C152 C153 1.389 . S
C153 H136 0.939 . S
C153 C148 1.400 . S
C153 C152 1.389 . S
C154 P128 1.819 . S
C154 C155 1.391 . S
C154 C159 1.391 . S
C155 H137 0.941 . S
C155 C154 1.391 . S
C155 C156 1.396 . S
C156 H140 0.939 . S
C156 C155 1.396 . S
C156 C157 1.397 . S
C157 C156 1.397 . S
C157 C158 1.385 . S
C158 H141 0.940 . S
C158 C157 1.385 . S
C158 C159 1.388 . S
C159 H138 0.939 . S
C159 C154 1.391 . S
C159 C158 1.388 . S
P160 O171 1.490 . S
P160 C174 1.812 1_554 S
P160 C180 1.803 . S
P160 C186 1.819 . S
H161 C175 0.941 . S
H162 C176 0.939 . S
H163 C178 0.940 . S
H164 C179 0.944 . S
H165 C181 0.939 . S
H166 C182 0.942 . S
H167 C184 0.940 . S
H168 C185 0.952 . S
H169 C187 0.941 . S
H170 C191 0.933 1_655 S
O171 P160 1.490 . S
H172 C188 0.939 . S
H173 C190 0.940 . S
C174 P160 1.812 1_556 S
C174 C175 1.389 . S
C174 C179 1.385 1_455 S
C175 H161 0.941 . S
C175 C174 1.389 . S
C175 C176 1.397 . S
C176 H162 0.939 . S
C176 C175 1.397 . S
C176 C177 1.378 . S
C177 C176 1.378 . S
C177 C178 1.378 1_455 S
C178 H163 0.940 . S
C178 C177 1.378 1_655 S
C178 C179 1.399 . S
C179 H164 0.944 . S
C179 C174 1.385 1_655 S
C179 C178 1.399 . S
C180 P160 1.803 . S
C180 C181 1.378 . S
C180 C185 1.379 1_455 S
C181 H165 0.939 . S
C181 C180 1.378 . S
C181 C182 1.361 . S
C182 H166 0.942 . S
C182 C181 1.361 . S
C182 C183 1.369 . S
C183 C182 1.369 . S
C183 C184 1.404 1_455 S
C184 H167 0.940 . S
C184 C183 1.404 1_655 S
C184 C185 1.397 . S
C185 H168 0.952 . S
C185 C180 1.379 1_655 S
C185 C184 1.397 . S
C186 P160 1.819 . S
C186 C187 1.391 . S
C186 C191 1.391 . S
C187 H169 0.941 . S
C187 C186 1.391 . S
C187 C188 1.396 . S
C188 H172 0.939 . S
C188 C187 1.396 . S
C188 C189 1.397 . S
C189 C188 1.397 . S
C189 C190 1.385 1_455 S
C190 H173 0.940 . S
C190 C189 1.385 1_655 S
C190 C191 1.388 1_655 S
C191 H170 0.933 1_455 S
C191 C186 1.391 . S
C191 C190 1.388 1_455 S
P192 O203 1.490 . S
P192 C206 1.812 1_554 S
P192 C212 1.803 . S
P192 C218 1.819 . S
H193 C207 0.941 . S
H194 C208 0.939 . S
H195 C210 0.940 . S
H196 C211 0.944 . S
H197 C213 0.939 . S
H198 C214 0.942 . S
H199 C216 0.940 . S
H200 C217 0.952 . S
H201 C219 0.941 . S
H202 C223 0.933 1_565 S
O203 P192 1.490 . S
H204 C220 0.939 . S
H205 C222 0.940 . S
C206 P192 1.812 1_556 S
C206 C207 1.389 . S
C206 C211 1.385 1_545 S
C207 H193 0.941 . S
C207 C206 1.389 . S
C207 C208 1.397 . S
C208 H194 0.939 . S
C208 C207 1.397 . S
C208 C209 1.378 . S
C209 C208 1.378 . S
C209 C210 1.378 1_545 S
C210 H195 0.940 . S
C210 C209 1.378 1_565 S
C210 C211 1.399 . S
C211 H196 0.944 . S
C211 C206 1.385 1_565 S
C211 C210 1.399 . S
C212 P192 1.803 . S
C212 C213 1.378 . S
C212 C217 1.379 1_545 S
C213 H197 0.939 . S
C213 C212 1.378 . S
C213 C214 1.361 . S
C214 H198 0.942 . S
C214 C213 1.361 . S
C214 C215 1.369 . S
C215 C214 1.369 . S
C215 C216 1.404 1_545 S
C216 H199 0.940 . S
C216 C215 1.404 1_565 S
C216 C217 1.397 . S
C217 H200 0.952 . S
C217 C212 1.379 1_565 S
C217 C216 1.397 . S
C218 P192 1.819 . S
C218 C219 1.391 . S
C218 C223 1.391 . S
C219 H201 0.941 . S
C219 C218 1.391 . S
C219 C220 1.396 . S
C220 H204 0.939 . S
C220 C219 1.396 . S
C220 C221 1.397 . S
C221 C220 1.397 . S
C221 C222 1.385 1_545 S
C222 H205 0.940 . S
C222 C221 1.385 1_565 S
C222 C223 1.388 1_565 S
C223 H202 0.933 1_545 S
C223 C218 1.391 . S
C223 C222 1.388 1_545 S
P224 O235 1.490 . S
P224 C238 1.812 1_554 S
P224 C244 1.803 . S
P224 C250 1.819 . S
H225 C239 0.941 . S
H226 C240 0.939 . S
H227 C242 0.940 . S
H228 C243 0.940 . S
H229 C245 0.939 . S
H230 C246 0.942 . S
H231 C248 0.940 . S
H232 C249 0.939 . S
H233 C251 0.941 . S
H234 C255 0.939 . S
O235 P224 1.490 . S
H236 C252 0.939 . S
H237 C254 0.940 . S
C238 P224 1.812 1_556 S
C238 C239 1.389 . S
C238 C243 1.391 . S
C239 H225 0.941 . S
C239 C238 1.389 . S
C239 C240 1.397 . S
C240 H226 0.939 . S
C240 C239 1.397 . S
C240 C241 1.378 . S
C241 C240 1.378 . S
C241 C242 1.378 . S
C242 H227 0.940 . S
C242 C241 1.378 . S
C242 C243 1.396 . S
C243 H228 0.940 . S
C243 C238 1.391 . S
C243 C242 1.396 . S
C244 P224 1.803 . S
C244 C245 1.378 . S
C244 C249 1.400 . S
C245 H229 0.939 . S
C245 C244 1.378 . S
C245 C246 1.361 . S
C246 H230 0.942 . S
C246 C245 1.361 . S
C246 C247 1.369 . S
C247 C246 1.369 . S
C247 C248 1.404 . S
C248 H231 0.940 . S
C248 C247 1.404 . S
C248 C249 1.389 . S
C249 H232 0.939 . S
C249 C244 1.400 . S
C249 C248 1.389 . S
C250 P224 1.819 . S
C250 C251 1.391 . S
C250 C255 1.391 . S
C251 H233 0.941 . S
C251 C250 1.391 . S
C251 C252 1.396 . S
C252 H236 0.939 . S
C252 C251 1.396 . S
C252 C253 1.397 . S
C253 C252 1.397 . S
C253 C254 1.385 . S
C254 H237 0.940 . S
C254 C253 1.385 . S
C254 C255 1.388 . S
C255 H234 0.939 . S
C255 C250 1.391 . S
C255 C254 1.388 . S
Pr256 C258 2.880 . S
Pr256 O276 2.562 . S
Pr256 O277 2.490 . S
Pr256 O278 2.695 1_565 S
Pr256 O279 2.512 . S
Pr256 O281 2.437 . S
Pr256 O284 2.436 1_455 S
Pr256 O286 2.438 1_565 S
Pr257 C267 2.880 . S
Pr257 O278 2.436 1_655 S
Pr257 O280 2.438 1_545 S
Pr257 O282 2.562 . S
Pr257 O283 2.490 . S
Pr257 O284 2.695 1_545 S
Pr257 O285 2.512 . S
Pr257 O287 2.437 . S
C258 Pr256 2.880 . S
C258 C259 1.491 . S
C258 O276 1.254 . S
C258 O277 1.225 . S
C259 C258 1.491 . S
C259 C260 1.392 . S
C259 C264 1.356 . S
C260 C259 1.392 . S
C260 C261 1.368 . S
C260 H288 0.929 . S
C261 C260 1.368 . S
C261 C262 1.386 . S
C261 H289 0.929 . S
C262 C261 1.386 . S
C262 C263 1.373 . S
C263 C262 1.373 . S
C263 C264 1.409 . S
C263 H290 0.931 1_455 S
C264 C259 1.356 . S
C264 C263 1.409 . S
C264 H291 0.930 1_455 S
C265 O278 1.270 1_565 S
C265 O279 1.248 . S
C266 O280 1.267 . S
C266 O281 1.278 1_655 S
C267 Pr257 2.880 . S
C267 C268 1.491 . S
C267 O282 1.254 . S
C267 O283 1.225 . S
C268 C267 1.491 . S
C268 C269 1.392 . S
C268 C273 1.356 . S
C269 C268 1.392 . S
C269 C270 1.368 . S
C269 H292 0.929 . S
C270 C269 1.368 . S
C270 C271 1.386 . S
C270 H293 0.929 . S
C271 C270 1.386 . S
C271 C272 1.373 . S
C272 C271 1.373 . S
C272 C273 1.409 . S
C272 H294 0.922 1_655 S
C273 C268 1.356 . S
C273 C272 1.409 . S
C273 H295 0.930 1_655 S
C274 O284 1.270 1_545 S
C274 O285 1.248 . S
C275 O286 1.267 . S
C275 O287 1.278 1_455 S
O276 Pr256 2.562 . S
O276 C258 1.254 . S
O277 Pr256 2.490 . S
O277 C258 1.225 . S
O278 Pr256 2.695 1_545 S
O278 Pr257 2.436 1_455 S
O278 C265 1.270 1_545 S
O279 Pr256 2.512 . S
O279 C265 1.248 . S
O280 Pr257 2.438 1_565 S
O280 C266 1.267 . S
O281 Pr256 2.437 . S
O281 C266 1.278 1_455 S
O282 Pr257 2.562 . S
O282 C267 1.254 . S
O283 Pr257 2.490 . S
O283 C267 1.225 . S
O284 Pr256 2.436 1_655 S
O284 Pr257 2.695 1_565 S
O284 C274 1.270 1_565 S
O285 Pr257 2.512 . S
O285 C274 1.248 . S
O286 Pr256 2.438 1_545 S
O286 C275 1.267 . S
O287 Pr257 2.437 . S
O287 C275 1.278 1_655 S
H288 C260 0.929 . S
H289 C261 0.929 . S
H290 C263 0.931 1_655 S
H291 C264 0.930 1_655 S
H292 C269 0.929 . S
H293 C270 0.929 . S
H294 C272 0.922 1_455 S
H295 C273 0.930 1_455 S
Pr296 C298 2.880 . S
Pr296 O316 2.562 . S
Pr296 O317 2.490 . S
Pr296 O318 2.695 . S
Pr296 O319 2.512 . S
Pr296 O321 2.437 . S
Pr296 O324 2.436 1_545 S
Pr296 O326 2.438 . S
Pr297 C307 2.880 . S
Pr297 O318 2.436 1_565 S
Pr297 O320 2.438 . S
Pr297 O322 2.562 . S
Pr297 O323 2.490 . S
Pr297 O324 2.695 . S
Pr297 O325 2.512 . S
Pr297 O327 2.437 . S
C298 Pr296 2.880 . S
C298 C299 1.491 . S
C298 O316 1.254 . S
C298 O317 1.225 . S
C299 C298 1.491 . S
C299 C300 1.392 . S
C299 C304 1.356 . S
C300 C299 1.392 . S
C300 C301 1.368 . S
C300 H328 0.929 . S
C301 C300 1.368 . S
C301 C302 1.386 . S
C301 H329 0.929 . S
C302 C301 1.386 . S
C302 C303 1.373 . S
C303 C302 1.373 . S
C303 C304 1.409 . S
C303 H330 0.901 1_545 S
C304 C299 1.356 . S
C304 C303 1.409 . S
C304 H331 0.930 1_545 S
C305 O318 1.270 . S
C305 O319 1.248 . S
C306 O320 1.267 . S
C306 O321 1.278 1_565 S
C307 Pr297 2.880 . S
C307 C308 1.491 . S
C307 O322 1.254 . S
C307 O323 1.225 . S
C308 C307 1.491 . S
C308 C309 1.392 . S
C308 C313 1.356 . S
C309 C308 1.392 . S
C309 C310 1.368 . S
C309 H332 0.929 . S
C310 C309 1.368 . S
C310 C311 1.386 . S
C310 H333 0.929 . S
C311 C310 1.386 . S
C311 C312 1.373 . S
C312 C311 1.373 . S
C312 C313 1.409 . S
C312 H334 0.892 1_565 S
C313 C308 1.356 . S
C313 C312 1.409 . S
C313 H335 0.930 1_565 S
C314 O324 1.270 . S
C314 O325 1.248 . S
C315 O326 1.267 . S
C315 O327 1.278 1_545 S
O316 Pr296 2.562 . S
O316 C298 1.254 . S
O317 Pr296 2.490 . S
O317 C298 1.225 . S
O318 Pr296 2.695 . S
O318 Pr297 2.436 1_545 S
O318 C305 1.270 . S
O319 Pr296 2.512 . S
O319 C305 1.248 . S
O320 Pr297 2.438 . S
O320 C306 1.267 . S
O321 Pr296 2.437 . S
O321 C306 1.278 1_545 S
O322 Pr297 2.562 . S
O322 C307 1.254 . S
O323 Pr297 2.490 . S
O323 C307 1.225 . S
O324 Pr296 2.436 1_565 S
O324 Pr297 2.695 . S
O324 C314 1.270 . S
O325 Pr297 2.512 . S
O325 C314 1.248 . S
O326 Pr296 2.438 . S
O326 C315 1.267 . S
O327 Pr297 2.437 . S
O327 C315 1.278 1_565 S
H328 C300 0.929 . S
H329 C301 0.929 . S
H330 C303 0.901 1_565 S
H331 C304 0.930 1_565 S
H332 C309 0.929 . S
H333 C310 0.929 . S
H334 C312 0.892 1_545 S
H335 C313 0.930 1_545 S
Pr336 C338 2.880 . S
Pr336 O356 2.562 . S
Pr336 O357 2.490 . S
Pr336 O358 2.695 . S
Pr336 O359 2.512 . S
Pr336 O361 2.437 . S
Pr336 O364 2.436 . S
Pr336 O366 2.438 . S
Pr337 C347 2.880 . S
Pr337 O358 2.436 . S
Pr337 O360 2.438 . S
Pr337 O362 2.562 . S
Pr337 O363 2.490 . S
Pr337 O364 2.695 . S
Pr337 O365 2.512 . S
Pr337 O367 2.437 . S
C338 Pr336 2.880 . S
C338 C339 1.491 . S
C338 O356 1.254 . S
C338 O357 1.225 . S
C339 C338 1.491 . S
C339 C340 1.392 . S
C339 C344 1.356 . S
C340 C339 1.392 . S
C340 C341 1.368 . S
C340 H368 0.929 . S
C341 C340 1.368 . S
C341 C342 1.386 . S
C341 H369 0.929 . S
C342 C341 1.386 . S
C342 C343 1.373 . S
C343 C342 1.373 . S
C343 C344 1.409 . S
C343 H370 0.931 . S
C344 C339 1.356 . S
C344 C343 1.409 . S
C344 H371 0.930 . S
C345 O358 1.270 . S
C345 O359 1.248 . S
C346 O360 1.267 . S
C346 O361 1.278 . S
C347 Pr337 2.880 . S
C347 C348 1.491 . S
C347 O362 1.254 . S
C347 O363 1.225 . S
C348 C347 1.491 . S
C348 C349 1.392 . S
C348 C353 1.356 . S
C349 C348 1.392 . S
C349 C350 1.368 . S
C349 H372 0.929 . S
C350 C349 1.368 . S
C350 C351 1.386 . S
C350 H373 0.929 . S
C351 C350 1.386 . S
C351 C352 1.373 . S
C352 C351 1.373 . S
C352 C353 1.409 . S
C352 H374 0.931 . S
C353 C348 1.356 . S
C353 C352 1.409 . S
C353 H375 0.930 . S
C354 O364 1.270 . S
C354 O365 1.248 . S
C355 O366 1.267 . S
C355 O367 1.278 . S
O356 Pr336 2.562 . S
O356 C338 1.254 . S
O357 Pr336 2.490 . S
O357 C338 1.225 . S
O358 Pr336 2.695 . S
O358 Pr337 2.436 . S
O358 C345 1.270 . S
O359 Pr336 2.512 . S
O359 C345 1.248 . S
O360 Pr337 2.438 . S
O360 C346 1.267 . S
O361 Pr336 2.437 . S
O361 C346 1.278 . S
O362 Pr337 2.562 . S
O362 C347 1.254 . S
O363 Pr337 2.490 . S
O363 C347 1.225 . S
O364 Pr336 2.436 . S
O364 Pr337 2.695 . S
O364 C354 1.270 . S
O365 Pr337 2.512 . S
O365 C354 1.248 . S
O366 Pr336 2.438 . S
O366 C355 1.267 . S
O367 Pr337 2.437 . S
O367 C355 1.278 . S
H368 C340 0.929 . S
H369 C341 0.929 . S
H370 C343 0.931 . S
H371 C344 0.930 . S
H372 C349 0.929 . S
H373 C350 0.929 . S
H374 C352 0.931 . S
H375 C353 0.930 . S
Pr376 C378 2.880 . S
Pr376 O396 2.562 . S
Pr376 O397 2.490 . S
Pr376 O398 2.695 1_655 S
Pr376 O399 2.512 . S
Pr376 O401 2.437 . S
Pr376 O404 2.436 . S
Pr376 O406 2.438 1_655 S
Pr377 C387 2.880 . S
Pr377 O398 2.436 . S
Pr377 O400 2.438 1_455 S
Pr377 O402 2.562 . S
Pr377 O403 2.490 . S
Pr377 O404 2.695 1_455 S
Pr377 O405 2.512 . S
Pr377 O407 2.437 . S
C378 Pr376 2.880 . S
C378 C379 1.491 . S
C378 O396 1.254 . S
C378 O397 1.225 . S
C379 C378 1.491 . S
C379 C380 1.392 . S
C379 C384 1.356 . S
C380 C379 1.392 . S
C380 C381 1.368 . S
C380 H408 0.929 . S
C381 C380 1.368 . S
C381 C382 1.386 . S
C381 H409 0.929 . S
C382 C381 1.386 . S
C382 C383 1.373 . S
C383 C382 1.373 . S
C383 C384 1.409 . S
C383 H410 0.931 . S
C384 C379 1.356 . S
C384 C383 1.409 . S
C384 H411 0.930 . S
C385 O398 1.260 1_655 S
C385 O399 1.266 . S
C386 O400 1.267 . S
C386 O401 1.278 . S
C387 Pr377 2.880 . S
C387 C388 1.491 . S
C387 O402 1.254 . S
C387 O403 1.225 . S
C388 C387 1.491 . S
C388 C389 1.392 . S
C388 C393 1.356 . S
C389 C388 1.392 . S
C389 C390 1.368 . S
C389 H412 0.929 . S
C390 C389 1.368 . S
C390 C391 1.386 . S
C390 H413 0.929 . S
C391 C390 1.386 . S
C391 C392 1.373 . S
C392 C391 1.373 . S
C392 C393 1.409 . S
C392 H414 0.931 . S
C393 C388 1.356 . S
C393 C392 1.409 . S
C393 H415 0.930 . S
C394 O404 1.257 1_455 S
C394 O405 1.271 . S
C395 O406 1.267 . S
C395 O407 1.278 . S
O396 Pr376 2.562 . S
O396 C378 1.254 . S
O397 Pr376 2.490 . S
O397 C378 1.225 . S
O398 Pr376 2.695 1_455 S
O398 Pr377 2.436 . S
O398 C385 1.260 1_455 S
O399 Pr376 2.512 . S
O399 C385 1.266 . S
O400 Pr377 2.438 1_655 S
O400 C386 1.267 . S
O401 Pr376 2.437 . S
O401 C386 1.278 . S
O402 Pr377 2.562 . S
O402 C387 1.254 . S
O403 Pr377 2.490 . S
O403 C387 1.225 . S
O404 Pr376 2.436 . S
O404 Pr377 2.695 1_655 S
O404 C394 1.257 1_655 S
O405 Pr377 2.512 . S
O405 C394 1.271 . S
O406 Pr376 2.438 1_455 S
O406 C395 1.267 . S
O407 Pr377 2.437 . S
O407 C395 1.278 . S
H408 C380 0.929 . S
H409 C381 0.929 . S
H410 C383 0.931 . S
H411 C384 0.930 . S
H412 C389 0.929 . S
H413 C390 0.929 . S
H414 C392 0.931 . S
H415 C393 0.930 . S
H416 C424 0.950 . S
H417 C429 0.950 . S
H418 C426 0.950 . S
H419 C428 0.950 . S
H420 C430 0.948 1_565 S
H421 C432 0.952 . S
H422 C434 0.950 . S
H423 C435 0.950 . S
C424 H416 0.950 . S
C424 C425 1.384 1_545 S
C424 C426 1.391 . S
C425 C424 1.384 1_565 S
C425 C429 1.395 . S
C426 H418 0.950 . S
C426 C424 1.391 . S
C426 C427 1.400 . S
C427 C426 1.400 . S
C427 C428 1.398 1_545 S
C427 C433 1.491 . S
C428 H419 0.950 . S
C428 C427 1.398 1_565 S
C428 C429 1.391 . S
C429 H417 0.950 . S
C429 C425 1.395 . S
C429 C428 1.391 . S
C430 H420 0.948 1_545 S
C430 C431 1.385 . S
C430 C432 1.391 1_545 S
C431 C430 1.385 . S
C431 C435 1.393 . S
C432 H421 0.952 . S
C432 C430 1.391 1_565 S
C432 C433 1.399 1_565 S
C433 C427 1.491 . S
C433 C432 1.399 1_545 S
C433 C434 1.398 . S
C434 H422 0.950 . S
C434 C433 1.398 . S
C434 C435 1.391 . S
C435 H423 0.950 . S
C435 C431 1.393 . S
C435 C434 1.391 . S
H436 C444 0.950 . S
H437 C449 0.950 . S
H438 C446 0.950 . S
H439 C448 0.950 . S
H440 C450 0.950 . S
H441 C452 0.950 . S
H442 C454 0.950 . S
H443 C455 0.950 . S
C444 H436 0.950 . S
C444 C445 1.386 . S
C444 C446 1.391 . S
C445 C444 1.386 . S
C445 C449 1.393 . S
C446 H438 0.950 . S
C446 C444 1.391 . S
C446 C447 1.400 . S
C447 C446 1.400 . S
C447 C448 1.398 . S
C447 C453 1.491 . S
C448 H439 0.950 . S
C448 C447 1.398 . S
C448 C449 1.391 . S
C449 H437 0.950 . S
C449 C445 1.393 . S
C449 C448 1.391 . S
C450 H440 0.950 . S
C450 C451 1.386 . S
C450 C452 1.391 . S
C451 C450 1.386 . S
C451 C455 1.393 . S
C452 H441 0.950 . S
C452 C450 1.391 . S
C452 C453 1.400 . S
C453 C447 1.491 . S
C453 C452 1.400 . S
C453 C454 1.398 . S
C454 H442 0.950 . S
C454 C453 1.398 . S
C454 C455 1.391 . S
C455 H443 0.950 . S
C455 C451 1.393 . S
C455 C454 1.391 . S
H456 C464 0.950 . S
H457 C469 0.950 . S
H458 C466 0.950 . S
H459 C468 0.950 . S
H460 C470 0.950 . S
H461 C472 0.950 . S
H462 C474 0.950 . S
H463 C475 0.950 . S
C464 H456 0.950 . S
C464 C465 1.386 . S
C464 C466 1.391 . S
C465 C464 1.386 . S
C465 C469 1.393 . S
C466 H458 0.950 . S
C466 C464 1.391 . S
C466 C467 1.400 . S
C467 C466 1.400 . S
C467 C468 1.398 . S
C467 C473 1.491 . S
C468 H459 0.950 . S
C468 C467 1.398 . S
C468 C469 1.391 . S
C469 H457 0.950 . S
C469 C465 1.393 . S
C469 C468 1.391 . S
C470 H460 0.950 . S
C470 C471 1.386 . S
C470 C472 1.391 . S
C471 C470 1.386 . S
C471 C475 1.393 . S
C472 H461 0.950 . S
C472 C470 1.391 . S
C472 C473 1.400 . S
C473 C467 1.491 . S
C473 C472 1.400 . S
C473 C474 1.398 . S
C474 H462 0.950 . S
C474 C473 1.398 . S
C474 C475 1.391 . S
C475 H463 0.950 . S
C475 C471 1.393 . S
C475 C474 1.391 . S
H476 C484 0.950 . S
H477 C489 0.950 . S
H478 C486 0.950 . S
H479 C488 0.950 . S
H480 C490 0.950 . S
H481 C492 0.950 . S
H482 C494 0.950 . S
H483 C495 0.950 . S
C484 H476 0.950 . S
C484 C485 1.386 1_655 S
C484 C486 1.391 . S
C485 C484 1.386 1_455 S
C485 C489 1.393 . S
C486 H478 0.950 . S
C486 C484 1.391 . S
C486 C487 1.400 1_655 S
C487 C486 1.400 1_455 S
C487 C488 1.398 . S
C487 C493 1.492 . S
C488 H479 0.950 . S
C488 C487 1.398 . S
C488 C489 1.391 . S
C489 H477 0.950 . S
C489 C485 1.393 . S
C489 C488 1.391 . S
C490 H480 0.950 . S
C490 C491 1.414 . S
C490 C492 1.391 . S
C491 C490 1.414 . S
C491 C495 1.365 1_455 S
C492 H481 0.950 . S
C492 C490 1.391 . S
C492 C493 1.423 . S
C493 C487 1.492 . S
C493 C492 1.423 . S
C493 C494 1.376 1_455 S
C494 H482 0.950 . S
C494 C493 1.376 1_655 S
C494 C495 1.391 . S
C495 H483 0.950 . S
C495 C491 1.365 1_655 S
C495 C494 1.391 . S
H496 C504 0.950 . S
H497 C509 0.950 . S
H498 C506 0.950 . S
H499 C508 0.950 . S
H500 C510 0.950 . S
H501 C512 0.950 1_554 S
H502 C514 0.950 . S
H503 C515 0.950 . S
C504 H496 0.950 . S
C504 C505 1.374 1_565 S
C504 C506 1.391 . S
C505 C504 1.374 1_545 S
C505 C509 1.404 . S
C506 H498 0.950 . S
C506 C504 1.391 . S
C506 C507 1.404 . S
C507 C506 1.404 . S
C507 C508 1.394 1_565 S
C507 C513 1.490 . S
C508 H499 0.950 . S
C508 C507 1.394 1_545 S
C508 C509 1.391 . S
C509 H497 0.950 . S
C509 C505 1.404 . S
C509 C508 1.391 . S
C510 H500 0.950 . S
C510 C511 1.386 1_545 S
C510 C512 1.391 . S
C511 C510 1.386 1_565 S
C511 C515 1.393 . S
C512 H501 0.950 1_556 S
C512 C510 1.391 . S
C512 C513 1.370 1_546 S
C513 C507 1.490 . S
C513 C512 1.370 1_564 S
C513 C514 1.430 1_554 S
C514 H502 0.950 . S
C514 C513 1.430 1_556 S
C514 C515 1.391 . S
C515 H503 0.950 . S
C515 C511 1.393 . S
C515 C514 1.391 . S
H516 C524 0.950 . S
H517 C529 0.950 . S
H518 C526 0.950 . S
H519 C528 0.950 . S
H520 C530 0.950 . S
H521 C532 0.950 . S
H522 C534 0.950 . S
H523 C535 0.950 . S
C524 H516 0.950 . S
C524 C525 1.386 . S
C524 C526 1.391 . S
C525 C524 1.386 . S
C525 C529 1.393 . S
C526 H518 0.950 . S
C526 C524 1.391 . S
C526 C527 1.400 . S
C527 C526 1.400 . S
C527 C528 1.398 . S
C527 C533 1.491 . S
C528 H519 0.950 . S
C528 C527 1.398 . S
C528 C529 1.391 . S
C529 H517 0.950 . S
C529 C525 1.393 . S
C529 C528 1.391 . S
C530 H520 0.950 . S
C530 C531 1.386 . S
C530 C532 1.391 1_556 S
C531 C530 1.386 . S
C531 C535 1.393 . S
C532 H521 0.950 . S
C532 C530 1.391 1_554 S
C532 C533 1.400 . S
C533 C527 1.491 . S
C533 C532 1.400 . S
C533 C534 1.398 1_554 S
C534 H522 0.950 . S
C534 C533 1.398 1_556 S
C534 C535 1.391 . S
C535 H523 0.950 . S
C535 C531 1.393 . S
C535 C534 1.391 . S
H536 C544 0.950 . S
H537 C549 0.950 . S
H538 C546 0.950 . S
H539 C548 0.950 . S
H540 C550 0.950 . S
H541 C552 0.950 . S
H542 C554 0.950 . S
H543 C555 0.950 . S
C544 H536 0.950 . S
C544 C545 1.386 . S
C544 C546 1.391 . S
C545 C544 1.386 . S
C545 C549 1.393 . S
C546 H538 0.950 . S
C546 C544 1.391 . S
C546 C547 1.400 . S
C547 C546 1.400 . S
C547 C548 1.398 . S
C547 C553 1.491 . S
C548 H539 0.950 . S
C548 C547 1.398 . S
C548 C549 1.391 . S
C549 H537 0.950 . S
C549 C545 1.393 . S
C549 C548 1.391 . S
C550 H540 0.950 . S
C550 C551 1.386 . S
C550 C552 1.391 . S
C551 C550 1.386 . S
C551 C555 1.393 . S
C552 H541 0.950 . S
C552 C550 1.391 . S
C552 C553 1.400 1_556 S
C553 C547 1.491 . S
C553 C552 1.400 1_554 S
C553 C554 1.398 . S
C554 H542 0.950 . S
C554 C553 1.398 . S
C554 C555 1.391 1_554 S
C555 H543 0.950 . S
C555 C551 1.393 . S
C555 C554 1.391 1_556 S
H556 C564 0.950 . S
H557 C569 0.950 . S
H558 C566 0.950 . S
H559 C568 0.950 . S
H560 C570 0.950 . S
H561 C572 0.950 1_554 S
H562 C574 0.950 . S
H563 C575 0.950 . S
C564 H556 0.950 . S
C564 C565 1.380 1_455 S
C564 C566 1.391 . S
C565 C564 1.380 1_655 S
C565 C569 1.398 . S
C566 H558 0.950 . S
C566 C564 1.391 . S
C566 C567 1.369 1_455 S
C567 C566 1.369 1_655 S
C567 C568 1.429 . S
C567 C573 1.492 . S
C568 H559 0.950 . S
C568 C567 1.429 . S
C568 C569 1.391 . S
C569 H557 0.950 . S
C569 C565 1.398 . S
C569 C568 1.391 . S
C570 H560 0.950 . S
C570 C571 1.386 . S
C570 C572 1.391 . S
C571 C570 1.386 . S
C571 C575 1.393 1_655 S
C572 H561 0.950 1_556 S
C572 C570 1.391 . S
C572 C573 1.400 1_556 S
C573 C567 1.492 . S
C573 C572 1.400 1_554 S
C573 C574 1.398 1_654 S
C574 H562 0.950 . S
C574 C573 1.398 1_456 S
C574 C575 1.391 . S
C575 H563 0.950 . S
C575 C571 1.393 1_455 S
C575 C574 1.391 . S
H576 C584 0.950 . S
H577 C589 0.950 . S
H578 C586 0.950 . S
H579 C588 0.950 . S
H580 C590 0.950 . S
H581 C592 0.950 . S
H582 C594 0.950 . S
H583 C595 0.950 . S
C584 H576 0.950 . S
C584 C585 1.386 1_655 S
C584 C586 1.391 . S
C585 C584 1.386 1_455 S
C585 C589 1.393 . S
C586 H578 0.950 . S
C586 C584 1.391 . S
C586 C587 1.400 . S
C587 C586 1.400 . S
C587 C588 1.398 . S
C587 C593 1.491 . S
C588 H579 0.950 . S
C588 C587 1.398 . S
C588 C589 1.391 1_655 S
C589 H577 0.950 . S
C589 C585 1.393 . S
C589 C588 1.391 1_455 S
C590 H580 0.950 . S
C590 C591 1.386 . S
C590 C592 1.391 . S
C591 C590 1.386 . S
C591 C595 1.393 . S
C592 H581 0.950 . S
C592 C590 1.391 . S
C592 C593 1.400 . S
C593 C587 1.491 . S
C593 C592 1.400 . S
C593 C594 1.398 . S
C594 H582 0.950 . S
C594 C593 1.398 . S
C594 C595 1.391 . S
C595 H583 0.950 . S
C595 C591 1.393 . S
C595 C594 1.391 . S
H596 C604 0.950 . S
H597 C609 0.950 . S
H598 C606 0.950 . S
H599 C608 0.950 . S
H600 C610 0.950 . S
H601 C612 0.950 . S
H602 C614 0.950 1_545 S
H603 C615 0.950 . S
C604 H596 0.950 . S
C604 C605 1.386 . S
C604 C606 1.391 . S
C605 C604 1.386 . S
C605 C609 1.393 1_545 S
C606 H598 0.950 . S
C606 C604 1.391 . S
C606 C607 1.400 1_545 S
C607 C606 1.400 1_565 S
C607 C608 1.398 . S
C607 C613 1.491 . S
C608 H599 0.950 . S
C608 C607 1.398 . S
C608 C609 1.391 . S
C609 H597 0.950 . S
C609 C605 1.393 1_565 S
C609 C608 1.391 . S
C610 H600 0.950 . S
C610 C611 1.386 . S
C610 C612 1.391 . S
C611 C610 1.386 . S
C611 C615 1.393 . S
C612 H601 0.950 . S
C612 C610 1.391 . S
C612 C613 1.400 . S
C613 C607 1.491 . S
C613 C612 1.400 . S
C613 C614 1.398 . S
C614 H602 0.950 1_565 S
C614 C613 1.398 . S
C614 C615 1.391 . S
C615 H603 0.950 . S
C615 C611 1.393 . S
C615 C614 1.391 . S
H616 C624 0.950 . S
H617 C629 0.950 . S
H618 C626 0.950 . S
H619 C628 0.950 . S
H620 C630 0.950 . S
H621 C632 0.950 . S
H622 C634 0.950 . S
H623 C635 0.950 . S
C624 H616 0.950 . S
C624 C625 1.386 . S
C624 C626 1.391 . S
C625 C624 1.386 . S
C625 C629 1.393 . S
C626 H618 0.950 . S
C626 C624 1.391 . S
C626 C627 1.400 . S
C627 C626 1.400 . S
C627 C628 1.398 . S
C627 C633 1.491 . S
C628 H619 0.950 . S
C628 C627 1.398 . S
C628 C629 1.391 . S
C629 H617 0.950 . S
C629 C625 1.393 . S
C629 C628 1.391 . S
C630 H620 0.950 . S
C630 C631 1.386 . S
C630 C632 1.391 . S
C631 C630 1.386 . S
C631 C635 1.393 . S
C632 H621 0.950 . S
C632 C630 1.391 . S
C632 C633 1.400 . S
C633 C627 1.491 . S
C633 C632 1.400 . S
C633 C634 1.398 . S
C634 H622 0.950 . S
C634 C633 1.398 . S
C634 C635 1.391 . S
C635 H623 0.950 . S
C635 C631 1.393 . S
C635 C634 1.391 . S
H636 C644 0.950 . S
H637 C649 0.950 . S
H638 C646 0.950 . S
H639 C648 0.950 . S
H640 C650 0.950 . S
H641 C652 0.950 . S
H642 C654 0.950 . S
H643 C655 0.950 . S
C644 H636 0.950 . S
C644 C645 1.386 . S
C644 C646 1.391 . S
C645 C644 1.386 . S
C645 C649 1.393 . S
C646 H638 0.950 . S
C646 C644 1.391 . S
C646 C647 1.400 . S
C647 C646 1.400 . S
C647 C648 1.398 . S
C647 C653 1.491 . S
C648 H639 0.950 . S
C648 C647 1.398 . S
C648 C649 1.391 . S
C649 H637 0.950 . S
C649 C645 1.393 . S
C649 C648 1.391 . S
C650 H640 0.950 . S
C650 C651 1.386 . S
C650 C652 1.391 . S
C651 C650 1.386 . S
C651 C655 1.393 . S
C652 H641 0.950 . S
C652 C650 1.391 . S
C652 C653 1.400 . S
C653 C647 1.491 . S
C653 C652 1.400 . S
C653 C654 1.398 . S
C654 H642 0.950 . S
C654 C653 1.398 . S
C654 C655 1.391 . S
C655 H643 0.950 . S
C655 C651 1.393 . S
C655 C654 1.391 . S
H656 C664 0.950 . S
H657 C669 0.950 . S
H658 C666 0.950 . S
H659 C668 0.950 . S
H660 C670 0.950 . S
H661 C672 0.950 1_556 S
H662 C674 0.952 . S
H663 C675 0.950 . S
C664 H656 0.950 . S
C664 C665 1.386 . S
C664 C666 1.391 . S
C665 C664 1.386 . S
C665 C669 1.393 1_655 S
C666 H658 0.950 . S
C666 C664 1.391 . S
C666 C667 1.400 1_655 S
C667 C666 1.400 1_455 S
C667 C668 1.398 . S
C667 C673 1.491 . S
C668 H659 0.950 . S
C668 C667 1.398 . S
C668 C669 1.391 . S
C669 H657 0.950 . S
C669 C665 1.393 1_455 S
C669 C668 1.391 . S
C670 H660 0.950 . S
C670 C671 1.386 . S
C670 C672 1.391 1_556 S
C671 C670 1.386 . S
C671 C675 1.393 1_556 S
C672 H661 0.950 1_554 S
C672 C670 1.391 1_554 S
C672 C673 1.400 . S
C673 C667 1.491 . S
C673 C672 1.400 . S
C673 C674 1.398 . S
C674 H662 0.952 . S
C674 C673 1.398 . S
C674 C675 1.391 . S
C675 H663 0.950 . S
C675 C671 1.393 1_554 S
C675 C674 1.391 . S
H676 C684 0.950 . S
H677 C689 0.950 . S
H678 C686 0.939 1_565 S
H679 C688 0.950 . S
H680 C690 0.950 . S
H681 C692 0.950 . S
H682 C694 0.950 . S
H683 C695 0.950 . S
C684 H676 0.950 . S
C684 C685 1.386 . S
C684 C686 1.376 1_565 S
C685 C684 1.386 . S
C685 C689 1.393 1_565 S
C686 H678 0.939 1_545 S
C686 C684 1.376 1_545 S
C686 C687 1.429 . S
C687 C686 1.429 . S
C687 C688 1.398 . S
C687 C693 1.491 . S
C688 H679 0.950 . S
C688 C687 1.398 . S
C688 C689 1.391 . S
C689 H677 0.950 . S
C689 C685 1.393 1_545 S
C689 C688 1.391 . S
C690 H680 0.950 . S
C690 C691 1.386 . S
C690 C692 1.391 . S
C691 C690 1.386 . S
C691 C695 1.393 1_556 S
C692 H681 0.950 . S
C692 C690 1.391 . S
C692 C693 1.400 1_556 S
C693 C687 1.491 . S
C693 C692 1.400 1_554 S
C693 C694 1.398 . S
C694 H682 0.950 . S
C694 C693 1.398 . S
C694 C695 1.391 . S
C695 H683 0.950 . S
C695 C691 1.393 1_554 S
C695 C694 1.391 . S
H696 C704 0.950 . S
H697 C709 0.950 . S
H698 C706 0.950 . S
H699 C708 0.950 . S
H700 C710 0.950 . S
H701 C712 0.950 1_556 S
H702 C714 0.950 . S
H703 C715 0.950 . S
C704 H696 0.950 . S
C704 C705 1.386 . S
C704 C706 1.391 . S
C705 C704 1.386 . S
C705 C709 1.393 . S
C706 H698 0.950 . S
C706 C704 1.391 . S
C706 C707 1.400 . S
C707 C706 1.400 . S
C707 C708 1.398 . S
C707 C713 1.491 . S
C708 H699 0.950 . S
C708 C707 1.398 . S
C708 C709 1.391 . S
C709 H697 0.950 . S
C709 C705 1.393 . S
C709 C708 1.391 . S
C710 H700 0.950 . S
C710 C711 1.386 . S
C710 C712 1.391 1_556 S
C711 C710 1.386 . S
C711 C715 1.393 1_556 S
C712 H701 0.950 1_554 S
C712 C710 1.391 1_554 S
C712 C713 1.400 . S
C713 C707 1.491 . S
C713 C712 1.400 . S
C713 C714 1.398 . S
C714 H702 0.950 . S
C714 C713 1.398 . S
C714 C715 1.391 . S
C715 H703 0.950 . S
C715 C711 1.393 1_554 S
C715 C714 1.391 . S
H716 C724 0.950 . S
H717 C729 0.950 . S
H718 C726 0.950 . S
H719 C728 0.950 . S
H720 C730 0.950 . S
H721 C732 0.950 . S
H722 C734 0.950 . S
H723 C735 0.950 . S
C724 H716 0.950 . S
C724 C725 1.386 . S
C724 C726 1.391 . S
C725 C724 1.386 . S
C725 C729 1.393 . S
C726 H718 0.950 . S
C726 C724 1.391 . S
C726 C727 1.400 . S
C727 C726 1.400 . S
C727 C728 1.398 . S
C727 C733 1.491 . S
C728 H719 0.950 . S
C728 C727 1.398 . S
C728 C729 1.391 . S
C729 H717 0.950 . S
C729 C725 1.393 . S
C729 C728 1.391 . S
C730 H720 0.950 . S
C730 C731 1.386 1_554 S
C730 C732 1.391 . S
C731 C730 1.386 1_556 S
C731 C735 1.393 . S
C732 H721 0.950 . S
C732 C730 1.391 . S
C732 C733 1.400 . S
C733 C727 1.491 . S
C733 C732 1.400 . S
C733 C734 1.398 1_554 S
C734 H722 0.950 . S
C734 C733 1.398 1_556 S
C734 C735 1.391 . S
C735 H723 0.950 . S
C735 C731 1.393 . S
C735 C734 1.391 . S
H736 C744 0.950 . S
H737 C749 0.950 . S
H738 C746 0.950 . S
H739 C748 0.950 . S
H740 C750 0.961 . S
H741 C752 0.950 1_655 S
H742 C754 0.950 . S
H743 C755 0.950 . S
C744 H736 0.950 . S
C744 C745 1.386 . S
C744 C746 1.391 . S
C745 C744 1.386 . S
C745 C749 1.393 1_455 S
C746 H738 0.950 . S
C746 C744 1.391 . S
C746 C747 1.400 . S
C747 C746 1.400 . S
C747 C748 1.398 1_455 S
C747 C753 1.491 . S
C748 H739 0.950 . S
C748 C747 1.398 1_655 S
C748 C749 1.391 . S
C749 H737 0.950 . S
C749 C745 1.393 1_655 S
C749 C748 1.391 . S
C750 H740 0.961 . S
C750 C751 1.386 . S
C750 C752 1.391 . S
C751 C750 1.386 . S
C751 C755 1.393 . S
C752 H741 0.950 1_455 S
C752 C750 1.391 . S
C752 C753 1.400 . S
C753 C747 1.491 . S
C753 C752 1.400 . S
C753 C754 1.398 . S
C754 H742 0.950 . S
C754 C753 1.398 . S
C754 C755 1.391 . S
C755 H743 0.950 . S
C755 C751 1.393 . S
C755 C754 1.391 . S
H756 C764 0.950 . S
H757 C769 0.950 . S
H758 C766 0.950 . S
H759 C768 0.950 . S
H760 C770 0.950 . S
H761 C772 0.950 . S
H762 C774 0.950 . S
H763 C775 0.950 . S
C764 H756 0.950 . S
C764 C765 1.386 . S
C764 C766 1.391 . S
C765 C764 1.386 . S
C765 C769 1.393 1_545 S
C766 H758 0.950 . S
C766 C764 1.391 . S
C766 C767 1.400 . S
C767 C766 1.400 . S
C767 C768 1.398 1_545 S
C767 C773 1.491 . S
C768 H759 0.950 . S
C768 C767 1.398 1_565 S
C768 C769 1.391 . S
C769 H757 0.950 . S
C769 C765 1.393 1_565 S
C769 C768 1.391 . S
C770 H760 0.950 . S
C770 C771 1.386 1_565 S
C770 C772 1.391 . S
C771 C770 1.386 1_545 S
C771 C775 1.393 . S
C772 H761 0.950 . S
C772 C770 1.391 . S
C772 C773 1.400 1_565 S
C773 C767 1.491 . S
C773 C772 1.400 1_545 S
C773 C774 1.398 . S
C774 H762 0.950 . S
C774 C773 1.398 . S
C774 C775 1.391 . S
C775 H763 0.950 . S
C775 C771 1.393 . S
C775 C774 1.391 . S
H776 C784 0.950 . S
H777 C789 0.950 . S
H778 C786 0.950 . S
H779 C788 0.950 . S
H780 C790 0.950 . S
H781 C792 0.950 . S
H782 C794 0.950 . S
H783 C795 0.950 . S
C784 H776 0.950 . S
C784 C785 1.386 . S
C784 C786 1.391 . S
C785 C784 1.386 . S
C785 C789 1.393 . S
C786 H778 0.950 . S
C786 C784 1.391 . S
C786 C787 1.400 . S
C787 C786 1.400 . S
C787 C788 1.398 . S
C787 C793 1.491 . S
C788 H779 0.950 . S
C788 C787 1.398 . S
C788 C789 1.391 . S
C789 H777 0.950 . S
C789 C785 1.393 . S
C789 C788 1.391 . S
C790 H780 0.950 . S
C790 C791 1.386 . S
C790 C792 1.391 . S
C791 C790 1.386 . S
C791 C795 1.393 . S
C792 H781 0.950 . S
C792 C790 1.391 . S
C792 C793 1.400 . S
C793 C787 1.491 . S
C793 C792 1.400 . S
C793 C794 1.398 . S
C794 H782 0.950 . S
C794 C793 1.398 . S
C794 C795 1.391 . S
C795 H783 0.950 . S
C795 C791 1.393 . S
C795 C794 1.391 . S
H796 C804 0.950 . S
H797 C809 0.950 . S
H798 C806 0.950 . S
H799 C808 0.950 . S
H800 C810 0.950 . S
H801 C812 0.950 . S
H802 C814 0.950 . S
H803 C815 0.950 . S
C804 H796 0.950 . S
C804 C805 1.386 . S
C804 C806 1.391 . S
C805 C804 1.386 . S
C805 C809 1.393 . S
C806 H798 0.950 . S
C806 C804 1.391 . S
C806 C807 1.400 . S
C807 C806 1.400 . S
C807 C808 1.398 . S
C807 C813 1.491 . S
C808 H799 0.950 . S
C808 C807 1.398 . S
C808 C809 1.391 . S
C809 H797 0.950 . S
C809 C805 1.393 . S
C809 C808 1.391 . S
C810 H800 0.950 . S
C810 C811 1.386 . S
C810 C812 1.391 . S
C811 C810 1.386 . S
C811 C815 1.393 . S
C812 H801 0.950 . S
C812 C810 1.391 . S
C812 C813 1.400 . S
C813 C807 1.491 . S
C813 C812 1.400 . S
C813 C814 1.398 . S
C814 H802 0.950 . S
C814 C813 1.398 . S
C814 C815 1.391 . S
C815 H803 0.950 . S
C815 C811 1.393 . S
C815 C814 1.391 . S
H816 C824 0.950 . S
H817 C829 0.950 . S
H818 C826 0.950 . S
H819 C828 0.950 . S
H820 C830 0.950 . S
H821 C832 0.950 . S
H822 C834 0.950 . S
H823 C835 0.950 . S
C824 H816 0.950 . S
C824 C825 1.386 1_455 S
C824 C826 1.391 . S
C825 C824 1.386 1_655 S
C825 C829 1.393 . S
C826 H818 0.950 . S
C826 C824 1.391 . S
C826 C827 1.400 1_455 S
C827 C826 1.400 1_655 S
C827 C828 1.398 . S
C827 C833 1.491 . S
C828 H819 0.950 . S
C828 C827 1.398 . S
C828 C829 1.391 . S
C829 H817 0.950 . S
C829 C825 1.393 . S
C829 C828 1.391 . S
C830 H820 0.950 . S
C830 C831 1.386 . S
C830 C832 1.391 . S
C831 C830 1.386 . S
C831 C835 1.393 1_655 S
C832 H821 0.950 . S
C832 C830 1.391 . S
C832 C833 1.400 . S
C833 C827 1.491 . S
C833 C832 1.400 . S
C833 C834 1.398 1_655 S
C834 H822 0.950 . S
C834 C833 1.398 1_455 S
C834 C835 1.391 . S
C835 H823 0.950 . S
C835 C831 1.393 1_455 S
C835 C834 1.391 . S
H836 C844 0.950 . S
H837 C849 0.950 . S
H838 C846 0.950 . S
H839 C848 0.950 . S
H840 C850 0.950 1_545 S
H841 C852 0.950 1_545 S
H842 C854 0.950 . S
H843 C855 0.950 . S
C844 H836 0.950 . S
C844 C845 1.386 . S
C844 C846 1.391 . S
C845 C844 1.386 . S
C845 C849 1.393 1_565 S
C846 H838 0.950 . S
C846 C844 1.391 . S
C846 C847 1.400 . S
C847 C846 1.400 . S
C847 C848 1.398 1_565 S
C847 C853 1.491 . S
C848 H839 0.950 . S
C848 C847 1.398 1_545 S
C848 C849 1.391 . S
C849 H837 0.950 . S
C849 C845 1.393 1_545 S
C849 C848 1.391 . S
C850 H840 0.950 1_565 S
C850 C851 1.386 . S
C850 C852 1.391 . S
C851 C850 1.386 . S
C851 C855 1.393 . S
C852 H841 0.950 1_565 S
C852 C850 1.391 . S
C852 C853 1.400 . S
C853 C847 1.491 . S
C853 C852 1.400 . S
C853 C854 1.398 . S
C854 H842 0.950 . S
C854 C853 1.398 . S
C854 C855 1.391 . S
C855 H843 0.950 . S
C855 C851 1.393 . S
C855 C854 1.391 . S
H856 C864 0.950 . S
H857 C869 0.950 . S
H858 C866 0.950 . S
H859 C868 0.950 . S
H860 C870 0.950 . S
H861 C872 0.950 . S
H862 C874 0.950 . S
H863 C875 0.950 . S
C864 H856 0.950 . S
C864 C865 1.386 . S
C864 C866 1.391 . S
C865 C864 1.386 . S
C865 C869 1.393 . S
C866 H858 0.950 . S
C866 C864 1.391 . S
C866 C867 1.400 . S
C867 C866 1.400 . S
C867 C868 1.398 . S
C867 C873 1.491 . S
C868 H859 0.950 . S
C868 C867 1.398 . S
C868 C869 1.391 . S
C869 H857 0.950 . S
C869 C865 1.393 . S
C869 C868 1.391 . S
C870 H860 0.950 . S
C870 C871 1.386 . S
C870 C872 1.391 . S
C871 C870 1.386 . S
C871 C875 1.393 . S
C872 H861 0.950 . S
C872 C870 1.391 . S
C872 C873 1.400 . S
C873 C867 1.491 . S
C873 C872 1.400 . S
C873 C874 1.398 . S
C874 H862 0.950 . S
C874 C873 1.398 . S
C874 C875 1.391 . S
C875 H863 0.950 . S
C875 C871 1.393 . S
C875 C874 1.391 . S
H876 C884 0.950 . S
H877 C889 0.950 . S
H878 C886 0.950 . S
H879 C888 0.950 . S
H880 C890 0.950 . S
H881 C892 0.950 . S
H882 C894 0.950 . S
H883 C895 0.950 . S
C884 H876 0.950 . S
C884 C885 1.386 . S
C884 C886 1.391 . S
C885 C884 1.386 . S
C885 C889 1.393 . S
C886 H878 0.950 . S
C886 C884 1.391 . S
C886 C887 1.400 . S
C887 C886 1.400 . S
C887 C888 1.398 . S
C887 C893 1.491 . S
C888 H879 0.950 . S
C888 C887 1.398 . S
C888 C889 1.391 . S
C889 H877 0.950 . S
C889 C885 1.393 . S
C889 C888 1.391 . S
C890 H880 0.950 . S
C890 C891 1.386 . S
C890 C892 1.391 . S
C891 C890 1.386 . S
C891 C895 1.393 . S
C892 H881 0.950 . S
C892 C890 1.391 . S
C892 C893 1.400 . S
C893 C887 1.491 . S
C893 C892 1.400 . S
C893 C894 1.398 . S
C894 H882 0.950 . S
C894 C893 1.398 . S
C894 C895 1.391 . S
C895 H883 0.950 . S
C895 C891 1.393 . S
C895 C894 1.391 . S
C425 C215 1.994 1_565 S
C431 C265 2.156 1_545 S
C451 C305 2.164 . S
C445 C247 1.980 . S
C471 C345 2.166 . S
C465 C151 2.000 . S
C491 C385 2.154 1_455 S
C485 C183 1.983 . S
C511 C274 2.157 1_565 S
C505 C87 1.985 . S
C525 C119 2.005 . S
C531 C314 2.172 . S
C545 C23 2.018 . S
C551 C354 2.165 . S
C565 C55 2.009 1_655 S
C571 C394 2.158 1_655 S
C591 C271 0.426 . S
C585 C189 0.381 . S
C611 C311 0.458 . S
C605 C221 0.412 . S
C631 C351 0.433 . S
C625 C253 0.391 . S
C645 C157 0.367 . S
C651 C391 0.462 . S
C665 C61 0.502 1_655 S
C671 C262 0.428 . S
C691 C302 0.426 . S
C685 C93 0.491 1_565 S
C711 C342 0.444 . S
C705 C125 0.533 . S
C725 C29 0.581 . S
C731 C382 0.496 . S
C745 C177 2.495 . S
C751 C275 2.804 . S
C765 C209 2.464 . S
C771 C315 2.784 . S
C791 C355 2.772 . S
C785 C241 2.443 . S
C811 C395 2.790 . S
C805 C145 2.472 . S
C825 C49 2.516 1_655 S
C831 C266 2.805 . S
C851 C306 2.787 . S
C845 C81 2.495 1_565 S
C871 C346 2.774 . S
C865 C113 2.504 . S
C885 C17 2.526 . S
C891 C386 2.802 . S
