# Generated by pormake.
# Topology zzz, (3,6)-cn, num edge types: 1
# Building blocks:
#     Node 0, Type 0, BuildingBlock: BELTOD_clean_linker_0, # of connection points: 3
#     Node 1, Type 0, BuildingBlock: BELTOD_clean_linker_0, # of connection points: 3
#     Node 2, Type 0, BuildingBlock: BELTOD_clean_linker_0, # of connection points: 3
#     Node 3, Type 0, BuildingBlock: BELTOD_clean_linker_0, # of connection points: 3
#     Node 4, Type 0, BuildingBlock: BELTOD_clean_linker_0, # of connection points: 3
#     Node 5, Type 0, BuildingBlock: BELTOD_clean_linker_0, # of connection points: 3
#     Node 6, Type 0, BuildingBlock: BELTOD_clean_linker_0, # of connection points: 3
#     Node 7, Type 0, BuildingBlock: BELTOD_clean_linker_0, # of connection points: 3
#     Node 8, Type 1, BuildingBlock: CUWYAW_clean_sbu_0, # of connection points: 6
#     Node 9, Type 1, BuildingBlock: CUWYAW_clean_sbu_0, # of connection points: 6
#     Node 10, Type 1, BuildingBlock: CUWYAW_clean_sbu_0, # of connection points: 6
#     Node 11, Type 1, BuildingBlock: CUWYAW_clean_sbu_0, # of connection points: 6
#     Edge 12, Type (0, 1), BuildingBlock: MIFKUJ_clean_linker_0, # of connection points: 2
#     Edge 13, Type (0, 1), BuildingBlock: MIFKUJ_clean_linker_0, # of connection points: 2
#     Edge 14, Type (0, 1), BuildingBlock: MIFKUJ_clean_linker_0, # of connection points: 2
#     Edge 15, Type (0, 1), BuildingBlock: MIFKUJ_clean_linker_0, # of connection points: 2
#     Edge 16, Type (0, 1), BuildingBlock: MIFKUJ_clean_linker_0, # of connection points: 2
#     Edge 17, Type (0, 1), BuildingBlock: MIFKUJ_clean_linker_0, # of connection points: 2
#     Edge 18, Type (0, 1), BuildingBlock: MIFKUJ_clean_linker_0, # of connection points: 2
#     Edge 19, Type (0, 1), BuildingBlock: MIFKUJ_clean_linker_0, # of connection points: 2
#     Edge 20, Type (0, 1), BuildingBlock: MIFKUJ_clean_linker_0, # of connection points: 2
#     Edge 21, Type (0, 1), BuildingBlock: MIFKUJ_clean_linker_0, # of connection points: 2
#     Edge 22, Type (0, 1), BuildingBlock: MIFKUJ_clean_linker_0, # of connection points: 2
#     Edge 23, Type (0, 1), BuildingBlock: MIFKUJ_clean_linker_0, # of connection points: 2
#     Edge 24, Type (0, 1), BuildingBlock: MIFKUJ_clean_linker_0, # of connection points: 2
#     Edge 25, Type (0, 1), BuildingBlock: MIFKUJ_clean_linker_0, # of connection points: 2
#     Edge 26, Type (0, 1), BuildingBlock: MIFKUJ_clean_linker_0, # of connection points: 2
#     Edge 27, Type (0, 1), BuildingBlock: MIFKUJ_clean_linker_0, # of connection points: 2
#     Edge 28, Type (0, 1), BuildingBlock: MIFKUJ_clean_linker_0, # of connection points: 2
#     Edge 29, Type (0, 1), BuildingBlock: MIFKUJ_clean_linker_0, # of connection points: 2
#     Edge 30, Type (0, 1), BuildingBlock: MIFKUJ_clean_linker_0, # of connection points: 2
#     Edge 31, Type (0, 1), BuildingBlock: MIFKUJ_clean_linker_0, # of connection points: 2
#     Edge 32, Type (0, 1), BuildingBlock: MIFKUJ_clean_linker_0, # of connection points: 2
#     Edge 33, Type (0, 1), BuildingBlock: MIFKUJ_clean_linker_0, # of connection points: 2
#     Edge 34, Type (0, 1), BuildingBlock: MIFKUJ_clean_linker_0, # of connection points: 2
#     Edge 35, Type (0, 1), BuildingBlock: MIFKUJ_clean_linker_0, # of connection points: 2
# Relax obj value: 0.376
# Max RMSD: 0.239
# Mean RMSD: 0.220
data_MOF--net-zzz--node1-CUWYAW_clean_sbu_0--node2-BELTOD_clean_linker_0--edge1-MIFKUJ_clean_linker_0
_symmetry_space_group_name_H-M    P1
_symmetry_Int_Tables_number       1
_symmetry_cell_setting            triclinic
loop_
_symmetry_equiv_pos_as_xyz
'x, y, z'
_cell_length_a     70.247942
_cell_length_b     70.184136
_cell_length_c     22.435815
_cell_angle_alpha  89.996347
_cell_angle_beta   89.93265
_cell_angle_gamma 89.996262
loop_
_atom_site_label
_atom_site_type_symbol
_atom_site_fract_x
_atom_site_fract_y
_atom_site_fract_z
_atom_type_partial_charge
P0 P 0.71596 0.47759 0.30232 0.0
H1 H 0.7291 0.48017 0.4251 0.0
H2 H 0.75883 0.49127 0.46636 0.0
H3 H 0.772 0.51931 0.29969 0.0
H4 H 0.74234 0.5071 0.25754 0.0
H5 H 0.68265 0.45978 0.25418 0.0
H6 H 0.65764 0.46989 0.18674 0.0
H7 H 0.68271 0.52606 0.17779 0.0
H8 H 0.70815 0.51555 0.24578 0.0
H9 H 0.73554 0.44183 0.32782 0.0
H10 H 0.72985 0.48075 0.18026 0.0
O11 O 0.70541 0.4643 0.35452 0.0
H12 H 0.76082 0.42491 0.27485 0.0
H13 H 0.75547 0.46445 0.12795 0.0
C14 C 0.73318 0.49296 0.33824 0.0
C15 C 0.73796 0.48929 0.39783 0.0
C16 C 0.75521 0.4957 0.4216 0.0
C17 C 0.7682 0.50608 0.38645 0.0
C18 C 0.76266 0.51102 0.32799 0.0
C19 C 0.74541 0.5044 0.30404 0.0
C20 C 0.69713 0.48696 0.25586 0.0
C21 C 0.68268 0.47439 0.2385 0.0
C22 C 0.66827 0.48024 0.19994 0.0
C23 C 0.66791 0.4989 0.17722 0.0
C24 C 0.68253 0.51157 0.19437 0.0
C25 C 0.69705 0.50563 0.23348 0.0
C26 C 0.73061 0.46231 0.25746 0.0
C27 C 0.73936 0.44639 0.28327 0.0
C28 C 0.75396 0.43687 0.25321 0.0
C29 C 0.76028 0.44337 0.19726 0.0
C30 C 0.75079 0.45881 0.17043 0.0
C31 C 0.73612 0.46821 0.20037 0.0
P32 P 0.02517 0.71431 0.32539 0.0
H33 H 0.02854 0.72878 0.44678 0.0
H34 H 0.01915 0.75893 0.48937 0.0
H35 H 0.9817 0.76881 0.33972 0.0
H36 H 0.99218 0.7388 0.29551 0.0
H37 H 0.04188 0.67823 0.29377 0.0
H38 H 0.03321 0.6536 0.22303 0.0
H39 H 0.97884 0.68081 0.19527 0.0
H40 H 0.98755 0.70557 0.26815 0.0
H41 H 0.05843 0.73919 0.32741 0.0
H42 H 0.01399 0.72404 0.20369 0.0
O43 O 0.04253 0.70627 0.36952 0.0
H44 H 0.06704 0.76627 0.26447 0.0
H45 H 0.02184 0.75117 0.1425 0.0
C46 C 0.01099 0.73117 0.3679 0.0
C47 C 0.01776 0.73699 0.42387 0.0
C48 C 0.01234 0.75451 0.44842 0.0
C49 C 0.99981 0.76678 0.41793 0.0
C50 C 0.99174 0.76013 0.36417 0.0
C51 C 0.99737 0.74261 0.3393 0.0
C52 C 0.01535 0.69377 0.28704 0.0
C53 C 0.02781 0.67869 0.27421 0.0
C54 C 0.02293 0.66467 0.23291 0.0
C55 C 0.00549 0.6654 0.2025 0.0
C56 C 0.9924 0.67983 0.21796 0.0
C57 C 0.99733 0.69397 0.25981 0.0
C58 C 0.03572 0.72943 0.26999 0.0
C59 C 0.05099 0.74125 0.28566 0.0
C60 C 0.05573 0.75687 0.25 0.0
C61 C 0.04498 0.76108 0.19878 0.0
C62 C 0.03066 0.74829 0.18101 0.0
C63 C 0.02608 0.73265 0.21634 0.0
P64 P 0.78846 0.02047 0.30068 0.0
H65 H 0.77604 0.01386 0.42306 0.0
H66 H 0.74564 0.00359 0.46213 0.0
H67 H 0.72963 0.98335 0.28717 0.0
H68 H 0.75993 0.99475 0.24769 0.0
H69 H 0.82489 0.03568 0.26635 0.0
H70 H 0.84941 0.0258 0.19645 0.0
H71 H 0.8171 0.9751 0.15545 0.0
H72 H 0.79233 0.98525 0.2263 0.0
H73 H 0.7678 0.0543 0.33836 0.0
H74 H 0.77658 0.02262 0.17601 0.0
O75 O 0.79939 0.03194 0.35613 0.0
H76 H 0.74188 0.07195 0.29125 0.0
H77 H 0.75051 0.0398 0.12912 0.0
C78 C 0.77055 0.00493 0.33236 0.0
C79 C 0.76636 0.00657 0.3933 0.0
C80 C 0.74875 1.00065 0.41578 0.0
C81 C 0.73482 0.99283 0.37789 0.0
C82 C 0.73973 0.98969 0.31769 0.0
C83 C 0.75734 0.99581 0.29514 0.0
C84 C 0.8069 0.01107 0.25257 0.0
C85 C 0.82317 0.02224 0.24326 0.0
C86 C 0.83726 0.01653 0.2032 0.0
C87 C 0.8354 0.99952 0.17068 0.0
C88 C 0.81899 0.98829 0.17975 0.0
C89 C 0.80485 0.99402 0.22049 0.0
C90 C 0.77434 0.03741 0.26033 0.0
C91 C 0.76462 0.05165 0.29187 0.0
C92 C 0.74966 0.06156 0.26513 0.0
C93 C 0.74404 0.05721 0.20657 0.0
C94 C 0.75464 0.04375 0.17394 0.0
C95 C 0.76961 0.03389 0.20073 0.0
P96 P 0.48498 0.78868 0.32127 0.0
H97 H 0.49608 0.77702 0.44181 0.0
H98 H 0.50494 0.74583 0.47987 0.0
H99 H 0.51493 0.72628 0.29998 0.0
H100 H 0.50556 0.75749 0.26208 0.0
H101 H 0.47461 0.82814 0.30246 0.0
H102 H 0.48357 0.85181 0.22846 0.0
H103 H 0.52521 0.81288 0.1559 0.0
H104 H 0.51606 0.78905 0.23087 0.0
H105 H 0.45534 0.76342 0.3635 0.0
H106 H 0.47628 0.78336 0.19373 0.0
O107 O 0.47469 0.79949 0.37923 0.0
H108 H 0.44014 0.73642 0.31403 0.0
H109 H 0.46115 0.75653 0.14439 0.0
C110 C 0.50023 0.76981 0.34891 0.0
C111 C 0.50094 0.76634 0.41049 0.0
C112 C 0.50595 0.74833 0.43235 0.0
C113 C 0.51032 0.73331 0.39305 0.0
C114 C 0.51129 0.73735 0.3316 0.0
C115 C 0.50632 0.75541 0.30982 0.0
C116 C 0.49488 0.80689 0.27315 0.0
C117 C 0.48604 0.8248 0.27176 0.0
C118 C 0.49118 0.83839 0.22918 0.0
C119 C 0.50517 0.83433 0.18614 0.0
C120 C 0.51431 0.81645 0.18819 0.0
C121 C 0.50923 0.80286 0.23142 0.0
C122 C 0.46699 0.77539 0.28246 0.0
C123 C 0.45586 0.76256 0.31531 0.0
C124 C 0.44732 0.74704 0.28712 0.0
C125 C 0.44972 0.74427 0.22558 0.0
C126 C 0.45898 0.75837 0.19186 0.0
C127 C 0.46769 0.77377 0.2202 0.0
P128 P 0.27233 0.45956 0.06091 0.0
H129 H 0.25813 0.44288 0.94954 0.0
H130 H 0.23213 0.45242 0.88427 0.0
H131 H 0.23002 0.50727 0.97119 0.0
H132 H 0.2561 0.49753 0.03687 0.0
H133 H 0.30853 0.4391 0.06901 0.0
H134 H 0.33829 0.44757 0.11723 0.0
H135 H 0.31948 0.50601 0.13039 0.0
H136 H 0.28941 0.4973 0.08228 0.0
H137 H 0.23157 0.46292 0.08586 0.0
H138 H 0.28394 0.46707 0.18566 0.0
O139 O 0.27236 0.43587 0.05443 0.0
H140 H 0.21395 0.47473 0.17188 0.0
H141 H 0.26636 0.47923 0.27136 0.0
C142 C 0.25909 0.46941 0.99859 0.0
C143 C 0.2526 0.45722 0.95334 0.0
C144 C 0.23761 0.46271 0.91587 0.0
C145 C 0.22867 0.48051 0.92305 0.0
C146 C 0.23633 0.49333 0.96504 0.0
C147 C 0.25147 0.48788 0.00212 0.0
C148 C 0.29663 0.46755 0.07172 0.0
C149 C 0.31101 0.45391 0.08 0.0
C150 C 0.32813 0.45878 0.10796 0.0
C151 C 0.33124 0.47743 0.12878 0.0
C152 C 0.31745 0.49144 0.11586 0.0
C153 C 0.30035 0.48655 0.08735 0.0
C154 C 0.25922 0.46516 0.1279 0.0
C155 C 0.23933 0.46647 0.12601 0.0
C156 C 0.22926 0.47323 0.17522 0.0
C157 C 0.23888 0.47847 0.22763 0.0
C158 C 0.25861 0.47555 0.23126 0.0
C159 C 0.2687 0.4688 0.18185 0.0
P160 P 0.0359 0.28585 0.02238 0.0
H161 H 0.04459 0.2731 0.90113 0.0
H162 H 0.03597 0.24433 0.8479 0.0
H163 H 0.99221 0.23286 0.97874 0.0
H164 H 1.00164 0.2615 0.03343 0.0
H165 H 0.05544 0.32035 0.055 0.0
H166 H 0.04562 0.34854 0.10802 0.0
H167 H 0.98673 0.33173 0.08931 0.0
H168 H 0.99701 0.30275 0.03641 0.0
H169 H 0.06292 0.25749 0.06608 0.0
H170 H 0.01273 0.28616 0.13165 0.0
O171 O 0.05796 0.28882 0.99612 0.0
H172 H 0.06413 0.23856 0.15755 0.0
H173 H 0.01427 0.26793 0.22322 0.0
C174 C 0.0239 0.26956 0.9718 0.0
C175 C 0.03276 0.26476 0.9177 0.0
C176 C 0.02775 0.2481 0.88698 0.0
C177 C 0.01357 0.23578 0.90919 0.0
C178 C 0.00357 0.24157 0.96079 0.0
C179 C 0.00871 0.25822 0.99177 0.0
C180 C 0.027 0.30945 0.04049 0.0
C181 C 0.04033 0.32296 0.05994 0.0
C182 C 0.03463 0.33926 0.09079 0.0
C183 C 0.01531 0.34264 0.10355 0.0
C184 C 1.00176 0.32959 0.08103 0.0
C185 C 0.00757 0.31315 0.04974 0.0
C186 C 0.03797 0.27351 0.09228 0.0
C187 C 0.05246 0.26006 0.10064 0.0
C188 C 0.0532 0.24935 0.15309 0.0
C189 C 0.03934 0.25185 0.1977 0.0
C190 C 0.0251 0.26564 0.18958 0.0
C191 C 0.02432 0.27622 0.13715 0.0
P192 P 0.22701 0.04877 0.04717 0.0
H193 H 0.24259 0.06135 0.93239 0.0
H194 H 0.27045 0.05116 0.8766 0.0
H195 H 0.27484 1.00116 0.98819 0.0
H196 H 0.24729 0.01195 0.04545 0.0
H197 H 0.18742 0.06176 0.04442 0.0
H198 H 0.15951 0.05096 0.09918 0.0
H199 H 0.18948 0.99977 0.14992 0.0
H200 H 0.21751 0.01073 0.09494 0.0
H201 H 0.2672 0.05672 0.06966 0.0
H202 H 0.21688 0.0463 0.17546 0.0
O203 O 0.22239 0.0709 0.02411 0.0
H204 H 0.28695 0.05217 0.15774 0.0
H205 H 0.23662 0.04086 0.26282 0.0
C206 C 0.24257 0.03737 0.99307 0.0
C207 C 0.24911 0.04787 0.94383 0.0
C208 C 0.2652 0.04198 0.91174 0.0
C209 C 0.27524 0.02541 0.92809 0.0
C210 C 0.26779 0.01419 0.97481 0.0
C211 C 0.2517 0.02015 0.00701 0.0
C212 C 0.20468 0.03707 0.06513 0.0
C213 C 0.18783 0.04785 0.06519 0.0
C214 C 0.1718 0.04166 0.09689 0.0
C215 C 0.17232 0.02463 0.12987 0.0
C216 C 0.18868 0.01309 0.12569 0.0
C217 C 0.20466 0.0192 0.0933 0.0
C218 C 0.24065 0.05063 0.11499 0.0
C219 C 0.26035 0.05355 0.11178 0.0
C220 C 0.27164 0.05094 0.16219 0.0
C221 C 0.26337 0.04545 0.21666 0.0
C222 C 0.24344 0.04481 0.22132 0.0
C223 C 0.23214 0.04761 0.17089 0.0
P224 P 0.45791 0.23234 0.08299 0.0
H225 H 0.43833 0.24349 0.97308 0.0
H226 H 0.4456 0.26874 0.90203 0.0
H227 H 0.50244 0.27297 0.9737 0.0
H228 H 0.49513 0.24743 0.04442 0.0
H229 H 0.43546 0.20164 0.13369 0.0
H230 H 0.44384 0.17139 0.17841 0.0
H231 H 0.50185 0.17834 0.1182 0.0
H232 H 0.49318 0.20907 0.07271 0.0
H233 H 0.45071 0.27184 0.11134 0.0
H234 H 0.48586 0.22655 0.18088 0.0
O235 O 0.43424 0.23447 0.08482 0.0
H236 H 0.46738 0.29467 0.1747 0.0
H237 H 0.5027 0.24932 0.24317 0.0
C238 C 0.4661 0.24356 0.0147 0.0
C239 C 0.45261 0.24927 0.9722 0.0
C240 C 0.45671 0.26398 0.93197 0.0
C241 C 0.47444 0.27332 0.93314 0.0
C242 C 0.48862 0.26619 0.97152 0.0
C243 C 0.48449 0.25142 0.01183 0.0
C244 C 0.46361 0.20764 0.09898 0.0
C245 C 0.44986 0.19648 0.12804 0.0
C246 C 0.45471 0.17905 0.15393 0.0
C247 C 0.47355 0.17234 0.15227 0.0
C248 C 0.48721 0.18312 0.12072 0.0
C249 C 0.48224 0.20058 0.09396 0.0
C250 C 0.46703 0.24749 0.14099 0.0
C251 C 0.46169 0.26672 0.1412 0.0
C252 C 0.47133 0.27977 0.17694 0.0
C253 C 0.4865 0.27378 0.21315 0.0
C254 C 0.49103 0.25431 0.21579 0.0
C255 C 0.48141 0.24126 0.17976 0.0
C256 C 0.9799 0.02418 0.49059 0.0
Eu257 Eu 0.98936 0.0088 0.59057 0.0
C258 C 0.98805 0.04177 0.46669 0.0
C259 C 0.97737 0.05371 0.42952 0.0
C260 C 0.98363 0.07229 0.41809 0.0
C261 C 1.00045 0.07911 0.44456 0.0
C262 C 0.01144 0.0668 0.47963 0.0
C263 C 0.00528 0.04834 0.49065 0.0
C264 C 0.96776 0.99795 0.68697 0.0
C265 C 0.00499 0.04142 0.68491 0.0
C266 C 0.02531 0.98635 0.81369 0.0
Eu267 Eu 0.01509 0.99687 0.70769 0.0
C268 C 0.01913 0.97253 0.85824 0.0
C269 C 0.03077 0.9691 0.90752 0.0
C270 C 0.02687 0.9539 0.9455 0.0
C271 C 0.01122 0.94188 0.93463 0.0
C272 C 0.99884 0.94617 0.88721 0.0
C273 C 0.00282 0.96139 0.84904 0.0
C274 C 0.03737 0.00635 0.61132 0.0
C275 C 0.99916 0.96428 0.61351 0.0
O276 O 0.99152 0.00955 0.49369 0.0
O277 O 0.97018 0.02682 0.53981 0.0
O278 O 0.96052 1.00181 0.63507 0.0
O279 O 0.98542 0.99983 0.68227 0.0
O280 O 0.99888 0.03724 0.63043 0.0
O281 O 0.01023 0.02827 0.72396 0.0
O282 O 0.01386 1.00074 0.80382 0.0
O283 O 0.03243 0.979 0.76478 0.0
O284 O 0.04409 1.0015 0.663 0.0
O285 O 0.0195 0.00649 0.61576 0.0
O286 O 0.00487 0.96847 0.66876 0.0
O287 O 0.9944 0.97749 0.57368 0.0
H288 H 0.96383 0.04899 0.41176 0.0
H289 H 0.97491 0.08158 0.39088 0.0
H290 H 0.02459 0.07161 0.49987 0.0
H291 H 0.01351 0.03957 0.52074 0.0
H292 H 0.04345 0.97758 0.91489 0.0
H293 H 0.03686 0.95085 0.98097 0.0
H294 H 0.98657 0.93729 0.87815 0.0
H295 H 0.9937 0.96393 0.81093 0.0
C296 C 0.48078 0.9792 0.50032 0.0
Eu297 Eu 0.49748 0.98877 0.59871 0.0
C298 C 0.46063 0.9813 0.48455 0.0
C299 C 0.45134 0.96683 0.45281 0.0
C300 C 0.43146 0.96674 0.44872 0.0
C301 C 0.42068 0.98104 0.47686 0.0
C302 C 0.4301 0.99586 0.50661 0.0
C303 C 0.44986 0.99593 0.51065 0.0
C304 C 0.5067 0.96507 0.69198 0.0
C305 C 0.46719 1.00268 0.69902 0.0
C306 C 0.52245 0.02547 0.81517 0.0
Eu307 Eu 0.51265 0.0122 0.71156 0.0
C308 C 0.53837 0.03581 0.84253 0.0
C309 C 0.53496 0.0475 0.89201 0.0
C310 C 0.55013 0.056 0.92219 0.0
C311 C 0.569 0.05284 0.90354 0.0
C312 C 0.57226 0.04168 0.85237 0.0
C313 C 0.55707 0.03331 0.822 0.0
C314 C 0.50829 0.03217 0.60885 0.0
C315 C 0.54289 0.99663 0.61348 0.0
O316 O 0.49074 0.99493 0.50567 0.0
O317 O 0.48366 0.9673 0.54418 0.0
O318 O 0.50099 0.95897 0.64055 0.0
O319 O 0.50764 0.98284 0.6886 0.0
O320 O 0.46987 0.99719 0.64327 0.0
O321 O 0.48147 0.00716 0.73497 0.0
O322 O 0.52611 0.00805 0.79742 0.0
O323 O 0.5118 0.03502 0.77766 0.0
O324 O 0.52146 0.03564 0.64802 0.0
O325 O 0.49734 0.01915 0.62759 0.0
O326 O 0.54022 1.00158 0.67014 0.0
O327 O 0.52861 0.99314 0.57627 0.0
H328 H 0.45938 0.9552 0.43347 0.0
H329 H 0.42452 0.95516 0.42536 0.0
H330 H 0.42218 0.00732 0.52742 0.0
H331 H 0.45662 0.00701 0.53648 0.0
H332 H 0.52058 0.04967 0.90819 0.0
H333 H 0.54709 0.06476 0.96077 0.0
H334 H 0.58659 0.03873 0.83712 0.0
H335 H 0.55998 0.02439 0.78364 0.0
C336 C 0.53098 0.48943 0.50169 0.0
Eu337 Eu 0.51319 0.49542 0.60141 0.0
C338 C 0.54234 0.47379 0.47668 0.0
C339 C 0.55641 0.46453 0.51043 0.0
C340 C 0.56469 0.4477 0.48951 0.0
C341 C 0.55879 0.43971 0.43506 0.0
C342 C 0.54556 0.44977 0.39993 0.0
C343 C 0.53752 0.46668 0.42046 0.0
C344 C 0.52986 0.49765 0.70985 0.0
C345 C 0.49549 0.4619 0.68203 0.0
C346 C 0.47382 0.51652 0.81314 0.0
Eu347 Eu 0.48635 0.50717 0.70801 0.0
C348 C 0.47225 0.53368 0.85053 0.0
C349 C 0.45406 0.53973 0.86818 0.0
C350 C 0.45175 0.55666 0.89977 0.0
C351 C 0.46762 0.56776 0.915 0.0
C352 C 0.48592 0.56145 0.89903 0.0
C353 C 0.48823 0.54456 0.86662 0.0
C354 C 0.46511 0.49956 0.60822 0.0
C355 C 0.50116 0.54044 0.62055 0.0
O356 O 0.51291 0.48553 0.50967 0.0
O357 O 0.53842 0.49899 0.5461 0.0
O358 O 0.53412 0.48495 0.66993 0.0
O359 O 0.51747 0.5091 0.68995 0.0
O360 O 0.50314 0.46616 0.62962 0.0
O361 O 0.48981 0.47515 0.72038 0.0
O362 O 0.49076 0.50917 0.8042 0.0
O363 O 0.46332 0.51665 0.76508 0.0
O364 O 0.45792 0.50499 0.65862 0.0
O365 O 0.48283 0.49851 0.61469 0.0
O366 O 0.49333 0.53655 0.6729 0.0
O367 O 0.50813 0.52699 0.58525 0.0
H368 H 0.56038 0.46976 0.5541 0.0
H369 H 0.57503 0.4405 0.51728 0.0
H370 H 0.54032 0.44399 0.35834 0.0
H371 H 0.52665 0.47361 0.3939 0.0
H372 H 0.44156 0.53151 0.85647 0.0
H373 H 0.43752 0.56112 0.91225 0.0
H374 H 0.49837 0.56983 0.9102 0.0
H375 H 0.50243 0.54025 0.8534 0.0
C376 C 0.01928 0.52976 0.51147 0.0
Eu377 Eu 0.00607 0.51385 0.60693 0.0
C378 C 0.03957 0.53056 0.49508 0.0
C379 C 0.0482 0.54807 0.48146 0.0
C380 C 0.06808 0.54957 0.47954 0.0
C381 C 0.07951 0.53363 0.49212 0.0
C382 C 0.0708 0.51599 0.50302 0.0
C383 C 0.05108 0.51445 0.50439 0.0
C384 C 0.00349 0.53294 0.7124 0.0
C385 C 0.03728 0.49601 0.68979 0.0
C386 C 0.98294 0.47408 0.80594 0.0
Eu387 Eu 0.99155 0.49058 0.70533 0.0
C388 C 0.96618 0.46554 0.83449 0.0
C389 C 0.96858 0.45035 0.87428 0.0
C390 C 0.95287 0.44244 0.90343 0.0
C391 C 0.93447 0.44967 0.8934 0.0
C392 C 0.93214 0.46475 0.85262 0.0
C393 C 0.94784 0.47254 0.8232 0.0
C394 C 0.99376 0.47151 0.60007 0.0
C395 C 0.96013 0.50794 0.61916 0.0
O396 O 0.01142 0.51285 0.51114 0.0
O397 O 0.01495 0.53946 0.55927 0.0
O398 O 0.0177 0.53424 0.67591 0.0
O399 O 0.99106 0.52176 0.69173 0.0
O400 O 0.03377 0.50037 0.63393 0.0
O401 O 0.02309 0.49425 0.72812 0.0
O402 O 0.98251 0.49253 0.79784 0.0
O403 O 0.98994 0.46494 0.76022 0.0
O404 O 0.97986 0.46975 0.63775 0.0
O405 O 0.0063 0.48269 0.62041 0.0
O406 O 0.96299 0.50113 0.67334 0.0
O407 O 0.97458 0.51236 0.58387 0.0
H408 H 0.0396 0.56072 0.47512 0.0
H409 H 0.0745 0.56331 0.47061 0.0
H410 H 0.07928 0.50337 0.5114 0.0
H411 H 0.04491 0.50077 0.51556 0.0
H412 H 0.98265 0.44469 0.88315 0.0
H413 H 0.95514 0.43067 0.93384 0.0
H414 H 0.91825 0.4709 0.84447 0.0
H415 H 0.94567 0.48423 0.79236 0.0
H416 H 0.17603 0.01228 0.24475 0.0
H417 H 0.15119 0.00803 0.3195 0.0
H418 H 0.10851 0.02297 0.18951 0.0
H419 H 0.13351 0.02765 0.11453 0.0
H420 H 0.10079 0.04059 0.28806 0.0
H421 H 0.11484 0.97584 0.24292 0.0
H422 H 0.13483 0.94743 0.22653 0.0
H423 H 0.15452 0.95028 0.40741 0.0
H424 H 0.13485 0.97886 0.42469 0.0
H425 H 0.02645 0.00937 0.49324 0.0
H426 H 0.0472 0.01219 0.4055 0.0
H427 H 0.09645 0.01019 0.51974 0.0
H428 H 0.07578 0.0082 0.60711 0.0
H429 H 0.09796 0.98447 0.42212 0.0
H430 H 0.08472 0.05058 0.46325 0.0
H431 H 0.06445 0.07889 0.47771 0.0
H432 H 0.04214 0.07254 0.30085 0.0
H433 H 0.062 0.04391 0.28563 0.0
C434 C 0.16134 0.01428 0.23159 0.0
C435 C 0.1568 0.02013 0.17332 0.0
C436 C 0.14708 0.01186 0.27456 0.0
C437 C 0.12782 0.01489 0.26029 0.0
C438 C 0.12321 0.02052 0.20188 0.0
C439 C 0.13752 0.02314 0.15895 0.0
C440 C 0.11271 0.01294 0.30707 0.0
C441 C 0.09996 0.02812 0.31648 0.0
C442 C 0.11163 0.99682 0.34507 0.0
C443 C 0.12347 0.97959 0.33494 0.0
C444 C 0.12353 0.97049 0.27909 0.0
C445 C 0.13479 0.95434 0.26966 0.0
C446 C 0.14597 0.94708 0.31586 0.0
C447 C 0.14587 0.95593 0.37165 0.0
C448 C 0.13465 0.97209 0.38131 0.0
C449 C 0.04161 0.01007 0.49967 0.0
C450 C 0.04936 0.00897 0.55726 0.0
C451 C 0.05351 0.01148 0.44947 0.0
C452 C 0.07342 0.01142 0.456 0.0
C453 C 0.08116 0.01024 0.51349 0.0
C454 C 0.06928 0.00916 0.56345 0.0
C455 C 0.08637 0.01219 0.40335 0.0
C456 C 0.09868 0.99679 0.39298 0.0
C457 C 0.08688 0.02798 0.36415 0.0
C458 C 0.07466 0.04494 0.37361 0.0
C459 C 0.07528 0.05503 0.42774 0.0
C460 C 0.06389 0.07113 0.43605 0.0
C461 C 0.05198 0.07741 0.39032 0.0
C462 C 0.05133 0.06757 0.33627 0.0
C463 C 0.06265 0.05141 0.32778 0.0
H464 H 0.0435 0.09008 0.39649 0.0
H465 H 0.15468 0.93458 0.30846 0.0
H466 H 0.50513 0.16695 0.22242 0.0
H467 H 0.51156 0.14061 0.29082 0.0
H468 H 0.46026 0.11245 0.23273 0.0
H469 H 0.45378 0.13875 0.1642 0.0
H470 H 0.46137 0.11274 0.3496 0.0
H471 H 0.50524 0.09514 0.19716 0.0
H472 H 0.53142 0.09923 0.125 0.0
H473 H 0.56999 0.11206 0.2678 0.0
H474 H 0.54397 0.10828 0.34081 0.0
H475 H 0.47882 0.03069 0.52856 0.0
H476 H 0.47352 0.0513 0.442 0.0
H477 H 0.52479 0.08237 0.48401 0.0
H478 H 0.53054 0.06113 0.56833 0.0
H479 H 0.5228 0.07855 0.36927 0.0
H480 H 0.47741 0.098 0.5208 0.0
H481 H 0.45095 0.0927 0.59128 0.0
H482 H 0.41477 0.07545 0.44691 0.0
H483 H 0.44111 0.08036 0.3757 0.0
C484 C 0.49545 0.15495 0.22306 0.0
C485 C 0.4789 0.15506 0.18771 0.0
C486 C 0.49911 0.13986 0.26246 0.0
C487 C 0.48643 0.12441 0.26712 0.0
C488 C 0.47024 0.12421 0.23043 0.0
C489 C 0.46654 0.13929 0.19116 0.0
C490 C 0.48945 0.10908 0.31257 0.0
C491 C 0.47472 0.10506 0.35319 0.0
C492 C 0.50693 0.09917 0.31823 0.0
C493 C 0.5226 0.1016 0.27443 0.0
C494 C 0.51926 0.099 0.21315 0.0
C495 C 0.53408 0.10123 0.1721 0.0
C496 C 0.55234 0.10595 0.19179 0.0
C497 C 0.55583 0.10842 0.2526 0.0
C498 C 0.54105 0.10622 0.29385 0.0
C499 C 0.48908 0.0417 0.51864 0.0
C500 C 0.50511 0.04417 0.55516 0.0
C501 C 0.48595 0.05367 0.4695 0.0
C502 C 0.49857 0.06872 0.45666 0.0
C503 C 0.51478 0.07094 0.49265 0.0
C504 C 0.51803 0.05882 0.54116 0.0
C505 C 0.49484 0.08244 0.40685 0.0
C506 C 0.50943 0.08617 0.36543 0.0
C507 C 0.47719 0.09203 0.40026 0.0
C508 C 0.46129 0.08937 0.44302 0.0
C509 C 0.46385 0.09297 0.50415 0.0
C510 C 0.44887 0.09003 0.54423 0.0
C511 C 0.43121 0.08366 0.52363 0.0
C512 C 0.42847 0.08031 0.46285 0.0
C513 C 0.44341 0.08318 0.42261 0.0
H514 H 0.41964 0.08137 0.55472 0.0
H515 H 0.5638 0.10765 0.15993 0.0
H516 H 0.33121 0.49889 0.2306 0.0
H517 H 0.35688 0.50314 0.30234 0.0
H518 H 0.39412 0.46915 0.19245 0.0
H519 H 0.36832 0.46472 0.1203 0.0
H520 H 0.39776 0.45847 0.30438 0.0
H521 H 0.39977 0.51837 0.20551 0.0
H522 H 0.38729 0.54827 0.16313 0.0
H523 H 0.36836 0.56589 0.33662 0.0
H524 H 0.38049 0.53597 0.37996 0.0
H525 H 0.47596 0.48348 0.50089 0.0
H526 H 0.45641 0.48014 0.41038 0.0
H527 H 0.40937 0.50712 0.50081 0.0
H528 H 0.4287 0.51043 0.59038 0.0
H529 H 0.41473 0.5216 0.38824 0.0
H530 H 0.41036 0.45963 0.48345 0.0
H531 H 0.42388 0.42999 0.52475 0.0
H532 H 0.44885 0.41685 0.35488 0.0
H533 H 0.43567 0.44654 0.31277 0.0
C534 C 0.34497 0.49265 0.22082 0.0
C535 C 0.34767 0.48159 0.16918 0.0
C536 C 0.35968 0.49505 0.26217 0.0
C537 C 0.37762 0.48666 0.25278 0.0
C538 C 0.38046 0.47577 0.20093 0.0
C539 C 0.36568 0.47328 0.1596 0.0
C540 C 0.39306 0.48877 0.29827 0.0
C541 C 0.40172 0.47233 0.3218 0.0
C542 C 0.39824 0.5068 0.32174 0.0
C543 C 0.39093 0.52484 0.29591 0.0
C544 C 0.39282 0.52855 0.23457 0.0
C545 C 0.38583 0.54552 0.21038 0.0
C546 C 0.377 0.55895 0.24714 0.0
C547 C 0.37519 0.55547 0.30819 0.0
C548 C 0.38215 0.53851 0.33261 0.0
C549 C 0.46152 0.48878 0.50111 0.0
C550 C 0.45392 0.49729 0.55262 0.0
C551 C 0.45031 0.48679 0.44956 0.0
C552 C 0.43137 0.49338 0.44873 0.0
C553 C 0.42392 0.50199 0.50012 0.0
C554 C 0.435 0.5038 0.55146 0.0
C555 C 0.41901 0.49132 0.39506 0.0
C556 C 0.41094 0.50779 0.37007 0.0
C557 C 0.41451 0.47336 0.37004 0.0
C558 C 0.42221 0.4554 0.39514 0.0
C559 C 0.41885 0.45048 0.45502 0.0
C560 C 0.42643 0.43367 0.47856 0.0
C561 C 0.43727 0.42158 0.4425 0.0
C562 C 0.44048 0.42624 0.38277 0.0
C563 C 0.43295 0.44306 0.35904 0.0
H564 H 0.44313 0.40857 0.46077 0.0
H565 H 0.3716 0.57208 0.22832 0.0
H566 H 0.98699 0.34363 0.18919 0.0
H567 H 0.98156 0.36809 0.26514 0.0
H568 H 0.02663 0.40211 0.19005 0.0
H569 H 0.03156 0.37831 0.11227 0.0
H570 H 0.03079 0.39464 0.31376 0.0
H571 H 0.98419 0.41803 0.17714 0.0
H572 H 0.95608 0.41719 0.11152 0.0
H573 H 0.92067 0.40212 0.26031 0.0
H574 H 0.94862 0.40257 0.32674 0.0
H575 H 0.02187 0.47269 0.51469 0.0
H576 H 0.02421 0.45343 0.42373 0.0
H577 H 0.97185 0.42486 0.47006 0.0
H578 H 0.96913 0.44456 0.55938 0.0
H579 H 0.97164 0.4307 0.35673 0.0
H580 H 0.01804 0.40466 0.49177 0.0
H581 H 0.04579 0.40565 0.55897 0.0
H582 H 0.08114 0.42489 0.41478 0.0
H583 H 0.05354 0.42424 0.34686 0.0
C584 C 0.9954 0.35654 0.1875 0.0
C585 C 0.00991 0.35873 0.14452 0.0
C586 C 0.99235 0.3705 0.23141 0.0
C587 C 0.0038 0.3869 0.23372 0.0
C588 C 0.01773 0.38951 0.1896 0.0
C589 C 0.02059 0.37576 0.14523 0.0
C590 C 1.00225 0.40063 0.28441 0.0
C591 C 0.01793 0.40273 0.32265 0.0
C592 C 0.98535 0.41087 0.29697 0.0
C593 C 0.96858 0.41008 0.25682 0.0
C594 C 0.97046 0.41427 0.19576 0.0
C595 C 0.95454 0.41393 0.15844 0.0
C596 C 0.93661 0.40954 0.18169 0.0
C597 C 0.93457 0.40547 0.24233 0.0
C598 C 0.95045 0.40577 0.27984 0.0
C599 C 0.01085 0.46236 0.50525 0.0
C600 C 0.9954 0.46008 0.54448 0.0
C601 C 0.01223 0.45123 0.45336 0.0
C602 C 0.99837 0.43733 0.4401 0.0
C603 C 0.98277 0.43537 0.47891 0.0
C604 C 0.98129 0.44661 0.53029 0.0
C605 C 1.00015 0.42461 0.38663 0.0
C606 C 0.98452 0.42265 0.34787 0.0
C607 C 0.01705 0.41433 0.37379 0.0
C608 C 0.03369 0.41458 0.41441 0.0
C609 C 0.03171 0.40922 0.4745 0.0
C610 C 0.04741 0.4097 0.5127 0.0
C611 C 0.0652 0.41539 0.4912 0.0
C612 C 0.06734 0.42053 0.43139 0.0
C613 C 0.05168 0.42008 0.39302 0.0
H614 H 0.07734 0.41576 0.52085 0.0
H615 H 0.92429 0.40934 0.15275 0.0
H616 H 0.87412 1.00209 0.18266 0.0
H617 H 0.89838 0.99768 0.10579 0.0
H618 H 0.85507 0.98055 0.9808 0.0
H619 H 0.83061 0.98508 0.05761 0.0
H620 H 0.88852 0.95919 0.96876 0.0
H621 H 0.87046 0.02547 0.98045 0.0
H622 H 0.86504 0.05604 0.03192 0.0
H623 H 0.92383 0.05785 0.08391 0.0
H624 H 0.92953 0.02712 0.03346 0.0
H625 H 0.93175 0.9841 0.69196 0.0
H626 H 0.91169 0.97987 0.78027 0.0
H627 H 0.95821 0.99777 0.89236 0.0
H628 H 0.97824 1.00209 0.80373 0.0
H629 H 0.92513 0.01729 0.91604 0.0
H630 H 0.94434 0.9528 0.89856 0.0
H631 H 0.95043 0.92222 0.84807 0.0
H632 H 0.8909 0.91671 0.80834 0.0
H633 H 0.88447 0.94743 0.85788 0.0
C634 C 0.86972 0.99729 0.13892 0.0
C635 C 0.85034 0.99422 0.12616 0.0
C636 C 0.88364 0.99471 0.09502 0.0
C637 C 0.87855 0.98909 0.03715 0.0
C638 C 0.85936 0.98493 0.02509 0.0
C639 C 0.84538 0.9875 0.06912 0.0
C640 C 0.89303 0.98887 0.98847 0.0
C641 C 0.8964 0.97193 0.95682 0.0
C642 C 0.90373 0.00535 0.97388 0.0
C643 C 0.90037 0.02391 0.00373 0.0
C644 C 0.8822 0.03232 0.00324 0.0
C645 C 0.87908 0.04968 0.03217 0.0
C646 C 0.89407 0.05886 0.06131 0.0
C647 C 0.91222 0.05071 0.06141 0.0
C648 C 0.91541 0.03333 0.03263 0.0
C649 C 0.9378 0.98679 0.73555 0.0
C650 C 0.95667 0.99319 0.7411 0.0
C651 C 0.92634 0.98432 0.78602 0.0
C652 C 0.93344 0.98838 0.84312 0.0
C653 C 0.95243 0.99444 0.84884 0.0
C654 C 0.96396 0.99671 0.79827 0.0
C655 C 0.92056 0.98765 0.89591 0.0
C656 C 0.91742 0.00447 0.92825 0.0
C657 C 0.91018 0.97105 0.91121 0.0
C658 C 0.91394 0.95252 0.88151 0.0
C659 C 0.93255 0.94516 0.87863 0.0
C660 C 0.93607 0.92778 0.85026 0.0
C661 C 0.92107 0.91755 0.82489 0.0
C662 C 0.90251 0.92466 0.82798 0.0
C663 C 0.89891 0.94205 0.85626 0.0
H664 H 0.92381 0.9041 0.80293 0.0
H665 H 0.89163 0.0723 0.08368 0.0
H666 H 0.51044 0.82743 0.06681 0.0
H667 H 0.51391 0.85071 0.98645 0.0
H668 H 0.5121 0.89643 0.11479 0.0
H669 H 0.50858 0.8732 0.19534 0.0
H670 H 0.48925 0.90436 0.02509 0.0
H671 H 0.55387 0.88372 0.04151 0.0
H672 H 0.58027 0.86061 0.04606 0.0
H673 H 0.56642 0.84065 0.87049 0.0
H674 H 0.53976 0.86347 0.86519 0.0
H675 H 0.50993 0.97581 0.80926 0.0
H676 H 0.51338 0.95495 0.89632 0.0
H677 H 0.51338 0.90581 0.7808 0.0
H678 H 0.51055 0.92666 0.69396 0.0
H679 H 0.53891 0.90121 0.86805 0.0
H680 H 0.47307 0.92051 0.85499 0.0
H681 H 0.44718 0.94418 0.84939 0.0
H682 H 0.46375 0.96696 0.01921 0.0
H683 H 0.48995 0.94359 0.02536 0.0
C684 C 0.51116 0.84241 0.07812 0.0
C685 C 0.50922 0.8484 0.13768 0.0
C686 C 0.51311 0.85575 0.032 0.0
C687 C 0.51339 0.87541 0.04435 0.0
C688 C 0.51185 0.88139 0.10391 0.0
C689 C 0.50983 0.86807 0.14998 0.0
C690 C 0.51446 0.8897 0.99506 0.0
C691 C 0.50032 0.90384 0.99138 0.0
C692 C 0.52867 0.88892 0.9502 0.0
C693 C 0.54471 0.8752 0.95319 0.0
C694 C 0.55636 0.8743 0.00405 0.0
C695 C 0.57139 0.86127 0.00673 0.0
C696 C 0.57499 0.84914 0.95865 0.0
C697 C 0.5636 0.85004 0.90772 0.0
C698 C 0.54854 0.86304 0.90483 0.0
C699 C 0.51116 0.96062 0.80247 0.0
C700 C 0.51019 0.9529 0.74481 0.0
C701 C 0.51289 0.94865 0.85228 0.0
C702 C 0.51345 0.92872 0.84533 0.0
C703 C 0.51301 0.92109 0.7875 0.0
C704 C 0.51132 0.93303 0.73786 0.0
C705 C 0.51363 0.9157 0.89796 0.0
C706 C 0.52796 0.9018 0.90214 0.0
C707 C 0.49961 0.91669 0.94331 0.0
C708 C 0.48358 0.93043 0.94035 0.0
C709 C 0.47125 0.93063 0.89099 0.0
C710 C 0.45653 0.94399 0.88771 0.0
C711 C 0.45386 0.9571 0.93383 0.0
C712 C 0.46586 0.95681 0.98347 0.0
C713 C 0.48064 0.94351 0.98689 0.0
H714 H 0.44247 0.96746 0.93114 0.0
H715 H 0.58664 0.83906 0.96081 0.0
H716 H 0.67097 0.52074 0.07557 0.0
H717 H 0.64647 0.52662 1.00015 0.0
H718 H 0.60599 0.49464 0.10469 0.0
H719 H 0.63002 0.48955 0.18113 0.0
H720 H 0.62995 0.50288 0.93131 0.0
H721 H 0.56083 0.50678 0.07619 0.0
H722 H 0.55055 0.52011 0.17271 0.0
H723 H 0.59613 0.56082 0.16629 0.0
H724 H 0.60653 0.54793 0.06937 0.0
H725 H 0.55349 0.47211 0.76145 0.0
H726 H 0.57553 0.47719 0.84379 0.0
H727 H 0.55531 0.53493 0.86266 0.0
H728 H 0.53262 0.52962 0.78075 0.0
H729 H 0.56264 0.52058 0.96944 0.0
H730 H 0.59738 0.52524 0.78868 0.0
H731 H 0.60828 0.51562 0.6886 0.0
H732 H 0.6331 0.46483 0.76169 0.0
H733 H 0.6221 0.47401 0.86213 0.0
C734 C 0.65672 0.5154 0.08326 0.0
C735 C 0.65258 0.50453 0.13439 0.0
C736 C 0.64273 0.51863 0.03977 0.0
C737 C 0.62425 0.51116 0.04648 0.0
C738 C 0.61996 0.50086 0.09849 0.0
C739 C 0.63386 0.49773 0.142 0.0
C740 C 0.60993 0.51268 0.99735 0.0
C741 C 0.61528 0.50689 0.93979 0.0
C742 C 0.5908 0.51834 0.0075 0.0
C743 C 0.58455 0.52627 0.06566 0.0
C744 C 0.56861 0.51863 0.09521 0.0
C745 C 0.56277 0.5261 0.15004 0.0
C746 C 0.57271 0.54127 0.17569 0.0
C747 C 0.58848 0.54903 0.14649 0.0
C748 C 0.59437 0.54163 0.09164 0.0
C749 C 0.55358 0.48584 0.78348 0.0
C750 C 0.54149 0.50053 0.76421 0.0
C751 C 0.56629 0.48878 0.83041 0.0
C752 C 0.56754 0.50662 0.85856 0.0
C753 C 0.55479 0.52109 0.84136 0.0
C754 C 0.54183 0.51806 0.79458 0.0
C755 C 0.58258 0.51007 0.9044 0.0
C756 C 0.57736 0.51677 0.9611 0.0
C757 C 0.60198 0.50577 0.89316 0.0
C758 C 0.60881 0.50026 0.83291 0.0
C759 C 0.60507 0.51196 0.78337 0.0
C760 C 0.61127 0.50659 0.72658 0.0
C761 C 0.62135 0.48961 0.71878 0.0
C762 C 0.62528 0.47798 0.7678 0.0
C763 C 0.61909 0.48327 0.82469 0.0
H764 H 0.62613 0.48547 0.67477 0.0
H765 H 0.56817 0.54702 0.21815 0.0
H766 H 0.97302 0.64479 0.17577 0.0
H767 H 0.96852 0.62208 0.09325 0.0
H768 H 0.02569 0.63331 0.03249 0.0
H769 H 0.03014 0.65593 0.11365 0.0
H770 H 1.00102 0.633 0.94057 0.0
H771 H 0.01478 0.59319 0.11168 0.0
H772 H 0.0091 0.58046 0.2126 0.0
H773 H 0.9538 0.56083 0.15905 0.0
H774 H 0.95907 0.57369 0.05797 0.0
H775 H 0.02926 0.55789 0.75713 0.0
H776 H 0.02549 0.57988 0.84045 0.0
H777 H 0.96866 0.55877 0.87092 0.0
H778 H 0.9725 0.53636 0.78726 0.0
H779 H 0.98745 0.56457 0.97623 0.0
H780 H 0.97493 0.60125 0.8023 0.0
H781 H 0.98057 0.61372 0.70106 0.0
H782 H 0.03276 0.63949 0.75935 0.0
H783 H 0.02758 0.62695 0.86078 0.0
C784 C 0.98455 0.64246 0.14454 0.0
C785 C 1.00201 0.65203 0.15178 0.0
C786 C 0.98202 0.62939 0.09762 0.0
C787 C 0.99684 0.62581 0.05679 0.0
C788 C 0.01405 0.63573 0.06332 0.0
C789 C 0.01662 0.64858 0.11015 0.0
C790 C 0.99477 0.61179 0.00705 0.0
C791 C 0.99814 0.61802 0.9485 0.0
C792 C 0.99039 0.59232 0.01683 0.0
C793 C 0.98722 0.58462 0.07754 0.0
C794 C 1.00134 0.58632 0.1216 0.0
C795 C 0.99821 0.57905 0.17878 0.0
C796 C 0.98107 0.5699 0.19229 0.0
C797 C 0.96705 0.56796 0.14857 0.0
C798 C 0.97011 0.57523 0.09133 0.0
C799 C 0.01595 0.55786 0.78156 0.0
C800 C 1.00111 0.5455 0.76519 0.0
C801 C 0.01378 0.57052 0.82917 0.0
C802 C 0.99665 0.57131 0.86147 0.0
C803 C 0.98197 0.55854 0.84651 0.0
C804 C 0.98415 0.54577 0.79865 0.0
C805 C 0.99427 0.58572 0.91003 0.0
C806 C 0.99004 0.57958 0.9682 0.0
C807 C 0.99778 0.60535 0.89997 0.0
C808 C 1.00091 0.61304 0.83909 0.0
C809 C 0.98767 0.60947 0.79345 0.0
C810 C 0.99078 0.61657 0.73604 0.0
C811 C 0.00703 0.62736 0.72376 0.0
C812 C 0.02018 0.63112 0.76892 0.0
C813 C 0.01715 0.62404 0.82641 0.0
H814 H 0.00941 0.63284 0.67928 0.0
H815 H 0.97868 0.56427 0.23658 0.0
H816 H 0.00795 0.2347 0.24382 0.0
H817 H 0.00674 0.20977 0.31855 0.0
H818 H 0.06755 0.21393 0.34283 0.0
H819 H 0.06887 0.23909 0.26708 0.0
H820 H 0.0585 0.17928 0.31967 0.0
H821 H 0.03643 0.22312 0.46087 0.0
H822 H 0.01813 0.24983 0.50338 0.0
H823 H 0.96609 0.21889 0.47711 0.0
H824 H 0.984 0.19211 0.43354 0.0
H825 H 0.01234 0.10366 0.531 0.0
H826 H 0.02487 0.13598 0.51746 0.0
H827 H 0.01472 0.13172 0.32829 0.0
H828 H 1.00233 0.09942 0.34145 0.0
H829 H 0.00748 0.16826 0.46892 0.0
H830 H 0.05064 0.14798 0.25788 0.0
H831 H 0.07106 0.12166 0.22257 0.0
H832 H 0.08523 0.10754 0.40336 0.0
H833 H 0.06459 0.1335 0.43973 0.0
C834 C 0.02101 0.2308 0.26638 0.0
C835 C 0.03853 0.2388 0.24944 0.0
C836 C 0.02028 0.21656 0.30946 0.0
C837 C 0.03702 0.21012 0.33692 0.0
C838 C 0.05445 0.21876 0.32236 0.0
C839 C 0.0552 0.23301 0.27889 0.0
C840 C 0.03641 0.1924 0.37261 0.0
C841 C 0.0476 0.17703 0.35323 0.0
C842 C 0.02258 0.18948 0.41769 0.0
C843 C 0.01161 0.20557 0.44377 0.0
C844 C 0.02107 0.22204 0.46376 0.0
C845 C 0.01076 0.2372 0.48812 0.0
C846 C 0.99096 0.23606 0.49294 0.0
C847 C 0.98143 0.21975 0.47344 0.0
C848 C 0.99167 0.20455 0.44901 0.0
C849 C 0.01285 0.10966 0.48654 0.0
C850 C 0.00652 0.09908 0.43708 0.0
C851 C 0.01997 0.12806 0.47899 0.0
C852 C 0.02103 0.13599 0.42184 0.0
C853 C 0.01428 0.12564 0.37266 0.0
C854 C 0.007 0.10734 0.38022 0.0
C855 C 0.02865 0.15532 0.41263 0.0
C856 C 0.01879 0.17083 0.43694 0.0
C857 C 0.04398 0.15852 0.37322 0.0
C858 C 0.05607 0.14266 0.35146 0.0
C859 C 0.05811 0.13924 0.29005 0.0
C860 C 0.06964 0.12433 0.26988 0.0
C861 C 0.0794 0.1129 0.31071 0.0
C862 C 0.0776 0.11634 0.37179 0.0
C863 C 0.06586 0.13104 0.39222 0.0
H864 H 0.08834 0.10138 0.29504 0.0
H865 H 0.98301 0.24782 0.51181 0.0
H866 H 0.29356 0.02178 0.20479 0.0
H867 H 0.31246 0.00714 0.28267 0.0
H868 H 0.27911 0.03589 0.41688 0.0
H869 H 0.26011 0.05119 0.33802 0.0
H870 H 0.31854 0.03728 0.43769 0.0
H871 H 0.27253 0.98985 0.40761 0.0
H872 H 0.25043 0.96935 0.35143 0.0
H873 H 0.2976 0.94248 0.26331 0.0
H874 H 0.31999 0.96301 0.31815 0.0
H875 H 0.39568 0.98777 0.56809 0.0
H876 H 0.36131 0.99302 0.55973 0.0
H877 H 0.36411 0.97956 0.37224 0.0
H878 H 0.39828 0.97422 0.38034 0.0
H879 H 0.33032 0.96769 0.42305 0.0
H880 H 0.37176 0.02599 0.42423 0.0
H881 H 0.39473 0.04614 0.47861 0.0
H882 H 0.35528 0.05151 0.62405 0.0
H883 H 0.33216 0.03124 0.57057 0.0
C884 C 0.29037 0.02532 0.25073 0.0
C885 C 0.27545 0.03781 0.2652 0.0
C886 C 0.301 0.01666 0.2953 0.0
C887 C 0.29689 0.02011 0.35549 0.0
C888 C 0.2823 0.03289 0.37058 0.0
C889 C 0.27151 0.04159 0.32562 0.0
C890 C 0.30869 0.01065 0.40122 0.0
C891 C 0.32067 0.02198 0.43638 0.0
C892 C 0.31131 0.99065 0.40001 0.0
C893 C 0.29797 0.97798 0.36727 0.0
C894 C 0.2782 0.97961 0.37612 0.0
C895 C 0.26561 0.96798 0.34447 0.0
C896 C 0.27261 0.9546 0.30388 0.0
C897 C 0.29221 0.95281 0.2949 0.0
C898 C 0.30486 0.96442 0.3264 0.0
C899 C 0.38884 0.98562 0.52535 0.0
C900 C 0.39965 0.98094 0.47449 0.0
C901 C 0.36923 0.98848 0.52082 0.0
C902 C 0.36024 0.98692 0.46527 0.0
C903 C 0.37077 0.98076 0.41563 0.0
C904 C 0.39032 0.97778 0.42018 0.0
C905 C 0.34089 0.99452 0.45534 0.0
C906 C 0.3275 0.98283 0.42706 0.0
C907 C 0.33688 0.01413 0.46319 0.0
C908 C 0.35033 0.02708 0.49369 0.0
C909 C 0.36799 0.03155 0.46772 0.0
C910 C 0.38104 0.04295 0.49839 0.0
C911 C 0.37647 0.05011 0.55474 0.0
C912 C 0.35879 0.04597 0.58039 0.0
C913 C 0.34571 0.03455 0.54991 0.0
H914 H 0.38661 0.05888 0.57851 0.0
H915 H 0.26284 0.94562 0.27938 0.0
H916 H 0.50058 0.30661 0.16679 0.0
H917 H 0.52094 0.33003 0.21552 0.0
H918 H 0.52076 0.2963 0.37629 0.0
H919 H 0.50001 0.27278 0.32775 0.0
H920 H 0.51267 0.33515 0.39372 0.0
H921 H 0.56057 0.29737 0.29611 0.0
H922 H 0.57451 0.28043 0.21022 0.0
H923 H 0.5776 0.33292 0.11239 0.0
H924 H 0.5635 0.35015 0.19745 0.0
H925 H 0.56362 0.40925 0.51025 0.0
H926 H 0.56173 0.37582 0.4829 0.0
H927 H 0.56143 0.39127 0.2968 0.0
H928 H 0.56503 0.42468 0.32356 0.0
H929 H 0.57423 0.35642 0.30739 0.0
H930 H 0.51958 0.39149 0.3801 0.0
H931 H 0.50266 0.41131 0.45396 0.0
H932 H 0.50863 0.36707 0.58489 0.0
H933 H 0.52574 0.34704 0.51175 0.0
C934 C 0.50474 0.30424 0.21268 0.0
C935 C 0.4986 0.28797 0.24372 0.0
C936 C 0.51658 0.31749 0.24016 0.0
C937 C 0.52257 0.3147 0.2991 0.0
C938 C 0.5164 0.29855 0.33052 0.0
C939 C 0.5046 0.28518 0.30283 0.0
C940 C 0.53438 0.32937 0.32834 0.0
C941 C 0.52642 0.33945 0.37615 0.0
C942 C 0.55199 0.33529 0.30388 0.0
C943 C 0.56095 0.32504 0.25321 0.0
C944 C 0.56418 0.30529 0.25624 0.0
C945 C 0.57212 0.29564 0.20769 0.0
C946 C 0.57694 0.30559 0.15589 0.0
C947 C 0.5739 0.32523 0.15259 0.0
C948 C 0.56598 0.33496 0.20103 0.0
C949 C 0.56418 0.40559 0.46342 0.0
C950 C 0.56377 0.41977 0.41902 0.0
C951 C 0.56289 0.38639 0.44788 0.0
C952 C 0.56058 0.38115 0.38798 0.0
C953 C 0.56282 0.39501 0.34345 0.0
C954 C 0.56461 0.41417 0.35887 0.0
C955 C 0.55236 0.3624 0.37209 0.0
C956 C 0.56086 0.35166 0.32655 0.0
C957 C 0.53489 0.35618 0.39722 0.0
C958 C 0.5241 0.36788 0.44076 0.0
C959 C 0.51729 0.38601 0.42468 0.0
C960 C 0.50769 0.39728 0.46638 0.0
C961 C 0.50463 0.39048 0.52412 0.0
C962 C 0.51104 0.37233 0.54015 0.0
C963 C 0.52068 0.361 0.49859 0.0
H964 H 0.49728 0.39929 0.55635 0.0
H965 H 0.58304 0.29808 0.11831 0.0
H966 H 0.24148 0.47162 0.34801 0.0
H967 H 0.22228 0.48618 0.4275 0.0
H968 H 0.19354 0.52088 0.29674 0.0
H969 H 0.21285 0.50683 0.21802 0.0
H970 H 0.20007 0.54068 0.40026 0.0
H971 H 0.17631 0.47681 0.34007 0.0
H972 H 0.17969 0.4419 0.33206 0.0
H973 H 0.18998 0.4382 0.52037 0.0
H974 H 0.18685 0.47314 0.52928 0.0
H975 H 0.10266 0.55022 0.40968 0.0
H976 H 0.13708 0.54673 0.40155 0.0
H977 H 0.13818 0.51647 0.5691 0.0
H978 H 0.10361 0.51973 0.57686 0.0
H979 H 0.1533 0.49572 0.48771 0.0
H980 H 0.16509 0.55802 0.55094 0.0
H981 H 0.16079 0.59273 0.56104 0.0
H982 H 0.17328 0.60016 0.37511 0.0
H983 H 0.17739 0.56548 0.36358 0.0
C984 C 0.23128 0.48258 0.33657 0.0
C985 C 0.22837 0.48785 0.27677 0.0
C986 C 0.22035 0.49088 0.38191 0.0
C987 C 0.20642 0.50452 0.36789 0.0
C988 C 0.20425 0.51043 0.30859 0.0
C989 C 0.21508 0.50218 0.26352 0.0
C990 C 0.19245 0.51123 0.41257 0.0
C991 C 0.18989 0.53093 0.42006 0.0
C992 C 0.17975 0.49846 0.44074 0.0
C993 C 0.18164 0.47754 0.43517 0.0
C994 C 0.17943 0.46854 0.37964 0.0
C995 C 0.18128 0.44876 0.37496 0.0
C996 C 0.18512 0.43785 0.42564 0.0
C997 C 0.18707 0.44668 0.48113 0.0
C998 C 0.18527 0.46646 0.48602 0.0
C999 C 0.11033 0.54338 0.44567 0.0
C1000 C 0.1005 0.53498 0.49331 0.0
C1001 C 0.13005 0.54149 0.44129 0.0
C1002 C 0.14029 0.53139 0.48491 0.0
C1003 C 0.13061 0.5243 0.53495 0.0
C1004 C 0.11087 0.52607 0.53912 0.0
C1005 C 0.16007 0.5253 0.47203 0.0
C1006 C 0.1638 0.50565 0.47054 0.0
C1007 C 0.17388 0.53816 0.45001 0.0
C1008 C 0.17153 0.5591 0.45642 0.0
C1009 C 0.16682 0.56703 0.51209 0.0
C1010 C 0.16443 0.58671 0.51809 0.0
C1011 C 0.16676 0.59864 0.46875 0.0
C1012 C 0.17151 0.59091 0.41332 0.0
C1013 C 0.17393 0.57123 0.40706 0.0
H1014 H 0.16489 0.61387 0.47348 0.0
H1015 H 0.18653 0.42253 0.42194 0.0
H1016 H 0.04142 0.76952 0.07978 0.0
H1017 H 0.03587 0.80088 0.03672 0.0
H1018 H 0.04673 0.82696 0.20756 0.0
H1019 H 0.05085 0.79562 0.25193 0.0
H1020 H 0.01519 0.83984 0.16623 0.0
H1021 H 0.07747 0.83183 0.08334 0.0
H1022 H 0.10324 0.81554 0.02871 0.0
H1023 H 0.06915 0.81513 0.87 0.0
H1024 H 0.04307 0.83119 0.92387 0.0
H1025 H 0.01698 0.9353 0.05373 0.0
H1026 H 0.02207 0.90436 0.10095 0.0
H1027 H 0.00707 0.87616 0.9367 0.0
H1028 H 0.00276 0.90697 0.88852 0.0
H1029 H 0.04109 0.86489 0.97613 0.0
H1030 H 0.9787 0.87294 0.06162 0.0
H1031 H 0.95358 0.88988 0.11728 0.0
H1032 H 0.98912 0.8912 0.27277 0.0
H1033 H 0.01455 0.87442 0.2179 0.0
C1034 C 0.04282 0.78194 0.1081 0.0
C1035 C 0.04638 0.77999 0.16947 0.0
C1036 C 0.03985 0.79991 0.08324 0.0
C1037 C 0.0409 0.81631 0.11891 0.0
C1038 C 0.04577 0.81449 0.17925 0.0
C1039 C 0.04841 0.79652 0.20437 0.0
C1040 C 0.03522 0.8351 0.09473 0.0
C1041 C 0.02111 0.84547 0.12516 0.0
C1042 C 0.04256 0.84221 0.04039 0.0
C1043 C 0.05825 0.83257 0.00782 0.0
C1044 C 0.07541 0.82814 0.03691 0.0
C1045 C 0.09009 0.81896 0.00605 0.0
C1046 C 0.08782 0.81426 0.94596 0.0
C1047 C 0.07088 0.81876 0.91656 0.0
C1048 C 0.05616 0.82792 0.94722 0.0
C1049 C 0.01446 0.92249 0.02799 0.0
C1050 C 0.00968 0.92359 0.96723 0.0
C1051 C 0.01723 0.90483 0.05515 0.0
C1052 C 0.01502 0.88799 0.02217 0.0
C1053 C 0.00892 0.88902 0.96278 0.0
C1054 C 0.00624 0.90666 0.93552 0.0
C1055 C 0.02103 0.86949 0.04743 0.0
C1056 C 0.03522 0.85923 0.01723 0.0
C1057 C 0.0139 0.86257 0.1022 0.0
C1058 C 0.99859 0.87256 0.13544 0.0
C1059 C 0.98121 0.87696 0.10756 0.0
C1060 C 0.96691 0.88649 0.13902 0.0
C1061 C 0.96977 0.89163 0.1985 0.0
C1062 C 0.98693 0.88719 0.22671 0.0
C1063 C 1.00128 0.87765 0.19548 0.0
H1064 H 0.95868 0.89903 0.22277 0.0
H1065 H 0.09919 0.80716 0.92216 0.0
H1066 H 0.71018 0.06124 0.26525 0.0
H1067 H 0.67905 0.06756 0.22156 0.0
H1068 H 0.70511 0.07489 0.04891 0.0
H1069 H 0.73649 0.06925 0.09271 0.0
H1070 H 0.67453 0.09889 0.06459 0.0
H1071 H 0.68964 0.03237 0.09279 0.0
H1072 H 0.6985 0.00386 0.15065 0.0
H1073 H 0.64812 0.00987 0.25743 0.0
H1074 H 0.63913 0.03868 0.20096 0.0
H1075 H 0.60315 0.06711 0.86398 0.0
H1076 H 0.63135 0.07417 0.92349 0.0
H1077 H 0.59986 0.06207 0.08434 0.0
H1078 H 0.57193 0.05405 0.0251 0.0
H1079 H 0.63174 0.04296 0.08309 0.0
H1080 H 0.61494 0.10788 0.04903 0.0
H1081 H 0.60586 0.13608 0.99 0.0
H1082 H 0.6585 0.13278 0.89311 0.0
H1083 H 0.6678 0.1044 0.951 0.0
C1084 C 0.70942 0.06486 0.21838 0.0
C1085 C 0.72582 0.06456 0.18226 0.0
C1086 C 0.69157 0.06832 0.19342 0.0
C1087 C 0.68977 0.07132 0.13187 0.0
C1088 C 0.70621 0.07249 0.09649 0.0
C1089 C 0.7241 0.0691 0.12146 0.0
C1090 C 0.67078 0.07108 0.10333 0.0
C1091 C 0.66516 0.08667 0.06835 0.0
C1092 C 0.65845 0.05523 0.10934 0.0
C1093 C 0.66387 0.03788 0.14328 0.0
C1094 C 0.68056 0.02776 0.12907 0.0
C1095 C 0.68559 0.01153 0.16156 0.0
C1096 C 0.67391 0.00511 0.20784 0.0
C1097 C 0.65719 0.01491 0.22175 0.0
C1098 C 0.65213 0.03121 0.18956 0.0
C1099 C 0.60219 0.06604 0.91204 0.0
C1100 C 0.5853 0.05985 0.93965 0.0
C1101 C 0.61826 0.07033 0.94608 0.0
C1102 C 0.61769 0.06877 0.00846 0.0
C1103 C 0.60062 0.06341 0.03628 0.0
C1104 C 0.58459 0.05899 0.00228 0.0
C1105 C 0.63536 0.07079 0.04405 0.0
C1106 C 0.64086 0.05541 0.0801 0.0
C1107 C 0.64751 0.0868 0.03892 0.0
C1108 C 0.64201 0.10391 0.0041 0.0
C1109 C 0.62453 0.11308 0.01484 0.0
C1110 C 0.61935 0.12911 0.98163 0.0
C1111 C 0.63158 0.13619 0.93776 0.0
C1112 C 0.64904 0.12728 0.9271 0.0
C1113 C 0.65428 0.11123 0.96016 0.0
H1114 H 0.62754 0.14861 0.91209 0.0
H1115 H 0.67776 0.99246 0.23264 0.0
H1116 H 0.43203 0.73595 0.11974 0.0
H1117 H 0.43209 0.70504 0.06816 0.0
H1118 H 0.46077 0.67948 0.21802 0.0
H1119 H 0.46062 0.71007 0.26977 0.0
H1120 H 0.4795 0.67655 0.10128 0.0
H1121 H 0.41896 0.66607 0.19931 0.0
H1122 H 0.38586 0.67431 0.22533 0.0
H1123 H 0.37058 0.67373 0.04008 0.0
H1124 H 0.40368 0.66575 0.01288 0.0
H1125 H 0.48565 0.58017 0.0153 0.0
H1126 H 0.48027 0.61009 0.06885 0.0
H1127 H 0.43836 0.62656 0.93795 0.0
H1128 H 0.44329 0.59638 0.88558 0.0
H1129 H 0.42555 0.63503 0.04245 0.0
H1130 H 0.48404 0.64599 0.94067 0.0
H1131 H 0.51694 0.63961 0.90786 0.0
H1132 H 0.53613 0.64191 0.08936 0.0
H1133 H 0.50328 0.64804 0.12337 0.0
C1134 C 0.43789 0.72359 0.14211 0.0
C1135 C 0.4462 0.72534 0.19881 0.0
C1136 C 0.43793 0.70602 0.11273 0.0
C1137 C 0.44649 0.6901 0.13943 0.0
C1138 C 0.45407 0.69164 0.19693 0.0
C1139 C 0.4538 0.70908 0.22659 0.0
C1140 C 0.44918 0.67231 0.10551 0.0
C1141 C 0.46777 0.66729 0.08898 0.0
C1142 C 0.43375 0.66079 0.08769 0.0
C1143 C 0.41384 0.66552 0.10403 0.0
C1144 C 0.40859 0.66789 0.16408 0.0
C1145 C 0.38981 0.67247 0.17905 0.0
C1146 C 0.37614 0.6746 0.13438 0.0
C1147 C 0.3812 0.6721 0.07463 0.0
C1148 C 0.39996 0.66753 0.05942 0.0
C1149 C 0.47539 0.59026 0.99794 0.0
C1150 C 0.4649 0.58605 0.94642 0.0
C1151 C 0.47233 0.60735 0.02839 0.0
C1152 C 0.45907 0.6207 0.00698 0.0
C1153 C 0.44862 0.61647 0.9554 0.0
C1154 C 0.45146 0.59928 0.92548 0.0
C1155 C 0.456 0.63899 0.03867 0.0
C1156 C 0.43735 0.64421 0.05457 0.0
C1157 C 0.47137 0.65097 0.05486 0.0
C1158 C 0.49116 0.64729 0.03461 0.0
C1159 C 0.49525 0.64499 0.97364 0.0
C1160 C 0.51389 0.64144 0.95482 0.0
C1161 C 0.52861 0.6403 0.99651 0.0
C1162 C 0.52471 0.64276 0.05712 0.0
C1163 C 0.50609 0.64629 0.07619 0.0
H1164 H 0.54303 0.63756 0.98185 0.0
H1165 H 0.36161 0.67814 0.14606 0.0
H1166 H 0.7678 0.43683 0.0789 0.0
H1167 H 0.79873 0.43017 0.03394 0.0
H1168 H 0.82377 0.42552 0.20887 0.0
H1169 H 0.79316 0.43316 0.25405 0.0
H1170 H 0.84304 0.44944 0.1448 0.0
H1171 H 0.82035 0.38647 0.11303 0.0
H1172 H 0.79787 0.36149 0.08135 0.0
H1173 H 0.80171 0.38105 0.90041 0.0
H1174 H 0.82401 0.40634 0.93109 0.0
H1175 H 0.93298 0.43854 0.0106 0.0
H1176 H 0.90492 0.42922 0.0678 0.0
H1177 H 0.8701 0.43542 0.91071 0.0
H1178 H 0.89823 0.4437 0.85238 0.0
H1179 H 0.85792 0.4061 0.97645 0.0
H1180 H 0.87562 0.4721 0.01283 0.0
H1181 H 0.89744 0.49774 0.04422 0.0
H1182 H 0.90228 0.47228 0.2176 0.0
H1183 H 0.88067 0.44635 0.18694 0.0
C1184 C 0.77984 0.43418 0.10783 0.0
C1185 C 0.778 0.4357 0.17007 0.0
C1186 C 0.79749 0.43013 0.08207 0.0
C1187 C 0.81359 0.42724 0.11804 0.0
C1188 C 0.81155 0.42766 0.18024 0.0
C1189 C 0.79395 0.43186 0.20602 0.0
C1190 C 0.83281 0.42618 0.09081 0.0
C1191 C 0.84643 0.4396 0.10902 0.0
C1192 C 0.83714 0.41365 0.04326 0.0
C1193 C 0.82378 0.39839 0.02448 0.0
C1194 C 0.8163 0.38554 0.06655 0.0
C1195 C 0.80361 0.37131 0.04875 0.0
C1196 C 0.79835 0.3697 0.98893 0.0
C1197 C 0.8058 0.38231 0.94674 0.0
C1198 C 0.8185 0.39658 0.9643 0.0
C1199 C 0.91946 0.43745 0.98776 0.0
C1200 C 0.91783 0.44215 0.92697 0.0
C1201 C 0.90339 0.43227 0.02072 0.0
C1202 C 0.88536 0.432 0.99378 0.0
C1203 C 0.88385 0.43565 0.9325 0.0
C1204 C 0.89992 0.44063 0.89938 0.0
C1205 C 0.86785 0.42955 0.02992 0.0
C1206 C 0.85459 0.41557 0.01322 0.0
C1207 C 0.86378 0.44159 0.07891 0.0
C1208 C 0.87672 0.45719 0.09739 0.0
C1209 C 0.88145 0.47191 0.05751 0.0
C1210 C 0.89376 0.4865 0.07519 0.0
C1211 C 0.90129 0.48661 0.13282 0.0
C1212 C 0.89647 0.47216 0.17295 0.0
C1213 C 0.88419 0.45752 0.15546 0.0
H1214 H 0.91081 0.49792 0.14643 0.0
H1215 H 0.78851 0.35867 0.97524 0.0
H1216 H 0.00386 0.20205 0.96485 0.0
H1217 H 1.00156 0.1703 0.92192 0.0
H1218 H 0.01544 0.19296 0.74866 0.0
H1219 H 0.01649 0.22507 0.79049 0.0
H1220 H 0.99089 0.16599 0.73357 0.0
H1221 H 0.04922 0.16966 0.84129 0.0
H1222 H 0.07008 0.17583 0.92748 0.0
H1223 H 0.04067 0.133 0.02859 0.0
H1224 H 0.01945 0.12675 0.94323 0.0
H1225 H 0.01119 0.0731 0.61523 0.0
H1226 H 0.01333 0.1064 0.64732 0.0
H1227 H 1.00177 0.08919 0.82852 0.0
H1228 H 1.00096 0.05591 0.79708 0.0
H1229 H 0.02697 0.11437 0.83347 0.0
H1230 H 0.96749 0.11219 0.72057 0.0
H1231 H 0.94886 0.10592 0.62945 0.0
H1232 H 0.98304 0.14613 0.53257 0.0
H1233 H 1.00204 0.15243 0.62287 0.0
C1234 C 0.006 0.20051 0.91733 0.0
C1235 C 0.01052 0.21641 0.8816 0.0
C1236 C 0.00498 0.18213 0.89284 0.0
C1237 C 0.00884 0.17895 0.83207 0.0
C1238 C 0.01259 0.19484 0.79575 0.0
C1239 C 0.01339 0.21329 0.82007 0.0
C1240 C 0.00938 0.15907 0.807 0.0
C1241 C 0.99893 0.15476 0.75522 0.0
C1242 C 0.01984 0.14422 0.83469 0.0
C1243 C 0.03263 0.14786 0.88603 0.0
C1244 C 0.04712 0.16165 0.88204 0.0
C1245 C 0.05902 0.16514 0.93073 0.0
C1246 C 0.05667 0.15484 0.98352 0.0
C1247 C 0.04245 0.14098 0.98768 0.0
C1248 C 0.0305 0.13744 0.93915 0.0
C1249 C 0.0091 0.07646 0.66189 0.0
C1250 C 0.00588 0.06181 0.70355 0.0
C1251 C 0.01016 0.09559 0.68027 0.0
C1252 C 0.00729 0.10064 0.74046 0.0
C1253 C 0.00406 0.08591 0.78188 0.0
C1254 C 0.00355 0.0668 0.76382 0.0
C1255 C 0.00793 0.12105 0.76121 0.0
C1256 C 0.01878 0.12553 0.81199 0.0
C1257 C 0.99804 0.13606 0.73209 0.0
C1258 C 0.98625 0.13268 0.67836 0.0
C1259 C 0.97104 0.11966 0.67979 0.0
C1260 C 0.96045 0.11608 0.62827 0.0
C1261 C 0.96481 0.12558 0.57522 0.0
C1262 C 0.9797 0.13877 0.57366 0.0
C1263 C 0.99038 0.14235 0.625 0.0
H1264 H 0.95662 0.12275 0.53535 0.0
H1265 H 0.0659 0.15758 0.02117 0.0
H1266 H 0.28681 0.03046 0.81118 0.0
H1267 H 0.31869 0.02614 0.76948 0.0
H1268 H 0.33857 0.00545 0.93931 0.0
H1269 H 0.30709 0.01061 0.98206 0.0
H1270 H 0.36267 0.03063 0.89703 0.0
H1271 H 0.32986 0.9761 0.81063 0.0
H1272 H 0.30526 0.96021 0.75002 0.0
H1273 H 0.32299 0.99201 0.59607 0.0
H1274 H 0.34749 0.00829 0.65608 0.0
H1275 H 0.45408 0.99816 0.8133 0.0
H1276 H 0.42126 1.0008 0.84899 0.0
H1277 H 0.40265 0.01465 0.67078 0.0
H1278 H 0.43527 0.01096 0.63475 0.0
H1279 H 0.37747 0.99383 0.71421 0.0
H1280 H 0.40813 0.04906 0.7908 0.0
H1281 H 0.43255 0.06764 0.84413 0.0
H1282 H 0.41843 0.03892 0.00729 0.0
H1283 H 0.39408 0.01997 0.95475 0.0
C1284 C 0.29793 0.02499 0.83981 0.0
C1285 C 0.29417 0.02088 0.90024 0.0
C1286 C 0.31618 0.02232 0.81559 0.0
C1287 C 0.33114 0.01526 0.85091 0.0
C1288 C 0.32735 0.01085 0.91087 0.0
C1289 C 0.30917 0.01361 0.93517 0.0
C1290 C 0.35096 0.01333 0.8268 0.0
C1291 C 0.36591 0.02233 0.85752 0.0
C1292 C 0.35525 0.00328 0.77361 0.0
C1293 C 0.34037 0.99356 0.73798 0.0
C1294 C 0.32839 0.97983 0.76401 0.0
C1295 C 0.31448 0.97073 0.72974 0.0
C1296 C 0.31252 0.97514 0.66929 0.0
C1297 C 0.32448 0.98864 0.64293 0.0
C1298 C 0.33837 0.9978 0.67704 0.0
C1299 C 0.44297 1.00179 0.78183 0.0
C1300 C 0.4473 0.00442 0.72122 0.0
C1301 C 0.42416 0.00343 0.80231 0.0
C1302 C 0.40931 0.00838 0.76306 0.0
C1303 C 0.41368 0.01084 0.70231 0.0
C1304 C 0.4324 0.00875 0.68164 0.0
C1305 C 0.38926 0.01087 0.78503 0.0
C1306 C 0.37427 1.0021 0.75382 0.0
C1307 C 0.38482 0.02157 0.83686 0.0
C1308 C 0.39941 0.03297 0.86871 0.0
C1309 C 0.41032 0.04661 0.83797 0.0
C1310 C 0.42414 0.05722 0.86807 0.0
C1311 C 0.42707 0.05443 0.92903 0.0
C1312 C 0.41616 0.04105 0.96006 0.0
C1313 C 0.40234 0.03038 0.93016 0.0
H1314 H 0.43778 0.06265 0.95225 0.0
H1315 H 0.30176 0.96805 0.64285 0.0
H1316 H 0.50611 0.28534 0.87028 0.0
H1317 H 0.51085 0.31594 0.8196 0.0
H1318 H 0.4543 0.33341 0.87116 0.0
H1319 H 0.44941 0.30288 0.92058 0.0
H1320 H 0.4598 0.34482 0.76397 0.0
H1321 H 0.49646 0.34903 0.94372 0.0
H1322 H 0.52069 0.3393 0.01713 0.0
H1323 H 0.56441 0.34496 0.88441 0.0
H1324 H 0.54039 0.35449 0.80995 0.0
H1325 H 0.47134 0.4466 0.76484 0.0
H1326 H 0.4691 0.41341 0.7977 0.0
H1327 H 0.5137 0.39778 0.67513 0.0
H1328 H 0.51571 0.43098 0.6406 0.0
H1329 H 0.51609 0.38489 0.8098 0.0
H1330 H 0.47776 0.38231 0.63176 0.0
H1331 H 0.45276 0.39427 0.56438 0.0
H1332 H 0.41107 0.38732 0.70287 0.0
H1333 H 0.43597 0.37563 0.77132 0.0
C1334 C 0.49468 0.29569 0.87065 0.0
C1335 C 0.47733 0.29152 0.89934 0.0
C1336 C 0.49742 0.31326 0.84179 0.0
C1337 C 0.48303 0.32725 0.84192 0.0
C1338 C 0.46564 0.32295 0.86989 0.0
C1339 C 0.46283 0.30538 0.89811 0.0
C1340 C 0.48599 0.34645 0.81387 0.0
C1341 C 0.4721 0.35354 0.77448 0.0
C1342 C 0.50212 0.35797 0.82645 0.0
C1343 C 0.5166 0.35225 0.87109 0.0
C1344 C 0.51122 0.34805 0.93007 0.0
C1345 C 0.52492 0.3426 0.97189 0.0
C1346 C 0.54407 0.34146 0.9554 0.0
C1347 C 0.54957 0.34582 0.89708 0.0
C1348 C 0.53592 0.35125 0.85506 0.0
C1349 C 0.48064 0.43613 0.74457 0.0
C1350 C 0.49371 0.44151 0.70002 0.0
C1351 C 0.47934 0.41714 0.76348 0.0
C1352 C 0.49129 0.40312 0.73914 0.0
C1353 C 0.5044 0.40838 0.69472 0.0
C1354 C 0.50544 0.42735 0.6748 0.0
C1355 C 0.48992 0.38305 0.76055 0.0
C1356 C 0.504 0.37594 0.79891 0.0
C1357 C 0.47386 0.37162 0.74787 0.0
C1358 C 0.45876 0.37831 0.70673 0.0
C1359 C 0.4633 0.38351 0.64791 0.0
C1360 C 0.44914 0.39021 0.60952 0.0
C1361 C 0.43033 0.39161 0.62937 0.0
C1362 C 0.42565 0.38625 0.68758 0.0
C1363 C 0.43979 0.37958 0.72617 0.0
H1364 H 0.41938 0.39681 0.59961 0.0
H1365 H 0.55466 0.33724 0.98785 0.0
H1366 H 0.21864 0.47302 0.80633 0.0
H1367 H 0.18714 0.47646 0.76033 0.0
H1368 H 0.16537 0.50039 0.9237 0.0
H1369 H 0.19662 0.49683 0.96997 0.0
H1370 H 0.14341 0.47087 0.88216 0.0
H1371 H 0.17212 0.52817 0.79977 0.0
H1372 H 0.19567 0.54646 0.74156 0.0
H1373 H 0.18242 0.51361 0.58567 0.0
H1374 H 0.15888 0.495 0.64301 0.0
H1375 H 0.05098 0.49922 0.80334 0.0
H1376 H 0.08399 0.49746 0.83655 0.0
H1377 H 0.1021 0.48618 0.65602 0.0
H1378 H 0.0691 0.48906 0.62221 0.0
H1379 H 0.12689 0.50743 0.70032 0.0
H1380 H 0.09918 0.45036 0.77305 0.0
H1381 H 0.0759 0.42987 0.82474 0.0
H1382 H 0.08845 0.45771 0.99052 0.0
H1383 H 0.11162 0.47855 0.93968 0.0
C1384 C 0.20719 0.4792 0.83226 0.0
C1385 C 0.21026 0.48468 0.89194 0.0
C1386 C 0.18919 0.48127 0.80575 0.0
C1387 C 0.17381 0.48875 0.83841 0.0
C1388 C 0.17697 0.49463 0.89744 0.0
C1389 C 0.19495 0.49273 0.92374 0.0
C1390 C 0.15413 0.48925 0.81312 0.0
C1391 C 0.13975 0.47908 0.84282 0.0
C1392 C 0.14946 0.49914 0.76004 0.0
C1393 C 0.16387 0.51007 0.72588 0.0
C1394 C 0.17435 0.52472 0.75323 0.0
C1395 C 0.18765 0.53519 0.72031 0.0
C1396 C 0.19052 0.5312 0.65993 0.0
C1397 C 0.18013 0.51671 0.63236 0.0
C1398 C 0.16682 0.50621 0.66505 0.0
C1399 C 0.06197 0.49624 0.77074 0.0
C1400 C 0.05734 0.49406 0.71022 0.0
C1401 C 0.08092 0.49512 0.78985 0.0
C1402 C 0.09573 0.49116 0.74928 0.0
C1403 C 0.09109 0.48914 0.68858 0.0
C1404 C 0.07216 0.4907 0.66924 0.0
C1405 C 0.11595 0.48938 0.77024 0.0
C1406 C 0.13048 0.49917 0.7396 0.0
C1407 C 0.12092 0.47865 0.82157 0.0
C1408 C 0.10702 0.46613 0.85242 0.0
C1409 C 0.09688 0.4522 0.82046 0.0
C1410 C 0.08372 0.44051 0.84962 0.0
C1411 C 0.08067 0.44252 0.91085 0.0
C1412 C 0.09081 0.45619 0.94308 0.0
C1413 C 0.10398 0.46793 0.91413 0.0
H1414 H 0.07047 0.43345 0.93334 0.0
H1415 H 0.20079 0.53934 0.6345 0.0
H1416 H 0.9993 0.7804 0.5339 0.0
H1417 H 0.99846 0.81335 0.56728 0.0
H1418 H 0.99111 0.83213 0.3857 0.0
H1419 H 0.99369 0.79934 0.35133 0.0
H1420 H 0.01463 0.85431 0.43233 0.0
H1421 H 0.95406 0.83226 0.50086 0.0
H1422 H 0.93149 0.81125 0.55358 0.0
H1423 H 0.95899 0.82372 0.71989 0.0
H1424 H 0.98188 0.84462 0.66805 0.0
H1425 H 0.98962 0.94984 0.50372 0.0
H1426 H 0.9884 0.91658 0.47234 0.0
H1427 H 0.00502 0.89876 0.64862 0.0
H1428 H 0.00609 0.93211 0.68082 0.0
H1429 H 0.9766 0.87641 0.60533 0.0
H1430 H 0.03675 0.89979 0.53104 0.0
H1431 H 0.05767 0.92141 0.47424 0.0
H1432 H 0.0284 0.90693 0.3125 0.0
H1433 H 0.00713 0.88544 0.36853 0.0
C1434 C 0.99764 0.79146 0.5007 0.0
C1435 C 0.99666 0.78688 0.43953 0.0
C1436 C 0.99683 0.81044 0.52017 0.0
C1437 C 0.99444 0.82548 0.47938 0.0
C1438 C 0.99295 0.82094 0.41847 0.0
C1439 C 0.99413 0.80199 0.39882 0.0
C1440 C 0.99438 0.84592 0.49963 0.0
C1441 C 0.00602 0.85912 0.46957 0.0
C1442 C 0.98355 0.8524 0.54914 0.0
C1443 C 0.9698 0.83986 0.58046 0.0
C1444 C 0.95538 0.83041 0.54861 0.0
C1445 C 0.94251 0.81854 0.57835 0.0
C1446 C 0.94384 0.81611 0.64002 0.0
C1447 C 0.958 0.82559 0.67211 0.0
C1448 C 0.97091 0.83747 0.64259 0.0
C1449 C 0.99301 0.93891 0.5361 0.0
C1450 C 0.99805 0.94382 0.59494 0.0
C1451 C 0.99238 0.91982 0.51786 0.0
C1452 C 0.99688 0.90504 0.55774 0.0
C1453 C 1.00155 0.90984 0.61682 0.0
C1454 C 1.00221 0.92898 0.63516 0.0
C1455 C 0.99672 0.88467 0.53772 0.0
C1456 C 0.98511 0.87152 0.56796 0.0
C1457 C 0.00731 0.87829 0.48772 0.0
C1458 C 0.02019 0.89117 0.45411 0.0
C1459 C 0.03467 0.90134 0.48346 0.0
C1460 C 0.04661 0.91355 0.45138 0.0
C1461 C 0.04433 0.91559 0.38984 0.0
C1462 C 0.03014 0.90538 0.3602 0.0
C1463 C 0.01814 0.89318 0.39209 0.0
H1464 H 0.0536 0.92505 0.3651 0.0
H1465 H 0.93387 0.80691 0.66296 0.0
H1466 H 0.70126 0.99762 0.31634 0.0
H1467 H 0.66885 0.99603 0.35449 0.0
H1468 H 0.69032 0.98189 0.52902 0.0
H1469 H 0.7227 0.98174 0.48994 0.0
H1470 H 0.65948 0.96366 0.51504 0.0
H1471 H 0.67671 0.02862 0.48186 0.0
H1472 H 0.68805 0.0563 0.42425 0.0
H1473 H 0.64003 0.0515 0.30709 0.0
H1474 H 0.62871 0.02338 0.36276 0.0
H1475 H 0.57652 0.99478 0.67615 0.0
H1476 H 0.60894 0.9928 0.63585 0.0
H1477 H 0.58655 0.99405 0.45711 0.0
H1478 H 0.55419 0.99581 0.49674 0.0
H1479 H 0.61753 0.01901 0.47446 0.0
H1480 H 0.60118 0.9532 0.51094 0.0
H1481 H 0.59037 0.92623 0.5728 0.0
H1482 H 0.63737 0.9349 0.69197 0.0
H1483 H 0.64831 0.96211 0.63124 0.0
C1484 C 0.69916 0.99358 0.36242 0.0
C1485 C 0.71484 0.98993 0.3999 0.0
C1486 C 0.68052 0.99304 0.38458 0.0
C1487 C 0.67701 0.98942 0.44526 0.0
C1488 C 0.69253 0.98495 0.4822 0.0
C1489 C 0.71116 0.98508 0.45979 0.0
C1490 C 0.65733 0.99082 0.47065 0.0
C1491 C 0.65046 0.97591 0.50664 0.0
C1492 C 0.64529 0.00669 0.4595 0.0
C1493 C 0.65198 0.02372 0.42613 0.0
C1494 C 0.66866 0.03334 0.44345 0.0
C1495 C 0.67511 0.04909 0.41105 0.0
C1496 C 0.66484 0.05557 0.36177 0.0
C1497 C 0.64805 0.04637 0.34499 0.0
C1498 C 0.64162 0.0305 0.37691 0.0
C1499 C 0.57848 0.9946 0.62826 0.0
C1500 C 0.56268 0.99535 0.58977 0.0
C1501 C 0.59703 0.99343 0.60529 0.0
C1502 C 0.60019 0.99319 0.54339 0.0
C1503 C 0.58448 0.9942 0.50497 0.0
C1504 C 0.56595 0.99511 0.52782 0.0
C1505 C 0.61984 0.99188 0.51845 0.0
C1506 C 0.62665 0.00682 0.48268 0.0
C1507 C 0.63194 0.97623 0.53059 0.0
C1508 C 0.62545 0.95981 0.56688 0.0
C1509 C 0.60912 0.94945 0.55061 0.0
C1510 C 0.60299 0.93411 0.58541 0.0
C1511 C 0.61315 0.92889 0.63637 0.0
C1512 C 0.6295 0.93898 0.65253 0.0
C1513 C 0.63568 0.95435 0.61791 0.0
H1514 H 0.60838 0.917 0.66326 0.0
H1515 H 0.66984 0.06778 0.33679 0.0
H1516 H 0.49639 0.70072 0.34138 0.0
H1517 H 0.49605 0.66848 0.38202 0.0
H1518 H 0.526 0.68808 0.53804 0.0
H1519 H 0.52708 0.72033 0.49655 0.0
H1520 H 0.53912 0.65387 0.50495 0.0
H1521 H 0.47742 0.6813 0.53996 0.0
H1522 H 0.44773 0.69752 0.51061 0.0
H1523 H 0.43415 0.65136 0.39245 0.0
H1524 H 0.46389 0.63497 0.42058 0.0
H1525 H 0.48415 0.57227 0.66905 0.0
H1526 H 0.48645 0.60533 0.63412 0.0
H1527 H 0.52333 0.58742 0.49103 0.0
H1528 H 0.52111 0.5545 0.52526 0.0
H1529 H 0.47653 0.62177 0.52631 0.0
H1530 H 0.55685 0.62228 0.46879 0.0
H1531 H 0.58654 0.60689 0.50243 0.0
H1532 H 0.56244 0.59859 0.67649 0.0
H1533 H 0.53274 0.61417 0.64416 0.0
C1534 C 0.50332 0.69817 0.38373 0.0
C1535 C 0.51177 0.71326 0.41558 0.0
C1536 C 0.50287 0.6797 0.40735 0.0
C1537 C 0.51069 0.67583 0.46371 0.0
C1538 C 0.51976 0.69067 0.49466 0.0
C1539 C 0.52025 0.70917 0.471 0.0
C1540 C 0.5089 0.65647 0.49098 0.0
C1541 C 0.52542 0.64688 0.50952 0.0
C1542 C 0.49102 0.64735 0.4981 0.0
C1543 C 0.47294 0.65698 0.48207 0.0
C1544 C 0.46814 0.67465 0.50753 0.0
C1545 C 0.4513 0.68387 0.49112 0.0
C1546 C 0.43908 0.67549 0.44961 0.0
C1547 C 0.44363 0.65784 0.42459 0.0
C1548 C 0.46047 0.64856 0.44081 0.0
C1549 C 0.49278 0.57535 0.6302 0.0
C1550 C 0.50245 0.56064 0.60012 0.0
C1551 C 0.49402 0.59427 0.61014 0.0
C1552 C 0.50518 0.59893 0.56015 0.0
C1553 C 0.5148 0.58426 0.53004 0.0
C1554 C 0.51344 0.56538 0.54967 0.0
C1555 C 0.50677 0.61905 0.53907 0.0
C1556 C 0.49021 0.62878 0.52172 0.0
C1557 C 0.52459 0.62837 0.53366 0.0
C1558 C 0.54251 0.61923 0.55382 0.0
C1559 C 0.55792 0.61725 0.51431 0.0
C1560 C 0.57475 0.60848 0.53314 0.0
C1561 C 0.57635 0.60171 0.5915 0.0
C1562 C 0.56116 0.60377 0.63123 0.0
C1563 C 0.54432 0.61254 0.61265 0.0
H1564 H 0.58938 0.59491 0.60597 0.0
H1565 H 0.42606 0.68267 0.43689 0.0
H1566 H 0.77978 0.51363 0.50181 0.0
H1567 H 0.81212 0.5154 0.53991 0.0
H1568 H 0.83413 0.51043 0.36101 0.0
H1569 H 0.80186 0.50695 0.32301 0.0
H1570 H 0.85415 0.48919 0.4255 0.0
H1571 H 0.83475 0.5538 0.44911 0.0
H1572 H 0.81443 0.58059 0.48087 0.0
H1573 H 0.82178 0.56446 0.66402 0.0
H1574 H 0.84195 0.53741 0.63332 0.0
H1575 H 0.949 0.51503 0.50439 0.0
H1576 H 0.91664 0.51663 0.46489 0.0
H1577 H 0.89399 0.50681 0.64086 0.0
H1578 H 0.92641 0.50504 0.68094 0.0
H1579 H 0.87503 0.53628 0.57673 0.0
H1580 H 0.89554 0.47124 0.5464 0.0
H1581 H 0.91743 0.44645 0.5093 0.0
H1582 H 0.90931 0.46618 0.32998 0.0
H1583 H 0.88764 0.49133 0.36611 0.0
C1584 C 0.79143 0.5128 0.47031 0.0
C1585 C 0.78795 0.51002 0.40905 0.0
C1586 C 0.81005 0.51413 0.49226 0.0
C1587 C 0.82578 0.5133 0.45351 0.0
C1588 C 0.82235 0.51112 0.39214 0.0
C1589 C 0.80374 0.50942 0.37025 0.0
C1590 C 0.84575 0.51373 0.47712 0.0
C1591 C 0.85871 0.49973 0.4578 0.0
C1592 C 0.85187 0.52723 0.52017 0.0
C1593 C 0.83972 0.54346 0.53884 0.0
C1594 C 0.83192 0.55587 0.49613 0.0
C1595 C 0.82044 0.57113 0.51395 0.0
C1596 C 0.81677 0.5742 0.57441 0.0
C1597 C 0.82461 0.56205 0.6172 0.0
C1598 C 0.83608 0.54677 0.59961 0.0
C1599 C 0.93717 0.51332 0.53495 0.0
C1600 C 0.94037 0.50987 0.59597 0.0
C1601 C 0.91865 0.51417 0.51214 0.0
C1602 C 0.90286 0.5117 0.54977 0.0
C1603 C 0.90595 0.50874 0.61095 0.0
C1604 C 0.92451 0.50769 0.63377 0.0
C1605 C 0.88318 0.51181 0.525 0.0
C1606 C 0.87034 0.52585 0.5442 0.0
C1607 C 0.87729 0.49863 0.48093 0.0
C1608 C 0.89011 0.48331 0.45908 0.0
C1609 C 0.89854 0.4704 0.49911 0.0
C1610 C 0.9109 0.45627 0.47824 0.0
C1611 C 0.9148 0.45478 0.41733 0.0
C1612 C 0.9063 0.46738 0.37715 0.0
C1613 C 0.89397 0.48157 0.3978 0.0
H1614 H 0.92438 0.44383 0.40126 0.0
H1615 H 0.80789 0.58602 0.58812 0.0
loop_
_geom_bond_atom_site_label_1
_geom_bond_atom_site_label_2
_geom_bond_distance
_geom_bond_site_symmetry_2
_ccdc_geom_bond_type
P0 O11 1.490 . S
P0 C14 1.812 . S
P0 C20 1.803 . S
P0 C26 1.819 . S
H1 C15 0.941 . S
H2 C16 0.939 . S
H3 C18 0.940 . S
H4 C19 0.940 . S
H5 C21 0.939 . S
H6 C22 0.942 . S
H7 C24 0.940 . S
H8 C25 0.939 . S
H9 C27 0.941 . S
H10 C31 0.939 . S
O11 P0 1.490 . S
H12 C28 0.939 . S
H13 C30 0.940 . S
C14 P0 1.812 . S
C14 C15 1.389 . S
C14 C19 1.391 . S
C15 H1 0.941 . S
C15 C14 1.389 . S
C15 C16 1.397 . S
C16 H2 0.939 . S
C16 C15 1.397 . S
C16 C17 1.378 . S
C17 C16 1.378 . S
C17 C18 1.378 . S
C18 H3 0.940 . S
C18 C17 1.378 . S
C18 C19 1.396 . S
C19 H4 0.940 . S
C19 C14 1.391 . S
C19 C18 1.396 . S
C20 P0 1.803 . S
C20 C21 1.378 . S
C20 C25 1.400 . S
C21 H5 0.939 . S
C21 C20 1.378 . S
C21 C22 1.361 . S
C22 H6 0.942 . S
C22 C21 1.361 . S
C22 C23 1.369 . S
C23 C22 1.369 . S
C23 C24 1.404 . S
C24 H7 0.940 . S
C24 C23 1.404 . S
C24 C25 1.389 . S
C25 H8 0.939 . S
C25 C20 1.400 . S
C25 C24 1.389 . S
C26 P0 1.819 . S
C26 C27 1.391 . S
C26 C31 1.391 . S
C27 H9 0.941 . S
C27 C26 1.391 . S
C27 C28 1.396 . S
C28 H12 0.939 . S
C28 C27 1.396 . S
C28 C29 1.397 . S
C29 C28 1.397 . S
C29 C30 1.385 . S
C30 H13 0.940 . S
C30 C29 1.385 . S
C30 C31 1.388 . S
C31 H10 0.939 . S
C31 C26 1.391 . S
C31 C30 1.388 . S
P32 O43 1.490 . S
P32 C46 1.812 . S
P32 C52 1.803 . S
P32 C58 1.819 . S
H33 C47 0.941 . S
H34 C48 0.939 . S
H35 C50 0.940 . S
H36 C51 0.950 . S
H37 C53 0.939 . S
H38 C54 0.942 . S
H39 C56 0.940 . S
H40 C57 0.959 . S
H41 C59 0.941 . S
H42 C63 0.929 1_655 S
O43 P32 1.490 . S
H44 C60 0.939 . S
H45 C62 0.940 . S
C46 P32 1.812 . S
C46 C47 1.389 . S
C46 C51 1.375 1_455 S
C47 H33 0.941 . S
C47 C46 1.389 . S
C47 C48 1.397 . S
C48 H34 0.939 . S
C48 C47 1.397 . S
C48 C49 1.378 . S
C49 C48 1.378 . S
C49 C50 1.378 1_455 S
C50 H35 0.940 . S
C50 C49 1.378 1_655 S
C50 C51 1.403 . S
C51 H36 0.950 . S
C51 C46 1.375 1_655 S
C51 C50 1.403 . S
C52 P32 1.803 . S
C52 C53 1.378 . S
C52 C57 1.368 1_455 S
C53 H37 0.939 . S
C53 C52 1.378 . S
C53 C54 1.361 . S
C54 H38 0.942 . S
C54 C53 1.361 . S
C54 C55 1.369 . S
C55 C54 1.369 . S
C55 C56 1.404 1_455 S
C56 H39 0.940 . S
C56 C55 1.404 1_655 S
C56 C57 1.402 . S
C57 H40 0.959 . S
C57 C52 1.368 1_655 S
C57 C56 1.402 . S
C58 P32 1.819 . S
C58 C59 1.391 . S
C58 C63 1.391 . S
C59 H41 0.941 . S
C59 C58 1.391 . S
C59 C60 1.396 . S
C60 H44 0.939 . S
C60 C59 1.396 . S
C60 C61 1.397 . S
C61 C60 1.397 . S
C61 C62 1.385 1_455 S
C62 H45 0.940 . S
C62 C61 1.385 1_655 S
C62 C63 1.388 1_655 S
C63 H42 0.929 1_455 S
C63 C58 1.391 . S
C63 C62 1.388 1_455 S
P64 O75 1.490 . S
P64 C78 1.812 . S
P64 C84 1.803 . S
P64 C90 1.819 . S
H65 C79 0.941 . S
H66 C80 0.939 . S
H67 C82 0.940 . S
H68 C83 0.950 . S
H69 C85 0.939 . S
H70 C86 0.942 . S
H71 C88 0.940 . S
H72 C89 0.959 . S
H73 C91 0.941 . S
H74 C95 0.929 1_565 S
O75 P64 1.490 . S
H76 C92 0.939 . S
H77 C94 0.940 . S
C78 P64 1.812 . S
C78 C79 1.389 . S
C78 C83 1.375 1_545 S
C79 H65 0.941 . S
C79 C78 1.389 . S
C79 C80 1.397 . S
C80 H66 0.939 . S
C80 C79 1.397 . S
C80 C81 1.378 . S
C81 C80 1.378 . S
C81 C82 1.378 1_545 S
C82 H67 0.940 . S
C82 C81 1.378 1_565 S
C82 C83 1.403 . S
C83 H68 0.950 . S
C83 C78 1.375 1_565 S
C83 C82 1.403 . S
C84 P64 1.803 . S
C84 C85 1.378 . S
C84 C89 1.368 1_545 S
C85 H69 0.939 . S
C85 C84 1.378 . S
C85 C86 1.361 . S
C86 H70 0.942 . S
C86 C85 1.361 . S
C86 C87 1.369 . S
C87 C86 1.369 . S
C87 C88 1.404 1_545 S
C88 H71 0.940 . S
C88 C87 1.404 1_565 S
C88 C89 1.402 . S
C89 H72 0.959 . S
C89 C84 1.368 1_565 S
C89 C88 1.402 . S
C90 P64 1.819 . S
C90 C91 1.391 . S
C90 C95 1.391 . S
C91 H73 0.941 . S
C91 C90 1.391 . S
C91 C92 1.396 . S
C92 H76 0.939 . S
C92 C91 1.396 . S
C92 C93 1.397 . S
C93 C92 1.397 . S
C93 C94 1.385 1_545 S
C94 H77 0.940 . S
C94 C93 1.385 1_565 S
C94 C95 1.388 1_565 S
C95 H74 0.929 1_545 S
C95 C90 1.391 . S
C95 C94 1.388 1_545 S
P96 O107 1.490 . S
P96 C110 1.812 . S
P96 C116 1.803 . S
P96 C122 1.819 . S
H97 C111 0.941 . S
H98 C112 0.939 . S
H99 C114 0.940 . S
H100 C115 0.940 . S
H101 C117 0.939 . S
H102 C118 0.942 . S
H103 C120 0.940 . S
H104 C121 0.939 . S
H105 C123 0.941 . S
H106 C127 0.939 . S
O107 P96 1.490 . S
H108 C124 0.939 . S
H109 C126 0.940 . S
C110 P96 1.812 . S
C110 C111 1.389 . S
C110 C115 1.391 . S
C111 H97 0.941 . S
C111 C110 1.389 . S
C111 C112 1.397 . S
C112 H98 0.939 . S
C112 C111 1.397 . S
C112 C113 1.378 . S
C113 C112 1.378 . S
C113 C114 1.378 . S
C114 H99 0.940 . S
C114 C113 1.378 . S
C114 C115 1.396 . S
C115 H100 0.940 . S
C115 C110 1.391 . S
C115 C114 1.396 . S
C116 P96 1.803 . S
C116 C117 1.378 . S
C116 C121 1.400 . S
C117 H101 0.939 . S
C117 C116 1.378 . S
C117 C118 1.361 . S
C118 H102 0.942 . S
C118 C117 1.361 . S
C118 C119 1.369 . S
C119 C118 1.369 . S
C119 C120 1.404 . S
C120 H103 0.940 . S
C120 C119 1.404 . S
C120 C121 1.389 . S
C121 H104 0.939 . S
C121 C116 1.400 . S
C121 C120 1.389 . S
C122 P96 1.819 . S
C122 C123 1.391 . S
C122 C127 1.391 . S
C123 H105 0.941 . S
C123 C122 1.391 . S
C123 C124 1.396 . S
C124 H108 0.939 . S
C124 C123 1.396 . S
C124 C125 1.397 . S
C125 C124 1.397 . S
C125 C126 1.385 . S
C126 H109 0.940 . S
C126 C125 1.385 . S
C126 C127 1.388 . S
C127 H106 0.939 . S
C127 C122 1.391 . S
C127 C126 1.388 . S
P128 O139 1.490 . S
P128 C142 1.812 1_554 S
P128 C148 1.803 . S
P128 C154 1.819 . S
H129 C143 0.941 . S
H130 C144 0.939 . S
H131 C146 0.940 . S
H132 C147 0.940 1_554 S
H133 C149 0.939 . S
H134 C150 0.942 . S
H135 C152 0.940 . S
H136 C153 0.939 . S
H137 C155 0.941 . S
H138 C159 0.939 . S
O139 P128 1.490 . S
H140 C156 0.939 . S
H141 C158 0.940 . S
C142 P128 1.812 1_556 S
C142 C143 1.389 . S
C142 C147 1.391 . S
C143 H129 0.941 . S
C143 C142 1.389 . S
C143 C144 1.397 . S
C144 H130 0.939 . S
C144 C143 1.397 . S
C144 C145 1.378 . S
C145 C144 1.378 . S
C145 C146 1.378 . S
C146 H131 0.940 . S
C146 C145 1.378 . S
C146 C147 1.396 . S
C147 H132 0.940 1_556 S
C147 C142 1.391 . S
C147 C146 1.396 . S
C148 P128 1.803 . S
C148 C149 1.378 . S
C148 C153 1.400 . S
C149 H133 0.939 . S
C149 C148 1.378 . S
C149 C150 1.361 . S
C150 H134 0.942 . S
C150 C149 1.361 . S
C150 C151 1.369 . S
C151 C150 1.369 . S
C151 C152 1.404 . S
C152 H135 0.940 . S
C152 C151 1.404 . S
C152 C153 1.389 . S
C153 H136 0.939 . S
C153 C148 1.400 . S
C153 C152 1.389 . S
C154 P128 1.819 . S
C154 C155 1.391 . S
C154 C159 1.391 . S
C155 H137 0.941 . S
C155 C154 1.391 . S
C155 C156 1.396 . S
C156 H140 0.939 . S
C156 C155 1.396 . S
C156 C157 1.397 . S
C157 C156 1.397 . S
C157 C158 1.385 . S
C158 H141 0.940 . S
C158 C157 1.385 . S
C158 C159 1.388 . S
C159 H138 0.939 . S
C159 C154 1.391 . S
C159 C158 1.388 . S
P160 O171 1.490 . S
P160 C174 1.812 1_554 S
P160 C180 1.803 . S
P160 C186 1.819 . S
H161 C175 0.941 . S
H162 C176 0.939 . S
H163 C178 0.940 . S
H164 C179 0.942 1_554 S
H165 C181 0.939 . S
H166 C182 0.942 . S
H167 C184 0.940 . S
H168 C185 0.951 . S
H169 C187 0.941 . S
H170 C191 0.934 1_655 S
O171 P160 1.490 . S
H172 C188 0.939 . S
H173 C190 0.940 . S
C174 P160 1.812 1_556 S
C174 C175 1.389 . S
C174 C179 1.388 1_455 S
C175 H161 0.941 . S
C175 C174 1.389 . S
C175 C176 1.397 . S
C176 H162 0.939 . S
C176 C175 1.397 . S
C176 C177 1.378 . S
C177 C176 1.378 . S
C177 C178 1.378 1_455 S
C178 H163 0.940 . S
C178 C177 1.378 1_655 S
C178 C179 1.398 . S
C179 H164 0.942 1_556 S
C179 C174 1.388 1_655 S
C179 C178 1.398 . S
C180 P160 1.803 . S
C180 C181 1.378 . S
C180 C185 1.381 1_455 S
C181 H165 0.939 . S
C181 C180 1.378 . S
C181 C182 1.361 . S
C182 H166 0.942 . S
C182 C181 1.361 . S
C182 C183 1.369 . S
C183 C182 1.369 . S
C183 C184 1.404 1_455 S
C184 H167 0.940 . S
C184 C183 1.404 1_655 S
C184 C185 1.397 . S
C185 H168 0.951 . S
C185 C180 1.381 1_655 S
C185 C184 1.397 . S
C186 P160 1.819 . S
C186 C187 1.391 . S
C186 C191 1.391 . S
C187 H169 0.941 . S
C187 C186 1.391 . S
C187 C188 1.396 . S
C188 H172 0.939 . S
C188 C187 1.396 . S
C188 C189 1.397 . S
C189 C188 1.397 . S
C189 C190 1.385 1_455 S
C190 H173 0.940 . S
C190 C189 1.385 1_655 S
C190 C191 1.388 1_655 S
C191 H170 0.934 1_455 S
C191 C186 1.391 . S
C191 C190 1.388 1_455 S
P192 O203 1.490 . S
P192 C206 1.812 1_554 S
P192 C212 1.803 . S
P192 C218 1.819 . S
H193 C207 0.941 . S
H194 C208 0.939 . S
H195 C210 0.940 . S
H196 C211 0.942 1_554 S
H197 C213 0.939 . S
H198 C214 0.942 . S
H199 C216 0.940 . S
H200 C217 0.951 . S
H201 C219 0.941 . S
H202 C223 0.934 1_565 S
O203 P192 1.490 . S
H204 C220 0.939 . S
H205 C222 0.940 . S
C206 P192 1.812 1_556 S
C206 C207 1.389 . S
C206 C211 1.388 1_545 S
C207 H193 0.941 . S
C207 C206 1.389 . S
C207 C208 1.397 . S
C208 H194 0.939 . S
C208 C207 1.397 . S
C208 C209 1.378 . S
C209 C208 1.378 . S
C209 C210 1.378 1_545 S
C210 H195 0.940 . S
C210 C209 1.378 1_565 S
C210 C211 1.398 . S
C211 H196 0.942 1_556 S
C211 C206 1.388 1_565 S
C211 C210 1.398 . S
C212 P192 1.803 . S
C212 C213 1.378 . S
C212 C217 1.381 1_545 S
C213 H197 0.939 . S
C213 C212 1.378 . S
C213 C214 1.361 . S
C214 H198 0.942 . S
C214 C213 1.361 . S
C214 C215 1.369 . S
C215 C214 1.369 . S
C215 C216 1.404 1_545 S
C216 H199 0.940 . S
C216 C215 1.404 1_565 S
C216 C217 1.397 . S
C217 H200 0.951 . S
C217 C212 1.381 1_565 S
C217 C216 1.397 . S
C218 P192 1.819 . S
C218 C219 1.391 . S
C218 C223 1.391 . S
C219 H201 0.941 . S
C219 C218 1.391 . S
C219 C220 1.396 . S
C220 H204 0.939 . S
C220 C219 1.396 . S
C220 C221 1.397 . S
C221 C220 1.397 . S
C221 C222 1.385 1_545 S
C222 H205 0.940 . S
C222 C221 1.385 1_565 S
C222 C223 1.388 1_565 S
C223 H202 0.934 1_545 S
C223 C218 1.391 . S
C223 C222 1.388 1_545 S
P224 O235 1.490 . S
P224 C238 1.812 1_554 S
P224 C244 1.803 . S
P224 C250 1.819 . S
H225 C239 0.941 . S
H226 C240 0.939 . S
H227 C242 0.940 . S
H228 C243 0.940 1_554 S
H229 C245 0.939 . S
H230 C246 0.942 . S
H231 C248 0.940 . S
H232 C249 0.939 . S
H233 C251 0.941 . S
H234 C255 0.939 . S
O235 P224 1.490 . S
H236 C252 0.939 . S
H237 C254 0.940 . S
C238 P224 1.812 1_556 S
C238 C239 1.389 . S
C238 C243 1.391 . S
C239 H225 0.941 . S
C239 C238 1.389 . S
C239 C240 1.397 . S
C240 H226 0.939 . S
C240 C239 1.397 . S
C240 C241 1.378 . S
C241 C240 1.378 . S
C241 C242 1.378 . S
C242 H227 0.940 . S
C242 C241 1.378 . S
C242 C243 1.396 . S
C243 H228 0.940 1_556 S
C243 C238 1.391 . S
C243 C242 1.396 . S
C244 P224 1.803 . S
C244 C245 1.378 . S
C244 C249 1.400 . S
C245 H229 0.939 . S
C245 C244 1.378 . S
C245 C246 1.361 . S
C246 H230 0.942 . S
C246 C245 1.361 . S
C246 C247 1.369 . S
C247 C246 1.369 . S
C247 C248 1.404 . S
C248 H231 0.940 . S
C248 C247 1.404 . S
C248 C249 1.389 . S
C249 H232 0.939 . S
C249 C244 1.400 . S
C249 C248 1.389 . S
C250 P224 1.819 . S
C250 C251 1.391 . S
C250 C255 1.391 . S
C251 H233 0.941 . S
C251 C250 1.391 . S
C251 C252 1.396 . S
C252 H236 0.939 . S
C252 C251 1.396 . S
C252 C253 1.397 . S
C253 C252 1.397 . S
C253 C254 1.385 . S
C254 H237 0.940 . S
C254 C253 1.385 . S
C254 C255 1.388 . S
C255 H234 0.939 . S
C255 C250 1.391 . S
C255 C254 1.388 . S
C256 Eu257 2.835 . S
C256 C258 1.500 . S
C256 O276 1.257 . S
C256 O277 1.260 . S
Eu257 C256 2.835 . S
Eu257 O276 2.473 . S
Eu257 O277 2.480 . S
Eu257 O278 2.430 . S
Eu257 O279 2.670 1_545 S
Eu257 O280 2.394 . S
Eu257 O285 2.355 1_655 S
Eu257 O287 2.374 1_545 S
C258 C256 1.500 . S
C258 C259 1.377 . S
C258 C263 1.377 . S
C259 C258 1.377 . S
C259 C260 1.395 . S
C259 H288 0.931 . S
C260 C259 1.395 . S
C260 C261 1.383 . S
C260 H289 0.931 . S
C261 C260 1.383 . S
C261 C262 1.394 . S
C262 C261 1.394 . S
C262 C263 1.378 . S
C262 H290 0.931 1_655 S
C263 C258 1.377 . S
C263 C262 1.378 . S
C263 H291 0.931 1_655 S
C264 O278 1.282 . S
C264 O279 1.254 1_545 S
C265 O280 1.251 1_455 S
C265 O281 1.251 . S
C266 Eu267 2.835 . S
C266 C268 1.500 . S
C266 O282 1.257 . S
C266 O283 1.260 . S
Eu267 C266 2.835 . S
Eu267 O279 2.355 1_455 S
Eu267 O281 2.374 1_565 S
Eu267 O282 2.473 . S
Eu267 O283 2.480 . S
Eu267 O284 2.430 . S
Eu267 O285 2.670 1_565 S
Eu267 O286 2.394 . S
C268 C266 1.500 . S
C268 C269 1.377 . S
C268 C273 1.377 . S
C269 C268 1.377 . S
C269 C270 1.395 . S
C269 H292 0.931 . S
C270 C269 1.395 . S
C270 C271 1.383 . S
C270 H293 0.931 . S
C271 C270 1.383 . S
C271 C272 1.394 . S
C272 C271 1.394 . S
C272 C273 1.378 . S
C272 H294 0.931 1_455 S
C273 C268 1.377 . S
C273 C272 1.378 . S
C273 H295 0.931 1_455 S
C274 O284 1.275 . S
C274 O285 1.259 1_565 S
C275 O286 1.251 1_655 S
C275 O287 1.251 . S
O276 C256 1.257 . S
O276 Eu257 2.473 . S
O277 C256 1.260 . S
O277 Eu257 2.480 . S
O278 Eu257 2.430 . S
O278 C264 1.282 . S
O279 Eu257 2.670 1_565 S
O279 C264 1.254 1_565 S
O279 Eu267 2.355 1_655 S
O280 Eu257 2.394 . S
O280 C265 1.251 1_655 S
O281 C265 1.251 . S
O281 Eu267 2.374 1_545 S
O282 C266 1.257 . S
O282 Eu267 2.473 . S
O283 C266 1.260 . S
O283 Eu267 2.480 . S
O284 Eu267 2.430 . S
O284 C274 1.275 . S
O285 Eu257 2.355 1_455 S
O285 Eu267 2.670 1_545 S
O285 C274 1.259 1_545 S
O286 Eu267 2.394 . S
O286 C275 1.251 1_455 S
O287 Eu257 2.374 1_565 S
O287 C275 1.251 . S
H288 C259 0.931 . S
H289 C260 0.931 . S
H290 C262 0.931 1_455 S
H291 C263 0.931 1_455 S
H292 C269 0.931 . S
H293 C270 0.931 . S
H294 C272 0.931 1_655 S
H295 C273 0.931 1_655 S
C296 Eu297 2.835 . S
C296 C298 1.500 . S
C296 O316 1.257 . S
C296 O317 1.260 . S
Eu297 C296 2.835 . S
Eu297 O316 2.473 . S
Eu297 O317 2.480 . S
Eu297 O318 2.430 . S
Eu297 O319 2.670 . S
Eu297 O320 2.394 . S
Eu297 O325 2.355 1_565 S
Eu297 O327 2.374 . S
C298 C296 1.500 . S
C298 C299 1.377 . S
C298 C303 1.377 . S
C299 C298 1.377 . S
C299 C300 1.395 . S
C299 H328 0.931 . S
C300 C299 1.395 . S
C300 C301 1.383 . S
C300 H329 0.931 . S
C301 C300 1.383 . S
C301 C302 1.394 . S
C302 C301 1.394 . S
C302 C303 1.378 . S
C302 H330 0.931 1_565 S
C303 C298 1.377 . S
C303 C302 1.378 . S
C303 H331 0.931 1_565 S
C304 O318 1.259 . S
C304 O319 1.270 . S
C305 O320 1.251 1_545 S
C305 O321 1.251 . S
C306 Eu307 2.835 . S
C306 C308 1.500 . S
C306 O322 1.257 . S
C306 O323 1.260 . S
Eu307 C306 2.835 . S
Eu307 O319 2.355 1_545 S
Eu307 O321 2.374 . S
Eu307 O322 2.473 . S
Eu307 O323 2.480 . S
Eu307 O324 2.430 . S
Eu307 O325 2.670 . S
Eu307 O326 2.394 . S
C308 C306 1.500 . S
C308 C309 1.377 . S
C308 C313 1.377 . S
C309 C308 1.377 . S
C309 C310 1.395 . S
C309 H332 0.931 . S
C310 C309 1.395 . S
C310 C311 1.383 . S
C310 H333 0.931 . S
C311 C310 1.383 . S
C311 C312 1.394 . S
C312 C311 1.394 . S
C312 C313 1.378 . S
C312 H334 0.931 1_545 S
C313 C308 1.377 . S
C313 C312 1.378 . S
C313 H335 0.931 1_545 S
C314 O324 1.259 . S
C314 O325 1.270 . S
C315 O326 1.251 1_565 S
C315 O327 1.251 . S
O316 C296 1.257 . S
O316 Eu297 2.473 . S
O317 C296 1.260 . S
O317 Eu297 2.480 . S
O318 Eu297 2.430 . S
O318 C304 1.259 . S
O319 Eu297 2.670 . S
O319 C304 1.270 . S
O319 Eu307 2.355 1_565 S
O320 Eu297 2.394 . S
O320 C305 1.251 1_565 S
O321 C305 1.251 . S
O321 Eu307 2.374 . S
O322 C306 1.257 . S
O322 Eu307 2.473 . S
O323 C306 1.260 . S
O323 Eu307 2.480 . S
O324 Eu307 2.430 . S
O324 C314 1.259 . S
O325 Eu297 2.355 1_545 S
O325 Eu307 2.670 . S
O325 C314 1.270 . S
O326 Eu307 2.394 . S
O326 C315 1.251 1_545 S
O327 Eu297 2.374 . S
O327 C315 1.251 . S
H328 C299 0.931 . S
H329 C300 0.931 . S
H330 C302 0.931 1_545 S
H331 C303 0.931 1_545 S
H332 C309 0.931 . S
H333 C310 0.931 . S
H334 C312 0.931 1_565 S
H335 C313 0.931 1_565 S
C336 Eu337 2.835 . S
C336 C338 1.500 . S
C336 O356 1.257 . S
C336 O357 1.260 . S
Eu337 C336 2.835 . S
Eu337 O356 2.473 . S
Eu337 O357 2.480 . S
Eu337 O358 2.430 . S
Eu337 O359 2.670 . S
Eu337 O360 2.394 . S
Eu337 O365 2.355 . S
Eu337 O367 2.374 . S
C338 C336 1.500 . S
C338 C339 1.377 . S
C338 C343 1.377 . S
C339 C338 1.377 . S
C339 C340 1.395 . S
C339 H368 0.931 . S
C340 C339 1.395 . S
C340 C341 1.383 . S
C340 H369 0.931 . S
C341 C340 1.383 . S
C341 C342 1.394 . S
C342 C341 1.394 . S
C342 C343 1.378 . S
C342 H370 0.931 . S
C343 C338 1.377 . S
C343 C342 1.378 . S
C343 H371 0.931 . S
C344 O358 1.259 . S
C344 O359 1.270 . S
C345 O360 1.251 . S
C345 O361 1.251 . S
C346 Eu347 2.835 . S
C346 C348 1.500 . S
C346 O362 1.257 . S
C346 O363 1.260 . S
Eu347 C346 2.835 . S
Eu347 O359 2.355 . S
Eu347 O361 2.374 . S
Eu347 O362 2.473 . S
Eu347 O363 2.480 . S
Eu347 O364 2.430 . S
Eu347 O365 2.670 . S
Eu347 O366 2.394 . S
C348 C346 1.500 . S
C348 C349 1.377 . S
C348 C353 1.377 . S
C349 C348 1.377 . S
C349 C350 1.395 . S
C349 H372 0.931 . S
C350 C349 1.395 . S
C350 C351 1.383 . S
C350 H373 0.931 . S
C351 C350 1.383 . S
C351 C352 1.394 . S
C352 C351 1.394 . S
C352 C353 1.378 . S
C352 H374 0.931 . S
C353 C348 1.377 . S
C353 C352 1.378 . S
C353 H375 0.931 . S
C354 O364 1.259 . S
C354 O365 1.270 . S
C355 O366 1.251 . S
C355 O367 1.251 . S
O356 C336 1.257 . S
O356 Eu337 2.473 . S
O357 C336 1.260 . S
O357 Eu337 2.480 . S
O358 Eu337 2.430 . S
O358 C344 1.259 . S
O359 Eu337 2.670 . S
O359 C344 1.270 . S
O359 Eu347 2.355 . S
O360 Eu337 2.394 . S
O360 C345 1.251 . S
O361 C345 1.251 . S
O361 Eu347 2.374 . S
O362 C346 1.257 . S
O362 Eu347 2.473 . S
O363 C346 1.260 . S
O363 Eu347 2.480 . S
O364 Eu347 2.430 . S
O364 C354 1.259 . S
O365 Eu337 2.355 . S
O365 Eu347 2.670 . S
O365 C354 1.270 . S
O366 Eu347 2.394 . S
O366 C355 1.251 . S
O367 Eu337 2.374 . S
O367 C355 1.251 . S
H368 C339 0.931 . S
H369 C340 0.931 . S
H370 C342 0.931 . S
H371 C343 0.931 . S
H372 C349 0.931 . S
H373 C350 0.931 . S
H374 C352 0.931 . S
H375 C353 0.931 . S
C376 Eu377 2.835 . S
C376 C378 1.500 . S
C376 O396 1.257 . S
C376 O397 1.260 . S
Eu377 C376 2.835 . S
Eu377 O396 2.473 . S
Eu377 O397 2.480 . S
Eu377 O398 2.430 . S
Eu377 O399 2.670 1_455 S
Eu377 O400 2.394 . S
Eu377 O405 2.355 . S
Eu377 O407 2.374 1_455 S
C378 C376 1.500 . S
C378 C379 1.377 . S
C378 C383 1.377 . S
C379 C378 1.377 . S
C379 C380 1.395 . S
C379 H408 0.931 . S
C380 C379 1.395 . S
C380 C381 1.383 . S
C380 H409 0.931 . S
C381 C380 1.383 . S
C381 C382 1.394 . S
C382 C381 1.394 . S
C382 C383 1.378 . S
C382 H410 0.931 . S
C383 C378 1.377 . S
C383 C382 1.378 . S
C383 H411 0.931 . S
C384 O398 1.276 . S
C384 O399 1.258 1_455 S
C385 O400 1.251 . S
C385 O401 1.251 . S
C386 Eu387 2.835 . S
C386 C388 1.500 . S
C386 O402 1.257 . S
C386 O403 1.260 . S
Eu387 C386 2.835 . S
Eu387 O399 2.355 . S
Eu387 O401 2.374 1_655 S
Eu387 O402 2.473 . S
Eu387 O403 2.480 . S
Eu387 O404 2.430 . S
Eu387 O405 2.670 1_655 S
Eu387 O406 2.394 . S
C388 C386 1.500 . S
C388 C389 1.377 . S
C388 C393 1.377 . S
C389 C388 1.377 . S
C389 C390 1.395 . S
C389 H412 0.931 . S
C390 C389 1.395 . S
C390 C391 1.383 . S
C390 H413 0.931 . S
C391 C390 1.383 . S
C391 C392 1.394 . S
C392 C391 1.394 . S
C392 C393 1.378 . S
C392 H414 0.931 . S
C393 C388 1.377 . S
C393 C392 1.378 . S
C393 H415 0.931 . S
C394 O404 1.269 . S
C394 O405 1.263 1_655 S
C395 O406 1.251 . S
C395 O407 1.251 . S
O396 C376 1.257 . S
O396 Eu377 2.473 . S
O397 C376 1.260 . S
O397 Eu377 2.480 . S
O398 Eu377 2.430 . S
O398 C384 1.276 . S
O399 Eu377 2.670 1_655 S
O399 C384 1.258 1_655 S
O399 Eu387 2.355 . S
O400 Eu377 2.394 . S
O400 C385 1.251 . S
O401 C385 1.251 . S
O401 Eu387 2.374 1_455 S
O402 C386 1.257 . S
O402 Eu387 2.473 . S
O403 C386 1.260 . S
O403 Eu387 2.480 . S
O404 Eu387 2.430 . S
O404 C394 1.269 . S
O405 Eu377 2.355 . S
O405 Eu387 2.670 1_455 S
O405 C394 1.263 1_455 S
O406 Eu387 2.394 . S
O406 C395 1.251 . S
O407 Eu377 2.374 1_655 S
O407 C395 1.251 . S
H408 C379 0.931 . S
H409 C380 0.931 . S
H410 C382 0.931 . S
H411 C383 0.931 . S
H412 C389 0.931 . S
H413 C390 0.931 . S
H414 C392 0.931 . S
H415 C393 0.931 . S
H416 C434 0.951 . S
H417 C436 0.951 . S
H418 C438 0.950 . S
H419 C439 0.950 . S
H420 C441 0.950 . S
H421 C444 0.950 . S
H422 C445 0.950 . S
H423 C447 0.950 . S
H424 C448 0.950 . S
H425 C449 0.951 . S
H426 C451 0.951 . S
H427 C453 0.950 . S
H428 C454 0.950 . S
H429 C456 0.950 . S
H430 C459 0.950 . S
H431 C460 0.950 . S
H432 C462 0.950 . S
H433 C463 0.950 . S
C434 H416 0.951 . S
C434 C435 1.364 1_565 S
C434 C436 1.388 . S
C435 C434 1.364 1_545 S
C435 C439 1.386 . S
C436 H417 0.951 . S
C436 C434 1.388 . S
C436 C437 1.375 . S
C437 C436 1.375 . S
C437 C438 1.404 1_565 S
C437 C440 1.499 . S
C438 H418 0.950 . S
C438 C437 1.404 1_545 S
C438 C439 1.374 . S
C439 H419 0.950 . S
C439 C435 1.386 . S
C439 C438 1.374 . S
C440 C437 1.499 . S
C440 C441 1.348 1_565 S
C440 C442 1.413 . S
C441 H420 0.950 . S
C441 C440 1.348 1_545 S
C441 C457 1.377 . S
C442 C440 1.413 . S
C442 C443 1.524 . S
C442 C456 1.377 . S
C443 C442 1.524 . S
C443 C444 1.397 . S
C443 C448 1.363 . S
C444 H421 0.950 . S
C444 C443 1.397 . S
C444 C445 1.334 . S
C445 H422 0.950 . S
C445 C444 1.334 . S
C445 C446 1.287 . S
C446 C445 1.287 . S
C446 C447 1.524 . S
C446 H465 0.913 . S
C447 H423 0.950 . S
C447 C446 1.524 . S
C447 C448 1.415 . S
C448 H424 0.950 . S
C448 C443 1.363 . S
C448 C447 1.415 . S
C449 H425 0.951 . S
C449 C450 1.375 . S
C449 C451 1.388 . S
C450 C449 1.375 . S
C450 C454 1.376 1_545 S
C451 H426 0.951 . S
C451 C449 1.388 . S
C451 C452 1.366 . S
C452 C451 1.366 . S
C452 C453 1.414 1_545 S
C452 C455 1.499 . S
C453 H427 0.950 . S
C453 C452 1.414 1_565 S
C453 C454 1.374 . S
C454 H428 0.950 . S
C454 C450 1.376 1_565 S
C454 C453 1.374 . S
C455 C452 1.499 . S
C455 C456 1.373 1_545 S
C455 C457 1.389 . S
C456 H429 0.950 . S
C456 C442 1.377 . S
C456 C455 1.373 1_565 S
C457 C441 1.377 . S
C457 C455 1.389 . S
C457 C458 1.524 . S
C458 C457 1.524 . S
C458 C459 1.397 . S
C458 C463 1.363 . S
C459 H430 0.950 . S
C459 C458 1.397 . S
C459 C460 1.334 . S
C460 H431 0.950 . S
C460 C459 1.334 . S
C460 C461 1.287 . S
C461 C460 1.287 . S
C461 C462 1.524 . S
C461 H464 0.999 . S
C462 H432 0.950 . S
C462 C461 1.524 . S
C462 C463 1.415 . S
C463 H433 0.950 . S
C463 C458 1.363 . S
C463 C462 1.415 . S
H464 C461 0.999 . S
H465 C446 0.913 . S
H466 C484 0.951 . S
H467 C486 0.951 . S
H468 C488 0.950 . S
H469 C489 0.950 . S
H470 C491 0.950 . S
H471 C494 0.950 . S
H472 C495 0.950 . S
H473 C497 0.950 . S
H474 C498 0.950 . S
H475 C499 0.951 . S
H476 C501 0.951 . S
H477 C503 0.950 . S
H478 C504 0.950 . S
H479 C506 0.950 . S
H480 C509 0.950 . S
H481 C510 0.950 . S
H482 C512 0.950 . S
H483 C513 0.950 . S
C484 H466 0.951 . S
C484 C485 1.366 . S
C484 C486 1.388 . S
C485 C484 1.366 . S
C485 C489 1.385 . S
C486 H467 0.951 . S
C486 C484 1.388 . S
C486 C487 1.366 . S
C487 C486 1.366 . S
C487 C488 1.414 . S
C487 C490 1.499 . S
C488 H468 0.950 . S
C488 C487 1.414 . S
C488 C489 1.374 . S
C489 H469 0.950 . S
C489 C485 1.385 . S
C489 C488 1.374 . S
C490 C487 1.499 . S
C490 C491 1.373 . S
C490 C492 1.389 . S
C491 H470 0.950 . S
C491 C490 1.373 . S
C491 C507 1.377 . S
C492 C490 1.389 . S
C492 C493 1.524 . S
C492 C506 1.377 . S
C493 C492 1.524 . S
C493 C494 1.397 . S
C493 C498 1.363 . S
C494 H471 0.950 . S
C494 C493 1.397 . S
C494 C495 1.334 . S
C495 H472 0.950 . S
C495 C494 1.334 . S
C495 C496 1.287 . S
C496 C495 1.287 . S
C496 C497 1.524 . S
C496 H515 0.913 . S
C497 H473 0.950 . S
C497 C496 1.524 . S
C497 C498 1.415 . S
C498 H474 0.950 . S
C498 C493 1.363 . S
C498 C497 1.415 . S
C499 H475 0.951 . S
C499 C500 1.366 . S
C499 C501 1.388 . S
C500 C499 1.366 . S
C500 C504 1.385 . S
C501 H476 0.951 . S
C501 C499 1.388 . S
C501 C502 1.366 . S
C502 C501 1.366 . S
C502 C503 1.414 . S
C502 C505 1.499 . S
C503 H477 0.950 . S
C503 C502 1.414 . S
C503 C504 1.374 . S
C504 H478 0.950 . S
C504 C500 1.385 . S
C504 C503 1.374 . S
C505 C502 1.499 . S
C505 C506 1.373 . S
C505 C507 1.389 . S
C506 H479 0.950 . S
C506 C492 1.377 . S
C506 C505 1.373 . S
C507 C491 1.377 . S
C507 C505 1.389 . S
C507 C508 1.524 . S
C508 C507 1.524 . S
C508 C509 1.397 . S
C508 C513 1.363 . S
C509 H480 0.950 . S
C509 C508 1.397 . S
C509 C510 1.334 . S
C510 H481 0.950 . S
C510 C509 1.334 . S
C510 C511 1.287 . S
C511 C510 1.287 . S
C511 C512 1.524 . S
C511 H514 0.999 . S
C512 H482 0.950 . S
C512 C511 1.524 . S
C512 C513 1.415 . S
C513 H483 0.950 . S
C513 C508 1.363 . S
C513 C512 1.415 . S
H514 C511 0.999 . S
H515 C496 0.913 . S
H516 C534 0.951 . S
H517 C536 0.951 . S
H518 C538 0.950 . S
H519 C539 0.950 . S
H520 C541 0.950 . S
H521 C544 0.950 . S
H522 C545 0.950 . S
H523 C547 0.950 . S
H524 C548 0.950 . S
H525 C549 0.951 . S
H526 C551 0.951 . S
H527 C553 0.950 . S
H528 C554 0.950 . S
H529 C556 0.950 . S
H530 C559 0.950 . S
H531 C560 0.950 . S
H532 C562 0.950 . S
H533 C563 0.950 . S
C534 H516 0.951 . S
C534 C535 1.366 . S
C534 C536 1.388 . S
C535 C534 1.366 . S
C535 C539 1.385 . S
C536 H517 0.951 . S
C536 C534 1.388 . S
C536 C537 1.366 . S
C537 C536 1.366 . S
C537 C538 1.414 . S
C537 C540 1.499 . S
C538 H518 0.950 . S
C538 C537 1.414 . S
C538 C539 1.374 . S
C539 H519 0.950 . S
C539 C535 1.385 . S
C539 C538 1.374 . S
C540 C537 1.499 . S
C540 C541 1.373 . S
C540 C542 1.389 . S
C541 H520 0.950 . S
C541 C540 1.373 . S
C541 C557 1.377 . S
C542 C540 1.389 . S
C542 C543 1.524 . S
C542 C556 1.377 . S
C543 C542 1.524 . S
C543 C544 1.397 . S
C543 C548 1.363 . S
C544 H521 0.950 . S
C544 C543 1.397 . S
C544 C545 1.334 . S
C545 H522 0.950 . S
C545 C544 1.334 . S
C545 C546 1.287 . S
C546 C545 1.287 . S
C546 C547 1.524 . S
C546 H565 0.913 . S
C547 H523 0.950 . S
C547 C546 1.524 . S
C547 C548 1.415 . S
C548 H524 0.950 . S
C548 C543 1.363 . S
C548 C547 1.415 . S
C549 H525 0.951 . S
C549 C550 1.366 . S
C549 C551 1.388 . S
C550 C549 1.366 . S
C550 C554 1.385 . S
C551 H526 0.951 . S
C551 C549 1.388 . S
C551 C552 1.366 . S
C552 C551 1.366 . S
C552 C553 1.414 . S
C552 C555 1.499 . S
C553 H527 0.950 . S
C553 C552 1.414 . S
C553 C554 1.374 . S
C554 H528 0.950 . S
C554 C550 1.385 . S
C554 C553 1.374 . S
C555 C552 1.499 . S
C555 C556 1.373 . S
C555 C557 1.389 . S
C556 H529 0.950 . S
C556 C542 1.377 . S
C556 C555 1.373 . S
C557 C541 1.377 . S
C557 C555 1.389 . S
C557 C558 1.524 . S
C558 C557 1.524 . S
C558 C559 1.397 . S
C558 C563 1.363 . S
C559 H530 0.950 . S
C559 C558 1.397 . S
C559 C560 1.334 . S
C560 H531 0.950 . S
C560 C559 1.334 . S
C560 C561 1.287 . S
C561 C560 1.287 . S
C561 C562 1.524 . S
C561 H564 0.999 . S
C562 H532 0.950 . S
C562 C561 1.524 . S
C562 C563 1.415 . S
C563 H533 0.950 . S
C563 C558 1.363 . S
C563 C562 1.415 . S
H564 C561 0.999 . S
H565 C546 0.913 . S
H566 C584 0.951 . S
H567 C586 0.951 . S
H568 C588 0.950 . S
H569 C589 0.950 . S
H570 C591 0.950 . S
H571 C594 0.950 . S
H572 C595 0.950 . S
H573 C597 0.950 . S
H574 C598 0.950 . S
H575 C599 0.951 . S
H576 C601 0.951 . S
H577 C603 0.950 . S
H578 C604 0.950 . S
H579 C606 0.950 . S
H580 C609 0.950 . S
H581 C610 0.950 . S
H582 C612 0.950 . S
H583 C613 0.950 . S
C584 H566 0.951 . S
C584 C585 1.361 1_655 S
C584 C586 1.388 . S
C585 C584 1.361 1_455 S
C585 C589 1.389 . S
C586 H567 0.951 . S
C586 C584 1.388 . S
C586 C587 1.369 . S
C587 C586 1.369 . S
C587 C588 1.410 1_655 S
C587 C590 1.498 1_655 S
C588 H568 0.950 . S
C588 C587 1.410 1_455 S
C588 C589 1.374 . S
C589 H569 0.950 . S
C589 C585 1.389 . S
C589 C588 1.374 . S
C590 C587 1.498 1_455 S
C590 C591 1.388 . S
C590 C592 1.375 1_455 S
C591 H570 0.950 . S
C591 C590 1.388 . S
C591 C607 1.377 . S
C592 C590 1.375 1_655 S
C592 C593 1.524 . S
C592 C606 1.377 . S
C593 C592 1.524 . S
C593 C594 1.397 . S
C593 C598 1.363 . S
C594 H571 0.950 . S
C594 C593 1.397 . S
C594 C595 1.334 . S
C595 H572 0.950 . S
C595 C594 1.334 . S
C595 C596 1.287 . S
C596 C595 1.287 . S
C596 C597 1.524 . S
C596 H615 0.913 . S
C597 H573 0.950 . S
C597 C596 1.524 . S
C597 C598 1.415 . S
C598 H574 0.950 . S
C598 C593 1.363 . S
C598 C597 1.415 . S
C599 H575 0.951 . S
C599 C600 1.402 . S
C599 C601 1.388 . S
C600 C599 1.402 . S
C600 C604 1.349 1_455 S
C601 H576 0.951 . S
C601 C599 1.388 . S
C601 C602 1.366 . S
C602 C601 1.366 . S
C602 C603 1.414 1_455 S
C602 C605 1.500 . S
C603 H577 0.950 . S
C603 C602 1.414 1_655 S
C603 C604 1.374 . S
C604 H578 0.950 . S
C604 C600 1.349 1_655 S
C604 C603 1.374 . S
C605 C602 1.500 . S
C605 C606 1.342 1_455 S
C605 C607 1.421 . S
C606 H579 0.950 . S
C606 C592 1.377 . S
C606 C605 1.342 1_655 S
C607 C591 1.377 . S
C607 C605 1.421 . S
C607 C608 1.524 . S
C608 C607 1.524 . S
C608 C609 1.397 . S
C608 C613 1.363 . S
C609 H580 0.950 . S
C609 C608 1.397 . S
C609 C610 1.334 . S
C610 H581 0.950 . S
C610 C609 1.334 . S
C610 C611 1.287 . S
C611 C610 1.287 . S
C611 C612 1.524 . S
C611 H614 0.999 . S
C612 H582 0.950 . S
C612 C611 1.524 . S
C612 C613 1.415 . S
C613 H583 0.950 . S
C613 C608 1.363 . S
C613 C612 1.415 . S
H614 C611 0.999 . S
H615 C596 0.913 . S
H616 C634 0.951 . S
H617 C636 0.951 . S
H618 C638 0.949 . S
H619 C639 0.950 . S
H620 C641 0.951 . S
H621 C644 0.950 . S
H622 C645 0.950 . S
H623 C647 0.950 . S
H624 C648 0.950 . S
H625 C649 0.951 . S
H626 C651 0.951 . S
H627 C653 0.950 1_545 S
H628 C654 0.950 1_545 S
H629 C656 0.950 . S
H630 C659 0.950 . S
H631 C660 0.950 . S
H632 C662 0.950 . S
H633 C663 0.950 . S
C634 H616 0.951 . S
C634 C635 1.365 . S
C634 C636 1.389 . S
C635 C634 1.365 . S
C635 C639 1.384 1_545 S
C636 H617 0.951 . S
C636 C634 1.389 . S
C636 C637 1.367 . S
C637 C636 1.367 . S
C637 C638 1.412 1_545 S
C637 C640 1.499 . S
C638 H618 0.949 . S
C638 C637 1.412 1_565 S
C638 C639 1.374 . S
C639 H619 0.950 . S
C639 C635 1.384 1_565 S
C639 C638 1.374 . S
C640 C637 1.499 . S
C640 C641 1.336 1_545 S
C640 C642 1.428 . S
C641 H620 0.951 . S
C641 C640 1.336 1_565 S
C641 C657 1.373 1_554 S
C642 C640 1.428 . S
C642 C643 1.524 . S
C642 C656 1.377 1_554 S
C643 C642 1.524 . S
C643 C644 1.397 . S
C643 C648 1.363 . S
C644 H621 0.950 . S
C644 C643 1.397 . S
C644 C645 1.334 . S
C645 H622 0.950 . S
C645 C644 1.334 . S
C645 C646 1.287 . S
C646 C645 1.287 . S
C646 C647 1.524 . S
C646 H665 0.913 . S
C647 H623 0.950 . S
C647 C646 1.524 . S
C647 C648 1.415 . S
C648 H624 0.950 . S
C648 C643 1.363 . S
C648 C647 1.415 . S
C649 H625 0.951 . S
C649 C650 1.367 . S
C649 C651 1.388 . S
C650 C649 1.367 . S
C650 C654 1.384 . S
C651 H626 0.951 . S
C651 C649 1.388 . S
C651 C652 1.366 . S
C652 C651 1.366 . S
C652 C653 1.414 . S
C652 C655 1.499 . S
C653 H627 0.950 1_565 S
C653 C652 1.414 . S
C653 C654 1.374 . S
C654 H628 0.950 1_565 S
C654 C650 1.384 . S
C654 C653 1.374 . S
C655 C652 1.499 . S
C655 C656 1.373 1_565 S
C655 C657 1.389 . S
C656 H629 0.950 . S
C656 C642 1.377 1_556 S
C656 C655 1.373 1_545 S
C657 C641 1.373 1_556 S
C657 C655 1.389 . S
C657 C658 1.524 . S
C658 C657 1.524 . S
C658 C659 1.397 . S
C658 C663 1.363 . S
C659 H630 0.950 . S
C659 C658 1.397 . S
C659 C660 1.334 . S
C660 H631 0.950 . S
C660 C659 1.334 . S
C660 C661 1.287 . S
C661 C660 1.287 . S
C661 C662 1.524 . S
C661 H664 0.999 . S
C662 H632 0.950 . S
C662 C661 1.524 . S
C662 C663 1.415 . S
C663 H633 0.950 . S
C663 C658 1.363 . S
C663 C662 1.415 . S
H664 C661 0.999 . S
H665 C646 0.913 . S
H666 C684 0.951 . S
H667 C686 0.951 . S
H668 C688 0.950 . S
H669 C689 0.950 . S
H670 C691 0.950 . S
H671 C694 0.950 . S
H672 C695 0.950 . S
H673 C697 0.950 . S
H674 C698 0.950 . S
H675 C699 0.951 . S
H676 C701 0.951 . S
H677 C703 0.950 . S
H678 C704 0.950 . S
H679 C706 0.950 . S
H680 C709 0.950 . S
H681 C710 0.950 . S
H682 C712 0.950 . S
H683 C713 0.950 . S
C684 H666 0.951 . S
C684 C685 1.366 . S
C684 C686 1.388 . S
C685 C684 1.366 . S
C685 C689 1.385 . S
C686 H667 0.951 . S
C686 C684 1.388 . S
C686 C687 1.366 . S
C687 C686 1.366 . S
C687 C688 1.414 . S
C687 C690 1.499 . S
C688 H668 0.950 . S
C688 C687 1.414 . S
C688 C689 1.374 . S
C689 H669 0.950 . S
C689 C685 1.385 . S
C689 C688 1.374 . S
C690 C687 1.499 . S
C690 C691 1.373 . S
C690 C692 1.389 1_554 S
C691 H670 0.950 . S
C691 C690 1.373 . S
C691 C707 1.377 1_554 S
C692 C690 1.389 1_556 S
C692 C693 1.524 . S
C692 C706 1.377 . S
C693 C692 1.524 . S
C693 C694 1.397 1_556 S
C693 C698 1.363 . S
C694 H671 0.950 . S
C694 C693 1.397 1_554 S
C694 C695 1.334 . S
C695 H672 0.950 . S
C695 C694 1.334 . S
C695 C696 1.287 1_554 S
C696 C695 1.287 1_556 S
C696 C697 1.524 . S
C696 H715 0.913 . S
C697 H673 0.950 . S
C697 C696 1.524 . S
C697 C698 1.415 . S
C698 H674 0.950 . S
C698 C693 1.363 . S
C698 C697 1.415 . S
C699 H675 0.951 . S
C699 C700 1.366 . S
C699 C701 1.388 . S
C700 C699 1.366 . S
C700 C704 1.385 . S
C701 H676 0.951 . S
C701 C699 1.388 . S
C701 C702 1.366 . S
C702 C701 1.366 . S
C702 C703 1.414 . S
C702 C705 1.499 . S
C703 H677 0.950 . S
C703 C702 1.414 . S
C703 C704 1.374 . S
C704 H678 0.950 . S
C704 C700 1.385 . S
C704 C703 1.374 . S
C705 C702 1.499 . S
C705 C706 1.373 . S
C705 C707 1.389 . S
C706 H679 0.950 . S
C706 C692 1.377 . S
C706 C705 1.373 . S
C707 C691 1.377 1_556 S
C707 C705 1.389 . S
C707 C708 1.524 1_556 S
C708 C707 1.524 1_554 S
C708 C709 1.397 1_554 S
C708 C713 1.363 . S
C709 H680 0.950 . S
C709 C708 1.397 1_556 S
C709 C710 1.334 . S
C710 H681 0.950 . S
C710 C709 1.334 . S
C710 C711 1.287 1_556 S
C711 C710 1.287 1_554 S
C711 C712 1.524 . S
C711 H714 0.999 . S
C712 H682 0.950 . S
C712 C711 1.524 . S
C712 C713 1.415 . S
C713 H683 0.950 . S
C713 C708 1.363 . S
C713 C712 1.415 . S
H714 C711 0.999 . S
H715 C696 0.913 . S
H716 C734 0.951 . S
H717 C736 0.951 . S
H718 C738 0.950 . S
H719 C739 0.950 . S
H720 C741 0.950 . S
H721 C744 0.950 . S
H722 C745 0.950 . S
H723 C747 0.950 . S
H724 C748 0.950 . S
H725 C749 0.951 . S
H726 C751 0.951 . S
H727 C753 0.950 . S
H728 C754 0.950 . S
H729 C756 0.950 . S
H730 C759 0.950 . S
H731 C760 0.950 . S
H732 C762 0.950 . S
H733 C763 0.950 . S
C734 H716 0.951 . S
C734 C735 1.366 . S
C734 C736 1.388 . S
C735 C734 1.366 . S
C735 C739 1.385 . S
C736 H717 0.951 . S
C736 C734 1.388 . S
C736 C737 1.366 . S
C737 C736 1.366 . S
C737 C738 1.414 . S
C737 C740 1.499 . S
C738 H718 0.950 . S
C738 C737 1.414 . S
C738 C739 1.374 . S
C739 H719 0.950 . S
C739 C735 1.385 . S
C739 C738 1.374 . S
C740 C737 1.499 . S
C740 C741 1.373 1_554 S
C740 C742 1.389 . S
C741 H720 0.950 . S
C741 C740 1.373 1_556 S
C741 C757 1.377 . S
C742 C740 1.389 . S
C742 C743 1.524 . S
C742 C756 1.377 1_554 S
C743 C742 1.524 . S
C743 C744 1.397 . S
C743 C748 1.363 . S
C744 H721 0.950 . S
C744 C743 1.397 . S
C744 C745 1.334 . S
C745 H722 0.950 . S
C745 C744 1.334 . S
C745 C746 1.287 . S
C746 C745 1.287 . S
C746 C747 1.524 . S
C746 H765 0.913 . S
C747 H723 0.950 . S
C747 C746 1.524 . S
C747 C748 1.415 . S
C748 H724 0.950 . S
C748 C743 1.363 . S
C748 C747 1.415 . S
C749 H725 0.951 . S
C749 C750 1.366 . S
C749 C751 1.388 . S
C750 C749 1.366 . S
C750 C754 1.385 . S
C751 H726 0.951 . S
C751 C749 1.388 . S
C751 C752 1.366 . S
C752 C751 1.366 . S
C752 C753 1.414 . S
C752 C755 1.499 . S
C753 H727 0.950 . S
C753 C752 1.414 . S
C753 C754 1.374 . S
C754 H728 0.950 . S
C754 C750 1.385 . S
C754 C753 1.374 . S
C755 C752 1.499 . S
C755 C756 1.373 . S
C755 C757 1.389 . S
C756 H729 0.950 . S
C756 C742 1.377 1_556 S
C756 C755 1.373 . S
C757 C741 1.377 . S
C757 C755 1.389 . S
C757 C758 1.524 . S
C758 C757 1.524 . S
C758 C759 1.397 . S
C758 C763 1.363 . S
C759 H730 0.950 . S
C759 C758 1.397 . S
C759 C760 1.334 . S
C760 H731 0.950 . S
C760 C759 1.334 . S
C760 C761 1.287 . S
C761 C760 1.287 . S
C761 C762 1.524 . S
C761 H764 0.999 . S
C762 H732 0.950 . S
C762 C761 1.524 . S
C762 C763 1.415 . S
C763 H733 0.950 . S
C763 C758 1.363 . S
C763 C762 1.415 . S
H764 C761 0.999 . S
H765 C746 0.913 . S
H766 C784 0.951 . S
H767 C786 0.951 . S
H768 C788 0.950 . S
H769 C789 0.950 . S
H770 C791 0.950 . S
H771 C794 0.950 . S
H772 C795 0.950 . S
H773 C797 0.951 . S
H774 C798 0.950 . S
H775 C799 0.951 . S
H776 C801 0.951 . S
H777 C803 0.950 . S
H778 C804 0.950 . S
H779 C806 0.952 1_554 S
H780 C809 0.950 . S
H781 C810 0.950 . S
H782 C812 0.922 1_455 S
H783 C813 0.950 . S
C784 H766 0.951 . S
C784 C785 1.369 . S
C784 C786 1.388 . S
C785 C784 1.369 . S
C785 C789 1.381 1_655 S
C786 H767 0.951 . S
C786 C784 1.388 . S
C786 C787 1.351 1_655 S
C787 C786 1.351 1_455 S
C787 C788 1.428 . S
C787 C790 1.498 . S
C788 H768 0.950 . S
C788 C787 1.428 . S
C788 C789 1.374 . S
C789 H769 0.950 . S
C789 C785 1.381 1_455 S
C789 C788 1.374 . S
C790 C787 1.498 . S
C790 C791 1.368 1_454 S
C790 C792 1.393 . S
C791 H770 0.950 . S
C791 C790 1.368 1_656 S
C791 C807 1.377 . S
C792 C790 1.393 . S
C792 C793 1.524 . S
C792 C806 1.379 1_554 S
C793 C792 1.524 . S
C793 C794 1.397 . S
C793 C798 1.363 1_455 S
C794 H771 0.950 . S
C794 C793 1.397 . S
C794 C795 1.334 . S
C795 H772 0.950 . S
C795 C794 1.334 . S
C795 C796 1.287 . S
C796 C795 1.287 . S
C796 C797 1.522 1_455 S
C796 H815 0.913 . S
C797 H773 0.951 . S
C797 C796 1.522 1_655 S
C797 C798 1.415 . S
C798 H774 0.950 . S
C798 C793 1.363 1_655 S
C798 C797 1.415 . S
C799 H775 0.951 . S
C799 C800 1.337 1_455 S
C799 C801 1.388 . S
C800 C799 1.337 1_655 S
C800 C804 1.415 . S
C801 H776 0.951 . S
C801 C799 1.388 . S
C801 C802 1.366 1_455 S
C802 C801 1.366 1_655 S
C802 C803 1.414 . S
C802 C805 1.499 . S
C803 H777 0.950 . S
C803 C802 1.414 . S
C803 C804 1.374 . S
C804 H778 0.950 . S
C804 C800 1.415 . S
C804 C803 1.374 . S
C805 C802 1.499 . S
C805 C806 1.370 1_655 S
C805 C807 1.389 . S
C806 H779 0.952 1_556 S
C806 C792 1.379 1_556 S
C806 C805 1.370 1_455 S
C807 C791 1.377 . S
C807 C805 1.389 . S
C807 C808 1.524 . S
C808 C807 1.524 . S
C808 C809 1.397 . S
C808 C813 1.363 1_655 S
C809 H780 0.950 . S
C809 C808 1.397 . S
C809 C810 1.334 . S
C810 H781 0.950 . S
C810 C809 1.334 . S
C810 C811 1.287 . S
C811 C810 1.287 . S
C811 C812 1.568 . S
C811 H814 0.999 . S
C812 H782 0.922 1_655 S
C812 C811 1.568 . S
C812 C813 1.404 1_655 S
C813 H783 0.950 . S
C813 C808 1.363 1_455 S
C813 C812 1.404 1_455 S
H814 C811 0.999 . S
H815 C796 0.913 . S
H816 C834 0.951 . S
H817 C836 0.951 . S
H818 C838 0.950 . S
H819 C839 0.950 . S
H820 C841 0.950 . S
H821 C844 0.950 . S
H822 C845 0.950 . S
H823 C847 0.950 . S
H824 C848 0.950 . S
H825 C849 0.977 . S
H826 C851 0.951 1_455 S
H827 C853 0.950 . S
H828 C854 0.950 . S
H829 C856 0.950 . S
H830 C859 0.950 . S
H831 C860 0.950 . S
H832 C862 0.950 . S
H833 C863 0.950 . S
C834 H816 0.951 . S
C834 C835 1.366 1_655 S
C834 C836 1.388 . S
C835 C834 1.366 1_455 S
C835 C839 1.385 . S
C836 H817 0.951 . S
C836 C834 1.388 . S
C836 C837 1.366 . S
C837 C836 1.366 . S
C837 C838 1.414 1_655 S
C837 C840 1.499 . S
C838 H818 0.950 . S
C838 C837 1.414 1_455 S
C838 C839 1.374 . S
C839 H819 0.950 . S
C839 C835 1.385 . S
C839 C838 1.374 . S
C840 C837 1.499 . S
C840 C841 1.373 1_655 S
C840 C842 1.389 . S
C841 H820 0.950 . S
C841 C840 1.373 1_455 S
C841 C857 1.377 . S
C842 C840 1.389 . S
C842 C843 1.524 . S
C842 C856 1.377 . S
C843 C842 1.524 . S
C843 C844 1.397 . S
C843 C848 1.363 . S
C844 H821 0.950 . S
C844 C843 1.397 . S
C844 C845 1.334 . S
C845 H822 0.950 . S
C845 C844 1.334 . S
C845 C846 1.287 . S
C846 C845 1.287 . S
C846 C847 1.524 . S
C846 H865 0.913 . S
C847 H823 0.950 . S
C847 C846 1.524 . S
C847 C848 1.415 . S
C848 H824 0.950 . S
C848 C843 1.363 . S
C848 C847 1.415 . S
C849 H825 0.977 . S
C849 C850 1.366 . S
C849 C851 1.388 . S
C850 C849 1.366 . S
C850 C854 1.385 . S
C851 H826 0.951 1_655 S
C851 C849 1.388 . S
C851 C852 1.366 . S
C852 C851 1.366 . S
C852 C853 1.414 . S
C852 C855 1.499 . S
C853 H827 0.950 . S
C853 C852 1.414 . S
C853 C854 1.374 . S
C854 H828 0.950 . S
C854 C850 1.385 . S
C854 C853 1.374 . S
C855 C852 1.499 . S
C855 C856 1.373 . S
C855 C857 1.389 1_655 S
C856 H829 0.950 . S
C856 C842 1.377 . S
C856 C855 1.373 . S
C857 C841 1.377 . S
C857 C855 1.389 1_455 S
C857 C858 1.524 . S
C858 C857 1.524 . S
C858 C859 1.397 . S
C858 C863 1.363 . S
C859 H830 0.950 . S
C859 C858 1.397 . S
C859 C860 1.334 . S
C860 H831 0.950 . S
C860 C859 1.334 . S
C860 C861 1.287 . S
C861 C860 1.287 . S
C861 C862 1.524 . S
C861 H864 0.999 . S
C862 H832 0.950 . S
C862 C861 1.524 . S
C862 C863 1.415 . S
C863 H833 0.950 . S
C863 C858 1.363 . S
C863 C862 1.415 . S
H864 C861 0.999 . S
H865 C846 0.913 . S
H866 C884 0.951 . S
H867 C886 0.951 . S
H868 C888 0.950 . S
H869 C889 0.950 . S
H870 C891 0.950 . S
H871 C894 0.950 . S
H872 C895 0.950 . S
H873 C897 0.950 . S
H874 C898 0.950 . S
H875 C899 0.951 . S
H876 C901 0.951 . S
H877 C903 0.950 . S
H878 C904 0.950 . S
H879 C906 0.950 . S
H880 C909 0.950 . S
H881 C910 0.950 . S
H882 C912 0.950 . S
H883 C913 0.950 . S
C884 H866 0.951 . S
C884 C885 1.366 1_565 S
C884 C886 1.388 . S
C885 C884 1.366 1_545 S
C885 C889 1.385 . S
C886 H867 0.951 . S
C886 C884 1.388 . S
C886 C887 1.366 . S
C887 C886 1.366 . S
C887 C888 1.414 1_565 S
C887 C890 1.499 . S
C888 H868 0.950 . S
C888 C887 1.414 1_545 S
C888 C889 1.374 . S
C889 H869 0.950 . S
C889 C885 1.385 . S
C889 C888 1.374 . S
C890 C887 1.499 . S
C890 C891 1.373 1_565 S
C890 C892 1.389 . S
C891 H870 0.950 . S
C891 C890 1.373 1_545 S
C891 C907 1.377 . S
C892 C890 1.389 . S
C892 C893 1.524 . S
C892 C906 1.377 . S
C893 C892 1.524 . S
C893 C894 1.397 . S
C893 C898 1.363 . S
C894 H871 0.950 . S
C894 C893 1.397 . S
C894 C895 1.334 . S
C895 H872 0.950 . S
C895 C894 1.334 . S
C895 C896 1.287 . S
C896 C895 1.287 . S
C896 C897 1.524 . S
C896 H915 0.913 . S
C897 H873 0.950 . S
C897 C896 1.524 . S
C897 C898 1.415 . S
C898 H874 0.950 . S
C898 C893 1.363 . S
C898 C897 1.415 . S
C899 H875 0.951 . S
C899 C900 1.366 . S
C899 C901 1.388 . S
C900 C899 1.366 . S
C900 C904 1.385 . S
C901 H876 0.951 . S
C901 C899 1.388 . S
C901 C902 1.366 . S
C902 C901 1.366 . S
C902 C903 1.414 . S
C902 C905 1.499 . S
C903 H877 0.950 . S
C903 C902 1.414 . S
C903 C904 1.374 . S
C904 H878 0.950 . S
C904 C900 1.385 . S
C904 C903 1.374 . S
C905 C902 1.499 . S
C905 C906 1.373 . S
C905 C907 1.389 1_565 S
C906 H879 0.950 . S
C906 C892 1.377 . S
C906 C905 1.373 . S
C907 C891 1.377 . S
C907 C905 1.389 1_545 S
C907 C908 1.524 . S
C908 C907 1.524 . S
C908 C909 1.397 . S
C908 C913 1.363 . S
C909 H880 0.950 . S
C909 C908 1.397 . S
C909 C910 1.334 . S
C910 H881 0.950 . S
C910 C909 1.334 . S
C910 C911 1.287 . S
C911 C910 1.287 . S
C911 C912 1.524 . S
C911 H914 0.999 . S
C912 H882 0.950 . S
C912 C911 1.524 . S
C912 C913 1.415 . S
C913 H883 0.950 . S
C913 C908 1.363 . S
C913 C912 1.415 . S
H914 C911 0.999 . S
H915 C896 0.913 . S
H916 C934 0.951 . S
H917 C936 0.951 . S
H918 C938 0.950 . S
H919 C939 0.950 . S
H920 C941 0.950 . S
H921 C944 0.950 . S
H922 C945 0.950 . S
H923 C947 0.950 . S
H924 C948 0.950 . S
H925 C949 0.951 . S
H926 C951 0.951 . S
H927 C953 0.950 . S
H928 C954 0.950 . S
H929 C956 0.950 . S
H930 C959 0.950 . S
H931 C960 0.950 . S
H932 C962 0.950 . S
H933 C963 0.950 . S
C934 H916 0.951 . S
C934 C935 1.366 . S
C934 C936 1.388 . S
C935 C934 1.366 . S
C935 C939 1.385 . S
C936 H917 0.951 . S
C936 C934 1.388 . S
C936 C937 1.366 . S
C937 C936 1.366 . S
C937 C938 1.414 . S
C937 C940 1.499 . S
C938 H918 0.950 . S
C938 C937 1.414 . S
C938 C939 1.374 . S
C939 H919 0.950 . S
C939 C935 1.385 . S
C939 C938 1.374 . S
C940 C937 1.499 . S
C940 C941 1.373 . S
C940 C942 1.389 . S
C941 H920 0.950 . S
C941 C940 1.373 . S
C941 C957 1.377 . S
C942 C940 1.389 . S
C942 C943 1.524 . S
C942 C956 1.377 . S
C943 C942 1.524 . S
C943 C944 1.397 . S
C943 C948 1.363 . S
C944 H921 0.950 . S
C944 C943 1.397 . S
C944 C945 1.334 . S
C945 H922 0.950 . S
C945 C944 1.334 . S
C945 C946 1.287 . S
C946 C945 1.287 . S
C946 C947 1.524 . S
C946 H965 0.913 . S
C947 H923 0.950 . S
C947 C946 1.524 . S
C947 C948 1.415 . S
C948 H924 0.950 . S
C948 C943 1.363 . S
C948 C947 1.415 . S
C949 H925 0.951 . S
C949 C950 1.366 . S
C949 C951 1.388 . S
C950 C949 1.366 . S
C950 C954 1.385 . S
C951 H926 0.951 . S
C951 C949 1.388 . S
C951 C952 1.366 . S
C952 C951 1.366 . S
C952 C953 1.414 . S
C952 C955 1.499 . S
C953 H927 0.950 . S
C953 C952 1.414 . S
C953 C954 1.374 . S
C954 H928 0.950 . S
C954 C950 1.385 . S
C954 C953 1.374 . S
C955 C952 1.499 . S
C955 C956 1.373 . S
C955 C957 1.389 . S
C956 H929 0.950 . S
C956 C942 1.377 . S
C956 C955 1.373 . S
C957 C941 1.377 . S
C957 C955 1.389 . S
C957 C958 1.524 . S
C958 C957 1.524 . S
C958 C959 1.397 . S
C958 C963 1.363 . S
C959 H930 0.950 . S
C959 C958 1.397 . S
C959 C960 1.334 . S
C960 H931 0.950 . S
C960 C959 1.334 . S
C960 C961 1.287 . S
C961 C960 1.287 . S
C961 C962 1.524 . S
C961 H964 0.999 . S
C962 H932 0.950 . S
C962 C961 1.524 . S
C962 C963 1.415 . S
C963 H933 0.950 . S
C963 C958 1.363 . S
C963 C962 1.415 . S
H964 C961 0.999 . S
H965 C946 0.913 . S
H966 C984 0.951 . S
H967 C986 0.951 . S
H968 C988 0.950 . S
H969 C989 0.950 . S
H970 C991 0.950 . S
H971 C994 0.950 . S
H972 C995 0.950 . S
H973 C997 0.950 . S
H974 C998 0.950 . S
H975 C999 0.951 . S
H976 C1001 0.951 . S
H977 C1003 0.950 . S
H978 C1004 0.950 . S
H979 C1006 0.950 . S
H980 C1009 0.950 . S
H981 C1010 0.950 . S
H982 C1012 0.950 . S
H983 C1013 0.950 . S
C984 H966 0.951 . S
C984 C985 1.366 . S
C984 C986 1.388 . S
C985 C984 1.366 . S
C985 C989 1.385 . S
C986 H967 0.951 . S
C986 C984 1.388 . S
C986 C987 1.366 . S
C987 C986 1.366 . S
C987 C988 1.414 . S
C987 C990 1.499 . S
C988 H968 0.950 . S
C988 C987 1.414 . S
C988 C989 1.374 . S
C989 H969 0.950 . S
C989 C985 1.385 . S
C989 C988 1.374 . S
C990 C987 1.499 . S
C990 C991 1.373 . S
C990 C992 1.389 . S
C991 H970 0.950 . S
C991 C990 1.373 . S
C991 C1007 1.377 . S
C992 C990 1.389 . S
C992 C993 1.524 . S
C992 C1006 1.377 . S
C993 C992 1.524 . S
C993 C994 1.397 . S
C993 C998 1.363 . S
C994 H971 0.950 . S
C994 C993 1.397 . S
C994 C995 1.334 . S
C995 H972 0.950 . S
C995 C994 1.334 . S
C995 C996 1.287 . S
C996 C995 1.287 . S
C996 C997 1.524 . S
C996 H1015 0.913 . S
C997 H973 0.950 . S
C997 C996 1.524 . S
C997 C998 1.415 . S
C998 H974 0.950 . S
C998 C993 1.363 . S
C998 C997 1.415 . S
C999 H975 0.951 . S
C999 C1000 1.366 . S
C999 C1001 1.388 . S
C1000 C999 1.366 . S
C1000 C1004 1.385 . S
C1001 H976 0.951 . S
C1001 C999 1.388 . S
C1001 C1002 1.366 . S
C1002 C1001 1.366 . S
C1002 C1003 1.414 . S
C1002 C1005 1.499 . S
C1003 H977 0.950 . S
C1003 C1002 1.414 . S
C1003 C1004 1.374 . S
C1004 H978 0.950 . S
C1004 C1000 1.385 . S
C1004 C1003 1.374 . S
C1005 C1002 1.499 . S
C1005 C1006 1.373 . S
C1005 C1007 1.389 . S
C1006 H979 0.950 . S
C1006 C992 1.377 . S
C1006 C1005 1.373 . S
C1007 C991 1.377 . S
C1007 C1005 1.389 . S
C1007 C1008 1.524 . S
C1008 C1007 1.524 . S
C1008 C1009 1.397 . S
C1008 C1013 1.363 . S
C1009 H980 0.950 . S
C1009 C1008 1.397 . S
C1009 C1010 1.334 . S
C1010 H981 0.950 . S
C1010 C1009 1.334 . S
C1010 C1011 1.287 . S
C1011 C1010 1.287 . S
C1011 C1012 1.524 . S
C1011 H1014 0.999 . S
C1012 H982 0.950 . S
C1012 C1011 1.524 . S
C1012 C1013 1.415 . S
C1013 H983 0.950 . S
C1013 C1008 1.363 . S
C1013 C1012 1.415 . S
H1014 C1011 0.999 . S
H1015 C996 0.913 . S
H1016 C1034 0.951 . S
H1017 C1036 0.951 . S
H1018 C1038 0.950 . S
H1019 C1039 0.950 . S
H1020 C1041 0.950 . S
H1021 C1044 0.950 1_554 S
H1022 C1045 0.950 . S
H1023 C1047 0.950 1_655 S
H1024 C1048 0.950 1_655 S
H1025 C1049 0.951 . S
H1026 C1051 0.951 . S
H1027 C1053 0.950 1_655 S
H1028 C1054 0.950 . S
H1029 C1056 0.950 . S
H1030 C1059 0.950 . S
H1031 C1060 0.950 . S
H1032 C1062 0.950 . S
H1033 C1063 0.950 . S
C1034 H1016 0.951 . S
C1034 C1035 1.366 . S
C1034 C1036 1.388 . S
C1035 C1034 1.366 . S
C1035 C1039 1.385 1_655 S
C1036 H1017 0.951 . S
C1036 C1034 1.388 . S
C1036 C1037 1.366 1_655 S
C1037 C1036 1.366 1_455 S
C1037 C1038 1.414 . S
C1037 C1040 1.499 . S
C1038 H1018 0.950 . S
C1038 C1037 1.414 . S
C1038 C1039 1.374 . S
C1039 H1019 0.950 . S
C1039 C1035 1.385 1_455 S
C1039 C1038 1.374 . S
C1040 C1037 1.499 . S
C1040 C1041 1.373 . S
C1040 C1042 1.389 1_554 S
C1041 H1020 0.950 . S
C1041 C1040 1.373 . S
C1041 C1057 1.377 . S
C1042 C1040 1.389 1_556 S
C1042 C1043 1.524 . S
C1042 C1056 1.377 . S
C1043 C1042 1.524 . S
C1043 C1044 1.397 . S
C1043 C1048 1.363 . S
C1044 H1021 0.950 1_556 S
C1044 C1043 1.397 . S
C1044 C1045 1.334 . S
C1045 H1022 0.950 . S
C1045 C1044 1.334 . S
C1045 C1046 1.287 . S
C1046 C1045 1.287 . S
C1046 C1047 1.524 . S
C1046 H1065 0.913 . S
C1047 H1023 0.950 1_455 S
C1047 C1046 1.524 . S
C1047 C1048 1.415 . S
C1048 H1024 0.950 1_455 S
C1048 C1043 1.363 . S
C1048 C1047 1.415 . S
C1049 H1025 0.951 . S
C1049 C1050 1.366 . S
C1049 C1051 1.388 . S
C1050 C1049 1.366 . S
C1050 C1054 1.385 . S
C1051 H1026 0.951 . S
C1051 C1049 1.388 . S
C1051 C1052 1.366 . S
C1052 C1051 1.366 . S
C1052 C1053 1.414 . S
C1052 C1055 1.499 . S
C1053 H1027 0.950 1_455 S
C1053 C1052 1.414 . S
C1053 C1054 1.374 . S
C1054 H1028 0.950 . S
C1054 C1050 1.385 . S
C1054 C1053 1.374 . S
C1055 C1052 1.499 . S
C1055 C1056 1.373 . S
C1055 C1057 1.389 1_556 S
C1056 H1029 0.950 . S
C1056 C1042 1.377 . S
C1056 C1055 1.373 . S
C1057 C1041 1.377 . S
C1057 C1055 1.389 1_554 S
C1057 C1058 1.524 . S
C1058 C1057 1.524 . S
C1058 C1059 1.397 1_455 S
C1058 C1063 1.363 . S
C1059 H1030 0.950 . S
C1059 C1058 1.397 1_655 S
C1059 C1060 1.334 . S
C1060 H1031 0.950 . S
C1060 C1059 1.334 . S
C1060 C1061 1.287 1_655 S
C1061 C1060 1.287 1_455 S
C1061 C1062 1.524 . S
C1061 H1064 0.999 . S
C1062 H1032 0.950 . S
C1062 C1061 1.524 . S
C1062 C1063 1.415 . S
C1063 H1033 0.950 . S
C1063 C1058 1.363 . S
C1063 C1062 1.415 . S
H1064 C1061 0.999 . S
H1065 C1046 0.913 . S
H1066 C1084 0.951 . S
H1067 C1086 0.951 . S
H1068 C1088 0.950 . S
H1069 C1089 0.950 . S
H1070 C1091 0.950 1_556 S
H1071 C1094 0.950 . S
H1072 C1095 0.950 . S
H1073 C1097 0.950 . S
H1074 C1098 0.950 . S
H1075 C1099 0.951 . S
H1076 C1101 0.951 . S
H1077 C1103 0.950 1_554 S
H1078 C1104 0.950 . S
H1079 C1106 0.950 1_565 S
H1080 C1109 0.950 . S
H1081 C1110 0.950 . S
H1082 C1112 0.950 . S
H1083 C1113 0.950 . S
C1084 H1066 0.951 . S
C1084 C1085 1.366 1_545 S
C1084 C1086 1.388 . S
C1085 C1084 1.366 1_565 S
C1085 C1089 1.385 . S
C1086 H1067 0.951 . S
C1086 C1084 1.388 . S
C1086 C1087 1.366 . S
C1087 C1086 1.366 . S
C1087 C1088 1.414 . S
C1087 C1090 1.499 . S
C1088 H1068 0.950 . S
C1088 C1087 1.414 . S
C1088 C1089 1.374 1_545 S
C1089 H1069 0.950 . S
C1089 C1085 1.385 . S
C1089 C1088 1.374 1_565 S
C1090 C1087 1.499 . S
C1090 C1091 1.373 . S
C1090 C1092 1.389 1_545 S
C1091 H1070 0.950 1_554 S
C1091 C1090 1.373 . S
C1091 C1107 1.377 1_554 S
C1092 C1090 1.389 1_565 S
C1092 C1093 1.524 . S
C1092 C1106 1.377 1_565 S
C1093 C1092 1.524 . S
C1093 C1094 1.397 . S
C1093 C1098 1.363 . S
C1094 H1071 0.950 . S
C1094 C1093 1.397 . S
C1094 C1095 1.334 . S
C1095 H1072 0.950 . S
C1095 C1094 1.334 . S
C1095 C1096 1.287 . S
C1096 C1095 1.287 . S
C1096 C1097 1.524 . S
C1096 H1115 0.913 . S
C1097 H1073 0.950 . S
C1097 C1096 1.524 . S
C1097 C1098 1.415 . S
C1098 H1074 0.950 . S
C1098 C1093 1.363 . S
C1098 C1097 1.415 . S
C1099 H1075 0.951 . S
C1099 C1100 1.366 . S
C1099 C1101 1.388 . S
C1100 C1099 1.366 . S
C1100 C1104 1.385 . S
C1101 H1076 0.951 . S
C1101 C1099 1.388 . S
C1101 C1102 1.366 . S
C1102 C1101 1.366 . S
C1102 C1103 1.414 . S
C1102 C1105 1.499 . S
C1103 H1077 0.950 1_556 S
C1103 C1102 1.414 . S
C1103 C1104 1.374 . S
C1104 H1078 0.950 . S
C1104 C1100 1.385 . S
C1104 C1103 1.374 . S
C1105 C1102 1.499 . S
C1105 C1106 1.373 1_556 S
C1105 C1107 1.389 . S
C1106 H1079 0.950 1_545 S
C1106 C1092 1.377 1_545 S
C1106 C1105 1.373 1_554 S
C1107 C1091 1.377 1_556 S
C1107 C1105 1.389 . S
C1107 C1108 1.524 . S
C1108 C1107 1.524 . S
C1108 C1109 1.397 . S
C1108 C1113 1.363 . S
C1109 H1080 0.950 . S
C1109 C1108 1.397 . S
C1109 C1110 1.334 . S
C1110 H1081 0.950 . S
C1110 C1109 1.334 . S
C1110 C1111 1.287 . S
C1111 C1110 1.287 . S
C1111 C1112 1.524 . S
C1111 H1114 0.999 . S
C1112 H1082 0.950 . S
C1112 C1111 1.524 . S
C1112 C1113 1.415 . S
C1113 H1083 0.950 . S
C1113 C1108 1.363 . S
C1113 C1112 1.415 . S
H1114 C1111 0.999 . S
H1115 C1096 0.913 . S
H1116 C1134 0.951 . S
H1117 C1136 0.951 . S
H1118 C1138 0.950 . S
H1119 C1139 0.950 . S
H1120 C1141 0.950 . S
H1121 C1144 0.950 . S
H1122 C1145 0.950 . S
H1123 C1147 0.950 1_556 S
H1124 C1148 0.950 1_556 S
H1125 C1149 0.951 . S
H1126 C1151 0.934 1_554 S
H1127 C1153 0.950 . S
H1128 C1154 0.950 . S
H1129 C1156 0.950 . S
H1130 C1159 0.950 . S
H1131 C1160 0.950 . S
H1132 C1162 0.950 . S
H1133 C1163 0.950 . S
C1134 H1116 0.951 . S
C1134 C1135 1.366 . S
C1134 C1136 1.388 . S
C1135 C1134 1.366 . S
C1135 C1139 1.385 . S
C1136 H1117 0.951 . S
C1136 C1134 1.388 . S
C1136 C1137 1.366 . S
C1137 C1136 1.366 . S
C1137 C1138 1.414 . S
C1137 C1140 1.499 . S
C1138 H1118 0.950 . S
C1138 C1137 1.414 . S
C1138 C1139 1.374 . S
C1139 H1119 0.950 . S
C1139 C1135 1.385 . S
C1139 C1138 1.374 . S
C1140 C1137 1.499 . S
C1140 C1141 1.373 . S
C1140 C1142 1.389 . S
C1141 H1120 0.950 . S
C1141 C1140 1.373 . S
C1141 C1157 1.377 . S
C1142 C1140 1.389 . S
C1142 C1143 1.524 . S
C1142 C1156 1.377 1_554 S
C1143 C1142 1.524 . S
C1143 C1144 1.397 . S
C1143 C1148 1.363 . S
C1144 H1121 0.950 . S
C1144 C1143 1.397 . S
C1144 C1145 1.334 . S
C1145 H1122 0.950 . S
C1145 C1144 1.334 . S
C1145 C1146 1.287 . S
C1146 C1145 1.287 . S
C1146 C1147 1.524 . S
C1146 H1165 0.913 . S
C1147 H1123 0.950 1_554 S
C1147 C1146 1.524 . S
C1147 C1148 1.415 . S
C1148 H1124 0.950 1_554 S
C1148 C1143 1.363 . S
C1148 C1147 1.415 . S
C1149 H1125 0.951 . S
C1149 C1150 1.366 . S
C1149 C1151 1.388 . S
C1150 C1149 1.366 . S
C1150 C1154 1.385 . S
C1151 H1126 0.934 1_556 S
C1151 C1149 1.388 . S
C1151 C1152 1.366 . S
C1152 C1151 1.366 . S
C1152 C1153 1.414 . S
C1152 C1155 1.499 . S
C1153 H1127 0.950 . S
C1153 C1152 1.414 . S
C1153 C1154 1.374 . S
C1154 H1128 0.950 . S
C1154 C1150 1.385 . S
C1154 C1153 1.374 . S
C1155 C1152 1.499 . S
C1155 C1156 1.373 . S
C1155 C1157 1.389 1_556 S
C1156 H1129 0.950 . S
C1156 C1142 1.377 1_556 S
C1156 C1155 1.373 . S
C1157 C1141 1.377 . S
C1157 C1155 1.389 1_554 S
C1157 C1158 1.524 1_554 S
C1158 C1157 1.524 1_556 S
C1158 C1159 1.397 . S
C1158 C1163 1.363 1_556 S
C1159 H1130 0.950 . S
C1159 C1158 1.397 . S
C1159 C1160 1.334 . S
C1160 H1131 0.950 . S
C1160 C1159 1.334 . S
C1160 C1161 1.287 . S
C1161 C1160 1.287 . S
C1161 C1162 1.524 1_556 S
C1161 H1164 0.999 . S
C1162 H1132 0.950 . S
C1162 C1161 1.524 1_554 S
C1162 C1163 1.415 . S
C1163 H1133 0.950 . S
C1163 C1158 1.363 1_554 S
C1163 C1162 1.415 . S
H1164 C1161 0.999 . S
H1165 C1146 0.913 . S
H1166 C1184 0.951 . S
H1167 C1186 0.951 . S
H1168 C1188 0.950 . S
H1169 C1189 0.950 . S
H1170 C1191 0.950 . S
H1171 C1194 0.950 . S
H1172 C1195 0.950 . S
H1173 C1197 0.950 . S
H1174 C1198 0.950 . S
H1175 C1199 0.951 . S
H1176 C1201 0.951 1_554 S
H1177 C1203 0.950 . S
H1178 C1204 0.950 . S
H1179 C1206 0.950 . S
H1180 C1209 0.950 . S
H1181 C1210 0.950 . S
H1182 C1212 0.950 . S
H1183 C1213 0.950 . S
C1184 H1166 0.951 . S
C1184 C1185 1.366 . S
C1184 C1186 1.388 . S
C1185 C1184 1.366 . S
C1185 C1189 1.385 . S
C1186 H1167 0.951 . S
C1186 C1184 1.388 . S
C1186 C1187 1.366 . S
C1187 C1186 1.366 . S
C1187 C1188 1.414 . S
C1187 C1190 1.499 . S
C1188 H1168 0.950 . S
C1188 C1187 1.414 . S
C1188 C1189 1.374 . S
C1189 H1169 0.950 . S
C1189 C1185 1.385 . S
C1189 C1188 1.374 . S
C1190 C1187 1.499 . S
C1190 C1191 1.373 . S
C1190 C1192 1.389 . S
C1191 H1170 0.950 . S
C1191 C1190 1.373 . S
C1191 C1207 1.377 . S
C1192 C1190 1.389 . S
C1192 C1193 1.524 . S
C1192 C1206 1.377 1_554 S
C1193 C1192 1.524 . S
C1193 C1194 1.397 . S
C1193 C1198 1.363 1_554 S
C1194 H1171 0.950 . S
C1194 C1193 1.397 . S
C1194 C1195 1.334 . S
C1195 H1172 0.950 . S
C1195 C1194 1.334 . S
C1195 C1196 1.287 . S
C1196 C1195 1.287 . S
C1196 C1197 1.524 1_554 S
C1196 H1215 0.913 . S
C1197 H1173 0.950 . S
C1197 C1196 1.524 1_556 S
C1197 C1198 1.415 . S
C1198 H1174 0.950 . S
C1198 C1193 1.363 1_556 S
C1198 C1197 1.415 . S
C1199 H1175 0.951 . S
C1199 C1200 1.366 . S
C1199 C1201 1.388 . S
C1200 C1199 1.366 . S
C1200 C1204 1.385 . S
C1201 H1176 0.951 1_556 S
C1201 C1199 1.388 . S
C1201 C1202 1.366 . S
C1202 C1201 1.366 . S
C1202 C1203 1.414 . S
C1202 C1205 1.499 . S
C1203 H1177 0.950 . S
C1203 C1202 1.414 . S
C1203 C1204 1.374 . S
C1204 H1178 0.950 . S
C1204 C1200 1.385 . S
C1204 C1203 1.374 . S
C1205 C1202 1.499 . S
C1205 C1206 1.373 . S
C1205 C1207 1.389 1_556 S
C1206 H1179 0.950 . S
C1206 C1192 1.377 1_556 S
C1206 C1205 1.373 . S
C1207 C1191 1.377 . S
C1207 C1205 1.389 1_554 S
C1207 C1208 1.524 . S
C1208 C1207 1.524 . S
C1208 C1209 1.397 1_554 S
C1208 C1213 1.363 . S
C1209 H1180 0.950 . S
C1209 C1208 1.397 1_556 S
C1209 C1210 1.334 . S
C1210 H1181 0.950 . S
C1210 C1209 1.334 . S
C1210 C1211 1.287 . S
C1211 C1210 1.287 . S
C1211 C1212 1.524 1_556 S
C1211 H1214 0.999 . S
C1212 H1182 0.950 . S
C1212 C1211 1.524 1_554 S
C1212 C1213 1.415 . S
C1213 H1183 0.950 . S
C1213 C1208 1.363 . S
C1213 C1212 1.415 . S
H1214 C1211 0.999 . S
H1215 C1196 0.913 . S
H1216 C1234 0.951 . S
H1217 C1236 0.951 . S
H1218 C1238 0.950 . S
H1219 C1239 0.950 . S
H1220 C1241 0.955 . S
H1221 C1244 0.950 . S
H1222 C1245 0.950 . S
H1223 C1247 0.950 . S
H1224 C1248 0.937 1_655 S
H1225 C1249 0.951 . S
H1226 C1251 0.951 . S
H1227 C1253 0.950 . S
H1228 C1254 0.950 . S
H1229 C1256 0.950 . S
H1230 C1259 0.950 . S
H1231 C1260 0.950 . S
H1232 C1262 0.950 . S
H1233 C1263 0.950 1_455 S
C1234 H1216 0.951 . S
C1234 C1235 1.366 1_655 S
C1234 C1236 1.388 . S
C1235 C1234 1.366 1_455 S
C1235 C1239 1.385 . S
C1236 H1217 0.951 . S
C1236 C1234 1.388 . S
C1236 C1237 1.366 1_655 S
C1237 C1236 1.366 1_455 S
C1237 C1238 1.414 . S
C1237 C1240 1.499 . S
C1238 H1218 0.950 . S
C1238 C1237 1.414 . S
C1238 C1239 1.374 . S
C1239 H1219 0.950 . S
C1239 C1235 1.385 . S
C1239 C1238 1.374 . S
C1240 C1237 1.499 . S
C1240 C1241 1.368 1_455 S
C1240 C1242 1.389 . S
C1241 H1220 0.955 . S
C1241 C1240 1.368 1_655 S
C1241 C1257 1.376 . S
C1242 C1240 1.389 . S
C1242 C1243 1.524 . S
C1242 C1256 1.377 . S
C1243 C1242 1.524 . S
C1243 C1244 1.397 . S
C1243 C1248 1.363 . S
C1244 H1221 0.950 . S
C1244 C1243 1.397 . S
C1244 C1245 1.334 . S
C1245 H1222 0.950 . S
C1245 C1244 1.334 . S
C1245 C1246 1.281 1_556 S
C1246 C1245 1.281 1_554 S
C1246 C1247 1.525 . S
C1246 H1265 0.919 . S
C1247 H1223 0.950 . S
C1247 C1246 1.525 . S
C1247 C1248 1.415 1_554 S
C1248 H1224 0.937 1_455 S
C1248 C1243 1.363 . S
C1248 C1247 1.415 1_556 S
C1249 H1225 0.951 . S
C1249 C1250 1.366 . S
C1249 C1251 1.388 . S
C1250 C1249 1.366 . S
C1250 C1254 1.385 1_455 S
C1251 H1226 0.951 . S
C1251 C1249 1.388 . S
C1251 C1252 1.366 . S
C1252 C1251 1.366 . S
C1252 C1253 1.414 1_455 S
C1252 C1255 1.499 . S
C1253 H1227 0.950 . S
C1253 C1252 1.414 1_655 S
C1253 C1254 1.374 . S
C1254 H1228 0.950 . S
C1254 C1250 1.385 1_655 S
C1254 C1253 1.374 . S
C1255 C1252 1.499 . S
C1255 C1256 1.373 . S
C1255 C1257 1.376 1_455 S
C1256 H1229 0.950 . S
C1256 C1242 1.377 . S
C1256 C1255 1.373 . S
C1257 C1241 1.376 . S
C1257 C1255 1.376 1_655 S
C1257 C1258 1.546 . S
C1258 C1257 1.546 . S
C1258 C1259 1.397 . S
C1258 C1263 1.363 . S
C1259 H1230 0.950 . S
C1259 C1258 1.397 . S
C1259 C1260 1.334 . S
C1260 H1231 0.950 . S
C1260 C1259 1.334 . S
C1260 C1261 1.287 . S
C1261 C1260 1.287 . S
C1261 C1262 1.524 . S
C1261 H1264 0.999 . S
C1262 H1232 0.950 . S
C1262 C1261 1.524 . S
C1262 C1263 1.415 . S
C1263 H1233 0.950 1_655 S
C1263 C1258 1.363 . S
C1263 C1262 1.415 . S
H1264 C1261 0.999 . S
H1265 C1246 0.919 . S
H1266 C1284 0.951 . S
H1267 C1286 0.951 . S
H1268 C1288 0.950 . S
H1269 C1289 0.950 . S
H1270 C1291 0.950 . S
H1271 C1294 0.950 . S
H1272 C1295 0.950 . S
H1273 C1297 0.950 1_545 S
H1274 C1298 0.950 . S
H1275 C1299 0.951 . S
H1276 C1301 0.951 . S
H1277 C1303 0.950 . S
H1278 C1304 0.950 . S
H1279 C1306 0.950 . S
H1280 C1309 0.950 . S
H1281 C1310 0.950 . S
H1282 C1312 0.950 1_554 S
H1283 C1313 0.950 1_565 S
C1284 H1266 0.951 . S
C1284 C1285 1.366 . S
C1284 C1286 1.388 . S
C1285 C1284 1.366 . S
C1285 C1289 1.385 1_545 S
C1286 H1267 0.951 . S
C1286 C1284 1.388 . S
C1286 C1287 1.366 . S
C1287 C1286 1.366 . S
C1287 C1288 1.414 1_545 S
C1287 C1290 1.499 . S
C1288 H1268 0.950 . S
C1288 C1287 1.414 1_565 S
C1288 C1289 1.374 . S
C1289 H1269 0.950 . S
C1289 C1285 1.385 1_565 S
C1289 C1288 1.374 . S
C1290 C1287 1.499 . S
C1290 C1291 1.373 . S
C1290 C1292 1.391 . S
C1291 H1270 0.950 . S
C1291 C1290 1.373 . S
C1291 C1307 1.377 . S
C1292 C1290 1.391 . S
C1292 C1293 1.520 1_545 S
C1292 C1306 1.378 . S
C1293 C1292 1.520 1_565 S
C1293 C1294 1.397 . S
C1293 C1298 1.363 1_565 S
C1294 H1271 0.950 . S
C1294 C1293 1.397 . S
C1294 C1295 1.334 . S
C1295 H1272 0.950 . S
C1295 C1294 1.334 . S
C1295 C1296 1.287 . S
C1296 C1295 1.287 . S
C1296 C1297 1.524 . S
C1296 H1315 0.913 . S
C1297 H1273 0.950 1_565 S
C1297 C1296 1.524 . S
C1297 C1298 1.415 1_565 S
C1298 H1274 0.950 . S
C1298 C1293 1.363 1_545 S
C1298 C1297 1.415 1_545 S
C1299 H1275 0.951 . S
C1299 C1300 1.366 1_565 S
C1299 C1301 1.388 . S
C1300 C1299 1.366 1_545 S
C1300 C1304 1.385 . S
C1301 H1276 0.951 . S
C1301 C1299 1.388 . S
C1301 C1302 1.366 1_565 S
C1302 C1301 1.366 1_545 S
C1302 C1303 1.414 . S
C1302 C1305 1.499 . S
C1303 H1277 0.950 . S
C1303 C1302 1.414 . S
C1303 C1304 1.374 . S
C1304 H1278 0.950 . S
C1304 C1300 1.385 . S
C1304 C1303 1.374 . S
C1305 C1302 1.499 . S
C1305 C1306 1.373 . S
C1305 C1307 1.389 . S
C1306 H1279 0.950 . S
C1306 C1292 1.378 . S
C1306 C1305 1.373 . S
C1307 C1291 1.377 . S
C1307 C1305 1.389 . S
C1307 C1308 1.524 . S
C1308 C1307 1.524 . S
C1308 C1309 1.397 . S
C1308 C1313 1.363 . S
C1309 H1280 0.950 . S
C1309 C1308 1.397 . S
C1309 C1310 1.334 . S
C1310 H1281 0.950 . S
C1310 C1309 1.334 . S
C1310 C1311 1.287 . S
C1311 C1310 1.287 . S
C1311 C1312 1.524 . S
C1311 H1314 0.999 1_556 S
C1312 H1282 0.950 1_556 S
C1312 C1311 1.524 . S
C1312 C1313 1.415 . S
C1313 H1283 0.950 1_545 S
C1313 C1308 1.363 . S
C1313 C1312 1.415 . S
H1314 C1311 0.999 1_554 S
H1315 C1296 0.913 . S
H1316 C1334 0.951 . S
H1317 C1336 0.951 . S
H1318 C1338 0.950 . S
H1319 C1339 0.950 . S
H1320 C1341 0.950 . S
H1321 C1344 0.950 . S
H1322 C1345 0.950 . S
H1323 C1347 0.950 . S
H1324 C1348 0.950 . S
H1325 C1349 0.951 . S
H1326 C1351 0.951 . S
H1327 C1353 0.950 . S
H1328 C1354 0.950 . S
H1329 C1356 0.950 . S
H1330 C1359 0.950 . S
H1331 C1360 0.950 . S
H1332 C1362 0.950 . S
H1333 C1363 0.950 . S
C1334 H1316 0.951 . S
C1334 C1335 1.366 . S
C1334 C1336 1.388 . S
C1335 C1334 1.366 . S
C1335 C1339 1.385 . S
C1336 H1317 0.951 . S
C1336 C1334 1.388 . S
C1336 C1337 1.366 . S
C1337 C1336 1.366 . S
C1337 C1338 1.414 . S
C1337 C1340 1.499 . S
C1338 H1318 0.950 . S
C1338 C1337 1.414 . S
C1338 C1339 1.374 . S
C1339 H1319 0.950 . S
C1339 C1335 1.385 . S
C1339 C1338 1.374 . S
C1340 C1337 1.499 . S
C1340 C1341 1.373 . S
C1340 C1342 1.389 . S
C1341 H1320 0.950 . S
C1341 C1340 1.373 . S
C1341 C1357 1.377 . S
C1342 C1340 1.389 . S
C1342 C1343 1.524 . S
C1342 C1356 1.377 . S
C1343 C1342 1.524 . S
C1343 C1344 1.397 . S
C1343 C1348 1.363 . S
C1344 H1321 0.950 . S
C1344 C1343 1.397 . S
C1344 C1345 1.334 . S
C1345 H1322 0.950 . S
C1345 C1344 1.334 . S
C1345 C1346 1.287 . S
C1346 C1345 1.287 . S
C1346 C1347 1.524 . S
C1346 H1365 0.913 . S
C1347 H1323 0.950 . S
C1347 C1346 1.524 . S
C1347 C1348 1.415 . S
C1348 H1324 0.950 . S
C1348 C1343 1.363 . S
C1348 C1347 1.415 . S
C1349 H1325 0.951 . S
C1349 C1350 1.366 . S
C1349 C1351 1.388 . S
C1350 C1349 1.366 . S
C1350 C1354 1.385 . S
C1351 H1326 0.951 . S
C1351 C1349 1.388 . S
C1351 C1352 1.366 . S
C1352 C1351 1.366 . S
C1352 C1353 1.414 . S
C1352 C1355 1.499 . S
C1353 H1327 0.950 . S
C1353 C1352 1.414 . S
C1353 C1354 1.374 . S
C1354 H1328 0.950 . S
C1354 C1350 1.385 . S
C1354 C1353 1.374 . S
C1355 C1352 1.499 . S
C1355 C1356 1.373 . S
C1355 C1357 1.389 . S
C1356 H1329 0.950 . S
C1356 C1342 1.377 . S
C1356 C1355 1.373 . S
C1357 C1341 1.377 . S
C1357 C1355 1.389 . S
C1357 C1358 1.524 . S
C1358 C1357 1.524 . S
C1358 C1359 1.397 . S
C1358 C1363 1.363 . S
C1359 H1330 0.950 . S
C1359 C1358 1.397 . S
C1359 C1360 1.334 . S
C1360 H1331 0.950 . S
C1360 C1359 1.334 . S
C1360 C1361 1.287 . S
C1361 C1360 1.287 . S
C1361 C1362 1.524 . S
C1361 H1364 0.999 . S
C1362 H1332 0.950 . S
C1362 C1361 1.524 . S
C1362 C1363 1.415 . S
C1363 H1333 0.950 . S
C1363 C1358 1.363 . S
C1363 C1362 1.415 . S
H1364 C1361 0.999 . S
H1365 C1346 0.913 . S
H1366 C1384 0.951 . S
H1367 C1386 0.951 . S
H1368 C1388 0.950 . S
H1369 C1389 0.950 . S
H1370 C1391 0.950 . S
H1371 C1394 0.950 . S
H1372 C1395 0.950 . S
H1373 C1397 0.950 . S
H1374 C1398 0.950 . S
H1375 C1399 0.951 . S
H1376 C1401 0.951 . S
H1377 C1403 0.950 . S
H1378 C1404 0.950 . S
H1379 C1406 0.950 . S
H1380 C1409 0.950 . S
H1381 C1410 0.950 . S
H1382 C1412 0.950 1_554 S
H1383 C1413 0.950 . S
C1384 H1366 0.951 . S
C1384 C1385 1.366 . S
C1384 C1386 1.388 . S
C1385 C1384 1.366 . S
C1385 C1389 1.385 . S
C1386 H1367 0.951 . S
C1386 C1384 1.388 . S
C1386 C1387 1.366 . S
C1387 C1386 1.366 . S
C1387 C1388 1.414 . S
C1387 C1390 1.499 . S
C1388 H1368 0.950 . S
C1388 C1387 1.414 . S
C1388 C1389 1.374 . S
C1389 H1369 0.950 . S
C1389 C1385 1.385 . S
C1389 C1388 1.374 . S
C1390 C1387 1.499 . S
C1390 C1391 1.373 . S
C1390 C1392 1.389 . S
C1391 H1370 0.950 . S
C1391 C1390 1.373 . S
C1391 C1407 1.377 . S
C1392 C1390 1.389 . S
C1392 C1393 1.524 . S
C1392 C1406 1.377 . S
C1393 C1392 1.524 . S
C1393 C1394 1.397 . S
C1393 C1398 1.363 . S
C1394 H1371 0.950 . S
C1394 C1393 1.397 . S
C1394 C1395 1.334 . S
C1395 H1372 0.950 . S
C1395 C1394 1.334 . S
C1395 C1396 1.287 . S
C1396 C1395 1.287 . S
C1396 C1397 1.524 . S
C1396 H1415 0.913 . S
C1397 H1373 0.950 . S
C1397 C1396 1.524 . S
C1397 C1398 1.415 . S
C1398 H1374 0.950 . S
C1398 C1393 1.363 . S
C1398 C1397 1.415 . S
C1399 H1375 0.951 . S
C1399 C1400 1.366 . S
C1399 C1401 1.388 . S
C1400 C1399 1.366 . S
C1400 C1404 1.385 . S
C1401 H1376 0.951 . S
C1401 C1399 1.388 . S
C1401 C1402 1.366 . S
C1402 C1401 1.366 . S
C1402 C1403 1.414 . S
C1402 C1405 1.499 . S
C1403 H1377 0.950 . S
C1403 C1402 1.414 . S
C1403 C1404 1.374 . S
C1404 H1378 0.950 . S
C1404 C1400 1.385 . S
C1404 C1403 1.374 . S
C1405 C1402 1.499 . S
C1405 C1406 1.373 . S
C1405 C1407 1.389 . S
C1406 H1379 0.950 . S
C1406 C1392 1.377 . S
C1406 C1405 1.373 . S
C1407 C1391 1.377 . S
C1407 C1405 1.389 . S
C1407 C1408 1.524 . S
C1408 C1407 1.524 . S
C1408 C1409 1.397 . S
C1408 C1413 1.363 . S
C1409 H1380 0.950 . S
C1409 C1408 1.397 . S
C1409 C1410 1.334 . S
C1410 H1381 0.950 . S
C1410 C1409 1.334 . S
C1410 C1411 1.287 . S
C1411 C1410 1.287 . S
C1411 C1412 1.524 . S
C1411 H1414 0.999 . S
C1412 H1382 0.950 1_556 S
C1412 C1411 1.524 . S
C1412 C1413 1.415 . S
C1413 H1383 0.950 . S
C1413 C1408 1.363 . S
C1413 C1412 1.415 . S
H1414 C1411 0.999 . S
H1415 C1396 0.913 . S
H1416 C1434 0.951 . S
H1417 C1436 0.951 . S
H1418 C1438 0.950 . S
H1419 C1439 0.950 . S
H1420 C1441 0.950 . S
H1421 C1444 0.950 . S
H1422 C1445 0.950 . S
H1423 C1447 0.950 . S
H1424 C1448 0.950 . S
H1425 C1449 0.951 . S
H1426 C1451 0.951 . S
H1427 C1453 0.970 . S
H1428 C1454 0.947 1_455 S
H1429 C1456 0.950 . S
H1430 C1459 0.950 . S
H1431 C1460 0.950 . S
H1432 C1462 0.950 . S
H1433 C1463 0.930 1_655 S
C1434 H1416 0.951 . S
C1434 C1435 1.366 1_455 S
C1434 C1436 1.388 . S
C1435 C1434 1.366 1_655 S
C1435 C1439 1.385 . S
C1436 H1417 0.951 . S
C1436 C1434 1.388 . S
C1436 C1437 1.366 1_455 S
C1437 C1436 1.366 1_655 S
C1437 C1438 1.414 . S
C1437 C1440 1.499 . S
C1438 H1418 0.950 . S
C1438 C1437 1.414 . S
C1438 C1439 1.374 . S
C1439 H1419 0.950 . S
C1439 C1435 1.385 . S
C1439 C1438 1.374 . S
C1440 C1437 1.499 . S
C1440 C1441 1.373 1_655 S
C1440 C1442 1.389 . S
C1441 H1420 0.950 . S
C1441 C1440 1.373 1_455 S
C1441 C1457 1.377 . S
C1442 C1440 1.389 . S
C1442 C1443 1.524 . S
C1442 C1456 1.377 . S
C1443 C1442 1.524 . S
C1443 C1444 1.397 . S
C1443 C1448 1.363 . S
C1444 H1421 0.950 . S
C1444 C1443 1.397 . S
C1444 C1445 1.334 . S
C1445 H1422 0.950 . S
C1445 C1444 1.334 . S
C1445 C1446 1.287 . S
C1446 C1445 1.287 . S
C1446 C1447 1.524 . S
C1446 H1465 0.913 . S
C1447 H1423 0.950 . S
C1447 C1446 1.524 . S
C1447 C1448 1.415 . S
C1448 H1424 0.950 . S
C1448 C1443 1.363 . S
C1448 C1447 1.415 . S
C1449 H1425 0.951 . S
C1449 C1450 1.366 . S
C1449 C1451 1.388 . S
C1450 C1449 1.366 . S
C1450 C1454 1.388 . S
C1451 H1426 0.951 . S
C1451 C1449 1.388 . S
C1451 C1452 1.366 . S
C1452 C1451 1.366 . S
C1452 C1453 1.399 1_655 S
C1452 C1455 1.499 . S
C1453 H1427 0.970 . S
C1453 C1452 1.399 1_455 S
C1453 C1454 1.372 1_455 S
C1454 H1428 0.947 1_655 S
C1454 C1450 1.388 . S
C1454 C1453 1.372 1_655 S
C1455 C1452 1.499 . S
C1455 C1456 1.373 . S
C1455 C1457 1.389 1_655 S
C1456 H1429 0.950 . S
C1456 C1442 1.377 . S
C1456 C1455 1.373 . S
C1457 C1441 1.377 . S
C1457 C1455 1.389 1_455 S
C1457 C1458 1.524 . S
C1458 C1457 1.524 . S
C1458 C1459 1.397 . S
C1458 C1463 1.363 . S
C1459 H1430 0.950 . S
C1459 C1458 1.397 . S
C1459 C1460 1.334 . S
C1460 H1431 0.950 . S
C1460 C1459 1.334 . S
C1460 C1461 1.287 . S
C1461 C1460 1.287 . S
C1461 C1462 1.524 . S
C1461 H1464 0.999 . S
C1462 H1432 0.950 . S
C1462 C1461 1.524 . S
C1462 C1463 1.415 . S
C1463 H1433 0.930 1_455 S
C1463 C1458 1.363 . S
C1463 C1462 1.415 . S
H1464 C1461 0.999 . S
H1465 C1446 0.913 . S
H1466 C1484 0.951 . S
H1467 C1486 0.951 . S
H1468 C1488 0.950 . S
H1469 C1489 0.950 . S
H1470 C1491 0.950 . S
H1471 C1494 0.950 . S
H1472 C1495 0.950 . S
H1473 C1497 0.950 . S
H1474 C1498 0.950 . S
H1475 C1499 0.951 . S
H1476 C1501 0.951 . S
H1477 C1503 0.950 . S
H1478 C1504 0.950 . S
H1479 C1506 0.950 . S
H1480 C1509 0.950 . S
H1481 C1510 0.950 . S
H1482 C1512 0.950 . S
H1483 C1513 0.950 . S
C1484 H1466 0.951 . S
C1484 C1485 1.339 1_545 S
C1484 C1486 1.388 . S
C1485 C1484 1.339 1_565 S
C1485 C1489 1.415 . S
C1486 H1467 0.951 . S
C1486 C1484 1.388 . S
C1486 C1487 1.366 1_545 S
C1487 C1486 1.366 1_565 S
C1487 C1488 1.414 . S
C1487 C1490 1.499 . S
C1488 H1468 0.950 . S
C1488 C1487 1.414 . S
C1488 C1489 1.374 . S
C1489 H1469 0.950 . S
C1489 C1485 1.415 . S
C1489 C1488 1.374 . S
C1490 C1487 1.499 . S
C1490 C1491 1.373 . S
C1490 C1492 1.389 1_565 S
C1491 H1470 0.950 . S
C1491 C1490 1.373 . S
C1491 C1507 1.377 . S
C1492 C1490 1.389 1_545 S
C1492 C1493 1.524 . S
C1492 C1506 1.377 . S
C1493 C1492 1.524 . S
C1493 C1494 1.397 . S
C1493 C1498 1.363 . S
C1494 H1471 0.950 . S
C1494 C1493 1.397 . S
C1494 C1495 1.334 . S
C1495 H1472 0.950 . S
C1495 C1494 1.334 . S
C1495 C1496 1.287 . S
C1496 C1495 1.287 . S
C1496 C1497 1.524 . S
C1496 H1515 0.913 . S
C1497 H1473 0.950 . S
C1497 C1496 1.524 . S
C1497 C1498 1.415 . S
C1498 H1474 0.950 . S
C1498 C1493 1.363 . S
C1498 C1497 1.415 . S
C1499 H1475 0.951 . S
C1499 C1500 1.366 . S
C1499 C1501 1.388 . S
C1500 C1499 1.366 . S
C1500 C1504 1.385 1_565 S
C1501 H1476 0.951 . S
C1501 C1499 1.388 . S
C1501 C1502 1.366 . S
C1502 C1501 1.366 . S
C1502 C1503 1.414 1_565 S
C1502 C1505 1.499 . S
C1503 H1477 0.950 . S
C1503 C1502 1.414 1_545 S
C1503 C1504 1.374 . S
C1504 H1478 0.950 . S
C1504 C1500 1.385 1_545 S
C1504 C1503 1.374 . S
C1505 C1502 1.499 . S
C1505 C1506 1.373 1_565 S
C1505 C1507 1.389 . S
C1506 H1479 0.950 . S
C1506 C1492 1.377 . S
C1506 C1505 1.373 1_545 S
C1507 C1491 1.377 . S
C1507 C1505 1.389 . S
C1507 C1508 1.524 . S
C1508 C1507 1.524 . S
C1508 C1509 1.397 . S
C1508 C1513 1.363 . S
C1509 H1480 0.950 . S
C1509 C1508 1.397 . S
C1509 C1510 1.334 . S
C1510 H1481 0.950 . S
C1510 C1509 1.334 . S
C1510 C1511 1.287 . S
C1511 C1510 1.287 . S
C1511 C1512 1.524 . S
C1511 H1514 0.999 . S
C1512 H1482 0.950 . S
C1512 C1511 1.524 . S
C1512 C1513 1.415 . S
C1513 H1483 0.950 . S
C1513 C1508 1.363 . S
C1513 C1512 1.415 . S
H1514 C1511 0.999 . S
H1515 C1496 0.913 . S
H1516 C1534 0.951 . S
H1517 C1536 0.951 . S
H1518 C1538 0.950 . S
H1519 C1539 0.950 . S
H1520 C1541 0.950 . S
H1521 C1544 0.950 . S
H1522 C1545 0.950 . S
H1523 C1547 0.950 . S
H1524 C1548 0.950 . S
H1525 C1549 0.951 . S
H1526 C1551 0.951 . S
H1527 C1553 0.950 . S
H1528 C1554 0.950 . S
H1529 C1556 0.950 . S
H1530 C1559 0.950 . S
H1531 C1560 0.950 . S
H1532 C1562 0.950 . S
H1533 C1563 0.950 . S
C1534 H1516 0.951 . S
C1534 C1535 1.366 . S
C1534 C1536 1.388 . S
C1535 C1534 1.366 . S
C1535 C1539 1.385 . S
C1536 H1517 0.951 . S
C1536 C1534 1.388 . S
C1536 C1537 1.366 . S
C1537 C1536 1.366 . S
C1537 C1538 1.414 . S
C1537 C1540 1.499 . S
C1538 H1518 0.950 . S
C1538 C1537 1.414 . S
C1538 C1539 1.374 . S
C1539 H1519 0.950 . S
C1539 C1535 1.385 . S
C1539 C1538 1.374 . S
C1540 C1537 1.499 . S
C1540 C1541 1.373 . S
C1540 C1542 1.389 . S
C1541 H1520 0.950 . S
C1541 C1540 1.373 . S
C1541 C1557 1.377 . S
C1542 C1540 1.389 . S
C1542 C1543 1.524 . S
C1542 C1556 1.377 . S
C1543 C1542 1.524 . S
C1543 C1544 1.397 . S
C1543 C1548 1.363 . S
C1544 H1521 0.950 . S
C1544 C1543 1.397 . S
C1544 C1545 1.334 . S
C1545 H1522 0.950 . S
C1545 C1544 1.334 . S
C1545 C1546 1.287 . S
C1546 C1545 1.287 . S
C1546 C1547 1.524 . S
C1546 H1565 0.913 . S
C1547 H1523 0.950 . S
C1547 C1546 1.524 . S
C1547 C1548 1.415 . S
C1548 H1524 0.950 . S
C1548 C1543 1.363 . S
C1548 C1547 1.415 . S
C1549 H1525 0.951 . S
C1549 C1550 1.366 . S
C1549 C1551 1.388 . S
C1550 C1549 1.366 . S
C1550 C1554 1.385 . S
C1551 H1526 0.951 . S
C1551 C1549 1.388 . S
C1551 C1552 1.366 . S
C1552 C1551 1.366 . S
C1552 C1553 1.414 . S
C1552 C1555 1.499 . S
C1553 H1527 0.950 . S
C1553 C1552 1.414 . S
C1553 C1554 1.374 . S
C1554 H1528 0.950 . S
C1554 C1550 1.385 . S
C1554 C1553 1.374 . S
C1555 C1552 1.499 . S
C1555 C1556 1.373 . S
C1555 C1557 1.389 . S
C1556 H1529 0.950 . S
C1556 C1542 1.377 . S
C1556 C1555 1.373 . S
C1557 C1541 1.377 . S
C1557 C1555 1.389 . S
C1557 C1558 1.524 . S
C1558 C1557 1.524 . S
C1558 C1559 1.397 . S
C1558 C1563 1.363 . S
C1559 H1530 0.950 . S
C1559 C1558 1.397 . S
C1559 C1560 1.334 . S
C1560 H1531 0.950 . S
C1560 C1559 1.334 . S
C1560 C1561 1.287 . S
C1561 C1560 1.287 . S
C1561 C1562 1.524 . S
C1561 H1564 0.999 . S
C1562 H1532 0.950 . S
C1562 C1561 1.524 . S
C1562 C1563 1.415 . S
C1563 H1533 0.950 . S
C1563 C1558 1.363 . S
C1563 C1562 1.415 . S
H1564 C1561 0.999 . S
H1565 C1546 0.913 . S
H1566 C1584 0.951 . S
H1567 C1586 0.951 . S
H1568 C1588 0.950 . S
H1569 C1589 0.950 . S
H1570 C1591 0.950 . S
H1571 C1594 0.950 . S
H1572 C1595 0.950 . S
H1573 C1597 0.950 . S
H1574 C1598 0.950 . S
H1575 C1599 0.951 . S
H1576 C1601 0.951 . S
H1577 C1603 0.950 . S
H1578 C1604 0.950 . S
H1579 C1606 0.950 . S
H1580 C1609 0.950 . S
H1581 C1610 0.950 . S
H1582 C1612 0.950 . S
H1583 C1613 0.950 . S
C1584 H1566 0.951 . S
C1584 C1585 1.366 . S
C1584 C1586 1.388 . S
C1585 C1584 1.366 . S
C1585 C1589 1.385 . S
C1586 H1567 0.951 . S
C1586 C1584 1.388 . S
C1586 C1587 1.366 . S
C1587 C1586 1.366 . S
C1587 C1588 1.414 . S
C1587 C1590 1.499 . S
C1588 H1568 0.950 . S
C1588 C1587 1.414 . S
C1588 C1589 1.374 . S
C1589 H1569 0.950 . S
C1589 C1585 1.385 . S
C1589 C1588 1.374 . S
C1590 C1587 1.499 . S
C1590 C1591 1.373 . S
C1590 C1592 1.389 . S
C1591 H1570 0.950 . S
C1591 C1590 1.373 . S
C1591 C1607 1.377 . S
C1592 C1590 1.389 . S
C1592 C1593 1.524 . S
C1592 C1606 1.377 . S
C1593 C1592 1.524 . S
C1593 C1594 1.397 . S
C1593 C1598 1.363 . S
C1594 H1571 0.950 . S
C1594 C1593 1.397 . S
C1594 C1595 1.334 . S
C1595 H1572 0.950 . S
C1595 C1594 1.334 . S
C1595 C1596 1.287 . S
C1596 C1595 1.287 . S
C1596 C1597 1.524 . S
C1596 H1615 0.913 . S
C1597 H1573 0.950 . S
C1597 C1596 1.524 . S
C1597 C1598 1.415 . S
C1598 H1574 0.950 . S
C1598 C1593 1.363 . S
C1598 C1597 1.415 . S
C1599 H1575 0.951 . S
C1599 C1600 1.366 . S
C1599 C1601 1.388 . S
C1600 C1599 1.366 . S
C1600 C1604 1.385 . S
C1601 H1576 0.951 . S
C1601 C1599 1.388 . S
C1601 C1602 1.366 . S
C1602 C1601 1.366 . S
C1602 C1603 1.414 . S
C1602 C1605 1.499 . S
C1603 H1577 0.950 . S
C1603 C1602 1.414 . S
C1603 C1604 1.374 . S
C1604 H1578 0.950 . S
C1604 C1600 1.385 . S
C1604 C1603 1.374 . S
C1605 C1602 1.499 . S
C1605 C1606 1.373 . S
C1605 C1607 1.389 . S
C1606 H1579 0.950 . S
C1606 C1592 1.377 . S
C1606 C1605 1.373 . S
C1607 C1591 1.377 . S
C1607 C1605 1.389 . S
C1607 C1608 1.524 . S
C1608 C1607 1.524 . S
C1608 C1609 1.397 . S
C1608 C1613 1.363 . S
C1609 H1580 0.950 . S
C1609 C1608 1.397 . S
C1609 C1610 1.334 . S
C1610 H1581 0.950 . S
C1610 C1609 1.334 . S
C1610 C1611 1.287 . S
C1611 C1610 1.287 . S
C1611 C1612 1.524 . S
C1611 H1614 0.999 . S
C1612 H1582 0.950 . S
C1612 C1611 1.524 . S
C1612 C1613 1.415 . S
C1613 H1583 0.950 . S
C1613 C1608 1.363 . S
C1613 C1612 1.415 . S
H1614 C1611 0.999 . S
H1615 C1596 0.913 . S
C435 C215 1.836 . S
C450 C274 1.946 1_545 S
C500 C314 1.955 . S
C485 C247 1.831 . S
C550 C354 1.956 . S
C535 C151 1.838 . S
C600 C394 1.952 1_455 S
C585 C183 1.837 . S
C650 C264 1.951 1_565 S
C635 C87 1.839 . S
C685 C119 1.842 . S
C700 C304 1.960 . S
C735 C23 1.843 . S
C750 C344 1.956 . S
C785 C55 1.837 1_655 S
C800 C384 1.951 1_655 S
C850 C261 0.238 . S
C835 C189 0.228 . S
C900 C301 0.239 . S
C885 C221 0.232 . S
C950 C341 0.238 . S
C935 C253 0.240 . S
C985 C157 0.239 . S
C1000 C381 0.230 . S
C1035 C61 0.420 1_655 S
C1050 C271 0.229 . S
C1100 C311 0.235 . S
C1085 C93 0.403 1_565 S
C1150 C351 0.238 . S
C1135 C125 0.414 . S
C1185 C29 0.415 . S
C1200 C391 0.241 . S
C1235 C177 2.247 . S
C1250 C265 2.466 . S
C1285 C209 2.234 . S
C1300 C305 2.461 . S
C1350 C345 2.455 . S
C1335 C241 2.227 . S
C1400 C385 2.466 . S
C1385 C145 2.231 . S
C1435 C49 2.261 1_655 S
C1450 C275 2.481 . S
C1500 C315 2.462 . S
C1485 C81 2.242 1_565 S
C1550 C355 2.455 . S
C1535 C113 2.246 . S
C1585 C17 2.257 . S
C1600 C395 2.473 . S
