# Generated by pormake.
# Topology nom, (4,4)-cn, num edge types: 1
# Building blocks:
#     Node 0, Type 0, BuildingBlock: AZAVOO_clean_linker_0, # of connection points: 4
#     Node 1, Type 0, BuildingBlock: AZAVOO_clean_linker_0, # of connection points: 4
#     Node 2, Type 0, BuildingBlock: AZAVOO_clean_linker_0, # of connection points: 4
#     Node 3, Type 0, BuildingBlock: AZAVOO_clean_linker_0, # of connection points: 4
#     Node 4, Type 0, BuildingBlock: AZAVOO_clean_linker_0, # of connection points: 4
#     Node 5, Type 0, BuildingBlock: AZAVOO_clean_linker_0, # of connection points: 4
#     Node 6, Type 1, BuildingBlock: KUFVIS_clean_sbu_0, # of connection points: 4
#     Node 7, Type 1, BuildingBlock: KUFVIS_clean_sbu_0, # of connection points: 4
#     Node 8, Type 1, BuildingBlock: KUFVIS_clean_sbu_0, # of connection points: 4
#     Node 9, Type 1, BuildingBlock: KUFVIS_clean_sbu_0, # of connection points: 4
#     Node 10, Type 1, BuildingBlock: KUFVIS_clean_sbu_0, # of connection points: 4
#     Node 11, Type 1, BuildingBlock: KUFVIS_clean_sbu_0, # of connection points: 4
#     Edge 12, Type (0, 1), BuildingBlock: XUDNAN_clean_linker_2, # of connection points: 2
#     Edge 13, Type (0, 1), BuildingBlock: XUDNAN_clean_linker_2, # of connection points: 2
#     Edge 14, Type (0, 1), BuildingBlock: XUDNAN_clean_linker_2, # of connection points: 2
#     Edge 15, Type (0, 1), BuildingBlock: XUDNAN_clean_linker_2, # of connection points: 2
#     Edge 16, Type (0, 1), BuildingBlock: XUDNAN_clean_linker_2, # of connection points: 2
#     Edge 17, Type (0, 1), BuildingBlock: XUDNAN_clean_linker_2, # of connection points: 2
#     Edge 18, Type (0, 1), BuildingBlock: XUDNAN_clean_linker_2, # of connection points: 2
#     Edge 19, Type (0, 1), BuildingBlock: XUDNAN_clean_linker_2, # of connection points: 2
#     Edge 20, Type (0, 1), BuildingBlock: XUDNAN_clean_linker_2, # of connection points: 2
#     Edge 21, Type (0, 1), BuildingBlock: XUDNAN_clean_linker_2, # of connection points: 2
#     Edge 22, Type (0, 1), BuildingBlock: XUDNAN_clean_linker_2, # of connection points: 2
#     Edge 23, Type (0, 1), BuildingBlock: XUDNAN_clean_linker_2, # of connection points: 2
#     Edge 24, Type (0, 1), BuildingBlock: XUDNAN_clean_linker_2, # of connection points: 2
#     Edge 25, Type (0, 1), BuildingBlock: XUDNAN_clean_linker_2, # of connection points: 2
#     Edge 26, Type (0, 1), BuildingBlock: XUDNAN_clean_linker_2, # of connection points: 2
#     Edge 27, Type (0, 1), BuildingBlock: XUDNAN_clean_linker_2, # of connection points: 2
#     Edge 28, Type (0, 1), BuildingBlock: XUDNAN_clean_linker_2, # of connection points: 2
#     Edge 29, Type (0, 1), BuildingBlock: XUDNAN_clean_linker_2, # of connection points: 2
#     Edge 30, Type (0, 1), BuildingBlock: XUDNAN_clean_linker_2, # of connection points: 2
#     Edge 31, Type (0, 1), BuildingBlock: XUDNAN_clean_linker_2, # of connection points: 2
#     Edge 32, Type (0, 1), BuildingBlock: XUDNAN_clean_linker_2, # of connection points: 2
#     Edge 33, Type (0, 1), BuildingBlock: XUDNAN_clean_linker_2, # of connection points: 2
#     Edge 34, Type (0, 1), BuildingBlock: XUDNAN_clean_linker_2, # of connection points: 2
#     Edge 35, Type (0, 1), BuildingBlock: XUDNAN_clean_linker_2, # of connection points: 2
# Relax obj value: 0.143
# Max RMSD: 0.225
# Mean RMSD: 0.145
data_MOF--net-nom--node1-KUFVIS_clean_sbu_0--node2-AZAVOO_clean_linker_0--edge1-XUDNAN_clean_linker_2
_symmetry_space_group_name_H-M    P1
_symmetry_Int_Tables_number       1
_symmetry_cell_setting            triclinic
loop_
_symmetry_equiv_pos_as_xyz
'x, y, z'
_cell_length_a     47.660908
_cell_length_b     49.812712
_cell_length_c     59.920213
_cell_angle_alpha  90.723975
_cell_angle_beta   90.673451
_cell_angle_gamma 121.38796
loop_
_atom_site_label
_atom_site_type_symbol
_atom_site_fract_x
_atom_site_fract_y
_atom_site_fract_z
_atom_type_partial_charge
H0 H 0.07923 0.50277 0.17155 0.0
H1 H 0.22593 0.63796 0.40898 0.0
H2 H 0.99022 0.45688 0.28422 0.0
H3 H 0.96244 0.44021 0.24764 0.0
H4 H 0.98617 0.53505 0.23606 0.0
H5 H 0.01263 0.55134 0.27317 0.0
H6 H 0.05401 0.48161 0.26691 0.0
H7 H 0.06279 0.48144 0.22676 0.0
H8 H 0.09572 0.58035 0.22523 0.0
H9 H 0.0864 0.58004 0.26536 0.0
H10 H 0.11986 0.51635 0.29276 0.0
H11 H 0.17756 0.5429 0.28144 0.0
H12 H 0.18955 0.63272 0.29912 0.0
H13 H 0.13202 0.60619 0.30991 0.0
H14 H 0.11118 0.51541 0.34835 0.0
H15 H 0.15944 0.53843 0.37347 0.0
H16 H 0.15802 0.62444 0.3778 0.0
H17 H 0.11001 0.60122 0.35252 0.0
H18 H 0.03266 0.48333 0.36655 0.0
H19 H 0.04046 0.48876 0.40728 0.0
H20 H 0.05717 0.58244 0.40469 0.0
H21 H 0.0489 0.57683 0.36403 0.0
H22 H 0.9691 0.45698 0.32041 0.0
H23 H 0.91228 0.4378 0.32989 0.0
H24 H 0.94017 0.53206 0.35128 0.0
H25 H 0.99602 0.55129 0.3393 0.0
O26 O 0.07664 0.50353 0.1875 0.0
O27 O 0.09489 0.55471 0.18777 0.0
O28 O 0.2066 0.58363 0.39613 0.0
O29 O 0.20622 0.62792 0.39964 0.0
C30 C 0.02861 0.51724 0.29937 0.0
C31 C 0.06164 0.5302 0.29295 0.0
C32 C 0.08719 0.54374 0.30913 0.0
C33 C 0.07981 0.54358 0.33183 0.0
C34 C 0.04684 0.53055 0.33834 0.0
C35 C 0.02108 0.51758 0.32211 0.0
C36 C 0.00286 0.50518 0.28155 0.0
C37 C 0.98761 0.47361 0.27443 0.0
C38 C 0.97218 0.46422 0.25342 0.0
C39 C 0.97255 0.48648 0.23912 0.0
C40 C 0.9857 0.51756 0.24688 0.0
C41 C 0.00043 0.52676 0.2681 0.0
C42 C 0.0695 0.5308 0.26897 0.0
C43 C 0.06326 0.50323 0.25787 0.0
C44 C 0.06827 0.50321 0.23494 0.0
C45 C 0.07986 0.53086 0.22277 0.0
C46 C 0.08674 0.55864 0.2341 0.0
C47 C 0.08159 0.55858 0.25701 0.0
C48 C 0.12193 0.5594 0.30226 0.0
C49 C 0.13504 0.54175 0.29413 0.0
C50 C 0.16787 0.55688 0.28774 0.0
C51 C 0.18804 0.58979 0.28968 0.0
C52 C 0.17474 0.60729 0.29788 0.0
C53 C 0.14192 0.59222 0.30396 0.0
C54 C 0.107 0.55657 0.34879 0.0
C55 C 0.12113 0.53908 0.35497 0.0
C56 C 0.14875 0.55233 0.36924 0.0
C57 C 0.16275 0.58339 0.3775 0.0
C58 C 0.14794 0.60053 0.37169 0.0
C59 C 0.12038 0.58726 0.35738 0.0
C60 C 0.0401 0.52965 0.36243 0.0
C61 C 0.03624 0.50435 0.37489 0.0
C62 C 0.04075 0.50747 0.39806 0.0
C63 C 0.04917 0.53592 0.40887 0.0
C64 C 0.05015 0.56016 0.39661 0.0
C65 C 0.04539 0.55695 0.37348 0.0
C66 C 0.98669 0.50562 0.32883 0.0
C67 C 0.96271 0.47356 0.32665 0.0
C68 C 0.93023 0.46255 0.33254 0.0
C69 C 0.92117 0.48324 0.34144 0.0
C70 C 0.94565 0.51534 0.34401 0.0
C71 C 0.97788 0.52642 0.3375 0.0
C72 C 0.08436 0.53057 0.19831 0.0
C73 C 0.19312 0.59817 0.39168 0.0
H74 H 0.49149 0.0367 0.33821 0.0
H75 H 0.54552 0.17531 0.58827 0.0
H76 H 0.49259 0.96637 0.45696 0.0
H77 H 0.48407 0.93845 0.42137 0.0
H78 H 0.39541 0.9401 0.40935 0.0
H79 H 0.40436 0.9683 0.44497 0.0
H80 H 0.51648 0.02702 0.43264 0.0
H81 H 0.51479 0.0315 0.39209 0.0
H82 H 0.43142 0.04322 0.39812 0.0
H83 H 0.43314 0.03824 0.43866 0.0
H84 H 0.55283 0.08928 0.46927 0.0
H85 H 0.58261 0.14499 0.45976 0.0
H86 H 0.49147 0.14408 0.45991 0.0
H87 H 0.46184 0.08816 0.4695 0.0
H88 H 0.55263 0.07552 0.51655 0.0
H89 H 0.57948 0.11786 0.54476 0.0
H90 H 0.49045 0.12047 0.54945 0.0
H91 H 0.464 0.07825 0.52107 0.0
H92 H 0.52317 0.0061 0.52545 0.0
H93 H 0.54751 0.02162 0.56287 0.0
H94 H 0.46949 0.03625 0.58247 0.0
H95 H 0.44446 0.01936 0.5451 0.0
H96 H 0.49217 0.9579 0.50261 0.0
H97 H 0.46763 0.90426 0.51594 0.0
H98 H 0.37192 0.89434 0.51449 0.0
H99 H 0.39716 0.9487 0.50204 0.0
O100 O 0.49226 0.03584 0.35432 0.0
O101 O 0.45067 0.04361 0.35836 0.0
O102 O 0.58082 0.15661 0.57374 0.0
O103 O 0.53582 0.15923 0.5766 0.0
C104 C 0.46065 0.99531 0.47039 0.0
C105 C 0.47405 0.02644 0.46278 0.0
C106 C 0.48825 0.05201 0.47808 0.0
C107 C 0.4895 0.04663 0.50099 0.0
C108 C 0.47631 0.01562 0.50871 0.0
C109 C 0.46144 0.98983 0.49344 0.0
C110 C 0.44911 0.96937 0.45355 0.0
C111 C 0.47051 0.95939 0.44714 0.0
C112 C 0.46571 0.94361 0.42668 0.0
C113 C 0.43941 0.93761 0.41232 0.0
C114 C 0.41625 0.94493 0.41985 0.0
C115 C 0.42104 0.96062 0.44033 0.0
C116 C 0.47492 0.03229 0.43851 0.0
C117 C 0.49805 0.03081 0.42516 0.0
C118 C 0.49697 0.03329 0.40201 0.0
C119 C 0.47288 0.03758 0.39185 0.0
C120 C 0.45025 0.03987 0.4054 0.0
C121 C 0.45127 0.03722 0.42855 0.0
C122 C 0.50525 0.08478 0.47006 0.0
C123 C 0.53928 0.10104 0.46697 0.0
C124 C 0.55622 0.13285 0.46167 0.0
C125 C 0.53939 0.14895 0.45923 0.0
C126 C 0.50504 0.13224 0.46152 0.0
C127 C 0.48811 0.1004 0.46702 0.0
C128 C 0.50639 0.07381 0.51691 0.0
C129 C 0.53909 0.08546 0.52359 0.0
C130 C 0.5543 0.10955 0.53975 0.0
C131 C 0.53699 0.12234 0.54953 0.0
C132 C 0.50442 0.11105 0.54235 0.0
C133 C 0.48928 0.08703 0.52611 0.0
C134 C 0.48199 0.01154 0.53251 0.0
C135 C 0.51007 0.01057 0.53818 0.0
C136 C 0.52429 0.01999 0.55951 0.0
C137 C 0.51083 0.03088 0.5754 0.0
C138 C 0.48038 0.02792 0.5706 0.0
C139 C 0.46597 0.01817 0.54925 0.0
C140 C 0.44649 0.95725 0.50153 0.0
C141 C 0.46599 0.94427 0.50546 0.0
C142 C 0.4518 0.91347 0.51289 0.0
C143 C 0.41768 0.8948 0.51625 0.0
C144 C 0.39828 0.90809 0.51241 0.0
C145 C 0.41259 0.93904 0.50511 0.0
C146 C 0.4712 0.03927 0.36719 0.0
C147 C 0.55266 0.14711 0.56731 0.0
H148 H 0.54316 0.50295 0.79655 0.0
H149 H 0.57795 0.39544 0.5511 0.0
H150 H 0.54858 0.5661 0.67585 0.0
H151 H 0.54613 0.59332 0.70905 0.0
H152 H 0.44797 0.51532 0.72112 0.0
H153 H 0.45134 0.48777 0.68802 0.0
H154 H 0.56732 0.52411 0.70107 0.0
H155 H 0.56721 0.52193 0.74187 0.0
H156 H 0.46943 0.43912 0.73848 0.0
H157 H 0.46987 0.44174 0.69767 0.0
H158 H 0.5925 0.48985 0.66462 0.0
H159 H 0.61371 0.45662 0.67617 0.0
H160 H 0.5142 0.37767 0.6812 0.0
H161 H 0.49326 0.4113 0.66981 0.0
H162 H 0.59228 0.51016 0.61811 0.0
H163 H 0.61631 0.49131 0.59085 0.0
H164 H 0.52654 0.40003 0.5893 0.0
H165 H 0.50286 0.41922 0.61666 0.0
H166 H 0.56451 0.55312 0.6095 0.0
H167 H 0.58887 0.56059 0.57273 0.0
H168 H 0.51112 0.46724 0.55238 0.0
H169 H 0.48664 0.46013 0.58911 0.0
H170 H 0.52929 0.5726 0.63332 0.0
H171 H 0.49763 0.59612 0.62091 0.0
H172 H 0.40986 0.50342 0.61655 0.0
H173 H 0.44183 0.4804 0.62825 0.0
O174 O 0.5432 0.50268 0.78039 0.0
O175 O 0.49375 0.4591 0.77774 0.0
O176 O 0.61466 0.4508 0.56343 0.0
O177 O 0.5694 0.40319 0.5624 0.0
C178 C 0.50634 0.50596 0.66362 0.0
C179 C 0.5174 0.48663 0.67208 0.0
C180 C 0.52888 0.47235 0.65742 0.0
C181 C 0.53052 0.47841 0.6344 0.0
C182 C 0.51866 0.49716 0.62584 0.0
C183 C 0.50561 0.51012 0.64044 0.0
C184 C 0.5001 0.5251 0.67953 0.0
C185 C 0.5261 0.55541 0.68523 0.0
C186 C 0.52464 0.57088 0.7043 0.0
C187 C 0.49697 0.55638 0.71796 0.0
C188 C 0.4699 0.52689 0.71122 0.0
C189 C 0.47151 0.51131 0.69215 0.0
C190 C 0.51867 0.483 0.69652 0.0
C191 C 0.54612 0.50528 0.7092 0.0
C192 C 0.54589 0.50407 0.73249 0.0
C193 C 0.51824 0.48044 0.74345 0.0
C194 C 0.4911 0.45764 0.73057 0.0
C195 C 0.49134 0.45896 0.70728 0.0
C196 C 0.54142 0.45285 0.66628 0.0
C197 C 0.57534 0.46546 0.66845 0.0
C198 C 0.58735 0.44643 0.67496 0.0
C199 C 0.5656 0.41447 0.67943 0.0
C200 C 0.53154 0.40225 0.67806 0.0
C201 C 0.51955 0.42133 0.67147 0.0
C202 C 0.54582 0.46606 0.61923 0.0
C203 C 0.57796 0.48604 0.61196 0.0
C204 C 0.59156 0.47525 0.59635 0.0
C205 C 0.57322 0.44424 0.58772 0.0
C206 C 0.54128 0.42407 0.59551 0.0
C207 C 0.52772 0.4349 0.61119 0.0
C208 C 0.52402 0.50596 0.60203 0.0
C209 C 0.55168 0.53498 0.5967 0.0
C210 C 0.56579 0.53907 0.57578 0.0
C211 C 0.55228 0.51423 0.55991 0.0
C212 C 0.52204 0.48682 0.56426 0.0
C213 C 0.50794 0.48273 0.58523 0.0
C214 C 0.48782 0.52483 0.63151 0.0
C215 C 0.50332 0.55749 0.62936 0.0
C216 C 0.48513 0.57083 0.62245 0.0
C217 C 0.45115 0.55168 0.61766 0.0
C218 C 0.43602 0.51889 0.61963 0.0
C219 C 0.4542 0.50566 0.62643 0.0
C220 C 0.51756 0.47994 0.76821 0.0
C221 C 0.58714 0.43305 0.5705 0.0
H222 H 0.08507 0.53282 0.9665 0.0
H223 H 0.2151 0.54979 0.73066 0.0
H224 H 0.99887 0.5086 0.86485 0.0
H225 H 0.96351 0.48262 0.89637 0.0
H226 H 0.93885 0.39228 0.86828 0.0
H227 H 0.97629 0.41875 0.8378 0.0
H228 H 0.07632 0.5497 0.87073 0.0
H229 H 0.08408 0.55216 0.91133 0.0
H230 H 0.04561 0.45204 0.91117 0.0
H231 H 0.03846 0.45001 0.87058 0.0
H232 H 0.12699 0.57366 0.82632 0.0
H233 H 0.1846 0.59742 0.83706 0.0
H234 H 0.16309 0.5093 0.86552 0.0
H235 H 0.10627 0.48503 0.85238 0.0
H236 H 0.09953 0.56365 0.78189 0.0
H237 H 0.14524 0.58421 0.75601 0.0
H238 H 0.15743 0.50592 0.77026 0.0
H239 H 0.11149 0.48551 0.79594 0.0
H240 H 0.03365 0.53024 0.76678 0.0
H241 H 0.04749 0.53505 0.72708 0.0
H242 H 0.05878 0.45463 0.73178 0.0
H243 H 0.04496 0.45011 0.77099 0.0
H244 H 0.96358 0.4896 0.81464 0.0
H245 H 0.90613 0.45472 0.80339 0.0
H246 H 0.93091 0.39096 0.7724 0.0
H247 H 0.98748 0.42454 0.78562 0.0
O248 O 0.0821 0.53137 0.95043 0.0
O249 O 0.06192 0.47982 0.94943 0.0
O250 O 0.19251 0.58408 0.73631 0.0
O251 O 0.19709 0.54228 0.74089 0.0
C252 C 0.01882 0.48173 0.83389 0.0
C253 C 0.05121 0.49812 0.84314 0.0
C254 C 0.07848 0.51215 0.82901 0.0
C255 C 0.07351 0.50988 0.80566 0.0
C256 C 0.0413 0.49317 0.79632 0.0
C257 C 0.01382 0.4789 0.81037 0.0
C258 C 0.99062 0.46564 0.84921 0.0
C259 C 0.98527 0.48315 0.8653 0.0
C260 C 0.96484 0.46818 0.88327 0.0
C261 C 0.94883 0.43532 0.8852 0.0
C262 C 0.95158 0.41769 0.86772 0.0
C263 C 0.97256 0.43273 0.85003 0.0
C264 C 0.05666 0.49967 0.86774 0.0
C265 C 0.06976 0.52838 0.8795 0.0
C266 C 0.07407 0.52968 0.90269 0.0
C267 C 0.06536 0.50228 0.91451 0.0
C268 C 0.0525 0.47358 0.9026 0.0
C269 C 0.04833 0.47233 0.87942 0.0
C270 C 0.11247 0.52759 0.83844 0.0
C271 C 0.13484 0.55953 0.83483 0.0
C272 C 0.16778 0.57316 0.84128 0.0
C273 C 0.17888 0.55537 0.85217 0.0
C274 C 0.15588 0.52366 0.85669 0.0
C275 C 0.12314 0.50981 0.84958 0.0
C276 C 0.10224 0.5231 0.79072 0.0
C277 C 0.11216 0.55103 0.7794 0.0
C278 C 0.13827 0.56271 0.76466 0.0
C279 C 0.15498 0.54668 0.76106 0.0
C280 C 0.14507 0.51881 0.77261 0.0
C281 C 0.11895 0.50716 0.78735 0.0
C282 C 0.03773 0.48948 0.77166 0.0
C283 C 0.03759 0.51282 0.75888 0.0
C284 C 0.0461 0.51588 0.73635 0.0
C285 C 0.0545 0.49539 0.72631 0.0
C286 C 0.05202 0.47056 0.73882 0.0
C287 C 0.04379 0.4677 0.76126 0.0
C288 C 0.97993 0.45989 0.80075 0.0
C289 C 0.95656 0.46817 0.80529 0.0
C290 C 0.92369 0.44822 0.79866 0.0
C291 C 0.91357 0.41979 0.78695 0.0
C292 C 0.93743 0.41224 0.78174 0.0
C293 C 0.97011 0.43184 0.78884 0.0
C294 C 0.06965 0.50368 0.93916 0.0
C295 C 0.18262 0.5589 0.74533 0.0
H296 H 0.47051 0.9832 0.83838 0.0
H297 H 0.41891 0.8475 0.08664 0.0
H298 H 0.48004 0.05137 0.94591 0.0
H299 H 0.50475 0.08013 0.91174 0.0
H300 H 0.59659 0.08831 0.93086 0.0
H301 H 0.5715 0.05888 0.96459 0.0
H302 H 0.44231 0.98615 0.93285 0.0
H303 H 0.44474 0.98309 0.89216 0.0
H304 H 0.53982 0.9922 0.89879 0.0
H305 H 0.53687 0.99495 0.93945 0.0
H306 H 0.42132 0.92899 0.95085 0.0
H307 H 0.40946 0.87893 0.9333 0.0
H308 H 0.49586 0.88926 0.96598 0.0
H309 H 0.5085 0.93954 0.9823 0.0
H310 H 0.41202 0.94167 0.01137 0.0
H311 H 0.38428 0.89949 0.03826 0.0
H312 H 0.4751 0.90166 0.05025 0.0
H313 H 0.50236 0.94353 0.02323 0.0
H314 H 0.45305 0.00692 0.03948 0.0
H315 H 0.44633 0.99026 0.0783 0.0
H316 H 0.53532 0.98758 0.07485 0.0
H317 H 0.54163 0.00392 0.03631 0.0
H318 H 0.50411 0.08191 0.99614 0.0
H319 H 0.54493 0.13542 0.0089 0.0
H320 H 0.60823 0.10257 0.03172 0.0
H321 H 0.56902 0.05049 0.0168 0.0
O322 O 0.46967 0.98367 0.8545 0.0
O323 O 0.51876 0.98903 0.85883 0.0
O324 O 0.38218 0.86134 0.06737 0.0
O325 O 0.42888 0.86321 0.07527 0.0
C326 C 0.50631 0.02601 0.97296 0.0
C327 C 0.48912 0.99519 0.96353 0.0
C328 C 0.47515 0.96894 0.97746 0.0
C329 C 0.47643 0.97334 0.00078 0.0
C330 C 0.49466 0.004 0.01036 0.0
C331 C 0.5103 0.0304 0.99643 0.0
C332 C 0.5239 0.05282 0.95764 0.0
C333 C 0.5059 0.0606 0.94318 0.0
C334 C 0.52003 0.07697 0.92364 0.0
C335 C 0.55237 0.08584 0.91843 0.0
C336 C 0.57141 0.08124 0.93429 0.0
C337 C 0.55726 0.0648 0.95372 0.0
C338 C 0.48933 0.99062 0.93901 0.0
C339 C 0.46341 0.98705 0.92545 0.0
C340 C 0.46496 0.98548 0.90223 0.0
C341 C 0.49254 0.98751 0.89221 0.0
C342 C 0.51824 0.99057 0.90595 0.0
C343 C 0.51659 0.99203 0.92916 0.0
C344 C 0.46552 0.9376 0.96808 0.0
C345 C 0.43752 0.92029 0.95423 0.0
C346 C 0.43077 0.89186 0.9443 0.0
C347 C 0.45157 0.88032 0.94864 0.0
C348 C 0.47918 0.89749 0.96277 0.0
C349 C 0.48632 0.92606 0.97215 0.0
C350 C 0.45915 0.94564 0.01537 0.0
C351 C 0.42571 0.93266 0.0196 0.0
C352 C 0.41 0.9087 0.03504 0.0
C353 C 0.42753 0.89731 0.0465 0.0
C354 C 0.46088 0.9099 0.04177 0.0
C355 C 0.47649 0.93376 0.02628 0.0
C356 C 0.49808 0.00713 0.03508 0.0
C357 C 0.47203 0.00443 0.04751 0.0
C358 C 0.46799 0.99443 0.06958 0.0
C359 C 0.49 0.98706 0.07952 0.0
C360 C 0.5181 0.99334 0.06783 0.0
C361 C 0.52201 0.00314 0.04576 0.0
C362 C 0.53321 0.06211 0.0061 0.0
C363 C 0.52679 0.08642 0.00401 0.0
C364 C 0.55009 0.11693 0.01147 0.0
C365 C 0.58005 0.12352 0.0214 0.0
C366 C 0.58585 0.09874 0.02383 0.0
C367 C 0.563 0.0686 0.01585 0.0
C368 C 0.49455 0.98676 0.86753 0.0
C369 C 0.41136 0.87281 0.06359 0.0
H370 H 0.56466 0.54098 0.0058 0.0
H371 H 0.69409 0.49598 0.24055 0.0
H372 H 0.52425 0.55938 0.1272 0.0
H373 H 0.50151 0.57214 0.09527 0.0
H374 H 0.59745 0.6531 0.08283 0.0
H375 H 0.62002 0.64015 0.11518 0.0
H376 H 0.55004 0.52568 0.10238 0.0
H377 H 0.54731 0.52342 0.06152 0.0
H378 H 0.64776 0.60171 0.06002 0.0
H379 H 0.64999 0.60383 0.10091 0.0
H380 H 0.5792 0.49055 0.13549 0.0
H381 H 0.6019 0.45863 0.12339 0.0
H382 H 0.69711 0.54316 0.11642 0.0
H383 H 0.67407 0.57486 0.12847 0.0
H384 H 0.57378 0.49675 0.18294 0.0
H385 H 0.59189 0.47 0.20801 0.0
H386 H 0.69123 0.55026 0.20661 0.0
H387 H 0.67266 0.5768 0.18168 0.0
H388 H 0.54287 0.53099 0.19661 0.0
H389 H 0.54013 0.51258 0.23428 0.0
H390 H 0.6389 0.59084 0.24804 0.0
H391 H 0.64202 0.60745 0.20954 0.0
H392 H 0.52928 0.58768 0.16343 0.0
H393 H 0.52121 0.63043 0.17478 0.0
H394 H 0.62296 0.68538 0.19705 0.0
H395 H 0.63127 0.6436 0.18392 0.0
O396 O 0.56665 0.54153 0.02191 0.0
O397 O 0.61913 0.58019 0.02198 0.0
O398 O 0.63442 0.46626 0.23198 0.0
O399 O 0.6863 0.50595 0.23056 0.0
C400 C 0.58814 0.58615 0.13882 0.0
C401 C 0.60046 0.56838 0.12914 0.0
C402 C 0.61229 0.5536 0.14284 0.0
C403 C 0.61061 0.55539 0.1662 0.0
C404 C 0.59806 0.57291 0.17597 0.0
C405 C 0.58791 0.58937 0.16232 0.0
C406 C 0.57359 0.59923 0.12378 0.0
C407 C 0.54004 0.58067 0.11821 0.0
C408 C 0.52718 0.58787 0.09983 0.0
C409 C 0.54776 0.61354 0.0865 0.0
C410 C 0.58111 0.63304 0.09274 0.0
C411 C 0.59391 0.62599 0.11135 0.0
C412 C 0.60023 0.56484 0.10451 0.0
C413 C 0.57153 0.54204 0.09316 0.0
C414 C 0.57001 0.54092 0.06984 0.0
C415 C 0.59727 0.56249 0.05749 0.0
C416 C 0.62631 0.58478 0.06901 0.0
C417 C 0.62774 0.58594 0.09233 0.0
C418 C 0.62508 0.53488 0.13286 0.0
C419 C 0.60481 0.50212 0.13098 0.0
C420 C 0.61783 0.48399 0.12418 0.0
C421 C 0.6513 0.49844 0.1191 0.0
C422 C 0.67117 0.53144 0.12002 0.0
C423 C 0.65814 0.54954 0.12695 0.0
C424 C 0.62193 0.53868 0.1806 0.0
C425 C 0.59944 0.50844 0.18805 0.0
C426 C 0.60985 0.49326 0.20237 0.0
C427 C 0.64302 0.50803 0.20934 0.0
C428 C 0.66553 0.53823 0.20158 0.0
C429 C 0.65504 0.55342 0.18731 0.0
C430 C 0.59259 0.57055 0.20034 0.0
C431 C 0.5634 0.54488 0.20807 0.0
C432 C 0.562 0.53429 0.22973 0.0
C433 C 0.58962 0.54966 0.24427 0.0
C434 C 0.61752 0.57766 0.23717 0.0
C435 C 0.61914 0.58776 0.21529 0.0
C436 C 0.58104 0.61272 0.17239 0.0
C437 C 0.54984 0.60905 0.17061 0.0
C438 C 0.5452 0.63345 0.17741 0.0
C439 C 0.57157 0.66177 0.18655 0.0
C440 C 0.60228 0.66443 0.1895 0.0
C441 C 0.607 0.64031 0.18232 0.0
C442 C 0.59517 0.56198 0.03274 0.0
C443 C 0.65418 0.49206 0.22464 0.0
Mn444 Mn 0.6418 0.41995 0.40902 0.0
Mn445 Mn 0.69399 0.49871 0.41083 0.0
C446 C 0.63333 0.45031 0.43421 0.0
C447 C 0.62935 0.37024 0.42026 0.0
C448 C 0.64148 0.4644 0.37465 0.0
O449 O 0.6816 0.42628 0.39219 0.0
O450 O 0.71675 0.47841 0.39765 0.0
C451 C 0.7435 0.5038 0.44366 0.0
N452 N 0.72112 0.5115 0.43723 0.0
C453 C 0.73324 0.54468 0.46988 0.0
C454 C 0.75659 0.53727 0.47678 0.0
C455 C 0.76169 0.5167 0.46363 0.0
C456 C 0.71609 0.53136 0.44972 0.0
H457 H 0.74742 0.48791 0.43362 0.0
C458 C 0.70988 0.4512 0.39056 0.0
O459 O 0.61687 0.37373 0.40192 0.0
O460 O 0.64904 0.39552 0.43185 0.0
N461 N 0.67511 0.52108 0.42347 0.0
C462 C 0.64977 0.52367 0.41543 0.0
C463 C 0.64038 0.5422 0.42723 0.0
C464 C 0.65726 0.55802 0.44705 0.0
C465 C 0.68336 0.55513 0.45493 0.0
C466 C 0.69173 0.53647 0.44241 0.0
H467 H 0.63663 0.5115 0.40025 0.0
O468 O 0.60952 0.42221 0.42861 0.0
O469 O 0.66159 0.45958 0.42518 0.0
O470 O 0.62779 0.43696 0.38283 0.0
O471 O 0.667 0.48839 0.38326 0.0
C472 C 0.70081 0.56933 0.47504 0.0
C473 C 0.72574 0.56413 0.4825 0.0
H474 H 0.77048 0.54696 0.49227 0.0
H475 H 0.77954 0.51073 0.4689 0.0
H476 H 0.62008 0.54416 0.42111 0.0
H477 H 0.64974 0.57203 0.45622 0.0
H478 H 0.69483 0.58383 0.48509 0.0
H479 H 0.73859 0.57474 0.49817 0.0
Mn480 Mn 0.23799 0.62156 0.56512 0.0
Mn481 Mn 0.2099 0.5465 0.54897 0.0
C482 C 0.19423 0.59673 0.54004 0.0
C483 C 0.27806 0.67418 0.55899 0.0
C484 C 0.19204 0.56466 0.59302 0.0
O485 O 0.27343 0.61386 0.57657 0.0
O486 O 0.25526 0.56585 0.56173 0.0
C487 C 0.25588 0.55933 0.5122 0.0
N488 N 0.22453 0.54592 0.51953 0.0
C489 C 0.20224 0.52159 0.48356 0.0
C490 C 0.23428 0.53505 0.47562 0.0
C491 C 0.26121 0.5542 0.48996 0.0
C492 C 0.19845 0.52818 0.50572 0.0
H493 H 0.27665 0.57371 0.52326 0.0
C494 C 0.27685 0.5906 0.57249 0.0
O495 O 0.26314 0.66588 0.57797 0.0
O496 O 0.26927 0.6523 0.54393 0.0
N497 N 0.16644 0.524 0.53605 0.0
C498 C 0.13711 0.51211 0.54642 0.0
C499 C 0.10771 0.49285 0.53427 0.0
C500 C 0.10875 0.48524 0.51178 0.0
C501 C 0.13922 0.49683 0.50168 0.0
C502 C 0.1677 0.51637 0.5145 0.0
H503 H 0.1361 0.51758 0.56374 0.0
O504 O 0.20088 0.62253 0.55027 0.0
O505 O 0.21462 0.58724 0.54373 0.0
O506 O 0.20728 0.59457 0.59046 0.0
O507 O 0.19315 0.54563 0.57899 0.0
C508 C 0.14244 0.48921 0.47952 0.0
C509 C 0.17394 0.50164 0.47045 0.0
H510 H 0.23848 0.53082 0.45855 0.0
H511 H 0.28601 0.5647 0.48395 0.0
H512 H 0.0843 0.48376 0.54227 0.0
H513 H 0.08603 0.47019 0.50251 0.0
H514 H 0.12086 0.474 0.46924 0.0
H515 H 0.17609 0.49589 0.45331 0.0
Mn516 Mn 0.62059 0.21104 0.73234 0.0
Mn517 Mn 0.66567 0.17706 0.72796 0.0
C518 C 0.60413 0.16933 0.70748 0.0
C519 C 0.61357 0.25171 0.72067 0.0
C520 C 0.62091 0.16695 0.76698 0.0
O521 O 0.66423 0.24294 0.747 0.0
O522 O 0.69436 0.22093 0.74001 0.0
C523 C 0.71205 0.21589 0.69306 0.0
N524 N 0.68843 0.18721 0.70041 0.0
C525 C 0.69156 0.16141 0.66713 0.0
C526 C 0.71606 0.19066 0.65926 0.0
C527 C 0.72631 0.21801 0.67228 0.0
C528 C 0.67851 0.16071 0.68808 0.0
H529 H 0.7199 0.23699 0.70296 0.0
C530 C 0.69137 0.24368 0.74721 0.0
O531 O 0.60199 0.23816 0.73961 0.0
O532 O 0.62833 0.24118 0.70869 0.0
N533 N 0.64083 0.1349 0.7161 0.0
C534 C 0.6147 0.10907 0.72504 0.0
C535 C 0.60031 0.08001 0.71353 0.0
C536 C 0.61294 0.07779 0.69298 0.0
C537 C 0.63972 0.10471 0.68406 0.0
C538 C 0.65323 0.133 0.69637 0.0
H539 H 0.6047 0.11068 0.74071 0.0
O540 O 0.58313 0.17661 0.71432 0.0
O541 O 0.63391 0.18669 0.71551 0.0
O542 O 0.60861 0.18281 0.75984 0.0
O543 O 0.64277 0.16455 0.75655 0.0
C544 C 0.65296 0.10475 0.66315 0.0
C545 C 0.67889 0.13307 0.6547 0.0
H546 H 0.72689 0.19243 0.64314 0.0
H547 H 0.74508 0.24069 0.66626 0.0
H548 H 0.57942 0.05939 0.7204 0.0
H549 H 0.60162 0.05538 0.68407 0.0
H550 H 0.64296 0.08324 0.65324 0.0
H551 H 0.68845 0.1329 0.63843 0.0
Mn552 Mn 0.4738 0.65662 0.90414 0.0
Mn553 Mn 0.43642 0.57902 0.91113 0.0
C554 C 0.49016 0.63819 0.93359 0.0
C555 C 0.47247 0.70208 0.90871 0.0
C556 C 0.48141 0.61376 0.87266 0.0
O557 O 0.43138 0.63769 0.88592 0.0
O558 O 0.40336 0.58785 0.89817 0.0
C559 C 0.38726 0.56716 0.94541 0.0
N560 N 0.41428 0.56666 0.93892 0.0
C561 C 0.41805 0.54605 0.97419 0.0
C562 C 0.39025 0.54632 0.98124 0.0
C563 C 0.37479 0.5569 0.96678 0.0
C564 C 0.42919 0.55627 0.95263 0.0
H565 H 0.37543 0.57548 0.9344 0.0
C566 C 0.40491 0.61108 0.88793 0.0
O567 O 0.48794 0.69867 0.89229 0.0
O568 O 0.45902 0.67968 0.92304 0.0
N569 N 0.46672 0.56909 0.9242 0.0
C570 C 0.49451 0.57223 0.91543 0.0
C571 C 0.51346 0.56362 0.92809 0.0
C572 C 0.5037 0.55187 0.94961 0.0
C573 C 0.47508 0.54893 0.95833 0.0
C574 C 0.45702 0.55765 0.94487 0.0
H575 H 0.50222 0.58132 0.89893 0.0
O576 O 0.50988 0.6664 0.92641 0.0
O577 O 0.46222 0.62217 0.92291 0.0
O578 O 0.49324 0.6412 0.8811 0.0
O579 O 0.45872 0.58904 0.88188 0.0
C580 C 0.46409 0.53821 0.97998 0.0
C581 C 0.43562 0.5368 0.98792 0.0
H582 H 0.38074 0.53872 0.99779 0.0
H583 H 0.3534 0.5573 0.97213 0.0
H584 H 0.53562 0.5661 0.92129 0.0
H585 H 0.5185 0.54543 0.95936 0.0
H586 H 0.47756 0.53132 0.99077 0.0
H587 H 0.42768 0.52893 0.00471 0.0
Mn588 Mn 0.82268 0.39379 0.0708 0.0
Mn589 Mn 0.84904 0.34383 0.07925 0.0
C590 C 0.86894 0.40947 0.09268 0.0
C591 C 0.78719 0.41016 0.08167 0.0
C592 C 0.85837 0.37834 0.03585 0.0
O593 O 0.78365 0.35159 0.06133 0.0
O594 O 0.80141 0.31905 0.07057 0.0
C595 C 0.81096 0.31045 0.11888 0.0
N596 N 0.84047 0.32886 0.10907 0.0
C597 C 0.8698 0.32832 0.14183 0.0
C598 C 0.83972 0.30913 0.15224 0.0
C599 C 0.81018 0.30035 0.14077 0.0
C600 C 0.86904 0.33779 0.12006 0.0
H601 H 0.78819 0.30339 0.11003 0.0
C602 C 0.77917 0.32424 0.06352 0.0
O603 O 0.79881 0.41526 0.06161 0.0
O604 O 0.79688 0.39647 0.09527 0.0
N605 N 0.89453 0.36497 0.08797 0.0
C606 C 0.92143 0.38425 0.07579 0.0
C607 C 0.95297 0.39645 0.08529 0.0
C608 C 0.95651 0.38841 0.10709 0.0
C609 C 0.92845 0.36825 0.11921 0.0
C610 C 0.89766 0.35703 0.10894 0.0
H611 H 0.91886 0.39041 0.059 0.0
O612 O 0.86373 0.43024 0.08392 0.0
O613 O 0.84659 0.38022 0.08853 0.0
O614 O 0.84645 0.39496 0.04207 0.0
O615 O 0.85955 0.35835 0.04835 0.0
C616 C 0.92982 0.35884 0.14106 0.0
C617 C 0.90051 0.33861 0.15227 0.0
H618 H 0.83902 0.30127 0.16911 0.0
H619 H 0.78687 0.28568 0.14873 0.0
H620 H 0.9745 0.41197 0.07582 0.0
H621 H 0.98087 0.39783 0.11435 0.0
H622 H 0.95327 0.36702 0.14941 0.0
H623 H 0.90187 0.33154 0.16907 0.0
Mn624 Mn 0.44302 0.81005 0.2432 0.0
Mn625 Mn 0.51854 0.87402 0.25236 0.0
C626 C 0.4498 0.84899 0.26782 0.0
C627 C 0.40237 0.75838 0.24963 0.0
C628 C 0.47668 0.86558 0.21147 0.0
O629 O 0.47303 0.79607 0.23126 0.0
O630 O 0.52254 0.83943 0.2385 0.0
C631 C 0.54217 0.84795 0.28688 0.0
N632 N 0.53526 0.87007 0.28047 0.0
C633 C 0.55517 0.89793 0.31569 0.0
C634 C 0.56263 0.87552 0.32264 0.0
C635 C 0.55591 0.85032 0.30821 0.0
C636 C 0.54103 0.89406 0.29439 0.0
H637 H 0.53733 0.82868 0.27578 0.0
C638 C 0.50431 0.81101 0.23117 0.0
O639 O 0.40429 0.77138 0.23065 0.0
O640 O 0.42424 0.77531 0.26501 0.0
N641 N 0.5188 0.90915 0.26593 0.0
C642 C 0.51032 0.92887 0.25667 0.0
C643 C 0.51467 0.95484 0.26919 0.0
C644 C 0.5283 0.96064 0.2909 0.0
C645 C 0.53765 0.9405 0.29984 0.0
C646 C 0.53241 0.9148 0.28667 0.0
H647 H 0.50012 0.92472 0.23992 0.0
O648 O 0.4212 0.82962 0.25872 0.0
O649 O 0.47363 0.84466 0.26255 0.0
O650 O 0.45263 0.83885 0.21683 0.0
O651 O 0.50306 0.88084 0.22331 0.0
C652 C 0.55232 0.94513 0.3212 0.0
C653 C 0.56125 0.92396 0.32906 0.0
H654 H 0.57343 0.8774 0.33902 0.0
H655 H 0.56152 0.83289 0.31346 0.0
H656 H 0.50764 0.97042 0.2621 0.0
H657 H 0.53172 0.98075 0.30048 0.0
H658 H 0.55679 0.96486 0.33174 0.0
H659 H 0.57237 0.92768 0.34556 0.0
H660 H 0.24232 0.63689 0.31174 0.0
H661 H 0.21087 0.58078 0.25044 0.0
H662 H 0.26664 0.61381 0.23555 0.0
H663 H 0.28722 0.70825 0.28785 0.0
H664 H 0.31988 0.72591 0.30865 0.0
H665 H 0.27974 0.69451 0.31611 0.0
H666 H 0.30471 0.66244 0.3306 0.0
H667 H 0.34512 0.69391 0.32326 0.0
H668 H 0.32964 0.65461 0.31243 0.0
H669 H 0.32128 0.65844 0.22471 0.0
H670 H 0.37231 0.70976 0.21955 0.0
H671 H 0.36979 0.73582 0.28843 0.0
C672 C 0.2475 0.63112 0.29541 0.0
C673 C 0.22246 0.60631 0.28222 0.0
C674 C 0.22991 0.59944 0.2609 0.0
C675 C 0.26147 0.61809 0.25232 0.0
C676 C 0.28537 0.64309 0.26546 0.0
C677 C 0.27893 0.64931 0.28671 0.0
C678 C 0.30788 0.67924 0.2966 0.0
C679 C 0.29808 0.70339 0.30264 0.0
C680 C 0.32272 0.67211 0.31692 0.0
C681 C 0.33095 0.68982 0.27713 0.0
C682 C 0.31763 0.66845 0.25941 0.0
C683 C 0.33244 0.67489 0.23866 0.0
C684 C 0.36128 0.70409 0.23584 0.0
C685 C 0.37507 0.72629 0.25373 0.0
C686 C 0.3602 0.71874 0.27475 0.0
H687 H 0.52529 0.18242 0.4295 0.0
H688 H 0.59531 0.19336 0.48116 0.0
H689 H 0.62642 0.25075 0.47599 0.0
H690 H 0.58473 0.24306 0.39357 0.0
H691 H 0.55762 0.25644 0.3853 0.0
H692 H 0.54086 0.21603 0.39278 0.0
H693 H 0.50497 0.22144 0.42252 0.0
H694 H 0.52158 0.26183 0.41511 0.0
H695 H 0.52431 0.25221 0.44363 0.0
H696 H 0.6488 0.30675 0.46642 0.0
H697 H 0.66212 0.35825 0.45227 0.0
H698 H 0.57872 0.31174 0.40598 0.0
C699 C 0.54715 0.19695 0.43971 0.0
C700 C 0.558 0.18342 0.45565 0.0
C701 C 0.58683 0.20317 0.46862 0.0
C702 C 0.60458 0.2358 0.46589 0.0
C703 C 0.59332 0.24838 0.45002 0.0
C704 C 0.56539 0.22965 0.43706 0.0
C705 C 0.55875 0.24933 0.42121 0.0
C706 C 0.56061 0.2407 0.39677 0.0
C707 C 0.52543 0.246 0.42591 0.0
C708 C 0.58713 0.28204 0.42747 0.0
C709 C 0.60668 0.28087 0.44417 0.0
C710 C 0.63381 0.30798 0.45325 0.0
C711 C 0.64114 0.33714 0.44512 0.0
C712 C 0.62156 0.33902 0.42796 0.0
C713 C 0.59432 0.31102 0.41894 0.0
H714 H 0.40006 0.52879 0.58697 0.0
H715 H 0.45607 0.60553 0.63475 0.0
H716 H 0.41968 0.62592 0.62669 0.0
H717 H 0.38097 0.57233 0.54714 0.0
H718 H 0.34013 0.53933 0.54131 0.0
H719 H 0.37265 0.53276 0.5492 0.0
H720 H 0.33764 0.49808 0.5817 0.0
H721 H 0.30511 0.50463 0.57398 0.0
H722 H 0.32226 0.51407 0.60197 0.0
H723 H 0.37464 0.63589 0.61512 0.0
H724 H 0.32499 0.63457 0.60107 0.0
H725 H 0.29765 0.55 0.56206 0.0
C726 C 0.40484 0.54997 0.59571 0.0
C727 C 0.43106 0.56556 0.61148 0.0
C728 C 0.43654 0.59342 0.62232 0.0
C729 C 0.41586 0.60509 0.61795 0.0
C730 C 0.38984 0.5887 0.60266 0.0
C731 C 0.38438 0.5618 0.59166 0.0
C732 C 0.35379 0.54761 0.57686 0.0
C733 C 0.36241 0.54805 0.55217 0.0
C734 C 0.3282 0.51412 0.58407 0.0
C735 C 0.34245 0.57035 0.58161 0.0
C736 C 0.36372 0.59409 0.59634 0.0
C737 C 0.35793 0.6175 0.60348 0.0
C738 C 0.32961 0.61652 0.59541 0.0
C739 C 0.30725 0.59213 0.58049 0.0
C740 C 0.31408 0.56893 0.57349 0.0
H741 H 0.8795 0.35482 0.78494 0.0
H742 H 0.8671 0.43437 0.77482 0.0
H743 H 0.80839 0.39778 0.76597 0.0
H744 H 0.82742 0.30885 0.73837 0.0
H745 H 0.8116 0.27193 0.75222 0.0
H746 H 0.85225 0.3044 0.75918 0.0
H747 H 0.83656 0.30035 0.8008 0.0
H748 H 0.79576 0.26803 0.79394 0.0
H749 H 0.80125 0.30241 0.80847 0.0
H750 H 0.75093 0.35262 0.75842 0.0
H751 H 0.69993 0.30233 0.74928 0.0
H752 H 0.75084 0.25242 0.76123 0.0
C753 C 0.86473 0.36476 0.7806 0.0
C754 C 0.87822 0.39771 0.78082 0.0
C755 C 0.85747 0.40934 0.77535 0.0
C756 C 0.82404 0.38872 0.77014 0.0
C757 C 0.8117 0.35649 0.77018 0.0
C758 C 0.83148 0.34458 0.77497 0.0
C759 C 0.81245 0.309 0.77284 0.0
C760 C 0.82678 0.2979 0.75456 0.0
C761 C 0.81145 0.29408 0.79536 0.0
C762 C 0.77886 0.30278 0.76602 0.0
C763 C 0.77886 0.33048 0.7649 0.0
C764 C 0.75064 0.33078 0.75918 0.0
C765 C 0.72174 0.30204 0.75413 0.0
C766 C 0.72137 0.27339 0.75454 0.0
C767 C 0.75035 0.27389 0.76071 0.0
H768 H 0.4442 0.82871 0.96892 0.0
H769 H 0.44921 0.86816 0.90403 0.0
H770 H 0.45229 0.82465 0.88612 0.0
H771 H 0.50099 0.80747 0.96014 0.0
H772 H 0.48029 0.7711 0.97501 0.0
H773 H 0.47371 0.80246 0.98245 0.0
H774 H 0.41085 0.76539 0.97628 0.0
H775 H 0.41712 0.73363 0.96927 0.0
H776 H 0.39519 0.74415 0.95007 0.0
H777 H 0.46372 0.78207 0.87634 0.0
H778 H 0.47471 0.73874 0.87454 0.0
H779 H 0.45956 0.72583 0.94579 0.0
C780 C 0.44487 0.8275 0.95088 0.0
C781 C 0.44622 0.85136 0.93772 0.0
C782 C 0.44763 0.84963 0.91423 0.0
C783 C 0.44959 0.8252 0.904 0.0
C784 C 0.44954 0.80261 0.91756 0.0
C785 C 0.4464 0.80312 0.94045 0.0
C786 C 0.44858 0.77704 0.95137 0.0
C787 C 0.47762 0.79033 0.96823 0.0
C788 C 0.41599 0.75366 0.96239 0.0
C789 C 0.45456 0.76241 0.93116 0.0
C790 C 0.45513 0.77752 0.91182 0.0
C791 C 0.46267 0.76964 0.89129 0.0
C792 C 0.4692 0.74527 0.89048 0.0
C793 C 0.46784 0.72901 0.91003 0.0
C794 C 0.4604 0.73771 0.93057 0.0
H795 H 0.69507 0.50597 0.08657 0.0
H796 H 0.64155 0.44789 0.14245 0.0
H797 H 0.66859 0.41752 0.13743 0.0
H798 H 0.69343 0.44289 0.05287 0.0
H799 H 0.73433 0.46823 0.0427 0.0
H800 H 0.70919 0.48427 0.04967 0.0
H801 H 0.75501 0.52468 0.07677 0.0
H802 H 0.78022 0.50871 0.06996 0.0
H803 H 0.7704 0.51089 0.09863 0.0
H804 H 0.70425 0.39659 0.12876 0.0
H805 H 0.74472 0.38384 0.11549 0.0
H806 H 0.7747 0.45403 0.06428 0.0
C807 C 0.68888 0.48666 0.09758 0.0
C808 C 0.66603 0.47908 0.11479 0.0
C809 C 0.65852 0.45371 0.12891 0.0
C810 C 0.67388 0.43644 0.12627 0.0
C811 C 0.69648 0.44468 0.10932 0.0
C812 C 0.70381 0.46895 0.09506 0.0
C813 C 0.72972 0.47333 0.07858 0.0
C814 C 0.71583 0.46678 0.05453 0.0
C815 C 0.76067 0.50636 0.08115 0.0
C816 C 0.7363 0.44816 0.08618 0.0
C817 C 0.71679 0.43199 0.10395 0.0
C818 C 0.71939 0.40878 0.11469 0.0
C819 C 0.74257 0.40185 0.1071 0.0
C820 C 0.76271 0.4179 0.08883 0.0
C821 C 0.75932 0.44117 0.07811 0.0
H822 H 0.36627 0.86061 0.54506 0.0
H823 H 0.4337 0.85246 0.50134 0.0
H824 H 0.4083 0.79678 0.51078 0.0
H825 H 0.36214 0.80639 0.58767 0.0
H826 H 0.31886 0.78966 0.59213 0.0
H827 H 0.34385 0.82985 0.5835 0.0
H828 H 0.30476 0.81784 0.54947 0.0
H829 H 0.2796 0.77771 0.55804 0.0
H830 H 0.2962 0.78605 0.53039 0.0
H831 H 0.37389 0.7418 0.52222 0.0
H832 H 0.33131 0.68951 0.5348 0.0
H833 H 0.28505 0.73126 0.57159 0.0
C834 C 0.37578 0.84715 0.53753 0.0
C835 C 0.40239 0.86123 0.52263 0.0
C836 C 0.41399 0.84264 0.5132 0.0
C837 C 0.39959 0.81086 0.51837 0.0
C838 C 0.37353 0.79781 0.53305 0.0
C839 C 0.36162 0.81522 0.54253 0.0
C840 C 0.33221 0.79473 0.55695 0.0
C841 C 0.33972 0.80583 0.58152 0.0
C842 C 0.30137 0.79405 0.54818 0.0
C843 C 0.3291 0.76298 0.55367 0.0
C844 C 0.35344 0.76556 0.5399 0.0
C845 C 0.35494 0.73951 0.53322 0.0
C846 C 0.3306 0.7099 0.54043 0.0
C847 C 0.30512 0.70642 0.5543 0.0
C848 C 0.30467 0.73339 0.56138 0.0
H849 H 0.54519 0.36823 0.71093 0.0
H850 H 0.61455 0.41295 0.6576 0.0
H851 H 0.63524 0.37742 0.66364 0.0
H852 H 0.59905 0.35504 0.7469 0.0
H853 H 0.56637 0.31734 0.756 0.0
H854 H 0.55764 0.34713 0.74823 0.0
H855 H 0.51371 0.30834 0.71943 0.0
H856 H 0.52231 0.27846 0.72709 0.0
H857 H 0.52511 0.2898 0.69837 0.0
H858 H 0.64655 0.33611 0.6737 0.0
H859 H 0.64935 0.29158 0.68804 0.0
H860 H 0.57339 0.27286 0.73555 0.0
C861 C 0.56479 0.37056 0.70059 0.0
C862 C 0.57848 0.39357 0.68391 0.0
C863 C 0.60414 0.39594 0.67075 0.0
C864 C 0.61593 0.37574 0.67396 0.0
C865 C 0.6019 0.35334 0.69046 0.0
C866 C 0.57703 0.35062 0.70366 0.0
C867 C 0.56606 0.32403 0.71998 0.0
C868 C 0.57268 0.33665 0.74421 0.0
C869 C 0.52964 0.29866 0.71597 0.0
C870 C 0.58837 0.312 0.71361 0.0
C871 C 0.60878 0.32937 0.69653 0.0
C872 C 0.63087 0.32243 0.68717 0.0
C873 C 0.63216 0.29698 0.69541 0.0
C874 C 0.6116 0.27875 0.71293 0.0
C875 C 0.58956 0.28653 0.72227 0.0
H876 H 0.21486 0.52618 0.85357 0.0
H877 H 0.22384 0.61688 0.86462 0.0
H878 H 0.28307 0.64098 0.872 0.0
H879 H 0.26997 0.53644 0.89932 0.0
H880 H 0.28635 0.51565 0.88505 0.0
H881 H 0.24488 0.50579 0.87907 0.0
H882 H 0.25834 0.51544 0.83709 0.0
H883 H 0.29998 0.52572 0.84297 0.0
H884 H 0.29223 0.55287 0.8286 0.0
H885 H 0.34124 0.65571 0.87711 0.0
H886 H 0.39376 0.65911 0.88505 0.0
H887 H 0.34626 0.55798 0.87507 0.0
C888 C 0.22896 0.55102 0.85785 0.0
C889 C 0.21438 0.5696 0.85809 0.0
C890 C 0.23429 0.60215 0.86356 0.0
C891 C 0.26803 0.61611 0.86795 0.0
C892 C 0.28147 0.59714 0.86728 0.0
C893 C 0.26251 0.56522 0.86284 0.0
C894 C 0.28281 0.54989 0.8645 0.0
C895 C 0.27025 0.52551 0.88309 0.0
C896 C 0.28337 0.53511 0.84194 0.0
C897 C 0.31618 0.57828 0.87054 0.0
C898 C 0.31488 0.60535 0.87163 0.0
C899 C 0.34258 0.63468 0.87645 0.0
C900 C 0.37234 0.63636 0.88077 0.0
C901 C 0.37406 0.60878 0.88063 0.0
C902 C 0.34561 0.5794 0.8753 0.0
H903 H 0.64727 0.15129 0.02006 0.0
H904 H 0.57113 0.16982 0.03926 0.0
H905 H 0.6139 0.22372 0.05104 0.0
H906 H 0.70042 0.19181 0.06744 0.0
H907 H 0.73751 0.20596 0.05187 0.0
H908 H 0.70086 0.16953 0.04364 0.0
H909 H 0.70398 0.19066 0.00386 0.0
H910 H 0.74059 0.2272 0.01197 0.0
H911 H 0.70554 0.22731 0.00046 0.0
H912 H 0.66511 0.27587 0.0602 0.0
H913 H 0.7209 0.32126 0.06846 0.0
H914 H 0.7629 0.26642 0.04673 0.0
C915 C 0.63933 0.16635 0.02702 0.0
C916 C 0.60561 0.15608 0.02864 0.0
C917 C 0.59669 0.17714 0.0374 0.0
C918 C 0.62082 0.20778 0.04431 0.0
C919 C 0.65373 0.21687 0.04261 0.0
C920 C 0.66298 0.19665 0.0344 0.0
C921 C 0.69994 0.21171 0.03507 0.0
C922 C 0.71028 0.19368 0.05042 0.0
C923 C 0.71329 0.21438 0.01143 0.0
C924 C 0.71013 0.24367 0.04494 0.0
C925 C 0.68313 0.24631 0.04891 0.0
C926 C 0.68641 0.27401 0.05731 0.0
C927 C 0.71814 0.29964 0.06186 0.0
C928 C 0.74606 0.29717 0.05831 0.0
C929 C 0.74192 0.26878 0.04982 0.0
H930 H 0.51706 0.66052 0.20343 0.0
H931 H 0.61679 0.72481 0.18199 0.0
H932 H 0.61071 0.76971 0.1914 0.0
H933 H 0.48299 0.70444 0.18038 0.0
H934 H 0.45487 0.69555 0.20288 0.0
H935 H 0.46742 0.66831 0.19526 0.0
H936 H 0.48747 0.67017 0.23597 0.0
H937 H 0.47499 0.69743 0.2437 0.0
H938 H 0.51676 0.70759 0.2489 0.0
H939 H 0.59424 0.808 0.20381 0.0
H940 H 0.56748 0.83645 0.21674 0.0
H941 H 0.47746 0.74722 0.2275 0.0
C942 C 0.53759 0.68396 0.2005 0.0
C943 C 0.56758 0.68889 0.1922 0.0
C944 C 0.59383 0.72019 0.18888 0.0
C945 C 0.59054 0.74596 0.19398 0.0
C946 C 0.56073 0.7402 0.20215 0.0
C947 C 0.53462 0.70999 0.20522 0.0
C948 C 0.50498 0.71025 0.2138 0.0
C949 C 0.47585 0.69366 0.19708 0.0
C950 C 0.49551 0.69549 0.23697 0.0
C951 C 0.51857 0.74533 0.21512 0.0
C952 C 0.55084 0.76222 0.20847 0.0
C953 C 0.56888 0.79502 0.20889 0.0
C954 C 0.55351 0.81098 0.2163 0.0
C955 C 0.5203 0.79412 0.22295 0.0
C956 C 0.50272 0.76084 0.22224 0.0
H957 H 0.88738 0.5147 0.34079 0.0
H958 H 0.87604 0.42503 0.358 0.0
H959 H 0.8192 0.40571 0.36901 0.0
H960 H 0.84552 0.51882 0.38838 0.0
H961 H 0.8274 0.53779 0.37385 0.0
H962 H 0.86603 0.54342 0.36498 0.0
H963 H 0.84156 0.52398 0.32506 0.0
H964 H 0.80274 0.51807 0.33386 0.0
H965 H 0.80451 0.48601 0.32115 0.0
H966 H 0.76353 0.39624 0.37891 0.0
H967 H 0.71572 0.39939 0.39052 0.0
H968 H 0.76555 0.4968 0.37045 0.0
C969 C 0.87327 0.49105 0.347 0.0
C970 C 0.88655 0.47141 0.34817 0.0
C971 C 0.86653 0.44045 0.35621 0.0
C972 C 0.83413 0.42923 0.3627 0.0
C973 C 0.82205 0.4493 0.36138 0.0
C974 C 0.84116 0.47969 0.35401 0.0
C975 C 0.8232 0.4973 0.35574 0.0
C976 C 0.84163 0.52602 0.37169 0.0
C977 C 0.81768 0.5069 0.33257 0.0
C978 C 0.7911 0.47214 0.36546 0.0
C979 C 0.79067 0.44443 0.36819 0.0
C980 C 0.7636 0.41783 0.37686 0.0
C981 C 0.7365 0.4198 0.38331 0.0
C982 C 0.73694 0.44834 0.38141 0.0
C983 C 0.76454 0.47469 0.37215 0.0
H984 H 0.11366 0.56522 0.41868 0.0
H985 H 0.01819 0.5211 0.44911 0.0
H986 H 0.04502 0.53124 0.48672 0.0
H987 H 0.14631 0.53362 0.45181 0.0
H988 H 0.18779 0.56694 0.45557 0.0
H989 H 0.16395 0.56251 0.43073 0.0
H990 H 0.16715 0.61514 0.43593 0.0
H991 H 0.1952 0.6232 0.45903 0.0
H992 H 0.1593 0.62595 0.46288 0.0
H993 H 0.08351 0.55009 0.52076 0.0
H994 H 0.12947 0.57 0.54848 0.0
H995 H 0.19845 0.59447 0.49502 0.0
C996 C 0.09855 0.55811 0.43336 0.0
C997 C 0.0641 0.54277 0.43136 0.0
C998 C 0.04472 0.53314 0.45062 0.0
C999 C 0.05975 0.53884 0.4719 0.0
C1000 C 0.09398 0.55389 0.47334 0.0
C1001 C 0.11307 0.56335 0.45455 0.0
C1002 C 0.14909 0.57765 0.46038 0.0
C1003 C 0.16271 0.55912 0.44902 0.0
C1004 C 0.16887 0.61256 0.45419 0.0
C1005 C 0.14739 0.57394 0.48542 0.0
C1006 C 0.11552 0.56123 0.49266 0.0
C1007 C 0.10837 0.55919 0.51528 0.0
C1008 C 0.13448 0.57043 0.53085 0.0
C1009 C 0.16691 0.58203 0.52372 0.0
C1010 C 0.17349 0.58399 0.50077 0.0
H1011 H 0.49335 0.0304 0.61942 0.0
H1012 H 0.57467 0.07801 0.57412 0.0
H1013 H 0.60784 0.11679 0.60368 0.0
H1014 H 0.50334 0.09795 0.6463 0.0
H1015 H 0.49398 0.082 0.67391 0.0
H1016 H 0.47692 0.05616 0.6498 0.0
H1017 H 0.50169 0.02401 0.66395 0.0
H1018 H 0.51956 0.04984 0.68807 0.0
H1019 H 0.54523 0.04339 0.66968 0.0
H1020 H 0.62888 0.15465 0.63542 0.0
H1021 H 0.64061 0.18542 0.67051 0.0
H1022 H 0.54896 0.11181 0.69743 0.0
C1023 C 0.51836 0.04864 0.61594 0.0
C1024 C 0.53151 0.051 0.59451 0.0
C1025 C 0.56424 0.07537 0.59048 0.0
C1026 C 0.58325 0.09767 0.60713 0.0
C1027 C 0.56943 0.09506 0.62788 0.0
C1028 C 0.53804 0.07089 0.63259 0.0
C1029 C 0.52919 0.07413 0.65632 0.0
C1030 C 0.49908 0.07778 0.65659 0.0
C1031 C 0.5236 0.04619 0.67034 0.0
C1032 C 0.56018 0.10431 0.6639 0.0
C1033 C 0.58287 0.11604 0.64707 0.0
C1034 C 0.61196 0.14513 0.64907 0.0
C1035 C 0.61855 0.1623 0.66909 0.0
C1036 C 0.59674 0.14993 0.68706 0.0
C1037 C 0.56675 0.12096 0.68425 0.0
H1038 H 0.47225 0.52664 0.75767 0.0
H1039 H 0.52373 0.61911 0.72821 0.0
H1040 H 0.52966 0.64352 0.76535 0.0
H1041 H 0.42581 0.54415 0.79599 0.0
H1042 H 0.42751 0.52041 0.8178 0.0
H1043 H 0.42877 0.5104 0.78901 0.0
H1044 H 0.4832 0.51221 0.79731 0.0
H1045 H 0.48249 0.5228 0.82607 0.0
H1046 H 0.51776 0.54744 0.80941 0.0
H1047 H 0.53073 0.658 0.80537 0.0
H1048 H 0.52052 0.66184 0.84502 0.0
H1049 H 0.46513 0.55981 0.84844 0.0
C1050 C 0.48431 0.552 0.7589 0.0
C1051 C 0.49773 0.57094 0.73995 0.0
C1052 C 0.51378 0.60409 0.74248 0.0
C1053 C 0.51725 0.6182 0.76352 0.0
C1054 C 0.50428 0.59886 0.78184 0.0
C1055 C 0.48764 0.56649 0.77972 0.0
C1056 C 0.4747 0.55111 0.80197 0.0
C1057 C 0.43696 0.5303 0.80114 0.0
C1058 C 0.49049 0.53228 0.80911 0.0
C1059 C 0.48636 0.57996 0.81688 0.0
C1060 C 0.50387 0.60722 0.80495 0.0
C1061 C 0.51698 0.63685 0.81491 0.0
C1062 C 0.51112 0.63873 0.83753 0.0
C1063 C 0.49187 0.61111 0.84995 0.0
C1064 C 0.47996 0.58137 0.83949 0.0
H1065 H 0.91277 0.44973 0.91372 0.0
H1066 H 0.95023 0.3872 0.90554 0.0
H1067 H 0.92845 0.36448 0.94196 0.0
H1068 H 0.93468 0.46684 0.9711 0.0
H1069 H 0.89894 0.46819 0.97871 0.0
H1070 H 0.9143 0.47769 0.95081 0.0
H1071 H 0.85725 0.43512 0.93461 0.0
H1072 H 0.84164 0.4256 0.96248 0.0
H1073 H 0.83845 0.39525 0.944 0.0
H1074 H 0.90659 0.35086 0.97989 0.0
H1075 H 0.88456 0.34606 0.01735 0.0
H1076 H 0.86229 0.41836 0.00254 0.0
C1077 C 0.91617 0.43108 0.91947 0.0
C1078 C 0.93284 0.41999 0.90642 0.0
C1079 C 0.93674 0.39555 0.91473 0.0
C1080 C 0.92472 0.38264 0.93557 0.0
C1081 C 0.90893 0.39442 0.94807 0.0
C1082 C 0.90449 0.418 0.9404 0.0
C1083 C 0.88803 0.42732 0.95782 0.0
C1084 C 0.91033 0.46207 0.96503 0.0
C1085 C 0.85434 0.4204 0.94921 0.0
C1086 C 0.88441 0.40558 0.97654 0.0
C1087 C 0.89652 0.38675 0.97041 0.0
C1088 C 0.89679 0.36529 0.98486 0.0
C1089 C 0.88423 0.36283 0.00619 0.0
C1090 C 0.87153 0.38178 0.01303 0.0
C1091 C 0.87166 0.40344 0.99788 0.0
H1092 H 0.53015 0.99293 0.1153 0.0
H1093 H 0.42988 0.93696 0.08942 0.0
H1094 H 0.41575 0.90068 0.12058 0.0
H1095 H 0.53752 0.92902 0.13202 0.0
H1096 H 0.56137 0.94799 0.15711 0.0
H1097 H 0.56345 0.97128 0.13372 0.0
H1098 H 0.54669 0.00306 0.15895 0.0
H1099 H 0.5449 0.98008 0.18248 0.0
H1100 H 0.50962 0.98251 0.17479 0.0
H1101 H 0.41321 0.86841 0.15264 0.0
H1102 H 0.42118 0.84378 0.18543 0.0
H1103 H 0.52309 0.92043 0.19132 0.0
C1104 C 0.50511 0.97331 0.11641 0.0
C1105 C 0.48102 0.96807 0.10004 0.0
C1106 C 0.44857 0.94197 0.10201 0.0
C1107 C 0.44035 0.92102 0.11955 0.0
C1108 C 0.46477 0.92654 0.13514 0.0
C1109 C 0.4964 0.9522 0.13395 0.0
C1110 C 0.5181 0.95213 0.15266 0.0
C1111 C 0.5468 0.94997 0.14331 0.0
C1112 C 0.53056 0.98117 0.16814 0.0
C1113 C 0.49379 0.92221 0.16434 0.0
C1114 C 0.46324 0.90785 0.15388 0.0
C1115 C 0.43695 0.87955 0.16111 0.0
C1116 C 0.44183 0.86567 0.17975 0.0
C1117 C 0.47279 0.8801 0.19108 0.0
C1118 C 0.4991 0.90878 0.18313 0.0
H1119 H 0.64314 0.55181 0.26438 0.0
H1120 H 0.53838 0.51272 0.2724 0.0
H1121 H 0.53944 0.48327 0.30482 0.0
H1122 H 0.64713 0.48612 0.28032 0.0
H1123 H 0.68538 0.50852 0.29584 0.0
H1124 H 0.67654 0.52601 0.27281 0.0
H1125 H 0.68523 0.57215 0.29825 0.0
H1126 H 0.69496 0.55539 0.32133 0.0
H1127 H 0.6627 0.56392 0.32374 0.0
H1128 H 0.55182 0.45613 0.33576 0.0
H1129 H 0.57609 0.44037 0.36593 0.0
H1130 H 0.67311 0.50177 0.3396 0.0
C1131 C 0.62042 0.53774 0.27312 0.0
C1132 C 0.5906 0.53462 0.26548 0.0
C1133 C 0.56148 0.51514 0.27742 0.0
C1134 C 0.56182 0.49833 0.29597 0.0
C1135 C 0.59155 0.50161 0.30269 0.0
C1136 C 0.62042 0.52142 0.29192 0.0
C1137 C 0.64946 0.52212 0.30306 0.0
C1138 C 0.66556 0.50995 0.28705 0.0
C1139 C 0.67456 0.55536 0.31214 0.0
C1140 C 0.63241 0.49949 0.32178 0.0
C1141 C 0.59891 0.48743 0.32109 0.0
C1142 C 0.57804 0.46559 0.33653 0.0
C1143 C 0.59195 0.45656 0.35346 0.0
C1144 C 0.62637 0.46986 0.35498 0.0
C1145 C 0.64669 0.49128 0.33877 0.0
H1146 H 0.45176 0.89268 0.39622 0.0
H1147 H 0.42627 0.96051 0.37502 0.0
H1148 H 0.42854 0.94685 0.33567 0.0
H1149 H 0.50907 0.90855 0.35637 0.0
H1150 H 0.49925 0.86904 0.34956 0.0
H1151 H 0.49154 0.87866 0.377 0.0
H1152 H 0.43038 0.83753 0.37546 0.0
H1153 H 0.43655 0.82376 0.34911 0.0
H1154 H 0.40586 0.83442 0.35132 0.0
H1155 H 0.43079 0.92395 0.29871 0.0
H1156 H 0.43516 0.8947 0.26655 0.0
H1157 H 0.4654 0.84634 0.31125 0.0
C1158 C 0.44646 0.90451 0.3833 0.0
C1159 C 0.43841 0.92737 0.38875 0.0
C1160 C 0.43169 0.94236 0.37131 0.0
C1161 C 0.4332 0.93496 0.34888 0.0
C1162 C 0.44154 0.91258 0.3441 0.0
C1163 C 0.44784 0.89741 0.36079 0.0
C1164 C 0.45664 0.87455 0.35109 0.0
C1165 C 0.49121 0.8832 0.35892 0.0
C1166 C 0.43082 0.84056 0.3571 0.0
C1167 C 0.45515 0.87985 0.32633 0.0
C1168 C 0.44564 0.90138 0.32269 0.0
C1169 C 0.43898 0.90762 0.3013 0.0
C1170 C 0.4416 0.89105 0.28316 0.0
C1171 C 0.45201 0.8695 0.28647 0.0
C1172 C 0.459 0.86393 0.30829 0.0
H1173 H 0.53398 0.49658 0.51575 0.0
H1174 H 0.6159 0.52991 0.56281 0.0
H1175 H 0.64735 0.52091 0.53454 0.0
H1176 H 0.53878 0.4358 0.49197 0.0
H1177 H 0.52956 0.44083 0.46362 0.0
H1178 H 0.51464 0.4534 0.48646 0.0
H1179 H 0.5428 0.50943 0.47063 0.0
H1180 H 0.55812 0.49735 0.44764 0.0
H1181 H 0.58621 0.53036 0.46531 0.0
H1182 H 0.66543 0.49914 0.50427 0.0
H1183 H 0.673 0.47396 0.47096 0.0
H1184 H 0.58248 0.45937 0.44171 0.0
C1185 C 0.55888 0.50277 0.51982 0.0
C1186 C 0.5726 0.51415 0.5414 0.0
C1187 C 0.6051 0.52166 0.54627 0.0
C1188 C 0.62312 0.51648 0.53037 0.0
C1189 C 0.60859 0.5044 0.50948 0.0
C1190 C 0.57755 0.49837 0.50393 0.0
C1191 C 0.56731 0.48438 0.4805 0.0
C1192 C 0.53571 0.45166 0.48067 0.0
C1193 C 0.56338 0.50671 0.46511 0.0
C1194 C 0.5968 0.48223 0.47422 0.0
C1195 C 0.62027 0.49385 0.49124 0.0
C1196 C 0.64796 0.49124 0.49042 0.0
C1197 C 0.6522 0.47715 0.47144 0.0
C1198 C 0.62944 0.46674 0.45333 0.0
C1199 C 0.60103 0.46865 0.45495 0.0
H1200 H 0.10015 0.55194 0.70795 0.0
H1201 H 0.04124 0.45147 0.69358 0.0
H1202 H 0.0704 0.45918 0.6584 0.0
H1203 H 0.10275 0.57586 0.64901 0.0
H1204 H 0.1443 0.60882 0.65214 0.0
H1205 H 0.11754 0.5958 0.67573 0.0
H1206 H 0.16059 0.58996 0.69815 0.0
H1207 H 0.1873 0.60217 0.67459 0.0
H1208 H 0.17448 0.56501 0.68732 0.0
H1209 H 0.10902 0.47612 0.62765 0.0
H1210 H 0.15002 0.50197 0.59899 0.0
H1211 H 0.18251 0.59316 0.63032 0.0
C1212 C 0.09275 0.53169 0.69708 0.0
C1213 C 0.06847 0.501 0.70361 0.0
C1214 C 0.06001 0.47508 0.68911 0.0
C1215 C 0.07638 0.47924 0.66907 0.0
C1216 C 0.10086 0.50954 0.66353 0.0
C1217 C 0.10863 0.53547 0.67676 0.0
C1218 C 0.13633 0.56537 0.66673 0.0
C1219 C 0.12452 0.58779 0.66053 0.0
C1220 C 0.16646 0.58157 0.68265 0.0
C1221 C 0.14325 0.55198 0.64603 0.0
C1222 C 0.12253 0.51968 0.64479 0.0
C1223 C 0.12493 0.50146 0.62813 0.0
C1224 C 0.14858 0.51659 0.61189 0.0
C1225 C 0.16944 0.54989 0.61199 0.0
C1226 C 0.16681 0.56779 0.62953 0.0
H1227 H 0.5491 0.12889 0.89121 0.0
H1228 H 0.58145 0.06197 0.89323 0.0
H1229 H 0.60003 0.07432 0.85459 0.0
H1230 H 0.51971 0.11257 0.83339 0.0
H1231 H 0.53372 0.15297 0.82738 0.0
H1232 H 0.52231 0.13892 0.85534 0.0
H1233 H 0.57949 0.18288 0.87035 0.0
H1234 H 0.59101 0.19716 0.84246 0.0
H1235 H 0.61601 0.18674 0.85855 0.0
H1236 H 0.61567 0.0935 0.81664 0.0
H1237 H 0.62966 0.12001 0.7808 0.0
H1238 H 0.58759 0.17534 0.80168 0.0
C1239 C 0.56016 0.11695 0.88346 0.0
C1240 C 0.56438 0.09487 0.89538 0.0
C1241 C 0.57877 0.07956 0.88466 0.0
C1242 C 0.5891 0.08616 0.86263 0.0
C1243 C 0.58484 0.10811 0.85141 0.0
C1244 C 0.57086 0.12342 0.86134 0.0
C1245 C 0.56991 0.14642 0.84535 0.0
C1246 C 0.53429 0.13716 0.84005 0.0
C1247 C 0.59033 0.18031 0.85474 0.0
C1248 C 0.58582 0.14175 0.82503 0.0
C1249 C 0.59396 0.11933 0.82902 0.0
C1250 C 0.60942 0.11107 0.81325 0.0
C1251 C 0.61732 0.12641 0.7929 0.0
C1252 C 0.60984 0.14993 0.78831 0.0
C1253 C 0.59344 0.15737 0.80457 0.0
H1254 H 0.57609 0.62603 0.04531 0.0
H1255 H 0.48955 0.61083 0.07984 0.0
H1256 H 0.46523 0.61378 0.04406 0.0
H1257 H 0.57876 0.68216 0.00559 0.0
H1258 H 0.59216 0.66751 0.98302 0.0
H1259 H 0.60296 0.66472 0.01144 0.0
H1260 H 0.57743 0.60519 0.00527 0.0
H1261 H 0.5648 0.60676 0.9771 0.0
H1262 H 0.53488 0.58088 0.99681 0.0
H1263 H 0.45034 0.61842 0.0053 0.0
H1264 H 0.44592 0.62596 0.96515 0.0
H1265 H 0.54171 0.63805 0.95492 0.0
C1266 C 0.55229 0.62393 0.04537 0.0
C1267 C 0.53469 0.6183 0.06535 0.0
C1268 C 0.50332 0.61496 0.06471 0.0
C1269 C 0.48935 0.61663 0.0445 0.0
C1270 C 0.50709 0.6217 0.0251 0.0
C1271 C 0.53796 0.62556 0.02531 0.0
C1272 C 0.55165 0.63073 0.00197 0.0
C1273 C 0.58325 0.66322 0.00042 0.0
C1274 C 0.55751 0.60431 0.99486 0.0
C1275 C 0.52359 0.62917 0.98863 0.0
C1276 C 0.49818 0.62387 0.00241 0.0
C1277 C 0.4699 0.62228 0.99431 0.0
C1278 C 0.4675 0.62633 0.97149 0.0
C1279 C 0.49299 0.6315 0.95701 0.0
C1280 C 0.5216 0.63335 0.96568 0.0
H1281 H 0.9135 0.43977 0.22163 0.0
H1282 H 0.01082 0.51434 0.2034 0.0
H1283 H 0.99687 0.49876 0.16355 0.0
H1284 H 0.90331 0.38259 0.18204 0.0
H1285 H 0.86065 0.36809 0.17502 0.0
H1286 H 0.87701 0.38466 0.20235 0.0
H1287 H 0.86009 0.42558 0.19861 0.0
H1288 H 0.8415 0.40839 0.1718 0.0
H1289 H 0.87173 0.44984 0.17433 0.0
H1290 H 0.9711 0.47723 0.12576 0.0
H1291 H 0.93442 0.45271 0.09255 0.0
H1292 H 0.85476 0.39071 0.13534 0.0
C1293 C 0.93175 0.45273 0.20917 0.0
C1294 C 0.96314 0.47819 0.21538 0.0
C1295 C 0.98651 0.4949 0.19878 0.0
C1296 C 0.97889 0.48608 0.17619 0.0
C1297 C 0.94773 0.46067 0.17055 0.0
C1298 C 0.92437 0.44456 0.18652 0.0
C1299 C 0.89216 0.41928 0.17598 0.0
C1300 C 0.88272 0.38667 0.1843 0.0
C1301 C 0.86476 0.4262 0.18044 0.0
C1302 C 0.90119 0.42321 0.15157 0.0
C1303 C 0.93331 0.44741 0.14879 0.0
C1304 C 0.94615 0.45781 0.12769 0.0
C1305 C 0.9253 0.44376 0.10896 0.0
C1306 C 0.89239 0.41919 0.11151 0.0
C1307 C 0.88037 0.40847 0.13301 0.0
loop_
_geom_bond_atom_site_label_1
_geom_bond_atom_site_label_2
_geom_bond_distance
_geom_bond_site_symmetry_2
_ccdc_geom_bond_type
H0 O26 0.856 . S
H1 O29 0.854 . S
H2 C37 0.930 1_455 S
H3 C38 0.930 . S
H4 C40 0.930 . S
H5 C41 0.930 . S
H6 C43 0.931 . S
H7 C44 0.930 . S
H8 C46 0.930 . S
H9 C47 0.929 . S
H10 C49 0.930 . S
H11 C50 0.931 . S
H12 C52 0.930 . S
H13 C53 0.929 . S
H14 C55 0.931 . S
H15 C56 0.930 . S
H16 C58 0.930 . S
H17 C59 0.932 . S
H18 C61 0.930 . S
H19 C62 0.929 . S
H20 C64 0.931 . S
H21 C65 0.930 . S
H22 C67 0.929 . S
H23 C68 0.931 . S
H24 C70 0.930 . S
H25 C71 0.926 1_455 S
O26 H0 0.856 . S
O26 C72 1.300 . S
O27 C72 1.209 . S
O28 C73 1.199 . S
O29 H1 0.854 . S
O29 C73 1.297 . S
C30 C31 1.404 . S
C30 C35 1.397 . S
C30 C36 1.492 . S
C31 C30 1.404 . S
C31 C32 1.396 . S
C31 C42 1.492 . S
C32 C31 1.396 . S
C32 C33 1.397 . S
C32 C48 1.509 . S
C33 C32 1.397 . S
C33 C34 1.412 . S
C33 C54 1.485 . S
C34 C33 1.412 . S
C34 C35 1.388 . S
C34 C60 1.490 . S
C35 C30 1.397 . S
C35 C34 1.388 . S
C35 C66 1.519 1_455 S
C36 C30 1.492 . S
C36 C37 1.363 1_455 S
C36 C41 1.390 1_455 S
C37 H2 0.930 1_655 S
C37 C36 1.363 1_655 S
C37 C38 1.372 . S
C38 H3 0.930 . S
C38 C37 1.372 . S
C38 C39 1.383 . S
C39 C38 1.383 . S
C39 C40 1.395 . S
C40 H4 0.930 . S
C40 C39 1.395 . S
C40 C41 1.362 . S
C41 H5 0.930 . S
C41 C36 1.390 1_655 S
C41 C40 1.362 . S
C42 C31 1.492 . S
C42 C43 1.377 . S
C42 C47 1.397 . S
C43 H6 0.931 . S
C43 C42 1.377 . S
C43 C44 1.376 . S
C44 H7 0.930 . S
C44 C43 1.376 . S
C44 C45 1.376 . S
C45 C44 1.376 . S
C45 C46 1.378 . S
C45 C72 1.486 . S
C46 H8 0.930 . S
C46 C45 1.378 . S
C46 C47 1.376 . S
C47 H9 0.929 . S
C47 C42 1.397 . S
C47 C46 1.376 . S
C48 C32 1.509 . S
C48 C49 1.391 . S
C48 C53 1.386 . S
C49 H10 0.930 . S
C49 C48 1.391 . S
C49 C50 1.375 . S
C50 H11 0.931 . S
C50 C49 1.375 . S
C50 C51 1.375 . S
C51 C50 1.375 . S
C51 C52 1.361 . S
C52 H12 0.930 . S
C52 C51 1.361 . S
C52 C53 1.399 . S
C53 H13 0.929 . S
C53 C48 1.386 . S
C53 C52 1.399 . S
C54 C33 1.485 . S
C54 C55 1.394 . S
C54 C59 1.360 . S
C55 H14 0.931 . S
C55 C54 1.394 . S
C55 C56 1.372 . S
C56 H15 0.930 . S
C56 C55 1.372 . S
C56 C57 1.397 . S
C57 C56 1.397 . S
C57 C58 1.390 . S
C57 C73 1.476 . S
C58 H16 0.930 . S
C58 C57 1.390 . S
C58 C59 1.366 . S
C59 H17 0.932 . S
C59 C54 1.360 . S
C59 C58 1.366 . S
C60 C34 1.490 . S
C60 C61 1.380 . S
C60 C65 1.386 . S
C61 H18 0.930 . S
C61 C60 1.380 . S
C61 C62 1.381 . S
C62 H19 0.929 . S
C62 C61 1.381 . S
C62 C63 1.371 . S
C63 C62 1.371 . S
C63 C64 1.380 . S
C64 H20 0.931 . S
C64 C63 1.380 . S
C64 C65 1.387 . S
C65 H21 0.930 . S
C65 C60 1.386 . S
C65 C64 1.387 . S
C66 C35 1.519 1_655 S
C66 C67 1.377 . S
C66 C71 1.361 . S
C67 H22 0.929 . S
C67 C66 1.377 . S
C67 C68 1.386 . S
C68 H23 0.931 . S
C68 C67 1.386 . S
C68 C69 1.363 . S
C69 C68 1.363 . S
C69 C70 1.385 . S
C70 H24 0.930 . S
C70 C69 1.385 . S
C70 C71 1.396 . S
C71 H25 0.926 1_655 S
C71 C66 1.361 . S
C71 C70 1.396 . S
C72 O26 1.300 . S
C72 O27 1.209 . S
C72 C45 1.486 . S
C73 O28 1.199 . S
C73 O29 1.297 . S
C73 C57 1.476 . S
H74 O100 0.856 . S
H75 O103 0.854 . S
H76 C111 0.930 . S
H77 C112 0.930 . S
H78 C114 0.930 . S
H79 C115 0.930 . S
H80 C117 0.931 . S
H81 C118 0.930 . S
H82 C120 0.930 . S
H83 C121 0.929 . S
H84 C123 0.930 . S
H85 C124 0.931 . S
H86 C126 0.930 . S
H87 C127 0.929 . S
H88 C129 0.931 . S
H89 C130 0.930 . S
H90 C132 0.930 . S
H91 C133 0.932 . S
H92 C135 0.930 . S
H93 C136 0.929 . S
H94 C138 0.931 . S
H95 C139 0.930 . S
H96 C141 0.929 . S
H97 C142 0.931 . S
H98 C144 0.930 . S
H99 C145 0.944 . S
O100 H74 0.856 . S
O100 C146 1.300 . S
O101 C146 1.209 . S
O102 C147 1.199 . S
O103 H75 0.854 . S
O103 C147 1.297 . S
C104 C105 1.404 . S
C104 C109 1.397 . S
C104 C110 1.492 . S
C105 C104 1.404 . S
C105 C106 1.396 . S
C105 C116 1.492 . S
C106 C105 1.396 . S
C106 C107 1.397 . S
C106 C122 1.509 . S
C107 C106 1.397 . S
C107 C108 1.412 . S
C107 C128 1.485 . S
C108 C107 1.412 . S
C108 C109 1.388 . S
C108 C134 1.490 . S
C109 C104 1.397 . S
C109 C108 1.388 . S
C109 C140 1.519 1_545 S
C110 C104 1.492 . S
C110 C111 1.363 . S
C110 C115 1.390 1_545 S
C111 H76 0.930 . S
C111 C110 1.363 . S
C111 C112 1.372 1_545 S
C112 H77 0.930 . S
C112 C111 1.372 1_565 S
C112 C113 1.383 . S
C113 C112 1.383 . S
C113 C114 1.395 . S
C114 H78 0.930 . S
C114 C113 1.395 . S
C114 C115 1.362 . S
C115 H79 0.930 . S
C115 C110 1.390 1_565 S
C115 C114 1.362 . S
C116 C105 1.492 . S
C116 C117 1.377 . S
C116 C121 1.397 . S
C117 H80 0.931 . S
C117 C116 1.377 . S
C117 C118 1.376 . S
C118 H81 0.930 . S
C118 C117 1.376 . S
C118 C119 1.376 . S
C119 C118 1.376 . S
C119 C120 1.378 . S
C119 C146 1.486 . S
C120 H82 0.930 . S
C120 C119 1.378 . S
C120 C121 1.376 . S
C121 H83 0.929 . S
C121 C116 1.397 . S
C121 C120 1.376 . S
C122 C106 1.509 . S
C122 C123 1.391 . S
C122 C127 1.386 . S
C123 H84 0.930 . S
C123 C122 1.391 . S
C123 C124 1.375 . S
C124 H85 0.931 . S
C124 C123 1.375 . S
C124 C125 1.375 . S
C125 C124 1.375 . S
C125 C126 1.361 . S
C126 H86 0.930 . S
C126 C125 1.361 . S
C126 C127 1.399 . S
C127 H87 0.929 . S
C127 C122 1.386 . S
C127 C126 1.399 . S
C128 C107 1.485 . S
C128 C129 1.394 . S
C128 C133 1.360 . S
C129 H88 0.931 . S
C129 C128 1.394 . S
C129 C130 1.372 . S
C130 H89 0.930 . S
C130 C129 1.372 . S
C130 C131 1.397 . S
C131 C130 1.397 . S
C131 C132 1.390 . S
C131 C147 1.476 . S
C132 H90 0.930 . S
C132 C131 1.390 . S
C132 C133 1.366 . S
C133 H91 0.932 . S
C133 C128 1.360 . S
C133 C132 1.366 . S
C134 C108 1.490 . S
C134 C135 1.380 . S
C134 C139 1.386 . S
C135 H92 0.930 . S
C135 C134 1.380 . S
C135 C136 1.381 . S
C136 H93 0.929 . S
C136 C135 1.381 . S
C136 C137 1.371 . S
C137 C136 1.371 . S
C137 C138 1.380 . S
C138 H94 0.931 . S
C138 C137 1.380 . S
C138 C139 1.387 . S
C139 H95 0.930 . S
C139 C134 1.386 . S
C139 C138 1.387 . S
C140 C109 1.519 1_565 S
C140 C141 1.377 . S
C140 C145 1.361 . S
C141 H96 0.929 . S
C141 C140 1.377 . S
C141 C142 1.386 . S
C142 H97 0.931 . S
C142 C141 1.386 . S
C142 C143 1.363 . S
C143 C142 1.363 . S
C143 C144 1.385 . S
C144 H98 0.930 . S
C144 C143 1.385 . S
C144 C145 1.396 . S
C145 H99 0.944 . S
C145 C140 1.361 . S
C145 C144 1.396 . S
C146 O100 1.300 . S
C146 O101 1.209 . S
C146 C119 1.486 . S
C147 O102 1.199 . S
C147 O103 1.297 . S
C147 C131 1.476 . S
H148 O174 0.856 . S
H149 O177 0.854 . S
H150 C185 0.930 . S
H151 C186 0.930 . S
H152 C188 0.930 . S
H153 C189 0.930 . S
H154 C191 0.931 . S
H155 C192 0.930 . S
H156 C194 0.930 . S
H157 C195 0.929 . S
H158 C197 0.930 . S
H159 C198 0.931 . S
H160 C200 0.930 . S
H161 C201 0.929 . S
H162 C203 0.931 . S
H163 C204 0.930 . S
H164 C206 0.930 . S
H165 C207 0.932 . S
H166 C209 0.930 . S
H167 C210 0.929 . S
H168 C212 0.931 . S
H169 C213 0.930 . S
H170 C215 0.929 . S
H171 C216 0.931 . S
H172 C218 0.930 . S
H173 C219 0.929 . S
O174 H148 0.856 . S
O174 C220 1.300 . S
O175 C220 1.209 . S
O176 C221 1.199 . S
O177 H149 0.854 . S
O177 C221 1.297 . S
C178 C179 1.404 . S
C178 C183 1.397 . S
C178 C184 1.492 . S
C179 C178 1.404 . S
C179 C180 1.396 . S
C179 C190 1.492 . S
C180 C179 1.396 . S
C180 C181 1.397 . S
C180 C196 1.509 . S
C181 C180 1.397 . S
C181 C182 1.412 . S
C181 C202 1.485 . S
C182 C181 1.412 . S
C182 C183 1.388 . S
C182 C208 1.490 . S
C183 C178 1.397 . S
C183 C182 1.388 . S
C183 C214 1.519 . S
C184 C178 1.492 . S
C184 C185 1.363 . S
C184 C189 1.390 . S
C185 H150 0.930 . S
C185 C184 1.363 . S
C185 C186 1.372 . S
C186 H151 0.930 . S
C186 C185 1.372 . S
C186 C187 1.383 . S
C187 C186 1.383 . S
C187 C188 1.395 . S
C188 H152 0.930 . S
C188 C187 1.395 . S
C188 C189 1.362 . S
C189 H153 0.930 . S
C189 C184 1.390 . S
C189 C188 1.362 . S
C190 C179 1.492 . S
C190 C191 1.377 . S
C190 C195 1.397 . S
C191 H154 0.931 . S
C191 C190 1.377 . S
C191 C192 1.376 . S
C192 H155 0.930 . S
C192 C191 1.376 . S
C192 C193 1.376 . S
C193 C192 1.376 . S
C193 C194 1.378 . S
C193 C220 1.486 . S
C194 H156 0.930 . S
C194 C193 1.378 . S
C194 C195 1.376 . S
C195 H157 0.929 . S
C195 C190 1.397 . S
C195 C194 1.376 . S
C196 C180 1.509 . S
C196 C197 1.391 . S
C196 C201 1.386 . S
C197 H158 0.930 . S
C197 C196 1.391 . S
C197 C198 1.375 . S
C198 H159 0.931 . S
C198 C197 1.375 . S
C198 C199 1.375 . S
C199 C198 1.375 . S
C199 C200 1.361 . S
C200 H160 0.930 . S
C200 C199 1.361 . S
C200 C201 1.399 . S
C201 H161 0.929 . S
C201 C196 1.386 . S
C201 C200 1.399 . S
C202 C181 1.485 . S
C202 C203 1.394 . S
C202 C207 1.360 . S
C203 H162 0.931 . S
C203 C202 1.394 . S
C203 C204 1.372 . S
C204 H163 0.930 . S
C204 C203 1.372 . S
C204 C205 1.397 . S
C205 C204 1.397 . S
C205 C206 1.390 . S
C205 C221 1.476 . S
C206 H164 0.930 . S
C206 C205 1.390 . S
C206 C207 1.366 . S
C207 H165 0.932 . S
C207 C202 1.360 . S
C207 C206 1.366 . S
C208 C182 1.490 . S
C208 C209 1.380 . S
C208 C213 1.386 . S
C209 H166 0.930 . S
C209 C208 1.380 . S
C209 C210 1.381 . S
C210 H167 0.929 . S
C210 C209 1.381 . S
C210 C211 1.371 . S
C211 C210 1.371 . S
C211 C212 1.380 . S
C212 H168 0.931 . S
C212 C211 1.380 . S
C212 C213 1.387 . S
C213 H169 0.930 . S
C213 C208 1.386 . S
C213 C212 1.387 . S
C214 C183 1.519 . S
C214 C215 1.377 . S
C214 C219 1.361 . S
C215 H170 0.929 . S
C215 C214 1.377 . S
C215 C216 1.386 . S
C216 H171 0.931 . S
C216 C215 1.386 . S
C216 C217 1.363 . S
C217 C216 1.363 . S
C217 C218 1.385 . S
C218 H172 0.930 . S
C218 C217 1.385 . S
C218 C219 1.396 . S
C219 H173 0.929 . S
C219 C214 1.361 . S
C219 C218 1.396 . S
C220 O174 1.300 . S
C220 O175 1.209 . S
C220 C193 1.486 . S
C221 O176 1.199 . S
C221 O177 1.297 . S
C221 C205 1.476 . S
H222 O248 0.856 . S
H223 O251 0.854 . S
H224 C259 0.930 1_455 S
H225 C260 0.930 . S
H226 C262 0.930 . S
H227 C263 0.930 . S
H228 C265 0.931 . S
H229 C266 0.930 . S
H230 C268 0.930 . S
H231 C269 0.929 . S
H232 C271 0.930 . S
H233 C272 0.931 . S
H234 C274 0.930 . S
H235 C275 0.929 . S
H236 C277 0.931 . S
H237 C278 0.930 . S
H238 C280 0.930 . S
H239 C281 0.932 . S
H240 C283 0.930 . S
H241 C284 0.929 . S
H242 C286 0.931 . S
H243 C287 0.930 . S
H244 C289 0.929 . S
H245 C290 0.931 . S
H246 C292 0.930 . S
H247 C293 0.949 . S
O248 H222 0.856 . S
O248 C294 1.300 . S
O249 C294 1.209 . S
O250 C295 1.199 . S
O251 H223 0.854 . S
O251 C295 1.297 . S
C252 C253 1.404 . S
C252 C257 1.397 . S
C252 C258 1.492 . S
C253 C252 1.404 . S
C253 C254 1.396 . S
C253 C264 1.492 . S
C254 C253 1.396 . S
C254 C255 1.397 . S
C254 C270 1.509 . S
C255 C254 1.397 . S
C255 C256 1.412 . S
C255 C276 1.485 . S
C256 C255 1.412 . S
C256 C257 1.388 . S
C256 C282 1.490 . S
C257 C252 1.397 . S
C257 C256 1.388 . S
C257 C288 1.519 1_455 S
C258 C252 1.492 . S
C258 C259 1.363 1_455 S
C258 C263 1.390 1_455 S
C259 H224 0.930 1_655 S
C259 C258 1.363 1_655 S
C259 C260 1.372 . S
C260 H225 0.930 . S
C260 C259 1.372 . S
C260 C261 1.383 . S
C261 C260 1.383 . S
C261 C262 1.395 . S
C262 H226 0.930 . S
C262 C261 1.395 . S
C262 C263 1.362 . S
C263 H227 0.930 . S
C263 C258 1.390 1_655 S
C263 C262 1.362 . S
C264 C253 1.492 . S
C264 C265 1.377 . S
C264 C269 1.397 . S
C265 H228 0.931 . S
C265 C264 1.377 . S
C265 C266 1.376 . S
C266 H229 0.930 . S
C266 C265 1.376 . S
C266 C267 1.376 . S
C267 C266 1.376 . S
C267 C268 1.378 . S
C267 C294 1.486 . S
C268 H230 0.930 . S
C268 C267 1.378 . S
C268 C269 1.376 . S
C269 H231 0.929 . S
C269 C264 1.397 . S
C269 C268 1.376 . S
C270 C254 1.509 . S
C270 C271 1.391 . S
C270 C275 1.386 . S
C271 H232 0.930 . S
C271 C270 1.391 . S
C271 C272 1.375 . S
C272 H233 0.931 . S
C272 C271 1.375 . S
C272 C273 1.375 . S
C273 C272 1.375 . S
C273 C274 1.361 . S
C274 H234 0.930 . S
C274 C273 1.361 . S
C274 C275 1.399 . S
C275 H235 0.929 . S
C275 C270 1.386 . S
C275 C274 1.399 . S
C276 C255 1.485 . S
C276 C277 1.394 . S
C276 C281 1.360 . S
C277 H236 0.931 . S
C277 C276 1.394 . S
C277 C278 1.372 . S
C278 H237 0.930 . S
C278 C277 1.372 . S
C278 C279 1.397 . S
C279 C278 1.397 . S
C279 C280 1.390 . S
C279 C295 1.476 . S
C280 H238 0.930 . S
C280 C279 1.390 . S
C280 C281 1.366 . S
C281 H239 0.932 . S
C281 C276 1.360 . S
C281 C280 1.366 . S
C282 C256 1.490 . S
C282 C283 1.380 . S
C282 C287 1.386 . S
C283 H240 0.930 . S
C283 C282 1.380 . S
C283 C284 1.381 . S
C284 H241 0.929 . S
C284 C283 1.381 . S
C284 C285 1.371 . S
C285 C284 1.371 . S
C285 C286 1.380 . S
C286 H242 0.931 . S
C286 C285 1.380 . S
C286 C287 1.387 . S
C287 H243 0.930 . S
C287 C282 1.386 . S
C287 C286 1.387 . S
C288 C257 1.519 1_655 S
C288 C289 1.377 . S
C288 C293 1.361 . S
C289 H244 0.929 . S
C289 C288 1.377 . S
C289 C290 1.386 . S
C290 H245 0.931 . S
C290 C289 1.386 . S
C290 C291 1.363 . S
C291 C290 1.363 . S
C291 C292 1.385 . S
C292 H246 0.930 . S
C292 C291 1.385 . S
C292 C293 1.396 . S
C293 H247 0.949 . S
C293 C288 1.361 . S
C293 C292 1.396 . S
C294 O248 1.300 . S
C294 O249 1.209 . S
C294 C267 1.486 . S
C295 O250 1.199 . S
C295 O251 1.297 . S
C295 C279 1.476 . S
H296 O322 0.856 . S
H297 O325 0.854 . S
H298 C333 0.930 . S
H299 C334 0.930 . S
H300 C336 0.930 . S
H301 C337 0.930 . S
H302 C339 0.931 . S
H303 C340 0.930 . S
H304 C342 0.930 . S
H305 C343 0.929 . S
H306 C345 0.930 . S
H307 C346 0.931 . S
H308 C348 0.930 . S
H309 C349 0.929 . S
H310 C351 0.931 . S
H311 C352 0.930 . S
H312 C354 0.930 . S
H313 C355 0.932 . S
H314 C357 0.930 . S
H315 C358 0.929 1_545 S
H316 C360 0.931 . S
H317 C361 0.930 . S
H318 C363 0.921 1_556 S
H319 C364 0.931 . S
H320 C366 0.930 . S
H321 C367 0.929 . S
O322 H296 0.856 . S
O322 C368 1.300 . S
O323 C368 1.209 . S
O324 C369 1.199 . S
O325 H297 0.854 . S
O325 C369 1.297 . S
C326 C327 1.404 1_545 S
C326 C331 1.397 . S
C326 C332 1.492 . S
C327 C326 1.404 1_565 S
C327 C328 1.396 . S
C327 C338 1.492 . S
C328 C327 1.396 . S
C328 C329 1.397 . S
C328 C344 1.509 . S
C329 C328 1.397 . S
C329 C330 1.412 1_556 S
C329 C350 1.485 1_556 S
C330 C329 1.412 1_554 S
C330 C331 1.388 1_564 S
C330 C356 1.490 . S
C331 C326 1.397 . S
C331 C330 1.388 1_546 S
C331 C362 1.519 1_556 S
C332 C326 1.492 . S
C332 C333 1.363 . S
C332 C337 1.390 . S
C333 H298 0.930 . S
C333 C332 1.363 . S
C333 C334 1.372 . S
C334 H299 0.930 . S
C334 C333 1.372 . S
C334 C335 1.383 . S
C335 C334 1.383 . S
C335 C336 1.395 . S
C336 H300 0.930 . S
C336 C335 1.395 . S
C336 C337 1.362 . S
C337 H301 0.930 . S
C337 C332 1.390 . S
C337 C336 1.362 . S
C338 C327 1.492 . S
C338 C339 1.377 . S
C338 C343 1.397 . S
C339 H302 0.931 . S
C339 C338 1.377 . S
C339 C340 1.376 . S
C340 H303 0.930 . S
C340 C339 1.376 . S
C340 C341 1.376 . S
C341 C340 1.376 . S
C341 C342 1.378 . S
C341 C368 1.486 . S
C342 H304 0.930 . S
C342 C341 1.378 . S
C342 C343 1.376 . S
C343 H305 0.929 . S
C343 C338 1.397 . S
C343 C342 1.376 . S
C344 C328 1.509 . S
C344 C345 1.391 . S
C344 C349 1.386 . S
C345 H306 0.930 . S
C345 C344 1.391 . S
C345 C346 1.375 . S
C346 H307 0.931 . S
C346 C345 1.375 . S
C346 C347 1.375 . S
C347 C346 1.375 . S
C347 C348 1.361 . S
C348 H308 0.930 . S
C348 C347 1.361 . S
C348 C349 1.399 . S
C349 H309 0.929 . S
C349 C344 1.386 . S
C349 C348 1.399 . S
C350 C329 1.485 1_554 S
C350 C351 1.394 . S
C350 C355 1.360 . S
C351 H310 0.931 . S
C351 C350 1.394 . S
C351 C352 1.372 . S
C352 H311 0.930 . S
C352 C351 1.372 . S
C352 C353 1.397 . S
C353 C352 1.397 . S
C353 C354 1.390 . S
C353 C369 1.476 . S
C354 H312 0.930 . S
C354 C353 1.390 . S
C354 C355 1.366 . S
C355 H313 0.932 . S
C355 C350 1.360 . S
C355 C354 1.366 . S
C356 C330 1.490 . S
C356 C357 1.380 . S
C356 C361 1.386 . S
C357 H314 0.930 . S
C357 C356 1.380 . S
C357 C358 1.381 . S
C358 H315 0.929 1_565 S
C358 C357 1.381 . S
C358 C359 1.371 . S
C359 C358 1.371 . S
C359 C360 1.380 . S
C360 H316 0.931 . S
C360 C359 1.380 . S
C360 C361 1.387 . S
C361 H317 0.930 . S
C361 C356 1.386 . S
C361 C360 1.387 . S
C362 C331 1.519 1_554 S
C362 C363 1.378 . S
C362 C367 1.361 . S
C363 H318 0.921 1_554 S
C363 C362 1.378 . S
C363 C364 1.393 . S
C364 H319 0.931 . S
C364 C363 1.393 . S
C364 C365 1.363 . S
C365 C364 1.363 . S
C365 C366 1.385 . S
C366 H320 0.930 . S
C366 C365 1.385 . S
C366 C367 1.396 . S
C367 H321 0.929 . S
C367 C362 1.361 . S
C367 C366 1.396 . S
C368 O322 1.300 . S
C368 O323 1.209 . S
C368 C341 1.486 . S
C369 O324 1.199 . S
C369 O325 1.297 . S
C369 C353 1.476 . S
H370 O396 0.856 1_556 S
H371 O399 0.854 . S
H372 C407 0.930 . S
H373 C408 0.930 . S
H374 C410 0.930 . S
H375 C411 0.930 . S
H376 C413 0.931 . S
H377 C414 0.930 . S
H378 C416 0.930 . S
H379 C417 0.929 . S
H380 C419 0.930 . S
H381 C420 0.931 . S
H382 C422 0.930 . S
H383 C423 0.929 . S
H384 C425 0.931 . S
H385 C426 0.930 . S
H386 C428 0.930 . S
H387 C429 0.932 . S
H388 C431 0.930 . S
H389 C432 0.929 . S
H390 C434 0.931 . S
H391 C435 0.930 . S
H392 C437 0.929 . S
H393 C438 0.931 . S
H394 C440 0.930 . S
H395 C441 0.929 . S
O396 H370 0.856 1_554 S
O396 C442 1.300 . S
O397 C442 1.209 . S
O398 C443 1.199 . S
O399 H371 0.854 . S
O399 C443 1.297 . S
C400 C401 1.404 . S
C400 C405 1.397 . S
C400 C406 1.492 . S
C401 C400 1.404 . S
C401 C402 1.396 . S
C401 C412 1.492 . S
C402 C401 1.396 . S
C402 C403 1.397 . S
C402 C418 1.509 . S
C403 C402 1.397 . S
C403 C404 1.412 . S
C403 C424 1.485 . S
C404 C403 1.412 . S
C404 C405 1.388 . S
C404 C430 1.490 . S
C405 C400 1.397 . S
C405 C404 1.388 . S
C405 C436 1.519 . S
C406 C400 1.492 . S
C406 C407 1.363 . S
C406 C411 1.390 . S
C407 H372 0.930 . S
C407 C406 1.363 . S
C407 C408 1.372 . S
C408 H373 0.930 . S
C408 C407 1.372 . S
C408 C409 1.383 . S
C409 C408 1.383 . S
C409 C410 1.395 . S
C410 H374 0.930 . S
C410 C409 1.395 . S
C410 C411 1.362 . S
C411 H375 0.930 . S
C411 C406 1.390 . S
C411 C410 1.362 . S
C412 C401 1.492 . S
C412 C413 1.377 . S
C412 C417 1.397 . S
C413 H376 0.931 . S
C413 C412 1.377 . S
C413 C414 1.376 . S
C414 H377 0.930 . S
C414 C413 1.376 . S
C414 C415 1.376 . S
C415 C414 1.376 . S
C415 C416 1.378 . S
C415 C442 1.486 . S
C416 H378 0.930 . S
C416 C415 1.378 . S
C416 C417 1.376 . S
C417 H379 0.929 . S
C417 C412 1.397 . S
C417 C416 1.376 . S
C418 C402 1.509 . S
C418 C419 1.391 . S
C418 C423 1.386 . S
C419 H380 0.930 . S
C419 C418 1.391 . S
C419 C420 1.375 . S
C420 H381 0.931 . S
C420 C419 1.375 . S
C420 C421 1.375 . S
C421 C420 1.375 . S
C421 C422 1.361 . S
C422 H382 0.930 . S
C422 C421 1.361 . S
C422 C423 1.399 . S
C423 H383 0.929 . S
C423 C418 1.386 . S
C423 C422 1.399 . S
C424 C403 1.485 . S
C424 C425 1.394 . S
C424 C429 1.360 . S
C425 H384 0.931 . S
C425 C424 1.394 . S
C425 C426 1.372 . S
C426 H385 0.930 . S
C426 C425 1.372 . S
C426 C427 1.397 . S
C427 C426 1.397 . S
C427 C428 1.390 . S
C427 C443 1.476 . S
C428 H386 0.930 . S
C428 C427 1.390 . S
C428 C429 1.366 . S
C429 H387 0.932 . S
C429 C424 1.360 . S
C429 C428 1.366 . S
C430 C404 1.490 . S
C430 C431 1.380 . S
C430 C435 1.386 . S
C431 H388 0.930 . S
C431 C430 1.380 . S
C431 C432 1.381 . S
C432 H389 0.929 . S
C432 C431 1.381 . S
C432 C433 1.371 . S
C433 C432 1.371 . S
C433 C434 1.380 . S
C434 H390 0.931 . S
C434 C433 1.380 . S
C434 C435 1.387 . S
C435 H391 0.930 . S
C435 C430 1.386 . S
C435 C434 1.387 . S
C436 C405 1.519 . S
C436 C437 1.377 . S
C436 C441 1.361 . S
C437 H392 0.929 . S
C437 C436 1.377 . S
C437 C438 1.386 . S
C438 H393 0.931 . S
C438 C437 1.386 . S
C438 C439 1.363 . S
C439 C438 1.363 . S
C439 C440 1.385 . S
C440 H394 0.930 . S
C440 C439 1.385 . S
C440 C441 1.396 . S
C441 H395 0.929 . S
C441 C436 1.361 . S
C441 C440 1.396 . S
C442 O396 1.300 . S
C442 O397 1.209 . S
C442 C415 1.486 . S
C443 O398 1.199 . S
C443 O399 1.297 . S
C443 C427 1.476 . S
Mn444 O449 2.095 . S
Mn444 O459 2.162 . S
Mn444 O460 2.297 . S
Mn444 O468 2.385 . S
Mn444 O469 2.209 . S
Mn444 O470 2.094 . S
Mn445 O450 2.121 . S
Mn445 N452 2.257 . S
Mn445 N461 2.282 . S
Mn445 O469 2.215 . S
Mn445 O471 2.117 . S
C446 O468 1.234 . S
C446 O469 1.283 . S
C447 O459 1.281 . S
C447 O460 1.236 . S
C448 O470 1.240 . S
C448 O471 1.264 . S
O449 Mn444 2.095 . S
O449 C458 1.250 . S
O450 Mn445 2.121 . S
O450 C458 1.258 . S
C451 N452 1.326 . S
C451 C455 1.460 . S
C451 H457 0.929 . S
N452 Mn445 2.257 . S
N452 C451 1.326 . S
N452 C456 1.362 . S
C453 C454 1.258 . S
C453 C456 1.431 . S
C453 C473 1.449 . S
C454 C453 1.258 . S
C454 C455 1.477 . S
C454 H474 0.931 . S
C455 C451 1.460 . S
C455 C454 1.477 . S
C455 H475 0.930 . S
C456 N452 1.362 . S
C456 C453 1.431 . S
C456 C466 1.476 . S
H457 C451 0.929 . S
C458 O449 1.250 . S
C458 O450 1.258 . S
O459 Mn444 2.162 . S
O459 C447 1.281 . S
O460 Mn444 2.297 . S
O460 C447 1.236 . S
N461 Mn445 2.282 . S
N461 C462 1.328 . S
N461 C466 1.318 . S
C462 N461 1.328 . S
C462 C463 1.457 . S
C462 H467 0.929 . S
C463 C462 1.457 . S
C463 C464 1.291 . S
C463 H476 0.931 . S
C464 C463 1.291 . S
C464 C465 1.373 . S
C464 H477 0.929 . S
C465 C464 1.373 . S
C465 C466 1.396 . S
C465 C472 1.403 . S
C466 C456 1.476 . S
C466 N461 1.318 . S
C466 C465 1.396 . S
H467 C462 0.929 . S
O468 Mn444 2.385 . S
O468 C446 1.234 . S
O469 Mn444 2.209 . S
O469 Mn445 2.215 . S
O469 C446 1.283 . S
O470 Mn444 2.094 . S
O470 C448 1.240 . S
O471 Mn445 2.117 . S
O471 C448 1.264 . S
C472 C465 1.403 . S
C472 C473 1.399 . S
C472 H478 0.929 . S
C473 C453 1.449 . S
C473 C472 1.399 . S
C473 H479 0.930 . S
H474 C454 0.931 . S
H475 C455 0.930 . S
H476 C463 0.931 . S
H477 C464 0.929 . S
H478 C472 0.929 . S
H479 C473 0.930 . S
Mn480 O485 2.095 . S
Mn480 O495 2.162 . S
Mn480 O496 2.297 . S
Mn480 O504 2.385 . S
Mn480 O505 2.209 . S
Mn480 O506 2.094 . S
Mn481 O486 2.121 . S
Mn481 N488 2.257 . S
Mn481 N497 2.282 . S
Mn481 O505 2.215 . S
Mn481 O507 2.117 . S
C482 O504 1.234 . S
C482 O505 1.283 . S
C483 O495 1.281 . S
C483 O496 1.236 . S
C484 O506 1.240 . S
C484 O507 1.264 . S
O485 Mn480 2.095 . S
O485 C494 1.250 . S
O486 Mn481 2.121 . S
O486 C494 1.258 . S
C487 N488 1.326 . S
C487 C491 1.460 . S
C487 H493 0.929 . S
N488 Mn481 2.257 . S
N488 C487 1.326 . S
N488 C492 1.362 . S
C489 C490 1.258 . S
C489 C492 1.431 . S
C489 C509 1.449 . S
C490 C489 1.258 . S
C490 C491 1.477 . S
C490 H510 0.931 . S
C491 C487 1.460 . S
C491 C490 1.477 . S
C491 H511 0.930 . S
C492 N488 1.362 . S
C492 C489 1.431 . S
C492 C502 1.476 . S
H493 C487 0.929 . S
C494 O485 1.250 . S
C494 O486 1.258 . S
O495 Mn480 2.162 . S
O495 C483 1.281 . S
O496 Mn480 2.297 . S
O496 C483 1.236 . S
N497 Mn481 2.282 . S
N497 C498 1.328 . S
N497 C502 1.318 . S
C498 N497 1.328 . S
C498 C499 1.457 . S
C498 H503 0.929 . S
C499 C498 1.457 . S
C499 C500 1.291 . S
C499 H512 0.931 . S
C500 C499 1.291 . S
C500 C501 1.373 . S
C500 H513 0.929 . S
C501 C500 1.373 . S
C501 C502 1.396 . S
C501 C508 1.403 . S
C502 C492 1.476 . S
C502 N497 1.318 . S
C502 C501 1.396 . S
H503 C498 0.929 . S
O504 Mn480 2.385 . S
O504 C482 1.234 . S
O505 Mn480 2.209 . S
O505 Mn481 2.215 . S
O505 C482 1.283 . S
O506 Mn480 2.094 . S
O506 C484 1.240 . S
O507 Mn481 2.117 . S
O507 C484 1.264 . S
C508 C501 1.403 . S
C508 C509 1.399 . S
C508 H514 0.929 . S
C509 C489 1.449 . S
C509 C508 1.399 . S
C509 H515 0.930 . S
H510 C490 0.931 . S
H511 C491 0.930 . S
H512 C499 0.931 . S
H513 C500 0.929 . S
H514 C508 0.929 . S
H515 C509 0.930 . S
Mn516 O521 2.095 . S
Mn516 O531 2.162 . S
Mn516 O532 2.297 . S
Mn516 O540 2.385 . S
Mn516 O541 2.209 . S
Mn516 O542 2.094 . S
Mn517 O522 2.121 . S
Mn517 N524 2.257 . S
Mn517 N533 2.282 . S
Mn517 O541 2.215 . S
Mn517 O543 2.117 . S
C518 O540 1.234 . S
C518 O541 1.283 . S
C519 O531 1.281 . S
C519 O532 1.236 . S
C520 O542 1.240 . S
C520 O543 1.264 . S
O521 Mn516 2.095 . S
O521 C530 1.250 . S
O522 Mn517 2.121 . S
O522 C530 1.258 . S
C523 N524 1.326 . S
C523 C527 1.460 . S
C523 H529 0.929 . S
N524 Mn517 2.257 . S
N524 C523 1.326 . S
N524 C528 1.362 . S
C525 C526 1.258 . S
C525 C528 1.431 . S
C525 C545 1.449 . S
C526 C525 1.258 . S
C526 C527 1.477 . S
C526 H546 0.931 . S
C527 C523 1.460 . S
C527 C526 1.477 . S
C527 H547 0.930 . S
C528 N524 1.362 . S
C528 C525 1.431 . S
C528 C538 1.476 . S
H529 C523 0.929 . S
C530 O521 1.250 . S
C530 O522 1.258 . S
O531 Mn516 2.162 . S
O531 C519 1.281 . S
O532 Mn516 2.297 . S
O532 C519 1.236 . S
N533 Mn517 2.282 . S
N533 C534 1.328 . S
N533 C538 1.318 . S
C534 N533 1.328 . S
C534 C535 1.457 . S
C534 H539 0.929 . S
C535 C534 1.457 . S
C535 C536 1.291 . S
C535 H548 0.931 . S
C536 C535 1.291 . S
C536 C537 1.373 . S
C536 H549 0.929 . S
C537 C536 1.373 . S
C537 C538 1.396 . S
C537 C544 1.403 . S
C538 C528 1.476 . S
C538 N533 1.318 . S
C538 C537 1.396 . S
H539 C534 0.929 . S
O540 Mn516 2.385 . S
O540 C518 1.234 . S
O541 Mn516 2.209 . S
O541 Mn517 2.215 . S
O541 C518 1.283 . S
O542 Mn516 2.094 . S
O542 C520 1.240 . S
O543 Mn517 2.117 . S
O543 C520 1.264 . S
C544 C537 1.403 . S
C544 C545 1.399 . S
C544 H550 0.929 . S
C545 C525 1.449 . S
C545 C544 1.399 . S
C545 H551 0.930 . S
H546 C526 0.931 . S
H547 C527 0.930 . S
H548 C535 0.931 . S
H549 C536 0.929 . S
H550 C544 0.929 . S
H551 C545 0.930 . S
Mn552 O557 2.095 . S
Mn552 O567 2.162 . S
Mn552 O568 2.297 . S
Mn552 O576 2.385 . S
Mn552 O577 2.209 . S
Mn552 O578 2.094 . S
Mn553 O558 2.121 . S
Mn553 N560 2.257 . S
Mn553 N569 2.282 . S
Mn553 O577 2.215 . S
Mn553 O579 2.117 . S
C554 O576 1.234 . S
C554 O577 1.283 . S
C555 O567 1.281 . S
C555 O568 1.236 . S
C556 O578 1.240 . S
C556 O579 1.264 . S
O557 Mn552 2.095 . S
O557 C566 1.250 . S
O558 Mn553 2.121 . S
O558 C566 1.258 . S
C559 N560 1.326 . S
C559 C563 1.460 . S
C559 H565 0.929 . S
N560 Mn553 2.257 . S
N560 C559 1.326 . S
N560 C564 1.362 . S
C561 C562 1.258 . S
C561 C564 1.431 . S
C561 C581 1.449 . S
C562 C561 1.258 . S
C562 C563 1.477 . S
C562 H582 0.931 . S
C563 C559 1.460 . S
C563 C562 1.477 . S
C563 H583 0.930 . S
C564 N560 1.362 . S
C564 C561 1.431 . S
C564 C574 1.476 . S
H565 C559 0.929 . S
C566 O557 1.250 . S
C566 O558 1.258 . S
O567 Mn552 2.162 . S
O567 C555 1.281 . S
O568 Mn552 2.297 . S
O568 C555 1.236 . S
N569 Mn553 2.282 . S
N569 C570 1.328 . S
N569 C574 1.318 . S
C570 N569 1.328 . S
C570 C571 1.457 . S
C570 H575 0.929 . S
C571 C570 1.457 . S
C571 C572 1.291 . S
C571 H584 0.931 . S
C572 C571 1.291 . S
C572 C573 1.373 . S
C572 H585 0.929 . S
C573 C572 1.373 . S
C573 C574 1.396 . S
C573 C580 1.403 . S
C574 C564 1.476 . S
C574 N569 1.318 . S
C574 C573 1.396 . S
H575 C570 0.929 . S
O576 Mn552 2.385 . S
O576 C554 1.234 . S
O577 Mn552 2.209 . S
O577 Mn553 2.215 . S
O577 C554 1.283 . S
O578 Mn552 2.094 . S
O578 C556 1.240 . S
O579 Mn553 2.117 . S
O579 C556 1.264 . S
C580 C573 1.403 . S
C580 C581 1.399 . S
C580 H586 0.929 . S
C581 C561 1.449 . S
C581 C580 1.399 . S
C581 H587 0.930 . S
H582 C562 0.931 . S
H583 C563 0.930 . S
H584 C571 0.931 . S
H585 C572 0.929 . S
H586 C580 0.929 . S
H587 C581 0.930 . S
Mn588 O593 2.095 . S
Mn588 O603 2.162 . S
Mn588 O604 2.297 . S
Mn588 O612 2.385 . S
Mn588 O613 2.209 . S
Mn588 O614 2.094 . S
Mn589 O594 2.121 . S
Mn589 N596 2.257 . S
Mn589 N605 2.282 . S
Mn589 O613 2.215 . S
Mn589 O615 2.117 . S
C590 O612 1.234 . S
C590 O613 1.283 . S
C591 O603 1.281 . S
C591 O604 1.236 . S
C592 O614 1.240 . S
C592 O615 1.264 . S
O593 Mn588 2.095 . S
O593 C602 1.250 . S
O594 Mn589 2.121 . S
O594 C602 1.258 . S
C595 N596 1.326 . S
C595 C599 1.460 . S
C595 H601 0.929 . S
N596 Mn589 2.257 . S
N596 C595 1.326 . S
N596 C600 1.362 . S
C597 C598 1.258 . S
C597 C600 1.431 . S
C597 C617 1.449 . S
C598 C597 1.258 . S
C598 C599 1.477 . S
C598 H618 0.931 . S
C599 C595 1.460 . S
C599 C598 1.477 . S
C599 H619 0.930 . S
C600 N596 1.362 . S
C600 C597 1.431 . S
C600 C610 1.476 . S
H601 C595 0.929 . S
C602 O593 1.250 . S
C602 O594 1.258 . S
O603 Mn588 2.162 . S
O603 C591 1.281 . S
O604 Mn588 2.297 . S
O604 C591 1.236 . S
N605 Mn589 2.282 . S
N605 C606 1.328 . S
N605 C610 1.318 . S
C606 N605 1.328 . S
C606 C607 1.457 . S
C606 H611 0.929 . S
C607 C606 1.457 . S
C607 C608 1.291 . S
C607 H620 0.931 . S
C608 C607 1.291 . S
C608 C609 1.373 . S
C608 H621 0.929 . S
C609 C608 1.373 . S
C609 C610 1.396 . S
C609 C616 1.403 . S
C610 C600 1.476 . S
C610 N605 1.318 . S
C610 C609 1.396 . S
H611 C606 0.929 . S
O612 Mn588 2.385 . S
O612 C590 1.234 . S
O613 Mn588 2.209 . S
O613 Mn589 2.215 . S
O613 C590 1.283 . S
O614 Mn588 2.094 . S
O614 C592 1.240 . S
O615 Mn589 2.117 . S
O615 C592 1.264 . S
C616 C609 1.403 . S
C616 C617 1.399 . S
C616 H622 0.929 . S
C617 C597 1.449 . S
C617 C616 1.399 . S
C617 H623 0.930 . S
H618 C598 0.931 . S
H619 C599 0.930 . S
H620 C607 0.931 . S
H621 C608 0.929 . S
H622 C616 0.929 . S
H623 C617 0.930 . S
Mn624 O629 2.095 . S
Mn624 O639 2.162 . S
Mn624 O640 2.297 . S
Mn624 O648 2.385 . S
Mn624 O649 2.209 . S
Mn624 O650 2.094 . S
Mn625 O630 2.121 . S
Mn625 N632 2.257 . S
Mn625 N641 2.282 . S
Mn625 O649 2.215 . S
Mn625 O651 2.117 . S
C626 O648 1.234 . S
C626 O649 1.283 . S
C627 O639 1.281 . S
C627 O640 1.236 . S
C628 O650 1.240 . S
C628 O651 1.264 . S
O629 Mn624 2.095 . S
O629 C638 1.250 . S
O630 Mn625 2.121 . S
O630 C638 1.258 . S
C631 N632 1.326 . S
C631 C635 1.460 . S
C631 H637 0.929 . S
N632 Mn625 2.257 . S
N632 C631 1.326 . S
N632 C636 1.362 . S
C633 C634 1.258 . S
C633 C636 1.431 . S
C633 C653 1.449 . S
C634 C633 1.258 . S
C634 C635 1.477 . S
C634 H654 0.931 . S
C635 C631 1.460 . S
C635 C634 1.477 . S
C635 H655 0.930 . S
C636 N632 1.362 . S
C636 C633 1.431 . S
C636 C646 1.476 . S
H637 C631 0.929 . S
C638 O629 1.250 . S
C638 O630 1.258 . S
O639 Mn624 2.162 . S
O639 C627 1.281 . S
O640 Mn624 2.297 . S
O640 C627 1.236 . S
N641 Mn625 2.282 . S
N641 C642 1.328 . S
N641 C646 1.318 . S
C642 N641 1.328 . S
C642 C643 1.457 . S
C642 H647 0.929 . S
C643 C642 1.457 . S
C643 C644 1.291 . S
C643 H656 0.931 . S
C644 C643 1.291 . S
C644 C645 1.373 . S
C644 H657 0.929 1_565 S
C645 C644 1.373 . S
C645 C646 1.396 . S
C645 C652 1.403 . S
C646 C636 1.476 . S
C646 N641 1.318 . S
C646 C645 1.396 . S
H647 C642 0.929 . S
O648 Mn624 2.385 . S
O648 C626 1.234 . S
O649 Mn624 2.209 . S
O649 Mn625 2.215 . S
O649 C626 1.283 . S
O650 Mn624 2.094 . S
O650 C628 1.240 . S
O651 Mn625 2.117 . S
O651 C628 1.264 . S
C652 C645 1.403 . S
C652 C653 1.399 . S
C652 H658 0.929 . S
C653 C633 1.449 . S
C653 C652 1.399 . S
C653 H659 0.930 . S
H654 C634 0.931 . S
H655 C635 0.930 . S
H656 C643 0.931 . S
H657 C644 0.929 1_545 S
H658 C652 0.929 . S
H659 C653 0.930 . S
H660 C672 0.930 . S
H661 C674 0.930 . S
H662 C675 0.930 . S
H663 C679 0.959 . S
H664 C679 0.959 . S
H665 C679 0.961 . S
H666 C680 0.960 . S
H667 C680 0.961 . S
H668 C680 0.959 . S
H669 C683 0.929 . S
H670 C684 0.931 . S
H671 C686 0.930 . S
C672 H660 0.930 . S
C672 C673 1.399 . S
C672 C677 1.399 . S
C673 C672 1.399 . S
C673 C674 1.376 . S
C674 H661 0.930 . S
C674 C673 1.376 . S
C674 C675 1.388 . S
C675 H662 0.930 . S
C675 C674 1.388 . S
C675 C676 1.390 . S
C676 C675 1.390 . S
C676 C677 1.394 . S
C676 C682 1.465 . S
C677 C672 1.399 . S
C677 C676 1.394 . S
C677 C678 1.516 . S
C678 C677 1.516 . S
C678 C679 1.502 . S
C678 C680 1.561 . S
C678 C681 1.526 . S
C679 H663 0.959 . S
C679 H664 0.959 . S
C679 H665 0.961 . S
C679 C678 1.502 . S
C680 H666 0.960 . S
C680 H667 0.961 . S
C680 H668 0.959 . S
C680 C678 1.561 . S
C681 C678 1.526 . S
C681 C682 1.396 . S
C681 C686 1.390 . S
C682 C676 1.465 . S
C682 C681 1.396 . S
C682 C683 1.399 . S
C683 H669 0.929 . S
C683 C682 1.399 . S
C683 C684 1.385 . S
C684 H670 0.931 . S
C684 C683 1.385 . S
C684 C685 1.389 . S
C685 C684 1.389 . S
C685 C686 1.387 . S
C686 H671 0.930 . S
C686 C681 1.390 . S
C686 C685 1.387 . S
H687 C699 0.930 . S
H688 C701 0.930 . S
H689 C702 0.930 . S
H690 C706 0.959 . S
H691 C706 0.959 . S
H692 C706 0.961 . S
H693 C707 0.960 . S
H694 C707 0.961 . S
H695 C707 0.959 . S
H696 C710 0.929 . S
H697 C711 0.931 . S
H698 C713 0.930 . S
C699 H687 0.930 . S
C699 C700 1.399 . S
C699 C704 1.399 . S
C700 C699 1.399 . S
C700 C701 1.376 . S
C701 H688 0.930 . S
C701 C700 1.376 . S
C701 C702 1.388 . S
C702 H689 0.930 . S
C702 C701 1.388 . S
C702 C703 1.390 . S
C703 C702 1.390 . S
C703 C704 1.394 . S
C703 C709 1.465 . S
C704 C699 1.399 . S
C704 C703 1.394 . S
C704 C705 1.516 . S
C705 C704 1.516 . S
C705 C706 1.502 . S
C705 C707 1.561 . S
C705 C708 1.526 . S
C706 H690 0.959 . S
C706 H691 0.959 . S
C706 H692 0.961 . S
C706 C705 1.502 . S
C707 H693 0.960 . S
C707 H694 0.961 . S
C707 H695 0.959 . S
C707 C705 1.561 . S
C708 C705 1.526 . S
C708 C709 1.396 . S
C708 C713 1.390 . S
C709 C703 1.465 . S
C709 C708 1.396 . S
C709 C710 1.399 . S
C710 H696 0.929 . S
C710 C709 1.399 . S
C710 C711 1.385 . S
C711 H697 0.931 . S
C711 C710 1.385 . S
C711 C712 1.389 . S
C712 C711 1.389 . S
C712 C713 1.387 . S
C713 H698 0.930 . S
C713 C708 1.390 . S
C713 C712 1.387 . S
H714 C726 0.930 . S
H715 C728 0.930 . S
H716 C729 0.930 . S
H717 C733 0.959 . S
H718 C733 0.959 . S
H719 C733 0.961 . S
H720 C734 0.960 . S
H721 C734 0.961 . S
H722 C734 0.959 . S
H723 C737 0.929 . S
H724 C738 0.931 . S
H725 C740 0.930 . S
C726 H714 0.930 . S
C726 C727 1.399 . S
C726 C731 1.399 . S
C727 C726 1.399 . S
C727 C728 1.376 . S
C728 H715 0.930 . S
C728 C727 1.376 . S
C728 C729 1.388 . S
C729 H716 0.930 . S
C729 C728 1.388 . S
C729 C730 1.390 . S
C730 C729 1.390 . S
C730 C731 1.394 . S
C730 C736 1.465 . S
C731 C726 1.399 . S
C731 C730 1.394 . S
C731 C732 1.516 . S
C732 C731 1.516 . S
C732 C733 1.502 . S
C732 C734 1.561 . S
C732 C735 1.526 . S
C733 H717 0.959 . S
C733 H718 0.959 . S
C733 H719 0.961 . S
C733 C732 1.502 . S
C734 H720 0.960 . S
C734 H721 0.961 . S
C734 H722 0.959 . S
C734 C732 1.561 . S
C735 C732 1.526 . S
C735 C736 1.396 . S
C735 C740 1.390 . S
C736 C730 1.465 . S
C736 C735 1.396 . S
C736 C737 1.399 . S
C737 H723 0.929 . S
C737 C736 1.399 . S
C737 C738 1.385 . S
C738 H724 0.931 . S
C738 C737 1.385 . S
C738 C739 1.389 . S
C739 C738 1.389 . S
C739 C740 1.387 . S
C740 H725 0.930 . S
C740 C735 1.390 . S
C740 C739 1.387 . S
H741 C753 0.930 . S
H742 C755 0.930 . S
H743 C756 0.930 . S
H744 C760 0.959 . S
H745 C760 0.959 . S
H746 C760 0.961 . S
H747 C761 0.960 . S
H748 C761 0.961 . S
H749 C761 0.959 . S
H750 C764 0.929 . S
H751 C765 0.931 . S
H752 C767 0.930 . S
C753 H741 0.930 . S
C753 C754 1.399 . S
C753 C758 1.399 . S
C754 C753 1.399 . S
C754 C755 1.376 . S
C755 H742 0.930 . S
C755 C754 1.376 . S
C755 C756 1.388 . S
C756 H743 0.930 . S
C756 C755 1.388 . S
C756 C757 1.390 . S
C757 C756 1.390 . S
C757 C758 1.394 . S
C757 C763 1.465 . S
C758 C753 1.399 . S
C758 C757 1.394 . S
C758 C759 1.516 . S
C759 C758 1.516 . S
C759 C760 1.502 . S
C759 C761 1.561 . S
C759 C762 1.526 . S
C760 H744 0.959 . S
C760 H745 0.959 . S
C760 H746 0.961 . S
C760 C759 1.502 . S
C761 H747 0.960 . S
C761 H748 0.961 . S
C761 H749 0.959 . S
C761 C759 1.561 . S
C762 C759 1.526 . S
C762 C763 1.396 . S
C762 C767 1.390 . S
C763 C757 1.465 . S
C763 C762 1.396 . S
C763 C764 1.399 . S
C764 H750 0.929 . S
C764 C763 1.399 . S
C764 C765 1.385 . S
C765 H751 0.931 . S
C765 C764 1.385 . S
C765 C766 1.389 . S
C766 C765 1.389 . S
C766 C767 1.387 . S
C767 H752 0.930 . S
C767 C762 1.390 . S
C767 C766 1.387 . S
H768 C780 0.930 . S
H769 C782 0.930 . S
H770 C783 0.930 . S
H771 C787 0.959 . S
H772 C787 0.959 . S
H773 C787 0.961 . S
H774 C788 0.960 . S
H775 C788 0.961 . S
H776 C788 0.959 . S
H777 C791 0.929 . S
H778 C792 0.931 . S
H779 C794 0.930 . S
C780 H768 0.930 . S
C780 C781 1.399 . S
C780 C785 1.399 . S
C781 C780 1.399 . S
C781 C782 1.376 . S
C782 H769 0.930 . S
C782 C781 1.376 . S
C782 C783 1.388 . S
C783 H770 0.930 . S
C783 C782 1.388 . S
C783 C784 1.390 . S
C784 C783 1.390 . S
C784 C785 1.394 . S
C784 C790 1.465 . S
C785 C780 1.399 . S
C785 C784 1.394 . S
C785 C786 1.516 . S
C786 C785 1.516 . S
C786 C787 1.502 . S
C786 C788 1.561 . S
C786 C789 1.526 . S
C787 H771 0.959 . S
C787 H772 0.959 . S
C787 H773 0.961 . S
C787 C786 1.502 . S
C788 H774 0.960 . S
C788 H775 0.961 . S
C788 H776 0.959 . S
C788 C786 1.561 . S
C789 C786 1.526 . S
C789 C790 1.396 . S
C789 C794 1.390 . S
C790 C784 1.465 . S
C790 C789 1.396 . S
C790 C791 1.399 . S
C791 H777 0.929 . S
C791 C790 1.399 . S
C791 C792 1.385 . S
C792 H778 0.931 . S
C792 C791 1.385 . S
C792 C793 1.389 . S
C793 C792 1.389 . S
C793 C794 1.387 . S
C794 H779 0.930 . S
C794 C789 1.390 . S
C794 C793 1.387 . S
H795 C807 0.930 . S
H796 C809 0.930 . S
H797 C810 0.930 . S
H798 C814 0.959 . S
H799 C814 0.959 . S
H800 C814 0.961 . S
H801 C815 0.960 . S
H802 C815 0.961 . S
H803 C815 0.959 . S
H804 C818 0.929 . S
H805 C819 0.931 . S
H806 C821 0.930 . S
C807 H795 0.930 . S
C807 C808 1.399 . S
C807 C812 1.399 . S
C808 C807 1.399 . S
C808 C809 1.376 . S
C809 H796 0.930 . S
C809 C808 1.376 . S
C809 C810 1.388 . S
C810 H797 0.930 . S
C810 C809 1.388 . S
C810 C811 1.390 . S
C811 C810 1.390 . S
C811 C812 1.394 . S
C811 C817 1.465 . S
C812 C807 1.399 . S
C812 C811 1.394 . S
C812 C813 1.516 . S
C813 C812 1.516 . S
C813 C814 1.502 . S
C813 C815 1.561 . S
C813 C816 1.526 . S
C814 H798 0.959 . S
C814 H799 0.959 . S
C814 H800 0.961 . S
C814 C813 1.502 . S
C815 H801 0.960 . S
C815 H802 0.961 . S
C815 H803 0.959 . S
C815 C813 1.561 . S
C816 C813 1.526 . S
C816 C817 1.396 . S
C816 C821 1.390 . S
C817 C811 1.465 . S
C817 C816 1.396 . S
C817 C818 1.399 . S
C818 H804 0.929 . S
C818 C817 1.399 . S
C818 C819 1.385 . S
C819 H805 0.931 . S
C819 C818 1.385 . S
C819 C820 1.389 . S
C820 C819 1.389 . S
C820 C821 1.387 . S
C821 H806 0.930 . S
C821 C816 1.390 . S
C821 C820 1.387 . S
H822 C834 0.930 . S
H823 C836 0.930 . S
H824 C837 0.930 . S
H825 C841 0.959 . S
H826 C841 0.959 . S
H827 C841 0.961 . S
H828 C842 0.960 . S
H829 C842 0.961 . S
H830 C842 0.959 . S
H831 C845 0.929 . S
H832 C846 0.931 . S
H833 C848 0.930 . S
C834 H822 0.930 . S
C834 C835 1.399 . S
C834 C839 1.399 . S
C835 C834 1.399 . S
C835 C836 1.376 . S
C836 H823 0.930 . S
C836 C835 1.376 . S
C836 C837 1.388 . S
C837 H824 0.930 . S
C837 C836 1.388 . S
C837 C838 1.390 . S
C838 C837 1.390 . S
C838 C839 1.394 . S
C838 C844 1.465 . S
C839 C834 1.399 . S
C839 C838 1.394 . S
C839 C840 1.516 . S
C840 C839 1.516 . S
C840 C841 1.502 . S
C840 C842 1.561 . S
C840 C843 1.526 . S
C841 H825 0.959 . S
C841 H826 0.959 . S
C841 H827 0.961 . S
C841 C840 1.502 . S
C842 H828 0.960 . S
C842 H829 0.961 . S
C842 H830 0.959 . S
C842 C840 1.561 . S
C843 C840 1.526 . S
C843 C844 1.396 . S
C843 C848 1.390 . S
C844 C838 1.465 . S
C844 C843 1.396 . S
C844 C845 1.399 . S
C845 H831 0.929 . S
C845 C844 1.399 . S
C845 C846 1.385 . S
C846 H832 0.931 . S
C846 C845 1.385 . S
C846 C847 1.389 . S
C847 C846 1.389 . S
C847 C848 1.387 . S
C848 H833 0.930 . S
C848 C843 1.390 . S
C848 C847 1.387 . S
H849 C861 0.930 . S
H850 C863 0.930 . S
H851 C864 0.930 . S
H852 C868 0.959 . S
H853 C868 0.959 . S
H854 C868 0.961 . S
H855 C869 0.960 . S
H856 C869 0.961 . S
H857 C869 0.959 . S
H858 C872 0.929 . S
H859 C873 0.931 . S
H860 C875 0.930 . S
C861 H849 0.930 . S
C861 C862 1.399 . S
C861 C866 1.399 . S
C862 C861 1.399 . S
C862 C863 1.376 . S
C863 H850 0.930 . S
C863 C862 1.376 . S
C863 C864 1.388 . S
C864 H851 0.930 . S
C864 C863 1.388 . S
C864 C865 1.390 . S
C865 C864 1.390 . S
C865 C866 1.394 . S
C865 C871 1.465 . S
C866 C861 1.399 . S
C866 C865 1.394 . S
C866 C867 1.516 . S
C867 C866 1.516 . S
C867 C868 1.502 . S
C867 C869 1.561 . S
C867 C870 1.526 . S
C868 H852 0.959 . S
C868 H853 0.959 . S
C868 H854 0.961 . S
C868 C867 1.502 . S
C869 H855 0.960 . S
C869 H856 0.961 . S
C869 H857 0.959 . S
C869 C867 1.561 . S
C870 C867 1.526 . S
C870 C871 1.396 . S
C870 C875 1.390 . S
C871 C865 1.465 . S
C871 C870 1.396 . S
C871 C872 1.399 . S
C872 H858 0.929 . S
C872 C871 1.399 . S
C872 C873 1.385 . S
C873 H859 0.931 . S
C873 C872 1.385 . S
C873 C874 1.389 . S
C874 C873 1.389 . S
C874 C875 1.387 . S
C875 H860 0.930 . S
C875 C870 1.390 . S
C875 C874 1.387 . S
H876 C888 0.930 . S
H877 C890 0.930 . S
H878 C891 0.930 . S
H879 C895 0.959 . S
H880 C895 0.959 . S
H881 C895 0.961 . S
H882 C896 0.960 . S
H883 C896 0.961 . S
H884 C896 0.959 . S
H885 C899 0.929 . S
H886 C900 0.931 . S
H887 C902 0.930 . S
C888 H876 0.930 . S
C888 C889 1.399 . S
C888 C893 1.399 . S
C889 C888 1.399 . S
C889 C890 1.376 . S
C890 H877 0.930 . S
C890 C889 1.376 . S
C890 C891 1.388 . S
C891 H878 0.930 . S
C891 C890 1.388 . S
C891 C892 1.390 . S
C892 C891 1.390 . S
C892 C893 1.394 . S
C892 C898 1.465 . S
C893 C888 1.399 . S
C893 C892 1.394 . S
C893 C894 1.516 . S
C894 C893 1.516 . S
C894 C895 1.502 . S
C894 C896 1.561 . S
C894 C897 1.526 . S
C895 H879 0.959 . S
C895 H880 0.959 . S
C895 H881 0.961 . S
C895 C894 1.502 . S
C896 H882 0.960 . S
C896 H883 0.961 . S
C896 H884 0.959 . S
C896 C894 1.561 . S
C897 C894 1.526 . S
C897 C898 1.396 . S
C897 C902 1.390 . S
C898 C892 1.465 . S
C898 C897 1.396 . S
C898 C899 1.399 . S
C899 H885 0.929 . S
C899 C898 1.399 . S
C899 C900 1.385 . S
C900 H886 0.931 . S
C900 C899 1.385 . S
C900 C901 1.389 . S
C901 C900 1.389 . S
C901 C902 1.387 . S
C902 H887 0.930 . S
C902 C897 1.390 . S
C902 C901 1.387 . S
H903 C915 0.931 . S
H904 C917 0.930 . S
H905 C918 0.930 . S
H906 C922 0.970 . S
H907 C922 0.952 1_556 S
H908 C922 0.951 1_556 S
H909 C923 0.960 . S
H910 C923 0.961 . S
H911 C923 0.959 1_554 S
H912 C926 0.929 . S
H913 C927 0.931 . S
H914 C929 0.930 . S
C915 H903 0.931 . S
C915 C916 1.399 . S
C915 C920 1.399 . S
C916 C915 1.399 . S
C916 C917 1.376 . S
C917 H904 0.930 . S
C917 C916 1.376 . S
C917 C918 1.388 . S
C918 H905 0.930 . S
C918 C917 1.388 . S
C918 C919 1.390 . S
C919 C918 1.390 . S
C919 C920 1.394 . S
C919 C925 1.465 . S
C920 C915 1.399 . S
C920 C919 1.394 . S
C920 C921 1.516 . S
C921 C920 1.516 . S
C921 C922 1.510 . S
C921 C923 1.561 1_554 S
C921 C924 1.526 . S
C922 H906 0.970 . S
C922 H907 0.952 1_554 S
C922 H908 0.951 1_554 S
C922 C921 1.510 . S
C923 H909 0.960 . S
C923 H910 0.961 . S
C923 H911 0.959 1_556 S
C923 C921 1.561 1_556 S
C924 C921 1.526 . S
C924 C925 1.396 . S
C924 C929 1.390 . S
C925 C919 1.465 . S
C925 C924 1.396 . S
C925 C926 1.399 . S
C926 H912 0.929 . S
C926 C925 1.399 . S
C926 C927 1.385 . S
C927 H913 0.931 . S
C927 C926 1.385 . S
C927 C928 1.389 . S
C928 C927 1.389 . S
C928 C929 1.387 . S
C929 H914 0.930 . S
C929 C924 1.390 . S
C929 C928 1.387 . S
H930 C942 0.930 . S
H931 C944 0.930 . S
H932 C945 0.930 . S
H933 C949 0.959 . S
H934 C949 0.959 . S
H935 C949 0.961 . S
H936 C950 0.960 . S
H937 C950 0.961 . S
H938 C950 0.959 . S
H939 C953 0.929 . S
H940 C954 0.931 . S
H941 C956 0.930 . S
C942 H930 0.930 . S
C942 C943 1.399 . S
C942 C947 1.399 . S
C943 C942 1.399 . S
C943 C944 1.376 . S
C944 H931 0.930 . S
C944 C943 1.376 . S
C944 C945 1.388 . S
C945 H932 0.930 . S
C945 C944 1.388 . S
C945 C946 1.390 . S
C946 C945 1.390 . S
C946 C947 1.394 . S
C946 C952 1.465 . S
C947 C942 1.399 . S
C947 C946 1.394 . S
C947 C948 1.516 . S
C948 C947 1.516 . S
C948 C949 1.502 . S
C948 C950 1.561 . S
C948 C951 1.526 . S
C949 H933 0.959 . S
C949 H934 0.959 . S
C949 H935 0.961 . S
C949 C948 1.502 . S
C950 H936 0.960 . S
C950 H937 0.961 . S
C950 H938 0.959 . S
C950 C948 1.561 . S
C951 C948 1.526 . S
C951 C952 1.396 . S
C951 C956 1.390 . S
C952 C946 1.465 . S
C952 C951 1.396 . S
C952 C953 1.399 . S
C953 H939 0.929 . S
C953 C952 1.399 . S
C953 C954 1.385 . S
C954 H940 0.931 . S
C954 C953 1.385 . S
C954 C955 1.389 . S
C955 C954 1.389 . S
C955 C956 1.387 . S
C956 H941 0.930 . S
C956 C951 1.390 . S
C956 C955 1.387 . S
H957 C969 0.930 . S
H958 C971 0.930 . S
H959 C972 0.930 . S
H960 C976 0.959 . S
H961 C976 0.959 . S
H962 C976 0.961 . S
H963 C977 0.960 . S
H964 C977 0.961 . S
H965 C977 0.959 . S
H966 C980 0.929 . S
H967 C981 0.931 . S
H968 C983 0.930 . S
C969 H957 0.930 . S
C969 C970 1.399 . S
C969 C974 1.399 . S
C970 C969 1.399 . S
C970 C971 1.376 . S
C971 H958 0.930 . S
C971 C970 1.376 . S
C971 C972 1.388 . S
C972 H959 0.930 . S
C972 C971 1.388 . S
C972 C973 1.390 . S
C973 C972 1.390 . S
C973 C974 1.394 . S
C973 C979 1.465 . S
C974 C969 1.399 . S
C974 C973 1.394 . S
C974 C975 1.516 . S
C975 C974 1.516 . S
C975 C976 1.502 . S
C975 C977 1.561 . S
C975 C978 1.526 . S
C976 H960 0.959 . S
C976 H961 0.959 . S
C976 H962 0.961 . S
C976 C975 1.502 . S
C977 H963 0.960 . S
C977 H964 0.961 . S
C977 H965 0.959 . S
C977 C975 1.561 . S
C978 C975 1.526 . S
C978 C979 1.396 . S
C978 C983 1.390 . S
C979 C973 1.465 . S
C979 C978 1.396 . S
C979 C980 1.399 . S
C980 H966 0.929 . S
C980 C979 1.399 . S
C980 C981 1.385 . S
C981 H967 0.931 . S
C981 C980 1.385 . S
C981 C982 1.389 . S
C982 C981 1.389 . S
C982 C983 1.387 . S
C983 H968 0.930 . S
C983 C978 1.390 . S
C983 C982 1.387 . S
H984 C996 0.930 . S
H985 C998 0.930 . S
H986 C999 0.930 . S
H987 C1003 0.959 . S
H988 C1003 0.959 . S
H989 C1003 0.961 . S
H990 C1004 0.960 . S
H991 C1004 0.961 . S
H992 C1004 0.959 . S
H993 C1007 0.929 . S
H994 C1008 0.931 . S
H995 C1010 0.930 . S
C996 H984 0.930 . S
C996 C997 1.399 . S
C996 C1001 1.399 . S
C997 C996 1.399 . S
C997 C998 1.376 . S
C998 H985 0.930 . S
C998 C997 1.376 . S
C998 C999 1.388 . S
C999 H986 0.930 . S
C999 C998 1.388 . S
C999 C1000 1.390 . S
C1000 C999 1.390 . S
C1000 C1001 1.394 . S
C1000 C1006 1.465 . S
C1001 C996 1.399 . S
C1001 C1000 1.394 . S
C1001 C1002 1.516 . S
C1002 C1001 1.516 . S
C1002 C1003 1.502 . S
C1002 C1004 1.561 . S
C1002 C1005 1.526 . S
C1003 H987 0.959 . S
C1003 H988 0.959 . S
C1003 H989 0.961 . S
C1003 C1002 1.502 . S
C1004 H990 0.960 . S
C1004 H991 0.961 . S
C1004 H992 0.959 . S
C1004 C1002 1.561 . S
C1005 C1002 1.526 . S
C1005 C1006 1.396 . S
C1005 C1010 1.390 . S
C1006 C1000 1.465 . S
C1006 C1005 1.396 . S
C1006 C1007 1.399 . S
C1007 H993 0.929 . S
C1007 C1006 1.399 . S
C1007 C1008 1.385 . S
C1008 H994 0.931 . S
C1008 C1007 1.385 . S
C1008 C1009 1.389 . S
C1009 C1008 1.389 . S
C1009 C1010 1.387 . S
C1010 H995 0.930 . S
C1010 C1005 1.390 . S
C1010 C1009 1.387 . S
H1011 C1023 0.930 . S
H1012 C1025 0.930 . S
H1013 C1026 0.930 . S
H1014 C1030 0.959 . S
H1015 C1030 0.959 . S
H1016 C1030 0.961 . S
H1017 C1031 0.960 . S
H1018 C1031 0.961 . S
H1019 C1031 0.959 . S
H1020 C1034 0.929 . S
H1021 C1035 0.931 . S
H1022 C1037 0.930 . S
C1023 H1011 0.930 . S
C1023 C1024 1.399 . S
C1023 C1028 1.399 . S
C1024 C1023 1.399 . S
C1024 C1025 1.376 . S
C1025 H1012 0.930 . S
C1025 C1024 1.376 . S
C1025 C1026 1.388 . S
C1026 H1013 0.930 . S
C1026 C1025 1.388 . S
C1026 C1027 1.390 . S
C1027 C1026 1.390 . S
C1027 C1028 1.394 . S
C1027 C1033 1.465 . S
C1028 C1023 1.399 . S
C1028 C1027 1.394 . S
C1028 C1029 1.516 . S
C1029 C1028 1.516 . S
C1029 C1030 1.502 . S
C1029 C1031 1.561 . S
C1029 C1032 1.526 . S
C1030 H1014 0.959 . S
C1030 H1015 0.959 . S
C1030 H1016 0.961 . S
C1030 C1029 1.502 . S
C1031 H1017 0.960 . S
C1031 H1018 0.961 . S
C1031 H1019 0.959 . S
C1031 C1029 1.561 . S
C1032 C1029 1.526 . S
C1032 C1033 1.396 . S
C1032 C1037 1.390 . S
C1033 C1027 1.465 . S
C1033 C1032 1.396 . S
C1033 C1034 1.399 . S
C1034 H1020 0.929 . S
C1034 C1033 1.399 . S
C1034 C1035 1.385 . S
C1035 H1021 0.931 . S
C1035 C1034 1.385 . S
C1035 C1036 1.389 . S
C1036 C1035 1.389 . S
C1036 C1037 1.387 . S
C1037 H1022 0.930 . S
C1037 C1032 1.390 . S
C1037 C1036 1.387 . S
H1038 C1050 0.930 . S
H1039 C1052 0.930 . S
H1040 C1053 0.930 . S
H1041 C1057 0.959 . S
H1042 C1057 0.959 . S
H1043 C1057 0.961 . S
H1044 C1058 0.960 . S
H1045 C1058 0.961 . S
H1046 C1058 0.959 . S
H1047 C1061 0.929 . S
H1048 C1062 0.931 . S
H1049 C1064 0.930 . S
C1050 H1038 0.930 . S
C1050 C1051 1.399 . S
C1050 C1055 1.399 . S
C1051 C1050 1.399 . S
C1051 C1052 1.376 . S
C1052 H1039 0.930 . S
C1052 C1051 1.376 . S
C1052 C1053 1.388 . S
C1053 H1040 0.930 . S
C1053 C1052 1.388 . S
C1053 C1054 1.390 . S
C1054 C1053 1.390 . S
C1054 C1055 1.394 . S
C1054 C1060 1.465 . S
C1055 C1050 1.399 . S
C1055 C1054 1.394 . S
C1055 C1056 1.516 . S
C1056 C1055 1.516 . S
C1056 C1057 1.502 . S
C1056 C1058 1.561 . S
C1056 C1059 1.526 . S
C1057 H1041 0.959 . S
C1057 H1042 0.959 . S
C1057 H1043 0.961 . S
C1057 C1056 1.502 . S
C1058 H1044 0.960 . S
C1058 H1045 0.961 . S
C1058 H1046 0.959 . S
C1058 C1056 1.561 . S
C1059 C1056 1.526 . S
C1059 C1060 1.396 . S
C1059 C1064 1.390 . S
C1060 C1054 1.465 . S
C1060 C1059 1.396 . S
C1060 C1061 1.399 . S
C1061 H1047 0.929 . S
C1061 C1060 1.399 . S
C1061 C1062 1.385 . S
C1062 H1048 0.931 . S
C1062 C1061 1.385 . S
C1062 C1063 1.389 . S
C1063 C1062 1.389 . S
C1063 C1064 1.387 . S
C1064 H1049 0.930 . S
C1064 C1059 1.390 . S
C1064 C1063 1.387 . S
H1065 C1077 0.930 . S
H1066 C1079 0.930 . S
H1067 C1080 0.930 . S
H1068 C1084 0.959 . S
H1069 C1084 0.959 . S
H1070 C1084 0.961 . S
H1071 C1085 0.960 . S
H1072 C1085 0.961 . S
H1073 C1085 0.959 . S
H1074 C1088 0.929 . S
H1075 C1089 0.931 . S
H1076 C1091 0.930 . S
C1077 H1065 0.930 . S
C1077 C1078 1.399 . S
C1077 C1082 1.399 . S
C1078 C1077 1.399 . S
C1078 C1079 1.376 . S
C1079 H1066 0.930 . S
C1079 C1078 1.376 . S
C1079 C1080 1.388 . S
C1080 H1067 0.930 . S
C1080 C1079 1.388 . S
C1080 C1081 1.390 . S
C1081 C1080 1.390 . S
C1081 C1082 1.394 . S
C1081 C1087 1.465 . S
C1082 C1077 1.399 . S
C1082 C1081 1.394 . S
C1082 C1083 1.516 . S
C1083 C1082 1.516 . S
C1083 C1084 1.502 . S
C1083 C1085 1.561 . S
C1083 C1086 1.526 . S
C1084 H1068 0.959 . S
C1084 H1069 0.959 . S
C1084 H1070 0.961 . S
C1084 C1083 1.502 . S
C1085 H1071 0.960 . S
C1085 H1072 0.961 . S
C1085 H1073 0.959 . S
C1085 C1083 1.561 . S
C1086 C1083 1.526 . S
C1086 C1087 1.396 . S
C1086 C1091 1.390 . S
C1087 C1081 1.465 . S
C1087 C1086 1.396 . S
C1087 C1088 1.399 . S
C1088 H1074 0.929 . S
C1088 C1087 1.399 . S
C1088 C1089 1.385 1_556 S
C1089 H1075 0.931 . S
C1089 C1088 1.385 1_554 S
C1089 C1090 1.389 . S
C1090 C1089 1.389 . S
C1090 C1091 1.387 1_554 S
C1091 H1076 0.930 . S
C1091 C1086 1.390 . S
C1091 C1090 1.387 1_556 S
H1092 C1104 0.930 1_545 S
H1093 C1106 0.930 . S
H1094 C1107 0.930 . S
H1095 C1111 0.959 . S
H1096 C1111 0.959 . S
H1097 C1111 0.961 1_545 S
H1098 C1112 0.960 . S
H1099 C1112 0.961 . S
H1100 C1112 0.959 . S
H1101 C1115 0.929 . S
H1102 C1116 0.931 . S
H1103 C1118 0.930 . S
C1104 H1092 0.930 1_565 S
C1104 C1105 1.399 . S
C1104 C1109 1.399 . S
C1105 C1104 1.399 . S
C1105 C1106 1.376 . S
C1106 H1093 0.930 . S
C1106 C1105 1.376 . S
C1106 C1107 1.388 . S
C1107 H1094 0.930 . S
C1107 C1106 1.388 . S
C1107 C1108 1.390 . S
C1108 C1107 1.390 . S
C1108 C1109 1.394 . S
C1108 C1114 1.465 . S
C1109 C1104 1.399 . S
C1109 C1108 1.394 . S
C1109 C1110 1.516 . S
C1110 C1109 1.516 . S
C1110 C1111 1.502 . S
C1110 C1112 1.561 . S
C1110 C1113 1.526 . S
C1111 H1095 0.959 . S
C1111 H1096 0.959 . S
C1111 H1097 0.961 1_565 S
C1111 C1110 1.502 . S
C1112 H1098 0.960 . S
C1112 H1099 0.961 . S
C1112 H1100 0.959 . S
C1112 C1110 1.561 . S
C1113 C1110 1.526 . S
C1113 C1114 1.396 . S
C1113 C1118 1.390 . S
C1114 C1108 1.465 . S
C1114 C1113 1.396 . S
C1114 C1115 1.399 . S
C1115 H1101 0.929 . S
C1115 C1114 1.399 . S
C1115 C1116 1.385 . S
C1116 H1102 0.931 . S
C1116 C1115 1.385 . S
C1116 C1117 1.389 . S
C1117 C1116 1.389 . S
C1117 C1118 1.387 . S
C1118 H1103 0.930 . S
C1118 C1113 1.390 . S
C1118 C1117 1.387 . S
H1119 C1131 0.930 . S
H1120 C1133 0.930 . S
H1121 C1134 0.930 . S
H1122 C1138 0.959 . S
H1123 C1138 0.959 . S
H1124 C1138 0.961 . S
H1125 C1139 0.960 . S
H1126 C1139 0.961 . S
H1127 C1139 0.959 . S
H1128 C1142 0.929 . S
H1129 C1143 0.931 . S
H1130 C1145 0.930 . S
C1131 H1119 0.930 . S
C1131 C1132 1.399 . S
C1131 C1136 1.399 . S
C1132 C1131 1.399 . S
C1132 C1133 1.376 . S
C1133 H1120 0.930 . S
C1133 C1132 1.376 . S
C1133 C1134 1.388 . S
C1134 H1121 0.930 . S
C1134 C1133 1.388 . S
C1134 C1135 1.390 . S
C1135 C1134 1.390 . S
C1135 C1136 1.394 . S
C1135 C1141 1.465 . S
C1136 C1131 1.399 . S
C1136 C1135 1.394 . S
C1136 C1137 1.516 . S
C1137 C1136 1.516 . S
C1137 C1138 1.502 . S
C1137 C1139 1.561 . S
C1137 C1140 1.526 . S
C1138 H1122 0.959 . S
C1138 H1123 0.959 . S
C1138 H1124 0.961 . S
C1138 C1137 1.502 . S
C1139 H1125 0.960 . S
C1139 H1126 0.961 . S
C1139 H1127 0.959 . S
C1139 C1137 1.561 . S
C1140 C1137 1.526 . S
C1140 C1141 1.396 . S
C1140 C1145 1.390 . S
C1141 C1135 1.465 . S
C1141 C1140 1.396 . S
C1141 C1142 1.399 . S
C1142 H1128 0.929 . S
C1142 C1141 1.399 . S
C1142 C1143 1.385 . S
C1143 H1129 0.931 . S
C1143 C1142 1.385 . S
C1143 C1144 1.389 . S
C1144 C1143 1.389 . S
C1144 C1145 1.387 . S
C1145 H1130 0.930 . S
C1145 C1140 1.390 . S
C1145 C1144 1.387 . S
H1146 C1158 0.930 . S
H1147 C1160 0.930 . S
H1148 C1161 0.930 . S
H1149 C1165 0.959 . S
H1150 C1165 0.959 . S
H1151 C1165 0.961 . S
H1152 C1166 0.960 . S
H1153 C1166 0.961 . S
H1154 C1166 0.959 . S
H1155 C1169 0.929 . S
H1156 C1170 0.931 . S
H1157 C1172 0.930 . S
C1158 H1146 0.930 . S
C1158 C1159 1.399 . S
C1158 C1163 1.399 . S
C1159 C1158 1.399 . S
C1159 C1160 1.376 . S
C1160 H1147 0.930 . S
C1160 C1159 1.376 . S
C1160 C1161 1.388 . S
C1161 H1148 0.930 . S
C1161 C1160 1.388 . S
C1161 C1162 1.390 . S
C1162 C1161 1.390 . S
C1162 C1163 1.394 . S
C1162 C1168 1.465 . S
C1163 C1158 1.399 . S
C1163 C1162 1.394 . S
C1163 C1164 1.516 . S
C1164 C1163 1.516 . S
C1164 C1165 1.502 . S
C1164 C1166 1.561 . S
C1164 C1167 1.526 . S
C1165 H1149 0.959 . S
C1165 H1150 0.959 . S
C1165 H1151 0.961 . S
C1165 C1164 1.502 . S
C1166 H1152 0.960 . S
C1166 H1153 0.961 . S
C1166 H1154 0.959 . S
C1166 C1164 1.561 . S
C1167 C1164 1.526 . S
C1167 C1168 1.396 . S
C1167 C1172 1.390 . S
C1168 C1162 1.465 . S
C1168 C1167 1.396 . S
C1168 C1169 1.399 . S
C1169 H1155 0.929 . S
C1169 C1168 1.399 . S
C1169 C1170 1.385 . S
C1170 H1156 0.931 . S
C1170 C1169 1.385 . S
C1170 C1171 1.389 . S
C1171 C1170 1.389 . S
C1171 C1172 1.387 . S
C1172 H1157 0.930 . S
C1172 C1167 1.390 . S
C1172 C1171 1.387 . S
H1173 C1185 0.930 . S
H1174 C1187 0.930 . S
H1175 C1188 0.930 . S
H1176 C1192 0.959 . S
H1177 C1192 0.959 . S
H1178 C1192 0.961 . S
H1179 C1193 0.960 . S
H1180 C1193 0.961 . S
H1181 C1193 0.959 . S
H1182 C1196 0.929 . S
H1183 C1197 0.931 . S
H1184 C1199 0.930 . S
C1185 H1173 0.930 . S
C1185 C1186 1.399 . S
C1185 C1190 1.399 . S
C1186 C1185 1.399 . S
C1186 C1187 1.376 . S
C1187 H1174 0.930 . S
C1187 C1186 1.376 . S
C1187 C1188 1.388 . S
C1188 H1175 0.930 . S
C1188 C1187 1.388 . S
C1188 C1189 1.390 . S
C1189 C1188 1.390 . S
C1189 C1190 1.394 . S
C1189 C1195 1.465 . S
C1190 C1185 1.399 . S
C1190 C1189 1.394 . S
C1190 C1191 1.516 . S
C1191 C1190 1.516 . S
C1191 C1192 1.502 . S
C1191 C1193 1.561 . S
C1191 C1194 1.526 . S
C1192 H1176 0.959 . S
C1192 H1177 0.959 . S
C1192 H1178 0.961 . S
C1192 C1191 1.502 . S
C1193 H1179 0.960 . S
C1193 H1180 0.961 . S
C1193 H1181 0.959 . S
C1193 C1191 1.561 . S
C1194 C1191 1.526 . S
C1194 C1195 1.396 . S
C1194 C1199 1.390 . S
C1195 C1189 1.465 . S
C1195 C1194 1.396 . S
C1195 C1196 1.399 . S
C1196 H1182 0.929 . S
C1196 C1195 1.399 . S
C1196 C1197 1.385 . S
C1197 H1183 0.931 . S
C1197 C1196 1.385 . S
C1197 C1198 1.389 . S
C1198 C1197 1.389 . S
C1198 C1199 1.387 . S
C1199 H1184 0.930 . S
C1199 C1194 1.390 . S
C1199 C1198 1.387 . S
H1200 C1212 0.930 . S
H1201 C1214 0.930 . S
H1202 C1215 0.930 . S
H1203 C1219 0.959 . S
H1204 C1219 0.959 . S
H1205 C1219 0.961 . S
H1206 C1220 0.960 . S
H1207 C1220 0.961 . S
H1208 C1220 0.959 . S
H1209 C1223 0.929 . S
H1210 C1224 0.931 . S
H1211 C1226 0.930 . S
C1212 H1200 0.930 . S
C1212 C1213 1.399 . S
C1212 C1217 1.399 . S
C1213 C1212 1.399 . S
C1213 C1214 1.376 . S
C1214 H1201 0.930 . S
C1214 C1213 1.376 . S
C1214 C1215 1.388 . S
C1215 H1202 0.930 . S
C1215 C1214 1.388 . S
C1215 C1216 1.390 . S
C1216 C1215 1.390 . S
C1216 C1217 1.394 . S
C1216 C1222 1.465 . S
C1217 C1212 1.399 . S
C1217 C1216 1.394 . S
C1217 C1218 1.516 . S
C1218 C1217 1.516 . S
C1218 C1219 1.502 . S
C1218 C1220 1.561 . S
C1218 C1221 1.526 . S
C1219 H1203 0.959 . S
C1219 H1204 0.959 . S
C1219 H1205 0.961 . S
C1219 C1218 1.502 . S
C1220 H1206 0.960 . S
C1220 H1207 0.961 . S
C1220 H1208 0.959 . S
C1220 C1218 1.561 . S
C1221 C1218 1.526 . S
C1221 C1222 1.396 . S
C1221 C1226 1.390 . S
C1222 C1216 1.465 . S
C1222 C1221 1.396 . S
C1222 C1223 1.399 . S
C1223 H1209 0.929 . S
C1223 C1222 1.399 . S
C1223 C1224 1.385 . S
C1224 H1210 0.931 . S
C1224 C1223 1.385 . S
C1224 C1225 1.389 . S
C1225 C1224 1.389 . S
C1225 C1226 1.387 . S
C1226 H1211 0.930 . S
C1226 C1221 1.390 . S
C1226 C1225 1.387 . S
H1227 C1239 0.930 . S
H1228 C1241 0.930 . S
H1229 C1242 0.930 . S
H1230 C1246 0.959 . S
H1231 C1246 0.959 . S
H1232 C1246 0.961 . S
H1233 C1247 0.960 . S
H1234 C1247 0.961 . S
H1235 C1247 0.959 . S
H1236 C1250 0.929 . S
H1237 C1251 0.931 . S
H1238 C1253 0.930 . S
C1239 H1227 0.930 . S
C1239 C1240 1.399 . S
C1239 C1244 1.399 . S
C1240 C1239 1.399 . S
C1240 C1241 1.376 . S
C1241 H1228 0.930 . S
C1241 C1240 1.376 . S
C1241 C1242 1.388 . S
C1242 H1229 0.930 . S
C1242 C1241 1.388 . S
C1242 C1243 1.390 . S
C1243 C1242 1.390 . S
C1243 C1244 1.394 . S
C1243 C1249 1.465 . S
C1244 C1239 1.399 . S
C1244 C1243 1.394 . S
C1244 C1245 1.516 . S
C1245 C1244 1.516 . S
C1245 C1246 1.502 . S
C1245 C1247 1.561 . S
C1245 C1248 1.526 . S
C1246 H1230 0.959 . S
C1246 H1231 0.959 . S
C1246 H1232 0.961 . S
C1246 C1245 1.502 . S
C1247 H1233 0.960 . S
C1247 H1234 0.961 . S
C1247 H1235 0.959 . S
C1247 C1245 1.561 . S
C1248 C1245 1.526 . S
C1248 C1249 1.396 . S
C1248 C1253 1.390 . S
C1249 C1243 1.465 . S
C1249 C1248 1.396 . S
C1249 C1250 1.399 . S
C1250 H1236 0.929 . S
C1250 C1249 1.399 . S
C1250 C1251 1.385 . S
C1251 H1237 0.931 . S
C1251 C1250 1.385 . S
C1251 C1252 1.389 . S
C1252 C1251 1.389 . S
C1252 C1253 1.387 . S
C1253 H1238 0.930 . S
C1253 C1248 1.390 . S
C1253 C1252 1.387 . S
H1254 C1266 0.930 . S
H1255 C1268 0.930 . S
H1256 C1269 0.930 . S
H1257 C1273 0.959 . S
H1258 C1273 0.959 . S
H1259 C1273 0.961 1_554 S
H1260 C1274 0.960 . S
H1261 C1274 0.961 1_556 S
H1262 C1274 0.959 . S
H1263 C1277 0.929 . S
H1264 C1278 0.931 . S
H1265 C1280 0.930 . S
C1266 H1254 0.930 . S
C1266 C1267 1.399 . S
C1266 C1271 1.399 . S
C1267 C1266 1.399 . S
C1267 C1268 1.376 . S
C1268 H1255 0.930 . S
C1268 C1267 1.376 . S
C1268 C1269 1.388 . S
C1269 H1256 0.930 . S
C1269 C1268 1.388 . S
C1269 C1270 1.390 . S
C1270 C1269 1.390 . S
C1270 C1271 1.394 . S
C1270 C1276 1.465 1_554 S
C1271 C1266 1.399 . S
C1271 C1270 1.394 . S
C1271 C1272 1.516 . S
C1272 C1271 1.516 . S
C1272 C1273 1.502 1_554 S
C1272 C1274 1.561 . S
C1272 C1275 1.526 1_554 S
C1273 H1257 0.959 . S
C1273 H1258 0.959 . S
C1273 H1259 0.961 1_556 S
C1273 C1272 1.502 1_556 S
C1274 H1260 0.960 . S
C1274 H1261 0.961 1_554 S
C1274 H1262 0.959 . S
C1274 C1272 1.561 . S
C1275 C1272 1.526 1_556 S
C1275 C1276 1.396 . S
C1275 C1280 1.390 . S
C1276 C1270 1.465 1_556 S
C1276 C1275 1.396 . S
C1276 C1277 1.399 . S
C1277 H1263 0.929 . S
C1277 C1276 1.399 . S
C1277 C1278 1.385 . S
C1278 H1264 0.931 . S
C1278 C1277 1.385 . S
C1278 C1279 1.389 . S
C1279 C1278 1.389 . S
C1279 C1280 1.387 . S
C1280 H1265 0.930 . S
C1280 C1275 1.390 . S
C1280 C1279 1.387 . S
H1281 C1293 0.930 . S
H1282 C1295 0.930 . S
H1283 C1296 0.930 . S
H1284 C1300 0.959 . S
H1285 C1300 0.959 . S
H1286 C1300 0.961 . S
H1287 C1301 0.960 . S
H1288 C1301 0.961 . S
H1289 C1301 0.959 . S
H1290 C1304 0.929 . S
H1291 C1305 0.931 . S
H1292 C1307 0.930 . S
C1293 H1281 0.930 . S
C1293 C1294 1.399 . S
C1293 C1298 1.399 . S
C1294 C1293 1.399 . S
C1294 C1295 1.376 . S
C1295 H1282 0.930 . S
C1295 C1294 1.376 . S
C1295 C1296 1.388 . S
C1296 H1283 0.930 . S
C1296 C1295 1.388 . S
C1296 C1297 1.390 . S
C1297 C1296 1.390 . S
C1297 C1298 1.394 . S
C1297 C1303 1.465 . S
C1298 C1293 1.399 . S
C1298 C1297 1.394 . S
C1298 C1299 1.516 . S
C1299 C1298 1.516 . S
C1299 C1300 1.502 . S
C1299 C1301 1.561 . S
C1299 C1302 1.526 . S
C1300 H1284 0.959 . S
C1300 H1285 0.959 . S
C1300 H1286 0.961 . S
C1300 C1299 1.502 . S
C1301 H1287 0.960 . S
C1301 H1288 0.961 . S
C1301 H1289 0.959 . S
C1301 C1299 1.561 . S
C1302 C1299 1.526 . S
C1302 C1303 1.396 . S
C1302 C1307 1.390 . S
C1303 C1297 1.465 . S
C1303 C1302 1.396 . S
C1303 C1304 1.399 . S
C1304 H1290 0.929 . S
C1304 C1303 1.399 . S
C1304 C1305 1.385 . S
C1305 H1291 0.931 . S
C1305 C1304 1.385 . S
C1305 C1306 1.389 . S
C1306 C1305 1.389 . S
C1306 C1307 1.387 . S
C1307 H1292 0.930 . S
C1307 C1302 1.390 . S
C1307 C1306 1.387 . S
C685 C627 1.328 . S
C673 C51 1.370 . S
C700 C125 1.452 . S
C712 C447 1.448 . S
C727 C217 2.587 . S
C739 C494 2.600 . S
C754 C291 1.526 . S
C766 C530 1.508 . S
C793 C555 0.840 . S
C781 C347 0.929 . S
C808 C421 0.864 . S
C820 C591 0.918 . S
C835 C143 2.301 . S
C847 C483 2.314 . S
C862 C199 1.460 . S
C874 C519 1.514 . S
C889 C273 0.560 . S
C901 C566 0.578 . S
C928 C602 1.672 . S
C916 C365 1.668 . S
C955 C638 1.798 . S
C943 C439 1.830 . S
C982 C458 2.503 . S
C970 C69 2.464 . S
C997 C63 1.468 . S
C1009 C482 1.515 . S
C1024 C137 1.476 . S
C1036 C518 1.589 . S
C1063 C556 1.395 . S
C1051 C187 1.372 . S
C1078 C261 1.471 . S
C1090 C592 1.500 . S
C1117 C628 1.556 . S
C1105 C359 1.373 . S
C1144 C448 1.156 . S
C1132 C433 1.158 . S
C1171 C626 1.587 . S
C1159 C113 1.577 . S
C1186 C211 1.323 . S
C1198 C446 1.393 . S
C1225 C484 1.549 . S
C1213 C285 1.471 . S
C1240 C335 1.322 . S
C1252 C520 1.474 . S
C1267 C409 1.396 . S
C1279 C554 1.361 . S
C1294 C39 1.642 . S
C1306 C590 1.659 . S
