# Generated by pormake.
# Topology zzz, (3,6)-cn, num edge types: 1
# Building blocks:
#     Node 0, Type 0, BuildingBlock: CUQRIR_clean_linker_1, # of connection points: 3
#     Node 1, Type 0, BuildingBlock: CUQRIR_clean_linker_1, # of connection points: 3
#     Node 2, Type 0, BuildingBlock: CUQRIR_clean_linker_1, # of connection points: 3
#     Node 3, Type 0, BuildingBlock: CUQRIR_clean_linker_1, # of connection points: 3
#     Node 4, Type 0, BuildingBlock: CUQRIR_clean_linker_1, # of connection points: 3
#     Node 5, Type 0, BuildingBlock: CUQRIR_clean_linker_1, # of connection points: 3
#     Node 6, Type 0, BuildingBlock: CUQRIR_clean_linker_1, # of connection points: 3
#     Node 7, Type 0, BuildingBlock: CUQRIR_clean_linker_1, # of connection points: 3
#     Node 8, Type 1, BuildingBlock: PAMTOO_clean_sbu_0, # of connection points: 6
#     Node 9, Type 1, BuildingBlock: PAMTOO_clean_sbu_0, # of connection points: 6
#     Node 10, Type 1, BuildingBlock: PAMTOO_clean_sbu_0, # of connection points: 6
#     Node 11, Type 1, BuildingBlock: PAMTOO_clean_sbu_0, # of connection points: 6
#     Edge 12, Type (0, 1), BuildingBlock: OJICUG_clean_linker_0, # of connection points: 2
#     Edge 13, Type (0, 1), BuildingBlock: OJICUG_clean_linker_0, # of connection points: 2
#     Edge 14, Type (0, 1), BuildingBlock: OJICUG_clean_linker_0, # of connection points: 2
#     Edge 15, Type (0, 1), BuildingBlock: OJICUG_clean_linker_0, # of connection points: 2
#     Edge 16, Type (0, 1), BuildingBlock: OJICUG_clean_linker_0, # of connection points: 2
#     Edge 17, Type (0, 1), BuildingBlock: OJICUG_clean_linker_0, # of connection points: 2
#     Edge 18, Type (0, 1), BuildingBlock: OJICUG_clean_linker_0, # of connection points: 2
#     Edge 19, Type (0, 1), BuildingBlock: OJICUG_clean_linker_0, # of connection points: 2
#     Edge 20, Type (0, 1), BuildingBlock: OJICUG_clean_linker_0, # of connection points: 2
#     Edge 21, Type (0, 1), BuildingBlock: OJICUG_clean_linker_0, # of connection points: 2
#     Edge 22, Type (0, 1), BuildingBlock: OJICUG_clean_linker_0, # of connection points: 2
#     Edge 23, Type (0, 1), BuildingBlock: OJICUG_clean_linker_0, # of connection points: 2
#     Edge 24, Type (0, 1), BuildingBlock: OJICUG_clean_linker_0, # of connection points: 2
#     Edge 25, Type (0, 1), BuildingBlock: OJICUG_clean_linker_0, # of connection points: 2
#     Edge 26, Type (0, 1), BuildingBlock: OJICUG_clean_linker_0, # of connection points: 2
#     Edge 27, Type (0, 1), BuildingBlock: OJICUG_clean_linker_0, # of connection points: 2
#     Edge 28, Type (0, 1), BuildingBlock: OJICUG_clean_linker_0, # of connection points: 2
#     Edge 29, Type (0, 1), BuildingBlock: OJICUG_clean_linker_0, # of connection points: 2
#     Edge 30, Type (0, 1), BuildingBlock: OJICUG_clean_linker_0, # of connection points: 2
#     Edge 31, Type (0, 1), BuildingBlock: OJICUG_clean_linker_0, # of connection points: 2
#     Edge 32, Type (0, 1), BuildingBlock: OJICUG_clean_linker_0, # of connection points: 2
#     Edge 33, Type (0, 1), BuildingBlock: OJICUG_clean_linker_0, # of connection points: 2
#     Edge 34, Type (0, 1), BuildingBlock: OJICUG_clean_linker_0, # of connection points: 2
#     Edge 35, Type (0, 1), BuildingBlock: OJICUG_clean_linker_0, # of connection points: 2
# Relax obj value: 0.364
# Max RMSD: 0.258
# Mean RMSD: 0.137
data_MOF--net-zzz--node1-PAMTOO_clean_sbu_0--node2-CUQRIR_clean_linker_1--edge1-OJICUG_clean_linker_0
_symmetry_space_group_name_H-M    P1
_symmetry_Int_Tables_number       1
_symmetry_cell_setting            triclinic
loop_
_symmetry_equiv_pos_as_xyz
'x, y, z'
_cell_length_a     39.028702
_cell_length_b     31.785001
_cell_length_c     10.001151
_cell_angle_alpha  92.818624
_cell_angle_beta   73.359922
_cell_angle_gamma 86.714034
loop_
_atom_site_label
_atom_site_type_symbol
_atom_site_fract_x
_atom_site_fract_y
_atom_site_fract_z
_atom_type_partial_charge
C0 C 0.82697 0.5533 0.73723 0.0
N1 N 0.84623 0.52326 0.78361 0.0
N2 N 0.79566 0.53891 0.7261 0.0
C3 C 0.83927 0.59595 0.69689 0.0
C4 C 0.79667 0.49921 0.76887 0.0
N5 N 0.82812 0.48858 0.79588 0.0
C6 C 0.76909 0.4683 0.76369 0.0
H7 H 0.85463 0.60822 0.76626 0.0
H8 H 0.81603 0.61848 0.70222 0.0
H9 H 0.85715 0.59306 0.58789 0.0
H10 H 0.74229 0.48146 0.82906 0.0
H11 H 0.7753 0.43758 0.80294 0.0
H12 H 0.7677 0.46327 0.6548 0.0
C13 C 1.01967 0.73349 0.62287 0.0
N14 N 0.04505 0.76007 0.63358 0.0
N15 N 1.03204 0.70646 0.50746 0.0
C16 C 0.98169 0.73724 0.71485 0.0
C17 C 0.06555 0.71773 0.44727 0.0
N18 N 0.07371 0.74985 0.52391 0.0
C19 C 0.08821 0.7008 0.30372 0.0
H20 H 0.9804 0.74957 0.8221 0.0
H21 H 0.96995 0.70618 0.71845 0.0
H22 H 0.96562 0.75972 0.6711 0.0
H23 H 0.07852 0.71656 0.22346 0.0
H24 H 0.08534 0.66661 0.28787 0.0
H25 H 0.11674 0.70683 0.28592 0.0
C26 C 0.78323 0.02444 0.57376 0.0
N27 N 0.74935 0.04163 0.59052 0.0
N28 N 0.80806 0.04572 0.48121 0.0
C29 C 0.79184 0.98689 0.64649 0.0
C30 C 0.78767 0.07616 0.44214 0.0
N31 N 0.75254 0.07377 0.50896 0.0
C32 C 0.80192 0.10722 0.33367 0.0
H33 H 0.81911 0.98769 0.65939 0.0
H34 H 0.79079 0.95771 0.58263 0.0
H35 H 0.7718 0.98586 0.75026 0.0
H36 H 0.82402 0.09181 0.24582 0.0
H37 H 0.81234 0.13373 0.38269 0.0
H38 H 0.78105 0.1213 0.29096 0.0
C39 C 0.52674 0.77009 0.51857 0.0
N40 N 0.51852 0.73012 0.5514 0.0
N41 N 0.52032 0.77914 0.39518 0.0
C42 C 0.53969 0.80035 0.61009 0.0
C43 C 0.50855 0.74255 0.35419 0.0
N44 N 0.50637 0.71344 0.45058 0.0
C45 C 0.50527 0.73267 0.20932 0.0
H46 H 0.53144 0.83345 0.59719 0.0
H47 H 0.5694 0.79655 0.58036 0.0
H48 H 0.52921 0.7935 0.72162 0.0
H49 H 0.52231 0.75231 0.13203 0.0
H50 H 0.47697 0.73891 0.21002 0.0
H51 H 0.51351 0.69897 0.17453 0.0
C52 C 0.28016 0.48519 0.12181 0.0
N53 N 0.26362 0.5136 0.05879 0.0
N54 N 0.31204 0.49821 0.13082 0.0
C55 C 0.26411 0.44637 0.18458 0.0
C56 C 0.31417 0.53539 0.0698 0.0
N57 N 0.28391 0.54643 0.03433 0.0
C58 C 0.34378 0.56417 0.06511 0.0
H59 H 0.24625 0.45519 0.29161 0.0
H60 H 0.28546 0.42277 0.19208 0.0
H61 H 0.24792 0.43235 0.12134 0.0
H62 H 0.34278 0.59029 0.9963 0.0
H63 H 0.37 0.54563 1.0269 0.0
H64 H 0.34176 0.57738 0.17205 0.0
C65 C 0.07466 0.2884 0.27265 0.0
N66 N 0.04624 0.26472 0.28143 0.0
N67 N 0.06648 0.31946 0.37735 0.0
C68 C 0.11138 0.27802 0.17369 0.0
C69 C 1.03235 0.31376 0.45035 0.0
N70 N 1.01993 0.28089 0.39216 0.0
C71 C 1.01279 0.33768 0.58759 0.0
H72 H 0.12559 0.2534 0.21723 0.0
H73 H 0.12705 0.30637 0.15996 0.0
H74 H 0.10947 0.26524 0.071 0.0
H75 H 1.01883 0.37131 0.58493 0.0
H76 H 1.02242 0.3245 0.67212 0.0
H77 H 0.98347 0.33508 0.61432 0.0
C78 C 0.26884 1.00062 0.39245 0.0
N79 N 0.30172 0.97908 0.35181 0.0
N80 N 0.24386 0.97709 0.47371 0.0
C81 C 0.26201 0.04604 0.36749 0.0
C82 C 0.26293 0.94064 0.48005 0.0
N83 N 0.2979 0.94195 0.40821 0.0
C84 C 0.24743 0.90369 0.55878 0.0
H85 H 0.26038 0.06581 0.46401 0.0
H86 H 0.236 0.0509 0.34418 0.0
H87 H 0.28385 0.05635 0.2801 0.0
H88 H 0.2193 0.90107 0.55723 0.0
H89 H 0.24752 0.9083 0.66931 0.0
H90 H 0.26369 0.87391 0.51259 0.0
C91 C 0.52756 0.258 0.47113 0.0
N92 N 0.53387 0.29969 0.463 0.0
N93 N 0.52935 0.24408 0.59657 0.0
C94 C 0.52156 0.23087 0.35422 0.0
C95 C 0.53625 0.27923 0.6641 0.0
N96 N 0.53974 0.31229 0.58262 0.0
C97 C 0.53562 0.28263 0.81582 0.0
H98 H 0.49334 0.23686 0.35328 0.0
H99 H 0.52656 0.19691 0.36726 0.0
H100 H 0.53917 0.23933 0.25222 0.0
H101 H 0.56323 0.27643 0.8235 0.0
H102 H 0.51832 0.25941 0.87604 0.0
H103 H 0.52552 0.31483 0.86406 0.0
Dy104 Dy 1.01237 0.02505 0.87241 0.0
Dy105 Dy 0.04039 0.99803 0.13142 0.0
C106 C 0.09762 1.00599 0.82675 0.0
O107 O 1.00938 0.95507 0.88189 0.0
O108 O 0.05033 0.93703 0.99666 0.0
O109 O 1.01541 0.04832 0.67082 0.0
O110 O 0.96829 0.01839 0.78512 0.0
O111 O 0.98081 0.99124 0.19341 0.0
O112 O 0.96806 0.04464 0.06878 0.0
O113 O 1.02617 0.06777 0.16323 0.0
O114 O 1.03004 0.08663 0.94222 0.0
O115 O 0.03831 0.96223 0.31106 0.0
O116 O 0.07028 0.01637 0.2728 0.0
C117 C 1.03091 0.92663 0.91375 0.0
O118 O 0.0712 1.00896 0.7695 0.0
O119 O 0.09157 1.00473 0.96286 0.0
C120 C 0.96059 0.07216 0.64073 0.0
C121 C 0.93696 0.15102 0.57622 0.0
C122 C 0.92382 0.13787 0.71263 0.0
C123 C 0.93623 0.0988 0.74553 0.0
C124 C 0.96838 0.08206 0.50132 0.0
C125 C 0.95674 0.12138 0.469 0.0
C126 C 0.98304 0.03867 0.67572 0.0
C127 C 0.95771 0.0196 0.17089 0.0
C128 C 1.03096 0.09637 0.07058 0.0
C129 C 0.09029 0.9606 0.38367 0.0
C130 C 0.13574 0.89537 0.42857 0.0
C131 C 0.10669 0.91307 0.5396 0.0
C132 C 0.08325 0.94434 0.51512 0.0
C133 C 0.12314 0.94923 0.28215 0.0
C134 C 0.14625 0.91708 0.30573 0.0
C135 C 0.06127 0.98465 0.3497 0.0
H136 H 0.90826 0.16001 0.79693 0.0
H137 H 0.92958 0.09134 0.85412 0.0
H138 H 0.98664 0.06129 0.41954 0.0
H139 H 0.9673 0.13032 0.36273 0.0
H140 H 0.09834 0.89785 0.637 0.0
H141 H 0.05811 0.9531 0.59462 0.0
H142 H 0.12923 0.96207 0.1803 0.0
H143 H 0.16888 0.9045 0.21939 0.0
Dy144 Dy 0.52287 0.98349 0.8337 0.0
Dy145 Dy 0.52836 0.03224 0.11566 0.0
C146 C 0.52168 0.08414 0.85434 0.0
O147 O 0.58227 0.99298 0.7923 0.0
O148 O 0.5865 0.02775 0.99367 0.0
O149 O 0.51921 0.98238 0.62271 0.0
O150 O 0.52874 0.9239 0.71224 0.0
O151 O 0.54511 0.96462 0.13549 0.0
O152 O 0.51413 0.93578 0.99743 0.0
O153 O 0.46953 0.02139 0.15882 0.0
O154 O 0.4644 0.99261 0.95087 0.0
O155 O 0.53432 0.03234 0.32263 0.0
O156 O 0.51795 0.09049 0.24645 0.0
C157 C 0.60145 1.01098 0.86573 0.0
O158 O 0.50803 0.05155 0.8087 0.0
O159 O 0.53649 0.08085 0.95614 0.0
C160 C 0.49057 0.92428 0.56517 0.0
C161 C 0.42918 0.90067 0.4954 0.0
C162 C 0.45049 0.93068 0.42053 0.0
C163 C 0.4808 0.94238 0.45529 0.0
C164 C 0.46992 0.89314 0.63761 0.0
C165 C 0.43938 0.88146 0.60293 0.0
C166 C 0.52011 0.94135 0.60996 0.0
C167 C 0.53041 0.9322 0.09489 0.0
C168 C 0.44988 1.00697 0.08175 0.0
C169 C 0.55758 0.09347 0.38631 0.0
C170 C 0.61965 0.11927 0.44267 0.0
C171 C 0.59937 0.08967 0.52366 0.0
C172 C 0.56871 0.07675 0.49509 0.0
C173 C 0.57688 0.12477 0.30934 0.0
C174 C 0.60789 0.13756 0.33737 0.0
C175 C 0.52929 0.07328 0.34316 0.0
H176 H 0.44284 0.94655 0.33894 0.0
H177 H 0.49598 0.96671 0.39911 0.0
H178 H 0.47643 0.87906 0.72453 0.0
H179 H 0.42295 0.85875 0.66355 0.0
H180 H 0.60855 0.07433 0.60291 0.0
H181 H 0.55474 0.05195 0.55323 0.0
H182 H 0.56931 0.13754 0.22257 0.0
H183 H 0.62382 0.15966 0.27166 0.0
Dy184 Dy 0.57675 0.5265 0.02809 0.0
Dy185 Dy 0.49552 0.50781 0.9637 0.0
C186 C 0.53379 0.44071 0.12532 0.0
O187 O 0.58829 0.4746 0.86051 0.0
O188 O 0.54486 0.50462 0.78379 0.0
O189 O 0.59654 0.53623 0.20459 0.0
O190 O 0.63386 0.53843 0.99329 0.0
O191 O 0.50546 0.57525 0.92054 0.0
O192 O 0.56646 0.57935 0.89481 0.0
O193 O 0.47979 0.53232 0.18831 0.0
O194 O 0.53091 0.56784 0.15866 0.0
O195 O 0.44279 0.52546 0.94244 0.0
O196 O 0.46915 0.46378 0.86171 0.0
C197 C 0.56976 0.47418 0.77035 0.0
O198 O 0.55923 0.46621 0.12747 0.0
O199 O 0.50813 0.44988 0.06718 0.0
C200 C 0.65658 0.55213 0.20017 0.0
C201 C 0.70483 0.56133 0.36551 0.0
C202 C 0.66961 0.58061 0.41057 0.0
C203 C 0.64584 0.57577 0.32986 0.0
C204 C 0.69223 0.53493 0.15037 0.0
C205 C 0.71601 0.53928 0.23208 0.0
C206 C 0.62922 0.54098 0.12901 0.0
C207 C 0.53513 0.59544 0.88419 0.0
C208 C 0.4991 0.55898 0.23426 0.0
C209 C 0.42741 0.49182 0.74673 0.0
C210 C 0.39117 0.48959 0.53613 0.0
C211 C 0.41294 0.45443 0.55173 0.0
C212 C 0.43043 0.45537 0.65666 0.0
C213 C 0.40707 0.52765 0.72626 0.0
C214 C 0.38895 0.52642 0.62342 0.0
C215 C 0.44168 0.49031 0.8706 0.0
H216 H 0.65994 0.59885 0.51004 0.0
H217 H 0.61856 0.58962 0.37119 0.0
H218 H 0.70117 0.51615 0.05176 0.0
H219 H 0.74263 0.52353 0.19299 0.0
H220 H 0.41527 0.42555 0.48659 0.0
H221 H 0.44543 0.42696 0.67003 0.0
H222 H 0.40433 0.55645 0.79199 0.0
H223 H 0.37293 0.55434 0.61283 0.0
Dy224 Dy 0.06783 0.55395 0.79959 0.0
Dy225 Dy 0.04608 0.4808 1.01932 0.0
C226 C 0.08616 0.45689 0.69496 0.0
O227 O 1.00956 0.54998 0.81667 0.0
O228 O 0.99598 0.49301 0.95097 0.0
O229 O 0.09311 0.61262 0.75448 0.0
O230 O 0.06649 0.5843 0.61418 0.0
O231 O 1.01937 0.53739 0.15843 0.0
O232 O 0.0435 0.58813 1.00981 0.0
O233 O 0.09613 0.50538 0.0521 0.0
O234 O 0.12 0.52882 0.83522 0.0
O235 O 0.05023 0.44957 0.19927 0.0
O236 O 1.025 0.41945 0.0571 0.0
C237 C 0.98714 0.5223 0.87506 0.0
O238 O 0.07606 0.49412 0.66237 0.0
O239 O 0.08473 0.45002 0.82439 0.0
C240 C 0.11391 0.62683 0.51587 0.0
C241 C 0.17178 0.64671 0.29242 0.0
C242 C 0.1496 0.61492 0.27385 0.0
C243 C 0.12128 0.60465 0.38482 0.0
C244 C 0.13375 0.66128 0.5313 0.0
C245 C 0.16259 0.67107 0.42064 0.0
C246 C 0.08543 0.61491 0.63634 0.0
C247 C 1.02455 0.57696 0.13244 0.0
C248 C 0.12392 0.51644 0.9545 0.0
C249 C 1.00326 0.40672 0.29655 0.0
C250 C 0.9427 0.39087 0.51397 0.0
C251 C 0.95302 0.36453 0.39006 0.0
C252 C 0.98332 0.37226 0.28224 0.0
C253 C 0.99438 0.43107 0.42432 0.0
C254 C 0.96444 0.42315 0.53195 0.0
C255 C 1.03215 0.41813 0.17657 0.0
H256 H 0.15572 0.5957 0.17662 0.0
H257 H 0.10583 0.57867 0.36836 0.0
H258 H 0.12775 0.67965 0.63049 0.0
H259 H 0.17899 0.69598 0.43773 0.0
H260 H 0.93643 0.33975 0.37358 0.0
H261 H 0.99019 0.35258 0.18538 0.0
H262 H 1.00953 0.45747 0.4397 0.0
H263 H 0.95686 0.44438 0.62537 0.0
C264 C 0.17994 1.0004 0.50381 0.0
C265 C 0.2079 0.99001 0.56161 0.0
H266 H 0.12339 0.01511 0.54213 0.0
C267 C 0.19959 0.98794 0.70739 0.0
H268 H 0.18553 1.00195 0.39179 0.0
C269 C 0.16407 0.99386 0.79285 0.0
C270 C 0.13569 1.00257 0.73527 0.0
H271 H 0.22069 0.98051 0.75488 0.0
H272 H 0.15889 0.99068 0.90407 0.0
C273 C 0.14428 1.00711 0.58992 0.0
C274 C 0.55457 0.18767 0.71044 0.0
C275 C 0.52857 0.2018 0.64681 0.0
H276 H 0.57182 0.14132 0.83012 0.0
C277 C 0.50045 0.17588 0.64744 0.0
H278 H 0.57717 0.20608 0.70834 0.0
C279 C 0.49813 0.13736 0.71318 0.0
C280 C 0.52326 0.12464 0.78326 0.0
H281 H 0.47984 0.18591 0.60044 0.0
H282 H 0.47625 0.11802 0.71197 0.0
C283 C 0.55143 0.15047 0.78075 0.0
C284 C 0.3138 0.50301 0.37548 0.0
C285 C 0.32993 0.48849 0.23522 0.0
H286 H 0.32037 0.51497 0.57945 0.0
C287 C 0.36594 0.47232 0.19543 0.0
H288 H 0.28636 0.5166 0.40777 0.0
C289 C 0.38563 0.47144 0.29343 0.0
C290 C 0.36987 0.4876 0.43286 0.0
H291 H 0.37913 0.46189 0.08726 0.0
H292 H 0.4136 0.45975 0.25874 0.0
C293 C 0.3335 0.50273 0.47288 0.0
C294 C 0.09141 0.38846 0.36745 0.0
C295 C 0.08866 0.3486 0.42164 0.0
H296 H 0.0918 0.45519 0.41255 0.0
C297 C 0.09559 0.34365 0.55024 0.0
H298 H 0.088 0.39217 0.26548 0.0
C299 C 0.09861 0.379 0.63381 0.0
C300 C 0.09471 0.42002 0.59002 0.0
H301 H 0.0938 0.31305 0.59388 0.0
H302 H 0.10034 0.37421 0.73822 0.0
C303 C 0.09369 0.42424 0.45176 0.0
C304 C 0.86235 0.99645 0.37154 0.0
C305 C 0.84676 0.03722 0.42432 0.0
H306 H 0.91011 0.95861 0.25358 0.0
C307 C 0.86919 0.07095 0.40317 0.0
H308 H 0.846 0.96975 0.38392 0.0
C309 C 0.90475 0.06514 0.3186 0.0
C310 C 0.92018 0.02477 0.26399 0.0
H311 H 0.85874 0.10246 0.44678 0.0
H312 H 0.92014 0.09243 0.29476 0.0
C313 C 0.89895 0.99017 0.29508 0.0
C314 C 0.55234 0.8435 0.31089 0.0
C315 C 0.52311 0.81835 0.32371 0.0
H316 H 0.57736 0.89948 0.23132 0.0
C317 C 0.4969 0.8312 0.25911 0.0
H318 H 0.57345 0.83445 0.35639 0.0
C319 C 0.50044 0.86663 0.17949 0.0
C320 C 0.52911 0.89226 0.16907 0.0
H321 H 0.47336 0.81377 0.27026 0.0
H322 H 0.47971 0.87504 0.13104 0.0
C323 C 0.55491 0.88046 0.23697 0.0
C324 C 0.73599 0.55737 0.69573 0.0
C325 C 0.77349 0.55361 0.64099 0.0
H326 H 0.68523 0.56155 0.65415 0.0
C327 C 0.78844 0.5562 0.49618 0.0
H328 H 0.72376 0.55508 0.80665 0.0
C329 C 0.76639 0.56042 0.40746 0.0
C330 C 0.72868 0.56182 0.46097 0.0
H331 H 0.81726 0.5526 0.45068 0.0
H332 H 0.77906 0.5615 0.29635 0.0
C333 C 0.71392 0.56122 0.60739 0.0
C334 C 1.01172 0.63561 0.48324 0.0
C335 C 1.01357 0.67728 0.4432 0.0
H336 H 1.014 0.57009 0.4147 0.0
C337 C 1.00877 0.68591 0.31323 0.0
H338 H 1.01419 0.62866 0.58486 0.0
C339 C 1.00875 0.6529 0.21568 0.0
C340 C 1.01271 0.61064 0.24776 0.0
H341 H 1.00982 0.71793 0.28071 0.0
H342 H 1.00881 0.66047 0.11115 0.0
C343 C 1.0115 0.60229 0.38588 0.0
C344 C 0.98348 0.24699 0.59366 0.0
C345 C 0.98857 0.2596 0.45757 0.0
H346 H 0.96023 0.20419 0.74319 0.0
C347 C 0.96685 0.24459 0.37834 0.0
H348 H 1.00046 0.25711 0.65572 0.0
C349 C 0.94422 0.21263 0.42688 0.0
C350 C 0.94305 0.19595 0.55568 0.0
H351 H 0.97016 0.25452 0.27364 0.0
H352 H 0.9311 0.19763 0.35723 0.0
C353 C 0.96018 0.2163 0.64385 0.0
C354 C 0.33021 0.91707 0.56911 0.0
C355 C 0.3271 0.91699 0.43275 0.0
H356 H 0.36562 0.91067 0.69591 0.0
C357 C 0.35627 0.90111 0.32002 0.0
H358 H 0.30821 0.92988 0.65727 0.0
C359 C 0.38951 0.89107 0.34146 0.0
C360 C 0.39352 0.89593 0.47647 0.0
H361 H 0.35416 0.90044 0.21439 0.0
H362 H 0.41263 0.88299 0.25169 0.0
C363 C 0.36315 0.90624 0.59103 0.0
C364 C 0.57974 0.35771 0.66458 0.0
C365 C 0.54958 0.35354 0.61653 0.0
H366 H 0.61013 0.39955 0.75108 0.0
C367 C 0.52915 0.38981 0.60243 0.0
H368 H 0.59639 0.33007 0.67254 0.0
C369 C 0.53818 0.42961 0.63903 0.0
C370 C 0.56647 0.43365 0.69867 0.0
H371 H 0.5057 0.38733 0.56638 0.0
H372 H 0.52163 0.45699 0.62801 0.0
C373 C 0.5879 0.39743 0.70707 0.0
C374 C 0.24533 0.60488 0.9864 0.0
C375 C 0.2676 0.5891 0.06319 0.0
H376 H 0.19499 0.63848 1.00175 0.0
C377 C 0.26512 0.60974 0.19382 0.0
H378 H 0.24824 0.59185 0.88158 0.0
C379 C 0.23641 0.6385 0.25835 0.0
C380 C 0.20866 0.64484 0.19685 0.0
H381 H 0.28168 0.59888 0.25709 0.0
H382 H 0.23281 0.64854 0.36691 0.0
C383 C 0.21536 0.63236 0.05403 0.0
C384 C 0.12237 0.79055 0.56352 0.0
C385 C 0.10258 0.77664 0.47496 0.0
H386 H 0.15123 0.84125 0.61568 0.0
C387 C 0.1073 0.79436 0.34604 0.0
H388 H 0.12032 0.77594 0.66066 0.0
C389 C 0.12753 0.8289 0.31443 0.0
C390 C 0.14039 0.84878 0.41725 0.0
H391 H 0.09214 0.78483 0.27613 0.0
H392 H 0.12686 0.84438 0.22096 0.0
C393 C 0.141 0.82697 0.53567 0.0
C394 C 0.69655 0.11884 0.5929 0.0
C395 C 0.72287 0.0968 0.48214 0.0
H396 H 0.6419 0.14441 0.66641 0.0
C397 C 0.71702 0.09096 0.35097 0.0
H398 H 0.70082 0.12324 0.69482 0.0
C399 C 0.68419 0.1043 0.33314 0.0
C400 C 0.6565 0.12225 0.44787 0.0
H401 H 0.7368 0.073 0.26576 0.0
H402 H 0.67918 0.09619 0.23421 0.0
C403 C 0.66324 0.13122 0.57634 0.0
C404 C 0.46529 0.66299 0.39383 0.0
C405 C 0.49524 0.67089 0.44089 0.0
H406 H 0.44119 0.61735 0.29072 0.0
C407 C 0.51605 0.63622 0.46507 0.0
H408 H 0.44797 0.68897 0.37851 0.0
C409 C 0.50866 0.59518 0.43474 0.0
C410 C 0.48435 0.58821 0.35776 0.0
H411 H 0.54023 0.64028 0.49395 0.0
H412 H 0.52756 0.56969 0.44257 0.0
C413 C 0.46033 0.62182 0.34915 0.0
C414 C 0.86867 0.42901 0.8239 0.0
C415 C 0.84662 0.44749 0.75076 0.0
H416 H 0.9188 0.39402 0.80235 0.0
C417 C 0.84991 0.43125 0.61387 0.0
H418 H 0.86517 0.43879 0.93223 0.0
C419 C 0.87877 0.4034 0.5431 0.0
C420 C 0.90565 0.3934 0.606 0.0
H421 H 0.83325 0.4445 0.55427 0.0
H422 H 0.88313 0.3964 0.43205 0.0
C423 C 0.8987 0.40247 0.7508 0.0
C424 C 0.04078 0.21603 0.08676 0.0
C425 C 0.04723 0.22256 0.21737 0.0
H426 H 1.03045 0.17113 0.93667 0.0
C427 C 0.04947 0.18758 0.29519 0.0
H428 H 0.03829 0.24274 1.0262 0.0
C429 C 0.04445 0.1471 0.24614 0.0
C430 C 1.03708 0.14017 0.11703 0.0
H431 H 0.05387 0.19198 0.39691 0.0
H432 H 0.0459 0.1212 0.31124 0.0
C433 C 1.03594 0.17515 0.03652 0.0
C434 C 0.35817 1.01009 0.35769 0.0
C435 C 0.33621 0.99431 0.28047 0.0
H436 H 0.41074 0.02668 0.3568 0.0
C437 C 0.35118 0.98551 0.13556 0.0
H438 H 0.34754 0.01604 0.46998 0.0
C439 C 0.38765 0.99075 0.07015 0.0
C440 C 0.41017 1.0051 0.14807 0.0
H441 H 0.33505 0.97231 0.07438 0.0
H442 H 0.39843 0.98221 0.95915 0.0
C443 C 0.39454 0.01568 0.29246 0.0
C444 C 0.567 0.34722 0.29201 0.0
C445 C 0.53556 0.32688 0.34886 0.0
H446 H 0.59102 0.3989 0.18009 0.0
C447 C 0.50409 0.34137 0.31796 0.0
H448 H 0.5915 0.33702 0.31532 0.0
C449 C 0.50361 0.37723 0.24033 0.0
C450 C 0.53455 0.39964 0.19314 0.0
H451 H 0.4793 0.32687 0.36269 0.0
H452 H 0.47854 0.38874 0.22414 0.0
C453 C 0.56648 0.38317 0.2164 0.0
C454 C 0.22571 0.51435 0.89654 0.0
C455 C 0.22875 0.51155 0.03286 0.0
H456 H 0.19087 0.51946 0.7649 0.0
C457 C 0.19716 0.50857 0.1423 0.0
H458 H 0.24963 0.51607 0.80985 0.0
C459 C 0.16346 0.50926 0.11625 0.0
C460 C 0.16018 0.51417 0.98056 0.0
H461 H 0.19844 0.50664 0.24852 0.0
H462 H 0.13979 0.50723 0.20376 0.0
C463 C 0.19198 0.51635 0.87095 0.0
C464 C 0.05234 0.80716 0.82888 0.0
C465 C 0.03855 0.80036 0.71469 0.0
H466 H 0.06149 0.85235 0.98068 0.0
C467 C 1.0212 0.83459 0.67134 0.0
H468 H 0.06589 0.78114 0.86395 0.0
C469 C 1.01817 0.87493 0.73851 0.0
C470 C 1.03291 0.88248 0.85023 0.0
H471 H 1.01079 0.83018 0.58262 0.0
H472 H 1.00508 0.90054 0.69957 0.0
C473 C 0.04989 0.84791 0.8952 0.0
C474 C 0.6936 1.00773 0.59097 0.0
C475 C 0.71504 0.02636 0.66562 0.0
H476 H 0.64167 0.98813 0.5937 0.0
C477 C 0.69944 0.03763 0.80892 0.0
H478 H 0.70459 0.99981 0.4797 0.0
C479 C 0.66306 0.03158 0.87477 0.0
C480 C 0.64114 1.01404 0.79911 0.0
H481 H 0.71496 0.05314 0.86819 0.0
H482 H 0.65185 0.04189 0.98432 0.0
C483 C 0.65735 1.00144 0.65655 0.0
C484 C 0.55758 0.69239 0.67083 0.0
C485 C 0.52309 0.70754 0.66841 0.0
H486 H 0.58885 0.64417 0.7382 0.0
C487 C 0.49326 0.69084 0.75815 0.0
H488 H 0.58104 0.70452 0.60139 0.0
C489 C 0.49757 0.65641 0.83536 0.0
C490 C 0.53195 0.63747 0.82478 0.0
H491 H 0.4665 0.70194 0.75815 0.0
H492 H 0.47364 0.643 0.89655 0.0
C493 C 0.562 0.65739 0.74762 0.0
C494 C 0.88591 0.51708 0.93815 0.0
C495 C 0.88128 0.52601 0.8076 0.0
H496 H 0.92261 0.50718 0.06049 0.0
C497 C 0.91164 0.53552 0.70096 0.0
H498 H 0.86294 0.51049 1.02313 0.0
C499 C 0.94571 0.53524 0.72392 0.0
C500 C 0.95058 0.52422 0.85274 0.0
H501 H 0.90915 0.54227 0.59899 0.0
H502 H 0.96853 0.54233 0.63908 0.0
C503 C 0.9201 0.5152 0.95952 0.0
loop_
_geom_bond_atom_site_label_1
_geom_bond_atom_site_label_2
_geom_bond_distance
_geom_bond_site_symmetry_2
_ccdc_geom_bond_type
C0 N1 1.317 . S
C0 N2 1.348 . S
C0 C3 1.485 1_556 S
N1 C0 1.317 . S
N1 N5 1.370 . S
N2 C0 1.348 . S
N2 C4 1.346 . S
C3 C0 1.485 1_554 S
C3 H7 0.960 . S
C3 H8 0.961 . S
C3 H9 0.960 . S
C4 N2 1.346 . S
C4 N5 1.307 . S
C4 C6 1.486 . S
N5 N1 1.370 . S
N5 C4 1.307 . S
C6 C4 1.486 . S
C6 H10 0.960 . S
C6 H11 0.960 . S
C6 H12 0.959 . S
H7 C3 0.960 . S
H8 C3 0.961 . S
H9 C3 0.960 . S
H10 C6 0.960 . S
H11 C6 0.960 . S
H12 C6 0.959 . S
C13 N14 1.317 . S
C13 N15 1.348 . S
C13 C16 1.485 . S
N14 C13 1.317 . S
N14 N18 1.368 . S
N15 C13 1.348 . S
N15 C17 1.346 1_655 S
C16 C13 1.485 . S
C16 H20 0.960 1_655 S
C16 H21 0.961 . S
C16 H22 0.960 . S
C17 N15 1.346 1_455 S
C17 N18 1.310 1_455 S
C17 C19 1.486 . S
N18 N14 1.368 . S
N18 C17 1.310 1_655 S
C19 C17 1.486 . S
C19 H23 0.960 1_455 S
C19 H24 0.960 . S
C19 H25 0.959 . S
H20 C16 0.960 1_455 S
H21 C16 0.961 . S
H22 C16 0.960 . S
H23 C19 0.960 1_655 S
H24 C19 0.960 . S
H25 C19 0.959 . S
C26 N27 1.317 . S
C26 N28 1.348 . S
C26 C29 1.485 . S
N27 C26 1.317 . S
N27 N31 1.372 . S
N28 C26 1.348 . S
N28 C30 1.346 1_565 S
C29 C26 1.485 . S
C29 H33 0.960 1_565 S
C29 H34 0.961 . S
C29 H35 0.960 . S
C30 N28 1.346 1_545 S
C30 N31 1.304 1_545 S
C30 C32 1.487 . S
N31 N27 1.372 . S
N31 C30 1.304 1_565 S
C32 C30 1.487 . S
C32 H36 0.960 1_545 S
C32 H37 0.960 . S
C32 H38 0.959 . S
H33 C29 0.960 1_545 S
H34 C29 0.961 . S
H35 C29 0.960 . S
H36 C32 0.960 1_565 S
H37 C32 0.960 . S
H38 C32 0.959 . S
C39 N40 1.317 . S
C39 N41 1.348 . S
C39 C42 1.485 . S
N40 C39 1.317 . S
N40 N44 1.370 . S
N41 C39 1.348 . S
N41 C43 1.346 . S
C42 C39 1.485 . S
C42 H46 0.960 . S
C42 H47 0.961 . S
C42 H48 0.960 . S
C43 N41 1.346 . S
C43 N44 1.307 . S
C43 C45 1.486 . S
N44 N40 1.370 . S
N44 C43 1.307 . S
C45 C43 1.486 . S
C45 H49 0.960 . S
C45 H50 0.960 . S
C45 H51 0.959 . S
H46 C42 0.960 . S
H47 C42 0.961 . S
H48 C42 0.960 . S
H49 C45 0.960 . S
H50 C45 0.960 . S
H51 C45 0.959 . S
C52 N53 1.317 . S
C52 N54 1.348 1_556 S
C52 C55 1.485 . S
N53 C52 1.317 . S
N53 N57 1.370 1_556 S
N54 C52 1.348 1_554 S
N54 C56 1.346 . S
C55 C52 1.485 . S
C55 H59 0.960 . S
C55 H60 0.961 . S
C55 H61 0.960 . S
C56 N54 1.346 . S
C56 N57 1.307 . S
C56 C58 1.486 . S
N57 N53 1.370 1_554 S
N57 C56 1.307 . S
C58 C56 1.486 . S
C58 H62 0.960 . S
C58 H63 0.960 . S
C58 H64 0.959 . S
H59 C55 0.960 . S
H60 C55 0.961 . S
H61 C55 0.960 . S
H62 C58 0.960 . S
H63 C58 0.960 . S
H64 C58 0.959 . S
C65 N66 1.317 . S
C65 N67 1.358 . S
C65 C68 1.485 1_554 S
N66 C65 1.317 . S
N66 N70 1.371 . S
N67 C65 1.358 . S
N67 C69 1.342 1_655 S
C68 C65 1.485 1_556 S
C68 H72 0.960 1_655 S
C68 H73 0.961 1_556 S
C68 H74 0.960 . S
C69 N67 1.342 1_455 S
C69 N70 1.304 1_455 S
C69 C71 1.489 . S
N70 N66 1.371 . S
N70 C69 1.304 1_655 S
C71 C69 1.489 . S
C71 H75 0.960 1_455 S
C71 H76 0.960 . S
C71 H77 0.959 . S
H72 C68 0.960 1_455 S
H73 C68 0.961 1_554 S
H74 C68 0.960 . S
H75 C71 0.960 1_655 S
H76 C71 0.960 . S
H77 C71 0.959 . S
C78 N79 1.317 . S
C78 N80 1.348 . S
C78 C81 1.485 . S
N79 C78 1.317 . S
N79 N83 1.370 . S
N80 C78 1.348 . S
N80 C82 1.346 1_565 S
C81 C78 1.485 . S
C81 H85 0.960 1_565 S
C81 H86 0.961 . S
C81 H87 0.960 . S
C82 N80 1.346 1_545 S
C82 N83 1.309 1_545 S
C82 C84 1.485 . S
N83 N79 1.370 . S
N83 C82 1.309 1_565 S
C84 C82 1.485 . S
C84 H88 0.960 1_545 S
C84 H89 0.960 . S
C84 H90 0.959 . S
H85 C81 0.960 1_545 S
H86 C81 0.961 . S
H87 C81 0.960 . S
H88 C84 0.960 1_565 S
H89 C84 0.960 . S
H90 C84 0.959 . S
C91 N92 1.317 . S
C91 N93 1.348 . S
C91 C94 1.485 . S
N92 C91 1.317 . S
N92 N96 1.370 . S
N93 C91 1.348 . S
N93 C95 1.346 . S
C94 C91 1.485 . S
C94 H98 0.960 . S
C94 H99 0.961 . S
C94 H100 0.960 . S
C95 N93 1.346 . S
C95 N96 1.307 . S
C95 C97 1.486 . S
N96 N92 1.370 . S
N96 C95 1.307 . S
C97 C95 1.486 . S
C97 H101 0.960 . S
C97 H102 0.960 . S
C97 H103 0.959 . S
H98 C94 0.960 . S
H99 C94 0.961 . S
H100 C94 0.960 . S
H101 C97 0.960 . S
H102 C97 0.960 . S
H103 C97 0.959 . S
Dy104 O107 2.307 1_545 S
Dy104 O109 2.395 1_655 S
Dy104 O110 2.379 . S
Dy104 O112 2.339 . S
Dy104 O114 2.298 . S
Dy104 O118 2.275 1_655 S
Dy104 C126 2.738 . S
Dy105 O108 2.298 1_554 S
Dy105 O111 2.275 1_455 S
Dy105 O113 2.307 1_565 S
Dy105 O115 2.395 1_455 S
Dy105 O116 2.379 . S
Dy105 O119 2.339 1_554 S
Dy105 C135 2.738 . S
C106 O118 1.254 1_565 S
C106 O119 1.257 . S
O107 Dy104 2.307 1_565 S
O107 C117 1.266 . S
O108 Dy105 2.298 1_556 S
O108 C117 1.236 1_455 S
O109 Dy104 2.395 1_455 S
O109 C126 1.255 1_455 S
O110 Dy104 2.379 . S
O110 C126 1.249 . S
O111 Dy105 2.275 1_655 S
O111 C127 1.254 1_565 S
O112 Dy104 2.339 . S
O112 C127 1.257 1_556 S
O113 Dy105 2.307 1_545 S
O113 C128 1.266 . S
O114 Dy104 2.298 . S
O114 C128 1.236 1_656 S
O115 Dy105 2.395 1_655 S
O115 C135 1.255 1_655 S
O116 Dy105 2.379 . S
O116 C135 1.249 . S
C117 O107 1.266 . S
C117 O108 1.236 1_655 S
O118 Dy104 2.275 1_455 S
O118 C106 1.254 1_545 S
O119 Dy105 2.339 1_556 S
O119 C106 1.257 . S
C120 C123 1.344 1_655 S
C120 C124 1.328 . S
C120 C126 1.516 . S
C121 C122 1.304 1_655 S
C121 C125 1.323 . S
C122 C121 1.304 1_455 S
C122 C123 1.371 . S
C122 H136 0.930 . S
C123 C120 1.344 1_455 S
C123 C122 1.371 . S
C123 H137 0.931 . S
C124 C120 1.328 . S
C124 C125 1.433 . S
C124 H138 0.931 . S
C125 C121 1.323 . S
C125 C124 1.433 . S
C125 H139 0.933 . S
C126 Dy104 2.738 . S
C126 O109 1.255 1_655 S
C126 O110 1.249 . S
C126 C120 1.516 . S
C127 O111 1.254 1_545 S
C127 O112 1.257 1_554 S
C128 O113 1.266 . S
C128 O114 1.236 1_454 S
C129 C132 1.344 1_455 S
C129 C133 1.328 . S
C129 C135 1.516 . S
C130 C131 1.304 1_455 S
C130 C134 1.323 . S
C131 C130 1.304 1_655 S
C131 C132 1.371 . S
C131 H140 0.930 . S
C132 C129 1.344 1_655 S
C132 C131 1.371 . S
C132 H141 0.931 . S
C133 C129 1.328 . S
C133 C134 1.433 . S
C133 H142 0.931 . S
C134 C130 1.323 . S
C134 C133 1.433 . S
C134 H143 0.933 . S
C135 Dy105 2.738 . S
C135 O115 1.255 1_455 S
C135 O116 1.249 . S
C135 C129 1.516 . S
H136 C122 0.930 . S
H137 C123 0.931 . S
H138 C124 0.931 . S
H139 C125 0.933 . S
H140 C131 0.930 . S
H141 C132 0.931 . S
H142 C133 0.931 . S
H143 C134 0.933 . S
Dy144 O147 2.307 . S
Dy144 O149 2.395 1_565 S
Dy144 O150 2.379 . S
Dy144 O152 2.339 . S
Dy144 O154 2.298 . S
Dy144 O158 2.275 1_565 S
Dy144 C166 2.738 . S
Dy145 O148 2.298 1_554 S
Dy145 O151 2.275 1_545 S
Dy145 O153 2.307 . S
Dy145 O155 2.384 1_545 S
Dy145 O156 2.379 . S
Dy145 O159 2.339 1_554 S
Dy145 C175 2.738 . S
C146 O158 1.254 . S
C146 O159 1.257 . S
O147 Dy144 2.307 . S
O147 C157 1.266 . S
O148 Dy145 2.298 1_556 S
O148 C157 1.236 1_545 S
O149 Dy144 2.395 1_545 S
O149 C166 1.255 1_545 S
O150 Dy144 2.379 . S
O150 C166 1.249 . S
O151 Dy145 2.275 1_565 S
O151 C167 1.254 1_554 S
O152 Dy144 2.339 . S
O152 C167 1.257 . S
O153 Dy145 2.307 . S
O153 C168 1.266 . S
O154 Dy144 2.298 . S
O154 C168 1.236 1_566 S
O155 Dy145 2.384 1_565 S
O155 C175 1.228 1_565 S
O156 Dy145 2.379 . S
O156 C175 1.249 . S
C157 O147 1.266 . S
C157 O148 1.236 1_565 S
O158 Dy144 2.275 1_545 S
O158 C146 1.254 . S
O159 Dy145 2.339 1_556 S
O159 C146 1.257 . S
C160 C163 1.344 . S
C160 C164 1.328 . S
C160 C166 1.516 . S
C161 C162 1.304 . S
C161 C165 1.323 . S
C162 C161 1.304 . S
C162 C163 1.371 . S
C162 H176 0.930 1_565 S
C163 C160 1.344 . S
C163 C162 1.371 . S
C163 H177 0.931 1_565 S
C164 C160 1.328 . S
C164 C165 1.433 . S
C164 H178 0.931 . S
C165 C161 1.323 . S
C165 C164 1.433 . S
C165 H179 0.933 . S
C166 Dy144 2.738 . S
C166 O149 1.255 1_565 S
C166 O150 1.249 . S
C166 C160 1.516 . S
C167 O151 1.254 1_556 S
C167 O152 1.257 . S
C168 O153 1.266 . S
C168 O154 1.236 1_544 S
C169 C172 1.344 . S
C169 C173 1.328 . S
C169 C175 1.516 . S
C170 C171 1.304 . S
C170 C174 1.323 . S
C171 C170 1.304 . S
C171 C172 1.371 . S
C171 H180 0.930 1_545 S
C172 C169 1.344 . S
C172 C171 1.371 . S
C172 H181 0.931 1_545 S
C173 C169 1.328 . S
C173 C174 1.433 . S
C173 H182 0.931 . S
C174 C170 1.323 . S
C174 C173 1.433 . S
C174 H183 0.933 . S
C175 Dy145 2.738 . S
C175 O155 1.228 1_545 S
C175 O156 1.249 . S
C175 C169 1.516 . S
H176 C162 0.930 1_545 S
H177 C163 0.931 1_545 S
H178 C164 0.931 . S
H179 C165 0.933 . S
H180 C171 0.930 1_565 S
H181 C172 0.931 1_565 S
H182 C173 0.931 . S
H183 C174 0.933 . S
Dy184 O187 2.307 . S
Dy184 O189 2.395 1_556 S
Dy184 O190 2.379 . S
Dy184 O192 2.339 . S
Dy184 O194 2.298 1_556 S
Dy184 O198 2.275 1_556 S
Dy184 C206 2.738 1_556 S
Dy185 O188 2.298 . S
Dy185 O191 2.275 . S
Dy185 O193 2.307 1_556 S
Dy185 O195 2.395 . S
Dy185 O196 2.379 . S
Dy185 O199 2.339 1_556 S
Dy185 C215 2.738 . S
C186 O198 1.254 . S
C186 O199 1.257 . S
O187 Dy184 2.307 . S
O187 C197 1.266 . S
O188 Dy185 2.298 . S
O188 C197 1.236 . S
O189 Dy184 2.395 1_554 S
O189 C206 1.255 . S
O190 Dy184 2.379 . S
O190 C206 1.249 1_556 S
O191 Dy185 2.275 . S
O191 C207 1.254 . S
O192 Dy184 2.339 . S
O192 C207 1.257 . S
O193 Dy185 2.307 1_554 S
O193 C208 1.266 . S
O194 Dy184 2.298 1_554 S
O194 C208 1.236 . S
O195 Dy185 2.395 . S
O195 C215 1.255 . S
O196 Dy185 2.379 . S
O196 C215 1.249 . S
C197 O187 1.266 . S
C197 O188 1.236 . S
O198 Dy184 2.275 1_554 S
O198 C186 1.254 . S
O199 Dy185 2.339 1_554 S
O199 C186 1.257 . S
C200 C203 1.344 . S
C200 C204 1.328 . S
C200 C206 1.516 . S
C201 C202 1.304 . S
C201 C205 1.323 . S
C202 C201 1.304 . S
C202 C203 1.371 . S
C202 H216 0.930 . S
C203 C200 1.344 . S
C203 C202 1.371 . S
C203 H217 0.931 . S
C204 C200 1.328 . S
C204 C205 1.433 . S
C204 H218 0.931 . S
C205 C201 1.323 . S
C205 C204 1.433 . S
C205 H219 0.933 . S
C206 Dy184 2.738 1_554 S
C206 O189 1.255 . S
C206 O190 1.249 1_554 S
C206 C200 1.516 . S
C207 O191 1.254 . S
C207 O192 1.257 . S
C208 O193 1.266 . S
C208 O194 1.236 . S
C209 C212 1.344 . S
C209 C213 1.328 . S
C209 C215 1.516 . S
C210 C211 1.304 . S
C210 C214 1.323 . S
C211 C210 1.304 . S
C211 C212 1.371 . S
C211 H220 0.930 . S
C212 C209 1.344 . S
C212 C211 1.371 . S
C212 H221 0.931 . S
C213 C209 1.328 . S
C213 C214 1.433 . S
C213 H222 0.931 . S
C214 C210 1.323 . S
C214 C213 1.433 . S
C214 H223 0.933 . S
C215 Dy185 2.738 . S
C215 O195 1.255 . S
C215 O196 1.249 . S
C215 C209 1.516 . S
H216 C202 0.930 . S
H217 C203 0.931 . S
H218 C204 0.931 . S
H219 C205 0.933 . S
H220 C211 0.930 . S
H221 C212 0.931 . S
H222 C213 0.931 . S
H223 C214 0.933 . S
Dy224 O227 2.307 1_455 S
Dy224 O229 2.395 . S
Dy224 O230 2.379 . S
Dy224 O232 2.339 . S
Dy224 O234 2.298 . S
Dy224 O238 2.275 . S
Dy224 C246 2.738 . S
Dy225 O228 2.298 1_554 S
Dy225 O231 2.275 . S
Dy225 O233 2.307 1_655 S
Dy225 O235 2.395 . S
Dy225 O236 2.379 . S
Dy225 O239 2.339 1_554 S
Dy225 C255 2.738 . S
C226 O238 1.254 1_655 S
C226 O239 1.257 . S
O227 Dy224 2.307 1_655 S
O227 C237 1.266 . S
O228 Dy225 2.298 1_556 S
O228 C237 1.236 . S
O229 Dy224 2.395 . S
O229 C246 1.255 . S
O230 Dy224 2.379 . S
O230 C246 1.249 . S
O231 Dy225 2.275 . S
O231 C247 1.254 1_655 S
O232 Dy224 2.339 . S
O232 C247 1.257 1_556 S
O233 Dy225 2.307 1_455 S
O233 C248 1.266 1_554 S
O234 Dy224 2.298 . S
O234 C248 1.236 . S
O235 Dy225 2.395 . S
O235 C255 1.255 . S
O236 Dy225 2.379 . S
O236 C255 1.249 . S
C237 O227 1.266 . S
C237 O228 1.236 . S
O238 Dy224 2.275 . S
O238 C226 1.254 1_455 S
O239 Dy225 2.339 1_556 S
O239 C226 1.257 . S
C240 C243 1.344 . S
C240 C244 1.328 . S
C240 C246 1.516 . S
C241 C242 1.304 . S
C241 C245 1.323 . S
C242 C241 1.304 . S
C242 C243 1.371 . S
C242 H256 0.930 . S
C243 C240 1.344 . S
C243 C242 1.371 . S
C243 H257 0.931 . S
C244 C240 1.328 . S
C244 C245 1.433 . S
C244 H258 0.931 . S
C245 C241 1.323 . S
C245 C244 1.433 . S
C245 H259 0.933 . S
C246 Dy224 2.738 . S
C246 O229 1.255 . S
C246 O230 1.249 . S
C246 C240 1.516 . S
C247 O231 1.254 1_455 S
C247 O232 1.257 1_554 S
C248 O233 1.266 1_556 S
C248 O234 1.236 . S
C249 C252 1.344 . S
C249 C253 1.328 . S
C249 C255 1.516 . S
C250 C251 1.304 . S
C250 C254 1.323 . S
C251 C250 1.304 . S
C251 C252 1.371 . S
C251 H260 0.930 . S
C252 C249 1.344 . S
C252 C251 1.371 . S
C252 H261 0.931 . S
C253 C249 1.328 . S
C253 C254 1.433 . S
C253 H262 0.931 . S
C254 C250 1.323 . S
C254 C253 1.433 . S
C254 H263 0.933 . S
C255 Dy225 2.738 . S
C255 O235 1.255 . S
C255 O236 1.249 . S
C255 C249 1.516 . S
H256 C242 0.930 . S
H257 C243 0.931 . S
H258 C244 0.931 . S
H259 C245 0.933 . S
H260 C251 0.930 . S
H261 C252 0.931 . S
H262 C253 0.931 . S
H263 C254 0.933 . S
C264 C265 1.384 1_565 S
C264 H268 0.950 . S
C264 C273 1.390 . S
C265 C264 1.384 1_545 S
C265 C267 1.391 . S
H266 C273 0.950 . S
C267 C265 1.391 . S
C267 C269 1.390 . S
C267 H271 0.950 . S
H268 C264 0.950 . S
C269 C267 1.390 . S
C269 C270 1.394 . S
C269 H272 0.950 . S
C270 C269 1.394 . S
C270 C273 1.382 1_545 S
H271 C267 0.950 . S
H272 C269 0.950 . S
C273 C264 1.390 . S
C273 H266 0.950 . S
C273 C270 1.382 1_565 S
C274 C275 1.387 . S
C274 H278 0.950 . S
C274 C283 1.390 . S
C275 C274 1.387 . S
C275 C277 1.387 . S
H276 C283 0.950 . S
C277 C275 1.387 . S
C277 C279 1.390 . S
C277 H281 0.950 . S
H278 C274 0.950 . S
C279 C277 1.390 . S
C279 C280 1.387 . S
C279 H282 0.950 . S
C280 C279 1.387 . S
C280 C283 1.387 . S
H281 C277 0.950 . S
H282 C279 0.950 . S
C283 C274 1.390 . S
C283 H276 0.950 . S
C283 C280 1.387 . S
C284 C285 1.387 . S
C284 H288 0.950 . S
C284 C293 1.390 . S
C285 C284 1.387 . S
C285 C287 1.387 . S
H286 C293 0.950 . S
C287 C285 1.387 . S
C287 C289 1.390 . S
C287 H291 0.950 . S
H288 C284 0.950 . S
C289 C287 1.390 . S
C289 C290 1.387 . S
C289 H292 0.950 . S
C290 C289 1.387 . S
C290 C293 1.387 . S
H291 C287 0.950 . S
H292 C289 0.950 . S
C293 C284 1.390 . S
C293 H286 0.950 . S
C293 C290 1.387 . S
C294 C295 1.387 1_655 S
C294 H298 0.950 . S
C294 C303 1.390 . S
C295 C294 1.387 1_455 S
C295 C297 1.387 . S
H296 C303 0.950 . S
C297 C295 1.387 . S
C297 C299 1.390 . S
C297 H301 0.950 . S
H298 C294 0.950 . S
C299 C297 1.390 . S
C299 C300 1.387 . S
C299 H302 0.950 . S
C300 C299 1.387 . S
C300 C303 1.387 1_455 S
H301 C297 0.950 . S
H302 C299 0.950 . S
C303 C294 1.390 . S
C303 H296 0.950 . S
C303 C300 1.387 1_655 S
C304 C305 1.385 . S
C304 H308 0.950 . S
C304 C313 1.390 . S
C305 C304 1.385 . S
C305 C307 1.390 1_565 S
H306 C313 0.950 . S
C307 C305 1.390 1_545 S
C307 C309 1.390 . S
C307 H311 0.950 . S
H308 C304 0.950 . S
C309 C307 1.390 . S
C309 C310 1.386 1_545 S
C309 H312 0.950 . S
C310 C309 1.386 1_565 S
C310 C313 1.389 . S
H311 C307 0.950 . S
H312 C309 0.950 . S
C313 C304 1.390 . S
C313 H306 0.950 . S
C313 C310 1.389 . S
C314 C315 1.387 . S
C314 H318 0.950 . S
C314 C323 1.390 . S
C315 C314 1.387 . S
C315 C317 1.387 . S
H316 C323 0.950 . S
C317 C315 1.387 . S
C317 C319 1.390 . S
C317 H321 0.950 . S
H318 C314 0.950 . S
C319 C317 1.390 . S
C319 C320 1.387 . S
C319 H322 0.950 . S
C320 C319 1.387 . S
C320 C323 1.387 . S
H321 C317 0.950 . S
H322 C319 0.950 . S
C323 C314 1.390 . S
C323 H316 0.950 . S
C323 C320 1.387 . S
C324 C325 1.387 . S
C324 H328 0.950 . S
C324 C333 1.390 . S
C325 C324 1.387 . S
C325 C327 1.387 . S
H326 C333 0.950 . S
C327 C325 1.387 . S
C327 C329 1.390 . S
C327 H331 0.950 . S
H328 C324 0.950 . S
C329 C327 1.390 . S
C329 C330 1.387 . S
C329 H332 0.950 . S
C330 C329 1.387 . S
C330 C333 1.387 . S
H331 C327 0.950 . S
H332 C329 0.950 . S
C333 C324 1.390 . S
C333 H326 0.950 . S
C333 C330 1.387 . S
C334 C335 1.381 1_455 S
C334 H338 0.950 . S
C334 C343 1.390 . S
C335 C334 1.381 1_655 S
C335 C337 1.404 . S
H336 C343 0.950 . S
C337 C335 1.404 . S
C337 C339 1.390 . S
C337 H341 0.950 . S
H338 C334 0.950 . S
C339 C337 1.390 . S
C339 C340 1.387 . S
C339 H342 0.950 . S
C340 C339 1.387 . S
C340 C343 1.387 1_655 S
H341 C337 0.950 . S
H342 C339 0.950 . S
C343 C334 1.390 . S
C343 H336 0.950 . S
C343 C340 1.387 1_455 S
C344 C345 1.387 . S
C344 H348 0.950 . S
C344 C353 1.390 1_455 S
C345 C344 1.387 . S
C345 C347 1.387 1_455 S
H346 C353 0.950 . S
C347 C345 1.387 1_655 S
C347 C349 1.390 . S
C347 H351 0.950 . S
H348 C344 0.950 . S
C349 C347 1.390 . S
C349 C350 1.387 . S
C349 H352 0.950 . S
C350 C349 1.387 . S
C350 C353 1.387 . S
H351 C347 0.950 . S
H352 C349 0.950 . S
C353 C344 1.390 1_655 S
C353 H346 0.950 . S
C353 C350 1.387 . S
C354 C355 1.388 . S
C354 H358 0.948 1_565 S
C354 C363 1.392 . S
C355 C354 1.388 . S
C355 C357 1.387 . S
H356 C363 0.950 . S
C357 C355 1.387 . S
C357 C359 1.390 . S
C357 H361 0.950 . S
H358 C354 0.948 1_545 S
C359 C357 1.390 . S
C359 C360 1.387 . S
C359 H362 0.950 . S
C360 C359 1.387 . S
C360 C363 1.387 . S
H361 C357 0.950 . S
H362 C359 0.950 . S
C363 C354 1.392 . S
C363 H356 0.950 . S
C363 C360 1.387 . S
C364 C365 1.387 . S
C364 H368 0.950 . S
C364 C373 1.390 . S
C365 C364 1.387 . S
C365 C367 1.387 . S
H366 C373 0.950 . S
C367 C365 1.387 . S
C367 C369 1.390 . S
C367 H371 0.950 . S
H368 C364 0.950 . S
C369 C367 1.390 . S
C369 C370 1.387 . S
C369 H372 0.950 . S
C370 C369 1.387 . S
C370 C373 1.387 . S
H371 C367 0.950 . S
H372 C369 0.950 . S
C373 C364 1.390 . S
C373 H366 0.950 . S
C373 C370 1.387 . S
C374 C375 1.387 . S
C374 H378 0.950 1_554 S
C374 C383 1.390 . S
C375 C374 1.387 . S
C375 C377 1.387 . S
H376 C383 0.950 . S
C377 C375 1.387 . S
C377 C379 1.390 . S
C377 H381 0.950 . S
H378 C374 0.950 1_556 S
C379 C377 1.390 . S
C379 C380 1.387 . S
C379 H382 0.950 . S
C380 C379 1.387 . S
C380 C383 1.387 . S
H381 C377 0.950 . S
H382 C379 0.950 . S
C383 C374 1.390 . S
C383 H376 0.950 . S
C383 C380 1.387 . S
C384 C385 1.387 1_455 S
C384 H388 0.950 . S
C384 C393 1.390 . S
C385 C384 1.387 1_655 S
C385 C387 1.387 . S
H386 C393 0.950 . S
C387 C385 1.387 . S
C387 C389 1.390 1_655 S
C387 H391 0.950 . S
H388 C384 0.950 . S
C389 C387 1.390 1_455 S
C389 C390 1.387 . S
C389 H392 0.950 1_455 S
C390 C389 1.387 . S
C390 C393 1.387 . S
H391 C387 0.950 . S
H392 C389 0.950 1_655 S
C393 C384 1.390 . S
C393 H386 0.950 . S
C393 C390 1.387 . S
C394 C395 1.387 . S
C394 H398 0.950 . S
C394 C403 1.390 . S
C395 C394 1.387 . S
C395 C397 1.387 . S
H396 C403 0.950 . S
C397 C395 1.387 . S
C397 C399 1.390 . S
C397 H401 0.950 . S
H398 C394 0.950 . S
C399 C397 1.390 . S
C399 C400 1.387 . S
C399 H402 0.950 . S
C400 C399 1.387 . S
C400 C403 1.387 . S
H401 C397 0.950 . S
H402 C399 0.950 . S
C403 C394 1.390 . S
C403 H396 0.950 . S
C403 C400 1.387 . S
C404 C405 1.387 . S
C404 H408 0.950 . S
C404 C413 1.390 . S
C405 C404 1.387 . S
C405 C407 1.387 . S
H406 C413 0.950 . S
C407 C405 1.387 . S
C407 C409 1.390 . S
C407 H411 0.950 . S
H408 C404 0.950 . S
C409 C407 1.390 . S
C409 C410 1.387 . S
C409 H412 0.950 . S
C410 C409 1.387 . S
C410 C413 1.387 . S
H411 C407 0.950 . S
H412 C409 0.950 . S
C413 C404 1.390 . S
C413 H406 0.950 . S
C413 C410 1.387 . S
C414 C415 1.387 . S
C414 H418 0.950 . S
C414 C423 1.390 . S
C415 C414 1.387 . S
C415 C417 1.387 . S
H416 C423 0.950 . S
C417 C415 1.387 . S
C417 C419 1.390 . S
C417 H421 0.950 . S
H418 C414 0.950 . S
C419 C417 1.390 . S
C419 C420 1.387 . S
C419 H422 0.950 . S
C420 C419 1.387 . S
C420 C423 1.387 . S
H421 C417 0.950 . S
H422 C419 0.950 . S
C423 C414 1.390 . S
C423 H416 0.950 . S
C423 C420 1.387 . S
C424 C425 1.387 1_656 S
C424 H428 0.950 . S
C424 C433 1.390 . S
C425 C424 1.387 1_454 S
C425 C427 1.387 . S
H426 C433 0.950 . S
C427 C425 1.387 . S
C427 C429 1.390 . S
C427 H431 0.950 . S
H428 C424 0.950 . S
C429 C427 1.390 . S
C429 C430 1.387 . S
C429 H432 0.950 . S
C430 C429 1.387 . S
C430 C433 1.387 1_454 S
H431 C427 0.950 . S
H432 C429 0.950 . S
C433 C424 1.390 . S
C433 H426 0.950 . S
C433 C430 1.387 1_656 S
C434 C435 1.387 . S
C434 H438 0.950 . S
C434 C443 1.390 . S
C435 C434 1.387 . S
C435 C437 1.387 1_545 S
H436 C443 0.950 . S
C437 C435 1.387 1_565 S
C437 C439 1.390 . S
C437 H441 0.950 . S
H438 C434 0.950 . S
C439 C437 1.390 . S
C439 C440 1.387 1_565 S
C439 H442 0.950 . S
C440 C439 1.387 1_545 S
C440 C443 1.387 . S
H441 C437 0.950 . S
H442 C439 0.950 . S
C443 C434 1.390 . S
C443 H436 0.950 . S
C443 C440 1.387 . S
C444 C445 1.387 . S
C444 H448 0.950 . S
C444 C453 1.390 . S
C445 C444 1.387 . S
C445 C447 1.387 . S
H446 C453 0.950 . S
C447 C445 1.387 . S
C447 C449 1.390 . S
C447 H451 0.950 . S
H448 C444 0.950 . S
C449 C447 1.390 . S
C449 C450 1.387 . S
C449 H452 0.950 . S
C450 C449 1.387 . S
C450 C453 1.387 . S
H451 C447 0.950 . S
H452 C449 0.950 . S
C453 C444 1.390 . S
C453 H446 0.950 . S
C453 C450 1.387 . S
C454 C455 1.387 . S
C454 H458 0.950 1_556 S
C454 C463 1.390 . S
C455 C454 1.387 . S
C455 C457 1.387 . S
H456 C463 0.950 1_554 S
C457 C455 1.387 . S
C457 C459 1.390 . S
C457 H461 0.950 . S
H458 C454 0.950 1_554 S
C459 C457 1.390 . S
C459 C460 1.387 . S
C459 H462 0.950 . S
C460 C459 1.387 . S
C460 C463 1.387 . S
H461 C457 0.950 . S
H462 C459 0.950 . S
C463 C454 1.390 . S
C463 H456 0.950 1_556 S
C463 C460 1.387 . S
C464 C465 1.387 1_455 S
C464 H468 0.950 . S
C464 C473 1.390 . S
C465 C464 1.387 1_655 S
C465 C467 1.387 . S
H466 C473 0.950 . S
C467 C465 1.387 . S
C467 C469 1.390 . S
C467 H471 0.950 . S
H468 C464 0.950 . S
C469 C467 1.390 . S
C469 C470 1.387 . S
C469 H472 0.950 . S
C470 C469 1.387 . S
C470 C473 1.387 1_655 S
H471 C467 0.950 . S
H472 C469 0.950 . S
C473 C464 1.390 . S
C473 H466 0.950 . S
C473 C470 1.387 1_455 S
C474 C475 1.387 . S
C474 H478 0.950 . S
C474 C483 1.390 . S
C475 C474 1.387 . S
C475 C477 1.387 1_565 S
H476 C483 0.950 . S
C477 C475 1.387 1_545 S
C477 C479 1.390 . S
C477 H481 0.950 . S
H478 C474 0.950 . S
C479 C477 1.390 . S
C479 C480 1.387 1_545 S
C479 H482 0.950 . S
C480 C479 1.387 1_565 S
C480 C483 1.387 . S
H481 C477 0.950 . S
H482 C479 0.950 . S
C483 C474 1.390 . S
C483 H476 0.950 . S
C483 C480 1.387 . S
C484 C485 1.387 . S
C484 H488 0.950 . S
C484 C493 1.390 . S
C485 C484 1.387 . S
C485 C487 1.387 . S
H486 C493 0.950 . S
C487 C485 1.387 . S
C487 C489 1.390 . S
C487 H491 0.950 . S
H488 C484 0.950 . S
C489 C487 1.390 . S
C489 C490 1.387 . S
C489 H492 0.950 . S
C490 C489 1.387 . S
C490 C493 1.387 . S
H491 C487 0.950 . S
H492 C489 0.950 . S
C493 C484 1.390 . S
C493 H486 0.950 . S
C493 C490 1.387 . S
C494 C495 1.387 . S
C494 H498 0.950 . S
C494 C503 1.390 . S
C495 C494 1.387 . S
C495 C497 1.387 1_556 S
H496 C503 0.950 . S
C497 C495 1.387 1_554 S
C497 C499 1.390 1_554 S
C497 H501 0.950 . S
H498 C494 0.950 . S
C499 C497 1.390 1_556 S
C499 C500 1.387 . S
C499 H502 0.950 1_556 S
C500 C499 1.387 . S
C500 C503 1.387 . S
H501 C497 0.950 . S
H502 C499 0.950 1_554 S
C503 C494 1.390 . S
C503 H496 0.950 . S
C503 C500 1.387 . S
C265 N80 2.201 1_545 S
C270 C106 2.253 1_545 S
C280 C146 2.099 . S
C275 N93 2.062 . S
C290 C210 1.962 . S
C285 N54 1.882 . S
C300 C226 1.888 1_455 S
C295 N67 1.668 1_455 S
C310 C127 2.256 1_565 S
C305 N28 2.203 . S
C315 N41 2.071 . S
C320 C167 2.101 1_554 S
C325 N2 1.890 . S
C330 C201 1.962 . S
C335 N15 1.666 . S
C340 C247 1.887 1_655 S
C350 C121 0.650 . S
C345 N70 0.620 1_455 S
C360 C161 0.926 . S
C355 N83 0.965 . S
C370 C197 1.066 . S
C365 N96 1.111 . S
C375 N57 0.897 . S
C380 C241 0.857 . S
C385 N18 0.627 . S
C390 C130 0.655 . S
C400 C170 0.927 . S
C395 N31 0.967 1_545 S
C410 C208 1.064 . S
C405 N44 1.115 . S
C415 N5 0.908 . S
C420 C250 0.863 . S
C425 N66 1.988 1_455 S
C430 C128 2.124 . S
C435 N79 2.210 1_545 S
C440 C168 2.287 . S
C450 C186 1.829 . S
C445 N92 1.864 . S
C460 C248 2.564 . S
C455 N53 2.420 . S
C465 N14 1.984 . S
C470 C117 2.130 . S
C480 C157 2.287 . S
C475 N27 2.198 . S
C490 C207 1.829 . S
C485 N40 1.869 . S
C495 N1 2.429 . S
C500 C237 2.569 . S
