# Generated by pormake.
# Topology zzz, (3,6)-cn, num edge types: 1
# Building blocks:
#     Node 0, Type 0, BuildingBlock: BETDIP_clean_linker_0, # of connection points: 3
#     Node 1, Type 0, BuildingBlock: BETDIP_clean_linker_0, # of connection points: 3
#     Node 2, Type 0, BuildingBlock: BETDIP_clean_linker_0, # of connection points: 3
#     Node 3, Type 0, BuildingBlock: BETDIP_clean_linker_0, # of connection points: 3
#     Node 4, Type 0, BuildingBlock: BETDIP_clean_linker_0, # of connection points: 3
#     Node 5, Type 0, BuildingBlock: BETDIP_clean_linker_0, # of connection points: 3
#     Node 6, Type 0, BuildingBlock: BETDIP_clean_linker_0, # of connection points: 3
#     Node 7, Type 0, BuildingBlock: BETDIP_clean_linker_0, # of connection points: 3
#     Node 8, Type 1, BuildingBlock: KUMJIN_clean_sbu_1, # of connection points: 6
#     Node 9, Type 1, BuildingBlock: KUMJIN_clean_sbu_1, # of connection points: 6
#     Node 10, Type 1, BuildingBlock: KUMJIN_clean_sbu_1, # of connection points: 6
#     Node 11, Type 1, BuildingBlock: KUMJIN_clean_sbu_1, # of connection points: 6
#     Edge 12, Type (0, 1), BuildingBlock: XUDNAN_clean_linker_2, # of connection points: 2
#     Edge 13, Type (0, 1), BuildingBlock: XUDNAN_clean_linker_2, # of connection points: 2
#     Edge 14, Type (0, 1), BuildingBlock: XUDNAN_clean_linker_2, # of connection points: 2
#     Edge 15, Type (0, 1), BuildingBlock: XUDNAN_clean_linker_2, # of connection points: 2
#     Edge 16, Type (0, 1), BuildingBlock: XUDNAN_clean_linker_2, # of connection points: 2
#     Edge 17, Type (0, 1), BuildingBlock: XUDNAN_clean_linker_2, # of connection points: 2
#     Edge 18, Type (0, 1), BuildingBlock: XUDNAN_clean_linker_2, # of connection points: 2
#     Edge 19, Type (0, 1), BuildingBlock: XUDNAN_clean_linker_2, # of connection points: 2
#     Edge 20, Type (0, 1), BuildingBlock: XUDNAN_clean_linker_2, # of connection points: 2
#     Edge 21, Type (0, 1), BuildingBlock: XUDNAN_clean_linker_2, # of connection points: 2
#     Edge 22, Type (0, 1), BuildingBlock: XUDNAN_clean_linker_2, # of connection points: 2
#     Edge 23, Type (0, 1), BuildingBlock: XUDNAN_clean_linker_2, # of connection points: 2
#     Edge 24, Type (0, 1), BuildingBlock: XUDNAN_clean_linker_2, # of connection points: 2
#     Edge 25, Type (0, 1), BuildingBlock: XUDNAN_clean_linker_2, # of connection points: 2
#     Edge 26, Type (0, 1), BuildingBlock: XUDNAN_clean_linker_2, # of connection points: 2
#     Edge 27, Type (0, 1), BuildingBlock: XUDNAN_clean_linker_2, # of connection points: 2
#     Edge 28, Type (0, 1), BuildingBlock: XUDNAN_clean_linker_2, # of connection points: 2
#     Edge 29, Type (0, 1), BuildingBlock: XUDNAN_clean_linker_2, # of connection points: 2
#     Edge 30, Type (0, 1), BuildingBlock: XUDNAN_clean_linker_2, # of connection points: 2
#     Edge 31, Type (0, 1), BuildingBlock: XUDNAN_clean_linker_2, # of connection points: 2
#     Edge 32, Type (0, 1), BuildingBlock: XUDNAN_clean_linker_2, # of connection points: 2
#     Edge 33, Type (0, 1), BuildingBlock: XUDNAN_clean_linker_2, # of connection points: 2
#     Edge 34, Type (0, 1), BuildingBlock: XUDNAN_clean_linker_2, # of connection points: 2
#     Edge 35, Type (0, 1), BuildingBlock: XUDNAN_clean_linker_2, # of connection points: 2
# Relax obj value: 0.181
# Max RMSD: 0.103
# Mean RMSD: 0.080
data_MOF--net-zzz--node1-KUMJIN_clean_sbu_1--node2-BETDIP_clean_linker_0--edge1-XUDNAN_clean_linker_2
_symmetry_space_group_name_H-M    P1
_symmetry_Int_Tables_number       1
_symmetry_cell_setting            triclinic
loop_
_symmetry_equiv_pos_as_xyz
'x, y, z'
_cell_length_a     50.636205
_cell_length_b     50.6287
_cell_length_c     15.795974
_cell_angle_alpha  90.033318
_cell_angle_beta   89.986545
_cell_angle_gamma 90.296822
loop_
_atom_site_label
_atom_site_type_symbol
_atom_site_fract_x
_atom_site_fract_y
_atom_site_fract_z
_atom_type_partial_charge
H0 H 0.76639 0.53336 0.37003 0.0
H1 H 0.75584 0.56814 0.12379 0.0
H2 H 0.83382 0.55718 0.22406 0.0
H3 H 0.71379 0.57955 0.19382 0.0
C4 C 0.71044 0.55837 0.19793 0.0
C5 C 0.77472 0.54245 0.31399 0.0
C6 C 0.80263 0.54741 0.30946 0.0
C7 C 0.75757 0.54983 0.2457 0.0
C8 C 0.76875 0.56202 0.17445 0.0
C9 C 0.7962 0.56408 0.16396 0.0
C10 C 0.81264 0.55695 0.23218 0.0
N11 N 0.72978 0.54297 0.2435 0.0
H12 H 0.02402 0.76868 0.37343 0.0
H13 H 0.96836 0.75163 0.17524 0.0
H14 H 0.97773 0.83108 0.26761 0.0
H15 H 0.96885 0.71125 0.27966 0.0
C16 C 0.98788 0.70885 0.24872 0.0
C17 C 1.00886 0.7753 0.33018 0.0
C18 C 0.99976 0.80206 0.33407 0.0
C19 C 0.99745 0.75696 0.27127 0.0
C20 C 0.97742 0.76582 0.21736 0.0
C21 C 0.97077 0.79261 0.2116 0.0
C22 C 0.98175 0.81021 0.27163 0.0
N23 N 1.00652 0.73013 0.26061 0.0
H24 H 0.77041 0.03916 0.35299 0.0
H25 H 0.78879 0.98062 0.16343 0.0
H26 H 0.7125 0.98105 0.28054 0.0
H27 H 0.80274 0.02596 0.10004 0.0
C28 C 0.81742 0.02572 0.15027 0.0
C29 C 0.76474 0.02192 0.31655 0.0
C30 C 0.73931 1.01005 0.32942 0.0
C31 C 0.78261 1.01159 0.25449 0.0
C32 C 0.77512 0.98898 0.20873 0.0
C33 C 0.75008 0.97757 0.21833 0.0
C34 C 0.73255 0.98845 0.27784 0.0
N35 N 0.80786 0.02361 0.23607 0.0
H36 H 0.52622 0.77553 0.35238 0.0
H37 H 0.56422 0.78442 0.10942 0.0
H38 H 0.56125 0.70841 0.22844 0.0
H39 H 0.57212 0.82615 0.16316 0.0
C40 C 0.55124 0.83006 0.17269 0.0
C41 C 0.53697 0.76717 0.29962 0.0
C42 C 0.54365 0.73966 0.30037 0.0
C43 C 0.54432 0.78375 0.22967 0.0
C44 C 0.55858 0.77235 0.16297 0.0
C45 C 0.56458 0.7454 0.16133 0.0
C46 C 0.55704 0.72937 0.22998 0.0
N47 N 0.53637 0.81112 0.2224 0.0
H48 H 0.27077 0.5345 0.03374 0.0
H49 H 0.28407 0.46916 0.20449 0.0
H50 H 0.20904 0.47829 0.08286 0.0
H51 H 0.30444 0.49938 0.28159 0.0
C52 C 0.31699 0.50884 0.2347 0.0
C53 C 0.26393 0.51674 0.06516 0.0
C54 C 0.23803 0.50669 0.04773 0.0
C55 C 0.28054 0.50395 0.126 0.0
C56 C 0.27135 0.48027 0.16286 0.0
C57 C 0.24536 0.47138 0.15127 0.0
C58 C 0.22929 0.48453 0.09244 0.0
N59 N 0.30568 0.51494 0.15292 0.0
H60 H 0.04277 0.27297 0.05168 0.0
H61 H 0.98585 0.28858 0.24919 0.0
H62 H 0.98287 0.21532 0.11599 0.0
H63 H 0.98901 0.33046 0.1918 0.0
C64 C 1.01026 0.33201 0.20037 0.0
C65 C 0.02559 0.26712 0.08807 0.0
C66 C 0.0134 0.24186 0.07275 0.0
C67 C 0.01497 0.28493 0.14998 0.0
C68 C 0.99334 0.2763 0.19851 0.0
C69 C 0.98171 0.25157 0.18562 0.0
C70 C 0.99146 0.23488 0.12246 0.0
N71 N 0.02621 0.31077 0.16713 0.0
H72 H 0.26693 0.02511 0.02118 0.0
H73 H 0.26503 0.06818 0.25769 0.0
H74 H 0.33633 0.0653 0.1118 0.0
H75 H 0.21968 0.07575 0.20173 0.0
C76 C 0.21655 0.0545 0.20106 0.0
C77 C 0.27652 0.03771 0.06739 0.0
C78 C 0.30367 0.04466 0.05673 0.0
C79 C 0.26202 0.04676 0.13954 0.0
C80 C 0.27521 0.06232 0.20042 0.0
C81 C 0.30193 0.06906 0.19081 0.0
C82 C 0.31552 0.06059 0.11843 0.0
N83 N 0.23516 0.03851 0.15512 0.0
H84 H 0.49074 0.27623 0.02887 0.0
H85 H 0.54626 0.24962 0.21612 0.0
H86 H 0.55078 0.32907 0.12165 0.0
H87 H 0.53283 0.2059 0.12094 0.0
C88 C 0.51523 0.21077 0.15697 0.0
C89 C 0.50796 0.27995 0.06779 0.0
C90 C 0.52163 0.30473 0.06141 0.0
C91 C 0.51702 0.25975 0.1241 0.0
C92 C 0.53934 0.26488 0.17377 0.0
C93 C 0.55113 0.28999 0.1759 0.0
C94 C 0.54245 0.30938 0.11852 0.0
N95 N 0.50253 0.23559 0.13886 0.0
Eu96 Eu 1.00261 0.03385 0.62275 0.0
C97 C 0.10827 0.02924 0.86701 0.0
N98 N 0.09864 1.01241 0.80759 0.0
C99 C 0.14265 1.00107 0.76565 0.0
C100 C 0.13571 0.03279 0.87785 0.0
C101 C 0.11529 0.99804 0.75789 0.0
C102 C 0.15293 0.01863 0.82562 0.0
C103 C 0.0999 0.05932 0.98329 0.0
C104 C 0.09063 0.04237 0.91871 0.0
C105 C 0.12719 0.06323 0.99366 0.0
C106 C 0.14506 0.05003 0.94095 0.0
Eu107 Eu 0.05228 1.00931 0.79464 0.0
N108 N 0.06438 0.03821 0.90685 0.0
C109 C 0.08148 0.0716 0.03612 0.0
C110 C 0.04636 0.04958 0.95986 0.0
C111 C 0.05461 0.06658 0.0246 0.0
H112 H 0.10745 0.98401 0.7127 0.0
H113 H 0.0402 0.07583 0.06547 0.0
H114 H 0.9474 0.99983 0.67269 0.0
H115 H 0.05232 0.04247 0.31459 0.0
H116 H 0.02551 0.04615 0.95176 0.0
H117 H 0.08781 0.08476 0.08642 0.0
H118 H 0.04072 0.05625 0.45874 0.0
H119 H 0.1558 0.98977 0.72575 0.0
H120 H 0.13468 0.07622 0.04276 0.0
H121 H 0.16607 0.05305 0.95016 0.0
H122 H 0.91668 0.96843 0.60489 0.0
H123 H 0.17413 0.02084 0.83183 0.0
H124 H 0.02902 1.00483 0.24807 0.0
N125 N 0.97357 1.00155 0.56713 0.0
C126 C 0.97848 0.99358 0.48643 0.0
C127 C 0.93405 0.97521 0.57118 0.0
C128 C 0.96135 0.97557 0.44554 0.0
C129 C 0.95158 0.99289 0.60952 0.0
C130 C 0.93887 0.96661 0.48879 0.0
N131 N 0.01468 0.02368 0.48099 0.0
C132 C 0.03187 0.03847 0.43361 0.0
C133 C 1.00471 0.99703 0.35816 0.0
C134 C 0.99993 1.00442 0.4431 0.0
C135 C 0.02471 1.01002 0.31318 0.0
C136 C 0.03795 0.03122 0.35054 0.0
H137 H 0.92502 0.95315 0.45891 0.0
H138 H 0.95393 0.95356 0.33022 0.0
H139 H 0.99203 0.97205 0.25416 0.0
O140 O 0.99725 0.07357 0.56981 0.0
O141 O 1.00486 0.98824 0.6438 0.0
O142 O 0.04803 0.98246 0.67886 0.0
O143 O 0.96397 0.04741 0.58136 0.0
O144 O 0.04717 0.04296 0.59989 0.0
O145 O 0.0672 1.00726 0.65944 0.0
O146 O 0.02878 0.97971 0.85906 0.0
O147 O 0.05239 0.05405 0.77626 0.0
O148 O 1.01 0.0627 0.73378 0.0
O149 O 0.07173 0.9784 0.86765 0.0
O150 O 1.01039 0.01576 0.84703 0.0
O151 O 0.98002 0.02796 0.74505 0.0
C152 C 0.02602 0.97309 0.64591 0.0
C153 C 0.95613 0.09201 0.60745 0.0
C154 C 0.93187 0.13315 0.59785 0.0
C155 C 0.92643 0.13203 0.68478 0.0
C156 C 0.95018 0.09073 0.69432 0.0
C157 C 0.93537 0.11067 0.73265 0.0
C158 C 0.9467 0.11309 0.55948 0.0
C159 C 0.06698 0.02609 0.6024 0.0
C160 C 0.97168 0.0713 0.56594 0.0
C161 C 0.96675 0.96754 0.36231 0.0
C162 C 0.98851 0.97801 0.31908 0.0
C163 C 0.03236 0.07037 0.7693 0.0
C164 C 0.04828 0.9379 0.85004 0.0
C165 C 0.02182 0.89785 0.82998 0.0
C166 C 0.04431 0.88526 0.79642 0.0
C167 C 0.07042 0.92498 0.8165 0.0
C168 C 0.02403 0.92451 0.85377 0.0
C169 C 0.06826 0.89888 0.78889 0.0
C170 C 0.98605 0.02144 0.82316 0.0
C171 C 0.04949 0.9656 0.87846 0.0
H172 H 0.91542 0.14766 0.71533 0.0
H173 H 0.95704 0.07445 0.73256 0.0
H174 H 0.93103 0.10967 0.79967 0.0
H175 H 0.95135 0.11421 0.49251 0.0
H176 H 0.04393 0.86461 0.77886 0.0
H177 H 0.08929 0.93501 0.81112 0.0
H178 H 1.00687 0.93502 0.8765 0.0
H179 H 0.08538 0.88897 0.76325 0.0
Eu180 Eu 0.52737 0.05043 0.78847 0.0
C181 C 0.51013 0.93974 0.66736 0.0
N182 N 0.52727 0.9568 0.63001 0.0
C183 C 0.56064 0.92346 0.62645 0.0
C184 C 0.51813 0.91406 0.68983 0.0
C185 C 0.55189 0.94884 0.60631 0.0
C186 C 0.54382 0.90611 0.66952 0.0
C187 C 0.46569 0.92999 0.71493 0.0
C188 C 0.48428 0.94777 0.68011 0.0
C189 C 0.47397 0.905 0.74277 0.0
C190 C 0.50014 0.89703 0.73007 0.0
Eu191 Eu 0.51232 1.00029 0.60883 0.0
N192 N 0.47687 0.97205 0.65189 0.0
C193 C 0.43912 0.93736 0.71689 0.0
C194 C 0.45062 0.97764 0.64333 0.0
C195 C 0.43146 0.96094 0.67853 0.0
H196 H 0.56488 0.96218 0.57274 0.0
H197 H 0.41077 0.96609 0.67491 0.0
H198 H 0.48966 0.03756 0.95735 0.0
H199 H 0.56616 0.1459 0.68271 0.0
H200 H 0.44422 0.99497 0.60943 0.0
H201 H 0.42422 0.92432 0.74331 0.0
H202 H 0.56466 0.09742 0.69475 0.0
H203 H 0.58034 0.91732 0.6089 0.0
H204 H 0.46005 0.8913 0.77113 0.0
H205 H 0.50604 0.87739 0.74933 0.0
H206 H 0.46117 0.06158 0.05861 0.0
H207 H 0.55064 0.88645 0.68495 0.0
H208 H 0.53509 0.17324 0.76554 0.0
N209 N 0.50071 0.07217 0.88972 0.0
C210 C 0.49952 0.09886 0.88564 0.0
C211 C 0.47152 0.07223 0.00937 0.0
C212 C 0.48346 0.11336 0.94171 0.0
C213 C 0.48762 0.05874 0.95194 0.0
C214 C 0.46908 0.09963 1.0034 0.0
N215 N 0.53235 0.09704 0.78087 0.0
C216 C 0.55089 0.10902 0.73086 0.0
C217 C 0.51624 0.13957 0.82526 0.0
C218 C 0.51582 0.11173 0.829 0.0
C219 C 0.5342 0.15191 0.77057 0.0
C220 C 0.55182 0.13655 0.7239 0.0
H221 H 0.45668 0.11003 0.04818 0.0
H222 H 0.47064 0.15254 0.97823 0.0
H223 H 0.49921 0.17553 0.8755 0.0
O224 O 0.56279 0.02811 0.81967 0.0
O225 O 0.51303 0.07295 0.67256 0.0
O226 O 0.51055 0.04336 0.56036 0.0
O227 O 0.54837 0.05906 0.90609 0.0
O228 O 0.55668 0.05046 0.67557 0.0
O229 O 0.55619 1.00757 0.63021 0.0
O230 O 0.49575 0.97917 0.5006 0.0
O231 O 0.53377 0.98656 0.72946 0.0
O232 O 0.51039 1.00992 0.82433 0.0
O233 O 0.53015 1.00377 0.48319 0.0
O234 O 0.47686 0.02553 0.65536 0.0
O235 O 0.48694 0.03111 0.79514 0.0
C236 C 0.50976 0.06766 0.59141 0.0
C237 C 0.58642 0.03377 0.95203 0.0
C238 C 0.61791 1.00174 1.00514 0.0
C239 C 0.62082 0.01687 0.07934 0.0
C240 C 0.58968 0.04879 0.02614 0.0
C241 C 0.60689 0.04036 0.08935 0.0
C242 C 0.6009 1.01043 0.94131 0.0
C243 C 0.5682 0.03051 0.63632 0.0
C244 C 0.56501 0.03989 0.89299 0.0
C245 C 0.48302 0.14105 0.93625 0.0
C246 C 0.49931 0.15414 0.87785 0.0
C247 C 0.52224 0.98784 0.80384 0.0
C248 C 0.49737 1.00551 0.37931 0.0
C249 C 0.46244 0.03617 0.33934 0.0
C250 C 0.46994 0.03311 0.25391 0.0
C251 C 0.50471 1.00286 0.29437 0.0
C252 C 0.47672 0.02254 0.4015 0.0
C253 C 0.49108 0.01679 0.23192 0.0
C254 C 0.46933 0.02962 0.73455 0.0
C255 C 0.51109 0.99091 0.44613 0.0
H256 H 0.63429 1.01079 0.12886 0.0
H257 H 0.57838 0.06663 0.03636 0.0
H258 H 0.60924 0.0519 0.14658 0.0
H259 H 0.59829 0.99848 0.88489 0.0
H260 H 0.45905 0.0426 0.2036 0.0
H261 H 0.52078 0.98998 0.27645 0.0
H262 H 0.47157 0.0248 0.46764 0.0
H263 H 0.49657 0.01455 0.16607 0.0
Eu264 Eu 0.54501 0.51238 0.60825 0.0
C265 C 0.44564 0.50243 0.8431 0.0
N266 N 0.4503 0.51897 0.77688 0.0
C267 C 0.40552 0.51373 0.73005 0.0
C268 C 0.42066 0.49042 0.85415 0.0
C269 C 0.43061 0.525 0.72114 0.0
C270 C 0.40055 0.49623 0.79644 0.0
C271 C 0.4619 0.47968 0.96782 0.0
C272 C 0.46603 0.49718 0.8995 0.0
C273 C 0.43707 0.46768 0.9788 0.0
C274 C 0.41651 0.47306 0.9222 0.0
Eu275 Eu 0.49304 0.53794 0.76949 0.0
N276 N 0.4901 0.50855 0.88611 0.0
C277 C 0.4829 0.4746 0.02287 0.0
C278 C 0.51031 0.5044 0.94159 0.0
C279 C 0.50715 0.48715 0.00995 0.0
H280 H 0.43393 0.5391 0.671 0.0
H281 H 0.52338 0.48373 0.0531 0.0
H282 H 0.60004 0.54368 0.67589 0.0
H283 H 0.50089 0.51351 0.29065 0.0
H284 H 0.52884 0.51452 0.93459 0.0
H285 H 0.48052 0.46123 0.07592 0.0
H286 H 0.51027 0.49498 0.43129 0.0
H287 H 0.38994 0.51879 0.68623 0.0
H288 H 0.43357 0.45417 0.03084 0.0
H289 H 0.39747 0.46365 0.93157 0.0
H290 H 0.62873 0.58082 0.63007 0.0
H291 H 0.38107 0.4875 0.80301 0.0
H292 H 0.52312 0.55461 0.24434 0.0
N293 N 0.5748 0.54631 0.56865 0.0
C294 C 0.57011 0.55783 0.49226 0.0
C295 C 0.61227 0.57461 0.59103 0.0
C296 C 0.586 0.57901 0.46385 0.0
C297 C 0.59613 0.55362 0.61666 0.0
C298 C 0.607 0.58756 0.51486 0.0
N299 N 0.53507 0.52707 0.4693 0.0
C300 C 0.51921 0.51362 0.41385 0.0
C301 C 0.54543 0.55892 0.36052 0.0
C302 C 0.5496 0.54814 0.44185 0.0
C303 C 0.52687 0.54691 0.30718 0.0
C304 C 0.51423 0.52375 0.33314 0.0
H305 H 0.61956 0.60383 0.49522 0.0
H306 H 0.59265 0.60709 0.36251 0.0
H307 H 0.55758 0.58915 0.27136 0.0
O308 O 0.55112 0.47401 0.54657 0.0
O309 O 0.54435 0.5566 0.64617 0.0
O310 O 0.50119 0.56659 0.65987 0.0
O311 O 0.58428 0.4996 0.57076 0.0
O312 O 0.50086 0.50468 0.57603 0.0
O313 O 0.48073 0.54121 0.6315 0.0
O314 O 0.49819 0.56596 0.87257 0.0
O315 O 0.4932 0.493 0.7461 0.0
O316 O 0.5363 0.4834 0.71684 0.0
O317 O 0.46125 0.56494 0.80419 0.0
O318 O 0.53701 0.54353 0.81185 0.0
O319 O 0.56059 0.51117 0.74239 0.0
C320 C 0.52479 0.57304 0.63255 0.0
C321 C 0.591 0.45434 0.59093 0.0
C322 C 0.608 0.40944 0.5868 0.0
C323 C 0.61724 0.41237 0.67015 0.0
C324 C 0.60036 0.45697 0.67434 0.0
C325 C 0.61344 0.43608 0.71353 0.0
C326 C 0.5949 0.43061 0.54756 0.0
C327 C 0.48133 0.52197 0.57585 0.0
C328 C 0.57675 0.47604 0.54947 0.0
C329 C 0.58079 0.59066 0.38505 0.0
C330 C 0.5607 0.58054 0.33333 0.0
C331 C 0.51313 0.47635 0.74738 0.0
C332 C 0.47814 0.60649 0.84056 0.0
C333 C 0.50561 0.64495 0.80828 0.0
C334 C 0.48323 0.66109 0.82092 0.0
C335 C 0.45627 0.62279 0.85289 0.0
C336 C 0.50219 0.61748 0.81336 0.0
C337 C 0.45872 0.64998 0.84124 0.0
C338 C 0.55814 0.52822 0.80465 0.0
C339 C 0.47606 0.57805 0.8566 0.0
H340 H 0.62724 0.3963 0.70179 0.0
H341 H 0.59757 0.47513 0.70922 0.0
H342 H 0.62048 0.43821 0.77788 0.0
H343 H 0.58705 0.42842 0.48404 0.0
H344 H 0.48461 0.6824 0.81994 0.0
H345 H 0.43743 0.61453 0.87223 0.0
H346 H 0.51862 0.60452 0.80025 0.0
H347 H 0.44185 0.66262 0.85164 0.0
Eu348 Eu 0.03153 0.55292 0.62431 0.0
C349 C 0.05713 0.47173 0.8756 0.0
N350 N 0.04413 0.47 0.80037 0.0
C351 C 0.07134 0.43369 0.7583 0.0
C352 C 0.07863 0.45501 0.8934 0.0
C353 C 0.05015 0.45064 0.74346 0.0
C354 C 0.08584 0.43607 0.83316 0.0
C355 C 0.06206 0.49247 0.01325 0.0
C356 C 0.04896 0.49042 0.93464 0.0
C357 C 0.08351 0.47595 0.03088 0.0
C358 C 0.09191 0.45739 0.97104 0.0
Eu359 Eu 1.00806 0.49883 0.78189 0.0
N360 N 0.02776 0.50591 0.91661 0.0
C361 C 0.05283 0.51063 0.07292 0.0
C362 C 0.01759 0.52219 0.97724 0.0
C363 C 0.0303 0.52532 0.05518 0.0
H364 H 0.03856 0.44818 0.6868 0.0
H365 H 0.02233 0.53861 0.10231 0.0
H366 H 0.04122 0.61251 0.71621 0.0
H367 H 0.99255 0.53301 0.30865 0.0
H368 H 0.99913 0.53206 0.96748 0.0
H369 H 0.06245 0.51284 0.13382 0.0
H370 H 0.01716 0.52342 0.44003 0.0
H371 H 0.07633 0.41865 0.71236 0.0
H372 H 0.09344 0.4772 0.09137 0.0
H373 H 0.10844 0.44471 0.98596 0.0
H374 H 0.02323 0.65763 0.70611 0.0
H375 H 0.1022 0.42282 0.84459 0.0
H376 H 0.97039 0.57609 0.29131 0.0
N377 N 0.01763 0.59741 0.61575 0.0
C378 C 1.00156 0.60343 0.54959 0.0
C379 C 0.01667 0.64248 0.66243 0.0
C380 C 0.99174 0.62925 0.53893 0.0
C381 C 0.02643 0.61678 0.66903 0.0
C382 C 0.99888 0.64865 0.59793 0.0
N383 N 1.00768 0.56008 0.49809 0.0
C384 C 1.00713 0.54207 0.43359 0.0
C385 C 0.98277 0.59076 0.41401 0.0
C386 C 0.99686 0.58435 0.48818 0.0
C387 C 0.98087 0.57185 0.3495 0.0
C388 C 0.99335 0.5475 0.35901 0.0
H389 H 0.99171 0.66869 0.59207 0.0
H390 H 0.9683 0.65486 0.45898 0.0
H391 H 0.9606 0.62118 0.34936 0.0
O392 O 0.07156 0.54127 0.59642 0.0
O393 O 0.98975 0.53672 0.59663 0.0
O394 O 0.97352 0.52196 0.72433 0.0
O395 O 0.05672 0.57736 0.54196 0.0
O396 O 0.03745 0.50971 0.58115 0.0
O397 O 1.00497 0.48493 0.64507 0.0
O398 O 0.98605 0.48054 0.88535 0.0
O399 O 0.05145 0.50661 0.7459 0.0
O400 O 0.05453 0.5506 0.74864 0.0
O401 O 0.98675 0.4617 0.76305 0.0
O402 O 0.99394 0.54041 0.81974 0.0
O403 O 0.02348 0.56964 0.75783 0.0
C404 C 0.96974 0.52989 0.64557 0.0
C405 C 0.08432 0.54978 0.45726 0.0
C406 C 0.10942 0.51659 0.37924 0.0
C407 C 0.10069 0.52789 0.30276 0.0
C408 C 0.07576 0.56077 0.3805 0.0
C409 C 0.08389 0.54975 0.30367 0.0
C410 C 0.10086 0.52766 0.45572 0.0
C411 C 0.02227 0.48843 0.58405 0.0
C412 C 0.07529 0.55963 0.54015 0.0
C413 C 0.97619 0.6352 0.46783 0.0
C414 C 0.97184 0.61604 0.4053 0.0
C415 C 0.06432 0.52778 0.77135 0.0
C416 C 0.94719 0.45998 0.83809 0.0
C417 C 0.90432 0.48153 0.83174 0.0
C418 C 0.89217 0.45647 0.82657 0.0
C419 C 0.93487 0.43524 0.83263 0.0
C420 C 0.9319 0.48298 0.83787 0.0
C421 C 0.90741 0.43353 0.82706 0.0
C422 C 1.00578 0.56383 0.81671 0.0
C423 C 0.97601 0.46208 0.83775 0.0
H424 H 0.10728 0.52035 0.24224 0.0
H425 H 0.06266 0.57762 0.37975 0.0
H426 H 0.0773 0.55828 0.24455 0.0
H427 H 0.10684 0.5188 0.51506 0.0
H428 H 0.87089 0.45451 0.82409 0.0
H429 H 0.94649 0.41733 0.83189 0.0
H430 H 0.9416 0.50208 0.8405 0.0
H431 H 0.89788 0.41438 0.82324 0.0
H432 H 0.17571 0.08261 0.27014 0.0
H433 H 0.20555 1.00281 0.24939 0.0
H434 H 0.16965 0.98713 0.34417 0.0
H435 H 0.15755 0.08085 0.48611 0.0
H436 H 0.12772 0.09976 0.47417 0.0
H437 H 0.15465 0.10442 0.40114 0.0
H438 H 0.12341 0.0942 0.27538 0.0
H439 H 0.09632 0.08956 0.34807 0.0
H440 H 0.10484 0.06374 0.27455 0.0
H441 H 0.13193 0.98076 0.44977 0.0
H442 H 0.09516 0.98336 0.55106 0.0
H443 H 0.08826 0.06741 0.50317 0.0
C444 C 0.17448 0.06174 0.28463 0.0
C445 C 0.19356 0.04392 0.25166 0.0
C446 C 0.19123 0.01683 0.2728 0.0
C447 C 0.17085 1.00779 0.32699 0.0
C448 C 0.15261 0.02595 0.35915 0.0
C449 C 0.15404 0.05235 0.33785 0.0
C450 C 0.13212 0.06785 0.38165 0.0
C451 C 0.14371 0.0895 0.43918 0.0
C452 C 0.11305 0.07954 0.31601 0.0
C453 C 0.11858 0.04628 0.4334 0.0
C454 C 0.13068 0.02224 0.41883 0.0
C455 C 0.12231 0.99949 0.46082 0.0
C456 C 0.10132 1.00125 0.51895 0.0
C457 C 0.08845 0.02558 0.53588 0.0
C458 C 0.09726 0.04841 0.49147 0.0
H459 H 0.52645 0.15776 0.16957 0.0
H460 H 0.48738 0.22095 0.30471 0.0
H461 H 0.48016 0.19083 0.42666 0.0
H462 H 0.48247 0.10481 0.2471 0.0
H463 H 0.50817 0.0804 0.25457 0.0
H464 H 0.51023 0.10619 0.17615 0.0
H465 H 0.55567 0.12099 0.23194 0.0
H466 H 0.55464 0.09492 0.30939 0.0
H467 H 0.55968 0.12864 0.34271 0.0
H468 H 0.4819 0.15472 0.54112 0.0
H469 H 0.48771 0.11534 0.63104 0.0
H470 H 0.52215 0.0734 0.4189 0.0
C471 C 0.51594 0.16514 0.22434 0.0
C472 C 0.50734 0.19189 0.22688 0.0
C473 C 0.49385 0.20064 0.30018 0.0
C474 C 0.48983 0.1836 0.37016 0.0
C475 C 0.49891 0.15751 0.36602 0.0
C476 C 0.51124 0.14816 0.29408 0.0
C477 C 0.519 0.11921 0.30554 0.0
C478 C 0.50409 0.10158 0.24209 0.0
C479 C 0.54903 0.11575 0.29689 0.0
C480 C 0.50989 0.11387 0.39617 0.0
C481 C 0.4985 0.13634 0.42995 0.0
C482 C 0.49032 0.13697 0.51439 0.0
C483 C 0.49379 0.11436 0.56537 0.0
C484 C 0.50508 0.09084 0.53269 0.0
C485 C 0.51296 0.09071 0.44606 0.0
H486 H 0.34325 0.48202 0.35679 0.0
H487 H 0.35412 0.54651 0.18009 0.0
H488 H 0.39825 0.5558 0.24382 0.0
H489 H 0.37286 0.5113 0.53545 0.0
H490 H 0.38819 0.48139 0.5727 0.0
H491 H 0.35847 0.47961 0.51051 0.0
H492 H 0.38196 0.44903 0.40321 0.0
H493 H 0.41176 0.45079 0.46535 0.0
H494 H 0.41245 0.45974 0.35493 0.0
H495 H 0.43997 0.56045 0.34067 0.0
H496 H 0.47568 0.5575 0.44761 0.0
H497 H 0.43903 0.48754 0.55328 0.0
C498 C 0.35508 0.4979 0.33046 0.0
C499 C 0.3451 0.5135 0.26294 0.0
C500 C 0.36126 0.5341 0.23089 0.0
C501 C 0.38636 0.53956 0.26729 0.0
C502 C 0.39535 0.52396 0.33484 0.0
C503 C 0.38026 0.50319 0.36482 0.0
C504 C 0.39411 0.48921 0.43766 0.0
C505 C 0.37741 0.49047 0.51889 0.0
C506 C 0.40045 0.46049 0.41384 0.0
C507 C 0.41924 0.5056 0.44607 0.0
C508 C 0.41957 0.5257 0.38651 0.0
C509 C 0.43997 0.54441 0.38593 0.0
C510 C 0.46028 0.54258 0.44701 0.0
C511 C 0.46074 0.52183 0.50725 0.0
C512 C 0.43982 0.50309 0.50629 0.0
H513 H 0.97998 0.36185 0.30435 0.0
H514 H 0.06092 0.35453 0.21956 0.0
H515 H 0.07299 0.39428 0.30496 0.0
H516 H 0.97648 0.43254 0.30581 0.0
H517 H 0.9563 0.43397 0.39969 0.0
H518 H 0.95452 0.40554 0.33128 0.0
H519 H 0.96554 0.375 0.45778 0.0
H520 H 0.96717 0.40332 0.52662 0.0
H521 H 0.9949 0.38126 0.51933 0.0
H522 H 0.07479 0.43793 0.39772 0.0
H523 H 0.06757 0.47549 0.49589 0.0
H524 H 0.98595 0.45135 0.52705 0.0
C525 C 1.00034 0.36849 0.30382 0.0
C526 C 0.01947 0.35493 0.25456 0.0
C527 C 0.04587 0.36436 0.2565 0.0
C528 C 0.05283 0.38708 0.30479 0.0
C529 C 0.03328 0.40008 0.35209 0.0
C530 C 1.00761 0.3907 0.35259 0.0
C531 C 0.99017 0.40741 0.40984 0.0
C532 C 0.96806 0.42064 0.35859 0.0
C533 C 0.97878 0.39075 0.48271 0.0
C534 C 1.00985 0.42779 0.44233 0.0
C535 C 0.03457 0.42365 0.40735 0.0
C536 C 0.05552 0.44091 0.42572 0.0
C537 C 0.05119 0.4624 0.48149 0.0
C538 C 0.02622 0.46651 0.52028 0.0
C539 C 1.00537 0.44878 0.49964 0.0
H540 H 0.83632 0.03577 0.99207 0.0
H541 H 0.86325 0.01526 0.24367 0.0
H542 H 0.9093 1.01235 0.18922 0.0
H543 H 0.87855 0.99319 0.87638 0.0
H544 H 0.88414 0.01604 0.79068 0.0
H545 H 0.85391 0.01746 0.85049 0.0
H546 H 0.86282 0.06674 0.88488 0.0
H547 H 0.89301 0.06547 0.82464 0.0
H548 H 0.89368 0.07621 0.9334 0.0
H549 H 0.95323 1.00995 0.10124 0.0
H550 H 0.98908 1.00995 0.99461 0.0
H551 H 0.93281 0.03279 0.80132 0.0
C552 C 0.85194 0.03095 0.03618 0.0
C553 C 0.84599 0.02589 0.12265 0.0
C554 C 0.86712 0.01947 0.17763 0.0
C555 C 0.8934 0.01768 0.14687 0.0
C556 C 0.89846 0.02255 0.06085 0.0
C557 C 0.87818 0.02931 1.00664 0.0
C558 C 0.88846 0.03347 0.91693 0.0
C559 C 0.87549 0.01387 0.85499 0.0
C560 C 0.88424 0.06218 0.8883 0.0
C561 C 0.91767 0.02763 0.92812 0.0
C562 C 0.92319 0.02141 0.01152 0.0
C563 C 0.94892 0.01498 0.03613 0.0
C564 C 0.96929 0.01501 0.97467 0.0
C565 C 0.96417 0.02144 0.88862 0.0
C566 C 0.93778 0.02782 0.86601 0.0
H567 H 0.57677 0.85971 0.05374 0.0
H568 H 0.50121 0.85369 0.18103 0.0
H569 H 0.4855 0.89285 0.10035 0.0
H570 H 0.58108 0.93076 0.04536 0.0
H571 H 0.59608 0.93139 0.94191 0.0
H572 H 0.60108 0.90347 0.01057 0.0
H573 H 0.58328 0.87225 0.8935 0.0
H574 H 0.57833 0.9002 0.82494 0.0
H575 H 0.55116 0.8782 0.84845 0.0
H576 H 0.47918 0.93512 1.00734 0.0
H577 H 0.48169 0.97303 0.90854 0.0
H578 H 0.56046 0.94947 0.83425 0.0
C579 C 0.55685 0.86658 0.06483 0.0
C580 C 0.54029 0.85347 0.12461 0.0
C581 C 0.51435 0.86318 0.1362 0.0
C582 C 0.50531 0.88553 0.09041 0.0
C583 C 0.52225 0.89797 0.03216 0.0
C584 C 0.54747 0.88858 0.01896 0.0
C585 C 0.56183 0.90499 0.95204 0.0
C586 C 0.58647 0.91843 0.98976 0.0
C587 C 0.56906 0.88789 0.87515 0.0
C588 C 0.5409 0.92529 0.92924 0.0
C589 C 0.51828 0.92112 0.97684 0.0
C590 C 0.49677 0.9382 0.96965 0.0
C591 C 0.49841 0.95986 0.91333 0.0
C592 C 0.52118 0.96436 0.86278 0.0
C593 C 0.54262 0.94654 0.87091 0.0
H594 H 0.6697 0.58625 0.1264 0.0
H595 H 0.6982 0.50621 0.15502 0.0
H596 H 0.66156 0.49016 0.06351 0.0
H597 H 0.59858 0.56928 0.12766 0.0
H598 H 0.59032 0.59429 0.05106 0.0
H599 H 0.61799 0.59917 0.12123 0.0
H600 H 0.64852 0.60676 0.99201 0.0
H601 H 0.62095 0.60176 0.92168 0.0
H602 H 0.65021 0.58194 0.9103 0.0
H603 H 0.6229 0.48328 0.95981 0.0
H604 H 0.58552 0.48552 0.86022 0.0
H605 H 0.5802 0.57004 0.90059 0.0
C606 C 0.66805 0.56525 0.11438 0.0
C607 C 0.68701 0.54749 0.14895 0.0
C608 C 0.68405 0.52024 0.13062 0.0
C609 C 0.66324 0.51099 0.07819 0.0
C610 C 0.64511 0.52908 0.04464 0.0
C611 C 0.64718 0.55567 0.06289 0.0
C612 C 0.62525 0.57108 0.01835 0.0
C613 C 0.60695 0.58423 0.08346 0.0
C614 C 0.63694 0.5916 0.95695 0.0
C615 C 0.61077 0.54917 0.97044 0.0
C616 C 0.62262 0.52509 0.98671 0.0
C617 C 0.61353 0.50206 0.94753 0.0
C618 C 0.5922 0.50359 0.89034 0.0
C619 C 0.57958 0.52792 0.87171 0.0
C620 C 0.58897 0.55102 0.91374 0.0
H621 H 0.0245 0.69542 0.11562 0.0
H622 H 0.95626 0.66661 0.25459 0.0
H623 H 0.9536 0.62791 0.16141 0.0
H624 H 1.0026 0.6745 0.90836 0.0
H625 H 0.03444 0.66374 0.87125 0.0
H626 H 0.03229 0.68932 0.95034 0.0
H627 H 0.06213 0.66208 0.05021 0.0
H628 H 0.06441 0.63656 0.97094 0.0
H629 H 0.05297 0.62857 0.07594 0.0
H630 H 0.9552 0.59373 0.04737 0.0
H631 H 0.96421 0.56361 0.92855 0.0
H632 H 0.03336 0.61036 0.86288 0.0
C633 C 1.00933 0.68073 0.12719 0.0
C634 C 0.99055 0.68438 0.19367 0.0
C635 C 0.97089 0.66459 0.20493 0.0
C636 C 0.96911 0.6424 0.15182 0.0
C637 C 0.98723 0.63961 0.08619 0.0
C638 C 1.00729 0.65791 0.07399 0.0
C639 C 0.02407 0.64947 0.9978 0.0
C640 C 0.0233 0.67052 0.9278 0.0
C641 C 0.05259 0.64384 0.02538 0.0
C642 C 1.01005 0.62402 0.96923 0.0
C643 C 0.98873 0.61897 0.02122 0.0
C644 C 0.97208 0.59734 1.0069 0.0
C645 C 0.97744 0.58019 0.93878 0.0
C646 C 0.99968 0.58402 0.88534 0.0
C647 C 0.01607 0.6066 0.90122 0.0
H648 H 0.98373 0.25302 0.35701 0.0
H649 H 0.93545 0.22584 0.14783 0.0
H650 H 0.90788 0.20013 0.24715 0.0
H651 H 0.9904 0.19647 0.44898 0.0
H652 H 0.98918 0.207 0.55797 0.0
H653 H 0.99915 0.22988 0.47765 0.0
H654 H 0.96233 0.26218 0.52379 0.0
H655 H 0.95228 0.2393 0.60532 0.0
H656 H 0.92856 0.25086 0.52893 0.0
H657 H 0.89477 0.16853 0.35662 0.0
H658 H 0.89708 0.13415 0.46718 0.0
H659 H 0.95237 0.18212 0.60903 0.0
C660 C 0.96644 0.24284 0.33296 0.0
C661 C 0.9615 0.24152 0.24521 0.0
C662 C 0.93943 0.22711 0.21509 0.0
C663 C 0.92356 0.21266 0.27118 0.0
C664 C 0.92985 0.21311 0.35716 0.0
C665 C 0.95057 0.22821 0.3882 0.0
C666 C 0.95645 0.2216 0.47971 0.0
C667 C 0.98548 0.21322 0.49163 0.0
C668 C 0.94948 0.24487 0.53788 0.0
C669 C 0.93757 0.19873 0.49283 0.0
C670 C 0.92175 0.1947 0.42234 0.0
C671 C 0.90615 0.17207 0.41351 0.0
C672 C 0.90757 0.15264 0.47634 0.0
C673 C 0.92436 0.15611 0.54684 0.0
C674 C 0.93859 0.17981 0.55705 0.0
H675 H 0.34048 0.10663 0.18141 0.0
H676 H 0.3001 0.05519 0.35785 0.0
H677 H 0.33865 0.05601 0.45097 0.0
H678 H 0.38856 0.07189 0.16173 0.0
H679 H 0.41561 0.09505 0.15313 0.0
H680 H 0.38294 0.10539 0.12756 0.0
H681 H 0.38529 0.14318 0.23716 0.0
H682 H 0.4187 0.13367 0.26196 0.0
H683 H 0.39446 0.13622 0.34509 0.0
H684 H 0.38328 0.04469 0.48683 0.0
H685 H 0.42683 0.02534 0.46667 0.0
H686 H 0.44263 0.0807 0.26313 0.0
C687 C 0.33942 0.09693 0.24238 0.0
C688 C 0.31766 0.08042 0.26157 0.0
C689 C 0.3165 0.06803 0.34159 0.0
C690 C 0.33857 0.0683 0.39495 0.0
C691 C 0.36157 0.08098 0.36727 0.0
C692 C 0.36196 0.09585 0.29348 0.0
C693 C 0.39011 0.10114 0.2645 0.0
C694 C 0.39454 0.09283 0.17138 0.0
C695 C 0.39758 0.13029 0.27804 0.0
C696 C 0.40504 0.08364 0.32537 0.0
C697 C 0.38848 0.07351 0.38719 0.0
C698 C 0.39665 0.05331 0.44094 0.0
C699 C 0.42166 0.04234 0.42877 0.0
C700 C 0.43844 0.05147 0.36294 0.0
C701 C 0.43037 0.07328 0.31386 0.0
H702 H 0.59132 0.32728 0.17535 0.0
H703 H 0.55181 0.2704 0.33889 0.0
H704 H 0.57461 0.28891 0.46093 0.0
H705 H 0.6528 0.34005 0.31229 0.0
H706 H 0.65093 0.37491 0.29008 0.0
H707 H 0.64078 0.35121 0.21108 0.0
H708 H 0.59516 0.37396 0.20125 0.0
H709 H 0.60502 0.39747 0.28014 0.0
H710 H 0.57565 0.37782 0.29593 0.0
H711 H 0.59061 0.31955 0.56843 0.0
H712 H 0.5967 0.36057 0.65005 0.0
H713 H 0.62233 0.401 0.42236 0.0
C714 C 0.58787 0.31823 0.23639 0.0
C715 C 0.56962 0.2972 0.24606 0.0
C716 C 0.56612 0.28593 0.32768 0.0
C717 C 0.579 0.29647 0.39839 0.0
C718 C 0.59515 0.3185 0.3874 0.0
C719 C 0.59971 0.32927 0.30822 0.0
C720 C 0.6127 0.3562 0.31507 0.0
C721 C 0.64099 0.35554 0.28007 0.0
C722 C 0.59613 0.3776 0.27054 0.0
C723 C 0.61271 0.35973 0.41024 0.0
C724 C 0.60357 0.3373 0.45091 0.0
C725 C 0.59857 0.33695 0.53773 0.0
C726 C 0.60207 0.36035 0.58369 0.0
C727 C 0.61005 0.38384 0.54232 0.0
C728 C 0.6164 0.38319 0.45535 0.0
H729 H 0.20426 0.4364 0.12607 0.0
H730 H 0.25765 0.46463 0.32011 0.0
H731 H 0.22368 0.45867 0.42591 0.0
H732 H 0.16433 0.47793 0.15214 0.0
H733 H 0.13306 0.46131 0.13968 0.0
H734 H 0.16179 0.44727 0.09375 0.0
H735 H 0.15316 0.40377 0.17581 0.0
H736 H 0.12382 0.41815 0.221 0.0
H737 H 0.14883 0.4045 0.28906 0.0
H738 H 0.18525 0.47705 0.48439 0.0
H739 H 0.14936 0.50848 0.49361 0.0
H740 H 0.11433 0.47552 0.266 0.0
C741 C 0.20884 0.44025 0.19182 0.0
C742 C 0.23286 0.45286 0.21333 0.0
C743 C 0.23918 0.45578 0.30009 0.0
C744 C 0.21962 0.45256 0.36154 0.0
C745 C 0.19391 0.44688 0.33509 0.0
C746 C 0.18851 0.43957 0.25203 0.0
C747 C 0.15929 0.44274 0.23244 0.0
C748 C 0.15445 0.45828 0.14974 0.0
C749 C 0.14546 0.41568 0.22946 0.0
C750 C 0.15059 0.45808 0.30975 0.0
C751 C 0.17027 0.45851 0.37065 0.0
C752 C 0.16922 0.47578 0.43926 0.0
C753 C 0.14854 0.49382 0.44381 0.0
C754 C 0.12873 0.4945 0.38051 0.0
C755 C 0.1292 0.47549 0.31514 0.0
H756 H 0.94455 0.84034 0.19039 0.0
H757 H 0.96405 0.76859 0.05308 0.0
H758 H 0.95788 0.79131 0.92132 0.0
H759 H 0.91211 0.87981 0.99657 0.0
H760 H 0.93015 0.90874 0.03021 0.0
H761 H 0.91668 0.88628 0.10784 0.0
H762 H 0.963 0.88163 0.17534 0.0
H763 H 0.9762 0.90392 0.09905 0.0
H764 H 0.99035 0.87144 0.10993 0.0
H765 H 0.97054 0.82163 0.81244 0.0
H766 H 1.00173 0.85326 0.7505 0.0
H767 H 0.98657 0.90702 0.95882 0.0
C768 C 0.94738 0.82922 0.1328 0.0
C769 C 0.95648 0.80288 0.13478 0.0
C770 C 0.95753 0.78881 0.05691 0.0
C771 C 0.95398 0.80176 0.97975 0.0
C772 C 0.95026 0.82898 0.98019 0.0
C773 C 0.94657 0.84265 0.05543 0.0
C774 C 0.95208 0.87189 0.04367 0.0
C775 C 0.92621 0.8876 0.04457 0.0
C776 C 0.9716 0.88277 0.11077 0.0
C777 C 0.96388 0.87151 0.95549 0.0
C778 C 0.96033 0.84721 0.9171 0.0
C779 C 0.97299 0.84088 0.84126 0.0
C780 C 0.99117 0.85886 0.80721 0.0
C781 C 0.99732 0.88259 0.85046 0.0
C782 C 0.98218 0.88948 0.92254 0.0
H783 H 0.71534 0.9372 0.24794 0.0
H784 H 0.76165 0.97289 0.0484 0.0
H785 H 0.73043 0.95684 0.94381 0.0
H786 H 0.66863 0.89113 0.0851 0.0
H787 H 0.64097 0.89941 0.15155 0.0
H788 H 0.67249 0.89168 0.19848 0.0
H789 H 0.67168 0.93594 0.27952 0.0
H790 H 0.64053 0.9433 0.23367 0.0
H791 H 0.66756 0.96636 0.22132 0.0
H792 H 0.68908 0.96289 0.87841 0.0
H793 H 0.65005 0.99115 0.87201 0.0
H794 H 0.62334 0.96047 0.11207 0.0
C795 C 0.71914 0.94055 0.18143 0.0
C796 C 0.74005 0.95742 0.15704 0.0
C797 C 0.74558 0.96042 0.06991 0.0
C798 C 0.72762 0.95126 0.00932 0.0
C799 C 0.7038 0.94006 0.03673 0.0
C800 C 0.69982 0.93379 0.12162 0.0
C801 C 0.67055 0.9309 0.14081 0.0
C802 C 0.66271 0.90154 0.1441 0.0
C803 C 0.66217 0.94506 0.22347 0.0
C804 C 0.65923 0.94362 0.06213 0.0
C805 C 0.67822 0.94555 0.99889 0.0
C806 C 0.67401 0.96092 0.92661 0.0
C807 C 0.65178 0.97712 0.92346 0.0
C808 C 0.6343 0.97807 0.99277 0.0
C809 C 0.63682 0.95969 0.05898 0.0
H810 H 0.55372 0.75854 0.9979 0.0
H811 H 0.60003 0.70443 0.14832 0.0
H812 H 0.60645 0.67652 0.0233 0.0
H813 H 0.51657 0.7247 0.91106 0.0
H814 H 0.51571 0.73582 0.80251 0.0
H815 H 0.52697 0.75774 0.88281 0.0
H816 H 0.57091 0.76452 0.8034 0.0
H817 H 0.55963 0.74237 0.7213 0.0
H818 H 0.59065 0.7365 0.77369 0.0
H819 H 0.58944 0.647 0.92016 0.0
H820 H 0.55242 0.62255 0.86439 0.0
H821 H 0.52132 0.69404 0.75204 0.0
C822 C 0.56677 0.74182 1.00311 0.0
C823 C 0.57585 0.7334 0.08323 0.0
C824 C 0.59224 0.71097 0.08808 0.0
C825 C 0.59644 0.69523 0.0166 0.0
C826 C 0.58473 0.70249 0.94 0.0
C827 C 0.57124 0.72611 0.93166 0.0
C828 C 0.5556 0.72671 0.84976 0.0
C829 C 0.52705 0.73674 0.86259 0.0
C830 C 0.57008 0.74351 0.78311 0.0
C831 C 0.55675 0.69775 0.82598 0.0
C832 C 0.57548 0.68462 0.87434 0.0
C833 C 0.57538 0.65716 0.88034 0.0
C834 C 0.55383 0.64321 0.84772 0.0
C835 C 0.53281 0.65667 0.80727 0.0
C836 C 0.53639 0.68354 0.78659 0.0
H837 H 0.84587 0.58371 0.12322 0.0
H838 H 0.77344 0.55522 1.00623 0.0
H839 H 0.7966 0.5487 0.8747 0.0
H840 H 0.88466 0.59978 0.90814 0.0
H841 H 0.91396 0.58533 0.95259 0.0
H842 H 0.89203 0.60425 0.01889 0.0
H843 H 0.88759 0.56512 0.12247 0.0
H844 H 0.90976 0.54642 0.05879 0.0
H845 H 0.87741 0.53323 0.08272 0.0
H846 H 0.82664 0.52718 0.78148 0.0
H847 H 0.85855 0.49263 0.7458 0.0
H848 H 0.91337 0.52523 0.92929 0.0
C849 C 0.83472 0.57653 0.06956 0.0
C850 C 0.80783 0.56922 0.07799 0.0
C851 C 0.7939 0.56132 1.00411 0.0
C852 C 0.80709 0.55741 0.92755 0.0
C853 C 0.83439 0.56072 0.92534 0.0
C854 C 0.84816 0.57054 0.99453 0.0
C855 C 0.87743 0.56472 0.98678 0.0
C856 C 0.89292 0.59003 0.96531 0.0
C857 C 0.88863 0.55154 0.06734 0.0
C858 C 0.877 0.54612 0.91156 0.0
C859 C 0.85252 0.546 0.87263 0.0
C860 C 0.84603 0.52754 0.81024 0.0
C861 C 0.86413 0.50764 0.79134 0.0
C862 C 0.88823 0.50593 0.83606 0.0
C863 C 0.89528 0.52631 0.89312 0.0
H864 H 0.98428 0.21045 0.96272 0.0
H865 H 0.06457 0.22402 0.04777 0.0
H866 H 0.07853 0.18322 0.97325 0.0
H867 H 0.98314 0.1422 0.99379 0.0
H868 H 0.96351 0.1343 0.90198 0.0
H869 H 0.96044 0.16615 0.9516 0.0
H870 H 0.97099 0.18904 0.8095 0.0
H871 H 0.97429 0.15737 0.75853 0.0
H872 H 1.00097 0.18096 0.75385 0.0
H873 H 0.08263 0.13751 0.90046 0.0
H874 H 0.07734 0.09414 0.83149 0.0
H875 H 0.99385 0.10928 0.79646 0.0
C876 C 1.00499 0.20526 0.96417 0.0
C877 C 0.02334 0.22095 0.01139 0.0
C878 C 0.05014 0.21299 0.01136 0.0
C879 C 0.05818 0.18954 0.96969 0.0
C880 C 0.03932 0.17405 0.92715 0.0
C881 C 0.01329 0.1819 0.92311 0.0
C882 C 0.99656 0.16126 0.87672 0.0
C883 C 0.97461 0.15034 0.93448 0.0
C884 C 0.98501 0.17285 0.79482 0.0
C885 C 0.017 0.14012 0.85702 0.0
C886 C 0.0416 0.14799 0.88608 0.0
C887 C 0.06344 0.13147 0.87711 0.0
C888 C 0.06015 0.1066 0.83779 0.0
C889 C 0.03513 0.09777 0.80775 0.0
C890 C 0.01332 0.11515 0.81757 0.0
H891 H 0.35101 0.01903 0.06977 0.0
H892 H 0.29826 0.05263 0.88375 0.0
H893 H 0.33371 0.04934 0.77525 0.0
H894 H 0.40706 0.05374 0.01252 0.0
H895 H 0.42959 0.02693 0.03221 0.0
H896 H 0.39877 0.02829 0.0881 0.0
H897 H 0.3879 0.98103 0.03387 0.0
H898 H 0.41877 0.98034 0.97703 0.0
H899 H 0.38819 0.97447 0.92166 0.0
H900 H 0.3785 0.04663 0.68981 0.0
H901 H 0.42517 0.04443 0.641 0.0
H902 H 0.44812 0.01484 0.88738 0.0
C903 C 0.34653 0.02478 1.00534 0.0
C904 C 0.32143 0.03565 0.98536 0.0
C905 C 0.31686 0.04359 0.90059 0.0
C906 C 0.33713 0.04205 0.83867 0.0
C907 C 0.36205 0.03245 0.86191 0.0
C908 C 0.36655 0.02362 0.94346 0.0
C909 C 0.39532 0.01594 0.95538 0.0
C910 C 0.40842 0.03225 0.02621 0.0
C911 C 0.39767 0.98618 0.97302 0.0
C912 C 0.40675 0.02285 0.86923 0.0
C913 C 0.3873 0.03181 0.81508 0.0
C914 C 0.39366 0.03951 0.73218 0.0
C915 C 0.42031 0.0382 0.70473 0.0
C916 C 0.4406 0.02967 0.76012 0.0
C917 C 0.43334 0.02174 0.84322 0.0
H918 H 0.55491 0.33911 0.97419 0.0
H919 H 0.47173 0.32264 0.01447 0.0
H920 H 0.46056 0.36329 0.93457 0.0
H921 H 0.55191 0.40845 1.00369 0.0
H922 H 0.57602 0.41628 0.92342 0.0
H923 H 0.57724 0.38496 0.97721 0.0
H924 H 0.57532 0.36076 0.83294 0.0
H925 H 0.57392 0.39204 0.77882 0.0
H926 H 0.54861 0.36755 0.76086 0.0
H927 H 0.45878 0.40846 0.85628 0.0
H928 H 0.46622 0.4512 0.78505 0.0
H929 H 0.55084 0.43931 0.79932 0.0
C930 C 0.53424 0.3438 0.96581 0.0
C931 C 0.51421 0.32721 1.00164 0.0
C932 C 0.48753 0.33442 0.98755 0.0
C933 C 0.48102 0.35776 0.94255 0.0
C934 C 0.5013 0.37394 0.91076 0.0
C935 C 0.52743 0.36702 0.92122 0.0
C936 C 0.54565 0.38801 0.8829 0.0
C937 C 0.56378 0.40014 0.95087 0.0
C938 C 0.56183 0.37638 0.80955 0.0
C939 C 0.52585 0.4082 0.85049 0.0
C940 C 0.50033 0.39964 0.86676 0.0
C941 C 0.47873 0.4151 0.84349 0.0
C942 C 0.48321 0.43965 0.80323 0.0
C943 C 0.50915 0.44924 0.78669 0.0
C944 C 0.53071 0.43288 0.81041 0.0
H945 H 0.19246 0.53524 0.07833 0.0
H946 H 0.23715 0.49856 0.87706 0.0
H947 H 0.19811 0.50122 0.78308 0.0
H948 H 0.13354 0.50359 0.04261 0.0
H949 H 0.11169 0.53089 0.0632 0.0
H950 H 0.14381 0.52995 0.1119 0.0
H951 H 0.15595 0.57532 0.04821 0.0
H952 H 0.12355 0.57707 1.00132 0.0
H953 H 0.15252 0.58062 0.9359 0.0
H954 H 0.1515 0.50096 0.71882 0.0
H955 H 0.10417 0.50474 0.68171 0.0
H956 H 0.08945 0.5451 0.9187 0.0
C957 C 0.19449 0.52917 0.01292 0.0
C958 C 0.21856 0.51764 0.9844 0.0
C959 C 0.21961 0.50848 0.89967 0.0
C960 C 0.19724 0.50953 0.84614 0.0
C961 C 0.17365 0.52013 0.8772 0.0
C962 C 0.17236 0.53056 0.95795 0.0
C963 C 0.14434 0.54005 0.97686 0.0
C964 C 0.13264 0.52525 0.05321 0.0
C965 C 0.14408 0.57005 0.99143 0.0
C966 C 0.12987 0.53274 0.89515 0.0
C967 C 0.14716 0.52101 0.83882 0.0
C968 C 0.13809 0.51078 0.76176 0.0
C969 C 0.11105 0.51299 0.74107 0.0
C970 C 0.09305 0.52588 0.7958 0.0
C971 C 0.10277 0.53582 0.8742 0.0
H972 H 0.96999 0.84004 0.41626 0.0
H973 H 0.05079 0.8133 0.39249 0.0
H974 H 0.0658 0.85257 0.47434 0.0
H975 H 0.98323 0.90814 0.38371 0.0
H976 H 0.9576 0.9179 0.45626 0.0
H977 H 0.9552 0.88681 0.40285 0.0
H978 H 0.9498 0.86536 0.55174 0.0
H979 H 0.95428 0.89686 0.6032 0.0
H980 H 0.97556 0.86965 0.62917 0.0
H981 H 0.07197 0.89771 0.55228 0.0
H982 H 0.06919 0.94189 0.61667 0.0
H983 H 0.98412 0.9407 0.58525 0.0
C984 C 0.99089 0.84208 0.42923 0.0
C985 C 1.00912 0.82307 0.39713 0.0
C986 C 0.03622 0.82697 0.41657 0.0
C987 C 0.04495 0.84951 0.46277 0.0
C988 C 0.02644 0.86824 0.49032 0.0
C989 C 0.99989 0.86447 0.47481 0.0
C990 C 0.98396 0.88802 0.50657 0.0
C991 C 0.96918 0.90099 0.4328 0.0
C992 C 0.96475 0.87946 0.57684 0.0
C993 C 1.00558 0.90617 0.5415 0.0
C994 C 0.02995 0.89418 0.53231 0.0
C995 C 0.05291 0.90702 0.55947 0.0
C996 C 0.05106 0.93241 0.59631 0.0
C997 C 0.02645 0.94553 0.60632 0.0
C998 C 1.00336 0.93181 0.5783 0.0
H999 H 0.70423 0.98045 0.4258 0.0
H1000 H 0.7246 0.0618 0.36896 0.0
H1001 H 0.68454 0.07643 0.44671 0.0
H1002 H 0.63623 0.98674 0.38745 0.0
H1003 H 0.62599 0.96422 0.46967 0.0
H1004 H 0.65782 0.96049 0.42047 0.0
H1005 H 0.68082 0.96323 0.56621 0.0
H1006 H 0.64908 0.96649 0.61662 0.0
H1007 H 0.67443 0.99097 0.63466 0.0
H1008 H 0.63882 0.08156 0.52564 0.0
H1009 H 0.59493 0.0766 0.59363 0.0
H1010 H 0.60379 0.99154 0.58931 0.0
C1011 C 0.70061 1.00147 0.43012 0.0
C1012 C 0.71807 0.0199 0.39026 0.0
C1013 C 0.71216 0.04714 0.39924 0.0
C1014 C 0.68914 0.05562 0.44287 0.0
C1015 C 0.67189 0.03673 0.47783 0.0
C1016 C 0.67761 1.01016 0.47201 0.0
C1017 C 0.65547 0.99347 0.51012 0.0
C1018 C 0.64315 0.97516 0.44292 0.0
C1019 C 0.66555 0.9776 0.58643 0.0
C1020 C 0.63607 0.01463 0.53793 0.0
C1021 C 0.64591 0.03954 0.51978 0.0
C1022 C 0.63122 0.06205 0.54003 0.0
C1023 C 0.60616 0.05905 0.57916 0.0
C1024 C 0.59546 0.03369 0.59749 0.0
C1025 C 0.61097 1.01128 0.5762 0.0
H1026 H 0.5106 0.69558 0.30429 0.0
H1027 H 0.5674 0.73856 0.45656 0.0
H1028 H 0.56861 0.70128 0.55841 0.0
H1029 H 0.47448 0.66448 0.48783 0.0
H1030 H 0.46874 0.63423 0.43027 0.0
H1031 H 0.47094 0.66518 0.37429 0.0
H1032 H 0.50726 0.64533 0.28037 0.0
H1033 H 0.50679 0.61465 0.3381 0.0
H1034 H 0.53712 0.63324 0.32808 0.0
H1035 H 0.56875 0.65533 0.63225 0.0
H1036 H 0.56114 0.60985 0.68577 0.0
H1037 H 0.50058 0.59798 0.49613 0.0
C1038 C 0.5225 0.6976 0.36088 0.0
C1039 C 0.53845 0.72063 0.37295 0.0
C1040 C 0.55444 0.72176 0.44657 0.0
C1041 C 0.5555 0.70038 0.50437 0.0
C1042 C 0.54018 0.67773 0.48917 0.0
C1043 C 0.5233 0.6766 0.42045 0.0
C1044 C 0.50893 0.64994 0.41828 0.0
C1045 C 0.47899 0.65369 0.42827 0.0
C1046 C 0.5154 0.63489 0.33635 0.0
C1047 C 0.52059 0.63605 0.49544 0.0
C1048 C 0.53897 0.65225 0.53464 0.0
C1049 C 0.55387 0.64292 0.60297 0.0
C1050 C 0.54948 0.61692 0.63305 0.0
C1051 C 0.52981 0.60037 0.59703 0.0
C1052 C 0.51528 0.61026 0.52683 0.0
H1053 H 0.84717 0.57656 0.35292 0.0
H1054 H 0.80507 0.50523 0.42453 0.0
H1055 H 0.84189 0.49379 0.5219 0.0
H1056 H 0.91123 0.54793 0.34419 0.0
H1057 H 0.92709 0.57755 0.38246 0.0
H1058 H 0.89642 0.57976 0.32615 0.0
H1059 H 0.87738 0.60573 0.45455 0.0
H1060 H 0.90818 0.60224 0.51046 0.0
H1061 H 0.87787 0.5908 0.55815 0.0
H1062 H 0.88662 0.48895 0.60639 0.0
H1063 H 0.93163 0.49167 0.66714 0.0
H1064 H 0.94505 0.56535 0.53527 0.0
C1065 C 0.84539 0.55851 0.38927 0.0
C1066 C 0.82273 0.54181 0.37964 0.0
C1067 C 0.82167 0.51866 0.43031 0.0
C1068 C 0.84278 0.5119 0.48559 0.0
C1069 C 0.86514 0.5284 0.49055 0.0
C1070 C 0.86633 0.55138 0.44376 0.0
C1071 C 0.89279 0.56539 0.45663 0.0
C1072 C 0.90776 0.56775 0.37229 0.0
C1073 C 0.88881 0.59266 0.49737 0.0
C1074 C 0.90676 0.54668 0.51733 0.0
C1075 C 0.89039 0.52555 0.53707 0.0
C1076 C 0.89917 0.50569 0.59175 0.0
C1077 C 0.92484 0.50754 0.62708 0.0
C1078 C 0.94206 0.52897 0.60829 0.0
C1079 C 0.93266 0.54867 0.55164 0.0
loop_
_geom_bond_atom_site_label_1
_geom_bond_atom_site_label_2
_geom_bond_distance
_geom_bond_site_symmetry_2
_ccdc_geom_bond_type
H0 C5 0.930 . S
H1 C8 0.930 . S
H2 C10 0.930 . S
H3 C4 1.016 . S
C4 H3 1.016 . S
C4 N11 1.286 . S
C5 H0 0.930 . S
C5 C6 1.397 . S
C5 C7 1.361 . S
C6 C5 1.397 . S
C6 C10 1.390 . S
C7 C5 1.361 . S
C7 C8 1.393 . S
C7 N11 1.413 . S
C8 H1 0.930 . S
C8 C7 1.393 . S
C8 C9 1.399 . S
C9 C8 1.399 . S
C9 C10 1.381 . S
C10 H2 0.930 . S
C10 C6 1.390 . S
C10 C9 1.381 . S
N11 C4 1.286 . S
N11 C7 1.413 . S
H12 C17 0.930 . S
H13 C20 0.930 . S
H14 C22 0.930 . S
H15 C16 1.016 . S
C16 H15 1.016 . S
C16 N23 1.286 . S
C17 H12 0.930 . S
C17 C18 1.397 . S
C17 C19 1.361 . S
C18 C17 1.397 . S
C18 C22 1.390 . S
C19 C17 1.361 . S
C19 C20 1.393 . S
C19 N23 1.413 . S
C20 H13 0.930 . S
C20 C19 1.393 . S
C20 C21 1.399 . S
C21 C20 1.399 . S
C21 C22 1.381 . S
C22 H14 0.930 . S
C22 C18 1.390 . S
C22 C21 1.381 . S
N23 C16 1.286 . S
N23 C19 1.413 . S
H24 C29 0.930 . S
H25 C32 0.930 . S
H26 C34 0.930 . S
H27 C28 1.016 . S
C28 H27 1.016 . S
C28 N35 1.286 . S
C29 H24 0.930 . S
C29 C30 1.397 . S
C29 C31 1.361 . S
C30 C29 1.397 . S
C30 C34 1.390 . S
C31 C29 1.361 . S
C31 C32 1.393 . S
C31 N35 1.413 . S
C32 H25 0.930 . S
C32 C31 1.393 . S
C32 C33 1.399 . S
C33 C32 1.399 . S
C33 C34 1.381 . S
C34 H26 0.930 . S
C34 C30 1.390 . S
C34 C33 1.381 . S
N35 C28 1.286 . S
N35 C31 1.413 . S
H36 C41 0.930 . S
H37 C44 0.930 . S
H38 C46 0.930 . S
H39 C40 1.016 . S
C40 H39 1.016 . S
C40 N47 1.286 . S
C41 H36 0.930 . S
C41 C42 1.397 . S
C41 C43 1.361 . S
C42 C41 1.397 . S
C42 C46 1.390 . S
C43 C41 1.361 . S
C43 C44 1.393 . S
C43 N47 1.413 . S
C44 H37 0.930 . S
C44 C43 1.393 . S
C44 C45 1.399 . S
C45 C44 1.399 . S
C45 C46 1.381 . S
C46 H38 0.930 . S
C46 C42 1.390 . S
C46 C45 1.381 . S
N47 C40 1.286 . S
N47 C43 1.413 . S
H48 C53 0.930 . S
H49 C56 0.930 . S
H50 C58 0.930 . S
H51 C52 1.016 . S
C52 H51 1.016 . S
C52 N59 1.286 . S
C53 H48 0.930 . S
C53 C54 1.397 . S
C53 C55 1.361 1_556 S
C54 C53 1.397 . S
C54 C58 1.390 1_556 S
C55 C53 1.361 1_554 S
C55 C56 1.393 . S
C55 N59 1.413 . S
C56 H49 0.930 . S
C56 C55 1.393 . S
C56 C57 1.399 . S
C57 C56 1.399 . S
C57 C58 1.381 . S
C58 H50 0.930 . S
C58 C54 1.390 1_554 S
C58 C57 1.381 . S
N59 C52 1.286 . S
N59 C55 1.413 . S
H60 C65 0.930 . S
H61 C68 0.930 . S
H62 C70 0.930 . S
H63 C64 1.016 . S
C64 H63 1.016 . S
C64 N71 1.286 . S
C65 H60 0.930 . S
C65 C66 1.397 . S
C65 C67 1.361 1_556 S
C66 C65 1.397 . S
C66 C70 1.390 1_556 S
C67 C65 1.361 1_554 S
C67 C68 1.393 . S
C67 N71 1.413 . S
C68 H61 0.930 . S
C68 C67 1.393 . S
C68 C69 1.399 . S
C69 C68 1.399 . S
C69 C70 1.381 . S
C70 H62 0.930 . S
C70 C66 1.390 1_554 S
C70 C69 1.381 . S
N71 C64 1.286 . S
N71 C67 1.413 . S
H72 C77 0.930 . S
H73 C80 0.930 . S
H74 C82 0.930 . S
H75 C76 1.016 . S
C76 H75 1.016 . S
C76 N83 1.286 . S
C77 H72 0.930 . S
C77 C78 1.397 . S
C77 C79 1.361 1_556 S
C78 C77 1.397 . S
C78 C82 1.390 1_556 S
C79 C77 1.361 1_554 S
C79 C80 1.393 . S
C79 N83 1.413 . S
C80 H73 0.930 . S
C80 C79 1.393 . S
C80 C81 1.399 . S
C81 C80 1.399 . S
C81 C82 1.381 . S
C82 H74 0.930 . S
C82 C78 1.390 1_554 S
C82 C81 1.381 . S
N83 C76 1.286 . S
N83 C79 1.413 . S
H84 C89 0.930 . S
H85 C92 0.930 . S
H86 C94 0.930 . S
H87 C88 1.016 . S
C88 H87 1.016 . S
C88 N95 1.286 . S
C89 H84 0.930 . S
C89 C90 1.397 . S
C89 C91 1.361 1_556 S
C90 C89 1.397 . S
C90 C94 1.390 1_556 S
C91 C89 1.361 1_554 S
C91 C92 1.393 . S
C91 N95 1.413 . S
C92 H85 0.930 . S
C92 C91 1.393 . S
C92 C93 1.399 . S
C93 C92 1.399 . S
C93 C94 1.381 . S
C94 H86 0.930 . S
C94 C90 1.390 1_554 S
C94 C93 1.381 . S
N95 C88 1.286 . S
N95 C91 1.413 . S
Eu96 N125 2.600 . S
Eu96 N131 2.562 . S
Eu96 O140 2.462 1_655 S
Eu96 O141 2.373 1_545 S
Eu96 O143 2.432 . S
Eu96 O144 2.291 1_655 S
Eu96 O148 2.335 1_655 S
Eu96 O151 2.372 . S
Eu96 C160 2.787 . S
C97 N98 1.365 . S
C97 C100 1.405 . S
C97 C104 1.448 . S
N98 C97 1.365 . S
N98 C101 1.319 . S
N98 Eu107 2.600 1_545 S
C99 C101 1.397 . S
C99 C102 1.367 . S
C99 H119 0.931 . S
C100 C97 1.405 . S
C100 C102 1.403 . S
C100 C106 1.439 1_556 S
C101 N98 1.319 . S
C101 C99 1.397 . S
C101 H112 0.930 1_545 S
C102 C99 1.367 . S
C102 C100 1.403 . S
C102 H123 0.929 . S
C103 C104 1.430 1_554 S
C103 C105 1.387 . S
C103 C109 1.404 . S
C104 C97 1.448 . S
C104 C103 1.430 1_556 S
C104 N108 1.351 . S
C105 C103 1.387 . S
C105 C106 1.374 . S
C105 H120 0.931 . S
C106 C100 1.439 1_554 S
C106 C105 1.374 . S
C106 H121 0.931 . S
Eu107 N98 2.600 1_565 S
Eu107 N108 2.562 1_565 S
Eu107 O142 2.335 . S
Eu107 O145 2.372 . S
Eu107 O146 2.462 . S
Eu107 O147 2.373 1_565 S
Eu107 O149 2.432 . S
Eu107 O150 2.291 1_465 S
Eu107 C171 2.787 . S
N108 C104 1.351 . S
N108 Eu107 2.562 1_545 S
N108 C110 1.325 . S
C109 C103 1.404 . S
C109 C111 1.366 . S
C109 H117 0.930 . S
C110 N108 1.325 . S
C110 C111 1.416 1_556 S
C110 H116 0.929 1_455 S
C111 C109 1.366 . S
C111 C110 1.416 1_554 S
C111 H113 0.930 1_455 S
H112 C101 0.930 1_565 S
H113 C111 0.930 1_655 S
H114 C129 0.930 . S
H115 C136 0.930 . S
H116 C110 0.929 1_655 S
H117 C109 0.930 . S
H118 C132 0.929 . S
H119 C99 0.931 . S
H120 C105 0.931 . S
H121 C106 0.931 . S
H122 C127 0.931 . S
H123 C102 0.929 . S
H124 C135 0.930 . S
N125 Eu96 2.600 . S
N125 C126 1.365 . S
N125 C129 1.319 . S
C126 N125 1.365 . S
C126 C128 1.405 1_545 S
C126 C134 1.448 . S
C127 H122 0.931 . S
C127 C129 1.397 . S
C127 C130 1.367 1_545 S
C128 C126 1.405 1_565 S
C128 C130 1.403 . S
C128 C161 1.439 . S
C129 H114 0.930 . S
C129 N125 1.319 . S
C129 C127 1.397 . S
C130 C127 1.367 1_565 S
C130 C128 1.403 . S
C130 H137 0.929 . S
N131 Eu96 2.562 . S
N131 C132 1.325 1_655 S
N131 C134 1.351 . S
C132 H118 0.929 . S
C132 N131 1.325 1_455 S
C132 C136 1.416 1_545 S
C133 C134 1.430 1_565 S
C133 C135 1.404 . S
C133 C162 1.387 . S
C134 C126 1.448 . S
C134 N131 1.351 . S
C134 C133 1.430 1_545 S
C135 H124 0.930 . S
C135 C133 1.404 . S
C135 C136 1.366 1_655 S
C136 H115 0.930 . S
C136 C132 1.416 1_565 S
C136 C135 1.366 1_455 S
H137 C130 0.929 . S
H138 C161 0.931 . S
H139 C162 0.931 . S
O140 Eu96 2.462 1_455 S
O140 C160 1.252 1_455 S
O141 Eu96 2.373 1_565 S
O141 C152 1.249 . S
O142 Eu107 2.335 . S
O142 C152 1.264 1_455 S
O143 Eu96 2.432 . S
O143 C160 1.268 . S
O144 Eu96 2.291 1_455 S
O144 C159 1.255 . S
O145 Eu107 2.372 . S
O145 C159 1.257 1_565 S
O146 Eu107 2.462 . S
O146 C171 1.252 . S
O147 Eu107 2.373 1_545 S
O147 C163 1.249 . S
O148 Eu96 2.335 1_455 S
O148 C163 1.264 . S
O149 Eu107 2.432 . S
O149 C171 1.268 . S
O150 Eu107 2.291 1_645 S
O150 C170 1.255 . S
O151 Eu96 2.372 . S
O151 C170 1.257 . S
C152 O141 1.249 . S
C152 O142 1.264 1_655 S
C153 C156 1.382 . S
C153 C158 1.390 . S
C153 C160 1.506 . S
C154 C155 1.398 . S
C154 C158 1.392 . S
C155 C154 1.398 . S
C155 C157 1.372 . S
C155 H172 0.931 . S
C156 C153 1.382 . S
C156 C157 1.390 . S
C156 H173 0.931 . S
C157 C155 1.372 . S
C157 C156 1.390 . S
C157 H174 0.929 . S
C158 C153 1.390 . S
C158 C154 1.392 . S
C158 H175 0.930 1_655 S
C159 O144 1.255 . S
C159 O145 1.257 1_545 S
C160 Eu96 2.787 . S
C160 O140 1.252 1_655 S
C160 O143 1.268 . S
C160 C153 1.506 . S
C161 C128 1.439 . S
C161 H138 0.931 . S
C161 C162 1.374 . S
C162 C133 1.387 . S
C162 H139 0.931 . S
C162 C161 1.374 . S
C163 O147 1.249 . S
C163 O148 1.264 . S
C164 C167 1.382 . S
C164 C168 1.390 . S
C164 C171 1.506 . S
C165 C166 1.398 . S
C165 C168 1.392 . S
C166 C165 1.398 . S
C166 C169 1.372 . S
C166 H176 0.931 1_556 S
C167 C164 1.382 . S
C167 C169 1.390 . S
C167 H177 0.931 . S
C168 C164 1.390 . S
C168 C165 1.392 . S
C168 H178 0.930 . S
C169 C166 1.372 . S
C169 C167 1.390 . S
C169 H179 0.929 . S
C170 O150 1.255 . S
C170 O151 1.257 . S
C171 Eu107 2.787 . S
C171 O146 1.252 . S
C171 O149 1.268 . S
C171 C164 1.506 . S
H172 C155 0.931 . S
H173 C156 0.931 . S
H174 C157 0.929 . S
H175 C158 0.930 1_455 S
H176 C166 0.931 1_554 S
H177 C167 0.931 . S
H178 C168 0.930 . S
H179 C169 0.929 . S
Eu180 N209 2.600 . S
Eu180 N215 2.562 . S
Eu180 O224 2.462 . S
Eu180 O225 2.373 . S
Eu180 O227 2.432 . S
Eu180 O228 2.291 . S
Eu180 O232 2.335 1_545 S
Eu180 O235 2.372 . S
Eu180 C244 2.787 . S
C181 N182 1.365 . S
C181 C184 1.405 . S
C181 C188 1.448 . S
N182 C181 1.365 . S
N182 C185 1.319 . S
N182 Eu191 2.600 . S
C183 C185 1.397 . S
C183 C186 1.367 . S
C183 H203 0.931 . S
C184 C181 1.405 . S
C184 C186 1.403 . S
C184 C190 1.439 . S
C185 N182 1.319 . S
C185 C183 1.397 . S
C185 H196 0.930 . S
C186 C183 1.367 . S
C186 C184 1.403 . S
C186 H207 0.929 . S
C187 C188 1.430 . S
C187 C189 1.387 . S
C187 C193 1.404 . S
C188 C181 1.448 . S
C188 C187 1.430 . S
C188 N192 1.351 . S
C189 C187 1.387 . S
C189 C190 1.374 . S
C189 H204 0.931 . S
C190 C184 1.439 . S
C190 C189 1.374 . S
C190 H205 0.931 . S
Eu191 N182 2.600 . S
Eu191 N192 2.562 . S
Eu191 O226 2.335 1_565 S
Eu191 O229 2.372 . S
Eu191 O230 2.462 . S
Eu191 O231 2.373 . S
Eu191 O233 2.432 . S
Eu191 O234 2.291 1_565 S
Eu191 C255 2.787 . S
N192 C188 1.351 . S
N192 Eu191 2.562 . S
N192 C194 1.325 . S
C193 C187 1.404 . S
C193 C195 1.366 . S
C193 H201 0.930 . S
C194 N192 1.325 . S
C194 C195 1.416 . S
C194 H200 0.929 . S
C195 C193 1.366 . S
C195 C194 1.416 . S
C195 H197 0.930 . S
H196 C185 0.930 . S
H197 C195 0.930 . S
H198 C213 0.930 . S
H199 C220 0.930 . S
H200 C194 0.929 . S
H201 C193 0.930 . S
H202 C216 0.929 . S
H203 C183 0.931 . S
H204 C189 0.931 . S
H205 C190 0.931 . S
H206 C211 0.931 . S
H207 C186 0.929 . S
H208 C219 0.930 . S
N209 Eu180 2.600 . S
N209 C210 1.365 . S
N209 C213 1.319 . S
C210 N209 1.365 . S
C210 C212 1.405 . S
C210 C218 1.448 . S
C211 H206 0.931 . S
C211 C213 1.397 . S
C211 C214 1.367 . S
C212 C210 1.405 . S
C212 C214 1.403 . S
C212 C245 1.439 . S
C213 H198 0.930 . S
C213 N209 1.319 . S
C213 C211 1.397 . S
C214 C211 1.367 . S
C214 C212 1.403 . S
C214 H221 0.929 . S
N215 Eu180 2.562 . S
N215 C216 1.325 . S
N215 C218 1.351 . S
C216 H202 0.929 . S
C216 N215 1.325 . S
C216 C220 1.416 . S
C217 C218 1.430 . S
C217 C219 1.404 . S
C217 C246 1.387 . S
C218 C210 1.448 . S
C218 N215 1.351 . S
C218 C217 1.430 . S
C219 H208 0.930 . S
C219 C217 1.404 . S
C219 C220 1.366 . S
C220 H199 0.930 . S
C220 C216 1.416 . S
C220 C219 1.366 . S
H221 C214 0.929 . S
H222 C245 0.931 . S
H223 C246 0.931 . S
O224 Eu180 2.462 . S
O224 C244 1.252 . S
O225 Eu180 2.373 . S
O225 C236 1.249 . S
O226 Eu191 2.335 1_545 S
O226 C236 1.264 . S
O227 Eu180 2.432 . S
O227 C244 1.268 . S
O228 Eu180 2.291 . S
O228 C243 1.255 . S
O229 Eu191 2.372 . S
O229 C243 1.257 1_565 S
O230 Eu191 2.462 . S
O230 C255 1.252 . S
O231 Eu191 2.373 . S
O231 C247 1.249 . S
O232 Eu180 2.335 1_565 S
O232 C247 1.264 . S
O233 Eu191 2.432 . S
O233 C255 1.268 . S
O234 Eu191 2.291 1_545 S
O234 C254 1.255 . S
O235 Eu180 2.372 . S
O235 C254 1.257 . S
C236 O225 1.249 . S
C236 O226 1.264 . S
C237 C240 1.382 1_556 S
C237 C242 1.390 . S
C237 C244 1.506 . S
C238 C239 1.398 . S
C238 C242 1.392 1_554 S
C239 C238 1.398 . S
C239 C241 1.372 . S
C239 H256 0.931 . S
C240 C237 1.382 1_554 S
C240 C241 1.390 . S
C240 H257 0.931 . S
C241 C239 1.372 . S
C241 C240 1.390 . S
C241 H258 0.929 . S
C242 C237 1.390 . S
C242 C238 1.392 1_556 S
C242 H259 0.930 . S
C243 O228 1.255 . S
C243 O229 1.257 1_545 S
C244 Eu180 2.787 . S
C244 O224 1.252 . S
C244 O227 1.268 . S
C244 C237 1.506 . S
C245 C212 1.439 . S
C245 H222 0.931 . S
C245 C246 1.374 . S
C246 C217 1.387 . S
C246 H223 0.931 . S
C246 C245 1.374 . S
C247 O231 1.249 . S
C247 O232 1.264 . S
C248 C251 1.382 . S
C248 C252 1.390 1_565 S
C248 C255 1.506 . S
C249 C250 1.398 1_545 S
C249 C252 1.392 . S
C250 C249 1.398 1_565 S
C250 C253 1.372 . S
C250 H260 0.931 . S
C251 C248 1.382 . S
C251 C253 1.390 . S
C251 H261 0.931 . S
C252 C248 1.390 1_545 S
C252 C249 1.392 . S
C252 H262 0.930 . S
C253 C250 1.372 . S
C253 C251 1.390 . S
C253 H263 0.929 . S
C254 O234 1.255 . S
C254 O235 1.257 . S
C255 Eu191 2.787 . S
C255 O230 1.252 . S
C255 O233 1.268 . S
C255 C248 1.506 . S
H256 C239 0.931 . S
H257 C240 0.931 . S
H258 C241 0.929 . S
H259 C242 0.930 . S
H260 C250 0.931 . S
H261 C251 0.931 . S
H262 C252 0.930 . S
H263 C253 0.929 . S
Eu264 N293 2.600 . S
Eu264 N299 2.562 . S
Eu264 O308 2.462 . S
Eu264 O309 2.373 . S
Eu264 O311 2.432 . S
Eu264 O312 2.291 . S
Eu264 O316 2.335 . S
Eu264 O319 2.372 . S
Eu264 C328 2.787 . S
C265 N266 1.365 . S
C265 C268 1.405 . S
C265 C272 1.448 . S
N266 C265 1.365 . S
N266 C269 1.319 . S
N266 Eu275 2.600 . S
C267 C269 1.397 . S
C267 C270 1.367 . S
C267 H287 0.931 . S
C268 C265 1.405 . S
C268 C270 1.403 . S
C268 C274 1.439 1_556 S
C269 N266 1.319 . S
C269 C267 1.397 . S
C269 H280 0.930 . S
C270 C267 1.367 . S
C270 C268 1.403 . S
C270 H291 0.929 . S
C271 C272 1.430 1_554 S
C271 C273 1.387 . S
C271 C277 1.404 . S
C272 C265 1.448 . S
C272 C271 1.430 1_556 S
C272 N276 1.351 . S
C273 C271 1.387 . S
C273 C274 1.374 . S
C273 H288 0.931 . S
C274 C268 1.439 1_554 S
C274 C273 1.374 . S
C274 H289 0.931 . S
Eu275 N266 2.600 . S
Eu275 N276 2.562 . S
Eu275 O310 2.335 . S
Eu275 O313 2.372 . S
Eu275 O314 2.462 . S
Eu275 O315 2.373 . S
Eu275 O317 2.432 . S
Eu275 O318 2.291 . S
Eu275 C339 2.787 . S
N276 C272 1.351 . S
N276 Eu275 2.562 . S
N276 C278 1.325 . S
C277 C271 1.404 . S
C277 C279 1.366 . S
C277 H285 0.930 . S
C278 N276 1.325 . S
C278 C279 1.416 1_556 S
C278 H284 0.929 . S
C279 C277 1.366 . S
C279 C278 1.416 1_554 S
C279 H281 0.930 . S
H280 C269 0.930 . S
H281 C279 0.930 . S
H282 C297 0.930 . S
H283 C304 0.930 . S
H284 C278 0.929 . S
H285 C277 0.930 . S
H286 C300 0.929 . S
H287 C267 0.931 . S
H288 C273 0.931 . S
H289 C274 0.931 . S
H290 C295 0.931 . S
H291 C270 0.929 . S
H292 C303 0.930 . S
N293 Eu264 2.600 . S
N293 C294 1.365 . S
N293 C297 1.319 . S
C294 N293 1.365 . S
C294 C296 1.405 . S
C294 C302 1.448 . S
C295 H290 0.931 . S
C295 C297 1.397 . S
C295 C298 1.367 . S
C296 C294 1.405 . S
C296 C298 1.403 . S
C296 C329 1.439 . S
C297 H282 0.930 . S
C297 N293 1.319 . S
C297 C295 1.397 . S
C298 C295 1.367 . S
C298 C296 1.403 . S
C298 H305 0.929 . S
N299 Eu264 2.562 . S
N299 C300 1.325 . S
N299 C302 1.351 . S
C300 H286 0.929 . S
C300 N299 1.325 . S
C300 C304 1.416 . S
C301 C302 1.430 . S
C301 C303 1.404 . S
C301 C330 1.387 . S
C302 C294 1.448 . S
C302 N299 1.351 . S
C302 C301 1.430 . S
C303 H292 0.930 . S
C303 C301 1.404 . S
C303 C304 1.366 . S
C304 H283 0.930 . S
C304 C300 1.416 . S
C304 C303 1.366 . S
H305 C298 0.929 . S
H306 C329 0.931 . S
H307 C330 0.931 . S
O308 Eu264 2.462 . S
O308 C328 1.252 . S
O309 Eu264 2.373 . S
O309 C320 1.249 . S
O310 Eu275 2.335 . S
O310 C320 1.264 . S
O311 Eu264 2.432 . S
O311 C328 1.268 . S
O312 Eu264 2.291 . S
O312 C327 1.255 . S
O313 Eu275 2.372 . S
O313 C327 1.257 . S
O314 Eu275 2.462 . S
O314 C339 1.252 . S
O315 Eu275 2.373 . S
O315 C331 1.249 . S
O316 Eu264 2.335 . S
O316 C331 1.264 . S
O317 Eu275 2.432 . S
O317 C339 1.268 . S
O318 Eu275 2.291 . S
O318 C338 1.255 . S
O319 Eu264 2.372 . S
O319 C338 1.257 . S
C320 O309 1.249 . S
C320 O310 1.264 . S
C321 C324 1.382 . S
C321 C326 1.390 . S
C321 C328 1.506 . S
C322 C323 1.398 . S
C322 C326 1.392 . S
C323 C322 1.398 . S
C323 C325 1.372 . S
C323 H340 0.931 . S
C324 C321 1.382 . S
C324 C325 1.390 . S
C324 H341 0.931 . S
C325 C323 1.372 . S
C325 C324 1.390 . S
C325 H342 0.929 . S
C326 C321 1.390 . S
C326 C322 1.392 . S
C326 H343 0.930 . S
C327 O312 1.255 . S
C327 O313 1.257 . S
C328 Eu264 2.787 . S
C328 O308 1.252 . S
C328 O311 1.268 . S
C328 C321 1.506 . S
C329 C296 1.439 . S
C329 H306 0.931 . S
C329 C330 1.374 . S
C330 C301 1.387 . S
C330 H307 0.931 . S
C330 C329 1.374 . S
C331 O315 1.249 . S
C331 O316 1.264 . S
C332 C335 1.382 . S
C332 C336 1.390 . S
C332 C339 1.506 . S
C333 C334 1.398 . S
C333 C336 1.392 . S
C334 C333 1.398 . S
C334 C337 1.372 . S
C334 H344 0.931 1_556 S
C335 C332 1.382 . S
C335 C337 1.390 . S
C335 H345 0.931 . S
C336 C332 1.390 . S
C336 C333 1.392 . S
C336 H346 0.930 . S
C337 C334 1.372 . S
C337 C335 1.390 . S
C337 H347 0.929 . S
C338 O318 1.255 . S
C338 O319 1.257 . S
C339 Eu275 2.787 . S
C339 O314 1.252 . S
C339 O317 1.268 . S
C339 C332 1.506 . S
H340 C323 0.931 . S
H341 C324 0.931 . S
H342 C325 0.929 . S
H343 C326 0.930 . S
H344 C334 0.931 1_554 S
H345 C335 0.931 . S
H346 C336 0.930 . S
H347 C337 0.929 . S
Eu348 N377 2.600 . S
Eu348 N383 2.562 . S
Eu348 O392 2.462 . S
Eu348 O393 2.373 1_455 S
Eu348 O395 2.432 . S
Eu348 O396 2.291 . S
Eu348 O400 2.335 . S
Eu348 O403 2.372 . S
Eu348 C412 2.787 . S
C349 N350 1.365 . S
C349 C352 1.405 . S
C349 C356 1.448 . S
N350 C349 1.365 . S
N350 C353 1.316 1_455 S
N350 Eu359 2.600 1_455 S
C351 C353 1.387 1_455 S
C351 C354 1.367 . S
C351 H371 0.931 . S
C352 C349 1.405 . S
C352 C354 1.403 . S
C352 C358 1.439 1_556 S
C353 N350 1.316 1_655 S
C353 C351 1.387 1_655 S
C353 H364 0.945 . S
C354 C351 1.367 . S
C354 C352 1.403 . S
C354 H375 0.929 . S
C355 C356 1.430 1_554 S
C355 C357 1.387 . S
C355 C361 1.404 . S
C356 C349 1.448 . S
C356 C355 1.430 1_556 S
C356 N360 1.351 . S
C357 C355 1.387 . S
C357 C358 1.374 . S
C357 H372 0.931 . S
C358 C352 1.439 1_554 S
C358 C357 1.374 . S
C358 H373 0.931 . S
Eu359 N350 2.600 1_655 S
Eu359 N360 2.562 1_655 S
Eu359 O394 2.335 . S
Eu359 O397 2.372 . S
Eu359 O398 2.462 . S
Eu359 O399 2.373 1_655 S
Eu359 O401 2.432 . S
Eu359 O402 2.291 1_655 S
Eu359 C423 2.787 . S
N360 C356 1.351 . S
N360 Eu359 2.562 1_455 S
N360 C362 1.325 . S
C361 C355 1.404 . S
C361 C363 1.366 . S
C361 H369 0.930 . S
C362 N360 1.325 . S
C362 C363 1.416 1_556 S
C362 H368 0.929 . S
C363 C361 1.366 . S
C363 C362 1.416 1_554 S
C363 H365 0.930 . S
H364 C353 0.945 . S
H365 C363 0.930 . S
H366 C381 0.930 . S
H367 C388 0.930 . S
H368 C362 0.929 . S
H369 C361 0.930 . S
H370 C384 0.929 . S
H371 C351 0.931 . S
H372 C357 0.931 . S
H373 C358 0.931 . S
H374 C379 0.931 . S
H375 C354 0.929 . S
H376 C387 0.930 . S
N377 Eu348 2.600 . S
N377 C378 1.365 . S
N377 C381 1.319 . S
C378 N377 1.365 . S
C378 C380 1.405 1_455 S
C378 C386 1.447 . S
C379 H374 0.931 . S
C379 C381 1.397 . S
C379 C382 1.367 1_455 S
C380 C378 1.405 1_655 S
C380 C382 1.403 . S
C380 C413 1.439 . S
C381 H366 0.930 . S
C381 N377 1.319 . S
C381 C379 1.397 . S
C382 C379 1.367 1_655 S
C382 C380 1.403 . S
C382 H389 0.929 . S
N383 Eu348 2.562 . S
N383 C384 1.325 . S
N383 C386 1.350 . S
C384 H370 0.929 . S
C384 N383 1.325 . S
C384 C388 1.416 1_455 S
C385 C386 1.432 1_655 S
C385 C387 1.404 . S
C385 C414 1.387 . S
C386 C378 1.447 . S
C386 N383 1.350 . S
C386 C385 1.432 1_455 S
C387 H376 0.930 . S
C387 C385 1.404 . S
C387 C388 1.366 . S
C388 H367 0.930 . S
C388 C384 1.416 1_655 S
C388 C387 1.366 . S
H389 C382 0.929 . S
H390 C413 0.931 . S
H391 C414 0.931 . S
O392 Eu348 2.462 . S
O392 C412 1.252 . S
O393 Eu348 2.373 1_655 S
O393 C404 1.249 . S
O394 Eu359 2.335 . S
O394 C404 1.264 . S
O395 Eu348 2.432 . S
O395 C412 1.268 . S
O396 Eu348 2.291 . S
O396 C411 1.255 . S
O397 Eu359 2.372 . S
O397 C411 1.257 1_655 S
O398 Eu359 2.462 . S
O398 C423 1.252 . S
O399 Eu359 2.373 1_455 S
O399 C415 1.249 . S
O400 Eu348 2.335 . S
O400 C415 1.264 . S
O401 Eu359 2.432 . S
O401 C423 1.268 . S
O402 Eu359 2.291 1_455 S
O402 C422 1.255 . S
O403 Eu348 2.372 . S
O403 C422 1.257 . S
C404 O393 1.249 . S
C404 O394 1.264 . S
C405 C408 1.382 . S
C405 C410 1.390 . S
C405 C412 1.506 . S
C406 C407 1.398 . S
C406 C410 1.392 . S
C407 C406 1.398 . S
C407 C409 1.372 . S
C407 H424 0.931 . S
C408 C405 1.382 . S
C408 C409 1.390 . S
C408 H425 0.931 . S
C409 C407 1.372 . S
C409 C408 1.390 . S
C409 H426 0.929 . S
C410 C405 1.390 . S
C410 C406 1.392 . S
C410 H427 0.930 . S
C411 O396 1.255 . S
C411 O397 1.257 1_455 S
C412 Eu348 2.787 . S
C412 O392 1.252 . S
C412 O395 1.268 . S
C412 C405 1.506 . S
C413 C380 1.439 . S
C413 H390 0.931 . S
C413 C414 1.374 . S
C414 C385 1.387 . S
C414 H391 0.931 . S
C414 C413 1.374 . S
C415 O399 1.249 . S
C415 O400 1.264 . S
C416 C419 1.382 . S
C416 C420 1.390 . S
C416 C423 1.506 . S
C417 C418 1.398 . S
C417 C420 1.392 . S
C418 C417 1.398 . S
C418 C421 1.372 . S
C418 H428 0.931 1_556 S
C419 C416 1.382 . S
C419 C421 1.390 . S
C419 H429 0.931 . S
C420 C416 1.390 . S
C420 C417 1.392 . S
C420 H430 0.930 . S
C421 C418 1.372 . S
C421 C419 1.390 . S
C421 H431 0.929 . S
C422 O402 1.255 . S
C422 O403 1.257 . S
C423 Eu359 2.787 . S
C423 O398 1.252 . S
C423 O401 1.268 . S
C423 C416 1.506 . S
H424 C407 0.931 . S
H425 C408 0.931 . S
H426 C409 0.929 . S
H427 C410 0.930 . S
H428 C418 0.931 1_554 S
H429 C419 0.931 . S
H430 C420 0.930 . S
H431 C421 0.929 . S
H432 C444 0.930 . S
H433 C446 0.930 . S
H434 C447 0.930 . S
H435 C451 0.959 . S
H436 C451 0.959 . S
H437 C451 0.961 . S
H438 C452 0.960 . S
H439 C452 0.961 . S
H440 C452 0.959 . S
H441 C455 0.946 . S
H442 C456 0.931 . S
H443 C458 0.930 . S
C444 H432 0.930 . S
C444 C445 1.399 . S
C444 C449 1.399 . S
C445 C444 1.399 . S
C445 C446 1.376 . S
C446 H433 0.930 . S
C446 C445 1.376 . S
C446 C447 1.388 . S
C447 H434 0.930 . S
C447 C446 1.388 . S
C447 C448 1.390 . S
C448 C447 1.390 . S
C448 C449 1.394 . S
C448 C454 1.465 . S
C449 C444 1.399 . S
C449 C448 1.394 . S
C449 C450 1.516 . S
C450 C449 1.516 . S
C450 C451 1.502 . S
C450 C452 1.561 . S
C450 C453 1.526 . S
C451 H435 0.959 . S
C451 H436 0.959 . S
C451 H437 0.961 . S
C451 C450 1.502 . S
C452 H438 0.960 . S
C452 H439 0.961 . S
C452 H440 0.959 . S
C452 C450 1.561 . S
C453 C450 1.526 . S
C453 C454 1.396 . S
C453 C458 1.390 . S
C454 C448 1.465 . S
C454 C453 1.396 . S
C454 C455 1.399 . S
C455 H441 0.946 . S
C455 C454 1.399 . S
C455 C456 1.385 . S
C456 H442 0.931 . S
C456 C455 1.385 . S
C456 C457 1.389 . S
C457 C456 1.389 . S
C457 C458 1.387 . S
C458 H443 0.930 . S
C458 C453 1.390 . S
C458 C457 1.387 . S
H459 C471 0.930 . S
H460 C473 0.930 . S
H461 C474 0.930 . S
H462 C478 0.959 . S
H463 C478 0.959 . S
H464 C478 0.961 . S
H465 C479 0.960 . S
H466 C479 0.961 . S
H467 C479 0.959 . S
H468 C482 0.929 . S
H469 C483 0.931 . S
H470 C485 0.930 . S
C471 H459 0.930 . S
C471 C472 1.399 . S
C471 C476 1.399 . S
C472 C471 1.399 . S
C472 C473 1.376 . S
C473 H460 0.930 . S
C473 C472 1.376 . S
C473 C474 1.388 . S
C474 H461 0.930 . S
C474 C473 1.388 . S
C474 C475 1.390 . S
C475 C474 1.390 . S
C475 C476 1.394 . S
C475 C481 1.465 . S
C476 C471 1.399 . S
C476 C475 1.394 . S
C476 C477 1.516 . S
C477 C476 1.516 . S
C477 C478 1.502 . S
C477 C479 1.561 . S
C477 C480 1.526 . S
C478 H462 0.959 . S
C478 H463 0.959 . S
C478 H464 0.961 . S
C478 C477 1.502 . S
C479 H465 0.960 . S
C479 H466 0.961 . S
C479 H467 0.959 . S
C479 C477 1.561 . S
C480 C477 1.526 . S
C480 C481 1.396 . S
C480 C485 1.390 . S
C481 C475 1.465 . S
C481 C480 1.396 . S
C481 C482 1.399 . S
C482 H468 0.929 . S
C482 C481 1.399 . S
C482 C483 1.385 . S
C483 H469 0.931 . S
C483 C482 1.385 . S
C483 C484 1.389 . S
C484 C483 1.389 . S
C484 C485 1.387 . S
C485 H470 0.930 . S
C485 C480 1.390 . S
C485 C484 1.387 . S
H486 C498 0.930 . S
H487 C500 0.930 . S
H488 C501 0.930 . S
H489 C505 0.959 . S
H490 C505 0.959 . S
H491 C505 0.961 . S
H492 C506 0.960 . S
H493 C506 0.961 . S
H494 C506 0.959 . S
H495 C509 0.929 . S
H496 C510 0.931 . S
H497 C512 0.930 . S
C498 H486 0.930 . S
C498 C499 1.399 . S
C498 C503 1.399 . S
C499 C498 1.399 . S
C499 C500 1.376 . S
C500 H487 0.930 . S
C500 C499 1.376 . S
C500 C501 1.388 . S
C501 H488 0.930 . S
C501 C500 1.388 . S
C501 C502 1.390 . S
C502 C501 1.390 . S
C502 C503 1.394 . S
C502 C508 1.465 . S
C503 C498 1.399 . S
C503 C502 1.394 . S
C503 C504 1.516 . S
C504 C503 1.516 . S
C504 C505 1.502 . S
C504 C506 1.561 . S
C504 C507 1.526 . S
C505 H489 0.959 . S
C505 H490 0.959 . S
C505 H491 0.961 . S
C505 C504 1.502 . S
C506 H492 0.960 . S
C506 H493 0.961 . S
C506 H494 0.959 . S
C506 C504 1.561 . S
C507 C504 1.526 . S
C507 C508 1.396 . S
C507 C512 1.390 . S
C508 C502 1.465 . S
C508 C507 1.396 . S
C508 C509 1.399 . S
C509 H495 0.929 . S
C509 C508 1.399 . S
C509 C510 1.385 . S
C510 H496 0.931 . S
C510 C509 1.385 . S
C510 C511 1.389 . S
C511 C510 1.389 . S
C511 C512 1.387 . S
C512 H497 0.930 . S
C512 C507 1.390 . S
C512 C511 1.387 . S
H513 C525 0.930 . S
H514 C527 0.930 . S
H515 C528 0.930 . S
H516 C532 0.959 . S
H517 C532 0.959 . S
H518 C532 0.961 . S
H519 C533 0.960 . S
H520 C533 0.961 . S
H521 C533 0.959 . S
H522 C536 0.929 . S
H523 C537 0.931 . S
H524 C539 0.930 . S
C525 H513 0.930 . S
C525 C526 1.399 . S
C525 C530 1.399 . S
C526 C525 1.399 . S
C526 C527 1.376 . S
C527 H514 0.930 . S
C527 C526 1.376 . S
C527 C528 1.388 . S
C528 H515 0.930 . S
C528 C527 1.388 . S
C528 C529 1.390 . S
C529 C528 1.390 . S
C529 C530 1.394 . S
C529 C535 1.465 . S
C530 C525 1.399 . S
C530 C529 1.394 . S
C530 C531 1.516 . S
C531 C530 1.516 . S
C531 C532 1.502 . S
C531 C533 1.561 1_455 S
C531 C534 1.526 . S
C532 H516 0.959 . S
C532 H517 0.959 . S
C532 H518 0.961 . S
C532 C531 1.502 . S
C533 H519 0.960 . S
C533 H520 0.961 . S
C533 H521 0.959 . S
C533 C531 1.561 1_655 S
C534 C531 1.526 . S
C534 C535 1.396 . S
C534 C539 1.390 . S
C535 C529 1.465 . S
C535 C534 1.396 . S
C535 C536 1.399 . S
C536 H522 0.929 . S
C536 C535 1.399 . S
C536 C537 1.385 . S
C537 H523 0.931 . S
C537 C536 1.385 . S
C537 C538 1.389 . S
C538 C537 1.389 . S
C538 C539 1.387 . S
C539 H524 0.930 . S
C539 C534 1.390 . S
C539 C538 1.387 . S
H540 C552 0.930 . S
H541 C554 0.930 . S
H542 C555 0.930 . S
H543 C559 0.959 . S
H544 C559 0.959 . S
H545 C559 0.961 . S
H546 C560 0.960 . S
H547 C560 0.961 . S
H548 C560 0.959 . S
H549 C563 0.929 . S
H550 C564 0.931 . S
H551 C566 0.930 . S
C552 H540 0.930 . S
C552 C553 1.399 . S
C552 C557 1.399 . S
C553 C552 1.399 . S
C553 C554 1.376 . S
C554 H541 0.930 . S
C554 C553 1.376 . S
C554 C555 1.388 . S
C555 H542 0.930 . S
C555 C554 1.388 . S
C555 C556 1.390 . S
C556 C555 1.390 . S
C556 C557 1.394 . S
C556 C562 1.465 . S
C557 C552 1.399 . S
C557 C556 1.394 . S
C557 C558 1.516 1_564 S
C558 C557 1.516 1_546 S
C558 C559 1.502 1_545 S
C558 C560 1.561 . S
C558 C561 1.524 1_545 S
C559 H543 0.959 . S
C559 H544 0.959 . S
C559 H545 0.961 . S
C559 C558 1.502 1_565 S
C560 H546 0.960 . S
C560 H547 0.961 . S
C560 H548 0.959 . S
C560 C558 1.561 . S
C561 C558 1.524 1_565 S
C561 C562 1.402 1_556 S
C561 C566 1.386 1_565 S
C562 C556 1.465 . S
C562 C561 1.402 1_554 S
C562 C563 1.399 . S
C563 H549 0.929 . S
C563 C562 1.399 . S
C563 C564 1.385 1_554 S
C564 H550 0.931 . S
C564 C563 1.385 1_556 S
C564 C565 1.390 1_565 S
C565 C564 1.390 1_545 S
C565 C566 1.387 . S
C566 H551 0.930 . S
C566 C561 1.386 1_545 S
C566 C565 1.387 . S
H567 C579 0.930 . S
H568 C581 0.930 . S
H569 C582 0.930 . S
H570 C586 0.959 . S
H571 C586 0.959 . S
H572 C586 0.961 . S
H573 C587 0.960 . S
H574 C587 0.961 . S
H575 C587 0.959 . S
H576 C590 0.929 . S
H577 C591 0.931 . S
H578 C593 0.930 . S
C579 H567 0.930 . S
C579 C580 1.399 . S
C579 C584 1.399 . S
C580 C579 1.399 . S
C580 C581 1.376 . S
C581 H568 0.930 . S
C581 C580 1.376 . S
C581 C582 1.388 . S
C582 H569 0.930 . S
C582 C581 1.388 . S
C582 C583 1.390 . S
C583 C582 1.390 . S
C583 C584 1.394 . S
C583 C589 1.465 . S
C584 C579 1.399 . S
C584 C583 1.394 . S
C584 C585 1.516 1_554 S
C585 C584 1.516 1_556 S
C585 C586 1.502 . S
C585 C587 1.561 . S
C585 C588 1.526 . S
C586 H570 0.959 . S
C586 H571 0.959 . S
C586 H572 0.961 . S
C586 C585 1.502 . S
C587 H573 0.960 . S
C587 H574 0.961 . S
C587 H575 0.959 . S
C587 C585 1.561 . S
C588 C585 1.526 . S
C588 C589 1.396 1_556 S
C588 C593 1.390 . S
C589 C583 1.465 . S
C589 C588 1.396 1_554 S
C589 C590 1.399 . S
C590 H576 0.929 . S
C590 C589 1.399 . S
C590 C591 1.385 1_554 S
C591 H577 0.931 . S
C591 C590 1.385 1_556 S
C591 C592 1.389 . S
C592 C591 1.389 . S
C592 C593 1.387 . S
C593 H578 0.930 . S
C593 C588 1.390 . S
C593 C592 1.387 . S
H594 C606 0.930 . S
H595 C608 0.930 . S
H596 C609 0.930 . S
H597 C613 0.959 . S
H598 C613 0.959 . S
H599 C613 0.961 . S
H600 C614 0.960 1_554 S
H601 C614 0.961 . S
H602 C614 0.959 . S
H603 C617 0.929 . S
H604 C618 0.931 . S
H605 C620 0.930 . S
C606 H594 0.930 . S
C606 C607 1.399 . S
C606 C611 1.399 . S
C607 C606 1.399 . S
C607 C608 1.376 . S
C608 H595 0.930 . S
C608 C607 1.376 . S
C608 C609 1.388 . S
C609 H596 0.930 . S
C609 C608 1.388 . S
C609 C610 1.390 . S
C610 C609 1.390 . S
C610 C611 1.394 . S
C610 C616 1.465 1_554 S
C611 C606 1.399 . S
C611 C610 1.394 . S
C611 C612 1.516 . S
C612 C611 1.516 . S
C612 C613 1.502 . S
C612 C614 1.561 1_554 S
C612 C615 1.526 1_554 S
C613 H597 0.959 . S
C613 H598 0.959 . S
C613 H599 0.961 . S
C613 C612 1.502 . S
C614 H600 0.960 1_556 S
C614 H601 0.961 . S
C614 H602 0.959 . S
C614 C612 1.561 1_556 S
C615 C612 1.526 1_556 S
C615 C616 1.396 . S
C615 C620 1.390 . S
C616 C610 1.465 1_556 S
C616 C615 1.396 . S
C616 C617 1.399 . S
C617 H603 0.929 . S
C617 C616 1.399 . S
C617 C618 1.385 . S
C618 H604 0.931 . S
C618 C617 1.385 . S
C618 C619 1.389 . S
C619 C618 1.389 . S
C619 C620 1.387 . S
C620 H605 0.930 . S
C620 C615 1.390 . S
C620 C619 1.387 . S
H621 C633 0.930 . S
H622 C635 0.930 . S
H623 C636 0.930 . S
H624 C640 0.959 1_556 S
H625 C640 0.959 . S
H626 C640 0.961 . S
H627 C641 0.960 . S
H628 C641 0.961 . S
H629 C641 0.959 . S
H630 C644 0.929 . S
H631 C645 0.931 . S
H632 C647 0.930 . S
C633 H621 0.930 . S
C633 C634 1.399 1_455 S
C633 C638 1.397 1_455 S
C634 C633 1.399 1_655 S
C634 C635 1.376 . S
C635 H622 0.930 . S
C635 C634 1.376 . S
C635 C636 1.388 . S
C636 H623 0.930 . S
C636 C635 1.388 . S
C636 C637 1.390 . S
C637 C636 1.390 . S
C637 C638 1.413 . S
C637 C643 1.465 1_554 S
C638 C633 1.397 1_655 S
C638 C637 1.413 . S
C638 C639 1.501 1_655 S
C639 C638 1.501 1_455 S
C639 C640 1.502 . S
C639 C641 1.561 . S
C639 C642 1.526 1_554 S
C640 H624 0.959 1_554 S
C640 H625 0.959 . S
C640 H626 0.961 . S
C640 C639 1.502 . S
C641 H627 0.960 . S
C641 H628 0.961 . S
C641 H629 0.959 . S
C641 C639 1.561 . S
C642 C639 1.526 1_556 S
C642 C643 1.396 1_455 S
C642 C647 1.390 . S
C643 C637 1.465 1_556 S
C643 C642 1.396 1_655 S
C643 C644 1.399 . S
C644 H630 0.929 . S
C644 C643 1.399 . S
C644 C645 1.385 . S
C645 H631 0.931 . S
C645 C644 1.385 . S
C645 C646 1.389 . S
C646 C645 1.389 . S
C646 C647 1.387 1_655 S
C647 H632 0.930 . S
C647 C642 1.390 . S
C647 C646 1.387 1_455 S
H648 C660 0.930 . S
H649 C662 0.932 1_655 S
H650 C663 0.930 . S
H651 C667 0.959 . S
H652 C667 0.959 . S
H653 C667 0.961 . S
H654 C668 0.960 . S
H655 C668 0.961 . S
H656 C668 0.959 . S
H657 C671 0.929 . S
H658 C672 0.931 . S
H659 C674 0.930 . S
C660 H648 0.930 . S
C660 C661 1.399 . S
C660 C665 1.399 . S
C661 C660 1.399 . S
C661 C662 1.376 . S
C662 H649 0.932 1_455 S
C662 C661 1.376 . S
C662 C663 1.388 1_455 S
C663 H650 0.930 . S
C663 C662 1.388 1_655 S
C663 C664 1.390 1_655 S
C664 C663 1.390 1_455 S
C664 C665 1.394 . S
C664 C670 1.465 . S
C665 C660 1.399 . S
C665 C664 1.394 . S
C665 C666 1.516 . S
C666 C665 1.516 . S
C666 C667 1.502 . S
C666 C668 1.561 . S
C666 C669 1.526 . S
C667 H651 0.959 . S
C667 H652 0.959 . S
C667 H653 0.961 . S
C667 C666 1.502 . S
C668 H654 0.960 . S
C668 H655 0.961 . S
C668 H656 0.959 . S
C668 C666 1.561 . S
C669 C666 1.526 . S
C669 C670 1.396 . S
C669 C674 1.390 . S
C670 C664 1.465 . S
C670 C669 1.396 . S
C670 C671 1.399 1_455 S
C671 H657 0.929 . S
C671 C670 1.399 1_655 S
C671 C672 1.385 . S
C672 H658 0.931 . S
C672 C671 1.385 . S
C672 C673 1.389 1_655 S
C673 C672 1.389 1_455 S
C673 C674 1.387 . S
C674 H659 0.930 . S
C674 C669 1.390 . S
C674 C673 1.387 . S
H675 C687 0.930 . S
H676 C689 0.930 . S
H677 C690 0.930 . S
H678 C694 0.959 . S
H679 C694 0.959 . S
H680 C694 0.961 . S
H681 C695 0.960 . S
H682 C695 0.961 . S
H683 C695 0.959 . S
H684 C698 0.929 . S
H685 C699 0.931 1_565 S
H686 C701 0.930 . S
C687 H675 0.930 . S
C687 C688 1.399 . S
C687 C692 1.399 . S
C688 C687 1.399 . S
C688 C689 1.376 . S
C689 H676 0.930 . S
C689 C688 1.376 . S
C689 C690 1.388 . S
C690 H677 0.930 . S
C690 C689 1.388 . S
C690 C691 1.390 . S
C691 C690 1.390 . S
C691 C692 1.394 . S
C691 C697 1.465 . S
C692 C687 1.399 . S
C692 C691 1.394 . S
C692 C693 1.516 . S
C693 C692 1.516 . S
C693 C694 1.502 . S
C693 C695 1.561 . S
C693 C696 1.526 . S
C694 H678 0.959 . S
C694 H679 0.959 . S
C694 H680 0.961 . S
C694 C693 1.502 . S
C695 H681 0.960 . S
C695 H682 0.961 . S
C695 H683 0.959 . S
C695 C693 1.561 . S
C696 C693 1.526 . S
C696 C697 1.396 . S
C696 C701 1.390 . S
C697 C691 1.465 . S
C697 C696 1.396 . S
C697 C698 1.399 . S
C698 H684 0.929 . S
C698 C697 1.399 . S
C698 C699 1.385 . S
C699 H685 0.931 1_545 S
C699 C698 1.385 . S
C699 C700 1.389 . S
C700 C699 1.389 . S
C700 C701 1.387 . S
C701 H686 0.930 . S
C701 C696 1.390 . S
C701 C700 1.387 . S
H702 C714 0.930 . S
H703 C716 0.930 . S
H704 C717 0.930 . S
H705 C721 0.959 . S
H706 C721 0.959 . S
H707 C721 0.961 . S
H708 C722 0.960 . S
H709 C722 0.961 . S
H710 C722 0.959 . S
H711 C725 0.929 . S
H712 C726 0.931 . S
H713 C728 0.930 . S
C714 H702 0.930 . S
C714 C715 1.399 . S
C714 C719 1.399 . S
C715 C714 1.399 . S
C715 C716 1.376 . S
C716 H703 0.930 . S
C716 C715 1.376 . S
C716 C717 1.388 . S
C717 H704 0.930 . S
C717 C716 1.388 . S
C717 C718 1.390 . S
C718 C717 1.390 . S
C718 C719 1.394 . S
C718 C724 1.465 . S
C719 C714 1.399 . S
C719 C718 1.394 . S
C719 C720 1.516 . S
C720 C719 1.516 . S
C720 C721 1.502 . S
C720 C722 1.561 . S
C720 C723 1.526 . S
C721 H705 0.959 . S
C721 H706 0.959 . S
C721 H707 0.961 . S
C721 C720 1.502 . S
C722 H708 0.960 . S
C722 H709 0.961 . S
C722 H710 0.959 . S
C722 C720 1.561 . S
C723 C720 1.526 . S
C723 C724 1.396 . S
C723 C728 1.390 . S
C724 C718 1.465 . S
C724 C723 1.396 . S
C724 C725 1.399 . S
C725 H711 0.929 . S
C725 C724 1.399 . S
C725 C726 1.385 . S
C726 H712 0.931 . S
C726 C725 1.385 . S
C726 C727 1.389 . S
C727 C726 1.389 . S
C727 C728 1.387 . S
C728 H713 0.930 . S
C728 C723 1.390 . S
C728 C727 1.387 . S
H729 C741 0.930 . S
H730 C743 0.930 . S
H731 C744 0.930 . S
H732 C748 0.959 . S
H733 C748 0.959 . S
H734 C748 0.961 . S
H735 C749 0.960 . S
H736 C749 0.961 . S
H737 C749 0.959 . S
H738 C752 0.929 . S
H739 C753 0.931 . S
H740 C755 0.930 . S
C741 H729 0.930 . S
C741 C742 1.399 . S
C741 C746 1.399 . S
C742 C741 1.399 . S
C742 C743 1.376 . S
C743 H730 0.930 . S
C743 C742 1.376 . S
C743 C744 1.388 . S
C744 H731 0.930 . S
C744 C743 1.388 . S
C744 C745 1.390 . S
C745 C744 1.390 . S
C745 C746 1.394 . S
C745 C751 1.465 . S
C746 C741 1.399 . S
C746 C745 1.394 . S
C746 C747 1.516 . S
C747 C746 1.516 . S
C747 C748 1.502 . S
C747 C749 1.561 . S
C747 C750 1.526 . S
C748 H732 0.959 . S
C748 H733 0.959 . S
C748 H734 0.961 . S
C748 C747 1.502 . S
C749 H735 0.960 . S
C749 H736 0.961 . S
C749 H737 0.959 . S
C749 C747 1.561 . S
C750 C747 1.526 . S
C750 C751 1.396 . S
C750 C755 1.390 . S
C751 C745 1.465 . S
C751 C750 1.396 . S
C751 C752 1.399 . S
C752 H738 0.929 . S
C752 C751 1.399 . S
C752 C753 1.385 . S
C753 H739 0.931 . S
C753 C752 1.385 . S
C753 C754 1.389 . S
C754 C753 1.389 . S
C754 C755 1.387 . S
C755 H740 0.930 . S
C755 C750 1.390 . S
C755 C754 1.387 . S
H756 C768 0.930 . S
H757 C770 0.930 . S
H758 C771 0.930 . S
H759 C775 0.959 . S
H760 C775 0.959 1_455 S
H761 C775 0.961 . S
H762 C776 0.960 . S
H763 C776 0.961 . S
H764 C776 0.959 . S
H765 C779 0.929 . S
H766 C780 0.929 1_655 S
H767 C782 0.930 . S
C768 H756 0.930 . S
C768 C769 1.399 . S
C768 C773 1.399 . S
C769 C768 1.399 . S
C769 C770 1.376 . S
C770 H757 0.930 . S
C770 C769 1.376 . S
C770 C771 1.388 . S
C771 H758 0.930 . S
C771 C770 1.388 . S
C771 C772 1.390 . S
C772 C771 1.390 . S
C772 C773 1.394 . S
C772 C778 1.465 . S
C773 C768 1.399 . S
C773 C772 1.394 . S
C773 C774 1.516 1_655 S
C774 C773 1.516 1_455 S
C774 C775 1.502 1_455 S
C774 C776 1.561 . S
C774 C777 1.526 . S
C775 H759 0.959 . S
C775 H760 0.959 1_655 S
C775 H761 0.961 . S
C775 C774 1.502 1_655 S
C776 H762 0.960 . S
C776 H763 0.961 . S
C776 H764 0.959 . S
C776 C774 1.561 . S
C777 C774 1.526 . S
C777 C778 1.396 1_455 S
C777 C782 1.390 . S
C778 C772 1.465 . S
C778 C777 1.396 1_655 S
C778 C779 1.399 1_554 S
C779 H765 0.929 . S
C779 C778 1.399 1_556 S
C779 C780 1.385 1_655 S
C780 H766 0.929 1_455 S
C780 C779 1.385 1_455 S
C780 C781 1.389 . S
C781 C780 1.389 . S
C781 C782 1.387 1_556 S
C782 H767 0.930 . S
C782 C777 1.390 . S
C782 C781 1.387 1_554 S
H783 C795 0.930 . S
H784 C797 0.930 . S
H785 C798 0.930 . S
H786 C802 0.959 . S
H787 C802 0.959 . S
H788 C802 0.961 . S
H789 C803 0.960 . S
H790 C803 0.961 . S
H791 C803 0.972 . S
H792 C806 0.929 . S
H793 C807 0.931 . S
H794 C809 0.930 . S
C795 H783 0.930 . S
C795 C796 1.399 . S
C795 C800 1.399 . S
C796 C795 1.399 . S
C796 C797 1.376 1_565 S
C797 H784 0.930 . S
C797 C796 1.376 1_545 S
C797 C798 1.388 . S
C798 H785 0.930 . S
C798 C797 1.388 . S
C798 C799 1.390 . S
C799 C798 1.390 . S
C799 C800 1.394 1_545 S
C799 C805 1.465 . S
C800 C795 1.399 . S
C800 C799 1.394 1_565 S
C800 C801 1.516 . S
C801 C800 1.516 . S
C801 C802 1.502 . S
C801 C803 1.561 . S
C801 C804 1.526 . S
C802 H786 0.959 . S
C802 H787 0.959 . S
C802 H788 0.961 . S
C802 C801 1.502 . S
C803 H789 0.960 . S
C803 H790 0.961 . S
C803 H791 0.972 . S
C803 C801 1.561 . S
C804 C801 1.526 . S
C804 C805 1.396 1_565 S
C804 C809 1.390 . S
C805 C799 1.465 . S
C805 C804 1.396 1_545 S
C805 C806 1.399 . S
C806 H792 0.929 . S
C806 C805 1.399 . S
C806 C807 1.385 1_554 S
C807 H793 0.931 . S
C807 C806 1.385 1_556 S
C807 C808 1.389 1_556 S
C808 C807 1.389 1_554 S
C808 C809 1.387 1_545 S
C809 H794 0.930 . S
C809 C804 1.390 . S
C809 C808 1.387 1_565 S
H810 C822 0.930 . S
H811 C824 0.930 . S
H812 C825 0.930 . S
H813 C829 0.959 . S
H814 C829 0.959 . S
H815 C829 0.961 . S
H816 C830 0.960 . S
H817 C830 0.961 1_556 S
H818 C830 0.959 1_556 S
H819 C833 0.929 . S
H820 C834 0.931 . S
H821 C836 0.930 . S
C822 H810 0.930 . S
C822 C823 1.399 . S
C822 C827 1.399 . S
C823 C822 1.399 . S
C823 C824 1.376 . S
C824 H811 0.930 . S
C824 C823 1.376 . S
C824 C825 1.388 . S
C825 H812 0.930 . S
C825 C824 1.388 . S
C825 C826 1.390 . S
C826 C825 1.390 . S
C826 C827 1.394 . S
C826 C832 1.465 . S
C827 C822 1.399 . S
C827 C826 1.394 . S
C827 C828 1.516 . S
C828 C827 1.516 . S
C828 C829 1.502 . S
C828 C830 1.561 . S
C828 C831 1.526 . S
C829 H813 0.959 . S
C829 H814 0.959 . S
C829 H815 0.961 . S
C829 C828 1.502 . S
C830 H816 0.960 . S
C830 H817 0.961 1_554 S
C830 H818 0.959 1_554 S
C830 C828 1.561 . S
C831 C828 1.526 . S
C831 C832 1.396 . S
C831 C836 1.390 . S
C832 C826 1.465 . S
C832 C831 1.396 . S
C832 C833 1.399 . S
C833 H819 0.929 . S
C833 C832 1.399 . S
C833 C834 1.385 . S
C834 H820 0.931 . S
C834 C833 1.385 . S
C834 C835 1.389 . S
C835 C834 1.389 . S
C835 C836 1.387 . S
C836 H821 0.930 . S
C836 C831 1.390 . S
C836 C835 1.387 . S
H837 C849 0.930 . S
H838 C851 0.930 . S
H839 C852 0.930 . S
H840 C856 0.959 . S
H841 C856 0.959 . S
H842 C856 0.961 . S
H843 C857 0.960 . S
H844 C857 0.961 . S
H845 C857 0.959 . S
H846 C860 0.929 . S
H847 C861 0.931 . S
H848 C863 0.930 . S
C849 H837 0.930 . S
C849 C850 1.399 . S
C849 C854 1.399 . S
C850 C849 1.399 . S
C850 C851 1.376 . S
C851 H838 0.930 . S
C851 C850 1.376 . S
C851 C852 1.388 . S
C852 H839 0.930 . S
C852 C851 1.388 . S
C852 C853 1.390 . S
C853 C852 1.390 . S
C853 C854 1.394 . S
C853 C859 1.465 . S
C854 C849 1.399 . S
C854 C853 1.394 . S
C854 C855 1.516 . S
C855 C854 1.516 . S
C855 C856 1.502 . S
C855 C857 1.561 . S
C855 C858 1.526 . S
C856 H840 0.959 . S
C856 H841 0.959 . S
C856 H842 0.961 . S
C856 C855 1.502 . S
C857 H843 0.960 . S
C857 H844 0.961 . S
C857 H845 0.959 . S
C857 C855 1.561 . S
C858 C855 1.526 . S
C858 C859 1.396 . S
C858 C863 1.390 . S
C859 C853 1.465 . S
C859 C858 1.396 . S
C859 C860 1.399 1_554 S
C860 H846 0.929 . S
C860 C859 1.399 1_556 S
C860 C861 1.385 . S
C861 H847 0.931 . S
C861 C860 1.385 . S
C861 C862 1.392 . S
C862 C861 1.392 . S
C862 C863 1.383 1_556 S
C863 H848 0.930 . S
C863 C858 1.390 . S
C863 C862 1.383 1_554 S
H864 C876 0.930 . S
H865 C878 0.930 1_554 S
H866 C879 0.930 1_554 S
H867 C883 0.959 . S
H868 C883 0.959 . S
H869 C883 0.961 . S
H870 C884 0.960 . S
H871 C884 0.961 . S
H872 C884 0.959 . S
H873 C887 0.929 . S
H874 C888 0.931 . S
H875 C890 0.930 . S
C876 H864 0.930 . S
C876 C877 1.399 . S
C876 C881 1.399 . S
C877 C876 1.399 . S
C877 C878 1.376 . S
C878 H865 0.930 1_556 S
C878 C877 1.376 . S
C878 C879 1.388 . S
C879 H866 0.930 1_556 S
C879 C878 1.388 . S
C879 C880 1.390 . S
C880 C879 1.390 . S
C880 C881 1.394 . S
C880 C886 1.465 . S
C881 C876 1.399 . S
C881 C880 1.394 . S
C881 C882 1.516 . S
C882 C881 1.516 . S
C882 C883 1.502 1_455 S
C882 C884 1.561 . S
C882 C885 1.526 . S
C883 H867 0.959 . S
C883 H868 0.959 . S
C883 H869 0.961 . S
C883 C882 1.502 1_655 S
C884 H870 0.960 . S
C884 H871 0.961 . S
C884 H872 0.959 . S
C884 C882 1.561 . S
C885 C882 1.526 . S
C885 C886 1.396 . S
C885 C890 1.390 . S
C886 C880 1.465 . S
C886 C885 1.396 . S
C886 C887 1.399 . S
C887 H873 0.929 . S
C887 C886 1.399 . S
C887 C888 1.385 . S
C888 H874 0.931 . S
C888 C887 1.385 . S
C888 C889 1.389 . S
C889 C888 1.389 . S
C889 C890 1.387 . S
C890 H875 0.930 . S
C890 C885 1.390 . S
C890 C889 1.387 . S
H891 C903 0.930 . S
H892 C905 0.930 . S
H893 C906 0.930 . S
H894 C910 0.959 1_554 S
H895 C910 0.959 1_564 S
H896 C910 0.961 1_554 S
H897 C911 0.960 . S
H898 C911 0.961 . S
H899 C911 0.959 . S
H900 C914 0.929 . S
H901 C915 0.931 . S
H902 C917 0.930 . S
C903 H891 0.930 . S
C903 C904 1.399 . S
C903 C908 1.399 . S
C904 C903 1.399 . S
C904 C905 1.376 . S
C905 H892 0.930 . S
C905 C904 1.376 . S
C905 C906 1.388 . S
C906 H893 0.930 . S
C906 C905 1.388 . S
C906 C907 1.390 . S
C907 C906 1.390 . S
C907 C908 1.394 . S
C907 C913 1.465 . S
C908 C903 1.399 . S
C908 C907 1.394 . S
C908 C909 1.516 . S
C909 C908 1.516 . S
C909 C910 1.502 . S
C909 C911 1.561 1_545 S
C909 C912 1.526 . S
C910 H894 0.959 1_556 S
C910 H895 0.959 1_546 S
C910 H896 0.961 1_556 S
C910 C909 1.502 . S
C911 H897 0.960 . S
C911 H898 0.961 . S
C911 H899 0.959 . S
C911 C909 1.561 1_565 S
C912 C909 1.526 . S
C912 C913 1.396 . S
C912 C917 1.390 . S
C913 C907 1.465 . S
C913 C912 1.396 . S
C913 C914 1.399 . S
C914 H900 0.929 . S
C914 C913 1.399 . S
C914 C915 1.385 . S
C915 H901 0.931 . S
C915 C914 1.385 . S
C915 C916 1.389 . S
C916 C915 1.389 . S
C916 C917 1.387 . S
C917 H902 0.930 . S
C917 C912 1.390 . S
C917 C916 1.387 . S
H918 C930 0.930 . S
H919 C932 0.936 . S
H920 C933 0.930 . S
H921 C937 0.959 . S
H922 C937 0.959 . S
H923 C937 0.961 . S
H924 C938 0.960 . S
H925 C938 0.961 . S
H926 C938 0.959 . S
H927 C941 0.929 . S
H928 C942 0.931 . S
H929 C944 0.930 . S
C930 H918 0.930 . S
C930 C931 1.399 . S
C930 C935 1.399 . S
C931 C930 1.399 . S
C931 C932 1.376 . S
C932 H919 0.936 . S
C932 C931 1.376 . S
C932 C933 1.388 . S
C933 H920 0.930 . S
C933 C932 1.388 . S
C933 C934 1.390 . S
C934 C933 1.390 . S
C934 C935 1.394 . S
C934 C940 1.465 . S
C935 C930 1.399 . S
C935 C934 1.394 . S
C935 C936 1.516 . S
C936 C935 1.516 . S
C936 C937 1.502 . S
C936 C938 1.561 . S
C936 C939 1.526 . S
C937 H921 0.959 . S
C937 H922 0.959 . S
C937 H923 0.961 . S
C937 C936 1.502 . S
C938 H924 0.960 . S
C938 H925 0.961 . S
C938 H926 0.959 . S
C938 C936 1.561 . S
C939 C936 1.526 . S
C939 C940 1.396 . S
C939 C944 1.390 . S
C940 C934 1.465 . S
C940 C939 1.396 . S
C940 C941 1.399 . S
C941 H927 0.929 . S
C941 C940 1.399 . S
C941 C942 1.385 . S
C942 H928 0.931 . S
C942 C941 1.385 . S
C942 C943 1.389 . S
C943 C942 1.389 . S
C943 C944 1.387 . S
C944 H929 0.930 . S
C944 C939 1.390 . S
C944 C943 1.387 . S
H945 C957 0.930 . S
H946 C959 0.930 . S
H947 C960 0.930 . S
H948 C964 0.959 . S
H949 C964 0.959 . S
H950 C964 0.966 . S
H951 C965 0.960 . S
H952 C965 0.961 . S
H953 C965 0.959 . S
H954 C968 0.929 . S
H955 C969 0.931 . S
H956 C971 0.930 . S
C957 H945 0.930 . S
C957 C958 1.399 . S
C957 C962 1.399 . S
C958 C957 1.399 . S
C958 C959 1.376 . S
C959 H946 0.930 . S
C959 C958 1.376 . S
C959 C960 1.388 . S
C960 H947 0.930 . S
C960 C959 1.388 . S
C960 C961 1.390 . S
C961 C960 1.390 . S
C961 C962 1.394 . S
C961 C967 1.465 . S
C962 C957 1.399 . S
C962 C961 1.394 . S
C962 C963 1.516 . S
C963 C962 1.516 . S
C963 C964 1.502 . S
C963 C965 1.561 . S
C963 C966 1.526 . S
C964 H948 0.959 . S
C964 H949 0.959 . S
C964 H950 0.966 . S
C964 C963 1.502 . S
C965 H951 0.960 . S
C965 H952 0.961 . S
C965 H953 0.959 . S
C965 C963 1.561 . S
C966 C963 1.526 . S
C966 C967 1.396 . S
C966 C971 1.390 . S
C967 C961 1.465 . S
C967 C966 1.396 . S
C967 C968 1.399 . S
C968 H954 0.929 . S
C968 C967 1.399 . S
C968 C969 1.385 . S
C969 H955 0.931 . S
C969 C968 1.385 . S
C969 C970 1.389 . S
C970 C969 1.389 . S
C970 C971 1.387 . S
C971 H956 0.930 . S
C971 C966 1.390 . S
C971 C970 1.387 . S
H972 C984 0.930 . S
H973 C986 0.930 1_455 S
H974 C987 0.930 . S
H975 C991 0.959 . S
H976 C991 0.959 . S
H977 C991 0.961 . S
H978 C992 0.960 . S
H979 C992 0.961 . S
H980 C992 0.959 1_455 S
H981 C995 0.929 . S
H982 C996 0.931 . S
H983 C998 0.930 . S
C984 H972 0.930 . S
C984 C985 1.399 . S
C984 C989 1.399 . S
C985 C984 1.399 . S
C985 C986 1.376 . S
C986 H973 0.930 1_655 S
C986 C985 1.376 . S
C986 C987 1.388 1_655 S
C987 H974 0.930 . S
C987 C986 1.388 1_455 S
C987 C988 1.390 1_455 S
C988 C987 1.390 1_655 S
C988 C989 1.394 . S
C988 C994 1.465 . S
C989 C984 1.399 . S
C989 C988 1.394 . S
C989 C990 1.516 . S
C990 C989 1.516 . S
C990 C991 1.502 . S
C990 C992 1.561 . S
C990 C993 1.526 . S
C991 H975 0.959 . S
C991 H976 0.959 . S
C991 H977 0.961 . S
C991 C990 1.502 . S
C992 H978 0.960 . S
C992 H979 0.961 . S
C992 H980 0.959 1_655 S
C992 C990 1.561 . S
C993 C990 1.526 . S
C993 C994 1.396 . S
C993 C998 1.390 . S
C994 C988 1.465 . S
C994 C993 1.396 . S
C994 C995 1.399 1_655 S
C995 H981 0.929 . S
C995 C994 1.399 1_455 S
C995 C996 1.385 . S
C996 H982 0.931 . S
C996 C995 1.385 . S
C996 C997 1.389 1_455 S
C997 C996 1.389 1_655 S
C997 C998 1.387 . S
C998 H983 0.930 . S
C998 C993 1.390 . S
C998 C997 1.387 . S
H999 C1011 0.930 . S
H1000 C1013 0.930 . S
H1001 C1014 0.930 . S
H1002 C1018 0.959 . S
H1003 C1018 0.959 . S
H1004 C1018 0.961 . S
H1005 C1019 0.960 . S
H1006 C1019 0.961 . S
H1007 C1019 0.959 . S
H1008 C1022 0.929 . S
H1009 C1023 0.931 . S
H1010 C1025 0.930 . S
C1011 H999 0.930 . S
C1011 C1012 1.399 . S
C1011 C1016 1.399 . S
C1012 C1011 1.399 . S
C1012 C1013 1.376 1_565 S
C1013 H1000 0.930 . S
C1013 C1012 1.376 1_545 S
C1013 C1014 1.388 . S
C1014 H1001 0.930 . S
C1014 C1013 1.388 . S
C1014 C1015 1.390 . S
C1015 C1014 1.390 . S
C1015 C1016 1.394 1_545 S
C1015 C1021 1.465 . S
C1016 C1011 1.399 . S
C1016 C1015 1.394 1_565 S
C1016 C1017 1.516 . S
C1017 C1016 1.516 . S
C1017 C1018 1.502 . S
C1017 C1019 1.561 . S
C1017 C1020 1.526 . S
C1018 H1002 0.959 . S
C1018 H1003 0.959 . S
C1018 H1004 0.961 . S
C1018 C1017 1.502 . S
C1019 H1005 0.960 . S
C1019 H1006 0.961 . S
C1019 H1007 0.959 . S
C1019 C1017 1.561 . S
C1020 C1017 1.526 . S
C1020 C1021 1.396 1_565 S
C1020 C1025 1.390 . S
C1021 C1015 1.465 . S
C1021 C1020 1.396 1_545 S
C1021 C1022 1.399 . S
C1022 H1008 0.929 . S
C1022 C1021 1.399 . S
C1022 C1023 1.385 . S
C1023 H1009 0.931 . S
C1023 C1022 1.385 . S
C1023 C1024 1.389 1_545 S
C1024 C1023 1.389 1_565 S
C1024 C1025 1.387 . S
C1025 H1010 0.930 . S
C1025 C1020 1.390 . S
C1025 C1024 1.387 . S
H1026 C1038 0.930 . S
H1027 C1040 0.930 . S
H1028 C1041 0.930 . S
H1029 C1045 0.959 . S
H1030 C1045 0.959 . S
H1031 C1045 0.961 . S
H1032 C1046 0.960 . S
H1033 C1046 0.961 . S
H1034 C1046 0.959 . S
H1035 C1049 0.929 . S
H1036 C1050 0.931 . S
H1037 C1052 0.930 . S
C1038 H1026 0.930 . S
C1038 C1039 1.399 . S
C1038 C1043 1.399 . S
C1039 C1038 1.399 . S
C1039 C1040 1.376 . S
C1040 H1027 0.930 . S
C1040 C1039 1.376 . S
C1040 C1041 1.388 . S
C1041 H1028 0.930 . S
C1041 C1040 1.388 . S
C1041 C1042 1.390 . S
C1042 C1041 1.390 . S
C1042 C1043 1.394 . S
C1042 C1048 1.465 . S
C1043 C1038 1.399 . S
C1043 C1042 1.394 . S
C1043 C1044 1.516 . S
C1044 C1043 1.516 . S
C1044 C1045 1.502 . S
C1044 C1046 1.561 . S
C1044 C1047 1.526 . S
C1045 H1029 0.959 . S
C1045 H1030 0.959 . S
C1045 H1031 0.961 . S
C1045 C1044 1.502 . S
C1046 H1032 0.960 . S
C1046 H1033 0.961 . S
C1046 H1034 0.959 . S
C1046 C1044 1.561 . S
C1047 C1044 1.526 . S
C1047 C1048 1.396 . S
C1047 C1052 1.390 . S
C1048 C1042 1.465 . S
C1048 C1047 1.396 . S
C1048 C1049 1.399 . S
C1049 H1035 0.929 . S
C1049 C1048 1.399 . S
C1049 C1050 1.385 . S
C1050 H1036 0.931 . S
C1050 C1049 1.385 . S
C1050 C1051 1.389 . S
C1051 C1050 1.389 . S
C1051 C1052 1.387 . S
C1052 H1037 0.930 . S
C1052 C1047 1.390 . S
C1052 C1051 1.387 . S
H1053 C1065 0.930 . S
H1054 C1067 0.930 . S
H1055 C1068 0.930 . S
H1056 C1072 0.959 . S
H1057 C1072 0.959 . S
H1058 C1072 0.961 . S
H1059 C1073 0.960 . S
H1060 C1073 0.961 . S
H1061 C1073 0.959 . S
H1062 C1076 0.929 . S
H1063 C1077 0.931 . S
H1064 C1079 0.930 . S
C1065 H1053 0.930 . S
C1065 C1066 1.399 . S
C1065 C1070 1.399 . S
C1066 C1065 1.399 . S
C1066 C1067 1.376 . S
C1067 H1054 0.930 . S
C1067 C1066 1.376 . S
C1067 C1068 1.388 . S
C1068 H1055 0.930 . S
C1068 C1067 1.388 . S
C1068 C1069 1.390 . S
C1069 C1068 1.390 . S
C1069 C1070 1.394 . S
C1069 C1075 1.465 . S
C1070 C1065 1.399 . S
C1070 C1069 1.394 . S
C1070 C1071 1.516 . S
C1071 C1070 1.516 . S
C1071 C1072 1.502 . S
C1071 C1073 1.561 . S
C1071 C1074 1.526 . S
C1072 H1056 0.959 . S
C1072 H1057 0.959 . S
C1072 H1058 0.961 . S
C1072 C1071 1.502 . S
C1073 H1059 0.960 . S
C1073 H1060 0.961 . S
C1073 H1061 0.959 . S
C1073 C1071 1.561 . S
C1074 C1071 1.526 . S
C1074 C1075 1.396 . S
C1074 C1079 1.390 . S
C1075 C1069 1.465 . S
C1075 C1074 1.396 . S
C1075 C1076 1.399 . S
C1076 H1062 0.929 . S
C1076 C1075 1.399 . S
C1076 C1077 1.385 . S
C1077 H1063 0.931 . S
C1077 C1076 1.385 . S
C1077 C1078 1.389 . S
C1078 C1077 1.389 . S
C1078 C1079 1.387 . S
C1079 H1064 0.930 . S
C1079 C1074 1.390 . S
C1079 C1078 1.387 . S
C445 C76 1.839 . S
C457 C159 2.020 . S
C484 C236 2.043 . S
C472 C88 1.826 . S
C511 C327 2.001 . S
C499 C52 1.911 . S
C538 C411 2.022 . S
C526 C64 1.816 . S
C565 C170 2.012 . S
C553 C28 1.922 . S
C580 C40 1.904 . S
C592 C247 2.027 . S
C607 C4 1.843 . S
C619 C338 2.005 . S
C634 C16 1.878 . S
C646 C422 2.024 1_655 S
C673 C154 0.523 1_455 S
C661 C69 0.564 . S
C700 C249 0.711 . S
C688 C81 0.635 . S
C727 C322 0.628 . S
C715 C93 0.654 . S
C742 C57 0.606 . S
C754 C406 0.495 . S
C769 C21 0.648 . S
C781 C165 0.597 . S
C808 C238 0.658 . S
C796 C33 0.540 . S
C835 C333 0.714 1_554 S
C823 C45 0.648 . S
C850 C9 0.617 . S
C862 C417 0.557 . S
C877 C66 1.898 . S
C889 C163 2.127 . S
C904 C78 1.980 . S
C916 C254 2.142 . S
C943 C331 2.141 . S
C931 C90 1.913 . S
C970 C415 2.125 . S
C958 C54 1.987 . S
C985 C18 1.890 . S
C997 C152 2.128 . S
C1024 C243 2.124 1_565 S
C1012 C30 1.929 . S
C1051 C320 2.143 . S
C1039 C42 1.889 . S
C1066 C6 1.956 . S
C1078 C404 2.135 . S
