# Generated by pormake.
# Topology ctn, (3,4)-cn, num edge types: 1
# Building blocks:
#     Node 0, Type 0, BuildingBlock: KAKCAD_clean_linker_0, # of connection points: 3
#     Node 1, Type 0, BuildingBlock: KAKCAD_clean_linker_0, # of connection points: 3
#     Node 2, Type 0, BuildingBlock: KAKCAD_clean_linker_0, # of connection points: 3
#     Node 3, Type 0, BuildingBlock: KAKCAD_clean_linker_0, # of connection points: 3
#     Node 4, Type 0, BuildingBlock: KAKCAD_clean_linker_0, # of connection points: 3
#     Node 5, Type 0, BuildingBlock: KAKCAD_clean_linker_0, # of connection points: 3
#     Node 6, Type 0, BuildingBlock: KAKCAD_clean_linker_0, # of connection points: 3
#     Node 7, Type 0, BuildingBlock: KAKCAD_clean_linker_0, # of connection points: 3
#     Node 8, Type 0, BuildingBlock: KAKCAD_clean_linker_0, # of connection points: 3
#     Node 9, Type 0, BuildingBlock: KAKCAD_clean_linker_0, # of connection points: 3
#     Node 10, Type 0, BuildingBlock: KAKCAD_clean_linker_0, # of connection points: 3
#     Node 11, Type 0, BuildingBlock: KAKCAD_clean_linker_0, # of connection points: 3
#     Node 12, Type 0, BuildingBlock: KAKCAD_clean_linker_0, # of connection points: 3
#     Node 13, Type 0, BuildingBlock: KAKCAD_clean_linker_0, # of connection points: 3
#     Node 14, Type 0, BuildingBlock: KAKCAD_clean_linker_0, # of connection points: 3
#     Node 15, Type 0, BuildingBlock: KAKCAD_clean_linker_0, # of connection points: 3
#     Node 16, Type 1, BuildingBlock: AZAVOO_clean_sbu_0, # of connection points: 4
#     Node 17, Type 1, BuildingBlock: AZAVOO_clean_sbu_0, # of connection points: 4
#     Node 18, Type 1, BuildingBlock: AZAVOO_clean_sbu_0, # of connection points: 4
#     Node 19, Type 1, BuildingBlock: AZAVOO_clean_sbu_0, # of connection points: 4
#     Node 20, Type 1, BuildingBlock: AZAVOO_clean_sbu_0, # of connection points: 4
#     Node 21, Type 1, BuildingBlock: AZAVOO_clean_sbu_0, # of connection points: 4
#     Node 22, Type 1, BuildingBlock: AZAVOO_clean_sbu_0, # of connection points: 4
#     Node 23, Type 1, BuildingBlock: AZAVOO_clean_sbu_0, # of connection points: 4
#     Node 24, Type 1, BuildingBlock: AZAVOO_clean_sbu_0, # of connection points: 4
#     Node 25, Type 1, BuildingBlock: AZAVOO_clean_sbu_0, # of connection points: 4
#     Node 26, Type 1, BuildingBlock: AZAVOO_clean_sbu_0, # of connection points: 4
#     Node 27, Type 1, BuildingBlock: AZAVOO_clean_sbu_0, # of connection points: 4
#     Edge 28, Type (0, 1), BuildingBlock: KIFKEQ_clean_linker_1, # of connection points: 2
#     Edge 29, Type (0, 1), BuildingBlock: KIFKEQ_clean_linker_1, # of connection points: 2
#     Edge 30, Type (0, 1), BuildingBlock: KIFKEQ_clean_linker_1, # of connection points: 2
#     Edge 31, Type (0, 1), BuildingBlock: KIFKEQ_clean_linker_1, # of connection points: 2
#     Edge 32, Type (0, 1), BuildingBlock: KIFKEQ_clean_linker_1, # of connection points: 2
#     Edge 33, Type (0, 1), BuildingBlock: KIFKEQ_clean_linker_1, # of connection points: 2
#     Edge 34, Type (0, 1), BuildingBlock: KIFKEQ_clean_linker_1, # of connection points: 2
#     Edge 35, Type (0, 1), BuildingBlock: KIFKEQ_clean_linker_1, # of connection points: 2
#     Edge 36, Type (0, 1), BuildingBlock: KIFKEQ_clean_linker_1, # of connection points: 2
#     Edge 37, Type (0, 1), BuildingBlock: KIFKEQ_clean_linker_1, # of connection points: 2
#     Edge 38, Type (0, 1), BuildingBlock: KIFKEQ_clean_linker_1, # of connection points: 2
#     Edge 39, Type (0, 1), BuildingBlock: KIFKEQ_clean_linker_1, # of connection points: 2
#     Edge 40, Type (0, 1), BuildingBlock: KIFKEQ_clean_linker_1, # of connection points: 2
#     Edge 41, Type (0, 1), BuildingBlock: KIFKEQ_clean_linker_1, # of connection points: 2
#     Edge 42, Type (0, 1), BuildingBlock: KIFKEQ_clean_linker_1, # of connection points: 2
#     Edge 43, Type (0, 1), BuildingBlock: KIFKEQ_clean_linker_1, # of connection points: 2
#     Edge 44, Type (0, 1), BuildingBlock: KIFKEQ_clean_linker_1, # of connection points: 2
#     Edge 45, Type (0, 1), BuildingBlock: KIFKEQ_clean_linker_1, # of connection points: 2
#     Edge 46, Type (0, 1), BuildingBlock: KIFKEQ_clean_linker_1, # of connection points: 2
#     Edge 47, Type (0, 1), BuildingBlock: KIFKEQ_clean_linker_1, # of connection points: 2
#     Edge 48, Type (0, 1), BuildingBlock: KIFKEQ_clean_linker_1, # of connection points: 2
#     Edge 49, Type (0, 1), BuildingBlock: KIFKEQ_clean_linker_1, # of connection points: 2
#     Edge 50, Type (0, 1), BuildingBlock: KIFKEQ_clean_linker_1, # of connection points: 2
#     Edge 51, Type (0, 1), BuildingBlock: KIFKEQ_clean_linker_1, # of connection points: 2
#     Edge 52, Type (0, 1), BuildingBlock: KIFKEQ_clean_linker_1, # of connection points: 2
#     Edge 53, Type (0, 1), BuildingBlock: KIFKEQ_clean_linker_1, # of connection points: 2
#     Edge 54, Type (0, 1), BuildingBlock: KIFKEQ_clean_linker_1, # of connection points: 2
#     Edge 55, Type (0, 1), BuildingBlock: KIFKEQ_clean_linker_1, # of connection points: 2
#     Edge 56, Type (0, 1), BuildingBlock: KIFKEQ_clean_linker_1, # of connection points: 2
#     Edge 57, Type (0, 1), BuildingBlock: KIFKEQ_clean_linker_1, # of connection points: 2
#     Edge 58, Type (0, 1), BuildingBlock: KIFKEQ_clean_linker_1, # of connection points: 2
#     Edge 59, Type (0, 1), BuildingBlock: KIFKEQ_clean_linker_1, # of connection points: 2
#     Edge 60, Type (0, 1), BuildingBlock: KIFKEQ_clean_linker_1, # of connection points: 2
#     Edge 61, Type (0, 1), BuildingBlock: KIFKEQ_clean_linker_1, # of connection points: 2
#     Edge 62, Type (0, 1), BuildingBlock: KIFKEQ_clean_linker_1, # of connection points: 2
#     Edge 63, Type (0, 1), BuildingBlock: KIFKEQ_clean_linker_1, # of connection points: 2
#     Edge 64, Type (0, 1), BuildingBlock: KIFKEQ_clean_linker_1, # of connection points: 2
#     Edge 65, Type (0, 1), BuildingBlock: KIFKEQ_clean_linker_1, # of connection points: 2
#     Edge 66, Type (0, 1), BuildingBlock: KIFKEQ_clean_linker_1, # of connection points: 2
#     Edge 67, Type (0, 1), BuildingBlock: KIFKEQ_clean_linker_1, # of connection points: 2
#     Edge 68, Type (0, 1), BuildingBlock: KIFKEQ_clean_linker_1, # of connection points: 2
#     Edge 69, Type (0, 1), BuildingBlock: KIFKEQ_clean_linker_1, # of connection points: 2
#     Edge 70, Type (0, 1), BuildingBlock: KIFKEQ_clean_linker_1, # of connection points: 2
#     Edge 71, Type (0, 1), BuildingBlock: KIFKEQ_clean_linker_1, # of connection points: 2
#     Edge 72, Type (0, 1), BuildingBlock: KIFKEQ_clean_linker_1, # of connection points: 2
#     Edge 73, Type (0, 1), BuildingBlock: KIFKEQ_clean_linker_1, # of connection points: 2
#     Edge 74, Type (0, 1), BuildingBlock: KIFKEQ_clean_linker_1, # of connection points: 2
#     Edge 75, Type (0, 1), BuildingBlock: KIFKEQ_clean_linker_1, # of connection points: 2
# Relax obj value: 0.001
# Max RMSD: 0.042
# Mean RMSD: 0.022
data_MOF--net-ctn--node1-AZAVOO_clean_sbu_0--node2-KAKCAD_clean_linker_0--edge1-KIFKEQ_clean_linker_1
_symmetry_space_group_name_H-M    P1
_symmetry_Int_Tables_number       1
_symmetry_cell_setting            triclinic
loop_
_symmetry_equiv_pos_as_xyz
'x, y, z'
_cell_length_a     67.583087
_cell_length_b     68.660877
_cell_length_c     68.563522
_cell_angle_alpha  90.215676
_cell_angle_beta   92.973585
_cell_angle_gamma 93.031345
loop_
_atom_site_label
_atom_site_type_symbol
_atom_site_fract_x
_atom_site_fract_y
_atom_site_fract_z
_atom_type_partial_charge
C0 C 0.03138 0.07291 0.96194 0.0
C1 C 0.02597 0.09041 0.97037 0.0
C2 C 0.03366 0.05628 0.97342 0.0
C3 C 0.03082 0.0569 0.99361 0.0
C4 C 0.02545 0.07449 0.00194 0.0
C5 C 0.02293 0.09098 0.99045 0.0
C6 C 0.03396 0.03955 0.00617 0.0
C7 C 0.04959 0.02734 0.0031 0.0
C8 C 0.0536 0.01198 0.01597 0.0
C9 C 0.04168 0.00873 0.03198 0.0
C10 C 0.02601 0.02076 0.03522 0.0
C11 C 0.02208 0.03588 0.02212 0.0
C12 C 0.01456 0.01858 0.05302 0.0
C13 C 0.00622 1.00035 0.05848 0.0
C14 C 0.01203 0.03498 0.06476 0.0
C15 C 1.0015 0.03321 0.08169 0.0
C16 C 0.99307 0.01504 0.08714 0.0
C17 C 0.07112 1.00026 0.01341 0.0
C18 C 0.07482 0.99249 0.99503 0.0
C19 C 0.08466 0.99737 0.02925 0.0
C20 C 0.10169 0.98714 0.02672 0.0
C21 C 0.10542 0.97939 0.00835 0.0
C22 C 0.09173 0.98201 0.99256 0.0
C23 C 0.99539 0.99863 0.07532 0.0
H24 H 0.03373 0.07208 0.94646 0.0
H25 H 0.03758 0.04294 0.96646 0.0
H26 H 0.02364 0.07574 0.01749 0.0
H27 H 0.01914 0.10438 0.99741 0.0
H28 H 0.05932 0.03036 0.99128 0.0
H29 H 0.00976 0.04494 0.02452 0.0
H30 H 0.04493 0.99717 0.0422 0.0
H31 H 0.00793 0.98751 0.04962 0.0
H32 H 0.01844 0.04918 0.06098 0.0
H33 H 0.99982 0.04611 0.09047 0.0
H34 H 0.06459 0.99449 0.9826 0.0
H35 H 0.08229 0.00337 0.04352 0.0
H36 H 0.9891 0.98444 0.07929 0.0
H37 H 0.09428 0.97624 0.97824 0.0
H38 H 0.11189 0.98517 0.03918 0.0
C39 C 0.36863 0.7521 0.27027 0.0
C40 C 0.37715 0.73605 0.27952 0.0
C41 C 0.35154 0.74952 0.25793 0.0
C42 C 0.34267 0.73078 0.25421 0.0
C43 C 0.35143 0.71471 0.26314 0.0
C44 C 0.36825 0.71732 0.27577 0.0
C45 C 0.32439 0.7279 0.24112 0.0
C46 C 0.32137 0.73973 0.22459 0.0
C47 C 0.30452 0.73651 0.2119 0.0
C48 C 0.29048 0.72145 0.21583 0.0
C49 C 0.29319 0.70953 0.23218 0.0
C50 C 0.31004 0.71291 0.24481 0.0
C51 C 0.27893 0.69289 0.23544 0.0
C52 C 0.25842 0.6955 0.23504 0.0
C53 C 0.28578 0.6741 0.23824 0.0
C54 C 0.27236 0.65814 0.24019 0.0
C55 C 0.25186 0.6607 0.23969 0.0
C56 C 0.30183 0.74831 0.19404 0.0
C57 C 0.30267 0.76876 0.19501 0.0
C58 C 0.29785 0.73902 0.1759 0.0
C59 C 0.29437 0.74993 0.15908 0.0
C60 C 0.29446 0.77042 0.16002 0.0
C61 C 0.2989 0.77973 0.17818 0.0
C62 C 0.245 0.67955 0.23735 0.0
H63 H 0.37516 0.76673 0.27249 0.0
H64 H 0.34517 0.7623 0.25152 0.0
H65 H 0.34538 0.69999 0.26038 0.0
H66 H 0.37404 0.70458 0.2828 0.0
H67 H 0.33245 0.75098 0.22109 0.0
H68 H 0.31179 0.70387 0.25764 0.0
H69 H 0.27757 0.71877 0.20593 0.0
H70 H 0.2528 0.70987 0.23295 0.0
H71 H 0.3015 0.6717 0.23845 0.0
H72 H 0.27802 0.64376 0.24214 0.0
H73 H 0.30566 0.77623 0.20888 0.0
H74 H 0.29745 0.72326 0.17474 0.0
H75 H 0.22925 0.68187 0.23687 0.0
H76 H 0.29892 0.79544 0.17953 0.0
H77 H 0.29157 0.74225 0.14531 0.0
C78 C 0.01306 0.4954 0.11585 0.0
C79 C 0.03316 0.49152 0.11414 0.0
C80 C 0.9992 0.49197 0.10016 0.0
C81 C 0.00505 0.48492 0.08215 0.0
C82 C 0.0252 0.48135 0.08037 0.0
C83 C 0.03895 0.48434 0.09615 0.0
C84 C 0.99029 0.48108 0.06536 0.0
C85 C 0.9738 0.49266 0.06242 0.0
C86 C 0.95988 0.48899 0.04668 0.0
C87 C 0.96267 0.47369 0.03361 0.0
C88 C 0.97906 0.46207 0.03618 0.0
C89 C 0.99264 0.46574 0.05213 0.0
C90 C 0.982 0.44597 0.0223 0.0
C91 C 0.9663 0.43253 0.01684 0.0
C92 C 1.00063 0.44382 0.01464 0.0
C93 C 0.00356 0.42844 0.00186 0.0
C94 C 0.98797 0.4147 0.99663 0.0
C95 C 0.94234 0.50104 0.04392 0.0
C96 C 0.93095 0.50532 0.05981 0.0
C97 C 0.93667 0.50809 0.02534 0.0
C98 C 0.91998 0.5192 0.02272 0.0
C99 C 0.90849 0.52333 0.03859 0.0
C100 C 0.91416 0.51626 0.05716 0.0
C101 C 0.96927 0.417 0.00424 0.0
H102 H 0.00796 0.50123 0.12927 0.0
H103 H 0.98382 0.49467 0.10232 0.0
H104 H 0.0305 0.47629 0.06671 0.0
H105 H 0.05413 0.48076 0.0942 0.0
H106 H 0.97194 0.50487 0.07208 0.0
H107 H 0.00481 0.45621 0.05442 0.0
H108 H 0.95204 0.47077 0.02143 0.0
H109 H 0.95183 0.43373 0.0227 0.0
H110 H 0.01293 0.45414 0.01841 0.0
H111 H 0.01805 0.4274 0.99603 0.0
H112 H 0.93487 0.49996 0.07427 0.0
H113 H 0.94524 0.50514 0.01284 0.0
H114 H 0.957 0.40656 0.00088 0.0
H115 H 0.90572 0.51938 0.0697 0.0
H116 H 0.91592 0.52436 0.00822 0.0
C117 C 0.71008 0.76527 0.1641 0.0
C118 C 0.72896 0.75852 0.16097 0.0
C119 C 0.70768 0.77967 0.17815 0.0
C120 C 0.72409 0.78759 0.18955 0.0
C121 C 0.74293 0.78065 0.18658 0.0
C122 C 0.74535 0.76642 0.17242 0.0
C123 C 0.72165 0.80294 0.20454 0.0
C124 C 0.70496 0.80227 0.21598 0.0
C125 C 0.70296 0.81631 0.23058 0.0
C126 C 0.71784 0.8312 0.23378 0.0
C127 C 0.73454 0.83229 0.22237 0.0
C128 C 0.73623 0.81817 0.20773 0.0
C129 C 0.75033 0.84803 0.22577 0.0
C130 C 0.74546 0.86738 0.2291 0.0
C131 C 0.77044 0.84381 0.22553 0.0
C132 C 0.78533 0.85859 0.22838 0.0
C133 C 0.78049 0.87797 0.23155 0.0
C134 C 0.68555 0.81501 0.24286 0.0
C135 C 0.66627 0.81304 0.23421 0.0
C136 C 0.68816 0.81515 0.26329 0.0
C137 C 0.67179 0.81279 0.27488 0.0
C138 C 0.6524 0.81055 0.26629 0.0
C139 C 0.64987 0.81101 0.24578 0.0
C140 C 0.76037 0.88219 0.23192 0.0
H141 H 0.69707 0.75939 0.15575 0.0
H142 H 0.69298 0.78476 0.17988 0.0
H143 H 0.75587 0.78614 0.19528 0.0
H144 H 0.76017 0.76184 0.17027 0.0
H145 H 0.69378 0.79042 0.21403 0.0
H146 H 0.74882 0.81926 0.19856 0.0
H147 H 0.71643 0.84188 0.24525 0.0
H148 H 0.7301 0.87114 0.22923 0.0
H149 H 0.7747 0.82902 0.22322 0.0
H150 H 0.80066 0.85486 0.22779 0.0
H151 H 0.66389 0.81311 0.21846 0.0
H152 H 0.70291 0.81646 0.2703 0.0
H153 H 0.75614 0.89694 0.2345 0.0
H154 H 0.63521 0.80975 0.2386 0.0
H155 H 0.67446 0.81213 0.29056 0.0
C156 C 0.99104 0.99806 0.43284 0.0
C157 C 1.0 0.00097 0.41492 0.0
C158 C 0.00253 0.99417 0.44983 0.0
C159 C 0.02323 0.99326 0.44932 0.0
C160 C 0.03216 0.99604 0.43144 0.0
C161 C 0.0207 0.99973 0.41446 0.0
C162 C 0.03557 0.98963 0.46738 0.0
C163 C 0.03008 0.97454 0.48014 0.0
C164 C 0.04185 0.97086 0.49718 0.0
C165 C 0.05902 0.98295 0.50152 0.0
C166 C 0.06487 0.99778 0.48869 0.0
C167 C 0.05316 0.00099 0.47165 0.0
C168 C 0.08346 0.00976 0.49281 0.0
C169 C 0.0861 0.02114 0.50984 0.0
C170 C 0.09852 0.01013 0.47947 0.0
C171 C 0.11594 0.02177 0.48305 0.0
C172 C 0.11852 0.03369 0.49987 0.0
C173 C 0.03684 0.95371 0.50968 0.0
C174 C 0.01696 0.94759 0.51237 0.0
C175 C 0.05197 0.94264 0.51816 0.0
C176 C 0.04734 0.92566 0.52853 0.0
C177 C 0.02749 0.91917 0.53048 0.0
C178 C 0.01235 0.93043 0.52252 0.0
C179 C 0.10333 0.03314 0.51324 0.0
H180 H 0.97519 0.99909 0.43383 0.0
H181 H 0.99527 0.99224 0.46346 0.0
H182 H 0.04804 0.99509 0.43053 0.0
H183 H 0.02811 0.00135 0.40089 0.0
H184 H 0.01705 0.96518 0.47628 0.0
H185 H 0.05759 0.01263 0.46189 0.0
H186 H 0.06814 0.98063 0.5147 0.0
H187 H 0.07458 0.02115 0.52026 0.0
H188 H 0.09684 0.00128 0.4663 0.0
H189 H 0.12738 0.02134 0.4726 0.0
H190 H 0.0049 0.95591 0.50645 0.0
H191 H 0.06744 0.94661 0.51615 0.0
H192 H 0.10443 0.04233 0.52615 0.0
H193 H 0.99691 0.92585 0.52397 0.0
H194 H 0.05932 0.91712 0.53429 0.0
C195 C 0.15066 0.69792 0.71965 0.0
C196 C 0.14572 0.71686 0.71419 0.0
C197 C 0.16588 0.69507 0.73381 0.0
C198 C 0.17652 0.7111 0.74285 0.0
C199 C 0.17174 0.73003 0.73721 0.0
C200 C 0.15653 0.73287 0.72307 0.0
C201 C 0.19217 0.70813 0.75849 0.0
C202 C 0.20574 0.6934 0.75677 0.0
C203 C 0.22045 0.69049 0.77164 0.0
C204 C 0.22121 0.70238 0.78843 0.0
C205 C 0.20796 0.71725 0.79029 0.0
C206 C 0.19353 0.72006 0.77527 0.0
C207 C 0.2095 0.73001 0.80786 0.0
C208 C 0.21147 0.72186 0.82656 0.0
C209 C 0.20985 0.7504 0.80604 0.0
C210 C 0.21287 0.76242 0.82257 0.0
C211 C 0.21544 0.75428 0.84127 0.0
C212 C 0.23534 0.67543 0.76958 0.0
C213 C 0.22989 0.65707 0.76117 0.0
C214 C 0.25524 0.67934 0.77617 0.0
C215 C 0.26925 0.66524 0.77457 0.0
C216 C 0.26381 0.64692 0.76619 0.0
C217 C 0.24398 0.643 0.75944 0.0
C218 C 0.21428 0.73384 0.84307 0.0
H219 H 0.14248 0.68527 0.71328 0.0
H220 H 0.169 0.68031 0.738 0.0
H221 H 0.17986 0.74269 0.74363 0.0
H222 H 0.15337 0.74764 0.71895 0.0
H223 H 0.2052 0.68459 0.74359 0.0
H224 H 0.18303 0.73127 0.77692 0.0
H225 H 0.2323 0.7002 0.8001 0.0
H226 H 0.21093 0.70618 0.8284 0.0
H227 H 0.2085 0.75705 0.79176 0.0
H228 H 0.21386 0.77807 0.8206 0.0
H229 H 0.21467 0.65346 0.75617 0.0
H230 H 0.26012 0.69344 0.78231 0.0
H231 H 0.2157 0.72704 0.85727 0.0
H232 H 0.23931 0.62896 0.75302 0.0
H233 H 0.28448 0.66887 0.77954 0.0
C234 C 0.98325 0.58814 0.48671 0.0
C235 C 0.98112 0.58679 0.50695 0.0
C236 C 0.97953 0.57174 0.47465 0.0
C237 C 0.97371 0.55359 0.48257 0.0
C238 C 0.97199 0.5522 0.50289 0.0
C239 C 0.97557 0.56862 0.51492 0.0
C240 C 0.9691 0.53623 0.46972 0.0
C241 C 0.98056 0.53272 0.45366 0.0
C242 C 0.97628 0.51628 0.44159 0.0
C243 C 0.96037 0.5032 0.44574 0.0
C244 C 0.9486 0.50656 0.4616 0.0
C245 C 0.95306 0.52313 0.47344 0.0
C246 C 0.93154 0.4929 0.46583 0.0
C247 C 0.91872 0.48509 0.45064 0.0
C248 C 0.92784 0.48774 0.48519 0.0
C249 C 0.91172 0.4751 0.48925 0.0
C250 C 0.89891 0.46725 0.47407 0.0
C251 C 0.98841 0.51288 0.42459 0.0
C252 C 0.99256 0.52807 0.41151 0.0
C253 C 0.996 0.49454 0.42137 0.0
C254 C 0.00776 0.49154 0.40553 0.0
C255 C 0.01188 0.50675 0.39243 0.0
C256 C 0.00406 0.52501 0.39554 0.0
C257 C 0.90258 0.47243 0.45471 0.0
H258 H 0.98727 0.60201 0.48011 0.0
H259 H 0.98075 0.57342 0.45905 0.0
H260 H 0.96793 0.53838 0.50956 0.0
H261 H 0.97409 0.56706 0.5305 0.0
H262 H 0.99314 0.54253 0.45076 0.0
H263 H 0.94367 0.5261 0.48532 0.0
H264 H 0.95713 0.49045 0.43653 0.0
H265 H 0.92102 0.48893 0.43558 0.0
H266 H 0.93753 0.49335 0.49723 0.0
H267 H 0.90922 0.47158 0.50434 0.0
H268 H 0.98679 0.54232 0.41358 0.0
H269 H 0.9931 0.48261 0.43129 0.0
H270 H 0.89314 0.46648 0.44265 0.0
H271 H 0.00715 0.53704 0.38579 0.0
H272 H 0.01354 0.47731 0.40343 0.0
C273 C 0.80647 0.73685 0.84355 0.0
C274 C 0.78724 0.73162 0.84928 0.0
C275 C 0.80923 0.74866 0.82718 0.0
C276 C 0.79281 0.75536 0.81619 0.0
C277 C 0.77362 0.74939 0.82151 0.0
C278 C 0.77088 0.73773 0.83786 0.0
C279 C 0.79546 0.76905 0.79962 0.0
C280 C 0.81022 0.76653 0.78625 0.0
C281 C 0.81226 0.7792 0.77032 0.0
C282 C 0.79925 0.79445 0.76786 0.0
C283 C 0.78456 0.79741 0.78121 0.0
C284 C 0.78297 0.7847 0.79713 0.0
C285 C 0.7709 0.81374 0.77853 0.0
C286 C 0.77759 0.83162 0.77057 0.0
C287 C 0.751 0.81158 0.7838 0.0
C288 C 0.73823 0.82687 0.7812 0.0
C289 C 0.74495 0.84448 0.7729 0.0
C290 C 0.82787 0.77657 0.75611 0.0
C291 C 0.84722 0.77214 0.76253 0.0
C292 C 0.82363 0.77897 0.736 0.0
C293 C 0.83839 0.77729 0.72268 0.0
C294 C 0.8578 0.77302 0.72906 0.0
C295 C 0.86202 0.77041 0.74916 0.0
C296 C 0.76471 0.84671 0.7676 0.0
H297 H 0.81936 0.73245 0.85214 0.0
H298 H 0.82421 0.75307 0.82353 0.0
H299 H 0.76065 0.75387 0.8131 0.0
H300 H 0.75588 0.73361 0.8417 0.0
H301 H 0.81974 0.75437 0.78791 0.0
H302 H 0.77221 0.78719 0.80792 0.0
H303 H 0.80064 0.80406 0.75547 0.0
H304 H 0.79286 0.83412 0.76677 0.0
H305 H 0.74512 0.79797 0.78964 0.0
H306 H 0.723 0.82481 0.7853 0.0
H307 H 0.85103 0.77035 0.77793 0.0
H308 H 0.80884 0.78215 0.73051 0.0
H309 H 0.77028 0.86029 0.76138 0.0
H310 H 0.87674 0.76691 0.75457 0.0
H311 H 0.83463 0.77964 0.70735 0.0
C312 C 0.30681 0.23883 0.34491 0.0
C313 C 0.28719 0.23308 0.34897 0.0
C314 C 0.31072 0.25085 0.32896 0.0
C315 C 0.29508 0.25726 0.31666 0.0
C316 C 0.27553 0.25082 0.32033 0.0
C317 C 0.27163 0.23896 0.33633 0.0
C318 C 0.29899 0.27121 0.30053 0.0
C319 C 0.3155 0.2696 0.28906 0.0
C320 C 0.3192 0.28286 0.27392 0.0
C321 C 0.30621 0.29794 0.27037 0.0
C322 C 0.28967 0.29982 0.2817 0.0
C323 C 0.2862 0.28642 0.29671 0.0
C324 C 0.27611 0.31591 0.2781 0.0
C325 C 0.28376 0.33509 0.27554 0.0
C326 C 0.25542 0.31226 0.27751 0.0
C327 C 0.24265 0.32745 0.27434 0.0
C328 C 0.25028 0.34669 0.27183 0.0
C329 C 0.33646 0.28081 0.26162 0.0
C330 C 0.35526 0.27723 0.27017 0.0
C331 C 0.33422 0.28226 0.2412 0.0
C332 C 0.35033 0.27991 0.22956 0.0
C333 C 0.36916 0.27623 0.23806 0.0
C334 C 0.37143 0.27506 0.25855 0.0
C335 C 0.27101 0.3503 0.27254 0.0
H336 H 0.31909 0.23465 0.3545 0.0
H337 H 0.32594 0.25565 0.32669 0.0
H338 H 0.26315 0.25507 0.31091 0.0
H339 H 0.25638 0.2345 0.33892 0.0
H340 H 0.32523 0.2577 0.29157 0.0
H341 H 0.27379 0.28821 0.30583 0.0
H342 H 0.30897 0.30824 0.25876 0.0
H343 H 0.29963 0.3384 0.27622 0.0
H344 H 0.2491 0.29757 0.27925 0.0
H345 H 0.22681 0.32404 0.27358 0.0
H346 H 0.3575 0.2763 0.28589 0.0
H347 H 0.31986 0.28476 0.23416 0.0
H348 H 0.27746 0.36496 0.27108 0.0
H349 H 0.38575 0.27258 0.26567 0.0
H350 H 0.34786 0.28054 0.21385 0.0
C351 C 0.51877 0.9991 0.61285 0.0
C352 C 0.53838 0.99348 0.61135 0.0
C353 C 0.50477 0.99638 0.5972 0.0
C354 C 0.51001 0.98832 0.57939 0.0
C355 C 0.52969 0.98298 0.57779 0.0
C356 C 0.54357 0.98531 0.59357 0.0
C357 C 0.49498 0.98519 0.56272 0.0
C358 C 0.4796 0.99807 0.55954 0.0
C359 C 0.46489 0.99476 0.54441 0.0
C360 C 0.46604 0.97859 0.53196 0.0
C361 C 0.48154 0.96587 0.53453 0.0
C362 C 0.49576 0.96913 0.55002 0.0
C363 C 0.48287 0.94899 0.52116 0.0
C364 C 0.46616 0.93644 0.5166 0.0
C365 C 0.50099 0.94518 0.51312 0.0
C366 C 0.50242 0.92905 0.50087 0.0
C367 C 0.48583 0.91627 0.49663 0.0
C368 C 0.44824 0.00807 0.54182 0.0
C369 C 0.43946 0.01561 0.5582 0.0
C370 C 0.44089 0.01328 0.52307 0.0
C371 C 0.42526 0.02582 0.5208 0.0
C372 C 0.41675 0.03354 0.53721 0.0
C373 C 0.42398 0.02823 0.55592 0.0
C374 C 0.46766 0.92016 0.50455 0.0
H375 H 0.51417 0.00575 0.62609 0.0
H376 H 0.48974 1.0004 0.59923 0.0
H377 H 0.53451 0.97705 0.56429 0.0
H378 H 0.55834 0.98044 0.5918 0.0
H379 H 0.47922 0.01092 0.56868 0.0
H380 H 0.50713 0.95873 0.55243 0.0
H381 H 0.45483 0.97581 0.52026 0.0
H382 H 0.45205 0.93898 0.52269 0.0
H383 H 0.51406 0.95472 0.51629 0.0
H384 H 0.51664 0.92632 0.4951 0.0
H385 H 0.44441 0.0116 0.57285 0.0
H386 H 0.44744 0.00796 0.51013 0.0
H387 H 0.45461 0.9106 0.50142 0.0
H388 H 0.41749 0.03367 0.56886 0.0
H389 H 0.42012 0.0298 0.5062 0.0
C390 C 0.20938 0.27438 0.65651 0.0
C391 C 0.22615 0.26304 0.65857 0.0
C392 C 0.20634 0.28907 0.67008 0.0
C393 C 0.22018 0.29294 0.68573 0.0
C394 C 0.23672 0.28154 0.68805 0.0
C395 C 0.23956 0.26661 0.67477 0.0
C396 C 0.21788 0.30931 0.69928 0.0
C397 C 0.20224 0.30885 0.71193 0.0
C398 C 0.20068 0.32396 0.72563 0.0
C399 C 0.2148 0.33984 0.72602 0.0
C400 C 0.23063 0.34039 0.71347 0.0
C401 C 0.232 0.32501 0.70013 0.0
C402 C 0.24621 0.35655 0.71482 0.0
C403 C 0.24125 0.37598 0.71751 0.0
C404 C 0.2663 0.35254 0.71362 0.0
C405 C 0.28104 0.36757 0.71492 0.0
C406 C 0.27611 0.387 0.71753 0.0
C407 C 0.18528 0.3224 0.74043 0.0
C408 C 0.16622 0.31394 0.73562 0.0
C409 C 0.1899 0.32842 0.75984 0.0
C410 C 0.1761 0.32555 0.77414 0.0
C411 C 0.15737 0.3163 0.76954 0.0
C412 C 0.15246 0.31085 0.75001 0.0
C413 C 0.25605 0.39105 0.71889 0.0
H414 H 0.19885 0.27235 0.64414 0.0
H415 H 0.19352 0.29782 0.66803 0.0
H416 H 0.24747 0.28423 0.70017 0.0
H417 H 0.25234 0.25792 0.67723 0.0
H418 H 0.19188 0.29625 0.71164 0.0
H419 H 0.24402 0.32524 0.69024 0.0
H420 H 0.21378 0.35157 0.73646 0.0
H421 H 0.2259 0.37959 0.71829 0.0
H422 H 0.2707 0.33771 0.71199 0.0
H423 H 0.29639 0.36392 0.7142 0.0
H424 H 0.162 0.30939 0.72078 0.0
H425 H 0.20447 0.33477 0.76423 0.0
H426 H 0.25177 0.4059 0.72073 0.0
H427 H 0.13825 0.30357 0.74591 0.0
H428 H 0.18029 0.33029 0.78894 0.0
C429 C 0.87445 0.25181 0.76555 0.0
C430 C 0.88255 0.23578 0.77522 0.0
C431 C 0.85728 0.24934 0.75331 0.0
C432 C 0.84791 0.23073 0.7501 0.0
C433 C 0.8564 0.21463 0.75925 0.0
C434 C 0.87331 0.21714 0.77178 0.0
C435 C 0.8291 0.22816 0.73774 0.0
C436 C 0.82574 0.23984 0.72117 0.0
C437 C 0.80781 0.23781 0.70977 0.0
C438 C 0.79324 0.22369 0.71505 0.0
C439 C 0.79662 0.21143 0.73102 0.0
C440 C 0.81438 0.21394 0.74246 0.0
C441 C 0.78212 0.19515 0.73494 0.0
C442 C 0.76174 0.19821 0.73541 0.0
C443 C 0.78859 0.17614 0.73713 0.0
C444 C 0.77492 0.16042 0.7392 0.0
C445 C 0.75453 0.16341 0.73937 0.0
C446 C 0.80434 0.25007 0.69215 0.0
C447 C 0.81148 0.26972 0.6918 0.0
C448 C 0.79355 0.24226 0.67554 0.0
C449 C 0.78941 0.2539 0.65937 0.0
C450 C 0.79636 0.27349 0.6592 0.0
C451 C 0.80767 0.28127 0.6754 0.0
C452 C 0.74806 0.18247 0.73778 0.0
H453 H 0.88128 0.26635 0.76747 0.0
H454 H 0.85115 0.26215 0.74671 0.0
H455 H 0.84995 0.19999 0.75686 0.0
H456 H 0.8788 0.20442 0.7791 0.0
H457 H 0.83733 0.25016 0.71682 0.0
H458 H 0.81653 0.20486 0.75521 0.0
H459 H 0.77933 0.22189 0.7065 0.0
H460 H 0.7564 0.21275 0.73381 0.0
H461 H 0.80419 0.17336 0.73665 0.0
H462 H 0.7803 0.14588 0.74059 0.0
H463 H 0.81963 0.27634 0.70436 0.0
H464 H 0.78829 0.22709 0.67495 0.0
H465 H 0.73241 0.18513 0.73785 0.0
H466 H 0.81308 0.29641 0.67555 0.0
H467 H 0.78086 0.24757 0.64689 0.0
C468 C 0.5331 0.57486 0.46018 0.0
C469 C 0.52664 0.59215 0.46818 0.0
C470 C 0.53566 0.55845 0.47193 0.0
C471 C 0.53204 0.55909 0.49195 0.0
C472 C 0.52543 0.57642 0.49981 0.0
C473 C 0.52266 0.59267 0.48805 0.0
C474 C 0.53597 0.54225 0.50499 0.0
C475 C 0.55255 0.53111 0.50269 0.0
C476 C 0.55748 0.51666 0.51626 0.0
C477 C 0.54586 0.51357 0.5325 0.0
C478 C 0.52898 0.52433 0.53493 0.0
C479 C 0.52392 0.5382 0.52073 0.0
C480 C 0.51707 0.52185 0.5526 0.0
C481 C 0.51438 0.50356 0.56162 0.0
C482 C 0.50838 0.53802 0.56075 0.0
C483 C 0.49703 0.53589 0.5771 0.0
C484 C 0.49447 0.51769 0.58605 0.0
C485 C 0.57523 0.50527 0.51372 0.0
C486 C 0.57838 0.4967 0.49557 0.0
C487 C 0.58925 0.50309 0.52931 0.0
C488 C 0.60614 0.49265 0.52676 0.0
C489 C 0.60923 0.48397 0.50865 0.0
C490 C 0.59514 0.48604 0.49309 0.0
C491 C 0.50336 0.50155 0.57832 0.0
H492 H 0.53618 0.57405 0.44486 0.0
H493 H 0.54054 0.5453 0.46533 0.0
H494 H 0.52297 0.5777 0.51523 0.0
H495 H 0.51804 0.60591 0.49471 0.0
H496 H 0.56219 0.53422 0.49082 0.0
H497 H 0.51058 0.54607 0.52197 0.0
H498 H 0.55014 0.50291 0.54331 0.0
H499 H 0.52058 0.49071 0.55571 0.0
H500 H 0.51055 0.55247 0.55472 0.0
H501 H 0.49055 0.54861 0.58303 0.0
H502 H 0.56776 0.4981 0.48333 0.0
H503 H 0.58727 0.50968 0.54341 0.0
H504 H 0.50152 0.48736 0.58504 0.0
H505 H 0.5972 0.47958 0.47895 0.0
H506 H 0.61668 0.49114 0.53905 0.0
C507 C 0.49019 0.4893 0.93049 0.0
C508 C 0.49906 0.49418 0.91292 0.0
C509 C 0.50187 0.48708 0.94774 0.0
C510 C 0.52266 0.48975 0.94783 0.0
C511 C 0.53146 0.49492 0.93031 0.0
C512 C 0.51982 0.49715 0.91312 0.0
C513 C 0.53526 0.48682 0.96596 0.0
C514 C 0.53105 0.47109 0.97839 0.0
C515 C 0.54333 0.46772 0.99515 0.0
C516 C 0.56013 0.48039 0.99928 0.0
C517 C 0.56475 0.49605 0.98685 0.0
C518 C 0.55205 0.49927 0.97043 0.0
C519 C 0.58306 0.50885 0.99058 0.0
C520 C 0.58902 0.51543 0.00955 0.0
C521 C 0.59458 0.51486 0.97497 0.0
C522 C 0.61126 0.52757 0.97811 0.0
C523 C 0.61694 0.53458 0.99697 0.0
C524 C 0.53902 0.45042 0.00768 0.0
C525 C 0.51932 0.44409 0.01094 0.0
C526 C 0.5545 0.43952 0.0157 0.0
C527 C 0.55036 0.42247 0.02619 0.0
C528 C 0.53066 0.41579 0.02869 0.0
C529 C 0.51519 0.42691 0.02119 0.0
C530 C 0.6058 0.52814 0.01271 0.0
H531 H 0.47426 0.48678 0.93082 0.0
H532 H 0.4946 0.48328 0.96102 0.0
H533 H 0.54742 0.49689 0.92976 0.0
H534 H 0.52713 0.50118 0.89992 0.0
H535 H 0.51861 0.46097 0.97454 0.0
H536 H 0.55518 0.51166 0.96113 0.0
H537 H 0.56981 0.47791 0.01202 0.0
H538 H 0.58041 0.51119 0.02188 0.0
H539 H 0.5907 0.50971 0.96024 0.0
H540 H 0.61974 0.53195 0.96573 0.0
H541 H 0.50701 0.4523 0.00539 0.0
H542 H 0.56985 0.44372 0.01329 0.0
H543 H 0.60969 0.53341 0.02739 0.0
H544 H 0.49986 0.4222 0.0231 0.0
H545 H 0.56257 0.41406 0.03161 0.0
C546 C 0.65225 0.19807 0.22104 0.0
C547 C 0.64807 0.2168 0.21426 0.0
C548 C 0.6675 0.19558 0.23528 0.0
C549 C 0.67879 0.21179 0.24317 0.0
C550 C 0.67473 0.23049 0.23625 0.0
C551 C 0.6596 0.23296 0.22194 0.0
C552 C 0.69434 0.20932 0.25899 0.0
C553 C 0.70788 0.19449 0.25793 0.0
C554 C 0.72264 0.19224 0.27291 0.0
C555 C 0.72329 0.20471 0.28929 0.0
C556 C 0.71005 0.21967 0.29044 0.0
C557 C 0.6957 0.22195 0.27525 0.0
C558 C 0.71157 0.2332 0.3074 0.0
C559 C 0.71213 0.22591 0.32651 0.0
C560 C 0.71308 0.25347 0.30455 0.0
C561 C 0.7156 0.26621 0.32055 0.0
C562 C 0.71626 0.25891 0.33967 0.0
C563 C 0.73796 0.17755 0.27118 0.0
C564 C 0.73304 0.15887 0.2633 0.0
C565 C 0.75784 0.18231 0.27727 0.0
C566 C 0.7724 0.16883 0.27547 0.0
C567 C 0.76758 0.15023 0.26737 0.0
C568 C 0.74768 0.14536 0.26142 0.0
C569 C 0.71428 0.23866 0.34251 0.0
H570 H 0.64377 0.18531 0.21527 0.0
H571 H 0.67019 0.18101 0.2404 0.0
H572 H 0.68329 0.24325 0.2419 0.0
H573 H 0.65667 0.24759 0.21714 0.0
H574 H 0.70735 0.18519 0.24509 0.0
H575 H 0.68528 0.23333 0.27632 0.0
H576 H 0.73437 0.20302 0.30108 0.0
H577 H 0.71092 0.21034 0.32906 0.0
H578 H 0.7128 0.25942 0.28993 0.0
H579 H 0.71704 0.28177 0.318 0.0
H580 H 0.71787 0.15464 0.25863 0.0
H581 H 0.76228 0.19663 0.28315 0.0
H582 H 0.71491 0.23266 0.35711 0.0
H583 H 0.74346 0.13123 0.25496 0.0
H584 H 0.78749 0.17303 0.28046 0.0
C585 C 0.48463 0.08493 0.98881 0.0
C586 C 0.4817 0.08369 0.00892 0.0
C587 C 0.48102 0.06857 0.97669 0.0
C588 C 0.47449 0.05054 0.9844 0.0
C589 C 0.47189 0.04924 0.00459 0.0
C590 C 0.47539 0.06563 0.01669 0.0
C591 C 0.47001 0.03327 0.97138 0.0
C592 C 0.48204 0.02962 0.95579 0.0
C593 C 0.4776 0.01367 0.94308 0.0
C594 C 0.46106 0.00105 0.94636 0.0
C595 C 0.44886 0.00438 0.96193 0.0
C596 C 0.45343 0.02058 0.97426 0.0
C597 C 0.43119 0.99113 0.96522 0.0
C598 C 0.41898 0.98368 0.94938 0.0
C599 C 0.42635 0.98588 0.98427 0.0
C600 C 0.40976 0.97347 0.98741 0.0
C601 C 0.39767 0.96592 0.97158 0.0
C602 C 0.49004 0.01053 0.92616 0.0
C603 C 0.4967 0.02647 0.915 0.0
C604 C 0.49537 0.99173 0.92099 0.0
C605 C 0.50724 0.98899 0.90515 0.0
C606 C 0.51396 0.00499 0.89407 0.0
C607 C 0.50851 0.02375 0.89921 0.0
C608 C 0.40245 0.97119 0.95253 0.0
H609 H 0.48921 0.0987 0.98232 0.0
H610 H 0.48288 0.0702 0.96117 0.0
H611 H 0.46721 0.03551 0.01109 0.0
H612 H 0.47326 0.06415 0.03218 0.0
H613 H 0.4951 0.03907 0.95369 0.0
H614 H 0.44368 0.02365 0.98582 0.0
H615 H 0.4576 0.98869 0.93669 0.0
H616 H 0.42205 0.98769 0.93454 0.0
H617 H 0.43558 0.9911 0.99679 0.0
H618 H 0.40666 0.96944 0.00225 0.0
H619 H 0.49268 0.04112 0.91841 0.0
H620 H 0.49062 0.97915 0.92937 0.0
H621 H 0.39328 0.9658 0.94003 0.0
H622 H 0.51366 0.03645 0.89122 0.0
H623 H 0.51106 0.97434 0.90153 0.0
Mg624 Mg 0.23969 0.85374 0.00493 0.0
O625 O 0.26959 0.87053 1.00018 0.0
O626 O 0.29281 0.84848 0.00129 0.0
Mg627 Mg 0.2785 0.81831 0.00673 0.0
C628 C 0.28764 0.86601 0.99924 0.0
C629 C 0.22206 0.89431 0.00778 0.0
O630 O 0.23371 0.89415 0.02372 0.0
O631 O 0.23884 0.84164 0.97368 0.0
O632 O 0.26224 0.81978 0.97658 0.0
O633 O 0.24458 0.85678 0.03745 0.0
O634 O 0.25416 0.83209 0.02028 0.0
C635 C 0.24891 0.82837 0.96647 0.0
C636 C 0.25354 0.84061 0.03695 0.0
O637 O 0.22207 0.88007 0.99586 0.0
Mg638 Mg 0.15253 0.50512 0.27226 0.0
O639 O 0.13467 0.50442 0.2426 0.0
O640 O 0.15623 0.50946 0.21923 0.0
Mg641 Mg 0.18763 0.51112 0.23337 0.0
C642 C 0.13854 0.50666 0.22468 0.0
C643 C 0.11063 0.50668 0.28756 0.0
O644 O 0.11212 0.52239 0.27674 0.0
O645 O 0.16202 0.47401 0.26717 0.0
O646 O 0.18361 0.4794 0.24383 0.0
O647 O 0.15257 0.53784 0.27338 0.0
O648 O 0.17588 0.52144 0.26047 0.0
C649 C 0.17451 0.46795 0.25545 0.0
C650 C 0.16887 0.53799 0.26427 0.0
O651 O 0.12477 0.49513 0.28806 0.0
Mg652 Mg 0.77585 0.65263 0.02216 0.0
O653 O 0.74574 0.63496 0.01862 0.0
O654 O 0.72229 0.6567 0.01577 0.0
Mg655 Mg 0.73662 0.68752 0.01732 0.0
C656 C 0.72752 0.6391 0.01643 0.0
C657 C 0.79516 0.61336 0.03139 0.0
O658 O 0.78586 0.6162 0.04742 0.0
O659 O 0.77454 0.66004 0.98952 0.0
O660 O 0.75093 0.68176 0.98834 0.0
O661 O 0.77313 0.65453 0.05462 0.0
O662 O 0.76216 0.67628 0.03374 0.0
C663 C 0.76377 0.67197 0.9801 0.0
C664 C 0.76396 0.67037 0.05148 0.0
O665 O 0.79313 0.62532 0.0174 0.0
Mg666 Mg 0.90775 0.02848 0.24452 0.0
O667 O 0.88936 0.99937 0.24282 0.0
O668 O 0.91037 0.97583 0.23864 0.0
Mg669 Mg 0.94186 0.98958 0.23697 0.0
C670 C 0.89286 0.9814 0.24069 0.0
C671 C 0.87776 0.05961 0.24476 0.0
O672 O 0.88956 0.06424 0.23067 0.0
O673 O 0.91948 0.02147 0.27576 0.0
O674 O 0.94166 0.99969 0.26885 0.0
O675 O 0.90513 0.03119 0.21178 0.0
O676 O 0.92945 0.01703 0.22781 0.0
C677 C 0.9334 0.01035 0.28104 0.0
C678 C 0.92119 0.0218 0.21134 0.0
O679 O 0.88116 0.04449 0.25482 0.0
Mg680 Mg 0.27494 0.15641 0.52181 0.0
O681 O 0.24656 0.136 0.51857 0.0
O682 O 0.22082 0.15528 0.51665 0.0
Mg683 Mg 0.23216 0.18712 0.51653 0.0
C684 C 0.22789 0.1384 0.51724 0.0
C685 C 0.30625 0.12721 0.53253 0.0
O686 O 0.30507 0.13774 0.54841 0.0
O687 O 0.27283 0.16316 0.48918 0.0
O688 O 0.247 0.18228 0.48749 0.0
O689 O 0.27232 0.15826 0.55417 0.0
O690 O 0.25878 0.17869 0.53339 0.0
C691 C 0.26088 0.17374 0.47947 0.0
C692 C 0.26153 0.17305 0.55116 0.0
O693 O 0.29506 0.13088 0.51763 0.0
Mg694 Mg 0.40963 0.53156 0.74448 0.0
O695 O 0.38946 0.50379 0.73875 0.0
O696 O 0.40902 0.4794 0.73294 0.0
Mg697 Mg 0.44129 0.49102 0.73509 0.0
C698 C 0.39185 0.4859 0.7347 0.0
C699 C 0.3782 0.5621 0.7446 0.0
O700 O 0.38882 0.56688 0.72967 0.0
O701 O 0.41873 0.52087 0.77523 0.0
O702 O 0.43851 0.49713 0.76774 0.0
O703 O 0.40912 0.5378 0.71249 0.0
O704 O 0.43148 0.52015 0.72751 0.0
C705 C 0.43037 0.50747 0.7803 0.0
C706 C 0.42424 0.52716 0.71143 0.0
O707 O 0.38314 0.54766 0.75504 0.0
Mg708 Mg 0.74001 0.35499 0.50454 0.0
O709 O 0.76996 0.37181 0.50007 0.0
O710 O 0.79308 0.34965 0.50128 0.0
Mg711 Mg 0.77869 0.3195 0.50654 0.0
C712 C 0.78802 0.36722 0.49928 0.0
C713 C 0.72356 0.39605 0.50643 0.0
O714 O 0.73614 0.39631 0.52171 0.0
O715 O 0.73945 0.34286 0.47346 0.0
O716 O 0.76249 0.32068 0.47621 0.0
O717 O 0.74403 0.35848 0.53683 0.0
O718 O 0.75468 0.3337 0.52051 0.0
C719 C 0.74924 0.32944 0.46618 0.0
C720 C 0.75354 0.34262 0.53695 0.0
O721 O 0.72246 0.38124 0.49514 0.0
Mg722 Mg 0.65484 0.00791 0.77126 0.0
O723 O 0.63784 0.00636 0.74117 0.0
O724 O 0.66022 0.0113 0.71851 0.0
Mg725 Mg 0.69128 0.01408 0.73346 0.0
C726 C 0.64234 0.00828 0.72337 0.0
C727 C 0.62115 0.0108 0.79843 0.0
O728 O 0.63173 0.02735 0.80033 0.0
O729 O 0.66493 0.97673 0.76697 0.0
O730 O 0.68764 0.98281 0.74488 0.0
O731 O 0.65432 0.04076 0.77134 0.0
O732 O 0.67837 0.02449 0.7598 0.0
C733 C 0.6784 0.97106 0.75611 0.0
C734 C 0.67097 0.04098 0.7629 0.0
O735 O 0.62672 0.99789 0.78682 0.0
Mg736 Mg 0.03446 0.25944 0.90164 0.0
O737 O 0.00597 0.25473 0.88193 0.0
O738 O 0.9822 0.24229 0.90051 0.0
Mg739 Mg 0.99461 0.24129 0.93208 0.0
C740 C 0.98825 0.2479 0.88401 0.0
C741 C 0.06708 0.26929 0.87456 0.0
O742 O 0.07341 0.25519 0.88579 0.0
O743 O 0.02279 0.28722 0.91409 0.0
O744 O 0.99898 0.27487 0.93267 0.0
O745 O 0.04155 0.22844 0.89691 0.0
O746 O 0.02422 0.23837 0.92113 0.0
C747 C 0.00906 0.28939 0.92593 0.0
C748 C 0.03131 0.22418 0.91189 0.0
O749 O 0.05012 0.27568 0.87732 0.0
Mg750 Mg 0.53288 0.76189 0.40088 0.0
O751 O 0.50384 0.75595 0.38225 0.0
O752 O 0.4812 0.74261 0.40157 0.0
Mg753 Mg 0.49487 0.7421 0.4327 0.0
C754 C 0.48647 0.74849 0.38489 0.0
C755 C 0.54879 0.76888 0.36025 0.0
O756 O 0.54171 0.75069 0.35922 0.0
O757 O 0.52037 0.7891 0.41373 0.0
O758 O 0.49774 0.77573 0.43306 0.0
O759 O 0.54133 0.73128 0.39611 0.0
O760 O 0.52423 0.7405 0.42077 0.0
C761 C 0.50692 0.79065 0.42599 0.0
C762 C 0.53163 0.72662 0.41133 0.0
O763 O 0.54661 0.77864 0.37573 0.0
Mg764 Mg 0.98781 0.7452 0.60074 0.0
O765 O 0.018 0.74075 0.61686 0.0
O766 O 0.03941 0.73555 0.59385 0.0
Mg767 Mg 0.02326 0.73594 0.56365 0.0
C768 C 0.03544 0.73738 0.61176 0.0
C769 C 0.95731 0.76288 0.62508 0.0
O770 O 0.9503 0.76393 0.6069 0.0
O771 O 0.99854 0.77583 0.59142 0.0
O772 O 0.01794 0.76859 0.56723 0.0
O773 O 0.98029 0.7131 0.60125 0.0
O774 O 0.99547 0.72807 0.57739 0.0
C775 C 0.00947 0.781 0.57747 0.0
C776 C 0.98879 0.71201 0.58483 0.0
O777 O 0.97446 0.75642 0.62831 0.0
Mg778 Mg 0.48922 0.24315 0.10158 0.0
O779 O 0.51941 0.23825 0.11751 0.0
O780 O 0.54066 0.23271 0.09444 0.0
Mg781 Mg 0.52431 0.23282 0.06431 0.0
C782 C 0.53679 0.23472 0.11235 0.0
C783 C 0.47102 0.24314 0.14226 0.0
O784 O 0.47428 0.22461 0.13989 0.0
O785 O 0.50055 0.27351 0.0918 0.0
O786 O 0.51956 0.26558 0.06753 0.0
O787 O 0.48109 0.21104 0.10214 0.0
O788 O 0.49644 0.22561 0.07822 0.0
C789 C 0.51144 0.2783 0.0777 0.0
C790 C 0.48952 0.20969 0.08572 0.0
O791 O 0.47666 0.25523 0.1294 0.0
H792 H 0.20052 0.78966 0.85014 0.0
H793 H 0.24147 0.74763 0.87199 0.0
H794 H 0.20928 0.8104 0.87868 0.0
H795 H 0.24926 0.76762 0.9008 0.0
H796 H 0.27437 0.81266 0.94226 0.0
H797 H 0.26656 0.79707 0.91073 0.0
H798 H 0.20548 0.81219 0.91349 0.0
H799 H 0.2136 0.82858 0.94486 0.0
C800 C 0.21137 0.78483 0.861 0.0
C801 C 0.22024 0.76691 0.85876 0.0
C802 C 0.21623 0.79663 0.87746 0.0
C803 C 0.23008 0.79078 0.89201 0.0
C804 C 0.23883 0.77283 0.88975 0.0
C805 C 0.23408 0.76114 0.87333 0.0
C806 C 0.25933 0.81291 0.936 0.0
C807 C 0.24454 0.82163 0.94613 0.0
C808 C 0.2548 0.80384 0.91798 0.0
C809 C 0.23528 0.80294 0.90976 0.0
C810 C 0.22068 0.81264 0.91936 0.0
C811 C 0.22531 0.82201 0.93735 0.0
H812 H 0.04771 0.49006 0.39303 0.0
H813 H 0.00489 0.51695 0.35436 0.0
H814 H 0.07005 0.48793 0.36637 0.0
H815 H 0.02683 0.51425 0.32746 0.0
H816 H 0.08136 0.53155 0.29326 0.0
H817 H 0.05654 0.52952 0.31753 0.0
H818 H 0.077 0.47358 0.33605 0.0
H819 H 0.10252 0.47603 0.31209 0.0
C820 C 0.04293 0.49517 0.3787 0.0
C821 C 0.02465 0.50384 0.3758 0.0
C822 C 0.05569 0.49388 0.36337 0.0
C823 C 0.05036 0.50105 0.34472 0.0
C824 C 0.03167 0.50898 0.3417 0.0
C825 C 0.01904 0.51048 0.35708 0.0
C826 C 0.08048 0.5187 0.30235 0.0
C827 C 0.09405 0.50402 0.3008 0.0
C828 C 0.06609 0.51746 0.31624 0.0
C829 C 0.06471 0.5014 0.32888 0.0
C830 C 0.07782 0.48633 0.32682 0.0
C831 C 0.09236 0.48765 0.31297 0.0
H832 H 0.80545 0.69909 0.86294 0.0
H833 H 0.76209 0.74006 0.87734 0.0
H834 H 0.79949 0.68142 0.89326 0.0
H835 H 0.75648 0.72294 0.90758 0.0
H836 H 0.7362 0.68208 0.95237 0.0
H837 H 0.74178 0.69384 0.91962 0.0
H838 H 0.80422 0.68379 0.9283 0.0
H839 H 0.79834 0.67111 0.96093 0.0
C840 C 0.79473 0.70434 0.87263 0.0
C841 C 0.78406 0.72081 0.86767 0.0
C842 C 0.79132 0.69426 0.88999 0.0
C843 C 0.77728 0.70056 0.90278 0.0
C844 C 0.76694 0.71725 0.89786 0.0
C845 C 0.77022 0.72717 0.88053 0.0
C846 C 0.75106 0.68206 0.94715 0.0
C847 C 0.76687 0.67589 0.95926 0.0
C848 C 0.75431 0.68897 0.92843 0.0
C849 C 0.77355 0.69028 0.92146 0.0
C850 C 0.78921 0.68297 0.93315 0.0
C851 C 0.78586 0.67572 0.95186 0.0
H852 H 0.9627 0.9857 0.40317 0.0
H853 H 0.00989 0.02561 0.38521 0.0
H854 H 0.94465 0.99023 0.37177 0.0
H855 H 0.99217 0.02937 0.35372 0.0
H856 H 0.9703 0.00129 0.29386 0.0
H857 H 0.98445 0.00126 0.32714 0.0
H858 H 0.92922 0.01922 0.34839 0.0
H859 H 0.91488 0.01966 0.3146 0.0
C860 C 0.9691 0.99567 0.39274 0.0
C861 C 0.98796 0.00503 0.39666 0.0
C862 C 0.95873 0.99823 0.37476 0.0
C863 C 0.96712 0.01002 0.36035 0.0
C864 C 0.98549 0.02004 0.36456 0.0
C865 C 0.99571 0.0177 0.38254 0.0
C866 C 0.96107 0.00524 0.30555 0.0
C867 C 0.94142 0.01044 0.30157 0.0
C868 C 0.96926 0.00534 0.3246 0.0
C869 C 0.95795 0.01033 0.34026 0.0
C870 C 0.93821 0.01533 0.33649 0.0
C871 C 0.93006 0.01563 0.31722 0.0
H872 H 0.26217 0.25288 0.64606 0.0
H873 H 0.19911 0.23931 0.63668 0.0
H874 H 0.26872 0.22886 0.62142 0.0
H875 H 0.20589 0.21602 0.61113 0.0
H876 H 0.23308 0.20019 0.54982 0.0
H877 H 0.22298 0.22014 0.57676 0.0
H878 H 0.26258 0.19057 0.61661 0.0
H879 H 0.27243 0.17026 0.58981 0.0
C880 C 0.24967 0.24466 0.639 0.0
C881 C 0.23007 0.24808 0.64358 0.0
C882 C 0.25348 0.23096 0.62477 0.0
C883 C 0.23781 0.22059 0.61447 0.0
C884 C 0.21822 0.22393 0.61885 0.0
C885 C 0.21438 0.23738 0.6334 0.0
C886 C 0.23938 0.19766 0.56435 0.0
C887 C 0.2536 0.18365 0.56764 0.0
C888 C 0.23354 0.20906 0.57977 0.0
C889 C 0.24209 0.20692 0.59869 0.0
C890 C 0.25585 0.19254 0.60211 0.0
C891 C 0.26141 0.18089 0.58678 0.0
H892 H 0.50699 0.50575 0.62218 0.0
H893 H 0.45597 0.52599 0.58949 0.0
H894 H 0.48909 0.50659 0.65213 0.0
H895 H 0.43742 0.52571 0.61907 0.0
H896 H 0.41909 0.54757 0.67783 0.0
H897 H 0.43519 0.54355 0.64736 0.0
H898 H 0.4644 0.4937 0.67125 0.0
H899 H 0.4492 0.4986 0.70211 0.0
C900 C 0.49174 0.50993 0.62141 0.0
C901 C 0.48283 0.5159 0.60367 0.0
C902 C 0.48138 0.51033 0.63854 0.0
C903 C 0.46174 0.51637 0.6382 0.0
C904 C 0.45264 0.52148 0.62012 0.0
C905 C 0.46315 0.52147 0.6031 0.0
C906 C 0.42886 0.53567 0.67653 0.0
C907 C 0.4329 0.52345 0.69245 0.0
C908 C 0.43803 0.53325 0.65894 0.0
C909 C 0.45119 0.51826 0.65667 0.0
C910 C 0.45472 0.50566 0.67248 0.0
C911 C 0.44584 0.50836 0.69021 0.0
H912 H 0.75958 0.28096 0.64449 0.0
H913 H 0.82175 0.2934 0.6358 0.0
H914 H 0.75084 0.29998 0.61546 0.0
H915 H 0.813 0.31211 0.60636 0.0
H916 H 0.78168 0.31541 0.54175 0.0
H917 H 0.79356 0.30078 0.5723 0.0
H918 H 0.75633 0.33715 0.6044 0.0
H919 H 0.74471 0.35215 0.57392 0.0
C920 C 0.77133 0.28786 0.63636 0.0
C921 C 0.7913 0.28578 0.64225 0.0
C922 C 0.76636 0.29877 0.61987 0.0
C923 C 0.78128 0.30747 0.60877 0.0
C924 C 0.80127 0.3055 0.61472 0.0
C925 C 0.80625 0.29491 0.63151 0.0
C926 C 0.77622 0.32049 0.55529 0.0
C927 C 0.76219 0.33488 0.55539 0.0
C928 C 0.78311 0.31218 0.57278 0.0
C929 C 0.77579 0.31784 0.59061 0.0
C930 C 0.76213 0.33253 0.59079 0.0
C931 C 0.75555 0.34112 0.57336 0.0
H932 H 0.57862 0.00174 0.61032 0.0
H933 H 0.53228 0.99122 0.65079 0.0
H934 H 0.603 0.00464 0.63735 0.0
H935 H 0.55645 0.99624 0.67794 0.0
H936 H 0.60708 0.98676 0.72294 0.0
H937 H 0.58198 0.98306 0.69615 0.0
H938 H 0.61622 0.02433 0.66214 0.0
H939 H 0.64175 0.02683 0.68841 0.0
C940 C 0.57353 1.00008 0.62496 0.0
C941 C 0.55332 0.99611 0.62817 0.0
C942 C 0.58758 0.00217 0.64061 0.0
C943 C 0.58185 0.00085 0.66004 0.0
C944 C 0.56161 0.9971 0.66328 0.0
C945 C 0.54759 0.99458 0.64759 0.0
C946 C 0.60915 0.99502 0.70971 0.0
C947 C 0.62643 0.00695 0.70769 0.0
C948 C 0.59469 0.99302 0.69433 0.0
C949 C 0.59697 0.00328 0.67673 0.0
C950 C 0.61406 0.01571 0.67511 0.0
C951 C 0.62869 0.01731 0.69027 0.0
H952 H 0.89245 0.26694 0.79988 0.0
H953 H 0.9125 0.21075 0.78298 0.0
H954 H 0.91986 0.27033 0.82442 0.0
H955 H 0.93901 0.21381 0.80852 0.0
H956 H 0.95764 0.22097 0.8776 0.0
H957 H 0.93375 0.21846 0.84954 0.0
H958 H 0.96267 0.26886 0.8238 0.0
H959 H 0.98711 0.27109 0.85165 0.0
C960 C 0.90276 0.25542 0.80111 0.0
C961 C 0.90004 0.23849 0.78939 0.0
C962 C 0.91839 0.25737 0.81528 0.0
C963 C 0.93137 0.2423 0.81829 0.0
C964 C 0.92903 0.22557 0.80646 0.0
C965 C 0.9137 0.22378 0.79199 0.0
C966 C 0.95898 0.23145 0.86591 0.0
C967 C 0.97419 0.24625 0.86679 0.0
C968 C 0.94539 0.22994 0.84987 0.0
C969 C 0.94649 0.24346 0.83463 0.0
C970 C 0.96162 0.25829 0.83544 0.0
C971 C 0.97556 0.25951 0.85129 0.0
H972 H 0.50344 0.91338 0.46174 0.0
H973 H 0.47258 0.87913 0.50445 0.0
H974 H 0.50719 0.88395 0.44244 0.0
H975 H 0.47686 0.84967 0.4857 0.0
H976 H 0.47307 0.80111 0.44223 0.0
H977 H 0.46673 0.83215 0.45723 0.0
H978 H 0.52478 0.85511 0.44228 0.0
H979 H 0.53068 0.82424 0.42646 0.0
C980 C 0.49753 0.89952 0.46702 0.0
C981 C 0.48766 0.89854 0.48455 0.0
C982 C 0.49974 0.88263 0.45602 0.0
C983 C 0.49231 0.86434 0.46243 0.0
C984 C 0.48239 0.86348 0.48 0.0
C985 C 0.47998 0.88037 0.49084 0.0
C986 C 0.48439 0.81287 0.44196 0.0
C987 C 0.50244 0.81017 0.43329 0.0
C988 C 0.48083 0.83065 0.4507 0.0
C989 C 0.49535 0.84612 0.4513 0.0
C990 C 0.51315 0.84364 0.44198 0.0
C991 C 0.51659 0.8259 0.43295 0.0
H992 H 0.16692 0.30383 0.80648 0.0
H993 H 0.11658 0.31707 0.76826 0.0
H994 H 0.14478 0.29431 0.83185 0.0
H995 H 0.09423 0.30633 0.79345 0.0
H996 H 0.06106 0.30089 0.85079 0.0
H997 H 0.08256 0.31366 0.82559 0.0
H998 H 0.12231 0.2674 0.83763 0.0
H999 H 0.10136 0.25513 0.86294 0.0
C1000 C 0.15113 0.30489 0.8035 0.0
C1001 C 0.14359 0.31126 0.78525 0.0
C1002 C 0.13838 0.29911 0.818 0.0
C1003 C 0.11769 0.2993 0.81463 0.0
C1004 C 0.11009 0.30609 0.79657 0.0
C1005 C 0.1229 0.31201 0.78204 0.0
C1006 C 0.07443 0.29352 0.84804 0.0
C1007 C 0.07958 0.27709 0.85898 0.0
C1008 C 0.08669 0.30077 0.83354 0.0
C1009 C 0.10428 0.29168 0.82971 0.0
C1010 C 0.10915 0.27507 0.84048 0.0
C1011 C 0.09703 0.26794 0.85496 0.0
H1012 H 0.49631 0.61688 0.46638 0.0
H1013 H 0.55346 0.60794 0.44347 0.0
H1014 H 0.49554 0.64846 0.45028 0.0
H1015 H 0.55296 0.63971 0.42768 0.0
H1016 H 0.54134 0.69379 0.39198 0.0
H1017 H 0.53797 0.66004 0.40302 0.0
H1018 H 0.51271 0.67954 0.45587 0.0
H1019 H 0.51567 0.71302 0.44468 0.0
C1020 C 0.50865 0.62165 0.45778 0.0
C1021 C 0.52502 0.61005 0.4563 0.0
C1022 C 0.50826 0.63976 0.44863 0.0
C1023 C 0.52431 0.64676 0.4379 0.0
C1024 C 0.54026 0.63471 0.43566 0.0
C1025 C 0.54057 0.61651 0.44472 0.0
C1026 C 0.53491 0.69081 0.40588 0.0
C1027 C 0.52874 0.70607 0.41744 0.0
C1028 C 0.53306 0.67149 0.41224 0.0
C1029 C 0.52505 0.66705 0.43032 0.0
C1030 C 0.5186 0.68234 0.4417 0.0
C1031 C 0.52038 0.7016 0.43532 0.0
H1032 H 0.89696 0.78625 0.73284 0.0
H1033 H 0.8542 0.75618 0.69274 0.0
H1034 H 0.92208 0.7849 0.7085 0.0
H1035 H 0.87912 0.75513 0.66848 0.0
H1036 H 0.92001 0.77608 0.6222 0.0
H1037 H 0.89695 0.779 0.64798 0.0
H1038 H 0.94164 0.76104 0.69049 0.0
H1039 H 0.96497 0.75822 0.66457 0.0
C1040 C 0.89295 0.77919 0.71894 0.0
C1041 C 0.87347 0.77147 0.71471 0.0
C1042 C 0.90734 0.77847 0.70499 0.0
C1043 C 0.90252 0.77013 0.68648 0.0
C1044 C 0.88319 0.76205 0.68244 0.0
C1045 C 0.86888 0.76267 0.69636 0.0
C1046 C 0.92505 0.77291 0.63705 0.0
C1047 C 0.9443 0.76674 0.64128 0.0
C1048 C 0.91176 0.77447 0.65181 0.0
C1049 C 0.91737 0.76996 0.67122 0.0
C1050 C 0.9369 0.76463 0.67566 0.0
C1051 C 0.95024 0.76299 0.66082 0.0
H1052 H 0.04238 0.90485 0.56518 0.0
H1053 H 1.00221 0.89001 0.5157 0.0
H1054 H 0.03688 0.87179 0.57806 0.0
H1055 H 0.99691 0.85706 0.52846 0.0
H1056 H 0.02021 0.79584 0.54263 0.0
H1057 H 0.02293 0.82986 0.53283 0.0
H1058 H 0.00673 0.84772 0.58998 0.0
H1059 H 0.00358 0.81336 0.59989 0.0
C1060 C 0.03224 0.89458 0.5572 0.0
C1061 C 0.02274 0.89996 0.53944 0.0
C1062 C 0.02902 0.87576 0.56461 0.0
C1063 C 0.01654 0.86192 0.55418 0.0
C1064 C 0.00666 0.86746 0.53672 0.0
C1065 C 0.0096 0.88633 0.5295 0.0
C1066 C 0.01727 0.80695 0.5532 0.0
C1067 C 0.01168 0.80187 0.57207 0.0
C1068 C 0.0187 0.82643 0.5475 0.0
C1069 C 0.01492 0.84135 0.56061 0.0
C1070 C 0.00971 0.83643 0.57962 0.0
C1071 C 0.00788 0.81681 0.58525 0.0
H1072 H 0.13688 0.69672 0.68001 0.0
H1073 H 0.11738 0.74395 0.71479 0.0
H1074 H 0.10999 0.7017 0.65576 0.0
H1075 H 0.0909 0.74939 0.69018 0.0
H1076 H 0.0333 0.73929 0.65164 0.0
H1077 H 0.05969 0.73426 0.67649 0.0
H1078 H 0.10054 0.72539 0.63128 0.0
H1079 H 0.07422 0.73005 0.60648 0.0
C1080 C 0.12683 0.70814 0.68251 0.0
C1081 C 0.12932 0.71994 0.69935 0.0
C1082 C 0.11154 0.71114 0.6685 0.0
C1083 C 0.09832 0.726 0.67098 0.0
C1084 C 0.10071 0.73772 0.68788 0.0
C1085 C 0.11604 0.73474 0.70188 0.0
C1086 C 0.04792 0.7363 0.64699 0.0
C1087 C 0.05156 0.73502 0.62702 0.0
C1088 C 0.06308 0.73351 0.66125 0.0
C1089 C 0.08222 0.72933 0.65589 0.0
C1090 C 0.0859 0.72826 0.63593 0.0
C1091 C 0.07079 0.73107 0.6217 0.0
H1092 H 0.01105 0.61525 0.50671 0.0
H1093 H 0.95772 0.59817 0.53572 0.0
H1094 H 0.01511 0.64476 0.5268 0.0
H1095 H 0.96146 0.62778 0.55549 0.0
H1096 H 0.98036 0.67541 0.5988 0.0
H1097 H 0.98053 0.6445 0.58118 0.0
H1098 H 1.00021 0.67518 0.53016 0.0
H1099 H 1.00063 0.7059 0.54796 0.0
C1100 C 1.00016 0.61785 0.51734 0.0
C1101 C 0.98406 0.60441 0.51962 0.0
C1102 C 0.00246 0.63477 0.52884 0.0
C1103 C 0.9886 0.63872 0.54278 0.0
C1104 C 0.97263 0.62509 0.54519 0.0
C1105 C 0.97043 0.60812 0.5338 0.0
C1106 C 0.98494 0.6755 0.58389 0.0
C1107 C 0.99045 0.69311 0.57477 0.0
C1108 C 0.98491 0.6578 0.57374 0.0
C1109 C 0.99024 0.65731 0.55417 0.0
C1110 C 0.99628 0.67491 0.54527 0.0
C1111 C 0.99644 0.69258 0.55547 0.0
H1112 H 0.81577 0.87681 0.25289 0.0
H1113 H 0.78126 0.91473 0.2161 0.0
H1114 H 0.84252 0.90203 0.25599 0.0
H1115 H 0.80804 0.93998 0.21921 0.0
H1116 H 0.85322 0.98714 0.24363 0.0
H1117 H 0.82576 0.96255 0.24255 0.0
H1118 H 0.86701 0.91742 0.23544 0.0
H1119 H 0.89445 0.94183 0.23686 0.0
C1120 C 0.81392 0.8905 0.24539 0.0
C1121 C 0.79641 0.89371 0.23417 0.0
C1122 C 0.82926 0.90496 0.24717 0.0
C1123 C 0.82747 0.92299 0.23777 0.0
C1124 C 0.8098 0.92635 0.22684 0.0
C1125 C 0.79445 0.91187 0.22506 0.0
C1126 C 0.85646 0.97197 0.2419 0.0
C1127 C 0.87609 0.9665 0.24033 0.0
C1128 C 0.84069 0.95788 0.24118 0.0
C1129 C 0.84418 0.93801 0.23892 0.0
C1130 C 0.86381 0.93256 0.23747 0.0
C1131 C 0.87955 0.94661 0.23816 0.0
H1132 H 0.8051 0.15848 0.25556 0.0
H1133 H 0.76607 0.11047 0.27287 0.0
H1134 H 0.83125 0.13621 0.25129 0.0
H1135 H 0.79213 0.08789 0.26765 0.0
H1136 H 0.85174 0.05683 0.27444 0.0
H1137 H 0.82479 0.07827 0.28044 0.0
H1138 H 0.83867 0.11121 0.22889 0.0
H1139 H 0.86562 0.09032 0.22323 0.0
C1140 C 0.80209 0.14316 0.25854 0.0
C1141 C 0.78344 0.13632 0.26463 0.0
C1142 C 0.81705 0.13031 0.25583 0.0
C1143 C 0.81378 0.1102 0.25897 0.0
C1144 C 0.7952 0.1033 0.26522 0.0
C1145 C 0.78018 0.11622 0.26798 0.0
C1146 C 0.84899 0.06866 0.26442 0.0
C1147 C 0.86096 0.07195 0.24846 0.0
C1148 C 0.83349 0.08088 0.2678 0.0
C1149 C 0.82967 0.0966 0.25526 0.0
C1150 C 0.84144 0.09955 0.23911 0.0
C1151 C 0.85687 0.08745 0.2358 0.0
H1152 H 0.36987 0.96848 0.99907 0.0
H1153 H 0.38664 0.93222 0.95169 0.0
H1154 H 0.34263 0.94489 0.00555 0.0
H1155 H 0.35923 0.90891 0.95789 0.0
H1156 H 0.32623 0.86097 0.99144 0.0
H1157 H 0.35184 0.88571 0.98439 0.0
H1158 H 0.31023 0.93064 0.99059 0.0
H1159 H 0.28438 0.90578 0.99783 0.0
C1160 C 0.3677 0.95551 0.99001 0.0
C1161 C 0.38046 0.95217 0.97492 0.0
C1162 C 0.35199 0.94211 0.9936 0.0
C1163 C 0.34885 0.92501 0.98228 0.0
C1164 C 0.36141 0.92186 0.967 0.0
C1165 C 0.377 0.9353 0.96332 0.0
C1166 C 0.32245 0.8761 0.99135 0.0
C1167 C 0.30318 0.88135 0.9952 0.0
C1168 C 0.33714 0.89028 0.98716 0.0
C1169 C 0.33303 0.91011 0.9868 0.0
C1170 C 0.31386 0.91547 0.99085 0.0
C1171 C 0.29904 0.90122 0.99491 0.0
H1172 H 0.21468 0.3523 0.28827 0.0
H1173 H 0.25513 0.37801 0.24761 0.0
H1174 H 0.19294 0.37922 0.28287 0.0
H1175 H 0.23419 0.40539 0.24322 0.0
H1176 H 0.18843 0.44637 0.22631 0.0
H1177 H 0.20397 0.41529 0.2292 0.0
H1178 H 0.19108 0.41293 0.29029 0.0
H1179 H 0.17469 0.44368 0.28705 0.0
C1180 C 0.21893 0.36363 0.27812 0.0
C1181 C 0.23675 0.36295 0.26843 0.0
C1182 C 0.20655 0.3792 0.27521 0.0
C1183 C 0.21172 0.39454 0.26258 0.0
C1184 C 0.22946 0.39373 0.25279 0.0
C1185 C 0.24171 0.37813 0.25558 0.0
C1186 C 0.18857 0.439 0.24026 0.0
C1187 C 0.1805 0.44754 0.2565 0.0
C1188 C 0.19766 0.42126 0.24199 0.0
C1189 C 0.19926 0.41176 0.2601 0.0
C1190 C 0.19008 0.41973 0.27608 0.0
C1191 C 0.18068 0.43739 0.27425 0.0
H1192 H 0.14053 0.05284 0.47236 0.0
H1193 H 0.1378 0.04518 0.53483 0.0
H1194 H 0.16904 0.07576 0.4778 0.0
H1195 H 0.16552 0.06917 0.54002 0.0
H1196 H 0.19154 0.13534 0.53232 0.0
H1197 H 0.16687 0.10802 0.52914 0.0
H1198 H 0.20703 0.0757 0.49626 0.0
H1199 H 0.23214 0.10292 0.49995 0.0
C1200 C 0.14607 0.05572 0.48723 0.0
C1201 C 0.13661 0.04705 0.50314 0.0
C1202 C 0.16239 0.06897 0.49029 0.0
C1203 C 0.16939 0.07417 0.5093 0.0
C1204 C 0.16029 0.06541 0.52522 0.0
C1205 C 0.14425 0.05182 0.52218 0.0
C1206 C 0.1952 0.12232 0.52459 0.0
C1207 C 0.21372 0.12124 0.51634 0.0
C1208 C 0.18114 0.10669 0.52288 0.0
C1209 C 0.18512 0.08984 0.51247 0.0
C1210 C 0.20369 0.08859 0.50436 0.0
C1211 C 0.21801 0.10408 0.50653 0.0
H1212 H 0.7523 0.13019 0.71756 0.0
H1213 H 0.72439 0.15863 0.76431 0.0
H1214 H 0.73018 0.10138 0.72099 0.0
H1215 H 0.70263 0.12949 0.76837 0.0
H1216 H 0.6574 0.07797 0.76292 0.0
H1217 H 0.67583 0.10837 0.75524 0.0
H1218 H 0.72691 0.07571 0.74344 0.0
H1219 H 0.70842 0.04561 0.75043 0.0
C1220 C 0.74142 0.1302 0.72863 0.0
C1221 C 0.74016 0.14651 0.74081 0.0
C1222 C 0.72878 0.11369 0.73066 0.0
C1223 C 0.71476 0.11296 0.74515 0.0
C1224 C 0.71309 0.12957 0.75693 0.0
C1225 C 0.7256 0.14623 0.7547 0.0
C1226 C 0.67249 0.07734 0.75845 0.0
C1227 C 0.68141 0.05938 0.75717 0.0
C1228 C 0.6831 0.09475 0.75418 0.0
C1229 C 0.70287 0.09454 0.74867 0.0
C1230 C 0.71161 0.07649 0.7472 0.0
C1231 C 0.701 0.05916 0.75131 0.0
H1232 H 0.41339 0.06749 0.55712 0.0
H1233 H 0.38361 0.03079 0.51222 0.0
H1234 H 0.38634 0.08949 0.55485 0.0
H1235 H 0.35618 0.05272 0.51013 0.0
H1236 H 0.31956 0.10803 0.50075 0.0
H1237 H 0.34631 0.08526 0.50075 0.0
H1238 H 0.35267 0.08934 0.56369 0.0
H1239 H 0.32661 0.11226 0.56363 0.0
C1240 C 0.40096 0.06406 0.54684 0.0
C1241 C 0.40054 0.0473 0.53501 0.0
C1242 C 0.3854 0.07665 0.54556 0.0
C1243 C 0.3689 0.07274 0.5325 0.0
C1244 C 0.3687 0.05623 0.52026 0.0
C1245 C 0.38439 0.04366 0.52147 0.0
C1246 C 0.32664 0.10393 0.51455 0.0
C1247 C 0.32111 0.11212 0.53216 0.0
C1248 C 0.34192 0.09086 0.51457 0.0
C1249 C 0.35188 0.0857 0.5322 0.0
C1250 C 0.34574 0.09337 0.54979 0.0
C1251 C 0.33066 0.10645 0.54976 0.0
H1252 H 0.6478 0.49432 0.51953 0.0
H1253 H 0.61066 0.44793 0.49203 0.0
H1254 H 0.67682 0.47508 0.51651 0.0
H1255 H 0.63946 0.42833 0.48958 0.0
H1256 H 0.69614 0.40099 0.47616 0.0
H1257 H 0.66969 0.42388 0.47459 0.0
H1258 H 0.6908 0.44762 0.53083 0.0
H1259 H 0.71756 0.42541 0.53196 0.0
C1260 C 0.64587 0.47995 0.51291 0.0
C1261 C 0.62698 0.47257 0.5061 0.0
C1262 C 0.66248 0.46888 0.51121 0.0
C1263 C 0.66055 0.45005 0.5029 0.0
C1264 C 0.64164 0.44287 0.49576 0.0
C1265 C 0.62508 0.45405 0.49725 0.0
C1266 C 0.69528 0.41132 0.48803 0.0
C1267 C 0.7089 0.41129 0.50423 0.0
C1268 C 0.68001 0.42435 0.48722 0.0
C1269 C 0.67792 0.43753 0.50267 0.0
C1270 C 0.69202 0.43791 0.51852 0.0
C1271 C 0.70737 0.42505 0.51923 0.0
H1272 H 0.74544 0.28764 0.34519 0.0
H1273 H 0.69522 0.26001 0.37252 0.0
H1274 H 0.75308 0.30775 0.37448 0.0
H1275 H 0.70274 0.28025 0.40173 0.0
H1276 H 0.71408 0.33169 0.44482 0.0
H1277 H 0.70518 0.317 0.4127 0.0
H1278 H 0.76465 0.29759 0.40964 0.0
H1279 H 0.77349 0.31192 0.44175 0.0
C1280 C 0.73586 0.28612 0.35734 0.0
C1281 C 0.71979 0.27225 0.35667 0.0
C1282 C 0.74028 0.29754 0.37409 0.0
C1283 C 0.72848 0.29553 0.39032 0.0
C1284 C 0.71196 0.2822 0.38935 0.0
C1285 C 0.70775 0.27054 0.37273 0.0
C1286 C 0.72532 0.32455 0.43714 0.0
C1287 C 0.74445 0.32285 0.44583 0.0
C1288 C 0.72019 0.31608 0.41884 0.0
C1289 C 0.73423 0.30615 0.40876 0.0
C1290 C 0.75359 0.30527 0.41705 0.0
C1291 C 0.75861 0.31339 0.43546 0.0
H1292 H 0.51257 0.02323 0.85865 0.0
H1293 H 0.54503 0.98093 0.89197 0.0
H1294 H 0.53655 0.02238 0.83336 0.0
H1295 H 0.56886 0.97988 0.86639 0.0
H1296 H 0.60201 0.97617 0.80875 0.0
H1297 H 0.57388 0.97214 0.83005 0.0
H1298 H 0.57223 0.03473 0.83504 0.0
H1299 H 0.60005 0.03873 0.81415 0.0
C1300 C 0.52474 0.01365 0.86054 0.0
C1301 C 0.52706 0.00242 0.87753 0.0
C1302 C 0.53841 0.0131 0.84599 0.0
C1303 C 0.55468 0.00121 0.848 0.0
C1304 C 0.55638 0.98908 0.86439 0.0
C1305 C 0.54273 0.9897 0.87904 0.0
C1306 C 0.59544 0.98901 0.81427 0.0
C1307 C 0.60327 0.00776 0.80986 0.0
C1308 C 0.57945 0.98671 0.8265 0.0
C1309 C 0.57083 0.00313 0.83413 0.0
C1310 C 0.57837 0.0218 0.8292 0.0
C1311 C 0.59443 0.02408 0.81732 0.0
H1312 H 0.25964 0.24058 0.3751 0.0
H1313 H 0.30506 0.20082 0.36356 0.0
H1314 H 0.25296 0.2236 0.40521 0.0
H1315 H 0.29797 0.18321 0.39359 0.0
H1316 H 0.29563 0.17362 0.46065 0.0
H1317 H 0.30165 0.18605 0.42808 0.0
H1318 H 0.23905 0.19507 0.41855 0.0
H1319 H 0.23331 0.18357 0.45138 0.0
C1320 C 0.26795 0.22794 0.37886 0.0
C1321 C 0.28281 0.22198 0.36693 0.0
C1322 C 0.26407 0.21809 0.39612 0.0
C1323 C 0.27477 0.20184 0.40185 0.0
C1324 C 0.28956 0.19577 0.38979 0.0
C1325 C 0.2936 0.2058 0.37256 0.0
C1326 C 0.28314 0.17797 0.45144 0.0
C1327 C 0.26404 0.17787 0.45866 0.0
C1328 C 0.28656 0.18507 0.43272 0.0
C1329 C 0.2709 0.19195 0.42073 0.0
C1330 C 0.25159 0.1905 0.42754 0.0
C1331 C 0.24825 0.18374 0.44633 0.0
H1332 H 0.50752 0.48071 0.87698 0.0
H1333 H 0.46305 0.51071 0.90663 0.0
H1334 H 0.48851 0.4836 0.84623 0.0
H1335 H 0.44345 0.51292 0.87573 0.0
H1336 H 0.42944 0.53327 0.81099 0.0
H1337 H 0.44423 0.52952 0.84405 0.0
H1338 H 0.4585 0.47073 0.82975 0.0
H1339 H 0.44432 0.47465 0.79681 0.0
C1340 C 0.49365 0.48794 0.87694 0.0
C1341 C 0.48689 0.49558 0.89428 0.0
C1342 C 0.48257 0.48936 0.85932 0.0
C1343 C 0.46433 0.49835 0.8585 0.0
C1344 C 0.45748 0.50598 0.87583 0.0
C1345 C 0.46861 0.50455 0.89355 0.0
C1346 C 0.43543 0.51945 0.81506 0.0
C1347 C 0.43599 0.50437 0.8012 0.0
C1348 C 0.44389 0.51728 0.834 0.0
C1349 C 0.45293 0.49995 0.83943 0.0
C1350 C 0.4522 0.48447 0.82591 0.0
C1351 C 0.44394 0.48668 0.80704 0.0
H1352 H 0.7098 0.75478 0.12475 0.0
H1353 H 0.75441 0.7286 0.16209 0.0
H1354 H 0.71544 0.73163 0.09899 0.0
H1355 H 0.76105 0.70638 0.13585 0.0
H1356 H 0.76047 0.65943 0.0896 0.0
H1357 H 0.74957 0.67905 0.11642 0.0
H1358 H 0.73984 0.7266 0.07648 0.0
H1359 H 0.74997 0.7068 0.04976 0.0
C1360 C 0.72073 0.74402 0.12756 0.0
C1361 C 0.73173 0.74371 0.14553 0.0
C1362 C 0.72417 0.73089 0.11264 0.0
C1363 C 0.73887 0.71721 0.1152 0.0
C1364 C 0.74949 0.71655 0.13335 0.0
C1365 C 0.7459 0.72955 0.14834 0.0
C1366 C 0.75576 0.67399 0.08656 0.0
C1367 C 0.75606 0.68155 0.06756 0.0
C1368 C 0.74964 0.6853 0.10195 0.0
C1369 C 0.74387 0.70448 0.09869 0.0
C1370 C 0.74381 0.71181 0.07956 0.0
C1371 C 0.74973 0.70046 0.06419 0.0
H1372 H 0.00538 0.02881 0.12318 0.0
H1373 H 0.95623 0.99773 0.09203 0.0
H1374 H 0.98703 0.02791 0.1529 0.0
H1375 H 0.93773 0.99682 0.12195 0.0
H1376 H 0.90585 0.02666 0.17395 0.0
H1377 H 0.92277 0.02254 0.14358 0.0
H1378 H 0.97401 0.00289 0.17656 0.0
H1379 H 0.95728 0.00701 0.20678 0.0
C1380 C 0.99066 0.02172 0.12275 0.0
C1381 C 0.98219 0.01338 0.10533 0.0
C1382 C 0.98021 0.02108 0.13978 0.0
C1383 C 0.96097 0.01226 0.13973 0.0
C1384 C 0.95251 0.00377 0.12235 0.0
C1385 C 0.96311 0.00417 0.10532 0.0
C1386 C 0.92061 0.0212 0.17467 0.0
C1387 C 0.93025 0.01725 0.19278 0.0
C1388 C 0.93025 0.01876 0.15729 0.0
C1389 C 0.94976 0.01254 0.15775 0.0
C1390 C 0.95906 0.0079 0.1758 0.0
C1391 C 0.9494 0.01016 0.1931 0.0
H1392 H 0.2667 0.76063 0.13069 0.0
H1393 H 0.31039 0.80625 0.14897 0.0
H1394 H 0.25898 0.77847 0.10097 0.0
H1395 H 0.30193 0.82448 0.11933 0.0
H1396 H 0.25929 0.85697 0.0735 0.0
H1397 H 0.2706 0.84085 0.1036 0.0
H1398 H 0.27828 0.78821 0.07085 0.0
H1399 H 0.26714 0.80417 0.0409 0.0
C1400 C 0.27481 0.77437 0.12834 0.0
C1401 C 0.28939 0.78183 0.14218 0.0
C1402 C 0.27028 0.78463 0.11133 0.0
C1403 C 0.27999 0.80275 0.10781 0.0
C1404 C 0.2942 0.81055 0.12176 0.0
C1405 C 0.29896 0.80013 0.13874 0.0
C1406 C 0.26365 0.84204 0.07272 0.0
C1407 C 0.26226 0.83182 0.05485 0.0
C1408 C 0.27017 0.83287 0.08991 0.0
C1409 C 0.27513 0.81326 0.08952 0.0
C1410 C 0.27434 0.80328 0.07156 0.0
C1411 C 0.26807 0.81248 0.05441 0.0
H1412 H 0.02754 0.48785 0.15361 0.0
H1413 H 0.07277 0.50286 0.11305 0.0
H1414 H 0.05173 0.49343 0.18067 0.0
H1415 H 0.09728 0.50625 0.13985 0.0
H1416 H 0.1363 0.5271 0.19087 0.0
H1417 H 0.1101 0.5251 0.16521 0.0
H1418 H 0.07811 0.4811 0.19808 0.0
H1419 H 0.10379 0.48437 0.22437 0.0
C1420 C 0.04261 0.49233 0.15036 0.0
C1421 C 0.04803 0.49485 0.13093 0.0
C1422 C 0.05666 0.49518 0.16599 0.0
C1423 C 0.07666 0.50026 0.16267 0.0
C1424 C 0.08205 0.50273 0.14323 0.0
C1425 C 0.06794 0.50033 0.12767 0.0
C1426 C 0.12356 0.51712 0.19262 0.0
C1427 C 0.12211 0.50583 0.20955 0.0
C1428 C 0.10856 0.51579 0.1778 0.0
C1429 C 0.09194 0.50269 0.17924 0.0
C1430 C 0.09043 0.49159 0.19642 0.0
C1431 C 0.10522 0.49333 0.2115 0.0
H1432 H 0.40769 0.71145 0.28594 0.0
H1433 H 0.38709 0.76679 0.30473 0.0
H1434 H 0.43494 0.71453 0.31069 0.0
H1435 H 0.41522 0.77023 0.32849 0.0
H1436 H 0.48372 0.77179 0.3527 0.0
H1437 H 0.45818 0.76948 0.32583 0.0
H1438 H 0.43108 0.71852 0.35227 0.0
H1439 H 0.45609 0.72109 0.3794 0.0
C1440 C 0.4089 0.72428 0.29522 0.0
C1441 C 0.39489 0.73875 0.29337 0.0
C1442 C 0.42466 0.72608 0.30924 0.0
C1443 C 0.42707 0.74261 0.32135 0.0
C1444 C 0.41368 0.75744 0.31912 0.0
C1445 C 0.39764 0.75547 0.3054 0.0
C1446 C 0.47235 0.76006 0.3527 0.0
C1447 C 0.47182 0.74666 0.36815 0.0
C1448 C 0.45777 0.75881 0.33742 0.0
C1449 C 0.44282 0.74382 0.3371 0.0
C1450 C 0.44256 0.73015 0.35224 0.0
C1451 C 0.4568 0.73168 0.36774 0.0
H1452 H 0.0212 0.39343 0.99566 0.0
H1453 H 0.96236 0.39731 0.96847 0.0
H1454 H 0.02611 0.36479 0.97581 0.0
H1455 H 0.96716 0.3682 0.94912 0.0
H1456 H 0.976 0.30107 0.94292 0.0
H1457 H 0.97099 0.33262 0.95775 0.0
H1458 H 0.02861 0.35406 0.94038 0.0
H1459 H 0.03367 0.32242 0.92539 0.0
C1460 C 0.0094 0.38841 0.98527 0.0
C1461 C 0.99133 0.39773 0.98378 0.0
C1462 C 0.01224 0.37194 0.97391 0.0
C1463 C 0.99701 0.36426 0.96095 0.0
C1464 C 0.97908 0.37371 0.95915 0.0
C1465 C 0.97631 0.39032 0.97034 0.0
C1466 C 0.98753 0.31256 0.94205 0.0
C1467 C 0.00529 0.30919 0.93307 0.0
C1468 C 0.9846 0.33067 0.95045 0.0
C1469 C 0.99944 0.34576 0.95028 0.0
C1470 C 0.01699 0.34262 0.94084 0.0
C1471 C 0.01982 0.32455 0.93217 0.0
H1472 H 0.61879 0.78711 0.25799 0.0
H1473 H 0.64653 0.82552 0.30273 0.0
H1474 H 0.59147 0.77962 0.27872 0.0
H1475 H 0.62 0.8167 0.32412 0.0
H1476 H 0.56366 0.80652 0.35579 0.0
H1477 H 0.58651 0.81857 0.33158 0.0
H1478 H 0.58573 0.76076 0.30621 0.0
H1479 H 0.56237 0.74909 0.32965 0.0
C1480 C 0.61905 0.79411 0.27218 0.0
C1481 C 0.63506 0.80686 0.27865 0.0
C1482 C 0.60346 0.78954 0.28425 0.0
C1483 C 0.60357 0.7973 0.30328 0.0
C1484 C 0.61925 0.81052 0.30954 0.0
C1485 C 0.63471 0.81533 0.29734 0.0
C1486 C 0.56819 0.7965 0.34484 0.0
C1487 C 0.56123 0.77684 0.34469 0.0
C1488 C 0.58141 0.80336 0.33104 0.0
C1489 C 0.58813 0.79066 0.31692 0.0
C1490 C 0.5807 0.77112 0.31655 0.0
C1491 C 0.56734 0.76435 0.33015 0.0
H1492 H 0.05214 0.10573 0.9448 0.0
H1493 H 0.99616 0.11569 0.96969 0.0
H1494 H 0.05147 0.13733 0.92872 0.0
H1495 H 0.99511 0.14706 0.95321 0.0
H1496 H 0.01511 0.21137 0.94539 0.0
H1497 H 0.01202 0.17812 0.95725 0.0
H1498 H 0.03634 0.15737 0.90439 0.0
H1499 H 0.04 0.19087 0.89279 0.0
C1500 C 0.03947 0.11451 0.94645 0.0
C1501 C 0.0243 0.10837 0.95862 0.0
C1502 C 0.03903 0.13261 0.9372 0.0
C1503 C 0.02332 0.14487 0.93981 0.0
C1504 C 0.00766 0.13822 0.95123 0.0
C1505 C 0.0082 0.12022 0.96061 0.0
C1506 C 0.01958 0.19971 0.93618 0.0
C1507 C 0.02785 0.20377 0.91818 0.0
C1508 C 0.01771 0.18058 0.94294 0.0
C1509 C 0.02393 0.165 0.93179 0.0
C1510 C 0.03167 0.16903 0.91349 0.0
C1511 C 0.03367 0.18822 0.90679 0.0
H1512 H 0.37836 0.29478 0.20397 0.0
H1513 H 0.3986 0.25045 0.24372 0.0
H1514 H 0.40442 0.28766 0.18225 0.0
H1515 H 0.42543 0.24425 0.22266 0.0
H1516 H 0.45237 0.21978 0.16845 0.0
H1517 H 0.42938 0.22893 0.19243 0.0
H1518 H 0.43898 0.28954 0.17693 0.0
H1519 H 0.46157 0.2802 0.15225 0.0
C1520 C 0.38843 0.2836 0.20817 0.0
C1521 C 0.38616 0.27307 0.22556 0.0
C1522 C 0.40362 0.27972 0.19583 0.0
C1523 C 0.41706 0.26529 0.20059 0.0
C1524 C 0.41519 0.25524 0.21831 0.0
C1525 C 0.39992 0.259 0.23056 0.0
C1526 C 0.44977 0.2351 0.17024 0.0
C1527 C 0.45877 0.24924 0.15832 0.0
C1528 C 0.43661 0.24038 0.18415 0.0
C1529 C 0.43221 0.26 0.18668 0.0
C1530 C 0.44174 0.27425 0.17519 0.0
C1531 C 0.45482 0.26893 0.16113 0.0
H1532 H 0.5466 0.40155 0.06304 0.0
H1533 H 0.50506 0.38654 0.01467 0.0
H1534 H 0.54105 0.36869 0.07645 0.0
H1535 H 0.49972 0.35382 0.02794 0.0
H1536 H 0.52198 0.29239 0.04252 0.0
H1537 H 0.5254 0.32621 0.03221 0.0
H1538 H 0.51053 0.34536 0.08937 0.0
H1539 H 0.50667 0.31119 0.09979 0.0
C1540 C 0.53619 0.39129 0.05539 0.0
C1541 C 0.52627 0.39657 0.03781 0.0
C1542 C 0.53293 0.37259 0.06311 0.0
C1543 C 0.52001 0.35878 0.05317 0.0
C1544 C 0.5098 0.3642 0.03584 0.0
C1545 C 0.51278 0.38294 0.02832 0.0
C1546 C 0.51948 0.30374 0.05298 0.0
C1547 C 0.51405 0.29906 0.072 0.0
C1548 C 0.52133 0.3231 0.047 0.0
C1549 C 0.51813 0.33833 0.05997 0.0
C1550 C 0.51308 0.33382 0.07913 0.0
C1551 C 0.51083 0.31432 0.08504 0.0
H1552 H 0.61066 0.19929 0.21257 0.0
H1553 H 0.64834 0.24061 0.18236 0.0
H1554 H 0.5837 0.2039 0.18815 0.0
H1555 H 0.62128 0.24554 0.15822 0.0
H1556 H 0.57628 0.23124 0.10698 0.0
H1557 H 0.60286 0.22702 0.13168 0.0
H1558 H 0.5609 0.22925 0.17693 0.0
H1559 H 0.53413 0.23331 0.15218 0.0
C1560 C 0.6132 0.20931 0.20069 0.0
C1561 C 0.63166 0.21955 0.19938 0.0
C1562 C 0.59769 0.21211 0.18682 0.0
C1563 C 0.60034 0.2251 0.17125 0.0
C1564 C 0.61881 0.23531 0.16994 0.0
C1565 C 0.63426 0.23261 0.18386 0.0
C1566 C 0.57265 0.23086 0.12219 0.0
C1567 C 0.553 0.23261 0.12756 0.0
C1568 C 0.58795 0.22855 0.13636 0.0
C1569 C 0.58401 0.22781 0.15627 0.0
C1570 C 0.56439 0.22957 0.16169 0.0
C1571 C 0.54907 0.23202 0.1475 0.0
H1572 H 0.45778 0.09561 0.03707 0.0
H1573 H 0.51212 0.11169 0.00933 0.0
H1574 H 0.46143 0.12538 0.05662 0.0
H1575 H 0.51604 0.14139 0.02914 0.0
H1576 H 0.50173 0.20301 0.04907 0.0
H1577 H 0.50123 0.17206 0.03163 0.0
H1578 H 0.48024 0.1422 0.08259 0.0
H1579 H 0.48022 0.17333 0.09986 0.0
C1580 C 0.47069 0.10536 0.03539 0.0
C1581 C 0.48462 0.10132 0.0216 0.0
C1582 C 0.47283 0.12244 0.04664 0.0
C1583 C 0.48903 0.13585 0.04447 0.0
C1584 C 0.5032 0.13157 0.03097 0.0
C1585 C 0.50099 0.11454 0.01963 0.0
C1586 C 0.49723 0.18982 0.05664 0.0
C1587 C 0.49096 0.19064 0.07584 0.0
C1588 C 0.49701 0.17202 0.04665 0.0
C1589 C 0.49061 0.15458 0.05564 0.0
C1590 C 0.48493 0.15537 0.07508 0.0
C1591 C 0.48504 0.1732 0.08504 0.0
H1592 H 0.30816 0.39198 0.69509 0.0
H1593 H 0.27988 0.41783 0.74321 0.0
H1594 H 0.33536 0.41666 0.69866 0.0
H1595 H 0.30723 0.44253 0.74689 0.0
H1596 H 0.35244 0.4936 0.73639 0.0
H1597 H 0.32369 0.47069 0.73136 0.0
H1598 H 0.36276 0.42411 0.72203 0.0
H1599 H 0.39133 0.44689 0.72664 0.0
C1600 C 0.30779 0.40292 0.70648 0.0
C1601 C 0.29196 0.40285 0.71898 0.0
C1602 C 0.32339 0.41706 0.70854 0.0
C1603 C 0.32358 0.43146 0.72319 0.0
C1604 C 0.30745 0.43175 0.73534 0.0
C1605 C 0.2918 0.4176 0.73325 0.0
C1606 C 0.35489 0.47848 0.73323 0.0
C1607 C 0.37423 0.47214 0.73187 0.0
C1608 C 0.33841 0.46534 0.73044 0.0
C1609 C 0.34092 0.44559 0.72618 0.0
C1610 C 0.36026 0.43928 0.72493 0.0
C1611 C 0.37668 0.45236 0.72771 0.0
H1612 H 0.26938 0.62427 0.73426 0.0
H1613 H 0.29265 0.63654 0.79313 0.0
H1614 H 0.29587 0.60209 0.72975 0.0
H1615 H 0.31936 0.61456 0.7885 0.0
H1616 H 0.35539 0.56036 0.77677 0.0
H1617 H 0.3264 0.5792 0.78266 0.0
H1618 H 0.33232 0.60755 0.72701 0.0
H1619 H 0.36102 0.58893 0.72113 0.0
C1620 C 0.28 0.62204 0.74632 0.0
C1621 C 0.27899 0.63226 0.764 0.0
C1622 C 0.29527 0.60946 0.74369 0.0
C1623 C 0.30978 0.60668 0.75873 0.0
C1624 C 0.30835 0.61632 0.77668 0.0
C1625 C 0.29317 0.62904 0.77925 0.0
C1626 C 0.35044 0.57059 0.76581 0.0
C1627 C 0.36055 0.57316 0.74851 0.0
C1628 C 0.3339 0.5814 0.7692 0.0
C1629 C 0.32702 0.59477 0.75524 0.0
C1630 C 0.33706 0.59717 0.73793 0.0
C1631 C 0.35364 0.58658 0.73464 0.0
H1632 H 0.89859 0.43764 0.50062 0.0
H1633 H 0.86104 0.46549 0.45736 0.0
H1634 H 0.87128 0.41461 0.50749 0.0
H1635 H 0.83386 0.44187 0.46372 0.0
H1636 H 0.78421 0.40662 0.49409 0.0
H1637 H 0.81055 0.43152 0.48862 0.0
H1638 H 0.85365 0.38722 0.49095 0.0
H1639 H 0.82765 0.36255 0.49672 0.0
C1640 C 0.88447 0.43893 0.49264 0.0
C1641 C 0.88204 0.45341 0.47841 0.0
C1642 C 0.86886 0.42557 0.49643 0.0
C1643 C 0.85041 0.42631 0.48606 0.0
C1644 C 0.84784 0.44098 0.47206 0.0
C1645 C 0.86349 0.45436 0.46824 0.0
C1646 C 0.79931 0.40222 0.49347 0.0
C1647 C 0.80376 0.38256 0.49591 0.0
C1648 C 0.81439 0.41647 0.49024 0.0
C1649 C 0.83422 0.41137 0.48945 0.0
C1650 C 0.83861 0.39172 0.49182 0.0
C1651 C 0.82361 0.37753 0.49501 0.0
H1652 H 0.72384 0.86283 0.79974 0.0
H1653 H 0.73589 0.8623 0.73861 0.0
H1654 H 0.70491 0.89199 0.79481 0.0
H1655 H 0.71616 0.89067 0.7333 0.0
H1656 H 0.70787 0.95552 0.73654 0.0
H1657 H 0.72108 0.92379 0.74016 0.0
H1658 H 0.67675 0.90788 0.78132 0.0
H1659 H 0.66384 0.94046 0.77828 0.0
C1660 C 0.72203 0.86876 0.78517 0.0
C1661 C 0.7315 0.86059 0.76959 0.0
C1662 C 0.71109 0.88538 0.78229 0.0
C1663 C 0.7092 0.89395 0.76369 0.0
C1664 C 0.71774 0.88489 0.74793 0.0
C1665 C 0.72895 0.86856 0.7509 0.0
C1666 C 0.70071 0.94531 0.74628 0.0
C1667 C 0.68478 0.95069 0.75719 0.0
C1668 C 0.70825 0.9269 0.74823 0.0
C1669 C 0.69997 0.91309 0.76096 0.0
C1670 C 0.68365 0.9182 0.77153 0.0
C1671 C 0.67615 0.93683 0.76969 0.0
H1672 H 0.64657 0.53587 0.02604 0.0
H1673 H 0.62557 0.56641 0.97469 0.0
H1674 H 0.67385 0.56062 0.03114 0.0
H1675 H 0.65291 0.59076 0.97953 0.0
H1676 H 0.688 0.64263 0.00781 0.0
H1677 H 0.66206 0.61692 0.00355 0.0
H1678 H 0.705 0.57359 0.01562 0.0
H1679 H 0.73123 0.59948 0.02008 0.0
C1680 C 0.6478 0.54783 0.01584 0.0
C1681 C 0.6339 0.54918 0.99997 0.0
C1682 C 0.66351 0.56189 0.01866 0.0
C1683 C 0.66549 0.57768 0.00578 0.0
C1684 C 0.65168 0.57889 0.98984 0.0
C1685 C 0.63612 0.56482 0.98695 0.0
C1686 C 0.69203 0.62765 0.00961 0.0
C1687 C 0.71179 0.62317 0.01423 0.0
C1688 C 0.67711 0.61289 0.00705 0.0
C1689 C 0.68149 0.59322 0.00911 0.0
C1690 C 0.70116 0.58864 0.01404 0.0
C1691 C 0.71619 0.60347 0.01649 0.0
H1692 H 0.25036 0.62703 0.21862 0.0
H1693 H 0.22165 0.65598 0.26449 0.0
H1694 H 0.22848 0.59809 0.22235 0.0
H1695 H 0.20023 0.62672 0.26897 0.0
H1696 H 0.15543 0.57502 0.26441 0.0
H1697 H 0.17381 0.60534 0.25649 0.0
H1698 H 0.22477 0.57255 0.24449 0.0
H1699 H 0.20622 0.5425 0.25157 0.0
C1700 C 0.23937 0.62711 0.22957 0.0
C1701 C 0.23777 0.64362 0.24138 0.0
C1702 C 0.22688 0.61051 0.2318 0.0
C1703 C 0.2127 0.60989 0.24615 0.0
C1704 C 0.21077 0.62669 0.25762 0.0
C1705 C 0.2231 0.64343 0.25516 0.0
C1706 C 0.17049 0.57435 0.25986 0.0
C1707 C 0.17934 0.55637 0.25852 0.0
C1708 C 0.18109 0.59173 0.25545 0.0
C1709 C 0.20082 0.59148 0.24982 0.0
C1710 C 0.2095 0.57339 0.24834 0.0
C1711 C 0.19886 0.55608 0.25251 0.0
H1712 H 0.90496 0.55713 0.01802 0.0
H1713 H 0.87187 0.51606 0.05297 0.0
H1714 H 0.87634 0.57728 0.0149 0.0
H1715 H 0.84304 0.53591 0.0495 0.0
H1716 H 0.80614 0.58868 0.06061 0.0
H1717 H 0.83254 0.56603 0.06108 0.0
H1718 H 0.84346 0.58007 0.00105 0.0
H1719 H 0.81736 0.60334 0.00082 0.0
C1720 C 0.89145 0.55227 0.02479 0.0
C1721 C 0.89072 0.53508 0.03586 0.0
C1722 C 0.87499 0.56377 0.02294 0.0
C1723 C 0.85733 0.5583 0.03199 0.0
C1724 C 0.85648 0.54081 0.04264 0.0
C1725 C 0.873 0.5294 0.04462 0.0
C1726 C 0.81402 0.58683 0.04742 0.0
C1727 C 0.8097 0.59795 0.03072 0.0
C1728 C 0.82913 0.57371 0.04765 0.0
C1729 C 0.84026 0.57123 0.03113 0.0
C1730 C 0.83545 0.58185 0.01416 0.0
C1731 C 0.82037 0.59509 0.01397 0.0
H1732 H 0.10823 0.94413 0.99039 0.0
H1733 H 0.14346 0.99025 0.02056 0.0
H1734 H 0.13764 0.92526 0.98832 0.0
H1735 H 0.17306 0.9718 0.01795 0.0
H1736 H 0.21415 0.92262 0.03379 0.0
H1737 H 0.18686 0.94419 0.03213 0.0
H1738 H 0.16877 0.92184 0.97455 0.0
H1739 H 0.19578 0.89957 0.97659 0.0
C1740 C 0.12236 0.95036 0.99627 0.0
C1741 C 0.12354 0.96855 0.0058 0.0
C1742 C 0.13927 0.9396 0.99501 0.0
C1743 C 0.15779 0.94691 0.00307 0.0
C1744 C 0.15901 0.96548 0.01196 0.0
C1745 C 0.14207 0.9761 0.01342 0.0
C1746 C 0.20452 0.92243 0.02065 0.0
C1747 C 0.20708 0.90924 0.00538 0.0
C1748 C 0.18887 0.93494 0.01964 0.0
C1749 C 0.17546 0.93475 0.00324 0.0
C1750 C 0.17855 0.92214 0.98757 0.0
C1751 C 0.19415 0.90948 0.98866 0.0
loop_
_geom_bond_atom_site_label_1
_geom_bond_atom_site_label_2
_geom_bond_distance
_geom_bond_site_symmetry_2
_ccdc_geom_bond_type
C0 C1 1.386 . S
C0 C2 1.397 . S
C0 H24 0.931 . S
C1 C0 1.386 . S
C1 C5 1.397 . S
C2 C0 1.397 . S
C2 C3 1.384 1_556 S
C2 H25 0.930 . S
C3 C2 1.384 1_554 S
C3 C4 1.377 . S
C3 C6 1.481 . S
C4 C3 1.377 . S
C4 C5 1.389 1_554 S
C4 H26 0.929 . S
C5 C1 1.397 . S
C5 C4 1.389 1_556 S
C5 H27 0.931 1_556 S
C6 C3 1.481 . S
C6 C7 1.387 . S
C6 C11 1.390 . S
C7 C6 1.387 . S
C7 C8 1.401 . S
C7 H28 0.930 . S
C8 C7 1.401 . S
C8 C9 1.376 . S
C8 C17 1.511 . S
C9 C8 1.376 . S
C9 C10 1.392 . S
C9 H30 0.931 . S
C10 C9 1.392 . S
C10 C11 1.361 . S
C10 C12 1.500 . S
C11 C6 1.390 . S
C11 C10 1.361 . S
C11 H29 0.931 . S
C12 C10 1.500 . S
C12 C13 1.371 . S
C12 C14 1.365 . S
C13 C12 1.371 . S
C13 C23 1.386 1_455 S
C13 H31 0.931 . S
C14 C12 1.365 . S
C14 C15 1.409 1_455 S
C14 H32 0.929 . S
C15 C14 1.409 1_655 S
C15 C16 1.380 . S
C15 H33 0.930 . S
C16 C15 1.380 . S
C16 C23 1.357 . S
C17 C8 1.511 . S
C17 C18 1.341 . S
C17 C19 1.371 1_545 S
C18 C17 1.341 . S
C18 C22 1.394 1_545 S
C18 H34 0.930 1_554 S
C19 C17 1.371 1_565 S
C19 C20 1.392 . S
C19 H35 0.931 . S
C20 C19 1.392 . S
C20 C21 1.331 . S
C20 H38 0.932 . S
C21 C20 1.331 . S
C21 C22 1.336 . S
C22 C18 1.394 1_565 S
C22 C21 1.336 . S
C22 H37 0.929 1_554 S
C23 C13 1.386 1_655 S
C23 C16 1.357 . S
C23 H36 0.923 1_545 S
H24 C0 0.931 . S
H25 C2 0.930 . S
H26 C4 0.929 . S
H27 C5 0.931 1_554 S
H28 C7 0.930 . S
H29 C11 0.931 . S
H30 C9 0.931 . S
H31 C13 0.931 . S
H32 C14 0.929 . S
H33 C15 0.930 . S
H34 C18 0.930 1_556 S
H35 C19 0.931 . S
H36 C23 0.923 1_565 S
H37 C22 0.929 1_556 S
H38 C20 0.932 . S
C39 C40 1.386 . S
C39 C41 1.397 . S
C39 H63 0.931 . S
C40 C39 1.386 . S
C40 C44 1.397 . S
C41 C39 1.397 . S
C41 C42 1.384 . S
C41 H64 0.930 . S
C42 C41 1.384 . S
C42 C43 1.377 . S
C42 C45 1.481 . S
C43 C42 1.377 . S
C43 C44 1.389 . S
C43 H65 0.929 . S
C44 C40 1.397 . S
C44 C43 1.389 . S
C44 H66 0.931 . S
C45 C42 1.481 . S
C45 C46 1.387 . S
C45 C50 1.390 . S
C46 C45 1.387 . S
C46 C47 1.401 . S
C46 H67 0.930 . S
C47 C46 1.401 . S
C47 C48 1.376 . S
C47 C56 1.511 . S
C48 C47 1.376 . S
C48 C49 1.392 . S
C48 H69 0.931 . S
C49 C48 1.392 . S
C49 C50 1.361 . S
C49 C51 1.500 . S
C50 C45 1.390 . S
C50 C49 1.361 . S
C50 H68 0.931 . S
C51 C49 1.500 . S
C51 C52 1.371 . S
C51 C53 1.365 . S
C52 C51 1.371 . S
C52 C62 1.386 . S
C52 H70 0.931 . S
C53 C51 1.365 . S
C53 C54 1.409 . S
C53 H71 0.929 . S
C54 C53 1.409 . S
C54 C55 1.380 . S
C54 H72 0.930 . S
C55 C54 1.380 . S
C55 C62 1.357 . S
C56 C47 1.511 . S
C56 C57 1.341 . S
C56 C58 1.371 . S
C57 C56 1.341 . S
C57 C61 1.394 . S
C57 H73 0.930 . S
C58 C56 1.371 . S
C58 C59 1.392 . S
C58 H74 0.931 . S
C59 C58 1.392 . S
C59 C60 1.331 . S
C59 H77 0.932 . S
C60 C59 1.331 . S
C60 C61 1.336 . S
C61 C57 1.394 . S
C61 C60 1.336 . S
C61 H76 0.929 . S
C62 C52 1.386 . S
C62 C55 1.357 . S
C62 H75 0.928 . S
H63 C39 0.931 . S
H64 C41 0.930 . S
H65 C43 0.929 . S
H66 C44 0.931 . S
H67 C46 0.930 . S
H68 C50 0.931 . S
H69 C48 0.931 . S
H70 C52 0.931 . S
H71 C53 0.929 . S
H72 C54 0.930 . S
H73 C57 0.930 . S
H74 C58 0.931 . S
H75 C62 0.928 . S
H76 C61 0.929 . S
H77 C59 0.932 . S
C78 C79 1.386 . S
C78 C80 1.397 1_455 S
C78 H102 0.931 . S
C79 C78 1.386 . S
C79 C83 1.397 . S
C80 C78 1.397 1_655 S
C80 C81 1.384 1_655 S
C80 H103 0.930 . S
C81 C80 1.384 1_455 S
C81 C82 1.377 . S
C81 C84 1.481 1_455 S
C82 C81 1.377 . S
C82 C83 1.389 . S
C82 H104 0.929 . S
C83 C79 1.397 . S
C83 C82 1.389 . S
C83 H105 0.931 . S
C84 C81 1.481 1_655 S
C84 C85 1.387 . S
C84 C89 1.390 . S
C85 C84 1.387 . S
C85 C86 1.401 . S
C85 H106 0.930 . S
C86 C85 1.401 . S
C86 C87 1.376 . S
C86 C95 1.511 . S
C87 C86 1.376 . S
C87 C88 1.392 . S
C87 H108 0.931 . S
C88 C87 1.392 . S
C88 C89 1.361 . S
C88 C90 1.500 . S
C89 C84 1.390 . S
C89 C88 1.361 . S
C89 H107 0.931 1_655 S
C90 C88 1.500 . S
C90 C91 1.371 . S
C90 C92 1.365 1_655 S
C91 C90 1.371 . S
C91 C101 1.386 1_554 S
C91 H109 0.931 . S
C92 C90 1.365 1_455 S
C92 C93 1.409 . S
C92 H110 0.929 . S
C93 C92 1.409 . S
C93 C94 1.380 1_454 S
C93 H111 0.930 . S
C94 C93 1.380 1_656 S
C94 C101 1.357 . S
C95 C86 1.511 . S
C95 C96 1.341 . S
C95 C97 1.371 . S
C96 C95 1.341 . S
C96 C100 1.394 . S
C96 H112 0.930 . S
C97 C95 1.371 . S
C97 C98 1.392 . S
C97 H113 0.931 . S
C98 C97 1.392 . S
C98 C99 1.331 . S
C98 H116 0.932 . S
C99 C98 1.331 . S
C99 C100 1.336 . S
C100 C96 1.394 . S
C100 C99 1.336 . S
C100 H115 0.929 . S
C101 C91 1.386 1_556 S
C101 C94 1.357 . S
C101 H114 0.928 . S
H102 C78 0.931 . S
H103 C80 0.930 . S
H104 C82 0.929 . S
H105 C83 0.931 . S
H106 C85 0.930 . S
H107 C89 0.931 1_455 S
H108 C87 0.931 . S
H109 C91 0.931 . S
H110 C92 0.929 . S
H111 C93 0.930 . S
H112 C96 0.930 . S
H113 C97 0.931 . S
H114 C101 0.928 . S
H115 C100 0.929 . S
H116 C98 0.932 . S
C117 C118 1.386 . S
C117 C119 1.397 . S
C117 H141 0.931 . S
C118 C117 1.386 . S
C118 C122 1.397 . S
C119 C117 1.397 . S
C119 C120 1.384 . S
C119 H142 0.930 . S
C120 C119 1.384 . S
C120 C121 1.377 . S
C120 C123 1.481 . S
C121 C120 1.377 . S
C121 C122 1.389 . S
C121 H143 0.929 . S
C122 C118 1.397 . S
C122 C121 1.389 . S
C122 H144 0.931 . S
C123 C120 1.481 . S
C123 C124 1.387 . S
C123 C128 1.390 . S
C124 C123 1.387 . S
C124 C125 1.401 . S
C124 H145 0.930 . S
C125 C124 1.401 . S
C125 C126 1.376 . S
C125 C134 1.511 . S
C126 C125 1.376 . S
C126 C127 1.392 . S
C126 H147 0.931 . S
C127 C126 1.392 . S
C127 C128 1.361 . S
C127 C129 1.500 . S
C128 C123 1.390 . S
C128 C127 1.361 . S
C128 H146 0.931 . S
C129 C127 1.500 . S
C129 C130 1.371 . S
C129 C131 1.365 . S
C130 C129 1.371 . S
C130 C140 1.386 . S
C130 H148 0.931 . S
C131 C129 1.365 . S
C131 C132 1.409 . S
C131 H149 0.929 . S
C132 C131 1.409 . S
C132 C133 1.380 . S
C132 H150 0.930 . S
C133 C132 1.380 . S
C133 C140 1.357 . S
C134 C125 1.511 . S
C134 C135 1.341 . S
C134 C136 1.371 . S
C135 C134 1.341 . S
C135 C139 1.394 . S
C135 H151 0.930 . S
C136 C134 1.371 . S
C136 C137 1.392 . S
C136 H152 0.931 . S
C137 C136 1.392 . S
C137 C138 1.331 . S
C137 H155 0.932 . S
C138 C137 1.331 . S
C138 C139 1.336 . S
C139 C135 1.394 . S
C139 C138 1.336 . S
C139 H154 0.929 . S
C140 C130 1.386 . S
C140 C133 1.357 . S
C140 H153 0.928 . S
H141 C117 0.931 . S
H142 C119 0.930 . S
H143 C121 0.929 . S
H144 C122 0.931 . S
H145 C124 0.930 . S
H146 C128 0.931 . S
H147 C126 0.931 . S
H148 C130 0.931 . S
H149 C131 0.929 . S
H150 C132 0.930 . S
H151 C135 0.930 . S
H152 C136 0.931 . S
H153 C140 0.928 . S
H154 C139 0.929 . S
H155 C137 0.932 . S
C156 C157 1.375 1_655 S
C156 C158 1.397 1_655 S
C156 H180 0.931 . S
C157 C156 1.375 1_455 S
C157 C161 1.425 . S
C158 C156 1.397 1_455 S
C158 C159 1.384 . S
C158 H181 0.932 . S
C159 C158 1.384 . S
C159 C160 1.377 . S
C159 C162 1.481 . S
C160 C159 1.377 . S
C160 C161 1.389 . S
C160 H182 0.929 . S
C161 C157 1.425 . S
C161 C160 1.389 . S
C161 H183 0.931 . S
C162 C159 1.481 . S
C162 C163 1.387 . S
C162 C167 1.390 . S
C163 C162 1.387 . S
C163 C164 1.401 . S
C163 H184 0.930 . S
C164 C163 1.401 . S
C164 C165 1.376 . S
C164 C173 1.511 . S
C165 C164 1.376 . S
C165 C166 1.392 . S
C165 H186 0.931 . S
C166 C165 1.392 . S
C166 C167 1.361 . S
C166 C168 1.500 . S
C167 C162 1.390 . S
C167 C166 1.361 . S
C167 H185 0.931 . S
C168 C166 1.500 . S
C168 C169 1.371 1_565 S
C168 C170 1.365 1_565 S
C169 C168 1.371 1_545 S
C169 C179 1.386 . S
C169 H187 0.931 1_545 S
C170 C168 1.365 1_545 S
C170 C171 1.409 . S
C170 H188 0.929 . S
C171 C170 1.409 . S
C171 C172 1.380 . S
C171 H189 0.930 . S
C172 C171 1.380 . S
C172 C179 1.357 . S
C173 C164 1.511 . S
C173 C174 1.341 . S
C173 C175 1.371 . S
C174 C173 1.341 . S
C174 C178 1.394 . S
C174 H190 0.930 . S
C175 C173 1.371 . S
C175 C176 1.392 . S
C175 H191 0.931 . S
C176 C175 1.392 . S
C176 C177 1.331 . S
C176 H194 0.932 . S
C177 C176 1.331 . S
C177 C178 1.336 . S
C178 C174 1.394 . S
C178 C177 1.336 . S
C178 H193 0.929 . S
C179 C169 1.386 . S
C179 C172 1.357 . S
C179 H192 0.928 . S
H180 C156 0.931 . S
H181 C158 0.932 . S
H182 C160 0.929 . S
H183 C161 0.931 . S
H184 C163 0.930 . S
H185 C167 0.931 . S
H186 C165 0.931 . S
H187 C169 0.931 1_565 S
H188 C170 0.929 . S
H189 C171 0.930 . S
H190 C174 0.930 . S
H191 C175 0.931 . S
H192 C179 0.928 . S
H193 C178 0.929 . S
H194 C176 0.932 . S
C195 C196 1.386 . S
C195 C197 1.397 . S
C195 H219 0.931 . S
C196 C195 1.386 . S
C196 C200 1.397 . S
C197 C195 1.397 . S
C197 C198 1.384 . S
C197 H220 0.930 . S
C198 C197 1.384 . S
C198 C199 1.377 . S
C198 C201 1.481 . S
C199 C198 1.377 . S
C199 C200 1.389 . S
C199 H221 0.929 . S
C200 C196 1.397 . S
C200 C199 1.389 . S
C200 H222 0.931 . S
C201 C198 1.481 . S
C201 C202 1.387 . S
C201 C206 1.390 . S
C202 C201 1.387 . S
C202 C203 1.401 . S
C202 H223 0.930 . S
C203 C202 1.401 . S
C203 C204 1.376 . S
C203 C212 1.511 . S
C204 C203 1.376 . S
C204 C205 1.392 . S
C204 H225 0.931 . S
C205 C204 1.392 . S
C205 C206 1.361 . S
C205 C207 1.500 . S
C206 C201 1.390 . S
C206 C205 1.361 . S
C206 H224 0.931 . S
C207 C205 1.500 . S
C207 C208 1.371 . S
C207 C209 1.365 . S
C208 C207 1.371 . S
C208 C218 1.386 . S
C208 H226 0.931 . S
C209 C207 1.365 . S
C209 C210 1.409 . S
C209 H227 0.929 . S
C210 C209 1.409 . S
C210 C211 1.380 . S
C210 H228 0.930 . S
C211 C210 1.380 . S
C211 C218 1.357 . S
C212 C203 1.511 . S
C212 C213 1.341 . S
C212 C214 1.371 . S
C213 C212 1.341 . S
C213 C217 1.394 . S
C213 H229 0.930 . S
C214 C212 1.371 . S
C214 C215 1.392 . S
C214 H230 0.931 . S
C215 C214 1.392 . S
C215 C216 1.331 . S
C215 H233 0.932 . S
C216 C215 1.331 . S
C216 C217 1.336 . S
C217 C213 1.394 . S
C217 C216 1.336 . S
C217 H232 0.929 . S
C218 C208 1.386 . S
C218 C211 1.357 . S
C218 H231 0.928 . S
H219 C195 0.931 . S
H220 C197 0.930 . S
H221 C199 0.929 . S
H222 C200 0.931 . S
H223 C202 0.930 . S
H224 C206 0.931 . S
H225 C204 0.931 . S
H226 C208 0.931 . S
H227 C209 0.929 . S
H228 C210 0.930 . S
H229 C213 0.930 . S
H230 C214 0.931 . S
H231 C218 0.928 . S
H232 C217 0.929 . S
H233 C215 0.932 . S
C234 C235 1.386 . S
C234 C236 1.397 . S
C234 H258 0.931 . S
C235 C234 1.386 . S
C235 C239 1.397 . S
C236 C234 1.397 . S
C236 C237 1.384 . S
C236 H259 0.930 . S
C237 C236 1.384 . S
C237 C238 1.377 . S
C237 C240 1.481 . S
C238 C237 1.377 . S
C238 C239 1.389 . S
C238 H260 0.929 . S
C239 C235 1.397 . S
C239 C238 1.389 . S
C239 H261 0.931 . S
C240 C237 1.481 . S
C240 C241 1.387 . S
C240 C245 1.390 . S
C241 C240 1.387 . S
C241 C242 1.401 . S
C241 H262 0.930 . S
C242 C241 1.401 . S
C242 C243 1.376 . S
C242 C251 1.511 . S
C243 C242 1.376 . S
C243 C244 1.392 . S
C243 H264 0.931 . S
C244 C243 1.392 . S
C244 C245 1.361 . S
C244 C246 1.500 . S
C245 C240 1.390 . S
C245 C244 1.361 . S
C245 H263 0.931 . S
C246 C244 1.500 . S
C246 C247 1.371 . S
C246 C248 1.365 . S
C247 C246 1.371 . S
C247 C257 1.386 . S
C247 H265 0.931 . S
C248 C246 1.365 . S
C248 C249 1.409 . S
C248 H266 0.929 . S
C249 C248 1.409 . S
C249 C250 1.380 . S
C249 H267 0.930 . S
C250 C249 1.380 . S
C250 C257 1.357 . S
C251 C242 1.511 . S
C251 C252 1.341 1_655 S
C251 C253 1.371 . S
C252 C251 1.341 1_455 S
C252 C256 1.394 . S
C252 H268 0.930 . S
C253 C251 1.371 . S
C253 C254 1.392 1_655 S
C253 H269 0.931 . S
C254 C253 1.392 1_455 S
C254 C255 1.331 . S
C254 H272 0.932 . S
C255 C254 1.331 . S
C255 C256 1.336 . S
C256 C252 1.394 . S
C256 C255 1.336 . S
C256 H271 0.929 . S
C257 C247 1.386 . S
C257 C250 1.357 . S
C257 H270 0.928 . S
H258 C234 0.931 . S
H259 C236 0.930 . S
H260 C238 0.929 . S
H261 C239 0.931 . S
H262 C241 0.930 . S
H263 C245 0.931 . S
H264 C243 0.931 . S
H265 C247 0.931 . S
H266 C248 0.929 . S
H267 C249 0.930 . S
H268 C252 0.930 . S
H269 C253 0.931 . S
H270 C257 0.928 . S
H271 C256 0.929 . S
H272 C254 0.932 . S
C273 C274 1.386 . S
C273 C275 1.397 . S
C273 H297 0.931 . S
C274 C273 1.386 . S
C274 C278 1.397 . S
C275 C273 1.397 . S
C275 C276 1.384 . S
C275 H298 0.930 . S
C276 C275 1.384 . S
C276 C277 1.377 . S
C276 C279 1.481 . S
C277 C276 1.377 . S
C277 C278 1.389 . S
C277 H299 0.929 . S
C278 C274 1.397 . S
C278 C277 1.389 . S
C278 H300 0.931 . S
C279 C276 1.481 . S
C279 C280 1.387 . S
C279 C284 1.390 . S
C280 C279 1.387 . S
C280 C281 1.401 . S
C280 H301 0.930 . S
C281 C280 1.401 . S
C281 C282 1.376 . S
C281 C290 1.511 . S
C282 C281 1.376 . S
C282 C283 1.392 . S
C282 H303 0.931 . S
C283 C282 1.392 . S
C283 C284 1.361 . S
C283 C285 1.500 . S
C284 C279 1.390 . S
C284 C283 1.361 . S
C284 H302 0.931 . S
C285 C283 1.500 . S
C285 C286 1.371 . S
C285 C287 1.365 . S
C286 C285 1.371 . S
C286 C296 1.386 . S
C286 H304 0.931 . S
C287 C285 1.365 . S
C287 C288 1.409 . S
C287 H305 0.929 . S
C288 C287 1.409 . S
C288 C289 1.380 . S
C288 H306 0.930 . S
C289 C288 1.380 . S
C289 C296 1.357 . S
C290 C281 1.511 . S
C290 C291 1.341 . S
C290 C292 1.371 . S
C291 C290 1.341 . S
C291 C295 1.394 . S
C291 H307 0.930 . S
C292 C290 1.371 . S
C292 C293 1.392 . S
C292 H308 0.931 . S
C293 C292 1.392 . S
C293 C294 1.331 . S
C293 H311 0.932 . S
C294 C293 1.331 . S
C294 C295 1.336 . S
C295 C291 1.394 . S
C295 C294 1.336 . S
C295 H310 0.929 . S
C296 C286 1.386 . S
C296 C289 1.357 . S
C296 H309 0.928 . S
H297 C273 0.931 . S
H298 C275 0.930 . S
H299 C277 0.929 . S
H300 C278 0.931 . S
H301 C280 0.930 . S
H302 C284 0.931 . S
H303 C282 0.931 . S
H304 C286 0.931 . S
H305 C287 0.929 . S
H306 C288 0.930 . S
H307 C291 0.930 . S
H308 C292 0.931 . S
H309 C296 0.928 . S
H310 C295 0.929 . S
H311 C293 0.932 . S
C312 C313 1.386 . S
C312 C314 1.397 . S
C312 H336 0.931 . S
C313 C312 1.386 . S
C313 C317 1.397 . S
C314 C312 1.397 . S
C314 C315 1.384 . S
C314 H337 0.930 . S
C315 C314 1.384 . S
C315 C316 1.377 . S
C315 C318 1.481 . S
C316 C315 1.377 . S
C316 C317 1.389 . S
C316 H338 0.929 . S
C317 C313 1.397 . S
C317 C316 1.389 . S
C317 H339 0.931 . S
C318 C315 1.481 . S
C318 C319 1.387 . S
C318 C323 1.390 . S
C319 C318 1.387 . S
C319 C320 1.401 . S
C319 H340 0.930 . S
C320 C319 1.401 . S
C320 C321 1.376 . S
C320 C329 1.511 . S
C321 C320 1.376 . S
C321 C322 1.392 . S
C321 H342 0.931 . S
C322 C321 1.392 . S
C322 C323 1.361 . S
C322 C324 1.500 . S
C323 C318 1.390 . S
C323 C322 1.361 . S
C323 H341 0.931 . S
C324 C322 1.500 . S
C324 C325 1.371 . S
C324 C326 1.365 . S
C325 C324 1.371 . S
C325 C335 1.386 . S
C325 H343 0.931 . S
C326 C324 1.365 . S
C326 C327 1.409 . S
C326 H344 0.929 . S
C327 C326 1.409 . S
C327 C328 1.380 . S
C327 H345 0.930 . S
C328 C327 1.380 . S
C328 C335 1.357 . S
C329 C320 1.511 . S
C329 C330 1.341 . S
C329 C331 1.371 . S
C330 C329 1.341 . S
C330 C334 1.394 . S
C330 H346 0.930 . S
C331 C329 1.371 . S
C331 C332 1.392 . S
C331 H347 0.931 . S
C332 C331 1.392 . S
C332 C333 1.331 . S
C332 H350 0.932 . S
C333 C332 1.331 . S
C333 C334 1.336 . S
C334 C330 1.394 . S
C334 C333 1.336 . S
C334 H349 0.929 . S
C335 C325 1.386 . S
C335 C328 1.357 . S
C335 H348 0.928 . S
H336 C312 0.931 . S
H337 C314 0.930 . S
H338 C316 0.929 . S
H339 C317 0.931 . S
H340 C319 0.930 . S
H341 C323 0.931 . S
H342 C321 0.931 . S
H343 C325 0.931 . S
H344 C326 0.929 . S
H345 C327 0.930 . S
H346 C330 0.930 . S
H347 C331 0.931 . S
H348 C335 0.928 . S
H349 C334 0.929 . S
H350 C332 0.932 . S
C351 C352 1.386 . S
C351 C353 1.397 . S
C351 H375 0.931 . S
C352 C351 1.386 . S
C352 C356 1.397 . S
C353 C351 1.397 . S
C353 C354 1.384 . S
C353 H376 0.930 . S
C354 C353 1.384 . S
C354 C355 1.377 . S
C354 C357 1.481 . S
C355 C354 1.377 . S
C355 C356 1.389 . S
C355 H377 0.929 . S
C356 C352 1.397 . S
C356 C355 1.389 . S
C356 H378 0.931 . S
C357 C354 1.481 . S
C357 C358 1.387 . S
C357 C362 1.390 . S
C358 C357 1.387 . S
C358 C359 1.401 . S
C358 H379 0.930 . S
C359 C358 1.401 . S
C359 C360 1.376 . S
C359 C368 1.511 . S
C360 C359 1.376 . S
C360 C361 1.392 . S
C360 H381 0.931 . S
C361 C360 1.392 . S
C361 C362 1.361 . S
C361 C363 1.500 . S
C362 C357 1.390 . S
C362 C361 1.361 . S
C362 H380 0.931 . S
C363 C361 1.500 . S
C363 C364 1.371 . S
C363 C365 1.365 . S
C364 C363 1.371 . S
C364 C374 1.386 . S
C364 H382 0.931 . S
C365 C363 1.365 . S
C365 C366 1.409 . S
C365 H383 0.929 . S
C366 C365 1.409 . S
C366 C367 1.380 . S
C366 H384 0.930 . S
C367 C366 1.380 . S
C367 C374 1.357 . S
C368 C359 1.511 . S
C368 C369 1.341 1_565 S
C368 C370 1.371 . S
C369 C368 1.341 1_545 S
C369 C373 1.394 . S
C369 H385 0.930 . S
C370 C368 1.371 . S
C370 C371 1.392 1_565 S
C370 H386 0.931 . S
C371 C370 1.392 1_545 S
C371 C372 1.331 . S
C371 H389 0.932 . S
C372 C371 1.331 . S
C372 C373 1.336 . S
C373 C369 1.394 . S
C373 C372 1.336 . S
C373 H388 0.929 . S
C374 C364 1.386 . S
C374 C367 1.357 . S
C374 H387 0.928 . S
H375 C351 0.931 . S
H376 C353 0.930 . S
H377 C355 0.929 . S
H378 C356 0.931 . S
H379 C358 0.930 . S
H380 C362 0.931 . S
H381 C360 0.931 . S
H382 C364 0.931 . S
H383 C365 0.929 . S
H384 C366 0.930 . S
H385 C369 0.930 . S
H386 C370 0.931 . S
H387 C374 0.928 . S
H388 C373 0.929 . S
H389 C371 0.932 . S
C390 C391 1.386 . S
C390 C392 1.397 . S
C390 H414 0.931 . S
C391 C390 1.386 . S
C391 C395 1.397 . S
C392 C390 1.397 . S
C392 C393 1.384 . S
C392 H415 0.930 . S
C393 C392 1.384 . S
C393 C394 1.377 . S
C393 C396 1.481 . S
C394 C393 1.377 . S
C394 C395 1.389 . S
C394 H416 0.929 . S
C395 C391 1.397 . S
C395 C394 1.389 . S
C395 H417 0.931 . S
C396 C393 1.481 . S
C396 C397 1.387 . S
C396 C401 1.390 . S
C397 C396 1.387 . S
C397 C398 1.401 . S
C397 H418 0.930 . S
C398 C397 1.401 . S
C398 C399 1.376 . S
C398 C407 1.511 . S
C399 C398 1.376 . S
C399 C400 1.392 . S
C399 H420 0.931 . S
C400 C399 1.392 . S
C400 C401 1.361 . S
C400 C402 1.500 . S
C401 C396 1.390 . S
C401 C400 1.361 . S
C401 H419 0.931 . S
C402 C400 1.500 . S
C402 C403 1.371 . S
C402 C404 1.365 . S
C403 C402 1.371 . S
C403 C413 1.386 . S
C403 H421 0.931 . S
C404 C402 1.365 . S
C404 C405 1.409 . S
C404 H422 0.929 . S
C405 C404 1.409 . S
C405 C406 1.380 . S
C405 H423 0.930 . S
C406 C405 1.380 . S
C406 C413 1.357 . S
C407 C398 1.511 . S
C407 C408 1.341 . S
C407 C409 1.371 . S
C408 C407 1.341 . S
C408 C412 1.394 . S
C408 H424 0.930 . S
C409 C407 1.371 . S
C409 C410 1.392 . S
C409 H425 0.931 . S
C410 C409 1.392 . S
C410 C411 1.331 . S
C410 H428 0.932 . S
C411 C410 1.331 . S
C411 C412 1.336 . S
C412 C408 1.394 . S
C412 C411 1.336 . S
C412 H427 0.929 . S
C413 C403 1.386 . S
C413 C406 1.357 . S
C413 H426 0.928 . S
H414 C390 0.931 . S
H415 C392 0.930 . S
H416 C394 0.929 . S
H417 C395 0.931 . S
H418 C397 0.930 . S
H419 C401 0.931 . S
H420 C399 0.931 . S
H421 C403 0.931 . S
H422 C404 0.929 . S
H423 C405 0.930 . S
H424 C408 0.930 . S
H425 C409 0.931 . S
H426 C413 0.928 . S
H427 C412 0.929 . S
H428 C410 0.932 . S
C429 C430 1.386 . S
C429 C431 1.397 . S
C429 H453 0.931 . S
C430 C429 1.386 . S
C430 C434 1.397 . S
C431 C429 1.397 . S
C431 C432 1.384 . S
C431 H454 0.930 . S
C432 C431 1.384 . S
C432 C433 1.377 . S
C432 C435 1.481 . S
C433 C432 1.377 . S
C433 C434 1.389 . S
C433 H455 0.929 . S
C434 C430 1.397 . S
C434 C433 1.389 . S
C434 H456 0.931 . S
C435 C432 1.481 . S
C435 C436 1.387 . S
C435 C440 1.390 . S
C436 C435 1.387 . S
C436 C437 1.401 . S
C436 H457 0.930 . S
C437 C436 1.401 . S
C437 C438 1.376 . S
C437 C446 1.511 . S
C438 C437 1.376 . S
C438 C439 1.392 . S
C438 H459 0.931 . S
C439 C438 1.392 . S
C439 C440 1.361 . S
C439 C441 1.500 . S
C440 C435 1.390 . S
C440 C439 1.361 . S
C440 H458 0.931 . S
C441 C439 1.500 . S
C441 C442 1.371 . S
C441 C443 1.365 . S
C442 C441 1.371 . S
C442 C452 1.386 . S
C442 H460 0.931 . S
C443 C441 1.365 . S
C443 C444 1.409 . S
C443 H461 0.929 . S
C444 C443 1.409 . S
C444 C445 1.380 . S
C444 H462 0.930 . S
C445 C444 1.380 . S
C445 C452 1.357 . S
C446 C437 1.511 . S
C446 C447 1.341 . S
C446 C448 1.371 . S
C447 C446 1.341 . S
C447 C451 1.394 . S
C447 H463 0.930 . S
C448 C446 1.371 . S
C448 C449 1.392 . S
C448 H464 0.931 . S
C449 C448 1.392 . S
C449 C450 1.331 . S
C449 H467 0.932 . S
C450 C449 1.331 . S
C450 C451 1.336 . S
C451 C447 1.394 . S
C451 C450 1.336 . S
C451 H466 0.929 . S
C452 C442 1.386 . S
C452 C445 1.357 . S
C452 H465 0.928 . S
H453 C429 0.931 . S
H454 C431 0.930 . S
H455 C433 0.929 . S
H456 C434 0.931 . S
H457 C436 0.930 . S
H458 C440 0.931 . S
H459 C438 0.931 . S
H460 C442 0.931 . S
H461 C443 0.929 . S
H462 C444 0.930 . S
H463 C447 0.930 . S
H464 C448 0.931 . S
H465 C452 0.928 . S
H466 C451 0.929 . S
H467 C449 0.932 . S
C468 C469 1.386 . S
C468 C470 1.397 . S
C468 H492 0.931 . S
C469 C468 1.386 . S
C469 C473 1.397 . S
C470 C468 1.397 . S
C470 C471 1.384 . S
C470 H493 0.930 . S
C471 C470 1.384 . S
C471 C472 1.377 . S
C471 C474 1.481 . S
C472 C471 1.377 . S
C472 C473 1.389 . S
C472 H494 0.929 . S
C473 C469 1.397 . S
C473 C472 1.389 . S
C473 H495 0.931 . S
C474 C471 1.481 . S
C474 C475 1.387 . S
C474 C479 1.390 . S
C475 C474 1.387 . S
C475 C476 1.401 . S
C475 H496 0.930 . S
C476 C475 1.401 . S
C476 C477 1.376 . S
C476 C485 1.511 . S
C477 C476 1.376 . S
C477 C478 1.392 . S
C477 H498 0.931 . S
C478 C477 1.392 . S
C478 C479 1.361 . S
C478 C480 1.500 . S
C479 C474 1.390 . S
C479 C478 1.361 . S
C479 H497 0.931 . S
C480 C478 1.500 . S
C480 C481 1.371 . S
C480 C482 1.365 . S
C481 C480 1.371 . S
C481 C491 1.386 . S
C481 H499 0.931 . S
C482 C480 1.365 . S
C482 C483 1.409 . S
C482 H500 0.929 . S
C483 C482 1.409 . S
C483 C484 1.380 . S
C483 H501 0.930 . S
C484 C483 1.380 . S
C484 C491 1.357 . S
C485 C476 1.511 . S
C485 C486 1.341 . S
C485 C487 1.371 . S
C486 C485 1.341 . S
C486 C490 1.394 . S
C486 H502 0.930 . S
C487 C485 1.371 . S
C487 C488 1.392 . S
C487 H503 0.931 . S
C488 C487 1.392 . S
C488 C489 1.331 . S
C488 H506 0.932 . S
C489 C488 1.331 . S
C489 C490 1.336 . S
C490 C486 1.394 . S
C490 C489 1.336 . S
C490 H505 0.929 . S
C491 C481 1.386 . S
C491 C484 1.357 . S
C491 H504 0.928 . S
H492 C468 0.931 . S
H493 C470 0.930 . S
H494 C472 0.929 . S
H495 C473 0.931 . S
H496 C475 0.930 . S
H497 C479 0.931 . S
H498 C477 0.931 . S
H499 C481 0.931 . S
H500 C482 0.929 . S
H501 C483 0.930 . S
H502 C486 0.930 . S
H503 C487 0.931 . S
H504 C491 0.928 . S
H505 C490 0.929 . S
H506 C488 0.932 . S
C507 C508 1.386 . S
C507 C509 1.397 . S
C507 H531 0.931 . S
C508 C507 1.386 . S
C508 C512 1.397 . S
C509 C507 1.397 . S
C509 C510 1.384 . S
C509 H532 0.930 . S
C510 C509 1.384 . S
C510 C511 1.377 . S
C510 C513 1.481 . S
C511 C510 1.377 . S
C511 C512 1.389 . S
C511 H533 0.929 . S
C512 C508 1.397 . S
C512 C511 1.389 . S
C512 H534 0.931 . S
C513 C510 1.481 . S
C513 C514 1.387 . S
C513 C518 1.390 . S
C514 C513 1.387 . S
C514 C515 1.401 . S
C514 H535 0.930 . S
C515 C514 1.401 . S
C515 C516 1.376 . S
C515 C524 1.511 . S
C516 C515 1.376 . S
C516 C517 1.392 . S
C516 H537 0.931 . S
C517 C516 1.392 . S
C517 C518 1.361 . S
C517 C519 1.500 . S
C518 C513 1.390 . S
C518 C517 1.361 . S
C518 H536 0.931 . S
C519 C517 1.500 . S
C519 C520 1.371 . S
C519 C521 1.365 . S
C520 C519 1.371 . S
C520 C530 1.386 . S
C520 H538 0.891 1_556 S
C521 C519 1.365 . S
C521 C522 1.409 . S
C521 H539 0.929 . S
C522 C521 1.409 . S
C522 C523 1.380 . S
C522 H540 0.930 . S
C523 C522 1.380 . S
C523 C530 1.357 . S
C524 C515 1.511 . S
C524 C525 1.341 . S
C524 C526 1.371 1_556 S
C525 C524 1.341 . S
C525 C529 1.394 1_556 S
C525 H541 0.930 . S
C526 C524 1.371 1_554 S
C526 C527 1.392 . S
C526 H542 0.931 . S
C527 C526 1.392 . S
C527 C528 1.331 . S
C527 H545 0.932 . S
C528 C527 1.331 . S
C528 C529 1.336 . S
C529 C525 1.394 1_554 S
C529 C528 1.336 . S
C529 H544 0.929 . S
C530 C520 1.386 . S
C530 C523 1.357 . S
C530 H543 0.928 1_556 S
H531 C507 0.931 . S
H532 C509 0.930 . S
H533 C511 0.929 . S
H534 C512 0.931 . S
H535 C514 0.930 . S
H536 C518 0.931 . S
H537 C516 0.931 . S
H538 C520 0.891 1_554 S
H539 C521 0.929 . S
H540 C522 0.930 . S
H541 C525 0.930 . S
H542 C526 0.931 . S
H543 C530 0.928 1_554 S
H544 C529 0.929 . S
H545 C527 0.932 . S
C546 C547 1.386 . S
C546 C548 1.397 . S
C546 H570 0.931 . S
C547 C546 1.386 . S
C547 C551 1.397 . S
C548 C546 1.397 . S
C548 C549 1.384 . S
C548 H571 0.930 . S
C549 C548 1.384 . S
C549 C550 1.377 . S
C549 C552 1.481 . S
C550 C549 1.377 . S
C550 C551 1.389 . S
C550 H572 0.929 . S
C551 C547 1.397 . S
C551 C550 1.389 . S
C551 H573 0.931 . S
C552 C549 1.481 . S
C552 C553 1.387 . S
C552 C557 1.390 . S
C553 C552 1.387 . S
C553 C554 1.401 . S
C553 H574 0.930 . S
C554 C553 1.401 . S
C554 C555 1.376 . S
C554 C563 1.511 . S
C555 C554 1.376 . S
C555 C556 1.392 . S
C555 H576 0.931 . S
C556 C555 1.392 . S
C556 C557 1.361 . S
C556 C558 1.500 . S
C557 C552 1.390 . S
C557 C556 1.361 . S
C557 H575 0.931 . S
C558 C556 1.500 . S
C558 C559 1.371 . S
C558 C560 1.365 . S
C559 C558 1.371 . S
C559 C569 1.386 . S
C559 H577 0.931 . S
C560 C558 1.365 . S
C560 C561 1.409 . S
C560 H578 0.929 . S
C561 C560 1.409 . S
C561 C562 1.380 . S
C561 H579 0.930 . S
C562 C561 1.380 . S
C562 C569 1.357 . S
C563 C554 1.511 . S
C563 C564 1.341 . S
C563 C565 1.371 . S
C564 C563 1.341 . S
C564 C568 1.394 . S
C564 H580 0.930 . S
C565 C563 1.371 . S
C565 C566 1.392 . S
C565 H581 0.931 . S
C566 C565 1.392 . S
C566 C567 1.331 . S
C566 H584 0.932 . S
C567 C566 1.331 . S
C567 C568 1.336 . S
C568 C564 1.394 . S
C568 C567 1.336 . S
C568 H583 0.929 . S
C569 C559 1.386 . S
C569 C562 1.357 . S
C569 H582 0.928 . S
H570 C546 0.931 . S
H571 C548 0.930 . S
H572 C550 0.929 . S
H573 C551 0.931 . S
H574 C553 0.930 . S
H575 C557 0.931 . S
H576 C555 0.931 . S
H577 C559 0.931 . S
H578 C560 0.929 . S
H579 C561 0.930 . S
H580 C564 0.930 . S
H581 C565 0.931 . S
H582 C569 0.928 . S
H583 C568 0.929 . S
H584 C566 0.932 . S
C585 C586 1.386 . S
C585 C587 1.397 1_554 S
C585 H609 0.931 1_554 S
C586 C585 1.386 . S
C586 C590 1.397 . S
C587 C585 1.397 1_556 S
C587 C588 1.384 . S
C587 H610 0.930 . S
C588 C587 1.384 . S
C588 C589 1.377 1_556 S
C588 C591 1.481 . S
C589 C588 1.377 1_554 S
C589 C590 1.389 . S
C589 H611 0.929 . S
C590 C586 1.397 . S
C590 C589 1.389 . S
C590 H612 0.931 . S
C591 C588 1.481 . S
C591 C592 1.387 . S
C591 C596 1.390 . S
C592 C591 1.387 . S
C592 C593 1.401 . S
C592 H613 0.930 . S
C593 C592 1.401 . S
C593 C594 1.376 . S
C593 C602 1.511 . S
C594 C593 1.376 . S
C594 C595 1.392 . S
C594 H615 0.931 . S
C595 C594 1.392 . S
C595 C596 1.361 . S
C595 C597 1.500 . S
C596 C591 1.390 . S
C596 C595 1.361 . S
C596 H614 0.931 . S
C597 C595 1.500 . S
C597 C598 1.371 1_545 S
C597 C599 1.365 . S
C598 C597 1.371 1_565 S
C598 C608 1.386 . S
C598 H616 0.931 . S
C599 C597 1.365 . S
C599 C600 1.420 1_545 S
C599 H617 0.929 1_556 S
C600 C599 1.420 1_565 S
C600 C601 1.418 . S
C600 H618 0.883 1_556 S
C601 C600 1.418 . S
C601 C608 1.357 . S
C602 C593 1.511 . S
C602 C603 1.341 . S
C602 C604 1.371 . S
C603 C602 1.341 . S
C603 C607 1.394 . S
C603 H619 0.930 . S
C604 C602 1.371 . S
C604 C605 1.392 . S
C604 H620 0.931 1_545 S
C605 C604 1.392 . S
C605 C606 1.331 . S
C605 H623 0.932 1_545 S
C606 C605 1.331 . S
C606 C607 1.336 . S
C607 C603 1.394 . S
C607 C606 1.336 . S
C607 H622 0.929 . S
C608 C598 1.386 . S
C608 C601 1.357 . S
C608 H621 0.928 . S
H609 C585 0.931 1_556 S
H610 C587 0.930 . S
H611 C589 0.929 . S
H612 C590 0.931 . S
H613 C592 0.930 . S
H614 C596 0.931 . S
H615 C594 0.931 . S
H616 C598 0.931 . S
H617 C599 0.929 1_554 S
H618 C600 0.883 1_554 S
H619 C603 0.930 . S
H620 C604 0.931 1_565 S
H621 C608 0.928 . S
H622 C607 0.929 . S
H623 C605 0.932 1_565 S
Mg624 O625 2.034 . S
Mg624 O631 1.986 1_554 S
Mg624 O633 2.114 . S
Mg624 O634 2.251 . S
Mg624 O637 2.010 . S
O625 Mg624 2.034 . S
O625 C628 1.245 1_554 S
O626 Mg627 2.028 . S
O626 C628 1.248 . S
Mg627 O626 2.028 . S
Mg627 O632 2.032 . S
Mg627 O634 2.079 1_556 S
C628 O625 1.245 1_556 S
C628 O626 1.248 . S
C629 O630 1.264 . S
C629 O637 1.249 . S
O630 C629 1.264 . S
O631 Mg624 1.986 1_556 S
O631 C635 1.246 . S
O632 Mg627 2.032 . S
O632 C635 1.259 . S
O633 Mg624 2.114 . S
O633 C636 1.252 . S
O634 Mg624 2.251 . S
O634 Mg627 2.079 1_554 S
O634 C636 1.273 . S
C635 O631 1.246 . S
C635 O632 1.259 . S
C636 O633 1.252 . S
C636 O634 1.273 . S
O637 Mg624 2.010 . S
O637 C629 1.249 . S
Mg638 O639 2.028 . S
Mg638 O645 1.986 . S
Mg638 O647 2.114 . S
Mg638 O648 2.251 . S
Mg638 O651 2.010 . S
O639 Mg638 2.028 . S
O639 C642 1.250 . S
O640 Mg641 2.028 . S
O640 C642 1.248 . S
Mg641 O640 2.028 . S
Mg641 O646 2.032 . S
Mg641 O648 2.079 . S
C642 O639 1.250 . S
C642 O640 1.248 . S
C643 O644 1.264 . S
C643 O651 1.249 . S
O644 C643 1.264 . S
O645 Mg638 1.986 . S
O645 C649 1.246 . S
O646 Mg641 2.032 . S
O646 C649 1.259 . S
O647 Mg638 2.114 . S
O647 C650 1.252 . S
O648 Mg638 2.251 . S
O648 Mg641 2.079 . S
O648 C650 1.273 . S
C649 O645 1.246 . S
C649 O646 1.259 . S
C650 O647 1.252 . S
C650 O648 1.273 . S
O651 Mg638 2.010 . S
O651 C643 1.249 . S
Mg652 O653 2.028 . S
Mg652 O659 1.986 1_554 S
Mg652 O661 2.114 . S
Mg652 O662 2.251 . S
Mg652 O665 2.010 . S
O653 Mg652 2.028 . S
O653 C656 1.257 . S
O654 Mg655 2.028 . S
O654 C656 1.245 1_556 S
Mg655 O654 2.028 . S
Mg655 O660 2.032 . S
Mg655 O662 2.079 1_556 S
C656 O653 1.257 . S
C656 O654 1.245 1_554 S
C657 O658 1.264 . S
C657 O665 1.249 . S
O658 C657 1.264 . S
O659 Mg652 1.986 1_556 S
O659 C663 1.246 . S
O660 Mg655 2.032 . S
O660 C663 1.259 . S
O661 Mg652 2.114 . S
O661 C664 1.252 . S
O662 Mg652 2.251 . S
O662 Mg655 2.079 1_554 S
O662 C664 1.273 . S
C663 O659 1.246 . S
C663 O660 1.259 . S
C664 O661 1.252 . S
C664 O662 1.273 . S
O665 Mg652 2.010 . S
O665 C657 1.249 . S
Mg666 O667 2.028 . S
Mg666 O673 1.986 . S
Mg666 O675 2.114 . S
Mg666 O676 2.251 . S
Mg666 O679 2.010 . S
O667 Mg666 2.028 . S
O667 C670 1.250 1_545 S
O668 Mg669 2.028 . S
O668 C670 1.248 . S
Mg669 O668 2.028 . S
Mg669 O674 2.032 . S
Mg669 O676 2.079 1_565 S
C670 O667 1.250 1_565 S
C670 O668 1.248 . S
C671 O672 1.264 . S
C671 O679 1.249 . S
O672 C671 1.264 . S
O673 Mg666 1.986 . S
O673 C677 1.246 . S
O674 Mg669 2.032 . S
O674 C677 1.259 1_565 S
O675 Mg666 2.114 . S
O675 C678 1.252 . S
O676 Mg666 2.251 . S
O676 Mg669 2.079 1_545 S
O676 C678 1.273 . S
C677 O673 1.246 . S
C677 O674 1.259 1_545 S
C678 O675 1.252 . S
C678 O676 1.273 . S
O679 Mg666 2.010 . S
O679 C671 1.249 . S
Mg680 O681 2.028 . S
Mg680 O687 1.986 . S
Mg680 O689 2.114 . S
Mg680 O690 2.251 . S
Mg680 O693 2.010 . S
O681 Mg680 2.028 . S
O681 C684 1.250 . S
O682 Mg683 2.028 . S
O682 C684 1.248 . S
Mg683 O682 2.028 . S
Mg683 O688 2.032 . S
Mg683 O690 2.079 . S
C684 O681 1.250 . S
C684 O682 1.248 . S
C685 O686 1.264 . S
C685 O693 1.249 . S
O686 C685 1.264 . S
O687 Mg680 1.986 . S
O687 C691 1.246 . S
O688 Mg683 2.032 . S
O688 C691 1.259 . S
O689 Mg680 2.114 . S
O689 C692 1.252 . S
O690 Mg680 2.251 . S
O690 Mg683 2.079 . S
O690 C692 1.273 . S
C691 O687 1.246 . S
C691 O688 1.259 . S
C692 O689 1.252 . S
C692 O690 1.273 . S
O693 Mg680 2.010 . S
O693 C685 1.249 . S
Mg694 O695 2.028 . S
Mg694 O701 1.986 . S
Mg694 O703 2.114 . S
Mg694 O704 2.251 . S
Mg694 O707 2.010 . S
O695 Mg694 2.028 . S
O695 C698 1.250 . S
O696 Mg697 2.028 . S
O696 C698 1.248 . S
Mg697 O696 2.028 . S
Mg697 O702 2.032 . S
Mg697 O704 2.079 . S
C698 O695 1.250 . S
C698 O696 1.248 . S
C699 O700 1.264 . S
C699 O707 1.249 . S
O700 C699 1.264 . S
O701 Mg694 1.986 . S
O701 C705 1.246 . S
O702 Mg697 2.032 . S
O702 C705 1.259 . S
O703 Mg694 2.114 . S
O703 C706 1.252 . S
O704 Mg694 2.251 . S
O704 Mg697 2.079 . S
O704 C706 1.273 . S
C705 O701 1.246 . S
C705 O702 1.259 . S
C706 O703 1.252 . S
C706 O704 1.273 . S
O707 Mg694 2.010 . S
O707 C699 1.249 . S
Mg708 O709 2.028 . S
Mg708 O715 1.986 . S
Mg708 O717 2.114 . S
Mg708 O718 2.251 . S
Mg708 O721 2.010 . S
O709 Mg708 2.028 . S
O709 C712 1.250 . S
O710 Mg711 2.028 . S
O710 C712 1.248 . S
Mg711 O710 2.028 . S
Mg711 O716 2.032 . S
Mg711 O718 2.079 . S
C712 O709 1.250 . S
C712 O710 1.248 . S
C713 O714 1.264 . S
C713 O721 1.249 . S
O714 C713 1.264 . S
O715 Mg708 1.986 . S
O715 C719 1.246 . S
O716 Mg711 2.032 . S
O716 C719 1.259 . S
O717 Mg708 2.114 . S
O717 C720 1.252 . S
O718 Mg708 2.251 . S
O718 Mg711 2.079 . S
O718 C720 1.273 . S
C719 O715 1.246 . S
C719 O716 1.259 . S
C720 O717 1.252 . S
C720 O718 1.273 . S
O721 Mg708 2.010 . S
O721 C713 1.249 . S
Mg722 O723 2.028 1_545 S
Mg722 O729 1.986 1_545 S
Mg722 O731 2.114 . S
Mg722 O732 2.251 . S
Mg722 O735 2.010 . S
O723 Mg722 2.028 1_565 S
O723 C726 1.250 . S
O724 Mg725 2.028 . S
O724 C726 1.248 . S
Mg725 O724 2.028 . S
Mg725 O730 2.032 . S
Mg725 O732 2.079 1_565 S
C726 O723 1.250 . S
C726 O724 1.248 . S
C727 O728 1.264 . S
C727 O735 1.249 . S
O728 C727 1.264 . S
O729 Mg722 1.986 1_565 S
O729 C733 1.246 . S
O730 Mg725 2.032 . S
O730 C733 1.259 . S
O731 Mg722 2.114 . S
O731 C734 1.252 . S
O732 Mg722 2.251 . S
O732 Mg725 2.079 1_545 S
O732 C734 1.273 . S
C733 O729 1.246 . S
C733 O730 1.259 . S
C734 O731 1.252 . S
C734 O732 1.273 . S
O735 Mg722 2.010 . S
O735 C727 1.249 . S
Mg736 O737 2.028 . S
Mg736 O743 1.986 . S
Mg736 O745 2.114 . S
Mg736 O746 2.251 . S
Mg736 O749 2.010 . S
O737 Mg736 2.028 . S
O737 C740 1.250 1_455 S
O738 Mg739 2.028 . S
O738 C740 1.248 . S
Mg739 O738 2.028 . S
Mg739 O744 2.032 . S
Mg739 O746 2.079 1_655 S
C740 O737 1.250 1_655 S
C740 O738 1.248 . S
C741 O742 1.264 . S
C741 O749 1.249 . S
O742 C741 1.264 . S
O743 Mg736 1.986 . S
O743 C747 1.246 . S
O744 Mg739 2.032 . S
O744 C747 1.259 1_655 S
O745 Mg736 2.114 . S
O745 C748 1.252 . S
O746 Mg736 2.251 . S
O746 Mg739 2.079 1_455 S
O746 C748 1.273 . S
C747 O743 1.246 . S
C747 O744 1.259 1_455 S
C748 O745 1.252 . S
C748 O746 1.273 . S
O749 Mg736 2.010 . S
O749 C741 1.249 . S
Mg750 O751 2.028 . S
Mg750 O757 1.986 . S
Mg750 O759 2.114 . S
Mg750 O760 2.251 . S
Mg750 O763 2.010 . S
O751 Mg750 2.028 . S
O751 C754 1.250 . S
O752 Mg753 2.028 . S
O752 C754 1.248 . S
Mg753 O752 2.028 . S
Mg753 O758 2.032 . S
Mg753 O760 2.079 . S
C754 O751 1.250 . S
C754 O752 1.248 . S
C755 O756 1.264 . S
C755 O763 1.249 . S
O756 C755 1.264 . S
O757 Mg750 1.986 . S
O757 C761 1.246 . S
O758 Mg753 2.032 . S
O758 C761 1.259 . S
O759 Mg750 2.114 . S
O759 C762 1.252 . S
O760 Mg750 2.251 . S
O760 Mg753 2.079 . S
O760 C762 1.273 . S
C761 O757 1.246 . S
C761 O758 1.259 . S
C762 O759 1.252 . S
C762 O760 1.273 . S
O763 Mg750 2.010 . S
O763 C755 1.249 . S
Mg764 O765 2.028 1_655 S
Mg764 O771 2.001 . S
Mg764 O773 2.114 . S
Mg764 O774 2.251 1_655 S
Mg764 O777 2.010 . S
O765 Mg764 2.028 1_455 S
O765 C768 1.250 . S
O766 Mg767 2.028 . S
O766 C768 1.248 . S
Mg767 O766 2.028 . S
Mg767 O772 2.032 . S
Mg767 O774 2.079 . S
C768 O765 1.250 . S
C768 O766 1.248 . S
C769 O770 1.264 . S
C769 O777 1.249 . S
O770 C769 1.264 . S
O771 Mg764 2.001 . S
O771 C775 1.206 1_655 S
O772 Mg767 2.032 . S
O772 C775 1.259 . S
O773 Mg764 2.114 . S
O773 C776 1.252 . S
O774 Mg764 2.251 1_455 S
O774 Mg767 2.079 . S
O774 C776 1.273 1_455 S
C775 O771 1.206 1_455 S
C775 O772 1.259 . S
C776 O773 1.252 . S
C776 O774 1.273 1_655 S
O777 Mg764 2.010 . S
O777 C769 1.249 . S
Mg778 O779 2.028 . S
Mg778 O785 1.986 . S
Mg778 O787 2.114 . S
Mg778 O788 2.251 . S
Mg778 O791 2.010 . S
O779 Mg778 2.028 . S
O779 C782 1.250 . S
O780 Mg781 2.028 . S
O780 C782 1.248 . S
Mg781 O780 2.028 . S
Mg781 O786 2.032 . S
Mg781 O788 2.079 . S
C782 O779 1.250 . S
C782 O780 1.248 . S
C783 O784 1.264 . S
C783 O791 1.249 . S
O784 C783 1.264 . S
O785 Mg778 1.986 . S
O785 C789 1.246 . S
O786 Mg781 2.032 . S
O786 C789 1.259 . S
O787 Mg778 2.114 . S
O787 C790 1.252 . S
O788 Mg778 2.251 . S
O788 Mg781 2.079 . S
O788 C790 1.273 . S
C789 O785 1.246 . S
C789 O786 1.259 . S
C790 O787 1.252 . S
C790 O788 1.273 . S
O791 Mg778 2.010 . S
O791 C783 1.249 . S
H792 C800 0.950 . S
H793 C805 0.950 . S
H794 C802 0.950 . S
H795 C804 0.950 . S
H796 C806 0.950 . S
H797 C808 0.950 . S
H798 C810 0.950 . S
H799 C811 0.950 . S
C800 H792 0.950 . S
C800 C801 1.386 . S
C800 C802 1.391 . S
C801 C800 1.386 . S
C801 C805 1.393 . S
C802 H794 0.950 . S
C802 C800 1.391 . S
C802 C803 1.400 . S
C803 C802 1.400 . S
C803 C804 1.398 . S
C803 C809 1.491 . S
C804 H795 0.950 . S
C804 C803 1.398 . S
C804 C805 1.391 . S
C805 H793 0.950 . S
C805 C801 1.393 . S
C805 C804 1.391 . S
C806 H796 0.950 . S
C806 C807 1.386 . S
C806 C808 1.391 . S
C807 C806 1.386 . S
C807 C811 1.393 . S
C808 H797 0.950 . S
C808 C806 1.391 . S
C808 C809 1.400 . S
C809 C803 1.491 . S
C809 C808 1.400 . S
C809 C810 1.398 . S
C810 H798 0.950 . S
C810 C809 1.398 . S
C810 C811 1.391 . S
C811 H799 0.950 . S
C811 C807 1.393 . S
C811 C810 1.391 . S
H812 C820 0.950 . S
H813 C825 0.950 . S
H814 C822 0.950 . S
H815 C824 0.950 . S
H816 C826 0.950 . S
H817 C828 0.950 . S
H818 C830 0.950 . S
H819 C831 0.950 . S
C820 H812 0.950 . S
C820 C821 1.386 . S
C820 C822 1.391 . S
C821 C820 1.386 . S
C821 C825 1.393 . S
C822 H814 0.950 . S
C822 C820 1.391 . S
C822 C823 1.400 . S
C823 C822 1.400 . S
C823 C824 1.398 . S
C823 C829 1.491 . S
C824 H815 0.950 . S
C824 C823 1.398 . S
C824 C825 1.391 . S
C825 H813 0.950 . S
C825 C821 1.393 . S
C825 C824 1.391 . S
C826 H816 0.950 . S
C826 C827 1.386 . S
C826 C828 1.391 . S
C827 C826 1.386 . S
C827 C831 1.393 . S
C828 H817 0.950 . S
C828 C826 1.391 . S
C828 C829 1.400 . S
C829 C823 1.491 . S
C829 C828 1.400 . S
C829 C830 1.398 . S
C830 H818 0.950 . S
C830 C829 1.398 . S
C830 C831 1.391 . S
C831 H819 0.950 . S
C831 C827 1.393 . S
C831 C830 1.391 . S
H832 C840 0.950 . S
H833 C845 0.950 . S
H834 C842 0.950 . S
H835 C844 0.950 . S
H836 C846 0.950 . S
H837 C848 0.950 . S
H838 C850 0.950 . S
H839 C851 0.950 . S
C840 H832 0.950 . S
C840 C841 1.386 . S
C840 C842 1.391 . S
C841 C840 1.386 . S
C841 C845 1.393 . S
C842 H834 0.950 . S
C842 C840 1.391 . S
C842 C843 1.400 . S
C843 C842 1.400 . S
C843 C844 1.398 . S
C843 C849 1.491 . S
C844 H835 0.950 . S
C844 C843 1.398 . S
C844 C845 1.391 . S
C845 H833 0.950 . S
C845 C841 1.393 . S
C845 C844 1.391 . S
C846 H836 0.950 . S
C846 C847 1.386 . S
C846 C848 1.391 . S
C847 C846 1.386 . S
C847 C851 1.393 . S
C848 H837 0.950 . S
C848 C846 1.391 . S
C848 C849 1.400 . S
C849 C843 1.491 . S
C849 C848 1.400 . S
C849 C850 1.398 . S
C850 H838 0.950 . S
C850 C849 1.398 . S
C850 C851 1.391 . S
C851 H839 0.950 . S
C851 C847 1.393 . S
C851 C850 1.391 . S
H852 C860 0.950 . S
H853 C865 0.950 1_455 S
H854 C862 0.950 . S
H855 C864 0.944 1_545 S
H856 C866 0.950 . S
H857 C868 0.950 . S
H858 C870 0.950 . S
H859 C871 0.950 1_565 S
C860 H852 0.950 . S
C860 C861 1.386 . S
C860 C862 1.391 . S
C861 C860 1.386 . S
C861 C865 1.393 . S
C862 H854 0.950 . S
C862 C860 1.391 . S
C862 C863 1.400 . S
C863 C862 1.400 . S
C863 C864 1.400 . S
C863 C869 1.490 . S
C864 H855 0.944 1_565 S
C864 C863 1.400 . S
C864 C865 1.396 . S
C865 H853 0.950 1_655 S
C865 C861 1.393 . S
C865 C864 1.396 . S
C866 H856 0.950 . S
C866 C867 1.386 . S
C866 C868 1.391 . S
C867 C866 1.386 . S
C867 C871 1.393 . S
C868 H857 0.950 . S
C868 C866 1.391 . S
C868 C869 1.401 1_545 S
C869 C863 1.490 . S
C869 C868 1.401 1_565 S
C869 C870 1.398 . S
C870 H858 0.950 . S
C870 C869 1.398 . S
C870 C871 1.391 1_565 S
C871 H859 0.950 1_545 S
C871 C867 1.393 . S
C871 C870 1.391 1_545 S
H872 C880 0.950 . S
H873 C885 0.950 . S
H874 C882 0.950 . S
H875 C884 0.950 . S
H876 C886 0.950 . S
H877 C888 0.950 . S
H878 C890 0.950 . S
H879 C891 0.950 . S
C880 H872 0.950 . S
C880 C881 1.386 . S
C880 C882 1.391 . S
C881 C880 1.386 . S
C881 C885 1.393 . S
C882 H874 0.950 . S
C882 C880 1.391 . S
C882 C883 1.400 . S
C883 C882 1.400 . S
C883 C884 1.398 . S
C883 C889 1.491 . S
C884 H875 0.950 . S
C884 C883 1.398 . S
C884 C885 1.391 . S
C885 H873 0.950 . S
C885 C881 1.393 . S
C885 C884 1.391 . S
C886 H876 0.950 . S
C886 C887 1.386 . S
C886 C888 1.391 . S
C887 C886 1.386 . S
C887 C891 1.393 . S
C888 H877 0.950 . S
C888 C886 1.391 . S
C888 C889 1.400 . S
C889 C883 1.491 . S
C889 C888 1.400 . S
C889 C890 1.398 . S
C890 H878 0.950 . S
C890 C889 1.398 . S
C890 C891 1.391 . S
C891 H879 0.950 . S
C891 C887 1.393 . S
C891 C890 1.391 . S
H892 C900 0.950 . S
H893 C905 0.950 . S
H894 C902 0.950 . S
H895 C904 0.950 . S
H896 C906 0.950 . S
H897 C908 0.950 . S
H898 C910 0.950 . S
H899 C911 0.950 . S
C900 H892 0.950 . S
C900 C901 1.386 . S
C900 C902 1.391 . S
C901 C900 1.386 . S
C901 C905 1.393 . S
C902 H894 0.950 . S
C902 C900 1.391 . S
C902 C903 1.400 . S
C903 C902 1.400 . S
C903 C904 1.398 . S
C903 C909 1.491 . S
C904 H895 0.950 . S
C904 C903 1.398 . S
C904 C905 1.391 . S
C905 H893 0.950 . S
C905 C901 1.393 . S
C905 C904 1.391 . S
C906 H896 0.950 . S
C906 C907 1.386 . S
C906 C908 1.391 . S
C907 C906 1.386 . S
C907 C911 1.393 . S
C908 H897 0.950 . S
C908 C906 1.391 . S
C908 C909 1.400 . S
C909 C903 1.491 . S
C909 C908 1.400 . S
C909 C910 1.398 . S
C910 H898 0.950 . S
C910 C909 1.398 . S
C910 C911 1.391 . S
C911 H899 0.950 . S
C911 C907 1.393 . S
C911 C910 1.391 . S
H912 C920 0.950 . S
H913 C925 0.950 . S
H914 C922 0.950 . S
H915 C924 0.950 . S
H916 C926 0.950 . S
H917 C928 0.950 . S
H918 C930 0.950 . S
H919 C931 0.950 . S
C920 H912 0.950 . S
C920 C921 1.386 . S
C920 C922 1.391 . S
C921 C920 1.386 . S
C921 C925 1.393 . S
C922 H914 0.950 . S
C922 C920 1.391 . S
C922 C923 1.400 . S
C923 C922 1.400 . S
C923 C924 1.398 . S
C923 C929 1.491 . S
C924 H915 0.950 . S
C924 C923 1.398 . S
C924 C925 1.391 . S
C925 H913 0.950 . S
C925 C921 1.393 . S
C925 C924 1.391 . S
C926 H916 0.950 . S
C926 C927 1.386 . S
C926 C928 1.391 . S
C927 C926 1.386 . S
C927 C931 1.393 . S
C928 H917 0.950 . S
C928 C926 1.391 . S
C928 C929 1.400 . S
C929 C923 1.491 . S
C929 C928 1.400 . S
C929 C930 1.398 . S
C930 H918 0.950 . S
C930 C929 1.398 . S
C930 C931 1.391 . S
C931 H919 0.950 . S
C931 C927 1.393 . S
C931 C930 1.391 . S
H932 C940 0.950 1_545 S
H933 C945 0.950 . S
H934 C942 0.950 1_545 S
H935 C944 0.950 . S
H936 C946 0.950 . S
H937 C948 0.950 . S
H938 C950 0.950 . S
H939 C951 0.950 . S
C940 H932 0.950 1_565 S
C940 C941 1.386 . S
C940 C942 1.391 . S
C941 C940 1.386 . S
C941 C945 1.393 . S
C942 H934 0.950 1_565 S
C942 C940 1.391 . S
C942 C943 1.400 . S
C943 C942 1.400 . S
C943 C944 1.398 . S
C943 C949 1.491 . S
C944 H935 0.950 . S
C944 C943 1.398 . S
C944 C945 1.391 . S
C945 H933 0.950 . S
C945 C941 1.393 . S
C945 C944 1.391 . S
C946 H936 0.950 . S
C946 C947 1.386 . S
C946 C948 1.391 . S
C947 C946 1.386 . S
C947 C951 1.393 1_565 S
C948 H937 0.950 . S
C948 C946 1.391 . S
C948 C949 1.400 . S
C949 C943 1.491 . S
C949 C948 1.400 . S
C949 C950 1.398 1_565 S
C950 H938 0.950 . S
C950 C949 1.398 1_545 S
C950 C951 1.391 . S
C951 H939 0.950 . S
C951 C947 1.393 1_545 S
C951 C950 1.391 . S
H952 C960 0.950 . S
H953 C965 0.950 . S
H954 C962 0.950 . S
H955 C964 0.950 . S
H956 C966 0.950 . S
H957 C968 0.950 . S
H958 C970 0.950 . S
H959 C971 0.950 . S
C960 H952 0.950 . S
C960 C961 1.386 . S
C960 C962 1.391 . S
C961 C960 1.386 . S
C961 C965 1.393 . S
C962 H954 0.950 . S
C962 C960 1.391 . S
C962 C963 1.400 . S
C963 C962 1.400 . S
C963 C964 1.398 . S
C963 C969 1.491 . S
C964 H955 0.950 . S
C964 C963 1.398 . S
C964 C965 1.391 . S
C965 H953 0.950 . S
C965 C961 1.393 . S
C965 C964 1.391 . S
C966 H956 0.950 . S
C966 C967 1.386 . S
C966 C968 1.391 . S
C967 C966 1.386 . S
C967 C971 1.393 . S
C968 H957 0.950 . S
C968 C966 1.391 . S
C968 C969 1.400 . S
C969 C963 1.491 . S
C969 C968 1.400 . S
C969 C970 1.398 . S
C970 H958 0.950 . S
C970 C969 1.398 . S
C970 C971 1.391 . S
C971 H959 0.950 . S
C971 C967 1.393 . S
C971 C970 1.391 . S
H972 C980 0.950 . S
H973 C985 0.950 . S
H974 C982 0.950 . S
H975 C984 0.950 . S
H976 C986 0.950 . S
H977 C988 0.950 . S
H978 C990 0.950 . S
H979 C991 0.950 . S
C980 H972 0.950 . S
C980 C981 1.386 . S
C980 C982 1.391 . S
C981 C980 1.386 . S
C981 C985 1.393 . S
C982 H974 0.950 . S
C982 C980 1.391 . S
C982 C983 1.400 . S
C983 C982 1.400 . S
C983 C984 1.398 . S
C983 C989 1.491 . S
C984 H975 0.950 . S
C984 C983 1.398 . S
C984 C985 1.391 . S
C985 H973 0.950 . S
C985 C981 1.393 . S
C985 C984 1.391 . S
C986 H976 0.950 . S
C986 C987 1.386 . S
C986 C988 1.391 . S
C987 C986 1.386 . S
C987 C991 1.393 . S
C988 H977 0.950 . S
C988 C986 1.391 . S
C988 C989 1.400 . S
C989 C983 1.491 . S
C989 C988 1.400 . S
C989 C990 1.398 . S
C990 H978 0.950 . S
C990 C989 1.398 . S
C990 C991 1.391 . S
C991 H979 0.950 . S
C991 C987 1.393 . S
C991 C990 1.391 . S
H992 C1000 0.950 . S
H993 C1005 0.950 . S
H994 C1002 0.950 . S
H995 C1004 0.950 . S
H996 C1006 0.950 . S
H997 C1008 0.950 . S
H998 C1010 0.950 . S
H999 C1011 0.950 . S
C1000 H992 0.950 . S
C1000 C1001 1.386 . S
C1000 C1002 1.391 . S
C1001 C1000 1.386 . S
C1001 C1005 1.393 . S
C1002 H994 0.950 . S
C1002 C1000 1.391 . S
C1002 C1003 1.400 . S
C1003 C1002 1.400 . S
C1003 C1004 1.398 . S
C1003 C1009 1.491 . S
C1004 H995 0.950 . S
C1004 C1003 1.398 . S
C1004 C1005 1.391 . S
C1005 H993 0.950 . S
C1005 C1001 1.393 . S
C1005 C1004 1.391 . S
C1006 H996 0.950 . S
C1006 C1007 1.386 . S
C1006 C1008 1.391 . S
C1007 C1006 1.386 . S
C1007 C1011 1.393 . S
C1008 H997 0.950 . S
C1008 C1006 1.391 . S
C1008 C1009 1.400 . S
C1009 C1003 1.491 . S
C1009 C1008 1.400 . S
C1009 C1010 1.398 . S
C1010 H998 0.950 . S
C1010 C1009 1.398 . S
C1010 C1011 1.391 . S
C1011 H999 0.950 . S
C1011 C1007 1.393 . S
C1011 C1010 1.391 . S
H1012 C1020 0.950 . S
H1013 C1025 0.950 . S
H1014 C1022 0.950 . S
H1015 C1024 0.950 . S
H1016 C1026 0.950 . S
H1017 C1028 0.950 . S
H1018 C1030 0.950 . S
H1019 C1031 0.950 . S
C1020 H1012 0.950 . S
C1020 C1021 1.386 . S
C1020 C1022 1.391 . S
C1021 C1020 1.386 . S
C1021 C1025 1.393 . S
C1022 H1014 0.950 . S
C1022 C1020 1.391 . S
C1022 C1023 1.400 . S
C1023 C1022 1.400 . S
C1023 C1024 1.398 . S
C1023 C1029 1.491 . S
C1024 H1015 0.950 . S
C1024 C1023 1.398 . S
C1024 C1025 1.391 . S
C1025 H1013 0.950 . S
C1025 C1021 1.393 . S
C1025 C1024 1.391 . S
C1026 H1016 0.950 . S
C1026 C1027 1.386 . S
C1026 C1028 1.391 . S
C1027 C1026 1.386 . S
C1027 C1031 1.393 . S
C1028 H1017 0.950 . S
C1028 C1026 1.391 . S
C1028 C1029 1.400 . S
C1029 C1023 1.491 . S
C1029 C1028 1.400 . S
C1029 C1030 1.398 . S
C1030 H1018 0.950 . S
C1030 C1029 1.398 . S
C1030 C1031 1.391 . S
C1031 H1019 0.950 . S
C1031 C1027 1.393 . S
C1031 C1030 1.391 . S
H1032 C1040 0.950 . S
H1033 C1045 0.950 . S
H1034 C1042 0.950 . S
H1035 C1044 0.950 . S
H1036 C1046 0.950 . S
H1037 C1048 0.950 . S
H1038 C1050 0.950 . S
H1039 C1051 0.950 . S
C1040 H1032 0.950 . S
C1040 C1041 1.386 . S
C1040 C1042 1.391 . S
C1041 C1040 1.386 . S
C1041 C1045 1.393 . S
C1042 H1034 0.950 . S
C1042 C1040 1.391 . S
C1042 C1043 1.400 . S
C1043 C1042 1.400 . S
C1043 C1044 1.398 . S
C1043 C1049 1.491 . S
C1044 H1035 0.950 . S
C1044 C1043 1.398 . S
C1044 C1045 1.391 . S
C1045 H1033 0.950 . S
C1045 C1041 1.393 . S
C1045 C1044 1.391 . S
C1046 H1036 0.950 . S
C1046 C1047 1.386 . S
C1046 C1048 1.391 . S
C1047 C1046 1.386 . S
C1047 C1051 1.393 . S
C1048 H1037 0.950 . S
C1048 C1046 1.391 . S
C1048 C1049 1.400 . S
C1049 C1043 1.491 . S
C1049 C1048 1.400 . S
C1049 C1050 1.398 . S
C1050 H1038 0.950 . S
C1050 C1049 1.398 . S
C1050 C1051 1.391 . S
C1051 H1039 0.950 . S
C1051 C1047 1.393 . S
C1051 C1050 1.391 . S
H1052 C1060 0.950 . S
H1053 C1065 0.950 . S
H1054 C1062 0.950 . S
H1055 C1064 0.950 . S
H1056 C1066 0.950 . S
H1057 C1068 0.950 . S
H1058 C1070 0.950 . S
H1059 C1071 0.950 . S
C1060 H1052 0.950 . S
C1060 C1061 1.386 . S
C1060 C1062 1.391 . S
C1061 C1060 1.386 . S
C1061 C1065 1.393 . S
C1062 H1054 0.950 . S
C1062 C1060 1.391 . S
C1062 C1063 1.400 . S
C1063 C1062 1.400 . S
C1063 C1064 1.398 . S
C1063 C1069 1.491 . S
C1064 H1055 0.950 . S
C1064 C1063 1.398 . S
C1064 C1065 1.391 . S
C1065 H1053 0.950 . S
C1065 C1061 1.393 . S
C1065 C1064 1.391 . S
C1066 H1056 0.950 . S
C1066 C1067 1.386 . S
C1066 C1068 1.391 . S
C1067 C1066 1.386 . S
C1067 C1071 1.393 . S
C1068 H1057 0.950 . S
C1068 C1066 1.391 . S
C1068 C1069 1.400 . S
C1069 C1063 1.491 . S
C1069 C1068 1.400 . S
C1069 C1070 1.398 . S
C1070 H1058 0.950 . S
C1070 C1069 1.398 . S
C1070 C1071 1.391 . S
C1071 H1059 0.950 . S
C1071 C1067 1.393 . S
C1071 C1070 1.391 . S
H1072 C1080 0.950 . S
H1073 C1085 0.950 . S
H1074 C1082 0.950 . S
H1075 C1084 0.950 . S
H1076 C1086 0.950 . S
H1077 C1088 0.950 . S
H1078 C1090 0.950 . S
H1079 C1091 0.950 . S
C1080 H1072 0.950 . S
C1080 C1081 1.386 . S
C1080 C1082 1.391 . S
C1081 C1080 1.386 . S
C1081 C1085 1.393 . S
C1082 H1074 0.950 . S
C1082 C1080 1.391 . S
C1082 C1083 1.400 . S
C1083 C1082 1.400 . S
C1083 C1084 1.398 . S
C1083 C1089 1.491 . S
C1084 H1075 0.950 . S
C1084 C1083 1.398 . S
C1084 C1085 1.391 . S
C1085 H1073 0.950 . S
C1085 C1081 1.393 . S
C1085 C1084 1.391 . S
C1086 H1076 0.950 . S
C1086 C1087 1.386 . S
C1086 C1088 1.391 . S
C1087 C1086 1.386 . S
C1087 C1091 1.393 . S
C1088 H1077 0.950 . S
C1088 C1086 1.391 . S
C1088 C1089 1.400 . S
C1089 C1083 1.491 . S
C1089 C1088 1.400 . S
C1089 C1090 1.398 . S
C1090 H1078 0.950 . S
C1090 C1089 1.398 . S
C1090 C1091 1.391 . S
C1091 H1079 0.950 . S
C1091 C1087 1.393 . S
C1091 C1090 1.391 . S
H1092 C1100 0.950 1_455 S
H1093 C1105 0.950 . S
H1094 C1102 0.956 . S
H1095 C1104 0.950 . S
H1096 C1106 0.950 . S
H1097 C1108 0.950 . S
H1098 C1110 0.950 . S
H1099 C1111 0.950 . S
C1100 H1092 0.950 1_655 S
C1100 C1101 1.386 . S
C1100 C1102 1.391 1_655 S
C1101 C1100 1.386 . S
C1101 C1105 1.393 . S
C1102 H1094 0.956 . S
C1102 C1100 1.391 1_455 S
C1102 C1103 1.395 1_455 S
C1103 C1102 1.395 1_655 S
C1103 C1104 1.398 . S
C1103 C1109 1.491 . S
C1104 H1095 0.950 . S
C1104 C1103 1.398 . S
C1104 C1105 1.391 . S
C1105 H1093 0.950 . S
C1105 C1101 1.393 . S
C1105 C1104 1.391 . S
C1106 H1096 0.950 . S
C1106 C1107 1.386 . S
C1106 C1108 1.391 . S
C1107 C1106 1.386 . S
C1107 C1111 1.393 1_655 S
C1108 H1097 0.950 . S
C1108 C1106 1.391 . S
C1108 C1109 1.400 . S
C1109 C1103 1.491 . S
C1109 C1108 1.400 . S
C1109 C1110 1.398 1_655 S
C1110 H1098 0.950 . S
C1110 C1109 1.398 1_455 S
C1110 C1111 1.391 . S
C1111 H1099 0.950 . S
C1111 C1107 1.393 1_455 S
C1111 C1110 1.391 . S
H1112 C1120 0.950 . S
H1113 C1125 0.950 . S
H1114 C1122 0.950 . S
H1115 C1124 0.950 . S
H1116 C1126 0.950 . S
H1117 C1128 0.950 . S
H1118 C1130 0.950 . S
H1119 C1131 0.950 . S
C1120 H1112 0.950 . S
C1120 C1121 1.386 . S
C1120 C1122 1.391 . S
C1121 C1120 1.386 . S
C1121 C1125 1.393 . S
C1122 H1114 0.950 . S
C1122 C1120 1.391 . S
C1122 C1123 1.400 . S
C1123 C1122 1.400 . S
C1123 C1124 1.398 . S
C1123 C1129 1.491 . S
C1124 H1115 0.950 . S
C1124 C1123 1.398 . S
C1124 C1125 1.391 . S
C1125 H1113 0.950 . S
C1125 C1121 1.393 . S
C1125 C1124 1.391 . S
C1126 H1116 0.950 . S
C1126 C1127 1.386 . S
C1126 C1128 1.391 . S
C1127 C1126 1.386 . S
C1127 C1131 1.393 . S
C1128 H1117 0.950 . S
C1128 C1126 1.391 . S
C1128 C1129 1.400 . S
C1129 C1123 1.491 . S
C1129 C1128 1.400 . S
C1129 C1130 1.398 . S
C1130 H1118 0.950 . S
C1130 C1129 1.398 . S
C1130 C1131 1.391 . S
C1131 H1119 0.950 . S
C1131 C1127 1.393 . S
C1131 C1130 1.391 . S
H1132 C1140 0.950 . S
H1133 C1145 0.950 . S
H1134 C1142 0.950 . S
H1135 C1144 0.950 . S
H1136 C1146 0.950 . S
H1137 C1148 0.950 . S
H1138 C1150 0.950 . S
H1139 C1151 0.950 . S
C1140 H1132 0.950 . S
C1140 C1141 1.386 . S
C1140 C1142 1.391 . S
C1141 C1140 1.386 . S
C1141 C1145 1.393 . S
C1142 H1134 0.950 . S
C1142 C1140 1.391 . S
C1142 C1143 1.400 . S
C1143 C1142 1.400 . S
C1143 C1144 1.398 . S
C1143 C1149 1.491 . S
C1144 H1135 0.950 . S
C1144 C1143 1.398 . S
C1144 C1145 1.391 . S
C1145 H1133 0.950 . S
C1145 C1141 1.393 . S
C1145 C1144 1.391 . S
C1146 H1136 0.950 . S
C1146 C1147 1.386 . S
C1146 C1148 1.391 . S
C1147 C1146 1.386 . S
C1147 C1151 1.393 . S
C1148 H1137 0.950 . S
C1148 C1146 1.391 . S
C1148 C1149 1.400 . S
C1149 C1143 1.491 . S
C1149 C1148 1.400 . S
C1149 C1150 1.398 . S
C1150 H1138 0.950 . S
C1150 C1149 1.398 . S
C1150 C1151 1.391 . S
C1151 H1139 0.950 . S
C1151 C1147 1.393 . S
C1151 C1150 1.391 . S
H1152 C1160 0.950 . S
H1153 C1165 0.950 . S
H1154 C1162 0.950 . S
H1155 C1164 0.950 . S
H1156 C1166 0.950 . S
H1157 C1168 0.950 . S
H1158 C1170 0.950 . S
H1159 C1171 0.950 . S
C1160 H1152 0.950 . S
C1160 C1161 1.386 . S
C1160 C1162 1.391 . S
C1161 C1160 1.386 . S
C1161 C1165 1.393 . S
C1162 H1154 0.950 . S
C1162 C1160 1.391 . S
C1162 C1163 1.400 . S
C1163 C1162 1.400 . S
C1163 C1164 1.398 . S
C1163 C1169 1.491 . S
C1164 H1155 0.950 . S
C1164 C1163 1.398 . S
C1164 C1165 1.391 . S
C1165 H1153 0.950 . S
C1165 C1161 1.393 . S
C1165 C1164 1.391 . S
C1166 H1156 0.950 . S
C1166 C1167 1.386 . S
C1166 C1168 1.391 . S
C1167 C1166 1.386 . S
C1167 C1171 1.393 . S
C1168 H1157 0.950 . S
C1168 C1166 1.391 . S
C1168 C1169 1.400 . S
C1169 C1163 1.491 . S
C1169 C1168 1.400 . S
C1169 C1170 1.398 . S
C1170 H1158 0.950 . S
C1170 C1169 1.398 . S
C1170 C1171 1.391 . S
C1171 H1159 0.950 . S
C1171 C1167 1.393 . S
C1171 C1170 1.391 . S
H1172 C1180 0.950 . S
H1173 C1185 0.950 . S
H1174 C1182 0.950 . S
H1175 C1184 0.950 . S
H1176 C1186 0.950 . S
H1177 C1188 0.950 . S
H1178 C1190 0.950 . S
H1179 C1191 0.950 . S
C1180 H1172 0.950 . S
C1180 C1181 1.386 . S
C1180 C1182 1.391 . S
C1181 C1180 1.386 . S
C1181 C1185 1.393 . S
C1182 H1174 0.950 . S
C1182 C1180 1.391 . S
C1182 C1183 1.400 . S
C1183 C1182 1.400 . S
C1183 C1184 1.398 . S
C1183 C1189 1.491 . S
C1184 H1175 0.950 . S
C1184 C1183 1.398 . S
C1184 C1185 1.391 . S
C1185 H1173 0.950 . S
C1185 C1181 1.393 . S
C1185 C1184 1.391 . S
C1186 H1176 0.950 . S
C1186 C1187 1.386 . S
C1186 C1188 1.391 . S
C1187 C1186 1.386 . S
C1187 C1191 1.393 . S
C1188 H1177 0.950 . S
C1188 C1186 1.391 . S
C1188 C1189 1.400 . S
C1189 C1183 1.491 . S
C1189 C1188 1.400 . S
C1189 C1190 1.398 . S
C1190 H1178 0.950 . S
C1190 C1189 1.398 . S
C1190 C1191 1.391 . S
C1191 H1179 0.950 . S
C1191 C1187 1.393 . S
C1191 C1190 1.391 . S
H1192 C1200 0.950 . S
H1193 C1205 0.950 . S
H1194 C1202 0.950 . S
H1195 C1204 0.950 . S
H1196 C1206 0.950 . S
H1197 C1208 0.950 . S
H1198 C1210 0.950 . S
H1199 C1211 0.950 . S
C1200 H1192 0.950 . S
C1200 C1201 1.386 . S
C1200 C1202 1.391 . S
C1201 C1200 1.386 . S
C1201 C1205 1.393 . S
C1202 H1194 0.950 . S
C1202 C1200 1.391 . S
C1202 C1203 1.400 . S
C1203 C1202 1.400 . S
C1203 C1204 1.398 . S
C1203 C1209 1.491 . S
C1204 H1195 0.950 . S
C1204 C1203 1.398 . S
C1204 C1205 1.391 . S
C1205 H1193 0.950 . S
C1205 C1201 1.393 . S
C1205 C1204 1.391 . S
C1206 H1196 0.950 . S
C1206 C1207 1.386 . S
C1206 C1208 1.391 . S
C1207 C1206 1.386 . S
C1207 C1211 1.393 . S
C1208 H1197 0.950 . S
C1208 C1206 1.391 . S
C1208 C1209 1.400 . S
C1209 C1203 1.491 . S
C1209 C1208 1.400 . S
C1209 C1210 1.398 . S
C1210 H1198 0.950 . S
C1210 C1209 1.398 . S
C1210 C1211 1.391 . S
C1211 H1199 0.950 . S
C1211 C1207 1.393 . S
C1211 C1210 1.391 . S
H1212 C1220 0.950 . S
H1213 C1225 0.950 . S
H1214 C1222 0.950 . S
H1215 C1224 0.950 . S
H1216 C1226 0.950 . S
H1217 C1228 0.950 . S
H1218 C1230 0.950 . S
H1219 C1231 0.950 . S
C1220 H1212 0.950 . S
C1220 C1221 1.386 . S
C1220 C1222 1.391 . S
C1221 C1220 1.386 . S
C1221 C1225 1.393 . S
C1222 H1214 0.950 . S
C1222 C1220 1.391 . S
C1222 C1223 1.400 . S
C1223 C1222 1.400 . S
C1223 C1224 1.398 . S
C1223 C1229 1.491 . S
C1224 H1215 0.950 . S
C1224 C1223 1.398 . S
C1224 C1225 1.391 . S
C1225 H1213 0.950 . S
C1225 C1221 1.393 . S
C1225 C1224 1.391 . S
C1226 H1216 0.950 . S
C1226 C1227 1.386 . S
C1226 C1228 1.391 . S
C1227 C1226 1.386 . S
C1227 C1231 1.393 . S
C1228 H1217 0.950 . S
C1228 C1226 1.391 . S
C1228 C1229 1.400 . S
C1229 C1223 1.491 . S
C1229 C1228 1.400 . S
C1229 C1230 1.398 . S
C1230 H1218 0.950 . S
C1230 C1229 1.398 . S
C1230 C1231 1.391 . S
C1231 H1219 0.950 . S
C1231 C1227 1.393 . S
C1231 C1230 1.391 . S
H1232 C1240 0.950 . S
H1233 C1245 0.950 . S
H1234 C1242 0.950 . S
H1235 C1244 0.950 . S
H1236 C1246 0.950 . S
H1237 C1248 0.950 . S
H1238 C1250 0.950 . S
H1239 C1251 0.950 . S
C1240 H1232 0.950 . S
C1240 C1241 1.386 . S
C1240 C1242 1.391 . S
C1241 C1240 1.386 . S
C1241 C1245 1.393 . S
C1242 H1234 0.950 . S
C1242 C1240 1.391 . S
C1242 C1243 1.400 . S
C1243 C1242 1.400 . S
C1243 C1244 1.398 . S
C1243 C1249 1.491 . S
C1244 H1235 0.950 . S
C1244 C1243 1.398 . S
C1244 C1245 1.391 . S
C1245 H1233 0.950 . S
C1245 C1241 1.393 . S
C1245 C1244 1.391 . S
C1246 H1236 0.950 . S
C1246 C1247 1.386 . S
C1246 C1248 1.391 . S
C1247 C1246 1.386 . S
C1247 C1251 1.393 . S
C1248 H1237 0.950 . S
C1248 C1246 1.391 . S
C1248 C1249 1.400 . S
C1249 C1243 1.491 . S
C1249 C1248 1.400 . S
C1249 C1250 1.398 . S
C1250 H1238 0.950 . S
C1250 C1249 1.398 . S
C1250 C1251 1.391 . S
C1251 H1239 0.950 . S
C1251 C1247 1.393 . S
C1251 C1250 1.391 . S
H1252 C1260 0.950 . S
H1253 C1265 0.950 . S
H1254 C1262 0.950 . S
H1255 C1264 0.950 . S
H1256 C1266 0.950 . S
H1257 C1268 0.950 . S
H1258 C1270 0.950 . S
H1259 C1271 0.950 . S
C1260 H1252 0.950 . S
C1260 C1261 1.386 . S
C1260 C1262 1.391 . S
C1261 C1260 1.386 . S
C1261 C1265 1.393 . S
C1262 H1254 0.950 . S
C1262 C1260 1.391 . S
C1262 C1263 1.400 . S
C1263 C1262 1.400 . S
C1263 C1264 1.398 . S
C1263 C1269 1.491 . S
C1264 H1255 0.950 . S
C1264 C1263 1.398 . S
C1264 C1265 1.391 . S
C1265 H1253 0.950 . S
C1265 C1261 1.393 . S
C1265 C1264 1.391 . S
C1266 H1256 0.950 . S
C1266 C1267 1.386 . S
C1266 C1268 1.391 . S
C1267 C1266 1.386 . S
C1267 C1271 1.393 . S
C1268 H1257 0.950 . S
C1268 C1266 1.391 . S
C1268 C1269 1.400 . S
C1269 C1263 1.491 . S
C1269 C1268 1.400 . S
C1269 C1270 1.398 . S
C1270 H1258 0.950 . S
C1270 C1269 1.398 . S
C1270 C1271 1.391 . S
C1271 H1259 0.950 . S
C1271 C1267 1.393 . S
C1271 C1270 1.391 . S
H1272 C1280 0.950 . S
H1273 C1285 0.950 . S
H1274 C1282 0.950 . S
H1275 C1284 0.950 . S
H1276 C1286 0.950 . S
H1277 C1288 0.950 . S
H1278 C1290 0.950 . S
H1279 C1291 0.950 . S
C1280 H1272 0.950 . S
C1280 C1281 1.386 . S
C1280 C1282 1.391 . S
C1281 C1280 1.386 . S
C1281 C1285 1.393 . S
C1282 H1274 0.950 . S
C1282 C1280 1.391 . S
C1282 C1283 1.400 . S
C1283 C1282 1.400 . S
C1283 C1284 1.398 . S
C1283 C1289 1.491 . S
C1284 H1275 0.950 . S
C1284 C1283 1.398 . S
C1284 C1285 1.391 . S
C1285 H1273 0.950 . S
C1285 C1281 1.393 . S
C1285 C1284 1.391 . S
C1286 H1276 0.950 . S
C1286 C1287 1.386 . S
C1286 C1288 1.391 . S
C1287 C1286 1.386 . S
C1287 C1291 1.393 . S
C1288 H1277 0.950 . S
C1288 C1286 1.391 . S
C1288 C1289 1.400 . S
C1289 C1283 1.491 . S
C1289 C1288 1.400 . S
C1289 C1290 1.398 . S
C1290 H1278 0.950 . S
C1290 C1289 1.398 . S
C1290 C1291 1.391 . S
C1291 H1279 0.950 . S
C1291 C1287 1.393 . S
C1291 C1290 1.391 . S
H1292 C1300 0.950 . S
H1293 C1305 0.950 1_565 S
H1294 C1302 0.950 . S
H1295 C1304 0.950 1_565 S
H1296 C1306 0.950 . S
H1297 C1308 0.950 . S
H1298 C1310 0.950 . S
H1299 C1311 0.950 . S
C1300 H1292 0.950 . S
C1300 C1301 1.386 . S
C1300 C1302 1.391 . S
C1301 C1300 1.386 . S
C1301 C1305 1.393 . S
C1302 H1294 0.950 . S
C1302 C1300 1.391 . S
C1302 C1303 1.400 . S
C1303 C1302 1.400 . S
C1303 C1304 1.398 . S
C1303 C1309 1.491 . S
C1304 H1295 0.950 1_545 S
C1304 C1303 1.398 . S
C1304 C1305 1.391 . S
C1305 H1293 0.950 1_545 S
C1305 C1301 1.393 . S
C1305 C1304 1.391 . S
C1306 H1296 0.950 . S
C1306 C1307 1.386 1_565 S
C1306 C1308 1.391 . S
C1307 C1306 1.386 1_545 S
C1307 C1311 1.393 . S
C1308 H1297 0.950 . S
C1308 C1306 1.391 . S
C1308 C1309 1.400 1_565 S
C1309 C1303 1.491 . S
C1309 C1308 1.400 1_545 S
C1309 C1310 1.398 . S
C1310 H1298 0.950 . S
C1310 C1309 1.398 . S
C1310 C1311 1.391 . S
C1311 H1299 0.950 . S
C1311 C1307 1.393 . S
C1311 C1310 1.391 . S
H1312 C1320 0.950 . S
H1313 C1325 0.950 . S
H1314 C1322 0.950 . S
H1315 C1324 0.950 . S
H1316 C1326 0.950 . S
H1317 C1328 0.950 . S
H1318 C1330 0.950 . S
H1319 C1331 0.950 . S
C1320 H1312 0.950 . S
C1320 C1321 1.386 . S
C1320 C1322 1.391 . S
C1321 C1320 1.386 . S
C1321 C1325 1.393 . S
C1322 H1314 0.950 . S
C1322 C1320 1.391 . S
C1322 C1323 1.400 . S
C1323 C1322 1.400 . S
C1323 C1324 1.398 . S
C1323 C1329 1.491 . S
C1324 H1315 0.950 . S
C1324 C1323 1.398 . S
C1324 C1325 1.391 . S
C1325 H1313 0.950 . S
C1325 C1321 1.393 . S
C1325 C1324 1.391 . S
C1326 H1316 0.950 . S
C1326 C1327 1.386 . S
C1326 C1328 1.391 . S
C1327 C1326 1.386 . S
C1327 C1331 1.393 . S
C1328 H1317 0.950 . S
C1328 C1326 1.391 . S
C1328 C1329 1.400 . S
C1329 C1323 1.491 . S
C1329 C1328 1.400 . S
C1329 C1330 1.398 . S
C1330 H1318 0.950 . S
C1330 C1329 1.398 . S
C1330 C1331 1.391 . S
C1331 H1319 0.950 . S
C1331 C1327 1.393 . S
C1331 C1330 1.391 . S
H1332 C1340 0.950 . S
H1333 C1345 0.950 . S
H1334 C1342 0.950 . S
H1335 C1344 0.950 . S
H1336 C1346 0.950 . S
H1337 C1348 0.950 . S
H1338 C1350 0.950 . S
H1339 C1351 0.950 . S
C1340 H1332 0.950 . S
C1340 C1341 1.386 . S
C1340 C1342 1.391 . S
C1341 C1340 1.386 . S
C1341 C1345 1.393 . S
C1342 H1334 0.950 . S
C1342 C1340 1.391 . S
C1342 C1343 1.400 . S
C1343 C1342 1.400 . S
C1343 C1344 1.398 . S
C1343 C1349 1.491 . S
C1344 H1335 0.950 . S
C1344 C1343 1.398 . S
C1344 C1345 1.391 . S
C1345 H1333 0.950 . S
C1345 C1341 1.393 . S
C1345 C1344 1.391 . S
C1346 H1336 0.950 . S
C1346 C1347 1.386 . S
C1346 C1348 1.391 . S
C1347 C1346 1.386 . S
C1347 C1351 1.393 . S
C1348 H1337 0.950 . S
C1348 C1346 1.391 . S
C1348 C1349 1.400 . S
C1349 C1343 1.491 . S
C1349 C1348 1.400 . S
C1349 C1350 1.398 . S
C1350 H1338 0.950 . S
C1350 C1349 1.398 . S
C1350 C1351 1.391 . S
C1351 H1339 0.950 . S
C1351 C1347 1.393 . S
C1351 C1350 1.391 . S
H1352 C1360 0.950 . S
H1353 C1365 0.950 . S
H1354 C1362 0.950 . S
H1355 C1364 0.950 . S
H1356 C1366 0.950 . S
H1357 C1368 0.950 . S
H1358 C1370 0.950 . S
H1359 C1371 0.950 . S
C1360 H1352 0.950 . S
C1360 C1361 1.386 . S
C1360 C1362 1.391 . S
C1361 C1360 1.386 . S
C1361 C1365 1.393 . S
C1362 H1354 0.950 . S
C1362 C1360 1.391 . S
C1362 C1363 1.400 . S
C1363 C1362 1.400 . S
C1363 C1364 1.398 . S
C1363 C1369 1.491 . S
C1364 H1355 0.950 . S
C1364 C1363 1.398 . S
C1364 C1365 1.391 . S
C1365 H1353 0.950 . S
C1365 C1361 1.393 . S
C1365 C1364 1.391 . S
C1366 H1356 0.950 . S
C1366 C1367 1.386 . S
C1366 C1368 1.391 . S
C1367 C1366 1.386 . S
C1367 C1371 1.393 . S
C1368 H1357 0.950 . S
C1368 C1366 1.391 . S
C1368 C1369 1.400 . S
C1369 C1363 1.491 . S
C1369 C1368 1.400 . S
C1369 C1370 1.398 . S
C1370 H1358 0.950 . S
C1370 C1369 1.398 . S
C1370 C1371 1.391 . S
C1371 H1359 0.950 . S
C1371 C1367 1.393 . S
C1371 C1370 1.391 . S
H1372 C1380 0.950 . S
H1373 C1385 0.950 . S
H1374 C1382 0.950 . S
H1375 C1384 0.950 . S
H1376 C1386 0.950 . S
H1377 C1388 0.950 . S
H1378 C1390 0.950 . S
H1379 C1391 0.950 . S
C1380 H1372 0.950 . S
C1380 C1381 1.386 . S
C1380 C1382 1.391 . S
C1381 C1380 1.386 . S
C1381 C1385 1.393 . S
C1382 H1374 0.950 . S
C1382 C1380 1.391 . S
C1382 C1383 1.400 . S
C1383 C1382 1.400 . S
C1383 C1384 1.398 . S
C1383 C1389 1.491 . S
C1384 H1375 0.950 . S
C1384 C1383 1.398 . S
C1384 C1385 1.391 . S
C1385 H1373 0.950 . S
C1385 C1381 1.393 . S
C1385 C1384 1.391 . S
C1386 H1376 0.950 . S
C1386 C1387 1.386 . S
C1386 C1388 1.391 . S
C1387 C1386 1.386 . S
C1387 C1391 1.393 . S
C1388 H1377 0.950 . S
C1388 C1386 1.391 . S
C1388 C1389 1.400 . S
C1389 C1383 1.491 . S
C1389 C1388 1.400 . S
C1389 C1390 1.398 . S
C1390 H1378 0.950 . S
C1390 C1389 1.398 . S
C1390 C1391 1.391 . S
C1391 H1379 0.950 . S
C1391 C1387 1.393 . S
C1391 C1390 1.391 . S
H1392 C1400 0.950 . S
H1393 C1405 0.950 . S
H1394 C1402 0.950 . S
H1395 C1404 0.950 . S
H1396 C1406 0.950 . S
H1397 C1408 0.950 . S
H1398 C1410 0.950 . S
H1399 C1411 0.950 . S
C1400 H1392 0.950 . S
C1400 C1401 1.386 . S
C1400 C1402 1.391 . S
C1401 C1400 1.386 . S
C1401 C1405 1.393 . S
C1402 H1394 0.950 . S
C1402 C1400 1.391 . S
C1402 C1403 1.400 . S
C1403 C1402 1.400 . S
C1403 C1404 1.398 . S
C1403 C1409 1.491 . S
C1404 H1395 0.950 . S
C1404 C1403 1.398 . S
C1404 C1405 1.391 . S
C1405 H1393 0.950 . S
C1405 C1401 1.393 . S
C1405 C1404 1.391 . S
C1406 H1396 0.950 . S
C1406 C1407 1.386 . S
C1406 C1408 1.391 . S
C1407 C1406 1.386 . S
C1407 C1411 1.393 . S
C1408 H1397 0.950 . S
C1408 C1406 1.391 . S
C1408 C1409 1.400 . S
C1409 C1403 1.491 . S
C1409 C1408 1.400 . S
C1409 C1410 1.398 . S
C1410 H1398 0.950 . S
C1410 C1409 1.398 . S
C1410 C1411 1.391 . S
C1411 H1399 0.950 . S
C1411 C1407 1.393 . S
C1411 C1410 1.391 . S
H1412 C1420 0.950 . S
H1413 C1425 0.950 . S
H1414 C1422 0.950 . S
H1415 C1424 0.950 . S
H1416 C1426 0.950 . S
H1417 C1428 0.950 . S
H1418 C1430 0.950 . S
H1419 C1431 0.950 . S
C1420 H1412 0.950 . S
C1420 C1421 1.386 . S
C1420 C1422 1.391 . S
C1421 C1420 1.386 . S
C1421 C1425 1.393 . S
C1422 H1414 0.950 . S
C1422 C1420 1.391 . S
C1422 C1423 1.400 . S
C1423 C1422 1.400 . S
C1423 C1424 1.398 . S
C1423 C1429 1.491 . S
C1424 H1415 0.950 . S
C1424 C1423 1.398 . S
C1424 C1425 1.391 . S
C1425 H1413 0.950 . S
C1425 C1421 1.393 . S
C1425 C1424 1.391 . S
C1426 H1416 0.950 . S
C1426 C1427 1.386 . S
C1426 C1428 1.391 . S
C1427 C1426 1.386 . S
C1427 C1431 1.393 . S
C1428 H1417 0.950 . S
C1428 C1426 1.391 . S
C1428 C1429 1.400 . S
C1429 C1423 1.491 . S
C1429 C1428 1.400 . S
C1429 C1430 1.398 . S
C1430 H1418 0.950 . S
C1430 C1429 1.398 . S
C1430 C1431 1.391 . S
C1431 H1419 0.950 . S
C1431 C1427 1.393 . S
C1431 C1430 1.391 . S
H1432 C1440 0.950 . S
H1433 C1445 0.950 . S
H1434 C1442 0.950 . S
H1435 C1444 0.950 . S
H1436 C1446 0.950 . S
H1437 C1448 0.950 . S
H1438 C1450 0.950 . S
H1439 C1451 0.950 . S
C1440 H1432 0.950 . S
C1440 C1441 1.386 . S
C1440 C1442 1.391 . S
C1441 C1440 1.386 . S
C1441 C1445 1.393 . S
C1442 H1434 0.950 . S
C1442 C1440 1.391 . S
C1442 C1443 1.400 . S
C1443 C1442 1.400 . S
C1443 C1444 1.398 . S
C1443 C1449 1.491 . S
C1444 H1435 0.950 . S
C1444 C1443 1.398 . S
C1444 C1445 1.391 . S
C1445 H1433 0.950 . S
C1445 C1441 1.393 . S
C1445 C1444 1.391 . S
C1446 H1436 0.950 . S
C1446 C1447 1.386 . S
C1446 C1448 1.391 . S
C1447 C1446 1.386 . S
C1447 C1451 1.393 . S
C1448 H1437 0.950 . S
C1448 C1446 1.391 . S
C1448 C1449 1.400 . S
C1449 C1443 1.491 . S
C1449 C1448 1.400 . S
C1449 C1450 1.398 . S
C1450 H1438 0.950 . S
C1450 C1449 1.398 . S
C1450 C1451 1.391 . S
C1451 H1439 0.950 . S
C1451 C1447 1.393 . S
C1451 C1450 1.391 . S
H1452 C1460 0.950 . S
H1453 C1465 0.950 . S
H1454 C1462 0.950 . S
H1455 C1464 0.950 . S
H1456 C1466 0.950 . S
H1457 C1468 0.950 . S
H1458 C1470 0.950 . S
H1459 C1471 0.950 . S
C1460 H1452 0.950 . S
C1460 C1461 1.386 1_455 S
C1460 C1462 1.391 . S
C1461 C1460 1.386 1_655 S
C1461 C1465 1.393 . S
C1462 H1454 0.950 . S
C1462 C1460 1.391 . S
C1462 C1463 1.380 1_455 S
C1463 C1462 1.380 1_655 S
C1463 C1464 1.425 . S
C1463 C1469 1.485 1_655 S
C1464 H1455 0.950 . S
C1464 C1463 1.425 . S
C1464 C1465 1.391 . S
C1465 H1453 0.950 . S
C1465 C1461 1.393 . S
C1465 C1464 1.391 . S
C1466 H1456 0.950 . S
C1466 C1467 1.386 1_655 S
C1466 C1468 1.391 . S
C1467 C1466 1.386 1_455 S
C1467 C1471 1.393 . S
C1468 H1457 0.950 . S
C1468 C1466 1.391 . S
C1468 C1469 1.400 1_655 S
C1469 C1463 1.485 1_455 S
C1469 C1468 1.400 1_455 S
C1469 C1470 1.398 . S
C1470 H1458 0.950 . S
C1470 C1469 1.398 . S
C1470 C1471 1.391 . S
C1471 H1459 0.950 . S
C1471 C1467 1.393 . S
C1471 C1470 1.391 . S
H1472 C1480 0.950 . S
H1473 C1485 0.950 . S
H1474 C1482 0.950 . S
H1475 C1484 0.950 . S
H1476 C1486 0.950 . S
H1477 C1488 0.950 . S
H1478 C1490 0.950 . S
H1479 C1491 0.950 . S
C1480 H1472 0.950 . S
C1480 C1481 1.386 . S
C1480 C1482 1.391 . S
C1481 C1480 1.386 . S
C1481 C1485 1.393 . S
C1482 H1474 0.950 . S
C1482 C1480 1.391 . S
C1482 C1483 1.400 . S
C1483 C1482 1.400 . S
C1483 C1484 1.398 . S
C1483 C1489 1.491 . S
C1484 H1475 0.950 . S
C1484 C1483 1.398 . S
C1484 C1485 1.391 . S
C1485 H1473 0.950 . S
C1485 C1481 1.393 . S
C1485 C1484 1.391 . S
C1486 H1476 0.950 . S
C1486 C1487 1.386 . S
C1486 C1488 1.391 . S
C1487 C1486 1.386 . S
C1487 C1491 1.393 . S
C1488 H1477 0.950 . S
C1488 C1486 1.391 . S
C1488 C1489 1.400 . S
C1489 C1483 1.491 . S
C1489 C1488 1.400 . S
C1489 C1490 1.398 . S
C1490 H1478 0.950 . S
C1490 C1489 1.398 . S
C1490 C1491 1.391 . S
C1491 H1479 0.950 . S
C1491 C1487 1.393 . S
C1491 C1490 1.391 . S
H1492 C1500 0.950 . S
H1493 C1505 0.950 . S
H1494 C1502 0.950 . S
H1495 C1504 0.950 . S
H1496 C1506 0.950 . S
H1497 C1508 0.950 . S
H1498 C1510 0.950 . S
H1499 C1511 0.950 . S
C1500 H1492 0.950 . S
C1500 C1501 1.386 . S
C1500 C1502 1.391 . S
C1501 C1500 1.386 . S
C1501 C1505 1.393 . S
C1502 H1494 0.950 . S
C1502 C1500 1.391 . S
C1502 C1503 1.400 . S
C1503 C1502 1.400 . S
C1503 C1504 1.398 . S
C1503 C1509 1.491 . S
C1504 H1495 0.950 . S
C1504 C1503 1.398 . S
C1504 C1505 1.391 . S
C1505 H1493 0.950 . S
C1505 C1501 1.393 . S
C1505 C1504 1.391 . S
C1506 H1496 0.950 . S
C1506 C1507 1.386 . S
C1506 C1508 1.391 . S
C1507 C1506 1.386 . S
C1507 C1511 1.393 . S
C1508 H1497 0.950 . S
C1508 C1506 1.391 . S
C1508 C1509 1.400 . S
C1509 C1503 1.491 . S
C1509 C1508 1.400 . S
C1509 C1510 1.398 . S
C1510 H1498 0.950 . S
C1510 C1509 1.398 . S
C1510 C1511 1.391 . S
C1511 H1499 0.950 . S
C1511 C1507 1.393 . S
C1511 C1510 1.391 . S
H1512 C1520 0.950 . S
H1513 C1525 0.950 . S
H1514 C1522 0.950 . S
H1515 C1524 0.950 . S
H1516 C1526 0.950 . S
H1517 C1528 0.950 . S
H1518 C1530 0.950 . S
H1519 C1531 0.950 . S
C1520 H1512 0.950 . S
C1520 C1521 1.386 . S
C1520 C1522 1.391 . S
C1521 C1520 1.386 . S
C1521 C1525 1.393 . S
C1522 H1514 0.950 . S
C1522 C1520 1.391 . S
C1522 C1523 1.400 . S
C1523 C1522 1.400 . S
C1523 C1524 1.398 . S
C1523 C1529 1.491 . S
C1524 H1515 0.950 . S
C1524 C1523 1.398 . S
C1524 C1525 1.391 . S
C1525 H1513 0.950 . S
C1525 C1521 1.393 . S
C1525 C1524 1.391 . S
C1526 H1516 0.950 . S
C1526 C1527 1.386 . S
C1526 C1528 1.391 . S
C1527 C1526 1.386 . S
C1527 C1531 1.393 . S
C1528 H1517 0.950 . S
C1528 C1526 1.391 . S
C1528 C1529 1.400 . S
C1529 C1523 1.491 . S
C1529 C1528 1.400 . S
C1529 C1530 1.398 . S
C1530 H1518 0.950 . S
C1530 C1529 1.398 . S
C1530 C1531 1.391 . S
C1531 H1519 0.950 . S
C1531 C1527 1.393 . S
C1531 C1530 1.391 . S
H1532 C1540 0.950 . S
H1533 C1545 0.950 . S
H1534 C1542 0.950 . S
H1535 C1544 0.950 . S
H1536 C1546 0.950 . S
H1537 C1548 0.950 . S
H1538 C1550 0.950 . S
H1539 C1551 0.950 . S
C1540 H1532 0.950 . S
C1540 C1541 1.386 . S
C1540 C1542 1.391 . S
C1541 C1540 1.386 . S
C1541 C1545 1.393 . S
C1542 H1534 0.950 . S
C1542 C1540 1.391 . S
C1542 C1543 1.400 . S
C1543 C1542 1.400 . S
C1543 C1544 1.398 . S
C1543 C1549 1.491 . S
C1544 H1535 0.950 . S
C1544 C1543 1.398 . S
C1544 C1545 1.391 . S
C1545 H1533 0.950 . S
C1545 C1541 1.393 . S
C1545 C1544 1.391 . S
C1546 H1536 0.950 . S
C1546 C1547 1.386 . S
C1546 C1548 1.391 . S
C1547 C1546 1.386 . S
C1547 C1551 1.393 . S
C1548 H1537 0.950 . S
C1548 C1546 1.391 . S
C1548 C1549 1.400 . S
C1549 C1543 1.491 . S
C1549 C1548 1.400 . S
C1549 C1550 1.398 . S
C1550 H1538 0.950 . S
C1550 C1549 1.398 . S
C1550 C1551 1.391 . S
C1551 H1539 0.950 . S
C1551 C1547 1.393 . S
C1551 C1550 1.391 . S
H1552 C1560 0.950 . S
H1553 C1565 0.950 . S
H1554 C1562 0.950 . S
H1555 C1564 0.950 . S
H1556 C1566 0.950 . S
H1557 C1568 0.950 . S
H1558 C1570 0.950 . S
H1559 C1571 0.950 . S
C1560 H1552 0.950 . S
C1560 C1561 1.386 . S
C1560 C1562 1.391 . S
C1561 C1560 1.386 . S
C1561 C1565 1.393 . S
C1562 H1554 0.950 . S
C1562 C1560 1.391 . S
C1562 C1563 1.400 . S
C1563 C1562 1.400 . S
C1563 C1564 1.398 . S
C1563 C1569 1.491 . S
C1564 H1555 0.950 . S
C1564 C1563 1.398 . S
C1564 C1565 1.391 . S
C1565 H1553 0.950 . S
C1565 C1561 1.393 . S
C1565 C1564 1.391 . S
C1566 H1556 0.950 . S
C1566 C1567 1.386 . S
C1566 C1568 1.391 . S
C1567 C1566 1.386 . S
C1567 C1571 1.393 . S
C1568 H1557 0.950 . S
C1568 C1566 1.391 . S
C1568 C1569 1.400 . S
C1569 C1563 1.491 . S
C1569 C1568 1.400 . S
C1569 C1570 1.398 . S
C1570 H1558 0.950 . S
C1570 C1569 1.398 . S
C1570 C1571 1.391 . S
C1571 H1559 0.950 . S
C1571 C1567 1.393 . S
C1571 C1570 1.391 . S
H1572 C1580 0.950 . S
H1573 C1585 0.950 . S
H1574 C1582 0.950 . S
H1575 C1584 0.950 . S
H1576 C1586 0.950 . S
H1577 C1588 0.950 . S
H1578 C1590 0.950 . S
H1579 C1591 0.950 . S
C1580 H1572 0.950 . S
C1580 C1581 1.386 . S
C1580 C1582 1.391 . S
C1581 C1580 1.386 . S
C1581 C1585 1.393 . S
C1582 H1574 0.950 . S
C1582 C1580 1.391 . S
C1582 C1583 1.400 . S
C1583 C1582 1.400 . S
C1583 C1584 1.398 . S
C1583 C1589 1.491 . S
C1584 H1575 0.950 . S
C1584 C1583 1.398 . S
C1584 C1585 1.391 . S
C1585 H1573 0.950 . S
C1585 C1581 1.393 . S
C1585 C1584 1.391 . S
C1586 H1576 0.950 . S
C1586 C1587 1.386 . S
C1586 C1588 1.391 . S
C1587 C1586 1.386 . S
C1587 C1591 1.393 . S
C1588 H1577 0.950 . S
C1588 C1586 1.391 . S
C1588 C1589 1.400 . S
C1589 C1583 1.491 . S
C1589 C1588 1.400 . S
C1589 C1590 1.398 . S
C1590 H1578 0.950 . S
C1590 C1589 1.398 . S
C1590 C1591 1.391 . S
C1591 H1579 0.950 . S
C1591 C1587 1.393 . S
C1591 C1590 1.391 . S
H1592 C1600 0.950 . S
H1593 C1605 0.950 . S
H1594 C1602 0.950 . S
H1595 C1604 0.950 . S
H1596 C1606 0.950 . S
H1597 C1608 0.950 . S
H1598 C1610 0.950 . S
H1599 C1611 0.950 . S
C1600 H1592 0.950 . S
C1600 C1601 1.386 . S
C1600 C1602 1.391 . S
C1601 C1600 1.386 . S
C1601 C1605 1.393 . S
C1602 H1594 0.950 . S
C1602 C1600 1.391 . S
C1602 C1603 1.400 . S
C1603 C1602 1.400 . S
C1603 C1604 1.398 . S
C1603 C1609 1.491 . S
C1604 H1595 0.950 . S
C1604 C1603 1.398 . S
C1604 C1605 1.391 . S
C1605 H1593 0.950 . S
C1605 C1601 1.393 . S
C1605 C1604 1.391 . S
C1606 H1596 0.950 . S
C1606 C1607 1.386 . S
C1606 C1608 1.391 . S
C1607 C1606 1.386 . S
C1607 C1611 1.393 . S
C1608 H1597 0.950 . S
C1608 C1606 1.391 . S
C1608 C1609 1.400 . S
C1609 C1603 1.491 . S
C1609 C1608 1.400 . S
C1609 C1610 1.398 . S
C1610 H1598 0.950 . S
C1610 C1609 1.398 . S
C1610 C1611 1.391 . S
C1611 H1599 0.950 . S
C1611 C1607 1.393 . S
C1611 C1610 1.391 . S
H1612 C1620 0.950 . S
H1613 C1625 0.950 . S
H1614 C1622 0.950 . S
H1615 C1624 0.950 . S
H1616 C1626 0.950 . S
H1617 C1628 0.950 . S
H1618 C1630 0.950 . S
H1619 C1631 0.950 . S
C1620 H1612 0.950 . S
C1620 C1621 1.386 . S
C1620 C1622 1.391 . S
C1621 C1620 1.386 . S
C1621 C1625 1.393 . S
C1622 H1614 0.950 . S
C1622 C1620 1.391 . S
C1622 C1623 1.400 . S
C1623 C1622 1.400 . S
C1623 C1624 1.398 . S
C1623 C1629 1.491 . S
C1624 H1615 0.950 . S
C1624 C1623 1.398 . S
C1624 C1625 1.391 . S
C1625 H1613 0.950 . S
C1625 C1621 1.393 . S
C1625 C1624 1.391 . S
C1626 H1616 0.950 . S
C1626 C1627 1.386 . S
C1626 C1628 1.391 . S
C1627 C1626 1.386 . S
C1627 C1631 1.393 . S
C1628 H1617 0.950 . S
C1628 C1626 1.391 . S
C1628 C1629 1.400 . S
C1629 C1623 1.491 . S
C1629 C1628 1.400 . S
C1629 C1630 1.398 . S
C1630 H1618 0.950 . S
C1630 C1629 1.398 . S
C1630 C1631 1.391 . S
C1631 H1619 0.950 . S
C1631 C1627 1.393 . S
C1631 C1630 1.391 . S
H1632 C1640 0.950 . S
H1633 C1645 0.950 . S
H1634 C1642 0.950 . S
H1635 C1644 0.950 . S
H1636 C1646 0.950 . S
H1637 C1648 0.950 . S
H1638 C1650 0.950 . S
H1639 C1651 0.950 . S
C1640 H1632 0.950 . S
C1640 C1641 1.386 . S
C1640 C1642 1.391 . S
C1641 C1640 1.386 . S
C1641 C1645 1.393 . S
C1642 H1634 0.950 . S
C1642 C1640 1.391 . S
C1642 C1643 1.400 . S
C1643 C1642 1.400 . S
C1643 C1644 1.398 . S
C1643 C1649 1.491 . S
C1644 H1635 0.950 . S
C1644 C1643 1.398 . S
C1644 C1645 1.391 . S
C1645 H1633 0.950 . S
C1645 C1641 1.393 . S
C1645 C1644 1.391 . S
C1646 H1636 0.950 . S
C1646 C1647 1.386 . S
C1646 C1648 1.391 . S
C1647 C1646 1.386 . S
C1647 C1651 1.393 . S
C1648 H1637 0.950 . S
C1648 C1646 1.391 . S
C1648 C1649 1.400 . S
C1649 C1643 1.491 . S
C1649 C1648 1.400 . S
C1649 C1650 1.398 . S
C1650 H1638 0.950 . S
C1650 C1649 1.398 . S
C1650 C1651 1.391 . S
C1651 H1639 0.950 . S
C1651 C1647 1.393 . S
C1651 C1650 1.391 . S
H1652 C1660 0.950 . S
H1653 C1665 0.950 . S
H1654 C1662 0.950 . S
H1655 C1664 0.950 . S
H1656 C1666 0.950 . S
H1657 C1668 0.950 . S
H1658 C1670 0.950 . S
H1659 C1671 0.950 . S
C1660 H1652 0.950 . S
C1660 C1661 1.386 . S
C1660 C1662 1.391 . S
C1661 C1660 1.386 . S
C1661 C1665 1.393 . S
C1662 H1654 0.950 . S
C1662 C1660 1.391 . S
C1662 C1663 1.400 . S
C1663 C1662 1.400 . S
C1663 C1664 1.398 . S
C1663 C1669 1.491 . S
C1664 H1655 0.950 . S
C1664 C1663 1.398 . S
C1664 C1665 1.391 . S
C1665 H1653 0.950 . S
C1665 C1661 1.393 . S
C1665 C1664 1.391 . S
C1666 H1656 0.950 . S
C1666 C1667 1.386 . S
C1666 C1668 1.391 . S
C1667 C1666 1.386 . S
C1667 C1671 1.393 . S
C1668 H1657 0.950 . S
C1668 C1666 1.391 . S
C1668 C1669 1.400 . S
C1669 C1663 1.491 . S
C1669 C1668 1.400 . S
C1669 C1670 1.398 . S
C1670 H1658 0.950 . S
C1670 C1669 1.398 . S
C1670 C1671 1.391 . S
C1671 H1659 0.950 . S
C1671 C1667 1.393 . S
C1671 C1670 1.391 . S
H1672 C1680 0.950 . S
H1673 C1685 0.950 . S
H1674 C1682 0.950 . S
H1675 C1684 0.950 . S
H1676 C1686 0.950 . S
H1677 C1688 0.945 1_554 S
H1678 C1690 0.950 . S
H1679 C1691 0.950 . S
C1680 H1672 0.950 . S
C1680 C1681 1.386 . S
C1680 C1682 1.391 . S
C1681 C1680 1.386 . S
C1681 C1685 1.393 . S
C1682 H1674 0.950 . S
C1682 C1680 1.391 . S
C1682 C1683 1.400 . S
C1683 C1682 1.400 . S
C1683 C1684 1.398 . S
C1683 C1689 1.491 . S
C1684 H1675 0.950 . S
C1684 C1683 1.398 . S
C1684 C1685 1.391 . S
C1685 H1673 0.950 . S
C1685 C1681 1.393 . S
C1685 C1684 1.391 . S
C1686 H1676 0.950 . S
C1686 C1687 1.375 1_554 S
C1686 C1688 1.391 1_554 S
C1687 C1686 1.375 1_556 S
C1687 C1691 1.411 . S
C1688 H1677 0.945 1_556 S
C1688 C1686 1.391 1_556 S
C1688 C1689 1.400 . S
C1689 C1683 1.491 . S
C1689 C1688 1.400 . S
C1689 C1690 1.398 . S
C1690 H1678 0.950 . S
C1690 C1689 1.398 . S
C1690 C1691 1.391 . S
C1691 H1679 0.950 . S
C1691 C1687 1.411 . S
C1691 C1690 1.391 . S
H1692 C1700 0.950 . S
H1693 C1705 0.950 . S
H1694 C1702 0.950 . S
H1695 C1704 0.950 . S
H1696 C1706 0.950 . S
H1697 C1708 0.950 . S
H1698 C1710 0.950 . S
H1699 C1711 0.950 . S
C1700 H1692 0.950 . S
C1700 C1701 1.386 . S
C1700 C1702 1.391 . S
C1701 C1700 1.386 . S
C1701 C1705 1.393 . S
C1702 H1694 0.950 . S
C1702 C1700 1.391 . S
C1702 C1703 1.400 . S
C1703 C1702 1.400 . S
C1703 C1704 1.398 . S
C1703 C1709 1.491 . S
C1704 H1695 0.950 . S
C1704 C1703 1.398 . S
C1704 C1705 1.391 . S
C1705 H1693 0.950 . S
C1705 C1701 1.393 . S
C1705 C1704 1.391 . S
C1706 H1696 0.950 . S
C1706 C1707 1.386 . S
C1706 C1708 1.391 . S
C1707 C1706 1.386 . S
C1707 C1711 1.393 . S
C1708 H1697 0.950 . S
C1708 C1706 1.391 . S
C1708 C1709 1.400 . S
C1709 C1703 1.491 . S
C1709 C1708 1.400 . S
C1709 C1710 1.398 . S
C1710 H1698 0.950 . S
C1710 C1709 1.398 . S
C1710 C1711 1.391 . S
C1711 H1699 0.950 . S
C1711 C1707 1.393 . S
C1711 C1710 1.391 . S
H1712 C1720 0.950 . S
H1713 C1725 0.950 . S
H1714 C1722 0.950 . S
H1715 C1724 0.950 . S
H1716 C1726 0.950 . S
H1717 C1728 0.950 . S
H1718 C1730 0.950 . S
H1719 C1731 0.950 1_556 S
C1720 H1712 0.950 . S
C1720 C1721 1.386 . S
C1720 C1722 1.391 . S
C1721 C1720 1.386 . S
C1721 C1725 1.393 . S
C1722 H1714 0.950 . S
C1722 C1720 1.391 . S
C1722 C1723 1.400 . S
C1723 C1722 1.400 . S
C1723 C1724 1.398 . S
C1723 C1729 1.491 . S
C1724 H1715 0.950 . S
C1724 C1723 1.398 . S
C1724 C1725 1.391 . S
C1725 H1713 0.950 . S
C1725 C1721 1.393 . S
C1725 C1724 1.391 . S
C1726 H1716 0.950 . S
C1726 C1727 1.386 . S
C1726 C1728 1.391 . S
C1727 C1726 1.386 . S
C1727 C1731 1.393 . S
C1728 H1717 0.950 . S
C1728 C1726 1.391 . S
C1728 C1729 1.400 . S
C1729 C1723 1.491 . S
C1729 C1728 1.400 . S
C1729 C1730 1.398 . S
C1730 H1718 0.950 . S
C1730 C1729 1.398 . S
C1730 C1731 1.391 . S
C1731 H1719 0.950 1_554 S
C1731 C1727 1.393 . S
C1731 C1730 1.391 . S
H1732 C1740 0.950 1_556 S
H1733 C1745 0.950 . S
H1734 C1742 0.950 1_556 S
H1735 C1744 0.950 . S
H1736 C1746 0.950 . S
H1737 C1748 0.950 . S
H1738 C1750 0.950 1_556 S
H1739 C1751 0.950 1_556 S
C1740 H1732 0.950 1_554 S
C1740 C1741 1.386 . S
C1740 C1742 1.391 . S
C1741 C1740 1.386 . S
C1741 C1745 1.393 . S
C1742 H1734 0.950 1_554 S
C1742 C1740 1.391 . S
C1742 C1743 1.400 . S
C1743 C1742 1.400 . S
C1743 C1744 1.398 . S
C1743 C1749 1.491 . S
C1744 H1735 0.950 . S
C1744 C1743 1.398 . S
C1744 C1745 1.391 . S
C1745 H1733 0.950 . S
C1745 C1741 1.393 . S
C1745 C1744 1.391 . S
C1746 H1736 0.950 . S
C1746 C1747 1.386 . S
C1746 C1748 1.391 . S
C1747 C1746 1.386 . S
C1747 C1751 1.393 . S
C1748 H1737 0.950 . S
C1748 C1746 1.391 . S
C1748 C1749 1.400 . S
C1749 C1743 1.491 . S
C1749 C1748 1.400 . S
C1749 C1750 1.398 . S
C1750 H1738 0.950 1_554 S
C1750 C1749 1.398 . S
C1750 C1751 1.391 . S
C1751 H1739 0.950 1_554 S
C1751 C1747 1.393 . S
C1751 C1750 1.391 . S
C807 C635 1.438 . S
C801 C211 1.457 . S
C827 C643 1.260 . S
C821 C255 1.537 . S
C841 C274 1.434 . S
C847 C663 1.413 . S
C867 C677 1.497 . S
C861 C157 1.511 1_655 S
C887 C692 1.536 . S
C881 C391 1.537 . S
C907 C706 1.515 . S
C901 C484 1.508 . S
C921 C450 1.563 . S
C927 C720 1.562 . S
C947 C726 1.433 . S
C941 C352 1.484 . S
C961 C430 1.520 . S
C967 C740 1.493 . S
C987 C761 1.543 . S
C981 C367 1.564 . S
C1001 C411 1.479 . S
C1007 C741 1.249 . S
C1027 C762 1.537 . S
C1021 C469 1.532 . S
C1041 C294 1.479 . S
C1047 C769 1.236 . S
C1061 C177 1.515 . S
C1067 C775 1.487 . S
C1081 C196 1.507 . S
C1087 C768 1.466 . S
C1101 C235 1.473 . S
C1107 C776 1.477 . S
C1121 C133 1.501 . S
C1127 C670 1.458 . S
C1141 C567 1.487 . S
C1147 C671 1.264 . S
C1167 C628 1.513 . S
C1161 C601 1.557 . S
C1187 C649 1.445 . S
C1181 C328 1.463 . S
C1201 C172 1.490 . S
C1207 C684 1.461 . S
C1227 C734 1.530 . S
C1221 C445 1.530 . S
C1247 C685 1.252 . S
C1241 C372 1.467 . S
C1267 C713 1.297 . S
C1261 C489 1.549 . S
C1287 C719 1.430 . S
C1281 C562 1.459 . S
C1301 C606 1.539 . S
C1307 C727 1.304 . S
C1321 C313 1.440 . S
C1327 C691 1.414 . S
C1347 C705 1.502 . S
C1341 C508 1.526 . S
C1361 C118 1.537 . S
C1367 C664 1.537 . S
C1387 C678 1.515 . S
C1381 C16 1.509 . S
C1407 C636 1.563 . S
C1401 C60 1.563 . S
C1427 C642 1.453 . S
C1421 C79 1.487 . S
C1441 C40 1.520 . S
C1447 C754 1.472 . S
C1461 C94 1.564 . S
C1467 C747 1.547 . S
C1481 C138 1.484 . S
C1487 C755 1.269 . S
C1501 C1 1.537 . S
C1507 C748 1.537 . S
C1527 C783 1.201 . S
C1521 C333 1.472 . S
C1547 C789 1.488 . S
C1541 C528 1.514 . S
C1567 C782 1.476 . S
C1561 C547 1.509 . S
C1581 C586 1.479 . S
C1587 C790 1.479 . S
C1601 C406 1.500 . S
C1607 C698 1.453 . S
C1627 C699 1.276 . S
C1621 C216 1.490 . S
C1647 C712 1.510 . S
C1641 C250 1.559 . S
C1667 C733 1.433 . S
C1661 C289 1.461 . S
C1681 C523 1.488 . S
C1687 C656 1.456 1_556 S
C1707 C650 1.530 . S
C1701 C55 1.530 . S
C1721 C99 1.465 . S
C1727 C657 1.207 . S
C1747 C629 1.253 . S
C1741 C21 1.548 . S
