# Generated by pormake.
# Topology zzz, (3,6)-cn, num edge types: 1
# Building blocks:
#     Node 0, Type 0, BuildingBlock: BETDAH_clean_linker_0, # of connection points: 3
#     Node 1, Type 0, BuildingBlock: BETDAH_clean_linker_0, # of connection points: 3
#     Node 2, Type 0, BuildingBlock: BETDAH_clean_linker_0, # of connection points: 3
#     Node 3, Type 0, BuildingBlock: BETDAH_clean_linker_0, # of connection points: 3
#     Node 4, Type 0, BuildingBlock: BETDAH_clean_linker_0, # of connection points: 3
#     Node 5, Type 0, BuildingBlock: BETDAH_clean_linker_0, # of connection points: 3
#     Node 6, Type 0, BuildingBlock: BETDAH_clean_linker_0, # of connection points: 3
#     Node 7, Type 0, BuildingBlock: BETDAH_clean_linker_0, # of connection points: 3
#     Node 8, Type 1, BuildingBlock: HISSIN_clean_sbu_0, # of connection points: 6
#     Node 9, Type 1, BuildingBlock: HISSIN_clean_sbu_0, # of connection points: 6
#     Node 10, Type 1, BuildingBlock: HISSIN_clean_sbu_0, # of connection points: 6
#     Node 11, Type 1, BuildingBlock: HISSIN_clean_sbu_0, # of connection points: 6
#     Edge 12, Type (0, 1), BuildingBlock: EZIPEK_clean_linker_0, # of connection points: 2
#     Edge 13, Type (0, 1), BuildingBlock: EZIPEK_clean_linker_0, # of connection points: 2
#     Edge 14, Type (0, 1), BuildingBlock: EZIPEK_clean_linker_0, # of connection points: 2
#     Edge 15, Type (0, 1), BuildingBlock: EZIPEK_clean_linker_0, # of connection points: 2
#     Edge 16, Type (0, 1), BuildingBlock: EZIPEK_clean_linker_0, # of connection points: 2
#     Edge 17, Type (0, 1), BuildingBlock: EZIPEK_clean_linker_0, # of connection points: 2
#     Edge 18, Type (0, 1), BuildingBlock: EZIPEK_clean_linker_0, # of connection points: 2
#     Edge 19, Type (0, 1), BuildingBlock: EZIPEK_clean_linker_0, # of connection points: 2
#     Edge 20, Type (0, 1), BuildingBlock: EZIPEK_clean_linker_0, # of connection points: 2
#     Edge 21, Type (0, 1), BuildingBlock: EZIPEK_clean_linker_0, # of connection points: 2
#     Edge 22, Type (0, 1), BuildingBlock: EZIPEK_clean_linker_0, # of connection points: 2
#     Edge 23, Type (0, 1), BuildingBlock: EZIPEK_clean_linker_0, # of connection points: 2
#     Edge 24, Type (0, 1), BuildingBlock: EZIPEK_clean_linker_0, # of connection points: 2
#     Edge 25, Type (0, 1), BuildingBlock: EZIPEK_clean_linker_0, # of connection points: 2
#     Edge 26, Type (0, 1), BuildingBlock: EZIPEK_clean_linker_0, # of connection points: 2
#     Edge 27, Type (0, 1), BuildingBlock: EZIPEK_clean_linker_0, # of connection points: 2
#     Edge 28, Type (0, 1), BuildingBlock: EZIPEK_clean_linker_0, # of connection points: 2
#     Edge 29, Type (0, 1), BuildingBlock: EZIPEK_clean_linker_0, # of connection points: 2
#     Edge 30, Type (0, 1), BuildingBlock: EZIPEK_clean_linker_0, # of connection points: 2
#     Edge 31, Type (0, 1), BuildingBlock: EZIPEK_clean_linker_0, # of connection points: 2
#     Edge 32, Type (0, 1), BuildingBlock: EZIPEK_clean_linker_0, # of connection points: 2
#     Edge 33, Type (0, 1), BuildingBlock: EZIPEK_clean_linker_0, # of connection points: 2
#     Edge 34, Type (0, 1), BuildingBlock: EZIPEK_clean_linker_0, # of connection points: 2
#     Edge 35, Type (0, 1), BuildingBlock: EZIPEK_clean_linker_0, # of connection points: 2
# Relax obj value: 0.360
# Max RMSD: 0.208
# Mean RMSD: 0.100
data_MOF--net-zzz--node1-HISSIN_clean_sbu_0--node2-BETDAH_clean_linker_0--edge1-EZIPEK_clean_linker_0
_symmetry_space_group_name_H-M    P1
_symmetry_Int_Tables_number       1
_symmetry_cell_setting            triclinic
loop_
_symmetry_equiv_pos_as_xyz
'x, y, z'
_cell_length_a     36.47237
_cell_length_b     36.675184
_cell_length_c     12.06518
_cell_angle_alpha  90.034944
_cell_angle_beta   91.512585
_cell_angle_gamma 90.181432
loop_
_atom_site_label
_atom_site_type_symbol
_atom_site_fract_x
_atom_site_fract_y
_atom_site_fract_z
_atom_type_partial_charge
H0 H 0.86111 0.4845 0.35936 0.0
H1 H 0.75342 0.50402 0.22357 0.0
H2 H 0.78905 0.55787 0.52698 0.0
C3 C 0.8348 0.49802 0.3654 0.0
C4 C 0.82886 0.52185 0.45385 0.0
C5 C 0.80755 0.4915 0.28389 0.0
C6 C 0.77368 0.50897 0.28901 0.0
C7 C 0.76658 0.5333 0.37582 0.0
C8 C 0.79427 0.53939 0.45922 0.0
N9 N 0.73224 0.55204 0.37983 0.0
C10 C 0.70416 0.54956 0.29797 0.0
H11 H 0.96878 0.84251 0.391 0.0
H12 H 0.98191 0.73524 0.25187 0.0
H13 H 0.05754 0.77513 0.50418 0.0
C14 C 0.98262 0.81648 0.38779 0.0
C15 C 1.01364 0.81222 0.4568 0.0
C16 C 0.97178 0.78982 0.30888 0.0
C17 C 0.9904 0.75631 0.30969 0.0
C18 C 1.02168 0.75073 0.37773 0.0
C19 C 0.03311 0.77881 0.45251 0.0
N20 N 0.04299 0.71818 0.367 0.0
C21 C 0.03775 0.69186 0.28277 0.0
H22 H 0.71819 0.09284 0.36043 0.0
H23 H 0.81983 0.07435 0.20027 0.0
H24 H 0.78753 1.00397 0.46787 0.0
C25 C 0.74319 0.0771 0.35407 0.0
C26 C 0.74939 0.04755 0.42603 0.0
C27 C 0.76867 0.08676 0.27394 0.0
C28 C 0.80088 0.06665 0.2637 0.0
C29 C 0.80779 0.03615 0.33098 0.0
C30 C 0.78217 0.02705 0.41398 0.0
N31 N 0.83985 1.01432 0.31556 0.0
C32 C 0.86488 1.01869 0.22928 0.0
H33 H 0.49241 0.70294 0.34345 0.0
H34 H 0.51118 0.80862 0.20571 0.0
H35 H 0.57487 0.77314 0.49274 0.0
C36 C 0.50723 0.72864 0.3465 0.0
C37 C 0.53445 0.73431 0.42913 0.0
C38 C 0.49878 0.75555 0.26749 0.0
C39 C 0.51777 0.78865 0.26903 0.0
C40 C 0.54576 0.79529 0.34852 0.0
C41 C 0.55368 0.76812 0.42998 0.0
N42 N 0.56626 0.82867 0.34695 0.0
C43 C 0.56246 0.85581 0.26493 0.0
H44 H 0.22567 0.56243 0.19319 0.0
H45 H 0.33488 0.54567 0.32052 0.0
H46 H 0.29885 0.49293 1.01567 0.0
C47 C 0.2523 0.54972 0.18488 0.0
C48 C 0.25844 0.52692 0.09415 0.0
C49 C 0.27996 0.55674 0.26469 0.0
C50 C 0.31428 0.54038 0.25633 0.0
C51 C 0.32151 0.51695 0.16737 0.0
C52 C 0.29349 0.5106 0.08529 0.0
N53 N 0.35643 0.49956 0.15945 0.0
C54 C 0.38512 0.50283 0.23894 0.0
H55 H 0.98662 0.20607 0.16384 0.0
H56 H 1.00424 0.31259 0.3025 0.0
H57 H 0.08142 0.26827 0.0727 0.0
C58 C 1.00271 0.23098 0.16815 0.0
C59 C 0.03444 0.23384 0.10544 0.0
C60 C 0.99226 0.25899 0.24007 0.0
C61 C 1.01285 0.29121 0.24701 0.0
C62 C 0.0456 0.29471 0.18932 0.0
C63 C 0.05611 0.26598 0.11715 0.0
N64 N 0.06884 0.32595 0.20614 0.0
C65 C 0.06388 0.35321 0.2868 0.0
H66 H 0.37241 0.97167 0.20386 0.0
H67 H 0.26807 0.98926 0.35046 0.0
H68 H 0.30444 0.06071 0.09046 0.0
C69 C 0.34724 0.98729 0.20744 0.0
C70 C 0.34183 1.0168 0.13493 0.0
C71 C 0.32079 0.97747 0.28454 0.0
C72 C 0.28818 0.99729 0.29056 0.0
C73 C 0.28238 0.02819 0.22395 0.0
C74 C 0.30905 0.03744 0.14419 0.0
N75 N 0.25052 0.05046 0.23719 0.0
C76 C 0.22358 0.04529 0.31758 0.0
H77 H 0.59606 0.3496 0.116 0.0
H78 H 0.58152 0.25727 0.32688 0.0
H79 H 0.50225 0.28192 0.06808 0.0
C80 C 0.57931 0.32796 0.14792 0.0
C81 C 0.54711 0.32031 0.08777 0.0
C82 C 0.58846 0.30992 0.24823 0.0
C83 C 0.57113 0.27584 0.26483 0.0
C84 C 0.54032 0.26501 0.19963 0.0
C85 C 0.52734 0.28847 0.11392 0.0
N86 N 0.52129 0.23156 0.22034 0.0
C87 C 0.52867 0.20699 0.30755 0.0
Eu88 Eu 1.01133 0.04308 0.65971 0.0
Eu89 Eu 0.06268 1.00991 0.85037 0.0
C90 C 0.04773 0.09741 0.85211 0.0
C91 C 0.94586 0.0982 0.47214 0.0
C92 C 0.92277 0.11379 0.55059 0.0
C93 C 0.93623 0.15021 0.35262 0.0
C94 C 0.90753 0.14831 0.53137 0.0
C95 C 0.95099 0.11585 0.37123 0.0
C96 C 0.91599 0.16772 0.43489 0.0
C97 C 0.96893 0.0665 0.49762 0.0
O98 O 1.00183 0.99983 0.88725 0.0
O99 O 0.97708 0.05031 0.81128 0.0
C100 C 0.9764 0.02518 0.88769 0.0
O101 O 1.00754 0.98063 0.63996 0.0
O102 O 0.06716 1.00313 0.03071 0.0
O103 O 0.10136 0.97097 0.92569 0.0
O104 O 0.06227 0.96559 0.72038 0.0
C105 C 0.03414 0.95679 0.65682 0.0
O106 O 0.06851 0.0455 0.58773 0.0
O107 O 0.1068 0.02444 0.72805 0.0
O108 O 0.06978 0.07063 0.8833 0.0
O109 O 1.00399 0.0735 0.50651 0.0
O110 O 0.95796 0.0437 0.57298 0.0
O111 O 1.02275 0.09262 0.77169 0.0
C112 C 0.06289 0.94003 0.04658 0.0
C113 C 0.03918 0.9265 0.9624 0.0
C114 C 0.03454 0.89835 0.17518 0.0
C115 C 1.01342 0.89984 0.98345 0.0
C116 C 0.06037 0.92588 0.15408 0.0
C117 C 1.0111 0.88527 0.08919 0.0
C118 C 0.08484 0.97254 1.02023 0.0
C119 C 0.10152 0.03648 0.62563 0.0
H120 H 0.91829 0.10039 0.62909 0.0
H121 H 0.94354 0.16435 0.27752 0.0
H122 H 0.89122 0.16064 0.59482 0.0
H123 H 0.96865 0.10418 0.30971 0.0
H124 H 0.03944 0.93749 0.88028 0.0
H125 H 0.03233 0.88766 0.25831 0.0
H126 H 0.99518 0.8904 0.91729 0.0
H127 H 0.07752 0.93651 0.22127 0.0
Eu128 Eu 0.56092 0.05907 0.88266 0.0
Eu129 Eu 0.53257 1.00383 0.68862 0.0
C130 C 0.55435 0.97337 0.93835 0.0
C131 C 0.60795 0.13422 0.05105 0.0
C132 C 0.62529 0.13518 0.15551 0.0
C133 C 0.65772 0.17002 0.97662 0.0
C134 C 0.65966 0.15124 0.16907 0.0
C135 C 0.62333 0.15335 0.9627 0.0
C136 C 0.67752 0.16661 0.07776 0.0
C137 C 0.57817 0.10781 0.03306 0.0
O138 O 0.47834 1.01683 0.7682 0.0
O139 O 0.50129 0.04628 0.923 0.0
C140 C 0.47362 0.03131 0.86673 0.0
O141 O 0.55913 0.09351 0.72519 0.0
O142 O 0.53681 0.94853 0.62218 0.0
O143 O 0.50635 0.98975 0.53059 0.0
O144 O 0.52145 0.05911 0.61149 0.0
C145 C 0.53892 0.08968 0.63401 0.0
O146 O 0.61504 0.04673 0.80099 0.0
O147 O 0.59213 1.01645 0.64761 0.0
O148 O 0.53444 0.96944 0.84653 0.0
O149 O 0.55483 0.11384 0.95137 0.0
O150 O 0.58842 0.07383 0.03817 0.0
O151 O 0.57168 1.00399 0.9612 0.0
C152 C 0.48382 0.93038 0.5174 0.0
C153 C 0.46638 0.93137 0.41304 0.0
C154 C 0.43302 0.89495 0.58753 0.0
C155 C 0.43156 0.91645 0.39771 0.0
C156 C 0.46786 0.91055 0.60343 0.0
C157 C 0.41343 0.9001 0.48682 0.0
C158 C 0.51474 0.95532 0.53793 0.0
C159 C 0.61972 0.03199 0.70271 0.0
H160 H 0.61382 0.12044 0.22439 0.0
H161 H 0.66977 0.183 0.90591 0.0
H162 H 0.67373 0.14787 0.24857 0.0
H163 H 0.61015 0.15317 0.88117 0.0
H164 H 0.47829 0.94657 0.34581 0.0
H165 H 0.42066 0.88113 0.65628 0.0
H166 H 0.41754 0.92112 0.31876 0.0
H167 H 0.48107 0.90918 0.68478 0.0
Eu168 Eu 0.50918 0.53868 0.84575 0.0
Eu169 Eu 0.57879 0.51659 0.70044 0.0
C170 C 0.5909 0.5419 0.94773 0.0
C171 C 0.43694 0.59303 0.99494 0.0
C172 C 0.44448 0.60841 0.0993 0.0
C173 C 0.40772 0.64962 0.93619 0.0
C174 C 0.43588 0.64457 0.11965 0.0
C175 C 0.41674 0.61323 0.91521 0.0
C176 C 0.41944 0.66612 0.036 0.0
C177 C 0.45438 0.55811 0.96793 0.0
O178 O 0.56601 0.46626 0.80455 0.0
O179 O 0.50589 0.47715 0.84139 0.0
C180 C 0.53424 0.45521 0.84206 0.0
O181 O 0.48744 0.53772 0.66889 0.0
O182 O 0.63737 0.50481 0.70849 0.0
O183 O 0.60819 0.50251 0.5508 0.0
O184 O 0.52926 0.49902 0.59355 0.0
C185 C 0.49731 0.51583 0.58898 0.0
O186 O 0.53148 0.59333 0.78532 0.0
O187 O 0.56398 0.5732 0.63676 0.0
O188 O 0.60032 0.54969 0.84656 0.0
O189 O 0.45025 0.54596 0.86687 0.0
O190 O 0.48802 0.55448 1.00528 0.0
O191 O 0.55779 0.5294 0.96464 0.0
C192 C 0.65324 0.45825 0.58766 0.0
C193 C 0.6314 0.42812 0.61228 0.0
C194 C 0.69945 0.41759 0.5167 0.0
C195 C 0.64225 0.39324 0.58276 0.0
C196 C 0.68816 0.45283 0.54504 0.0
C197 C 0.67534 0.38768 0.52699 0.0
C198 C 0.63863 0.49492 0.60519 0.0
C199 C 0.54747 0.59966 0.6901 0.0
H200 H 0.45976 0.59335 0.16235 0.0
H201 H 0.39393 0.6654 0.87188 0.0
H202 H 0.44518 0.65657 0.19763 0.0
H203 H 0.40991 0.60178 0.83449 0.0
H204 H 0.6048 0.43185 0.64802 0.0
H205 H 0.72586 0.4143 0.47951 0.0
H206 H 0.62272 0.37134 0.59372 0.0
H207 H 0.70595 0.47586 0.52912 0.0
Eu208 Eu 0.05536 0.55432 0.68821 0.0
Eu209 Eu 0.0311 0.49464 0.86819 0.0
C210 C 0.11801 0.52055 0.85054 0.0
C211 C 0.11006 0.6225 0.52982 0.0
C212 C 0.13285 0.63769 0.61409 0.0
C213 C 0.16195 0.61963 0.40969 0.0
C214 C 0.17043 0.64199 0.59764 0.0
C215 C 0.12446 0.61609 0.42515 0.0
C216 C 0.18546 0.63026 0.49807 0.0
C217 C 0.07405 0.60671 0.55453 0.0
O218 O 1.0164 0.54826 0.94936 0.0
O219 O 0.05706 0.58312 0.85603 0.0
C220 C 0.03548 0.57849 0.94044 0.0
O221 O 0.99434 0.54506 0.64989 0.0
O222 O 1.0153 0.47722 0.03255 0.0
O223 O 0.02738 0.43667 0.90912 0.0
O224 O 0.97549 0.50977 0.79518 0.0
C225 C 0.9683 0.52789 0.70318 0.0
O226 O 0.06935 0.50112 0.60335 0.0
O227 O 0.03191 0.46433 0.70319 0.0
O228 O 0.09174 0.50561 0.9085 0.0
O229 O 0.06957 0.57291 0.52356 0.0
O230 O 0.06148 0.61247 0.65305 0.0
O231 O 0.11088 0.53626 0.75455 0.0
C232 C 0.97736 0.42585 0.02634 0.0
C233 C 0.95517 0.41161 0.93921 0.0
C234 C 0.92483 0.42675 0.14407 0.0
C235 C 0.91755 0.40661 0.95347 0.0
C236 C 0.96239 0.43071 0.13095 0.0
C237 C 0.90184 0.41714 0.05331 0.0
C238 C 1.013 0.44294 1.00494 0.0
C239 C 0.05238 0.46983 0.61666 0.0
H240 H 0.12229 0.64363 0.69515 0.0
H241 H 0.17297 0.61098 0.33138 0.0
H242 H 0.18804 0.65143 0.66549 0.0
H243 H 0.10736 0.60495 0.35847 0.0
H244 H 0.96615 0.40709 0.85784 0.0
H245 H 0.91334 0.43446 0.22261 0.0
H246 H 0.90043 0.39776 0.88379 0.0
H247 H 0.97906 0.44122 0.19956 0.0
C248 C 0.19896 0.05074 0.51033 0.0
C249 C 0.19327 0.04207 0.3964 0.0
C250 C 0.12898 0.02618 0.43442 0.0
C251 C 0.13339 0.03858 0.54669 0.0
N252 N 0.17173 0.07035 0.68179 0.0
N253 N 0.15109 0.02735 0.24615 0.0
C254 C 0.16826 0.05275 0.58221 0.0
C255 C 0.15774 0.03163 0.3575 0.0
N256 N 0.23381 0.05686 0.55049 0.0
N257 N 0.09817 1.00733 0.40147 0.0
H258 H 0.17153 0.02974 0.18766 0.0
H259 H 0.12484 0.02444 0.21106 0.0
H260 H 0.07675 1.00113 0.4535 0.0
H261 H 0.09543 0.99426 0.32507 0.0
H262 H 0.24034 0.05938 0.63473 0.0
H263 H 0.25664 0.05627 0.50015 0.0
H264 H 0.19539 0.08429 0.70742 0.0
H265 H 0.14974 0.07465 0.73359 0.0
C266 C 0.56612 0.16212 0.41976 0.0
C267 C 0.53177 0.1786 0.39408 0.0
C268 C 0.50286 0.13941 0.53403 0.0
C269 C 0.53653 0.12067 0.55228 0.0
N270 N 0.59882 0.11035 0.49867 0.0
N271 N 0.4664 0.18046 0.4178 0.0
C272 C 0.56788 0.13121 0.492 0.0
C273 C 0.49986 0.16655 0.44891 0.0
N274 N 0.59727 0.17614 0.37575 0.0
N275 N 0.47402 0.13215 0.60084 0.0
H276 H 0.4632 0.20112 0.35898 0.0
H277 H 0.44161 0.16993 0.44448 0.0
H278 H 0.47518 0.11254 0.66342 0.0
H279 H 0.45004 0.14747 0.60064 0.0
H280 H 0.62357 0.1687 0.40252 0.0
H281 H 0.59686 0.19685 0.31666 0.0
H282 H 0.62133 0.1141 0.44855 0.0
H283 H 0.60068 0.08701 0.54753 0.0
C284 C 0.42825 0.54056 0.35678 0.0
C285 C 0.41537 0.50576 0.32186 0.0
C286 C 0.45726 0.47672 0.45931 0.0
C287 C 0.47152 0.51153 0.49039 0.0
N288 N 0.47657 0.57565 0.44905 0.0
N289 N 0.42231 0.44049 0.32435 0.0
C290 C 0.45862 0.54319 0.43353 0.0
C291 C 0.43145 0.47377 0.36816 0.0
N292 N 0.41109 0.57127 0.31814 0.0
N293 N 0.46669 0.44668 0.52057 0.0
H294 H 0.40309 0.43729 0.25943 0.0
H295 H 0.43583 0.41646 0.34602 0.0
H296 H 0.485 0.44764 0.58833 0.0
H297 H 0.45416 0.42132 0.51014 0.0
H298 H 0.41588 0.59711 0.35143 0.0
H299 H 0.39059 0.57071 0.25625 0.0
H300 H 0.47091 0.59895 0.40244 0.0
H301 H 0.49981 0.5783 0.50055 0.0
C302 C 0.0624 0.37437 0.48519 0.0
C303 C 0.06088 0.38259 0.37018 0.0
C304 C 0.0507 0.44733 0.41597 0.0
C305 C 0.05581 0.43983 0.53126 0.0
N306 N 0.07474 0.39652 0.67213 0.0
N307 N 0.06164 0.42828 0.22712 0.0
C308 C 0.06372 0.40334 0.565 0.0
C309 C 0.05749 0.41949 0.336 0.0
N310 N 0.06252 0.33879 0.51864 0.0
N311 N 0.03731 0.48039 0.38222 0.0
H312 H 0.06588 0.40874 0.16591 0.0
H313 H 0.06424 0.45509 0.19985 0.0
H314 H 0.03007 0.50089 0.43725 0.0
H315 H 0.02964 0.48601 0.3002 0.0
H316 H 0.05928 0.33087 0.60072 0.0
H317 H 0.06308 0.31705 0.46292 0.0
H318 H 0.08427 0.37123 0.69925 0.0
H319 H 0.07825 0.41699 0.73148 0.0
C320 C 0.89926 0.98984 0.07389 0.0
C321 C 0.89203 0.02091 0.14025 0.0
C322 C 0.93943 0.05522 0.04053 0.0
C323 C 0.94593 0.02446 0.97123 0.0
N324 N 0.92435 0.96642 0.90346 0.0
N325 N 0.90051 0.08509 0.17337 0.0
C326 C 0.9238 0.99275 0.98334 0.0
C327 C 0.91069 0.05414 0.11932 0.0
N328 N 0.88267 0.95738 0.09737 0.0
N329 N 0.96179 0.08508 0.03502 0.0
H330 H 0.88193 0.08499 0.23759 0.0
H331 H 0.90867 0.11112 0.14976 0.0
H332 H 0.98243 0.08756 0.97775 0.0
H333 H 0.96163 0.10639 0.09207 0.0
H334 H 0.8893 0.93284 0.05954 0.0
H335 H 0.86391 0.95445 0.16059 0.0
H336 H 0.90703 0.94381 0.90126 0.0
H337 H 0.93906 0.96975 0.83144 0.0
C338 C 0.59245 0.8969 0.12725 0.0
C339 C 0.56024 0.88505 0.18083 0.0
C340 C 0.52472 0.93242 0.08067 0.0
C341 C 0.55633 0.9426 1.02103 0.0
N342 N 0.61912 0.93095 0.9759 0.0
N343 N 0.4947 0.88817 0.19783 0.0
C344 C 0.58992 0.92387 0.04143 0.0
C345 C 0.52608 0.90177 0.15398 0.0
N346 N 0.62569 0.88291 0.16009 0.0
N347 N 0.49387 0.95337 0.07216 0.0
H348 H 0.49477 0.86777 0.25798 0.0
H349 H 0.46851 0.89567 0.17017 0.0
H350 H 0.49224 0.97647 0.02221 0.0
H351 H 0.47116 0.94995 0.12166 0.0
H352 H 0.65067 0.89318 0.13405 0.0
H353 H 0.6285 0.86252 0.21995 0.0
H354 H 0.64311 0.91565 0.97767 0.0
H355 H 0.6183 0.95041 0.91286 0.0
C356 C 0.65955 0.58032 0.16686 0.0
C357 C 0.67442 0.54771 0.2128 0.0
C358 C 0.63228 0.5115 0.09244 0.0
C359 C 0.61899 0.54407 0.04125 0.0
N360 N 0.62179 0.60941 0.02299 0.0
N361 N 0.67674 0.48224 0.21718 0.0
C362 C 0.63322 0.57846 0.07662 0.0
C363 C 0.66112 0.51332 0.17524 0.0
N364 N 0.66987 0.61313 0.21191 0.0
N365 N 0.61713 0.4787 0.06224 0.0
H366 H 0.69531 0.48226 0.28444 0.0
H367 H 0.67305 0.45664 0.18171 0.0
H368 H 0.59755 0.47581 0.99857 0.0
H369 H 0.6225 0.45428 0.10293 0.0
H370 H 0.65746 0.63782 0.19149 0.0
H371 H 0.68939 0.61548 0.27635 0.0
H372 H 0.63394 0.63487 0.03471 0.0
H373 H 0.60111 0.60941 0.96161 0.0
C374 C 0.03442 0.67306 0.08176 0.0
C375 C 0.03433 0.66352 0.19578 0.0
C376 C 0.03664 0.59858 0.14369 0.0
C377 C 0.03379 0.60775 0.02893 0.0
N378 N 1.02061 0.6543 0.89215 0.0
N379 N 0.02502 0.617 0.33264 0.0
C380 C 0.03014 0.64522 0.99887 0.0
C381 C 0.03214 0.62623 0.22578 0.0
N382 N 0.03891 0.70872 0.05218 0.0
N383 N 0.04606 0.56402 0.17541 0.0
H384 H 1.02147 0.63645 0.39459 0.0
H385 H 1.01895 0.59039 0.35653 0.0
H386 H 0.05206 0.54342 0.11931 0.0
H387 H 0.052 0.55697 0.2576 0.0
H388 H 0.04336 0.71697 0.97103 0.0
H389 H 0.04078 0.72983 0.11011 0.0
H390 H 1.01418 0.68077 0.86741 0.0
H391 H 1.01506 0.63488 0.83076 0.0
C392 C 0.96808 0.24492 0.42915 0.0
C393 C 0.96121 0.25232 0.3146 0.0
C394 C 0.90151 0.22233 0.32497 0.0
C395 C 0.91288 0.20804 0.42851 0.0
N396 N 0.94168 0.22506 0.60169 0.0
N397 N 0.9157 0.25755 0.16491 0.0
C398 C 0.94054 0.22684 0.48894 0.0
C399 C 0.92576 0.24519 0.26743 0.0
N400 N 1.00163 0.25154 0.47809 0.0
N401 N 0.86957 0.21041 0.27649 0.0
H402 H 0.93228 0.27455 0.11796 0.0
H403 H 0.93228 0.27455 0.11796 0.0
H404 H 0.85232 0.19246 0.31788 0.0
H405 H 0.86077 0.21887 0.19758 0.0
H406 H 1.00876 0.24264 0.55778 0.0
H407 H 1.02327 0.26359 0.43717 0.0
H408 H 0.96039 0.23987 0.65071 0.0
H409 H 0.92101 0.2121 0.64507 0.0
C410 C 0.33719 0.95353 0.47508 0.0
C411 C 0.32875 0.94674 0.36127 0.0
C412 C 0.35715 0.88654 0.37696 0.0
C413 C 0.37262 0.89791 0.47973 0.0
N414 N 0.3558 0.92616 0.65026 0.0
N415 N 0.31851 0.90237 0.21629 0.0
C416 C 0.35465 0.92569 0.53747 0.0
C417 C 0.33404 0.91126 0.31687 0.0
N418 N 0.3316 0.98697 0.52137 0.0
N419 N 0.36888 0.85457 0.33277 0.0
H420 H 0.30152 0.92048 0.17243 0.0
H421 H 0.32042 0.87671 0.18014 0.0
H422 H 0.38658 0.83752 0.37822 0.0
H423 H 0.36175 0.84538 0.25348 0.0
H424 H 0.34124 0.99378 0.60085 0.0
H425 H 0.31958 1.00868 0.47861 0.0
H426 H 0.3413 0.94505 0.69632 0.0
H427 H 0.36734 0.90478 0.69599 0.0
C428 C 0.63586 0.35871 0.29877 0.0
C429 C 0.61729 0.32619 0.32842 0.0
C430 C 0.66076 0.32297 0.48918 0.0
C431 C 0.67771 0.35525 0.452 0.0
N432 N 0.69571 0.3847 0.2839 0.0
N433 N 0.60296 0.29088 0.49195 0.0
C434 C 0.6713 0.36452 0.34098 0.0
C435 C 0.62775 0.31051 0.43374 0.0
N436 N 0.617 0.38827 0.26006 0.0
N437 N 0.67388 0.30746 0.58462 0.0
H438 H 0.57506 0.29124 0.47084 0.0
H439 H 0.60842 0.28021 0.57057 0.0
H440 H 0.69661 0.31862 0.62715 0.0
H441 H 0.66444 0.28261 0.61466 0.0
H442 H 0.62985 0.41345 0.25011 0.0
H443 H 0.58836 0.38869 0.25508 0.0
H444 H 0.68983 0.39309 0.20265 0.0
H445 H 0.72246 0.38885 0.3139 0.0
C446 C 0.25933 0.56637 0.45841 0.0
C447 C 0.27171 0.58137 0.3577 0.0
C448 C 0.24337 0.63948 0.40009 0.0
C449 C 0.22504 0.62249 0.48779 0.0
N450 N 0.22786 0.57675 0.63061 0.0
N451 N 0.28325 0.63553 0.24823 0.0
C452 C 0.23771 0.58838 0.52815 0.0
C453 C 0.2672 0.61904 0.3356 0.0
N454 N 0.26558 0.53047 0.48224 0.0
N455 N 0.2362 0.67461 0.37125 0.0
H456 H 0.30129 0.62217 0.19615 0.0
H457 H 0.30129 0.62217 0.19615 0.0
H458 H 0.21848 0.69116 0.4155 0.0
H459 H 0.21848 0.69116 0.4155 0.0
H460 H 0.25344 0.51662 0.54706 0.0
H461 H 0.28208 0.51399 0.43402 0.0
H462 H 0.23795 0.55315 0.66815 0.0
H463 H 0.21255 0.59285 0.68313 0.0
C464 C 0.93183 0.8349 0.21555 0.0
C465 C 0.94813 0.80027 0.20993 0.0
C466 C 0.98792 0.82082 0.0672 0.0
C467 C 0.9834 0.8568 0.1093 0.0
N468 N 0.9437 0.9 0.19854 0.0
N469 N 0.96051 0.76018 0.05902 0.0
C470 C 0.95214 0.86482 0.17328 0.0
C471 C 0.965 0.79317 0.10898 0.0
N472 N 0.90081 0.83894 0.27427 0.0
N473 N 1.01493 0.81261 0.9953 0.0
H474 H 0.94348 0.74038 0.09298 0.0
H475 H 0.97117 0.75415 0.9818 0.0
H476 H 0.033 0.83204 0.96504 0.0
H477 H 1.02045 0.78597 0.97082 0.0
H478 H 0.8869 0.86356 0.28113 0.0
H479 H 0.88843 0.8163 0.31049 0.0
H480 H 0.92316 0.90709 0.25277 0.0
H481 H 0.95784 0.92209 0.16548 0.0
C482 C 0.75167 0.11183 0.08501 0.0
C483 C 0.76049 0.11787 0.19898 0.0
C484 C 0.73455 0.17919 0.18546 0.0
C485 C 0.7184 0.16864 0.08279 0.0
N486 N 0.73519 0.14117 0.91106 0.0
N487 N 0.77328 0.16164 0.34424 0.0
C488 C 0.73565 0.14072 0.0238 0.0
C489 C 0.75682 0.15345 0.24439 0.0
N490 N 0.75563 0.07835 0.03734 0.0
N491 N 0.72405 0.21138 0.23095 0.0
H492 H 0.78976 0.14285 0.38713 0.0
H493 H 0.77276 0.1874 0.38031 0.0
H494 H 0.70681 0.22915 0.18645 0.0
H495 H 0.73161 0.21996 0.31055 0.0
H496 H 0.74586 0.07249 0.95728 0.0
H497 H 0.76615 0.05581 0.07964 0.0
H498 H 0.74921 0.12201 0.86457 0.0
H499 H 0.72482 0.16339 0.86653 0.0
C500 C 0.48054 0.73873 0.0719 0.0
C501 C 0.47026 0.74789 0.18104 0.0
C502 C 0.40954 0.72132 0.14696 0.0
C503 C 0.42286 0.70619 0.04834 0.0
N504 N 0.45986 0.71738 0.89048 0.0
N505 N 0.42177 0.76032 0.30713 0.0
C506 C 0.45429 0.7215 1.00098 0.0
C507 C 0.43327 0.74387 0.21273 0.0
N508 N 0.51581 0.74349 0.03923 0.0
N509 N 0.376 0.71042 0.18196 0.0
H510 H 0.43918 0.77689 0.35554 0.0
H511 H 0.39473 0.75988 0.33256 0.0
H512 H 0.35909 0.69372 0.13223 0.0
H513 H 0.3655 0.71708 0.2587 0.0
H514 H 0.52551 0.7332 0.96508 0.0
H515 H 0.53609 0.75582 0.0889 0.0
H516 H 0.48149 0.72969 0.84977 0.0
H517 H 0.44027 0.70513 0.83815 0.0
C518 C 0.82945 0.48197 0.09166 0.0
C519 C 0.81609 0.46693 0.19092 0.0
C520 C 0.84329 0.40801 0.14821 0.0
C521 C 0.8622 0.42518 0.06179 0.0
N522 N 0.86021 0.47105 0.9191 0.0
N523 N 0.79925 0.41401 0.29539 0.0
C524 C 0.85025 0.45951 0.02154 0.0
C525 C 0.81878 0.42901 0.21179 0.0
N526 N 0.8249 0.51823 0.06947 0.0
N527 N 0.85164 0.37275 0.17411 0.0
H528 H 0.78136 0.42953 0.34227 0.0
H529 H 0.79873 0.38629 0.31337 0.0
H530 H 0.86929 0.35753 0.12543 0.0
H531 H 0.8417 0.35888 0.24229 0.0
H532 H 0.83808 0.53183 1.00605 0.0
H533 H 0.80902 0.53525 0.11788 0.0
H534 H 0.85039 0.49484 0.88195 0.0
H535 H 0.87509 0.45475 0.86607 0.0
C536 C 0.04036 0.20056 0.91935 0.0
C537 C 0.04514 0.20099 0.03676 0.0
C538 C 0.05166 0.13393 0.03399 0.0
C539 C 0.04917 0.13341 0.91543 0.0
N540 N 0.05045 0.1685 0.74636 0.0
N541 N 0.06523 0.16894 0.20111 0.0
C542 C 0.04626 0.16746 0.85848 0.0
C543 C 0.05421 0.16791 0.09202 0.0
N544 N 0.02883 0.23142 0.86586 0.0
N545 N 0.04869 0.10228 0.09299 0.0
H546 H 0.06751 0.19326 0.24579 0.0
H547 H 0.07575 0.14635 0.24338 0.0
H548 H 0.04404 0.07687 0.05687 0.0
H549 H 0.04624 0.10169 0.17881 0.0
H550 H 1.02061 0.23184 0.78253 0.0
H551 H 0.02506 0.25612 0.90686 0.0
H552 H 0.05187 0.19269 0.70145 0.0
H553 H 0.05655 0.14543 0.69991 0.0
C554 C 0.39355 0.05604 0.05562 0.0
C555 C 0.37117 0.02422 0.05026 0.0
C556 C 0.41495 0.99686 0.92065 0.0
C557 C 0.43635 0.02958 0.92082 0.0
N558 N 0.43847 0.0938 0.96448 0.0
N559 N 0.35578 0.96869 0.95317 0.0
C560 C 0.42329 0.06022 0.98104 0.0
C561 C 0.38034 0.99619 0.97422 0.0
N562 N 0.38781 0.08162 0.13551 0.0
N563 N 0.42847 0.96545 0.87662 0.0
H564 H 0.33003 0.9678 0.98882 0.0
H565 H 0.35937 0.94897 0.89236 0.0
H566 H 0.45424 0.96345 0.84226 0.0
H567 H 0.41582 0.94014 0.88519 0.0
H568 H 0.40587 0.10317 0.15164 0.0
H569 H 0.36672 0.07967 0.19185 0.0
H570 H 0.42802 0.11763 0.99835 0.0
H571 H 0.45872 0.09842 0.90663 0.0
C572 C 0.51652 0.38068 0.05939 0.0
C573 C 0.5334 0.34997 1.01089 0.0
C574 C 0.5421 0.38613 0.84087 0.0
C575 C 0.53134 0.41838 0.89704 0.0
N576 N 0.51315 0.44646 0.06869 0.0
N577 N 0.56387 0.32359 0.85615 0.0
C578 C 0.51926 0.41563 1.00818 0.0
C579 C 0.54634 0.35266 0.90119 0.0
N580 N 0.49858 0.37654 0.15659 0.0
N581 N 0.54724 0.38724 0.72924 0.0
H582 H 0.56574 0.29843 0.89635 0.0
H583 H 0.57793 0.32496 0.78221 0.0
H584 H 0.54294 0.41086 0.68256 0.0
H585 H 0.55218 0.36418 0.68156 0.0
H586 H 0.4827 0.39696 0.19111 0.0
H587 H 0.49652 0.35143 0.19658 0.0
H588 H 0.50842 0.44616 0.15345 0.0
H589 H 0.51643 0.47272 0.03781 0.0
C590 C 0.20619 0.48933 1.00626 0.0
C591 C 0.22732 0.52204 1.01015 0.0
C592 C 0.17801 0.55334 0.90443 0.0
C593 C 0.15679 0.52061 0.89816 0.0
N594 N 0.15623 0.45515 0.91769 0.0
N595 N 0.23408 0.58426 0.94459 0.0
C596 C 0.17259 0.48789 0.94159 0.0
C597 C 0.21382 0.55313 0.95195 0.0
N598 N 0.21703 0.46017 0.06921 0.0
N599 N 0.16463 0.58624 0.8705 0.0
H600 H 0.26104 0.58679 0.97498 0.0
H601 H 0.26104 0.58679 0.97498 0.0
H602 H 0.13792 0.59069 0.8408 0.0
H603 H 0.13792 0.59069 0.8408 0.0
H604 H 0.20057 0.43732 0.08128 0.0
H605 H 0.2415 0.45982 0.11581 0.0
H606 H 0.16814 0.43014 0.93753 0.0
H607 H 0.13261 0.45282 0.86754 0.0
C608 C 1.00057 0.85752 0.60828 0.0
C609 C 0.02486 0.84504 0.52634 0.0
C610 C 0.05861 0.90355 0.54313 0.0
C611 C 0.03134 0.91794 0.61348 0.0
N612 N 0.97561 0.90797 0.71193 0.0
N613 N 0.07865 0.85762 0.41808 0.0
C614 C 1.00216 0.89461 0.64575 0.0
C615 C 0.05432 0.86813 0.49547 0.0
N616 N 0.97652 0.83326 0.6527 0.0
N617 N 0.08856 0.92402 0.51765 0.0
H618 H 0.07768 0.83262 0.37686 0.0
H619 H 0.07768 0.83262 0.37686 0.0
H620 H 0.0938 0.94969 0.55131 0.0
H621 H 0.10879 0.91469 0.46507 0.0
H622 H 0.96042 0.83901 0.72044 0.0
H623 H 0.97537 0.80595 0.62834 0.0
H624 H 0.95097 0.8946 0.72621 0.0
H625 H 0.97795 0.93321 0.75059 0.0
C626 C 0.69881 1.00784 0.50974 0.0
C627 C 0.72087 0.03991 0.5131 0.0
C628 C 0.67787 0.06693 0.64583 0.0
C629 C 0.65679 0.034 0.6473 0.0
N630 N 0.65515 0.96969 0.60476 0.0
N631 N 0.73648 0.09563 0.60876 0.0
C632 C 0.66976 1.00343 0.58659 0.0
C633 C 0.71204 0.06788 0.5897 0.0
N634 N 0.70415 0.98224 0.42961 0.0
N635 N 0.66445 0.09824 0.69075 0.0
H636 H 0.76193 0.0967 0.57127 0.0
H637 H 0.73319 0.11539 0.66962 0.0
H638 H 0.639 0.10003 0.7272 0.0
H639 H 0.67678 0.12365 0.68106 0.0
H640 H 0.6862 0.96048 0.4151 0.0
H641 H 0.72469 0.98436 0.37153 0.0
H642 H 0.66562 0.94595 0.57045 0.0
H643 H 0.63547 0.96493 0.66429 0.0
C644 C 0.57395 0.68348 0.51633 0.0
C645 C 0.54098 0.70412 0.51341 0.0
C646 C 0.51203 0.6569 0.62881 0.0
C647 C 0.54574 0.63729 0.63774 0.0
N648 N 0.61122 0.63847 0.61409 0.0
N649 N 0.48204 0.71489 0.59209 0.0
C650 C 0.57743 0.65264 0.58882 0.0
C651 C 0.51127 0.69225 0.57859 0.0
N652 N 0.60139 0.69197 0.44586 0.0
N653 N 0.48002 0.64098 0.66052 0.0
H654 H 0.481 0.74112 0.55866 0.0
H655 H 0.46072 0.70916 0.64514 0.0
H656 H 0.47836 0.61454 0.69124 0.0
H657 H 0.45433 0.6525 0.64495 0.0
H658 H 0.62412 0.67533 0.43497 0.0
H659 H 0.60004 0.71402 0.39149 0.0
H660 H 0.63557 0.65048 0.58905 0.0
H661 H 0.61512 0.61719 0.67044 0.0
C662 C 0.88106 0.55928 0.54361 0.0
C663 C 0.85982 0.5267 0.53861 0.0
C664 C 0.90903 0.49485 0.64382 0.0
C665 C 0.92963 0.52789 0.6541 0.0
N666 N 0.92934 0.59352 0.63965 0.0
N667 N 0.84933 0.46668 0.61158 0.0
C668 C 0.91379 0.56072 0.6119 0.0
C669 C 0.87241 0.49568 0.59875 0.0
N670 N 0.87112 0.58838 0.47915 0.0
N671 N 0.9251 0.46211 0.6685 0.0
H672 H 0.82236 0.46667 0.58031 0.0
H673 H 0.85561 0.44452 0.66256 0.0
H674 H 0.95248 0.4594 0.69348 0.0
H675 H 0.91242 0.43712 0.6522 0.0
H676 H 0.88785 0.61116 0.46916 0.0
H677 H 0.84736 0.58865 0.42921 0.0
H678 H 0.91724 0.61845 0.61974 0.0
H679 H 0.95218 0.59584 0.69312 0.0
loop_
_geom_bond_atom_site_label_1
_geom_bond_atom_site_label_2
_geom_bond_distance
_geom_bond_site_symmetry_2
_ccdc_geom_bond_type
H0 C3 0.929 . S
H1 C6 0.929 . S
H2 C8 0.930 . S
C3 H0 0.929 . S
C3 C4 1.398 . S
C3 C5 1.396 . S
C4 C3 1.398 . S
C4 C8 1.407 . S
C5 C3 1.396 . S
C5 C6 1.394 . S
C6 H1 0.929 . S
C6 C5 1.394 . S
C6 C7 1.382 . S
C7 C6 1.382 . S
C7 C8 1.392 . S
C7 N9 1.420 . S
C8 H2 0.930 . S
C8 C4 1.407 . S
C8 C7 1.392 . S
N9 C7 1.420 . S
N9 C10 1.244 . S
C10 N9 1.244 . S
H11 C14 0.929 . S
H12 C17 0.929 . S
H13 C19 0.930 . S
C14 H11 0.929 . S
C14 C15 1.398 . S
C14 C16 1.396 . S
C15 C14 1.398 . S
C15 C19 1.407 . S
C16 C14 1.396 . S
C16 C17 1.394 . S
C17 H12 0.929 . S
C17 C16 1.394 . S
C17 C18 1.382 . S
C18 C17 1.382 . S
C18 C19 1.392 . S
C18 N20 1.420 . S
C19 H13 0.930 . S
C19 C15 1.407 . S
C19 C18 1.392 . S
N20 C18 1.420 . S
N20 C21 1.244 . S
C21 N20 1.244 . S
H22 C25 0.929 . S
H23 C28 0.929 . S
H24 C30 0.930 . S
C25 H22 0.929 . S
C25 C26 1.398 . S
C25 C27 1.396 . S
C26 C25 1.398 . S
C26 C30 1.407 . S
C27 C25 1.396 . S
C27 C28 1.394 . S
C28 H23 0.929 . S
C28 C27 1.394 . S
C28 C29 1.382 . S
C29 C28 1.382 . S
C29 C30 1.392 . S
C29 N31 1.424 . S
C30 H24 0.930 . S
C30 C26 1.407 . S
C30 C29 1.392 . S
N31 C29 1.424 . S
N31 C32 1.258 . S
C32 N31 1.258 . S
H33 C36 0.929 . S
H34 C39 0.929 . S
H35 C41 0.930 . S
C36 H33 0.929 . S
C36 C37 1.398 . S
C36 C38 1.396 . S
C37 C36 1.398 . S
C37 C41 1.407 . S
C38 C36 1.396 . S
C38 C39 1.394 . S
C39 H34 0.929 . S
C39 C38 1.394 . S
C39 C40 1.382 . S
C40 C39 1.382 . S
C40 C41 1.392 . S
C40 N42 1.420 . S
C41 H35 0.930 . S
C41 C37 1.407 . S
C41 C40 1.392 . S
N42 C40 1.420 . S
N42 C43 1.244 . S
C43 N42 1.244 . S
H44 C47 0.929 . S
H45 C50 0.929 . S
H46 C52 0.930 . S
C47 H44 0.929 . S
C47 C48 1.398 1_554 S
C47 C49 1.396 . S
C48 C47 1.398 1_556 S
C48 C52 1.407 . S
C49 C47 1.396 . S
C49 C50 1.394 . S
C50 H45 0.929 . S
C50 C49 1.394 . S
C50 C51 1.382 . S
C51 C50 1.382 . S
C51 C52 1.392 1_554 S
C51 N53 1.420 . S
C52 H46 0.930 . S
C52 C48 1.407 . S
C52 C51 1.392 1_556 S
N53 C51 1.420 . S
N53 C54 1.244 . S
C54 N53 1.244 . S
H55 C58 0.929 . S
H56 C61 0.929 . S
H57 C63 0.930 . S
C58 H55 0.929 . S
C58 C59 1.398 1_554 S
C58 C60 1.396 . S
C59 C58 1.398 1_556 S
C59 C63 1.407 . S
C60 C58 1.396 . S
C60 C61 1.394 . S
C61 H56 0.929 . S
C61 C60 1.394 . S
C61 C62 1.382 . S
C62 C61 1.382 . S
C62 C63 1.392 1_554 S
C62 N64 1.420 . S
C63 H57 0.930 . S
C63 C59 1.407 . S
C63 C62 1.392 1_556 S
N64 C62 1.420 . S
N64 C65 1.244 . S
C65 N64 1.244 . S
H66 C69 0.929 . S
H67 C72 0.929 . S
H68 C74 0.930 . S
C69 H66 0.929 . S
C69 C70 1.398 . S
C69 C71 1.396 1_556 S
C70 C69 1.398 . S
C70 C74 1.407 . S
C71 C69 1.396 1_554 S
C71 C72 1.394 . S
C72 H67 0.929 . S
C72 C71 1.394 . S
C72 C73 1.382 . S
C73 C72 1.382 . S
C73 C74 1.392 1_554 S
C73 N75 1.420 . S
C74 H68 0.930 . S
C74 C70 1.407 . S
C74 C73 1.392 1_556 S
N75 C73 1.420 . S
N75 C76 1.244 . S
C76 N75 1.244 . S
H77 C80 0.929 . S
H78 C83 0.929 . S
H79 C85 0.930 . S
C80 H77 0.929 . S
C80 C81 1.398 1_554 S
C80 C82 1.396 . S
C81 C80 1.398 1_556 S
C81 C85 1.407 . S
C82 C80 1.396 . S
C82 C83 1.394 . S
C83 H78 0.929 . S
C83 C82 1.394 . S
C83 C84 1.382 . S
C84 C83 1.382 . S
C84 C85 1.392 1_554 S
C84 N86 1.420 . S
C85 H79 0.930 . S
C85 C81 1.407 . S
C85 C84 1.392 1_556 S
N86 C84 1.420 . S
N86 C87 1.244 . S
C87 N86 1.244 . S
Eu88 C97 2.828 . S
Eu88 O99 2.392 . S
Eu88 O101 2.418 1_545 S
Eu88 O106 2.373 1_655 S
Eu88 O109 2.488 . S
Eu88 O110 2.471 . S
Eu88 O111 2.349 1_655 S
Eu89 O98 2.373 1_455 S
Eu89 O102 2.488 1_556 S
Eu89 O103 2.471 . S
Eu89 O104 2.349 . S
Eu89 O107 2.392 1_565 S
Eu89 O108 2.418 1_565 S
Eu89 C118 2.828 1_556 S
C90 O108 1.244 . S
C90 O111 1.265 . S
C91 C92 1.379 1_655 S
C91 C95 1.373 . S
C91 C97 1.505 . S
C92 C91 1.379 1_455 S
C92 C94 1.369 . S
C92 H120 0.930 . S
C93 C95 1.383 . S
C93 C96 1.382 . S
C93 H121 0.930 . S
C94 C92 1.369 . S
C94 C96 1.392 1_455 S
C94 H122 0.930 . S
C95 C91 1.373 . S
C95 C93 1.383 . S
C95 H123 0.931 . S
C96 C93 1.382 . S
C96 C94 1.392 1_655 S
C97 Eu88 2.828 . S
C97 C91 1.505 . S
C97 O109 1.249 . S
C97 O110 1.244 . S
O98 Eu89 2.373 1_655 S
O98 C100 1.259 . S
O99 Eu88 2.392 . S
O99 C100 1.240 1_545 S
C100 O98 1.259 . S
C100 O99 1.240 1_565 S
O101 Eu88 2.418 1_565 S
O101 C105 1.244 . S
O102 Eu89 2.488 1_554 S
O102 C118 1.249 . S
O103 Eu89 2.471 . S
O103 C118 1.244 1_556 S
O104 Eu89 2.349 . S
O104 C105 1.265 1_455 S
C105 O101 1.244 . S
C105 O104 1.265 1_655 S
O106 Eu88 2.373 1_455 S
O106 C119 1.258 . S
O107 Eu89 2.392 1_545 S
O107 C119 1.242 . S
O108 Eu89 2.418 1_545 S
O108 C90 1.244 . S
O109 Eu88 2.488 . S
O109 C97 1.249 . S
O110 Eu88 2.471 . S
O110 C97 1.244 . S
O111 Eu88 2.349 1_455 S
O111 C90 1.265 . S
C112 C113 1.379 . S
C112 C116 1.373 . S
C112 C118 1.505 . S
C113 C112 1.379 . S
C113 C115 1.369 . S
C113 H124 0.930 1_455 S
C114 C116 1.383 . S
C114 C117 1.382 . S
C114 H125 0.930 . S
C115 C113 1.369 . S
C115 C117 1.392 . S
C115 H126 0.930 1_455 S
C116 C112 1.373 . S
C116 C114 1.383 . S
C116 H127 0.931 . S
C117 C114 1.382 . S
C117 C115 1.392 . S
C118 Eu89 2.828 1_554 S
C118 O102 1.249 . S
C118 O103 1.244 1_554 S
C118 C112 1.505 . S
C119 O106 1.258 . S
C119 O107 1.242 . S
H120 C92 0.930 . S
H121 C93 0.930 . S
H122 C94 0.930 . S
H123 C95 0.931 . S
H124 C113 0.930 1_655 S
H125 C114 0.930 . S
H126 C115 0.930 1_655 S
H127 C116 0.931 . S
Eu128 C137 2.828 . S
Eu128 O139 2.392 . S
Eu128 O141 2.418 . S
Eu128 O146 2.373 . S
Eu128 O149 2.488 . S
Eu128 O150 2.471 . S
Eu128 O151 2.349 1_545 S
Eu129 O138 2.373 1_565 S
Eu129 O142 2.488 . S
Eu129 O143 2.471 1_565 S
Eu129 O144 2.349 1_565 S
Eu129 O147 2.392 . S
Eu129 O148 2.418 . S
Eu129 C158 2.828 . S
C130 O148 1.244 . S
C130 O151 1.265 . S
C131 C132 1.379 . S
C131 C135 1.373 . S
C131 C137 1.505 1_554 S
C132 C131 1.379 . S
C132 C134 1.369 . S
C132 H160 0.930 1_545 S
C133 C135 1.383 . S
C133 C136 1.382 . S
C133 H161 0.930 . S
C134 C132 1.369 . S
C134 C136 1.392 . S
C134 H162 0.930 1_545 S
C135 C131 1.373 . S
C135 C133 1.383 . S
C135 H163 0.931 . S
C136 C133 1.382 . S
C136 C134 1.392 . S
C137 Eu128 2.828 . S
C137 C131 1.505 1_556 S
C137 O149 1.249 . S
C137 O150 1.244 . S
O138 Eu129 2.373 1_545 S
O138 C140 1.258 . S
O139 Eu128 2.392 . S
O139 C140 1.242 . S
C140 O138 1.258 . S
C140 O139 1.242 . S
O141 Eu128 2.418 . S
O141 C145 1.244 . S
O142 Eu129 2.488 . S
O142 C158 1.249 . S
O143 Eu129 2.471 1_545 S
O143 C158 1.244 1_545 S
O144 Eu129 2.349 1_545 S
O144 C145 1.265 . S
C145 O141 1.244 . S
C145 O144 1.265 . S
O146 Eu128 2.373 . S
O146 C159 1.258 1_545 S
O147 Eu129 2.392 . S
O147 C159 1.242 . S
O148 Eu129 2.418 . S
O148 C130 1.244 . S
O149 Eu128 2.488 . S
O149 C137 1.249 . S
O150 Eu128 2.471 . S
O150 C137 1.244 . S
O151 Eu128 2.349 1_565 S
O151 C130 1.265 . S
C152 C153 1.379 1_565 S
C152 C156 1.373 . S
C152 C158 1.505 . S
C153 C152 1.379 1_545 S
C153 C155 1.369 . S
C153 H164 0.930 . S
C154 C156 1.383 . S
C154 C157 1.382 . S
C154 H165 0.930 . S
C155 C153 1.369 . S
C155 C157 1.392 1_545 S
C155 H166 0.930 . S
C156 C152 1.373 . S
C156 C154 1.383 . S
C156 H167 0.931 . S
C157 C154 1.382 . S
C157 C155 1.392 1_565 S
C158 Eu129 2.828 . S
C158 O142 1.249 . S
C158 O143 1.244 1_565 S
C158 C152 1.505 . S
C159 O146 1.258 1_565 S
C159 O147 1.242 . S
H160 C132 0.930 1_565 S
H161 C133 0.930 . S
H162 C134 0.930 1_565 S
H163 C135 0.931 . S
H164 C153 0.930 . S
H165 C154 0.930 . S
H166 C155 0.930 . S
H167 C156 0.931 . S
Eu168 C177 2.828 . S
Eu168 O179 2.392 . S
Eu168 O181 2.418 . S
Eu168 O186 2.373 . S
Eu168 O189 2.488 . S
Eu168 O190 2.471 . S
Eu168 O191 2.349 . S
Eu169 O178 2.373 . S
Eu169 O182 2.488 . S
Eu169 O183 2.471 . S
Eu169 O184 2.349 . S
Eu169 O187 2.392 . S
Eu169 O188 2.418 . S
Eu169 C198 2.828 . S
C170 O188 1.244 . S
C170 O191 1.265 . S
C171 C172 1.379 . S
C171 C175 1.373 . S
C171 C177 1.505 1_554 S
C172 C171 1.379 . S
C172 C174 1.369 . S
C172 H200 0.930 . S
C173 C175 1.383 . S
C173 C176 1.382 . S
C173 H201 0.930 . S
C174 C172 1.369 . S
C174 C176 1.392 . S
C174 H202 0.930 . S
C175 C171 1.373 . S
C175 C173 1.383 . S
C175 H203 0.931 . S
C176 C173 1.382 . S
C176 C174 1.392 . S
C177 Eu168 2.828 . S
C177 C171 1.505 1_556 S
C177 O189 1.249 . S
C177 O190 1.244 . S
O178 Eu169 2.373 . S
O178 C180 1.258 . S
O179 Eu168 2.392 . S
O179 C180 1.242 . S
C180 O178 1.258 . S
C180 O179 1.242 . S
O181 Eu168 2.418 . S
O181 C185 1.244 . S
O182 Eu169 2.488 . S
O182 C198 1.249 . S
O183 Eu169 2.471 . S
O183 C198 1.244 . S
O184 Eu169 2.349 . S
O184 C185 1.265 . S
C185 O181 1.244 . S
C185 O184 1.265 . S
O186 Eu168 2.373 . S
O186 C199 1.258 . S
O187 Eu169 2.392 . S
O187 C199 1.242 . S
O188 Eu169 2.418 . S
O188 C170 1.244 . S
O189 Eu168 2.488 . S
O189 C177 1.249 . S
O190 Eu168 2.471 . S
O190 C177 1.244 . S
O191 Eu168 2.349 . S
O191 C170 1.265 . S
C192 C193 1.379 . S
C192 C196 1.373 . S
C192 C198 1.505 . S
C193 C192 1.379 . S
C193 C195 1.369 . S
C193 H204 0.930 . S
C194 C196 1.383 . S
C194 C197 1.382 . S
C194 H205 0.930 . S
C195 C193 1.369 . S
C195 C197 1.392 . S
C195 H206 0.930 . S
C196 C192 1.373 . S
C196 C194 1.383 . S
C196 H207 0.931 . S
C197 C194 1.382 . S
C197 C195 1.392 . S
C198 Eu169 2.828 . S
C198 O182 1.249 . S
C198 O183 1.244 . S
C198 C192 1.505 . S
C199 O186 1.258 . S
C199 O187 1.242 . S
H200 C172 0.930 . S
H201 C173 0.930 . S
H202 C174 0.930 . S
H203 C175 0.931 . S
H204 C193 0.930 . S
H205 C194 0.930 . S
H206 C195 0.930 . S
H207 C196 0.931 . S
Eu208 C217 2.828 . S
Eu208 O219 2.392 . S
Eu208 O221 2.418 1_455 S
Eu208 O226 2.373 . S
Eu208 O229 2.488 . S
Eu208 O230 2.471 . S
Eu208 O231 2.349 . S
Eu209 O218 2.373 . S
Eu209 O222 2.488 1_556 S
Eu209 O223 2.471 . S
Eu209 O224 2.349 . S
Eu209 O227 2.392 1_655 S
Eu209 O228 2.418 1_655 S
Eu209 C238 2.828 1_556 S
C210 O228 1.244 . S
C210 O231 1.265 . S
C211 C212 1.379 . S
C211 C215 1.373 . S
C211 C217 1.505 . S
C212 C211 1.379 . S
C212 C214 1.369 . S
C212 H240 0.930 . S
C213 C215 1.383 . S
C213 C216 1.382 . S
C213 H241 0.930 . S
C214 C212 1.369 . S
C214 C216 1.392 . S
C214 H242 0.930 . S
C215 C211 1.373 . S
C215 C213 1.383 . S
C215 H243 0.931 . S
C216 C213 1.382 . S
C216 C214 1.392 . S
C217 Eu208 2.828 . S
C217 C211 1.505 . S
C217 O229 1.249 . S
C217 O230 1.244 . S
O218 Eu209 2.373 . S
O218 C220 1.262 . S
O219 Eu208 2.392 . S
O219 C220 1.231 1_455 S
C220 O218 1.262 . S
C220 O219 1.231 1_655 S
O221 Eu208 2.418 1_655 S
O221 C225 1.244 . S
O222 Eu209 2.488 1_554 S
O222 C238 1.249 . S
O223 Eu209 2.471 . S
O223 C238 1.244 1_556 S
O224 Eu209 2.349 . S
O224 C225 1.265 . S
C225 O221 1.244 . S
C225 O224 1.265 . S
O226 Eu208 2.373 . S
O226 C239 1.258 . S
O227 Eu209 2.392 1_455 S
O227 C239 1.242 . S
O228 Eu209 2.418 1_455 S
O228 C210 1.244 . S
O229 Eu208 2.488 . S
O229 C217 1.249 . S
O230 Eu208 2.471 . S
O230 C217 1.244 . S
O231 Eu208 2.349 . S
O231 C210 1.265 . S
C232 C233 1.379 . S
C232 C236 1.373 . S
C232 C238 1.505 . S
C233 C232 1.379 . S
C233 C235 1.369 . S
C233 H244 0.930 . S
C234 C236 1.383 . S
C234 C237 1.382 . S
C234 H245 0.930 . S
C235 C233 1.369 . S
C235 C237 1.392 . S
C235 H246 0.930 . S
C236 C232 1.373 . S
C236 C234 1.383 . S
C236 H247 0.931 . S
C237 C234 1.382 . S
C237 C235 1.392 . S
C238 Eu209 2.828 1_554 S
C238 O222 1.249 . S
C238 O223 1.244 1_554 S
C238 C232 1.505 . S
C239 O226 1.258 . S
C239 O227 1.242 . S
H240 C212 0.930 . S
H241 C213 0.930 . S
H242 C214 0.930 . S
H243 C215 0.931 . S
H244 C233 0.930 . S
H245 C234 0.930 . S
H246 C235 0.930 . S
H247 C236 0.931 . S
C248 C249 1.363 . S
C248 C254 1.379 . S
C248 N256 1.356 . S
C249 C248 1.363 . S
C249 C255 1.363 . S
C250 C251 1.363 . S
C250 C255 1.379 . S
C250 N257 1.356 1_545 S
C251 C250 1.363 . S
C251 C254 1.363 . S
N252 C254 1.356 . S
N252 H264 0.984 . S
N252 H265 0.985 . S
N253 C255 1.356 1_565 S
N253 H258 0.984 . S
N253 H259 0.985 . S
C254 C248 1.379 . S
C254 C251 1.363 . S
C254 N252 1.356 . S
C255 C249 1.363 . S
C255 C250 1.379 . S
C255 N253 1.356 1_545 S
N256 C248 1.356 . S
N256 H262 0.984 . S
N256 H263 0.984 . S
N257 C250 1.356 1_565 S
N257 H260 0.984 . S
N257 H261 0.985 . S
H258 N253 0.984 . S
H259 N253 0.985 . S
H260 N257 0.984 . S
H261 N257 0.985 . S
H262 N256 0.984 . S
H263 N256 0.984 . S
H264 N252 0.984 . S
H265 N252 0.985 . S
C266 C267 1.363 . S
C266 C272 1.379 . S
C266 N274 1.356 . S
C267 C266 1.363 . S
C267 C273 1.363 . S
C268 C269 1.363 . S
C268 C273 1.379 . S
C268 N275 1.356 . S
C269 C268 1.363 . S
C269 C272 1.363 . S
N270 C272 1.356 . S
N270 H282 0.984 . S
N270 H283 0.985 . S
N271 C273 1.356 . S
N271 H276 0.984 . S
N271 H277 0.985 . S
C272 C266 1.379 . S
C272 C269 1.363 . S
C272 N270 1.356 . S
C273 C267 1.363 . S
C273 C268 1.379 . S
C273 N271 1.356 . S
N274 C266 1.356 . S
N274 H280 0.984 . S
N274 H281 0.984 . S
N275 C268 1.356 . S
N275 H278 0.984 . S
N275 H279 0.985 . S
H276 N271 0.984 . S
H277 N271 0.985 . S
H278 N275 0.984 . S
H279 N275 0.985 . S
H280 N274 0.984 . S
H281 N274 0.984 . S
H282 N270 0.984 . S
H283 N270 0.985 . S
C284 C285 1.363 . S
C284 C290 1.379 . S
C284 N292 1.356 . S
C285 C284 1.363 . S
C285 C291 1.363 . S
C286 C287 1.363 . S
C286 C291 1.379 . S
C286 N293 1.356 . S
C287 C286 1.363 . S
C287 C290 1.363 . S
N288 C290 1.356 . S
N288 H300 0.984 . S
N288 H301 0.985 . S
N289 C291 1.356 . S
N289 H294 0.984 . S
N289 H295 0.985 . S
C290 C284 1.379 . S
C290 C287 1.363 . S
C290 N288 1.356 . S
C291 C285 1.363 . S
C291 C286 1.379 . S
C291 N289 1.356 . S
N292 C284 1.356 . S
N292 H298 0.984 . S
N292 H299 0.984 . S
N293 C286 1.356 . S
N293 H296 0.984 . S
N293 H297 0.985 . S
H294 N289 0.984 . S
H295 N289 0.985 . S
H296 N293 0.984 . S
H297 N293 0.985 . S
H298 N292 0.984 . S
H299 N292 0.984 . S
H300 N288 0.984 . S
H301 N288 0.985 . S
C302 C303 1.363 . S
C302 C308 1.379 . S
C302 N310 1.356 . S
C303 C302 1.363 . S
C303 C309 1.363 . S
C304 C305 1.363 . S
C304 C309 1.379 . S
C304 N311 1.356 . S
C305 C304 1.363 . S
C305 C308 1.363 . S
N306 C308 1.356 . S
N306 H318 0.984 . S
N306 H319 0.985 . S
N307 C309 1.356 . S
N307 H312 0.984 . S
N307 H313 0.985 . S
C308 C302 1.379 . S
C308 C305 1.363 . S
C308 N306 1.356 . S
C309 C303 1.363 . S
C309 C304 1.379 . S
C309 N307 1.356 . S
N310 C302 1.356 . S
N310 H316 0.984 . S
N310 H317 0.984 . S
N311 C304 1.356 . S
N311 H314 0.984 . S
N311 H315 0.985 . S
H312 N307 0.984 . S
H313 N307 0.985 . S
H314 N311 0.984 . S
H315 N311 0.985 . S
H316 N310 0.984 . S
H317 N310 0.984 . S
H318 N306 0.984 . S
H319 N306 0.985 . S
C320 C321 1.363 . S
C320 C326 1.379 . S
C320 N328 1.356 . S
C321 C320 1.363 . S
C321 C327 1.363 1_565 S
C322 C323 1.363 1_545 S
C322 C327 1.379 . S
C322 N329 1.356 . S
C323 C322 1.363 1_565 S
C323 C326 1.363 . S
N324 C326 1.356 . S
N324 H336 0.984 . S
N324 H337 0.985 1_554 S
N325 C327 1.356 . S
N325 H330 0.984 . S
N325 H331 0.985 . S
C326 C320 1.379 . S
C326 C323 1.363 . S
C326 N324 1.356 . S
C327 C321 1.363 1_545 S
C327 C322 1.379 . S
C327 N325 1.356 . S
N328 C320 1.356 . S
N328 H334 0.984 . S
N328 H335 0.984 . S
N329 C322 1.356 . S
N329 H332 0.984 1_554 S
N329 H333 0.985 . S
H330 N325 0.984 . S
H331 N325 0.985 . S
H332 N329 0.984 1_556 S
H333 N329 0.985 . S
H334 N328 0.984 . S
H335 N328 0.984 . S
H336 N324 0.984 . S
H337 N324 0.985 1_556 S
C338 C339 1.363 . S
C338 C344 1.379 . S
C338 N346 1.356 . S
C339 C338 1.363 . S
C339 C345 1.363 . S
C340 C341 1.363 . S
C340 C345 1.379 . S
C340 N347 1.356 . S
C341 C340 1.363 . S
C341 C344 1.363 . S
N342 C344 1.356 1_556 S
N342 H354 0.984 . S
N342 H355 0.985 . S
N343 C345 1.356 . S
N343 H348 0.984 . S
N343 H349 0.985 . S
C344 C338 1.379 . S
C344 C341 1.363 . S
C344 N342 1.356 1_554 S
C345 C339 1.363 . S
C345 C340 1.379 . S
C345 N343 1.356 . S
N346 C338 1.356 . S
N346 H352 0.984 . S
N346 H353 0.984 . S
N347 C340 1.356 . S
N347 H350 0.984 1_554 S
N347 H351 0.985 . S
H348 N343 0.984 . S
H349 N343 0.985 . S
H350 N347 0.984 1_556 S
H351 N347 0.985 . S
H352 N346 0.984 . S
H353 N346 0.984 . S
H354 N342 0.984 . S
H355 N342 0.985 . S
C356 C357 1.363 . S
C356 C362 1.379 . S
C356 N364 1.356 . S
C357 C356 1.363 . S
C357 C363 1.363 . S
C358 C359 1.363 . S
C358 C363 1.379 . S
C358 N365 1.356 1_554 S
C359 C358 1.363 . S
C359 C362 1.363 . S
N360 C362 1.356 . S
N360 H372 0.984 . S
N360 H373 0.985 1_554 S
N361 C363 1.356 . S
N361 H366 0.984 . S
N361 H367 0.985 . S
C362 C356 1.379 . S
C362 C359 1.363 . S
C362 N360 1.356 . S
C363 C357 1.363 . S
C363 C358 1.379 . S
C363 N361 1.356 . S
N364 C356 1.356 . S
N364 H370 0.984 . S
N364 H371 0.984 . S
N365 C358 1.356 1_556 S
N365 H368 0.984 . S
N365 H369 0.985 . S
H366 N361 0.984 . S
H367 N361 0.985 . S
H368 N365 0.984 . S
H369 N365 0.985 . S
H370 N364 0.984 . S
H371 N364 0.984 . S
H372 N360 0.984 . S
H373 N360 0.985 1_556 S
C374 C375 1.363 . S
C374 C380 1.379 . S
C374 N382 1.356 . S
C375 C374 1.363 . S
C375 C381 1.347 1_655 S
C376 C377 1.363 1_455 S
C376 C381 1.384 . S
C376 N383 1.356 . S
C377 C376 1.363 1_655 S
C377 C380 1.363 . S
N378 C380 1.356 1_556 S
N378 H390 0.984 . S
N378 H391 0.985 . S
N379 C381 1.363 . S
N379 H384 0.984 . S
N379 H385 0.985 . S
C380 C374 1.379 . S
C380 C377 1.363 . S
C380 N378 1.356 1_554 S
C381 C375 1.347 1_455 S
C381 C376 1.384 . S
C381 N379 1.363 . S
N382 C374 1.356 . S
N382 H388 0.984 . S
N382 H389 0.984 . S
N383 C376 1.356 . S
N383 H386 0.984 . S
N383 H387 0.985 . S
H384 N379 0.984 . S
H385 N379 0.985 . S
H386 N383 0.984 . S
H387 N383 0.985 . S
H388 N382 0.984 . S
H389 N382 0.984 . S
H390 N378 0.984 . S
H391 N378 0.985 . S
C392 C393 1.363 . S
C392 C398 1.379 . S
C392 N400 1.356 . S
C393 C392 1.363 . S
C393 C399 1.363 . S
C394 C395 1.363 1_655 S
C394 C399 1.379 1_655 S
C394 N401 1.356 . S
C395 C394 1.363 1_455 S
C395 C398 1.363 . S
N396 C398 1.356 . S
N396 H408 0.984 . S
N396 H409 0.985 . S
N397 C399 1.356 . S
N397 H402 0.984 . S
N397 H403 0.985 1_554 S
C398 C392 1.379 . S
C398 C395 1.363 . S
C398 N396 1.356 . S
C399 C393 1.363 . S
C399 C394 1.379 1_455 S
C399 N397 1.356 . S
N400 C392 1.356 . S
N400 H406 0.984 . S
N400 H407 0.984 . S
N401 C394 1.356 . S
N401 H404 0.984 . S
N401 H405 0.985 1_554 S
H402 N397 0.984 . S
H403 N397 0.985 1_556 S
H404 N401 0.984 . S
H405 N401 0.985 1_556 S
H406 N400 0.984 . S
H407 N400 0.984 . S
H408 N396 0.984 . S
H409 N396 0.985 . S
C410 C411 1.363 . S
C410 C416 1.379 . S
C410 N418 1.356 . S
C411 C410 1.363 . S
C411 C417 1.363 1_545 S
C412 C413 1.363 . S
C412 C417 1.379 . S
C412 N419 1.356 . S
C413 C412 1.363 . S
C413 C416 1.363 1_565 S
N414 C416 1.356 . S
N414 H426 0.984 . S
N414 H427 0.985 1_545 S
N415 C417 1.356 . S
N415 H420 0.984 1_565 S
N415 H421 0.985 . S
C416 C410 1.379 . S
C416 C413 1.363 1_545 S
C416 N414 1.356 . S
C417 C411 1.363 1_565 S
C417 C412 1.379 . S
C417 N415 1.356 . S
N418 C410 1.356 . S
N418 H424 0.984 . S
N418 H425 0.984 . S
N419 C412 1.356 . S
N419 H422 0.984 . S
N419 H423 0.985 . S
H420 N415 0.984 1_545 S
H421 N415 0.985 . S
H422 N419 0.984 . S
H423 N419 0.985 . S
H424 N418 0.984 . S
H425 N418 0.984 . S
H426 N414 0.984 . S
H427 N414 0.985 1_565 S
C428 C429 1.363 . S
C428 C434 1.379 . S
C428 N436 1.356 . S
C429 C428 1.363 . S
C429 C435 1.363 . S
C430 C431 1.363 . S
C430 C435 1.379 . S
C430 N437 1.356 . S
C431 C430 1.363 . S
C431 C434 1.363 . S
N432 C434 1.356 . S
N432 H444 0.984 . S
N432 H445 0.985 . S
N433 C435 1.356 . S
N433 H438 0.984 . S
N433 H439 0.985 . S
C434 C428 1.379 . S
C434 C431 1.363 . S
C434 N432 1.356 . S
C435 C429 1.363 . S
C435 C430 1.379 . S
C435 N433 1.356 . S
N436 C428 1.356 . S
N436 H442 0.984 . S
N436 H443 0.984 . S
N437 C430 1.356 . S
N437 H440 0.984 . S
N437 H441 0.985 . S
H438 N433 0.984 . S
H439 N433 0.985 . S
H440 N437 0.984 . S
H441 N437 0.985 . S
H442 N436 0.984 . S
H443 N436 0.984 . S
H444 N432 0.984 . S
H445 N432 0.985 . S
C446 C447 1.363 . S
C446 C452 1.379 . S
C446 N454 1.356 . S
C447 C446 1.363 . S
C447 C453 1.363 . S
C448 C449 1.363 . S
C448 C453 1.379 . S
C448 N455 1.356 . S
C449 C448 1.363 . S
C449 C452 1.363 . S
N450 C452 1.356 . S
N450 H462 0.984 . S
N450 H463 0.985 . S
N451 C453 1.356 . S
N451 H456 0.984 . S
N451 H457 0.985 . S
C452 C446 1.379 . S
C452 C449 1.363 . S
C452 N450 1.356 . S
C453 C447 1.363 . S
C453 C448 1.379 . S
C453 N451 1.356 . S
N454 C446 1.356 . S
N454 H460 0.984 . S
N454 H461 0.984 . S
N455 C448 1.356 . S
N455 H458 0.984 . S
N455 H459 0.985 1_554 S
H456 N451 0.984 . S
H457 N451 0.985 . S
H458 N455 0.984 . S
H459 N455 0.985 1_556 S
H460 N454 0.984 . S
H461 N454 0.984 . S
H462 N450 0.984 . S
H463 N450 0.985 . S
C464 C465 1.363 . S
C464 C470 1.379 . S
C464 N472 1.356 . S
C465 C464 1.363 . S
C465 C471 1.351 1_655 S
C466 C467 1.363 . S
C466 C471 1.388 . S
C466 N473 1.356 . S
C467 C466 1.363 . S
C467 C470 1.363 1_455 S
N468 C470 1.356 1_455 S
N468 H480 0.984 1_455 S
N468 H481 0.985 . S
N469 C471 1.355 1_655 S
N469 H474 0.984 . S
N469 H475 0.985 1_655 S
C470 C464 1.379 . S
C470 C467 1.363 1_655 S
C470 N468 1.356 1_655 S
C471 C465 1.351 1_455 S
C471 C466 1.388 . S
C471 N469 1.355 1_455 S
N472 C464 1.356 . S
N472 H478 0.984 . S
N472 H479 0.984 . S
N473 C466 1.356 . S
N473 H476 0.984 . S
N473 H477 0.985 . S
H474 N469 0.984 . S
H475 N469 0.985 1_455 S
H476 N473 0.984 . S
H477 N473 0.985 . S
H478 N472 0.984 . S
H479 N472 0.984 . S
H480 N468 0.984 1_655 S
H481 N468 0.985 . S
C482 C483 1.363 . S
C482 C488 1.379 1_565 S
C482 N490 1.356 . S
C483 C482 1.363 . S
C483 C489 1.363 1_565 S
C484 C485 1.363 . S
C484 C489 1.379 . S
C484 N491 1.356 . S
C485 C484 1.363 . S
C485 C488 1.363 . S
N486 C488 1.356 . S
N486 H498 0.984 1_545 S
N486 H499 0.985 . S
N487 C489 1.356 . S
N487 H492 0.984 1_545 S
N487 H493 0.985 . S
C488 C482 1.379 1_545 S
C488 C485 1.363 . S
C488 N486 1.356 . S
C489 C483 1.363 1_545 S
C489 C484 1.379 . S
C489 N487 1.356 . S
N490 C482 1.356 . S
N490 H496 0.984 . S
N490 H497 0.984 . S
N491 C484 1.356 . S
N491 H494 0.984 . S
N491 H495 0.985 . S
H492 N487 0.984 1_565 S
H493 N487 0.985 . S
H494 N491 0.984 . S
H495 N491 0.985 . S
H496 N490 0.984 . S
H497 N490 0.984 . S
H498 N486 0.984 1_565 S
H499 N486 0.985 . S
C500 C501 1.363 . S
C500 C506 1.379 . S
C500 N508 1.356 . S
C501 C500 1.363 . S
C501 C507 1.363 . S
C502 C503 1.363 . S
C502 C507 1.379 . S
C502 N509 1.356 . S
C503 C502 1.363 . S
C503 C506 1.363 . S
N504 C506 1.356 . S
N504 H516 0.984 1_554 S
N504 H517 0.985 1_554 S
N505 C507 1.356 . S
N505 H510 0.984 . S
N505 H511 0.985 . S
C506 C500 1.379 . S
C506 C503 1.363 . S
C506 N504 1.356 . S
C507 C501 1.363 . S
C507 C502 1.379 . S
C507 N505 1.356 . S
N508 C500 1.356 . S
N508 H514 0.984 . S
N508 H515 0.984 . S
N509 C502 1.356 . S
N509 H512 0.984 . S
N509 H513 0.985 . S
H510 N505 0.984 . S
H511 N505 0.985 . S
H512 N509 0.984 . S
H513 N509 0.985 . S
H514 N508 0.984 . S
H515 N508 0.984 . S
H516 N504 0.984 1_556 S
H517 N504 0.985 1_556 S
C518 C519 1.363 . S
C518 C524 1.379 . S
C518 N526 1.356 . S
C519 C518 1.363 . S
C519 C525 1.363 . S
C520 C521 1.363 . S
C520 C525 1.379 . S
C520 N527 1.356 . S
C521 C520 1.363 . S
C521 C524 1.363 . S
N522 C524 1.356 . S
N522 H534 0.984 . S
N522 H535 0.985 . S
N523 C525 1.356 . S
N523 H528 0.984 . S
N523 H529 0.985 . S
C524 C518 1.379 . S
C524 C521 1.363 . S
C524 N522 1.356 . S
C525 C519 1.363 . S
C525 C520 1.379 . S
C525 N523 1.356 . S
N526 C518 1.356 . S
N526 H532 0.984 . S
N526 H533 0.984 . S
N527 C520 1.356 . S
N527 H530 0.984 . S
N527 H531 0.985 . S
H528 N523 0.984 . S
H529 N523 0.985 . S
H530 N527 0.984 . S
H531 N527 0.985 . S
H532 N526 0.984 . S
H533 N526 0.984 . S
H534 N522 0.984 . S
H535 N522 0.985 . S
C536 C537 1.363 . S
C536 C542 1.379 . S
C536 N544 1.356 . S
C537 C536 1.363 . S
C537 C543 1.363 . S
C538 C539 1.363 . S
C538 C543 1.379 . S
C538 N545 1.356 1_556 S
C539 C538 1.363 . S
C539 C542 1.363 . S
N540 C542 1.356 . S
N540 H552 0.984 1_455 S
N540 H553 0.985 . S
N541 C543 1.356 1_554 S
N541 H546 0.984 1_554 S
N541 H547 0.985 . S
C542 C536 1.379 . S
C542 C539 1.363 . S
C542 N540 1.356 . S
C543 C537 1.363 . S
C543 C538 1.379 . S
C543 N541 1.356 1_556 S
N544 C536 1.356 . S
N544 H550 0.984 1_455 S
N544 H551 0.984 . S
N545 C538 1.356 1_554 S
N545 H548 0.984 1_554 S
N545 H549 0.985 . S
H546 N541 0.984 1_556 S
H547 N541 0.985 . S
H548 N545 0.984 1_556 S
H549 N545 0.985 . S
H550 N544 0.984 1_655 S
H551 N544 0.984 . S
H552 N540 0.984 1_655 S
H553 N540 0.985 . S
C554 C555 1.363 . S
C554 C560 1.379 . S
C554 N562 1.356 . S
C555 C554 1.363 . S
C555 C561 1.363 . S
C556 C557 1.363 . S
C556 C561 1.379 . S
C556 N563 1.356 1_545 S
C557 C556 1.363 . S
C557 C560 1.363 . S
N558 C560 1.356 . S
N558 H570 0.984 . S
N558 H571 0.985 . S
N559 C561 1.356 1_565 S
N559 H564 0.984 . S
N559 H565 0.985 . S
C560 C554 1.379 . S
C560 C557 1.363 . S
C560 N558 1.356 . S
C561 C555 1.363 . S
C561 C556 1.379 . S
C561 N559 1.356 1_545 S
N562 C554 1.356 . S
N562 H568 0.984 . S
N562 H569 0.984 . S
N563 C556 1.356 1_565 S
N563 H566 0.984 . S
N563 H567 0.985 . S
H564 N559 0.984 . S
H565 N559 0.985 . S
H566 N563 0.984 . S
H567 N563 0.985 . S
H568 N562 0.984 . S
H569 N562 0.984 . S
H570 N558 0.984 . S
H571 N558 0.985 . S
C572 C573 1.363 . S
C572 C578 1.379 . S
C572 N580 1.356 1_556 S
C573 C572 1.363 . S
C573 C579 1.363 . S
C574 C575 1.363 . S
C574 C579 1.379 . S
C574 N581 1.356 . S
C575 C574 1.363 . S
C575 C578 1.363 . S
N576 C578 1.356 1_554 S
N576 H588 0.984 . S
N576 H589 0.985 1_554 S
N577 C579 1.356 . S
N577 H582 0.984 . S
N577 H583 0.985 . S
C578 C572 1.379 . S
C578 C575 1.363 . S
C578 N576 1.356 1_556 S
C579 C573 1.363 . S
C579 C574 1.379 . S
C579 N577 1.356 . S
N580 C572 1.356 1_554 S
N580 H586 0.984 . S
N580 H587 0.984 . S
N581 C574 1.356 . S
N581 H584 0.984 . S
N581 H585 0.985 . S
H582 N577 0.984 . S
H583 N577 0.985 . S
H584 N581 0.984 . S
H585 N581 0.985 . S
H586 N580 0.984 . S
H587 N580 0.984 . S
H588 N576 0.984 . S
H589 N576 0.985 1_556 S
C590 C591 1.363 . S
C590 C596 1.379 . S
C590 N598 1.356 . S
C591 C590 1.363 . S
C591 C597 1.363 . S
C592 C593 1.363 . S
C592 C597 1.379 . S
C592 N599 1.356 1_556 S
C593 C592 1.363 . S
C593 C596 1.363 . S
N594 C596 1.356 . S
N594 H606 0.984 . S
N594 H607 0.985 . S
N595 C597 1.356 1_554 S
N595 H600 0.984 . S
N595 H601 0.985 . S
C596 C590 1.379 . S
C596 C593 1.363 . S
C596 N594 1.356 . S
C597 C591 1.363 . S
C597 C592 1.379 . S
C597 N595 1.356 1_556 S
N598 C590 1.356 . S
N598 H604 0.984 . S
N598 H605 0.984 . S
N599 C592 1.356 1_554 S
N599 H602 0.984 . S
N599 H603 0.985 . S
H600 N595 0.984 . S
H601 N595 0.985 . S
H602 N599 0.984 . S
H603 N599 0.985 . S
H604 N598 0.984 . S
H605 N598 0.984 . S
H606 N594 0.984 . S
H607 N594 0.985 . S
C608 C609 1.363 . S
C608 C614 1.379 . S
C608 N616 1.356 . S
C609 C608 1.363 . S
C609 C615 1.363 . S
C610 C611 1.363 . S
C610 C615 1.379 . S
C610 N617 1.356 1_655 S
C611 C610 1.363 . S
C611 C614 1.363 . S
N612 C614 1.356 . S
N612 H624 0.984 . S
N612 H625 0.985 . S
N613 C615 1.356 1_455 S
N613 H618 0.980 1_455 S
N613 H619 0.985 . S
C614 C608 1.379 . S
C614 C611 1.363 . S
C614 N612 1.356 . S
C615 C609 1.363 . S
C615 C610 1.379 . S
C615 N613 1.356 1_655 S
N616 C608 1.356 . S
N616 H622 0.984 . S
N616 H623 0.984 . S
N617 C610 1.356 1_455 S
N617 H620 0.984 . S
N617 H621 0.985 . S
H618 N613 0.980 1_655 S
H619 N613 0.985 . S
H620 N617 0.984 . S
H621 N617 0.985 . S
H622 N616 0.984 . S
H623 N616 0.984 . S
H624 N612 0.984 . S
H625 N612 0.985 . S
C626 C627 1.363 . S
C626 C632 1.379 . S
C626 N634 1.356 . S
C627 C626 1.363 . S
C627 C633 1.363 1_565 S
C628 C629 1.363 1_545 S
C628 C633 1.379 . S
C628 N635 1.356 . S
C629 C628 1.363 1_565 S
C629 C632 1.363 . S
N630 C632 1.356 . S
N630 H642 0.984 . S
N630 H643 0.985 . S
N631 C633 1.356 . S
N631 H636 0.984 . S
N631 H637 0.985 . S
C632 C626 1.379 . S
C632 C629 1.363 . S
C632 N630 1.356 . S
C633 C627 1.363 1_545 S
C633 C628 1.379 . S
C633 N631 1.356 . S
N634 C626 1.356 . S
N634 H640 0.984 . S
N634 H641 0.984 . S
N635 C628 1.356 . S
N635 H638 0.984 . S
N635 H639 0.985 . S
H636 N631 0.984 . S
H637 N631 0.985 . S
H638 N635 0.984 . S
H639 N635 0.985 . S
H640 N634 0.984 . S
H641 N634 0.984 . S
H642 N630 0.984 . S
H643 N630 0.985 . S
C644 C645 1.363 . S
C644 C650 1.379 . S
C644 N652 1.356 . S
C645 C644 1.363 . S
C645 C651 1.363 . S
C646 C647 1.363 . S
C646 C651 1.379 . S
C646 N653 1.356 . S
C647 C646 1.363 . S
C647 C650 1.363 . S
N648 C650 1.356 . S
N648 H660 0.984 . S
N648 H661 0.985 . S
N649 C651 1.356 . S
N649 H654 0.984 . S
N649 H655 0.985 . S
C650 C644 1.379 . S
C650 C647 1.363 . S
C650 N648 1.356 . S
C651 C645 1.363 . S
C651 C646 1.379 . S
C651 N649 1.356 . S
N652 C644 1.356 . S
N652 H658 0.984 . S
N652 H659 0.984 . S
N653 C646 1.356 . S
N653 H656 0.984 . S
N653 H657 0.985 . S
H654 N649 0.984 . S
H655 N649 0.985 . S
H656 N653 0.984 . S
H657 N653 0.985 . S
H658 N652 0.984 . S
H659 N652 0.984 . S
H660 N648 0.984 . S
H661 N648 0.985 . S
C662 C663 1.363 . S
C662 C668 1.379 . S
C662 N670 1.356 . S
C663 C662 1.363 . S
C663 C669 1.363 . S
C664 C665 1.363 . S
C664 C669 1.379 . S
C664 N671 1.356 . S
C665 C664 1.363 . S
C665 C668 1.363 . S
N666 C668 1.356 . S
N666 H678 0.984 . S
N666 H679 0.985 . S
N667 C669 1.356 . S
N667 H672 0.984 . S
N667 H673 0.985 . S
C668 C662 1.379 . S
C668 C665 1.363 . S
C668 N666 1.356 . S
C669 C663 1.363 . S
C669 C664 1.379 . S
C669 N667 1.356 . S
N670 C662 1.356 . S
N670 H676 0.984 . S
N670 H677 0.984 . S
N671 C664 1.356 . S
N671 H674 0.984 . S
N671 H675 0.985 . S
H672 N667 0.984 . S
H673 N667 0.985 . S
H674 N671 0.984 . S
H675 N671 0.985 . S
H676 N670 0.984 . S
H677 N670 0.984 . S
H678 N666 0.984 . S
H679 N666 0.985 . S
C249 C76 2.219 . S
C251 C119 2.473 . S
C269 C145 2.204 . S
C267 C87 1.919 . S
C287 C185 2.195 . S
C285 C54 1.945 . S
C305 C239 2.462 . S
C303 C65 2.233 . S
C323 C100 2.473 1_554 S
C321 C32 2.222 . S
C339 C43 1.914 . S
C341 C130 2.204 1_554 S
C357 C10 1.948 . S
C359 C170 2.195 1_554 S
C375 C21 2.239 . S
C377 C220 2.469 1_554 S
C395 C96 0.886 1_455 S
C393 C60 0.873 . S
C413 C157 0.923 . S
C411 C71 0.942 . S
C431 C197 0.774 . S
C429 C82 0.778 . S
C447 C49 0.788 . S
C449 C216 0.794 . S
C465 C16 0.866 . S
C467 C117 0.886 . S
C485 C136 0.923 . S
C483 C27 0.933 . S
C503 C176 0.774 . S
C501 C38 0.777 . S
C519 C5 0.786 . S
C521 C237 0.794 . S
C537 C59 2.066 . S
C539 C90 2.410 . S
C555 C70 2.427 . S
C557 C140 2.718 . S
C575 C180 2.546 . S
C573 C81 2.269 . S
C593 C210 2.215 . S
C591 C48 1.897 . S
C609 C15 2.060 . S
C611 C105 2.410 . S
C629 C159 2.718 . S
C627 C26 2.427 . S
C647 C199 2.546 . S
C645 C37 2.283 . S
C663 C4 1.896 . S
C665 C225 2.215 . S
