# Generated by pormake.
# Topology pyr, (3,6)-cn, num edge types: 1
# Building blocks:
#     Node 0, Type 0, BuildingBlock: ESEHIV_clean_linker_0, # of connection points: 3
#     Node 1, Type 0, BuildingBlock: ESEHIV_clean_linker_0, # of connection points: 3
#     Node 2, Type 0, BuildingBlock: ESEHIV_clean_linker_0, # of connection points: 3
#     Node 3, Type 0, BuildingBlock: ESEHIV_clean_linker_0, # of connection points: 3
#     Node 4, Type 0, BuildingBlock: ESEHIV_clean_linker_0, # of connection points: 3
#     Node 5, Type 0, BuildingBlock: ESEHIV_clean_linker_0, # of connection points: 3
#     Node 6, Type 0, BuildingBlock: ESEHIV_clean_linker_0, # of connection points: 3
#     Node 7, Type 0, BuildingBlock: ESEHIV_clean_linker_0, # of connection points: 3
#     Node 8, Type 1, BuildingBlock: BETDIP_clean_sbu_0, # of connection points: 6
#     Node 9, Type 1, BuildingBlock: BETDIP_clean_sbu_0, # of connection points: 6
#     Node 10, Type 1, BuildingBlock: BETDIP_clean_sbu_0, # of connection points: 6
#     Node 11, Type 1, BuildingBlock: BETDIP_clean_sbu_0, # of connection points: 6
#     Edge 12, Type (0, 1), BuildingBlock: MIFKUJ_clean_linker_0, # of connection points: 2
#     Edge 13, Type (0, 1), BuildingBlock: MIFKUJ_clean_linker_0, # of connection points: 2
#     Edge 14, Type (0, 1), BuildingBlock: MIFKUJ_clean_linker_0, # of connection points: 2
#     Edge 15, Type (0, 1), BuildingBlock: MIFKUJ_clean_linker_0, # of connection points: 2
#     Edge 16, Type (0, 1), BuildingBlock: MIFKUJ_clean_linker_0, # of connection points: 2
#     Edge 17, Type (0, 1), BuildingBlock: MIFKUJ_clean_linker_0, # of connection points: 2
#     Edge 18, Type (0, 1), BuildingBlock: MIFKUJ_clean_linker_0, # of connection points: 2
#     Edge 19, Type (0, 1), BuildingBlock: MIFKUJ_clean_linker_0, # of connection points: 2
#     Edge 20, Type (0, 1), BuildingBlock: MIFKUJ_clean_linker_0, # of connection points: 2
#     Edge 21, Type (0, 1), BuildingBlock: MIFKUJ_clean_linker_0, # of connection points: 2
#     Edge 22, Type (0, 1), BuildingBlock: MIFKUJ_clean_linker_0, # of connection points: 2
#     Edge 23, Type (0, 1), BuildingBlock: MIFKUJ_clean_linker_0, # of connection points: 2
#     Edge 24, Type (0, 1), BuildingBlock: MIFKUJ_clean_linker_0, # of connection points: 2
#     Edge 25, Type (0, 1), BuildingBlock: MIFKUJ_clean_linker_0, # of connection points: 2
#     Edge 26, Type (0, 1), BuildingBlock: MIFKUJ_clean_linker_0, # of connection points: 2
#     Edge 27, Type (0, 1), BuildingBlock: MIFKUJ_clean_linker_0, # of connection points: 2
#     Edge 28, Type (0, 1), BuildingBlock: MIFKUJ_clean_linker_0, # of connection points: 2
#     Edge 29, Type (0, 1), BuildingBlock: MIFKUJ_clean_linker_0, # of connection points: 2
#     Edge 30, Type (0, 1), BuildingBlock: MIFKUJ_clean_linker_0, # of connection points: 2
#     Edge 31, Type (0, 1), BuildingBlock: MIFKUJ_clean_linker_0, # of connection points: 2
#     Edge 32, Type (0, 1), BuildingBlock: MIFKUJ_clean_linker_0, # of connection points: 2
#     Edge 33, Type (0, 1), BuildingBlock: MIFKUJ_clean_linker_0, # of connection points: 2
#     Edge 34, Type (0, 1), BuildingBlock: MIFKUJ_clean_linker_0, # of connection points: 2
#     Edge 35, Type (0, 1), BuildingBlock: MIFKUJ_clean_linker_0, # of connection points: 2
# Relax obj value: 0.117
# Max RMSD: 0.192
# Mean RMSD: 0.085
data_MOF--net-pyr--node1-BETDIP_clean_sbu_0--node2-ESEHIV_clean_linker_0--edge1-MIFKUJ_clean_linker_0
_symmetry_space_group_name_H-M    P1
_symmetry_Int_Tables_number       1
_symmetry_cell_setting            triclinic
loop_
_symmetry_equiv_pos_as_xyz
'x, y, z'
_cell_length_a     43.989124
_cell_length_b     48.492451
_cell_length_c     48.042261
_cell_angle_alpha  88.68593
_cell_angle_beta   93.011029
_cell_angle_gamma 103.53413
loop_
_atom_site_label
_atom_site_type_symbol
_atom_site_fract_x
_atom_site_fract_y
_atom_site_fract_z
_atom_type_partial_charge
H0 H 0.29836 0.28132 0.22465 0.0
H1 H 0.37234 0.23732 0.2355 0.0
H2 H 0.36239 0.28372 0.15958 0.0
C3 C 0.31866 0.27549 0.21689 0.0
C4 C 0.32817 0.28428 0.19001 0.0
C5 C 0.33416 0.25829 0.23339 0.0
C6 C 0.36099 0.25161 0.2235 0.0
C7 C 0.37166 0.26111 0.19709 0.0
C8 C 0.3551 0.27745 0.18044 0.0
H9 H 0.18632 0.81309 0.75388 0.0
H10 H 0.2312 0.74368 0.74949 0.0
H11 H 0.17567 0.76422 0.67901 0.0
C12 C 0.19079 0.79546 0.74258 0.0
C13 C 0.17821 0.79025 0.71527 0.0
C14 C 0.20974 0.77863 0.75516 0.0
C15 C 0.21541 0.75591 0.74035 0.0
C16 C 0.20334 0.75063 0.71282 0.0
C17 C 0.1844 0.7677 0.70047 0.0
H18 H 0.66953 0.34333 0.89053 0.0
H19 H 0.67662 0.40927 0.82878 0.0
H20 H 0.5977 0.33681 0.82491 0.0
C21 C 0.65967 0.35214 0.87222 0.0
C22 C 0.6315 0.33673 0.85931 0.0
C23 C 0.67586 0.37841 0.86163 0.0
C24 C 0.66384 0.38921 0.83708 0.0
C25 C 0.6355 0.3747 0.82342 0.0
C26 C 0.61967 0.34814 0.83468 0.0
H27 H 0.85269 0.71835 0.38083 0.0
H28 H 0.91826 0.72803 0.31582 0.0
H29 H 0.845 0.65145 0.32215 0.0
C30 C 0.86072 0.71043 0.36236 0.0
C31 C 0.84514 0.68332 0.35278 0.0
C32 C 0.88676 0.72725 0.34924 0.0
C33 C 0.89814 0.71557 0.32605 0.0
C34 C 0.88365 0.68782 0.31609 0.0
C35 C 0.85707 0.67214 0.32985 0.0
H36 H 0.64777 0.82705 0.83279 0.0
H37 H 0.72671 0.78899 0.84044 0.0
H38 H 0.65767 0.77201 0.90253 0.0
C39 C 0.65997 0.81247 0.8433 0.0
C40 C 0.64851 0.79879 0.86806 0.0
C41 C 0.68846 0.80948 0.83344 0.0
C42 C 0.70496 0.79186 0.84818 0.0
C43 C 0.69429 0.77857 0.87326 0.0
C44 C 0.66575 0.78173 0.88289 0.0
H45 H 0.797 0.30246 0.31562 0.0
H46 H 0.85969 0.24652 0.31642 0.0
H47 H 0.85023 0.2911 0.39076 0.0
C48 C 0.81433 0.29299 0.32649 0.0
C49 C 0.82193 0.29892 0.35478 0.0
C50 C 0.82748 0.27389 0.31249 0.0
C51 C 0.8503 0.26217 0.32666 0.0
C52 C 0.85892 0.26848 0.35484 0.0
C53 C 0.84466 0.28699 0.36878 0.0
H54 H 0.35758 0.71404 0.17565 0.0
H55 H 0.35036 0.64735 0.23667 0.0
H56 H 0.42915 0.7199 0.24134 0.0
C57 C 0.36739 0.70497 0.19382 0.0
C58 C 0.39556 0.72021 0.20682 0.0
C59 C 0.35116 0.67856 0.2041 0.0
C60 C 0.36311 0.66752 0.22856 0.0
C61 C 0.39131 0.68202 0.24247 0.0
C62 C 0.40723 0.70864 0.23141 0.0
H63 H 0.10382 0.33302 0.74583 0.0
H64 H 0.17168 0.34263 0.68246 0.0
H65 H 0.17905 0.40841 0.74207 0.0
C66 C 0.12463 0.34511 0.7363 0.0
C67 C 0.13998 0.37217 0.7474 0.0
C68 C 0.1353 0.33423 0.71222 0.0
C69 C 0.1622 0.35081 0.70002 0.0
C70 C 0.17791 0.37757 0.71027 0.0
C71 C 0.1668 0.38789 0.73406 0.0
Tb72 Tb 0.97993 1.01626 0.54293 0.0
Tb73 Tb 0.05099 0.03995 0.52568 0.0
C74 C 0.92478 0.98745 0.54546 0.0
C75 C 0.90297 0.97778 0.5676 0.0
C76 C 0.87518 0.95745 0.5617 0.0
C77 C 0.85456 0.94743 0.58278 0.0
C78 C 0.86144 0.95764 0.61012 0.0
C79 C 0.88928 0.97832 0.61581 0.0
C80 C 0.90991 0.98825 0.59473 0.0
C81 C 0.01061 0.06078 0.57425 0.0
C82 C 0.03448 0.99405 0.57412 0.0
C83 C 0.10597 0.06917 0.52306 0.0
C84 C 0.12722 0.08059 0.50096 0.0
C85 C 0.15569 0.09964 0.50777 0.0
C86 C 0.17539 0.1121 0.4868 0.0
C87 C 0.16687 0.10568 0.45864 0.0
C88 C 0.13849 0.08605 0.452 0.0
C89 C 0.11878 0.07365 0.47301 0.0
C90 C 0.02046 0.99498 0.49478 0.0
C91 C 0.99653 0.06224 0.49424 0.0
O92 O 0.94925 0.9763 0.54602 0.0
O93 O 0.93198 1.01489 0.54061 0.0
O94 O 0.01984 0.04836 0.55474 0.0
O95 O 0.98215 0.04649 0.57781 0.0
O96 O 1.00423 0.98878 0.56685 0.0
O97 O 0.0554 1.01577 0.56399 0.0
O98 O 0.08144 0.08005 0.52403 0.0
O99 O 0.099 0.04149 0.52618 0.0
O100 O 0.01075 1.00826 0.51336 0.0
O101 O 0.04947 1.0084 0.49231 0.0
O102 O 0.02703 0.06655 0.50015 0.0
O103 O 0.97532 0.04146 0.50544 0.0
H104 H 0.86961 0.94908 0.54086 0.0
H105 H 0.8336 0.93121 0.57778 0.0
H106 H 0.8951 0.98687 0.63656 0.0
H107 H 0.93135 1.00397 0.59961 0.0
H108 H 0.1624 0.10532 0.52929 0.0
H109 H 0.19683 0.12743 0.49261 0.0
H110 H 0.13143 0.0804 0.43055 0.0
H111 H 0.09677 0.05896 0.46745 0.0
Tb112 Tb 0.54365 0.03529 0.03948 0.0
Tb113 Tb 0.47659 1.02117 1.02515 0.0
C114 C 0.60195 0.05376 0.03866 0.0
C115 C 0.624 0.07918 0.04963 0.0
C116 C 0.61447 0.10453 0.05304 0.0
C117 C 0.63463 0.12751 0.06643 0.0
C118 C 0.66454 0.12543 0.07684 0.0
C119 C 0.67432 0.10032 0.07232 0.0
C120 C 0.65421 0.07743 0.05881 0.0
C121 C 0.51172 0.99209 0.06894 0.0
C122 C 0.50353 0.06424 0.07464 0.0
C123 C 0.41831 1.00252 1.02517 0.0
C124 C 0.39787 0.97612 1.01455 0.0
C125 C 0.40998 0.95219 1.01079 0.0
C126 C 0.39166 0.92831 0.99738 0.0
C127 C 0.36106 0.92814 0.98731 0.0
C128 C 0.34858 0.95168 0.99222 0.0
C129 C 0.36689 0.97552 1.00576 0.0
C130 C 0.50889 0.06475 0.99614 0.0
C131 C 0.51615 0.99104 0.99081 0.0
O132 O 0.5824 0.05787 1.01837 0.0
O133 O 0.58826 0.03591 0.0575 0.0
O134 O 0.50754 0.99702 0.04329 0.0
O135 O 0.53559 1.01104 0.07861 0.0
O136 O 0.53195 0.06647 0.06596 0.0
O137 O 0.47915 0.04619 0.063 0.0
O138 O 0.43737 0.99973 0.04633 0.0
O139 O 0.43229 1.01986 1.00607 0.0
O140 O 0.51263 0.05949 1.02172 0.0
O141 O 0.48515 0.04588 0.98618 0.0
O142 O 0.48791 0.9894 0.99949 0.0
O143 O 0.54079 1.00915 1.00209 0.0
H144 H 0.59117 0.1063 0.0461 0.0
H145 H 0.62652 0.14666 0.06919 0.0
H146 H 0.69692 0.09773 0.08046 0.0
H147 H 0.66184 0.05796 0.05647 0.0
H148 H 0.43397 0.95236 1.01725 0.0
H149 H 0.40204 0.91066 0.99354 0.0
H150 H 0.32498 0.95199 0.9848 0.0
H151 H 0.35725 0.99384 1.00844 0.0
Tb152 Tb 0.5144 0.55686 0.54502 0.0
Tb153 Tb 0.51279 0.50092 0.522 0.0
C154 C 0.49981 0.60239 0.55596 0.0
C155 C 0.47278 0.60998 0.56807 0.0
C156 C 0.45605 0.62665 0.55223 0.0
C157 C 0.42957 0.63329 0.56248 0.0
C158 C 0.41939 0.62369 0.58903 0.0
C159 C 0.43627 0.607 0.60494 0.0
C160 C 0.46262 0.60009 0.59451 0.0
C161 C 0.54117 0.5242 0.57865 0.0
C162 C 0.45501 0.50519 0.55582 0.0
C163 C 0.52552 0.45439 0.51128 0.0
C164 C 0.55012 0.44495 0.49737 0.0
C165 C 0.57254 0.46413 0.48243 0.0
C166 C 0.59739 0.45528 0.47134 0.0
C167 C 0.59974 0.42697 0.4746 0.0
C168 C 0.57682 0.40769 0.48904 0.0
C169 C 0.55231 0.41669 0.50051 0.0
C170 C 0.48585 0.53355 0.48835 0.0
C171 C 0.57236 0.55295 0.51145 0.0
O172 O 0.49386 0.58999 0.53177 0.0
O173 O 0.518 0.59071 0.57246 0.0
O174 O 0.51649 0.51654 0.56338 0.0
O175 O 0.55094 0.55154 0.57627 0.0
O176 O 0.4664 0.53305 0.55451 0.0
O177 O 0.47107 0.4877 0.54643 0.0
O178 O 0.53475 0.46842 0.53429 0.0
O179 O 0.50671 0.46602 0.49548 0.0
O180 O 0.51059 0.54118 0.50355 0.0
O181 O 0.47618 0.50623 0.49082 0.0
O182 O 0.56063 0.52507 0.51203 0.0
O183 O 0.55667 0.57041 0.52149 0.0
H184 H 0.46328 0.63428 0.53167 0.0
H185 H 0.41688 0.64568 0.54937 0.0
H186 H 0.42938 0.59954 0.6256 0.0
H187 H 0.47493 0.587 0.60713 0.0
H188 H 0.57094 0.48593 0.47952 0.0
H189 H 0.6146 0.47045 0.46003 0.0
H190 H 0.57825 0.3858 0.49195 0.0
H191 H 0.53527 0.40167 0.51214 0.0
Tb192 Tb 0.01375 0.55395 1.01527 0.0
Tb193 Tb 0.0119 0.50351 0.05056 0.0
C194 C 0.99838 0.59339 0.98742 0.0
C195 C 0.97234 0.60783 0.98763 0.0
C196 C 0.94139 0.59323 0.98067 0.0
C197 C 0.9173 0.60756 0.9791 0.0
C198 C 0.92351 0.63672 0.98466 0.0
C199 C 0.9543 0.65108 0.99256 0.0
C200 C 0.9785 0.63679 0.99389 0.0
C201 C 0.06801 0.55351 0.04164 0.0
C202 C 0.98686 0.55179 0.07712 0.0
C203 C 0.02673 0.46345 0.07776 0.0
C204 C 0.05142 0.44776 0.07565 0.0
C205 C 0.08303 0.46212 0.0744 0.0
C206 C 0.10631 0.44696 0.07386 0.0
C207 C 0.09851 0.41712 0.0742 0.0
C208 C 0.06672 0.40285 0.07436 0.0
C209 C 0.04343 0.41804 0.07523 0.0
C210 C 0.95779 0.5043 1.024 0.0
C211 C 0.03874 0.50564 0.98866 0.0
O212 O 0.99102 0.56683 0.97983 0.0
O213 O 0.01863 0.59779 1.00873 0.0
O214 O 0.04116 0.54528 0.05113 0.0
O215 O 0.06497 0.56404 1.01687 0.0
O216 O 0.98782 0.56296 0.05149 0.0
O217 O 0.99725 0.5286 0.08243 0.0
O218 O 0.0361 0.4901 0.08486 0.0
O219 O 1.00497 0.45957 0.05767 0.0
O220 O 0.98473 0.51221 1.0147 0.0
O221 O 0.96056 0.49391 0.04887 0.0
O222 O 0.03746 0.49424 1.01419 0.0
O223 O 0.02871 0.52901 0.98348 0.0
H224 H 0.93575 0.57086 0.97576 0.0
H225 H 0.89403 0.59595 0.97242 0.0
H226 H 0.9598 0.67347 0.99731 0.0
H227 H 1.00213 0.64848 0.99939 0.0
H228 H 0.08991 0.48508 0.07441 0.0
H229 H 0.1305 0.45872 0.07415 0.0
H230 H 0.05981 0.3799 0.07412 0.0
H231 H 0.01918 0.40657 0.07588 0.0
H232 H 0.27226 0.23695 0.24223 0.0
H233 H 0.24891 0.21349 0.28384 0.0
H234 H 0.34052 0.22342 0.32446 0.0
H235 H 0.36435 0.24796 0.2829 0.0
H236 H 0.30144 0.16794 0.32877 0.0
H237 H 0.29724 0.26369 0.34554 0.0
H238 H 0.28619 0.31026 0.33388 0.0
H239 H 0.18848 0.27106 0.32064 0.0
H240 H 0.199 0.22417 0.33181 0.0
H241 H 0.23097 0.11846 0.45761 0.0
H242 H 0.2635 0.14568 0.42199 0.0
H243 H 0.1804 0.153 0.37338 0.0
H244 H 0.14781 0.12683 0.40929 0.0
H245 H 0.2211 0.20289 0.37718 0.0
H246 H 0.22502 0.1074 0.35543 0.0
H247 H 0.23492 0.06001 0.36496 0.0
H248 H 0.33164 0.09769 0.38581 0.0
H249 H 0.3222 0.14537 0.37675 0.0
C250 C 0.28755 0.23483 0.26017 0.0
C251 C 0.32022 0.24479 0.25933 0.0
C252 C 0.27411 0.22118 0.28388 0.0
C253 C 0.29298 0.21701 0.30727 0.0
C254 C 0.32561 0.22655 0.30657 0.0
C255 C 0.33914 0.24049 0.28283 0.0
C256 C 0.2782 0.20209 0.33206 0.0
C257 C 0.28435 0.1758 0.33981 0.0
C258 C 0.25543 0.21216 0.34592 0.0
C259 C 0.24896 0.24037 0.33934 0.0
C260 C 0.27343 0.26496 0.33994 0.0
C261 C 0.26725 0.29143 0.33345 0.0
C262 C 0.23666 0.29362 0.32648 0.0
C263 C 0.21217 0.26934 0.32604 0.0
C264 C 0.21822 0.24281 0.33249 0.0
C265 C 0.21964 0.12594 0.43936 0.0
C266 C 0.18678 0.12047 0.43628 0.0
C267 C 0.23826 0.14127 0.41891 0.0
C268 C 0.22436 0.15122 0.39496 0.0
C269 C 0.19161 0.14551 0.39171 0.0
C270 C 0.173 0.13028 0.41213 0.0
C271 C 0.24376 0.16835 0.37355 0.0
C272 C 0.23849 0.19513 0.36646 0.0
C273 C 0.26714 0.1586 0.36018 0.0
C274 C 0.27282 0.12997 0.36575 0.0
C275 C 0.24833 0.1056 0.36231 0.0
C276 C 0.25387 0.07868 0.36757 0.0
C277 C 0.28387 0.07585 0.37608 0.0
C278 C 0.3084 0.09993 0.37928 0.0
C279 C 0.30297 0.1269 0.37407 0.0
H280 H 0.28811 0.05499 0.38013 0.0
H281 H 0.23193 0.31413 0.32146 0.0
H282 H 0.21675 0.74437 0.80024 0.0
H283 H 0.24529 0.75883 0.84496 0.0
H284 H 0.26889 0.84563 0.81561 0.0
H285 H 0.24101 0.83138 0.77117 0.0
H286 H 0.31939 0.82917 0.84134 0.0
H287 H 0.20866 0.82287 0.85728 0.0
H288 H 0.15347 0.79688 0.85961 0.0
H289 H 0.18001 0.73884 0.91975 0.0
H290 H 0.23545 0.76434 0.9175 0.0
H291 H 0.33086 0.93386 0.93768 0.0
H292 H 0.30734 0.89682 0.9044 0.0
H293 H 0.32925 0.83328 0.96116 0.0
H294 H 0.35324 0.87057 0.99488 0.0
H295 H 0.26182 0.82432 0.92814 0.0
H296 H 0.37193 0.8377 0.9191 0.0
H297 H 0.42624 0.86608 0.91766 0.0
H298 H 0.40117 0.91074 0.84508 0.0
H299 H 0.34655 0.88299 0.84639 0.0
C300 C 0.22815 0.76649 0.80342 0.0
C301 C 0.22636 0.78683 0.78241 0.0
C302 C 0.24436 0.7747 0.82889 0.0
C303 C 0.25914 0.80329 0.83353 0.0
C304 C 0.25772 0.82344 0.8124 0.0
C305 C 0.24146 0.81533 0.78715 0.0
C306 C 0.27544 0.81299 0.86051 0.0
C307 C 0.30693 0.82781 0.86041 0.0
C308 C 0.25945 0.81045 0.88558 0.0
C309 C 0.22618 0.79525 0.88695 0.0
C310 C 0.20273 0.80443 0.87082 0.0
C311 C 0.17142 0.78982 0.87216 0.0
C312 C 0.16325 0.76616 0.88974 0.0
C313 C 0.18638 0.75712 0.90609 0.0
C314 C 0.21774 0.77164 0.9048 0.0
C315 C 0.3301 0.91198 0.94341 0.0
C316 C 0.34375 0.90506 0.9689 0.0
C317 C 0.31682 0.89089 0.92433 0.0
C318 C 0.31674 0.86248 0.9304 0.0
C319 C 0.32915 0.85517 0.95624 0.0
C320 C 0.34289 0.87642 0.97533 0.0
C321 C 0.30525 0.84125 0.90852 0.0
C322 C 0.27468 0.82452 0.90944 0.0
C323 C 0.32212 0.84188 0.88421 0.0
C324 C 0.35507 0.85835 0.88295 0.0
C325 C 0.37793 0.85372 0.90295 0.0
C326 C 0.40879 0.86968 0.90215 0.0
C327 C 0.41715 0.89023 0.88132 0.0
C328 C 0.39467 0.89481 0.86121 0.0
C329 C 0.36375 0.87894 0.86195 0.0
H330 H 0.44104 0.90257 0.88075 0.0
H331 H 0.13899 0.75488 0.89075 0.0
H332 H 0.6389 0.43144 0.81232 0.0
H333 H 0.62214 0.45364 0.77042 0.0
H334 H 0.58369 0.37138 0.73464 0.0
H335 H 0.60268 0.34879 0.77613 0.0
H336 H 0.60877 0.40403 0.695 0.0
H337 H 0.53709 0.41593 0.76151 0.0
H338 H 0.5191 0.42873 0.80615 0.0
H339 H 0.56709 0.51564 0.79356 0.0
H340 H 0.58573 0.5033 0.749 0.0
H341 H 0.52028 0.46702 0.58933 0.0
H342 H 0.53463 0.43946 0.62942 0.0
H343 H 0.59654 0.51505 0.6628 0.0
H344 H 0.58299 0.54248 0.62243 0.0
H345 H 0.55558 0.48298 0.7025 0.0
H346 H 0.62729 0.46787 0.63461 0.0
H347 H 0.64032 0.45308 0.58882 0.0
H348 H 0.58532 0.36886 0.60322 0.0
H349 H 0.57156 0.38327 0.64896 0.0
C350 C 0.62733 0.41781 0.79553 0.0
C351 C 0.62266 0.38805 0.79794 0.0
C352 C 0.61714 0.43071 0.77149 0.0
C353 C 0.60097 0.41443 0.74912 0.0
C354 C 0.59596 0.38467 0.75142 0.0
C355 C 0.60658 0.37167 0.77545 0.0
C356 C 0.58988 0.4287 0.72347 0.0
C357 C 0.59668 0.42095 0.69679 0.0
C358 C 0.57417 0.45108 0.72522 0.0
C359 C 0.56303 0.45863 0.75202 0.0
C360 C 0.544 0.43774 0.76835 0.0
C361 C 0.53366 0.44492 0.79363 0.0
C362 C 0.54201 0.47296 0.80272 0.0
C363 C 0.56067 0.49391 0.78651 0.0
C364 C 0.5711 0.48685 0.76122 0.0
C365 C 0.53727 0.47771 0.605 0.0
C366 C 0.55064 0.50699 0.60245 0.0
C367 C 0.54542 0.46191 0.62801 0.0
C368 C 0.56677 0.47506 0.6493 0.0
C369 C 0.58002 0.50431 0.64679 0.0
C370 C 0.57231 0.51999 0.62358 0.0
C371 C 0.57498 0.45859 0.67438 0.0
C372 C 0.56755 0.46594 0.70088 0.0
C373 C 0.58945 0.43552 0.67237 0.0
C374 C 0.59812 0.42673 0.64509 0.0
C375 C 0.61777 0.44625 0.62793 0.0
C376 C 0.62532 0.43793 0.60199 0.0
C377 C 0.61357 0.41007 0.59307 0.0
C378 C 0.59436 0.39044 0.61014 0.0
C379 C 0.5867 0.39867 0.63608 0.0
H380 H 0.61942 0.40368 0.57297 0.0
H381 H 0.53397 0.47848 0.82229 0.0
H382 H 0.90689 0.71377 0.26665 0.0
H383 H 0.92426 0.69231 0.22636 0.0
H384 H 0.90487 0.61106 0.26823 0.0
H385 H 0.88787 0.63237 0.30855 0.0
H386 H 0.95901 0.61817 0.24298 0.0
H387 H 0.85613 0.62928 0.21364 0.0
H388 H 0.81503 0.65551 0.20344 0.0
H389 H 0.87249 0.70778 0.14386 0.0
H390 H 0.91416 0.68214 0.15402 0.0
H391 H 0.97033 0.53024 0.12937 0.0
H392 H 0.9529 0.55335 0.16816 0.0
H393 H 0.95996 0.62958 0.11853 0.0
H394 H 0.976 0.60589 0.0791 0.0
H395 H 0.91331 0.62684 0.14758 0.0
H396 H 0.01622 0.61804 0.17594 0.0
H397 H 0.05911 0.59376 0.18559 0.0
H398 H 1.00496 0.54046 0.24657 0.0
H399 H 0.96157 0.56418 0.23701 0.0
C400 C 0.90649 0.69136 0.2675 0.0
C401 C 0.89562 0.67502 0.29127 0.0
C402 C 0.91623 0.67893 0.24412 0.0
C403 C 0.91572 0.64969 0.2436 0.0
C404 C 0.90555 0.63353 0.26757 0.0
C405 C 0.89554 0.64585 0.29078 0.0
C406 C 0.92578 0.63589 0.21847 0.0
C407 C 0.94864 0.61986 0.22221 0.0
C408 C 0.91336 0.63848 0.19083 0.0
C409 C 0.88841 0.654 0.18484 0.0
C410 C 0.86012 0.64655 0.19856 0.0
C411 C 0.8367 0.66128 0.19275 0.0
C412 C 0.84119 0.68336 0.17308 0.0
C413 C 0.86908 0.69072 0.15914 0.0
C414 C 0.89261 0.67609 0.16491 0.0
C415 C 0.96813 0.55191 0.12654 0.0
C416 C 0.97487 0.566 0.10076 0.0
C417 C 0.95835 0.56539 0.14909 0.0
C418 C 0.95568 0.59387 0.14719 0.0
C419 C 0.96178 0.60778 0.12118 0.0
C420 C 0.97109 0.59411 0.09842 0.0
C421 C 0.94652 0.60891 0.17204 0.0
C422 C 0.92382 0.62518 0.16829 0.0
C423 C 0.95946 0.60693 0.19965 0.0
C424 C 0.98554 0.59271 0.20556 0.0
C425 C 0.01339 0.60102 0.19128 0.0
C426 C 0.03779 0.58737 0.19675 0.0
C427 C 0.03473 0.56553 0.21663 0.0
C428 C 1.00728 0.55735 0.23115 0.0
C429 C 0.98279 0.57091 0.22573 0.0
H430 H 0.05365 0.55499 0.22083 0.0
H431 H 0.82301 0.69471 0.16859 0.0
H432 H 0.37294 0.239 0.14564 0.0
H433 H 0.4099 0.2127 0.13032 0.0
H434 H 0.46468 0.23152 0.20748 0.0
H435 H 0.42774 0.25813 0.22308 0.0
H436 H 0.48677 0.22504 0.13297 0.0
H437 H 0.44954 0.18018 0.22773 0.0
H438 H 0.40598 0.17047 0.2597 0.0
H439 H 0.34166 0.13541 0.19221 0.0
H440 H 0.38486 0.14525 0.15986 0.0
H441 H 0.54697 0.10503 0.10331 0.0
H442 H 0.53659 0.14274 0.13184 0.0
H443 H 0.43722 0.10836 0.11861 0.0
H444 H 0.44729 0.07032 0.09121 0.0
H445 H 0.44839 0.1269 0.16903 0.0
H446 H 0.48034 0.16293 0.07678 0.0
H447 H 0.51786 0.17242 0.03932 0.0
H448 H 0.58647 0.22457 0.09456 0.0
H449 H 0.54945 0.21505 0.13245 0.0
C450 C 0.39346 0.23852 0.15895 0.0
C451 C 0.39734 0.25045 0.18566 0.0
C452 C 0.41456 0.22349 0.15013 0.0
C453 C 0.43987 0.22024 0.16781 0.0
C454 C 0.44526 0.23394 0.19358 0.0
C455 C 0.42406 0.24891 0.2025 0.0
C456 C 0.45646 0.19822 0.1614 0.0
C457 C 0.47923 0.20372 0.14139 0.0
C458 C 0.44586 0.17041 0.17188 0.0
C459 C 0.42028 0.16345 0.1915 0.0
C460 C 0.42609 0.17037 0.21979 0.0
C461 C 0.40148 0.16491 0.23794 0.0
C462 C 0.37107 0.15235 0.22799 0.0
C463 C 0.36522 0.14513 0.19989 0.0
C464 C 0.38974 0.15063 0.18166 0.0
C465 C 0.52293 0.10526 0.10693 0.0
C466 C 0.49793 0.08487 0.09474 0.0
C467 C 0.51705 0.12687 0.12314 0.0
C468 C 0.48613 0.12865 0.12695 0.0
C469 C 0.46128 0.10745 0.11598 0.0
C470 C 0.4671 0.08573 0.10016 0.0
C471 C 0.479 0.15343 0.14043 0.0
C472 C 0.4574 0.14839 0.1615 0.0
C473 C 0.49047 0.18155 0.13053 0.0
C474 C 0.51227 0.18808 0.10749 0.0
C475 C 0.50345 0.17637 0.08093 0.0
C476 C 0.52463 0.18173 0.05964 0.0
C477 C 0.55456 0.19903 0.06458 0.0
C478 C 0.5633 0.21114 0.09078 0.0
C479 C 0.54223 0.20579 0.11216 0.0
H480 H 0.57095 0.20309 0.04809 0.0
H481 H 0.35205 0.14819 0.24205 0.0
H482 H 0.12004 0.77775 0.68898 0.0
H483 H 0.09142 0.81133 0.66774 0.0
H484 H 0.17001 0.88077 0.68878 0.0
H485 H 0.19787 0.84742 0.71096 0.0
H486 H 0.1199 0.89572 0.69939 0.0
H487 H 0.15233 0.85196 0.62073 0.0
H488 H 0.1567 0.81221 0.59125 0.0
H489 H 0.05659 0.78756 0.57966 0.0
H490 H 0.05161 0.82695 0.60939 0.0
H491 H 0.09222 1.00065 0.60092 0.0
H492 H 0.11238 0.96495 0.62808 0.0
H493 H 0.02299 0.90556 0.61691 0.0
H494 H 1.00251 0.94109 0.58985 0.0
H495 H 0.07382 0.88392 0.60271 0.0
H496 H 0.04349 0.93215 0.67896 0.0
H497 H 0.04167 0.97376 0.70682 0.0
H498 H 0.14155 0.99226 0.72088 0.0
H499 H 0.14403 0.95098 0.69276 0.0
C500 C 0.13108 0.8002 0.68894 0.0
C501 C 0.16104 0.81009 0.70158 0.0
C502 C 0.11482 0.81937 0.67676 0.0
C503 C 0.12867 0.84864 0.67636 0.0
C504 C 0.15872 0.85838 0.68892 0.0
C505 C 0.17467 0.83933 0.70151 0.0
C506 C 0.11209 0.8693 0.66298 0.0
C507 C 0.11012 0.89323 0.67814 0.0
C508 C 0.09863 0.86584 0.63546 0.0
C509 C 0.10159 0.84219 0.61754 0.0
C510 C 0.13124 0.83793 0.61206 0.0
C511 C 0.13383 0.81549 0.59529 0.0
C512 C 0.10694 0.79732 0.58366 0.0
C513 C 0.0774 0.80161 0.58873 0.0
C514 C 0.07468 0.82399 0.60553 0.0
C515 C 0.07669 0.98013 0.60452 0.0
C516 C 0.04576 0.97374 0.59315 0.0
C517 C 0.08824 0.95978 0.62011 0.0
C518 C 0.06913 0.93265 0.6245 0.0
C519 C 0.03808 0.92639 0.61373 0.0
C520 C 0.0264 0.9468 0.59839 0.0
C521 C 0.08217 0.91038 0.63899 0.0
C522 C 0.08343 0.8862 0.62403 0.0
C523 C 0.09541 0.91384 0.66649 0.0
C524 C 0.09396 0.93859 0.68355 0.0
C525 C 0.0651 0.94522 0.68781 0.0
C526 C 0.06394 0.96872 0.70368 0.0
C527 C 0.09149 0.98568 0.71556 0.0
C528 C 0.12024 0.97912 0.71165 0.0
C529 C 0.12153 0.95565 0.69577 0.0
H530 H 0.09054 1.00387 0.72784 0.0
H531 H 0.10899 0.77996 0.57068 0.0
H532 H 0.73103 0.40797 0.83972 0.0
H533 H 0.77877 0.43361 0.86498 0.0
H534 H 0.73482 0.41088 0.94305 0.0
H535 H 0.68687 0.38598 0.91796 0.0
H536 H 0.76687 0.4649 0.94406 0.0
H537 H 0.78788 0.37592 0.9184 0.0
H538 H 0.79289 0.33862 0.88609 0.0
H539 H 0.86286 0.39855 0.84287 0.0
H540 H 0.85793 0.43633 0.8747 0.0
H541 H 0.89852 0.48153 0.04023 0.0
H542 H 0.85106 0.46496 1.01051 0.0
H543 H 0.90328 0.49331 0.93755 0.0
H544 H 0.95089 0.50986 0.96726 0.0
H545 H 0.86824 0.4399 0.93107 0.0
H546 H 0.8502 0.52817 0.95878 0.0
H547 H 0.84559 0.5654 0.99131 0.0
H548 H 0.77073 0.50734 1.03068 0.0
H549 H 0.77511 0.46958 0.99864 0.0
C550 C 0.7314 0.40865 0.86225 0.0
C551 C 0.70504 0.39465 0.87674 0.0
C552 C 0.75886 0.42315 0.87672 0.0
C553 C 0.76069 0.42397 0.90604 0.0
C554 C 0.73418 0.41055 0.92048 0.0
C555 C 0.7068 0.39605 0.90607 0.0
C556 C 0.79018 0.4384 0.92183 0.0
C557 C 0.78896 0.45922 0.94138 0.0
C558 C 0.81934 0.43168 0.91791 0.0
C559 C 0.82225 0.40902 0.89872 0.0
C560 C 0.80413 0.3812 0.90185 0.0
C561 C 0.80699 0.35997 0.88365 0.0
C562 C 0.8281 0.36623 0.86238 0.0
C563 C 0.84646 0.39374 0.85931 0.0
C564 C 0.84365 0.41507 0.87743 0.0
C565 C 0.89981 0.48455 1.01787 0.0
C566 C 0.92848 0.49696 1.00611 0.0
C567 C 0.87261 0.47513 1.00087 0.0
C568 C 0.87342 0.47793 0.9717 0.0
C569 C 0.90197 0.49085 0.95995 0.0
C570 C 0.92916 0.50043 0.97698 0.0
C571 C 0.84484 0.46614 0.95354 0.0
C572 C 0.84622 0.44579 0.93358 0.0
C573 C 0.81586 0.4733 0.95707 0.0
C574 C 0.81317 0.49595 0.97643 0.0
C575 C 0.83292 0.52325 0.97452 0.0
C576 C 0.83032 0.54447 0.99284 0.0
C577 C 0.80795 0.53873 1.01308 0.0
C578 C 0.78807 0.51175 1.015 0.0
C579 C 0.79057 0.49043 0.99674 0.0
H580 H 0.80598 0.55521 1.02723 0.0
H581 H 0.8303 0.34976 0.84832 0.0
H582 H 0.82641 0.62581 0.36581 0.0
H583 H 0.78132 0.60152 0.39228 0.0
H584 H 0.75323 0.6804 0.39894 0.0
H585 H 0.7977 0.70456 0.37247 0.0
H586 H 0.75049 0.65506 0.44822 0.0
H587 H 0.71368 0.62512 0.35505 0.0
H588 H 0.71575 0.60304 0.30967 0.0
H589 H 0.71702 0.52372 0.35078 0.0
H590 H 0.71538 0.54545 0.39646 0.0
H591 H 0.59714 0.60849 0.49668 0.0
H592 H 0.64324 0.62795 0.47009 0.0
H593 H 0.66147 0.54465 0.46551 0.0
H594 H 0.61494 0.52494 0.49189 0.0
H595 H 0.67123 0.56968 0.41659 0.0
H596 H 0.70637 0.5984 0.50938 0.0
H597 H 0.70486 0.61993 0.55514 0.0
H598 H 0.70801 0.70077 0.51554 0.0
H599 H 0.70912 0.67964 0.46948 0.0
C600 C 0.81041 0.63794 0.37255 0.0
C601 C 0.81622 0.66737 0.36706 0.0
C602 C 0.78453 0.62398 0.38782 0.0
C603 C 0.76353 0.63898 0.39787 0.0
C604 C 0.76899 0.66819 0.39185 0.0
C605 C 0.79468 0.68207 0.37665 0.0
C606 C 0.73636 0.62481 0.41519 0.0
C607 C 0.73301 0.63657 0.44105 0.0
C608 C 0.71379 0.60008 0.4066 0.0
C609 C 0.71477 0.587 0.37918 0.0
C610 C 0.71467 0.60303 0.35442 0.0
C611 C 0.71571 0.59057 0.32865 0.0
C612 C 0.71661 0.56201 0.32734 0.0
C613 C 0.71638 0.54585 0.35182 0.0
C614 C 0.71538 0.55822 0.37766 0.0
C615 C 0.61101 0.59423 0.4903 0.0
C616 C 0.60201 0.565 0.49665 0.0
C617 C 0.63763 0.60547 0.47502 0.0
C618 C 0.65649 0.588 0.46583 0.0
C619 C 0.64757 0.55878 0.47216 0.0
C620 C 0.62083 0.54748 0.48739 0.0
C621 C 0.68512 0.60022 0.44944 0.0
C622 C 0.68878 0.58809 0.42382 0.0
C623 C 0.70813 0.62456 0.4583 0.0
C624 C 0.70754 0.63737 0.48596 0.0
C625 C 0.70652 0.62073 0.51041 0.0
C626 C 0.70577 0.63286 0.53641 0.0
C627 C 0.70627 0.66168 0.53824 0.0
C628 C 0.70759 0.67844 0.51409 0.0
C629 C 0.70831 0.6664 0.48803 0.0
H630 H 0.70569 0.67104 0.55839 0.0
H631 H 0.71741 0.5524 0.30737 0.0
H632 H 0.34606 0.32819 0.15244 0.0
H633 H 0.31181 0.35018 0.12181 0.0
H634 H 0.23077 0.2935 0.15507 0.0
H635 H 0.26453 0.27062 0.18433 0.0
H636 H 0.22154 0.29877 0.10145 0.0
H637 H 0.25999 0.36345 0.1781 0.0
H638 H 0.30072 0.39488 0.20753 0.0
H639 H 0.33313 0.44543 0.1357 0.0
H640 H 0.29278 0.41406 0.1058 0.0
H641 H 0.09915 0.36891 0.1047 0.0
H642 H 0.14222 0.34557 0.11237 0.0
H643 H 0.19862 0.40634 0.05792 0.0
H644 H 0.15506 0.42938 0.04915 0.0
H645 H 0.22702 0.40149 0.11081 0.0
H646 H 0.17797 0.34069 0.03697 0.0
H647 H 0.13419 0.3096 1.01044 0.0
H648 H 0.11864 0.25154 0.07989 0.0
H649 H 0.16202 0.28248 0.10701 0.0
C650 C 0.32094 0.32027 0.15296 0.0
C651 C 0.30803 0.29799 0.1712 0.0
C652 C 0.30141 0.33295 0.13558 0.0
C653 C 0.2687 0.32371 0.13638 0.0
C654 C 0.25591 0.30105 0.15408 0.0
C655 C 0.2753 0.28826 0.17116 0.0
C656 C 0.24731 0.338 0.11981 0.0
C657 C 0.22274 0.32124 0.10348 0.0
C658 C 0.24939 0.36748 0.12175 0.0
C659 C 0.2737 0.38621 0.13968 0.0
C660 C 0.27599 0.38113 0.16856 0.0
C661 C 0.29896 0.39895 0.18533 0.0
C662 C 0.31958 0.42207 0.17348 0.0
C663 C 0.3172 0.42746 0.14484 0.0
C664 C 0.2943 0.40968 0.12797 0.0
C665 C 0.12028 0.37689 0.09361 0.0
C666 C 0.12358 0.40114 0.07636 0.0
C667 C 0.14497 0.36354 0.09813 0.0
C668 C 0.17352 0.37418 0.0856 0.0
C669 C 0.17673 0.39785 0.06775 0.0
C670 C 0.15188 0.41107 0.06295 0.0
C671 C 0.20063 0.362 0.09347 0.0
C672 C 0.22629 0.37917 0.10813 0.0
C673 C 0.19925 0.33283 0.09037 0.0
C674 C 0.17321 0.31401 0.07407 0.0
C675 C 0.16509 0.3214 0.04666 0.0
C676 C 0.14035 0.30378 0.0315 0.0
C677 C 0.12362 0.27863 0.04348 0.0
C678 C 0.13163 0.27102 0.07063 0.0
C679 C 0.15633 0.28857 0.08589 0.0
H680 H 0.10448 0.26502 0.03171 0.0
H681 H 0.33733 0.43586 0.18649 0.0
H682 H 0.60206 0.2861 0.83371 0.0
H683 H 0.58044 0.24007 0.85606 0.0
H684 H 0.60267 0.27831 0.93694 0.0
H685 H 0.62374 0.32411 0.91491 0.0
H686 H 0.62125 0.22975 0.93663 0.0
H687 H 0.52676 0.25883 0.90943 0.0
H688 H 0.48917 0.27493 0.87677 0.0
H689 H 0.47869 0.19948 0.82862 0.0
H690 H 0.51656 0.1831 0.86081 0.0
H691 H 0.54025 0.11509 1.01995 0.0
H692 H 0.55929 0.16093 0.99675 0.0
H693 H 0.52719 0.12268 0.91704 0.0
H694 H 0.50677 0.0772 0.94046 0.0
H695 H 0.51428 0.17112 0.91614 0.0
H696 H 0.60898 0.1419 0.94296 0.0
H697 H 0.64605 0.12537 0.97589 0.0
H698 H 0.65623 0.20043 1.02454 0.0
H699 H 0.61891 0.21727 0.99207 0.0
C700 C 0.60188 0.28483 0.85623 0.0
C701 C 0.61506 0.309 0.87236 0.0
C702 C 0.58959 0.25838 0.86907 0.0
C703 C 0.58995 0.25542 0.89837 0.0
C704 C 0.60235 0.2797 0.91439 0.0
C705 C 0.61448 0.30601 0.90165 0.0
C706 C 0.578 0.22718 0.91253 0.0
C707 C 0.59772 0.2171 0.9323 0.0
C708 C 0.54754 0.21011 0.90671 0.0
C709 C 0.52475 0.21989 0.88736 0.0
C710 C 0.51663 0.24578 0.89175 0.0
C711 C 0.49524 0.25494 0.87335 0.0
C712 C 0.48162 0.23828 0.85059 0.0
C713 C 0.4893 0.21239 0.84623 0.0
C714 C 0.51071 0.20314 0.86456 0.0
C715 C 0.53746 0.11643 0.99746 0.0
C716 C 0.52216 0.09239 0.98205 0.0
C717 C 0.54852 0.14272 0.98409 0.0
C718 C 0.54537 0.14555 0.95484 0.0
C719 C 0.53008 0.1214 0.93953 0.0
C720 C 0.51852 0.09526 0.95294 0.0
C721 C 0.55756 0.17354 0.9402 0.0
C722 C 0.53788 0.18363 0.92038 0.0
C723 C 0.58813 0.19057 0.94589 0.0
C724 C 0.61105 0.18078 0.96515 0.0
C725 C 0.61906 0.15484 0.96072 0.0
C726 C 0.64011 0.14542 0.9793 0.0
C727 C 0.65353 0.16187 1.00225 0.0
C728 C 0.64588 0.18776 1.0067 0.0
C729 C 0.62482 0.19728 0.9882 0.0
H730 H 0.66989 0.15458 1.01655 0.0
H731 H 0.46506 0.2454 0.83637 0.0
H732 H 0.94958 0.75655 0.35423 0.0
H733 H 0.97194 0.80219 0.37687 0.0
H734 H 0.87921 0.81003 0.39428 0.0
H735 H 0.85689 0.76586 0.37018 0.0
H736 H 0.90869 0.85926 0.38451 0.0
H737 H 0.93597 0.7876 0.44484 0.0
H738 H 0.9592 0.74722 0.45789 0.0
H739 H 0.04996 0.79639 0.43743 0.0
H740 H 0.02719 0.83696 0.42394 0.0
H741 H 0.95767 0.96517 0.49222 0.0
H742 H 0.93452 0.92071 0.46718 0.0
H743 H 0.02538 0.91906 0.43875 0.0
H744 H 0.04828 0.96293 0.46359 0.0
H745 H 0.99675 0.86694 0.45478 0.0
H746 H 0.96768 0.93917 0.39557 0.0
H747 H 0.94324 0.97929 0.38473 0.0
H748 H 0.85379 0.92803 0.40606 0.0
H749 H 0.8778 0.88771 0.41738 0.0
C750 C 0.93387 0.76816 0.36245 0.0
C751 C 0.90124 0.75673 0.36061 0.0
C752 C 0.94677 0.79428 0.37592 0.0
C753 C 0.92756 0.80974 0.38837 0.0
C754 C 0.89498 0.79889 0.38538 0.0
C755 C 0.88213 0.77313 0.3717 0.0
C756 C 0.94089 0.83687 0.40466 0.0
C757 C 0.9277 0.86059 0.4001 0.0
C758 C 0.96607 0.83952 0.42501 0.0
C759 C 0.97982 0.81519 0.4331 0.0
C760 C 0.96085 0.78973 0.44295 0.0
C761 C 0.97394 0.76682 0.45045 0.0
C762 C 1.00602 0.76921 0.44841 0.0
C763 C 0.0251 0.79455 0.43895 0.0
C764 C 0.01212 0.81751 0.43139 0.0
C765 C 0.97268 0.95522 0.48077 0.0
C766 C 1.00495 0.96777 0.48013 0.0
C767 C 0.95939 0.92979 0.46621 0.0
C768 C 0.97802 0.91617 0.45069 0.0
C769 C 1.01024 0.92871 0.45042 0.0
C770 C 0.02337 0.95405 0.46467 0.0
C771 C 0.96448 0.88909 0.43463 0.0
C772 C 0.97768 0.86545 0.43922 0.0
C773 C 0.93908 0.8864 0.4146 0.0
C774 C 0.92459 0.91053 0.40759 0.0
C775 C 0.94284 0.93652 0.39813 0.0
C776 C 0.92906 0.95929 0.39187 0.0
C777 C 0.897 0.95623 0.39478 0.0
C778 C 0.87863 0.93038 0.40386 0.0
C779 C 0.8923 0.90756 0.41018 0.0
H780 H 0.88638 0.97388 0.38993 0.0
H781 H 0.01611 0.75146 0.45423 0.0
H782 H 0.22941 0.76005 0.66251 0.0
H783 H 0.25698 0.7299 0.63901 0.0
H784 H 0.2306 0.66477 0.70185 0.0
H785 H 0.20395 0.69562 0.72608 0.0
H786 H 0.2889 0.67281 0.69619 0.0
H787 H 0.2028 0.65634 0.6306 0.0
H788 H 0.16193 0.66761 0.59823 0.0
H789 H 0.23247 0.71684 0.54708 0.0
H790 H 0.27381 0.70623 0.57934 0.0
H791 H 0.37393 0.591 0.62086 0.0
H792 H 0.32912 0.60471 0.63993 0.0
H793 H 0.35628 0.68698 0.60057 0.0
H794 H 0.40168 0.67406 0.5824 0.0
H795 H 0.29065 0.66061 0.5941 0.0
H796 H 0.37516 0.68212 0.66615 0.0
H797 H 0.41497 0.66916 0.69868 0.0
H798 H 0.34359 0.60641 0.73732 0.0
H799 H 0.3034 0.61883 0.70478 0.0
C800 C 0.22872 0.73897 0.67085 0.0
C801 C 0.21449 0.73009 0.69603 0.0
C802 C 0.24443 0.72166 0.65735 0.0
C803 C 0.24565 0.69483 0.66842 0.0
C804 C 0.23003 0.68536 0.69288 0.0
C805 C 0.21474 0.7029 0.70665 0.0
C806 C 0.26615 0.67832 0.6562 0.0
C807 C 0.28861 0.6695 0.67391 0.0
C808 C 0.26621 0.67417 0.6271 0.0
C809 C 0.24144 0.68059 0.60752 0.0
C810 C 0.20962 0.66973 0.61255 0.0
C811 C 0.18636 0.67598 0.5942 0.0
C812 C 0.1946 0.69296 0.57064 0.0
C813 C 0.22612 0.70369 0.56534 0.0
C814 C 0.24949 0.69752 0.58363 0.0
C815 C 0.37057 0.61211 0.61645 0.0
C816 C 0.39154 0.63143 0.6001 0.0
C817 C 0.34479 0.61978 0.62716 0.0
C818 C 0.33942 0.6468 0.62155 0.0
C819 C 0.35988 0.66592 0.60487 0.0
C820 C 0.3858 0.65842 0.59443 0.0
C821 C 0.31342 0.65595 0.63407 0.0
C822 C 0.29014 0.66338 0.61641 0.0
C823 C 0.31226 0.65845 0.66321 0.0
C824 C 0.33637 0.65117 0.68286 0.0
C825 C 0.36801 0.66542 0.68145 0.0
C826 C 0.39062 0.65821 0.69992 0.0
C827 C 0.38182 0.63692 0.72 0.0
C828 C 0.35037 0.62287 0.72173 0.0
C829 C 0.32767 0.62999 0.7033 0.0
H830 H 0.39937 0.63136 0.73428 0.0
H831 H 0.17655 0.69778 0.55646 0.0
H832 H 0.65919 0.82207 0.78435 0.0
H833 H 0.68315 0.8513 0.7454 0.0
H834 H 0.77348 0.86466 0.78923 0.0
H835 H 0.74965 0.8368 0.82852 0.0
H836 H 0.76581 0.9126 0.76623 0.0
H837 H 0.7506 0.81533 0.73641 0.0
H838 H 0.71944 0.76718 0.72559 0.0
H839 H 0.66356 0.80162 0.66429 0.0
H840 H 0.69418 0.85003 0.67501 0.0
H841 H 0.87758 0.94404 0.66352 0.0
H842 H 0.84282 0.92329 0.70025 0.0
H843 H 0.7625 0.9234 0.64477 0.0
H844 H 0.79721 0.94463 0.60788 0.0
H845 H 0.75824 0.87249 0.67136 0.0
H846 H 0.77965 0.96977 0.69732 0.0
H847 H 0.8125 1.01727 0.70806 0.0
H848 H 0.85831 0.98245 0.77674 0.0
H849 H 0.82605 0.93465 0.76617 0.0
C850 C 0.68411 0.83142 0.78573 0.0
C851 C 0.70257 0.82674 0.80939 0.0
C852 C 0.6978 0.84796 0.7634 0.0
C853 C 0.73018 0.85989 0.76428 0.0
C854 C 0.74847 0.85561 0.78805 0.0
C855 C 0.73485 0.83931 0.81036 0.0
C856 C 0.74548 0.87654 0.74046 0.0
C857 C 0.76429 0.90378 0.74551 0.0
C858 C 0.74275 0.86537 0.71324 0.0
C859 C 0.72441 0.83629 0.70675 0.0
C860 C 0.73151 0.81264 0.72078 0.0
C861 C 0.71398 0.78531 0.71464 0.0
C862 C 0.68947 0.78135 0.69433 0.0
C863 C 0.6825 0.80472 0.68006 0.0
C864 C 0.69994 0.83211 0.68615 0.0
C865 C 0.85254 0.94017 0.65923 0.0
C866 C 0.84019 0.94608 0.63277 0.0
C867 C 0.83268 0.92824 0.68025 0.0
C868 C 0.80008 0.92208 0.67531 0.0
C869 C 0.78761 0.92803 0.64899 0.0
C870 C 0.80747 0.94003 0.62793 0.0
C871 C 0.77926 0.9082 0.69735 0.0
C872 C 0.75938 0.88151 0.69195 0.0
C873 C 0.78117 0.91981 0.7243 0.0
C874 C 0.80054 0.94857 0.73083 0.0
C875 C 0.79688 0.9722 0.7146 0.0
C876 C 0.81537 0.99919 0.72067 0.0
C877 C 0.83751 1.00287 0.74304 0.0
C878 C 0.84115 0.97957 0.75941 0.0
C879 C 0.82273 0.95252 0.75341 0.0
H880 H 0.85181 1.02378 0.74771 0.0
H881 H 0.67592 0.76017 0.6896 0.0
H882 H 0.8585 0.26193 0.26749 0.0
H883 H 0.83501 0.24073 0.22316 0.0
H884 H 0.74321 0.24129 0.25026 0.0
H885 H 0.76609 0.26115 0.29459 0.0
H886 H 0.7451 0.19062 0.23163 0.0
H887 H 0.77916 0.28811 0.20063 0.0
H888 H 0.81801 0.333 0.193 0.0
H889 H 0.8693 0.28998 0.14208 0.0
H890 H 0.83094 0.24474 0.14972 0.0
H891 H 0.64491 0.15626 0.1162 0.0
H892 H 0.67706 0.18686 0.15126 0.0
H893 H 0.76067 0.17493 0.11512 0.0
H894 H 0.72859 0.1451 0.07897 0.0
H895 H 0.76784 0.22973 0.13661 0.0
H896 H 0.73327 0.13284 0.16637 0.0
H897 H 0.6944 0.08787 0.17357 0.0
H898 H 0.64489 0.12969 0.22739 0.0
H899 H 0.68321 0.17503 0.22015 0.0
C900 C 0.83333 0.2576 0.2639 0.0
C901 C 0.81423 0.26342 0.28454 0.0
C902 C 0.81998 0.24573 0.2385 0.0
C903 C 0.78737 0.23959 0.23338 0.0
C904 C 0.76842 0.24591 0.25374 0.0
C905 C 0.78164 0.25759 0.27901 0.0
C906 C 0.77234 0.22492 0.20774 0.0
C907 C 0.74989 0.19937 0.21089 0.0
C908 C 0.77938 0.2358 0.18064 0.0
C909 C 0.80239 0.26299 0.17601 0.0
C910 C 0.79887 0.28817 0.18801 0.0
C911 C 0.82077 0.31369 0.18364 0.0
C912 C 0.84616 0.31433 0.16714 0.0
C913 C 0.84965 0.28945 0.1549 0.0
C914 C 0.82783 0.26387 0.15923 0.0
C915 C 0.67011 0.16084 0.11501 0.0
C916 C 0.68415 0.14787 0.09494 0.0
C917 C 0.68847 0.17818 0.13526 0.0
C918 C 0.72118 0.18262 0.1361 0.0
C919 C 0.73543 0.17155 0.11492 0.0
C920 C 0.71705 0.15429 0.09448 0.0
C921 C 0.73995 0.19608 0.16075 0.0
C922 C 0.76321 0.22107 0.15739 0.0
C923 C 0.73381 0.18471 0.1878 0.0
C924 C 0.71098 0.15737 0.19254 0.0
C925 C 0.71398 0.13248 0.1796 0.0
C926 C 0.69206 0.10693 0.1837 0.0
C927 C 0.66716 0.10593 0.20088 0.0
C928 C 0.66418 0.13049 0.21406 0.0
C929 C 0.68601 0.15612 0.20999 0.0
H930 H 0.65021 0.08613 0.20403 0.0
H931 H 0.86309 0.3341 0.16378 0.0
H932 H 0.42287 0.70808 0.29013 0.0
H933 H 0.44034 0.68558 0.33239 0.0
H934 H 0.40508 0.60328 0.29588 0.0
H935 H 0.38866 0.62537 0.25347 0.0
H936 H 0.38621 0.60468 0.34952 0.0
H937 H 0.48318 0.63287 0.30181 0.0
H938 H 0.52562 0.66737 0.27965 0.0
H939 H 0.54677 0.7141 0.35586 0.0
H940 H 0.50416 0.68006 0.37836 0.0
H941 H 0.44592 0.51433 0.44371 0.0
H942 H 0.4319 0.54102 0.40335 0.0
H943 H 0.48899 0.6183 0.43836 0.0
H944 H 0.50499 0.59105 0.47782 0.0
H945 H 0.49606 0.6228 0.38726 0.0
H946 H 0.40197 0.59709 0.43622 0.0
H947 H 0.35856 0.56553 0.46005 0.0
H948 H 0.32993 0.51856 0.38469 0.0
H949 H 0.37342 0.54963 0.36049 0.0
C950 C 0.41921 0.68521 0.29083 0.0
C951 C 0.40384 0.66874 0.26813 0.0
C952 C 0.42914 0.67231 0.31519 0.0
C953 C 0.42398 0.64257 0.31761 0.0
C954 C 0.40912 0.62618 0.29487 0.0
C955 C 0.3995 0.639 0.27052 0.0
C956 C 0.43337 0.62823 0.34376 0.0
C957 C 0.41031 0.60846 0.3576 0.0
C958 C 0.46458 0.63375 0.35516 0.0
C959 C 0.49028 0.65409 0.34167 0.0
C960 C 0.49672 0.65063 0.31377 0.0
C961 C 0.52083 0.67008 0.30116 0.0
C962 C 0.53882 0.69296 0.31631 0.0
C963 C 0.53278 0.69639 0.34413 0.0
C964 C 0.50868 0.67702 0.35683 0.0
C965 C 0.45543 0.53704 0.44292 0.0
C966 C 0.47625 0.55052 0.46438 0.0
C967 C 0.44712 0.55248 0.41979 0.0
C968 C 0.45847 0.58214 0.41772 0.0
C969 C 0.47952 0.59559 0.43916 0.0
C970 C 0.48847 0.57999 0.46201 0.0
C971 C 0.4489 0.5988 0.39306 0.0
C972 C 0.47189 0.61905 0.37945 0.0
C973 C 0.41743 0.59419 0.38218 0.0
C974 C 0.39113 0.57555 0.39661 0.0
C975 C 0.38653 0.57993 0.42477 0.0
C976 C 0.36189 0.56214 0.43834 0.0
C977 C 0.34154 0.54002 0.42391 0.0
C978 C 0.34573 0.53569 0.39585 0.0
C979 C 0.37035 0.5534 0.38219 0.0
H980 H 0.32249 0.52626 0.43446 0.0
H981 H 0.55747 0.708 0.30651 0.0
H982 H 0.13626 0.42754 0.75568 0.0
H983 H 0.11944 0.44846 0.79612 0.0
H984 H 0.09987 0.36682 0.83737 0.0
H985 H 0.11607 0.34555 0.79634 0.0
H986 H 0.05724 0.39136 0.85112 0.0
H987 H 0.16823 0.42503 0.8536 0.0
H988 H 0.21978 0.44758 0.83566 0.0
H989 H 0.19083 0.52566 0.82218 0.0
H990 H 0.13894 0.50346 0.8397 0.0
H991 H 0.04937 0.45147 0.98645 0.0
H992 H 0.06595 0.42808 0.94699 0.0
H993 H 0.07187 0.50396 0.89721 0.0
H994 H 0.05495 0.52727 0.93636 0.0
H995 H 0.12238 0.48128 0.88946 0.0
H996 H 0.0107 0.44603 0.8874 0.0
H997 H 0.9601 0.42271 0.90667 0.0
H998 H 0.99238 0.34645 0.92165 0.0
H999 H 0.04336 0.36945 0.90279 0.0
C1000 C 0.12862 0.41389 0.77335 0.0
C1001 C 0.1281 0.38467 0.77243 0.0
C1002 C 0.11899 0.42605 0.79681 0.0
C1003 C 0.10895 0.40971 0.82075 0.0
C1004 C 0.10757 0.38033 0.81961 0.0
C1005 C 0.11689 0.36804 0.79592 0.0
C1006 C 0.09996 0.42327 0.84661 0.0
C1007 C 0.0719 0.41078 0.85962 0.0
C1008 C 0.11838 0.44902 0.85813 0.0
C1009 C 0.14959 0.4625 0.84772 0.0
C1010 C 0.17279 0.44696 0.84664 0.0
C1011 C 0.20208 0.45968 0.83657 0.0
C1012 C 0.20855 0.48801 0.82772 0.0
C1013 C 0.18577 0.50371 0.82901 0.0
C1014 C 0.15642 0.49107 0.83903 0.0
C1015 C 0.0543 0.46331 0.96718 0.0
C1016 C 0.05065 0.49147 0.96495 0.0
C1017 C 0.06368 0.44976 0.94439 0.0
C1018 C 0.0701 0.46393 0.91858 0.0
C1019 C 0.06717 0.49225 0.91658 0.0
C1020 C 0.05736 0.50565 0.93918 0.0
C1021 C 0.07971 0.44944 0.89373 0.0
C1022 C 0.10786 0.46179 0.88095 0.0
C1023 C 0.06158 0.42344 0.88267 0.0
C1024 C 0.03096 0.40956 0.89396 0.0
C1025 C 1.00711 0.42436 0.89501 0.0
C1026 C 0.97834 0.41119 0.90582 0.0
C1027 C 0.97306 0.38315 0.91545 0.0
C1028 C 0.99652 0.36819 0.91422 0.0
C1029 C 0.02535 0.38128 0.90346 0.0
H1030 H 0.95077 0.37298 0.92381 0.0
H1031 H 0.23123 0.49782 0.81992 0.0
H1032 H 0.5922 0.80061 0.84193 0.0
H1033 H 0.55299 0.82367 0.85916 0.0
H1034 H 0.60488 0.83748 0.93834 0.0
H1035 H 0.6437 0.81427 0.92143 0.0
H1036 H 0.54306 0.83093 0.94536 0.0
H1037 H 0.62242 0.88484 0.88549 0.0
H1038 H 0.65019 0.89296 0.84166 0.0
H1039 H 0.56414 0.89516 0.79606 0.0
H1040 H 0.53577 0.88651 0.83962 0.0
H1041 H 0.57127 0.97837 0.97908 0.0
H1042 H 0.57815 0.93792 0.95287 0.0
H1043 H 0.4789 0.91389 0.93271 0.0
H1044 H 0.47149 0.95396 0.95966 0.0
H1045 H 0.54933 0.92004 0.89063 0.0
H1046 H 0.47082 0.86748 0.95662 0.0
H1047 H 0.4497 0.86265 1.00354 0.0
H1048 H 0.5407 0.86165 0.03996 0.0
H1049 H 0.56245 0.8671 0.99322 0.0
C1050 C 0.59466 0.80785 0.86328 0.0
C1051 C 0.62118 0.80604 0.88023 0.0
C1052 C 0.57225 0.82092 0.8731 0.0
C1053 C 0.57639 0.83276 0.89982 0.0
C1054 C 0.60121 0.82847 0.91766 0.0
C1055 C 0.62344 0.81521 0.90794 0.0
C1056 C 0.55866 0.85363 0.90765 0.0
C1057 C 0.54379 0.8501 0.93307 0.0
C1058 C 0.5598 0.87881 0.89174 0.0
C1059 C 0.57694 0.88469 0.86569 0.0
C1060 C 0.60942 0.88692 0.86608 0.0
C1061 C 0.62526 0.8916 0.8413 0.0
C1062 C 0.60892 0.8945 0.81608 0.0
C1063 C 0.57674 0.89283 0.8156 0.0
C1064 C 0.56077 0.88802 0.84032 0.0
C1065 C 0.55091 0.96476 0.96881 0.0
C1066 C 0.52082 0.96923 0.97163 0.0
C1067 C 0.55489 0.94164 0.95392 0.0
C1068 C 0.52895 0.92282 0.94137 0.0
C1069 C 0.49907 0.92801 0.94273 0.0
C1070 C 0.49497 0.95096 0.95799 0.0
C1071 C 0.53371 0.89718 0.92812 0.0
C1072 C 0.54691 0.90011 0.90203 0.0
C1073 C 0.53131 0.87165 0.9435 0.0
C1074 C 0.51828 0.86803 0.97152 0.0
C1075 C 0.48636 0.86653 0.97467 0.0
C1076 C 0.47428 0.86364 1.00121 0.0
C1077 C 0.49387 0.86191 1.02473 0.0
C1078 C 0.52558 0.86305 1.02173 0.0
C1079 C 0.53779 0.86606 0.99523 0.0
H1080 H 0.48448 0.85959 0.04525 0.0
H1081 H 0.62121 0.89811 0.79691 0.0
H1082 H 0.8496 0.24129 0.40502 0.0
H1083 H 0.88023 0.21056 0.42777 0.0
H1084 H 0.94579 0.22899 0.36227 0.0
H1085 H 0.91465 0.25944 0.33907 0.0
H1086 H 0.93091 0.17508 0.3706 0.0
H1087 H 0.96531 0.25332 0.43042 0.0
H1088 H 0.96251 0.29239 0.46137 0.0
H1089 H 0.91127 0.23269 0.51927 0.0
H1090 H 0.91324 0.19327 0.48845 0.0
H1091 H 0.02936 0.0994 0.45649 0.0
H1092 H 0.01173 0.13761 0.43072 0.0
H1093 H 0.92147 0.11141 0.46644 0.0
H1094 H 0.93842 0.07293 0.49165 0.0
H1095 H 0.95787 0.17317 0.47208 0.0
H1096 H 0.91922 0.09611 0.4062 0.0
H1097 H 0.92636 0.05833 0.37543 0.0
H1098 H 0.99233 0.11932 0.32928 0.0
H1099 H 0.98592 0.1574 0.36009 0.0
C1100 C 0.87095 0.23935 0.39581 0.0
C1101 C 0.87983 0.25286 0.37033 0.0
C1102 C 0.8885 0.22177 0.40885 0.0
C1103 C 0.91559 0.21766 0.39694 0.0
C1104 C 0.925 0.23181 0.37188 0.0
C1105 C 0.90725 0.24921 0.35867 0.0
C1106 C 0.93242 0.19683 0.40955 0.0
C1107 C 0.93738 0.1751 0.3927 0.0
C1108 C 0.94082 0.19662 0.43844 0.0
C1109 C 0.93918 0.22032 0.45694 0.0
C1110 C 0.95315 0.24852 0.44961 0.0
C1111 C 0.95176 0.27074 0.46717 0.0
C1112 C 0.93666 0.26504 0.49224 0.0
C1113 C 0.92293 0.23709 0.49982 0.0
C1114 C 0.92419 0.21479 0.48231 0.0
C1115 C 1.00561 0.10153 0.4585 0.0
C1116 C 0.98525 0.0831 0.47604 0.0
C1117 C 0.99564 0.12335 0.44383 0.0
C1118 C 0.96542 0.12728 0.44689 0.0
C1119 C 0.94491 0.10865 0.46392 0.0
C1120 C 0.9546 0.08656 0.47813 0.0
C1121 C 0.95527 0.15141 0.43324 0.0
C1122 C 0.95173 0.17366 0.44993 0.0
C1123 C 0.9487 0.15238 0.40422 0.0
C1124 C 0.95242 0.12952 0.38567 0.0
C1125 C 0.9355 0.1014 0.38968 0.0
C1126 C 0.93935 0.07995 0.37219 0.0
C1127 C 0.95987 0.0864 0.35047 0.0
C1128 C 0.9765 0.11434 0.34615 0.0
C1129 C 0.97276 0.13587 0.36361 0.0
H1130 H 0.96281 0.06976 0.33695 0.0
H1131 H 0.93565 0.28227 0.50582 0.0
H1132 H 0.29604 0.64798 0.22551 0.0
H1133 H 0.24803 0.62363 0.19973 0.0
H1134 H 0.29205 0.64871 0.1221 0.0
H1135 H 0.34002 0.67271 0.14759 0.0
H1136 H 0.2351 0.65903 0.12041 0.0
H1137 H 0.27918 0.57983 0.1474 0.0
H1138 H 0.30044 0.54862 0.18044 0.0
H1139 H 0.21392 0.52884 0.22222 0.0
H1140 H 0.19228 0.56025 0.18963 0.0
H1141 H 0.12669 0.57715 1.02476 0.0
H1142 H 0.17427 0.595 0.05385 0.0
H1143 H 0.12367 0.56628 0.12761 0.0
H1144 H 0.07601 0.54787 0.09842 0.0
H1145 H 0.18212 0.55773 0.13346 0.0
H1146 H 0.13764 0.63597 0.10681 0.0
H1147 H 0.11579 0.66725 0.07429 0.0
H1148 H 0.20256 0.68943 0.033 0.0
H1149 H 0.2248 0.65796 0.06504 0.0
C1150 C 0.29567 0.64801 0.20296 0.0
C1151 C 0.322 0.66255 0.18872 0.0
C1152 C 0.26811 0.63407 0.1882 0.0
C1153 C 0.26629 0.63418 0.15886 0.0
C1154 C 0.29266 0.6484 0.14468 0.0
C1155 C 0.32013 0.66226 0.15935 0.0
C1156 C 0.23679 0.62037 0.14274 0.0
C1157 C 0.22381 0.63678 0.12307 0.0
C1158 C 0.22128 0.59153 0.14668 0.0
C1159 C 0.23424 0.57263 0.16627 0.0
C1160 C 0.26478 0.56901 0.16378 0.0
C1161 C 0.27688 0.55125 0.18239 0.0
C1162 C 0.25858 0.53682 0.20347 0.0
C1163 C 0.22809 0.54007 0.20592 0.0
C1164 C 0.21589 0.55783 0.18737 0.0
C1165 C 0.12576 0.57435 0.04716 0.0
C1166 C 0.09749 0.56135 0.05928 0.0
C1167 C 0.15298 0.5847 0.06382 0.0
C1168 C 0.15255 0.5826 0.09306 0.0
C1169 C 0.12467 0.56836 0.10516 0.0
C1170 C 0.0974 0.55786 0.08845 0.0
C1171 C 0.18082 0.59631 0.11082 0.0
C1172 C 0.19345 0.57997 0.13085 0.0
C1173 C 0.19599 0.6253 0.10736 0.0
C1174 C 0.18278 0.64441 0.08817 0.0
C1175 C 0.15199 0.64737 0.09067 0.0
C1176 C 0.13955 0.66515 0.07234 0.0
C1177 C 0.15775 0.68026 0.05155 0.0
C1178 C 0.18848 0.67768 0.04909 0.0
C1179 C 0.20102 0.65989 0.06735 0.0
H1180 H 0.14808 0.69402 0.03737 0.0
H1181 H 0.26798 0.52307 0.21785 0.0
H1182 H 0.23685 0.40402 0.73191 0.0
H1183 H 0.28295 0.42736 0.70629 0.0
H1184 H 0.22749 0.41323 0.62893 0.0
H1185 H 0.18206 0.38898 0.65437 0.0
H1186 H 0.2777 0.40225 0.61892 0.0
H1187 H 0.25625 0.482 0.66335 0.0
H1188 H 0.2468 0.51111 0.70197 0.0
H1189 H 0.33779 0.51138 0.73915 0.0
H1190 H 0.34762 0.48194 0.70093 0.0
H1191 H 0.4116 0.53325 0.5733 0.0
H1192 H 0.36431 0.51386 0.5988 0.0
H1193 H 0.38531 0.43131 0.59969 0.0
H1194 H 0.43162 0.45027 0.57325 0.0
H1195 H 0.35103 0.49257 0.64655 0.0
H1196 H 0.32211 0.37803 0.60304 0.0
H1197 H 0.32685 0.35359 0.55954 0.0
H1198 H 0.32784 0.43023 0.51266 0.0
H1199 H 0.32271 0.45501 0.5558 0.0
C1200 C 0.23445 0.4062 0.70947 0.0
C1201 C 0.20563 0.39449 0.69528 0.0
C1202 C 0.26091 0.41969 0.69471 0.0
C1203 C 0.25916 0.42249 0.66536 0.0
C1204 C 0.23005 0.41135 0.65139 0.0
C1205 C 0.20386 0.39751 0.66604 0.0
C1206 C 0.28754 0.43588 0.64898 0.0
C1207 C 0.29362 0.42201 0.62514 0.0
C1208 C 0.30847 0.46206 0.65626 0.0
C1209 C 0.30253 0.4795 0.67943 0.0
C1210 C 0.27413 0.48806 0.67989 0.0
C1211 C 0.26873 0.50466 0.70168 0.0
C1212 C 0.29165 0.51302 0.72304 0.0
C1213 C 0.32004 0.50484 0.72262 0.0
C1214 C 0.32554 0.48821 0.70089 0.0
C1215 C 0.40596 0.51089 0.57861 0.0
C1216 C 0.42542 0.49335 0.5707 0.0
C1217 C 0.37888 0.49976 0.59346 0.0
C1218 C 0.37046 0.47081 0.60105 0.0
C1219 C 0.39032 0.45347 0.5936 0.0
C1220 C 0.41708 0.46446 0.57844 0.0
C1221 C 0.34123 0.45874 0.61677 0.0
C1222 C 0.33506 0.4728 0.64044 0.0
C1223 C 0.31953 0.43324 0.60879 0.0
C1224 C 0.32235 0.41843 0.5827 0.0
C1225 C 0.32323 0.38963 0.58343 0.0
C1226 C 0.32601 0.37573 0.55884 0.0
C1227 C 0.32775 0.39038 0.53337 0.0
C1228 C 0.32661 0.41894 0.53241 0.0
C1229 C 0.3238 0.43293 0.55693 0.0
H1230 H 0.32993 0.37958 0.51436 0.0
H1231 H 0.28743 0.5259 0.73987 0.0
H1232 H 0.75672 0.79661 0.88513 0.0
H1233 H 0.79157 0.77069 0.90942 0.0
H1234 H 0.71298 0.7011 0.92501 0.0
H1235 H 0.67764 0.72699 0.90022 0.0
H1236 H 0.76043 0.7159 0.97151 0.0
H1237 H 0.75149 0.69248 0.87424 0.0
H1238 H 0.75096 0.70348 0.82388 0.0
H1239 H 0.84589 0.7522 0.83253 0.0
H1240 H 0.84681 0.74187 0.88305 0.0
H1241 H 0.86166 0.61956 0.99727 0.0
H1242 H 0.81937 0.64271 0.98333 0.0
H1243 H 0.88639 0.71269 0.94829 0.0
H1244 H 0.92842 0.68914 0.96085 0.0
H1245 H 0.8399 0.6932 0.91188 0.0
H1246 H 0.84916 0.71892 1.00863 0.0
H1247 H 0.85042 0.70997 0.05936 0.0
H1248 H 0.7566 0.65856 0.05249 0.0
H1249 H 0.75492 0.6669 1.00163 0.0
C1250 C 0.74679 0.77577 0.89369 0.0
C1251 C 0.71456 0.76351 0.89024 0.0
C1252 C 0.76669 0.76112 0.90775 0.0
C1253 C 0.75483 0.73391 0.91866 0.0
C1254 C 0.72247 0.72212 0.91667 0.0
C1255 C 0.7024 0.73685 0.90249 0.0
C1256 C 0.77692 0.71728 0.92998 0.0
C1257 C 0.77752 0.71042 0.95849 0.0
C1258 C 0.79943 0.7107 0.91295 0.0
C1259 C 0.79913 0.71656 0.88247 0.0
C1260 C 0.77218 0.7057 0.86544 0.0
C1261 C 0.77182 0.7118 0.83686 0.0
C1262 C 0.79836 0.72858 0.82502 0.0
C1263 C 0.82535 0.73922 0.84173 0.0
C1264 C 0.82581 0.73323 0.87034 0.0
C1265 C 0.86738 0.63992 0.98667 0.0
C1266 C 0.89841 0.65238 0.97998 0.0
C1267 C 0.84322 0.65327 0.97899 0.0
C1268 C 0.84974 0.67945 0.9648 0.0
C1269 C 0.88084 0.69246 0.9592 0.0
C1270 C 0.90491 0.67908 0.96666 0.0
C1271 C 0.82415 0.69234 0.95371 0.0
C1272 C 0.82276 0.6984 0.92504 0.0
C1273 C 0.80112 0.69823 0.97069 0.0
C1274 C 0.80205 0.69328 1.00127 0.0
C1275 C 0.82889 0.70551 1.0179 0.0
C1276 C 0.82966 0.70058 0.04668 0.0
C1277 C 0.80365 0.68364 0.05913 0.0
C1278 C 0.77676 0.67165 0.04282 0.0
C1279 C 0.77587 0.67648 1.01401 0.0
H1280 H 0.80429 0.67985 0.08142 0.0
H1281 H 0.79802 0.73329 0.80289 0.0
H1282 H 0.40332 0.73297 0.1513 0.0
H1283 H 0.42386 0.77876 0.1294 0.0
H1284 H 0.44742 0.81668 0.21035 0.0
H1285 H 0.42521 0.7707 0.23259 0.0
H1286 H 0.42216 0.85063 0.17893 0.0
H1287 H 0.50359 0.80336 0.16426 0.0
H1288 H 0.52772 0.76543 0.14933 0.0
H1289 H 0.49484 0.7756 0.06484 0.0
H1290 H 0.47004 0.81326 0.07932 0.0
H1291 H 0.5162 0.97999 0.12455 0.0
H1292 H 0.49755 0.9344 0.14846 0.0
H1293 H 0.46016 0.89603 0.07007 0.0
H1294 H 0.47881 0.9417 0.04607 0.0
H1295 H 0.49396 0.86315 0.10101 0.0
H1296 H 0.41157 0.9096 0.11629 0.0
H1297 H 0.38893 0.94851 0.13115 0.0
H1298 H 0.42566 0.94064 0.21479 0.0
H1299 H 0.44895 0.90194 0.20033 0.0
C1300 C 0.41279 0.75097 0.16462 0.0
C1301 C 0.41218 0.74793 0.19389 0.0
C1302 C 0.42498 0.77729 0.15194 0.0
C1303 C 0.43768 0.80151 0.16801 0.0
C1304 C 0.43785 0.79848 0.1973 0.0
C1305 C 0.4254 0.77203 0.21007 0.0
C1306 C 0.44949 0.82996 0.15411 0.0
C1307 C 0.43831 0.85335 0.16225 0.0
C1308 C 0.47 0.8338 0.13169 0.0
C1309 C 0.48466 0.81095 0.12295 0.0
C1310 C 0.50124 0.79733 0.14254 0.0
C1311 C 0.51508 0.7759 0.13415 0.0
C1312 C 0.51273 0.76805 0.10617 0.0
C1313 C 0.49658 0.78166 0.08651 0.0
C1314 C 0.48264 0.80306 0.0948 0.0
C1315 C 0.50381 0.96188 0.11242 0.0
C1316 C 0.49884 0.96458 0.08341 0.0
C1317 C 0.49308 0.93579 0.12614 0.0
C1318 C 0.47726 0.9116 0.1112 0.0
C1319 C 0.47228 0.91426 0.08216 0.0
C1320 C 0.48274 0.94047 0.06846 0.0
C1321 C 0.46652 0.88353 0.12582 0.0
C1322 C 0.4779 0.8603 0.11778 0.0
C1323 C 0.44635 0.87988 0.14837 0.0
C1324 C 0.43229 0.90306 0.15716 0.0
C1325 C 0.41506 0.91633 0.1378 0.0
C1326 C 0.40206 0.93831 0.14616 0.0
C1327 C 0.40593 0.94709 0.17389 0.0
C1328 C 0.42273 0.93385 0.19332 0.0
C1329 C 0.43581 0.91187 0.18505 0.0
H1330 H 0.39585 0.96412 0.18032 0.0
H1331 H 0.5235 0.75147 0.09972 0.0
H1332 H 0.10344 0.28368 0.73722 0.0
H1333 H 0.08109 0.23775 0.71529 0.0
H1334 H 0.10964 0.2738 0.63526 0.0
H1335 H 0.1292 0.31981 0.65643 0.0
H1336 H 0.06038 0.23971 0.62438 0.0
H1337 H 0.14934 0.2269 0.68106 0.0
H1338 H 0.18222 0.22679 0.72425 0.0
H1339 H 0.10749 0.1666 0.76163 0.0
H1340 H 0.07403 0.16661 0.71876 0.0
H1341 H 0.05395 0.10778 0.5553 0.0
H1342 H 0.07454 0.15326 0.57908 0.0
H1343 H 0.02211 0.12066 0.65077 0.0
H1344 H 1.0014 0.07546 0.62695 0.0
H1345 H 0.08267 0.15173 0.6662 0.0
H1346 H 0.99547 0.16406 0.60607 0.0
H1347 H 0.96563 0.16393 0.56114 0.0
H1348 H 0.04218 0.22542 0.52788 0.0
H1349 H 0.07269 0.2256 0.57251 0.0
C1350 C 0.10458 0.28203 0.71489 0.0
C1351 C 0.1191 0.30591 0.69902 0.0
C1352 C 0.09216 0.25536 0.70227 0.0
C1353 C 0.0943 0.2514 0.67339 0.0
C1354 C 0.10768 0.27552 0.6575 0.0
C1355 C 0.11948 0.30213 0.66993 0.0
C1356 C 0.08287 0.2226 0.65947 0.0
C1357 C 0.06582 0.2207 0.63355 0.0
C1358 C 0.08907 0.19705 0.67105 0.0
C1359 C 0.10909 0.197 0.69683 0.0
C1360 C 0.13986 0.21379 0.69856 0.0
C1361 C 0.15861 0.21372 0.72297 0.0
C1362 C 0.14692 0.19677 0.7457 0.0
C1363 C 0.11649 0.17977 0.74403 0.0
C1364 C 0.09763 0.17978 0.71968 0.0
C1365 C 0.04745 0.11003 0.57636 0.0
C1366 C 0.02645 0.08759 0.58931 0.0
C1367 C 0.05892 0.13628 0.5899 0.0
C1368 C 0.04994 0.14079 0.61691 0.0
C1369 C 0.02964 0.11804 0.63009 0.0
C1370 C 0.01779 0.09207 0.61639 0.0
C1371 C 0.06078 0.16921 0.63119 0.0
C1372 C 0.07752 0.17092 0.65714 0.0
C1373 C 0.05486 0.19465 0.61938 0.0
C1374 C 0.0365 0.19462 0.59256 0.0
C1375 C 1.00605 0.17737 0.58911 0.0
C1376 C 0.989 0.17732 0.5637 0.0
C1377 C 1.00202 0.1946 0.54164 0.0
C1378 C 0.03213 0.21201 0.54497 0.0
C1379 C 0.04931 0.21211 0.57032 0.0
H1380 H 0.98877 0.19456 0.522 0.0
H1381 H 0.16147 0.19674 0.76458 0.0
H1382 H 0.75881 0.29041 0.35279 0.0
H1383 H 0.72722 0.31777 0.37506 0.0
H1384 H 0.8106 0.37061 0.41396 0.0
H1385 H 0.84271 0.34289 0.39153 0.0
H1386 H 0.76142 0.35636 0.44975 0.0
H1387 H 0.77762 0.39671 0.35924 0.0
H1388 H 0.78037 0.39689 0.30811 0.0
H1389 H 0.68216 0.35784 0.29979 0.0
H1390 H 0.6789 0.357 0.35091 0.0
H1391 H 0.66226 0.45115 0.48138 0.0
H1392 H 0.70571 0.43432 0.46292 0.0
H1393 H 0.63951 0.36482 0.42315 0.0
H1394 H 0.59618 0.38129 0.4418 0.0
H1395 H 0.68759 0.3962 0.38834 0.0
H1396 H 0.67422 0.35077 0.47945 0.0
H1397 H 0.67192 0.35071 0.53062 0.0
H1398 H 0.76616 0.40126 0.53751 0.0
H1399 H 0.76883 0.40198 0.48629 0.0
C1400 C 0.77051 0.30795 0.36595 0.0
C1401 C 0.80327 0.31494 0.36997 0.0
C1402 C 0.75241 0.32353 0.37871 0.0
C1403 C 0.76663 0.34662 0.39563 0.0
C1404 C 0.79925 0.353 0.40075 0.0
C1405 C 0.81751 0.33722 0.38798 0.0
C1406 C 0.74689 0.364 0.40731 0.0
C1407 C 0.74579 0.36567 0.43634 0.0
C1408 C 0.72635 0.37597 0.38977 0.0
C1409 C 0.72807 0.37667 0.35895 0.0
C1410 C 0.75664 0.388 0.34653 0.0
C1411 C 0.75829 0.38823 0.31754 0.0
C1412 C 0.73146 0.37735 0.30072 0.0
C1413 C 0.70292 0.36626 0.31285 0.0
C1414 C 0.70115 0.36595 0.34184 0.0
C1415 C 0.6571 0.43236 0.46859 0.0
C1416 C 0.62597 0.41744 0.46299 0.0
C1417 C 0.68184 0.42274 0.4582 0.0
C1418 C 0.67571 0.39833 0.44177 0.0
C1419 C 0.64464 0.38371 0.4358 0.0
C1420 C 0.61998 0.39303 0.44653 0.0
C1421 C 0.7015 0.38774 0.43067 0.0
C1422 C 0.70371 0.38742 0.40171 0.0
C1423 C 0.72315 0.37727 0.44828 0.0
C1424 C 0.72157 0.37676 0.47903 0.0
C1425 C 0.69433 0.36212 0.49185 0.0
C1426 C 0.69299 0.36191 0.52087 0.0
C1427 C 0.71884 0.37606 0.5373 0.0
C1428 C 0.74613 0.39037 0.52475 0.0
C1429 C 0.74757 0.39068 0.49573 0.0
H1430 H 0.71776 0.37586 0.55976 0.0
H1431 H 0.73279 0.37754 0.27828 0.0
loop_
_geom_bond_atom_site_label_1
_geom_bond_atom_site_label_2
_geom_bond_distance
_geom_bond_site_symmetry_2
_ccdc_geom_bond_type
H0 C3 0.931 . S
H1 C6 0.928 . S
H2 C8 0.930 . S
C3 H0 0.931 . S
C3 C4 1.413 . S
C3 C5 1.360 . S
C4 C3 1.413 . S
C4 C8 1.429 . S
C5 C3 1.360 . S
C5 C6 1.372 . S
C6 H1 0.928 . S
C6 C5 1.372 . S
C6 C7 1.404 . S
C7 C6 1.404 . S
C7 C8 1.391 . S
C8 H2 0.930 . S
C8 C4 1.429 . S
C8 C7 1.391 . S
H9 C12 0.931 . S
H10 C15 0.928 . S
H11 C17 0.930 . S
C12 H9 0.931 . S
C12 C13 1.413 . S
C12 C14 1.360 . S
C13 C12 1.413 . S
C13 C17 1.429 . S
C14 C12 1.360 . S
C14 C15 1.372 . S
C15 H10 0.928 . S
C15 C14 1.372 . S
C15 C16 1.404 . S
C16 C15 1.404 . S
C16 C17 1.391 . S
C17 H11 0.930 . S
C17 C13 1.429 . S
C17 C16 1.391 . S
H18 C21 0.931 . S
H19 C24 0.928 . S
H20 C26 0.930 . S
C21 H18 0.931 . S
C21 C22 1.413 . S
C21 C23 1.360 . S
C22 C21 1.413 . S
C22 C26 1.429 . S
C23 C21 1.360 . S
C23 C24 1.372 . S
C24 H19 0.928 . S
C24 C23 1.372 . S
C24 C25 1.404 . S
C25 C24 1.404 . S
C25 C26 1.391 . S
C26 H20 0.930 . S
C26 C22 1.429 . S
C26 C25 1.391 . S
H27 C30 0.931 . S
H28 C33 0.928 . S
H29 C35 0.930 . S
C30 H27 0.931 . S
C30 C31 1.413 . S
C30 C32 1.360 . S
C31 C30 1.413 . S
C31 C35 1.429 . S
C32 C30 1.360 . S
C32 C33 1.372 . S
C33 H28 0.928 . S
C33 C32 1.372 . S
C33 C34 1.404 . S
C34 C33 1.404 . S
C34 C35 1.391 . S
C35 H29 0.930 . S
C35 C31 1.429 . S
C35 C34 1.391 . S
H36 C39 0.931 . S
H37 C42 0.928 . S
H38 C44 0.930 . S
C39 H36 0.931 . S
C39 C40 1.413 . S
C39 C41 1.360 . S
C40 C39 1.413 . S
C40 C44 1.429 . S
C41 C39 1.360 . S
C41 C42 1.372 . S
C42 H37 0.928 . S
C42 C41 1.372 . S
C42 C43 1.404 . S
C43 C42 1.404 . S
C43 C44 1.391 . S
C44 H38 0.930 . S
C44 C40 1.429 . S
C44 C43 1.391 . S
H45 C48 0.931 . S
H46 C51 0.928 . S
H47 C53 0.930 . S
C48 H45 0.931 . S
C48 C49 1.413 . S
C48 C50 1.360 . S
C49 C48 1.413 . S
C49 C53 1.429 . S
C50 C48 1.360 . S
C50 C51 1.372 . S
C51 H46 0.928 . S
C51 C50 1.372 . S
C51 C52 1.404 . S
C52 C51 1.404 . S
C52 C53 1.391 . S
C53 H47 0.930 . S
C53 C49 1.429 . S
C53 C52 1.391 . S
H54 C57 0.931 . S
H55 C60 0.928 . S
H56 C62 0.930 . S
C57 H54 0.931 . S
C57 C58 1.413 . S
C57 C59 1.360 . S
C58 C57 1.413 . S
C58 C62 1.429 . S
C59 C57 1.360 . S
C59 C60 1.372 . S
C60 H55 0.928 . S
C60 C59 1.372 . S
C60 C61 1.404 . S
C61 C60 1.404 . S
C61 C62 1.391 . S
C62 H56 0.930 . S
C62 C58 1.429 . S
C62 C61 1.391 . S
H63 C66 0.931 . S
H64 C69 0.928 . S
H65 C71 0.930 . S
C66 H63 0.931 . S
C66 C67 1.413 . S
C66 C68 1.360 . S
C67 C66 1.413 . S
C67 C71 1.429 . S
C68 C66 1.360 . S
C68 C69 1.372 . S
C69 H64 0.928 . S
C69 C68 1.372 . S
C69 C70 1.404 . S
C70 C69 1.404 . S
C70 C71 1.391 . S
C71 H65 0.930 . S
C71 C67 1.429 . S
C71 C70 1.391 . S
Tb72 C74 2.809 1_545 S
Tb72 O92 2.484 1_545 S
Tb72 O93 2.440 1_545 S
Tb72 O94 2.658 1_655 S
Tb72 O95 2.409 . S
Tb72 O96 2.378 1_645 S
Tb72 O100 2.325 1_545 S
Tb72 O103 2.341 . S
Tb73 C83 2.809 . S
Tb73 O94 2.325 . S
Tb73 O97 2.341 1_545 S
Tb73 O98 2.484 . S
Tb73 O99 2.440 . S
Tb73 O100 2.658 1_445 S
Tb73 O101 2.409 1_545 S
Tb73 O102 2.378 1_455 S
C74 Tb72 2.809 1_565 S
C74 C75 1.514 . S
C74 O92 1.248 . S
C74 O93 1.266 . S
C75 C74 1.514 . S
C75 C76 1.359 . S
C75 C80 1.348 . S
C76 C75 1.359 . S
C76 C77 1.380 . S
C76 H104 0.929 . S
C77 C76 1.380 . S
C77 C78 1.347 . S
C77 H105 0.931 . S
C78 C77 1.347 . S
C78 C79 1.369 . S
C79 C78 1.369 . S
C79 C80 1.408 . S
C79 H106 0.930 . S
C80 C75 1.348 . S
C80 C79 1.408 . S
C80 H107 0.930 . S
C81 O94 1.281 . S
C81 O95 1.254 1_455 S
C82 O96 1.236 . S
C82 O97 1.266 . S
C83 Tb73 2.809 . S
C83 C84 1.514 . S
C83 O98 1.248 . S
C83 O99 1.266 . S
C84 C83 1.514 . S
C84 C85 1.359 . S
C84 C89 1.348 . S
C85 C84 1.359 . S
C85 C86 1.380 . S
C85 H108 0.929 . S
C86 C85 1.380 . S
C86 C87 1.347 . S
C86 H109 0.931 . S
C87 C86 1.347 . S
C87 C88 1.369 . S
C88 C87 1.369 . S
C88 C89 1.408 . S
C88 H110 0.930 . S
C89 C84 1.348 . S
C89 C88 1.408 . S
C89 H111 0.930 . S
C90 O100 1.281 . S
C90 O101 1.254 1_655 S
C91 O102 1.236 . S
C91 O103 1.266 . S
O92 Tb72 2.484 1_565 S
O92 C74 1.248 . S
O93 Tb72 2.440 1_565 S
O93 C74 1.266 . S
O94 Tb72 2.658 1_455 S
O94 Tb73 2.325 . S
O94 C81 1.281 . S
O95 Tb72 2.409 . S
O95 C81 1.254 1_655 S
O96 Tb72 2.378 1_465 S
O96 C82 1.236 . S
O97 Tb73 2.341 1_565 S
O97 C82 1.266 . S
O98 Tb73 2.484 . S
O98 C83 1.248 . S
O99 Tb73 2.440 . S
O99 C83 1.266 . S
O100 Tb72 2.325 1_565 S
O100 Tb73 2.658 1_665 S
O100 C90 1.281 . S
O101 Tb73 2.409 1_565 S
O101 C90 1.254 1_455 S
O102 Tb73 2.378 1_655 S
O102 C91 1.236 . S
O103 Tb72 2.341 . S
O103 C91 1.266 . S
H104 C76 0.929 . S
H105 C77 0.931 . S
H106 C79 0.930 . S
H107 C80 0.930 . S
H108 C85 0.929 . S
H109 C86 0.931 . S
H110 C88 0.930 . S
H111 C89 0.930 . S
Tb112 C114 2.809 . S
Tb112 O132 2.484 . S
Tb112 O133 2.440 . S
Tb112 O134 2.658 1_545 S
Tb112 O135 2.409 1_545 S
Tb112 O136 2.378 . S
Tb112 O140 2.325 1_554 S
Tb112 O143 2.341 1_544 S
Tb113 C123 2.809 . S
Tb113 O134 2.325 1_556 S
Tb113 O137 2.341 1_566 S
Tb113 O138 2.484 . S
Tb113 O139 2.440 . S
Tb113 O140 2.658 1_565 S
Tb113 O141 2.409 1_565 S
Tb113 O142 2.378 . S
C114 Tb112 2.809 . S
C114 C115 1.514 . S
C114 O132 1.248 . S
C114 O133 1.266 . S
C115 C114 1.514 . S
C115 C116 1.359 . S
C115 C120 1.348 . S
C116 C115 1.359 . S
C116 C117 1.380 . S
C116 H144 0.929 . S
C117 C116 1.380 . S
C117 C118 1.347 . S
C117 H145 0.931 . S
C118 C117 1.347 . S
C118 C119 1.369 . S
C119 C118 1.369 . S
C119 C120 1.408 . S
C119 H146 0.930 . S
C120 C115 1.348 . S
C120 C119 1.408 . S
C120 H147 0.930 . S
C121 O134 1.281 . S
C121 O135 1.254 . S
C122 O136 1.236 . S
C122 O137 1.266 . S
C123 Tb113 2.809 . S
C123 C124 1.514 . S
C123 O138 1.248 . S
C123 O139 1.266 . S
C124 C123 1.514 . S
C124 C125 1.359 . S
C124 C129 1.348 . S
C125 C124 1.359 . S
C125 C126 1.380 . S
C125 H148 0.929 . S
C126 C125 1.380 . S
C126 C127 1.347 . S
C126 H149 0.931 . S
C127 C126 1.347 . S
C127 C128 1.369 . S
C128 C127 1.369 . S
C128 C129 1.408 . S
C128 H150 0.930 . S
C129 C124 1.348 . S
C129 C128 1.408 . S
C129 H151 0.930 . S
C130 O140 1.281 . S
C130 O141 1.254 . S
C131 O142 1.236 . S
C131 O143 1.266 . S
O132 Tb112 2.484 . S
O132 C114 1.248 . S
O133 Tb112 2.440 . S
O133 C114 1.266 . S
O134 Tb112 2.658 1_565 S
O134 Tb113 2.325 1_554 S
O134 C121 1.281 . S
O135 Tb112 2.409 1_565 S
O135 C121 1.254 . S
O136 Tb112 2.378 . S
O136 C122 1.236 . S
O137 Tb113 2.341 1_544 S
O137 C122 1.266 . S
O138 Tb113 2.484 . S
O138 C123 1.248 . S
O139 Tb113 2.440 . S
O139 C123 1.266 . S
O140 Tb112 2.325 1_556 S
O140 Tb113 2.658 1_545 S
O140 C130 1.281 . S
O141 Tb113 2.409 1_545 S
O141 C130 1.254 . S
O142 Tb113 2.378 . S
O142 C131 1.236 . S
O143 Tb112 2.341 1_566 S
O143 C131 1.266 . S
H144 C116 0.929 . S
H145 C117 0.931 . S
H146 C119 0.930 . S
H147 C120 0.930 . S
H148 C125 0.929 . S
H149 C126 0.931 . S
H150 C128 0.930 . S
H151 C129 0.930 . S
Tb152 C154 2.809 . S
Tb152 O172 2.484 . S
Tb152 O173 2.440 . S
Tb152 O174 2.658 . S
Tb152 O175 2.409 . S
Tb152 O176 2.378 . S
Tb152 O180 2.325 . S
Tb152 O183 2.341 . S
Tb153 C163 2.809 . S
Tb153 O174 2.325 . S
Tb153 O177 2.341 . S
Tb153 O178 2.484 . S
Tb153 O179 2.440 . S
Tb153 O180 2.658 . S
Tb153 O181 2.409 . S
Tb153 O182 2.378 . S
C154 Tb152 2.809 . S
C154 C155 1.514 . S
C154 O172 1.248 . S
C154 O173 1.266 . S
C155 C154 1.514 . S
C155 C156 1.359 . S
C155 C160 1.348 . S
C156 C155 1.359 . S
C156 C157 1.380 . S
C156 H184 0.929 . S
C157 C156 1.380 . S
C157 C158 1.347 . S
C157 H185 0.931 . S
C158 C157 1.347 . S
C158 C159 1.369 . S
C159 C158 1.369 . S
C159 C160 1.408 . S
C159 H186 0.930 . S
C160 C155 1.348 . S
C160 C159 1.408 . S
C160 H187 0.930 . S
C161 O174 1.281 . S
C161 O175 1.254 . S
C162 O176 1.236 . S
C162 O177 1.266 . S
C163 Tb153 2.809 . S
C163 C164 1.514 . S
C163 O178 1.248 . S
C163 O179 1.266 . S
C164 C163 1.514 . S
C164 C165 1.359 . S
C164 C169 1.348 . S
C165 C164 1.359 . S
C165 C166 1.380 . S
C165 H188 0.929 . S
C166 C165 1.380 . S
C166 C167 1.347 . S
C166 H189 0.931 . S
C167 C166 1.347 . S
C167 C168 1.369 . S
C168 C167 1.369 . S
C168 C169 1.408 . S
C168 H190 0.930 . S
C169 C164 1.348 . S
C169 C168 1.408 . S
C169 H191 0.930 . S
C170 O180 1.281 . S
C170 O181 1.254 . S
C171 O182 1.236 . S
C171 O183 1.266 . S
O172 Tb152 2.484 . S
O172 C154 1.248 . S
O173 Tb152 2.440 . S
O173 C154 1.266 . S
O174 Tb152 2.658 . S
O174 Tb153 2.325 . S
O174 C161 1.281 . S
O175 Tb152 2.409 . S
O175 C161 1.254 . S
O176 Tb152 2.378 . S
O176 C162 1.236 . S
O177 Tb153 2.341 . S
O177 C162 1.266 . S
O178 Tb153 2.484 . S
O178 C163 1.248 . S
O179 Tb153 2.440 . S
O179 C163 1.266 . S
O180 Tb152 2.325 . S
O180 Tb153 2.658 . S
O180 C170 1.281 . S
O181 Tb153 2.409 . S
O181 C170 1.254 . S
O182 Tb153 2.378 . S
O182 C171 1.236 . S
O183 Tb152 2.341 . S
O183 C171 1.266 . S
H184 C156 0.929 . S
H185 C157 0.931 . S
H186 C159 0.930 . S
H187 C160 0.930 . S
H188 C165 0.929 . S
H189 C166 0.931 . S
H190 C168 0.930 . S
H191 C169 0.930 . S
Tb192 C194 2.804 1_455 S
Tb192 O212 2.479 1_455 S
Tb192 O213 2.438 1_455 S
Tb192 O214 2.662 1_556 S
Tb192 O215 2.413 1_556 S
Tb192 O216 2.375 1_456 S
Tb192 O220 2.322 1_455 S
Tb192 O223 2.346 . S
Tb193 C203 2.809 . S
Tb193 O214 2.325 . S
Tb193 O217 2.341 1_455 S
Tb193 O218 2.484 . S
Tb193 O219 2.440 . S
Tb193 O220 2.658 1_454 S
Tb193 O221 2.409 1_455 S
Tb193 O222 2.378 1_554 S
C194 Tb192 2.804 1_655 S
C194 C195 1.514 . S
C194 O212 1.248 . S
C194 O213 1.266 . S
C195 C194 1.514 . S
C195 C196 1.359 . S
C195 C200 1.348 . S
C196 C195 1.359 . S
C196 C197 1.380 . S
C196 H224 0.929 . S
C197 C196 1.380 . S
C197 C198 1.347 . S
C197 H225 0.931 . S
C198 C197 1.347 . S
C198 C199 1.369 . S
C199 C198 1.369 . S
C199 C200 1.408 . S
C199 H226 0.930 . S
C200 C195 1.348 . S
C200 C199 1.408 . S
C200 H227 0.930 . S
C201 O214 1.281 . S
C201 O215 1.254 . S
C202 O216 1.236 . S
C202 O217 1.266 . S
C203 Tb193 2.809 . S
C203 C204 1.514 . S
C203 O218 1.248 . S
C203 O219 1.266 . S
C204 C203 1.514 . S
C204 C205 1.359 . S
C204 C209 1.348 . S
C205 C204 1.359 . S
C205 C206 1.380 . S
C205 H228 0.929 . S
C206 C205 1.380 . S
C206 C207 1.347 . S
C206 H229 0.931 . S
C207 C206 1.347 . S
C207 C208 1.369 . S
C208 C207 1.369 . S
C208 C209 1.408 . S
C208 H230 0.930 . S
C209 C204 1.348 . S
C209 C208 1.408 . S
C209 H231 0.930 . S
C210 O220 1.281 . S
C210 O221 1.254 1_556 S
C211 O222 1.236 . S
C211 O223 1.266 . S
O212 Tb192 2.479 1_655 S
O212 C194 1.248 . S
O213 Tb192 2.438 1_655 S
O213 C194 1.266 . S
O214 Tb192 2.662 1_554 S
O214 Tb193 2.325 . S
O214 C201 1.281 . S
O215 Tb192 2.413 1_554 S
O215 C201 1.254 . S
O216 Tb192 2.375 1_654 S
O216 C202 1.236 . S
O217 Tb193 2.341 1_655 S
O217 C202 1.266 . S
O218 Tb193 2.484 . S
O218 C203 1.248 . S
O219 Tb193 2.440 . S
O219 C203 1.266 . S
O220 Tb192 2.322 1_655 S
O220 Tb193 2.658 1_656 S
O220 C210 1.281 . S
O221 Tb193 2.409 1_655 S
O221 C210 1.254 1_554 S
O222 Tb193 2.378 1_556 S
O222 C211 1.236 . S
O223 Tb192 2.346 . S
O223 C211 1.266 . S
H224 C196 0.929 . S
H225 C197 0.931 . S
H226 C199 0.930 . S
H227 C200 0.930 . S
H228 C205 0.929 . S
H229 C206 0.931 . S
H230 C208 0.930 . S
H231 C209 0.930 . S
H232 C250 0.951 . S
H233 C252 0.951 . S
H234 C254 0.950 . S
H235 C255 0.950 . S
H236 C257 0.950 . S
H237 C260 0.950 . S
H238 C261 0.950 . S
H239 C263 0.950 . S
H240 C264 0.950 . S
H241 C265 0.951 . S
H242 C267 0.951 . S
H243 C269 0.950 . S
H244 C270 0.950 . S
H245 C272 0.950 . S
H246 C275 0.950 . S
H247 C276 0.950 . S
H248 C278 0.950 . S
H249 C279 0.950 . S
C250 H232 0.951 . S
C250 C251 1.366 . S
C250 C252 1.388 . S
C251 C250 1.366 . S
C251 C255 1.385 . S
C252 H233 0.951 . S
C252 C250 1.388 . S
C252 C253 1.366 . S
C253 C252 1.366 . S
C253 C254 1.414 . S
C253 C256 1.499 . S
C254 H234 0.950 . S
C254 C253 1.414 . S
C254 C255 1.374 . S
C255 H235 0.950 . S
C255 C251 1.385 . S
C255 C254 1.374 . S
C256 C253 1.499 . S
C256 C257 1.373 . S
C256 C258 1.389 . S
C257 H236 0.950 . S
C257 C256 1.373 . S
C257 C273 1.377 . S
C258 C256 1.389 . S
C258 C259 1.524 . S
C258 C272 1.377 . S
C259 C258 1.524 . S
C259 C260 1.397 . S
C259 C264 1.363 . S
C260 H237 0.950 . S
C260 C259 1.397 . S
C260 C261 1.334 . S
C261 H238 0.950 . S
C261 C260 1.334 . S
C261 C262 1.287 . S
C262 C261 1.287 . S
C262 C263 1.524 . S
C262 H281 0.913 . S
C263 H239 0.950 . S
C263 C262 1.524 . S
C263 C264 1.415 . S
C264 H240 0.950 . S
C264 C259 1.363 . S
C264 C263 1.415 . S
C265 H241 0.951 . S
C265 C266 1.366 . S
C265 C267 1.388 . S
C266 C265 1.366 . S
C266 C270 1.385 . S
C267 H242 0.951 . S
C267 C265 1.388 . S
C267 C268 1.366 . S
C268 C267 1.366 . S
C268 C269 1.414 . S
C268 C271 1.499 . S
C269 H243 0.950 . S
C269 C268 1.414 . S
C269 C270 1.374 . S
C270 H244 0.950 . S
C270 C266 1.385 . S
C270 C269 1.374 . S
C271 C268 1.499 . S
C271 C272 1.373 . S
C271 C273 1.389 . S
C272 H245 0.950 . S
C272 C258 1.377 . S
C272 C271 1.373 . S
C273 C257 1.377 . S
C273 C271 1.389 . S
C273 C274 1.524 . S
C274 C273 1.524 . S
C274 C275 1.397 . S
C274 C279 1.363 . S
C275 H246 0.950 . S
C275 C274 1.397 . S
C275 C276 1.334 . S
C276 H247 0.950 . S
C276 C275 1.334 . S
C276 C277 1.287 . S
C277 C276 1.287 . S
C277 C278 1.524 . S
C277 H280 0.999 . S
C278 H248 0.950 . S
C278 C277 1.524 . S
C278 C279 1.415 . S
C279 H249 0.950 . S
C279 C274 1.363 . S
C279 C278 1.415 . S
H280 C277 0.999 . S
H281 C262 0.913 . S
H282 C300 0.951 . S
H283 C302 0.951 . S
H284 C304 0.950 . S
H285 C305 0.950 . S
H286 C307 0.950 . S
H287 C310 0.950 . S
H288 C311 0.950 . S
H289 C313 0.950 . S
H290 C314 0.950 . S
H291 C315 0.951 . S
H292 C317 0.951 . S
H293 C319 0.950 . S
H294 C320 0.950 . S
H295 C322 0.950 . S
H296 C325 0.950 . S
H297 C326 0.950 . S
H298 C328 0.950 . S
H299 C329 0.950 . S
C300 H282 0.951 . S
C300 C301 1.366 . S
C300 C302 1.388 . S
C301 C300 1.366 . S
C301 C305 1.385 . S
C302 H283 0.951 . S
C302 C300 1.388 . S
C302 C303 1.366 . S
C303 C302 1.366 . S
C303 C304 1.414 . S
C303 C306 1.499 . S
C304 H284 0.950 . S
C304 C303 1.414 . S
C304 C305 1.374 . S
C305 H285 0.950 . S
C305 C301 1.385 . S
C305 C304 1.374 . S
C306 C303 1.499 . S
C306 C307 1.373 . S
C306 C308 1.389 . S
C307 H286 0.950 . S
C307 C306 1.373 . S
C307 C323 1.377 . S
C308 C306 1.389 . S
C308 C309 1.524 . S
C308 C322 1.377 . S
C309 C308 1.524 . S
C309 C310 1.397 . S
C309 C314 1.363 . S
C310 H287 0.950 . S
C310 C309 1.397 . S
C310 C311 1.334 . S
C311 H288 0.950 . S
C311 C310 1.334 . S
C311 C312 1.287 . S
C312 C311 1.287 . S
C312 C313 1.524 . S
C312 H331 0.913 . S
C313 H289 0.950 . S
C313 C312 1.524 . S
C313 C314 1.415 . S
C314 H290 0.950 . S
C314 C309 1.363 . S
C314 C313 1.415 . S
C315 H291 0.951 . S
C315 C316 1.366 . S
C315 C317 1.388 . S
C316 C315 1.366 . S
C316 C320 1.385 . S
C317 H292 0.951 . S
C317 C315 1.388 . S
C317 C318 1.366 . S
C318 C317 1.366 . S
C318 C319 1.414 . S
C318 C321 1.499 . S
C319 H293 0.950 . S
C319 C318 1.414 . S
C319 C320 1.374 . S
C320 H294 0.950 . S
C320 C316 1.385 . S
C320 C319 1.374 . S
C321 C318 1.499 . S
C321 C322 1.373 . S
C321 C323 1.389 . S
C322 H295 0.950 . S
C322 C308 1.377 . S
C322 C321 1.373 . S
C323 C307 1.377 . S
C323 C321 1.389 . S
C323 C324 1.524 . S
C324 C323 1.524 . S
C324 C325 1.397 . S
C324 C329 1.363 . S
C325 H296 0.950 . S
C325 C324 1.397 . S
C325 C326 1.334 . S
C326 H297 0.950 . S
C326 C325 1.334 . S
C326 C327 1.287 . S
C327 C326 1.287 . S
C327 C328 1.524 . S
C327 H330 0.999 . S
C328 H298 0.950 . S
C328 C327 1.524 . S
C328 C329 1.415 . S
C329 H299 0.950 . S
C329 C324 1.363 . S
C329 C328 1.415 . S
H330 C327 0.999 . S
H331 C312 0.913 . S
H332 C350 0.951 . S
H333 C352 0.951 . S
H334 C354 0.950 . S
H335 C355 0.950 . S
H336 C357 0.950 . S
H337 C360 0.950 . S
H338 C361 0.950 . S
H339 C363 0.950 . S
H340 C364 0.950 . S
H341 C365 0.951 . S
H342 C367 0.951 . S
H343 C369 0.950 . S
H344 C370 0.950 . S
H345 C372 0.950 . S
H346 C375 0.950 . S
H347 C376 0.950 . S
H348 C378 0.950 . S
H349 C379 0.950 . S
C350 H332 0.951 . S
C350 C351 1.366 . S
C350 C352 1.388 . S
C351 C350 1.366 . S
C351 C355 1.385 . S
C352 H333 0.951 . S
C352 C350 1.388 . S
C352 C353 1.366 . S
C353 C352 1.366 . S
C353 C354 1.414 . S
C353 C356 1.499 . S
C354 H334 0.950 . S
C354 C353 1.414 . S
C354 C355 1.374 . S
C355 H335 0.950 . S
C355 C351 1.385 . S
C355 C354 1.374 . S
C356 C353 1.499 . S
C356 C357 1.373 . S
C356 C358 1.389 . S
C357 H336 0.950 . S
C357 C356 1.373 . S
C357 C373 1.377 . S
C358 C356 1.389 . S
C358 C359 1.524 . S
C358 C372 1.377 . S
C359 C358 1.524 . S
C359 C360 1.397 . S
C359 C364 1.363 . S
C360 H337 0.950 . S
C360 C359 1.397 . S
C360 C361 1.334 . S
C361 H338 0.950 . S
C361 C360 1.334 . S
C361 C362 1.287 . S
C362 C361 1.287 . S
C362 C363 1.524 . S
C362 H381 0.913 . S
C363 H339 0.950 . S
C363 C362 1.524 . S
C363 C364 1.415 . S
C364 H340 0.950 . S
C364 C359 1.363 . S
C364 C363 1.415 . S
C365 H341 0.951 . S
C365 C366 1.366 . S
C365 C367 1.388 . S
C366 C365 1.366 . S
C366 C370 1.385 . S
C367 H342 0.951 . S
C367 C365 1.388 . S
C367 C368 1.366 . S
C368 C367 1.366 . S
C368 C369 1.414 . S
C368 C371 1.499 . S
C369 H343 0.950 . S
C369 C368 1.414 . S
C369 C370 1.374 . S
C370 H344 0.950 . S
C370 C366 1.385 . S
C370 C369 1.374 . S
C371 C368 1.499 . S
C371 C372 1.373 . S
C371 C373 1.389 . S
C372 H345 0.950 . S
C372 C358 1.377 . S
C372 C371 1.373 . S
C373 C357 1.377 . S
C373 C371 1.389 . S
C373 C374 1.524 . S
C374 C373 1.524 . S
C374 C375 1.397 . S
C374 C379 1.363 . S
C375 H346 0.950 . S
C375 C374 1.397 . S
C375 C376 1.334 . S
C376 H347 0.950 . S
C376 C375 1.334 . S
C376 C377 1.287 . S
C377 C376 1.287 . S
C377 C378 1.524 . S
C377 H380 0.999 . S
C378 H348 0.950 . S
C378 C377 1.524 . S
C378 C379 1.415 . S
C379 H349 0.950 . S
C379 C374 1.363 . S
C379 C378 1.415 . S
H380 C377 0.999 . S
H381 C362 0.913 . S
H382 C400 0.951 . S
H383 C402 0.951 . S
H384 C404 0.950 . S
H385 C405 0.950 . S
H386 C407 0.950 . S
H387 C410 0.950 . S
H388 C411 0.950 . S
H389 C413 0.950 . S
H390 C414 0.950 . S
H391 C415 0.951 . S
H392 C417 0.951 . S
H393 C419 0.950 . S
H394 C420 0.950 . S
H395 C422 0.950 . S
H396 C425 0.950 . S
H397 C426 0.950 . S
H398 C428 0.950 . S
H399 C429 0.950 . S
C400 H382 0.951 . S
C400 C401 1.366 . S
C400 C402 1.388 . S
C401 C400 1.366 . S
C401 C405 1.385 . S
C402 H383 0.951 . S
C402 C400 1.388 . S
C402 C403 1.366 . S
C403 C402 1.366 . S
C403 C404 1.414 . S
C403 C406 1.499 . S
C404 H384 0.950 . S
C404 C403 1.414 . S
C404 C405 1.374 . S
C405 H385 0.950 . S
C405 C401 1.385 . S
C405 C404 1.374 . S
C406 C403 1.499 . S
C406 C407 1.373 . S
C406 C408 1.389 . S
C407 H386 0.950 . S
C407 C406 1.373 . S
C407 C423 1.377 . S
C408 C406 1.389 . S
C408 C409 1.524 . S
C408 C422 1.377 . S
C409 C408 1.524 . S
C409 C410 1.397 . S
C409 C414 1.363 . S
C410 H387 0.950 . S
C410 C409 1.397 . S
C410 C411 1.334 . S
C411 H388 0.950 . S
C411 C410 1.334 . S
C411 C412 1.287 . S
C412 C411 1.287 . S
C412 C413 1.524 . S
C412 H431 0.913 . S
C413 H389 0.950 . S
C413 C412 1.524 . S
C413 C414 1.415 . S
C414 H390 0.950 . S
C414 C409 1.363 . S
C414 C413 1.415 . S
C415 H391 0.951 . S
C415 C416 1.366 . S
C415 C417 1.388 . S
C416 C415 1.366 . S
C416 C420 1.385 . S
C417 H392 0.951 . S
C417 C415 1.388 . S
C417 C418 1.366 . S
C418 C417 1.366 . S
C418 C419 1.414 . S
C418 C421 1.499 . S
C419 H393 0.950 . S
C419 C418 1.414 . S
C419 C420 1.374 . S
C420 H394 0.950 . S
C420 C416 1.385 . S
C420 C419 1.374 . S
C421 C418 1.499 . S
C421 C422 1.373 . S
C421 C423 1.389 . S
C422 H395 0.950 . S
C422 C408 1.377 . S
C422 C421 1.373 . S
C423 C407 1.377 . S
C423 C421 1.389 . S
C423 C424 1.524 . S
C424 C423 1.524 . S
C424 C425 1.397 . S
C424 C429 1.363 . S
C425 H396 0.950 . S
C425 C424 1.397 . S
C425 C426 1.334 1_655 S
C426 H397 0.950 . S
C426 C425 1.334 1_455 S
C426 C427 1.287 . S
C427 C426 1.287 . S
C427 C428 1.524 1_455 S
C427 H430 0.999 . S
C428 H398 0.950 . S
C428 C427 1.524 1_655 S
C428 C429 1.415 . S
C429 H399 0.950 . S
C429 C424 1.363 . S
C429 C428 1.415 . S
H430 C427 0.999 . S
H431 C412 0.913 . S
H432 C450 0.951 . S
H433 C452 0.951 . S
H434 C454 0.950 . S
H435 C455 0.950 . S
H436 C457 0.950 . S
H437 C460 0.950 . S
H438 C461 0.950 . S
H439 C463 0.950 . S
H440 C464 0.950 . S
H441 C465 0.951 . S
H442 C467 0.951 . S
H443 C469 0.950 . S
H444 C470 0.950 . S
H445 C472 0.950 . S
H446 C475 0.950 . S
H447 C476 0.950 . S
H448 C478 0.950 . S
H449 C479 0.950 . S
C450 H432 0.951 . S
C450 C451 1.366 . S
C450 C452 1.388 . S
C451 C450 1.366 . S
C451 C455 1.385 . S
C452 H433 0.951 . S
C452 C450 1.388 . S
C452 C453 1.366 . S
C453 C452 1.366 . S
C453 C454 1.414 . S
C453 C456 1.499 . S
C454 H434 0.950 . S
C454 C453 1.414 . S
C454 C455 1.374 . S
C455 H435 0.950 . S
C455 C451 1.385 . S
C455 C454 1.374 . S
C456 C453 1.499 . S
C456 C457 1.373 . S
C456 C458 1.389 . S
C457 H436 0.950 . S
C457 C456 1.373 . S
C457 C473 1.377 . S
C458 C456 1.389 . S
C458 C459 1.524 . S
C458 C472 1.377 . S
C459 C458 1.524 . S
C459 C460 1.397 . S
C459 C464 1.363 . S
C460 H437 0.950 . S
C460 C459 1.397 . S
C460 C461 1.334 . S
C461 H438 0.950 . S
C461 C460 1.334 . S
C461 C462 1.287 . S
C462 C461 1.287 . S
C462 C463 1.524 . S
C462 H481 0.913 . S
C463 H439 0.950 . S
C463 C462 1.524 . S
C463 C464 1.415 . S
C464 H440 0.950 . S
C464 C459 1.363 . S
C464 C463 1.415 . S
C465 H441 0.951 . S
C465 C466 1.366 . S
C465 C467 1.388 . S
C466 C465 1.366 . S
C466 C470 1.385 . S
C467 H442 0.951 . S
C467 C465 1.388 . S
C467 C468 1.366 . S
C468 C467 1.366 . S
C468 C469 1.414 . S
C468 C471 1.499 . S
C469 H443 0.950 . S
C469 C468 1.414 . S
C469 C470 1.374 . S
C470 H444 0.950 . S
C470 C466 1.385 . S
C470 C469 1.374 . S
C471 C468 1.499 . S
C471 C472 1.373 . S
C471 C473 1.389 . S
C472 H445 0.950 . S
C472 C458 1.377 . S
C472 C471 1.373 . S
C473 C457 1.377 . S
C473 C471 1.389 . S
C473 C474 1.524 . S
C474 C473 1.524 . S
C474 C475 1.397 . S
C474 C479 1.363 . S
C475 H446 0.950 . S
C475 C474 1.397 . S
C475 C476 1.334 . S
C476 H447 0.950 . S
C476 C475 1.334 . S
C476 C477 1.287 . S
C477 C476 1.287 . S
C477 C478 1.524 . S
C477 H480 0.999 . S
C478 H448 0.950 . S
C478 C477 1.524 . S
C478 C479 1.415 . S
C479 H449 0.950 . S
C479 C474 1.363 . S
C479 C478 1.415 . S
H480 C477 0.999 . S
H481 C462 0.913 . S
H482 C500 0.951 . S
H483 C502 0.951 . S
H484 C504 0.950 . S
H485 C505 0.950 . S
H486 C507 0.950 . S
H487 C510 0.950 . S
H488 C511 0.950 . S
H489 C513 0.950 . S
H490 C514 0.950 . S
H491 C515 0.951 . S
H492 C517 0.951 . S
H493 C519 0.950 . S
H494 C520 0.950 1_655 S
H495 C522 0.950 . S
H496 C525 0.950 . S
H497 C526 0.950 . S
H498 C528 0.950 . S
H499 C529 0.950 . S
C500 H482 0.951 . S
C500 C501 1.366 . S
C500 C502 1.388 . S
C501 C500 1.366 . S
C501 C505 1.385 . S
C502 H483 0.951 . S
C502 C500 1.388 . S
C502 C503 1.366 . S
C503 C502 1.366 . S
C503 C504 1.414 . S
C503 C506 1.499 . S
C504 H484 0.950 . S
C504 C503 1.414 . S
C504 C505 1.374 . S
C505 H485 0.950 . S
C505 C501 1.385 . S
C505 C504 1.374 . S
C506 C503 1.499 . S
C506 C507 1.373 . S
C506 C508 1.389 . S
C507 H486 0.950 . S
C507 C506 1.373 . S
C507 C523 1.377 . S
C508 C506 1.389 . S
C508 C509 1.524 . S
C508 C522 1.377 . S
C509 C508 1.524 . S
C509 C510 1.397 . S
C509 C514 1.363 . S
C510 H487 0.950 . S
C510 C509 1.397 . S
C510 C511 1.334 . S
C511 H488 0.950 . S
C511 C510 1.334 . S
C511 C512 1.287 . S
C512 C511 1.287 . S
C512 C513 1.524 . S
C512 H531 0.913 . S
C513 H489 0.950 . S
C513 C512 1.524 . S
C513 C514 1.415 . S
C514 H490 0.950 . S
C514 C509 1.363 . S
C514 C513 1.415 . S
C515 H491 0.951 . S
C515 C516 1.366 . S
C515 C517 1.388 . S
C516 C515 1.366 . S
C516 C520 1.385 . S
C517 H492 0.951 . S
C517 C515 1.388 . S
C517 C518 1.366 . S
C518 C517 1.366 . S
C518 C519 1.414 . S
C518 C521 1.499 . S
C519 H493 0.950 . S
C519 C518 1.414 . S
C519 C520 1.374 . S
C520 H494 0.950 1_455 S
C520 C516 1.385 . S
C520 C519 1.374 . S
C521 C518 1.499 . S
C521 C522 1.373 . S
C521 C523 1.389 . S
C522 H495 0.950 . S
C522 C508 1.377 . S
C522 C521 1.373 . S
C523 C507 1.377 . S
C523 C521 1.389 . S
C523 C524 1.524 . S
C524 C523 1.524 . S
C524 C525 1.397 . S
C524 C529 1.363 . S
C525 H496 0.950 . S
C525 C524 1.397 . S
C525 C526 1.334 . S
C526 H497 0.950 . S
C526 C525 1.334 . S
C526 C527 1.287 . S
C527 C526 1.287 . S
C527 C528 1.524 . S
C527 H530 0.999 . S
C528 H498 0.950 . S
C528 C527 1.524 . S
C528 C529 1.415 . S
C529 H499 0.950 . S
C529 C524 1.363 . S
C529 C528 1.415 . S
H530 C527 0.999 . S
H531 C512 0.913 . S
H532 C550 0.951 . S
H533 C552 0.951 . S
H534 C554 0.950 . S
H535 C555 0.950 . S
H536 C557 0.950 . S
H537 C560 0.950 . S
H538 C561 0.950 . S
H539 C563 0.950 . S
H540 C564 0.950 . S
H541 C565 0.951 . S
H542 C567 0.951 . S
H543 C569 0.950 . S
H544 C570 0.950 . S
H545 C572 0.950 . S
H546 C575 0.950 . S
H547 C576 0.950 . S
H548 C578 0.950 . S
H549 C579 0.950 . S
C550 H532 0.951 . S
C550 C551 1.366 . S
C550 C552 1.388 . S
C551 C550 1.366 . S
C551 C555 1.385 . S
C552 H533 0.951 . S
C552 C550 1.388 . S
C552 C553 1.366 . S
C553 C552 1.366 . S
C553 C554 1.414 . S
C553 C556 1.499 . S
C554 H534 0.950 . S
C554 C553 1.414 . S
C554 C555 1.374 . S
C555 H535 0.950 . S
C555 C551 1.385 . S
C555 C554 1.374 . S
C556 C553 1.499 . S
C556 C557 1.373 . S
C556 C558 1.389 . S
C557 H536 0.950 . S
C557 C556 1.373 . S
C557 C573 1.377 . S
C558 C556 1.389 . S
C558 C559 1.524 . S
C558 C572 1.377 . S
C559 C558 1.524 . S
C559 C560 1.397 . S
C559 C564 1.363 . S
C560 H537 0.950 . S
C560 C559 1.397 . S
C560 C561 1.334 . S
C561 H538 0.950 . S
C561 C560 1.334 . S
C561 C562 1.287 . S
C562 C561 1.287 . S
C562 C563 1.524 . S
C562 H581 0.913 . S
C563 H539 0.950 . S
C563 C562 1.524 . S
C563 C564 1.415 . S
C564 H540 0.950 . S
C564 C559 1.363 . S
C564 C563 1.415 . S
C565 H541 0.951 . S
C565 C566 1.366 . S
C565 C567 1.388 . S
C566 C565 1.366 . S
C566 C570 1.385 . S
C567 H542 0.951 . S
C567 C565 1.388 . S
C567 C568 1.366 . S
C568 C567 1.366 . S
C568 C569 1.414 . S
C568 C571 1.499 . S
C569 H543 0.950 . S
C569 C568 1.414 . S
C569 C570 1.374 . S
C570 H544 0.950 . S
C570 C566 1.385 . S
C570 C569 1.374 . S
C571 C568 1.499 . S
C571 C572 1.373 . S
C571 C573 1.389 . S
C572 H545 0.950 . S
C572 C558 1.377 . S
C572 C571 1.373 . S
C573 C557 1.377 . S
C573 C571 1.389 . S
C573 C574 1.524 . S
C574 C573 1.524 . S
C574 C575 1.397 . S
C574 C579 1.363 . S
C575 H546 0.950 . S
C575 C574 1.397 . S
C575 C576 1.334 . S
C576 H547 0.950 . S
C576 C575 1.334 . S
C576 C577 1.287 . S
C577 C576 1.287 . S
C577 C578 1.524 . S
C577 H580 0.999 . S
C578 H548 0.950 . S
C578 C577 1.524 . S
C578 C579 1.415 . S
C579 H549 0.950 . S
C579 C574 1.363 . S
C579 C578 1.415 . S
H580 C577 0.999 . S
H581 C562 0.913 . S
H582 C600 0.951 . S
H583 C602 0.951 . S
H584 C604 0.950 . S
H585 C605 0.950 . S
H586 C607 0.950 . S
H587 C610 0.950 . S
H588 C611 0.950 . S
H589 C613 0.950 . S
H590 C614 0.950 . S
H591 C615 0.951 . S
H592 C617 0.951 . S
H593 C619 0.950 . S
H594 C620 0.950 . S
H595 C622 0.950 . S
H596 C625 0.950 . S
H597 C626 0.950 . S
H598 C628 0.950 . S
H599 C629 0.950 . S
C600 H582 0.951 . S
C600 C601 1.366 . S
C600 C602 1.388 . S
C601 C600 1.366 . S
C601 C605 1.385 . S
C602 H583 0.951 . S
C602 C600 1.388 . S
C602 C603 1.366 . S
C603 C602 1.366 . S
C603 C604 1.414 . S
C603 C606 1.499 . S
C604 H584 0.950 . S
C604 C603 1.414 . S
C604 C605 1.374 . S
C605 H585 0.950 . S
C605 C601 1.385 . S
C605 C604 1.374 . S
C606 C603 1.499 . S
C606 C607 1.373 . S
C606 C608 1.389 . S
C607 H586 0.950 . S
C607 C606 1.373 . S
C607 C623 1.377 . S
C608 C606 1.389 . S
C608 C609 1.524 . S
C608 C622 1.377 . S
C609 C608 1.524 . S
C609 C610 1.397 . S
C609 C614 1.363 . S
C610 H587 0.950 . S
C610 C609 1.397 . S
C610 C611 1.334 . S
C611 H588 0.950 . S
C611 C610 1.334 . S
C611 C612 1.287 . S
C612 C611 1.287 . S
C612 C613 1.524 . S
C612 H631 0.913 . S
C613 H589 0.950 . S
C613 C612 1.524 . S
C613 C614 1.415 . S
C614 H590 0.950 . S
C614 C609 1.363 . S
C614 C613 1.415 . S
C615 H591 0.951 . S
C615 C616 1.366 . S
C615 C617 1.388 . S
C616 C615 1.366 . S
C616 C620 1.385 . S
C617 H592 0.951 . S
C617 C615 1.388 . S
C617 C618 1.366 . S
C618 C617 1.366 . S
C618 C619 1.414 . S
C618 C621 1.499 . S
C619 H593 0.950 . S
C619 C618 1.414 . S
C619 C620 1.374 . S
C620 H594 0.950 . S
C620 C616 1.385 . S
C620 C619 1.374 . S
C621 C618 1.499 . S
C621 C622 1.373 . S
C621 C623 1.389 . S
C622 H595 0.950 . S
C622 C608 1.377 . S
C622 C621 1.373 . S
C623 C607 1.377 . S
C623 C621 1.389 . S
C623 C624 1.524 . S
C624 C623 1.524 . S
C624 C625 1.397 . S
C624 C629 1.363 . S
C625 H596 0.950 . S
C625 C624 1.397 . S
C625 C626 1.334 . S
C626 H597 0.950 . S
C626 C625 1.334 . S
C626 C627 1.287 . S
C627 C626 1.287 . S
C627 C628 1.524 . S
C627 H630 0.999 . S
C628 H598 0.950 . S
C628 C627 1.524 . S
C628 C629 1.415 . S
C629 H599 0.950 . S
C629 C624 1.363 . S
C629 C628 1.415 . S
H630 C627 0.999 . S
H631 C612 0.913 . S
H632 C650 0.951 . S
H633 C652 0.951 . S
H634 C654 0.950 . S
H635 C655 0.950 . S
H636 C657 0.950 . S
H637 C660 0.950 . S
H638 C661 0.950 . S
H639 C663 0.950 . S
H640 C664 0.950 . S
H641 C665 0.951 . S
H642 C667 0.951 . S
H643 C669 0.950 . S
H644 C670 0.950 . S
H645 C672 0.950 . S
H646 C675 0.950 . S
H647 C676 0.950 . S
H648 C678 0.950 . S
H649 C679 0.950 . S
C650 H632 0.951 . S
C650 C651 1.366 . S
C650 C652 1.388 . S
C651 C650 1.366 . S
C651 C655 1.385 . S
C652 H633 0.951 . S
C652 C650 1.388 . S
C652 C653 1.366 . S
C653 C652 1.366 . S
C653 C654 1.414 . S
C653 C656 1.499 . S
C654 H634 0.950 . S
C654 C653 1.414 . S
C654 C655 1.374 . S
C655 H635 0.950 . S
C655 C651 1.385 . S
C655 C654 1.374 . S
C656 C653 1.499 . S
C656 C657 1.373 . S
C656 C658 1.389 . S
C657 H636 0.950 . S
C657 C656 1.373 . S
C657 C673 1.377 . S
C658 C656 1.389 . S
C658 C659 1.524 . S
C658 C672 1.377 . S
C659 C658 1.524 . S
C659 C660 1.397 . S
C659 C664 1.363 . S
C660 H637 0.950 . S
C660 C659 1.397 . S
C660 C661 1.334 . S
C661 H638 0.950 . S
C661 C660 1.334 . S
C661 C662 1.287 . S
C662 C661 1.287 . S
C662 C663 1.524 . S
C662 H681 0.913 . S
C663 H639 0.950 . S
C663 C662 1.524 . S
C663 C664 1.415 . S
C664 H640 0.950 . S
C664 C659 1.363 . S
C664 C663 1.415 . S
C665 H641 0.951 . S
C665 C666 1.366 . S
C665 C667 1.388 . S
C666 C665 1.366 . S
C666 C670 1.385 . S
C667 H642 0.951 . S
C667 C665 1.388 . S
C667 C668 1.366 . S
C668 C667 1.366 . S
C668 C669 1.414 . S
C668 C671 1.499 . S
C669 H643 0.950 . S
C669 C668 1.414 . S
C669 C670 1.374 . S
C670 H644 0.950 . S
C670 C666 1.385 . S
C670 C669 1.374 . S
C671 C668 1.499 . S
C671 C672 1.373 . S
C671 C673 1.389 . S
C672 H645 0.950 . S
C672 C658 1.377 . S
C672 C671 1.373 . S
C673 C657 1.377 . S
C673 C671 1.389 . S
C673 C674 1.524 . S
C674 C673 1.524 . S
C674 C675 1.397 . S
C674 C679 1.363 . S
C675 H646 0.950 . S
C675 C674 1.397 . S
C675 C676 1.334 . S
C676 H647 0.950 . S
C676 C675 1.334 . S
C676 C677 1.287 . S
C677 C676 1.287 . S
C677 C678 1.524 . S
C677 H680 0.999 . S
C678 H648 0.950 . S
C678 C677 1.524 . S
C678 C679 1.415 . S
C679 H649 0.950 . S
C679 C674 1.363 . S
C679 C678 1.415 . S
H680 C677 0.999 . S
H681 C662 0.913 . S
H682 C700 0.951 . S
H683 C702 0.951 . S
H684 C704 0.950 . S
H685 C705 0.950 . S
H686 C707 0.950 . S
H687 C710 0.950 . S
H688 C711 0.950 . S
H689 C713 0.950 . S
H690 C714 0.950 . S
H691 C715 0.951 . S
H692 C717 0.951 . S
H693 C719 0.950 . S
H694 C720 0.950 . S
H695 C722 0.950 . S
H696 C725 0.950 . S
H697 C726 0.950 . S
H698 C728 0.950 . S
H699 C729 0.950 . S
C700 H682 0.951 . S
C700 C701 1.366 . S
C700 C702 1.388 . S
C701 C700 1.366 . S
C701 C705 1.385 . S
C702 H683 0.951 . S
C702 C700 1.388 . S
C702 C703 1.366 . S
C703 C702 1.366 . S
C703 C704 1.414 . S
C703 C706 1.499 . S
C704 H684 0.950 . S
C704 C703 1.414 . S
C704 C705 1.374 . S
C705 H685 0.950 . S
C705 C701 1.385 . S
C705 C704 1.374 . S
C706 C703 1.499 . S
C706 C707 1.373 . S
C706 C708 1.389 . S
C707 H686 0.950 . S
C707 C706 1.373 . S
C707 C723 1.377 . S
C708 C706 1.389 . S
C708 C709 1.524 . S
C708 C722 1.377 . S
C709 C708 1.524 . S
C709 C710 1.397 . S
C709 C714 1.363 . S
C710 H687 0.950 . S
C710 C709 1.397 . S
C710 C711 1.334 . S
C711 H688 0.950 . S
C711 C710 1.334 . S
C711 C712 1.287 . S
C712 C711 1.287 . S
C712 C713 1.524 . S
C712 H731 0.913 . S
C713 H689 0.950 . S
C713 C712 1.524 . S
C713 C714 1.415 . S
C714 H690 0.950 . S
C714 C709 1.363 . S
C714 C713 1.415 . S
C715 H691 0.951 . S
C715 C716 1.366 . S
C715 C717 1.388 . S
C716 C715 1.366 . S
C716 C720 1.385 . S
C717 H692 0.951 . S
C717 C715 1.388 . S
C717 C718 1.366 . S
C718 C717 1.366 . S
C718 C719 1.414 . S
C718 C721 1.499 . S
C719 H693 0.950 . S
C719 C718 1.414 . S
C719 C720 1.374 . S
C720 H694 0.950 . S
C720 C716 1.385 . S
C720 C719 1.374 . S
C721 C718 1.499 . S
C721 C722 1.373 . S
C721 C723 1.389 . S
C722 H695 0.950 . S
C722 C708 1.377 . S
C722 C721 1.373 . S
C723 C707 1.377 . S
C723 C721 1.389 . S
C723 C724 1.524 . S
C724 C723 1.524 . S
C724 C725 1.397 . S
C724 C729 1.363 . S
C725 H696 0.950 . S
C725 C724 1.397 . S
C725 C726 1.334 . S
C726 H697 0.950 . S
C726 C725 1.334 . S
C726 C727 1.287 . S
C727 C726 1.287 . S
C727 C728 1.524 . S
C727 H730 0.999 . S
C728 H698 0.950 . S
C728 C727 1.524 . S
C728 C729 1.415 . S
C729 H699 0.950 . S
C729 C724 1.363 . S
C729 C728 1.415 . S
H730 C727 0.999 . S
H731 C712 0.913 . S
H732 C750 0.951 . S
H733 C752 0.951 . S
H734 C754 0.950 . S
H735 C755 0.950 . S
H736 C757 0.950 . S
H737 C760 0.950 . S
H738 C761 0.950 . S
H739 C763 0.950 . S
H740 C764 0.950 . S
H741 C765 0.951 . S
H742 C767 0.951 . S
H743 C769 0.950 . S
H744 C770 0.950 . S
H745 C772 0.950 . S
H746 C775 0.950 . S
H747 C776 0.950 . S
H748 C778 0.950 . S
H749 C779 0.950 . S
C750 H732 0.951 . S
C750 C751 1.366 . S
C750 C752 1.388 . S
C751 C750 1.366 . S
C751 C755 1.385 . S
C752 H733 0.951 . S
C752 C750 1.388 . S
C752 C753 1.366 . S
C753 C752 1.366 . S
C753 C754 1.414 . S
C753 C756 1.499 . S
C754 H734 0.950 . S
C754 C753 1.414 . S
C754 C755 1.374 . S
C755 H735 0.950 . S
C755 C751 1.385 . S
C755 C754 1.374 . S
C756 C753 1.499 . S
C756 C757 1.373 . S
C756 C758 1.389 . S
C757 H736 0.950 . S
C757 C756 1.373 . S
C757 C773 1.377 . S
C758 C756 1.389 . S
C758 C759 1.524 . S
C758 C772 1.377 . S
C759 C758 1.524 . S
C759 C760 1.397 . S
C759 C764 1.363 . S
C760 H737 0.950 . S
C760 C759 1.397 . S
C760 C761 1.334 . S
C761 H738 0.950 . S
C761 C760 1.334 . S
C761 C762 1.287 . S
C762 C761 1.287 . S
C762 C763 1.524 . S
C762 H781 0.913 . S
C763 H739 0.950 . S
C763 C762 1.524 . S
C763 C764 1.415 . S
C764 H740 0.950 . S
C764 C759 1.363 . S
C764 C763 1.415 . S
C765 H741 0.951 . S
C765 C766 1.366 . S
C765 C767 1.388 . S
C766 C765 1.366 . S
C766 C770 1.385 . S
C767 H742 0.951 . S
C767 C765 1.388 . S
C767 C768 1.366 . S
C768 C767 1.366 . S
C768 C769 1.414 . S
C768 C771 1.499 . S
C769 H743 0.950 . S
C769 C768 1.414 . S
C769 C770 1.374 . S
C770 H744 0.950 . S
C770 C766 1.385 . S
C770 C769 1.374 . S
C771 C768 1.499 . S
C771 C772 1.373 . S
C771 C773 1.389 . S
C772 H745 0.950 . S
C772 C758 1.377 . S
C772 C771 1.373 . S
C773 C757 1.377 . S
C773 C771 1.389 . S
C773 C774 1.524 . S
C774 C773 1.524 . S
C774 C775 1.397 . S
C774 C779 1.363 . S
C775 H746 0.950 . S
C775 C774 1.397 . S
C775 C776 1.334 . S
C776 H747 0.950 . S
C776 C775 1.334 . S
C776 C777 1.287 . S
C777 C776 1.287 . S
C777 C778 1.524 . S
C777 H780 0.999 . S
C778 H748 0.950 . S
C778 C777 1.524 . S
C778 C779 1.415 . S
C779 H749 0.950 . S
C779 C774 1.363 . S
C779 C778 1.415 . S
H780 C777 0.999 . S
H781 C762 0.913 . S
H782 C800 0.951 . S
H783 C802 0.951 . S
H784 C804 0.950 . S
H785 C805 0.950 . S
H786 C807 0.950 . S
H787 C810 0.950 . S
H788 C811 0.950 . S
H789 C813 0.950 . S
H790 C814 0.950 . S
H791 C815 0.951 . S
H792 C817 0.951 . S
H793 C819 0.950 . S
H794 C820 0.950 . S
H795 C822 0.950 . S
H796 C825 0.950 . S
H797 C826 0.950 . S
H798 C828 0.950 . S
H799 C829 0.950 . S
C800 H782 0.951 . S
C800 C801 1.366 . S
C800 C802 1.388 . S
C801 C800 1.366 . S
C801 C805 1.385 . S
C802 H783 0.951 . S
C802 C800 1.388 . S
C802 C803 1.366 . S
C803 C802 1.366 . S
C803 C804 1.414 . S
C803 C806 1.499 . S
C804 H784 0.950 . S
C804 C803 1.414 . S
C804 C805 1.374 . S
C805 H785 0.950 . S
C805 C801 1.385 . S
C805 C804 1.374 . S
C806 C803 1.499 . S
C806 C807 1.373 . S
C806 C808 1.389 . S
C807 H786 0.950 . S
C807 C806 1.373 . S
C807 C823 1.377 . S
C808 C806 1.389 . S
C808 C809 1.524 . S
C808 C822 1.377 . S
C809 C808 1.524 . S
C809 C810 1.397 . S
C809 C814 1.363 . S
C810 H787 0.950 . S
C810 C809 1.397 . S
C810 C811 1.334 . S
C811 H788 0.950 . S
C811 C810 1.334 . S
C811 C812 1.287 . S
C812 C811 1.287 . S
C812 C813 1.524 . S
C812 H831 0.913 . S
C813 H789 0.950 . S
C813 C812 1.524 . S
C813 C814 1.415 . S
C814 H790 0.950 . S
C814 C809 1.363 . S
C814 C813 1.415 . S
C815 H791 0.951 . S
C815 C816 1.366 . S
C815 C817 1.388 . S
C816 C815 1.366 . S
C816 C820 1.385 . S
C817 H792 0.951 . S
C817 C815 1.388 . S
C817 C818 1.366 . S
C818 C817 1.366 . S
C818 C819 1.414 . S
C818 C821 1.499 . S
C819 H793 0.950 . S
C819 C818 1.414 . S
C819 C820 1.374 . S
C820 H794 0.950 . S
C820 C816 1.385 . S
C820 C819 1.374 . S
C821 C818 1.499 . S
C821 C822 1.373 . S
C821 C823 1.389 . S
C822 H795 0.950 . S
C822 C808 1.377 . S
C822 C821 1.373 . S
C823 C807 1.377 . S
C823 C821 1.389 . S
C823 C824 1.524 . S
C824 C823 1.524 . S
C824 C825 1.397 . S
C824 C829 1.363 . S
C825 H796 0.950 . S
C825 C824 1.397 . S
C825 C826 1.334 . S
C826 H797 0.950 . S
C826 C825 1.334 . S
C826 C827 1.287 . S
C827 C826 1.287 . S
C827 C828 1.524 . S
C827 H830 0.999 . S
C828 H798 0.950 . S
C828 C827 1.524 . S
C828 C829 1.415 . S
C829 H799 0.950 . S
C829 C824 1.363 . S
C829 C828 1.415 . S
H830 C827 0.999 . S
H831 C812 0.913 . S
H832 C850 0.951 . S
H833 C852 0.951 . S
H834 C854 0.950 . S
H835 C855 0.950 . S
H836 C857 0.950 . S
H837 C860 0.950 . S
H838 C861 0.950 . S
H839 C863 0.950 . S
H840 C864 0.950 . S
H841 C865 0.951 . S
H842 C867 0.951 . S
H843 C869 0.950 . S
H844 C870 0.950 . S
H845 C872 0.950 . S
H846 C875 0.950 . S
H847 C876 0.950 . S
H848 C878 0.950 . S
H849 C879 0.950 . S
C850 H832 0.951 . S
C850 C851 1.366 . S
C850 C852 1.388 . S
C851 C850 1.366 . S
C851 C855 1.385 . S
C852 H833 0.951 . S
C852 C850 1.388 . S
C852 C853 1.366 . S
C853 C852 1.366 . S
C853 C854 1.414 . S
C853 C856 1.499 . S
C854 H834 0.950 . S
C854 C853 1.414 . S
C854 C855 1.374 . S
C855 H835 0.950 . S
C855 C851 1.385 . S
C855 C854 1.374 . S
C856 C853 1.499 . S
C856 C857 1.373 . S
C856 C858 1.389 . S
C857 H836 0.950 . S
C857 C856 1.373 . S
C857 C873 1.377 . S
C858 C856 1.389 . S
C858 C859 1.524 . S
C858 C872 1.377 . S
C859 C858 1.524 . S
C859 C860 1.397 . S
C859 C864 1.363 . S
C860 H837 0.950 . S
C860 C859 1.397 . S
C860 C861 1.334 . S
C861 H838 0.950 . S
C861 C860 1.334 . S
C861 C862 1.287 . S
C862 C861 1.287 . S
C862 C863 1.524 . S
C862 H881 0.913 . S
C863 H839 0.950 . S
C863 C862 1.524 . S
C863 C864 1.415 . S
C864 H840 0.950 . S
C864 C859 1.363 . S
C864 C863 1.415 . S
C865 H841 0.951 . S
C865 C866 1.366 . S
C865 C867 1.388 . S
C866 C865 1.366 . S
C866 C870 1.385 . S
C867 H842 0.951 . S
C867 C865 1.388 . S
C867 C868 1.366 . S
C868 C867 1.366 . S
C868 C869 1.414 . S
C868 C871 1.499 . S
C869 H843 0.950 . S
C869 C868 1.414 . S
C869 C870 1.374 . S
C870 H844 0.950 . S
C870 C866 1.385 . S
C870 C869 1.374 . S
C871 C868 1.499 . S
C871 C872 1.373 . S
C871 C873 1.389 . S
C872 H845 0.950 . S
C872 C858 1.377 . S
C872 C871 1.373 . S
C873 C857 1.377 . S
C873 C871 1.389 . S
C873 C874 1.524 . S
C874 C873 1.524 . S
C874 C875 1.397 . S
C874 C879 1.363 . S
C875 H846 0.950 . S
C875 C874 1.397 . S
C875 C876 1.334 . S
C876 H847 0.950 . S
C876 C875 1.334 . S
C876 C877 1.287 . S
C877 C876 1.287 . S
C877 C878 1.524 . S
C877 H880 0.999 . S
C878 H848 0.950 . S
C878 C877 1.524 . S
C878 C879 1.415 . S
C879 H849 0.950 . S
C879 C874 1.363 . S
C879 C878 1.415 . S
H880 C877 0.999 . S
H881 C862 0.913 . S
H882 C900 0.951 . S
H883 C902 0.951 . S
H884 C904 0.950 . S
H885 C905 0.950 . S
H886 C907 0.950 . S
H887 C910 0.950 . S
H888 C911 0.950 . S
H889 C913 0.950 . S
H890 C914 0.950 . S
H891 C915 0.951 . S
H892 C917 0.951 . S
H893 C919 0.950 . S
H894 C920 0.950 . S
H895 C922 0.950 . S
H896 C925 0.950 . S
H897 C926 0.950 . S
H898 C928 0.950 . S
H899 C929 0.950 . S
C900 H882 0.951 . S
C900 C901 1.366 . S
C900 C902 1.388 . S
C901 C900 1.366 . S
C901 C905 1.385 . S
C902 H883 0.951 . S
C902 C900 1.388 . S
C902 C903 1.366 . S
C903 C902 1.366 . S
C903 C904 1.414 . S
C903 C906 1.499 . S
C904 H884 0.950 . S
C904 C903 1.414 . S
C904 C905 1.374 . S
C905 H885 0.950 . S
C905 C901 1.385 . S
C905 C904 1.374 . S
C906 C903 1.499 . S
C906 C907 1.373 . S
C906 C908 1.389 . S
C907 H886 0.950 . S
C907 C906 1.373 . S
C907 C923 1.377 . S
C908 C906 1.389 . S
C908 C909 1.524 . S
C908 C922 1.377 . S
C909 C908 1.524 . S
C909 C910 1.397 . S
C909 C914 1.363 . S
C910 H887 0.950 . S
C910 C909 1.397 . S
C910 C911 1.334 . S
C911 H888 0.950 . S
C911 C910 1.334 . S
C911 C912 1.287 . S
C912 C911 1.287 . S
C912 C913 1.524 . S
C912 H931 0.913 . S
C913 H889 0.950 . S
C913 C912 1.524 . S
C913 C914 1.415 . S
C914 H890 0.950 . S
C914 C909 1.363 . S
C914 C913 1.415 . S
C915 H891 0.951 . S
C915 C916 1.366 . S
C915 C917 1.388 . S
C916 C915 1.366 . S
C916 C920 1.385 . S
C917 H892 0.951 . S
C917 C915 1.388 . S
C917 C918 1.366 . S
C918 C917 1.366 . S
C918 C919 1.414 . S
C918 C921 1.499 . S
C919 H893 0.950 . S
C919 C918 1.414 . S
C919 C920 1.374 . S
C920 H894 0.950 . S
C920 C916 1.385 . S
C920 C919 1.374 . S
C921 C918 1.499 . S
C921 C922 1.373 . S
C921 C923 1.389 . S
C922 H895 0.950 . S
C922 C908 1.377 . S
C922 C921 1.373 . S
C923 C907 1.377 . S
C923 C921 1.389 . S
C923 C924 1.524 . S
C924 C923 1.524 . S
C924 C925 1.397 . S
C924 C929 1.363 . S
C925 H896 0.950 . S
C925 C924 1.397 . S
C925 C926 1.334 . S
C926 H897 0.950 . S
C926 C925 1.334 . S
C926 C927 1.287 . S
C927 C926 1.287 . S
C927 C928 1.524 . S
C927 H930 0.999 . S
C928 H898 0.950 . S
C928 C927 1.524 . S
C928 C929 1.415 . S
C929 H899 0.950 . S
C929 C924 1.363 . S
C929 C928 1.415 . S
H930 C927 0.999 . S
H931 C912 0.913 . S
H932 C950 0.951 . S
H933 C952 0.951 . S
H934 C954 0.950 . S
H935 C955 0.950 . S
H936 C957 0.950 . S
H937 C960 0.950 . S
H938 C961 0.950 . S
H939 C963 0.950 . S
H940 C964 0.950 . S
H941 C965 0.951 . S
H942 C967 0.951 . S
H943 C969 0.950 . S
H944 C970 0.950 . S
H945 C972 0.950 . S
H946 C975 0.950 . S
H947 C976 0.950 . S
H948 C978 0.950 . S
H949 C979 0.950 . S
C950 H932 0.951 . S
C950 C951 1.366 . S
C950 C952 1.388 . S
C951 C950 1.366 . S
C951 C955 1.385 . S
C952 H933 0.951 . S
C952 C950 1.388 . S
C952 C953 1.366 . S
C953 C952 1.366 . S
C953 C954 1.414 . S
C953 C956 1.499 . S
C954 H934 0.950 . S
C954 C953 1.414 . S
C954 C955 1.374 . S
C955 H935 0.950 . S
C955 C951 1.385 . S
C955 C954 1.374 . S
C956 C953 1.499 . S
C956 C957 1.373 . S
C956 C958 1.389 . S
C957 H936 0.950 . S
C957 C956 1.373 . S
C957 C973 1.377 . S
C958 C956 1.389 . S
C958 C959 1.524 . S
C958 C972 1.377 . S
C959 C958 1.524 . S
C959 C960 1.397 . S
C959 C964 1.363 . S
C960 H937 0.950 . S
C960 C959 1.397 . S
C960 C961 1.334 . S
C961 H938 0.950 . S
C961 C960 1.334 . S
C961 C962 1.287 . S
C962 C961 1.287 . S
C962 C963 1.524 . S
C962 H981 0.913 . S
C963 H939 0.950 . S
C963 C962 1.524 . S
C963 C964 1.415 . S
C964 H940 0.950 . S
C964 C959 1.363 . S
C964 C963 1.415 . S
C965 H941 0.951 . S
C965 C966 1.366 . S
C965 C967 1.388 . S
C966 C965 1.366 . S
C966 C970 1.385 . S
C967 H942 0.951 . S
C967 C965 1.388 . S
C967 C968 1.366 . S
C968 C967 1.366 . S
C968 C969 1.414 . S
C968 C971 1.499 . S
C969 H943 0.950 . S
C969 C968 1.414 . S
C969 C970 1.374 . S
C970 H944 0.950 . S
C970 C966 1.385 . S
C970 C969 1.374 . S
C971 C968 1.499 . S
C971 C972 1.373 . S
C971 C973 1.389 . S
C972 H945 0.950 . S
C972 C958 1.377 . S
C972 C971 1.373 . S
C973 C957 1.377 . S
C973 C971 1.389 . S
C973 C974 1.524 . S
C974 C973 1.524 . S
C974 C975 1.397 . S
C974 C979 1.363 . S
C975 H946 0.950 . S
C975 C974 1.397 . S
C975 C976 1.334 . S
C976 H947 0.950 . S
C976 C975 1.334 . S
C976 C977 1.287 . S
C977 C976 1.287 . S
C977 C978 1.524 . S
C977 H980 0.999 . S
C978 H948 0.950 . S
C978 C977 1.524 . S
C978 C979 1.415 . S
C979 H949 0.950 . S
C979 C974 1.363 . S
C979 C978 1.415 . S
H980 C977 0.999 . S
H981 C962 0.913 . S
H982 C1000 0.951 . S
H983 C1002 0.951 . S
H984 C1004 0.950 . S
H985 C1005 0.950 . S
H986 C1007 0.950 . S
H987 C1010 0.950 . S
H988 C1011 0.950 . S
H989 C1013 0.950 . S
H990 C1014 0.950 . S
H991 C1015 0.951 . S
H992 C1017 0.951 . S
H993 C1019 0.950 . S
H994 C1020 0.950 . S
H995 C1022 0.950 . S
H996 C1025 0.950 . S
H997 C1026 0.950 . S
H998 C1028 0.950 . S
H999 C1029 0.950 . S
C1000 H982 0.951 . S
C1000 C1001 1.366 . S
C1000 C1002 1.388 . S
C1001 C1000 1.366 . S
C1001 C1005 1.385 . S
C1002 H983 0.951 . S
C1002 C1000 1.388 . S
C1002 C1003 1.366 . S
C1003 C1002 1.366 . S
C1003 C1004 1.414 . S
C1003 C1006 1.499 . S
C1004 H984 0.950 . S
C1004 C1003 1.414 . S
C1004 C1005 1.374 . S
C1005 H985 0.950 . S
C1005 C1001 1.385 . S
C1005 C1004 1.374 . S
C1006 C1003 1.499 . S
C1006 C1007 1.373 . S
C1006 C1008 1.389 . S
C1007 H986 0.950 . S
C1007 C1006 1.373 . S
C1007 C1023 1.377 . S
C1008 C1006 1.389 . S
C1008 C1009 1.524 . S
C1008 C1022 1.377 . S
C1009 C1008 1.524 . S
C1009 C1010 1.397 . S
C1009 C1014 1.363 . S
C1010 H987 0.950 . S
C1010 C1009 1.397 . S
C1010 C1011 1.334 . S
C1011 H988 0.950 . S
C1011 C1010 1.334 . S
C1011 C1012 1.287 . S
C1012 C1011 1.287 . S
C1012 C1013 1.524 . S
C1012 H1031 0.913 . S
C1013 H989 0.950 . S
C1013 C1012 1.524 . S
C1013 C1014 1.415 . S
C1014 H990 0.950 . S
C1014 C1009 1.363 . S
C1014 C1013 1.415 . S
C1015 H991 0.951 . S
C1015 C1016 1.366 . S
C1015 C1017 1.388 . S
C1016 C1015 1.366 . S
C1016 C1020 1.385 . S
C1017 H992 0.951 . S
C1017 C1015 1.388 . S
C1017 C1018 1.366 . S
C1018 C1017 1.366 . S
C1018 C1019 1.414 . S
C1018 C1021 1.499 . S
C1019 H993 0.950 . S
C1019 C1018 1.414 . S
C1019 C1020 1.374 . S
C1020 H994 0.950 . S
C1020 C1016 1.385 . S
C1020 C1019 1.374 . S
C1021 C1018 1.499 . S
C1021 C1022 1.373 . S
C1021 C1023 1.389 . S
C1022 H995 0.950 . S
C1022 C1008 1.377 . S
C1022 C1021 1.373 . S
C1023 C1007 1.377 . S
C1023 C1021 1.389 . S
C1023 C1024 1.524 . S
C1024 C1023 1.524 . S
C1024 C1025 1.397 . S
C1024 C1029 1.363 . S
C1025 H996 0.950 . S
C1025 C1024 1.397 . S
C1025 C1026 1.334 1_455 S
C1026 H997 0.950 . S
C1026 C1025 1.334 1_655 S
C1026 C1027 1.287 . S
C1027 C1026 1.287 . S
C1027 C1028 1.524 1_655 S
C1027 H1030 0.999 . S
C1028 H998 0.950 . S
C1028 C1027 1.524 1_455 S
C1028 C1029 1.415 . S
C1029 H999 0.950 . S
C1029 C1024 1.363 . S
C1029 C1028 1.415 . S
H1030 C1027 0.999 . S
H1031 C1012 0.913 . S
H1032 C1050 0.951 . S
H1033 C1052 0.951 . S
H1034 C1054 0.950 . S
H1035 C1055 0.950 . S
H1036 C1057 0.950 . S
H1037 C1060 0.950 . S
H1038 C1061 0.950 . S
H1039 C1063 0.950 . S
H1040 C1064 0.950 . S
H1041 C1065 0.951 . S
H1042 C1067 0.951 . S
H1043 C1069 0.950 . S
H1044 C1070 0.950 . S
H1045 C1072 0.950 . S
H1046 C1075 0.950 . S
H1047 C1076 0.950 1_554 S
H1048 C1078 0.950 . S
H1049 C1079 0.950 . S
C1050 H1032 0.951 . S
C1050 C1051 1.366 . S
C1050 C1052 1.388 . S
C1051 C1050 1.366 . S
C1051 C1055 1.385 . S
C1052 H1033 0.951 . S
C1052 C1050 1.388 . S
C1052 C1053 1.366 . S
C1053 C1052 1.366 . S
C1053 C1054 1.414 . S
C1053 C1056 1.499 . S
C1054 H1034 0.950 . S
C1054 C1053 1.414 . S
C1054 C1055 1.374 . S
C1055 H1035 0.950 . S
C1055 C1051 1.385 . S
C1055 C1054 1.374 . S
C1056 C1053 1.499 . S
C1056 C1057 1.373 . S
C1056 C1058 1.389 . S
C1057 H1036 0.950 . S
C1057 C1056 1.373 . S
C1057 C1073 1.377 . S
C1058 C1056 1.389 . S
C1058 C1059 1.524 . S
C1058 C1072 1.377 . S
C1059 C1058 1.524 . S
C1059 C1060 1.397 . S
C1059 C1064 1.363 . S
C1060 H1037 0.950 . S
C1060 C1059 1.397 . S
C1060 C1061 1.334 . S
C1061 H1038 0.950 . S
C1061 C1060 1.334 . S
C1061 C1062 1.287 . S
C1062 C1061 1.287 . S
C1062 C1063 1.524 . S
C1062 H1081 0.913 . S
C1063 H1039 0.950 . S
C1063 C1062 1.524 . S
C1063 C1064 1.415 . S
C1064 H1040 0.950 . S
C1064 C1059 1.363 . S
C1064 C1063 1.415 . S
C1065 H1041 0.951 . S
C1065 C1066 1.366 . S
C1065 C1067 1.388 . S
C1066 C1065 1.366 . S
C1066 C1070 1.385 . S
C1067 H1042 0.951 . S
C1067 C1065 1.388 . S
C1067 C1068 1.366 . S
C1068 C1067 1.366 . S
C1068 C1069 1.414 . S
C1068 C1071 1.499 . S
C1069 H1043 0.950 . S
C1069 C1068 1.414 . S
C1069 C1070 1.374 . S
C1070 H1044 0.950 . S
C1070 C1066 1.385 . S
C1070 C1069 1.374 . S
C1071 C1068 1.499 . S
C1071 C1072 1.373 . S
C1071 C1073 1.389 . S
C1072 H1045 0.950 . S
C1072 C1058 1.377 . S
C1072 C1071 1.373 . S
C1073 C1057 1.377 . S
C1073 C1071 1.389 . S
C1073 C1074 1.524 . S
C1074 C1073 1.524 . S
C1074 C1075 1.397 . S
C1074 C1079 1.363 . S
C1075 H1046 0.950 . S
C1075 C1074 1.397 . S
C1075 C1076 1.334 . S
C1076 H1047 0.950 1_556 S
C1076 C1075 1.334 . S
C1076 C1077 1.287 1_556 S
C1077 C1076 1.287 1_554 S
C1077 C1078 1.524 . S
C1077 H1080 0.999 . S
C1078 H1048 0.950 . S
C1078 C1077 1.524 . S
C1078 C1079 1.415 1_554 S
C1079 H1049 0.950 . S
C1079 C1074 1.363 . S
C1079 C1078 1.415 1_556 S
H1080 C1077 0.999 . S
H1081 C1062 0.913 . S
H1082 C1100 0.951 . S
H1083 C1102 0.951 . S
H1084 C1104 0.950 . S
H1085 C1105 0.950 . S
H1086 C1107 0.950 . S
H1087 C1110 0.950 . S
H1088 C1111 0.950 . S
H1089 C1113 0.950 . S
H1090 C1114 0.950 . S
H1091 C1115 0.951 . S
H1092 C1117 0.951 . S
H1093 C1119 0.950 . S
H1094 C1120 0.950 . S
H1095 C1122 0.950 . S
H1096 C1125 0.950 . S
H1097 C1126 0.950 . S
H1098 C1128 0.950 . S
H1099 C1129 0.950 . S
C1100 H1082 0.951 . S
C1100 C1101 1.366 . S
C1100 C1102 1.388 . S
C1101 C1100 1.366 . S
C1101 C1105 1.385 . S
C1102 H1083 0.951 . S
C1102 C1100 1.388 . S
C1102 C1103 1.366 . S
C1103 C1102 1.366 . S
C1103 C1104 1.414 . S
C1103 C1106 1.499 . S
C1104 H1084 0.950 . S
C1104 C1103 1.414 . S
C1104 C1105 1.374 . S
C1105 H1085 0.950 . S
C1105 C1101 1.385 . S
C1105 C1104 1.374 . S
C1106 C1103 1.499 . S
C1106 C1107 1.373 . S
C1106 C1108 1.389 . S
C1107 H1086 0.950 . S
C1107 C1106 1.373 . S
C1107 C1123 1.377 . S
C1108 C1106 1.389 . S
C1108 C1109 1.524 . S
C1108 C1122 1.377 . S
C1109 C1108 1.524 . S
C1109 C1110 1.397 . S
C1109 C1114 1.363 . S
C1110 H1087 0.950 . S
C1110 C1109 1.397 . S
C1110 C1111 1.334 . S
C1111 H1088 0.950 . S
C1111 C1110 1.334 . S
C1111 C1112 1.287 . S
C1112 C1111 1.287 . S
C1112 C1113 1.524 . S
C1112 H1131 0.913 . S
C1113 H1089 0.950 . S
C1113 C1112 1.524 . S
C1113 C1114 1.415 . S
C1114 H1090 0.950 . S
C1114 C1109 1.363 . S
C1114 C1113 1.415 . S
C1115 H1091 0.951 . S
C1115 C1116 1.366 . S
C1115 C1117 1.388 . S
C1116 C1115 1.366 . S
C1116 C1120 1.385 . S
C1117 H1092 0.951 . S
C1117 C1115 1.388 . S
C1117 C1118 1.366 . S
C1118 C1117 1.366 . S
C1118 C1119 1.414 . S
C1118 C1121 1.499 . S
C1119 H1093 0.950 . S
C1119 C1118 1.414 . S
C1119 C1120 1.374 . S
C1120 H1094 0.950 . S
C1120 C1116 1.385 . S
C1120 C1119 1.374 . S
C1121 C1118 1.499 . S
C1121 C1122 1.373 . S
C1121 C1123 1.389 . S
C1122 H1095 0.950 . S
C1122 C1108 1.377 . S
C1122 C1121 1.373 . S
C1123 C1107 1.377 . S
C1123 C1121 1.389 . S
C1123 C1124 1.524 . S
C1124 C1123 1.524 . S
C1124 C1125 1.397 . S
C1124 C1129 1.363 . S
C1125 H1096 0.950 . S
C1125 C1124 1.397 . S
C1125 C1126 1.334 . S
C1126 H1097 0.950 . S
C1126 C1125 1.334 . S
C1126 C1127 1.287 . S
C1127 C1126 1.287 . S
C1127 C1128 1.524 . S
C1127 H1130 0.999 . S
C1128 H1098 0.950 . S
C1128 C1127 1.524 . S
C1128 C1129 1.415 . S
C1129 H1099 0.950 . S
C1129 C1124 1.363 . S
C1129 C1128 1.415 . S
H1130 C1127 0.999 . S
H1131 C1112 0.913 . S
H1132 C1150 0.951 . S
H1133 C1152 0.951 . S
H1134 C1154 0.950 . S
H1135 C1155 0.950 . S
H1136 C1157 0.950 . S
H1137 C1160 0.950 . S
H1138 C1161 0.950 . S
H1139 C1163 0.950 . S
H1140 C1164 0.950 . S
H1141 C1165 0.951 . S
H1142 C1167 0.951 . S
H1143 C1169 0.950 . S
H1144 C1170 0.950 . S
H1145 C1172 0.950 . S
H1146 C1175 0.950 . S
H1147 C1176 0.950 . S
H1148 C1178 0.935 1_556 S
H1149 C1179 0.950 . S
C1150 H1132 0.951 . S
C1150 C1151 1.366 . S
C1150 C1152 1.388 . S
C1151 C1150 1.366 . S
C1151 C1155 1.385 . S
C1152 H1133 0.951 . S
C1152 C1150 1.388 . S
C1152 C1153 1.366 . S
C1153 C1152 1.366 . S
C1153 C1154 1.414 . S
C1153 C1156 1.499 . S
C1154 H1134 0.950 . S
C1154 C1153 1.414 . S
C1154 C1155 1.374 . S
C1155 H1135 0.950 . S
C1155 C1151 1.385 . S
C1155 C1154 1.374 . S
C1156 C1153 1.499 . S
C1156 C1157 1.373 . S
C1156 C1158 1.389 . S
C1157 H1136 0.950 . S
C1157 C1156 1.373 . S
C1157 C1173 1.377 . S
C1158 C1156 1.389 . S
C1158 C1159 1.524 . S
C1158 C1172 1.377 . S
C1159 C1158 1.524 . S
C1159 C1160 1.397 . S
C1159 C1164 1.363 . S
C1160 H1137 0.950 . S
C1160 C1159 1.397 . S
C1160 C1161 1.334 . S
C1161 H1138 0.950 . S
C1161 C1160 1.334 . S
C1161 C1162 1.287 . S
C1162 C1161 1.287 . S
C1162 C1163 1.524 . S
C1162 H1181 0.913 . S
C1163 H1139 0.950 . S
C1163 C1162 1.524 . S
C1163 C1164 1.415 . S
C1164 H1140 0.950 . S
C1164 C1159 1.363 . S
C1164 C1163 1.415 . S
C1165 H1141 0.951 . S
C1165 C1166 1.366 . S
C1165 C1167 1.388 . S
C1166 C1165 1.366 . S
C1166 C1170 1.385 . S
C1167 H1142 0.951 . S
C1167 C1165 1.388 . S
C1167 C1168 1.366 . S
C1168 C1167 1.366 . S
C1168 C1169 1.414 . S
C1168 C1171 1.499 . S
C1169 H1143 0.950 . S
C1169 C1168 1.414 . S
C1169 C1170 1.374 . S
C1170 H1144 0.950 . S
C1170 C1166 1.385 . S
C1170 C1169 1.374 . S
C1171 C1168 1.499 . S
C1171 C1172 1.373 . S
C1171 C1173 1.389 . S
C1172 H1145 0.950 . S
C1172 C1158 1.377 . S
C1172 C1171 1.373 . S
C1173 C1157 1.377 . S
C1173 C1171 1.389 . S
C1173 C1174 1.524 . S
C1174 C1173 1.524 . S
C1174 C1175 1.397 . S
C1174 C1179 1.363 . S
C1175 H1146 0.950 . S
C1175 C1174 1.397 . S
C1175 C1176 1.334 . S
C1176 H1147 0.950 . S
C1176 C1175 1.334 . S
C1176 C1177 1.286 1_554 S
C1177 C1176 1.286 1_556 S
C1177 C1178 1.524 1_556 S
C1177 H1180 1.001 . S
C1178 H1148 0.935 1_554 S
C1178 C1177 1.524 1_554 S
C1178 C1179 1.415 . S
C1179 H1149 0.950 . S
C1179 C1174 1.363 . S
C1179 C1178 1.415 . S
H1180 C1177 1.001 . S
H1181 C1162 0.913 . S
H1182 C1200 0.951 . S
H1183 C1202 0.951 . S
H1184 C1204 0.950 . S
H1185 C1205 0.950 . S
H1186 C1207 0.950 . S
H1187 C1210 0.950 . S
H1188 C1211 0.950 . S
H1189 C1213 0.950 . S
H1190 C1214 0.950 . S
H1191 C1215 0.951 . S
H1192 C1217 0.951 . S
H1193 C1219 0.950 . S
H1194 C1220 0.950 . S
H1195 C1222 0.950 . S
H1196 C1225 0.950 . S
H1197 C1226 0.950 . S
H1198 C1228 0.950 . S
H1199 C1229 0.950 . S
C1200 H1182 0.951 . S
C1200 C1201 1.366 . S
C1200 C1202 1.388 . S
C1201 C1200 1.366 . S
C1201 C1205 1.385 . S
C1202 H1183 0.951 . S
C1202 C1200 1.388 . S
C1202 C1203 1.366 . S
C1203 C1202 1.366 . S
C1203 C1204 1.414 . S
C1203 C1206 1.499 . S
C1204 H1184 0.950 . S
C1204 C1203 1.414 . S
C1204 C1205 1.374 . S
C1205 H1185 0.950 . S
C1205 C1201 1.385 . S
C1205 C1204 1.374 . S
C1206 C1203 1.499 . S
C1206 C1207 1.373 . S
C1206 C1208 1.389 . S
C1207 H1186 0.950 . S
C1207 C1206 1.373 . S
C1207 C1223 1.377 . S
C1208 C1206 1.389 . S
C1208 C1209 1.524 . S
C1208 C1222 1.377 . S
C1209 C1208 1.524 . S
C1209 C1210 1.397 . S
C1209 C1214 1.363 . S
C1210 H1187 0.950 . S
C1210 C1209 1.397 . S
C1210 C1211 1.334 . S
C1211 H1188 0.950 . S
C1211 C1210 1.334 . S
C1211 C1212 1.287 . S
C1212 C1211 1.287 . S
C1212 C1213 1.524 . S
C1212 H1231 0.913 . S
C1213 H1189 0.950 . S
C1213 C1212 1.524 . S
C1213 C1214 1.415 . S
C1214 H1190 0.950 . S
C1214 C1209 1.363 . S
C1214 C1213 1.415 . S
C1215 H1191 0.951 . S
C1215 C1216 1.366 . S
C1215 C1217 1.388 . S
C1216 C1215 1.366 . S
C1216 C1220 1.385 . S
C1217 H1192 0.951 . S
C1217 C1215 1.388 . S
C1217 C1218 1.366 . S
C1218 C1217 1.366 . S
C1218 C1219 1.414 . S
C1218 C1221 1.499 . S
C1219 H1193 0.950 . S
C1219 C1218 1.414 . S
C1219 C1220 1.374 . S
C1220 H1194 0.950 . S
C1220 C1216 1.385 . S
C1220 C1219 1.374 . S
C1221 C1218 1.499 . S
C1221 C1222 1.373 . S
C1221 C1223 1.389 . S
C1222 H1195 0.950 . S
C1222 C1208 1.377 . S
C1222 C1221 1.373 . S
C1223 C1207 1.377 . S
C1223 C1221 1.389 . S
C1223 C1224 1.524 . S
C1224 C1223 1.524 . S
C1224 C1225 1.397 . S
C1224 C1229 1.363 . S
C1225 H1196 0.950 . S
C1225 C1224 1.397 . S
C1225 C1226 1.334 . S
C1226 H1197 0.950 . S
C1226 C1225 1.334 . S
C1226 C1227 1.287 . S
C1227 C1226 1.287 . S
C1227 C1228 1.524 . S
C1227 H1230 0.999 . S
C1228 H1198 0.950 . S
C1228 C1227 1.524 . S
C1228 C1229 1.415 . S
C1229 H1199 0.950 . S
C1229 C1224 1.363 . S
C1229 C1228 1.415 . S
H1230 C1227 0.999 . S
H1231 C1212 0.913 . S
H1232 C1250 0.951 . S
H1233 C1252 0.951 . S
H1234 C1254 0.950 . S
H1235 C1255 0.950 . S
H1236 C1257 0.950 . S
H1237 C1260 0.950 . S
H1238 C1261 0.950 . S
H1239 C1263 0.950 . S
H1240 C1264 0.950 . S
H1241 C1265 0.951 . S
H1242 C1267 0.951 . S
H1243 C1269 0.950 . S
H1244 C1270 0.950 . S
H1245 C1272 0.950 . S
H1246 C1275 0.950 . S
H1247 C1276 0.950 1_554 S
H1248 C1278 0.950 . S
H1249 C1279 0.950 . S
C1250 H1232 0.951 . S
C1250 C1251 1.366 . S
C1250 C1252 1.388 . S
C1251 C1250 1.366 . S
C1251 C1255 1.385 . S
C1252 H1233 0.951 . S
C1252 C1250 1.388 . S
C1252 C1253 1.366 . S
C1253 C1252 1.366 . S
C1253 C1254 1.414 . S
C1253 C1256 1.499 . S
C1254 H1234 0.950 . S
C1254 C1253 1.414 . S
C1254 C1255 1.374 . S
C1255 H1235 0.950 . S
C1255 C1251 1.385 . S
C1255 C1254 1.374 . S
C1256 C1253 1.499 . S
C1256 C1257 1.373 . S
C1256 C1258 1.389 . S
C1257 H1236 0.950 . S
C1257 C1256 1.373 . S
C1257 C1273 1.377 . S
C1258 C1256 1.389 . S
C1258 C1259 1.524 . S
C1258 C1272 1.377 . S
C1259 C1258 1.524 . S
C1259 C1260 1.397 . S
C1259 C1264 1.363 . S
C1260 H1237 0.950 . S
C1260 C1259 1.397 . S
C1260 C1261 1.334 . S
C1261 H1238 0.950 . S
C1261 C1260 1.334 . S
C1261 C1262 1.287 . S
C1262 C1261 1.287 . S
C1262 C1263 1.524 . S
C1262 H1281 0.913 . S
C1263 H1239 0.950 . S
C1263 C1262 1.524 . S
C1263 C1264 1.415 . S
C1264 H1240 0.950 . S
C1264 C1259 1.363 . S
C1264 C1263 1.415 . S
C1265 H1241 0.951 . S
C1265 C1266 1.366 . S
C1265 C1267 1.388 . S
C1266 C1265 1.366 . S
C1266 C1270 1.385 . S
C1267 H1242 0.951 . S
C1267 C1265 1.388 . S
C1267 C1268 1.366 . S
C1268 C1267 1.366 . S
C1268 C1269 1.414 . S
C1268 C1271 1.499 . S
C1269 H1243 0.950 . S
C1269 C1268 1.414 . S
C1269 C1270 1.374 . S
C1270 H1244 0.950 . S
C1270 C1266 1.385 . S
C1270 C1269 1.374 . S
C1271 C1268 1.499 . S
C1271 C1272 1.373 . S
C1271 C1273 1.389 . S
C1272 H1245 0.950 . S
C1272 C1258 1.377 . S
C1272 C1271 1.373 . S
C1273 C1257 1.377 . S
C1273 C1271 1.389 . S
C1273 C1274 1.524 . S
C1274 C1273 1.524 . S
C1274 C1275 1.397 . S
C1274 C1279 1.363 . S
C1275 H1246 0.950 . S
C1275 C1274 1.397 . S
C1275 C1276 1.334 . S
C1276 H1247 0.950 1_556 S
C1276 C1275 1.334 . S
C1276 C1277 1.287 1_556 S
C1277 C1276 1.287 1_554 S
C1277 C1278 1.524 1_554 S
C1277 H1280 0.999 . S
C1278 H1248 0.950 . S
C1278 C1277 1.524 1_556 S
C1278 C1279 1.415 . S
C1279 H1249 0.950 . S
C1279 C1274 1.363 . S
C1279 C1278 1.415 . S
H1280 C1277 0.999 . S
H1281 C1262 0.913 . S
H1282 C1300 0.951 . S
H1283 C1302 0.951 . S
H1284 C1304 0.950 . S
H1285 C1305 0.950 . S
H1286 C1307 0.950 . S
H1287 C1310 0.950 . S
H1288 C1311 0.950 . S
H1289 C1313 0.950 . S
H1290 C1314 0.950 . S
H1291 C1315 0.951 . S
H1292 C1317 0.951 . S
H1293 C1319 0.950 . S
H1294 C1320 0.950 . S
H1295 C1322 0.950 . S
H1296 C1325 0.950 . S
H1297 C1326 0.950 . S
H1298 C1328 0.950 . S
H1299 C1329 0.950 . S
C1300 H1282 0.951 . S
C1300 C1301 1.366 . S
C1300 C1302 1.388 . S
C1301 C1300 1.366 . S
C1301 C1305 1.385 . S
C1302 H1283 0.951 . S
C1302 C1300 1.388 . S
C1302 C1303 1.366 . S
C1303 C1302 1.366 . S
C1303 C1304 1.414 . S
C1303 C1306 1.499 . S
C1304 H1284 0.950 . S
C1304 C1303 1.414 . S
C1304 C1305 1.374 . S
C1305 H1285 0.950 . S
C1305 C1301 1.385 . S
C1305 C1304 1.374 . S
C1306 C1303 1.499 . S
C1306 C1307 1.373 . S
C1306 C1308 1.389 . S
C1307 H1286 0.950 . S
C1307 C1306 1.373 . S
C1307 C1323 1.377 . S
C1308 C1306 1.389 . S
C1308 C1309 1.524 . S
C1308 C1322 1.377 . S
C1309 C1308 1.524 . S
C1309 C1310 1.397 . S
C1309 C1314 1.363 . S
C1310 H1287 0.950 . S
C1310 C1309 1.397 . S
C1310 C1311 1.334 . S
C1311 H1288 0.950 . S
C1311 C1310 1.334 . S
C1311 C1312 1.287 . S
C1312 C1311 1.287 . S
C1312 C1313 1.524 . S
C1312 H1331 0.913 . S
C1313 H1289 0.950 . S
C1313 C1312 1.524 . S
C1313 C1314 1.415 . S
C1314 H1290 0.950 . S
C1314 C1309 1.363 . S
C1314 C1313 1.415 . S
C1315 H1291 0.951 . S
C1315 C1316 1.366 . S
C1315 C1317 1.388 . S
C1316 C1315 1.366 . S
C1316 C1320 1.385 . S
C1317 H1292 0.951 . S
C1317 C1315 1.388 . S
C1317 C1318 1.366 . S
C1318 C1317 1.366 . S
C1318 C1319 1.414 . S
C1318 C1321 1.499 . S
C1319 H1293 0.950 . S
C1319 C1318 1.414 . S
C1319 C1320 1.374 . S
C1320 H1294 0.950 . S
C1320 C1316 1.385 . S
C1320 C1319 1.374 . S
C1321 C1318 1.499 . S
C1321 C1322 1.373 . S
C1321 C1323 1.389 . S
C1322 H1295 0.950 . S
C1322 C1308 1.377 . S
C1322 C1321 1.373 . S
C1323 C1307 1.377 . S
C1323 C1321 1.389 . S
C1323 C1324 1.524 . S
C1324 C1323 1.524 . S
C1324 C1325 1.397 . S
C1324 C1329 1.363 . S
C1325 H1296 0.950 . S
C1325 C1324 1.397 . S
C1325 C1326 1.334 . S
C1326 H1297 0.950 . S
C1326 C1325 1.334 . S
C1326 C1327 1.287 . S
C1327 C1326 1.287 . S
C1327 C1328 1.524 . S
C1327 H1330 0.999 . S
C1328 H1298 0.950 . S
C1328 C1327 1.524 . S
C1328 C1329 1.415 . S
C1329 H1299 0.950 . S
C1329 C1324 1.363 . S
C1329 C1328 1.415 . S
H1330 C1327 0.999 . S
H1331 C1312 0.913 . S
H1332 C1350 0.951 . S
H1333 C1352 0.951 . S
H1334 C1354 0.950 . S
H1335 C1355 0.950 . S
H1336 C1357 0.950 . S
H1337 C1360 0.950 . S
H1338 C1361 0.950 . S
H1339 C1363 0.950 . S
H1340 C1364 0.950 . S
H1341 C1365 0.951 . S
H1342 C1367 0.951 . S
H1343 C1369 0.950 . S
H1344 C1370 0.950 . S
H1345 C1372 0.950 . S
H1346 C1375 0.950 . S
H1347 C1376 0.950 1_655 S
H1348 C1378 0.950 . S
H1349 C1379 0.950 . S
C1350 H1332 0.951 . S
C1350 C1351 1.366 . S
C1350 C1352 1.388 . S
C1351 C1350 1.366 . S
C1351 C1355 1.385 . S
C1352 H1333 0.951 . S
C1352 C1350 1.388 . S
C1352 C1353 1.366 . S
C1353 C1352 1.366 . S
C1353 C1354 1.414 . S
C1353 C1356 1.499 . S
C1354 H1334 0.950 . S
C1354 C1353 1.414 . S
C1354 C1355 1.374 . S
C1355 H1335 0.950 . S
C1355 C1351 1.385 . S
C1355 C1354 1.374 . S
C1356 C1353 1.499 . S
C1356 C1357 1.373 . S
C1356 C1358 1.389 . S
C1357 H1336 0.950 . S
C1357 C1356 1.373 . S
C1357 C1373 1.377 . S
C1358 C1356 1.389 . S
C1358 C1359 1.524 . S
C1358 C1372 1.377 . S
C1359 C1358 1.524 . S
C1359 C1360 1.397 . S
C1359 C1364 1.363 . S
C1360 H1337 0.950 . S
C1360 C1359 1.397 . S
C1360 C1361 1.334 . S
C1361 H1338 0.950 . S
C1361 C1360 1.334 . S
C1361 C1362 1.287 . S
C1362 C1361 1.287 . S
C1362 C1363 1.524 . S
C1362 H1381 0.913 . S
C1363 H1339 0.950 . S
C1363 C1362 1.524 . S
C1363 C1364 1.415 . S
C1364 H1340 0.950 . S
C1364 C1359 1.363 . S
C1364 C1363 1.415 . S
C1365 H1341 0.951 . S
C1365 C1366 1.366 . S
C1365 C1367 1.388 . S
C1366 C1365 1.366 . S
C1366 C1370 1.385 . S
C1367 H1342 0.951 . S
C1367 C1365 1.388 . S
C1367 C1368 1.366 . S
C1368 C1367 1.366 . S
C1368 C1369 1.414 . S
C1368 C1371 1.499 . S
C1369 H1343 0.950 . S
C1369 C1368 1.414 . S
C1369 C1370 1.374 . S
C1370 H1344 0.950 . S
C1370 C1366 1.385 . S
C1370 C1369 1.374 . S
C1371 C1368 1.499 . S
C1371 C1372 1.373 . S
C1371 C1373 1.389 . S
C1372 H1345 0.950 . S
C1372 C1358 1.377 . S
C1372 C1371 1.373 . S
C1373 C1357 1.377 . S
C1373 C1371 1.389 . S
C1373 C1374 1.524 . S
C1374 C1373 1.524 . S
C1374 C1375 1.397 . S
C1374 C1379 1.363 . S
C1375 H1346 0.950 . S
C1375 C1374 1.397 . S
C1375 C1376 1.334 . S
C1376 H1347 0.950 1_455 S
C1376 C1375 1.334 . S
C1376 C1377 1.287 . S
C1377 C1376 1.287 . S
C1377 C1378 1.524 . S
C1377 H1380 0.999 1_455 S
C1378 H1348 0.950 . S
C1378 C1377 1.524 . S
C1378 C1379 1.415 . S
C1379 H1349 0.950 . S
C1379 C1374 1.363 . S
C1379 C1378 1.415 . S
H1380 C1377 0.999 1_655 S
H1381 C1362 0.913 . S
H1382 C1400 0.951 . S
H1383 C1402 0.951 . S
H1384 C1404 0.950 . S
H1385 C1405 0.950 . S
H1386 C1407 0.950 . S
H1387 C1410 0.950 . S
H1388 C1411 0.950 . S
H1389 C1413 0.950 . S
H1390 C1414 0.950 . S
H1391 C1415 0.951 . S
H1392 C1417 0.951 . S
H1393 C1419 0.950 . S
H1394 C1420 0.950 . S
H1395 C1422 0.950 . S
H1396 C1425 0.950 . S
H1397 C1426 0.950 . S
H1398 C1428 0.950 . S
H1399 C1429 0.950 . S
C1400 H1382 0.951 . S
C1400 C1401 1.366 . S
C1400 C1402 1.388 . S
C1401 C1400 1.366 . S
C1401 C1405 1.385 . S
C1402 H1383 0.951 . S
C1402 C1400 1.388 . S
C1402 C1403 1.366 . S
C1403 C1402 1.366 . S
C1403 C1404 1.414 . S
C1403 C1406 1.499 . S
C1404 H1384 0.950 . S
C1404 C1403 1.414 . S
C1404 C1405 1.374 . S
C1405 H1385 0.950 . S
C1405 C1401 1.385 . S
C1405 C1404 1.374 . S
C1406 C1403 1.499 . S
C1406 C1407 1.373 . S
C1406 C1408 1.389 . S
C1407 H1386 0.950 . S
C1407 C1406 1.373 . S
C1407 C1423 1.377 . S
C1408 C1406 1.389 . S
C1408 C1409 1.524 . S
C1408 C1422 1.377 . S
C1409 C1408 1.524 . S
C1409 C1410 1.397 . S
C1409 C1414 1.363 . S
C1410 H1387 0.950 . S
C1410 C1409 1.397 . S
C1410 C1411 1.334 . S
C1411 H1388 0.950 . S
C1411 C1410 1.334 . S
C1411 C1412 1.287 . S
C1412 C1411 1.287 . S
C1412 C1413 1.524 . S
C1412 H1431 0.913 . S
C1413 H1389 0.950 . S
C1413 C1412 1.524 . S
C1413 C1414 1.415 . S
C1414 H1390 0.950 . S
C1414 C1409 1.363 . S
C1414 C1413 1.415 . S
C1415 H1391 0.951 . S
C1415 C1416 1.366 . S
C1415 C1417 1.388 . S
C1416 C1415 1.366 . S
C1416 C1420 1.385 . S
C1417 H1392 0.951 . S
C1417 C1415 1.388 . S
C1417 C1418 1.366 . S
C1418 C1417 1.366 . S
C1418 C1419 1.414 . S
C1418 C1421 1.499 . S
C1419 H1393 0.950 . S
C1419 C1418 1.414 . S
C1419 C1420 1.374 . S
C1420 H1394 0.950 . S
C1420 C1416 1.385 . S
C1420 C1419 1.374 . S
C1421 C1418 1.499 . S
C1421 C1422 1.373 . S
C1421 C1423 1.389 . S
C1422 H1395 0.950 . S
C1422 C1408 1.377 . S
C1422 C1421 1.373 . S
C1423 C1407 1.377 . S
C1423 C1421 1.389 . S
C1423 C1424 1.524 . S
C1424 C1423 1.524 . S
C1424 C1425 1.397 . S
C1424 C1429 1.363 . S
C1425 H1396 0.950 . S
C1425 C1424 1.397 . S
C1425 C1426 1.334 . S
C1426 H1397 0.950 . S
C1426 C1425 1.334 . S
C1426 C1427 1.287 . S
C1427 C1426 1.287 . S
C1427 C1428 1.524 . S
C1427 H1430 0.999 . S
C1428 H1398 0.950 . S
C1428 C1427 1.524 . S
C1428 C1429 1.415 . S
C1429 H1399 0.950 . S
C1429 C1424 1.363 . S
C1429 C1428 1.415 . S
H1430 C1427 0.999 . S
H1431 C1412 0.913 . S
C251 C5 1.169 . S
C266 C87 1.171 . S
C301 C14 0.986 . S
C316 C127 1.001 . S
C366 C161 2.208 . S
C351 C25 2.239 . S
C401 C34 2.632 . S
C416 C202 2.572 . S
C466 C122 1.254 . S
C451 C7 1.247 . S
C516 C82 1.856 . S
C501 C13 1.807 . S
C566 C210 1.510 . S
C551 C23 1.524 . S
C616 C171 1.743 . S
C601 C31 1.791 . S
C651 C4 1.109 . S
C666 C207 1.113 . S
C716 C130 1.947 . S
C701 C22 1.994 . S
C751 C32 2.420 . S
C766 C90 2.345 . S
C801 C16 1.356 . S
C816 C158 1.383 . S
C866 C78 1.157 . S
C851 C41 1.153 . S
C901 C50 0.997 . S
C916 C118 1.012 . S
C951 C61 2.236 . S
C966 C170 2.204 . S
C1001 C67 2.644 . S
C1016 C211 2.587 . S
C1051 C40 1.273 . S
C1066 C131 1.280 . S
C1116 C91 1.831 . S
C1101 C52 1.777 . S
C1166 C201 1.516 . S
C1151 C59 1.533 . S
C1216 C162 1.740 . S
C1201 C70 1.786 . S
C1251 C43 1.101 . S
C1266 C198 1.106 . S
C1316 C121 1.962 . S
C1301 C58 2.011 . S
C1366 C81 2.328 . S
C1351 C68 2.397 . S
C1401 C49 1.367 . S
C1416 C167 1.390 . S
