# Generated by pormake.
# Topology ptr, (4,4)-cn, num edge types: 1
# Building blocks:
#     Node 0, Type 0, BuildingBlock: TATPOV_clean_sbu_0, # of connection points: 4
#     Node 1, Type 0, BuildingBlock: TATPOV_clean_sbu_0, # of connection points: 4
#     Node 2, Type 0, BuildingBlock: TATPOV_clean_sbu_0, # of connection points: 4
#     Node 3, Type 0, BuildingBlock: TATPOV_clean_sbu_0, # of connection points: 4
#     Node 4, Type 0, BuildingBlock: TATPOV_clean_sbu_0, # of connection points: 4
#     Node 5, Type 0, BuildingBlock: TATPOV_clean_sbu_0, # of connection points: 4
#     Node 6, Type 0, BuildingBlock: TATPOV_clean_sbu_0, # of connection points: 4
#     Node 7, Type 0, BuildingBlock: TATPOV_clean_sbu_0, # of connection points: 4
#     Node 8, Type 0, BuildingBlock: TATPOV_clean_sbu_0, # of connection points: 4
#     Node 9, Type 0, BuildingBlock: TATPOV_clean_sbu_0, # of connection points: 4
#     Node 10, Type 0, BuildingBlock: TATPOV_clean_sbu_0, # of connection points: 4
#     Node 11, Type 0, BuildingBlock: TATPOV_clean_sbu_0, # of connection points: 4
#     Node 12, Type 0, BuildingBlock: TATPOV_clean_sbu_0, # of connection points: 4
#     Node 13, Type 0, BuildingBlock: TATPOV_clean_sbu_0, # of connection points: 4
#     Node 14, Type 0, BuildingBlock: TATPOV_clean_sbu_0, # of connection points: 4
#     Node 15, Type 0, BuildingBlock: TATPOV_clean_sbu_0, # of connection points: 4
#     Node 16, Type 0, BuildingBlock: TATPOV_clean_sbu_0, # of connection points: 4
#     Node 17, Type 0, BuildingBlock: TATPOV_clean_sbu_0, # of connection points: 4
#     Node 18, Type 1, BuildingBlock: MIFKUJ_clean_linker_1, # of connection points: 4
#     Node 19, Type 1, BuildingBlock: MIFKUJ_clean_linker_1, # of connection points: 4
#     Node 20, Type 1, BuildingBlock: MIFKUJ_clean_linker_1, # of connection points: 4
#     Node 21, Type 1, BuildingBlock: MIFKUJ_clean_linker_1, # of connection points: 4
#     Node 22, Type 1, BuildingBlock: MIFKUJ_clean_linker_1, # of connection points: 4
#     Node 23, Type 1, BuildingBlock: MIFKUJ_clean_linker_1, # of connection points: 4
#     Node 24, Type 1, BuildingBlock: MIFKUJ_clean_linker_1, # of connection points: 4
#     Node 25, Type 1, BuildingBlock: MIFKUJ_clean_linker_1, # of connection points: 4
#     Node 26, Type 1, BuildingBlock: MIFKUJ_clean_linker_1, # of connection points: 4
#     Node 27, Type 1, BuildingBlock: MIFKUJ_clean_linker_1, # of connection points: 4
#     Node 28, Type 1, BuildingBlock: MIFKUJ_clean_linker_1, # of connection points: 4
#     Node 29, Type 1, BuildingBlock: MIFKUJ_clean_linker_1, # of connection points: 4
#     Node 30, Type 1, BuildingBlock: MIFKUJ_clean_linker_1, # of connection points: 4
#     Node 31, Type 1, BuildingBlock: MIFKUJ_clean_linker_1, # of connection points: 4
#     Node 32, Type 1, BuildingBlock: MIFKUJ_clean_linker_1, # of connection points: 4
#     Node 33, Type 1, BuildingBlock: MIFKUJ_clean_linker_1, # of connection points: 4
#     Node 34, Type 1, BuildingBlock: MIFKUJ_clean_linker_1, # of connection points: 4
#     Node 35, Type 1, BuildingBlock: MIFKUJ_clean_linker_1, # of connection points: 4
#     Edge 36, Type (0, 1), BuildingBlock: MIFKUJ_clean_linker_0, # of connection points: 2
#     Edge 37, Type (0, 1), BuildingBlock: MIFKUJ_clean_linker_0, # of connection points: 2
#     Edge 38, Type (0, 1), BuildingBlock: MIFKUJ_clean_linker_0, # of connection points: 2
#     Edge 39, Type (0, 1), BuildingBlock: MIFKUJ_clean_linker_0, # of connection points: 2
#     Edge 40, Type (0, 1), BuildingBlock: MIFKUJ_clean_linker_0, # of connection points: 2
#     Edge 41, Type (0, 1), BuildingBlock: MIFKUJ_clean_linker_0, # of connection points: 2
#     Edge 42, Type (0, 1), BuildingBlock: MIFKUJ_clean_linker_0, # of connection points: 2
#     Edge 43, Type (0, 1), BuildingBlock: MIFKUJ_clean_linker_0, # of connection points: 2
#     Edge 44, Type (0, 1), BuildingBlock: MIFKUJ_clean_linker_0, # of connection points: 2
#     Edge 45, Type (0, 1), BuildingBlock: MIFKUJ_clean_linker_0, # of connection points: 2
#     Edge 46, Type (0, 1), BuildingBlock: MIFKUJ_clean_linker_0, # of connection points: 2
#     Edge 47, Type (0, 1), BuildingBlock: MIFKUJ_clean_linker_0, # of connection points: 2
#     Edge 48, Type (0, 1), BuildingBlock: MIFKUJ_clean_linker_0, # of connection points: 2
#     Edge 49, Type (0, 1), BuildingBlock: MIFKUJ_clean_linker_0, # of connection points: 2
#     Edge 50, Type (0, 1), BuildingBlock: MIFKUJ_clean_linker_0, # of connection points: 2
#     Edge 51, Type (0, 1), BuildingBlock: MIFKUJ_clean_linker_0, # of connection points: 2
#     Edge 52, Type (0, 1), BuildingBlock: MIFKUJ_clean_linker_0, # of connection points: 2
#     Edge 53, Type (0, 1), BuildingBlock: MIFKUJ_clean_linker_0, # of connection points: 2
#     Edge 54, Type (0, 1), BuildingBlock: MIFKUJ_clean_linker_0, # of connection points: 2
#     Edge 55, Type (0, 1), BuildingBlock: MIFKUJ_clean_linker_0, # of connection points: 2
#     Edge 56, Type (0, 1), BuildingBlock: MIFKUJ_clean_linker_0, # of connection points: 2
#     Edge 57, Type (0, 1), BuildingBlock: MIFKUJ_clean_linker_0, # of connection points: 2
#     Edge 58, Type (0, 1), BuildingBlock: MIFKUJ_clean_linker_0, # of connection points: 2
#     Edge 59, Type (0, 1), BuildingBlock: MIFKUJ_clean_linker_0, # of connection points: 2
#     Edge 60, Type (0, 1), BuildingBlock: MIFKUJ_clean_linker_0, # of connection points: 2
#     Edge 61, Type (0, 1), BuildingBlock: MIFKUJ_clean_linker_0, # of connection points: 2
#     Edge 62, Type (0, 1), BuildingBlock: MIFKUJ_clean_linker_0, # of connection points: 2
#     Edge 63, Type (0, 1), BuildingBlock: MIFKUJ_clean_linker_0, # of connection points: 2
#     Edge 64, Type (0, 1), BuildingBlock: MIFKUJ_clean_linker_0, # of connection points: 2
#     Edge 65, Type (0, 1), BuildingBlock: MIFKUJ_clean_linker_0, # of connection points: 2
#     Edge 66, Type (0, 1), BuildingBlock: MIFKUJ_clean_linker_0, # of connection points: 2
#     Edge 67, Type (0, 1), BuildingBlock: MIFKUJ_clean_linker_0, # of connection points: 2
#     Edge 68, Type (0, 1), BuildingBlock: MIFKUJ_clean_linker_0, # of connection points: 2
#     Edge 69, Type (0, 1), BuildingBlock: MIFKUJ_clean_linker_0, # of connection points: 2
#     Edge 70, Type (0, 1), BuildingBlock: MIFKUJ_clean_linker_0, # of connection points: 2
#     Edge 71, Type (0, 1), BuildingBlock: MIFKUJ_clean_linker_0, # of connection points: 2
#     Edge 72, Type (0, 1), BuildingBlock: MIFKUJ_clean_linker_0, # of connection points: 2
#     Edge 73, Type (0, 1), BuildingBlock: MIFKUJ_clean_linker_0, # of connection points: 2
#     Edge 74, Type (0, 1), BuildingBlock: MIFKUJ_clean_linker_0, # of connection points: 2
#     Edge 75, Type (0, 1), BuildingBlock: MIFKUJ_clean_linker_0, # of connection points: 2
#     Edge 76, Type (0, 1), BuildingBlock: MIFKUJ_clean_linker_0, # of connection points: 2
#     Edge 77, Type (0, 1), BuildingBlock: MIFKUJ_clean_linker_0, # of connection points: 2
#     Edge 78, Type (0, 1), BuildingBlock: MIFKUJ_clean_linker_0, # of connection points: 2
#     Edge 79, Type (0, 1), BuildingBlock: MIFKUJ_clean_linker_0, # of connection points: 2
#     Edge 80, Type (0, 1), BuildingBlock: MIFKUJ_clean_linker_0, # of connection points: 2
#     Edge 81, Type (0, 1), BuildingBlock: MIFKUJ_clean_linker_0, # of connection points: 2
#     Edge 82, Type (0, 1), BuildingBlock: MIFKUJ_clean_linker_0, # of connection points: 2
#     Edge 83, Type (0, 1), BuildingBlock: MIFKUJ_clean_linker_0, # of connection points: 2
#     Edge 84, Type (0, 1), BuildingBlock: MIFKUJ_clean_linker_0, # of connection points: 2
#     Edge 85, Type (0, 1), BuildingBlock: MIFKUJ_clean_linker_0, # of connection points: 2
#     Edge 86, Type (0, 1), BuildingBlock: MIFKUJ_clean_linker_0, # of connection points: 2
#     Edge 87, Type (0, 1), BuildingBlock: MIFKUJ_clean_linker_0, # of connection points: 2
#     Edge 88, Type (0, 1), BuildingBlock: MIFKUJ_clean_linker_0, # of connection points: 2
#     Edge 89, Type (0, 1), BuildingBlock: MIFKUJ_clean_linker_0, # of connection points: 2
#     Edge 90, Type (0, 1), BuildingBlock: MIFKUJ_clean_linker_0, # of connection points: 2
#     Edge 91, Type (0, 1), BuildingBlock: MIFKUJ_clean_linker_0, # of connection points: 2
#     Edge 92, Type (0, 1), BuildingBlock: MIFKUJ_clean_linker_0, # of connection points: 2
#     Edge 93, Type (0, 1), BuildingBlock: MIFKUJ_clean_linker_0, # of connection points: 2
#     Edge 94, Type (0, 1), BuildingBlock: MIFKUJ_clean_linker_0, # of connection points: 2
#     Edge 95, Type (0, 1), BuildingBlock: MIFKUJ_clean_linker_0, # of connection points: 2
#     Edge 96, Type (0, 1), BuildingBlock: MIFKUJ_clean_linker_0, # of connection points: 2
#     Edge 97, Type (0, 1), BuildingBlock: MIFKUJ_clean_linker_0, # of connection points: 2
#     Edge 98, Type (0, 1), BuildingBlock: MIFKUJ_clean_linker_0, # of connection points: 2
#     Edge 99, Type (0, 1), BuildingBlock: MIFKUJ_clean_linker_0, # of connection points: 2
#     Edge 100, Type (0, 1), BuildingBlock: MIFKUJ_clean_linker_0, # of connection points: 2
#     Edge 101, Type (0, 1), BuildingBlock: MIFKUJ_clean_linker_0, # of connection points: 2
#     Edge 102, Type (0, 1), BuildingBlock: MIFKUJ_clean_linker_0, # of connection points: 2
#     Edge 103, Type (0, 1), BuildingBlock: MIFKUJ_clean_linker_0, # of connection points: 2
#     Edge 104, Type (0, 1), BuildingBlock: MIFKUJ_clean_linker_0, # of connection points: 2
#     Edge 105, Type (0, 1), BuildingBlock: MIFKUJ_clean_linker_0, # of connection points: 2
#     Edge 106, Type (0, 1), BuildingBlock: MIFKUJ_clean_linker_0, # of connection points: 2
#     Edge 107, Type (0, 1), BuildingBlock: MIFKUJ_clean_linker_0, # of connection points: 2
# Relax obj value: 0.067
# Max RMSD: 0.225
# Mean RMSD: 0.107
data_MOF--net-ptr--node1-TATPOV_clean_sbu_0--node2-MIFKUJ_clean_linker_1--edge1-MIFKUJ_clean_linker_0
_symmetry_space_group_name_H-M    P1
_symmetry_Int_Tables_number       1
_symmetry_cell_setting            triclinic
loop_
_symmetry_equiv_pos_as_xyz
'x, y, z'
_cell_length_a     111.56733
_cell_length_b     113.13745
_cell_length_c     75.584498
_cell_angle_alpha  89.755879
_cell_angle_beta   90.598781
_cell_angle_gamma 121.43721
loop_
_atom_site_label
_atom_site_type_symbol
_atom_site_fract_x
_atom_site_fract_y
_atom_site_fract_z
_atom_type_partial_charge
Zn0 Zn 0.96508 0.35069 0.0143 0.0
Zn1 Zn 0.99131 0.35568 0.01864 0.0
O2 O 0.97853 0.33474 0.01362 0.0
O3 O 0.95678 0.33004 0.01227 0.0
O4 O 0.00996 0.35748 0.02439 0.0
O5 O 0.96632 0.35973 0.03772 0.0
O6 O 0.98768 0.36359 0.04119 0.0
C7 C 0.96544 0.32603 0.01162 0.0
C8 C 0.98534 0.3689 0.98758 0.0
O9 O 0.99429 0.36753 0.99653 0.0
O10 O 0.9726 0.3627 0.99236 0.0
C11 C 0.01348 0.34966 0.01704 0.0
O12 O 0.0055 0.34126 0.00434 0.0
C13 C 0.97752 0.36462 0.04681 0.0
Zn14 Zn 0.65075 0.62244 0.01191 0.0
Zn15 Zn 0.65005 0.64541 0.01761 0.0
O16 O 0.67079 0.65254 0.01115 0.0
O17 O 0.67126 0.63363 0.00635 0.0
O18 O 0.65033 0.66297 0.02369 0.0
O19 O 0.6447 0.61603 0.03685 0.0
O20 O 0.64281 0.63425 0.04088 0.0
C21 C 0.67754 0.64671 0.007 0.0
C22 C 0.63174 0.62538 0.98828 0.0
O23 O 0.63606 0.63669 0.99667 0.0
O24 O 0.63634 0.61758 0.99243 0.0
C25 C 0.65885 0.67465 0.01678 0.0
O26 O 0.66743 0.67539 0.00445 0.0
C27 C 0.64156 0.62306 0.04664 0.0
Zn28 Zn 0.35192 0.97643 0.02166 0.0
Zn29 Zn 0.35528 0.00122 0.01648 0.0
O30 O 0.33461 0.98893 0.02437 0.0
O31 O 0.33193 0.96849 0.02904 0.0
O32 O 0.35617 0.01886 0.00948 0.0
O33 O 0.35651 0.97497 0.99644 0.0
O34 O 0.36098 0.9962 0.99301 0.0
C35 C 0.32694 0.97629 0.02903 0.0
C36 C 0.37341 0.99829 0.04421 0.0
O37 O 0.36974 0.00607 0.03672 0.0
O38 O 0.36756 0.98566 0.0398 0.0
C39 C 0.35392 0.02642 0.01962 0.0
O40 O 0.35165 0.02333 0.03651 0.0
C41 C 0.3607 0.98558 0.98685 0.0
Zn42 Zn 0.03336 0.64989 0.01253 0.0
Zn43 Zn 0.00864 0.64842 0.01122 0.0
O44 O 0.02343 0.66873 0.01736 0.0
O45 O 0.04387 0.67024 0.01853 0.0
O46 O 0.99147 0.64983 0.00815 0.0
O47 O 0.03092 0.64328 0.98723 0.0
O48 O 0.0099 0.64055 0.98716 0.0
C49 C 0.03666 0.67588 0.01998 0.0
C50 C 0.01265 0.63105 0.03843 0.0
O51 O 0.00471 0.63496 0.03183 0.0
O52 O 0.0249 0.6358 0.03237 0.0
C53 C 0.97927 0.64005 0.00368 0.0
O54 O 0.97693 0.6275 0.00159 0.0
C55 C 0.01933 0.63936 0.97945 0.0
Zn56 Zn 0.353 0.3849 0.02757 0.0
Zn57 Zn 0.35229 0.36175 0.01859 0.0
O58 O 0.33224 0.35479 0.02754 0.0
O59 O 0.33309 0.3738 0.03606 0.0
O60 O 0.35054 0.34417 0.00957 0.0
O61 O 0.35724 0.39207 0.00257 0.0
O62 O 0.3586 0.37387 0.99608 0.0
C63 C 0.32634 0.36075 0.03435 0.0
C64 C 0.37291 0.38043 0.04712 0.0
O65 O 0.36736 0.36911 0.03843 0.0
O66 O 0.36884 0.38887 0.04443 0.0
C67 C 0.35043 0.33485 0.01915 0.0
O68 O 0.352 0.33663 0.03637 0.0
C69 C 0.35976 0.38528 0.99153 0.0
Zn70 Zn 0.65106 0.02987 0.00147 0.0
Zn71 Zn 0.64802 0.00551 0.00871 0.0
O72 O 0.66893 0.01822 0.00199 0.0
O73 O 0.67197 0.03899 0.99931 0.0
O74 O 0.64772 0.98845 0.01722 0.0
O75 O 0.64259 0.03035 0.02454 0.0
O76 O 0.64106 0.01066 0.03102 0.0
C77 C 0.67694 0.03118 0.99923 0.0
C78 C 0.63237 0.00766 0.9771 0.0
O79 O 0.63443 0.99986 0.98729 0.0
O80 O 0.63853 0.02055 0.98019 0.0
C81 C 0.64551 0.97798 0.00829 0.0
O82 O 0.64242 0.97726 0.99136 0.0
C83 C 0.63927 0.02053 0.03527 0.0
Zn84 Zn 0.63976 0.69252 0.33193 0.0
Zn85 Zn 0.66382 0.69504 0.34336 0.0
O86 O 0.65113 0.6746 0.3358 0.0
O87 O 0.63053 0.67181 0.32934 0.0
O88 O 0.68079 0.69512 0.35291 0.0
O89 O 0.63842 0.70093 0.35483 0.0
O90 O 0.65752 0.70181 0.36462 0.0
C91 C 0.63833 0.66682 0.33105 0.0
C92 C 0.66422 0.71101 0.31075 0.0
O93 O 0.671 0.70873 0.32256 0.0
O94 O 0.65095 0.70498 0.31146 0.0
C95 C 0.68665 0.69017 0.34374 0.0
O96 O 0.68201 0.68581 0.32759 0.0
C97 C 0.64745 0.70386 0.36701 0.0
Zn98 Zn 0.30658 0.94961 0.34326 0.0
Zn99 Zn 0.31122 0.97427 0.35189 0.0
O100 O 0.33024 0.97853 0.34163 0.0
O101 O 0.32528 0.9583 0.33132 0.0
O102 O 0.31481 0.99291 0.35998 0.0
O103 O 0.30492 0.94394 0.3687 0.0
O104 O 0.30507 0.96295 0.37523 0.0
C105 C 0.33391 0.97115 0.33331 0.0
C106 C 0.28727 0.95575 0.32644 0.0
O107 O 0.29533 0.96771 0.33317 0.0
O108 O 0.28932 0.94594 0.32966 0.0
C109 C 0.32464 0.00452 0.35421 0.0
O110 O 0.33297 0.00475 0.34188 0.0
C111 C 0.30368 0.95147 0.37994 0.0
Zn112 Zn 0.02543 0.31548 0.37258 0.0
Zn113 Zn 0.02597 0.338 0.36052 0.0
O114 O 0.00538 0.32492 0.36845 0.0
O115 O 0.00467 0.30587 0.37654 0.0
O116 O 0.02532 0.35414 0.34998 0.0
O117 O 0.03297 0.31346 0.3494 0.0
O118 O 0.03222 0.33129 0.33916 0.0
C119 C 0.99851 0.3125 0.37417 0.0
C120 C 0.04415 0.34013 0.3925 0.0
O121 O 0.04074 0.3461 0.38088 0.0
O122 O 0.0387 0.32712 0.39213 0.0
C123 C 0.03065 0.3662 0.35658 0.0
O124 O 0.03744 0.36905 0.37177 0.0
C125 C 0.03476 0.32166 0.33686 0.0
Zn126 Zn 0.69885 0.98002 0.3591 0.0
Zn127 Zn 0.67523 0.97851 0.34818 0.0
O128 O 0.68829 0.99882 0.3563 0.0
O129 O 0.70837 0.00055 0.36303 0.0
O130 O 0.65869 0.97901 0.33812 0.0
O131 O 0.70038 0.97216 0.33585 0.0
O132 O 0.68144 0.97185 0.32673 0.0
C133 C 0.70103 0.00606 0.36156 0.0
C134 C 0.67433 0.96187 0.38028 0.0
O135 O 0.66758 0.96453 0.36884 0.0
O136 O 0.68751 0.9674 0.37919 0.0
C137 C 0.64932 0.97916 0.34735 0.0
O138 O 0.64981 0.97836 0.36466 0.0
C139 C 0.69135 0.96964 0.32385 0.0
Zn140 Zn 0.01825 0.71844 0.35771 0.0
Zn141 Zn 0.01922 0.69585 0.34985 0.0
O142 O 0.99849 0.68806 0.35701 0.0
O143 O 0.99791 0.70659 0.36411 0.0
O144 O 0.01966 0.67894 0.34225 0.0
O145 O 0.02366 0.72563 0.33286 0.0
O146 O 0.02589 0.70781 0.32719 0.0
C147 C 0.99173 0.69356 0.36248 0.0
C148 C 0.03809 0.71533 0.37932 0.0
O149 O 0.03354 0.70419 0.37046 0.0
O150 O 0.03333 0.72315 0.37619 0.0
C151 C 0.01104 0.6667 0.34755 0.0
O152 O 0.00145 0.66468 0.35913 0.0
C153 C 0.02686 0.71907 0.3223 0.0
Zn154 Zn 0.3111 0.35522 0.33204 0.0
Zn155 Zn 0.30984 0.33152 0.33993 0.0
O156 O 0.32984 0.3443 0.33008 0.0
O157 O 0.33042 0.36329 0.32198 0.0
O158 O 0.30993 0.31445 0.34784 0.0
O159 O 0.30848 0.3583 0.35757 0.0
O160 O 0.30506 0.33767 0.36318 0.0
C161 C 0.33632 0.35632 0.3231 0.0
C162 C 0.28892 0.33112 0.31341 0.0
O163 O 0.29412 0.32469 0.32103 0.0
O164 O 0.29404 0.3439 0.3164 0.0
C165 C 0.3179 0.31078 0.34113 0.0
O166 O 0.32597 0.31785 0.32781 0.0
C167 C 0.30532 0.34852 0.36833 0.0
Zn168 Zn 0.30435 0.02975 0.67483 0.0
Zn169 Zn 0.32687 0.02857 0.68418 0.0
O170 O 0.3122 0.00879 0.67599 0.0
O171 O 0.29382 0.00967 0.66727 0.0
O172 O 0.3426 0.02595 0.69225 0.0
O173 O 0.30279 0.03521 0.69955 0.0
O174 O 0.32227 0.0358 0.70672 0.0
C175 C 0.29982 0.00286 0.66946 0.0
C176 C 0.32947 0.0485 0.65517 0.0
O177 O 0.33502 0.04285 0.66387 0.0
O178 O 0.31682 0.04493 0.65777 0.0
C179 C 0.35537 0.03551 0.69442 0.0
O180 O 0.35914 0.04841 0.6911 0.0
C181 C 0.31232 0.0377 0.7108 0.0
Zn182 Zn 0.98267 0.28902 0.65996 0.0
Zn183 Zn 0.98336 0.31064 0.67511 0.0
O184 O 0.00397 0.3183 0.66755 0.0
O185 O 0.00364 0.29991 0.65745 0.0
O186 O 0.98452 0.32718 0.68705 0.0
O187 O 0.97401 0.27769 0.68196 0.0
O188 O 0.97601 0.29599 0.69502 0.0
C189 C 0.01038 0.31268 0.66126 0.0
C190 C 0.96538 0.29715 0.64174 0.0
O191 O 0.969 0.30559 0.65466 0.0
O192 O 0.97032 0.28933 0.64049 0.0
C193 C 0.98417 0.33669 0.67846 0.0
O194 O 0.98283 0.33573 0.66114 0.0
C195 C 0.97253 0.28331 0.69553 0.0
Zn196 Zn 0.69363 0.64669 0.69485 0.0
Zn197 Zn 0.69338 0.66968 0.68756 0.0
O198 O 0.67362 0.656 0.69749 0.0
O199 O 0.67402 0.6373 0.70438 0.0
O200 O 0.69187 0.68605 0.68 0.0
O201 O 0.69672 0.64422 0.66935 0.0
O202 O 0.69861 0.66426 0.66398 0.0
C203 C 0.66755 0.64374 0.70374 0.0
C204 C 0.71474 0.67106 0.71414 0.0
O205 O 0.70909 0.6771 0.70662 0.0
O206 O 0.7103 0.65845 0.71085 0.0
C207 C 0.68065 0.68339 0.67198 0.0
O208 O 0.67075 0.6704 0.6693 0.0
C209 C 0.69913 0.65385 0.65868 0.0
Zn210 Zn 0.3677 0.31481 0.68772 0.0
Zn211 Zn 0.34277 0.3118 0.68027 0.0
O212 O 0.35556 0.33222 0.68786 0.0
O213 O 0.37652 0.33528 0.69219 0.0
O214 O 0.32529 0.31156 0.67248 0.0
O215 O 0.36855 0.30784 0.66364 0.0
O216 O 0.34805 0.30538 0.65752 0.0
C217 C 0.36851 0.34008 0.69185 0.0
C218 C 0.34477 0.29507 0.71043 0.0
O219 O 0.33711 0.29802 0.70101 0.0
O220 O 0.35782 0.30094 0.70741 0.0
C221 C 0.31983 0.31685 0.6818 0.0
O222 O 0.32499 0.32157 0.69767 0.0
C223 C 0.35842 0.3043 0.65296 0.0
Zn224 Zn 0.68986 0.04789 0.69649 0.0
Zn225 Zn 0.68837 0.02562 0.68277 0.0
O226 O 0.6681 0.01876 0.69131 0.0
O227 O 0.66912 0.03774 0.70027 0.0
O228 O 0.68604 0.0083 0.67165 0.0
O229 O 0.698 0.05841 0.67388 0.0
O230 O 0.69545 0.03952 0.66191 0.0
C231 C 0.66208 0.02482 0.69747 0.0
C232 C 0.70707 0.03987 0.71519 0.0
O233 O 0.70321 0.03096 0.70279 0.0
O234 O 0.70239 0.04792 0.71583 0.0
C235 C 0.68603 0.99876 0.68062 0.0
O236 O 0.68801 0.00026 0.69782 0.0
C237 C 0.69904 0.0522 0.66062 0.0
Zn238 Zn 0.97271 0.69021 0.66972 0.0
Zn239 Zn 0.97254 0.66717 0.67911 0.0
O240 O 0.99234 0.67981 0.66915 0.0
O241 O 0.99297 0.69907 0.66232 0.0
O242 O 0.97352 0.65091 0.68803 0.0
O243 O 0.96824 0.69285 0.69447 0.0
O244 O 0.96792 0.6739 0.70207 0.0
C245 C 0.99894 0.69216 0.66324 0.0
C246 C 0.95181 0.66535 0.65107 0.0
O247 O 0.9569 0.65938 0.66003 0.0
O248 O 0.95667 0.6782 0.65294 0.0
C249 C 0.97351 0.64182 0.6782 0.0
O250 O 0.97227 0.64249 0.66098 0.0
C251 C 0.96658 0.68408 0.70614 0.0
H252 H 0.14113 0.32125 0.18388 0.0
H253 H 0.1252 0.32244 0.20463 0.0
H254 H 0.08994 0.29561 0.17084 0.0
H255 H 0.10593 0.29396 0.15019 0.0
H256 H 0.14323 0.30063 0.17554 0.0
H257 H 0.13121 0.33027 0.14406 0.0
H258 H 0.11582 0.3365 0.12905 0.0
H259 H 0.10566 0.30493 0.08964 0.0
H260 H 0.12022 0.29809 0.10549 0.0
H261 H 0.16271 0.28648 0.12871 0.0
H262 H 0.1835 0.28935 0.11387 0.0
H263 H 0.19571 0.33116 0.09959 0.0
H264 H 0.17512 0.32834 0.11471 0.0
H265 H 0.14726 0.31162 0.11151 0.0
H266 H 0.15115 0.28049 0.16964 0.0
H267 H 0.16842 0.27925 0.18872 0.0
H268 H 0.19937 0.32158 0.1755 0.0
H269 H 0.18214 0.32275 0.15642 0.0
C270 C 0.12475 0.30747 0.16548 0.0
C271 C 0.12997 0.31555 0.1809 0.0
C272 C 0.12089 0.31626 0.19274 0.0
C273 C 0.10639 0.30906 0.18932 0.0
C274 C 0.10111 0.30128 0.17367 0.0
C275 C 0.11023 0.30036 0.1619 0.0
C276 C 0.13469 0.30634 0.15369 0.0
C277 C 0.14394 0.30287 0.16148 0.0
C278 C 0.13578 0.30941 0.13535 0.0
C279 C 0.12663 0.31348 0.12616 0.0
C280 C 0.12545 0.32451 0.13238 0.0
C281 C 0.1168 0.32822 0.12359 0.0
C282 C 0.10939 0.32119 0.10812 0.0
C283 C 0.1109 0.31038 0.10171 0.0
C284 C 0.11936 0.30654 0.11067 0.0
C285 C 0.16745 0.30724 0.12294 0.0
C286 C 0.16983 0.29623 0.12227 0.0
C287 C 0.18164 0.29784 0.1137 0.0
C288 C 0.19128 0.31052 0.10572 0.0
C289 C 0.18857 0.32134 0.10585 0.0
C290 C 0.17675 0.3197 0.11434 0.0
C291 C 0.15581 0.30617 0.13353 0.0
C292 C 0.14624 0.30909 0.12549 0.0
C293 C 0.15464 0.30306 0.15176 0.0
C294 C 0.16541 0.30169 0.16158 0.0
C295 C 0.16173 0.2894 0.17063 0.0
C296 C 0.1716 0.28869 0.18144 0.0
C297 C 0.18518 0.30034 0.18359 0.0
C298 C 0.18894 0.31249 0.17411 0.0
C299 C 0.17915 0.31314 0.16316 0.0
H300 H 0.71271 0.87968 0.15909 0.0
H301 H 0.71441 0.89782 0.17831 0.0
H302 H 0.66977 0.88077 0.17183 0.0
H303 H 0.6683 0.86298 0.15217 0.0
H304 H 0.69644 0.8515 0.16571 0.0
H305 H 0.70067 0.88334 0.12093 0.0
H306 H 0.69503 0.89864 0.10482 0.0
H307 H 0.65368 0.86372 0.09271 0.0
H308 H 0.6593 0.84847 0.10904 0.0
H309 H 0.6605 0.8139 0.11126 0.0
H310 H 0.65657 0.79319 0.09575 0.0
H311 H 0.70005 0.80608 0.10461 0.0
H312 H 0.70397 0.82687 0.11981 0.0
H313 H 0.67763 0.84122 0.10429 0.0
H314 H 0.6703 0.81121 0.15307 0.0
H315 H 0.67286 0.79539 0.17241 0.0
H316 H 0.71741 0.82532 0.17736 0.0
H317 H 0.71454 0.84135 0.15853 0.0
C318 C 0.6904 0.87004 0.15415 0.0
C319 C 0.70334 0.87998 0.16167 0.0
C320 C 0.70426 0.89029 0.17275 0.0
C321 C 0.69221 0.89074 0.17676 0.0
C322 C 0.67931 0.88091 0.16886 0.0
C323 C 0.67843 0.87068 0.15765 0.0
C324 C 0.68922 0.8584 0.14371 0.0
C325 C 0.69263 0.84944 0.15213 0.0
C326 C 0.68373 0.85543 0.12623 0.0
C327 C 0.68035 0.86476 0.11641 0.0
C328 C 0.69032 0.87899 0.11501 0.0
C329 C 0.6871 0.88773 0.10577 0.0
C330 C 0.6739 0.88238 0.09754 0.0
C331 C 0.66399 0.86812 0.09877 0.0
C332 C 0.66718 0.8594 0.10812 0.0
C333 C 0.6825 0.82189 0.11678 0.0
C334 C 0.66919 0.81229 0.10978 0.0
C335 C 0.66694 0.80041 0.10105 0.0
C336 C 0.678 0.79799 0.09899 0.0
C337 C 0.69135 0.80771 0.10585 0.0
C338 C 0.69358 0.81954 0.11466 0.0
C339 C 0.6848 0.83435 0.12635 0.0
C340 C 0.68161 0.84343 0.11778 0.0
C341 C 0.69027 0.83736 0.1438 0.0
C342 C 0.69224 0.82741 0.15432 0.0
C343 C 0.68064 0.81428 0.15817 0.0
C344 C 0.68217 0.80521 0.16918 0.0
C345 C 0.69537 0.80901 0.17648 0.0
C346 C 0.70705 0.8221 0.17223 0.0
C347 C 0.70546 0.83125 0.16138 0.0
H348 H 0.11457 0.84474 0.17589 0.0
H349 H 0.09882 0.82479 0.19398 0.0
H350 H 0.11355 0.80071 0.16816 0.0
H351 H 0.13001 0.82102 0.15114 0.0
H352 H 0.14208 0.85876 0.1759 0.0
H353 H 0.10634 0.8313 0.13148 0.0
H354 H 0.09173 0.80959 0.11529 0.0
H355 H 0.12912 0.81309 0.09351 0.0
H356 H 0.1436 0.83425 0.11038 0.0
H357 H 0.1735 0.86686 0.11366 0.0
H358 H 0.19457 0.88456 0.09897 0.0
H359 H 0.18866 0.91632 0.12108 0.0
H360 H 0.16697 0.89834 0.13515 0.0
H361 H 0.14745 0.85845 0.11095 0.0
H362 H 0.18265 0.88025 0.15613 0.0
H363 H 0.19953 0.89738 0.1771 0.0
H364 H 0.16674 0.90213 0.19915 0.0
H365 H 0.14991 0.88529 0.17773 0.0
C366 C 0.12334 0.83436 0.16193 0.0
C367 C 0.11438 0.83515 0.17412 0.0
C368 C 0.10525 0.82365 0.18434 0.0
C369 C 0.1048 0.81103 0.18252 0.0
C370 C 0.11369 0.81025 0.17012 0.0
C371 C 0.12298 0.82183 0.16013 0.0
C372 C 0.13367 0.84689 0.15195 0.0
C373 C 0.14305 0.85883 0.16163 0.0
C374 C 0.1352 0.84679 0.13338 0.0
C375 C 0.12609 0.83433 0.12236 0.0
C376 C 0.11137 0.82736 0.12324 0.0
C377 C 0.10302 0.81501 0.11384 0.0
C378 C 0.10926 0.8095 0.10325 0.0
C379 C 0.12397 0.81685 0.10184 0.0
C380 C 0.13228 0.82908 0.11132 0.0
C381 C 0.16867 0.88124 0.12564 0.0
C382 C 0.17659 0.87761 0.1152 0.0
C383 C 0.18878 0.88778 0.10698 0.0
C384 C 0.19346 0.90189 0.10911 0.0
C385 C 0.18533 0.90555 0.11918 0.0
C386 C 0.173 0.8953 0.12734 0.0
C387 C 0.15615 0.87015 0.13498 0.0
C388 C 0.14626 0.85853 0.12517 0.0
C389 C 0.15446 0.87034 0.1535 0.0
C390 C 0.16503 0.88164 0.16511 0.0
C391 C 0.17915 0.88528 0.16507 0.0
C392 C 0.1888 0.89505 0.17709 0.0
C393 C 0.18444 0.90112 0.18966 0.0
C394 C 0.17036 0.8976 0.18958 0.0
C395 C 0.16076 0.88799 0.17737 0.0
H396 H 0.29126 0.16718 0.86694 0.0
H397 H 0.29159 0.18366 0.84558 0.0
H398 H 0.33337 0.21454 0.86341 0.0
H399 H 0.33315 0.1979 0.8843 0.0
H400 H 0.3084 0.15736 0.86619 0.0
H401 H 0.29848 0.18287 0.90789 0.0
H402 H 0.30219 0.2035 0.92338 0.0
H403 H 0.34197 0.21108 0.94352 0.0
H404 H 0.3384 0.19067 0.92773 0.0
H405 H 0.33933 0.15806 0.9287 0.0
H406 H 0.34417 0.1423 0.94513 0.0
H407 H 0.30514 0.10741 0.92596 0.0
H408 H 0.30002 0.1232 0.91009 0.0
H409 H 0.3207 0.16473 0.93004 0.0
H410 H 0.33462 0.14535 0.88292 0.0
H411 H 0.33446 0.12811 0.86339 0.0
H412 H 0.29003 0.11045 0.85359 0.0
H413 H 0.29051 0.12815 0.87249 0.0
C414 C 0.31214 0.18131 0.8773 0.0
C415 C 0.30042 0.17756 0.86639 0.0
C416 C 0.30058 0.18702 0.85427 0.0
C417 C 0.31253 0.20039 0.85273 0.0
C418 C 0.32406 0.20427 0.86412 0.0
C419 C 0.32389 0.19481 0.87622 0.0
C420 C 0.31264 0.17077 0.88856 0.0
C421 C 0.31079 0.15885 0.88025 0.0
C422 C 0.31624 0.17293 0.90678 0.0
C423 C 0.31823 0.18526 0.91647 0.0
C424 C 0.30807 0.18905 0.91548 0.0
C425 C 0.31018 0.20081 0.92436 0.0
C426 C 0.32237 0.2089 0.93464 0.0
C427 C 0.33241 0.20497 0.93585 0.0
C428 C 0.33037 0.19331 0.92682 0.0
C429 C 0.3194 0.14184 0.91789 0.0
C430 C 0.33172 0.14703 0.92817 0.0
C431 C 0.33449 0.13803 0.93755 0.0
C432 C 0.32507 0.12365 0.9367 0.0
C433 C 0.31267 0.11845 0.92663 0.0
C434 C 0.30978 0.12747 0.91749 0.0
C435 C 0.31674 0.1515 0.90756 0.0
C436 C 0.31814 0.1632 0.91604 0.0
C437 C 0.31303 0.14935 0.88939 0.0
C438 C 0.31258 0.13802 0.8791 0.0
C439 C 0.32484 0.13765 0.87668 0.0
C440 C 0.32469 0.12772 0.86558 0.0
C441 C 0.31224 0.1179 0.85676 0.0
C442 C 0.29987 0.11801 0.85981 0.0
C443 C 0.30008 0.12806 0.87071 0.0
H444 H 0.85155 0.11577 0.85406 0.0
H445 H 0.8329 0.09774 0.83536 0.0
H446 H 0.8054 0.11229 0.85002 0.0
H447 H 0.82386 0.12992 0.86879 0.0
H448 H 0.86356 0.1447 0.85113 0.0
H449 H 0.83848 0.10931 0.89652 0.0
H450 H 0.81777 0.09254 0.9133 0.0
H451 H 0.80924 0.12476 0.92548 0.0
H452 H 0.83003 0.1414 0.90919 0.0
H453 H 0.86346 0.17718 0.90677 0.0
H454 H 0.87856 0.19805 0.92392 0.0
H455 H 0.91322 0.19157 0.91744 0.0
H456 H 0.89807 0.17099 0.89944 0.0
H457 H 0.85702 0.15028 0.91471 0.0
H458 H 0.87556 0.18339 0.86867 0.0
H459 H 0.892 0.20164 0.84891 0.0
H460 H 0.90969 0.17682 0.83526 0.0
H461 H 0.89293 0.15844 0.85488 0.0
C462 C 0.83901 0.12402 0.86304 0.0
C463 C 0.84143 0.11493 0.85333 0.0
C464 C 0.83078 0.10468 0.8426 0.0
C465 C 0.81758 0.10345 0.84128 0.0
C466 C 0.81527 0.11264 0.85104 0.0
C467 C 0.82586 0.12279 0.86177 0.0
C468 C 0.85034 0.13534 0.8738 0.0
C469 C 0.86237 0.14572 0.86518 0.0
C470 C 0.84846 0.13696 0.89192 0.0
C471 C 0.83582 0.12661 0.9017 0.0
C472 C 0.83211 0.11271 0.90283 0.0
C473 C 0.82026 0.10315 0.91238 0.0
C474 C 0.81192 0.10733 0.92091 0.0
C475 C 0.81561 0.12123 0.91949 0.0
C476 C 0.82746 0.13077 0.91009 0.0
C477 C 0.87965 0.17255 0.9019 0.0
C478 C 0.87433 0.1803 0.909 0.0
C479 C 0.88298 0.19219 0.91895 0.0
C480 C 0.89711 0.19645 0.92235 0.0
C481 C 0.90245 0.18871 0.91499 0.0
C482 C 0.89381 0.1769 0.90477 0.0
C483 C 0.87014 0.15966 0.89201 0.0
C484 C 0.85848 0.14902 0.90082 0.0
C485 C 0.87212 0.15803 0.87396 0.0
C486 C 0.88312 0.16961 0.86338 0.0
C487 C 0.88318 0.182 0.86172 0.0
C488 C 0.89262 0.19246 0.85041 0.0
C489 C 0.90219 0.19073 0.84046 0.0
C490 C 0.90235 0.17843 0.84254 0.0
C491 C 0.89284 0.16794 0.85381 0.0
H492 H 0.83068 0.68421 0.85407 0.0
H493 H 0.81485 0.68656 0.83401 0.0
H494 H 0.82253 0.72294 0.8625 0.0
H495 H 0.83838 0.72041 0.88285 0.0
H496 H 0.85815 0.70184 0.85916 0.0
H497 H 0.81645 0.68025 0.89453 0.0
H498 H 0.7965 0.6782 0.9105 0.0
H499 H 0.82492 0.71384 0.94225 0.0
H500 H 0.84491 0.71591 0.92607 0.0
H501 H 0.87967 0.70656 0.93129 0.0
H502 H 0.89263 0.69829 0.9484 0.0
H503 H 0.87812 0.66386 0.91223 0.0
H504 H 0.86484 0.6719 0.89565 0.0
H505 H 0.85172 0.69458 0.92392 0.0
H506 H 0.89384 0.70956 0.89066 0.0
H507 H 0.91164 0.70819 0.87342 0.0
H508 H 0.87979 0.68158 0.83555 0.0
H509 H 0.8619 0.68233 0.85307 0.0
C510 C 0.83577 0.70217 0.8699 0.0
C511 C 0.829 0.69273 0.856 0.0
C512 C 0.82001 0.69413 0.84447 0.0
C513 C 0.81762 0.70509 0.84646 0.0
C514 C 0.82415 0.7144 0.86064 0.0
C515 C 0.8332 0.71296 0.87226 0.0
C516 C 0.84579 0.70072 0.88143 0.0
C517 C 0.85673 0.70017 0.87332 0.0
C518 C 0.84417 0.69901 0.89995 0.0
C519 C 0.83213 0.69829 0.90905 0.0
C520 C 0.81838 0.68773 0.90478 0.0
C521 C 0.80701 0.68652 0.91398 0.0
C522 C 0.80918 0.69585 0.92764 0.0
C523 C 0.82295 0.70659 0.93168 0.0
C524 C 0.83435 0.70773 0.92254 0.0
C525 C 0.87146 0.68997 0.91205 0.0
C526 C 0.87923 0.69719 0.92714 0.0
C527 C 0.88671 0.6925 0.93682 0.0
C528 C 0.88646 0.68043 0.93165 0.0
C529 C 0.87844 0.6731 0.9167 0.0
C530 C 0.87096 0.67778 0.90708 0.0
C531 C 0.86373 0.69502 0.90149 0.0
C532 C 0.85334 0.69646 0.90981 0.0
C533 C 0.86562 0.69717 0.883 0.0
C534 C 0.87648 0.69602 0.87322 0.0
C535 C 0.89061 0.70318 0.87888 0.0
C536 C 0.90077 0.70245 0.86904 0.0
C537 C 0.89697 0.6948 0.85326 0.0
C538 C 0.88289 0.68755 0.8477 0.0
C539 C 0.87272 0.68806 0.85765 0.0
H540 H 0.80957 0.66444 0.50736 0.0
H541 H 0.79221 0.66637 0.52443 0.0
H542 H 0.75885 0.63286 0.49404 0.0
H543 H 0.77631 0.63072 0.47731 0.0
H544 H 0.81357 0.64341 0.506 0.0
H545 H 0.80486 0.66961 0.46472 0.0
H546 H 0.79007 0.67551 0.44757 0.0
H547 H 0.77254 0.63689 0.41892 0.0
H548 H 0.78756 0.63111 0.4361 0.0
H549 H 0.82332 0.62344 0.44074 0.0
H550 H 0.84255 0.62325 0.42562 0.0
H551 H 0.87252 0.66084 0.45318 0.0
H552 H 0.85334 0.66072 0.46845 0.0
H553 H 0.81664 0.64456 0.44051 0.0
H554 H 0.82957 0.62082 0.48457 0.0
H555 H 0.84492 0.61791 0.50527 0.0
H556 H 0.85752 0.6575 0.52898 0.0
H557 H 0.84197 0.66012 0.50866 0.0
C558 C 0.79425 0.64744 0.49107 0.0
C559 C 0.79852 0.65755 0.50432 0.0
C560 C 0.78858 0.65874 0.51393 0.0
C561 C 0.77414 0.64979 0.51055 0.0
C562 C 0.76989 0.63984 0.49703 0.0
C563 C 0.77986 0.63867 0.48738 0.0
C564 C 0.80488 0.64576 0.48162 0.0
C565 C 0.81429 0.64374 0.49168 0.0
C566 C 0.80575 0.6461 0.46294 0.0
C567 C 0.79716 0.64983 0.45186 0.0
C568 C 0.7978 0.66239 0.45478 0.0
C569 C 0.7893 0.66573 0.445 0.0
C570 C 0.78 0.6566 0.432 0.0
C571 C 0.77965 0.64418 0.42876 0.0
C572 C 0.78819 0.64084 0.43858 0.0
C573 C 0.83693 0.642 0.45586 0.0
C574 C 0.83406 0.63158 0.44354 0.0
C575 C 0.84506 0.63152 0.43488 0.0
C576 C 0.85912 0.64197 0.43826 0.0
C577 C 0.86188 0.65244 0.45054 0.0
C578 C 0.85091 0.65243 0.45924 0.0
C579 C 0.82537 0.64225 0.46495 0.0
C580 C 0.81576 0.644 0.45481 0.0
C581 C 0.82461 0.64214 0.48362 0.0
C582 C 0.83458 0.64065 0.49516 0.0
C583 C 0.83574 0.6289 0.49417 0.0
C584 C 0.84454 0.62727 0.50597 0.0
C585 C 0.85233 0.63739 0.51895 0.0
C586 C 0.85143 0.64934 0.51947 0.0
C587 C 0.84259 0.6509 0.50779 0.0
H588 H 0.38046 0.21253 0.49387 0.0
H589 H 0.38112 0.23092 0.51152 0.0
H590 H 0.33608 0.21125 0.50527 0.0
H591 H 0.33568 0.1933 0.48705 0.0
H592 H 0.36465 0.1837 0.50176 0.0
H593 H 0.36993 0.21432 0.45404 0.0
H594 H 0.36431 0.22951 0.43754 0.0
H595 H 0.32186 0.19519 0.4294 0.0
H596 H 0.32752 0.18005 0.44607 0.0
H597 H 0.3305 0.14574 0.44665 0.0
H598 H 0.32703 0.12501 0.4318 0.0
H599 H 0.3704 0.13822 0.44236 0.0
H600 H 0.37388 0.15911 0.4569 0.0
H601 H 0.34715 0.17278 0.4398 0.0
H602 H 0.34126 0.14194 0.4862 0.0
H603 H 0.34468 0.12675 0.50582 0.0
H604 H 0.38633 0.16066 0.51906 0.0
H605 H 0.38297 0.17582 0.49905 0.0
C606 C 0.35805 0.20161 0.48911 0.0
C607 C 0.37077 0.2123 0.4962 0.0
C608 C 0.3711 0.22275 0.50638 0.0
C609 C 0.35864 0.22258 0.50997 0.0
C610 C 0.34592 0.21191 0.50259 0.0
C611 C 0.34565 0.20156 0.49223 0.0
C612 C 0.35754 0.19008 0.47918 0.0
C613 C 0.36115 0.18146 0.48808 0.0
C614 C 0.35249 0.18695 0.46157 0.0
C615 C 0.34912 0.19608 0.45136 0.0
C616 C 0.35941 0.21008 0.44875 0.0
C617 C 0.35621 0.21872 0.43922 0.0
C618 C 0.34265 0.21353 0.43219 0.0
C619 C 0.33237 0.1995 0.4348 0.0
C620 C 0.3356 0.19083 0.4442 0.0
C621 C 0.35242 0.15394 0.45298 0.0
C622 C 0.33929 0.14422 0.44566 0.0
C623 C 0.33729 0.13232 0.43732 0.0
C624 C 0.34842 0.12994 0.43599 0.0
C625 C 0.36164 0.1398 0.44306 0.0
C626 C 0.36362 0.15169 0.45148 0.0
C627 C 0.35431 0.16631 0.46236 0.0
C628 C 0.3509 0.17509 0.45339 0.0
C629 C 0.35943 0.16949 0.48001 0.0
C630 C 0.36193 0.16 0.49092 0.0
C631 C 0.35128 0.14604 0.49291 0.0
C632 C 0.35325 0.13736 0.50416 0.0
C633 C 0.36582 0.1425 0.51389 0.0
C634 C 0.37653 0.15643 0.51175 0.0
C635 C 0.37462 0.16509 0.50034 0.0
H636 H 0.77787 0.17819 0.50586 0.0
H637 H 0.76117 0.1588 0.52429 0.0
H638 H 0.78002 0.13549 0.50829 0.0
H639 H 0.79632 0.15473 0.48953 0.0
H640 H 0.80782 0.1924 0.50909 0.0
H641 H 0.77135 0.16469 0.46565 0.0
H642 H 0.75568 0.14266 0.45065 0.0
H643 H 0.79176 0.14273 0.43024 0.0
H644 H 0.80729 0.16427 0.44593 0.0
H645 H 0.83829 0.19653 0.44652 0.0
H646 H 0.85967 0.21317 0.43136 0.0
H647 H 0.85654 0.24675 0.45306 0.0
H648 H 0.83451 0.22991 0.46728 0.0
H649 H 0.81269 0.18913 0.44443 0.0
H650 H 0.84645 0.20676 0.49216 0.0
H651 H 0.865 0.22407 0.51124 0.0
H652 H 0.83874 0.24053 0.52386 0.0
H653 H 0.81996 0.22266 0.50526 0.0
C654 C 0.78823 0.16784 0.49624 0.0
C655 C 0.77828 0.16883 0.50624 0.0
C656 C 0.76881 0.15776 0.51683 0.0
C657 C 0.76926 0.14556 0.51785 0.0
C658 C 0.77918 0.14459 0.50763 0.0
C659 C 0.78857 0.15562 0.49695 0.0
C660 C 0.79879 0.17981 0.48576 0.0
C661 C 0.80869 0.19184 0.49487 0.0
C662 C 0.8002 0.17883 0.46732 0.0
C663 C 0.79052 0.16607 0.45714 0.0
C664 C 0.77587 0.15992 0.458 0.0
C665 C 0.76692 0.14739 0.44926 0.0
C666 C 0.77246 0.14086 0.43937 0.0
C667 C 0.78713 0.14733 0.43802 0.0
C668 C 0.79604 0.15975 0.44684 0.0
C669 C 0.83481 0.21192 0.45822 0.0
C670 C 0.84207 0.20746 0.44783 0.0
C671 C 0.85444 0.21703 0.43935 0.0
C672 C 0.86 0.23134 0.44119 0.0
C673 C 0.85256 0.23582 0.45128 0.0
C674 C 0.84003 0.22619 0.45961 0.0
C675 C 0.82201 0.20153 0.46784 0.0
C676 C 0.81162 0.18986 0.45857 0.0
C677 C 0.82049 0.20251 0.48625 0.0
C678 C 0.83189 0.21352 0.49723 0.0
C679 C 0.84474 0.21417 0.49897 0.0
C680 C 0.85539 0.22417 0.50981 0.0
C681 C 0.85347 0.23383 0.51907 0.0
C682 C 0.84057 0.23318 0.51715 0.0
C683 C 0.82984 0.22304 0.50644 0.0
H684 H 0.972 0.50708 0.19727 0.0
H685 H 0.97083 0.52299 0.17625 0.0
H686 H 0.01338 0.55458 0.19029 0.0
H687 H 0.0146 0.53856 0.21094 0.0
H688 H 0.98925 0.49741 0.19487 0.0
H689 H 0.97957 0.52121 0.23887 0.0
H690 H 0.9821 0.54135 0.25431 0.0
H691 H 0.025 0.5545 0.26792 0.0
H692 H 0.02247 0.53441 0.25218 0.0
H693 H 0.02452 0.49899 0.25183 0.0
H694 H 0.0294 0.4831 0.26787 0.0
H695 H 0.9867 0.44968 0.25819 0.0
H696 H 0.98199 0.46557 0.24199 0.0
H697 H 0.00556 0.50703 0.25738 0.0
H698 H 0.01598 0.48536 0.20905 0.0
H699 H 0.01403 0.46699 0.19007 0.0
H700 H 0.96919 0.44965 0.18549 0.0
H701 H 0.97143 0.46846 0.20378 0.0
C702 C 0.99336 0.52163 0.20574 0.0
C703 C 0.98101 0.51749 0.19597 0.0
C704 C 0.98032 0.52662 0.18406 0.0
C705 C 0.99204 0.54001 0.18156 0.0
C706 C 0.00422 0.54428 0.1918 0.0
C707 C 0.00489 0.53518 0.20374 0.0
C708 C 0.99471 0.51149 0.21678 0.0
C709 C 0.99252 0.49939 0.20866 0.0
C710 C 0.99934 0.51423 0.23463 0.0
C711 C 0.00086 0.52636 0.24426 0.0
C712 C 0.98954 0.52846 0.2451 0.0
C713 C 0.99097 0.53992 0.25405 0.0
C714 C 0.00376 0.54952 0.26232 0.0
C715 C 0.01507 0.54736 0.26152 0.0
C716 C 0.01361 0.53584 0.25265 0.0
C717 C 0.00294 0.48344 0.24555 0.0
C718 C 0.01621 0.48824 0.25323 0.0
C719 C 0.01896 0.47915 0.26245 0.0
C720 C 0.00846 0.46508 0.26427 0.0
C721 C 0.99511 0.46037 0.25677 0.0
C722 C 0.99238 0.46946 0.24754 0.0
C723 C 0.00015 0.49301 0.23537 0.0
C724 C 0.00213 0.50501 0.24366 0.0
C725 C 0.99527 0.49019 0.21767 0.0
C726 C 0.99385 0.47826 0.20775 0.0
C727 C 0.00573 0.47749 0.20407 0.0
C728 C 0.00456 0.46692 0.19328 0.0
C729 C 0.99145 0.45684 0.18608 0.0
C730 C 0.9795 0.45738 0.19043 0.0
C731 C 0.98072 0.46807 0.20099 0.0
H732 H 0.51539 0.45467 0.18734 0.0
H733 H 0.49728 0.43695 0.1678 0.0
H734 H 0.46598 0.4427 0.19255 0.0
H735 H 0.4841 0.46071 0.21153 0.0
H736 H 0.52414 0.48149 0.18935 0.0
H737 H 0.50158 0.44274 0.23113 0.0
H738 H 0.47973 0.42418 0.24419 0.0
H739 H 0.47194 0.45479 0.26592 0.0
H740 H 0.49345 0.47319 0.25246 0.0
H741 H 0.52696 0.51142 0.24854 0.0
H742 H 0.54362 0.53276 0.26384 0.0
H743 H 0.5767 0.52435 0.25435 0.0
H744 H 0.56 0.5035 0.23789 0.0
H745 H 0.52045 0.48256 0.25463 0.0
H746 H 0.5353 0.51831 0.21188 0.0
H747 H 0.55124 0.5385 0.19417 0.0
H748 H 0.57018 0.51641 0.1738 0.0
H749 H 0.55404 0.49616 0.19149 0.0
C750 C 0.5011 0.45887 0.20115 0.0
C751 C 0.50462 0.45206 0.18862 0.0
C752 C 0.49429 0.44194 0.17751 0.0
C753 C 0.48023 0.43837 0.17884 0.0
C754 C 0.47669 0.44505 0.19151 0.0
C755 C 0.48705 0.45533 0.20239 0.0
C756 C 0.51222 0.47019 0.21224 0.0
C757 C 0.52352 0.4815 0.20366 0.0
C758 C 0.51113 0.47055 0.23089 0.0
C759 C 0.49904 0.45933 0.24062 0.0
C760 C 0.4952 0.44543 0.23883 0.0
C761 C 0.48278 0.43485 0.24638 0.0
C762 C 0.47406 0.43805 0.25587 0.0
C763 C 0.47833 0.45201 0.25841 0.0
C764 C 0.4907 0.46254 0.25088 0.0
C765 C 0.54228 0.50594 0.24214 0.0
C766 C 0.5378 0.51418 0.24988 0.0
C767 C 0.54737 0.52636 0.25875 0.0
C768 C 0.5616 0.53037 0.26051 0.0
C769 C 0.56594 0.52182 0.25305 0.0
C770 C 0.55639 0.5098 0.24379 0.0
C771 C 0.53228 0.49363 0.23168 0.0
C772 C 0.52127 0.48223 0.24037 0.0
C773 C 0.53333 0.49335 0.21312 0.0
C774 C 0.54361 0.50581 0.20314 0.0
C775 C 0.54306 0.51791 0.20384 0.0
C776 C 0.55219 0.52945 0.19372 0.0
C777 C 0.56199 0.52908 0.18257 0.0
C778 C 0.56264 0.51698 0.18209 0.0
C779 C 0.55348 0.50543 0.19223 0.0
H780 H 0.54904 0.04385 0.19562 0.0
H781 H 0.56697 0.04406 0.17714 0.0
H782 H 0.54809 1.00004 0.18577 0.0
H783 H 0.53063 0.00014 0.20489 0.0
H784 H 0.51918 0.02683 0.18921 0.0
H785 H 0.55387 0.03435 0.23335 0.0
H786 H 0.56977 0.02912 0.24926 0.0
H787 H 0.53428 0.99001 0.26607 0.0
H788 H 0.51843 0.99513 0.24984 0.0
H789 H 0.48464 0.9963 0.24797 0.0
H790 H 0.46365 0.99263 0.26291 0.0
H791 H 0.47419 0.0339 0.24829 0.0
H792 H 0.49537 0.03762 0.2336 0.0
H793 H 0.51204 0.01404 0.25275 0.0
H794 H 0.47853 0.00237 0.20718 0.0
H795 H 0.46094 0.00263 0.18802 0.0
H796 H 0.49149 0.04434 0.17173 0.0
H797 H 0.50903 0.04416 0.19141 0.0
C798 C 0.53857 0.022 0.20164 0.0
C799 C 0.54889 0.0343 0.19363 0.0
C800 C 0.55907 0.03435 0.18297 0.0
C801 C 0.55896 0.02204 0.1798 0.0
C802 C 0.54868 0.00976 0.18809 0.0
C803 C 0.53862 0.00977 0.19895 0.0
C804 C 0.52732 0.0218 0.21208 0.0
C805 C 0.51779 0.02437 0.20321 0.0
C806 C 0.52524 0.01798 0.23014 0.0
C807 C 0.53495 0.01505 0.24017 0.0
C808 C 0.54951 0.02457 0.24028 0.0
C809 C 0.55859 0.0216 0.24941 0.0
C810 C 0.55326 0.00914 0.25886 0.0
C811 C 0.53867 0.99974 0.25903 0.0
C812 C 0.52961 0.00266 0.24975 0.0
C813 C 0.49152 0.01719 0.23958 0.0
C814 C 0.48251 0.00461 0.24812 0.0
C815 C 0.47046 0.00248 0.25651 0.0
C816 C 0.46722 0.01294 0.25664 0.0
C817 C 0.47645 0.02568 0.24847 0.0
C818 C 0.48849 0.02778 0.23998 0.0
C819 C 0.50387 0.01904 0.22986 0.0
C820 C 0.51358 0.01678 0.23883 0.0
C821 C 0.5059 0.02271 0.21174 0.0
C822 C 0.49506 0.02331 0.20089 0.0
C823 C 0.48139 0.01168 0.19976 0.0
C824 C 0.47138 0.01179 0.18864 0.0
C825 C 0.47484 0.02348 0.17828 0.0
C826 C 0.48847 0.03523 0.17967 0.0
C827 C 0.49851 0.03511 0.19081 0.0
H828 H 0.48061 0.00483 0.84229 0.0
H829 H 0.46257 0.0056 0.8594 0.0
H830 H 0.43034 0.97296 0.82679 0.0
H831 H 0.44844 0.97194 0.81008 0.0
H832 H 0.48589 0.98495 0.83918 0.0
H833 H 0.47662 0.01159 0.80008 0.0
H834 H 0.46166 0.01783 0.78396 0.0
H835 H 0.44502 0.98062 0.75246 0.0
H836 H 0.45985 0.97424 0.76904 0.0
H837 H 0.49543 0.96485 0.77571 0.0
H838 H 0.51451 0.96403 0.76119 0.0
H839 H 0.54446 0.00413 0.7835 0.0
H840 H 0.5254 0.00451 0.79847 0.0
H841 H 0.48872 0.98744 0.77366 0.0
H842 H 0.50467 0.96495 0.81569 0.0
H843 H 0.52291 0.96455 0.83359 0.0
H844 H 0.53102 0.00164 0.86065 0.0
H845 H 0.51332 0.00231 0.8423 0.0
C846 C 0.46588 0.98834 0.8249 0.0
C847 C 0.46965 0.99786 0.83881 0.0
C848 C 0.45934 0.99839 0.84844 0.0
C849 C 0.44502 0.98937 0.84442 0.0
C850 C 0.44127 0.97998 0.8303 0.0
C851 C 0.45161 0.97945 0.82066 0.0
C852 C 0.47687 0.98744 0.81517 0.0
C853 C 0.48654 0.98556 0.82486 0.0
C854 C 0.47779 0.98834 0.7965 0.0
C855 C 0.4692 0.99235 0.78592 0.0
C856 C 0.46974 0.00476 0.78971 0.0
C857 C 0.46128 0.00838 0.78037 0.0
C858 C 0.45214 0.99972 0.76693 0.0
C859 C 0.45184 0.98743 0.76287 0.0
C860 C 0.46036 0.98382 0.77223 0.0
C861 C 0.50906 0.98469 0.78822 0.0
C862 C 0.50613 0.97344 0.77739 0.0
C863 C 0.51705 0.97303 0.76907 0.0
C864 C 0.53108 0.98397 0.77125 0.0
C865 C 0.53386 0.99536 0.78185 0.0
C866 C 0.52297 0.99568 0.79029 0.0
C867 C 0.49765 0.98487 0.79772 0.0
C868 C 0.48789 0.98661 0.78795 0.0
C869 C 0.49708 0.98451 0.81641 0.0
C870 C 0.50774 0.98376 0.82751 0.0
C871 C 0.5105 0.97307 0.82536 0.0
C872 C 0.52083 0.97277 0.83571 0.0
C873 C 0.52853 0.98314 0.84844 0.0
C874 C 0.52552 0.99366 0.85072 0.0
C875 C 0.51528 0.99397 0.84037 0.0
H876 H 0.02355 0.53117 0.83658 0.0
H877 H 0.02376 0.54922 0.8543 0.0
H878 H 0.9845 0.53986 0.82995 0.0
H879 H 0.98396 0.52125 0.81303 0.0
H880 H 0.00615 0.50445 0.83695 0.0
H881 H 0.01992 0.54009 0.79311 0.0
H882 H 0.01738 0.55717 0.77619 0.0
H883 H 0.97805 0.52433 0.75441 0.0
H884 H 0.98055 0.50732 0.7715 0.0
H885 H 0.98127 0.47276 0.77299 0.0
H886 H 0.97946 0.45297 0.75746 0.0
H887 H 0.01906 0.46234 0.78054 0.0
H888 H 0.02091 0.48224 0.79589 0.0
H889 H 0.9992 0.49965 0.77188 0.0
H890 H 0.9849 0.46423 0.8157 0.0
H891 H 0.9857 0.44709 0.83454 0.0
H892 H 0.02477 0.47936 0.85772 0.0
H893 H 0.0243 0.49631 0.83809 0.0
C894 C 0.00382 0.52491 0.82332 0.0
C895 C 0.01497 0.53299 0.83507 0.0
C896 C 0.01515 0.54344 0.84506 0.0
C897 C 0.00419 0.54611 0.8435 0.0
C898 C 0.99305 0.53804 0.83164 0.0
C899 C 0.99282 0.52748 0.82177 0.0
C900 C 0.00353 0.5135 0.81323 0.0
C901 C 0.00489 0.50354 0.82267 0.0
C902 C 0.00145 0.51208 0.79465 0.0
C903 C 0.00033 0.52243 0.78377 0.0
C904 C 0.01071 0.53658 0.78476 0.0
C905 C 0.00926 0.54632 0.77509 0.0
C906 C 0.99749 0.54209 0.76403 0.0
C907 C 0.9873 0.5279 0.76269 0.0
C908 C 0.98871 0.51817 0.77247 0.0
C909 C 0.00114 0.47892 0.78578 0.0
C910 C 0.98963 0.47063 0.77459 0.0
C911 C 0.98861 0.45932 0.76571 0.0
C912 C 0.99908 0.45605 0.76785 0.0
C913 C 0.01072 0.46447 0.77885 0.0
C914 C 0.01179 0.47585 0.78762 0.0
C915 C 0.0019 0.49064 0.79563 0.0
C916 C 0.0006 0.50063 0.78614 0.0
C917 C 0.004 0.49209 0.8142 0.0
C918 C 0.00463 0.48155 0.82531 0.0
C919 C 0.99378 0.46758 0.82458 0.0
C920 C 0.99417 0.4578 0.83555 0.0
C921 C 0.00528 0.46183 0.84772 0.0
C922 C 0.01617 0.47583 0.84834 0.0
C923 C 0.01584 0.48558 0.83725 0.0
H924 H 0.45123 0.50935 0.84424 0.0
H925 H 0.43426 0.48998 0.86223 0.0
H926 H 0.44279 0.46242 0.83295 0.0
H927 H 0.46056 0.48203 0.81611 0.0
H928 H 0.47838 0.51996 0.8432 0.0
H929 H 0.44105 0.49853 0.79735 0.0
H930 H 0.42415 0.4786 0.7794 0.0
H931 H 0.45802 0.47409 0.76054 0.0
H932 H 0.47472 0.49411 0.77796 0.0
H933 H 0.50759 0.52675 0.77875 0.0
H934 H 0.52923 0.54373 0.76428 0.0
H935 H 0.5277 0.57679 0.7905 0.0
H936 H 0.50552 0.55967 0.80434 0.0
H937 H 0.48209 0.52069 0.77786 0.0
H938 H 0.51799 0.53669 0.82165 0.0
H939 H 0.53719 0.55269 0.84108 0.0
H940 H 0.50951 0.56326 0.86663 0.0
H941 H 0.49048 0.5477 0.84644 0.0
C942 C 0.45705 0.49717 0.8286 0.0
C943 C 0.44939 0.49912 0.84167 0.0
C944 C 0.43956 0.48796 0.85183 0.0
C945 C 0.43705 0.47454 0.84907 0.0
C946 C 0.44452 0.47259 0.83567 0.0
C947 C 0.45454 0.4838 0.82575 0.0
C948 C 0.46837 0.50926 0.81892 0.0
C949 C 0.479 0.52031 0.82887 0.0
C950 C 0.4695 0.50945 0.80027 0.0
C951 C 0.45914 0.49781 0.78896 0.0
C952 C 0.44479 0.49328 0.78921 0.0
C953 C 0.43515 0.48186 0.779 0.0
C954 C 0.4397 0.47476 0.76841 0.0
C955 C 0.45413 0.47947 0.76815 0.0
C956 C 0.46372 0.4909 0.7782 0.0
C957 C 0.50496 0.5419 0.79277 0.0
C958 C 0.51178 0.53766 0.78121 0.0
C959 C 0.52427 0.54739 0.7731 0.0
C960 C 0.53033 0.56162 0.77644 0.0
C961 C 0.52329 0.56591 0.78761 0.0
C962 C 0.51068 0.55613 0.79565 0.0
C963 C 0.49218 0.53128 0.80214 0.0
C964 C 0.48126 0.52057 0.79216 0.0
C965 C 0.49106 0.53111 0.8208 0.0
C966 C 0.50284 0.54116 0.83236 0.0
C967 C 0.51611 0.54265 0.83119 0.0
C968 C 0.52705 0.55169 0.8425 0.0
C969 C 0.52491 0.55926 0.8555 0.0
C970 C 0.5116 0.55776 0.85663 0.0
C971 C 0.50067 0.54878 0.84519 0.0
H972 H 0.61995 0.83019 0.53156 0.0
H973 H 0.61873 0.84719 0.51271 0.0
H974 H 0.66242 0.87694 0.52454 0.0
H975 H 0.66338 0.86006 0.54368 0.0
H976 H 0.63797 0.82038 0.52652 0.0
H977 H 0.62915 0.84497 0.57104 0.0
H978 H 0.63366 0.86589 0.58648 0.0
H979 H 0.67448 0.87398 0.60284 0.0
H980 H 0.67007 0.85322 0.58709 0.0
H981 H 0.67042 0.81987 0.58721 0.0
H982 H 0.67509 0.80372 0.60268 0.0
H983 H 0.636 0.76942 0.58227 0.0
H984 H 0.6309 0.78567 0.56809 0.0
H985 H 0.6523 0.82689 0.58976 0.0
H986 H 0.66502 0.80821 0.54126 0.0
H987 H 0.66486 0.79162 0.52054 0.0
H988 H 0.62056 0.7746 0.51055 0.0
H989 H 0.621 0.79161 0.53078 0.0
C990 C 0.64171 0.84392 0.53913 0.0
C991 C 0.62919 0.84045 0.53023 0.0
C992 C 0.62854 0.85016 0.51938 0.0
C993 C 0.64047 0.86347 0.51707 0.0
C994 C 0.65294 0.86692 0.52626 0.0
C995 C 0.65354 0.85725 0.53717 0.0
C996 C 0.64277 0.83333 0.54948 0.0
C997 C 0.6408 0.82164 0.54046 0.0
C998 C 0.64702 0.83531 0.56748 0.0
C999 C 0.64934 0.84758 0.57767 0.0
C1000 C 0.63912 0.85129 0.57783 0.0
C1001 C 0.64169 0.86324 0.58668 0.0
C1002 C 0.65445 0.8716 0.59581 0.0
C1003 C 0.6645 0.86768 0.59605 0.0
C1004 C 0.66199 0.85581 0.58705 0.0
C1005 C 0.65039 0.80403 0.57623 0.0
C1006 C 0.66278 0.80888 0.58624 0.0
C1007 C 0.66552 0.79958 0.59491 0.0
C1008 C 0.65601 0.78519 0.59366 0.0
C1009 C 0.64353 0.7804 0.58377 0.0
C1010 C 0.64069 0.78971 0.57536 0.0
C1011 C 0.64767 0.81396 0.56672 0.0
C1012 C 0.64929 0.82552 0.57589 0.0
C1013 C 0.64348 0.81211 0.54869 0.0
C1014 C 0.64302 0.80112 0.53755 0.0
C1015 C 0.65525 0.80078 0.53475 0.0
C1016 C 0.65511 0.79123 0.52294 0.0
C1017 C 0.6427 0.78178 0.51374 0.0
C1018 C 0.63037 0.78188 0.51709 0.0
C1019 C 0.63056 0.79154 0.52874 0.0
H1020 H 0.17725 0.78736 0.52614 0.0
H1021 H 0.1591 0.77178 0.50495 0.0
H1022 H 0.12974 0.78084 0.5288 0.0
H1023 H 0.14799 0.79672 0.54942 0.0
H1024 H 0.18776 0.81498 0.52826 0.0
H1025 H 0.16454 0.77636 0.56982 0.0
H1026 H 0.14369 0.75793 0.58474 0.0
H1027 H 0.13493 0.78844 0.60457 0.0
H1028 H 0.15587 0.80668 0.59013 0.0
H1029 H 0.18772 0.84082 0.5927 0.0
H1030 H 0.20282 0.86239 0.60857 0.0
H1031 H 0.23948 0.86352 0.58829 0.0
H1032 H 0.22424 0.84149 0.57301 0.0
H1033 H 0.18306 0.81585 0.59334 0.0
H1034 H 0.20187 0.8532 0.55205 0.0
H1035 H 0.21948 0.87302 0.53519 0.0
H1036 H 0.2327 0.84705 0.51122 0.0
H1037 H 0.21573 0.82756 0.52907 0.0
C1038 C 0.16396 0.79311 0.53949 0.0
C1039 C 0.16684 0.78584 0.52692 0.0
C1040 C 0.15644 0.77687 0.5149 0.0
C1041 C 0.143 0.77512 0.51515 0.0
C1042 C 0.14003 0.78208 0.52814 0.0
C1043 C 0.15042 0.79103 0.54009 0.0
C1044 C 0.17535 0.80385 0.55086 0.0
C1045 C 0.18697 0.815 0.54256 0.0
C1046 C 0.17402 0.8041 0.56942 0.0
C1047 C 0.16176 0.79289 0.5789 0.0
C1048 C 0.15815 0.77903 0.57751 0.0
C1049 C 0.1462 0.76852 0.58598 0.0
C1050 C 0.13764 0.77168 0.59596 0.0
C1051 C 0.14142 0.78561 0.59739 0.0
C1052 C 0.15337 0.79608 0.58905 0.0
C1053 C 0.20482 0.83959 0.58149 0.0
C1054 C 0.19901 0.84556 0.5919 0.0
C1055 C 0.20766 0.858 0.6008 0.0
C1056 C 0.22236 0.86481 0.59946 0.0
C1057 C 0.22821 0.85853 0.58963 0.0
C1058 C 0.21951 0.84599 0.58078 0.0
C1059 C 0.19539 0.82711 0.57072 0.0
C1060 C 0.18415 0.81564 0.57911 0.0
C1061 C 0.19682 0.82678 0.55215 0.0
C1062 C 0.20767 0.83894 0.54211 0.0
C1063 C 0.20879 0.85186 0.54347 0.0
C1064 C 0.21875 0.86316 0.5336 0.0
C1065 C 0.22759 0.8617 0.52182 0.0
C1066 C 0.22633 0.84869 0.52041 0.0
C1067 C 0.21651 0.83746 0.53048 0.0
H1068 H 0.15776 0.34424 0.5242 0.0
H1069 H 0.14097 0.34743 0.50683 0.0
H1070 H 0.15978 0.38909 0.52708 0.0
H1071 H 0.17639 0.38572 0.54482 0.0
H1072 H 0.18807 0.36109 0.52213 0.0
H1073 H 0.15143 0.34268 0.56337 0.0
H1074 H 0.13225 0.34095 0.58074 0.0
H1075 H 0.16132 0.3797 0.60655 0.0
H1076 H 0.18062 0.38139 0.58899 0.0
H1077 H 0.21784 0.37532 0.58974 0.0
H1078 H 0.23385 0.3705 0.60626 0.0
H1079 H 0.21737 0.33199 0.5777 0.0
H1080 H 0.20138 0.33679 0.5614 0.0
H1081 H 0.18919 0.36101 0.58779 0.0
H1082 H 0.22686 0.37597 0.54311 0.0
H1083 H 0.2425 0.37325 0.52335 0.0
H1084 H 0.20713 0.33454 0.50434 0.0
H1085 H 0.19157 0.33777 0.52342 0.0
C1086 C 0.16827 0.36474 0.53578 0.0
C1087 C 0.15821 0.35402 0.52497 0.0
C1088 C 0.14861 0.35584 0.51514 0.0
C1089 C 0.14912 0.3685 0.51566 0.0
C1090 C 0.15923 0.37925 0.52644 0.0
C1091 C 0.16865 0.37732 0.53658 0.0
C1092 C 0.17862 0.36286 0.54585 0.0
C1093 C 0.18832 0.36107 0.53649 0.0
C1094 C 0.17889 0.36278 0.56452 0.0
C1095 C 0.1674 0.36221 0.57482 0.0
C1096 C 0.15367 0.35086 0.57267 0.0
C1097 C 0.14275 0.34983 0.58269 0.0
C1098 C 0.14533 0.36015 0.59505 0.0
C1099 C 0.15906 0.37164 0.59706 0.0
C1100 C 0.17006 0.37259 0.58712 0.0
C1101 C 0.2086 0.35656 0.57408 0.0
C1102 C 0.21769 0.36584 0.58706 0.0
C1103 C 0.2268 0.36306 0.59652 0.0
C1104 C 0.22696 0.35092 0.59318 0.0
C1105 C 0.21772 0.34157 0.58033 0.0
C1106 C 0.20858 0.34432 0.57097 0.0
C1107 C 0.19887 0.35945 0.56407 0.0
C1108 C 0.18922 0.36141 0.57344 0.0
C1109 C 0.19836 0.35926 0.54535 0.0
C1110 C 0.20808 0.35712 0.53458 0.0
C1111 C 0.22255 0.36688 0.53471 0.0
C1112 C 0.23148 0.36524 0.52349 0.0
C1113 C 0.22609 0.35373 0.51207 0.0
C1114 C 0.21163 0.34372 0.51257 0.0
C1115 C 0.20271 0.34549 0.52355 0.0
H1116 H 0.99836 0.37389 0.07219 0.0
H1117 H 0.00177 0.38867 0.09779 0.0
H1118 H 0.96402 0.38824 0.08363 0.0
H1119 H 0.96038 0.37339 0.05834 0.0
H1120 H 0.98906 0.41534 0.08848 0.0
H1121 H 0.96239 0.37045 0.11716 0.0
H1122 H 0.95817 0.34767 0.12644 0.0
H1123 H 0.9973 0.36754 0.15518 0.0
H1124 H 0.00185 0.39045 0.14586 0.0
H1125 H 0.97446 0.44659 0.15672 0.0
H1126 H 0.97317 0.43012 0.13513 0.0
H1127 H 0.00533 0.4274 0.16369 0.0
H1128 H 0.00603 0.44326 0.18616 0.0
H1129 H 0.98628 0.4027 0.15189 0.0
H1130 H 0.01297 0.44718 0.12575 0.0
H1131 H 0.01878 0.47047 0.11634 0.0
H1132 H 0.98238 0.45246 0.08236 0.0
H1133 H 0.97623 0.42905 0.09175 0.0
C1134 C 0.9907 0.37681 0.07467 0.0
C1135 C 0.97912 0.37248 0.06319 0.0
C1136 C 0.99266 0.38523 0.08929 0.0
C1137 C 0.98315 0.38955 0.09252 0.0
C1138 C 0.97147 0.38502 0.08131 0.0
C1139 C 0.9694 0.37649 0.06689 0.0
C1140 C 0.98565 0.39939 0.10697 0.0
C1141 C 0.98835 0.41256 0.10236 0.0
C1142 C 0.98529 0.39591 0.12502 0.0
C1143 C 0.98254 0.38215 0.13063 0.0
C1144 C 0.97016 0.36996 0.12531 0.0
C1145 C 0.96769 0.35703 0.13061 0.0
C1146 C 0.97748 0.35616 0.14134 0.0
C1147 C 0.98974 0.36823 0.14684 0.0
C1148 C 0.99226 0.38119 0.14156 0.0
C1149 C 0.98107 0.44231 0.15871 0.0
C1150 C 0.99037 0.44633 0.17326 0.0
C1151 C 0.98048 0.43302 0.14615 0.0
C1152 C 0.98939 0.42775 0.14753 0.0
C1153 C 0.99843 0.43142 0.16224 0.0
C1154 C 0.99892 0.44061 0.17499 0.0
C1155 C 0.98929 0.41858 0.13342 0.0
C1156 C 0.98713 0.40557 0.13805 0.0
C1157 C 0.99041 0.42229 0.11532 0.0
C1158 C 0.99408 0.43636 0.10957 0.0
C1159 C 0.00615 0.44819 0.11636 0.0
C1160 C 0.00951 0.46141 0.11102 0.0
C1161 C 0.00094 0.46294 0.09879 0.0
C1162 C 0.98901 0.45125 0.09184 0.0
C1163 C 0.98558 0.438 0.09716 0.0
H1164 H 0.00357 0.47319 0.09467 0.0
H1165 H 0.97554 0.34613 0.14544 0.0
H1166 H 0.64579 0.60574 0.06714 0.0
H1167 H 0.63347 0.59397 0.09417 0.0
H1168 H 0.61137 0.61588 0.0929 0.0
H1169 H 0.6239 0.62794 0.06588 0.0
H1170 H 0.62921 0.60233 0.12867 0.0
H1171 H 0.57645 0.58942 0.10002 0.0
H1172 H 0.56531 0.58847 0.07122 0.0
H1173 H 0.59281 0.57823 0.04531 0.0
H1174 H 0.60395 0.57893 0.07397 0.0
H1175 H 0.57557 0.5569 0.19027 0.0
H1176 H 0.58951 0.57634 0.17023 0.0
H1177 H 0.58284 0.54759 0.12845 0.0
H1178 H 0.56851 0.5282 0.14809 0.0
H1179 H 0.57894 0.56772 0.11658 0.0
H1180 H 0.61391 0.56485 0.15308 0.0
H1181 H 0.6248 0.56527 0.18185 0.0
H1182 H 0.63305 0.60621 0.19192 0.0
H1183 H 0.62206 0.60594 0.16331 0.0
C1184 C 0.63852 0.60828 0.0728 0.0
C1185 C 0.63569 0.61765 0.06432 0.0
C1186 C 0.63157 0.60162 0.08832 0.0
C1187 C 0.62149 0.60403 0.09546 0.0
C1188 C 0.61915 0.61392 0.08757 0.0
C1189 C 0.6263 0.62078 0.07216 0.0
C1190 C 0.61227 0.59482 0.10965 0.0
C1191 C 0.61817 0.59488 0.12616 0.0
C1192 C 0.5979 0.5851 0.10633 0.0
C1193 C 0.59113 0.58441 0.08907 0.0
C1194 C 0.58008 0.58693 0.08816 0.0
C1195 C 0.57377 0.58644 0.07188 0.0
C1196 C 0.57839 0.58335 0.05644 0.0
C1197 C 0.58928 0.58068 0.05727 0.0
C1198 C 0.5956 0.58113 0.07352 0.0
C1199 C 0.57701 0.55473 0.17677 0.0
C1200 C 0.57098 0.54098 0.1708 0.0
C1201 C 0.58505 0.56585 0.16538 0.0
C1202 C 0.58727 0.56341 0.14787 0.0
C1203 C 0.58125 0.54972 0.14191 0.0
C1204 C 0.5732 0.53863 0.15323 0.0
C1205 C 0.59591 0.57499 0.13556 0.0
C1206 C 0.58988 0.57538 0.11934 0.0
C1207 C 0.61016 0.58507 0.13919 0.0
C1208 C 0.61707 0.58533 0.15615 0.0
C1209 C 0.618 0.57391 0.16148 0.0
C1210 C 0.62419 0.57412 0.17775 0.0
C1211 C 0.62957 0.58574 0.18874 0.0
C1212 C 0.62886 0.5972 0.18342 0.0
C1213 C 0.62267 0.59704 0.16717 0.0
H1214 H 0.63432 0.58587 0.20136 0.0
H1215 H 0.5735 0.58298 0.04384 0.0
H1216 H 0.38628 0.98548 0.05794 0.0
H1217 H 0.40317 0.99308 0.08213 0.0
H1218 H 0.40248 0.03069 0.08699 0.0
H1219 H 0.38547 0.02316 0.06228 0.0
H1220 H 0.42961 0.035 0.09031 0.0
H1221 H 0.38483 0.00601 0.11641 0.0
H1222 H 0.36105 0.98534 0.11904 0.0
H1223 H 0.37862 0.95957 0.12437 0.0
H1224 H 0.40249 0.98005 0.12152 0.0
H1225 H 0.46865 0.04363 0.17145 0.0
H1226 H 0.45121 0.0425 0.15031 0.0
H1227 H 0.44041 0.00138 0.13493 0.0
H1228 H 0.45765 0.00242 0.15594 0.0
H1229 H 0.4174 0.00225 0.14037 0.0
H1230 H 0.46159 0.0307 0.10946 0.0
H1231 H 0.48542 0.05117 0.10606 0.0
H1232 H 0.46891 0.0779 0.10981 0.0
H1233 H 0.445 0.05757 0.11345 0.0
C1234 C 0.38968 0.9954 0.06405 0.0
C1235 C 0.38437 0.00364 0.05829 0.0
C1236 C 0.39935 0.99972 0.07794 0.0
C1237 C 0.40386 0.01231 0.08661 0.0
C1238 C 0.39903 0.02087 0.08054 0.0
C1239 C 0.38932 0.01656 0.06647 0.0
C1240 C 0.41338 0.01609 0.10219 0.0
C1241 C 0.42686 0.02802 0.10148 0.0
C1242 C 0.40981 0.00693 0.11669 0.0
C1243 C 0.39546 0.99458 0.11868 0.0
C1244 C 0.38362 0.99593 0.11805 0.0
C1245 C 0.37012 0.98424 0.11959 0.0
C1246 C 0.36833 0.97115 0.12185 0.0
C1247 C 0.38003 0.96972 0.12263 0.0
C1248 C 0.39355 0.98137 0.12108 0.0
C1249 C 0.46259 0.03439 0.16347 0.0
C1250 C 0.46445 0.02307 0.16545 0.0
C1251 C 0.45264 0.03376 0.15141 0.0
C1252 C 0.44452 0.02186 0.14099 0.0
C1253 C 0.44646 0.01062 0.14292 0.0
C1254 C 0.4563 0.01121 0.15498 0.0
C1255 C 0.43385 0.02082 0.12812 0.0
C1256 C 0.42009 0.0094 0.12941 0.0
C1257 C 0.43719 0.03045 0.11421 0.0
C1258 C 0.45155 0.04264 0.11194 0.0
C1259 C 0.46306 0.04095 0.1097 0.0
C1260 C 0.47658 0.05252 0.1077 0.0
C1261 C 0.47869 0.06583 0.10778 0.0
C1262 C 0.46727 0.06759 0.10979 0.0
C1263 C 0.45374 0.05604 0.11182 0.0
H1264 H 0.48916 0.07478 0.10623 0.0
H1265 H 0.35787 0.96211 0.12303 0.0
H1266 H 0.37691 0.00822 0.96596 0.0
H1267 H 0.38888 0.00888 0.93869 0.0
H1268 H 0.36903 0.9644 0.94025 0.0
H1269 H 0.35736 0.96369 0.96767 0.0
H1270 H 0.39611 0.97597 0.93678 0.0
H1271 H 0.36064 0.98141 0.9083 0.0
H1272 H 0.34643 0.99199 0.90289 0.0
H1273 H 0.38371 0.03075 0.89045 0.0
H1274 H 0.39818 0.02045 0.89602 0.0
H1275 H 0.421 0.96677 0.85667 0.0
H1276 H 0.40433 0.96636 0.87771 0.0
H1277 H 0.4278 0.01102 0.87922 0.0
H1278 H 0.44437 0.01154 0.85776 0.0
H1279 H 0.39865 0.99963 0.88028 0.0
H1280 H 0.43398 0.99453 0.91013 0.0
H1281 H 0.44835 0.98411 0.91555 0.0
H1282 H 0.41107 0.94475 0.92573 0.0
H1283 H 0.39645 0.9549 0.92009 0.0
C1284 C 0.3749 0.99856 0.96031 0.0
C1285 C 0.36629 0.98591 0.96906 0.0
C1286 C 0.38171 0.99894 0.94467 0.0
C1287 C 0.37984 0.98668 0.93739 0.0
C1288 C 0.37069 0.974 0.94566 0.0
C1289 C 0.36401 0.97361 0.96134 0.0
C1290 C 0.38837 0.9871 0.92218 0.0
C1291 C 0.39643 0.98093 0.92433 0.0
C1292 C 0.38919 0.99397 0.90612 0.0
C1293 C 0.38051 0.00019 0.90274 0.0
C1294 C 0.36583 0.99222 0.90455 0.0
C1295 C 0.35772 0.99816 0.90143 0.0
C1296 C 0.36417 0.01205 0.89638 0.0
C1297 C 0.37874 0.02 0.89439 0.0
C1298 C 0.38689 0.01411 0.89751 0.0
C1299 C 0.42245 0.97652 0.86113 0.0
C1300 C 0.43408 0.98919 0.85566 0.0
C1301 C 0.41296 0.97626 0.87324 0.0
C1302 C 0.41495 0.98866 0.88019 0.0
C1303 C 0.42611 0.00134 0.87406 0.0
C1304 C 0.43563 0.00161 0.86194 0.0
C1305 C 0.4061 0.98831 0.8949 0.0
C1306 C 0.39815 0.99457 0.89272 0.0
C1307 C 0.40535 0.98154 0.911 0.0
C1308 C 0.41412 0.97544 0.91451 0.0
C1309 C 0.42884 0.98363 0.91338 0.0
C1310 C 0.43703 0.97777 0.91652 0.0
C1311 C 0.43062 0.96377 0.92094 0.0
C1312 C 0.41601 0.95559 0.92228 0.0
C1313 C 0.40777 0.96139 0.91912 0.0
H1314 H 0.43698 0.95926 0.92336 0.0
H1315 H 0.35787 0.01663 0.89397 0.0
H1316 H 0.01185 0.38548 0.97391 0.0
H1317 H 0.01843 0.40067 0.94795 0.0
H1318 H 0.97494 0.3877 0.93952 0.0
H1319 H 0.96831 0.3725 0.96505 0.0
H1320 H 0.98719 0.38852 0.90887 0.0
H1321 H 0.99812 0.41834 0.96024 0.0
H1322 H 0.01023 0.42894 0.98846 0.0
H1323 H 0.05022 0.446 0.9632 0.0
H1324 H 0.03833 0.43534 0.93486 0.0
H1325 H 0.98274 0.44068 0.86483 0.0
H1326 H 0.98259 0.42427 0.88594 0.0
H1327 H 0.02744 0.44356 0.88088 0.0
H1328 H 0.02768 0.45989 0.85927 0.0
H1329 H 0.01881 0.43935 0.9158 0.0
H1330 H 0.00728 0.4127 0.86307 0.0
H1331 H 0.99479 0.40251 0.83493 0.0
H1332 H 0.95574 0.37957 0.86258 0.0
H1333 H 0.96795 0.38979 0.89087 0.0
C1334 C 0.00371 0.38583 0.96646 0.0
C1335 C 0.98957 0.37782 0.97164 0.0
C1336 C 0.00748 0.39453 0.95166 0.0
C1337 C 0.99717 0.39538 0.94186 0.0
C1338 C 0.98307 0.38718 0.94683 0.0
C1339 C 0.97931 0.37854 0.96153 0.0
C1340 C 0.00087 0.40502 0.9267 0.0
C1341 C 0.99409 0.39963 0.91038 0.0
C1342 C 0.01022 0.41949 0.92851 0.0
C1343 C 0.01735 0.4259 0.94551 0.0
C1344 C 0.0095 0.42426 0.96075 0.0
C1345 C 0.01632 0.43029 0.97675 0.0
C1346 C 0.03099 0.4381 0.97764 0.0
C1347 C 0.03886 0.43992 0.9625 0.0
C1348 C 0.03209 0.43389 0.94647 0.0
C1349 C 0.99256 0.44131 0.86788 0.0
C1350 C 0.00521 0.45159 0.86023 0.0
C1351 C 0.99246 0.43194 0.88003 0.0
C1352 C 0.00498 0.43262 0.88484 0.0
C1353 C 0.01766 0.44286 0.87732 0.0
C1354 C 0.01777 0.45222 0.86504 0.0
C1355 C 0.00473 0.42286 0.8982 0.0
C1356 C 0.01216 0.42821 0.91415 0.0
C1357 C 0.99593 0.40835 0.89608 0.0
C1358 C 0.98853 0.40209 0.8791 0.0
C1359 C 0.99601 0.40556 0.86315 0.0
C1360 C 0.98899 0.39976 0.84717 0.0
C1361 C 0.97448 0.39041 0.84696 0.0
C1362 C 0.96698 0.38681 0.86275 0.0
C1363 C 0.97395 0.39259 0.87877 0.0
H1364 H 0.96906 0.38593 0.83458 0.0
H1365 H 0.03625 0.44277 0.99004 0.0
H1366 H 0.62198 0.60279 0.96697 0.0
H1367 H 0.60477 0.5953 0.94312 0.0
H1368 H 0.60048 0.63053 0.95217 0.0
H1369 H 0.61781 0.63815 0.97643 0.0
H1370 H 0.57488 0.60633 0.94787 0.0
H1371 H 0.61767 0.63043 0.91637 0.0
H1372 H 0.64178 0.63726 0.90817 0.0
H1373 H 0.62722 0.5956 0.89168 0.0
H1374 H 0.60305 0.58845 0.90003 0.0
H1375 H 0.53187 0.58475 0.86862 0.0
H1376 H 0.55055 0.59918 0.88993 0.0
H1377 H 0.56265 0.5687 0.89218 0.0
H1378 H 0.54391 0.55412 0.8713 0.0
H1379 H 0.58535 0.59511 0.88878 0.0
H1380 H 0.54337 0.57077 0.92456 0.0
H1381 H 0.51931 0.56394 0.93307 0.0
H1382 H 0.53264 0.60663 0.94126 0.0
H1383 H 0.55675 0.61373 0.93256 0.0
C1384 C 0.61746 0.60903 0.96393 0.0
C1385 C 0.62133 0.62112 0.97362 0.0
C1386 C 0.60764 0.60474 0.95019 0.0
C1387 C 0.60149 0.61246 0.94568 0.0
C1388 C 0.60518 0.62447 0.95538 0.0
C1389 C 0.61509 0.62882 0.9692 0.0
C1390 C 0.59097 0.60757 0.93106 0.0
C1391 C 0.57724 0.60418 0.93481 0.0
C1392 C 0.59402 0.60464 0.91407 0.0
C1393 C 0.60854 0.60889 0.90893 0.0
C1394 C 0.61962 0.62269 0.91111 0.0
C1395 C 0.6333 0.62663 0.90642 0.0
C1396 C 0.63603 0.61687 0.89943 0.0
C1397 C 0.62509 0.60315 0.89709 0.0
C1398 C 0.61139 0.59915 0.90178 0.0
C1399 C 0.53843 0.58107 0.87376 0.0
C1400 C 0.53638 0.56827 0.86819 0.0
C1401 C 0.54914 0.58936 0.88588 0.0
C1402 C 0.55797 0.585 0.89266 0.0
C1403 C 0.55602 0.57231 0.88701 0.0
C1404 C 0.54532 0.56401 0.875 0.0
C1405 C 0.56919 0.59345 0.9058 0.0
C1406 C 0.58307 0.59753 0.90173 0.0
C1407 C 0.56628 0.59705 0.92244 0.0
C1408 C 0.55181 0.59279 0.92769 0.0
C1409 C 0.54113 0.5787 0.92802 0.0
C1410 C 0.5275 0.57478 0.93291 0.0
C1411 C 0.52444 0.58485 0.93764 0.0
C1412 C 0.53502 0.59885 0.93755 0.0
C1413 C 0.54867 0.60283 0.93265 0.0
H1414 H 0.51387 0.58179 0.94143 0.0
H1415 H 0.64663 0.61994 0.8958 0.0
H1416 H 0.03825 0.63975 0.95651 0.0
H1417 H 0.0333 0.6255 0.93011 0.0
H1418 H 0.98887 0.60823 0.937 0.0
H1419 H 0.99375 0.62258 0.96345 0.0
H1420 H 0.99632 0.58835 0.93401 0.0
H1421 H 0.00406 0.62833 0.90248 0.0
H1422 H 0.01664 0.65305 0.89436 0.0
H1423 H 0.052 0.65076 0.87749 0.0
H1424 H 0.03972 0.62606 0.88575 0.0
H1425 H 0.98175 0.5455 0.8592 0.0
H1426 H 0.98214 0.56277 0.87882 0.0
H1427 H 0.02714 0.58828 0.87353 0.0
H1428 H 0.02675 0.57148 0.85305 0.0
H1429 H 0.01657 0.60417 0.87429 0.0
H1430 H 0.01107 0.56605 0.90949 0.0
H1431 H 0.99978 0.54163 0.91877 0.0
H1432 H 0.9617 0.5408 0.93 0.0
H1433 H 0.97272 0.56518 0.92056 0.0
C1434 C 0.02743 0.63311 0.95225 0.0
C1435 C 0.01639 0.63225 0.96213 0.0
C1436 C 0.02462 0.62501 0.93711 0.0
C1437 C 0.01072 0.61584 0.93157 0.0
C1438 C 0.99968 0.61528 0.94104 0.0
C1439 C 0.00249 0.62352 0.9561 0.0
C1440 C 0.00781 0.60598 0.91692 0.0
C1441 C 0.00046 0.59178 0.92082 0.0
C1442 C 0.01357 0.6105 0.8999 0.0
C1443 C 0.02099 0.62536 0.89486 0.0
C1444 C 0.01456 0.63312 0.89717 0.0
C1445 C 0.02163 0.64713 0.89252 0.0
C1446 C 0.03512 0.65348 0.88544 0.0
C1447 C 0.04156 0.64583 0.88298 0.0
C1448 C 0.03453 0.63182 0.88762 0.0
C1449 C 0.99171 0.5549 0.86188 0.0
C1450 C 0.00425 0.55699 0.85464 0.0
C1451 C 0.99193 0.56472 0.87329 0.0
C1452 C 0.00471 0.57671 0.87796 0.0
C1453 C 0.01716 0.57907 0.87023 0.0
C1454 C 0.01693 0.56935 0.85868 0.0
C1455 C 0.00526 0.58653 0.89145 0.0
C1456 C 0.01221 0.60071 0.88738 0.0
C1457 C 0.9993 0.58202 0.90844 0.0
C1458 C 0.99266 0.56737 0.91412 0.0
C1459 C 0.00026 0.56062 0.91381 0.0
C1460 C 0.99391 0.5468 0.91912 0.0
C1461 C 0.98002 0.53966 0.92492 0.0
C1462 C 0.97245 0.54634 0.92547 0.0
C1463 C 0.97874 0.56016 0.92014 0.0
H1464 H 0.97513 0.52895 0.92903 0.0
H1465 H 0.04058 0.66432 0.88185 0.0
H1466 H 0.35715 0.40515 0.97454 0.0
H1467 H 0.36816 0.41689 0.94687 0.0
H1468 H 0.38562 0.39095 0.94099 0.0
H1469 H 0.37444 0.37898 0.9686 0.0
H1470 H 0.40544 0.42 0.93969 0.0
H1471 H 0.36164 0.38637 0.91287 0.0
H1472 H 0.33587 0.37286 0.90933 0.0
H1473 H 0.33579 0.41033 0.90048 0.0
H1474 H 0.36155 0.42409 0.90422 0.0
H1475 H 0.43956 0.45295 0.86105 0.0
H1476 H 0.4244 0.43469 0.88156 0.0
H1477 H 0.39783 0.45177 0.88532 0.0
H1478 H 0.41231 0.46948 0.86369 0.0
H1479 H 0.38217 0.42495 0.8863 0.0
H1480 H 0.42433 0.45877 0.91657 0.0
H1481 H 0.44988 0.47344 0.92174 0.0
H1482 H 0.45283 0.43718 0.92614 0.0
H1483 H 0.4273 0.42229 0.92077 0.0
C1484 C 0.36314 0.40179 0.96722 0.0
C1485 C 0.36499 0.39118 0.97378 0.0
C1486 C 0.36937 0.40846 0.95138 0.0
C1487 C 0.37766 0.40475 0.9419 0.0
C1488 C 0.37921 0.39391 0.94812 0.0
C1489 C 0.37279 0.38707 0.96385 0.0
C1490 C 0.3857 0.41307 0.92642 0.0
C1491 C 0.40038 0.42087 0.92783 0.0
C1492 C 0.37903 0.41452 0.91128 0.0
C1493 C 0.36353 0.40627 0.90897 0.0
C1494 C 0.35612 0.39174 0.91032 0.0
C1495 C 0.34152 0.38403 0.90825 0.0
C1496 C 0.33419 0.39073 0.90472 0.0
C1497 C 0.34147 0.40515 0.90322 0.0
C1498 C 0.35608 0.41291 0.9053 0.0
C1499 C 0.43031 0.45268 0.86583 0.0
C1500 C 0.42728 0.46285 0.86075 0.0
C1501 C 0.42174 0.44229 0.8778 0.0
C1502 C 0.41016 0.44203 0.88534 0.0
C1503 C 0.40677 0.45181 0.8798 0.0
C1504 C 0.4152 0.46207 0.86759 0.0
C1505 C 0.40197 0.43201 0.89959 0.0
C1506 C 0.38726 0.42395 0.89802 0.0
C1507 C 0.40859 0.4305 0.9148 0.0
C1508 C 0.42394 0.43942 0.91806 0.0
C1509 C 0.43044 0.45393 0.91851 0.0
C1510 C 0.44492 0.46229 0.92149 0.0
C1511 C 0.45298 0.45625 0.92421 0.0
C1512 C 0.44657 0.44184 0.924 0.0
C1513 C 0.4321 0.43344 0.92099 0.0
H1514 H 0.46418 0.46274 0.92653 0.0
H1515 H 0.32288 0.38475 0.90311 0.0
H1516 H 0.63024 0.02208 0.94976 0.0
H1517 H 0.61204 0.01375 0.92705 0.0
H1518 H 0.59346 0.97214 0.94708 0.0
H1519 H 0.61189 0.98045 0.97014 0.0
H1520 H 0.59362 0.97543 0.90724 0.0
H1521 H 0.57853 0.98667 0.96038 0.0
H1522 H 0.58137 0.001 0.98642 0.0
H1523 H 0.58854 0.03455 0.95244 0.0
H1524 H 0.58597 0.0205 0.92619 0.0
H1525 H 0.52808 0.96086 0.86398 0.0
H1526 H 0.54555 0.96138 0.88451 0.0
H1527 H 0.57119 0.00574 0.87872 0.0
H1528 H 0.55409 0.00529 0.85796 0.0
H1529 H 0.56479 0.99686 0.91374 0.0
H1530 H 0.58169 0.98646 0.86093 0.0
H1531 H 0.57957 0.97265 0.83462 0.0
H1532 H 0.56888 0.93759 0.86766 0.0
H1533 H 0.57076 0.95114 0.89416 0.0
C1534 C 0.62243 0.01111 0.94928 0.0
C1535 C 0.62239 0.00196 0.96197 0.0
C1536 C 0.61205 0.00637 0.93622 0.0
C1537 C 0.60133 0.99238 0.93555 0.0
C1538 C 0.60168 0.98298 0.94743 0.0
C1539 C 0.61216 0.98775 0.96059 0.0
C1540 C 0.58918 0.98822 0.92357 0.0
C1541 C 0.58707 0.97983 0.90882 0.0
C1542 C 0.58078 0.99412 0.92557 0.0
C1543 C 0.58214 0.00255 0.94132 0.0
C1544 C 0.58081 0.99714 0.95846 0.0
C1545 C 0.58236 0.00521 0.97326 0.0
C1546 C 0.58516 0.01869 0.97109 0.0
C1547 C 0.58637 0.02411 0.9541 0.0
C1548 C 0.58485 0.01609 0.93926 0.0
C1549 C 0.53758 0.97068 0.8668 0.0
C1550 C 0.53959 0.98307 0.85952 0.0
C1551 C 0.54752 0.97096 0.87856 0.0
C1552 C 0.5596 0.98361 0.88319 0.0
C1553 C 0.56187 0.99588 0.87542 0.0
C1554 C 0.55203 0.99561 0.86364 0.0
C1555 C 0.56944 0.98439 0.89709 0.0
C1556 C 0.5711 0.99219 0.91228 0.0
C1557 C 0.57733 0.9779 0.89544 0.0
C1558 C 0.57618 0.96976 0.87951 0.0
C1559 C 0.57875 0.97576 0.86258 0.0
C1560 C 0.57762 0.96799 0.84763 0.0
C1561 C 0.57404 0.95424 0.84946 0.0
C1562 C 0.57162 0.94823 0.86625 0.0
C1563 C 0.57272 0.95596 0.88124 0.0
H1564 H 0.57319 0.94824 0.83788 0.0
H1565 H 0.58636 0.02492 0.98256 0.0
H1566 H 0.63131 0.03831 0.04625 0.0
H1567 H 0.62006 0.03785 0.07381 0.0
H1568 H 0.62164 0.00228 0.09106 0.0
H1569 H 0.63265 0.00243 0.06306 0.0
H1570 H 0.59681 0.99851 0.09784 0.0
H1571 H 0.64352 0.03463 0.10977 0.0
H1572 H 0.66637 0.05592 0.10437 0.0
H1573 H 0.64628 0.07954 0.10165 0.0
H1574 H 0.62327 0.05835 0.10678 0.0
H1575 H 0.57184 0.00687 0.18193 0.0
H1576 H 0.58746 0.00585 0.16028 0.0
H1577 H 0.585 0.03602 0.12799 0.0
H1578 H 0.56898 0.03672 0.14902 0.0
H1579 H 0.61273 0.04126 0.13291 0.0
H1580 H 0.56566 0.00361 0.117 0.0
H1581 H 0.54317 0.98205 0.12305 0.0
H1582 H 0.56516 0.96108 0.13478 0.0
H1583 H 0.58781 0.9826 0.12904 0.0
C1584 C 0.62938 0.03042 0.05591 0.0
C1585 C 0.63294 0.02043 0.05245 0.0
C1586 C 0.62301 0.03023 0.07176 0.0
C1587 C 0.62024 0.0202 0.08469 0.0
C1588 C 0.62376 0.01018 0.08132 0.0
C1589 C 0.63007 0.01029 0.06533 0.0
C1590 C 0.61308 0.01995 0.10128 0.0
C1591 C 0.60049 0.00778 0.10574 0.0
C1592 C 0.6178 0.03205 0.11159 0.0
C1593 C 0.63164 0.04487 0.10856 0.0
C1594 C 0.64395 0.04435 0.1079 0.0
C1595 C 0.65694 0.0564 0.10491 0.0
C1596 C 0.65777 0.06907 0.10264 0.0
C1597 C 0.64562 0.06972 0.10341 0.0
C1598 C 0.6326 0.05769 0.10639 0.0
C1599 C 0.57452 0.01322 0.17016 0.0
C1600 C 0.5691 0.02188 0.16727 0.0
C1601 C 0.58352 0.01268 0.15788 0.0
C1602 C 0.58735 0.02086 0.14257 0.0
C1603 C 0.58224 0.02971 0.13981 0.0
C1604 C 0.57313 0.03014 0.15194 0.0
C1605 C 0.59635 0.01999 0.12901 0.0
C1606 C 0.60927 0.03195 0.12517 0.0
C1607 C 0.59203 0.00767 0.11944 0.0
C1608 C 0.57842 0.99474 0.12281 0.0
C1609 C 0.5657 0.99443 0.12103 0.0
C1610 C 0.55293 0.98222 0.12437 0.0
C1611 C 0.55274 0.97022 0.12936 0.0
C1612 C 0.56533 0.9704 0.13096 0.0
C1613 C 0.57813 0.98259 0.12766 0.0
H1614 H 0.54284 0.96077 0.13193 0.0
H1615 H 0.66784 0.07839 0.10032 0.0
H1616 H 0.02687 0.62012 0.05386 0.0
H1617 H 0.0193 0.60339 0.07776 0.0
H1618 H 0.98001 0.60203 0.08057 0.0
H1619 H 0.9876 0.61904 0.05644 0.0
H1620 H 0.99199 0.60354 0.1139 0.0
H1621 H 0.97946 0.57537 0.06258 0.0
H1622 H 0.98259 0.56838 0.03297 0.0
H1623 H 0.01662 0.56452 0.05272 0.0
H1624 H 0.01384 0.57169 0.0824 0.0
H1625 H 0.97123 0.54529 0.17315 0.0
H1626 H 0.97103 0.55958 0.14871 0.0
H1627 H 0.01239 0.56935 0.13357 0.0
H1628 H 0.01259 0.55505 0.15767 0.0
H1629 H 0.99385 0.56107 0.10536 0.0
H1630 H 0.00821 0.59258 0.15541 0.0
H1631 H 0.00517 0.59983 0.18491 0.0
H1632 H 0.96704 0.59699 0.16726 0.0
H1633 H 0.96976 0.58954 0.1377 0.0
C1634 C 0.0166 0.61631 0.05947 0.0
C1635 C 0.00781 0.6209 0.05313 0.0
C1636 C 0.01227 0.60668 0.07313 0.0
C1637 C 0.99902 0.60131 0.08077 0.0
C1638 C 0.99025 0.606 0.07477 0.0
C1639 C 0.99459 0.61568 0.06097 0.0
C1640 C 0.99462 0.59086 0.09505 0.0
C1641 C 0.99205 0.59408 0.11197 0.0
C1642 C 0.99481 0.57857 0.09254 0.0
C1643 C 0.99648 0.57414 0.07472 0.0
C1644 C 0.98768 0.57312 0.06059 0.0
C1645 C 0.98938 0.56911 0.04379 0.0
C1646 C 0.99981 0.56602 0.04096 0.0
C1647 C 0.00854 0.56691 0.05493 0.0
C1648 C 0.00689 0.57093 0.07176 0.0
C1649 C 0.98026 0.55051 0.16459 0.0
C1650 C 0.99196 0.54911 0.16739 0.0
C1651 C 0.98016 0.5587 0.15071 0.0
C1652 C 0.99171 0.56554 0.13937 0.0
C1653 C 0.00337 0.56416 0.14217 0.0
C1654 C 0.00352 0.55609 0.15606 0.0
C1655 C 0.99176 0.57401 0.12431 0.0
C1656 C 0.99348 0.57037 0.10722 0.0
C1657 C 0.99071 0.58584 0.12668 0.0
C1658 C 0.98909 0.59033 0.14443 0.0
C1659 C 0.99911 0.59338 0.15787 0.0
C1660 C 0.99746 0.59755 0.17459 0.0
C1661 C 0.98589 0.59882 0.17798 0.0
C1662 C 0.97597 0.59597 0.16463 0.0
C1663 C 0.97757 0.59177 0.14789 0.0
H1664 H 0.98464 0.60206 0.19093 0.0
H1665 H 0.00111 0.56292 0.02794 0.0
H1666 H 0.38902 0.40511 0.06389 0.0
H1667 H 0.40659 0.41103 0.08693 0.0
H1668 H 0.39947 0.36974 0.08467 0.0
H1669 H 0.38185 0.36373 0.0611 0.0
H1670 H 0.40386 0.40116 0.11899 0.0
H1671 H 0.43101 0.37228 0.09739 0.0
H1672 H 0.43559 0.36328 0.07024 0.0
H1673 H 0.43401 0.39443 0.03945 0.0
H1674 H 0.4296 0.40371 0.06644 0.0
H1675 H 0.45409 0.41626 0.18621 0.0
H1676 H 0.43531 0.40185 0.165 0.0
H1677 H 0.46308 0.4244 0.12185 0.0
H1678 H 0.48195 0.4384 0.14297 0.0
H1679 H 0.44668 0.3987 0.11218 0.0
H1680 H 0.44 0.43313 0.14086 0.0
H1681 H 0.43661 0.44452 0.16645 0.0
H1682 H 0.39891 0.40645 0.17994 0.0
H1683 H 0.40226 0.39476 0.15468 0.0
C1684 C 0.39117 0.39724 0.06819 0.0
C1685 C 0.38398 0.38392 0.06066 0.0
C1686 C 0.40121 0.40065 0.08145 0.0
C1687 C 0.40434 0.39084 0.0876 0.0
C1688 C 0.3973 0.37752 0.08004 0.0
C1689 C 0.38724 0.3741 0.0666 0.0
C1690 C 0.4149 0.3948 0.10203 0.0
C1691 C 0.41315 0.40048 0.11756 0.0
C1692 C 0.42704 0.39396 0.10019 0.0
C1693 C 0.42979 0.38856 0.08389 0.0
C1694 C 0.43166 0.37721 0.08482 0.0
C1695 C 0.43423 0.37207 0.06946 0.0
C1696 C 0.43503 0.37824 0.05312 0.0
C1697 C 0.43332 0.38962 0.0521 0.0
C1698 C 0.43077 0.39481 0.06742 0.0
C1699 C 0.45621 0.41794 0.17218 0.0
C1700 C 0.46942 0.4285 0.1662 0.0
C1701 C 0.44549 0.40973 0.16007 0.0
C1702 C 0.44768 0.41221 0.1418 0.0
C1703 C 0.46111 0.42226 0.13585 0.0
C1704 C 0.47189 0.43029 0.14793 0.0
C1705 C 0.4358 0.40539 0.12893 0.0
C1706 C 0.43725 0.39911 0.11376 0.0
C1707 C 0.42351 0.40599 0.13086 0.0
C1708 C 0.42148 0.41303 0.14603 0.0
C1709 C 0.43106 0.42717 0.14938 0.0
C1710 C 0.42915 0.43367 0.16383 0.0
C1711 C 0.41759 0.42619 0.17487 0.0
C1712 C 0.40789 0.41221 0.17144 0.0
C1713 C 0.4098 0.40564 0.15708 0.0
H1714 H 0.41612 0.43124 0.18605 0.0
H1715 H 0.43701 0.37424 0.04124 0.0
H1716 H 0.66337 0.70962 0.39735 0.0
H1717 H 0.66273 0.72176 0.42382 0.0
H1718 H 0.62924 0.72515 0.40041 0.0
H1719 H 0.62971 0.71303 0.37408 0.0
H1720 H 0.65141 0.75018 0.41328 0.0
H1721 H 0.62198 0.70277 0.43271 0.0
H1722 H 0.6166 0.67911 0.43914 0.0
H1723 H 0.65089 0.6953 0.47642 0.0
H1724 H 0.6566 0.71908 0.47002 0.0
H1725 H 0.62853 0.77423 0.48202 0.0
H1726 H 0.62948 0.75987 0.4589 0.0
H1727 H 0.65875 0.75442 0.49031 0.0
H1728 H 0.65722 0.76817 0.5141 0.0
H1729 H 0.64073 0.73088 0.47408 0.0
H1730 H 0.67004 0.77788 0.45605 0.0
H1731 H 0.67636 0.80185 0.44977 0.0
H1732 H 0.64402 0.78712 0.40987 0.0
H1733 H 0.63737 0.76303 0.41608 0.0
C1734 C 0.65579 0.71285 0.39791 0.0
C1735 C 0.64661 0.71037 0.38357 0.0
C1736 C 0.65542 0.71975 0.41305 0.0
C1737 C 0.64593 0.72434 0.41405 0.0
C1738 C 0.63666 0.72171 0.39988 0.0
C1739 C 0.63692 0.71474 0.38485 0.0
C1740 C 0.64597 0.73241 0.42948 0.0
C1741 C 0.64893 0.74592 0.42655 0.0
C1742 C 0.64325 0.72701 0.44687 0.0
C1743 C 0.63982 0.71271 0.45073 0.0
C1744 C 0.62846 0.70129 0.44215 0.0
C1745 C 0.62533 0.68786 0.44582 0.0
C1746 C 0.63342 0.6857 0.45814 0.0
C1747 C 0.64464 0.69698 0.46685 0.0
C1748 C 0.64782 0.71044 0.46322 0.0
C1749 C 0.63496 0.76977 0.48426 0.0
C1750 C 0.64284 0.77244 0.49998 0.0
C1751 C 0.63564 0.76169 0.47087 0.0
C1752 C 0.64442 0.7563 0.47268 0.0
C1753 C 0.65199 0.75857 0.48854 0.0
C1754 C 0.65121 0.76655 0.50206 0.0
C1755 C 0.64588 0.74859 0.45782 0.0
C1756 C 0.64328 0.73519 0.46084 0.0
C1757 C 0.64912 0.75415 0.44049 0.0
C1758 C 0.65313 0.76863 0.43664 0.0
C1759 C 0.66421 0.77974 0.44602 0.0
C1760 C 0.66786 0.79335 0.44246 0.0
C1761 C 0.66058 0.796 0.42945 0.0
C1762 C 0.64965 0.78505 0.41995 0.0
C1763 C 0.64594 0.77141 0.42347 0.0
H1764 H 0.66342 0.80655 0.42672 0.0
H1765 H 0.63098 0.67529 0.46096 0.0
H1766 H 0.31096 0.93551 0.3984 0.0
H1767 H 0.3009 0.92328 0.42609 0.0
H1768 H 0.27615 0.94241 0.42956 0.0
H1769 H 0.28679 0.95524 0.4022 0.0
H1770 H 0.28301 0.93864 0.46179 0.0
H1771 H 0.26277 0.91014 0.41045 0.0
H1772 H 0.26272 0.89936 0.38213 0.0
H1773 H 0.28164 0.87901 0.40769 0.0
H1774 H 0.28199 0.88983 0.43612 0.0
H1775 H 0.22404 0.88165 0.50615 0.0
H1776 H 0.23987 0.89989 0.48584 0.0
H1777 H 0.26942 0.88637 0.49064 0.0
H1778 H 0.254 0.86849 0.51162 0.0
H1779 H 0.26064 0.88774 0.4553 0.0
H1780 H 0.27857 0.91568 0.50787 0.0
H1781 H 0.27673 0.926 0.53559 0.0
H1782 H 0.25949 0.94668 0.50692 0.0
H1783 H 0.26103 0.93631 0.47903 0.0
C1784 C 0.30361 0.93734 0.40529 0.0
C1785 C 0.29951 0.94617 0.39809 0.0
C1786 C 0.29782 0.9303 0.42106 0.0
C1787 C 0.28744 0.93159 0.42962 0.0
C1788 C 0.28406 0.94117 0.42312 0.0
C1789 C 0.29013 0.94849 0.4075 0.0
C1790 C 0.27929 0.92205 0.44428 0.0
C1791 C 0.27802 0.92751 0.46032 0.0
C1792 C 0.2728 0.9075 0.44243 0.0
C1793 C 0.27254 0.9009 0.42537 0.0
C1794 C 0.26701 0.90344 0.41 0.0
C1795 C 0.26692 0.89732 0.39393 0.0
C1796 C 0.27221 0.88854 0.3931 0.0
C1797 C 0.27757 0.88583 0.40835 0.0
C1798 C 0.27771 0.89195 0.42445 0.0
C1799 C 0.23406 0.88275 0.50331 0.0
C1800 C 0.23767 0.87349 0.5105 0.0
C1801 C 0.24307 0.89317 0.49163 0.0
C1802 C 0.2558 0.89446 0.48679 0.0
C1803 C 0.25961 0.8855 0.49421 0.0
C1804 C 0.25071 0.8752 0.50608 0.0
C1805 C 0.26452 0.90434 0.47282 0.0
C1806 C 0.26576 0.89889 0.45682 0.0
C1807 C 0.27068 0.91882 0.47464 0.0
C1808 C 0.26979 0.9251 0.49138 0.0
C1809 C 0.27426 0.92232 0.50749 0.0
C1810 C 0.2733 0.92821 0.52323 0.0
C1811 C 0.26796 0.93696 0.52302 0.0
C1812 C 0.26361 0.93988 0.50706 0.0
C1813 C 0.26454 0.93402 0.49128 0.0
H1814 H 0.26722 0.94151 0.53522 0.0
H1815 H 0.27213 0.88381 0.38065 0.0
H1816 H 0.06725 0.36647 0.39026 0.0
H1817 H 0.08673 0.37782 0.41184 0.0
H1818 H 0.06448 0.34306 0.44712 0.0
H1819 H 0.04527 0.33166 0.42566 0.0
H1820 H 0.07849 0.36933 0.46454 0.0
H1821 H 0.0869 0.34295 0.42021 0.0
H1822 H 0.09015 0.33791 0.38951 0.0
H1823 H 0.12493 0.37963 0.38367 0.0
H1824 H 0.12174 0.38496 0.4143 0.0
H1825 H 0.12061 0.35228 0.51466 0.0
H1826 H 0.10437 0.35426 0.4946 0.0
H1827 H 0.13914 0.39083 0.47129 0.0
H1828 H 0.15545 0.38899 0.49163 0.0
H1829 H 0.12184 0.37073 0.44647 0.0
H1830 H 0.11723 0.39554 0.49271 0.0
H1831 H 0.11402 0.40177 0.52273 0.0
H1832 H 0.07296 0.36507 0.5249 0.0
H1833 H 0.07598 0.35847 0.49496 0.0
C1834 C 0.06643 0.36143 0.40279 0.0
C1835 C 0.05484 0.34815 0.40627 0.0
C1836 C 0.07755 0.36789 0.41505 0.0
C1837 C 0.07705 0.36123 0.43102 0.0
C1838 C 0.06506 0.34838 0.43491 0.0
C1839 C 0.05413 0.34185 0.4226 0.0
C1840 C 0.08939 0.36672 0.44305 0.0
C1841 C 0.088 0.36969 0.46064 0.0
C1842 C 0.10198 0.36765 0.43773 0.0
C1843 C 0.10396 0.3644 0.41943 0.0
C1844 C 0.09516 0.35108 0.41232 0.0
C1845 C 0.097 0.34816 0.39495 0.0
C1846 C 0.1077 0.35846 0.38462 0.0
C1847 C 0.11662 0.37168 0.39167 0.0
C1848 C 0.1148 0.37465 0.40903 0.0
C1849 C 0.12475 0.36084 0.50541 0.0
C1850 C 0.13924 0.37047 0.50463 0.0
C1851 C 0.11547 0.36202 0.49404 0.0
C1852 C 0.12055 0.37274 0.48153 0.0
C1853 C 0.13502 0.38253 0.48092 0.0
C1854 C 0.14429 0.3815 0.49254 0.0
C1855 C 0.11074 0.37284 0.46821 0.0
C1856 C 0.11255 0.37081 0.45036 0.0
C1857 C 0.0986 0.3729 0.47328 0.0
C1858 C 0.09687 0.37647 0.49158 0.0
C1859 C 0.10757 0.3887 0.49965 0.0
C1860 C 0.10577 0.39233 0.51663 0.0
C1861 C 0.09327 0.38386 0.52567 0.0
C1862 C 0.0826 0.37166 0.51782 0.0
C1863 C 0.08436 0.36797 0.50084 0.0
H1864 H 0.09186 0.38673 0.53878 0.0
H1865 H 0.10911 0.35618 0.37118 0.0
H1866 H 0.04655 0.30628 0.33017 0.0
H1867 H 0.05713 0.30499 0.30275 0.0
H1868 H 0.04629 0.33243 0.27741 0.0
H1869 H 0.03577 0.33399 0.30505 0.0
H1870 H 0.0409 0.30677 0.25698 0.0
H1871 H 0.07693 0.34735 0.28759 0.0
H1872 H 0.09103 0.36014 0.3138 0.0
H1873 H 0.10637 0.33244 0.31834 0.0
H1874 H 0.09217 0.31935 0.29231 0.0
H1875 H 0.087 0.31671 0.18454 0.0
H1876 H 0.07327 0.31953 0.20756 0.0
H1877 H 0.09075 0.30469 0.24676 0.0
H1878 H 0.10476 0.3024 0.22398 0.0
H1879 H 0.09245 0.32676 0.2585 0.0
H1880 H 0.05571 0.28503 0.23044 0.0
H1881 H 0.04092 0.27074 0.20545 0.0
H1882 H 0.02641 0.29881 0.19696 0.0
H1883 H 0.04127 0.31337 0.22179 0.0
C1884 C 0.04628 0.31198 0.31877 0.0
C1885 C 0.04038 0.3203 0.31982 0.0
C1886 C 0.05234 0.31121 0.30311 0.0
C1887 C 0.0525 0.31864 0.28814 0.0
C1888 C 0.04621 0.32661 0.28887 0.0
C1889 C 0.04029 0.32753 0.30466 0.0
C1890 C 0.05999 0.31856 0.27217 0.0
C1891 C 0.05221 0.31135 0.25709 0.0
C1892 C 0.07467 0.32431 0.27258 0.0
C1893 C 0.0834 0.3323 0.28808 0.0
C1894 C 0.08322 0.34392 0.29425 0.0
C1895 C 0.09125 0.35124 0.30907 0.0
C1896 C 0.09957 0.34709 0.31776 0.0
C1897 C 0.09992 0.33564 0.31161 0.0
C1898 C 0.09189 0.32828 0.29681 0.0
C1899 C 0.08772 0.31392 0.19807 0.0
C1900 C 0.09693 0.3094 0.20258 0.0
C1901 C 0.07988 0.3155 0.21119 0.0
C1902 C 0.08094 0.31229 0.22893 0.0
C1903 C 0.08983 0.30735 0.23323 0.0
C1904 C 0.09779 0.30599 0.22022 0.0
C1905 C 0.07337 0.31459 0.24329 0.0
C1906 C 0.08116 0.32229 0.25814 0.0
C1907 C 0.05869 0.30913 0.2427 0.0
C1908 C 0.04972 0.30037 0.22783 0.0
C1909 C 0.04945 0.28821 0.22315 0.0
C1910 C 0.04104 0.28006 0.20904 0.0
C1911 C 0.03277 0.28389 0.19959 0.0
C1912 C 0.03285 0.29587 0.20427 0.0
C1913 C 0.04125 0.30407 0.21837 0.0
H1914 H 0.02626 0.27757 0.18866 0.0
H1915 H 0.10577 0.35276 0.32924 0.0
H1916 H 0.65427 0.7106 0.27771 0.0
H1917 H 0.66541 0.72818 0.25466 0.0
H1918 H 0.70176 0.75184 0.28829 0.0
H1919 H 0.69078 0.734 0.31137 0.0
H1920 H 0.68775 0.76608 0.27398 0.0
H1921 H 0.7079 0.7401 0.25504 0.0
H1922 H 0.70789 0.71902 0.24695 0.0
H1923 H 0.67929 0.71152 0.20398 0.0
H1924 H 0.67895 0.73244 0.21197 0.0
H1925 H 0.71239 0.81602 0.20602 0.0
H1926 H 0.71286 0.80051 0.22813 0.0
H1927 H 0.68115 0.76522 0.19859 0.0
H1928 H 0.68143 0.78058 0.17573 0.0
H1929 H 0.69804 0.75873 0.21268 0.0
H1930 H 0.67359 0.78055 0.23448 0.0
H1931 H 0.67112 0.80025 0.24272 0.0
H1932 H 0.70499 0.81404 0.28029 0.0
H1933 H 0.70776 0.7945 0.27211 0.0
C1934 C 0.66473 0.71944 0.28011 0.0
C1935 C 0.67165 0.72098 0.29634 0.0
C1936 C 0.67109 0.72943 0.26691 0.0
C1937 C 0.6844 0.74125 0.26979 0.0
C1938 C 0.6915 0.74272 0.28583 0.0
C1939 C 0.68525 0.73254 0.29895 0.0
C1940 C 0.69013 0.7525 0.25652 0.0
C1941 C 0.69038 0.76468 0.26068 0.0
C1942 C 0.69313 0.7504 0.2391 0.0
C1943 C 0.69333 0.73781 0.23419 0.0
C1944 C 0.70151 0.7339 0.24396 0.0
C1945 C 0.70159 0.72198 0.23937 0.0
C1946 C 0.69358 0.71392 0.22498 0.0
C1947 C 0.68549 0.71777 0.21512 0.0
C1948 C 0.68537 0.72967 0.21966 0.0
C1949 C 0.70579 0.80496 0.20393 0.0
C1950 C 0.69671 0.7996 0.18914 0.0
C1951 C 0.70594 0.79609 0.21675 0.0
C1952 C 0.69677 0.78169 0.2153 0.0
C1953 C 0.68824 0.77629 0.20012 0.0
C1954 C 0.68827 0.78513 0.18715 0.0
C1955 C 0.69531 0.77223 0.22998 0.0
C1956 C 0.69577 0.76034 0.22607 0.0
C1957 C 0.69266 0.77445 0.2476 0.0
C1958 C 0.691 0.78618 0.25252 0.0
C1959 C 0.68058 0.78785 0.24441 0.0
C1960 C 0.67911 0.79897 0.24908 0.0
C1961 C 0.68793 0.80842 0.26198 0.0
C1962 C 0.6982 0.80674 0.27027 0.0
C1963 C 0.69972 0.79564 0.26563 0.0
H1964 H 0.68678 0.81702 0.26558 0.0
H1965 H 0.69366 0.7047 0.22144 0.0
H1966 H 0.28737 0.97227 0.29987 0.0
H1967 H 0.26926 0.96572 0.27691 0.0
H1968 H 0.24274 0.9268 0.30357 0.0
H1969 H 0.26116 0.93298 0.32571 0.0
H1970 H 0.24345 0.92143 0.27187 0.0
H1971 H 0.23602 0.95482 0.30037 0.0
H1972 H 0.2425 0.97756 0.3127 0.0
H1973 H 0.25641 0.99623 0.26158 0.0
H1974 H 0.25018 0.97362 0.24898 0.0
H1975 H 0.17997 0.89876 0.22512 0.0
H1976 H 0.19719 0.91137 0.24871 0.0
H1977 H 0.22833 0.93617 0.20978 0.0
H1978 H 0.21117 0.92338 0.18601 0.0
H1979 H 0.22541 0.94972 0.24628 0.0
H1980 H 0.23347 0.91495 0.21947 0.0
H1981 H 0.22489 0.89133 0.20844 0.0
H1982 H 0.20744 0.87457 0.25936 0.0
H1983 H 0.21573 0.8981 0.27058 0.0
C1984 C 0.27755 0.96245 0.30092 0.0
C1985 C 0.27563 0.95308 0.31443 0.0
C1986 C 0.26717 0.95871 0.28785 0.0
C1987 C 0.25455 0.94574 0.28846 0.0
C1988 C 0.2524 0.93679 0.30264 0.0
C1989 C 0.26289 0.94034 0.31534 0.0
C1990 C 0.24413 0.94083 0.27364 0.0
C1991 C 0.23944 0.92764 0.26653 0.0
C1992 C 0.23901 0.94894 0.26624 0.0
C1993 C 0.24277 0.96255 0.27378 0.0
C1994 C 0.24057 0.96379 0.29179 0.0
C1995 C 0.24417 0.97666 0.29882 0.0
C1996 C 0.2499 0.98834 0.28794 0.0
C1997 C 0.25199 0.98718 0.27 0.0
C1998 C 0.24841 0.97433 0.2629 0.0
C1999 C 0.19038 0.90712 0.2216 0.0
C2000 C 0.19428 0.91009 0.20377 0.0
C2001 C 0.20018 0.91431 0.23506 0.0
C2002 C 0.21396 0.92469 0.23092 0.0
C2003 C 0.21769 0.92824 0.21317 0.0
C2004 C 0.20794 0.92089 0.19966 0.0
C2005 C 0.22482 0.93044 0.24501 0.0
C2006 C 0.22955 0.94369 0.25181 0.0
C2007 C 0.22984 0.92235 0.25243 0.0
C2008 C 0.22508 0.90825 0.24579 0.0
C2009 C 0.22769 0.90621 0.22825 0.0
C2010 C 0.2229 0.89285 0.22198 0.0
C2011 C 0.21559 0.88145 0.23318 0.0
C2012 C 0.21309 0.88341 0.25069 0.0
C2013 C 0.21783 0.89675 0.25701 0.0
H2014 H 0.21189 0.87111 0.2283 0.0
H2015 H 0.25268 0.99829 0.29341 0.0
H2016 H 0.70926 0.96104 0.31496 0.0
H2017 H 0.70966 0.94994 0.28763 0.0
H2018 H 0.67562 0.95355 0.26655 0.0
H2019 H 0.6749 0.96439 0.29418 0.0
H2020 H 0.67074 0.92859 0.26048 0.0
H2021 H 0.70976 0.97412 0.25121 0.0
H2022 H 0.73196 0.99574 0.25841 0.0
H2023 H 0.75314 0.97323 0.26288 0.0
H2024 H 0.73102 0.95143 0.25595 0.0
H2025 H 0.67809 0.90471 0.17606 0.0
H2026 H 0.67818 0.92012 0.19876 0.0
H2027 H 0.70817 0.91543 0.22959 0.0
H2028 H 0.70786 0.89973 0.20734 0.0
H2029 H 0.71465 0.9428 0.22798 0.0
H2030 H 0.67465 0.8971 0.24015 0.0
H2031 H 0.65234 0.87566 0.23265 0.0
H2032 H 0.63299 0.8993 0.22195 0.0
H2033 H 0.65526 0.92091 0.22915 0.0
C2034 C 0.70192 0.95959 0.30449 0.0
C2035 C 0.69205 0.96363 0.30678 0.0
C2036 C 0.70222 0.9533 0.28879 0.0
C2037 C 0.69282 0.95109 0.27489 0.0
C2038 C 0.68301 0.95519 0.27706 0.0
C2039 C 0.68263 0.96141 0.29285 0.0
C2040 C 0.69284 0.94387 0.25851 0.0
C2041 C 0.68029 0.93189 0.25316 0.0
C2042 C 0.70533 0.94802 0.24906 0.0
C2043 C 0.71869 0.96112 0.25318 0.0
C2044 C 0.71912 0.97376 0.25385 0.0
C2045 C 0.7317 0.98605 0.25787 0.0
C2046 C 0.74394 0.98586 0.26114 0.0
C2047 C 0.74364 0.97337 0.26036 0.0
C2048 C 0.73109 0.96104 0.25636 0.0
C2049 C 0.68467 0.9069 0.1877 0.0
C2050 C 0.69293 0.90091 0.18985 0.0
C2051 C 0.68476 0.91577 0.20061 0.0
C2052 C 0.69313 0.91885 0.21589 0.0
C2053 C 0.70169 0.91324 0.21785 0.0
C2054 C 0.70154 0.9043 0.20504 0.0
C2055 C 0.69264 0.92748 0.23023 0.0
C2056 C 0.70508 0.93968 0.23518 0.0
C2057 C 0.68005 0.92361 0.23923 0.0
C2058 C 0.66665 0.91062 0.23498 0.0
C2059 C 0.66567 0.89773 0.23605 0.0
C2060 C 0.65303 0.88555 0.23188 0.0
C2061 C 0.64127 0.88612 0.22677 0.0
C2062 C 0.64211 0.89888 0.22587 0.0
C2063 C 0.65474 0.91109 0.23 0.0
H2064 H 0.63149 0.87668 0.22355 0.0
H2065 H 0.75367 0.99539 0.26425 0.0
H2066 H 0.04347 0.71408 0.30105 0.0
H2067 H 0.05537 0.7265 0.27395 0.0
H2068 H 0.03503 0.75002 0.27689 0.0
H2069 H 0.0233 0.73785 0.30405 0.0
H2070 H 0.03668 0.74082 0.24146 0.0
H2071 H 0.06566 0.76424 0.29346 0.0
H2072 H 0.07827 0.7651 0.32088 0.0
H2073 H 0.10307 0.75296 0.29195 0.0
H2074 H 0.09045 0.75184 0.26438 0.0
H2075 H 0.07839 0.80283 0.19451 0.0
H2076 H 0.06418 0.78434 0.21529 0.0
H2077 H 0.09537 0.77271 0.21656 0.0
H2078 H 0.11017 0.79187 0.19686 0.0
H2079 H 0.08812 0.77311 0.24808 0.0
H2080 H 0.06199 0.7525 0.19541 0.0
H2081 H 0.04947 0.75081 0.16757 0.0
H2082 H 0.0195 0.75605 0.19615 0.0
H2083 H 0.03194 0.75797 0.22416 0.0
C2084 C 0.04135 0.72172 0.29574 0.0
C2085 C 0.03255 0.72509 0.30474 0.0
C2086 C 0.04816 0.72881 0.2803 0.0
C2087 C 0.04611 0.7392 0.27352 0.0
C2088 C 0.03671 0.74201 0.28191 0.0
C2089 C 0.03009 0.7351 0.29748 0.0
C2090 C 0.05465 0.74807 0.25867 0.0
C2091 C 0.04793 0.74793 0.24284 0.0
C2092 C 0.06936 0.75702 0.26039 0.0
C2093 C 0.077 0.75779 0.27692 0.0
C2094 C 0.07372 0.76163 0.29298 0.0
C2095 C 0.08088 0.76219 0.30854 0.0
C2096 C 0.09143 0.75904 0.30817 0.0
C2097 C 0.09487 0.75537 0.29222 0.0
C2098 C 0.08772 0.75477 0.27663 0.0
C2099 C 0.08231 0.79642 0.19927 0.0
C2100 C 0.09551 0.79896 0.194 0.0
C2101 C 0.07402 0.78566 0.21096 0.0
C2102 C 0.07856 0.77694 0.21733 0.0
C2103 C 0.09159 0.77924 0.21179 0.0
C2104 C 0.09999 0.79014 0.20033 0.0
C2105 C 0.07019 0.76607 0.23069 0.0
C2106 C 0.07694 0.76586 0.24638 0.0
C2107 C 0.05553 0.75666 0.22869 0.0
C2108 C 0.04797 0.75548 0.21188 0.0
C2109 C 0.05279 0.75339 0.19575 0.0
C2110 C 0.04569 0.75237 0.17994 0.0
C2111 C 0.03371 0.75334 0.18009 0.0
C2112 C 0.02878 0.7553 0.19606 0.0
C2113 C 0.03584 0.75634 0.21191 0.0
H2114 H 0.02824 0.75256 0.16783 0.0
H2115 H 0.09697 0.75948 0.32023 0.0
H2116 H 0.27115 0.33951 0.30319 0.0
H2117 H 0.25183 0.32857 0.28199 0.0
H2118 H 0.25987 0.29561 0.274 0.0
H2119 H 0.2794 0.30654 0.29558 0.0
H2120 H 0.2567 0.30757 0.24204 0.0
H2121 H 0.23145 0.28693 0.29436 0.0
H2122 H 0.22446 0.28572 0.32545 0.0
H2123 H 0.20989 0.3134 0.31416 0.0
H2124 H 0.21699 0.31496 0.28304 0.0
H2125 H 0.19318 0.28127 0.18754 0.0
H2126 H 0.20941 0.2814 0.20999 0.0
H2127 H 0.21514 0.31915 0.23197 0.0
H2128 H 0.19919 0.31917 0.20958 0.0
H2129 H 0.20922 0.29779 0.25736 0.0
H2130 H 0.23932 0.32181 0.20703 0.0
H2131 H 0.24675 0.32343 0.17605 0.0
H2132 H 0.25202 0.28879 0.18396 0.0
H2133 H 0.24442 0.28685 0.21495 0.0
C2134 C 0.26882 0.32989 0.29703 0.0
C2135 C 0.27683 0.3239 0.30105 0.0
C2136 C 0.25771 0.32362 0.28497 0.0
C2137 C 0.25435 0.31123 0.27654 0.0
C2138 C 0.26228 0.30514 0.28045 0.0
C2139 C 0.27337 0.31136 0.2928 0.0
C2140 C 0.24284 0.30521 0.26322 0.0
C2141 C 0.24619 0.30501 0.24541 0.0
C2142 C 0.22917 0.302 0.26764 0.0
C2143 C 0.22482 0.3011 0.28635 0.0
C2144 C 0.22685 0.29284 0.29852 0.0
C2145 C 0.22285 0.29208 0.31615 0.0
C2146 C 0.21674 0.29949 0.32178 0.0
C2147 C 0.21461 0.30766 0.30977 0.0
C2148 C 0.2186 0.30847 0.29213 0.0
C2149 C 0.19794 0.28958 0.19719 0.0
C2150 C 0.19504 0.30027 0.19679 0.0
C2151 C 0.20718 0.28964 0.20994 0.0
C2152 C 0.21342 0.30027 0.22261 0.0
C2153 C 0.21039 0.31084 0.22232 0.0
C2154 C 0.20138 0.3109 0.20946 0.0
C2155 C 0.22327 0.30069 0.23621 0.0
C2156 C 0.21959 0.29987 0.25405 0.0
C2157 C 0.23658 0.30289 0.23182 0.0
C2158 C 0.24111 0.30405 0.21321 0.0
C2159 C 0.24192 0.31444 0.2021 0.0
C2160 C 0.24619 0.31544 0.18456 0.0
C2161 C 0.2498 0.30619 0.17802 0.0
C2162 C 0.24918 0.29593 0.18903 0.0
C2163 C 0.2449 0.29487 0.20658 0.0
H2164 H 0.25312 0.30699 0.16443 0.0
H2165 H 0.21365 0.29889 0.33544 0.0
H2166 H 0.28973 0.32715 0.3912 0.0
H2167 H 0.27835 0.32808 0.41824 0.0
H2168 H 0.29904 0.37248 0.41321 0.0
H2169 H 0.31008 0.37158 0.38595 0.0
H2170 H 0.2849 0.3401 0.45041 0.0
H2171 H 0.27601 0.3823 0.42129 0.0
H2172 H 0.27421 0.39118 0.39212 0.0
H2173 H 0.26023 0.3515 0.36866 0.0
H2174 H 0.26176 0.34234 0.39772 0.0
H2175 H 0.25375 0.36107 0.51609 0.0
H2176 H 0.26898 0.3602 0.49376 0.0
H2177 H 0.23434 0.34209 0.45651 0.0
H2178 H 0.21941 0.3438 0.47818 0.0
H2179 H 0.2559 0.36114 0.44089 0.0
H2180 H 0.2472 0.32306 0.47816 0.0
H2181 H 0.24666 0.31158 0.5062 0.0
H2182 H 0.2914 0.3382 0.51166 0.0
H2183 H 0.29217 0.34997 0.48375 0.0
C2184 C 0.29206 0.33714 0.39605 0.0
C2185 C 0.3006 0.34927 0.38628 0.0
C2186 C 0.28558 0.33766 0.41153 0.0
C2187 C 0.28761 0.35031 0.41753 0.0
C2188 C 0.29708 0.36256 0.40861 0.0
C2189 C 0.3034 0.36203 0.39304 0.0
C2190 C 0.27878 0.35057 0.43189 0.0
C2191 C 0.27859 0.34474 0.4484 0.0
C2192 C 0.27031 0.35635 0.42913 0.0
C2193 C 0.26916 0.3617 0.41164 0.0
C2194 C 0.27251 0.37547 0.40991 0.0
C2195 C 0.27154 0.38055 0.3934 0.0
C2196 C 0.26716 0.37192 0.37854 0.0
C2197 C 0.26367 0.35818 0.38017 0.0
C2198 C 0.2646 0.35305 0.39665 0.0
C2199 C 0.2494 0.357 0.5031 0.0
C2200 C 0.2353 0.35248 0.49901 0.0
C2201 C 0.25808 0.35634 0.49041 0.0
C2202 C 0.25279 0.35095 0.47347 0.0
C2203 C 0.23869 0.34628 0.46947 0.0
C2204 C 0.23009 0.34711 0.48202 0.0
C2205 C 0.26196 0.35067 0.45955 0.0
C2206 C 0.26225 0.35656 0.44306 0.0
C2207 C 0.27016 0.34457 0.46222 0.0
C2208 C 0.26972 0.33749 0.47896 0.0
C2209 C 0.25691 0.32654 0.48541 0.0
C2210 C 0.25656 0.31996 0.50127 0.0
C2211 C 0.26898 0.32418 0.51073 0.0
C2212 C 0.28178 0.33496 0.50433 0.0
C2213 C 0.28218 0.34157 0.48849 0.0
H2214 H 0.2687 0.31908 0.52301 0.0
H2215 H 0.26643 0.37588 0.36577 0.0
H2216 H 0.68266 0.96603 0.41444 0.0
H2217 H 0.67325 0.94927 0.43855 0.0
H2218 H 0.64094 0.91924 0.40355 0.0
H2219 H 0.64997 0.93643 0.37951 0.0
H2220 H 0.631 0.91568 0.43633 0.0
H2221 H 0.67169 0.91966 0.41042 0.0
H2222 H 0.69597 0.93159 0.39937 0.0
H2223 H 0.71179 0.94723 0.45152 0.0
H2224 H 0.68758 0.93555 0.46284 0.0
H2225 H 0.62712 0.85799 0.48473 0.0
H2226 H 0.62913 0.87471 0.46255 0.0
H2227 H 0.65589 0.90828 0.49792 0.0
H2228 H 0.65351 0.89169 0.52048 0.0
H2229 H 0.66748 0.90888 0.46407 0.0
H2230 H 0.62522 0.90313 0.48943 0.0
H2231 H 0.60055 0.88965 0.49902 0.0
H2232 H 0.58727 0.87493 0.44592 0.0
H2233 H 0.61189 0.88818 0.43605 0.0
C2234 C 0.67336 0.95594 0.41201 0.0
C2235 C 0.6671 0.95241 0.39515 0.0
C2236 C 0.66803 0.94635 0.42575 0.0
C2237 C 0.65666 0.93284 0.42272 0.0
C2238 C 0.6498 0.92956 0.40616 0.0
C2239 C 0.65494 0.93935 0.39245 0.0
C2240 C 0.65287 0.92201 0.4364 0.0
C2241 C 0.63894 0.91408 0.44226 0.0
C2242 C 0.66322 0.91987 0.44416 0.0
C2243 C 0.67781 0.92683 0.43744 0.0
C2244 C 0.68034 0.92572 0.41951 0.0
C2245 C 0.69409 0.93242 0.4132 0.0
C2246 C 0.70541 0.94018 0.42473 0.0
C2247 C 0.70301 0.94122 0.4426 0.0
C2248 C 0.68927 0.93455 0.44897 0.0
C2249 C 0.6331 0.86891 0.48804 0.0
C2250 C 0.64028 0.87348 0.50438 0.0
C2251 C 0.63426 0.87844 0.4753 0.0
C2252 C 0.64267 0.8927 0.47861 0.0
C2253 C 0.64938 0.8973 0.49512 0.0
C2254 C 0.6481 0.88779 0.50793 0.0
C2255 C 0.64573 0.90284 0.4643 0.0
C2256 C 0.65955 0.91053 0.45819 0.0
C2257 C 0.63522 0.90447 0.45612 0.0
C2258 C 0.62042 0.89653 0.46204 0.0
C2259 C 0.61705 0.89691 0.47983 0.0
C2260 C 0.60307 0.88934 0.48531 0.0
C2261 C 0.59235 0.88141 0.4731 0.0
C2262 C 0.59558 0.88107 0.45537 0.0
C2263 C 0.60955 0.88862 0.44982 0.0
H2264 H 0.58154 0.87555 0.47737 0.0
H2265 H 0.71605 0.94537 0.41982 0.0
H2266 H 0.05057 0.70113 0.39106 0.0
H2267 H 0.06939 0.70881 0.41336 0.0
H2268 H 0.06939 0.7466 0.42074 0.0
H2269 H 0.05082 0.73913 0.39866 0.0
H2270 H 0.0958 0.7515 0.41669 0.0
H2271 H 0.05396 0.72042 0.4503 0.0
H2272 H 0.03268 0.69788 0.45686 0.0
H2273 H 0.05757 0.67917 0.46194 0.0
H2274 H 0.07899 0.70158 0.45517 0.0
H2275 H 0.1263 0.78212 0.4972 0.0
H2276 H 0.10955 0.7694 0.47345 0.0
H2277 H 0.11927 0.73723 0.47696 0.0
H2278 H 0.13599 0.74985 0.50119 0.0
H2279 H 0.09034 0.72689 0.47331 0.0
H2280 H 0.13262 0.75885 0.44398 0.0
H2281 H 0.15389 0.7815 0.43791 0.0
H2282 H 0.12839 0.79849 0.42455 0.0
H2283 H 0.10696 0.77599 0.43081 0.0
C2284 C 0.05457 0.71106 0.39748 0.0
C2285 C 0.04919 0.71951 0.39305 0.0
C2286 C 0.06529 0.71541 0.41023 0.0
C2287 C 0.07078 0.72828 0.4187 0.0
C2288 C 0.06537 0.73666 0.41431 0.0
C2289 C 0.05469 0.73233 0.4017 0.0
C2290 C 0.08226 0.73331 0.43205 0.0
C2291 C 0.09459 0.74613 0.42909 0.0
C2292 C 0.0809 0.72607 0.44794 0.0
C2293 C 0.06804 0.71262 0.452 0.0
C2294 C 0.05487 0.71147 0.45265 0.0
C2295 C 0.04279 0.69872 0.45644 0.0
C2296 C 0.04377 0.68709 0.45975 0.0
C2297 C 0.05683 0.68818 0.45933 0.0
C2298 C 0.06894 0.7009 0.45552 0.0
C2299 C 0.12476 0.77224 0.49314 0.0
C2300 C 0.13245 0.76698 0.50112 0.0
C2301 C 0.11527 0.76505 0.47943 0.0
C2302 C 0.1133 0.75246 0.4733 0.0
C2303 C 0.1207 0.74696 0.48146 0.0
C2304 C 0.13029 0.75422 0.4952 0.0
C2305 C 0.1036 0.74532 0.45819 0.0
C2306 C 0.09167 0.73212 0.46078 0.0
C2307 C 0.10532 0.75219 0.44189 0.0
C2308 C 0.11818 0.76574 0.43797 0.0
C2309 C 0.13155 0.76744 0.43987 0.0
C2310 C 0.14363 0.78025 0.43638 0.0
C2311 C 0.14249 0.79143 0.43087 0.0
C2312 C 0.12925 0.78982 0.42882 0.0
C2313 C 0.11713 0.77703 0.43231 0.0
H2314 H 0.15186 0.80134 0.42818 0.0
H2315 H 0.0344 0.67723 0.46269 0.0
H2316 H 0.33034 0.04391 0.73922 0.0
H2317 H 0.33136 0.0563 0.76637 0.0
H2318 H 0.29561 0.05814 0.74819 0.0
H2319 H 0.29436 0.04572 0.72137 0.0
H2320 H 0.31986 0.08419 0.75783 0.0
H2321 H 0.2907 0.03721 0.77983 0.0
H2322 H 0.28563 0.01374 0.78686 0.0
H2323 H 0.32172 0.03096 0.82134 0.0
H2324 H 0.32711 0.05456 0.81431 0.0
H2325 H 0.29769 0.10919 0.8254 0.0
H2326 H 0.29867 0.09435 0.80307 0.0
H2327 H 0.32872 0.09043 0.83491 0.0
H2328 H 0.32714 0.10465 0.85801 0.0
H2329 H 0.31091 0.06633 0.81936 0.0
H2330 H 0.3395 0.11287 0.79982 0.0
H2331 H 0.34564 0.1367 0.79292 0.0
H2332 H 0.31277 0.12118 0.75366 0.0
H2333 H 0.30628 0.09724 0.76051 0.0
C2334 C 0.32259 0.04679 0.74114 0.0
C2335 C 0.31232 0.04387 0.72806 0.0
C2336 C 0.32318 0.05385 0.75664 0.0
C2337 C 0.31359 0.05816 0.75919 0.0
C2338 C 0.30313 0.05493 0.74642 0.0
C2339 C 0.30243 0.04778 0.7311 0.0
C2340 C 0.31478 0.06679 0.77457 0.0
C2341 C 0.31782 0.08028 0.77128 0.0
C2342 C 0.31267 0.06182 0.79214 0.0
C2343 C 0.30941 0.04765 0.79637 0.0
C2344 C 0.29764 0.036 0.78876 0.0
C2345 C 0.29468 0.02267 0.79278 0.0
C2346 C 0.30337 0.02086 0.80449 0.0
C2347 C 0.31501 0.03237 0.81224 0.0
C2348 C 0.31802 0.04573 0.80825 0.0
C2349 C 0.30429 0.10495 0.82794 0.0
C2350 C 0.31237 0.1082 0.84357 0.0
C2351 C 0.30499 0.0966 0.81499 0.0
C2352 C 0.31402 0.09153 0.81711 0.0
C2353 C 0.32178 0.09433 0.83291 0.0
C2354 C 0.32096 0.10259 0.84602 0.0
C2355 C 0.31554 0.08363 0.80255 0.0
C2356 C 0.31311 0.07034 0.80596 0.0
C2357 C 0.31842 0.08884 0.78504 0.0
C2358 C 0.32234 0.10324 0.78078 0.0
C2359 C 0.33352 0.11453 0.7898 0.0
C2360 C 0.33707 0.12806 0.78588 0.0
C2361 C 0.32959 0.13045 0.77288 0.0
C2362 C 0.31855 0.11932 0.76374 0.0
C2363 C 0.31495 0.10576 0.76762 0.0
H2364 H 0.33235 0.14094 0.76987 0.0
H2365 H 0.30107 0.01053 0.80759 0.0
H2366 H 0.96908 0.29187 0.72809 0.0
H2367 H 0.95816 0.27749 0.75433 0.0
H2368 H 0.95117 0.24149 0.72573 0.0
H2369 H 0.96197 0.25565 0.6996 0.0
H2370 H 0.92762 0.23699 0.74277 0.0
H2371 H 0.97693 0.25644 0.75612 0.0
H2372 H 0.0014 0.27547 0.76101 0.0
H2373 H 0.98823 0.29091 0.80369 0.0
H2374 H 0.96364 0.27206 0.79889 0.0
H2375 H 0.90873 0.18626 0.80734 0.0
H2376 H 0.92188 0.20336 0.78453 0.0
H2377 H 0.92864 0.23616 0.81989 0.0
H2378 H 0.916 0.21911 0.84318 0.0
H2379 H 0.9518 0.24387 0.80066 0.0
H2380 H 0.90294 0.22429 0.78868 0.0
H2381 H 0.87827 0.20563 0.78406 0.0
H2382 H 0.89012 0.19115 0.73899 0.0
H2383 H 0.9149 0.20961 0.7435 0.0
C2384 C 0.96527 0.28091 0.72743 0.0
C2385 C 0.96639 0.27492 0.71173 0.0
C2386 C 0.95908 0.27272 0.74244 0.0
C2387 C 0.95389 0.25843 0.74197 0.0
C2388 C 0.95508 0.25248 0.72636 0.0
C2389 C 0.9613 0.26063 0.71144 0.0
C2390 C 0.94684 0.24947 0.75748 0.0
C2391 C 0.93295 0.23841 0.75538 0.0
C2392 C 0.95365 0.25163 0.77409 0.0
C2393 C 0.96843 0.26294 0.77701 0.0
C2394 C 0.97923 0.26396 0.76644 0.0
C2395 C 0.99313 0.2747 0.76922 0.0
C2396 C 0.99636 0.28442 0.78262 0.0
C2397 C 0.98571 0.28339 0.7933 0.0
C2398 C 0.97179 0.27268 0.79056 0.0
C2399 C 0.91326 0.19712 0.81046 0.0
C2400 C 0.91122 0.20128 0.8271 0.0
C2401 C 0.92065 0.20689 0.7973 0.0
C2402 C 0.926 0.22102 0.80038 0.0
C2403 C 0.92451 0.2253 0.81718 0.0
C2404 C 0.91717 0.21552 0.83042 0.0
C2405 C 0.93268 0.23118 0.7858 0.0
C2406 C 0.94644 0.24249 0.78809 0.0
C2407 C 0.92572 0.22935 0.76935 0.0
C2408 C 0.9108 0.21827 0.76652 0.0
C2409 C 0.9003 0.21707 0.77786 0.0
C2410 C 0.8863 0.20654 0.77525 0.0
C2411 C 0.88264 0.19719 0.76126 0.0
C2412 C 0.89297 0.19839 0.74983 0.0
C2413 C 0.907 0.20889 0.7524 0.0
H2414 H 0.87178 0.18905 0.75926 0.0
H2415 H 0.00713 0.29273 0.78476 0.0
H2416 H 0.72083 0.69328 0.73537 0.0
H2417 H 0.73842 0.70309 0.75939 0.0
H2418 H 0.75244 0.67525 0.74573 0.0
H2419 H 0.73476 0.66522 0.72235 0.0
H2420 H 0.74789 0.67375 0.77929 0.0
H2421 H 0.77175 0.71109 0.73707 0.0
H2422 H 0.77426 0.72968 0.71738 0.0
H2423 H 0.76903 0.75024 0.76159 0.0
H2424 H 0.76632 0.73167 0.78151 0.0
H2425 H 0.81671 0.70202 0.81063 0.0
H2426 H 0.7991 0.70074 0.78999 0.0
H2427 H 0.78004 0.71061 0.83214 0.0
H2428 H 0.79743 0.71148 0.85318 0.0
H2429 H 0.78515 0.723 0.78851 0.0
H2430 H 0.76082 0.68375 0.83047 0.0
H2431 H 0.76057 0.66541 0.84856 0.0
H2432 H 0.76857 0.64875 0.80231 0.0
H2433 H 0.76908 0.66714 0.78401 0.0
C2434 C 0.72782 0.68942 0.7374 0.0
C2435 C 0.72634 0.6784 0.72712 0.0
C2436 C 0.73786 0.69503 0.7511 0.0
C2437 C 0.74672 0.68986 0.75445 0.0
C2438 C 0.74563 0.67931 0.74359 0.0
C2439 C 0.73552 0.67359 0.73018 0.0
C2440 C 0.75663 0.69467 0.76977 0.0
C2441 C 0.75595 0.68456 0.78128 0.0
C2442 C 0.76704 0.70878 0.7727 0.0
C2443 C 0.76865 0.71991 0.76073 0.0
C2444 C 0.77101 0.71952 0.74256 0.0
C2445 C 0.7725 0.73006 0.73137 0.0
C2446 C 0.77175 0.74111 0.73822 0.0
C2447 C 0.76957 0.74166 0.75629 0.0
C2448 C 0.76807 0.73114 0.76754 0.0
C2449 C 0.80885 0.70403 0.81554 0.0
C2450 C 0.80829 0.70657 0.83362 0.0
C2451 C 0.79891 0.70346 0.80368 0.0
C2452 C 0.78832 0.70557 0.80959 0.0
C2453 C 0.78824 0.70905 0.82736 0.0
C2454 C 0.79816 0.70953 0.83934 0.0
C2455 C 0.77637 0.70205 0.79761 0.0
C2456 C 0.77675 0.71231 0.78672 0.0
C2457 C 0.76571 0.68807 0.79505 0.0
C2458 C 0.7651 0.67686 0.80594 0.0
C2459 C 0.76262 0.67623 0.8242 0.0
C2460 C 0.76242 0.66582 0.83448 0.0
C2461 C 0.76458 0.65594 0.8266 0.0
C2462 C 0.76691 0.65642 0.8084 0.0
C2463 C 0.76714 0.66682 0.79808 0.0
H2464 H 0.76443 0.6479 0.83458 0.0
H2465 H 0.77291 0.74927 0.72953 0.0
H2466 H 0.71358 0.6753 0.63543 0.0
H2467 H 0.72364 0.67451 0.60714 0.0
H2468 H 0.70433 0.63025 0.61241 0.0
H2469 H 0.69468 0.63105 0.64085 0.0
H2470 H 0.73075 0.64134 0.6059 0.0
H2471 H 0.69368 0.64572 0.58052 0.0
H2472 H 0.67928 0.65623 0.57617 0.0
H2473 H 0.71564 0.6941 0.55897 0.0
H2474 H 0.73031 0.68389 0.56345 0.0
H2475 H 0.75034 0.62794 0.52448 0.0
H2476 H 0.73477 0.62868 0.54633 0.0
H2477 H 0.75884 0.67333 0.54497 0.0
H2478 H 0.77431 0.67269 0.52271 0.0
H2479 H 0.72964 0.66223 0.54851 0.0
H2480 H 0.76661 0.65806 0.57554 0.0
H2481 H 0.781 0.64754 0.57994 0.0
H2482 H 0.7442 0.60896 0.59425 0.0
H2483 H 0.72955 0.6192 0.58967 0.0
C2484 C 0.71128 0.66538 0.63038 0.0
C2485 C 0.70346 0.65326 0.64043 0.0
C2486 C 0.71699 0.66493 0.61417 0.0
C2487 C 0.71474 0.65231 0.6076 0.0
C2488 C 0.7063 0.64012 0.61723 0.0
C2489 C 0.70078 0.64059 0.6335 0.0
C2490 C 0.72218 0.65188 0.59165 0.0
C2491 C 0.73025 0.64569 0.59328 0.0
C2492 C 0.72194 0.65794 0.5753 0.0
C2493 C 0.71312 0.66408 0.57248 0.0
C2494 C 0.69863 0.65633 0.57594 0.0
C2495 C 0.69042 0.66222 0.57343 0.0
C2496 C 0.69655 0.67584 0.56735 0.0
C2497 C 0.71091 0.68356 0.5637 0.0
C2498 C 0.71918 0.67772 0.56621 0.0
C2499 C 0.75212 0.63792 0.52846 0.0
C2500 C 0.76365 0.65026 0.52199 0.0
C2501 C 0.74325 0.63832 0.54102 0.0
C2502 C 0.74578 0.65106 0.54742 0.0
C2503 C 0.75674 0.6634 0.54022 0.0
C2504 C 0.76564 0.66301 0.52765 0.0
C2505 C 0.7379 0.65148 0.56282 0.0
C2506 C 0.72992 0.65777 0.56113 0.0
C2507 C 0.73816 0.64549 0.57917 0.0
C2508 C 0.74697 0.63935 0.58209 0.0
C2509 C 0.76157 0.6473 0.57949 0.0
C2510 C 0.76978 0.6414 0.58204 0.0
C2511 C 0.76351 0.62758 0.58732 0.0
C2512 C 0.74903 0.61965 0.59013 0.0
C2513 C 0.74078 0.6255 0.58757 0.0
H2514 H 0.76988 0.62302 0.58929 0.0
H2515 H 0.69017 0.68038 0.56543 0.0
H2516 H 0.34721 0.04918 0.62982 0.0
H2517 H 0.35735 0.06574 0.60526 0.0
H2518 H 0.34036 0.08913 0.62714 0.0
H2519 H 0.3296 0.07221 0.65086 0.0
H2520 H 0.3336 0.08513 0.59508 0.0
H2521 H 0.3772 0.10049 0.62623 0.0
H2522 H 0.39575 0.09797 0.64045 0.0
H2523 H 0.40306 0.08393 0.59133 0.0
H2524 H 0.38443 0.0862 0.57687 0.0
H2525 H 0.37525 0.14916 0.54796 0.0
H2526 H 0.37367 0.13338 0.57134 0.0
H2527 H 0.35756 0.09994 0.53362 0.0
H2528 H 0.35903 0.11564 0.51011 0.0
H2529 H 0.38218 0.10871 0.57191 0.0
H2530 H 0.33166 0.0874 0.54605 0.0
H2531 H 0.3145 0.09257 0.533 0.0
H2532 H 0.32289 0.12147 0.57494 0.0
H2533 H 0.34019 0.11653 0.58808 0.0
C2534 C 0.34588 0.05801 0.62945 0.0
C2535 C 0.33757 0.05942 0.64207 0.0
C2536 C 0.35171 0.0675 0.61547 0.0
C2537 C 0.34963 0.07873 0.61428 0.0
C2538 C 0.34199 0.08049 0.62758 0.0
C2539 C 0.33589 0.07086 0.64118 0.0
C2540 C 0.35424 0.08803 0.59858 0.0
C2541 C 0.34427 0.09023 0.59017 0.0
C2542 C 0.3681 0.09471 0.59185 0.0
C2543 C 0.37932 0.09338 0.60052 0.0
C2544 C 0.38269 0.09676 0.6185 0.0
C2545 C 0.39323 0.0954 0.62659 0.0
C2546 C 0.40055 0.09075 0.61681 0.0
C2547 C 0.39737 0.0875 0.5989 0.0
C2548 C 0.38683 0.08884 0.59074 0.0
C2549 C 0.37179 0.13856 0.54452 0.0
C2550 C 0.36716 0.1336 0.52724 0.0
C2551 C 0.37093 0.12958 0.55788 0.0
C2552 C 0.36557 0.11556 0.55413 0.0
C2553 C 0.36182 0.11077 0.53669 0.0
C2554 C 0.36255 0.11971 0.52334 0.0
C2555 C 0.36153 0.10559 0.56883 0.0
C2556 C 0.37154 0.10336 0.57693 0.0
C2557 C 0.3478 0.09898 0.57555 0.0
C2558 C 0.33716 0.10162 0.56798 0.0
C2559 C 0.3298 0.09484 0.55245 0.0
C2560 C 0.32009 0.09775 0.54503 0.0
C2561 C 0.31761 0.10735 0.55313 0.0
C2562 C 0.32482 0.11404 0.56868 0.0
C2563 C 0.33457 0.11119 0.57611 0.0
H2564 H 0.31009 0.1096 0.54736 0.0
H2565 H 0.4087 0.0897 0.62311 0.0
H2566 H 0.96302 0.28915 0.60744 0.0
H2567 H 0.94376 0.28349 0.58677 0.0
H2568 H 0.92409 0.29536 0.62586 0.0
H2569 H 0.94362 0.3014 0.64657 0.0
H2570 H 0.90715 0.26743 0.61141 0.0
H2571 H 0.93448 0.3143 0.59195 0.0
H2572 H 0.95586 0.33552 0.58192 0.0
H2573 H 0.95733 0.31401 0.53611 0.0
H2574 H 0.93608 0.2926 0.546 0.0
H2575 H 0.85054 0.24368 0.55096 0.0
H2576 H 0.86903 0.25917 0.57159 0.0
H2577 H 0.90038 0.2621 0.53585 0.0
H2578 H 0.88205 0.24753 0.51457 0.0
H2579 H 0.9102 0.28581 0.55084 0.0
H2580 H 0.88706 0.23871 0.57217 0.0
H2581 H 0.8669 0.21635 0.58192 0.0
H2582 H 0.85894 0.23688 0.62372 0.0
H2583 H 0.87896 0.2594 0.61406 0.0
C2584 C 0.95474 0.29082 0.61152 0.0
C2585 C 0.95478 0.29567 0.62862 0.0
C2586 C 0.94378 0.28764 0.59968 0.0
C2587 C 0.93254 0.28904 0.6048 0.0
C2588 C 0.93273 0.29429 0.62167 0.0
C2589 C 0.94388 0.29777 0.63343 0.0
C2590 C 0.92005 0.28365 0.59305 0.0
C2591 C 0.90765 0.27164 0.59832 0.0
C2592 C 0.92094 0.28893 0.57583 0.0
C2593 C 0.93372 0.30181 0.56979 0.0
C2594 C 0.93943 0.31406 0.57981 0.0
C2595 C 0.95151 0.32613 0.57413 0.0
C2596 C 0.95797 0.32611 0.5584 0.0
C2597 C 0.95233 0.31402 0.54829 0.0
C2598 C 0.94024 0.30191 0.55392 0.0
C2599 C 0.86137 0.24788 0.54725 0.0
C2600 C 0.86473 0.24414 0.53113 0.0
C2601 C 0.87195 0.25662 0.5592 0.0
C2602 C 0.88611 0.26155 0.55551 0.0
C2603 C 0.88954 0.25836 0.53911 0.0
C2604 C 0.87899 0.24983 0.52703 0.0
C2605 C 0.89734 0.26934 0.56901 0.0
C2606 C 0.90953 0.28176 0.56406 0.0
C2607 C 0.8964 0.26426 0.58644 0.0
C2608 C 0.88438 0.25075 0.59226 0.0
C2609 C 0.88094 0.23846 0.58336 0.0
C2610 C 0.86956 0.22576 0.58888 0.0
C2611 C 0.86162 0.2252 0.60339 0.0
C2612 C 0.86508 0.23734 0.61245 0.0
C2613 C 0.87644 0.25007 0.60696 0.0
H2614 H 0.85281 0.21536 0.60765 0.0
H2615 H 0.96732 0.33547 0.55403 0.0
H2616 H 0.33954 0.29689 0.62533 0.0
H2617 H 0.33914 0.28552 0.59759 0.0
H2618 H 0.37661 0.28614 0.61409 0.0
H2619 H 0.37734 0.2978 0.64137 0.0
H2620 H 0.37839 0.29199 0.58064 0.0
H2621 H 0.34251 0.25683 0.61824 0.0
H2622 H 0.32102 0.24626 0.6362 0.0
H2623 H 0.2971 0.24558 0.59092 0.0
H2624 H 0.3185 0.2563 0.57274 0.0
H2625 H 0.37485 0.23427 0.53972 0.0
H2626 H 0.37451 0.25073 0.56007 0.0
H2627 H 0.34198 0.25068 0.52877 0.0
H2628 H 0.34261 0.2346 0.50779 0.0
H2629 H 0.33628 0.2464 0.5657 0.0
H2630 H 0.37261 0.27838 0.5273 0.0
H2631 H 0.39441 0.28788 0.51016 0.0
H2632 H 0.41791 0.29355 0.55802 0.0
H2633 H 0.39621 0.28389 0.57543 0.0
C2634 C 0.34776 0.29471 0.62295 0.0
C2635 C 0.35843 0.2982 0.63563 0.0
C2636 C 0.34748 0.28815 0.60712 0.0
C2637 C 0.35774 0.28479 0.60383 0.0
C2638 C 0.36859 0.28863 0.61627 0.0
C2639 C 0.36895 0.29527 0.63194 0.0
C2640 C 0.35709 0.27686 0.58782 0.0
C2641 C 0.36918 0.282 0.57743 0.0
C2642 C 0.34498 0.26397 0.5833 0.0
C2643 C 0.33213 0.25752 0.5942 0.0
C2644 C 0.33269 0.25452 0.61216 0.0
C2645 C 0.32052 0.24849 0.62237 0.0
C2646 C 0.30771 0.2453 0.61472 0.0
C2647 C 0.30704 0.24809 0.59683 0.0
C2648 C 0.31918 0.25414 0.58657 0.0
C2649 C 0.36783 0.23796 0.53685 0.0
C2650 C 0.35879 0.23308 0.522 0.0
C2651 C 0.3676 0.24732 0.5486 0.0
C2652 C 0.35827 0.25197 0.54587 0.0
C2653 C 0.34924 0.2472 0.53111 0.0
C2654 C 0.34957 0.23794 0.51919 0.0
C2655 C 0.35768 0.26138 0.55893 0.0
C2656 C 0.34537 0.25651 0.56874 0.0
C2657 C 0.36964 0.27443 0.56307 0.0
C2658 C 0.38275 0.28032 0.55266 0.0
C2659 C 0.3824 0.28155 0.53416 0.0
C2660 C 0.39475 0.28699 0.5244 0.0
C2661 C 0.40754 0.29129 0.53299 0.0
C2662 C 0.408 0.2902 0.55137 0.0
C2663 C 0.39568 0.28477 0.5612 0.0
H2664 H 0.41708 0.2955 0.52541 0.0
H2665 H 0.29831 0.24062 0.62265 0.0
H2666 H 0.70228 0.04254 0.62874 0.0
H2667 H 0.7118 0.05575 0.60132 0.0
H2668 H 0.71803 0.09245 0.62732 0.0
H2669 H 0.70837 0.07939 0.65445 0.0
H2670 H 0.70715 0.0902 0.59535 0.0
H2671 H 0.74519 0.08656 0.62079 0.0
H2672 H 0.75631 0.074 0.63202 0.0
H2673 H 0.7495 0.05384 0.58172 0.0
H2674 H 0.73818 0.06617 0.57026 0.0
H2675 H 0.76119 0.14789 0.5511 0.0
H2676 H 0.74663 0.12939 0.57174 0.0
H2677 H 0.74201 0.09892 0.53377 0.0
H2678 H 0.75629 0.1174 0.51268 0.0
H2679 H 0.74944 0.09472 0.56758 0.0
H2680 H 0.71457 0.1015 0.54109 0.0
H2681 H 0.70423 0.11485 0.53018 0.0
H2682 H 0.70553 0.12969 0.58278 0.0
H2683 H 0.71608 0.11659 0.59397 0.0
C2684 C 0.70565 0.05342 0.62857 0.0
C2685 C 0.70459 0.0599 0.64382 0.0
C2686 C 0.71112 0.06096 0.61292 0.0
C2687 C 0.71572 0.07513 0.6123 0.0
C2688 C 0.71451 0.08153 0.62744 0.0
C2689 C 0.70902 0.07403 0.643 0.0
C2690 C 0.72204 0.08352 0.5961 0.0
C2691 C 0.71643 0.09122 0.58933 0.0
C2692 C 0.73389 0.08454 0.58787 0.0
C2693 C 0.74068 0.07714 0.59475 0.0
C2694 C 0.74596 0.07936 0.61218 0.0
C2695 C 0.75232 0.0723 0.61857 0.0
C2696 C 0.75356 0.06309 0.60761 0.0
C2697 C 0.7485 0.06095 0.59021 0.0
C2698 C 0.74211 0.06797 0.58375 0.0
C2699 C 0.75687 0.13726 0.54692 0.0
C2700 C 0.75989 0.13417 0.53014 0.0
C2701 C 0.74859 0.12669 0.5588 0.0
C2702 C 0.74316 0.11278 0.55423 0.0
C2703 C 0.74611 0.1096 0.53754 0.0
C2704 C 0.75433 0.12019 0.52555 0.0
C2705 C 0.7348 0.10171 0.56726 0.0
C2706 C 0.74001 0.0935 0.5734 0.0
C2707 C 0.72262 0.10027 0.57499 0.0
C2708 C 0.71621 0.10812 0.56835 0.0
C2709 C 0.71275 0.10769 0.55031 0.0
C2710 C 0.70683 0.1152 0.54408 0.0
C2711 C 0.70425 0.12313 0.55578 0.0
C2712 C 0.70754 0.12354 0.57374 0.0
C2713 C 0.71348 0.11606 0.58003 0.0
H2714 H 0.69967 0.12893 0.55093 0.0
H2715 H 0.75849 0.05764 0.61259 0.0
H2716 H 0.94661 0.64345 0.62992 0.0
H2717 H 0.92823 0.63232 0.60684 0.0
H2718 H 0.91223 0.65834 0.62129 0.0
H2719 H 0.93067 0.66971 0.64376 0.0
H2720 H 0.8911 0.62814 0.61519 0.0
H2721 H 0.93273 0.66924 0.58972 0.0
H2722 H 0.95776 0.68226 0.58156 0.0
H2723 H 0.95157 0.64779 0.55046 0.0
H2724 H 0.92652 0.63451 0.55867 0.0
H2725 H 0.85518 0.64378 0.5541 0.0
H2726 H 0.8706 0.64229 0.57569 0.0
H2727 H 0.88419 0.62441 0.53625 0.0
H2728 H 0.86922 0.6266 0.51413 0.0
H2729 H 0.90598 0.64335 0.55342 0.0
H2730 H 0.86332 0.60476 0.57179 0.0
H2731 H 0.83827 0.59085 0.57961 0.0
H2732 H 0.84568 0.61776 0.62364 0.0
H2733 H 0.87074 0.63197 0.61594 0.0
C2734 C 0.93903 0.64663 0.62826 0.0
C2735 C 0.94007 0.65748 0.6385 0.0
C2736 C 0.92859 0.6403 0.61512 0.0
C2737 C 0.9189 0.64453 0.61245 0.0
C2738 C 0.91958 0.6549 0.62323 0.0
C2739 C 0.93015 0.66143 0.63598 0.0
C2740 C 0.90861 0.63908 0.59767 0.0
C2741 C 0.89427 0.63135 0.60163 0.0
C2742 C 0.91283 0.64282 0.57995 0.0
C2743 C 0.92784 0.65083 0.575 0.0
C2744 C 0.93675 0.6644 0.58129 0.0
C2745 C 0.95092 0.67183 0.57663 0.0
C2746 C 0.95627 0.66583 0.56556 0.0
C2747 C 0.94743 0.65241 0.55908 0.0
C2748 C 0.93325 0.64493 0.56373 0.0
C2749 C 0.86148 0.63959 0.54992 0.0
C2750 C 0.86106 0.63545 0.5323 0.0
C2751 C 0.87014 0.63851 0.56241 0.0
C2752 C 0.8784 0.63299 0.55773 0.0
C2753 C 0.87784 0.62861 0.54022 0.0
C2754 C 0.86922 0.62979 0.52761 0.0
C2755 C 0.8883 0.63289 0.57098 0.0
C2756 C 0.90263 0.63963 0.56678 0.0
C2757 C 0.88402 0.62799 0.58845 0.0
C2758 C 0.86894 0.61947 0.59323 0.0
C2759 C 0.85961 0.60777 0.58308 0.0
C2760 C 0.8454 0.59982 0.5875 0.0
C2761 C 0.84039 0.60342 0.6021 0.0
C2762 C 0.84958 0.61497 0.61234 0.0
C2763 C 0.8638 0.62297 0.60797 0.0
H2764 H 0.82938 0.59725 0.6055 0.0
H2765 H 0.96724 0.6716 0.56195 0.0
H2766 H 0.95932 0.70231 0.71734 0.0
H2767 H 0.95173 0.70432 0.74654 0.0
H2768 H 0.9574 0.67152 0.7656 0.0
H2769 H 0.96466 0.66913 0.73594 0.0
H2770 H 0.93354 0.66749 0.77684 0.0
H2771 H 0.97998 0.70585 0.77887 0.0
H2772 H 0.00136 0.72693 0.76854 0.0
H2773 H 0.97915 0.74852 0.76638 0.0
H2774 H 0.95757 0.72752 0.77645 0.0
H2775 H 0.91269 0.68311 0.85972 0.0
H2776 H 0.92876 0.68157 0.83901 0.0
H2777 H 0.92117 0.70536 0.80067 0.0
H2778 H 0.90497 0.70663 0.8211 0.0
H2779 H 0.95031 0.71322 0.80475 0.0
H2780 H 0.90302 0.67235 0.79683 0.0
H2781 H 0.88203 0.65112 0.8077 0.0
H2782 H 0.90747 0.63433 0.82245 0.0
H2783 H 0.92865 0.65558 0.81188 0.0
C2784 C 0.9591 0.69558 0.72773 0.0
C2785 C 0.96264 0.68558 0.72429 0.0
C2786 C 0.95485 0.69682 0.74452 0.0
C2787 C 0.95428 0.68828 0.75842 0.0
C2788 C 0.95787 0.6783 0.75511 0.0
C2789 C 0.96202 0.67695 0.73817 0.0
C2790 C 0.94904 0.68936 0.77598 0.0
C2791 C 0.93748 0.67745 0.7832 0.0
C2792 C 0.95414 0.70234 0.78435 0.0
C2793 C 0.96712 0.71507 0.77837 0.0
C2794 C 0.97963 0.71507 0.7761 0.0
C2795 C 0.99179 0.72701 0.7703 0.0
C2796 C 0.99161 0.73906 0.76679 0.0
C2797 C 0.97928 0.73919 0.76911 0.0
C2798 C 0.96708 0.72727 0.77491 0.0
C2799 C 0.91466 0.68814 0.84694 0.0
C2800 C 0.90768 0.69497 0.84186 0.0
C2801 C 0.92378 0.68725 0.83517 0.0
C2802 C 0.92612 0.69336 0.81835 0.0
C2803 C 0.91954 0.70065 0.81363 0.0
C2804 C 0.91029 0.70133 0.82522 0.0
C2805 C 0.9346 0.69149 0.80502 0.0
C2806 C 0.94672 0.70324 0.79863 0.0
C2807 C 0.93016 0.67837 0.79758 0.0
C2808 C 0.91742 0.6656 0.8038 0.0
C2809 C 0.90415 0.66418 0.80254 0.0
C2810 C 0.89222 0.65214 0.80862 0.0
C2811 C 0.89342 0.6414 0.81582 0.0
C2812 C 0.90656 0.64267 0.81691 0.0
C2813 C 0.91853 0.6547 0.81088 0.0
H2814 H 0.88418 0.63208 0.82051 0.0
H2815 H 0.00104 0.74829 0.7623 0.0
H2816 H 0.31802 0.2821 0.72418 0.0
H2817 H 0.30843 0.2646 0.74783 0.0
H2818 H 0.34818 0.26692 0.75233 0.0
H2819 H 0.35775 0.28421 0.72903 0.0
H2820 H 0.32575 0.24008 0.75073 0.0
H2821 H 0.33933 0.2831 0.7817 0.0
H2822 H 0.33812 0.30389 0.78754 0.0
H2823 H 0.29399 0.27825 0.79796 0.0
H2824 H 0.29492 0.25731 0.79196 0.0
H2825 H 0.33481 0.21636 0.83137 0.0
H2826 H 0.33615 0.23101 0.80682 0.0
H2827 H 0.29358 0.22026 0.81642 0.0
H2828 H 0.29224 0.20569 0.84144 0.0
H2829 H 0.31158 0.24845 0.80914 0.0
H2830 H 0.29876 0.20533 0.78292 0.0
H2831 H 0.29985 0.18446 0.77737 0.0
H2832 H 0.34175 0.20972 0.75757 0.0
H2833 H 0.341 0.23077 0.76325 0.0
C2834 C 0.32468 0.27886 0.73024 0.0
C2835 C 0.33866 0.28457 0.72471 0.0
C2836 C 0.31921 0.2689 0.74375 0.0
C2837 C 0.32761 0.26448 0.75182 0.0
C2838 C 0.34149 0.27014 0.74624 0.0
C2839 C 0.34697 0.28009 0.73294 0.0
C2840 C 0.32222 0.25395 0.7661 0.0
C2841 C 0.32265 0.2419 0.76351 0.0
C2842 C 0.31769 0.25609 0.78254 0.0
C2843 C 0.31716 0.26867 0.78615 0.0
C2844 C 0.32935 0.28191 0.78508 0.0
C2845 C 0.32872 0.29371 0.78845 0.0
C2846 C 0.31598 0.29239 0.79305 0.0
C2847 C 0.30385 0.27926 0.79435 0.0
C2848 C 0.30442 0.26742 0.79097 0.0
C2849 C 0.32579 0.21725 0.82849 0.0
C2850 C 0.31343 0.20986 0.8384 0.0
C2851 C 0.32652 0.22553 0.81432 0.0
C2852 C 0.3149 0.22657 0.80964 0.0
C2853 C 0.30264 0.21953 0.81976 0.0
C2854 C 0.30187 0.21116 0.83396 0.0
C2855 C 0.3157 0.23489 0.79397 0.0
C2856 C 0.31437 0.24646 0.79626 0.0
C2857 C 0.31935 0.23229 0.77717 0.0
C2858 C 0.31984 0.21965 0.77361 0.0
C2859 C 0.30824 0.20645 0.77749 0.0
C2860 C 0.3088 0.19458 0.77431 0.0
C2861 C 0.32087 0.19576 0.76714 0.0
C2862 C 0.3324 0.20882 0.76312 0.0
C2863 C 0.33191 0.22073 0.7663 0.0
H2864 H 0.32128 0.18656 0.76469 0.0
H2865 H 0.31551 0.30154 0.79567 0.0
H2866 H 0.70623 0.04409 0.75014 0.0
H2867 H 0.72507 0.0511 0.77189 0.0
H2868 H 0.75054 0.04733 0.73239 0.0
H2869 H 0.73125 0.03956 0.71069 0.0
H2870 H 0.75614 0.04091 0.76462 0.0
H2871 H 0.7539 0.0785 0.73998 0.0
H2872 H 0.7428 0.09155 0.73074 0.0
H2873 H 0.73229 0.09355 0.78469 0.0
H2874 H 0.74315 0.08033 0.79423 0.0
H2875 H 0.82045 0.09534 0.80811 0.0
H2876 H 0.80169 0.08064 0.78707 0.0
H2877 H 0.77064 0.07402 0.82571 0.0
H2878 H 0.78923 0.08819 0.84706 0.0
H2879 H 0.76935 0.08591 0.79219 0.0
H2880 H 0.77278 0.048 0.81598 0.0
H2881 H 0.78526 0.03598 0.82366 0.0
H2882 H 0.79582 0.03642 0.7691 0.0
H2883 H 0.78357 0.04864 0.76113 0.0
C2884 C 0.71572 0.04442 0.74622 0.0
C2885 C 0.71739 0.04144 0.72875 0.0
C2886 C 0.7265 0.04849 0.75862 0.0
C2887 C 0.73939 0.05016 0.75363 0.0
C2888 C 0.74073 0.04622 0.7365 0.0
C2889 C 0.72974 0.04179 0.72413 0.0
C2890 C 0.75169 0.05727 0.76583 0.0
C2891 C 0.75915 0.05082 0.77049 0.0
C2892 C 0.75568 0.07026 0.77345 0.0
C2893 C 0.74924 0.07833 0.7678 0.0
C2894 C 0.74914 0.08165 0.74986 0.0
C2895 C 0.7429 0.08908 0.74457 0.0
C2896 C 0.73682 0.09335 0.75711 0.0
C2897 C 0.737 0.09023 0.77499 0.0
C2898 C 0.7432 0.08277 0.78035 0.0
C2899 C 0.80964 0.09044 0.81234 0.0
C2900 C 0.80636 0.09312 0.82923 0.0
C2901 C 0.79894 0.08208 0.80026 0.0
C2902 C 0.78481 0.07632 0.80485 0.0
C2903 C 0.7815 0.07844 0.82192 0.0
C2904 C 0.79215 0.08664 0.83404 0.0
C2905 C 0.7735 0.06936 0.79139 0.0
C2906 C 0.76633 0.07598 0.78633 0.0
C2907 C 0.77005 0.05674 0.7832 0.0
C2908 C 0.7774 0.04938 0.78799 0.0
C2909 C 0.77788 0.04567 0.80565 0.0
C2910 C 0.78489 0.03879 0.81005 0.0
C2911 C 0.79137 0.03548 0.79689 0.0
C2912 C 0.79082 0.03901 0.77929 0.0
C2913 C 0.78384 0.0459 0.77482 0.0
H2914 H 0.79678 0.03015 0.80032 0.0
H2915 H 0.73199 0.09911 0.75299 0.0
H2916 H 0.03503 0.36801 0.03872 0.0
H2917 H 0.05273 0.36462 0.05348 0.0
H2918 H 0.03548 0.32503 0.02768 0.0
H2919 H 0.01802 0.32843 0.01258 0.0
H2920 H 0.03826 0.32592 0.06717 0.0
H2921 H 0.06414 0.34736 0.01348 0.0
H2922 H 0.07489 0.36599 0.99125 0.0
H2923 H 0.10087 0.39502 0.03155 0.0
H2924 H 0.09012 0.37659 0.05408 0.0
H2925 H 0.08437 0.30401 0.09098 0.0
H2926 H 0.06947 0.31031 0.07503 0.0
H2927 H 0.0977 0.35323 0.08886 0.0
H2928 H 0.11329 0.34715 0.10375 0.0
H2929 H 0.08961 0.35208 0.05655 0.0
H2930 H 0.06542 0.33217 0.11015 0.0
H2931 H 0.05476 0.31484 0.13396 0.0
H2932 H 0.02558 0.28478 0.0967 0.0
H2933 H 0.03619 0.30188 0.0726 0.0
C2934 C 0.03515 0.35868 0.03599 0.0
C2935 C 0.02513 0.34848 0.0245 0.0
C2936 C 0.04525 0.35678 0.04442 0.0
C2937 C 0.04534 0.34456 0.04167 0.0
C2938 C 0.03555 0.33451 0.02994 0.0
C2939 C 0.02563 0.33652 0.02127 0.0
C2940 C 0.05509 0.34185 0.05176 0.0
C2941 C 0.04948 0.33151 0.06475 0.0
C2942 C 0.06974 0.34956 0.04903 0.0
C2943 C 0.0762 0.36063 0.0355 0.0
C2944 C 0.07204 0.35775 0.01764 0.0
C2945 C 0.07816 0.36826 0.00497 0.0
C2946 C 0.08852 0.38169 0.00999 0.0
C2947 C 0.09282 0.38462 0.02769 0.0
C2948 C 0.08672 0.37414 0.04041 0.0
C2949 C 0.08758 0.31484 0.09044 0.0
C2950 C 0.10009 0.32505 0.09872 0.0
C2951 C 0.0789 0.3184 0.08151 0.0
C2952 C 0.08229 0.33222 0.08102 0.0
C2953 C 0.0948 0.34248 0.08914 0.0
C2954 C 0.10363 0.33895 0.09786 0.0
C2955 C 0.0728 0.33591 0.07188 0.0
C2956 C 0.07842 0.34648 0.0591 0.0
C2957 C 0.05815 0.3286 0.07508 0.0
C2958 C 0.05169 0.31828 0.08954 0.0
C2959 C 0.05679 0.32183 0.10701 0.0
C2960 C 0.05075 0.31205 0.12056 0.0
C2961 C 0.03952 0.29871 0.11684 0.0
C2962 C 0.03429 0.29512 0.09956 0.0
C2963 C 0.0403 0.30486 0.08595 0.0
H2964 H 0.03486 0.29115 0.12735 0.0
H2965 H 0.09325 0.38982 1.00017 0.0
H2966 H 0.6417 0.67676 0.04057 0.0
H2967 H 0.64445 0.69791 0.05323 0.0
H2968 H 0.68117 0.72258 0.02135 0.0
H2969 H 0.67852 0.7015 0.00862 0.0
H2970 H 0.68562 0.73053 0.05627 0.0
H2971 H 0.65117 0.72101 0.01101 0.0
H2972 H 0.62891 0.70675 0.99462 0.0
H2973 H 0.60565 0.70209 0.04172 0.0
H2974 H 0.62779 0.71617 0.05847 0.0
H2975 H 0.6947 0.79606 0.07438 0.0
H2976 H 0.69096 0.77522 0.05955 0.0
H2977 H 0.65226 0.75052 0.08795 0.0
H2978 H 0.65588 0.77138 0.1027 0.0
H2979 H 0.64876 0.74257 0.05444 0.0
H2980 H 0.68254 0.7513 0.10001 0.0
H2981 H 0.7045 0.7651 0.11716 0.0
H2982 H 0.72863 0.77056 0.07063 0.0
H2983 H 0.7068 0.75696 0.05314 0.0
C2984 C 0.6503 0.68668 0.03613 0.0
C2985 C 0.65989 0.68743 0.02358 0.0
C2986 C 0.65183 0.69876 0.04335 0.0
C2987 C 0.66298 0.71182 0.03818 0.0
C2988 C 0.67249 0.71261 0.02553 0.0
C2989 C 0.67092 0.70054 0.01821 0.0
C2990 C 0.66504 0.72463 0.04645 0.0
C2991 C 0.67765 0.73329 0.05565 0.0
C2992 C 0.65447 0.72799 0.04608 0.0
C2993 C 0.64114 0.71953 0.03603 0.0
C2994 C 0.64131 0.71685 0.01791 0.0
C2995 C 0.62871 0.70882 0.00855 0.0
C2996 C 0.61587 0.70349 0.01714 0.0
C2997 C 0.6156 0.70621 0.0351 0.0
C2998 C 0.62817 0.71422 0.04452 0.0
C2999 C 0.68543 0.78618 0.07754 0.0
C3000 C 0.67562 0.78536 0.08977 0.0
C3001 C 0.6833 0.77427 0.06905 0.0
C3002 C 0.67142 0.76126 0.07281 0.0
C3003 C 0.6615 0.76044 0.08483 0.0
C3004 C 0.66357 0.77237 0.09323 0.0
C3005 C 0.66936 0.74851 0.06425 0.0
C3006 C 0.65675 0.73985 0.05504 0.0
C3007 C 0.67989 0.74508 0.06473 0.0
C3008 C 0.69303 0.75323 0.07523 0.0
C3009 C 0.69253 0.75554 0.0934 0.0
C3010 C 0.70496 0.76331 0.10319 0.0
C3011 C 0.71795 0.76873 0.09498 0.0
C3012 C 0.71856 0.76637 0.07697 0.0
C3013 C 0.70616 0.75862 0.06711 0.0
H3014 H 0.72756 0.77475 0.10258 0.0
H3015 H 0.60613 0.69727 0.00986 0.0
H3016 H 0.31208 0.98952 0.03064 0.0
H3017 H 0.28812 0.97997 0.0416 0.0
H3018 H 0.28516 0.94105 0.05231 0.0
H3019 H 0.30873 0.95029 0.04113 0.0
H3020 H 0.26182 0.93654 0.03733 0.0
H3021 H 0.29261 0.96575 0.08502 0.0
H3022 H 0.31091 0.98792 0.09818 0.0
H3023 H 0.28596 0.00582 0.08656 0.0
H3024 H 0.26758 0.98378 0.07313 0.0
H3025 H 0.21787 0.90193 0.10756 0.0
H3026 H 0.2391 0.91784 0.09141 0.0
H3027 H 0.22124 0.94231 0.07659 0.0
H3028 H 0.19955 0.92606 0.09232 0.0
H3029 H 0.25252 0.95718 0.08929 0.0
H3030 H 0.21978 0.9254 0.04603 0.0
H3031 H 0.20173 0.90228 0.03501 0.0
H3032 H 0.23093 0.88852 0.03987 0.0
H3033 H 0.24909 0.9115 0.0512 0.0
C3034 C 0.30627 0.9789 0.03524 0.0
C3035 C 0.31234 0.97068 0.03502 0.0
C3036 C 0.2926 0.97349 0.04156 0.0
C3037 C 0.28487 0.95982 0.04789 0.0
C3038 C 0.29088 0.95159 0.04743 0.0
C3039 C 0.30442 0.95693 0.04107 0.0
C3040 C 0.27059 0.95387 0.05533 0.0
C3041 C 0.2598 0.94112 0.04864 0.0
C3042 C 0.2678 0.95999 0.06979 0.0
C3043 C 0.27882 0.9732 0.07787 0.0
C3044 C 0.29109 0.97445 0.08515 0.0
C3045 C 0.30146 0.98698 0.09268 0.0
C3046 C 0.29962 0.99829 0.09315 0.0
C3047 C 0.28738 0.99707 0.08614 0.0
C3048 C 0.27698 0.98456 0.07857 0.0
C3049 C 0.21837 0.91065 0.10083 0.0
C3050 C 0.20689 0.91256 0.10093 0.0
C3051 C 0.23057 0.91979 0.09174 0.0
C3052 C 0.23163 0.93113 0.08271 0.0
C3053 C 0.22055 0.93358 0.08351 0.0
C3054 C 0.20821 0.92431 0.09252 0.0
C3055 C 0.24407 0.93971 0.07162 0.0
C3056 C 0.25447 0.95288 0.07763 0.0
C3057 C 0.2466 0.93394 0.05663 0.0
C3058 C 0.23577 0.92016 0.04956 0.0
C3059 C 0.22232 0.91742 0.04487 0.0
C3060 C 0.21208 0.90434 0.03855 0.0
C3061 C 0.21518 0.89393 0.03676 0.0
C3062 C 0.22855 0.89659 0.04125 0.0
C3063 C 0.23883 0.90965 0.0476 0.0
H3064 H 0.20723 0.88381 0.03188 0.0
H3065 H 0.30766 0.00798 0.09899 0.0
H3066 H 0.35233 0.03173 0.98472 0.0
H3067 H 0.34852 0.04932 0.97203 0.0
H3068 H 0.34887 0.06465 0.02434 0.0
H3069 H 0.35217 0.04662 0.03723 0.0
H3070 H 0.32832 0.06322 0.00622 0.0
H3071 H 0.37695 0.08261 0.99466 0.0
H3072 H 0.3981 0.08319 0.9842 0.0
H3073 H 0.38149 0.07473 0.93118 0.0
H3074 H 0.36014 0.07392 0.94136 0.0
H3075 H 0.33341 0.12497 0.97113 0.0
H3076 H 0.33912 0.10929 0.98637 0.0
H3077 H 0.33001 0.08532 0.93853 0.0
H3078 H 0.32416 0.10087 0.92328 0.0
H3079 H 0.35618 0.09271 0.95583 0.0
H3080 H 0.30693 0.07241 0.96881 0.0
H3081 H 0.28638 0.07267 0.97997 0.0
H3082 H 0.30551 0.08429 0.03157 0.0
H3083 H 0.32628 0.0843 0.02064 0.0
C3084 C 0.35173 0.03891 0.99356 0.0
C3085 C 0.35261 0.03779 0.01201 0.0
C3086 C 0.34961 0.04903 0.98626 0.0
C3087 C 0.34863 0.0585 0.99718 0.0
C3088 C 0.34962 0.0575 0.01562 0.0
C3089 C 0.35156 0.04722 0.02297 0.0
C3090 C 0.34601 0.06904 0.9893 0.0
C3091 C 0.3346 0.06984 0.99543 0.0
C3092 C 0.35404 0.07758 0.97501 0.0
C3093 C 0.36688 0.0781 0.96881 0.0
C3094 C 0.37776 0.08078 0.98079 0.0
C3095 C 0.38979 0.08116 0.97491 0.0
C3096 C 0.39113 0.07897 0.95704 0.0
C3097 C 0.38044 0.07642 0.94502 0.0
C3098 C 0.36837 0.07601 0.95083 0.0
C3099 C 0.33263 0.11635 0.96389 0.0
C3100 C 0.32831 0.11409 0.94606 0.0
C3101 C 0.33584 0.10739 0.97261 0.0
C3102 C 0.33495 0.09615 0.96356 0.0
C3103 C 0.33075 0.09394 0.94572 0.0
C3104 C 0.32734 0.10276 0.93708 0.0
C3105 C 0.33847 0.0867 0.97266 0.0
C3106 C 0.35003 0.08614 0.96674 0.0
C3107 C 0.33072 0.07854 0.98726 0.0
C3108 C 0.31823 0.07851 0.99385 0.0
C3109 C 0.30681 0.07515 0.98249 0.0
C3110 C 0.29511 0.07522 0.98878 0.0
C3111 C 0.29466 0.07853 0.00645 0.0
C3112 C 0.30589 0.08175 0.01788 0.0
C3113 C 0.31762 0.08171 0.01164 0.0
H3114 H 0.28559 0.07858 0.0113 0.0
H3115 H 0.40045 0.07927 0.95251 0.0
H3116 H 0.93876 0.30354 0.01379 0.0
H3117 H 0.92996 0.28039 0.00161 0.0
H3118 H 0.97181 0.29273 0.98524 0.0
H3119 H 0.98077 0.31583 0.99769 0.0
H3120 H 0.95048 0.28163 0.95779 0.0
H3121 H 0.95917 0.27028 0.01571 0.0
H3122 H 0.95789 0.26909 0.04826 0.0
H3123 H 0.91288 0.24398 0.04514 0.0
H3124 H 0.91388 0.24519 0.01255 0.0
H3125 H 0.92529 0.21594 0.91891 0.0
H3126 H 0.93955 0.23666 0.93685 0.0
H3127 H 0.90338 0.22627 0.96851 0.0
H3128 H 0.88938 0.20504 0.95162 0.0
H3129 H 0.92491 0.23653 0.98904 0.0
H3130 H 0.91519 0.25035 0.93289 0.0
H3131 H 0.91506 0.25208 0.90036 0.0
H3132 H 0.9601 0.27313 0.90007 0.0
H3133 H 0.96048 0.27137 0.93262 0.0
C3134 C 0.94614 0.30125 0.00791 0.0
C3135 C 0.96045 0.31153 0.00664 0.0
C3136 C 0.9411 0.28802 0.001 0.0
C3137 C 0.95025 0.28489 0.99254 0.0
C3138 C 0.96461 0.29496 0.99177 0.0
C3139 C 0.9697 0.30813 0.99895 0.0
C3140 C 0.94454 0.27153 0.98313 0.0
C3141 C 0.94514 0.27174 0.96461 0.0
C3142 C 0.93725 0.25871 0.99207 0.0
C3143 C 0.9366 0.25792 0.01167 0.0
C3144 C 0.94899 0.26461 0.02196 0.0
C3145 C 0.94832 0.2639 0.04042 0.0
C3146 C 0.93531 0.25649 0.04876 0.0
C3147 C 0.92295 0.24973 0.03866 0.0
C3148 C 0.92357 0.25041 0.02019 0.0
C3149 C 0.92042 0.21789 0.92991 0.0
C3150 C 0.90608 0.20886 0.9336 0.0
C3151 C 0.92856 0.22987 0.94004 0.0
C3152 C 0.92248 0.23323 0.95381 0.0
C3153 C 0.90832 0.22399 0.9579 0.0
C3154 C 0.90025 0.21192 0.94801 0.0
C3155 C 0.9306 0.24657 0.96358 0.0
C3156 C 0.93043 0.24638 0.98218 0.0
C3157 C 0.93806 0.25947 0.9547 0.0
C3158 C 0.93785 0.26058 0.93515 0.0
C3159 C 0.92506 0.25526 0.92588 0.0
C3160 C 0.92494 0.25626 0.90744 0.0
C3161 C 0.93756 0.26267 0.89815 0.0
C3162 C 0.95033 0.26814 0.90729 0.0
C3163 C 0.95051 0.26715 0.92572 0.0
H3164 H 0.93744 0.26343 0.88388 0.0
H3165 H 0.93481 0.25595 0.06306 0.0
H3166 H 0.69406 0.6749 0.00189 0.0
H3167 H 0.71858 0.68796 0.99207 0.0
H3168 H 0.71934 0.65023 0.99153 0.0
H3169 H 0.69514 0.63724 0.00142 0.0
H3170 H 0.74326 0.67123 0.00541 0.0
H3171 H 0.71333 0.66337 0.95379 0.0
H3172 H 0.69566 0.66561 0.93669 0.0
H3173 H 0.72179 0.70994 0.93936 0.0
H3174 H 0.73955 0.70794 0.95667 0.0
H3175 H 0.78825 0.67187 0.94184 0.0
H3176 H 0.76816 0.66834 0.95885 0.0
H3177 H 0.78272 0.71181 0.95435 0.0
H3178 H 0.80296 0.71542 0.93714 0.0
H3179 H 0.75377 0.69405 0.94664 0.0
H3180 H 0.78596 0.70119 0.99292 0.0
H3181 H 0.80359 0.6983 0.00906 0.0
H3182 H 0.77329 0.65503 0.01616 0.0
H3183 H 0.75553 0.6576 0.99982 0.0
C3184 C 0.69952 0.66944 0.99984 0.0
C3185 C 0.6926 0.65501 0.00231 0.0
C3186 C 0.7135 0.6769 0.99419 0.0
C3187 C 0.72075 0.67004 0.99095 0.0
C3188 C 0.71398 0.65575 0.99399 0.0
C3189 C 0.70008 0.64832 0.99956 0.0
C3190 C 0.73514 0.67737 0.9836 0.0
C3191 C 0.74558 0.67626 0.99259 0.0
C3192 C 0.73831 0.68432 0.96712 0.0
C3193 C 0.72766 0.68551 0.95671 0.0
C3194 C 0.71525 0.67359 0.95085 0.0
C3195 C 0.70523 0.67481 0.9411 0.0
C3196 C 0.70758 0.68791 0.937 0.0
C3197 C 0.71997 0.69981 0.94259 0.0
C3198 C 0.73001 0.69863 0.95236 0.0
C3199 C 0.78716 0.68068 0.94441 0.0
C3200 C 0.79713 0.69391 0.93813 0.0
C3201 C 0.77575 0.67867 0.95425 0.0
C3202 C 0.77404 0.68984 0.958 0.0
C3203 C 0.78391 0.70308 0.95166 0.0
C3204 C 0.79546 0.70513 0.94193 0.0
C3205 C 0.76165 0.68737 0.96814 0.0
C3206 C 0.75161 0.68939 0.9597 0.0
C3207 C 0.75881 0.6812 0.9851 0.0
C3208 C 0.76943 0.67959 0.99506 0.0
C3209 C 0.78308 0.69104 0.99781 0.0
C3210 C 0.79309 0.68946 0.00702 0.0
C3211 C 0.78956 0.67649 0.01362 0.0
C3212 C 0.77601 0.66507 0.01105 0.0
C3213 C 0.76595 0.66659 0.00184 0.0
H3214 H 0.79733 0.67529 0.02074 0.0
H3215 H 0.69981 0.68884 0.92945 0.0
H3216 H 0.9516 0.62183 0.99509 0.0
H3217 H 0.93406 0.62741 0.98565 0.0
H3218 H 0.96463 0.67097 0.99223 0.0
H3219 H 0.98202 0.66547 0.00214 0.0
H3220 H 0.94019 0.66575 0.00332 0.0
H3221 H 0.95675 0.65453 0.9511 0.0
H3222 H 0.96163 0.63986 0.93214 0.0
H3223 H 0.91779 0.60837 0.93141 0.0
H3224 H 0.91267 0.62279 0.95056 0.0
H3225 H 0.9131 0.69612 0.94537 0.0
H3226 H 0.92703 0.68804 0.96036 0.0
H3227 H 0.89264 0.64577 0.95501 0.0
H3228 H 0.87856 0.65377 0.94019 0.0
H3229 H 0.91722 0.64877 0.94466 0.0
H3230 H 0.90076 0.66166 0.995 0.0
H3231 H 0.8965 0.67716 0.01314 0.0
H3232 H 0.94089 0.70646 0.01654 0.0
H3233 H 0.94541 0.69123 0.99822 0.0
C3234 C 0.95454 0.63258 0.99468 0.0
C3235 C 0.96825 0.6432 0.99924 0.0
C3236 C 0.94452 0.63577 0.98921 0.0
C3237 C 0.94809 0.64963 0.98793 0.0
C3238 C 0.96162 0.6602 0.99307 0.0
C3239 C 0.97158 0.65703 0.99869 0.0
C3240 C 0.93798 0.65326 0.98064 0.0
C3241 C 0.93525 0.66212 0.99043 0.0
C3242 C 0.9313 0.64832 0.96397 0.0
C3243 C 0.93435 0.63966 0.95242 0.0
C3244 C 0.94817 0.64443 0.947 0.0
C3245 C 0.95098 0.63617 0.93621 0.0
C3246 C 0.94004 0.62317 0.93062 0.0
C3247 C 0.92626 0.61843 0.93578 0.0
C3248 C 0.92339 0.62664 0.94659 0.0
C3249 C 0.9084 0.68512 0.94765 0.0
C3250 C 0.89471 0.67559 0.94156 0.0
C3251 C 0.91639 0.68051 0.9562 0.0
C3252 C 0.91084 0.6663 0.95892 0.0
C3253 C 0.89714 0.65678 0.95302 0.0
C3254 C 0.88913 0.66137 0.94448 0.0
C3255 C 0.91955 0.66136 0.96725 0.0
C3256 C 0.92204 0.65228 0.95763 0.0
C3257 C 0.9261 0.6662 0.98399 0.0
C3258 C 0.92341 0.67535 0.99511 0.0
C3259 C 0.90961 0.67146 0.99951 0.0
C3260 C 0.90715 0.68019 0.00984 0.0
C3261 C 0.91841 0.6928 0.01596 0.0
C3262 C 0.93217 0.69669 0.01179 0.0
C3263 C 0.93469 0.68801 0.00145 0.0
H3264 H 0.91649 0.69954 0.02395 0.0
H3265 H 0.94223 0.61679 0.92227 0.0
H3266 H 0.3514 0.31349 0.03497 0.0
H3267 H 0.34652 0.29181 0.02129 0.0
H3268 H 0.33871 0.30507 0.97119 0.0
H3269 H 0.34355 0.32672 0.98468 0.0
H3270 H 0.31829 0.27824 0.97939 0.0
H3271 H 0.36887 0.30621 0.97796 0.0
H3272 H 0.39259 0.32077 0.99085 0.0
H3273 H 0.38572 0.2873 0.02478 0.0
H3274 H 0.36186 0.27259 0.01225 0.0
H3275 H 0.31884 0.22945 0.92159 0.0
H3276 H 0.32334 0.25045 0.93674 0.0
H3277 H 0.33554 0.23763 0.984 0.0
H3278 H 0.33133 0.21674 0.96874 0.0
H3279 H 0.35337 0.26386 0.97844 0.0
H3280 H 0.30325 0.23557 0.97991 0.0
H3281 H 0.27932 0.22075 0.96772 0.0
H3282 H 0.28477 0.25427 0.93493 0.0
H3283 H 0.30881 0.26924 0.94675 0.0
C3284 C 0.34869 0.31182 0.02103 0.0
C3285 C 0.34789 0.32186 0.01092 0.0
C3286 C 0.34594 0.29943 0.01323 0.0
C3287 C 0.34231 0.29686 0.99521 0.0
C3288 C 0.34147 0.30684 0.98512 0.0
C3289 C 0.3443 0.31924 0.99286 0.0
C3290 C 0.33926 0.28372 0.98683 0.0
C3291 C 0.326 0.27515 0.97899 0.0
C3292 C 0.34919 0.27953 0.98678 0.0
C3293 C 0.36353 0.28835 0.9943 0.0
C3294 C 0.37237 0.30199 0.98828 0.0
C3295 C 0.38585 0.31027 0.9955 0.0
C3296 C 0.39064 0.30498 0.00866 0.0
C3297 C 0.38198 0.29139 0.0146 0.0
C3298 C 0.36849 0.28307 0.00744 0.0
C3299 C 0.32236 0.23106 0.93526 0.0
C3300 C 0.3247 0.22144 0.944 0.0
C3301 C 0.32491 0.24306 0.94393 0.0
C3302 C 0.3296 0.24556 0.96162 0.0
C3303 C 0.33193 0.23595 0.97036 0.0
C3304 C 0.32953 0.22402 0.96163 0.0
C3305 C 0.33238 0.25835 0.97086 0.0
C3306 C 0.3456 0.26688 0.97888 0.0
C3307 C 0.32236 0.26244 0.9712 0.0
C3308 C 0.30788 0.25349 0.96411 0.0
C3309 C 0.29939 0.23975 0.97001 0.0
C3310 C 0.28579 0.23133 0.96318 0.0
C3311 C 0.28054 0.23656 0.95053 0.0
C3312 C 0.28886 0.25023 0.94472 0.0
C3313 C 0.30246 0.25869 0.95149 0.0
H3314 H 0.27001 0.23002 0.94526 0.0
H3315 H 0.40108 0.3114 0.01424 0.0
H3316 H 0.68906 0.01826 0.9835 0.0
H3317 H 0.71299 0.02926 0.97204 0.0
H3318 H 0.72239 0.06844 0.99383 0.0
H3319 H 0.69838 0.05764 0.00452 0.0
H3320 H 0.72981 0.07208 0.96165 0.0
H3321 H 0.73679 0.04878 0.01025 0.0
H3322 H 0.73192 0.02888 0.02896 0.0
H3323 H 0.73861 0.00943 0.98466 0.0
H3324 H 0.74335 0.02915 0.96561 0.0
H3325 H 0.80285 0.11184 0.9522 0.0
H3326 H 0.78064 0.09657 0.967 0.0
H3327 H 0.77035 0.06472 0.92827 0.0
H3328 H 0.79238 0.08016 0.91286 0.0
H3329 H 0.76354 0.05617 0.96758 0.0
H3330 H 0.7563 0.08034 0.91937 0.0
H3331 H 0.76226 0.10122 0.90211 0.0
H3332 H 0.75677 0.1199 0.94821 0.0
H3333 H 0.75101 0.0992 0.96582 0.0
C3334 C 0.69634 0.02917 0.98609 0.0
C3335 C 0.69186 0.03714 0.99476 0.0
C3336 C 0.71003 0.03544 0.97959 0.0
C3337 C 0.71955 0.0497 0.98207 0.0
C3338 C 0.71524 0.05746 0.9916 0.0
C3339 C 0.70152 0.05128 0.99775 0.0
C3340 C 0.73355 0.05689 0.97352 0.0
C3341 C 0.73719 0.06864 0.9632 0.0
C3342 C 0.74312 0.05225 0.97504 0.0
C3343 C 0.74027 0.04038 0.98646 0.0
C3344 C 0.73711 0.04021 0.00446 0.0
C3345 C 0.73439 0.02897 0.01513 0.0
C3346 C 0.73491 0.01788 0.00799 0.0
C3347 C 0.73819 0.01802 0.99017 0.0
C3348 C 0.7409 0.02923 0.97943 0.0
C3349 C 0.7959 0.1016 0.94678 0.0
C3350 C 0.79929 0.09733 0.93113 0.0
C3351 C 0.78329 0.09284 0.95539 0.0
C3352 C 0.77389 0.07959 0.94865 0.0
C3353 C 0.77755 0.07491 0.93368 0.0
C3354 C 0.79014 0.08375 0.92492 0.0
C3355 C 0.75967 0.07135 0.9562 0.0
C3356 C 0.75602 0.05947 0.96614 0.0
C3357 C 0.7501 0.07591 0.95457 0.0
C3358 C 0.75336 0.08828 0.94394 0.0
C3359 C 0.75648 0.08895 0.92586 0.0
C3360 C 0.75981 0.10074 0.91601 0.0
C3361 C 0.75993 0.1119 0.92407 0.0
C3362 C 0.75669 0.11126 0.94199 0.0
C3363 C 0.75338 0.0995 0.95191 0.0
H3364 H 0.76251 0.12102 0.91642 0.0
H3365 H 0.73281 0.00918 0.01627 0.0
H3366 H 0.64014 0.95327 0.99435 0.0
H3367 H 0.6443 0.93615 0.00847 0.0
H3368 H 0.65934 0.96134 0.05559 0.0
H3369 H 0.65522 0.97841 0.0417 0.0
H3370 H 0.67707 0.95276 0.0446 0.0
H3371 H 0.62756 0.93279 0.05514 0.0
H3372 H 0.60288 0.92369 0.04648 0.0
H3373 H 0.60309 0.89255 0.01443 0.0
H3374 H 0.62785 0.9016 0.02272 0.0
H3375 H 0.67917 0.90784 0.10762 0.0
H3376 H 0.67388 0.92328 0.09125 0.0
H3377 H 0.65573 0.89344 0.0488 0.0
H3378 H 0.66087 0.87787 0.06524 0.0
H3379 H 0.63976 0.90383 0.05528 0.0
H3380 H 0.68862 0.92276 0.04525 0.0
H3381 H 0.71338 0.93168 0.05328 0.0
H3382 H 0.71477 0.96462 0.08303 0.0
H3383 H 0.68995 0.95578 0.0754 0.0
C3384 C 0.64426 0.95512 0.00775 0.0
C3385 C 0.64735 0.96722 0.01688 0.0
C3386 C 0.6466 0.94532 0.01581 0.0
C3387 C 0.6521 0.94748 0.03309 0.0
C3388 C 0.65512 0.95949 0.04223 0.0
C3389 C 0.65269 0.96922 0.03427 0.0
C3390 C 0.65507 0.93743 0.04164 0.0
C3391 C 0.6689 0.94209 0.0471 0.0
C3392 C 0.64448 0.92341 0.04438 0.0
C3393 C 0.6296 0.91798 0.03939 0.0
C3394 C 0.62238 0.92409 0.04612 0.0
C3395 C 0.60837 0.91892 0.0413 0.0
C3396 C 0.60144 0.90758 0.02987 0.0
C3397 C 0.60849 0.90135 0.02326 0.0
C3398 C 0.6225 0.90649 0.02802 0.0
C3399 C 0.67414 0.90461 0.09474 0.0
C3400 C 0.67051 0.89168 0.08767 0.0
C3401 C 0.67112 0.91344 0.08539 0.0
C3402 C 0.6646 0.90962 0.06865 0.0
C3403 C 0.66077 0.89662 0.06167 0.0
C3404 C 0.6637 0.88773 0.07109 0.0
C3405 C 0.66176 0.91921 0.05851 0.0
C3406 C 0.64798 0.91447 0.0527 0.0
C3407 C 0.67242 0.93314 0.0553 0.0
C3408 C 0.68738 0.93853 0.05987 0.0
C3409 C 0.69417 0.93184 0.05361 0.0
C3410 C 0.70823 0.9369 0.05808 0.0
C3411 C 0.71564 0.94869 0.06869 0.0
C3412 C 0.70901 0.95548 0.07483 0.0
C3413 C 0.69496 0.95046 0.07042 0.0
H3414 H 0.72651 0.95259 0.07213 0.0
H3415 H 0.59059 0.90359 0.02616 0.0
H3416 H 0.06372 0.69265 0.03146 0.0
H3417 H 0.07427 0.71566 0.04461 0.0
H3418 H 0.03578 0.71517 0.03582 0.0
H3419 H 0.02501 0.692 0.02266 0.0
H3420 H 0.06123 0.74128 0.02792 0.0
H3421 H 0.0406 0.70808 0.07483 0.0
H3422 H 0.03586 0.68758 0.09213 0.0
H3423 H 0.07981 0.70681 0.10447 0.0
H3424 H 0.08484 0.72735 0.08701 0.0
H3425 H 0.0837 0.79909 0.08636 0.0
H3426 H 0.06963 0.77659 0.07164 0.0
H3427 H 0.10137 0.76695 0.08442 0.0
H3428 H 0.11508 0.78899 0.09983 0.0
H3429 H 0.07653 0.74546 0.09066 0.0
H3430 H 0.0977 0.77768 0.04233 0.0
H3431 H 0.10311 0.79811 0.02438 0.0
H3432 H 0.05912 0.78093 0.01421 0.0
H3433 H 0.05343 0.76047 0.0323 0.0
C3434 C 0.05751 0.69746 0.0321 0.0
C3435 C 0.04347 0.69042 0.02612 0.0
C3436 C 0.06356 0.7106 0.03967 0.0
C3437 C 0.05574 0.71701 0.04135 0.0
C3438 C 0.04195 0.71035 0.03466 0.0
C3439 C 0.03583 0.69711 0.0272 0.0
C3440 C 0.06184 0.73034 0.05095 0.0
C3441 C 0.06438 0.7422 0.04172 0.0
C3442 C 0.0661 0.73151 0.06886 0.0
C3443 C 0.0631 0.71921 0.07949 0.0
C3444 C 0.04927 0.7079 0.08112 0.0
C3445 C 0.04653 0.69627 0.09097 0.0
C3446 C 0.05753 0.69588 0.09936 0.0
C3447 C 0.0713 0.70713 0.09795 0.0
C3448 C 0.07409 0.71877 0.08809 0.0
C3449 C 0.08761 0.79212 0.08617 0.0
C3450 C 0.10059 0.79591 0.09416 0.0
C3451 C 0.07962 0.77932 0.07759 0.0
C3452 C 0.08453 0.77015 0.07671 0.0
C3453 C 0.09739 0.77387 0.08485 0.0
C3454 C 0.1053 0.78657 0.0935 0.0
C3455 C 0.07632 0.75657 0.06755 0.0
C3456 C 0.0733 0.74459 0.0769 0.0
C3457 C 0.07173 0.75535 0.04972 0.0
C3458 C 0.07513 0.76763 0.03883 0.0
C3459 C 0.08917 0.77831 0.03638 0.0
C3460 C 0.09229 0.78989 0.02616 0.0
C3461 C 0.08146 0.79084 0.01821 0.0
C3462 C 0.06749 0.78019 0.02041 0.0
C3463 C 0.06432 0.7686 0.03064 0.0
H3464 H 0.0839 0.79981 0.01029 0.0
H3465 H 0.05539 0.68687 0.10699 0.0
H3466 H 0.31343 0.36953 0.05635 0.0
H3467 H 0.28969 0.35626 0.06793 0.0
H3468 H 0.28231 0.32023 0.03907 0.0
H3469 H 0.30635 0.33348 0.02746 0.0
H3470 H 0.26025 0.32691 0.03621 0.0
H3471 H 0.28569 0.31829 0.07983 0.0
H3472 H 0.30516 0.32401 0.1006 0.0
H3473 H 0.29556 0.35041 0.12995 0.0
H3474 H 0.27617 0.34504 0.10919 0.0
H3475 H 0.19481 0.29321 0.08398 0.0
H3476 H 0.21689 0.29734 0.07137 0.0
H3477 H 0.23947 0.33701 0.09766 0.0
H3478 H 0.21762 0.33287 0.11044 0.0
H3479 H 0.25284 0.32266 0.10112 0.0
H3480 H 0.23082 0.33476 0.05448 0.0
H3481 H 0.21176 0.32997 0.03341 0.0
H3482 H 0.2152 0.29743 0.00974 0.0
H3483 H 0.23417 0.30193 0.03084 0.0
C3484 C 0.3068 0.35879 0.05239 0.0
C3485 C 0.31178 0.35256 0.04097 0.0
C3486 C 0.29325 0.35121 0.05911 0.0
C3487 C 0.28433 0.33726 0.05447 0.0
C3488 C 0.28911 0.33099 0.04284 0.0
C3489 C 0.30281 0.33855 0.03626 0.0
C3490 C 0.26999 0.32953 0.0618 0.0
C3491 C 0.25853 0.3256 0.05037 0.0
C3492 C 0.26785 0.32804 0.08028 0.0
C3493 C 0.27951 0.33131 0.09286 0.0
C3494 C 0.2878 0.32541 0.09062 0.0
C3495 C 0.29881 0.32857 0.10242 0.0
C3496 C 0.30161 0.33758 0.11658 0.0
C3497 C 0.29338 0.34343 0.11898 0.0
C3498 C 0.28236 0.34031 0.10721 0.0
C3499 C 0.20452 0.30276 0.08712 0.0
C3500 C 0.20449 0.31278 0.09805 0.0
C3501 C 0.21709 0.30512 0.07987 0.0
C3502 C 0.22979 0.31751 0.08353 0.0
C3503 C 0.22978 0.32738 0.09468 0.0
C3504 C 0.21727 0.32506 0.10183 0.0
C3505 C 0.24318 0.32051 0.07557 0.0
C3506 C 0.25447 0.32358 0.08693 0.0
C3507 C 0.24515 0.32125 0.05704 0.0
C3508 C 0.23376 0.31855 0.04438 0.0
C3509 C 0.22742 0.3265 0.04488 0.0
C3510 C 0.21665 0.32386 0.03291 0.0
C3511 C 0.21224 0.31337 0.02028 0.0
C3512 C 0.21861 0.30553 0.01956 0.0
C3513 C 0.22937 0.30812 0.03152 0.0
H3514 H 0.20391 0.31134 0.01102 0.0
H3515 H 0.31014 0.34001 0.1257 0.0
H3516 H 0.70113 0.67972 0.3279 0.0
H3517 H 0.71791 0.67472 0.34171 0.0
H3518 H 0.71354 0.69062 0.39143 0.0
H3519 H 0.69695 0.69589 0.37767 0.0
H3520 H 0.74041 0.6989 0.38578 0.0
H3521 H 0.6961 0.65579 0.38319 0.0
H3522 H 0.6748 0.63693 0.36866 0.0
H3523 H 0.70024 0.62816 0.33547 0.0
H3524 H 0.72171 0.6471 0.34965 0.0
H3525 H 0.76544 0.66795 0.445 0.0
H3526 H 0.75058 0.67425 0.4287 0.0
H3527 H 0.75817 0.65915 0.38038 0.0
H3528 H 0.77322 0.65291 0.39661 0.0
H3529 H 0.73048 0.65075 0.38398 0.0
H3530 H 0.77489 0.69345 0.38804 0.0
H3531 H 0.79589 0.7121 0.40329 0.0
H3532 H 0.76991 0.72142 0.43451 0.0
H3533 H 0.74872 0.70269 0.41961 0.0
C3534 C 0.70382 0.68226 0.34174 0.0
C3535 C 0.69762 0.68813 0.35171 0.0
C3536 C 0.71337 0.67933 0.34964 0.0
C3537 C 0.71681 0.68208 0.36768 0.0
C3538 C 0.71101 0.68837 0.37751 0.0
C3539 C 0.7015 0.69135 0.36961 0.0
C3540 C 0.72618 0.67813 0.37645 0.0
C3541 C 0.73816 0.68834 0.38553 0.0
C3542 C 0.72341 0.66441 0.37582 0.0
C3543 C 0.71052 0.65296 0.36735 0.0
C3544 C 0.69716 0.64991 0.3727 0.0
C3545 C 0.68505 0.63919 0.36454 0.0
C3546 C 0.68617 0.63138 0.35111 0.0
C3547 C 0.69939 0.63424 0.34585 0.0
C3548 C 0.71153 0.64495 0.35395 0.0
C3549 C 0.76407 0.66608 0.43088 0.0
C3550 C 0.77063 0.66004 0.42208 0.0
C3551 C 0.75554 0.66966 0.42158 0.0
C3552 C 0.75343 0.66735 0.40328 0.0
C3553 C 0.75969 0.66105 0.3945 0.0
C3554 C 0.76825 0.65745 0.4038 0.0
C3555 C 0.74464 0.6715 0.39339 0.0
C3556 C 0.73278 0.66132 0.38412 0.0
C3557 C 0.74747 0.68524 0.39392 0.0
C3558 C 0.76021 0.69659 0.4028 0.0
C3559 C 0.77364 0.69941 0.39824 0.0
C3560 C 0.78559 0.71001 0.40681 0.0
C3561 C 0.78423 0.71792 0.41988 0.0
C3562 C 0.77094 0.71528 0.42439 0.0
C3563 C 0.75896 0.70468 0.41587 0.0
H3564 H 0.79349 0.72612 0.4265 0.0
H3565 H 0.67678 0.62309 0.34481 0.0
H3566 H 0.30848 0.00779 0.37837 0.0
H3567 H 0.31272 0.02938 0.39145 0.0
H3568 H 0.35029 0.0525 0.36051 0.0
H3569 H 0.34618 0.03093 0.3474 0.0
H3570 H 0.3546 0.06079 0.39517 0.0
H3571 H 0.32125 0.05263 0.34904 0.0
H3572 H 0.29913 0.03906 0.33213 0.0
H3573 H 0.2755 0.03541 0.37848 0.0
H3574 H 0.29749 0.04879 0.39574 0.0
H3575 H 0.36558 0.12752 0.41254 0.0
H3576 H 0.36173 0.10644 0.3982 0.0
H3577 H 0.32242 0.08241 0.42561 0.0
H3578 H 0.32617 0.10345 0.43987 0.0
H3579 H 0.31925 0.0748 0.39203 0.0
H3580 H 0.35216 0.0823 0.43844 0.0
H3581 H 0.37407 0.09554 0.45585 0.0
H3582 H 0.39828 0.10003 0.40977 0.0
H3583 H 0.37651 0.08698 0.39201 0.0
C3584 C 0.31762 0.01746 0.37428 0.0
C3585 C 0.32697 0.01763 0.3618 0.0
C3586 C 0.32 0.0298 0.38174 0.0
C3587 C 0.33176 0.04256 0.37685 0.0
C3588 C 0.34114 0.04277 0.36445 0.0
C3589 C 0.33874 0.03043 0.35692 0.0
C3590 C 0.33437 0.05566 0.38489 0.0
C3591 C 0.34697 0.06397 0.39427 0.0
C3592 C 0.32425 0.05961 0.38408 0.0
C3593 C 0.31101 0.0516 0.37372 0.0
C3594 C 0.31133 0.04884 0.35566 0.0
C3595 C 0.29882 0.0412 0.34601 0.0
C3596 C 0.28591 0.03635 0.35424 0.0
C3597 C 0.2855 0.03916 0.37213 0.0
C3598 C 0.29799 0.04678 0.38185 0.0
C3599 C 0.35617 0.11772 0.41562 0.0
C3600 C 0.34619 0.11715 0.42735 0.0
C3601 C 0.35398 0.10568 0.40741 0.0
C3602 C 0.34184 0.0928 0.41096 0.0
C3603 C 0.33184 0.09222 0.42262 0.0
C3604 C 0.33399 0.10426 0.43074 0.0
C3605 C 0.33948 0.07994 0.4024 0.0
C3606 C 0.32691 0.07165 0.39292 0.0
C3607 C 0.3496 0.07597 0.4032 0.0
C3608 C 0.36271 0.08379 0.41386 0.0
C3609 C 0.36216 0.08621 0.43198 0.0
C3610 C 0.37455 0.09366 0.44192 0.0
C3611 C 0.38756 0.09866 0.43391 0.0
C3612 C 0.3882 0.09617 0.41595 0.0
C3613 C 0.37584 0.08874 0.40595 0.0
H3614 H 0.39714 0.10442 0.44163 0.0
H3615 H 0.27624 0.03043 0.34674 0.0
H3616 H 0.98131 0.28615 0.38588 0.0
H3617 H 0.95671 0.27485 0.39375 0.0
H3618 H 0.95651 0.31181 0.38012 0.0
H3619 H 0.98148 0.32342 0.37235 0.0
H3620 H 0.94329 0.3008 0.41148 0.0
H3621 H 0.93996 0.2842 0.35315 0.0
H3622 H 0.94568 0.27448 0.32776 0.0
H3623 H 0.93253 0.23703 0.35681 0.0
H3624 H 0.92692 0.24659 0.38249 0.0
H3625 H 0.86779 0.25631 0.42532 0.0
H3626 H 0.89025 0.27247 0.41123 0.0
H3627 H 0.90532 0.24522 0.42382 0.0
H3628 H 0.88329 0.22935 0.43844 0.0
H3629 H 0.90906 0.25399 0.388 0.0
H3630 H 0.91635 0.27286 0.44765 0.0
H3631 H 0.91068 0.28278 0.47289 0.0
H3632 H 0.91596 0.31626 0.44016 0.0
H3633 H 0.92148 0.30642 0.41464 0.0
C3634 C 0.9761 0.29193 0.38444 0.0
C3635 C 0.98339 0.3057 0.37841 0.0
C3636 C 0.96197 0.2854 0.38888 0.0
C3637 C 0.9547 0.2924 0.38726 0.0
C3638 C 0.96191 0.3062 0.38136 0.0
C3639 C 0.97615 0.31279 0.37689 0.0
C3640 C 0.93969 0.28521 0.39229 0.0
C3641 C 0.93569 0.29072 0.40603 0.0
C3642 C 0.92979 0.27202 0.38525 0.0
C3643 C 0.93307 0.26615 0.36979 0.0
C3644 C 0.93836 0.27392 0.35417 0.0
C3645 C 0.94158 0.26844 0.33972 0.0
C3646 C 0.93948 0.25515 0.34068 0.0
C3647 C 0.93414 0.24731 0.35608 0.0
C3648 C 0.93092 0.25276 0.37059 0.0
C3649 C 0.87595 0.25384 0.4253 0.0
C3650 C 0.87365 0.24144 0.4329 0.0
C3651 C 0.88873 0.26305 0.41715 0.0
C3652 C 0.89938 0.25996 0.4164 0.0
C3653 C 0.89716 0.2477 0.42409 0.0
C3654 C 0.88451 0.2386 0.43236 0.0
C3655 C 0.91289 0.26935 0.40759 0.0
C3656 C 0.91656 0.26422 0.3931 0.0
C3657 C 0.92241 0.28289 0.41386 0.0
C3658 C 0.91913 0.28881 0.42919 0.0
C3659 C 0.91617 0.28226 0.4458 0.0
C3660 C 0.91301 0.28788 0.46016 0.0
C3661 C 0.91291 0.30011 0.45811 0.0
C3662 C 0.91601 0.30677 0.44171 0.0
C3663 C 0.91915 0.30118 0.4273 0.0
H3664 H 0.91047 0.30445 0.46925 0.0
H3665 H 0.94198 0.25092 0.32947 0.0
H3666 H 0.04131 0.39326 0.36619 0.0
H3667 H 0.03843 0.41066 0.35068 0.0
H3668 H 0.01338 0.38063 0.31045 0.0
H3669 H 0.01639 0.36326 0.32567 0.0
H3670 H 0.0317 0.40488 0.2958 0.0
H3671 H 0.99827 0.38954 0.34308 0.0
H3672 H 0.99052 0.3847 0.3741 0.0
H3673 H 0.01832 0.4276 0.3873 0.0
H3674 H 0.02637 0.43266 0.35639 0.0
H3675 H 0.99974 0.43828 0.2555 0.0
H3676 H 0.00426 0.42218 0.27149 0.0
H3677 H 0.02877 0.45376 0.31037 0.0
H3678 H 0.0238 0.46977 0.29484 0.0
H3679 H 0.01177 0.42957 0.32604 0.0
H3680 H 0.04453 0.44505 0.27834 0.0
H3681 H 0.052 0.44981 0.24722 0.0
H3682 H 0.02534 0.40662 0.23469 0.0
H3683 H 0.01757 0.40162 0.26571 0.0
C3684 C 0.03519 0.39035 0.35404 0.0
C3685 C 0.02904 0.37684 0.34721 0.0
C3686 C 0.03351 0.40031 0.34522 0.0
C3687 C 0.02555 0.39691 0.3295 0.0
C3688 C 0.01956 0.38349 0.32256 0.0
C3689 C 0.02126 0.37355 0.33132 0.0
C3690 C 0.02343 0.40731 0.32023 0.0
C3691 C 0.0272 0.41017 0.30236 0.0
C3692 C 0.01788 0.41447 0.32889 0.0
C3693 C 0.01303 0.41145 0.34747 0.0
C3694 C 0.00281 0.39792 0.35263 0.0
C3695 C 0.99835 0.39514 0.37019 0.0
C3696 C 0.00395 0.40583 0.38268 0.0
C3697 C 0.014 0.41932 0.37762 0.0
C3698 C 0.01851 0.42216 0.36009 0.0
C3699 C 0.00599 0.44178 0.26755 0.0
C3700 C 0.01141 0.45534 0.27387 0.0
C3701 C 0.0087 0.4326 0.27657 0.0
C3702 C 0.01702 0.43682 0.29201 0.0
C3703 C 0.02238 0.4503 0.29844 0.0
C3704 C 0.01963 0.45948 0.28945 0.0
C3705 C 0.01995 0.42707 0.30158 0.0
C3706 C 0.01634 0.42434 0.3195 0.0
C3707 C 0.02564 0.42002 0.29296 0.0
C3708 C 0.03038 0.42298 0.27432 0.0
C3709 C 0.04019 0.43658 0.26893 0.0
C3710 C 0.04449 0.43932 0.25131 0.0
C3711 C 0.03912 0.42853 0.23898 0.0
C3712 C 0.02948 0.41497 0.24426 0.0
C3713 C 0.02514 0.41218 0.26186 0.0
H3714 H 0.04246 0.43068 0.22534 0.0
H3715 H 0.00048 0.40366 0.39626 0.0
H3716 H 0.61101 0.64567 0.33141 0.0
H3717 H 0.60142 0.62179 0.32155 0.0
H3718 H 0.64317 0.63102 0.30978 0.0
H3719 H 0.65294 0.65492 0.3201 0.0
H3720 H 0.62072 0.61786 0.28108 0.0
H3721 H 0.63118 0.61186 0.3409 0.0
H3722 H 0.63128 0.61424 0.37331 0.0
H3723 H 0.58617 0.59088 0.37332 0.0
H3724 H 0.5858 0.58854 0.34085 0.0
H3725 H 0.58972 0.54816 0.25339 0.0
H3726 H 0.606 0.57014 0.26767 0.0
H3727 H 0.57282 0.56529 0.30154 0.0
H3728 H 0.55691 0.54266 0.28874 0.0
H3729 H 0.59512 0.57658 0.31967 0.0
H3730 H 0.58411 0.58561 0.26056 0.0
H3731 H 0.58297 0.58359 0.228 0.0
H3732 H 0.62767 0.60171 0.22629 0.0
H3733 H 0.62905 0.6037 0.25885 0.0
C3734 C 0.61817 0.64258 0.32692 0.0
C3735 C 0.63271 0.65215 0.32651 0.0
C3736 C 0.61268 0.62895 0.32132 0.0
C3737 C 0.62161 0.6247 0.31495 0.0
C3738 C 0.63615 0.63415 0.31469 0.0
C3739 C 0.64169 0.64774 0.32066 0.0
C3740 C 0.6155 0.61052 0.30786 0.0
C3741 C 0.61535 0.60878 0.28949 0.0
C3742 C 0.60829 0.59879 0.31887 0.0
C3743 C 0.60847 0.60012 0.33841 0.0
C3744 C 0.62128 0.60734 0.34779 0.0
C3745 C 0.62139 0.60866 0.36618 0.0
C3746 C 0.60874 0.60274 0.37536 0.0
C3747 C 0.59596 0.59547 0.36618 0.0
C3748 C 0.5958 0.59412 0.34778 0.0
C3749 C 0.58592 0.55154 0.26419 0.0
C3750 C 0.57184 0.54358 0.26968 0.0
C3751 C 0.59524 0.56429 0.27216 0.0
C3752 C 0.59058 0.56963 0.28537 0.0
C3753 C 0.57669 0.56151 0.29128 0.0
C3754 C 0.5675 0.54861 0.28369 0.0
C3755 C 0.59988 0.5838 0.29272 0.0
C3756 C 0.60064 0.58558 0.31118 0.0
C3757 C 0.60746 0.5956 0.28173 0.0
C3758 C 0.60666 0.59466 0.26214 0.0
C3759 C 0.59368 0.58911 0.25323 0.0
C3760 C 0.593 0.58798 0.23478 0.0
C3761 C 0.60523 0.59248 0.22508 0.0
C3762 C 0.6182 0.5982 0.23381 0.0
C3763 C 0.61894 0.59935 0.25226 0.0
H3764 H 0.60467 0.59156 0.2108 0.0
H3765 H 0.60885 0.60377 0.3896 0.0
H3766 H 0.35698 0.99718 0.33923 0.0
H3767 H 0.38081 0.00659 0.32788 0.0
H3768 H 0.36675 0.96855 0.29928 0.0
H3769 H 0.34321 0.95904 0.31079 0.0
H3770 H 0.39022 0.97595 0.31657 0.0
H3771 H 0.37317 0.99906 0.27887 0.0
H3772 H 0.36361 0.01406 0.27301 0.0
H3773 H 0.39941 0.04806 0.29885 0.0
H3774 H 0.4091 0.03321 0.30505 0.0
H3775 H 0.44103 0.99 0.25337 0.0
H3776 H 0.41955 0.98522 0.26798 0.0
H3777 H 0.44214 0.02526 0.29336 0.0
H3778 H 0.46376 0.03016 0.27859 0.0
H3779 H 0.41639 0.01922 0.2816 0.0
H3780 H 0.43452 0.99663 0.31656 0.0
H3781 H 0.44414 0.98165 0.32205 0.0
H3782 H 0.40623 0.9466 0.30153 0.0
H3783 H 0.39646 0.96142 0.29567 0.0
C3784 C 0.35899 0.99087 0.33046 0.0
C3785 C 0.34821 0.97734 0.32599 0.0
C3786 C 0.37259 0.99627 0.32394 0.0
C3787 C 0.37556 0.98828 0.31268 0.0
C3788 C 0.36474 0.97488 0.30803 0.0
C3789 C 0.35125 0.96946 0.31462 0.0
C3790 C 0.38994 0.99352 0.30597 0.0
C3791 C 0.39588 0.98537 0.30881 0.0
C3792 C 0.39757 0.00606 0.2964 0.0
C3793 C 0.39178 0.01499 0.2926 0.0
C3794 C 0.37895 0.00971 0.28342 0.0
C3795 C 0.37352 0.01819 0.28001 0.0
C3796 C 0.38088 0.03199 0.2856 0.0
C3797 C 0.39371 0.03736 0.29456 0.0
C3798 C 0.39918 0.02892 0.29801 0.0
C3799 C 0.44145 0.99777 0.26212 0.0
C3800 C 0.45411 0.01039 0.26502 0.0
C3801 C 0.42916 0.99504 0.27045 0.0
C3802 C 0.42931 0.00478 0.28202 0.0
C3803 C 0.44182 0.01758 0.28454 0.0
C3804 C 0.45414 0.02036 0.27609 0.0
C3805 C 0.41637 0.00137 0.29167 0.0
C3806 C 0.41077 0.00988 0.2895 0.0
C3807 C 0.40901 0.98914 0.30188 0.0
C3808 C 0.41479 0.98016 0.30558 0.0
C3809 C 0.42827 0.98574 0.31312 0.0
C3810 C 0.43374 0.97728 0.31631 0.0
C3811 C 0.42581 0.96319 0.31211 0.0
C3812 C 0.41237 0.95752 0.30476 0.0
C3813 C 0.40684 0.96594 0.30153 0.0
H3814 H 0.43007 0.95665 0.31458 0.0
H3815 H 0.37665 0.03854 0.28296 0.0
H3816 H 0.648 0.9852 0.31262 0.0
H3817 H 0.63115 0.98995 0.29855 0.0
H3818 H 0.60951 0.98263 0.34806 0.0
H3819 H 0.6264 0.9779 0.36235 0.0
H3820 H 0.59139 0.97013 0.31856 0.0
H3821 H 0.63033 0.01462 0.33601 0.0
H3822 H 0.65531 0.03313 0.3379 0.0
H3823 H 0.65704 0.0366 0.28127 0.0
H3824 H 0.63211 0.01795 0.27902 0.0
H3825 H 0.55059 0.99897 0.29242 0.0
H3826 H 0.56644 0.99357 0.30811 0.0
H3827 H 0.5934 0.00643 0.26257 0.0
H3828 H 0.57771 0.01209 0.24696 0.0
H3829 H 0.60871 0.0162 0.29128 0.0
H3830 H 0.57045 0.97159 0.27321 0.0
H3831 H 0.54569 0.95265 0.27055 0.0
H3832 H 0.5428 0.94885 0.32712 0.0
H3833 H 0.5675 0.96792 0.33013 0.0
C3834 C 0.63962 0.98452 0.32054 0.0
C3835 C 0.63859 0.98123 0.33865 0.0
C3836 C 0.63003 0.98728 0.31247 0.0
C3837 C 0.61919 0.98678 0.32231 0.0
C3838 C 0.61784 0.98311 0.34026 0.0
C3839 C 0.62752 0.98044 0.3484 0.0
C3840 C 0.60945 0.99039 0.31387 0.0
C3841 C 0.59511 0.98026 0.31281 0.0
C3842 C 0.61441 0.0035 0.30603 0.0
C3843 C 0.62938 0.0148 0.30734 0.0
C3844 C 0.63606 0.01925 0.32395 0.0
C3845 C 0.65021 0.02978 0.32508 0.0
C3846 C 0.65777 0.03602 0.30971 0.0
C3847 C 0.65118 0.03175 0.29316 0.0
C3848 C 0.63704 0.02121 0.29195 0.0
C3849 C 0.55986 0.00057 0.28573 0.0
C3850 C 0.5629 0.00592 0.26845 0.0
C3851 C 0.5689 0.99746 0.2947 0.0
C3852 C 0.58103 0.9994 0.28645 0.0
C3853 C 0.58413 0.00485 0.26923 0.0
C3854 C 0.57517 0.0081 0.26033 0.0
C3855 C 0.59058 0.99589 0.29578 0.0
C3856 C 0.60493 0.00606 0.29704 0.0
C3857 C 0.58562 0.98277 0.30367 0.0
C3858 C 0.57078 0.97128 0.3019 0.0
C3859 C 0.5645 0.96679 0.28509 0.0
C3860 C 0.55049 0.95602 0.28352 0.0
C3861 C 0.54267 0.94958 0.29866 0.0
C3862 C 0.54886 0.95387 0.3154 0.0
C3863 C 0.56287 0.96465 0.31705 0.0
H3864 H 0.53182 0.94124 0.29741 0.0
H3865 H 0.66872 0.04417 0.31062 0.0
H3866 H 0.03068 0.66728 0.32556 0.0
H3867 H 0.03042 0.64759 0.31194 0.0
H3868 H 0.99155 0.6195 0.33826 0.0
H3869 H 0.99192 0.63911 0.35229 0.0
H3870 H 0.00829 0.60955 0.33931 0.0
H3871 H 0.99247 0.62835 0.29409 0.0
H3872 H 0.99376 0.64655 0.27469 0.0
H3873 H 0.03187 0.65304 0.25205 0.0
H3874 H 0.03092 0.635 0.27149 0.0
H3875 H 0.98518 0.55023 0.28496 0.0
H3876 H 0.98748 0.5704 0.30007 0.0
H3877 H 0.02802 0.59653 0.2763 0.0
H3878 H 0.02569 0.5764 0.26091 0.0
H3879 H 0.01129 0.60771 0.27402 0.0
H3880 H 0.02621 0.58786 0.31887 0.0
H3881 H 0.02415 0.56918 0.33798 0.0
H3882 H 0.98673 0.56413 0.36099 0.0
H3883 H 0.98845 0.58265 0.34183 0.0
C3884 C 0.0221 0.65691 0.32853 0.0
C3885 C 0.01127 0.65478 0.33994 0.0
C3886 C 0.02194 0.64566 0.32066 0.0
C3887 C 0.01084 0.63206 0.32383 0.0
C3888 C 0.0002 0.62989 0.33557 0.0
C3889 C 0.00042 0.64113 0.34356 0.0
C3890 C 0.01019 0.6201 0.31475 0.0
C3891 C 0.00878 0.60908 0.32502 0.0
C3892 C 0.01112 0.6196 0.29611 0.0
C3893 C 0.0117 0.63043 0.28438 0.0
C3894 C 0.00119 0.63373 0.28507 0.0
C3895 C 0.00184 0.64401 0.27405 0.0
C3896 C 0.01291 0.65098 0.26218 0.0
C3897 C 0.02332 0.64765 0.26127 0.0
C3898 C 0.02272 0.6374 0.27227 0.0
C3899 C 0.99456 0.56028 0.28289 0.0
C3900 C 0.00527 0.56172 0.27175 0.0
C3901 C 0.99591 0.57177 0.29164 0.0
C3902 C 0.00798 0.58494 0.28943 0.0
C3903 C 0.01865 0.58645 0.27823 0.0
C3904 C 0.01734 0.57493 0.26955 0.0
C3905 C 0.00934 0.59717 0.29858 0.0
C3906 C 0.01086 0.60822 0.28831 0.0
C3907 C 0.00841 0.59766 0.31719 0.0
C3908 C 0.00739 0.58656 0.3288 0.0
C3909 C 0.01748 0.58269 0.32791 0.0
C3910 C 0.01638 0.57215 0.33877 0.0
C3911 C 0.0053 0.56545 0.35066 0.0
C3912 C 0.9953 0.56932 0.35176 0.0
C3913 C 0.99634 0.57985 0.34091 0.0
H3914 H 0.00447 0.55729 0.35906 0.0
H3915 H 0.0134 0.65893 0.25366 0.0
H3916 H 0.35406 0.34638 0.32686 0.0
H3917 H 0.37769 0.35634 0.31456 0.0
H3918 H 0.37422 0.38907 0.29046 0.0
H3919 H 0.3508 0.37932 0.30264 0.0
H3920 H 0.38486 0.37761 0.26759 0.0
H3921 H 0.39196 0.39496 0.32815 0.0
H3922 H 0.38974 0.3922 0.36055 0.0
H3923 H 0.41125 0.36992 0.35993 0.0
H3924 H 0.41344 0.3724 0.32746 0.0
H3925 H 0.44931 0.43715 0.25291 0.0
H3926 H 0.42633 0.4193 0.26355 0.0
H3927 H 0.44399 0.39571 0.28327 0.0
H3928 H 0.46729 0.41385 0.27291 0.0
H3929 H 0.42659 0.39739 0.30738 0.0
H3930 H 0.42369 0.38421 0.24747 0.0
H3931 H 0.42665 0.38775 0.21524 0.0
H3932 H 0.39759 0.40182 0.21423 0.0
H3933 H 0.39461 0.39857 0.24651 0.0
C3934 C 0.35834 0.35569 0.31892 0.0
C3935 C 0.35058 0.3621 0.31581 0.0
C3936 C 0.37182 0.36135 0.31191 0.0
C3937 C 0.37768 0.37343 0.30161 0.0
C3938 C 0.36986 0.3797 0.2983 0.0
C3939 C 0.3565 0.37415 0.30539 0.0
C3940 C 0.39211 0.37999 0.2946 0.0
C3941 C 0.394 0.38192 0.27626 0.0
C3942 C 0.404 0.38517 0.3059 0.0
C3943 C 0.40269 0.3837 0.32538 0.0
C3944 C 0.3961 0.38936 0.33491 0.0
C3945 C 0.39487 0.38788 0.35329 0.0
C3946 C 0.4003 0.38084 0.36229 0.0
C3947 C 0.40702 0.37533 0.35293 0.0
C3948 C 0.40826 0.37677 0.33455 0.0
C3949 C 0.44836 0.42822 0.25962 0.0
C3950 C 0.46012 0.42694 0.26219 0.0
C3951 C 0.43518 0.41795 0.26552 0.0
C3952 C 0.43343 0.4061 0.27399 0.0
C3953 C 0.44513 0.40475 0.27666 0.0
C3954 C 0.45838 0.41506 0.27067 0.0
C3955 C 0.41934 0.39545 0.28042 0.0
C3956 C 0.41749 0.39275 0.29863 0.0
C3957 C 0.40748 0.38949 0.26898 0.0
C3958 C 0.40897 0.39119 0.24946 0.0
C3959 C 0.41798 0.38812 0.2404 0.0
C3960 C 0.41966 0.39007 0.22211 0.0
C3961 C 0.41233 0.39501 0.21269 0.0
C3962 C 0.40326 0.39798 0.22154 0.0
C3963 C 0.40154 0.39605 0.23983 0.0
H3964 H 0.41367 0.39652 0.19854 0.0
H3965 H 0.39935 0.37971 0.37652 0.0
H3966 H 0.33698 0.30328 0.33382 0.0
H3967 H 0.33984 0.28569 0.34861 0.0
H3968 H 0.30409 0.2748 0.3814 0.0
H3969 H 0.30141 0.29268 0.36697 0.0
H3970 H 0.32462 0.27701 0.40099 0.0
H3971 H 0.30259 0.25357 0.34696 0.0
H3972 H 0.29918 0.25052 0.31465 0.0
H3973 H 0.33966 0.25503 0.30962 0.0
H3974 H 0.3434 0.2583 0.34189 0.0
H3975 H 0.31954 0.21578 0.43549 0.0
H3976 H 0.3142 0.23132 0.41929 0.0
H3977 H 0.35274 0.24763 0.39024 0.0
H3978 H 0.3581 0.23205 0.40629 0.0
H3979 H 0.32968 0.24174 0.36881 0.0
H3980 H 0.35167 0.26592 0.42308 0.0
H3981 H 0.35456 0.26844 0.45549 0.0
H3982 H 0.31314 0.2618 0.46 0.0
H3983 H 0.30993 0.25904 0.42761 0.0
C3984 C 0.32963 0.29706 0.34406 0.0
C3985 C 0.31895 0.29938 0.3492 0.0
C3986 C 0.33125 0.28695 0.35247 0.0
C3987 C 0.32208 0.27878 0.366 0.0
C3988 C 0.31129 0.28096 0.371 0.0
C3989 C 0.30974 0.29116 0.36269 0.0
C3990 C 0.32413 0.26839 0.37542 0.0
C3991 C 0.32547 0.26915 0.39394 0.0
C3992 C 0.32555 0.25829 0.36625 0.0
C3993 C 0.32333 0.2563 0.34683 0.0
C3994 C 0.31081 0.25402 0.33895 0.0
C3995 C 0.30881 0.25223 0.32064 0.0
C3996 C 0.31921 0.25261 0.31008 0.0
C3997 C 0.33162 0.25475 0.31781 0.0
C3998 C 0.33368 0.25655 0.33611 0.0
C3999 C 0.32682 0.22261 0.42555 0.0
C4000 C 0.33926 0.22274 0.42218 0.0
C4001 C 0.32379 0.23152 0.41639 0.0
C4002 C 0.33313 0.24068 0.40365 0.0
C4003 C 0.34542 0.24065 0.40003 0.0
C4004 C 0.34851 0.23183 0.40929 0.0
C4005 C 0.33018 0.25044 0.39427 0.0
C4006 C 0.32871 0.24956 0.37579 0.0
C4007 C 0.32855 0.26036 0.40347 0.0
C4008 C 0.3305 0.26212 0.42294 0.0
C4009 C 0.34313 0.26488 0.43099 0.0
C4010 C 0.34484 0.26637 0.44936 0.0
C4011 C 0.33403 0.26524 0.4598 0.0
C4012 C 0.3215 0.26265 0.45189 0.0
C4013 C 0.31974 0.26113 0.43353 0.0
H4014 H 0.33536 0.2664 0.47402 0.0
H4015 H 0.31764 0.25122 0.29591 0.0
H4016 H 0.68882 0.02184 0.36024 0.0
H4017 H 0.69823 0.04509 0.37272 0.0
H4018 H 0.73593 0.04611 0.38894 0.0
H4019 H 0.72677 0.02312 0.37651 0.0
H4020 H 0.7232 0.05256 0.41613 0.0
H4021 H 0.73696 0.06454 0.35449 0.0
H4022 H 0.73195 0.06357 0.32249 0.0
H4023 H 0.70518 0.07965 0.33173 0.0
H4024 H 0.70991 0.08056 0.36383 0.0
H4025 H 0.7764 0.11902 0.43812 0.0
H4026 H 0.76145 0.09655 0.42423 0.0
H4027 H 0.73198 0.10854 0.40853 0.0
H4028 H 0.74732 0.13146 0.42183 0.0
H4029 H 0.73588 0.09506 0.38206 0.0
H4030 H 0.72427 0.08636 0.44264 0.0
H4031 H 0.72844 0.08728 0.47483 0.0
H4032 H 0.74915 0.06452 0.46849 0.0
H4033 H 0.74531 0.06366 0.43621 0.0
C4034 C 0.69918 0.02709 0.36628 0.0
C4035 C 0.70702 0.02058 0.36742 0.0
C4036 C 0.70453 0.04036 0.37341 0.0
C4037 C 0.71774 0.04725 0.38182 0.0
C4038 C 0.72568 0.04091 0.38259 0.0
C4039 C 0.72043 0.02777 0.37539 0.0
C4040 C 0.7233 0.06089 0.39044 0.0
C4041 C 0.72603 0.06188 0.4087 0.0
C4042 C 0.72639 0.0729 0.38084 0.0
C4043 C 0.72365 0.07246 0.36156 0.0
C4044 C 0.72991 0.06776 0.34971 0.0
C4045 C 0.72714 0.06725 0.33155 0.0
C4046 C 0.71821 0.0715 0.32509 0.0
C4047 C 0.71207 0.07633 0.33676 0.0
C4048 C 0.7148 0.07686 0.35493 0.0
C4049 C 0.76684 0.11699 0.43154 0.0
C4050 C 0.7631 0.12709 0.43104 0.0
C4051 C 0.75819 0.10405 0.42379 0.0
C4052 C 0.74548 0.10077 0.41558 0.0
C4053 C 0.74171 0.11082 0.41489 0.0
C4054 C 0.75043 0.12387 0.42261 0.0
C4055 C 0.73633 0.08683 0.40768 0.0
C4056 C 0.73284 0.08574 0.3896 0.0
C4057 C 0.73233 0.07465 0.4175 0.0
C4058 C 0.73457 0.07501 0.43696 0.0
C4059 C 0.72979 0.08162 0.44809 0.0
C4060 C 0.73209 0.08213 0.46636 0.0
C4061 C 0.73907 0.07598 0.4737 0.0
C4062 C 0.74374 0.06928 0.46278 0.0
C4063 C 0.74149 0.06877 0.44449 0.0
H4064 H 0.74085 0.07638 0.48785 0.0
H4065 H 0.71608 0.0711 0.31103 0.0
H4066 H 0.9746 0.6651 0.36183 0.0
H4067 H 0.94984 0.65124 0.37058 0.0
H4068 H 0.95044 0.68869 0.38321 0.0
H4069 H 0.97484 0.70249 0.37435 0.0
H4070 H 0.93737 0.64882 0.40172 0.0
H4071 H 0.92036 0.68613 0.37349 0.0
H4072 H 0.92527 0.70114 0.34746 0.0
H4073 H 0.93749 0.67677 0.31807 0.0
H4074 H 0.93247 0.66148 0.34382 0.0
H4075 H 0.88511 0.6493 0.45129 0.0
H4076 H 0.90532 0.65276 0.43482 0.0
H4077 H 0.88002 0.63833 0.38718 0.0
H4078 H 0.85993 0.63564 0.40341 0.0
H4079 H 0.90276 0.66065 0.38008 0.0
H4080 H 0.89322 0.61941 0.40808 0.0
H4081 H 0.88752 0.60269 0.43232 0.0
H4082 H 0.92639 0.63121 0.45855 0.0
H4083 H 0.93225 0.64819 0.43461 0.0
C4084 C 0.9694 0.67036 0.36636 0.0
C4085 C 0.9767 0.68492 0.36731 0.0
C4086 C 0.95528 0.66243 0.37138 0.0
C4087 C 0.94823 0.66894 0.37729 0.0
C4088 C 0.95555 0.68344 0.37833 0.0
C4089 C 0.96957 0.69133 0.37333 0.0
C4090 C 0.93337 0.6608 0.38303 0.0
C4091 C 0.92972 0.65127 0.39689 0.0
C4092 C 0.92324 0.66363 0.3763 0.0
C4093 C 0.92609 0.67269 0.36064 0.0
C4094 C 0.924 0.68391 0.36144 0.0
C4095 C 0.92683 0.69248 0.34674 0.0
C4096 C 0.93171 0.68993 0.33113 0.0
C4097 C 0.93374 0.67876 0.33018 0.0
C4098 C 0.93093 0.67015 0.34484 0.0
C4099 C 0.88381 0.64685 0.43731 0.0
C4100 C 0.8709 0.64235 0.42866 0.0
C4101 C 0.89535 0.64861 0.42793 0.0
C4102 C 0.8942 0.64566 0.40975 0.0
C4103 C 0.88118 0.64064 0.40121 0.0
C4104 C 0.86965 0.639 0.41055 0.0
C4105 C 0.90695 0.64919 0.39946 0.0
C4106 C 0.91022 0.6579 0.38471 0.0
C4107 C 0.91657 0.6453 0.40511 0.0
C4108 C 0.91315 0.63511 0.41955 0.0
C4109 C 0.90052 0.62216 0.41907 0.0
C4110 C 0.89726 0.61262 0.43275 0.0
C4111 C 0.90658 0.61589 0.44697 0.0
C4112 C 0.91919 0.62869 0.44752 0.0
C4113 C 0.9225 0.63826 0.43388 0.0
H4114 H 0.90404 0.6085 0.45756 0.0
H4115 H 0.9339 0.69659 0.31977 0.0
H4116 H 0.38366 0.0531 0.69994 0.0
H4117 H 0.40056 0.0472 0.71121 0.0
H4118 H 0.36748 0.00426 0.71483 0.0
H4119 H 0.35054 0.01004 0.70375 0.0
H4120 H 0.38348 0.01276 0.74446 0.0
H4121 H 0.39121 0.01534 0.6817 0.0
H4122 H 0.39644 0.02631 0.65227 0.0
H4123 H 0.43639 0.05925 0.67141 0.0
H4124 H 0.43132 0.04857 0.70105 0.0
H4125 H 0.42441 0.98252 0.75816 0.0
H4126 H 0.40851 0.98883 0.74459 0.0
H4127 H 0.44243 0.03146 0.74165 0.0
H4128 H 0.4585 0.02517 0.75476 0.0
H4129 H 0.42639 0.0236 0.71177 0.0
H4130 H 0.4189 0.02122 0.77431 0.0
H4131 H 0.41389 0.01045 0.80386 0.0
H4132 H 0.37367 0.97754 0.78538 0.0
H4133 H 0.37853 0.988 0.75561 0.0
C4134 C 0.37999 0.04239 0.70309 0.0
C4135 C 0.36575 0.03205 0.70092 0.0
C4136 C 0.38967 0.03903 0.70947 0.0
C4137 C 0.38529 0.02527 0.71374 0.0
C4138 C 0.37108 0.01494 0.71163 0.0
C4139 C 0.36142 0.01828 0.70523 0.0
C4140 C 0.39542 0.0216 0.72071 0.0
C4141 C 0.39277 0.01497 0.7372 0.0
C4142 C 0.40773 0.0248 0.71145 0.0
C4143 C 0.41082 0.03123 0.69364 0.0
C4144 C 0.40106 0.02498 0.67968 0.0
C4145 C 0.404 0.03114 0.66295 0.0
C4146 C 0.41672 0.04349 0.65998 0.0
C4147 C 0.42654 0.0497 0.67373 0.0
C4148 C 0.42364 0.04359 0.69049 0.0
C4149 C 0.42854 0.9932 0.75436 0.0
C4150 C 0.4427 0.00336 0.75763 0.0
C4151 C 0.41942 0.99681 0.74676 0.0
C4152 C 0.42425 0.01065 0.74235 0.0
C4153 C 0.43847 0.02074 0.74503 0.0
C4154 C 0.4476 0.01714 0.75265 0.0
C4155 C 0.41437 0.01467 0.73543 0.0
C4156 C 0.4171 0.02139 0.719 0.0
C4157 C 0.40214 0.0116 0.74476 0.0
C4158 C 0.39914 0.00533 0.76268 0.0
C4159 C 0.40903 0.01163 0.7765 0.0
C4160 C 0.40621 0.00559 0.7933 0.0
C4161 C 0.39349 0.9933 0.79648 0.0
C4162 C 0.38353 0.98705 0.78288 0.0
C4163 C 0.38631 0.99303 0.76605 0.0
H4164 H 0.39132 0.98864 0.8095 0.0
H4165 H 0.41898 0.04824 0.64702 0.0
H4166 H 0.99021 0.34345 0.7135 0.0
H4167 H 0.99279 0.36365 0.72875 0.0
H4168 H 0.98345 0.37742 0.68007 0.0
H4169 H 0.98121 0.35742 0.66461 0.0
H4170 H 0.0048 0.39851 0.69624 0.0
H4171 H 0.95902 0.36205 0.71386 0.0
H4172 H 0.94154 0.33929 0.72619 0.0
H4173 H 0.96351 0.35056 0.77607 0.0
H4174 H 0.98125 0.37332 0.76396 0.0
H4175 H 0.99109 0.44784 0.73355 0.0
H4176 H 0.98867 0.42751 0.71868 0.0
H4177 H 0.00187 0.41639 0.7665 0.0
H4178 H 0.0041 0.43659 0.78155 0.0
H4179 H 0.97871 0.39407 0.75109 0.0
H4180 H 0.02434 0.43078 0.73312 0.0
H4181 H 0.04141 0.4536 0.72058 0.0
H4182 H 0.01905 0.44181 0.67097 0.0
H4183 H 0.00172 0.41897 0.6833 0.0
C4184 C 0.98866 0.35075 0.70603 0.0
C4185 C 0.98547 0.34879 0.68783 0.0
C4186 C 0.99008 0.36228 0.7148 0.0
C4187 C 0.98813 0.37199 0.70563 0.0
C4188 C 0.98499 0.37008 0.68744 0.0
C4189 C 0.98368 0.35861 0.67863 0.0
C4190 C 0.98959 0.38425 0.7149 0.0
C4191 C 0.99893 0.3975 0.70809 0.0
C4192 C 0.9822 0.38301 0.73061 0.0
C4193 C 0.97154 0.36934 0.73794 0.0
C4194 C 0.96019 0.35963 0.72741 0.0
C4195 C 0.95022 0.34674 0.73437 0.0
C4196 C 0.95144 0.34347 0.75189 0.0
C4197 C 0.9626 0.3531 0.7625 0.0
C4198 C 0.9726 0.366 0.7556 0.0
C4199 C 0.99341 0.44102 0.74092 0.0
C4200 C 0.99782 0.44383 0.75871 0.0
C4201 C 0.99212 0.42948 0.73238 0.0
C4202 C 0.9952 0.42051 0.74144 0.0
C4203 C 0.99948 0.4232 0.75925 0.0
C4204 C 0.00085 0.4348 0.76778 0.0
C4205 C 0.99386 0.40825 0.73237 0.0
C4206 C 0.98456 0.39503 0.73923 0.0
C4207 C 0.00122 0.40951 0.71666 0.0
C4208 C 0.01166 0.42321 0.70919 0.0
C4209 C 0.023 0.43309 0.71958 0.0
C4210 C 0.03273 0.44602 0.7125 0.0
C4211 C 0.0313 0.44917 0.695 0.0
C4212 C 0.02014 0.43936 0.68453 0.0
C4213 C 0.01037 0.42642 0.69155 0.0
H4214 H 0.03884 0.45918 0.68955 0.0
H4215 H 0.94371 0.33348 0.75725 0.0
H4216 H 0.65218 0.61808 0.71837 0.0
H4217 H 0.62809 0.60642 0.7287 0.0
H4218 H 0.62546 0.64192 0.71418 0.0
H4219 H 0.64984 0.65386 0.70388 0.0
H4220 H 0.61381 0.63139 0.74687 0.0
H4221 H 0.60934 0.61402 0.68851 0.0
H4222 H 0.61489 0.60417 0.66309 0.0
H4223 H 0.60358 0.56756 0.69313 0.0
H4224 H 0.59816 0.57727 0.71884 0.0
H4225 H 0.53879 0.58724 0.7623 0.0
H4226 H 0.56139 0.60342 0.74848 0.0
H4227 H 0.57544 0.57503 0.75889 0.0
H4228 H 0.55317 0.55905 0.77299 0.0
H4229 H 0.57969 0.58422 0.72432 0.0
H4230 H 0.58721 0.60329 0.78366 0.0
H4231 H 0.5818 0.61328 0.80906 0.0
H4232 H 0.58706 0.64684 0.77651 0.0
H4233 H 0.59231 0.63693 0.75083 0.0
C4234 C 0.64654 0.62346 0.71733 0.0
C4235 C 0.65293 0.63688 0.71019 0.0
C4236 C 0.63272 0.61674 0.7232 0.0
C4237 C 0.62491 0.62322 0.72195 0.0
C4238 C 0.6313 0.63673 0.71517 0.0
C4239 C 0.6452 0.64349 0.70926 0.0
C4240 C 0.6101 0.61569 0.72782 0.0
C4241 C 0.60623 0.6212 0.74168 0.0
C4242 C 0.60026 0.60236 0.72112 0.0
C4243 C 0.60342 0.59642 0.70564 0.0
C4244 C 0.60812 0.6039 0.68974 0.0
C4245 C 0.61124 0.59834 0.67527 0.0
C4246 C 0.60961 0.58526 0.6765 0.0
C4247 C 0.60484 0.5777 0.6922 0.0
C4248 C 0.60172 0.58321 0.70671 0.0
C4249 C 0.54676 0.58454 0.76183 0.0
C4250 C 0.54412 0.57178 0.76859 0.0
C4251 C 0.55964 0.59376 0.75388 0.0
C4252 C 0.57004 0.59037 0.75261 0.0
C4253 C 0.56749 0.57777 0.75958 0.0
C4254 C 0.55472 0.56861 0.76756 0.0
C4255 C 0.58358 0.5997 0.74377 0.0
C4256 C 0.58718 0.59452 0.72928 0.0
C4257 C 0.5931 0.61332 0.74985 0.0
C4258 C 0.58997 0.61928 0.76528 0.0
C4259 C 0.58708 0.61273 0.78188 0.0
C4260 C 0.58407 0.61839 0.79633 0.0
C4261 C 0.58404 0.63066 0.79438 0.0
C4262 C 0.58706 0.63732 0.77799 0.0
C4263 C 0.59006 0.63169 0.76348 0.0
H4264 H 0.58171 0.63503 0.80559 0.0
H4265 H 0.61202 0.58097 0.66528 0.0
H4266 H 0.65622 0.68137 0.66166 0.0
H4267 H 0.65301 0.6994 0.64903 0.0
H4268 H 0.69759 0.72873 0.65357 0.0
H4269 H 0.7008 0.71075 0.66688 0.0
H4270 H 0.68411 0.741 0.66195 0.0
H4271 H 0.68164 0.71326 0.61331 0.0
H4272 H 0.67374 0.69186 0.59624 0.0
H4273 H 0.63152 0.6835 0.59569 0.0
H4274 H 0.63913 0.70476 0.61297 0.0
H4275 H 0.68164 0.78746 0.59821 0.0
H4276 H 0.68657 0.77103 0.61254 0.0
H4277 H 0.64245 0.74358 0.6226 0.0
H4278 H 0.63741 0.76022 0.60918 0.0
H4279 H 0.65702 0.73121 0.60584 0.0
H4280 H 0.66088 0.75987 0.65559 0.0
H4281 H 0.67024 0.78211 0.67125 0.0
H4282 H 0.71207 0.78973 0.66742 0.0
H4283 H 0.70297 0.76761 0.65149 0.0
C4284 C 0.66535 0.69167 0.66003 0.0
C4285 C 0.67878 0.69461 0.66513 0.0
C4286 C 0.66351 0.70196 0.65271 0.0
C4287 C 0.6751 0.71536 0.64994 0.0
C4288 C 0.6885 0.71845 0.65548 0.0
C4289 C 0.69032 0.70817 0.66306 0.0
C4290 C 0.67315 0.72605 0.64116 0.0
C4291 C 0.67837 0.73891 0.64954 0.0
C4292 C 0.66558 0.72335 0.62501 0.0
C4293 C 0.66094 0.71055 0.61457 0.0
C4294 C 0.67065 0.70681 0.60966 0.0
C4295 C 0.66623 0.69471 0.59993 0.0
C4296 C 0.65213 0.68631 0.59492 0.0
C4297 C 0.64243 0.69001 0.59959 0.0
C4298 C 0.6468 0.70209 0.60934 0.0
C4299 C 0.67298 0.77807 0.60374 0.0
C4300 C 0.6591 0.77523 0.60248 0.0
C4301 C 0.67583 0.76865 0.61182 0.0
C4302 C 0.66487 0.75613 0.6186 0.0
C4303 C 0.65104 0.75318 0.61734 0.0
C4304 C 0.64818 0.76269 0.60953 0.0
C4305 C 0.66779 0.74596 0.62678 0.0
C4306 C 0.66279 0.73325 0.61821 0.0
C4307 C 0.67579 0.7489 0.64254 0.0
C4308 C 0.68126 0.76216 0.65218 0.0
C4309 C 0.67209 0.76635 0.65794 0.0
C4310 C 0.67734 0.77892 0.66689 0.0
C4311 C 0.69175 0.78735 0.67028 0.0
C4312 C 0.70092 0.7832 0.66476 0.0
C4313 C 0.69572 0.77065 0.65578 0.0
H4314 H 0.6958 0.79707 0.67722 0.0
H4315 H 0.64873 0.67695 0.58739 0.0
H4316 H 0.30937 0.98493 0.6721 0.0
H4317 H 0.29738 0.96077 0.66231 0.0
H4318 H 0.26199 0.9634 0.64446 0.0
H4319 H 0.27373 0.98739 0.65443 0.0
H4320 H 0.2534 0.93981 0.66188 0.0
H4321 H 0.28659 0.96542 0.61553 0.0
H4322 H 0.31012 0.98122 0.60331 0.0
H4323 H 0.32397 0.9543 0.62177 0.0
H4324 H 0.30055 0.93842 0.63431 0.0
H4325 H 0.21781 0.88626 0.60022 0.0
H4326 H 0.23214 0.90877 0.61443 0.0
H4327 H 0.26199 0.89758 0.63122 0.0
H4328 H 0.24751 0.87479 0.61717 0.0
H4329 H 0.2747 0.92424 0.61743 0.0
H4330 H 0.24041 0.89735 0.661 0.0
H4331 H 0.2166 0.88149 0.67238 0.0
H4332 H 0.20463 0.91083 0.65872 0.0
H4333 H 0.22831 0.92679 0.647 0.0
C4334 C 0.29901 0.98035 0.66615 0.0
C4335 C 0.29253 0.98812 0.66401 0.0
C4336 C 0.2922 0.96656 0.66049 0.0
C4337 C 0.27884 0.96032 0.6525 0.0
C4338 C 0.27229 0.96799 0.65061 0.0
C4339 C 0.27905 0.98174 0.65628 0.0
C4340 C 0.27161 0.94582 0.64597 0.0
C4341 C 0.25803 0.93643 0.65208 0.0
C4342 C 0.27781 0.9413 0.63357 0.0
C4343 C 0.29188 0.95083 0.62604 0.0
C4344 C 0.29469 0.96293 0.61711 0.0
C4345 C 0.308 0.97189 0.6101 0.0
C4346 C 0.31855 0.96879 0.61181 0.0
C4347 C 0.3158 0.9567 0.62049 0.0
C4348 C 0.30251 0.94772 0.62754 0.0
C4349 C 0.22733 0.88848 0.60711 0.0
C4350 C 0.23141 0.87864 0.60777 0.0
C4351 C 0.23554 0.90139 0.61517 0.0
C4352 C 0.24801 0.90475 0.62411 0.0
C4353 C 0.25236 0.89514 0.62443 0.0
C4354 C 0.2441 0.88216 0.61637 0.0
C4355 C 0.25639 0.91837 0.63303 0.0
C4356 C 0.27017 0.92757 0.62741 0.0
C4357 C 0.25036 0.92276 0.64585 0.0
C4358 C 0.23612 0.91323 0.65301 0.0
C4359 C 0.23268 0.90038 0.66031 0.0
C4360 C 0.2192 0.89138 0.66683 0.0
C4361 C 0.2091 0.89514 0.66624 0.0
C4362 C 0.21246 0.90793 0.65916 0.0
C4363 C 0.22592 0.91697 0.65259 0.0
H4364 H 0.19868 0.88816 0.6713 0.0
H4365 H 0.32885 0.97573 0.60637 0.0
H4366 H 0.02793 0.30292 0.65836 0.0
H4367 H 0.05287 0.31586 0.65148 0.0
H4368 H 0.0526 0.35382 0.64978 0.0
H4369 H 0.02743 0.34086 0.65697 0.0
H4370 H 0.06497 0.34854 0.61945 0.0
H4371 H 0.06935 0.35102 0.6824 0.0
H4372 H 0.06403 0.34197 0.71286 0.0
H4373 H 0.07837 0.31427 0.70128 0.0
H4374 H 0.08358 0.323 0.67066 0.0
H4375 H 0.13806 0.37949 0.60088 0.0
H4376 H 0.11722 0.37604 0.61639 0.0
H4377 H 0.10544 0.33409 0.62878 0.0
H4378 H 0.12618 0.3375 0.61344 0.0
H4379 H 0.10093 0.34683 0.65673 0.0
H4380 H 0.09096 0.33941 0.59414 0.0
H4381 H 0.09558 0.34624 0.56277 0.0
H4382 H 0.09084 0.3809 0.57286 0.0
H4383 H 0.08637 0.37437 0.6044 0.0
C4384 C 0.03316 0.31404 0.65667 0.0
C4385 C 0.0257 0.32088 0.65817 0.0
C4386 C 0.04744 0.32143 0.65282 0.0
C4387 C 0.05458 0.33579 0.65024 0.0
C4388 C 0.04725 0.34273 0.65182 0.0
C4389 C 0.03292 0.33534 0.65597 0.0
C4390 C 0.06952 0.34319 0.64499 0.0
C4391 C 0.07297 0.34858 0.62779 0.0
C4392 C 0.07981 0.34286 0.65572 0.0
C4393 C 0.0768 0.33764 0.67419 0.0
C4394 C 0.07128 0.34294 0.6863 0.0
C4395 C 0.0683 0.33787 0.70361 0.0
C4396 C 0.07085 0.32754 0.709 0.0
C4397 C 0.07641 0.32228 0.69709 0.0
C4398 C 0.0794 0.3273 0.67976 0.0
C4399 C 0.13113 0.36963 0.60719 0.0
C4400 C 0.13363 0.35871 0.60584 0.0
C4401 C 0.11924 0.36766 0.61598 0.0
C4402 C 0.10976 0.35478 0.62363 0.0
C4403 C 0.11263 0.34411 0.623 0.0
C4404 C 0.1244 0.34603 0.61411 0.0
C4405 C 0.09626 0.35191 0.63111 0.0
C4406 C 0.09308 0.34726 0.64864 0.0
C4407 C 0.08613 0.3527 0.62061 0.0
C4408 C 0.08852 0.35652 0.60164 0.0
C4409 C 0.09099 0.34854 0.58969 0.0
C4410 C 0.09357 0.35234 0.57189 0.0
C4411 C 0.09356 0.36402 0.56585 0.0
C4412 C 0.09088 0.37188 0.57757 0.0
C4413 C 0.08832 0.36813 0.59542 0.0
H4414 H 0.09563 0.36695 0.55208 0.0
H4415 H 0.06853 0.32363 0.7224 0.0
H4416 H 0.31021 0.31242 0.64761 0.0
H4417 H 0.29416 0.31849 0.63406 0.0
H4418 H 0.28894 0.33281 0.68452 0.0
H4419 H 0.30508 0.32681 0.69824 0.0
H4420 H 0.26365 0.31736 0.66544 0.0
H4421 H 0.30995 0.35611 0.65669 0.0
H4422 H 0.33481 0.36809 0.6479 0.0
H4423 H 0.32237 0.3543 0.59432 0.0
H4424 H 0.29742 0.34204 0.60285 0.0
H4425 H 0.23319 0.35416 0.62868 0.0
H4426 H 0.24879 0.34868 0.64494 0.0
H4427 H 0.25805 0.3352 0.59643 0.0
H4428 H 0.24272 0.34092 0.58006 0.0
H4429 H 0.28166 0.35127 0.61614 0.0
H4430 H 0.23513 0.31184 0.62564 0.0
H4431 H 0.21039 0.30008 0.6349 0.0
H4432 H 0.22348 0.3157 0.68771 0.0
H4433 H 0.24831 0.32772 0.6787 0.0
C4434 C 0.30555 0.31672 0.6559 0.0
C4435 C 0.30899 0.3192 0.67401 0.0
C4436 C 0.29642 0.32024 0.64811 0.0
C4437 C 0.29051 0.32626 0.65824 0.0
C4438 C 0.29344 0.32822 0.67646 0.0
C4439 C 0.30267 0.3248 0.68426 0.0
C4440 C 0.28165 0.33089 0.64962 0.0
C4441 C 0.26763 0.32492 0.65484 0.0
C4442 C 0.28682 0.34065 0.63566 0.0
C4443 C 0.30181 0.34804 0.63045 0.0
C4444 C 0.31251 0.35553 0.64306 0.0
C4445 C 0.32662 0.36239 0.63813 0.0
C4446 C 0.33017 0.36193 0.62058 0.0
C4447 C 0.31961 0.35463 0.60792 0.0
C4448 C 0.30548 0.34774 0.61279 0.0
C4449 C 0.23865 0.35015 0.62146 0.0
C4450 C 0.23667 0.34792 0.60308 0.0
C4451 C 0.24747 0.34692 0.63079 0.0
C4452 C 0.25447 0.34139 0.62192 0.0
C4453 C 0.25272 0.33941 0.60355 0.0
C4454 C 0.24387 0.34258 0.59423 0.0
C4455 C 0.26357 0.33758 0.63175 0.0
C4456 C 0.27768 0.34375 0.62679 0.0
C4457 C 0.25848 0.32806 0.646 0.0
C4458 C 0.24357 0.3208 0.65145 0.0
C4459 C 0.23273 0.31286 0.63919 0.0
C4460 C 0.21869 0.30613 0.6444 0.0
C4461 C 0.21536 0.30717 0.66187 0.0
C4462 C 0.22607 0.31492 0.67418 0.0
C4463 C 0.24013 0.32169 0.66903 0.0
H4464 H 0.20448 0.30195 0.66588 0.0
H4465 H 0.34109 0.36725 0.61678 0.0
H4466 H 0.6777 0.99066 0.64635 0.0
H4467 H 0.67233 0.96899 0.63224 0.0
H4468 H 0.68266 0.95597 0.68077 0.0
H4469 H 0.68804 0.97761 0.69503 0.0
H4470 H 0.69415 0.95127 0.65102 0.0
H4471 H 0.64925 0.94265 0.67005 0.0
H4472 H 0.63018 0.94748 0.67233 0.0
H4473 H 0.62487 0.94465 0.61585 0.0
H4474 H 0.64407 0.94 0.61321 0.0
H4475 H 0.66554 0.88071 0.62891 0.0
H4476 H 0.67085 0.90221 0.64343 0.0
H4477 H 0.6555 0.91325 0.59748 0.0
H4478 H 0.64993 0.89161 0.58305 0.0
H4479 H 0.64662 0.9191 0.6261 0.0
H4480 H 0.69128 0.92807 0.60644 0.0
H4481 H 0.71065 0.92373 0.60332 0.0
H4482 H 0.71691 0.92661 0.65966 0.0
H4483 H 0.69744 0.93077 0.66313 0.0
C4484 C 0.67888 0.98322 0.65403 0.0
C4485 C 0.68325 0.98585 0.67185 0.0
C4486 C 0.67575 0.97081 0.64595 0.0
C4487 C 0.67697 0.96082 0.65551 0.0
C4488 C 0.68162 0.96353 0.67318 0.0
C4489 C 0.68465 0.97589 0.68131 0.0
C4490 C 0.6733 0.94749 0.6471 0.0
C4491 C 0.68371 0.94413 0.64577 0.0
C4492 C 0.65978 0.93838 0.63985 0.0
C4493 C 0.64819 0.94111 0.64142 0.0
C4494 C 0.64409 0.94317 0.6581 0.0
C4495 C 0.63325 0.94586 0.65946 0.0
C4496 C 0.62634 0.94641 0.64424 0.0
C4497 C 0.63025 0.94424 0.62763 0.0
C4498 C 0.6411 0.94156 0.62619 0.0
C4499 C 0.66334 0.88775 0.62189 0.0
C4500 C 0.65737 0.8845 0.60481 0.0
C4501 C 0.66641 0.90005 0.63018 0.0
C4502 C 0.6638 0.90949 0.62145 0.0
C4503 C 0.65762 0.90615 0.60449 0.0
C4504 C 0.65442 0.89378 0.59627 0.0
C4505 C 0.66749 0.92283 0.62997 0.0
C4506 C 0.65707 0.92621 0.63133 0.0
C4507 C 0.68105 0.93203 0.6371 0.0
C4508 C 0.69281 0.9296 0.63505 0.0
C4509 C 0.69672 0.92767 0.61817 0.0
C4510 C 0.70772 0.92526 0.61634 0.0
C4511 C 0.71498 0.92486 0.63129 0.0
C4512 C 0.71126 0.9269 0.6481 0.0
C4513 C 0.70025 0.9293 0.65 0.0
H4514 H 0.7235 0.92299 0.62984 0.0
H4515 H 0.61795 0.94849 0.64533 0.0
H4516 H 0.01188 0.67924 0.64984 0.0
H4517 H 0.03582 0.69023 0.6384 0.0
H4518 H 0.04312 0.73037 0.65292 0.0
H4519 H 0.01904 0.7195 0.66334 0.0
H4520 H 0.05252 0.73239 0.62236 0.0
H4521 H 0.05711 0.71205 0.67631 0.0
H4522 H 0.05125 0.69306 0.69729 0.0
H4523 H 0.06099 0.67211 0.658 0.0
H4524 H 0.06674 0.6909 0.6367 0.0
H4525 H 0.12688 0.77235 0.62809 0.0
H4526 H 0.10361 0.75575 0.63953 0.0
H4527 H 0.09552 0.72903 0.59481 0.0
H4528 H 0.11855 0.74589 0.58269 0.0
H4529 H 0.08672 0.71851 0.6384 0.0
H4530 H 0.08015 0.73955 0.58398 0.0
H4531 H 0.08739 0.7601 0.56528 0.0
H4532 H 0.08248 0.78114 0.60919 0.0
H4533 H 0.07542 0.76076 0.6282 0.0
C4534 C 0.01866 0.69041 0.65064 0.0
C4535 C 0.01361 0.69854 0.65739 0.0
C4536 C 0.03236 0.69668 0.6442 0.0
C4537 C 0.04138 0.71115 0.64493 0.0
C4538 C 0.03638 0.7192 0.65208 0.0
C4539 C 0.02262 0.71299 0.65807 0.0
C4540 C 0.05582 0.71811 0.6376 0.0
C4541 C 0.05992 0.72929 0.626 0.0
C4542 C 0.06556 0.71405 0.64201 0.0
C4543 C 0.06221 0.70281 0.65486 0.0
C4544 C 0.05791 0.70335 0.67211 0.0
C4545 C 0.05463 0.69263 0.68406 0.0
C4546 C 0.05571 0.68137 0.67896 0.0
C4547 C 0.06013 0.68083 0.66192 0.0
C4548 C 0.06342 0.69151 0.64991 0.0
C4549 C 0.1202 0.76293 0.62067 0.0
C4550 C 0.12451 0.76059 0.60429 0.0
C4551 C 0.10699 0.75339 0.62737 0.0
C4552 C 0.09793 0.74123 0.61798 0.0
C4553 C 0.10247 0.73835 0.60226 0.0
C4554 C 0.11565 0.74799 0.5954 0.0
C4555 C 0.08315 0.73264 0.62347 0.0
C4556 C 0.07909 0.7213 0.63471 0.0
C4557 C 0.07345 0.73661 0.61899 0.0
C4558 C 0.0774 0.74872 0.60751 0.0
C4559 C 0.08073 0.74861 0.58966 0.0
C4560 C 0.08478 0.76021 0.57901 0.0
C4561 C 0.08543 0.77194 0.58606 0.0
C4562 C 0.08199 0.77206 0.60376 0.0
C4563 C 0.07796 0.76049 0.61446 0.0
H4564 H 0.08857 0.78091 0.5778 0.0
H4565 H 0.05317 0.67309 0.68823 0.0
H4566 H 0.98004 0.6399 0.71259 0.0
H4567 H 0.98452 0.62276 0.72558 0.0
H4568 H 0.97643 0.60227 0.67505 0.0
H4569 H 0.97193 0.61944 0.66185 0.0
H4570 H 0.96332 0.584 0.70342 0.0
H4571 H 0.00918 0.62183 0.68829 0.0
H4572 H 0.02855 0.64626 0.68777 0.0
H4573 H 0.03145 0.64644 0.74447 0.0
H4574 H 0.01195 0.62206 0.74535 0.0
H4575 H 0.9892 0.54093 0.72955 0.0
H4576 H 0.98552 0.55771 0.71371 0.0
H4577 H 0.99784 0.58333 0.76048 0.0
H4578 H 0.00168 0.56666 0.77631 0.0
H4579 H 0.00925 0.59892 0.73224 0.0
H4580 H 0.96302 0.56216 0.74808 0.0
H4581 H 0.94312 0.53802 0.74959 0.0
H4582 H 0.94036 0.53605 0.69287 0.0
H4583 H 0.96038 0.56014 0.69101 0.0
C4584 C 0.97916 0.63173 0.70421 0.0
C4585 C 0.97567 0.63107 0.68615 0.0
C4586 C 0.98178 0.62198 0.71166 0.0
C4587 C 0.98096 0.61135 0.70123 0.0
C4588 C 0.97716 0.61044 0.6833 0.0
C4589 C 0.97463 0.62027 0.67578 0.0
C4590 C 0.98409 0.60123 0.70914 0.0
C4591 C 0.97343 0.5872 0.70946 0.0
C4592 C 0.99718 0.60551 0.71739 0.0
C4593 C 0.00901 0.62014 0.71688 0.0
C4594 C 0.01387 0.6271 0.70065 0.0
C4595 C 0.02489 0.64094 0.7003 0.0
C4596 C 0.0312 0.6479 0.71608 0.0
C4597 C 0.02654 0.64103 0.73226 0.0
C4598 C 0.01552 0.6272 0.73269 0.0
C4599 C 0.99108 0.55013 0.73646 0.0
C4600 C 0.99567 0.55246 0.75419 0.0
C4601 C 0.98897 0.5597 0.7274 0.0
C4602 C 0.99122 0.5717 0.73597 0.0
C4603 C 0.99605 0.57416 0.75358 0.0
C4604 C 0.99826 0.56464 0.76261 0.0
C4605 C 0.98843 0.58164 0.72668 0.0
C4606 C 0.99916 0.59567 0.7261 0.0
C4607 C 0.97536 0.57737 0.71833 0.0
C4608 C 0.96329 0.5629 0.71941 0.0
C4609 C 0.95824 0.55655 0.73593 0.0
C4610 C 0.94692 0.54288 0.73685 0.0
C4611 C 0.9405 0.53549 0.72134 0.0
C4612 C 0.94536 0.54178 0.70487 0.0
C4613 C 0.95668 0.55544 0.70387 0.0
H4614 H 0.93174 0.52491 0.72207 0.0
H4615 H 0.03972 0.65862 0.7158 0.0
H4616 H 0.3542 0.35144 0.70567 0.0
H4617 H 0.36413 0.37497 0.71712 0.0
H4618 H 0.40536 0.38521 0.7004 0.0
H4619 H 0.39558 0.36153 0.68984 0.0
H4620 H 0.40752 0.39377 0.73165 0.0
H4621 H 0.38484 0.39751 0.67948 0.0
H4622 H 0.36505 0.39085 0.65881 0.0
H4623 H 0.34259 0.39747 0.69949 0.0
H4624 H 0.36215 0.40397 0.72049 0.0
H4625 H 0.44313 0.46685 0.73554 0.0
H4626 H 0.4283 0.44444 0.72113 0.0
H4627 H 0.39817 0.43179 0.76306 0.0
H4628 H 0.41327 0.45394 0.77815 0.0
H4629 H 0.38925 0.42479 0.72004 0.0
H4630 H 0.41248 0.41896 0.77251 0.0
H4631 H 0.4335 0.42678 0.79136 0.0
H4632 H 0.45613 0.42514 0.74676 0.0
H4633 H 0.43529 0.41753 0.7276 0.0
C4634 C 0.36536 0.35878 0.70428 0.0
C4635 C 0.37414 0.35465 0.69695 0.0
C4636 C 0.37102 0.37226 0.71075 0.0
C4637 C 0.38551 0.38196 0.70954 0.0
C4638 C 0.39417 0.37793 0.70161 0.0
C4639 C 0.38858 0.3644 0.69553 0.0
C4640 C 0.39189 0.39601 0.71751 0.0
C4641 C 0.40351 0.40051 0.72891 0.0
C4642 C 0.38662 0.40485 0.71429 0.0
C4643 C 0.37491 0.4011 0.70161 0.0
C4644 C 0.37564 0.39746 0.68406 0.0
C4645 C 0.36447 0.39372 0.67227 0.0
C4646 C 0.35256 0.3937 0.67785 0.0
C4647 C 0.35181 0.39747 0.6952 0.0
C4648 C 0.36295 0.40119 0.70705 0.0
C4649 C 0.43333 0.45935 0.74172 0.0
C4650 C 0.42955 0.46213 0.75821 0.0
C4651 C 0.42479 0.44663 0.73333 0.0
C4652 C 0.41219 0.43653 0.74107 0.0
C4653 C 0.40783 0.43955 0.75685 0.0
C4654 C 0.41649 0.45223 0.76543 0.0
C4655 C 0.40472 0.42229 0.7339 0.0
C4656 C 0.39303 0.41785 0.72272 0.0
C4657 C 0.40998 0.41352 0.73706 0.0
C4658 C 0.42241 0.41783 0.74862 0.0
C4659 C 0.42199 0.42039 0.76671 0.0
C4660 C 0.43385 0.42476 0.77745 0.0
C4661 C 0.44616 0.42649 0.77025 0.0
C4662 C 0.4466 0.42381 0.75231 0.0
C4663 C 0.43477 0.41946 0.74151 0.0
H4664 H 0.45534 0.42988 0.77858 0.0
H4665 H 0.34391 0.3908 0.66871 0.0
H4666 H 0.64421 0.99654 0.69999 0.0
H4667 H 0.61947 0.98406 0.70909 0.0
H4668 H 0.62133 0.02294 0.71426 0.0
H4669 H 0.64575 0.03536 0.7052 0.0
H4670 H 0.60813 0.98599 0.74044 0.0
H4671 H 0.59133 0.0197 0.7013 0.0
H4672 H 0.59588 0.03129 0.67232 0.0
H4673 H 0.60667 0.00302 0.65081 0.0
H4674 H 0.60199 0.99112 0.67957 0.0
H4675 H 0.55759 0.99333 0.78423 0.0
H4676 H 0.57738 0.99489 0.76881 0.0
H4677 H 0.55085 0.97465 0.72329 0.0
H4678 H 0.53119 0.97397 0.73819 0.0
H4679 H 0.57352 0.99548 0.71262 0.0
H4680 H 0.56424 0.95842 0.75075 0.0
H4681 H 0.559 0.94567 0.77893 0.0
H4682 H 0.59866 0.97737 0.80044 0.0
H4683 H 0.60408 0.99041 0.77247 0.0
C4684 C 0.63927 0.00239 0.70289 0.0
C4685 C 0.64695 0.01694 0.70187 0.0
C4686 C 0.62518 0.99526 0.70815 0.0
C4687 C 0.61854 0.00257 0.71218 0.0
C4688 C 0.62617 0.01706 0.71095 0.0
C4689 C 0.64018 0.02416 0.70585 0.0
C4690 C 0.60383 0.99539 0.71842 0.0
C4691 C 0.60046 0.98787 0.73427 0.0
C4692 C 0.59371 0.99755 0.71009 0.0
C4693 C 0.59636 0.00455 0.69265 0.0
C4694 C 0.59457 0.01589 0.69036 0.0
C4695 C 0.5972 0.02253 0.67397 0.0
C4696 C 0.60158 0.01791 0.65974 0.0
C4697 C 0.60332 0.00661 0.66185 0.0
C4698 C 0.60069 0.99993 0.67821 0.0
C4699 C 0.55594 0.98927 0.7709 0.0
C4700 C 0.54278 0.98366 0.76242 0.0
C4701 C 0.56724 0.98992 0.76219 0.0
C4702 C 0.5656 0.98468 0.74495 0.0
C4703 C 0.55238 0.9787 0.73662 0.0
C4704 C 0.5411 0.97822 0.74524 0.0
C4705 C 0.578 0.98663 0.73516 0.0
C4706 C 0.58098 0.99322 0.71863 0.0
C4707 C 0.58761 0.98335 0.74272 0.0
C4708 C 0.58454 0.97542 0.75949 0.0
C4709 C 0.57182 0.96271 0.7615 0.0
C4710 C 0.56883 0.95542 0.77744 0.0
C4711 C 0.57849 0.96071 0.79147 0.0
C4712 C 0.59119 0.97328 0.78956 0.0
C4713 C 0.59425 0.98061 0.77364 0.0
H4714 H 0.57613 0.95507 0.8038 0.0
H4715 H 0.60362 0.02307 0.64707 0.0
loop_
_geom_bond_atom_site_label_1
_geom_bond_atom_site_label_2
_geom_bond_distance
_geom_bond_site_symmetry_2
_ccdc_geom_bond_type
Zn0 O3 2.031 1_554 S
Zn0 O5 2.049 . S
Zn0 O10 2.067 1_554 S
Zn1 O2 1.962 1_455 S
Zn1 O4 1.986 . S
Zn1 O6 1.996 1_455 S
Zn1 O9 1.943 . S
O2 Zn1 1.962 1_655 S
O2 C7 1.254 . S
O3 Zn0 2.031 1_556 S
O3 C7 1.269 1_556 S
O4 Zn1 1.986 . S
O4 C11 1.262 . S
O5 Zn0 2.049 . S
O5 C13 1.260 . S
O6 Zn1 1.996 1_655 S
O6 C13 1.257 . S
C7 O2 1.254 . S
C7 O3 1.269 1_554 S
C8 O9 1.249 1_556 S
C8 O10 1.270 1_455 S
O9 Zn1 1.943 . S
O9 C8 1.249 1_554 S
O10 Zn0 2.067 1_556 S
O10 C8 1.270 1_655 S
C11 O4 1.262 . S
C11 O12 1.232 . S
O12 C11 1.232 . S
C13 O5 1.260 . S
C13 O6 1.257 . S
Zn14 O17 2.031 1_554 S
Zn14 O19 2.049 . S
Zn14 O24 2.067 1_554 S
Zn15 O16 1.962 . S
Zn15 O18 1.986 . S
Zn15 O20 1.996 . S
Zn15 O23 1.943 . S
O16 Zn15 1.962 . S
O16 C21 1.254 . S
O17 Zn14 2.031 1_556 S
O17 C21 1.269 1_556 S
O18 Zn15 1.986 . S
O18 C25 1.262 . S
O19 Zn14 2.049 . S
O19 C27 1.260 . S
O20 Zn15 1.996 . S
O20 C27 1.257 . S
C21 O16 1.254 . S
C21 O17 1.269 1_554 S
C22 O23 1.249 1_556 S
C22 O24 1.270 . S
O23 Zn15 1.943 . S
O23 C22 1.249 1_554 S
O24 Zn14 2.067 1_556 S
O24 C22 1.270 . S
C25 O18 1.262 . S
C25 O26 1.232 . S
O26 C25 1.232 . S
C27 O19 1.260 . S
C27 O20 1.257 . S
Zn28 O31 2.031 . S
Zn28 O33 2.049 1_554 S
Zn28 O38 2.112 . S
Zn29 O30 1.962 1_545 S
Zn29 O32 1.986 1_554 S
Zn29 O34 1.996 1_544 S
Zn29 O37 1.943 . S
O30 Zn29 1.962 1_565 S
O30 C35 1.254 . S
O31 Zn28 2.031 . S
O31 C35 1.269 . S
O32 Zn29 1.986 1_556 S
O32 C39 1.262 1_556 S
O33 Zn28 2.049 1_556 S
O33 C41 1.260 . S
O34 Zn29 1.996 1_566 S
O34 C41 1.257 . S
C35 O30 1.254 . S
C35 O31 1.269 . S
C36 O37 1.249 . S
C36 O38 1.189 1_545 S
O37 Zn29 1.943 . S
O37 C36 1.249 . S
O38 Zn28 2.112 . S
O38 C36 1.189 1_565 S
C39 O32 1.262 1_554 S
C39 O40 1.232 . S
O40 C39 1.232 . S
C41 O33 1.260 . S
C41 O34 1.257 . S
Zn42 O45 2.031 . S
Zn42 O47 2.049 1_554 S
Zn42 O52 2.067 . S
Zn43 O44 1.962 1_655 S
Zn43 O46 1.986 1_554 S
Zn43 O48 1.996 1_654 S
Zn43 O51 1.943 . S
O44 Zn43 1.962 1_455 S
O44 C49 1.254 . S
O45 Zn42 2.031 . S
O45 C49 1.269 . S
O46 Zn43 1.986 1_556 S
O46 C53 1.262 1_556 S
O47 Zn42 2.049 1_556 S
O47 C55 1.260 . S
O48 Zn43 1.996 1_456 S
O48 C55 1.257 . S
C49 O44 1.254 . S
C49 O45 1.269 . S
C50 O51 1.249 . S
C50 O52 1.270 1_655 S
O51 Zn43 1.943 . S
O51 C50 1.249 . S
O52 Zn42 2.067 . S
O52 C50 1.270 1_455 S
C53 O46 1.262 1_554 S
C53 O54 1.232 . S
O54 C53 1.232 . S
C55 O47 1.260 . S
C55 O48 1.257 . S
Zn56 O59 2.031 . S
Zn56 O61 2.049 1_554 S
Zn56 O66 2.067 . S
Zn57 O58 1.962 . S
Zn57 O60 1.986 1_554 S
Zn57 O62 1.996 1_554 S
Zn57 O65 1.943 . S
O58 Zn57 1.962 . S
O58 C63 1.254 . S
O59 Zn56 2.031 . S
O59 C63 1.269 . S
O60 Zn57 1.986 1_556 S
O60 C67 1.243 1_556 S
O61 Zn56 2.049 1_556 S
O61 C69 1.260 . S
O62 Zn57 1.996 1_556 S
O62 C69 1.257 . S
C63 O58 1.254 . S
C63 O59 1.269 . S
C64 O65 1.249 . S
C64 O66 1.270 . S
O65 Zn57 1.943 . S
O65 C64 1.249 . S
O66 Zn56 2.067 . S
O66 C64 1.270 . S
C67 O60 1.243 1_554 S
C67 O68 1.265 . S
O68 C67 1.265 . S
C69 O61 1.260 . S
C69 O62 1.257 . S
Zn70 O73 2.031 . S
Zn70 O75 2.049 . S
Zn70 O80 2.067 . S
Zn71 O72 1.962 1_565 S
Zn71 O74 1.986 . S
Zn71 O76 1.996 1_565 S
Zn71 O79 1.943 . S
O72 Zn71 1.962 1_545 S
O72 C77 1.254 . S
O73 Zn70 2.031 . S
O73 C77 1.269 . S
O74 Zn71 1.986 . S
O74 C81 1.262 . S
O75 Zn70 2.049 . S
O75 C83 1.260 . S
O76 Zn71 1.996 1_545 S
O76 C83 1.257 . S
C77 O72 1.254 . S
C77 O73 1.269 . S
C78 O79 1.249 1_556 S
C78 O80 1.270 1_566 S
O79 Zn71 1.943 . S
O79 C78 1.249 1_554 S
O80 Zn70 2.067 . S
O80 C78 1.270 1_544 S
C81 O74 1.262 . S
C81 O82 1.232 . S
O82 C81 1.232 . S
C83 O75 1.260 . S
C83 O76 1.257 . S
Zn84 O87 2.031 . S
Zn84 O89 2.049 . S
Zn84 O94 2.067 . S
Zn85 O86 1.962 . S
Zn85 O88 1.986 . S
Zn85 O90 1.996 . S
Zn85 O93 1.943 . S
O86 Zn85 1.962 . S
O86 C91 1.254 . S
O87 Zn84 2.031 . S
O87 C91 1.269 . S
O88 Zn85 1.986 . S
O88 C95 1.262 . S
O89 Zn84 2.049 . S
O89 C97 1.260 . S
O90 Zn85 1.996 . S
O90 C97 1.257 . S
C91 O86 1.254 . S
C91 O87 1.269 . S
C92 O93 1.249 . S
C92 O94 1.270 . S
O93 Zn85 1.943 . S
O93 C92 1.249 . S
O94 Zn84 2.067 . S
O94 C92 1.270 . S
C95 O88 1.262 . S
C95 O96 1.232 . S
O96 C95 1.232 . S
C97 O89 1.260 . S
C97 O90 1.257 . S
Zn98 O101 2.031 . S
Zn98 O103 2.049 . S
Zn98 O108 2.067 . S
Zn99 O100 1.962 . S
Zn99 O102 1.986 1_565 S
Zn99 O104 1.996 . S
Zn99 O107 1.943 . S
O100 Zn99 1.962 . S
O100 C105 1.254 . S
O101 Zn98 2.031 . S
O101 C105 1.269 . S
O102 Zn99 1.986 1_545 S
O102 C109 1.262 . S
O103 Zn98 2.049 . S
O103 C111 1.260 . S
O104 Zn99 1.996 . S
O104 C111 1.257 . S
C105 O100 1.254 . S
C105 O101 1.269 . S
C106 O107 1.249 . S
C106 O108 1.270 . S
O107 Zn99 1.943 . S
O107 C106 1.249 . S
O108 Zn98 2.067 . S
O108 C106 1.270 . S
C109 O102 1.262 . S
C109 O110 1.232 . S
O110 C109 1.232 . S
C111 O103 1.260 . S
C111 O104 1.257 . S
Zn112 O115 2.031 . S
Zn112 O117 2.049 . S
Zn112 O122 2.067 . S
Zn113 O114 1.962 1_455 S
Zn113 O116 1.986 . S
Zn113 O118 1.996 . S
Zn113 O121 1.943 . S
O114 Zn113 1.962 1_655 S
O114 C119 1.254 . S
O115 Zn112 2.031 . S
O115 C119 1.269 1_455 S
O116 Zn113 1.986 . S
O116 C123 1.262 . S
O117 Zn112 2.049 . S
O117 C125 1.260 . S
O118 Zn113 1.996 . S
O118 C125 1.257 . S
C119 O114 1.254 . S
C119 O115 1.269 1_655 S
C120 O121 1.249 . S
C120 O122 1.270 . S
O121 Zn113 1.943 . S
O121 C120 1.249 . S
O122 Zn112 2.067 . S
O122 C120 1.270 . S
C123 O116 1.262 . S
C123 O124 1.232 . S
O124 C123 1.232 . S
C125 O117 1.260 . S
C125 O118 1.257 . S
Zn126 O129 2.031 . S
Zn126 O131 2.049 . S
Zn126 O136 2.067 . S
Zn127 O128 1.962 1_565 S
Zn127 O130 1.986 . S
Zn127 O132 1.996 . S
Zn127 O135 1.943 . S
O128 Zn127 1.962 1_545 S
O128 C133 1.254 . S
O129 Zn126 2.031 . S
O129 C133 1.269 1_565 S
O130 Zn127 1.986 . S
O130 C137 1.262 . S
O131 Zn126 2.049 . S
O131 C139 1.260 . S
O132 Zn127 1.996 . S
O132 C139 1.257 . S
C133 O128 1.254 . S
C133 O129 1.269 1_545 S
C134 O135 1.249 . S
C134 O136 1.270 . S
O135 Zn127 1.943 . S
O135 C134 1.249 . S
O136 Zn126 2.067 . S
O136 C134 1.270 . S
C137 O130 1.262 . S
C137 O138 1.232 . S
O138 C137 1.232 . S
C139 O131 1.260 . S
C139 O132 1.257 . S
Zn140 O143 2.031 . S
Zn140 O145 2.049 . S
Zn140 O150 2.067 . S
Zn141 O142 1.962 1_455 S
Zn141 O144 1.986 . S
Zn141 O146 1.996 . S
Zn141 O149 1.943 . S
O142 Zn141 1.962 1_655 S
O142 C147 1.254 . S
O143 Zn140 2.031 . S
O143 C147 1.269 1_455 S
O144 Zn141 1.986 . S
O144 C151 1.262 . S
O145 Zn140 2.049 . S
O145 C153 1.260 . S
O146 Zn141 1.996 . S
O146 C153 1.257 . S
C147 O142 1.254 . S
C147 O143 1.269 1_655 S
C148 O149 1.249 . S
C148 O150 1.270 . S
O149 Zn141 1.943 . S
O149 C148 1.249 . S
O150 Zn140 2.067 . S
O150 C148 1.270 . S
C151 O144 1.262 . S
C151 O152 1.232 . S
O152 C151 1.232 . S
C153 O145 1.260 . S
C153 O146 1.257 . S
Zn154 O157 2.031 . S
Zn154 O159 2.049 . S
Zn154 O164 2.067 . S
Zn155 O156 1.962 . S
Zn155 O158 1.986 . S
Zn155 O160 1.996 . S
Zn155 O163 1.943 . S
O156 Zn155 1.962 . S
O156 C161 1.254 . S
O157 Zn154 2.031 . S
O157 C161 1.269 . S
O158 Zn155 1.986 . S
O158 C165 1.262 . S
O159 Zn154 2.049 . S
O159 C167 1.260 . S
O160 Zn155 1.996 . S
O160 C167 1.257 . S
C161 O156 1.254 . S
C161 O157 1.269 . S
C162 O163 1.249 . S
C162 O164 1.270 . S
O163 Zn155 1.943 . S
O163 C162 1.249 . S
O164 Zn154 2.067 . S
O164 C162 1.270 . S
C165 O158 1.262 . S
C165 O166 1.232 . S
O166 C165 1.232 . S
C167 O159 1.260 . S
C167 O160 1.257 . S
Zn168 O171 2.031 . S
Zn168 O173 2.049 . S
Zn168 O178 2.067 . S
Zn169 O170 1.967 1_545 S
Zn169 O172 1.986 . S
Zn169 O174 1.996 . S
Zn169 O177 1.943 . S
O170 Zn169 1.967 1_565 S
O170 C175 1.285 . S
O171 Zn168 2.031 . S
O171 C175 1.191 1_545 S
O172 Zn169 1.986 . S
O172 C179 1.262 . S
O173 Zn168 2.049 . S
O173 C181 1.260 . S
O174 Zn169 1.996 . S
O174 C181 1.257 . S
C175 O170 1.285 . S
C175 O171 1.191 1_565 S
C176 O177 1.249 . S
C176 O178 1.270 . S
O177 Zn169 1.943 . S
O177 C176 1.249 . S
O178 Zn168 2.067 . S
O178 C176 1.270 . S
C179 O172 1.262 . S
C179 O180 1.232 . S
O180 C179 1.232 . S
C181 O173 1.260 . S
C181 O174 1.257 . S
Zn182 O185 2.031 . S
Zn182 O187 2.049 . S
Zn182 O192 2.067 . S
Zn183 O184 1.962 1_655 S
Zn183 O186 1.986 . S
Zn183 O188 1.996 . S
Zn183 O191 1.943 . S
O184 Zn183 1.962 1_455 S
O184 C189 1.254 . S
O185 Zn182 2.031 . S
O185 C189 1.269 1_655 S
O186 Zn183 1.986 . S
O186 C193 1.262 . S
O187 Zn182 2.049 . S
O187 C195 1.260 . S
O188 Zn183 1.996 . S
O188 C195 1.257 . S
C189 O184 1.254 . S
C189 O185 1.269 1_455 S
C190 O191 1.249 . S
C190 O192 1.270 . S
O191 Zn183 1.943 . S
O191 C190 1.249 . S
O192 Zn182 2.067 . S
O192 C190 1.270 . S
C193 O186 1.262 . S
C193 O194 1.232 . S
O194 C193 1.232 . S
C195 O187 1.260 . S
C195 O188 1.257 . S
Zn196 O199 2.031 . S
Zn196 O201 2.049 . S
Zn196 O206 2.067 . S
Zn197 O198 1.962 . S
Zn197 O200 1.986 . S
Zn197 O202 1.996 . S
Zn197 O205 1.943 . S
O198 Zn197 1.962 . S
O198 C203 1.254 . S
O199 Zn196 2.031 . S
O199 C203 1.269 . S
O200 Zn197 1.986 . S
O200 C207 1.262 . S
O201 Zn196 2.049 . S
O201 C209 1.260 . S
O202 Zn197 1.996 . S
O202 C209 1.257 . S
C203 O198 1.254 . S
C203 O199 1.269 . S
C204 O205 1.249 . S
C204 O206 1.270 . S
O205 Zn197 1.943 . S
O205 C204 1.249 . S
O206 Zn196 2.067 . S
O206 C204 1.270 . S
C207 O200 1.262 . S
C207 O208 1.232 . S
O208 C207 1.232 . S
C209 O201 1.260 . S
C209 O202 1.257 . S
Zn210 O213 2.031 . S
Zn210 O215 2.049 . S
Zn210 O220 2.067 . S
Zn211 O212 1.962 . S
Zn211 O214 1.986 . S
Zn211 O216 1.996 . S
Zn211 O219 1.943 . S
O212 Zn211 1.962 . S
O212 C217 1.254 . S
O213 Zn210 2.031 . S
O213 C217 1.269 . S
O214 Zn211 1.986 . S
O214 C221 1.262 . S
O215 Zn210 2.049 . S
O215 C223 1.260 . S
O216 Zn211 1.996 . S
O216 C223 1.257 . S
C217 O212 1.254 . S
C217 O213 1.269 . S
C218 O219 1.249 . S
C218 O220 1.270 . S
O219 Zn211 1.943 . S
O219 C218 1.249 . S
O220 Zn210 2.067 . S
O220 C218 1.270 . S
C221 O214 1.262 . S
C221 O222 1.232 . S
O222 C221 1.232 . S
C223 O215 1.260 . S
C223 O216 1.257 . S
Zn224 O227 2.031 . S
Zn224 O229 2.049 . S
Zn224 O234 2.067 . S
Zn225 O226 1.962 . S
Zn225 O228 2.018 . S
Zn225 O230 1.996 . S
Zn225 O233 1.943 . S
O226 Zn225 1.962 . S
O226 C231 1.254 . S
O227 Zn224 2.031 . S
O227 C231 1.269 . S
O228 Zn225 2.018 . S
O228 C235 1.231 1_545 S
O229 Zn224 2.049 . S
O229 C237 1.260 . S
O230 Zn225 1.996 . S
O230 C237 1.257 . S
C231 O226 1.254 . S
C231 O227 1.269 . S
C232 O233 1.249 . S
C232 O234 1.270 . S
O233 Zn225 1.943 . S
O233 C232 1.249 . S
O234 Zn224 2.067 . S
O234 C232 1.270 . S
C235 O228 1.231 1_565 S
C235 O236 1.232 . S
O236 C235 1.232 . S
C237 O229 1.260 . S
C237 O230 1.257 . S
Zn238 O241 2.031 . S
Zn238 O243 2.049 . S
Zn238 O248 2.067 . S
Zn239 O240 1.962 1_655 S
Zn239 O242 1.986 . S
Zn239 O244 1.996 . S
Zn239 O247 1.943 . S
O240 Zn239 1.962 1_455 S
O240 C245 1.254 . S
O241 Zn238 2.031 . S
O241 C245 1.269 1_655 S
O242 Zn239 1.986 . S
O242 C249 1.262 . S
O243 Zn238 2.049 . S
O243 C251 1.260 . S
O244 Zn239 1.996 . S
O244 C251 1.257 . S
C245 O240 1.254 . S
C245 O241 1.269 1_455 S
C246 O247 1.249 . S
C246 O248 1.270 . S
O247 Zn239 1.943 . S
O247 C246 1.249 . S
O248 Zn238 2.067 . S
O248 C246 1.270 . S
C249 O242 1.262 . S
C249 O250 1.232 . S
O250 C249 1.232 . S
C251 O243 1.260 . S
C251 O244 1.257 . S
H252 C271 0.949 . S
H253 C272 0.950 . S
H254 C274 0.950 . S
H255 C275 0.950 . S
H256 C277 0.950 . S
H257 C280 0.950 . S
H258 C281 0.950 . S
H259 C283 0.951 . S
H260 C284 0.949 . S
H261 C286 0.949 . S
H262 C287 0.950 . S
H263 C289 0.950 . S
H264 C290 0.950 . S
H265 C292 0.950 . S
H266 C295 0.950 . S
H267 C296 0.950 . S
H268 C298 0.951 . S
H269 C299 0.949 . S
C270 C271 1.376 . S
C270 C275 1.386 . S
C270 C276 1.483 . S
C271 H252 0.949 . S
C271 C270 1.376 . S
C271 C272 1.397 . S
C272 H253 0.950 . S
C272 C271 1.397 . S
C272 C273 1.391 . S
C273 C272 1.391 . S
C273 C274 1.405 . S
C274 H254 0.950 . S
C274 C273 1.405 . S
C274 C275 1.367 . S
C275 H255 0.950 . S
C275 C270 1.386 . S
C275 C274 1.367 . S
C276 C270 1.483 . S
C276 C277 1.382 . S
C276 C278 1.403 . S
C277 H256 0.950 . S
C277 C276 1.382 . S
C277 C293 1.411 . S
C278 C276 1.403 . S
C278 C279 1.489 . S
C278 C292 1.411 . S
C279 C278 1.489 . S
C279 C280 1.383 . S
C279 C284 1.382 . S
C280 H257 0.950 . S
C280 C279 1.383 . S
C280 C281 1.395 . S
C281 H258 0.950 . S
C281 C280 1.395 . S
C281 C282 1.288 . S
C282 C281 1.288 . S
C282 C283 1.392 . S
C283 H259 0.951 . S
C283 C282 1.392 . S
C283 C284 1.392 . S
C284 H260 0.949 . S
C284 C279 1.382 . S
C284 C283 1.392 . S
C285 C286 1.376 . S
C285 C290 1.386 . S
C285 C291 1.483 . S
C286 H261 0.949 . S
C286 C285 1.376 . S
C286 C287 1.397 . S
C287 H262 0.950 . S
C287 C286 1.397 . S
C287 C288 1.391 . S
C288 C287 1.391 . S
C288 C289 1.405 . S
C289 H263 0.950 . S
C289 C288 1.405 . S
C289 C290 1.367 . S
C290 H264 0.950 . S
C290 C285 1.386 . S
C290 C289 1.367 . S
C291 C285 1.483 . S
C291 C292 1.382 . S
C291 C293 1.403 . S
C292 H265 0.950 . S
C292 C278 1.411 . S
C292 C291 1.382 . S
C293 C277 1.411 . S
C293 C291 1.403 . S
C293 C294 1.489 . S
C294 C293 1.489 . S
C294 C295 1.383 . S
C294 C299 1.382 . S
C295 H266 0.950 . S
C295 C294 1.383 . S
C295 C296 1.395 . S
C296 H267 0.950 . S
C296 C295 1.395 . S
C296 C297 1.288 . S
C297 C296 1.288 . S
C297 C298 1.392 . S
C298 H268 0.951 . S
C298 C297 1.392 . S
C298 C299 1.392 . S
C299 H269 0.949 . S
C299 C294 1.382 . S
C299 C298 1.392 . S
H300 C319 0.949 . S
H301 C320 0.950 . S
H302 C322 0.950 . S
H303 C323 0.950 . S
H304 C325 0.950 . S
H305 C328 0.950 . S
H306 C329 0.950 . S
H307 C331 0.951 . S
H308 C332 0.949 . S
H309 C334 0.949 . S
H310 C335 0.950 . S
H311 C337 0.950 . S
H312 C338 0.950 . S
H313 C340 0.950 . S
H314 C343 0.950 . S
H315 C344 0.950 . S
H316 C346 0.951 . S
H317 C347 0.949 . S
C318 C319 1.376 . S
C318 C323 1.386 . S
C318 C324 1.483 . S
C319 H300 0.949 . S
C319 C318 1.376 . S
C319 C320 1.397 . S
C320 H301 0.950 . S
C320 C319 1.397 . S
C320 C321 1.391 . S
C321 C320 1.391 . S
C321 C322 1.405 . S
C322 H302 0.950 . S
C322 C321 1.405 . S
C322 C323 1.367 . S
C323 H303 0.950 . S
C323 C318 1.386 . S
C323 C322 1.367 . S
C324 C318 1.483 . S
C324 C325 1.382 . S
C324 C326 1.403 . S
C325 H304 0.950 . S
C325 C324 1.382 . S
C325 C341 1.411 . S
C326 C324 1.403 . S
C326 C327 1.489 . S
C326 C340 1.411 . S
C327 C326 1.489 . S
C327 C328 1.383 . S
C327 C332 1.382 . S
C328 H305 0.950 . S
C328 C327 1.383 . S
C328 C329 1.395 . S
C329 H306 0.950 . S
C329 C328 1.395 . S
C329 C330 1.288 . S
C330 C329 1.288 . S
C330 C331 1.392 . S
C331 H307 0.951 . S
C331 C330 1.392 . S
C331 C332 1.392 . S
C332 H308 0.949 . S
C332 C327 1.382 . S
C332 C331 1.392 . S
C333 C334 1.376 . S
C333 C338 1.386 . S
C333 C339 1.483 . S
C334 H309 0.949 . S
C334 C333 1.376 . S
C334 C335 1.397 . S
C335 H310 0.950 . S
C335 C334 1.397 . S
C335 C336 1.391 . S
C336 C335 1.391 . S
C336 C337 1.405 . S
C337 H311 0.950 . S
C337 C336 1.405 . S
C337 C338 1.367 . S
C338 H312 0.950 . S
C338 C333 1.386 . S
C338 C337 1.367 . S
C339 C333 1.483 . S
C339 C340 1.382 . S
C339 C341 1.403 . S
C340 H313 0.950 . S
C340 C326 1.411 . S
C340 C339 1.382 . S
C341 C325 1.411 . S
C341 C339 1.403 . S
C341 C342 1.489 . S
C342 C341 1.489 . S
C342 C343 1.383 . S
C342 C347 1.382 . S
C343 H314 0.950 . S
C343 C342 1.383 . S
C343 C344 1.395 . S
C344 H315 0.950 . S
C344 C343 1.395 . S
C344 C345 1.288 . S
C345 C344 1.288 . S
C345 C346 1.392 . S
C346 H316 0.951 . S
C346 C345 1.392 . S
C346 C347 1.392 . S
C347 H317 0.949 . S
C347 C342 1.382 . S
C347 C346 1.392 . S
H348 C367 0.949 . S
H349 C368 0.950 . S
H350 C370 0.950 . S
H351 C371 0.950 . S
H352 C373 0.950 . S
H353 C376 0.950 . S
H354 C377 0.950 . S
H355 C379 0.951 . S
H356 C380 0.949 . S
H357 C382 0.949 . S
H358 C383 0.950 . S
H359 C385 0.950 . S
H360 C386 0.950 . S
H361 C388 0.950 . S
H362 C391 0.950 . S
H363 C392 0.950 . S
H364 C394 0.951 . S
H365 C395 0.949 . S
C366 C367 1.376 . S
C366 C371 1.386 . S
C366 C372 1.483 . S
C367 H348 0.949 . S
C367 C366 1.376 . S
C367 C368 1.397 . S
C368 H349 0.950 . S
C368 C367 1.397 . S
C368 C369 1.391 . S
C369 C368 1.391 . S
C369 C370 1.405 . S
C370 H350 0.950 . S
C370 C369 1.405 . S
C370 C371 1.367 . S
C371 H351 0.950 . S
C371 C366 1.386 . S
C371 C370 1.367 . S
C372 C366 1.483 . S
C372 C373 1.382 . S
C372 C374 1.403 . S
C373 H352 0.950 . S
C373 C372 1.382 . S
C373 C389 1.411 . S
C374 C372 1.403 . S
C374 C375 1.489 . S
C374 C388 1.411 . S
C375 C374 1.489 . S
C375 C376 1.383 . S
C375 C380 1.382 . S
C376 H353 0.950 . S
C376 C375 1.383 . S
C376 C377 1.395 . S
C377 H354 0.950 . S
C377 C376 1.395 . S
C377 C378 1.288 . S
C378 C377 1.288 . S
C378 C379 1.392 . S
C379 H355 0.951 . S
C379 C378 1.392 . S
C379 C380 1.392 . S
C380 H356 0.949 . S
C380 C375 1.382 . S
C380 C379 1.392 . S
C381 C382 1.376 . S
C381 C386 1.386 . S
C381 C387 1.483 . S
C382 H357 0.949 . S
C382 C381 1.376 . S
C382 C383 1.397 . S
C383 H358 0.950 . S
C383 C382 1.397 . S
C383 C384 1.391 . S
C384 C383 1.391 . S
C384 C385 1.405 . S
C385 H359 0.950 . S
C385 C384 1.405 . S
C385 C386 1.367 . S
C386 H360 0.950 . S
C386 C381 1.386 . S
C386 C385 1.367 . S
C387 C381 1.483 . S
C387 C388 1.382 . S
C387 C389 1.403 . S
C388 H361 0.950 . S
C388 C374 1.411 . S
C388 C387 1.382 . S
C389 C373 1.411 . S
C389 C387 1.403 . S
C389 C390 1.489 . S
C390 C389 1.489 . S
C390 C391 1.383 . S
C390 C395 1.382 . S
C391 H362 0.950 . S
C391 C390 1.383 . S
C391 C392 1.395 . S
C392 H363 0.950 . S
C392 C391 1.395 . S
C392 C393 1.288 . S
C393 C392 1.288 . S
C393 C394 1.392 . S
C394 H364 0.951 . S
C394 C393 1.392 . S
C394 C395 1.392 . S
C395 H365 0.949 . S
C395 C390 1.382 . S
C395 C394 1.392 . S
H396 C415 0.949 . S
H397 C416 0.950 . S
H398 C418 0.950 . S
H399 C419 0.950 . S
H400 C421 0.950 . S
H401 C424 0.950 . S
H402 C425 0.950 . S
H403 C427 0.951 . S
H404 C428 0.949 . S
H405 C430 0.949 . S
H406 C431 0.950 . S
H407 C433 0.950 . S
H408 C434 0.950 . S
H409 C436 0.950 . S
H410 C439 0.950 . S
H411 C440 0.950 . S
H412 C442 0.951 . S
H413 C443 0.949 . S
C414 C415 1.376 . S
C414 C419 1.386 . S
C414 C420 1.483 . S
C415 H396 0.949 . S
C415 C414 1.376 . S
C415 C416 1.397 . S
C416 H397 0.950 . S
C416 C415 1.397 . S
C416 C417 1.391 . S
C417 C416 1.391 . S
C417 C418 1.405 . S
C418 H398 0.950 . S
C418 C417 1.405 . S
C418 C419 1.367 . S
C419 H399 0.950 . S
C419 C414 1.386 . S
C419 C418 1.367 . S
C420 C414 1.483 . S
C420 C421 1.382 . S
C420 C422 1.403 . S
C421 H400 0.950 . S
C421 C420 1.382 . S
C421 C437 1.411 . S
C422 C420 1.403 . S
C422 C423 1.489 . S
C422 C436 1.411 . S
C423 C422 1.489 . S
C423 C424 1.383 . S
C423 C428 1.382 . S
C424 H401 0.950 . S
C424 C423 1.383 . S
C424 C425 1.395 . S
C425 H402 0.950 . S
C425 C424 1.395 . S
C425 C426 1.288 . S
C426 C425 1.288 . S
C426 C427 1.392 . S
C427 H403 0.951 . S
C427 C426 1.392 . S
C427 C428 1.392 . S
C428 H404 0.949 . S
C428 C423 1.382 . S
C428 C427 1.392 . S
C429 C430 1.376 . S
C429 C434 1.386 . S
C429 C435 1.483 . S
C430 H405 0.949 . S
C430 C429 1.376 . S
C430 C431 1.397 . S
C431 H406 0.950 . S
C431 C430 1.397 . S
C431 C432 1.391 . S
C432 C431 1.391 . S
C432 C433 1.405 . S
C433 H407 0.950 . S
C433 C432 1.405 . S
C433 C434 1.367 . S
C434 H408 0.950 . S
C434 C429 1.386 . S
C434 C433 1.367 . S
C435 C429 1.483 . S
C435 C436 1.382 . S
C435 C437 1.403 . S
C436 H409 0.950 . S
C436 C422 1.411 . S
C436 C435 1.382 . S
C437 C421 1.411 . S
C437 C435 1.403 . S
C437 C438 1.489 . S
C438 C437 1.489 . S
C438 C439 1.383 . S
C438 C443 1.382 . S
C439 H410 0.950 . S
C439 C438 1.383 . S
C439 C440 1.395 . S
C440 H411 0.950 . S
C440 C439 1.395 . S
C440 C441 1.288 . S
C441 C440 1.288 . S
C441 C442 1.392 . S
C442 H412 0.951 . S
C442 C441 1.392 . S
C442 C443 1.392 . S
C443 H413 0.949 . S
C443 C438 1.382 . S
C443 C442 1.392 . S
H444 C463 0.949 . S
H445 C464 0.950 . S
H446 C466 0.950 . S
H447 C467 0.950 . S
H448 C469 0.950 . S
H449 C472 0.950 . S
H450 C473 0.950 . S
H451 C475 0.951 . S
H452 C476 0.949 . S
H453 C478 0.949 . S
H454 C479 0.950 . S
H455 C481 0.950 . S
H456 C482 0.950 . S
H457 C484 0.950 . S
H458 C487 0.950 . S
H459 C488 0.950 . S
H460 C490 0.951 . S
H461 C491 0.949 . S
C462 C463 1.376 . S
C462 C467 1.386 . S
C462 C468 1.483 . S
C463 H444 0.949 . S
C463 C462 1.376 . S
C463 C464 1.397 . S
C464 H445 0.950 . S
C464 C463 1.397 . S
C464 C465 1.391 . S
C465 C464 1.391 . S
C465 C466 1.405 . S
C466 H446 0.950 . S
C466 C465 1.405 . S
C466 C467 1.367 . S
C467 H447 0.950 . S
C467 C462 1.386 . S
C467 C466 1.367 . S
C468 C462 1.483 . S
C468 C469 1.382 . S
C468 C470 1.403 . S
C469 H448 0.950 . S
C469 C468 1.382 . S
C469 C485 1.411 . S
C470 C468 1.403 . S
C470 C471 1.489 . S
C470 C484 1.411 . S
C471 C470 1.489 . S
C471 C472 1.383 . S
C471 C476 1.382 . S
C472 H449 0.950 . S
C472 C471 1.383 . S
C472 C473 1.395 . S
C473 H450 0.950 . S
C473 C472 1.395 . S
C473 C474 1.288 . S
C474 C473 1.288 . S
C474 C475 1.392 . S
C475 H451 0.951 . S
C475 C474 1.392 . S
C475 C476 1.392 . S
C476 H452 0.949 . S
C476 C471 1.382 . S
C476 C475 1.392 . S
C477 C478 1.376 . S
C477 C482 1.386 . S
C477 C483 1.483 . S
C478 H453 0.949 . S
C478 C477 1.376 . S
C478 C479 1.397 . S
C479 H454 0.950 . S
C479 C478 1.397 . S
C479 C480 1.391 . S
C480 C479 1.391 . S
C480 C481 1.405 . S
C481 H455 0.950 . S
C481 C480 1.405 . S
C481 C482 1.367 . S
C482 H456 0.950 . S
C482 C477 1.386 . S
C482 C481 1.367 . S
C483 C477 1.483 . S
C483 C484 1.382 . S
C483 C485 1.403 . S
C484 H457 0.950 . S
C484 C470 1.411 . S
C484 C483 1.382 . S
C485 C469 1.411 . S
C485 C483 1.403 . S
C485 C486 1.489 . S
C486 C485 1.489 . S
C486 C487 1.383 . S
C486 C491 1.382 . S
C487 H458 0.950 . S
C487 C486 1.383 . S
C487 C488 1.395 . S
C488 H459 0.950 . S
C488 C487 1.395 . S
C488 C489 1.288 . S
C489 C488 1.288 . S
C489 C490 1.392 . S
C490 H460 0.951 . S
C490 C489 1.392 . S
C490 C491 1.392 . S
C491 H461 0.949 . S
C491 C486 1.382 . S
C491 C490 1.392 . S
H492 C511 0.949 . S
H493 C512 0.950 . S
H494 C514 0.950 . S
H495 C515 0.950 . S
H496 C517 0.950 . S
H497 C520 0.950 . S
H498 C521 0.950 . S
H499 C523 0.951 . S
H500 C524 0.949 . S
H501 C526 0.949 . S
H502 C527 0.950 . S
H503 C529 0.950 . S
H504 C530 0.950 . S
H505 C532 0.950 . S
H506 C535 0.950 . S
H507 C536 0.950 . S
H508 C538 0.951 . S
H509 C539 0.949 . S
C510 C511 1.376 . S
C510 C515 1.386 . S
C510 C516 1.483 . S
C511 H492 0.949 . S
C511 C510 1.376 . S
C511 C512 1.397 . S
C512 H493 0.950 . S
C512 C511 1.397 . S
C512 C513 1.391 . S
C513 C512 1.391 . S
C513 C514 1.405 . S
C514 H494 0.950 . S
C514 C513 1.405 . S
C514 C515 1.367 . S
C515 H495 0.950 . S
C515 C510 1.386 . S
C515 C514 1.367 . S
C516 C510 1.483 . S
C516 C517 1.382 . S
C516 C518 1.403 . S
C517 H496 0.950 . S
C517 C516 1.382 . S
C517 C533 1.411 . S
C518 C516 1.403 . S
C518 C519 1.489 . S
C518 C532 1.411 . S
C519 C518 1.489 . S
C519 C520 1.383 . S
C519 C524 1.382 . S
C520 H497 0.950 . S
C520 C519 1.383 . S
C520 C521 1.395 . S
C521 H498 0.950 . S
C521 C520 1.395 . S
C521 C522 1.288 . S
C522 C521 1.288 . S
C522 C523 1.392 . S
C523 H499 0.951 . S
C523 C522 1.392 . S
C523 C524 1.392 . S
C524 H500 0.949 . S
C524 C519 1.382 . S
C524 C523 1.392 . S
C525 C526 1.376 . S
C525 C530 1.386 . S
C525 C531 1.483 . S
C526 H501 0.949 . S
C526 C525 1.376 . S
C526 C527 1.397 . S
C527 H502 0.950 . S
C527 C526 1.397 . S
C527 C528 1.391 . S
C528 C527 1.391 . S
C528 C529 1.405 . S
C529 H503 0.950 . S
C529 C528 1.405 . S
C529 C530 1.367 . S
C530 H504 0.950 . S
C530 C525 1.386 . S
C530 C529 1.367 . S
C531 C525 1.483 . S
C531 C532 1.382 . S
C531 C533 1.403 . S
C532 H505 0.950 . S
C532 C518 1.411 . S
C532 C531 1.382 . S
C533 C517 1.411 . S
C533 C531 1.403 . S
C533 C534 1.489 . S
C534 C533 1.489 . S
C534 C535 1.383 . S
C534 C539 1.382 . S
C535 H506 0.950 . S
C535 C534 1.383 . S
C535 C536 1.395 . S
C536 H507 0.950 . S
C536 C535 1.395 . S
C536 C537 1.288 . S
C537 C536 1.288 . S
C537 C538 1.392 . S
C538 H508 0.951 . S
C538 C537 1.392 . S
C538 C539 1.392 . S
C539 H509 0.949 . S
C539 C534 1.382 . S
C539 C538 1.392 . S
H540 C559 0.949 . S
H541 C560 0.950 . S
H542 C562 0.950 . S
H543 C563 0.950 . S
H544 C565 0.950 . S
H545 C568 0.950 . S
H546 C569 0.950 . S
H547 C571 0.951 . S
H548 C572 0.949 . S
H549 C574 0.949 . S
H550 C575 0.950 . S
H551 C577 0.950 . S
H552 C578 0.950 . S
H553 C580 0.950 . S
H554 C583 0.950 . S
H555 C584 0.950 . S
H556 C586 0.951 . S
H557 C587 0.949 . S
C558 C559 1.376 . S
C558 C563 1.386 . S
C558 C564 1.483 . S
C559 H540 0.949 . S
C559 C558 1.376 . S
C559 C560 1.397 . S
C560 H541 0.950 . S
C560 C559 1.397 . S
C560 C561 1.391 . S
C561 C560 1.391 . S
C561 C562 1.405 . S
C562 H542 0.950 . S
C562 C561 1.405 . S
C562 C563 1.367 . S
C563 H543 0.950 . S
C563 C558 1.386 . S
C563 C562 1.367 . S
C564 C558 1.483 . S
C564 C565 1.382 . S
C564 C566 1.403 . S
C565 H544 0.950 . S
C565 C564 1.382 . S
C565 C581 1.411 . S
C566 C564 1.403 . S
C566 C567 1.489 . S
C566 C580 1.411 . S
C567 C566 1.489 . S
C567 C568 1.383 . S
C567 C572 1.382 . S
C568 H545 0.950 . S
C568 C567 1.383 . S
C568 C569 1.395 . S
C569 H546 0.950 . S
C569 C568 1.395 . S
C569 C570 1.288 . S
C570 C569 1.288 . S
C570 C571 1.392 . S
C571 H547 0.951 . S
C571 C570 1.392 . S
C571 C572 1.392 . S
C572 H548 0.949 . S
C572 C567 1.382 . S
C572 C571 1.392 . S
C573 C574 1.376 . S
C573 C578 1.386 . S
C573 C579 1.483 . S
C574 H549 0.949 . S
C574 C573 1.376 . S
C574 C575 1.397 . S
C575 H550 0.950 . S
C575 C574 1.397 . S
C575 C576 1.391 . S
C576 C575 1.391 . S
C576 C577 1.405 . S
C577 H551 0.950 . S
C577 C576 1.405 . S
C577 C578 1.367 . S
C578 H552 0.950 . S
C578 C573 1.386 . S
C578 C577 1.367 . S
C579 C573 1.483 . S
C579 C580 1.382 . S
C579 C581 1.403 . S
C580 H553 0.950 . S
C580 C566 1.411 . S
C580 C579 1.382 . S
C581 C565 1.411 . S
C581 C579 1.403 . S
C581 C582 1.489 . S
C582 C581 1.489 . S
C582 C583 1.383 . S
C582 C587 1.382 . S
C583 H554 0.950 . S
C583 C582 1.383 . S
C583 C584 1.395 . S
C584 H555 0.950 . S
C584 C583 1.395 . S
C584 C585 1.288 . S
C585 C584 1.288 . S
C585 C586 1.392 . S
C586 H556 0.951 . S
C586 C585 1.392 . S
C586 C587 1.392 . S
C587 H557 0.949 . S
C587 C582 1.382 . S
C587 C586 1.392 . S
H588 C607 0.949 . S
H589 C608 0.950 . S
H590 C610 0.950 . S
H591 C611 0.950 . S
H592 C613 0.950 . S
H593 C616 0.950 . S
H594 C617 0.950 . S
H595 C619 0.951 . S
H596 C620 0.949 . S
H597 C622 0.949 . S
H598 C623 0.950 . S
H599 C625 0.950 . S
H600 C626 0.950 . S
H601 C628 0.950 . S
H602 C631 0.950 . S
H603 C632 0.950 . S
H604 C634 0.951 . S
H605 C635 0.949 . S
C606 C607 1.376 . S
C606 C611 1.386 . S
C606 C612 1.483 . S
C607 H588 0.949 . S
C607 C606 1.376 . S
C607 C608 1.397 . S
C608 H589 0.950 . S
C608 C607 1.397 . S
C608 C609 1.391 . S
C609 C608 1.391 . S
C609 C610 1.405 . S
C610 H590 0.950 . S
C610 C609 1.405 . S
C610 C611 1.367 . S
C611 H591 0.950 . S
C611 C606 1.386 . S
C611 C610 1.367 . S
C612 C606 1.483 . S
C612 C613 1.382 . S
C612 C614 1.403 . S
C613 H592 0.950 . S
C613 C612 1.382 . S
C613 C629 1.411 . S
C614 C612 1.403 . S
C614 C615 1.489 . S
C614 C628 1.411 . S
C615 C614 1.489 . S
C615 C616 1.383 . S
C615 C620 1.382 . S
C616 H593 0.950 . S
C616 C615 1.383 . S
C616 C617 1.395 . S
C617 H594 0.950 . S
C617 C616 1.395 . S
C617 C618 1.288 . S
C618 C617 1.288 . S
C618 C619 1.392 . S
C619 H595 0.951 . S
C619 C618 1.392 . S
C619 C620 1.392 . S
C620 H596 0.949 . S
C620 C615 1.382 . S
C620 C619 1.392 . S
C621 C622 1.376 . S
C621 C626 1.386 . S
C621 C627 1.483 . S
C622 H597 0.949 . S
C622 C621 1.376 . S
C622 C623 1.397 . S
C623 H598 0.950 . S
C623 C622 1.397 . S
C623 C624 1.391 . S
C624 C623 1.391 . S
C624 C625 1.405 . S
C625 H599 0.950 . S
C625 C624 1.405 . S
C625 C626 1.367 . S
C626 H600 0.950 . S
C626 C621 1.386 . S
C626 C625 1.367 . S
C627 C621 1.483 . S
C627 C628 1.382 . S
C627 C629 1.403 . S
C628 H601 0.950 . S
C628 C614 1.411 . S
C628 C627 1.382 . S
C629 C613 1.411 . S
C629 C627 1.403 . S
C629 C630 1.489 . S
C630 C629 1.489 . S
C630 C631 1.383 . S
C630 C635 1.382 . S
C631 H602 0.950 . S
C631 C630 1.383 . S
C631 C632 1.395 . S
C632 H603 0.950 . S
C632 C631 1.395 . S
C632 C633 1.288 . S
C633 C632 1.288 . S
C633 C634 1.392 . S
C634 H604 0.951 . S
C634 C633 1.392 . S
C634 C635 1.392 . S
C635 H605 0.949 . S
C635 C630 1.382 . S
C635 C634 1.392 . S
H636 C655 0.949 . S
H637 C656 0.950 . S
H638 C658 0.950 . S
H639 C659 0.950 . S
H640 C661 0.950 . S
H641 C664 0.950 . S
H642 C665 0.950 . S
H643 C667 0.951 . S
H644 C668 0.949 . S
H645 C670 0.949 . S
H646 C671 0.950 . S
H647 C673 0.950 . S
H648 C674 0.950 . S
H649 C676 0.950 . S
H650 C679 0.950 . S
H651 C680 0.950 . S
H652 C682 0.951 . S
H653 C683 0.949 . S
C654 C655 1.376 . S
C654 C659 1.386 . S
C654 C660 1.483 . S
C655 H636 0.949 . S
C655 C654 1.376 . S
C655 C656 1.397 . S
C656 H637 0.950 . S
C656 C655 1.397 . S
C656 C657 1.391 . S
C657 C656 1.391 . S
C657 C658 1.405 . S
C658 H638 0.950 . S
C658 C657 1.405 . S
C658 C659 1.367 . S
C659 H639 0.950 . S
C659 C654 1.386 . S
C659 C658 1.367 . S
C660 C654 1.483 . S
C660 C661 1.382 . S
C660 C662 1.403 . S
C661 H640 0.950 . S
C661 C660 1.382 . S
C661 C677 1.411 . S
C662 C660 1.403 . S
C662 C663 1.489 . S
C662 C676 1.411 . S
C663 C662 1.489 . S
C663 C664 1.383 . S
C663 C668 1.382 . S
C664 H641 0.950 . S
C664 C663 1.383 . S
C664 C665 1.395 . S
C665 H642 0.950 . S
C665 C664 1.395 . S
C665 C666 1.288 . S
C666 C665 1.288 . S
C666 C667 1.392 . S
C667 H643 0.951 . S
C667 C666 1.392 . S
C667 C668 1.392 . S
C668 H644 0.949 . S
C668 C663 1.382 . S
C668 C667 1.392 . S
C669 C670 1.376 . S
C669 C674 1.386 . S
C669 C675 1.483 . S
C670 H645 0.949 . S
C670 C669 1.376 . S
C670 C671 1.397 . S
C671 H646 0.950 . S
C671 C670 1.397 . S
C671 C672 1.391 . S
C672 C671 1.391 . S
C672 C673 1.405 . S
C673 H647 0.950 . S
C673 C672 1.405 . S
C673 C674 1.367 . S
C674 H648 0.950 . S
C674 C669 1.386 . S
C674 C673 1.367 . S
C675 C669 1.483 . S
C675 C676 1.382 . S
C675 C677 1.403 . S
C676 H649 0.950 . S
C676 C662 1.411 . S
C676 C675 1.382 . S
C677 C661 1.411 . S
C677 C675 1.403 . S
C677 C678 1.489 . S
C678 C677 1.489 . S
C678 C679 1.383 . S
C678 C683 1.382 . S
C679 H650 0.950 . S
C679 C678 1.383 . S
C679 C680 1.395 . S
C680 H651 0.950 . S
C680 C679 1.395 . S
C680 C681 1.288 . S
C681 C680 1.288 . S
C681 C682 1.392 . S
C682 H652 0.951 . S
C682 C681 1.392 . S
C682 C683 1.392 . S
C683 H653 0.949 . S
C683 C678 1.382 . S
C683 C682 1.392 . S
H684 C703 0.949 . S
H685 C704 0.950 . S
H686 C706 0.950 . S
H687 C707 0.950 . S
H688 C709 0.950 . S
H689 C712 0.950 . S
H690 C713 0.950 . S
H691 C715 0.951 . S
H692 C716 0.949 . S
H693 C718 0.949 . S
H694 C719 0.950 . S
H695 C721 0.950 . S
H696 C722 0.950 . S
H697 C724 0.950 . S
H698 C727 0.950 . S
H699 C728 0.950 . S
H700 C730 0.951 . S
H701 C731 0.949 . S
C702 C703 1.376 . S
C702 C707 1.386 1_655 S
C702 C708 1.483 . S
C703 H684 0.949 . S
C703 C702 1.376 . S
C703 C704 1.397 . S
C704 H685 0.950 . S
C704 C703 1.397 . S
C704 C705 1.391 . S
C705 C704 1.391 . S
C705 C706 1.405 1_655 S
C706 H686 0.950 . S
C706 C705 1.405 1_455 S
C706 C707 1.367 . S
C707 H687 0.950 . S
C707 C702 1.386 1_455 S
C707 C706 1.367 . S
C708 C702 1.483 . S
C708 C709 1.382 . S
C708 C710 1.403 1_655 S
C709 H688 0.950 . S
C709 C708 1.382 . S
C709 C725 1.411 . S
C710 C708 1.403 1_455 S
C710 C711 1.489 . S
C710 C724 1.411 . S
C711 C710 1.489 . S
C711 C712 1.383 1_455 S
C711 C716 1.382 . S
C712 H689 0.950 . S
C712 C711 1.383 1_655 S
C712 C713 1.395 . S
C713 H690 0.950 . S
C713 C712 1.395 . S
C713 C714 1.288 1_655 S
C714 C713 1.288 1_455 S
C714 C715 1.392 . S
C715 H691 0.951 . S
C715 C714 1.392 . S
C715 C716 1.392 . S
C716 H692 0.949 . S
C716 C711 1.382 . S
C716 C715 1.392 . S
C717 C718 1.376 . S
C717 C722 1.386 1_455 S
C717 C723 1.483 . S
C718 H693 0.949 . S
C718 C717 1.376 . S
C718 C719 1.397 . S
C719 H694 0.950 . S
C719 C718 1.397 . S
C719 C720 1.391 . S
C720 C719 1.391 . S
C720 C721 1.405 1_455 S
C721 H695 0.950 . S
C721 C720 1.405 1_655 S
C721 C722 1.367 . S
C722 H696 0.950 . S
C722 C717 1.386 1_655 S
C722 C721 1.367 . S
C723 C717 1.483 . S
C723 C724 1.382 . S
C723 C725 1.403 1_455 S
C724 H697 0.950 . S
C724 C710 1.411 . S
C724 C723 1.382 . S
C725 C709 1.411 . S
C725 C723 1.403 1_655 S
C725 C726 1.489 . S
C726 C725 1.489 . S
C726 C727 1.383 1_655 S
C726 C731 1.382 . S
C727 H698 0.950 . S
C727 C726 1.383 1_455 S
C727 C728 1.395 . S
C728 H699 0.950 . S
C728 C727 1.395 . S
C728 C729 1.288 1_455 S
C729 C728 1.288 1_655 S
C729 C730 1.392 . S
C730 H700 0.951 . S
C730 C729 1.392 . S
C730 C731 1.392 . S
C731 H701 0.949 . S
C731 C726 1.382 . S
C731 C730 1.392 . S
H732 C751 0.949 . S
H733 C752 0.950 . S
H734 C754 0.950 . S
H735 C755 0.950 . S
H736 C757 0.950 . S
H737 C760 0.950 . S
H738 C761 0.950 . S
H739 C763 0.951 . S
H740 C764 0.949 . S
H741 C766 0.949 . S
H742 C767 0.950 . S
H743 C769 0.950 . S
H744 C770 0.950 . S
H745 C772 0.950 . S
H746 C775 0.950 . S
H747 C776 0.950 . S
H748 C778 0.951 . S
H749 C779 0.949 . S
C750 C751 1.376 . S
C750 C755 1.386 . S
C750 C756 1.483 . S
C751 H732 0.949 . S
C751 C750 1.376 . S
C751 C752 1.397 . S
C752 H733 0.950 . S
C752 C751 1.397 . S
C752 C753 1.391 . S
C753 C752 1.391 . S
C753 C754 1.405 . S
C754 H734 0.950 . S
C754 C753 1.405 . S
C754 C755 1.367 . S
C755 H735 0.950 . S
C755 C750 1.386 . S
C755 C754 1.367 . S
C756 C750 1.483 . S
C756 C757 1.382 . S
C756 C758 1.403 . S
C757 H736 0.950 . S
C757 C756 1.382 . S
C757 C773 1.411 . S
C758 C756 1.403 . S
C758 C759 1.489 . S
C758 C772 1.411 . S
C759 C758 1.489 . S
C759 C760 1.383 . S
C759 C764 1.382 . S
C760 H737 0.950 . S
C760 C759 1.383 . S
C760 C761 1.395 . S
C761 H738 0.950 . S
C761 C760 1.395 . S
C761 C762 1.288 . S
C762 C761 1.288 . S
C762 C763 1.392 . S
C763 H739 0.951 . S
C763 C762 1.392 . S
C763 C764 1.392 . S
C764 H740 0.949 . S
C764 C759 1.382 . S
C764 C763 1.392 . S
C765 C766 1.376 . S
C765 C770 1.386 . S
C765 C771 1.483 . S
C766 H741 0.949 . S
C766 C765 1.376 . S
C766 C767 1.397 . S
C767 H742 0.950 . S
C767 C766 1.397 . S
C767 C768 1.391 . S
C768 C767 1.391 . S
C768 C769 1.405 . S
C769 H743 0.950 . S
C769 C768 1.405 . S
C769 C770 1.367 . S
C770 H744 0.950 . S
C770 C765 1.386 . S
C770 C769 1.367 . S
C771 C765 1.483 . S
C771 C772 1.382 . S
C771 C773 1.403 . S
C772 H745 0.950 . S
C772 C758 1.411 . S
C772 C771 1.382 . S
C773 C757 1.411 . S
C773 C771 1.403 . S
C773 C774 1.489 . S
C774 C773 1.489 . S
C774 C775 1.383 . S
C774 C779 1.382 . S
C775 H746 0.950 . S
C775 C774 1.383 . S
C775 C776 1.395 . S
C776 H747 0.950 . S
C776 C775 1.395 . S
C776 C777 1.288 . S
C777 C776 1.288 . S
C777 C778 1.392 . S
C778 H748 0.951 . S
C778 C777 1.392 . S
C778 C779 1.392 . S
C779 H749 0.949 . S
C779 C774 1.382 . S
C779 C778 1.392 . S
H780 C799 0.949 . S
H781 C800 0.950 . S
H782 C802 0.950 . S
H783 C803 0.950 . S
H784 C805 0.950 . S
H785 C808 0.950 . S
H786 C809 0.950 . S
H787 C811 0.951 . S
H788 C812 0.949 . S
H789 C814 0.949 . S
H790 C815 0.950 . S
H791 C817 0.950 . S
H792 C818 0.950 . S
H793 C820 0.950 . S
H794 C823 0.950 . S
H795 C824 0.950 . S
H796 C826 0.951 . S
H797 C827 0.949 . S
C798 C799 1.376 . S
C798 C803 1.386 1_545 S
C798 C804 1.483 . S
C799 H780 0.949 . S
C799 C798 1.376 . S
C799 C800 1.397 . S
C800 H781 0.950 . S
C800 C799 1.397 . S
C800 C801 1.391 . S
C801 C800 1.391 . S
C801 C802 1.405 1_545 S
C802 H782 0.950 . S
C802 C801 1.405 1_565 S
C802 C803 1.367 . S
C803 H783 0.950 . S
C803 C798 1.386 1_565 S
C803 C802 1.367 . S
C804 C798 1.483 . S
C804 C805 1.382 . S
C804 C806 1.403 1_545 S
C805 H784 0.950 . S
C805 C804 1.382 . S
C805 C821 1.411 . S
C806 C804 1.403 1_565 S
C806 C807 1.489 . S
C806 C820 1.411 . S
C807 C806 1.489 . S
C807 C808 1.383 1_565 S
C807 C812 1.382 . S
C808 H785 0.950 . S
C808 C807 1.383 1_545 S
C808 C809 1.395 . S
C809 H786 0.950 . S
C809 C808 1.395 . S
C809 C810 1.288 1_545 S
C810 C809 1.288 1_565 S
C810 C811 1.392 . S
C811 H787 0.951 . S
C811 C810 1.392 . S
C811 C812 1.392 . S
C812 H788 0.949 . S
C812 C807 1.382 . S
C812 C811 1.392 . S
C813 C814 1.376 . S
C813 C818 1.386 1_565 S
C813 C819 1.483 . S
C814 H789 0.949 . S
C814 C813 1.376 . S
C814 C815 1.397 . S
C815 H790 0.950 . S
C815 C814 1.397 . S
C815 C816 1.391 . S
C816 C815 1.391 . S
C816 C817 1.405 1_565 S
C817 H791 0.950 . S
C817 C816 1.405 1_545 S
C817 C818 1.367 . S
C818 H792 0.950 . S
C818 C813 1.386 1_545 S
C818 C817 1.367 . S
C819 C813 1.483 . S
C819 C820 1.382 . S
C819 C821 1.403 1_565 S
C820 H793 0.950 . S
C820 C806 1.411 . S
C820 C819 1.382 . S
C821 C805 1.411 . S
C821 C819 1.403 1_545 S
C821 C822 1.489 . S
C822 C821 1.489 . S
C822 C823 1.383 1_545 S
C822 C827 1.382 . S
C823 H794 0.950 . S
C823 C822 1.383 1_565 S
C823 C824 1.395 . S
C824 H795 0.950 . S
C824 C823 1.395 . S
C824 C825 1.288 1_565 S
C825 C824 1.288 1_545 S
C825 C826 1.392 . S
C826 H796 0.951 . S
C826 C825 1.392 . S
C826 C827 1.392 . S
C827 H797 0.949 . S
C827 C822 1.382 . S
C827 C826 1.392 . S
H828 C847 0.949 . S
H829 C848 0.950 . S
H830 C850 0.950 . S
H831 C851 0.950 . S
H832 C853 0.950 . S
H833 C856 0.950 . S
H834 C857 0.950 . S
H835 C859 0.951 . S
H836 C860 0.949 . S
H837 C862 0.949 . S
H838 C863 0.950 . S
H839 C865 0.950 . S
H840 C866 0.950 . S
H841 C868 0.950 . S
H842 C871 0.950 . S
H843 C872 0.950 . S
H844 C874 0.951 . S
H845 C875 0.949 . S
C846 C847 1.414 . S
C846 C851 1.370 1_545 S
C846 C852 1.497 . S
C847 H828 0.949 . S
C847 C846 1.414 . S
C847 C848 1.397 . S
C848 H829 0.950 . S
C848 C847 1.397 . S
C848 C849 1.366 1_545 S
C849 C848 1.366 1_565 S
C849 C850 1.461 . S
C850 H830 0.950 . S
C850 C849 1.461 . S
C850 C851 1.367 . S
C851 H831 0.950 . S
C851 C846 1.370 1_565 S
C851 C850 1.367 . S
C852 C846 1.497 . S
C852 C853 1.349 . S
C852 C854 1.398 1_545 S
C853 H832 0.950 . S
C853 C852 1.349 . S
C853 C869 1.438 . S
C854 C852 1.398 1_565 S
C854 C855 1.476 . S
C854 C868 1.426 . S
C855 C854 1.476 . S
C855 C856 1.384 1_565 S
C855 C860 1.381 . S
C856 H833 0.950 . S
C856 C855 1.384 1_545 S
C856 C857 1.395 . S
C857 H834 0.950 . S
C857 C856 1.395 . S
C857 C858 1.288 . S
C858 C857 1.288 . S
C858 C859 1.392 1_545 S
C859 H835 0.951 . S
C859 C858 1.392 1_565 S
C859 C860 1.392 . S
C860 H836 0.949 . S
C860 C855 1.381 . S
C860 C859 1.392 . S
C861 C862 1.397 . S
C861 C866 1.377 1_565 S
C861 C867 1.497 . S
C862 H837 0.949 . S
C862 C861 1.397 . S
C862 C863 1.397 . S
C863 H838 0.950 . S
C863 C862 1.397 . S
C863 C864 1.359 1_565 S
C864 C863 1.359 1_545 S
C864 C865 1.478 . S
C865 H839 0.950 . S
C865 C864 1.478 . S
C865 C866 1.367 . S
C866 H840 0.950 . S
C866 C861 1.377 1_545 S
C866 C865 1.367 . S
C867 C861 1.497 . S
C867 C868 1.357 . S
C867 C869 1.398 1_565 S
C868 H841 0.950 . S
C868 C854 1.426 . S
C868 C867 1.357 . S
C869 C853 1.438 . S
C869 C867 1.398 1_545 S
C869 C870 1.476 . S
C870 C869 1.476 . S
C870 C871 1.362 1_545 S
C870 C875 1.392 . S
C871 H842 0.950 . S
C871 C870 1.362 1_565 S
C871 C872 1.395 . S
C872 H843 0.950 . S
C872 C871 1.395 . S
C872 C873 1.288 . S
C873 C872 1.288 . S
C873 C874 1.392 1_565 S
C874 H844 0.951 . S
C874 C873 1.392 1_545 S
C874 C875 1.392 . S
C875 H845 0.949 . S
C875 C870 1.392 . S
C875 C874 1.392 . S
H876 C895 0.949 . S
H877 C896 0.950 . S
H878 C898 0.950 . S
H879 C899 0.950 . S
H880 C901 0.950 . S
H881 C904 0.950 . S
H882 C905 0.950 . S
H883 C907 0.951 . S
H884 C908 0.949 . S
H885 C910 0.949 . S
H886 C911 0.950 . S
H887 C913 0.950 . S
H888 C914 0.950 . S
H889 C916 0.950 . S
H890 C919 0.950 . S
H891 C920 0.950 . S
H892 C922 0.951 . S
H893 C923 0.949 . S
C894 C895 1.376 . S
C894 C899 1.386 1_455 S
C894 C900 1.483 . S
C895 H876 0.949 . S
C895 C894 1.376 . S
C895 C896 1.397 . S
C896 H877 0.950 . S
C896 C895 1.397 . S
C896 C897 1.391 . S
C897 C896 1.391 . S
C897 C898 1.405 1_455 S
C898 H878 0.950 . S
C898 C897 1.405 1_655 S
C898 C899 1.367 . S
C899 H879 0.950 . S
C899 C894 1.386 1_655 S
C899 C898 1.367 . S
C900 C894 1.483 . S
C900 C901 1.382 . S
C900 C902 1.403 1_455 S
C901 H880 0.950 . S
C901 C900 1.382 . S
C901 C917 1.411 . S
C902 C900 1.403 1_655 S
C902 C903 1.489 . S
C902 C916 1.411 . S
C903 C902 1.489 . S
C903 C904 1.383 1_655 S
C903 C908 1.382 . S
C904 H881 0.950 . S
C904 C903 1.383 1_455 S
C904 C905 1.395 . S
C905 H882 0.950 . S
C905 C904 1.395 . S
C905 C906 1.288 1_455 S
C906 C905 1.288 1_655 S
C906 C907 1.392 . S
C907 H883 0.951 . S
C907 C906 1.392 . S
C907 C908 1.392 . S
C908 H884 0.949 . S
C908 C903 1.382 . S
C908 C907 1.392 . S
C909 C910 1.376 . S
C909 C914 1.386 1_655 S
C909 C915 1.483 . S
C910 H885 0.949 . S
C910 C909 1.376 . S
C910 C911 1.397 . S
C911 H886 0.950 . S
C911 C910 1.397 . S
C911 C912 1.391 . S
C912 C911 1.391 . S
C912 C913 1.405 1_655 S
C913 H887 0.950 . S
C913 C912 1.405 1_455 S
C913 C914 1.367 . S
C914 H888 0.950 . S
C914 C909 1.386 1_455 S
C914 C913 1.367 . S
C915 C909 1.483 . S
C915 C916 1.382 . S
C915 C917 1.403 1_655 S
C916 H889 0.950 . S
C916 C902 1.411 . S
C916 C915 1.382 . S
C917 C901 1.411 . S
C917 C915 1.403 1_455 S
C917 C918 1.489 . S
C918 C917 1.489 . S
C918 C919 1.383 1_455 S
C918 C923 1.382 . S
C919 H890 0.950 . S
C919 C918 1.383 1_655 S
C919 C920 1.395 . S
C920 H891 0.950 . S
C920 C919 1.395 . S
C920 C921 1.288 1_655 S
C921 C920 1.288 1_455 S
C921 C922 1.392 . S
C922 H892 0.951 . S
C922 C921 1.392 . S
C922 C923 1.392 . S
C923 H893 0.949 . S
C923 C918 1.382 . S
C923 C922 1.392 . S
H924 C943 0.949 . S
H925 C944 0.950 . S
H926 C946 0.950 . S
H927 C947 0.950 . S
H928 C949 0.950 . S
H929 C952 0.950 . S
H930 C953 0.950 . S
H931 C955 0.951 . S
H932 C956 0.949 . S
H933 C958 0.949 . S
H934 C959 0.950 . S
H935 C961 0.950 . S
H936 C962 0.950 . S
H937 C964 0.950 . S
H938 C967 0.950 . S
H939 C968 0.950 . S
H940 C970 0.951 . S
H941 C971 0.949 . S
C942 C943 1.376 . S
C942 C947 1.386 . S
C942 C948 1.483 . S
C943 H924 0.949 . S
C943 C942 1.376 . S
C943 C944 1.397 . S
C944 H925 0.950 . S
C944 C943 1.397 . S
C944 C945 1.391 . S
C945 C944 1.391 . S
C945 C946 1.405 . S
C946 H926 0.950 . S
C946 C945 1.405 . S
C946 C947 1.367 . S
C947 H927 0.950 . S
C947 C942 1.386 . S
C947 C946 1.367 . S
C948 C942 1.483 . S
C948 C949 1.382 . S
C948 C950 1.403 . S
C949 H928 0.950 . S
C949 C948 1.382 . S
C949 C965 1.411 . S
C950 C948 1.403 . S
C950 C951 1.489 . S
C950 C964 1.411 . S
C951 C950 1.489 . S
C951 C952 1.383 . S
C951 C956 1.382 . S
C952 H929 0.950 . S
C952 C951 1.383 . S
C952 C953 1.395 . S
C953 H930 0.950 . S
C953 C952 1.395 . S
C953 C954 1.288 . S
C954 C953 1.288 . S
C954 C955 1.392 . S
C955 H931 0.951 . S
C955 C954 1.392 . S
C955 C956 1.392 . S
C956 H932 0.949 . S
C956 C951 1.382 . S
C956 C955 1.392 . S
C957 C958 1.376 . S
C957 C962 1.386 . S
C957 C963 1.483 . S
C958 H933 0.949 . S
C958 C957 1.376 . S
C958 C959 1.397 . S
C959 H934 0.950 . S
C959 C958 1.397 . S
C959 C960 1.391 . S
C960 C959 1.391 . S
C960 C961 1.405 . S
C961 H935 0.950 . S
C961 C960 1.405 . S
C961 C962 1.367 . S
C962 H936 0.950 . S
C962 C957 1.386 . S
C962 C961 1.367 . S
C963 C957 1.483 . S
C963 C964 1.382 . S
C963 C965 1.403 . S
C964 H937 0.950 . S
C964 C950 1.411 . S
C964 C963 1.382 . S
C965 C949 1.411 . S
C965 C963 1.403 . S
C965 C966 1.489 . S
C966 C965 1.489 . S
C966 C967 1.383 . S
C966 C971 1.382 . S
C967 H938 0.950 . S
C967 C966 1.383 . S
C967 C968 1.395 . S
C968 H939 0.950 . S
C968 C967 1.395 . S
C968 C969 1.288 . S
C969 C968 1.288 . S
C969 C970 1.392 . S
C970 H940 0.951 . S
C970 C969 1.392 . S
C970 C971 1.392 . S
C971 H941 0.949 . S
C971 C966 1.382 . S
C971 C970 1.392 . S
H972 C991 0.949 . S
H973 C992 0.950 . S
H974 C994 0.950 . S
H975 C995 0.950 . S
H976 C997 0.950 . S
H977 C1000 0.950 . S
H978 C1001 0.950 . S
H979 C1003 0.951 . S
H980 C1004 0.949 . S
H981 C1006 0.949 . S
H982 C1007 0.950 . S
H983 C1009 0.950 . S
H984 C1010 0.950 . S
H985 C1012 0.950 . S
H986 C1015 0.950 . S
H987 C1016 0.950 . S
H988 C1018 0.951 . S
H989 C1019 0.949 . S
C990 C991 1.376 . S
C990 C995 1.386 . S
C990 C996 1.483 . S
C991 H972 0.949 . S
C991 C990 1.376 . S
C991 C992 1.397 . S
C992 H973 0.950 . S
C992 C991 1.397 . S
C992 C993 1.391 . S
C993 C992 1.391 . S
C993 C994 1.405 . S
C994 H974 0.950 . S
C994 C993 1.405 . S
C994 C995 1.367 . S
C995 H975 0.950 . S
C995 C990 1.386 . S
C995 C994 1.367 . S
C996 C990 1.483 . S
C996 C997 1.382 . S
C996 C998 1.403 . S
C997 H976 0.950 . S
C997 C996 1.382 . S
C997 C1013 1.411 . S
C998 C996 1.403 . S
C998 C999 1.489 . S
C998 C1012 1.411 . S
C999 C998 1.489 . S
C999 C1000 1.383 . S
C999 C1004 1.382 . S
C1000 H977 0.950 . S
C1000 C999 1.383 . S
C1000 C1001 1.395 . S
C1001 H978 0.950 . S
C1001 C1000 1.395 . S
C1001 C1002 1.288 . S
C1002 C1001 1.288 . S
C1002 C1003 1.392 . S
C1003 H979 0.951 . S
C1003 C1002 1.392 . S
C1003 C1004 1.392 . S
C1004 H980 0.949 . S
C1004 C999 1.382 . S
C1004 C1003 1.392 . S
C1005 C1006 1.376 . S
C1005 C1010 1.386 . S
C1005 C1011 1.483 . S
C1006 H981 0.949 . S
C1006 C1005 1.376 . S
C1006 C1007 1.397 . S
C1007 H982 0.950 . S
C1007 C1006 1.397 . S
C1007 C1008 1.391 . S
C1008 C1007 1.391 . S
C1008 C1009 1.405 . S
C1009 H983 0.950 . S
C1009 C1008 1.405 . S
C1009 C1010 1.367 . S
C1010 H984 0.950 . S
C1010 C1005 1.386 . S
C1010 C1009 1.367 . S
C1011 C1005 1.483 . S
C1011 C1012 1.382 . S
C1011 C1013 1.403 . S
C1012 H985 0.950 . S
C1012 C998 1.411 . S
C1012 C1011 1.382 . S
C1013 C997 1.411 . S
C1013 C1011 1.403 . S
C1013 C1014 1.489 . S
C1014 C1013 1.489 . S
C1014 C1015 1.383 . S
C1014 C1019 1.382 . S
C1015 H986 0.950 . S
C1015 C1014 1.383 . S
C1015 C1016 1.395 . S
C1016 H987 0.950 . S
C1016 C1015 1.395 . S
C1016 C1017 1.288 . S
C1017 C1016 1.288 . S
C1017 C1018 1.392 . S
C1018 H988 0.951 . S
C1018 C1017 1.392 . S
C1018 C1019 1.392 . S
C1019 H989 0.949 . S
C1019 C1014 1.382 . S
C1019 C1018 1.392 . S
H1020 C1039 0.949 . S
H1021 C1040 0.950 . S
H1022 C1042 0.950 . S
H1023 C1043 0.950 . S
H1024 C1045 0.950 . S
H1025 C1048 0.950 . S
H1026 C1049 0.950 . S
H1027 C1051 0.951 . S
H1028 C1052 0.949 . S
H1029 C1054 0.949 . S
H1030 C1055 0.950 . S
H1031 C1057 0.950 . S
H1032 C1058 0.950 . S
H1033 C1060 0.950 . S
H1034 C1063 0.950 . S
H1035 C1064 0.950 . S
H1036 C1066 0.951 . S
H1037 C1067 0.949 . S
C1038 C1039 1.376 . S
C1038 C1043 1.386 . S
C1038 C1044 1.483 . S
C1039 H1020 0.949 . S
C1039 C1038 1.376 . S
C1039 C1040 1.397 . S
C1040 H1021 0.950 . S
C1040 C1039 1.397 . S
C1040 C1041 1.391 . S
C1041 C1040 1.391 . S
C1041 C1042 1.405 . S
C1042 H1022 0.950 . S
C1042 C1041 1.405 . S
C1042 C1043 1.367 . S
C1043 H1023 0.950 . S
C1043 C1038 1.386 . S
C1043 C1042 1.367 . S
C1044 C1038 1.483 . S
C1044 C1045 1.382 . S
C1044 C1046 1.403 . S
C1045 H1024 0.950 . S
C1045 C1044 1.382 . S
C1045 C1061 1.411 . S
C1046 C1044 1.403 . S
C1046 C1047 1.489 . S
C1046 C1060 1.411 . S
C1047 C1046 1.489 . S
C1047 C1048 1.383 . S
C1047 C1052 1.382 . S
C1048 H1025 0.950 . S
C1048 C1047 1.383 . S
C1048 C1049 1.395 . S
C1049 H1026 0.950 . S
C1049 C1048 1.395 . S
C1049 C1050 1.288 . S
C1050 C1049 1.288 . S
C1050 C1051 1.392 . S
C1051 H1027 0.951 . S
C1051 C1050 1.392 . S
C1051 C1052 1.392 . S
C1052 H1028 0.949 . S
C1052 C1047 1.382 . S
C1052 C1051 1.392 . S
C1053 C1054 1.376 . S
C1053 C1058 1.386 . S
C1053 C1059 1.483 . S
C1054 H1029 0.949 . S
C1054 C1053 1.376 . S
C1054 C1055 1.397 . S
C1055 H1030 0.950 . S
C1055 C1054 1.397 . S
C1055 C1056 1.391 . S
C1056 C1055 1.391 . S
C1056 C1057 1.405 . S
C1057 H1031 0.950 . S
C1057 C1056 1.405 . S
C1057 C1058 1.367 . S
C1058 H1032 0.950 . S
C1058 C1053 1.386 . S
C1058 C1057 1.367 . S
C1059 C1053 1.483 . S
C1059 C1060 1.382 . S
C1059 C1061 1.403 . S
C1060 H1033 0.950 . S
C1060 C1046 1.411 . S
C1060 C1059 1.382 . S
C1061 C1045 1.411 . S
C1061 C1059 1.403 . S
C1061 C1062 1.489 . S
C1062 C1061 1.489 . S
C1062 C1063 1.383 . S
C1062 C1067 1.382 . S
C1063 H1034 0.950 . S
C1063 C1062 1.383 . S
C1063 C1064 1.395 . S
C1064 H1035 0.950 . S
C1064 C1063 1.395 . S
C1064 C1065 1.288 . S
C1065 C1064 1.288 . S
C1065 C1066 1.392 . S
C1066 H1036 0.951 . S
C1066 C1065 1.392 . S
C1066 C1067 1.392 . S
C1067 H1037 0.949 . S
C1067 C1062 1.382 . S
C1067 C1066 1.392 . S
H1068 C1087 0.949 . S
H1069 C1088 0.950 . S
H1070 C1090 0.950 . S
H1071 C1091 0.950 . S
H1072 C1093 0.950 . S
H1073 C1096 0.950 . S
H1074 C1097 0.950 . S
H1075 C1099 0.951 . S
H1076 C1100 0.949 . S
H1077 C1102 0.949 . S
H1078 C1103 0.950 . S
H1079 C1105 0.950 . S
H1080 C1106 0.950 . S
H1081 C1108 0.950 . S
H1082 C1111 0.950 . S
H1083 C1112 0.950 . S
H1084 C1114 0.951 . S
H1085 C1115 0.949 . S
C1086 C1087 1.376 . S
C1086 C1091 1.386 . S
C1086 C1092 1.483 . S
C1087 H1068 0.949 . S
C1087 C1086 1.376 . S
C1087 C1088 1.397 . S
C1088 H1069 0.950 . S
C1088 C1087 1.397 . S
C1088 C1089 1.391 . S
C1089 C1088 1.391 . S
C1089 C1090 1.405 . S
C1090 H1070 0.950 . S
C1090 C1089 1.405 . S
C1090 C1091 1.367 . S
C1091 H1071 0.950 . S
C1091 C1086 1.386 . S
C1091 C1090 1.367 . S
C1092 C1086 1.483 . S
C1092 C1093 1.382 . S
C1092 C1094 1.403 . S
C1093 H1072 0.950 . S
C1093 C1092 1.382 . S
C1093 C1109 1.411 . S
C1094 C1092 1.403 . S
C1094 C1095 1.489 . S
C1094 C1108 1.411 . S
C1095 C1094 1.489 . S
C1095 C1096 1.383 . S
C1095 C1100 1.382 . S
C1096 H1073 0.950 . S
C1096 C1095 1.383 . S
C1096 C1097 1.395 . S
C1097 H1074 0.950 . S
C1097 C1096 1.395 . S
C1097 C1098 1.288 . S
C1098 C1097 1.288 . S
C1098 C1099 1.392 . S
C1099 H1075 0.951 . S
C1099 C1098 1.392 . S
C1099 C1100 1.392 . S
C1100 H1076 0.949 . S
C1100 C1095 1.382 . S
C1100 C1099 1.392 . S
C1101 C1102 1.376 . S
C1101 C1106 1.386 . S
C1101 C1107 1.483 . S
C1102 H1077 0.949 . S
C1102 C1101 1.376 . S
C1102 C1103 1.397 . S
C1103 H1078 0.950 . S
C1103 C1102 1.397 . S
C1103 C1104 1.391 . S
C1104 C1103 1.391 . S
C1104 C1105 1.405 . S
C1105 H1079 0.950 . S
C1105 C1104 1.405 . S
C1105 C1106 1.367 . S
C1106 H1080 0.950 . S
C1106 C1101 1.386 . S
C1106 C1105 1.367 . S
C1107 C1101 1.483 . S
C1107 C1108 1.382 . S
C1107 C1109 1.403 . S
C1108 H1081 0.950 . S
C1108 C1094 1.411 . S
C1108 C1107 1.382 . S
C1109 C1093 1.411 . S
C1109 C1107 1.403 . S
C1109 C1110 1.489 . S
C1110 C1109 1.489 . S
C1110 C1111 1.383 . S
C1110 C1115 1.382 . S
C1111 H1082 0.950 . S
C1111 C1110 1.383 . S
C1111 C1112 1.395 . S
C1112 H1083 0.950 . S
C1112 C1111 1.395 . S
C1112 C1113 1.288 . S
C1113 C1112 1.288 . S
C1113 C1114 1.392 . S
C1114 H1084 0.951 . S
C1114 C1113 1.392 . S
C1114 C1115 1.392 . S
C1115 H1085 0.949 . S
C1115 C1110 1.382 . S
C1115 C1114 1.392 . S
H1116 C1134 0.951 . S
H1117 C1136 0.951 . S
H1118 C1138 0.950 . S
H1119 C1139 0.950 . S
H1120 C1141 0.950 1_455 S
H1121 C1144 0.950 . S
H1122 C1145 0.950 . S
H1123 C1147 0.950 . S
H1124 C1148 0.957 . S
H1125 C1149 0.951 . S
H1126 C1151 0.951 . S
H1127 C1153 0.950 . S
H1128 C1154 0.950 . S
H1129 C1156 0.950 . S
H1130 C1159 0.950 . S
H1131 C1160 0.950 . S
H1132 C1162 0.950 . S
H1133 C1163 0.950 1_655 S
C1134 H1116 0.951 . S
C1134 C1135 1.366 1_455 S
C1134 C1136 1.388 . S
C1135 C1134 1.366 1_655 S
C1135 C1139 1.385 . S
C1136 H1117 0.951 . S
C1136 C1134 1.388 . S
C1136 C1137 1.366 1_455 S
C1137 C1136 1.366 1_655 S
C1137 C1138 1.414 . S
C1137 C1140 1.499 . S
C1138 H1118 0.950 . S
C1138 C1137 1.414 . S
C1138 C1139 1.374 . S
C1139 H1119 0.950 . S
C1139 C1135 1.385 . S
C1139 C1138 1.374 . S
C1140 C1137 1.499 . S
C1140 C1141 1.372 . S
C1140 C1142 1.389 . S
C1141 H1120 0.950 1_655 S
C1141 C1140 1.372 . S
C1141 C1157 1.378 1_655 S
C1142 C1140 1.389 . S
C1142 C1143 1.524 . S
C1142 C1156 1.377 . S
C1143 C1142 1.524 . S
C1143 C1144 1.397 . S
C1143 C1148 1.363 . S
C1144 H1121 0.950 . S
C1144 C1143 1.397 . S
C1144 C1145 1.334 . S
C1145 H1122 0.950 . S
C1145 C1144 1.334 . S
C1145 C1146 1.287 . S
C1146 C1145 1.287 . S
C1146 C1147 1.524 . S
C1146 H1165 0.913 . S
C1147 H1123 0.950 . S
C1147 C1146 1.524 . S
C1147 C1148 1.415 . S
C1148 H1124 0.957 . S
C1148 C1143 1.363 . S
C1148 C1147 1.415 . S
C1149 H1125 0.951 . S
C1149 C1150 1.366 . S
C1149 C1151 1.388 . S
C1150 C1149 1.366 . S
C1150 C1154 1.385 1_655 S
C1151 H1126 0.951 . S
C1151 C1149 1.388 . S
C1151 C1152 1.366 . S
C1152 C1151 1.366 . S
C1152 C1153 1.414 1_655 S
C1152 C1155 1.499 . S
C1153 H1127 0.950 . S
C1153 C1152 1.414 1_455 S
C1153 C1154 1.374 . S
C1154 H1128 0.950 . S
C1154 C1150 1.385 1_455 S
C1154 C1153 1.374 . S
C1155 C1152 1.499 . S
C1155 C1156 1.373 . S
C1155 C1157 1.389 1_655 S
C1156 H1129 0.950 . S
C1156 C1142 1.377 . S
C1156 C1155 1.373 . S
C1157 C1141 1.378 1_455 S
C1157 C1155 1.389 1_455 S
C1157 C1158 1.524 . S
C1158 C1157 1.524 . S
C1158 C1159 1.397 . S
C1158 C1163 1.363 . S
C1159 H1130 0.950 . S
C1159 C1158 1.397 . S
C1159 C1160 1.334 . S
C1160 H1131 0.950 . S
C1160 C1159 1.334 . S
C1160 C1161 1.287 . S
C1161 C1160 1.287 . S
C1161 C1162 1.524 . S
C1161 H1164 0.999 . S
C1162 H1132 0.950 . S
C1162 C1161 1.524 . S
C1162 C1163 1.415 . S
C1163 H1133 0.950 1_455 S
C1163 C1158 1.363 . S
C1163 C1162 1.415 . S
H1164 C1161 0.999 . S
H1165 C1146 0.913 . S
H1166 C1184 0.951 . S
H1167 C1186 0.951 . S
H1168 C1188 0.950 . S
H1169 C1189 0.950 . S
H1170 C1191 0.950 . S
H1171 C1194 0.950 . S
H1172 C1195 0.950 . S
H1173 C1197 0.950 . S
H1174 C1198 0.950 . S
H1175 C1199 0.951 . S
H1176 C1201 0.951 . S
H1177 C1203 0.950 . S
H1178 C1204 0.950 . S
H1179 C1206 0.950 . S
H1180 C1209 0.950 . S
H1181 C1210 0.950 . S
H1182 C1212 0.950 . S
H1183 C1213 0.950 . S
C1184 H1166 0.951 . S
C1184 C1185 1.366 . S
C1184 C1186 1.388 . S
C1185 C1184 1.366 . S
C1185 C1189 1.385 . S
C1186 H1167 0.951 . S
C1186 C1184 1.388 . S
C1186 C1187 1.366 . S
C1187 C1186 1.366 . S
C1187 C1188 1.414 . S
C1187 C1190 1.499 . S
C1188 H1168 0.950 . S
C1188 C1187 1.414 . S
C1188 C1189 1.374 . S
C1189 H1169 0.950 . S
C1189 C1185 1.385 . S
C1189 C1188 1.374 . S
C1190 C1187 1.499 . S
C1190 C1191 1.373 . S
C1190 C1192 1.389 . S
C1191 H1170 0.950 . S
C1191 C1190 1.373 . S
C1191 C1207 1.377 . S
C1192 C1190 1.389 . S
C1192 C1193 1.524 . S
C1192 C1206 1.377 . S
C1193 C1192 1.524 . S
C1193 C1194 1.397 . S
C1193 C1198 1.363 . S
C1194 H1171 0.950 . S
C1194 C1193 1.397 . S
C1194 C1195 1.334 . S
C1195 H1172 0.950 . S
C1195 C1194 1.334 . S
C1195 C1196 1.287 . S
C1196 C1195 1.287 . S
C1196 C1197 1.524 . S
C1196 H1215 0.913 . S
C1197 H1173 0.950 . S
C1197 C1196 1.524 . S
C1197 C1198 1.415 . S
C1198 H1174 0.950 . S
C1198 C1193 1.363 . S
C1198 C1197 1.415 . S
C1199 H1175 0.951 . S
C1199 C1200 1.366 . S
C1199 C1201 1.388 . S
C1200 C1199 1.366 . S
C1200 C1204 1.385 . S
C1201 H1176 0.951 . S
C1201 C1199 1.388 . S
C1201 C1202 1.366 . S
C1202 C1201 1.366 . S
C1202 C1203 1.414 . S
C1202 C1205 1.499 . S
C1203 H1177 0.950 . S
C1203 C1202 1.414 . S
C1203 C1204 1.374 . S
C1204 H1178 0.950 . S
C1204 C1200 1.385 . S
C1204 C1203 1.374 . S
C1205 C1202 1.499 . S
C1205 C1206 1.373 . S
C1205 C1207 1.389 . S
C1206 H1179 0.950 . S
C1206 C1192 1.377 . S
C1206 C1205 1.373 . S
C1207 C1191 1.377 . S
C1207 C1205 1.389 . S
C1207 C1208 1.524 . S
C1208 C1207 1.524 . S
C1208 C1209 1.397 . S
C1208 C1213 1.363 . S
C1209 H1180 0.950 . S
C1209 C1208 1.397 . S
C1209 C1210 1.334 . S
C1210 H1181 0.950 . S
C1210 C1209 1.334 . S
C1210 C1211 1.287 . S
C1211 C1210 1.287 . S
C1211 C1212 1.524 . S
C1211 H1214 0.999 . S
C1212 H1182 0.950 . S
C1212 C1211 1.524 . S
C1212 C1213 1.415 . S
C1213 H1183 0.950 . S
C1213 C1208 1.363 . S
C1213 C1212 1.415 . S
H1214 C1211 0.999 . S
H1215 C1196 0.913 . S
H1216 C1234 0.951 . S
H1217 C1236 0.955 1_565 S
H1218 C1238 0.950 . S
H1219 C1239 0.950 . S
H1220 C1241 0.950 . S
H1221 C1244 0.950 . S
H1222 C1245 0.950 . S
H1223 C1247 0.950 . S
H1224 C1248 0.950 . S
H1225 C1249 0.951 . S
H1226 C1251 0.951 . S
H1227 C1253 0.953 . S
H1228 C1254 0.950 . S
H1229 C1256 0.950 . S
H1230 C1259 0.950 . S
H1231 C1260 0.950 . S
H1232 C1262 0.950 . S
H1233 C1263 0.950 . S
C1234 H1216 0.951 . S
C1234 C1235 1.366 . S
C1234 C1236 1.388 . S
C1235 C1234 1.366 . S
C1235 C1239 1.385 . S
C1236 H1217 0.955 1_545 S
C1236 C1234 1.388 . S
C1236 C1237 1.366 . S
C1237 C1236 1.366 . S
C1237 C1238 1.414 . S
C1237 C1240 1.499 . S
C1238 H1218 0.950 . S
C1238 C1237 1.414 . S
C1238 C1239 1.374 . S
C1239 H1219 0.950 . S
C1239 C1235 1.385 . S
C1239 C1238 1.374 . S
C1240 C1237 1.499 . S
C1240 C1241 1.373 . S
C1240 C1242 1.389 1_545 S
C1241 H1220 0.950 . S
C1241 C1240 1.373 . S
C1241 C1257 1.377 . S
C1242 C1240 1.389 1_565 S
C1242 C1243 1.524 . S
C1242 C1256 1.377 . S
C1243 C1242 1.524 . S
C1243 C1244 1.397 . S
C1243 C1248 1.363 . S
C1244 H1221 0.950 . S
C1244 C1243 1.397 . S
C1244 C1245 1.334 . S
C1245 H1222 0.950 . S
C1245 C1244 1.334 . S
C1245 C1246 1.287 . S
C1246 C1245 1.287 . S
C1246 C1247 1.524 . S
C1246 H1265 0.913 . S
C1247 H1223 0.950 . S
C1247 C1246 1.524 . S
C1247 C1248 1.415 . S
C1248 H1224 0.950 . S
C1248 C1243 1.363 . S
C1248 C1247 1.415 . S
C1249 H1225 0.951 . S
C1249 C1250 1.366 . S
C1249 C1251 1.388 . S
C1250 C1249 1.366 . S
C1250 C1254 1.385 1_545 S
C1251 H1226 0.951 . S
C1251 C1249 1.388 . S
C1251 C1252 1.366 . S
C1252 C1251 1.366 . S
C1252 C1253 1.408 1_545 S
C1252 C1255 1.499 . S
C1253 H1227 0.953 . S
C1253 C1252 1.408 1_565 S
C1253 C1254 1.377 . S
C1254 H1228 0.950 . S
C1254 C1250 1.385 1_565 S
C1254 C1253 1.377 . S
C1255 C1252 1.499 . S
C1255 C1256 1.373 1_545 S
C1255 C1257 1.389 . S
C1256 H1229 0.950 . S
C1256 C1242 1.377 . S
C1256 C1255 1.373 1_565 S
C1257 C1241 1.377 . S
C1257 C1255 1.389 . S
C1257 C1258 1.524 . S
C1258 C1257 1.524 . S
C1258 C1259 1.397 . S
C1258 C1263 1.363 . S
C1259 H1230 0.950 . S
C1259 C1258 1.397 . S
C1259 C1260 1.334 . S
C1260 H1231 0.950 . S
C1260 C1259 1.334 . S
C1260 C1261 1.287 . S
C1261 C1260 1.287 . S
C1261 C1262 1.524 . S
C1261 H1264 0.999 . S
C1262 H1232 0.950 . S
C1262 C1261 1.524 . S
C1262 C1263 1.415 . S
C1263 H1233 0.950 . S
C1263 C1258 1.363 . S
C1263 C1262 1.415 . S
H1264 C1261 0.999 . S
H1265 C1246 0.913 . S
H1266 C1284 0.951 . S
H1267 C1286 0.951 . S
H1268 C1288 0.950 . S
H1269 C1289 0.950 . S
H1270 C1291 0.950 . S
H1271 C1294 0.950 . S
H1272 C1295 0.950 . S
H1273 C1297 0.950 . S
H1274 C1298 0.950 . S
H1275 C1299 0.951 . S
H1276 C1301 0.951 . S
H1277 C1303 0.950 . S
H1278 C1304 0.950 . S
H1279 C1306 0.959 . S
H1280 C1309 0.950 . S
H1281 C1310 0.950 . S
H1282 C1312 0.950 . S
H1283 C1313 0.950 . S
C1284 H1266 0.951 . S
C1284 C1285 1.366 1_545 S
C1284 C1286 1.388 . S
C1285 C1284 1.366 1_565 S
C1285 C1289 1.385 . S
C1286 H1267 0.951 . S
C1286 C1284 1.388 . S
C1286 C1287 1.366 1_545 S
C1287 C1286 1.366 1_565 S
C1287 C1288 1.414 . S
C1287 C1290 1.499 . S
C1288 H1268 0.950 . S
C1288 C1287 1.414 . S
C1288 C1289 1.374 . S
C1289 H1269 0.950 . S
C1289 C1285 1.385 . S
C1289 C1288 1.374 . S
C1290 C1287 1.499 . S
C1290 C1291 1.373 . S
C1290 C1292 1.395 . S
C1291 H1270 0.950 . S
C1291 C1290 1.373 . S
C1291 C1307 1.377 . S
C1292 C1290 1.395 . S
C1292 C1293 1.523 . S
C1292 C1306 1.405 1_565 S
C1293 C1292 1.523 . S
C1293 C1294 1.408 . S
C1293 C1298 1.341 1_565 S
C1294 H1271 0.950 . S
C1294 C1293 1.408 . S
C1294 C1295 1.334 . S
C1295 H1272 0.950 . S
C1295 C1294 1.334 . S
C1295 C1296 1.287 . S
C1296 C1295 1.287 . S
C1296 C1297 1.524 1_565 S
C1296 H1315 0.913 . S
C1297 H1273 0.950 . S
C1297 C1296 1.524 1_545 S
C1297 C1298 1.415 . S
C1298 H1274 0.950 . S
C1298 C1293 1.341 1_545 S
C1298 C1297 1.415 . S
C1299 H1275 0.951 . S
C1299 C1300 1.366 . S
C1299 C1301 1.388 . S
C1300 C1299 1.366 . S
C1300 C1304 1.385 1_565 S
C1301 H1276 0.951 . S
C1301 C1299 1.388 . S
C1301 C1302 1.459 . S
C1302 C1301 1.459 . S
C1302 C1303 1.364 1_565 S
C1302 C1305 1.478 . S
C1303 H1277 0.950 . S
C1303 C1302 1.364 1_545 S
C1303 C1304 1.374 . S
C1304 H1278 0.950 . S
C1304 C1300 1.385 1_545 S
C1304 C1303 1.374 . S
C1305 C1302 1.478 . S
C1305 C1306 1.327 1_565 S
C1305 C1307 1.397 . S
C1306 H1279 0.959 . S
C1306 C1292 1.405 1_545 S
C1306 C1305 1.327 1_545 S
C1307 C1291 1.377 . S
C1307 C1305 1.397 . S
C1307 C1308 1.524 . S
C1308 C1307 1.524 . S
C1308 C1309 1.397 1_565 S
C1308 C1313 1.363 . S
C1309 H1280 0.950 . S
C1309 C1308 1.397 1_545 S
C1309 C1310 1.334 . S
C1310 H1281 0.950 . S
C1310 C1309 1.334 . S
C1310 C1311 1.287 . S
C1311 C1310 1.287 . S
C1311 C1312 1.524 1_545 S
C1311 H1314 0.999 . S
C1312 H1282 0.950 . S
C1312 C1311 1.524 1_565 S
C1312 C1313 1.415 . S
C1313 H1283 0.950 . S
C1313 C1308 1.363 . S
C1313 C1312 1.415 . S
H1314 C1311 0.999 . S
H1315 C1296 0.913 . S
H1316 C1334 0.951 . S
H1317 C1336 0.951 . S
H1318 C1338 0.950 . S
H1319 C1339 0.950 . S
H1320 C1341 0.950 . S
H1321 C1344 0.950 . S
H1322 C1345 0.950 . S
H1323 C1347 0.950 . S
H1324 C1348 0.950 . S
H1325 C1349 0.951 . S
H1326 C1351 0.951 . S
H1327 C1353 0.950 . S
H1328 C1354 0.950 . S
H1329 C1356 0.950 . S
H1330 C1359 0.950 1_455 S
H1331 C1360 0.950 . S
H1332 C1362 0.950 . S
H1333 C1363 0.950 . S
C1334 H1316 0.951 . S
C1334 C1335 1.366 . S
C1334 C1336 1.388 . S
C1335 C1334 1.366 . S
C1335 C1339 1.385 1_455 S
C1336 H1317 0.951 . S
C1336 C1334 1.388 . S
C1336 C1337 1.366 . S
C1337 C1336 1.366 . S
C1337 C1338 1.414 1_455 S
C1337 C1340 1.499 . S
C1338 H1318 0.950 . S
C1338 C1337 1.414 1_655 S
C1338 C1339 1.374 . S
C1339 H1319 0.950 . S
C1339 C1335 1.385 1_655 S
C1339 C1338 1.374 . S
C1340 C1337 1.499 . S
C1340 C1341 1.373 1_455 S
C1340 C1342 1.389 . S
C1341 H1320 0.950 . S
C1341 C1340 1.373 1_655 S
C1341 C1357 1.377 . S
C1342 C1340 1.389 . S
C1342 C1343 1.524 . S
C1342 C1356 1.377 . S
C1343 C1342 1.524 . S
C1343 C1344 1.397 . S
C1343 C1348 1.363 . S
C1344 H1321 0.950 . S
C1344 C1343 1.397 . S
C1344 C1345 1.334 . S
C1345 H1322 0.950 . S
C1345 C1344 1.334 . S
C1345 C1346 1.287 . S
C1346 C1345 1.287 . S
C1346 C1347 1.524 . S
C1346 H1365 0.913 . S
C1347 H1323 0.950 . S
C1347 C1346 1.524 . S
C1347 C1348 1.415 . S
C1348 H1324 0.950 . S
C1348 C1343 1.363 . S
C1348 C1347 1.415 . S
C1349 H1325 0.951 . S
C1349 C1350 1.366 1_655 S
C1349 C1351 1.388 . S
C1350 C1349 1.366 1_455 S
C1350 C1354 1.385 . S
C1351 H1326 0.951 . S
C1351 C1349 1.388 . S
C1351 C1352 1.366 1_655 S
C1352 C1351 1.366 1_455 S
C1352 C1353 1.414 . S
C1352 C1355 1.499 . S
C1353 H1327 0.950 . S
C1353 C1352 1.414 . S
C1353 C1354 1.374 . S
C1354 H1328 0.950 . S
C1354 C1350 1.385 . S
C1354 C1353 1.374 . S
C1355 C1352 1.499 . S
C1355 C1356 1.373 . S
C1355 C1357 1.389 1_455 S
C1356 H1329 0.950 . S
C1356 C1342 1.377 . S
C1356 C1355 1.373 . S
C1357 C1341 1.377 . S
C1357 C1355 1.389 1_655 S
C1357 C1358 1.524 . S
C1358 C1357 1.524 . S
C1358 C1359 1.397 . S
C1358 C1363 1.363 . S
C1359 H1330 0.950 1_655 S
C1359 C1358 1.397 . S
C1359 C1360 1.334 . S
C1360 H1331 0.950 . S
C1360 C1359 1.334 . S
C1360 C1361 1.287 . S
C1361 C1360 1.287 . S
C1361 C1362 1.524 . S
C1361 H1364 0.999 . S
C1362 H1332 0.950 . S
C1362 C1361 1.524 . S
C1362 C1363 1.415 . S
C1363 H1333 0.950 . S
C1363 C1358 1.363 . S
C1363 C1362 1.415 . S
H1364 C1361 0.999 . S
H1365 C1346 0.913 . S
H1366 C1384 0.951 . S
H1367 C1386 0.951 . S
H1368 C1388 0.950 . S
H1369 C1389 0.950 . S
H1370 C1391 0.950 . S
H1371 C1394 0.950 . S
H1372 C1395 0.950 . S
H1373 C1397 0.950 . S
H1374 C1398 0.950 . S
H1375 C1399 0.951 . S
H1376 C1401 0.951 . S
H1377 C1403 0.950 . S
H1378 C1404 0.950 . S
H1379 C1406 0.950 . S
H1380 C1409 0.950 . S
H1381 C1410 0.950 . S
H1382 C1412 0.950 . S
H1383 C1413 0.950 . S
C1384 H1366 0.951 . S
C1384 C1385 1.366 . S
C1384 C1386 1.388 . S
C1385 C1384 1.366 . S
C1385 C1389 1.385 . S
C1386 H1367 0.951 . S
C1386 C1384 1.388 . S
C1386 C1387 1.366 . S
C1387 C1386 1.366 . S
C1387 C1388 1.414 . S
C1387 C1390 1.499 . S
C1388 H1368 0.950 . S
C1388 C1387 1.414 . S
C1388 C1389 1.374 . S
C1389 H1369 0.950 . S
C1389 C1385 1.385 . S
C1389 C1388 1.374 . S
C1390 C1387 1.499 . S
C1390 C1391 1.373 . S
C1390 C1392 1.389 . S
C1391 H1370 0.950 . S
C1391 C1390 1.373 . S
C1391 C1407 1.377 . S
C1392 C1390 1.389 . S
C1392 C1393 1.524 . S
C1392 C1406 1.377 . S
C1393 C1392 1.524 . S
C1393 C1394 1.397 . S
C1393 C1398 1.363 . S
C1394 H1371 0.950 . S
C1394 C1393 1.397 . S
C1394 C1395 1.334 . S
C1395 H1372 0.950 . S
C1395 C1394 1.334 . S
C1395 C1396 1.287 . S
C1396 C1395 1.287 . S
C1396 C1397 1.524 . S
C1396 H1415 0.913 . S
C1397 H1373 0.950 . S
C1397 C1396 1.524 . S
C1397 C1398 1.415 . S
C1398 H1374 0.950 . S
C1398 C1393 1.363 . S
C1398 C1397 1.415 . S
C1399 H1375 0.951 . S
C1399 C1400 1.366 . S
C1399 C1401 1.388 . S
C1400 C1399 1.366 . S
C1400 C1404 1.385 . S
C1401 H1376 0.951 . S
C1401 C1399 1.388 . S
C1401 C1402 1.366 . S
C1402 C1401 1.366 . S
C1402 C1403 1.414 . S
C1402 C1405 1.499 . S
C1403 H1377 0.950 . S
C1403 C1402 1.414 . S
C1403 C1404 1.374 . S
C1404 H1378 0.950 . S
C1404 C1400 1.385 . S
C1404 C1403 1.374 . S
C1405 C1402 1.499 . S
C1405 C1406 1.373 . S
C1405 C1407 1.389 . S
C1406 H1379 0.950 . S
C1406 C1392 1.377 . S
C1406 C1405 1.373 . S
C1407 C1391 1.377 . S
C1407 C1405 1.389 . S
C1407 C1408 1.524 . S
C1408 C1407 1.524 . S
C1408 C1409 1.397 . S
C1408 C1413 1.363 . S
C1409 H1380 0.950 . S
C1409 C1408 1.397 . S
C1409 C1410 1.334 . S
C1410 H1381 0.950 . S
C1410 C1409 1.334 . S
C1410 C1411 1.287 . S
C1411 C1410 1.287 . S
C1411 C1412 1.524 . S
C1411 H1414 0.999 . S
C1412 H1382 0.950 . S
C1412 C1411 1.524 . S
C1412 C1413 1.415 . S
C1413 H1383 0.950 . S
C1413 C1408 1.363 . S
C1413 C1412 1.415 . S
H1414 C1411 0.999 . S
H1415 C1396 0.913 . S
H1416 C1434 0.951 . S
H1417 C1436 0.951 . S
H1418 C1438 0.950 . S
H1419 C1439 0.950 . S
H1420 C1441 0.950 . S
H1421 C1444 0.950 . S
H1422 C1445 0.950 . S
H1423 C1447 0.950 . S
H1424 C1448 0.950 . S
H1425 C1449 0.951 . S
H1426 C1451 0.951 . S
H1427 C1453 0.950 . S
H1428 C1454 0.950 . S
H1429 C1456 0.950 . S
H1430 C1459 0.950 1_455 S
H1431 C1460 0.950 . S
H1432 C1462 0.950 . S
H1433 C1463 0.950 . S
C1434 H1416 0.951 . S
C1434 C1435 1.366 . S
C1434 C1436 1.388 . S
C1435 C1434 1.366 . S
C1435 C1439 1.385 1_455 S
C1436 H1417 0.951 . S
C1436 C1434 1.388 . S
C1436 C1437 1.366 . S
C1437 C1436 1.366 . S
C1437 C1438 1.414 1_455 S
C1437 C1440 1.499 . S
C1438 H1418 0.950 . S
C1438 C1437 1.414 1_655 S
C1438 C1439 1.374 . S
C1439 H1419 0.950 . S
C1439 C1435 1.385 1_655 S
C1439 C1438 1.374 . S
C1440 C1437 1.499 . S
C1440 C1441 1.373 1_455 S
C1440 C1442 1.389 . S
C1441 H1420 0.950 . S
C1441 C1440 1.373 1_655 S
C1441 C1457 1.377 . S
C1442 C1440 1.389 . S
C1442 C1443 1.524 . S
C1442 C1456 1.377 . S
C1443 C1442 1.524 . S
C1443 C1444 1.397 . S
C1443 C1448 1.363 . S
C1444 H1421 0.950 . S
C1444 C1443 1.397 . S
C1444 C1445 1.334 . S
C1445 H1422 0.950 . S
C1445 C1444 1.334 . S
C1445 C1446 1.287 . S
C1446 C1445 1.287 . S
C1446 C1447 1.524 . S
C1446 H1465 0.913 . S
C1447 H1423 0.950 . S
C1447 C1446 1.524 . S
C1447 C1448 1.415 . S
C1448 H1424 0.950 . S
C1448 C1443 1.363 . S
C1448 C1447 1.415 . S
C1449 H1425 0.951 . S
C1449 C1450 1.366 1_655 S
C1449 C1451 1.388 . S
C1450 C1449 1.366 1_455 S
C1450 C1454 1.385 . S
C1451 H1426 0.951 . S
C1451 C1449 1.388 . S
C1451 C1452 1.366 1_655 S
C1452 C1451 1.366 1_455 S
C1452 C1453 1.414 . S
C1452 C1455 1.499 . S
C1453 H1427 0.950 . S
C1453 C1452 1.414 . S
C1453 C1454 1.374 . S
C1454 H1428 0.950 . S
C1454 C1450 1.385 . S
C1454 C1453 1.374 . S
C1455 C1452 1.499 . S
C1455 C1456 1.373 . S
C1455 C1457 1.389 1_455 S
C1456 H1429 0.950 . S
C1456 C1442 1.377 . S
C1456 C1455 1.373 . S
C1457 C1441 1.377 . S
C1457 C1455 1.389 1_655 S
C1457 C1458 1.524 . S
C1458 C1457 1.524 . S
C1458 C1459 1.397 . S
C1458 C1463 1.363 . S
C1459 H1430 0.950 1_655 S
C1459 C1458 1.397 . S
C1459 C1460 1.334 . S
C1460 H1431 0.950 . S
C1460 C1459 1.334 . S
C1460 C1461 1.287 . S
C1461 C1460 1.287 . S
C1461 C1462 1.524 . S
C1461 H1464 0.999 . S
C1462 H1432 0.950 . S
C1462 C1461 1.524 . S
C1462 C1463 1.415 . S
C1463 H1433 0.950 . S
C1463 C1458 1.363 . S
C1463 C1462 1.415 . S
H1464 C1461 0.999 . S
H1465 C1446 0.913 . S
H1466 C1484 0.951 . S
H1467 C1486 0.951 . S
H1468 C1488 0.950 . S
H1469 C1489 0.950 . S
H1470 C1491 0.950 . S
H1471 C1494 0.950 . S
H1472 C1495 0.950 . S
H1473 C1497 0.950 . S
H1474 C1498 0.950 . S
H1475 C1499 0.951 . S
H1476 C1501 0.951 . S
H1477 C1503 0.950 . S
H1478 C1504 0.950 . S
H1479 C1506 0.950 . S
H1480 C1509 0.950 . S
H1481 C1510 0.950 . S
H1482 C1512 0.950 . S
H1483 C1513 0.950 . S
C1484 H1466 0.951 . S
C1484 C1485 1.366 . S
C1484 C1486 1.388 . S
C1485 C1484 1.366 . S
C1485 C1489 1.385 . S
C1486 H1467 0.951 . S
C1486 C1484 1.388 . S
C1486 C1487 1.366 . S
C1487 C1486 1.366 . S
C1487 C1488 1.414 . S
C1487 C1490 1.499 . S
C1488 H1468 0.950 . S
C1488 C1487 1.414 . S
C1488 C1489 1.374 . S
C1489 H1469 0.950 . S
C1489 C1485 1.385 . S
C1489 C1488 1.374 . S
C1490 C1487 1.499 . S
C1490 C1491 1.373 . S
C1490 C1492 1.389 . S
C1491 H1470 0.950 . S
C1491 C1490 1.373 . S
C1491 C1507 1.377 . S
C1492 C1490 1.389 . S
C1492 C1493 1.524 . S
C1492 C1506 1.377 . S
C1493 C1492 1.524 . S
C1493 C1494 1.397 . S
C1493 C1498 1.363 . S
C1494 H1471 0.950 . S
C1494 C1493 1.397 . S
C1494 C1495 1.334 . S
C1495 H1472 0.950 . S
C1495 C1494 1.334 . S
C1495 C1496 1.287 . S
C1496 C1495 1.287 . S
C1496 C1497 1.524 . S
C1496 H1515 0.913 . S
C1497 H1473 0.950 . S
C1497 C1496 1.524 . S
C1497 C1498 1.415 . S
C1498 H1474 0.950 . S
C1498 C1493 1.363 . S
C1498 C1497 1.415 . S
C1499 H1475 0.951 . S
C1499 C1500 1.366 . S
C1499 C1501 1.388 . S
C1500 C1499 1.366 . S
C1500 C1504 1.385 . S
C1501 H1476 0.951 . S
C1501 C1499 1.388 . S
C1501 C1502 1.366 . S
C1502 C1501 1.366 . S
C1502 C1503 1.414 . S
C1502 C1505 1.499 . S
C1503 H1477 0.950 . S
C1503 C1502 1.414 . S
C1503 C1504 1.374 . S
C1504 H1478 0.950 . S
C1504 C1500 1.385 . S
C1504 C1503 1.374 . S
C1505 C1502 1.499 . S
C1505 C1506 1.373 . S
C1505 C1507 1.389 . S
C1506 H1479 0.950 . S
C1506 C1492 1.377 . S
C1506 C1505 1.373 . S
C1507 C1491 1.377 . S
C1507 C1505 1.389 . S
C1507 C1508 1.524 . S
C1508 C1507 1.524 . S
C1508 C1509 1.397 . S
C1508 C1513 1.363 . S
C1509 H1480 0.950 . S
C1509 C1508 1.397 . S
C1509 C1510 1.334 . S
C1510 H1481 0.950 . S
C1510 C1509 1.334 . S
C1510 C1511 1.287 . S
C1511 C1510 1.287 . S
C1511 C1512 1.524 . S
C1511 H1514 0.999 . S
C1512 H1482 0.950 . S
C1512 C1511 1.524 . S
C1512 C1513 1.415 . S
C1513 H1483 0.950 . S
C1513 C1508 1.363 . S
C1513 C1512 1.415 . S
H1514 C1511 0.999 . S
H1515 C1496 0.913 . S
H1516 C1534 0.951 . S
H1517 C1536 0.951 . S
H1518 C1538 0.950 . S
H1519 C1539 0.950 . S
H1520 C1541 0.950 . S
H1521 C1544 0.950 . S
H1522 C1545 0.950 . S
H1523 C1547 0.950 . S
H1524 C1548 0.950 . S
H1525 C1549 0.951 . S
H1526 C1551 0.951 . S
H1527 C1553 0.950 . S
H1528 C1554 0.950 . S
H1529 C1556 0.950 . S
H1530 C1559 0.950 . S
H1531 C1560 0.950 . S
H1532 C1562 0.950 . S
H1533 C1563 0.950 . S
C1534 H1516 0.951 . S
C1534 C1535 1.366 1_545 S
C1534 C1536 1.388 . S
C1535 C1534 1.366 1_565 S
C1535 C1539 1.385 . S
C1536 H1517 0.951 . S
C1536 C1534 1.388 . S
C1536 C1537 1.366 1_545 S
C1537 C1536 1.366 1_565 S
C1537 C1538 1.414 . S
C1537 C1540 1.499 . S
C1538 H1518 0.950 . S
C1538 C1537 1.414 . S
C1538 C1539 1.374 . S
C1539 H1519 0.950 . S
C1539 C1535 1.385 . S
C1539 C1538 1.374 . S
C1540 C1537 1.499 . S
C1540 C1541 1.373 . S
C1540 C1542 1.389 1_565 S
C1541 H1520 0.950 . S
C1541 C1540 1.373 . S
C1541 C1557 1.377 . S
C1542 C1540 1.389 1_545 S
C1542 C1543 1.524 . S
C1542 C1556 1.377 . S
C1543 C1542 1.524 . S
C1543 C1544 1.397 . S
C1543 C1548 1.363 . S
C1544 H1521 0.950 . S
C1544 C1543 1.397 . S
C1544 C1545 1.334 . S
C1545 H1522 0.950 . S
C1545 C1544 1.334 . S
C1545 C1546 1.287 . S
C1546 C1545 1.287 . S
C1546 C1547 1.524 . S
C1546 H1565 0.913 . S
C1547 H1523 0.950 . S
C1547 C1546 1.524 . S
C1547 C1548 1.415 . S
C1548 H1524 0.950 . S
C1548 C1543 1.363 . S
C1548 C1547 1.415 . S
C1549 H1525 0.951 . S
C1549 C1550 1.366 . S
C1549 C1551 1.388 . S
C1550 C1549 1.366 . S
C1550 C1554 1.385 1_565 S
C1551 H1526 0.951 . S
C1551 C1549 1.388 . S
C1551 C1552 1.366 . S
C1552 C1551 1.366 . S
C1552 C1553 1.414 1_565 S
C1552 C1555 1.499 . S
C1553 H1527 0.950 . S
C1553 C1552 1.414 1_545 S
C1553 C1554 1.374 . S
C1554 H1528 0.950 . S
C1554 C1550 1.385 1_545 S
C1554 C1553 1.374 . S
C1555 C1552 1.499 . S
C1555 C1556 1.373 1_565 S
C1555 C1557 1.389 . S
C1556 H1529 0.950 . S
C1556 C1542 1.377 . S
C1556 C1555 1.373 1_545 S
C1557 C1541 1.377 . S
C1557 C1555 1.389 . S
C1557 C1558 1.524 . S
C1558 C1557 1.524 . S
C1558 C1559 1.397 . S
C1558 C1563 1.363 . S
C1559 H1530 0.950 . S
C1559 C1558 1.397 . S
C1559 C1560 1.334 . S
C1560 H1531 0.950 . S
C1560 C1559 1.334 . S
C1560 C1561 1.287 . S
C1561 C1560 1.287 . S
C1561 C1562 1.524 . S
C1561 H1564 0.999 . S
C1562 H1532 0.950 . S
C1562 C1561 1.524 . S
C1562 C1563 1.415 . S
C1563 H1533 0.950 . S
C1563 C1558 1.363 . S
C1563 C1562 1.415 . S
H1564 C1561 0.999 . S
H1565 C1546 0.913 . S
H1566 C1584 0.951 . S
H1567 C1586 0.951 . S
H1568 C1588 0.950 . S
H1569 C1589 0.950 . S
H1570 C1591 0.950 . S
H1571 C1594 0.950 . S
H1572 C1595 0.950 . S
H1573 C1597 0.950 . S
H1574 C1598 0.950 . S
H1575 C1599 0.951 . S
H1576 C1601 0.951 . S
H1577 C1603 0.950 . S
H1578 C1604 0.927 . S
H1579 C1606 0.950 . S
H1580 C1609 0.950 . S
H1581 C1610 0.950 . S
H1582 C1612 0.950 . S
H1583 C1613 0.950 . S
C1584 H1566 0.951 . S
C1584 C1585 1.366 . S
C1584 C1586 1.388 . S
C1585 C1584 1.366 . S
C1585 C1589 1.385 . S
C1586 H1567 0.951 . S
C1586 C1584 1.388 . S
C1586 C1587 1.366 . S
C1587 C1586 1.366 . S
C1587 C1588 1.414 . S
C1587 C1590 1.499 . S
C1588 H1568 0.950 . S
C1588 C1587 1.414 . S
C1588 C1589 1.374 . S
C1589 H1569 0.950 . S
C1589 C1585 1.385 . S
C1589 C1588 1.374 . S
C1590 C1587 1.499 . S
C1590 C1591 1.373 1_545 S
C1590 C1592 1.389 . S
C1591 H1570 0.950 . S
C1591 C1590 1.373 1_565 S
C1591 C1607 1.377 . S
C1592 C1590 1.389 . S
C1592 C1593 1.524 . S
C1592 C1606 1.377 . S
C1593 C1592 1.524 . S
C1593 C1594 1.397 . S
C1593 C1598 1.363 . S
C1594 H1571 0.950 . S
C1594 C1593 1.397 . S
C1594 C1595 1.334 . S
C1595 H1572 0.950 . S
C1595 C1594 1.334 . S
C1595 C1596 1.287 . S
C1596 C1595 1.287 . S
C1596 C1597 1.524 . S
C1596 H1615 0.913 . S
C1597 H1573 0.950 . S
C1597 C1596 1.524 . S
C1597 C1598 1.415 . S
C1598 H1574 0.950 . S
C1598 C1593 1.363 . S
C1598 C1597 1.415 . S
C1599 H1575 0.951 . S
C1599 C1600 1.366 . S
C1599 C1601 1.388 . S
C1600 C1599 1.366 . S
C1600 C1604 1.385 . S
C1601 H1576 0.951 . S
C1601 C1599 1.388 . S
C1601 C1602 1.366 . S
C1602 C1601 1.366 . S
C1602 C1603 1.414 . S
C1602 C1605 1.499 . S
C1603 H1577 0.950 . S
C1603 C1602 1.414 . S
C1603 C1604 1.374 . S
C1604 H1578 0.927 . S
C1604 C1600 1.385 . S
C1604 C1603 1.374 . S
C1605 C1602 1.499 . S
C1605 C1606 1.373 . S
C1605 C1607 1.389 1_545 S
C1606 H1579 0.950 . S
C1606 C1592 1.377 . S
C1606 C1605 1.373 . S
C1607 C1591 1.377 . S
C1607 C1605 1.389 1_565 S
C1607 C1608 1.524 . S
C1608 C1607 1.524 . S
C1608 C1609 1.397 . S
C1608 C1613 1.363 . S
C1609 H1580 0.950 . S
C1609 C1608 1.397 . S
C1609 C1610 1.334 . S
C1610 H1581 0.950 . S
C1610 C1609 1.334 . S
C1610 C1611 1.287 . S
C1611 C1610 1.287 . S
C1611 C1612 1.524 . S
C1611 H1614 0.999 . S
C1612 H1582 0.950 . S
C1612 C1611 1.524 . S
C1612 C1613 1.415 . S
C1613 H1583 0.950 . S
C1613 C1608 1.363 . S
C1613 C1612 1.415 . S
H1614 C1611 0.999 . S
H1615 C1596 0.913 . S
H1616 C1634 0.951 . S
H1617 C1636 0.951 . S
H1618 C1638 0.950 . S
H1619 C1639 0.950 . S
H1620 C1641 0.950 . S
H1621 C1644 0.950 . S
H1622 C1645 0.950 . S
H1623 C1647 0.950 . S
H1624 C1648 0.950 . S
H1625 C1649 0.951 . S
H1626 C1651 0.951 . S
H1627 C1653 0.950 . S
H1628 C1654 0.950 . S
H1629 C1656 0.950 . S
H1630 C1659 0.950 . S
H1631 C1660 0.950 . S
H1632 C1662 0.950 . S
H1633 C1663 0.950 . S
C1634 H1616 0.951 . S
C1634 C1635 1.366 1_455 S
C1634 C1636 1.388 . S
C1635 C1634 1.366 1_655 S
C1635 C1639 1.385 . S
C1636 H1617 0.951 . S
C1636 C1634 1.388 . S
C1636 C1637 1.366 1_455 S
C1637 C1636 1.366 1_655 S
C1637 C1638 1.414 . S
C1637 C1640 1.499 . S
C1638 H1618 0.950 . S
C1638 C1637 1.414 . S
C1638 C1639 1.374 . S
C1639 H1619 0.950 . S
C1639 C1635 1.385 . S
C1639 C1638 1.374 . S
C1640 C1637 1.499 . S
C1640 C1641 1.373 . S
C1640 C1642 1.389 . S
C1641 H1620 0.950 . S
C1641 C1640 1.373 . S
C1641 C1657 1.377 . S
C1642 C1640 1.389 . S
C1642 C1643 1.524 . S
C1642 C1656 1.377 . S
C1643 C1642 1.524 . S
C1643 C1644 1.397 . S
C1643 C1648 1.363 1_655 S
C1644 H1621 0.950 . S
C1644 C1643 1.397 . S
C1644 C1645 1.334 . S
C1645 H1622 0.950 . S
C1645 C1644 1.334 . S
C1645 C1646 1.287 . S
C1646 C1645 1.287 . S
C1646 C1647 1.524 1_655 S
C1646 H1665 0.913 . S
C1647 H1623 0.950 . S
C1647 C1646 1.524 1_455 S
C1647 C1648 1.415 . S
C1648 H1624 0.950 . S
C1648 C1643 1.363 1_455 S
C1648 C1647 1.415 . S
C1649 H1625 0.951 . S
C1649 C1650 1.366 . S
C1649 C1651 1.388 . S
C1650 C1649 1.366 . S
C1650 C1654 1.385 1_655 S
C1651 H1626 0.951 . S
C1651 C1649 1.388 . S
C1651 C1652 1.366 . S
C1652 C1651 1.366 . S
C1652 C1653 1.414 1_655 S
C1652 C1655 1.499 . S
C1653 H1627 0.950 . S
C1653 C1652 1.414 1_455 S
C1653 C1654 1.374 . S
C1654 H1628 0.950 . S
C1654 C1650 1.385 1_455 S
C1654 C1653 1.374 . S
C1655 C1652 1.499 . S
C1655 C1656 1.373 . S
C1655 C1657 1.389 . S
C1656 H1629 0.950 . S
C1656 C1642 1.377 . S
C1656 C1655 1.373 . S
C1657 C1641 1.377 . S
C1657 C1655 1.389 . S
C1657 C1658 1.524 . S
C1658 C1657 1.524 . S
C1658 C1659 1.397 1_655 S
C1658 C1663 1.363 . S
C1659 H1630 0.950 . S
C1659 C1658 1.397 1_455 S
C1659 C1660 1.334 . S
C1660 H1631 0.950 . S
C1660 C1659 1.334 . S
C1660 C1661 1.299 . S
C1661 C1660 1.299 . S
C1661 C1662 1.512 1_455 S
C1661 H1664 1.008 . S
C1662 H1632 0.950 . S
C1662 C1661 1.512 1_655 S
C1662 C1663 1.415 . S
C1663 H1633 0.950 . S
C1663 C1658 1.363 . S
C1663 C1662 1.415 . S
H1664 C1661 1.008 . S
H1665 C1646 0.913 . S
H1666 C1684 0.951 . S
H1667 C1686 0.951 . S
H1668 C1688 0.950 . S
H1669 C1689 0.950 . S
H1670 C1691 0.950 . S
H1671 C1694 0.950 . S
H1672 C1695 0.950 . S
H1673 C1697 0.950 . S
H1674 C1698 0.950 . S
H1675 C1699 0.951 . S
H1676 C1701 0.951 . S
H1677 C1703 0.950 . S
H1678 C1704 0.950 . S
H1679 C1706 0.950 . S
H1680 C1709 0.950 . S
H1681 C1710 0.950 . S
H1682 C1712 0.950 . S
H1683 C1713 0.950 . S
C1684 H1666 0.951 . S
C1684 C1685 1.366 . S
C1684 C1686 1.388 . S
C1685 C1684 1.366 . S
C1685 C1689 1.385 . S
C1686 H1667 0.951 . S
C1686 C1684 1.388 . S
C1686 C1687 1.366 . S
C1687 C1686 1.366 . S
C1687 C1688 1.414 . S
C1687 C1690 1.499 . S
C1688 H1668 0.950 . S
C1688 C1687 1.414 . S
C1688 C1689 1.374 . S
C1689 H1669 0.950 . S
C1689 C1685 1.385 . S
C1689 C1688 1.374 . S
C1690 C1687 1.499 . S
C1690 C1691 1.373 . S
C1690 C1692 1.389 . S
C1691 H1670 0.950 . S
C1691 C1690 1.373 . S
C1691 C1707 1.377 . S
C1692 C1690 1.389 . S
C1692 C1693 1.524 . S
C1692 C1706 1.377 . S
C1693 C1692 1.524 . S
C1693 C1694 1.397 . S
C1693 C1698 1.363 . S
C1694 H1671 0.950 . S
C1694 C1693 1.397 . S
C1694 C1695 1.334 . S
C1695 H1672 0.950 . S
C1695 C1694 1.334 . S
C1695 C1696 1.287 . S
C1696 C1695 1.287 . S
C1696 C1697 1.524 . S
C1696 H1715 0.913 . S
C1697 H1673 0.950 . S
C1697 C1696 1.524 . S
C1697 C1698 1.415 . S
C1698 H1674 0.950 . S
C1698 C1693 1.363 . S
C1698 C1697 1.415 . S
C1699 H1675 0.951 . S
C1699 C1700 1.366 . S
C1699 C1701 1.388 . S
C1700 C1699 1.366 . S
C1700 C1704 1.385 . S
C1701 H1676 0.951 . S
C1701 C1699 1.388 . S
C1701 C1702 1.366 . S
C1702 C1701 1.366 . S
C1702 C1703 1.414 . S
C1702 C1705 1.499 . S
C1703 H1677 0.950 . S
C1703 C1702 1.414 . S
C1703 C1704 1.374 . S
C1704 H1678 0.950 . S
C1704 C1700 1.385 . S
C1704 C1703 1.374 . S
C1705 C1702 1.499 . S
C1705 C1706 1.373 . S
C1705 C1707 1.389 . S
C1706 H1679 0.950 . S
C1706 C1692 1.377 . S
C1706 C1705 1.373 . S
C1707 C1691 1.377 . S
C1707 C1705 1.389 . S
C1707 C1708 1.524 . S
C1708 C1707 1.524 . S
C1708 C1709 1.397 . S
C1708 C1713 1.363 . S
C1709 H1680 0.950 . S
C1709 C1708 1.397 . S
C1709 C1710 1.334 . S
C1710 H1681 0.950 . S
C1710 C1709 1.334 . S
C1710 C1711 1.287 . S
C1711 C1710 1.287 . S
C1711 C1712 1.524 . S
C1711 H1714 0.999 . S
C1712 H1682 0.950 . S
C1712 C1711 1.524 . S
C1712 C1713 1.415 . S
C1713 H1683 0.950 . S
C1713 C1708 1.363 . S
C1713 C1712 1.415 . S
H1714 C1711 0.999 . S
H1715 C1696 0.913 . S
H1716 C1734 0.951 . S
H1717 C1736 0.951 . S
H1718 C1738 0.950 . S
H1719 C1739 0.950 . S
H1720 C1741 0.950 . S
H1721 C1744 0.950 . S
H1722 C1745 0.950 . S
H1723 C1747 0.950 . S
H1724 C1748 0.950 . S
H1725 C1749 0.951 . S
H1726 C1751 0.951 . S
H1727 C1753 0.950 . S
H1728 C1754 0.950 . S
H1729 C1756 0.950 . S
H1730 C1759 0.950 . S
H1731 C1760 0.950 . S
H1732 C1762 0.950 . S
H1733 C1763 0.950 . S
C1734 H1716 0.951 . S
C1734 C1735 1.366 . S
C1734 C1736 1.388 . S
C1735 C1734 1.366 . S
C1735 C1739 1.385 . S
C1736 H1717 0.951 . S
C1736 C1734 1.388 . S
C1736 C1737 1.366 . S
C1737 C1736 1.366 . S
C1737 C1738 1.414 . S
C1737 C1740 1.499 . S
C1738 H1718 0.950 . S
C1738 C1737 1.414 . S
C1738 C1739 1.374 . S
C1739 H1719 0.950 . S
C1739 C1735 1.385 . S
C1739 C1738 1.374 . S
C1740 C1737 1.499 . S
C1740 C1741 1.373 . S
C1740 C1742 1.389 . S
C1741 H1720 0.950 . S
C1741 C1740 1.373 . S
C1741 C1757 1.377 . S
C1742 C1740 1.389 . S
C1742 C1743 1.524 . S
C1742 C1756 1.377 . S
C1743 C1742 1.524 . S
C1743 C1744 1.397 . S
C1743 C1748 1.363 . S
C1744 H1721 0.950 . S
C1744 C1743 1.397 . S
C1744 C1745 1.334 . S
C1745 H1722 0.950 . S
C1745 C1744 1.334 . S
C1745 C1746 1.287 . S
C1746 C1745 1.287 . S
C1746 C1747 1.524 . S
C1746 H1765 0.913 . S
C1747 H1723 0.950 . S
C1747 C1746 1.524 . S
C1747 C1748 1.415 . S
C1748 H1724 0.950 . S
C1748 C1743 1.363 . S
C1748 C1747 1.415 . S
C1749 H1725 0.951 . S
C1749 C1750 1.366 . S
C1749 C1751 1.388 . S
C1750 C1749 1.366 . S
C1750 C1754 1.385 . S
C1751 H1726 0.951 . S
C1751 C1749 1.388 . S
C1751 C1752 1.366 . S
C1752 C1751 1.366 . S
C1752 C1753 1.414 . S
C1752 C1755 1.499 . S
C1753 H1727 0.950 . S
C1753 C1752 1.414 . S
C1753 C1754 1.374 . S
C1754 H1728 0.950 . S
C1754 C1750 1.385 . S
C1754 C1753 1.374 . S
C1755 C1752 1.499 . S
C1755 C1756 1.373 . S
C1755 C1757 1.389 . S
C1756 H1729 0.950 . S
C1756 C1742 1.377 . S
C1756 C1755 1.373 . S
C1757 C1741 1.377 . S
C1757 C1755 1.389 . S
C1757 C1758 1.524 . S
C1758 C1757 1.524 . S
C1758 C1759 1.397 . S
C1758 C1763 1.363 . S
C1759 H1730 0.950 . S
C1759 C1758 1.397 . S
C1759 C1760 1.334 . S
C1760 H1731 0.950 . S
C1760 C1759 1.334 . S
C1760 C1761 1.287 . S
C1761 C1760 1.287 . S
C1761 C1762 1.524 . S
C1761 H1764 0.999 . S
C1762 H1732 0.950 . S
C1762 C1761 1.524 . S
C1762 C1763 1.415 . S
C1763 H1733 0.950 . S
C1763 C1758 1.363 . S
C1763 C1762 1.415 . S
H1764 C1761 0.999 . S
H1765 C1746 0.913 . S
H1766 C1784 0.951 . S
H1767 C1786 0.951 . S
H1768 C1788 0.950 . S
H1769 C1789 0.950 . S
H1770 C1791 0.950 . S
H1771 C1794 0.950 . S
H1772 C1795 0.950 . S
H1773 C1797 0.950 . S
H1774 C1798 0.950 . S
H1775 C1799 0.951 . S
H1776 C1801 0.951 . S
H1777 C1803 0.950 . S
H1778 C1804 0.950 . S
H1779 C1806 0.950 . S
H1780 C1809 0.950 . S
H1781 C1810 0.950 . S
H1782 C1812 0.950 . S
H1783 C1813 0.950 . S
C1784 H1766 0.951 . S
C1784 C1785 1.366 . S
C1784 C1786 1.388 . S
C1785 C1784 1.366 . S
C1785 C1789 1.385 . S
C1786 H1767 0.951 . S
C1786 C1784 1.388 . S
C1786 C1787 1.366 . S
C1787 C1786 1.366 . S
C1787 C1788 1.414 . S
C1787 C1790 1.499 . S
C1788 H1768 0.950 . S
C1788 C1787 1.414 . S
C1788 C1789 1.374 . S
C1789 H1769 0.950 . S
C1789 C1785 1.385 . S
C1789 C1788 1.374 . S
C1790 C1787 1.499 . S
C1790 C1791 1.373 . S
C1790 C1792 1.389 . S
C1791 H1770 0.950 . S
C1791 C1790 1.373 . S
C1791 C1807 1.377 . S
C1792 C1790 1.389 . S
C1792 C1793 1.524 . S
C1792 C1806 1.377 . S
C1793 C1792 1.524 . S
C1793 C1794 1.397 . S
C1793 C1798 1.363 . S
C1794 H1771 0.950 . S
C1794 C1793 1.397 . S
C1794 C1795 1.334 . S
C1795 H1772 0.950 . S
C1795 C1794 1.334 . S
C1795 C1796 1.287 . S
C1796 C1795 1.287 . S
C1796 C1797 1.524 . S
C1796 H1815 0.913 . S
C1797 H1773 0.950 . S
C1797 C1796 1.524 . S
C1797 C1798 1.415 . S
C1798 H1774 0.950 . S
C1798 C1793 1.363 . S
C1798 C1797 1.415 . S
C1799 H1775 0.951 . S
C1799 C1800 1.366 . S
C1799 C1801 1.388 . S
C1800 C1799 1.366 . S
C1800 C1804 1.385 . S
C1801 H1776 0.951 . S
C1801 C1799 1.388 . S
C1801 C1802 1.366 . S
C1802 C1801 1.366 . S
C1802 C1803 1.414 . S
C1802 C1805 1.499 . S
C1803 H1777 0.950 . S
C1803 C1802 1.414 . S
C1803 C1804 1.374 . S
C1804 H1778 0.950 . S
C1804 C1800 1.385 . S
C1804 C1803 1.374 . S
C1805 C1802 1.499 . S
C1805 C1806 1.373 . S
C1805 C1807 1.389 . S
C1806 H1779 0.950 . S
C1806 C1792 1.377 . S
C1806 C1805 1.373 . S
C1807 C1791 1.377 . S
C1807 C1805 1.389 . S
C1807 C1808 1.524 . S
C1808 C1807 1.524 . S
C1808 C1809 1.397 . S
C1808 C1813 1.363 . S
C1809 H1780 0.950 . S
C1809 C1808 1.397 . S
C1809 C1810 1.334 . S
C1810 H1781 0.950 . S
C1810 C1809 1.334 . S
C1810 C1811 1.287 . S
C1811 C1810 1.287 . S
C1811 C1812 1.524 . S
C1811 H1814 0.999 . S
C1812 H1782 0.950 . S
C1812 C1811 1.524 . S
C1812 C1813 1.415 . S
C1813 H1783 0.950 . S
C1813 C1808 1.363 . S
C1813 C1812 1.415 . S
H1814 C1811 0.999 . S
H1815 C1796 0.913 . S
H1816 C1834 0.951 . S
H1817 C1836 0.951 . S
H1818 C1838 0.950 . S
H1819 C1839 0.950 . S
H1820 C1841 0.950 . S
H1821 C1844 0.950 . S
H1822 C1845 0.950 . S
H1823 C1847 0.950 . S
H1824 C1848 0.950 . S
H1825 C1849 0.951 . S
H1826 C1851 0.951 . S
H1827 C1853 0.950 . S
H1828 C1854 0.950 . S
H1829 C1856 0.950 . S
H1830 C1859 0.950 . S
H1831 C1860 0.950 . S
H1832 C1862 0.950 . S
H1833 C1863 0.950 . S
C1834 H1816 0.951 . S
C1834 C1835 1.366 . S
C1834 C1836 1.388 . S
C1835 C1834 1.366 . S
C1835 C1839 1.385 . S
C1836 H1817 0.951 . S
C1836 C1834 1.388 . S
C1836 C1837 1.366 . S
C1837 C1836 1.366 . S
C1837 C1838 1.414 . S
C1837 C1840 1.499 . S
C1838 H1818 0.950 . S
C1838 C1837 1.414 . S
C1838 C1839 1.374 . S
C1839 H1819 0.950 . S
C1839 C1835 1.385 . S
C1839 C1838 1.374 . S
C1840 C1837 1.499 . S
C1840 C1841 1.373 . S
C1840 C1842 1.389 . S
C1841 H1820 0.950 . S
C1841 C1840 1.373 . S
C1841 C1857 1.377 . S
C1842 C1840 1.389 . S
C1842 C1843 1.524 . S
C1842 C1856 1.377 . S
C1843 C1842 1.524 . S
C1843 C1844 1.397 . S
C1843 C1848 1.363 . S
C1844 H1821 0.950 . S
C1844 C1843 1.397 . S
C1844 C1845 1.334 . S
C1845 H1822 0.950 . S
C1845 C1844 1.334 . S
C1845 C1846 1.287 . S
C1846 C1845 1.287 . S
C1846 C1847 1.524 . S
C1846 H1865 0.913 . S
C1847 H1823 0.950 . S
C1847 C1846 1.524 . S
C1847 C1848 1.415 . S
C1848 H1824 0.950 . S
C1848 C1843 1.363 . S
C1848 C1847 1.415 . S
C1849 H1825 0.951 . S
C1849 C1850 1.366 . S
C1849 C1851 1.388 . S
C1850 C1849 1.366 . S
C1850 C1854 1.385 . S
C1851 H1826 0.951 . S
C1851 C1849 1.388 . S
C1851 C1852 1.366 . S
C1852 C1851 1.366 . S
C1852 C1853 1.414 . S
C1852 C1855 1.499 . S
C1853 H1827 0.950 . S
C1853 C1852 1.414 . S
C1853 C1854 1.374 . S
C1854 H1828 0.950 . S
C1854 C1850 1.385 . S
C1854 C1853 1.374 . S
C1855 C1852 1.499 . S
C1855 C1856 1.373 . S
C1855 C1857 1.389 . S
C1856 H1829 0.950 . S
C1856 C1842 1.377 . S
C1856 C1855 1.373 . S
C1857 C1841 1.377 . S
C1857 C1855 1.389 . S
C1857 C1858 1.524 . S
C1858 C1857 1.524 . S
C1858 C1859 1.397 . S
C1858 C1863 1.363 . S
C1859 H1830 0.950 . S
C1859 C1858 1.397 . S
C1859 C1860 1.334 . S
C1860 H1831 0.950 . S
C1860 C1859 1.334 . S
C1860 C1861 1.287 . S
C1861 C1860 1.287 . S
C1861 C1862 1.524 . S
C1861 H1864 0.999 . S
C1862 H1832 0.950 . S
C1862 C1861 1.524 . S
C1862 C1863 1.415 . S
C1863 H1833 0.950 . S
C1863 C1858 1.363 . S
C1863 C1862 1.415 . S
H1864 C1861 0.999 . S
H1865 C1846 0.913 . S
H1866 C1884 0.951 . S
H1867 C1886 0.951 . S
H1868 C1888 0.950 . S
H1869 C1889 0.950 . S
H1870 C1891 0.950 . S
H1871 C1894 0.950 . S
H1872 C1895 0.950 . S
H1873 C1897 0.950 . S
H1874 C1898 0.950 . S
H1875 C1899 0.951 . S
H1876 C1901 0.951 . S
H1877 C1903 0.950 . S
H1878 C1904 0.950 . S
H1879 C1906 0.950 . S
H1880 C1909 0.950 . S
H1881 C1910 0.950 . S
H1882 C1912 0.950 . S
H1883 C1913 0.950 . S
C1884 H1866 0.951 . S
C1884 C1885 1.366 . S
C1884 C1886 1.388 . S
C1885 C1884 1.366 . S
C1885 C1889 1.385 . S
C1886 H1867 0.951 . S
C1886 C1884 1.388 . S
C1886 C1887 1.366 . S
C1887 C1886 1.366 . S
C1887 C1888 1.414 . S
C1887 C1890 1.499 . S
C1888 H1868 0.950 . S
C1888 C1887 1.414 . S
C1888 C1889 1.374 . S
C1889 H1869 0.950 . S
C1889 C1885 1.385 . S
C1889 C1888 1.374 . S
C1890 C1887 1.499 . S
C1890 C1891 1.373 . S
C1890 C1892 1.389 . S
C1891 H1870 0.950 . S
C1891 C1890 1.373 . S
C1891 C1907 1.377 . S
C1892 C1890 1.389 . S
C1892 C1893 1.524 . S
C1892 C1906 1.377 . S
C1893 C1892 1.524 . S
C1893 C1894 1.397 . S
C1893 C1898 1.363 . S
C1894 H1871 0.950 . S
C1894 C1893 1.397 . S
C1894 C1895 1.334 . S
C1895 H1872 0.950 . S
C1895 C1894 1.334 . S
C1895 C1896 1.287 . S
C1896 C1895 1.287 . S
C1896 C1897 1.524 . S
C1896 H1915 0.913 . S
C1897 H1873 0.950 . S
C1897 C1896 1.524 . S
C1897 C1898 1.415 . S
C1898 H1874 0.950 . S
C1898 C1893 1.363 . S
C1898 C1897 1.415 . S
C1899 H1875 0.951 . S
C1899 C1900 1.366 . S
C1899 C1901 1.388 . S
C1900 C1899 1.366 . S
C1900 C1904 1.385 . S
C1901 H1876 0.951 . S
C1901 C1899 1.388 . S
C1901 C1902 1.366 . S
C1902 C1901 1.366 . S
C1902 C1903 1.414 . S
C1902 C1905 1.499 . S
C1903 H1877 0.950 . S
C1903 C1902 1.414 . S
C1903 C1904 1.374 . S
C1904 H1878 0.950 . S
C1904 C1900 1.385 . S
C1904 C1903 1.374 . S
C1905 C1902 1.499 . S
C1905 C1906 1.373 . S
C1905 C1907 1.389 . S
C1906 H1879 0.950 . S
C1906 C1892 1.377 . S
C1906 C1905 1.373 . S
C1907 C1891 1.377 . S
C1907 C1905 1.389 . S
C1907 C1908 1.524 . S
C1908 C1907 1.524 . S
C1908 C1909 1.397 . S
C1908 C1913 1.363 . S
C1909 H1880 0.950 . S
C1909 C1908 1.397 . S
C1909 C1910 1.334 . S
C1910 H1881 0.950 . S
C1910 C1909 1.334 . S
C1910 C1911 1.287 . S
C1911 C1910 1.287 . S
C1911 C1912 1.524 . S
C1911 H1914 0.999 . S
C1912 H1882 0.950 . S
C1912 C1911 1.524 . S
C1912 C1913 1.415 . S
C1913 H1883 0.950 . S
C1913 C1908 1.363 . S
C1913 C1912 1.415 . S
H1914 C1911 0.999 . S
H1915 C1896 0.913 . S
H1916 C1934 0.951 . S
H1917 C1936 0.951 . S
H1918 C1938 0.950 . S
H1919 C1939 0.950 . S
H1920 C1941 0.950 . S
H1921 C1944 0.950 . S
H1922 C1945 0.950 . S
H1923 C1947 0.950 . S
H1924 C1948 0.950 . S
H1925 C1949 0.951 . S
H1926 C1951 0.951 . S
H1927 C1953 0.950 . S
H1928 C1954 0.950 . S
H1929 C1956 0.950 . S
H1930 C1959 0.950 . S
H1931 C1960 0.950 . S
H1932 C1962 0.950 . S
H1933 C1963 0.950 . S
C1934 H1916 0.951 . S
C1934 C1935 1.366 . S
C1934 C1936 1.388 . S
C1935 C1934 1.366 . S
C1935 C1939 1.385 . S
C1936 H1917 0.951 . S
C1936 C1934 1.388 . S
C1936 C1937 1.366 . S
C1937 C1936 1.366 . S
C1937 C1938 1.414 . S
C1937 C1940 1.499 . S
C1938 H1918 0.950 . S
C1938 C1937 1.414 . S
C1938 C1939 1.374 . S
C1939 H1919 0.950 . S
C1939 C1935 1.385 . S
C1939 C1938 1.374 . S
C1940 C1937 1.499 . S
C1940 C1941 1.373 . S
C1940 C1942 1.389 . S
C1941 H1920 0.950 . S
C1941 C1940 1.373 . S
C1941 C1957 1.377 . S
C1942 C1940 1.389 . S
C1942 C1943 1.524 . S
C1942 C1956 1.377 . S
C1943 C1942 1.524 . S
C1943 C1944 1.397 . S
C1943 C1948 1.363 . S
C1944 H1921 0.950 . S
C1944 C1943 1.397 . S
C1944 C1945 1.334 . S
C1945 H1922 0.950 . S
C1945 C1944 1.334 . S
C1945 C1946 1.287 . S
C1946 C1945 1.287 . S
C1946 C1947 1.524 . S
C1946 H1965 0.913 . S
C1947 H1923 0.950 . S
C1947 C1946 1.524 . S
C1947 C1948 1.415 . S
C1948 H1924 0.950 . S
C1948 C1943 1.363 . S
C1948 C1947 1.415 . S
C1949 H1925 0.951 . S
C1949 C1950 1.366 . S
C1949 C1951 1.388 . S
C1950 C1949 1.366 . S
C1950 C1954 1.385 . S
C1951 H1926 0.951 . S
C1951 C1949 1.388 . S
C1951 C1952 1.366 . S
C1952 C1951 1.366 . S
C1952 C1953 1.414 . S
C1952 C1955 1.499 . S
C1953 H1927 0.950 . S
C1953 C1952 1.414 . S
C1953 C1954 1.374 . S
C1954 H1928 0.950 . S
C1954 C1950 1.385 . S
C1954 C1953 1.374 . S
C1955 C1952 1.499 . S
C1955 C1956 1.373 . S
C1955 C1957 1.389 . S
C1956 H1929 0.950 . S
C1956 C1942 1.377 . S
C1956 C1955 1.373 . S
C1957 C1941 1.377 . S
C1957 C1955 1.389 . S
C1957 C1958 1.524 . S
C1958 C1957 1.524 . S
C1958 C1959 1.397 . S
C1958 C1963 1.363 . S
C1959 H1930 0.950 . S
C1959 C1958 1.397 . S
C1959 C1960 1.334 . S
C1960 H1931 0.950 . S
C1960 C1959 1.334 . S
C1960 C1961 1.287 . S
C1961 C1960 1.287 . S
C1961 C1962 1.524 . S
C1961 H1964 0.999 . S
C1962 H1932 0.950 . S
C1962 C1961 1.524 . S
C1962 C1963 1.415 . S
C1963 H1933 0.950 . S
C1963 C1958 1.363 . S
C1963 C1962 1.415 . S
H1964 C1961 0.999 . S
H1965 C1946 0.913 . S
H1966 C1984 0.951 . S
H1967 C1986 0.951 . S
H1968 C1988 0.950 . S
H1969 C1989 0.950 . S
H1970 C1991 0.950 . S
H1971 C1994 0.950 . S
H1972 C1995 0.950 . S
H1973 C1997 0.950 . S
H1974 C1998 0.950 . S
H1975 C1999 0.951 . S
H1976 C2001 0.951 . S
H1977 C2003 0.950 . S
H1978 C2004 0.950 . S
H1979 C2006 0.950 . S
H1980 C2009 0.950 . S
H1981 C2010 0.950 . S
H1982 C2012 0.950 . S
H1983 C2013 0.950 . S
C1984 H1966 0.951 . S
C1984 C1985 1.366 . S
C1984 C1986 1.388 . S
C1985 C1984 1.366 . S
C1985 C1989 1.385 . S
C1986 H1967 0.951 . S
C1986 C1984 1.388 . S
C1986 C1987 1.366 . S
C1987 C1986 1.366 . S
C1987 C1988 1.414 . S
C1987 C1990 1.499 . S
C1988 H1968 0.950 . S
C1988 C1987 1.414 . S
C1988 C1989 1.374 . S
C1989 H1969 0.950 . S
C1989 C1985 1.385 . S
C1989 C1988 1.374 . S
C1990 C1987 1.499 . S
C1990 C1991 1.373 . S
C1990 C1992 1.389 . S
C1991 H1970 0.950 . S
C1991 C1990 1.373 . S
C1991 C2007 1.377 . S
C1992 C1990 1.389 . S
C1992 C1993 1.524 . S
C1992 C2006 1.377 . S
C1993 C1992 1.524 . S
C1993 C1994 1.397 . S
C1993 C1998 1.363 . S
C1994 H1971 0.950 . S
C1994 C1993 1.397 . S
C1994 C1995 1.334 . S
C1995 H1972 0.950 . S
C1995 C1994 1.334 . S
C1995 C1996 1.287 . S
C1996 C1995 1.287 . S
C1996 C1997 1.524 . S
C1996 H2015 0.913 1_565 S
C1997 H1973 0.950 . S
C1997 C1996 1.524 . S
C1997 C1998 1.415 . S
C1998 H1974 0.950 . S
C1998 C1993 1.363 . S
C1998 C1997 1.415 . S
C1999 H1975 0.951 . S
C1999 C2000 1.366 . S
C1999 C2001 1.388 . S
C2000 C1999 1.366 . S
C2000 C2004 1.385 . S
C2001 H1976 0.951 . S
C2001 C1999 1.388 . S
C2001 C2002 1.366 . S
C2002 C2001 1.366 . S
C2002 C2003 1.414 . S
C2002 C2005 1.499 . S
C2003 H1977 0.950 . S
C2003 C2002 1.414 . S
C2003 C2004 1.374 . S
C2004 H1978 0.950 . S
C2004 C2000 1.385 . S
C2004 C2003 1.374 . S
C2005 C2002 1.499 . S
C2005 C2006 1.373 . S
C2005 C2007 1.389 . S
C2006 H1979 0.950 . S
C2006 C1992 1.377 . S
C2006 C2005 1.373 . S
C2007 C1991 1.377 . S
C2007 C2005 1.389 . S
C2007 C2008 1.524 . S
C2008 C2007 1.524 . S
C2008 C2009 1.397 . S
C2008 C2013 1.363 . S
C2009 H1980 0.950 . S
C2009 C2008 1.397 . S
C2009 C2010 1.334 . S
C2010 H1981 0.950 . S
C2010 C2009 1.334 . S
C2010 C2011 1.287 . S
C2011 C2010 1.287 . S
C2011 C2012 1.524 . S
C2011 H2014 0.999 . S
C2012 H1982 0.950 . S
C2012 C2011 1.524 . S
C2012 C2013 1.415 . S
C2013 H1983 0.950 . S
C2013 C2008 1.363 . S
C2013 C2012 1.415 . S
H2014 C2011 0.999 . S
H2015 C1996 0.913 1_545 S
H2016 C2034 0.951 . S
H2017 C2036 0.951 . S
H2018 C2038 0.950 . S
H2019 C2039 0.950 . S
H2020 C2041 0.950 . S
H2021 C2044 0.950 . S
H2022 C2045 0.950 . S
H2023 C2047 0.950 . S
H2024 C2048 0.950 . S
H2025 C2049 0.951 . S
H2026 C2051 0.951 . S
H2027 C2053 0.950 . S
H2028 C2054 0.950 . S
H2029 C2056 0.950 . S
H2030 C2059 0.950 . S
H2031 C2060 0.950 . S
H2032 C2062 0.950 . S
H2033 C2063 0.950 . S
C2034 H2016 0.951 . S
C2034 C2035 1.366 . S
C2034 C2036 1.388 . S
C2035 C2034 1.366 . S
C2035 C2039 1.385 . S
C2036 H2017 0.951 . S
C2036 C2034 1.388 . S
C2036 C2037 1.366 . S
C2037 C2036 1.366 . S
C2037 C2038 1.414 . S
C2037 C2040 1.499 . S
C2038 H2018 0.950 . S
C2038 C2037 1.414 . S
C2038 C2039 1.374 . S
C2039 H2019 0.950 . S
C2039 C2035 1.385 . S
C2039 C2038 1.374 . S
C2040 C2037 1.499 . S
C2040 C2041 1.373 . S
C2040 C2042 1.389 . S
C2041 H2020 0.950 . S
C2041 C2040 1.373 . S
C2041 C2057 1.377 . S
C2042 C2040 1.389 . S
C2042 C2043 1.524 . S
C2042 C2056 1.377 . S
C2043 C2042 1.524 . S
C2043 C2044 1.397 . S
C2043 C2048 1.363 . S
C2044 H2021 0.950 . S
C2044 C2043 1.397 . S
C2044 C2045 1.334 . S
C2045 H2022 0.950 . S
C2045 C2044 1.334 . S
C2045 C2046 1.287 . S
C2046 C2045 1.287 . S
C2046 C2047 1.524 . S
C2046 H2065 0.913 . S
C2047 H2023 0.950 . S
C2047 C2046 1.524 . S
C2047 C2048 1.415 . S
C2048 H2024 0.950 . S
C2048 C2043 1.363 . S
C2048 C2047 1.415 . S
C2049 H2025 0.951 . S
C2049 C2050 1.366 . S
C2049 C2051 1.388 . S
C2050 C2049 1.366 . S
C2050 C2054 1.385 . S
C2051 H2026 0.951 . S
C2051 C2049 1.388 . S
C2051 C2052 1.366 . S
C2052 C2051 1.366 . S
C2052 C2053 1.414 . S
C2052 C2055 1.499 . S
C2053 H2027 0.950 . S
C2053 C2052 1.414 . S
C2053 C2054 1.374 . S
C2054 H2028 0.950 . S
C2054 C2050 1.385 . S
C2054 C2053 1.374 . S
C2055 C2052 1.499 . S
C2055 C2056 1.373 . S
C2055 C2057 1.389 . S
C2056 H2029 0.950 . S
C2056 C2042 1.377 . S
C2056 C2055 1.373 . S
C2057 C2041 1.377 . S
C2057 C2055 1.389 . S
C2057 C2058 1.524 . S
C2058 C2057 1.524 . S
C2058 C2059 1.397 . S
C2058 C2063 1.363 . S
C2059 H2030 0.950 . S
C2059 C2058 1.397 . S
C2059 C2060 1.334 . S
C2060 H2031 0.950 . S
C2060 C2059 1.334 . S
C2060 C2061 1.287 . S
C2061 C2060 1.287 . S
C2061 C2062 1.524 . S
C2061 H2064 0.999 . S
C2062 H2032 0.950 . S
C2062 C2061 1.524 . S
C2062 C2063 1.415 . S
C2063 H2033 0.950 . S
C2063 C2058 1.363 . S
C2063 C2062 1.415 . S
H2064 C2061 0.999 . S
H2065 C2046 0.913 . S
H2066 C2084 0.951 . S
H2067 C2086 0.951 . S
H2068 C2088 0.950 . S
H2069 C2089 0.950 . S
H2070 C2091 0.950 . S
H2071 C2094 0.950 . S
H2072 C2095 0.950 . S
H2073 C2097 0.950 . S
H2074 C2098 0.950 . S
H2075 C2099 0.951 . S
H2076 C2101 0.951 . S
H2077 C2103 0.950 . S
H2078 C2104 0.950 . S
H2079 C2106 0.950 . S
H2080 C2109 0.950 . S
H2081 C2110 0.950 . S
H2082 C2112 0.950 . S
H2083 C2113 0.950 . S
C2084 H2066 0.951 . S
C2084 C2085 1.366 . S
C2084 C2086 1.388 . S
C2085 C2084 1.366 . S
C2085 C2089 1.385 . S
C2086 H2067 0.951 . S
C2086 C2084 1.388 . S
C2086 C2087 1.366 . S
C2087 C2086 1.366 . S
C2087 C2088 1.414 . S
C2087 C2090 1.499 . S
C2088 H2068 0.950 . S
C2088 C2087 1.414 . S
C2088 C2089 1.374 . S
C2089 H2069 0.950 . S
C2089 C2085 1.385 . S
C2089 C2088 1.374 . S
C2090 C2087 1.499 . S
C2090 C2091 1.373 . S
C2090 C2092 1.389 . S
C2091 H2070 0.950 . S
C2091 C2090 1.373 . S
C2091 C2107 1.377 . S
C2092 C2090 1.389 . S
C2092 C2093 1.524 . S
C2092 C2106 1.377 . S
C2093 C2092 1.524 . S
C2093 C2094 1.397 . S
C2093 C2098 1.363 . S
C2094 H2071 0.950 . S
C2094 C2093 1.397 . S
C2094 C2095 1.334 . S
C2095 H2072 0.950 . S
C2095 C2094 1.334 . S
C2095 C2096 1.287 . S
C2096 C2095 1.287 . S
C2096 C2097 1.524 . S
C2096 H2115 0.913 . S
C2097 H2073 0.950 . S
C2097 C2096 1.524 . S
C2097 C2098 1.415 . S
C2098 H2074 0.950 . S
C2098 C2093 1.363 . S
C2098 C2097 1.415 . S
C2099 H2075 0.951 . S
C2099 C2100 1.366 . S
C2099 C2101 1.388 . S
C2100 C2099 1.366 . S
C2100 C2104 1.385 . S
C2101 H2076 0.951 . S
C2101 C2099 1.388 . S
C2101 C2102 1.366 . S
C2102 C2101 1.366 . S
C2102 C2103 1.414 . S
C2102 C2105 1.499 . S
C2103 H2077 0.950 . S
C2103 C2102 1.414 . S
C2103 C2104 1.374 . S
C2104 H2078 0.950 . S
C2104 C2100 1.385 . S
C2104 C2103 1.374 . S
C2105 C2102 1.499 . S
C2105 C2106 1.373 . S
C2105 C2107 1.389 . S
C2106 H2079 0.950 . S
C2106 C2092 1.377 . S
C2106 C2105 1.373 . S
C2107 C2091 1.377 . S
C2107 C2105 1.389 . S
C2107 C2108 1.524 . S
C2108 C2107 1.524 . S
C2108 C2109 1.397 . S
C2108 C2113 1.363 . S
C2109 H2080 0.950 . S
C2109 C2108 1.397 . S
C2109 C2110 1.334 . S
C2110 H2081 0.950 . S
C2110 C2109 1.334 . S
C2110 C2111 1.287 . S
C2111 C2110 1.287 . S
C2111 C2112 1.524 . S
C2111 H2114 0.999 . S
C2112 H2082 0.950 . S
C2112 C2111 1.524 . S
C2112 C2113 1.415 . S
C2113 H2083 0.950 . S
C2113 C2108 1.363 . S
C2113 C2112 1.415 . S
H2114 C2111 0.999 . S
H2115 C2096 0.913 . S
H2116 C2134 0.951 . S
H2117 C2136 0.951 . S
H2118 C2138 0.950 . S
H2119 C2139 0.950 . S
H2120 C2141 0.950 . S
H2121 C2144 0.950 . S
H2122 C2145 0.950 . S
H2123 C2147 0.950 . S
H2124 C2148 0.950 . S
H2125 C2149 0.951 . S
H2126 C2151 0.951 . S
H2127 C2153 0.950 . S
H2128 C2154 0.950 . S
H2129 C2156 0.950 . S
H2130 C2159 0.950 . S
H2131 C2160 0.950 . S
H2132 C2162 0.950 . S
H2133 C2163 0.950 . S
C2134 H2116 0.951 . S
C2134 C2135 1.366 . S
C2134 C2136 1.388 . S
C2135 C2134 1.366 . S
C2135 C2139 1.385 . S
C2136 H2117 0.951 . S
C2136 C2134 1.388 . S
C2136 C2137 1.366 . S
C2137 C2136 1.366 . S
C2137 C2138 1.414 . S
C2137 C2140 1.499 . S
C2138 H2118 0.950 . S
C2138 C2137 1.414 . S
C2138 C2139 1.374 . S
C2139 H2119 0.950 . S
C2139 C2135 1.385 . S
C2139 C2138 1.374 . S
C2140 C2137 1.499 . S
C2140 C2141 1.373 . S
C2140 C2142 1.389 . S
C2141 H2120 0.950 . S
C2141 C2140 1.373 . S
C2141 C2157 1.377 . S
C2142 C2140 1.389 . S
C2142 C2143 1.524 . S
C2142 C2156 1.377 . S
C2143 C2142 1.524 . S
C2143 C2144 1.397 . S
C2143 C2148 1.363 . S
C2144 H2121 0.950 . S
C2144 C2143 1.397 . S
C2144 C2145 1.334 . S
C2145 H2122 0.950 . S
C2145 C2144 1.334 . S
C2145 C2146 1.287 . S
C2146 C2145 1.287 . S
C2146 C2147 1.524 . S
C2146 H2165 0.913 . S
C2147 H2123 0.950 . S
C2147 C2146 1.524 . S
C2147 C2148 1.415 . S
C2148 H2124 0.950 . S
C2148 C2143 1.363 . S
C2148 C2147 1.415 . S
C2149 H2125 0.951 . S
C2149 C2150 1.366 . S
C2149 C2151 1.388 . S
C2150 C2149 1.366 . S
C2150 C2154 1.385 . S
C2151 H2126 0.951 . S
C2151 C2149 1.388 . S
C2151 C2152 1.366 . S
C2152 C2151 1.366 . S
C2152 C2153 1.414 . S
C2152 C2155 1.499 . S
C2153 H2127 0.950 . S
C2153 C2152 1.414 . S
C2153 C2154 1.374 . S
C2154 H2128 0.950 . S
C2154 C2150 1.385 . S
C2154 C2153 1.374 . S
C2155 C2152 1.499 . S
C2155 C2156 1.373 . S
C2155 C2157 1.389 . S
C2156 H2129 0.950 . S
C2156 C2142 1.377 . S
C2156 C2155 1.373 . S
C2157 C2141 1.377 . S
C2157 C2155 1.389 . S
C2157 C2158 1.524 . S
C2158 C2157 1.524 . S
C2158 C2159 1.397 . S
C2158 C2163 1.363 . S
C2159 H2130 0.950 . S
C2159 C2158 1.397 . S
C2159 C2160 1.334 . S
C2160 H2131 0.950 . S
C2160 C2159 1.334 . S
C2160 C2161 1.287 . S
C2161 C2160 1.287 . S
C2161 C2162 1.524 . S
C2161 H2164 0.999 . S
C2162 H2132 0.950 . S
C2162 C2161 1.524 . S
C2162 C2163 1.415 . S
C2163 H2133 0.950 . S
C2163 C2158 1.363 . S
C2163 C2162 1.415 . S
H2164 C2161 0.999 . S
H2165 C2146 0.913 . S
H2166 C2184 0.951 . S
H2167 C2186 0.951 . S
H2168 C2188 0.950 . S
H2169 C2189 0.950 . S
H2170 C2191 0.950 . S
H2171 C2194 0.950 . S
H2172 C2195 0.950 . S
H2173 C2197 0.950 . S
H2174 C2198 0.950 . S
H2175 C2199 0.951 . S
H2176 C2201 0.951 . S
H2177 C2203 0.950 . S
H2178 C2204 0.950 . S
H2179 C2206 0.950 . S
H2180 C2209 0.950 . S
H2181 C2210 0.950 . S
H2182 C2212 0.950 . S
H2183 C2213 0.950 . S
C2184 H2166 0.951 . S
C2184 C2185 1.366 . S
C2184 C2186 1.388 . S
C2185 C2184 1.366 . S
C2185 C2189 1.385 . S
C2186 H2167 0.951 . S
C2186 C2184 1.388 . S
C2186 C2187 1.366 . S
C2187 C2186 1.366 . S
C2187 C2188 1.414 . S
C2187 C2190 1.499 . S
C2188 H2168 0.950 . S
C2188 C2187 1.414 . S
C2188 C2189 1.374 . S
C2189 H2169 0.950 . S
C2189 C2185 1.385 . S
C2189 C2188 1.374 . S
C2190 C2187 1.499 . S
C2190 C2191 1.373 . S
C2190 C2192 1.389 . S
C2191 H2170 0.950 . S
C2191 C2190 1.373 . S
C2191 C2207 1.377 . S
C2192 C2190 1.389 . S
C2192 C2193 1.524 . S
C2192 C2206 1.377 . S
C2193 C2192 1.524 . S
C2193 C2194 1.397 . S
C2193 C2198 1.363 . S
C2194 H2171 0.950 . S
C2194 C2193 1.397 . S
C2194 C2195 1.334 . S
C2195 H2172 0.950 . S
C2195 C2194 1.334 . S
C2195 C2196 1.287 . S
C2196 C2195 1.287 . S
C2196 C2197 1.524 . S
C2196 H2215 0.913 . S
C2197 H2173 0.950 . S
C2197 C2196 1.524 . S
C2197 C2198 1.415 . S
C2198 H2174 0.950 . S
C2198 C2193 1.363 . S
C2198 C2197 1.415 . S
C2199 H2175 0.951 . S
C2199 C2200 1.366 . S
C2199 C2201 1.388 . S
C2200 C2199 1.366 . S
C2200 C2204 1.385 . S
C2201 H2176 0.951 . S
C2201 C2199 1.388 . S
C2201 C2202 1.366 . S
C2202 C2201 1.366 . S
C2202 C2203 1.414 . S
C2202 C2205 1.499 . S
C2203 H2177 0.950 . S
C2203 C2202 1.414 . S
C2203 C2204 1.374 . S
C2204 H2178 0.950 . S
C2204 C2200 1.385 . S
C2204 C2203 1.374 . S
C2205 C2202 1.499 . S
C2205 C2206 1.373 . S
C2205 C2207 1.389 . S
C2206 H2179 0.950 . S
C2206 C2192 1.377 . S
C2206 C2205 1.373 . S
C2207 C2191 1.377 . S
C2207 C2205 1.389 . S
C2207 C2208 1.524 . S
C2208 C2207 1.524 . S
C2208 C2209 1.397 . S
C2208 C2213 1.363 . S
C2209 H2180 0.950 . S
C2209 C2208 1.397 . S
C2209 C2210 1.334 . S
C2210 H2181 0.950 . S
C2210 C2209 1.334 . S
C2210 C2211 1.287 . S
C2211 C2210 1.287 . S
C2211 C2212 1.524 . S
C2211 H2214 0.999 . S
C2212 H2182 0.950 . S
C2212 C2211 1.524 . S
C2212 C2213 1.415 . S
C2213 H2183 0.950 . S
C2213 C2208 1.363 . S
C2213 C2212 1.415 . S
H2214 C2211 0.999 . S
H2215 C2196 0.913 . S
H2216 C2234 0.951 . S
H2217 C2236 0.951 . S
H2218 C2238 0.950 . S
H2219 C2239 0.950 . S
H2220 C2241 0.950 . S
H2221 C2244 0.950 . S
H2222 C2245 0.950 . S
H2223 C2247 0.950 . S
H2224 C2248 0.950 . S
H2225 C2249 0.951 . S
H2226 C2251 0.951 . S
H2227 C2253 0.950 . S
H2228 C2254 0.950 . S
H2229 C2256 0.950 . S
H2230 C2259 0.950 . S
H2231 C2260 0.950 . S
H2232 C2262 0.950 . S
H2233 C2263 0.950 . S
C2234 H2216 0.951 . S
C2234 C2235 1.366 . S
C2234 C2236 1.388 . S
C2235 C2234 1.366 . S
C2235 C2239 1.385 . S
C2236 H2217 0.951 . S
C2236 C2234 1.388 . S
C2236 C2237 1.366 . S
C2237 C2236 1.366 . S
C2237 C2238 1.414 . S
C2237 C2240 1.499 . S
C2238 H2218 0.950 . S
C2238 C2237 1.414 . S
C2238 C2239 1.374 . S
C2239 H2219 0.950 . S
C2239 C2235 1.385 . S
C2239 C2238 1.374 . S
C2240 C2237 1.499 . S
C2240 C2241 1.373 . S
C2240 C2242 1.389 . S
C2241 H2220 0.950 . S
C2241 C2240 1.373 . S
C2241 C2257 1.377 . S
C2242 C2240 1.389 . S
C2242 C2243 1.524 . S
C2242 C2256 1.377 . S
C2243 C2242 1.524 . S
C2243 C2244 1.397 . S
C2243 C2248 1.363 . S
C2244 H2221 0.950 . S
C2244 C2243 1.397 . S
C2244 C2245 1.334 . S
C2245 H2222 0.950 . S
C2245 C2244 1.334 . S
C2245 C2246 1.287 . S
C2246 C2245 1.287 . S
C2246 C2247 1.524 . S
C2246 H2265 0.913 . S
C2247 H2223 0.950 . S
C2247 C2246 1.524 . S
C2247 C2248 1.415 . S
C2248 H2224 0.950 . S
C2248 C2243 1.363 . S
C2248 C2247 1.415 . S
C2249 H2225 0.951 . S
C2249 C2250 1.366 . S
C2249 C2251 1.388 . S
C2250 C2249 1.366 . S
C2250 C2254 1.385 . S
C2251 H2226 0.951 . S
C2251 C2249 1.388 . S
C2251 C2252 1.366 . S
C2252 C2251 1.366 . S
C2252 C2253 1.414 . S
C2252 C2255 1.499 . S
C2253 H2227 0.950 . S
C2253 C2252 1.414 . S
C2253 C2254 1.374 . S
C2254 H2228 0.950 . S
C2254 C2250 1.385 . S
C2254 C2253 1.374 . S
C2255 C2252 1.499 . S
C2255 C2256 1.373 . S
C2255 C2257 1.389 . S
C2256 H2229 0.950 . S
C2256 C2242 1.377 . S
C2256 C2255 1.373 . S
C2257 C2241 1.377 . S
C2257 C2255 1.389 . S
C2257 C2258 1.524 . S
C2258 C2257 1.524 . S
C2258 C2259 1.397 . S
C2258 C2263 1.363 . S
C2259 H2230 0.950 . S
C2259 C2258 1.397 . S
C2259 C2260 1.334 . S
C2260 H2231 0.950 . S
C2260 C2259 1.334 . S
C2260 C2261 1.287 . S
C2261 C2260 1.287 . S
C2261 C2262 1.524 . S
C2261 H2264 0.999 . S
C2262 H2232 0.950 . S
C2262 C2261 1.524 . S
C2262 C2263 1.415 . S
C2263 H2233 0.950 . S
C2263 C2258 1.363 . S
C2263 C2262 1.415 . S
H2264 C2261 0.999 . S
H2265 C2246 0.913 . S
H2266 C2284 0.951 . S
H2267 C2286 0.951 . S
H2268 C2288 0.950 . S
H2269 C2289 0.950 . S
H2270 C2291 0.950 . S
H2271 C2294 0.950 . S
H2272 C2295 0.950 . S
H2273 C2297 0.950 . S
H2274 C2298 0.950 . S
H2275 C2299 0.951 . S
H2276 C2301 0.951 . S
H2277 C2303 0.950 . S
H2278 C2304 0.950 . S
H2279 C2306 0.950 . S
H2280 C2309 0.950 . S
H2281 C2310 0.950 . S
H2282 C2312 0.950 . S
H2283 C2313 0.950 . S
C2284 H2266 0.951 . S
C2284 C2285 1.366 . S
C2284 C2286 1.388 . S
C2285 C2284 1.366 . S
C2285 C2289 1.385 . S
C2286 H2267 0.951 . S
C2286 C2284 1.388 . S
C2286 C2287 1.366 . S
C2287 C2286 1.366 . S
C2287 C2288 1.414 . S
C2287 C2290 1.499 . S
C2288 H2268 0.950 . S
C2288 C2287 1.414 . S
C2288 C2289 1.374 . S
C2289 H2269 0.950 . S
C2289 C2285 1.385 . S
C2289 C2288 1.374 . S
C2290 C2287 1.499 . S
C2290 C2291 1.373 . S
C2290 C2292 1.389 . S
C2291 H2270 0.950 . S
C2291 C2290 1.373 . S
C2291 C2307 1.377 . S
C2292 C2290 1.389 . S
C2292 C2293 1.524 . S
C2292 C2306 1.377 . S
C2293 C2292 1.524 . S
C2293 C2294 1.397 . S
C2293 C2298 1.363 . S
C2294 H2271 0.950 . S
C2294 C2293 1.397 . S
C2294 C2295 1.334 . S
C2295 H2272 0.950 . S
C2295 C2294 1.334 . S
C2295 C2296 1.287 . S
C2296 C2295 1.287 . S
C2296 C2297 1.524 . S
C2296 H2315 0.913 . S
C2297 H2273 0.950 . S
C2297 C2296 1.524 . S
C2297 C2298 1.415 . S
C2298 H2274 0.950 . S
C2298 C2293 1.363 . S
C2298 C2297 1.415 . S
C2299 H2275 0.951 . S
C2299 C2300 1.366 . S
C2299 C2301 1.388 . S
C2300 C2299 1.366 . S
C2300 C2304 1.385 . S
C2301 H2276 0.951 . S
C2301 C2299 1.388 . S
C2301 C2302 1.366 . S
C2302 C2301 1.366 . S
C2302 C2303 1.414 . S
C2302 C2305 1.499 . S
C2303 H2277 0.950 . S
C2303 C2302 1.414 . S
C2303 C2304 1.374 . S
C2304 H2278 0.950 . S
C2304 C2300 1.385 . S
C2304 C2303 1.374 . S
C2305 C2302 1.499 . S
C2305 C2306 1.373 . S
C2305 C2307 1.389 . S
C2306 H2279 0.950 . S
C2306 C2292 1.377 . S
C2306 C2305 1.373 . S
C2307 C2291 1.377 . S
C2307 C2305 1.389 . S
C2307 C2308 1.524 . S
C2308 C2307 1.524 . S
C2308 C2309 1.397 . S
C2308 C2313 1.363 . S
C2309 H2280 0.950 . S
C2309 C2308 1.397 . S
C2309 C2310 1.334 . S
C2310 H2281 0.950 . S
C2310 C2309 1.334 . S
C2310 C2311 1.287 . S
C2311 C2310 1.287 . S
C2311 C2312 1.524 . S
C2311 H2314 0.999 . S
C2312 H2282 0.950 . S
C2312 C2311 1.524 . S
C2312 C2313 1.415 . S
C2313 H2283 0.950 . S
C2313 C2308 1.363 . S
C2313 C2312 1.415 . S
H2314 C2311 0.999 . S
H2315 C2296 0.913 . S
H2316 C2334 0.951 . S
H2317 C2336 0.951 . S
H2318 C2338 0.950 . S
H2319 C2339 0.950 . S
H2320 C2341 0.950 . S
H2321 C2344 0.950 . S
H2322 C2345 0.950 . S
H2323 C2347 0.950 . S
H2324 C2348 0.950 . S
H2325 C2349 0.951 . S
H2326 C2351 0.951 . S
H2327 C2353 0.950 . S
H2328 C2354 0.950 . S
H2329 C2356 0.950 . S
H2330 C2359 0.950 . S
H2331 C2360 0.950 . S
H2332 C2362 0.950 . S
H2333 C2363 0.950 . S
C2334 H2316 0.951 . S
C2334 C2335 1.366 . S
C2334 C2336 1.388 . S
C2335 C2334 1.366 . S
C2335 C2339 1.385 . S
C2336 H2317 0.951 . S
C2336 C2334 1.388 . S
C2336 C2337 1.366 . S
C2337 C2336 1.366 . S
C2337 C2338 1.414 . S
C2337 C2340 1.499 . S
C2338 H2318 0.950 . S
C2338 C2337 1.414 . S
C2338 C2339 1.374 . S
C2339 H2319 0.950 . S
C2339 C2335 1.385 . S
C2339 C2338 1.374 . S
C2340 C2337 1.499 . S
C2340 C2341 1.373 . S
C2340 C2342 1.389 . S
C2341 H2320 0.950 . S
C2341 C2340 1.373 . S
C2341 C2357 1.377 . S
C2342 C2340 1.389 . S
C2342 C2343 1.524 . S
C2342 C2356 1.377 . S
C2343 C2342 1.524 . S
C2343 C2344 1.397 . S
C2343 C2348 1.363 . S
C2344 H2321 0.950 . S
C2344 C2343 1.397 . S
C2344 C2345 1.334 . S
C2345 H2322 0.950 . S
C2345 C2344 1.334 . S
C2345 C2346 1.287 . S
C2346 C2345 1.287 . S
C2346 C2347 1.524 . S
C2346 H2365 0.913 . S
C2347 H2323 0.950 . S
C2347 C2346 1.524 . S
C2347 C2348 1.415 . S
C2348 H2324 0.950 . S
C2348 C2343 1.363 . S
C2348 C2347 1.415 . S
C2349 H2325 0.951 . S
C2349 C2350 1.366 . S
C2349 C2351 1.388 . S
C2350 C2349 1.366 . S
C2350 C2354 1.385 . S
C2351 H2326 0.951 . S
C2351 C2349 1.388 . S
C2351 C2352 1.366 . S
C2352 C2351 1.366 . S
C2352 C2353 1.414 . S
C2352 C2355 1.499 . S
C2353 H2327 0.950 . S
C2353 C2352 1.414 . S
C2353 C2354 1.374 . S
C2354 H2328 0.950 . S
C2354 C2350 1.385 . S
C2354 C2353 1.374 . S
C2355 C2352 1.499 . S
C2355 C2356 1.373 . S
C2355 C2357 1.389 . S
C2356 H2329 0.950 . S
C2356 C2342 1.377 . S
C2356 C2355 1.373 . S
C2357 C2341 1.377 . S
C2357 C2355 1.389 . S
C2357 C2358 1.524 . S
C2358 C2357 1.524 . S
C2358 C2359 1.397 . S
C2358 C2363 1.363 . S
C2359 H2330 0.950 . S
C2359 C2358 1.397 . S
C2359 C2360 1.334 . S
C2360 H2331 0.950 . S
C2360 C2359 1.334 . S
C2360 C2361 1.287 . S
C2361 C2360 1.287 . S
C2361 C2362 1.524 . S
C2361 H2364 0.999 . S
C2362 H2332 0.950 . S
C2362 C2361 1.524 . S
C2362 C2363 1.415 . S
C2363 H2333 0.950 . S
C2363 C2358 1.363 . S
C2363 C2362 1.415 . S
H2364 C2361 0.999 . S
H2365 C2346 0.913 . S
H2366 C2384 0.951 . S
H2367 C2386 0.951 . S
H2368 C2388 0.950 . S
H2369 C2389 0.950 . S
H2370 C2391 0.950 . S
H2371 C2394 0.950 . S
H2372 C2395 0.950 . S
H2373 C2397 0.950 . S
H2374 C2398 0.950 . S
H2375 C2399 0.951 . S
H2376 C2401 0.951 . S
H2377 C2403 0.950 . S
H2378 C2404 0.950 . S
H2379 C2406 0.950 . S
H2380 C2409 0.950 . S
H2381 C2410 0.950 . S
H2382 C2412 0.950 . S
H2383 C2413 0.950 . S
C2384 H2366 0.951 . S
C2384 C2385 1.366 . S
C2384 C2386 1.388 . S
C2385 C2384 1.366 . S
C2385 C2389 1.385 . S
C2386 H2367 0.951 . S
C2386 C2384 1.388 . S
C2386 C2387 1.366 . S
C2387 C2386 1.366 . S
C2387 C2388 1.414 . S
C2387 C2390 1.499 . S
C2388 H2368 0.950 . S
C2388 C2387 1.414 . S
C2388 C2389 1.374 . S
C2389 H2369 0.950 . S
C2389 C2385 1.385 . S
C2389 C2388 1.374 . S
C2390 C2387 1.499 . S
C2390 C2391 1.373 . S
C2390 C2392 1.389 . S
C2391 H2370 0.950 . S
C2391 C2390 1.373 . S
C2391 C2407 1.377 . S
C2392 C2390 1.389 . S
C2392 C2393 1.524 . S
C2392 C2406 1.377 . S
C2393 C2392 1.524 . S
C2393 C2394 1.397 . S
C2393 C2398 1.363 . S
C2394 H2371 0.950 . S
C2394 C2393 1.397 . S
C2394 C2395 1.334 . S
C2395 H2372 0.950 . S
C2395 C2394 1.334 . S
C2395 C2396 1.287 . S
C2396 C2395 1.287 . S
C2396 C2397 1.524 . S
C2396 H2415 0.913 . S
C2397 H2373 0.950 . S
C2397 C2396 1.524 . S
C2397 C2398 1.415 . S
C2398 H2374 0.950 . S
C2398 C2393 1.363 . S
C2398 C2397 1.415 . S
C2399 H2375 0.951 . S
C2399 C2400 1.366 . S
C2399 C2401 1.388 . S
C2400 C2399 1.366 . S
C2400 C2404 1.385 . S
C2401 H2376 0.951 . S
C2401 C2399 1.388 . S
C2401 C2402 1.366 . S
C2402 C2401 1.366 . S
C2402 C2403 1.414 . S
C2402 C2405 1.499 . S
C2403 H2377 0.950 . S
C2403 C2402 1.414 . S
C2403 C2404 1.374 . S
C2404 H2378 0.950 . S
C2404 C2400 1.385 . S
C2404 C2403 1.374 . S
C2405 C2402 1.499 . S
C2405 C2406 1.373 . S
C2405 C2407 1.389 . S
C2406 H2379 0.950 . S
C2406 C2392 1.377 . S
C2406 C2405 1.373 . S
C2407 C2391 1.377 . S
C2407 C2405 1.389 . S
C2407 C2408 1.524 . S
C2408 C2407 1.524 . S
C2408 C2409 1.397 . S
C2408 C2413 1.363 . S
C2409 H2380 0.950 . S
C2409 C2408 1.397 . S
C2409 C2410 1.334 . S
C2410 H2381 0.950 . S
C2410 C2409 1.334 . S
C2410 C2411 1.287 . S
C2411 C2410 1.287 . S
C2411 C2412 1.524 . S
C2411 H2414 0.999 . S
C2412 H2382 0.950 . S
C2412 C2411 1.524 . S
C2412 C2413 1.415 . S
C2413 H2383 0.950 . S
C2413 C2408 1.363 . S
C2413 C2412 1.415 . S
H2414 C2411 0.999 . S
H2415 C2396 0.913 . S
H2416 C2434 0.951 . S
H2417 C2436 0.951 . S
H2418 C2438 0.950 . S
H2419 C2439 0.950 . S
H2420 C2441 0.950 . S
H2421 C2444 0.950 . S
H2422 C2445 0.950 . S
H2423 C2447 0.950 . S
H2424 C2448 0.950 . S
H2425 C2449 0.951 . S
H2426 C2451 0.951 . S
H2427 C2453 0.950 . S
H2428 C2454 0.950 . S
H2429 C2456 0.950 . S
H2430 C2459 0.950 . S
H2431 C2460 0.950 . S
H2432 C2462 0.950 . S
H2433 C2463 0.950 . S
C2434 H2416 0.951 . S
C2434 C2435 1.366 . S
C2434 C2436 1.388 . S
C2435 C2434 1.366 . S
C2435 C2439 1.385 . S
C2436 H2417 0.951 . S
C2436 C2434 1.388 . S
C2436 C2437 1.366 . S
C2437 C2436 1.366 . S
C2437 C2438 1.414 . S
C2437 C2440 1.499 . S
C2438 H2418 0.950 . S
C2438 C2437 1.414 . S
C2438 C2439 1.374 . S
C2439 H2419 0.950 . S
C2439 C2435 1.385 . S
C2439 C2438 1.374 . S
C2440 C2437 1.499 . S
C2440 C2441 1.373 . S
C2440 C2442 1.389 . S
C2441 H2420 0.950 . S
C2441 C2440 1.373 . S
C2441 C2457 1.377 . S
C2442 C2440 1.389 . S
C2442 C2443 1.524 . S
C2442 C2456 1.377 . S
C2443 C2442 1.524 . S
C2443 C2444 1.397 . S
C2443 C2448 1.363 . S
C2444 H2421 0.950 . S
C2444 C2443 1.397 . S
C2444 C2445 1.334 . S
C2445 H2422 0.950 . S
C2445 C2444 1.334 . S
C2445 C2446 1.287 . S
C2446 C2445 1.287 . S
C2446 C2447 1.524 . S
C2446 H2465 0.913 . S
C2447 H2423 0.950 . S
C2447 C2446 1.524 . S
C2447 C2448 1.415 . S
C2448 H2424 0.950 . S
C2448 C2443 1.363 . S
C2448 C2447 1.415 . S
C2449 H2425 0.951 . S
C2449 C2450 1.366 . S
C2449 C2451 1.388 . S
C2450 C2449 1.366 . S
C2450 C2454 1.385 . S
C2451 H2426 0.951 . S
C2451 C2449 1.388 . S
C2451 C2452 1.366 . S
C2452 C2451 1.366 . S
C2452 C2453 1.414 . S
C2452 C2455 1.499 . S
C2453 H2427 0.950 . S
C2453 C2452 1.414 . S
C2453 C2454 1.374 . S
C2454 H2428 0.950 . S
C2454 C2450 1.385 . S
C2454 C2453 1.374 . S
C2455 C2452 1.499 . S
C2455 C2456 1.373 . S
C2455 C2457 1.389 . S
C2456 H2429 0.950 . S
C2456 C2442 1.377 . S
C2456 C2455 1.373 . S
C2457 C2441 1.377 . S
C2457 C2455 1.389 . S
C2457 C2458 1.524 . S
C2458 C2457 1.524 . S
C2458 C2459 1.397 . S
C2458 C2463 1.363 . S
C2459 H2430 0.950 . S
C2459 C2458 1.397 . S
C2459 C2460 1.334 . S
C2460 H2431 0.950 . S
C2460 C2459 1.334 . S
C2460 C2461 1.287 . S
C2461 C2460 1.287 . S
C2461 C2462 1.524 . S
C2461 H2464 0.999 . S
C2462 H2432 0.950 . S
C2462 C2461 1.524 . S
C2462 C2463 1.415 . S
C2463 H2433 0.950 . S
C2463 C2458 1.363 . S
C2463 C2462 1.415 . S
H2464 C2461 0.999 . S
H2465 C2446 0.913 . S
H2466 C2484 0.951 . S
H2467 C2486 0.951 . S
H2468 C2488 0.950 . S
H2469 C2489 0.950 . S
H2470 C2491 0.950 . S
H2471 C2494 0.950 . S
H2472 C2495 0.950 . S
H2473 C2497 0.950 . S
H2474 C2498 0.950 . S
H2475 C2499 0.951 . S
H2476 C2501 0.951 . S
H2477 C2503 0.950 . S
H2478 C2504 0.950 . S
H2479 C2506 0.950 . S
H2480 C2509 0.950 . S
H2481 C2510 0.950 . S
H2482 C2512 0.950 . S
H2483 C2513 0.950 . S
C2484 H2466 0.951 . S
C2484 C2485 1.366 . S
C2484 C2486 1.388 . S
C2485 C2484 1.366 . S
C2485 C2489 1.385 . S
C2486 H2467 0.951 . S
C2486 C2484 1.388 . S
C2486 C2487 1.366 . S
C2487 C2486 1.366 . S
C2487 C2488 1.414 . S
C2487 C2490 1.499 . S
C2488 H2468 0.950 . S
C2488 C2487 1.414 . S
C2488 C2489 1.374 . S
C2489 H2469 0.950 . S
C2489 C2485 1.385 . S
C2489 C2488 1.374 . S
C2490 C2487 1.499 . S
C2490 C2491 1.373 . S
C2490 C2492 1.389 . S
C2491 H2470 0.950 . S
C2491 C2490 1.373 . S
C2491 C2507 1.377 . S
C2492 C2490 1.389 . S
C2492 C2493 1.524 . S
C2492 C2506 1.377 . S
C2493 C2492 1.524 . S
C2493 C2494 1.397 . S
C2493 C2498 1.363 . S
C2494 H2471 0.950 . S
C2494 C2493 1.397 . S
C2494 C2495 1.334 . S
C2495 H2472 0.950 . S
C2495 C2494 1.334 . S
C2495 C2496 1.287 . S
C2496 C2495 1.287 . S
C2496 C2497 1.524 . S
C2496 H2515 0.913 . S
C2497 H2473 0.950 . S
C2497 C2496 1.524 . S
C2497 C2498 1.415 . S
C2498 H2474 0.950 . S
C2498 C2493 1.363 . S
C2498 C2497 1.415 . S
C2499 H2475 0.951 . S
C2499 C2500 1.366 . S
C2499 C2501 1.388 . S
C2500 C2499 1.366 . S
C2500 C2504 1.385 . S
C2501 H2476 0.951 . S
C2501 C2499 1.388 . S
C2501 C2502 1.366 . S
C2502 C2501 1.366 . S
C2502 C2503 1.414 . S
C2502 C2505 1.499 . S
C2503 H2477 0.950 . S
C2503 C2502 1.414 . S
C2503 C2504 1.374 . S
C2504 H2478 0.950 . S
C2504 C2500 1.385 . S
C2504 C2503 1.374 . S
C2505 C2502 1.499 . S
C2505 C2506 1.373 . S
C2505 C2507 1.389 . S
C2506 H2479 0.950 . S
C2506 C2492 1.377 . S
C2506 C2505 1.373 . S
C2507 C2491 1.377 . S
C2507 C2505 1.389 . S
C2507 C2508 1.524 . S
C2508 C2507 1.524 . S
C2508 C2509 1.397 . S
C2508 C2513 1.363 . S
C2509 H2480 0.950 . S
C2509 C2508 1.397 . S
C2509 C2510 1.334 . S
C2510 H2481 0.950 . S
C2510 C2509 1.334 . S
C2510 C2511 1.287 . S
C2511 C2510 1.287 . S
C2511 C2512 1.524 . S
C2511 H2514 0.999 . S
C2512 H2482 0.950 . S
C2512 C2511 1.524 . S
C2512 C2513 1.415 . S
C2513 H2483 0.950 . S
C2513 C2508 1.363 . S
C2513 C2512 1.415 . S
H2514 C2511 0.999 . S
H2515 C2496 0.913 . S
H2516 C2534 0.951 . S
H2517 C2536 0.951 . S
H2518 C2538 0.950 . S
H2519 C2539 0.950 . S
H2520 C2541 0.950 . S
H2521 C2544 0.950 . S
H2522 C2545 0.950 . S
H2523 C2547 0.950 . S
H2524 C2548 0.950 . S
H2525 C2549 0.951 . S
H2526 C2551 0.951 . S
H2527 C2553 0.950 . S
H2528 C2554 0.950 . S
H2529 C2556 0.950 . S
H2530 C2559 0.950 . S
H2531 C2560 0.950 . S
H2532 C2562 0.950 . S
H2533 C2563 0.950 . S
C2534 H2516 0.951 . S
C2534 C2535 1.366 . S
C2534 C2536 1.388 . S
C2535 C2534 1.366 . S
C2535 C2539 1.385 . S
C2536 H2517 0.951 . S
C2536 C2534 1.388 . S
C2536 C2537 1.366 . S
C2537 C2536 1.366 . S
C2537 C2538 1.414 . S
C2537 C2540 1.499 . S
C2538 H2518 0.950 . S
C2538 C2537 1.414 . S
C2538 C2539 1.374 . S
C2539 H2519 0.950 . S
C2539 C2535 1.385 . S
C2539 C2538 1.374 . S
C2540 C2537 1.499 . S
C2540 C2541 1.373 . S
C2540 C2542 1.389 . S
C2541 H2520 0.950 . S
C2541 C2540 1.373 . S
C2541 C2557 1.377 . S
C2542 C2540 1.389 . S
C2542 C2543 1.524 . S
C2542 C2556 1.377 . S
C2543 C2542 1.524 . S
C2543 C2544 1.397 . S
C2543 C2548 1.363 . S
C2544 H2521 0.950 . S
C2544 C2543 1.397 . S
C2544 C2545 1.334 . S
C2545 H2522 0.950 . S
C2545 C2544 1.334 . S
C2545 C2546 1.287 . S
C2546 C2545 1.287 . S
C2546 C2547 1.524 . S
C2546 H2565 0.913 . S
C2547 H2523 0.950 . S
C2547 C2546 1.524 . S
C2547 C2548 1.415 . S
C2548 H2524 0.950 . S
C2548 C2543 1.363 . S
C2548 C2547 1.415 . S
C2549 H2525 0.951 . S
C2549 C2550 1.366 . S
C2549 C2551 1.388 . S
C2550 C2549 1.366 . S
C2550 C2554 1.385 . S
C2551 H2526 0.951 . S
C2551 C2549 1.388 . S
C2551 C2552 1.366 . S
C2552 C2551 1.366 . S
C2552 C2553 1.414 . S
C2552 C2555 1.499 . S
C2553 H2527 0.950 . S
C2553 C2552 1.414 . S
C2553 C2554 1.374 . S
C2554 H2528 0.950 . S
C2554 C2550 1.385 . S
C2554 C2553 1.374 . S
C2555 C2552 1.499 . S
C2555 C2556 1.373 . S
C2555 C2557 1.389 . S
C2556 H2529 0.950 . S
C2556 C2542 1.377 . S
C2556 C2555 1.373 . S
C2557 C2541 1.377 . S
C2557 C2555 1.389 . S
C2557 C2558 1.524 . S
C2558 C2557 1.524 . S
C2558 C2559 1.397 . S
C2558 C2563 1.363 . S
C2559 H2530 0.950 . S
C2559 C2558 1.397 . S
C2559 C2560 1.334 . S
C2560 H2531 0.950 . S
C2560 C2559 1.334 . S
C2560 C2561 1.287 . S
C2561 C2560 1.287 . S
C2561 C2562 1.524 . S
C2561 H2564 0.999 . S
C2562 H2532 0.950 . S
C2562 C2561 1.524 . S
C2562 C2563 1.415 . S
C2563 H2533 0.950 . S
C2563 C2558 1.363 . S
C2563 C2562 1.415 . S
H2564 C2561 0.999 . S
H2565 C2546 0.913 . S
H2566 C2584 0.951 . S
H2567 C2586 0.951 . S
H2568 C2588 0.950 . S
H2569 C2589 0.950 . S
H2570 C2591 0.950 . S
H2571 C2594 0.950 . S
H2572 C2595 0.950 . S
H2573 C2597 0.950 . S
H2574 C2598 0.950 . S
H2575 C2599 0.951 . S
H2576 C2601 0.951 . S
H2577 C2603 0.950 . S
H2578 C2604 0.950 . S
H2579 C2606 0.950 . S
H2580 C2609 0.950 . S
H2581 C2610 0.950 . S
H2582 C2612 0.950 . S
H2583 C2613 0.950 . S
C2584 H2566 0.951 . S
C2584 C2585 1.366 . S
C2584 C2586 1.388 . S
C2585 C2584 1.366 . S
C2585 C2589 1.385 . S
C2586 H2567 0.951 . S
C2586 C2584 1.388 . S
C2586 C2587 1.366 . S
C2587 C2586 1.366 . S
C2587 C2588 1.414 . S
C2587 C2590 1.499 . S
C2588 H2568 0.950 . S
C2588 C2587 1.414 . S
C2588 C2589 1.374 . S
C2589 H2569 0.950 . S
C2589 C2585 1.385 . S
C2589 C2588 1.374 . S
C2590 C2587 1.499 . S
C2590 C2591 1.373 . S
C2590 C2592 1.389 . S
C2591 H2570 0.950 . S
C2591 C2590 1.373 . S
C2591 C2607 1.377 . S
C2592 C2590 1.389 . S
C2592 C2593 1.524 . S
C2592 C2606 1.377 . S
C2593 C2592 1.524 . S
C2593 C2594 1.397 . S
C2593 C2598 1.363 . S
C2594 H2571 0.950 . S
C2594 C2593 1.397 . S
C2594 C2595 1.334 . S
C2595 H2572 0.950 . S
C2595 C2594 1.334 . S
C2595 C2596 1.287 . S
C2596 C2595 1.287 . S
C2596 C2597 1.524 . S
C2596 H2615 0.913 . S
C2597 H2573 0.950 . S
C2597 C2596 1.524 . S
C2597 C2598 1.415 . S
C2598 H2574 0.950 . S
C2598 C2593 1.363 . S
C2598 C2597 1.415 . S
C2599 H2575 0.951 . S
C2599 C2600 1.366 . S
C2599 C2601 1.388 . S
C2600 C2599 1.366 . S
C2600 C2604 1.385 . S
C2601 H2576 0.951 . S
C2601 C2599 1.388 . S
C2601 C2602 1.366 . S
C2602 C2601 1.366 . S
C2602 C2603 1.414 . S
C2602 C2605 1.499 . S
C2603 H2577 0.950 . S
C2603 C2602 1.414 . S
C2603 C2604 1.374 . S
C2604 H2578 0.950 . S
C2604 C2600 1.385 . S
C2604 C2603 1.374 . S
C2605 C2602 1.499 . S
C2605 C2606 1.373 . S
C2605 C2607 1.389 . S
C2606 H2579 0.950 . S
C2606 C2592 1.377 . S
C2606 C2605 1.373 . S
C2607 C2591 1.377 . S
C2607 C2605 1.389 . S
C2607 C2608 1.524 . S
C2608 C2607 1.524 . S
C2608 C2609 1.397 . S
C2608 C2613 1.363 . S
C2609 H2580 0.950 . S
C2609 C2608 1.397 . S
C2609 C2610 1.334 . S
C2610 H2581 0.950 . S
C2610 C2609 1.334 . S
C2610 C2611 1.287 . S
C2611 C2610 1.287 . S
C2611 C2612 1.524 . S
C2611 H2614 0.999 . S
C2612 H2582 0.950 . S
C2612 C2611 1.524 . S
C2612 C2613 1.415 . S
C2613 H2583 0.950 . S
C2613 C2608 1.363 . S
C2613 C2612 1.415 . S
H2614 C2611 0.999 . S
H2615 C2596 0.913 . S
H2616 C2634 0.951 . S
H2617 C2636 0.951 . S
H2618 C2638 0.950 . S
H2619 C2639 0.950 . S
H2620 C2641 0.950 . S
H2621 C2644 0.950 . S
H2622 C2645 0.950 . S
H2623 C2647 0.950 . S
H2624 C2648 0.950 . S
H2625 C2649 0.951 . S
H2626 C2651 0.951 . S
H2627 C2653 0.950 . S
H2628 C2654 0.950 . S
H2629 C2656 0.950 . S
H2630 C2659 0.950 . S
H2631 C2660 0.950 . S
H2632 C2662 0.950 . S
H2633 C2663 0.950 . S
C2634 H2616 0.951 . S
C2634 C2635 1.366 . S
C2634 C2636 1.388 . S
C2635 C2634 1.366 . S
C2635 C2639 1.385 . S
C2636 H2617 0.951 . S
C2636 C2634 1.388 . S
C2636 C2637 1.366 . S
C2637 C2636 1.366 . S
C2637 C2638 1.414 . S
C2637 C2640 1.499 . S
C2638 H2618 0.950 . S
C2638 C2637 1.414 . S
C2638 C2639 1.374 . S
C2639 H2619 0.950 . S
C2639 C2635 1.385 . S
C2639 C2638 1.374 . S
C2640 C2637 1.499 . S
C2640 C2641 1.373 . S
C2640 C2642 1.389 . S
C2641 H2620 0.950 . S
C2641 C2640 1.373 . S
C2641 C2657 1.377 . S
C2642 C2640 1.389 . S
C2642 C2643 1.524 . S
C2642 C2656 1.377 . S
C2643 C2642 1.524 . S
C2643 C2644 1.397 . S
C2643 C2648 1.363 . S
C2644 H2621 0.950 . S
C2644 C2643 1.397 . S
C2644 C2645 1.334 . S
C2645 H2622 0.950 . S
C2645 C2644 1.334 . S
C2645 C2646 1.287 . S
C2646 C2645 1.287 . S
C2646 C2647 1.524 . S
C2646 H2665 0.913 . S
C2647 H2623 0.950 . S
C2647 C2646 1.524 . S
C2647 C2648 1.415 . S
C2648 H2624 0.950 . S
C2648 C2643 1.363 . S
C2648 C2647 1.415 . S
C2649 H2625 0.951 . S
C2649 C2650 1.366 . S
C2649 C2651 1.388 . S
C2650 C2649 1.366 . S
C2650 C2654 1.385 . S
C2651 H2626 0.951 . S
C2651 C2649 1.388 . S
C2651 C2652 1.366 . S
C2652 C2651 1.366 . S
C2652 C2653 1.414 . S
C2652 C2655 1.499 . S
C2653 H2627 0.950 . S
C2653 C2652 1.414 . S
C2653 C2654 1.374 . S
C2654 H2628 0.950 . S
C2654 C2650 1.385 . S
C2654 C2653 1.374 . S
C2655 C2652 1.499 . S
C2655 C2656 1.373 . S
C2655 C2657 1.389 . S
C2656 H2629 0.950 . S
C2656 C2642 1.377 . S
C2656 C2655 1.373 . S
C2657 C2641 1.377 . S
C2657 C2655 1.389 . S
C2657 C2658 1.524 . S
C2658 C2657 1.524 . S
C2658 C2659 1.397 . S
C2658 C2663 1.363 . S
C2659 H2630 0.950 . S
C2659 C2658 1.397 . S
C2659 C2660 1.334 . S
C2660 H2631 0.950 . S
C2660 C2659 1.334 . S
C2660 C2661 1.287 . S
C2661 C2660 1.287 . S
C2661 C2662 1.524 . S
C2661 H2664 0.999 . S
C2662 H2632 0.950 . S
C2662 C2661 1.524 . S
C2662 C2663 1.415 . S
C2663 H2633 0.950 . S
C2663 C2658 1.363 . S
C2663 C2662 1.415 . S
H2664 C2661 0.999 . S
H2665 C2646 0.913 . S
H2666 C2684 0.951 . S
H2667 C2686 0.951 . S
H2668 C2688 0.950 . S
H2669 C2689 0.950 . S
H2670 C2691 0.950 . S
H2671 C2694 0.950 . S
H2672 C2695 0.950 . S
H2673 C2697 0.950 . S
H2674 C2698 0.950 . S
H2675 C2699 0.951 . S
H2676 C2701 0.951 . S
H2677 C2703 0.950 . S
H2678 C2704 0.950 . S
H2679 C2706 0.950 . S
H2680 C2709 0.950 . S
H2681 C2710 0.950 . S
H2682 C2712 0.950 . S
H2683 C2713 0.950 . S
C2684 H2666 0.951 . S
C2684 C2685 1.366 . S
C2684 C2686 1.388 . S
C2685 C2684 1.366 . S
C2685 C2689 1.385 . S
C2686 H2667 0.951 . S
C2686 C2684 1.388 . S
C2686 C2687 1.366 . S
C2687 C2686 1.366 . S
C2687 C2688 1.414 . S
C2687 C2690 1.499 . S
C2688 H2668 0.950 . S
C2688 C2687 1.414 . S
C2688 C2689 1.374 . S
C2689 H2669 0.950 . S
C2689 C2685 1.385 . S
C2689 C2688 1.374 . S
C2690 C2687 1.499 . S
C2690 C2691 1.373 . S
C2690 C2692 1.389 . S
C2691 H2670 0.950 . S
C2691 C2690 1.373 . S
C2691 C2707 1.377 . S
C2692 C2690 1.389 . S
C2692 C2693 1.524 . S
C2692 C2706 1.377 . S
C2693 C2692 1.524 . S
C2693 C2694 1.397 . S
C2693 C2698 1.363 . S
C2694 H2671 0.950 . S
C2694 C2693 1.397 . S
C2694 C2695 1.334 . S
C2695 H2672 0.950 . S
C2695 C2694 1.334 . S
C2695 C2696 1.287 . S
C2696 C2695 1.287 . S
C2696 C2697 1.524 . S
C2696 H2715 0.913 . S
C2697 H2673 0.950 . S
C2697 C2696 1.524 . S
C2697 C2698 1.415 . S
C2698 H2674 0.950 . S
C2698 C2693 1.363 . S
C2698 C2697 1.415 . S
C2699 H2675 0.951 . S
C2699 C2700 1.366 . S
C2699 C2701 1.388 . S
C2700 C2699 1.366 . S
C2700 C2704 1.385 . S
C2701 H2676 0.951 . S
C2701 C2699 1.388 . S
C2701 C2702 1.366 . S
C2702 C2701 1.366 . S
C2702 C2703 1.414 . S
C2702 C2705 1.499 . S
C2703 H2677 0.950 . S
C2703 C2702 1.414 . S
C2703 C2704 1.374 . S
C2704 H2678 0.950 . S
C2704 C2700 1.385 . S
C2704 C2703 1.374 . S
C2705 C2702 1.499 . S
C2705 C2706 1.373 . S
C2705 C2707 1.389 . S
C2706 H2679 0.950 . S
C2706 C2692 1.377 . S
C2706 C2705 1.373 . S
C2707 C2691 1.377 . S
C2707 C2705 1.389 . S
C2707 C2708 1.524 . S
C2708 C2707 1.524 . S
C2708 C2709 1.397 . S
C2708 C2713 1.363 . S
C2709 H2680 0.950 . S
C2709 C2708 1.397 . S
C2709 C2710 1.334 . S
C2710 H2681 0.950 . S
C2710 C2709 1.334 . S
C2710 C2711 1.287 . S
C2711 C2710 1.287 . S
C2711 C2712 1.524 . S
C2711 H2714 0.999 . S
C2712 H2682 0.950 . S
C2712 C2711 1.524 . S
C2712 C2713 1.415 . S
C2713 H2683 0.950 . S
C2713 C2708 1.363 . S
C2713 C2712 1.415 . S
H2714 C2711 0.999 . S
H2715 C2696 0.913 . S
H2716 C2734 0.951 . S
H2717 C2736 0.951 . S
H2718 C2738 0.950 . S
H2719 C2739 0.950 . S
H2720 C2741 0.950 . S
H2721 C2744 0.950 . S
H2722 C2745 0.950 . S
H2723 C2747 0.950 . S
H2724 C2748 0.950 . S
H2725 C2749 0.951 . S
H2726 C2751 0.951 . S
H2727 C2753 0.950 . S
H2728 C2754 0.950 . S
H2729 C2756 0.950 . S
H2730 C2759 0.950 . S
H2731 C2760 0.950 . S
H2732 C2762 0.950 . S
H2733 C2763 0.950 . S
C2734 H2716 0.951 . S
C2734 C2735 1.366 . S
C2734 C2736 1.388 . S
C2735 C2734 1.366 . S
C2735 C2739 1.385 . S
C2736 H2717 0.951 . S
C2736 C2734 1.388 . S
C2736 C2737 1.366 . S
C2737 C2736 1.366 . S
C2737 C2738 1.414 . S
C2737 C2740 1.499 . S
C2738 H2718 0.950 . S
C2738 C2737 1.414 . S
C2738 C2739 1.374 . S
C2739 H2719 0.950 . S
C2739 C2735 1.385 . S
C2739 C2738 1.374 . S
C2740 C2737 1.499 . S
C2740 C2741 1.373 . S
C2740 C2742 1.389 . S
C2741 H2720 0.950 . S
C2741 C2740 1.373 . S
C2741 C2757 1.377 . S
C2742 C2740 1.389 . S
C2742 C2743 1.524 . S
C2742 C2756 1.377 . S
C2743 C2742 1.524 . S
C2743 C2744 1.397 . S
C2743 C2748 1.363 . S
C2744 H2721 0.950 . S
C2744 C2743 1.397 . S
C2744 C2745 1.334 . S
C2745 H2722 0.950 . S
C2745 C2744 1.334 . S
C2745 C2746 1.287 . S
C2746 C2745 1.287 . S
C2746 C2747 1.524 . S
C2746 H2765 0.913 . S
C2747 H2723 0.950 . S
C2747 C2746 1.524 . S
C2747 C2748 1.415 . S
C2748 H2724 0.950 . S
C2748 C2743 1.363 . S
C2748 C2747 1.415 . S
C2749 H2725 0.951 . S
C2749 C2750 1.366 . S
C2749 C2751 1.388 . S
C2750 C2749 1.366 . S
C2750 C2754 1.385 . S
C2751 H2726 0.951 . S
C2751 C2749 1.388 . S
C2751 C2752 1.366 . S
C2752 C2751 1.366 . S
C2752 C2753 1.414 . S
C2752 C2755 1.499 . S
C2753 H2727 0.950 . S
C2753 C2752 1.414 . S
C2753 C2754 1.374 . S
C2754 H2728 0.950 . S
C2754 C2750 1.385 . S
C2754 C2753 1.374 . S
C2755 C2752 1.499 . S
C2755 C2756 1.373 . S
C2755 C2757 1.389 . S
C2756 H2729 0.950 . S
C2756 C2742 1.377 . S
C2756 C2755 1.373 . S
C2757 C2741 1.377 . S
C2757 C2755 1.389 . S
C2757 C2758 1.524 . S
C2758 C2757 1.524 . S
C2758 C2759 1.397 . S
C2758 C2763 1.363 . S
C2759 H2730 0.950 . S
C2759 C2758 1.397 . S
C2759 C2760 1.334 . S
C2760 H2731 0.950 . S
C2760 C2759 1.334 . S
C2760 C2761 1.287 . S
C2761 C2760 1.287 . S
C2761 C2762 1.524 . S
C2761 H2764 0.999 . S
C2762 H2732 0.950 . S
C2762 C2761 1.524 . S
C2762 C2763 1.415 . S
C2763 H2733 0.950 . S
C2763 C2758 1.363 . S
C2763 C2762 1.415 . S
H2764 C2761 0.999 . S
H2765 C2746 0.913 . S
H2766 C2784 0.951 . S
H2767 C2786 0.951 . S
H2768 C2788 0.950 . S
H2769 C2789 0.950 . S
H2770 C2791 0.950 . S
H2771 C2794 0.950 . S
H2772 C2795 0.950 . S
H2773 C2797 0.950 . S
H2774 C2798 0.950 . S
H2775 C2799 0.951 . S
H2776 C2801 0.951 . S
H2777 C2803 0.950 . S
H2778 C2804 0.950 . S
H2779 C2806 0.950 . S
H2780 C2809 0.950 . S
H2781 C2810 0.950 . S
H2782 C2812 0.950 . S
H2783 C2813 0.950 . S
C2784 H2766 0.951 . S
C2784 C2785 1.366 . S
C2784 C2786 1.388 . S
C2785 C2784 1.366 . S
C2785 C2789 1.385 . S
C2786 H2767 0.951 . S
C2786 C2784 1.388 . S
C2786 C2787 1.366 . S
C2787 C2786 1.366 . S
C2787 C2788 1.414 . S
C2787 C2790 1.499 . S
C2788 H2768 0.950 . S
C2788 C2787 1.414 . S
C2788 C2789 1.374 . S
C2789 H2769 0.950 . S
C2789 C2785 1.385 . S
C2789 C2788 1.374 . S
C2790 C2787 1.499 . S
C2790 C2791 1.373 . S
C2790 C2792 1.389 . S
C2791 H2770 0.950 . S
C2791 C2790 1.373 . S
C2791 C2807 1.377 . S
C2792 C2790 1.389 . S
C2792 C2793 1.524 . S
C2792 C2806 1.377 . S
C2793 C2792 1.524 . S
C2793 C2794 1.397 . S
C2793 C2798 1.363 . S
C2794 H2771 0.950 . S
C2794 C2793 1.397 . S
C2794 C2795 1.334 . S
C2795 H2772 0.950 . S
C2795 C2794 1.334 . S
C2795 C2796 1.287 . S
C2796 C2795 1.287 . S
C2796 C2797 1.524 . S
C2796 H2815 0.913 . S
C2797 H2773 0.950 . S
C2797 C2796 1.524 . S
C2797 C2798 1.415 . S
C2798 H2774 0.950 . S
C2798 C2793 1.363 . S
C2798 C2797 1.415 . S
C2799 H2775 0.951 . S
C2799 C2800 1.366 . S
C2799 C2801 1.388 . S
C2800 C2799 1.366 . S
C2800 C2804 1.385 . S
C2801 H2776 0.951 . S
C2801 C2799 1.388 . S
C2801 C2802 1.366 . S
C2802 C2801 1.366 . S
C2802 C2803 1.414 . S
C2802 C2805 1.499 . S
C2803 H2777 0.950 . S
C2803 C2802 1.414 . S
C2803 C2804 1.374 . S
C2804 H2778 0.950 . S
C2804 C2800 1.385 . S
C2804 C2803 1.374 . S
C2805 C2802 1.499 . S
C2805 C2806 1.373 . S
C2805 C2807 1.389 . S
C2806 H2779 0.950 . S
C2806 C2792 1.377 . S
C2806 C2805 1.373 . S
C2807 C2791 1.377 . S
C2807 C2805 1.389 . S
C2807 C2808 1.524 . S
C2808 C2807 1.524 . S
C2808 C2809 1.397 . S
C2808 C2813 1.363 . S
C2809 H2780 0.950 . S
C2809 C2808 1.397 . S
C2809 C2810 1.334 . S
C2810 H2781 0.950 . S
C2810 C2809 1.334 . S
C2810 C2811 1.287 . S
C2811 C2810 1.287 . S
C2811 C2812 1.524 . S
C2811 H2814 0.999 . S
C2812 H2782 0.950 . S
C2812 C2811 1.524 . S
C2812 C2813 1.415 . S
C2813 H2783 0.950 . S
C2813 C2808 1.363 . S
C2813 C2812 1.415 . S
H2814 C2811 0.999 . S
H2815 C2796 0.913 . S
H2816 C2834 0.951 . S
H2817 C2836 0.951 . S
H2818 C2838 0.950 . S
H2819 C2839 0.950 . S
H2820 C2841 0.950 . S
H2821 C2844 0.950 . S
H2822 C2845 0.950 . S
H2823 C2847 0.950 . S
H2824 C2848 0.950 . S
H2825 C2849 0.951 . S
H2826 C2851 0.951 . S
H2827 C2853 0.950 . S
H2828 C2854 0.950 . S
H2829 C2856 0.950 . S
H2830 C2859 0.950 . S
H2831 C2860 0.950 . S
H2832 C2862 0.950 . S
H2833 C2863 0.950 . S
C2834 H2816 0.951 . S
C2834 C2835 1.366 . S
C2834 C2836 1.388 . S
C2835 C2834 1.366 . S
C2835 C2839 1.385 . S
C2836 H2817 0.951 . S
C2836 C2834 1.388 . S
C2836 C2837 1.366 . S
C2837 C2836 1.366 . S
C2837 C2838 1.414 . S
C2837 C2840 1.499 . S
C2838 H2818 0.950 . S
C2838 C2837 1.414 . S
C2838 C2839 1.374 . S
C2839 H2819 0.950 . S
C2839 C2835 1.385 . S
C2839 C2838 1.374 . S
C2840 C2837 1.499 . S
C2840 C2841 1.373 . S
C2840 C2842 1.389 . S
C2841 H2820 0.950 . S
C2841 C2840 1.373 . S
C2841 C2857 1.377 . S
C2842 C2840 1.389 . S
C2842 C2843 1.524 . S
C2842 C2856 1.377 . S
C2843 C2842 1.524 . S
C2843 C2844 1.397 . S
C2843 C2848 1.363 . S
C2844 H2821 0.950 . S
C2844 C2843 1.397 . S
C2844 C2845 1.334 . S
C2845 H2822 0.950 . S
C2845 C2844 1.334 . S
C2845 C2846 1.287 . S
C2846 C2845 1.287 . S
C2846 C2847 1.524 . S
C2846 H2865 0.913 . S
C2847 H2823 0.950 . S
C2847 C2846 1.524 . S
C2847 C2848 1.415 . S
C2848 H2824 0.950 . S
C2848 C2843 1.363 . S
C2848 C2847 1.415 . S
C2849 H2825 0.951 . S
C2849 C2850 1.366 . S
C2849 C2851 1.388 . S
C2850 C2849 1.366 . S
C2850 C2854 1.385 . S
C2851 H2826 0.951 . S
C2851 C2849 1.388 . S
C2851 C2852 1.366 . S
C2852 C2851 1.366 . S
C2852 C2853 1.414 . S
C2852 C2855 1.499 . S
C2853 H2827 0.950 . S
C2853 C2852 1.414 . S
C2853 C2854 1.374 . S
C2854 H2828 0.950 . S
C2854 C2850 1.385 . S
C2854 C2853 1.374 . S
C2855 C2852 1.499 . S
C2855 C2856 1.373 . S
C2855 C2857 1.389 . S
C2856 H2829 0.950 . S
C2856 C2842 1.377 . S
C2856 C2855 1.373 . S
C2857 C2841 1.377 . S
C2857 C2855 1.389 . S
C2857 C2858 1.524 . S
C2858 C2857 1.524 . S
C2858 C2859 1.397 . S
C2858 C2863 1.363 . S
C2859 H2830 0.950 . S
C2859 C2858 1.397 . S
C2859 C2860 1.334 . S
C2860 H2831 0.950 . S
C2860 C2859 1.334 . S
C2860 C2861 1.287 . S
C2861 C2860 1.287 . S
C2861 C2862 1.524 . S
C2861 H2864 0.999 . S
C2862 H2832 0.950 . S
C2862 C2861 1.524 . S
C2862 C2863 1.415 . S
C2863 H2833 0.950 . S
C2863 C2858 1.363 . S
C2863 C2862 1.415 . S
H2864 C2861 0.999 . S
H2865 C2846 0.913 . S
H2866 C2884 0.951 . S
H2867 C2886 0.951 . S
H2868 C2888 0.950 . S
H2869 C2889 0.950 . S
H2870 C2891 0.950 . S
H2871 C2894 0.950 . S
H2872 C2895 0.950 . S
H2873 C2897 0.950 . S
H2874 C2898 0.950 . S
H2875 C2899 0.951 . S
H2876 C2901 0.951 . S
H2877 C2903 0.950 . S
H2878 C2904 0.950 . S
H2879 C2906 0.950 . S
H2880 C2909 0.950 . S
H2881 C2910 0.950 . S
H2882 C2912 0.950 . S
H2883 C2913 0.950 . S
C2884 H2866 0.951 . S
C2884 C2885 1.366 . S
C2884 C2886 1.388 . S
C2885 C2884 1.366 . S
C2885 C2889 1.385 . S
C2886 H2867 0.951 . S
C2886 C2884 1.388 . S
C2886 C2887 1.366 . S
C2887 C2886 1.366 . S
C2887 C2888 1.414 . S
C2887 C2890 1.499 . S
C2888 H2868 0.950 . S
C2888 C2887 1.414 . S
C2888 C2889 1.374 . S
C2889 H2869 0.950 . S
C2889 C2885 1.385 . S
C2889 C2888 1.374 . S
C2890 C2887 1.499 . S
C2890 C2891 1.373 . S
C2890 C2892 1.389 . S
C2891 H2870 0.950 . S
C2891 C2890 1.373 . S
C2891 C2907 1.377 . S
C2892 C2890 1.389 . S
C2892 C2893 1.524 . S
C2892 C2906 1.377 . S
C2893 C2892 1.524 . S
C2893 C2894 1.397 . S
C2893 C2898 1.363 . S
C2894 H2871 0.950 . S
C2894 C2893 1.397 . S
C2894 C2895 1.334 . S
C2895 H2872 0.950 . S
C2895 C2894 1.334 . S
C2895 C2896 1.287 . S
C2896 C2895 1.287 . S
C2896 C2897 1.524 . S
C2896 H2915 0.913 . S
C2897 H2873 0.950 . S
C2897 C2896 1.524 . S
C2897 C2898 1.415 . S
C2898 H2874 0.950 . S
C2898 C2893 1.363 . S
C2898 C2897 1.415 . S
C2899 H2875 0.951 . S
C2899 C2900 1.366 . S
C2899 C2901 1.388 . S
C2900 C2899 1.366 . S
C2900 C2904 1.385 . S
C2901 H2876 0.951 . S
C2901 C2899 1.388 . S
C2901 C2902 1.366 . S
C2902 C2901 1.366 . S
C2902 C2903 1.414 . S
C2902 C2905 1.499 . S
C2903 H2877 0.950 . S
C2903 C2902 1.414 . S
C2903 C2904 1.374 . S
C2904 H2878 0.950 . S
C2904 C2900 1.385 . S
C2904 C2903 1.374 . S
C2905 C2902 1.499 . S
C2905 C2906 1.373 . S
C2905 C2907 1.389 . S
C2906 H2879 0.950 . S
C2906 C2892 1.377 . S
C2906 C2905 1.373 . S
C2907 C2891 1.377 . S
C2907 C2905 1.389 . S
C2907 C2908 1.524 . S
C2908 C2907 1.524 . S
C2908 C2909 1.397 . S
C2908 C2913 1.363 . S
C2909 H2880 0.950 . S
C2909 C2908 1.397 . S
C2909 C2910 1.334 . S
C2910 H2881 0.950 . S
C2910 C2909 1.334 . S
C2910 C2911 1.287 . S
C2911 C2910 1.287 . S
C2911 C2912 1.524 . S
C2911 H2914 0.999 . S
C2912 H2882 0.950 . S
C2912 C2911 1.524 . S
C2912 C2913 1.415 . S
C2913 H2883 0.950 . S
C2913 C2908 1.363 . S
C2913 C2912 1.415 . S
H2914 C2911 0.999 . S
H2915 C2896 0.913 . S
H2916 C2934 0.951 . S
H2917 C2936 0.951 . S
H2918 C2938 0.950 . S
H2919 C2939 0.950 . S
H2920 C2941 0.950 . S
H2921 C2944 0.950 . S
H2922 C2945 0.950 1_556 S
H2923 C2947 0.950 . S
H2924 C2948 0.950 . S
H2925 C2949 0.951 . S
H2926 C2951 0.951 . S
H2927 C2953 0.950 . S
H2928 C2954 0.950 . S
H2929 C2956 0.950 . S
H2930 C2959 0.950 . S
H2931 C2960 0.950 . S
H2932 C2962 0.950 . S
H2933 C2963 0.950 . S
C2934 H2916 0.951 . S
C2934 C2935 1.366 . S
C2934 C2936 1.388 . S
C2935 C2934 1.366 . S
C2935 C2939 1.385 . S
C2936 H2917 0.951 . S
C2936 C2934 1.388 . S
C2936 C2937 1.366 . S
C2937 C2936 1.366 . S
C2937 C2938 1.414 . S
C2937 C2940 1.499 . S
C2938 H2918 0.950 . S
C2938 C2937 1.414 . S
C2938 C2939 1.374 . S
C2939 H2919 0.950 . S
C2939 C2935 1.385 . S
C2939 C2938 1.374 . S
C2940 C2937 1.499 . S
C2940 C2941 1.373 . S
C2940 C2942 1.389 . S
C2941 H2920 0.950 . S
C2941 C2940 1.373 . S
C2941 C2957 1.377 . S
C2942 C2940 1.389 . S
C2942 C2943 1.524 . S
C2942 C2956 1.377 . S
C2943 C2942 1.524 . S
C2943 C2944 1.397 . S
C2943 C2948 1.363 . S
C2944 H2921 0.950 . S
C2944 C2943 1.397 . S
C2944 C2945 1.334 . S
C2945 H2922 0.950 1_554 S
C2945 C2944 1.334 . S
C2945 C2946 1.287 . S
C2946 C2945 1.287 . S
C2946 C2947 1.524 . S
C2946 H2965 0.925 . S
C2947 H2923 0.950 . S
C2947 C2946 1.524 . S
C2947 C2948 1.415 . S
C2948 H2924 0.950 . S
C2948 C2943 1.363 . S
C2948 C2947 1.415 . S
C2949 H2925 0.951 . S
C2949 C2950 1.366 . S
C2949 C2951 1.388 . S
C2950 C2949 1.366 . S
C2950 C2954 1.385 . S
C2951 H2926 0.951 . S
C2951 C2949 1.388 . S
C2951 C2952 1.366 . S
C2952 C2951 1.366 . S
C2952 C2953 1.414 . S
C2952 C2955 1.499 . S
C2953 H2927 0.950 . S
C2953 C2952 1.414 . S
C2953 C2954 1.374 . S
C2954 H2928 0.950 . S
C2954 C2950 1.385 . S
C2954 C2953 1.374 . S
C2955 C2952 1.499 . S
C2955 C2956 1.373 . S
C2955 C2957 1.389 . S
C2956 H2929 0.950 . S
C2956 C2942 1.377 . S
C2956 C2955 1.373 . S
C2957 C2941 1.377 . S
C2957 C2955 1.389 . S
C2957 C2958 1.524 . S
C2958 C2957 1.524 . S
C2958 C2959 1.397 . S
C2958 C2963 1.363 . S
C2959 H2930 0.950 . S
C2959 C2958 1.397 . S
C2959 C2960 1.334 . S
C2960 H2931 0.950 . S
C2960 C2959 1.334 . S
C2960 C2961 1.287 . S
C2961 C2960 1.287 . S
C2961 C2962 1.524 . S
C2961 H2964 0.999 . S
C2962 H2932 0.950 . S
C2962 C2961 1.524 . S
C2962 C2963 1.415 . S
C2963 H2933 0.950 . S
C2963 C2958 1.363 . S
C2963 C2962 1.415 . S
H2964 C2961 0.999 . S
H2965 C2946 0.925 . S
H2966 C2984 0.951 . S
H2967 C2986 0.951 . S
H2968 C2988 0.950 . S
H2969 C2989 0.950 . S
H2970 C2991 0.950 . S
H2971 C2994 0.950 . S
H2972 C2995 0.950 1_556 S
H2973 C2997 0.950 . S
H2974 C2998 0.950 . S
H2975 C2999 0.951 . S
H2976 C3001 0.951 . S
H2977 C3003 0.950 . S
H2978 C3004 0.950 . S
H2979 C3006 0.950 . S
H2980 C3009 0.950 . S
H2981 C3010 0.950 . S
H2982 C3012 0.950 . S
H2983 C3013 0.950 . S
C2984 H2966 0.951 . S
C2984 C2985 1.366 . S
C2984 C2986 1.388 . S
C2985 C2984 1.366 . S
C2985 C2989 1.385 . S
C2986 H2967 0.951 . S
C2986 C2984 1.388 . S
C2986 C2987 1.366 . S
C2987 C2986 1.366 . S
C2987 C2988 1.414 . S
C2987 C2990 1.499 . S
C2988 H2968 0.950 . S
C2988 C2987 1.414 . S
C2988 C2989 1.374 . S
C2989 H2969 0.950 . S
C2989 C2985 1.385 . S
C2989 C2988 1.374 . S
C2990 C2987 1.499 . S
C2990 C2991 1.373 . S
C2990 C2992 1.389 . S
C2991 H2970 0.950 . S
C2991 C2990 1.373 . S
C2991 C3007 1.377 . S
C2992 C2990 1.389 . S
C2992 C2993 1.524 . S
C2992 C3006 1.377 . S
C2993 C2992 1.524 . S
C2993 C2994 1.397 . S
C2993 C2998 1.363 . S
C2994 H2971 0.950 . S
C2994 C2993 1.397 . S
C2994 C2995 1.334 . S
C2995 H2972 0.950 1_554 S
C2995 C2994 1.334 . S
C2995 C2996 1.287 . S
C2996 C2995 1.287 . S
C2996 C2997 1.524 . S
C2996 H3015 0.913 1_554 S
C2997 H2973 0.950 . S
C2997 C2996 1.524 . S
C2997 C2998 1.415 . S
C2998 H2974 0.950 . S
C2998 C2993 1.363 . S
C2998 C2997 1.415 . S
C2999 H2975 0.951 . S
C2999 C3000 1.366 . S
C2999 C3001 1.388 . S
C3000 C2999 1.366 . S
C3000 C3004 1.385 . S
C3001 H2976 0.951 . S
C3001 C2999 1.388 . S
C3001 C3002 1.366 . S
C3002 C3001 1.366 . S
C3002 C3003 1.414 . S
C3002 C3005 1.499 . S
C3003 H2977 0.950 . S
C3003 C3002 1.414 . S
C3003 C3004 1.374 . S
C3004 H2978 0.950 . S
C3004 C3000 1.385 . S
C3004 C3003 1.374 . S
C3005 C3002 1.499 . S
C3005 C3006 1.373 . S
C3005 C3007 1.389 . S
C3006 H2979 0.950 . S
C3006 C2992 1.377 . S
C3006 C3005 1.373 . S
C3007 C2991 1.377 . S
C3007 C3005 1.389 . S
C3007 C3008 1.524 . S
C3008 C3007 1.524 . S
C3008 C3009 1.397 . S
C3008 C3013 1.363 . S
C3009 H2980 0.950 . S
C3009 C3008 1.397 . S
C3009 C3010 1.334 . S
C3010 H2981 0.950 . S
C3010 C3009 1.334 . S
C3010 C3011 1.287 . S
C3011 C3010 1.287 . S
C3011 C3012 1.524 . S
C3011 H3014 0.999 . S
C3012 H2982 0.950 . S
C3012 C3011 1.524 . S
C3012 C3013 1.415 . S
C3013 H2983 0.950 . S
C3013 C3008 1.363 . S
C3013 C3012 1.415 . S
H3014 C3011 0.999 . S
H3015 C2996 0.913 1_556 S
H3016 C3034 0.951 . S
H3017 C3036 0.951 . S
H3018 C3038 0.950 . S
H3019 C3039 0.950 . S
H3020 C3041 0.950 . S
H3021 C3044 0.950 . S
H3022 C3045 0.950 . S
H3023 C3047 0.950 . S
H3024 C3048 0.950 . S
H3025 C3049 0.951 . S
H3026 C3051 0.951 . S
H3027 C3053 0.950 . S
H3028 C3054 0.950 . S
H3029 C3056 0.950 . S
H3030 C3059 0.950 . S
H3031 C3060 0.950 . S
H3032 C3062 0.950 . S
H3033 C3063 0.950 . S
C3034 H3016 0.951 . S
C3034 C3035 1.366 . S
C3034 C3036 1.388 . S
C3035 C3034 1.366 . S
C3035 C3039 1.385 . S
C3036 H3017 0.951 . S
C3036 C3034 1.388 . S
C3036 C3037 1.366 . S
C3037 C3036 1.366 . S
C3037 C3038 1.414 . S
C3037 C3040 1.499 . S
C3038 H3018 0.950 . S
C3038 C3037 1.414 . S
C3038 C3039 1.374 . S
C3039 H3019 0.950 . S
C3039 C3035 1.385 . S
C3039 C3038 1.374 . S
C3040 C3037 1.499 . S
C3040 C3041 1.373 . S
C3040 C3042 1.389 . S
C3041 H3020 0.950 . S
C3041 C3040 1.373 . S
C3041 C3057 1.377 . S
C3042 C3040 1.389 . S
C3042 C3043 1.524 . S
C3042 C3056 1.377 . S
C3043 C3042 1.524 . S
C3043 C3044 1.397 . S
C3043 C3048 1.363 . S
C3044 H3021 0.950 . S
C3044 C3043 1.397 . S
C3044 C3045 1.334 . S
C3045 H3022 0.950 . S
C3045 C3044 1.334 . S
C3045 C3046 1.287 . S
C3046 C3045 1.287 . S
C3046 C3047 1.524 . S
C3046 H3065 0.913 1_565 S
C3047 H3023 0.950 . S
C3047 C3046 1.524 . S
C3047 C3048 1.415 . S
C3048 H3024 0.950 . S
C3048 C3043 1.363 . S
C3048 C3047 1.415 . S
C3049 H3025 0.951 . S
C3049 C3050 1.366 . S
C3049 C3051 1.388 . S
C3050 C3049 1.366 . S
C3050 C3054 1.385 . S
C3051 H3026 0.951 . S
C3051 C3049 1.388 . S
C3051 C3052 1.366 . S
C3052 C3051 1.366 . S
C3052 C3053 1.414 . S
C3052 C3055 1.499 . S
C3053 H3027 0.950 . S
C3053 C3052 1.414 . S
C3053 C3054 1.374 . S
C3054 H3028 0.950 . S
C3054 C3050 1.385 . S
C3054 C3053 1.374 . S
C3055 C3052 1.499 . S
C3055 C3056 1.373 . S
C3055 C3057 1.389 . S
C3056 H3029 0.950 . S
C3056 C3042 1.377 . S
C3056 C3055 1.373 . S
C3057 C3041 1.377 . S
C3057 C3055 1.389 . S
C3057 C3058 1.524 . S
C3058 C3057 1.524 . S
C3058 C3059 1.397 . S
C3058 C3063 1.363 . S
C3059 H3030 0.950 . S
C3059 C3058 1.397 . S
C3059 C3060 1.334 . S
C3060 H3031 0.950 . S
C3060 C3059 1.334 . S
C3060 C3061 1.287 . S
C3061 C3060 1.287 . S
C3061 C3062 1.524 . S
C3061 H3064 0.999 . S
C3062 H3032 0.950 . S
C3062 C3061 1.524 . S
C3062 C3063 1.415 . S
C3063 H3033 0.950 . S
C3063 C3058 1.363 . S
C3063 C3062 1.415 . S
H3064 C3061 0.999 . S
H3065 C3046 0.913 1_545 S
H3066 C3084 0.951 . S
H3067 C3086 0.951 . S
H3068 C3088 0.950 1_554 S
H3069 C3089 0.950 . S
H3070 C3091 0.950 . S
H3071 C3094 0.950 . S
H3072 C3095 0.950 . S
H3073 C3097 0.950 . S
H3074 C3098 0.950 . S
H3075 C3099 0.951 . S
H3076 C3101 0.951 . S
H3077 C3103 0.950 . S
H3078 C3104 0.950 . S
H3079 C3106 0.950 . S
H3080 C3109 0.950 . S
H3081 C3110 0.950 . S
H3082 C3112 0.950 . S
H3083 C3113 0.950 1_554 S
C3084 H3066 0.951 . S
C3084 C3085 1.366 . S
C3084 C3086 1.388 . S
C3085 C3084 1.366 . S
C3085 C3089 1.385 1_556 S
C3086 H3067 0.951 . S
C3086 C3084 1.388 . S
C3086 C3087 1.366 . S
C3087 C3086 1.366 . S
C3087 C3088 1.414 . S
C3087 C3090 1.499 . S
C3088 H3068 0.950 1_556 S
C3088 C3087 1.414 . S
C3088 C3089 1.374 1_556 S
C3089 H3069 0.950 . S
C3089 C3085 1.385 1_554 S
C3089 C3088 1.374 1_554 S
C3090 C3087 1.499 . S
C3090 C3091 1.373 . S
C3090 C3092 1.389 . S
C3091 H3070 0.950 . S
C3091 C3090 1.373 . S
C3091 C3107 1.377 . S
C3092 C3090 1.389 . S
C3092 C3093 1.524 . S
C3092 C3106 1.377 . S
C3093 C3092 1.524 . S
C3093 C3094 1.397 . S
C3093 C3098 1.363 . S
C3094 H3071 0.950 . S
C3094 C3093 1.397 . S
C3094 C3095 1.334 . S
C3095 H3072 0.950 . S
C3095 C3094 1.334 . S
C3095 C3096 1.287 . S
C3096 C3095 1.287 . S
C3096 C3097 1.524 . S
C3096 H3115 0.913 . S
C3097 H3073 0.950 . S
C3097 C3096 1.524 . S
C3097 C3098 1.415 . S
C3098 H3074 0.950 . S
C3098 C3093 1.363 . S
C3098 C3097 1.415 . S
C3099 H3075 0.951 . S
C3099 C3100 1.366 . S
C3099 C3101 1.388 . S
C3100 C3099 1.366 . S
C3100 C3104 1.385 . S
C3101 H3076 0.951 . S
C3101 C3099 1.388 . S
C3101 C3102 1.366 . S
C3102 C3101 1.366 . S
C3102 C3103 1.414 . S
C3102 C3105 1.499 . S
C3103 H3077 0.950 . S
C3103 C3102 1.414 . S
C3103 C3104 1.374 . S
C3104 H3078 0.950 . S
C3104 C3100 1.385 . S
C3104 C3103 1.374 . S
C3105 C3102 1.499 . S
C3105 C3106 1.373 . S
C3105 C3107 1.389 . S
C3106 H3079 0.950 . S
C3106 C3092 1.377 . S
C3106 C3105 1.373 . S
C3107 C3091 1.377 . S
C3107 C3105 1.389 . S
C3107 C3108 1.524 . S
C3108 C3107 1.524 . S
C3108 C3109 1.397 . S
C3108 C3113 1.363 . S
C3109 H3080 0.950 . S
C3109 C3108 1.397 . S
C3109 C3110 1.334 . S
C3110 H3081 0.950 . S
C3110 C3109 1.334 . S
C3110 C3111 1.287 . S
C3111 C3110 1.287 . S
C3111 C3112 1.524 1_556 S
C3111 H3114 0.999 . S
C3112 H3082 0.950 . S
C3112 C3111 1.524 1_554 S
C3112 C3113 1.415 1_554 S
C3113 H3083 0.950 1_556 S
C3113 C3108 1.363 . S
C3113 C3112 1.415 1_556 S
H3114 C3111 0.999 . S
H3115 C3096 0.913 . S
H3116 C3134 0.947 . S
H3117 C3136 0.951 . S
H3118 C3138 0.950 . S
H3119 C3139 0.950 . S
H3120 C3141 0.950 . S
H3121 C3144 0.950 . S
H3122 C3145 0.950 . S
H3123 C3147 0.950 . S
H3124 C3148 0.950 . S
H3125 C3149 0.951 . S
H3126 C3151 0.951 . S
H3127 C3153 0.950 . S
H3128 C3154 0.950 . S
H3129 C3156 0.950 . S
H3130 C3159 0.950 . S
H3131 C3160 0.950 . S
H3132 C3162 0.950 . S
H3133 C3163 0.950 . S
C3134 H3116 0.947 . S
C3134 C3135 1.367 1_554 S
C3134 C3136 1.390 1_554 S
C3135 C3134 1.367 1_556 S
C3135 C3139 1.385 . S
C3136 H3117 0.951 . S
C3136 C3134 1.390 1_556 S
C3136 C3137 1.366 . S
C3137 C3136 1.366 . S
C3137 C3138 1.414 . S
C3137 C3140 1.499 . S
C3138 H3118 0.950 . S
C3138 C3137 1.414 . S
C3138 C3139 1.374 . S
C3139 H3119 0.950 . S
C3139 C3135 1.385 . S
C3139 C3138 1.374 . S
C3140 C3137 1.499 . S
C3140 C3141 1.373 . S
C3140 C3142 1.389 . S
C3141 H3120 0.950 . S
C3141 C3140 1.373 . S
C3141 C3157 1.377 . S
C3142 C3140 1.389 . S
C3142 C3143 1.465 1_556 S
C3142 C3156 1.377 . S
C3143 C3142 1.465 1_554 S
C3143 C3144 1.424 . S
C3143 C3148 1.395 . S
C3144 H3121 0.950 . S
C3144 C3143 1.424 . S
C3144 C3145 1.334 . S
C3145 H3122 0.950 . S
C3145 C3144 1.334 . S
C3145 C3146 1.287 . S
C3146 C3145 1.287 . S
C3146 C3147 1.524 . S
C3146 H3165 0.913 . S
C3147 H3123 0.950 . S
C3147 C3146 1.524 . S
C3147 C3148 1.415 . S
C3148 H3124 0.950 . S
C3148 C3143 1.395 . S
C3148 C3147 1.415 . S
C3149 H3125 0.951 . S
C3149 C3150 1.366 . S
C3149 C3151 1.388 . S
C3150 C3149 1.366 . S
C3150 C3154 1.385 . S
C3151 H3126 0.951 . S
C3151 C3149 1.388 . S
C3151 C3152 1.366 . S
C3152 C3151 1.366 . S
C3152 C3153 1.414 . S
C3152 C3155 1.499 . S
C3153 H3127 0.950 . S
C3153 C3152 1.414 . S
C3153 C3154 1.374 . S
C3154 H3128 0.950 . S
C3154 C3150 1.385 . S
C3154 C3153 1.374 . S
C3155 C3152 1.499 . S
C3155 C3156 1.373 . S
C3155 C3157 1.389 . S
C3156 H3129 0.950 . S
C3156 C3142 1.377 . S
C3156 C3155 1.373 . S
C3157 C3141 1.377 . S
C3157 C3155 1.389 . S
C3157 C3158 1.524 . S
C3158 C3157 1.524 . S
C3158 C3159 1.397 . S
C3158 C3163 1.363 . S
C3159 H3130 0.950 . S
C3159 C3158 1.397 . S
C3159 C3160 1.334 . S
C3160 H3131 0.950 . S
C3160 C3159 1.334 . S
C3160 C3161 1.287 . S
C3161 C3160 1.287 . S
C3161 C3162 1.524 . S
C3161 H3164 0.999 . S
C3162 H3132 0.950 . S
C3162 C3161 1.524 . S
C3162 C3163 1.415 . S
C3163 H3133 0.950 . S
C3163 C3158 1.363 . S
C3163 C3162 1.415 . S
H3164 C3161 0.999 . S
H3165 C3146 0.913 . S
H3166 C3184 0.951 . S
H3167 C3186 0.951 . S
H3168 C3188 0.950 . S
H3169 C3189 0.976 . S
H3170 C3191 0.950 . S
H3171 C3194 0.950 . S
H3172 C3195 0.950 . S
H3173 C3197 0.950 . S
H3174 C3198 0.950 . S
H3175 C3199 0.951 . S
H3176 C3201 0.951 . S
H3177 C3203 0.950 . S
H3178 C3204 0.950 . S
H3179 C3206 0.950 . S
H3180 C3209 0.950 . S
H3181 C3210 0.950 . S
H3182 C3212 0.950 . S
H3183 C3213 0.947 1_554 S
C3184 H3166 0.951 . S
C3184 C3185 1.366 . S
C3184 C3186 1.388 . S
C3185 C3184 1.366 . S
C3185 C3189 1.375 1_556 S
C3186 H3167 0.951 . S
C3186 C3184 1.388 . S
C3186 C3187 1.366 . S
C3187 C3186 1.366 . S
C3187 C3188 1.414 . S
C3187 C3190 1.499 . S
C3188 H3168 0.950 . S
C3188 C3187 1.414 . S
C3188 C3189 1.358 1_556 S
C3189 H3169 0.976 . S
C3189 C3185 1.375 1_554 S
C3189 C3188 1.358 1_554 S
C3190 C3187 1.499 . S
C3190 C3191 1.373 . S
C3190 C3192 1.389 . S
C3191 H3170 0.950 . S
C3191 C3190 1.373 . S
C3191 C3207 1.377 . S
C3192 C3190 1.389 . S
C3192 C3193 1.524 . S
C3192 C3206 1.377 . S
C3193 C3192 1.524 . S
C3193 C3194 1.397 . S
C3193 C3198 1.363 . S
C3194 H3171 0.950 . S
C3194 C3193 1.397 . S
C3194 C3195 1.334 . S
C3195 H3172 0.950 . S
C3195 C3194 1.334 . S
C3195 C3196 1.287 . S
C3196 C3195 1.287 . S
C3196 C3197 1.524 . S
C3196 H3215 0.913 . S
C3197 H3173 0.950 . S
C3197 C3196 1.524 . S
C3197 C3198 1.415 . S
C3198 H3174 0.950 . S
C3198 C3193 1.363 . S
C3198 C3197 1.415 . S
C3199 H3175 0.951 . S
C3199 C3200 1.366 . S
C3199 C3201 1.388 . S
C3200 C3199 1.366 . S
C3200 C3204 1.385 . S
C3201 H3176 0.951 . S
C3201 C3199 1.388 . S
C3201 C3202 1.366 . S
C3202 C3201 1.366 . S
C3202 C3203 1.414 . S
C3202 C3205 1.499 . S
C3203 H3177 0.950 . S
C3203 C3202 1.414 . S
C3203 C3204 1.374 . S
C3204 H3178 0.950 . S
C3204 C3200 1.385 . S
C3204 C3203 1.374 . S
C3205 C3202 1.499 . S
C3205 C3206 1.373 . S
C3205 C3207 1.389 . S
C3206 H3179 0.950 . S
C3206 C3192 1.377 . S
C3206 C3205 1.373 . S
C3207 C3191 1.377 . S
C3207 C3205 1.389 . S
C3207 C3208 1.524 . S
C3208 C3207 1.524 . S
C3208 C3209 1.397 . S
C3208 C3213 1.363 . S
C3209 H3180 0.950 . S
C3209 C3208 1.397 . S
C3209 C3210 1.334 . S
C3210 H3181 0.950 . S
C3210 C3209 1.334 . S
C3210 C3211 1.287 1_556 S
C3211 C3210 1.287 1_554 S
C3211 C3212 1.524 . S
C3211 H3214 0.999 . S
C3212 H3182 0.950 . S
C3212 C3211 1.524 . S
C3212 C3213 1.415 1_554 S
C3213 H3183 0.947 1_556 S
C3213 C3208 1.363 . S
C3213 C3212 1.415 1_556 S
H3214 C3211 0.999 . S
H3215 C3196 0.913 . S
H3216 C3234 0.951 1_554 S
H3217 C3236 0.951 . S
H3218 C3238 0.950 . S
H3219 C3239 0.950 . S
H3220 C3241 0.950 . S
H3221 C3244 0.950 . S
H3222 C3245 0.950 . S
H3223 C3247 0.950 . S
H3224 C3248 0.950 . S
H3225 C3249 0.951 . S
H3226 C3251 0.951 . S
H3227 C3253 0.950 . S
H3228 C3254 0.950 . S
H3229 C3256 0.950 . S
H3230 C3259 0.950 . S
H3231 C3260 0.950 . S
H3232 C3262 0.950 . S
H3233 C3263 0.950 . S
C3234 H3216 0.951 1_556 S
C3234 C3235 1.366 . S
C3234 C3236 1.388 . S
C3235 C3234 1.366 . S
C3235 C3239 1.385 . S
C3236 H3217 0.951 . S
C3236 C3234 1.388 . S
C3236 C3237 1.366 . S
C3237 C3236 1.366 . S
C3237 C3238 1.414 . S
C3237 C3240 1.499 . S
C3238 H3218 0.950 . S
C3238 C3237 1.414 . S
C3238 C3239 1.374 . S
C3239 H3219 0.950 . S
C3239 C3235 1.385 . S
C3239 C3238 1.374 . S
C3240 C3237 1.499 . S
C3240 C3241 1.373 . S
C3240 C3242 1.389 . S
C3241 H3220 0.950 . S
C3241 C3240 1.373 . S
C3241 C3257 1.377 . S
C3242 C3240 1.389 . S
C3242 C3243 1.524 . S
C3242 C3256 1.377 . S
C3243 C3242 1.524 . S
C3243 C3244 1.397 . S
C3243 C3248 1.363 . S
C3244 H3221 0.950 . S
C3244 C3243 1.397 . S
C3244 C3245 1.334 . S
C3245 H3222 0.950 . S
C3245 C3244 1.334 . S
C3245 C3246 1.287 . S
C3246 C3245 1.287 . S
C3246 C3247 1.524 . S
C3246 H3265 0.913 . S
C3247 H3223 0.950 . S
C3247 C3246 1.524 . S
C3247 C3248 1.415 . S
C3248 H3224 0.950 . S
C3248 C3243 1.363 . S
C3248 C3247 1.415 . S
C3249 H3225 0.951 . S
C3249 C3250 1.366 . S
C3249 C3251 1.388 . S
C3250 C3249 1.366 . S
C3250 C3254 1.385 . S
C3251 H3226 0.951 . S
C3251 C3249 1.388 . S
C3251 C3252 1.366 . S
C3252 C3251 1.366 . S
C3252 C3253 1.414 . S
C3252 C3255 1.499 . S
C3253 H3227 0.950 . S
C3253 C3252 1.414 . S
C3253 C3254 1.374 . S
C3254 H3228 0.950 . S
C3254 C3250 1.385 . S
C3254 C3253 1.374 . S
C3255 C3252 1.499 . S
C3255 C3256 1.373 . S
C3255 C3257 1.389 . S
C3256 H3229 0.950 . S
C3256 C3242 1.377 . S
C3256 C3255 1.373 . S
C3257 C3241 1.377 . S
C3257 C3255 1.389 . S
C3257 C3258 1.524 . S
C3258 C3257 1.524 . S
C3258 C3259 1.397 . S
C3258 C3263 1.363 . S
C3259 H3230 0.950 . S
C3259 C3258 1.397 . S
C3259 C3260 1.334 . S
C3260 H3231 0.950 . S
C3260 C3259 1.334 . S
C3260 C3261 1.287 . S
C3261 C3260 1.287 . S
C3261 C3262 1.524 . S
C3261 H3264 0.999 . S
C3262 H3232 0.950 . S
C3262 C3261 1.524 . S
C3262 C3263 1.415 . S
C3263 H3233 0.950 . S
C3263 C3258 1.363 . S
C3263 C3262 1.415 . S
H3264 C3261 0.999 . S
H3265 C3246 0.913 . S
H3266 C3284 0.951 . S
H3267 C3286 0.951 . S
H3268 C3288 0.950 . S
H3269 C3289 0.950 . S
H3270 C3291 0.950 . S
H3271 C3294 0.950 . S
H3272 C3295 0.950 . S
H3273 C3297 0.950 . S
H3274 C3298 0.950 . S
H3275 C3299 0.951 . S
H3276 C3301 0.951 . S
H3277 C3303 0.950 . S
H3278 C3304 0.950 . S
H3279 C3306 0.950 . S
H3280 C3309 0.950 . S
H3281 C3310 0.950 . S
H3282 C3312 0.950 . S
H3283 C3313 0.950 . S
C3284 H3266 0.951 . S
C3284 C3285 1.366 1_554 S
C3284 C3286 1.388 1_554 S
C3285 C3284 1.366 1_556 S
C3285 C3289 1.385 . S
C3286 H3267 0.951 . S
C3286 C3284 1.388 1_556 S
C3286 C3287 1.366 . S
C3287 C3286 1.366 . S
C3287 C3288 1.414 . S
C3287 C3290 1.499 . S
C3288 H3268 0.950 . S
C3288 C3287 1.414 . S
C3288 C3289 1.374 . S
C3289 H3269 0.950 . S
C3289 C3285 1.385 . S
C3289 C3288 1.374 . S
C3290 C3287 1.499 . S
C3290 C3291 1.373 . S
C3290 C3292 1.389 . S
C3291 H3270 0.950 . S
C3291 C3290 1.373 . S
C3291 C3307 1.377 . S
C3292 C3290 1.389 . S
C3292 C3293 1.524 . S
C3292 C3306 1.377 . S
C3293 C3292 1.524 . S
C3293 C3294 1.397 . S
C3293 C3298 1.363 . S
C3294 H3271 0.950 . S
C3294 C3293 1.397 . S
C3294 C3295 1.334 . S
C3295 H3272 0.950 . S
C3295 C3294 1.334 . S
C3295 C3296 1.287 . S
C3296 C3295 1.287 . S
C3296 C3297 1.524 . S
C3296 H3315 0.913 . S
C3297 H3273 0.950 . S
C3297 C3296 1.524 . S
C3297 C3298 1.415 . S
C3298 H3274 0.950 . S
C3298 C3293 1.363 . S
C3298 C3297 1.415 . S
C3299 H3275 0.951 . S
C3299 C3300 1.366 . S
C3299 C3301 1.388 . S
C3300 C3299 1.366 . S
C3300 C3304 1.385 . S
C3301 H3276 0.951 . S
C3301 C3299 1.388 . S
C3301 C3302 1.366 . S
C3302 C3301 1.366 . S
C3302 C3303 1.414 . S
C3302 C3305 1.499 . S
C3303 H3277 0.950 . S
C3303 C3302 1.414 . S
C3303 C3304 1.374 . S
C3304 H3278 0.950 . S
C3304 C3300 1.385 . S
C3304 C3303 1.374 . S
C3305 C3302 1.499 . S
C3305 C3306 1.373 . S
C3305 C3307 1.389 . S
C3306 H3279 0.950 . S
C3306 C3292 1.377 . S
C3306 C3305 1.373 . S
C3307 C3291 1.377 . S
C3307 C3305 1.389 . S
C3307 C3308 1.524 . S
C3308 C3307 1.524 . S
C3308 C3309 1.397 . S
C3308 C3313 1.363 . S
C3309 H3280 0.950 . S
C3309 C3308 1.397 . S
C3309 C3310 1.334 . S
C3310 H3281 0.950 . S
C3310 C3309 1.334 . S
C3310 C3311 1.287 . S
C3311 C3310 1.287 . S
C3311 C3312 1.524 . S
C3311 H3314 0.999 . S
C3312 H3282 0.950 . S
C3312 C3311 1.524 . S
C3312 C3313 1.415 . S
C3313 H3283 0.950 . S
C3313 C3308 1.363 . S
C3313 C3312 1.415 . S
H3314 C3311 0.999 . S
H3315 C3296 0.913 . S
H3316 C3334 0.951 . S
H3317 C3336 0.951 . S
H3318 C3338 0.950 . S
H3319 C3339 0.950 . S
H3320 C3341 0.950 . S
H3321 C3344 0.950 . S
H3322 C3345 0.950 . S
H3323 C3347 0.950 . S
H3324 C3348 0.950 . S
H3325 C3349 0.951 . S
H3326 C3351 0.951 . S
H3327 C3353 0.950 . S
H3328 C3354 0.950 . S
H3329 C3356 0.950 . S
H3330 C3359 0.950 . S
H3331 C3360 0.950 . S
H3332 C3362 0.950 . S
H3333 C3363 0.950 . S
C3334 H3316 0.951 . S
C3334 C3335 1.392 . S
C3334 C3336 1.388 . S
C3335 C3334 1.392 . S
C3335 C3339 1.380 1_556 S
C3336 H3317 0.951 . S
C3336 C3334 1.388 . S
C3336 C3337 1.366 . S
C3337 C3336 1.366 . S
C3337 C3338 1.414 . S
C3337 C3340 1.499 . S
C3338 H3318 0.950 . S
C3338 C3337 1.414 . S
C3338 C3339 1.374 1_556 S
C3339 H3319 0.950 . S
C3339 C3335 1.380 1_554 S
C3339 C3338 1.374 1_554 S
C3340 C3337 1.499 . S
C3340 C3341 1.373 . S
C3340 C3342 1.389 . S
C3341 H3320 0.950 . S
C3341 C3340 1.373 . S
C3341 C3357 1.377 . S
C3342 C3340 1.389 . S
C3342 C3343 1.524 . S
C3342 C3356 1.377 . S
C3343 C3342 1.524 . S
C3343 C3344 1.397 1_556 S
C3343 C3348 1.363 . S
C3344 H3321 0.950 . S
C3344 C3343 1.397 1_554 S
C3344 C3345 1.334 . S
C3345 H3322 0.950 . S
C3345 C3344 1.334 . S
C3345 C3346 1.287 . S
C3346 C3345 1.287 . S
C3346 C3347 1.524 1_554 S
C3346 H3365 0.913 . S
C3347 H3323 0.950 . S
C3347 C3346 1.524 1_556 S
C3347 C3348 1.415 . S
C3348 H3324 0.950 . S
C3348 C3343 1.363 . S
C3348 C3347 1.415 . S
C3349 H3325 0.951 . S
C3349 C3350 1.366 . S
C3349 C3351 1.388 . S
C3350 C3349 1.366 . S
C3350 C3354 1.385 . S
C3351 H3326 0.951 . S
C3351 C3349 1.388 . S
C3351 C3352 1.366 . S
C3352 C3351 1.366 . S
C3352 C3353 1.414 . S
C3352 C3355 1.499 . S
C3353 H3327 0.950 . S
C3353 C3352 1.414 . S
C3353 C3354 1.374 . S
C3354 H3328 0.950 . S
C3354 C3350 1.385 . S
C3354 C3353 1.374 . S
C3355 C3352 1.499 . S
C3355 C3356 1.373 . S
C3355 C3357 1.389 . S
C3356 H3329 0.950 . S
C3356 C3342 1.377 . S
C3356 C3355 1.373 . S
C3357 C3341 1.377 . S
C3357 C3355 1.389 . S
C3357 C3358 1.524 . S
C3358 C3357 1.524 . S
C3358 C3359 1.397 . S
C3358 C3363 1.363 . S
C3359 H3330 0.950 . S
C3359 C3358 1.397 . S
C3359 C3360 1.334 . S
C3360 H3331 0.950 . S
C3360 C3359 1.334 . S
C3360 C3361 1.287 . S
C3361 C3360 1.287 . S
C3361 C3362 1.524 . S
C3361 H3364 0.999 . S
C3362 H3332 0.950 . S
C3362 C3361 1.524 . S
C3362 C3363 1.415 . S
C3363 H3333 0.950 . S
C3363 C3358 1.363 . S
C3363 C3362 1.415 . S
H3364 C3361 0.999 . S
H3365 C3346 0.913 . S
H3366 C3384 0.951 . S
H3367 C3386 0.951 . S
H3368 C3388 0.950 . S
H3369 C3389 0.950 . S
H3370 C3391 0.950 . S
H3371 C3394 0.950 . S
H3372 C3395 0.950 . S
H3373 C3397 0.950 . S
H3374 C3398 0.950 . S
H3375 C3399 0.951 . S
H3376 C3401 0.951 . S
H3377 C3403 0.950 . S
H3378 C3404 0.950 . S
H3379 C3406 0.950 . S
H3380 C3409 0.950 . S
H3381 C3410 0.950 . S
H3382 C3412 0.950 . S
H3383 C3413 0.950 . S
C3384 H3366 0.951 . S
C3384 C3385 1.366 . S
C3384 C3386 1.388 . S
C3385 C3384 1.366 . S
C3385 C3389 1.385 . S
C3386 H3367 0.951 . S
C3386 C3384 1.388 . S
C3386 C3387 1.366 . S
C3387 C3386 1.366 . S
C3387 C3388 1.414 . S
C3387 C3390 1.499 . S
C3388 H3368 0.950 . S
C3388 C3387 1.414 . S
C3388 C3389 1.374 . S
C3389 H3369 0.950 . S
C3389 C3385 1.385 . S
C3389 C3388 1.374 . S
C3390 C3387 1.499 . S
C3390 C3391 1.373 . S
C3390 C3392 1.389 . S
C3391 H3370 0.950 . S
C3391 C3390 1.373 . S
C3391 C3407 1.377 . S
C3392 C3390 1.389 . S
C3392 C3393 1.524 . S
C3392 C3406 1.377 . S
C3393 C3392 1.524 . S
C3393 C3394 1.397 . S
C3393 C3398 1.363 . S
C3394 H3371 0.950 . S
C3394 C3393 1.397 . S
C3394 C3395 1.334 . S
C3395 H3372 0.950 . S
C3395 C3394 1.334 . S
C3395 C3396 1.287 . S
C3396 C3395 1.287 . S
C3396 C3397 1.524 . S
C3396 H3415 0.913 . S
C3397 H3373 0.950 . S
C3397 C3396 1.524 . S
C3397 C3398 1.415 . S
C3398 H3374 0.950 . S
C3398 C3393 1.363 . S
C3398 C3397 1.415 . S
C3399 H3375 0.951 . S
C3399 C3400 1.366 . S
C3399 C3401 1.388 . S
C3400 C3399 1.366 . S
C3400 C3404 1.385 . S
C3401 H3376 0.951 . S
C3401 C3399 1.388 . S
C3401 C3402 1.366 . S
C3402 C3401 1.366 . S
C3402 C3403 1.414 . S
C3402 C3405 1.499 . S
C3403 H3377 0.950 . S
C3403 C3402 1.414 . S
C3403 C3404 1.374 . S
C3404 H3378 0.950 . S
C3404 C3400 1.385 . S
C3404 C3403 1.374 . S
C3405 C3402 1.499 . S
C3405 C3406 1.373 . S
C3405 C3407 1.389 . S
C3406 H3379 0.950 . S
C3406 C3392 1.377 . S
C3406 C3405 1.373 . S
C3407 C3391 1.377 . S
C3407 C3405 1.389 . S
C3407 C3408 1.524 . S
C3408 C3407 1.524 . S
C3408 C3409 1.397 . S
C3408 C3413 1.363 . S
C3409 H3380 0.950 . S
C3409 C3408 1.397 . S
C3409 C3410 1.334 . S
C3410 H3381 0.950 . S
C3410 C3409 1.334 . S
C3410 C3411 1.287 . S
C3411 C3410 1.287 . S
C3411 C3412 1.524 . S
C3411 H3414 0.999 . S
C3412 H3382 0.950 . S
C3412 C3411 1.524 . S
C3412 C3413 1.415 . S
C3413 H3383 0.950 . S
C3413 C3408 1.363 . S
C3413 C3412 1.415 . S
H3414 C3411 0.999 . S
H3415 C3396 0.913 . S
H3416 C3434 0.951 . S
H3417 C3436 0.951 . S
H3418 C3438 0.950 . S
H3419 C3439 0.950 . S
H3420 C3441 0.950 . S
H3421 C3444 0.950 . S
H3422 C3445 0.950 . S
H3423 C3447 0.950 . S
H3424 C3448 0.950 . S
H3425 C3449 0.951 . S
H3426 C3451 0.951 . S
H3427 C3453 0.950 . S
H3428 C3454 0.950 . S
H3429 C3456 0.950 . S
H3430 C3459 0.950 . S
H3431 C3460 0.950 . S
H3432 C3462 0.950 . S
H3433 C3463 0.950 . S
C3434 H3416 0.951 . S
C3434 C3435 1.366 . S
C3434 C3436 1.388 . S
C3435 C3434 1.366 . S
C3435 C3439 1.385 . S
C3436 H3417 0.951 . S
C3436 C3434 1.388 . S
C3436 C3437 1.366 . S
C3437 C3436 1.366 . S
C3437 C3438 1.414 . S
C3437 C3440 1.499 . S
C3438 H3418 0.950 . S
C3438 C3437 1.414 . S
C3438 C3439 1.374 . S
C3439 H3419 0.950 . S
C3439 C3435 1.385 . S
C3439 C3438 1.374 . S
C3440 C3437 1.499 . S
C3440 C3441 1.373 . S
C3440 C3442 1.389 . S
C3441 H3420 0.950 . S
C3441 C3440 1.373 . S
C3441 C3457 1.377 . S
C3442 C3440 1.389 . S
C3442 C3443 1.524 . S
C3442 C3456 1.377 . S
C3443 C3442 1.524 . S
C3443 C3444 1.397 . S
C3443 C3448 1.363 . S
C3444 H3421 0.950 . S
C3444 C3443 1.397 . S
C3444 C3445 1.334 . S
C3445 H3422 0.950 . S
C3445 C3444 1.334 . S
C3445 C3446 1.287 . S
C3446 C3445 1.287 . S
C3446 C3447 1.524 . S
C3446 H3465 0.913 . S
C3447 H3423 0.950 . S
C3447 C3446 1.524 . S
C3447 C3448 1.415 . S
C3448 H3424 0.950 . S
C3448 C3443 1.363 . S
C3448 C3447 1.415 . S
C3449 H3425 0.951 . S
C3449 C3450 1.366 . S
C3449 C3451 1.388 . S
C3450 C3449 1.366 . S
C3450 C3454 1.385 . S
C3451 H3426 0.951 . S
C3451 C3449 1.388 . S
C3451 C3452 1.366 . S
C3452 C3451 1.366 . S
C3452 C3453 1.414 . S
C3452 C3455 1.499 . S
C3453 H3427 0.950 . S
C3453 C3452 1.414 . S
C3453 C3454 1.374 . S
C3454 H3428 0.950 . S
C3454 C3450 1.385 . S
C3454 C3453 1.374 . S
C3455 C3452 1.499 . S
C3455 C3456 1.373 . S
C3455 C3457 1.389 . S
C3456 H3429 0.950 . S
C3456 C3442 1.377 . S
C3456 C3455 1.373 . S
C3457 C3441 1.377 . S
C3457 C3455 1.389 . S
C3457 C3458 1.524 . S
C3458 C3457 1.524 . S
C3458 C3459 1.397 . S
C3458 C3463 1.363 . S
C3459 H3430 0.950 . S
C3459 C3458 1.397 . S
C3459 C3460 1.334 . S
C3460 H3431 0.950 . S
C3460 C3459 1.334 . S
C3460 C3461 1.287 . S
C3461 C3460 1.287 . S
C3461 C3462 1.524 . S
C3461 H3464 0.999 . S
C3462 H3432 0.950 . S
C3462 C3461 1.524 . S
C3462 C3463 1.415 . S
C3463 H3433 0.950 . S
C3463 C3458 1.363 . S
C3463 C3462 1.415 . S
H3464 C3461 0.999 . S
H3465 C3446 0.913 . S
H3466 C3484 0.951 . S
H3467 C3486 0.951 . S
H3468 C3488 0.950 . S
H3469 C3489 0.950 . S
H3470 C3491 0.950 . S
H3471 C3494 0.950 . S
H3472 C3495 0.950 . S
H3473 C3497 0.950 . S
H3474 C3498 0.950 . S
H3475 C3499 0.951 . S
H3476 C3501 0.951 . S
H3477 C3503 0.950 . S
H3478 C3504 0.950 . S
H3479 C3506 0.950 . S
H3480 C3509 0.950 . S
H3481 C3510 0.950 . S
H3482 C3512 0.950 . S
H3483 C3513 0.950 . S
C3484 H3466 0.951 . S
C3484 C3485 1.366 . S
C3484 C3486 1.388 . S
C3485 C3484 1.366 . S
C3485 C3489 1.385 . S
C3486 H3467 0.951 . S
C3486 C3484 1.388 . S
C3486 C3487 1.366 . S
C3487 C3486 1.366 . S
C3487 C3488 1.414 . S
C3487 C3490 1.499 . S
C3488 H3468 0.950 . S
C3488 C3487 1.414 . S
C3488 C3489 1.374 . S
C3489 H3469 0.950 . S
C3489 C3485 1.385 . S
C3489 C3488 1.374 . S
C3490 C3487 1.499 . S
C3490 C3491 1.373 . S
C3490 C3492 1.389 . S
C3491 H3470 0.950 . S
C3491 C3490 1.373 . S
C3491 C3507 1.377 . S
C3492 C3490 1.389 . S
C3492 C3493 1.524 . S
C3492 C3506 1.377 . S
C3493 C3492 1.524 . S
C3493 C3494 1.397 . S
C3493 C3498 1.363 . S
C3494 H3471 0.950 . S
C3494 C3493 1.397 . S
C3494 C3495 1.334 . S
C3495 H3472 0.950 . S
C3495 C3494 1.334 . S
C3495 C3496 1.287 . S
C3496 C3495 1.287 . S
C3496 C3497 1.524 . S
C3496 H3515 0.913 . S
C3497 H3473 0.950 . S
C3497 C3496 1.524 . S
C3497 C3498 1.415 . S
C3498 H3474 0.950 . S
C3498 C3493 1.363 . S
C3498 C3497 1.415 . S
C3499 H3475 0.951 . S
C3499 C3500 1.366 . S
C3499 C3501 1.388 . S
C3500 C3499 1.366 . S
C3500 C3504 1.385 . S
C3501 H3476 0.951 . S
C3501 C3499 1.388 . S
C3501 C3502 1.366 . S
C3502 C3501 1.366 . S
C3502 C3503 1.414 . S
C3502 C3505 1.499 . S
C3503 H3477 0.950 . S
C3503 C3502 1.414 . S
C3503 C3504 1.374 . S
C3504 H3478 0.950 . S
C3504 C3500 1.385 . S
C3504 C3503 1.374 . S
C3505 C3502 1.499 . S
C3505 C3506 1.373 . S
C3505 C3507 1.389 . S
C3506 H3479 0.950 . S
C3506 C3492 1.377 . S
C3506 C3505 1.373 . S
C3507 C3491 1.377 . S
C3507 C3505 1.389 . S
C3507 C3508 1.524 . S
C3508 C3507 1.524 . S
C3508 C3509 1.397 . S
C3508 C3513 1.363 . S
C3509 H3480 0.950 . S
C3509 C3508 1.397 . S
C3509 C3510 1.334 . S
C3510 H3481 0.950 . S
C3510 C3509 1.334 . S
C3510 C3511 1.287 . S
C3511 C3510 1.287 . S
C3511 C3512 1.524 . S
C3511 H3514 0.999 . S
C3512 H3482 0.950 . S
C3512 C3511 1.524 . S
C3512 C3513 1.415 . S
C3513 H3483 0.950 . S
C3513 C3508 1.363 . S
C3513 C3512 1.415 . S
H3514 C3511 0.999 . S
H3515 C3496 0.913 . S
H3516 C3534 0.951 . S
H3517 C3536 0.951 . S
H3518 C3538 0.950 . S
H3519 C3539 0.950 . S
H3520 C3541 0.950 . S
H3521 C3544 0.950 . S
H3522 C3545 0.950 . S
H3523 C3547 0.950 . S
H3524 C3548 0.950 . S
H3525 C3549 0.951 . S
H3526 C3551 0.951 . S
H3527 C3553 0.950 . S
H3528 C3554 0.950 . S
H3529 C3556 0.950 . S
H3530 C3559 0.950 . S
H3531 C3560 0.950 . S
H3532 C3562 0.950 . S
H3533 C3563 0.950 . S
C3534 H3516 0.951 . S
C3534 C3535 1.366 . S
C3534 C3536 1.388 . S
C3535 C3534 1.366 . S
C3535 C3539 1.385 . S
C3536 H3517 0.951 . S
C3536 C3534 1.388 . S
C3536 C3537 1.366 . S
C3537 C3536 1.366 . S
C3537 C3538 1.414 . S
C3537 C3540 1.499 . S
C3538 H3518 0.950 . S
C3538 C3537 1.414 . S
C3538 C3539 1.374 . S
C3539 H3519 0.950 . S
C3539 C3535 1.385 . S
C3539 C3538 1.374 . S
C3540 C3537 1.499 . S
C3540 C3541 1.373 . S
C3540 C3542 1.389 . S
C3541 H3520 0.950 . S
C3541 C3540 1.373 . S
C3541 C3557 1.377 . S
C3542 C3540 1.389 . S
C3542 C3543 1.524 . S
C3542 C3556 1.377 . S
C3543 C3542 1.524 . S
C3543 C3544 1.397 . S
C3543 C3548 1.363 . S
C3544 H3521 0.950 . S
C3544 C3543 1.397 . S
C3544 C3545 1.334 . S
C3545 H3522 0.950 . S
C3545 C3544 1.334 . S
C3545 C3546 1.287 . S
C3546 C3545 1.287 . S
C3546 C3547 1.524 . S
C3546 H3565 0.913 . S
C3547 H3523 0.950 . S
C3547 C3546 1.524 . S
C3547 C3548 1.415 . S
C3548 H3524 0.950 . S
C3548 C3543 1.363 . S
C3548 C3547 1.415 . S
C3549 H3525 0.951 . S
C3549 C3550 1.366 . S
C3549 C3551 1.388 . S
C3550 C3549 1.366 . S
C3550 C3554 1.385 . S
C3551 H3526 0.951 . S
C3551 C3549 1.388 . S
C3551 C3552 1.366 . S
C3552 C3551 1.366 . S
C3552 C3553 1.414 . S
C3552 C3555 1.499 . S
C3553 H3527 0.950 . S
C3553 C3552 1.414 . S
C3553 C3554 1.374 . S
C3554 H3528 0.950 . S
C3554 C3550 1.385 . S
C3554 C3553 1.374 . S
C3555 C3552 1.499 . S
C3555 C3556 1.373 . S
C3555 C3557 1.389 . S
C3556 H3529 0.950 . S
C3556 C3542 1.377 . S
C3556 C3555 1.373 . S
C3557 C3541 1.377 . S
C3557 C3555 1.389 . S
C3557 C3558 1.524 . S
C3558 C3557 1.524 . S
C3558 C3559 1.397 . S
C3558 C3563 1.363 . S
C3559 H3530 0.950 . S
C3559 C3558 1.397 . S
C3559 C3560 1.334 . S
C3560 H3531 0.950 . S
C3560 C3559 1.334 . S
C3560 C3561 1.287 . S
C3561 C3560 1.287 . S
C3561 C3562 1.524 . S
C3561 H3564 0.999 . S
C3562 H3532 0.950 . S
C3562 C3561 1.524 . S
C3562 C3563 1.415 . S
C3563 H3533 0.950 . S
C3563 C3558 1.363 . S
C3563 C3562 1.415 . S
H3564 C3561 0.999 . S
H3565 C3546 0.913 . S
H3566 C3584 0.951 . S
H3567 C3586 0.951 . S
H3568 C3588 0.950 . S
H3569 C3589 0.950 . S
H3570 C3591 0.950 . S
H3571 C3594 0.950 . S
H3572 C3595 0.950 . S
H3573 C3597 0.950 . S
H3574 C3598 0.950 . S
H3575 C3599 0.951 . S
H3576 C3601 0.951 . S
H3577 C3603 0.950 . S
H3578 C3604 0.950 . S
H3579 C3606 0.950 . S
H3580 C3609 0.950 . S
H3581 C3610 0.950 . S
H3582 C3612 0.950 . S
H3583 C3613 0.950 . S
C3584 H3566 0.951 . S
C3584 C3585 1.366 . S
C3584 C3586 1.388 . S
C3585 C3584 1.366 . S
C3585 C3589 1.385 . S
C3586 H3567 0.951 . S
C3586 C3584 1.388 . S
C3586 C3587 1.366 . S
C3587 C3586 1.366 . S
C3587 C3588 1.414 . S
C3587 C3590 1.499 . S
C3588 H3568 0.950 . S
C3588 C3587 1.414 . S
C3588 C3589 1.374 . S
C3589 H3569 0.950 . S
C3589 C3585 1.385 . S
C3589 C3588 1.374 . S
C3590 C3587 1.499 . S
C3590 C3591 1.373 . S
C3590 C3592 1.389 . S
C3591 H3570 0.950 . S
C3591 C3590 1.373 . S
C3591 C3607 1.377 . S
C3592 C3590 1.389 . S
C3592 C3593 1.524 . S
C3592 C3606 1.377 . S
C3593 C3592 1.524 . S
C3593 C3594 1.397 . S
C3593 C3598 1.363 . S
C3594 H3571 0.950 . S
C3594 C3593 1.397 . S
C3594 C3595 1.334 . S
C3595 H3572 0.950 . S
C3595 C3594 1.334 . S
C3595 C3596 1.287 . S
C3596 C3595 1.287 . S
C3596 C3597 1.524 . S
C3596 H3615 0.913 . S
C3597 H3573 0.950 . S
C3597 C3596 1.524 . S
C3597 C3598 1.415 . S
C3598 H3574 0.950 . S
C3598 C3593 1.363 . S
C3598 C3597 1.415 . S
C3599 H3575 0.951 . S
C3599 C3600 1.366 . S
C3599 C3601 1.388 . S
C3600 C3599 1.366 . S
C3600 C3604 1.385 . S
C3601 H3576 0.951 . S
C3601 C3599 1.388 . S
C3601 C3602 1.366 . S
C3602 C3601 1.366 . S
C3602 C3603 1.414 . S
C3602 C3605 1.499 . S
C3603 H3577 0.950 . S
C3603 C3602 1.414 . S
C3603 C3604 1.374 . S
C3604 H3578 0.950 . S
C3604 C3600 1.385 . S
C3604 C3603 1.374 . S
C3605 C3602 1.499 . S
C3605 C3606 1.373 . S
C3605 C3607 1.389 . S
C3606 H3579 0.950 . S
C3606 C3592 1.377 . S
C3606 C3605 1.373 . S
C3607 C3591 1.377 . S
C3607 C3605 1.389 . S
C3607 C3608 1.524 . S
C3608 C3607 1.524 . S
C3608 C3609 1.397 . S
C3608 C3613 1.363 . S
C3609 H3580 0.950 . S
C3609 C3608 1.397 . S
C3609 C3610 1.334 . S
C3610 H3581 0.950 . S
C3610 C3609 1.334 . S
C3610 C3611 1.287 . S
C3611 C3610 1.287 . S
C3611 C3612 1.524 . S
C3611 H3614 0.999 . S
C3612 H3582 0.950 . S
C3612 C3611 1.524 . S
C3612 C3613 1.415 . S
C3613 H3583 0.950 . S
C3613 C3608 1.363 . S
C3613 C3612 1.415 . S
H3614 C3611 0.999 . S
H3615 C3596 0.913 . S
H3616 C3634 0.951 . S
H3617 C3636 0.951 . S
H3618 C3638 0.950 . S
H3619 C3639 0.950 . S
H3620 C3641 0.950 . S
H3621 C3644 0.950 . S
H3622 C3645 0.950 . S
H3623 C3647 0.950 . S
H3624 C3648 0.950 . S
H3625 C3649 0.951 . S
H3626 C3651 0.951 . S
H3627 C3653 0.950 . S
H3628 C3654 0.950 . S
H3629 C3656 0.950 . S
H3630 C3659 0.950 . S
H3631 C3660 0.950 . S
H3632 C3662 0.950 . S
H3633 C3663 0.950 . S
C3634 H3616 0.951 . S
C3634 C3635 1.366 . S
C3634 C3636 1.388 . S
C3635 C3634 1.366 . S
C3635 C3639 1.385 . S
C3636 H3617 0.951 . S
C3636 C3634 1.388 . S
C3636 C3637 1.366 . S
C3637 C3636 1.366 . S
C3637 C3638 1.414 . S
C3637 C3640 1.499 . S
C3638 H3618 0.950 . S
C3638 C3637 1.414 . S
C3638 C3639 1.374 . S
C3639 H3619 0.950 . S
C3639 C3635 1.385 . S
C3639 C3638 1.374 . S
C3640 C3637 1.499 . S
C3640 C3641 1.373 . S
C3640 C3642 1.389 . S
C3641 H3620 0.950 . S
C3641 C3640 1.373 . S
C3641 C3657 1.377 . S
C3642 C3640 1.389 . S
C3642 C3643 1.524 . S
C3642 C3656 1.377 . S
C3643 C3642 1.524 . S
C3643 C3644 1.397 . S
C3643 C3648 1.363 . S
C3644 H3621 0.950 . S
C3644 C3643 1.397 . S
C3644 C3645 1.334 . S
C3645 H3622 0.950 . S
C3645 C3644 1.334 . S
C3645 C3646 1.287 . S
C3646 C3645 1.287 . S
C3646 C3647 1.524 . S
C3646 H3665 0.913 . S
C3647 H3623 0.950 . S
C3647 C3646 1.524 . S
C3647 C3648 1.415 . S
C3648 H3624 0.950 . S
C3648 C3643 1.363 . S
C3648 C3647 1.415 . S
C3649 H3625 0.951 . S
C3649 C3650 1.366 . S
C3649 C3651 1.388 . S
C3650 C3649 1.366 . S
C3650 C3654 1.385 . S
C3651 H3626 0.951 . S
C3651 C3649 1.388 . S
C3651 C3652 1.366 . S
C3652 C3651 1.366 . S
C3652 C3653 1.414 . S
C3652 C3655 1.499 . S
C3653 H3627 0.950 . S
C3653 C3652 1.414 . S
C3653 C3654 1.374 . S
C3654 H3628 0.950 . S
C3654 C3650 1.385 . S
C3654 C3653 1.374 . S
C3655 C3652 1.499 . S
C3655 C3656 1.373 . S
C3655 C3657 1.389 . S
C3656 H3629 0.950 . S
C3656 C3642 1.377 . S
C3656 C3655 1.373 . S
C3657 C3641 1.377 . S
C3657 C3655 1.389 . S
C3657 C3658 1.524 . S
C3658 C3657 1.524 . S
C3658 C3659 1.397 . S
C3658 C3663 1.363 . S
C3659 H3630 0.950 . S
C3659 C3658 1.397 . S
C3659 C3660 1.334 . S
C3660 H3631 0.950 . S
C3660 C3659 1.334 . S
C3660 C3661 1.287 . S
C3661 C3660 1.287 . S
C3661 C3662 1.524 . S
C3661 H3664 0.999 . S
C3662 H3632 0.950 . S
C3662 C3661 1.524 . S
C3662 C3663 1.415 . S
C3663 H3633 0.950 . S
C3663 C3658 1.363 . S
C3663 C3662 1.415 . S
H3664 C3661 0.999 . S
H3665 C3646 0.913 . S
H3666 C3684 0.951 . S
H3667 C3686 0.951 . S
H3668 C3688 0.950 1_655 S
H3669 C3689 0.950 1_655 S
H3670 C3691 0.950 . S
H3671 C3694 0.950 1_655 S
H3672 C3695 0.950 1_655 S
H3673 C3697 0.950 . S
H3674 C3698 0.950 . S
H3675 C3699 0.951 . S
H3676 C3701 0.951 . S
H3677 C3703 0.950 . S
H3678 C3704 0.950 . S
H3679 C3706 0.950 . S
H3680 C3709 0.950 . S
H3681 C3710 0.950 . S
H3682 C3712 0.950 . S
H3683 C3713 0.950 . S
C3684 H3666 0.951 . S
C3684 C3685 1.366 . S
C3684 C3686 1.388 . S
C3685 C3684 1.366 . S
C3685 C3689 1.385 . S
C3686 H3667 0.951 . S
C3686 C3684 1.388 . S
C3686 C3687 1.366 . S
C3687 C3686 1.366 . S
C3687 C3688 1.414 . S
C3687 C3690 1.499 . S
C3688 H3668 0.950 1_455 S
C3688 C3687 1.414 . S
C3688 C3689 1.374 . S
C3689 H3669 0.950 1_455 S
C3689 C3685 1.385 . S
C3689 C3688 1.374 . S
C3690 C3687 1.499 . S
C3690 C3691 1.373 . S
C3690 C3692 1.389 . S
C3691 H3670 0.950 . S
C3691 C3690 1.373 . S
C3691 C3707 1.377 . S
C3692 C3690 1.389 . S
C3692 C3693 1.524 . S
C3692 C3706 1.377 . S
C3693 C3692 1.524 . S
C3693 C3694 1.397 . S
C3693 C3698 1.363 . S
C3694 H3671 0.950 1_455 S
C3694 C3693 1.397 . S
C3694 C3695 1.334 . S
C3695 H3672 0.950 1_455 S
C3695 C3694 1.334 . S
C3695 C3696 1.287 . S
C3696 C3695 1.287 . S
C3696 C3697 1.524 . S
C3696 H3715 0.913 . S
C3697 H3673 0.950 . S
C3697 C3696 1.524 . S
C3697 C3698 1.415 . S
C3698 H3674 0.950 . S
C3698 C3693 1.363 . S
C3698 C3697 1.415 . S
C3699 H3675 0.951 . S
C3699 C3700 1.366 1_655 S
C3699 C3701 1.388 . S
C3700 C3699 1.366 1_455 S
C3700 C3704 1.385 . S
C3701 H3676 0.951 . S
C3701 C3699 1.388 . S
C3701 C3702 1.366 1_655 S
C3702 C3701 1.366 1_455 S
C3702 C3703 1.414 . S
C3702 C3705 1.499 . S
C3703 H3677 0.950 . S
C3703 C3702 1.414 . S
C3703 C3704 1.374 . S
C3704 H3678 0.950 . S
C3704 C3700 1.385 . S
C3704 C3703 1.374 . S
C3705 C3702 1.499 . S
C3705 C3706 1.373 . S
C3705 C3707 1.389 . S
C3706 H3679 0.950 . S
C3706 C3692 1.377 . S
C3706 C3705 1.373 . S
C3707 C3691 1.377 . S
C3707 C3705 1.389 . S
C3707 C3708 1.524 . S
C3708 C3707 1.524 . S
C3708 C3709 1.397 . S
C3708 C3713 1.363 1_455 S
C3709 H3680 0.950 . S
C3709 C3708 1.397 . S
C3709 C3710 1.334 . S
C3710 H3681 0.950 . S
C3710 C3709 1.334 . S
C3710 C3711 1.287 . S
C3711 C3710 1.287 . S
C3711 C3712 1.524 1_455 S
C3711 H3714 0.999 . S
C3712 H3682 0.950 . S
C3712 C3711 1.524 1_655 S
C3712 C3713 1.415 . S
C3713 H3683 0.950 . S
C3713 C3708 1.363 1_655 S
C3713 C3712 1.415 . S
H3714 C3711 0.999 . S
H3715 C3696 0.913 . S
H3716 C3734 0.951 . S
H3717 C3736 0.951 . S
H3718 C3738 0.950 . S
H3719 C3739 0.950 . S
H3720 C3741 0.950 . S
H3721 C3744 0.950 . S
H3722 C3745 0.950 . S
H3723 C3747 0.950 . S
H3724 C3748 0.950 . S
H3725 C3749 0.951 . S
H3726 C3751 0.951 . S
H3727 C3753 0.950 . S
H3728 C3754 0.950 . S
H3729 C3756 0.950 . S
H3730 C3759 0.950 . S
H3731 C3760 0.950 . S
H3732 C3762 0.950 . S
H3733 C3763 0.950 . S
C3734 H3716 0.951 . S
C3734 C3735 1.366 . S
C3734 C3736 1.388 . S
C3735 C3734 1.366 . S
C3735 C3739 1.385 . S
C3736 H3717 0.951 . S
C3736 C3734 1.388 . S
C3736 C3737 1.366 . S
C3737 C3736 1.366 . S
C3737 C3738 1.414 . S
C3737 C3740 1.499 . S
C3738 H3718 0.950 . S
C3738 C3737 1.414 . S
C3738 C3739 1.374 . S
C3739 H3719 0.950 . S
C3739 C3735 1.385 . S
C3739 C3738 1.374 . S
C3740 C3737 1.499 . S
C3740 C3741 1.373 . S
C3740 C3742 1.389 . S
C3741 H3720 0.950 . S
C3741 C3740 1.373 . S
C3741 C3757 1.377 . S
C3742 C3740 1.389 . S
C3742 C3743 1.524 . S
C3742 C3756 1.377 . S
C3743 C3742 1.524 . S
C3743 C3744 1.397 . S
C3743 C3748 1.363 . S
C3744 H3721 0.950 . S
C3744 C3743 1.397 . S
C3744 C3745 1.334 . S
C3745 H3722 0.950 . S
C3745 C3744 1.334 . S
C3745 C3746 1.287 . S
C3746 C3745 1.287 . S
C3746 C3747 1.524 . S
C3746 H3765 0.913 . S
C3747 H3723 0.950 . S
C3747 C3746 1.524 . S
C3747 C3748 1.415 . S
C3748 H3724 0.950 . S
C3748 C3743 1.363 . S
C3748 C3747 1.415 . S
C3749 H3725 0.951 . S
C3749 C3750 1.366 . S
C3749 C3751 1.388 . S
C3750 C3749 1.366 . S
C3750 C3754 1.385 . S
C3751 H3726 0.951 . S
C3751 C3749 1.388 . S
C3751 C3752 1.366 . S
C3752 C3751 1.366 . S
C3752 C3753 1.414 . S
C3752 C3755 1.499 . S
C3753 H3727 0.950 . S
C3753 C3752 1.414 . S
C3753 C3754 1.374 . S
C3754 H3728 0.950 . S
C3754 C3750 1.385 . S
C3754 C3753 1.374 . S
C3755 C3752 1.499 . S
C3755 C3756 1.373 . S
C3755 C3757 1.389 . S
C3756 H3729 0.950 . S
C3756 C3742 1.377 . S
C3756 C3755 1.373 . S
C3757 C3741 1.377 . S
C3757 C3755 1.389 . S
C3757 C3758 1.524 . S
C3758 C3757 1.524 . S
C3758 C3759 1.397 . S
C3758 C3763 1.363 . S
C3759 H3730 0.950 . S
C3759 C3758 1.397 . S
C3759 C3760 1.334 . S
C3760 H3731 0.950 . S
C3760 C3759 1.334 . S
C3760 C3761 1.287 . S
C3761 C3760 1.287 . S
C3761 C3762 1.524 . S
C3761 H3764 0.999 . S
C3762 H3732 0.950 . S
C3762 C3761 1.524 . S
C3762 C3763 1.415 . S
C3763 H3733 0.950 . S
C3763 C3758 1.363 . S
C3763 C3762 1.415 . S
H3764 C3761 0.999 . S
H3765 C3746 0.913 . S
H3766 C3784 0.947 . S
H3767 C3786 0.951 1_545 S
H3768 C3788 0.950 . S
H3769 C3789 0.950 . S
H3770 C3791 0.950 . S
H3771 C3794 0.950 . S
H3772 C3795 0.950 . S
H3773 C3797 0.950 . S
H3774 C3798 0.950 . S
H3775 C3799 0.951 . S
H3776 C3801 0.951 . S
H3777 C3803 0.950 . S
H3778 C3804 0.950 . S
H3779 C3806 0.950 . S
H3780 C3809 0.950 . S
H3781 C3810 0.950 . S
H3782 C3812 0.950 . S
H3783 C3813 0.950 . S
C3784 H3766 0.947 . S
C3784 C3785 1.366 . S
C3784 C3786 1.388 . S
C3785 C3784 1.366 . S
C3785 C3789 1.385 . S
C3786 H3767 0.951 1_565 S
C3786 C3784 1.388 . S
C3786 C3787 1.366 . S
C3787 C3786 1.366 . S
C3787 C3788 1.414 . S
C3787 C3790 1.499 . S
C3788 H3768 0.950 . S
C3788 C3787 1.414 . S
C3788 C3789 1.374 . S
C3789 H3769 0.950 . S
C3789 C3785 1.385 . S
C3789 C3788 1.374 . S
C3790 C3787 1.499 . S
C3790 C3791 1.373 . S
C3790 C3792 1.389 1_565 S
C3791 H3770 0.950 . S
C3791 C3790 1.373 . S
C3791 C3807 1.377 . S
C3792 C3790 1.389 1_545 S
C3792 C3793 1.524 . S
C3792 C3806 1.377 . S
C3793 C3792 1.524 . S
C3793 C3794 1.397 . S
C3793 C3798 1.363 . S
C3794 H3771 0.950 . S
C3794 C3793 1.397 . S
C3794 C3795 1.334 . S
C3795 H3772 0.950 . S
C3795 C3794 1.334 . S
C3795 C3796 1.287 . S
C3796 C3795 1.287 . S
C3796 C3797 1.524 . S
C3796 H3815 0.913 . S
C3797 H3773 0.950 . S
C3797 C3796 1.524 . S
C3797 C3798 1.415 . S
C3798 H3774 0.950 . S
C3798 C3793 1.363 . S
C3798 C3797 1.415 . S
C3799 H3775 0.951 . S
C3799 C3800 1.366 . S
C3799 C3801 1.388 . S
C3800 C3799 1.366 . S
C3800 C3804 1.385 1_565 S
C3801 H3776 0.951 . S
C3801 C3799 1.388 . S
C3801 C3802 1.366 . S
C3802 C3801 1.366 . S
C3802 C3803 1.414 1_565 S
C3802 C3805 1.499 . S
C3803 H3777 0.950 . S
C3803 C3802 1.414 1_545 S
C3803 C3804 1.374 . S
C3804 H3778 0.950 . S
C3804 C3800 1.385 1_545 S
C3804 C3803 1.374 . S
C3805 C3802 1.499 . S
C3805 C3806 1.373 1_565 S
C3805 C3807 1.389 . S
C3806 H3779 0.950 . S
C3806 C3792 1.377 . S
C3806 C3805 1.373 1_545 S
C3807 C3791 1.377 . S
C3807 C3805 1.389 . S
C3807 C3808 1.524 . S
C3808 C3807 1.524 . S
C3808 C3809 1.397 . S
C3808 C3813 1.363 . S
C3809 H3780 0.950 . S
C3809 C3808 1.397 . S
C3809 C3810 1.334 . S
C3810 H3781 0.950 . S
C3810 C3809 1.334 . S
C3810 C3811 1.287 . S
C3811 C3810 1.287 . S
C3811 C3812 1.524 . S
C3811 H3814 0.999 . S
C3812 H3782 0.950 . S
C3812 C3811 1.524 . S
C3812 C3813 1.415 . S
C3813 H3783 0.950 . S
C3813 C3808 1.363 . S
C3813 C3812 1.415 . S
H3814 C3811 0.999 . S
H3815 C3796 0.913 . S
H3816 C3834 0.951 . S
H3817 C3836 0.951 . S
H3818 C3838 0.950 . S
H3819 C3839 0.950 . S
H3820 C3841 0.950 . S
H3821 C3844 0.950 . S
H3822 C3845 0.950 . S
H3823 C3847 0.950 . S
H3824 C3848 0.950 . S
H3825 C3849 0.951 . S
H3826 C3851 0.951 . S
H3827 C3853 0.952 1_545 S
H3828 C3854 0.950 . S
H3829 C3856 0.950 . S
H3830 C3859 0.950 . S
H3831 C3860 0.950 . S
H3832 C3862 0.950 . S
H3833 C3863 0.950 . S
C3834 H3816 0.951 . S
C3834 C3835 1.366 . S
C3834 C3836 1.388 . S
C3835 C3834 1.366 . S
C3835 C3839 1.385 . S
C3836 H3817 0.951 . S
C3836 C3834 1.388 . S
C3836 C3837 1.366 . S
C3837 C3836 1.366 . S
C3837 C3838 1.414 . S
C3837 C3840 1.499 . S
C3838 H3818 0.950 . S
C3838 C3837 1.414 . S
C3838 C3839 1.374 . S
C3839 H3819 0.950 . S
C3839 C3835 1.385 . S
C3839 C3838 1.374 . S
C3840 C3837 1.499 . S
C3840 C3841 1.373 . S
C3840 C3842 1.389 1_565 S
C3841 H3820 0.950 . S
C3841 C3840 1.373 . S
C3841 C3857 1.377 . S
C3842 C3840 1.389 1_545 S
C3842 C3843 1.524 . S
C3842 C3856 1.377 . S
C3843 C3842 1.524 . S
C3843 C3844 1.397 . S
C3843 C3848 1.363 . S
C3844 H3821 0.950 . S
C3844 C3843 1.397 . S
C3844 C3845 1.334 . S
C3845 H3822 0.950 . S
C3845 C3844 1.334 . S
C3845 C3846 1.287 . S
C3846 C3845 1.287 . S
C3846 C3847 1.524 . S
C3846 H3865 0.913 . S
C3847 H3823 0.950 . S
C3847 C3846 1.524 . S
C3847 C3848 1.415 . S
C3848 H3824 0.950 . S
C3848 C3843 1.363 . S
C3848 C3847 1.415 . S
C3849 H3825 0.951 . S
C3849 C3850 1.366 . S
C3849 C3851 1.388 . S
C3850 C3849 1.366 . S
C3850 C3854 1.385 1_565 S
C3851 H3826 0.951 . S
C3851 C3849 1.388 . S
C3851 C3852 1.366 . S
C3852 C3851 1.366 . S
C3852 C3853 1.419 . S
C3852 C3855 1.499 . S
C3853 H3827 0.952 1_565 S
C3853 C3852 1.419 . S
C3853 C3854 1.368 1_565 S
C3854 H3828 0.950 . S
C3854 C3850 1.385 1_545 S
C3854 C3853 1.368 1_545 S
C3855 C3852 1.499 . S
C3855 C3856 1.373 1_565 S
C3855 C3857 1.389 . S
C3856 H3829 0.950 . S
C3856 C3842 1.377 . S
C3856 C3855 1.373 1_545 S
C3857 C3841 1.377 . S
C3857 C3855 1.389 . S
C3857 C3858 1.524 . S
C3858 C3857 1.524 . S
C3858 C3859 1.397 . S
C3858 C3863 1.363 . S
C3859 H3830 0.950 . S
C3859 C3858 1.397 . S
C3859 C3860 1.334 . S
C3860 H3831 0.950 . S
C3860 C3859 1.334 . S
C3860 C3861 1.287 . S
C3861 C3860 1.287 . S
C3861 C3862 1.524 . S
C3861 H3864 0.999 . S
C3862 H3832 0.950 . S
C3862 C3861 1.524 . S
C3862 C3863 1.415 . S
C3863 H3833 0.950 . S
C3863 C3858 1.363 . S
C3863 C3862 1.415 . S
H3864 C3861 0.999 . S
H3865 C3846 0.913 . S
H3866 C3884 0.951 . S
H3867 C3886 0.951 . S
H3868 C3888 0.981 . S
H3869 C3889 0.866 1_655 S
H3870 C3891 0.929 1_655 S
H3871 C3894 0.950 . S
H3872 C3895 0.950 . S
H3873 C3897 0.950 . S
H3874 C3898 0.950 . S
H3875 C3899 0.951 . S
H3876 C3901 0.951 . S
H3877 C3903 0.950 . S
H3878 C3904 0.950 . S
H3879 C3906 0.950 . S
H3880 C3909 0.950 . S
H3881 C3910 0.950 . S
H3882 C3912 0.950 . S
H3883 C3913 0.950 . S
C3884 H3866 0.951 . S
C3884 C3885 1.366 . S
C3884 C3886 1.388 . S
C3885 C3884 1.366 . S
C3885 C3889 1.436 . S
C3886 H3867 0.951 . S
C3886 C3884 1.388 . S
C3886 C3887 1.366 . S
C3887 C3886 1.366 . S
C3887 C3888 1.364 1_455 S
C3887 C3890 1.499 . S
C3888 H3868 0.981 . S
C3888 C3887 1.364 1_655 S
C3888 C3889 1.437 1_655 S
C3889 H3869 0.866 1_455 S
C3889 C3885 1.436 . S
C3889 C3888 1.437 1_455 S
C3890 C3887 1.499 . S
C3890 C3891 1.373 . S
C3890 C3892 1.389 . S
C3891 H3870 0.929 1_455 S
C3891 C3890 1.373 . S
C3891 C3907 1.377 . S
C3892 C3890 1.389 . S
C3892 C3893 1.524 . S
C3892 C3906 1.377 . S
C3893 C3892 1.524 . S
C3893 C3894 1.397 . S
C3893 C3898 1.363 . S
C3894 H3871 0.950 . S
C3894 C3893 1.397 . S
C3894 C3895 1.334 . S
C3895 H3872 0.950 . S
C3895 C3894 1.334 . S
C3895 C3896 1.287 . S
C3896 C3895 1.287 . S
C3896 C3897 1.524 . S
C3896 H3915 0.913 . S
C3897 H3873 0.950 . S
C3897 C3896 1.524 . S
C3897 C3898 1.415 . S
C3898 H3874 0.950 . S
C3898 C3893 1.363 . S
C3898 C3897 1.415 . S
C3899 H3875 0.951 . S
C3899 C3900 1.366 1_655 S
C3899 C3901 1.388 . S
C3900 C3899 1.366 1_455 S
C3900 C3904 1.385 . S
C3901 H3876 0.951 . S
C3901 C3899 1.388 . S
C3901 C3902 1.366 1_655 S
C3902 C3901 1.366 1_455 S
C3902 C3903 1.414 . S
C3902 C3905 1.499 . S
C3903 H3877 0.950 . S
C3903 C3902 1.414 . S
C3903 C3904 1.374 . S
C3904 H3878 0.950 . S
C3904 C3900 1.385 . S
C3904 C3903 1.374 . S
C3905 C3902 1.499 . S
C3905 C3906 1.373 . S
C3905 C3907 1.389 . S
C3906 H3879 0.950 . S
C3906 C3892 1.377 . S
C3906 C3905 1.373 . S
C3907 C3891 1.377 . S
C3907 C3905 1.389 . S
C3907 C3908 1.524 1_455 S
C3908 C3907 1.524 1_655 S
C3908 C3909 1.397 1_655 S
C3908 C3913 1.363 . S
C3909 H3880 0.950 . S
C3909 C3908 1.397 1_455 S
C3909 C3910 1.334 . S
C3910 H3881 0.950 . S
C3910 C3909 1.334 . S
C3910 C3911 1.287 1_455 S
C3911 C3910 1.287 1_655 S
C3911 C3912 1.524 . S
C3911 H3914 0.999 . S
C3912 H3882 0.950 . S
C3912 C3911 1.524 . S
C3912 C3913 1.415 . S
C3913 H3883 0.950 . S
C3913 C3908 1.363 . S
C3913 C3912 1.415 . S
H3914 C3911 0.999 . S
H3915 C3896 0.913 . S
H3916 C3934 0.951 . S
H3917 C3936 0.951 . S
H3918 C3938 0.950 . S
H3919 C3939 0.950 . S
H3920 C3941 0.950 . S
H3921 C3944 0.950 . S
H3922 C3945 0.950 . S
H3923 C3947 0.950 . S
H3924 C3948 0.950 . S
H3925 C3949 0.951 . S
H3926 C3951 0.951 . S
H3927 C3953 0.950 . S
H3928 C3954 0.950 . S
H3929 C3956 0.950 . S
H3930 C3959 0.950 . S
H3931 C3960 0.950 . S
H3932 C3962 0.950 . S
H3933 C3963 0.950 . S
C3934 H3916 0.951 . S
C3934 C3935 1.366 . S
C3934 C3936 1.388 . S
C3935 C3934 1.366 . S
C3935 C3939 1.385 . S
C3936 H3917 0.951 . S
C3936 C3934 1.388 . S
C3936 C3937 1.366 . S
C3937 C3936 1.366 . S
C3937 C3938 1.414 . S
C3937 C3940 1.499 . S
C3938 H3918 0.950 . S
C3938 C3937 1.414 . S
C3938 C3939 1.374 . S
C3939 H3919 0.950 . S
C3939 C3935 1.385 . S
C3939 C3938 1.374 . S
C3940 C3937 1.499 . S
C3940 C3941 1.373 . S
C3940 C3942 1.389 . S
C3941 H3920 0.950 . S
C3941 C3940 1.373 . S
C3941 C3957 1.377 . S
C3942 C3940 1.389 . S
C3942 C3943 1.524 . S
C3942 C3956 1.377 . S
C3943 C3942 1.524 . S
C3943 C3944 1.397 . S
C3943 C3948 1.363 . S
C3944 H3921 0.950 . S
C3944 C3943 1.397 . S
C3944 C3945 1.334 . S
C3945 H3922 0.950 . S
C3945 C3944 1.334 . S
C3945 C3946 1.287 . S
C3946 C3945 1.287 . S
C3946 C3947 1.524 . S
C3946 H3965 0.913 . S
C3947 H3923 0.950 . S
C3947 C3946 1.524 . S
C3947 C3948 1.415 . S
C3948 H3924 0.950 . S
C3948 C3943 1.363 . S
C3948 C3947 1.415 . S
C3949 H3925 0.951 . S
C3949 C3950 1.366 . S
C3949 C3951 1.388 . S
C3950 C3949 1.366 . S
C3950 C3954 1.385 . S
C3951 H3926 0.951 . S
C3951 C3949 1.388 . S
C3951 C3952 1.366 . S
C3952 C3951 1.366 . S
C3952 C3953 1.414 . S
C3952 C3955 1.499 . S
C3953 H3927 0.950 . S
C3953 C3952 1.414 . S
C3953 C3954 1.374 . S
C3954 H3928 0.950 . S
C3954 C3950 1.385 . S
C3954 C3953 1.374 . S
C3955 C3952 1.499 . S
C3955 C3956 1.373 . S
C3955 C3957 1.389 . S
C3956 H3929 0.950 . S
C3956 C3942 1.377 . S
C3956 C3955 1.373 . S
C3957 C3941 1.377 . S
C3957 C3955 1.389 . S
C3957 C3958 1.524 . S
C3958 C3957 1.524 . S
C3958 C3959 1.397 . S
C3958 C3963 1.363 . S
C3959 H3930 0.950 . S
C3959 C3958 1.397 . S
C3959 C3960 1.334 . S
C3960 H3931 0.950 . S
C3960 C3959 1.334 . S
C3960 C3961 1.287 . S
C3961 C3960 1.287 . S
C3961 C3962 1.524 . S
C3961 H3964 0.999 . S
C3962 H3932 0.950 . S
C3962 C3961 1.524 . S
C3962 C3963 1.415 . S
C3963 H3933 0.950 . S
C3963 C3958 1.363 . S
C3963 C3962 1.415 . S
H3964 C3961 0.999 . S
H3965 C3946 0.913 . S
H3966 C3984 0.951 . S
H3967 C3986 0.951 . S
H3968 C3988 0.950 . S
H3969 C3989 0.950 . S
H3970 C3991 0.950 . S
H3971 C3994 0.950 . S
H3972 C3995 0.950 . S
H3973 C3997 0.950 . S
H3974 C3998 0.950 . S
H3975 C3999 0.951 . S
H3976 C4001 0.951 . S
H3977 C4003 0.950 . S
H3978 C4004 0.950 . S
H3979 C4006 0.950 . S
H3980 C4009 0.950 . S
H3981 C4010 0.950 . S
H3982 C4012 0.950 . S
H3983 C4013 0.950 . S
C3984 H3966 0.951 . S
C3984 C3985 1.366 . S
C3984 C3986 1.388 . S
C3985 C3984 1.366 . S
C3985 C3989 1.385 . S
C3986 H3967 0.951 . S
C3986 C3984 1.388 . S
C3986 C3987 1.366 . S
C3987 C3986 1.366 . S
C3987 C3988 1.414 . S
C3987 C3990 1.499 . S
C3988 H3968 0.950 . S
C3988 C3987 1.414 . S
C3988 C3989 1.374 . S
C3989 H3969 0.950 . S
C3989 C3985 1.385 . S
C3989 C3988 1.374 . S
C3990 C3987 1.499 . S
C3990 C3991 1.373 . S
C3990 C3992 1.389 . S
C3991 H3970 0.950 . S
C3991 C3990 1.373 . S
C3991 C4007 1.377 . S
C3992 C3990 1.389 . S
C3992 C3993 1.524 . S
C3992 C4006 1.377 . S
C3993 C3992 1.524 . S
C3993 C3994 1.397 . S
C3993 C3998 1.363 . S
C3994 H3971 0.950 . S
C3994 C3993 1.397 . S
C3994 C3995 1.334 . S
C3995 H3972 0.950 . S
C3995 C3994 1.334 . S
C3995 C3996 1.287 . S
C3996 C3995 1.287 . S
C3996 C3997 1.524 . S
C3996 H4015 0.913 . S
C3997 H3973 0.950 . S
C3997 C3996 1.524 . S
C3997 C3998 1.415 . S
C3998 H3974 0.950 . S
C3998 C3993 1.363 . S
C3998 C3997 1.415 . S
C3999 H3975 0.951 . S
C3999 C4000 1.366 . S
C3999 C4001 1.388 . S
C4000 C3999 1.366 . S
C4000 C4004 1.385 . S
C4001 H3976 0.951 . S
C4001 C3999 1.388 . S
C4001 C4002 1.366 . S
C4002 C4001 1.366 . S
C4002 C4003 1.414 . S
C4002 C4005 1.499 . S
C4003 H3977 0.950 . S
C4003 C4002 1.414 . S
C4003 C4004 1.374 . S
C4004 H3978 0.950 . S
C4004 C4000 1.385 . S
C4004 C4003 1.374 . S
C4005 C4002 1.499 . S
C4005 C4006 1.373 . S
C4005 C4007 1.389 . S
C4006 H3979 0.950 . S
C4006 C3992 1.377 . S
C4006 C4005 1.373 . S
C4007 C3991 1.377 . S
C4007 C4005 1.389 . S
C4007 C4008 1.524 . S
C4008 C4007 1.524 . S
C4008 C4009 1.397 . S
C4008 C4013 1.363 . S
C4009 H3980 0.950 . S
C4009 C4008 1.397 . S
C4009 C4010 1.334 . S
C4010 H3981 0.950 . S
C4010 C4009 1.334 . S
C4010 C4011 1.287 . S
C4011 C4010 1.287 . S
C4011 C4012 1.524 . S
C4011 H4014 0.999 . S
C4012 H3982 0.950 . S
C4012 C4011 1.524 . S
C4012 C4013 1.415 . S
C4013 H3983 0.950 . S
C4013 C4008 1.363 . S
C4013 C4012 1.415 . S
H4014 C4011 0.999 . S
H4015 C3996 0.913 . S
H4016 C4034 0.951 . S
H4017 C4036 0.951 . S
H4018 C4038 0.950 . S
H4019 C4039 0.950 . S
H4020 C4041 0.950 . S
H4021 C4044 0.950 . S
H4022 C4045 0.950 . S
H4023 C4047 0.950 . S
H4024 C4048 0.950 . S
H4025 C4049 0.951 . S
H4026 C4051 0.951 . S
H4027 C4053 0.950 . S
H4028 C4054 0.950 . S
H4029 C4056 0.950 . S
H4030 C4059 0.950 . S
H4031 C4060 0.950 . S
H4032 C4062 0.950 . S
H4033 C4063 0.950 . S
C4034 H4016 0.951 . S
C4034 C4035 1.366 . S
C4034 C4036 1.388 . S
C4035 C4034 1.366 . S
C4035 C4039 1.385 . S
C4036 H4017 0.951 . S
C4036 C4034 1.388 . S
C4036 C4037 1.366 . S
C4037 C4036 1.366 . S
C4037 C4038 1.414 . S
C4037 C4040 1.499 . S
C4038 H4018 0.950 . S
C4038 C4037 1.414 . S
C4038 C4039 1.374 . S
C4039 H4019 0.950 . S
C4039 C4035 1.385 . S
C4039 C4038 1.374 . S
C4040 C4037 1.499 . S
C4040 C4041 1.373 . S
C4040 C4042 1.389 . S
C4041 H4020 0.950 . S
C4041 C4040 1.373 . S
C4041 C4057 1.377 . S
C4042 C4040 1.389 . S
C4042 C4043 1.524 . S
C4042 C4056 1.377 . S
C4043 C4042 1.524 . S
C4043 C4044 1.397 . S
C4043 C4048 1.363 . S
C4044 H4021 0.950 . S
C4044 C4043 1.397 . S
C4044 C4045 1.334 . S
C4045 H4022 0.950 . S
C4045 C4044 1.334 . S
C4045 C4046 1.287 . S
C4046 C4045 1.287 . S
C4046 C4047 1.524 . S
C4046 H4065 0.913 . S
C4047 H4023 0.950 . S
C4047 C4046 1.524 . S
C4047 C4048 1.415 . S
C4048 H4024 0.950 . S
C4048 C4043 1.363 . S
C4048 C4047 1.415 . S
C4049 H4025 0.951 . S
C4049 C4050 1.366 . S
C4049 C4051 1.388 . S
C4050 C4049 1.366 . S
C4050 C4054 1.385 . S
C4051 H4026 0.951 . S
C4051 C4049 1.388 . S
C4051 C4052 1.366 . S
C4052 C4051 1.366 . S
C4052 C4053 1.414 . S
C4052 C4055 1.499 . S
C4053 H4027 0.950 . S
C4053 C4052 1.414 . S
C4053 C4054 1.374 . S
C4054 H4028 0.950 . S
C4054 C4050 1.385 . S
C4054 C4053 1.374 . S
C4055 C4052 1.499 . S
C4055 C4056 1.373 . S
C4055 C4057 1.389 . S
C4056 H4029 0.950 . S
C4056 C4042 1.377 . S
C4056 C4055 1.373 . S
C4057 C4041 1.377 . S
C4057 C4055 1.389 . S
C4057 C4058 1.524 . S
C4058 C4057 1.524 . S
C4058 C4059 1.397 . S
C4058 C4063 1.363 . S
C4059 H4030 0.950 . S
C4059 C4058 1.397 . S
C4059 C4060 1.334 . S
C4060 H4031 0.950 . S
C4060 C4059 1.334 . S
C4060 C4061 1.287 . S
C4061 C4060 1.287 . S
C4061 C4062 1.524 . S
C4061 H4064 0.999 . S
C4062 H4032 0.950 . S
C4062 C4061 1.524 . S
C4062 C4063 1.415 . S
C4063 H4033 0.950 . S
C4063 C4058 1.363 . S
C4063 C4062 1.415 . S
H4064 C4061 0.999 . S
H4065 C4046 0.913 . S
H4066 C4084 0.951 . S
H4067 C4086 0.951 . S
H4068 C4088 0.950 . S
H4069 C4089 0.950 . S
H4070 C4091 0.950 . S
H4071 C4094 0.950 . S
H4072 C4095 0.950 . S
H4073 C4097 0.950 . S
H4074 C4098 0.950 . S
H4075 C4099 0.951 . S
H4076 C4101 0.951 . S
H4077 C4103 0.950 . S
H4078 C4104 0.950 . S
H4079 C4106 0.950 . S
H4080 C4109 0.950 . S
H4081 C4110 0.950 . S
H4082 C4112 0.950 . S
H4083 C4113 0.950 . S
C4084 H4066 0.951 . S
C4084 C4085 1.366 . S
C4084 C4086 1.388 . S
C4085 C4084 1.366 . S
C4085 C4089 1.385 . S
C4086 H4067 0.951 . S
C4086 C4084 1.388 . S
C4086 C4087 1.366 . S
C4087 C4086 1.366 . S
C4087 C4088 1.414 . S
C4087 C4090 1.499 . S
C4088 H4068 0.950 . S
C4088 C4087 1.414 . S
C4088 C4089 1.374 . S
C4089 H4069 0.950 . S
C4089 C4085 1.385 . S
C4089 C4088 1.374 . S
C4090 C4087 1.499 . S
C4090 C4091 1.373 . S
C4090 C4092 1.389 . S
C4091 H4070 0.950 . S
C4091 C4090 1.373 . S
C4091 C4107 1.377 . S
C4092 C4090 1.389 . S
C4092 C4093 1.524 . S
C4092 C4106 1.377 . S
C4093 C4092 1.524 . S
C4093 C4094 1.397 . S
C4093 C4098 1.363 . S
C4094 H4071 0.950 . S
C4094 C4093 1.397 . S
C4094 C4095 1.334 . S
C4095 H4072 0.950 . S
C4095 C4094 1.334 . S
C4095 C4096 1.287 . S
C4096 C4095 1.287 . S
C4096 C4097 1.524 . S
C4096 H4115 0.913 . S
C4097 H4073 0.950 . S
C4097 C4096 1.524 . S
C4097 C4098 1.415 . S
C4098 H4074 0.950 . S
C4098 C4093 1.363 . S
C4098 C4097 1.415 . S
C4099 H4075 0.951 . S
C4099 C4100 1.366 . S
C4099 C4101 1.388 . S
C4100 C4099 1.366 . S
C4100 C4104 1.385 . S
C4101 H4076 0.951 . S
C4101 C4099 1.388 . S
C4101 C4102 1.366 . S
C4102 C4101 1.366 . S
C4102 C4103 1.414 . S
C4102 C4105 1.499 . S
C4103 H4077 0.950 . S
C4103 C4102 1.414 . S
C4103 C4104 1.374 . S
C4104 H4078 0.950 . S
C4104 C4100 1.385 . S
C4104 C4103 1.374 . S
C4105 C4102 1.499 . S
C4105 C4106 1.373 . S
C4105 C4107 1.389 . S
C4106 H4079 0.950 . S
C4106 C4092 1.377 . S
C4106 C4105 1.373 . S
C4107 C4091 1.377 . S
C4107 C4105 1.389 . S
C4107 C4108 1.524 . S
C4108 C4107 1.524 . S
C4108 C4109 1.397 . S
C4108 C4113 1.363 . S
C4109 H4080 0.950 . S
C4109 C4108 1.397 . S
C4109 C4110 1.334 . S
C4110 H4081 0.950 . S
C4110 C4109 1.334 . S
C4110 C4111 1.287 . S
C4111 C4110 1.287 . S
C4111 C4112 1.524 . S
C4111 H4114 0.999 . S
C4112 H4082 0.950 . S
C4112 C4111 1.524 . S
C4112 C4113 1.415 . S
C4113 H4083 0.950 . S
C4113 C4108 1.363 . S
C4113 C4112 1.415 . S
H4114 C4111 0.999 . S
H4115 C4096 0.913 . S
H4116 C4134 0.951 . S
H4117 C4136 0.951 . S
H4118 C4138 0.950 1_565 S
H4119 C4139 0.935 1_565 S
H4120 C4141 0.950 . S
H4121 C4144 0.945 1_565 S
H4122 C4145 0.950 . S
H4123 C4147 0.950 . S
H4124 C4148 0.950 . S
H4125 C4149 0.951 . S
H4126 C4151 0.951 . S
H4127 C4153 0.950 . S
H4128 C4154 0.950 . S
H4129 C4156 0.950 . S
H4130 C4159 0.950 . S
H4131 C4160 0.950 . S
H4132 C4162 0.950 . S
H4133 C4163 0.950 . S
C4134 H4116 0.951 . S
C4134 C4135 1.366 . S
C4134 C4136 1.388 . S
C4135 C4134 1.366 . S
C4135 C4139 1.385 . S
C4136 H4117 0.951 . S
C4136 C4134 1.388 . S
C4136 C4137 1.366 . S
C4137 C4136 1.366 . S
C4137 C4138 1.414 . S
C4137 C4140 1.499 . S
C4138 H4118 0.950 1_545 S
C4138 C4137 1.414 . S
C4138 C4139 1.374 . S
C4139 H4119 0.935 1_545 S
C4139 C4135 1.385 . S
C4139 C4138 1.374 . S
C4140 C4137 1.499 . S
C4140 C4141 1.373 . S
C4140 C4142 1.389 . S
C4141 H4120 0.950 . S
C4141 C4140 1.373 . S
C4141 C4157 1.377 . S
C4142 C4140 1.389 . S
C4142 C4143 1.524 . S
C4142 C4156 1.377 . S
C4143 C4142 1.524 . S
C4143 C4144 1.397 . S
C4143 C4148 1.363 . S
C4144 H4121 0.945 1_545 S
C4144 C4143 1.397 . S
C4144 C4145 1.334 . S
C4145 H4122 0.950 . S
C4145 C4144 1.334 . S
C4145 C4146 1.287 . S
C4146 C4145 1.287 . S
C4146 C4147 1.524 . S
C4146 H4165 0.913 . S
C4147 H4123 0.950 . S
C4147 C4146 1.524 . S
C4147 C4148 1.415 . S
C4148 H4124 0.950 . S
C4148 C4143 1.363 . S
C4148 C4147 1.415 . S
C4149 H4125 0.951 . S
C4149 C4150 1.366 1_565 S
C4149 C4151 1.388 . S
C4150 C4149 1.366 1_545 S
C4150 C4154 1.385 . S
C4151 H4126 0.951 . S
C4151 C4149 1.388 . S
C4151 C4152 1.366 1_565 S
C4152 C4151 1.366 1_545 S
C4152 C4153 1.414 . S
C4152 C4155 1.499 . S
C4153 H4127 0.950 . S
C4153 C4152 1.414 . S
C4153 C4154 1.374 . S
C4154 H4128 0.950 . S
C4154 C4150 1.385 . S
C4154 C4153 1.374 . S
C4155 C4152 1.499 . S
C4155 C4156 1.373 . S
C4155 C4157 1.389 . S
C4156 H4129 0.950 . S
C4156 C4142 1.377 . S
C4156 C4155 1.373 . S
C4157 C4141 1.377 . S
C4157 C4155 1.389 . S
C4157 C4158 1.524 . S
C4158 C4157 1.524 . S
C4158 C4159 1.397 . S
C4158 C4163 1.363 1_545 S
C4159 H4130 0.950 . S
C4159 C4158 1.397 . S
C4159 C4160 1.334 . S
C4160 H4131 0.950 . S
C4160 C4159 1.334 . S
C4160 C4161 1.287 . S
C4161 C4160 1.287 . S
C4161 C4162 1.524 1_545 S
C4161 H4164 0.999 . S
C4162 H4132 0.950 . S
C4162 C4161 1.524 1_565 S
C4162 C4163 1.415 . S
C4163 H4133 0.950 . S
C4163 C4158 1.363 1_565 S
C4163 C4162 1.415 . S
H4164 C4161 0.999 . S
H4165 C4146 0.913 . S
H4166 C4184 0.951 . S
H4167 C4186 0.951 . S
H4168 C4188 0.950 . S
H4169 C4189 0.950 . S
H4170 C4191 0.924 1_455 S
H4171 C4194 0.950 . S
H4172 C4195 0.950 . S
H4173 C4197 0.950 . S
H4174 C4198 0.950 . S
H4175 C4199 0.951 . S
H4176 C4201 0.951 . S
H4177 C4203 0.950 . S
H4178 C4204 0.944 1_455 S
H4179 C4206 0.950 . S
H4180 C4209 0.950 . S
H4181 C4210 0.950 . S
H4182 C4212 0.950 . S
H4183 C4213 0.950 . S
C4184 H4166 0.951 . S
C4184 C4185 1.366 . S
C4184 C4186 1.388 . S
C4185 C4184 1.366 . S
C4185 C4189 1.385 . S
C4186 H4167 0.951 . S
C4186 C4184 1.388 . S
C4186 C4187 1.366 . S
C4187 C4186 1.366 . S
C4187 C4188 1.414 . S
C4187 C4190 1.499 . S
C4188 H4168 0.950 . S
C4188 C4187 1.414 . S
C4188 C4189 1.374 . S
C4189 H4169 0.950 . S
C4189 C4185 1.385 . S
C4189 C4188 1.374 . S
C4190 C4187 1.499 . S
C4190 C4191 1.384 . S
C4190 C4192 1.389 . S
C4191 H4170 0.924 1_655 S
C4191 C4190 1.384 . S
C4191 C4207 1.396 1_655 S
C4192 C4190 1.389 . S
C4192 C4193 1.524 . S
C4192 C4206 1.377 . S
C4193 C4192 1.524 . S
C4193 C4194 1.397 . S
C4193 C4198 1.363 . S
C4194 H4171 0.950 . S
C4194 C4193 1.397 . S
C4194 C4195 1.334 . S
C4195 H4172 0.950 . S
C4195 C4194 1.334 . S
C4195 C4196 1.287 . S
C4196 C4195 1.287 . S
C4196 C4197 1.524 . S
C4196 H4215 0.913 . S
C4197 H4173 0.950 . S
C4197 C4196 1.524 . S
C4197 C4198 1.415 . S
C4198 H4174 0.950 . S
C4198 C4193 1.363 . S
C4198 C4197 1.415 . S
C4199 H4175 0.951 . S
C4199 C4200 1.366 . S
C4199 C4201 1.388 . S
C4200 C4199 1.366 . S
C4200 C4204 1.385 . S
C4201 H4176 0.951 . S
C4201 C4199 1.388 . S
C4201 C4202 1.366 . S
C4202 C4201 1.366 . S
C4202 C4203 1.414 . S
C4202 C4205 1.499 . S
C4203 H4177 0.950 . S
C4203 C4202 1.414 . S
C4203 C4204 1.374 . S
C4204 H4178 0.944 1_655 S
C4204 C4200 1.385 . S
C4204 C4203 1.374 . S
C4205 C4202 1.499 . S
C4205 C4206 1.373 . S
C4205 C4207 1.389 1_655 S
C4206 H4179 0.950 . S
C4206 C4192 1.377 . S
C4206 C4205 1.373 . S
C4207 C4191 1.396 1_455 S
C4207 C4205 1.389 1_455 S
C4207 C4208 1.524 . S
C4208 C4207 1.524 . S
C4208 C4209 1.397 . S
C4208 C4213 1.363 . S
C4209 H4180 0.950 . S
C4209 C4208 1.397 . S
C4209 C4210 1.334 . S
C4210 H4181 0.950 . S
C4210 C4209 1.334 . S
C4210 C4211 1.287 . S
C4211 C4210 1.287 . S
C4211 C4212 1.524 . S
C4211 H4214 0.999 . S
C4212 H4182 0.950 . S
C4212 C4211 1.524 . S
C4212 C4213 1.415 . S
C4213 H4183 0.950 . S
C4213 C4208 1.363 . S
C4213 C4212 1.415 . S
H4214 C4211 0.999 . S
H4215 C4196 0.913 . S
H4216 C4234 0.951 . S
H4217 C4236 0.951 . S
H4218 C4238 0.950 . S
H4219 C4239 0.950 . S
H4220 C4241 0.950 . S
H4221 C4244 0.950 . S
H4222 C4245 0.950 . S
H4223 C4247 0.950 . S
H4224 C4248 0.950 . S
H4225 C4249 0.951 . S
H4226 C4251 0.951 . S
H4227 C4253 0.950 . S
H4228 C4254 0.950 . S
H4229 C4256 0.950 . S
H4230 C4259 0.950 . S
H4231 C4260 0.950 . S
H4232 C4262 0.950 . S
H4233 C4263 0.950 . S
C4234 H4216 0.951 . S
C4234 C4235 1.366 . S
C4234 C4236 1.388 . S
C4235 C4234 1.366 . S
C4235 C4239 1.385 . S
C4236 H4217 0.951 . S
C4236 C4234 1.388 . S
C4236 C4237 1.366 . S
C4237 C4236 1.366 . S
C4237 C4238 1.414 . S
C4237 C4240 1.499 . S
C4238 H4218 0.950 . S
C4238 C4237 1.414 . S
C4238 C4239 1.374 . S
C4239 H4219 0.950 . S
C4239 C4235 1.385 . S
C4239 C4238 1.374 . S
C4240 C4237 1.499 . S
C4240 C4241 1.373 . S
C4240 C4242 1.389 . S
C4241 H4220 0.950 . S
C4241 C4240 1.373 . S
C4241 C4257 1.377 . S
C4242 C4240 1.389 . S
C4242 C4243 1.524 . S
C4242 C4256 1.377 . S
C4243 C4242 1.524 . S
C4243 C4244 1.397 . S
C4243 C4248 1.363 . S
C4244 H4221 0.950 . S
C4244 C4243 1.397 . S
C4244 C4245 1.334 . S
C4245 H4222 0.950 . S
C4245 C4244 1.334 . S
C4245 C4246 1.287 . S
C4246 C4245 1.287 . S
C4246 C4247 1.524 . S
C4246 H4265 0.913 . S
C4247 H4223 0.950 . S
C4247 C4246 1.524 . S
C4247 C4248 1.415 . S
C4248 H4224 0.950 . S
C4248 C4243 1.363 . S
C4248 C4247 1.415 . S
C4249 H4225 0.951 . S
C4249 C4250 1.366 . S
C4249 C4251 1.388 . S
C4250 C4249 1.366 . S
C4250 C4254 1.385 . S
C4251 H4226 0.951 . S
C4251 C4249 1.388 . S
C4251 C4252 1.366 . S
C4252 C4251 1.366 . S
C4252 C4253 1.414 . S
C4252 C4255 1.499 . S
C4253 H4227 0.950 . S
C4253 C4252 1.414 . S
C4253 C4254 1.374 . S
C4254 H4228 0.950 . S
C4254 C4250 1.385 . S
C4254 C4253 1.374 . S
C4255 C4252 1.499 . S
C4255 C4256 1.373 . S
C4255 C4257 1.389 . S
C4256 H4229 0.950 . S
C4256 C4242 1.377 . S
C4256 C4255 1.373 . S
C4257 C4241 1.377 . S
C4257 C4255 1.389 . S
C4257 C4258 1.524 . S
C4258 C4257 1.524 . S
C4258 C4259 1.397 . S
C4258 C4263 1.363 . S
C4259 H4230 0.950 . S
C4259 C4258 1.397 . S
C4259 C4260 1.334 . S
C4260 H4231 0.950 . S
C4260 C4259 1.334 . S
C4260 C4261 1.287 . S
C4261 C4260 1.287 . S
C4261 C4262 1.524 . S
C4261 H4264 0.999 . S
C4262 H4232 0.950 . S
C4262 C4261 1.524 . S
C4262 C4263 1.415 . S
C4263 H4233 0.950 . S
C4263 C4258 1.363 . S
C4263 C4262 1.415 . S
H4264 C4261 0.999 . S
H4265 C4246 0.913 . S
H4266 C4284 0.951 . S
H4267 C4286 0.951 . S
H4268 C4288 0.950 . S
H4269 C4289 0.950 . S
H4270 C4291 0.950 . S
H4271 C4294 0.950 . S
H4272 C4295 0.950 . S
H4273 C4297 0.950 . S
H4274 C4298 0.950 . S
H4275 C4299 0.951 . S
H4276 C4301 0.951 . S
H4277 C4303 0.950 . S
H4278 C4304 0.950 . S
H4279 C4306 0.950 . S
H4280 C4309 0.950 . S
H4281 C4310 0.950 . S
H4282 C4312 0.950 . S
H4283 C4313 0.950 . S
C4284 H4266 0.951 . S
C4284 C4285 1.366 . S
C4284 C4286 1.388 . S
C4285 C4284 1.366 . S
C4285 C4289 1.385 . S
C4286 H4267 0.951 . S
C4286 C4284 1.388 . S
C4286 C4287 1.366 . S
C4287 C4286 1.366 . S
C4287 C4288 1.414 . S
C4287 C4290 1.499 . S
C4288 H4268 0.950 . S
C4288 C4287 1.414 . S
C4288 C4289 1.374 . S
C4289 H4269 0.950 . S
C4289 C4285 1.385 . S
C4289 C4288 1.374 . S
C4290 C4287 1.499 . S
C4290 C4291 1.373 . S
C4290 C4292 1.389 . S
C4291 H4270 0.950 . S
C4291 C4290 1.373 . S
C4291 C4307 1.377 . S
C4292 C4290 1.389 . S
C4292 C4293 1.524 . S
C4292 C4306 1.377 . S
C4293 C4292 1.524 . S
C4293 C4294 1.397 . S
C4293 C4298 1.363 . S
C4294 H4271 0.950 . S
C4294 C4293 1.397 . S
C4294 C4295 1.334 . S
C4295 H4272 0.950 . S
C4295 C4294 1.334 . S
C4295 C4296 1.287 . S
C4296 C4295 1.287 . S
C4296 C4297 1.524 . S
C4296 H4315 0.913 . S
C4297 H4273 0.950 . S
C4297 C4296 1.524 . S
C4297 C4298 1.415 . S
C4298 H4274 0.950 . S
C4298 C4293 1.363 . S
C4298 C4297 1.415 . S
C4299 H4275 0.951 . S
C4299 C4300 1.366 . S
C4299 C4301 1.388 . S
C4300 C4299 1.366 . S
C4300 C4304 1.385 . S
C4301 H4276 0.951 . S
C4301 C4299 1.388 . S
C4301 C4302 1.366 . S
C4302 C4301 1.366 . S
C4302 C4303 1.414 . S
C4302 C4305 1.499 . S
C4303 H4277 0.950 . S
C4303 C4302 1.414 . S
C4303 C4304 1.374 . S
C4304 H4278 0.950 . S
C4304 C4300 1.385 . S
C4304 C4303 1.374 . S
C4305 C4302 1.499 . S
C4305 C4306 1.373 . S
C4305 C4307 1.389 . S
C4306 H4279 0.950 . S
C4306 C4292 1.377 . S
C4306 C4305 1.373 . S
C4307 C4291 1.377 . S
C4307 C4305 1.389 . S
C4307 C4308 1.524 . S
C4308 C4307 1.524 . S
C4308 C4309 1.397 . S
C4308 C4313 1.363 . S
C4309 H4280 0.950 . S
C4309 C4308 1.397 . S
C4309 C4310 1.334 . S
C4310 H4281 0.950 . S
C4310 C4309 1.334 . S
C4310 C4311 1.287 . S
C4311 C4310 1.287 . S
C4311 C4312 1.524 . S
C4311 H4314 0.999 . S
C4312 H4282 0.950 . S
C4312 C4311 1.524 . S
C4312 C4313 1.415 . S
C4313 H4283 0.950 . S
C4313 C4308 1.363 . S
C4313 C4312 1.415 . S
H4314 C4311 0.999 . S
H4315 C4296 0.913 . S
H4316 C4334 0.951 . S
H4317 C4336 0.951 . S
H4318 C4338 0.950 . S
H4319 C4339 0.950 . S
H4320 C4341 0.950 . S
H4321 C4344 0.950 . S
H4322 C4345 0.950 . S
H4323 C4347 0.950 . S
H4324 C4348 0.950 . S
H4325 C4349 0.951 . S
H4326 C4351 0.951 . S
H4327 C4353 0.950 . S
H4328 C4354 0.950 . S
H4329 C4356 0.950 . S
H4330 C4359 0.950 . S
H4331 C4360 0.950 . S
H4332 C4362 0.950 . S
H4333 C4363 0.950 . S
C4334 H4316 0.951 . S
C4334 C4335 1.366 . S
C4334 C4336 1.388 . S
C4335 C4334 1.366 . S
C4335 C4339 1.385 . S
C4336 H4317 0.951 . S
C4336 C4334 1.388 . S
C4336 C4337 1.366 . S
C4337 C4336 1.366 . S
C4337 C4338 1.414 . S
C4337 C4340 1.499 . S
C4338 H4318 0.950 . S
C4338 C4337 1.414 . S
C4338 C4339 1.374 . S
C4339 H4319 0.950 . S
C4339 C4335 1.385 . S
C4339 C4338 1.374 . S
C4340 C4337 1.499 . S
C4340 C4341 1.373 . S
C4340 C4342 1.389 . S
C4341 H4320 0.950 . S
C4341 C4340 1.373 . S
C4341 C4357 1.377 . S
C4342 C4340 1.389 . S
C4342 C4343 1.524 . S
C4342 C4356 1.377 . S
C4343 C4342 1.524 . S
C4343 C4344 1.397 . S
C4343 C4348 1.363 . S
C4344 H4321 0.950 . S
C4344 C4343 1.397 . S
C4344 C4345 1.334 . S
C4345 H4322 0.950 . S
C4345 C4344 1.334 . S
C4345 C4346 1.287 . S
C4346 C4345 1.287 . S
C4346 C4347 1.524 . S
C4346 H4365 0.913 . S
C4347 H4323 0.950 . S
C4347 C4346 1.524 . S
C4347 C4348 1.415 . S
C4348 H4324 0.950 . S
C4348 C4343 1.363 . S
C4348 C4347 1.415 . S
C4349 H4325 0.951 . S
C4349 C4350 1.366 . S
C4349 C4351 1.388 . S
C4350 C4349 1.366 . S
C4350 C4354 1.385 . S
C4351 H4326 0.951 . S
C4351 C4349 1.388 . S
C4351 C4352 1.366 . S
C4352 C4351 1.366 . S
C4352 C4353 1.414 . S
C4352 C4355 1.499 . S
C4353 H4327 0.950 . S
C4353 C4352 1.414 . S
C4353 C4354 1.374 . S
C4354 H4328 0.950 . S
C4354 C4350 1.385 . S
C4354 C4353 1.374 . S
C4355 C4352 1.499 . S
C4355 C4356 1.373 . S
C4355 C4357 1.389 . S
C4356 H4329 0.950 . S
C4356 C4342 1.377 . S
C4356 C4355 1.373 . S
C4357 C4341 1.377 . S
C4357 C4355 1.389 . S
C4357 C4358 1.524 . S
C4358 C4357 1.524 . S
C4358 C4359 1.397 . S
C4358 C4363 1.363 . S
C4359 H4330 0.950 . S
C4359 C4358 1.397 . S
C4359 C4360 1.334 . S
C4360 H4331 0.950 . S
C4360 C4359 1.334 . S
C4360 C4361 1.287 . S
C4361 C4360 1.287 . S
C4361 C4362 1.524 . S
C4361 H4364 0.999 . S
C4362 H4332 0.950 . S
C4362 C4361 1.524 . S
C4362 C4363 1.415 . S
C4363 H4333 0.950 . S
C4363 C4358 1.363 . S
C4363 C4362 1.415 . S
H4364 C4361 0.999 . S
H4365 C4346 0.913 . S
H4366 C4384 0.951 . S
H4367 C4386 0.951 . S
H4368 C4388 0.950 . S
H4369 C4389 0.950 . S
H4370 C4391 0.950 . S
H4371 C4394 0.950 . S
H4372 C4395 0.950 . S
H4373 C4397 0.950 . S
H4374 C4398 0.950 . S
H4375 C4399 0.951 . S
H4376 C4401 0.951 . S
H4377 C4403 0.950 . S
H4378 C4404 0.950 . S
H4379 C4406 0.950 . S
H4380 C4409 0.950 . S
H4381 C4410 0.950 . S
H4382 C4412 0.950 . S
H4383 C4413 0.950 . S
C4384 H4366 0.951 . S
C4384 C4385 1.366 . S
C4384 C4386 1.388 . S
C4385 C4384 1.366 . S
C4385 C4389 1.385 . S
C4386 H4367 0.951 . S
C4386 C4384 1.388 . S
C4386 C4387 1.366 . S
C4387 C4386 1.366 . S
C4387 C4388 1.414 . S
C4387 C4390 1.499 . S
C4388 H4368 0.950 . S
C4388 C4387 1.414 . S
C4388 C4389 1.374 . S
C4389 H4369 0.950 . S
C4389 C4385 1.385 . S
C4389 C4388 1.374 . S
C4390 C4387 1.499 . S
C4390 C4391 1.373 . S
C4390 C4392 1.389 . S
C4391 H4370 0.950 . S
C4391 C4390 1.373 . S
C4391 C4407 1.377 . S
C4392 C4390 1.389 . S
C4392 C4393 1.524 . S
C4392 C4406 1.377 . S
C4393 C4392 1.524 . S
C4393 C4394 1.397 . S
C4393 C4398 1.363 . S
C4394 H4371 0.950 . S
C4394 C4393 1.397 . S
C4394 C4395 1.334 . S
C4395 H4372 0.950 . S
C4395 C4394 1.334 . S
C4395 C4396 1.287 . S
C4396 C4395 1.287 . S
C4396 C4397 1.524 . S
C4396 H4415 0.913 . S
C4397 H4373 0.950 . S
C4397 C4396 1.524 . S
C4397 C4398 1.415 . S
C4398 H4374 0.950 . S
C4398 C4393 1.363 . S
C4398 C4397 1.415 . S
C4399 H4375 0.951 . S
C4399 C4400 1.366 . S
C4399 C4401 1.388 . S
C4400 C4399 1.366 . S
C4400 C4404 1.385 . S
C4401 H4376 0.951 . S
C4401 C4399 1.388 . S
C4401 C4402 1.366 . S
C4402 C4401 1.366 . S
C4402 C4403 1.414 . S
C4402 C4405 1.499 . S
C4403 H4377 0.950 . S
C4403 C4402 1.414 . S
C4403 C4404 1.374 . S
C4404 H4378 0.950 . S
C4404 C4400 1.385 . S
C4404 C4403 1.374 . S
C4405 C4402 1.499 . S
C4405 C4406 1.373 . S
C4405 C4407 1.389 . S
C4406 H4379 0.950 . S
C4406 C4392 1.377 . S
C4406 C4405 1.373 . S
C4407 C4391 1.377 . S
C4407 C4405 1.389 . S
C4407 C4408 1.524 . S
C4408 C4407 1.524 . S
C4408 C4409 1.397 . S
C4408 C4413 1.363 . S
C4409 H4380 0.950 . S
C4409 C4408 1.397 . S
C4409 C4410 1.334 . S
C4410 H4381 0.950 . S
C4410 C4409 1.334 . S
C4410 C4411 1.287 . S
C4411 C4410 1.287 . S
C4411 C4412 1.524 . S
C4411 H4414 0.999 . S
C4412 H4382 0.950 . S
C4412 C4411 1.524 . S
C4412 C4413 1.415 . S
C4413 H4383 0.950 . S
C4413 C4408 1.363 . S
C4413 C4412 1.415 . S
H4414 C4411 0.999 . S
H4415 C4396 0.913 . S
H4416 C4434 0.951 . S
H4417 C4436 0.951 . S
H4418 C4438 0.950 . S
H4419 C4439 0.950 . S
H4420 C4441 0.950 . S
H4421 C4444 0.950 . S
H4422 C4445 0.950 . S
H4423 C4447 0.950 . S
H4424 C4448 0.950 . S
H4425 C4449 0.951 . S
H4426 C4451 0.951 . S
H4427 C4453 0.950 . S
H4428 C4454 0.950 . S
H4429 C4456 0.950 . S
H4430 C4459 0.950 . S
H4431 C4460 0.950 . S
H4432 C4462 0.950 . S
H4433 C4463 0.950 . S
C4434 H4416 0.951 . S
C4434 C4435 1.366 . S
C4434 C4436 1.388 . S
C4435 C4434 1.366 . S
C4435 C4439 1.385 . S
C4436 H4417 0.951 . S
C4436 C4434 1.388 . S
C4436 C4437 1.366 . S
C4437 C4436 1.366 . S
C4437 C4438 1.414 . S
C4437 C4440 1.499 . S
C4438 H4418 0.950 . S
C4438 C4437 1.414 . S
C4438 C4439 1.374 . S
C4439 H4419 0.950 . S
C4439 C4435 1.385 . S
C4439 C4438 1.374 . S
C4440 C4437 1.499 . S
C4440 C4441 1.373 . S
C4440 C4442 1.389 . S
C4441 H4420 0.950 . S
C4441 C4440 1.373 . S
C4441 C4457 1.377 . S
C4442 C4440 1.389 . S
C4442 C4443 1.524 . S
C4442 C4456 1.377 . S
C4443 C4442 1.524 . S
C4443 C4444 1.397 . S
C4443 C4448 1.363 . S
C4444 H4421 0.950 . S
C4444 C4443 1.397 . S
C4444 C4445 1.334 . S
C4445 H4422 0.950 . S
C4445 C4444 1.334 . S
C4445 C4446 1.287 . S
C4446 C4445 1.287 . S
C4446 C4447 1.524 . S
C4446 H4465 0.913 . S
C4447 H4423 0.950 . S
C4447 C4446 1.524 . S
C4447 C4448 1.415 . S
C4448 H4424 0.950 . S
C4448 C4443 1.363 . S
C4448 C4447 1.415 . S
C4449 H4425 0.951 . S
C4449 C4450 1.366 . S
C4449 C4451 1.388 . S
C4450 C4449 1.366 . S
C4450 C4454 1.385 . S
C4451 H4426 0.951 . S
C4451 C4449 1.388 . S
C4451 C4452 1.366 . S
C4452 C4451 1.366 . S
C4452 C4453 1.414 . S
C4452 C4455 1.499 . S
C4453 H4427 0.950 . S
C4453 C4452 1.414 . S
C4453 C4454 1.374 . S
C4454 H4428 0.950 . S
C4454 C4450 1.385 . S
C4454 C4453 1.374 . S
C4455 C4452 1.499 . S
C4455 C4456 1.373 . S
C4455 C4457 1.389 . S
C4456 H4429 0.950 . S
C4456 C4442 1.377 . S
C4456 C4455 1.373 . S
C4457 C4441 1.377 . S
C4457 C4455 1.389 . S
C4457 C4458 1.524 . S
C4458 C4457 1.524 . S
C4458 C4459 1.397 . S
C4458 C4463 1.363 . S
C4459 H4430 0.950 . S
C4459 C4458 1.397 . S
C4459 C4460 1.334 . S
C4460 H4431 0.950 . S
C4460 C4459 1.334 . S
C4460 C4461 1.287 . S
C4461 C4460 1.287 . S
C4461 C4462 1.524 . S
C4461 H4464 0.999 . S
C4462 H4432 0.950 . S
C4462 C4461 1.524 . S
C4462 C4463 1.415 . S
C4463 H4433 0.950 . S
C4463 C4458 1.363 . S
C4463 C4462 1.415 . S
H4464 C4461 0.999 . S
H4465 C4446 0.913 . S
H4466 C4484 0.951 . S
H4467 C4486 0.951 . S
H4468 C4488 0.950 . S
H4469 C4489 0.950 . S
H4470 C4491 0.950 . S
H4471 C4494 0.950 . S
H4472 C4495 0.950 . S
H4473 C4497 0.950 . S
H4474 C4498 0.950 . S
H4475 C4499 0.951 . S
H4476 C4501 0.951 . S
H4477 C4503 0.950 . S
H4478 C4504 0.950 . S
H4479 C4506 0.950 . S
H4480 C4509 0.950 . S
H4481 C4510 0.950 . S
H4482 C4512 0.950 . S
H4483 C4513 0.950 . S
C4484 H4466 0.951 . S
C4484 C4485 1.366 . S
C4484 C4486 1.388 . S
C4485 C4484 1.366 . S
C4485 C4489 1.385 . S
C4486 H4467 0.951 . S
C4486 C4484 1.388 . S
C4486 C4487 1.366 . S
C4487 C4486 1.366 . S
C4487 C4488 1.414 . S
C4487 C4490 1.499 . S
C4488 H4468 0.950 . S
C4488 C4487 1.414 . S
C4488 C4489 1.374 . S
C4489 H4469 0.950 . S
C4489 C4485 1.385 . S
C4489 C4488 1.374 . S
C4490 C4487 1.499 . S
C4490 C4491 1.373 . S
C4490 C4492 1.389 . S
C4491 H4470 0.950 . S
C4491 C4490 1.373 . S
C4491 C4507 1.377 . S
C4492 C4490 1.389 . S
C4492 C4493 1.524 . S
C4492 C4506 1.377 . S
C4493 C4492 1.524 . S
C4493 C4494 1.397 . S
C4493 C4498 1.363 . S
C4494 H4471 0.950 . S
C4494 C4493 1.397 . S
C4494 C4495 1.334 . S
C4495 H4472 0.950 . S
C4495 C4494 1.334 . S
C4495 C4496 1.287 . S
C4496 C4495 1.287 . S
C4496 C4497 1.524 . S
C4496 H4515 0.913 . S
C4497 H4473 0.950 . S
C4497 C4496 1.524 . S
C4497 C4498 1.415 . S
C4498 H4474 0.950 . S
C4498 C4493 1.363 . S
C4498 C4497 1.415 . S
C4499 H4475 0.951 . S
C4499 C4500 1.366 . S
C4499 C4501 1.388 . S
C4500 C4499 1.366 . S
C4500 C4504 1.385 . S
C4501 H4476 0.951 . S
C4501 C4499 1.388 . S
C4501 C4502 1.366 . S
C4502 C4501 1.366 . S
C4502 C4503 1.414 . S
C4502 C4505 1.499 . S
C4503 H4477 0.950 . S
C4503 C4502 1.414 . S
C4503 C4504 1.374 . S
C4504 H4478 0.950 . S
C4504 C4500 1.385 . S
C4504 C4503 1.374 . S
C4505 C4502 1.499 . S
C4505 C4506 1.373 . S
C4505 C4507 1.389 . S
C4506 H4479 0.950 . S
C4506 C4492 1.377 . S
C4506 C4505 1.373 . S
C4507 C4491 1.377 . S
C4507 C4505 1.389 . S
C4507 C4508 1.524 . S
C4508 C4507 1.524 . S
C4508 C4509 1.397 . S
C4508 C4513 1.363 . S
C4509 H4480 0.950 . S
C4509 C4508 1.397 . S
C4509 C4510 1.334 . S
C4510 H4481 0.950 . S
C4510 C4509 1.334 . S
C4510 C4511 1.287 . S
C4511 C4510 1.287 . S
C4511 C4512 1.524 . S
C4511 H4514 0.999 . S
C4512 H4482 0.950 . S
C4512 C4511 1.524 . S
C4512 C4513 1.415 . S
C4513 H4483 0.950 . S
C4513 C4508 1.363 . S
C4513 C4512 1.415 . S
H4514 C4511 0.999 . S
H4515 C4496 0.913 . S
H4516 C4534 0.951 . S
H4517 C4536 0.951 . S
H4518 C4538 0.950 . S
H4519 C4539 0.950 . S
H4520 C4541 0.950 . S
H4521 C4544 0.950 . S
H4522 C4545 0.950 . S
H4523 C4547 0.950 . S
H4524 C4548 0.950 . S
H4525 C4549 0.951 . S
H4526 C4551 0.951 . S
H4527 C4553 0.950 . S
H4528 C4554 0.950 . S
H4529 C4556 0.950 . S
H4530 C4559 0.950 . S
H4531 C4560 0.950 . S
H4532 C4562 0.950 . S
H4533 C4563 0.950 . S
C4534 H4516 0.951 . S
C4534 C4535 1.366 . S
C4534 C4536 1.388 . S
C4535 C4534 1.366 . S
C4535 C4539 1.385 . S
C4536 H4517 0.951 . S
C4536 C4534 1.388 . S
C4536 C4537 1.366 . S
C4537 C4536 1.366 . S
C4537 C4538 1.414 . S
C4537 C4540 1.499 . S
C4538 H4518 0.950 . S
C4538 C4537 1.414 . S
C4538 C4539 1.374 . S
C4539 H4519 0.950 . S
C4539 C4535 1.385 . S
C4539 C4538 1.374 . S
C4540 C4537 1.499 . S
C4540 C4541 1.373 . S
C4540 C4542 1.389 . S
C4541 H4520 0.950 . S
C4541 C4540 1.373 . S
C4541 C4557 1.377 . S
C4542 C4540 1.389 . S
C4542 C4543 1.524 . S
C4542 C4556 1.377 . S
C4543 C4542 1.524 . S
C4543 C4544 1.397 . S
C4543 C4548 1.363 . S
C4544 H4521 0.950 . S
C4544 C4543 1.397 . S
C4544 C4545 1.334 . S
C4545 H4522 0.950 . S
C4545 C4544 1.334 . S
C4545 C4546 1.287 . S
C4546 C4545 1.287 . S
C4546 C4547 1.524 . S
C4546 H4565 0.913 . S
C4547 H4523 0.950 . S
C4547 C4546 1.524 . S
C4547 C4548 1.415 . S
C4548 H4524 0.950 . S
C4548 C4543 1.363 . S
C4548 C4547 1.415 . S
C4549 H4525 0.951 . S
C4549 C4550 1.366 . S
C4549 C4551 1.388 . S
C4550 C4549 1.366 . S
C4550 C4554 1.385 . S
C4551 H4526 0.951 . S
C4551 C4549 1.388 . S
C4551 C4552 1.366 . S
C4552 C4551 1.366 . S
C4552 C4553 1.414 . S
C4552 C4555 1.499 . S
C4553 H4527 0.950 . S
C4553 C4552 1.414 . S
C4553 C4554 1.374 . S
C4554 H4528 0.950 . S
C4554 C4550 1.385 . S
C4554 C4553 1.374 . S
C4555 C4552 1.499 . S
C4555 C4556 1.373 . S
C4555 C4557 1.389 . S
C4556 H4529 0.950 . S
C4556 C4542 1.377 . S
C4556 C4555 1.373 . S
C4557 C4541 1.377 . S
C4557 C4555 1.389 . S
C4557 C4558 1.524 . S
C4558 C4557 1.524 . S
C4558 C4559 1.397 . S
C4558 C4563 1.363 . S
C4559 H4530 0.950 . S
C4559 C4558 1.397 . S
C4559 C4560 1.334 . S
C4560 H4531 0.950 . S
C4560 C4559 1.334 . S
C4560 C4561 1.287 . S
C4561 C4560 1.287 . S
C4561 C4562 1.524 . S
C4561 H4564 0.999 . S
C4562 H4532 0.950 . S
C4562 C4561 1.524 . S
C4562 C4563 1.415 . S
C4563 H4533 0.950 . S
C4563 C4558 1.363 . S
C4563 C4562 1.415 . S
H4564 C4561 0.999 . S
H4565 C4546 0.913 . S
H4566 C4584 0.942 1_455 S
H4567 C4586 0.951 1_455 S
H4568 C4588 0.950 . S
H4569 C4589 0.950 . S
H4570 C4591 0.950 . S
H4571 C4594 0.950 . S
H4572 C4595 0.950 . S
H4573 C4597 0.950 . S
H4574 C4598 0.950 . S
H4575 C4599 0.951 . S
H4576 C4601 0.951 . S
H4577 C4603 0.950 . S
H4578 C4604 0.950 . S
H4579 C4606 0.950 . S
H4580 C4609 0.950 . S
H4581 C4610 0.950 . S
H4582 C4612 0.950 . S
H4583 C4613 0.950 . S
C4584 H4566 0.942 1_655 S
C4584 C4585 1.366 . S
C4584 C4586 1.388 . S
C4585 C4584 1.366 . S
C4585 C4589 1.385 . S
C4586 H4567 0.951 1_655 S
C4586 C4584 1.388 . S
C4586 C4587 1.366 . S
C4587 C4586 1.366 . S
C4587 C4588 1.414 . S
C4587 C4590 1.499 . S
C4588 H4568 0.950 . S
C4588 C4587 1.414 . S
C4588 C4589 1.374 . S
C4589 H4569 0.950 . S
C4589 C4585 1.385 . S
C4589 C4588 1.374 . S
C4590 C4587 1.499 . S
C4590 C4591 1.373 . S
C4590 C4592 1.389 1_655 S
C4591 H4570 0.950 . S
C4591 C4590 1.373 . S
C4591 C4607 1.377 . S
C4592 C4590 1.389 1_455 S
C4592 C4593 1.524 . S
C4592 C4606 1.377 . S
C4593 C4592 1.524 . S
C4593 C4594 1.397 . S
C4593 C4598 1.363 . S
C4594 H4571 0.950 . S
C4594 C4593 1.397 . S
C4594 C4595 1.334 . S
C4595 H4572 0.950 . S
C4595 C4594 1.334 . S
C4595 C4596 1.287 . S
C4596 C4595 1.287 . S
C4596 C4597 1.524 . S
C4596 H4615 0.913 . S
C4597 H4573 0.950 . S
C4597 C4596 1.524 . S
C4597 C4598 1.415 . S
C4598 H4574 0.950 . S
C4598 C4593 1.363 . S
C4598 C4597 1.415 . S
C4599 H4575 0.951 . S
C4599 C4600 1.366 . S
C4599 C4601 1.388 . S
C4600 C4599 1.366 . S
C4600 C4604 1.385 1_655 S
C4601 H4576 0.951 . S
C4601 C4599 1.388 . S
C4601 C4602 1.366 . S
C4602 C4601 1.366 . S
C4602 C4603 1.414 1_655 S
C4602 C4605 1.499 . S
C4603 H4577 0.950 . S
C4603 C4602 1.414 1_455 S
C4603 C4604 1.374 . S
C4604 H4578 0.950 . S
C4604 C4600 1.385 1_455 S
C4604 C4603 1.374 . S
C4605 C4602 1.499 . S
C4605 C4606 1.373 1_655 S
C4605 C4607 1.389 . S
C4606 H4579 0.950 . S
C4606 C4592 1.377 . S
C4606 C4605 1.373 1_455 S
C4607 C4591 1.377 . S
C4607 C4605 1.389 . S
C4607 C4608 1.524 . S
C4608 C4607 1.524 . S
C4608 C4609 1.397 . S
C4608 C4613 1.363 . S
C4609 H4580 0.950 . S
C4609 C4608 1.397 . S
C4609 C4610 1.334 . S
C4610 H4581 0.950 . S
C4610 C4609 1.334 . S
C4610 C4611 1.287 . S
C4611 C4610 1.287 . S
C4611 C4612 1.524 . S
C4611 H4614 0.999 . S
C4612 H4582 0.950 . S
C4612 C4611 1.524 . S
C4612 C4613 1.415 . S
C4613 H4583 0.950 . S
C4613 C4608 1.363 . S
C4613 C4612 1.415 . S
H4614 C4611 0.999 . S
H4615 C4596 0.913 . S
H4616 C4634 0.951 . S
H4617 C4636 0.951 . S
H4618 C4638 0.950 . S
H4619 C4639 0.950 . S
H4620 C4641 0.950 . S
H4621 C4644 0.950 . S
H4622 C4645 0.950 . S
H4623 C4647 0.950 . S
H4624 C4648 0.950 . S
H4625 C4649 0.951 . S
H4626 C4651 0.951 . S
H4627 C4653 0.950 . S
H4628 C4654 0.950 . S
H4629 C4656 0.950 . S
H4630 C4659 0.950 . S
H4631 C4660 0.950 . S
H4632 C4662 0.950 . S
H4633 C4663 0.950 . S
C4634 H4616 0.951 . S
C4634 C4635 1.366 . S
C4634 C4636 1.388 . S
C4635 C4634 1.366 . S
C4635 C4639 1.385 . S
C4636 H4617 0.951 . S
C4636 C4634 1.388 . S
C4636 C4637 1.366 . S
C4637 C4636 1.366 . S
C4637 C4638 1.414 . S
C4637 C4640 1.499 . S
C4638 H4618 0.950 . S
C4638 C4637 1.414 . S
C4638 C4639 1.374 . S
C4639 H4619 0.950 . S
C4639 C4635 1.385 . S
C4639 C4638 1.374 . S
C4640 C4637 1.499 . S
C4640 C4641 1.373 . S
C4640 C4642 1.389 . S
C4641 H4620 0.950 . S
C4641 C4640 1.373 . S
C4641 C4657 1.377 . S
C4642 C4640 1.389 . S
C4642 C4643 1.524 . S
C4642 C4656 1.377 . S
C4643 C4642 1.524 . S
C4643 C4644 1.397 . S
C4643 C4648 1.363 . S
C4644 H4621 0.950 . S
C4644 C4643 1.397 . S
C4644 C4645 1.334 . S
C4645 H4622 0.950 . S
C4645 C4644 1.334 . S
C4645 C4646 1.287 . S
C4646 C4645 1.287 . S
C4646 C4647 1.524 . S
C4646 H4665 0.913 . S
C4647 H4623 0.950 . S
C4647 C4646 1.524 . S
C4647 C4648 1.415 . S
C4648 H4624 0.950 . S
C4648 C4643 1.363 . S
C4648 C4647 1.415 . S
C4649 H4625 0.951 . S
C4649 C4650 1.366 . S
C4649 C4651 1.388 . S
C4650 C4649 1.366 . S
C4650 C4654 1.385 . S
C4651 H4626 0.951 . S
C4651 C4649 1.388 . S
C4651 C4652 1.366 . S
C4652 C4651 1.366 . S
C4652 C4653 1.414 . S
C4652 C4655 1.499 . S
C4653 H4627 0.950 . S
C4653 C4652 1.414 . S
C4653 C4654 1.374 . S
C4654 H4628 0.950 . S
C4654 C4650 1.385 . S
C4654 C4653 1.374 . S
C4655 C4652 1.499 . S
C4655 C4656 1.373 . S
C4655 C4657 1.389 . S
C4656 H4629 0.950 . S
C4656 C4642 1.377 . S
C4656 C4655 1.373 . S
C4657 C4641 1.377 . S
C4657 C4655 1.389 . S
C4657 C4658 1.524 . S
C4658 C4657 1.524 . S
C4658 C4659 1.397 . S
C4658 C4663 1.363 . S
C4659 H4630 0.950 . S
C4659 C4658 1.397 . S
C4659 C4660 1.334 . S
C4660 H4631 0.950 . S
C4660 C4659 1.334 . S
C4660 C4661 1.287 . S
C4661 C4660 1.287 . S
C4661 C4662 1.524 . S
C4661 H4664 0.999 . S
C4662 H4632 0.950 . S
C4662 C4661 1.524 . S
C4662 C4663 1.415 . S
C4663 H4633 0.950 . S
C4663 C4658 1.363 . S
C4663 C4662 1.415 . S
H4664 C4661 0.999 . S
H4665 C4646 0.913 . S
H4666 C4684 0.951 . S
H4667 C4686 0.951 . S
H4668 C4688 0.950 . S
H4669 C4689 0.950 . S
H4670 C4691 0.950 1_565 S
H4671 C4694 0.950 . S
H4672 C4695 0.950 . S
H4673 C4697 0.950 . S
H4674 C4698 0.950 . S
H4675 C4699 0.951 . S
H4676 C4701 0.951 . S
H4677 C4703 0.950 . S
H4678 C4704 0.966 1_565 S
H4679 C4706 0.950 . S
H4680 C4709 0.950 . S
H4681 C4710 0.950 . S
H4682 C4712 0.950 . S
H4683 C4713 0.950 . S
C4684 H4666 0.951 . S
C4684 C4685 1.366 . S
C4684 C4686 1.388 . S
C4685 C4684 1.366 . S
C4685 C4689 1.385 . S
C4686 H4667 0.951 . S
C4686 C4684 1.388 . S
C4686 C4687 1.366 . S
C4687 C4686 1.366 . S
C4687 C4688 1.414 . S
C4687 C4690 1.499 . S
C4688 H4668 0.950 . S
C4688 C4687 1.414 . S
C4688 C4689 1.374 . S
C4689 H4669 0.950 . S
C4689 C4685 1.385 . S
C4689 C4688 1.374 . S
C4690 C4687 1.499 . S
C4690 C4691 1.373 . S
C4690 C4692 1.389 . S
C4691 H4670 0.950 1_545 S
C4691 C4690 1.373 . S
C4691 C4707 1.388 1_545 S
C4692 C4690 1.389 . S
C4692 C4693 1.524 . S
C4692 C4706 1.377 . S
C4693 C4692 1.524 . S
C4693 C4694 1.397 . S
C4693 C4698 1.363 . S
C4694 H4671 0.950 . S
C4694 C4693 1.397 . S
C4694 C4695 1.334 . S
C4695 H4672 0.950 . S
C4695 C4694 1.334 . S
C4695 C4696 1.287 . S
C4696 C4695 1.287 . S
C4696 C4697 1.524 . S
C4696 H4715 0.913 . S
C4697 H4673 0.950 . S
C4697 C4696 1.524 . S
C4697 C4698 1.415 . S
C4698 H4674 0.950 . S
C4698 C4693 1.363 . S
C4698 C4697 1.415 . S
C4699 H4675 0.951 . S
C4699 C4700 1.366 . S
C4699 C4701 1.388 . S
C4700 C4699 1.366 . S
C4700 C4704 1.391 . S
C4701 H4676 0.951 . S
C4701 C4699 1.388 . S
C4701 C4702 1.366 . S
C4702 C4701 1.366 . S
C4702 C4703 1.414 . S
C4702 C4705 1.499 . S
C4703 H4677 0.950 . S
C4703 C4702 1.414 . S
C4703 C4704 1.355 . S
C4704 H4678 0.966 1_545 S
C4704 C4700 1.391 . S
C4704 C4703 1.355 . S
C4705 C4702 1.499 . S
C4705 C4706 1.373 . S
C4705 C4707 1.359 1_545 S
C4706 H4679 0.950 . S
C4706 C4692 1.377 . S
C4706 C4705 1.373 . S
C4707 C4691 1.388 1_565 S
C4707 C4705 1.359 1_565 S
C4707 C4708 1.547 . S
C4708 C4707 1.547 . S
C4708 C4709 1.397 . S
C4708 C4713 1.363 . S
C4709 H4680 0.950 . S
C4709 C4708 1.397 . S
C4709 C4710 1.334 . S
C4710 H4681 0.950 . S
C4710 C4709 1.334 . S
C4710 C4711 1.287 . S
C4711 C4710 1.287 . S
C4711 C4712 1.524 . S
C4711 H4714 0.999 . S
C4712 H4682 0.950 . S
C4712 C4711 1.524 . S
C4712 C4713 1.415 . S
C4713 H4683 0.950 . S
C4713 C4708 1.363 . S
C4713 C4712 1.415 . S
H4714 C4711 0.999 . S
H4715 C4696 0.913 . S
C1135 C13 1.420 . S
C1150 C729 1.488 . S
C1185 C27 1.326 . S
C1200 C777 1.406 . S
C1250 C825 1.459 . S
C1235 C36 1.370 . S
C1285 C41 1.404 . S
C1300 C849 1.459 . S
C1335 C8 1.484 . S
C1350 C921 1.585 . S
C1385 C22 1.425 . S
C1400 C969 1.505 . S
C1435 C55 1.416 . S
C1450 C897 1.486 . S
C1500 C945 1.409 . S
C1485 C69 1.326 . S
C1550 C873 1.479 . S
C1535 C78 1.396 . S
C1585 C83 1.391 . S
C1600 C801 1.462 . S
C1650 C705 1.610 . S
C1635 C50 1.507 . S
C1685 C64 1.423 . S
C1700 C753 1.506 . S
C1735 C97 1.549 . S
C1750 C1017 1.652 . S
C1785 C111 1.384 . S
C1800 C1065 1.471 . S
C1850 C1089 1.578 . S
C1835 C120 1.518 . S
C1885 C125 1.462 . S
C1900 C273 1.549 . S
C1935 C92 1.667 . S
C1950 C345 1.741 . S
C1985 C106 1.482 . S
C2000 C393 1.554 . S
C2035 C139 1.489 . S
C2050 C321 1.584 . S
C2085 C153 1.376 . S
C2100 C369 1.453 . S
C2150 C297 1.567 . S
C2135 C162 1.519 . S
C2200 C1113 1.598 . S
C2185 C167 1.520 . S
C2250 C993 1.731 . S
C2235 C134 1.663 . S
C2300 C1041 1.578 . S
C2285 C148 1.509 . S
C2335 C181 1.494 . S
C2350 C441 1.590 . S
C2385 C195 1.365 . S
C2400 C489 1.439 . S
C2435 C204 1.520 . S
C2450 C513 1.586 . S
C2485 C209 1.517 . S
C2500 C561 1.614 . S
C2550 C633 1.745 . S
C2535 C176 1.674 . S
C2600 C681 1.575 . S
C2585 C190 1.509 . S
C2650 C609 1.666 . S
C2635 C223 1.562 . S
C2700 C657 1.487 . S
C2685 C237 1.396 . S
C2735 C246 1.505 . S
C2750 C585 1.544 . S
C2800 C537 1.518 . S
C2785 C251 1.449 . S
C2835 C218 1.668 . S
C2850 C417 1.743 . S
C2900 C465 1.566 . S
C2885 C232 1.492 . S
C2950 C282 1.430 . S
C2935 C11 1.408 . S
C2985 C25 1.263 . S
C3000 C336 1.257 . S
C3050 C384 1.393 . S
C3035 C35 1.411 . S
C3100 C432 1.408 . S
C3085 C39 1.409 1_556 S
C3150 C480 1.502 . S
C3135 C7 1.524 1_556 S
C3200 C522 1.357 . S
C3185 C21 1.359 1_556 S
C3235 C53 1.426 1_556 S
C3250 C528 1.446 . S
C3285 C67 1.243 1_556 S
C3300 C426 1.242 . S
C3335 C77 1.359 1_556 S
C3350 C474 1.347 . S
C3385 C81 1.435 . S
C3400 C330 1.431 . S
C3450 C378 1.483 . S
C3435 C49 1.514 . S
C3485 C63 1.362 . S
C3500 C288 1.350 . S
C3550 C570 1.392 . S
C3535 C95 1.379 . S
C3585 C109 1.365 . S
C3600 C624 1.354 . S
C3635 C119 1.486 . S
C3650 C672 1.468 . S
C3700 C720 1.218 . S
C3685 C123 1.216 . S
C3735 C91 1.477 . S
C3750 C768 1.460 . S
C3785 C105 1.209 . S
C3800 C816 1.214 . S
C3835 C137 1.255 . S
C3850 C810 1.247 . S
C3885 C151 1.099 . S
C3900 C714 1.102 . S
C3950 C762 1.352 . S
C3935 C161 1.372 . S
C3985 C165 1.404 . S
C4000 C618 1.387 . S
C4035 C133 1.565 . S
C4050 C666 1.536 . S
C4100 C576 1.462 . S
C4085 C147 1.472 . S
C4150 C858 1.275 . S
C4135 C179 1.267 . S
C4185 C193 1.091 . S
C4200 C912 1.094 . S
C4235 C203 1.369 . S
C4250 C960 1.355 . S
C4300 C1008 1.378 . S
C4285 C207 1.386 . S
C4350 C1056 1.547 . S
C4335 C175 1.627 . S
C4385 C189 1.474 . S
C4400 C1098 1.474 . S
C4435 C221 1.396 . S
C4450 C1104 1.399 . S
C4485 C235 1.361 . S
C4500 C1002 1.342 . S
C4550 C1050 1.439 . S
C4535 C245 1.463 . S
C4600 C906 1.195 . S
C4585 C249 1.193 . S
C4650 C954 1.462 . S
C4635 C217 1.485 . S
C4685 C231 1.230 . S
C4700 C864 1.203 . S
