# Generated by pormake.
# Topology eea, (3,6)-cn, num edge types: 1
# Building blocks:
#     Node 0, Type 0, BuildingBlock: BETDIP_clean_linker_0, # of connection points: 3
#     Node 1, Type 0, BuildingBlock: BETDIP_clean_linker_0, # of connection points: 3
#     Node 2, Type 0, BuildingBlock: BETDIP_clean_linker_0, # of connection points: 3
#     Node 3, Type 0, BuildingBlock: BETDIP_clean_linker_0, # of connection points: 3
#     Node 4, Type 0, BuildingBlock: BETDIP_clean_linker_0, # of connection points: 3
#     Node 5, Type 0, BuildingBlock: BETDIP_clean_linker_0, # of connection points: 3
#     Node 6, Type 0, BuildingBlock: BETDIP_clean_linker_0, # of connection points: 3
#     Node 7, Type 0, BuildingBlock: BETDIP_clean_linker_0, # of connection points: 3
#     Node 8, Type 0, BuildingBlock: BETDIP_clean_linker_0, # of connection points: 3
#     Node 9, Type 0, BuildingBlock: BETDIP_clean_linker_0, # of connection points: 3
#     Node 10, Type 0, BuildingBlock: BETDIP_clean_linker_0, # of connection points: 3
#     Node 11, Type 0, BuildingBlock: BETDIP_clean_linker_0, # of connection points: 3
#     Node 12, Type 0, BuildingBlock: BETDIP_clean_linker_0, # of connection points: 3
#     Node 13, Type 0, BuildingBlock: BETDIP_clean_linker_0, # of connection points: 3
#     Node 14, Type 0, BuildingBlock: BETDIP_clean_linker_0, # of connection points: 3
#     Node 15, Type 0, BuildingBlock: BETDIP_clean_linker_0, # of connection points: 3
#     Node 16, Type 0, BuildingBlock: BETDIP_clean_linker_0, # of connection points: 3
#     Node 17, Type 0, BuildingBlock: BETDIP_clean_linker_0, # of connection points: 3
#     Node 18, Type 1, BuildingBlock: LEVNOQ01_clean_sbu_1, # of connection points: 6
#     Node 19, Type 1, BuildingBlock: LEVNOQ01_clean_sbu_1, # of connection points: 6
#     Node 20, Type 1, BuildingBlock: LEVNOQ01_clean_sbu_1, # of connection points: 6
#     Node 21, Type 1, BuildingBlock: LEVNOQ01_clean_sbu_1, # of connection points: 6
#     Node 22, Type 1, BuildingBlock: LEVNOQ01_clean_sbu_1, # of connection points: 6
#     Node 23, Type 1, BuildingBlock: LEVNOQ01_clean_sbu_1, # of connection points: 6
#     Node 24, Type 1, BuildingBlock: LEVNOQ01_clean_sbu_1, # of connection points: 6
#     Node 25, Type 1, BuildingBlock: LEVNOQ01_clean_sbu_1, # of connection points: 6
#     Node 26, Type 1, BuildingBlock: LEVNOQ01_clean_sbu_1, # of connection points: 6
#     Edge 27, Type (0, 1), BuildingBlock: UVAHIK_clean_linker_0, # of connection points: 2
#     Edge 28, Type (0, 1), BuildingBlock: UVAHIK_clean_linker_0, # of connection points: 2
#     Edge 29, Type (0, 1), BuildingBlock: UVAHIK_clean_linker_0, # of connection points: 2
#     Edge 30, Type (0, 1), BuildingBlock: UVAHIK_clean_linker_0, # of connection points: 2
#     Edge 31, Type (0, 1), BuildingBlock: UVAHIK_clean_linker_0, # of connection points: 2
#     Edge 32, Type (0, 1), BuildingBlock: UVAHIK_clean_linker_0, # of connection points: 2
#     Edge 33, Type (0, 1), BuildingBlock: UVAHIK_clean_linker_0, # of connection points: 2
#     Edge 34, Type (0, 1), BuildingBlock: UVAHIK_clean_linker_0, # of connection points: 2
#     Edge 35, Type (0, 1), BuildingBlock: UVAHIK_clean_linker_0, # of connection points: 2
#     Edge 36, Type (0, 1), BuildingBlock: UVAHIK_clean_linker_0, # of connection points: 2
#     Edge 37, Type (0, 1), BuildingBlock: UVAHIK_clean_linker_0, # of connection points: 2
#     Edge 38, Type (0, 1), BuildingBlock: UVAHIK_clean_linker_0, # of connection points: 2
#     Edge 39, Type (0, 1), BuildingBlock: UVAHIK_clean_linker_0, # of connection points: 2
#     Edge 40, Type (0, 1), BuildingBlock: UVAHIK_clean_linker_0, # of connection points: 2
#     Edge 41, Type (0, 1), BuildingBlock: UVAHIK_clean_linker_0, # of connection points: 2
#     Edge 42, Type (0, 1), BuildingBlock: UVAHIK_clean_linker_0, # of connection points: 2
#     Edge 43, Type (0, 1), BuildingBlock: UVAHIK_clean_linker_0, # of connection points: 2
#     Edge 44, Type (0, 1), BuildingBlock: UVAHIK_clean_linker_0, # of connection points: 2
#     Edge 45, Type (0, 1), BuildingBlock: UVAHIK_clean_linker_0, # of connection points: 2
#     Edge 46, Type (0, 1), BuildingBlock: UVAHIK_clean_linker_0, # of connection points: 2
#     Edge 47, Type (0, 1), BuildingBlock: UVAHIK_clean_linker_0, # of connection points: 2
#     Edge 48, Type (0, 1), BuildingBlock: UVAHIK_clean_linker_0, # of connection points: 2
#     Edge 49, Type (0, 1), BuildingBlock: UVAHIK_clean_linker_0, # of connection points: 2
#     Edge 50, Type (0, 1), BuildingBlock: UVAHIK_clean_linker_0, # of connection points: 2
#     Edge 51, Type (0, 1), BuildingBlock: UVAHIK_clean_linker_0, # of connection points: 2
#     Edge 52, Type (0, 1), BuildingBlock: UVAHIK_clean_linker_0, # of connection points: 2
#     Edge 53, Type (0, 1), BuildingBlock: UVAHIK_clean_linker_0, # of connection points: 2
#     Edge 54, Type (0, 1), BuildingBlock: UVAHIK_clean_linker_0, # of connection points: 2
#     Edge 55, Type (0, 1), BuildingBlock: UVAHIK_clean_linker_0, # of connection points: 2
#     Edge 56, Type (0, 1), BuildingBlock: UVAHIK_clean_linker_0, # of connection points: 2
#     Edge 57, Type (0, 1), BuildingBlock: UVAHIK_clean_linker_0, # of connection points: 2
#     Edge 58, Type (0, 1), BuildingBlock: UVAHIK_clean_linker_0, # of connection points: 2
#     Edge 59, Type (0, 1), BuildingBlock: UVAHIK_clean_linker_0, # of connection points: 2
#     Edge 60, Type (0, 1), BuildingBlock: UVAHIK_clean_linker_0, # of connection points: 2
#     Edge 61, Type (0, 1), BuildingBlock: UVAHIK_clean_linker_0, # of connection points: 2
#     Edge 62, Type (0, 1), BuildingBlock: UVAHIK_clean_linker_0, # of connection points: 2
#     Edge 63, Type (0, 1), BuildingBlock: UVAHIK_clean_linker_0, # of connection points: 2
#     Edge 64, Type (0, 1), BuildingBlock: UVAHIK_clean_linker_0, # of connection points: 2
#     Edge 65, Type (0, 1), BuildingBlock: UVAHIK_clean_linker_0, # of connection points: 2
#     Edge 66, Type (0, 1), BuildingBlock: UVAHIK_clean_linker_0, # of connection points: 2
#     Edge 67, Type (0, 1), BuildingBlock: UVAHIK_clean_linker_0, # of connection points: 2
#     Edge 68, Type (0, 1), BuildingBlock: UVAHIK_clean_linker_0, # of connection points: 2
#     Edge 69, Type (0, 1), BuildingBlock: UVAHIK_clean_linker_0, # of connection points: 2
#     Edge 70, Type (0, 1), BuildingBlock: UVAHIK_clean_linker_0, # of connection points: 2
#     Edge 71, Type (0, 1), BuildingBlock: UVAHIK_clean_linker_0, # of connection points: 2
#     Edge 72, Type (0, 1), BuildingBlock: UVAHIK_clean_linker_0, # of connection points: 2
#     Edge 73, Type (0, 1), BuildingBlock: UVAHIK_clean_linker_0, # of connection points: 2
#     Edge 74, Type (0, 1), BuildingBlock: UVAHIK_clean_linker_0, # of connection points: 2
#     Edge 75, Type (0, 1), BuildingBlock: UVAHIK_clean_linker_0, # of connection points: 2
#     Edge 76, Type (0, 1), BuildingBlock: UVAHIK_clean_linker_0, # of connection points: 2
#     Edge 77, Type (0, 1), BuildingBlock: UVAHIK_clean_linker_0, # of connection points: 2
#     Edge 78, Type (0, 1), BuildingBlock: UVAHIK_clean_linker_0, # of connection points: 2
#     Edge 79, Type (0, 1), BuildingBlock: UVAHIK_clean_linker_0, # of connection points: 2
#     Edge 80, Type (0, 1), BuildingBlock: UVAHIK_clean_linker_0, # of connection points: 2
# Relax obj value: 0.084
# Max RMSD: 0.116
# Mean RMSD: 0.105
data_MOF--net-eea--node1-LEVNOQ01_clean_sbu_1--node2-BETDIP_clean_linker_0--edge1-UVAHIK_clean_linker_0
_symmetry_space_group_name_H-M    P1
_symmetry_Int_Tables_number       1
_symmetry_cell_setting            triclinic
loop_
_symmetry_equiv_pos_as_xyz
'x, y, z'
_cell_length_a     75.965588
_cell_length_b     75.519091
_cell_length_c     58.740505
_cell_angle_alpha  90.196949
_cell_angle_beta   90.214176
_cell_angle_gamma 119.81497
loop_
_atom_site_label
_atom_site_type_symbol
_atom_site_fract_x
_atom_site_fract_y
_atom_site_fract_z
_atom_type_partial_charge
H0 H 0.21196 0.10658 0.33951 0.0
H1 H 0.24158 0.14877 0.39498 0.0
H2 H 0.24429 0.09348 0.39078 0.0
H3 H 0.2439 0.17175 0.3681 0.0
C4 C 0.2286 0.16351 0.36114 0.0
C5 C 0.22142 0.11108 0.35467 0.0
C6 C 0.22803 0.09817 0.36361 0.0
C7 C 0.22693 0.12979 0.36531 0.0
C8 C 0.23827 0.13501 0.38575 0.0
C9 C 0.24471 0.12204 0.3949 0.0
C10 C 0.23994 0.10391 0.38341 0.0
N11 N 0.21969 0.14236 0.3561 0.0
H12 H 0.88287 0.10287 0.33237 0.0
H13 H 0.84172 0.09478 0.38676 0.0
H14 H 0.89891 0.14984 0.38308 0.0
H15 H 0.8197 0.06853 0.36893 0.0
C16 C 0.82771 0.06266 0.35901 0.0
C17 C 0.87887 0.1087 0.34717 0.0
C18 C 0.89263 0.12819 0.35586 0.0
C19 C 0.86019 0.09649 0.35791 0.0
C20 C 0.85562 0.10398 0.37763 0.0
C21 C 0.86959 0.12294 0.38703 0.0
C22 C 0.88783 0.13531 0.37568 0.0
N23 N 0.84729 0.07612 0.35 0.0
H24 H 0.8787 0.77106 0.33709 0.0
H25 H 0.89271 0.74521 0.3951 0.0
H26 H 0.83603 0.74439 0.39187 0.0
H27 H 0.92332 0.77391 0.38878 0.0
C28 C 0.92503 0.77255 0.3706 0.0
C29 C 0.87427 0.76282 0.35303 0.0
C30 C 0.85554 0.75781 0.36289 0.0
C31 C 0.88807 0.75882 0.36477 0.0
C32 C 0.88243 0.74867 0.38588 0.0
C33 C 0.86365 0.74339 0.39551 0.0
C34 C 0.85028 0.74788 0.38396 0.0
N35 N 0.90795 0.76628 0.35597 0.0
H36 H 0.10237 0.21819 0.68074 0.0
H37 H 0.14321 0.2451 0.62441 0.0
H38 H 0.08881 0.24876 0.6274 0.0
H39 H 0.14229 0.21412 0.62846 0.0
C40 C 0.1457 0.21504 0.64657 0.0
C41 C 0.10654 0.22698 0.66516 0.0
C42 C 0.0938 0.23378 0.65599 0.0
C43 C 0.12419 0.23064 0.65368 0.0
C44 C 0.12955 0.242 0.63341 0.0
C45 C 0.11679 0.24842 0.6239 0.0
C46 C 0.09901 0.24438 0.63525 0.0
N47 N 0.13572 0.22178 0.66183 0.0
H48 H 0.7689 0.87979 0.67817 0.0
H49 H 0.7381 0.89233 0.62432 0.0
H50 H 0.73901 0.83617 0.62406 0.0
H51 H 0.73619 0.91317 0.65045 0.0
C52 C 0.75133 0.91994 0.6578 0.0
C53 C 0.75938 0.87493 0.66305 0.0
C54 C 0.75409 0.85613 0.65268 0.0
C55 C 0.75298 0.88781 0.65353 0.0
C56 C 0.74187 0.88202 0.633 0.0
C57 C 0.73667 0.86338 0.62256 0.0
C58 C 0.74235 0.85024 0.63269 0.0
N59 N 0.75967 0.90733 0.6635 0.0
H60 H 0.10362 0.87973 0.67154 0.0
H61 H 0.08823 0.83579 0.61723 0.0
H62 H 0.14623 0.8906 0.61815 0.0
H63 H 0.06899 0.81379 0.64544 0.0
C64 C 0.06266 0.82228 0.65365 0.0
C65 C 0.10771 0.87472 0.65613 0.0
C66 C 0.12668 0.8871 0.64616 0.0
C67 C 0.09403 0.85578 0.64641 0.0
C68 C 0.09905 0.84978 0.62574 0.0
C69 C 0.11799 0.86223 0.6156 0.0
C70 C 0.13182 0.88062 0.62622 0.0
N71 N 0.07497 0.84365 0.65709 0.0
H72 H 0.88413 0.44215 0.671 0.0
H73 H 0.91392 0.48282 0.72762 0.0
H74 H 0.91339 0.42591 0.72295 0.0
H75 H 0.91453 0.50656 0.70442 0.0
C76 C 0.90004 0.49825 0.69561 0.0
C77 C 0.89331 0.44604 0.68635 0.0
C78 C 0.89864 0.43221 0.69541 0.0
C79 C 0.89937 0.46472 0.69734 0.0
C80 C 0.91017 0.46909 0.71809 0.0
C81 C 0.91545 0.45524 0.72727 0.0
C82 C 0.91004 0.43706 0.71553 0.0
N83 N 0.89276 0.47783 0.68826 0.0
H84 H 0.55048 0.43739 0.66622 0.0
H85 H 0.50761 0.42947 0.71847 0.0
H86 H 0.56465 0.4849 0.71575 0.0
H87 H 0.50323 0.39866 0.71878 0.0
C88 C 0.50282 0.39472 0.70092 0.0
C89 C 0.54599 0.44333 0.68053 0.0
C90 C 0.55908 0.46318 0.68876 0.0
C91 C 0.52758 0.43077 0.69153 0.0
C92 C 0.52206 0.43859 0.71019 0.0
C93 C 0.53563 0.45764 0.71956 0.0
C94 C 0.55388 0.47024 0.70837 0.0
N95 N 0.51569 0.40986 0.6851 0.0
H96 H 0.54615 0.10395 0.66647 0.0
H97 H 0.55755 0.07806 0.72628 0.0
H98 H 0.50128 0.07792 0.71908 0.0
H99 H 0.58859 0.10735 0.72109 0.0
C100 C 0.59107 0.10586 0.70313 0.0
C101 C 0.54109 0.09586 0.68244 0.0
C102 C 0.52192 0.09076 0.69101 0.0
C103 C 0.55428 0.09175 0.69528 0.0
C104 C 0.54767 0.08157 0.71628 0.0
C105 C 0.52864 0.07672 0.72499 0.0
C106 C 0.51586 0.08128 0.71221 0.0
N107 N 0.5745 0.09912 0.68762 0.0
H108 H 0.76828 0.55137 0.01394 0.0
H109 H 0.81128 0.58115 0.96001 0.0
H110 H 0.75401 0.57928 0.95846 0.0
H111 H 0.81017 0.5498 0.9637 0.0
C112 C 0.81342 0.55064 0.98185 0.0
C113 C 0.7728 0.56049 -0.00138 0.0
C114 C 0.75922 0.56538 0.98782 0.0
C115 C 0.79138 0.56561 0.98832 0.0
C116 C 0.79694 0.57703 0.96806 0.0
C117 C 0.78343 0.58177 0.95715 0.0
C118 C 0.7647 0.57604 0.96718 0.0
N119 N 0.8033 0.55734 -0.00304 0.0
H120 H 0.43543 0.21384 0.01213 0.0
H121 H 0.40365 0.22626 0.95917 0.0
H122 H 0.41384 0.17558 0.95247 0.0
H123 H 0.4002 0.24553 0.98599 0.0
C124 C 0.41515 0.25242 0.99385 0.0
C125 C 0.42713 0.20975 -0.00386 0.0
C126 C 0.42524 0.19314 0.9834 0.0
C127 C 0.41925 0.22178 0.9877 0.0
C128 C 0.40904 0.21671 0.96654 0.0
C129 C 0.40705 0.20008 0.9538 0.0
C130 C 0.41515 0.18835 0.96236 0.0
N131 N 0.42376 0.24005 -0.0005 0.0
H132 H 0.76995 0.21149 0.00491 0.0
H133 H 0.75892 0.16903 0.95015 0.0
H134 H 0.81617 0.22449 0.95533 0.0
H135 H 0.72747 0.16507 0.95385 0.0
C136 C 0.72522 0.16444 0.97214 0.0
C137 C 0.77529 0.20685 0.99021 0.0
C138 C 0.79488 0.21969 0.98187 0.0
C139 C 0.76213 0.18859 0.97884 0.0
C140 C 0.76886 0.18309 0.95913 0.0
C141 C 0.78838 0.19595 0.95057 0.0
C142 C 0.80143 0.21398 0.96237 0.0
N143 N 0.74189 0.17672 0.98676 0.0
H144 H 0.54532 0.7738 0.00633 0.0
H145 H 0.57792 0.81704 0.06026 0.0
H146 H 0.57205 0.75768 0.06122 0.0
H147 H 0.57577 0.83941 0.03842 0.0
C148 C 0.56211 0.83095 0.02821 0.0
C149 C 0.5544 0.77798 0.02178 0.0
C150 C 0.5579 0.76357 0.03273 0.0
C151 C 0.56163 0.79744 0.03136 0.0
C152 C 0.57276 0.80247 0.05199 0.0
C153 C 0.57691 0.78828 0.0625 0.0
C154 C 0.56945 0.76893 0.05275 0.0
N155 N 0.5558 0.81071 0.02092 0.0
H156 H 0.21798 0.77064 0.00052 0.0
H157 H 0.17461 0.76361 0.05183 0.0
H158 H 0.23244 0.81808 0.05026 0.0
H159 H 0.16861 0.73252 0.05186 0.0
C160 C 0.16879 0.72855 0.03412 0.0
C161 C 0.21347 0.77669 0.01469 0.0
C162 C 0.22681 0.79639 0.02319 0.0
C163 C 0.19476 0.76439 0.02531 0.0
C164 C 0.18924 0.7724 0.04381 0.0
C165 C 0.20298 0.79128 0.05337 0.0
C166 C 0.22156 0.80357 0.04266 0.0
N167 N 0.18255 0.74353 0.0187 0.0
H168 H 0.2146 0.4397 0.00309 0.0
H169 H 0.22656 0.41237 0.06116 0.0
H170 H 0.16796 0.40676 0.05245 0.0
H171 H 0.25762 0.4404 0.05649 0.0
C172 C 0.25985 0.44016 0.03826 0.0
C173 C 0.20943 0.43047 0.01832 0.0
C174 C 0.18955 0.42318 0.02604 0.0
C175 C 0.22299 0.42673 0.03085 0.0
C176 C 0.21638 0.41543 0.05117 0.0
C177 C 0.19652 0.40812 0.05889 0.0
C178 C 0.18308 0.41171 0.04604 0.0
N179 N 0.24332 0.43502 0.02316 0.0
H180 H 0.43612 0.88398 0.34748 0.0
H181 H 0.47811 0.91391 0.29273 0.0
H182 H 0.42284 0.91607 0.29594 0.0
H183 H 0.47789 0.88325 0.29542 0.0
C184 C 0.48082 0.88338 0.31358 0.0
C185 C 0.44064 0.89357 0.33252 0.0
C186 C 0.42785 0.90035 0.32359 0.0
C187 C 0.45871 0.89818 0.32134 0.0
C188 C 0.46424 0.91026 0.30158 0.0
C189 C 0.45125 0.91652 0.29225 0.0
C190 C 0.43322 0.91176 0.30348 0.0
N191 N 0.47036 0.88933 0.32909 0.0
H192 H 0.10506 0.54718 0.34167 0.0
H193 H 0.06517 0.55445 0.29511 0.0
H194 H 0.0691 0.49998 0.29294 0.0
H195 H 0.09016 0.58537 0.29389 0.0
C196 C 0.0956 0.58939 0.31129 0.0
C197 C 0.09351 0.54114 0.32846 0.0
C198 C 0.08671 0.52145 0.31952 0.0
C199 C 0.08624 0.55348 0.31939 0.0
C200 C 0.07153 0.54556 0.302 0.0
C201 C 0.066 0.52678 0.29182 0.0
C202 C 0.07299 0.51438 0.30114 0.0
N203 N 0.09531 0.57435 0.3261 0.0
H204 H 0.43717 0.54217 0.33955 0.0
H205 H 0.42439 0.50129 0.28273 0.0
H206 H 0.48249 0.55579 0.28861 0.0
H207 H 0.39394 0.50275 0.28714 0.0
C208 C 0.39155 0.49917 0.30517 0.0
C209 C 0.44215 0.53784 0.32431 0.0
C210 C 0.46166 0.55065 0.31578 0.0
C211 C 0.4286 0.52006 0.31244 0.0
C212 C 0.43482 0.51495 0.29207 0.0
C213 C 0.45434 0.52769 0.28345 0.0
C214 C 0.46775 0.5453 0.29567 0.0
N215 N 0.40838 0.50831 0.32035 0.0
O216 O 0.49717 -0.00259 0.95211 0.0
Mg217 Mg 0.50799 -0.00895 0.98193 0.0
O218 O 0.47343 0.00203 0.96862 0.0
Mg219 Mg 0.47303 -0.00633 0.0075 0.0
O220 O 0.48416 0.97076 0.00059 0.0
O221 O 0.50638 0.96342 0.98436 0.0
O222 O 0.47335 0.98519 0.0458 0.0
O223 O 0.44063 0.96516 0.00102 0.0
Mg224 Mg 0.43947 -0.00423 0.03583 0.0
O225 O 0.46146 0.01636 0.01477 0.0
O226 O 0.45168 -0.00939 0.06562 0.0
O227 O 0.4174 0.97043 0.01749 0.0
O228 O 0.43928 0.02249 0.0333 0.0
C229 C 0.52393 0.02669 0.01283 0.0
C230 C 0.48313 0.0018 0.95094 0.0
C231 C 0.49047 0.95793 -0.00334 0.0
C232 C 0.46532 0.98567 0.06466 0.0
C233 C 0.4221 0.9597 0.00506 0.0
C234 C 0.45433 0.02842 0.0195 0.0
O235 O 0.5289 0.01519 0.00235 0.0
O236 O 0.50541 0.02224 0.01435 0.0
O237 O 0.00413 0.47597 0.951 0.0
Mg238 Mg -0.00169 0.49324 0.97503 0.0
O239 O 0.97729 0.457 0.97064 0.0
Mg240 Mg -0.01059 0.46985 0.00803 0.0
O241 O 0.01666 0.50447 0.00274 0.0
O242 O 0.02024 0.52199 0.97042 0.0
O243 O -0.00215 0.48011 0.04622 0.0
O244 O 0.01571 0.46231 0.00328 0.0
Mg245 Mg -0.01545 0.43552 0.03594 0.0
O246 O 0.96318 0.43613 0.01502 0.0
O247 O -0.01016 0.45224 0.06584 0.0
O248 O 0.00829 0.43355 0.02043 0.0
O249 O 0.9582 0.40926 0.03637 0.0
C250 C 0.95971 0.4872 -0.00453 0.0
C251 C -0.01314 0.46041 0.952 0.0
C252 C 0.02644 0.52092 0.99053 0.0
C253 C -0.0041 0.47112 0.06515 0.0
C254 C 0.01995 0.4484 0.00806 0.0
C255 C 0.95158 0.41743 0.02191 0.0
O256 O 0.96976 0.49237 0.9771 0.0
O257 O 0.96493 0.47936 0.01143 0.0
O258 O 0.524 0.51201 0.05765 0.0
Mg259 Mg 0.50059 0.49295 0.03453 0.0
O260 O 0.51193 0.52826 0.03911 0.0
Mg261 Mg 0.51317 0.51534 0.0023 0.0
O262 O 0.50644 0.48074 0.00693 0.0
O263 O 0.49509 0.46445 0.04029 0.0
O264 O 0.51239 0.50181 0.96447 0.0
O265 O 0.54652 0.52442 0.00995 0.0
Mg266 Mg 0.53044 0.53758 0.97301 0.0
O267 O 0.52107 0.55046 -0.00282 0.0
O268 O 0.51021 0.52539 0.94592 0.0
O269 O 0.55605 0.53298 0.97492 0.0
O270 O 0.5431 0.56765 0.96931 0.0
C271 C 0.46692 0.49776 0.01367 0.0
C272 C 0.51968 0.52605 0.05733 0.0
C273 C 0.50081 0.46472 0.01962 0.0
C274 C 0.50822 0.50789 0.94603 0.0
C275 C 0.5598 0.5291 -0.00535 0.0
C276 C 0.5323 0.56741 0.98624 0.0
O277 O 0.47255 0.49332 0.03216 0.0
O278 O 0.47936 0.50519 -0.00276 0.0
O279 O 0.15821 0.3292 0.28164 0.0
Mg280 Mg 0.17127 0.32292 0.30967 0.0
O281 O 0.13712 0.33552 0.30172 0.0
Mg282 Mg 0.13796 0.32647 0.34 0.0
O283 O 0.14895 0.30411 0.33101 0.0
O284 O 0.16854 0.29462 0.3127 0.0
O285 O 0.13926 0.31767 0.37806 0.0
O286 O 0.10531 0.29828 0.3346 0.0
Mg287 Mg 0.10489 0.32929 0.37073 0.0
O288 O 0.12661 0.34876 0.34887 0.0
O289 O 0.11912 0.32459 0.39908 0.0
O290 O 0.08271 0.30355 0.35273 0.0
O291 O 0.10597 0.35681 0.36741 0.0
C292 C 0.189 0.35893 0.34153 0.0
C293 C 0.14503 0.33477 0.2828 0.0
C294 C 0.1542 0.29051 0.32702 0.0
C295 C 0.13223 0.31894 0.39735 0.0
C296 C 0.08697 0.29282 0.33968 0.0
C297 C 0.1207 0.36179 0.3534 0.0
O298 O 0.19309 0.34778 0.32899 0.0
O299 O 0.17073 0.35444 0.3456 0.0
O300 O 0.67001 0.80596 0.28415 0.0
Mg301 Mg 0.66604 0.82522 0.30728 0.0
O302 O 0.64243 0.78967 0.30346 0.0
Mg303 Mg 0.65672 0.80293 0.34014 0.0
O304 O 0.68492 0.83702 0.33438 0.0
O305 O 0.6889 0.85339 0.30115 0.0
O306 O 0.66939 0.81642 0.37773 0.0
O307 O 0.68035 0.79265 0.33357 0.0
Mg308 Mg 0.65068 0.7788 0.37131 0.0
O309 O 0.62907 0.76879 0.3463 0.0
O310 O 0.64487 0.79325 0.39783 0.0
O311 O 0.67992 0.78152 0.36797 0.0
O312 O 0.63031 0.74929 0.37455 0.0
C313 C 0.62862 0.82176 0.32866 0.0
C314 C 0.65193 0.79177 0.28499 0.0
C315 C 0.69505 0.85292 0.32148 0.0
C316 C 0.65982 0.81093 0.39653 0.0
C317 C 0.68804 0.78643 0.34857 0.0
C318 C 0.62116 0.75154 0.35725 0.0
O319 O 0.63814 0.82584 0.30993 0.0
O320 O 0.63381 0.81414 0.34486 0.0
O321 O 0.18929 0.84446 0.3923 0.0
Mg322 Mg 0.16562 0.82629 0.36925 0.0
O323 O 0.17953 0.86226 0.37284 0.0
Mg324 Mg 0.17864 0.84853 0.33561 0.0
O325 O 0.1718 0.81408 0.34185 0.0
O326 O 0.15947 0.79776 0.37508 0.0
O327 O 0.17589 0.83635 0.29772 0.0
O328 O 0.21236 0.85605 0.34041 0.0
Mg329 Mg 0.20505 0.87951 0.30556 0.0
O330 O 0.18576 0.88244 0.32772 0.0
O331 O 0.19167 0.86345 0.27601 0.0
O332 O 0.23185 0.88124 0.31758 0.0
O333 O 0.2075 0.9069 0.30385 0.0
C334 C 0.13229 0.83158 0.34888 0.0
C335 C 0.18637 0.8594 0.39144 0.0
C336 C 0.16588 0.7981 0.35473 0.0
C337 C 0.18047 0.84445 0.27803 0.0
C338 C 0.22982 0.86848 0.33259 0.0
C339 C 0.19359 0.90076 0.31915 0.0
O340 O 0.13782 0.82704 0.36736 0.0
O341 O 0.14476 0.83892 0.33248 0.0
O342 O 0.79571 0.64514 0.61727 0.0
Mg343 Mg 0.81829 0.65016 0.64125 0.0
O344 O 0.80367 0.67271 0.6363 0.0
Mg345 Mg 0.80358 0.66101 0.67431 0.0
O346 O 0.81006 0.63334 0.66977 0.0
O347 O 0.82326 0.62653 0.63889 0.0
O348 O 0.80365 0.65257 0.71289 0.0
O349 O 0.77044 0.63525 0.6687 0.0
Mg350 Mg 0.77319 0.66747 0.70451 0.0
O351 O 0.79673 0.68674 0.68346 0.0
O352 O 0.78836 0.66564 0.73374 0.0
O353 O 0.74971 0.6396 0.69116 0.0
O354 O 0.7703 0.6907 0.69042 0.0
C355 C 0.85077 0.68936 0.66248 0.0
C356 C 0.7976 0.66261 0.61774 0.0
C357 C 0.8159 0.62203 0.65913 0.0
C358 C 0.79884 0.65681 0.73221 0.0
C359 C 0.75273 0.6294 0.67617 0.0
C360 C 0.7864 0.69569 0.67877 0.0
O361 O 0.84601 0.67837 0.64461 0.0
O362 O 0.83761 0.68535 0.67797 0.0
O363 O 0.33574 0.13877 0.61734 0.0
Mg364 Mg 0.33237 0.15896 0.63958 0.0
O365 O 0.3084 0.12341 0.63722 0.0
Mg366 Mg 0.32386 0.13767 0.67328 0.0
O367 O 0.35181 0.17141 0.66603 0.0
O368 O 0.35516 0.1869 0.63233 0.0
O369 O 0.33832 0.15267 0.70979 0.0
O370 O 0.3468 0.12667 0.66686 0.0
Mg371 Mg 0.31822 0.11572 0.70598 0.0
O372 O 0.29653 0.10378 0.68109 0.0
O373 O 0.31272 0.13233 0.73065 0.0
O374 O 0.34769 0.11852 0.70238 0.0
O375 O 0.29797 0.08647 0.71153 0.0
C376 C 0.29561 0.15632 0.66187 0.0
C377 C 0.31755 0.12488 0.61863 0.0
C378 C 0.36169 0.18696 0.65262 0.0
C379 C 0.32876 0.14911 0.72854 0.0
C380 C 0.35503 0.12169 0.68253 0.0
C381 C 0.2888 0.08731 0.69342 0.0
O382 O 0.30457 0.15971 0.64282 0.0
O383 O 0.30125 0.14923 0.67821 0.0
O384 O 0.85617 0.17597 0.7251 0.0
Mg385 Mg 0.83297 0.15829 0.70128 0.0
O386 O 0.84614 0.19406 0.7066 0.0
Mg387 Mg 0.84615 0.18191 0.66892 0.0
O388 O 0.83969 0.14739 0.67302 0.0
O389 O 0.82696 0.12951 0.70529 0.0
O390 O 0.84466 0.17098 0.63026 0.0
O391 O 0.88008 0.1905 0.67462 0.0
Mg392 Mg 0.86894 0.2115 0.63907 0.0
O393 O 0.8526 0.21592 0.6638 0.0
O394 O 0.85258 0.19817 0.61 0.0
O395 O 0.89537 0.20982 0.6452 0.0
O396 O 0.87483 0.24029 0.6402 0.0
C397 C 0.7997 0.16422 0.68158 0.0
C398 C 0.85313 0.19086 0.72487 0.0
C399 C 0.83361 0.13082 0.68487 0.0
C400 C 0.84539 0.17919 0.61104 0.0
C401 C 0.89589 0.20024 0.66251 0.0
C402 C 0.86129 0.23448 0.6559 0.0
O403 O 0.8052 0.15925 0.69978 0.0
O404 O 0.81212 0.17178 0.66516 0.0
C405 C 0.26256 0.8041 0.01996 0.0
C406 C 0.24737 0.80861 0.01385 0.0
C407 C 0.28274 0.8173 0.01397 0.0
C408 C 0.31584 0.86123 0.97697 0.0
H409 H 0.35454 0.87578 0.02656 0.0
C410 C 0.38804 0.93905 0.98754 0.0
C411 C 0.40553 0.93998 -0.00321 0.0
C412 C 0.37038 0.92028 0.98443 0.0
C413 C 0.34407 0.87157 0.01235 0.0
H414 H 0.24089 0.82987 -0.00366 0.0
H415 H 0.27617 0.85296 0.98556 0.0
H416 H 0.31996 0.84784 0.0313 0.0
H417 H 0.41876 0.92221 0.00919 0.0
H418 H 0.38754 0.88917 0.00429 0.0
H419 H 0.33982 0.88577 0.9585 0.0
C420 C 0.27259 0.8392 -0.00521 0.0
C421 C 0.32421 0.85555 0.01506 0.0
C422 C 0.25244 0.82607 0.00098 0.0
C423 C 0.40548 0.92179 0.00174 0.0
C424 C 0.38762 0.90297 -0.00088 0.0
C425 C 0.3357 0.87733 0.9743 0.0
C426 C 0.28806 0.83521 0.00166 0.0
C427 C 0.30972 0.85049 -0.00241 0.0
C428 C 0.36974 0.90211 0.99104 0.0
C429 C 0.34988 0.88296 0.99216 0.0
H430 H 0.25891 0.79078 0.03014 0.0
H431 H 0.29425 0.81371 0.01939 0.0
H432 H 0.30514 0.8575 0.96306 0.0
H433 H 0.38774 0.95293 0.98374 0.0
H434 H 0.35683 0.92015 0.97835 0.0
C435 C 0.15818 0.41569 0.00462 0.0
C436 C 0.17622 0.42986 0.01553 0.0
C437 C 0.14363 0.4211 -0.00126 0.0
C438 C 0.12524 0.45467 0.01881 0.0
H439 H 0.09211 0.43699 0.96402 0.0
C440 C 0.05766 0.46837 0.00631 0.0
C441 C 0.03946 0.45037 0.00135 0.0
C442 C 0.07624 0.46884 0.00427 0.0
C443 C 0.10129 0.44206 0.97937 0.0
H444 H 0.1936 0.46069 0.02858 0.0
H445 H 0.16812 0.47021 0.01846 0.0
H446 H 0.12168 0.43228 0.96718 0.0
H447 H 0.02621 0.41922 0.98927 0.0
H448 H 0.05868 0.42023 0.98483 0.0
H449 H 0.10454 0.46386 0.03131 0.0
C450 C 0.16525 0.45503 0.01423 0.0
C451 C 0.11815 0.43934 0.98119 0.0
C452 C 0.17989 0.44969 0.01979 0.0
C453 C 0.04012 0.43328 0.99305 0.0
C454 C 0.05868 0.4339 0.99048 0.0
C455 C 0.10841 0.45741 0.01697 0.0
C456 C 0.14677 0.44064 0.00412 0.0
C457 C 0.13012 0.44533 0.00108 0.0
C458 C 0.07688 0.45146 -0.00326 0.0
C459 C 0.09607 0.45083 -0.00261 0.0
H460 H 0.155 0.40022 0.00154 0.0
H461 H 0.12946 0.40964 0.99117 0.0
H462 H 0.13394 0.4591 0.03452 0.0
H463 H 0.05745 0.48162 0.01308 0.0
H464 H 0.09006 0.48258 0.00917 0.0
C465 C 0.55555 0.73824 0.00384 0.0
C466 C 0.54897 0.74245 0.02434 0.0
C467 C 0.55063 0.71823 -0.00142 0.0
C468 C 0.51852 0.66387 0.01375 0.0
H469 H 0.56703 0.66132 -0.00036 0.0
C470 C 0.52167 0.5881 0.0106 0.0
C471 C 0.53245 0.58656 0.99202 0.0
C472 C 0.52214 0.60659 0.01521 0.0
C473 C 0.55328 0.66174 0.00336 0.0
H474 H 0.53094 0.72936 0.05455 0.0
H475 H 0.52212 0.69433 0.04527 0.0
H476 H 0.5691 0.69432 0.00367 0.0
H477 H 0.55183 0.60311 0.96351 0.0
H478 H 0.55233 0.63466 0.97131 0.0
H479 H 0.50271 0.63111 0.01327 0.0
C480 C 0.53106 0.70633 0.03329 0.0
C481 C 0.55447 0.68065 0.00554 0.0
C482 C 0.53613 0.72632 0.03863 0.0
C483 C 0.54349 0.6037 0.97814 0.0
C484 C 0.54389 0.62193 0.98266 0.0
C485 C 0.51729 0.64483 0.01138 0.0
C486 C 0.53895 0.70223 0.0137 0.0
C487 C 0.53709 0.68193 0.01052 0.0
C488 C 0.53342 0.62371 0.00132 0.0
C489 C 0.53465 0.64361 0.00588 0.0
H490 H 0.56554 0.75053 0.99269 0.0
H491 H 0.5567 0.71538 0.98322 0.0
H492 H 0.50493 0.66449 0.01777 0.0
H493 H 0.51299 0.57513 0.02156 0.0
H494 H 0.51396 0.60757 0.02977 0.0
C495 C 0.80091 0.25481 0.98817 0.0
C496 C 0.80751 0.24058 0.99083 0.0
C497 C 0.8143 0.27556 0.99195 0.0
C498 C 0.86081 0.31227 0.02063 0.0
H499 H 0.86891 0.34799 0.9695 0.0
C500 C 0.91508 0.39726 0.02929 0.0
C501 C 0.93086 0.40458 0.01344 0.0
C502 C 0.89711 0.37901 0.02522 0.0
C503 C 0.86667 0.3382 0.98393 0.0
H504 H 0.83278 0.23645 0.00031 0.0
H505 H 0.85608 0.2728 0.00796 0.0
H506 H 0.84323 0.31165 0.96697 0.0
H507 H 0.93996 0.39964 0.98026 0.0
H508 H 0.90828 0.36768 0.97286 0.0
H509 H 0.8843 0.3386 0.03755 0.0
C510 C 0.84063 0.26792 0.00272 0.0
C511 C 0.85197 0.31751 0.98254 0.0
C512 C 0.82736 0.2472 -0.00153 0.0
C513 C 0.92773 0.3945 0.99245 0.0
C514 C 0.9097 0.37615 0.98834 0.0
C515 C 0.87521 0.33297 0.02217 0.0
C516 C 0.83437 0.28231 -0.00116 0.0
C517 C 0.84907 0.30437 0.00082 0.0
C518 C 0.89474 0.36772 0.00528 0.0
C519 C 0.87837 0.34613 0.00381 0.0
H520 H 0.78574 0.25001 0.98191 0.0
H521 H 0.80913 0.2864 0.98899 0.0
H522 H 0.85886 0.30242 0.0349 0.0
H523 H 0.91737 0.40465 0.04575 0.0
H524 H 0.88569 0.37298 0.0384 0.0
C525 C 0.72212 0.54495 0.98118 0.0
C526 C 0.73822 0.55717 -0.00404 0.0
C527 C 0.70222 0.53898 0.98709 0.0
C528 C 0.67293 0.55559 0.02128 0.0
H529 H 0.6283 0.5044 -0.00104 0.0
C530 C 0.58751 0.53418 0.02184 0.0
C531 C 0.57928 0.53001 -0.00032 0.0
C532 C 0.60634 0.53566 0.02621 0.0
C533 C 0.64061 0.51867 0.00548 0.0
H534 H 0.74629 0.57219 0.02886 0.0
H535 H 0.7111 0.56165 0.03943 0.0
H536 H 0.66263 0.50949 -0.00065 0.0
H537 H 0.58394 0.52357 0.96493 0.0
H538 H 0.61644 0.52551 0.97273 0.0
H539 H 0.65071 0.56479 0.02694 0.0
C540 C 0.71398 0.55678 0.02318 0.0
C541 C 0.66025 0.52164 0.00564 0.0
C542 C 0.73403 0.56269 0.01726 0.0
C543 C 0.58996 0.5269 0.98213 0.0
C544 C 0.60847 0.52789 0.98661 0.0
C545 C 0.65316 0.55249 0.02139 0.0
C546 C 0.69788 0.54509 0.00798 0.0
C547 C 0.67677 0.54044 0.01261 0.0
C548 C 0.61689 0.53241 0.00863 0.0
C549 C 0.63699 0.5343 0.01266 0.0
H550 H 0.72501 0.5405 0.96467 0.0
H551 H 0.69033 0.53031 0.97477 0.0
H552 H 0.68531 0.57029 0.02662 0.0
H553 H 0.57959 0.53671 0.03565 0.0
H554 H 0.61259 0.53921 0.04331 0.0
C555 C 0.42636 0.16735 0.00889 0.0
C556 C 0.43472 0.18123 0.99094 0.0
C557 C 0.43288 0.15328 0.01299 0.0
C558 C 0.47263 0.14002 0.00104 0.0
H559 H 0.42779 0.08434 0.00031 0.0
C560 C 0.45257 0.05079 0.99042 0.0
C561 C 0.46246 0.04867 0.00951 0.0
C562 C 0.45342 0.06938 0.98617 0.0
C563 C 0.44047 0.09982 0.00035 0.0
H564 H 0.457 0.19231 0.96406 0.0
H565 H 0.46873 0.168 0.97149 0.0
H566 H 0.42089 0.11259 0.00042 0.0
H567 H 0.48217 0.06433 0.03814 0.0
H568 H 0.48421 0.09713 0.03034 0.0
H569 H 0.49218 0.127 0.00121 0.0
C570 C 0.4572 0.16792 0.98237 0.0
C571 C 0.43651 0.11596 0.00078 0.0
C572 C 0.45049 0.18176 0.97808 0.0
C573 C 0.47486 0.06584 0.02299 0.0
C574 C 0.47588 0.08452 0.01862 0.0
C575 C 0.4766 0.12378 0.001 0.0
C576 C 0.448 0.15311 -0.00065 0.0
C577 C 0.45253 0.13622 0.00096 0.0
C578 C 0.4642 0.08606 0.00097 0.0
C579 C 0.46052 0.10354 0.00034 0.0
H580 H 0.41406 0.16666 0.01885 0.0
H581 H 0.42563 0.14206 0.02627 0.0
H582 H 0.48524 0.15553 0.00116 0.0
H583 H 0.44257 0.03758 0.98015 0.0
H584 H 0.44442 0.07027 0.97234 0.0
C585 C 0.68824 0.14383 0.96497 0.0
C586 C 0.70424 0.15281 0.98072 0.0
C587 C 0.66823 0.13274 0.97233 0.0
C588 C 0.63466 0.12306 0.02198 0.0
H589 H 0.59918 0.07401 0.98761 0.0
C590 C 0.55527 0.04663 0.03542 0.0
C591 C 0.54054 0.04642 0.02075 0.0
C592 C 0.57483 0.06351 0.03609 0.0
C593 C 0.60894 0.08776 -0.00277 0.0
H594 H 0.71199 0.15731 0.01665 0.0
H595 H 0.67683 0.1374 0.02966 0.0
H596 H 0.63464 0.09438 0.97689 0.0
H597 H 0.53392 0.06404 -0.00322 0.0
H598 H 0.5684 0.0935 -0.00243 0.0
H599 H 0.60856 0.11566 0.04274 0.0
C600 C 0.67977 0.13929 0.01155 0.0
C601 C 0.62921 0.09949 0.99108 0.0
C602 C 0.69989 0.15056 0.00412 0.0
C603 C 0.54495 0.06409 0.00858 0.0
C604 C 0.56464 0.08088 0.00897 0.0
C605 C 0.61424 0.11113 0.02827 0.0
C606 C 0.66371 0.13013 -0.0043 0.0
C607 C 0.64231 0.11742 0.00318 0.0
C608 C 0.5799 0.08021 0.02187 0.0
C609 C 0.6013 0.09352 0.01574 0.0
H610 H 0.6912 0.14545 0.94684 0.0
H611 H 0.65625 0.12626 0.95963 0.0
H612 H 0.64433 0.13683 0.03159 0.0
H613 H 0.55222 0.03301 0.04465 0.0
H614 H 0.58648 0.06262 0.04586 0.0
C615 C 0.84045 0.54282 0.97261 0.0
C616 C 0.82864 0.54514 0.98935 0.0
C617 C 0.85504 0.53764 0.97856 0.0
C618 C 0.86875 0.51065 0.01826 0.0
H619 H 0.92164 0.54247 0.99051 0.0
C620 C 0.93415 0.49022 0.02006 0.0
C621 C 0.94311 0.4919 -0.00137 0.0
C622 C 0.92014 0.49698 0.02322 0.0
C623 C 0.90698 0.53345 -0.00156 0.0
H624 H 0.82247 0.54352 0.02552 0.0
H625 H 0.84807 0.53387 0.03602 0.0
H626 H 0.8975 0.55479 0.98917 0.0
H627 H 0.94347 0.50093 0.96351 0.0
H628 H 0.91918 0.51251 0.969 0.0
H629 H 0.87806 0.4888 0.02658 0.0
C630 C 0.84603 0.53636 0.01829 0.0
C631 C 0.89322 0.54055 -0.00223 0.0
C632 C 0.83151 0.54192 0.01231 0.0
C633 C 0.93711 0.49963 0.98031 0.0
C634 C 0.92325 0.50639 0.98347 0.0
C635 C 0.8826 0.50346 0.01891 0.0
C636 C 0.85804 0.5344 0.0014 0.0
C637 C 0.87372 0.52887 0.00687 0.0
C638 C 0.91499 0.50563 0.00504 0.0
C639 C 0.90153 0.51444 0.00815 0.0
H640 H 0.83847 0.54514 0.95479 0.0
H641 H 0.86389 0.53594 0.96519 0.0
H642 H 0.85376 0.50136 0.02534 0.0
H643 H 0.93844 0.4843 0.03452 0.0
H644 H 0.9139 0.49612 0.03999 0.0
C645 C 0.44585 0.2847 0.0071 0.0
C646 C 0.42745 0.2749 -0.00508 0.0
C647 C 0.45751 0.306 0.00736 0.0
C648 C 0.46709 0.35211 0.97634 0.0
H649 H 0.48227 0.37855 0.03545 0.0
C650 C 0.48843 0.43613 0.99156 0.0
C651 C 0.50023 0.44625 0.01074 0.0
C652 C 0.48358 0.41601 0.9868 0.0
C653 C 0.47871 0.37158 0.0187 0.0
H654 H 0.40692 0.27945 0.97329 0.0
H655 H 0.42741 0.31672 0.97357 0.0
H656 H 0.46595 0.34168 0.0329 0.0
H657 H 0.51794 0.4445 0.03865 0.0
H658 H 0.51075 0.41005 0.02955 0.0
H659 H 0.47985 0.38202 0.96207 0.0
C660 C 0.43281 0.30796 0.98286 0.0
C661 C 0.4692 0.35035 0.01731 0.0
C662 C 0.42101 0.2867 0.98288 0.0
C663 C 0.50866 0.43683 0.02384 0.0
C664 C 0.5043 0.41701 0.01877 0.0
C665 C 0.47691 0.37343 0.97768 0.0
C666 C 0.45113 0.31782 -0.00483 0.0
C667 C 0.46295 0.34039 -0.00381 0.0
C668 C 0.49079 0.40591 0.00096 0.0
C669 C 0.48252 0.38344 -0.00107 0.0
H670 H 0.45118 0.27596 0.0165 0.0
H671 H 0.47159 0.31325 0.01697 0.0
H672 H 0.4626 0.34477 0.95981 0.0
H673 H 0.48164 0.44313 0.98138 0.0
H674 H 0.47308 0.40801 0.973 0.0
C675 C 0.13984 0.69472 0.04291 0.0
C676 C 0.15546 0.70698 0.0279 0.0
C677 C 0.12788 0.67386 0.03897 0.0
C678 C 0.11164 0.63395 -0.00491 0.0
H679 H 0.09678 0.59845 0.04769 0.0
C680 C 0.06174 0.54797 0.98414 0.0
C681 C 0.0451 0.5387 -0.00116 0.0
C682 C 0.07794 0.5673 0.98904 0.0
C683 C 0.10074 0.60816 0.03287 0.0
H684 H 0.17064 0.70736 -0.00339 0.0
H685 H 0.14977 0.67048 0.98976 0.0
H686 H 0.11958 0.63505 0.05239 0.0
H687 H 0.0326 0.54153 0.03075 0.0
H688 H 0.06084 0.57582 0.03925 0.0
H689 H 0.09254 0.60718 0.97562 0.0
C690 C 0.14669 0.67711 0.00452 0.0
C691 C 0.11377 0.62912 0.03553 0.0
C692 C 0.15862 0.69817 0.0084 0.0
C693 C 0.04544 0.5484 0.01933 0.0
C694 C 0.06158 0.56799 0.02412 0.0
C695 C 0.09864 0.61299 0.99242 0.0
C696 C 0.13141 0.66471 0.02003 0.0
C697 C 0.11906 0.64229 0.01674 0.0
C698 C 0.07762 0.57793 0.00854 0.0
C699 C 0.09282 0.59989 0.01133 0.0
H700 H 0.13699 0.70127 0.05793 0.0
H701 H 0.11586 0.66489 0.05086 0.0
H702 H 0.11524 0.64369 0.98034 0.0
H703 H 0.06179 0.5406 0.96828 0.0
H704 H 0.09031 0.5743 0.97703 0.0
C705 C 0.29508 0.44847 0.04639 0.0
C706 C 0.28029 0.4455 0.03016 0.0
C707 C 0.31444 0.45307 0.03966 0.0
C708 C 0.35275 0.47639 -0.00344 0.0
H709 H 0.37456 0.44551 0.02614 0.0
C710 C 0.43716 0.49334 0.99001 0.0
C711 C 0.44565 0.49322 0.01133 0.0
C712 C 0.41643 0.48701 0.98805 0.0
C713 C 0.36869 0.45425 0.01768 0.0
H714 H 0.27415 0.44536 0.99403 0.0
H715 H 0.30852 0.45381 0.98217 0.0
H716 H 0.33871 0.43469 0.03001 0.0
H717 H 0.4393 0.48753 0.04739 0.0
H718 H 0.40356 0.47673 0.04397 0.0
H719 H 0.38316 0.4965 0.98508 0.0
C720 C 0.3049 0.45241 0.00012 0.0
C721 C 0.34818 0.44802 0.01985 0.0
C722 C 0.2853 0.44754 0.00691 0.0
C723 C 0.43324 0.48751 0.03066 0.0
C724 C 0.4127 0.48122 0.0287 0.0
C725 C 0.37345 0.48271 -0.00557 0.0
C726 C 0.31953 0.45495 0.0165 0.0
C727 C 0.34017 0.45945 0.01008 0.0
C728 C 0.40394 0.48041 0.00736 0.0
C729 C 0.38171 0.47212 0.00578 0.0
H730 H 0.29163 0.44708 0.0644 0.0
H731 H 0.32552 0.45526 0.05264 0.0
H732 H 0.34689 0.48544 0.98886 0.0
H733 H 0.44637 0.49771 0.9748 0.0
H734 H 0.41005 0.48663 0.97141 0.0
C735 C 0.53266 0.83116 0.00904 0.0
C736 C 0.54861 0.83956 0.02503 0.0
C737 C 0.51935 0.83885 0.00714 0.0
C738 C 0.49931 0.86677 0.03893 0.0
H739 H 0.49321 0.88622 0.98014 0.0
C740 C 0.48725 0.93448 0.02718 0.0
C741 C 0.48059 0.93733 0.00599 0.0
C742 C 0.48708 0.91626 0.03176 0.0
C743 C 0.49409 0.88033 -0.00338 0.0
H744 H 0.56333 0.86249 0.05135 0.0
H745 H 0.53991 0.87578 0.04824 0.0
H746 H 0.51094 0.867 0.98289 0.0
H747 H 0.46604 0.92289 0.9742 0.0
H748 H 0.4646 0.89058 0.98261 0.0
H749 H 0.48289 0.88048 0.0528 0.0
C750 C 0.53764 0.86323 0.0373 0.0
C751 C 0.50445 0.86943 -0.00184 0.0
C752 C 0.55114 0.8558 0.03892 0.0
C753 C 0.47108 0.92085 0.99077 0.0
C754 C 0.47062 0.90251 -0.00455 0.0
C755 C 0.4887 0.87743 0.03737 0.0
C756 C 0.52158 0.85477 0.02147 0.0
C757 C 0.50781 0.86325 0.01943 0.0
C758 C 0.48013 0.90065 0.01517 0.0
C759 C 0.48667 0.88507 0.01632 0.0
H760 H 0.53045 0.81868 -0.00197 0.0
H761 H 0.50716 0.83219 -0.0053 0.0
H762 H 0.50144 0.86182 0.05549 0.0
H763 H 0.49496 0.94717 0.03896 0.0
H764 H 0.49454 0.91548 0.04715 0.0
C765 C 0.92785 0.13499 0.34936 0.0
C766 C 0.91295 0.14052 0.34588 0.0
C767 C 0.94799 0.14828 0.3432 0.0
C768 C 0.98091 0.19475 0.3096 0.0
H769 H 0.02039 0.20599 0.35757 0.0
C770 C 0.05218 0.27229 0.32387 0.0
C771 C 0.07012 0.27321 0.33154 0.0
C772 C 0.0347 0.2535 0.32024 0.0
C773 C 0.00969 0.20273 0.34375 0.0
H774 H 0.90693 0.16369 0.33271 0.0
H775 H 0.94202 0.18685 0.32151 0.0
H776 H -0.01405 0.17739 0.36137 0.0
H777 H 0.08425 0.25539 0.3407 0.0
H778 H 0.0533 0.22225 0.33491 0.0
H779 H 0.00445 0.22076 0.29255 0.0
C780 C 0.93827 0.17226 0.32886 0.0
C781 C -0.01007 0.18634 0.34593 0.0
C782 C 0.91822 0.15909 0.33531 0.0
C783 C 0.0706 0.25501 0.33453 0.0
C784 C 0.0529 0.23612 0.33139 0.0
C785 C 0.00065 0.21116 0.30745 0.0
C786 C 0.9535 0.16724 0.33323 0.0
C787 C 0.97516 0.18253 0.32919 0.0
C788 C 0.03465 0.23521 0.3247 0.0
C789 C 0.01508 0.21568 0.32481 0.0
H790 H 0.92408 0.1208 0.35778 0.0
H791 H 0.95934 0.14393 0.3467 0.0
H792 H 0.96997 0.192 0.29623 0.0
H793 H 0.05148 0.28615 0.32154 0.0
H794 H 0.02086 0.25334 0.31531 0.0
C795 C 0.83821 0.77807 0.36653 0.0
C796 C 0.84239 0.76517 0.35323 0.0
C797 C 0.82379 0.78315 0.35946 0.0
C798 C 0.77738 0.76294 0.32527 0.0
H799 H 0.7814 0.81421 0.34374 0.0
C800 C 0.71118 0.78188 0.32176 0.0
C801 C 0.70673 0.7857 0.34385 0.0
C802 C 0.72889 0.78098 0.31768 0.0
C803 C 0.78016 0.79992 0.33823 0.0
H804 H 0.8355 0.74803 0.32172 0.0
H805 H 0.81001 0.75702 0.30906 0.0
H806 H 0.81162 0.81066 0.34442 0.0
H807 H 0.71747 0.79215 0.37878 0.0
H808 H 0.74866 0.79129 0.37148 0.0
H809 H 0.7457 0.75223 0.31954 0.0
C810 C 0.81788 0.76311 0.32506 0.0
C811 C 0.79739 0.79782 0.33872 0.0
C812 C 0.83252 0.75809 0.33216 0.0
C813 C 0.72044 0.78901 0.36164 0.0
C814 C 0.73832 0.78866 0.35745 0.0
C815 C 0.76015 0.76518 0.32446 0.0
C816 C 0.81313 0.77544 0.33887 0.0
C817 C 0.79603 0.77902 0.33325 0.0
C818 C 0.74264 0.78452 0.33551 0.0
C819 C 0.7613 0.78343 0.33181 0.0
H820 H 0.84566 0.78369 0.38286 0.0
H821 H 0.82032 0.79234 0.37077 0.0
H822 H 0.77574 0.74822 0.32109 0.0
H823 H 0.70081 0.77925 0.30777 0.0
H824 H 0.73194 0.77771 0.30064 0.0
C825 C 0.20045 0.06296 0.3543 0.0
C826 C 0.22113 0.0777 0.35399 0.0
C827 C 0.19423 0.04251 0.34964 0.0
C828 C 0.20941 0.00852 0.32262 0.0
H829 H 0.17604 0.96906 0.36826 0.0
C830 C 0.1816 0.92439 0.3087 0.0
C831 C 0.18696 0.91518 0.32599 0.0
C832 C 0.18187 0.94269 0.31273 0.0
C833 C 0.1853 0.97993 0.3554 0.0
H834 H 0.25145 0.08308 0.3477 0.0
H835 H 0.24054 0.0474 0.33878 0.0
H836 H 0.18476 0.00489 0.37228 0.0
H837 H 0.19557 0.91695 0.36143 0.0
H838 H 0.19591 0.94922 0.36871 0.0
H839 H 0.21026 0.98381 0.30586 0.0
C840 C 0.22916 0.05157 0.34278 0.0
C841 C 0.19015 0.00033 0.35757 0.0
C842 C 0.2354 0.07193 0.34781 0.0
C843 C 0.19097 0.92362 0.34799 0.0
C844 C 0.19131 0.94211 0.35207 0.0
C845 C 0.20436 -0.01185 0.32029 0.0
C846 C 0.20858 0.0366 0.34427 0.0
C847 C 0.20236 0.0148 0.34127 0.0
C848 C 0.18769 0.95224 0.33413 0.0
C849 C 0.1923 0.97365 0.33667 0.0
H850 H 0.18925 0.06709 0.35934 0.0
H851 H 0.17826 0.03124 0.3507 0.0
H852 H 0.21887 0.01938 0.30985 0.0
H853 H 0.17865 0.91819 0.29154 0.0
H854 H 0.1787 0.95 0.29872 0.0
C855 C 0.46873 0.5858 0.32483 0.0
C856 C 0.4749 0.5711 0.32554 0.0
C857 C 0.48268 0.60631 0.32927 0.0
C858 C 0.53168 0.64057 0.35614 0.0
H859 H 0.53664 0.67978 0.3104 0.0
C860 C 0.58742 0.72468 0.36945 0.0
C861 C 0.60093 0.73452 0.35155 0.0
C862 C 0.56982 0.70611 0.36582 0.0
C863 C 0.53539 0.66899 0.32327 0.0
H864 H 0.49998 0.56589 0.33221 0.0
H865 H 0.52427 0.60168 0.3408 0.0
H866 H 0.50995 0.64394 0.30666 0.0
H867 H 0.60623 0.73359 0.31552 0.0
H868 H 0.57525 0.70049 0.30907 0.0
H869 H 0.55722 0.66528 0.37257 0.0
C870 C 0.50874 0.59742 0.33668 0.0
C871 C 0.52005 0.64857 0.32127 0.0
C872 C 0.49489 0.57699 0.33187 0.0
C873 C 0.59591 0.72623 0.32951 0.0
C874 C 0.57824 0.70736 0.32588 0.0
C875 C 0.54684 0.66092 0.35825 0.0
C876 C 0.5029 0.61234 0.3348 0.0
C877 C 0.51818 0.63418 0.33762 0.0
C878 C 0.56548 0.69679 0.34426 0.0
C879 C 0.54891 0.67535 0.34183 0.0
H880 H 0.45344 0.58158 0.31958 0.0
H881 H 0.47779 0.61752 0.3279 0.0
H882 H 0.53056 0.62979 0.36898 0.0
H883 H 0.59094 0.73097 0.38655 0.0
H884 H 0.56002 0.69859 0.38016 0.0
C885 C 0.39217 0.87312 0.32964 0.0
C886 C 0.40754 0.8934 0.33307 0.0
C887 C 0.37197 0.86733 0.33412 0.0
C888 C 0.3382 0.88163 0.36352 0.0
H889 H 0.30294 0.85771 0.31099 0.0
C890 C 0.26403 0.88368 0.35022 0.0
C891 C 0.24769 0.8671 0.33935 0.0
C892 C 0.28244 0.88398 0.35317 0.0
C893 C 0.31239 0.86395 0.32602 0.0
H894 H 0.41429 0.92336 0.34464 0.0
H895 H 0.37893 0.9131 0.35326 0.0
H896 H 0.33745 0.86342 0.31012 0.0
H897 H 0.23731 0.83775 0.32318 0.0
H898 H 0.2696 0.83823 0.32815 0.0
H899 H 0.31323 0.88243 0.37932 0.0
C900 C 0.38246 0.9017 0.34708 0.0
C901 C 0.33219 0.86726 0.32548 0.0
C902 C 0.40263 0.90757 0.34218 0.0
C903 C 0.24971 0.85052 0.33199 0.0
C904 C 0.26822 0.85094 0.33462 0.0
C905 C 0.31832 0.87816 0.36415 0.0
C906 C 0.36688 0.88169 0.3424 0.0
C907 C 0.34536 0.8764 0.34409 0.0
C908 C 0.28493 0.86787 0.34485 0.0
C909 C 0.30529 0.86958 0.34526 0.0
H910 H 0.39567 0.86207 0.32226 0.0
H911 H 0.36024 0.85181 0.33043 0.0
H912 H 0.34804 0.88859 0.37813 0.0
H913 H 0.26276 0.8967 0.35575 0.0
H914 H 0.29502 0.89734 0.3609 0.0
C915 C 0.11656 0.51628 0.32233 0.0
C916 C 0.09598 0.50923 0.3267 0.0
C917 C 0.1246 0.50331 0.32516 0.0
C918 C 0.11815 0.45822 0.35421 0.0
H919 H 0.13929 0.44614 0.29984 0.0
C920 C 0.14251 0.39879 0.35813 0.0
C921 C 0.13034 0.38229 0.34374 0.0
C922 C 0.14467 0.41796 0.35404 0.0
C923 C 0.1337 0.44961 0.31519 0.0
H924 H 0.06778 0.48363 0.33814 0.0
H925 H 0.08205 0.46113 0.34408 0.0
H926 H 0.12972 0.4728 0.2989 0.0
H927 H 0.11232 0.37294 0.31287 0.0
H928 H 0.11637 0.40664 0.30538 0.0
H929 H 0.12162 0.43484 0.37043 0.0
C930 C 0.09189 0.47658 0.33826 0.0
C931 C 0.12829 0.46482 0.31469 0.0
C932 C 0.08375 0.48939 0.33494 0.0
C933 C 0.12216 0.38563 0.32387 0.0
C934 C 0.12438 0.40487 0.31969 0.0
C935 C 0.12391 0.44333 0.35485 0.0
C936 C 0.11224 0.48328 0.33285 0.0
C937 C 0.1201 0.46893 0.33408 0.0
C938 C 0.1346 0.42082 0.33554 0.0
C939 C 0.13141 0.43863 0.33525 0.0
H940 H 0.12615 0.53146 0.31562 0.0
H941 H 0.14034 0.50877 0.32096 0.0
H942 H 0.11182 0.46111 0.36933 0.0
H943 H 0.14863 0.39639 0.37377 0.0
H944 H 0.15278 0.43008 0.36638 0.0
C945 C 0.36579 0.4789 0.33516 0.0
C946 C 0.37051 0.48785 0.3135 0.0
C947 C 0.34552 0.46755 0.34208 0.0
C948 C 0.29339 0.4409 0.31718 0.0
H949 H 0.27643 0.43701 0.38004 0.0
C950 C 0.21004 0.39643 0.3385 0.0
C951 C 0.20616 0.37834 0.34934 0.0
C952 C 0.22958 0.4134 0.33904 0.0
C953 C 0.28103 0.4382 0.36242 0.0
H954 H 0.35812 0.49272 0.28249 0.0
H955 H 0.32309 0.47402 0.29481 0.0
H956 H 0.31221 0.4594 0.3702 0.0
H957 H 0.21867 0.36418 0.371 0.0
H958 H 0.25271 0.39419 0.37272 0.0
H959 H 0.26228 0.41998 0.3094 0.0
C960 C 0.3347 0.47488 0.30623 0.0
C961 C 0.30151 0.4508 0.35677 0.0
C962 C 0.35482 0.48577 0.29918 0.0
C963 C 0.22136 0.37813 0.36278 0.0
C964 C 0.24078 0.39524 0.36374 0.0
C965 C 0.27302 0.42878 0.32275 0.0
C966 C 0.32968 0.46524 0.32758 0.0
C967 C 0.30796 0.45224 0.33403 0.0
C968 C 0.2453 0.41254 0.35076 0.0
C969 C 0.26665 0.42725 0.34536 0.0
H970 H 0.37768 0.48023 0.34648 0.0
H971 H 0.3423 0.46018 0.35852 0.0
H972 H 0.29772 0.44095 0.29963 0.0
H973 H 0.1986 0.39675 0.32771 0.0
H974 H 0.23281 0.42658 0.32882 0.0
C975 C 0.50787 0.87561 0.30413 0.0
C976 C 0.49595 0.87771 0.32089 0.0
C977 C 0.52258 0.87058 0.31005 0.0
C978 C 0.53694 0.84415 0.34999 0.0
H979 H 0.58986 0.8769 0.32263 0.0
C980 C 0.60328 0.82531 0.35304 0.0
C981 C 0.61239 0.82699 0.33171 0.0
C982 C 0.58914 0.83194 0.35594 0.0
C983 C 0.57518 0.86762 0.33044 0.0
H984 H 0.48967 0.8758 0.35706 0.0
H985 H 0.51548 0.86647 0.36749 0.0
H986 H 0.56505 0.88834 0.32072 0.0
H987 H 0.61306 0.83606 0.29655 0.0
H988 H 0.58856 0.84741 0.3016 0.0
H989 H 0.54692 0.82293 0.35877 0.0
C990 C 0.51342 0.86898 0.34977 0.0
C991 C 0.56104 0.87422 0.32944 0.0
C992 C 0.49877 0.87436 0.34382 0.0
C993 C 0.60657 0.83476 0.31327 0.0
C994 C 0.59259 0.84139 0.31618 0.0
C995 C 0.55117 0.83747 0.35096 0.0
C996 C 0.52559 0.86731 0.33289 0.0
C997 C 0.54155 0.8622 0.33842 0.0
C998 C 0.58403 0.84045 0.3376 0.0
C999 C 0.57013 0.84879 0.34036 0.0
H1000 H 0.50593 0.87804 0.28634 0.0
H1001 H 0.53157 0.8691 0.29668 0.0
H1002 H 0.52196 0.83463 0.35701 0.0
H1003 H 0.60741 0.81934 0.36758 0.0
H1004 H 0.58268 0.83097 0.37261 0.0
C1005 C 0.11756 0.61952 0.33653 0.0
C1006 C 0.10487 0.61111 0.31744 0.0
C1007 C 0.12742 0.64063 0.34044 0.0
C1008 C 0.14331 0.68902 0.30994 0.0
H1009 H 0.14495 0.71118 0.36996 0.0
C1010 C 0.15731 0.77051 0.32604 0.0
C1011 C 0.16639 0.77996 0.34674 0.0
C1012 C 0.15368 0.75079 0.32129 0.0
C1013 C 0.14502 0.70531 0.35314 0.0
H1014 H 0.09171 0.61765 0.28813 0.0
H1015 H 0.10839 0.65419 0.29521 0.0
H1016 H 0.13045 0.67454 0.36511 0.0
H1017 H 0.18063 0.77752 0.37765 0.0
H1018 H 0.17521 0.74362 0.36895 0.0
H1019 H 0.15751 0.71976 0.29788 0.0
C1020 C 0.11132 0.64479 0.30677 0.0
C1021 C 0.13665 0.68428 0.35039 0.0
C1022 C 0.10164 0.62387 0.30283 0.0
C1023 C 0.17337 0.77032 0.36167 0.0
C1024 C 0.17011 0.75087 0.35678 0.0
C1025 C 0.15172 0.71007 0.31269 0.0
C1026 C 0.12463 0.65348 0.32532 0.0
C1027 C 0.13533 0.67589 0.3287 0.0
C1028 C 0.15938 0.74049 0.33707 0.0
C1029 C 0.15237 0.71843 0.33426 0.0
H1030 H 0.1203 0.60995 0.34802 0.0
H1031 H 0.1376 0.64693 0.35491 0.0
H1032 H 0.14284 0.68299 0.29305 0.0
H1033 H 0.1517 0.77769 0.31439 0.0
H1034 H 0.14529 0.74318 0.30599 0.0
C1035 C 0.80218 0.02781 0.37121 0.0
C1036 C 0.81803 0.0403 0.35652 0.0
C1037 C 0.79231 0.00662 0.36896 0.0
C1038 C 0.77969 0.96664 0.32674 0.0
H1039 H 0.76387 0.93112 0.37933 0.0
C1040 C 0.73014 0.88065 0.31487 0.0
C1041 C 0.71359 0.87099 0.32964 0.0
C1042 C 0.7462 0.90005 0.31996 0.0
C1043 C 0.76808 0.94082 0.36449 0.0
H1044 H 0.83625 0.04057 0.3281 0.0
H1045 H 0.81864 0.00333 0.32378 0.0
H1046 H 0.78581 0.96791 0.38434 0.0
H1047 H 0.70115 0.87326 0.36185 0.0
H1048 H 0.72894 0.90766 0.37056 0.0
H1049 H 0.76139 0.93988 0.30693 0.0
C1050 C 0.81395 0.00999 0.33715 0.0
C1051 C 0.78068 0.96187 0.36735 0.0
C1052 C 0.82406 0.03125 0.33964 0.0
C1053 C 0.71389 0.88042 0.35033 0.0
C1054 C 0.72982 0.9001 0.35526 0.0
C1055 C 0.767 0.94565 0.32388 0.0
C1056 C 0.79794 -0.00253 0.35177 0.0
C1057 C 0.78635 0.97501 0.34854 0.0
C1058 C 0.7458 0.91043 0.33969 0.0
C1059 C 0.76081 0.93248 0.34275 0.0
H1060 H 0.79734 0.03446 0.38444 0.0
H1061 H 0.77987 -0.00259 0.38029 0.0
H1062 H 0.78355 0.9764 0.31197 0.0
H1063 H 0.73026 0.87351 0.29888 0.0
H1064 H 0.75852 0.90726 0.30793 0.0
C1065 C 0.95023 0.77935 0.33908 0.0
C1066 C 0.94527 0.77739 0.36233 0.0
C1067 C 0.96984 0.78417 0.33228 0.0
C1068 C 0.01321 0.77989 0.35187 0.0
H1069 H 0.04848 0.82957 0.31911 0.0
C1070 C 0.09813 0.82034 0.36521 0.0
C1071 C 0.11099 0.82687 0.34624 0.0
C1072 C 0.07754 0.81369 0.36275 0.0
C1073 C 0.0387 0.81545 0.32788 0.0
H1074 H 0.95663 0.77889 0.39656 0.0
H1075 H -0.00957 0.78686 0.38478 0.0
H1076 H 0.01202 0.81791 0.32202 0.0
H1077 H 0.11241 0.83239 0.30988 0.0
H1078 H 0.07606 0.82075 0.30565 0.0
H1079 H 0.0397 0.77767 0.35855 0.0
C1080 C 0.97935 0.78472 0.3718 0.0
C1081 C 0.01789 0.80878 0.3295 0.0
C1082 C 0.96005 0.78024 0.37854 0.0
C1083 C 0.10288 0.82743 0.32483 0.0
C1084 C 0.08211 0.82077 0.32238 0.0
C1085 C 0.03383 0.78647 0.35023 0.0
C1086 C -0.01554 0.78667 0.34866 0.0
C1087 C 0.00518 0.79139 0.34232 0.0
C1088 C 0.06919 0.81336 0.34128 0.0
C1089 C 0.04695 0.80477 0.33909 0.0
H1090 H 0.9391 0.7773 0.32624 0.0
H1091 H 0.97348 0.78565 0.31433 0.0
H1092 H 0.00365 0.76626 0.36155 0.0
H1093 H 0.10388 0.81995 0.382 0.0
H1094 H 0.06803 0.80856 0.37773 0.0
C1095 C 0.22438 0.19328 0.36989 0.0
C1096 C 0.21676 0.17411 0.35951 0.0
C1097 C 0.21311 0.20326 0.36972 0.0
C1098 C 0.16102 0.19497 0.35938 0.0
H1099 H 0.19049 0.25399 0.35539 0.0
C1100 C 0.13803 0.25318 0.32648 0.0
C1101 C 0.14579 0.27125 0.33933 0.0
C1102 C 0.1401 0.23689 0.33435 0.0
C1103 C 0.18209 0.23752 0.35698 0.0
H1104 H 0.1916 0.15042 0.34027 0.0
H1105 H 0.1722 0.16826 0.33904 0.0
H1106 H 0.20907 0.2356 0.35533 0.0
H1107 H 0.15908 0.28563 0.3716 0.0
H1108 H 0.16309 0.25728 0.38525 0.0
H1109 H 0.13388 0.19727 0.35921 0.0
C1110 C 0.1866 0.17534 0.34802 0.0
C1111 C 0.19272 0.22693 0.35694 0.0
C1112 C 0.19778 0.16518 0.34853 0.0
C1113 C 0.15278 0.27172 0.36156 0.0
C1114 C 0.1552 0.25558 0.36928 0.0
C1115 C 0.15031 0.20565 0.35889 0.0
C1116 C 0.19409 0.19448 0.35874 0.0
C1117 C 0.1824 0.20552 0.35833 0.0
C1118 C 0.15027 0.23877 0.35496 0.0
C1119 C 0.16084 0.22702 0.35794 0.0
H1120 H 0.23892 0.20039 0.3786 0.0
H1121 H 0.21926 0.21776 0.37856 0.0
H1122 H 0.15255 0.1785 0.36066 0.0
H1123 H 0.13279 0.25267 0.30917 0.0
H1124 H 0.13627 0.22412 0.323 0.0
C1125 C 0.59441 0.47043 0.6823 0.0
C1126 C 0.57937 0.47579 0.67893 0.0
C1127 C 0.61452 0.48397 0.67635 0.0
C1128 C 0.64736 0.5312 0.64395 0.0
H1129 H 0.68598 0.54228 0.69287 0.0
C1130 C 0.7175 0.60908 0.66146 0.0
C1131 C 0.73554 0.60992 0.66849 0.0
C1132 C 0.70013 0.5903 0.65733 0.0
C1133 C 0.67552 0.53907 0.67881 0.0
H1134 H 0.57303 0.49884 0.66606 0.0
H1135 H 0.60811 0.52246 0.65523 0.0
H1136 H 0.65175 0.51315 0.69558 0.0
H1137 H 0.75001 0.59214 0.67625 0.0
H1138 H 0.71923 0.55901 0.66983 0.0
H1139 H 0.67092 0.55786 0.62782 0.0
C1140 C 0.60448 0.50783 0.66235 0.0
C1141 C 0.6559 0.52238 0.68035 0.0
C1142 C 0.58445 0.49441 0.6686 0.0
C1143 C 0.73623 0.59177 0.6706 0.0
C1144 C 0.71867 0.5729 0.66705 0.0
C1145 C 0.66696 0.54794 0.64246 0.0
C1146 C 0.61983 0.503 0.66671 0.0
C1147 C 0.64143 0.51861 0.66324 0.0
C1148 C 0.70037 0.57201 0.66076 0.0
C1149 C 0.68103 0.55236 0.66019 0.0
H1150 H 0.59076 0.45619 0.69053 0.0
H1151 H 0.62599 0.4798 0.67983 0.0
H1152 H 0.63663 0.52848 0.63033 0.0
H1153 H 0.71671 0.62295 0.65979 0.0
H1154 H 0.68619 0.59007 0.65271 0.0
C1155 C 0.50927 0.1151 0.68773 0.0
C1156 C 0.50886 0.0974 0.67979 0.0
C1157 C 0.49387 0.11919 0.68173 0.0
C1158 C 0.43995 0.09142 0.66398 0.0
H1159 H 0.44714 0.14598 0.66555 0.0
C1160 C 0.37521 0.11208 0.65686 0.0
C1161 C 0.37316 0.11996 0.67777 0.0
C1162 C 0.39223 0.10997 0.65274 0.0
C1163 C 0.44499 0.13069 0.66486 0.0
H1164 H 0.49275 0.07044 0.65872 0.0
H1165 H 0.4661 0.07794 0.64724 0.0
H1166 H 0.47687 0.14158 0.66378 0.0
H1167 H 0.38743 0.13249 0.71039 0.0
H1168 H 0.4176 0.12959 0.70276 0.0
H1169 H 0.40796 0.08071 0.66491 0.0
C1170 C 0.47808 0.08854 0.65848 0.0
C1171 C 0.46196 0.12811 0.66403 0.0
C1172 C 0.49345 0.08436 0.66471 0.0
C1173 C 0.3886 0.12621 0.69422 0.0
C1174 C 0.40585 0.12467 0.68983 0.0
C1175 C 0.42298 0.09404 0.66432 0.0
C1176 C 0.47771 0.10567 0.66755 0.0
C1177 C 0.45972 0.10843 0.66436 0.0
C1178 C 0.40768 0.11634 0.66918 0.0
C1179 C 0.42542 0.11367 0.66541 0.0
H1180 H 0.52084 0.1251 0.69978 0.0
H1181 H 0.49405 0.13231 0.68947 0.0
H1182 H 0.4375 0.07603 0.66461 0.0
H1183 H 0.36346 0.10713 0.64395 0.0
H1184 H 0.39337 0.10345 0.63674 0.0
C1185 C 0.9037 0.40499 0.67813 0.0
C1186 C 0.89045 0.41157 0.68582 0.0
C1187 C 0.89639 0.38439 0.67327 0.0
C1188 C 0.85825 0.33457 0.69204 0.0
H1189 H 0.87269 0.31497 0.63814 0.0
C1190 C 0.86099 0.25909 0.684 0.0
C1191 C 0.85491 0.24902 0.66292 0.0
C1192 C 0.86063 0.27727 0.68752 0.0
C1193 C 0.86832 0.32016 0.65318 0.0
H1194 H 0.85932 0.40228 0.69415 0.0
H1195 H 0.84649 0.36598 0.68596 0.0
H1196 H 0.88167 0.35075 0.64074 0.0
H1197 H 0.84237 0.24875 0.62972 0.0
H1198 H 0.84131 0.28015 0.63598 0.0
H1199 H 0.84555 0.30405 0.70481 0.0
C1200 C 0.86243 0.37678 0.68344 0.0
C1201 C 0.87358 0.34063 0.65469 0.0
C1202 C 0.86969 0.39746 0.68787 0.0
C1203 C 0.84695 0.25627 0.64618 0.0
C1204 C 0.84653 0.27429 0.64967 0.0
C1205 C 0.85323 0.31409 0.69067 0.0
C1206 C 0.8758 0.37005 0.67654 0.0
C1207 C 0.86872 0.34804 0.67417 0.0
C1208 C 0.85428 0.28548 0.66992 0.0
C1209 C 0.85829 0.30673 0.67124 0.0
H1210 H 0.91981 0.41567 0.67676 0.0
H1211 H 0.90701 0.37952 0.6681 0.0
H1212 H 0.85457 0.34004 0.70736 0.0
H1213 H 0.86754 0.25387 0.69693 0.0
H1214 H 0.86678 0.28569 0.70325 0.0
C1215 C 0.13538 0.92269 0.65605 0.0
C1216 C 0.14093 0.90754 0.65529 0.0
C1217 C 0.14996 0.94295 0.66082 0.0
C1218 C 0.20008 0.97478 0.68678 0.0
H1219 H 0.20439 0.01704 0.64591 0.0
C1220 C 0.25644 0.05787 0.70562 0.0
C1221 C 0.26909 0.06941 0.68774 0.0
C1222 C 0.23906 0.03928 0.7013 0.0
C1223 C 0.20337 0.00537 0.65739 0.0
H1224 H 0.16557 0.90121 0.65959 0.0
H1225 H 0.19098 0.93649 0.66852 0.0
H1226 H 0.17716 0.98166 0.6403 0.0
H1227 H 0.27302 0.07131 0.65117 0.0
H1228 H 0.24255 0.03813 0.64349 0.0
H1229 H 0.22637 -0.00186 0.70361 0.0
C1230 C 0.17547 0.93283 0.66535 0.0
C1231 C 0.1877 0.98522 0.65435 0.0
C1232 C 0.16099 0.91269 0.66029 0.0
C1233 C 0.26345 0.06261 0.66521 0.0
C1234 C 0.24605 0.0437 0.66086 0.0
C1235 C 0.21559 -0.00516 0.68988 0.0
C1236 C 0.1702 0.94822 0.66519 0.0
C1237 C 0.18601 0.96975 0.66899 0.0
C1238 C 0.23408 0.03159 0.679 0.0
C1239 C 0.21741 0.01037 0.67527 0.0
H1240 H 0.12001 0.91902 0.65193 0.0
H1241 H 0.14549 0.95452 0.6608 0.0
H1242 H 0.1991 0.96318 0.69834 0.0
H1243 H 0.26028 0.063 0.72312 0.0
H1244 H 0.22984 0.03059 0.71555 0.0
C1245 C 0.06788 0.24285 0.66881 0.0
C1246 C 0.074 0.22818 0.66648 0.0
C1247 C 0.04803 0.23706 0.67511 0.0
C1248 C -0.0026 0.1939 0.6681 0.0
H1249 H 0.98157 0.22645 0.7048 0.0
C1250 C 0.92744 0.20117 0.64961 0.0
C1251 C 0.91465 0.19966 0.6676 0.0
C1252 C 0.94551 0.20119 0.65384 0.0
C1253 C -0.01429 0.217 0.69482 0.0
H1254 H 0.06446 0.1961 0.66992 0.0
H1255 H 0.02962 0.18591 0.68081 0.0
H1256 H 0.01676 0.23356 0.70596 0.0
H1257 H 0.91056 0.19672 0.70415 0.0
H1258 H 0.9429 0.19757 0.7117 0.0
H1259 H 0.96666 0.17809 0.65603 0.0
C1260 C 0.04023 0.2019 0.67781 0.0
C1261 C 0.00584 0.22116 0.69535 0.0
C1262 C 0.06018 0.20775 0.67175 0.0
C1263 C 0.92019 0.19792 0.68999 0.0
C1264 C 0.93862 0.19843 0.6943 0.0
C1265 C 0.97738 0.18993 0.66737 0.0
C1266 C 0.03381 0.21643 0.67898 0.0
C1267 C 0.012 0.20999 0.68153 0.0
C1268 C 0.95142 0.20007 0.6762 0.0
C1269 C 0.97148 0.2018 0.68024 0.0
H1270 H 0.07827 0.25872 0.66492 0.0
H1271 H 0.04351 0.24858 0.67566 0.0
H1272 H 0.00168 0.18515 0.6571 0.0
H1273 H 0.92348 0.20234 0.63216 0.0
H1274 H 0.95517 0.20268 0.63961 0.0
C1275 C 0.75077 0.82369 0.66749 0.0
C1276 C 0.76316 0.84388 0.66036 0.0
C1277 C 0.759 0.81093 0.67067 0.0
C1278 C 0.79499 0.80014 0.64573 0.0
H1279 H 0.78991 0.76847 0.69963 0.0
C1280 C 0.7854 0.71948 0.651 0.0
C1281 C 0.79587 0.71597 0.66851 0.0
C1282 C 0.78804 0.73897 0.64781 0.0
C1283 C 0.79175 0.77748 0.68458 0.0
H1284 H 0.79369 0.86684 0.65132 0.0
H1285 H 0.80801 0.84425 0.65623 0.0
H1286 H 0.78022 0.79494 0.70122 0.0
H1287 H 0.81847 0.73005 0.69515 0.0
H1288 H 0.82283 0.76416 0.68986 0.0
H1289 H 0.80509 0.78162 0.62864 0.0
C1290 C 0.7921 0.83848 0.65981 0.0
C1291 C 0.78609 0.79245 0.68548 0.0
C1292 C 0.78397 0.85137 0.65716 0.0
C1293 C 0.81057 0.73254 0.68121 0.0
C1294 C 0.81288 0.75196 0.67839 0.0
C1295 C 0.8002 0.78481 0.64468 0.0
C1296 C 0.77959 0.81808 0.66615 0.0
C1297 C 0.78747 0.80373 0.666 0.0
C1298 C 0.80083 0.75503 0.66247 0.0
C1299 C 0.79845 0.77325 0.66406 0.0
H1300 H 0.73462 0.81761 0.66976 0.0
H1301 H 0.74907 0.79517 0.67543 0.0
H1302 H 0.79595 0.80856 0.63045 0.0
H1303 H 0.77369 0.70679 0.64136 0.0
H1304 H 0.77849 0.74095 0.63553 0.0
C1305 C 0.02855 0.79156 0.65116 0.0
C1306 C 0.04088 0.81147 0.6594 0.0
C1307 C 0.00765 0.78153 0.65458 0.0
C1308 C 0.96623 0.77463 0.6888 0.0
H1309 H 0.93593 0.75826 0.63199 0.0
C1310 C 0.8776 0.72183 0.68145 0.0
C1311 C 0.87196 0.70617 0.66516 0.0
C1312 C 0.89783 0.73777 0.68299 0.0
C1313 C 0.94414 0.76276 0.64803 0.0
H1314 H 0.04128 0.8362 0.67876 0.0
H1315 H 0.00442 0.81827 0.68512 0.0
H1316 H 0.97262 0.78028 0.63134 0.0
H1317 H 0.88328 0.69449 0.63855 0.0
H1318 H 0.91805 0.72173 0.64144 0.0
H1319 H 0.93768 0.75598 0.7054 0.0
C1320 C 0.01107 0.81066 0.6758 0.0
C1321 C 0.96509 0.7754 0.64762 0.0
C1322 C 0.03206 0.82088 0.67207 0.0
C1323 C 0.88694 0.70649 0.65096 0.0
C1324 C 0.90693 0.72219 0.65256 0.0
C1325 C 0.9451 0.7617 0.68922 0.0
C1326 C -0.00129 0.79109 0.66661 0.0
C1327 C 0.97638 0.78085 0.6679 0.0
C1328 C 0.9126 0.73821 0.66825 0.0
C1329 C 0.93401 0.755 0.66872 0.0
H1330 H 0.03499 0.78396 0.64144 0.0
H1331 H -0.00163 0.76636 0.64747 0.0
H1332 H 0.97473 0.77874 0.70465 0.0
H1333 H 0.86638 0.72193 0.69269 0.0
H1334 H 0.90182 0.74989 0.69532 0.0
C1335 C 0.16449 0.20726 0.67698 0.0
C1336 C 0.16124 0.20996 0.65398 0.0
C1337 C 0.17947 0.20234 0.683 0.0
C1338 C 0.22715 0.20791 0.66239 0.0
H1339 H 0.21404 0.15728 0.69267 0.0
C1340 C 0.27331 0.16905 0.64654 0.0
C1341 C 0.27943 0.16161 0.66504 0.0
C1342 C 0.25926 0.17559 0.64948 0.0
C1343 C 0.21802 0.17166 0.6846 0.0
H1344 H 0.17084 0.20969 0.61938 0.0
H1345 H 0.19706 0.20162 0.62984 0.0
H1346 H 0.18869 0.16847 0.69084 0.0
H1347 H 0.27495 0.1545 0.70106 0.0
H1348 H 0.25009 0.16596 0.70613 0.0
H1349 H 0.25607 0.21092 0.65538 0.0
C1350 C 0.18814 0.20321 0.64321 0.0
C1351 C 0.20356 0.17805 0.68359 0.0
C1352 C 0.1731 0.20774 0.63722 0.0
C1353 C 0.27059 0.16022 0.68647 0.0
C1354 C 0.25637 0.16674 0.6894 0.0
C1355 C 0.24151 0.20161 0.66344 0.0
C1356 C 0.19155 0.20053 0.66611 0.0
C1357 C 0.20779 0.19583 0.67168 0.0
C1358 C 0.25092 0.17489 0.67098 0.0
C1359 C 0.23683 0.18301 0.6737 0.0
H1360 H 0.15545 0.2088 0.69022 0.0
H1361 H 0.18183 0.20029 0.70077 0.0
H1362 H 0.23085 0.22184 0.6534 0.0
H1363 H 0.27959 0.17013 0.62975 0.0
H1364 H 0.25498 0.18133 0.63484 0.0
C1365 C 0.7821 0.95213 0.67103 0.0
C1366 C 0.76382 0.94237 0.65866 0.0
C1367 C 0.79378 0.97343 0.67135 0.0
C1368 C 0.80347 0.01962 0.64039 0.0
H1369 H 0.81739 0.04574 0.69971 0.0
C1370 C 0.82232 0.10277 0.65627 0.0
C1371 C 0.83395 0.11297 0.67552 0.0
C1372 C 0.81813 0.08289 0.65129 0.0
C1373 C 0.81417 0.03885 0.68292 0.0
H1374 H 0.74351 0.94696 0.63668 0.0
H1375 H 0.76403 0.9842 0.63701 0.0
H1376 H 0.80164 0.0089 0.69695 0.0
H1377 H 0.85196 0.11165 0.70336 0.0
H1378 H 0.84582 0.07761 0.69393 0.0
H1379 H 0.8159 0.04957 0.62631 0.0
C1380 C 0.76934 0.97543 0.64642 0.0
C1381 C 0.80501 0.01766 0.6814 0.0
C1382 C 0.75753 0.95419 0.64642 0.0
C1383 C 0.84287 0.10393 0.68845 0.0
C1384 C 0.83911 0.08434 0.6832 0.0
C1385 C 0.81291 0.0409 0.64186 0.0
C1386 C 0.78751 0.98526 0.65899 0.0
C1387 C 0.7992 0.00782 0.66019 0.0
C1388 C 0.82578 0.07312 0.66533 0.0
C1389 C 0.81803 0.05077 0.6632 0.0
H1390 H 0.78729 0.94335 0.68062 0.0
H1391 H 0.80773 0.98067 0.68118 0.0
H1392 H 0.79929 0.01235 0.62379 0.0
H1393 H 0.81514 0.10946 0.64624 0.0
H1394 H 0.80773 0.07474 0.63745 0.0
C1395 C 0.49182 0.36497 0.6741 0.0
C1396 C 0.48966 0.37314 0.69469 0.0
C1397 C 0.47989 0.34402 0.66969 0.0
C1398 C 0.44884 0.29485 0.69936 0.0
H1399 H 0.42477 0.27541 0.63977 0.0
C1400 C 0.38137 0.21379 0.68187 0.0
C1401 C 0.38023 0.20527 0.66029 0.0
C1402 C 0.39722 0.23345 0.68699 0.0
C1403 C 0.43167 0.28051 0.65642 0.0
H1404 H 0.47308 0.36635 0.72634 0.0
H1405 H 0.45192 0.33007 0.71842 0.0
H1406 H 0.44726 0.31172 0.64599 0.0
H1407 H 0.39543 0.20939 0.62801 0.0
H1408 H 0.4235 0.24318 0.63726 0.0
H1409 H 0.4329 0.26362 0.70988 0.0
C1410 C 0.46315 0.33951 0.70599 0.0
C1411 C 0.44455 0.30137 0.65997 0.0
C1412 C 0.47513 0.3603 0.71044 0.0
C1413 C 0.39591 0.21584 0.64467 0.0
C1414 C 0.41186 0.23523 0.6499 0.0
C1415 C 0.43594 0.27397 0.69581 0.0
C1416 C 0.4656 0.33106 0.68575 0.0
C1417 C 0.45306 0.3088 0.68154 0.0
C1418 C 0.41223 0.24464 0.67069 0.0
C1419 C 0.42706 0.26658 0.67435 0.0
H1420 H 0.503 0.3746 0.66172 0.0
H1421 H 0.48216 0.33792 0.65396 0.0
H1422 H 0.45546 0.30009 0.71611 0.0
H1423 H 0.36934 0.2059 0.69411 0.0
H1424 H 0.39702 0.24029 0.70315 0.0
C1425 C 0.61718 0.11165 0.67302 0.0
C1426 C 0.61191 0.11176 0.69594 0.0
C1427 C 0.63717 0.11701 0.66727 0.0
C1428 C 0.68153 0.11743 0.69204 0.0
H1429 H 0.7151 0.16072 0.6502 0.0
C1430 C 0.76706 0.15685 0.69932 0.0
C1431 C 0.77861 0.16026 0.67955 0.0
C1432 C 0.74657 0.15096 0.69787 0.0
C1433 C 0.70581 0.14839 0.66165 0.0
H1434 H 0.62326 0.11787 0.73061 0.0
H1435 H 0.65778 0.12695 0.72069 0.0
H1436 H 0.67873 0.14945 0.65333 0.0
H1437 H 0.77792 0.16115 0.64267 0.0
H1438 H 0.74169 0.15055 0.64013 0.0
H1439 H 0.7083 0.11642 0.70079 0.0
C1440 C 0.64662 0.12266 0.70717 0.0
C1441 C 0.68504 0.14195 0.66342 0.0
C1442 C 0.62687 0.11752 0.71284 0.0
C1443 C 0.76937 0.15857 0.65821 0.0
C1444 C 0.74867 0.15253 0.65675 0.0
C1445 C 0.70209 0.12376 0.69024 0.0
C1446 C 0.65196 0.12226 0.6844 0.0
C1447 C 0.67292 0.12688 0.67924 0.0
C1448 C 0.73696 0.14813 0.67661 0.0
C1449 C 0.71465 0.13981 0.67569 0.0
H1450 H 0.60592 0.10732 0.65963 0.0
H1451 H 0.64094 0.1166 0.64958 0.0
H1452 H 0.67245 0.1055 0.70404 0.0
H1453 H 0.77378 0.15838 0.71603 0.0
H1454 H 0.73812 0.14829 0.71351 0.0
C1455 C 0.89245 0.52571 0.70561 0.0
C1456 C 0.88717 0.50768 0.69356 0.0
C1457 C 0.87996 0.53438 0.70472 0.0
C1458 C 0.84348 0.53821 0.66822 0.0
H1459 H 0.83108 0.55949 0.72231 0.0
C1460 C 0.80509 0.5854 0.65787 0.0
C1461 C 0.81457 0.60395 0.66981 0.0
C1462 C 0.80821 0.56945 0.6644 0.0
C1463 C 0.83443 0.55366 0.70705 0.0
H1464 H 0.8649 0.48459 0.67087 0.0
H1465 H 0.84327 0.50001 0.66897 0.0
H1466 H 0.84888 0.54012 0.72596 0.0
H1467 H 0.83343 0.62023 0.69876 0.0
H1468 H 0.83975 0.59271 0.70975 0.0
H1469 H 0.83025 0.55254 0.6491 0.0
C1470 C 0.85695 0.50731 0.67928 0.0
C1471 C 0.84459 0.54257 0.70915 0.0
C1472 C 0.86932 0.49851 0.68037 0.0
C1473 C 0.82588 0.6059 0.68947 0.0
C1474 C 0.82943 0.59009 0.69573 0.0
C1475 C 0.83355 0.54944 0.66609 0.0
C1476 C 0.86211 0.52526 0.69154 0.0
C1477 C 0.84953 0.53511 0.6897 0.0
C1478 C 0.82143 0.57207 0.68254 0.0
C1479 C 0.82923 0.55765 0.68543 0.0
H1480 H 0.90614 0.53301 0.7159 0.0
H1481 H 0.88446 0.54842 0.71402 0.0
H1482 H 0.84731 0.53282 0.65293 0.0
H1483 H 0.7962 0.58365 0.64269 0.0
H1484 H 0.80128 0.55556 0.65432 0.0
C1485 C 0.47241 0.94335 0.26368 0.0
C1486 C 0.45484 0.925 0.26904 0.0
C1487 C 0.47569 0.9507 0.24132 0.0
C1488 C 0.44805 0.94308 0.18613 0.0
H1489 H 0.50222 0.97252 0.16089 0.0
C1490 C 0.46069 0.95811 0.09079 0.0
C1491 C 0.47056 0.97897 0.08571 0.0
C1492 C 0.46152 0.95171 0.11284 0.0
C1493 C 0.48704 0.96428 0.16781 0.0
H1494 H 0.42738 0.8995 0.25549 0.0
H1495 H 0.43338 0.91161 0.21653 0.0
H1496 H 0.49768 0.96113 0.20052 0.0
H1497 H 0.48976 0.0095 0.09888 0.0
H1498 H 0.49184 -0.00177 0.13751 0.0
H1499 H 0.43744 0.94567 0.15319 0.0
C1500 C 0.44427 0.92099 0.22946 0.0
C1501 C 0.4844 0.95791 0.19054 0.0
C1502 C 0.44083 0.91393 0.25178 0.0
C1503 C 0.48232 -0.00669 0.10249 0.0
C1504 C 0.48348 0.98689 0.12448 0.0
C1505 C 0.45067 0.94904 0.1634 0.0
C1506 C 0.46163 0.93958 0.22389 0.0
C1507 C 0.46482 0.94711 0.19997 0.0
C1508 C 0.47244 0.96609 0.13 0.0
C1509 C 0.47014 0.95959 0.15402 0.0
H1510 H 0.48346 0.95204 0.2768 0.0
H1511 H 0.48911 0.96518 0.23781 0.0
H1512 H 0.43279 0.93542 0.19283 0.0
H1513 H 0.45128 0.94688 0.0781 0.0
H1514 H 0.45289 0.9356 0.11677 0.0
C1515 C 0.06645 0.53689 0.25168 0.0
C1516 C 0.05674 0.52247 0.26893 0.0
C1517 C 0.05868 0.53306 0.22961 0.0
C1518 C 0.02481 0.49063 0.19158 0.0
H1519 H 0.02907 0.53432 0.15313 0.0
C1520 C -0.01287 0.47234 0.10519 0.0
C1521 C 0.00016 0.48211 0.0869 0.0
C1522 C -0.0072 0.47986 0.1272 0.0
C1523 C 0.02788 0.52205 0.16371 0.0
H1524 H 0.03133 0.49284 0.27694 0.0
H1525 H 0.01708 0.48628 0.23831 0.0
H1526 H 0.04077 0.5416 0.19273 0.0
H1527 H 0.02851 0.50827 0.07671 0.0
H1528 H 0.03875 0.52149 0.11577 0.0
H1529 H 0.01173 0.47108 0.16271 0.0
C1530 C 0.031 0.50041 0.24173 0.0
C1531 C 0.0346 0.52617 0.18633 0.0
C1532 C 0.03901 0.50414 0.26384 0.0
C1533 C 0.01825 0.50055 0.09065 0.0
C1534 C 0.02407 0.50805 0.1129 0.0
C1535 C 0.0179 0.48651 0.16916 0.0
C1536 C 0.04086 0.51478 0.22431 0.0
C1537 C 0.03313 0.51047 0.20052 0.0
C1538 C 0.01173 0.49718 0.13139 0.0
C1539 C 0.01929 0.50213 0.15506 0.0
H1540 H 0.0804 0.551 0.25518 0.0
H1541 H 0.06696 0.54424 0.2166 0.0
H1542 H 0.02395 0.47829 0.20174 0.0
H1543 H 0.97294 0.45824 0.10258 0.0
H1544 H 0.98283 0.4715 0.14113 0.0
C1545 C 0.47972 0.52782 0.25623 0.0
C1546 C 0.46008 0.52443 0.26037 0.0
C1547 C 0.4864 0.52848 0.23398 0.0
C1548 C 0.46912 0.51661 0.17372 0.0
H1549 H 0.52418 0.55942 0.16138 0.0
C1550 C 0.49966 0.53592 0.08253 0.0
C1551 C 0.51686 0.53382 0.07926 0.0
C1552 C 0.49349 0.53732 0.10452 0.0
C1553 C 0.50878 0.54744 0.16463 0.0
H1554 H 0.43174 0.51818 0.2445 0.0
H1555 H 0.44337 0.5194 0.20567 0.0
H1556 H 0.51113 0.55458 0.20013 0.0
H1557 H 0.54202 0.53332 0.09608 0.0
H1558 H 0.53167 0.53661 0.13451 0.0
H1559 H 0.46679 0.50971 0.13807 0.0
C1560 C 0.45359 0.52135 0.21957 0.0
C1561 C 0.50134 0.5445 0.18682 0.0
C1562 C 0.44688 0.52058 0.24185 0.0
C1563 C 0.52876 0.53501 0.09817 0.0
C1564 C 0.52281 0.53684 0.12013 0.0
C1565 C 0.4765 0.51971 0.15149 0.0
C1566 C 0.47362 0.52589 0.21535 0.0
C1567 C 0.48148 0.52892 0.19169 0.0
C1568 C 0.50465 0.5371 0.12353 0.0
C1569 C 0.49644 0.53506 0.14677 0.0
H1570 H 0.49014 0.5306 0.27022 0.0
H1571 H 0.50174 0.53146 0.23136 0.0
H1572 H 0.45386 0.50432 0.17688 0.0
H1573 H 0.49006 0.5348 0.06827 0.0
H1574 H 0.47952 0.53768 0.10673 0.0
C1575 C 0.94054 0.45468 0.75442 0.0
C1576 C 0.9244 0.45829 0.75032 0.0
C1577 C 0.94682 0.45423 0.77666 0.0
C1578 C 0.94206 0.46674 0.83681 0.0
H1579 H 0.95581 0.42459 0.8492 0.0
C1580 C 0.95613 0.44847 0.92773 0.0
C1581 C 0.97594 0.45179 0.93045 0.0
C1582 C 0.94788 0.44654 0.90595 0.0
C1583 C 0.95194 0.43636 0.84593 0.0
H1584 H 0.90261 0.46501 0.76606 0.0
H1585 H 0.91332 0.46393 0.80494 0.0
H1586 H 0.94645 0.42871 0.81061 0.0
H1587 H 0.00198 0.45403 0.91293 0.0
H1588 H -0.01284 0.44967 0.87487 0.0
H1589 H 0.94728 0.47408 0.87236 0.0
C1590 C 0.9214 0.46176 0.79105 0.0
C1591 C 0.94679 0.43891 0.82383 0.0
C1592 C 0.91526 0.46241 0.76877 0.0
C1593 C -0.01338 0.4513 0.91124 0.0
C1594 C 0.97819 0.4489 0.88952 0.0
C1595 C 0.94692 0.46398 0.85898 0.0
C1596 C 0.9369 0.45712 0.79527 0.0
C1597 C 0.94206 0.45432 0.81892 0.0
C1598 C 0.95913 0.44741 0.88667 0.0
C1599 C 0.9521 0.44891 0.86366 0.0
H1600 H 0.94794 0.45164 0.74043 0.0
H1601 H 0.9592 0.4512 0.77925 0.0
H1602 H 0.93873 0.47889 0.83363 0.0
H1603 H 0.94768 0.4491 0.94224 0.0
H1604 H 0.93311 0.4453 0.90412 0.0
C1605 C 0.52776 0.44782 0.76005 0.0
C1606 C 0.53207 0.46233 0.74295 0.0
C1607 C 0.52416 0.45153 0.78227 0.0
C1608 C 0.53103 0.49299 0.82149 0.0
H1609 H 0.49087 0.44785 0.85724 0.0
C1610 C 0.50021 0.50489 0.90476 0.0
C1611 C 0.50527 0.49726 0.92401 0.0
C1612 C 0.50179 0.49854 0.88301 0.0
C1613 C 0.50221 0.46048 0.84744 0.0
H1614 H 0.53631 0.49224 0.73556 0.0
H1615 H 0.52932 0.49865 0.77453 0.0
H1616 H 0.49709 0.44194 0.81789 0.0
H1617 H 0.51417 0.47561 0.93565 0.0
H1618 H 0.51638 0.46398 0.89712 0.0
H1619 H 0.53544 0.51159 0.85092 0.0
C1620 C 0.52908 0.48448 0.77082 0.0
C1621 C 0.50586 0.45717 0.82496 0.0
C1622 C 0.53298 0.48084 0.74851 0.0
C1623 C 0.51021 0.48176 0.92113 0.0
C1624 C 0.51155 0.47518 0.89918 0.0
C1625 C 0.52711 0.49632 0.8438 0.0
C1626 C 0.52454 0.46979 0.78795 0.0
C1627 C 0.52036 0.47339 0.81171 0.0
C1628 C 0.50812 0.48418 0.88002 0.0
C1629 C 0.51267 0.48011 0.85689 0.0
H1630 H 0.5274 0.43359 0.75627 0.0
H1631 H 0.5213 0.44012 0.79504 0.0
H1632 H 0.54257 0.50573 0.81203 0.0
H1633 H 0.49608 0.51666 0.90638 0.0
H1634 H 0.4988 0.50543 0.86843 0.0
C1635 C 0.51762 0.07918 0.7642 0.0
C1636 C 0.52264 0.06855 0.74824 0.0
C1637 C 0.51132 0.07142 0.78602 0.0
C1638 C 0.51065 0.03349 0.82672 0.0
H1639 H 0.46991 0.0417 0.85704 0.0
C1640 C 0.47683 -0.00638 0.91008 0.0
C1641 C 0.47859 0.00658 0.92818 0.0
C1642 C 0.47886 0.00027 0.88768 0.0
C1643 C 0.48133 0.03937 0.84877 0.0
H1644 H 0.52509 0.04158 0.74236 0.0
H1645 H 0.51334 0.02747 0.78029 0.0
H1646 H 0.48084 0.05498 0.81867 0.0
H1647 H 0.48237 0.03608 0.93722 0.0
H1648 H 0.48587 0.04788 0.89763 0.0
H1649 H 0.51087 0.01761 0.85665 0.0
C1650 C 0.51475 0.04209 0.77624 0.0
C1651 C 0.48771 0.04705 0.82684 0.0
C1652 C 0.5214 0.05007 0.75448 0.0
C1653 C 0.48067 0.02573 0.92347 0.0
C1654 C 0.4828 0.03249 0.90087 0.0
C1655 C 0.5041 0.02562 0.84844 0.0
C1656 C 0.50957 0.05265 0.79231 0.0
C1657 C 0.5025 0.04425 0.81553 0.0
C1658 C 0.48287 0.02012 0.88291 0.0
C1659 C 0.48936 0.02843 0.85969 0.0
H1660 H 0.51872 0.09361 0.75979 0.0
H1661 H 0.50799 0.08026 0.79801 0.0
H1662 H 0.52239 0.03142 0.81889 0.0
H1663 H 0.47524 0.97878 0.91337 0.0
H1664 H 0.47843 -0.00972 0.87414 0.0
C1665 C 0.1369 0.27599 0.59573 0.0
C1666 C 0.12052 0.25662 0.60058 0.0
C1667 C 0.1405 0.28317 0.57331 0.0
C1668 C 0.1152 0.27209 0.51608 0.0
H1669 H 0.16982 0.30845 0.49484 0.0
C1670 C 0.13271 0.29236 0.4217 0.0
C1671 C 0.13837 0.31287 0.41829 0.0
C1672 C 0.13368 0.28553 0.44354 0.0
C1673 C 0.15454 0.29819 0.50062 0.0
H1674 H 0.09552 0.22922 0.58622 0.0
H1675 H 0.10222 0.24109 0.54711 0.0
H1676 H 0.1645 0.29632 0.53419 0.0
H1677 H 0.1507 0.34262 0.43419 0.0
H1678 H 0.15332 0.33082 0.47225 0.0
H1679 H 0.10541 0.27357 0.48226 0.0
C1680 C 0.11185 0.2513 0.56041 0.0
C1681 C 0.1514 0.29141 0.5232 0.0
C1682 C 0.10802 0.24438 0.5828 0.0
C1683 C 0.14646 0.32676 0.43651 0.0
C1684 C 0.14795 0.32004 0.45819 0.0
C1685 C 0.11839 0.27846 0.49347 0.0
C1686 C 0.12803 0.27088 0.55529 0.0
C1687 C 0.13165 0.27828 0.53128 0.0
C1688 C 0.1408 0.29925 0.46202 0.0
C1689 C 0.13804 0.29158 0.48557 0.0
H1690 H 0.14677 0.28559 0.6093 0.0
H1691 H 0.15292 0.29841 0.57019 0.0
H1692 H 0.09972 0.26254 0.52165 0.0
H1693 H 0.12615 0.28138 0.4079 0.0
H1694 H 0.128 0.2694 0.44621 0.0
C1695 C 0.70772 0.84548 0.59527 0.0
C1696 C 0.72828 0.85925 0.59935 0.0
C1697 C 0.70003 0.84209 0.57303 0.0
C1698 C 0.71227 0.86458 0.51493 0.0
H1699 H 0.67168 0.80991 0.49646 0.0
C1700 C 0.68838 0.83618 0.42128 0.0
C1701 C 0.66756 0.8228 0.41778 0.0
C1702 C 0.69583 0.84328 0.44328 0.0
C1703 C 0.68288 0.82531 0.50145 0.0
H1704 H 0.7571 0.88003 0.58404 0.0
H1705 H 0.74397 0.87368 0.54512 0.0
H1706 H 0.68446 0.81613 0.53538 0.0
H1707 H 0.63802 0.80805 0.43388 0.0
H1708 H 0.65097 0.82051 0.47197 0.0
H1709 H 0.71099 0.87349 0.48057 0.0
C1710 C 0.73355 0.86591 0.5589 0.0
C1711 C 0.69015 0.82889 0.52379 0.0
C1712 C 0.74113 0.86944 0.5811 0.0
C1713 C 0.65419 0.81811 0.43616 0.0
C1714 C 0.66158 0.82514 0.45798 0.0
C1715 C 0.70513 0.86092 0.49247 0.0
C1716 C 0.71288 0.85228 0.55457 0.0
C1717 C 0.70492 0.84858 0.53084 0.0
C1718 C 0.68251 0.83706 0.46191 0.0
C1719 C 0.69029 0.84128 0.48558 0.0
H1720 H 0.69762 0.83756 0.60927 0.0
H1721 H 0.68399 0.83169 0.57036 0.0
H1722 H 0.72342 0.87999 0.51986 0.0
H1723 H 0.699 0.83997 0.40741 0.0
H1724 H 0.71206 0.85253 0.44592 0.0
C1725 C 0.11018 0.85433 0.57418 0.0
C1726 C 0.12304 0.85755 0.59286 0.0
C1727 C 0.11695 0.85461 0.55199 0.0
C1728 C 0.16533 0.876 0.52051 0.0
H1729 H 0.13105 0.84372 0.47025 0.0
C1730 C 0.19449 0.86776 0.43254 0.0
C1731 C 0.18337 0.86734 0.41319 0.0
C1732 C 0.18793 0.86919 0.4543 0.0
C1733 C 0.14071 0.85304 0.4841 0.0
H1734 H 0.15228 0.86181 0.60325 0.0
H1735 H 0.16387 0.8616 0.56465 0.0
H1736 H 0.11712 0.83806 0.50866 0.0
H1737 H 0.15729 0.86926 0.40136 0.0
H1738 H 0.14574 0.87161 0.43948 0.0
H1739 H 0.18905 0.89057 0.49596 0.0
C1740 C 0.14886 0.8596 0.56697 0.0
C1741 C 0.13276 0.84977 0.50611 0.0
C1742 C 0.14216 0.85949 0.58908 0.0
C1743 C 0.16635 0.86984 0.41594 0.0
C1744 C 0.15956 0.87088 0.43775 0.0
C1745 C 0.17332 0.87912 0.49856 0.0
C1746 C 0.13667 0.85798 0.54811 0.0
C1747 C 0.14501 0.86113 0.52463 0.0
C1748 C 0.16992 0.86987 0.45713 0.0
C1749 C 0.16111 0.86765 0.48015 0.0
H1750 H 0.09544 0.85299 0.57665 0.0
H1751 H 0.10716 0.85336 0.53791 0.0
H1752 H 0.17509 0.88542 0.53423 0.0
H1753 H 0.20754 0.86566 0.43088 0.0
H1754 H 0.19619 0.86834 0.46894 0.0
C1755 C 0.60335 0.7884 0.08784 0.0
C1756 C 0.58741 0.79252 0.08473 0.0
C1757 C 0.61067 0.78838 0.10964 0.0
C1758 C 0.60879 0.80201 0.17024 0.0
H1759 H 0.62031 0.75814 0.18148 0.0
C1760 C 0.62154 0.78163 0.26056 0.0
C1761 C 0.64091 0.78379 0.26332 0.0
C1762 C 0.61357 0.78039 0.23876 0.0
C1763 C 0.61711 0.77042 0.17853 0.0
H1764 H 0.56727 0.80083 0.10162 0.0
H1765 H 0.57974 0.80045 0.13985 0.0
H1766 H 0.61078 0.76295 0.14326 0.0
H1767 H 0.66629 0.78453 0.24578 0.0
H1768 H 0.65192 0.78146 0.20767 0.0
H1769 H 0.61472 0.80909 0.20577 0.0
C1770 C 0.58686 0.79754 0.1255 0.0
C1771 C 0.61187 0.77336 0.15662 0.0
C1772 C 0.57971 0.7978 0.10362 0.0
C1773 C 0.65129 0.78276 0.24408 0.0
C1774 C 0.64311 0.78108 0.22232 0.0
C1775 C 0.61373 0.79886 0.19222 0.0
C1776 C 0.60199 0.79217 0.12882 0.0
C1777 C 0.6078 0.7893 0.15215 0.0
C1778 C 0.62463 0.78082 0.21947 0.0
C1779 C 0.61802 0.7831 0.19651 0.0
H1780 H 0.60961 0.78444 0.07344 0.0
H1781 H 0.62274 0.78479 0.11148 0.0
H1782 H 0.60604 0.81459 0.1674 0.0
H1783 H 0.61331 0.78263 0.27506 0.0
H1784 H 0.5992 0.78003 0.23693 0.0
C1785 C 0.19802 0.81355 0.08146 0.0
C1786 C 0.19912 0.79597 0.07658 0.0
C1787 C 0.19334 0.81692 0.10352 0.0
C1788 C 0.17186 0.78994 0.15841 0.0
H1789 H 0.19752 0.84509 0.18243 0.0
C1790 C 0.1767 0.81544 0.25383 0.0
C1791 C 0.17377 0.83223 0.25702 0.0
C1792 C 0.17617 0.80799 0.23179 0.0
C1793 C 0.19011 0.82961 0.17585 0.0
H1794 H 0.19701 0.76851 0.09066 0.0
H1795 H 0.18972 0.77472 0.12917 0.0
H1796 H 0.20513 0.83925 0.14391 0.0
H1797 H 0.16578 0.8529 0.24053 0.0
H1798 H 0.16452 0.83971 0.20229 0.0
H1799 H 0.15747 0.78042 0.191 0.0
C1800 C 0.19163 0.78556 0.11606 0.0
C1801 C 0.19438 0.82626 0.15372 0.0
C1802 C 0.19598 0.78209 0.09406 0.0
C1803 C 0.16827 0.84005 0.23838 0.0
C1804 C 0.16765 0.83261 0.21655 0.0
C1805 C 0.16782 0.79329 0.18075 0.0
C1806 C 0.19003 0.80291 0.12108 0.0
C1807 C 0.18525 0.80641 0.14463 0.0
C1808 C 0.17264 0.81728 0.21293 0.0
C1809 C 0.17678 0.81319 0.18953 0.0
H1810 H 0.20031 0.82438 0.06815 0.0
H1811 H 0.192 0.83033 0.10669 0.0
H1812 H 0.16431 0.77445 0.15189 0.0
H1813 H 0.1811 0.80931 0.268 0.0
H1814 H 0.18003 0.79611 0.22934 0.0
C1815 C 0.19948 0.41118 0.10106 0.0
C1816 C 0.19039 0.39905 0.08169 0.0
C1817 C 0.192 0.40373 0.12272 0.0
C1818 C 0.16386 0.35732 0.15573 0.0
H1819 H 0.15108 0.39054 0.19539 0.0
C1820 C 0.13138 0.32775 0.24364 0.0
C1821 C 0.14042 0.34177 0.26155 0.0
C1822 C 0.13359 0.33451 0.22119 0.0
C1823 C 0.15469 0.38112 0.18462 0.0
H1824 H 0.16689 0.3696 0.0695 0.0
H1825 H 0.15423 0.35614 0.10763 0.0
H1826 H 0.16452 0.40275 0.15738 0.0
H1827 H 0.15789 0.37375 0.2705 0.0
H1828 H 0.16214 0.38573 0.23131 0.0
H1829 H 0.15499 0.33609 0.18304 0.0
C1830 C 0.16695 0.37148 0.10601 0.0
C1831 C 0.16238 0.38813 0.16287 0.0
C1832 C 0.17417 0.37911 0.08429 0.0
C1833 C 0.15037 0.36272 0.25693 0.0
C1834 C 0.15289 0.36952 0.23441 0.0
C1835 C 0.15645 0.35044 0.17756 0.0
C1836 C 0.17553 0.38389 0.12538 0.0
C1837 C 0.1671 0.37632 0.14828 0.0
C1838 C 0.14538 0.35543 0.21619 0.0
C1839 C 0.15179 0.36225 0.19235 0.0
H1840 H 0.21187 0.4267 0.09935 0.0
H1841 H 0.19899 0.41351 0.1374 0.0
H1842 H 0.1676 0.34804 0.14489 0.0
H1843 H 0.1239 0.31149 0.24687 0.0
H1844 H 0.12708 0.32325 0.20768 0.0
C1845 C 0.77388 0.5787 0.91624 0.0
C1846 C 0.78751 0.58995 0.93377 0.0
C1847 C 0.77753 0.58585 0.89395 0.0
C1848 C 0.81756 0.62413 0.85582 0.0
H1849 H 0.77071 0.61202 0.81831 0.0
C1850 C 0.81232 0.66331 0.77183 0.0
C1851 C 0.8038 0.64983 0.75332 0.0
C1852 C 0.81364 0.65598 0.79321 0.0
C1853 C 0.78389 0.61532 0.82857 0.0
H1854 H 0.8157 0.61733 0.94195 0.0
H1855 H 0.8217 0.63055 0.90304 0.0
H1856 H 0.76581 0.60013 0.8574 0.0
H1857 H 0.79047 0.61839 0.74217 0.0
H1858 H 0.79192 0.60537 0.78 0.0
H1859 H 0.83552 0.64045 0.82688 0.0
C1860 C 0.80844 0.61589 0.90632 0.0
C1861 C 0.78114 0.60843 0.85096 0.0
C1862 C 0.80497 0.60847 0.92864 0.0
C1863 C 0.79736 0.62905 0.75619 0.0
C1864 C 0.79812 0.62164 0.77773 0.0
C1865 C 0.82029 0.63143 0.83347 0.0
C1866 C 0.7947 0.60468 0.88866 0.0
C1867 C 0.7979 0.61255 0.86489 0.0
C1868 C 0.80591 0.63501 0.79644 0.0
C1869 C 0.80344 0.62689 0.8197 0.0
H1870 H 0.76051 0.56415 0.91975 0.0
H1871 H 0.76689 0.57643 0.88085 0.0
H1872 H 0.83083 0.62741 0.86584 0.0
H1873 H 0.81727 0.67937 0.76993 0.0
H1874 H 0.81954 0.66648 0.80751 0.0
C1875 C 0.37934 0.19488 0.92658 0.0
C1876 C 0.39813 0.19607 0.93065 0.0
C1877 C 0.37141 0.19179 0.90447 0.0
C1878 C 0.38691 0.19979 0.84495 0.0
H1879 H 0.33238 0.15622 0.83156 0.0
C1880 C 0.35853 0.17043 0.75369 0.0
C1881 C 0.33771 0.16163 0.7491 0.0
C1882 C 0.36603 0.17761 0.77561 0.0
C1883 C 0.34749 0.16877 0.835 0.0
H1884 H 0.42343 0.1951 0.915 0.0
H1885 H 0.40969 0.18991 0.87636 0.0
H1886 H 0.34472 0.16231 0.87072 0.0
H1887 H 0.30869 0.15504 0.76291 0.0
H1888 H 0.32186 0.1685 0.80071 0.0
H1889 H 0.38975 0.20644 0.80935 0.0
C1890 C 0.40108 0.1913 0.89023 0.0
C1891 C 0.35456 0.17214 0.85746 0.0
C1892 C 0.40883 0.19408 0.91232 0.0
C1893 C 0.32482 0.16167 0.76612 0.0
C1894 C 0.33233 0.16914 0.78785 0.0
C1895 C 0.37977 0.19662 0.82252 0.0
C1896 C 0.38237 0.19023 0.88609 0.0
C1897 C 0.37441 0.18749 0.86257 0.0
C1898 C 0.35286 0.17636 0.79316 0.0
C1899 C 0.36005 0.1809 0.8172 0.0
H1900 H 0.37079 0.19631 0.9405 0.0
H1901 H 0.35694 0.191 0.90167 0.0
H1902 H 0.40223 0.21189 0.84855 0.0
H1903 H 0.36872 0.17034 0.74089 0.0
H1904 H 0.3819 0.18294 0.77907 0.0
C1905 C 0.78125 0.18843 0.90905 0.0
C1906 C 0.79431 0.1924 0.92773 0.0
C1907 C 0.78807 0.18889 0.88689 0.0
C1908 C 0.8361 0.21075 0.85443 0.0
H1909 H 0.80093 0.17654 0.80571 0.0
C1910 C 0.86232 0.19923 0.7658 0.0
C1911 C 0.85082 0.19891 0.74687 0.0
C1912 C 0.85663 0.20139 0.78777 0.0
C1913 C 0.81083 0.18637 0.81913 0.0
H1914 H 0.82424 0.19856 0.93806 0.0
H1915 H 0.83599 0.19866 0.89943 0.0
H1916 H 0.788 0.17169 0.84447 0.0
H1917 H 0.82501 0.20171 0.73591 0.0
H1918 H 0.81488 0.20513 0.77442 0.0
H1919 H 0.85913 0.22486 0.829 0.0
C1920 C 0.82069 0.19589 0.90178 0.0
C1921 C 0.80344 0.18359 0.84135 0.0
C1922 C 0.81393 0.19563 0.92392 0.0
C1923 C 0.83432 0.20216 0.75017 0.0
C1924 C 0.82837 0.20387 0.77219 0.0
C1925 C 0.84355 0.21331 0.83225 0.0
C1926 C 0.80806 0.19316 0.88294 0.0
C1927 C 0.81599 0.19573 0.85931 0.0
C1928 C 0.8391 0.20284 0.79118 0.0
C1929 C 0.83098 0.20116 0.81442 0.0
H1930 H 0.76614 0.18618 0.91145 0.0
H1931 H 0.77795 0.18689 0.87286 0.0
H1932 H 0.84607 0.22072 0.86769 0.0
H1933 H 0.87501 0.19662 0.76369 0.0
H1934 H 0.86513 0.20051 0.80215 0.0
C1935 C 0.2453 0.12977 0.43639 0.0
C1936 C 0.25437 0.12591 0.41768 0.0
C1937 C 0.25194 0.12942 0.45852 0.0
C1938 C 0.27803 0.10686 0.49022 0.0
H1939 H 0.27824 0.14106 0.53969 0.0
C1940 C 0.31625 0.11531 0.57785 0.0
C1941 C 0.30619 0.11678 0.59716 0.0
C1942 C 0.30801 0.1137 0.55615 0.0
C1943 C 0.27795 0.13121 0.52607 0.0
H1944 H 0.27845 0.12029 0.40715 0.0
H1945 H 0.29049 0.12027 0.44571 0.0
H1946 H 0.2698 0.14656 0.50118 0.0
H1947 H 0.27901 0.1164 0.60907 0.0
H1948 H 0.26467 0.1137 0.57104 0.0
H1949 H 0.28674 0.09193 0.5151 0.0
C1950 C 0.27781 0.12288 0.44343 0.0
C1951 C 0.27318 0.13439 0.50401 0.0
C1952 C 0.27106 0.12307 0.42135 0.0
C1953 C 0.287 0.11505 0.59451 0.0
C1954 C 0.27892 0.1138 0.57276 0.0
C1955 C 0.28298 0.10383 0.51222 0.0
C1956 C 0.26787 0.12532 0.46231 0.0
C1957 C 0.27325 0.12231 0.48579 0.0
C1958 C 0.28971 0.11383 0.55337 0.0
C1959 C 0.28302 0.11599 0.53034 0.0
H1960 H 0.23227 0.13181 0.43403 0.0
H1961 H 0.24387 0.13128 0.47264 0.0
H1962 H 0.27775 0.09693 0.47671 0.0
H1963 H 0.33113 0.11676 0.57944 0.0
H1964 H 0.31666 0.11379 0.54149 0.0
C1965 C 0.85953 0.11318 0.42726 0.0
C1966 C 0.86604 0.12814 0.41025 0.0
C1967 C 0.85572 0.11732 0.44918 0.0
C1968 C 0.86682 0.15961 0.48871 0.0
H1969 H 0.8213 0.1174 0.5221 0.0
C1970 C 0.83786 0.17672 0.5698 0.0
C1971 C 0.84086 0.16784 0.58936 0.0
C1972 C 0.83864 0.16949 0.54828 0.0
C1973 C 0.83413 0.12918 0.51297 0.0
H1974 H 0.87411 0.15935 0.40294 0.0
H1975 H 0.86719 0.16668 0.44155 0.0
H1976 H 0.82755 0.11078 0.483 0.0
H1977 H 0.84504 0.1432 0.60188 0.0
H1978 H 0.84595 0.13013 0.56367 0.0
H1979 H 0.87287 0.17819 0.51853 0.0
C1980 C 0.86516 0.15172 0.43783 0.0
C1981 C 0.83777 0.12546 0.49065 0.0
C1982 C 0.86908 0.14756 0.41575 0.0
C1983 C 0.84269 0.1503 0.58707 0.0
C1984 C 0.8433 0.14291 0.56531 0.0
C1985 C 0.863 0.16339 0.51087 0.0
C1986 C 0.85833 0.13655 0.45475 0.0
C1987 C 0.85417 0.14066 0.47826 0.0
C1988 C 0.84215 0.15308 0.54587 0.0
C1989 C 0.84661 0.14824 0.52308 0.0
H1990 H 0.85756 0.09822 0.42366 0.0
H1991 H 0.85102 0.10547 0.46187 0.0
H1992 H 0.8798 0.17148 0.47988 0.0
H1993 H 0.83611 0.19008 0.57105 0.0
H1994 H 0.83743 0.17732 0.53345 0.0
C1995 C 0.86548 0.74894 0.43734 0.0
C1996 C 0.85873 0.73535 0.41882 0.0
C1997 C 0.85885 0.74184 0.45935 0.0
C1998 C 0.83511 0.69505 0.49427 0.0
H1999 H 0.81812 0.72592 0.53231 0.0
C2000 C 0.79132 0.66068 0.57597 0.0
C2001 C 0.7991 0.67272 0.59572 0.0
C2002 C 0.79737 0.66932 0.55447 0.0
C2003 C 0.82294 0.71723 0.52194 0.0
H2004 H 0.84019 0.70387 0.40834 0.0
H2005 H 0.82864 0.69124 0.44689 0.0
H2006 H 0.83255 0.73887 0.49478 0.0
H2007 H 0.81791 0.70363 0.60835 0.0
H2008 H 0.82838 0.71882 0.57058 0.0
H2009 H 0.82543 0.67338 0.52129 0.0
C2010 C 0.83915 0.70735 0.44457 0.0
C2011 C 0.83127 0.72466 0.50049 0.0
C2012 C 0.84569 0.71451 0.42254 0.0
C2013 C 0.8116 0.69395 0.59345 0.0
C2014 C 0.81768 0.70264 0.57182 0.0
C2015 C 0.82674 0.68761 0.51563 0.0
C2016 C 0.84539 0.72099 0.46318 0.0
C2017 C 0.83732 0.71357 0.48635 0.0
C2018 C 0.81133 0.69022 0.55219 0.0
C2019 C 0.82036 0.6985 0.52961 0.0
H2020 H 0.87542 0.76513 0.43468 0.0
H2021 H 0.86414 0.75269 0.47333 0.0
H2022 H 0.83997 0.68633 0.48401 0.0
H2023 H 0.78151 0.6443 0.57715 0.0
H2024 H 0.7918 0.65946 0.53963 0.0
loop_
_geom_bond_atom_site_label_1
_geom_bond_atom_site_label_2
_geom_bond_distance
_geom_bond_site_symmetry_2
_ccdc_geom_bond_type
H0 C5 0.930 . S
H1 C8 0.930 . S
H2 C10 0.930 . S
H3 C4 1.016 . S
C4 H3 1.016 . S
C4 N11 1.286 . S
C5 H0 0.930 . S
C5 C6 1.397 . S
C5 C7 1.361 . S
C6 C5 1.397 . S
C6 C10 1.390 . S
C7 C5 1.361 . S
C7 C8 1.393 . S
C7 N11 1.413 . S
C8 H1 0.930 . S
C8 C7 1.393 . S
C8 C9 1.399 . S
C9 C8 1.399 . S
C9 C10 1.381 . S
C10 H2 0.930 . S
C10 C6 1.390 . S
C10 C9 1.381 . S
N11 C4 1.286 . S
N11 C7 1.413 . S
H12 C17 0.930 . S
H13 C20 0.930 . S
H14 C22 0.930 . S
H15 C16 1.016 . S
C16 H15 1.016 . S
C16 N23 1.286 . S
C17 H12 0.930 . S
C17 C18 1.397 . S
C17 C19 1.361 . S
C18 C17 1.397 . S
C18 C22 1.390 . S
C19 C17 1.361 . S
C19 C20 1.393 . S
C19 N23 1.413 . S
C20 H13 0.930 . S
C20 C19 1.393 . S
C20 C21 1.399 . S
C21 C20 1.399 . S
C21 C22 1.381 . S
C22 H14 0.930 . S
C22 C18 1.390 . S
C22 C21 1.381 . S
N23 C16 1.286 . S
N23 C19 1.413 . S
H24 C29 0.930 . S
H25 C32 0.930 . S
H26 C34 0.930 . S
H27 C28 1.016 . S
C28 H27 1.016 . S
C28 N35 1.286 . S
C29 H24 0.930 . S
C29 C30 1.397 . S
C29 C31 1.361 . S
C30 C29 1.397 . S
C30 C34 1.390 . S
C31 C29 1.361 . S
C31 C32 1.393 . S
C31 N35 1.413 . S
C32 H25 0.930 . S
C32 C31 1.393 . S
C32 C33 1.399 . S
C33 C32 1.399 . S
C33 C34 1.381 . S
C34 H26 0.930 . S
C34 C30 1.390 . S
C34 C33 1.381 . S
N35 C28 1.286 . S
N35 C31 1.413 . S
H36 C41 0.930 . S
H37 C44 0.930 . S
H38 C46 0.930 . S
H39 C40 1.016 . S
C40 H39 1.016 . S
C40 N47 1.286 . S
C41 H36 0.930 . S
C41 C42 1.397 . S
C41 C43 1.361 . S
C42 C41 1.397 . S
C42 C46 1.390 . S
C43 C41 1.361 . S
C43 C44 1.393 . S
C43 N47 1.413 . S
C44 H37 0.930 . S
C44 C43 1.393 . S
C44 C45 1.399 . S
C45 C44 1.399 . S
C45 C46 1.381 . S
C46 H38 0.930 . S
C46 C42 1.390 . S
C46 C45 1.381 . S
N47 C40 1.286 . S
N47 C43 1.413 . S
H48 C53 0.930 . S
H49 C56 0.930 . S
H50 C58 0.930 . S
H51 C52 1.016 . S
C52 H51 1.016 . S
C52 N59 1.286 . S
C53 H48 0.930 . S
C53 C54 1.397 . S
C53 C55 1.361 . S
C54 C53 1.397 . S
C54 C58 1.390 . S
C55 C53 1.361 . S
C55 C56 1.393 . S
C55 N59 1.413 . S
C56 H49 0.930 . S
C56 C55 1.393 . S
C56 C57 1.399 . S
C57 C56 1.399 . S
C57 C58 1.381 . S
C58 H50 0.930 . S
C58 C54 1.390 . S
C58 C57 1.381 . S
N59 C52 1.286 . S
N59 C55 1.413 . S
H60 C65 0.930 . S
H61 C68 0.930 . S
H62 C70 0.930 . S
H63 C64 1.016 . S
C64 H63 1.016 . S
C64 N71 1.286 . S
C65 H60 0.930 . S
C65 C66 1.397 . S
C65 C67 1.361 . S
C66 C65 1.397 . S
C66 C70 1.390 . S
C67 C65 1.361 . S
C67 C68 1.393 . S
C67 N71 1.413 . S
C68 H61 0.930 . S
C68 C67 1.393 . S
C68 C69 1.399 . S
C69 C68 1.399 . S
C69 C70 1.381 . S
C70 H62 0.930 . S
C70 C66 1.390 . S
C70 C69 1.381 . S
N71 C64 1.286 . S
N71 C67 1.413 . S
H72 C77 0.930 . S
H73 C80 0.930 . S
H74 C82 0.930 . S
H75 C76 1.016 . S
C76 H75 1.016 . S
C76 N83 1.286 . S
C77 H72 0.930 . S
C77 C78 1.397 . S
C77 C79 1.361 . S
C78 C77 1.397 . S
C78 C82 1.390 . S
C79 C77 1.361 . S
C79 C80 1.393 . S
C79 N83 1.413 . S
C80 H73 0.930 . S
C80 C79 1.393 . S
C80 C81 1.399 . S
C81 C80 1.399 . S
C81 C82 1.381 . S
C82 H74 0.930 . S
C82 C78 1.390 . S
C82 C81 1.381 . S
N83 C76 1.286 . S
N83 C79 1.413 . S
H84 C89 0.930 . S
H85 C92 0.930 . S
H86 C94 0.930 . S
H87 C88 1.016 . S
C88 H87 1.016 . S
C88 N95 1.286 . S
C89 H84 0.930 . S
C89 C90 1.397 . S
C89 C91 1.361 . S
C90 C89 1.397 . S
C90 C94 1.390 . S
C91 C89 1.361 . S
C91 C92 1.393 . S
C91 N95 1.413 . S
C92 H85 0.930 . S
C92 C91 1.393 . S
C92 C93 1.399 . S
C93 C92 1.399 . S
C93 C94 1.381 . S
C94 H86 0.930 . S
C94 C90 1.390 . S
C94 C93 1.381 . S
N95 C88 1.286 . S
N95 C91 1.413 . S
H96 C101 0.930 . S
H97 C104 0.930 . S
H98 C106 0.930 . S
H99 C100 1.016 . S
C100 H99 1.016 . S
C100 N107 1.286 . S
C101 H96 0.930 . S
C101 C102 1.397 . S
C101 C103 1.361 . S
C102 C101 1.397 . S
C102 C106 1.390 . S
C103 C101 1.361 . S
C103 C104 1.393 . S
C103 N107 1.413 . S
C104 H97 0.930 . S
C104 C103 1.393 . S
C104 C105 1.399 . S
C105 C104 1.399 . S
C105 C106 1.381 . S
C106 H98 0.930 . S
C106 C102 1.390 . S
C106 C105 1.381 . S
N107 C100 1.286 . S
N107 C103 1.413 . S
H108 C113 0.930 . S
H109 C116 0.930 . S
H110 C118 0.930 . S
H111 C112 1.041 . S
C112 H111 1.041 . S
C112 N119 1.274 1_556 S
C113 H108 0.930 . S
C113 C114 1.397 1_554 S
C113 C115 1.361 1_554 S
C114 C113 1.397 1_556 S
C114 C118 1.390 . S
C115 C113 1.361 1_556 S
C115 C116 1.393 . S
C115 N119 1.413 1_556 S
C116 H109 0.930 . S
C116 C115 1.393 . S
C116 C117 1.399 . S
C117 C116 1.399 . S
C117 C118 1.381 . S
C118 H110 0.930 . S
C118 C114 1.390 . S
C118 C117 1.381 . S
N119 C112 1.274 1_554 S
N119 C115 1.413 1_554 S
H120 C125 0.930 . S
H121 C128 0.930 . S
H122 C130 0.930 . S
H123 C124 1.016 1_556 S
C124 H123 1.016 1_554 S
C124 N131 1.286 . S
C125 H120 0.930 . S
C125 C126 1.397 1_554 S
C125 C127 1.350 1_554 S
C126 C125 1.397 1_556 S
C126 C130 1.390 . S
C127 C125 1.350 1_556 S
C127 C128 1.419 . S
C127 N131 1.397 1_556 S
C128 H121 0.930 . S
C128 C127 1.419 . S
C128 C129 1.399 . S
C129 C128 1.399 . S
C129 C130 1.381 . S
C130 H122 0.930 . S
C130 C126 1.390 . S
C130 C129 1.381 . S
N131 C124 1.286 . S
N131 C127 1.397 1_554 S
H132 C137 0.930 . S
H133 C140 0.930 . S
H134 C142 0.930 . S
H135 C136 1.016 . S
C136 H135 1.016 . S
C136 N143 1.286 1_556 S
C137 H132 0.930 . S
C137 C138 1.397 1_554 S
C137 C139 1.361 1_554 S
C138 C137 1.397 1_556 S
C138 C142 1.390 . S
C139 C137 1.361 1_556 S
C139 C140 1.393 . S
C139 N143 1.413 1_556 S
C140 H133 0.930 . S
C140 C139 1.393 . S
C140 C141 1.399 . S
C141 C140 1.399 . S
C141 C142 1.381 . S
C142 H134 0.930 . S
C142 C138 1.390 . S
C142 C141 1.381 . S
N143 C136 1.286 1_554 S
N143 C139 1.413 1_554 S
H144 C149 0.930 . S
H145 C152 0.930 . S
H146 C154 0.930 . S
H147 C148 1.016 . S
C148 H147 1.016 . S
C148 N155 1.286 . S
C149 H144 0.930 . S
C149 C150 1.397 . S
C149 C151 1.361 . S
C150 C149 1.397 . S
C150 C154 1.390 . S
C151 C149 1.361 . S
C151 C152 1.393 . S
C151 N155 1.413 . S
C152 H145 0.930 . S
C152 C151 1.393 . S
C152 C153 1.399 . S
C153 C152 1.399 . S
C153 C154 1.381 . S
C154 H146 0.930 . S
C154 C150 1.390 . S
C154 C153 1.381 . S
N155 C148 1.286 . S
N155 C151 1.413 . S
H156 C161 0.933 . S
H157 C164 0.930 . S
H158 C166 0.930 . S
H159 C160 1.016 . S
C160 H159 1.016 . S
C160 N167 1.286 . S
C161 H156 0.933 . S
C161 C162 1.397 . S
C161 C163 1.361 . S
C162 C161 1.397 . S
C162 C166 1.390 . S
C163 C161 1.361 . S
C163 C164 1.393 . S
C163 N167 1.413 . S
C164 H157 0.930 . S
C164 C163 1.393 . S
C164 C165 1.399 . S
C165 C164 1.399 . S
C165 C166 1.381 . S
C166 H158 0.930 . S
C166 C162 1.390 . S
C166 C165 1.381 . S
N167 C160 1.286 . S
N167 C163 1.413 . S
H168 C173 0.930 . S
H169 C176 0.930 . S
H170 C178 0.930 . S
H171 C172 1.016 . S
C172 H171 1.016 . S
C172 N179 1.286 . S
C173 H168 0.930 . S
C173 C174 1.397 . S
C173 C175 1.361 . S
C174 C173 1.397 . S
C174 C178 1.390 . S
C175 C173 1.361 . S
C175 C176 1.393 . S
C175 N179 1.413 . S
C176 H169 0.930 . S
C176 C175 1.393 . S
C176 C177 1.399 . S
C177 C176 1.399 . S
C177 C178 1.381 . S
C178 H170 0.930 . S
C178 C174 1.390 . S
C178 C177 1.381 . S
N179 C172 1.286 . S
N179 C175 1.413 . S
H180 C185 0.930 . S
H181 C188 0.930 . S
H182 C190 0.930 . S
H183 C184 1.016 . S
C184 H183 1.016 . S
C184 N191 1.286 . S
C185 H180 0.930 . S
C185 C186 1.397 . S
C185 C187 1.361 . S
C186 C185 1.397 . S
C186 C190 1.390 . S
C187 C185 1.361 . S
C187 C188 1.393 . S
C187 N191 1.413 . S
C188 H181 0.930 . S
C188 C187 1.393 . S
C188 C189 1.399 . S
C189 C188 1.399 . S
C189 C190 1.381 . S
C190 H182 0.930 . S
C190 C186 1.390 . S
C190 C189 1.381 . S
N191 C184 1.286 . S
N191 C187 1.413 . S
H192 C197 0.930 . S
H193 C200 0.930 . S
H194 C202 0.930 . S
H195 C196 1.016 . S
C196 H195 1.016 . S
C196 N203 1.286 . S
C197 H192 0.930 . S
C197 C198 1.397 . S
C197 C199 1.361 . S
C198 C197 1.397 . S
C198 C202 1.390 . S
C199 C197 1.361 . S
C199 C200 1.393 . S
C199 N203 1.413 . S
C200 H193 0.930 . S
C200 C199 1.393 . S
C200 C201 1.399 . S
C201 C200 1.399 . S
C201 C202 1.381 . S
C202 H194 0.930 . S
C202 C198 1.390 . S
C202 C201 1.381 . S
N203 C196 1.286 . S
N203 C199 1.413 . S
H204 C209 0.930 . S
H205 C212 0.930 . S
H206 C214 0.930 . S
H207 C208 1.016 . S
C208 H207 1.016 . S
C208 N215 1.286 . S
C209 H204 0.930 . S
C209 C210 1.397 . S
C209 C211 1.361 . S
C210 C209 1.397 . S
C210 C214 1.390 . S
C211 C209 1.361 . S
C211 C212 1.393 . S
C211 N215 1.413 . S
C212 H205 0.930 . S
C212 C211 1.393 . S
C212 C213 1.399 . S
C213 C212 1.399 . S
C213 C214 1.381 . S
C214 H206 0.930 . S
C214 C210 1.390 . S
C214 C213 1.381 . S
N215 C208 1.286 . S
N215 C211 1.413 . S
O216 Mg217 1.990 . S
O216 C230 1.253 . S
Mg217 O216 1.990 . S
Mg217 O220 2.180 1_546 S
Mg217 O221 2.117 1_545 S
Mg217 O235 2.030 . S
O218 Mg219 2.072 1_556 S
O218 C230 1.260 . S
Mg219 O218 2.072 1_554 S
Mg219 O220 2.099 1_545 S
Mg219 O222 2.079 . S
Mg219 O223 2.072 1_545 S
Mg219 O225 2.099 . S
Mg219 O236 2.079 . S
O220 Mg217 2.180 1_564 S
O220 Mg219 2.099 1_565 S
O220 C231 1.279 . S
O221 Mg217 2.117 1_565 S
O221 C231 1.250 1_556 S
O222 Mg219 2.079 . S
O222 C232 1.264 1_545 S
O223 Mg219 2.072 1_565 S
O223 C233 1.260 . S
Mg224 O225 2.180 . S
Mg224 O226 2.030 1_545 S
Mg224 O227 1.990 1_545 S
Mg224 O228 2.117 . S
O225 Mg219 2.099 . S
O225 Mg224 2.180 . S
O225 C234 1.279 . S
O226 Mg224 2.030 1_565 S
O226 C232 1.248 . S
O227 Mg224 1.990 1_565 S
O227 C233 1.253 . S
O228 Mg224 2.117 . S
O228 C234 1.250 . S
C229 O235 1.248 1_554 S
C229 O236 1.264 . S
C230 O216 1.253 . S
C230 O218 1.260 . S
C231 O220 1.279 . S
C231 O221 1.250 1_554 S
C232 O222 1.264 1_565 S
C232 O226 1.248 . S
C233 O223 1.260 . S
C233 O227 1.253 . S
C234 O225 1.279 . S
C234 O228 1.250 . S
O235 Mg217 2.030 . S
O235 C229 1.248 1_556 S
O236 Mg219 2.079 . S
O236 C229 1.264 . S
O237 Mg238 1.990 . S
O237 C251 1.253 1_455 S
Mg238 O237 1.990 . S
Mg238 O241 2.180 1_556 S
Mg238 O242 2.117 . S
Mg238 O256 2.030 1_455 S
O239 Mg240 2.072 1_656 S
O239 C251 1.260 . S
Mg240 O239 2.072 1_454 S
Mg240 O241 2.099 . S
Mg240 O243 2.079 . S
Mg240 O244 2.072 . S
Mg240 O246 2.099 1_455 S
Mg240 O257 2.079 1_455 S
O241 Mg238 2.180 1_554 S
O241 Mg240 2.099 . S
O241 C252 1.279 . S
O242 Mg238 2.117 . S
O242 C252 1.250 1_556 S
O243 Mg240 2.079 . S
O243 C253 1.264 . S
O244 Mg240 2.072 . S
O244 C254 1.260 . S
Mg245 O246 2.180 1_455 S
Mg245 O247 2.030 . S
Mg245 O248 1.990 . S
Mg245 O249 2.117 1_455 S
O246 Mg240 2.099 1_655 S
O246 Mg245 2.180 1_655 S
O246 C255 1.279 . S
O247 Mg245 2.030 . S
O247 C253 1.248 . S
O248 Mg245 1.990 . S
O248 C254 1.253 . S
O249 Mg245 2.117 1_655 S
O249 C255 1.250 . S
C250 O256 1.248 1_554 S
C250 O257 1.264 . S
C251 O237 1.253 1_655 S
C251 O239 1.260 . S
C252 O241 1.279 . S
C252 O242 1.250 1_554 S
C253 O243 1.264 . S
C253 O247 1.248 . S
C254 O244 1.260 . S
C254 O248 1.253 . S
C255 O246 1.279 . S
C255 O249 1.250 . S
O256 Mg238 2.030 1_655 S
O256 C250 1.248 1_556 S
O257 Mg240 2.079 1_655 S
O257 C250 1.264 . S
O258 Mg259 1.990 . S
O258 C272 1.253 . S
Mg259 O258 1.990 . S
Mg259 O262 2.180 . S
Mg259 O263 2.117 . S
Mg259 O277 2.030 . S
O260 Mg261 2.072 . S
O260 C272 1.260 . S
Mg261 O260 2.072 . S
Mg261 O262 2.099 . S
Mg261 O264 2.079 1_554 S
Mg261 O265 2.072 . S
Mg261 O267 2.099 1_554 S
Mg261 O278 2.079 . S
O262 Mg259 2.180 . S
O262 Mg261 2.099 . S
O262 C273 1.279 . S
O263 Mg259 2.117 . S
O263 C273 1.250 . S
O264 Mg261 2.079 1_556 S
O264 C274 1.264 . S
O265 Mg261 2.072 . S
O265 C275 1.260 . S
Mg266 O267 2.180 . S
Mg266 O268 2.030 . S
Mg266 O269 1.990 . S
Mg266 O270 2.117 1_556 S
O267 Mg261 2.099 1_556 S
O267 Mg266 2.180 . S
O267 C276 1.279 1_556 S
O268 Mg266 2.030 . S
O268 C274 1.248 . S
O269 Mg266 1.990 . S
O269 C275 1.253 1_556 S
O270 Mg266 2.117 1_554 S
O270 C276 1.250 . S
C271 O277 1.248 . S
C271 O278 1.264 . S
C272 O258 1.253 . S
C272 O260 1.260 . S
C273 O262 1.279 . S
C273 O263 1.250 . S
C274 O264 1.264 . S
C274 O268 1.248 . S
C275 O265 1.260 . S
C275 O269 1.253 1_554 S
C276 O267 1.279 1_554 S
C276 O270 1.250 . S
O277 Mg259 2.030 . S
O277 C271 1.248 . S
O278 Mg261 2.079 . S
O278 C271 1.264 . S
O279 Mg280 1.990 . S
O279 C293 1.253 . S
Mg280 O279 1.990 . S
Mg280 O283 2.180 . S
Mg280 O284 2.117 . S
Mg280 O298 2.030 . S
O281 Mg282 2.072 . S
O281 C293 1.260 . S
Mg282 O281 2.072 . S
Mg282 O283 2.099 . S
Mg282 O285 2.079 . S
Mg282 O286 2.072 . S
Mg282 O288 2.099 . S
Mg282 O299 2.079 . S
O283 Mg280 2.180 . S
O283 Mg282 2.099 . S
O283 C294 1.279 . S
O284 Mg280 2.117 . S
O284 C294 1.250 . S
O285 Mg282 2.079 . S
O285 C295 1.264 . S
O286 Mg282 2.072 . S
O286 C296 1.260 . S
Mg287 O288 2.180 . S
Mg287 O289 2.030 . S
Mg287 O290 1.990 . S
Mg287 O291 2.117 . S
O288 Mg282 2.099 . S
O288 Mg287 2.180 . S
O288 C297 1.279 . S
O289 Mg287 2.030 . S
O289 C295 1.248 . S
O290 Mg287 1.990 . S
O290 C296 1.253 . S
O291 Mg287 2.117 . S
O291 C297 1.250 . S
C292 O298 1.248 . S
C292 O299 1.264 . S
C293 O279 1.253 . S
C293 O281 1.260 . S
C294 O283 1.279 . S
C294 O284 1.250 . S
C295 O285 1.264 . S
C295 O289 1.248 . S
C296 O286 1.260 . S
C296 O290 1.253 . S
C297 O288 1.279 . S
C297 O291 1.250 . S
O298 Mg280 2.030 . S
O298 C292 1.248 . S
O299 Mg282 2.079 . S
O299 C292 1.264 . S
O300 Mg301 1.990 . S
O300 C314 1.253 . S
Mg301 O300 1.990 . S
Mg301 O304 2.180 . S
Mg301 O305 2.117 . S
Mg301 O319 2.030 . S
O302 Mg303 2.072 . S
O302 C314 1.260 . S
Mg303 O302 2.072 . S
Mg303 O304 2.099 . S
Mg303 O306 2.079 . S
Mg303 O307 2.072 . S
Mg303 O309 2.099 . S
Mg303 O320 2.079 . S
O304 Mg301 2.180 . S
O304 Mg303 2.099 . S
O304 C315 1.279 . S
O305 Mg301 2.117 . S
O305 C315 1.250 . S
O306 Mg303 2.079 . S
O306 C316 1.264 . S
O307 Mg303 2.072 . S
O307 C317 1.260 . S
Mg308 O309 2.180 . S
Mg308 O310 2.030 . S
Mg308 O311 1.990 . S
Mg308 O312 2.117 . S
O309 Mg303 2.099 . S
O309 Mg308 2.180 . S
O309 C318 1.279 . S
O310 Mg308 2.030 . S
O310 C316 1.248 . S
O311 Mg308 1.990 . S
O311 C317 1.253 . S
O312 Mg308 2.117 . S
O312 C318 1.250 . S
C313 O319 1.248 . S
C313 O320 1.264 . S
C314 O300 1.253 . S
C314 O302 1.260 . S
C315 O304 1.279 . S
C315 O305 1.250 . S
C316 O306 1.264 . S
C316 O310 1.248 . S
C317 O307 1.260 . S
C317 O311 1.253 . S
C318 O309 1.279 . S
C318 O312 1.250 . S
O319 Mg301 2.030 . S
O319 C313 1.248 . S
O320 Mg303 2.079 . S
O320 C313 1.264 . S
O321 Mg322 1.990 . S
O321 C335 1.253 . S
Mg322 O321 1.990 . S
Mg322 O325 2.180 . S
Mg322 O326 2.117 . S
Mg322 O340 2.030 . S
O323 Mg324 2.072 . S
O323 C335 1.260 . S
Mg324 O323 2.072 . S
Mg324 O325 2.099 . S
Mg324 O327 2.079 . S
Mg324 O328 2.072 . S
Mg324 O330 2.099 . S
Mg324 O341 2.079 . S
O325 Mg322 2.180 . S
O325 Mg324 2.099 . S
O325 C336 1.279 . S
O326 Mg322 2.117 . S
O326 C336 1.250 . S
O327 Mg324 2.079 . S
O327 C337 1.264 . S
O328 Mg324 2.072 . S
O328 C338 1.260 . S
Mg329 O330 2.180 . S
Mg329 O331 2.030 . S
Mg329 O332 1.990 . S
Mg329 O333 2.117 . S
O330 Mg324 2.099 . S
O330 Mg329 2.180 . S
O330 C339 1.279 . S
O331 Mg329 2.030 . S
O331 C337 1.248 . S
O332 Mg329 1.990 . S
O332 C338 1.253 . S
O333 Mg329 2.117 . S
O333 C339 1.250 . S
C334 O340 1.248 . S
C334 O341 1.264 . S
C335 O321 1.253 . S
C335 O323 1.260 . S
C336 O325 1.279 . S
C336 O326 1.250 . S
C337 O327 1.264 . S
C337 O331 1.248 . S
C338 O328 1.260 . S
C338 O332 1.253 . S
C339 O330 1.279 . S
C339 O333 1.250 . S
O340 Mg322 2.030 . S
O340 C334 1.248 . S
O341 Mg324 2.079 . S
O341 C334 1.264 . S
O342 Mg343 1.990 . S
O342 C356 1.253 . S
Mg343 O342 1.990 . S
Mg343 O346 2.180 . S
Mg343 O347 2.117 . S
Mg343 O361 2.030 . S
O344 Mg345 2.072 . S
O344 C356 1.260 . S
Mg345 O344 2.072 . S
Mg345 O346 2.099 . S
Mg345 O348 2.079 . S
Mg345 O349 2.072 . S
Mg345 O351 2.099 . S
Mg345 O362 2.079 . S
O346 Mg343 2.180 . S
O346 Mg345 2.099 . S
O346 C357 1.279 . S
O347 Mg343 2.117 . S
O347 C357 1.250 . S
O348 Mg345 2.079 . S
O348 C358 1.264 . S
O349 Mg345 2.072 . S
O349 C359 1.260 . S
Mg350 O351 2.180 . S
Mg350 O352 2.030 . S
Mg350 O353 1.990 . S
Mg350 O354 2.117 . S
O351 Mg345 2.099 . S
O351 Mg350 2.180 . S
O351 C360 1.279 . S
O352 Mg350 2.030 . S
O352 C358 1.248 . S
O353 Mg350 1.990 . S
O353 C359 1.253 . S
O354 Mg350 2.117 . S
O354 C360 1.250 . S
C355 O361 1.248 . S
C355 O362 1.264 . S
C356 O342 1.253 . S
C356 O344 1.260 . S
C357 O346 1.279 . S
C357 O347 1.250 . S
C358 O348 1.264 . S
C358 O352 1.248 . S
C359 O349 1.260 . S
C359 O353 1.253 . S
C360 O351 1.279 . S
C360 O354 1.250 . S
O361 Mg343 2.030 . S
O361 C355 1.248 . S
O362 Mg345 2.079 . S
O362 C355 1.264 . S
O363 Mg364 1.990 . S
O363 C377 1.253 . S
Mg364 O363 1.990 . S
Mg364 O367 2.180 . S
Mg364 O368 2.117 . S
Mg364 O382 2.030 . S
O365 Mg366 2.072 . S
O365 C377 1.260 . S
Mg366 O365 2.072 . S
Mg366 O367 2.099 . S
Mg366 O369 2.079 . S
Mg366 O370 2.072 . S
Mg366 O372 2.099 . S
Mg366 O383 2.079 . S
O367 Mg364 2.180 . S
O367 Mg366 2.099 . S
O367 C378 1.279 . S
O368 Mg364 2.117 . S
O368 C378 1.250 . S
O369 Mg366 2.079 . S
O369 C379 1.264 . S
O370 Mg366 2.072 . S
O370 C380 1.260 . S
Mg371 O372 2.180 . S
Mg371 O373 2.030 . S
Mg371 O374 1.990 . S
Mg371 O375 2.117 . S
O372 Mg366 2.099 . S
O372 Mg371 2.180 . S
O372 C381 1.279 . S
O373 Mg371 2.030 . S
O373 C379 1.248 . S
O374 Mg371 1.990 . S
O374 C380 1.253 . S
O375 Mg371 2.117 . S
O375 C381 1.250 . S
C376 O382 1.248 . S
C376 O383 1.264 . S
C377 O363 1.253 . S
C377 O365 1.260 . S
C378 O367 1.279 . S
C378 O368 1.250 . S
C379 O369 1.264 . S
C379 O373 1.248 . S
C380 O370 1.260 . S
C380 O374 1.253 . S
C381 O372 1.279 . S
C381 O375 1.250 . S
O382 Mg364 2.030 . S
O382 C376 1.248 . S
O383 Mg366 2.079 . S
O383 C376 1.264 . S
O384 Mg385 1.990 . S
O384 C398 1.253 . S
Mg385 O384 1.990 . S
Mg385 O388 2.180 . S
Mg385 O389 2.117 . S
Mg385 O403 2.030 . S
O386 Mg387 2.072 . S
O386 C398 1.260 . S
Mg387 O386 2.072 . S
Mg387 O388 2.099 . S
Mg387 O390 2.079 . S
Mg387 O391 2.072 . S
Mg387 O393 2.099 . S
Mg387 O404 2.079 . S
O388 Mg385 2.180 . S
O388 Mg387 2.099 . S
O388 C399 1.279 . S
O389 Mg385 2.117 . S
O389 C399 1.250 . S
O390 Mg387 2.079 . S
O390 C400 1.264 . S
O391 Mg387 2.072 . S
O391 C401 1.260 . S
Mg392 O393 2.180 . S
Mg392 O394 2.030 . S
Mg392 O395 1.990 . S
Mg392 O396 2.117 . S
O393 Mg387 2.099 . S
O393 Mg392 2.180 . S
O393 C402 1.279 . S
O394 Mg392 2.030 . S
O394 C400 1.248 . S
O395 Mg392 1.990 . S
O395 C401 1.253 . S
O396 Mg392 2.117 . S
O396 C402 1.250 . S
C397 O403 1.248 . S
C397 O404 1.264 . S
C398 O384 1.253 . S
C398 O386 1.260 . S
C399 O388 1.279 . S
C399 O389 1.250 . S
C400 O390 1.264 . S
C400 O394 1.248 . S
C401 O391 1.260 . S
C401 O395 1.253 . S
C402 O393 1.279 . S
C402 O396 1.250 . S
O403 Mg385 2.030 . S
O403 C397 1.248 . S
O404 Mg387 2.079 . S
O404 C397 1.264 . S
C405 C406 1.349 . S
C405 C407 1.327 . S
C405 H430 0.950 . S
C406 C405 1.349 . S
C406 C422 1.349 . S
C407 C405 1.327 . S
C407 C426 1.429 . S
C407 H431 0.950 . S
C408 C425 1.572 1_554 S
C408 C427 1.396 . S
C408 H432 0.926 1_554 S
H409 C413 0.949 . S
C410 C411 1.349 1_556 S
C410 C412 1.327 . S
C410 H433 0.950 . S
C411 C410 1.349 1_554 S
C411 C423 1.349 . S
C412 C410 1.327 . S
C412 C428 1.429 1_556 S
C412 H434 0.950 . S
C413 H409 0.949 . S
C413 C421 1.574 . S
C413 C429 1.368 . S
H414 C422 0.950 1_556 S
H415 C420 0.950 1_556 S
H416 C421 0.949 . S
H417 C423 0.950 . S
H418 C424 0.950 . S
H419 C425 0.962 . S
C420 H415 0.950 1_554 S
C420 C422 1.327 . S
C420 C426 1.429 . S
C421 C413 1.574 . S
C421 H416 0.949 . S
C421 C427 1.368 . S
C422 C406 1.349 . S
C422 H414 0.950 1_554 S
C422 C420 1.327 . S
C423 C411 1.349 . S
C423 H417 0.950 . S
C423 C424 1.327 . S
C424 H418 0.950 . S
C424 C423 1.327 . S
C424 C428 1.429 . S
C425 C408 1.572 1_556 S
C425 H419 0.962 . S
C425 C429 1.355 1_556 S
C426 C407 1.429 . S
C426 C420 1.429 . S
C426 C427 1.523 . S
C427 C408 1.396 . S
C427 C421 1.368 . S
C427 C426 1.523 . S
C428 C412 1.429 1_554 S
C428 C424 1.429 . S
C428 C429 1.523 . S
C429 C413 1.368 . S
C429 C425 1.355 1_554 S
C429 C428 1.523 . S
H430 C405 0.950 . S
H431 C407 0.950 . S
H432 C408 0.926 1_556 S
H433 C410 0.950 . S
H434 C412 0.950 . S
C435 C436 1.349 . S
C435 C437 1.327 . S
C435 H460 0.959 . S
C436 C435 1.349 . S
C436 C452 1.349 . S
C437 C435 1.327 . S
C437 C456 1.429 . S
C437 H461 0.950 1_554 S
C438 C455 1.574 . S
C438 C457 1.368 . S
C438 H462 0.949 . S
H439 C443 0.949 1_556 S
C440 C441 1.349 . S
C440 C442 1.327 . S
C440 H463 0.950 . S
C441 C440 1.349 . S
C441 C453 1.352 1_554 S
C442 C440 1.327 . S
C442 C458 1.429 . S
C442 H464 0.950 . S
C443 H439 0.949 1_554 S
C443 C451 1.574 . S
C443 C459 1.368 . S
H444 C452 0.950 . S
H445 C450 0.950 . S
H446 C451 0.949 1_556 S
H447 C453 0.946 . S
H448 C454 0.950 1_556 S
H449 C455 0.949 . S
C450 H445 0.950 . S
C450 C452 1.327 . S
C450 C456 1.429 . S
C451 C443 1.574 . S
C451 H446 0.949 1_554 S
C451 C457 1.368 . S
C452 C436 1.349 . S
C452 H444 0.950 . S
C452 C450 1.327 . S
C453 C441 1.352 1_556 S
C453 H447 0.946 . S
C453 C454 1.327 1_556 S
C454 H448 0.950 1_554 S
C454 C453 1.327 1_554 S
C454 C458 1.429 . S
C455 C438 1.574 . S
C455 H449 0.949 . S
C455 C459 1.368 . S
C456 C437 1.429 . S
C456 C450 1.429 . S
C456 C457 1.523 . S
C457 C438 1.368 . S
C457 C451 1.368 . S
C457 C456 1.523 . S
C458 C442 1.429 . S
C458 C454 1.429 . S
C458 C459 1.523 . S
C459 C443 1.368 . S
C459 C455 1.368 . S
C459 C458 1.523 . S
H460 C435 0.959 . S
H461 C437 0.950 1_556 S
H462 C438 0.949 . S
H463 C440 0.950 . S
H464 C442 0.950 . S
C465 C466 1.349 . S
C465 C467 1.327 . S
C465 H490 0.950 . S
C466 C465 1.349 . S
C466 C482 1.349 . S
C467 C465 1.327 . S
C467 C486 1.429 . S
C467 H491 0.950 1_554 S
C468 C485 1.574 . S
C468 C487 1.368 . S
C468 H492 0.949 . S
H469 C473 0.949 1_556 S
C470 C471 1.349 . S
C470 C472 1.327 . S
C470 H493 0.950 . S
C471 C470 1.349 . S
C471 C483 1.377 . S
C472 C470 1.327 . S
C472 C488 1.429 . S
C472 H494 0.950 . S
C473 H469 0.949 1_554 S
C473 C481 1.574 . S
C473 C489 1.368 . S
H474 C482 0.950 . S
H475 C480 0.950 . S
H476 C481 0.949 1_556 S
H477 C483 0.921 1_556 S
H478 C484 0.950 1_556 S
H479 C485 0.949 . S
C480 H475 0.950 . S
C480 C482 1.327 . S
C480 C486 1.429 . S
C481 C473 1.574 . S
C481 H476 0.949 1_554 S
C481 C487 1.368 . S
C482 C466 1.349 . S
C482 H474 0.950 . S
C482 C480 1.327 . S
C483 C471 1.377 . S
C483 H477 0.921 1_554 S
C483 C484 1.329 . S
C484 H478 0.950 1_554 S
C484 C483 1.329 . S
C484 C488 1.429 . S
C485 C468 1.574 . S
C485 H479 0.949 . S
C485 C489 1.368 . S
C486 C467 1.429 . S
C486 C480 1.429 . S
C486 C487 1.523 . S
C487 C468 1.368 . S
C487 C481 1.368 . S
C487 C486 1.523 . S
C488 C472 1.429 . S
C488 C484 1.429 . S
C488 C489 1.523 . S
C489 C473 1.368 . S
C489 C485 1.368 . S
C489 C488 1.523 . S
H490 C465 0.950 . S
H491 C467 0.950 1_556 S
H492 C468 0.949 . S
H493 C470 0.950 . S
H494 C472 0.950 . S
C495 C496 1.349 . S
C495 C497 1.327 . S
C495 H520 0.950 . S
C496 C495 1.349 . S
C496 C512 1.349 1_556 S
C497 C495 1.327 . S
C497 C516 1.429 . S
C497 H521 0.950 . S
C498 C515 1.574 . S
C498 C517 1.354 1_554 S
C498 H522 0.949 . S
H499 C503 0.949 . S
C500 C501 1.349 . S
C500 C502 1.327 . S
C500 H523 0.950 . S
C501 C500 1.349 . S
C501 C513 1.349 1_554 S
C502 C500 1.327 . S
C502 C518 1.429 . S
C502 H524 0.950 . S
C503 H499 0.949 . S
C503 C511 1.574 . S
C503 C519 1.368 1_556 S
H504 C512 0.950 . S
H505 C510 0.950 . S
H506 C511 0.949 . S
H507 C513 0.950 . S
H508 C514 0.950 . S
H509 C515 0.949 . S
C510 H505 0.950 . S
C510 C512 1.327 . S
C510 C516 1.429 1_554 S
C511 C503 1.574 . S
C511 H506 0.949 . S
C511 C517 1.382 . S
C512 C496 1.349 1_554 S
C512 H504 0.950 . S
C512 C510 1.327 . S
C513 C501 1.349 1_556 S
C513 H507 0.950 . S
C513 C514 1.327 . S
C514 H508 0.950 . S
C514 C513 1.327 . S
C514 C518 1.429 1_556 S
C515 C498 1.574 . S
C515 H509 0.949 . S
C515 C519 1.368 . S
C516 C497 1.429 . S
C516 C510 1.429 1_556 S
C516 C517 1.524 . S
C517 C498 1.354 1_556 S
C517 C511 1.382 . S
C517 C516 1.524 . S
C518 C502 1.429 . S
C518 C514 1.429 1_554 S
C518 C519 1.523 . S
C519 C503 1.368 1_554 S
C519 C515 1.368 . S
C519 C518 1.523 . S
H520 C495 0.950 . S
H521 C497 0.950 . S
H522 C498 0.949 . S
H523 C500 0.950 . S
H524 C502 0.950 . S
C525 C526 1.349 . S
C525 C527 1.327 . S
C525 H550 0.950 . S
C526 C525 1.349 . S
C526 C542 1.349 1_556 S
C527 C525 1.327 . S
C527 C546 1.443 . S
C527 H551 0.950 . S
C528 C545 1.574 . S
C528 C547 1.394 . S
C528 H552 0.949 . S
H529 C533 0.949 . S
C530 C531 1.349 . S
C530 C532 1.327 . S
C530 H553 0.950 . S
C531 C530 1.349 . S
C531 C543 1.349 1_554 S
C532 C530 1.327 . S
C532 C548 1.429 . S
C532 H554 0.950 . S
C533 H529 0.949 . S
C533 C541 1.574 . S
C533 C549 1.368 1_556 S
H534 C542 0.950 . S
H535 C540 0.950 . S
H536 C541 0.949 . S
H537 C543 0.950 . S
H538 C544 0.950 . S
H539 C545 0.949 . S
C540 H535 0.950 . S
C540 C542 1.327 . S
C540 C546 1.416 1_554 S
C541 C533 1.574 . S
C541 H536 0.949 . S
C541 C547 1.346 1_556 S
C542 C526 1.349 1_554 S
C542 H534 0.950 . S
C542 C540 1.327 . S
C543 C531 1.349 1_556 S
C543 H537 0.950 . S
C543 C544 1.327 . S
C544 H538 0.950 . S
C544 C543 1.327 . S
C544 C548 1.429 1_556 S
C545 C528 1.574 . S
C545 H539 0.949 . S
C545 C549 1.368 . S
C546 C527 1.443 . S
C546 C540 1.416 1_556 S
C546 C547 1.520 1_556 S
C547 C528 1.394 . S
C547 C541 1.346 1_554 S
C547 C546 1.520 1_554 S
C548 C532 1.429 . S
C548 C544 1.429 1_554 S
C548 C549 1.523 . S
C549 C533 1.368 1_554 S
C549 C545 1.368 . S
C549 C548 1.523 . S
H550 C525 0.950 . S
H551 C527 0.950 . S
H552 C528 0.949 . S
H553 C530 0.950 . S
H554 C532 0.950 . S
C555 C556 1.349 . S
C555 C557 1.327 . S
C555 H580 0.950 . S
C556 C555 1.349 . S
C556 C572 1.349 1_554 S
C557 C555 1.327 . S
C557 C576 1.429 . S
C557 H581 0.950 . S
C558 C575 1.574 . S
C558 C577 1.368 1_556 S
C558 H582 0.949 . S
H559 C563 0.949 . S
C560 C561 1.349 1_556 S
C560 C562 1.327 . S
C560 H583 0.950 . S
C561 C560 1.349 1_554 S
C561 C573 1.349 . S
C562 C560 1.327 . S
C562 C578 1.429 1_556 S
C562 H584 0.950 . S
C563 H559 0.949 . S
C563 C571 1.574 . S
C563 C579 1.368 . S
H564 C572 0.950 . S
H565 C570 0.950 . S
H566 C571 0.949 . S
H567 C573 0.950 . S
H568 C574 0.950 . S
H569 C575 0.949 . S
C570 H565 0.950 . S
C570 C572 1.327 . S
C570 C576 1.429 1_556 S
C571 C563 1.574 . S
C571 H566 0.949 . S
C571 C577 1.368 . S
C572 C556 1.349 1_556 S
C572 H564 0.950 . S
C572 C570 1.327 . S
C573 C561 1.349 . S
C573 H567 0.950 . S
C573 C574 1.327 . S
C574 H568 0.950 . S
C574 C573 1.327 . S
C574 C578 1.429 . S
C575 C558 1.574 . S
C575 H569 0.949 . S
C575 C579 1.368 1_556 S
C576 C557 1.429 . S
C576 C570 1.429 1_554 S
C576 C577 1.523 . S
C577 C558 1.368 1_554 S
C577 C571 1.368 . S
C577 C576 1.523 . S
C578 C562 1.429 1_554 S
C578 C574 1.429 . S
C578 C579 1.523 . S
C579 C563 1.368 . S
C579 C575 1.368 1_554 S
C579 C578 1.523 . S
H580 C555 0.950 . S
H581 C557 0.950 . S
H582 C558 0.949 . S
H583 C560 0.950 . S
H584 C562 0.950 . S
C585 C586 1.349 1_556 S
C585 C587 1.327 . S
C585 H610 0.950 . S
C586 C585 1.349 1_554 S
C586 C602 1.349 . S
C587 C585 1.327 . S
C587 C606 1.429 1_556 S
C587 H611 0.950 . S
C588 C605 1.574 . S
C588 C607 1.368 . S
C588 H612 0.949 . S
H589 C593 0.949 . S
C590 C591 1.349 . S
C590 C592 1.327 . S
C590 H613 0.950 . S
C591 C590 1.349 . S
C591 C603 1.349 1_554 S
C592 C590 1.327 . S
C592 C608 1.429 . S
C592 H614 0.950 . S
C593 H589 0.949 . S
C593 C601 1.574 . S
C593 C609 1.368 1_556 S
H594 C602 0.950 . S
H595 C600 0.950 . S
H596 C601 0.949 . S
H597 C603 0.950 . S
H598 C604 0.950 . S
H599 C605 0.949 . S
C600 H595 0.950 . S
C600 C602 1.327 . S
C600 C606 1.429 . S
C601 C593 1.574 . S
C601 H596 0.949 . S
C601 C607 1.368 1_556 S
C602 C586 1.349 . S
C602 H594 0.950 . S
C602 C600 1.327 . S
C603 C591 1.349 1_556 S
C603 H597 0.950 . S
C603 C604 1.327 . S
C604 H598 0.950 . S
C604 C603 1.327 . S
C604 C608 1.429 1_556 S
C605 C588 1.574 . S
C605 H599 0.949 . S
C605 C609 1.368 . S
C606 C587 1.429 1_554 S
C606 C600 1.429 . S
C606 C607 1.523 . S
C607 C588 1.368 . S
C607 C601 1.368 1_554 S
C607 C606 1.523 . S
C608 C592 1.429 . S
C608 C604 1.429 1_554 S
C608 C609 1.523 . S
C609 C593 1.368 1_554 S
C609 C605 1.368 . S
C609 C608 1.523 . S
H610 C585 0.950 . S
H611 C587 0.950 . S
H612 C588 0.949 . S
H613 C590 0.950 . S
H614 C592 0.950 . S
C615 C616 1.349 1_556 S
C615 C617 1.327 . S
C615 H640 0.950 . S
C616 C615 1.349 1_554 S
C616 C632 1.349 . S
C617 C615 1.327 . S
C617 C636 1.429 1_556 S
C617 H641 0.950 . S
C618 C635 1.574 . S
C618 C637 1.368 . S
C618 H642 0.949 . S
H619 C623 0.949 . S
C620 C621 1.349 . S
C620 C622 1.327 . S
C620 H643 0.950 . S
C621 C620 1.349 . S
C621 C633 1.349 1_554 S
C622 C620 1.327 . S
C622 C638 1.429 . S
C622 H644 0.950 . S
C623 H619 0.949 . S
C623 C631 1.574 . S
C623 C639 1.368 1_556 S
H624 C632 0.950 . S
H625 C630 0.950 . S
H626 C631 0.949 . S
H627 C633 0.950 . S
H628 C634 0.950 . S
H629 C635 0.949 . S
C630 H625 0.950 . S
C630 C632 1.327 . S
C630 C636 1.429 . S
C631 C623 1.574 . S
C631 H626 0.949 . S
C631 C637 1.368 1_556 S
C632 C616 1.349 . S
C632 H624 0.950 . S
C632 C630 1.327 . S
C633 C621 1.349 1_556 S
C633 H627 0.950 . S
C633 C634 1.327 . S
C634 H628 0.950 . S
C634 C633 1.327 . S
C634 C638 1.429 1_556 S
C635 C618 1.574 . S
C635 H629 0.949 . S
C635 C639 1.368 . S
C636 C617 1.429 1_554 S
C636 C630 1.429 . S
C636 C637 1.523 . S
C637 C618 1.368 . S
C637 C631 1.368 1_554 S
C637 C636 1.523 . S
C638 C622 1.429 . S
C638 C634 1.429 1_554 S
C638 C639 1.523 . S
C639 C623 1.368 1_554 S
C639 C635 1.368 . S
C639 C638 1.523 . S
H640 C615 0.950 . S
H641 C617 0.950 . S
H642 C618 0.949 . S
H643 C620 0.950 . S
H644 C622 0.950 . S
C645 C646 1.349 . S
C645 C647 1.327 . S
C645 H670 0.950 . S
C646 C645 1.349 . S
C646 C662 1.349 1_554 S
C647 C645 1.327 . S
C647 C666 1.429 . S
C647 H671 0.950 . S
C648 C665 1.574 . S
C648 C667 1.368 1_556 S
C648 H672 0.949 . S
H649 C653 0.949 . S
C650 C651 1.349 1_556 S
C650 C652 1.327 . S
C650 H673 0.950 . S
C651 C650 1.349 1_554 S
C651 C663 1.349 . S
C652 C650 1.327 . S
C652 C668 1.429 1_556 S
C652 H674 0.950 . S
C653 H649 0.949 . S
C653 C661 1.574 . S
C653 C669 1.368 . S
H654 C662 0.950 . S
H655 C660 0.950 . S
H656 C661 0.949 . S
H657 C663 0.950 . S
H658 C664 0.950 . S
H659 C665 0.949 . S
C660 H655 0.950 . S
C660 C662 1.327 . S
C660 C666 1.429 1_556 S
C661 C653 1.574 . S
C661 H656 0.949 . S
C661 C667 1.368 . S
C662 C646 1.349 1_556 S
C662 H654 0.950 . S
C662 C660 1.327 . S
C663 C651 1.349 . S
C663 H657 0.950 . S
C663 C664 1.327 . S
C664 H658 0.950 . S
C664 C663 1.327 . S
C664 C668 1.429 . S
C665 C648 1.574 . S
C665 H659 0.949 . S
C665 C669 1.368 1_556 S
C666 C647 1.429 . S
C666 C660 1.429 1_554 S
C666 C667 1.523 . S
C667 C648 1.368 1_554 S
C667 C661 1.368 . S
C667 C666 1.523 . S
C668 C652 1.429 1_554 S
C668 C664 1.429 . S
C668 C669 1.523 . S
C669 C653 1.368 . S
C669 C665 1.368 1_554 S
C669 C668 1.523 . S
H670 C645 0.950 . S
H671 C647 0.950 . S
H672 C648 0.949 . S
H673 C650 0.950 . S
H674 C652 0.950 . S
C675 C676 1.349 . S
C675 C677 1.327 . S
C675 H700 0.950 . S
C676 C675 1.349 . S
C676 C692 1.349 1_554 S
C677 C675 1.327 . S
C677 C696 1.429 . S
C677 H701 0.950 . S
C678 C695 1.574 . S
C678 C697 1.368 1_556 S
C678 H702 0.949 . S
H679 C683 0.949 . S
C680 C681 1.349 1_556 S
C680 C682 1.327 . S
C680 H703 0.950 . S
C681 C680 1.349 1_554 S
C681 C693 1.349 . S
C682 C680 1.327 . S
C682 C698 1.429 1_556 S
C682 H704 0.950 . S
C683 H679 0.949 . S
C683 C691 1.574 . S
C683 C699 1.368 . S
H684 C692 0.950 . S
H685 C690 0.950 . S
H686 C691 0.949 . S
H687 C693 0.950 . S
H688 C694 0.950 . S
H689 C695 0.949 . S
C690 H685 0.950 . S
C690 C692 1.327 . S
C690 C696 1.429 1_556 S
C691 C683 1.574 . S
C691 H686 0.949 . S
C691 C697 1.368 . S
C692 C676 1.349 1_556 S
C692 H684 0.950 . S
C692 C690 1.327 . S
C693 C681 1.349 . S
C693 H687 0.950 . S
C693 C694 1.327 . S
C694 H688 0.950 . S
C694 C693 1.327 . S
C694 C698 1.429 . S
C695 C678 1.574 . S
C695 H689 0.949 . S
C695 C699 1.368 1_556 S
C696 C677 1.429 . S
C696 C690 1.429 1_554 S
C696 C697 1.523 . S
C697 C678 1.368 1_554 S
C697 C691 1.368 . S
C697 C696 1.523 . S
C698 C682 1.429 1_554 S
C698 C694 1.429 . S
C698 C699 1.523 . S
C699 C683 1.368 . S
C699 C695 1.368 1_554 S
C699 C698 1.523 . S
H700 C675 0.950 . S
H701 C677 0.950 . S
H702 C678 0.949 . S
H703 C680 0.950 . S
H704 C682 0.950 . S
C705 C706 1.349 . S
C705 C707 1.327 . S
C705 H730 0.950 . S
C706 C705 1.349 . S
C706 C722 1.349 . S
C707 C705 1.327 . S
C707 C726 1.429 . S
C707 H731 0.950 . S
C708 C725 1.574 . S
C708 C727 1.368 1_556 S
C708 H732 0.949 . S
H709 C713 0.949 . S
C710 C711 1.349 1_556 S
C710 C712 1.327 . S
C710 H733 0.950 . S
C711 C710 1.349 1_554 S
C711 C723 1.349 . S
C712 C710 1.327 . S
C712 C728 1.429 1_556 S
C712 H734 0.950 . S
C713 H709 0.949 . S
C713 C721 1.574 . S
C713 C729 1.368 . S
H714 C722 0.950 1_556 S
H715 C720 0.962 . S
H716 C721 0.949 . S
H717 C723 0.950 . S
H718 C724 0.950 . S
H719 C725 0.949 . S
C720 H715 0.962 . S
C720 C722 1.326 1_556 S
C720 C726 1.418 1_556 S
C721 C713 1.574 . S
C721 H716 0.949 . S
C721 C727 1.368 . S
C722 C706 1.349 . S
C722 H714 0.950 1_554 S
C722 C720 1.326 1_554 S
C723 C711 1.349 . S
C723 H717 0.950 . S
C723 C724 1.327 . S
C724 H718 0.950 . S
C724 C723 1.327 . S
C724 C728 1.429 . S
C725 C708 1.574 . S
C725 H719 0.949 . S
C725 C729 1.368 1_556 S
C726 C707 1.429 . S
C726 C720 1.418 1_554 S
C726 C727 1.523 . S
C727 C708 1.368 1_554 S
C727 C721 1.368 . S
C727 C726 1.523 . S
C728 C712 1.429 1_554 S
C728 C724 1.429 . S
C728 C729 1.523 . S
C729 C713 1.368 . S
C729 C725 1.368 1_554 S
C729 C728 1.523 . S
H730 C705 0.950 . S
H731 C707 0.950 . S
H732 C708 0.949 . S
H733 C710 0.950 . S
H734 C712 0.950 . S
C735 C736 1.349 1_556 S
C735 C737 1.327 . S
C735 H760 0.950 . S
C736 C735 1.349 1_554 S
C736 C752 1.349 . S
C737 C735 1.327 . S
C737 C756 1.429 1_556 S
C737 H761 0.950 . S
C738 C755 1.574 . S
C738 C757 1.368 . S
C738 H762 0.949 . S
H739 C743 0.949 . S
C740 C741 1.349 . S
C740 C742 1.327 . S
C740 H763 0.950 . S
C741 C740 1.349 . S
C741 C753 1.349 1_554 S
C742 C740 1.327 . S
C742 C758 1.429 . S
C742 H764 0.950 . S
C743 H739 0.949 . S
C743 C751 1.574 . S
C743 C759 1.368 1_556 S
H744 C752 0.950 . S
H745 C750 0.950 . S
H746 C751 0.949 . S
H747 C753 0.950 . S
H748 C754 0.950 . S
H749 C755 0.949 . S
C750 H745 0.950 . S
C750 C752 1.327 . S
C750 C756 1.429 . S
C751 C743 1.574 . S
C751 H746 0.949 . S
C751 C757 1.368 1_556 S
C752 C736 1.349 . S
C752 H744 0.950 . S
C752 C750 1.327 . S
C753 C741 1.349 1_556 S
C753 H747 0.950 . S
C753 C754 1.327 . S
C754 H748 0.950 . S
C754 C753 1.327 . S
C754 C758 1.429 1_556 S
C755 C738 1.574 . S
C755 H749 0.949 . S
C755 C759 1.368 . S
C756 C737 1.429 1_554 S
C756 C750 1.429 . S
C756 C757 1.523 . S
C757 C738 1.368 . S
C757 C751 1.368 1_554 S
C757 C756 1.523 . S
C758 C742 1.429 . S
C758 C754 1.429 1_554 S
C758 C759 1.523 . S
C759 C743 1.368 1_554 S
C759 C755 1.368 . S
C759 C758 1.523 . S
H760 C735 0.950 . S
H761 C737 0.950 . S
H762 C738 0.949 . S
H763 C740 0.950 . S
H764 C742 0.950 . S
C765 C766 1.349 . S
C765 C767 1.327 . S
C765 H790 0.950 . S
C766 C765 1.349 . S
C766 C782 1.349 . S
C767 C765 1.327 . S
C767 C786 1.429 . S
C767 H791 0.950 . S
C768 C785 1.574 1_655 S
C768 C787 1.368 . S
C768 H792 0.949 . S
H769 C773 0.949 . S
C770 C771 1.349 . S
C770 C772 1.327 . S
C770 H793 0.950 . S
C771 C770 1.349 . S
C771 C783 1.349 . S
C772 C770 1.327 . S
C772 C788 1.429 . S
C772 H794 0.950 . S
C773 H769 0.949 . S
C773 C781 1.574 . S
C773 C789 1.368 . S
H774 C782 0.950 . S
H775 C780 0.950 . S
H776 C781 0.949 1_655 S
H777 C783 0.950 . S
H778 C784 0.950 . S
H779 C785 0.949 . S
C780 H775 0.950 . S
C780 C782 1.327 . S
C780 C786 1.429 . S
C781 C773 1.574 . S
C781 H776 0.949 1_455 S
C781 C787 1.368 1_455 S
C782 C766 1.349 . S
C782 H774 0.950 . S
C782 C780 1.327 . S
C783 C771 1.349 . S
C783 H777 0.950 . S
C783 C784 1.327 . S
C784 H778 0.950 . S
C784 C783 1.327 . S
C784 C788 1.429 . S
C785 C768 1.574 1_455 S
C785 H779 0.949 . S
C785 C789 1.368 . S
C786 C767 1.429 . S
C786 C780 1.429 . S
C786 C787 1.523 . S
C787 C768 1.368 . S
C787 C781 1.368 1_655 S
C787 C786 1.523 . S
C788 C772 1.429 . S
C788 C784 1.429 . S
C788 C789 1.523 . S
C789 C773 1.368 . S
C789 C785 1.368 . S
C789 C788 1.523 . S
H790 C765 0.950 . S
H791 C767 0.950 . S
H792 C768 0.949 . S
H793 C770 0.950 . S
H794 C772 0.950 . S
C795 C796 1.349 . S
C795 C797 1.327 . S
C795 H820 0.950 . S
C796 C795 1.349 . S
C796 C812 1.349 . S
C797 C795 1.327 . S
C797 C816 1.429 . S
C797 H821 0.950 . S
C798 C815 1.574 . S
C798 C817 1.368 . S
C798 H822 0.949 . S
H799 C803 0.949 . S
C800 C801 1.349 . S
C800 C802 1.327 . S
C800 H823 0.950 . S
C801 C800 1.349 . S
C801 C813 1.349 . S
C802 C800 1.327 . S
C802 C818 1.429 . S
C802 H824 0.950 . S
C803 H799 0.949 . S
C803 C811 1.574 . S
C803 C819 1.368 . S
H804 C812 0.950 . S
H805 C810 0.950 . S
H806 C811 0.949 . S
H807 C813 0.950 . S
H808 C814 0.950 . S
H809 C815 0.949 . S
C810 H805 0.950 . S
C810 C812 1.327 . S
C810 C816 1.429 . S
C811 C803 1.574 . S
C811 H806 0.949 . S
C811 C817 1.368 . S
C812 C796 1.349 . S
C812 H804 0.950 . S
C812 C810 1.327 . S
C813 C801 1.349 . S
C813 H807 0.950 . S
C813 C814 1.327 . S
C814 H808 0.950 . S
C814 C813 1.327 . S
C814 C818 1.429 . S
C815 C798 1.574 . S
C815 H809 0.949 . S
C815 C819 1.368 . S
C816 C797 1.429 . S
C816 C810 1.429 . S
C816 C817 1.523 . S
C817 C798 1.368 . S
C817 C811 1.368 . S
C817 C816 1.523 . S
C818 C802 1.429 . S
C818 C814 1.429 . S
C818 C819 1.523 . S
C819 C803 1.368 . S
C819 C815 1.368 . S
C819 C818 1.523 . S
H820 C795 0.950 . S
H821 C797 0.950 . S
H822 C798 0.949 . S
H823 C800 0.950 . S
H824 C802 0.950 . S
C825 C826 1.349 . S
C825 C827 1.327 . S
C825 H850 0.950 . S
C826 C825 1.349 . S
C826 C842 1.349 . S
C827 C825 1.327 . S
C827 C846 1.429 . S
C827 H851 0.950 . S
C828 C845 1.574 1_545 S
C828 C847 1.368 . S
C828 H852 0.949 . S
H829 C833 0.949 . S
C830 C831 1.349 . S
C830 C832 1.327 . S
C830 H853 0.950 . S
C831 C830 1.349 . S
C831 C843 1.349 . S
C832 C830 1.327 . S
C832 C848 1.429 . S
C832 H854 0.950 . S
C833 H829 0.949 . S
C833 C841 1.574 1_565 S
C833 C849 1.368 . S
H834 C842 0.950 . S
H835 C840 0.950 . S
H836 C841 0.949 . S
H837 C843 0.950 . S
H838 C844 0.950 . S
H839 C845 0.949 . S
C840 H835 0.950 . S
C840 C842 1.327 . S
C840 C846 1.429 . S
C841 C833 1.574 1_545 S
C841 H836 0.949 . S
C841 C847 1.368 . S
C842 C826 1.349 . S
C842 H834 0.950 . S
C842 C840 1.327 . S
C843 C831 1.349 . S
C843 H837 0.950 . S
C843 C844 1.327 . S
C844 H838 0.950 . S
C844 C843 1.327 . S
C844 C848 1.429 . S
C845 C828 1.574 1_565 S
C845 H839 0.949 . S
C845 C849 1.368 . S
C846 C827 1.429 . S
C846 C840 1.429 . S
C846 C847 1.523 . S
C847 C828 1.368 . S
C847 C841 1.368 . S
C847 C846 1.523 . S
C848 C832 1.429 . S
C848 C844 1.429 . S
C848 C849 1.523 . S
C849 C833 1.368 . S
C849 C845 1.368 . S
C849 C848 1.523 . S
H850 C825 0.950 . S
H851 C827 0.950 . S
H852 C828 0.949 . S
H853 C830 0.950 . S
H854 C832 0.950 . S
C855 C856 1.349 . S
C855 C857 1.327 . S
C855 H880 0.950 . S
C856 C855 1.349 . S
C856 C872 1.349 . S
C857 C855 1.327 . S
C857 C876 1.429 . S
C857 H881 0.950 . S
C858 C875 1.574 . S
C858 C877 1.368 . S
C858 H882 0.949 . S
H859 C863 0.949 . S
C860 C861 1.349 . S
C860 C862 1.327 . S
C860 H883 0.950 . S
C861 C860 1.349 . S
C861 C873 1.349 . S
C862 C860 1.327 . S
C862 C878 1.429 . S
C862 H884 0.950 . S
C863 H859 0.949 . S
C863 C871 1.574 . S
C863 C879 1.368 . S
H864 C872 0.950 . S
H865 C870 0.950 . S
H866 C871 0.949 . S
H867 C873 0.950 . S
H868 C874 0.950 . S
H869 C875 0.949 . S
C870 H865 0.950 . S
C870 C872 1.327 . S
C870 C876 1.429 . S
C871 C863 1.574 . S
C871 H866 0.949 . S
C871 C877 1.368 . S
C872 C856 1.349 . S
C872 H864 0.950 . S
C872 C870 1.327 . S
C873 C861 1.349 . S
C873 H867 0.950 . S
C873 C874 1.327 . S
C874 H868 0.950 . S
C874 C873 1.327 . S
C874 C878 1.429 . S
C875 C858 1.574 . S
C875 H869 0.949 . S
C875 C879 1.368 . S
C876 C857 1.429 . S
C876 C870 1.429 . S
C876 C877 1.523 . S
C877 C858 1.368 . S
C877 C871 1.368 . S
C877 C876 1.523 . S
C878 C862 1.429 . S
C878 C874 1.429 . S
C878 C879 1.523 . S
C879 C863 1.368 . S
C879 C875 1.368 . S
C879 C878 1.523 . S
H880 C855 0.950 . S
H881 C857 0.950 . S
H882 C858 0.949 . S
H883 C860 0.950 . S
H884 C862 0.950 . S
C885 C886 1.349 . S
C885 C887 1.327 . S
C885 H910 0.950 . S
C886 C885 1.349 . S
C886 C902 1.349 . S
C887 C885 1.327 . S
C887 C906 1.429 . S
C887 H911 0.950 . S
C888 C905 1.574 . S
C888 C907 1.368 . S
C888 H912 0.949 . S
H889 C893 0.949 . S
C890 C891 1.349 . S
C890 C892 1.327 . S
C890 H913 0.950 . S
C891 C890 1.349 . S
C891 C903 1.349 . S
C892 C890 1.327 . S
C892 C908 1.429 . S
C892 H914 0.950 . S
C893 H889 0.949 . S
C893 C901 1.574 . S
C893 C909 1.368 . S
H894 C902 0.950 . S
H895 C900 0.950 . S
H896 C901 0.949 . S
H897 C903 0.950 . S
H898 C904 0.950 . S
H899 C905 0.949 . S
C900 H895 0.950 . S
C900 C902 1.327 . S
C900 C906 1.429 . S
C901 C893 1.574 . S
C901 H896 0.949 . S
C901 C907 1.368 . S
C902 C886 1.349 . S
C902 H894 0.950 . S
C902 C900 1.327 . S
C903 C891 1.349 . S
C903 H897 0.950 . S
C903 C904 1.327 . S
C904 H898 0.950 . S
C904 C903 1.327 . S
C904 C908 1.429 . S
C905 C888 1.574 . S
C905 H899 0.949 . S
C905 C909 1.368 . S
C906 C887 1.429 . S
C906 C900 1.429 . S
C906 C907 1.523 . S
C907 C888 1.368 . S
C907 C901 1.368 . S
C907 C906 1.523 . S
C908 C892 1.429 . S
C908 C904 1.429 . S
C908 C909 1.523 . S
C909 C893 1.368 . S
C909 C905 1.368 . S
C909 C908 1.523 . S
H910 C885 0.950 . S
H911 C887 0.950 . S
H912 C888 0.949 . S
H913 C890 0.950 . S
H914 C892 0.950 . S
C915 C916 1.349 . S
C915 C917 1.327 . S
C915 H940 0.950 . S
C916 C915 1.349 . S
C916 C932 1.349 . S
C917 C915 1.327 . S
C917 C936 1.429 . S
C917 H941 0.950 . S
C918 C935 1.574 . S
C918 C937 1.368 . S
C918 H942 0.949 . S
H919 C923 0.949 . S
C920 C921 1.349 . S
C920 C922 1.327 . S
C920 H943 0.950 . S
C921 C920 1.349 . S
C921 C933 1.349 . S
C922 C920 1.327 . S
C922 C938 1.429 . S
C922 H944 0.950 . S
C923 H919 0.949 . S
C923 C931 1.574 . S
C923 C939 1.368 . S
H924 C932 0.950 . S
H925 C930 0.950 . S
H926 C931 0.949 . S
H927 C933 0.950 . S
H928 C934 0.950 . S
H929 C935 0.949 . S
C930 H925 0.950 . S
C930 C932 1.327 . S
C930 C936 1.429 . S
C931 C923 1.574 . S
C931 H926 0.949 . S
C931 C937 1.368 . S
C932 C916 1.349 . S
C932 H924 0.950 . S
C932 C930 1.327 . S
C933 C921 1.349 . S
C933 H927 0.950 . S
C933 C934 1.327 . S
C934 H928 0.950 . S
C934 C933 1.327 . S
C934 C938 1.429 . S
C935 C918 1.574 . S
C935 H929 0.949 . S
C935 C939 1.368 . S
C936 C917 1.429 . S
C936 C930 1.429 . S
C936 C937 1.523 . S
C937 C918 1.368 . S
C937 C931 1.368 . S
C937 C936 1.523 . S
C938 C922 1.429 . S
C938 C934 1.429 . S
C938 C939 1.523 . S
C939 C923 1.368 . S
C939 C935 1.368 . S
C939 C938 1.523 . S
H940 C915 0.950 . S
H941 C917 0.950 . S
H942 C918 0.949 . S
H943 C920 0.950 . S
H944 C922 0.950 . S
C945 C946 1.349 . S
C945 C947 1.327 . S
C945 H970 0.950 . S
C946 C945 1.349 . S
C946 C962 1.349 . S
C947 C945 1.327 . S
C947 C966 1.429 . S
C947 H971 0.950 . S
C948 C965 1.574 . S
C948 C967 1.368 . S
C948 H972 0.949 . S
H949 C953 0.949 . S
C950 C951 1.349 . S
C950 C952 1.327 . S
C950 H973 0.950 . S
C951 C950 1.349 . S
C951 C963 1.349 . S
C952 C950 1.327 . S
C952 C968 1.429 . S
C952 H974 0.950 . S
C953 H949 0.949 . S
C953 C961 1.574 . S
C953 C969 1.368 . S
H954 C962 0.950 . S
H955 C960 0.950 . S
H956 C961 0.949 . S
H957 C963 0.950 . S
H958 C964 0.950 . S
H959 C965 0.949 . S
C960 H955 0.950 . S
C960 C962 1.327 . S
C960 C966 1.429 . S
C961 C953 1.574 . S
C961 H956 0.949 . S
C961 C967 1.368 . S
C962 C946 1.349 . S
C962 H954 0.950 . S
C962 C960 1.327 . S
C963 C951 1.349 . S
C963 H957 0.950 . S
C963 C964 1.327 . S
C964 H958 0.950 . S
C964 C963 1.327 . S
C964 C968 1.429 . S
C965 C948 1.574 . S
C965 H959 0.949 . S
C965 C969 1.368 . S
C966 C947 1.429 . S
C966 C960 1.429 . S
C966 C967 1.523 . S
C967 C948 1.368 . S
C967 C961 1.368 . S
C967 C966 1.523 . S
C968 C952 1.429 . S
C968 C964 1.429 . S
C968 C969 1.523 . S
C969 C953 1.368 . S
C969 C965 1.368 . S
C969 C968 1.523 . S
H970 C945 0.950 . S
H971 C947 0.950 . S
H972 C948 0.949 . S
H973 C950 0.950 . S
H974 C952 0.950 . S
C975 C976 1.349 . S
C975 C977 1.327 . S
C975 H1000 0.950 . S
C976 C975 1.349 . S
C976 C992 1.349 . S
C977 C975 1.327 . S
C977 C996 1.429 . S
C977 H1001 0.950 . S
C978 C995 1.574 . S
C978 C997 1.368 . S
C978 H1002 0.949 . S
H979 C983 0.949 . S
C980 C981 1.349 . S
C980 C982 1.327 . S
C980 H1003 0.950 . S
C981 C980 1.349 . S
C981 C993 1.349 . S
C982 C980 1.327 . S
C982 C998 1.429 . S
C982 H1004 0.950 . S
C983 H979 0.949 . S
C983 C991 1.574 . S
C983 C999 1.368 . S
H984 C992 0.950 . S
H985 C990 0.950 . S
H986 C991 0.949 . S
H987 C993 0.950 . S
H988 C994 0.950 . S
H989 C995 0.949 . S
C990 H985 0.950 . S
C990 C992 1.327 . S
C990 C996 1.429 . S
C991 C983 1.574 . S
C991 H986 0.949 . S
C991 C997 1.368 . S
C992 C976 1.349 . S
C992 H984 0.950 . S
C992 C990 1.327 . S
C993 C981 1.349 . S
C993 H987 0.950 . S
C993 C994 1.327 . S
C994 H988 0.950 . S
C994 C993 1.327 . S
C994 C998 1.429 . S
C995 C978 1.574 . S
C995 H989 0.949 . S
C995 C999 1.368 . S
C996 C977 1.429 . S
C996 C990 1.429 . S
C996 C997 1.523 . S
C997 C978 1.368 . S
C997 C991 1.368 . S
C997 C996 1.523 . S
C998 C982 1.429 . S
C998 C994 1.429 . S
C998 C999 1.523 . S
C999 C983 1.368 . S
C999 C995 1.368 . S
C999 C998 1.523 . S
H1000 C975 0.950 . S
H1001 C977 0.950 . S
H1002 C978 0.949 . S
H1003 C980 0.950 . S
H1004 C982 0.950 . S
C1005 C1006 1.349 . S
C1005 C1007 1.327 . S
C1005 H1030 0.950 . S
C1006 C1005 1.349 . S
C1006 C1022 1.349 . S
C1007 C1005 1.327 . S
C1007 C1026 1.429 . S
C1007 H1031 0.950 . S
C1008 C1025 1.574 . S
C1008 C1027 1.368 . S
C1008 H1032 0.949 . S
H1009 C1013 0.949 . S
C1010 C1011 1.349 . S
C1010 C1012 1.327 . S
C1010 H1033 0.950 . S
C1011 C1010 1.349 . S
C1011 C1023 1.349 . S
C1012 C1010 1.327 . S
C1012 C1028 1.429 . S
C1012 H1034 0.950 . S
C1013 H1009 0.949 . S
C1013 C1021 1.574 . S
C1013 C1029 1.368 . S
H1014 C1022 0.950 . S
H1015 C1020 0.950 . S
H1016 C1021 0.949 . S
H1017 C1023 0.950 . S
H1018 C1024 0.950 . S
H1019 C1025 0.949 . S
C1020 H1015 0.950 . S
C1020 C1022 1.327 . S
C1020 C1026 1.429 . S
C1021 C1013 1.574 . S
C1021 H1016 0.949 . S
C1021 C1027 1.368 . S
C1022 C1006 1.349 . S
C1022 H1014 0.950 . S
C1022 C1020 1.327 . S
C1023 C1011 1.349 . S
C1023 H1017 0.950 . S
C1023 C1024 1.327 . S
C1024 H1018 0.950 . S
C1024 C1023 1.327 . S
C1024 C1028 1.429 . S
C1025 C1008 1.574 . S
C1025 H1019 0.949 . S
C1025 C1029 1.368 . S
C1026 C1007 1.429 . S
C1026 C1020 1.429 . S
C1026 C1027 1.523 . S
C1027 C1008 1.368 . S
C1027 C1021 1.368 . S
C1027 C1026 1.523 . S
C1028 C1012 1.429 . S
C1028 C1024 1.429 . S
C1028 C1029 1.523 . S
C1029 C1013 1.368 . S
C1029 C1025 1.368 . S
C1029 C1028 1.523 . S
H1030 C1005 0.950 . S
H1031 C1007 0.950 . S
H1032 C1008 0.949 . S
H1033 C1010 0.950 . S
H1034 C1012 0.950 . S
C1035 C1036 1.349 . S
C1035 C1037 1.327 . S
C1035 H1060 0.950 . S
C1036 C1035 1.349 . S
C1036 C1052 1.349 . S
C1037 C1035 1.327 . S
C1037 C1056 1.429 . S
C1037 H1061 0.950 . S
C1038 C1055 1.574 . S
C1038 C1057 1.368 . S
C1038 H1062 0.949 . S
H1039 C1043 0.949 . S
C1040 C1041 1.349 . S
C1040 C1042 1.327 . S
C1040 H1063 0.950 . S
C1041 C1040 1.349 . S
C1041 C1053 1.349 . S
C1042 C1040 1.327 . S
C1042 C1058 1.429 . S
C1042 H1064 0.950 . S
C1043 H1039 0.949 . S
C1043 C1051 1.574 . S
C1043 C1059 1.368 . S
H1044 C1052 0.950 . S
H1045 C1050 0.950 . S
H1046 C1051 0.949 . S
H1047 C1053 0.950 . S
H1048 C1054 0.950 . S
H1049 C1055 0.949 . S
C1050 H1045 0.950 . S
C1050 C1052 1.327 . S
C1050 C1056 1.429 . S
C1051 C1043 1.574 . S
C1051 H1046 0.949 . S
C1051 C1057 1.368 . S
C1052 C1036 1.349 . S
C1052 H1044 0.950 . S
C1052 C1050 1.327 . S
C1053 C1041 1.349 . S
C1053 H1047 0.950 . S
C1053 C1054 1.327 . S
C1054 H1048 0.950 . S
C1054 C1053 1.327 . S
C1054 C1058 1.429 . S
C1055 C1038 1.574 . S
C1055 H1049 0.949 . S
C1055 C1059 1.368 . S
C1056 C1037 1.429 . S
C1056 C1050 1.429 . S
C1056 C1057 1.523 1_545 S
C1057 C1038 1.368 . S
C1057 C1051 1.368 . S
C1057 C1056 1.523 1_565 S
C1058 C1042 1.429 . S
C1058 C1054 1.429 . S
C1058 C1059 1.523 . S
C1059 C1043 1.368 . S
C1059 C1055 1.368 . S
C1059 C1058 1.523 . S
H1060 C1035 0.950 . S
H1061 C1037 0.950 . S
H1062 C1038 0.949 . S
H1063 C1040 0.950 . S
H1064 C1042 0.950 . S
C1065 C1066 1.349 . S
C1065 C1067 1.327 . S
C1065 H1090 0.950 . S
C1066 C1065 1.349 . S
C1066 C1082 1.349 . S
C1067 C1065 1.327 . S
C1067 C1086 1.455 . S
C1067 H1091 0.950 . S
C1068 C1085 1.574 . S
C1068 C1087 1.368 . S
C1068 H1092 0.949 . S
H1069 C1073 0.949 . S
C1070 C1071 1.349 . S
C1070 C1072 1.327 . S
C1070 H1093 0.950 . S
C1071 C1070 1.349 . S
C1071 C1083 1.349 . S
C1072 C1070 1.327 . S
C1072 C1088 1.429 . S
C1072 H1094 0.950 . S
C1073 H1069 0.949 . S
C1073 C1081 1.574 . S
C1073 C1089 1.368 . S
H1074 C1082 0.950 . S
H1075 C1080 0.950 . S
H1076 C1081 0.949 . S
H1077 C1083 0.950 . S
H1078 C1084 0.950 . S
H1079 C1085 0.949 . S
C1080 H1075 0.950 . S
C1080 C1082 1.327 . S
C1080 C1086 1.442 . S
C1081 C1073 1.574 . S
C1081 H1076 0.949 . S
C1081 C1087 1.368 . S
C1082 C1066 1.349 . S
C1082 H1074 0.950 . S
C1082 C1080 1.327 . S
C1083 C1071 1.349 . S
C1083 H1077 0.950 . S
C1083 C1084 1.327 . S
C1084 H1078 0.950 . S
C1084 C1083 1.327 . S
C1084 C1088 1.429 . S
C1085 C1068 1.574 . S
C1085 H1079 0.949 . S
C1085 C1089 1.368 . S
C1086 C1067 1.455 . S
C1086 C1080 1.442 . S
C1086 C1087 1.486 1_655 S
C1087 C1068 1.368 . S
C1087 C1081 1.368 . S
C1087 C1086 1.486 1_455 S
C1088 C1072 1.429 . S
C1088 C1084 1.429 . S
C1088 C1089 1.523 . S
C1089 C1073 1.368 . S
C1089 C1085 1.368 . S
C1089 C1088 1.523 . S
H1090 C1065 0.950 . S
H1091 C1067 0.950 . S
H1092 C1068 0.949 . S
H1093 C1070 0.950 . S
H1094 C1072 0.950 . S
C1095 C1096 1.349 . S
C1095 C1097 1.327 . S
C1095 H1120 0.950 . S
C1096 C1095 1.349 . S
C1096 C1112 1.349 . S
C1097 C1095 1.327 . S
C1097 C1116 1.429 . S
C1097 H1121 0.950 . S
C1098 C1115 1.574 . S
C1098 C1117 1.368 . S
C1098 H1122 0.949 . S
H1099 C1103 0.949 . S
C1100 C1101 1.349 . S
C1100 C1102 1.327 . S
C1100 H1123 0.950 . S
C1101 C1100 1.349 . S
C1101 C1113 1.349 . S
C1102 C1100 1.327 . S
C1102 C1118 1.429 . S
C1102 H1124 0.950 . S
C1103 H1099 0.949 . S
C1103 C1111 1.574 . S
C1103 C1119 1.368 . S
H1104 C1112 0.950 . S
H1105 C1110 0.950 . S
H1106 C1111 0.949 . S
H1107 C1113 0.950 . S
H1108 C1114 0.950 . S
H1109 C1115 0.949 . S
C1110 H1105 0.950 . S
C1110 C1112 1.327 . S
C1110 C1116 1.429 . S
C1111 C1103 1.574 . S
C1111 H1106 0.949 . S
C1111 C1117 1.368 . S
C1112 C1096 1.349 . S
C1112 H1104 0.950 . S
C1112 C1110 1.327 . S
C1113 C1101 1.349 . S
C1113 H1107 0.950 . S
C1113 C1114 1.327 . S
C1114 H1108 0.950 . S
C1114 C1113 1.327 . S
C1114 C1118 1.429 . S
C1115 C1098 1.574 . S
C1115 H1109 0.949 . S
C1115 C1119 1.368 . S
C1116 C1097 1.429 . S
C1116 C1110 1.429 . S
C1116 C1117 1.523 . S
C1117 C1098 1.368 . S
C1117 C1111 1.368 . S
C1117 C1116 1.523 . S
C1118 C1102 1.429 . S
C1118 C1114 1.429 . S
C1118 C1119 1.523 . S
C1119 C1103 1.368 . S
C1119 C1115 1.368 . S
C1119 C1118 1.523 . S
H1120 C1095 0.950 . S
H1121 C1097 0.950 . S
H1122 C1098 0.949 . S
H1123 C1100 0.950 . S
H1124 C1102 0.950 . S
C1125 C1126 1.349 . S
C1125 C1127 1.327 . S
C1125 H1150 0.950 . S
C1126 C1125 1.349 . S
C1126 C1142 1.349 . S
C1127 C1125 1.327 . S
C1127 C1146 1.429 . S
C1127 H1151 0.950 . S
C1128 C1145 1.574 . S
C1128 C1147 1.368 . S
C1128 H1152 0.949 . S
H1129 C1133 0.949 . S
C1130 C1131 1.349 . S
C1130 C1132 1.327 . S
C1130 H1153 0.950 . S
C1131 C1130 1.349 . S
C1131 C1143 1.349 . S
C1132 C1130 1.327 . S
C1132 C1148 1.429 . S
C1132 H1154 0.950 . S
C1133 H1129 0.949 . S
C1133 C1141 1.574 . S
C1133 C1149 1.368 . S
H1134 C1142 0.950 . S
H1135 C1140 0.950 . S
H1136 C1141 0.949 . S
H1137 C1143 0.950 . S
H1138 C1144 0.950 . S
H1139 C1145 0.949 . S
C1140 H1135 0.950 . S
C1140 C1142 1.327 . S
C1140 C1146 1.429 . S
C1141 C1133 1.574 . S
C1141 H1136 0.949 . S
C1141 C1147 1.368 . S
C1142 C1126 1.349 . S
C1142 H1134 0.950 . S
C1142 C1140 1.327 . S
C1143 C1131 1.349 . S
C1143 H1137 0.950 . S
C1143 C1144 1.327 . S
C1144 H1138 0.950 . S
C1144 C1143 1.327 . S
C1144 C1148 1.429 . S
C1145 C1128 1.574 . S
C1145 H1139 0.949 . S
C1145 C1149 1.368 . S
C1146 C1127 1.429 . S
C1146 C1140 1.429 . S
C1146 C1147 1.523 . S
C1147 C1128 1.368 . S
C1147 C1141 1.368 . S
C1147 C1146 1.523 . S
C1148 C1132 1.429 . S
C1148 C1144 1.429 . S
C1148 C1149 1.523 . S
C1149 C1133 1.368 . S
C1149 C1145 1.368 . S
C1149 C1148 1.523 . S
H1150 C1125 0.950 . S
H1151 C1127 0.950 . S
H1152 C1128 0.949 . S
H1153 C1130 0.950 . S
H1154 C1132 0.950 . S
C1155 C1156 1.349 . S
C1155 C1157 1.327 . S
C1155 H1180 0.950 . S
C1156 C1155 1.349 . S
C1156 C1172 1.349 . S
C1157 C1155 1.327 . S
C1157 C1176 1.429 . S
C1157 H1181 0.950 . S
C1158 C1175 1.574 . S
C1158 C1177 1.368 . S
C1158 H1182 0.949 . S
H1159 C1163 0.949 . S
C1160 C1161 1.349 . S
C1160 C1162 1.327 . S
C1160 H1183 0.950 . S
C1161 C1160 1.349 . S
C1161 C1173 1.349 . S
C1162 C1160 1.327 . S
C1162 C1178 1.429 . S
C1162 H1184 0.950 . S
C1163 H1159 0.949 . S
C1163 C1171 1.574 . S
C1163 C1179 1.368 . S
H1164 C1172 0.950 . S
H1165 C1170 0.950 . S
H1166 C1171 0.949 . S
H1167 C1173 0.950 . S
H1168 C1174 0.950 . S
H1169 C1175 0.949 . S
C1170 H1165 0.950 . S
C1170 C1172 1.327 . S
C1170 C1176 1.429 . S
C1171 C1163 1.574 . S
C1171 H1166 0.949 . S
C1171 C1177 1.368 . S
C1172 C1156 1.349 . S
C1172 H1164 0.950 . S
C1172 C1170 1.327 . S
C1173 C1161 1.349 . S
C1173 H1167 0.950 . S
C1173 C1174 1.327 . S
C1174 H1168 0.950 . S
C1174 C1173 1.327 . S
C1174 C1178 1.429 . S
C1175 C1158 1.574 . S
C1175 H1169 0.949 . S
C1175 C1179 1.368 . S
C1176 C1157 1.429 . S
C1176 C1170 1.429 . S
C1176 C1177 1.523 . S
C1177 C1158 1.368 . S
C1177 C1171 1.368 . S
C1177 C1176 1.523 . S
C1178 C1162 1.429 . S
C1178 C1174 1.429 . S
C1178 C1179 1.523 . S
C1179 C1163 1.368 . S
C1179 C1175 1.368 . S
C1179 C1178 1.523 . S
H1180 C1155 0.950 . S
H1181 C1157 0.950 . S
H1182 C1158 0.949 . S
H1183 C1160 0.950 . S
H1184 C1162 0.950 . S
C1185 C1186 1.349 . S
C1185 C1187 1.327 . S
C1185 H1210 0.950 . S
C1186 C1185 1.349 . S
C1186 C1202 1.349 . S
C1187 C1185 1.327 . S
C1187 C1206 1.429 . S
C1187 H1211 0.950 . S
C1188 C1205 1.574 . S
C1188 C1207 1.368 . S
C1188 H1212 0.949 . S
H1189 C1193 0.949 . S
C1190 C1191 1.349 . S
C1190 C1192 1.327 . S
C1190 H1213 0.950 . S
C1191 C1190 1.349 . S
C1191 C1203 1.349 . S
C1192 C1190 1.327 . S
C1192 C1208 1.429 . S
C1192 H1214 0.950 . S
C1193 H1189 0.949 . S
C1193 C1201 1.574 . S
C1193 C1209 1.368 . S
H1194 C1202 0.950 . S
H1195 C1200 0.950 . S
H1196 C1201 0.949 . S
H1197 C1203 0.950 . S
H1198 C1204 0.950 . S
H1199 C1205 0.949 . S
C1200 H1195 0.950 . S
C1200 C1202 1.327 . S
C1200 C1206 1.429 . S
C1201 C1193 1.574 . S
C1201 H1196 0.949 . S
C1201 C1207 1.368 . S
C1202 C1186 1.349 . S
C1202 H1194 0.950 . S
C1202 C1200 1.327 . S
C1203 C1191 1.349 . S
C1203 H1197 0.950 . S
C1203 C1204 1.327 . S
C1204 H1198 0.950 . S
C1204 C1203 1.327 . S
C1204 C1208 1.429 . S
C1205 C1188 1.574 . S
C1205 H1199 0.949 . S
C1205 C1209 1.368 . S
C1206 C1187 1.429 . S
C1206 C1200 1.429 . S
C1206 C1207 1.523 . S
C1207 C1188 1.368 . S
C1207 C1201 1.368 . S
C1207 C1206 1.523 . S
C1208 C1192 1.429 . S
C1208 C1204 1.429 . S
C1208 C1209 1.523 . S
C1209 C1193 1.368 . S
C1209 C1205 1.368 . S
C1209 C1208 1.523 . S
H1210 C1185 0.950 . S
H1211 C1187 0.950 . S
H1212 C1188 0.949 . S
H1213 C1190 0.950 . S
H1214 C1192 0.950 . S
C1215 C1216 1.349 . S
C1215 C1217 1.327 . S
C1215 H1240 0.950 . S
C1216 C1215 1.349 . S
C1216 C1232 1.349 . S
C1217 C1215 1.327 . S
C1217 C1236 1.429 . S
C1217 H1241 0.950 . S
C1218 C1235 1.574 1_565 S
C1218 C1237 1.368 . S
C1218 H1242 0.949 . S
H1219 C1223 0.949 . S
C1220 C1221 1.349 . S
C1220 C1222 1.327 . S
C1220 H1243 0.950 . S
C1221 C1220 1.349 . S
C1221 C1233 1.349 . S
C1222 C1220 1.327 . S
C1222 C1238 1.429 . S
C1222 H1244 0.950 . S
C1223 H1219 0.949 . S
C1223 C1231 1.574 1_545 S
C1223 C1239 1.368 . S
H1224 C1232 0.950 . S
H1225 C1230 0.950 . S
H1226 C1231 0.949 . S
H1227 C1233 0.950 . S
H1228 C1234 0.950 . S
H1229 C1235 0.949 . S
C1230 H1225 0.950 . S
C1230 C1232 1.327 . S
C1230 C1236 1.429 . S
C1231 C1223 1.574 1_565 S
C1231 H1226 0.949 . S
C1231 C1237 1.368 . S
C1232 C1216 1.349 . S
C1232 H1224 0.950 . S
C1232 C1230 1.327 . S
C1233 C1221 1.349 . S
C1233 H1227 0.950 . S
C1233 C1234 1.327 . S
C1234 H1228 0.950 . S
C1234 C1233 1.327 . S
C1234 C1238 1.429 . S
C1235 C1218 1.574 1_545 S
C1235 H1229 0.949 . S
C1235 C1239 1.368 . S
C1236 C1217 1.429 . S
C1236 C1230 1.429 . S
C1236 C1237 1.523 . S
C1237 C1218 1.368 . S
C1237 C1231 1.368 . S
C1237 C1236 1.523 . S
C1238 C1222 1.429 . S
C1238 C1234 1.429 . S
C1238 C1239 1.523 . S
C1239 C1223 1.368 . S
C1239 C1235 1.368 . S
C1239 C1238 1.523 . S
H1240 C1215 0.950 . S
H1241 C1217 0.950 . S
H1242 C1218 0.949 . S
H1243 C1220 0.950 . S
H1244 C1222 0.950 . S
C1245 C1246 1.349 . S
C1245 C1247 1.327 . S
C1245 H1270 0.950 . S
C1246 C1245 1.349 . S
C1246 C1262 1.349 . S
C1247 C1245 1.327 . S
C1247 C1266 1.429 . S
C1247 H1271 0.950 . S
C1248 C1265 1.574 1_455 S
C1248 C1267 1.368 . S
C1248 H1272 0.949 . S
H1249 C1253 0.949 1_655 S
C1250 C1251 1.349 . S
C1250 C1252 1.327 . S
C1250 H1273 0.950 . S
C1251 C1250 1.349 . S
C1251 C1263 1.349 . S
C1252 C1250 1.327 . S
C1252 C1268 1.429 . S
C1252 H1274 0.950 . S
C1253 H1249 0.949 1_455 S
C1253 C1261 1.573 . S
C1253 C1269 1.368 1_455 S
H1254 C1262 0.950 . S
H1255 C1260 0.950 . S
H1256 C1261 0.949 . S
H1257 C1263 0.950 . S
H1258 C1264 0.950 . S
H1259 C1265 0.949 . S
C1260 H1255 0.950 . S
C1260 C1262 1.327 . S
C1260 C1266 1.429 . S
C1261 C1253 1.573 . S
C1261 H1256 0.949 . S
C1261 C1267 1.368 . S
C1262 C1246 1.349 . S
C1262 H1254 0.950 . S
C1262 C1260 1.327 . S
C1263 C1251 1.349 . S
C1263 H1257 0.950 . S
C1263 C1264 1.327 . S
C1264 H1258 0.950 . S
C1264 C1263 1.327 . S
C1264 C1268 1.429 . S
C1265 C1248 1.574 1_655 S
C1265 H1259 0.949 . S
C1265 C1269 1.368 . S
C1266 C1247 1.429 . S
C1266 C1260 1.429 . S
C1266 C1267 1.523 . S
C1267 C1248 1.368 . S
C1267 C1261 1.368 . S
C1267 C1266 1.523 . S
C1268 C1252 1.429 . S
C1268 C1264 1.429 . S
C1268 C1269 1.523 . S
C1269 C1253 1.368 1_655 S
C1269 C1265 1.368 . S
C1269 C1268 1.523 . S
H1270 C1245 0.950 . S
H1271 C1247 0.950 . S
H1272 C1248 0.949 . S
H1273 C1250 0.950 . S
H1274 C1252 0.950 . S
C1275 C1276 1.349 . S
C1275 C1277 1.327 . S
C1275 H1300 0.950 . S
C1276 C1275 1.349 . S
C1276 C1292 1.349 . S
C1277 C1275 1.327 . S
C1277 C1296 1.429 . S
C1277 H1301 0.950 . S
C1278 C1295 1.574 . S
C1278 C1297 1.368 . S
C1278 H1302 0.949 . S
H1279 C1283 0.949 . S
C1280 C1281 1.349 . S
C1280 C1282 1.327 . S
C1280 H1303 0.950 . S
C1281 C1280 1.349 . S
C1281 C1293 1.349 . S
C1282 C1280 1.327 . S
C1282 C1298 1.429 . S
C1282 H1304 0.950 . S
C1283 H1279 0.949 . S
C1283 C1291 1.574 . S
C1283 C1299 1.368 . S
H1284 C1292 0.950 . S
H1285 C1290 0.950 . S
H1286 C1291 0.949 . S
H1287 C1293 0.950 . S
H1288 C1294 0.950 . S
H1289 C1295 0.949 . S
C1290 H1285 0.950 . S
C1290 C1292 1.327 . S
C1290 C1296 1.429 . S
C1291 C1283 1.574 . S
C1291 H1286 0.949 . S
C1291 C1297 1.368 . S
C1292 C1276 1.349 . S
C1292 H1284 0.950 . S
C1292 C1290 1.327 . S
C1293 C1281 1.349 . S
C1293 H1287 0.950 . S
C1293 C1294 1.327 . S
C1294 H1288 0.950 . S
C1294 C1293 1.327 . S
C1294 C1298 1.429 . S
C1295 C1278 1.574 . S
C1295 H1289 0.949 . S
C1295 C1299 1.368 . S
C1296 C1277 1.429 . S
C1296 C1290 1.429 . S
C1296 C1297 1.523 . S
C1297 C1278 1.368 . S
C1297 C1291 1.368 . S
C1297 C1296 1.523 . S
C1298 C1282 1.429 . S
C1298 C1294 1.429 . S
C1298 C1299 1.523 . S
C1299 C1283 1.368 . S
C1299 C1295 1.368 . S
C1299 C1298 1.523 . S
H1300 C1275 0.950 . S
H1301 C1277 0.950 . S
H1302 C1278 0.949 . S
H1303 C1280 0.950 . S
H1304 C1282 0.950 . S
C1305 C1306 1.349 . S
C1305 C1307 1.327 . S
C1305 H1330 0.950 . S
C1306 C1305 1.349 . S
C1306 C1322 1.349 . S
C1307 C1305 1.327 . S
C1307 C1326 1.429 . S
C1307 H1331 0.950 . S
C1308 C1325 1.574 . S
C1308 C1327 1.368 . S
C1308 H1332 0.949 . S
H1309 C1313 0.949 . S
C1310 C1311 1.349 . S
C1310 C1312 1.327 . S
C1310 H1333 0.950 . S
C1311 C1310 1.349 . S
C1311 C1323 1.349 . S
C1312 C1310 1.327 . S
C1312 C1328 1.429 . S
C1312 H1334 0.950 . S
C1313 H1309 0.949 . S
C1313 C1321 1.574 . S
C1313 C1329 1.368 . S
H1314 C1322 0.950 . S
H1315 C1320 0.950 . S
H1316 C1321 0.949 . S
H1317 C1323 0.950 . S
H1318 C1324 0.950 . S
H1319 C1325 0.949 . S
C1320 H1315 0.950 . S
C1320 C1322 1.327 . S
C1320 C1326 1.429 . S
C1321 C1313 1.574 . S
C1321 H1316 0.949 . S
C1321 C1327 1.368 . S
C1322 C1306 1.349 . S
C1322 H1314 0.950 . S
C1322 C1320 1.327 . S
C1323 C1311 1.349 . S
C1323 H1317 0.950 . S
C1323 C1324 1.327 . S
C1324 H1318 0.950 . S
C1324 C1323 1.327 . S
C1324 C1328 1.429 . S
C1325 C1308 1.574 . S
C1325 H1319 0.949 . S
C1325 C1329 1.368 . S
C1326 C1307 1.429 . S
C1326 C1320 1.429 . S
C1326 C1327 1.523 1_455 S
C1327 C1308 1.368 . S
C1327 C1321 1.368 . S
C1327 C1326 1.523 1_655 S
C1328 C1312 1.429 . S
C1328 C1324 1.429 . S
C1328 C1329 1.523 . S
C1329 C1313 1.368 . S
C1329 C1325 1.368 . S
C1329 C1328 1.523 . S
H1330 C1305 0.950 . S
H1331 C1307 0.950 . S
H1332 C1308 0.949 . S
H1333 C1310 0.950 . S
H1334 C1312 0.950 . S
C1335 C1336 1.349 . S
C1335 C1337 1.327 . S
C1335 H1360 0.950 . S
C1336 C1335 1.349 . S
C1336 C1352 1.349 . S
C1337 C1335 1.327 . S
C1337 C1356 1.429 . S
C1337 H1361 0.950 . S
C1338 C1355 1.574 . S
C1338 C1357 1.368 . S
C1338 H1362 0.949 . S
H1339 C1343 0.949 . S
C1340 C1341 1.349 . S
C1340 C1342 1.327 . S
C1340 H1363 0.950 . S
C1341 C1340 1.349 . S
C1341 C1353 1.349 . S
C1342 C1340 1.327 . S
C1342 C1358 1.429 . S
C1342 H1364 0.950 . S
C1343 H1339 0.949 . S
C1343 C1351 1.574 . S
C1343 C1359 1.368 . S
H1344 C1352 0.950 . S
H1345 C1350 0.950 . S
H1346 C1351 0.949 . S
H1347 C1353 0.950 . S
H1348 C1354 0.950 . S
H1349 C1355 0.949 . S
C1350 H1345 0.950 . S
C1350 C1352 1.327 . S
C1350 C1356 1.429 . S
C1351 C1343 1.574 . S
C1351 H1346 0.949 . S
C1351 C1357 1.368 . S
C1352 C1336 1.349 . S
C1352 H1344 0.950 . S
C1352 C1350 1.327 . S
C1353 C1341 1.349 . S
C1353 H1347 0.950 . S
C1353 C1354 1.327 . S
C1354 H1348 0.950 . S
C1354 C1353 1.327 . S
C1354 C1358 1.429 . S
C1355 C1338 1.574 . S
C1355 H1349 0.949 . S
C1355 C1359 1.368 . S
C1356 C1337 1.429 . S
C1356 C1350 1.429 . S
C1356 C1357 1.523 . S
C1357 C1338 1.368 . S
C1357 C1351 1.368 . S
C1357 C1356 1.523 . S
C1358 C1342 1.429 . S
C1358 C1354 1.429 . S
C1358 C1359 1.523 . S
C1359 C1343 1.368 . S
C1359 C1355 1.368 . S
C1359 C1358 1.523 . S
H1360 C1335 0.950 . S
H1361 C1337 0.950 . S
H1362 C1338 0.949 . S
H1363 C1340 0.950 . S
H1364 C1342 0.950 . S
C1365 C1366 1.349 . S
C1365 C1367 1.327 . S
C1365 H1390 0.950 . S
C1366 C1365 1.349 . S
C1366 C1382 1.349 . S
C1367 C1365 1.327 . S
C1367 C1386 1.429 1_565 S
C1367 H1391 0.963 . S
C1368 C1385 1.574 . S
C1368 C1387 1.368 . S
C1368 H1392 0.949 . S
H1369 C1373 0.949 . S
C1370 C1371 1.349 . S
C1370 C1372 1.327 . S
C1370 H1393 0.950 . S
C1371 C1370 1.349 . S
C1371 C1383 1.349 . S
C1372 C1370 1.327 . S
C1372 C1388 1.429 . S
C1372 H1394 0.950 . S
C1373 H1369 0.949 . S
C1373 C1381 1.574 . S
C1373 C1389 1.368 . S
H1374 C1382 0.950 . S
H1375 C1380 0.950 . S
H1376 C1381 0.949 . S
H1377 C1383 0.950 . S
H1378 C1384 0.950 . S
H1379 C1385 0.949 . S
C1380 H1375 0.950 . S
C1380 C1382 1.327 . S
C1380 C1386 1.429 1_565 S
C1381 C1373 1.574 . S
C1381 H1376 0.949 . S
C1381 C1387 1.368 . S
C1382 C1366 1.349 . S
C1382 H1374 0.950 . S
C1382 C1380 1.327 . S
C1383 C1371 1.349 . S
C1383 H1377 0.950 . S
C1383 C1384 1.327 . S
C1384 H1378 0.950 . S
C1384 C1383 1.327 . S
C1384 C1388 1.429 . S
C1385 C1368 1.574 . S
C1385 H1379 0.949 . S
C1385 C1389 1.368 . S
C1386 C1367 1.429 1_545 S
C1386 C1380 1.429 1_545 S
C1386 C1387 1.523 . S
C1387 C1368 1.368 . S
C1387 C1381 1.368 . S
C1387 C1386 1.523 . S
C1388 C1372 1.429 . S
C1388 C1384 1.429 . S
C1388 C1389 1.523 . S
C1389 C1373 1.368 . S
C1389 C1385 1.368 . S
C1389 C1388 1.523 . S
H1390 C1365 0.950 . S
H1391 C1367 0.963 . S
H1392 C1368 0.949 . S
H1393 C1370 0.950 . S
H1394 C1372 0.950 . S
C1395 C1396 1.349 . S
C1395 C1397 1.327 . S
C1395 H1420 0.950 . S
C1396 C1395 1.349 . S
C1396 C1412 1.349 . S
C1397 C1395 1.327 . S
C1397 C1416 1.429 . S
C1397 H1421 0.950 . S
C1398 C1415 1.574 . S
C1398 C1417 1.368 . S
C1398 H1422 0.949 . S
H1399 C1403 0.949 . S
C1400 C1401 1.349 . S
C1400 C1402 1.327 . S
C1400 H1423 0.950 . S
C1401 C1400 1.349 . S
C1401 C1413 1.349 . S
C1402 C1400 1.327 . S
C1402 C1418 1.429 . S
C1402 H1424 0.950 . S
C1403 H1399 0.949 . S
C1403 C1411 1.574 . S
C1403 C1419 1.368 . S
H1404 C1412 0.950 . S
H1405 C1410 0.950 . S
H1406 C1411 0.949 . S
H1407 C1413 0.950 . S
H1408 C1414 0.950 . S
H1409 C1415 0.949 . S
C1410 H1405 0.950 . S
C1410 C1412 1.327 . S
C1410 C1416 1.429 . S
C1411 C1403 1.574 . S
C1411 H1406 0.949 . S
C1411 C1417 1.368 . S
C1412 C1396 1.349 . S
C1412 H1404 0.950 . S
C1412 C1410 1.327 . S
C1413 C1401 1.349 . S
C1413 H1407 0.950 . S
C1413 C1414 1.327 . S
C1414 H1408 0.950 . S
C1414 C1413 1.327 . S
C1414 C1418 1.429 . S
C1415 C1398 1.574 . S
C1415 H1409 0.949 . S
C1415 C1419 1.368 . S
C1416 C1397 1.429 . S
C1416 C1410 1.429 . S
C1416 C1417 1.523 . S
C1417 C1398 1.368 . S
C1417 C1411 1.368 . S
C1417 C1416 1.523 . S
C1418 C1402 1.429 . S
C1418 C1414 1.429 . S
C1418 C1419 1.523 . S
C1419 C1403 1.368 . S
C1419 C1415 1.368 . S
C1419 C1418 1.523 . S
H1420 C1395 0.950 . S
H1421 C1397 0.950 . S
H1422 C1398 0.949 . S
H1423 C1400 0.950 . S
H1424 C1402 0.950 . S
C1425 C1426 1.349 . S
C1425 C1427 1.327 . S
C1425 H1450 0.950 . S
C1426 C1425 1.349 . S
C1426 C1442 1.349 . S
C1427 C1425 1.327 . S
C1427 C1446 1.429 . S
C1427 H1451 0.950 . S
C1428 C1445 1.574 . S
C1428 C1447 1.368 . S
C1428 H1452 0.949 . S
H1429 C1433 0.949 . S
C1430 C1431 1.349 . S
C1430 C1432 1.327 . S
C1430 H1453 0.950 . S
C1431 C1430 1.349 . S
C1431 C1443 1.349 . S
C1432 C1430 1.327 . S
C1432 C1448 1.429 . S
C1432 H1454 0.950 . S
C1433 H1429 0.949 . S
C1433 C1441 1.574 . S
C1433 C1449 1.368 . S
H1434 C1442 0.950 . S
H1435 C1440 0.950 . S
H1436 C1441 0.949 . S
H1437 C1443 0.950 . S
H1438 C1444 0.950 . S
H1439 C1445 0.949 . S
C1440 H1435 0.950 . S
C1440 C1442 1.327 . S
C1440 C1446 1.429 . S
C1441 C1433 1.574 . S
C1441 H1436 0.949 . S
C1441 C1447 1.368 . S
C1442 C1426 1.349 . S
C1442 H1434 0.950 . S
C1442 C1440 1.327 . S
C1443 C1431 1.349 . S
C1443 H1437 0.950 . S
C1443 C1444 1.327 . S
C1444 H1438 0.950 . S
C1444 C1443 1.327 . S
C1444 C1448 1.429 . S
C1445 C1428 1.574 . S
C1445 H1439 0.949 . S
C1445 C1449 1.368 . S
C1446 C1427 1.429 . S
C1446 C1440 1.429 . S
C1446 C1447 1.523 . S
C1447 C1428 1.368 . S
C1447 C1441 1.368 . S
C1447 C1446 1.523 . S
C1448 C1432 1.429 . S
C1448 C1444 1.429 . S
C1448 C1449 1.523 . S
C1449 C1433 1.368 . S
C1449 C1445 1.368 . S
C1449 C1448 1.523 . S
H1450 C1425 0.950 . S
H1451 C1427 0.950 . S
H1452 C1428 0.949 . S
H1453 C1430 0.950 . S
H1454 C1432 0.950 . S
C1455 C1456 1.349 . S
C1455 C1457 1.327 . S
C1455 H1480 0.950 . S
C1456 C1455 1.349 . S
C1456 C1472 1.349 . S
C1457 C1455 1.327 . S
C1457 C1476 1.429 . S
C1457 H1481 0.950 . S
C1458 C1475 1.574 . S
C1458 C1477 1.368 . S
C1458 H1482 0.949 . S
H1459 C1463 0.949 . S
C1460 C1461 1.349 . S
C1460 C1462 1.327 . S
C1460 H1483 0.950 . S
C1461 C1460 1.349 . S
C1461 C1473 1.349 . S
C1462 C1460 1.327 . S
C1462 C1478 1.429 . S
C1462 H1484 0.950 . S
C1463 H1459 0.949 . S
C1463 C1471 1.574 . S
C1463 C1479 1.368 . S
H1464 C1472 0.950 . S
H1465 C1470 0.950 . S
H1466 C1471 0.949 . S
H1467 C1473 0.950 . S
H1468 C1474 0.950 . S
H1469 C1475 0.949 . S
C1470 H1465 0.950 . S
C1470 C1472 1.327 . S
C1470 C1476 1.429 . S
C1471 C1463 1.574 . S
C1471 H1466 0.949 . S
C1471 C1477 1.368 . S
C1472 C1456 1.349 . S
C1472 H1464 0.950 . S
C1472 C1470 1.327 . S
C1473 C1461 1.349 . S
C1473 H1467 0.950 . S
C1473 C1474 1.327 . S
C1474 H1468 0.950 . S
C1474 C1473 1.327 . S
C1474 C1478 1.429 . S
C1475 C1458 1.574 . S
C1475 H1469 0.949 . S
C1475 C1479 1.368 . S
C1476 C1457 1.429 . S
C1476 C1470 1.429 . S
C1476 C1477 1.523 . S
C1477 C1458 1.368 . S
C1477 C1471 1.368 . S
C1477 C1476 1.523 . S
C1478 C1462 1.429 . S
C1478 C1474 1.429 . S
C1478 C1479 1.523 . S
C1479 C1463 1.368 . S
C1479 C1475 1.368 . S
C1479 C1478 1.523 . S
H1480 C1455 0.950 . S
H1481 C1457 0.950 . S
H1482 C1458 0.949 . S
H1483 C1460 0.950 . S
H1484 C1462 0.950 . S
C1485 C1486 1.349 . S
C1485 C1487 1.327 . S
C1485 H1510 0.950 . S
C1486 C1485 1.349 . S
C1486 C1502 1.349 . S
C1487 C1485 1.327 . S
C1487 C1506 1.429 . S
C1487 H1511 0.950 . S
C1488 C1505 1.574 . S
C1488 C1507 1.368 . S
C1488 H1512 0.949 . S
H1489 C1493 0.949 . S
C1490 C1491 1.349 . S
C1490 C1492 1.327 . S
C1490 H1513 0.950 . S
C1491 C1490 1.349 . S
C1491 C1503 1.349 1_565 S
C1492 C1490 1.327 . S
C1492 C1508 1.429 . S
C1492 H1514 0.950 . S
C1493 H1489 0.949 . S
C1493 C1501 1.574 . S
C1493 C1509 1.368 . S
H1494 C1502 0.950 . S
H1495 C1500 0.950 . S
H1496 C1501 0.949 . S
H1497 C1503 0.950 . S
H1498 C1504 0.950 1_545 S
H1499 C1505 0.949 . S
C1500 H1495 0.950 . S
C1500 C1502 1.327 . S
C1500 C1506 1.429 . S
C1501 C1493 1.574 . S
C1501 H1496 0.949 . S
C1501 C1507 1.368 . S
C1502 C1486 1.349 . S
C1502 H1494 0.950 . S
C1502 C1500 1.327 . S
C1503 C1491 1.349 1_545 S
C1503 H1497 0.950 . S
C1503 C1504 1.327 1_545 S
C1504 H1498 0.950 1_565 S
C1504 C1503 1.327 1_565 S
C1504 C1508 1.429 . S
C1505 C1488 1.574 . S
C1505 H1499 0.949 . S
C1505 C1509 1.368 . S
C1506 C1487 1.429 . S
C1506 C1500 1.429 . S
C1506 C1507 1.523 . S
C1507 C1488 1.368 . S
C1507 C1501 1.368 . S
C1507 C1506 1.523 . S
C1508 C1492 1.429 . S
C1508 C1504 1.429 . S
C1508 C1509 1.523 . S
C1509 C1493 1.368 . S
C1509 C1505 1.368 . S
C1509 C1508 1.523 . S
H1510 C1485 0.950 . S
H1511 C1487 0.950 . S
H1512 C1488 0.949 . S
H1513 C1490 0.950 . S
H1514 C1492 0.950 . S
C1515 C1516 1.349 . S
C1515 C1517 1.327 . S
C1515 H1540 0.950 . S
C1516 C1515 1.349 . S
C1516 C1532 1.349 . S
C1517 C1515 1.327 . S
C1517 C1536 1.429 . S
C1517 H1541 0.950 . S
C1518 C1535 1.574 . S
C1518 C1537 1.368 . S
C1518 H1542 0.949 . S
H1519 C1523 0.949 . S
C1520 C1521 1.349 . S
C1520 C1522 1.327 . S
C1520 H1543 0.921 1_455 S
C1521 C1520 1.349 . S
C1521 C1533 1.349 . S
C1522 C1520 1.327 . S
C1522 C1538 1.429 . S
C1522 H1544 0.950 . S
C1523 H1519 0.949 . S
C1523 C1531 1.574 . S
C1523 C1539 1.368 . S
H1524 C1532 0.950 . S
H1525 C1530 0.950 . S
H1526 C1531 0.949 . S
H1527 C1533 0.950 . S
H1528 C1534 0.950 . S
H1529 C1535 0.949 . S
C1530 H1525 0.950 . S
C1530 C1532 1.327 . S
C1530 C1536 1.429 . S
C1531 C1523 1.574 . S
C1531 H1526 0.949 . S
C1531 C1537 1.368 . S
C1532 C1516 1.349 . S
C1532 H1524 0.950 . S
C1532 C1530 1.327 . S
C1533 C1521 1.349 . S
C1533 H1527 0.950 . S
C1533 C1534 1.327 . S
C1534 H1528 0.950 . S
C1534 C1533 1.327 . S
C1534 C1538 1.429 . S
C1535 C1518 1.574 . S
C1535 H1529 0.949 . S
C1535 C1539 1.368 . S
C1536 C1517 1.429 . S
C1536 C1530 1.429 . S
C1536 C1537 1.523 . S
C1537 C1518 1.368 . S
C1537 C1531 1.368 . S
C1537 C1536 1.523 . S
C1538 C1522 1.429 . S
C1538 C1534 1.429 . S
C1538 C1539 1.523 . S
C1539 C1523 1.368 . S
C1539 C1535 1.368 . S
C1539 C1538 1.523 . S
H1540 C1515 0.950 . S
H1541 C1517 0.950 . S
H1542 C1518 0.949 . S
H1543 C1520 0.921 1_655 S
H1544 C1522 0.950 . S
C1545 C1546 1.349 . S
C1545 C1547 1.327 . S
C1545 H1570 0.950 . S
C1546 C1545 1.349 . S
C1546 C1562 1.349 . S
C1547 C1545 1.327 . S
C1547 C1566 1.429 . S
C1547 H1571 0.950 . S
C1548 C1565 1.574 . S
C1548 C1567 1.368 . S
C1548 H1572 0.949 . S
H1549 C1553 0.949 . S
C1550 C1551 1.349 . S
C1550 C1552 1.327 . S
C1550 H1573 0.950 . S
C1551 C1550 1.349 . S
C1551 C1563 1.349 . S
C1552 C1550 1.327 . S
C1552 C1568 1.429 . S
C1552 H1574 0.950 . S
C1553 H1549 0.949 . S
C1553 C1561 1.574 . S
C1553 C1569 1.368 . S
H1554 C1562 0.950 . S
H1555 C1560 0.950 . S
H1556 C1561 0.949 . S
H1557 C1563 0.950 . S
H1558 C1564 0.950 . S
H1559 C1565 0.949 . S
C1560 H1555 0.950 . S
C1560 C1562 1.327 . S
C1560 C1566 1.429 . S
C1561 C1553 1.574 . S
C1561 H1556 0.949 . S
C1561 C1567 1.368 . S
C1562 C1546 1.349 . S
C1562 H1554 0.950 . S
C1562 C1560 1.327 . S
C1563 C1551 1.349 . S
C1563 H1557 0.950 . S
C1563 C1564 1.327 . S
C1564 H1558 0.950 . S
C1564 C1563 1.327 . S
C1564 C1568 1.429 . S
C1565 C1548 1.574 . S
C1565 H1559 0.949 . S
C1565 C1569 1.368 . S
C1566 C1547 1.429 . S
C1566 C1560 1.429 . S
C1566 C1567 1.523 . S
C1567 C1548 1.368 . S
C1567 C1561 1.368 . S
C1567 C1566 1.523 . S
C1568 C1552 1.429 . S
C1568 C1564 1.429 . S
C1568 C1569 1.523 . S
C1569 C1553 1.368 . S
C1569 C1565 1.368 . S
C1569 C1568 1.523 . S
H1570 C1545 0.950 . S
H1571 C1547 0.950 . S
H1572 C1548 0.949 . S
H1573 C1550 0.950 . S
H1574 C1552 0.950 . S
C1575 C1576 1.349 . S
C1575 C1577 1.327 . S
C1575 H1600 0.950 . S
C1576 C1575 1.349 . S
C1576 C1592 1.349 . S
C1577 C1575 1.327 . S
C1577 C1596 1.429 . S
C1577 H1601 0.950 . S
C1578 C1595 1.574 . S
C1578 C1597 1.368 . S
C1578 H1602 0.949 . S
H1579 C1583 0.949 . S
C1580 C1581 1.349 . S
C1580 C1582 1.327 . S
C1580 H1603 0.950 . S
C1581 C1580 1.349 . S
C1581 C1593 1.349 . S
C1582 C1580 1.327 . S
C1582 C1598 1.429 . S
C1582 H1604 0.950 . S
C1583 H1579 0.949 . S
C1583 C1591 1.574 . S
C1583 C1599 1.368 . S
H1584 C1592 0.950 . S
H1585 C1590 0.950 . S
H1586 C1591 0.949 . S
H1587 C1593 0.950 . S
H1588 C1594 0.950 . S
H1589 C1595 0.949 . S
C1590 H1585 0.950 . S
C1590 C1592 1.327 . S
C1590 C1596 1.429 . S
C1591 C1583 1.574 . S
C1591 H1586 0.949 . S
C1591 C1597 1.368 . S
C1592 C1576 1.349 . S
C1592 H1584 0.950 . S
C1592 C1590 1.327 . S
C1593 C1581 1.349 . S
C1593 H1587 0.950 . S
C1593 C1594 1.327 . S
C1594 H1588 0.950 . S
C1594 C1593 1.327 . S
C1594 C1598 1.429 . S
C1595 C1578 1.574 . S
C1595 H1589 0.949 . S
C1595 C1599 1.368 . S
C1596 C1577 1.429 . S
C1596 C1590 1.429 . S
C1596 C1597 1.523 . S
C1597 C1578 1.368 . S
C1597 C1591 1.368 . S
C1597 C1596 1.523 . S
C1598 C1582 1.429 . S
C1598 C1594 1.429 . S
C1598 C1599 1.523 . S
C1599 C1583 1.368 . S
C1599 C1595 1.368 . S
C1599 C1598 1.523 . S
H1600 C1575 0.950 . S
H1601 C1577 0.950 . S
H1602 C1578 0.949 . S
H1603 C1580 0.950 . S
H1604 C1582 0.950 . S
C1605 C1606 1.349 . S
C1605 C1607 1.327 . S
C1605 H1630 0.950 . S
C1606 C1605 1.349 . S
C1606 C1622 1.349 . S
C1607 C1605 1.327 . S
C1607 C1626 1.429 . S
C1607 H1631 0.950 . S
C1608 C1625 1.574 . S
C1608 C1627 1.368 . S
C1608 H1632 0.949 . S
H1609 C1613 0.949 . S
C1610 C1611 1.349 . S
C1610 C1612 1.327 . S
C1610 H1633 0.950 . S
C1611 C1610 1.349 . S
C1611 C1623 1.349 . S
C1612 C1610 1.327 . S
C1612 C1628 1.429 . S
C1612 H1634 0.950 . S
C1613 H1609 0.949 . S
C1613 C1621 1.574 . S
C1613 C1629 1.368 . S
H1614 C1622 0.950 . S
H1615 C1620 0.950 . S
H1616 C1621 0.949 . S
H1617 C1623 0.950 . S
H1618 C1624 0.950 . S
H1619 C1625 0.949 . S
C1620 H1615 0.950 . S
C1620 C1622 1.327 . S
C1620 C1626 1.429 . S
C1621 C1613 1.574 . S
C1621 H1616 0.949 . S
C1621 C1627 1.368 . S
C1622 C1606 1.349 . S
C1622 H1614 0.950 . S
C1622 C1620 1.327 . S
C1623 C1611 1.349 . S
C1623 H1617 0.950 . S
C1623 C1624 1.327 . S
C1624 H1618 0.950 . S
C1624 C1623 1.327 . S
C1624 C1628 1.429 . S
C1625 C1608 1.574 . S
C1625 H1619 0.949 . S
C1625 C1629 1.368 . S
C1626 C1607 1.429 . S
C1626 C1620 1.429 . S
C1626 C1627 1.523 . S
C1627 C1608 1.368 . S
C1627 C1621 1.368 . S
C1627 C1626 1.523 . S
C1628 C1612 1.429 . S
C1628 C1624 1.429 . S
C1628 C1629 1.523 . S
C1629 C1613 1.368 . S
C1629 C1625 1.368 . S
C1629 C1628 1.523 . S
H1630 C1605 0.950 . S
H1631 C1607 0.950 . S
H1632 C1608 0.949 . S
H1633 C1610 0.950 . S
H1634 C1612 0.950 . S
C1635 C1636 1.349 . S
C1635 C1637 1.327 . S
C1635 H1660 0.950 . S
C1636 C1635 1.349 . S
C1636 C1652 1.349 . S
C1637 C1635 1.327 . S
C1637 C1656 1.429 . S
C1637 H1661 0.950 . S
C1638 C1655 1.574 . S
C1638 C1657 1.368 . S
C1638 H1662 0.949 . S
H1639 C1643 0.949 . S
C1640 C1641 1.349 . S
C1640 C1642 1.327 . S
C1640 H1663 0.950 . S
C1641 C1640 1.349 . S
C1641 C1653 1.349 . S
C1642 C1640 1.327 . S
C1642 C1658 1.429 . S
C1642 H1664 0.950 . S
C1643 H1639 0.949 . S
C1643 C1651 1.574 . S
C1643 C1659 1.368 . S
H1644 C1652 0.950 . S
H1645 C1650 0.950 . S
H1646 C1651 0.949 . S
H1647 C1653 0.950 . S
H1648 C1654 0.950 . S
H1649 C1655 0.949 . S
C1650 H1645 0.950 . S
C1650 C1652 1.327 . S
C1650 C1656 1.429 . S
C1651 C1643 1.574 . S
C1651 H1646 0.949 . S
C1651 C1657 1.368 . S
C1652 C1636 1.349 . S
C1652 H1644 0.950 . S
C1652 C1650 1.327 . S
C1653 C1641 1.349 . S
C1653 H1647 0.950 . S
C1653 C1654 1.327 . S
C1654 H1648 0.950 . S
C1654 C1653 1.327 . S
C1654 C1658 1.429 . S
C1655 C1638 1.574 . S
C1655 H1649 0.949 . S
C1655 C1659 1.368 . S
C1656 C1637 1.429 . S
C1656 C1650 1.429 . S
C1656 C1657 1.523 . S
C1657 C1638 1.368 . S
C1657 C1651 1.368 . S
C1657 C1656 1.523 . S
C1658 C1642 1.429 . S
C1658 C1654 1.429 . S
C1658 C1659 1.523 . S
C1659 C1643 1.368 . S
C1659 C1655 1.368 . S
C1659 C1658 1.523 . S
H1660 C1635 0.950 . S
H1661 C1637 0.950 . S
H1662 C1638 0.949 . S
H1663 C1640 0.950 . S
H1664 C1642 0.950 . S
C1665 C1666 1.349 . S
C1665 C1667 1.327 . S
C1665 H1690 0.950 . S
C1666 C1665 1.349 . S
C1666 C1682 1.349 . S
C1667 C1665 1.327 . S
C1667 C1686 1.429 . S
C1667 H1691 0.950 . S
C1668 C1685 1.574 . S
C1668 C1687 1.368 . S
C1668 H1692 0.949 . S
H1669 C1673 0.949 . S
C1670 C1671 1.349 . S
C1670 C1672 1.327 . S
C1670 H1693 0.950 . S
C1671 C1670 1.349 . S
C1671 C1683 1.349 . S
C1672 C1670 1.327 . S
C1672 C1688 1.429 . S
C1672 H1694 0.950 . S
C1673 H1669 0.949 . S
C1673 C1681 1.574 . S
C1673 C1689 1.368 . S
H1674 C1682 0.950 . S
H1675 C1680 0.950 . S
H1676 C1681 0.949 . S
H1677 C1683 0.950 . S
H1678 C1684 0.950 . S
H1679 C1685 0.949 . S
C1680 H1675 0.950 . S
C1680 C1682 1.327 . S
C1680 C1686 1.429 . S
C1681 C1673 1.574 . S
C1681 H1676 0.949 . S
C1681 C1687 1.368 . S
C1682 C1666 1.349 . S
C1682 H1674 0.950 . S
C1682 C1680 1.327 . S
C1683 C1671 1.349 . S
C1683 H1677 0.950 . S
C1683 C1684 1.327 . S
C1684 H1678 0.950 . S
C1684 C1683 1.327 . S
C1684 C1688 1.429 . S
C1685 C1668 1.574 . S
C1685 H1679 0.949 . S
C1685 C1689 1.368 . S
C1686 C1667 1.429 . S
C1686 C1680 1.429 . S
C1686 C1687 1.523 . S
C1687 C1668 1.368 . S
C1687 C1681 1.368 . S
C1687 C1686 1.523 . S
C1688 C1672 1.429 . S
C1688 C1684 1.429 . S
C1688 C1689 1.523 . S
C1689 C1673 1.368 . S
C1689 C1685 1.368 . S
C1689 C1688 1.523 . S
H1690 C1665 0.950 . S
H1691 C1667 0.950 . S
H1692 C1668 0.949 . S
H1693 C1670 0.950 . S
H1694 C1672 0.950 . S
C1695 C1696 1.349 . S
C1695 C1697 1.327 . S
C1695 H1720 0.950 . S
C1696 C1695 1.349 . S
C1696 C1712 1.349 . S
C1697 C1695 1.327 . S
C1697 C1716 1.429 . S
C1697 H1721 0.950 . S
C1698 C1715 1.574 . S
C1698 C1717 1.368 . S
C1698 H1722 0.949 . S
H1699 C1703 0.949 . S
C1700 C1701 1.349 . S
C1700 C1702 1.327 . S
C1700 H1723 0.950 . S
C1701 C1700 1.349 . S
C1701 C1713 1.349 . S
C1702 C1700 1.327 . S
C1702 C1718 1.429 . S
C1702 H1724 0.950 . S
C1703 H1699 0.949 . S
C1703 C1711 1.574 . S
C1703 C1719 1.368 . S
H1704 C1712 0.950 . S
H1705 C1710 0.950 . S
H1706 C1711 0.949 . S
H1707 C1713 0.950 . S
H1708 C1714 0.950 . S
H1709 C1715 0.949 . S
C1710 H1705 0.950 . S
C1710 C1712 1.327 . S
C1710 C1716 1.429 . S
C1711 C1703 1.574 . S
C1711 H1706 0.949 . S
C1711 C1717 1.368 . S
C1712 C1696 1.349 . S
C1712 H1704 0.950 . S
C1712 C1710 1.327 . S
C1713 C1701 1.349 . S
C1713 H1707 0.950 . S
C1713 C1714 1.327 . S
C1714 H1708 0.950 . S
C1714 C1713 1.327 . S
C1714 C1718 1.429 . S
C1715 C1698 1.574 . S
C1715 H1709 0.949 . S
C1715 C1719 1.368 . S
C1716 C1697 1.429 . S
C1716 C1710 1.429 . S
C1716 C1717 1.523 . S
C1717 C1698 1.368 . S
C1717 C1711 1.368 . S
C1717 C1716 1.523 . S
C1718 C1702 1.429 . S
C1718 C1714 1.429 . S
C1718 C1719 1.523 . S
C1719 C1703 1.368 . S
C1719 C1715 1.368 . S
C1719 C1718 1.523 . S
H1720 C1695 0.950 . S
H1721 C1697 0.950 . S
H1722 C1698 0.949 . S
H1723 C1700 0.950 . S
H1724 C1702 0.950 . S
C1725 C1726 1.349 . S
C1725 C1727 1.327 . S
C1725 H1750 0.950 . S
C1726 C1725 1.349 . S
C1726 C1742 1.349 . S
C1727 C1725 1.327 . S
C1727 C1746 1.429 . S
C1727 H1751 0.950 . S
C1728 C1745 1.574 . S
C1728 C1747 1.368 . S
C1728 H1752 0.949 . S
H1729 C1733 0.949 . S
C1730 C1731 1.349 . S
C1730 C1732 1.327 . S
C1730 H1753 0.950 . S
C1731 C1730 1.349 . S
C1731 C1743 1.349 . S
C1732 C1730 1.327 . S
C1732 C1748 1.429 . S
C1732 H1754 0.950 . S
C1733 H1729 0.949 . S
C1733 C1741 1.574 . S
C1733 C1749 1.368 . S
H1734 C1742 0.950 . S
H1735 C1740 0.950 . S
H1736 C1741 0.949 . S
H1737 C1743 0.950 . S
H1738 C1744 0.950 . S
H1739 C1745 0.949 . S
C1740 H1735 0.950 . S
C1740 C1742 1.327 . S
C1740 C1746 1.429 . S
C1741 C1733 1.574 . S
C1741 H1736 0.949 . S
C1741 C1747 1.368 . S
C1742 C1726 1.349 . S
C1742 H1734 0.950 . S
C1742 C1740 1.327 . S
C1743 C1731 1.349 . S
C1743 H1737 0.950 . S
C1743 C1744 1.327 . S
C1744 H1738 0.950 . S
C1744 C1743 1.327 . S
C1744 C1748 1.429 . S
C1745 C1728 1.574 . S
C1745 H1739 0.949 . S
C1745 C1749 1.368 . S
C1746 C1727 1.429 . S
C1746 C1740 1.429 . S
C1746 C1747 1.523 . S
C1747 C1728 1.368 . S
C1747 C1741 1.368 . S
C1747 C1746 1.523 . S
C1748 C1732 1.429 . S
C1748 C1744 1.429 . S
C1748 C1749 1.523 . S
C1749 C1733 1.368 . S
C1749 C1745 1.368 . S
C1749 C1748 1.523 . S
H1750 C1725 0.950 . S
H1751 C1727 0.950 . S
H1752 C1728 0.949 . S
H1753 C1730 0.950 . S
H1754 C1732 0.950 . S
C1755 C1756 1.349 . S
C1755 C1757 1.327 . S
C1755 H1780 0.950 . S
C1756 C1755 1.349 . S
C1756 C1772 1.349 . S
C1757 C1755 1.327 . S
C1757 C1776 1.429 . S
C1757 H1781 0.950 . S
C1758 C1775 1.574 . S
C1758 C1777 1.368 . S
C1758 H1782 0.949 . S
H1759 C1763 0.949 . S
C1760 C1761 1.349 . S
C1760 C1762 1.327 . S
C1760 H1783 0.950 . S
C1761 C1760 1.349 . S
C1761 C1773 1.349 . S
C1762 C1760 1.327 . S
C1762 C1778 1.429 . S
C1762 H1784 0.950 . S
C1763 H1759 0.949 . S
C1763 C1771 1.574 . S
C1763 C1779 1.368 . S
H1764 C1772 0.950 . S
H1765 C1770 0.950 . S
H1766 C1771 0.949 . S
H1767 C1773 0.950 . S
H1768 C1774 0.950 . S
H1769 C1775 0.949 . S
C1770 H1765 0.950 . S
C1770 C1772 1.327 . S
C1770 C1776 1.429 . S
C1771 C1763 1.574 . S
C1771 H1766 0.949 . S
C1771 C1777 1.368 . S
C1772 C1756 1.349 . S
C1772 H1764 0.950 . S
C1772 C1770 1.327 . S
C1773 C1761 1.349 . S
C1773 H1767 0.950 . S
C1773 C1774 1.327 . S
C1774 H1768 0.950 . S
C1774 C1773 1.327 . S
C1774 C1778 1.429 . S
C1775 C1758 1.574 . S
C1775 H1769 0.949 . S
C1775 C1779 1.368 . S
C1776 C1757 1.429 . S
C1776 C1770 1.429 . S
C1776 C1777 1.523 . S
C1777 C1758 1.368 . S
C1777 C1771 1.368 . S
C1777 C1776 1.523 . S
C1778 C1762 1.429 . S
C1778 C1774 1.429 . S
C1778 C1779 1.523 . S
C1779 C1763 1.368 . S
C1779 C1775 1.368 . S
C1779 C1778 1.523 . S
H1780 C1755 0.950 . S
H1781 C1757 0.950 . S
H1782 C1758 0.949 . S
H1783 C1760 0.950 . S
H1784 C1762 0.950 . S
C1785 C1786 1.349 . S
C1785 C1787 1.327 . S
C1785 H1810 0.950 . S
C1786 C1785 1.349 . S
C1786 C1802 1.349 . S
C1787 C1785 1.327 . S
C1787 C1806 1.429 . S
C1787 H1811 0.950 . S
C1788 C1805 1.574 . S
C1788 C1807 1.368 . S
C1788 H1812 0.949 . S
H1789 C1793 0.949 . S
C1790 C1791 1.349 . S
C1790 C1792 1.327 . S
C1790 H1813 0.950 . S
C1791 C1790 1.349 . S
C1791 C1803 1.349 . S
C1792 C1790 1.327 . S
C1792 C1808 1.429 . S
C1792 H1814 0.950 . S
C1793 H1789 0.949 . S
C1793 C1801 1.574 . S
C1793 C1809 1.368 . S
H1794 C1802 0.950 . S
H1795 C1800 0.950 . S
H1796 C1801 0.949 . S
H1797 C1803 0.950 . S
H1798 C1804 0.950 . S
H1799 C1805 0.949 . S
C1800 H1795 0.950 . S
C1800 C1802 1.327 . S
C1800 C1806 1.429 . S
C1801 C1793 1.574 . S
C1801 H1796 0.949 . S
C1801 C1807 1.368 . S
C1802 C1786 1.349 . S
C1802 H1794 0.950 . S
C1802 C1800 1.327 . S
C1803 C1791 1.349 . S
C1803 H1797 0.950 . S
C1803 C1804 1.327 . S
C1804 H1798 0.950 . S
C1804 C1803 1.327 . S
C1804 C1808 1.429 . S
C1805 C1788 1.574 . S
C1805 H1799 0.949 . S
C1805 C1809 1.368 . S
C1806 C1787 1.429 . S
C1806 C1800 1.429 . S
C1806 C1807 1.523 . S
C1807 C1788 1.368 . S
C1807 C1801 1.368 . S
C1807 C1806 1.523 . S
C1808 C1792 1.429 . S
C1808 C1804 1.429 . S
C1808 C1809 1.523 . S
C1809 C1793 1.368 . S
C1809 C1805 1.368 . S
C1809 C1808 1.523 . S
H1810 C1785 0.950 . S
H1811 C1787 0.950 . S
H1812 C1788 0.949 . S
H1813 C1790 0.950 . S
H1814 C1792 0.950 . S
C1815 C1816 1.349 . S
C1815 C1817 1.327 . S
C1815 H1840 0.950 . S
C1816 C1815 1.349 . S
C1816 C1832 1.349 . S
C1817 C1815 1.327 . S
C1817 C1836 1.429 . S
C1817 H1841 0.950 . S
C1818 C1835 1.574 . S
C1818 C1837 1.368 . S
C1818 H1842 0.949 . S
H1819 C1823 0.949 . S
C1820 C1821 1.349 . S
C1820 C1822 1.327 . S
C1820 H1843 0.950 . S
C1821 C1820 1.349 . S
C1821 C1833 1.349 . S
C1822 C1820 1.327 . S
C1822 C1838 1.429 . S
C1822 H1844 0.950 . S
C1823 H1819 0.949 . S
C1823 C1831 1.574 . S
C1823 C1839 1.368 . S
H1824 C1832 0.950 . S
H1825 C1830 0.950 . S
H1826 C1831 0.949 . S
H1827 C1833 0.950 . S
H1828 C1834 0.950 . S
H1829 C1835 0.949 . S
C1830 H1825 0.950 . S
C1830 C1832 1.327 . S
C1830 C1836 1.429 . S
C1831 C1823 1.574 . S
C1831 H1826 0.949 . S
C1831 C1837 1.368 . S
C1832 C1816 1.349 . S
C1832 H1824 0.950 . S
C1832 C1830 1.327 . S
C1833 C1821 1.349 . S
C1833 H1827 0.950 . S
C1833 C1834 1.327 . S
C1834 H1828 0.950 . S
C1834 C1833 1.327 . S
C1834 C1838 1.429 . S
C1835 C1818 1.574 . S
C1835 H1829 0.949 . S
C1835 C1839 1.368 . S
C1836 C1817 1.429 . S
C1836 C1830 1.429 . S
C1836 C1837 1.523 . S
C1837 C1818 1.368 . S
C1837 C1831 1.368 . S
C1837 C1836 1.523 . S
C1838 C1822 1.429 . S
C1838 C1834 1.429 . S
C1838 C1839 1.523 . S
C1839 C1823 1.368 . S
C1839 C1835 1.368 . S
C1839 C1838 1.523 . S
H1840 C1815 0.950 . S
H1841 C1817 0.950 . S
H1842 C1818 0.949 . S
H1843 C1820 0.950 . S
H1844 C1822 0.950 . S
C1845 C1846 1.349 . S
C1845 C1847 1.327 . S
C1845 H1870 0.950 . S
C1846 C1845 1.349 . S
C1846 C1862 1.349 . S
C1847 C1845 1.327 . S
C1847 C1866 1.429 . S
C1847 H1871 0.950 . S
C1848 C1865 1.574 . S
C1848 C1867 1.368 . S
C1848 H1872 0.949 . S
H1849 C1853 0.949 . S
C1850 C1851 1.349 . S
C1850 C1852 1.327 . S
C1850 H1873 0.950 . S
C1851 C1850 1.349 . S
C1851 C1863 1.349 . S
C1852 C1850 1.327 . S
C1852 C1868 1.429 . S
C1852 H1874 0.950 . S
C1853 H1849 0.949 . S
C1853 C1861 1.574 . S
C1853 C1869 1.368 . S
H1854 C1862 0.950 . S
H1855 C1860 0.950 . S
H1856 C1861 0.949 . S
H1857 C1863 0.950 . S
H1858 C1864 0.950 . S
H1859 C1865 0.949 . S
C1860 H1855 0.950 . S
C1860 C1862 1.327 . S
C1860 C1866 1.429 . S
C1861 C1853 1.574 . S
C1861 H1856 0.949 . S
C1861 C1867 1.368 . S
C1862 C1846 1.349 . S
C1862 H1854 0.950 . S
C1862 C1860 1.327 . S
C1863 C1851 1.349 . S
C1863 H1857 0.950 . S
C1863 C1864 1.327 . S
C1864 H1858 0.950 . S
C1864 C1863 1.327 . S
C1864 C1868 1.429 . S
C1865 C1848 1.574 . S
C1865 H1859 0.949 . S
C1865 C1869 1.368 . S
C1866 C1847 1.429 . S
C1866 C1860 1.429 . S
C1866 C1867 1.523 . S
C1867 C1848 1.368 . S
C1867 C1861 1.368 . S
C1867 C1866 1.523 . S
C1868 C1852 1.429 . S
C1868 C1864 1.429 . S
C1868 C1869 1.523 . S
C1869 C1853 1.368 . S
C1869 C1865 1.368 . S
C1869 C1868 1.523 . S
H1870 C1845 0.950 . S
H1871 C1847 0.950 . S
H1872 C1848 0.949 . S
H1873 C1850 0.950 . S
H1874 C1852 0.950 . S
C1875 C1876 1.349 . S
C1875 C1877 1.327 . S
C1875 H1900 0.950 . S
C1876 C1875 1.349 . S
C1876 C1892 1.349 . S
C1877 C1875 1.327 . S
C1877 C1896 1.429 . S
C1877 H1901 0.950 . S
C1878 C1895 1.574 . S
C1878 C1897 1.368 . S
C1878 H1902 0.949 . S
H1879 C1883 0.949 . S
C1880 C1881 1.349 . S
C1880 C1882 1.327 . S
C1880 H1903 0.950 . S
C1881 C1880 1.349 . S
C1881 C1893 1.349 . S
C1882 C1880 1.327 . S
C1882 C1898 1.429 . S
C1882 H1904 0.950 . S
C1883 H1879 0.949 . S
C1883 C1891 1.574 . S
C1883 C1899 1.368 . S
H1884 C1892 0.950 . S
H1885 C1890 0.950 . S
H1886 C1891 0.949 . S
H1887 C1893 0.950 . S
H1888 C1894 0.950 . S
H1889 C1895 0.949 . S
C1890 H1885 0.950 . S
C1890 C1892 1.327 . S
C1890 C1896 1.429 . S
C1891 C1883 1.574 . S
C1891 H1886 0.949 . S
C1891 C1897 1.368 . S
C1892 C1876 1.349 . S
C1892 H1884 0.950 . S
C1892 C1890 1.327 . S
C1893 C1881 1.349 . S
C1893 H1887 0.950 . S
C1893 C1894 1.327 . S
C1894 H1888 0.950 . S
C1894 C1893 1.327 . S
C1894 C1898 1.429 . S
C1895 C1878 1.574 . S
C1895 H1889 0.949 . S
C1895 C1899 1.368 . S
C1896 C1877 1.429 . S
C1896 C1890 1.429 . S
C1896 C1897 1.523 . S
C1897 C1878 1.368 . S
C1897 C1891 1.368 . S
C1897 C1896 1.523 . S
C1898 C1882 1.429 . S
C1898 C1894 1.429 . S
C1898 C1899 1.523 . S
C1899 C1883 1.368 . S
C1899 C1895 1.368 . S
C1899 C1898 1.523 . S
H1900 C1875 0.950 . S
H1901 C1877 0.950 . S
H1902 C1878 0.949 . S
H1903 C1880 0.950 . S
H1904 C1882 0.950 . S
C1905 C1906 1.349 . S
C1905 C1907 1.327 . S
C1905 H1930 0.950 . S
C1906 C1905 1.349 . S
C1906 C1922 1.349 . S
C1907 C1905 1.327 . S
C1907 C1926 1.429 . S
C1907 H1931 0.950 . S
C1908 C1925 1.574 . S
C1908 C1927 1.368 . S
C1908 H1932 0.949 . S
H1909 C1913 0.949 . S
C1910 C1911 1.349 . S
C1910 C1912 1.327 . S
C1910 H1933 0.950 . S
C1911 C1910 1.349 . S
C1911 C1923 1.349 . S
C1912 C1910 1.327 . S
C1912 C1928 1.429 . S
C1912 H1934 0.950 . S
C1913 H1909 0.949 . S
C1913 C1921 1.574 . S
C1913 C1929 1.368 . S
H1914 C1922 0.950 . S
H1915 C1920 0.950 . S
H1916 C1921 0.949 . S
H1917 C1923 0.950 . S
H1918 C1924 0.950 . S
H1919 C1925 0.949 . S
C1920 H1915 0.950 . S
C1920 C1922 1.327 . S
C1920 C1926 1.429 . S
C1921 C1913 1.574 . S
C1921 H1916 0.949 . S
C1921 C1927 1.368 . S
C1922 C1906 1.349 . S
C1922 H1914 0.950 . S
C1922 C1920 1.327 . S
C1923 C1911 1.349 . S
C1923 H1917 0.950 . S
C1923 C1924 1.327 . S
C1924 H1918 0.950 . S
C1924 C1923 1.327 . S
C1924 C1928 1.429 . S
C1925 C1908 1.574 . S
C1925 H1919 0.949 . S
C1925 C1929 1.368 . S
C1926 C1907 1.429 . S
C1926 C1920 1.429 . S
C1926 C1927 1.523 . S
C1927 C1908 1.368 . S
C1927 C1921 1.368 . S
C1927 C1926 1.523 . S
C1928 C1912 1.429 . S
C1928 C1924 1.429 . S
C1928 C1929 1.523 . S
C1929 C1913 1.368 . S
C1929 C1925 1.368 . S
C1929 C1928 1.523 . S
H1930 C1905 0.950 . S
H1931 C1907 0.950 . S
H1932 C1908 0.949 . S
H1933 C1910 0.950 . S
H1934 C1912 0.950 . S
C1935 C1936 1.349 . S
C1935 C1937 1.327 . S
C1935 H1960 0.950 . S
C1936 C1935 1.349 . S
C1936 C1952 1.349 . S
C1937 C1935 1.327 . S
C1937 C1956 1.429 . S
C1937 H1961 0.950 . S
C1938 C1955 1.574 . S
C1938 C1957 1.368 . S
C1938 H1962 0.949 . S
H1939 C1943 0.949 . S
C1940 C1941 1.349 . S
C1940 C1942 1.327 . S
C1940 H1963 0.950 . S
C1941 C1940 1.349 . S
C1941 C1953 1.349 . S
C1942 C1940 1.327 . S
C1942 C1958 1.429 . S
C1942 H1964 0.950 . S
C1943 H1939 0.949 . S
C1943 C1951 1.574 . S
C1943 C1959 1.368 . S
H1944 C1952 0.950 . S
H1945 C1950 0.950 . S
H1946 C1951 0.949 . S
H1947 C1953 0.950 . S
H1948 C1954 0.950 . S
H1949 C1955 0.949 . S
C1950 H1945 0.950 . S
C1950 C1952 1.327 . S
C1950 C1956 1.429 . S
C1951 C1943 1.574 . S
C1951 H1946 0.949 . S
C1951 C1957 1.368 . S
C1952 C1936 1.349 . S
C1952 H1944 0.950 . S
C1952 C1950 1.327 . S
C1953 C1941 1.349 . S
C1953 H1947 0.950 . S
C1953 C1954 1.327 . S
C1954 H1948 0.950 . S
C1954 C1953 1.327 . S
C1954 C1958 1.429 . S
C1955 C1938 1.574 . S
C1955 H1949 0.949 . S
C1955 C1959 1.368 . S
C1956 C1937 1.429 . S
C1956 C1950 1.429 . S
C1956 C1957 1.523 . S
C1957 C1938 1.368 . S
C1957 C1951 1.368 . S
C1957 C1956 1.523 . S
C1958 C1942 1.429 . S
C1958 C1954 1.429 . S
C1958 C1959 1.523 . S
C1959 C1943 1.368 . S
C1959 C1955 1.368 . S
C1959 C1958 1.523 . S
H1960 C1935 0.950 . S
H1961 C1937 0.950 . S
H1962 C1938 0.949 . S
H1963 C1940 0.950 . S
H1964 C1942 0.950 . S
C1965 C1966 1.349 . S
C1965 C1967 1.327 . S
C1965 H1990 0.950 . S
C1966 C1965 1.349 . S
C1966 C1982 1.349 . S
C1967 C1965 1.327 . S
C1967 C1986 1.429 . S
C1967 H1991 0.950 . S
C1968 C1985 1.574 . S
C1968 C1987 1.368 . S
C1968 H1992 0.949 . S
H1969 C1973 0.949 . S
C1970 C1971 1.349 . S
C1970 C1972 1.327 . S
C1970 H1993 0.950 . S
C1971 C1970 1.349 . S
C1971 C1983 1.349 . S
C1972 C1970 1.327 . S
C1972 C1988 1.429 . S
C1972 H1994 0.950 . S
C1973 H1969 0.949 . S
C1973 C1981 1.574 . S
C1973 C1989 1.368 . S
H1974 C1982 0.950 . S
H1975 C1980 0.950 . S
H1976 C1981 0.949 . S
H1977 C1983 0.950 . S
H1978 C1984 0.950 . S
H1979 C1985 0.949 . S
C1980 H1975 0.950 . S
C1980 C1982 1.327 . S
C1980 C1986 1.429 . S
C1981 C1973 1.574 . S
C1981 H1976 0.949 . S
C1981 C1987 1.368 . S
C1982 C1966 1.349 . S
C1982 H1974 0.950 . S
C1982 C1980 1.327 . S
C1983 C1971 1.349 . S
C1983 H1977 0.950 . S
C1983 C1984 1.327 . S
C1984 H1978 0.950 . S
C1984 C1983 1.327 . S
C1984 C1988 1.429 . S
C1985 C1968 1.574 . S
C1985 H1979 0.949 . S
C1985 C1989 1.368 . S
C1986 C1967 1.429 . S
C1986 C1980 1.429 . S
C1986 C1987 1.523 . S
C1987 C1968 1.368 . S
C1987 C1981 1.368 . S
C1987 C1986 1.523 . S
C1988 C1972 1.429 . S
C1988 C1984 1.429 . S
C1988 C1989 1.523 . S
C1989 C1973 1.368 . S
C1989 C1985 1.368 . S
C1989 C1988 1.523 . S
H1990 C1965 0.950 . S
H1991 C1967 0.950 . S
H1992 C1968 0.949 . S
H1993 C1970 0.950 . S
H1994 C1972 0.950 . S
C1995 C1996 1.349 . S
C1995 C1997 1.327 . S
C1995 H2020 0.950 . S
C1996 C1995 1.349 . S
C1996 C2012 1.349 . S
C1997 C1995 1.327 . S
C1997 C2016 1.429 . S
C1997 H2021 0.950 . S
C1998 C2015 1.574 . S
C1998 C2017 1.368 . S
C1998 H2022 0.949 . S
H1999 C2003 0.949 . S
C2000 C2001 1.349 . S
C2000 C2002 1.327 . S
C2000 H2023 0.950 . S
C2001 C2000 1.349 . S
C2001 C2013 1.349 . S
C2002 C2000 1.327 . S
C2002 C2018 1.429 . S
C2002 H2024 0.950 . S
C2003 H1999 0.949 . S
C2003 C2011 1.574 . S
C2003 C2019 1.368 . S
H2004 C2012 0.950 . S
H2005 C2010 0.950 . S
H2006 C2011 0.949 . S
H2007 C2013 0.950 . S
H2008 C2014 0.950 . S
H2009 C2015 0.949 . S
C2010 H2005 0.950 . S
C2010 C2012 1.327 . S
C2010 C2016 1.429 . S
C2011 C2003 1.574 . S
C2011 H2006 0.949 . S
C2011 C2017 1.368 . S
C2012 C1996 1.349 . S
C2012 H2004 0.950 . S
C2012 C2010 1.327 . S
C2013 C2001 1.349 . S
C2013 H2007 0.950 . S
C2013 C2014 1.327 . S
C2014 H2008 0.950 . S
C2014 C2013 1.327 . S
C2014 C2018 1.429 . S
C2015 C1998 1.574 . S
C2015 H2009 0.949 . S
C2015 C2019 1.368 . S
C2016 C1997 1.429 . S
C2016 C2010 1.429 . S
C2016 C2017 1.523 . S
C2017 C1998 1.368 . S
C2017 C2011 1.368 . S
C2017 C2016 1.523 . S
C2018 C2002 1.429 . S
C2018 C2014 1.429 . S
C2018 C2019 1.523 . S
C2019 C2003 1.368 . S
C2019 C2015 1.368 . S
C2019 C2018 1.523 . S
H2020 C1995 0.950 . S
H2021 C1997 0.950 . S
H2022 C1998 0.949 . S
H2023 C2000 0.950 . S
H2024 C2002 0.950 . S
C406 C162 1.404 . S
C411 C233 1.372 . S
C436 C174 1.389 . S
C441 C254 1.352 . S
C466 C150 1.341 . S
C471 C276 1.200 . S
C496 C138 1.330 . S
C501 C255 1.184 . S
C531 C275 1.355 . S
C526 C114 1.393 . S
C556 C126 1.347 1_554 S
C561 C234 1.199 . S
C591 C229 1.372 . S
C586 C136 1.406 1_554 S
C621 C250 1.371 . S
C616 C112 1.385 1_554 S
C646 C124 1.458 . S
C651 C273 1.263 . S
C676 C160 1.425 . S
C681 C252 1.243 . S
C706 C172 1.374 . S
C711 C271 1.345 . S
C741 C231 1.253 . S
C736 C148 1.441 . S
C771 C296 1.372 . S
C766 C18 1.404 . S
C796 C30 1.389 . S
C801 C317 1.352 . S
C826 C6 1.341 . S
C831 C339 1.200 . S
C856 C210 1.330 . S
C861 C318 1.184 . S
C886 C186 1.393 . S
C891 C338 1.355 . S
C916 C198 1.347 . S
C921 C297 1.199 . S
C946 C208 1.406 . S
C951 C292 1.372 . S
C976 C184 1.393 . S
C981 C313 1.372 . S
C1011 C336 1.263 . S
C1006 C196 1.458 . S
C1036 C16 1.425 . S
C1041 C315 1.243 . S
C1071 C334 1.345 . S
C1066 C28 1.374 . S
C1096 C4 1.441 . S
C1101 C294 1.253 . S
C1131 C359 1.372 . S
C1126 C90 1.405 . S
C1156 C102 1.389 . S
C1161 C380 1.352 . S
C1191 C402 1.200 . S
C1186 C78 1.341 . S
C1221 C381 1.184 . S
C1216 C66 1.330 . S
C1251 C401 1.355 . S
C1246 C42 1.393 . S
C1276 C54 1.347 . S
C1281 C360 1.199 . S
C1306 C64 1.406 . S
C1311 C355 1.372 . S
C1336 C40 1.393 . S
C1341 C376 1.371 . S
C1371 C399 1.263 . S
C1366 C52 1.458 . S
C1396 C88 1.425 . S
C1401 C378 1.243 . S
C1426 C100 1.374 . S
C1431 C397 1.345 . S
C1456 C76 1.441 . S
C1461 C357 1.253 . S
C1486 C189 1.483 . S
C1491 C232 1.466 . S
C1521 C253 1.525 . S
C1516 C201 1.541 . S
C1546 C213 1.562 . S
C1551 C272 1.499 . S
C1576 C81 1.645 . S
C1581 C251 1.579 . S
C1606 C93 1.567 . S
C1611 C274 1.548 . S
C1641 C230 1.523 . S
C1636 C105 1.584 . S
C1666 C45 1.483 . S
C1671 C295 1.466 . S
C1696 C57 1.541 . S
C1701 C316 1.525 . S
C1726 C69 1.562 . S
C1731 C335 1.499 . S
C1756 C153 1.645 . S
C1761 C314 1.580 . S
C1791 C337 1.548 . S
C1786 C165 1.567 . S
C1816 C177 1.584 . S
C1821 C293 1.523 . S
C1846 C117 1.483 . S
C1851 C358 1.466 . S
C1876 C129 1.541 . S
C1881 C379 1.525 . S
C1911 C398 1.498 . S
C1906 C141 1.561 . S
C1936 C9 1.645 . S
C1941 C377 1.579 . S
C1966 C21 1.567 . S
C1971 C400 1.548 . S
C1996 C33 1.584 . S
C2001 C356 1.523 . S
