# Generated by pormake.
# Topology anh, (6,3)-cn, num edge types: 1
# Building blocks:
#     Node 0, Type 0, BuildingBlock: BETFAJ_clean_sbu_0, # of connection points: 6
#     Node 1, Type 0, BuildingBlock: BETFAJ_clean_sbu_0, # of connection points: 6
#     Node 2, Type 0, BuildingBlock: BETFAJ_clean_sbu_0, # of connection points: 6
#     Node 3, Type 1, BuildingBlock: MIDCAF_clean_linker_0, # of connection points: 3
#     Node 4, Type 1, BuildingBlock: MIDCAF_clean_linker_0, # of connection points: 3
#     Node 5, Type 1, BuildingBlock: MIDCAF_clean_linker_0, # of connection points: 3
#     Node 6, Type 1, BuildingBlock: MIDCAF_clean_linker_0, # of connection points: 3
#     Node 7, Type 1, BuildingBlock: MIDCAF_clean_linker_0, # of connection points: 3
#     Node 8, Type 1, BuildingBlock: MIDCAF_clean_linker_0, # of connection points: 3
#     Edge 9, Type (0, 1), BuildingBlock: ZUJKAS_clean_linker_0, # of connection points: 2
#     Edge 10, Type (0, 1), BuildingBlock: ZUJKAS_clean_linker_0, # of connection points: 2
#     Edge 11, Type (0, 1), BuildingBlock: ZUJKAS_clean_linker_0, # of connection points: 2
#     Edge 12, Type (0, 1), BuildingBlock: ZUJKAS_clean_linker_0, # of connection points: 2
#     Edge 13, Type (0, 1), BuildingBlock: ZUJKAS_clean_linker_0, # of connection points: 2
#     Edge 14, Type (0, 1), BuildingBlock: ZUJKAS_clean_linker_0, # of connection points: 2
#     Edge 15, Type (0, 1), BuildingBlock: ZUJKAS_clean_linker_0, # of connection points: 2
#     Edge 16, Type (0, 1), BuildingBlock: ZUJKAS_clean_linker_0, # of connection points: 2
#     Edge 17, Type (0, 1), BuildingBlock: ZUJKAS_clean_linker_0, # of connection points: 2
#     Edge 18, Type (0, 1), BuildingBlock: ZUJKAS_clean_linker_0, # of connection points: 2
#     Edge 19, Type (0, 1), BuildingBlock: ZUJKAS_clean_linker_0, # of connection points: 2
#     Edge 20, Type (0, 1), BuildingBlock: ZUJKAS_clean_linker_0, # of connection points: 2
#     Edge 21, Type (0, 1), BuildingBlock: ZUJKAS_clean_linker_0, # of connection points: 2
#     Edge 22, Type (0, 1), BuildingBlock: ZUJKAS_clean_linker_0, # of connection points: 2
#     Edge 23, Type (0, 1), BuildingBlock: ZUJKAS_clean_linker_0, # of connection points: 2
#     Edge 24, Type (0, 1), BuildingBlock: ZUJKAS_clean_linker_0, # of connection points: 2
#     Edge 25, Type (0, 1), BuildingBlock: ZUJKAS_clean_linker_0, # of connection points: 2
#     Edge 26, Type (0, 1), BuildingBlock: ZUJKAS_clean_linker_0, # of connection points: 2
# Relax obj value: 0.165
# Max RMSD: 0.199
# Mean RMSD: 0.150
data_MOF--net-anh--node1-BETFAJ_clean_sbu_0--node2-MIDCAF_clean_linker_0--edge1-ZUJKAS_clean_linker_0
_symmetry_space_group_name_H-M    P1
_symmetry_Int_Tables_number       1
_symmetry_cell_setting            triclinic
loop_
_symmetry_equiv_pos_as_xyz
'x, y, z'
_cell_length_a     46.850508
_cell_length_b     52.502581
_cell_length_c     82.578637
_cell_angle_alpha  92.33227
_cell_angle_beta   89.653931
_cell_angle_gamma 127.23521
loop_
_atom_site_label
_atom_site_type_symbol
_atom_site_fract_x
_atom_site_fract_y
_atom_site_fract_z
_atom_type_partial_charge
Sm0 Sm 0.06716 0.51407 0.14491 0.0
Sm1 Sm 1.02541 0.54244 0.15571 0.0
C2 C 0.1035 0.4986 0.12868 0.0
C3 C 0.13724 0.50317 0.13234 0.0
C4 C 0.17045 0.53094 0.12782 0.0
C5 C 0.20242 0.53641 0.13248 0.0
C6 C 0.20184 0.51416 0.14167 0.0
C7 C 0.16862 0.48613 0.14591 0.0
C8 C 0.1367 0.48062 0.14124 0.0
C9 C 0.06654 0.51892 0.1784 0.0
C10 C 0.11182 0.59232 0.15393 0.0
C11 C 0.98136 0.55206 0.16916 0.0
C12 C 0.94547 0.5299 0.17603 0.0
C13 C 0.9396 0.53366 0.19235 0.0
C14 C 0.90574 0.51217 0.19896 0.0
C15 C 0.8771 0.48662 0.18931 0.0
C16 C 0.88337 0.48284 0.17302 0.0
C17 C 0.9171 0.50403 0.1665 0.0
C18 C 0.0402 0.54372 0.12332 0.0
C19 C 0.98107 0.46365 0.15033 0.0
O20 O 0.1063 0.52451 0.12601 0.0
O21 O 0.07603 0.47842 0.13759 0.0
O22 O 0.05356 0.52658 0.16819 0.0
O23 O 0.08173 0.50809 0.17075 0.0
O24 O 0.11097 0.56933 0.146 0.0
O25 O 0.08304 0.58717 0.16055 0.0
O26 O 1.008 0.55631 0.17724 0.0
O27 O 0.98353 0.54937 0.15344 0.0
O28 O 1.03016 0.5212 0.13248 0.0
O29 O 0.04091 0.56624 0.131 0.0
O30 O 0.98242 0.48765 0.15716 0.0
O31 O 1.00889 0.46819 0.14295 0.0
H32 H 0.17179 0.54867 0.12086 0.0
H33 H 0.22759 0.55793 0.12875 0.0
H34 H 0.16727 0.46861 0.15307 0.0
H35 H 0.11161 0.45891 0.14487 0.0
H36 H 0.96122 0.55321 0.19999 0.0
H37 H 0.902 0.51568 0.21158 0.0
H38 H 0.86194 0.46402 0.16505 0.0
H39 H 0.92074 0.50016 0.15391 0.0
Sm40 Sm 0.57165 0.01262 0.48338 0.0
Sm41 Sm 0.52861 0.03626 0.47623 0.0
C42 C 0.59866 0.98523 0.49566 0.0
C43 C 0.59009 0.95375 0.4985 0.0
C44 C 0.60068 0.94932 0.51329 0.0
C45 C 0.59516 0.92059 0.51605 0.0
C46 C 0.57906 0.89563 0.50402 0.0
C47 C 0.56754 0.89979 0.48933 0.0
C48 C 0.57299 0.92861 0.48659 0.0
C49 C 0.56758 0.02093 0.45108 0.0
C50 C 0.48419 0.95998 0.47644 0.0
C51 C 0.50255 0.06591 0.46612 0.0
C52 C 0.50689 0.09546 0.47101 0.0
C53 C 0.50981 0.11524 0.45915 0.0
C54 C 0.51396 0.14334 0.46362 0.0
C55 C 0.51513 0.15217 0.48008 0.0
C56 C 0.51229 0.13223 0.49192 0.0
C57 C 0.50842 0.10431 0.48744 0.0
C58 C 0.535 0.02996 0.5087 0.0
C59 C 0.61725 0.08874 0.4804 0.0
O60 O 0.58178 0.9935 0.50434 0.0
O61 O 0.60319 0.99399 0.48069 0.0
O62 O 0.54174 0.00861 0.46066 0.0
O63 O 0.59628 0.02795 0.45822 0.0
O64 O 0.51272 0.96633 0.4841 0.0
O65 O 0.48543 0.98295 0.46963 0.0
O66 O 0.53035 0.06963 0.45966 0.0
O67 O 0.48608 0.04277 0.47625 0.0
O68 O 0.55975 0.04141 0.49864 0.0
O69 O 0.50611 0.02315 0.50198 0.0
O70 O 0.58723 0.08216 0.4744 0.0
O71 O 0.61768 0.06634 0.4868 0.0
H72 H 0.61372 0.96834 0.52267 0.0
H73 H 0.60365 0.918 0.52764 0.0
H74 H 0.55521 0.88115 0.47977 0.0
H75 H 0.56442 0.93141 0.47508 0.0
H76 H 0.50897 0.10897 0.4464 0.0
H77 H 0.51662 0.15831 0.45417 0.0
H78 H 0.51252 0.1379 0.5047 0.0
H79 H 0.50645 0.08957 0.49686 0.0
Sm80 Sm 0.59108 0.56186 0.84956 0.0
Sm81 Sm 0.54056 0.48553 0.85196 0.0
C82 C 0.62154 0.62197 0.84241 0.0
C83 C 0.61191 0.64315 0.83812 0.0
C84 C 0.61847 0.65496 0.8225 0.0
C85 C 0.6118 0.67665 0.81857 0.0
C86 C 0.5987 0.68729 0.83024 0.0
C87 C 0.5917 0.67513 0.84582 0.0
C88 C 0.59818 0.65332 0.84972 0.0
C89 C 0.58329 0.53839 0.87959 0.0
C90 C 0.50065 0.52122 0.85194 0.0
C91 C 0.50932 0.42757 0.86262 0.0
C92 C 0.5096 0.40042 0.85765 0.0
C93 C 0.50385 0.37879 0.86908 0.0
C94 C 0.50542 0.35365 0.86454 0.0
C95 C 0.51273 0.34967 0.84845 0.0
C96 C 0.51854 0.37152 0.83706 0.0
C97 C 0.51712 0.39668 0.84162 0.0
C98 C 0.55441 0.5013 0.8198 0.0
C99 C 0.63118 0.52698 0.84962 0.0
O100 O 0.61472 0.59989 0.83157 0.0
O101 O 0.6157 0.61223 0.85725 0.0
O102 O 0.55878 0.52725 0.86897 0.0
O103 O 0.61333 0.56412 0.87487 0.0
O104 O 0.5328 0.54839 0.84895 0.0
O105 O 0.49708 0.49448 0.8546 0.0
O106 O 0.53965 0.45306 0.86876 0.0
O107 O 0.49346 0.43439 0.85256 0.0
O108 O 0.56566 0.51997 0.83213 0.0
O109 O 0.53419 0.47203 0.82436 0.0
O110 O 0.59939 0.50041 0.85357 0.0
O111 O 0.63435 0.55304 0.84575 0.0
H112 H 0.62938 0.64785 0.81336 0.0
H113 H 0.61786 0.68579 0.80651 0.0
H114 H 0.58119 0.68251 0.85503 0.0
H115 H 0.59284 0.64478 0.8619 0.0
H116 H 0.49832 0.38145 0.88154 0.0
H117 H 0.50059 0.33716 0.87358 0.0
H118 H 0.52485 0.36954 0.82465 0.0
H119 H 0.52223 0.4134 0.83265 0.0
C120 C 0.46556 0.91191 0.18936 0.0
C121 C 0.44479 0.9103 0.17659 0.0
C122 C 0.45483 0.93913 0.17022 0.0
C123 C 0.48438 0.96888 0.17686 0.0
H124 H 0.60202 0.06752 0.16944 0.0
H125 H 0.65042 0.11897 0.1584 0.0
H126 H 0.66693 0.16622 0.20523 0.0
H127 H 0.61894 0.1157 0.21608 0.0
H128 H 0.6051 0.07326 0.24702 0.0
H129 H 0.60393 0.0718 0.27645 0.0
H130 H 0.49942 0.9797 0.27316 0.0
H131 H 0.50122 0.9806 0.24376 0.0
H132 H 0.50893 0.94173 0.20643 0.0
H133 H 0.45843 0.89027 0.19466 0.0
H134 H 0.43942 0.93865 0.16033 0.0
H135 H 0.4908 0.9907 0.17213 0.0
N136 N 0.55479 0.02878 0.19198 0.0
N137 N 0.57817 0.05521 0.21757 0.0
N138 N 0.53063 1.00058 0.21586 0.0
C139 C 0.57891 0.05621 0.20113 0.0
C140 C 0.55413 0.02762 0.22503 0.0
C141 C 0.53063 1.00079 0.19942 0.0
C142 C 0.60648 0.08726 0.19368 0.0
C143 C 0.61576 0.08897 0.1773 0.0
C144 C 0.64368 0.11844 0.17101 0.0
C145 C 0.66261 0.14686 0.1809 0.0
C146 C 0.65272 0.14505 0.19715 0.0
C147 C 0.62521 0.11582 0.20342 0.0
C148 C 0.55332 0.027 0.24299 0.0
C149 C 0.58186 0.05268 0.25257 0.0
C150 C 0.58108 0.05193 0.26949 0.0
C151 C 0.55156 0.02563 0.27726 0.0
C152 C 0.5229 1.00009 0.26764 0.0
C153 C 0.52385 1.00069 0.25073 0.0
C154 C 0.50383 0.97026 0.1902 0.0
C155 C 0.49446 0.94145 0.19615 0.0
C156 C 0.5539 0.43254 0.56151 0.0
C157 C 0.54608 0.42704 0.54477 0.0
C158 C 0.54323 0.44841 0.53655 0.0
C159 C 0.54768 0.47441 0.54494 0.0
H160 H 0.54785 0.55499 0.53989 0.0
H161 H 0.54876 0.59672 0.52702 0.0
H162 H 0.58115 0.65099 0.57275 0.0
H163 H 0.58063 0.60999 0.58552 0.0
H164 H 0.57436 0.5787 0.61747 0.0
H165 H 0.57738 0.58053 0.64696 0.0
H166 H 0.5703 0.49453 0.64518 0.0
H167 H 0.56662 0.49224 0.61572 0.0
H168 H 0.56419 0.46157 0.58278 0.0
H169 H 0.55708 0.41704 0.5682 0.0
H170 H 0.53698 0.44477 0.52367 0.0
H171 H 0.545 0.49022 0.53828 0.0
N172 N 0.5595 0.52926 0.56325 0.0
N173 N 0.56715 0.55571 0.58832 0.0
N174 N 0.56287 0.50895 0.58739 0.0
C175 C 0.56356 0.55397 0.57191 0.0
C176 C 0.56679 0.53333 0.59617 0.0
C177 C 0.55925 0.50666 0.57096 0.0
C178 C 0.56421 0.57905 0.56376 0.0
C179 C 0.5553 0.57589 0.54717 0.0
C180 C 0.55563 0.59969 0.53981 0.0
C181 C 0.56526 0.62725 0.54884 0.0
C182 C 0.57418 0.63033 0.56538 0.0
C183 C 0.57361 0.60659 0.57273 0.0
C184 C 0.57004 0.53521 0.61414 0.0
C185 C 0.57353 0.56018 0.62332 0.0
C186 C 0.5755 0.56138 0.64026 0.0
C187 C 0.57396 0.53762 0.64844 0.0
C188 C 0.57102 0.51294 0.63927 0.0
C189 C 0.56909 0.51175 0.62234 0.0
C190 C 0.55505 0.47958 0.56175 0.0
C191 C 0.55822 0.45833 0.56988 0.0
C192 C 0.98459 0.55679 0.86668 0.0
C193 C 0.95275 0.53059 0.85873 0.0
C194 C 0.95361 0.50527 0.85274 0.0
C195 C 0.98391 0.50549 0.85539 0.0
H196 H 0.1003 0.47901 0.88013 0.0
H197 H 0.15139 0.47892 0.87545 0.0
H198 H 0.19766 0.56002 0.84542 0.0
H199 H 0.14593 0.56029 0.85057 0.0
H200 H 0.09476 0.50869 0.91794 0.0
H201 H 0.09277 0.50939 0.94743 0.0
H202 H 0.03388 0.54842 0.94605 0.0
H203 H 0.03467 0.54654 0.91663 0.0
H204 H 0.03725 0.57696 0.87631 0.0
H205 H 0.98636 0.57731 0.87127 0.0
H206 H 0.93009 0.48433 0.84666 0.0
H207 H 0.98205 0.48454 0.85158 0.0
N208 N 0.06644 0.5252 0.86363 0.0
N209 N 0.08845 0.52329 0.8889 0.0
N210 N 0.04283 0.52913 0.88818 0.0
C211 C 0.09 0.52284 0.87246 0.0
C212 C 0.06539 0.52658 0.89684 0.0
C213 C 0.04232 0.52818 0.87173 0.0
C214 C 0.11772 0.51908 0.86544 0.0
C215 C 0.12076 0.49638 0.8721 0.0
C216 C 0.15067 0.49641 0.8694 0.0
C217 C 0.17985 0.51944 0.85996 0.0
C218 C 0.17651 0.54185 0.8529 0.0
C219 C 0.14616 0.54167 0.85557 0.0
C220 C 0.06478 0.52746 0.91486 0.0
C221 C 0.08137 0.51742 0.92393 0.0
C222 C 0.0804 0.51799 0.94089 0.0
C223 C 0.06311 0.52892 0.94924 0.0
C224 C 0.04682 0.53921 0.94012 0.0
C225 C 0.04746 0.53832 0.92318 0.0
C226 C 1.01501 0.53125 0.86395 0.0
C227 C 1.01459 0.55696 0.86929 0.0
C228 C 0.13999 0.63692 0.4362 0.0
C229 C 0.15599 0.63973 0.45116 0.0
C230 C 0.14166 0.6117 0.45965 0.0
C231 C 0.11254 0.58158 0.4531 0.0
H232 H 0.99141 0.48403 0.45869 0.0
H233 H 0.94252 0.43334 0.47028 0.0
H234 H 0.94526 0.38094 0.42943 0.0
H235 H 0.99342 0.43103 0.41791 0.0
H236 H 1.00166 0.46607 0.38323 0.0
H237 H 1.00161 0.46513 0.35366 0.0
H238 H 0.08788 0.5667 0.35527 0.0
H239 H 0.08847 0.56768 0.38469 0.0
H240 H 0.10049 0.60605 0.41789 0.0
H241 H 0.15045 0.65775 0.42916 0.0
H242 H 0.15318 0.61302 0.47127 0.0
H243 H 0.10269 0.56036 0.45967 0.0
N244 N 0.04688 0.52017 0.43755 0.0
N245 N 1.02258 0.49092 0.4126 0.0
N246 N 0.06917 0.54576 0.41294 0.0
C247 C 1.02283 0.49176 0.4291 0.0
C248 C 0.04558 0.51781 0.40442 0.0
C249 C 0.07027 0.54737 0.4294 0.0
C250 C 0.99627 0.46161 0.43736 0.0
C251 C 0.98188 0.46164 0.45235 0.0
C252 C 0.95372 0.43265 0.45891 0.0
C253 C 0.93996 0.40308 0.45077 0.0
C254 C 0.95537 0.40319 0.4361 0.0
C255 C 0.98291 0.432 0.42945 0.0
C256 C 0.04512 0.51693 0.38642 0.0
C257 C 1.02066 0.48821 0.3773 0.0
C258 C 1.02048 0.48769 0.36033 0.0
C259 C 0.04481 0.51582 0.3521 0.0
C260 C 0.06915 0.54449 0.36122 0.0
C261 C 0.06931 0.54505 0.37813 0.0
C262 C 0.09759 0.57891 0.43782 0.0
C263 C 0.11136 0.60707 0.42964 0.0
C264 C 0.54574 0.10707 0.76852 0.0
C265 C 0.5424 0.10668 0.78544 0.0
C266 C 0.54406 0.08481 0.79388 0.0
C267 C 0.54839 0.06353 0.78552 0.0
H268 H 0.55331 0.98458 0.79012 0.0
H269 H 0.55544 0.94394 0.80223 0.0
H270 H 0.58009 0.92215 0.7556 0.0
H271 H 0.57729 0.96182 0.74352 0.0
H272 H 0.57652 0.9914 0.71225 0.0
H273 H 0.57574 0.9915 0.6827 0.0
H274 H 0.54386 0.05337 0.6851 0.0
H275 H 0.5444 0.05325 0.71458 0.0
H276 H 0.55244 0.08725 0.74717 0.0
H277 H 0.54542 0.12401 0.76162 0.0
H278 H 0.54144 0.08378 0.80692 0.0
H279 H 0.54924 0.04682 0.79235 0.0
N280 N 0.55819 0.02017 0.76681 0.0
N281 N 0.56308 1.00108 0.7415 0.0
N282 N 0.55628 0.04166 0.7428 0.0
C283 C 0.56212 0.99999 0.75794 0.0
C284 C 0.56011 0.02175 0.73383 0.0
C285 C 0.5554 0.04125 0.75925 0.0
C286 C 0.56482 0.97644 0.7658 0.0
C287 C 0.55924 0.97115 0.78248 0.0
C288 C 0.56059 0.9479 0.78943 0.0
C289 C 0.56753 0.92945 0.77987 0.0
C290 C 0.57382 0.9353 0.76329 0.0
C291 C 0.57242 0.95834 0.75637 0.0
C292 C 0.56043 0.02225 0.71585 0.0
C293 C 0.56936 0.00506 0.70651 0.0
C294 C 0.56912 0.00525 0.68957 0.0
C295 C 0.55964 0.02236 0.68158 0.0
C296 C 0.55088 0.03965 0.6909 0.0
C297 C 0.55141 0.03971 0.70782 0.0
C298 C 0.55126 0.06376 0.76853 0.0
C299 C 0.55003 0.08597 0.76021 0.0
C300 C 0.55355 0.35604 0.12977 0.0
C301 C 0.54213 0.35222 0.1459 0.0
C302 C 0.51305 0.35261 0.1495 0.0
C303 C 0.49815 0.35982 0.13764 0.0
H304 H 0.46189 0.41468 0.1376 0.0
H305 H 0.44517 0.44772 0.14851 0.0
H306 H 0.46918 0.49308 0.10271 0.0
H307 H 0.4847 0.45946 0.09165 0.0
H308 H 0.46553 0.40457 0.06094 0.0
H309 H 0.47793 0.41079 0.03225 0.0
H310 H 0.55445 0.39132 0.03843 0.0
H311 H 0.54212 0.38522 0.0675 0.0
H312 H 0.54929 0.36776 0.1058 0.0
H313 H 0.57609 0.35618 0.12655 0.0
H314 H 0.50307 0.34906 0.1617 0.0
H315 H 0.47711 0.36172 0.14104 0.0
N316 N 0.49035 0.39781 0.1167 0.0
N317 N 0.48745 0.41198 0.09065 0.0
N318 N 0.5058 0.3797 0.09428 0.0
C319 C 0.48363 0.4137 0.10684 0.0
C320 C 0.49823 0.39494 0.08424 0.0
C321 C 0.50134 0.38072 0.11055 0.0
C322 C 0.47415 0.43409 0.11368 0.0
C323 C 0.46365 0.43174 0.12987 0.0
C324 C 0.4544 0.4509 0.13618 0.0
C325 C 0.45574 0.47297 0.12646 0.0
C326 C 0.46725 0.47592 0.11043 0.0
C327 C 0.47615 0.4566 0.10409 0.0
C328 C 0.50307 0.39467 0.06653 0.0
C329 C 0.48474 0.40123 0.05621 0.0
C330 C 0.49159 0.40451 0.03969 0.0
C331 C 0.51715 0.40152 0.03305 0.0
C332 C 0.53473 0.3939 0.04324 0.0
C333 C 0.52753 0.39024 0.05984 0.0
C334 C 0.51169 0.36637 0.12188 0.0
C335 C 0.53832 0.36288 0.11784 0.0
H336 H 0.21542 0.47052 0.14096 0.0
H337 H 0.27151 0.47956 0.14744 0.0
H338 H 0.32149 0.57924 0.15934 0.0
H339 H 0.26487 0.57026 0.15293 0.0
H340 H 0.36044 0.57188 0.13848 0.0
H341 H 0.32525 0.49305 0.1888 0.0
H342 H 0.29151 0.47109 0.1731 0.0
H343 H 0.29836 0.50558 0.18321 0.0
C344 C 0.23801 0.49421 0.14534 0.0
C345 C 0.23566 0.51964 0.14647 0.0
C346 C 0.27007 0.49933 0.14914 0.0
C347 C 0.30045 0.5299 0.15427 0.0
C348 C 0.29821 0.55537 0.15561 0.0
H349 H 0.46607 0.50146 0.15682 0.0
H350 H 0.43917 0.52684 0.16722 0.0
C351 C 0.26599 0.55025 0.1518 0.0
C352 C 0.33517 0.53538 0.1561 0.0
H353 H 0.36811 0.49702 0.16933 0.0
C354 C 0.36276 0.55633 0.14565 0.0
C355 C 0.33891 0.51598 0.16584 0.0
C356 C 0.31202 0.49548 0.1785 0.0
C357 C 0.39152 0.55513 0.14309 0.0
C358 C 0.39207 0.53197 0.15091 0.0
C359 C 0.36722 0.51424 0.163 0.0
C360 C 0.41279 0.52115 0.14446 0.0
C361 C 0.4197 0.57716 0.1312 0.0
C362 C 0.40666 0.50941 0.1283 0.0
C363 C 0.42151 0.49468 0.12242 0.0
C364 C 0.44275 0.49118 0.13259 0.0
C365 C 0.44958 0.50358 0.14872 0.0
C366 C 0.43454 0.51832 0.15464 0.0
H367 H 0.42443 0.60062 0.13161 0.0
H368 H 0.44548 0.58124 0.1337 0.0
H369 H 0.41018 0.56639 0.11873 0.0
H370 H 0.3889 0.51023 0.12039 0.0
H371 H 0.41494 0.48474 0.11007 0.0
H372 H 0.62534 0.14257 0.47166 0.0
H373 H 0.68125 0.19646 0.46886 0.0
H374 H 0.7419 0.16421 0.48404 0.0
H375 H 0.68611 0.11015 0.48702 0.0
H376 H 0.74743 0.23598 0.49661 0.0
H377 H 0.77281 0.20674 0.43511 0.0
H378 H 0.72781 0.18665 0.4424 0.0
H379 H 0.75621 0.17802 0.45067 0.0
C380 C 0.65051 0.14688 0.47452 0.0
C381 C 0.65113 0.12189 0.47955 0.0
C382 C 0.68244 0.17776 0.47293 0.0
C383 C 0.71566 0.18428 0.47622 0.0
C384 C 0.71649 0.15963 0.48146 0.0
H385 H 0.932 0.34721 0.453 0.0
H386 H 0.87858 0.29501 0.46057 0.0
C387 C 0.68454 0.12876 0.48317 0.0
C388 C 0.7495 0.21658 0.47359 0.0
H389 H 0.81491 0.25917 0.44591 0.0
C390 C 0.76231 0.24116 0.48556 0.0
C391 C 0.76884 0.22311 0.45921 0.0
C392 C 0.75592 0.19741 0.44601 0.0
C393 C 0.79422 0.27216 0.48355 0.0
C394 C 0.81334 0.27897 0.46898 0.0
C395 C 0.80042 0.25414 0.45707 0.0
C396 C 0.84671 0.31151 0.46571 0.0
C397 C 0.8075 0.29704 0.49724 0.0
C398 C 0.84697 0.33847 0.46618 0.0
C399 C 0.87772 0.36849 0.46201 0.0
C400 C 0.90869 0.37212 0.45698 0.0
C401 C 0.90853 0.34522 0.45673 0.0
C402 C 0.87797 0.31533 0.46106 0.0
H403 H 0.79668 0.2858 0.50904 0.0
H404 H 0.83724 0.31315 0.49821 0.0
H405 H 0.79834 0.31176 0.49496 0.0
H406 H 0.82303 0.33614 0.46928 0.0
H407 H 0.87674 0.38859 0.46206 0.0
H408 H 0.61648 0.73954 0.84895 0.0
H409 H 0.60866 0.78002 0.84225 0.0
H410 H 0.56189 0.7312 0.79582 0.0
H411 H 0.56905 0.69032 0.80252 0.0
H412 H 0.63773 0.82037 0.81531 0.0
H413 H 0.48901 0.74394 0.81458 0.0
H414 H 0.51405 0.73245 0.82409 0.0
H415 H 0.5075 0.72818 0.80245 0.0
C416 C 0.60406 0.73714 0.8374 0.0
C417 C 0.59324 0.71156 0.8263 0.0
C418 C 0.59981 0.76042 0.83356 0.0
C419 C 0.58429 0.75844 0.81863 0.0
C420 C 0.57342 0.73295 0.80752 0.0
H421 H 0.54041 0.87016 0.76636 0.0
H422 H 0.545 0.82993 0.7768 0.0
C423 C 0.57785 0.70976 0.8113 0.0
C424 C 0.58064 0.78362 0.81441 0.0
H425 H 0.51923 0.79571 0.80419 0.0
C426 C 0.61184 0.81509 0.81301 0.0
C427 C 0.54683 0.77665 0.81141 0.0
C428 C 0.51237 0.74354 0.81333 0.0
C429 C 0.61021 0.83957 0.80815 0.0
C430 C 0.57638 0.83253 0.80496 0.0
C431 C 0.54515 0.80113 0.80664 0.0
C432 C 0.57285 0.85698 0.79908 0.0
C433 C 0.64482 0.87242 0.80587 0.0
C434 C 0.58634 0.88542 0.80827 0.0
C435 C 0.5841 0.90876 0.80223 0.0
C436 C 0.56815 0.90403 0.78691 0.0
C437 C 0.5536 0.87499 0.77803 0.0
C438 C 0.55593 0.85179 0.78405 0.0
H439 H 0.66808 0.87183 0.80492 0.0
H440 H 0.64328 0.88293 0.79481 0.0
H441 H 0.64985 0.88845 0.81647 0.0
H442 H 0.59882 0.88968 0.82007 0.0
H443 H 0.59563 0.9308 0.80939 0.0
H444 H 0.82561 0.42239 0.18235 0.0
H445 H 0.76131 0.39284 0.18561 0.0
H446 H 0.77997 0.4717 0.21493 0.0
H447 H 0.84418 0.50268 0.21048 0.0
H448 H 0.70917 0.37145 0.20749 0.0
H449 H 0.73198 0.47359 0.17551 0.0
H450 H 0.76724 0.46992 0.17879 0.0
H451 H 0.75359 0.484 0.19507 0.0
C452 C 0.81613 0.43348 0.18956 0.0
C453 C 0.84 0.4655 0.19549 0.0
C454 C 0.77932 0.4163 0.19164 0.0
C455 C 0.7658 0.43059 0.19998 0.0
C456 C 0.78984 0.46069 0.20796 0.0
H457 H 0.55987 0.38435 0.17537 0.0
H458 H 0.60749 0.39742 0.19396 0.0
C459 C 0.82668 0.47826 0.20554 0.0
C460 C 0.7274 0.41641 0.19779 0.0
H461 H 0.67305 0.42961 0.17905 0.0
C462 C 0.70113 0.38431 0.20153 0.0
C463 C 0.71698 0.43313 0.18983 0.0
C464 C 0.74385 0.46693 0.18442 0.0
C465 C 0.66494 0.3682 0.197 0.0
C466 C 0.65497 0.38469 0.18859 0.0
C467 C 0.68083 0.41716 0.18566 0.0
C468 C 0.61926 0.36848 0.18077 0.0
C469 C 0.63784 0.33352 0.20081 0.0
C470 C 0.60896 0.34664 0.16757 0.0
C471 C 0.58148 0.33892 0.15688 0.0
C472 C 0.56411 0.35315 0.15916 0.0
C473 C 0.57233 0.37265 0.17326 0.0
C474 C 0.59967 0.38026 0.18394 0.0
H475 H 0.64705 0.32716 0.21119 0.0
H476 H 0.6115 0.32805 0.20365 0.0
H477 H 0.63403 0.31823 0.19009 0.0
H478 H 0.62411 0.33767 0.16475 0.0
H479 H 0.57544 0.32345 0.14628 0.0
H480 H 0.47333 0.90505 0.48571 0.0
H481 H 0.41826 0.84993 0.48275 0.0
H482 H 0.36385 0.8839 0.46144 0.0
H483 H 0.41879 0.93882 0.46403 0.0
H484 H 0.35121 0.82081 0.49499 0.0
H485 H 0.3429 0.81609 0.42796 0.0
H486 H 0.38253 0.84779 0.43933 0.0
H487 H 0.3451 0.84888 0.43703 0.0
C488 C 0.44968 0.90081 0.48035 0.0
C489 C 0.45068 0.92645 0.47498 0.0
C490 C 0.41817 0.86923 0.47868 0.0
C491 C 0.38699 0.86258 0.47158 0.0
C492 C 0.38773 0.88822 0.46656 0.0
H493 H 0.16856 0.69789 0.45026 0.0
H494 H 0.22469 0.75095 0.4564 0.0
C495 C 0.41921 0.91973 0.46814 0.0
C496 C 0.35361 0.82896 0.4695 0.0
H497 H 0.29084 0.77395 0.44124 0.0
C498 C 0.33817 0.81046 0.48322 0.0
C499 C 0.33661 0.81528 0.45413 0.0
C500 C 0.35281 0.83291 0.43875 0.0
C501 C 0.30568 0.77919 0.48204 0.0
C502 C 0.28828 0.76594 0.46673 0.0
C503 C 0.30402 0.78421 0.453 0.0
C504 C 0.25339 0.73341 0.46458 0.0
C505 C 0.28964 0.76086 0.49722 0.0
C506 C 0.25059 0.70574 0.46736 0.0
C507 C 0.21845 0.6752 0.46375 0.0
C508 C 0.18853 0.67175 0.45719 0.0
C509 C 0.19115 0.69957 0.45504 0.0
C510 C 0.22322 0.72998 0.4586 0.0
H511 H 0.3024 0.7766 0.50836 0.0
H512 H 0.26036 0.74888 0.49738 0.0
H513 H 0.29353 0.74202 0.49748 0.0
H514 H 0.27365 0.70776 0.47175 0.0
H515 H 0.21759 0.65439 0.46538 0.0
H516 H 0.48572 0.31133 0.82065 0.0
H517 H 0.4907 0.26908 0.81205 0.0
H518 H 0.54931 0.28569 0.85627 0.0
H519 H 0.54434 0.328 0.86499 0.0
H520 H 0.55171 0.27447 0.80655 0.0
H521 H 0.47408 0.18898 0.8549 0.0
H522 H 0.47281 0.22202 0.85144 0.0
H523 H 0.51024 0.22877 0.8622 0.0
C524 C 0.49968 0.30602 0.82856 0.0
C525 C 0.51462 0.32308 0.84352 0.0
C526 C 0.50237 0.28175 0.82366 0.0
C527 C 0.51996 0.27386 0.83359 0.0
C528 C 0.53485 0.29077 0.84856 0.0
H529 H 0.5729 0.14103 0.81443 0.0
H530 H 0.56794 0.18137 0.82702 0.0
C531 C 0.53205 0.31501 0.85351 0.0
C532 C 0.52398 0.24895 0.82786 0.0
H533 H 0.50378 0.1766 0.83662 0.0
C534 C 0.54118 0.25308 0.81314 0.0
C535 C 0.51044 0.22107 0.83649 0.0
C536 C 0.49057 0.21469 0.85207 0.0
C537 C 0.5451 0.23015 0.80679 0.0
C538 C 0.53108 0.20209 0.81528 0.0
C539 C 0.51451 0.19815 0.83015 0.0
C540 C 0.53214 0.17607 0.80843 0.0
C541 C 0.56437 0.23619 0.79105 0.0
C542 C 0.51282 0.15908 0.7941 0.0
C543 C 0.51536 0.13595 0.78697 0.0
C544 C 0.53737 0.12927 0.79399 0.0
C545 C 0.55562 0.14546 0.80872 0.0
C546 C 0.55295 0.16862 0.8159 0.0
H547 H 0.58096 0.26186 0.78814 0.0
H548 H 0.58192 0.22861 0.79153 0.0
H549 H 0.54433 0.22203 0.78105 0.0
H550 H 0.49604 0.164 0.78831 0.0
H551 H 0.50024 0.12345 0.77584 0.0
H552 H 0.52236 0.83324 0.49546 0.0
H553 H 0.51619 0.78452 0.50095 0.0
H554 H 0.62082 0.84195 0.52424 0.0
H555 H 0.62757 0.89057 0.51858 0.0
H556 H 0.56413 0.76714 0.49244 0.0
H557 H 0.55087 0.77802 0.55872 0.0
H558 H 0.54393 0.79882 0.54427 0.0
H559 H 0.58863 0.81382 0.55018 0.0
C560 C 0.54421 0.83551 0.5016 0.0
C561 C 0.57529 0.86585 0.50677 0.0
C562 C 0.54057 0.80766 0.50477 0.0
C563 C 0.56782 0.80967 0.51321 0.0
C564 C 0.5992 0.83987 0.51797 0.0
H565 H 0.61639 0.69188 0.55277 0.0
H566 H 0.61481 0.73412 0.54272 0.0
C567 C 0.60291 0.86764 0.51479 0.0
C568 C 0.56363 0.7804 0.51739 0.0
H569 H 0.56135 0.74082 0.54973 0.0
C570 C 0.56309 0.76108 0.50494 0.0
C571 C 0.56217 0.77257 0.5337 0.0
C572 C 0.56109 0.79169 0.54751 0.0
C573 C 0.56279 0.7349 0.50845 0.0
C574 C 0.56247 0.72772 0.52481 0.0
C575 C 0.56186 0.74649 0.5372 0.0
C576 C 0.56433 0.70177 0.52955 0.0
C577 C 0.56424 0.71594 0.49469 0.0
C578 C 0.53664 0.66949 0.52533 0.0
C579 C 0.53747 0.64519 0.53109 0.0
C580 C 0.56582 0.6528 0.54131 0.0
C581 C 0.59393 0.6852 0.54512 0.0
C582 C 0.59313 0.70938 0.53934 0.0
H583 H 0.57202 0.72859 0.48316 0.0
H584 H 0.58358 0.71105 0.49759 0.0
H585 H 0.53737 0.6926 0.49279 0.0
H586 H 0.51384 0.66304 0.51802 0.0
H587 H 0.51525 0.62045 0.52808 0.0
H588 H 0.70252 0.57595 0.84234 0.0
H589 H 0.75522 0.57647 0.84342 0.0
H590 H 0.68904 0.47947 0.85876 0.0
H591 H 0.63644 0.47902 0.85793 0.0
H592 H 0.74949 0.51059 0.87574 0.0
H593 H 0.79088 0.542 0.81249 0.0
H594 H 0.78912 0.57128 0.82335 0.0
H595 H 0.74856 0.53126 0.81958 0.0
C596 C 0.69889 0.55454 0.84586 0.0
C597 C 0.66433 0.52737 0.84992 0.0
C598 C 0.72944 0.55476 0.84636 0.0
C599 C 0.72706 0.52777 0.85088 0.0
C600 C 0.69258 0.50078 0.85513 0.0
H601 H 0.89773 0.50121 0.83474 0.0
H602 H 0.84456 0.49999 0.833 0.0
C603 C 0.66205 0.50052 0.85459 0.0
C604 C 0.76005 0.52775 0.8516 0.0
H605 H 0.83225 0.54369 0.82997 0.0
C606 C 0.7674 0.51788 0.86564 0.0
C607 C 0.78403 0.53659 0.83852 0.0
C608 C 0.77765 0.54557 0.82257 0.0
C609 C 0.79734 0.51723 0.86708 0.0
C610 C 0.82204 0.52716 0.85423 0.0
C611 C 0.81429 0.53637 0.84004 0.0
C612 C 0.85557 0.52801 0.85527 0.0
C613 C 0.80151 0.50493 0.88238 0.0
C614 C 0.88098 0.54441 0.8682 0.0
C615 C 0.91172 0.5451 0.86925 0.0
C616 C 0.91907 0.52957 0.85737 0.0
C617 C 0.89369 0.51331 0.84435 0.0
C618 C 0.86294 0.51277 0.84326 0.0
H619 H 0.77556 0.48914 0.88857 0.0
H620 H 0.81231 0.49134 0.87982 0.0
H621 H 0.82038 0.52551 0.89087 0.0
H622 H 0.87733 0.55714 0.87758 0.0
H623 H 0.92956 0.55767 0.87967 0.0
H624 H 0.1796 0.61144 0.14732 0.0
H625 H 0.2362 0.6656 0.15004 0.0
H626 H 0.1787 0.70217 0.16551 0.0
H627 H 0.12229 0.64812 0.16334 0.0
H628 H 0.2612 0.71981 0.13547 0.0
H629 H 0.25278 0.73944 0.20115 0.0
H630 H 0.2229 0.70067 0.19086 0.0
H631 H 0.21452 0.72985 0.18994 0.0
C632 C 0.17899 0.63098 0.15138 0.0
C633 C 0.14631 0.62527 0.15527 0.0
C634 C 0.21143 0.662 0.15291 0.0
C635 C 0.21197 0.68803 0.15832 0.0
C636 C 0.17927 0.68247 0.1618 0.0
H637 H 0.37788 0.89419 0.17147 0.0
H638 H 0.32163 0.84056 0.16571 0.0
C639 C 0.14691 0.65147 0.16045 0.0
C640 C 0.24659 0.721 0.16013 0.0
H641 H 0.29777 0.78532 0.18695 0.0
C642 C 0.26923 0.73402 0.14676 0.0
C643 C 0.25737 0.73967 0.17489 0.0
C644 C 0.23581 0.72659 0.19007 0.0
C645 C 0.30181 0.76522 0.14768 0.0
C646 C 0.31207 0.78396 0.16232 0.0
C647 C 0.28962 0.77102 0.17568 0.0
C648 C 0.3465 0.81679 0.16421 0.0
C649 C 0.32493 0.7782 0.13296 0.0
C650 C 0.37919 0.82127 0.16511 0.0
C651 C 0.41131 0.85183 0.16847 0.0
C652 C 0.41145 0.87861 0.17092 0.0
C653 C 0.37878 0.87418 0.16945 0.0
C654 C 0.34659 0.84352 0.16626 0.0
H655 H 0.31062 0.76286 0.12185 0.0
H656 H 0.33395 0.80283 0.13095 0.0
H657 H 0.34919 0.7795 0.13499 0.0
H658 H 0.37971 0.80095 0.16371 0.0
H659 H 0.43601 0.85444 0.16949 0.0
H660 H 0.55389 0.19445 0.50584 0.0
H661 H 0.55763 0.24134 0.51465 0.0
H662 H 0.49108 0.22551 0.47373 0.0
H663 H 0.48552 0.1775 0.4653 0.0
H664 H 0.58377 0.29645 0.50018 0.0
H665 H 0.43846 0.23142 0.51077 0.0
H666 H 0.45813 0.21099 0.50723 0.0
H667 H 0.44846 0.22581 0.49052 0.0
C668 C 0.53957 0.2006 0.49881 0.0
C669 C 0.51902 0.18183 0.48495 0.0
C670 C 0.54204 0.22765 0.50379 0.0
C671 C 0.52413 0.23667 0.49502 0.0
C672 C 0.50449 0.21864 0.4809 0.0
H673 H 0.56913 0.4241 0.5145 0.0
H674 H 0.56286 0.37845 0.50103 0.0
C675 C 0.50175 0.19139 0.47597 0.0
C676 C 0.52611 0.26493 0.50077 0.0
H677 H 0.47507 0.28793 0.51372 0.0
C678 C 0.56 0.29463 0.5031 0.0
C679 C 0.49508 0.26244 0.50474 0.0
C680 C 0.45799 0.23092 0.50335 0.0
C681 C 0.56378 0.3218 0.50942 0.0
C682 C 0.53273 0.31942 0.51317 0.0
C683 C 0.49882 0.2898 0.51069 0.0
C684 C 0.53488 0.34675 0.52072 0.0
C685 C 0.60103 0.35248 0.5126 0.0
C686 C 0.51998 0.34373 0.53595 0.0
C687 C 0.52298 0.36954 0.54355 0.0
C688 C 0.54103 0.39906 0.53609 0.0
C689 C 0.555 0.40173 0.52058 0.0
C690 C 0.55183 0.37577 0.51295 0.0
H691 H 0.62155 0.34822 0.51282 0.0
H692 H 0.60782 0.36905 0.50281 0.0
H693 H 0.60262 0.36445 0.52433 0.0
H694 H 0.50649 0.32149 0.54213 0.0
H695 H 0.51119 0.36635 0.55532 0.0
H696 H 0.49639 0.57158 0.84864 0.0
H697 H 0.44394 0.57143 0.84988 0.0
H698 H 0.37619 0.47016 0.85724 0.0
H699 H 0.42863 0.47039 0.85642 0.0
H700 H 0.38488 0.54656 0.83298 0.0
H701 H 0.33756 0.49316 0.89253 0.0
H702 H 0.3803 0.50594 0.88494 0.0
H703 H 0.33974 0.46753 0.87846 0.0
C704 C 0.47043 0.54916 0.85064 0.0
C705 C 0.46763 0.52103 0.85256 0.0
C706 C 0.43999 0.54909 0.85132 0.0
C707 C 0.4051 0.52095 0.85405 0.0
C708 C 0.40224 0.4927 0.85567 0.0
H709 H 0.1857 0.46931 0.86066 0.0
H710 H 0.23869 0.47076 0.85915 0.0
C711 C 0.43268 0.49278 0.85504 0.0
C712 C 0.37218 0.52113 0.85487 0.0
H713 H 0.29747 0.49666 0.87712 0.0
C714 C 0.36606 0.53575 0.84276 0.0
C715 C 0.34665 0.50723 0.8675 0.0
C716 C 0.35151 0.49288 0.88168 0.0
C717 C 0.33577 0.53613 0.84266 0.0
C718 C 0.31014 0.52203 0.85522 0.0
C719 C 0.31632 0.5075 0.86735 0.0
C720 C 0.27685 0.52164 0.85596 0.0
C721 C 0.33104 0.55083 0.82862 0.0
C722 C 0.27906 0.54966 0.85484 0.0
C723 C 0.24819 0.54897 0.85581 0.0
C724 C 0.21338 0.52025 0.8581 0.0
C725 C 0.21136 0.49227 0.85919 0.0
C726 C 0.24217 0.493 0.85824 0.0
H727 H 0.34569 0.55146 0.81783 0.0
H728 H 0.30229 0.53743 0.82515 0.0
H729 H 0.34201 0.57588 0.83216 0.0
H730 H 0.30495 0.57251 0.85356 0.0
H731 H 0.25198 0.57137 0.85518 0.0
H732 H 0.96685 0.40723 0.13841 0.0
H733 H 0.91176 0.35274 0.14095 0.0
H734 H 0.86386 0.3901 0.16744 0.0
H735 H 0.91843 0.44454 0.16478 0.0
H736 H 0.87947 0.32058 0.16863 0.0
H737 H 0.78588 0.33021 0.13384 0.0
H738 H 0.83396 0.35959 0.13306 0.0
H739 H 0.80985 0.36057 0.14981 0.0
C740 C 0.9445 0.40394 0.14464 0.0
C741 C 0.94719 0.43046 0.15131 0.0
C742 C 0.91299 0.3727 0.14611 0.0
C743 C 0.88334 0.36722 0.15416 0.0
C744 C 0.88596 0.39363 0.16083 0.0
H745 H 0.67835 0.20592 0.18694 0.0
H746 H 0.73177 0.25802 0.17941 0.0
C747 C 0.9174 0.42485 0.15938 0.0
C748 C 0.85033 0.3339 0.15623 0.0
H749 H 0.75938 0.28434 0.14979 0.0
C750 C 0.85326 0.31254 0.16435 0.0
C751 C 0.81605 0.32335 0.15068 0.0
C752 C 0.81118 0.34451 0.14122 0.0
C753 C 0.82286 0.28142 0.16756 0.0
C754 C 0.78851 0.27103 0.16222 0.0
C755 C 0.78565 0.29222 0.15387 0.0
C756 C 0.75511 0.23888 0.16588 0.0
C757 C 0.82768 0.2604 0.17719 0.0
C758 C 0.74979 0.21053 0.16043 0.0
C759 C 0.71922 0.18055 0.16481 0.0
C760 C 0.69327 0.17829 0.17472 0.0
C761 C 0.69804 0.20671 0.17957 0.0
C762 C 0.72852 0.23658 0.17518 0.0
H763 H 0.85414 0.27442 0.18364 0.0
H764 H 0.80629 0.24737 0.18623 0.0
H765 H 0.82602 0.24243 0.16884 0.0
H766 H 0.76951 0.21159 0.15295 0.0
H767 H 0.71654 0.15925 0.16089 0.0
H768 H 0.04952 0.58494 0.10106 0.0
H769 H 0.05481 0.58136 0.07169 0.0
H770 H 0.04984 0.49724 0.07655 0.0
H771 H 0.04307 0.50002 0.10587 0.0
H772 H 0.10308 0.58425 0.05319 0.0
H773 H 0.97236 0.46473 0.04289 0.0
H774 H 0.98496 0.48705 0.06206 0.0
H775 H 1.00149 0.46457 0.05681 0.0
C776 C 0.04951 0.56567 0.09585 0.0
C777 C 0.04556 0.5426 0.10572 0.0
C778 C 0.05259 0.56366 0.07907 0.0
C779 C 0.05198 0.53864 0.07182 0.0
C780 C 0.04933 0.51622 0.08176 0.0
H781 H 0.1154 0.54296 0.9712 0.0
H782 H 0.11329 0.54415 0.00075 0.0
C783 C 0.04578 0.51799 0.09854 0.0
C784 C 0.05411 0.5362 0.05388 0.0
H785 H 1.01052 0.4864 0.02037 0.0
C786 C 0.08281 0.56285 0.04601 0.0
C787 C 1.02741 0.50844 0.04445 0.0
C788 C 0.99463 0.4797 0.05195 0.0
C789 C 0.08557 0.56256 0.02906 0.0
C790 C 0.05943 0.53447 0.01968 0.0
C791 C 1.03075 0.50782 0.02754 0.0
C792 C 0.06045 0.5326 0.00166 0.0
C793 C 0.11583 0.59275 0.02136 0.0
C794 C 0.03089 0.52438 0.99224 0.0
C795 C 0.03162 0.52285 0.97531 0.0
C796 C 0.06203 0.52965 0.96734 0.0
C797 C 0.0914 0.53736 0.97683 0.0
C798 C 0.09049 0.53855 0.99379 0.0
H799 H 0.127 0.61425 0.02957 0.0
H800 H 0.13781 0.59095 0.01867 0.0
H801 H 0.10684 0.59631 0.00984 0.0
H802 H 1.00725 0.51937 -0.00199 0.0
H803 H 1.00814 0.5161 0.96849 0.0
H804 H 0.50642 0.99519 0.43295 0.0
H805 H 0.50118 0.99491 0.40338 0.0
H806 H 0.6161 0.05045 0.40005 0.0
H807 H 0.62134 0.04995 0.42946 0.0
H808 H 0.52746 0.04215 0.38239 0.0
H809 H 0.58279 0.97585 0.36887 0.0
H810 H 0.57026 0.97966 0.38901 0.0
H811 H 0.61291 0.01169 0.3812 0.0
C812 C 0.53052 0.00729 0.42587 0.0
C813 C 0.56425 0.02223 0.43343 0.0
C814 C 0.52751 0.00715 0.40901 0.0
C815 C 0.55818 0.02202 0.39946 0.0
C816 C 0.59198 0.038 0.4071 0.0
H817 H 0.57661 0.07544 0.29968 0.0
H818 H 0.57696 0.07395 0.32918 0.0
C819 C 0.59497 0.03788 0.42391 0.0
C820 C 0.55493 0.02089 0.38152 0.0
H821 H 0.57734 1.00031 0.34663 0.0
C822 C 0.53816 0.03282 0.37455 0.0
C823 C 0.56827 0.00814 0.3713 0.0
C824 C 0.58422 0.9928 0.37797 0.0
C825 C 0.53517 0.03309 0.35765 0.0
C826 C 0.5502 0.02188 0.34745 0.0
C827 C 0.56621 0.00927 0.35443 0.0
C828 C 0.5496 0.02284 0.3295 0.0
C829 C 0.51539 0.04487 0.35093 0.0
C830 C 0.53519 0.99482 0.3198 0.0
C831 C 0.53579 0.99572 0.3029 0.0
C832 C 0.55075 0.02469 0.29529 0.0
C833 C 0.56518 0.05274 0.30507 0.0
C834 C 0.56487 0.05186 0.32198 0.0
H835 H 0.49632 0.04294 0.35981 0.0
H836 H 0.53501 0.07049 0.34819 0.0
H837 H 0.50028 0.03119 0.33958 0.0
H838 H 0.52357 0.97219 0.32532 0.0
H839 H 0.52505 0.97375 0.29582 0.0
H840 H 0.52322 0.46092 0.79339 0.0
H841 H 0.53085 0.47425 0.76495 0.0
H842 H 0.606 0.57463 0.7789 0.0
H843 H 0.59869 0.56124 0.80756 0.0
H844 H 0.5175 0.51526 0.75056 0.0
H845 H 0.65848 0.5582 0.74387 0.0
H846 H 0.6311 0.53404 0.76037 0.0
H847 H 0.64935 0.5755 0.76043 0.0
C848 C 0.54151 0.48585 0.79043 0.0
C849 C 0.56027 0.51013 0.8027 0.0
C850 C 0.54578 0.49342 0.77417 0.0
C851 C 0.5691 0.52538 0.76982 0.0
C852 C 0.58812 0.54977 0.78202 0.0
H853 H 0.61594 0.5893 0.66983 0.0
H854 H 0.61544 0.58968 0.69954 0.0
C855 C 0.58376 0.54216 0.79837 0.0
C856 C 0.57246 0.53267 0.75247 0.0
H857 H 0.62872 0.55656 0.72053 0.0
C858 C 0.54191 0.52457 0.74401 0.0
C859 C 0.60441 0.54501 0.74401 0.0
C860 C 0.63775 0.55358 0.75253 0.0
C861 C 0.54216 0.52772 0.72722 0.0
C862 C 0.57359 0.53865 0.71861 0.0
C863 C 0.60462 0.54802 0.72716 0.0
C864 C 0.57403 0.53866 0.70066 0.0
C865 C 0.50866 0.51909 0.71881 0.0
C866 C 0.5513 0.50979 0.69149 0.0
C867 C 0.55141 0.50949 0.67457 0.0
C868 C 0.57444 0.53807 0.66646 0.0
C869 C 0.59755 0.56694 0.6757 0.0
C870 C 0.59745 0.5672 0.69266 0.0
H871 H 0.49124 0.52051 0.72739 0.0
H872 H 0.51532 0.53509 0.70873 0.0
H873 H 0.49307 0.49411 0.7137 0.0
H874 H 0.53346 0.4874 0.69742 0.0
H875 H 0.53305 0.48689 0.66785 0.0
H876 H 0.48563 0.01168 0.53201 0.0
H877 H 0.49299 0.01007 0.56116 0.0
H878 H 0.60124 0.04209 0.55409 0.0
H879 H 0.59435 0.0447 0.52492 0.0
H880 H 0.50729 0.9753 0.57778 0.0
H881 H 0.61618 0.10515 0.58934 0.0
H882 H 0.59062 0.08918 0.57051 0.0
H883 H 0.62626 0.08621 0.57427 0.0
C884 C 0.51106 0.01853 0.53668 0.0
C885 C 0.5395 0.0285 0.52624 0.0
C886 C 0.51521 0.01753 0.55333 0.0
C887 C 0.54784 0.02644 0.55986 0.0
C888 C 0.5761 0.03584 0.54939 0.0
H889 H 0.60899 0.02945 0.66039 0.0
H890 H 0.60691 0.02917 0.63068 0.0
C891 C 0.57205 0.03708 0.53272 0.0
C892 C 0.55184 0.02545 0.57761 0.0
H893 H 0.59977 0.07182 0.61146 0.0
C894 C 0.52754 0.99641 0.58513 0.0
C895 C 0.5783 0.05302 0.5872 0.0
C896 C 0.60414 0.08523 0.57998 0.0
C897 C 0.52887 0.99423 0.60195 0.0
C898 C 0.55504 0.02183 0.61152 0.0
C899 C 0.57981 0.05071 0.60403 0.0
C900 C 0.5561 0.02149 0.62943 0.0
C901 C 0.50232 0.96242 0.60941 0.0
C902 C 0.52837 0.01752 0.6385 0.0
C903 C 0.52954 0.01779 0.65542 0.0
C904 C 0.55845 0.02195 0.66358 0.0
C905 C 0.5862 0.02587 0.65444 0.0
C906 C 0.58515 0.02587 0.6375 0.0
H907 H 0.48924 0.94222 0.60018 0.0
H908 H 0.51566 0.95816 0.61882 0.0
H909 H 0.48112 0.9626 0.61534 0.0
H910 H 0.50591 0.01444 0.63249 0.0
H911 H 0.50762 0.01445 0.66211 0.0
H912 H 0.63577 0.55421 0.90136 0.0
H913 H 0.62893 0.52724 0.92624 0.0
H914 H 0.51498 0.45994 0.91661 0.0
H915 H 0.52172 0.48654 0.89166 0.0
H916 H 0.58894 0.51987 0.95251 0.0
H917 H 0.54118 0.40096 0.92634 0.0
H918 H 0.56161 0.43572 0.91427 0.0
H919 H 0.51521 0.4134 0.91954 0.0
C920 C 0.60931 0.53356 0.90453 0.0
C921 C 0.57927 0.52236 0.8946 0.0
C922 C 0.60546 0.51815 0.9187 0.0
C923 C 0.57156 0.49122 0.92311 0.0
C924 C 0.54151 0.48015 0.91323 0.0
H925 H 0.47228 0.38216 0.00671 0.0
H926 H 0.48881 0.40274 0.97949 0.0
C927 C 0.54535 0.49553 0.89906 0.0
C928 C 0.56722 0.47598 0.93857 0.0
H929 H 0.53357 0.4043 0.95489 0.0
C930 C 0.57733 0.49471 0.95304 0.0
C931 C 0.55199 0.44313 0.93918 0.0
C932 C 0.54219 0.42218 0.92399 0.0
C933 C 0.57131 0.48124 0.96817 0.0
C934 C 0.55533 0.44824 0.96881 0.0
C935 C 0.54591 0.42961 0.95433 0.0
C936 C 0.54596 0.43242 0.98445 0.0
C937 C 0.58071 0.50215 0.98335 0.0
C938 C 0.57269 0.44132 0.99603 0.0
C939 C 0.56332 0.42972 0.01163 0.0
C940 C 0.52707 0.40899 0.01586 0.0
C941 C 0.50043 0.39847 0.00387 0.0
C942 C 0.50981 0.41006 0.9883 0.0
H943 H 0.58614 0.52529 0.98072 0.0
H944 H 0.55868 0.4897 0.99214 0.0
H945 H 0.60515 0.50744 0.98918 0.0
H946 H 0.60076 0.45823 0.9932 0.0
H947 H 0.58445 0.43838 0.02061 0.0
H948 H 0.09355 0.50167 0.20069 0.0
H949 H 0.08642 0.50053 0.23008 0.0
H950 H 1.02408 0.53552 0.22566 0.0
H951 H 0.03138 0.53682 0.19621 0.0
H952 H 0.07737 0.56726 0.25056 0.0
H953 H 0.99395 0.43528 0.25419 0.0
H954 H 0.03497 0.45229 0.24357 0.0
H955 H 1.00114 0.45456 0.23537 0.0
C956 C 0.07833 0.50913 0.20598 0.0
C957 C 0.06292 0.51932 0.19617 0.0
C958 C 0.0741 0.50827 0.22276 0.0
C959 C 0.05423 0.51743 0.23002 0.0
C960 C 0.03933 0.52816 0.22028 0.0
H961 H 0.9871 0.48426 0.33086 0.0
H962 H 0.98787 0.48487 0.3012 0.0
C963 C 0.04354 0.52896 0.20347 0.0
C964 C 0.04971 0.51637 0.24781 0.0
H965 H 1.01794 0.46602 0.27918 0.0
C966 C 0.06415 0.54512 0.25682 0.0
C967 C 0.03199 0.48737 0.25592 0.0
C968 C 1.0143 0.45555 0.24678 0.0
C969 C 0.0624 0.54579 0.2738 0.0
C970 C 0.04621 0.517 0.28196 0.0
C971 C 1.03069 0.4881 0.27291 0.0
C972 C 0.04573 0.51648 0.29991 0.0
C973 C 0.07777 0.5773 0.28284 0.0
C974 C 0.07799 0.53354 0.30897 0.0
C975 C 0.07765 0.53312 0.32588 0.0
C976 C 0.045 0.51547 0.33407 0.0
C977 C 1.01269 0.49789 0.32493 0.0
C978 C 1.01307 0.49835 0.30799 0.0
H979 H 0.07993 0.59489 0.27485 0.0
H980 H 0.06107 0.57401 0.29334 0.0
H981 H 0.10511 0.58758 0.28749 0.0
H982 H 0.10349 0.54701 0.30295 0.0
H983 H 0.103 0.54639 0.33252 0.0
loop_
_geom_bond_atom_site_label_1
_geom_bond_atom_site_label_2
_geom_bond_distance
_geom_bond_site_symmetry_2
_ccdc_geom_bond_type
Sm0 C2 2.846 . S
Sm0 O20 2.543 . S
Sm0 O21 2.450 . S
Sm0 O22 2.681 . S
Sm0 O23 2.464 . S
Sm0 O24 2.396 . S
Sm0 O28 2.386 . S
Sm0 O31 2.408 1_455 S
Sm1 C11 2.846 . S
Sm1 O22 2.386 1_655 S
Sm1 O25 2.408 1_655 S
Sm1 O26 2.543 . S
Sm1 O27 2.450 . S
Sm1 O28 2.681 1_655 S
Sm1 O29 2.461 1_655 S
Sm1 O30 2.396 . S
C2 Sm0 2.846 . S
C2 C3 1.506 . S
C2 O20 1.261 . S
C2 O21 1.242 . S
C3 C2 1.506 . S
C3 C4 1.358 . S
C3 C8 1.382 . S
C4 C3 1.358 . S
C4 C5 1.385 . S
C4 H32 0.930 . S
C5 C4 1.385 . S
C5 C6 1.395 . S
C5 H33 0.929 . S
C6 C5 1.395 . S
C6 C7 1.335 . S
C7 C6 1.335 . S
C7 C8 1.398 . S
C7 H34 0.930 . S
C8 C3 1.382 . S
C8 C7 1.398 . S
C8 H35 0.929 . S
C9 O22 1.271 . S
C9 O23 1.251 . S
C10 O24 1.252 . S
C10 O25 1.272 . S
C11 Sm1 2.846 . S
C11 C12 1.506 . S
C11 O26 1.261 . S
C11 O27 1.242 . S
C12 C11 1.506 . S
C12 C13 1.358 . S
C12 C17 1.382 . S
C13 C12 1.358 . S
C13 C14 1.385 . S
C13 H36 0.930 . S
C14 C13 1.385 . S
C14 C15 1.395 . S
C14 H37 0.929 . S
C15 C14 1.395 . S
C15 C16 1.335 . S
C16 C15 1.335 . S
C16 C17 1.398 . S
C16 H38 0.930 . S
C17 C12 1.382 . S
C17 C16 1.398 . S
C17 H39 0.929 . S
C18 O28 1.271 . S
C18 O29 1.267 . S
C19 O30 1.252 . S
C19 O31 1.272 . S
O20 Sm0 2.543 . S
O20 C2 1.261 . S
O21 Sm0 2.450 . S
O21 C2 1.242 . S
O22 Sm0 2.681 . S
O22 Sm1 2.386 1_455 S
O22 C9 1.271 . S
O23 Sm0 2.464 . S
O23 C9 1.251 . S
O24 Sm0 2.396 . S
O24 C10 1.252 . S
O25 Sm1 2.408 1_455 S
O25 C10 1.272 . S
O26 Sm1 2.543 . S
O26 C11 1.261 . S
O27 Sm1 2.450 . S
O27 C11 1.242 . S
O28 Sm0 2.386 . S
O28 Sm1 2.681 1_455 S
O28 C18 1.271 . S
O29 Sm1 2.461 1_455 S
O29 C18 1.267 . S
O30 Sm1 2.396 . S
O30 C19 1.252 . S
O31 Sm0 2.408 1_655 S
O31 C19 1.272 . S
H32 C4 0.930 . S
H33 C5 0.929 . S
H34 C7 0.930 . S
H35 C8 0.929 . S
H36 C13 0.930 . S
H37 C14 0.929 . S
H38 C16 0.930 . S
H39 C17 0.929 . S
Sm40 C42 2.846 . S
Sm40 O60 2.543 . S
Sm40 O61 2.450 . S
Sm40 O62 2.681 1_565 S
Sm40 O63 2.464 . S
Sm40 O64 2.396 . S
Sm40 O68 2.367 1_565 S
Sm40 O71 2.408 1_565 S
Sm41 C51 2.846 . S
Sm41 O62 2.386 . S
Sm41 O65 2.408 1_545 S
Sm41 O66 2.543 . S
Sm41 O67 2.450 . S
Sm41 O68 2.712 . S
Sm41 O69 2.464 . S
Sm41 O70 2.396 . S
C42 Sm40 2.846 . S
C42 C43 1.506 . S
C42 O60 1.261 . S
C42 O61 1.242 . S
C43 C42 1.506 . S
C43 C44 1.358 . S
C43 C48 1.382 . S
C44 C43 1.358 . S
C44 C45 1.385 . S
C44 H72 0.930 . S
C45 C44 1.385 . S
C45 C46 1.395 . S
C45 H73 0.929 . S
C46 C45 1.395 . S
C46 C47 1.335 . S
C47 C46 1.335 . S
C47 C48 1.398 . S
C47 H74 0.930 . S
C48 C43 1.382 . S
C48 C47 1.398 . S
C48 H75 0.929 . S
C49 O62 1.271 . S
C49 O63 1.251 1_545 S
C50 O64 1.252 . S
C50 O65 1.272 . S
C51 Sm41 2.846 . S
C51 C52 1.506 . S
C51 O66 1.261 . S
C51 O67 1.242 . S
C52 C51 1.506 . S
C52 C53 1.358 . S
C52 C57 1.382 . S
C53 C52 1.358 . S
C53 C54 1.385 . S
C53 H76 0.930 . S
C54 C53 1.385 . S
C54 C55 1.395 . S
C54 H77 0.929 . S
C55 C54 1.395 . S
C55 C56 1.335 . S
C56 C55 1.335 . S
C56 C57 1.398 . S
C56 H78 0.930 . S
C57 C52 1.382 . S
C57 C56 1.398 . S
C57 H79 0.929 . S
C58 O68 1.290 . S
C58 O69 1.251 . S
C59 O70 1.252 . S
C59 O71 1.272 . S
O60 Sm40 2.543 . S
O60 C42 1.261 . S
O61 Sm40 2.450 . S
O61 C42 1.242 . S
O62 Sm40 2.681 1_545 S
O62 Sm41 2.386 . S
O62 C49 1.271 . S
O63 Sm40 2.464 . S
O63 C49 1.251 1_565 S
O64 Sm40 2.396 . S
O64 C50 1.252 . S
O65 Sm41 2.408 1_565 S
O65 C50 1.272 . S
O66 Sm41 2.543 . S
O66 C51 1.261 . S
O67 Sm41 2.450 . S
O67 C51 1.242 . S
O68 Sm40 2.367 1_545 S
O68 Sm41 2.712 . S
O68 C58 1.290 . S
O69 Sm41 2.464 . S
O69 C58 1.251 . S
O70 Sm41 2.396 . S
O70 C59 1.252 . S
O71 Sm40 2.408 1_545 S
O71 C59 1.272 . S
H72 C44 0.930 . S
H73 C45 0.929 . S
H74 C47 0.930 . S
H75 C48 0.929 . S
H76 C53 0.930 . S
H77 C54 0.929 . S
H78 C56 0.930 . S
H79 C57 0.929 . S
Sm80 C82 2.846 . S
Sm80 O100 2.543 . S
Sm80 O101 2.450 . S
Sm80 O102 2.681 . S
Sm80 O103 2.464 . S
Sm80 O104 2.396 . S
Sm80 O108 2.386 . S
Sm80 O111 2.408 . S
Sm81 C91 2.846 . S
Sm81 O102 2.386 . S
Sm81 O105 2.408 . S
Sm81 O106 2.543 . S
Sm81 O107 2.450 . S
Sm81 O108 2.681 . S
Sm81 O109 2.464 . S
Sm81 O110 2.396 . S
C82 Sm80 2.846 . S
C82 C83 1.506 . S
C82 O100 1.261 . S
C82 O101 1.242 . S
C83 C82 1.506 . S
C83 C84 1.358 . S
C83 C88 1.382 . S
C84 C83 1.358 . S
C84 C85 1.385 . S
C84 H112 0.930 . S
C85 C84 1.385 . S
C85 C86 1.395 . S
C85 H113 0.929 . S
C86 C85 1.395 . S
C86 C87 1.335 . S
C87 C86 1.335 . S
C87 C88 1.398 . S
C87 H114 0.930 . S
C88 C83 1.382 . S
C88 C87 1.398 . S
C88 H115 0.929 . S
C89 O102 1.271 . S
C89 O103 1.251 . S
C90 O104 1.252 . S
C90 O105 1.272 . S
C91 Sm81 2.846 . S
C91 C92 1.506 . S
C91 O106 1.261 . S
C91 O107 1.242 . S
C92 C91 1.506 . S
C92 C93 1.358 . S
C92 C97 1.382 . S
C93 C92 1.358 . S
C93 C94 1.385 . S
C93 H116 0.930 . S
C94 C93 1.385 . S
C94 C95 1.395 . S
C94 H117 0.929 . S
C95 C94 1.395 . S
C95 C96 1.335 . S
C96 C95 1.335 . S
C96 C97 1.398 . S
C96 H118 0.930 . S
C97 C92 1.382 . S
C97 C96 1.398 . S
C97 H119 0.929 . S
C98 O108 1.271 . S
C98 O109 1.251 . S
C99 O110 1.252 . S
C99 O111 1.272 . S
O100 Sm80 2.543 . S
O100 C82 1.261 . S
O101 Sm80 2.450 . S
O101 C82 1.242 . S
O102 Sm80 2.681 . S
O102 Sm81 2.386 . S
O102 C89 1.271 . S
O103 Sm80 2.464 . S
O103 C89 1.251 . S
O104 Sm80 2.396 . S
O104 C90 1.252 . S
O105 Sm81 2.408 . S
O105 C90 1.272 . S
O106 Sm81 2.543 . S
O106 C91 1.261 . S
O107 Sm81 2.450 . S
O107 C91 1.242 . S
O108 Sm80 2.386 . S
O108 Sm81 2.681 . S
O108 C98 1.271 . S
O109 Sm81 2.464 . S
O109 C98 1.251 . S
O110 Sm81 2.396 . S
O110 C99 1.252 . S
O111 Sm80 2.408 . S
O111 C99 1.272 . S
H112 C84 0.930 . S
H113 C85 0.929 . S
H114 C87 0.930 . S
H115 C88 0.929 . S
H116 C93 0.930 . S
H117 C94 0.929 . S
H118 C96 0.930 . S
H119 C97 0.929 . S
C120 C121 1.384 . S
C120 H133 0.947 . S
C120 C155 1.382 . S
C121 C120 1.384 . S
C121 C122 1.378 . S
C122 C121 1.378 . S
C122 C123 1.378 . S
C122 H134 0.952 . S
C123 C122 1.378 . S
C123 H135 0.950 . S
C123 C154 1.383 . S
H124 C143 0.947 . S
H125 C144 0.946 . S
H126 C146 0.953 . S
H127 C147 0.945 . S
H128 C149 0.952 . S
H129 C150 0.949 . S
H130 C152 0.950 . S
H131 C153 0.948 . S
H132 C155 0.951 . S
H133 C120 0.947 . S
H134 C122 0.952 . S
H135 C123 0.950 . S
N136 C139 1.382 . S
N136 C141 1.363 1_545 S
N137 C139 1.371 . S
N137 C140 1.372 . S
N138 C140 1.361 1_565 S
N138 C141 1.377 . S
C139 N136 1.382 . S
C139 N137 1.371 . S
C139 C142 1.480 . S
C140 N137 1.372 . S
C140 N138 1.361 1_545 S
C140 C148 1.457 . S
C141 N136 1.363 1_565 S
C141 N138 1.377 . S
C141 C154 1.479 . S
C142 C139 1.480 . S
C142 C143 1.383 . S
C142 C147 1.385 . S
C143 H124 0.947 . S
C143 C142 1.383 . S
C143 C144 1.388 . S
C144 H125 0.946 . S
C144 C143 1.388 . S
C144 C145 1.384 . S
C145 C144 1.384 . S
C145 C146 1.377 . S
C146 H126 0.953 . S
C146 C145 1.377 . S
C146 C147 1.369 . S
C147 H127 0.945 . S
C147 C142 1.385 . S
C147 C146 1.369 . S
C148 C140 1.457 . S
C148 C149 1.372 . S
C148 C153 1.364 1_545 S
C149 H128 0.952 . S
C149 C148 1.372 . S
C149 C150 1.389 . S
C150 H129 0.949 . S
C150 C149 1.389 . S
C150 C151 1.387 . S
C151 C150 1.387 . S
C151 C152 1.372 1_545 S
C152 H130 0.950 . S
C152 C151 1.372 1_565 S
C152 C153 1.379 . S
C153 H131 0.948 . S
C153 C148 1.364 1_565 S
C153 C152 1.379 . S
C154 C123 1.383 . S
C154 C141 1.479 . S
C154 C155 1.398 . S
C155 C120 1.382 . S
C155 H132 0.951 . S
C155 C154 1.398 . S
C156 C157 1.384 . S
C156 H169 0.947 . S
C156 C191 1.382 . S
C157 C156 1.384 . S
C157 C158 1.378 . S
C158 C157 1.378 . S
C158 C159 1.378 . S
C158 H170 0.952 . S
C159 C158 1.378 . S
C159 H171 0.950 . S
C159 C190 1.383 . S
H160 C179 0.947 . S
H161 C180 0.946 . S
H162 C182 0.953 . S
H163 C183 0.945 . S
H164 C185 0.952 . S
H165 C186 0.949 . S
H166 C188 0.950 . S
H167 C189 0.948 . S
H168 C191 0.951 . S
H169 C156 0.947 . S
H170 C158 0.952 . S
H171 C159 0.950 . S
N172 C175 1.382 . S
N172 C177 1.363 . S
N173 C175 1.371 . S
N173 C176 1.372 . S
N174 C176 1.361 . S
N174 C177 1.377 . S
C175 N172 1.382 . S
C175 N173 1.371 . S
C175 C178 1.480 . S
C176 N173 1.372 . S
C176 N174 1.361 . S
C176 C184 1.457 . S
C177 N172 1.363 . S
C177 N174 1.377 . S
C177 C190 1.479 . S
C178 C175 1.480 . S
C178 C179 1.383 . S
C178 C183 1.385 . S
C179 H160 0.947 . S
C179 C178 1.383 . S
C179 C180 1.388 . S
C180 H161 0.946 . S
C180 C179 1.388 . S
C180 C181 1.384 . S
C181 C180 1.384 . S
C181 C182 1.377 . S
C182 H162 0.953 . S
C182 C181 1.377 . S
C182 C183 1.369 . S
C183 H163 0.945 . S
C183 C178 1.385 . S
C183 C182 1.369 . S
C184 C176 1.457 . S
C184 C185 1.372 . S
C184 C189 1.364 . S
C185 H164 0.952 . S
C185 C184 1.372 . S
C185 C186 1.389 . S
C186 H165 0.949 . S
C186 C185 1.389 . S
C186 C187 1.387 . S
C187 C186 1.387 . S
C187 C188 1.372 . S
C188 H166 0.950 . S
C188 C187 1.372 . S
C188 C189 1.379 . S
C189 H167 0.948 . S
C189 C184 1.364 . S
C189 C188 1.379 . S
C190 C159 1.383 . S
C190 C177 1.479 . S
C190 C191 1.398 . S
C191 C156 1.382 . S
C191 H168 0.951 . S
C191 C190 1.398 . S
C192 C193 1.384 . S
C192 H205 0.947 . S
C192 C227 1.382 . S
C193 C192 1.384 . S
C193 C194 1.378 . S
C194 C193 1.378 . S
C194 C195 1.378 . S
C194 H206 0.952 . S
C195 C194 1.378 . S
C195 H207 0.950 1_655 S
C195 C226 1.383 . S
H196 C215 0.947 . S
H197 C216 0.946 . S
H198 C218 0.953 . S
H199 C219 0.945 . S
H200 C221 0.952 . S
H201 C222 0.949 . S
H202 C224 0.950 1_655 S
H203 C225 0.948 1_655 S
H204 C227 0.951 . S
H205 C192 0.947 . S
H206 C194 0.952 . S
H207 C195 0.950 1_455 S
N208 C211 1.382 . S
N208 C213 1.363 . S
N209 C211 1.371 . S
N209 C212 1.372 . S
N210 C212 1.361 . S
N210 C213 1.377 . S
C211 N208 1.382 . S
C211 N209 1.371 . S
C211 C214 1.480 . S
C212 N209 1.372 . S
C212 N210 1.361 . S
C212 C220 1.457 . S
C213 N208 1.363 . S
C213 N210 1.377 . S
C213 C226 1.479 1_455 S
C214 C211 1.480 . S
C214 C215 1.383 . S
C214 C219 1.385 . S
C215 H196 0.947 . S
C215 C214 1.383 . S
C215 C216 1.388 . S
C216 H197 0.946 . S
C216 C215 1.388 . S
C216 C217 1.384 . S
C217 C216 1.384 . S
C217 C218 1.377 . S
C218 H198 0.953 . S
C218 C217 1.377 . S
C218 C219 1.369 . S
C219 H199 0.945 . S
C219 C214 1.385 . S
C219 C218 1.369 . S
C220 C212 1.457 . S
C220 C221 1.372 . S
C220 C225 1.364 . S
C221 H200 0.952 . S
C221 C220 1.372 . S
C221 C222 1.389 . S
C222 H201 0.949 . S
C222 C221 1.389 . S
C222 C223 1.387 . S
C223 C222 1.387 . S
C223 C224 1.372 . S
C224 H202 0.950 1_455 S
C224 C223 1.372 . S
C224 C225 1.379 . S
C225 H203 0.948 1_455 S
C225 C220 1.364 . S
C225 C224 1.379 . S
C226 C195 1.383 . S
C226 C213 1.479 1_655 S
C226 C227 1.398 . S
C227 C192 1.382 . S
C227 H204 0.951 . S
C227 C226 1.398 . S
C228 C229 1.384 . S
C228 H241 0.947 . S
C228 C263 1.382 . S
C229 C228 1.384 . S
C229 C230 1.378 . S
C230 C229 1.378 . S
C230 C231 1.378 . S
C230 H242 0.952 . S
C231 C230 1.378 . S
C231 H243 0.950 . S
C231 C262 1.383 . S
H232 C251 0.947 . S
H233 C252 0.946 . S
H234 C254 0.953 . S
H235 C255 0.945 . S
H236 C257 0.952 . S
H237 C258 0.949 . S
H238 C260 0.950 . S
H239 C261 0.948 . S
H240 C263 0.951 . S
H241 C228 0.947 . S
H242 C230 0.952 . S
H243 C231 0.950 . S
N244 C247 1.382 1_455 S
N244 C249 1.363 . S
N245 C247 1.371 . S
N245 C248 1.372 1_655 S
N246 C248 1.361 . S
N246 C249 1.377 . S
C247 N244 1.382 1_655 S
C247 N245 1.371 . S
C247 C250 1.480 . S
C248 N245 1.372 1_455 S
C248 N246 1.361 . S
C248 C256 1.457 . S
C249 N244 1.363 . S
C249 N246 1.377 . S
C249 C262 1.479 . S
C250 C247 1.480 . S
C250 C251 1.383 . S
C250 C255 1.385 . S
C251 H232 0.947 . S
C251 C250 1.383 . S
C251 C252 1.388 . S
C252 H233 0.946 . S
C252 C251 1.388 . S
C252 C253 1.384 . S
C253 C252 1.384 . S
C253 C254 1.377 . S
C254 H234 0.953 . S
C254 C253 1.377 . S
C254 C255 1.369 . S
C255 H235 0.945 . S
C255 C250 1.385 . S
C255 C254 1.369 . S
C256 C248 1.457 . S
C256 C257 1.372 1_455 S
C256 C261 1.364 . S
C257 H236 0.952 . S
C257 C256 1.372 1_655 S
C257 C258 1.389 . S
C258 H237 0.949 . S
C258 C257 1.389 . S
C258 C259 1.387 1_655 S
C259 C258 1.387 1_455 S
C259 C260 1.372 . S
C260 H238 0.950 . S
C260 C259 1.372 . S
C260 C261 1.379 . S
C261 H239 0.948 . S
C261 C256 1.364 . S
C261 C260 1.379 . S
C262 C231 1.383 . S
C262 C249 1.479 . S
C262 C263 1.398 . S
C263 C228 1.382 . S
C263 H240 0.951 . S
C263 C262 1.398 . S
C264 C265 1.384 . S
C264 H277 0.947 . S
C264 C299 1.382 . S
C265 C264 1.384 . S
C265 C266 1.378 . S
C266 C265 1.378 . S
C266 C267 1.378 . S
C266 H278 0.952 . S
C267 C266 1.378 . S
C267 H279 0.950 . S
C267 C298 1.383 . S
H268 C287 0.947 . S
H269 C288 0.946 . S
H270 C290 0.953 . S
H271 C291 0.945 . S
H272 C293 0.952 . S
H273 C294 0.949 . S
H274 C296 0.950 . S
H275 C297 0.948 . S
H276 C299 0.951 . S
H277 C264 0.947 . S
H278 C266 0.952 . S
H279 C267 0.950 . S
N280 C283 1.382 1_545 S
N280 C285 1.363 . S
N281 C283 1.371 . S
N281 C284 1.372 1_565 S
N282 C284 1.361 . S
N282 C285 1.377 . S
C283 N280 1.382 1_565 S
C283 N281 1.371 . S
C283 C286 1.480 . S
C284 N281 1.372 1_545 S
C284 N282 1.361 . S
C284 C292 1.457 . S
C285 N280 1.363 . S
C285 N282 1.377 . S
C285 C298 1.479 . S
C286 C283 1.480 . S
C286 C287 1.383 . S
C286 C291 1.385 . S
C287 H268 0.947 . S
C287 C286 1.383 . S
C287 C288 1.388 . S
C288 H269 0.946 . S
C288 C287 1.388 . S
C288 C289 1.384 . S
C289 C288 1.384 . S
C289 C290 1.377 . S
C290 H270 0.953 . S
C290 C289 1.377 . S
C290 C291 1.369 . S
C291 H271 0.945 . S
C291 C286 1.385 . S
C291 C290 1.369 . S
C292 C284 1.457 . S
C292 C293 1.372 1_545 S
C292 C297 1.364 . S
C293 H272 0.952 . S
C293 C292 1.372 1_565 S
C293 C294 1.389 . S
C294 H273 0.949 . S
C294 C293 1.389 . S
C294 C295 1.348 1_565 S
C295 C294 1.348 1_545 S
C295 C296 1.409 . S
C296 H274 0.950 . S
C296 C295 1.409 . S
C296 C297 1.379 . S
C297 H275 0.948 . S
C297 C292 1.364 . S
C297 C296 1.379 . S
C298 C267 1.383 . S
C298 C285 1.479 . S
C298 C299 1.398 . S
C299 C264 1.382 . S
C299 H276 0.951 . S
C299 C298 1.398 . S
C300 C301 1.384 . S
C300 H313 0.947 . S
C300 C335 1.382 . S
C301 C300 1.384 . S
C301 C302 1.378 . S
C302 C301 1.378 . S
C302 C303 1.378 . S
C302 H314 0.952 . S
C303 C302 1.378 . S
C303 H315 0.950 . S
C303 C334 1.383 . S
H304 C323 0.947 . S
H305 C324 0.946 . S
H306 C326 0.953 . S
H307 C327 0.945 . S
H308 C329 0.952 . S
H309 C330 0.949 . S
H310 C332 0.950 . S
H311 C333 0.948 . S
H312 C335 0.951 . S
H313 C300 0.947 . S
H314 C302 0.952 . S
H315 C303 0.950 . S
N316 C319 1.382 . S
N316 C321 1.363 . S
N317 C319 1.371 . S
N317 C320 1.372 . S
N318 C320 1.361 . S
N318 C321 1.377 . S
C319 N316 1.382 . S
C319 N317 1.371 . S
C319 C322 1.480 . S
C320 N317 1.372 . S
C320 N318 1.361 . S
C320 C328 1.457 . S
C321 N316 1.363 . S
C321 N318 1.377 . S
C321 C334 1.479 . S
C322 C319 1.480 . S
C322 C323 1.383 . S
C322 C327 1.385 . S
C323 H304 0.947 . S
C323 C322 1.383 . S
C323 C324 1.388 . S
C324 H305 0.946 . S
C324 C323 1.388 . S
C324 C325 1.384 . S
C325 C324 1.384 . S
C325 C326 1.377 . S
C326 H306 0.953 . S
C326 C325 1.377 . S
C326 C327 1.369 . S
C327 H307 0.945 . S
C327 C322 1.385 . S
C327 C326 1.369 . S
C328 C320 1.457 . S
C328 C329 1.372 . S
C328 C333 1.364 . S
C329 H308 0.952 . S
C329 C328 1.372 . S
C329 C330 1.389 . S
C330 H309 0.949 . S
C330 C329 1.389 . S
C330 C331 1.387 . S
C331 C330 1.387 . S
C331 C332 1.372 . S
C332 H310 0.950 . S
C332 C331 1.372 . S
C332 C333 1.379 . S
C333 H311 0.948 . S
C333 C328 1.364 . S
C333 C332 1.379 . S
C334 C303 1.383 . S
C334 C321 1.479 . S
C334 C335 1.398 . S
C335 C300 1.382 . S
C335 H312 0.951 . S
C335 C334 1.398 . S
H336 C344 0.929 . S
H337 C346 0.930 . S
H338 C348 0.930 . S
H339 C351 0.929 . S
H340 C354 0.930 . S
H341 C356 0.960 . S
H342 C356 0.960 . S
H343 C356 0.960 . S
C344 H336 0.929 . S
C344 C345 1.377 . S
C344 C346 1.384 . S
C345 C344 1.377 . S
C345 C351 1.390 . S
C346 H337 0.930 . S
C346 C344 1.384 . S
C346 C347 1.372 . S
C347 C346 1.372 . S
C347 C348 1.400 . S
C347 C352 1.490 . S
C348 H338 0.930 . S
C348 C347 1.400 . S
C348 C351 1.386 . S
H349 C365 0.930 . S
H350 C366 0.931 . S
C351 H339 0.929 . S
C351 C345 1.390 . S
C351 C348 1.386 . S
C352 C347 1.490 . S
C352 C354 1.395 . S
C352 C355 1.403 . S
H353 C359 0.930 . S
C354 H340 0.930 . S
C354 C352 1.395 . S
C354 C357 1.403 . S
C355 C352 1.403 . S
C355 C356 1.524 . S
C355 C359 1.400 . S
C356 H341 0.960 . S
C356 H342 0.960 . S
C356 H343 0.960 . S
C356 C355 1.524 . S
C357 C354 1.403 . S
C357 C358 1.392 . S
C357 C361 1.495 . S
C358 C357 1.392 . S
C358 C359 1.385 . S
C358 C360 1.478 . S
C359 H353 0.930 . S
C359 C355 1.400 . S
C359 C358 1.385 . S
C360 C358 1.478 . S
C360 C362 1.381 . S
C360 C366 1.383 . S
C361 C357 1.495 . S
C361 H367 0.959 . S
C361 H368 0.961 . S
C361 H369 0.960 . S
C362 C360 1.381 . S
C362 C363 1.394 . S
C362 H370 0.930 . S
C363 C362 1.394 . S
C363 C364 1.383 . S
C363 H371 0.929 . S
C364 C363 1.383 . S
C364 C365 1.377 . S
C365 H349 0.930 . S
C365 C364 1.377 . S
C365 C366 1.379 . S
C366 H350 0.931 . S
C366 C360 1.383 . S
C366 C365 1.379 . S
H367 C361 0.959 . S
H368 C361 0.961 . S
H369 C361 0.960 . S
H370 C362 0.930 . S
H371 C363 0.929 . S
H372 C380 0.929 . S
H373 C382 0.930 . S
H374 C384 0.930 . S
H375 C387 0.929 . S
H376 C390 0.930 . S
H377 C392 0.960 . S
H378 C392 0.960 . S
H379 C392 0.960 . S
C380 H372 0.929 . S
C380 C381 1.377 . S
C380 C382 1.384 . S
C381 C380 1.377 . S
C381 C387 1.390 . S
C382 H373 0.930 . S
C382 C380 1.384 . S
C382 C383 1.372 . S
C383 C382 1.372 . S
C383 C384 1.400 . S
C383 C388 1.490 . S
C384 H374 0.930 . S
C384 C383 1.400 . S
C384 C387 1.386 . S
H385 C401 0.930 . S
H386 C402 0.931 . S
C387 H375 0.929 . S
C387 C381 1.390 . S
C387 C384 1.386 . S
C388 C383 1.490 . S
C388 C390 1.395 . S
C388 C391 1.403 . S
H389 C395 0.930 . S
C390 H376 0.930 . S
C390 C388 1.395 . S
C390 C393 1.403 . S
C391 C388 1.403 . S
C391 C392 1.524 . S
C391 C395 1.400 . S
C392 H377 0.960 . S
C392 H378 0.960 . S
C392 H379 0.960 . S
C392 C391 1.524 . S
C393 C390 1.403 . S
C393 C394 1.392 . S
C393 C397 1.495 . S
C394 C393 1.392 . S
C394 C395 1.385 . S
C394 C396 1.478 . S
C395 H389 0.930 . S
C395 C391 1.400 . S
C395 C394 1.385 . S
C396 C394 1.478 . S
C396 C398 1.381 . S
C396 C402 1.383 . S
C397 C393 1.495 . S
C397 H403 0.959 . S
C397 H404 0.961 . S
C397 H405 0.960 . S
C398 C396 1.381 . S
C398 C399 1.394 . S
C398 H406 0.930 . S
C399 C398 1.394 . S
C399 C400 1.383 . S
C399 H407 0.929 . S
C400 C399 1.383 . S
C400 C401 1.377 . S
C401 H385 0.930 . S
C401 C400 1.377 . S
C401 C402 1.379 . S
C402 H386 0.931 . S
C402 C396 1.383 . S
C402 C401 1.379 . S
H403 C397 0.959 . S
H404 C397 0.961 . S
H405 C397 0.960 . S
H406 C398 0.930 . S
H407 C399 0.929 . S
H408 C416 0.929 . S
H409 C418 0.930 . S
H410 C420 0.930 . S
H411 C423 0.929 . S
H412 C426 0.930 . S
H413 C428 0.960 . S
H414 C428 0.960 . S
H415 C428 0.960 . S
C416 H408 0.929 . S
C416 C417 1.377 . S
C416 C418 1.384 . S
C417 C416 1.377 . S
C417 C423 1.390 . S
C418 H409 0.930 . S
C418 C416 1.384 . S
C418 C419 1.372 . S
C419 C418 1.372 . S
C419 C420 1.400 . S
C419 C424 1.490 . S
C420 H410 0.930 . S
C420 C419 1.400 . S
C420 C423 1.386 . S
H421 C437 0.930 . S
H422 C438 0.931 . S
C423 H411 0.929 . S
C423 C417 1.390 . S
C423 C420 1.386 . S
C424 C419 1.490 . S
C424 C426 1.395 . S
C424 C427 1.403 . S
H425 C431 0.930 . S
C426 H412 0.930 . S
C426 C424 1.395 . S
C426 C429 1.403 . S
C427 C424 1.403 . S
C427 C428 1.524 . S
C427 C431 1.400 . S
C428 H413 0.960 . S
C428 H414 0.960 . S
C428 H415 0.960 . S
C428 C427 1.524 . S
C429 C426 1.403 . S
C429 C430 1.392 . S
C429 C433 1.495 . S
C430 C429 1.392 . S
C430 C431 1.385 . S
C430 C432 1.478 . S
C431 H425 0.930 . S
C431 C427 1.400 . S
C431 C430 1.385 . S
C432 C430 1.478 . S
C432 C434 1.381 . S
C432 C438 1.383 . S
C433 C429 1.495 . S
C433 H439 0.959 . S
C433 H440 0.961 . S
C433 H441 0.960 . S
C434 C432 1.381 . S
C434 C435 1.394 . S
C434 H442 0.930 . S
C435 C434 1.394 . S
C435 C436 1.383 . S
C435 H443 0.929 . S
C436 C435 1.383 . S
C436 C437 1.377 . S
C437 H421 0.930 . S
C437 C436 1.377 . S
C437 C438 1.379 . S
C438 H422 0.931 . S
C438 C432 1.383 . S
C438 C437 1.379 . S
H439 C433 0.959 . S
H440 C433 0.961 . S
H441 C433 0.960 . S
H442 C434 0.930 . S
H443 C435 0.929 . S
H444 C452 0.929 . S
H445 C454 0.930 . S
H446 C456 0.930 . S
H447 C459 0.929 . S
H448 C462 0.930 . S
H449 C464 0.960 . S
H450 C464 0.960 . S
H451 C464 0.960 . S
C452 H444 0.929 . S
C452 C453 1.377 . S
C452 C454 1.384 . S
C453 C452 1.377 . S
C453 C459 1.390 . S
C454 H445 0.930 . S
C454 C452 1.384 . S
C454 C455 1.372 . S
C455 C454 1.372 . S
C455 C456 1.400 . S
C455 C460 1.490 . S
C456 H446 0.930 . S
C456 C455 1.400 . S
C456 C459 1.386 . S
H457 C473 0.930 . S
H458 C474 0.931 . S
C459 H447 0.929 . S
C459 C453 1.390 . S
C459 C456 1.386 . S
C460 C455 1.490 . S
C460 C462 1.395 . S
C460 C463 1.403 . S
H461 C467 0.930 . S
C462 H448 0.930 . S
C462 C460 1.395 . S
C462 C465 1.403 . S
C463 C460 1.403 . S
C463 C464 1.524 . S
C463 C467 1.400 . S
C464 H449 0.960 . S
C464 H450 0.960 . S
C464 H451 0.960 . S
C464 C463 1.524 . S
C465 C462 1.403 . S
C465 C466 1.392 . S
C465 C469 1.495 . S
C466 C465 1.392 . S
C466 C467 1.385 . S
C466 C468 1.478 . S
C467 H461 0.930 . S
C467 C463 1.400 . S
C467 C466 1.385 . S
C468 C466 1.478 . S
C468 C470 1.381 . S
C468 C474 1.383 . S
C469 C465 1.495 . S
C469 H475 0.959 . S
C469 H476 0.961 . S
C469 H477 0.960 . S
C470 C468 1.381 . S
C470 C471 1.394 . S
C470 H478 0.930 . S
C471 C470 1.394 . S
C471 C472 1.383 . S
C471 H479 0.929 . S
C472 C471 1.383 . S
C472 C473 1.377 . S
C473 H457 0.930 . S
C473 C472 1.377 . S
C473 C474 1.379 . S
C474 H458 0.931 . S
C474 C468 1.383 . S
C474 C473 1.379 . S
H475 C469 0.959 . S
H476 C469 0.961 . S
H477 C469 0.960 . S
H478 C470 0.930 . S
H479 C471 0.929 . S
H480 C488 0.929 . S
H481 C490 0.930 . S
H482 C492 0.930 . S
H483 C495 0.929 . S
H484 C498 0.930 . S
H485 C500 0.960 . S
H486 C500 0.960 . S
H487 C500 0.960 . S
C488 H480 0.929 . S
C488 C489 1.377 . S
C488 C490 1.384 . S
C489 C488 1.377 . S
C489 C495 1.390 . S
C490 H481 0.930 . S
C490 C488 1.384 . S
C490 C491 1.372 . S
C491 C490 1.372 . S
C491 C492 1.400 . S
C491 C496 1.490 . S
C492 H482 0.930 . S
C492 C491 1.400 . S
C492 C495 1.386 . S
H493 C509 0.930 . S
H494 C510 0.931 . S
C495 H483 0.929 . S
C495 C489 1.390 . S
C495 C492 1.386 . S
C496 C491 1.490 . S
C496 C498 1.395 . S
C496 C499 1.403 . S
H497 C503 0.930 . S
C498 H484 0.930 . S
C498 C496 1.395 . S
C498 C501 1.403 . S
C499 C496 1.403 . S
C499 C500 1.524 . S
C499 C503 1.400 . S
C500 H485 0.960 . S
C500 H486 0.960 . S
C500 H487 0.960 . S
C500 C499 1.524 . S
C501 C498 1.403 . S
C501 C502 1.392 . S
C501 C505 1.495 . S
C502 C501 1.392 . S
C502 C503 1.385 . S
C502 C504 1.478 . S
C503 H497 0.930 . S
C503 C499 1.400 . S
C503 C502 1.385 . S
C504 C502 1.478 . S
C504 C506 1.381 . S
C504 C510 1.383 . S
C505 C501 1.495 . S
C505 H511 0.959 . S
C505 H512 0.961 . S
C505 H513 0.960 . S
C506 C504 1.381 . S
C506 C507 1.394 . S
C506 H514 0.930 . S
C507 C506 1.394 . S
C507 C508 1.383 . S
C507 H515 0.929 . S
C508 C507 1.383 . S
C508 C509 1.377 . S
C509 H493 0.930 . S
C509 C508 1.377 . S
C509 C510 1.379 . S
C510 H494 0.931 . S
C510 C504 1.383 . S
C510 C509 1.379 . S
H511 C505 0.959 . S
H512 C505 0.961 . S
H513 C505 0.960 . S
H514 C506 0.930 . S
H515 C507 0.929 . S
H516 C524 0.929 . S
H517 C526 0.930 . S
H518 C528 0.930 . S
H519 C531 0.929 . S
H520 C534 0.930 . S
H521 C536 0.960 . S
H522 C536 0.960 . S
H523 C536 0.960 . S
C524 H516 0.929 . S
C524 C525 1.377 . S
C524 C526 1.384 . S
C525 C524 1.377 . S
C525 C531 1.390 . S
C526 H517 0.930 . S
C526 C524 1.384 . S
C526 C527 1.372 . S
C527 C526 1.372 . S
C527 C528 1.400 . S
C527 C532 1.490 . S
C528 H518 0.930 . S
C528 C527 1.400 . S
C528 C531 1.386 . S
H529 C545 0.930 . S
H530 C546 0.931 . S
C531 H519 0.929 . S
C531 C525 1.390 . S
C531 C528 1.386 . S
C532 C527 1.490 . S
C532 C534 1.395 . S
C532 C535 1.403 . S
H533 C539 0.930 . S
C534 H520 0.930 . S
C534 C532 1.395 . S
C534 C537 1.403 . S
C535 C532 1.403 . S
C535 C536 1.524 . S
C535 C539 1.400 . S
C536 H521 0.960 . S
C536 H522 0.960 . S
C536 H523 0.960 . S
C536 C535 1.524 . S
C537 C534 1.403 . S
C537 C538 1.392 . S
C537 C541 1.495 . S
C538 C537 1.392 . S
C538 C539 1.385 . S
C538 C540 1.478 . S
C539 H533 0.930 . S
C539 C535 1.400 . S
C539 C538 1.385 . S
C540 C538 1.478 . S
C540 C542 1.381 . S
C540 C546 1.383 . S
C541 C537 1.495 . S
C541 H547 0.959 . S
C541 H548 0.961 . S
C541 H549 0.960 . S
C542 C540 1.381 . S
C542 C543 1.394 . S
C542 H550 0.930 . S
C543 C542 1.394 . S
C543 C544 1.383 . S
C543 H551 0.929 . S
C544 C543 1.383 . S
C544 C545 1.377 . S
C545 H529 0.930 . S
C545 C544 1.377 . S
C545 C546 1.379 . S
C546 H530 0.931 . S
C546 C540 1.383 . S
C546 C545 1.379 . S
H547 C541 0.959 . S
H548 C541 0.961 . S
H549 C541 0.960 . S
H550 C542 0.930 . S
H551 C543 0.929 . S
H552 C560 0.929 . S
H553 C562 0.930 . S
H554 C564 0.930 . S
H555 C567 0.929 . S
H556 C570 0.930 . S
H557 C572 0.960 . S
H558 C572 0.960 . S
H559 C572 0.960 . S
C560 H552 0.929 . S
C560 C561 1.377 . S
C560 C562 1.384 . S
C561 C560 1.377 . S
C561 C567 1.390 . S
C562 H553 0.930 . S
C562 C560 1.384 . S
C562 C563 1.372 . S
C563 C562 1.372 . S
C563 C564 1.400 . S
C563 C568 1.490 . S
C564 H554 0.930 . S
C564 C563 1.400 . S
C564 C567 1.386 . S
H565 C581 0.930 . S
H566 C582 0.931 . S
C567 H555 0.929 . S
C567 C561 1.390 . S
C567 C564 1.386 . S
C568 C563 1.490 . S
C568 C570 1.395 . S
C568 C571 1.403 . S
H569 C575 0.930 . S
C570 H556 0.930 . S
C570 C568 1.395 . S
C570 C573 1.403 . S
C571 C568 1.403 . S
C571 C572 1.524 . S
C571 C575 1.400 . S
C572 H557 0.960 . S
C572 H558 0.960 . S
C572 H559 0.960 . S
C572 C571 1.524 . S
C573 C570 1.403 . S
C573 C574 1.392 . S
C573 C577 1.495 . S
C574 C573 1.392 . S
C574 C575 1.385 . S
C574 C576 1.478 . S
C575 H569 0.930 . S
C575 C571 1.400 . S
C575 C574 1.385 . S
C576 C574 1.478 . S
C576 C578 1.381 . S
C576 C582 1.383 . S
C577 C573 1.495 . S
C577 H583 0.959 . S
C577 H584 0.961 . S
C577 H585 0.960 . S
C578 C576 1.381 . S
C578 C579 1.394 . S
C578 H586 0.930 . S
C579 C578 1.394 . S
C579 C580 1.383 . S
C579 H587 0.929 . S
C580 C579 1.383 . S
C580 C581 1.377 . S
C581 H565 0.930 . S
C581 C580 1.377 . S
C581 C582 1.379 . S
C582 H566 0.931 . S
C582 C576 1.383 . S
C582 C581 1.379 . S
H583 C577 0.959 . S
H584 C577 0.961 . S
H585 C577 0.960 . S
H586 C578 0.930 . S
H587 C579 0.929 . S
H588 C596 0.929 . S
H589 C598 0.930 . S
H590 C600 0.930 . S
H591 C603 0.929 . S
H592 C606 0.930 . S
H593 C608 0.960 . S
H594 C608 0.960 . S
H595 C608 0.960 . S
C596 H588 0.929 . S
C596 C597 1.377 . S
C596 C598 1.384 . S
C597 C596 1.377 . S
C597 C603 1.390 . S
C598 H589 0.930 . S
C598 C596 1.384 . S
C598 C599 1.372 . S
C599 C598 1.372 . S
C599 C600 1.400 . S
C599 C604 1.490 . S
C600 H590 0.930 . S
C600 C599 1.400 . S
C600 C603 1.386 . S
H601 C617 0.930 . S
H602 C618 0.931 . S
C603 H591 0.929 . S
C603 C597 1.390 . S
C603 C600 1.386 . S
C604 C599 1.490 . S
C604 C606 1.395 . S
C604 C607 1.403 . S
H605 C611 0.930 . S
C606 H592 0.930 . S
C606 C604 1.395 . S
C606 C609 1.403 . S
C607 C604 1.403 . S
C607 C608 1.524 . S
C607 C611 1.400 . S
C608 H593 0.960 . S
C608 H594 0.960 . S
C608 H595 0.960 . S
C608 C607 1.524 . S
C609 C606 1.403 . S
C609 C610 1.392 . S
C609 C613 1.495 . S
C610 C609 1.392 . S
C610 C611 1.385 . S
C610 C612 1.478 . S
C611 H605 0.930 . S
C611 C607 1.400 . S
C611 C610 1.385 . S
C612 C610 1.478 . S
C612 C614 1.381 . S
C612 C618 1.383 . S
C613 C609 1.495 . S
C613 H619 0.959 . S
C613 H620 0.961 . S
C613 H621 0.960 . S
C614 C612 1.381 . S
C614 C615 1.394 . S
C614 H622 0.930 . S
C615 C614 1.394 . S
C615 C616 1.383 . S
C615 H623 0.929 . S
C616 C615 1.383 . S
C616 C617 1.377 . S
C617 H601 0.930 . S
C617 C616 1.377 . S
C617 C618 1.379 . S
C618 H602 0.931 . S
C618 C612 1.383 . S
C618 C617 1.379 . S
H619 C613 0.959 . S
H620 C613 0.961 . S
H621 C613 0.960 . S
H622 C614 0.930 . S
H623 C615 0.929 . S
H624 C632 0.929 . S
H625 C634 0.930 . S
H626 C636 0.930 . S
H627 C639 0.929 . S
H628 C642 0.930 . S
H629 C644 0.960 . S
H630 C644 0.960 . S
H631 C644 0.960 . S
C632 H624 0.929 . S
C632 C633 1.377 . S
C632 C634 1.384 . S
C633 C632 1.377 . S
C633 C639 1.390 . S
C634 H625 0.930 . S
C634 C632 1.384 . S
C634 C635 1.372 . S
C635 C634 1.372 . S
C635 C636 1.400 . S
C635 C640 1.490 . S
C636 H626 0.930 . S
C636 C635 1.400 . S
C636 C639 1.386 . S
H637 C653 0.930 . S
H638 C654 0.931 . S
C639 H627 0.929 . S
C639 C633 1.390 . S
C639 C636 1.386 . S
C640 C635 1.490 . S
C640 C642 1.395 . S
C640 C643 1.403 . S
H641 C647 0.930 . S
C642 H628 0.930 . S
C642 C640 1.395 . S
C642 C645 1.403 . S
C643 C640 1.403 . S
C643 C644 1.524 . S
C643 C647 1.400 . S
C644 H629 0.960 . S
C644 H630 0.960 . S
C644 H631 0.960 . S
C644 C643 1.524 . S
C645 C642 1.403 . S
C645 C646 1.392 . S
C645 C649 1.495 . S
C646 C645 1.392 . S
C646 C647 1.385 . S
C646 C648 1.478 . S
C647 H641 0.930 . S
C647 C643 1.400 . S
C647 C646 1.385 . S
C648 C646 1.478 . S
C648 C650 1.381 . S
C648 C654 1.383 . S
C649 C645 1.495 . S
C649 H655 0.959 . S
C649 H656 0.961 . S
C649 H657 0.960 . S
C650 C648 1.381 . S
C650 C651 1.394 . S
C650 H658 0.930 . S
C651 C650 1.394 . S
C651 C652 1.383 . S
C651 H659 0.929 . S
C652 C651 1.383 . S
C652 C653 1.377 . S
C653 H637 0.930 . S
C653 C652 1.377 . S
C653 C654 1.379 . S
C654 H638 0.931 . S
C654 C648 1.383 . S
C654 C653 1.379 . S
H655 C649 0.959 . S
H656 C649 0.961 . S
H657 C649 0.960 . S
H658 C650 0.930 . S
H659 C651 0.929 . S
H660 C668 0.929 . S
H661 C670 0.930 . S
H662 C672 0.930 . S
H663 C675 0.929 . S
H664 C678 0.930 . S
H665 C680 0.960 . S
H666 C680 0.960 . S
H667 C680 0.960 . S
C668 H660 0.929 . S
C668 C669 1.377 . S
C668 C670 1.384 . S
C669 C668 1.377 . S
C669 C675 1.390 . S
C670 H661 0.930 . S
C670 C668 1.384 . S
C670 C671 1.372 . S
C671 C670 1.372 . S
C671 C672 1.400 . S
C671 C676 1.490 . S
C672 H662 0.930 . S
C672 C671 1.400 . S
C672 C675 1.386 . S
H673 C689 0.930 . S
H674 C690 0.931 . S
C675 H663 0.929 . S
C675 C669 1.390 . S
C675 C672 1.386 . S
C676 C671 1.490 . S
C676 C678 1.395 . S
C676 C679 1.403 . S
H677 C683 0.930 . S
C678 H664 0.930 . S
C678 C676 1.395 . S
C678 C681 1.403 . S
C679 C676 1.403 . S
C679 C680 1.524 . S
C679 C683 1.400 . S
C680 H665 0.960 . S
C680 H666 0.960 . S
C680 H667 0.960 . S
C680 C679 1.524 . S
C681 C678 1.403 . S
C681 C682 1.392 . S
C681 C685 1.495 . S
C682 C681 1.392 . S
C682 C683 1.385 . S
C682 C684 1.478 . S
C683 H677 0.930 . S
C683 C679 1.400 . S
C683 C682 1.385 . S
C684 C682 1.478 . S
C684 C686 1.381 . S
C684 C690 1.383 . S
C685 C681 1.495 . S
C685 H691 0.959 . S
C685 H692 0.961 . S
C685 H693 0.960 . S
C686 C684 1.381 . S
C686 C687 1.394 . S
C686 H694 0.930 . S
C687 C686 1.394 . S
C687 C688 1.383 . S
C687 H695 0.929 . S
C688 C687 1.383 . S
C688 C689 1.377 . S
C689 H673 0.930 . S
C689 C688 1.377 . S
C689 C690 1.379 . S
C690 H674 0.931 . S
C690 C684 1.383 . S
C690 C689 1.379 . S
H691 C685 0.959 . S
H692 C685 0.961 . S
H693 C685 0.960 . S
H694 C686 0.930 . S
H695 C687 0.929 . S
H696 C704 0.929 . S
H697 C706 0.930 . S
H698 C708 0.930 . S
H699 C711 0.929 . S
H700 C714 0.930 . S
H701 C716 0.960 . S
H702 C716 0.960 . S
H703 C716 0.960 . S
C704 H696 0.929 . S
C704 C705 1.377 . S
C704 C706 1.384 . S
C705 C704 1.377 . S
C705 C711 1.390 . S
C706 H697 0.930 . S
C706 C704 1.384 . S
C706 C707 1.372 . S
C707 C706 1.372 . S
C707 C708 1.400 . S
C707 C712 1.490 . S
C708 H698 0.930 . S
C708 C707 1.400 . S
C708 C711 1.386 . S
H709 C725 0.930 . S
H710 C726 0.931 . S
C711 H699 0.929 . S
C711 C705 1.390 . S
C711 C708 1.386 . S
C712 C707 1.490 . S
C712 C714 1.395 . S
C712 C715 1.403 . S
H713 C719 0.930 . S
C714 H700 0.930 . S
C714 C712 1.395 . S
C714 C717 1.403 . S
C715 C712 1.403 . S
C715 C716 1.524 . S
C715 C719 1.400 . S
C716 H701 0.960 . S
C716 H702 0.960 . S
C716 H703 0.960 . S
C716 C715 1.524 . S
C717 C714 1.403 . S
C717 C718 1.392 . S
C717 C721 1.495 . S
C718 C717 1.392 . S
C718 C719 1.385 . S
C718 C720 1.478 . S
C719 H713 0.930 . S
C719 C715 1.400 . S
C719 C718 1.385 . S
C720 C718 1.478 . S
C720 C722 1.381 . S
C720 C726 1.383 . S
C721 C717 1.495 . S
C721 H727 0.959 . S
C721 H728 0.961 . S
C721 H729 0.960 . S
C722 C720 1.381 . S
C722 C723 1.394 . S
C722 H730 0.930 . S
C723 C722 1.394 . S
C723 C724 1.383 . S
C723 H731 0.929 . S
C724 C723 1.383 . S
C724 C725 1.377 . S
C725 H709 0.930 . S
C725 C724 1.377 . S
C725 C726 1.379 . S
C726 H710 0.931 . S
C726 C720 1.383 . S
C726 C725 1.379 . S
H727 C721 0.959 . S
H728 C721 0.961 . S
H729 C721 0.960 . S
H730 C722 0.930 . S
H731 C723 0.929 . S
H732 C740 0.929 . S
H733 C742 0.930 . S
H734 C744 0.930 . S
H735 C747 0.929 . S
H736 C750 0.930 . S
H737 C752 0.960 . S
H738 C752 0.960 . S
H739 C752 0.960 . S
C740 H732 0.929 . S
C740 C741 1.377 . S
C740 C742 1.384 . S
C741 C740 1.377 . S
C741 C747 1.390 . S
C742 H733 0.930 . S
C742 C740 1.384 . S
C742 C743 1.372 . S
C743 C742 1.372 . S
C743 C744 1.400 . S
C743 C748 1.490 . S
C744 H734 0.930 . S
C744 C743 1.400 . S
C744 C747 1.386 . S
H745 C761 0.930 . S
H746 C762 0.931 . S
C747 H735 0.929 . S
C747 C741 1.390 . S
C747 C744 1.386 . S
C748 C743 1.490 . S
C748 C750 1.395 . S
C748 C751 1.403 . S
H749 C755 0.930 . S
C750 H736 0.930 . S
C750 C748 1.395 . S
C750 C753 1.403 . S
C751 C748 1.403 . S
C751 C752 1.524 . S
C751 C755 1.400 . S
C752 H737 0.960 . S
C752 H738 0.960 . S
C752 H739 0.960 . S
C752 C751 1.524 . S
C753 C750 1.403 . S
C753 C754 1.392 . S
C753 C757 1.495 . S
C754 C753 1.392 . S
C754 C755 1.385 . S
C754 C756 1.478 . S
C755 H749 0.930 . S
C755 C751 1.400 . S
C755 C754 1.385 . S
C756 C754 1.478 . S
C756 C758 1.381 . S
C756 C762 1.383 . S
C757 C753 1.495 . S
C757 H763 0.959 . S
C757 H764 0.961 . S
C757 H765 0.960 . S
C758 C756 1.381 . S
C758 C759 1.394 . S
C758 H766 0.930 . S
C759 C758 1.394 . S
C759 C760 1.383 . S
C759 H767 0.929 . S
C760 C759 1.383 . S
C760 C761 1.377 . S
C761 H745 0.930 . S
C761 C760 1.377 . S
C761 C762 1.379 . S
C762 H746 0.931 . S
C762 C756 1.383 . S
C762 C761 1.379 . S
H763 C757 0.959 . S
H764 C757 0.961 . S
H765 C757 0.960 . S
H766 C758 0.930 . S
H767 C759 0.929 . S
H768 C776 0.929 . S
H769 C778 0.930 . S
H770 C780 0.930 . S
H771 C783 0.929 . S
H772 C786 0.930 . S
H773 C788 0.960 . S
H774 C788 0.960 . S
H775 C788 0.960 . S
C776 H768 0.929 . S
C776 C777 1.377 1_655 S
C776 C778 1.384 . S
C777 C776 1.377 1_455 S
C777 C783 1.390 . S
C778 H769 0.930 . S
C778 C776 1.384 . S
C778 C779 1.372 1_655 S
C779 C778 1.372 1_455 S
C779 C780 1.400 . S
C779 C784 1.490 . S
C780 H770 0.930 . S
C780 C779 1.400 . S
C780 C783 1.386 . S
H781 C797 0.930 . S
H782 C798 0.931 . S
C783 H771 0.929 . S
C783 C777 1.390 . S
C783 C780 1.386 . S
C784 C779 1.490 . S
C784 C786 1.395 . S
C784 C787 1.403 . S
H785 C791 0.930 . S
C786 H772 0.930 . S
C786 C784 1.395 . S
C786 C789 1.403 . S
C787 C784 1.403 . S
C787 C788 1.524 . S
C787 C791 1.400 . S
C788 H773 0.960 . S
C788 H774 0.960 . S
C788 H775 0.960 . S
C788 C787 1.524 . S
C789 C786 1.403 . S
C789 C790 1.392 . S
C789 C793 1.495 . S
C790 C789 1.392 . S
C790 C791 1.385 . S
C790 C792 1.478 . S
C791 H785 0.930 . S
C791 C787 1.400 . S
C791 C790 1.385 . S
C792 C790 1.478 . S
C792 C794 1.381 . S
C792 C798 1.383 . S
C793 C789 1.495 . S
C793 H799 0.959 . S
C793 H800 0.961 . S
C793 H801 0.960 . S
C794 C792 1.381 . S
C794 C795 1.394 1_554 S
C794 H802 0.930 1_455 S
C795 C794 1.394 1_556 S
C795 C796 1.383 . S
C795 H803 0.929 1_455 S
C796 C795 1.383 . S
C796 C797 1.377 . S
C797 H781 0.930 . S
C797 C796 1.377 . S
C797 C798 1.379 1_556 S
C798 H782 0.931 . S
C798 C792 1.383 . S
C798 C797 1.379 1_554 S
H799 C793 0.959 . S
H800 C793 0.961 . S
H801 C793 0.960 . S
H802 C794 0.930 1_655 S
H803 C795 0.929 1_655 S
H804 C812 0.929 . S
H805 C814 0.930 . S
H806 C816 0.930 . S
H807 C819 0.929 . S
H808 C822 0.930 . S
H809 C824 0.960 . S
H810 C824 0.960 . S
H811 C824 0.960 . S
C812 H804 0.929 . S
C812 C813 1.377 1_565 S
C812 C814 1.384 . S
C813 C812 1.377 1_545 S
C813 C819 1.390 . S
C814 H805 0.930 . S
C814 C812 1.384 . S
C814 C815 1.372 1_565 S
C815 C814 1.372 1_545 S
C815 C816 1.400 . S
C815 C820 1.490 . S
C816 H806 0.930 . S
C816 C815 1.400 . S
C816 C819 1.386 . S
H817 C833 0.930 . S
H818 C834 0.931 . S
C819 H807 0.929 . S
C819 C813 1.390 . S
C819 C816 1.386 . S
C820 C815 1.490 . S
C820 C822 1.395 1_545 S
C820 C823 1.403 . S
H821 C827 0.930 . S
C822 H808 0.930 . S
C822 C820 1.395 1_565 S
C822 C825 1.403 . S
C823 C820 1.403 . S
C823 C824 1.524 . S
C823 C827 1.400 . S
C824 H809 0.960 . S
C824 H810 0.960 . S
C824 H811 0.960 . S
C824 C823 1.524 . S
C825 C822 1.403 . S
C825 C826 1.392 1_565 S
C825 C829 1.495 . S
C826 C825 1.392 1_545 S
C826 C827 1.385 . S
C826 C828 1.478 . S
C827 H821 0.930 . S
C827 C823 1.400 . S
C827 C826 1.385 . S
C828 C826 1.478 . S
C828 C830 1.381 1_545 S
C828 C834 1.383 . S
C829 C825 1.495 . S
C829 H835 0.959 . S
C829 H836 0.961 . S
C829 H837 0.960 . S
C830 C828 1.381 1_565 S
C830 C831 1.394 . S
C830 H838 0.930 . S
C831 C830 1.394 . S
C831 C832 1.383 1_565 S
C831 H839 0.929 . S
C832 C831 1.383 1_545 S
C832 C833 1.377 . S
C833 H817 0.930 . S
C833 C832 1.377 . S
C833 C834 1.379 . S
C834 H818 0.931 . S
C834 C828 1.383 . S
C834 C833 1.379 . S
H835 C829 0.959 . S
H836 C829 0.961 . S
H837 C829 0.960 . S
H838 C830 0.930 . S
H839 C831 0.929 . S
H840 C848 0.929 . S
H841 C850 0.930 . S
H842 C852 0.930 . S
H843 C855 0.929 . S
H844 C858 0.930 . S
H845 C860 0.960 . S
H846 C860 0.960 . S
H847 C860 0.960 . S
C848 H840 0.929 . S
C848 C849 1.377 . S
C848 C850 1.384 . S
C849 C848 1.377 . S
C849 C855 1.390 . S
C850 H841 0.930 . S
C850 C848 1.384 . S
C850 C851 1.372 . S
C851 C850 1.372 . S
C851 C852 1.400 . S
C851 C856 1.490 . S
C852 H842 0.930 . S
C852 C851 1.400 . S
C852 C855 1.386 . S
H853 C869 0.930 . S
H854 C870 0.931 . S
C855 H843 0.929 . S
C855 C849 1.390 . S
C855 C852 1.386 . S
C856 C851 1.490 . S
C856 C858 1.395 . S
C856 C859 1.403 . S
H857 C863 0.930 . S
C858 H844 0.930 . S
C858 C856 1.395 . S
C858 C861 1.403 . S
C859 C856 1.403 . S
C859 C860 1.524 . S
C859 C863 1.400 . S
C860 H845 0.960 . S
C860 H846 0.960 . S
C860 H847 0.960 . S
C860 C859 1.524 . S
C861 C858 1.403 . S
C861 C862 1.392 . S
C861 C865 1.495 . S
C862 C861 1.392 . S
C862 C863 1.385 . S
C862 C864 1.478 . S
C863 H857 0.930 . S
C863 C859 1.400 . S
C863 C862 1.385 . S
C864 C862 1.478 . S
C864 C866 1.381 . S
C864 C870 1.383 . S
C865 C861 1.495 . S
C865 H871 0.959 . S
C865 H872 0.961 . S
C865 H873 0.960 . S
C866 C864 1.381 . S
C866 C867 1.394 . S
C866 H874 0.930 . S
C867 C866 1.394 . S
C867 C868 1.383 . S
C867 H875 0.929 . S
C868 C867 1.383 . S
C868 C869 1.377 . S
C869 H853 0.930 . S
C869 C868 1.377 . S
C869 C870 1.379 . S
C870 H854 0.931 . S
C870 C864 1.383 . S
C870 C869 1.379 . S
H871 C865 0.959 . S
H872 C865 0.961 . S
H873 C865 0.960 . S
H874 C866 0.930 . S
H875 C867 0.929 . S
H876 C884 0.929 . S
H877 C886 0.951 1_565 S
H878 C888 0.930 . S
H879 C891 0.929 . S
H880 C894 0.930 . S
H881 C896 0.960 . S
H882 C896 0.960 . S
H883 C896 0.960 . S
C884 H876 0.929 . S
C884 C885 1.377 . S
C884 C886 1.384 . S
C885 C884 1.377 . S
C885 C891 1.390 . S
C886 H877 0.951 1_545 S
C886 C884 1.384 . S
C886 C887 1.372 . S
C887 C886 1.372 . S
C887 C888 1.400 . S
C887 C892 1.490 . S
C888 H878 0.930 . S
C888 C887 1.400 . S
C888 C891 1.386 . S
H889 C905 0.930 . S
H890 C906 0.931 . S
C891 H879 0.929 . S
C891 C885 1.390 . S
C891 C888 1.386 . S
C892 C887 1.490 . S
C892 C894 1.395 1_545 S
C892 C895 1.403 . S
H893 C899 0.930 . S
C894 H880 0.930 . S
C894 C892 1.395 1_565 S
C894 C897 1.403 . S
C895 C892 1.403 . S
C895 C896 1.524 . S
C895 C899 1.400 . S
C896 H881 0.960 . S
C896 H882 0.960 . S
C896 H883 0.960 . S
C896 C895 1.524 . S
C897 C894 1.403 . S
C897 C898 1.392 . S
C897 C901 1.495 . S
C898 C897 1.392 . S
C898 C899 1.385 1_565 S
C898 C900 1.478 . S
C899 H893 0.930 . S
C899 C895 1.400 . S
C899 C898 1.385 1_545 S
C900 C898 1.478 . S
C900 C902 1.381 . S
C900 C906 1.383 . S
C901 C897 1.495 . S
C901 H907 0.959 . S
C901 H908 0.961 . S
C901 H909 0.960 . S
C902 C900 1.381 . S
C902 C903 1.394 . S
C902 H910 0.930 . S
C903 C902 1.394 . S
C903 C904 1.383 . S
C903 H911 0.929 . S
C904 C903 1.383 . S
C904 C905 1.377 . S
C905 H889 0.930 . S
C905 C904 1.377 . S
C905 C906 1.379 . S
C906 H890 0.931 . S
C906 C900 1.383 . S
C906 C905 1.379 . S
H907 C901 0.959 . S
H908 C901 0.961 . S
H909 C901 0.960 . S
H910 C902 0.930 . S
H911 C903 0.929 . S
H912 C920 0.929 . S
H913 C922 0.930 . S
H914 C924 0.930 . S
H915 C927 0.929 . S
H916 C930 0.930 . S
H917 C932 0.960 . S
H918 C932 0.960 . S
H919 C932 0.960 . S
C920 H912 0.929 . S
C920 C921 1.377 . S
C920 C922 1.384 . S
C921 C920 1.377 . S
C921 C927 1.390 . S
C922 H913 0.930 . S
C922 C920 1.384 . S
C922 C923 1.372 . S
C923 C922 1.372 . S
C923 C924 1.400 . S
C923 C928 1.490 . S
C924 H914 0.930 . S
C924 C923 1.400 . S
C924 C927 1.386 . S
H925 C941 0.930 . S
H926 C942 0.931 . S
C927 H915 0.929 . S
C927 C921 1.390 . S
C927 C924 1.386 . S
C928 C923 1.490 . S
C928 C930 1.395 . S
C928 C931 1.403 . S
H929 C935 0.930 . S
C930 H916 0.930 . S
C930 C928 1.395 . S
C930 C933 1.403 . S
C931 C928 1.403 . S
C931 C932 1.524 . S
C931 C935 1.400 . S
C932 H917 0.960 . S
C932 H918 0.960 . S
C932 H919 0.960 . S
C932 C931 1.524 . S
C933 C930 1.403 . S
C933 C934 1.392 . S
C933 C937 1.495 . S
C934 C933 1.392 . S
C934 C935 1.385 . S
C934 C936 1.478 . S
C935 H929 0.930 . S
C935 C931 1.400 . S
C935 C934 1.385 . S
C936 C934 1.478 . S
C936 C938 1.381 . S
C936 C942 1.383 . S
C937 C933 1.495 . S
C937 H943 0.959 . S
C937 H944 0.961 . S
C937 H945 0.960 . S
C938 C936 1.381 . S
C938 C939 1.394 1_556 S
C938 H946 0.930 . S
C939 C938 1.394 1_554 S
C939 C940 1.383 . S
C939 H947 0.929 . S
C940 C939 1.383 . S
C940 C941 1.377 . S
C941 H925 0.930 . S
C941 C940 1.377 . S
C941 C942 1.379 1_554 S
C942 H926 0.931 . S
C942 C936 1.383 . S
C942 C941 1.379 1_556 S
H943 C937 0.959 . S
H944 C937 0.961 . S
H945 C937 0.960 . S
H946 C938 0.930 . S
H947 C939 0.929 . S
H948 C956 0.929 . S
H949 C958 0.930 . S
H950 C960 0.930 . S
H951 C963 0.929 . S
H952 C966 0.930 . S
H953 C968 0.960 . S
H954 C968 0.960 . S
H955 C968 0.960 . S
C956 H948 0.929 . S
C956 C957 1.377 . S
C956 C958 1.384 . S
C957 C956 1.377 . S
C957 C963 1.390 1_455 S
C958 H949 0.930 . S
C958 C956 1.384 . S
C958 C959 1.372 . S
C959 C958 1.372 . S
C959 C960 1.400 1_455 S
C959 C964 1.490 . S
C960 H950 0.930 . S
C960 C959 1.400 1_655 S
C960 C963 1.386 . S
H961 C977 0.930 . S
H962 C978 0.931 . S
C963 H951 0.929 . S
C963 C957 1.390 1_655 S
C963 C960 1.386 . S
C964 C959 1.490 . S
C964 C966 1.395 . S
C964 C967 1.403 1_455 S
H965 C971 0.930 . S
C966 H952 0.930 . S
C966 C964 1.395 . S
C966 C969 1.403 . S
C967 C964 1.403 1_655 S
C967 C968 1.524 . S
C967 C971 1.400 . S
C968 H953 0.960 . S
C968 H954 0.960 . S
C968 H955 0.960 . S
C968 C967 1.524 . S
C969 C966 1.403 . S
C969 C970 1.392 . S
C969 C973 1.495 . S
C970 C969 1.392 . S
C970 C971 1.385 1_455 S
C970 C972 1.478 . S
C971 H965 0.930 . S
C971 C967 1.400 . S
C971 C970 1.385 1_655 S
C972 C970 1.478 . S
C972 C974 1.381 . S
C972 C978 1.383 1_455 S
C973 C969 1.495 . S
C973 H979 0.959 . S
C973 H980 0.961 . S
C973 H981 0.960 . S
C974 C972 1.381 . S
C974 C975 1.394 . S
C974 H982 0.930 . S
C975 C974 1.394 . S
C975 C976 1.383 . S
C975 H983 0.929 . S
C976 C975 1.383 . S
C976 C977 1.377 1_455 S
C977 H961 0.930 . S
C977 C976 1.377 1_655 S
C977 C978 1.379 . S
C978 H962 0.931 . S
C978 C972 1.383 1_655 S
C978 C977 1.379 . S
H979 C973 0.959 . S
H980 C973 0.961 . S
H981 C973 0.960 . S
H982 C974 0.930 . S
H983 C975 0.929 . S
C345 C6 0.436 . S
C364 C325 0.372 . S
C381 C59 1.860 . S
C400 C253 1.823 . S
C417 C86 1.154 . S
C436 C289 1.124 . S
C453 C15 0.318 . S
C472 C301 0.228 . S
C508 C229 1.948 . S
C489 C50 1.954 . S
C544 C265 1.244 . S
C525 C95 1.257 . S
C561 C46 1.154 . S
C580 C181 1.165 . S
C597 C99 3.048 . S
C616 C193 3.001 . S
C633 C10 1.978 . S
C652 C121 1.965 . S
C688 C157 1.231 . S
C669 C55 1.234 . S
C724 C217 2.877 . S
C705 C90 2.924 . S
C741 C19 1.850 . S
C760 C145 1.783 . S
C796 C223 1.755 . S
C777 C18 1.694 . S
C813 C49 1.330 . S
C832 C151 1.374 . S
C849 C98 1.449 . S
C868 C187 1.509 . S
C904 C295 1.489 1_565 S
C885 C58 1.438 . S
C940 C331 1.113 . S
C921 C89 1.097 . S
C957 C9 1.326 . S
C976 C259 1.363 . S
