# Generated by pormake.
# Topology pyr, (3,6)-cn, num edge types: 1
# Building blocks:
#     Node 0, Type 0, BuildingBlock: KAKCAD_clean_linker_0, # of connection points: 3
#     Node 1, Type 0, BuildingBlock: KAKCAD_clean_linker_0, # of connection points: 3
#     Node 2, Type 0, BuildingBlock: KAKCAD_clean_linker_0, # of connection points: 3
#     Node 3, Type 0, BuildingBlock: KAKCAD_clean_linker_0, # of connection points: 3
#     Node 4, Type 0, BuildingBlock: KAKCAD_clean_linker_0, # of connection points: 3
#     Node 5, Type 0, BuildingBlock: KAKCAD_clean_linker_0, # of connection points: 3
#     Node 6, Type 0, BuildingBlock: KAKCAD_clean_linker_0, # of connection points: 3
#     Node 7, Type 0, BuildingBlock: KAKCAD_clean_linker_0, # of connection points: 3
#     Node 8, Type 1, BuildingBlock: BETDAH_clean_sbu_0, # of connection points: 6
#     Node 9, Type 1, BuildingBlock: BETDAH_clean_sbu_0, # of connection points: 6
#     Node 10, Type 1, BuildingBlock: BETDAH_clean_sbu_0, # of connection points: 6
#     Node 11, Type 1, BuildingBlock: BETDAH_clean_sbu_0, # of connection points: 6
#     Edge 12, Type (0, 1), BuildingBlock: EZIPEK_clean_linker_0, # of connection points: 2
#     Edge 13, Type (0, 1), BuildingBlock: EZIPEK_clean_linker_0, # of connection points: 2
#     Edge 14, Type (0, 1), BuildingBlock: EZIPEK_clean_linker_0, # of connection points: 2
#     Edge 15, Type (0, 1), BuildingBlock: EZIPEK_clean_linker_0, # of connection points: 2
#     Edge 16, Type (0, 1), BuildingBlock: EZIPEK_clean_linker_0, # of connection points: 2
#     Edge 17, Type (0, 1), BuildingBlock: EZIPEK_clean_linker_0, # of connection points: 2
#     Edge 18, Type (0, 1), BuildingBlock: EZIPEK_clean_linker_0, # of connection points: 2
#     Edge 19, Type (0, 1), BuildingBlock: EZIPEK_clean_linker_0, # of connection points: 2
#     Edge 20, Type (0, 1), BuildingBlock: EZIPEK_clean_linker_0, # of connection points: 2
#     Edge 21, Type (0, 1), BuildingBlock: EZIPEK_clean_linker_0, # of connection points: 2
#     Edge 22, Type (0, 1), BuildingBlock: EZIPEK_clean_linker_0, # of connection points: 2
#     Edge 23, Type (0, 1), BuildingBlock: EZIPEK_clean_linker_0, # of connection points: 2
#     Edge 24, Type (0, 1), BuildingBlock: EZIPEK_clean_linker_0, # of connection points: 2
#     Edge 25, Type (0, 1), BuildingBlock: EZIPEK_clean_linker_0, # of connection points: 2
#     Edge 26, Type (0, 1), BuildingBlock: EZIPEK_clean_linker_0, # of connection points: 2
#     Edge 27, Type (0, 1), BuildingBlock: EZIPEK_clean_linker_0, # of connection points: 2
#     Edge 28, Type (0, 1), BuildingBlock: EZIPEK_clean_linker_0, # of connection points: 2
#     Edge 29, Type (0, 1), BuildingBlock: EZIPEK_clean_linker_0, # of connection points: 2
#     Edge 30, Type (0, 1), BuildingBlock: EZIPEK_clean_linker_0, # of connection points: 2
#     Edge 31, Type (0, 1), BuildingBlock: EZIPEK_clean_linker_0, # of connection points: 2
#     Edge 32, Type (0, 1), BuildingBlock: EZIPEK_clean_linker_0, # of connection points: 2
#     Edge 33, Type (0, 1), BuildingBlock: EZIPEK_clean_linker_0, # of connection points: 2
#     Edge 34, Type (0, 1), BuildingBlock: EZIPEK_clean_linker_0, # of connection points: 2
#     Edge 35, Type (0, 1), BuildingBlock: EZIPEK_clean_linker_0, # of connection points: 2
# Relax obj value: 0.131
# Max RMSD: 0.133
# Mean RMSD: 0.064
data_MOF--net-pyr--node1-BETDAH_clean_sbu_0--node2-KAKCAD_clean_linker_0--edge1-EZIPEK_clean_linker_0
_symmetry_space_group_name_H-M    P1
_symmetry_Int_Tables_number       1
_symmetry_cell_setting            triclinic
loop_
_symmetry_equiv_pos_as_xyz
'x, y, z'
_cell_length_a     36.307678
_cell_length_b     39.136665
_cell_length_c     35.92025
_cell_angle_alpha  91.675895
_cell_angle_beta   88.870603
_cell_angle_gamma 100.74863
loop_
_atom_site_label
_atom_site_type_symbol
_atom_site_fract_x
_atom_site_fract_y
_atom_site_fract_z
_atom_type_partial_charge
C0 C 0.29086 0.21628 0.34324 0.0
C1 C 0.2736 0.23925 0.36492 0.0
C2 C 0.31732 0.22896 0.31608 0.0
C3 C 0.32669 0.2649 0.30994 0.0
C4 C 0.31246 0.28806 0.33458 0.0
C5 C 0.2862 0.27526 0.36224 0.0
C6 C 0.34397 0.2766 0.27363 0.0
C7 C 0.32575 0.2969 0.25135 0.0
C8 C 0.33336 0.29923 0.21296 0.0
C9 C 0.36042 0.28164 0.19689 0.0
C10 C 0.37926 0.26134 0.21903 0.0
C11 C 0.37209 0.26057 0.25765 0.0
C12 C 0.40098 0.23616 0.2016 0.0
C13 C 0.4242 0.24464 0.17011 0.0
C14 C 0.39629 0.20213 0.21514 0.0
C15 C 0.4136 0.17712 0.19734 0.0
C16 C 0.43567 0.18536 0.16537 0.0
C17 C 0.30849 0.31539 0.18949 0.0
C18 C 0.26941 0.30507 0.19331 0.0
C19 C 0.32299 0.34187 0.1647 0.0
C20 C 0.29864 0.35873 0.14529 0.0
C21 C 0.25963 0.34886 0.15013 0.0
C22 C 0.24525 0.32161 0.17379 0.0
C23 C 0.4414 0.21937 0.15208 0.0
H24 H 0.28151 0.18841 0.34517 0.0
H25 H 0.32743 0.21034 0.29749 0.0
H26 H 0.31943 0.31586 0.33062 0.0
H27 H 0.27314 0.29327 0.379 0.0
H28 H 0.30315 0.30853 0.26322 0.0
H29 H 0.38612 0.24489 0.27497 0.0
H30 H 0.3643 0.28137 0.1669 0.0
H31 H 0.42847 0.27055 0.15903 0.0
H32 H 0.37782 0.19418 0.23861 0.0
H33 H 0.40844 0.15084 0.20755 0.0
H34 H 0.2575 0.28441 0.21185 0.0
H35 H 0.353 0.35022 0.16133 0.0
H36 H 0.45816 0.22598 0.12714 0.0
H37 H 0.21524 0.31365 0.17777 0.0
H38 H 0.31012 0.37979 0.1271 0.0
C39 C 0.29742 0.85905 0.7438 0.0
C40 C 0.33661 0.86692 0.74533 0.0
C41 C 0.27995 0.848 0.71025 0.0
C42 C 0.30153 0.84459 0.67795 0.0
C43 C 0.34073 0.8494 0.68036 0.0
C44 C 0.35825 0.86068 0.71397 0.0
C45 C 0.28368 0.84227 0.64123 0.0
C46 C 0.26303 0.8675 0.63224 0.0
C47 C 0.24713 0.86791 0.59689 0.0
C48 C 0.2537 0.84279 0.56981 0.0
C49 C 0.27583 0.81821 0.57813 0.0
C50 C 0.29025 0.81785 0.61415 0.0
C51 C 0.28954 0.79641 0.54868 0.0
C52 C 0.2922 0.76208 0.55662 0.0
C53 C 0.30975 0.81249 0.51807 0.0
C54 C 0.33727 0.7969 0.50026 0.0
C55 C 0.34488 0.7657 0.51374 0.0
C56 C 0.22549 0.89567 0.58863 0.0
C57 C 0.20807 0.9118 0.61791 0.0
C58 C 0.22293 0.90733 0.55213 0.0
C59 C 0.20302 0.93381 0.54529 0.0
C60 C 0.18686 0.95022 0.57496 0.0
C61 C 0.19049 0.93957 0.61135 0.0
C62 C 0.32003 0.74689 0.53941 0.0
H63 H 0.28047 0.86386 0.76787 0.0
H64 H 0.24967 0.84431 0.70892 0.0
H65 H 0.35786 0.84717 0.65568 0.0
H66 H 0.38857 0.86686 0.71487 0.0
H67 H 0.26122 0.88793 0.65277 0.0
H68 H 0.30826 0.79969 0.62068 0.0
H69 H 0.24238 0.84239 0.54213 0.0
H70 H 0.27624 0.74888 0.57953 0.0
H71 H 0.30792 0.83888 0.51118 0.0
H72 H 0.35585 0.81136 0.47989 0.0
H73 H 0.20743 0.90301 0.64621 0.0
H74 H 0.23636 0.89638 0.52873 0.0
H75 H 0.32496 0.7223 0.54944 0.0
H76 H 0.17796 0.9517 0.63465 0.0
H77 H 0.20033 0.94159 0.51693 0.0
C78 C 0.77221 0.44521 0.91493 0.0
C79 C 0.79876 0.42622 0.92782 0.0
C80 C 0.73905 0.42852 0.89649 0.0
C81 C 0.73069 0.39196 0.89036 0.0
C82 C 0.75762 0.37318 0.90314 0.0
C83 C 0.7908 0.38988 0.92129 0.0
C84 C 0.69407 0.3733 0.87185 0.0
C85 C 0.67711 0.38829 0.84239 0.0
C86 C 0.64317 0.37129 0.82485 0.0
C87 C 0.62643 0.33745 0.83848 0.0
C88 C 0.64258 0.3211 0.86798 0.0
C89 C 0.67608 0.34003 0.88395 0.0
C90 C 0.6256 0.28453 0.88314 0.0
C91 C 0.58649 0.27183 0.8868 0.0
C92 C 0.64893 0.26215 0.89627 0.0
C93 C 0.63429 0.22971 0.9128 0.0
C94 C 0.59536 0.21748 0.91737 0.0
C95 C 0.62619 0.38917 0.7924 0.0
C96 C 0.63289 0.42598 0.78879 0.0
C97 C 0.60372 0.37023 0.76391 0.0
C98 C 0.58947 0.38695 0.73378 0.0
C99 C 0.59675 0.42363 0.73022 0.0
C100 C 0.61874 0.44259 0.7587 0.0
C101 C 0.57179 0.23926 0.90358 0.0
H102 H 0.77708 0.47318 0.91924 0.0
H103 H 0.71952 0.44437 0.88771 0.0
H104 H 0.75334 0.34524 0.89882 0.0
H105 H 0.81037 0.37421 0.93042 0.0
H106 H 0.69136 0.41313 0.83234 0.0
H107 H 0.68792 0.32905 0.90719 0.0
H108 H 0.60079 0.32368 0.82612 0.0
H109 H 0.56699 0.28752 0.87758 0.0
H110 H 0.67909 0.26962 0.89373 0.0
H111 H 0.65374 0.2141 0.92237 0.0
H112 H 0.64896 0.44257 0.80962 0.0
H113 H 0.59752 0.34212 0.7643 0.0
H114 H 0.54168 0.23122 0.90616 0.0
H115 H 0.6251 0.47071 0.75775 0.0
H116 H 0.57281 0.37093 0.71286 0.0
C117 C 0.87565 0.61837 0.23271 0.0
C118 C 0.91459 0.62131 0.22574 0.0
C119 C 0.86133 0.63552 0.26368 0.0
C120 C 0.88509 0.65697 0.28929 0.0
C121 C 0.92412 0.66052 0.28183 0.0
C122 C 0.93848 0.64296 0.25102 0.0
C123 C 0.86903 0.67493 0.3233 0.0
C124 C 0.83589 0.65804 0.34225 0.0
C125 C 0.81925 0.67398 0.37292 0.0
C126 C 0.83669 0.7083 0.38389 0.0
C127 C 0.87016 0.72612 0.36698 0.0
C128 C 0.8862 0.70881 0.33694 0.0
C129 C 0.88735 0.76293 0.38133 0.0
C130 C 0.86455 0.78789 0.38973 0.0
C131 C 0.92593 0.77307 0.38926 0.0
C132 C 0.94065 0.80614 0.40591 0.0
C133 C 0.91761 0.83085 0.41472 0.0
C134 C 0.78386 0.65528 0.39376 0.0
C135 C 0.75751 0.62812 0.37698 0.0
C136 C 0.77559 0.66462 0.43108 0.0
C137 C 0.74257 0.64865 0.45 0.0
C138 C 0.71641 0.62183 0.43311 0.0
C139 C 0.72482 0.61156 0.39635 0.0
C140 C 0.87934 0.82106 0.40568 0.0
H141 H 0.85602 0.6023 0.2142 0.0
H142 H 0.83121 0.6321 0.26726 0.0
H143 H 0.94388 0.67634 0.30039 0.0
H144 H 0.96856 0.64608 0.24716 0.0
H145 H 0.8236 0.6318 0.33351 0.0
H146 H 0.91135 0.72234 0.3233 0.0
H147 H 0.82425 0.72168 0.40616 0.0
H148 H 0.83484 0.78174 0.38398 0.0
H149 H 0.94465 0.75493 0.38371 0.0
H150 H 0.97021 0.81231 0.41231 0.0
H151 H 0.76158 0.61976 0.34849 0.0
H152 H 0.79481 0.6842 0.44639 0.0
H153 H 0.8605 0.83904 0.41156 0.0
H154 H 0.70562 0.59096 0.38225 0.0
H155 H 0.73758 0.65716 0.47831 0.0
C156 C 0.72555 0.79689 0.69241 0.0
C157 C 0.75227 0.82708 0.7001 0.0
C158 C 0.70115 0.78203 0.72075 0.0
C159 C 0.70246 0.79817 0.75623 0.0
C160 C 0.72772 0.82932 0.76302 0.0
C161 C 0.75256 0.84347 0.73532 0.0
C162 C 0.68158 0.78142 0.78827 0.0
C163 C 0.69527 0.7547 0.80516 0.0
C164 C 0.68666 0.74701 0.84263 0.0
C165 C 0.66228 0.76531 0.86249 0.0
C166 C 0.6472 0.79136 0.84517 0.0
C167 C 0.6568 0.79891 0.80789 0.0
C168 C 0.62668 0.81492 0.86681 0.0
C169 C 0.6408 0.82999 0.90088 0.0
C170 C 0.59582 0.82604 0.85121 0.0
C171 C 0.58029 0.85256 0.86858 0.0
C172 C 0.59537 0.86835 0.90182 0.0
C173 C 0.70927 0.72522 0.86197 0.0
C174 C 0.71689 0.69446 0.84478 0.0
C175 C 0.72861 0.73822 0.89446 0.0
C176 C 0.75674 0.72214 0.90796 0.0
C177 C 0.76577 0.69274 0.88936 0.0
C178 C 0.74494 0.6783 0.85842 0.0
C179 C 0.62526 0.85655 0.91823 0.0
H180 H 0.72472 0.78421 0.66515 0.0
H181 H 0.68195 0.75777 0.7153 0.0
H182 H 0.72942 0.84185 0.79041 0.0
H183 H 0.77284 0.86686 0.74171 0.0
H184 H 0.71642 0.74298 0.79052 0.0
H185 H 0.64816 0.82092 0.79522 0.0
H186 H 0.65639 0.76032 0.89173 0.0
H187 H 0.66495 0.82243 0.91324 0.0
H188 H 0.58436 0.81485 0.82501 0.0
H189 H 0.55701 0.86125 0.85577 0.0
H190 H 0.70241 0.68391 0.81971 0.0
H191 H 0.72384 0.76216 0.90796 0.0
H192 H 0.63705 0.86846 0.94401 0.0
H193 H 0.75161 0.65556 0.84383 0.0
H194 H 0.77268 0.73356 0.93189 0.0
C195 C 0.75098 0.17993 0.30928 0.0
C196 C 0.74265 0.20291 0.28286 0.0
C197 C 0.77189 0.19261 0.34052 0.0
C198 C 0.78515 0.22854 0.34571 0.0
C199 C 0.77708 0.25144 0.3188 0.0
C200 C 0.75573 0.23873 0.28775 0.0
C201 C 0.80515 0.24218 0.38026 0.0
C202 C 0.82997 0.22396 0.39693 0.0
C203 C 0.8448 0.2345 0.43204 0.0
C204 C 0.83683 0.26481 0.44956 0.0
C205 C 0.81217 0.28349 0.43333 0.0
C206 C 0.79629 0.27168 0.39876 0.0
C207 C 0.79882 0.31246 0.45396 0.0
C208 C 0.79322 0.31186 0.49295 0.0
C209 C 0.7868 0.33862 0.43405 0.0
C210 C 0.7647 0.3599 0.4514 0.0
C211 C 0.75575 0.35675 0.48946 0.0
C212 C 0.86268 0.21046 0.45303 0.0
C213 C 0.8473 0.1992 0.48772 0.0
C214 C 0.89164 0.19544 0.43698 0.0
C215 C 0.9044 0.16885 0.45505 0.0
C216 C 0.88773 0.15666 0.4889 0.0
C217 C 0.85953 0.17229 0.50538 0.0
C218 C 0.77267 0.33464 0.51073 0.0
H219 H 0.74081 0.15219 0.30593 0.0
H220 H 0.77673 0.1743 0.36107 0.0
H221 H 0.7871 0.27921 0.32184 0.0
H222 H 0.74942 0.25675 0.26754 0.0
H223 H 0.83603 0.20035 0.38367 0.0
H224 H 0.77491 0.28402 0.38723 0.0
H225 H 0.84873 0.27281 0.47656 0.0
H226 H 0.80222 0.29234 0.50949 0.0
H227 H 0.79225 0.34118 0.40442 0.0
H228 H 0.75294 0.37762 0.43457 0.0
H229 H 0.82445 0.21 0.50027 0.0
H230 H 0.90366 0.20368 0.41013 0.0
H231 H 0.76709 0.33276 0.54042 0.0
H232 H 0.84633 0.163 0.53142 0.0
H233 H 0.92624 0.15694 0.4421 0.0
C234 C 0.22762 0.62418 0.18406 0.0
C235 C 0.22227 0.62749 0.14552 0.0
C236 C 0.26079 0.64128 0.2021 0.0
C237 C 0.29025 0.66255 0.18245 0.0
C238 C 0.28487 0.66528 0.1437 0.0
C239 C 0.25174 0.6483 0.12576 0.0
C240 C 0.32586 0.6823 0.2018 0.0
C241 C 0.3416 0.66891 0.23306 0.0
C242 C 0.37494 0.6867 0.25085 0.0
C243 C 0.39304 0.71923 0.2351 0.0
C244 C 0.37823 0.73398 0.20356 0.0
C245 C 0.34424 0.71498 0.18854 0.0
C246 C 0.39692 0.76886 0.18533 0.0
C247 C 0.41992 0.79673 0.20491 0.0
C248 C 0.39085 0.77523 0.14731 0.0
C249 C 0.40558 0.80735 0.13036 0.0
C250 C 0.42821 0.83511 0.14987 0.0
C251 C 0.39012 0.67051 0.2854 0.0
C252 C 0.36568 0.64988 0.31094 0.0
C253 C 0.4289 0.67428 0.29324 0.0
C254 C 0.44224 0.65791 0.32414 0.0
C255 C 0.41765 0.63707 0.34932 0.0
C256 C 0.37898 0.63382 0.34188 0.0
C257 C 0.43528 0.82891 0.18758 0.0
H258 H 0.20579 0.60849 0.20045 0.0
H259 H 0.26289 0.63829 0.2318 0.0
H260 H 0.30655 0.68046 0.12675 0.0
H261 H 0.24909 0.65155 0.09616 0.0
H262 H 0.32821 0.64374 0.24301 0.0
H263 H 0.33099 0.72624 0.1665 0.0
H264 H 0.41861 0.73311 0.24751 0.0
H265 H 0.42581 0.79399 0.23397 0.0
H266 H 0.37491 0.75507 0.12979 0.0
H267 H 0.39973 0.81027 0.1013 0.0
H268 H 0.33566 0.64627 0.30741 0.0
H269 H 0.44933 0.6894 0.27497 0.0
H270 H 0.4528 0.84912 0.20386 0.0
H271 H 0.35866 0.61864 0.36024 0.0
H272 H 0.47218 0.66153 0.32828 0.0
C273 C 0.13482 0.24383 0.65568 0.0
C274 C 0.09573 0.23335 0.65151 0.0
C275 C 0.15068 0.27629 0.67261 0.0
C276 C 0.12833 0.30007 0.68648 0.0
C277 C 0.08906 0.28922 0.68305 0.0
C278 C 0.07315 0.25671 0.66578 0.0
C279 C 0.14632 0.33614 0.70267 0.0
C280 C 0.18009 0.35441 0.68653 0.0
C281 C 0.19856 0.38758 0.70001 0.0
C282 C 0.18243 0.40224 0.73179 0.0
C283 C 0.14856 0.38532 0.74938 0.0
C284 C 0.13066 0.35242 0.73382 0.0
C285 C 0.13246 0.40225 0.78399 0.0
C286 C 0.15611 0.42024 0.81196 0.0
C287 C 0.09354 0.40145 0.78946 0.0
C288 C 0.07922 0.41849 0.82068 0.0
C289 C 0.10298 0.43667 0.84846 0.0
C290 C 0.23454 0.40652 0.68056 0.0
C291 C 0.24118 0.40163 0.64188 0.0
C292 C 0.26307 0.42936 0.70008 0.0
C293 C 0.29648 0.44602 0.68196 0.0
C294 C 0.30305 0.44046 0.64356 0.0
C295 C 0.27465 0.41802 0.62393 0.0
C296 C 0.14175 0.43666 0.84345 0.0
H297 H 0.15335 0.22681 0.64551 0.0
H298 H 0.18088 0.28265 0.67495 0.0
H299 H 0.07046 0.30629 0.69287 0.0
H300 H 0.04299 0.24992 0.66328 0.0
H301 H 0.19217 0.34246 0.66292 0.0
H302 H 0.10514 0.33887 0.74681 0.0
H303 H 0.19571 0.42763 0.74235 0.0
H304 H 0.18611 0.42147 0.80975 0.0
H305 H 0.07397 0.38831 0.769 0.0
H306 H 0.04929 0.41772 0.82292 0.0
H307 H 0.22026 0.3853 0.62494 0.0
H308 H 0.26007 0.43401 0.72972 0.0
H309 H 0.16129 0.44995 0.86388 0.0
H310 H 0.27831 0.41321 0.59437 0.0
H311 H 0.31752 0.46309 0.69815 0.0
Ho312 Ho 1.01463 0.04699 0.5035 0.0
Ho313 Ho 1.00306 1.01457 0.56748 0.0
C314 C 0.03413 0.09651 0.57563 0.0
C315 C 0.03926 0.08336 0.44656 0.0
C316 C 0.07401 0.10882 0.43925 0.0
C317 C 0.07607 0.14426 0.44896 0.0
C318 C 0.10876 0.16837 0.44197 0.0
C319 C 0.13974 0.15749 0.42489 0.0
C320 C 0.13813 0.12221 0.41561 0.0
C321 C 0.10548 0.09803 0.42268 0.0
C322 C 0.08819 0.04346 0.5439 0.0
C323 C 0.97593 0.96824 0.49101 0.0
C324 C 0.99117 0.97086 0.62087 0.0
C325 C 0.95563 0.94722 0.62763 0.0
C326 C 0.95024 0.92538 0.65817 0.0
C327 C 0.91533 0.90393 0.66403 0.0
C328 C 0.8859 0.90391 0.63908 0.0
C329 C 0.89187 0.9251 0.60801 0.0
C330 C 0.92622 0.94715 0.60286 0.0
C331 C 0.94349 0.04466 0.55124 0.0
O332 O 0.02 0.09531 0.54184 0.0
O333 O 0.03544 0.06652 0.59127 0.0
O334 O 0.04249 0.0508 0.44951 0.0
O335 O 1.01626 0.09296 0.47153 0.0
O336 O 0.05663 1.02462 0.53357 0.0
O337 O 0.05668 1.0252 0.5334 0.0
O338 O 0.98264 0.96809 0.52719 0.0
O339 O 0.98279 0.99841 0.47412 0.0
O340 O 0.98973 1.00367 0.62552 0.0
O341 O 1.00798 0.96474 0.58969 0.0
O342 O 0.95929 0.04595 0.58305 0.0
O343 O 0.96017 1.02747 0.52872 0.0
H344 H 0.05234 0.15348 0.46171 0.0
H345 H 0.10959 0.19563 0.44894 0.0
H346 H 0.16181 0.11359 0.40202 0.0
H347 H 0.10478 0.07099 0.41479 0.0
H348 H 0.97267 0.92529 0.67758 0.0
H349 H 0.91109 0.88761 0.68816 0.0
H350 H 0.8695 0.92546 0.5886 0.0
H351 H 0.92977 0.96468 0.57982 0.0
Ho352 Ho 0.54537 1.02893 0.0519 0.0
Ho353 Ho 0.48038 1.02391 1.01385 0.0
C354 C 0.48433 0.07198 0.08235 0.0
C355 C 0.60577 0.04628 0.09053 0.0
C356 C 0.62562 0.07554 0.1128 0.0
C357 C 0.61042 0.10559 0.1199 0.0
C358 C 0.62811 0.13142 0.14469 0.0
C359 C 0.66071 0.12698 0.16287 0.0
C360 C 0.67634 0.0974 0.1548 0.0
C361 C 0.6589 0.07185 0.12986 0.0
C362 C 0.4979 0.96668 0.06975 0.0
C363 C 0.54118 0.98039 0.98084 0.0
C364 C 0.41829 1.00358 0.97831 0.0
C365 C 0.40863 0.98562 0.94257 0.0
C366 C 0.43688 0.97956 0.91733 0.0
C367 C 0.42757 0.95985 0.88475 0.0
C368 C 0.3899 0.9466 0.87685 0.0
C369 C 0.36161 0.95324 0.90166 0.0
C370 C 0.37098 0.97252 0.93453 0.0
C371 C 0.52888 0.08495 0.99465 0.0
O372 O 0.52036 0.07366 0.07601 0.0
O373 O 0.46067 0.0471 0.06602 0.0
O374 O 0.57362 1.03105 0.10429 0.0
O375 O 0.60484 0.05027 0.05464 0.0
O376 O 0.53363 0.97172 0.06374 0.0
O377 O 0.48858 0.99662 0.06658 0.0
O378 O 0.50742 0.98734 0.97814 0.0
O379 O 0.56424 0.99627 1.00619 0.0
O380 O 0.43791 0.03497 0.97684 0.0
O381 O 0.43094 0.98504 1.0029 0.0
O382 O 0.49325 0.08138 1.00112 0.0
O383 O 0.5378 0.05497 0.99835 0.0
H384 H 0.58449 0.10861 0.10719 0.0
H385 H 0.61581 0.15419 0.15067 0.0
H386 H 0.70154 0.09371 0.16859 0.0
H387 H 0.67078 0.04868 0.12477 0.0
H388 H 0.46606 0.98981 0.92288 0.0
H389 H 0.44961 0.95505 0.86563 0.0
H390 H 0.3324 0.94317 0.89571 0.0
H391 H 0.34892 0.9769 0.95385 0.0
Ho392 Ho 0.50612 0.50403 0.51834 0.0
Ho393 Ho 0.51348 0.5624 0.56339 0.0
C394 C 0.54116 0.49946 0.60288 0.0
C395 C 0.52444 0.45276 0.48021 0.0
C396 C 0.55997 0.44083 0.48403 0.0
C397 C 0.58889 0.4623 0.50364 0.0
C398 C 0.62198 0.4509 0.51081 0.0
C399 C 0.62752 0.41856 0.49674 0.0
C400 C 0.59901 0.39736 0.47605 0.0
C401 C 0.56511 0.40831 0.47008 0.0
C402 C 0.44099 0.50262 0.55886 0.0
C403 C 0.47511 0.56633 0.47988 0.0
C404 C 0.50174 0.61759 0.59924 0.0
C405 C 0.49106 0.64937 0.58563 0.0
C406 C 0.45753 0.65844 0.5989 0.0
C407 C 0.44177 0.68289 0.58044 0.0
C408 C 0.45944 0.69867 0.54862 0.0
C409 C 0.49432 0.69169 0.53686 0.0
C410 C 0.51013 0.6671 0.55531 0.0
C411 C 0.57866 0.56323 0.52191 0.0
O412 O 0.53975 0.4876 0.56763 0.0
O413 O 0.52895 0.52887 0.60976 0.0
O414 O 0.50231 0.4484 0.50937 0.0
O415 O 0.528 0.48402 0.46749 0.0
O416 O 0.44285 0.49401 0.52376 0.0
O417 O 0.47429 0.51183 0.57076 0.0
O418 O 0.48181 0.58071 0.5138 0.0
O419 O 0.48318 0.53497 0.4739 0.0
O420 O 0.53523 0.61218 0.59029 0.0
O421 O 0.47612 0.58966 0.59474 0.0
O422 O 0.57701 0.57092 0.55719 0.0
O423 O 0.54506 0.55446 0.51077 0.0
H424 H 0.58571 0.48788 0.51375 0.0
H425 H 0.64357 0.46751 0.5268 0.0
H426 H 0.60284 0.37218 0.46503 0.0
H427 H 0.54305 0.39147 0.45488 0.0
H428 H 0.44235 0.64504 0.62213 0.0
H429 H 0.4149 0.68836 0.58994 0.0
H430 H 0.5084 0.70416 0.51261 0.0
H431 H 0.53607 0.66058 0.5445 0.0
Ho432 Ho 1.01158 0.49276 0.05964 0.0
Ho433 Ho 1.00785 0.56279 1.01741 0.0
C434 C 0.08078 0.56008 0.0696 0.0
C435 C 0.03019 0.43429 0.0757 0.0
C436 C 0.06616 0.42303 0.08109 0.0
C437 C 0.09961 0.44101 0.06505 0.0
C438 C 0.1339 0.4313 0.07253 0.0
C439 C 0.13511 0.40376 0.09639 0.0
C440 C 0.10168 0.38564 0.11205 0.0
C441 C 0.06744 0.3952 0.10442 0.0
C442 C 0.97735 0.53756 0.10514 0.0
C443 C 0.93933 0.49427 1.00551 0.0
C444 C 0.98674 0.62072 1.00428 0.0
C445 C 0.95918 0.63239 0.98075 0.0
C446 C 0.9435 0.66086 0.99322 0.0
C447 C 0.91304 0.66938 0.97491 0.0
C448 C 0.89795 0.64959 0.94379 0.0
C449 C 0.91443 0.62181 0.93037 0.0
C450 C 0.94477 0.61303 0.94899 0.0
C451 C 0.04097 0.51842 0.97107 0.0
O452 O 0.06941 0.52576 0.07151 0.0
O453 O 0.06056 0.58 0.05249 0.0
O454 O 0.02167 0.45646 0.10081 0.0
O455 O 0.02301 0.44239 0.04187 0.0
O456 O 0.98161 0.50642 0.11346 0.0
O457 O 0.9912 0.54142 0.07225 0.0
O458 O 0.95355 0.52743 0.99815 0.0
O459 O 0.95615 0.47595 1.02858 0.0
O460 O 1.01602 0.61131 0.98793 0.0
O461 O 0.97186 0.59951 0.0302 0.0
O462 O 0.03553 0.54918 0.96247 0.0
O463 O 0.02844 0.51409 1.00448 0.0
H464 H 0.09925 0.46281 0.04724 0.0
H465 H 0.1595 0.44559 0.06032 0.0
H466 H 0.10219 0.36436 0.13053 0.0
H467 H 0.04199 0.38123 0.11724 0.0
H468 H 0.95394 0.67572 1.01799 0.0
H469 H 0.90063 0.69091 0.98551 0.0
H470 H 0.90303 0.60633 0.90635 0.0
H471 H 0.95612 0.59056 0.9394 0.0
C472 C 0.20397 0.22258 0.3655 0.0
C473 C 0.23819 0.22498 0.38475 0.0
C474 C 0.20544 0.18963 0.4348 0.0
C475 C 0.17261 0.18337 0.413 0.0
N476 N 0.14023 0.1918 0.35695 0.0
N477 N 0.27263 0.21134 0.43712 0.0
C478 C 0.17157 0.19972 0.37843 0.0
C479 C 0.23917 0.20896 0.41952 0.0
N480 N 0.20256 0.24183 0.33454 0.0
N481 N 0.2041 0.1772 0.47008 0.0
H482 H 0.29735 0.22676 0.42741 0.0
H483 H 0.27636 0.1971 0.46031 0.0
H484 H 0.17978 0.1627 0.48174 0.0
H485 H 0.22601 0.18327 0.48879 0.0
H486 H 0.1777 0.24443 0.32193 0.0
H487 H 0.22597 0.25756 0.32282 0.0
H488 H 0.13928 0.19912 0.32942 0.0
H489 H 0.11551 0.17579 0.36569 0.0
C490 C 0.36101 0.92391 0.77711 0.0
C491 C 0.35438 0.887 0.77778 0.0
C492 C 0.37253 0.88906 0.84315 0.0
C493 C 0.37981 0.92596 0.84223 0.0
N494 N 0.3875 0.97879 0.80765 0.0
N495 N 0.35901 0.83409 0.80828 0.0
C496 C 0.37619 0.94347 0.8089 0.0
C497 C 0.36179 0.86944 0.80991 0.0
N498 N 0.35118 0.94022 0.74663 0.0
N499 N 0.37508 0.87295 0.87604 0.0
H500 H 0.35079 0.8191 0.78433 0.0
H501 H 0.36735 0.81981 0.8295 0.0
H502 H 0.38453 0.88648 0.90053 0.0
H503 H 0.3661 0.84642 0.87976 0.0
H504 H 0.35079 0.96673 0.74614 0.0
H505 H 0.34094 0.92699 0.72226 0.0
H506 H 0.38982 0.99263 0.78315 0.0
H507 H 0.39724 0.99426 0.83084 0.0
C508 C 0.60011 0.44421 0.66142 0.0
C509 C 0.58184 0.44213 0.69713 0.0
C510 C 0.53462 0.4735 0.6698 0.0
C511 C 0.55514 0.479 0.63523 0.0
N512 N 0.61173 0.4727 0.60186 0.0
N513 N 0.53314 0.45917 0.73567 0.0
C514 C 0.58885 0.46482 0.63211 0.0
C515 C 0.54965 0.45822 0.70127 0.0
N516 N 0.62849 0.42615 0.65512 0.0
N517 N 0.49927 0.4808 0.6721 0.0
H518 H 0.54173 0.447 0.75855 0.0
H519 H 0.51281 0.47406 0.74216 0.0
H520 H 0.48646 0.49025 0.64991 0.0
H521 H 0.48103 0.47396 0.69452 0.0
H522 H 0.63991 0.42251 0.6288 0.0
H523 H 0.63871 0.41243 0.67583 0.0
H524 H 0.63868 0.46723 0.59948 0.0
H525 H 0.60509 0.4877 0.58056 0.0
C526 C 0.95255 0.61804 0.16354 0.0
C527 C 0.92985 0.60089 0.19301 0.0
C528 C 0.93031 0.54519 0.15775 0.0
C529 C 0.95804 0.56125 0.13166 0.0
N530 N 0.99689 0.61486 0.1123 0.0
N531 N 0.9036 0.54593 0.22018 0.0
C532 C 0.96931 0.59828 0.13517 0.0
C533 C 0.92057 0.56387 0.1905 0.0
N534 N 0.95709 0.65337 0.16169 0.0
N535 N 0.91139 0.51219 0.15038 0.0
H536 H 0.89714 0.55808 0.24504 0.0
H537 H 0.89973 0.51892 0.22155 0.0
H538 H 0.91493 0.49868 0.12552 0.0
H539 H 0.88865 0.50024 0.16643 0.0
H540 H 0.96963 0.66733 0.13907 0.0
H541 H 0.94508 0.66845 0.18116 0.0
H542 H 1.0098 0.64076 0.11623 0.0
H543 H 1.00882 0.60199 0.0909 0.0
C544 C 0.42831 0.14203 0.11229 0.0
C545 C 0.44888 0.15705 0.14366 0.0
C546 C 0.48851 0.1128 0.13824 0.0
C547 C 0.47085 0.10029 0.10419 0.0
N548 N 0.42859 0.10877 0.05498 0.0
N549 N 0.50191 0.1604 0.1837 0.0
C550 C 0.44192 0.11634 0.09018 0.0
C551 C 0.48007 0.14356 0.15577 0.0
N552 N 0.39509 0.15161 0.10405 0.0
N553 N 0.51186 0.09436 0.15487 0.0
H554 H 0.49618 0.18276 0.19737 0.0
H555 H 0.52735 0.154 0.19105 0.0
H556 H 0.51713 0.07068 0.14411 0.0
H557 H 0.52289 0.10055 0.18128 0.0
H558 H 0.37664 0.13835 0.08436 0.0
H559 H 0.38423 0.17078 0.11907 0.0
H560 H 0.41118 0.12309 0.04214 0.0
H561 H 0.43734 0.09063 0.03692 0.0
C562 C 0.17825 1.00823 0.55023 0.0
C563 C 0.16342 0.97664 0.5684 0.0
C564 C 0.10692 0.999 0.58398 0.0
C565 C 0.1174 1.02601 0.55867 0.0
N566 N 0.16398 0.05772 0.51769 0.0
N567 N 0.10902 0.93939 0.59524 0.0
C568 C 0.15363 1.03137 0.54204 0.0
C569 C 0.12642 0.97126 0.58327 0.0
N570 N 0.21566 1.01662 0.54198 0.0
N571 N 0.07953 1.00064 0.60993 0.0
H572 H 0.12104 0.91721 0.59246 0.0
H573 H 0.08095 0.93442 0.60387 0.0
H574 H 0.06677 1.02226 0.61273 0.0
H575 H 0.07347 0.98281 0.63126 0.0
H576 H 0.22834 0.04064 0.53166 0.0
H577 H 0.23462 1.00085 0.54873 0.0
H578 H 0.18838 0.06047 0.50143 0.0
H579 H 0.14706 0.07587 0.51261 0.0
C580 C 0.86668 0.46105 0.92743 0.0
C581 C 0.83472 0.44408 0.94793 0.0
C582 C 0.87028 0.46194 1.0064 0.0
C583 C 0.90316 0.47663 0.98576 0.0
N584 N 0.93373 0.48471 0.92568 0.0
N585 N 0.80805 0.42526 1.00742 0.0
C586 C 0.90145 0.47485 0.946 0.0
C587 C 0.83727 0.4436 0.98755 0.0
N588 N 0.8638 0.4643 0.88988 0.0
N589 N 0.86984 0.46704 0.04419 0.0
H590 H 0.78297 0.41323 0.99518 0.0
H591 H 0.80945 0.41999 0.03553 0.0
H592 H 0.89286 0.48051 0.05877 0.0
H593 H 0.84587 0.46069 0.06081 0.0
H594 H 0.88396 0.47997 0.87376 0.0
H595 H 0.8399 0.45323 0.87508 0.0
H596 H 0.93579 0.48046 0.89704 0.0
H597 H 0.95955 0.49439 0.9378 0.0
C598 C 0.6448 0.61122 0.44409 0.0
C599 C 0.68065 0.60484 0.45417 0.0
C600 C 0.64918 0.56857 0.50588 0.0
C601 C 0.61356 0.57686 0.49744 0.0
N602 N 0.58031 0.61251 0.46202 0.0
N603 N 0.71703 0.57817 0.49608 0.0
C604 C 0.61214 0.59953 0.46713 0.0
C605 C 0.68269 0.58369 0.4855 0.0
N606 N 0.64177 0.62898 0.41243 0.0
N607 N 0.65088 0.54517 0.53295 0.0
H608 H 0.74143 0.58591 0.4803 0.0
H609 H 0.72193 0.56733 0.52119 0.0
H610 H 0.62777 0.53489 0.54929 0.0
H611 H 0.67423 0.53417 0.53784 0.0
H612 H 0.61624 0.63023 0.40034 0.0
H613 H 0.66483 0.64065 0.39664 0.0
H614 H 0.57837 0.6322 0.4437 0.0
H615 H 0.55679 0.60634 0.47902 0.0
C616 C 0.21677 0.35504 0.09783 0.0
C617 C 0.23308 0.36779 0.13225 0.0
C618 C 0.19102 0.41012 0.13766 0.0
C619 C 0.17137 0.39405 0.10608 0.0
N620 N 0.16456 0.35149 0.05569 0.0
N621 N 0.23626 0.40684 0.18569 0.0
C622 C 0.18427 0.36683 0.08574 0.0
C623 C 0.22068 0.39553 0.15213 0.0
N624 N 0.23257 0.33172 0.07681 0.0
N625 N 0.18125 0.43935 0.15367 0.0
H626 H 0.25912 0.39785 0.19634 0.0
H627 H 0.22555 0.4238 0.20395 0.0
H628 H 0.15909 0.45021 0.1443 0.0
H629 H 0.19669 0.45447 0.17435 0.0
H630 H 0.22438 0.32362 0.04989 0.0
H631 H 0.25612 0.32241 0.08525 0.0
H632 H 0.16964 0.32894 0.04212 0.0
H633 H 0.14161 0.36047 0.04521 0.0
C634 C 0.58707 0.17736 0.9749 0.0
C635 C 0.57981 0.18235 0.93656 0.0
C636 C 0.54158 0.12187 0.93522 0.0
C637 C 0.55042 0.11639 0.97296 0.0
N638 N 0.5876 0.13762 1.02613 0.0
N639 N 0.55557 0.15551 0.87876 0.0
C640 C 0.57513 0.14379 0.9918 0.0
C641 C 0.55847 0.15345 0.91645 0.0
N642 N 0.6038 0.20535 0.99602 0.0
N643 N 0.51639 0.09689 0.91717 0.0
H644 H 0.5676 0.17754 0.86412 0.0
H645 H 0.54419 0.1345 0.86153 0.0
H646 H 0.50567 0.07283 0.92866 0.0
H647 H 0.50466 0.10063 0.89174 0.0
H648 H 0.60638 0.20491 1.0248 0.0
H649 H 0.61211 0.23011 0.98529 0.0
H650 H 0.60847 0.15466 0.04027 0.0
H651 H 0.57949 0.11375 0.03891 0.0
C652 C 0.91765 0.87607 0.46875 0.0
C653 C 0.93292 0.8664 0.43391 0.0
C654 C 0.97815 0.92294 0.43714 0.0
C655 C 0.9602 0.93392 0.46993 0.0
N656 N 0.90576 0.92309 0.51017 0.0
N657 N 0.97341 0.88532 0.38154 0.0
C658 C 0.928 0.91098 0.4838 0.0
C659 C 0.96201 0.89121 0.41722 0.0
N660 N 0.89419 0.85155 0.48857 0.0
N661 N 1.01163 0.94196 0.42561 0.0
H662 H 0.96189 0.86327 0.36577 0.0
H663 H 0.9915 0.90385 0.36638 0.0
H664 H 0.02466 0.9647 0.43938 0.0
H665 H 0.02815 0.93346 0.40453 0.0
H666 H 0.88525 0.8561 0.51571 0.0
H667 H 0.88696 0.82564 0.47955 0.0
H668 H 0.88004 0.90886 0.51892 0.0
H669 H 0.91078 0.94893 0.51968 0.0
C670 C 0.41234 0.77303 0.5312 0.0
C671 C 0.38218 0.75596 0.50867 0.0
C672 C 0.41121 0.70469 0.50181 0.0
C673 C 0.43938 0.72066 0.52686 0.0
N674 N 0.4746 0.7729 0.55452 0.0
N675 N 0.35904 0.71158 0.46308 0.0
C676 C 0.4428 0.75607 0.53741 0.0
C677 C 0.3841 0.72389 0.49033 0.0
N678 N 0.41031 0.80374 0.54957 0.0
N679 N 0.40899 0.67056 0.49121 0.0
H680 H 0.33894 0.72564 0.45482 0.0
H681 H 0.36035 0.68948 0.44661 0.0
H682 H 0.42895 0.65613 0.49878 0.0
H683 H 0.38682 0.65622 0.47623 0.0
H684 H 0.42884 0.81464 0.57033 0.0
H685 H 0.389 0.81768 0.54578 0.0
H686 H 0.48029 0.79963 0.56 0.0
H687 H 0.49697 0.76053 0.55987 0.0
C688 C 0.81243 0.82606 0.6644 0.0
C689 C 0.78124 0.84226 0.67264 0.0
C690 C 0.81707 0.89839 0.65421 0.0
C691 C 0.84848 0.88237 0.64624 0.0
N692 N 0.87191 0.82979 0.6315 0.0
N693 N 0.74967 0.88996 0.66296 0.0
C694 C 0.8447 0.84571 0.64713 0.0
C695 C 0.78214 0.87711 0.66277 0.0
N696 N 0.81246 0.79292 0.6753 0.0
N697 N 0.82104 0.93381 0.65655 0.0
H698 H 0.72374 0.8745 0.66929 0.0
H699 H 0.74808 0.91446 0.65321 0.0
H700 H 0.84652 0.95066 0.65245 0.0
H701 H 0.79971 0.94649 0.66608 0.0
H702 H 0.83626 0.7816 0.67398 0.0
H703 H 0.78945 0.77741 0.68792 0.0
H704 H 0.86902 0.80287 0.62842 0.0
H705 H 0.89567 0.84361 0.61819 0.0
C706 C 0.68127 0.17405 0.25626 0.0
C707 C 0.71955 0.18898 0.25041 0.0
C708 C 0.71421 0.17236 0.1843 0.0
C709 C 0.6783 0.15224 0.19168 0.0
N710 N 0.62827 0.13126 0.23536 0.0
N711 N 0.77392 0.20022 0.20965 0.0
C712 C 0.66168 0.15268 0.22774 0.0
C713 C 0.73637 0.18801 0.2145 0.0
N714 N 0.66368 0.18054 0.289 0.0
N715 N 0.72695 0.17647 0.14836 0.0
H716 H 0.79127 0.21174 0.2311 0.0
H717 H 0.78848 0.19654 0.18504 0.0
H718 H 0.71109 0.16536 0.12566 0.0
H719 H 0.75142 0.19347 0.14088 0.0
H720 H 0.63491 0.17313 0.29351 0.0
H721 H 0.6773 0.19631 0.31039 0.0
H722 H 0.61713 0.12747 0.26218 0.0
H723 H 0.61284 0.11519 0.2153 0.0
C724 C 0.42347 0.5823 0.38761 0.0
C725 C 0.43195 0.61919 0.38328 0.0
C726 C 0.46983 0.62214 0.44146 0.0
C727 C 0.45872 0.58544 0.44773 0.0
N728 N 0.41512 0.53356 0.42951 0.0
N729 N 0.45697 0.67436 0.41276 0.0
C730 C 0.43286 0.56647 0.42141 0.0
C731 C 0.45344 0.63898 0.4121 0.0
N732 N 0.40747 0.56174 0.35871 0.0
N733 N 0.49728 0.64148 0.46253 0.0
H734 H 0.44486 0.68761 0.39296 0.0
H735 H 0.46848 0.69025 0.43499 0.0
H736 H 0.50862 0.63202 0.48542 0.0
H737 H 0.51076 0.66639 0.4555 0.0
H738 H 0.40429 0.53471 0.35822 0.0
H739 H 0.40097 0.5718 0.33361 0.0
H740 H 0.39343 0.51959 0.41359 0.0
H741 H 0.41863 0.52191 0.4546 0.0
C742 C 0.06051 0.43942 0.90772 0.0
C743 C 0.08784 0.45652 0.88177 0.0
C744 C 0.09047 0.5104 0.92129 0.0
C745 C 0.05936 0.49487 0.94391 0.0
N746 N 1.01155 0.4443 0.95395 0.0
N747 N 0.1226 0.51157 0.86127 0.0
C748 C 0.04369 0.45918 0.93595 0.0
C749 C 0.10114 0.49289 0.88805 0.0
N750 N 0.05136 0.40397 0.90641 0.0
N751 N 0.11106 0.54182 0.93224 0.0
H752 H 0.12965 0.50054 0.83597 0.0
H753 H 0.12984 0.53862 0.86241 0.0
H754 H 0.1056 0.55464 0.95704 0.0
H755 H 0.13611 0.553 0.91915 0.0
H756 H 0.03474 0.38967 0.92663 0.0
H757 H 0.06344 0.3887 0.88719 0.0
H758 H 0.99618 0.41993 0.94651 0.0
H759 H 0.99865 0.45757 0.97435 0.0
C760 C 0.54611 0.89034 0.94035 0.0
C761 C 0.57995 0.89753 0.91942 0.0
C762 C 0.58674 0.95974 0.93574 0.0
C763 C 0.55258 0.9526 0.95656 0.0
N764 N 0.49527 0.91191 0.9714 0.0
N765 N 0.62904 0.9389 0.89089 0.0
C766 C 0.5307 0.91827 0.9563 0.0
C767 C 0.59931 0.93224 0.91528 0.0
N768 N 0.52972 0.85658 0.94686 0.0
N769 N 0.60703 0.9929 0.93537 0.0
H770 H 0.63901 0.91934 0.87563 0.0
H771 H 0.6422 0.96377 0.88352 0.0
H772 H 0.59684 1.01433 0.9464 0.0
H773 H 0.63439 0.99922 0.92512 0.0
H774 H 0.50795 0.84956 0.96606 0.0
H775 H 0.53984 0.83527 0.93541 0.0
H776 H 0.47639 0.88874 0.96666 0.0
H777 H 0.48355 0.92985 0.98732 0.0
C778 C 0.88849 0.09271 0.48907 0.0
C779 C 0.89816 0.12621 0.50641 0.0
C780 C 0.9196 0.10025 0.56078 0.0
C781 C 0.91903 0.06889 0.53991 0.0
N782 N 0.8965 1.03251 0.48676 0.0
N783 N 0.927 0.16257 0.5574 0.0
C784 C 0.90137 0.06422 0.50476 0.0
C785 C 0.91477 0.13021 0.54198 0.0
N786 N 0.86587 0.08795 0.45863 0.0
N787 N 0.92285 0.10117 0.5986 0.0
H788 H 0.92478 0.18542 0.54409 0.0
H789 H 0.94264 0.16663 0.5817 0.0
H790 H 0.92081 0.07866 0.6139 0.0
H791 H 0.92137 0.1233 0.61502 0.0
H792 H 0.85501 0.06367 0.44678 0.0
H793 H 0.85522 0.1081 0.44692 0.0
H794 H 0.88902 1.02852 0.45892 0.0
H795 H 0.90013 1.01001 0.49998 0.0
C796 C 0.15095 0.6197 0.13534 0.0
C797 C 0.18594 0.60982 0.12601 0.0
C798 C 0.15261 0.56916 0.07743 0.0
C799 C 0.11726 0.57708 0.08898 0.0
N800 N 0.08296 0.60369 0.136 0.0
N801 N 0.21809 0.56994 0.09198 0.0
C802 C 0.11659 0.60074 0.11984 0.0
C803 C 0.18613 0.58311 0.098 0.0
N804 N 0.15042 0.6481 0.15822 0.0
N805 N 0.15447 0.54902 0.04599 0.0
H806 H 0.24271 0.57894 0.10656 0.0
H807 H 0.21926 0.54806 0.07512 0.0
H808 H 0.13089 0.53838 0.03049 0.0
H809 H 0.17959 0.54524 0.03354 0.0
H810 H 0.12655 0.65893 0.16288 0.0
H811 H 0.17461 0.6629 0.16971 0.0
H812 H 0.08045 0.61781 0.16066 0.0
H813 H 0.05778 0.58861 0.12715 0.0
C814 C 0.37321 0.4448 0.62734 0.0
C815 C 0.33932 0.45786 0.62373 0.0
C816 C 0.3738 0.50305 0.58177 0.0
C817 C 0.40671 0.48818 0.58297 0.0
N818 N 0.43549 0.4412 0.6029 0.0
N819 N 0.3069 0.49836 0.59513 0.0
C820 C 0.40586 0.45823 0.60498 0.0
C821 C 0.33962 0.48672 0.60023 0.0
N822 N 0.37432 0.41936 0.65233 0.0
N823 N 0.37555 0.53363 0.56376 0.0
H824 H 0.28217 0.4887 0.60966 0.0
H825 H 0.30352 0.51618 0.57512 0.0
H826 H 0.39967 0.54601 0.54986 0.0
H827 H 0.35434 0.54822 0.56484 0.0
H828 H 0.39898 0.41168 0.66005 0.0
H829 H 0.35086 0.4075 0.66748 0.0
H830 H 0.43523 0.41712 0.61456 0.0
H831 H 0.45951 0.44966 0.58687 0.0
C832 C 0.83505 0.69451 0.88611 0.0
C833 C 0.79928 0.67907 0.90048 0.0
C834 C 0.82806 0.63973 0.93759 0.0
C835 C 0.86402 0.6577 0.92629 0.0
N836 N 0.9027 0.70305 0.8916 0.0
N837 N 0.76094 0.63864 0.94102 0.0
C838 C 0.86778 0.68521 0.90083 0.0
C839 C 0.79552 0.65189 0.92631 0.0
N840 N 0.83756 0.71766 0.85794 0.0
N841 N 0.82512 0.61098 0.95899 0.0
H842 H 0.73643 0.64626 0.93253 0.0
H843 H 0.75655 0.62166 0.9631 0.0
H844 H 0.84834 0.60206 0.96887 0.0
H845 H 0.79989 0.59445 0.96492 0.0
H846 H 0.86228 0.72711 0.84344 0.0
H847 H 0.81425 0.72563 0.84696 0.0
H848 H 0.90748 0.72607 0.87701 0.0
H849 H 0.92734 0.69581 0.90031 0.0
C850 C 0.47407 0.86905 0.10179 0.0
C851 C 0.44571 0.86923 0.12976 0.0
C852 C 0.44549 0.93148 0.11392 0.0
C853 C 0.47658 0.93252 0.08829 0.0
N854 N 0.51892 0.89921 0.05739 0.0
N855 N 0.40685 0.90245 0.16459 0.0
C856 C 0.49015 0.90034 0.08224 0.0
C857 C 0.43231 0.90105 0.13634 0.0
N858 N 0.48542 0.83832 0.09308 0.0
N859 N 0.427 0.95884 0.11597 0.0
H860 H 0.39505 0.88078 0.17988 0.0
H861 H 0.39944 0.92545 0.17477 0.0
H862 H 0.43401 0.98071 0.09983 0.0
H863 H 0.40195 0.95842 0.13067 0.0
H864 H 0.50099 0.83405 0.06934 0.0
H865 H 0.47772 0.81605 0.10876 0.0
H866 H 0.5354 0.88011 0.05691 0.0
H867 H 0.52686 0.91748 0.03698 0.0
C868 C 0.08751 0.19172 0.59373 0.0
C869 C 0.07898 0.19835 0.63196 0.0
C870 C 0.03793 0.13954 0.63225 0.0
C871 C 0.0496 0.13161 0.5953 0.0
N872 N 0.09241 0.149 0.54418 0.0
N873 N 0.0506 0.17487 0.68916 0.0
C874 C 0.0762 0.1575 0.57697 0.0
C875 C 0.05534 0.17119 0.65154 0.0
N876 N 0.1054 0.21853 0.57272 0.0
N877 N 1.00895 0.11752 0.64867 0.0
H878 H 0.06301 0.19702 0.70431 0.0
H879 H 0.03731 0.15475 0.70582 0.0
H880 H 0.99523 0.09465 0.63566 0.0
H881 H 0.99618 0.12353 0.67361 0.0
H882 H 0.10885 0.21648 0.54393 0.0
H883 H 0.11344 0.24382 0.58343 0.0
H884 H 0.11484 0.16524 0.53147 0.0
H885 H 0.08619 0.1243 0.53159 0.0
C886 C 0.7305 0.41102 0.49844 0.0
C887 C 0.72632 0.37502 0.5049 0.0
C888 C 0.66063 0.37391 0.52167 0.0
C889 C 0.66274 0.40625 0.50438 0.0
N890 N 0.70064 0.45509 0.47314 0.0
N891 N 0.68503 0.32085 0.52083 0.0
C892 C 0.69808 0.42523 0.4926 0.0
C893 C 0.69096 0.35608 0.51696 0.0
N894 N 0.76551 0.43099 0.49616 0.0
N895 N 0.6296 0.36014 0.54216 0.0
H896 H 0.70559 0.30586 0.51645 0.0
H897 H 0.65846 0.30598 0.52548 0.0
H898 H 0.60726 0.37319 0.54675 0.0
H899 H 0.6281 0.3379 0.55782 0.0
H900 H 0.77013 0.45797 0.49406 0.0
H901 H 0.7896 0.42068 0.50039 0.0
H902 H 0.72565 0.46777 0.46112 0.0
H903 H 0.67745 0.46537 0.46568 0.0
loop_
_geom_bond_atom_site_label_1
_geom_bond_atom_site_label_2
_geom_bond_distance
_geom_bond_site_symmetry_2
_ccdc_geom_bond_type
C0 C1 1.386 . S
C0 C2 1.397 . S
C0 H24 0.931 . S
C1 C0 1.386 . S
C1 C5 1.397 . S
C2 C0 1.397 . S
C2 C3 1.384 . S
C2 H25 0.930 . S
C3 C2 1.384 . S
C3 C4 1.377 . S
C3 C6 1.481 . S
C4 C3 1.377 . S
C4 C5 1.389 . S
C4 H26 0.929 . S
C5 C1 1.397 . S
C5 C4 1.389 . S
C5 H27 0.931 . S
C6 C3 1.481 . S
C6 C7 1.387 . S
C6 C11 1.390 . S
C7 C6 1.387 . S
C7 C8 1.401 . S
C7 H28 0.930 . S
C8 C7 1.401 . S
C8 C9 1.376 . S
C8 C17 1.511 . S
C9 C8 1.376 . S
C9 C10 1.392 . S
C9 H30 0.931 . S
C10 C9 1.392 . S
C10 C11 1.361 . S
C10 C12 1.500 . S
C11 C6 1.390 . S
C11 C10 1.361 . S
C11 H29 0.931 . S
C12 C10 1.500 . S
C12 C13 1.371 . S
C12 C14 1.365 . S
C13 C12 1.371 . S
C13 C23 1.386 . S
C13 H31 0.931 . S
C14 C12 1.365 . S
C14 C15 1.409 . S
C14 H32 0.929 . S
C15 C14 1.409 . S
C15 C16 1.380 . S
C15 H33 0.930 . S
C16 C15 1.380 . S
C16 C23 1.357 . S
C17 C8 1.511 . S
C17 C18 1.341 . S
C17 C19 1.371 . S
C18 C17 1.341 . S
C18 C22 1.394 . S
C18 H34 0.930 . S
C19 C17 1.371 . S
C19 C20 1.392 . S
C19 H35 0.931 . S
C20 C19 1.392 . S
C20 C21 1.331 . S
C20 H38 0.932 . S
C21 C20 1.331 . S
C21 C22 1.336 . S
C22 C18 1.394 . S
C22 C21 1.336 . S
C22 H37 0.929 . S
C23 C13 1.386 . S
C23 C16 1.357 . S
C23 H36 0.928 . S
H24 C0 0.931 . S
H25 C2 0.930 . S
H26 C4 0.929 . S
H27 C5 0.931 . S
H28 C7 0.930 . S
H29 C11 0.931 . S
H30 C9 0.931 . S
H31 C13 0.931 . S
H32 C14 0.929 . S
H33 C15 0.930 . S
H34 C18 0.930 . S
H35 C19 0.931 . S
H36 C23 0.928 . S
H37 C22 0.929 . S
H38 C20 0.932 . S
C39 C40 1.386 . S
C39 C41 1.397 . S
C39 H63 0.931 . S
C40 C39 1.386 . S
C40 C44 1.397 . S
C41 C39 1.397 . S
C41 C42 1.384 . S
C41 H64 0.930 . S
C42 C41 1.384 . S
C42 C43 1.377 . S
C42 C45 1.481 . S
C43 C42 1.377 . S
C43 C44 1.389 . S
C43 H65 0.929 . S
C44 C40 1.397 . S
C44 C43 1.389 . S
C44 H66 0.931 . S
C45 C42 1.481 . S
C45 C46 1.387 . S
C45 C50 1.390 . S
C46 C45 1.387 . S
C46 C47 1.401 . S
C46 H67 0.930 . S
C47 C46 1.401 . S
C47 C48 1.376 . S
C47 C56 1.511 . S
C48 C47 1.376 . S
C48 C49 1.392 . S
C48 H69 0.931 . S
C49 C48 1.392 . S
C49 C50 1.361 . S
C49 C51 1.500 . S
C50 C45 1.390 . S
C50 C49 1.361 . S
C50 H68 0.931 . S
C51 C49 1.500 . S
C51 C52 1.371 . S
C51 C53 1.365 . S
C52 C51 1.371 . S
C52 C62 1.386 . S
C52 H70 0.931 . S
C53 C51 1.365 . S
C53 C54 1.409 . S
C53 H71 0.929 . S
C54 C53 1.409 . S
C54 C55 1.380 . S
C54 H72 0.930 . S
C55 C54 1.380 . S
C55 C62 1.357 . S
C56 C47 1.511 . S
C56 C57 1.341 . S
C56 C58 1.371 . S
C57 C56 1.341 . S
C57 C61 1.394 . S
C57 H73 0.930 . S
C58 C56 1.371 . S
C58 C59 1.392 . S
C58 H74 0.931 . S
C59 C58 1.392 . S
C59 C60 1.331 . S
C59 H77 0.932 . S
C60 C59 1.331 . S
C60 C61 1.336 . S
C61 C57 1.394 . S
C61 C60 1.336 . S
C61 H76 0.929 . S
C62 C52 1.386 . S
C62 C55 1.357 . S
C62 H75 0.928 . S
H63 C39 0.931 . S
H64 C41 0.930 . S
H65 C43 0.929 . S
H66 C44 0.931 . S
H67 C46 0.930 . S
H68 C50 0.931 . S
H69 C48 0.931 . S
H70 C52 0.931 . S
H71 C53 0.929 . S
H72 C54 0.930 . S
H73 C57 0.930 . S
H74 C58 0.931 . S
H75 C62 0.928 . S
H76 C61 0.929 . S
H77 C59 0.932 . S
C78 C79 1.386 . S
C78 C80 1.397 . S
C78 H102 0.931 . S
C79 C78 1.386 . S
C79 C83 1.397 . S
C80 C78 1.397 . S
C80 C81 1.384 . S
C80 H103 0.930 . S
C81 C80 1.384 . S
C81 C82 1.377 . S
C81 C84 1.481 . S
C82 C81 1.377 . S
C82 C83 1.389 . S
C82 H104 0.929 . S
C83 C79 1.397 . S
C83 C82 1.389 . S
C83 H105 0.931 . S
C84 C81 1.481 . S
C84 C85 1.387 . S
C84 C89 1.390 . S
C85 C84 1.387 . S
C85 C86 1.401 . S
C85 H106 0.930 . S
C86 C85 1.401 . S
C86 C87 1.376 . S
C86 C95 1.511 . S
C87 C86 1.376 . S
C87 C88 1.392 . S
C87 H108 0.931 . S
C88 C87 1.392 . S
C88 C89 1.361 . S
C88 C90 1.500 . S
C89 C84 1.390 . S
C89 C88 1.361 . S
C89 H107 0.931 . S
C90 C88 1.500 . S
C90 C91 1.371 . S
C90 C92 1.365 . S
C91 C90 1.371 . S
C91 C101 1.386 . S
C91 H109 0.931 . S
C92 C90 1.365 . S
C92 C93 1.409 . S
C92 H110 0.929 . S
C93 C92 1.409 . S
C93 C94 1.380 . S
C93 H111 0.930 . S
C94 C93 1.380 . S
C94 C101 1.357 . S
C95 C86 1.511 . S
C95 C96 1.341 . S
C95 C97 1.371 . S
C96 C95 1.341 . S
C96 C100 1.394 . S
C96 H112 0.930 . S
C97 C95 1.371 . S
C97 C98 1.392 . S
C97 H113 0.931 . S
C98 C97 1.392 . S
C98 C99 1.331 . S
C98 H116 0.932 . S
C99 C98 1.331 . S
C99 C100 1.336 . S
C100 C96 1.394 . S
C100 C99 1.336 . S
C100 H115 0.929 . S
C101 C91 1.386 . S
C101 C94 1.357 . S
C101 H114 0.928 . S
H102 C78 0.931 . S
H103 C80 0.930 . S
H104 C82 0.929 . S
H105 C83 0.931 . S
H106 C85 0.930 . S
H107 C89 0.931 . S
H108 C87 0.931 . S
H109 C91 0.931 . S
H110 C92 0.929 . S
H111 C93 0.930 . S
H112 C96 0.930 . S
H113 C97 0.931 . S
H114 C101 0.928 . S
H115 C100 0.929 . S
H116 C98 0.932 . S
C117 C118 1.386 . S
C117 C119 1.397 . S
C117 H141 0.931 . S
C118 C117 1.386 . S
C118 C122 1.397 . S
C119 C117 1.397 . S
C119 C120 1.384 . S
C119 H142 0.930 . S
C120 C119 1.384 . S
C120 C121 1.377 . S
C120 C123 1.481 . S
C121 C120 1.377 . S
C121 C122 1.389 . S
C121 H143 0.929 . S
C122 C118 1.397 . S
C122 C121 1.389 . S
C122 H144 0.931 . S
C123 C120 1.481 . S
C123 C124 1.387 . S
C123 C128 1.390 . S
C124 C123 1.387 . S
C124 C125 1.401 . S
C124 H145 0.930 . S
C125 C124 1.401 . S
C125 C126 1.376 . S
C125 C134 1.511 . S
C126 C125 1.376 . S
C126 C127 1.392 . S
C126 H147 0.931 . S
C127 C126 1.392 . S
C127 C128 1.361 . S
C127 C129 1.500 . S
C128 C123 1.390 . S
C128 C127 1.361 . S
C128 H146 0.931 . S
C129 C127 1.500 . S
C129 C130 1.371 . S
C129 C131 1.365 . S
C130 C129 1.371 . S
C130 C140 1.386 . S
C130 H148 0.931 . S
C131 C129 1.365 . S
C131 C132 1.409 . S
C131 H149 0.929 . S
C132 C131 1.409 . S
C132 C133 1.380 . S
C132 H150 0.930 . S
C133 C132 1.380 . S
C133 C140 1.357 . S
C134 C125 1.511 . S
C134 C135 1.341 . S
C134 C136 1.371 . S
C135 C134 1.341 . S
C135 C139 1.394 . S
C135 H151 0.930 . S
C136 C134 1.371 . S
C136 C137 1.392 . S
C136 H152 0.931 . S
C137 C136 1.392 . S
C137 C138 1.331 . S
C137 H155 0.932 . S
C138 C137 1.331 . S
C138 C139 1.336 . S
C139 C135 1.394 . S
C139 C138 1.336 . S
C139 H154 0.929 . S
C140 C130 1.386 . S
C140 C133 1.357 . S
C140 H153 0.928 . S
H141 C117 0.931 . S
H142 C119 0.930 . S
H143 C121 0.929 . S
H144 C122 0.931 . S
H145 C124 0.930 . S
H146 C128 0.931 . S
H147 C126 0.931 . S
H148 C130 0.931 . S
H149 C131 0.929 . S
H150 C132 0.930 . S
H151 C135 0.930 . S
H152 C136 0.931 . S
H153 C140 0.928 . S
H154 C139 0.929 . S
H155 C137 0.932 . S
C156 C157 1.386 . S
C156 C158 1.397 . S
C156 H180 0.931 . S
C157 C156 1.386 . S
C157 C161 1.397 . S
C158 C156 1.397 . S
C158 C159 1.384 . S
C158 H181 0.930 . S
C159 C158 1.384 . S
C159 C160 1.377 . S
C159 C162 1.481 . S
C160 C159 1.377 . S
C160 C161 1.389 . S
C160 H182 0.929 . S
C161 C157 1.397 . S
C161 C160 1.389 . S
C161 H183 0.931 . S
C162 C159 1.481 . S
C162 C163 1.387 . S
C162 C167 1.390 . S
C163 C162 1.387 . S
C163 C164 1.401 . S
C163 H184 0.930 . S
C164 C163 1.401 . S
C164 C165 1.376 . S
C164 C173 1.511 . S
C165 C164 1.376 . S
C165 C166 1.392 . S
C165 H186 0.931 . S
C166 C165 1.392 . S
C166 C167 1.361 . S
C166 C168 1.500 . S
C167 C162 1.390 . S
C167 C166 1.361 . S
C167 H185 0.931 . S
C168 C166 1.500 . S
C168 C169 1.371 . S
C168 C170 1.365 . S
C169 C168 1.371 . S
C169 C179 1.386 . S
C169 H187 0.931 . S
C170 C168 1.365 . S
C170 C171 1.409 . S
C170 H188 0.929 . S
C171 C170 1.409 . S
C171 C172 1.380 . S
C171 H189 0.930 . S
C172 C171 1.380 . S
C172 C179 1.357 . S
C173 C164 1.511 . S
C173 C174 1.341 . S
C173 C175 1.371 . S
C174 C173 1.341 . S
C174 C178 1.394 . S
C174 H190 0.930 . S
C175 C173 1.371 . S
C175 C176 1.392 . S
C175 H191 0.931 . S
C176 C175 1.392 . S
C176 C177 1.331 . S
C176 H194 0.932 . S
C177 C176 1.331 . S
C177 C178 1.336 . S
C178 C174 1.394 . S
C178 C177 1.336 . S
C178 H193 0.929 . S
C179 C169 1.386 . S
C179 C172 1.357 . S
C179 H192 0.928 . S
H180 C156 0.931 . S
H181 C158 0.930 . S
H182 C160 0.929 . S
H183 C161 0.931 . S
H184 C163 0.930 . S
H185 C167 0.931 . S
H186 C165 0.931 . S
H187 C169 0.931 . S
H188 C170 0.929 . S
H189 C171 0.930 . S
H190 C174 0.930 . S
H191 C175 0.931 . S
H192 C179 0.928 . S
H193 C178 0.929 . S
H194 C176 0.932 . S
C195 C196 1.386 . S
C195 C197 1.397 . S
C195 H219 0.931 . S
C196 C195 1.386 . S
C196 C200 1.397 . S
C197 C195 1.397 . S
C197 C198 1.384 . S
C197 H220 0.930 . S
C198 C197 1.384 . S
C198 C199 1.377 . S
C198 C201 1.481 . S
C199 C198 1.377 . S
C199 C200 1.389 . S
C199 H221 0.929 . S
C200 C196 1.397 . S
C200 C199 1.389 . S
C200 H222 0.931 . S
C201 C198 1.481 . S
C201 C202 1.387 . S
C201 C206 1.390 . S
C202 C201 1.387 . S
C202 C203 1.401 . S
C202 H223 0.930 . S
C203 C202 1.401 . S
C203 C204 1.376 . S
C203 C212 1.511 . S
C204 C203 1.376 . S
C204 C205 1.392 . S
C204 H225 0.931 . S
C205 C204 1.392 . S
C205 C206 1.361 . S
C205 C207 1.500 . S
C206 C201 1.390 . S
C206 C205 1.361 . S
C206 H224 0.931 . S
C207 C205 1.500 . S
C207 C208 1.371 . S
C207 C209 1.365 . S
C208 C207 1.371 . S
C208 C218 1.386 . S
C208 H226 0.931 . S
C209 C207 1.365 . S
C209 C210 1.409 . S
C209 H227 0.929 . S
C210 C209 1.409 . S
C210 C211 1.380 . S
C210 H228 0.930 . S
C211 C210 1.380 . S
C211 C218 1.357 . S
C212 C203 1.511 . S
C212 C213 1.341 . S
C212 C214 1.371 . S
C213 C212 1.341 . S
C213 C217 1.394 . S
C213 H229 0.930 . S
C214 C212 1.371 . S
C214 C215 1.392 . S
C214 H230 0.931 . S
C215 C214 1.392 . S
C215 C216 1.331 . S
C215 H233 0.932 . S
C216 C215 1.331 . S
C216 C217 1.336 . S
C217 C213 1.394 . S
C217 C216 1.336 . S
C217 H232 0.929 . S
C218 C208 1.386 . S
C218 C211 1.357 . S
C218 H231 0.928 . S
H219 C195 0.931 . S
H220 C197 0.930 . S
H221 C199 0.929 . S
H222 C200 0.931 . S
H223 C202 0.930 . S
H224 C206 0.931 . S
H225 C204 0.931 . S
H226 C208 0.931 . S
H227 C209 0.929 . S
H228 C210 0.930 . S
H229 C213 0.930 . S
H230 C214 0.931 . S
H231 C218 0.928 . S
H232 C217 0.929 . S
H233 C215 0.932 . S
C234 C235 1.386 . S
C234 C236 1.397 . S
C234 H258 0.931 . S
C235 C234 1.386 . S
C235 C239 1.397 . S
C236 C234 1.397 . S
C236 C237 1.384 . S
C236 H259 0.930 . S
C237 C236 1.384 . S
C237 C238 1.377 . S
C237 C240 1.481 . S
C238 C237 1.377 . S
C238 C239 1.389 . S
C238 H260 0.929 . S
C239 C235 1.397 . S
C239 C238 1.389 . S
C239 H261 0.931 . S
C240 C237 1.481 . S
C240 C241 1.387 . S
C240 C245 1.390 . S
C241 C240 1.387 . S
C241 C242 1.401 . S
C241 H262 0.930 . S
C242 C241 1.401 . S
C242 C243 1.376 . S
C242 C251 1.511 . S
C243 C242 1.376 . S
C243 C244 1.392 . S
C243 H264 0.931 . S
C244 C243 1.392 . S
C244 C245 1.361 . S
C244 C246 1.500 . S
C245 C240 1.390 . S
C245 C244 1.361 . S
C245 H263 0.931 . S
C246 C244 1.500 . S
C246 C247 1.371 . S
C246 C248 1.365 . S
C247 C246 1.371 . S
C247 C257 1.386 . S
C247 H265 0.931 . S
C248 C246 1.365 . S
C248 C249 1.409 . S
C248 H266 0.929 . S
C249 C248 1.409 . S
C249 C250 1.380 . S
C249 H267 0.930 . S
C250 C249 1.380 . S
C250 C257 1.357 . S
C251 C242 1.511 . S
C251 C252 1.341 . S
C251 C253 1.371 . S
C252 C251 1.341 . S
C252 C256 1.394 . S
C252 H268 0.930 . S
C253 C251 1.371 . S
C253 C254 1.392 . S
C253 H269 0.931 . S
C254 C253 1.392 . S
C254 C255 1.331 . S
C254 H272 0.932 . S
C255 C254 1.331 . S
C255 C256 1.336 . S
C256 C252 1.394 . S
C256 C255 1.336 . S
C256 H271 0.929 . S
C257 C247 1.386 . S
C257 C250 1.357 . S
C257 H270 0.928 . S
H258 C234 0.931 . S
H259 C236 0.930 . S
H260 C238 0.929 . S
H261 C239 0.931 . S
H262 C241 0.930 . S
H263 C245 0.931 . S
H264 C243 0.931 . S
H265 C247 0.931 . S
H266 C248 0.929 . S
H267 C249 0.930 . S
H268 C252 0.930 . S
H269 C253 0.931 . S
H270 C257 0.928 . S
H271 C256 0.929 . S
H272 C254 0.932 . S
C273 C274 1.386 . S
C273 C275 1.397 . S
C273 H297 0.931 . S
C274 C273 1.386 . S
C274 C278 1.397 . S
C275 C273 1.397 . S
C275 C276 1.384 . S
C275 H298 0.930 . S
C276 C275 1.384 . S
C276 C277 1.377 . S
C276 C279 1.481 . S
C277 C276 1.377 . S
C277 C278 1.389 . S
C277 H299 0.929 . S
C278 C274 1.397 . S
C278 C277 1.389 . S
C278 H300 0.931 . S
C279 C276 1.481 . S
C279 C280 1.387 . S
C279 C284 1.390 . S
C280 C279 1.387 . S
C280 C281 1.401 . S
C280 H301 0.930 . S
C281 C280 1.401 . S
C281 C282 1.376 . S
C281 C290 1.511 . S
C282 C281 1.376 . S
C282 C283 1.392 . S
C282 H303 0.931 . S
C283 C282 1.392 . S
C283 C284 1.361 . S
C283 C285 1.500 . S
C284 C279 1.390 . S
C284 C283 1.361 . S
C284 H302 0.931 . S
C285 C283 1.500 . S
C285 C286 1.371 . S
C285 C287 1.365 . S
C286 C285 1.371 . S
C286 C296 1.386 . S
C286 H304 0.931 . S
C287 C285 1.365 . S
C287 C288 1.409 . S
C287 H305 0.929 . S
C288 C287 1.409 . S
C288 C289 1.380 . S
C288 H306 0.930 . S
C289 C288 1.380 . S
C289 C296 1.357 . S
C290 C281 1.511 . S
C290 C291 1.341 . S
C290 C292 1.371 . S
C291 C290 1.341 . S
C291 C295 1.394 . S
C291 H307 0.930 . S
C292 C290 1.371 . S
C292 C293 1.392 . S
C292 H308 0.931 . S
C293 C292 1.392 . S
C293 C294 1.331 . S
C293 H311 0.932 . S
C294 C293 1.331 . S
C294 C295 1.336 . S
C295 C291 1.394 . S
C295 C294 1.336 . S
C295 H310 0.929 . S
C296 C286 1.386 . S
C296 C289 1.357 . S
C296 H309 0.928 . S
H297 C273 0.931 . S
H298 C275 0.930 . S
H299 C277 0.929 . S
H300 C278 0.931 . S
H301 C280 0.930 . S
H302 C284 0.931 . S
H303 C282 0.931 . S
H304 C286 0.931 . S
H305 C287 0.929 . S
H306 C288 0.930 . S
H307 C291 0.930 . S
H308 C292 0.931 . S
H309 C296 0.928 . S
H310 C295 0.929 . S
H311 C293 0.932 . S
Ho312 C315 2.811 . S
Ho312 O332 2.322 . S
Ho312 O334 2.378 . S
Ho312 O335 2.524 . S
Ho312 O336 2.381 1_545 S
Ho312 O337 2.669 1_545 S
Ho312 O339 2.346 1_445 S
Ho312 O343 2.305 1_455 S
Ho313 C324 2.811 . S
Ho313 O333 2.346 1_665 S
Ho313 O337 2.305 1_655 S
Ho313 O338 2.322 . S
Ho313 O340 2.378 . S
Ho313 O341 2.524 . S
Ho313 O342 2.381 1_565 S
Ho313 O343 2.669 1_565 S
C314 O332 1.259 . S
C314 O333 1.268 . S
C315 Ho312 2.811 . S
C315 C316 1.488 . S
C315 O334 1.215 . S
C315 O335 1.289 . S
C316 C315 1.488 . S
C316 C317 1.348 . S
C316 C321 1.413 . S
C317 C316 1.348 . S
C317 C318 1.442 . S
C317 H344 0.930 . S
C318 C317 1.442 . S
C318 C319 1.381 . S
C318 H345 0.931 . S
C319 C318 1.381 . S
C319 C320 1.321 . S
C320 C319 1.321 . S
C320 C321 1.403 . S
C320 H346 0.934 . S
C321 C316 1.413 . S
C321 C320 1.403 . S
C321 H347 0.930 . S
C322 O336 1.275 . S
C322 O337 1.256 . S
C323 O338 1.259 . S
C323 O339 1.268 . S
C324 Ho313 2.811 . S
C324 C325 1.488 . S
C324 O340 1.215 . S
C324 O341 1.289 . S
C325 C324 1.488 . S
C325 C326 1.348 . S
C325 C330 1.413 . S
C326 C325 1.348 . S
C326 C327 1.442 . S
C326 H348 0.930 . S
C327 C326 1.442 . S
C327 C328 1.381 . S
C327 H349 0.931 . S
C328 C327 1.381 . S
C328 C329 1.321 . S
C329 C328 1.321 . S
C329 C330 1.403 . S
C329 H350 0.934 . S
C330 C325 1.413 . S
C330 C329 1.403 . S
C330 H351 0.930 . S
C331 O342 1.275 . S
C331 O343 1.256 . S
O332 Ho312 2.322 . S
O332 C314 1.259 . S
O333 Ho313 2.346 1_445 S
O333 C314 1.268 . S
O334 Ho312 2.378 . S
O334 C315 1.215 . S
O335 Ho312 2.524 . S
O335 C315 1.289 . S
O336 Ho312 2.381 1_565 S
O336 C322 1.275 . S
O337 Ho312 2.669 1_565 S
O337 Ho313 2.305 1_455 S
O337 C322 1.256 . S
O338 Ho313 2.322 . S
O338 C323 1.259 . S
O339 Ho312 2.346 1_665 S
O339 C323 1.268 . S
O340 Ho313 2.378 . S
O340 C324 1.215 . S
O341 Ho313 2.524 . S
O341 C324 1.289 . S
O342 Ho313 2.381 1_545 S
O342 C331 1.275 . S
O343 Ho312 2.305 1_655 S
O343 Ho313 2.669 1_545 S
O343 C331 1.256 . S
H344 C317 0.930 . S
H345 C318 0.931 . S
H346 C320 0.934 . S
H347 C321 0.930 . S
H348 C326 0.930 . S
H349 C327 0.931 . S
H350 C329 0.934 . S
H351 C330 0.930 . S
Ho352 C355 2.797 1_565 S
Ho352 O372 2.306 1_565 S
Ho352 O374 2.376 1_565 S
Ho352 O375 2.499 1_565 S
Ho352 O376 2.402 . S
Ho352 O377 2.679 . S
Ho352 O379 2.363 1_554 S
Ho352 O383 2.284 1_564 S
Ho353 C364 2.811 1_545 S
Ho353 O373 2.346 1_556 S
Ho353 O377 2.305 1_546 S
Ho353 O378 2.322 1_545 S
Ho353 O380 2.378 1_545 S
Ho353 O381 2.524 1_545 S
Ho353 O382 2.381 . S
Ho353 O383 2.669 . S
C354 O372 1.259 . S
C354 O373 1.268 . S
C355 Ho352 2.797 1_545 S
C355 C356 1.488 . S
C355 O374 1.215 . S
C355 O375 1.289 . S
C356 C355 1.488 . S
C356 C357 1.348 . S
C356 C361 1.413 . S
C357 C356 1.348 . S
C357 C358 1.442 . S
C357 H384 0.930 . S
C358 C357 1.442 . S
C358 C359 1.381 . S
C358 H385 0.931 . S
C359 C358 1.381 . S
C359 C360 1.321 . S
C360 C359 1.321 . S
C360 C361 1.403 . S
C360 H386 0.934 . S
C361 C356 1.413 . S
C361 C360 1.403 . S
C361 H387 0.930 . S
C362 O376 1.275 . S
C362 O377 1.256 . S
C363 O378 1.259 . S
C363 O379 1.268 . S
C364 Ho353 2.811 1_565 S
C364 C365 1.488 . S
C364 O380 1.215 . S
C364 O381 1.289 . S
C365 C364 1.488 . S
C365 C366 1.348 . S
C365 C370 1.413 . S
C366 C365 1.348 . S
C366 C367 1.442 . S
C366 H388 0.930 . S
C367 C366 1.442 . S
C367 C368 1.381 . S
C367 H389 0.931 . S
C368 C367 1.381 . S
C368 C369 1.321 . S
C369 C368 1.321 . S
C369 C370 1.403 . S
C369 H390 0.934 . S
C370 C365 1.413 . S
C370 C369 1.403 . S
C370 H391 0.930 . S
C371 O382 1.275 . S
C371 O383 1.256 . S
O372 Ho352 2.306 1_545 S
O372 C354 1.259 . S
O373 Ho353 2.346 1_554 S
O373 C354 1.268 . S
O374 Ho352 2.376 1_545 S
O374 C355 1.215 . S
O375 Ho352 2.499 1_545 S
O375 C355 1.289 . S
O376 Ho352 2.402 . S
O376 C362 1.275 . S
O377 Ho352 2.679 . S
O377 Ho353 2.305 1_564 S
O377 C362 1.256 . S
O378 Ho353 2.322 1_565 S
O378 C363 1.259 . S
O379 Ho352 2.363 1_556 S
O379 C363 1.268 . S
O380 Ho353 2.378 1_565 S
O380 C364 1.215 . S
O381 Ho353 2.524 1_565 S
O381 C364 1.289 . S
O382 Ho353 2.381 . S
O382 C371 1.275 . S
O383 Ho352 2.284 1_546 S
O383 Ho353 2.669 . S
O383 C371 1.256 . S
H384 C357 0.930 . S
H385 C358 0.931 . S
H386 C360 0.934 . S
H387 C361 0.930 . S
H388 C366 0.930 . S
H389 C367 0.931 . S
H390 C369 0.934 . S
H391 C370 0.930 . S
Ho392 C395 2.811 . S
Ho392 O412 2.322 . S
Ho392 O414 2.378 . S
Ho392 O415 2.524 . S
Ho392 O416 2.381 . S
Ho392 O417 2.669 . S
Ho392 O419 2.346 . S
Ho392 O423 2.305 . S
Ho393 C404 2.811 . S
Ho393 O413 2.346 . S
Ho393 O417 2.305 . S
Ho393 O418 2.322 . S
Ho393 O420 2.378 . S
Ho393 O421 2.524 . S
Ho393 O422 2.381 . S
Ho393 O423 2.669 . S
C394 O412 1.259 . S
C394 O413 1.268 . S
C395 Ho392 2.811 . S
C395 C396 1.488 . S
C395 O414 1.215 . S
C395 O415 1.289 . S
C396 C395 1.488 . S
C396 C397 1.348 . S
C396 C401 1.413 . S
C397 C396 1.348 . S
C397 C398 1.442 . S
C397 H424 0.930 . S
C398 C397 1.442 . S
C398 C399 1.381 . S
C398 H425 0.931 . S
C399 C398 1.381 . S
C399 C400 1.321 . S
C400 C399 1.321 . S
C400 C401 1.403 . S
C400 H426 0.934 . S
C401 C396 1.413 . S
C401 C400 1.403 . S
C401 H427 0.930 . S
C402 O416 1.275 . S
C402 O417 1.256 . S
C403 O418 1.259 . S
C403 O419 1.268 . S
C404 Ho393 2.811 . S
C404 C405 1.488 . S
C404 O420 1.215 . S
C404 O421 1.289 . S
C405 C404 1.488 . S
C405 C406 1.348 . S
C405 C410 1.413 . S
C406 C405 1.348 . S
C406 C407 1.442 . S
C406 H428 0.930 . S
C407 C406 1.442 . S
C407 C408 1.381 . S
C407 H429 0.931 . S
C408 C407 1.381 . S
C408 C409 1.321 . S
C409 C408 1.321 . S
C409 C410 1.403 . S
C409 H430 0.934 . S
C410 C405 1.413 . S
C410 C409 1.403 . S
C410 H431 0.930 . S
C411 O422 1.275 . S
C411 O423 1.256 . S
O412 Ho392 2.322 . S
O412 C394 1.259 . S
O413 Ho393 2.346 . S
O413 C394 1.268 . S
O414 Ho392 2.378 . S
O414 C395 1.215 . S
O415 Ho392 2.524 . S
O415 C395 1.289 . S
O416 Ho392 2.381 . S
O416 C402 1.275 . S
O417 Ho392 2.669 . S
O417 Ho393 2.305 . S
O417 C402 1.256 . S
O418 Ho393 2.322 . S
O418 C403 1.259 . S
O419 Ho392 2.346 . S
O419 C403 1.268 . S
O420 Ho393 2.378 . S
O420 C404 1.215 . S
O421 Ho393 2.524 . S
O421 C404 1.289 . S
O422 Ho393 2.381 . S
O422 C411 1.275 . S
O423 Ho392 2.305 . S
O423 Ho393 2.669 . S
O423 C411 1.256 . S
H424 C397 0.930 . S
H425 C398 0.931 . S
H426 C400 0.934 . S
H427 C401 0.930 . S
H428 C406 0.930 . S
H429 C407 0.931 . S
H430 C409 0.934 . S
H431 C410 0.930 . S
Ho432 C435 2.811 . S
Ho432 O452 2.322 . S
Ho432 O454 2.378 . S
Ho432 O455 2.524 . S
Ho432 O456 2.381 1_455 S
Ho432 O457 2.669 1_455 S
Ho432 O459 2.346 1_454 S
Ho432 O463 2.305 1_554 S
Ho433 C444 2.811 . S
Ho433 O453 2.346 1_656 S
Ho433 O457 2.305 1_556 S
Ho433 O458 2.322 . S
Ho433 O460 2.378 . S
Ho433 O461 2.524 . S
Ho433 O462 2.381 1_655 S
Ho433 O463 2.669 1_655 S
C434 O452 1.259 . S
C434 O453 1.268 . S
C435 Ho432 2.811 . S
C435 C436 1.488 . S
C435 O454 1.215 . S
C435 O455 1.289 . S
C436 C435 1.488 . S
C436 C437 1.348 . S
C436 C441 1.413 . S
C437 C436 1.348 . S
C437 C438 1.442 . S
C437 H464 0.930 . S
C438 C437 1.442 . S
C438 C439 1.381 . S
C438 H465 0.931 . S
C439 C438 1.381 . S
C439 C440 1.321 . S
C440 C439 1.321 . S
C440 C441 1.403 . S
C440 H466 0.934 . S
C441 C436 1.413 . S
C441 C440 1.403 . S
C441 H467 0.930 . S
C442 O456 1.275 . S
C442 O457 1.256 . S
C443 O458 1.259 . S
C443 O459 1.268 . S
C444 Ho433 2.811 . S
C444 C445 1.488 . S
C444 O460 1.215 . S
C444 O461 1.289 . S
C445 C444 1.488 . S
C445 C446 1.348 . S
C445 C450 1.413 . S
C446 C445 1.348 . S
C446 C447 1.442 . S
C446 H468 0.930 . S
C447 C446 1.442 . S
C447 C448 1.381 . S
C447 H469 0.931 . S
C448 C447 1.381 . S
C448 C449 1.321 . S
C449 C448 1.321 . S
C449 C450 1.403 . S
C449 H470 0.934 . S
C450 C445 1.413 . S
C450 C449 1.403 . S
C450 H471 0.930 . S
C451 O462 1.275 . S
C451 O463 1.256 . S
O452 Ho432 2.322 . S
O452 C434 1.259 . S
O453 Ho433 2.346 1_454 S
O453 C434 1.268 . S
O454 Ho432 2.378 . S
O454 C435 1.215 . S
O455 Ho432 2.524 . S
O455 C435 1.289 . S
O456 Ho432 2.381 1_655 S
O456 C442 1.275 . S
O457 Ho432 2.669 1_655 S
O457 Ho433 2.305 1_554 S
O457 C442 1.256 . S
O458 Ho433 2.322 . S
O458 C443 1.259 . S
O459 Ho432 2.346 1_656 S
O459 C443 1.268 . S
O460 Ho433 2.378 . S
O460 C444 1.215 . S
O461 Ho433 2.524 . S
O461 C444 1.289 . S
O462 Ho433 2.381 1_455 S
O462 C451 1.275 . S
O463 Ho432 2.305 1_556 S
O463 Ho433 2.669 1_455 S
O463 C451 1.256 . S
H464 C437 0.930 . S
H465 C438 0.931 . S
H466 C440 0.934 . S
H467 C441 0.930 . S
H468 C446 0.930 . S
H469 C447 0.931 . S
H470 C449 0.934 . S
H471 C450 0.930 . S
C472 C473 1.363 . S
C472 C478 1.379 . S
C472 N480 1.356 . S
C473 C472 1.363 . S
C473 C479 1.363 . S
C474 C475 1.363 . S
C474 C479 1.379 . S
C474 N481 1.356 . S
C475 C474 1.363 . S
C475 C478 1.363 . S
N476 C478 1.356 . S
N476 H488 0.984 . S
N476 H489 0.985 . S
N477 C479 1.356 . S
N477 H482 0.984 . S
N477 H483 0.985 . S
C478 C472 1.379 . S
C478 C475 1.363 . S
C478 N476 1.356 . S
C479 C473 1.363 . S
C479 C474 1.379 . S
C479 N477 1.356 . S
N480 C472 1.356 . S
N480 H486 0.984 . S
N480 H487 0.984 . S
N481 C474 1.356 . S
N481 H484 0.984 . S
N481 H485 0.985 . S
H482 N477 0.984 . S
H483 N477 0.985 . S
H484 N481 0.984 . S
H485 N481 0.985 . S
H486 N480 0.984 . S
H487 N480 0.984 . S
H488 N476 0.984 . S
H489 N476 0.985 . S
C490 C491 1.363 . S
C490 C496 1.379 . S
C490 N498 1.356 . S
C491 C490 1.363 . S
C491 C497 1.363 . S
C492 C493 1.363 . S
C492 C497 1.379 . S
C492 N499 1.356 . S
C493 C492 1.363 . S
C493 C496 1.363 . S
N494 C496 1.356 . S
N494 H506 0.984 . S
N494 H507 0.985 . S
N495 C497 1.356 . S
N495 H500 0.984 . S
N495 H501 0.985 . S
C496 C490 1.379 . S
C496 C493 1.363 . S
C496 N494 1.356 . S
C497 C491 1.363 . S
C497 C492 1.379 . S
C497 N495 1.356 . S
N498 C490 1.356 . S
N498 H504 0.984 . S
N498 H505 0.984 . S
N499 C492 1.356 . S
N499 H502 0.984 . S
N499 H503 0.985 . S
H500 N495 0.984 . S
H501 N495 0.985 . S
H502 N499 0.984 . S
H503 N499 0.985 . S
H504 N498 0.984 . S
H505 N498 0.984 . S
H506 N494 0.984 . S
H507 N494 0.985 . S
C508 C509 1.363 . S
C508 C514 1.379 . S
C508 N516 1.356 . S
C509 C508 1.363 . S
C509 C515 1.363 . S
C510 C511 1.363 . S
C510 C515 1.379 . S
C510 N517 1.356 . S
C511 C510 1.363 . S
C511 C514 1.363 . S
N512 C514 1.356 . S
N512 H524 0.984 . S
N512 H525 0.985 . S
N513 C515 1.356 . S
N513 H518 0.984 . S
N513 H519 0.985 . S
C514 C508 1.379 . S
C514 C511 1.363 . S
C514 N512 1.356 . S
C515 C509 1.363 . S
C515 C510 1.379 . S
C515 N513 1.356 . S
N516 C508 1.356 . S
N516 H522 0.984 . S
N516 H523 0.984 . S
N517 C510 1.356 . S
N517 H520 0.984 . S
N517 H521 0.985 . S
H518 N513 0.984 . S
H519 N513 0.985 . S
H520 N517 0.984 . S
H521 N517 0.985 . S
H522 N516 0.984 . S
H523 N516 0.984 . S
H524 N512 0.984 . S
H525 N512 0.985 . S
C526 C527 1.363 . S
C526 C532 1.379 . S
C526 N534 1.356 . S
C527 C526 1.363 . S
C527 C533 1.363 . S
C528 C529 1.363 . S
C528 C533 1.379 . S
C528 N535 1.356 . S
C529 C528 1.363 . S
C529 C532 1.363 . S
N530 C532 1.356 . S
N530 H542 0.984 . S
N530 H543 0.985 . S
N531 C533 1.356 . S
N531 H536 0.984 . S
N531 H537 0.985 . S
C532 C526 1.379 . S
C532 C529 1.363 . S
C532 N530 1.356 . S
C533 C527 1.363 . S
C533 C528 1.379 . S
C533 N531 1.356 . S
N534 C526 1.356 . S
N534 H540 0.984 . S
N534 H541 0.984 . S
N535 C528 1.356 . S
N535 H538 0.984 . S
N535 H539 0.985 . S
H536 N531 0.984 . S
H537 N531 0.985 . S
H538 N535 0.984 . S
H539 N535 0.985 . S
H540 N534 0.984 . S
H541 N534 0.984 . S
H542 N530 0.984 . S
H543 N530 0.985 . S
C544 C545 1.363 . S
C544 C550 1.379 . S
C544 N552 1.356 . S
C545 C544 1.363 . S
C545 C551 1.363 . S
C546 C547 1.363 . S
C546 C551 1.379 . S
C546 N553 1.356 . S
C547 C546 1.363 . S
C547 C550 1.363 . S
N548 C550 1.356 . S
N548 H560 0.984 . S
N548 H561 0.985 . S
N549 C551 1.356 . S
N549 H554 0.984 . S
N549 H555 0.985 . S
C550 C544 1.379 . S
C550 C547 1.363 . S
C550 N548 1.356 . S
C551 C545 1.363 . S
C551 C546 1.379 . S
C551 N549 1.356 . S
N552 C544 1.356 . S
N552 H558 0.984 . S
N552 H559 0.984 . S
N553 C546 1.356 . S
N553 H556 0.984 . S
N553 H557 0.985 . S
H554 N549 0.984 . S
H555 N549 0.985 . S
H556 N553 0.984 . S
H557 N553 0.985 . S
H558 N552 0.984 . S
H559 N552 0.984 . S
H560 N548 0.984 . S
H561 N548 0.985 . S
C562 C563 1.363 . S
C562 C568 1.379 . S
C562 N570 1.356 . S
C563 C562 1.363 . S
C563 C569 1.363 . S
C564 C565 1.363 . S
C564 C569 1.379 . S
C564 N571 1.356 . S
C565 C564 1.363 . S
C565 C568 1.363 . S
N566 C568 1.356 . S
N566 H578 0.984 . S
N566 H579 0.985 . S
N567 C569 1.356 . S
N567 H572 0.984 . S
N567 H573 0.985 . S
C568 C562 1.379 . S
C568 C565 1.363 . S
C568 N566 1.356 . S
C569 C563 1.363 . S
C569 C564 1.379 . S
C569 N567 1.356 . S
N570 C562 1.356 . S
N570 H576 0.984 . S
N570 H577 0.984 . S
N571 C564 1.356 . S
N571 H574 0.984 . S
N571 H575 0.985 . S
H572 N567 0.984 . S
H573 N567 0.985 . S
H574 N571 0.984 . S
H575 N571 0.985 . S
H576 N570 0.984 . S
H577 N570 0.984 . S
H578 N566 0.984 . S
H579 N566 0.985 . S
C580 C581 1.363 . S
C580 C586 1.379 . S
C580 N588 1.356 . S
C581 C580 1.363 . S
C581 C587 1.363 . S
C582 C583 1.363 . S
C582 C587 1.379 . S
C582 N589 1.356 . S
C583 C582 1.363 . S
C583 C586 1.363 . S
N584 C586 1.356 . S
N584 H596 0.984 . S
N584 H597 0.985 . S
N585 C587 1.356 . S
N585 H590 0.984 . S
N585 H591 0.985 . S
C586 C580 1.379 . S
C586 C583 1.363 . S
C586 N584 1.356 . S
C587 C581 1.363 . S
C587 C582 1.379 . S
C587 N585 1.356 . S
N588 C580 1.356 . S
N588 H594 0.984 . S
N588 H595 0.984 . S
N589 C582 1.356 . S
N589 H592 0.984 1_556 S
N589 H593 0.985 1_556 S
H590 N585 0.984 . S
H591 N585 0.985 . S
H592 N589 0.984 1_554 S
H593 N589 0.985 1_554 S
H594 N588 0.984 . S
H595 N588 0.984 . S
H596 N584 0.984 . S
H597 N584 0.985 . S
C598 C599 1.363 . S
C598 C604 1.379 . S
C598 N606 1.356 . S
C599 C598 1.363 . S
C599 C605 1.363 . S
C600 C601 1.363 . S
C600 C605 1.379 . S
C600 N607 1.356 . S
C601 C600 1.363 . S
C601 C604 1.363 . S
N602 C604 1.356 . S
N602 H614 0.984 . S
N602 H615 0.985 . S
N603 C605 1.356 . S
N603 H608 0.984 . S
N603 H609 0.985 . S
C604 C598 1.379 . S
C604 C601 1.363 . S
C604 N602 1.356 . S
C605 C599 1.363 . S
C605 C600 1.379 . S
C605 N603 1.356 . S
N606 C598 1.356 . S
N606 H612 0.984 . S
N606 H613 0.984 . S
N607 C600 1.356 . S
N607 H610 0.984 . S
N607 H611 0.985 . S
H608 N603 0.984 . S
H609 N603 0.985 . S
H610 N607 0.984 . S
H611 N607 0.985 . S
H612 N606 0.984 . S
H613 N606 0.984 . S
H614 N602 0.984 . S
H615 N602 0.985 . S
C616 C617 1.363 . S
C616 C622 1.379 . S
C616 N624 1.356 . S
C617 C616 1.363 . S
C617 C623 1.363 . S
C618 C619 1.363 . S
C618 C623 1.379 . S
C618 N625 1.356 . S
C619 C618 1.363 . S
C619 C622 1.363 . S
N620 C622 1.356 . S
N620 H632 0.984 . S
N620 H633 0.985 . S
N621 C623 1.356 . S
N621 H626 0.984 . S
N621 H627 0.985 . S
C622 C616 1.379 . S
C622 C619 1.363 . S
C622 N620 1.356 . S
C623 C617 1.363 . S
C623 C618 1.379 . S
C623 N621 1.356 . S
N624 C616 1.356 . S
N624 H630 0.984 . S
N624 H631 0.984 . S
N625 C618 1.356 . S
N625 H628 0.984 . S
N625 H629 0.985 . S
H626 N621 0.984 . S
H627 N621 0.985 . S
H628 N625 0.984 . S
H629 N625 0.985 . S
H630 N624 0.984 . S
H631 N624 0.984 . S
H632 N620 0.984 . S
H633 N620 0.985 . S
C634 C635 1.363 . S
C634 C640 1.379 . S
C634 N642 1.356 . S
C635 C634 1.363 . S
C635 C641 1.363 . S
C636 C637 1.363 . S
C636 C641 1.379 . S
C636 N643 1.356 . S
C637 C636 1.363 . S
C637 C640 1.363 . S
N638 C640 1.356 . S
N638 H650 0.984 1_556 S
N638 H651 0.985 . S
N639 C641 1.356 . S
N639 H644 0.984 . S
N639 H645 0.985 . S
C640 C634 1.379 . S
C640 C637 1.363 . S
C640 N638 1.356 . S
C641 C635 1.363 . S
C641 C636 1.379 . S
C641 N639 1.356 . S
N642 C634 1.356 . S
N642 H648 0.984 . S
N642 H649 0.984 . S
N643 C636 1.356 . S
N643 H646 0.984 . S
N643 H647 0.985 . S
H644 N639 0.984 . S
H645 N639 0.985 . S
H646 N643 0.984 . S
H647 N643 0.985 . S
H648 N642 0.984 . S
H649 N642 0.984 . S
H650 N638 0.984 1_554 S
H651 N638 0.985 . S
C652 C653 1.363 . S
C652 C658 1.379 . S
C652 N660 1.356 . S
C653 C652 1.363 . S
C653 C659 1.363 . S
C654 C655 1.363 . S
C654 C659 1.379 . S
C654 N661 1.356 . S
C655 C654 1.363 . S
C655 C658 1.363 . S
N656 C658 1.356 . S
N656 H668 0.984 . S
N656 H669 0.985 . S
N657 C659 1.356 . S
N657 H662 0.984 . S
N657 H663 0.985 . S
C658 C652 1.379 . S
C658 C655 1.363 . S
C658 N656 1.356 . S
C659 C653 1.363 . S
C659 C654 1.379 . S
C659 N657 1.356 . S
N660 C652 1.356 . S
N660 H666 0.984 . S
N660 H667 0.984 . S
N661 C654 1.356 . S
N661 H664 0.984 . S
N661 H665 0.985 1_655 S
H662 N657 0.984 . S
H663 N657 0.985 . S
H664 N661 0.984 . S
H665 N661 0.985 1_455 S
H666 N660 0.984 . S
H667 N660 0.984 . S
H668 N656 0.984 . S
H669 N656 0.985 . S
C670 C671 1.363 . S
C670 C676 1.379 . S
C670 N678 1.356 . S
C671 C670 1.363 . S
C671 C677 1.363 . S
C672 C673 1.363 . S
C672 C677 1.379 . S
C672 N679 1.356 . S
C673 C672 1.363 . S
C673 C676 1.363 . S
N674 C676 1.356 . S
N674 H686 0.984 . S
N674 H687 0.985 . S
N675 C677 1.356 . S
N675 H680 0.984 . S
N675 H681 0.985 . S
C676 C670 1.379 . S
C676 C673 1.363 . S
C676 N674 1.356 . S
C677 C671 1.363 . S
C677 C672 1.379 . S
C677 N675 1.356 . S
N678 C670 1.356 . S
N678 H684 0.984 . S
N678 H685 0.984 . S
N679 C672 1.356 . S
N679 H682 0.984 . S
N679 H683 0.985 . S
H680 N675 0.984 . S
H681 N675 0.985 . S
H682 N679 0.984 . S
H683 N679 0.985 . S
H684 N678 0.984 . S
H685 N678 0.984 . S
H686 N674 0.984 . S
H687 N674 0.985 . S
C688 C689 1.363 . S
C688 C694 1.379 . S
C688 N696 1.356 . S
C689 C688 1.363 . S
C689 C695 1.363 . S
C690 C691 1.363 . S
C690 C695 1.379 . S
C690 N697 1.356 . S
C691 C690 1.363 . S
C691 C694 1.363 . S
N692 C694 1.356 . S
N692 H704 0.984 . S
N692 H705 0.985 . S
N693 C695 1.356 . S
N693 H698 0.984 . S
N693 H699 0.985 . S
C694 C688 1.379 . S
C694 C691 1.363 . S
C694 N692 1.356 . S
C695 C689 1.363 . S
C695 C690 1.379 . S
C695 N693 1.356 . S
N696 C688 1.356 . S
N696 H702 0.984 . S
N696 H703 0.984 . S
N697 C690 1.356 . S
N697 H700 0.984 . S
N697 H701 0.985 . S
H698 N693 0.984 . S
H699 N693 0.985 . S
H700 N697 0.984 . S
H701 N697 0.985 . S
H702 N696 0.984 . S
H703 N696 0.984 . S
H704 N692 0.984 . S
H705 N692 0.985 . S
C706 C707 1.363 . S
C706 C712 1.379 . S
C706 N714 1.356 . S
C707 C706 1.363 . S
C707 C713 1.363 . S
C708 C709 1.363 . S
C708 C713 1.379 . S
C708 N715 1.356 . S
C709 C708 1.363 . S
C709 C712 1.363 . S
N710 C712 1.356 . S
N710 H722 0.984 . S
N710 H723 0.985 . S
N711 C713 1.356 . S
N711 H716 0.984 . S
N711 H717 0.985 . S
C712 C706 1.379 . S
C712 C709 1.363 . S
C712 N710 1.356 . S
C713 C707 1.363 . S
C713 C708 1.379 . S
C713 N711 1.356 . S
N714 C706 1.356 . S
N714 H720 0.984 . S
N714 H721 0.984 . S
N715 C708 1.356 . S
N715 H718 0.984 . S
N715 H719 0.985 . S
H716 N711 0.984 . S
H717 N711 0.985 . S
H718 N715 0.984 . S
H719 N715 0.985 . S
H720 N714 0.984 . S
H721 N714 0.984 . S
H722 N710 0.984 . S
H723 N710 0.985 . S
C724 C725 1.363 . S
C724 C730 1.379 . S
C724 N732 1.356 . S
C725 C724 1.363 . S
C725 C731 1.363 . S
C726 C727 1.363 . S
C726 C731 1.379 . S
C726 N733 1.356 . S
C727 C726 1.363 . S
C727 C730 1.363 . S
N728 C730 1.356 . S
N728 H740 0.984 . S
N728 H741 0.985 . S
N729 C731 1.356 . S
N729 H734 0.984 . S
N729 H735 0.985 . S
C730 C724 1.379 . S
C730 C727 1.363 . S
C730 N728 1.356 . S
C731 C725 1.363 . S
C731 C726 1.379 . S
C731 N729 1.356 . S
N732 C724 1.356 . S
N732 H738 0.984 . S
N732 H739 0.984 . S
N733 C726 1.356 . S
N733 H736 0.984 . S
N733 H737 0.985 . S
H734 N729 0.984 . S
H735 N729 0.985 . S
H736 N733 0.984 . S
H737 N733 0.985 . S
H738 N732 0.984 . S
H739 N732 0.984 . S
H740 N728 0.984 . S
H741 N728 0.985 . S
C742 C743 1.363 . S
C742 C748 1.379 . S
C742 N750 1.356 . S
C743 C742 1.363 . S
C743 C749 1.363 . S
C744 C745 1.363 . S
C744 C749 1.379 . S
C744 N751 1.356 . S
C745 C744 1.363 . S
C745 C748 1.363 . S
N746 C748 1.356 . S
N746 H758 0.984 1_455 S
N746 H759 0.985 . S
N747 C749 1.356 . S
N747 H752 0.984 . S
N747 H753 0.985 . S
C748 C742 1.379 . S
C748 C745 1.363 . S
C748 N746 1.356 . S
C749 C743 1.363 . S
C749 C744 1.379 . S
C749 N747 1.356 . S
N750 C742 1.356 . S
N750 H756 0.984 . S
N750 H757 0.984 . S
N751 C744 1.356 . S
N751 H754 0.984 . S
N751 H755 0.985 . S
H752 N747 0.984 . S
H753 N747 0.985 . S
H754 N751 0.984 . S
H755 N751 0.985 . S
H756 N750 0.984 . S
H757 N750 0.984 . S
H758 N746 0.984 1_655 S
H759 N746 0.985 . S
C760 C761 1.363 . S
C760 C766 1.379 . S
C760 N768 1.356 . S
C761 C760 1.363 . S
C761 C767 1.363 . S
C762 C763 1.363 . S
C762 C767 1.379 . S
C762 N769 1.356 . S
C763 C762 1.363 . S
C763 C766 1.363 . S
N764 C766 1.356 . S
N764 H776 0.984 . S
N764 H777 0.985 . S
N765 C767 1.356 . S
N765 H770 0.984 . S
N765 H771 0.985 . S
C766 C760 1.379 . S
C766 C763 1.363 . S
C766 N764 1.356 . S
C767 C761 1.363 . S
C767 C762 1.379 . S
C767 N765 1.356 . S
N768 C760 1.356 . S
N768 H774 0.984 . S
N768 H775 0.984 . S
N769 C762 1.356 . S
N769 H772 0.984 . S
N769 H773 0.985 . S
H770 N765 0.984 . S
H771 N765 0.985 . S
H772 N769 0.984 . S
H773 N769 0.985 . S
H774 N768 0.984 . S
H775 N768 0.984 . S
H776 N764 0.984 . S
H777 N764 0.985 . S
C778 C779 1.363 . S
C778 C784 1.379 . S
C778 N786 1.356 . S
C779 C778 1.363 . S
C779 C785 1.363 . S
C780 C781 1.363 . S
C780 C785 1.379 . S
C780 N787 1.356 . S
C781 C780 1.363 . S
C781 C784 1.363 . S
N782 C784 1.356 . S
N782 H794 0.984 . S
N782 H795 0.985 . S
N783 C785 1.356 . S
N783 H788 0.984 . S
N783 H789 0.985 . S
C784 C778 1.379 . S
C784 C781 1.363 . S
C784 N782 1.356 . S
C785 C779 1.363 . S
C785 C780 1.379 . S
C785 N783 1.356 . S
N786 C778 1.356 . S
N786 H792 0.984 . S
N786 H793 0.984 . S
N787 C780 1.356 . S
N787 H790 0.984 . S
N787 H791 0.985 . S
H788 N783 0.984 . S
H789 N783 0.985 . S
H790 N787 0.984 . S
H791 N787 0.985 . S
H792 N786 0.984 . S
H793 N786 0.984 . S
H794 N782 0.984 . S
H795 N782 0.985 . S
C796 C797 1.363 . S
C796 C802 1.379 . S
C796 N804 1.356 . S
C797 C796 1.363 . S
C797 C803 1.363 . S
C798 C799 1.363 . S
C798 C803 1.379 . S
C798 N805 1.356 . S
C799 C798 1.363 . S
C799 C802 1.363 . S
N800 C802 1.356 . S
N800 H812 0.984 . S
N800 H813 0.985 . S
N801 C803 1.356 . S
N801 H806 0.984 . S
N801 H807 0.985 . S
C802 C796 1.379 . S
C802 C799 1.363 . S
C802 N800 1.356 . S
C803 C797 1.363 . S
C803 C798 1.379 . S
C803 N801 1.356 . S
N804 C796 1.356 . S
N804 H810 0.984 . S
N804 H811 0.984 . S
N805 C798 1.356 . S
N805 H808 0.984 . S
N805 H809 0.985 . S
H806 N801 0.984 . S
H807 N801 0.985 . S
H808 N805 0.984 . S
H809 N805 0.985 . S
H810 N804 0.984 . S
H811 N804 0.984 . S
H812 N800 0.984 . S
H813 N800 0.985 . S
C814 C815 1.363 . S
C814 C820 1.379 . S
C814 N822 1.356 . S
C815 C814 1.363 . S
C815 C821 1.363 . S
C816 C817 1.363 . S
C816 C821 1.379 . S
C816 N823 1.356 . S
C817 C816 1.363 . S
C817 C820 1.363 . S
N818 C820 1.356 . S
N818 H830 0.984 . S
N818 H831 0.985 . S
N819 C821 1.356 . S
N819 H824 0.984 . S
N819 H825 0.985 . S
C820 C814 1.379 . S
C820 C817 1.363 . S
C820 N818 1.356 . S
C821 C815 1.363 . S
C821 C816 1.379 . S
C821 N819 1.356 . S
N822 C814 1.356 . S
N822 H828 0.984 . S
N822 H829 0.984 . S
N823 C816 1.356 . S
N823 H826 0.984 . S
N823 H827 0.985 . S
H824 N819 0.984 . S
H825 N819 0.985 . S
H826 N823 0.984 . S
H827 N823 0.985 . S
H828 N822 0.984 . S
H829 N822 0.984 . S
H830 N818 0.984 . S
H831 N818 0.985 . S
C832 C833 1.363 . S
C832 C838 1.379 . S
C832 N840 1.356 . S
C833 C832 1.363 . S
C833 C839 1.363 . S
C834 C835 1.363 . S
C834 C839 1.379 . S
C834 N841 1.356 . S
C835 C834 1.363 . S
C835 C838 1.363 . S
N836 C838 1.356 . S
N836 H848 0.984 . S
N836 H849 0.985 . S
N837 C839 1.356 . S
N837 H842 0.984 . S
N837 H843 0.985 . S
C838 C832 1.379 . S
C838 C835 1.363 . S
C838 N836 1.356 . S
C839 C833 1.363 . S
C839 C834 1.379 . S
C839 N837 1.356 . S
N840 C832 1.356 . S
N840 H846 0.984 . S
N840 H847 0.984 . S
N841 C834 1.356 . S
N841 H844 0.984 . S
N841 H845 0.985 . S
H842 N837 0.984 . S
H843 N837 0.985 . S
H844 N841 0.984 . S
H845 N841 0.985 . S
H846 N840 0.984 . S
H847 N840 0.984 . S
H848 N836 0.984 . S
H849 N836 0.985 . S
C850 C851 1.363 . S
C850 C856 1.379 . S
C850 N858 1.356 . S
C851 C850 1.363 . S
C851 C857 1.363 . S
C852 C853 1.363 . S
C852 C857 1.379 . S
C852 N859 1.356 . S
C853 C852 1.363 . S
C853 C856 1.363 . S
N854 C856 1.356 . S
N854 H866 0.984 1_554 S
N854 H867 0.985 . S
N855 C857 1.356 . S
N855 H860 0.984 . S
N855 H861 0.985 . S
C856 C850 1.379 . S
C856 C853 1.363 . S
C856 N854 1.356 . S
C857 C851 1.363 . S
C857 C852 1.379 . S
C857 N855 1.356 . S
N858 C850 1.356 . S
N858 H864 0.984 . S
N858 H865 0.984 . S
N859 C852 1.356 . S
N859 H862 0.984 . S
N859 H863 0.985 . S
H860 N855 0.984 . S
H861 N855 0.985 . S
H862 N859 0.984 . S
H863 N859 0.985 . S
H864 N858 0.984 . S
H865 N858 0.984 . S
H866 N854 0.984 1_556 S
H867 N854 0.985 . S
C868 C869 1.363 . S
C868 C874 1.379 . S
C868 N876 1.356 . S
C869 C868 1.363 . S
C869 C875 1.363 . S
C870 C871 1.363 . S
C870 C875 1.379 . S
C870 N877 1.356 . S
C871 C870 1.363 . S
C871 C874 1.363 . S
N872 C874 1.356 . S
N872 H884 0.984 . S
N872 H885 0.985 . S
N873 C875 1.356 . S
N873 H878 0.984 . S
N873 H879 0.985 . S
C874 C868 1.379 . S
C874 C871 1.363 . S
C874 N872 1.356 . S
C875 C869 1.363 . S
C875 C870 1.379 . S
C875 N873 1.356 . S
N876 C868 1.356 . S
N876 H882 0.984 . S
N876 H883 0.984 . S
N877 C870 1.356 . S
N877 H880 0.984 . S
N877 H881 0.985 . S
H878 N873 0.984 . S
H879 N873 0.985 . S
H880 N877 0.984 . S
H881 N877 0.985 . S
H882 N876 0.984 . S
H883 N876 0.984 . S
H884 N872 0.984 . S
H885 N872 0.985 . S
C886 C887 1.363 . S
C886 C892 1.379 . S
C886 N894 1.356 . S
C887 C886 1.363 . S
C887 C893 1.363 . S
C888 C889 1.363 . S
C888 C893 1.379 . S
C888 N895 1.356 . S
C889 C888 1.363 . S
C889 C892 1.363 . S
N890 C892 1.356 . S
N890 H902 0.984 . S
N890 H903 0.985 . S
N891 C893 1.356 . S
N891 H896 0.984 . S
N891 H897 0.985 . S
C892 C886 1.379 . S
C892 C889 1.363 . S
C892 N890 1.356 . S
C893 C887 1.363 . S
C893 C888 1.379 . S
C893 N891 1.356 . S
N894 C886 1.356 . S
N894 H900 0.984 . S
N894 H901 0.984 . S
N895 C888 1.356 . S
N895 H898 0.984 . S
N895 H899 0.985 . S
H896 N891 0.984 . S
H897 N891 0.985 . S
H898 N895 0.984 . S
H899 N895 0.985 . S
H900 N894 0.984 . S
H901 N894 0.984 . S
H902 N890 0.984 . S
H903 N890 0.985 . S
C473 C1 1.321 . S
C475 C319 1.426 . S
C491 C40 1.107 . S
C493 C368 1.100 . S
C511 C394 2.493 . S
C509 C99 2.547 . S
C527 C118 2.447 . S
C529 C442 2.396 . S
C547 C354 2.643 . S
C545 C16 2.425 . S
C565 C322 0.873 . S
C563 C60 0.893 . S
C583 C443 1.936 . S
C581 C79 1.991 . S
C601 C411 1.679 . S
C599 C138 1.687 . S
C617 C21 1.713 . S
C619 C439 1.847 . S
C637 C371 2.354 . S
C635 C94 2.440 . S
C653 C133 2.343 . S
C655 C323 2.335 . S
C671 C55 1.095 . S
C673 C408 1.137 . S
C691 C328 1.429 . S
C689 C157 1.336 . S
C707 C196 1.109 . S
C709 C359 1.102 . S
C725 C255 2.545 . S
C727 C403 2.491 . S
C743 C289 2.444 . S
C745 C451 2.391 . S
C761 C172 2.411 . S
C763 C363 2.641 . S
C781 C331 0.873 . S
C779 C216 0.892 . S
C799 C434 1.936 . S
C797 C235 1.994 . S
C817 C402 1.677 . S
C815 C294 1.690 . S
C833 C177 1.735 . S
C835 C448 1.844 . S
C853 C362 2.356 . S
C851 C250 2.441 . S
C871 C314 2.339 . S
C869 C274 2.345 . S
C887 C211 1.098 . S
C889 C399 1.138 . S
