# Generated by pormake.
# Topology pyr, (3,6)-cn, num edge types: 1
# Building blocks:
#     Node 0, Type 0, BuildingBlock: VETTIZ_charged_linker_0, # of connection points: 3
#     Node 1, Type 0, BuildingBlock: VETTIZ_charged_linker_0, # of connection points: 3
#     Node 2, Type 0, BuildingBlock: VETTIZ_charged_linker_0, # of connection points: 3
#     Node 3, Type 0, BuildingBlock: VETTIZ_charged_linker_0, # of connection points: 3
#     Node 4, Type 0, BuildingBlock: VETTIZ_charged_linker_0, # of connection points: 3
#     Node 5, Type 0, BuildingBlock: VETTIZ_charged_linker_0, # of connection points: 3
#     Node 6, Type 0, BuildingBlock: VETTIZ_charged_linker_0, # of connection points: 3
#     Node 7, Type 0, BuildingBlock: VETTIZ_charged_linker_0, # of connection points: 3
#     Node 8, Type 1, BuildingBlock: LEVNOQ01_clean_sbu_1, # of connection points: 6
#     Node 9, Type 1, BuildingBlock: LEVNOQ01_clean_sbu_1, # of connection points: 6
#     Node 10, Type 1, BuildingBlock: LEVNOQ01_clean_sbu_1, # of connection points: 6
#     Node 11, Type 1, BuildingBlock: LEVNOQ01_clean_sbu_1, # of connection points: 6
#     Edge 12, Type (0, 1), BuildingBlock: OJICUG_clean_linker_0, # of connection points: 2
#     Edge 13, Type (0, 1), BuildingBlock: OJICUG_clean_linker_0, # of connection points: 2
#     Edge 14, Type (0, 1), BuildingBlock: OJICUG_clean_linker_0, # of connection points: 2
#     Edge 15, Type (0, 1), BuildingBlock: OJICUG_clean_linker_0, # of connection points: 2
#     Edge 16, Type (0, 1), BuildingBlock: OJICUG_clean_linker_0, # of connection points: 2
#     Edge 17, Type (0, 1), BuildingBlock: OJICUG_clean_linker_0, # of connection points: 2
#     Edge 18, Type (0, 1), BuildingBlock: OJICUG_clean_linker_0, # of connection points: 2
#     Edge 19, Type (0, 1), BuildingBlock: OJICUG_clean_linker_0, # of connection points: 2
#     Edge 20, Type (0, 1), BuildingBlock: OJICUG_clean_linker_0, # of connection points: 2
#     Edge 21, Type (0, 1), BuildingBlock: OJICUG_clean_linker_0, # of connection points: 2
#     Edge 22, Type (0, 1), BuildingBlock: OJICUG_clean_linker_0, # of connection points: 2
#     Edge 23, Type (0, 1), BuildingBlock: OJICUG_clean_linker_0, # of connection points: 2
#     Edge 24, Type (0, 1), BuildingBlock: OJICUG_clean_linker_0, # of connection points: 2
#     Edge 25, Type (0, 1), BuildingBlock: OJICUG_clean_linker_0, # of connection points: 2
#     Edge 26, Type (0, 1), BuildingBlock: OJICUG_clean_linker_0, # of connection points: 2
#     Edge 27, Type (0, 1), BuildingBlock: OJICUG_clean_linker_0, # of connection points: 2
#     Edge 28, Type (0, 1), BuildingBlock: OJICUG_clean_linker_0, # of connection points: 2
#     Edge 29, Type (0, 1), BuildingBlock: OJICUG_clean_linker_0, # of connection points: 2
#     Edge 30, Type (0, 1), BuildingBlock: OJICUG_clean_linker_0, # of connection points: 2
#     Edge 31, Type (0, 1), BuildingBlock: OJICUG_clean_linker_0, # of connection points: 2
#     Edge 32, Type (0, 1), BuildingBlock: OJICUG_clean_linker_0, # of connection points: 2
#     Edge 33, Type (0, 1), BuildingBlock: OJICUG_clean_linker_0, # of connection points: 2
#     Edge 34, Type (0, 1), BuildingBlock: OJICUG_clean_linker_0, # of connection points: 2
#     Edge 35, Type (0, 1), BuildingBlock: OJICUG_clean_linker_0, # of connection points: 2
# Relax obj value: 0.035
# Max RMSD: 0.111
# Mean RMSD: 0.047
data_MOF--net-pry--node1-LEVNOQ01_clean_sbu_1--node2-VETTIZ_charged_linker_0--edge1-OJICUG_clean_linker_0
_symmetry_space_group_name_H-M    P1
_symmetry_Int_Tables_number       1
_symmetry_cell_setting            triclinic
loop_
_symmetry_equiv_pos_as_xyz
'x, y, z'
_cell_length_a     35.615508
_cell_length_b     34.271991
_cell_length_c     34.170607
_cell_angle_alpha  92.094314
_cell_angle_beta   91.154281
_cell_angle_gamma 93.634013
loop_
_atom_site_label
_atom_site_type_symbol
_atom_site_fract_x
_atom_site_fract_y
_atom_site_fract_z
_atom_type_partial_charge
C0 C 0.11592 0.07884 0.25567 0.0
C1 C 0.08706 0.09327 0.27859 0.0
C2 C 0.06636 0.12355 0.26384 0.0
C3 C 0.10318 0.12406 0.20466 0.0
C4 C 0.12322 0.09428 0.21902 0.0
C5 C 0.15215 0.08098 0.19091 0.0
H6 H 0.2591 0.11786 0.0353 0.0
C7 C 0.11872 0.13411 0.16607 0.0
C8 C 0.14744 0.109 0.15798 0.0
H9 H 0.26008 0.01892 0.1108 0.0
H10 H 0.2058 0.04069 0.1433 0.0
H11 H 0.23732 0.18334 0.09619 0.0
H12 H 0.16476 0.10557 0.02152 0.0
H13 H 0.14846 0.15291 0.02052 0.0
H14 H 0.19452 0.14428 0.00239 0.0
H15 H 0.23518 0.18739 0.04393 0.0
H16 H 0.20211 0.21027 0.07512 0.0
C17 C 0.19127 0.08727 0.21158 0.0
C18 C 0.14121 0.0379 0.17748 0.0
C19 C 0.06874 0.24701 0.09296 0.0
C20 C 0.08117 0.26824 0.06052 0.0
C21 C 0.11233 0.25519 0.03992 0.0
C22 C 0.13101 0.22248 0.05194 0.0
C23 C 0.1188 0.20264 0.08522 0.0
C24 C 0.08822 0.21525 0.10517 0.0
C25 C 0.0808 0.19306 0.14171 0.0
C26 C 0.11102 0.16389 0.13969 0.0
C27 C 0.13311 0.1693 0.10637 0.0
C28 C 0.08676 0.22214 0.17752 0.0
C29 C 0.04088 0.17248 0.13803 0.0
C30 C 0.24749 0.1003 0.05835 0.0
C31 C 0.26537 0.06718 0.07119 0.0
C32 C 0.24842 0.04546 0.10122 0.0
C33 C 0.21652 0.05796 0.12002 0.0
C34 C 0.20068 0.09232 0.10854 0.0
C35 C 0.21495 0.11185 0.07696 0.0
C36 C 0.19199 0.14579 0.06683 0.0
C37 C 0.16272 0.14423 0.09868 0.0
C38 C 0.16876 0.1134 0.12357 0.0
C39 C 0.21784 0.18385 0.07038 0.0
C40 C 0.17405 0.1371 0.02557 0.0
H41 H 0.05719 0.1616 0.21733 0.0
H42 H 0.13261 0.05578 0.26591 0.0
H43 H 0.11089 0.02983 0.18202 0.0
H44 H 0.14502 0.03265 0.14565 0.0
H45 H 0.15768 0.01717 0.19393 0.0
H46 H 0.19468 0.11689 0.22615 0.0
H47 H 0.19469 0.06538 0.23436 0.0
H48 H 0.21487 0.08554 0.19139 0.0
H49 H 0.0446 0.25524 0.10934 0.0
H50 H 0.12311 0.27092 0.0152 0.0
H51 H 0.15484 0.21448 0.03543 0.0
H52 H 0.10768 0.24654 0.17137 0.0
H53 H 0.06009 0.23529 0.18544 0.0
H54 H 0.09854 0.2086 0.20352 0.0
H55 H 0.03568 0.15926 0.10803 0.0
H56 H 0.03676 0.14809 0.15805 0.0
H57 H 0.019 0.19357 0.14361 0.0
H58 H 0.04341 0.13474 0.28027 0.0
C59 C 0.07421 0.13893 0.22707 0.0
C60 C 0.24955 0.89894 0.55033 0.0
C61 C 0.22828 0.92815 0.56698 0.0
C62 C 0.24352 0.95185 0.59862 0.0
C63 C 0.29984 0.91603 0.59839 0.0
C64 C 0.28527 0.89332 0.56663 0.0
C65 C 0.31116 0.86221 0.55442 0.0
H66 H 0.46884 0.76817 0.59157 0.0
C67 C 0.33656 0.90169 0.60973 0.0
C68 C 0.34363 0.87036 0.58378 0.0
H69 H 0.38183 0.73688 0.50404 0.0
H70 H 0.35146 0.79641 0.52028 0.0
H71 H 0.47485 0.86387 0.5784 0.0
H72 H 0.41583 0.78612 0.65522 0.0
H73 H 0.42851 0.82852 0.68374 0.0
H74 H 0.4648 0.80072 0.66245 0.0
H75 H 0.49762 0.84124 0.61818 0.0
H76 H 0.47656 0.88752 0.62495 0.0
C77 C 0.32341 0.8695 0.51198 0.0
C78 C 0.29034 0.82173 0.55984 0.0
C79 C 0.40685 0.95885 0.73246 0.0
C80 C 0.44069 0.94973 0.75111 0.0
C81 C 0.46235 0.92126 0.73318 0.0
C82 C 0.45051 0.90189 0.69797 0.0
C83 C 0.41626 0.91045 0.68032 0.0
C84 C 0.39529 0.93892 0.69714 0.0
C85 C 0.35959 0.94383 0.6739 0.0
C86 C 0.36241 0.91304 0.64097 0.0
C87 C 0.39558 0.89354 0.64514 0.0
C88 C 0.36142 0.98581 0.65837 0.0
C89 C 0.32587 0.93419 0.70066 0.0
C90 C 0.44355 0.77441 0.57543 0.0
C91 C 0.42752 0.74758 0.54679 0.0
C92 C 0.39486 0.7571 0.52614 0.0
C93 C 0.37696 0.7914 0.53606 0.0
C94 C 0.39167 0.81617 0.5672 0.0
C95 C 0.42498 0.80788 0.58559 0.0
C96 C 0.43555 0.83572 0.61953 0.0
C97 C 0.40295 0.86204 0.61886 0.0
C98 C 0.37726 0.85057 0.58819 0.0
C99 C 0.47323 0.85823 0.6102 0.0
C100 C 0.43657 0.81184 0.65731 0.0
H101 H 0.28904 0.96491 0.6386 0.0
H102 H 0.23817 0.88022 0.52615 0.0
H103 H 0.27217 0.82246 0.58594 0.0
H104 H 0.30959 0.79847 0.56542 0.0
H105 H 0.27202 0.81277 0.53396 0.0
H106 H 0.32857 0.90137 0.5075 0.0
H107 H 0.30129 0.85799 0.49045 0.0
H108 H 0.35016 0.85656 0.50485 0.0
H109 H 0.38959 0.9807 0.74517 0.0
H110 H 0.48808 0.91285 0.74703 0.0
H111 H 0.46814 0.88023 0.6864 0.0
H112 H 0.39087 0.99595 0.65188 0.0
H113 H 0.35075 0.00695 0.68023 0.0
H114 H 0.34577 0.98773 0.63032 0.0
H115 H 0.33166 0.90941 0.71958 0.0
H116 H 0.29976 0.9245 0.68424 0.0
H117 H 0.32032 0.95971 0.72018 0.0
H118 H 0.2274 0.97455 0.61165 0.0
C119 C 0.27922 0.94613 0.61425 0.0
C120 C 0.60589 0.24926 0.90406 0.0
C121 C 0.58153 0.22512 0.87927 0.0
C122 C 0.56707 0.24048 0.84478 0.0
C123 C 0.60267 0.30202 0.85925 0.0
C124 C 0.61619 0.28735 0.89345 0.0
C125 C 0.6434 0.31601 0.91545 0.0
H126 H 0.75947 0.47809 0.90791 0.0
C127 C 0.62093 0.34135 0.85525 0.0
C128 C 0.64481 0.34991 0.88806 0.0
H129 H 0.75177 0.39597 0.00105 0.0
H130 H 0.69604 0.36362 0.96959 0.0
H131 H 0.66619 0.48724 0.89919 0.0
H132 H 0.74944 0.42126 0.84209 0.0
H133 H 0.71811 0.43329 0.80498 0.0
H134 H 0.74439 0.47189 0.83289 0.0
H135 H 0.70085 0.50878 0.86774 0.0
H136 H 0.65627 0.48745 0.8486 0.0
C137 C 0.62627 0.32714 0.95531 0.0
C138 C 0.68162 0.29703 0.91877 0.0
C139 C 0.60032 0.41198 0.72995 0.0
C140 C 0.6166 0.44667 0.7152 0.0
C141 C 0.64434 0.4689 0.7378 0.0
C142 C 0.65537 0.45686 0.77478 0.0
C143 C 0.63854 0.4222 0.7892 0.0
C144 C 0.61163 0.40037 0.76678 0.0
C145 C 0.59727 0.36399 0.78626 0.0
C146 C 0.6203 0.36747 0.82415 0.0
C147 C 0.64387 0.40181 0.82592 0.0
C148 C 0.55486 0.36715 0.79407 0.0
C149 C 0.60628 0.32794 0.75994 0.0
C150 C 0.7453 0.45393 0.92242 0.0
C151 C 0.76035 0.43937 0.95684 0.0
C152 C 0.74114 0.40732 0.9741 0.0
C153 C 0.70897 0.38848 0.95572 0.0
C154 C 0.69643 0.40145 0.91943 0.0
C155 C 0.71367 0.43464 0.9043 0.0
C156 C 0.69725 0.4442 0.86534 0.0
C157 C 0.66782 0.4107 0.85899 0.0
C158 C 0.66768 0.38541 0.89041 0.0
C159 C 0.67934 0.4841 0.87007 0.0
C160 C 0.72873 0.44295 0.83457 0.0
H161 H 0.56512 0.28901 0.80846 0.0
H162 H 0.61644 0.23901 0.93154 0.0
H163 H 0.68824 0.28204 0.89054 0.0
H164 H 0.70564 0.31824 0.92521 0.0
H165 H 0.68093 0.27487 0.94172 0.0
H166 H 0.5951 0.32743 0.95271 0.0
H167 H 0.63293 0.30592 0.97784 0.0
H168 H 0.63583 0.35698 0.96614 0.0
H169 H 0.57819 0.39476 0.71379 0.0
H170 H 0.65702 0.49592 0.7271 0.0
H171 H 0.67649 0.47508 0.79069 0.0
H172 H 0.54952 0.3969 0.80596 0.0
H173 H 0.53777 0.36176 0.76662 0.0
H174 H 0.54421 0.34665 0.81611 0.0
H175 H 0.62739 0.33556 0.73744 0.0
H176 H 0.61902 0.30497 0.77682 0.0
H177 H 0.58068 0.31497 0.74408 0.0
H178 H 0.54793 0.22276 0.82538 0.0
C179 C 0.57724 0.27891 0.83488 0.0
C180 C 0.95574 0.72584 0.44359 0.0
C181 C 0.94206 0.7492 0.47411 0.0
C182 C 0.91437 0.7328 0.49851 0.0
C183 C 0.90744 0.67493 0.4552 0.0
C184 C 0.93714 0.68966 0.43364 0.0
C185 C 0.94108 0.66703 0.39558 0.0
H186 H 0.86707 0.53507 0.25953 0.0
C187 C 0.88917 0.64102 0.4326 0.0
C188 C 0.90855 0.6365 0.39754 0.0
H189 H 0.96657 0.61352 0.25266 0.0
H190 H 0.95896 0.63601 0.31922 0.0
H191 H 0.88607 0.5057 0.34386 0.0
H192 H 0.81539 0.59694 0.30993 0.0
H193 H 0.79105 0.56521 0.34172 0.0
H194 H 0.80628 0.5462 0.29555 0.0
H195 H 0.83899 0.49467 0.32525 0.0
H196 H 0.84874 0.50605 0.37667 0.0
C197 C 0.9794 0.64815 0.39674 0.0
C198 C 0.93605 0.69516 0.36133 0.0
C199 C 0.76713 0.57691 0.48025 0.0
C200 C 0.74231 0.5467 0.4645 0.0
C201 C 0.75238 0.52571 0.43038 0.0
C202 C 0.78569 0.53607 0.41109 0.0
C203 C 0.80914 0.56785 0.42593 0.0
C204 C 0.80043 0.58669 0.46076 0.0
C205 C 0.82902 0.61926 0.47259 0.0
C206 C 0.85618 0.61697 0.43907 0.0
C207 C 0.84389 0.58748 0.41121 0.0
C208 C 0.8476 0.60917 0.512 0.0
C209 C 0.8089 0.65817 0.47372 0.0
C210 C 0.88692 0.55743 0.27233 0.0
C211 C 0.91701 0.5732 0.25039 0.0
C212 C 0.94253 0.60178 0.26836 0.0
C213 C 0.93829 0.61454 0.30726 0.0
C214 C 0.90781 0.59917 0.32854 0.0
C215 C 0.88285 0.57087 0.31125 0.0
C216 C 0.85259 0.55755 0.33898 0.0
C217 C 0.86304 0.58346 0.37525 0.0
C218 C 0.89533 0.60776 0.36871 0.0
C219 C 0.8564 0.51366 0.34655 0.0
C220 C 0.81414 0.56667 0.32077 0.0
H221 H 0.8748 0.68536 0.50774 0.0
H222 H 0.97715 0.73776 0.42447 0.0
H223 H 0.91988 0.72061 0.3703 0.0
H224 H 0.91938 0.68138 0.33631 0.0
H225 H 0.96366 0.70687 0.35074 0.0
H226 H 0.98501 0.63655 0.42614 0.0
H227 H 0.00279 0.66992 0.3906 0.0
H228 H 0.9804 0.62276 0.37599 0.0
H229 H 0.76026 0.59334 0.50655 0.0
H230 H 0.73358 0.50242 0.4175 0.0
H231 H 0.79135 0.51971 0.38474 0.0
H232 H 0.85181 0.57731 0.51278 0.0
H233 H 0.82971 0.61686 0.53703 0.0
H234 H 0.87597 0.62372 0.51679 0.0
H235 H 0.78514 0.65713 0.45196 0.0
H236 H 0.82731 0.68359 0.46559 0.0
H237 H 0.7972 0.66424 0.50305 0.0
H238 H 0.90346 0.75019 0.5223 0.0
C239 C 0.89726 0.69544 0.48945 0.0
C240 C 0.90484 0.76385 0.95591 0.0
C241 C 0.93662 0.74612 0.94102 0.0
C242 C 0.95667 0.76494 0.91092 0.0
C243 C 0.91027 0.81318 0.90633 0.0
C244 C 0.89249 0.79762 0.93839 0.0
C245 C 0.86015 0.82141 0.95081 0.0
H246 H 0.73885 0.95925 0.90721 0.0
C247 C 0.88893 0.84584 0.89247 0.0
C248 C 0.85994 0.85153 0.91898 0.0
H249 H 0.74731 0.89647 0.01451 0.0
H250 H 0.80111 0.86516 0.99008 0.0
H251 H 0.7546 0.89457 0.84931 0.0
H252 H 0.83096 0.98177 0.90604 0.0
H253 H 0.84355 0.97803 0.85665 0.0
H254 H 0.7972 0.99228 0.86881 0.0
H255 H 0.76054 0.94319 0.83177 0.0
H256 H 0.78952 0.90482 0.81506 0.0
C257 C 0.82366 0.79442 0.94934 0.0
C258 C 0.86979 0.84065 0.99189 0.0
C259 C 0.91774 0.90444 0.76001 0.0
C260 C 0.90037 0.93284 0.73838 0.0
C261 C 0.86803 0.9492 0.75335 0.0
C262 C 0.8538 0.93845 0.78952 0.0
C263 C 0.87191 0.91088 0.8113 0.0
C264 C 0.90305 0.89397 0.79636 0.0
C265 C 0.91826 0.86495 0.82381 0.0
C266 C 0.89097 0.86731 0.85753 0.0
C267 C 0.86413 0.89451 0.84994 0.0
C268 C 0.91524 0.82436 0.80224 0.0
C269 C 0.95891 0.8794 0.83677 0.0
C270 C 0.75254 0.93954 0.92608 0.0
C271 C 0.73759 0.92991 0.96259 0.0
C272 C 0.7569 0.90368 0.98566 0.0
C273 C 0.78856 0.88566 0.97168 0.0
C274 C 0.80202 0.89449 0.93458 0.0
C275 C 0.78479 0.92195 0.91302 0.0
C276 C 0.80423 0.92926 0.87513 0.0
C277 C 0.83572 0.90147 0.87742 0.0
C278 C 0.83401 0.88065 0.91205 0.0
C279 C 0.77593 0.91771 0.84087 0.0
C280 C 0.81969 0.97261 0.87627 0.0
H281 H 0.95982 0.81013 0.87025 0.0
H282 H 0.8893 0.7512 0.97974 0.0
H283 H 0.90054 0.84196 0.99866 0.0
H284 H 0.86223 0.87151 0.99406 0.0
H285 H 0.85552 0.82412 0.01533 0.0
H286 H 0.82061 0.77796 0.92067 0.0
H287 H 0.8241 0.77283 0.97279 0.0
H288 H 0.79813 0.81075 0.95266 0.0
H289 H 0.94289 0.89167 0.74955 0.0
H290 H 0.8539 0.9708 0.73714 0.0
H291 H 0.82933 0.95236 0.79921 0.0
H292 H 0.88681 0.81852 0.78837 0.0
H293 H 0.93629 0.82301 0.77874 0.0
H294 H 0.91914 0.79996 0.82167 0.0
H295 H 0.96311 0.91181 0.8359 0.0
H296 H 0.96545 0.87272 0.86751 0.0
H297 H 0.97999 0.86665 0.81738 0.0
H298 H 0.98243 0.75372 0.90016 0.0
C299 C 0.94361 0.79794 0.89347 0.0
C300 C 0.75528 0.11834 0.45569 0.0
C301 C 0.7767 0.08869 0.43977 0.0
C302 C 0.76054 0.06268 0.41041 0.0
C303 C 0.704 0.0979 0.4099 0.0
C304 C 0.71878 0.12235 0.44025 0.0
C305 C 0.69194 0.15303 0.45173 0.0
H306 H 0.52283 0.22993 0.41986 0.0
C307 C 0.66681 0.11071 0.39847 0.0
C308 C 0.65884 0.14246 0.42347 0.0
H309 H 0.61287 0.27613 0.49861 0.0
H310 H 0.64856 0.22023 0.48247 0.0
H311 H 0.52875 0.13523 0.43082 0.0
H312 H 0.57425 0.22171 0.35434 0.0
H313 H 0.57138 0.17829 0.32569 0.0
H314 H 0.52896 0.19709 0.34479 0.0
H315 H 0.50174 0.15844 0.39444 0.0
H316 H 0.5255 0.1147 0.38271 0.0
C317 C 0.68112 0.14744 0.49481 0.0
C318 C 0.71107 0.19377 0.44406 0.0
C319 C 0.60401 0.0565 0.27136 0.0
C320 C 0.57098 0.06567 0.25168 0.0
C321 C 0.54539 0.08894 0.27096 0.0
C322 C 0.55359 0.10486 0.3087 0.0
C323 C 0.58805 0.09794 0.32707 0.0
C324 C 0.61194 0.07289 0.30912 0.0
C325 C 0.64715 0.06887 0.33331 0.0
C326 C 0.64154 0.0978 0.36729 0.0
C327 C 0.60705 0.11485 0.36326 0.0
C328 C 0.64706 0.02608 0.34677 0.0
C329 C 0.68137 0.08177 0.30842 0.0
C330 C 0.55017 0.22835 0.43391 0.0
C331 C 0.56487 0.25816 0.46035 0.0
C332 C 0.60038 0.25373 0.47837 0.0
C333 C 0.62144 0.22146 0.46848 0.0
C334 C 0.60733 0.1937 0.4396 0.0
C335 C 0.57213 0.19758 0.423 0.0
C336 C 0.56317 0.16892 0.38936 0.0
C337 C 0.59811 0.14598 0.38929 0.0
C338 C 0.62395 0.16019 0.41898 0.0
C339 C 0.52779 0.14297 0.39948 0.0
C340 C 0.55893 0.19238 0.35154 0.0
H341 H 0.71407 0.0466 0.37281 0.0
H342 H 0.76711 0.1386 0.47841 0.0
H343 H 0.72808 0.19267 0.41712 0.0
H344 H 0.69069 0.21602 0.4387 0.0
H345 H 0.73022 0.2042 0.46885 0.0
H346 H 0.67453 0.11592 0.50007 0.0
H347 H 0.70465 0.1581 0.51507 0.0
H348 H 0.65574 0.16242 0.50291 0.0
H349 H 0.62415 0.03893 0.25678 0.0
H350 H 0.51994 0.09651 0.2559 0.0
H351 H 0.53353 0.12338 0.32136 0.0
H352 H 0.61842 0.01104 0.34483 0.0
H353 H 0.66568 0.00845 0.32852 0.0
H354 H 0.65576 0.0246 0.378 0.0
H355 H 0.67611 0.10923 0.29341 0.0
H356 H 0.70753 0.0882 0.32584 0.0
H357 H 0.6867 0.05899 0.2856 0.0
H358 H 0.7764 0.03932 0.39825 0.0
C359 C 0.72435 0.06695 0.39563 0.0
C360 C 0.40374 0.62745 0.28771 0.0
C361 C 0.38391 0.59952 0.31035 0.0
C362 C 0.34977 0.58154 0.2947 0.0
C363 C 0.35843 0.61495 0.23425 0.0
C364 C 0.39004 0.63526 0.2503 0.0
C365 C 0.4054 0.66648 0.22388 0.0
H366 H 0.3795 0.76436 0.05791 0.0
C367 C 0.35187 0.62905 0.1948 0.0
C368 C 0.37856 0.66005 0.18879 0.0
H369 H 0.46247 0.79379 0.15001 0.0
H370 H 0.44157 0.73513 0.18391 0.0
H371 H 0.31148 0.73724 0.11142 0.0
H372 H 0.39609 0.67788 0.04959 0.0
H373 H 0.35742 0.64351 0.05017 0.0
H374 H 0.35305 0.68893 0.02565 0.0
H375 H 0.31432 0.73332 0.05901 0.0
H376 H 0.28912 0.69643 0.08586 0.0
C377 C 0.40217 0.7069 0.24504 0.0
C378 C 0.44603 0.65784 0.21293 0.0
C379 C 0.24506 0.56601 0.10939 0.0
C380 C 0.23085 0.57453 0.07218 0.0
C381 C 0.25086 0.60227 0.04986 0.0
C382 C 0.28324 0.6229 0.06532 0.0
C383 C 0.2956 0.61588 0.10358 0.0
C384 C 0.2774 0.58692 0.12443 0.0
C385 C 0.29417 0.584 0.16486 0.0
C386 C 0.32539 0.61627 0.1648 0.0
C387 C 0.32566 0.63496 0.1291 0.0
C388 C 0.26363 0.59267 0.19529 0.0
C389 C 0.30994 0.54313 0.16762 0.0
C390 C 0.39332 0.75833 0.08537 0.0
C391 C 0.42243 0.78364 0.10145 0.0
C392 C 0.43948 0.77488 0.13743 0.0
C393 C 0.42743 0.74095 0.15688 0.0
C394 C 0.39785 0.71613 0.14024 0.0
C395 C 0.38189 0.72491 0.10475 0.0
C396 C 0.3517 0.69531 0.09031 0.0
C397 C 0.35071 0.66788 0.12386 0.0
C398 C 0.37747 0.68017 0.15326 0.0
C399 C 0.31462 0.7164 0.08612 0.0
C400 C 0.36491 0.67541 0.05184 0.0
H401 H 0.3123 0.57242 0.2462 0.0
H402 H 0.42988 0.64244 0.29797 0.0
H403 H 0.44753 0.62645 0.20399 0.0
H404 H 0.45621 0.67477 0.18793 0.0
H405 H 0.46579 0.66436 0.23823 0.0
H406 H 0.37897 0.70606 0.26638 0.0
H407 H 0.42857 0.71649 0.26149 0.0
H408 H 0.39504 0.72985 0.2248 0.0
H409 H 0.23011 0.54527 0.12758 0.0
H410 H 0.24084 0.60883 0.02084 0.0
H411 H 0.29647 0.64454 0.04741 0.0
H412 H 0.24026 0.60836 0.18234 0.0
H413 H 0.25105 0.56524 0.20728 0.0
H414 H 0.27476 0.6124 0.21981 0.0
H415 H 0.32679 0.53635 0.14144 0.0
H416 H 0.32896 0.54085 0.19321 0.0
H417 H 0.28669 0.52004 0.169 0.0
H418 H 0.33237 0.56156 0.3114 0.0
C419 C 0.3376 0.58829 0.25664 0.0
C420 C 0.03375 0.27785 0.56538 0.0
C421 C 0.0402 0.26225 0.52752 0.0
C422 C 0.06307 0.28462 0.50233 0.0
C423 C 0.07894 0.33217 0.55523 0.0
C424 C 0.05325 0.31278 0.5785 0.0
C425 C 0.05225 0.33146 0.61898 0.0
H426 H 0.12475 0.46526 0.75495 0.0
C427 C 0.09909 0.36367 0.57953 0.0
C428 C 0.08296 0.36409 0.61663 0.0
H429 H 0.02896 0.38227 0.76423 0.0
H430 H 0.03769 0.35816 0.69831 0.0
H431 H 0.10653 0.49211 0.66839 0.0
H432 H 0.17727 0.40187 0.70577 0.0
H433 H 0.20132 0.43113 0.67188 0.0
H434 H 0.18813 0.45285 0.71784 0.0
H435 H 0.15076 0.50365 0.69369 0.0
H436 H 0.14814 0.4945 0.64134 0.0
C437 C 0.0129 0.34758 0.62445 0.0
C438 C 0.0626 0.30074 0.64897 0.0
C439 C 0.22243 0.42422 0.53158 0.0
C440 C 0.24974 0.45132 0.54847 0.0
C441 C 0.24184 0.47124 0.58393 0.0
C442 C 0.20819 0.46236 0.60352 0.0
C443 C 0.1822 0.43318 0.58751 0.0
C444 C 0.1889 0.41588 0.55131 0.0
C445 C 0.15767 0.38671 0.53783 0.0
C446 C 0.13204 0.38774 0.57281 0.0
C447 C 0.14677 0.41451 0.60227 0.0
C448 C 0.13868 0.40187 0.50054 0.0
C449 C 0.17461 0.34643 0.53178 0.0
C450 C 0.10586 0.4417 0.74276 0.0
C451 C 0.07621 0.4255 0.76505 0.0
C452 C 0.05237 0.39481 0.74811 0.0
C453 C 0.05719 0.38118 0.70953 0.0
C454 C 0.08646 0.39801 0.68745 0.0
C455 C 0.1105 0.42747 0.70417 0.0
C456 C 0.14038 0.44126 0.67618 0.0
C457 C 0.12939 0.41616 0.63951 0.0
C458 C 0.09783 0.39084 0.64657 0.0
C459 C 0.13665 0.48527 0.66956 0.0
C460 C 0.17897 0.43161 0.69365 0.0
H461 H 0.10071 0.33428 0.49602 0.0
H462 H 0.01641 0.26173 0.58572 0.0
H463 H 0.08511 0.28264 0.63753 0.0
H464 H 0.07414 0.31389 0.67697 0.0
H465 H 0.03787 0.28067 0.65509 0.0
H466 H 0.00051 0.35593 0.59604 0.0
H467 H 0.99296 0.32541 0.63702 0.0
H468 H 0.01395 0.37474 0.64306 0.0
H469 H 0.2276 0.40899 0.50407 0.0
H470 H 0.26252 0.49235 0.59746 0.0
H471 H 0.20409 0.4778 0.63083 0.0
H472 H 0.14443 0.43395 0.49791 0.0
H473 H 0.14894 0.38737 0.47355 0.0
H474 H 0.10758 0.39762 0.501 0.0
H475 H 0.19288 0.34028 0.55733 0.0
H476 H 0.15332 0.32174 0.52891 0.0
H477 H 0.19204 0.34581 0.5052 0.0
H478 H 0.06775 0.27398 0.4727 0.0
C479 C 0.08235 0.31955 0.51596 0.0
O480 O 0.0004 0.02509 0.61762 0.0
Mg481 Mg 0.04228 0.04799 0.58176 0.0
O482 O 0.97518 0.98531 0.5701 0.0
Mg483 Mg -0.00116 0.00685 0.50909 0.0
O484 O 0.01897 0.06857 0.53234 0.0
O485 O 0.04911 0.10733 0.57839 0.0
O486 O 0.02498 0.03394 0.4493 0.0
O487 O 0.94019 0.03342 0.50042 0.0
Mg488 Mg 0.9766 0.98039 0.44588 0.0
O489 O 0.97735 0.94065 0.48894 0.0
O490 O 0.02332 0.98196 0.41079 0.0
O491 O 0.9368 0.02265 0.43716 0.0
O492 O 0.94858 0.92998 0.43014 0.0
C493 C 0.08604 0.98646 0.54227 0.0
C494 C 0.97739 -0.00282 0.60614 0.0
C495 C 0.03039 0.1033 0.54562 0.0
C496 C 0.035 0.0169 0.41757 0.0
C497 C 0.92415 0.0385 0.46761 0.0
C498 C 0.95974 0.917 0.46296 0.0
O499 O 0.08696 0.01278 0.56931 0.0
O500 O 0.05755 0.9802 0.51904 0.0
O501 O 0.43193 0.08702 0.02446 0.0
Mg502 Mg 0.4905 0.09228 0.0266 0.0
O503 O 0.43741 0.02345 0.01717 0.0
Mg504 Mg 0.5005 0.01119 0.0013 0.0
O505 O 0.51712 0.07303 0.97789 0.0
O506 O 0.51163 0.13639 0.99572 0.0
O507 O 0.56805 -0.0005 0.9877 0.0
O508 O 0.47449 0.00164 0.93706 0.0
Mg509 Mg 0.515 0.95364 0.97781 0.0
O510 O 0.47875 0.94842 0.02318 0.0
O511 O 0.56482 0.93743 0.99954 0.0
O512 O 0.51858 0.96579 0.91757 0.0
O513 O 0.48182 0.90385 0.97425 0.0
C514 C 0.52931 0.05363 0.08947 0.0
C515 C 0.41715 0.0526 0.0224 0.0
C516 C 0.52297 0.11009 0.97153 0.0
C517 C 0.58483 0.9681 0.99423 0.0
C518 C 0.49144 0.9857 0.90908 0.0
C519 C 0.47049 0.9134 0.00851 0.0
O520 O 0.51925 0.0865 0.07922 0.0
O521 O 0.52364 0.02328 0.06668 0.0
O522 O 0.44809 0.56761 0.56846 0.0
Mg523 Mg 0.4537 0.50842 0.58151 0.0
O524 O 0.48379 0.56906 0.51579 0.0
Mg525 Mg 0.49547 0.50324 0.50426 0.0
O526 O 0.50651 0.49514 0.5697 0.0
O527 O 0.4838 0.49695 0.63029 0.0
O528 O 0.50671 0.43606 0.4924 0.0
O529 O 0.56074 0.51902 0.50379 0.0
Mg530 Mg 0.52988 0.48459 0.41646 0.0
O531 O 0.48965 0.51526 0.44068 0.0
O532 O 0.51522 0.42622 0.42844 0.0
O533 O 0.58082 0.50645 0.44335 0.0
O534 O 0.49931 0.5156 0.37705 0.0
C535 C 0.40579 0.46884 0.52483 0.0
C536 C 0.46402 0.58622 0.54121 0.0
C537 C 0.51106 0.49094 0.60695 0.0
C538 C 0.51114 0.41314 0.46249 0.0
C539 C 0.58698 0.51778 0.4788 0.0
C540 C 0.48039 0.52682 0.40669 0.0
O541 O 0.41479 0.46461 0.56018 0.0
O542 O 0.42877 0.48691 0.50231 0.0
O543 O 0.98154 0.41873 0.04877 0.0
Mg544 Mg 0.00651 0.4754 0.06159 0.0
O545 O 0.02317 0.4383 0.00793 0.0
Mg546 Mg -0.0027 0.50345 0.00695 0.0
O547 O 0.97382 0.51989 0.07305 0.0
O548 O 0.99511 0.48046 0.11847 0.0
O549 O 0.97239 0.57 0.00468 0.0
O550 O 0.93927 0.47322 0.99558 0.0
Mg551 Mg 0.98727 0.5296 0.95272 0.0
O552 O 0.0199 0.48536 0.9408 0.0
O553 O 0.01578 0.58486 0.96419 0.0
O554 O 0.92688 0.52111 0.95824 0.0
O555 O 0.9958 0.52254 0.89507 0.0
C556 C 0.07858 0.51531 0.04075 0.0
C557 C 0.00726 0.41016 0.02603 0.0
C558 C 0.97493 0.50859 0.10909 0.0
C559 C 0.99024 0.59635 0.98565 0.0
C560 C 0.91541 0.49173 0.97711 0.0
C561 C 0.01691 0.49511 0.90438 0.0
O562 O 0.06642 0.48622 0.05963 0.0
O563 O 0.05572 0.53283 0.01974 0.0
C564 C 0.0652 0.09724 0.34882 0.0
C565 C 0.07726 0.07501 0.3164 0.0
H566 H 0.04302 0.09652 0.40695 0.0
C567 C 0.07876 0.03439 0.31976 0.0
H568 H 0.06419 0.12867 0.3475 0.0
C569 C 0.06741 0.01631 0.35379 0.0
C570 C 0.05375 0.0381 0.3855 0.0
H571 H 0.08724 0.01605 0.29545 0.0
H572 H 0.06791 0.98476 0.35455 0.0
C573 C 0.0536 0.07895 0.38311 0.0
C574 C 0.49133 0.97503 0.79928 0.0
C575 C 0.4528 0.96744 0.79019 0.0
H576 H 0.53363 0.98678 0.84425 0.0
C577 C 0.42667 0.97262 0.82006 0.0
H578 H 0.51221 0.97256 0.77686 0.0
C579 C 0.43907 0.98193 0.85871 0.0
C580 C 0.47774 0.98564 0.86806 0.0
H581 H 0.39679 0.96694 0.81418 0.0
H582 H 0.41854 0.98329 0.8816 0.0
C583 C 0.50365 0.98352 0.83782 0.0
C584 C 0.58869 0.43635 0.64754 0.0
C585 C 0.60032 0.46196 0.67927 0.0
H586 H 0.55067 0.42619 0.59814 0.0
C587 C 0.58918 0.50051 0.68008 0.0
H588 H 0.59741 0.40662 0.64603 0.0
C589 C 0.56276 0.51149 0.65281 0.0
C590 C 0.54763 0.48428 0.62424 0.0
H591 H 0.59754 0.52085 0.70416 0.0
H592 H 0.55151 0.54005 0.65631 0.0
C593 C 0.56231 0.44752 0.62002 0.0
C594 C 0.93756 0.5823 0.18085 0.0
C595 C 0.92446 0.55746 0.21039 0.0
H596 H 0.96335 0.58624 0.12453 0.0
C597 C 0.92288 0.51687 0.20303 0.0
H598 H 0.93862 0.61378 0.18555 0.0
C599 C 0.93703 0.5014 0.1685 0.0
C600 C 0.9527 0.52607 0.14031 0.0
H601 H 0.91317 0.49693 0.22509 0.0
H602 H 0.93746 0.46989 0.16469 0.0
C603 C 0.95139 0.56668 0.14585 0.0
C604 C 0.31338 0.06641 0.01745 0.0
C605 C 0.30267 0.05691 0.05561 0.0
H606 H 0.35851 0.07229 0.97688 0.0
C607 C 0.32927 0.04019 0.08005 0.0
H608 H 0.29374 0.07837 0.99726 0.0
C609 C 0.36581 0.03508 0.06749 0.0
C610 C 0.37687 0.04721 0.03058 0.0
H611 H 0.32286 0.03315 0.10988 0.0
H612 H 0.38622 0.02441 0.08779 0.0
C613 C 0.35029 0.06226 0.00536 0.0
C614 C 0.16007 0.92472 0.57972 0.0
C615 C 0.18927 0.93324 0.55388 0.0
H616 H 0.10345 0.93449 0.59526 0.0
C617 C 0.18175 0.95306 0.5196 0.0
H618 H 0.16545 0.9097 0.60644 0.0
C619 C 0.1461 0.96717 0.5131 0.0
C620 C 0.11792 0.9614 0.54083 0.0
H621 H 0.20414 0.96029 0.49961 0.0
H622 H 0.1416 0.98531 0.48833 0.0
C623 C 0.12468 0.93874 0.57327 0.0
C624 C 0.8101 0.49395 0.96698 0.0
C625 C 0.7985 0.45426 0.97056 0.0
H626 H 0.85642 0.5367 0.96537 0.0
C627 C 0.8254 0.42789 0.98088 0.0
H628 H 0.78995 0.51517 0.95998 0.0
C629 C 0.86341 0.44044 0.98465 0.0
C630 C 0.87515 0.47936 0.97754 0.0
H631 H 0.81754 0.39707 0.98351 0.0
H632 H 0.88377 0.41922 0.99101 0.0
C633 C 0.84812 0.50627 0.96992 0.0
C634 C 0.6812 0.5712 0.4866 0.0
C635 C 0.70423 0.53971 0.4805 0.0
H636 H 0.62461 0.58872 0.49184 0.0
C637 C 0.68865 0.50136 0.48379 0.0
H638 H 0.69247 0.60108 0.48398 0.0
C639 C 0.65006 0.49449 0.48875 0.0
C640 C 0.62652 0.5258 0.49055 0.0
H641 H 0.70585 0.47663 0.47967 0.0
H642 H 0.63813 0.46456 0.48751 0.0
C643 C 0.64244 0.56425 0.49137 0.0
C644 C 0.06041 0.31749 0.0113 0.0
C645 C 0.06287 0.30489 0.05018 0.0
H646 H 0.04117 0.36107 0.97277 0.0
C647 C 0.04765 0.32803 0.08 0.0
H648 H 0.07171 0.30061 0.98742 0.0
C649 C 0.02921 0.36134 0.07135 0.0
C650 C 0.02623 0.37364 0.03273 0.0
H651 H 0.05029 0.32089 0.11048 0.0
H652 H 0.01796 0.37815 0.09539 0.0
C653 C 0.04266 0.35191 0.00273 0.0
C654 C 0.59307 0.1631 0.91302 0.0
C655 C 0.56868 0.18559 0.89163 0.0
H656 H 0.59703 0.11893 0.95548 0.0
C657 C 0.53042 0.173 0.88784 0.0
H658 H 0.62291 0.17138 0.91546 0.0
C659 C 0.51603 0.14218 0.90968 0.0
C660 C 0.53962 0.12389 0.93563 0.0
H661 H 0.5108 0.18948 0.87161 0.0
H662 H 0.4858 0.13612 0.91009 0.0
C663 C 0.57851 0.13253 0.93524 0.0
C664 C 0.95628 0.81622 0.50706 0.0
C665 C 0.94895 0.79221 0.47311 0.0
H666 H 0.96602 0.87526 0.53074 0.0
C667 C 0.94486 0.80971 0.43694 0.0
H668 H 0.95909 0.80337 0.53538 0.0
C669 C 0.94812 0.84997 0.43441 0.0
C670 C 0.95565 0.87431 0.46795 0.0
H671 H 0.93812 0.79225 0.41035 0.0
H672 H 0.94483 0.86194 0.40572 0.0
C673 C 0.96009 0.85716 0.50442 0.0
C674 C 0.44387 0.68718 0.50729 0.0
C675 C 0.44119 0.70755 0.54358 0.0
H676 H 0.45428 0.63238 0.47779 0.0
C677 C 0.44908 0.68833 0.57813 0.0
H678 H 0.43794 0.70128 0.4802 0.0
C679 C 0.45808 0.64947 0.57672 0.0
C680 C 0.45971 0.62868 0.54077 0.0
H681 H 0.44664 0.70276 0.60662 0.0
H682 H 0.46282 0.63528 0.60406 0.0
C683 C 0.45348 0.648 0.50587 0.0
C684 C 0.9304 0.92315 0.67243 0.0
C685 C 0.91729 0.94814 0.70211 0.0
H686 H 0.95888 0.91911 0.61748 0.0
C687 C 0.9213 0.98874 0.69769 0.0
H688 H 0.9275 0.89171 0.67502 0.0
C689 C 0.93911 0.00415 0.66526 0.0
C690 C 0.95308 0.97945 0.63608 0.0
H691 H 0.91191 0.00882 0.72012 0.0
H692 H 0.94293 0.03566 0.66353 0.0
C693 C 0.94788 0.93873 0.63937 0.0
C694 C 0.54845 0.0233 0.19311 0.0
C695 C 0.56634 0.05816 0.20912 0.0
H696 H 0.52308 0.99391 0.14143 0.0
C697 C 0.57645 0.08865 0.18453 0.0
H698 H 0.54041 -0.00047 0.21188 0.0
C699 C 0.56665 0.08558 0.1449 0.0
C700 C 0.54652 0.0519 0.12897 0.0
H701 H 0.5903 0.11571 0.19642 0.0
H702 H 0.57326 0.11046 0.12701 0.0
C703 C 0.53875 0.02006 0.15299 0.0
C704 C 0.43017 0.60786 0.36782 0.0
C705 C 0.40085 0.58558 0.34735 0.0
H706 H 0.47964 0.6059 0.40441 0.0
C707 C 0.39218 0.54694 0.35887 0.0
H708 H 0.43668 0.63828 0.36189 0.0
C709 C 0.41543 0.52951 0.38531 0.0
C710 C 0.4482 0.54984 0.39985 0.0
H711 H 0.37013 0.52815 0.34466 0.0
H712 H 0.41058 0.49849 0.39001 0.0
C713 C 0.45427 0.58977 0.39325 0.0
C714 C 0.05556 0.41938 0.83511 0.0
C715 C 0.06734 0.44295 0.80405 0.0
H716 H 0.03098 0.41749 0.89219 0.0
C717 C 0.06657 0.48371 0.80893 0.0
H718 H 0.05613 0.38785 0.8323 0.0
C719 C 0.05196 0.50036 0.84272 0.0
C720 C 0.03824 0.47681 0.87277 0.0
H721 H 0.0751 0.50271 0.78562 0.0
H722 H 0.05008 0.53181 0.84472 0.0
C723 C 0.04142 0.43624 0.86944 0.0
C724 C 0.67643 0.91945 0.99683 0.0
C725 C 0.70043 0.94392 0.97502 0.0
H726 H 0.62268 0.90893 0.02132 0.0
C727 C 0.68715 0.97985 0.9632 0.0
H728 H 0.68457 0.8912 0.00584 0.0
C729 C 0.65016 0.98973 0.97123 0.0
C730 C 0.626 0.96399 0.99152 0.0
H731 H 0.70492 -5e-05 0.94693 0.0
H732 H 0.64005 0.01643 0.96012 0.0
C733 C 0.64027 0.92955 0.00537 0.0
C734 C 0.84335 0.08661 0.42119 0.0
C735 C 0.81666 0.08518 0.45081 0.0
H736 H 0.89843 0.07345 0.40363 0.0
C737 C 0.82748 0.07398 0.48833 0.0
H738 H 0.83566 0.09532 0.39208 0.0
C739 C 0.86375 0.06134 0.49509 0.0
C740 C 0.8893 0.05959 0.46426 0.0
H741 H 0.80719 0.07242 0.5115 0.0
H742 H 0.87082 0.05044 0.52348 0.0
C743 C 0.87921 0.07392 0.4278 0.0
C744 C 0.18205 0.51873 0.06666 0.0
C745 C 0.19338 0.55759 0.05882 0.0
H746 H 0.13667 0.4749 0.06709 0.0
C747 C 0.16732 0.58143 0.04176 0.0
H748 H 0.20169 0.49949 0.07916 0.0
C749 C 0.1302 0.56721 0.03439 0.0
C750 C 0.11846 0.52909 0.04439 0.0
H751 H 0.17503 0.61169 0.03587 0.0
H752 H 0.11036 0.58661 0.0225 0.0
C753 C 0.14488 0.50467 0.05972 0.0
C754 C 0.30542 0.49237 0.5253 0.0
C755 C 0.28792 0.45537 0.53186 0.0
H756 H 0.35733 0.5253 0.51505 0.0
C757 C 0.30872 0.4221 0.52687 0.0
H758 H 0.28995 0.51843 0.52896 0.0
C759 C 0.3472 0.42606 0.5193 0.0
C760 C 0.3653 0.46324 0.51545 0.0
H761 H 0.29597 0.39326 0.53209 0.0
H762 H 0.36343 0.40037 0.51971 0.0
C763 C 0.34375 0.49622 0.51668 0.0
C764 C 0.96305 0.68134 0.92658 0.0
C765 C 0.94825 0.70722 0.95421 0.0
H766 H 0.98776 0.62742 0.91504 0.0
C767 C 0.94515 0.69519 0.99325 0.0
H768 H 0.96442 0.68819 0.89594 0.0
C769 C 0.95793 0.65881 0.00427 0.0
C770 C 0.97454 0.63432 0.97654 0.0
H771 H 0.93363 0.71412 0.01539 0.0
H772 H 0.95575 0.65037 0.03442 0.0
C773 C 0.97632 0.646 0.93759 0.0
C774 C 0.44122 0.85536 0.09645 0.0
C775 C 0.43531 0.8177 0.07889 0.0
H776 H 0.45622 0.91607 0.0876 0.0
C777 C 0.43924 0.81257 0.0383 0.0
H778 H 0.438 0.86005 0.12769 0.0
C779 C 0.4483 0.84426 0.01552 0.0
C780 C 0.45469 0.88196 0.03274 0.0
H781 H 0.43541 0.78381 0.024 0.0
H782 H 0.45134 0.83881 0.98435 0.0
C783 C 0.45091 0.8874 0.07346 0.0
C784 C 0.05622 0.1967 0.50058 0.0
C785 C 0.02957 0.22024 0.51787 0.0
H786 H 0.07637 0.13927 0.49491 0.0
C787 C -0.00299 0.20182 0.53342 0.0
H788 H 0.08175 0.20962 0.48846 0.0
C789 C 0.99418 0.16125 0.53714 0.0
C790 C 0.02348 0.13867 0.52474 0.0
H791 H 0.97553 0.21898 0.54616 0.0
H792 H 0.97123 0.14822 0.55361 0.0
C793 C 0.05318 0.15619 0.50409 0.0
C794 C 0.54837 0.3195 0.49908 0.0
C795 C 0.54554 0.29563 0.46446 0.0
H796 H 0.53887 0.37565 0.5262 0.0
C797 C 0.52621 0.30932 0.43188 0.0
H798 H 0.56258 0.30987 0.52496 0.0
C799 C 0.51181 0.34609 0.43308 0.0
C800 C 0.51695 0.37104 0.4665 0.0
H801 H 0.52397 0.29281 0.40424 0.0
H802 H 0.49868 0.35599 0.40665 0.0
C803 C 0.53421 0.35694 0.50008 0.0
loop_
_geom_bond_atom_site_label_1
_geom_bond_atom_site_label_2
_geom_bond_distance
_geom_bond_site_symmetry_2
_ccdc_geom_bond_type
C0 C1 1.391 . S
C0 C4 1.391 . S
C0 H42 0.948 . S
C1 C0 1.391 . S
C1 C2 1.391 . S
C2 C1 1.391 . S
C2 H58 0.947 . S
C2 C59 1.392 . S
C3 C4 1.391 . S
C3 C7 1.397 . S
C3 C59 1.419 . S
C4 C0 1.391 . S
C4 C3 1.391 . S
C4 C5 1.399 . S
C5 C4 1.399 . S
C5 C8 1.396 . S
C5 C17 1.453 . S
C5 C18 1.684 . S
H6 C30 0.948 . S
C7 C3 1.397 . S
C7 C8 1.394 . S
C7 C26 1.723 . S
C8 C5 1.396 . S
C8 C7 1.394 . S
C8 C38 1.723 . S
H9 C32 0.947 . S
H10 C33 0.948 . S
H11 C39 0.982 . S
H12 C40 0.979 . S
H13 C40 0.980 . S
H14 C40 0.983 . S
H15 C39 0.979 . S
H16 C39 0.977 . S
C17 C5 1.453 . S
C17 H46 0.982 . S
C17 H47 0.979 . S
C17 H48 0.977 . S
C18 C5 1.684 . S
C18 H43 0.979 . S
C18 H44 0.980 . S
C18 H45 0.983 . S
C19 C20 1.391 . S
C19 C24 1.391 . S
C19 H49 0.948 . S
C20 C19 1.391 . S
C20 C21 1.391 . S
C21 C20 1.391 . S
C21 C22 1.392 . S
C21 H50 0.947 . S
C22 C21 1.392 . S
C22 C23 1.419 . S
C22 H51 0.948 . S
C23 C22 1.419 . S
C23 C24 1.391 . S
C23 C27 1.397 . S
C24 C19 1.391 . S
C24 C23 1.391 . S
C24 C25 1.399 . S
C25 C24 1.399 . S
C25 C26 1.396 . S
C25 C28 1.453 . S
C25 C29 1.684 . S
C26 C7 1.723 . S
C26 C25 1.396 . S
C26 C27 1.394 . S
C27 C23 1.397 . S
C27 C26 1.394 . S
C27 C37 1.723 . S
C28 C25 1.453 . S
C28 H52 0.982 . S
C28 H53 0.979 . S
C28 H54 0.977 . S
C29 C25 1.684 . S
C29 H55 0.979 . S
C29 H56 0.980 . S
C29 H57 0.983 . S
C30 H6 0.948 . S
C30 C31 1.391 . S
C30 C35 1.391 . S
C31 C30 1.391 . S
C31 C32 1.391 . S
C32 H9 0.947 . S
C32 C31 1.391 . S
C32 C33 1.392 . S
C33 H10 0.948 . S
C33 C32 1.392 . S
C33 C34 1.419 . S
C34 C33 1.419 . S
C34 C35 1.391 . S
C34 C38 1.397 . S
C35 C30 1.391 . S
C35 C34 1.391 . S
C35 C36 1.399 . S
C36 C35 1.399 . S
C36 C37 1.396 . S
C36 C39 1.453 . S
C36 C40 1.684 . S
C37 C27 1.723 . S
C37 C36 1.396 . S
C37 C38 1.394 . S
C38 C8 1.723 . S
C38 C34 1.397 . S
C38 C37 1.394 . S
C39 H11 0.982 . S
C39 H15 0.979 . S
C39 H16 0.977 . S
C39 C36 1.453 . S
C40 H12 0.979 . S
C40 H13 0.980 . S
C40 H14 0.983 . S
C40 C36 1.684 . S
H41 C59 0.948 . S
H42 C0 0.948 . S
H43 C18 0.979 . S
H44 C18 0.980 . S
H45 C18 0.983 . S
H46 C17 0.982 . S
H47 C17 0.979 . S
H48 C17 0.977 . S
H49 C19 0.948 . S
H50 C21 0.947 . S
H51 C22 0.948 . S
H52 C28 0.982 . S
H53 C28 0.979 . S
H54 C28 0.977 . S
H55 C29 0.979 . S
H56 C29 0.980 . S
H57 C29 0.983 . S
H58 C2 0.947 . S
C59 C2 1.392 . S
C59 C3 1.419 . S
C59 H41 0.948 . S
C60 C61 1.391 . S
C60 C64 1.391 . S
C60 H102 0.948 . S
C61 C60 1.391 . S
C61 C62 1.391 . S
C62 C61 1.391 . S
C62 H118 0.947 . S
C62 C119 1.392 . S
C63 C64 1.391 . S
C63 C67 1.397 . S
C63 C119 1.419 . S
C64 C60 1.391 . S
C64 C63 1.391 . S
C64 C65 1.399 . S
C65 C64 1.399 . S
C65 C68 1.396 . S
C65 C77 1.453 . S
C65 C78 1.684 . S
H66 C90 0.948 . S
C67 C63 1.397 . S
C67 C68 1.394 . S
C67 C86 1.723 . S
C68 C65 1.396 . S
C68 C67 1.394 . S
C68 C98 1.723 . S
H69 C92 0.947 . S
H70 C93 0.948 . S
H71 C99 0.982 . S
H72 C100 0.979 . S
H73 C100 0.980 . S
H74 C100 0.983 . S
H75 C99 0.979 . S
H76 C99 0.977 . S
C77 C65 1.453 . S
C77 H106 0.982 . S
C77 H107 0.979 . S
C77 H108 0.977 . S
C78 C65 1.684 . S
C78 H103 0.979 . S
C78 H104 0.980 . S
C78 H105 0.983 . S
C79 C80 1.391 . S
C79 C84 1.391 . S
C79 H109 0.948 . S
C80 C79 1.391 . S
C80 C81 1.391 . S
C81 C80 1.391 . S
C81 C82 1.392 . S
C81 H110 0.947 . S
C82 C81 1.392 . S
C82 C83 1.419 . S
C82 H111 0.948 . S
C83 C82 1.419 . S
C83 C84 1.391 . S
C83 C87 1.397 . S
C84 C79 1.391 . S
C84 C83 1.391 . S
C84 C85 1.399 . S
C85 C84 1.399 . S
C85 C86 1.396 . S
C85 C88 1.453 . S
C85 C89 1.684 . S
C86 C67 1.723 . S
C86 C85 1.396 . S
C86 C87 1.394 . S
C87 C83 1.397 . S
C87 C86 1.394 . S
C87 C97 1.723 . S
C88 C85 1.453 . S
C88 H112 0.982 . S
C88 H113 0.979 . S
C88 H114 0.977 . S
C89 C85 1.684 . S
C89 H115 0.979 . S
C89 H116 0.980 . S
C89 H117 0.983 . S
C90 H66 0.948 . S
C90 C91 1.391 . S
C90 C95 1.391 . S
C91 C90 1.391 . S
C91 C92 1.391 . S
C92 H69 0.947 . S
C92 C91 1.391 . S
C92 C93 1.392 . S
C93 H70 0.948 . S
C93 C92 1.392 . S
C93 C94 1.419 . S
C94 C93 1.419 . S
C94 C95 1.391 . S
C94 C98 1.397 . S
C95 C90 1.391 . S
C95 C94 1.391 . S
C95 C96 1.399 . S
C96 C95 1.399 . S
C96 C97 1.396 . S
C96 C99 1.453 . S
C96 C100 1.684 . S
C97 C87 1.723 . S
C97 C96 1.396 . S
C97 C98 1.394 . S
C98 C68 1.723 . S
C98 C94 1.397 . S
C98 C97 1.394 . S
C99 H71 0.982 . S
C99 H75 0.979 . S
C99 H76 0.977 . S
C99 C96 1.453 . S
C100 H72 0.979 . S
C100 H73 0.980 . S
C100 H74 0.983 . S
C100 C96 1.684 . S
H101 C119 0.948 . S
H102 C60 0.948 . S
H103 C78 0.979 . S
H104 C78 0.980 . S
H105 C78 0.983 . S
H106 C77 0.982 . S
H107 C77 0.979 . S
H108 C77 0.977 . S
H109 C79 0.948 . S
H110 C81 0.947 . S
H111 C82 0.948 . S
H112 C88 0.982 . S
H113 C88 0.979 . S
H114 C88 0.977 . S
H115 C89 0.979 . S
H116 C89 0.980 . S
H117 C89 0.983 . S
H118 C62 0.947 . S
C119 C62 1.392 . S
C119 C63 1.419 . S
C119 H101 0.948 . S
C120 C121 1.391 . S
C120 C124 1.391 . S
C120 H162 0.948 . S
C121 C120 1.391 . S
C121 C122 1.391 . S
C122 C121 1.391 . S
C122 H178 0.947 . S
C122 C179 1.392 . S
C123 C124 1.391 . S
C123 C127 1.397 . S
C123 C179 1.419 . S
C124 C120 1.391 . S
C124 C123 1.391 . S
C124 C125 1.399 . S
C125 C124 1.399 . S
C125 C128 1.396 . S
C125 C137 1.453 . S
C125 C138 1.684 . S
H126 C150 0.948 . S
C127 C123 1.397 . S
C127 C128 1.394 . S
C127 C146 1.723 . S
C128 C125 1.396 . S
C128 C127 1.394 . S
C128 C158 1.723 . S
H129 C152 0.947 . S
H130 C153 0.948 . S
H131 C159 0.982 . S
H132 C160 0.979 . S
H133 C160 0.980 . S
H134 C160 0.983 . S
H135 C159 0.979 . S
H136 C159 0.977 . S
C137 C125 1.453 . S
C137 H166 0.982 . S
C137 H167 0.979 . S
C137 H168 0.977 . S
C138 C125 1.684 . S
C138 H163 0.979 . S
C138 H164 0.980 . S
C138 H165 0.983 . S
C139 C140 1.391 . S
C139 C144 1.391 . S
C139 H169 0.948 . S
C140 C139 1.391 . S
C140 C141 1.391 . S
C141 C140 1.391 . S
C141 C142 1.392 . S
C141 H170 0.947 . S
C142 C141 1.392 . S
C142 C143 1.419 . S
C142 H171 0.948 . S
C143 C142 1.419 . S
C143 C144 1.391 . S
C143 C147 1.397 . S
C144 C139 1.391 . S
C144 C143 1.391 . S
C144 C145 1.399 . S
C145 C144 1.399 . S
C145 C146 1.396 . S
C145 C148 1.453 . S
C145 C149 1.684 . S
C146 C127 1.723 . S
C146 C145 1.396 . S
C146 C147 1.394 . S
C147 C143 1.397 . S
C147 C146 1.394 . S
C147 C157 1.723 . S
C148 C145 1.453 . S
C148 H172 0.982 . S
C148 H173 0.979 . S
C148 H174 0.977 . S
C149 C145 1.684 . S
C149 H175 0.979 . S
C149 H176 0.980 . S
C149 H177 0.983 . S
C150 H126 0.948 . S
C150 C151 1.391 . S
C150 C155 1.391 . S
C151 C150 1.391 . S
C151 C152 1.391 . S
C152 H129 0.947 . S
C152 C151 1.391 . S
C152 C153 1.392 . S
C153 H130 0.948 . S
C153 C152 1.392 . S
C153 C154 1.419 . S
C154 C153 1.419 . S
C154 C155 1.391 . S
C154 C158 1.397 . S
C155 C150 1.391 . S
C155 C154 1.391 . S
C155 C156 1.399 . S
C156 C155 1.399 . S
C156 C157 1.396 . S
C156 C159 1.453 . S
C156 C160 1.684 . S
C157 C147 1.723 . S
C157 C156 1.396 . S
C157 C158 1.394 . S
C158 C128 1.723 . S
C158 C154 1.397 . S
C158 C157 1.394 . S
C159 H131 0.982 . S
C159 H135 0.979 . S
C159 H136 0.977 . S
C159 C156 1.453 . S
C160 H132 0.979 . S
C160 H133 0.980 . S
C160 H134 0.983 . S
C160 C156 1.684 . S
H161 C179 0.948 . S
H162 C120 0.948 . S
H163 C138 0.979 . S
H164 C138 0.980 . S
H165 C138 0.983 . S
H166 C137 0.982 . S
H167 C137 0.979 . S
H168 C137 0.977 . S
H169 C139 0.948 . S
H170 C141 0.947 . S
H171 C142 0.948 . S
H172 C148 0.982 . S
H173 C148 0.979 . S
H174 C148 0.977 . S
H175 C149 0.979 . S
H176 C149 0.980 . S
H177 C149 0.983 . S
H178 C122 0.947 . S
C179 C122 1.392 . S
C179 C123 1.419 . S
C179 H161 0.948 . S
C180 C181 1.391 . S
C180 C184 1.391 . S
C180 H222 0.948 . S
C181 C180 1.391 . S
C181 C182 1.391 . S
C182 C181 1.391 . S
C182 H238 0.947 . S
C182 C239 1.392 . S
C183 C184 1.391 . S
C183 C187 1.397 . S
C183 C239 1.419 . S
C184 C180 1.391 . S
C184 C183 1.391 . S
C184 C185 1.399 . S
C185 C184 1.399 . S
C185 C188 1.396 . S
C185 C197 1.453 . S
C185 C198 1.684 . S
H186 C210 0.948 . S
C187 C183 1.397 . S
C187 C188 1.394 . S
C187 C206 1.723 . S
C188 C185 1.396 . S
C188 C187 1.394 . S
C188 C218 1.723 . S
H189 C212 0.947 . S
H190 C213 0.948 . S
H191 C219 0.982 . S
H192 C220 0.979 . S
H193 C220 0.980 . S
H194 C220 0.983 . S
H195 C219 0.979 . S
H196 C219 0.977 . S
C197 C185 1.453 . S
C197 H226 0.982 . S
C197 H227 0.979 . S
C197 H228 0.977 . S
C198 C185 1.684 . S
C198 H223 0.979 . S
C198 H224 0.980 . S
C198 H225 0.983 . S
C199 C200 1.391 . S
C199 C204 1.391 . S
C199 H229 0.948 . S
C200 C199 1.391 . S
C200 C201 1.391 . S
C201 C200 1.391 . S
C201 C202 1.392 . S
C201 H230 0.947 . S
C202 C201 1.392 . S
C202 C203 1.419 . S
C202 H231 0.948 . S
C203 C202 1.419 . S
C203 C204 1.391 . S
C203 C207 1.397 . S
C204 C199 1.391 . S
C204 C203 1.391 . S
C204 C205 1.399 . S
C205 C204 1.399 . S
C205 C206 1.396 . S
C205 C208 1.453 . S
C205 C209 1.684 . S
C206 C187 1.723 . S
C206 C205 1.396 . S
C206 C207 1.394 . S
C207 C203 1.397 . S
C207 C206 1.394 . S
C207 C217 1.723 . S
C208 C205 1.453 . S
C208 H232 0.982 . S
C208 H233 0.979 . S
C208 H234 0.977 . S
C209 C205 1.684 . S
C209 H235 0.979 . S
C209 H236 0.980 . S
C209 H237 0.983 . S
C210 H186 0.948 . S
C210 C211 1.391 . S
C210 C215 1.391 . S
C211 C210 1.391 . S
C211 C212 1.391 . S
C212 H189 0.947 . S
C212 C211 1.391 . S
C212 C213 1.392 . S
C213 H190 0.948 . S
C213 C212 1.392 . S
C213 C214 1.419 . S
C214 C213 1.419 . S
C214 C215 1.391 . S
C214 C218 1.397 . S
C215 C210 1.391 . S
C215 C214 1.391 . S
C215 C216 1.399 . S
C216 C215 1.399 . S
C216 C217 1.396 . S
C216 C219 1.453 . S
C216 C220 1.684 . S
C217 C207 1.723 . S
C217 C216 1.396 . S
C217 C218 1.394 . S
C218 C188 1.723 . S
C218 C214 1.397 . S
C218 C217 1.394 . S
C219 H191 0.982 . S
C219 H195 0.979 . S
C219 H196 0.977 . S
C219 C216 1.453 . S
C220 H192 0.979 . S
C220 H193 0.980 . S
C220 H194 0.983 . S
C220 C216 1.684 . S
H221 C239 0.948 . S
H222 C180 0.948 . S
H223 C198 0.979 . S
H224 C198 0.980 . S
H225 C198 0.983 . S
H226 C197 0.982 . S
H227 C197 0.979 . S
H228 C197 0.977 . S
H229 C199 0.948 . S
H230 C201 0.947 . S
H231 C202 0.948 . S
H232 C208 0.982 . S
H233 C208 0.979 . S
H234 C208 0.977 . S
H235 C209 0.979 . S
H236 C209 0.980 . S
H237 C209 0.983 . S
H238 C182 0.947 . S
C239 C182 1.392 . S
C239 C183 1.419 . S
C239 H221 0.948 . S
C240 C241 1.391 . S
C240 C244 1.391 . S
C240 H282 0.948 . S
C241 C240 1.391 . S
C241 C242 1.391 . S
C242 C241 1.391 . S
C242 H298 0.947 . S
C242 C299 1.392 . S
C243 C244 1.391 . S
C243 C247 1.397 . S
C243 C299 1.419 . S
C244 C240 1.391 . S
C244 C243 1.391 . S
C244 C245 1.399 . S
C245 C244 1.399 . S
C245 C248 1.396 . S
C245 C257 1.453 . S
C245 C258 1.684 . S
H246 C270 0.948 . S
C247 C243 1.397 . S
C247 C248 1.394 . S
C247 C266 1.723 . S
C248 C245 1.396 . S
C248 C247 1.394 . S
C248 C278 1.723 . S
H249 C272 0.947 . S
H250 C273 0.948 . S
H251 C279 0.982 . S
H252 C280 0.980 . S
H253 C280 0.980 . S
H254 C280 0.983 1_545 S
H255 C279 0.979 . S
H256 C279 0.977 . S
C257 C245 1.453 . S
C257 H286 0.982 . S
C257 H287 0.979 . S
C257 H288 0.977 . S
C258 C245 1.684 . S
C258 H283 0.979 . S
C258 H284 0.980 . S
C258 H285 0.983 1_556 S
C259 C260 1.391 . S
C259 C264 1.391 . S
C259 H289 0.948 . S
C260 C259 1.391 . S
C260 C261 1.391 . S
C261 C260 1.391 . S
C261 C262 1.392 . S
C261 H290 0.947 . S
C262 C261 1.392 . S
C262 C263 1.419 . S
C262 H291 0.948 . S
C263 C262 1.419 . S
C263 C264 1.391 . S
C263 C267 1.397 . S
C264 C259 1.391 . S
C264 C263 1.391 . S
C264 C265 1.399 . S
C265 C264 1.399 . S
C265 C266 1.396 . S
C265 C268 1.453 . S
C265 C269 1.684 . S
C266 C247 1.723 . S
C266 C265 1.396 . S
C266 C267 1.394 . S
C267 C263 1.397 . S
C267 C266 1.394 . S
C267 C277 1.723 . S
C268 C265 1.453 . S
C268 H292 0.982 . S
C268 H293 0.979 . S
C268 H294 0.977 . S
C269 C265 1.684 . S
C269 H295 0.979 . S
C269 H296 0.980 . S
C269 H297 0.983 . S
C270 H246 0.948 . S
C270 C271 1.391 . S
C270 C275 1.391 . S
C271 C270 1.391 . S
C271 C272 1.391 . S
C272 H249 0.947 . S
C272 C271 1.391 . S
C272 C273 1.392 . S
C273 H250 0.948 . S
C273 C272 1.392 . S
C273 C274 1.419 . S
C274 C273 1.419 . S
C274 C275 1.391 . S
C274 C278 1.397 . S
C275 C270 1.391 . S
C275 C274 1.391 . S
C275 C276 1.399 . S
C276 C275 1.399 . S
C276 C277 1.396 . S
C276 C279 1.453 . S
C276 C280 1.684 . S
C277 C267 1.723 . S
C277 C276 1.396 . S
C277 C278 1.394 . S
C278 C248 1.723 . S
C278 C274 1.397 . S
C278 C277 1.394 . S
C279 H251 0.982 . S
C279 H255 0.979 . S
C279 H256 0.977 . S
C279 C276 1.453 . S
C280 H252 0.980 . S
C280 H253 0.980 . S
C280 H254 0.983 1_565 S
C280 C276 1.684 . S
H281 C299 0.948 . S
H282 C240 0.948 . S
H283 C258 0.979 . S
H284 C258 0.980 . S
H285 C258 0.983 1_554 S
H286 C257 0.982 . S
H287 C257 0.979 . S
H288 C257 0.977 . S
H289 C259 0.948 . S
H290 C261 0.947 . S
H291 C262 0.948 . S
H292 C268 0.982 . S
H293 C268 0.979 . S
H294 C268 0.977 . S
H295 C269 0.979 . S
H296 C269 0.980 . S
H297 C269 0.983 . S
H298 C242 0.947 . S
C299 C242 1.392 . S
C299 C243 1.419 . S
C299 H281 0.948 . S
C300 C301 1.391 . S
C300 C304 1.391 . S
C300 H342 0.948 . S
C301 C300 1.391 . S
C301 C302 1.391 . S
C302 C301 1.391 . S
C302 H358 0.947 . S
C302 C359 1.392 . S
C303 C304 1.391 . S
C303 C307 1.397 . S
C303 C359 1.419 . S
C304 C300 1.391 . S
C304 C303 1.391 . S
C304 C305 1.399 . S
C305 C304 1.399 . S
C305 C308 1.396 . S
C305 C317 1.453 . S
C305 C318 1.684 . S
H306 C330 0.948 . S
C307 C303 1.397 . S
C307 C308 1.394 . S
C307 C326 1.723 . S
C308 C305 1.396 . S
C308 C307 1.394 . S
C308 C338 1.723 . S
H309 C332 0.947 . S
H310 C333 0.948 . S
H311 C339 0.982 . S
H312 C340 0.979 . S
H313 C340 0.980 . S
H314 C340 0.983 . S
H315 C339 0.979 . S
H316 C339 0.977 . S
C317 C305 1.453 . S
C317 H346 0.982 . S
C317 H347 0.979 . S
C317 H348 0.977 . S
C318 C305 1.684 . S
C318 H343 0.979 . S
C318 H344 0.980 . S
C318 H345 0.983 . S
C319 C320 1.391 . S
C319 C324 1.391 . S
C319 H349 0.948 . S
C320 C319 1.391 . S
C320 C321 1.391 . S
C321 C320 1.391 . S
C321 C322 1.392 . S
C321 H350 0.947 . S
C322 C321 1.392 . S
C322 C323 1.419 . S
C322 H351 0.948 . S
C323 C322 1.419 . S
C323 C324 1.391 . S
C323 C327 1.397 . S
C324 C319 1.391 . S
C324 C323 1.391 . S
C324 C325 1.399 . S
C325 C324 1.399 . S
C325 C326 1.396 . S
C325 C328 1.453 . S
C325 C329 1.684 . S
C326 C307 1.723 . S
C326 C325 1.396 . S
C326 C327 1.394 . S
C327 C323 1.397 . S
C327 C326 1.394 . S
C327 C337 1.723 . S
C328 C325 1.453 . S
C328 H352 0.982 . S
C328 H353 0.979 . S
C328 H354 0.977 . S
C329 C325 1.684 . S
C329 H355 0.979 . S
C329 H356 0.980 . S
C329 H357 0.983 . S
C330 H306 0.948 . S
C330 C331 1.391 . S
C330 C335 1.391 . S
C331 C330 1.391 . S
C331 C332 1.391 . S
C332 H309 0.947 . S
C332 C331 1.391 . S
C332 C333 1.392 . S
C333 H310 0.948 . S
C333 C332 1.392 . S
C333 C334 1.419 . S
C334 C333 1.419 . S
C334 C335 1.391 . S
C334 C338 1.397 . S
C335 C330 1.391 . S
C335 C334 1.391 . S
C335 C336 1.399 . S
C336 C335 1.399 . S
C336 C337 1.396 . S
C336 C339 1.453 . S
C336 C340 1.684 . S
C337 C327 1.723 . S
C337 C336 1.396 . S
C337 C338 1.394 . S
C338 C308 1.723 . S
C338 C334 1.397 . S
C338 C337 1.394 . S
C339 H311 0.982 . S
C339 H315 0.979 . S
C339 H316 0.977 . S
C339 C336 1.453 . S
C340 H312 0.979 . S
C340 H313 0.980 . S
C340 H314 0.983 . S
C340 C336 1.684 . S
H341 C359 0.948 . S
H342 C300 0.948 . S
H343 C318 0.979 . S
H344 C318 0.980 . S
H345 C318 0.983 . S
H346 C317 0.982 . S
H347 C317 0.979 . S
H348 C317 0.977 . S
H349 C319 0.948 . S
H350 C321 0.947 . S
H351 C322 0.948 . S
H352 C328 0.982 . S
H353 C328 0.979 . S
H354 C328 0.977 . S
H355 C329 0.979 . S
H356 C329 0.980 . S
H357 C329 0.983 . S
H358 C302 0.947 . S
C359 C302 1.392 . S
C359 C303 1.419 . S
C359 H341 0.948 . S
C360 C361 1.391 . S
C360 C364 1.391 . S
C360 H402 0.948 . S
C361 C360 1.391 . S
C361 C362 1.391 . S
C362 C361 1.391 . S
C362 H418 0.947 . S
C362 C419 1.392 . S
C363 C364 1.391 . S
C363 C367 1.397 . S
C363 C419 1.419 . S
C364 C360 1.391 . S
C364 C363 1.391 . S
C364 C365 1.399 . S
C365 C364 1.399 . S
C365 C368 1.396 . S
C365 C377 1.453 . S
C365 C378 1.684 . S
H366 C390 0.948 . S
C367 C363 1.397 . S
C367 C368 1.394 . S
C367 C386 1.723 . S
C368 C365 1.396 . S
C368 C367 1.394 . S
C368 C398 1.723 . S
H369 C392 0.947 . S
H370 C393 0.948 . S
H371 C399 0.982 . S
H372 C400 0.979 . S
H373 C400 0.980 . S
H374 C400 0.983 . S
H375 C399 0.979 . S
H376 C399 0.977 . S
C377 C365 1.453 . S
C377 H406 0.982 . S
C377 H407 0.979 . S
C377 H408 0.977 . S
C378 C365 1.684 . S
C378 H403 0.979 . S
C378 H404 0.980 . S
C378 H405 0.983 . S
C379 C380 1.391 . S
C379 C384 1.391 . S
C379 H409 0.948 . S
C380 C379 1.391 . S
C380 C381 1.391 . S
C381 C380 1.391 . S
C381 C382 1.392 . S
C381 H410 0.947 . S
C382 C381 1.392 . S
C382 C383 1.419 . S
C382 H411 0.948 . S
C383 C382 1.419 . S
C383 C384 1.391 . S
C383 C387 1.397 . S
C384 C379 1.391 . S
C384 C383 1.391 . S
C384 C385 1.399 . S
C385 C384 1.399 . S
C385 C386 1.396 . S
C385 C388 1.453 . S
C385 C389 1.684 . S
C386 C367 1.723 . S
C386 C385 1.396 . S
C386 C387 1.394 . S
C387 C383 1.397 . S
C387 C386 1.394 . S
C387 C397 1.723 . S
C388 C385 1.453 . S
C388 H412 0.982 . S
C388 H413 0.979 . S
C388 H414 0.977 . S
C389 C385 1.684 . S
C389 H415 0.979 . S
C389 H416 0.980 . S
C389 H417 0.983 . S
C390 H366 0.948 . S
C390 C391 1.391 . S
C390 C395 1.391 . S
C391 C390 1.391 . S
C391 C392 1.391 . S
C392 H369 0.947 . S
C392 C391 1.391 . S
C392 C393 1.392 . S
C393 H370 0.948 . S
C393 C392 1.392 . S
C393 C394 1.419 . S
C394 C393 1.419 . S
C394 C395 1.391 . S
C394 C398 1.397 . S
C395 C390 1.391 . S
C395 C394 1.391 . S
C395 C396 1.399 . S
C396 C395 1.399 . S
C396 C397 1.396 . S
C396 C399 1.453 . S
C396 C400 1.684 . S
C397 C387 1.723 . S
C397 C396 1.396 . S
C397 C398 1.394 . S
C398 C368 1.723 . S
C398 C394 1.397 . S
C398 C397 1.394 . S
C399 H371 0.982 . S
C399 H375 0.979 . S
C399 H376 0.977 . S
C399 C396 1.453 . S
C400 H372 0.979 . S
C400 H373 0.980 . S
C400 H374 0.983 . S
C400 C396 1.684 . S
H401 C419 0.948 . S
H402 C360 0.948 . S
H403 C378 0.979 . S
H404 C378 0.980 . S
H405 C378 0.983 . S
H406 C377 0.982 . S
H407 C377 0.979 . S
H408 C377 0.977 . S
H409 C379 0.948 . S
H410 C381 0.947 . S
H411 C382 0.948 . S
H412 C388 0.982 . S
H413 C388 0.979 . S
H414 C388 0.977 . S
H415 C389 0.979 . S
H416 C389 0.980 . S
H417 C389 0.983 . S
H418 C362 0.947 . S
C419 C362 1.392 . S
C419 C363 1.419 . S
C419 H401 0.948 . S
C420 C421 1.391 . S
C420 C424 1.391 . S
C420 H462 0.948 . S
C421 C420 1.391 . S
C421 C422 1.391 . S
C422 C421 1.391 . S
C422 H478 0.947 . S
C422 C479 1.392 . S
C423 C424 1.391 . S
C423 C427 1.397 . S
C423 C479 1.419 . S
C424 C420 1.391 . S
C424 C423 1.391 . S
C424 C425 1.399 . S
C425 C424 1.399 . S
C425 C428 1.396 . S
C425 C437 1.453 . S
C425 C438 1.684 . S
H426 C450 0.948 . S
C427 C423 1.397 . S
C427 C428 1.394 . S
C427 C446 1.723 . S
C428 C425 1.396 . S
C428 C427 1.394 . S
C428 C458 1.723 . S
H429 C452 0.947 . S
H430 C453 0.948 . S
H431 C459 0.982 . S
H432 C460 0.979 . S
H433 C460 0.980 . S
H434 C460 0.983 . S
H435 C459 0.979 . S
H436 C459 0.977 . S
C437 C425 1.453 . S
C437 H466 0.982 . S
C437 H467 0.972 1_455 S
C437 H468 0.977 . S
C438 C425 1.684 . S
C438 H463 0.979 . S
C438 H464 0.980 . S
C438 H465 0.983 . S
C439 C440 1.391 . S
C439 C444 1.391 . S
C439 H469 0.948 . S
C440 C439 1.391 . S
C440 C441 1.391 . S
C441 C440 1.391 . S
C441 C442 1.392 . S
C441 H470 0.947 . S
C442 C441 1.392 . S
C442 C443 1.419 . S
C442 H471 0.948 . S
C443 C442 1.419 . S
C443 C444 1.391 . S
C443 C447 1.397 . S
C444 C439 1.391 . S
C444 C443 1.391 . S
C444 C445 1.399 . S
C445 C444 1.399 . S
C445 C446 1.396 . S
C445 C448 1.453 . S
C445 C449 1.684 . S
C446 C427 1.723 . S
C446 C445 1.396 . S
C446 C447 1.394 . S
C447 C443 1.397 . S
C447 C446 1.394 . S
C447 C457 1.723 . S
C448 C445 1.453 . S
C448 H472 0.982 . S
C448 H473 0.979 . S
C448 H474 0.977 . S
C449 C445 1.684 . S
C449 H475 0.979 . S
C449 H476 0.980 . S
C449 H477 0.983 . S
C450 H426 0.948 . S
C450 C451 1.391 . S
C450 C455 1.391 . S
C451 C450 1.391 . S
C451 C452 1.391 . S
C452 H429 0.947 . S
C452 C451 1.391 . S
C452 C453 1.392 . S
C453 H430 0.948 . S
C453 C452 1.392 . S
C453 C454 1.419 . S
C454 C453 1.419 . S
C454 C455 1.391 . S
C454 C458 1.397 . S
C455 C450 1.391 . S
C455 C454 1.391 . S
C455 C456 1.399 . S
C456 C455 1.399 . S
C456 C457 1.396 . S
C456 C459 1.453 . S
C456 C460 1.684 . S
C457 C447 1.723 . S
C457 C456 1.396 . S
C457 C458 1.394 . S
C458 C428 1.723 . S
C458 C454 1.397 . S
C458 C457 1.394 . S
C459 H431 0.982 . S
C459 H435 0.979 . S
C459 H436 0.977 . S
C459 C456 1.453 . S
C460 H432 0.979 . S
C460 H433 0.980 . S
C460 H434 0.983 . S
C460 C456 1.684 . S
H461 C479 0.948 . S
H462 C420 0.948 . S
H463 C438 0.979 . S
H464 C438 0.980 . S
H465 C438 0.983 . S
H466 C437 0.982 . S
H467 C437 0.972 1_655 S
H468 C437 0.977 . S
H469 C439 0.948 . S
H470 C441 0.947 . S
H471 C442 0.948 . S
H472 C448 0.982 . S
H473 C448 0.979 . S
H474 C448 0.977 . S
H475 C449 0.979 . S
H476 C449 0.980 . S
H477 C449 0.983 . S
H478 C422 0.947 . S
C479 C422 1.392 . S
C479 C423 1.419 . S
C479 H461 0.948 . S
O480 Mg481 1.990 . S
O480 C494 1.253 1_445 S
Mg481 O480 1.990 . S
Mg481 O484 2.180 . S
Mg481 O485 2.117 . S
Mg481 O499 2.030 1_545 S
O482 Mg483 2.072 1_665 S
O482 C494 1.260 . S
Mg483 O482 2.072 1_445 S
Mg483 O484 2.099 . S
Mg483 O486 2.079 . S
Mg483 O487 2.072 1_455 S
Mg483 O489 2.099 1_445 S
Mg483 O500 2.079 1_545 S
O484 Mg481 2.180 . S
O484 Mg483 2.099 . S
O484 C495 1.279 . S
O485 Mg481 2.117 . S
O485 C495 1.250 . S
O486 Mg483 2.079 . S
O486 C496 1.264 . S
O487 Mg483 2.072 1_655 S
O487 C497 1.260 . S
Mg488 O489 2.180 . S
Mg488 O490 2.030 1_565 S
Mg488 O491 1.990 1_565 S
Mg488 O492 2.117 . S
O489 Mg483 2.099 1_665 S
O489 Mg488 2.180 . S
O489 C498 1.279 . S
O490 Mg488 2.030 1_545 S
O490 C496 1.248 1_655 S
O491 Mg488 1.990 1_545 S
O491 C497 1.253 . S
O492 Mg488 2.117 . S
O492 C498 1.250 . S
C493 O499 1.248 . S
C493 O500 1.264 . S
C494 O480 1.253 1_665 S
C494 O482 1.260 . S
C495 O484 1.279 . S
C495 O485 1.250 . S
C496 O486 1.264 . S
C496 O490 1.248 1_455 S
C497 O487 1.260 . S
C497 O491 1.253 . S
C498 O489 1.279 . S
C498 O492 1.250 . S
O499 Mg481 2.030 1_565 S
O499 C493 1.248 . S
O500 Mg483 2.079 1_565 S
O500 C493 1.264 . S
O501 Mg502 1.990 . S
O501 C515 1.253 . S
Mg502 O501 1.990 . S
Mg502 O505 2.161 1_554 S
Mg502 O506 2.117 1_554 S
Mg502 O520 2.030 . S
O503 Mg504 2.072 . S
O503 C515 1.260 . S
Mg504 O503 2.072 . S
Mg504 O505 2.094 1_554 S
Mg504 O507 2.079 1_544 S
Mg504 O508 2.072 1_554 S
Mg504 O510 2.099 1_545 S
Mg504 O521 2.079 . S
O505 Mg502 2.161 1_556 S
O505 Mg504 2.094 1_556 S
O505 C516 1.298 . S
O506 Mg502 2.117 1_556 S
O506 C516 1.250 . S
O507 Mg504 2.079 1_566 S
O507 C517 1.264 . S
O508 Mg504 2.072 1_556 S
O508 C518 1.260 1_545 S
Mg509 O510 2.180 1_556 S
Mg509 O511 2.030 . S
Mg509 O512 1.990 . S
Mg509 O513 2.117 1_556 S
O510 Mg504 2.099 1_565 S
O510 Mg509 2.180 1_554 S
O510 C519 1.279 . S
O511 Mg509 2.030 . S
O511 C517 1.248 . S
O512 Mg509 1.990 . S
O512 C518 1.253 . S
O513 Mg509 2.117 1_554 S
O513 C519 1.250 . S
C514 O520 1.248 . S
C514 O521 1.264 . S
C515 O501 1.253 . S
C515 O503 1.260 . S
C516 O505 1.298 . S
C516 O506 1.250 . S
C517 O507 1.264 . S
C517 O511 1.248 . S
C518 O508 1.260 1_565 S
C518 O512 1.253 . S
C519 O510 1.279 . S
C519 O513 1.250 . S
O520 Mg502 2.030 . S
O520 C514 1.248 . S
O521 Mg504 2.079 . S
O521 C514 1.264 . S
O522 Mg523 1.990 . S
O522 C536 1.253 . S
Mg523 O522 1.990 . S
Mg523 O526 2.180 . S
Mg523 O527 2.117 . S
Mg523 O541 2.030 . S
O524 Mg525 2.072 . S
O524 C536 1.260 . S
Mg525 O524 2.072 . S
Mg525 O526 2.099 . S
Mg525 O528 2.079 . S
Mg525 O529 2.072 . S
Mg525 O531 2.099 . S
Mg525 O542 2.079 . S
O526 Mg523 2.180 . S
O526 Mg525 2.099 . S
O526 C537 1.279 . S
O527 Mg523 2.117 . S
O527 C537 1.250 . S
O528 Mg525 2.079 . S
O528 C538 1.264 . S
O529 Mg525 2.072 . S
O529 C539 1.260 . S
Mg530 O531 2.180 . S
Mg530 O532 2.030 . S
Mg530 O533 1.990 . S
Mg530 O534 2.117 . S
O531 Mg525 2.099 . S
O531 Mg530 2.180 . S
O531 C540 1.279 . S
O532 Mg530 2.030 . S
O532 C538 1.248 . S
O533 Mg530 1.990 . S
O533 C539 1.253 . S
O534 Mg530 2.117 . S
O534 C540 1.250 . S
C535 O541 1.248 . S
C535 O542 1.264 . S
C536 O522 1.253 . S
C536 O524 1.260 . S
C537 O526 1.279 . S
C537 O527 1.250 . S
C538 O528 1.264 . S
C538 O532 1.248 . S
C539 O529 1.260 . S
C539 O533 1.253 . S
C540 O531 1.279 . S
C540 O534 1.250 . S
O541 Mg523 2.030 . S
O541 C535 1.248 . S
O542 Mg525 2.079 . S
O542 C535 1.264 . S
O543 Mg544 1.990 . S
O543 C557 1.253 . S
Mg544 O543 1.990 . S
Mg544 O547 2.180 1_455 S
Mg544 O548 2.117 1_455 S
Mg544 O562 2.030 . S
O545 Mg546 2.072 . S
O545 C557 1.260 . S
Mg546 O545 2.072 . S
Mg546 O547 2.099 1_455 S
Mg546 O549 2.079 1_454 S
Mg546 O550 2.072 1_455 S
Mg546 O552 2.099 1_554 S
Mg546 O563 2.079 . S
O547 Mg544 2.180 1_655 S
O547 Mg546 2.099 1_655 S
O547 C558 1.279 . S
O548 Mg544 2.117 1_655 S
O548 C558 1.250 . S
O549 Mg546 2.079 1_656 S
O549 C559 1.264 . S
O550 Mg546 2.072 1_655 S
O550 C560 1.260 1_554 S
Mg551 O552 2.180 1_655 S
Mg551 O553 2.030 . S
Mg551 O554 1.990 . S
Mg551 O555 2.117 . S
O552 Mg546 2.099 1_556 S
O552 Mg551 2.180 1_455 S
O552 C561 1.279 . S
O553 Mg551 2.030 . S
O553 C559 1.248 . S
O554 Mg551 1.990 . S
O554 C560 1.253 . S
O555 Mg551 2.117 . S
O555 C561 1.250 1_655 S
C556 O562 1.248 . S
C556 O563 1.264 . S
C557 O543 1.253 . S
C557 O545 1.260 . S
C558 O547 1.279 . S
C558 O548 1.250 . S
C559 O549 1.264 . S
C559 O553 1.248 . S
C560 O550 1.260 1_556 S
C560 O554 1.253 . S
C561 O552 1.279 . S
C561 O555 1.250 1_455 S
O562 Mg544 2.030 . S
O562 C556 1.248 . S
O563 Mg546 2.079 . S
O563 C556 1.264 . S
C564 C565 1.387 . S
C564 H568 0.950 . S
C564 C573 1.390 . S
C565 C564 1.387 . S
C565 C567 1.387 . S
H566 C573 0.950 . S
C567 C565 1.387 . S
C567 C569 1.390 . S
C567 H571 0.950 . S
H568 C564 0.950 . S
C569 C567 1.390 . S
C569 C570 1.387 . S
C569 H572 0.946 1_545 S
C570 C569 1.387 . S
C570 C573 1.387 . S
H571 C567 0.950 . S
H572 C569 0.946 1_565 S
C573 C564 1.390 . S
C573 H566 0.950 . S
C573 C570 1.387 . S
C574 C575 1.387 . S
C574 H578 0.950 . S
C574 C583 1.390 . S
C575 C574 1.387 . S
C575 C577 1.387 . S
H576 C583 0.950 . S
C577 C575 1.387 . S
C577 C579 1.390 1_565 S
C577 H581 0.950 1_565 S
H578 C574 0.950 . S
C579 C577 1.390 1_545 S
C579 C580 1.387 1_545 S
C579 H582 0.950 . S
C580 C579 1.387 1_565 S
C580 C583 1.387 . S
H581 C577 0.950 1_545 S
H582 C579 0.950 . S
C583 C574 1.390 . S
C583 H576 0.950 . S
C583 C580 1.387 . S
C584 C585 1.387 . S
C584 H588 0.950 . S
C584 C593 1.390 . S
C585 C584 1.387 . S
C585 C587 1.387 . S
H586 C593 0.950 . S
C587 C585 1.387 . S
C587 C589 1.390 . S
C587 H591 0.950 . S
H588 C584 0.950 . S
C589 C587 1.390 . S
C589 C590 1.387 . S
C589 H592 0.950 . S
C590 C589 1.387 . S
C590 C593 1.387 . S
H591 C587 0.950 . S
H592 C589 0.950 . S
C593 C584 1.390 . S
C593 H586 0.950 . S
C593 C590 1.387 . S
C594 C595 1.387 . S
C594 H598 0.950 . S
C594 C603 1.390 . S
C595 C594 1.387 . S
C595 C597 1.387 . S
H596 C603 0.950 . S
C597 C595 1.387 . S
C597 C599 1.390 . S
C597 H601 0.950 . S
H598 C594 0.950 . S
C599 C597 1.390 . S
C599 C600 1.387 . S
C599 H602 0.950 . S
C600 C599 1.387 . S
C600 C603 1.387 . S
H601 C597 0.950 . S
H602 C599 0.950 . S
C603 C594 1.390 . S
C603 H596 0.950 . S
C603 C600 1.387 . S
C604 C605 1.387 . S
C604 H608 0.950 . S
C604 C613 1.390 . S
C605 C604 1.387 . S
C605 C607 1.387 . S
H606 C613 0.950 1_556 S
C607 C605 1.387 . S
C607 C609 1.390 . S
C607 H611 0.950 . S
H608 C604 0.950 . S
C609 C607 1.390 . S
C609 C610 1.387 . S
C609 H612 0.950 . S
C610 C609 1.387 . S
C610 C613 1.387 . S
H611 C607 0.950 . S
H612 C609 0.950 . S
C613 C604 1.390 . S
C613 H606 0.950 1_554 S
C613 C610 1.387 . S
C614 C615 1.387 . S
C614 H618 0.950 . S
C614 C623 1.390 . S
C615 C614 1.387 . S
C615 C617 1.387 . S
H616 C623 0.950 . S
C617 C615 1.387 . S
C617 C619 1.390 . S
C617 H621 0.950 . S
H618 C614 0.950 . S
C619 C617 1.390 . S
C619 C620 1.387 . S
C619 H622 0.950 . S
C620 C619 1.387 . S
C620 C623 1.387 . S
H621 C617 0.950 . S
H622 C619 0.950 . S
C623 C614 1.390 . S
C623 H616 0.950 . S
C623 C620 1.387 . S
C624 C625 1.387 . S
C624 H628 0.950 . S
C624 C633 1.390 . S
C625 C624 1.387 . S
C625 C627 1.387 . S
H626 C633 0.950 . S
C627 C625 1.387 . S
C627 C629 1.390 . S
C627 H631 0.950 . S
H628 C624 0.950 . S
C629 C627 1.390 . S
C629 C630 1.387 . S
C629 H632 0.950 . S
C630 C629 1.387 . S
C630 C633 1.387 . S
H631 C627 0.950 . S
H632 C629 0.950 . S
C633 C624 1.390 . S
C633 H626 0.950 . S
C633 C630 1.387 . S
C634 C635 1.387 . S
C634 H638 0.950 . S
C634 C643 1.390 . S
C635 C634 1.387 . S
C635 C637 1.387 . S
H636 C643 0.950 . S
C637 C635 1.387 . S
C637 C639 1.390 . S
C637 H641 0.950 . S
H638 C634 0.950 . S
C639 C637 1.390 . S
C639 C640 1.387 . S
C639 H642 0.950 . S
C640 C639 1.387 . S
C640 C643 1.387 . S
H641 C637 0.950 . S
H642 C639 0.950 . S
C643 C634 1.390 . S
C643 H636 0.950 . S
C643 C640 1.387 . S
C644 C645 1.387 . S
C644 H648 0.950 1_554 S
C644 C653 1.390 . S
C645 C644 1.387 . S
C645 C647 1.387 . S
H646 C653 0.950 1_556 S
C647 C645 1.387 . S
C647 C649 1.390 . S
C647 H651 0.950 . S
H648 C644 0.950 1_556 S
C649 C647 1.390 . S
C649 C650 1.387 . S
C649 H652 0.950 . S
C650 C649 1.387 . S
C650 C653 1.387 . S
H651 C647 0.950 . S
H652 C649 0.950 . S
C653 C644 1.390 . S
C653 H646 0.950 1_554 S
C653 C650 1.387 . S
C654 C655 1.387 . S
C654 H658 0.950 . S
C654 C663 1.390 . S
C655 C654 1.387 . S
C655 C657 1.387 . S
H656 C663 0.950 1_554 S
C657 C655 1.387 . S
C657 C659 1.390 . S
C657 H661 0.950 . S
H658 C654 0.950 . S
C659 C657 1.390 . S
C659 C660 1.387 . S
C659 H662 0.950 . S
C660 C659 1.387 . S
C660 C663 1.387 . S
H661 C657 0.950 . S
H662 C659 0.950 . S
C663 C654 1.390 . S
C663 H656 0.950 1_556 S
C663 C660 1.387 . S
C664 C665 1.387 . S
C664 H668 0.950 . S
C664 C673 1.390 . S
C665 C664 1.387 . S
C665 C667 1.387 . S
H666 C673 0.950 . S
C667 C665 1.387 . S
C667 C669 1.390 . S
C667 H671 0.950 . S
H668 C664 0.950 . S
C669 C667 1.390 . S
C669 C670 1.387 . S
C669 H672 0.950 . S
C670 C669 1.387 . S
C670 C673 1.387 . S
H671 C667 0.950 . S
H672 C669 0.950 . S
C673 C664 1.390 . S
C673 H666 0.950 . S
C673 C670 1.387 . S
C674 C675 1.387 . S
C674 H678 0.950 . S
C674 C683 1.390 . S
C675 C674 1.387 . S
C675 C677 1.387 . S
H676 C683 0.950 . S
C677 C675 1.387 . S
C677 C679 1.390 . S
C677 H681 0.950 . S
H678 C674 0.950 . S
C679 C677 1.390 . S
C679 C680 1.387 . S
C679 H682 0.950 . S
C680 C679 1.387 . S
C680 C683 1.387 . S
H681 C677 0.950 . S
H682 C679 0.950 . S
C683 C674 1.390 . S
C683 H676 0.950 . S
C683 C680 1.387 . S
C684 C685 1.387 . S
C684 H688 0.950 . S
C684 C693 1.390 . S
C685 C684 1.387 . S
C685 C687 1.387 . S
H686 C693 0.950 . S
C687 C685 1.387 . S
C687 C689 1.390 . S
C687 H691 0.950 1_565 S
H688 C684 0.950 . S
C689 C687 1.390 . S
C689 C690 1.387 . S
C689 H692 0.950 1_565 S
C690 C689 1.387 . S
C690 C693 1.387 . S
H691 C687 0.950 1_545 S
H692 C689 0.950 1_545 S
C693 C684 1.390 . S
C693 H686 0.950 . S
C693 C690 1.387 . S
C694 C695 1.387 . S
C694 H698 0.950 . S
C694 C703 1.390 . S
C695 C694 1.387 . S
C695 C697 1.387 . S
H696 C703 0.950 1_565 S
C697 C695 1.387 . S
C697 C699 1.390 . S
C697 H701 0.950 . S
H698 C694 0.950 . S
C699 C697 1.390 . S
C699 C700 1.387 . S
C699 H702 0.950 . S
C700 C699 1.387 . S
C700 C703 1.387 . S
H701 C697 0.950 . S
H702 C699 0.950 . S
C703 C694 1.390 . S
C703 H696 0.950 1_545 S
C703 C700 1.387 . S
C704 C705 1.387 . S
C704 H708 0.950 . S
C704 C713 1.390 . S
C705 C704 1.387 . S
C705 C707 1.387 . S
H706 C713 0.950 . S
C707 C705 1.387 . S
C707 C709 1.390 . S
C707 H711 0.950 . S
H708 C704 0.950 . S
C709 C707 1.390 . S
C709 C710 1.387 . S
C709 H712 0.950 . S
C710 C709 1.387 . S
C710 C713 1.387 . S
H711 C707 0.950 . S
H712 C709 0.950 . S
C713 C704 1.390 . S
C713 H706 0.950 . S
C713 C710 1.387 . S
C714 C715 1.387 . S
C714 H718 0.950 . S
C714 C723 1.390 . S
C715 C714 1.387 . S
C715 C717 1.387 . S
H716 C723 0.950 . S
C717 C715 1.387 . S
C717 C719 1.390 . S
C717 H721 0.950 . S
H718 C714 0.950 . S
C719 C717 1.390 . S
C719 C720 1.387 . S
C719 H722 0.950 . S
C720 C719 1.387 . S
C720 C723 1.387 . S
H721 C717 0.950 . S
H722 C719 0.950 . S
C723 C714 1.390 . S
C723 H716 0.950 . S
C723 C720 1.387 . S
C724 C725 1.387 . S
C724 H728 0.950 . S
C724 C733 1.390 . S
C725 C724 1.387 . S
C725 C727 1.387 . S
H726 C733 0.950 . S
C727 C725 1.387 . S
C727 C729 1.390 1_565 S
C727 H731 0.950 1_565 S
H728 C724 0.950 . S
C729 C727 1.390 1_545 S
C729 C730 1.387 1_545 S
C729 H732 0.950 . S
C730 C729 1.387 1_565 S
C730 C733 1.387 . S
H731 C727 0.950 1_545 S
H732 C729 0.950 . S
C733 C724 1.390 . S
C733 H726 0.950 . S
C733 C730 1.387 . S
C734 C735 1.387 . S
C734 H738 0.950 . S
C734 C743 1.390 . S
C735 C734 1.387 . S
C735 C737 1.387 . S
H736 C743 0.950 . S
C737 C735 1.387 . S
C737 C739 1.390 . S
C737 H741 0.950 . S
H738 C734 0.950 . S
C739 C737 1.390 . S
C739 C740 1.387 . S
C739 H742 0.950 . S
C740 C739 1.387 . S
C740 C743 1.387 . S
H741 C737 0.950 . S
H742 C739 0.950 . S
C743 C734 1.390 . S
C743 H736 0.950 . S
C743 C740 1.387 . S
C744 C745 1.387 . S
C744 H748 0.950 . S
C744 C753 1.390 . S
C745 C744 1.387 . S
C745 C747 1.387 . S
H746 C753 0.950 . S
C747 C745 1.387 . S
C747 C749 1.390 . S
C747 H751 0.950 . S
H748 C744 0.950 . S
C749 C747 1.390 . S
C749 C750 1.387 . S
C749 H752 0.950 . S
C750 C749 1.387 . S
C750 C753 1.387 . S
H751 C747 0.950 . S
H752 C749 0.950 . S
C753 C744 1.390 . S
C753 H746 0.950 . S
C753 C750 1.387 . S
C754 C755 1.387 . S
C754 H758 0.950 . S
C754 C763 1.390 . S
C755 C754 1.387 . S
C755 C757 1.387 . S
H756 C763 0.950 . S
C757 C755 1.387 . S
C757 C759 1.390 . S
C757 H761 0.950 . S
H758 C754 0.950 . S
C759 C757 1.390 . S
C759 C760 1.387 . S
C759 H762 0.950 . S
C760 C759 1.387 . S
C760 C763 1.387 . S
H761 C757 0.950 . S
H762 C759 0.950 . S
C763 C754 1.390 . S
C763 H756 0.950 . S
C763 C760 1.387 . S
C764 C765 1.387 . S
C764 H768 0.950 . S
C764 C773 1.390 . S
C765 C764 1.387 . S
C765 C767 1.387 . S
H766 C773 0.950 . S
C767 C765 1.387 . S
C767 C769 1.392 . S
C767 H771 0.950 1_556 S
H768 C764 0.950 . S
C769 C767 1.392 . S
C769 C770 1.394 . S
C769 H772 0.941 1_556 S
C770 C769 1.394 . S
C770 C773 1.387 . S
H771 C767 0.950 1_554 S
H772 C769 0.941 1_554 S
C773 C764 1.390 . S
C773 H766 0.950 . S
C773 C770 1.387 . S
C774 C775 1.387 . S
C774 H778 0.950 . S
C774 C783 1.390 . S
C775 C774 1.387 . S
C775 C777 1.387 . S
H776 C783 0.950 . S
C777 C775 1.387 . S
C777 C779 1.390 . S
C777 H781 0.950 . S
H778 C774 0.950 . S
C779 C777 1.390 . S
C779 C780 1.387 . S
C779 H782 0.950 1_554 S
C780 C779 1.387 . S
C780 C783 1.387 . S
H781 C777 0.950 . S
H782 C779 0.950 1_556 S
C783 C774 1.390 . S
C783 H776 0.950 . S
C783 C780 1.387 . S
C784 C785 1.387 . S
C784 H788 0.950 . S
C784 C793 1.390 . S
C785 C784 1.387 . S
C785 C787 1.402 . S
H786 C793 0.950 . S
C787 C785 1.402 . S
C787 C789 1.389 1_455 S
C787 H791 0.937 1_455 S
H788 C784 0.950 . S
C789 C787 1.389 1_655 S
C789 C790 1.387 1_655 S
C789 H792 0.950 . S
C790 C789 1.387 1_455 S
C790 C793 1.387 . S
H791 C787 0.937 1_655 S
H792 C789 0.950 . S
C793 C784 1.390 . S
C793 H786 0.950 . S
C793 C790 1.387 . S
C794 C795 1.387 . S
C794 H798 0.950 . S
C794 C803 1.390 . S
C795 C794 1.387 . S
C795 C797 1.387 . S
H796 C803 0.950 . S
C797 C795 1.387 . S
C797 C799 1.390 . S
C797 H801 0.950 . S
H798 C794 0.950 . S
C799 C797 1.390 . S
C799 C800 1.387 . S
C799 H802 0.950 . S
C800 C799 1.387 . S
C800 C803 1.387 . S
H801 C797 0.950 . S
H802 C799 0.950 . S
C803 C794 1.390 . S
C803 H796 0.950 . S
C803 C800 1.387 . S
C565 C1 1.571 . S
C570 C496 1.529 . S
C575 C80 1.458 . S
C580 C518 1.472 . S
C590 C537 1.205 . S
C585 C140 1.448 . S
C595 C211 1.757 . S
C600 C558 1.442 . S
C610 C515 1.733 . S
C605 C31 1.756 . S
C620 C493 1.671 . S
C615 C61 1.632 . S
C630 C560 1.363 . S
C625 C151 1.362 . S
C640 C539 1.529 . S
C635 C200 1.511 . S
C645 C20 1.704 . S
C650 C557 1.673 . S
C660 C516 1.284 . S
C655 C121 1.580 . S
C665 C181 1.624 . S
C670 C498 1.595 . S
C675 C91 1.506 . S
C680 C536 1.562 . S
C690 C494 1.531 . S
C685 C260 1.621 . S
C695 C320 1.321 . S
C700 C514 1.344 . S
C705 C361 1.533 . S
C710 C540 1.263 . S
C715 C451 1.691 . S
C720 C561 1.373 . S
C725 C271 1.709 . S
C730 C517 1.690 . S
C740 C497 1.706 . S
C735 C301 1.690 . S
C750 C556 1.265 . S
C745 C380 1.304 . S
C760 C535 1.568 . S
C755 C440 1.563 . S
C765 C241 1.547 . S
C770 C559 1.540 . S
C780 C519 1.253 . S
C775 C391 1.558 . S
C790 C495 1.450 . S
C785 C421 1.493 . S
C795 C331 1.470 . S
C800 C538 1.498 . S
