# Generated by pormake.
# Topology llk, (3,12)-cn, num edge types: 1
# Building blocks:
#     Node 0, Type 0, BuildingBlock: BELTOD_clean_linker_0, # of connection points: 3
#     Node 1, Type 0, BuildingBlock: BELTOD_clean_linker_0, # of connection points: 3
#     Node 2, Type 0, BuildingBlock: BELTOD_clean_linker_0, # of connection points: 3
#     Node 3, Type 0, BuildingBlock: BELTOD_clean_linker_0, # of connection points: 3
#     Node 4, Type 0, BuildingBlock: BELTOD_clean_linker_0, # of connection points: 3
#     Node 5, Type 0, BuildingBlock: BELTOD_clean_linker_0, # of connection points: 3
#     Node 6, Type 0, BuildingBlock: BELTOD_clean_linker_0, # of connection points: 3
#     Node 7, Type 0, BuildingBlock: BELTOD_clean_linker_0, # of connection points: 3
#     Node 8, Type 0, BuildingBlock: BELTOD_clean_linker_0, # of connection points: 3
#     Node 9, Type 0, BuildingBlock: BELTOD_clean_linker_0, # of connection points: 3
#     Node 10, Type 0, BuildingBlock: BELTOD_clean_linker_0, # of connection points: 3
#     Node 11, Type 0, BuildingBlock: BELTOD_clean_linker_0, # of connection points: 3
#     Node 12, Type 0, BuildingBlock: BELTOD_clean_linker_0, # of connection points: 3
#     Node 13, Type 0, BuildingBlock: BELTOD_clean_linker_0, # of connection points: 3
#     Node 14, Type 0, BuildingBlock: BELTOD_clean_linker_0, # of connection points: 3
#     Node 15, Type 0, BuildingBlock: BELTOD_clean_linker_0, # of connection points: 3
#     Node 16, Type 0, BuildingBlock: BELTOD_clean_linker_0, # of connection points: 3
#     Node 17, Type 0, BuildingBlock: BELTOD_clean_linker_0, # of connection points: 3
#     Node 18, Type 0, BuildingBlock: BELTOD_clean_linker_0, # of connection points: 3
#     Node 19, Type 0, BuildingBlock: BELTOD_clean_linker_0, # of connection points: 3
#     Node 20, Type 0, BuildingBlock: BELTOD_clean_linker_0, # of connection points: 3
#     Node 21, Type 0, BuildingBlock: BELTOD_clean_linker_0, # of connection points: 3
#     Node 22, Type 0, BuildingBlock: BELTOD_clean_linker_0, # of connection points: 3
#     Node 23, Type 0, BuildingBlock: BELTOD_clean_linker_0, # of connection points: 3
#     Node 24, Type 1, BuildingBlock: EZIPEK_clean_sbu_0, # of connection points: 12
#     Node 25, Type 1, BuildingBlock: EZIPEK_clean_sbu_0, # of connection points: 12
#     Node 26, Type 1, BuildingBlock: EZIPEK_clean_sbu_0, # of connection points: 12
#     Node 27, Type 1, BuildingBlock: EZIPEK_clean_sbu_0, # of connection points: 12
#     Node 28, Type 1, BuildingBlock: EZIPEK_clean_sbu_0, # of connection points: 12
#     Node 29, Type 1, BuildingBlock: EZIPEK_clean_sbu_0, # of connection points: 12
#     Edge 30, Type (0, 1), BuildingBlock: AJUNOK_clean_linker_0, # of connection points: 2
#     Edge 31, Type (0, 1), BuildingBlock: AJUNOK_clean_linker_0, # of connection points: 2
#     Edge 32, Type (0, 1), BuildingBlock: AJUNOK_clean_linker_0, # of connection points: 2
#     Edge 33, Type (0, 1), BuildingBlock: AJUNOK_clean_linker_0, # of connection points: 2
#     Edge 34, Type (0, 1), BuildingBlock: AJUNOK_clean_linker_0, # of connection points: 2
#     Edge 35, Type (0, 1), BuildingBlock: AJUNOK_clean_linker_0, # of connection points: 2
#     Edge 36, Type (0, 1), BuildingBlock: AJUNOK_clean_linker_0, # of connection points: 2
#     Edge 37, Type (0, 1), BuildingBlock: AJUNOK_clean_linker_0, # of connection points: 2
#     Edge 38, Type (0, 1), BuildingBlock: AJUNOK_clean_linker_0, # of connection points: 2
#     Edge 39, Type (0, 1), BuildingBlock: AJUNOK_clean_linker_0, # of connection points: 2
#     Edge 40, Type (0, 1), BuildingBlock: AJUNOK_clean_linker_0, # of connection points: 2
#     Edge 41, Type (0, 1), BuildingBlock: AJUNOK_clean_linker_0, # of connection points: 2
#     Edge 42, Type (0, 1), BuildingBlock: AJUNOK_clean_linker_0, # of connection points: 2
#     Edge 43, Type (0, 1), BuildingBlock: AJUNOK_clean_linker_0, # of connection points: 2
#     Edge 44, Type (0, 1), BuildingBlock: AJUNOK_clean_linker_0, # of connection points: 2
#     Edge 45, Type (0, 1), BuildingBlock: AJUNOK_clean_linker_0, # of connection points: 2
#     Edge 46, Type (0, 1), BuildingBlock: AJUNOK_clean_linker_0, # of connection points: 2
#     Edge 47, Type (0, 1), BuildingBlock: AJUNOK_clean_linker_0, # of connection points: 2
#     Edge 48, Type (0, 1), BuildingBlock: AJUNOK_clean_linker_0, # of connection points: 2
#     Edge 49, Type (0, 1), BuildingBlock: AJUNOK_clean_linker_0, # of connection points: 2
#     Edge 50, Type (0, 1), BuildingBlock: AJUNOK_clean_linker_0, # of connection points: 2
#     Edge 51, Type (0, 1), BuildingBlock: AJUNOK_clean_linker_0, # of connection points: 2
#     Edge 52, Type (0, 1), BuildingBlock: AJUNOK_clean_linker_0, # of connection points: 2
#     Edge 53, Type (0, 1), BuildingBlock: AJUNOK_clean_linker_0, # of connection points: 2
#     Edge 54, Type (0, 1), BuildingBlock: AJUNOK_clean_linker_0, # of connection points: 2
#     Edge 55, Type (0, 1), BuildingBlock: AJUNOK_clean_linker_0, # of connection points: 2
#     Edge 56, Type (0, 1), BuildingBlock: AJUNOK_clean_linker_0, # of connection points: 2
#     Edge 57, Type (0, 1), BuildingBlock: AJUNOK_clean_linker_0, # of connection points: 2
#     Edge 58, Type (0, 1), BuildingBlock: AJUNOK_clean_linker_0, # of connection points: 2
#     Edge 59, Type (0, 1), BuildingBlock: AJUNOK_clean_linker_0, # of connection points: 2
#     Edge 60, Type (0, 1), BuildingBlock: AJUNOK_clean_linker_0, # of connection points: 2
#     Edge 61, Type (0, 1), BuildingBlock: AJUNOK_clean_linker_0, # of connection points: 2
#     Edge 62, Type (0, 1), BuildingBlock: AJUNOK_clean_linker_0, # of connection points: 2
#     Edge 63, Type (0, 1), BuildingBlock: AJUNOK_clean_linker_0, # of connection points: 2
#     Edge 64, Type (0, 1), BuildingBlock: AJUNOK_clean_linker_0, # of connection points: 2
#     Edge 65, Type (0, 1), BuildingBlock: AJUNOK_clean_linker_0, # of connection points: 2
#     Edge 66, Type (0, 1), BuildingBlock: AJUNOK_clean_linker_0, # of connection points: 2
#     Edge 67, Type (0, 1), BuildingBlock: AJUNOK_clean_linker_0, # of connection points: 2
#     Edge 68, Type (0, 1), BuildingBlock: AJUNOK_clean_linker_0, # of connection points: 2
#     Edge 69, Type (0, 1), BuildingBlock: AJUNOK_clean_linker_0, # of connection points: 2
#     Edge 70, Type (0, 1), BuildingBlock: AJUNOK_clean_linker_0, # of connection points: 2
#     Edge 71, Type (0, 1), BuildingBlock: AJUNOK_clean_linker_0, # of connection points: 2
#     Edge 72, Type (0, 1), BuildingBlock: AJUNOK_clean_linker_0, # of connection points: 2
#     Edge 73, Type (0, 1), BuildingBlock: AJUNOK_clean_linker_0, # of connection points: 2
#     Edge 74, Type (0, 1), BuildingBlock: AJUNOK_clean_linker_0, # of connection points: 2
#     Edge 75, Type (0, 1), BuildingBlock: AJUNOK_clean_linker_0, # of connection points: 2
#     Edge 76, Type (0, 1), BuildingBlock: AJUNOK_clean_linker_0, # of connection points: 2
#     Edge 77, Type (0, 1), BuildingBlock: AJUNOK_clean_linker_0, # of connection points: 2
#     Edge 78, Type (0, 1), BuildingBlock: AJUNOK_clean_linker_0, # of connection points: 2
#     Edge 79, Type (0, 1), BuildingBlock: AJUNOK_clean_linker_0, # of connection points: 2
#     Edge 80, Type (0, 1), BuildingBlock: AJUNOK_clean_linker_0, # of connection points: 2
#     Edge 81, Type (0, 1), BuildingBlock: AJUNOK_clean_linker_0, # of connection points: 2
#     Edge 82, Type (0, 1), BuildingBlock: AJUNOK_clean_linker_0, # of connection points: 2
#     Edge 83, Type (0, 1), BuildingBlock: AJUNOK_clean_linker_0, # of connection points: 2
#     Edge 84, Type (0, 1), BuildingBlock: AJUNOK_clean_linker_0, # of connection points: 2
#     Edge 85, Type (0, 1), BuildingBlock: AJUNOK_clean_linker_0, # of connection points: 2
#     Edge 86, Type (0, 1), BuildingBlock: AJUNOK_clean_linker_0, # of connection points: 2
#     Edge 87, Type (0, 1), BuildingBlock: AJUNOK_clean_linker_0, # of connection points: 2
#     Edge 88, Type (0, 1), BuildingBlock: AJUNOK_clean_linker_0, # of connection points: 2
#     Edge 89, Type (0, 1), BuildingBlock: AJUNOK_clean_linker_0, # of connection points: 2
#     Edge 90, Type (0, 1), BuildingBlock: AJUNOK_clean_linker_0, # of connection points: 2
#     Edge 91, Type (0, 1), BuildingBlock: AJUNOK_clean_linker_0, # of connection points: 2
#     Edge 92, Type (0, 1), BuildingBlock: AJUNOK_clean_linker_0, # of connection points: 2
#     Edge 93, Type (0, 1), BuildingBlock: AJUNOK_clean_linker_0, # of connection points: 2
#     Edge 94, Type (0, 1), BuildingBlock: AJUNOK_clean_linker_0, # of connection points: 2
#     Edge 95, Type (0, 1), BuildingBlock: AJUNOK_clean_linker_0, # of connection points: 2
#     Edge 96, Type (0, 1), BuildingBlock: AJUNOK_clean_linker_0, # of connection points: 2
#     Edge 97, Type (0, 1), BuildingBlock: AJUNOK_clean_linker_0, # of connection points: 2
#     Edge 98, Type (0, 1), BuildingBlock: AJUNOK_clean_linker_0, # of connection points: 2
#     Edge 99, Type (0, 1), BuildingBlock: AJUNOK_clean_linker_0, # of connection points: 2
#     Edge 100, Type (0, 1), BuildingBlock: AJUNOK_clean_linker_0, # of connection points: 2
#     Edge 101, Type (0, 1), BuildingBlock: AJUNOK_clean_linker_0, # of connection points: 2
# Relax obj value: 0.096
# Max RMSD: 0.146
# Mean RMSD: 0.122
data_MOF--net-llk--node1-EZIPEK_clean_sbu_0--node2-BELTOD_clean_linker_0--edge1-AJUNOK_clean_linker_0
_symmetry_space_group_name_H-M    P1
_symmetry_Int_Tables_number       1
_symmetry_cell_setting            triclinic
loop_
_symmetry_equiv_pos_as_xyz
'x, y, z'
_cell_length_a     41.535099
_cell_length_b     41.64556
_cell_length_c     41.454788
_cell_angle_alpha  89.989028
_cell_angle_beta   90.020889
_cell_angle_gamma 89.981916
loop_
_atom_site_label
_atom_site_type_symbol
_atom_site_fract_x
_atom_site_fract_y
_atom_site_fract_z
_atom_type_partial_charge
P0 P 0.94496 0.25824 0.25312 0.0
H1 H 0.91193 0.28789 0.19907 0.0
H2 H 0.929 0.32851 0.16081 0.0
H3 H 0.0279 0.3134 0.18851 0.0
H4 H 0.01077 0.27205 0.22703 0.0
H5 H 0.91025 0.20753 0.28574 0.0
H6 H 0.92689 0.16785 0.32514 0.0
H7 H 0.02646 0.1876 0.30359 0.0
H8 H 0.00966 0.22741 0.26307 0.0
H9 H 0.90328 0.30194 0.29001 0.0
H10 H 0.00474 0.28044 0.2825 0.0
O11 O 0.90508 0.25502 0.24895 0.0
H12 H 0.91531 0.34267 0.33095 0.0
H13 H 0.0166 0.32078 0.3231 0.0
C14 C 0.95994 0.27646 0.21626 0.0
C15 C 0.93748 0.29219 0.19639 0.0
C16 C 0.94717 0.31594 0.1747 0.0
C17 C 0.97967 0.32463 0.17213 0.0
C18 C 1.00261 0.30727 0.19007 0.0
C19 C 0.99281 0.28341 0.21203 0.0
C20 C 0.95858 0.22084 0.2711 0.0
C21 C 0.93574 0.20283 0.28837 0.0
C22 C 0.94524 0.18035 0.31146 0.0
C23 C 0.97794 0.17536 0.3182 0.0
C24 C 1.00103 0.1913 0.29916 0.0
C25 C 0.99141 0.21399 0.27584 0.0
C26 C 0.95308 0.28792 0.28335 0.0
C27 C 0.92804 0.3058 0.29716 0.0
C28 C 0.93488 0.32898 0.3205 0.0
C29 C 0.96684 0.33454 0.33008 0.0
C30 C 0.99181 0.31692 0.31592 0.0
C31 C 0.98495 0.29374 0.29281 0.0
P32 P 0.75322 0.95898 0.25323 0.0
H33 H 0.75334 0.946 0.18387 0.0
H34 H 0.71533 0.96155 0.14164 0.0
H35 H 0.67356 0.03199 0.20537 0.0
H36 H 0.71198 0.01698 0.24732 0.0
H37 H 0.80437 0.92063 0.28092 0.0
H38 H 0.84756 0.93379 0.31834 0.0
H39 H 0.82895 0.03467 0.30449 0.0
H40 H 0.78619 0.02141 0.26532 0.0
H41 H 0.70078 0.91771 0.27641 0.0
H42 H 0.74264 0.00933 0.30139 0.0
O43 O 0.75522 0.92022 0.24308 0.0
H44 H 0.66053 0.92496 0.31919 0.0
H45 H 0.70329 0.01617 0.34382 0.0
C46 C 0.73543 0.97984 0.21916 0.0
C47 C 0.73689 0.96565 0.18848 0.0
C48 C 0.71495 0.97443 0.16433 0.0
C49 C 0.69107 0.99762 0.17039 0.0
C50 C 0.69136 0.01369 0.20019 0.0
C51 C 0.71359 0.00518 0.22418 0.0
C52 C 0.792 0.97 0.26995 0.0
C53 C 0.81027 0.94567 0.28466 0.0
C54 C 0.83476 0.95315 0.30647 0.0
C55 C 0.84117 0.98517 0.31464 0.0
C56 C 0.82419 0.00975 0.29874 0.0
C57 C 0.80008 1.0022 0.27611 0.0
C58 C 0.72533 0.96256 0.28614 0.0
C59 C 0.70179 0.939 0.29136 0.0
C60 C 0.67888 0.94311 0.31571 0.0
C61 C 0.67918 0.97102 0.3347 0.0
C62 C 0.70274 0.99443 0.32945 0.0
C63 C 0.72557 0.99025 0.30538 0.0
P64 P 0.05463 0.75606 0.25396 0.0
H65 H 0.07953 0.74513 0.18907 0.0
H66 H 0.06318 0.708 0.14701 0.0
H67 H 0.97435 0.68955 0.1977 0.0
H68 H 0.99121 0.72688 0.24048 0.0
H69 H 0.07585 0.82277 0.26041 0.0
H70 H 0.06067 0.86432 0.29886 0.0
H71 H 0.97794 0.80835 0.32723 0.0
H72 H 0.99357 0.76636 0.28875 0.0
H73 H 0.05193 0.68541 0.2508 0.0
H74 H 0.06091 0.75828 0.32444 0.0
O75 O 0.09302 0.76482 0.24595 0.0
H76 H 0.04491 0.64474 0.29215 0.0
H77 H 0.05517 0.71714 0.36607 0.0
C78 C 0.03652 0.73919 0.21795 0.0
C79 C 0.05597 0.73417 0.19076 0.0
C80 C 0.04659 0.71273 0.1666 0.0
C81 C 0.01741 0.69577 0.16892 0.0
C82 C 0.997 0.70219 0.19525 0.0
C83 C 0.00636 0.72395 0.21944 0.0
C84 C 0.036 0.79123 0.27172 0.0
C85 C 0.05385 0.81974 0.27406 0.0
C86 C 0.04521 0.84353 0.29626 0.0
C87 C 0.01859 0.83927 0.31676 0.0
C88 C 0.99907 0.81197 0.31236 0.0
C89 C 0.00764 0.78821 0.28992 0.0
C90 C 0.0551 0.72524 0.28443 0.0
C91 C 0.05239 0.69279 0.27581 0.0
C92 C 0.04892 0.66936 0.29953 0.0
C93 C 0.04921 0.67787 0.3323 0.0
C94 C 0.05424 0.71008 0.34093 0.0
C95 C 0.05748 0.73356 0.31714 0.0
P96 P 0.25909 0.95504 0.25499 0.0
H97 H 0.21322 0.92014 0.29333 0.0
H98 H 0.17335 0.93736 0.33248 0.0
H99 H 0.1847 0.03541 0.30085 0.0
H100 H 0.2248 0.01779 0.26077 0.0
H101 H 0.26872 0.93083 0.18957 0.0
H102 H 0.30744 0.94629 0.14833 0.0
H103 H 0.32677 0.03436 0.19956 0.0
H104 H 0.28753 0.01904 0.24078 0.0
H105 H 0.31001 0.91399 0.28195 0.0
H106 H 0.27393 0.01038 0.29554 0.0
O107 O 0.25622 0.91561 0.24822 0.0
H108 H 0.3512 0.92397 0.32339 0.0
H109 H 0.31524 0.02033 0.33586 0.0
C110 C 0.22177 0.96755 0.2736 0.0
C111 C 0.20638 0.94523 0.29373 0.0
C112 C 0.18391 0.95515 0.31662 0.0
C113 C 0.17626 0.98776 0.32013 0.0
C114 C 0.19008 0.01007 0.29863 0.0
C115 C 0.21277 1.00001 0.27552 0.0
C116 C 0.27547 0.97336 0.21888 0.0
C117 C 0.28038 0.95399 0.19161 0.0
C118 C 0.3028 0.96275 0.16803 0.0
C119 C 0.32097 0.99103 0.17127 0.0
C120 C 0.31387 0.01191 0.19696 0.0
C121 C 0.2911 1.00326 0.22041 0.0
C122 C 0.28871 0.96133 0.28582 0.0
C123 C 0.31079 0.93713 0.2938 0.0
C124 C 0.33425 0.9428 0.31728 0.0
C125 C 0.33608 0.97289 0.33233 0.0
C126 C 0.31412 0.99703 0.32427 0.0
C127 C 0.29049 0.99122 0.30131 0.0
P128 P 0.95531 0.75649 0.75187 0.0
H129 H 0.94731 0.75359 0.82206 0.0
H130 H 0.9636 0.71292 0.86128 0.0
H131 H 0.02522 0.66909 0.79005 0.0
H132 H 0.00936 0.71043 0.75086 0.0
H133 H 0.93069 0.82084 0.73913 0.0
H134 H 0.94681 0.86138 0.70015 0.0
H135 H 0.03523 0.80989 0.68254 0.0
H136 H 0.0189 0.76898 0.72216 0.0
H137 H 0.93406 0.68969 0.75297 0.0
H138 H 0.96034 0.7594 0.68044 0.0
O139 O 0.91917 0.76652 0.7663 0.0
H140 H 0.93904 0.64685 0.71292 0.0
H141 H 0.96723 0.71684 0.64136 0.0
C142 C 0.97695 0.73516 0.78336 0.0
C143 C 0.96524 0.73604 0.81509 0.0
C144 C 0.9744 0.71256 0.83749 0.0
C145 C 0.99537 0.68754 0.82861 0.0
C146 C 0.00878 0.68788 0.79747 0.0
C147 C 1.00005 0.7118 0.77522 0.0
C148 C 0.97364 0.79182 0.73395 0.0
C149 C 0.95414 0.8187 0.72796 0.0
C150 C 0.96327 0.84186 0.70532 0.0
C151 C 0.99198 0.83855 0.6877 0.0
C152 C 0.01268 0.81282 0.6953 0.0
C153 C 0.00368 0.78976 0.71845 0.0
C154 C 0.94883 0.72751 0.72031 0.0
C155 C 0.94068 0.69586 0.72847 0.0
C156 C 0.94385 0.67139 0.70572 0.0
C157 C 0.95503 0.67843 0.67454 0.0
C158 C 0.95928 0.71062 0.66545 0.0
C159 C 0.9558 0.73504 0.68809 0.0
P160 P 0.25339 0.95706 0.75682 0.0
H161 H 0.25887 0.94402 0.82601 0.0
H162 H 0.2977 0.96318 0.86582 0.0
H163 H 0.32961 0.03623 0.79939 0.0
H164 H 0.28997 0.01755 0.7597 0.0
H165 H 0.18687 0.93603 0.74731 0.0
H166 H 0.14664 0.95179 0.70751 0.0
H167 H 0.20472 0.03359 0.6811 0.0
H168 H 0.24525 0.01751 0.72099 0.0
H169 H 0.32405 0.95292 0.75999 0.0
H170 H 0.25059 0.94745 0.68646 0.0
O171 O 0.24307 0.92055 0.76981 0.0
H172 H 0.36473 0.96119 0.71872 0.0
H173 H 0.29166 0.9535 0.64487 0.0
C174 C 0.27147 0.97923 0.78974 0.0
C175 C 0.27318 0.965 0.82036 0.0
C176 C 0.29558 0.97583 0.84308 0.0
C177 C 0.31691 1.00088 0.83545 0.0
C178 C 0.31355 0.01674 0.80574 0.0
C179 C 0.29056 0.00635 0.78326 0.0
C180 C 0.21914 0.97561 0.73732 0.0
C181 C 0.19058 0.95798 0.73384 0.0
C182 C 0.1676 0.96692 0.71086 0.0
C183 C 0.17286 0.99352 0.69067 0.0
C184 C 0.20033 0.01259 0.69587 0.0
C185 C 0.22323 0.00375 0.7191 0.0
C186 C 0.28397 0.95212 0.72643 0.0
C187 C 0.31662 0.95325 0.73497 0.0
C188 C 0.33999 0.9576 0.71128 0.0
C189 C 0.33112 0.9596 0.67864 0.0
C190 C 0.29892 0.95385 0.66997 0.0
C191 C 0.27547 0.95014 0.69375 0.0
P192 P 0.05457 0.25411 0.75936 0.0
H193 H 0.07627 0.26168 0.82607 0.0
H194 H 0.06013 0.30044 0.86698 0.0
H195 H 0.97402 0.32163 0.81279 0.0
H196 H 0.99018 0.28258 0.77178 0.0
H197 H 0.09315 0.2092 0.72317 0.0
H198 H 0.07941 0.16967 0.68243 0.0
H199 H 0.97906 0.17819 0.70769 0.0
H200 H 0.99314 0.21783 0.74962 0.0
H201 H 0.09319 0.30885 0.73694 0.0
H202 H 1.00065 0.26654 0.71585 0.0
O203 O 0.09401 0.2528 0.76717 0.0
H204 H 0.08345 0.3497 0.69533 0.0
H205 H 0.9908 0.30715 0.67522 0.0
C206 C 0.03489 0.26949 0.79525 0.0
C207 C 0.05333 0.27371 0.82334 0.0
C208 C 0.04416 0.29615 0.84677 0.0
C209 C 0.01637 0.31496 0.84258 0.0
C210 C 0.99613 0.30825 0.81618 0.0
C211 C 0.00521 0.28555 0.79285 0.0
C212 C 0.04426 0.21653 0.73982 0.0
C213 C 0.06824 0.20188 0.72103 0.0
C214 C 0.06032 0.17961 0.69717 0.0
C215 C 0.02808 0.17161 0.6911 0.0
C216 C 0.00412 0.1842 0.7116 0.0
C217 C 0.01217 0.2066 0.73579 0.0
C218 C 0.0481 0.28402 0.72885 0.0
C219 C 0.07099 0.30811 0.72327 0.0
C220 C 0.06535 0.33149 0.69973 0.0
C221 C 0.0367 0.33099 0.68173 0.0
C222 C 0.0135 0.30742 0.68811 0.0
C223 C 0.0192 0.28414 0.7114 0.0
P224 P 0.75765 0.06015 0.75487 0.0
H225 H 0.75292 0.06916 0.82479 0.0
H226 H 0.71195 0.05163 0.86307 0.0
H227 H 0.67418 0.9857 0.79225 0.0
H228 H 0.71541 1.00336 0.75382 0.0
H229 H 0.82268 0.08279 0.74147 0.0
H230 H 0.86161 0.06683 0.70074 0.0
H231 H 0.80599 0.98162 0.68068 0.0
H232 H 0.76671 0.99781 0.72196 0.0
H233 H 0.68985 0.07884 0.75897 0.0
H234 H 0.75895 0.06018 0.68341 0.0
O235 O 0.76898 0.0956 0.76983 0.0
H236 H 0.64614 0.07442 0.71971 0.0
H237 H 0.71563 0.05351 0.64502 0.0
C238 C 0.7373 0.03772 0.78628 0.0
C239 C 0.73665 0.0501 0.81774 0.0
C240 C 0.71299 0.04021 0.83962 0.0
C241 C 0.68931 0.01789 0.83039 0.0
C242 C 0.69167 1.00346 0.79981 0.0
C243 C 0.71564 0.01312 0.77803 0.0
C244 C 0.79176 0.04143 0.73514 0.0
C245 C 0.81928 0.06005 0.72931 0.0
C246 C 0.84148 0.05103 0.70567 0.0
C247 C 0.83653 0.02332 0.68696 0.0
C248 C 0.81012 1.00343 0.69428 0.0
C249 C 0.78802 0.01232 0.71837 0.0
C250 C 0.72751 0.06769 0.7246 0.0
C251 C 0.69569 0.07397 0.73398 0.0
C252 C 0.67072 0.0711 0.71165 0.0
C253 C 0.67743 0.06197 0.67973 0.0
C254 C 0.70963 0.05984 0.66964 0.0
C255 C 0.73452 0.06318 0.69184 0.0
P256 P 0.25538 0.25839 0.95743 0.0
H257 H 0.2564 0.18905 0.94533 0.0
H258 H 0.29544 0.14799 0.9608 0.0
H259 H 0.33807 0.21354 0.02909 0.0
H260 H 0.29834 0.25458 0.014 0.0
H261 H 0.19036 0.26994 0.93334 0.0
H262 H 0.14925 0.30836 0.94925 0.0
H263 H 0.20235 0.3297 0.03608 0.0
H264 H 0.24386 0.29054 0.02003 0.0
H265 H 0.32402 0.25486 0.94201 0.0
H266 H 0.25415 0.32949 0.96042 0.0
O267 O 0.24578 0.24613 0.92032 0.0
H268 H 0.36742 0.29408 0.94782 0.0
H269 H 0.29726 0.36803 0.96782 0.0
C270 C 0.27442 0.22508 0.97831 0.0
C271 C 0.27324 0.19432 0.96455 0.0
C272 C 0.29578 0.17084 0.97328 0.0
C273 C 0.32012 0.17769 0.99585 0.0
C274 C 0.31979 0.2077 0.01141 0.0
C275 C 0.29678 0.231 1.00309 0.0
C276 C 0.22021 0.27693 0.97559 0.0
C277 C 0.1928 0.28183 0.95642 0.0
C278 C 0.16927 0.30409 0.96546 0.0
C279 C 0.1726 0.32222 0.99385 0.0
C280 C 0.19921 0.31616 0.014 0.0
C281 C 0.22263 0.29338 0.00513 0.0
C282 C 0.28594 0.28872 0.95301 0.0
C283 C 0.31796 0.27959 0.94734 0.0
C284 C 0.34274 0.3019 0.95088 0.0
C285 C 0.33568 0.33367 0.95974 0.0
C286 C 0.30341 0.34349 0.96171 0.0
C287 C 0.27869 0.32124 0.95793 0.0
P288 P 0.25554 0.75376 0.95508 0.0
H289 H 0.18899 0.74805 0.93268 0.0
H290 H 0.14747 0.70936 0.94732 0.0
H291 H 0.20076 0.6845 0.03312 0.0
H292 H 0.24235 0.72348 0.01846 0.0
H293 H 0.29665 0.79504 0.91783 0.0
H294 H 0.3355 0.83604 0.93267 0.0
H295 H 0.29955 0.8352 0.03027 0.0
H296 H 0.26004 0.79353 0.0151 0.0
H297 H 0.27571 0.69588 0.92025 0.0
H298 H 0.30025 0.74488 0.00868 0.0
O299 O 0.24889 0.75429 0.91534 0.0
H300 H 0.31662 0.65495 0.93212 0.0
H301 H 0.34045 0.70426 0.02056 0.0
C302 C 0.21931 0.73845 0.97406 0.0
C303 C 0.19135 0.73523 0.95528 0.0
C304 C 0.16763 0.71279 0.96355 0.0
C305 C 0.17137 0.69299 0.99079 0.0
C306 C 0.19769 0.69863 0.01141 0.0
C307 C 0.22132 0.72133 1.00323 0.0
C308 C 0.27479 0.79153 0.96513 0.0
C309 C 0.29609 0.80436 0.9422 0.0
C310 C 0.31878 0.82751 0.95081 0.0
C311 C 0.32088 0.83859 0.98268 0.0
C312 C 0.29838 0.82719 0.00545 0.0
C313 C 0.27557 0.80365 0.99675 0.0
C314 C 0.28577 0.72404 0.96297 0.0
C315 C 0.29006 0.69805 0.94195 0.0
C316 C 0.31314 0.67463 0.94884 0.0
C317 C 0.33195 0.677 0.9769 0.0
C318 C 0.32682 0.70248 0.99834 0.0
C319 C 0.3039 0.72578 0.99144 0.0
P320 P 0.75871 0.25367 0.95759 0.0
H321 H 0.81771 0.27542 0.92713 0.0
H322 H 0.85622 0.31637 0.94337 0.0
H323 H 0.81761 0.31505 0.03986 0.0
H324 H 0.77823 0.27395 0.0233 0.0
H325 H 0.75483 0.18464 0.94451 0.0
H326 H 0.71431 0.1451 0.96002 0.0
H327 H 0.67678 0.21089 0.03108 0.0
H328 H 0.71767 0.25051 0.01556 0.0
H329 H 0.76265 0.32419 0.96637 0.0
H330 H 0.6899 0.2539 0.94236 0.0
O331 O 0.76618 0.24169 0.9199 0.0
H332 H 0.72161 0.36446 0.97337 0.0
H333 H 0.64834 0.29532 0.94796 0.0
C334 C 0.79521 0.27104 0.97406 0.0
C335 C 0.81822 0.2827 0.95219 0.0
C336 C 0.84002 0.30656 0.96134 0.0
C337 C 0.83959 0.31918 0.9927 0.0
C338 C 0.81846 0.30566 0.01552 0.0
C339 C 0.79627 0.28183 0.0062 0.0
C340 C 0.7392 0.22078 0.97858 0.0
C341 C 0.73872 0.19025 0.96425 0.0
C342 C 0.71532 0.16766 0.97299 0.0
C343 C 0.69175 0.17522 0.99613 0.0
C344 C 0.69414 0.20467 0.01262 0.0
C345 C 0.71787 0.22713 0.00411 0.0
C346 C 0.72935 0.28544 0.95517 0.0
C347 C 0.73796 0.31724 0.96224 0.0
C348 C 0.71437 0.34065 0.96574 0.0
C349 C 0.68179 0.33297 0.9613 0.0
C350 C 0.67332 0.3017 0.9519 0.0
C351 C 0.69703 0.27813 0.9486 0.0
P352 P 0.75718 0.75992 0.04532 0.0
H353 H 0.81382 0.73616 0.07827 0.0
H354 H 0.85326 0.6959 0.06252 0.0
H355 H 0.82102 0.70231 0.96389 0.0
H356 H 0.78063 0.74272 0.97993 0.0
H357 H 0.75583 0.82975 0.05359 0.0
H358 H 0.71599 0.86963 0.03703 0.0
H359 H 0.67196 0.8001 0.97377 0.0
H360 H 0.71236 0.76024 0.99001 0.0
H361 H 0.76096 0.6901 0.03096 0.0
H362 H 0.69025 0.7577 0.06628 0.0
O363 O 0.76363 0.77311 0.08279 0.0
H364 H 0.71973 0.64977 0.02513 0.0
H365 H 0.64864 0.71625 0.06147 0.0
C366 C 0.79447 0.74306 0.03024 0.0
C367 C 0.81598 0.73017 0.05296 0.0
C368 C 0.8383 0.70671 0.04406 0.0
C369 C 0.83988 0.69573 0.01213 0.0
C370 C 0.82029 0.71046 0.98869 0.0
C371 C 0.79754 0.73389 0.99773 0.0
C372 C 0.73709 0.79183 0.02329 0.0
C373 C 0.73846 0.82332 0.03521 0.0
C374 C 0.71547 0.84613 0.02585 0.0
C375 C 0.69055 0.83789 0.00438 0.0
C376 C 0.69065 0.80704 0.9906 0.0
C377 C 0.71401 0.78436 0.99962 0.0
C378 C 0.7286 0.72754 0.04807 0.0
C379 C 0.73673 0.69646 0.03778 0.0
C380 C 0.71307 0.67307 0.03468 0.0
C381 C 0.68093 0.68019 0.04209 0.0
C382 C 0.67316 0.71051 0.05473 0.0
C383 C 0.69692 0.73403 0.05776 0.0
P384 P 0.45402 0.7542 0.7559 0.0
H385 H 0.44424 0.7586 0.68607 0.0
H386 H 0.4622 0.79898 0.64745 0.0
H387 H 0.53037 0.83504 0.71716 0.0
H388 H 0.51225 0.79445 0.75594 0.0
H389 H 0.42946 0.69036 0.77057 0.0
H390 H 0.44593 0.65038 0.81003 0.0
H391 H 0.53335 0.70331 0.82813 0.0
H392 H 0.51671 0.74369 0.78805 0.0
H393 H 0.43656 0.822 0.75071 0.0
H394 H 0.45556 0.75423 0.82731 0.0
O395 O 0.41802 0.74373 0.74142 0.0
H396 H 0.44125 0.86621 0.78923 0.0
H397 H 0.46209 0.79807 0.86505 0.0
C398 C 0.47674 0.77346 0.72405 0.0
C399 C 0.46388 0.77433 0.69277 0.0
C400 C 0.47403 0.79765 0.67071 0.0
C401 C 0.4971 0.82074 0.67958 0.0
C402 C 0.51205 0.81802 0.70991 0.0
C403 C 0.50211 0.79439 0.73187 0.0
C404 C 0.47206 0.71988 0.77577 0.0
C405 C 0.45275 0.69296 0.78199 0.0
C406 C 0.46208 0.67014 0.80485 0.0
C407 C 0.49089 0.67376 0.82225 0.0
C408 C 0.51098 0.7 0.81512 0.0
C409 C 0.50177 0.72274 0.7918 0.0
C410 C 0.44762 0.78493 0.78569 0.0
C411 C 0.44156 0.81657 0.77577 0.0
C412 C 0.44456 0.84182 0.79767 0.0
C413 C 0.45348 0.83559 0.82974 0.0
C414 C 0.45583 0.80364 0.8403 0.0
C415 C 0.4525 0.77847 0.81851 0.0
P416 P 0.25628 0.45293 0.75732 0.0
H417 H 0.25104 0.43914 0.68821 0.0
H418 H 0.21125 0.45609 0.64841 0.0
H419 H 0.17706 0.52906 0.71389 0.0
H420 H 0.21711 0.51191 0.75389 0.0
H421 H 0.32018 0.42672 0.76981 0.0
H422 H 0.36175 0.44209 0.80805 0.0
H423 H 0.3124 0.53146 0.82612 0.0
H424 H 0.27034 0.51586 0.78727 0.0
H425 H 0.18735 0.43903 0.75529 0.0
H426 H 0.25897 0.45714 0.82866 0.0
O427 O 0.26471 0.41569 0.74508 0.0
H428 H 0.14487 0.44576 0.7955 0.0
H429 H 0.21678 0.46578 0.86809 0.0
C430 C 0.23708 0.47408 0.72423 0.0
C431 C 0.23582 0.45951 0.69374 0.0
C432 C 0.21282 0.46911 0.67098 0.0
C433 C 0.1904 0.49336 0.6783 0.0
C434 C 0.19349 0.50979 0.70781 0.0
C435 C 0.2168 0.50038 0.73048 0.0
C436 C 0.29218 0.47026 0.77517 0.0
C437 C 0.31872 0.4502 0.78088 0.0
C438 C 0.34252 0.45894 0.80304 0.0
C439 C 0.34034 0.48795 0.82022 0.0
C440 C 0.31465 0.50891 0.8133 0.0
C441 C 0.29093 0.50028 0.79067 0.0
C442 C 0.22626 0.44964 0.78844 0.0
C443 C 0.19399 0.44449 0.77995 0.0
C444 C 0.16973 0.4486 0.80284 0.0
C445 C 0.17755 0.45778 0.83449 0.0
C446 C 0.21004 0.45941 0.84367 0.0
C447 C 0.23424 0.45492 0.82088 0.0
P448 P 0.56377 0.25888 0.7533 0.0
H449 H 0.57305 0.25476 0.68327 0.0
H450 H 0.5547 0.21454 0.64443 0.0
H451 H 0.48716 0.17811 0.71447 0.0
H452 H 0.50527 0.21874 0.75322 0.0
H453 H 0.60014 0.31203 0.77956 0.0
H454 H 0.58592 0.35203 0.81988 0.0
H455 H 0.48552 0.32834 0.80833 0.0
H456 H 0.49994 0.28787 0.76743 0.0
H457 H 0.58632 0.1928 0.75753 0.0
H458 H 0.54166 0.26168 0.82142 0.0
O459 O 0.60163 0.26281 0.74037 0.0
H460 H 0.57798 0.15079 0.79811 0.0
H461 H 0.53205 0.22009 0.86052 0.0
C462 C 0.54085 0.2397 0.72139 0.0
C463 C 0.55344 0.23899 0.68998 0.0
C464 C 0.5431 0.21575 0.6678 0.0
C465 C 0.52012 0.19257 0.6767 0.0
C466 C 0.50544 0.19517 0.70717 0.0
C467 C 0.51549 0.21873 0.72919 0.0
C468 C 0.55112 0.29704 0.77004 0.0
C469 C 0.57489 0.31624 0.78448 0.0
C470 C 0.56682 0.33878 0.80806 0.0
C471 C 0.53473 0.34261 0.81792 0.0
C472 C 0.51049 0.32567 0.80133 0.0
C473 C 0.51865 0.30288 0.7776 0.0
C474 C 0.5642 0.23037 0.78595 0.0
C475 C 0.57515 0.19903 0.78029 0.0
C476 C 0.57 0.17502 0.80325 0.0
C477 C 0.55362 0.18211 0.83205 0.0
C478 C 0.54461 0.21391 0.83847 0.0
C479 C 0.54994 0.23782 0.81572 0.0
P480 P 0.75509 0.45294 0.75334 0.0
H481 H 0.68455 0.4529 0.74964 0.0
H482 H 0.64397 0.4689 0.7891 0.0
H483 H 0.71775 0.51528 0.84594 0.0
H484 H 0.75744 0.50209 0.8047 0.0
H485 H 0.76938 0.42725 0.68968 0.0
H486 H 0.80836 0.44382 0.6493 0.0
H487 H 0.82102 0.53418 0.69867 0.0
H488 H 0.78156 0.51725 0.73955 0.0
H489 H 0.75611 0.42984 0.81989 0.0
H490 H 0.82625 0.45923 0.74883 0.0
O491 O 0.73975 0.41718 0.74366 0.0
H492 H 0.79703 0.43493 0.86213 0.0
H493 H 0.86619 0.46571 0.79076 0.0
C494 C 0.72428 0.4753 0.77468 0.0
C495 C 0.6918 0.4675 0.77 0.0
C496 C 0.66871 0.47604 0.79309 0.0
C497 C 0.67783 0.49169 0.82185 0.0
C498 C 0.70979 0.50265 0.82455 0.0
C499 C 0.73264 0.49504 0.80086 0.0
C500 C 0.77217 0.4711 0.71757 0.0
C501 C 0.7794 0.45119 0.69128 0.0
C502 C 0.80205 0.46059 0.66825 0.0
C503 C 0.81833 0.49002 0.67114 0.0
C504 C 0.80932 0.51108 0.69614 0.0
C505 C 0.78626 0.50174 0.71912 0.0
C506 C 0.78746 0.44607 0.78149 0.0
C507 C 0.7803 0.43699 0.81326 0.0
C508 C 0.80354 0.44018 0.83739 0.0
C509 C 0.83425 0.45211 0.8298 0.0
C510 C 0.84246 0.45715 0.79737 0.0
C511 C 0.8193 0.45385 0.77334 0.0
P512 P 0.45548 0.25259 0.25748 0.0
H513 H 0.44602 0.25275 0.32752 0.0
H514 H 0.46257 0.21389 0.36858 0.0
H515 H 0.52838 0.17065 0.30088 0.0
H516 H 0.51251 0.21009 0.26009 0.0
H517 H 0.41831 0.29582 0.21853 0.0
H518 H 0.43377 0.33607 0.17882 0.0
H519 H 0.53171 0.3323 0.21305 0.0
H520 H 0.51618 0.29086 0.2528 0.0
H521 H 0.42269 0.19177 0.24497 0.0
H522 H 0.49583 0.24996 0.19943 0.0
O523 O 0.41698 0.25485 0.2688 0.0
H524 H 0.4305 0.15052 0.20325 0.0
H525 H 0.5032 0.20956 0.15833 0.0
C526 C 0.4777 0.23438 0.29047 0.0
C527 C 0.46499 0.23584 0.32181 0.0
C528 C 0.47427 0.21336 0.34524 0.0
C529 C 0.49637 0.18884 0.33776 0.0
C530 C 0.51096 0.18897 0.30718 0.0
C531 C 0.50207 0.21182 0.28394 0.0
C532 C 0.4659 0.29072 0.23926 0.0
C533 C 0.44293 0.3044 0.21851 0.0
C534 C 0.45184 0.32702 0.19534 0.0
C535 C 0.48395 0.33688 0.19255 0.0
C536 C 0.50676 0.32496 0.21472 0.0
C537 C 0.49784 0.30175 0.23779 0.0
C538 C 0.45793 0.22438 0.22488 0.0
C539 C 0.43982 0.19601 0.22575 0.0
C540 C 0.44446 0.17247 0.20221 0.0
C541 C 0.46735 0.17719 0.17774 0.0
C542 C 0.48509 0.20571 0.17675 0.0
C543 C 0.48067 0.22895 0.20029 0.0
P544 P 0.75411 0.56186 0.25724 0.0
H545 H 0.69113 0.5891 0.24225 0.0
H546 H 0.65063 0.57228 0.20344 0.0
H547 H 0.69568 0.47919 0.19677 0.0
H548 H 0.736 0.49583 0.23642 0.0
H549 H 0.79267 0.59778 0.3023 0.0
H550 H 0.83333 0.58186 0.34118 0.0
H551 H 0.80508 0.48281 0.33047 0.0
H552 H 0.76344 0.49901 0.2912 0.0
H553 H 0.78069 0.60345 0.20649 0.0
H554 H 0.79131 0.50533 0.23866 0.0
O555 O 0.7478 0.60136 0.26024 0.0
H556 H 0.81979 0.59321 0.16323 0.0
H557 H 0.82924 0.49508 0.19517 0.0
C558 C 0.7172 0.54399 0.24219 0.0
C559 C 0.69184 0.56461 0.23356 0.0
C560 C 0.66876 0.55512 0.21095 0.0
C561 C 0.67037 0.52469 0.19646 0.0
C562 C 0.6938 0.50285 0.20744 0.0
C563 C 0.71694 0.5124 0.23025 0.0
C564 C 0.77455 0.54969 0.29387 0.0
C565 C 0.79419 0.57268 0.30893 0.0
C566 C 0.81794 0.56354 0.33086 0.0
C567 C 0.82294 0.53107 0.33819 0.0
C568 C 0.80188 0.50804 0.32497 0.0
C569 C 0.77792 0.51729 0.30276 0.0
C570 C 0.78316 0.5552 0.22592 0.0
C571 C 0.79131 0.57981 0.20434 0.0
C572 C 0.81346 0.57399 0.17966 0.0
C573 C 0.82699 0.54334 0.17603 0.0
C574 C 0.81869 0.51877 0.19748 0.0
C575 C 0.79708 0.52473 0.22237 0.0
P576 P 0.56117 0.75883 0.25436 0.0
H577 H 0.58675 0.76754 0.31937 0.0
H578 H 0.57295 0.80561 0.36146 0.0
H579 H 0.48393 0.8276 0.31248 0.0
H580 H 0.4982 0.78959 0.26972 0.0
H581 H 0.5992 0.71024 0.22227 0.0
H582 H 0.58541 0.66782 0.18474 0.0
H583 H 0.48466 0.68146 0.20576 0.0
H584 H 0.49876 0.72402 0.24475 0.0
H585 H 0.60033 0.81029 0.22616 0.0
H586 H 0.50451 0.77173 0.21442 0.0
O587 O 0.60096 0.75772 0.26025 0.0
H588 H 0.58938 0.84931 0.18326 0.0
H589 H 0.4936 0.81055 0.1723 0.0
C590 C 0.54377 0.7756 0.29091 0.0
C591 C 0.56372 0.77963 0.31796 0.0
C592 C 0.55578 0.80162 0.34221 0.0
C593 C 0.52735 0.81993 0.34038 0.0
C594 C 0.50621 0.81422 0.31445 0.0
C595 C 0.51423 0.79211 0.29009 0.0
C596 C 0.55012 0.72037 0.23688 0.0
C597 C 0.57413 0.7035 0.22007 0.0
C598 C 0.56622 0.67929 0.19819 0.0
C599 C 0.53396 0.67138 0.19211 0.0
C600 C 0.50976 0.68722 0.20984 0.0
C601 C 0.51782 0.71128 0.23237 0.0
C602 C 0.55355 0.7875 0.22299 0.0
C603 C 0.57712 0.80995 0.21428 0.0
C604 C 0.57085 0.83226 0.18994 0.0
C605 C 0.54091 0.83232 0.17419 0.0
C606 C 0.51719 0.81029 0.18345 0.0
C607 C 0.52348 0.78807 0.20763 0.0
P608 P 0.25579 0.55201 0.25389 0.0
H609 H 0.24307 0.57796 0.318 0.0
H610 H 0.20501 0.56176 0.35945 0.0
H611 H 0.19 0.47164 0.31031 0.0
H612 H 0.22836 0.48823 0.26831 0.0
H613 H 0.32549 0.56251 0.25249 0.0
H614 H 0.36641 0.54572 0.21368 0.0
H615 H 0.29877 0.47988 0.17058 0.0
H616 H 0.2579 0.49622 0.21011 0.0
H617 H 0.18477 0.54828 0.25883 0.0
H618 H 0.25572 0.56626 0.18478 0.0
O619 O 0.26844 0.58907 0.26251 0.0
H620 H 0.14344 0.54287 0.21798 0.0
H621 H 0.21368 0.56207 0.14362 0.0
C622 C 0.2389 0.53425 0.29003 0.0
C623 C 0.23265 0.55418 0.31658 0.0
C624 C 0.21057 0.54498 0.34028 0.0
C625 C 0.19393 0.5157 0.33786 0.0
C626 C 0.20196 0.49463 0.31252 0.0
C627 C 0.22439 0.5038 0.28885 0.0
C628 C 0.28845 0.53089 0.23412 0.0
C629 C 0.31969 0.54362 0.23553 0.0
C630 C 0.34308 0.53412 0.21316 0.0
C631 C 0.33563 0.51181 0.18882 0.0
C632 C 0.30505 0.49735 0.18888 0.0
C633 C 0.28182 0.50643 0.21171 0.0
C634 C 0.22381 0.5559 0.22478 0.0
C635 C 0.19161 0.55125 0.23386 0.0
C636 C 0.16771 0.54868 0.21044 0.0
C637 C 0.17547 0.55168 0.17763 0.0
C638 C 0.20724 0.55907 0.16876 0.0
C639 C 0.23119 0.56151 0.19225 0.0
P640 P 0.75615 0.75557 0.4576 0.0
H641 H 0.76499 0.69033 0.43317 0.0
H642 H 0.80494 0.6498 0.44692 0.0
H643 H 0.82754 0.70109 0.53446 0.0
H644 H 0.78725 0.74176 0.52067 0.0
H645 H 0.71208 0.79639 0.42334 0.0
H646 H 0.67232 0.83537 0.44135 0.0
H647 H 0.67977 0.79896 0.53837 0.0
H648 H 0.72041 0.75947 0.52019 0.0
H649 H 0.80904 0.78007 0.4176 0.0
H650 H 0.76951 0.79738 0.51234 0.0
O651 O 0.7531 0.74913 0.41795 0.0
H652 H 0.84955 0.82189 0.4272 0.0
H653 H 0.81005 0.83806 0.52219 0.0
C654 C 0.77326 0.71964 0.4755 0.0
C655 C 0.77764 0.6925 0.4559 0.0
C656 C 0.8008 0.66933 0.46367 0.0
C657 C 0.82025 0.67278 0.49123 0.0
C658 C 0.8137 0.6983 0.51249 0.0
C659 C 0.79026 0.7214 0.5048 0.0
C660 C 0.7189 0.77438 0.47023 0.0
C661 C 0.70445 0.79571 0.44831 0.0
C662 C 0.682 0.8184 0.45864 0.0
C663 C 0.67334 0.82033 0.4912 0.0
C664 C 0.68619 0.79785 0.51308 0.0
C665 C 0.70903 0.77505 0.50266 0.0
C666 C 0.78573 0.78624 0.46389 0.0
C667 C 0.80889 0.79295 0.44028 0.0
C668 C 0.83207 0.8166 0.44585 0.0
C669 C 0.83235 0.83352 0.47517 0.0
C670 C 0.80968 0.82604 0.49902 0.0
C671 C 0.78651 0.8027 0.49337 0.0
P672 P 0.75527 0.25762 0.45686 0.0
H673 H 0.68856 0.24779 0.43654 0.0
H674 H 0.64891 0.20773 0.45221 0.0
H675 H 0.70763 0.18143 0.53399 0.0
H676 H 0.74782 0.22148 0.51775 0.0
H677 H 0.76519 0.32383 0.43603 0.0
H678 H 0.80485 0.36335 0.45254 0.0
H679 H 0.82658 0.30696 0.53721 0.0
H680 H 0.78705 0.26668 0.51995 0.0
H681 H 0.75493 0.18737 0.45038 0.0
H682 H 0.82586 0.26327 0.45233 0.0
O683 O 0.74455 0.26819 0.41952 0.0
H684 H 0.79765 0.14763 0.45543 0.0
H685 H 0.86862 0.22337 0.45709 0.0
C686 C 0.72133 0.23782 0.47591 0.0
C687 C 0.69262 0.23422 0.45843 0.0
C688 C 0.66992 0.21105 0.46734 0.0
C689 C 0.67543 0.19076 0.4939 0.0
C690 C 0.70302 0.1961 0.51292 0.0
C691 C 0.72572 0.21951 0.50405 0.0
C692 C 0.77288 0.29217 0.47673 0.0
C693 C 0.77754 0.32031 0.45875 0.0
C694 C 0.80055 0.34294 0.46815 0.0
C695 C 0.81957 0.33799 0.49579 0.0
C696 C 0.81297 0.31111 0.51532 0.0
C697 C 0.78977 0.28841 0.50589 0.0
C698 C 0.78698 0.2284 0.45302 0.0
C699 C 0.77961 0.19558 0.45178 0.0
C700 C 0.80407 0.17282 0.45427 0.0
C701 C 0.83627 0.18262 0.45722 0.0
C702 C 0.84384 0.21538 0.45555 0.0
C703 C 0.81935 0.23812 0.45298 0.0
P704 P 0.25649 0.7555 0.45968 0.0
H705 H 0.32453 0.76142 0.44205 0.0
H706 H 0.36495 0.80083 0.45792 0.0
H707 H 0.30385 0.83216 0.53599 0.0
H708 H 0.26317 0.79258 0.51985 0.0
H709 H 0.24472 0.69103 0.43456 0.0
H710 H 0.20616 0.65003 0.4505 0.0
H711 H 0.18815 0.70086 0.53937 0.0
H712 H 0.22726 0.74217 0.52327 0.0
H713 H 0.25898 0.82472 0.44783 0.0
H714 H 0.1854 0.75339 0.46474 0.0
O715 O 0.26696 0.74712 0.42173 0.0
H716 H 0.2189 0.86717 0.45426 0.0
H717 H 0.14599 0.79558 0.47302 0.0
C718 C 0.29063 0.77402 0.47961 0.0
C719 C 0.32015 0.77591 0.46327 0.0
C720 C 0.34326 0.79869 0.47226 0.0
C721 C 0.33725 0.82023 0.49767 0.0
C722 C 0.30886 0.81642 0.51581 0.0
C723 C 0.28584 0.79336 0.50697 0.0
C724 C 0.23907 0.71982 0.47768 0.0
C725 C 0.23351 0.69294 0.45804 0.0
C726 C 0.21116 0.6695 0.46708 0.0
C727 C 0.19353 0.67257 0.49584 0.0
C728 C 0.20093 0.69817 0.51676 0.0
C729 C 0.22374 0.72147 0.50786 0.0
C730 C 0.2257 0.7859 0.4578 0.0
C731 C 0.23433 0.81813 0.45317 0.0
C732 C 0.2115 0.84239 0.45709 0.0
C733 C 0.17968 0.83467 0.46554 0.0
C734 C 0.17051 0.80226 0.46716 0.0
C735 C 0.19325 0.77806 0.46286 0.0
P736 P 0.25718 0.25476 0.55648 0.0
H737 H 0.32583 0.24903 0.57165 0.0
H738 H 0.36619 0.21007 0.5542 0.0
H739 H 0.30178 0.17631 0.48003 0.0
H740 H 0.26157 0.21631 0.49684 0.0
H741 H 0.25231 0.32358 0.57058 0.0
H742 H 0.21248 0.36347 0.55418 0.0
H743 H 0.17603 0.29812 0.48215 0.0
H744 H 0.21621 0.25811 0.4986 0.0
H745 H 0.25886 0.18387 0.55995 0.0
H746 H 0.1882 0.25903 0.57155 0.0
O747 O 0.26982 0.26747 0.59251 0.0
H748 H 0.21614 0.14476 0.55305 0.0
H749 H 0.14516 0.21934 0.56716 0.0
C750 C 0.2905 0.23564 0.53567 0.0
C751 C 0.32069 0.23423 0.55082 0.0
C752 C 0.34373 0.21173 0.541 0.0
C753 C 0.33687 0.18989 0.51612 0.0
C754 C 0.30754 0.19275 0.49943 0.0
C755 C 0.28477 0.21591 0.50875 0.0
C756 C 0.23732 0.2877 0.53592 0.0
C757 C 0.23659 0.3181 0.55049 0.0
C758 C 0.21359 0.34091 0.54122 0.0
C759 C 0.19061 0.33366 0.5174 0.0
C760 C 0.19302 0.30415 0.50103 0.0
C761 C 0.21636 0.28147 0.51005 0.0
C762 C 0.22668 0.22478 0.56346 0.0
C763 C 0.23418 0.19204 0.56121 0.0
C764 C 0.20964 0.1695 0.5578 0.0
C765 C 0.17727 0.1793 0.55788 0.0
C766 C 0.16992 0.21142 0.56518 0.0
C767 C 0.19453 0.23406 0.56794 0.0
C768 C 0.00546 0.9302 0.58089 0.0
C769 C 0.00843 0.93181 0.42299 0.0
C770 C 0.00624 0.08529 0.58215 0.0
C771 C 0.00532 0.0873 0.42435 0.0
C772 C 0.92966 0.08641 0.4931 0.0
C773 C 0.92888 0.93114 0.49836 0.0
C774 C 0.08367 0.08623 0.51321 0.0
C775 C 0.08463 0.93135 0.49743 0.0
C776 C 0.08661 0.01129 0.42537 0.0
C777 C 0.93164 0.00419 0.42114 0.0
C778 C 0.08275 0.00639 0.58278 0.0
C779 C 0.92695 0.00945 0.57936 0.0
Eu780 Eu 0.00679 0.94769 0.50201 0.0
O781 O 0.97935 0.9809 0.4733 0.0
O782 O 0.0351 0.97959 0.53148 0.0
Eu783 Eu 0.94542 0.00877 0.5007 0.0
Eu784 Eu 0.06798 0.00877 0.50373 0.0
O785 O 0.97698 0.97963 0.52994 0.0
O786 O 0.03597 0.98058 0.47456 0.0
Eu787 Eu 0.00513 0.00796 0.56285 0.0
Eu788 Eu 0.00864 0.00958 0.44176 0.0
O789 O 0.97681 0.03746 0.53068 0.0
O790 O 0.97909 0.03731 0.4737 0.0
O791 O 0.03687 0.03856 0.4744 0.0
O792 O 0.034 0.0364 0.53111 0.0
Eu793 Eu 0.00657 0.06983 0.50298 0.0
O794 O 0.0067 0.92026 0.55013 0.0
O795 O 0.00667 0.92155 0.45355 0.0
O796 O 0.00586 0.09582 0.5516 0.0
O797 O 0.00626 0.09711 0.45511 0.0
O798 O 0.91969 0.05596 0.49277 0.0
O799 O 0.91906 0.96158 0.49932 0.0
O800 O 0.09379 0.05583 0.512 0.0
O801 O 0.09471 0.96166 0.49993 0.0
O802 O 0.05612 0.01075 0.41546 0.0
O803 O 0.96258 0.00684 0.41314 0.0
O804 O 0.05176 0.00773 0.59124 0.0
O805 O 0.95756 0.00803 0.58891 0.0
O806 O 0.05359 0.09641 0.50853 0.0
O807 O 0.95949 0.09663 0.49896 0.0
O808 O 0.05413 0.92137 0.49822 0.0
O809 O 0.95941 0.9212 0.49928 0.0
O810 O 0.01001 0.9626 0.41409 0.0
O811 O 0.00628 0.05678 0.41461 0.0
O812 O 0.00449 0.9609 0.59004 0.0
O813 O 0.00572 0.05452 0.59111 0.0
O814 O 0.91724 0.01043 0.54847 0.0
O815 O 0.92021 0.00471 0.45142 0.0
O816 O 0.09355 0.00567 0.55237 0.0
O817 O 0.0962 0.01096 0.45626 0.0
C818 C 0.51203 0.92789 0.077 0.0
C819 C 0.49925 0.08251 0.08076 0.0
C820 C 0.49477 0.9316 0.92156 0.0
C821 C 0.51243 0.08591 0.92432 0.0
C822 C 0.58213 0.00674 0.92132 0.0
C823 C 0.58539 0.00745 0.07713 0.0
C824 C 0.42467 0.01178 0.92484 0.0
C825 C 0.42764 0.00452 0.07992 0.0
C826 C 0.42593 0.08466 0.00337 0.0
C827 C 0.58368 0.0849 1.00313 0.0
C828 C 0.42624 0.92958 1.00225 0.0
C829 C 0.58404 0.92979 0.99576 0.0
Eu830 Eu 0.50625 0.00573 0.06213 0.0
O831 O 0.53393 0.03554 0.02983 0.0
O832 O 0.47719 0.97745 0.02973 0.0
Eu833 Eu 0.56518 0.00726 0.99963 0.0
Eu834 Eu 0.44498 0.00713 1.00202 0.0
O835 O 0.5338 0.97797 0.02822 0.0
O836 O 0.47761 0.03494 0.03045 0.0
Eu837 Eu 0.50514 0.94584 0.9995 0.0
Eu838 Eu 0.50485 0.0685 1.00213 0.0
O839 O 0.53295 0.97879 0.97051 0.0
O840 O 0.53226 0.03616 0.97243 0.0
O841 O 0.47587 0.03686 0.97278 0.0
O842 O 0.47656 0.97931 0.97229 0.0
Eu843 Eu 0.50374 0.00841 0.93933 0.0
O844 O 0.51055 0.9581 0.08758 0.0
O845 O 0.50166 0.05192 0.0898 0.0
O846 O 0.49724 0.96203 0.91185 0.0
O847 O 0.5098 0.05577 0.91382 0.0
O848 O 0.59165 0.00812 0.95202 0.0
O849 O 0.59357 0.00637 0.04607 0.0
O850 O 0.41662 0.00863 0.95576 0.0
O851 O 0.41827 0.00646 0.04926 0.0
O852 O 0.4564 0.09522 1.00136 0.0
O853 O 0.5531 0.09507 0.00493 0.0
O854 O 0.45683 0.91918 1.00207 0.0
O855 O 0.5535 0.91926 0.99526 0.0
O856 O 0.45496 0.01277 0.91367 0.0
O857 O 0.55137 0.00573 0.91158 0.0
O858 O 0.45838 1.00322 0.08977 0.0
O859 O 0.55502 0.00787 0.08813 0.0
O860 O 0.50069 0.09335 0.05045 0.0
O861 O 0.51024 0.09549 0.95501 0.0
O862 O 0.51007 0.91857 0.04629 0.0
O863 O 0.49776 0.92089 0.95175 0.0
O864 O 0.59271 0.96051 0.99817 0.0
O865 O 0.59263 0.05423 1.00042 0.0
O866 O 0.41733 0.96034 1.00163 0.0
O867 O 0.41743 0.05382 0.00421 0.0
C868 C 1.00189 0.43228 0.08535 0.0
C869 C 0.00367 0.42507 0.92999 0.0
C870 C 1.002 0.58958 0.07737 0.0
C871 C 0.00544 0.5825 0.9221 0.0
C872 C 0.92551 0.58605 0.99735 0.0
C873 C 0.92465 0.42912 0.0081 0.0
C874 C 0.08071 0.58529 1.00108 0.0
C875 C 0.07978 0.42764 0.00785 0.0
C876 C 0.08151 0.49721 0.92748 0.0
C877 C 0.92609 0.49631 0.92513 0.0
C878 C 0.07917 0.51744 0.0826 0.0
C879 C 0.92342 0.51564 0.07998 0.0
Eu880 Eu 1.00232 0.44736 0.00708 0.0
O881 O 0.97472 0.47826 0.97629 0.0
O882 O 0.03136 0.47985 0.03525 0.0
Eu883 Eu 0.94123 0.50747 1.00268 0.0
Eu884 Eu 0.06419 0.50654 0.00492 0.0
O885 O 0.97286 0.48045 0.03388 0.0
O886 O 0.03116 0.47799 0.97726 0.0
Eu887 Eu 1.00158 0.51013 0.06532 0.0
Eu888 Eu 0.00361 0.50454 0.94222 0.0
O889 O 0.97385 0.53662 0.03037 0.0
O890 O 0.97383 0.53455 0.9724 0.0
O891 O 0.03258 0.53393 0.97376 0.0
O892 O 0.03053 0.53594 0.03104 0.0
Eu893 Eu 1.00292 0.56696 1.00044 0.0
O894 O 1.00326 0.42198 0.055 0.0
O895 O 1.0023 0.41764 0.96129 0.0
O896 O 1.00203 0.59662 0.04601 0.0
O897 O 0.00492 0.59231 0.95263 0.0
O898 O 0.9148 0.55573 0.99919 0.0
O899 O 0.9143 0.45948 0.00538 0.0
O900 O 0.09099 0.55473 1.00147 0.0
O901 O 0.09068 0.458 0.00824 0.0
O902 O 0.05135 0.49975 0.91673 0.0
O903 O 0.95669 0.49793 0.91543 0.0
O904 O 0.04854 0.51604 0.09219 0.0
O905 O 0.95375 0.51547 0.09059 0.0
O906 O 0.04988 0.59422 1.00109 0.0
O907 O 0.95635 0.59484 0.99746 0.0
O908 O 0.0488 0.41955 0.00725 0.0
O909 O 0.95539 0.41999 0.00925 0.0
O910 O 0.0046 0.45504 0.91821 0.0
O911 O 0.00439 0.55161 0.91279 0.0
O912 O 1.00027 0.46315 0.0945 0.0
O913 O 1.00163 0.55972 0.08949 0.0
O914 O 0.91382 0.51219 0.04947 0.0
O915 O 0.9155 0.50034 0.95523 0.0
O916 O 0.08991 0.5132 0.05256 0.0
O917 O 0.0911 0.49931 0.95814 0.0
C918 C 0.50661 0.42661 0.08637 0.0
C919 C 0.51149 0.58083 0.08634 0.0
C920 C 0.51248 0.42715 0.92798 0.0
C921 C 0.50873 0.58179 0.92774 0.0
C922 C 0.5877 0.50414 0.92938 0.0
C923 C 0.58534 0.50386 0.08666 0.0
C924 C 0.43273 0.50318 0.92625 0.0
C925 C 0.42989 0.50231 0.08443 0.0
C926 C 0.43025 0.58158 1.00308 0.0
C927 C 0.58556 0.58324 0.0123 0.0
C928 C 0.43219 0.42619 0.99813 0.0
C929 C 0.58752 0.42789 0.99994 0.0
Eu930 Eu 0.50792 0.50367 0.06697 0.0
O931 O 0.53621 0.53266 0.03512 0.0
O932 O 0.47955 0.47482 0.03472 0.0
Eu933 Eu 0.57019 0.50522 0.00774 0.0
Eu934 Eu 0.4475 0.50383 0.00572 0.0
O935 O 0.53826 0.47519 0.03599 0.0
O936 O 0.47919 0.53288 0.03499 0.0
Eu937 Eu 0.50962 0.4428 0.00715 0.0
Eu938 Eu 0.50822 0.56567 0.00695 0.0
O939 O 0.53777 0.47645 0.97972 0.0
O940 O 0.53826 0.53406 0.97853 0.0
O941 O 0.48043 0.53278 0.97812 0.0
O942 O 0.4814 0.47562 0.97851 0.0
Eu943 Eu 0.51 0.50444 0.9467 0.0
O944 O 0.50635 0.4574 0.09488 0.0
O945 O 0.5106 0.55001 0.09487 0.0
O946 O 0.51043 0.45778 0.91887 0.0
O947 O 0.51004 0.55099 0.91935 0.0
O948 O 0.59777 0.50712 0.95992 0.0
O949 O 0.59622 0.50526 0.05631 0.0
O950 O 0.42155 0.50353 0.95662 0.0
O951 O 0.41987 0.50199 0.05366 0.0
O952 O 0.46068 0.59149 0.00512 0.0
O953 O 0.55505 0.59282 0.00972 0.0
O954 O 0.46256 0.41616 1.0012 0.0
O955 O 0.55745 0.41712 0.00339 0.0
O956 O 0.46377 0.50376 0.91833 0.0
O957 O 0.55717 0.50208 0.91986 0.0
O958 O 0.46058 0.50393 0.09369 0.0
O959 O 0.55451 0.50236 0.09547 0.0
O960 O 0.50948 0.59186 0.05595 0.0
O961 O 0.50826 0.59249 0.9583 0.0
O962 O 0.50773 0.41599 0.05578 0.0
O963 O 0.51289 0.41669 0.95857 0.0
O964 O 0.59704 0.45842 1.00203 0.0
O965 O 0.5959 0.55289 0.0119 0.0
O966 O 0.42188 0.45648 0.99987 0.0
O967 O 0.42054 0.55101 1.00335 0.0
C968 C 0.01097 0.42728 0.58402 0.0
C969 C 0.99962 0.42725 0.42833 0.0
C970 C 0.99752 0.58235 0.58316 0.0
C971 C 0.0171 0.58179 0.42795 0.0
C972 C 0.92853 0.5828 0.50252 0.0
C973 C 0.92752 0.42788 0.50731 0.0
C974 C 0.08633 0.58182 0.50807 0.0
C975 C 0.08479 0.42614 0.50606 0.0
C976 C 0.08726 0.50242 0.4294 0.0
C977 C 0.92985 0.50772 0.42651 0.0
C978 C 0.0844 0.50564 0.58556 0.0
C979 C 0.92682 0.5043 0.5822 0.0
Eu980 Eu 0.00634 0.44382 0.50608 0.0
O981 O 0.97909 0.47648 0.4767 0.0
O982 O 0.03435 0.47623 0.53514 0.0
Eu983 Eu 0.94674 0.50524 0.50465 0.0
Eu984 Eu 0.06742 0.50419 0.50714 0.0
O985 O 0.97772 0.47636 0.53453 0.0
O986 O 0.03593 0.47549 0.47749 0.0
Eu987 Eu 0.00593 0.50499 0.5674 0.0
Eu988 Eu 0.00827 0.5045 0.44446 0.0
O989 O 0.97875 0.53339 0.53366 0.0
O990 O 0.97929 0.53385 0.47607 0.0
O991 O 0.03572 0.53269 0.47803 0.0
O992 O 0.03527 0.53372 0.53543 0.0
Eu993 Eu 0.00736 0.56603 0.50559 0.0
O994 O 0.00986 0.41761 0.55341 0.0
O995 O 1.00082 0.41739 0.45891 0.0
O996 O 1.00023 0.59228 0.55267 0.0
O997 O 0.01318 0.59225 0.45812 0.0
O998 O 0.91952 0.55213 0.50411 0.0
O999 O 0.91893 0.45865 0.50498 0.0
O1000 O 0.09508 0.55099 0.50699 0.0
O1001 O 0.09423 0.45676 0.50772 0.0
O1002 O 0.05686 0.50131 0.41862 0.0
O1003 O 0.96066 0.5089 0.41694 0.0
O1004 O 0.05362 0.50699 0.59518 0.0
O1005 O 0.95716 0.503 0.59318 0.0
O1006 O 0.05579 0.59228 0.50875 0.0
O1007 O 0.95918 0.59296 0.50191 0.0
O1008 O 0.05408 0.41644 0.50439 0.0
O1009 O 0.958 0.4174 0.50878 0.0
O1010 O 1.00314 0.45737 0.41795 0.0
O1011 O 0.01564 0.55134 0.41807 0.0
O1012 O 0.00927 0.45769 0.5941 0.0
O1013 O 1.00012 0.55216 0.59356 0.0
O1014 O 0.91848 0.50587 0.55117 0.0
O1015 O 0.92009 0.50518 0.45705 0.0
O1016 O 0.09395 0.50407 0.55485 0.0
O1017 O 0.09571 0.50409 0.46043 0.0
C1018 C 0.5081 0.92789 0.58902 0.0
C1019 C 0.51038 0.92541 0.43331 0.0
C1020 C 0.50531 0.08471 0.5869 0.0
C1021 C 0.50784 0.08348 0.43099 0.0
C1022 C 0.42886 0.08408 0.50647 0.0
C1023 C 0.42888 0.92683 0.50932 0.0
C1024 C 0.58447 0.08371 0.50747 0.0
C1025 C 0.58449 0.92656 0.5128 0.0
C1026 C 0.58508 0.99817 0.43284 0.0
C1027 C 0.43017 1.00014 0.43051 0.0
C1028 C 0.58286 0.01623 0.58816 0.0
C1029 C 0.42784 0.99905 0.58625 0.0
Eu1030 Eu 0.5068 0.94528 0.51086 0.0
O1031 O 0.47866 0.97693 0.48104 0.0
O1032 O 0.5357 0.97703 0.54 0.0
Eu1033 Eu 0.44536 0.00545 0.50872 0.0
Eu1034 Eu 0.56798 0.00515 0.51045 0.0
O1035 O 0.47769 0.97775 0.53826 0.0
O1036 O 0.5353 0.9771 0.48198 0.0
Eu1037 Eu 0.50582 0.00598 0.5712 0.0
Eu1038 Eu 0.50755 0.00468 0.44805 0.0
O1039 O 0.47712 0.03424 0.53817 0.0
O1040 O 0.47814 0.03344 0.47979 0.0
O1041 O 0.53602 0.03341 0.48066 0.0
O1042 O 0.53435 0.0332 0.53786 0.0
Eu1043 Eu 0.50654 0.06541 0.50896 0.0
O1044 O 0.50654 0.91856 0.55829 0.0
O1045 O 0.50866 0.9173 0.46434 0.0
O1046 O 0.50684 0.09336 0.55591 0.0
O1047 O 0.50715 0.0924 0.46183 0.0
O1048 O 0.41836 0.05361 0.50707 0.0
O1049 O 0.41869 0.95735 0.50866 0.0
O1050 O 0.5947 0.05318 0.50661 0.0
O1051 O 0.59476 0.95707 0.51392 0.0
O1052 O 0.55514 1.00234 0.42212 0.0
O1053 O 0.46071 1.00179 0.42083 0.0
O1054 O 0.55253 0.01293 0.59814 0.0
O1055 O 0.4582 0.99991 0.59676 0.0
O1056 O 0.55366 0.09267 0.50909 0.0
O1057 O 0.4597 0.09278 0.50749 0.0
O1058 O 0.55368 0.91772 0.51128 0.0
O1059 O 0.45973 0.91784 0.51025 0.0
O1060 O 0.50986 0.95572 0.42218 0.0
O1061 O 0.50782 0.05289 0.42071 0.0
O1062 O 0.50898 0.95851 0.59888 0.0
O1063 O 0.50352 0.05432 0.59743 0.0
O1064 O 0.4181 1.00232 0.55576 0.0
O1065 O 0.41965 1.00121 0.46089 0.0
O1066 O 0.59339 0.01338 0.55788 0.0
O1067 O 0.59474 0.99811 0.46352 0.0
C1068 C 0.1525 0.1246 0.55848 0.0
C1069 C 0.15185 0.15656 0.54755 0.0
C1070 C 0.13074 0.1019 0.54662 0.0
C1071 C 0.10732 0.11038 0.52364 0.0
H1072 H 0.17003 0.11703 0.57627 0.0
H1073 H 0.13195 0.07762 0.55599 0.0
S1074 S 0.09579 0.19054 0.48656 0.0
N1075 N 0.12637 0.19526 0.51157 0.0
N1076 N 0.08465 0.15267 0.49026 0.0
C1077 C 0.10605 0.14226 0.51278 0.0
C1078 C 0.12849 0.16534 0.52452 0.0
C1079 C 0.88149 0.16328 0.49165 0.0
C1080 C 0.86147 0.15882 0.46462 0.0
C1081 C 0.90369 0.1397 0.50085 0.0
C1082 C 0.90614 0.11086 0.48355 0.0
H1083 H 0.87943 0.18478 0.50621 0.0
H1084 H 0.91856 0.14377 0.52194 0.0
S1085 S 0.86279 0.0899 0.40827 0.0
N1086 N 0.848 0.12518 0.41875 0.0
N1087 N 0.88946 0.08054 0.4363 0.0
C1088 C 0.88714 0.10664 0.45584 0.0
C1089 C 0.86482 0.13073 0.44631 0.0
C1090 C 0.88923 0.85231 0.47633 0.0
C1091 C 0.85644 0.85875 0.48123 0.0
C1092 C 0.91254 0.87565 0.48271 0.0
C1093 C 0.90384 0.90632 0.49409 0.0
H1094 H 0.89694 0.82897 0.46774 0.0
H1095 H 0.93751 0.86965 0.47813 0.0
S1096 S 0.82065 0.93488 0.51069 0.0
N1097 N 0.81608 0.89773 0.49764 0.0
N1098 N 0.85981 0.94156 0.51042 0.0
C1099 C 0.87096 0.91293 0.49927 0.0
C1100 C 0.84728 0.88914 0.49266 0.0
C1101 C 0.12472 0.8585 0.46122 0.0
C1102 C 0.15617 0.86011 0.47365 0.0
C1103 C 0.10159 0.88135 0.46966 0.0
C1104 C 0.10915 0.90682 0.4906 0.0
H1105 H 0.11796 0.83954 0.44467 0.0
H1106 H 0.07777 0.8794 0.45914 0.0
S1107 S 0.18738 0.92091 0.53124 0.0
N1108 N 0.19322 0.88831 0.50932 0.0
N1109 N 0.1498 0.93193 0.52438 0.0
C1110 C 0.14043 0.90877 0.50327 0.0
C1111 C 0.16394 0.88526 0.49498 0.0
C1112 C 0.4736 0.16 0.12081 0.0
C1113 C 0.4741 0.15217 0.15371 0.0
C1114 C 0.48235 0.13747 0.0975 0.0
C1115 C 0.49209 0.10627 0.10627 0.0
H1116 H 0.4664 0.1838 0.11304 0.0
H1117 H 0.48109 0.14465 0.07242 0.0
S1118 S 0.49884 0.07474 0.19001 0.0
N1119 N 0.48584 0.11194 0.19439 0.0
N1120 N 0.50245 0.06917 0.15076 0.0
C1121 C 0.49286 0.09826 0.13936 0.0
C1122 C 0.48376 0.1213 0.16304 0.0
C1123 C 0.88061 0.55218 0.1513 0.0
C1124 C 0.85055 0.5369 0.15048 0.0
C1125 C 0.9043 0.54469 0.12858 0.0
C1126 C 0.89836 0.5221 0.10406 0.0
H1127 H 0.88601 0.56956 0.16999 0.0
H1128 H 0.92726 0.55698 0.12996 0.0
S1129 S 0.82314 0.47587 0.09158 0.0
N1130 N 0.81584 0.49834 0.12361 0.0
N1131 N 0.86023 0.48467 0.08023 0.0
C1132 C 0.86818 0.50699 0.10277 0.0
C1133 C 0.84428 0.51426 0.12623 0.0
C1134 C 0.53862 0.88876 0.15492 0.0
C1135 C 0.53384 0.85599 0.14881 0.0
C1136 C 0.5309 0.9118 0.13172 0.0
C1137 C 0.51827 0.90288 0.10147 0.0
H1138 H 0.54804 0.89666 0.17797 0.0
H1139 H 0.53533 0.93678 0.13753 0.0
S1140 S 0.50186 0.81963 0.07374 0.0
N1141 N 0.51638 0.81537 0.11056 0.0
N1142 N 0.50136 0.85866 0.06682 0.0
C1143 C 0.51345 0.87001 0.09508 0.0
C1144 C 0.52133 0.84658 0.1188 0.0
C1145 C 0.15814 0.52297 0.12775 0.0
C1146 C 0.15098 0.54465 0.15277 0.0
C1147 C 0.13471 0.51409 0.10518 0.0
C1148 C 0.10324 0.5263 0.10713 0.0
H1149 H 0.18185 0.51226 0.12599 0.0
H1150 H 0.14117 0.4972 0.08638 0.0
S1151 S 0.07332 0.58643 0.16605 0.0
N1152 N 0.11108 0.58005 0.17667 0.0
N1153 N 0.06675 0.56296 0.13464 0.0
C1154 C 0.09595 0.54851 0.13164 0.0
C1155 C 0.1199 0.55779 0.15437 0.0
C1156 C 0.45184 0.86131 0.88395 0.0
C1157 C 0.46262 0.8619 0.85184 0.0
C1158 C 0.46285 0.88379 0.90632 0.0
C1159 C 0.48474 0.9079 0.89735 0.0
H1160 H 0.43495 0.84316 0.89194 0.0
H1161 H 0.45381 0.88251 0.93077 0.0
S1162 S 0.52069 0.91988 0.81647 0.0
N1163 N 0.49701 0.88829 0.81228 0.0
N1164 N 0.51677 0.9314 0.85439 0.0
C1165 C 0.49527 0.90929 0.86525 0.0
C1166 C 0.48441 0.88608 0.84245 0.0
C1167 C 0.15338 0.45672 0.8896 0.0
C1168 C 0.15221 0.46757 0.85751 0.0
C1169 C 0.13082 0.46717 0.91228 0.0
C1170 C 0.10615 0.48861 0.90359 0.0
H1171 H 0.17178 0.4399 0.89721 0.0
H1172 H 0.1323 0.45778 0.93663 0.0
S1173 S 0.09361 0.52568 0.82328 0.0
N1174 N 0.1254 0.50233 0.81861 0.0
N1175 N 0.08231 0.52117 0.86119 0.0
C1176 C 0.10469 0.49974 0.87167 0.0
C1177 C 0.12789 0.4894 0.84863 0.0
C1178 C 0.54842 0.16108 0.88811 0.0
C1179 C 0.54404 0.15653 0.85481 0.0
C1180 C 0.53726 0.13852 0.91037 0.0
C1181 C 0.52145 0.11041 0.9002 0.0
H1182 H 0.56062 0.18228 0.89706 0.0
H1183 H 0.54169 0.14295 0.93572 0.0
S1184 S 0.50288 0.08784 0.8155 0.0
N1185 N 0.52186 0.12252 0.81261 0.0
N1186 N 0.5014 0.0796 0.85442 0.0
C1187 C 0.5169 0.10555 0.86688 0.0
C1188 C 0.52813 0.12869 0.8442 0.0
C1189 C 0.88953 0.45398 0.85332 0.0
C1190 C 0.85682 0.46228 0.8554 0.0
C1191 C 0.91183 0.46578 0.8756 0.0
C1192 C 0.90222 0.48622 0.90086 0.0
H1193 H 0.89797 0.43828 0.83427 0.0
H1194 H 0.93671 0.45832 0.87331 0.0
S1195 S 0.81959 0.5165 0.91588 0.0
N1196 N 0.81603 0.49328 0.88381 0.0
N1197 N 0.85795 0.51492 0.92622 0.0
C1198 C 0.86957 0.49471 0.90325 0.0
C1199 C 0.84687 0.48285 0.88041 0.0
C1200 C 0.66012 0.62414 0.0444 0.0
C1201 C 0.65569 0.65626 0.03502 0.0
C1202 C 0.63767 0.60058 0.03614 0.0
C1203 C 0.60981 0.60831 0.01849 0.0
H1204 H 0.68109 0.61718 0.05827 0.0
H1205 H 0.64201 0.5762 0.04417 0.0
S1206 S 0.58823 0.6886 0.98615 0.0
N1207 N 0.62246 0.69439 0.00555 0.0
N1208 N 0.57972 0.65014 0.99062 0.0
C1209 C 0.6052 0.64033 0.00871 0.0
C1210 C 0.62824 0.66431 0.01691 0.0
C1211 C 0.3497 0.62033 0.98435 0.0
C1212 C 0.35718 0.65316 0.98389 0.0
C1213 C 0.37329 0.59743 0.99147 0.0
C1214 C 0.4053 0.60657 0.99819 0.0
H1215 H 0.32537 0.61232 0.97937 0.0
H1216 H 0.36634 0.57239 0.9912 0.0
S1217 S 0.43681 0.69025 0.99926 0.0
N1218 N 0.39835 0.69405 0.99007 0.0
N1219 N 0.44287 0.65137 0.00389 0.0
C1220 C 0.4129 0.63961 0.99792 0.0
C1221 C 0.38881 0.66281 0.99064 0.0
C1222 C 0.36091 0.3879 0.95706 0.0
C1223 C 0.36158 0.35625 0.96879 0.0
C1224 C 0.38365 0.41044 0.96718 0.0
C1225 C 0.40801 0.40206 0.98919 0.0
H1226 H 0.34264 0.39532 0.93995 0.0
H1227 H 0.3824 0.43449 0.95726 0.0
S1228 S 0.41956 0.32284 0.02817 0.0
N1229 N 0.38787 0.31798 0.0046 0.0
N1230 N 0.43131 0.36035 0.02288 0.0
C1231 C 0.40918 0.37051 1.00097 0.0
C1232 C 0.38578 0.34759 0.99093 0.0
C1233 C 0.63127 0.34881 0.98971 0.0
C1234 C 0.65682 0.35703 0.96904 0.0
C1235 C 0.60908 0.37195 0.99996 0.0
C1236 C 0.61199 0.40416 0.99025 0.0
H1237 H 0.62882 0.32448 0.99863 0.0
H1238 H 0.58977 0.36464 0.01592 0.0
S1239 S 0.67294 0.4372 0.93369 0.0
N1240 N 0.68228 0.39884 0.9371 0.0
N1241 N 0.64126 0.44263 0.95708 0.0
C1242 C 0.63709 0.41252 0.96903 0.0
C1243 C 0.65932 0.38887 0.95823 0.0
C1244 C 0.95611 0.65439 0.61948 0.0
C1245 C 0.96481 0.65258 0.65218 0.0
C1246 C 0.96747 0.63188 0.59727 0.0
C1247 C 0.98774 0.60661 0.60698 0.0
H1248 H 0.94045 0.67338 0.61096 0.0
H1249 H 0.95979 0.63401 0.57238 0.0
S1250 S 0.0186 0.59179 0.68957 0.0
N1251 N 0.99591 0.62417 0.69305 0.0
N1252 N 0.01647 0.5812 0.65125 0.0
C1253 C 0.99648 0.60432 0.63961 0.0
C1254 C 0.98518 0.62746 0.66223 0.0
C1255 C 0.38644 0.95678 0.6551 0.0
C1256 C 0.35512 0.96961 0.65423 0.0
C1257 C 0.41006 0.96723 0.63353 0.0
C1258 C 0.40311 0.99059 0.61007 0.0
H1259 H 0.39272 0.93838 0.67247 0.0
H1260 H 0.43372 0.95631 0.63473 0.0
S1261 S 0.32566 0.03321 0.59867 0.0
N1262 N 0.31904 0.00839 0.62902 0.0
N1263 N 0.36332 0.02697 0.58757 0.0
C1264 C 0.37204 1.00368 0.60883 0.0
C1265 C 0.34806 0.99343 0.63112 0.0
C1266 C 0.0333 0.3879 0.66342 0.0
C1267 C 0.03059 0.35505 0.65639 0.0
C1268 C 0.02622 0.41109 0.64005 0.0
C1269 C 0.01633 0.40222 0.60877 0.0
H1270 H 0.04056 0.39573 0.68726 0.0
H1271 H 0.02896 0.43613 0.64658 0.0
S1272 S 0.00637 0.31873 0.57842 0.0
N1273 N 0.01829 0.31448 0.61615 0.0
N1274 N 0.00432 0.35781 0.57223 0.0
C1275 C 0.01363 0.36923 0.60152 0.0
C1276 C 0.02093 0.34572 0.62533 0.0
C1277 C 0.65242 0.06128 0.62502 0.0
C1278 C 0.65145 0.05181 0.65755 0.0
C1279 C 0.63044 0.04906 0.6027 0.0
C1280 C 0.60645 0.0272 0.61215 0.0
H1281 H 0.67049 0.07809 0.61667 0.0
H1282 H 0.632 0.05723 0.57792 0.0
S1283 S 0.59358 0.99442 0.69424 0.0
N1284 N 0.62484 0.01863 0.69798 0.0
N1285 N 0.58265 0.99665 0.65601 0.0
C1286 C 0.6047 0.01796 0.64464 0.0
C1287 C 0.62739 0.03005 0.66737 0.0
C1288 C 0.99719 0.38249 0.34914 0.0
C1289 C 0.97444 0.35826 0.35525 0.0
C1290 C 0.00543 0.40474 0.37302 0.0
C1291 C 0.99164 0.40298 0.40391 0.0
H1292 H 0.00848 0.38437 0.32566 0.0
H1293 H 0.02287 0.42326 0.36737 0.0
S1294 S 0.93047 0.3442 0.43164 0.0
N1295 N 0.93806 0.33385 0.39397 0.0
N1296 N 0.95357 0.3756 0.43909 0.0
C1297 C 0.96887 0.37881 0.41029 0.0
C1298 C 0.96021 0.35647 0.38585 0.0
C1299 C 0.63631 0.00521 0.35843 0.0
C1300 C 0.65448 0.97672 0.35942 0.0
C1301 C 0.61375 0.01211 0.38244 0.0
C1302 C 0.60933 0.99106 0.40843 0.0
H1303 H 0.63952 0.0222 0.33889 0.0
H1304 H 0.59995 0.03415 0.38089 0.0
S1305 S 0.64953 0.91266 0.42118 0.0
N1306 N 0.66566 0.9268 0.38765 0.0
N1307 N 0.62337 0.94006 0.43322 0.0
C1308 C 0.62702 0.96238 0.40958 0.0
C1309 C 0.64959 0.95509 0.38487 0.0
C1310 C 0.01936 0.65976 0.3813 0.0
C1311 C 0.04247 0.65346 0.3573 0.0
C1312 C 0.0112 0.63642 0.40419 0.0
C1313 C 0.02557 0.60591 0.40351 0.0
H1314 H 0.00704 0.68268 0.38205 0.0
H1315 H 0.99316 0.64211 0.42219 0.0
S1316 S 0.09004 0.57869 0.34794 0.0
N1317 N 0.08157 0.61555 0.33599 0.0
N1318 N 0.06568 0.57135 0.37853 0.0
C1319 C 0.04918 0.59951 0.38008 0.0
C1320 C 0.05777 0.62338 0.35707 0.0
C1321 C 0.35843 0.96531 0.38721 0.0
C1322 C 0.36076 0.97948 0.35663 0.0
C1323 C 0.38063 0.97288 0.41139 0.0
C1324 C 0.406 0.99444 0.4054 0.0
H1325 H 0.33913 0.94863 0.39254 0.0
H1326 H 0.3783 0.96129 0.43469 0.0
S1327 S 0.4219 0.03804 0.32907 0.0
N1328 N 0.38953 0.01624 0.32151 0.0
N1329 N 0.43191 0.03007 0.36681 0.0
C1330 C 0.40855 0.00865 0.37479 0.0
C1331 C 0.38567 1.00129 0.35039 0.0
C1332 C 0.0078 0.12829 0.34203 0.0
C1333 C 0.98732 0.15485 0.3462 0.0
C1334 C 0.01419 0.10703 0.36766 0.0
C1335 C 1.00099 0.11192 0.39863 0.0
H1336 H 0.01799 0.12324 0.31853 0.0
H1337 H 0.02924 0.08632 0.36305 0.0
S1338 S 0.9469 0.1788 0.42242 0.0
N1339 N 0.95469 0.1855 0.38393 0.0
N1340 N 0.96698 0.14591 0.43196 0.0
C1341 C 0.98137 0.13905 0.40333 0.0
C1342 C 0.97446 0.16037 0.37717 0.0
C1343 C 0.85425 0.00402 0.37078 0.0
C1344 C 0.8647 0.99217 0.34074 0.0
C1345 C 0.87576 0.00735 0.39689 0.0
C1346 C 0.90868 0.99975 0.39367 0.0
H1347 H 0.8291 0.00992 0.37436 0.0
H1348 H 0.86652 0.01606 0.41969 0.0
S1349 S 0.94741 0.96638 0.31988 0.0
N1350 N 0.90943 0.97171 0.30946 0.0
N1351 N 0.95005 0.97849 0.35769 0.0
C1352 C 0.91921 0.98778 0.36352 0.0
C1353 C 0.8972 0.98392 0.3373 0.0
C1354 C 0.01429 0.89549 0.3385 0.0
C1355 C 0.01305 0.86219 0.34396 0.0
C1356 C 0.01231 0.91753 0.36404 0.0
C1357 C 0.0091 0.90738 0.39641 0.0
H1358 H 0.01717 0.90465 0.3142 0.0
H1359 H 0.01382 0.94281 0.35818 0.0
S1360 S 0.00485 0.82242 0.42372 0.0
N1361 N 0.00858 0.81994 0.38415 0.0
N1362 N 0.00441 0.86115 0.43214 0.0
C1363 C 0.00734 0.87402 0.40215 0.0
C1364 C 0.00936 0.85155 0.37601 0.0
C1365 C 0.16159 0.98691 0.37887 0.0
C1366 C 0.1551 0.99788 0.34733 0.0
C1367 C 0.14029 0.99299 0.40449 0.0
C1368 C 0.11143 0.00992 0.3995 0.0
H1369 H 0.18301 0.97284 0.38364 0.0
H1370 H 0.14577 0.98297 0.42799 0.0
S1371 S 0.08445 0.04606 0.32205 0.0
N1372 N 0.11881 0.02823 0.31304 0.0
N1373 N 0.07871 0.03965 0.36094 0.0
C1374 C 0.10539 0.02224 0.36834 0.0
C1375 C 0.12724 0.01628 0.34236 0.0
C1376 C 0.99563 0.89443 0.66525 0.0
C1377 C 0.99881 0.86117 0.66049 0.0
C1378 C 0.99844 0.91619 0.63956 0.0
C1379 C 0.00429 0.90585 0.60761 0.0
H1380 H 0.99048 0.90375 0.68909 0.0
H1381 H 0.99531 0.94144 0.64497 0.0
S1382 S 0.01507 0.82091 0.58227 0.0
N1383 N 0.00858 0.81871 0.62151 0.0
N1384 N 0.01399 0.8595 0.57314 0.0
C1385 C 0.00814 0.87255 0.6026 0.0
C1386 C 0.00544 0.85032 0.62898 0.0
C1387 C 0.11724 0.99972 0.66788 0.0
C1388 C 0.15071 0.99962 0.66301 0.0
C1389 C 0.09574 1.00248 0.64193 0.0
C1390 C 0.10668 0.005 0.60976 0.0
H1391 H 0.10753 0.99731 0.69202 0.0
H1392 H 0.07024 1.00207 0.64732 0.0
S1393 S 0.19247 0.00599 0.58411 0.0
N1394 N 0.19404 1.00237 0.62374 0.0
N1395 N 0.15384 0.00777 0.57489 0.0
C1396 C 0.14027 0.00543 0.60463 0.0
C1397 C 0.16218 1.00274 0.63121 0.0
C1398 C 1.00158 0.1233 0.66583 0.0
C1399 C 0.01993 0.15146 0.66243 0.0
C1400 C 0.9965 0.10251 0.63953 0.0
C1401 C 0.00905 0.10936 0.60864 0.0
H1402 H 0.99206 0.11669 0.68923 0.0
H1403 H 0.98298 0.08063 0.64358 0.0
S1404 S 0.05715 0.18121 0.5866 0.0
N1405 N 0.04936 0.18595 0.62538 0.0
N1406 N 0.03979 0.1471 0.57617 0.0
C1407 C 0.0264 0.1381 0.60469 0.0
C1408 C 0.03186 0.15904 0.63151 0.0
C1409 C 0.89197 0.0181 0.66397 0.0
C1410 C 0.85854 0.01649 0.65931 0.0
C1411 C 0.91344 0.01528 0.6381 0.0
C1412 C 0.90264 0.0109 0.60605 0.0
H1413 H 0.90169 0.02202 0.6879 0.0
H1414 H 0.93888 0.01724 0.64351 0.0
S1415 S 0.81704 0.00422 0.58092 0.0
N1416 N 0.81531 0.00963 0.62036 0.0
N1417 N 0.85569 0.00409 0.57155 0.0
C1418 C 0.86913 0.00856 0.60109 0.0
C1419 C 0.84714 0.01132 0.62769 0.0
C1420 C 0.34351 0.99444 0.11532 0.0
C1421 C 0.34824 0.99737 0.14872 0.0
C1422 C 0.3692 0.99735 0.09362 0.0
C1423 C 0.40106 1.00289 0.10424 0.0
H1424 H 0.3197 0.98957 0.10583 0.0
H1425 H 0.36385 0.99465 0.06821 0.0
S1426 S 0.42618 0.01335 0.18959 0.0
N1427 N 0.38701 0.00685 0.19164 0.0
N1428 N 0.43542 0.01234 0.15086 0.0
C1429 C 0.40605 0.00648 0.13767 0.0
C1430 C 0.37967 0.00377 0.15984 0.0
C1431 C 0.97289 0.38259 0.15656 0.0
C1432 C 0.98874 0.35294 0.15204 0.0
C1433 C 0.97877 0.40898 0.1362 0.0
C1434 C 1.00035 0.40656 0.11021 0.0
H1435 H 0.95529 0.38519 0.17566 0.0
H1436 H 0.96514 0.43086 0.13988 0.0
S1437 S 0.04961 0.33506 0.08923 0.0
N1438 N 0.02828 0.32345 0.12076 0.0
N1439 N 0.03914 0.3727 0.0823 0.0
C1440 C 0.01723 0.37743 0.10618 0.0
C1441 C 0.01152 0.35074 0.12715 0.0
C1442 C 0.63211 0.99992 0.15645 0.0
C1443 C 0.66448 1.003 0.14675 0.0
C1444 C 0.60669 1.00202 0.13405 0.0
C1445 C 0.61255 0.00744 0.10099 0.0
H1446 H 0.62641 0.99483 0.18143 0.0
H1447 H 0.58233 0.99861 0.14271 0.0
S1448 S 0.69326 0.02078 0.06406 0.0
N1449 N 0.70098 0.01402 0.10252 0.0
N1450 N 0.65377 0.01842 0.06044 0.0
C1451 C 0.64496 0.0118 0.09132 0.0
C1452 C 0.67072 0.00943 0.11413 0.0
C1453 C 1.00178 0.63874 0.15556 0.0
C1454 C 0.00989 0.6699 0.14507 0.0
C1455 C 0.99863 0.61308 0.13362 0.0
C1456 C 0.00341 0.61749 0.10023 0.0
H1457 H 0.99903 0.63385 0.18108 0.0
H1458 H 0.99303 0.58949 0.14308 0.0
S1459 S 0.02217 0.69547 0.06025 0.0
N1460 N 0.02019 0.70429 0.09899 0.0
N1461 N 0.01494 0.6566 0.05785 0.0
C1462 C 0.01034 0.64899 0.08941 0.0
C1463 C 0.01345 0.67497 0.11176 0.0
C1464 C 0.37621 0.00418 0.84683 0.0
C1465 C 0.34424 0.00816 0.85742 0.0
C1466 C 0.40227 0.00653 0.86843 0.0
C1467 C 0.39732 0.01307 0.90141 0.0
H1468 H 0.381 0.99783 0.82195 0.0
H1469 H 0.42631 1.00201 0.85937 0.0
S1470 S 0.31806 0.02997 0.93992 0.0
N1471 N 0.30913 0.02174 0.90202 0.0
N1472 N 0.3576 0.02701 0.94256 0.0
C1473 C 0.36537 0.01891 0.91175 0.0
C1474 C 0.33899 0.0162 0.8898 0.0
C1475 C 0.01256 0.33943 0.89795 0.0
C1476 C 0.0103 0.34298 0.8643 0.0
C1477 C 0.0098 0.36591 0.91874 0.0
C1478 C 0.00501 0.39738 0.90689 0.0
H1479 H 0.0168 0.31593 0.90835 0.0
H1480 H 0.0121 0.36155 0.9444 0.0
S1481 S 0.99764 0.41968 0.82036 0.0
N1482 N 1.00302 0.3804 0.8199 0.0
N1483 N 0.99784 0.43016 0.85876 0.0
C1484 C 1.00239 0.4012 0.87318 0.0
C1485 C 0.00497 0.37408 0.852 0.0
C1486 C 0.66643 0.00496 0.88486 0.0
C1487 C 0.66128 0.01167 0.85205 0.0
C1488 C 0.64066 1.00252 0.90657 0.0
C1489 C 0.60842 0.00687 0.8966 0.0
H1490 H 0.6907 1.00205 0.89397 0.0
H1491 H 0.64634 0.99772 0.9316 0.0
S1492 S 0.58195 0.02491 0.81289 0.0
N1493 N 0.62155 0.02243 0.81035 0.0
N1494 N 0.57303 0.0178 0.85105 0.0
C1495 C 0.60286 0.01284 0.86358 0.0
C1496 C 0.62925 0.01525 0.84139 0.0
C1497 C 0.99496 0.62844 0.84252 0.0
C1498 C 1.00162 0.66046 0.85142 0.0
C1499 C 0.99723 0.60308 0.86502 0.0
C1500 C 0.00639 0.60873 0.89727 0.0
H1501 H 0.98673 0.62314 0.81831 0.0
H1502 H 0.99073 0.57909 0.8573 0.0
S1503 S 0.03087 0.68799 0.93119 0.0
N1504 N 0.02058 0.69599 0.89359 0.0
N1505 N 0.02555 0.64899 0.93562 0.0
C1506 C 0.01478 0.64061 0.9058 0.0
C1507 C 0.01219 0.66624 0.883 0.0
C1508 C 0.15921 0.38029 0.00555 0.0
C1509 C 0.14897 0.34833 1.00107 0.0
C1510 C 0.1369 0.40573 0.00831 0.0
C1511 C 0.10339 0.40024 0.00696 0.0
H1512 H 0.18469 0.38583 0.00575 0.0
H1513 H 0.14608 0.42993 0.01092 0.0
S1514 S 0.06447 0.31995 0.99785 0.0
N1515 N 0.10341 0.31225 0.99722 0.0
N1516 N 0.06151 0.35919 1.00232 0.0
C1517 C 0.09303 0.36795 0.00358 0.0
C1518 C 0.11575 0.3423 1.00065 0.0
C1519 C 0.11552 0.66996 0.99376 0.0
C1520 C 0.14895 0.66537 0.99606 0.0
C1521 C 0.094 0.64408 0.99591 0.0
C1522 C 0.10481 0.61213 1.00007 0.0
H1523 H 0.10584 0.69385 0.99006 0.0
H1524 H 0.06857 0.64939 0.9938 0.0
S1525 S 0.19037 0.58716 0.00772 0.0
N1526 N 0.19208 0.62649 1.00296 0.0
N1527 N 0.15175 0.57781 0.0071 0.0
C1528 C 0.13829 0.60725 1.00286 0.0
C1529 C 0.16026 0.6338 1.00087 0.0
C1530 C 0.37921 0.16381 0.99615 0.0
C1531 C 0.34699 0.1544 1.00105 0.0
C1532 C 0.40464 0.14141 0.99756 0.0
C1533 C 0.39893 0.10866 0.00408 0.0
H1534 H 0.38472 0.18851 0.99009 0.0
H1535 H 0.42884 0.1498 0.99274 0.0
S1536 S 0.31881 0.07279 0.02272 0.0
N1537 N 0.31094 0.1109 0.01519 0.0
N1538 N 0.35811 0.06889 0.01843 0.0
C1539 C 0.36673 0.09937 0.01043 0.0
C1540 C 0.34098 0.12215 0.00873 0.0
C1541 C 0.8546 0.37651 0.98204 0.0
C1542 C 0.85922 0.34819 1.00012 0.0
C1543 C 0.87465 0.40342 0.98614 0.0
C1544 C 0.90052 0.40276 0.00802 0.0
H1545 H 0.83568 0.37761 0.96407 0.0
H1546 H 0.87083 0.42424 0.97094 0.0
S1547 S 0.9216 0.33533 0.06275 0.0
N1548 N 0.89027 0.32195 0.04215 0.0
N1549 N 0.92846 0.37208 0.0494 0.0
C1550 C 0.90472 0.37498 0.02701 0.0
C1551 C 0.88393 0.34783 0.02322 0.0
C1552 C 0.63127 0.85114 0.00401 0.0
C1553 C 0.66337 0.8607 0.99853 0.0
C1554 C 0.6056 0.87324 1.00213 0.0
C1555 C 0.61098 0.90582 0.99459 0.0
H1556 H 0.62606 0.82663 0.01101 0.0
H1557 H 0.58154 0.86487 0.00767 0.0
S1558 S 0.69041 0.9419 0.97391 0.0
N1559 N 0.69879 0.90411 0.98248 0.0
N1560 N 0.65112 0.94552 0.97853 0.0
C1561 C 0.64296 0.9152 0.98754 0.0
C1562 C 0.66896 0.89274 0.98964 0.0
C1563 C 0.85356 0.63769 0.02029 0.0
C1564 C 0.85992 0.66704 0.00459 0.0
C1565 C 0.87383 0.61092 0.01634 0.0
C1566 C 0.90162 0.61269 0.99704 0.0
H1567 H 0.83308 0.63565 0.03633 0.0
H1568 H 0.86853 0.58921 0.02974 0.0
S1569 S 0.92787 0.6834 0.94911 0.0
N1570 N 0.89481 0.69569 0.96754 0.0
N1571 N 0.93333 0.64577 0.96052 0.0
C1572 C 0.90762 0.64162 0.98036 0.0
C1573 C 0.88667 0.66867 0.984 0.0
C1574 C 0.37969 0.85279 0.98363 0.0
C1575 C 0.34768 0.86076 0.99168 0.0
C1576 C 0.40518 0.87445 0.98869 0.0
C1577 C 0.39967 0.90532 1.00137 0.0
H1578 H 0.38501 0.82973 0.97278 0.0
H1579 H 0.42917 0.86727 0.98148 0.0
S1580 S 0.32053 0.93693 0.02903 0.0
N1581 N 0.31221 0.90073 0.01507 0.0
N1582 N 0.35972 0.94163 0.02431 0.0
C1583 C 0.36787 0.91304 0.01078 0.0
C1584 C 0.34202 0.89076 0.00602 0.0
C1585 C 0.66855 0.12028 0.00574 0.0
C1586 C 0.66364 0.15333 1.00095 0.0
C1587 C 0.64258 0.09874 0.00722 0.0
C1588 C 0.61037 0.10915 0.00372 0.0
H1589 H 0.69277 0.11089 0.00801 0.0
H1590 H 0.64804 0.07355 0.01074 0.0
S1591 S 0.58458 0.19356 0.99014 0.0
N1592 N 0.62421 0.19561 0.9925 0.0
N1593 N 0.57538 0.15534 0.99539 0.0
C1594 C 0.60512 0.14235 0.99947 0.0
C1595 C 0.63168 0.16432 0.99805 0.0
C1596 C 0.50406 0.66087 0.88032 0.0
C1597 C 0.49888 0.65048 0.84838 0.0
C1598 C 0.50772 0.63872 0.90583 0.0
C1599 C 0.50661 0.6053 0.90034 0.0
H1600 H 0.50416 0.6863 0.88579 0.0
H1601 H 0.51095 0.64794 0.93005 0.0
S1602 S 0.49584 0.5662 0.82001 0.0
N1603 N 0.4946 0.60501 0.81226 0.0
N1604 N 0.50128 0.56337 0.85931 0.0
C1605 C 0.50246 0.59483 0.86804 0.0
C1606 C 0.49865 0.61738 0.84235 0.0
C1607 C 0.35374 0.50149 0.87809 0.0
C1608 C 0.36407 0.495 0.84636 0.0
C1609 C 0.37591 0.50443 0.90373 0.0
C1610 C 0.40935 0.50127 0.89865 0.0
H1611 H 0.32826 0.50325 0.88333 0.0
H1612 H 0.36665 0.50883 0.92775 0.0
S1613 S 0.44858 0.48606 0.81914 0.0
N1614 N 0.40975 0.48703 0.81092 0.0
N1615 N 0.45137 0.49234 0.85831 0.0
C1616 C 0.41986 0.49566 0.8666 0.0
C1617 C 0.39728 0.49258 0.84074 0.0
C1618 C 0.50537 0.3881 0.84513 0.0
C1619 C 0.52729 0.36244 0.84695 0.0
C1620 C 0.50008 0.40838 0.87176 0.0
C1621 C 0.51593 0.40335 0.90145 0.0
H1622 H 0.49301 0.39315 0.82268 0.0
H1623 H 0.48366 0.42841 0.86896 0.0
S1624 S 0.57481 0.3387 0.91904 0.0
N1625 N 0.56429 0.33253 0.88112 0.0
N1626 N 0.55405 0.37034 0.93106 0.0
C1627 C 0.53712 0.37715 0.90385 0.0
C1628 C 0.54288 0.35682 0.87664 0.0
C1629 C 0.65434 0.52247 0.86912 0.0
C1630 C 0.65489 0.49458 0.84969 0.0
C1631 C 0.63339 0.52523 0.89571 0.0
C1632 C 0.61193 0.50038 0.90356 0.0
H1633 H 0.66988 0.54258 0.86349 0.0
H1634 H 0.63334 0.54724 0.90963 0.0
S1635 S 0.60563 0.42118 0.86342 0.0
N1636 N 0.63379 0.44033 0.84293 0.0
N1637 N 0.59337 0.44657 0.8914 0.0
C1638 C 0.61241 0.47233 0.88486 0.0
C1639 C 0.63413 0.46914 0.85835 0.0
C1640 C 0.48814 0.34972 0.13342 0.0
C1641 C 0.49317 0.35886 0.16577 0.0
C1642 C 0.49378 0.3712 0.10778 0.0
C1643 C 0.50412 0.40292 0.1135 0.0
H1644 H 0.47925 0.32589 0.12794 0.0
H1645 H 0.48889 0.36318 0.08341 0.0
S1646 S 0.52075 0.43834 0.19443 0.0
N1647 N 0.50945 0.40117 0.20226 0.0
N1648 N 0.51971 0.44185 0.15478 0.0
C1649 C 0.50974 0.41202 0.14599 0.0
C1650 C 0.50437 0.38995 0.1719 0.0
C1651 C 0.64832 0.53954 0.14213 0.0
C1652 C 0.64973 0.51745 0.16789 0.0
C1653 C 0.62852 0.53415 0.11521 0.0
C1654 C 0.60907 0.50667 0.11315 0.0
H1655 H 0.66253 0.56133 0.14287 0.0
H1656 H 0.62752 0.55222 0.09646 0.0
S1657 S 0.6051 0.44052 0.1728 0.0
N1658 N 0.63094 0.46622 0.18867 0.0
N1659 N 0.59328 0.45644 0.13825 0.0
C1660 C 0.61061 0.48409 0.1383 0.0
C1661 C 0.63115 0.48932 0.16555 0.0
C1662 C 0.5069 0.6559 0.13971 0.0
C1663 C 0.52628 0.64747 0.16637 0.0
C1664 C 0.50244 0.63464 0.11353 0.0
C1665 C 0.51674 0.60396 0.11337 0.0
H1666 H 0.49583 0.67943 0.1387 0.0
H1667 H 0.48751 0.64216 0.09348 0.0
S1668 S 0.56984 0.57048 0.17741 0.0
N1669 N 0.55982 0.60643 0.19084 0.0
N1670 N 0.55156 0.56665 0.14227 0.0
C1671 C 0.53597 0.5953 0.14009 0.0
C1672 C 0.54069 0.61695 0.16639 0.0
C1673 C 0.35015 0.51131 0.12986 0.0
C1674 C 0.35899 0.50574 0.1622 0.0
C1675 C 0.37287 0.50932 0.10471 0.0
C1676 C 0.40534 0.50158 0.11089 0.0
H1677 H 0.32574 0.51844 0.12409 0.0
H1678 H 0.36507 0.51487 0.0804 0.0
S1679 S 0.43943 0.48047 0.19129 0.0
N1680 N 0.40146 0.48942 0.19878 0.0
N1681 N 0.44406 0.48504 0.15202 0.0
C1682 C 0.41397 0.49438 0.14313 0.0
C1683 C 0.39087 0.49666 0.16861 0.0
C1684 C 0.84221 0.49228 0.61568 0.0
C1685 C 0.84578 0.49718 0.64903 0.0
C1686 C 0.86838 0.49517 0.59455 0.0
C1687 C 0.89956 0.50288 0.60573 0.0
H1688 H 0.81899 0.48566 0.60583 0.0
H1689 H 0.86407 0.49053 0.5692 0.0
S1690 S 0.92164 0.51915 0.69101 0.0
N1691 N 0.88279 0.5108 0.69239 0.0
N1692 N 0.93202 0.51657 0.65265 0.0
C1693 C 0.90337 0.50855 0.63904 0.0
C1694 C 0.87652 0.50572 0.66062 0.0
C1695 C 0.50946 0.84361 0.62502 0.0
C1696 C 0.50342 0.84867 0.65795 0.0
C1697 C 0.51193 0.86939 0.6034 0.0
C1698 C 0.50818 0.90155 0.6136 0.0
H1699 H 0.51183 0.8194 0.61574 0.0
H1700 H 0.51627 0.86379 0.57825 0.0
S1701 S 0.49235 0.92774 0.69781 0.0
N1702 N 0.49415 0.88819 0.70008 0.0
N1703 N 0.49885 0.93675 0.65957 0.0
C1704 C 0.50298 0.90699 0.64677 0.0
C1705 C 0.50057 0.88059 0.66885 0.0
C1706 C 0.16862 0.50349 0.62267 0.0
C1707 C 0.16292 0.4997 0.65586 0.0
C1708 C 0.14317 0.50626 0.60056 0.0
C1709 C 0.11063 0.50511 0.61048 0.0
H1710 H 0.19308 0.50392 0.6136 0.0
H1711 H 0.1493 0.5088 0.5753 0.0
S1712 S 0.08268 0.49561 0.69514 0.0
N1713 N 0.12234 0.49518 0.69784 0.0
N1714 N 0.07444 0.50042 0.65647 0.0
C1715 C 0.10458 0.50201 0.64384 0.0
C1716 C 0.13066 0.49932 0.66641 0.0
C1717 C 0.50621 0.16949 0.62234 0.0
C1718 C 0.51355 0.16458 0.65507 0.0
C1719 C 0.50267 0.14355 0.60094 0.0
C1720 C 0.50661 0.11141 0.61116 0.0
H1721 H 0.50349 0.19366 0.61309 0.0
H1722 H 0.49722 0.14895 0.57596 0.0
S1723 S 0.52714 0.0857 0.69457 0.0
N1724 N 0.52511 0.12524 0.69679 0.0
N1725 N 0.51871 0.07652 0.65675 0.0
C1726 C 0.51362 0.10618 0.64406 0.0
C1727 C 0.51703 0.13269 0.6659 0.0
C1728 C 0.84661 0.50494 0.3875 0.0
C1729 C 0.85105 0.52182 0.35852 0.0
C1730 C 0.87245 0.49965 0.40879 0.0
C1731 C 0.90387 0.51067 0.40178 0.0
H1732 H 0.82279 0.49688 0.39436 0.0
H1733 H 0.86756 0.48729 0.43127 0.0
S1734 S 0.92846 0.55366 0.32728 0.0
N1735 N 0.88943 0.54763 0.32271 0.0
N1736 N 0.93792 0.53766 0.36247 0.0
C1737 C 0.9088 0.52625 0.37205 0.0
C1738 C 0.88243 0.53187 0.35056 0.0
C1739 C 0.51246 0.87723 0.35431 0.0
C1740 C 0.52099 0.84602 0.36448 0.0
C1741 C 0.50903 0.90273 0.37647 0.0
C1742 C 0.51372 0.8981 0.40984 0.0
H1743 H 0.50922 0.88222 0.32887 0.0
H1744 H 0.50273 0.92626 0.36729 0.0
S1745 S 0.53536 0.82039 0.449 0.0
N1746 N 0.53287 0.81171 0.41027 0.0
N1747 N 0.52722 0.85905 0.45171 0.0
C1748 C 0.52186 0.86672 0.42027 0.0
C1749 C 0.52528 0.84092 0.39772 0.0
C1750 C 0.17136 0.51361 0.394 0.0
C1751 C 0.16701 0.5087 0.36074 0.0
C1752 C 0.14568 0.51073 0.41579 0.0
C1753 C 0.11424 0.50301 0.40539 0.0
H1754 H 0.19482 0.52025 0.40328 0.0
H1755 H 0.15061 0.51544 0.44101 0.0
S1756 S 0.09012 0.4871 0.32053 0.0
N1757 N 0.12894 0.49531 0.31829 0.0
N1758 N 0.08071 0.48945 0.35916 0.0
C1759 C 0.1097 0.49725 0.37216 0.0
C1760 C 0.13602 0.50014 0.34993 0.0
C1761 C 0.49714 0.12988 0.35177 0.0
C1762 C 0.50229 0.16206 0.36101 0.0
C1763 C 0.49974 0.10449 0.37416 0.0
C1764 C 0.50777 0.11023 0.4067 0.0
H1765 H 0.49 0.12437 0.32726 0.0
H1766 H 0.49455 0.08032 0.36601 0.0
S1767 S 0.52759 0.19019 0.44192 0.0
N1768 N 0.51822 0.19806 0.40405 0.0
N1769 N 0.52375 0.15097 0.44597 0.0
C1770 C 0.51435 0.14238 0.41576 0.0
C1771 C 0.51142 0.16808 0.39302 0.0
C1772 C 0.6193 0.84175 0.50707 0.0
C1773 C 0.65219 0.84708 0.5018 0.0
C1774 C 0.59801 0.86754 0.51188 0.0
C1775 C 0.60869 0.89983 0.51159 0.0
H1776 H 0.60975 0.81757 0.50616 0.0
H1777 H 0.57273 0.86193 0.51492 0.0
S1778 S 0.69365 0.92587 0.50112 0.0
N1779 N 0.69512 0.88635 0.49819 0.0
N1780 N 0.65548 0.93492 0.50762 0.0
C1781 C 0.64201 0.90519 0.50782 0.0
C1782 C 0.66361 0.87883 0.50272 0.0
C1783 C 0.61961 0.1681 0.49923 0.0
C1784 C 0.6531 0.16325 0.5002 0.0
C1785 C 0.59797 0.14239 0.5021 0.0
C1786 C 0.60869 0.11039 0.50584 0.0
H1787 H 0.60996 0.19205 0.49594 0.0
H1788 H 0.57252 0.14786 0.50081 0.0
S1789 S 0.69428 0.08471 0.51035 0.0
N1790 N 0.69614 0.12402 0.50548 0.0
N1791 N 0.65559 0.0757 0.51116 0.0
C1792 C 0.64222 0.10525 0.50742 0.0
C1793 C 0.66433 0.1316 0.5046 0.0
C1794 C 0.84384 0.61729 0.49301 0.0
C1795 C 0.84809 0.65058 0.49646 0.0
C1796 C 0.86987 0.59596 0.49525 0.0
C1797 C 0.90165 0.6068 0.50082 0.0
H1798 H 0.82009 0.60759 0.48835 0.0
H1799 H 0.86485 0.57063 0.4921 0.0
S1800 S 0.92585 0.69201 0.51152 0.0
N1801 N 0.88654 0.69363 0.50569 0.0
N1802 N 0.93553 0.65357 0.51001 0.0
C1803 C 0.90624 0.64013 0.50456 0.0
C1804 C 0.87952 0.66193 0.50245 0.0
C1805 C 0.39304 0.84238 0.50511 0.0
C1806 C 0.35967 0.84771 0.50344 0.0
C1807 C 0.41487 0.86798 0.50764 0.0
C1808 C 0.40446 0.9003 0.50833 0.0
H1809 H 0.40243 0.81812 0.50417 0.0
H1810 H 0.44026 0.86216 0.50854 0.0
S1811 S 0.31916 0.9272 0.50446 0.0
N1812 N 0.31702 0.88766 0.5026 0.0
N1813 N 0.35784 0.93582 0.50748 0.0
C1814 C 0.37096 0.90592 0.50713 0.0
C1815 C 0.34869 0.8797 0.50469 0.0
C1816 C 0.1689 0.38894 0.50659 0.0
C1817 C 0.16313 0.35607 0.51157 0.0
C1818 C 0.14347 0.41101 0.50405 0.0
C1819 C 0.11096 0.40134 0.50667 0.0
H1820 H 0.19338 0.39776 0.50497 0.0
H1821 H 0.14957 0.43604 0.50041 0.0
S1822 S 0.08299 0.31764 0.52042 0.0
N1823 N 0.12261 0.31471 0.51923 0.0
N1824 N 0.07476 0.356 0.51458 0.0
C1825 C 0.10486 0.36831 0.51121 0.0
C1826 C 0.1309 0.34578 0.51362 0.0
C1827 C 0.34991 0.1309 0.515 0.0
C1828 C 0.35947 0.1629 0.50959 0.0
C1829 C 0.37213 0.10539 0.51305 0.0
C1830 C 0.40477 0.11088 0.50547 0.0
H1831 H 0.32534 0.1257 0.52202 0.0
H1832 H 0.36381 0.08134 0.51855 0.0
S1833 S 0.44062 0.19037 0.48503 0.0
N1834 N 0.40275 0.19854 0.49386 0.0
N1835 N 0.4444 0.15114 0.48928 0.0
C1836 C 0.41407 0.14284 0.49839 0.0
C1837 C 0.39149 0.16866 0.50072 0.0
C1838 C 0.84277 0.39347 0.49946 0.0
C1839 C 0.84711 0.36015 0.50259 0.0
C1840 C 0.86871 0.41485 0.50176 0.0
C1841 C 0.90048 0.40404 0.5073 0.0
H1842 H 0.81904 0.40319 0.4946 0.0
H1843 H 0.86363 0.44012 0.49844 0.0
S1844 S 0.92472 0.31895 0.51928 0.0
N1845 N 0.88555 0.31721 0.51265 0.0
N1846 N 0.93429 0.35741 0.51781 0.0
C1847 C 0.90505 0.37076 0.51172 0.0
C1848 C 0.87845 0.34888 0.50923 0.0
C1849 C 0.17091 0.61681 0.4994 0.0
C1850 C 0.16628 0.65009 0.50241 0.0
C1851 C 0.14512 0.59522 0.50202 0.0
C1852 C 0.11324 0.60584 0.50746 0.0
H1853 H 0.19472 0.60735 0.49452 0.0
H1854 H 0.15036 0.56993 0.499 0.0
S1855 S 0.0883 0.69101 0.51738 0.0
N1856 N 0.12756 0.69289 0.51141 0.0
N1857 N 0.07898 0.65247 0.51643 0.0
C1858 C 0.10838 0.63919 0.51108 0.0
C1859 C 0.13485 0.6612 0.50859 0.0
loop_
_geom_bond_atom_site_label_1
_geom_bond_atom_site_label_2
_geom_bond_distance
_geom_bond_site_symmetry_2
_ccdc_geom_bond_type
P0 O11 1.490 . S
P0 C14 1.812 . S
P0 C20 1.803 . S
P0 C26 1.819 . S
H1 C15 0.941 . S
H2 C16 0.939 . S
H3 C18 0.940 . S
H4 C19 0.940 . S
H5 C21 0.939 . S
H6 C22 0.942 . S
H7 C24 0.940 . S
H8 C25 0.939 . S
H9 C27 0.941 . S
H10 C31 0.939 1_455 S
O11 P0 1.490 . S
H12 C28 0.939 . S
H13 C30 0.940 . S
C14 P0 1.812 . S
C14 C15 1.389 . S
C14 C19 1.391 1_655 S
C15 H1 0.941 . S
C15 C14 1.389 . S
C15 C16 1.397 . S
C16 H2 0.939 . S
C16 C15 1.397 . S
C16 C17 1.378 . S
C17 C16 1.378 . S
C17 C18 1.378 1_655 S
C18 H3 0.940 . S
C18 C17 1.378 1_455 S
C18 C19 1.396 . S
C19 H4 0.940 . S
C19 C14 1.391 1_455 S
C19 C18 1.396 . S
C20 P0 1.803 . S
C20 C21 1.378 . S
C20 C25 1.400 1_655 S
C21 H5 0.939 . S
C21 C20 1.378 . S
C21 C22 1.361 . S
C22 H6 0.942 . S
C22 C21 1.361 . S
C22 C23 1.369 . S
C23 C22 1.369 . S
C23 C24 1.404 1_655 S
C24 H7 0.940 . S
C24 C23 1.404 1_455 S
C24 C25 1.389 . S
C25 H8 0.939 . S
C25 C20 1.400 1_455 S
C25 C24 1.389 . S
C26 P0 1.819 . S
C26 C27 1.391 . S
C26 C31 1.391 . S
C27 H9 0.941 . S
C27 C26 1.391 . S
C27 C28 1.396 . S
C28 H12 0.939 . S
C28 C27 1.396 . S
C28 C29 1.397 . S
C29 C28 1.397 . S
C29 C30 1.385 1_655 S
C30 H13 0.940 . S
C30 C29 1.385 1_455 S
C30 C31 1.388 1_455 S
C31 H10 0.939 1_655 S
C31 C26 1.391 . S
C31 C30 1.388 1_655 S
P32 O43 1.490 . S
P32 C46 1.812 . S
P32 C52 1.803 . S
P32 C58 1.819 . S
H33 C47 0.941 . S
H34 C48 0.939 . S
H35 C50 0.940 . S
H36 C51 0.940 . S
H37 C53 0.939 . S
H38 C54 0.942 . S
H39 C56 0.940 . S
H40 C57 0.939 . S
H41 C59 0.941 . S
H42 C63 0.939 1_545 S
O43 P32 1.490 . S
H44 C60 0.939 . S
H45 C62 0.940 . S
C46 P32 1.812 . S
C46 C47 1.389 . S
C46 C51 1.391 1_565 S
C47 H33 0.941 . S
C47 C46 1.389 . S
C47 C48 1.397 . S
C48 H34 0.939 . S
C48 C47 1.397 . S
C48 C49 1.378 . S
C49 C48 1.378 . S
C49 C50 1.378 1_565 S
C50 H35 0.940 . S
C50 C49 1.378 1_545 S
C50 C51 1.396 . S
C51 H36 0.940 . S
C51 C46 1.391 1_545 S
C51 C50 1.396 . S
C52 P32 1.803 . S
C52 C53 1.378 . S
C52 C57 1.400 1_565 S
C53 H37 0.939 . S
C53 C52 1.378 . S
C53 C54 1.361 . S
C54 H38 0.942 . S
C54 C53 1.361 . S
C54 C55 1.369 . S
C55 C54 1.369 . S
C55 C56 1.404 1_565 S
C56 H39 0.940 . S
C56 C55 1.404 1_545 S
C56 C57 1.389 . S
C57 H40 0.939 . S
C57 C52 1.400 1_545 S
C57 C56 1.389 . S
C58 P32 1.819 . S
C58 C59 1.391 . S
C58 C63 1.391 . S
C59 H41 0.941 . S
C59 C58 1.391 . S
C59 C60 1.396 . S
C60 H44 0.939 . S
C60 C59 1.396 . S
C60 C61 1.397 . S
C61 C60 1.397 . S
C61 C62 1.385 1_565 S
C62 H45 0.940 . S
C62 C61 1.385 1_545 S
C62 C63 1.388 1_545 S
C63 H42 0.939 1_565 S
C63 C58 1.391 . S
C63 C62 1.388 1_565 S
P64 O75 1.490 . S
P64 C78 1.812 . S
P64 C84 1.803 . S
P64 C90 1.819 . S
H65 C79 0.941 . S
H66 C80 0.939 . S
H67 C82 0.940 . S
H68 C83 0.940 1_655 S
H69 C85 0.939 . S
H70 C86 0.942 . S
H71 C88 0.940 . S
H72 C89 0.939 1_655 S
H73 C91 0.941 . S
H74 C95 0.939 . S
O75 P64 1.490 . S
H76 C92 0.939 . S
H77 C94 0.940 . S
C78 P64 1.812 . S
C78 C79 1.389 . S
C78 C83 1.391 . S
C79 H65 0.941 . S
C79 C78 1.389 . S
C79 C80 1.397 . S
C80 H66 0.939 . S
C80 C79 1.397 . S
C80 C81 1.378 . S
C81 C80 1.378 . S
C81 C82 1.378 1_455 S
C82 H67 0.940 . S
C82 C81 1.378 1_655 S
C82 C83 1.396 1_655 S
C83 H68 0.940 1_455 S
C83 C78 1.391 . S
C83 C82 1.396 1_455 S
C84 P64 1.803 . S
C84 C85 1.378 . S
C84 C89 1.400 . S
C85 H69 0.939 . S
C85 C84 1.378 . S
C85 C86 1.361 . S
C86 H70 0.942 . S
C86 C85 1.361 . S
C86 C87 1.369 . S
C87 C86 1.369 . S
C87 C88 1.404 1_455 S
C88 H71 0.940 . S
C88 C87 1.404 1_655 S
C88 C89 1.389 1_655 S
C89 H72 0.939 1_455 S
C89 C84 1.400 . S
C89 C88 1.389 1_455 S
C90 P64 1.819 . S
C90 C91 1.391 . S
C90 C95 1.391 . S
C91 H73 0.941 . S
C91 C90 1.391 . S
C91 C92 1.396 . S
C92 H76 0.939 . S
C92 C91 1.396 . S
C92 C93 1.397 . S
C93 C92 1.397 . S
C93 C94 1.385 1_455 S
C94 H77 0.940 . S
C94 C93 1.385 1_655 S
C94 C95 1.388 1_655 S
C95 H74 0.939 . S
C95 C90 1.391 . S
C95 C94 1.388 1_455 S
P96 O107 1.490 . S
P96 C110 1.812 . S
P96 C116 1.803 . S
P96 C122 1.819 . S
H97 C111 0.941 . S
H98 C112 0.939 . S
H99 C114 0.940 . S
H100 C115 0.940 . S
H101 C117 0.939 . S
H102 C118 0.942 . S
H103 C120 0.940 . S
H104 C121 0.939 . S
H105 C123 0.941 . S
H106 C127 0.939 1_545 S
O107 P96 1.490 . S
H108 C124 0.939 . S
H109 C126 0.940 . S
C110 P96 1.812 . S
C110 C111 1.389 . S
C110 C115 1.391 1_565 S
C111 H97 0.941 . S
C111 C110 1.389 . S
C111 C112 1.397 . S
C112 H98 0.939 . S
C112 C111 1.397 . S
C112 C113 1.378 . S
C113 C112 1.378 . S
C113 C114 1.378 1_565 S
C114 H99 0.940 . S
C114 C113 1.378 1_545 S
C114 C115 1.396 . S
C115 H100 0.940 . S
C115 C110 1.391 1_545 S
C115 C114 1.396 . S
C116 P96 1.803 . S
C116 C117 1.378 . S
C116 C121 1.400 1_565 S
C117 H101 0.939 . S
C117 C116 1.378 . S
C117 C118 1.361 . S
C118 H102 0.942 . S
C118 C117 1.361 . S
C118 C119 1.369 . S
C119 C118 1.369 . S
C119 C120 1.404 1_565 S
C120 H103 0.940 . S
C120 C119 1.404 1_545 S
C120 C121 1.389 . S
C121 H104 0.939 . S
C121 C116 1.400 1_545 S
C121 C120 1.389 . S
C122 P96 1.819 . S
C122 C123 1.391 . S
C122 C127 1.391 . S
C123 H105 0.941 . S
C123 C122 1.391 . S
C123 C124 1.396 . S
C124 H108 0.939 . S
C124 C123 1.396 . S
C124 C125 1.397 . S
C125 C124 1.397 . S
C125 C126 1.385 1_565 S
C126 H109 0.940 . S
C126 C125 1.385 1_545 S
C126 C127 1.388 1_545 S
C127 H106 0.939 1_565 S
C127 C122 1.391 . S
C127 C126 1.388 1_565 S
P128 O139 1.490 . S
P128 C142 1.812 . S
P128 C148 1.803 . S
P128 C154 1.819 . S
H129 C143 0.941 . S
H130 C144 0.939 . S
H131 C146 0.940 . S
H132 C147 0.940 . S
H133 C149 0.939 . S
H134 C150 0.942 . S
H135 C152 0.940 . S
H136 C153 0.939 . S
H137 C155 0.941 . S
H138 C159 0.939 1_455 S
O139 P128 1.490 . S
H140 C156 0.939 . S
H141 C158 0.940 . S
C142 P128 1.812 . S
C142 C143 1.389 . S
C142 C147 1.391 1_655 S
C143 H129 0.941 . S
C143 C142 1.389 . S
C143 C144 1.397 . S
C144 H130 0.939 . S
C144 C143 1.397 . S
C144 C145 1.378 . S
C145 C144 1.378 . S
C145 C146 1.378 1_655 S
C146 H131 0.940 . S
C146 C145 1.378 1_455 S
C146 C147 1.396 . S
C147 H132 0.940 . S
C147 C142 1.391 1_455 S
C147 C146 1.396 . S
C148 P128 1.803 . S
C148 C149 1.378 . S
C148 C153 1.400 1_655 S
C149 H133 0.939 . S
C149 C148 1.378 . S
C149 C150 1.361 . S
C150 H134 0.942 . S
C150 C149 1.361 . S
C150 C151 1.369 . S
C151 C150 1.369 . S
C151 C152 1.404 1_655 S
C152 H135 0.940 . S
C152 C151 1.404 1_455 S
C152 C153 1.389 . S
C153 H136 0.939 . S
C153 C148 1.400 1_455 S
C153 C152 1.389 . S
C154 P128 1.819 . S
C154 C155 1.391 . S
C154 C159 1.391 . S
C155 H137 0.941 . S
C155 C154 1.391 . S
C155 C156 1.396 . S
C156 H140 0.939 . S
C156 C155 1.396 . S
C156 C157 1.397 . S
C157 C156 1.397 . S
C157 C158 1.385 1_655 S
C158 H141 0.940 . S
C158 C157 1.385 1_455 S
C158 C159 1.388 1_455 S
C159 H138 0.939 1_655 S
C159 C154 1.391 . S
C159 C158 1.388 1_655 S
P160 O171 1.490 . S
P160 C174 1.812 . S
P160 C180 1.803 . S
P160 C186 1.819 . S
H161 C175 0.941 . S
H162 C176 0.939 . S
H163 C178 0.940 . S
H164 C179 0.940 . S
H165 C181 0.939 . S
H166 C182 0.942 . S
H167 C184 0.940 . S
H168 C185 0.939 . S
H169 C187 0.941 . S
H170 C191 0.939 1_545 S
O171 P160 1.490 . S
H172 C188 0.939 . S
H173 C190 0.940 . S
C174 P160 1.812 . S
C174 C175 1.389 . S
C174 C179 1.391 1_565 S
C175 H161 0.941 . S
C175 C174 1.389 . S
C175 C176 1.397 . S
C176 H162 0.939 . S
C176 C175 1.397 . S
C176 C177 1.378 . S
C177 C176 1.378 . S
C177 C178 1.378 1_565 S
C178 H163 0.940 . S
C178 C177 1.378 1_545 S
C178 C179 1.396 . S
C179 H164 0.940 . S
C179 C174 1.391 1_545 S
C179 C178 1.396 . S
C180 P160 1.803 . S
C180 C181 1.378 . S
C180 C185 1.400 1_565 S
C181 H165 0.939 . S
C181 C180 1.378 . S
C181 C182 1.361 . S
C182 H166 0.942 . S
C182 C181 1.361 . S
C182 C183 1.369 . S
C183 C182 1.369 . S
C183 C184 1.404 1_565 S
C184 H167 0.940 . S
C184 C183 1.404 1_545 S
C184 C185 1.389 . S
C185 H168 0.939 . S
C185 C180 1.400 1_545 S
C185 C184 1.389 . S
C186 P160 1.819 . S
C186 C187 1.391 . S
C186 C191 1.391 . S
C187 H169 0.941 . S
C187 C186 1.391 . S
C187 C188 1.396 . S
C188 H172 0.939 . S
C188 C187 1.396 . S
C188 C189 1.397 . S
C189 C188 1.397 . S
C189 C190 1.385 1_565 S
C190 H173 0.940 . S
C190 C189 1.385 1_545 S
C190 C191 1.388 1_545 S
C191 H170 0.939 1_565 S
C191 C186 1.391 . S
C191 C190 1.388 1_565 S
P192 O203 1.490 . S
P192 C206 1.812 . S
P192 C212 1.803 . S
P192 C218 1.819 . S
H193 C207 0.941 . S
H194 C208 0.939 . S
H195 C210 0.940 . S
H196 C211 0.940 1_655 S
H197 C213 0.939 . S
H198 C214 0.942 . S
H199 C216 0.940 . S
H200 C217 0.939 1_655 S
H201 C219 0.941 . S
H202 C223 0.939 . S
O203 P192 1.490 . S
H204 C220 0.939 . S
H205 C222 0.940 . S
C206 P192 1.812 . S
C206 C207 1.389 . S
C206 C211 1.391 . S
C207 H193 0.941 . S
C207 C206 1.389 . S
C207 C208 1.397 . S
C208 H194 0.939 . S
C208 C207 1.397 . S
C208 C209 1.378 . S
C209 C208 1.378 . S
C209 C210 1.378 1_455 S
C210 H195 0.940 . S
C210 C209 1.378 1_655 S
C210 C211 1.396 1_655 S
C211 H196 0.940 1_455 S
C211 C206 1.391 . S
C211 C210 1.396 1_455 S
C212 P192 1.803 . S
C212 C213 1.378 . S
C212 C217 1.400 . S
C213 H197 0.939 . S
C213 C212 1.378 . S
C213 C214 1.361 . S
C214 H198 0.942 . S
C214 C213 1.361 . S
C214 C215 1.369 . S
C215 C214 1.369 . S
C215 C216 1.404 1_455 S
C216 H199 0.940 . S
C216 C215 1.404 1_655 S
C216 C217 1.389 1_655 S
C217 H200 0.939 1_455 S
C217 C212 1.400 . S
C217 C216 1.389 1_455 S
C218 P192 1.819 . S
C218 C219 1.391 . S
C218 C223 1.391 . S
C219 H201 0.941 . S
C219 C218 1.391 . S
C219 C220 1.396 . S
C220 H204 0.939 . S
C220 C219 1.396 . S
C220 C221 1.397 . S
C221 C220 1.397 . S
C221 C222 1.385 1_455 S
C222 H205 0.940 . S
C222 C221 1.385 1_655 S
C222 C223 1.388 1_655 S
C223 H202 0.939 . S
C223 C218 1.391 . S
C223 C222 1.388 1_455 S
P224 O235 1.490 . S
P224 C238 1.812 . S
P224 C244 1.803 . S
P224 C250 1.819 . S
H225 C239 0.941 . S
H226 C240 0.939 . S
H227 C242 0.940 . S
H228 C243 0.940 1_565 S
H229 C245 0.939 . S
H230 C246 0.942 . S
H231 C248 0.940 . S
H232 C249 0.929 1_565 S
H233 C251 0.941 . S
H234 C255 0.947 . S
O235 P224 1.490 . S
H236 C252 0.939 . S
H237 C254 0.940 . S
C238 P224 1.812 . S
C238 C239 1.389 . S
C238 C243 1.391 . S
C239 H225 0.941 . S
C239 C238 1.389 . S
C239 C240 1.397 . S
C240 H226 0.939 . S
C240 C239 1.397 . S
C240 C241 1.378 . S
C241 C240 1.378 . S
C241 C242 1.378 1_545 S
C242 H227 0.940 . S
C242 C241 1.378 1_565 S
C242 C243 1.396 1_565 S
C243 H228 0.940 1_545 S
C243 C238 1.391 . S
C243 C242 1.396 1_545 S
C244 P224 1.803 . S
C244 C245 1.378 . S
C244 C249 1.417 . S
C245 H229 0.939 . S
C245 C244 1.378 . S
C245 C246 1.361 . S
C246 H230 0.942 . S
C246 C245 1.361 . S
C246 C247 1.369 . S
C247 C246 1.369 . S
C247 C248 1.404 1_545 S
C248 H231 0.940 . S
C248 C247 1.404 1_565 S
C248 C249 1.382 1_565 S
C249 H232 0.929 1_545 S
C249 C244 1.417 . S
C249 C248 1.382 1_545 S
C250 P224 1.819 . S
C250 C251 1.391 . S
C250 C255 1.391 . S
C251 H233 0.941 . S
C251 C250 1.391 . S
C251 C252 1.396 . S
C252 H236 0.939 . S
C252 C251 1.396 . S
C252 C253 1.397 . S
C253 C252 1.397 . S
C253 C254 1.385 1_545 S
C254 H237 0.940 . S
C254 C253 1.385 1_565 S
C254 C255 1.388 1_565 S
C255 H234 0.947 . S
C255 C250 1.391 . S
C255 C254 1.388 1_545 S
P256 O267 1.490 . S
P256 C270 1.812 . S
P256 C276 1.803 . S
P256 C282 1.819 . S
H257 C271 0.941 . S
H258 C272 0.939 . S
H259 C274 0.940 . S
H260 C275 0.956 . S
H261 C277 0.939 . S
H262 C278 0.942 . S
H263 C280 0.940 . S
H264 C281 0.939 . S
H265 C283 0.941 . S
H266 C287 0.939 1_554 S
O267 P256 1.490 . S
H268 C284 0.939 . S
H269 C286 0.940 . S
C270 P256 1.812 . S
C270 C271 1.389 . S
C270 C275 1.366 1_556 S
C271 H257 0.941 . S
C271 C270 1.389 . S
C271 C272 1.397 . S
C272 H258 0.939 . S
C272 C271 1.397 . S
C272 C273 1.378 . S
C273 C272 1.378 . S
C273 C274 1.378 1_556 S
C274 H259 0.940 . S
C274 C273 1.378 1_554 S
C274 C275 1.406 . S
C275 H260 0.956 . S
C275 C270 1.366 1_554 S
C275 C274 1.406 . S
C276 P256 1.803 . S
C276 C277 1.378 . S
C276 C281 1.400 1_556 S
C277 H261 0.939 . S
C277 C276 1.378 . S
C277 C278 1.361 . S
C278 H262 0.942 . S
C278 C277 1.361 . S
C278 C279 1.369 . S
C279 C278 1.369 . S
C279 C280 1.404 1_556 S
C280 H263 0.940 . S
C280 C279 1.404 1_554 S
C280 C281 1.389 . S
C281 H264 0.939 . S
C281 C276 1.400 1_554 S
C281 C280 1.389 . S
C282 P256 1.819 . S
C282 C283 1.391 . S
C282 C287 1.391 . S
C283 H265 0.941 . S
C283 C282 1.391 . S
C283 C284 1.396 . S
C284 H268 0.939 . S
C284 C283 1.396 . S
C284 C285 1.397 . S
C285 C284 1.397 . S
C285 C286 1.385 1_556 S
C286 H269 0.940 . S
C286 C285 1.385 1_554 S
C286 C287 1.388 1_554 S
C287 H266 0.939 1_556 S
C287 C282 1.391 . S
C287 C286 1.388 1_556 S
P288 O299 1.490 . S
P288 C302 1.812 . S
P288 C308 1.803 . S
P288 C314 1.819 . S
H289 C303 0.941 . S
H290 C304 0.939 . S
H291 C306 0.940 . S
H292 C307 0.957 . S
H293 C309 0.939 . S
H294 C310 0.942 . S
H295 C312 0.940 . S
H296 C313 0.939 . S
H297 C315 0.941 . S
H298 C319 0.939 1_554 S
O299 P288 1.490 . S
H300 C316 0.939 . S
H301 C318 0.940 . S
C302 P288 1.812 . S
C302 C303 1.389 . S
C302 C307 1.365 1_556 S
C303 H289 0.941 . S
C303 C302 1.389 . S
C303 C304 1.397 . S
C304 H290 0.939 . S
C304 C303 1.397 . S
C304 C305 1.378 . S
C305 C304 1.378 . S
C305 C306 1.378 1_556 S
C306 H291 0.940 . S
C306 C305 1.378 1_554 S
C306 C307 1.407 . S
C307 H292 0.957 . S
C307 C302 1.365 1_554 S
C307 C306 1.407 . S
C308 P288 1.803 . S
C308 C309 1.378 . S
C308 C313 1.400 1_556 S
C309 H293 0.939 . S
C309 C308 1.378 . S
C309 C310 1.361 . S
C310 H294 0.942 . S
C310 C309 1.361 . S
C310 C311 1.369 . S
C311 C310 1.369 . S
C311 C312 1.404 1_556 S
C312 H295 0.940 . S
C312 C311 1.404 1_554 S
C312 C313 1.389 . S
C313 H296 0.939 . S
C313 C308 1.400 1_554 S
C313 C312 1.389 . S
C314 P288 1.819 . S
C314 C315 1.391 . S
C314 C319 1.391 . S
C315 H297 0.941 . S
C315 C314 1.391 . S
C315 C316 1.396 . S
C316 H300 0.939 . S
C316 C315 1.396 . S
C316 C317 1.397 . S
C317 C316 1.397 . S
C317 C318 1.385 1_556 S
C318 H301 0.940 . S
C318 C317 1.385 1_554 S
C318 C319 1.388 1_554 S
C319 H298 0.939 1_556 S
C319 C314 1.391 . S
C319 C318 1.388 1_556 S
P320 O331 1.490 . S
P320 C334 1.812 . S
P320 C340 1.803 . S
P320 C346 1.819 . S
H321 C335 0.941 . S
H322 C336 0.939 . S
H323 C338 0.940 . S
H324 C339 0.955 . S
H325 C341 0.939 . S
H326 C342 0.942 . S
H327 C344 0.940 . S
H328 C345 0.939 . S
H329 C347 0.941 . S
H330 C351 0.939 1_554 S
O331 P320 1.490 . S
H332 C348 0.939 . S
H333 C350 0.940 . S
C334 P320 1.812 . S
C334 C335 1.389 . S
C334 C339 1.367 1_556 S
C335 H321 0.941 . S
C335 C334 1.389 . S
C335 C336 1.397 . S
C336 H322 0.939 . S
C336 C335 1.397 . S
C336 C337 1.378 . S
C337 C336 1.378 . S
C337 C338 1.378 1_556 S
C338 H323 0.940 . S
C338 C337 1.378 1_554 S
C338 C339 1.406 . S
C339 H324 0.955 . S
C339 C334 1.367 1_554 S
C339 C338 1.406 . S
C340 P320 1.803 . S
C340 C341 1.378 . S
C340 C345 1.400 1_556 S
C341 H325 0.939 . S
C341 C340 1.378 . S
C341 C342 1.361 . S
C342 H326 0.942 . S
C342 C341 1.361 . S
C342 C343 1.369 . S
C343 C342 1.369 . S
C343 C344 1.404 1_556 S
C344 H327 0.940 . S
C344 C343 1.404 1_554 S
C344 C345 1.389 . S
C345 H328 0.939 . S
C345 C340 1.400 1_554 S
C345 C344 1.389 . S
C346 P320 1.819 . S
C346 C347 1.391 . S
C346 C351 1.391 . S
C347 H329 0.941 . S
C347 C346 1.391 . S
C347 C348 1.396 . S
C348 H332 0.939 . S
C348 C347 1.396 . S
C348 C349 1.397 . S
C349 C348 1.397 . S
C349 C350 1.385 1_556 S
C350 H333 0.940 . S
C350 C349 1.385 1_554 S
C350 C351 1.388 1_554 S
C351 H330 0.939 1_556 S
C351 C346 1.391 . S
C351 C350 1.388 1_556 S
P352 O363 1.490 . S
P352 C366 1.812 . S
P352 C372 1.803 . S
P352 C378 1.819 . S
H353 C367 0.941 . S
H354 C368 0.939 . S
H355 C370 0.940 . S
H356 C371 0.940 . S
H357 C373 0.939 . S
H358 C374 0.942 . S
H359 C376 0.940 . S
H360 C377 0.950 . S
H361 C379 0.941 . S
H362 C383 0.935 1_556 S
O363 P352 1.490 . S
H364 C380 0.939 . S
H365 C382 0.940 . S
C366 P352 1.812 . S
C366 C367 1.389 . S
C366 C371 1.391 1_554 S
C367 H353 0.941 . S
C367 C366 1.389 . S
C367 C368 1.397 . S
C368 H354 0.939 . S
C368 C367 1.397 . S
C368 C369 1.378 . S
C369 C368 1.378 . S
C369 C370 1.378 1_554 S
C370 H355 0.940 . S
C370 C369 1.378 1_556 S
C370 C371 1.397 . S
C371 H356 0.940 . S
C371 C366 1.391 1_556 S
C371 C370 1.397 . S
C372 P352 1.803 . S
C372 C373 1.378 . S
C372 C377 1.382 1_554 S
C373 H357 0.939 . S
C373 C372 1.378 . S
C373 C374 1.361 . S
C374 H358 0.942 . S
C374 C373 1.361 . S
C374 C375 1.369 . S
C375 C374 1.369 . S
C375 C376 1.404 1_554 S
C376 H359 0.940 . S
C376 C375 1.404 1_556 S
C376 C377 1.396 . S
C377 H360 0.950 . S
C377 C372 1.382 1_556 S
C377 C376 1.396 . S
C378 P352 1.819 . S
C378 C379 1.391 . S
C378 C383 1.391 . S
C379 H361 0.941 . S
C379 C378 1.391 . S
C379 C380 1.396 . S
C380 H364 0.939 . S
C380 C379 1.396 . S
C380 C381 1.397 . S
C381 C380 1.397 . S
C381 C382 1.385 1_554 S
C382 H365 0.940 . S
C382 C381 1.385 1_556 S
C382 C383 1.388 1_556 S
C383 H362 0.935 1_554 S
C383 C378 1.391 . S
C383 C382 1.388 1_554 S
P384 O395 1.490 . S
P384 C398 1.812 . S
P384 C404 1.803 . S
P384 C410 1.819 . S
H385 C399 0.941 . S
H386 C400 0.939 . S
H387 C402 0.940 . S
H388 C403 0.940 . S
H389 C405 0.939 . S
H390 C406 0.942 . S
H391 C408 0.940 . S
H392 C409 0.939 . S
H393 C411 0.941 . S
H394 C415 0.939 . S
O395 P384 1.490 . S
H396 C412 0.939 . S
H397 C414 0.940 . S
C398 P384 1.812 . S
C398 C399 1.389 . S
C398 C403 1.391 . S
C399 H385 0.941 . S
C399 C398 1.389 . S
C399 C400 1.397 . S
C400 H386 0.939 . S
C400 C399 1.397 . S
C400 C401 1.378 . S
C401 C400 1.378 . S
C401 C402 1.378 . S
C402 H387 0.940 . S
C402 C401 1.378 . S
C402 C403 1.396 . S
C403 H388 0.940 . S
C403 C398 1.391 . S
C403 C402 1.396 . S
C404 P384 1.803 . S
C404 C405 1.378 . S
C404 C409 1.400 . S
C405 H389 0.939 . S
C405 C404 1.378 . S
C405 C406 1.361 . S
C406 H390 0.942 . S
C406 C405 1.361 . S
C406 C407 1.369 . S
C407 C406 1.369 . S
C407 C408 1.404 . S
C408 H391 0.940 . S
C408 C407 1.404 . S
C408 C409 1.389 . S
C409 H392 0.939 . S
C409 C404 1.400 . S
C409 C408 1.389 . S
C410 P384 1.819 . S
C410 C411 1.391 . S
C410 C415 1.391 . S
C411 H393 0.941 . S
C411 C410 1.391 . S
C411 C412 1.396 . S
C412 H396 0.939 . S
C412 C411 1.396 . S
C412 C413 1.397 . S
C413 C412 1.397 . S
C413 C414 1.385 . S
C414 H397 0.940 . S
C414 C413 1.385 . S
C414 C415 1.388 . S
C415 H394 0.939 . S
C415 C410 1.391 . S
C415 C414 1.388 . S
P416 O427 1.490 . S
P416 C430 1.812 . S
P416 C436 1.803 . S
P416 C442 1.819 . S
H417 C431 0.941 . S
H418 C432 0.939 . S
H419 C434 0.940 . S
H420 C435 0.940 . S
H421 C437 0.939 . S
H422 C438 0.942 . S
H423 C440 0.940 . S
H424 C441 0.939 . S
H425 C443 0.941 . S
H426 C447 0.939 . S
O427 P416 1.490 . S
H428 C444 0.939 . S
H429 C446 0.940 . S
C430 P416 1.812 . S
C430 C431 1.389 . S
C430 C435 1.391 . S
C431 H417 0.941 . S
C431 C430 1.389 . S
C431 C432 1.397 . S
C432 H418 0.939 . S
C432 C431 1.397 . S
C432 C433 1.378 . S
C433 C432 1.378 . S
C433 C434 1.378 . S
C434 H419 0.940 . S
C434 C433 1.378 . S
C434 C435 1.396 . S
C435 H420 0.940 . S
C435 C430 1.391 . S
C435 C434 1.396 . S
C436 P416 1.803 . S
C436 C437 1.378 . S
C436 C441 1.400 . S
C437 H421 0.939 . S
C437 C436 1.378 . S
C437 C438 1.361 . S
C438 H422 0.942 . S
C438 C437 1.361 . S
C438 C439 1.369 . S
C439 C438 1.369 . S
C439 C440 1.404 . S
C440 H423 0.940 . S
C440 C439 1.404 . S
C440 C441 1.389 . S
C441 H424 0.939 . S
C441 C436 1.400 . S
C441 C440 1.389 . S
C442 P416 1.819 . S
C442 C443 1.391 . S
C442 C447 1.391 . S
C443 H425 0.941 . S
C443 C442 1.391 . S
C443 C444 1.396 . S
C444 H428 0.939 . S
C444 C443 1.396 . S
C444 C445 1.397 . S
C445 C444 1.397 . S
C445 C446 1.385 . S
C446 H429 0.940 . S
C446 C445 1.385 . S
C446 C447 1.388 . S
C447 H426 0.939 . S
C447 C442 1.391 . S
C447 C446 1.388 . S
P448 O459 1.490 . S
P448 C462 1.812 . S
P448 C468 1.803 . S
P448 C474 1.819 . S
H449 C463 0.941 . S
H450 C464 0.939 . S
H451 C466 0.940 . S
H452 C467 0.940 . S
H453 C469 0.939 . S
H454 C470 0.942 . S
H455 C472 0.940 . S
H456 C473 0.939 . S
H457 C475 0.941 . S
H458 C479 0.939 . S
O459 P448 1.490 . S
H460 C476 0.939 . S
H461 C478 0.940 . S
C462 P448 1.812 . S
C462 C463 1.389 . S
C462 C467 1.391 . S
C463 H449 0.941 . S
C463 C462 1.389 . S
C463 C464 1.397 . S
C464 H450 0.939 . S
C464 C463 1.397 . S
C464 C465 1.378 . S
C465 C464 1.378 . S
C465 C466 1.378 . S
C466 H451 0.940 . S
C466 C465 1.378 . S
C466 C467 1.396 . S
C467 H452 0.940 . S
C467 C462 1.391 . S
C467 C466 1.396 . S
C468 P448 1.803 . S
C468 C469 1.378 . S
C468 C473 1.400 . S
C469 H453 0.939 . S
C469 C468 1.378 . S
C469 C470 1.361 . S
C470 H454 0.942 . S
C470 C469 1.361 . S
C470 C471 1.369 . S
C471 C470 1.369 . S
C471 C472 1.404 . S
C472 H455 0.940 . S
C472 C471 1.404 . S
C472 C473 1.389 . S
C473 H456 0.939 . S
C473 C468 1.400 . S
C473 C472 1.389 . S
C474 P448 1.819 . S
C474 C475 1.391 . S
C474 C479 1.391 . S
C475 H457 0.941 . S
C475 C474 1.391 . S
C475 C476 1.396 . S
C476 H460 0.939 . S
C476 C475 1.396 . S
C476 C477 1.397 . S
C477 C476 1.397 . S
C477 C478 1.385 . S
C478 H461 0.940 . S
C478 C477 1.385 . S
C478 C479 1.388 . S
C479 H458 0.939 . S
C479 C474 1.391 . S
C479 C478 1.388 . S
P480 O491 1.490 . S
P480 C494 1.812 . S
P480 C500 1.803 . S
P480 C506 1.819 . S
H481 C495 0.941 . S
H482 C496 0.939 . S
H483 C498 0.940 . S
H484 C499 0.940 . S
H485 C501 0.939 . S
H486 C502 0.942 . S
H487 C504 0.940 . S
H488 C505 0.939 . S
H489 C507 0.941 . S
H490 C511 0.939 . S
O491 P480 1.490 . S
H492 C508 0.939 . S
H493 C510 0.940 . S
C494 P480 1.812 . S
C494 C495 1.389 . S
C494 C499 1.391 . S
C495 H481 0.941 . S
C495 C494 1.389 . S
C495 C496 1.397 . S
C496 H482 0.939 . S
C496 C495 1.397 . S
C496 C497 1.378 . S
C497 C496 1.378 . S
C497 C498 1.378 . S
C498 H483 0.940 . S
C498 C497 1.378 . S
C498 C499 1.396 . S
C499 H484 0.940 . S
C499 C494 1.391 . S
C499 C498 1.396 . S
C500 P480 1.803 . S
C500 C501 1.378 . S
C500 C505 1.400 . S
C501 H485 0.939 . S
C501 C500 1.378 . S
C501 C502 1.361 . S
C502 H486 0.942 . S
C502 C501 1.361 . S
C502 C503 1.369 . S
C503 C502 1.369 . S
C503 C504 1.404 . S
C504 H487 0.940 . S
C504 C503 1.404 . S
C504 C505 1.389 . S
C505 H488 0.939 . S
C505 C500 1.400 . S
C505 C504 1.389 . S
C506 P480 1.819 . S
C506 C507 1.391 . S
C506 C511 1.391 . S
C507 H489 0.941 . S
C507 C506 1.391 . S
C507 C508 1.396 . S
C508 H492 0.939 . S
C508 C507 1.396 . S
C508 C509 1.397 . S
C509 C508 1.397 . S
C509 C510 1.385 . S
C510 H493 0.940 . S
C510 C509 1.385 . S
C510 C511 1.388 . S
C511 H490 0.939 . S
C511 C506 1.391 . S
C511 C510 1.388 . S
P512 O523 1.490 . S
P512 C526 1.812 . S
P512 C532 1.803 . S
P512 C538 1.819 . S
H513 C527 0.941 . S
H514 C528 0.939 . S
H515 C530 0.940 . S
H516 C531 0.940 . S
H517 C533 0.939 . S
H518 C534 0.942 . S
H519 C536 0.940 . S
H520 C537 0.939 . S
H521 C539 0.941 . S
H522 C543 0.939 . S
O523 P512 1.490 . S
H524 C540 0.939 . S
H525 C542 0.940 . S
C526 P512 1.812 . S
C526 C527 1.389 . S
C526 C531 1.391 . S
C527 H513 0.941 . S
C527 C526 1.389 . S
C527 C528 1.397 . S
C528 H514 0.939 . S
C528 C527 1.397 . S
C528 C529 1.378 . S
C529 C528 1.378 . S
C529 C530 1.378 . S
C530 H515 0.940 . S
C530 C529 1.378 . S
C530 C531 1.396 . S
C531 H516 0.940 . S
C531 C526 1.391 . S
C531 C530 1.396 . S
C532 P512 1.803 . S
C532 C533 1.378 . S
C532 C537 1.400 . S
C533 H517 0.939 . S
C533 C532 1.378 . S
C533 C534 1.361 . S
C534 H518 0.942 . S
C534 C533 1.361 . S
C534 C535 1.369 . S
C535 C534 1.369 . S
C535 C536 1.404 . S
C536 H519 0.940 . S
C536 C535 1.404 . S
C536 C537 1.389 . S
C537 H520 0.939 . S
C537 C532 1.400 . S
C537 C536 1.389 . S
C538 P512 1.819 . S
C538 C539 1.391 . S
C538 C543 1.391 . S
C539 H521 0.941 . S
C539 C538 1.391 . S
C539 C540 1.396 . S
C540 H524 0.939 . S
C540 C539 1.396 . S
C540 C541 1.397 . S
C541 C540 1.397 . S
C541 C542 1.385 . S
C542 H525 0.940 . S
C542 C541 1.385 . S
C542 C543 1.388 . S
C543 H522 0.939 . S
C543 C538 1.391 . S
C543 C542 1.388 . S
P544 O555 1.490 . S
P544 C558 1.812 . S
P544 C564 1.803 . S
P544 C570 1.819 . S
H545 C559 0.941 . S
H546 C560 0.939 . S
H547 C562 0.940 . S
H548 C563 0.940 . S
H549 C565 0.939 . S
H550 C566 0.942 . S
H551 C568 0.940 . S
H552 C569 0.939 . S
H553 C571 0.941 . S
H554 C575 0.939 . S
O555 P544 1.490 . S
H556 C572 0.939 . S
H557 C574 0.940 . S
C558 P544 1.812 . S
C558 C559 1.389 . S
C558 C563 1.391 . S
C559 H545 0.941 . S
C559 C558 1.389 . S
C559 C560 1.397 . S
C560 H546 0.939 . S
C560 C559 1.397 . S
C560 C561 1.378 . S
C561 C560 1.378 . S
C561 C562 1.378 . S
C562 H547 0.940 . S
C562 C561 1.378 . S
C562 C563 1.396 . S
C563 H548 0.940 . S
C563 C558 1.391 . S
C563 C562 1.396 . S
C564 P544 1.803 . S
C564 C565 1.378 . S
C564 C569 1.400 . S
C565 H549 0.939 . S
C565 C564 1.378 . S
C565 C566 1.361 . S
C566 H550 0.942 . S
C566 C565 1.361 . S
C566 C567 1.369 . S
C567 C566 1.369 . S
C567 C568 1.404 . S
C568 H551 0.940 . S
C568 C567 1.404 . S
C568 C569 1.389 . S
C569 H552 0.939 . S
C569 C564 1.400 . S
C569 C568 1.389 . S
C570 P544 1.819 . S
C570 C571 1.391 . S
C570 C575 1.391 . S
C571 H553 0.941 . S
C571 C570 1.391 . S
C571 C572 1.396 . S
C572 H556 0.939 . S
C572 C571 1.396 . S
C572 C573 1.397 . S
C573 C572 1.397 . S
C573 C574 1.385 . S
C574 H557 0.940 . S
C574 C573 1.385 . S
C574 C575 1.388 . S
C575 H554 0.939 . S
C575 C570 1.391 . S
C575 C574 1.388 . S
P576 O587 1.490 . S
P576 C590 1.812 . S
P576 C596 1.803 . S
P576 C602 1.819 . S
H577 C591 0.941 . S
H578 C592 0.939 . S
H579 C594 0.940 . S
H580 C595 0.940 . S
H581 C597 0.939 . S
H582 C598 0.942 . S
H583 C600 0.940 . S
H584 C601 0.939 . S
H585 C603 0.941 . S
H586 C607 0.939 . S
O587 P576 1.490 . S
H588 C604 0.939 . S
H589 C606 0.940 . S
C590 P576 1.812 . S
C590 C591 1.389 . S
C590 C595 1.391 . S
C591 H577 0.941 . S
C591 C590 1.389 . S
C591 C592 1.397 . S
C592 H578 0.939 . S
C592 C591 1.397 . S
C592 C593 1.378 . S
C593 C592 1.378 . S
C593 C594 1.378 . S
C594 H579 0.940 . S
C594 C593 1.378 . S
C594 C595 1.396 . S
C595 H580 0.940 . S
C595 C590 1.391 . S
C595 C594 1.396 . S
C596 P576 1.803 . S
C596 C597 1.378 . S
C596 C601 1.400 . S
C597 H581 0.939 . S
C597 C596 1.378 . S
C597 C598 1.361 . S
C598 H582 0.942 . S
C598 C597 1.361 . S
C598 C599 1.369 . S
C599 C598 1.369 . S
C599 C600 1.404 . S
C600 H583 0.940 . S
C600 C599 1.404 . S
C600 C601 1.389 . S
C601 H584 0.939 . S
C601 C596 1.400 . S
C601 C600 1.389 . S
C602 P576 1.819 . S
C602 C603 1.391 . S
C602 C607 1.391 . S
C603 H585 0.941 . S
C603 C602 1.391 . S
C603 C604 1.396 . S
C604 H588 0.939 . S
C604 C603 1.396 . S
C604 C605 1.397 . S
C605 C604 1.397 . S
C605 C606 1.385 . S
C606 H589 0.940 . S
C606 C605 1.385 . S
C606 C607 1.388 . S
C607 H586 0.939 . S
C607 C602 1.391 . S
C607 C606 1.388 . S
P608 O619 1.490 . S
P608 C622 1.812 . S
P608 C628 1.803 . S
P608 C634 1.819 . S
H609 C623 0.941 . S
H610 C624 0.939 . S
H611 C626 0.940 . S
H612 C627 0.940 . S
H613 C629 0.939 . S
H614 C630 0.942 . S
H615 C632 0.940 . S
H616 C633 0.939 . S
H617 C635 0.941 . S
H618 C639 0.939 . S
O619 P608 1.490 . S
H620 C636 0.939 . S
H621 C638 0.940 . S
C622 P608 1.812 . S
C622 C623 1.389 . S
C622 C627 1.391 . S
C623 H609 0.941 . S
C623 C622 1.389 . S
C623 C624 1.397 . S
C624 H610 0.939 . S
C624 C623 1.397 . S
C624 C625 1.378 . S
C625 C624 1.378 . S
C625 C626 1.378 . S
C626 H611 0.940 . S
C626 C625 1.378 . S
C626 C627 1.396 . S
C627 H612 0.940 . S
C627 C622 1.391 . S
C627 C626 1.396 . S
C628 P608 1.803 . S
C628 C629 1.378 . S
C628 C633 1.400 . S
C629 H613 0.939 . S
C629 C628 1.378 . S
C629 C630 1.361 . S
C630 H614 0.942 . S
C630 C629 1.361 . S
C630 C631 1.369 . S
C631 C630 1.369 . S
C631 C632 1.404 . S
C632 H615 0.940 . S
C632 C631 1.404 . S
C632 C633 1.389 . S
C633 H616 0.939 . S
C633 C628 1.400 . S
C633 C632 1.389 . S
C634 P608 1.819 . S
C634 C635 1.391 . S
C634 C639 1.391 . S
C635 H617 0.941 . S
C635 C634 1.391 . S
C635 C636 1.396 . S
C636 H620 0.939 . S
C636 C635 1.396 . S
C636 C637 1.397 . S
C637 C636 1.397 . S
C637 C638 1.385 . S
C638 H621 0.940 . S
C638 C637 1.385 . S
C638 C639 1.388 . S
C639 H618 0.939 . S
C639 C634 1.391 . S
C639 C638 1.388 . S
P640 O651 1.490 . S
P640 C654 1.812 . S
P640 C660 1.803 . S
P640 C666 1.819 . S
H641 C655 0.941 . S
H642 C656 0.939 . S
H643 C658 0.940 . S
H644 C659 0.940 . S
H645 C661 0.939 . S
H646 C662 0.942 . S
H647 C664 0.940 . S
H648 C665 0.939 . S
H649 C667 0.941 . S
H650 C671 0.939 . S
O651 P640 1.490 . S
H652 C668 0.939 . S
H653 C670 0.940 . S
C654 P640 1.812 . S
C654 C655 1.389 . S
C654 C659 1.391 . S
C655 H641 0.941 . S
C655 C654 1.389 . S
C655 C656 1.397 . S
C656 H642 0.939 . S
C656 C655 1.397 . S
C656 C657 1.378 . S
C657 C656 1.378 . S
C657 C658 1.378 . S
C658 H643 0.940 . S
C658 C657 1.378 . S
C658 C659 1.396 . S
C659 H644 0.940 . S
C659 C654 1.391 . S
C659 C658 1.396 . S
C660 P640 1.803 . S
C660 C661 1.378 . S
C660 C665 1.400 . S
C661 H645 0.939 . S
C661 C660 1.378 . S
C661 C662 1.361 . S
C662 H646 0.942 . S
C662 C661 1.361 . S
C662 C663 1.369 . S
C663 C662 1.369 . S
C663 C664 1.404 . S
C664 H647 0.940 . S
C664 C663 1.404 . S
C664 C665 1.389 . S
C665 H648 0.939 . S
C665 C660 1.400 . S
C665 C664 1.389 . S
C666 P640 1.819 . S
C666 C667 1.391 . S
C666 C671 1.391 . S
C667 H649 0.941 . S
C667 C666 1.391 . S
C667 C668 1.396 . S
C668 H652 0.939 . S
C668 C667 1.396 . S
C668 C669 1.397 . S
C669 C668 1.397 . S
C669 C670 1.385 . S
C670 H653 0.940 . S
C670 C669 1.385 . S
C670 C671 1.388 . S
C671 H650 0.939 . S
C671 C666 1.391 . S
C671 C670 1.388 . S
P672 O683 1.490 . S
P672 C686 1.812 . S
P672 C692 1.803 . S
P672 C698 1.819 . S
H673 C687 0.941 . S
H674 C688 0.939 . S
H675 C690 0.940 . S
H676 C691 0.940 . S
H677 C693 0.939 . S
H678 C694 0.942 . S
H679 C696 0.940 . S
H680 C697 0.939 . S
H681 C699 0.941 . S
H682 C703 0.939 . S
O683 P672 1.490 . S
H684 C700 0.939 . S
H685 C702 0.940 . S
C686 P672 1.812 . S
C686 C687 1.389 . S
C686 C691 1.391 . S
C687 H673 0.941 . S
C687 C686 1.389 . S
C687 C688 1.397 . S
C688 H674 0.939 . S
C688 C687 1.397 . S
C688 C689 1.378 . S
C689 C688 1.378 . S
C689 C690 1.378 . S
C690 H675 0.940 . S
C690 C689 1.378 . S
C690 C691 1.396 . S
C691 H676 0.940 . S
C691 C686 1.391 . S
C691 C690 1.396 . S
C692 P672 1.803 . S
C692 C693 1.378 . S
C692 C697 1.400 . S
C693 H677 0.939 . S
C693 C692 1.378 . S
C693 C694 1.361 . S
C694 H678 0.942 . S
C694 C693 1.361 . S
C694 C695 1.369 . S
C695 C694 1.369 . S
C695 C696 1.404 . S
C696 H679 0.940 . S
C696 C695 1.404 . S
C696 C697 1.389 . S
C697 H680 0.939 . S
C697 C692 1.400 . S
C697 C696 1.389 . S
C698 P672 1.819 . S
C698 C699 1.391 . S
C698 C703 1.391 . S
C699 H681 0.941 . S
C699 C698 1.391 . S
C699 C700 1.396 . S
C700 H684 0.939 . S
C700 C699 1.396 . S
C700 C701 1.397 . S
C701 C700 1.397 . S
C701 C702 1.385 . S
C702 H685 0.940 . S
C702 C701 1.385 . S
C702 C703 1.388 . S
C703 H682 0.939 . S
C703 C698 1.391 . S
C703 C702 1.388 . S
P704 O715 1.490 . S
P704 C718 1.812 . S
P704 C724 1.803 . S
P704 C730 1.819 . S
H705 C719 0.941 . S
H706 C720 0.939 . S
H707 C722 0.940 . S
H708 C723 0.940 . S
H709 C725 0.939 . S
H710 C726 0.942 . S
H711 C728 0.940 . S
H712 C729 0.939 . S
H713 C731 0.941 . S
H714 C735 0.939 . S
O715 P704 1.490 . S
H716 C732 0.939 . S
H717 C734 0.940 . S
C718 P704 1.812 . S
C718 C719 1.389 . S
C718 C723 1.391 . S
C719 H705 0.941 . S
C719 C718 1.389 . S
C719 C720 1.397 . S
C720 H706 0.939 . S
C720 C719 1.397 . S
C720 C721 1.378 . S
C721 C720 1.378 . S
C721 C722 1.378 . S
C722 H707 0.940 . S
C722 C721 1.378 . S
C722 C723 1.396 . S
C723 H708 0.940 . S
C723 C718 1.391 . S
C723 C722 1.396 . S
C724 P704 1.803 . S
C724 C725 1.378 . S
C724 C729 1.400 . S
C725 H709 0.939 . S
C725 C724 1.378 . S
C725 C726 1.361 . S
C726 H710 0.942 . S
C726 C725 1.361 . S
C726 C727 1.369 . S
C727 C726 1.369 . S
C727 C728 1.404 . S
C728 H711 0.940 . S
C728 C727 1.404 . S
C728 C729 1.389 . S
C729 H712 0.939 . S
C729 C724 1.400 . S
C729 C728 1.389 . S
C730 P704 1.819 . S
C730 C731 1.391 . S
C730 C735 1.391 . S
C731 H713 0.941 . S
C731 C730 1.391 . S
C731 C732 1.396 . S
C732 H716 0.939 . S
C732 C731 1.396 . S
C732 C733 1.397 . S
C733 C732 1.397 . S
C733 C734 1.385 . S
C734 H717 0.940 . S
C734 C733 1.385 . S
C734 C735 1.388 . S
C735 H714 0.939 . S
C735 C730 1.391 . S
C735 C734 1.388 . S
P736 O747 1.490 . S
P736 C750 1.812 . S
P736 C756 1.803 . S
P736 C762 1.819 . S
H737 C751 0.941 . S
H738 C752 0.939 . S
H739 C754 0.940 . S
H740 C755 0.940 . S
H741 C757 0.939 . S
H742 C758 0.942 . S
H743 C760 0.940 . S
H744 C761 0.939 . S
H745 C763 0.941 . S
H746 C767 0.939 . S
O747 P736 1.490 . S
H748 C764 0.939 . S
H749 C766 0.940 . S
C750 P736 1.812 . S
C750 C751 1.389 . S
C750 C755 1.391 . S
C751 H737 0.941 . S
C751 C750 1.389 . S
C751 C752 1.397 . S
C752 H738 0.939 . S
C752 C751 1.397 . S
C752 C753 1.378 . S
C753 C752 1.378 . S
C753 C754 1.378 . S
C754 H739 0.940 . S
C754 C753 1.378 . S
C754 C755 1.396 . S
C755 H740 0.940 . S
C755 C750 1.391 . S
C755 C754 1.396 . S
C756 P736 1.803 . S
C756 C757 1.378 . S
C756 C761 1.400 . S
C757 H741 0.939 . S
C757 C756 1.378 . S
C757 C758 1.361 . S
C758 H742 0.942 . S
C758 C757 1.361 . S
C758 C759 1.369 . S
C759 C758 1.369 . S
C759 C760 1.404 . S
C760 H743 0.940 . S
C760 C759 1.404 . S
C760 C761 1.389 . S
C761 H744 0.939 . S
C761 C756 1.400 . S
C761 C760 1.389 . S
C762 P736 1.819 . S
C762 C763 1.391 . S
C762 C767 1.391 . S
C763 H745 0.941 . S
C763 C762 1.391 . S
C763 C764 1.396 . S
C764 H748 0.939 . S
C764 C763 1.396 . S
C764 C765 1.397 . S
C765 C764 1.397 . S
C765 C766 1.385 . S
C766 H749 0.940 . S
C766 C765 1.385 . S
C766 C767 1.388 . S
C767 H746 0.939 . S
C767 C762 1.391 . S
C767 C766 1.388 . S
C768 O794 1.283 . S
C768 O812 1.283 . S
C769 O795 1.283 . S
C769 O810 1.283 . S
C770 O796 1.283 . S
C770 O813 1.283 . S
C771 O797 1.283 . S
C771 O811 1.283 . S
C772 O798 1.283 . S
C772 O807 1.283 . S
C773 O799 1.283 . S
C773 O809 1.283 . S
C774 O800 1.283 . S
C774 O806 1.283 . S
C775 O801 1.283 . S
C775 O808 1.283 . S
C776 O802 1.283 . S
C776 O817 1.283 . S
C777 O803 1.283 . S
C777 O815 1.283 . S
C778 O804 1.283 . S
C778 O816 1.283 . S
C779 O805 1.283 . S
C779 O814 1.283 . S
Eu780 O781 2.370 1_455 S
Eu780 O782 2.370 . S
Eu780 O785 2.370 1_455 S
Eu780 O786 2.370 . S
Eu780 O794 2.363 . S
Eu780 O795 2.363 . S
Eu780 O808 2.363 . S
Eu780 O809 2.363 1_455 S
O781 Eu780 2.370 1_655 S
O781 Eu783 2.370 1_565 S
O781 Eu788 2.370 1_665 S
O782 Eu780 2.370 . S
O782 Eu784 2.370 1_565 S
O782 Eu787 2.370 1_565 S
Eu783 O781 2.370 1_545 S
Eu783 O785 2.370 1_545 S
Eu783 O789 2.370 . S
Eu783 O790 2.370 . S
Eu783 O798 2.363 . S
Eu783 O799 2.363 1_545 S
Eu783 O814 2.363 . S
Eu783 O815 2.363 . S
Eu784 O782 2.370 1_545 S
Eu784 O786 2.370 1_545 S
Eu784 O791 2.370 . S
Eu784 O792 2.370 . S
Eu784 O800 2.363 . S
Eu784 O801 2.363 1_545 S
Eu784 O816 2.363 . S
Eu784 O817 2.363 . S
O785 Eu780 2.370 1_655 S
O785 Eu783 2.370 1_565 S
O785 Eu787 2.370 1_665 S
O786 Eu780 2.370 . S
O786 Eu784 2.370 1_565 S
O786 Eu788 2.370 1_565 S
Eu787 O782 2.370 1_545 S
Eu787 O785 2.370 1_445 S
Eu787 O789 2.370 1_455 S
Eu787 O792 2.370 . S
Eu787 O804 2.363 . S
Eu787 O805 2.363 1_455 S
Eu787 O812 2.363 1_545 S
Eu787 O813 2.363 . S
Eu788 O781 2.370 1_445 S
Eu788 O786 2.370 1_545 S
Eu788 O790 2.370 1_455 S
Eu788 O791 2.370 . S
Eu788 O802 2.363 . S
Eu788 O803 2.363 1_455 S
Eu788 O810 2.363 1_545 S
Eu788 O811 2.363 . S
O789 Eu783 2.370 . S
O789 Eu787 2.370 1_655 S
O789 Eu793 2.370 1_655 S
O790 Eu783 2.370 . S
O790 Eu788 2.370 1_655 S
O790 Eu793 2.370 1_655 S
O791 Eu784 2.370 . S
O791 Eu788 2.370 . S
O791 Eu793 2.370 . S
O792 Eu784 2.370 . S
O792 Eu787 2.370 . S
O792 Eu793 2.370 . S
Eu793 O789 2.370 1_455 S
Eu793 O790 2.370 1_455 S
Eu793 O791 2.370 . S
Eu793 O792 2.370 . S
Eu793 O796 2.363 . S
Eu793 O797 2.363 . S
Eu793 O806 2.363 . S
Eu793 O807 2.363 1_455 S
O794 C768 1.283 . S
O794 Eu780 2.363 . S
O795 C769 1.283 . S
O795 Eu780 2.363 . S
O796 C770 1.283 . S
O796 Eu793 2.363 . S
O797 C771 1.283 . S
O797 Eu793 2.363 . S
O798 C772 1.283 . S
O798 Eu783 2.363 . S
O799 C773 1.283 . S
O799 Eu783 2.363 1_565 S
O800 C774 1.283 . S
O800 Eu784 2.363 . S
O801 C775 1.283 . S
O801 Eu784 2.363 1_565 S
O802 C776 1.283 . S
O802 Eu788 2.363 . S
O803 C777 1.283 . S
O803 Eu788 2.363 1_655 S
O804 C778 1.283 . S
O804 Eu787 2.363 . S
O805 C779 1.283 . S
O805 Eu787 2.363 1_655 S
O806 C774 1.283 . S
O806 Eu793 2.363 . S
O807 C772 1.283 . S
O807 Eu793 2.363 1_655 S
O808 C775 1.283 . S
O808 Eu780 2.363 . S
O809 C773 1.283 . S
O809 Eu780 2.363 1_655 S
O810 C769 1.283 . S
O810 Eu788 2.363 1_565 S
O811 C771 1.283 . S
O811 Eu788 2.363 . S
O812 C768 1.283 . S
O812 Eu787 2.363 1_565 S
O813 C770 1.283 . S
O813 Eu787 2.363 . S
O814 C779 1.283 . S
O814 Eu783 2.363 . S
O815 C777 1.283 . S
O815 Eu783 2.363 . S
O816 C778 1.283 . S
O816 Eu784 2.363 . S
O817 C776 1.283 . S
O817 Eu784 2.363 . S
C818 O844 1.283 . S
C818 O862 1.283 . S
C819 O845 1.283 . S
C819 O860 1.283 . S
C820 O846 1.283 . S
C820 O863 1.283 . S
C821 O847 1.283 . S
C821 O861 1.283 . S
C822 O848 1.283 . S
C822 O857 1.283 . S
C823 O849 1.283 . S
C823 O859 1.283 . S
C824 O850 1.283 . S
C824 O856 1.283 . S
C825 O851 1.283 . S
C825 O858 1.283 . S
C826 O852 1.283 . S
C826 O867 1.283 . S
C827 O853 1.283 . S
C827 O865 1.283 . S
C828 O854 1.283 . S
C828 O866 1.283 . S
C829 O855 1.283 . S
C829 O864 1.283 . S
Eu830 O831 2.370 . S
Eu830 O832 2.370 1_545 S
Eu830 O835 2.370 1_545 S
Eu830 O836 2.370 . S
Eu830 O844 2.363 1_545 S
Eu830 O845 2.363 . S
Eu830 O858 2.363 . S
Eu830 O859 2.363 . S
O831 Eu830 2.370 . S
O831 Eu833 2.370 . S
O831 Eu838 2.370 . S
O832 Eu830 2.370 1_565 S
O832 Eu834 2.370 1_565 S
O832 Eu837 2.370 . S
Eu833 O831 2.370 . S
Eu833 O835 2.370 1_545 S
Eu833 O839 2.370 1_544 S
Eu833 O840 2.370 1_554 S
Eu833 O848 2.363 1_554 S
Eu833 O849 2.363 . S
Eu833 O864 2.363 1_545 S
Eu833 O865 2.363 . S
Eu834 O832 2.370 1_545 S
Eu834 O836 2.370 . S
Eu834 O841 2.370 1_554 S
Eu834 O842 2.370 1_544 S
Eu834 O850 2.363 1_554 S
Eu834 O851 2.363 . S
Eu834 O866 2.363 1_545 S
Eu834 O867 2.363 . S
O835 Eu830 2.370 1_565 S
O835 Eu833 2.370 1_565 S
O835 Eu837 2.370 . S
O836 Eu830 2.370 . S
O836 Eu834 2.370 . S
O836 Eu838 2.370 . S
Eu837 O832 2.370 . S
Eu837 O835 2.370 . S
Eu837 O839 2.370 1_554 S
Eu837 O842 2.370 1_554 S
Eu837 O854 2.363 . S
Eu837 O855 2.363 . S
Eu837 O862 2.363 . S
Eu837 O863 2.363 1_554 S
Eu838 O831 2.370 . S
Eu838 O836 2.370 . S
Eu838 O840 2.370 1_554 S
Eu838 O841 2.370 1_554 S
Eu838 O852 2.363 . S
Eu838 O853 2.363 . S
Eu838 O860 2.363 . S
Eu838 O861 2.363 1_554 S
O839 Eu833 2.370 1_566 S
O839 Eu837 2.370 1_556 S
O839 Eu843 2.370 1_565 S
O840 Eu833 2.370 1_556 S
O840 Eu838 2.370 1_556 S
O840 Eu843 2.370 . S
O841 Eu834 2.370 1_556 S
O841 Eu838 2.370 1_556 S
O841 Eu843 2.370 . S
O842 Eu834 2.370 1_566 S
O842 Eu837 2.370 1_556 S
O842 Eu843 2.370 1_565 S
Eu843 O839 2.370 1_545 S
Eu843 O840 2.370 . S
Eu843 O841 2.370 . S
Eu843 O842 2.370 1_545 S
Eu843 O846 2.363 1_545 S
Eu843 O847 2.363 . S
Eu843 O856 2.363 . S
Eu843 O857 2.363 . S
O844 C818 1.283 . S
O844 Eu830 2.363 1_565 S
O845 C819 1.283 . S
O845 Eu830 2.363 . S
O846 C820 1.283 . S
O846 Eu843 2.363 1_565 S
O847 C821 1.283 . S
O847 Eu843 2.363 . S
O848 C822 1.283 . S
O848 Eu833 2.363 1_556 S
O849 C823 1.283 . S
O849 Eu833 2.363 . S
O850 C824 1.283 . S
O850 Eu834 2.363 1_556 S
O851 C825 1.283 . S
O851 Eu834 2.363 . S
O852 C826 1.283 . S
O852 Eu838 2.363 . S
O853 C827 1.283 . S
O853 Eu838 2.363 . S
O854 C828 1.283 . S
O854 Eu837 2.363 . S
O855 C829 1.283 . S
O855 Eu837 2.363 . S
O856 C824 1.283 . S
O856 Eu843 2.363 . S
O857 C822 1.283 . S
O857 Eu843 2.363 . S
O858 C825 1.283 . S
O858 Eu830 2.363 . S
O859 C823 1.283 . S
O859 Eu830 2.363 . S
O860 C819 1.283 . S
O860 Eu838 2.363 . S
O861 C821 1.283 . S
O861 Eu838 2.363 1_556 S
O862 C818 1.283 . S
O862 Eu837 2.363 . S
O863 C820 1.283 . S
O863 Eu837 2.363 1_556 S
O864 C829 1.283 . S
O864 Eu833 2.363 1_565 S
O865 C827 1.283 . S
O865 Eu833 2.363 . S
O866 C828 1.283 . S
O866 Eu834 2.363 1_565 S
O867 C826 1.283 . S
O867 Eu834 2.363 . S
C868 O894 1.283 . S
C868 O912 1.283 . S
C869 O895 1.283 . S
C869 O910 1.283 . S
C870 O896 1.283 . S
C870 O913 1.283 . S
C871 O897 1.283 . S
C871 O911 1.283 . S
C872 O898 1.283 . S
C872 O907 1.283 . S
C873 O899 1.283 . S
C873 O909 1.283 . S
C874 O900 1.283 . S
C874 O906 1.283 . S
C875 O901 1.283 . S
C875 O908 1.283 . S
C876 O902 1.283 . S
C876 O917 1.283 . S
C877 O903 1.283 . S
C877 O915 1.283 . S
C878 O904 1.283 . S
C878 O916 1.283 . S
C879 O905 1.283 . S
C879 O914 1.283 . S
Eu880 O881 2.363 1_454 S
Eu880 O882 2.377 . S
Eu880 O885 2.377 1_455 S
Eu880 O886 2.363 1_554 S
Eu880 O894 2.375 . S
Eu880 O895 2.351 1_554 S
Eu880 O908 2.363 . S
Eu880 O909 2.363 1_455 S
O881 Eu880 2.363 1_656 S
O881 Eu883 2.363 1_556 S
O881 Eu888 2.370 1_655 S
O882 Eu880 2.377 . S
O882 Eu884 2.377 . S
O882 Eu887 2.370 . S
Eu883 O881 2.363 1_554 S
Eu883 O885 2.377 . S
Eu883 O889 2.377 . S
Eu883 O890 2.363 1_554 S
Eu883 O898 2.363 . S
Eu883 O899 2.363 . S
Eu883 O914 2.374 . S
Eu883 O915 2.351 1_554 S
Eu884 O882 2.377 . S
Eu884 O886 2.363 1_554 S
Eu884 O891 2.363 1_554 S
Eu884 O892 2.377 . S
Eu884 O900 2.363 . S
Eu884 O901 2.363 . S
Eu884 O916 2.375 . S
Eu884 O917 2.351 1_554 S
O885 Eu880 2.377 1_655 S
O885 Eu883 2.377 . S
O885 Eu887 2.370 1_655 S
O886 Eu880 2.363 1_556 S
O886 Eu884 2.363 1_556 S
O886 Eu888 2.370 . S
Eu887 O882 2.370 . S
Eu887 O885 2.370 1_455 S
Eu887 O889 2.370 1_455 S
Eu887 O892 2.370 . S
Eu887 O904 2.363 . S
Eu887 O905 2.363 1_455 S
Eu887 O912 2.363 . S
Eu887 O913 2.363 . S
Eu888 O881 2.370 1_455 S
Eu888 O886 2.370 . S
Eu888 O890 2.370 1_455 S
Eu888 O891 2.370 . S
Eu888 O902 2.363 . S
Eu888 O903 2.363 1_455 S
Eu888 O910 2.363 . S
Eu888 O911 2.363 . S
O889 Eu883 2.377 . S
O889 Eu887 2.370 1_655 S
O889 Eu893 2.377 1_655 S
O890 Eu883 2.363 1_556 S
O890 Eu888 2.370 1_655 S
O890 Eu893 2.363 1_656 S
O891 Eu884 2.363 1_556 S
O891 Eu888 2.370 . S
O891 Eu893 2.363 1_556 S
O892 Eu884 2.377 . S
O892 Eu887 2.370 . S
O892 Eu893 2.377 . S
Eu893 O889 2.377 1_455 S
Eu893 O890 2.363 1_454 S
Eu893 O891 2.363 1_554 S
Eu893 O892 2.377 . S
Eu893 O896 2.375 . S
Eu893 O897 2.351 1_554 S
Eu893 O906 2.363 . S
Eu893 O907 2.363 1_455 S
O894 C868 1.283 . S
O894 Eu880 2.375 . S
O895 C869 1.283 . S
O895 Eu880 2.351 1_556 S
O896 C870 1.283 . S
O896 Eu893 2.375 . S
O897 C871 1.283 . S
O897 Eu893 2.351 1_556 S
O898 C872 1.283 . S
O898 Eu883 2.363 . S
O899 C873 1.283 . S
O899 Eu883 2.363 . S
O900 C874 1.283 . S
O900 Eu884 2.363 . S
O901 C875 1.283 . S
O901 Eu884 2.363 . S
O902 C876 1.283 . S
O902 Eu888 2.363 . S
O903 C877 1.283 . S
O903 Eu888 2.363 1_655 S
O904 C878 1.283 . S
O904 Eu887 2.363 . S
O905 C879 1.283 . S
O905 Eu887 2.363 1_655 S
O906 C874 1.283 . S
O906 Eu893 2.363 . S
O907 C872 1.283 . S
O907 Eu893 2.363 1_655 S
O908 C875 1.283 . S
O908 Eu880 2.363 . S
O909 C873 1.283 . S
O909 Eu880 2.363 1_655 S
O910 C869 1.283 . S
O910 Eu888 2.363 . S
O911 C871 1.283 . S
O911 Eu888 2.363 . S
O912 C868 1.283 . S
O912 Eu887 2.363 . S
O913 C870 1.283 . S
O913 Eu887 2.363 . S
O914 C879 1.283 . S
O914 Eu883 2.374 . S
O915 C877 1.283 . S
O915 Eu883 2.351 1_556 S
O916 C878 1.283 . S
O916 Eu884 2.375 . S
O917 C876 1.283 . S
O917 Eu884 2.351 1_556 S
C918 O944 1.283 . S
C918 O962 1.283 . S
C919 O945 1.283 . S
C919 O960 1.283 . S
C920 O946 1.283 . S
C920 O963 1.283 . S
C921 O947 1.283 . S
C921 O961 1.283 . S
C922 O948 1.283 . S
C922 O957 1.283 . S
C923 O949 1.283 . S
C923 O959 1.283 . S
C924 O950 1.283 . S
C924 O956 1.283 . S
C925 O951 1.283 . S
C925 O958 1.283 . S
C926 O952 1.283 . S
C926 O967 1.283 . S
C927 O953 1.283 . S
C927 O965 1.283 . S
C928 O954 1.283 . S
C928 O966 1.283 . S
C929 O955 1.283 . S
C929 O964 1.283 . S
Eu930 O931 2.370 . S
Eu930 O932 2.370 . S
Eu930 O935 2.370 . S
Eu930 O936 2.370 . S
Eu930 O944 2.363 . S
Eu930 O945 2.363 . S
Eu930 O958 2.363 . S
Eu930 O959 2.363 . S
O931 Eu930 2.370 . S
O931 Eu933 2.379 . S
O931 Eu938 2.379 . S
O932 Eu930 2.370 . S
O932 Eu934 2.379 . S
O932 Eu937 2.379 . S
Eu933 O931 2.379 . S
Eu933 O935 2.379 . S
Eu933 O939 2.361 1_554 S
Eu933 O940 2.361 1_554 S
Eu933 O948 2.348 1_554 S
Eu933 O949 2.378 . S
Eu933 O964 2.363 . S
Eu933 O965 2.363 . S
Eu934 O932 2.379 . S
Eu934 O936 2.379 . S
Eu934 O941 2.361 1_554 S
Eu934 O942 2.361 1_554 S
Eu934 O950 2.348 1_554 S
Eu934 O951 2.378 . S
Eu934 O966 2.363 . S
Eu934 O967 2.363 . S
O935 Eu930 2.370 . S
O935 Eu933 2.379 . S
O935 Eu937 2.379 . S
O936 Eu930 2.370 . S
O936 Eu934 2.379 . S
O936 Eu938 2.379 . S
Eu937 O932 2.379 . S
Eu937 O935 2.379 . S
Eu937 O939 2.361 1_554 S
Eu937 O942 2.361 1_554 S
Eu937 O954 2.363 . S
Eu937 O955 2.363 . S
Eu937 O962 2.378 . S
Eu937 O963 2.348 1_554 S
Eu938 O931 2.379 . S
Eu938 O936 2.379 . S
Eu938 O940 2.361 1_554 S
Eu938 O941 2.361 1_554 S
Eu938 O952 2.363 . S
Eu938 O953 2.363 . S
Eu938 O960 2.378 . S
Eu938 O961 2.348 1_554 S
O939 Eu933 2.361 1_556 S
O939 Eu937 2.361 1_556 S
O939 Eu943 2.370 . S
O940 Eu933 2.361 1_556 S
O940 Eu938 2.361 1_556 S
O940 Eu943 2.370 . S
O941 Eu934 2.361 1_556 S
O941 Eu938 2.361 1_556 S
O941 Eu943 2.370 . S
O942 Eu934 2.361 1_556 S
O942 Eu937 2.361 1_556 S
O942 Eu943 2.370 . S
Eu943 O939 2.370 . S
Eu943 O940 2.370 . S
Eu943 O941 2.370 . S
Eu943 O942 2.370 . S
Eu943 O946 2.363 . S
Eu943 O947 2.363 . S
Eu943 O956 2.363 . S
Eu943 O957 2.363 . S
O944 C918 1.283 . S
O944 Eu930 2.363 . S
O945 C919 1.283 . S
O945 Eu930 2.363 . S
O946 C920 1.283 . S
O946 Eu943 2.363 . S
O947 C921 1.283 . S
O947 Eu943 2.363 . S
O948 C922 1.283 . S
O948 Eu933 2.348 1_556 S
O949 C923 1.283 . S
O949 Eu933 2.378 . S
O950 C924 1.283 . S
O950 Eu934 2.348 1_556 S
O951 C925 1.283 . S
O951 Eu934 2.378 . S
O952 C926 1.283 . S
O952 Eu938 2.363 . S
O953 C927 1.283 . S
O953 Eu938 2.363 . S
O954 C928 1.283 . S
O954 Eu937 2.363 . S
O955 C929 1.283 . S
O955 Eu937 2.363 . S
O956 C924 1.283 . S
O956 Eu943 2.363 . S
O957 C922 1.283 . S
O957 Eu943 2.363 . S
O958 C925 1.283 . S
O958 Eu930 2.363 . S
O959 C923 1.283 . S
O959 Eu930 2.363 . S
O960 C919 1.283 . S
O960 Eu938 2.378 . S
O961 C921 1.283 . S
O961 Eu938 2.348 1_556 S
O962 C918 1.283 . S
O962 Eu937 2.378 . S
O963 C920 1.283 . S
O963 Eu937 2.348 1_556 S
O964 C929 1.283 . S
O964 Eu933 2.363 . S
O965 C927 1.283 . S
O965 Eu933 2.363 . S
O966 C928 1.283 . S
O966 Eu934 2.363 . S
O967 C926 1.283 . S
O967 Eu934 2.363 . S
C968 O994 1.283 . S
C968 O1012 1.283 . S
C969 O995 1.283 . S
C969 O1010 1.283 . S
C970 O996 1.283 . S
C970 O1013 1.283 . S
C971 O997 1.283 . S
C971 O1011 1.283 . S
C972 O998 1.283 . S
C972 O1007 1.283 . S
C973 O999 1.283 . S
C973 O1009 1.283 . S
C974 O1000 1.283 . S
C974 O1006 1.283 . S
C975 O1001 1.283 . S
C975 O1008 1.283 . S
C976 O1002 1.283 . S
C976 O1017 1.283 . S
C977 O1003 1.283 . S
C977 O1015 1.283 . S
C978 O1004 1.283 . S
C978 O1016 1.283 . S
C979 O1005 1.283 . S
C979 O1014 1.283 . S
Eu980 O981 2.370 1_455 S
Eu980 O982 2.370 . S
Eu980 O985 2.370 1_455 S
Eu980 O986 2.370 . S
Eu980 O994 2.363 . S
Eu980 O995 2.363 . S
Eu980 O1008 2.363 . S
Eu980 O1009 2.363 1_455 S
O981 Eu980 2.370 1_655 S
O981 Eu983 2.370 . S
O981 Eu988 2.370 1_655 S
O982 Eu980 2.370 . S
O982 Eu984 2.370 . S
O982 Eu987 2.370 . S
Eu983 O981 2.370 . S
Eu983 O985 2.370 . S
Eu983 O989 2.370 . S
Eu983 O990 2.370 . S
Eu983 O998 2.363 . S
Eu983 O999 2.363 . S
Eu983 O1014 2.363 . S
Eu983 O1015 2.363 . S
Eu984 O982 2.370 . S
Eu984 O986 2.370 . S
Eu984 O991 2.370 . S
Eu984 O992 2.370 . S
Eu984 O1000 2.363 . S
Eu984 O1001 2.363 . S
Eu984 O1016 2.363 . S
Eu984 O1017 2.363 . S
O985 Eu980 2.370 1_655 S
O985 Eu983 2.370 . S
O985 Eu987 2.370 1_655 S
O986 Eu980 2.370 . S
O986 Eu984 2.370 . S
O986 Eu988 2.370 . S
Eu987 O982 2.370 . S
Eu987 O985 2.370 1_455 S
Eu987 O989 2.370 1_455 S
Eu987 O992 2.370 . S
Eu987 O1004 2.363 . S
Eu987 O1005 2.363 1_455 S
Eu987 O1012 2.363 . S
Eu987 O1013 2.363 . S
Eu988 O981 2.370 1_455 S
Eu988 O986 2.370 . S
Eu988 O990 2.370 1_455 S
Eu988 O991 2.370 . S
Eu988 O1002 2.363 . S
Eu988 O1003 2.363 1_455 S
Eu988 O1010 2.363 . S
Eu988 O1011 2.363 . S
O989 Eu983 2.370 . S
O989 Eu987 2.370 1_655 S
O989 Eu993 2.370 1_655 S
O990 Eu983 2.370 . S
O990 Eu988 2.370 1_655 S
O990 Eu993 2.370 1_655 S
O991 Eu984 2.370 . S
O991 Eu988 2.370 . S
O991 Eu993 2.370 . S
O992 Eu984 2.370 . S
O992 Eu987 2.370 . S
O992 Eu993 2.370 . S
Eu993 O989 2.370 1_455 S
Eu993 O990 2.370 1_455 S
Eu993 O991 2.370 . S
Eu993 O992 2.370 . S
Eu993 O996 2.363 . S
Eu993 O997 2.363 . S
Eu993 O1006 2.363 . S
Eu993 O1007 2.363 1_455 S
O994 C968 1.283 . S
O994 Eu980 2.363 . S
O995 C969 1.283 . S
O995 Eu980 2.363 . S
O996 C970 1.283 . S
O996 Eu993 2.363 . S
O997 C971 1.283 . S
O997 Eu993 2.363 . S
O998 C972 1.283 . S
O998 Eu983 2.363 . S
O999 C973 1.283 . S
O999 Eu983 2.363 . S
O1000 C974 1.283 . S
O1000 Eu984 2.363 . S
O1001 C975 1.283 . S
O1001 Eu984 2.363 . S
O1002 C976 1.283 . S
O1002 Eu988 2.363 . S
O1003 C977 1.283 . S
O1003 Eu988 2.363 1_655 S
O1004 C978 1.283 . S
O1004 Eu987 2.363 . S
O1005 C979 1.283 . S
O1005 Eu987 2.363 1_655 S
O1006 C974 1.283 . S
O1006 Eu993 2.363 . S
O1007 C972 1.283 . S
O1007 Eu993 2.363 1_655 S
O1008 C975 1.283 . S
O1008 Eu980 2.363 . S
O1009 C973 1.283 . S
O1009 Eu980 2.363 1_655 S
O1010 C969 1.283 . S
O1010 Eu988 2.363 . S
O1011 C971 1.283 . S
O1011 Eu988 2.363 . S
O1012 C968 1.283 . S
O1012 Eu987 2.363 . S
O1013 C970 1.283 . S
O1013 Eu987 2.363 . S
O1014 C979 1.283 . S
O1014 Eu983 2.363 . S
O1015 C977 1.283 . S
O1015 Eu983 2.363 . S
O1016 C978 1.283 . S
O1016 Eu984 2.363 . S
O1017 C976 1.283 . S
O1017 Eu984 2.363 . S
C1018 O1044 1.283 . S
C1018 O1062 1.283 . S
C1019 O1045 1.283 . S
C1019 O1060 1.283 . S
C1020 O1046 1.283 . S
C1020 O1063 1.283 . S
C1021 O1047 1.283 . S
C1021 O1061 1.283 . S
C1022 O1048 1.283 . S
C1022 O1057 1.283 . S
C1023 O1049 1.283 . S
C1023 O1059 1.283 . S
C1024 O1050 1.283 . S
C1024 O1056 1.283 . S
C1025 O1051 1.283 . S
C1025 O1058 1.283 . S
C1026 O1052 1.283 . S
C1026 O1067 1.283 . S
C1027 O1053 1.283 . S
C1027 O1065 1.283 . S
C1028 O1054 1.283 . S
C1028 O1066 1.283 . S
C1029 O1055 1.283 . S
C1029 O1064 1.283 . S
Eu1030 O1031 2.370 . S
Eu1030 O1032 2.370 . S
Eu1030 O1035 2.370 . S
Eu1030 O1036 2.370 . S
Eu1030 O1044 2.363 . S
Eu1030 O1045 2.363 . S
Eu1030 O1058 2.363 . S
Eu1030 O1059 2.363 . S
O1031 Eu1030 2.370 . S
O1031 Eu1033 2.370 1_565 S
O1031 Eu1038 2.370 1_565 S
O1032 Eu1030 2.370 . S
O1032 Eu1034 2.370 1_565 S
O1032 Eu1037 2.370 1_565 S
Eu1033 O1031 2.370 1_545 S
Eu1033 O1035 2.370 1_545 S
Eu1033 O1039 2.370 . S
Eu1033 O1040 2.370 . S
Eu1033 O1048 2.363 . S
Eu1033 O1049 2.363 1_545 S
Eu1033 O1064 2.363 . S
Eu1033 O1065 2.363 . S
Eu1034 O1032 2.370 1_545 S
Eu1034 O1036 2.370 1_545 S
Eu1034 O1041 2.370 . S
Eu1034 O1042 2.370 . S
Eu1034 O1050 2.363 . S
Eu1034 O1051 2.363 1_545 S
Eu1034 O1066 2.363 . S
Eu1034 O1067 2.363 . S
O1035 Eu1030 2.370 . S
O1035 Eu1033 2.370 1_565 S
O1035 Eu1037 2.370 1_565 S
O1036 Eu1030 2.370 . S
O1036 Eu1034 2.370 1_565 S
O1036 Eu1038 2.370 1_565 S
Eu1037 O1032 2.370 1_545 S
Eu1037 O1035 2.370 1_545 S
Eu1037 O1039 2.370 . S
Eu1037 O1042 2.370 . S
Eu1037 O1054 2.363 . S
Eu1037 O1055 2.363 . S
Eu1037 O1062 2.363 1_545 S
Eu1037 O1063 2.363 . S
Eu1038 O1031 2.370 1_545 S
Eu1038 O1036 2.370 1_545 S
Eu1038 O1040 2.370 . S
Eu1038 O1041 2.370 . S
Eu1038 O1052 2.363 . S
Eu1038 O1053 2.363 . S
Eu1038 O1060 2.363 1_545 S
Eu1038 O1061 2.363 . S
O1039 Eu1033 2.370 . S
O1039 Eu1037 2.370 . S
O1039 Eu1043 2.370 . S
O1040 Eu1033 2.370 . S
O1040 Eu1038 2.370 . S
O1040 Eu1043 2.370 . S
O1041 Eu1034 2.370 . S
O1041 Eu1038 2.370 . S
O1041 Eu1043 2.370 . S
O1042 Eu1034 2.370 . S
O1042 Eu1037 2.370 . S
O1042 Eu1043 2.370 . S
Eu1043 O1039 2.370 . S
Eu1043 O1040 2.370 . S
Eu1043 O1041 2.370 . S
Eu1043 O1042 2.370 . S
Eu1043 O1046 2.363 . S
Eu1043 O1047 2.363 . S
Eu1043 O1056 2.363 . S
Eu1043 O1057 2.363 . S
O1044 C1018 1.283 . S
O1044 Eu1030 2.363 . S
O1045 C1019 1.283 . S
O1045 Eu1030 2.363 . S
O1046 C1020 1.283 . S
O1046 Eu1043 2.363 . S
O1047 C1021 1.283 . S
O1047 Eu1043 2.363 . S
O1048 C1022 1.283 . S
O1048 Eu1033 2.363 . S
O1049 C1023 1.283 . S
O1049 Eu1033 2.363 1_565 S
O1050 C1024 1.283 . S
O1050 Eu1034 2.363 . S
O1051 C1025 1.283 . S
O1051 Eu1034 2.363 1_565 S
O1052 C1026 1.283 . S
O1052 Eu1038 2.363 . S
O1053 C1027 1.283 . S
O1053 Eu1038 2.363 . S
O1054 C1028 1.283 . S
O1054 Eu1037 2.363 . S
O1055 C1029 1.283 . S
O1055 Eu1037 2.363 . S
O1056 C1024 1.283 . S
O1056 Eu1043 2.363 . S
O1057 C1022 1.283 . S
O1057 Eu1043 2.363 . S
O1058 C1025 1.283 . S
O1058 Eu1030 2.363 . S
O1059 C1023 1.283 . S
O1059 Eu1030 2.363 . S
O1060 C1019 1.283 . S
O1060 Eu1038 2.363 1_565 S
O1061 C1021 1.283 . S
O1061 Eu1038 2.363 . S
O1062 C1018 1.283 . S
O1062 Eu1037 2.363 1_565 S
O1063 C1020 1.283 . S
O1063 Eu1037 2.363 . S
O1064 C1029 1.283 . S
O1064 Eu1033 2.363 . S
O1065 C1027 1.283 . S
O1065 Eu1033 2.363 . S
O1066 C1028 1.283 . S
O1066 Eu1034 2.363 . S
O1067 C1026 1.283 . S
O1067 Eu1034 2.363 . S
C1068 C1069 1.369 . S
C1068 C1070 1.419 . S
C1068 H1072 0.930 . S
C1069 C1068 1.369 . S
C1069 C1078 1.429 . S
C1070 C1068 1.419 . S
C1070 C1071 1.363 . S
C1070 H1073 0.929 . S
C1071 C1070 1.363 . S
C1071 C1077 1.428 . S
H1072 C1068 0.930 . S
H1073 C1070 0.929 . S
S1074 N1075 1.613 . S
S1074 N1076 1.610 . S
N1075 S1074 1.613 . S
N1075 C1078 1.350 . S
N1076 S1074 1.610 . S
N1076 C1077 1.351 . S
C1077 C1071 1.428 . S
C1077 N1076 1.351 . S
C1077 C1078 1.434 . S
C1078 C1069 1.429 . S
C1078 N1075 1.350 . S
C1078 C1077 1.434 . S
C1079 C1080 1.369 . S
C1079 C1081 1.419 . S
C1079 H1083 0.930 . S
C1080 C1079 1.369 . S
C1080 C1089 1.429 . S
C1081 C1079 1.419 . S
C1081 C1082 1.363 . S
C1081 H1084 0.929 . S
C1082 C1081 1.363 . S
C1082 C1088 1.428 . S
H1083 C1079 0.930 . S
H1084 C1081 0.929 . S
S1085 N1086 1.613 . S
S1085 N1087 1.610 . S
N1086 S1085 1.613 . S
N1086 C1089 1.350 . S
N1087 S1085 1.610 . S
N1087 C1088 1.351 . S
C1088 C1082 1.428 . S
C1088 N1087 1.351 . S
C1088 C1089 1.434 . S
C1089 C1080 1.429 . S
C1089 N1086 1.350 . S
C1089 C1088 1.434 . S
C1090 C1091 1.369 . S
C1090 C1092 1.419 . S
C1090 H1094 0.930 . S
C1091 C1090 1.369 . S
C1091 C1100 1.429 . S
C1092 C1090 1.419 . S
C1092 C1093 1.363 . S
C1092 H1095 0.929 . S
C1093 C1092 1.363 . S
C1093 C1099 1.428 . S
H1094 C1090 0.930 . S
H1095 C1092 0.929 . S
S1096 N1097 1.613 . S
S1096 N1098 1.610 . S
N1097 S1096 1.613 . S
N1097 C1100 1.350 . S
N1098 S1096 1.610 . S
N1098 C1099 1.351 . S
C1099 C1093 1.428 . S
C1099 N1098 1.351 . S
C1099 C1100 1.434 . S
C1100 C1091 1.429 . S
C1100 N1097 1.350 . S
C1100 C1099 1.434 . S
C1101 C1102 1.369 . S
C1101 C1103 1.419 . S
C1101 H1105 0.930 . S
C1102 C1101 1.369 . S
C1102 C1111 1.429 . S
C1103 C1101 1.419 . S
C1103 C1104 1.363 . S
C1103 H1106 0.929 . S
C1104 C1103 1.363 . S
C1104 C1110 1.428 . S
H1105 C1101 0.930 . S
H1106 C1103 0.929 . S
S1107 N1108 1.613 . S
S1107 N1109 1.610 . S
N1108 S1107 1.613 . S
N1108 C1111 1.350 . S
N1109 S1107 1.610 . S
N1109 C1110 1.351 . S
C1110 C1104 1.428 . S
C1110 N1109 1.351 . S
C1110 C1111 1.434 . S
C1111 C1102 1.429 . S
C1111 N1108 1.350 . S
C1111 C1110 1.434 . S
C1112 C1113 1.369 . S
C1112 C1114 1.419 . S
C1112 H1116 0.930 . S
C1113 C1112 1.369 . S
C1113 C1122 1.429 . S
C1114 C1112 1.419 . S
C1114 C1115 1.363 . S
C1114 H1117 0.929 . S
C1115 C1114 1.363 . S
C1115 C1121 1.428 . S
H1116 C1112 0.930 . S
H1117 C1114 0.929 . S
S1118 N1119 1.613 . S
S1118 N1120 1.610 . S
N1119 S1118 1.613 . S
N1119 C1122 1.350 . S
N1120 S1118 1.610 . S
N1120 C1121 1.351 . S
C1121 C1115 1.428 . S
C1121 N1120 1.351 . S
C1121 C1122 1.434 . S
C1122 C1113 1.429 . S
C1122 N1119 1.350 . S
C1122 C1121 1.434 . S
C1123 C1124 1.369 . S
C1123 C1125 1.419 . S
C1123 H1127 0.930 . S
C1124 C1123 1.369 . S
C1124 C1133 1.429 . S
C1125 C1123 1.419 . S
C1125 C1126 1.363 . S
C1125 H1128 0.929 . S
C1126 C1125 1.363 . S
C1126 C1132 1.428 . S
H1127 C1123 0.930 . S
H1128 C1125 0.929 . S
S1129 N1130 1.613 . S
S1129 N1131 1.610 . S
N1130 S1129 1.613 . S
N1130 C1133 1.350 . S
N1131 S1129 1.610 . S
N1131 C1132 1.351 . S
C1132 C1126 1.428 . S
C1132 N1131 1.351 . S
C1132 C1133 1.434 . S
C1133 C1124 1.429 . S
C1133 N1130 1.350 . S
C1133 C1132 1.434 . S
C1134 C1135 1.369 . S
C1134 C1136 1.419 . S
C1134 H1138 0.930 . S
C1135 C1134 1.369 . S
C1135 C1144 1.429 . S
C1136 C1134 1.419 . S
C1136 C1137 1.363 . S
C1136 H1139 0.929 . S
C1137 C1136 1.363 . S
C1137 C1143 1.428 . S
H1138 C1134 0.930 . S
H1139 C1136 0.929 . S
S1140 N1141 1.613 . S
S1140 N1142 1.610 . S
N1141 S1140 1.613 . S
N1141 C1144 1.350 . S
N1142 S1140 1.610 . S
N1142 C1143 1.351 . S
C1143 C1137 1.428 . S
C1143 N1142 1.351 . S
C1143 C1144 1.434 . S
C1144 C1135 1.429 . S
C1144 N1141 1.350 . S
C1144 C1143 1.434 . S
C1145 C1146 1.369 . S
C1145 C1147 1.419 . S
C1145 H1149 0.930 . S
C1146 C1145 1.369 . S
C1146 C1155 1.429 . S
C1147 C1145 1.419 . S
C1147 C1148 1.363 . S
C1147 H1150 0.929 . S
C1148 C1147 1.363 . S
C1148 C1154 1.428 . S
H1149 C1145 0.930 . S
H1150 C1147 0.929 . S
S1151 N1152 1.613 . S
S1151 N1153 1.610 . S
N1152 S1151 1.613 . S
N1152 C1155 1.350 . S
N1153 S1151 1.610 . S
N1153 C1154 1.351 . S
C1154 C1148 1.428 . S
C1154 N1153 1.351 . S
C1154 C1155 1.434 . S
C1155 C1146 1.429 . S
C1155 N1152 1.350 . S
C1155 C1154 1.434 . S
C1156 C1157 1.369 . S
C1156 C1158 1.419 . S
C1156 H1160 0.930 . S
C1157 C1156 1.369 . S
C1157 C1166 1.429 . S
C1158 C1156 1.419 . S
C1158 C1159 1.363 . S
C1158 H1161 0.929 . S
C1159 C1158 1.363 . S
C1159 C1165 1.428 . S
H1160 C1156 0.930 . S
H1161 C1158 0.929 . S
S1162 N1163 1.613 . S
S1162 N1164 1.610 . S
N1163 S1162 1.613 . S
N1163 C1166 1.350 . S
N1164 S1162 1.610 . S
N1164 C1165 1.351 . S
C1165 C1159 1.428 . S
C1165 N1164 1.351 . S
C1165 C1166 1.434 . S
C1166 C1157 1.429 . S
C1166 N1163 1.350 . S
C1166 C1165 1.434 . S
C1167 C1168 1.369 . S
C1167 C1169 1.419 . S
C1167 H1171 0.930 . S
C1168 C1167 1.369 . S
C1168 C1177 1.429 . S
C1169 C1167 1.419 . S
C1169 C1170 1.363 . S
C1169 H1172 0.929 . S
C1170 C1169 1.363 . S
C1170 C1176 1.428 . S
H1171 C1167 0.930 . S
H1172 C1169 0.929 . S
S1173 N1174 1.613 . S
S1173 N1175 1.610 . S
N1174 S1173 1.613 . S
N1174 C1177 1.350 . S
N1175 S1173 1.610 . S
N1175 C1176 1.351 . S
C1176 C1170 1.428 . S
C1176 N1175 1.351 . S
C1176 C1177 1.434 . S
C1177 C1168 1.429 . S
C1177 N1174 1.350 . S
C1177 C1176 1.434 . S
C1178 C1179 1.369 . S
C1178 C1180 1.419 . S
C1178 H1182 0.930 . S
C1179 C1178 1.369 . S
C1179 C1188 1.429 . S
C1180 C1178 1.419 . S
C1180 C1181 1.363 . S
C1180 H1183 0.929 . S
C1181 C1180 1.363 . S
C1181 C1187 1.428 . S
H1182 C1178 0.930 . S
H1183 C1180 0.929 . S
S1184 N1185 1.613 . S
S1184 N1186 1.610 . S
N1185 S1184 1.613 . S
N1185 C1188 1.350 . S
N1186 S1184 1.610 . S
N1186 C1187 1.351 . S
C1187 C1181 1.428 . S
C1187 N1186 1.351 . S
C1187 C1188 1.434 . S
C1188 C1179 1.429 . S
C1188 N1185 1.350 . S
C1188 C1187 1.434 . S
C1189 C1190 1.369 . S
C1189 C1191 1.419 . S
C1189 H1193 0.930 . S
C1190 C1189 1.369 . S
C1190 C1199 1.429 . S
C1191 C1189 1.419 . S
C1191 C1192 1.363 . S
C1191 H1194 0.929 . S
C1192 C1191 1.363 . S
C1192 C1198 1.428 . S
H1193 C1189 0.930 . S
H1194 C1191 0.929 . S
S1195 N1196 1.613 . S
S1195 N1197 1.610 . S
N1196 S1195 1.613 . S
N1196 C1199 1.350 . S
N1197 S1195 1.610 . S
N1197 C1198 1.351 . S
C1198 C1192 1.428 . S
C1198 N1197 1.351 . S
C1198 C1199 1.434 . S
C1199 C1190 1.429 . S
C1199 N1196 1.350 . S
C1199 C1198 1.434 . S
C1200 C1201 1.372 . S
C1200 C1202 1.419 . S
C1200 H1204 0.930 . S
C1201 C1200 1.372 . S
C1201 C1210 1.426 1_554 S
C1202 C1200 1.419 . S
C1202 C1203 1.369 . S
C1202 H1205 0.929 . S
C1203 C1202 1.369 . S
C1203 C1209 1.423 1_554 S
H1204 C1200 0.930 . S
H1205 C1202 0.929 . S
S1206 N1207 1.613 . S
S1206 N1208 1.610 . S
N1207 S1206 1.613 . S
N1207 C1210 1.350 . S
N1208 S1206 1.610 . S
N1208 C1209 1.351 . S
C1209 C1203 1.423 1_556 S
C1209 N1208 1.351 . S
C1209 C1210 1.434 . S
C1210 C1201 1.426 1_556 S
C1210 N1207 1.350 . S
C1210 C1209 1.434 . S
C1211 C1212 1.370 . S
C1211 C1213 1.419 . S
C1211 H1215 0.930 . S
C1212 C1211 1.370 . S
C1212 C1221 1.428 1_554 S
C1213 C1211 1.419 . S
C1213 C1214 1.365 . S
C1213 H1216 0.929 . S
C1214 C1213 1.365 . S
C1214 C1220 1.426 1_554 S
H1215 C1211 0.930 . S
H1216 C1213 0.929 . S
S1217 N1218 1.613 . S
S1217 N1219 1.610 . S
N1218 S1217 1.613 . S
N1218 C1221 1.350 . S
N1219 S1217 1.610 . S
N1219 C1220 1.351 . S
C1220 C1214 1.426 1_556 S
C1220 N1219 1.351 . S
C1220 C1221 1.434 . S
C1221 C1212 1.428 1_556 S
C1221 N1218 1.350 . S
C1221 C1220 1.434 . S
C1222 C1223 1.357 1_556 S
C1222 C1224 1.419 . S
C1222 H1226 0.930 . S
C1223 C1222 1.357 1_554 S
C1223 C1232 1.442 . S
C1224 C1222 1.419 . S
C1224 C1225 1.352 1_556 S
C1224 H1227 0.929 . S
C1225 C1224 1.352 1_554 S
C1225 C1231 1.440 . S
H1226 C1222 0.930 . S
H1227 C1224 0.929 . S
S1228 N1229 1.613 . S
S1228 N1230 1.610 . S
N1229 S1228 1.613 . S
N1229 C1232 1.350 . S
N1230 S1228 1.610 . S
N1230 C1231 1.351 . S
C1231 C1225 1.440 . S
C1231 N1230 1.351 . S
C1231 C1232 1.434 . S
C1232 C1223 1.442 . S
C1232 N1229 1.350 . S
C1232 C1231 1.434 . S
C1233 C1234 1.366 . S
C1233 C1235 1.419 . S
C1233 H1237 0.930 . S
C1234 C1233 1.366 . S
C1234 C1243 1.432 1_554 S
C1235 C1233 1.419 . S
C1235 C1236 1.366 . S
C1235 H1238 0.929 . S
C1236 C1235 1.366 . S
C1236 C1242 1.426 1_554 S
H1237 C1233 0.930 . S
H1238 C1235 0.929 . S
S1239 N1240 1.613 . S
S1239 N1241 1.610 . S
N1240 S1239 1.613 . S
N1240 C1243 1.350 . S
N1241 S1239 1.610 . S
N1241 C1242 1.351 . S
C1242 C1236 1.426 1_556 S
C1242 N1241 1.351 . S
C1242 C1243 1.434 . S
C1243 C1234 1.432 1_556 S
C1243 N1240 1.350 . S
C1243 C1242 1.434 . S
C1244 C1245 1.369 . S
C1244 C1246 1.419 . S
C1244 H1248 0.930 . S
C1245 C1244 1.369 . S
C1245 C1254 1.429 1_455 S
C1246 C1244 1.419 . S
C1246 C1247 1.363 . S
C1246 H1249 0.929 . S
C1247 C1246 1.363 . S
C1247 C1253 1.428 1_455 S
H1248 C1244 0.930 . S
H1249 C1246 0.929 . S
S1250 N1251 1.613 . S
S1250 N1252 1.610 . S
N1251 S1250 1.613 . S
N1251 C1254 1.350 . S
N1252 S1250 1.610 . S
N1252 C1253 1.351 . S
C1253 C1247 1.428 1_655 S
C1253 N1252 1.351 . S
C1253 C1254 1.434 . S
C1254 C1245 1.429 1_655 S
C1254 N1251 1.350 . S
C1254 C1253 1.434 . S
C1255 C1256 1.369 1_565 S
C1255 C1257 1.419 . S
C1255 H1259 0.930 . S
C1256 C1255 1.369 1_545 S
C1256 C1265 1.429 . S
C1257 C1255 1.419 . S
C1257 C1258 1.363 1_565 S
C1257 H1260 0.929 . S
C1258 C1257 1.363 1_545 S
C1258 C1264 1.428 . S
H1259 C1255 0.930 . S
H1260 C1257 0.929 . S
S1261 N1262 1.613 . S
S1261 N1263 1.610 . S
N1262 S1261 1.613 . S
N1262 C1265 1.350 . S
N1263 S1261 1.610 . S
N1263 C1264 1.351 . S
C1264 C1258 1.428 . S
C1264 N1263 1.351 . S
C1264 C1265 1.434 . S
C1265 C1256 1.429 . S
C1265 N1262 1.350 . S
C1265 C1264 1.434 . S
C1266 C1267 1.369 . S
C1266 C1268 1.419 . S
C1266 H1270 0.930 . S
C1267 C1266 1.369 . S
C1267 C1276 1.429 1_455 S
C1268 C1266 1.419 . S
C1268 C1269 1.363 . S
C1268 H1271 0.929 . S
C1269 C1268 1.363 . S
C1269 C1275 1.428 1_455 S
H1270 C1266 0.930 . S
H1271 C1268 0.929 . S
S1272 N1273 1.613 . S
S1272 N1274 1.610 . S
N1273 S1272 1.613 . S
N1273 C1276 1.350 . S
N1274 S1272 1.610 . S
N1274 C1275 1.351 . S
C1275 C1269 1.428 1_655 S
C1275 N1274 1.351 . S
C1275 C1276 1.434 . S
C1276 C1267 1.429 1_655 S
C1276 N1273 1.350 . S
C1276 C1275 1.434 . S
C1277 C1278 1.369 . S
C1277 C1279 1.419 . S
C1277 H1281 0.930 . S
C1278 C1277 1.369 . S
C1278 C1287 1.429 1_545 S
C1279 C1277 1.419 . S
C1279 C1280 1.363 . S
C1279 H1282 0.929 . S
C1280 C1279 1.363 . S
C1280 C1286 1.428 1_545 S
H1281 C1277 0.930 . S
H1282 C1279 0.929 . S
S1283 N1284 1.613 . S
S1283 N1285 1.610 . S
N1284 S1283 1.613 . S
N1284 C1287 1.350 . S
N1285 S1283 1.610 . S
N1285 C1286 1.351 . S
C1286 C1280 1.428 1_565 S
C1286 N1285 1.351 . S
C1286 C1287 1.434 . S
C1287 C1278 1.429 1_565 S
C1287 N1284 1.350 . S
C1287 C1286 1.434 . S
C1288 C1289 1.369 . S
C1288 C1290 1.419 . S
C1288 H1292 0.930 . S
C1289 C1288 1.369 . S
C1289 C1298 1.429 1_455 S
C1290 C1288 1.419 . S
C1290 C1291 1.363 . S
C1290 H1293 0.929 . S
C1291 C1290 1.363 . S
C1291 C1297 1.428 1_455 S
H1292 C1288 0.930 . S
H1293 C1290 0.929 . S
S1294 N1295 1.613 . S
S1294 N1296 1.610 . S
N1295 S1294 1.613 . S
N1295 C1298 1.350 . S
N1296 S1294 1.610 . S
N1296 C1297 1.351 . S
C1297 C1291 1.428 1_655 S
C1297 N1296 1.351 . S
C1297 C1298 1.434 . S
C1298 C1289 1.429 1_655 S
C1298 N1295 1.350 . S
C1298 C1297 1.434 . S
C1299 C1300 1.369 . S
C1299 C1301 1.419 . S
C1299 H1303 0.930 . S
C1300 C1299 1.369 . S
C1300 C1309 1.429 1_545 S
C1301 C1299 1.419 . S
C1301 C1302 1.363 . S
C1301 H1304 0.929 . S
C1302 C1301 1.363 . S
C1302 C1308 1.428 1_545 S
H1303 C1299 0.930 . S
H1304 C1301 0.929 . S
S1305 N1306 1.613 . S
S1305 N1307 1.610 . S
N1306 S1305 1.613 . S
N1306 C1309 1.350 . S
N1307 S1305 1.610 . S
N1307 C1308 1.351 . S
C1308 C1302 1.428 1_565 S
C1308 N1307 1.351 . S
C1308 C1309 1.434 . S
C1309 C1300 1.429 1_565 S
C1309 N1306 1.350 . S
C1309 C1308 1.434 . S
C1310 C1311 1.369 1_655 S
C1310 C1312 1.419 . S
C1310 H1314 0.930 . S
C1311 C1310 1.369 1_455 S
C1311 C1320 1.429 . S
C1312 C1310 1.419 . S
C1312 C1313 1.363 1_655 S
C1312 H1315 0.929 . S
C1313 C1312 1.363 1_455 S
C1313 C1319 1.428 . S
H1314 C1310 0.930 . S
H1315 C1312 0.929 . S
S1316 N1317 1.613 . S
S1316 N1318 1.610 . S
N1317 S1316 1.613 . S
N1317 C1320 1.350 . S
N1318 S1316 1.610 . S
N1318 C1319 1.351 . S
C1319 C1313 1.428 . S
C1319 N1318 1.351 . S
C1319 C1320 1.434 . S
C1320 C1311 1.429 . S
C1320 N1317 1.350 . S
C1320 C1319 1.434 . S
C1321 C1322 1.369 1_565 S
C1321 C1323 1.419 . S
C1321 H1325 0.930 . S
C1322 C1321 1.369 1_545 S
C1322 C1331 1.429 . S
C1323 C1321 1.419 . S
C1323 C1324 1.363 1_565 S
C1323 H1326 0.929 . S
C1324 C1323 1.363 1_545 S
C1324 C1330 1.428 . S
H1325 C1321 0.930 . S
H1326 C1323 0.929 . S
S1327 N1328 1.613 . S
S1327 N1329 1.610 . S
N1328 S1327 1.613 . S
N1328 C1331 1.350 . S
N1329 S1327 1.610 . S
N1329 C1330 1.351 . S
C1330 C1324 1.428 . S
C1330 N1329 1.351 . S
C1330 C1331 1.434 . S
C1331 C1322 1.429 . S
C1331 N1328 1.350 . S
C1331 C1330 1.434 . S
C1332 C1333 1.369 . S
C1332 C1334 1.419 . S
C1332 H1336 0.930 . S
C1333 C1332 1.369 . S
C1333 C1342 1.429 1_455 S
C1334 C1332 1.419 . S
C1334 C1335 1.363 . S
C1334 H1337 0.929 . S
C1335 C1334 1.363 . S
C1335 C1341 1.428 1_455 S
H1336 C1332 0.930 . S
H1337 C1334 0.929 . S
S1338 N1339 1.613 . S
S1338 N1340 1.610 . S
N1339 S1338 1.613 . S
N1339 C1342 1.350 . S
N1340 S1338 1.610 . S
N1340 C1341 1.351 . S
C1341 C1335 1.428 1_655 S
C1341 N1340 1.351 . S
C1341 C1342 1.434 . S
C1342 C1333 1.429 1_655 S
C1342 N1339 1.350 . S
C1342 C1341 1.434 . S
C1343 C1344 1.396 . S
C1343 C1345 1.419 . S
C1343 H1347 0.930 . S
C1344 C1343 1.396 . S
C1344 C1353 1.402 1_545 S
C1345 C1343 1.419 . S
C1345 C1346 1.388 . S
C1345 H1348 0.929 . S
C1346 C1345 1.388 . S
C1346 C1352 1.404 1_545 S
H1347 C1343 0.930 . S
H1348 C1345 0.929 . S
S1349 N1350 1.613 . S
S1349 N1351 1.610 . S
N1350 S1349 1.613 . S
N1350 C1353 1.350 . S
N1351 S1349 1.610 . S
N1351 C1352 1.351 . S
C1352 C1346 1.404 1_565 S
C1352 N1351 1.351 . S
C1352 C1353 1.434 . S
C1353 C1344 1.402 1_565 S
C1353 N1350 1.350 . S
C1353 C1352 1.434 . S
C1354 C1355 1.369 . S
C1354 C1356 1.419 . S
C1354 H1358 0.930 . S
C1355 C1354 1.369 . S
C1355 C1364 1.429 1_455 S
C1356 C1354 1.419 . S
C1356 C1357 1.363 . S
C1356 H1359 0.929 . S
C1357 C1356 1.363 . S
C1357 C1363 1.428 1_455 S
H1358 C1354 0.930 . S
H1359 C1356 0.929 . S
S1360 N1361 1.613 . S
S1360 N1362 1.610 . S
N1361 S1360 1.613 . S
N1361 C1364 1.350 . S
N1362 S1360 1.610 . S
N1362 C1363 1.351 . S
C1363 C1357 1.428 1_655 S
C1363 N1362 1.351 . S
C1363 C1364 1.434 . S
C1364 C1355 1.429 1_655 S
C1364 N1361 1.350 . S
C1364 C1363 1.434 . S
C1365 C1366 1.369 1_565 S
C1365 C1367 1.419 . S
C1365 H1369 0.930 . S
C1366 C1365 1.369 1_545 S
C1366 C1375 1.429 . S
C1367 C1365 1.419 . S
C1367 C1368 1.363 1_565 S
C1367 H1370 0.929 . S
C1368 C1367 1.363 1_545 S
C1368 C1374 1.428 . S
H1369 C1365 0.930 . S
H1370 C1367 0.929 . S
S1371 N1372 1.613 . S
S1371 N1373 1.610 . S
N1372 S1371 1.613 . S
N1372 C1375 1.350 . S
N1373 S1371 1.610 . S
N1373 C1374 1.351 . S
C1374 C1368 1.428 . S
C1374 N1373 1.351 . S
C1374 C1375 1.434 . S
C1375 C1366 1.429 . S
C1375 N1372 1.350 . S
C1375 C1374 1.434 . S
C1376 C1377 1.366 1_655 S
C1376 C1378 1.418 . S
C1376 H1380 0.934 . S
C1377 C1376 1.366 1_455 S
C1377 C1386 1.429 . S
C1378 C1376 1.418 . S
C1378 C1379 1.362 1_655 S
C1378 H1381 0.930 . S
C1379 C1378 1.362 1_455 S
C1379 C1385 1.428 . S
H1380 C1376 0.934 . S
H1381 C1378 0.930 . S
S1382 N1383 1.613 . S
S1382 N1384 1.610 . S
N1383 S1382 1.613 . S
N1383 C1386 1.350 . S
N1384 S1382 1.610 . S
N1384 C1385 1.351 . S
C1385 C1379 1.428 . S
C1385 N1384 1.351 . S
C1385 C1386 1.434 . S
C1386 C1377 1.429 . S
C1386 N1383 1.350 . S
C1386 C1385 1.434 . S
C1387 C1388 1.369 1_565 S
C1387 C1389 1.419 . S
C1387 H1391 0.930 . S
C1388 C1387 1.369 1_545 S
C1388 C1397 1.429 . S
C1389 C1387 1.419 . S
C1389 C1390 1.363 1_565 S
C1389 H1392 0.929 . S
C1390 C1389 1.363 1_545 S
C1390 C1396 1.428 . S
H1391 C1387 0.930 . S
H1392 C1389 0.929 . S
S1393 N1394 1.613 . S
S1393 N1395 1.610 . S
N1394 S1393 1.613 . S
N1394 C1397 1.350 . S
N1395 S1393 1.610 . S
N1395 C1396 1.351 . S
C1396 C1390 1.428 . S
C1396 N1395 1.351 . S
C1396 C1397 1.434 . S
C1397 C1388 1.429 . S
C1397 N1394 1.350 . S
C1397 C1396 1.434 . S
C1398 C1399 1.371 . S
C1398 C1400 1.419 . S
C1398 H1402 0.928 1_455 S
C1399 C1398 1.371 . S
C1399 C1408 1.429 . S
C1400 C1398 1.419 . S
C1400 C1401 1.365 . S
C1400 H1403 0.928 1_455 S
C1401 C1400 1.365 . S
C1401 C1407 1.428 . S
H1402 C1398 0.928 1_655 S
H1403 C1400 0.928 1_655 S
S1404 N1405 1.613 . S
S1404 N1406 1.610 . S
N1405 S1404 1.613 . S
N1405 C1408 1.350 . S
N1406 S1404 1.610 . S
N1406 C1407 1.351 . S
C1407 C1401 1.428 . S
C1407 N1406 1.351 . S
C1407 C1408 1.434 . S
C1408 C1399 1.429 . S
C1408 N1405 1.350 . S
C1408 C1407 1.434 . S
C1409 C1410 1.388 . S
C1409 C1411 1.419 . S
C1409 H1413 0.930 . S
C1410 C1409 1.388 . S
C1410 C1419 1.409 1_545 S
C1411 C1409 1.419 . S
C1411 C1412 1.381 . S
C1411 H1414 0.929 . S
C1412 C1411 1.381 . S
C1412 C1418 1.410 1_545 S
H1413 C1409 0.930 . S
H1414 C1411 0.929 . S
S1415 N1416 1.613 . S
S1415 N1417 1.610 . S
N1416 S1415 1.613 . S
N1416 C1419 1.350 . S
N1417 S1415 1.610 . S
N1417 C1418 1.351 . S
C1418 C1412 1.410 1_565 S
C1418 N1417 1.351 . S
C1418 C1419 1.434 . S
C1419 C1410 1.409 1_565 S
C1419 N1416 1.350 . S
C1419 C1418 1.434 . S
C1420 C1421 1.369 1_565 S
C1420 C1422 1.419 . S
C1420 H1424 0.930 . S
C1421 C1420 1.369 1_545 S
C1421 C1430 1.429 . S
C1422 C1420 1.419 . S
C1422 C1423 1.363 1_565 S
C1422 H1425 0.929 . S
C1423 C1422 1.363 1_545 S
C1423 C1429 1.428 . S
H1424 C1420 0.930 . S
H1425 C1422 0.929 . S
S1426 N1427 1.613 . S
S1426 N1428 1.610 . S
N1427 S1426 1.613 . S
N1427 C1430 1.350 . S
N1428 S1426 1.610 . S
N1428 C1429 1.351 . S
C1429 C1423 1.428 . S
C1429 N1428 1.351 . S
C1429 C1430 1.434 . S
C1430 C1421 1.429 . S
C1430 N1427 1.350 . S
C1430 C1429 1.434 . S
C1431 C1432 1.369 1_655 S
C1431 C1433 1.419 . S
C1431 H1435 0.930 . S
C1432 C1431 1.369 1_455 S
C1432 C1441 1.429 . S
C1433 C1431 1.419 . S
C1433 C1434 1.363 1_655 S
C1433 H1436 0.929 . S
C1434 C1433 1.363 1_455 S
C1434 C1440 1.428 . S
H1435 C1431 0.930 . S
H1436 C1433 0.929 . S
S1437 N1438 1.613 . S
S1437 N1439 1.610 . S
N1438 S1437 1.613 . S
N1438 C1441 1.350 . S
N1439 S1437 1.610 . S
N1439 C1440 1.351 . S
C1440 C1434 1.428 . S
C1440 N1439 1.351 . S
C1440 C1441 1.434 . S
C1441 C1432 1.429 . S
C1441 N1438 1.350 . S
C1441 C1440 1.434 . S
C1442 C1443 1.369 1_565 S
C1442 C1444 1.419 . S
C1442 H1446 0.930 . S
C1443 C1442 1.369 1_545 S
C1443 C1452 1.429 . S
C1444 C1442 1.419 . S
C1444 C1445 1.363 1_565 S
C1444 H1447 0.929 . S
C1445 C1444 1.363 1_545 S
C1445 C1451 1.428 . S
H1446 C1442 0.930 . S
H1447 C1444 0.929 . S
S1448 N1449 1.613 . S
S1448 N1450 1.610 . S
N1449 S1448 1.613 . S
N1449 C1452 1.350 . S
N1450 S1448 1.610 . S
N1450 C1451 1.351 . S
C1451 C1445 1.428 . S
C1451 N1450 1.351 . S
C1451 C1452 1.434 . S
C1452 C1443 1.429 . S
C1452 N1449 1.350 . S
C1452 C1451 1.434 . S
C1453 C1454 1.369 1_655 S
C1453 C1455 1.419 . S
C1453 H1457 0.930 . S
C1454 C1453 1.369 1_455 S
C1454 C1463 1.429 . S
C1455 C1453 1.419 . S
C1455 C1456 1.363 1_655 S
C1455 H1458 0.929 . S
C1456 C1455 1.363 1_455 S
C1456 C1462 1.428 . S
H1457 C1453 0.930 . S
H1458 C1455 0.929 . S
S1459 N1460 1.613 . S
S1459 N1461 1.610 . S
N1460 S1459 1.613 . S
N1460 C1463 1.350 . S
N1461 S1459 1.610 . S
N1461 C1462 1.351 . S
C1462 C1456 1.428 . S
C1462 N1461 1.351 . S
C1462 C1463 1.434 . S
C1463 C1454 1.429 . S
C1463 N1460 1.350 . S
C1463 C1462 1.434 . S
C1464 C1465 1.369 1_565 S
C1464 C1466 1.419 . S
C1464 H1468 0.930 . S
C1465 C1464 1.369 1_545 S
C1465 C1474 1.429 . S
C1466 C1464 1.419 . S
C1466 C1467 1.363 1_565 S
C1466 H1469 0.929 . S
C1467 C1466 1.363 1_545 S
C1467 C1473 1.428 . S
H1468 C1464 0.930 . S
H1469 C1466 0.929 . S
S1470 N1471 1.613 . S
S1470 N1472 1.610 . S
N1471 S1470 1.613 . S
N1471 C1474 1.350 . S
N1472 S1470 1.610 . S
N1472 C1473 1.351 . S
C1473 C1467 1.428 . S
C1473 N1472 1.351 . S
C1473 C1474 1.434 . S
C1474 C1465 1.429 . S
C1474 N1471 1.350 . S
C1474 C1473 1.434 . S
C1475 C1476 1.369 . S
C1475 C1477 1.419 . S
C1475 H1479 0.930 . S
C1476 C1475 1.369 . S
C1476 C1485 1.429 1_455 S
C1477 C1475 1.419 . S
C1477 C1478 1.363 . S
C1477 H1480 0.929 . S
C1478 C1477 1.363 . S
C1478 C1484 1.428 1_455 S
H1479 C1475 0.930 . S
H1480 C1477 0.929 . S
S1481 N1482 1.613 . S
S1481 N1483 1.610 . S
N1482 S1481 1.613 . S
N1482 C1485 1.350 . S
N1483 S1481 1.610 . S
N1483 C1484 1.351 . S
C1484 C1478 1.428 1_655 S
C1484 N1483 1.351 . S
C1484 C1485 1.434 . S
C1485 C1476 1.429 1_655 S
C1485 N1482 1.350 . S
C1485 C1484 1.434 . S
C1486 C1487 1.369 1_565 S
C1486 C1488 1.419 . S
C1486 H1490 0.930 . S
C1487 C1486 1.369 1_545 S
C1487 C1496 1.429 . S
C1488 C1486 1.419 . S
C1488 C1489 1.363 1_565 S
C1488 H1491 0.929 . S
C1489 C1488 1.363 1_545 S
C1489 C1495 1.428 . S
H1490 C1486 0.930 . S
H1491 C1488 0.929 . S
S1492 N1493 1.613 . S
S1492 N1494 1.610 . S
N1493 S1492 1.613 . S
N1493 C1496 1.350 . S
N1494 S1492 1.610 . S
N1494 C1495 1.351 . S
C1495 C1489 1.428 . S
C1495 N1494 1.351 . S
C1495 C1496 1.434 . S
C1496 C1487 1.429 . S
C1496 N1493 1.350 . S
C1496 C1495 1.434 . S
C1497 C1498 1.369 . S
C1497 C1499 1.419 . S
C1497 H1501 0.930 . S
C1498 C1497 1.369 . S
C1498 C1507 1.428 1_455 S
C1499 C1497 1.419 . S
C1499 C1500 1.363 . S
C1499 H1502 0.929 . S
C1500 C1499 1.363 . S
C1500 C1506 1.427 1_455 S
H1501 C1497 0.930 . S
H1502 C1499 0.929 . S
S1503 N1504 1.613 . S
S1503 N1505 1.610 . S
N1504 S1503 1.613 . S
N1504 C1507 1.350 . S
N1505 S1503 1.610 . S
N1505 C1506 1.352 . S
C1506 C1500 1.427 1_655 S
C1506 N1505 1.352 . S
C1506 C1507 1.434 . S
C1507 C1498 1.428 1_655 S
C1507 N1504 1.350 . S
C1507 C1506 1.434 . S
C1508 C1509 1.371 1_554 S
C1508 C1510 1.419 . S
C1508 H1512 0.930 . S
C1509 C1508 1.371 1_556 S
C1509 C1518 1.427 . S
C1510 C1508 1.419 . S
C1510 C1511 1.363 . S
C1510 H1513 0.929 . S
C1511 C1510 1.363 . S
C1511 C1517 1.429 1_554 S
H1512 C1508 0.930 . S
H1513 C1510 0.929 . S
S1514 N1515 1.613 . S
S1514 N1516 1.610 . S
N1515 S1514 1.613 . S
N1515 C1518 1.350 . S
N1516 S1514 1.610 . S
N1516 C1517 1.351 . S
C1517 C1511 1.429 1_556 S
C1517 N1516 1.351 . S
C1517 C1518 1.434 . S
C1518 C1509 1.427 . S
C1518 N1515 1.350 . S
C1518 C1517 1.434 . S
C1519 C1520 1.371 1_554 S
C1519 C1521 1.419 . S
C1519 H1523 0.930 . S
C1520 C1519 1.371 1_556 S
C1520 C1529 1.426 . S
C1521 C1519 1.419 . S
C1521 C1522 1.362 . S
C1521 H1524 0.929 . S
C1522 C1521 1.362 . S
C1522 C1528 1.429 1_554 S
H1523 C1519 0.930 . S
H1524 C1521 0.929 . S
S1525 N1526 1.613 . S
S1525 N1527 1.610 . S
N1526 S1525 1.613 . S
N1526 C1529 1.350 . S
N1527 S1525 1.610 . S
N1527 C1528 1.351 . S
C1528 C1522 1.429 1_556 S
C1528 N1527 1.351 . S
C1528 C1529 1.434 . S
C1529 C1520 1.426 . S
C1529 N1526 1.350 . S
C1529 C1528 1.434 . S
C1530 C1531 1.367 1_556 S
C1530 C1532 1.419 . S
C1530 H1534 0.930 . S
C1531 C1530 1.367 1_554 S
C1531 C1540 1.431 . S
C1532 C1530 1.419 . S
C1532 C1533 1.362 1_556 S
C1532 H1535 0.929 . S
C1533 C1532 1.362 1_554 S
C1533 C1539 1.430 . S
H1534 C1530 0.930 . S
H1535 C1532 0.929 . S
S1536 N1537 1.613 . S
S1536 N1538 1.610 . S
N1537 S1536 1.613 . S
N1537 C1540 1.350 . S
N1538 S1536 1.610 . S
N1538 C1539 1.351 . S
C1539 C1533 1.430 . S
C1539 N1538 1.351 . S
C1539 C1540 1.434 . S
C1540 C1531 1.431 . S
C1540 N1537 1.350 . S
C1540 C1539 1.434 . S
C1541 C1542 1.347 1_556 S
C1541 C1543 1.419 . S
C1541 H1545 0.930 . S
C1542 C1541 1.347 1_554 S
C1542 C1551 1.451 . S
C1543 C1541 1.419 . S
C1543 C1544 1.343 1_556 S
C1543 H1546 0.929 . S
C1544 C1543 1.343 1_554 S
C1544 C1550 1.449 . S
H1545 C1541 0.930 . S
H1546 C1543 0.929 . S
S1547 N1548 1.613 . S
S1547 N1549 1.610 . S
N1548 S1547 1.613 . S
N1548 C1551 1.350 . S
N1549 S1547 1.610 . S
N1549 C1550 1.351 . S
C1550 C1544 1.449 . S
C1550 N1549 1.351 . S
C1550 C1551 1.434 . S
C1551 C1542 1.451 . S
C1551 N1548 1.350 . S
C1551 C1550 1.434 . S
C1552 C1553 1.369 . S
C1552 C1554 1.419 . S
C1552 H1556 0.930 . S
C1553 C1552 1.369 . S
C1553 C1562 1.428 1_554 S
C1554 C1552 1.419 . S
C1554 C1555 1.363 . S
C1554 H1557 0.929 . S
C1555 C1554 1.363 . S
C1555 C1561 1.428 1_554 S
H1556 C1552 0.930 . S
H1557 C1554 0.929 . S
S1558 N1559 1.613 . S
S1558 N1560 1.610 . S
N1559 S1558 1.613 . S
N1559 C1562 1.349 1_554 S
N1560 S1558 1.610 . S
N1560 C1561 1.351 1_554 S
C1561 C1555 1.428 1_556 S
C1561 N1560 1.351 1_556 S
C1561 C1562 1.434 . S
C1562 C1553 1.428 1_556 S
C1562 N1559 1.349 1_556 S
C1562 C1561 1.434 . S
C1563 C1564 1.368 . S
C1563 C1565 1.419 . S
C1563 H1567 0.930 . S
C1564 C1563 1.368 . S
C1564 C1573 1.430 1_554 S
C1565 C1563 1.419 . S
C1565 C1566 1.365 . S
C1565 H1568 0.929 . S
C1566 C1565 1.365 . S
C1566 C1572 1.427 1_554 S
H1567 C1563 0.930 . S
H1568 C1565 0.929 . S
S1569 N1570 1.613 . S
S1569 N1571 1.610 . S
N1570 S1569 1.613 . S
N1570 C1573 1.350 . S
N1571 S1569 1.610 . S
N1571 C1572 1.351 . S
C1572 C1566 1.427 1_556 S
C1572 N1571 1.351 . S
C1572 C1573 1.434 . S
C1573 C1564 1.430 1_556 S
C1573 N1570 1.350 . S
C1573 C1572 1.434 . S
C1574 C1575 1.368 1_556 S
C1574 C1576 1.419 . S
C1574 H1578 0.930 . S
C1575 C1574 1.368 1_554 S
C1575 C1584 1.429 . S
C1576 C1574 1.419 . S
C1576 C1577 1.363 1_556 S
C1576 H1579 0.929 . S
C1577 C1576 1.363 1_554 S
C1577 C1583 1.428 . S
H1578 C1574 0.930 . S
H1579 C1576 0.929 . S
S1580 N1581 1.613 . S
S1580 N1582 1.610 . S
N1581 S1580 1.613 . S
N1581 C1584 1.350 . S
N1582 S1580 1.610 . S
N1582 C1583 1.351 . S
C1583 C1577 1.428 . S
C1583 N1582 1.351 . S
C1583 C1584 1.434 . S
C1584 C1575 1.429 . S
C1584 N1581 1.350 . S
C1584 C1583 1.434 . S
C1585 C1586 1.353 1_556 S
C1585 C1587 1.419 . S
C1585 H1589 0.930 . S
C1586 C1585 1.353 1_554 S
C1586 C1595 1.446 . S
C1587 C1585 1.419 . S
C1587 C1588 1.352 1_556 S
C1587 H1590 0.929 . S
C1588 C1587 1.352 1_554 S
C1588 C1594 1.440 . S
H1589 C1585 0.930 . S
H1590 C1587 0.929 . S
S1591 N1592 1.613 . S
S1591 N1593 1.610 . S
N1592 S1591 1.613 . S
N1592 C1595 1.350 . S
N1593 S1591 1.610 . S
N1593 C1594 1.351 . S
C1594 C1588 1.440 . S
C1594 N1593 1.351 . S
C1594 C1595 1.434 . S
C1595 C1586 1.446 . S
C1595 N1592 1.350 . S
C1595 C1594 1.434 . S
C1596 C1597 1.369 . S
C1596 C1598 1.419 . S
C1596 H1600 0.930 . S
C1597 C1596 1.369 . S
C1597 C1606 1.429 . S
C1598 C1596 1.419 . S
C1598 C1599 1.363 . S
C1598 H1601 0.929 . S
C1599 C1598 1.363 . S
C1599 C1605 1.428 . S
H1600 C1596 0.930 . S
H1601 C1598 0.929 . S
S1602 N1603 1.613 . S
S1602 N1604 1.610 . S
N1603 S1602 1.613 . S
N1603 C1606 1.350 . S
N1604 S1602 1.610 . S
N1604 C1605 1.351 . S
C1605 C1599 1.428 . S
C1605 N1604 1.351 . S
C1605 C1606 1.434 . S
C1606 C1597 1.429 . S
C1606 N1603 1.350 . S
C1606 C1605 1.434 . S
C1607 C1608 1.369 . S
C1607 C1609 1.419 . S
C1607 H1611 0.930 . S
C1608 C1607 1.369 . S
C1608 C1617 1.429 . S
C1609 C1607 1.419 . S
C1609 C1610 1.363 . S
C1609 H1612 0.929 . S
C1610 C1609 1.363 . S
C1610 C1616 1.428 . S
H1611 C1607 0.930 . S
H1612 C1609 0.929 . S
S1613 N1614 1.613 . S
S1613 N1615 1.610 . S
N1614 S1613 1.613 . S
N1614 C1617 1.350 . S
N1615 S1613 1.610 . S
N1615 C1616 1.351 . S
C1616 C1610 1.428 . S
C1616 N1615 1.351 . S
C1616 C1617 1.434 . S
C1617 C1608 1.429 . S
C1617 N1614 1.350 . S
C1617 C1616 1.434 . S
C1618 C1619 1.369 . S
C1618 C1620 1.419 . S
C1618 H1622 0.930 . S
C1619 C1618 1.369 . S
C1619 C1628 1.429 . S
C1620 C1618 1.419 . S
C1620 C1621 1.363 . S
C1620 H1623 0.929 . S
C1621 C1620 1.363 . S
C1621 C1627 1.428 . S
H1622 C1618 0.930 . S
H1623 C1620 0.929 . S
S1624 N1625 1.613 . S
S1624 N1626 1.610 . S
N1625 S1624 1.613 . S
N1625 C1628 1.350 . S
N1626 S1624 1.610 . S
N1626 C1627 1.351 . S
C1627 C1621 1.428 . S
C1627 N1626 1.351 . S
C1627 C1628 1.434 . S
C1628 C1619 1.429 . S
C1628 N1625 1.350 . S
C1628 C1627 1.434 . S
C1629 C1630 1.369 . S
C1629 C1631 1.419 . S
C1629 H1633 0.930 . S
C1630 C1629 1.369 . S
C1630 C1639 1.429 . S
C1631 C1629 1.419 . S
C1631 C1632 1.363 . S
C1631 H1634 0.929 . S
C1632 C1631 1.363 . S
C1632 C1638 1.428 . S
H1633 C1629 0.930 . S
H1634 C1631 0.929 . S
S1635 N1636 1.613 . S
S1635 N1637 1.610 . S
N1636 S1635 1.613 . S
N1636 C1639 1.350 . S
N1637 S1635 1.610 . S
N1637 C1638 1.351 . S
C1638 C1632 1.428 . S
C1638 N1637 1.351 . S
C1638 C1639 1.434 . S
C1639 C1630 1.429 . S
C1639 N1636 1.350 . S
C1639 C1638 1.434 . S
C1640 C1641 1.369 . S
C1640 C1642 1.419 . S
C1640 H1644 0.930 . S
C1641 C1640 1.369 . S
C1641 C1650 1.429 . S
C1642 C1640 1.419 . S
C1642 C1643 1.363 . S
C1642 H1645 0.929 . S
C1643 C1642 1.363 . S
C1643 C1649 1.428 . S
H1644 C1640 0.930 . S
H1645 C1642 0.929 . S
S1646 N1647 1.613 . S
S1646 N1648 1.610 . S
N1647 S1646 1.613 . S
N1647 C1650 1.350 . S
N1648 S1646 1.610 . S
N1648 C1649 1.351 . S
C1649 C1643 1.428 . S
C1649 N1648 1.351 . S
C1649 C1650 1.434 . S
C1650 C1641 1.429 . S
C1650 N1647 1.350 . S
C1650 C1649 1.434 . S
C1651 C1652 1.369 . S
C1651 C1653 1.419 . S
C1651 H1655 0.930 . S
C1652 C1651 1.369 . S
C1652 C1661 1.429 . S
C1653 C1651 1.419 . S
C1653 C1654 1.363 . S
C1653 H1656 0.929 . S
C1654 C1653 1.363 . S
C1654 C1660 1.428 . S
H1655 C1651 0.930 . S
H1656 C1653 0.929 . S
S1657 N1658 1.613 . S
S1657 N1659 1.610 . S
N1658 S1657 1.613 . S
N1658 C1661 1.350 . S
N1659 S1657 1.610 . S
N1659 C1660 1.351 . S
C1660 C1654 1.428 . S
C1660 N1659 1.351 . S
C1660 C1661 1.434 . S
C1661 C1652 1.429 . S
C1661 N1658 1.350 . S
C1661 C1660 1.434 . S
C1662 C1663 1.369 . S
C1662 C1664 1.419 . S
C1662 H1666 0.930 . S
C1663 C1662 1.369 . S
C1663 C1672 1.429 . S
C1664 C1662 1.419 . S
C1664 C1665 1.363 . S
C1664 H1667 0.929 . S
C1665 C1664 1.363 . S
C1665 C1671 1.428 . S
H1666 C1662 0.930 . S
H1667 C1664 0.929 . S
S1668 N1669 1.613 . S
S1668 N1670 1.610 . S
N1669 S1668 1.613 . S
N1669 C1672 1.350 . S
N1670 S1668 1.610 . S
N1670 C1671 1.351 . S
C1671 C1665 1.428 . S
C1671 N1670 1.351 . S
C1671 C1672 1.434 . S
C1672 C1663 1.429 . S
C1672 N1669 1.350 . S
C1672 C1671 1.434 . S
C1673 C1674 1.369 . S
C1673 C1675 1.419 . S
C1673 H1677 0.930 . S
C1674 C1673 1.369 . S
C1674 C1683 1.429 . S
C1675 C1673 1.419 . S
C1675 C1676 1.363 . S
C1675 H1678 0.929 . S
C1676 C1675 1.363 . S
C1676 C1682 1.428 . S
H1677 C1673 0.930 . S
H1678 C1675 0.929 . S
S1679 N1680 1.613 . S
S1679 N1681 1.610 . S
N1680 S1679 1.613 . S
N1680 C1683 1.350 . S
N1681 S1679 1.610 . S
N1681 C1682 1.351 . S
C1682 C1676 1.428 . S
C1682 N1681 1.351 . S
C1682 C1683 1.434 . S
C1683 C1674 1.429 . S
C1683 N1680 1.350 . S
C1683 C1682 1.434 . S
C1684 C1685 1.369 . S
C1684 C1686 1.419 . S
C1684 H1688 0.930 . S
C1685 C1684 1.369 . S
C1685 C1694 1.429 . S
C1686 C1684 1.419 . S
C1686 C1687 1.363 . S
C1686 H1689 0.929 . S
C1687 C1686 1.363 . S
C1687 C1693 1.428 . S
H1688 C1684 0.930 . S
H1689 C1686 0.929 . S
S1690 N1691 1.613 . S
S1690 N1692 1.610 . S
N1691 S1690 1.613 . S
N1691 C1694 1.350 . S
N1692 S1690 1.610 . S
N1692 C1693 1.351 . S
C1693 C1687 1.428 . S
C1693 N1692 1.351 . S
C1693 C1694 1.434 . S
C1694 C1685 1.429 . S
C1694 N1691 1.350 . S
C1694 C1693 1.434 . S
C1695 C1696 1.369 . S
C1695 C1697 1.419 . S
C1695 H1699 0.930 . S
C1696 C1695 1.369 . S
C1696 C1705 1.429 . S
C1697 C1695 1.419 . S
C1697 C1698 1.363 . S
C1697 H1700 0.929 . S
C1698 C1697 1.363 . S
C1698 C1704 1.428 . S
H1699 C1695 0.930 . S
H1700 C1697 0.929 . S
S1701 N1702 1.613 . S
S1701 N1703 1.610 . S
N1702 S1701 1.613 . S
N1702 C1705 1.350 . S
N1703 S1701 1.610 . S
N1703 C1704 1.351 . S
C1704 C1698 1.428 . S
C1704 N1703 1.351 . S
C1704 C1705 1.434 . S
C1705 C1696 1.429 . S
C1705 N1702 1.350 . S
C1705 C1704 1.434 . S
C1706 C1707 1.369 . S
C1706 C1708 1.419 . S
C1706 H1710 0.930 . S
C1707 C1706 1.369 . S
C1707 C1716 1.429 . S
C1708 C1706 1.419 . S
C1708 C1709 1.363 . S
C1708 H1711 0.929 . S
C1709 C1708 1.363 . S
C1709 C1715 1.428 . S
H1710 C1706 0.930 . S
H1711 C1708 0.929 . S
S1712 N1713 1.613 . S
S1712 N1714 1.610 . S
N1713 S1712 1.613 . S
N1713 C1716 1.350 . S
N1714 S1712 1.610 . S
N1714 C1715 1.351 . S
C1715 C1709 1.428 . S
C1715 N1714 1.351 . S
C1715 C1716 1.434 . S
C1716 C1707 1.429 . S
C1716 N1713 1.350 . S
C1716 C1715 1.434 . S
C1717 C1718 1.369 . S
C1717 C1719 1.419 . S
C1717 H1721 0.930 . S
C1718 C1717 1.369 . S
C1718 C1727 1.429 . S
C1719 C1717 1.419 . S
C1719 C1720 1.363 . S
C1719 H1722 0.929 . S
C1720 C1719 1.363 . S
C1720 C1726 1.428 . S
H1721 C1717 0.930 . S
H1722 C1719 0.929 . S
S1723 N1724 1.613 . S
S1723 N1725 1.610 . S
N1724 S1723 1.613 . S
N1724 C1727 1.350 . S
N1725 S1723 1.610 . S
N1725 C1726 1.351 . S
C1726 C1720 1.428 . S
C1726 N1725 1.351 . S
C1726 C1727 1.434 . S
C1727 C1718 1.429 . S
C1727 N1724 1.350 . S
C1727 C1726 1.434 . S
C1728 C1729 1.369 . S
C1728 C1730 1.419 . S
C1728 H1732 0.930 . S
C1729 C1728 1.369 . S
C1729 C1738 1.429 . S
C1730 C1728 1.419 . S
C1730 C1731 1.363 . S
C1730 H1733 0.929 . S
C1731 C1730 1.363 . S
C1731 C1737 1.428 . S
H1732 C1728 0.930 . S
H1733 C1730 0.929 . S
S1734 N1735 1.613 . S
S1734 N1736 1.610 . S
N1735 S1734 1.613 . S
N1735 C1738 1.350 . S
N1736 S1734 1.610 . S
N1736 C1737 1.351 . S
C1737 C1731 1.428 . S
C1737 N1736 1.351 . S
C1737 C1738 1.434 . S
C1738 C1729 1.429 . S
C1738 N1735 1.350 . S
C1738 C1737 1.434 . S
C1739 C1740 1.369 . S
C1739 C1741 1.419 . S
C1739 H1743 0.930 . S
C1740 C1739 1.369 . S
C1740 C1749 1.429 . S
C1741 C1739 1.419 . S
C1741 C1742 1.363 . S
C1741 H1744 0.929 . S
C1742 C1741 1.363 . S
C1742 C1748 1.428 . S
H1743 C1739 0.930 . S
H1744 C1741 0.929 . S
S1745 N1746 1.613 . S
S1745 N1747 1.610 . S
N1746 S1745 1.613 . S
N1746 C1749 1.350 . S
N1747 S1745 1.610 . S
N1747 C1748 1.351 . S
C1748 C1742 1.428 . S
C1748 N1747 1.351 . S
C1748 C1749 1.434 . S
C1749 C1740 1.429 . S
C1749 N1746 1.350 . S
C1749 C1748 1.434 . S
C1750 C1751 1.369 . S
C1750 C1752 1.419 . S
C1750 H1754 0.930 . S
C1751 C1750 1.369 . S
C1751 C1760 1.429 . S
C1752 C1750 1.419 . S
C1752 C1753 1.363 . S
C1752 H1755 0.929 . S
C1753 C1752 1.363 . S
C1753 C1759 1.428 . S
H1754 C1750 0.930 . S
H1755 C1752 0.929 . S
S1756 N1757 1.613 . S
S1756 N1758 1.610 . S
N1757 S1756 1.613 . S
N1757 C1760 1.350 . S
N1758 S1756 1.610 . S
N1758 C1759 1.351 . S
C1759 C1753 1.428 . S
C1759 N1758 1.351 . S
C1759 C1760 1.434 . S
C1760 C1751 1.429 . S
C1760 N1757 1.350 . S
C1760 C1759 1.434 . S
C1761 C1762 1.369 . S
C1761 C1763 1.419 . S
C1761 H1765 0.930 . S
C1762 C1761 1.369 . S
C1762 C1771 1.429 . S
C1763 C1761 1.419 . S
C1763 C1764 1.363 . S
C1763 H1766 0.929 . S
C1764 C1763 1.363 . S
C1764 C1770 1.428 . S
H1765 C1761 0.930 . S
H1766 C1763 0.929 . S
S1767 N1768 1.613 . S
S1767 N1769 1.610 . S
N1768 S1767 1.613 . S
N1768 C1771 1.350 . S
N1769 S1767 1.610 . S
N1769 C1770 1.351 . S
C1770 C1764 1.428 . S
C1770 N1769 1.351 . S
C1770 C1771 1.434 . S
C1771 C1762 1.429 . S
C1771 N1768 1.350 . S
C1771 C1770 1.434 . S
C1772 C1773 1.369 . S
C1772 C1774 1.419 . S
C1772 H1776 0.930 . S
C1773 C1772 1.369 . S
C1773 C1782 1.429 . S
C1774 C1772 1.419 . S
C1774 C1775 1.363 . S
C1774 H1777 0.929 . S
C1775 C1774 1.363 . S
C1775 C1781 1.428 . S
H1776 C1772 0.930 . S
H1777 C1774 0.929 . S
S1778 N1779 1.613 . S
S1778 N1780 1.610 . S
N1779 S1778 1.613 . S
N1779 C1782 1.350 . S
N1780 S1778 1.610 . S
N1780 C1781 1.351 . S
C1781 C1775 1.428 . S
C1781 N1780 1.351 . S
C1781 C1782 1.434 . S
C1782 C1773 1.429 . S
C1782 N1779 1.350 . S
C1782 C1781 1.434 . S
C1783 C1784 1.369 . S
C1783 C1785 1.419 . S
C1783 H1787 0.930 . S
C1784 C1783 1.369 . S
C1784 C1793 1.429 . S
C1785 C1783 1.419 . S
C1785 C1786 1.363 . S
C1785 H1788 0.929 . S
C1786 C1785 1.363 . S
C1786 C1792 1.428 . S
H1787 C1783 0.930 . S
H1788 C1785 0.929 . S
S1789 N1790 1.613 . S
S1789 N1791 1.610 . S
N1790 S1789 1.613 . S
N1790 C1793 1.350 . S
N1791 S1789 1.610 . S
N1791 C1792 1.351 . S
C1792 C1786 1.428 . S
C1792 N1791 1.351 . S
C1792 C1793 1.434 . S
C1793 C1784 1.429 . S
C1793 N1790 1.350 . S
C1793 C1792 1.434 . S
C1794 C1795 1.369 . S
C1794 C1796 1.419 . S
C1794 H1798 0.930 . S
C1795 C1794 1.369 . S
C1795 C1804 1.429 . S
C1796 C1794 1.419 . S
C1796 C1797 1.363 . S
C1796 H1799 0.929 . S
C1797 C1796 1.363 . S
C1797 C1803 1.428 . S
H1798 C1794 0.930 . S
H1799 C1796 0.929 . S
S1800 N1801 1.613 . S
S1800 N1802 1.610 . S
N1801 S1800 1.613 . S
N1801 C1804 1.350 . S
N1802 S1800 1.610 . S
N1802 C1803 1.351 . S
C1803 C1797 1.428 . S
C1803 N1802 1.351 . S
C1803 C1804 1.434 . S
C1804 C1795 1.429 . S
C1804 N1801 1.350 . S
C1804 C1803 1.434 . S
C1805 C1806 1.369 . S
C1805 C1807 1.419 . S
C1805 H1809 0.930 . S
C1806 C1805 1.369 . S
C1806 C1815 1.429 . S
C1807 C1805 1.419 . S
C1807 C1808 1.363 . S
C1807 H1810 0.929 . S
C1808 C1807 1.363 . S
C1808 C1814 1.428 . S
H1809 C1805 0.930 . S
H1810 C1807 0.929 . S
S1811 N1812 1.613 . S
S1811 N1813 1.610 . S
N1812 S1811 1.613 . S
N1812 C1815 1.350 . S
N1813 S1811 1.610 . S
N1813 C1814 1.351 . S
C1814 C1808 1.428 . S
C1814 N1813 1.351 . S
C1814 C1815 1.434 . S
C1815 C1806 1.429 . S
C1815 N1812 1.350 . S
C1815 C1814 1.434 . S
C1816 C1817 1.369 . S
C1816 C1818 1.419 . S
C1816 H1820 0.930 . S
C1817 C1816 1.369 . S
C1817 C1826 1.429 . S
C1818 C1816 1.419 . S
C1818 C1819 1.363 . S
C1818 H1821 0.929 . S
C1819 C1818 1.363 . S
C1819 C1825 1.428 . S
H1820 C1816 0.930 . S
H1821 C1818 0.929 . S
S1822 N1823 1.613 . S
S1822 N1824 1.610 . S
N1823 S1822 1.613 . S
N1823 C1826 1.350 . S
N1824 S1822 1.610 . S
N1824 C1825 1.351 . S
C1825 C1819 1.428 . S
C1825 N1824 1.351 . S
C1825 C1826 1.434 . S
C1826 C1817 1.429 . S
C1826 N1823 1.350 . S
C1826 C1825 1.434 . S
C1827 C1828 1.369 . S
C1827 C1829 1.419 . S
C1827 H1831 0.930 . S
C1828 C1827 1.369 . S
C1828 C1837 1.429 . S
C1829 C1827 1.419 . S
C1829 C1830 1.363 . S
C1829 H1832 0.929 . S
C1830 C1829 1.363 . S
C1830 C1836 1.428 . S
H1831 C1827 0.930 . S
H1832 C1829 0.929 . S
S1833 N1834 1.613 . S
S1833 N1835 1.610 . S
N1834 S1833 1.613 . S
N1834 C1837 1.350 . S
N1835 S1833 1.610 . S
N1835 C1836 1.351 . S
C1836 C1830 1.428 . S
C1836 N1835 1.351 . S
C1836 C1837 1.434 . S
C1837 C1828 1.429 . S
C1837 N1834 1.350 . S
C1837 C1836 1.434 . S
C1838 C1839 1.369 . S
C1838 C1840 1.419 . S
C1838 H1842 0.930 . S
C1839 C1838 1.369 . S
C1839 C1848 1.429 . S
C1840 C1838 1.419 . S
C1840 C1841 1.363 . S
C1840 H1843 0.929 . S
C1841 C1840 1.363 . S
C1841 C1847 1.428 . S
H1842 C1838 0.930 . S
H1843 C1840 0.929 . S
S1844 N1845 1.613 . S
S1844 N1846 1.610 . S
N1845 S1844 1.613 . S
N1845 C1848 1.350 . S
N1846 S1844 1.610 . S
N1846 C1847 1.351 . S
C1847 C1841 1.428 . S
C1847 N1846 1.351 . S
C1847 C1848 1.434 . S
C1848 C1839 1.429 . S
C1848 N1845 1.350 . S
C1848 C1847 1.434 . S
C1849 C1850 1.369 . S
C1849 C1851 1.419 . S
C1849 H1853 0.930 . S
C1850 C1849 1.369 . S
C1850 C1859 1.429 . S
C1851 C1849 1.419 . S
C1851 C1852 1.363 . S
C1851 H1854 0.929 . S
C1852 C1851 1.363 . S
C1852 C1858 1.428 . S
H1853 C1849 0.930 . S
H1854 C1851 0.929 . S
S1855 N1856 1.613 . S
S1855 N1857 1.610 . S
N1856 S1855 1.613 . S
N1856 C1859 1.350 . S
N1857 S1855 1.610 . S
N1857 C1858 1.351 . S
C1858 C1852 1.428 . S
C1858 N1857 1.351 . S
C1858 C1859 1.434 . S
C1859 C1850 1.429 . S
C1859 N1856 1.350 . S
C1859 C1858 1.434 . S
C1071 C774 1.222 . S
C1069 C765 1.199 . S
C1080 C701 1.208 . S
C1082 C772 1.237 . S
C1093 C773 1.229 . S
C1091 C669 1.202 . S
C1102 C733 1.193 . S
C1104 C775 1.214 . S
C1115 C819 1.223 . S
C1113 C541 1.199 . S
C1126 C879 1.205 . S
C1124 C573 1.184 . S
C1135 C605 1.203 . S
C1137 C818 1.230 . S
C1148 C878 1.230 . S
C1146 C637 1.202 . S
C1157 C413 1.199 . S
C1159 C820 1.222 . S
C1170 C876 1.229 . S
C1168 C445 1.206 . S
C1179 C477 1.189 . S
C1181 C821 1.214 . S
C1190 C509 1.181 . S
C1192 C877 1.204 . S
C1203 C927 1.217 . S
C1201 C381 1.193 . S
C1212 C317 1.210 1_554 S
C1214 C926 1.242 . S
C1223 C285 1.204 1_554 S
C1225 C928 1.233 . S
C1236 C929 1.208 . S
C1234 C349 1.180 1_554 S
C1245 C157 1.194 1_455 S
C1247 C970 1.218 . S
C1256 C189 1.181 1_545 S
C1258 C1029 1.206 . S
C1267 C221 1.198 . S
C1269 C968 1.226 . S
C1278 C253 1.198 . S
C1280 C1028 1.219 . S
C1291 C969 1.227 . S
C1289 C29 1.197 1_455 S
C1302 C1026 1.229 . S
C1300 C61 1.199 1_545 S
C1311 C93 1.190 . S
C1313 C971 1.219 . S
C1324 C1027 1.215 . S
C1322 C125 1.189 1_545 S
C1335 C771 1.864 . S
C1333 C23 1.718 1_455 S
C1344 C55 1.704 1_545 S
C1346 C777 1.855 . S
C1355 C87 1.720 . S
C1357 C769 1.857 . S
C1366 C113 1.714 1_545 S
C1368 C776 1.836 . S
C1377 C151 1.715 1_455 S
C1379 C768 1.861 . S
C1390 C778 1.846 . S
C1388 C183 1.708 1_545 S
C1399 C215 1.719 . S
C1401 C770 1.865 . S
C1412 C779 1.852 . S
C1410 C247 1.717 . S
C1423 C825 1.849 . S
C1421 C119 1.703 1_545 S
C1432 C17 1.726 1_455 S
C1434 C868 1.846 . S
C1445 C823 1.839 . S
C1443 C49 1.723 1_545 S
C1456 C870 1.843 . S
C1454 C81 1.729 . S
C1465 C177 1.718 1_545 S
C1467 C824 1.832 . S
C1478 C869 1.848 . S
C1476 C209 1.721 . S
C1489 C822 1.841 . S
C1487 C241 1.713 . S
C1500 C871 1.843 . S
C1498 C145 1.729 1_455 S
C1511 C875 1.867 . S
C1509 C279 1.724 . S
C1520 C305 1.738 . S
C1522 C874 1.858 . S
C1533 C826 1.854 . S
C1531 C273 1.739 1_554 S
C1544 C873 1.844 . S
C1542 C337 1.720 1_554 S
C1553 C375 1.728 . S
C1555 C829 1.861 . S
C1564 C369 1.724 . S
C1566 C872 1.849 . S
C1577 C828 1.867 . S
C1575 C311 1.733 1_554 S
C1588 C827 1.863 . S
C1586 C343 1.720 1_554 S
C1599 C921 1.861 . S
C1597 C407 1.722 . S
C1610 C924 1.852 . S
C1608 C439 1.714 . S
C1619 C471 1.710 . S
C1621 C920 1.858 . S
C1632 C922 1.834 . S
C1630 C497 1.712 . S
C1643 C918 1.856 . S
C1641 C535 1.723 . S
C1652 C561 1.715 . S
C1654 C923 1.835 . S
C1663 C599 1.724 . S
C1665 C919 1.861 . S
C1676 C925 1.852 . S
C1674 C631 1.714 . S
C1687 C979 1.847 . S
C1685 C503 1.702 . S
C1696 C401 1.718 . S
C1698 C1018 1.846 . S
C1709 C978 1.840 . S
C1707 C433 1.714 . S
C1720 C1020 1.844 . S
C1718 C465 1.719 . S
C1731 C977 1.847 . S
C1729 C567 1.698 . S
C1740 C593 1.732 . S
C1742 C1019 1.847 . S
C1753 C976 1.841 . S
C1751 C625 1.714 . S
C1764 C1021 1.846 . S
C1762 C529 1.731 . S
C1775 C1025 1.867 . S
C1773 C663 1.719 . S
C1784 C689 1.733 . S
C1786 C1024 1.857 . S
C1797 C972 1.857 . S
C1795 C657 1.733 . S
C1806 C721 1.721 . S
C1808 C1023 1.848 . S
C1819 C975 1.865 . S
C1817 C759 1.719 . S
C1830 C1022 1.848 . S
C1828 C753 1.734 . S
C1841 C973 1.871 . S
C1839 C695 1.724 . S
C1850 C727 1.720 . S
C1852 C974 1.864 . S
