# Generated by pormake.
# Topology sit, (3,6)-cn, num edge types: 1
# Building blocks:
#     Node 0, Type 0, BuildingBlock: BETDIP_clean_linker_0, # of connection points: 3
#     Node 1, Type 0, BuildingBlock: BETDIP_clean_linker_0, # of connection points: 3
#     Node 2, Type 0, BuildingBlock: BETDIP_clean_linker_0, # of connection points: 3
#     Node 3, Type 0, BuildingBlock: BETDIP_clean_linker_0, # of connection points: 3
#     Node 4, Type 1, BuildingBlock: MIDCAF_clean_sbu_0, # of connection points: 6
#     Node 5, Type 1, BuildingBlock: MIDCAF_clean_sbu_0, # of connection points: 6
#     Edge 6, Type (0, 1), BuildingBlock: TEMPAE_clean_linker_10, # of connection points: 2
#     Edge 7, Type (0, 1), BuildingBlock: TEMPAE_clean_linker_10, # of connection points: 2
#     Edge 8, Type (0, 1), BuildingBlock: TEMPAE_clean_linker_10, # of connection points: 2
#     Edge 9, Type (0, 1), BuildingBlock: TEMPAE_clean_linker_10, # of connection points: 2
#     Edge 10, Type (0, 1), BuildingBlock: TEMPAE_clean_linker_10, # of connection points: 2
#     Edge 11, Type (0, 1), BuildingBlock: TEMPAE_clean_linker_10, # of connection points: 2
#     Edge 12, Type (0, 1), BuildingBlock: TEMPAE_clean_linker_10, # of connection points: 2
#     Edge 13, Type (0, 1), BuildingBlock: TEMPAE_clean_linker_10, # of connection points: 2
#     Edge 14, Type (0, 1), BuildingBlock: TEMPAE_clean_linker_10, # of connection points: 2
#     Edge 15, Type (0, 1), BuildingBlock: TEMPAE_clean_linker_10, # of connection points: 2
#     Edge 16, Type (0, 1), BuildingBlock: TEMPAE_clean_linker_10, # of connection points: 2
#     Edge 17, Type (0, 1), BuildingBlock: TEMPAE_clean_linker_10, # of connection points: 2
# Relax obj value: 0.072
# Max RMSD: 0.181
# Mean RMSD: 0.111
data_MOF--net-sit--node1-MIDCAF_clean_sbu_0--node2-BETDIP_clean_linker_0--edge1-TEMPAE_clean_linker_10
_symmetry_space_group_name_H-M    P1
_symmetry_Int_Tables_number       1
_symmetry_cell_setting            triclinic
loop_
_symmetry_equiv_pos_as_xyz
'x, y, z'
_cell_length_a     21.381327
_cell_length_b     33.707759
_cell_length_c     38.115549
_cell_angle_alpha  90.119221
_cell_angle_beta   87.560715
_cell_angle_gamma 83.448205
loop_
_atom_site_label
_atom_site_type_symbol
_atom_site_fract_x
_atom_site_fract_y
_atom_site_fract_z
_atom_type_partial_charge
H0 H 0.98324 0.28285 0.00082 0.0
H1 H 0.1867 0.26777 -0.00456 0.0
H2 H 0.08525 0.35924 0.93541 0.0
H3 H 0.17681 0.23635 0.04535 0.0
C4 C 0.13318 0.22276 0.04587 0.0
C5 C 0.02762 0.29176 0.99066 0.0
C6 C 0.02779 0.32311 0.96644 0.0
C7 C 0.08456 0.27159 0.00169 0.0
C8 C 0.14214 0.28331 0.98817 0.0
C9 C 0.14257 0.31481 0.96413 0.0
C10 C 0.08526 0.33435 0.95341 0.0
N11 N 0.08198 0.23958 0.02594 0.0
H12 H 0.91258 0.75798 0.03013 0.0
H13 H 0.1079 0.73315 0.05452 0.0
H14 H 0.01692 0.64656 -0.00149 0.0
H15 H 0.91324 0.79897 0.08041 0.0
C16 C 0.95748 0.81161 0.0763 0.0
C17 C 0.95556 0.73764 0.03036 0.0
C18 C 0.9586 0.70052 0.01311 0.0
C19 C 0.0097 0.74933 0.04555 0.0
C20 C 0.06616 0.72355 0.04353 0.0
C21 C 0.0692 0.68599 0.02705 0.0
C22 C 0.01481 0.67476 0.01246 0.0
N23 N 0.01063 0.78772 0.0609 0.0
H24 H 0.48862 0.81777 0.53295 0.0
H25 H 0.69023 0.78927 0.52205 0.0
H26 H 0.60457 0.90121 0.48513 0.0
H27 H 0.67371 0.75425 0.57104 0.0
C28 C 0.63085 0.74087 0.56658 0.0
C29 C 0.53447 0.82612 0.52484 0.0
C30 C 0.5395 0.86331 0.50867 0.0
C31 C 0.58862 0.79962 0.53089 0.0
C32 C 0.6481 0.80994 0.51946 0.0
C33 C 0.65344 0.84696 0.50384 0.0
C34 C 0.59956 0.87347 0.49879 0.0
N35 N 0.58191 0.76273 0.54803 0.0
H36 H 0.43169 0.22456 0.55666 0.0
H37 H 0.63175 0.19421 0.56492 0.0
H38 H 0.52531 0.12156 0.50253 0.0
H39 H 0.62706 0.26236 0.57289 0.0
C40 C 0.58445 0.26945 0.58931 0.0
C41 C 0.47438 0.20475 0.55056 0.0
C42 C 0.47222 0.17125 0.52908 0.0
C43 C 0.53174 0.21357 0.56336 0.0
C44 C 0.58735 0.18807 0.55475 0.0
C45 C 0.58558 0.15435 0.53299 0.0
C46 C 0.52745 0.1462 0.52062 0.0
N47 N 0.53156 0.2482 0.58477 0.0
Zn48 Zn 0.02333 0.09815 0.34083 0.0
Zn49 Zn 0.12528 0.95339 0.33357 0.0
Zn50 Zn 0.07303 0.02525 0.3364 0.0
C51 C 0.09237 0.97161 0.2655 0.0
C52 C 0.01513 0.95309 0.37509 0.0
O53 O 0.13836 0.05807 0.36509 0.0
O54 O 0.08284 0.11693 0.3742 0.0
C55 C 0.05287 0.08425 0.26981 0.0
O56 O 0.0764 1.00626 0.27981 0.0
O57 O 0.11511 0.94294 0.28396 0.0
O58 O 0.06552 0.93084 0.36755 0.0
O59 O 0.00792 0.98941 0.36424 0.0
O60 O 0.03365 0.112 0.29123 0.0
O61 O 0.0677 0.0485 0.28126 0.0
O62 O 0.98169 0.02986 0.36766 0.0
O63 O 0.93804 0.09163 0.3596 0.0
C64 C 0.93527 0.05752 0.37265 0.0
O65 O 0.16428 0.01744 0.36412 0.0
O66 O 0.21044 0.95751 0.34891 0.0
C67 C 0.13191 0.09331 0.37893 0.0
C68 C 0.21145 0.98997 0.36516 0.0
Zn69 Zn 0.50642 0.60559 0.83729 0.0
Zn70 Zn 0.59868 0.39637 0.84148 0.0
Zn71 Zn 0.54668 0.53496 0.83843 0.0
C72 C 0.57161 0.46931 0.7866 0.0
C73 C 0.48795 0.46538 0.867 0.0
O74 O 0.6208 0.5601 0.86593 0.0
O75 O 0.57881 0.62282 0.86233 0.0
C76 C 0.52461 0.58287 0.76706 0.0
O77 O 0.5575 0.50728 0.78594 0.0
O78 O 0.57855 0.45358 0.81696 0.0
O79 O 0.54047 0.45054 0.85251 0.0
O80 O 0.47584 0.50339 0.86572 0.0
O81 O 0.50436 0.61243 0.78635 0.0
O82 O 0.54435 0.54934 0.78125 0.0
O83 O 0.45674 0.54363 0.87022 0.0
O84 O 0.42493 0.60778 0.8638 0.0
C85 C 0.4165 0.5744 0.87686 0.0
O86 O 0.63519 0.51699 0.86459 0.0
O87 O 0.6099 0.45818 0.85094 0.0
C88 C 0.6222 0.5974 0.87259 0.0
C89 C 0.64765 0.47893 0.86607 0.0
C90 C 0.16654 0.18731 0.10021 0.0
C91 C 0.12429 0.19233 0.07308 0.0
C92 C 0.15591 0.1623 0.12871 0.0
C93 C 0.10239 0.14104 0.12968 0.0
C94 C 0.06253 0.14339 0.10082 0.0
C95 C 0.07336 0.16953 0.07303 0.0
C96 C 0.19942 0.161 0.15897 0.0
C97 C 0.00665 0.11984 0.10016 0.0
C98 C 0.09655 0.07049 0.20763 0.0
C99 C 0.05917 0.09486 0.23209 0.0
C100 C 0.10733 0.08368 0.17303 0.0
C101 C 0.08248 0.12277 0.16334 0.0
C102 C 0.04286 0.14675 0.18761 0.0
C103 C 0.03097 0.13227 0.22128 0.0
C104 C 0.14756 0.05637 0.14757 0.0
C105 C 0.01587 0.18882 0.17882 0.0
H106 H 0.20634 0.20459 0.10006 0.0
H107 H 0.04131 0.17264 0.05168 0.0
H108 H 0.17355 0.17511 0.1825 0.0
H109 H 0.21564 0.12964 0.16572 0.0
H110 H 0.24138 0.17686 0.15304 0.0
H111 H -0.01204 0.11878 0.07346 0.0
H112 H 0.01963 0.08884 0.10927 0.0
H113 H 0.96844 0.13384 0.11828 0.0
H114 H 0.11923 0.04182 0.21573 0.0
H115 H 0.00132 0.15127 0.23975 0.0
H116 H 0.19702 0.06329 0.14789 0.0
H117 H 0.13158 0.06051 0.12036 0.0
H118 H 0.1468 0.02453 0.15491 0.0
H119 H 0.05477 0.2074 0.17336 0.0
H120 H -0.01523 0.20319 0.20044 0.0
H121 H -0.0117 0.18878 0.15484 0.0
C122 C 0.01096 0.87313 0.08434 0.0
C123 C 0.96769 0.84754 0.09659 0.0
C124 C 0.02752 0.9039 0.10584 0.0
C125 C 0.00275 0.90759 0.14089 0.0
C126 C 0.95579 0.88345 0.15241 0.0
C127 C 0.93796 0.85419 0.12979 0.0
C128 C 0.07433 0.9308 0.09173 0.0
C129 C 0.92844 0.88601 0.18963 0.0
C130 C 0.1099 0.92703 0.21348 0.0
C131 C 0.07918 0.96232 0.22868 0.0
C132 C 0.08746 0.91015 0.18365 0.0
C133 C 0.03445 0.92998 0.16742 0.0
C134 C 0.00802 0.96816 0.18 0.0
C135 C 0.02978 0.98354 0.21109 0.0
C136 C 0.11714 0.86922 0.17162 0.0
C137 C 0.95431 0.99172 0.16219 0.0
H138 H 0.03298 0.86849 0.05828 0.0
H139 H 0.90418 0.83449 0.13907 0.0
H140 H 0.06273 0.96167 0.10214 0.0
H141 H 0.12217 0.91956 0.10003 0.0
H142 H 0.07563 0.93165 0.06257 0.0
H143 H 0.89012 0.86665 0.19389 0.0
H144 H 0.96612 0.87675 0.20809 0.0
H145 H 0.90946 0.91722 0.19628 0.0
H146 H 0.14897 0.91081 0.22652 0.0
H147 H 0.00577 1.01088 0.22254 0.0
H148 H 0.13256 0.8698 0.14353 0.0
H149 H 0.08193 0.84751 0.17438 0.0
H150 H 0.15856 0.85815 0.18695 0.0
H151 H 0.95566 0.98517 0.1336 0.0
H152 H 0.95546 0.02431 0.16609 0.0
H153 H 0.90897 0.98391 0.17389 0.0
C154 C 0.64852 0.70032 0.62002 0.0
C155 C 0.61833 0.7062 0.58833 0.0
C156 C 0.63267 0.67083 0.64355 0.0
C157 C 0.58728 0.64543 0.63445 0.0
C158 C 0.56109 0.64886 0.60089 0.0
C159 C 0.57571 0.67998 0.57851 0.0
C160 C 0.66104 0.66902 0.67924 0.0
C161 C 0.51559 0.62102 0.58905 0.0
C162 C 0.57701 0.56954 0.70704 0.0
C163 C 0.52927 0.58989 0.72877 0.0
C164 C 0.59176 0.58455 0.67357 0.0
C165 C 0.55963 0.62131 0.66259 0.0
C166 C 0.50701 0.63925 0.68292 0.0
C167 C 0.49184 0.62282 0.71537 0.0
C168 C 0.64476 0.56269 0.65134 0.0
C169 C 0.47086 0.6783 0.67244 0.0
H170 H 0.68197 0.72044 0.62736 0.0
H171 H 0.55346 0.68392 0.55353 0.0
H172 H 0.62327 0.67574 0.7 0.0
H173 H 0.68441 0.63858 0.68407 0.0
H174 H 0.69624 0.69055 0.68192 0.0
H175 H 0.52058 0.61625 0.56017 0.0
H176 H 0.52283 0.5916 0.6022 0.0
H177 H 0.46661 0.63455 0.59524 0.0
H178 H 0.60569 0.54377 0.717 0.0
H179 H 0.4536 0.63799 0.73168 0.0
H180 H 0.6898 0.57394 0.65756 0.0
H181 H 0.63733 0.56737 0.62292 0.0
H182 H 0.64939 0.53014 0.65681 0.0
H183 H 0.50257 0.7022 0.67185 0.0
H184 H 0.43009 0.68766 0.69081 0.0
H185 H 0.45312 0.67578 0.64574 0.0
C186 C 0.52828 0.31203 0.6377 0.0
C187 C 0.58109 0.30302 0.61479 0.0
C188 C 0.52664 0.34243 0.6631 0.0
C189 C 0.57894 0.36443 0.66558 0.0
C190 C 0.63139 0.3564 0.64165 0.0
C191 C 0.63192 0.32566 0.61663 0.0
C192 C 0.46993 0.34991 0.68822 0.0
C193 C 0.68785 0.37936 0.64326 0.0
C194 C 0.55465 0.4586 0.72253 0.0
C195 C 0.57757 0.44402 0.75451 0.0
C196 C 0.55656 0.43347 0.69285 0.0
C197 C 0.58125 0.39277 0.69546 0.0
C198 C 0.60597 0.37831 0.72745 0.0
C199 C 0.60413 0.40412 0.75641 0.0
C200 C 0.5305 0.45019 0.65909 0.0
C201 C 0.63295 0.3352 0.73143 0.0
H202 H 0.48869 0.29476 0.6364 0.0
H203 H 0.67264 0.31888 0.5988 0.0
H204 H 0.48385 0.34193 0.71525 0.0
H205 H 0.45159 0.38206 0.68852 0.0
H206 H 0.43135 0.33226 0.68127 0.0
H207 H 0.72195 0.37227 0.62069 0.0
H208 H 0.67268 0.41196 0.64364 0.0
H209 H 0.7124 0.37209 0.66789 0.0
H210 H 0.53368 0.48931 0.72092 0.0
H211 H 0.62304 0.39274 0.78077 0.0
H212 H 0.48632 0.43726 0.6539 0.0
H213 H 0.56422 0.44182 0.63665 0.0
H214 H 0.52016 0.48325 0.6601 0.0
H215 H 0.59583 0.3154 0.7273 0.0
H216 H 0.65205 0.32901 0.75777 0.0
H217 H 0.67124 0.3272 0.71124 0.0
C218 C 0.24776 0.33792 0.9739 0.0
C219 C 0.20225 0.32883 0.95067 0.0
C220 C 0.2996 0.3571 0.96199 0.0
C221 C 0.30584 0.36721 0.92606 0.0
C222 C 0.26187 0.35604 0.90223 0.0
C223 C 0.21063 0.33697 0.91484 0.0
C224 C 0.34568 0.36844 0.98813 0.0
C225 C 0.26709 0.36602 0.86367 0.0
C226 C 0.38519 0.45769 0.89828 0.0
C227 C 0.44326 0.44016 0.88395 0.0
C228 C 0.34105 0.43436 0.91329 0.0
C229 C 0.35505 0.39229 0.91363 0.0
C230 C 0.41419 0.37437 0.89995 0.0
C231 C 0.45769 0.39856 0.88529 0.0
C232 C 0.27869 0.45478 0.92782 0.0
C233 C 0.43079 0.32962 0.89993 0.0
H234 H 0.24114 0.33187 0.00166 0.0
H235 H 0.17586 0.32947 0.89678 0.0
H236 H 0.39483 0.35942 0.97828 0.0
H237 H 0.34012 0.40136 0.99163 0.0
H238 H 0.33839 0.35452 0.01416 0.0
H239 H 0.23191 0.3525 0.84823 0.0
H240 H 0.25975 0.3989 0.86037 0.0
H241 H 0.31493 0.35547 0.8526 0.0
H242 H 0.37354 0.4897 0.89722 0.0
H243 H 0.50256 0.38476 0.87443 0.0
H244 H 0.26948 0.44494 0.95512 0.0
H245 H 0.24002 0.44625 0.91188 0.0
H246 H 0.27703 0.48786 0.92777 0.0
H247 H 0.42345 0.31767 0.9267 0.0
H248 H 0.48038 0.32058 0.89072 0.0
H249 H 0.39925 0.31552 0.88252 0.0
C250 C 0.84531 0.68895 0.00823 0.0
C251 C 0.90592 0.68891 -0.00719 0.0
C252 C 0.7976 0.67355 0.98988 0.0
C253 C 0.81122 0.65793 0.95547 0.0
C254 C 0.872 0.65879 0.9396 0.0
C255 C 0.91836 0.67453 0.95835 0.0
C256 C 0.73298 0.67348 0.00739 0.0
C257 C 0.88831 0.64274 0.90289 0.0
C258 C 0.70817 0.58637 0.91559 0.0
C259 C 0.67215 0.61182 0.89327 0.0
C260 C 0.7533 0.60098 0.93641 0.0
C261 C 0.76158 0.6421 0.93522 0.0
C262 C 0.72472 0.66796 0.91307 0.0
C263 C 0.68078 0.65248 0.89227 0.0
C264 C 0.7923 0.57244 0.95951 0.0
C265 C 0.73203 0.71198 0.91108 0.0
H266 H 0.83584 0.6999 0.03491 0.0
H267 H 0.96506 0.67504 0.94621 0.0
H268 H 0.69709 0.69022 0.9912 0.0
H269 H 0.7209 0.6424 0.00949 0.0
H270 H 0.72987 0.68705 0.03409 0.0
H271 H 0.93823 0.64501 0.89464 0.0
H272 H 0.87973 0.61094 0.90138 0.0
H273 H 0.85758 0.65941 0.88388 0.0
H274 H 0.70011 0.55531 0.91738 0.0
H275 H 0.6529 0.67244 0.87519 0.0
H276 H 0.7876 0.58317 0.98713 0.0
H277 H 0.84282 0.57122 0.95111 0.0
H278 H 0.77832 0.54171 0.9585 0.0
H279 H 0.72574 0.72567 0.93767 0.0
H280 H 0.69761 0.72835 0.89371 0.0
H281 H 0.78027 0.7161 0.90098 0.0
C282 C 0.95902 0.34789 0.91823 0.0
C283 C 0.96866 0.34486 0.95429 0.0
C284 C 0.90632 0.37125 0.90567 0.0
C285 C 0.86267 0.39266 0.92975 0.0
C286 C 0.87212 0.38964 0.96628 0.0
C287 C 0.92488 0.36542 0.97817 0.0
C288 C 0.89735 0.37296 0.86658 0.0
C289 C 0.82698 0.4124 -0.00731 0.0
C290 C 0.75589 0.4773 0.88972 0.0
C291 C 0.70156 0.45877 0.88466 0.0
C292 C 0.80802 0.45674 0.90579 0.0
C293 C 0.8058 0.41662 0.91648 0.0
C294 C 0.75043 0.39821 0.91208 0.0
C295 C 0.699 0.41957 0.89644 0.0
C296 C 0.86601 0.47754 0.91048 0.0
C297 C 0.74617 0.35542 0.92277 0.0
H298 H -0.0069 0.33199 0.89983 0.0
H299 H 0.933 0.36349 0.00603 0.0
H300 H 0.85168 0.36236 0.8606 0.0
H301 H 0.89581 0.40425 0.85741 0.0
H302 H 0.9356 0.35445 0.85141 0.0
H303 H 0.84157 0.40737 0.0201 0.0
H304 H 0.82383 0.44485 0.98713 0.0
H305 H 0.77905 0.40332 0.99045 0.0
H306 H 0.75846 0.50731 0.88012 0.0
H307 H 0.6567 0.4053 0.89318 0.0
H308 H 0.90656 0.46181 0.89502 0.0
H309 H 0.87845 0.47657 0.93845 0.0
H310 H 0.85931 0.50922 0.90203 0.0
H311 H 0.78137 0.33526 0.90702 0.0
H312 H 0.69871 0.34611 0.91897 0.0
H313 H 0.75738 0.35126 0.95076 0.0
C314 C 0.13181 0.6188 0.01834 0.0
C315 C 0.13002 0.66062 0.01981 0.0
C316 C 0.18168 0.5953 0.00057 0.0
C317 C 0.23159 0.61406 0.98495 0.0
C318 C 0.23437 0.65533 0.9908 0.0
C319 C 0.18317 0.67825 0.00786 0.0
C320 C 0.17721 0.55134 -0.00474 0.0
C321 C 0.28817 0.6762 0.97567 0.0
C322 C 0.37853 0.56336 0.93783 0.0
C323 C 0.36483 0.57293 0.90306 0.0
C324 C 0.33362 0.57365 0.96523 0.0
C325 C 0.27386 0.59322 0.9572 0.0
C326 C 0.25789 0.5986 0.92167 0.0
C327 C 0.30414 0.58904 0.89499 0.0
C328 C 0.35259 0.5673 0.00265 0.0
C329 C 0.19381 0.61794 0.91188 0.0
H330 H 0.09177 0.60474 0.02861 0.0
H331 H 0.18269 0.71041 0.00894 0.0
H332 H 0.15823 0.54669 0.9691 0.0
H333 H 0.22418 0.53365 -0.00413 0.0
H334 H 0.14521 0.5397 0.01549 0.0
H335 H 0.28867 0.70636 0.98739 0.0
H336 H 0.33402 0.65833 0.98001 0.0
H337 H 0.28356 0.67956 0.9469 0.0
H338 H 0.42595 0.55111 0.94388 0.0
H339 H 0.29398 0.59628 0.86795 0.0
H340 H 0.31247 0.56004 0.01993 0.0
H341 H 0.36845 0.59523 0.01275 0.0
H342 H 0.39208 0.54303 0.00444 0.0
H343 H 0.15599 0.60479 0.92712 0.0
H344 H 0.1861 0.61455 0.88344 0.0
H345 H 0.18944 0.6503 0.91828 0.0
C346 C 0.74135 0.83925 0.45902 0.0
C347 C 0.71449 0.85745 0.48992 0.0
C348 C 0.79344 0.85358 0.44187 0.0
C349 C 0.81932 0.88647 0.45639 0.0
C350 C 0.7941 0.90358 0.48865 0.0
C351 C 0.74134 0.88906 0.5049 0.0
C352 C 0.81881 0.83478 0.40739 0.0
C353 C 0.82211 0.93755 0.50568 0.0
C354 C 0.98083 0.90686 0.42105 0.0
C355 C 0.96517 0.93706 0.39666 0.0
C356 C 0.93387 0.8905 0.44119 0.0
C357 C 0.86993 0.90458 0.43657 0.0
C358 C 0.85394 0.93545 0.41226 0.0
C359 C 0.90186 0.95105 0.39234 0.0
C360 C 0.95259 0.85803 0.4672 0.0
C361 C 0.78622 0.95167 0.40702 0.0
H362 H 0.71963 0.81509 0.44741 0.0
H363 H 0.72002 0.90297 0.52887 0.0
H364 H 0.81092 0.85681 0.38597 0.0
H365 H 0.87038 0.82619 0.40821 0.0
H366 H 0.79593 0.80789 0.40083 0.0
H367 H 0.79068 0.95204 0.52711 0.0
H368 H 0.86758 0.92599 0.51692 0.0
H369 H 0.83214 0.96041 0.48602 0.0
H370 H 0.02993 0.89608 0.42446 0.0
H371 H 0.88969 0.9736 0.37281 0.0
H372 H 0.9319 0.83046 0.46032 0.0
H373 H 0.93369 0.86732 0.49388 0.0
H374 H 0.00453 0.85087 0.46801 0.0
H375 H 0.76042 0.92772 0.39666 0.0
H376 H 0.78205 0.9772 0.38855 0.0
H377 H 0.76275 0.9617 0.43252 0.0
C378 C 0.39417 0.18777 0.48361 0.0
C379 C 0.41415 0.16403 0.51196 0.0
C380 C 0.34604 0.17728 0.46279 0.0
C381 C 0.31691 0.14256 0.47097 0.0
C382 C 0.33516 0.11954 0.50065 0.0
C383 C 0.38427 0.13033 0.52062 0.0
C384 C 0.32825 0.20234 0.43118 0.0
C385 C 0.30336 0.08336 0.51108 0.0
C386 C 0.16078 0.13178 0.43042 0.0
C387 C 0.17958 0.10576 0.40219 0.0
C388 C 0.20488 0.14372 0.45327 0.0
C389 C 0.26931 0.12947 0.44755 0.0
C390 C 0.28854 0.10312 0.41909 0.0
C391 C 0.24338 0.09184 0.39655 0.0
C392 C 0.18252 0.17142 0.48356 0.0
C393 C 0.35677 0.08678 0.41251 0.0
H394 H 0.41834 0.21346 0.47677 0.0
H395 H 0.40036 0.112 0.54253 0.0
H396 H 0.33968 0.1843 0.40688 0.0
H397 H 0.27677 0.21176 0.43214 0.0
H398 H 0.35335 0.22941 0.42941 0.0
H399 H 0.32948 0.06513 0.53114 0.0
H400 H 0.25518 0.09314 0.52205 0.0
H401 H 0.29846 0.06432 0.48785 0.0
H402 H 0.1113 0.14246 0.43491 0.0
H403 H 0.25806 0.0726 0.37421 0.0
H404 H 0.20579 0.19915 0.48155 0.0
H405 H 0.19586 0.15703 0.50873 0.0
H406 H 0.13066 0.17963 0.48443 0.0
H407 H 0.38594 0.11172 0.40842 0.0
H408 H 0.36389 0.06655 0.38928 0.0
H409 H 0.37417 0.06999 0.43582 0.0
C410 C 0.48346 0.93193 0.49945 0.0
C411 C 0.48311 0.89024 0.49853 0.0
C412 C 0.43794 0.9574 0.48244 0.0
C413 C 0.39027 0.94083 0.46464 0.0
C414 C 0.38621 0.89918 0.4665 0.0
C415 C 0.43286 0.87437 0.48326 0.0
C416 C 0.44382 1.00156 0.48138 0.0
C417 C 0.33536 0.88032 0.44841 0.0
C418 C 0.24502 0.99599 0.42614 0.0
C419 C 0.2614 0.99169 0.39024 0.0
C420 C 0.28849 0.98265 0.4514 0.0
C421 C 0.34966 0.96546 0.44023 0.0
C422 C 0.36837 0.96587 0.40413 0.0
C423 C 0.32363 0.97846 0.3795 0.0
C424 C 0.26647 0.98279 0.48953 0.0
C425 C 0.43368 0.94894 0.39111 0.0
H426 H 0.5213 0.94458 0.51199 0.0
H427 H 0.43215 0.84229 0.48226 0.0
H428 H 0.46414 1.00924 0.45534 0.0
H429 H 0.39697 0.01912 0.4849 0.0
H430 H 0.4748 1.01068 0.5019 0.0
H431 H 0.33451 0.84846 0.45565 0.0
H432 H 0.2884 0.89671 0.45517 0.0
H433 H 0.34347 0.88201 0.41952 0.0
H434 H 0.19658 1.00592 0.43439 0.0
H435 H 0.33604 0.97514 0.35168 0.0
H436 H 0.3048 0.98832 0.50699 0.0
H437 H 0.25162 0.95314 0.49624 0.0
H438 H 0.22555 1.00572 0.49492 0.0
H439 H 0.46987 0.96002 0.40741 0.0
H440 H 0.44345 0.95679 0.36328 0.0
H441 H 0.43848 0.91591 0.39324 0.0
C442 C 0.69648 0.14882 0.50802 0.0
C443 C 0.64419 0.13 0.51945 0.0
C444 C 0.74636 0.12797 0.48808 0.0
C445 C 0.74353 0.08743 0.47896 0.0
C446 C 0.69356 0.06738 0.4929 0.0
C447 C 0.64474 0.08882 0.51325 0.0
C448 C 0.79951 0.15034 0.47433 0.0
C449 C 0.68897 0.02417 0.48417 0.0
C450 C 0.82158 0.0682 0.38919 0.0
C451 C 0.88247 0.05269 0.39765 0.0
C452 C 0.77372 0.07574 0.41538 0.0
C453 C 0.78782 0.06857 0.45095 0.0
C454 C 0.84776 0.04934 0.45921 0.0
C455 C 0.8945 0.04131 0.43227 0.0
C456 C 0.70994 0.09519 0.40524 0.0
C457 C 0.86491 0.04116 0.49669 0.0
H458 H 0.6966 0.18057 0.5125 0.0
H459 H 0.60525 0.07375 0.52276 0.0
H460 H 0.8457 0.13283 0.47855 0.0
H461 H 0.79568 0.15486 0.44563 0.0
H462 H 0.79874 0.18004 0.48715 0.0
H463 H 0.65507 1.01091 0.50229 0.0
H464 H 0.67298 0.02186 0.457 0.0
H465 H 0.73564 1.00638 0.48529 0.0
H466 H 0.8125 0.0769 0.36234 0.0
H467 H 0.94191 0.02956 0.43879 0.0
H468 H 0.7043 0.12707 0.41338 0.0
H469 H 0.67177 0.08071 0.41888 0.0
H470 H 0.70398 0.09366 0.37648 0.0
H471 H 0.87951 0.06865 0.50838 0.0
H472 H 0.9048 0.0171 0.49814 0.0
H473 H 0.8242 0.03263 0.51282 0.0
loop_
_geom_bond_atom_site_label_1
_geom_bond_atom_site_label_2
_geom_bond_distance
_geom_bond_site_symmetry_2
_ccdc_geom_bond_type
H0 C5 0.930 . S
H1 C8 0.930 . S
H2 C10 0.930 . S
H3 C4 1.016 . S
C4 H3 1.016 . S
C4 N11 1.286 . S
C5 H0 0.930 . S
C5 C6 1.397 1_554 S
C5 C7 1.361 . S
C6 C5 1.397 1_556 S
C6 C10 1.390 . S
C7 C5 1.361 . S
C7 C8 1.393 . S
C7 N11 1.413 . S
C8 H1 0.930 . S
C8 C7 1.393 . S
C8 C9 1.399 1_554 S
C9 C8 1.399 1_556 S
C9 C10 1.381 . S
C10 H2 0.930 . S
C10 C6 1.390 . S
C10 C9 1.381 . S
N11 C4 1.286 . S
N11 C7 1.413 . S
H12 C17 0.930 . S
H13 C20 0.930 . S
H14 C22 0.930 . S
H15 C16 1.016 . S
C16 H15 1.016 . S
C16 N23 1.286 1_455 S
C17 H12 0.930 . S
C17 C18 1.397 1_554 S
C17 C19 1.361 . S
C18 C17 1.397 1_556 S
C18 C22 1.390 1_655 S
C19 C17 1.361 . S
C19 C20 1.393 1_655 S
C19 N23 1.413 . S
C20 H13 0.930 . S
C20 C19 1.393 1_455 S
C20 C21 1.399 1_554 S
C21 C20 1.399 1_556 S
C21 C22 1.381 . S
C22 H14 0.930 . S
C22 C18 1.390 1_455 S
C22 C21 1.381 . S
N23 C16 1.286 1_655 S
N23 C19 1.413 . S
H24 C29 0.930 . S
H25 C32 0.930 . S
H26 C34 0.930 . S
H27 C28 1.016 . S
C28 H27 1.016 . S
C28 N35 1.286 . S
C29 H24 0.930 . S
C29 C30 1.397 . S
C29 C31 1.361 . S
C30 C29 1.397 . S
C30 C34 1.390 . S
C31 C29 1.361 . S
C31 C32 1.393 . S
C31 N35 1.413 . S
C32 H25 0.930 . S
C32 C31 1.393 . S
C32 C33 1.399 . S
C33 C32 1.399 . S
C33 C34 1.381 . S
C34 H26 0.930 . S
C34 C30 1.390 . S
C34 C33 1.381 . S
N35 C28 1.286 . S
N35 C31 1.413 . S
H36 C41 0.930 . S
H37 C44 0.930 . S
H38 C46 0.930 . S
H39 C40 1.016 . S
C40 H39 1.016 . S
C40 N47 1.286 . S
C41 H36 0.930 . S
C41 C42 1.397 . S
C41 C43 1.361 . S
C42 C41 1.397 . S
C42 C46 1.390 . S
C43 C41 1.361 . S
C43 C44 1.393 . S
C43 N47 1.413 . S
C44 H37 0.930 . S
C44 C43 1.393 . S
C44 C45 1.399 . S
C45 C44 1.399 . S
C45 C46 1.381 . S
C46 H38 0.930 . S
C46 C42 1.390 . S
C46 C45 1.381 . S
N47 C40 1.286 . S
N47 C43 1.413 . S
Zn48 O54 1.920 . S
Zn48 O60 1.898 . S
Zn48 O63 1.905 1_455 S
Zn49 O57 1.905 . S
Zn49 O58 1.898 . S
Zn49 O66 1.920 . S
Zn50 O53 2.080 . S
Zn50 O56 2.114 1_545 S
Zn50 O59 2.120 1_545 S
Zn50 O61 2.120 . S
Zn50 O62 2.114 1_455 S
Zn50 O65 2.080 1_545 S
C51 O56 1.166 . S
C51 O57 1.182 . S
C52 O58 1.167 . S
C52 O59 1.299 . S
O53 Zn50 2.080 . S
O53 C67 1.305 . S
O54 Zn48 1.920 . S
O54 C67 1.234 . S
C55 O60 1.167 . S
C55 O61 1.299 . S
O56 Zn50 2.114 1_565 S
O56 C51 1.166 . S
O57 Zn49 1.905 . S
O57 C51 1.182 . S
O58 Zn49 1.898 . S
O58 C52 1.167 . S
O59 Zn50 2.120 1_565 S
O59 C52 1.299 . S
O60 Zn48 1.898 . S
O60 C55 1.167 . S
O61 Zn50 2.120 . S
O61 C55 1.299 . S
O62 Zn50 2.114 1_655 S
O62 C64 1.166 . S
O63 Zn48 1.905 1_655 S
O63 C64 1.182 . S
C64 O62 1.166 . S
C64 O63 1.182 . S
O65 Zn50 2.080 1_565 S
O65 C68 1.305 . S
O66 Zn49 1.920 . S
O66 C68 1.234 . S
C67 O53 1.305 . S
C67 O54 1.234 . S
C68 O65 1.305 . S
C68 O66 1.234 . S
Zn69 O75 1.920 . S
Zn69 O81 1.898 . S
Zn69 O84 1.905 . S
Zn70 O78 1.905 . S
Zn70 O79 1.898 . S
Zn70 O87 1.920 . S
Zn71 O74 2.080 . S
Zn71 O77 2.114 . S
Zn71 O80 2.120 . S
Zn71 O82 2.120 . S
Zn71 O83 2.114 . S
Zn71 O86 2.080 . S
C72 O77 1.166 . S
C72 O78 1.182 . S
C73 O79 1.167 . S
C73 O80 1.299 . S
O74 Zn71 2.080 . S
O74 C88 1.305 . S
O75 Zn69 1.920 . S
O75 C88 1.234 . S
C76 O81 1.167 . S
C76 O82 1.299 . S
O77 Zn71 2.114 . S
O77 C72 1.166 . S
O78 Zn70 1.905 . S
O78 C72 1.182 . S
O79 Zn70 1.898 . S
O79 C73 1.167 . S
O80 Zn71 2.120 . S
O80 C73 1.299 . S
O81 Zn69 1.898 . S
O81 C76 1.167 . S
O82 Zn71 2.120 . S
O82 C76 1.299 . S
O83 Zn71 2.114 . S
O83 C85 1.166 . S
O84 Zn69 1.905 . S
O84 C85 1.182 . S
C85 O83 1.166 . S
C85 O84 1.182 . S
O86 Zn71 2.080 . S
O86 C89 1.305 . S
O87 Zn70 1.920 . S
O87 C89 1.234 . S
C88 O74 1.305 . S
C88 O75 1.234 . S
C89 O86 1.305 . S
C89 O87 1.234 . S
C90 C91 1.391 . S
C90 C92 1.394 . S
C90 H106 0.931 . S
C91 C90 1.391 . S
C91 C95 1.376 . S
C92 C90 1.394 . S
C92 C93 1.369 . S
C92 C96 1.531 . S
C93 C92 1.369 . S
C93 C94 1.410 . S
C93 C101 1.503 . S
C94 C93 1.410 . S
C94 C95 1.392 . S
C94 C97 1.511 . S
C95 C91 1.376 . S
C95 C94 1.392 . S
C95 H107 0.929 . S
C96 C92 1.531 . S
C96 H108 0.960 . S
C96 H109 0.962 . S
C96 H110 0.960 . S
C97 C94 1.511 . S
C97 H111 0.961 . S
C97 H112 0.961 . S
C97 H113 0.954 1_455 S
C98 C99 1.370 . S
C98 C100 1.363 . S
C98 H114 0.931 . S
C99 C98 1.370 . S
C99 C103 1.408 . S
C100 C98 1.363 . S
C100 C101 1.370 . S
C100 C104 1.524 . S
C101 C93 1.503 . S
C101 C100 1.370 . S
C101 C102 1.403 . S
C102 C101 1.403 . S
C102 C103 1.404 . S
C102 C105 1.539 . S
C103 C99 1.408 . S
C103 C102 1.404 . S
C103 H115 0.930 . S
C104 C100 1.524 . S
C104 H116 0.956 . S
C104 H117 0.961 . S
C104 H118 0.961 . S
C105 C102 1.539 . S
C105 H119 0.958 . S
C105 H120 0.959 1_455 S
C105 H121 0.960 . S
H106 C90 0.931 . S
H107 C95 0.929 . S
H108 C96 0.960 . S
H109 C96 0.962 . S
H110 C96 0.960 . S
H111 C97 0.961 . S
H112 C97 0.961 . S
H113 C97 0.954 1_655 S
H114 C98 0.931 . S
H115 C103 0.930 . S
H116 C104 0.956 . S
H117 C104 0.961 . S
H118 C104 0.961 . S
H119 C105 0.958 . S
H120 C105 0.959 1_655 S
H121 C105 0.960 . S
C122 C123 1.391 . S
C122 C124 1.394 . S
C122 H138 0.931 . S
C123 C122 1.391 . S
C123 C127 1.376 1_455 S
C124 C122 1.394 . S
C124 C125 1.369 . S
C124 C128 1.531 . S
C125 C124 1.369 . S
C125 C126 1.410 1_455 S
C125 C133 1.503 . S
C126 C125 1.410 1_655 S
C126 C127 1.392 . S
C126 C129 1.511 . S
C127 C123 1.376 1_655 S
C127 C126 1.392 . S
C127 H139 0.929 . S
C128 C124 1.531 . S
C128 H140 0.960 . S
C128 H141 0.962 . S
C128 H142 0.960 . S
C129 C126 1.511 . S
C129 H143 0.961 . S
C129 H144 0.961 . S
C129 H145 0.961 . S
C130 C131 1.370 . S
C130 C132 1.363 . S
C130 H146 0.931 . S
C131 C130 1.370 . S
C131 C135 1.408 1_455 S
C132 C130 1.363 . S
C132 C133 1.370 . S
C132 C136 1.524 . S
C133 C125 1.503 . S
C133 C132 1.370 . S
C133 C134 1.403 1_455 S
C134 C133 1.403 1_655 S
C134 C135 1.404 . S
C134 C137 1.539 . S
C135 C131 1.408 1_655 S
C135 C134 1.404 . S
C135 H147 0.930 . S
C136 C132 1.524 . S
C136 H148 0.956 . S
C136 H149 0.961 . S
C136 H150 0.961 . S
C137 C134 1.539 . S
C137 H151 0.958 . S
C137 H152 0.961 . S
C137 H153 0.960 . S
H138 C122 0.931 . S
H139 C127 0.929 . S
H140 C128 0.960 . S
H141 C128 0.962 . S
H142 C128 0.960 . S
H143 C129 0.961 . S
H144 C129 0.961 . S
H145 C129 0.961 . S
H146 C130 0.931 . S
H147 C135 0.930 . S
H148 C136 0.956 . S
H149 C136 0.961 . S
H150 C136 0.961 . S
H151 C137 0.958 . S
H152 C137 0.961 . S
H153 C137 0.960 . S
C154 C155 1.391 . S
C154 C156 1.394 . S
C154 H170 0.931 . S
C155 C154 1.391 . S
C155 C159 1.376 . S
C156 C154 1.394 . S
C156 C157 1.369 . S
C156 C160 1.531 . S
C157 C156 1.369 . S
C157 C158 1.410 . S
C157 C165 1.503 . S
C158 C157 1.410 . S
C158 C159 1.392 . S
C158 C161 1.511 . S
C159 C155 1.376 . S
C159 C158 1.392 . S
C159 H171 0.929 . S
C160 C156 1.531 . S
C160 H172 0.960 . S
C160 H173 0.962 . S
C160 H174 0.960 . S
C161 C158 1.511 . S
C161 H175 0.961 . S
C161 H176 0.961 . S
C161 H177 0.961 . S
C162 C163 1.370 . S
C162 C164 1.363 . S
C162 H178 0.931 . S
C163 C162 1.370 . S
C163 C167 1.408 . S
C164 C162 1.363 . S
C164 C165 1.370 . S
C164 C168 1.524 . S
C165 C157 1.503 . S
C165 C164 1.370 . S
C165 C166 1.403 . S
C166 C165 1.403 . S
C166 C167 1.404 . S
C166 C169 1.539 . S
C167 C163 1.408 . S
C167 C166 1.404 . S
C167 H179 0.930 . S
C168 C164 1.524 . S
C168 H180 0.956 . S
C168 H181 0.961 . S
C168 H182 0.961 . S
C169 C166 1.539 . S
C169 H183 0.958 . S
C169 H184 0.961 . S
C169 H185 0.960 . S
H170 C154 0.931 . S
H171 C159 0.929 . S
H172 C160 0.960 . S
H173 C160 0.962 . S
H174 C160 0.960 . S
H175 C161 0.961 . S
H176 C161 0.961 . S
H177 C161 0.961 . S
H178 C162 0.931 . S
H179 C167 0.930 . S
H180 C168 0.956 . S
H181 C168 0.961 . S
H182 C168 0.961 . S
H183 C169 0.958 . S
H184 C169 0.961 . S
H185 C169 0.960 . S
C186 C187 1.391 . S
C186 C188 1.394 . S
C186 H202 0.931 . S
C187 C186 1.391 . S
C187 C191 1.376 . S
C188 C186 1.394 . S
C188 C189 1.369 . S
C188 C192 1.531 . S
C189 C188 1.369 . S
C189 C190 1.410 . S
C189 C197 1.503 . S
C190 C189 1.410 . S
C190 C191 1.392 . S
C190 C193 1.511 . S
C191 C187 1.376 . S
C191 C190 1.392 . S
C191 H203 0.929 . S
C192 C188 1.531 . S
C192 H204 0.960 . S
C192 H205 0.962 . S
C192 H206 0.960 . S
C193 C190 1.511 . S
C193 H207 0.961 . S
C193 H208 0.961 . S
C193 H209 0.961 . S
C194 C195 1.370 . S
C194 C196 1.363 . S
C194 H210 0.931 . S
C195 C194 1.370 . S
C195 C199 1.408 . S
C196 C194 1.363 . S
C196 C197 1.370 . S
C196 C200 1.524 . S
C197 C189 1.503 . S
C197 C196 1.370 . S
C197 C198 1.403 . S
C198 C197 1.403 . S
C198 C199 1.404 . S
C198 C201 1.539 . S
C199 C195 1.408 . S
C199 C198 1.404 . S
C199 H211 0.930 . S
C200 C196 1.524 . S
C200 H212 0.956 . S
C200 H213 0.961 . S
C200 H214 0.961 . S
C201 C198 1.539 . S
C201 H215 0.958 . S
C201 H216 0.961 . S
C201 H217 0.960 . S
H202 C186 0.931 . S
H203 C191 0.929 . S
H204 C192 0.960 . S
H205 C192 0.962 . S
H206 C192 0.960 . S
H207 C193 0.961 . S
H208 C193 0.961 . S
H209 C193 0.961 . S
H210 C194 0.931 . S
H211 C199 0.930 . S
H212 C200 0.956 . S
H213 C200 0.961 . S
H214 C200 0.961 . S
H215 C201 0.958 . S
H216 C201 0.961 . S
H217 C201 0.960 . S
C218 C219 1.391 1_554 S
C218 C220 1.394 1_554 S
C218 H234 0.931 . S
C219 C218 1.391 1_556 S
C219 C223 1.376 . S
C220 C218 1.394 1_556 S
C220 C221 1.369 . S
C220 C224 1.531 1_556 S
C221 C220 1.369 . S
C221 C222 1.410 . S
C221 C229 1.503 . S
C222 C221 1.410 . S
C222 C223 1.392 . S
C222 C225 1.511 . S
C223 C219 1.376 . S
C223 C222 1.392 . S
C223 H235 0.929 . S
C224 C220 1.531 1_554 S
C224 H236 0.960 . S
C224 H237 0.962 . S
C224 H238 0.960 . S
C225 C222 1.511 . S
C225 H239 0.961 . S
C225 H240 0.961 . S
C225 H241 0.961 . S
C226 C227 1.370 . S
C226 C228 1.363 . S
C226 H242 0.931 . S
C227 C226 1.370 . S
C227 C231 1.408 . S
C228 C226 1.363 . S
C228 C229 1.370 . S
C228 C232 1.524 . S
C229 C221 1.503 . S
C229 C228 1.370 . S
C229 C230 1.403 . S
C230 C229 1.403 . S
C230 C231 1.404 . S
C230 C233 1.539 . S
C231 C227 1.408 . S
C231 C230 1.404 . S
C231 H243 0.930 . S
C232 C228 1.524 . S
C232 H244 0.956 . S
C232 H245 0.961 . S
C232 H246 0.961 . S
C233 C230 1.539 . S
C233 H247 0.958 . S
C233 H248 0.961 . S
C233 H249 0.960 . S
H234 C218 0.931 . S
H235 C223 0.929 . S
H236 C224 0.960 . S
H237 C224 0.962 . S
H238 C224 0.960 . S
H239 C225 0.961 . S
H240 C225 0.961 . S
H241 C225 0.961 . S
H242 C226 0.931 . S
H243 C231 0.930 . S
H244 C232 0.956 . S
H245 C232 0.961 . S
H246 C232 0.961 . S
H247 C233 0.958 . S
H248 C233 0.961 . S
H249 C233 0.960 . S
C250 C251 1.391 1_554 S
C250 C252 1.394 1_554 S
C250 H266 0.931 . S
C251 C250 1.391 1_556 S
C251 C255 1.376 . S
C252 C250 1.394 1_556 S
C252 C253 1.369 . S
C252 C256 1.531 1_556 S
C253 C252 1.369 . S
C253 C254 1.410 . S
C253 C261 1.503 . S
C254 C253 1.410 . S
C254 C255 1.392 . S
C254 C257 1.511 . S
C255 C251 1.376 . S
C255 C254 1.392 . S
C255 H267 0.929 . S
C256 C252 1.531 1_554 S
C256 H268 0.940 1_554 S
C256 H269 0.962 . S
C256 H270 0.960 . S
C257 C254 1.511 . S
C257 H271 0.961 . S
C257 H272 0.961 . S
C257 H273 0.961 . S
C258 C259 1.370 . S
C258 C260 1.363 . S
C258 H274 0.931 . S
C259 C258 1.370 . S
C259 C263 1.408 . S
C260 C258 1.363 . S
C260 C261 1.370 . S
C260 C264 1.524 . S
C261 C253 1.503 . S
C261 C260 1.370 . S
C261 C262 1.403 . S
C262 C261 1.403 . S
C262 C263 1.404 . S
C262 C265 1.539 . S
C263 C259 1.408 . S
C263 C262 1.404 . S
C263 H275 0.930 . S
C264 C260 1.524 . S
C264 H276 0.956 . S
C264 H277 0.961 . S
C264 H278 0.961 . S
C265 C262 1.539 . S
C265 H279 0.958 . S
C265 H280 0.961 . S
C265 H281 0.960 . S
H266 C250 0.931 . S
H267 C255 0.929 . S
H268 C256 0.940 1_556 S
H269 C256 0.962 . S
H270 C256 0.960 . S
H271 C257 0.961 . S
H272 C257 0.961 . S
H273 C257 0.961 . S
H274 C258 0.931 . S
H275 C263 0.930 . S
H276 C264 0.956 . S
H277 C264 0.961 . S
H278 C264 0.961 . S
H279 C265 0.958 . S
H280 C265 0.961 . S
H281 C265 0.960 . S
C282 C283 1.391 . S
C282 C284 1.394 1_455 S
C282 H298 0.931 . S
C283 C282 1.391 . S
C283 C287 1.376 1_455 S
C284 C282 1.394 1_655 S
C284 C285 1.369 . S
C284 C288 1.531 . S
C285 C284 1.369 . S
C285 C286 1.410 . S
C285 C293 1.503 . S
C286 C285 1.410 . S
C286 C287 1.392 . S
C286 C289 1.511 . S
C287 C283 1.376 1_655 S
C287 C286 1.392 . S
C287 H299 0.929 1_556 S
C288 C284 1.531 . S
C288 H300 0.960 . S
C288 H301 0.962 . S
C288 H302 0.960 . S
C289 C286 1.511 . S
C289 H303 0.961 1_556 S
C289 H304 0.961 . S
C289 H305 0.961 1_556 S
C290 C291 1.370 . S
C290 C292 1.363 . S
C290 H306 0.931 . S
C291 C290 1.370 . S
C291 C295 1.408 . S
C292 C290 1.363 . S
C292 C293 1.370 . S
C292 C296 1.524 . S
C293 C285 1.503 . S
C293 C292 1.370 . S
C293 C294 1.403 . S
C294 C293 1.403 . S
C294 C295 1.404 . S
C294 C297 1.539 . S
C295 C291 1.408 . S
C295 C294 1.404 . S
C295 H307 0.930 . S
C296 C292 1.524 . S
C296 H308 0.956 . S
C296 H309 0.961 . S
C296 H310 0.961 . S
C297 C294 1.539 . S
C297 H311 0.958 . S
C297 H312 0.961 . S
C297 H313 0.960 . S
H298 C282 0.931 . S
H299 C287 0.929 1_554 S
H300 C288 0.960 . S
H301 C288 0.962 . S
H302 C288 0.960 . S
H303 C289 0.961 1_554 S
H304 C289 0.961 . S
H305 C289 0.961 1_554 S
H306 C290 0.931 . S
H307 C295 0.930 . S
H308 C296 0.956 . S
H309 C296 0.961 . S
H310 C296 0.961 . S
H311 C297 0.958 . S
H312 C297 0.961 . S
H313 C297 0.960 . S
C314 C315 1.391 . S
C314 C316 1.394 . S
C314 H330 0.931 . S
C315 C314 1.391 . S
C315 C319 1.376 . S
C316 C314 1.394 . S
C316 C317 1.369 . S
C316 C320 1.531 . S
C317 C316 1.369 . S
C317 C318 1.410 . S
C317 C325 1.503 . S
C318 C317 1.410 . S
C318 C319 1.392 . S
C318 C321 1.511 . S
C319 C315 1.376 . S
C319 C318 1.392 . S
C319 H331 0.929 . S
C320 C316 1.531 . S
C320 H332 0.960 . S
C320 H333 0.962 . S
C320 H334 0.960 . S
C321 C318 1.511 . S
C321 H335 0.961 . S
C321 H336 0.961 . S
C321 H337 0.961 . S
C322 C323 1.370 . S
C322 C324 1.363 . S
C322 H338 0.931 . S
C323 C322 1.370 . S
C323 C327 1.408 . S
C324 C322 1.363 . S
C324 C325 1.370 . S
C324 C328 1.524 . S
C325 C317 1.503 . S
C325 C324 1.370 . S
C325 C326 1.403 . S
C326 C325 1.403 . S
C326 C327 1.404 . S
C326 C329 1.539 . S
C327 C323 1.408 . S
C327 C326 1.404 . S
C327 H339 0.930 . S
C328 C324 1.524 . S
C328 H340 0.956 . S
C328 H341 0.961 . S
C328 H342 0.961 . S
C329 C326 1.539 . S
C329 H343 0.958 . S
C329 H344 0.961 . S
C329 H345 0.960 . S
H330 C314 0.931 . S
H331 C319 0.929 . S
H332 C320 0.960 . S
H333 C320 0.962 . S
H334 C320 0.960 . S
H335 C321 0.961 . S
H336 C321 0.961 . S
H337 C321 0.961 . S
H338 C322 0.931 . S
H339 C327 0.930 . S
H340 C328 0.956 . S
H341 C328 0.961 . S
H342 C328 0.961 . S
H343 C329 0.958 . S
H344 C329 0.961 . S
H345 C329 0.960 . S
C346 C347 1.391 . S
C346 C348 1.394 . S
C346 H362 0.931 . S
C347 C346 1.391 . S
C347 C351 1.376 . S
C348 C346 1.394 . S
C348 C349 1.369 . S
C348 C352 1.531 . S
C349 C348 1.369 . S
C349 C350 1.410 . S
C349 C357 1.503 . S
C350 C349 1.410 . S
C350 C351 1.392 . S
C350 C353 1.511 . S
C351 C347 1.376 . S
C351 C350 1.392 . S
C351 H363 0.929 . S
C352 C348 1.531 . S
C352 H364 0.960 . S
C352 H365 0.962 . S
C352 H366 0.960 . S
C353 C350 1.511 . S
C353 H367 0.961 . S
C353 H368 0.961 . S
C353 H369 0.961 . S
C354 C355 1.370 . S
C354 C356 1.363 . S
C354 H370 0.931 1_655 S
C355 C354 1.370 . S
C355 C359 1.408 . S
C356 C354 1.363 . S
C356 C357 1.370 . S
C356 C360 1.524 . S
C357 C349 1.503 . S
C357 C356 1.370 . S
C357 C358 1.403 . S
C358 C357 1.403 . S
C358 C359 1.404 . S
C358 C361 1.539 . S
C359 C355 1.408 . S
C359 C358 1.404 . S
C359 H371 0.930 . S
C360 C356 1.524 . S
C360 H372 0.956 . S
C360 H373 0.961 . S
C360 H374 0.961 . S
C361 C358 1.539 . S
C361 H375 0.958 . S
C361 H376 0.961 . S
C361 H377 0.960 . S
H362 C346 0.931 . S
H363 C351 0.929 . S
H364 C352 0.960 . S
H365 C352 0.962 . S
H366 C352 0.960 . S
H367 C353 0.961 . S
H368 C353 0.961 . S
H369 C353 0.961 . S
H370 C354 0.931 1_455 S
H371 C359 0.930 . S
H372 C360 0.956 . S
H373 C360 0.961 . S
H374 C360 0.961 . S
H375 C361 0.958 . S
H376 C361 0.961 . S
H377 C361 0.960 . S
C378 C379 1.391 . S
C378 C380 1.394 . S
C378 H394 0.931 . S
C379 C378 1.391 . S
C379 C383 1.376 . S
C380 C378 1.394 . S
C380 C381 1.369 . S
C380 C384 1.531 . S
C381 C380 1.369 . S
C381 C382 1.410 . S
C381 C389 1.503 . S
C382 C381 1.410 . S
C382 C383 1.392 . S
C382 C385 1.511 . S
C383 C379 1.376 . S
C383 C382 1.392 . S
C383 H395 0.929 . S
C384 C380 1.531 . S
C384 H396 0.960 . S
C384 H397 0.962 . S
C384 H398 0.960 . S
C385 C382 1.511 . S
C385 H399 0.961 . S
C385 H400 0.961 . S
C385 H401 0.961 . S
C386 C387 1.370 . S
C386 C388 1.363 . S
C386 H402 0.931 . S
C387 C386 1.370 . S
C387 C391 1.408 . S
C388 C386 1.363 . S
C388 C389 1.370 . S
C388 C392 1.524 . S
C389 C381 1.503 . S
C389 C388 1.370 . S
C389 C390 1.403 . S
C390 C389 1.403 . S
C390 C391 1.404 . S
C390 C393 1.539 . S
C391 C387 1.408 . S
C391 C390 1.404 . S
C391 H403 0.930 . S
C392 C388 1.524 . S
C392 H404 0.956 . S
C392 H405 0.961 . S
C392 H406 0.961 . S
C393 C390 1.539 . S
C393 H407 0.958 . S
C393 H408 0.961 . S
C393 H409 0.960 . S
H394 C378 0.931 . S
H395 C383 0.929 . S
H396 C384 0.960 . S
H397 C384 0.962 . S
H398 C384 0.960 . S
H399 C385 0.961 . S
H400 C385 0.961 . S
H401 C385 0.961 . S
H402 C386 0.931 . S
H403 C391 0.930 . S
H404 C392 0.956 . S
H405 C392 0.961 . S
H406 C392 0.961 . S
H407 C393 0.958 . S
H408 C393 0.961 . S
H409 C393 0.960 . S
C410 C411 1.391 . S
C410 C412 1.394 . S
C410 H426 0.931 . S
C411 C410 1.391 . S
C411 C415 1.376 . S
C412 C410 1.394 . S
C412 C413 1.369 . S
C412 C416 1.531 . S
C413 C412 1.369 . S
C413 C414 1.410 . S
C413 C421 1.503 . S
C414 C413 1.410 . S
C414 C415 1.392 . S
C414 C417 1.511 . S
C415 C411 1.376 . S
C415 C414 1.392 . S
C415 H427 0.929 . S
C416 C412 1.531 . S
C416 H428 0.960 . S
C416 H429 0.962 . S
C416 H430 0.960 . S
C417 C414 1.511 . S
C417 H431 0.961 . S
C417 H432 0.961 . S
C417 H433 0.961 . S
C418 C419 1.370 . S
C418 C420 1.363 . S
C418 H434 0.931 . S
C419 C418 1.370 . S
C419 C423 1.408 . S
C420 C418 1.363 . S
C420 C421 1.370 . S
C420 C424 1.524 . S
C421 C413 1.503 . S
C421 C420 1.370 . S
C421 C422 1.403 . S
C422 C421 1.403 . S
C422 C423 1.404 . S
C422 C425 1.539 . S
C423 C419 1.408 . S
C423 C422 1.404 . S
C423 H435 0.930 . S
C424 C420 1.524 . S
C424 H436 0.956 . S
C424 H437 0.961 . S
C424 H438 0.961 . S
C425 C422 1.539 . S
C425 H439 0.958 . S
C425 H440 0.961 . S
C425 H441 0.960 . S
H426 C410 0.931 . S
H427 C415 0.929 . S
H428 C416 0.960 . S
H429 C416 0.962 . S
H430 C416 0.960 . S
H431 C417 0.961 . S
H432 C417 0.961 . S
H433 C417 0.961 . S
H434 C418 0.931 . S
H435 C423 0.930 . S
H436 C424 0.956 . S
H437 C424 0.961 . S
H438 C424 0.961 . S
H439 C425 0.958 . S
H440 C425 0.961 . S
H441 C425 0.960 . S
C442 C443 1.391 . S
C442 C444 1.394 . S
C442 H458 0.931 . S
C443 C442 1.391 . S
C443 C447 1.376 . S
C444 C442 1.394 . S
C444 C445 1.369 . S
C444 C448 1.531 . S
C445 C444 1.369 . S
C445 C446 1.410 . S
C445 C453 1.503 . S
C446 C445 1.410 . S
C446 C447 1.392 . S
C446 C449 1.511 . S
C447 C443 1.376 . S
C447 C446 1.392 . S
C447 H459 0.929 . S
C448 C444 1.531 . S
C448 H460 0.960 . S
C448 H461 0.962 . S
C448 H462 0.960 . S
C449 C446 1.511 . S
C449 H463 0.961 . S
C449 H464 0.961 . S
C449 H465 0.961 . S
C450 C451 1.370 . S
C450 C452 1.363 . S
C450 H466 0.931 . S
C451 C450 1.370 . S
C451 C455 1.408 . S
C452 C450 1.363 . S
C452 C453 1.370 . S
C452 C456 1.524 . S
C453 C445 1.503 . S
C453 C452 1.370 . S
C453 C454 1.403 . S
C454 C453 1.403 . S
C454 C455 1.404 . S
C454 C457 1.539 . S
C455 C451 1.408 . S
C455 C454 1.404 . S
C455 H467 0.930 . S
C456 C452 1.524 . S
C456 H468 0.956 . S
C456 H469 0.961 . S
C456 H470 0.961 . S
C457 C454 1.539 . S
C457 H471 0.958 . S
C457 H472 0.961 . S
C457 H473 0.960 . S
H458 C442 0.931 . S
H459 C447 0.929 . S
H460 C448 0.960 . S
H461 C448 0.962 . S
H462 C448 0.960 . S
H463 C449 0.961 . S
H464 C449 0.961 . S
H465 C449 0.961 . S
H466 C450 0.931 . S
H467 C455 0.930 . S
H468 C456 0.956 . S
H469 C456 0.961 . S
H470 C456 0.961 . S
H471 C457 0.958 . S
H472 C457 0.961 . S
H473 C457 0.960 . S
C99 C55 1.394 . S
C91 C4 1.525 . S
C131 C51 1.413 . S
C123 C16 1.515 . S
C163 C76 1.391 . S
C155 C28 1.522 . S
C187 C40 1.474 . S
C195 C72 1.386 . S
C219 C9 1.281 . S
C227 C73 1.099 . S
C259 C88 1.107 . S
C251 C18 1.284 . S
C283 C6 1.735 . S
C291 C89 1.572 . S
C323 C85 1.620 . S
C315 C21 1.740 . S
C355 C52 1.153 1_655 S
C347 C33 1.218 . S
C379 C42 1.257 . S
C387 C67 1.142 . S
C419 C68 1.577 . S
C411 C30 1.735 . S
C451 C64 1.624 . S
C443 C45 1.754 . S
