# Generated by pormake.
# Topology zzz, (3,6)-cn, num edge types: 1
# Building blocks:
#     Node 0, Type 0, BuildingBlock: PAMTOO_clean_linker_0, # of connection points: 3
#     Node 1, Type 0, BuildingBlock: PAMTOO_clean_linker_0, # of connection points: 3
#     Node 2, Type 0, BuildingBlock: PAMTOO_clean_linker_0, # of connection points: 3
#     Node 3, Type 0, BuildingBlock: PAMTOO_clean_linker_0, # of connection points: 3
#     Node 4, Type 0, BuildingBlock: PAMTOO_clean_linker_0, # of connection points: 3
#     Node 5, Type 0, BuildingBlock: PAMTOO_clean_linker_0, # of connection points: 3
#     Node 6, Type 0, BuildingBlock: PAMTOO_clean_linker_0, # of connection points: 3
#     Node 7, Type 0, BuildingBlock: PAMTOO_clean_linker_0, # of connection points: 3
#     Node 8, Type 1, BuildingBlock: BETGAK_clean_sbu_0, # of connection points: 6
#     Node 9, Type 1, BuildingBlock: BETGAK_clean_sbu_0, # of connection points: 6
#     Node 10, Type 1, BuildingBlock: BETGAK_clean_sbu_0, # of connection points: 6
#     Node 11, Type 1, BuildingBlock: BETGAK_clean_sbu_0, # of connection points: 6
#     Edge 12, Type (0, 1), BuildingBlock: CIFDUS_clean_linker_0, # of connection points: 2
#     Edge 13, Type (0, 1), BuildingBlock: CIFDUS_clean_linker_0, # of connection points: 2
#     Edge 14, Type (0, 1), BuildingBlock: CIFDUS_clean_linker_0, # of connection points: 2
#     Edge 15, Type (0, 1), BuildingBlock: CIFDUS_clean_linker_0, # of connection points: 2
#     Edge 16, Type (0, 1), BuildingBlock: CIFDUS_clean_linker_0, # of connection points: 2
#     Edge 17, Type (0, 1), BuildingBlock: CIFDUS_clean_linker_0, # of connection points: 2
#     Edge 18, Type (0, 1), BuildingBlock: CIFDUS_clean_linker_0, # of connection points: 2
#     Edge 19, Type (0, 1), BuildingBlock: CIFDUS_clean_linker_0, # of connection points: 2
#     Edge 20, Type (0, 1), BuildingBlock: CIFDUS_clean_linker_0, # of connection points: 2
#     Edge 21, Type (0, 1), BuildingBlock: CIFDUS_clean_linker_0, # of connection points: 2
#     Edge 22, Type (0, 1), BuildingBlock: CIFDUS_clean_linker_0, # of connection points: 2
#     Edge 23, Type (0, 1), BuildingBlock: CIFDUS_clean_linker_0, # of connection points: 2
#     Edge 24, Type (0, 1), BuildingBlock: CIFDUS_clean_linker_0, # of connection points: 2
#     Edge 25, Type (0, 1), BuildingBlock: CIFDUS_clean_linker_0, # of connection points: 2
#     Edge 26, Type (0, 1), BuildingBlock: CIFDUS_clean_linker_0, # of connection points: 2
#     Edge 27, Type (0, 1), BuildingBlock: CIFDUS_clean_linker_0, # of connection points: 2
#     Edge 28, Type (0, 1), BuildingBlock: CIFDUS_clean_linker_0, # of connection points: 2
#     Edge 29, Type (0, 1), BuildingBlock: CIFDUS_clean_linker_0, # of connection points: 2
#     Edge 30, Type (0, 1), BuildingBlock: CIFDUS_clean_linker_0, # of connection points: 2
#     Edge 31, Type (0, 1), BuildingBlock: CIFDUS_clean_linker_0, # of connection points: 2
#     Edge 32, Type (0, 1), BuildingBlock: CIFDUS_clean_linker_0, # of connection points: 2
#     Edge 33, Type (0, 1), BuildingBlock: CIFDUS_clean_linker_0, # of connection points: 2
#     Edge 34, Type (0, 1), BuildingBlock: CIFDUS_clean_linker_0, # of connection points: 2
#     Edge 35, Type (0, 1), BuildingBlock: CIFDUS_clean_linker_0, # of connection points: 2
# Relax obj value: 0.313
# Max RMSD: 0.203
# Mean RMSD: 0.161
data_MOF--net-zzz--node1-BETGAK_clean_sbu_0--node2-PAMTOO_clean_linker_0--edge1-CIFDUS_clean_linker_0
_symmetry_space_group_name_H-M    P1
_symmetry_Int_Tables_number       1
_symmetry_cell_setting            triclinic
loop_
_symmetry_equiv_pos_as_xyz
'x, y, z'
_cell_length_a     45.029502
_cell_length_b     45.129861
_cell_length_c     11.820428
_cell_angle_alpha  89.712436
_cell_angle_beta   90.439854
_cell_angle_gamma 90.188674
loop_
_atom_site_label
_atom_site_type_symbol
_atom_site_fract_x
_atom_site_fract_y
_atom_site_fract_z
_atom_type_partial_charge
H0 H 0.83809 0.48614 0.46117 0.0
H1 H 0.75834 0.49051 0.25996 0.0
H2 H 0.79373 0.5694 0.41503 0.0
H3 H 0.71766 0.56796 0.37325 0.0
C4 C 0.72073 0.54803 0.31994 0.0
O5 O 0.75014 0.54704 0.28466 0.0
H6 H 0.71552 0.52819 0.37274 0.0
C7 C 0.81887 0.49843 0.43149 0.0
C8 C 0.81822 0.52899 0.45092 0.0
C9 C 0.79782 0.48424 0.36192 0.0
C10 C 0.77423 0.50087 0.31675 0.0
C11 C 0.77197 0.53134 0.33833 0.0
C12 C 0.7944 0.54562 0.40388 0.0
H13 H 1.00852 0.82982 0.31552 0.0
H14 H 1.01016 0.73643 0.25851 0.0
H15 H 0.03549 0.77084 0.5856 0.0
H16 H 0.05664 0.68824 0.5013 0.0
C17 C 0.05293 0.70407 0.43039 0.0
O18 O 1.0283 0.72135 0.45644 0.0
H19 H 0.0732 0.71825 0.42851 0.0
C20 C 1.01169 0.8078 0.35022 0.0
C21 C 1.02111 0.80447 0.46331 0.0
C22 C 1.0071 0.78348 0.27791 0.0
C23 C 1.01353 0.75503 0.31493 0.0
C24 C 1.02435 0.75017 0.42406 0.0
C25 C 1.02809 0.77486 0.49959 0.0
H26 H 0.7293 0.98698 0.34814 0.0
H27 H 0.82111 0.98638 0.25752 0.0
H28 H 0.79185 0.03895 0.53937 0.0
H29 H 0.86118 0.06338 0.40225 0.0
C30 C 0.8506 0.04736 0.34324 0.0
O31 O 0.83849 1.02434 0.40739 0.0
H32 H 0.83274 0.05994 0.29858 0.0
C33 C 0.75201 0.99314 0.36763 0.0
C34 C 0.7573 1.01212 0.45925 0.0
C35 C 0.77468 0.98362 0.2951 0.0
C36 C 0.80359 0.99374 0.31275 0.0
C37 C 0.80989 1.0144 0.39745 0.0
C38 C 0.78677 1.02355 0.47202 0.0
H39 H 0.48039 0.73606 0.43648 0.0
H40 H 0.49361 0.81371 0.22962 0.0
H41 H 0.55745 0.7905 0.4878 0.0
H42 H 0.55587 0.8654 0.4133 0.0
C43 C 0.53906 0.85867 0.34908 0.0
O44 O 0.54363 0.82905 0.32243 0.0
H45 H 0.51672 0.86162 0.38722 0.0
C46 C 0.49231 0.75644 0.41825 0.0
C47 C 0.51898 0.76153 0.47619 0.0
C48 C 0.48305 0.7746 0.32778 0.0
C49 C 0.49997 0.79982 0.30076 0.0
C50 C 0.52634 0.80624 0.35981 0.0
C51 C 0.53618 0.78673 0.44692 0.0
H52 H 0.23519 0.58581 0.13396 0.0
H53 H 0.32144 0.5848 0.29232 0.0
H54 H 0.30101 0.52418 0.02083 0.0
H55 H 0.34725 0.49884 0.1971 0.0
C56 C 0.35068 0.52029 0.24121 0.0
O57 O 0.34325 0.54294 0.16629 0.0
H58 H 0.33558 0.5204 0.31538 0.0
C59 C 0.25775 0.57741 0.1379 0.0
C60 C 0.26549 0.55418 0.06661 0.0
C61 C 0.27753 0.58858 0.21932 0.0
C62 C 0.30619 0.57669 0.22811 0.0
C63 C 0.31508 0.55376 0.15596 0.0
C64 C 0.29455 0.54229 0.07496 0.0
H65 H 1.02983 0.22229 0.27816 0.0
H66 H 1.02358 0.31185 0.3895 0.0
H67 H 0.04595 0.29375 0.0421 0.0
H68 H 0.06708 0.36786 0.15962 0.0
C69 C 0.05708 0.35725 0.23532 0.0
O70 O 0.03552 0.33704 0.19782 0.0
H71 H 0.07533 0.34543 0.28056 0.0
C72 C 0.03278 0.2457 0.25976 0.0
C73 C 0.03973 0.25472 0.14944 0.0
C74 C 1.02664 0.26627 0.34454 0.0
C75 C 1.02883 0.29648 0.32289 0.0
C76 C 0.03647 0.30698 0.21566 0.0
C77 C 0.04148 0.28594 0.12702 0.0
H78 H 0.33447 0.99206 0.18122 0.0
H79 H 0.25148 1.00974 0.34427 0.0
H80 H 0.27795 0.06168 0.05493 0.0
H81 H 0.20699 1.01963 0.16585 0.0
C82 C 0.20696 0.04316 0.19378 0.0
O83 O 0.23588 0.05317 0.21344 0.0
H84 H 0.19725 0.0565 0.12356 0.0
C85 C 0.31355 1.00392 0.18316 0.0
C86 C 0.30891 1.02714 0.10611 0.0
C87 C 0.29294 0.99737 0.26847 0.0
C88 C 0.26689 1.01395 0.27598 0.0
C89 C 0.26073 0.0365 0.19773 0.0
C90 C 0.2819 0.0433 0.11225 0.0
H91 H 0.58521 0.33331 0.08589 0.0
H92 H 0.58025 0.2503 0.26434 0.0
H93 H 0.50116 0.28918 0.12056 0.0
H94 H 0.49328 0.25613 0.35234 0.0
C95 C 0.51413 0.24304 0.34861 0.0
O96 O 0.52349 0.24285 0.23694 0.0
H97 H 0.53083 0.25446 0.40315 0.0
C98 C 0.57268 0.31377 0.11038 0.0
C99 C 0.54202 0.31356 0.0897 0.0
C100 C 0.58663 0.29169 0.17571 0.0
C101 C 0.56991 0.26723 0.21213 0.0
C102 C 0.53919 0.26591 0.19188 0.0
C103 C 0.52503 0.28949 0.13233 0.0
La104 La 0.05352 1.02303 0.86571 0.0
La105 La 1.01098 0.04164 0.70824 0.0
C106 C 0.07447 0.9933 0.02431 0.0
C107 C 0.05797 0.96673 0.05943 0.0
C108 C 0.07126 0.93887 0.05195 0.0
C109 C 0.05361 0.91353 0.04033 0.0
C110 C 1.02233 0.91573 0.03159 0.0
C111 C 1.00927 0.94363 0.0456 0.0
C112 C 1.02681 0.96854 0.06303 0.0
C113 C 0.07956 0.0406 0.67585 0.0
C114 C 1.02419 0.9743 0.70466 0.0
C115 C 0.97854 0.06624 0.56162 0.0
C116 C 0.95887 0.09161 0.5747 0.0
C117 C 0.95415 0.10311 0.68324 0.0
C118 C 0.94317 0.13174 0.69556 0.0
C119 C 0.93709 0.14904 0.59926 0.0
C120 C 0.93743 0.13566 0.49189 0.0
C121 C 0.94867 0.1071 0.47954 0.0
C122 C 0.9857 1.02494 0.90247 0.0
C123 C 0.04271 0.09137 0.86715 0.0
O124 O 0.08499 0.99173 0.92175 0.0
O125 O 0.0608 1.01839 0.04108 0.0
O126 O 0.09003 0.04463 0.77708 0.0
O127 O 0.05549 1.02596 0.68289 0.0
O128 O 0.03423 0.97985 0.80786 0.0
O129 O 1.01768 0.99713 0.63878 0.0
O130 O 0.97071 0.04267 0.61817 0.0
O131 O 1.00684 0.07223 0.57464 0.0
O132 O 0.97597 1.01878 0.8026 0.0
O133 O 1.00936 0.0398 0.89067 0.0
O134 O 1.0243 0.08584 0.78091 0.0
O135 O 0.05669 0.06917 0.91732 0.0
H136 H 0.0952 0.93689 0.04785 0.0
H137 H 0.06475 0.89238 0.03618 0.0
H138 H 0.98552 0.94674 0.03914 0.0
H139 H 1.01575 0.98967 0.06839 0.0
H140 H 0.96164 0.09114 0.75782 0.0
H141 H 0.94322 0.14163 0.77891 0.0
H142 H 0.93304 0.1486 0.41617 0.0
H143 H 0.95193 0.09832 0.39542 0.0
La144 La 0.54299 0.0579 0.87171 0.0
La145 La 0.52419 1.02083 0.69418 0.0
C146 C 0.57255 0.07378 0.03961 0.0
C147 C 0.59659 0.05459 0.08318 0.0
C148 C 0.62627 0.06243 0.06441 0.0
C149 C 0.64835 0.04076 0.06639 0.0
C150 C 0.6411 1.0106 0.08404 0.0
C151 C 0.61161 1.00328 0.11023 0.0
C152 C 0.5899 1.02511 0.11285 0.0
C153 C 0.52565 0.08954 0.69331 0.0
C154 C 0.59139 0.03134 0.70746 0.0
C155 C 0.49929 0.99527 0.53027 0.0
C156 C 0.47453 0.97428 0.52561 0.0
C157 C 0.46207 0.96299 0.62564 0.0
C158 C 0.43646 0.94543 0.62087 0.0
C159 C 0.42326 0.93876 0.51592 0.0
C160 C 0.43715 0.94858 0.41602 0.0
C161 C 0.46234 0.96647 0.42106 0.0
C162 C 0.53967 0.98996 0.87936 0.0
C163 C 0.47464 0.04638 0.86477 0.0
O164 O 0.57717 0.08474 0.93857 0.0
O165 O 0.54575 0.06283 0.04819 0.0
O166 O 0.52134 0.09654 0.79794 0.0
O167 O 0.54068 0.06581 0.69068 0.0
O168 O 0.58496 0.03718 0.81388 0.0
O169 O 0.56938 1.0286 0.63421 0.0
O170 O 0.52312 0.98535 0.5808 0.0
O171 O 0.4926 1.02212 0.56256 0.0
O172 O 0.54474 0.98195 0.77683 0.0
O173 O 0.52544 1.01389 0.87428 0.0
O174 O 0.48015 0.03211 0.76903 0.0
O175 O 0.49683 0.0576 0.92459 0.0
H176 H 0.63213 0.08496 0.04137 0.0
H177 H 0.67101 0.04777 0.05188 0.0
H178 H 0.60482 0.98057 0.12496 0.0
H179 H 0.56738 1.01836 0.13009 0.0
H180 H 0.47137 0.96888 0.70736 0.0
H181 H 0.426 0.93854 0.69898 0.0
H182 H 0.42712 0.94464 0.33384 0.0
H183 H 0.47129 0.97549 0.34351 0.0
La184 La 0.51851 0.54371 0.85507 0.0
La185 La 0.56068 0.52956 0.66624 0.0
C186 C 0.49709 0.56006 0.0398 0.0
C187 C 0.47462 0.58237 0.06584 0.0
C188 C 0.46045 0.59793 0.97777 0.0
C189 C 0.44226 0.62204 1.00155 0.0
C190 C 0.43842 0.63132 0.11378 0.0
C191 C 0.45081 0.61412 0.20213 0.0
C192 C 0.46878 0.5898 0.17819 0.0
C193 C 0.48675 0.5409 0.66337 0.0
C194 C 0.54154 0.59538 0.68863 0.0
C195 C 0.58898 0.5078 0.50367 0.0
C196 C 0.59963 0.47747 0.48329 0.0
C197 C 0.62993 0.47232 0.46331 0.0
C198 C 0.6408 0.4433 0.45746 0.0
C199 C 0.62153 0.41915 0.47356 0.0
C200 C 0.59116 0.42447 0.4905 0.0
C201 C 0.58032 0.45325 0.49509 0.0
C202 C 0.58634 0.54567 0.86024 0.0
C203 C 0.53454 0.47608 0.81707 0.0
O204 O 0.4873 0.53707 0.9833 0.0
O205 O 0.52203 0.5706 0.99872 0.0
O206 O 0.47624 0.54678 0.76179 0.0
O207 O 0.51432 0.53681 0.67636 0.0
O208 O 0.53175 0.58848 0.79168 0.0
O209 O 0.55002 0.57456 0.61764 0.0
O210 O 0.60162 0.52109 0.58924 0.0
O211 O 0.56016 0.51185 0.50213 0.0
O212 O 0.59481 0.55392 0.7605 0.0
O213 O 0.56383 0.52904 0.84844 0.0
O214 O 0.54957 0.48473 0.72657 0.0
O215 O 0.52173 0.49558 0.8843 0.0
H216 H 0.46464 0.59242 0.89036 0.0
H217 H 0.43282 0.63459 0.93178 0.0
H218 H 0.44868 0.6208 0.28955 0.0
H219 H 0.47939 0.57784 0.24713 0.0
H220 H 0.64524 0.49072 0.45471 0.0
H221 H 0.6642 0.43973 0.44218 0.0
H222 H 0.57559 0.40625 0.4995 0.0
H223 H 0.55687 0.45643 0.51064 0.0
La224 La 1.03054 0.5143 0.90275 0.0
La225 La 0.04742 0.55856 0.71909 0.0
C226 C 1.01172 0.48994 0.07983 0.0
C227 C 0.9824 0.47592 0.09697 0.0
C228 C 0.97994 0.44579 0.12693 0.0
C229 C 0.95202 0.43177 0.12761 0.0
C230 C 0.92642 0.44766 0.09628 0.0
C231 C 0.92904 0.47793 0.06982 0.0
C232 C 0.95655 0.49185 0.07031 0.0
C233 C 0.03765 0.4852 0.70587 0.0
C234 C 0.97889 0.53844 0.74512 0.0
C235 C 0.05793 0.58899 0.54526 0.0
C236 C 0.08242 0.60903 0.51574 0.0
C237 C 0.10035 0.62161 0.6007 0.0
C238 C 0.12679 0.63605 0.57261 0.0
C239 C 0.13565 0.63814 0.45915 0.0
C240 C 0.11644 0.62743 0.37393 0.0
C241 C 0.0902 0.61272 0.40225 0.0
C242 C 0.04693 0.58142 0.92776 0.0
C243 C 0.09879 0.52959 0.86443 0.0
O244 O 1.02898 0.47653 1.00815 0.0
O245 O 1.01166 0.51865 0.06338 0.0
O246 O 1.02926 0.47331 0.79991 0.0
O247 O 0.0408 0.51247 0.72671 0.0
O248 O 0.98624 0.52347 0.83764 0.0
O249 O 0.99919 0.55256 0.68364 0.0
O250 O 0.04055 0.5978 0.62679 0.0
O251 O 0.06545 0.56106 0.55629 0.0
O252 O 0.06504 0.58859 0.84775 0.0
O253 O 1.0289 0.56229 0.88741 0.0
O254 O 0.09182 0.54179 0.76521 0.0
O255 O 0.07797 0.52085 0.93619 0.0
H256 H 0.9996 0.43302 0.14758 0.0
H257 H 0.95048 0.40859 0.15103 0.0
H258 H 0.90963 0.49113 0.04972 0.0
H259 H 0.95746 0.51509 0.04715 0.0
H260 H 0.09479 0.61887 0.68905 0.0
H261 H 0.14113 0.64408 0.63986 0.0
H262 H 0.12281 0.62821 0.28577 0.0
H263 H 0.07692 0.60269 0.33589 0.0
H264 H 0.14767 0.03107 0.20633 0.0
H265 H 0.2208 0.06037 0.4158 0.0
H266 H 0.18783 0.06311 0.57861 0.0
H267 H 0.13824 0.05646 0.66404 0.0
H268 H 0.06518 1.02595 0.45696 0.0
H269 H 0.09779 1.02464 0.2918 0.0
C270 C 0.15635 0.03817 0.28765 0.0
C271 C 0.18681 0.04566 0.2975 0.0
C272 C 0.13716 0.03953 0.38191 0.0
C273 C 0.19763 0.05461 0.40416 0.0
C274 C 0.17868 0.05616 0.49789 0.0
C275 C 0.12935 0.04966 0.58268 0.0
C276 C 0.0991 0.04133 0.57351 0.0
C277 C 0.14842 0.04863 0.48804 0.0
C278 C 0.08821 0.0325 0.46701 0.0
C279 C 0.10694 0.0317 0.37239 0.0
H280 H 0.54899 0.19203 0.33291 0.0
H281 H 0.46937 0.22556 0.48628 0.0
H282 H 0.46487 0.18061 0.59976 0.0
H283 H 0.48578 0.13373 0.6697 0.0
H284 H 0.5642 0.09815 0.51556 0.0
H285 H 0.56674 0.14127 0.38795 0.0
C286 C 0.53023 0.18907 0.38881 0.0
C287 C 0.50923 0.21216 0.39911 0.0
C288 C 0.52772 0.16279 0.45497 0.0
C289 C 0.48553 0.20813 0.47461 0.0
C290 C 0.48304 0.18243 0.54047 0.0
C291 C 0.50315 0.13516 0.60678 0.0
C292 C 0.52483 0.11277 0.60275 0.0
C293 C 0.50431 0.15991 0.53338 0.0
C294 C 0.54713 0.11494 0.52037 0.0
C295 C 0.54868 0.13976 0.44777 0.0
H296 H 0.37926 0.56808 0.34028 0.0
H297 H 0.39291 0.47674 0.25123 0.0
H298 H 0.43947 0.47602 0.35866 0.0
H299 H 0.47274 0.49918 0.50217 0.0
H300 H 0.45795 0.58997 0.59568 0.0
H301 H 0.41646 0.59333 0.46178 0.0
C302 C 0.39289 0.54832 0.34167 0.0
C303 C 0.38252 0.52258 0.28657 0.0
C304 C 0.41965 0.54789 0.40567 0.0
C305 C 0.40033 0.49698 0.29153 0.0
C306 C 0.42699 0.49648 0.35378 0.0
C307 C 0.46117 0.51999 0.48967 0.0
C308 C 0.46878 0.54444 0.55782 0.0
C309 C 0.43648 0.5215 0.41439 0.0
C310 C 0.45286 0.57097 0.54315 0.0
C311 C 0.42884 0.57281 0.46735 0.0
H312 H 0.08117 0.41228 0.27816 0.0
H313 H 1.00641 0.35786 0.37258 0.0
H314 H 0.99402 0.39266 0.5219 0.0
H315 H 1.00642 0.43689 0.63665 0.0
H316 H 0.07783 0.4944 0.53333 0.0
H317 H 0.08897 0.46082 0.37583 0.0
C318 C 0.06181 0.40826 0.33006 0.0
C319 C 0.04532 0.38166 0.31452 0.0
C320 C 0.05415 0.42914 0.41469 0.0
C321 C 1.02028 0.3772 0.38325 0.0
C322 C 1.01296 0.39743 0.46873 0.0
C323 C 1.02412 0.4424 0.57845 0.0
C324 C 0.04134 0.46825 0.59762 0.0
C325 C 1.0301 0.42312 0.48709 0.0
C326 C 0.06407 0.47495 0.5207 0.0
C327 C 0.07057 0.45552 0.43098 0.0
H328 H 0.9122 0.05132 0.35102 0.0
H329 H 0.84036 1.02228 0.13529 0.0
H330 H 0.8756 1.01023 0.98649 0.0
H331 H 0.92649 1.01128 0.91079 0.0
H332 H 0.99823 0.04465 0.11776 0.0
H333 H 0.96379 0.05165 0.27531 0.0
C334 C 0.90433 0.04187 0.27211 0.0
C335 C 0.87346 0.03691 0.25633 0.0
C336 C 0.92484 0.03617 0.18412 0.0
C337 C 0.86382 1.02531 0.1521 0.0
C338 C 0.88404 1.01883 0.06595 0.0
C339 C 0.93473 1.01987 0.99061 0.0
C340 C 0.96515 1.02734 1.00177 0.0
C341 C 0.91455 1.02457 0.0801 0.0
C342 C 0.9751 0.03865 0.10618 0.0
C343 C 0.95531 0.04273 0.19646 0.0
H344 H 0.52151 0.91611 0.3328 0.0
H345 H 0.56388 0.84828 0.1363 0.0
H346 H 0.5685 0.88278 0.97681 0.0
H347 H 0.56003 0.93259 0.8912 0.0
H348 H 0.5166 0.99968 0.08824 0.0
H349 H 0.51426 0.96575 0.24941 0.0
C350 C 0.5316 0.90881 0.25472 0.0
C351 C 0.54167 0.87932 0.24647 0.0
C352 C 0.53432 0.92886 0.16316 0.0
C353 C 0.55531 0.87053 0.14519 0.0
C354 C 0.55809 0.89037 0.05371 0.0
C355 C 0.5499 0.93973 0.96933 0.0
C356 C 0.53873 0.96889 0.97741 0.0
C357 C 0.54755 0.91961 0.06135 0.0
C358 C 0.52555 0.97757 0.07934 0.0
C359 C 0.52387 0.95803 0.1715 0.0
H360 H 0.6639 0.52589 0.30714 0.0
H361 H 0.72751 0.57559 0.11186 0.0
H362 H 0.69148 0.58012 0.95669 0.0
H363 H 0.64197 0.56959 0.87471 0.0
H364 H 0.57799 0.52004 0.06908 0.0
H365 H 0.61377 0.51602 0.22607 0.0
C366 C 0.66998 0.5374 0.23002 0.0
C367 C 0.69886 0.54955 0.2203 0.0
C368 C 0.64889 0.54016 0.1411 0.0
C369 C 0.7059 0.56527 0.12096 0.0
C370 C 0.68516 0.56804 0.03228 0.0
C371 C 0.63574 0.55803 0.95163 0.0
C372 C 0.60718 0.54512 0.95964 0.0
C373 C 0.65661 0.55554 0.04116 0.0
C374 C 0.59967 0.53023 0.06029 0.0
C375 C 0.62022 0.52784 0.15003 0.0
H376 H 1.01954 0.6529 0.38451 0.0
H377 H 0.08089 0.71395 0.22905 0.0
H378 H 0.08451 0.68176 0.06441 0.0
H379 H 0.07294 0.63497 0.96793 0.0
H380 H 1.00968 0.57427 0.11349 0.0
H381 H 1.00424 0.60717 0.27712 0.0
C382 C 0.03312 0.65948 0.31331 0.0
C383 C 0.04991 0.68612 0.3201 0.0
C384 C 0.03512 0.64057 0.21721 0.0
C385 C 0.06765 0.69387 0.22699 0.0
C386 C 0.0699 0.67526 0.13268 0.0
C387 C 0.0578 0.62881 0.03501 0.0
C388 C 0.04211 0.60159 0.02792 0.0
C389 C 0.05424 0.6483 0.1276 0.0
C390 C 1.02241 0.5946 0.1161 0.0
C391 C 1.01916 0.61365 0.20984 0.0
H392 H 0.96862 0.26652 0.38476 0.0
H393 H 0.05287 0.24062 0.52786 0.0
H394 H 1.02784 0.20681 0.65868 0.0
H395 H 0.98505 0.17487 0.68409 0.0
H396 H 0.90248 0.19407 0.51361 0.0
H397 H 0.92308 0.24094 0.44379 0.0
C398 C 0.98116 0.25442 0.44865 0.0
C399 C 1.01229 0.25561 0.44772 0.0
C400 C 0.96676 0.23355 0.51689 0.0
C401 C 1.02882 0.23982 0.52844 0.0
C402 C 1.0145 0.22039 0.60216 0.0
C403 C 0.97096 0.19024 0.63794 0.0
C404 C 0.9424 0.18122 0.60374 0.0
C405 C 0.9838 0.21557 0.59091 0.0
C406 C 0.92453 0.20074 0.54077 0.0
C407 C 0.93649 0.22726 0.49968 0.0
H408 H 0.31236 0.94094 0.24796 0.0
H409 H 0.29445 1.00857 0.49394 0.0
H410 H 0.32979 0.98607 0.6253 0.0
H411 H 0.37712 0.95999 0.63405 0.0
H412 H 0.39892 0.89641 0.37722 0.0
H413 H 0.35025 0.90324 0.28908 0.0
C414 C 0.31524 0.94979 0.33255 0.0
C415 C 0.30188 0.97685 0.36014 0.0
C416 C 0.33687 0.93772 0.40479 0.0
C417 C 0.30497 0.98797 0.47037 0.0
C418 C 0.32547 0.97528 0.54507 0.0
C419 C 0.3706 0.94632 0.56274 0.0
C420 C 0.39195 0.9289 0.50833 0.0
C421 C 0.34344 0.95195 0.50842 0.0
C422 C 0.38302 0.91072 0.41801 0.0
C423 C 0.35534 0.91496 0.36672 0.0
H424 H 0.59916 0.28992 0.3992 0.0
H425 H 0.63817 0.31278 0.07908 0.0
H426 H 0.66226 0.35582 0.16396 0.0
H427 H 0.6539 0.39525 0.30431 0.0
H428 H 0.61122 0.37345 0.61912 0.0
H429 H 0.60726 0.3217 0.56278 0.0
C430 C 0.61444 0.3032 0.3495 0.0
C431 C 0.61519 0.29965 0.23152 0.0
C432 C 0.62644 0.32899 0.39739 0.0
C433 C 0.63624 0.31601 0.1695 0.0
C434 C 0.64952 0.34104 0.21758 0.0
C435 C 0.64518 0.37886 0.36283 0.0
C436 C 0.63164 0.38814 0.46323 0.0
C437 C 0.64197 0.34932 0.32787 0.0
C438 C 0.62087 0.36675 0.53957 0.0
C439 C 0.61852 0.33719 0.50721 0.0
H440 H 0.24978 0.64067 0.1802 0.0
H441 H 0.27638 0.58102 0.44746 0.0
H442 H 0.23598 0.59879 0.56554 0.0
H443 H 0.18543 0.61862 0.56453 0.0
H444 H 0.1556 0.67334 0.28608 0.0
H445 H 0.20474 0.67044 0.20058 0.0
C446 C 0.24751 0.63272 0.26653 0.0
C447 C 0.26535 0.60908 0.30429 0.0
C448 C 0.2229 0.6414 0.33004 0.0
C449 C 0.26271 0.59907 0.41638 0.0
C450 C 0.23923 0.60885 0.48306 0.0
C451 C 0.19004 0.63105 0.48783 0.0
C452 C 0.16677 0.64559 0.43011 0.0
C453 C 0.21788 0.62812 0.43678 0.0
C454 C 0.17306 0.66151 0.33066 0.0
C455 C 0.20111 0.65977 0.28168 0.0
H456 H 0.9569 0.80956 0.20641 0.0
H457 H 0.03764 0.77111 0.08515 0.0
H458 H 0.04219 0.81027 0.94334 0.0
H459 H 0.03608 0.86386 0.92469 0.0
H460 H 0.96471 0.90633 0.1048 0.0
H461 H 0.94287 0.85888 0.14575 0.0
C462 C 0.97443 0.80901 0.14387 0.0
C463 C 0.99798 0.78923 0.16003 0.0
C464 C 0.97924 0.83389 0.0758 0.0
C465 C 1.01991 0.78717 0.07677 0.0
C466 C 1.02287 0.81001 0.99747 0.0
C467 C 1.0156 0.86281 0.97201 0.0
C468 C 1.00353 0.88874 0.01842 0.0
C469 C 1.00491 0.83521 1.00758 0.0
C470 C 0.97552 0.88702 0.07077 0.0
C471 C 0.96289 0.8596 0.09539 0.0
H472 H 0.74065 0.93409 0.27133 0.0
H473 H 0.78853 0.99853 0.0761 0.0
H474 H 0.74597 1.00491 0.95041 0.0
H475 H 0.69178 1.0095 0.9574 0.0
H476 H 0.64346 0.95813 0.20567 0.0
H477 H 0.68735 0.92943 0.24673 0.0
C478 C 0.7421 0.94823 0.19697 0.0
C479 C 0.76604 0.96814 0.18938 0.0
C480 C 0.71595 0.95556 0.13861 0.0
C481 C 0.76928 0.98446 0.08862 0.0
C482 C 0.74453 0.98878 0.01842 0.0
C483 C 0.69073 0.99191 0.02006 0.0
C484 C 0.66463 0.98744 0.08293 0.0
C485 C 0.71693 0.97752 0.05283 0.0
C486 C 0.66319 0.96295 0.1573 0.0
C487 C 0.68853 0.94641 0.1817 0.0
H488 H 0.4306 0.74689 0.37646 0.0
H489 H 0.48556 0.77381 0.0967 0.0
H490 H 0.46691 0.73274 0.98501 0.0
H491 H 0.45093 0.6813 0.99607 0.0
H492 H 0.4028 0.64995 0.28767 0.0
H493 H 0.40305 0.69998 0.36579 0.0
C494 C 0.43757 0.74435 0.28938 0.0
C495 C 0.46065 0.76236 0.24741 0.0
C496 C 0.42898 0.71893 0.22956 0.0
C497 C 0.46843 0.75987 0.13283 0.0
C498 C 0.45815 0.73593 0.06925 0.0
C499 C 0.43919 0.68553 0.07408 0.0
C500 C 0.42776 0.66174 0.13794 0.0
C501 C 0.44085 0.71391 0.12106 0.0
C502 C 0.41255 0.66779 0.23861 0.0
C503 C 0.41275 0.69639 0.28336 0.0
H504 H 0.79782 0.4678 0.14149 0.0
H505 H 0.81727 0.43434 0.47541 0.0
H506 H 0.86101 0.40902 0.40458 0.0
H507 H 0.90204 0.41605 0.26887 0.0
H508 H 0.88261 0.45081 0.93637 0.0
H509 H 0.8303 0.45517 0.98398 0.0
C510 C 0.81044 0.45341 0.19759 0.0
C511 C 0.80598 0.45489 0.31496 0.0
C512 C 0.83634 0.44011 0.15686 0.0
C513 C 0.82138 0.43476 0.38521 0.0
C514 C 0.84678 0.42069 0.34506 0.0
C515 C 0.88608 0.42288 0.20472 0.0
C516 C 0.89619 0.4347 0.10176 0.0
C517 C 0.85609 0.42617 0.23399 0.0
C518 C 0.87528 0.44269 0.01801 0.0
C519 C 0.84537 0.44539 0.04546 0.0
H520 H 0.07712 0.20709 0.14915 0.0
H521 H 1.00442 0.24509 0.96101 0.0
H522 H 0.99848 0.19876 0.85555 0.0
H523 H 1.01195 0.1449 0.82467 0.0
H524 H 0.08498 0.10861 0.01878 0.0
H525 H 0.09278 0.15601 0.1101 0.0
C526 C 0.06063 0.20566 0.08203 0.0
C527 C 0.04171 0.23021 0.06216 0.0
C528 C 0.05713 0.17862 0.02219 0.0
C529 C 1.01997 0.22725 0.9766 0.0
C530 C 1.01635 0.20037 0.9167 0.0
C531 C 1.02981 0.14745 0.88572 0.0
C532 C 0.04767 0.12244 0.91393 0.0
C533 C 0.03444 0.17551 0.93982 0.0
C534 C 0.07055 0.12676 0.99454 0.0
C535 C 0.0752 0.15416 0.04737 0.0
H536 H 0.35712 0.06097 0.15596 0.0
H537 H 0.31964 1.00739 0.89085 0.0
H538 H 0.36701 1.00909 0.7888 0.0
H539 H 0.42115 1.02238 0.78366 0.0
H540 H 0.45754 0.07546 0.05471 0.0
H541 H 0.40923 0.07734 0.14389 0.0
C542 C 0.35901 0.05056 0.07383 0.0
C543 C 0.3344 0.03487 0.0297 0.0
C544 C 0.38664 0.05101 0.01718 0.0
C545 C 0.33777 1.02045 0.92524 0.0
C546 C 0.3651 1.02108 0.8676 0.0
C547 C 0.41847 0.03464 0.86152 0.0
C548 C 0.44357 0.04861 0.91178 0.0
C549 C 0.39005 0.03575 0.91391 0.0
C550 C 0.43917 0.06429 1.01322 0.0
C551 C 0.41131 0.06547 0.06488 0.0
H552 H 0.55766 0.33863 0.88978 0.0
H553 H 0.49983 0.35152 0.17335 0.0
H554 H 0.49093 0.40293 0.11245 0.0
H555 H 0.50451 0.44622 0.98935 0.0
H556 H 0.56442 0.43191 0.71173 0.0
H557 H 0.56753 0.37973 0.7593 0.0
C558 C 0.54237 0.35242 0.93645 0.0
C559 C 0.52923 0.34097 0.03559 0.0
C560 C 0.53825 0.3822 0.9031 0.0
C561 C 0.5098 0.35939 0.09566 0.0
C562 C 0.50513 0.38904 0.06171 0.0
C563 C 0.51803 0.43166 0.93862 0.0
C564 C 0.53422 0.44352 0.84632 0.0
C565 C 0.52003 0.40106 0.96746 0.0
C566 C 0.55152 0.42391 0.78225 0.0
C567 C 0.55343 0.39381 0.80973 0.0
H568 H 0.22159 0.51649 0.12552 0.0
H569 H 0.2527 0.56961 0.84745 0.0
H570 H 0.20396 0.56542 0.75402 0.0
H571 H 0.15012 0.55202 0.76468 0.0
H572 H 0.11985 0.50032 0.05025 0.0
H573 H 0.17003 0.49864 0.12625 0.0
C574 C 0.21808 0.52599 0.04201 0.0
C575 C 0.24115 0.54256 0.99209 0.0
C576 C 0.18959 0.5245 0.99131 0.0
C577 C 0.23576 0.55588 0.88604 0.0
C578 C 0.20761 0.55394 0.83364 0.0
C579 C 0.15455 0.54002 0.84265 0.0
C580 C 0.13071 0.52663 0.90168 0.0
C581 C 0.18395 0.53917 0.88741 0.0
C582 C 0.13728 0.5112 1.00279 0.0
C583 C 0.16618 0.5101 0.0467 0.0
H584 H 0.98677 0.85529 0.45207 0.0
H585 H 0.06013 0.81856 0.64243 0.0
H586 H 0.06657 0.86632 0.73943 0.0
H587 H 0.05335 0.92073 0.76116 0.0
H588 H 0.98354 0.95641 0.54908 0.0
H589 H 0.97465 0.90761 0.46872 0.0
C590 C 1.00472 0.85741 0.51305 0.0
C591 C 1.02338 0.83263 0.53612 0.0
C592 C 1.00916 0.88541 0.56497 0.0
C593 C 0.04526 0.83657 0.62104 0.0
C594 C 0.04914 0.86424 0.67628 0.0
C595 C 0.03611 0.91781 0.69767 0.0
C596 C 1.01916 0.94289 0.66178 0.0
C597 C 0.03155 0.88917 0.64773 0.0
C598 C 0.99711 0.93813 0.5787 0.0
C599 C 0.99192 0.90998 0.53247 0.0
H600 H 0.71067 0.97628 0.52157 0.0
H601 H 0.74283 0.0657 0.56361 0.0
H602 H 0.69557 0.07919 0.65277 0.0
H603 H 0.64247 0.0665 0.70266 0.0
H604 H 0.6102 0.97842 0.63247 0.0
H605 H 0.6594 0.96393 0.56734 0.0
C606 C 0.70756 0.99895 0.54881 0.0
C607 C 0.7307 1.02 0.53256 0.0
C608 C 0.67972 1.00694 0.59384 0.0
C609 C 0.72593 0.04881 0.57407 0.0
C610 C 0.69858 0.05665 0.62411 0.0
C611 C 0.64636 0.04411 0.67371 0.0
C612 C 0.62245 1.02349 0.67289 0.0
C613 C 0.67491 0.03609 0.63194 0.0
C614 C 0.62795 0.9947 0.63402 0.0
C615 C 0.6562 0.98639 0.59686 0.0
H616 H 0.55588 0.71691 0.42196 0.0
H617 H 0.50168 0.749 0.69261 0.0
H618 H 0.50485 0.70067 0.78827 0.0
H619 H 0.51826 0.64691 0.7826 0.0
H620 H 0.57042 0.61559 0.50249 0.0
H621 H 0.57267 0.66526 0.42416 0.0
C622 C 0.54587 0.71368 0.50434 0.0
C623 C 0.52943 0.73694 0.55177 0.0
C624 C 0.54666 0.68538 0.55602 0.0
C625 C 0.51535 0.73187 0.6561 0.0
C626 C 0.51673 0.70398 0.7098 0.0
C627 C 0.53039 0.65102 0.70518 0.0
C628 C 0.54384 0.62702 0.64862 0.0
C629 C 0.53153 0.68015 0.65874 0.0
C630 C 0.55943 0.63314 0.54806 0.0
C631 C 0.56091 0.66177 0.50283 0.0
H632 H 0.84193 0.51349 0.65435 0.0
H633 H 0.85663 0.57176 0.3709 0.0
H634 H 0.90765 0.58116 0.43752 0.0
H635 H 0.95026 0.56804 0.5665 0.0
H636 H 0.93393 0.50765 0.84405 0.0
H637 H 0.88219 0.50381 0.78946 0.0
C638 C 0.85601 0.52898 0.60888 0.0
C639 C 0.84516 0.54211 0.50816 0.0
C640 C 0.88561 0.53335 0.64544 0.0
C641 C 0.86399 0.56179 0.44975 0.0
C642 C 0.89344 0.56674 0.48698 0.0
C643 C 0.93535 0.55423 0.61554 0.0
C644 C 0.9466 0.53812 0.70984 0.0
C645 C 0.90491 0.55186 0.58294 0.0
C646 C 0.9265 0.52045 0.77171 0.0
C647 C 0.8966 0.51816 0.74042 0.0
loop_
_geom_bond_atom_site_label_1
_geom_bond_atom_site_label_2
_geom_bond_distance
_geom_bond_site_symmetry_2
_ccdc_geom_bond_type
H0 C7 0.929 . S
H1 C10 0.930 . S
H2 C12 0.929 . S
H3 C4 0.969 . S
C4 H3 0.969 . S
C4 O5 1.550 . S
C4 H6 0.973 . S
O5 C4 1.550 . S
O5 C11 1.412 . S
H6 C4 0.973 . S
C7 H0 0.929 . S
C7 C8 1.400 . S
C7 C9 1.364 . S
C8 C7 1.400 . S
C8 C12 1.377 . S
C9 C7 1.364 . S
C9 C10 1.374 . S
C10 H1 0.930 . S
C10 C9 1.374 . S
C10 C11 1.383 . S
C11 O5 1.412 . S
C11 C10 1.383 . S
C11 C12 1.394 . S
C12 H2 0.929 . S
C12 C8 1.377 . S
C12 C11 1.394 . S
H13 C20 0.928 1_655 S
H14 C23 0.931 . S
H15 C25 0.928 1_655 S
H16 C17 0.969 . S
C17 H16 0.969 . S
C17 O18 1.550 1_455 S
C17 H19 0.973 1_455 S
O18 C17 1.550 1_655 S
O18 C24 1.404 1_655 S
H19 C17 0.973 1_655 S
C20 H13 0.928 1_455 S
C20 C21 1.399 . S
C20 C22 1.364 . S
C21 C20 1.399 . S
C21 C25 1.377 . S
C22 C20 1.364 . S
C22 C23 1.374 1_455 S
C23 H14 0.931 . S
C23 C22 1.374 1_655 S
C23 C24 1.382 1_655 S
C24 O18 1.404 1_455 S
C24 C23 1.382 1_455 S
C24 C25 1.394 . S
C25 H15 0.928 1_455 S
C25 C21 1.377 . S
C25 C24 1.394 . S
H26 C33 0.928 1_565 S
H27 C36 0.931 . S
H28 C38 0.928 1_565 S
H29 C30 0.969 . S
C30 H29 0.969 . S
C30 O31 1.550 1_545 S
C30 H32 0.973 1_545 S
O31 C30 1.550 1_565 S
O31 C37 1.404 1_565 S
H32 C30 0.973 1_565 S
C33 H26 0.928 1_545 S
C33 C34 1.399 . S
C33 C35 1.364 . S
C34 C33 1.399 . S
C34 C38 1.377 . S
C35 C33 1.364 . S
C35 C36 1.374 1_545 S
C36 H27 0.931 . S
C36 C35 1.374 1_565 S
C36 C37 1.382 1_565 S
C37 O31 1.404 1_545 S
C37 C36 1.382 1_545 S
C37 C38 1.394 . S
C38 H28 0.928 1_545 S
C38 C34 1.377 . S
C38 C37 1.394 . S
H39 C46 0.929 . S
H40 C49 0.930 . S
H41 C51 0.929 . S
H42 C43 0.969 . S
C43 H42 0.969 . S
C43 O44 1.550 . S
C43 H45 0.973 . S
O44 C43 1.550 . S
O44 C50 1.412 . S
H45 C43 0.973 . S
C46 H39 0.929 . S
C46 C47 1.400 . S
C46 C48 1.364 . S
C47 C46 1.400 . S
C47 C51 1.377 . S
C48 C46 1.364 . S
C48 C49 1.374 . S
C49 H40 0.930 . S
C49 C48 1.374 . S
C49 C50 1.383 . S
C50 O44 1.412 . S
C50 C49 1.383 . S
C50 C51 1.394 . S
C51 H41 0.929 . S
C51 C47 1.377 . S
C51 C50 1.394 . S
H52 C59 0.929 . S
H53 C62 0.930 . S
H54 C64 0.929 . S
H55 C56 0.969 . S
C56 H55 0.969 . S
C56 O57 1.550 . S
C56 H58 0.973 . S
O57 C56 1.550 . S
O57 C63 1.412 . S
H58 C56 0.973 . S
C59 H52 0.929 . S
C59 C60 1.400 1_554 S
C59 C61 1.364 . S
C60 C59 1.400 1_556 S
C60 C64 1.377 . S
C61 C59 1.364 . S
C61 C62 1.374 . S
C62 H53 0.930 . S
C62 C61 1.374 . S
C62 C63 1.383 . S
C63 O57 1.412 . S
C63 C62 1.383 . S
C63 C64 1.394 1_554 S
C64 H54 0.929 . S
C64 C60 1.377 . S
C64 C63 1.394 1_556 S
H65 C72 0.928 1_655 S
H66 C75 0.930 . S
H67 C77 0.928 1_655 S
H68 C69 0.969 . S
C69 H68 0.969 . S
C69 O70 1.550 1_455 S
C69 H71 0.973 1_455 S
O70 C69 1.550 1_655 S
O70 C76 1.402 1_655 S
H71 C69 0.973 1_655 S
C72 H65 0.928 1_455 S
C72 C73 1.400 1_554 S
C72 C74 1.364 . S
C73 C72 1.400 1_556 S
C73 C77 1.377 . S
C74 C72 1.364 . S
C74 C75 1.374 1_455 S
C75 H66 0.930 . S
C75 C74 1.374 1_655 S
C75 C76 1.382 1_655 S
C76 O70 1.402 1_455 S
C76 C75 1.382 1_455 S
C76 C77 1.394 1_554 S
C77 H67 0.928 1_455 S
C77 C73 1.377 . S
C77 C76 1.394 1_556 S
H78 C85 0.928 1_565 S
H79 C88 0.930 . S
H80 C90 0.928 1_565 S
H81 C82 0.969 . S
C82 H81 0.969 . S
C82 O83 1.550 1_545 S
C82 H84 0.973 1_545 S
O83 C82 1.550 1_565 S
O83 C89 1.402 1_565 S
H84 C82 0.973 1_565 S
C85 H78 0.928 1_545 S
C85 C86 1.400 1_554 S
C85 C87 1.364 . S
C86 C85 1.400 1_556 S
C86 C90 1.377 . S
C87 C85 1.364 . S
C87 C88 1.374 1_545 S
C88 H79 0.930 . S
C88 C87 1.374 1_565 S
C88 C89 1.382 1_565 S
C89 O83 1.402 1_545 S
C89 C88 1.382 1_545 S
C89 C90 1.394 1_554 S
C90 H80 0.928 1_545 S
C90 C86 1.377 . S
C90 C89 1.394 1_556 S
H91 C98 0.929 . S
H92 C101 0.930 . S
H93 C103 0.929 . S
H94 C95 0.969 . S
C95 H94 0.969 . S
C95 O96 1.550 . S
C95 H97 0.973 . S
O96 C95 1.550 . S
O96 C102 1.412 . S
H97 C95 0.973 . S
C98 H91 0.929 . S
C98 C99 1.400 1_554 S
C98 C100 1.364 . S
C99 C98 1.400 1_556 S
C99 C103 1.377 . S
C100 C98 1.364 . S
C100 C101 1.374 . S
C101 H92 0.930 . S
C101 C100 1.374 . S
C101 C102 1.383 . S
C102 O96 1.412 . S
C102 C101 1.383 . S
C102 C103 1.394 1_554 S
C103 H93 0.929 . S
C103 C99 1.377 . S
C103 C102 1.394 1_556 S
La104 C106 2.928 1_556 S
La104 O124 2.521 . S
La104 O125 2.628 1_556 S
La104 O126 2.554 . S
La104 O127 2.757 1_565 S
La104 O128 2.470 . S
La104 O133 2.482 1_455 S
La104 O135 2.503 1_565 S
La105 C115 2.928 . S
La105 O127 2.482 1_655 S
La105 O129 2.503 1_545 S
La105 O130 2.521 . S
La105 O131 2.628 . S
La105 O132 2.554 . S
La105 O133 2.757 1_545 S
La105 O134 2.470 . S
C106 La104 2.928 1_554 S
C106 C107 1.503 . S
C106 O124 1.261 1_554 S
C106 O125 1.243 . S
C107 C106 1.503 . S
C107 C108 1.394 . S
C107 C112 1.373 . S
C108 C107 1.394 . S
C108 C109 1.380 . S
C108 H136 0.930 . S
C109 C108 1.380 . S
C109 C110 1.376 . S
C109 H137 0.930 . S
C110 C109 1.376 . S
C110 C111 1.370 . S
C111 C110 1.370 . S
C111 C112 1.396 . S
C111 H138 0.929 1_455 S
C112 C107 1.373 . S
C112 C111 1.396 . S
C112 H139 0.929 1_455 S
C113 O126 1.240 . S
C113 O127 1.289 1_565 S
C114 O128 1.258 1_655 S
C114 O129 1.256 . S
C115 La105 2.928 . S
C115 C116 1.503 . S
C115 O130 1.261 . S
C115 O131 1.243 . S
C116 C115 1.503 . S
C116 C117 1.394 . S
C116 C121 1.373 . S
C117 C116 1.394 . S
C117 C118 1.380 . S
C117 H140 0.930 . S
C118 C117 1.380 . S
C118 C119 1.376 . S
C118 H141 0.930 . S
C119 C118 1.376 . S
C119 C120 1.370 . S
C120 C119 1.370 . S
C120 C121 1.396 . S
C120 H142 0.929 1_655 S
C121 C116 1.373 . S
C121 C120 1.396 . S
C121 H143 0.929 1_655 S
C122 O132 1.240 . S
C122 O133 1.289 1_545 S
C123 O134 1.258 1_455 S
C123 O135 1.256 . S
O124 La104 2.521 . S
O124 C106 1.261 1_556 S
O125 La104 2.628 1_554 S
O125 C106 1.243 . S
O126 La104 2.554 . S
O126 C113 1.240 . S
O127 La104 2.757 1_545 S
O127 La105 2.482 1_455 S
O127 C113 1.289 1_545 S
O128 La104 2.470 . S
O128 C114 1.258 1_455 S
O129 La105 2.503 1_565 S
O129 C114 1.256 . S
O130 La105 2.521 . S
O130 C115 1.261 . S
O131 La105 2.628 . S
O131 C115 1.243 . S
O132 La105 2.554 . S
O132 C122 1.240 . S
O133 La104 2.482 1_655 S
O133 La105 2.757 1_565 S
O133 C122 1.289 1_565 S
O134 La105 2.470 . S
O134 C123 1.258 1_655 S
O135 La104 2.503 1_545 S
O135 C123 1.256 . S
H136 C108 0.930 . S
H137 C109 0.930 . S
H138 C111 0.929 1_655 S
H139 C112 0.929 1_655 S
H140 C117 0.930 . S
H141 C118 0.930 . S
H142 C120 0.929 1_455 S
H143 C121 0.929 1_455 S
La144 C146 2.928 1_556 S
La144 O164 2.521 . S
La144 O165 2.628 1_556 S
La144 O166 2.554 . S
La144 O167 2.757 . S
La144 O168 2.470 . S
La144 O173 2.482 1_545 S
La144 O175 2.503 . S
La145 C155 2.928 . S
La145 O167 2.482 1_565 S
La145 O169 2.503 . S
La145 O170 2.521 . S
La145 O171 2.628 . S
La145 O172 2.554 . S
La145 O173 2.757 . S
La145 O174 2.470 . S
C146 La144 2.928 1_554 S
C146 C147 1.503 . S
C146 O164 1.261 1_554 S
C146 O165 1.243 . S
C147 C146 1.503 . S
C147 C148 1.394 . S
C147 C152 1.373 . S
C148 C147 1.394 . S
C148 C149 1.380 . S
C148 H176 0.930 . S
C149 C148 1.380 . S
C149 C150 1.376 . S
C149 H177 0.930 . S
C150 C149 1.376 . S
C150 C151 1.370 . S
C151 C150 1.370 . S
C151 C152 1.396 . S
C151 H178 0.929 1_545 S
C152 C147 1.373 . S
C152 C151 1.396 . S
C152 H179 0.929 1_545 S
C153 O166 1.240 . S
C153 O167 1.289 . S
C154 O168 1.258 1_565 S
C154 O169 1.256 . S
C155 La145 2.928 . S
C155 C156 1.503 . S
C155 O170 1.261 . S
C155 O171 1.243 . S
C156 C155 1.503 . S
C156 C157 1.394 . S
C156 C161 1.373 . S
C157 C156 1.394 . S
C157 C158 1.380 . S
C157 H180 0.930 . S
C158 C157 1.380 . S
C158 C159 1.376 . S
C158 H181 0.930 . S
C159 C158 1.376 . S
C159 C160 1.370 . S
C160 C159 1.370 . S
C160 C161 1.396 . S
C160 H182 0.929 1_565 S
C161 C156 1.373 . S
C161 C160 1.396 . S
C161 H183 0.929 1_565 S
C162 O172 1.240 . S
C162 O173 1.289 . S
C163 O174 1.258 1_545 S
C163 O175 1.256 . S
O164 La144 2.521 . S
O164 C146 1.261 1_556 S
O165 La144 2.628 1_554 S
O165 C146 1.243 . S
O166 La144 2.554 . S
O166 C153 1.240 . S
O167 La144 2.757 . S
O167 La145 2.482 1_545 S
O167 C153 1.289 . S
O168 La144 2.470 . S
O168 C154 1.258 1_545 S
O169 La145 2.503 . S
O169 C154 1.256 . S
O170 La145 2.521 . S
O170 C155 1.261 . S
O171 La145 2.628 . S
O171 C155 1.243 . S
O172 La145 2.554 . S
O172 C162 1.240 . S
O173 La144 2.482 1_565 S
O173 La145 2.757 . S
O173 C162 1.289 . S
O174 La145 2.470 . S
O174 C163 1.258 1_565 S
O175 La144 2.503 . S
O175 C163 1.256 . S
H176 C148 0.930 . S
H177 C149 0.930 . S
H178 C151 0.929 1_565 S
H179 C152 0.929 1_565 S
H180 C157 0.930 . S
H181 C158 0.930 . S
H182 C160 0.929 1_545 S
H183 C161 0.929 1_545 S
La184 C186 2.928 1_556 S
La184 O204 2.521 . S
La184 O205 2.628 1_556 S
La184 O206 2.554 . S
La184 O207 2.757 . S
La184 O208 2.470 . S
La184 O213 2.482 . S
La184 O215 2.503 . S
La185 C195 2.928 . S
La185 O207 2.482 . S
La185 O209 2.503 . S
La185 O210 2.521 . S
La185 O211 2.628 . S
La185 O212 2.554 . S
La185 O213 2.757 . S
La185 O214 2.470 . S
C186 La184 2.928 1_554 S
C186 C187 1.503 . S
C186 O204 1.261 1_554 S
C186 O205 1.243 . S
C187 C186 1.503 . S
C187 C188 1.394 . S
C187 C192 1.373 . S
C188 C187 1.394 . S
C188 C189 1.380 . S
C188 H216 0.930 . S
C189 C188 1.380 . S
C189 C190 1.376 . S
C189 H217 0.930 . S
C190 C189 1.376 . S
C190 C191 1.370 . S
C191 C190 1.370 . S
C191 C192 1.396 . S
C191 H218 0.929 . S
C192 C187 1.373 . S
C192 C191 1.396 . S
C192 H219 0.929 . S
C193 O206 1.240 . S
C193 O207 1.289 . S
C194 O208 1.258 . S
C194 O209 1.256 . S
C195 La185 2.928 . S
C195 C196 1.503 . S
C195 O210 1.261 . S
C195 O211 1.243 . S
C196 C195 1.503 . S
C196 C197 1.394 . S
C196 C201 1.373 . S
C197 C196 1.394 . S
C197 C198 1.380 . S
C197 H220 0.930 . S
C198 C197 1.380 . S
C198 C199 1.376 . S
C198 H221 0.930 . S
C199 C198 1.376 . S
C199 C200 1.370 . S
C200 C199 1.370 . S
C200 C201 1.396 . S
C200 H222 0.929 . S
C201 C196 1.373 . S
C201 C200 1.396 . S
C201 H223 0.929 . S
C202 O212 1.240 . S
C202 O213 1.289 . S
C203 O214 1.258 . S
C203 O215 1.256 . S
O204 La184 2.521 . S
O204 C186 1.261 1_556 S
O205 La184 2.628 1_554 S
O205 C186 1.243 . S
O206 La184 2.554 . S
O206 C193 1.240 . S
O207 La184 2.757 . S
O207 La185 2.482 . S
O207 C193 1.289 . S
O208 La184 2.470 . S
O208 C194 1.258 . S
O209 La185 2.503 . S
O209 C194 1.256 . S
O210 La185 2.521 . S
O210 C195 1.261 . S
O211 La185 2.628 . S
O211 C195 1.243 . S
O212 La185 2.554 . S
O212 C202 1.240 . S
O213 La184 2.482 . S
O213 La185 2.757 . S
O213 C202 1.289 . S
O214 La185 2.470 . S
O214 C203 1.258 . S
O215 La184 2.503 . S
O215 C203 1.256 . S
H216 C188 0.930 . S
H217 C189 0.930 . S
H218 C191 0.929 . S
H219 C192 0.929 . S
H220 C197 0.930 . S
H221 C198 0.930 . S
H222 C200 0.929 . S
H223 C201 0.929 . S
La224 C226 2.928 1_556 S
La224 O244 2.521 . S
La224 O245 2.628 1_556 S
La224 O246 2.554 . S
La224 O247 2.757 1_655 S
La224 O248 2.470 . S
La224 O253 2.482 . S
La224 O255 2.503 1_655 S
La225 C235 2.928 . S
La225 O247 2.482 . S
La225 O249 2.503 1_455 S
La225 O250 2.521 . S
La225 O251 2.628 . S
La225 O252 2.554 . S
La225 O253 2.757 1_455 S
La225 O254 2.470 . S
C226 La224 2.928 1_554 S
C226 C227 1.503 . S
C226 O244 1.261 1_554 S
C226 O245 1.243 . S
C227 C226 1.503 . S
C227 C228 1.394 . S
C227 C232 1.373 . S
C228 C227 1.394 . S
C228 C229 1.380 . S
C228 H256 0.930 . S
C229 C228 1.380 . S
C229 C230 1.376 . S
C229 H257 0.930 . S
C230 C229 1.376 . S
C230 C231 1.370 . S
C231 C230 1.370 . S
C231 C232 1.396 . S
C231 H258 0.929 . S
C232 C227 1.373 . S
C232 C231 1.396 . S
C232 H259 0.929 . S
C233 O246 1.252 . S
C233 O247 1.282 1_655 S
C234 O248 1.258 . S
C234 O249 1.256 . S
C235 La225 2.928 . S
C235 C236 1.503 . S
C235 O250 1.261 . S
C235 O251 1.243 . S
C236 C235 1.503 . S
C236 C237 1.394 . S
C236 C241 1.373 . S
C237 C236 1.394 . S
C237 C238 1.380 . S
C237 H260 0.930 . S
C238 C237 1.380 . S
C238 C239 1.376 . S
C238 H261 0.930 . S
C239 C238 1.376 . S
C239 C240 1.370 . S
C240 C239 1.370 . S
C240 C241 1.396 . S
C240 H262 0.929 . S
C241 C236 1.373 . S
C241 C240 1.396 . S
C241 H263 0.929 . S
C242 O252 1.257 . S
C242 O253 1.279 1_455 S
C243 O254 1.258 . S
C243 O255 1.256 . S
O244 La224 2.521 . S
O244 C226 1.261 1_556 S
O245 La224 2.628 1_554 S
O245 C226 1.243 . S
O246 La224 2.554 . S
O246 C233 1.252 . S
O247 La224 2.757 1_455 S
O247 La225 2.482 . S
O247 C233 1.282 1_455 S
O248 La224 2.470 . S
O248 C234 1.258 . S
O249 La225 2.503 1_655 S
O249 C234 1.256 . S
O250 La225 2.521 . S
O250 C235 1.261 . S
O251 La225 2.628 . S
O251 C235 1.243 . S
O252 La225 2.554 . S
O252 C242 1.257 . S
O253 La224 2.482 . S
O253 La225 2.757 1_655 S
O253 C242 1.279 1_655 S
O254 La225 2.470 . S
O254 C243 1.258 . S
O255 La224 2.503 1_455 S
O255 C243 1.256 . S
H256 C228 0.930 . S
H257 C229 0.930 . S
H258 C231 0.929 . S
H259 C232 0.929 . S
H260 C237 0.930 . S
H261 C238 0.930 . S
H262 C240 0.929 . S
H263 C241 0.929 . S
H264 C270 0.930 . S
H265 C273 0.930 . S
H266 C274 0.930 . S
H267 C275 0.930 . S
H268 C278 0.930 . S
H269 C279 0.930 . S
C270 H264 0.930 . S
C270 C271 1.355 1_565 S
C270 C272 1.415 . S
C271 C270 1.355 1_545 S
C271 C273 1.419 . S
C272 C270 1.415 . S
C272 C277 1.425 1_565 S
C272 C279 1.409 . S
C273 H265 0.930 . S
C273 C271 1.419 . S
C273 C274 1.362 . S
C274 H266 0.930 . S
C274 C273 1.362 . S
C274 C277 1.409 . S
C275 H267 0.930 . S
C275 C276 1.344 1_545 S
C275 C277 1.415 . S
C276 C275 1.344 1_565 S
C276 C278 1.434 . S
C277 C272 1.425 1_545 S
C277 C274 1.409 . S
C277 C275 1.415 . S
C278 H268 0.930 . S
C278 C276 1.434 . S
C278 C279 1.362 . S
C279 H269 0.930 . S
C279 C272 1.409 . S
C279 C278 1.362 . S
H280 C286 0.930 . S
H281 C289 0.930 . S
H282 C290 0.930 . S
H283 C291 0.930 . S
H284 C294 0.930 . S
H285 C295 0.930 . S
C286 H280 0.930 . S
C286 C287 1.355 . S
C286 C288 1.415 . S
C287 C286 1.355 . S
C287 C289 1.419 . S
C288 C286 1.415 . S
C288 C293 1.425 . S
C288 C295 1.409 . S
C289 H281 0.930 . S
C289 C287 1.419 . S
C289 C290 1.362 . S
C290 H282 0.930 . S
C290 C289 1.362 . S
C290 C293 1.409 . S
C291 H283 0.930 . S
C291 C292 1.355 . S
C291 C293 1.415 . S
C292 C291 1.355 . S
C292 C294 1.419 . S
C293 C288 1.425 . S
C293 C290 1.409 . S
C293 C291 1.415 . S
C294 H284 0.930 . S
C294 C292 1.419 . S
C294 C295 1.362 . S
C295 H285 0.930 . S
C295 C288 1.409 . S
C295 C294 1.362 . S
H296 C302 0.930 . S
H297 C305 0.930 . S
H298 C306 0.930 . S
H299 C307 0.930 . S
H300 C310 0.930 . S
H301 C311 0.930 . S
C302 H296 0.930 . S
C302 C303 1.355 . S
C302 C304 1.415 . S
C303 C302 1.355 . S
C303 C305 1.419 . S
C304 C302 1.415 . S
C304 C309 1.425 . S
C304 C311 1.409 . S
C305 H297 0.930 . S
C305 C303 1.419 . S
C305 C306 1.362 . S
C306 H298 0.930 . S
C306 C305 1.362 . S
C306 C309 1.409 . S
C307 H299 0.930 . S
C307 C308 1.355 . S
C307 C309 1.415 . S
C308 C307 1.355 . S
C308 C310 1.419 . S
C309 C304 1.425 . S
C309 C306 1.409 . S
C309 C307 1.415 . S
C310 H300 0.930 . S
C310 C308 1.419 . S
C310 C311 1.362 . S
C311 H301 0.930 . S
C311 C304 1.409 . S
C311 C310 1.362 . S
H312 C318 0.930 . S
H313 C321 0.930 . S
H314 C322 0.930 . S
H315 C323 0.930 . S
H316 C326 0.930 . S
H317 C327 0.930 . S
C318 H312 0.930 . S
C318 C319 1.355 1_455 S
C318 C320 1.415 . S
C319 C318 1.355 1_655 S
C319 C321 1.419 . S
C320 C318 1.415 . S
C320 C325 1.425 1_455 S
C320 C327 1.409 . S
C321 H313 0.930 . S
C321 C319 1.419 . S
C321 C322 1.362 . S
C322 H314 0.930 . S
C322 C321 1.362 . S
C322 C325 1.409 . S
C323 H315 0.930 . S
C323 C324 1.355 1_655 S
C323 C325 1.415 . S
C324 C323 1.355 1_455 S
C324 C326 1.419 . S
C325 C320 1.425 1_655 S
C325 C322 1.409 . S
C325 C323 1.415 . S
C326 H316 0.930 . S
C326 C324 1.419 . S
C326 C327 1.362 . S
C327 H317 0.930 . S
C327 C320 1.409 . S
C327 C326 1.362 . S
H328 C334 0.930 . S
H329 C337 0.930 . S
H330 C338 0.930 . S
H331 C339 0.930 1_556 S
H332 C342 0.930 . S
H333 C343 0.930 . S
C334 H328 0.930 . S
C334 C335 1.355 1_565 S
C334 C336 1.415 . S
C335 C334 1.355 1_545 S
C335 C337 1.419 . S
C336 C334 1.415 . S
C336 C341 1.425 1_565 S
C336 C343 1.409 . S
C337 H329 0.930 . S
C337 C335 1.419 . S
C337 C338 1.362 . S
C338 H330 0.930 . S
C338 C337 1.362 . S
C338 C341 1.409 . S
C339 H331 0.930 1_554 S
C339 C340 1.355 1_544 S
C339 C341 1.415 . S
C340 C339 1.355 1_566 S
C340 C342 1.419 1_556 S
C341 C336 1.425 1_545 S
C341 C338 1.409 . S
C341 C339 1.415 . S
C342 H332 0.930 . S
C342 C340 1.419 1_554 S
C342 C343 1.362 . S
C343 H333 0.930 . S
C343 C336 1.409 . S
C343 C342 1.362 . S
H344 C350 0.930 . S
H345 C353 0.930 . S
H346 C354 0.930 . S
H347 C355 0.930 . S
H348 C358 0.930 . S
H349 C359 0.930 . S
C350 H344 0.930 . S
C350 C351 1.355 . S
C350 C352 1.415 . S
C351 C350 1.355 . S
C351 C353 1.419 . S
C352 C350 1.415 . S
C352 C357 1.425 . S
C352 C359 1.409 . S
C353 H345 0.930 . S
C353 C351 1.419 . S
C353 C354 1.362 . S
C354 H346 0.930 . S
C354 C353 1.362 . S
C354 C357 1.409 . S
C355 H347 0.930 . S
C355 C356 1.355 . S
C355 C357 1.415 . S
C356 C355 1.355 . S
C356 C358 1.419 . S
C357 C352 1.425 . S
C357 C354 1.409 . S
C357 C355 1.415 . S
C358 H348 0.930 . S
C358 C356 1.419 . S
C358 C359 1.362 . S
C359 H349 0.930 . S
C359 C352 1.409 . S
C359 C358 1.362 . S
H360 C366 0.930 . S
H361 C369 0.930 . S
H362 C370 0.930 . S
H363 C371 0.930 . S
H364 C374 0.925 1_556 S
H365 C375 0.930 . S
C366 H360 0.930 . S
C366 C367 1.355 . S
C366 C368 1.415 . S
C367 C366 1.355 . S
C367 C369 1.419 . S
C368 C366 1.415 . S
C368 C373 1.425 . S
C368 C375 1.409 . S
C369 H361 0.930 . S
C369 C367 1.419 . S
C369 C370 1.362 . S
C370 H362 0.930 . S
C370 C369 1.362 . S
C370 C373 1.409 . S
C371 H363 0.930 . S
C371 C372 1.355 1_554 S
C371 C373 1.415 . S
C372 C371 1.355 1_556 S
C372 C374 1.419 1_556 S
C373 C368 1.425 . S
C373 C370 1.409 . S
C373 C371 1.415 . S
C374 H364 0.925 1_554 S
C374 C372 1.419 1_554 S
C374 C375 1.368 . S
C375 H365 0.930 . S
C375 C368 1.409 . S
C375 C374 1.368 . S
H376 C382 0.930 . S
H377 C385 0.930 . S
H378 C386 0.930 . S
H379 C387 0.930 . S
H380 C390 0.930 1_556 S
H381 C391 0.930 . S
C382 H376 0.930 . S
C382 C383 1.355 1_655 S
C382 C384 1.415 . S
C383 C382 1.355 1_455 S
C383 C385 1.419 . S
C384 C382 1.415 . S
C384 C389 1.425 1_655 S
C384 C391 1.409 . S
C385 H377 0.930 . S
C385 C383 1.419 . S
C385 C386 1.362 . S
C386 H378 0.930 . S
C386 C385 1.362 . S
C386 C389 1.409 . S
C387 H379 0.930 . S
C387 C388 1.355 1_454 S
C387 C389 1.415 . S
C388 C387 1.355 1_656 S
C388 C390 1.419 1_556 S
C389 C384 1.425 1_455 S
C389 C386 1.409 . S
C389 C387 1.415 . S
C390 H380 0.930 1_554 S
C390 C388 1.419 1_554 S
C390 C391 1.362 . S
C391 H381 0.930 . S
C391 C384 1.409 . S
C391 C390 1.362 . S
H392 C398 0.930 . S
H393 C401 0.940 . S
H394 C402 0.930 . S
H395 C403 0.930 . S
H396 C406 0.930 . S
H397 C407 0.930 . S
C398 H392 0.930 . S
C398 C399 1.355 1_655 S
C398 C400 1.415 . S
C399 C398 1.355 1_455 S
C399 C401 1.421 . S
C400 C398 1.415 . S
C400 C405 1.425 . S
C400 C407 1.409 . S
C401 H393 0.940 . S
C401 C399 1.421 . S
C401 C402 1.351 1_455 S
C402 H394 0.930 . S
C402 C401 1.351 1_655 S
C402 C405 1.409 . S
C403 H395 0.930 . S
C403 C404 1.355 . S
C403 C405 1.415 . S
C404 C403 1.355 . S
C404 C406 1.419 . S
C405 C400 1.425 . S
C405 C402 1.409 . S
C405 C403 1.415 . S
C406 H396 0.930 . S
C406 C404 1.419 . S
C406 C407 1.362 . S
C407 H397 0.930 . S
C407 C400 1.409 . S
C407 C406 1.362 . S
H408 C414 0.930 . S
H409 C417 0.930 1_545 S
H410 C418 0.930 . S
H411 C419 0.930 . S
H412 C422 0.930 . S
H413 C423 0.930 . S
C414 H408 0.930 . S
C414 C415 1.347 1_565 S
C414 C416 1.415 . S
C415 C414 1.347 1_545 S
C415 C417 1.416 1_545 S
C416 C414 1.415 . S
C416 C421 1.425 . S
C416 C423 1.409 . S
C417 H409 0.930 1_565 S
C417 C415 1.416 1_565 S
C417 C418 1.362 . S
C418 H410 0.930 . S
C418 C417 1.362 . S
C418 C421 1.409 . S
C419 H411 0.930 . S
C419 C420 1.355 . S
C419 C421 1.415 . S
C420 C419 1.355 . S
C420 C422 1.419 . S
C421 C416 1.425 . S
C421 C418 1.409 . S
C421 C419 1.415 . S
C422 H412 0.930 . S
C422 C420 1.419 . S
C422 C423 1.362 . S
C423 H413 0.930 . S
C423 C416 1.409 . S
C423 C422 1.362 . S
H424 C430 0.930 . S
H425 C433 0.930 . S
H426 C434 0.930 . S
H427 C435 0.930 . S
H428 C438 0.930 . S
H429 C439 0.930 . S
C430 H424 0.930 . S
C430 C431 1.355 . S
C430 C432 1.415 . S
C431 C430 1.355 . S
C431 C433 1.419 . S
C432 C430 1.415 . S
C432 C437 1.425 . S
C432 C439 1.409 . S
C433 H425 0.930 . S
C433 C431 1.419 . S
C433 C434 1.362 . S
C434 H426 0.930 . S
C434 C433 1.362 . S
C434 C437 1.409 . S
C435 H427 0.930 . S
C435 C436 1.355 . S
C435 C437 1.415 . S
C436 C435 1.355 . S
C436 C438 1.419 . S
C437 C432 1.425 . S
C437 C434 1.409 . S
C437 C435 1.415 . S
C438 H428 0.930 . S
C438 C436 1.419 . S
C438 C439 1.362 . S
C439 H429 0.930 . S
C439 C432 1.409 . S
C439 C438 1.362 . S
H440 C446 0.930 . S
H441 C449 0.930 . S
H442 C450 0.930 . S
H443 C451 0.930 . S
H444 C454 0.930 . S
H445 C455 0.930 . S
C446 H440 0.930 . S
C446 C447 1.355 . S
C446 C448 1.415 . S
C447 C446 1.355 . S
C447 C449 1.419 . S
C448 C446 1.415 . S
C448 C453 1.425 . S
C448 C455 1.409 . S
C449 H441 0.930 . S
C449 C447 1.419 . S
C449 C450 1.362 . S
C450 H442 0.930 . S
C450 C449 1.362 . S
C450 C453 1.409 . S
C451 H443 0.930 . S
C451 C452 1.355 . S
C451 C453 1.415 . S
C452 C451 1.355 . S
C452 C454 1.419 . S
C453 C448 1.425 . S
C453 C450 1.409 . S
C453 C451 1.415 . S
C454 H444 0.930 . S
C454 C452 1.419 . S
C454 C455 1.362 . S
C455 H445 0.930 . S
C455 C448 1.409 . S
C455 C454 1.362 . S
H456 C462 0.917 1_655 S
H457 C465 0.930 . S
H458 C466 0.930 . S
H459 C467 0.930 . S
H460 C470 0.930 . S
H461 C471 0.930 . S
C462 H456 0.917 1_455 S
C462 C463 1.352 1_455 S
C462 C464 1.430 . S
C463 C462 1.352 1_655 S
C463 C465 1.419 1_655 S
C464 C462 1.430 . S
C464 C469 1.425 . S
C464 C471 1.409 . S
C465 H457 0.930 . S
C465 C463 1.419 1_455 S
C465 C466 1.362 . S
C466 H458 0.930 . S
C466 C465 1.362 . S
C466 C469 1.409 . S
C467 H459 0.930 . S
C467 C468 1.355 . S
C467 C469 1.415 . S
C468 C467 1.355 . S
C468 C470 1.419 . S
C469 C464 1.425 . S
C469 C466 1.409 . S
C469 C467 1.415 . S
C470 H460 0.930 . S
C470 C468 1.419 . S
C470 C471 1.362 . S
C471 H461 0.930 . S
C471 C464 1.409 . S
C471 C470 1.362 . S
H472 C478 0.930 . S
H473 C481 0.930 . S
H474 C482 0.930 . S
H475 C483 0.930 . S
H476 C486 0.930 . S
H477 C487 0.933 . S
C478 H472 0.930 . S
C478 C479 1.351 1_565 S
C478 C480 1.415 1_565 S
C479 C478 1.351 1_545 S
C479 C481 1.430 . S
C480 C478 1.415 1_545 S
C480 C485 1.425 . S
C480 C487 1.408 1_545 S
C481 H473 0.930 . S
C481 C479 1.430 . S
C481 C482 1.362 . S
C482 H474 0.930 . S
C482 C481 1.362 . S
C482 C485 1.409 . S
C483 H475 0.930 . S
C483 C484 1.355 . S
C483 C485 1.415 . S
C484 C483 1.355 . S
C484 C486 1.419 . S
C485 C480 1.425 . S
C485 C482 1.409 . S
C485 C483 1.415 . S
C486 H476 0.930 . S
C486 C484 1.419 . S
C486 C487 1.361 1_545 S
C487 H477 0.933 . S
C487 C480 1.408 1_565 S
C487 C486 1.361 1_565 S
H488 C494 0.930 . S
H489 C497 0.930 . S
H490 C498 0.930 . S
H491 C499 0.930 . S
H492 C502 0.930 . S
H493 C503 0.930 . S
C494 H488 0.930 . S
C494 C495 1.355 . S
C494 C496 1.415 . S
C495 C494 1.355 . S
C495 C497 1.419 . S
C496 C494 1.415 . S
C496 C501 1.425 . S
C496 C503 1.409 . S
C497 H489 0.930 . S
C497 C495 1.419 . S
C497 C498 1.362 . S
C498 H490 0.930 . S
C498 C497 1.362 . S
C498 C501 1.409 . S
C499 H491 0.930 . S
C499 C500 1.355 . S
C499 C501 1.415 . S
C500 C499 1.355 . S
C500 C502 1.419 . S
C501 C496 1.425 . S
C501 C498 1.409 . S
C501 C499 1.415 . S
C502 H492 0.930 . S
C502 C500 1.419 . S
C502 C503 1.362 . S
C503 H493 0.930 . S
C503 C496 1.409 . S
C503 C502 1.362 . S
H504 C510 0.930 . S
H505 C513 0.930 . S
H506 C514 0.930 . S
H507 C515 0.930 . S
H508 C518 0.930 . S
H509 C519 0.930 . S
C510 H504 0.930 . S
C510 C511 1.355 . S
C510 C512 1.415 . S
C511 C510 1.355 . S
C511 C513 1.419 . S
C512 C510 1.415 . S
C512 C517 1.425 . S
C512 C519 1.409 . S
C513 H505 0.930 . S
C513 C511 1.419 . S
C513 C514 1.362 . S
C514 H506 0.930 . S
C514 C513 1.362 . S
C514 C517 1.409 . S
C515 H507 0.930 . S
C515 C516 1.355 . S
C515 C517 1.415 . S
C516 C515 1.355 . S
C516 C518 1.419 . S
C517 C512 1.425 . S
C517 C514 1.409 . S
C517 C515 1.415 . S
C518 H508 0.930 . S
C518 C516 1.419 . S
C518 C519 1.362 . S
C519 H509 0.930 . S
C519 C512 1.409 . S
C519 C518 1.362 . S
H520 C526 0.930 . S
H521 C529 0.930 . S
H522 C530 0.930 . S
H523 C531 0.930 . S
H524 C534 0.930 . S
H525 C535 0.930 . S
C526 H520 0.930 . S
C526 C527 1.374 . S
C526 C528 1.415 . S
C527 C526 1.374 . S
C527 C529 1.397 1_455 S
C528 C526 1.415 . S
C528 C533 1.425 1_455 S
C528 C535 1.409 . S
C529 H521 0.930 . S
C529 C527 1.397 1_655 S
C529 C530 1.362 . S
C530 H522 0.930 . S
C530 C529 1.362 . S
C530 C533 1.409 . S
C531 H523 0.930 . S
C531 C532 1.355 1_655 S
C531 C533 1.415 . S
C532 C531 1.355 1_455 S
C532 C534 1.419 . S
C533 C528 1.425 1_655 S
C533 C530 1.409 . S
C533 C531 1.415 . S
C534 H524 0.930 . S
C534 C532 1.419 . S
C534 C535 1.362 . S
C535 H525 0.930 . S
C535 C528 1.409 . S
C535 C534 1.362 . S
H536 C542 0.930 . S
H537 C545 0.930 . S
H538 C546 0.930 . S
H539 C547 0.930 . S
H540 C550 0.930 . S
H541 C551 0.930 . S
C542 H536 0.930 . S
C542 C543 1.384 . S
C542 C544 1.415 . S
C543 C542 1.384 . S
C543 C545 1.387 1_545 S
C544 C542 1.415 . S
C544 C549 1.425 1_545 S
C544 C551 1.409 . S
C545 H537 0.930 . S
C545 C543 1.387 1_565 S
C545 C546 1.362 . S
C546 H538 0.930 . S
C546 C545 1.362 . S
C546 C549 1.409 . S
C547 H539 0.930 . S
C547 C548 1.355 1_565 S
C547 C549 1.415 . S
C548 C547 1.355 1_545 S
C548 C550 1.419 . S
C549 C544 1.425 1_565 S
C549 C546 1.409 . S
C549 C547 1.415 . S
C550 H540 0.930 . S
C550 C548 1.419 . S
C550 C551 1.362 . S
C551 H541 0.930 . S
C551 C544 1.409 . S
C551 C550 1.362 . S
H552 C558 0.930 . S
H553 C561 0.930 . S
H554 C562 0.930 1_554 S
H555 C563 0.930 . S
H556 C566 0.930 . S
H557 C567 0.930 . S
C558 H552 0.930 . S
C558 C559 1.355 . S
C558 C560 1.415 . S
C559 C558 1.355 . S
C559 C561 1.419 . S
C560 C558 1.415 . S
C560 C565 1.425 . S
C560 C567 1.409 . S
C561 H553 0.930 . S
C561 C559 1.419 . S
C561 C562 1.362 . S
C562 H554 0.930 1_556 S
C562 C561 1.362 . S
C562 C565 1.409 . S
C563 H555 0.930 . S
C563 C564 1.355 . S
C563 C565 1.415 . S
C564 C563 1.355 . S
C564 C566 1.419 . S
C565 C560 1.425 . S
C565 C562 1.409 . S
C565 C563 1.415 . S
C566 H556 0.930 . S
C566 C564 1.419 . S
C566 C567 1.362 . S
C567 H557 0.930 . S
C567 C560 1.409 . S
C567 C566 1.362 . S
H568 C574 0.930 . S
H569 C577 0.930 . S
H570 C578 0.930 . S
H571 C579 0.930 . S
H572 C582 0.930 . S
H573 C583 0.930 . S
C574 H568 0.930 . S
C574 C575 1.355 . S
C574 C576 1.415 . S
C575 C574 1.355 . S
C575 C577 1.419 . S
C576 C574 1.415 . S
C576 C581 1.425 . S
C576 C583 1.409 . S
C577 H569 0.930 . S
C577 C575 1.419 . S
C577 C578 1.362 . S
C578 H570 0.930 . S
C578 C577 1.362 . S
C578 C581 1.409 . S
C579 H571 0.930 . S
C579 C580 1.355 . S
C579 C581 1.415 . S
C580 C579 1.355 . S
C580 C582 1.419 . S
C581 C576 1.425 . S
C581 C578 1.409 . S
C581 C579 1.415 . S
C582 H572 0.930 . S
C582 C580 1.419 . S
C582 C583 1.362 . S
C583 H573 0.930 . S
C583 C576 1.409 . S
C583 C582 1.362 . S
H584 C590 0.930 . S
H585 C593 0.930 . S
H586 C594 0.930 . S
H587 C595 0.930 . S
H588 C598 0.930 . S
H589 C599 0.930 . S
C590 H584 0.930 . S
C590 C591 1.355 . S
C590 C592 1.415 . S
C591 C590 1.355 . S
C591 C593 1.419 1_655 S
C592 C590 1.415 . S
C592 C597 1.425 1_655 S
C592 C599 1.409 . S
C593 H585 0.930 . S
C593 C591 1.419 1_455 S
C593 C594 1.362 . S
C594 H586 0.930 . S
C594 C593 1.362 . S
C594 C597 1.409 . S
C595 H587 0.930 . S
C595 C596 1.355 1_455 S
C595 C597 1.415 . S
C596 C595 1.355 1_655 S
C596 C598 1.419 . S
C597 C592 1.425 1_455 S
C597 C594 1.409 . S
C597 C595 1.415 . S
C598 H588 0.930 . S
C598 C596 1.419 . S
C598 C599 1.362 . S
C599 H589 0.930 . S
C599 C592 1.409 . S
C599 C598 1.362 . S
H600 C606 0.930 . S
H601 C609 0.930 . S
H602 C610 0.930 . S
H603 C611 0.930 . S
H604 C614 0.930 . S
H605 C615 0.930 . S
C606 H600 0.930 . S
C606 C607 1.364 . S
C606 C608 1.415 . S
C607 C606 1.364 . S
C607 C609 1.409 1_565 S
C608 C606 1.415 . S
C608 C613 1.425 1_565 S
C608 C615 1.409 . S
C609 H601 0.930 . S
C609 C607 1.409 1_545 S
C609 C610 1.362 . S
C610 H602 0.930 . S
C610 C609 1.362 . S
C610 C613 1.409 . S
C611 H603 0.930 . S
C611 C612 1.355 1_545 S
C611 C613 1.415 . S
C612 C611 1.355 1_565 S
C612 C614 1.419 . S
C613 C608 1.425 1_545 S
C613 C610 1.409 . S
C613 C611 1.415 . S
C614 H604 0.930 . S
C614 C612 1.419 . S
C614 C615 1.362 . S
C615 H605 0.930 . S
C615 C608 1.409 . S
C615 C614 1.362 . S
H616 C622 0.930 . S
H617 C625 0.930 . S
H618 C626 0.930 . S
H619 C627 0.930 . S
H620 C630 0.930 . S
H621 C631 0.930 . S
C622 H616 0.930 . S
C622 C623 1.355 . S
C622 C624 1.415 . S
C623 C622 1.355 . S
C623 C625 1.419 . S
C624 C622 1.415 . S
C624 C629 1.425 . S
C624 C631 1.409 . S
C625 H617 0.930 . S
C625 C623 1.419 . S
C625 C626 1.362 . S
C626 H618 0.930 . S
C626 C625 1.362 . S
C626 C629 1.409 . S
C627 H619 0.930 . S
C627 C628 1.355 . S
C627 C629 1.415 . S
C628 C627 1.355 . S
C628 C630 1.419 . S
C629 C624 1.425 . S
C629 C626 1.409 . S
C629 C627 1.415 . S
C630 H620 0.930 . S
C630 C628 1.419 . S
C630 C631 1.362 . S
C631 H621 0.930 . S
C631 C624 1.409 . S
C631 C630 1.362 . S
H632 C638 0.930 . S
H633 C641 0.930 . S
H634 C642 0.930 . S
H635 C643 0.930 . S
H636 C646 0.930 . S
H637 C647 0.930 . S
C638 H632 0.930 . S
C638 C639 1.355 . S
C638 C640 1.415 . S
C639 C638 1.355 . S
C639 C641 1.419 . S
C640 C638 1.415 . S
C640 C645 1.425 . S
C640 C647 1.409 . S
C641 H633 0.930 . S
C641 C639 1.419 . S
C641 C642 1.362 . S
C642 H634 0.930 . S
C642 C641 1.362 . S
C642 C645 1.409 . S
C643 H635 0.930 . S
C643 C644 1.355 . S
C643 C645 1.415 . S
C644 C643 1.355 . S
C644 C646 1.419 . S
C645 C640 1.425 . S
C645 C642 1.409 . S
C645 C643 1.415 . S
C646 H636 0.930 . S
C646 C644 1.419 . S
C646 C647 1.362 . S
C647 H637 0.930 . S
C647 C640 1.409 . S
C647 C646 1.362 . S
C271 C82 1.657 . S
C276 C113 2.037 . S
C292 C153 2.052 . S
C287 C95 1.763 . S
C308 C193 2.061 . S
C303 C56 1.776 . S
C324 C233 2.057 1_455 S
C319 C69 1.707 1_655 S
C340 C122 2.052 1_565 S
C335 C30 1.684 . S
C351 C43 1.701 . S
C356 C162 2.052 1_554 S
C367 C4 1.759 . S
C372 C202 2.051 . S
C383 C17 1.728 . S
C388 C242 2.056 1_655 S
C404 C119 0.673 . S
C399 C74 0.600 . S
C420 C159 0.624 . S
C415 C87 0.686 . S
C436 C199 0.572 . S
C431 C100 0.636 . S
C447 C61 0.688 . S
C452 C239 0.625 . S
C463 C22 0.706 1_655 S
C468 C110 0.652 . S
C484 C150 0.589 . S
C479 C35 0.654 . S
C500 C190 0.728 . S
C495 C48 0.704 . S
C511 C9 0.635 . S
C516 C230 0.574 . S
C527 C73 2.162 . S
C532 C123 2.409 . S
C543 C86 2.137 . S
C548 C163 2.381 . S
C564 C203 2.347 . S
C559 C99 2.054 . S
C580 C243 2.403 . S
C575 C60 2.138 . S
C591 C21 2.111 1_655 S
C596 C114 2.416 . S
C612 C154 2.384 . S
C607 C34 2.097 1_565 S
C628 C194 2.363 . S
C623 C47 2.139 . S
C639 C8 2.148 . S
C644 C234 2.370 . S
