# Generated by pormake.
# Topology ctn, (3,4)-cn, num edge types: 1
# Building blocks:
#     Node 0, Type 0, BuildingBlock: BETDIP_clean_linker_0, # of connection points: 3
#     Node 1, Type 0, BuildingBlock: BETDIP_clean_linker_0, # of connection points: 3
#     Node 2, Type 0, BuildingBlock: BETDIP_clean_linker_0, # of connection points: 3
#     Node 3, Type 0, BuildingBlock: BETDIP_clean_linker_0, # of connection points: 3
#     Node 4, Type 0, BuildingBlock: BETDIP_clean_linker_0, # of connection points: 3
#     Node 5, Type 0, BuildingBlock: BETDIP_clean_linker_0, # of connection points: 3
#     Node 6, Type 0, BuildingBlock: BETDIP_clean_linker_0, # of connection points: 3
#     Node 7, Type 0, BuildingBlock: BETDIP_clean_linker_0, # of connection points: 3
#     Node 8, Type 0, BuildingBlock: BETDIP_clean_linker_0, # of connection points: 3
#     Node 9, Type 0, BuildingBlock: BETDIP_clean_linker_0, # of connection points: 3
#     Node 10, Type 0, BuildingBlock: BETDIP_clean_linker_0, # of connection points: 3
#     Node 11, Type 0, BuildingBlock: BETDIP_clean_linker_0, # of connection points: 3
#     Node 12, Type 0, BuildingBlock: BETDIP_clean_linker_0, # of connection points: 3
#     Node 13, Type 0, BuildingBlock: BETDIP_clean_linker_0, # of connection points: 3
#     Node 14, Type 0, BuildingBlock: BETDIP_clean_linker_0, # of connection points: 3
#     Node 15, Type 0, BuildingBlock: BETDIP_clean_linker_0, # of connection points: 3
#     Node 16, Type 1, BuildingBlock: NAHDIM_clean_sbu_0, # of connection points: 4
#     Node 17, Type 1, BuildingBlock: NAHDIM_clean_sbu_0, # of connection points: 4
#     Node 18, Type 1, BuildingBlock: NAHDIM_clean_sbu_0, # of connection points: 4
#     Node 19, Type 1, BuildingBlock: NAHDIM_clean_sbu_0, # of connection points: 4
#     Node 20, Type 1, BuildingBlock: NAHDIM_clean_sbu_0, # of connection points: 4
#     Node 21, Type 1, BuildingBlock: NAHDIM_clean_sbu_0, # of connection points: 4
#     Node 22, Type 1, BuildingBlock: NAHDIM_clean_sbu_0, # of connection points: 4
#     Node 23, Type 1, BuildingBlock: NAHDIM_clean_sbu_0, # of connection points: 4
#     Node 24, Type 1, BuildingBlock: NAHDIM_clean_sbu_0, # of connection points: 4
#     Node 25, Type 1, BuildingBlock: NAHDIM_clean_sbu_0, # of connection points: 4
#     Node 26, Type 1, BuildingBlock: NAHDIM_clean_sbu_0, # of connection points: 4
#     Node 27, Type 1, BuildingBlock: NAHDIM_clean_sbu_0, # of connection points: 4
#     Edge 28, Type (0, 1), BuildingBlock: XIVTED_clean_linker_0, # of connection points: 2
#     Edge 29, Type (0, 1), BuildingBlock: XIVTED_clean_linker_0, # of connection points: 2
#     Edge 30, Type (0, 1), BuildingBlock: XIVTED_clean_linker_0, # of connection points: 2
#     Edge 31, Type (0, 1), BuildingBlock: XIVTED_clean_linker_0, # of connection points: 2
#     Edge 32, Type (0, 1), BuildingBlock: XIVTED_clean_linker_0, # of connection points: 2
#     Edge 33, Type (0, 1), BuildingBlock: XIVTED_clean_linker_0, # of connection points: 2
#     Edge 34, Type (0, 1), BuildingBlock: XIVTED_clean_linker_0, # of connection points: 2
#     Edge 35, Type (0, 1), BuildingBlock: XIVTED_clean_linker_0, # of connection points: 2
#     Edge 36, Type (0, 1), BuildingBlock: XIVTED_clean_linker_0, # of connection points: 2
#     Edge 37, Type (0, 1), BuildingBlock: XIVTED_clean_linker_0, # of connection points: 2
#     Edge 38, Type (0, 1), BuildingBlock: XIVTED_clean_linker_0, # of connection points: 2
#     Edge 39, Type (0, 1), BuildingBlock: XIVTED_clean_linker_0, # of connection points: 2
#     Edge 40, Type (0, 1), BuildingBlock: XIVTED_clean_linker_0, # of connection points: 2
#     Edge 41, Type (0, 1), BuildingBlock: XIVTED_clean_linker_0, # of connection points: 2
#     Edge 42, Type (0, 1), BuildingBlock: XIVTED_clean_linker_0, # of connection points: 2
#     Edge 43, Type (0, 1), BuildingBlock: XIVTED_clean_linker_0, # of connection points: 2
#     Edge 44, Type (0, 1), BuildingBlock: XIVTED_clean_linker_0, # of connection points: 2
#     Edge 45, Type (0, 1), BuildingBlock: XIVTED_clean_linker_0, # of connection points: 2
#     Edge 46, Type (0, 1), BuildingBlock: XIVTED_clean_linker_0, # of connection points: 2
#     Edge 47, Type (0, 1), BuildingBlock: XIVTED_clean_linker_0, # of connection points: 2
#     Edge 48, Type (0, 1), BuildingBlock: XIVTED_clean_linker_0, # of connection points: 2
#     Edge 49, Type (0, 1), BuildingBlock: XIVTED_clean_linker_0, # of connection points: 2
#     Edge 50, Type (0, 1), BuildingBlock: XIVTED_clean_linker_0, # of connection points: 2
#     Edge 51, Type (0, 1), BuildingBlock: XIVTED_clean_linker_0, # of connection points: 2
#     Edge 52, Type (0, 1), BuildingBlock: XIVTED_clean_linker_0, # of connection points: 2
#     Edge 53, Type (0, 1), BuildingBlock: XIVTED_clean_linker_0, # of connection points: 2
#     Edge 54, Type (0, 1), BuildingBlock: XIVTED_clean_linker_0, # of connection points: 2
#     Edge 55, Type (0, 1), BuildingBlock: XIVTED_clean_linker_0, # of connection points: 2
#     Edge 56, Type (0, 1), BuildingBlock: XIVTED_clean_linker_0, # of connection points: 2
#     Edge 57, Type (0, 1), BuildingBlock: XIVTED_clean_linker_0, # of connection points: 2
#     Edge 58, Type (0, 1), BuildingBlock: XIVTED_clean_linker_0, # of connection points: 2
#     Edge 59, Type (0, 1), BuildingBlock: XIVTED_clean_linker_0, # of connection points: 2
#     Edge 60, Type (0, 1), BuildingBlock: XIVTED_clean_linker_0, # of connection points: 2
#     Edge 61, Type (0, 1), BuildingBlock: XIVTED_clean_linker_0, # of connection points: 2
#     Edge 62, Type (0, 1), BuildingBlock: XIVTED_clean_linker_0, # of connection points: 2
#     Edge 63, Type (0, 1), BuildingBlock: XIVTED_clean_linker_0, # of connection points: 2
#     Edge 64, Type (0, 1), BuildingBlock: XIVTED_clean_linker_0, # of connection points: 2
#     Edge 65, Type (0, 1), BuildingBlock: XIVTED_clean_linker_0, # of connection points: 2
#     Edge 66, Type (0, 1), BuildingBlock: XIVTED_clean_linker_0, # of connection points: 2
#     Edge 67, Type (0, 1), BuildingBlock: XIVTED_clean_linker_0, # of connection points: 2
#     Edge 68, Type (0, 1), BuildingBlock: XIVTED_clean_linker_0, # of connection points: 2
#     Edge 69, Type (0, 1), BuildingBlock: XIVTED_clean_linker_0, # of connection points: 2
#     Edge 70, Type (0, 1), BuildingBlock: XIVTED_clean_linker_0, # of connection points: 2
#     Edge 71, Type (0, 1), BuildingBlock: XIVTED_clean_linker_0, # of connection points: 2
#     Edge 72, Type (0, 1), BuildingBlock: XIVTED_clean_linker_0, # of connection points: 2
#     Edge 73, Type (0, 1), BuildingBlock: XIVTED_clean_linker_0, # of connection points: 2
#     Edge 74, Type (0, 1), BuildingBlock: XIVTED_clean_linker_0, # of connection points: 2
#     Edge 75, Type (0, 1), BuildingBlock: XIVTED_clean_linker_0, # of connection points: 2
# Relax obj value: 0.070
# Max RMSD: 0.190
# Mean RMSD: 0.117
data_MOF--net-ctn--node1-NAHDIM_clean_sbu_0--node2-BETDIP_clean_linker_0--edge1-XIVTED_clean_linker_0
_symmetry_space_group_name_H-M    P1
_symmetry_Int_Tables_number       1
_symmetry_cell_setting            triclinic
loop_
_symmetry_equiv_pos_as_xyz
'x, y, z'
_cell_length_a     52.656582
_cell_length_b     53.277442
_cell_length_c     57.982772
_cell_angle_alpha  94.948901
_cell_angle_beta   93.790121
_cell_angle_gamma 95.483237
loop_
_atom_site_label
_atom_site_type_symbol
_atom_site_fract_x
_atom_site_fract_y
_atom_site_fract_z
_atom_type_partial_charge
H0 H 0.02651 0.0707 0.06169 0.0
H1 H 0.08761 0.04573 0.023 0.0
H2 H 0.07097 0.01304 0.08605 0.0
H3 H 0.08935 0.08477 0.01156 0.0
C4 C 0.06939 0.08831 0.00947 0.0
C5 C 0.04201 0.05884 0.05989 0.0
C6 C 0.04667 0.04143 0.07622 0.0
C7 C 0.05712 0.06107 0.04106 0.0
C8 C 0.07669 0.04518 0.03814 0.0
C9 C 0.08179 0.02777 0.05426 0.0
C10 C 0.0667 0.02602 0.07326 0.0
N11 N 0.05173 0.07894 0.02499 0.0
H12 H 0.25742 0.66744 0.19119 0.0
H13 H 0.32187 0.72009 0.21663 0.0
H14 H 0.30496 0.65261 0.25084 0.0
H15 H 0.2956 0.74816 0.20156 0.0
C16 C 0.2888 0.73746 0.18515 0.0
C17 C 0.27373 0.6728 0.20363 0.0
C18 C 0.27939 0.65713 0.22116 0.0
C19 C 0.28842 0.69581 0.20235 0.0
C20 C 0.30962 0.70294 0.21833 0.0
C21 C 0.31581 0.68746 0.23588 0.0
C22 C 0.30045 0.66463 0.2373 0.0
N23 N 0.28199 0.71093 0.18426 0.0
H24 H 0.95737 0.48963 0.99118 0.0
H25 H 0.00594 0.45675 0.04001 0.0
H26 H 0.97377 0.52554 0.06077 0.0
H27 H 0.9892 0.42057 0.01861 0.0
C28 C 0.9895 0.42615 0.00104 0.0
C29 C 0.96691 0.49035 0.00841 0.0
C30 C 0.96394 0.51028 0.02524 0.0
C31 C 0.98134 0.47065 0.01378 0.0
C32 C 0.99365 0.47121 0.03609 0.0
C33 C 0.99089 0.49084 0.05324 0.0
C34 C 0.976 0.51033 0.04765 0.0
N35 N 0.9835 0.45072 0.9963 0.0
H36 H 0.71531 0.78652 0.17127 0.0
H37 H 0.73178 0.8537 0.21855 0.0
H38 H 0.7762 0.84294 0.15976 0.0
H39 H 0.7144 0.82865 0.24387 0.0
C40 C 0.69942 0.81613 0.23381 0.0
C41 C 0.72673 0.80438 0.1764 0.0
C42 C 0.74632 0.81299 0.16279 0.0
C43 C 0.72175 0.81852 0.19681 0.0
C44 C 0.73602 0.84206 0.20334 0.0
C45 C 0.7554 0.85113 0.18976 0.0
C46 C 0.76053 0.83641 0.16967 0.0
N47 N 0.70196 0.80862 0.21003 0.0
H48 H 0.02321 0.97272 0.44658 0.0
H49 H 0.09108 -0.00175 0.49092 0.0
H50 H 0.06993 0.04036 0.43414 0.0
H51 H 0.08866 0.95876 0.49992 0.0
C52 C 0.06854 0.95173 0.49849 0.0
C53 C 0.03976 0.98638 0.45119 0.0
C54 C 0.04442 0.00705 0.43802 0.0
C55 C 0.05668 0.98264 0.46995 0.0
C56 C 0.07831 0.00019 0.47595 0.0
C57 C 0.0832 0.02101 0.46304 0.0
C58 C 0.06617 0.02432 0.44415 0.0
N59 N 0.05102 0.96136 0.48262 0.0
H60 H 0.19589 0.73682 0.81874 0.0
H61 H 0.22754 0.6769 0.77952 0.0
H62 H 0.26691 0.71096 0.84361 0.0
H63 H 0.20748 0.69556 0.7492 0.0
C64 C 0.18952 0.69957 0.75622 0.0
C65 C 0.21103 0.72456 0.81669 0.0
C66 C 0.23166 0.72622 0.83357 0.0
C67 C 0.20972 0.70732 0.79699 0.0
C68 C 0.22876 0.69079 0.79444 0.0
C69 C 0.24939 0.69198 0.81127 0.0
C70 C 0.25089 0.70988 0.8307 0.0
N71 N 0.18877 0.70694 0.78026 0.0
H72 H 0.9972 0.57845 0.46018 0.0
H73 H 0.95225 0.50632 0.44921 0.0
H74 H 0.94197 0.55749 0.50845 0.0
H75 H 0.98332 0.49522 0.42763 0.0
C76 C 0.99174 0.51223 0.42089 0.0
C77 C 0.9828 0.5649 0.46587 0.0
C78 C 0.97016 0.571 0.48587 0.0
C79 C 0.97703 0.54144 0.45291 0.0
C80 C 0.95779 0.52402 0.45967 0.0
C81 C 0.94487 0.52978 0.47961 0.0
C82 C 0.95129 0.55326 0.49266 0.0
N83 N 0.99063 0.53644 0.43293 0.0
H84 H 0.77696 0.81751 0.75555 0.0
H85 H 0.81587 0.77012 0.79929 0.0
H86 H 0.74675 0.79962 0.81996 0.0
H87 H 0.85 0.78614 0.78134 0.0
C88 C 0.84242 0.78665 0.76352 0.0
C89 C 0.77786 0.80776 0.77119 0.0
C90 C 0.75949 0.81062 0.78743 0.0
C91 C 0.79834 0.79351 0.77544 0.0
C92 C 0.80015 0.78129 0.79596 0.0
C93 C 0.78172 0.78354 0.81231 0.0
C94 C 0.76138 0.79814 0.80776 0.0
N95 N 0.81677 0.79193 0.7587 0.0
H96 H 0.28152 0.29787 0.24677 0.0
H97 H 0.31204 0.24943 0.29473 0.0
H98 H 0.24836 0.29073 0.31193 0.0
H99 H 0.34786 0.25796 0.27628 0.0
C100 C 0.34152 0.25966 0.25834 0.0
C101 C 0.2809 0.2896 0.26319 0.0
C102 C 0.26293 0.29639 0.27877 0.0
C103 C 0.29873 0.27291 0.26884 0.0
C104 C 0.29824 0.26231 0.29023 0.0
C105 C 0.28011 0.26861 0.30601 0.0
C106 C 0.26233 0.28551 0.29995 0.0
N107 N 0.3171 0.26768 0.2527 0.0
H108 H 0.46104 0.99231 0.48225 0.0
H109 H 0.5129 0.96275 0.53058 0.0
H110 H 0.467 0.02076 0.55452 0.0
H111 H 0.53509 0.95805 0.49716 0.0
C112 C 0.51899 0.94918 0.48565 0.0
C113 C 0.46935 0.99232 0.49985 0.0
C114 C 0.46156 0.00861 0.51785 0.0
C115 C 0.4883 0.97629 0.50419 0.0
C116 C 0.49921 0.97607 0.52692 0.0
C117 C 0.49175 0.99211 0.54519 0.0
C118 C 0.47293 0.0084 0.54049 0.0
N119 N 0.49515 0.95964 0.48568 0.0
H120 H 0.21566 0.2945 0.66941 0.0
H121 H 0.23166 0.36172 0.71667 0.0
H122 H 0.27776 0.35017 0.65914 0.0
H123 H 0.21374 0.33656 0.74174 0.0
C124 C 0.19871 0.3243 0.73148 0.0
C125 C 0.22716 0.31229 0.6747 0.0
C126 C 0.24736 0.32056 0.66159 0.0
C127 C 0.22174 0.32658 0.69486 0.0
C128 C 0.23618 0.34998 0.70163 0.0
C129 C 0.25614 0.35875 0.68853 0.0
C130 C 0.26166 0.34389 0.66866 0.0
N131 N 0.20148 0.31693 0.7077 0.0
H132 H 0.74879 0.18487 0.7027 0.0
H133 H 0.82033 0.22803 0.72553 0.0
H134 H 0.79352 0.16536 0.76242 0.0
H135 H 0.82063 0.22909 0.68513 0.0
C136 C 0.80137 0.23426 0.68162 0.0
C137 C 0.76551 0.18829 0.71492 0.0
C138 C 0.76866 0.17261 0.733 0.0
C139 C 0.78429 0.20779 0.71176 0.0
C140 C 0.80603 0.21246 0.72742 0.0
C141 C 0.80947 0.19717 0.74566 0.0
C142 C 0.79094 0.17703 0.7482 0.0
N143 N 0.78078 0.22258 0.69281 0.0
H144 H 0.52104 0.56829 0.56336 0.0
H145 H 0.57623 0.53704 0.52082 0.0
H146 H 0.55976 0.50533 0.58435 0.0
H147 H 0.58045 0.57563 0.50883 0.0
C148 C 0.56143 0.5819 0.50862 0.0
C149 C 0.53482 0.5547 0.56046 0.0
C150 C 0.53861 0.53669 0.57638 0.0
C151 C 0.54862 0.55536 0.54065 0.0
C152 C 0.5659 0.53723 0.53633 0.0
C153 C 0.57006 0.51918 0.55207 0.0
C154 C 0.55646 0.51914 0.5721 0.0
N155 N 0.5443 0.57416 0.52523 0.0
H156 H 0.53131 0.46643 0.94804 0.0
H157 H 0.59892 0.49069 0.99308 0.0
H158 H 0.58258 0.52992 0.93315 0.0
H159 H 0.59309 0.45363 0.00589 0.0
C160 C 0.57303 0.44657 0.00297 0.0
C161 C 0.54867 0.47911 0.95223 0.0
C162 C 0.555 0.49859 0.93811 0.0
C163 C 0.56445 0.47581 0.9719 0.0
C164 C 0.58667 0.49261 0.97778 0.0
C165 C 0.59341 0.51211 0.96382 0.0
C166 C 0.57747 0.51494 0.94402 0.0
N167 N 0.5571 0.45563 0.98542 0.0
H168 H 0.72658 0.26731 0.32014 0.0
H169 H 0.75519 0.20776 0.27804 0.0
H170 H 0.79439 0.23533 0.34426 0.0
H171 H 0.73188 0.22311 0.24911 0.0
C172 C 0.7153 0.22915 0.25739 0.0
C173 C 0.74092 0.25425 0.31748 0.0
C174 C 0.76104 0.25366 0.33446 0.0
C175 C 0.73878 0.23799 0.29712 0.0
C176 C 0.75686 0.22057 0.2937 0.0
C177 C 0.77705 0.21939 0.31063 0.0
C178 C 0.77901 0.23608 0.33103 0.0
N179 N 0.7175 0.23907 0.28104 0.0
H180 H 0.49849 0.06884 0.96884 0.0
H181 H 0.45394 0.99694 0.95162 0.0
H182 H 0.44374 0.04141 0.01501 0.0
H183 H 0.46438 0.00188 0.91568 0.0
C184 C 0.48263 0.01343 0.91698 0.0
C185 C 0.48388 0.05457 0.97305 0.0
C186 C 0.47211 0.05767 0.99399 0.0
C187 C 0.47717 0.03306 0.95744 0.0
C188 C 0.45869 0.01411 0.96304 0.0
C189 C 0.44675 0.01691 0.98395 0.0
C190 C 0.45351 0.03878 -0.00077 0.0
N191 N 0.49009 0.03093 0.93671 0.0
C192 C 0.22361 0.91927 0.02237 0.0
O193 O 0.24544 0.92932 0.01588 0.0
O194 O 0.23882 0.84772 0.99151 0.0
Zn195 Zn 0.24881 0.87321 0.0189 0.0
O196 O 0.28089 0.89366 0.01164 0.0
C197 C 0.26298 0.83286 0.04536 0.0
O198 O 0.26605 0.82201 0.02465 0.0
O199 O 0.2206 0.89565 0.02452 0.0
C200 C 0.29943 0.90117 0.02653 0.0
O201 O 0.29797 0.89565 0.04808 0.0
C202 C 0.23709 0.85484 0.97118 0.0
O203 O 0.24013 0.87916 0.96852 0.0
O204 O 0.25575 0.85498 0.04724 0.0
C205 C 0.15857 0.44112 0.2564 0.0
O206 O 0.16847 0.4638 0.26508 0.0
O207 O 0.09678 0.47409 0.27181 0.0
Zn208 Zn 0.1176 0.4697 0.24413 0.0
O209 O 0.14361 0.49996 0.24366 0.0
C210 C 0.08648 0.48741 0.20841 0.0
O211 O 0.09323 0.50875 0.22139 0.0
O212 O 0.13618 0.43842 0.24628 0.0
C213 C 0.15627 0.50235 0.22593 0.0
O214 O 0.152 0.48504 0.20818 0.0
C215 C 0.09438 0.49589 0.28166 0.0
O216 O 0.10575 0.516 0.27361 0.0
O217 O 0.0944 0.46708 0.21476 0.0
C218 C 0.84084 0.63507 0.9851 0.0
O219 O 0.83487 0.6378 0.96316 0.0
O220 O 0.80219 0.68317 0.96475 0.0
Zn221 Zn 0.79755 0.66366 0.99268 0.0
O222 O 0.76683 0.63825 0.98515 0.0
C223 C 0.79912 0.70995 0.02408 0.0
O224 O 0.81377 0.72019 0.00921 0.0
O225 O 0.82792 0.64501 0.00055 0.0
C226 C 0.75467 0.62915 0.00125 0.0
O227 O 0.7627 0.63622 0.02298 0.0
C228 C 0.7855 0.69801 0.95988 0.0
O229 O 0.76673 0.70044 0.97348 0.0
O230 O 0.79069 0.68669 0.02048 0.0
C231 C 0.90082 0.09225 0.27314 0.0
O232 O 0.92452 0.09529 0.28233 0.0
O233 O 0.93773 0.0393 0.28065 0.0
Zn234 Zn 0.91401 0.0434 0.25297 0.0
O235 O 0.88948 0.01196 0.24614 0.0
C236 C 0.94366 0.0296 0.21554 0.0
O237 O 0.93986 0.00766 0.22417 0.0
O238 O 0.89301 0.07229 0.26002 0.0
C239 C 0.87406 0.00997 0.22813 0.0
O240 O 0.87495 0.0283 0.21434 0.0
C241 C 0.92857 0.03314 0.29933 0.0
O242 O 0.90362 0.02979 0.30021 0.0
O243 O 0.93432 0.04864 0.22517 0.0
C244 C 0.32443 0.12323 0.48812 0.0
O245 O 0.30613 0.11601 0.47171 0.0
O246 O 0.29541 0.18039 0.46594 0.0
Zn247 Zn 0.29275 0.16304 0.49545 0.0
O248 O 0.26114 0.13824 0.49144 0.0
C249 C 0.29854 0.21041 0.52657 0.0
O250 O 0.31281 0.22 0.5111 0.0
O251 O 0.32327 0.14366 0.50088 0.0
C252 C 0.2393 0.14563 0.49467 0.0
O253 O 0.23757 0.16969 0.50079 0.0
C254 C 0.28226 0.19839 0.46138 0.0
O255 O 0.26704 0.20683 0.47667 0.0
O256 O 0.28914 0.18741 0.52331 0.0
C257 C 0.38026 0.57075 0.78231 0.0
O258 O 0.3771 0.54821 0.78992 0.0
O259 O 0.44161 0.54077 0.78838 0.0
Zn260 Zn 0.41819 0.54608 0.7607 0.0
O261 O 0.39274 0.51536 0.75277 0.0
C262 C 0.44606 0.532 0.72236 0.0
O263 O 0.44102 0.50996 0.73053 0.0
O264 O 0.39804 0.5754 0.76901 0.0
C265 C 0.37739 0.51426 0.73478 0.0
O266 O 0.37876 0.53308 0.72153 0.0
C267 C 0.44525 0.5187 0.79379 0.0
O268 O 0.43386 0.49887 0.78079 0.0
O269 O 0.43841 0.55155 0.73282 0.0
C270 C 0.7041 0.40192 0.51857 0.0
O271 O 0.70338 0.38774 0.4988 0.0
O272 O 0.7503 0.36078 0.49836 0.0
Zn273 Zn 0.75438 0.38378 0.5281 0.0
O274 O 0.78499 0.40927 0.5264 0.0
C275 C 0.77264 0.34338 0.55214 0.0
O276 O 0.7812 0.33731 0.53185 0.0
O277 O 0.7234 0.40263 0.53308 0.0
C278 C 0.8055 0.40215 0.5188 0.0
O279 O 0.80674 0.37799 0.51281 0.0
C280 C 0.75364 0.36954 0.47897 0.0
O281 O 0.75792 0.39415 0.47822 0.0
O282 O 0.76036 0.36271 0.55482 0.0
C283 C 0.63997 0.94321 0.76414 0.0
O284 O 0.63822 0.96069 0.78121 0.0
O285 O 0.58792 0.98185 0.76624 0.0
Zn286 Zn 0.61153 0.97705 0.74042 0.0
O287 O 0.63839 0.00678 0.74182 0.0
C288 C 0.56938 0.98111 0.70649 0.0
O289 O 0.55786 0.98879 0.72484 0.0
O290 O 0.62946 0.94571 0.74421 0.0
C291 C 0.63222 0.02847 0.73752 0.0
O292 O 0.60804 0.03131 0.73241 0.0
C293 C 0.59424 -0.00246 0.78394 0.0
O294 O 0.61662 0.01101 0.78551 0.0
O295 O 0.5919 0.97452 0.70912 0.0
C296 C 0.01979 0.20322 0.88988 0.0
O297 O -0.00218 0.21299 0.89035 0.0
O298 O 0.99391 0.23078 0.8393 0.0
Zn299 Zn 0.02738 0.24074 0.85872 0.0
O300 O 0.02366 0.26971 0.88243 0.0
C301 C 0.05418 0.25022 0.81714 0.0
O302 O 0.0326 0.24045 0.80577 0.0
O303 O 0.03622 0.21169 0.87662 0.0
C304 C 0.02328 0.29245 0.87751 0.0
O305 O 0.02549 0.29771 0.85596 0.0
C306 C 0.97348 0.24005 0.84471 0.0
O307 O 0.97417 0.25643 0.86305 0.0
O308 O 0.05607 0.25158 0.83919 0.0
C309 C 0.51743 0.70725 0.39643 0.0
O310 O 0.49567 0.71744 0.39668 0.0
O311 O 0.4927 0.72893 0.34147 0.0
Zn312 Zn 0.52505 0.74102 0.36145 0.0
O313 O 0.51955 0.77262 0.38122 0.0
C314 C 0.55371 0.74583 0.3201 0.0
O315 O 0.53283 0.73438 0.30867 0.0
O316 O 0.53357 0.71429 0.38234 0.0
C317 C 0.53853 0.78543 0.39274 0.0
O318 O 0.56126 0.77728 0.39195 0.0
C319 C 0.47821 0.74494 0.33451 0.0
O320 O 0.48499 0.7692 0.34006 0.0
O321 O 0.55448 0.74982 0.34208 0.0
C322 C 0.01174 0.80884 0.59112 0.0
O323 O 0.9891 0.79607 0.58658 0.0
O324 O 0.99013 0.77836 0.64519 0.0
Zn325 Zn 0.01677 0.77121 0.62289 0.0
O326 O 0.00376 0.74225 0.59942 0.0
C327 C 0.04262 0.74434 0.65544 0.0
O328 O 0.01881 0.73584 0.65802 0.0
O329 O 0.02715 0.80187 0.60653 0.0
C330 C 0.01991 0.73316 0.58657 0.0
O331 O 0.04372 0.7435 0.58885 0.0
C332 C 0.96624 0.77358 0.63998 0.0
O333 O 0.95805 0.76443 0.61874 0.0
O334 O 0.04707 0.76055 0.64099 0.0
C335 C 0.51564 0.30152 0.09266 0.0
O336 O 0.49414 0.28735 0.08611 0.0
O337 O 0.49383 0.26653 0.1453 0.0
Zn338 Zn 0.52266 0.26326 0.12446 0.0
O339 O 0.51374 0.23363 0.10061 0.0
C340 C 0.55324 0.25036 0.16415 0.0
O341 O 0.53106 0.24825 0.17329 0.0
O342 O 0.53041 0.29502 0.10883 0.0
C343 C 0.50994 0.21179 0.10772 0.0
O344 O 0.51145 0.20965 0.13017 0.0
C345 C 0.47043 0.2603 0.13864 0.0
O346 O 0.46407 0.25248 0.11673 0.0
O347 O 0.5543 0.25672 0.14358 0.0
H348 H 0.24319 0.7192 0.8792 0.0
H349 H 0.23043 0.86308 0.92531 0.0
H350 H 0.22268 0.77598 0.83458 0.0
H351 H 0.23789 0.80348 0.97051 0.0
H352 H 0.22898 0.83176 0.89175 0.0
H353 H 0.24358 0.75035 0.91287 0.0
C354 C 0.23894 0.73827 0.8765 0.0
C355 C 0.23285 0.74502 0.8541 0.0
C356 C 0.23081 0.82552 0.90902 0.0
C357 C 0.23306 0.78066 0.89247 0.0
C358 C 0.23161 0.84339 0.92818 0.0
C359 C 0.23432 0.8359 0.95075 0.0
C360 C 0.23294 0.79999 0.91243 0.0
C361 C 0.23576 0.81011 0.95343 0.0
C362 C 0.23897 0.75598 0.89571 0.0
C363 C 0.2272 0.76991 0.85159 0.0
N364 N 0.23519 0.79311 0.93449 0.0
N365 N 0.22749 0.78684 0.87053 0.0
H366 H -0.00026 0.46876 0.39557 0.0
H367 H 0.08529 0.53959 0.30675 0.0
H368 H 0.01689 0.54988 0.39891 0.0
H369 H 0.06844 0.45834 0.30294 0.0
H370 H 0.05997 0.54365 0.34039 0.0
H371 H 0.02447 0.46442 0.36135 0.0
C372 C 0.0087 0.48563 0.38905 0.0
C373 C 0.00633 0.50966 0.40007 0.0
C374 C 0.06179 0.52492 0.3322 0.0
C375 C 0.03459 0.50493 0.36106 0.0
C376 C 0.07626 0.52259 0.31297 0.0
C377 C 0.07901 0.49858 0.30201 0.0
C378 C 0.04996 0.5031 0.34056 0.0
C379 C 0.06685 0.47723 0.31085 0.0
C380 C 0.0228 0.48316 0.36957 0.0
C381 C 0.01826 0.53095 0.39099 0.0
N382 N 0.05287 0.48 0.32962 0.0
N383 N 0.03189 0.52808 0.37203 0.0
H384 H 0.79781 0.73681 0.81913 0.0
H385 H 0.7602 0.73851 0.94975 0.0
H386 H 0.77063 0.80186 0.85584 0.0
H387 H 0.81296 0.68861 0.92205 0.0
H388 H 0.76053 0.7599 0.91414 0.0
H389 H 0.80062 0.71682 0.8555 0.0
C390 C 0.79261 0.74701 0.83481 0.0
C391 C 0.78385 0.77108 0.8343 0.0
C392 C 0.77215 0.74436 0.91591 0.0
C393 C 0.78655 0.748 0.87587 0.0
C394 C 0.77191 0.73209 0.93619 0.0
C395 C 0.78655 0.71174 0.93884 0.0
C396 C 0.78682 0.73597 0.89797 0.0
C397 C 0.80144 0.70428 0.92073 0.0
C398 C 0.79414 0.73551 0.85554 0.0
C399 C 0.77696 0.78309 0.85518 0.0
N400 N 0.80103 0.71627 0.90095 0.0
N401 N 0.77831 0.77137 0.87505 0.0
H402 H 0.9919 0.00116 0.43424 0.0
H403 H 0.98095 0.03862 0.30333 0.0
H404 H 0.05697 0.02069 0.39542 0.0
H405 H 0.91547 0.01924 0.34174 0.0
H406 H 0.00904 0.03209 0.33699 0.0
H407 H 0.96349 0.00728 0.40051 0.0
C408 C 0.00021 0.00661 0.41859 0.0
C409 C 0.02686 0.01049 0.41768 0.0
C410 C 0.98853 0.02927 0.33808 0.0
C411 C 0.99447 0.01774 0.37909 0.0
C412 C 0.97246 0.03301 0.31885 0.0
C413 C 0.9458 0.02947 0.3197 0.0
C414 C 0.9779 0.02192 0.35836 0.0
C415 C 0.93591 0.02219 0.3403 0.0
C416 C 0.98399 0.01024 0.39938 0.0
C417 C 0.03655 0.01786 0.39703 0.0
N418 N 0.95196 0.01864 0.3588 0.0
N419 N 0.02038 0.02123 0.37858 0.0
H420 H 0.26302 0.33565 0.62016 0.0
H421 H 0.27467 0.19526 0.5642 0.0
H422 H 0.24766 0.26889 0.65629 0.0
H423 H 0.30693 0.26211 0.53525 0.0
H424 H 0.26194 0.22202 0.59684 0.0
H425 H 0.27635 0.30907 0.58758 0.0
C426 C 0.2625 0.31543 0.6213 0.0
C427 C 0.25423 0.30454 0.64109 0.0
C428 C 0.27189 0.23085 0.5834 0.0
C429 C 0.26919 0.27398 0.60366 0.0
C430 C 0.27916 0.21558 0.56473 0.0
C431 C 0.2919 0.22647 0.54694 0.0
C432 C 0.27716 0.25725 0.58425 0.0
C433 C 0.29722 0.25291 0.54861 0.0
C434 C 0.27005 0.30027 0.60264 0.0
C435 C 0.25351 0.27814 0.64132 0.0
N436 N 0.2897 0.26743 0.56688 0.0
N437 N 0.26089 0.26379 0.62291 0.0
H438 H 0.51724 0.49515 0.59552 0.0
H439 H 0.46155 0.57447 0.70107 0.0
H440 H 0.52668 0.57684 0.60538 0.0
H441 H 0.46146 0.49312 0.69467 0.0
H442 H 0.48355 0.57606 0.66518 0.0
H443 H 0.49479 0.49434 0.63092 0.0
C444 C 0.51471 0.51295 0.60519 0.0
C445 C 0.52406 0.5361 0.5975 0.0
C446 C 0.47872 0.55789 0.67168 0.0
C447 C 0.49799 0.53532 0.63805 0.0
C448 C 0.46617 0.55696 0.69216 0.0
C449 C 0.45967 0.53363 0.70092 0.0
C450 C 0.4847 0.5353 0.65985 0.0
C451 C 0.46612 0.51155 0.68863 0.0
C452 C 0.50176 0.51247 0.62537 0.0
C453 C 0.51964 0.55856 0.61052 0.0
N454 N 0.47821 0.51294 0.66875 0.0
N455 N 0.50698 0.55761 0.63018 0.0
H456 H 0.75814 0.25751 0.67142 0.0
H457 H 0.80751 0.30897 0.5559 0.0
H458 H 0.83396 0.24888 0.64995 0.0
H459 H 0.74822 0.34218 0.5924 0.0
H460 H 0.81465 0.28282 0.58787 0.0
H461 H 0.75128 0.28483 0.64013 0.0
C462 C 0.7733 0.26133 0.66008 0.0
C463 C 0.79663 0.25091 0.66311 0.0
C464 C 0.80014 0.29589 0.5889 0.0
C465 C 0.78886 0.28187 0.62739 0.0
C466 C 0.79597 0.31074 0.57064 0.0
C467 C 0.77724 0.32776 0.57152 0.0
C468 C 0.78519 0.29777 0.60801 0.0
C469 C 0.76292 0.32935 0.59108 0.0
C470 C 0.76942 0.27699 0.64234 0.0
C471 C 0.81571 0.25658 0.64809 0.0
N472 N 0.76707 0.31439 0.60851 0.0
N473 N 0.81135 0.27155 0.63074 0.0
H474 H 0.54191 0.98826 0.55888 0.0
H475 H 0.52062 0.99177 0.69438 0.0
H476 H 0.46816 0.99413 0.58617 0.0
H477 H 0.59014 0.9724 0.66486 0.0
H478 H 0.50144 0.99484 0.65525 0.0
H479 H 0.5604 0.98487 0.59802 0.0
C480 C 0.52956 0.98876 0.5731 0.0
C481 C 0.50338 0.99135 0.56916 0.0
C482 C 0.52086 0.98983 0.65736 0.0
C483 C 0.52456 0.98775 0.61418 0.0
C484 C 0.53183 0.98807 0.67968 0.0
C485 C 0.55705 0.98183 0.68292 0.0
C486 C 0.53528 0.98551 0.63814 0.0
C487 C 0.57064 0.97723 0.66322 0.0
C488 C 0.54016 0.9869 0.59547 0.0
C489 C 0.48847 0.99242 0.58838 0.0
N490 N 0.55962 0.97927 0.6417 0.0
N491 N 0.49926 0.99058 0.61005 0.0
H492 H 0.82668 0.24195 0.77037 0.0
H493 H 0.96162 0.1995 0.81197 0.0
H494 H 0.84452 0.1649 0.75767 0.0
H495 H 0.92976 0.26361 0.84548 0.0
H496 H 0.92074 0.18786 0.78896 0.0
H497 H 0.86633 0.25173 0.79534 0.0
C498 C 0.83897 0.22709 0.77297 0.0
C499 C 0.83246 0.20262 0.76202 0.0
C500 C 0.92274 0.2044 0.80145 0.0
C501 C 0.87788 0.21367 0.79023 0.0
C502 C 0.94606 0.21113 0.81446 0.0
C503 C 0.94909 0.23258 0.83063 0.0
C504 C 0.90252 0.21948 0.80437 0.0
C505 C 0.92826 0.24689 0.83325 0.0
C506 C 0.86151 0.23263 0.78723 0.0
C507 C 0.8489 0.18396 0.76596 0.0
N508 N 0.90594 0.24019 0.82014 0.0
N509 N 0.87106 0.18993 0.77959 0.0
H510 H 0.56214 0.92573 0.48206 0.0
H511 H 0.49468 0.80889 0.39635 0.0
H512 H 0.48295 0.91955 0.45596 0.0
H513 H 0.57488 0.81716 0.41969 0.0
H514 H 0.4899 0.84926 0.4182 0.0
H515 H 0.56723 0.88599 0.45915 0.0
C516 C 0.54588 0.91602 0.47138 0.0
C517 C 0.52214 0.92587 0.47087 0.0
C518 C 0.50855 0.84225 0.41853 0.0
C519 C 0.52767 0.88039 0.44477 0.0
C520 C 0.51128 0.81916 0.4061 0.0
C521 C 0.53522 0.8096 0.40621 0.0
C522 C 0.52989 0.85588 0.43121 0.0
C523 C 0.55606 0.82378 0.41911 0.0
C524 C 0.54875 0.89335 0.45835 0.0
C525 C 0.50161 0.91262 0.45684 0.0
N526 N 0.5529 0.84618 0.4311 0.0
N527 N 0.50484 0.89049 0.44438 0.0
H528 H 0.15612 0.29353 0.71245 0.0
H529 H 0.0996 0.27569 0.83552 0.0
H530 H 0.19185 0.32979 0.7775 0.0
H531 H 0.05804 0.24851 0.77006 0.0
H532 H 0.13461 0.29362 0.81454 0.0
H533 H 0.12093 0.27511 0.73318 0.0
C534 C 0.15656 0.29761 0.7311 0.0
C535 C 0.17694 0.31315 0.74335 0.0
C536 C 0.11785 0.28373 0.80474 0.0
C537 C 0.13681 0.2921 0.76714 0.0
C538 C 0.09785 0.27341 0.81672 0.0
C539 C 0.0758 0.26056 0.80454 0.0
C540 C 0.11592 0.28114 0.78036 0.0
C541 C 0.07464 0.25828 0.78017 0.0
C542 C 0.13645 0.28711 0.74292 0.0
C543 C 0.17648 0.31787 0.76746 0.0
N544 N 0.09443 0.26845 0.76888 0.0
N545 N 0.15678 0.30734 0.77859 0.0
H546 H 0.5908 0.60056 0.47618 0.0
H547 H 0.48707 0.68794 0.4286 0.0
H548 H 0.51657 0.60421 0.50289 0.0
H549 H 0.56095 0.68318 0.40128 0.0
H550 H 0.49729 0.65706 0.45569 0.0
H551 H 0.58002 0.63062 0.44838 0.0
C552 C 0.57222 0.60773 0.47616 0.0
C553 C 0.5546 0.59997 0.49184 0.0
C554 C 0.51125 0.66274 0.44375 0.0
C555 C 0.54206 0.63434 0.46014 0.0
C556 C 0.50544 0.68039 0.42826 0.0
C557 C 0.5232 0.68821 0.41265 0.0
C558 C 0.53503 0.65283 0.44368 0.0
C559 C 0.54667 0.67773 0.41301 0.0
C560 C 0.56606 0.62486 0.4603 0.0
C561 C 0.53076 0.60974 0.49112 0.0
N562 N 0.55191 0.66062 0.42829 0.0
N563 N 0.5252 0.62645 0.47553 0.0
H564 H 0.83101 0.78445 0.71635 0.0
H565 H 0.97724 0.7856 0.68661 0.0
H566 H 0.89379 0.7849 0.76816 0.0
H567 H 0.9138 0.76878 0.63473 0.0
H568 H 0.947 0.78915 0.71655 0.0
H569 H 0.86111 0.78207 0.68604 0.0
C570 C 0.85114 0.78408 0.72135 0.0
C571 C 0.86002 0.78493 0.74479 0.0
C572 C 0.93968 0.7847 0.69862 0.0
C573 C 0.89449 0.78229 0.71024 0.0
C574 C 0.95694 0.78277 0.68148 0.0
C575 C 0.94804 0.77684 0.6581 0.0
C576 C 0.91329 0.78084 0.69237 0.0
C577 C 0.92151 0.77332 0.65253 0.0
C578 C 0.8683 0.78267 0.70404 0.0
C579 C 0.88624 0.78428 0.75027 0.0
N580 N 0.90506 0.7754 0.66955 0.0
N581 N 0.90259 0.78309 0.73313 0.0
H582 H 0.09736 0.92998 0.53015 0.0
H583 H 0.98295 0.82962 0.55811 0.0
H584 H 0.02043 0.92647 0.49856 0.0
H585 H 0.05818 0.83737 0.59401 0.0
H586 H 0.99645 0.86473 0.53579 0.0
H587 H 0.08355 0.89559 0.55334 0.0
C588 C 0.07756 0.92194 0.52813 0.0
C589 C 0.06004 0.93101 0.51245 0.0
C590 C 0.00999 0.85879 0.54859 0.0
C591 C 0.04406 0.89173 0.53882 0.0
C592 C 0.0023 0.83873 0.56134 0.0
C593 C 0.01947 0.83051 0.57794 0.0
C594 C 0.03508 0.87069 0.55238 0.0
C595 C 0.04429 0.84306 0.58139 0.0
C596 C 0.06968 0.90236 0.54136 0.0
C597 C 0.0346 0.92002 0.51045 0.0
N598 N 0.05137 0.86247 0.56868 0.0
N599 N 0.02739 0.90092 0.52346 0.0
H600 H 0.18932 0.70444 0.7099 0.0
H601 H 0.03964 0.71853 0.69402 0.0
H602 H 0.13964 0.70188 0.76608 0.0
H603 H 0.09375 0.74954 0.64856 0.0
H604 H 0.07504 0.70476 0.71758 0.0
H605 H 0.15309 0.71328 0.68397 0.0
C606 C 0.17073 0.70552 0.71667 0.0
C607 C 0.16743 0.70273 0.74012 0.0
C608 C 0.07912 0.71453 0.70241 0.0
C609 C 0.12614 0.71258 0.71077 0.0
C610 C 0.05895 0.72235 0.68893 0.0
C611 C 0.0638 0.73537 0.66941 0.0
C612 C 0.10428 0.71947 0.69615 0.0
C613 C 0.08921 0.73976 0.6636 0.0
C614 C 0.15016 0.71066 0.70196 0.0
C615 C 0.14303 0.70422 0.74814 0.0
N616 N 0.10853 0.73178 0.67692 0.0
N617 N 0.12328 0.70906 0.73347 0.0
H618 H 0.93787 0.60208 0.50652 0.0
H619 H 0.05061 0.7068 0.55931 0.0
H620 H 0.01781 0.59633 0.497 0.0
H621 H 0.9722 0.70763 0.5767 0.0
H622 H 0.03832 0.66806 0.53382 0.0
H623 H 0.94956 0.64231 0.53008 0.0
C624 C 0.95789 0.60922 0.50945 0.0
C625 C 0.97689 0.59574 0.49981 0.0
C626 C 0.02378 0.67674 0.54316 0.0
C627 C 0.99036 0.64195 0.52651 0.0
C628 C 0.03077 0.69891 0.55769 0.0
C629 C 0.01242 0.71042 0.57023 0.0
C630 C -0.00178 0.66602 0.5411 0.0
C631 C 0.987 0.69934 0.56742 0.0
C632 C 0.96453 0.63226 0.5228 0.0
C633 C 0.00248 0.60618 0.50383 0.0
N634 N 0.98066 0.67772 0.55318 0.0
N635 N 0.00846 0.62862 0.5169 0.0
H636 H 0.77752 0.86949 0.23278 0.0
H637 H 0.84185 -0.00249 0.189 0.0
H638 H 0.76832 0.88867 0.16214 0.0
H639 H 0.86341 0.97109 0.25515 0.0
H640 H 0.81125 0.95991 0.18033 0.0
H641 H 0.8052 0.9091 0.24287 0.0
C642 C 0.78113 0.88218 0.21947 0.0
C643 C 0.77076 0.87577 0.19657 0.0
C644 C 0.82266 0.96234 0.19675 0.0
C645 C 0.80245 0.92092 0.20791 0.0
C646 C 0.84013 0.98383 0.20173 0.0
C647 C 0.8553 0.9874 0.22279 0.0
C648 C 0.82021 0.94435 0.21301 0.0
C649 C 0.8522 0.96904 0.23864 0.0
C650 C 0.79705 0.90466 0.22519 0.0
C651 C 0.77621 0.89276 0.17993 0.0
N652 N 0.835 0.9483 0.23342 0.0
N653 N 0.7917 0.91453 0.18592 0.0
H654 H 0.82929 0.226 0.32012 0.0
H655 H 0.84963 0.08905 0.2606 0.0
H656 H 0.7677 0.16992 0.29255 0.0
H657 H 0.91087 0.13848 0.29871 0.0
H658 H 0.81983 0.11972 0.27076 0.0
H659 H 0.85988 0.19515 0.31175 0.0
C660 C 0.82217 0.20716 0.31249 0.0
C661 C 0.79588 0.20063 0.30685 0.0
C662 C 0.83977 0.1239 0.27695 0.0
C663 C 0.83078 0.16541 0.29694 0.0
C664 C 0.85686 0.10641 0.27107 0.0
C665 C 0.88283 0.11119 0.27881 0.0
C666 C 0.84865 0.14649 0.29058 0.0
C667 C 0.89101 0.13401 0.29238 0.0
C668 C 0.83966 0.18962 0.30761 0.0
C669 C 0.7878 0.17601 0.29676 0.0
N670 N 0.87397 0.15086 0.29781 0.0
N671 N 0.80517 0.15939 0.29205 0.0
H672 H 0.44089 -0.00212 0.02587 0.0
H673 H 0.3085 0.9154 0.98336 0.0
H674 H 0.40719 0.99158 0.95545 0.0
H675 H 0.34215 0.92161 0.05384 0.0
H676 H 0.34558 0.9415 0.97239 0.0
H677 H 0.40605 0.96815 0.03599 0.0
C678 C 0.42615 0.9902 0.01252 0.0
C679 C 0.42682 -0.00263 0.98982 0.0
C680 C 0.34491 0.9371 0.99024 0.0
C681 C 0.38693 0.96324 0.00125 0.0
C682 C 0.32372 0.9222 0.99654 0.0
C683 C 0.32215 0.9164 0.0196 0.0
C684 C 0.36471 0.94635 0.00712 0.0
C685 C 0.3425 0.92568 0.03588 0.0
C686 C 0.40632 0.97316 0.01829 0.0
C687 C 0.4075 0.98647 0.97313 0.0
N688 N 0.3629 0.94027 0.02934 0.0
N689 N 0.38825 0.97008 0.97922 0.0
H690 H 0.21105 0.2959 0.28191 0.0
H691 H 0.21008 0.44213 0.26498 0.0
H692 H 0.27731 0.34262 0.26462 0.0
H693 H 0.14126 0.3905 0.25245 0.0
H694 H 0.23491 0.40619 0.2691 0.0
H695 H 0.18474 0.33069 0.27513 0.0
C696 C 0.21998 0.31344 0.27661 0.0
C697 C 0.24632 0.31644 0.27373 0.0
C698 C 0.21439 0.4027 0.26535 0.0
C699 C 0.21662 0.35613 0.26627 0.0
C700 C 0.20018 0.42321 0.2631 0.0
C701 C 0.17357 0.41927 0.25838 0.0
C702 C 0.20188 0.37806 0.26326 0.0
C703 C 0.16177 0.39432 0.25601 0.0
C704 C 0.205 0.33317 0.27266 0.0
C705 C 0.25702 0.33946 0.26679 0.0
N706 N 0.176 0.37459 0.25868 0.0
N707 N 0.24218 0.35849 0.2635 0.0
H708 H 0.13227 0.01045 0.47332 0.0
H709 H 0.18938 0.15588 0.49482 0.0
H710 H 0.08657 0.07282 0.46649 0.0
H711 H 0.23629 0.09397 0.48667 0.0
H712 H 0.15119 0.12557 0.48829 0.0
H713 H 0.17033 0.04072 0.48225 0.0
C714 C 0.13025 0.03054 0.47387 0.0
C715 C 0.10627 0.03917 0.46911 0.0
C716 C 0.16984 0.11863 0.48794 0.0
C717 C 0.14968 0.07386 0.47918 0.0
C718 C 0.19166 0.13591 0.49172 0.0
C719 C 0.21607 0.12745 0.49121 0.0
C720 C 0.17244 0.09267 0.48379 0.0
C721 C 0.21785 0.10135 0.48711 0.0
C722 C 0.15197 0.04778 0.47881 0.0
C723 C 0.10475 0.06538 0.4698 0.0
N724 N 0.19632 0.08488 0.48358 0.0
N725 N 0.12616 0.0818 0.47477 0.0
H726 H 0.77542 0.12422 0.74326 0.0
H727 H 0.6256 0.0775 0.72989 0.0
H728 H 0.71657 0.173 0.7288 0.0
H729 H 0.68402 0.02899 0.74666 0.0
H730 H 0.65869 0.11293 0.73031 0.0
H731 H 0.74225 0.0894 0.74585 0.0
C732 C 0.75552 0.12768 0.74084 0.0
C733 C 0.74878 0.15155 0.73569 0.0
C734 C 0.66428 0.09456 0.73396 0.0
C735 C 0.7107 0.11169 0.73835 0.0
C736 C 0.64538 0.07429 0.7337 0.0
C737 C 0.65204 0.05021 0.73818 0.0
C738 C 0.69008 0.09074 0.73867 0.0
C739 C 0.678 0.04722 0.74306 0.0
C740 C 0.73659 0.10775 0.74218 0.0
C741 C 0.72268 0.15482 0.73243 0.0
N742 N 0.69607 0.06723 0.74312 0.0
N743 N 0.70462 0.13512 0.73374 0.0
H744 H 0.41751 -0.00182 0.48925 0.0
H745 H 0.3665 0.1331 0.5193 0.0
H746 H 0.45968 0.05795 0.53546 0.0
H747 H 0.33022 0.07677 0.46628 0.0
H748 H 0.40027 0.10557 0.52634 0.0
H749 H 0.38481 0.02645 0.48141 0.0
C750 C 0.42001 0.0173 0.49764 0.0
C751 C 0.44146 0.02567 0.51302 0.0
C752 C 0.38495 0.09928 0.51312 0.0
C753 C 0.40379 0.05811 0.50435 0.0
C754 C 0.36566 0.11498 0.5091 0.0
C755 C 0.34546 0.10722 0.49219 0.0
C756 C 0.38399 0.07559 0.50023 0.0
C757 C 0.34539 0.08356 0.47949 0.0
C758 C 0.40123 0.03341 0.49324 0.0
C759 C 0.44334 0.05054 0.52372 0.0
N760 N 0.36429 0.06856 0.48383 0.0
N761 N 0.42475 0.06586 0.5192 0.0
H762 H 0.60646 0.50505 0.58292 0.0
H763 H 0.66226 0.40882 0.48993 0.0
H764 H 0.5766 0.4911 0.51137 0.0
H765 H 0.69809 0.43101 0.55875 0.0
H766 H 0.62867 0.43621 0.49832 0.0
H767 H 0.63804 0.4752 0.57525 0.0
C768 C 0.60643 0.49555 0.56563 0.0
C769 C 0.58891 0.50061 0.54774 0.0
C770 C 0.64386 0.43504 0.51159 0.0
C771 C 0.62515 0.46655 0.53877 0.0
C772 C 0.66303 0.41936 0.50683 0.0
C773 C 0.6831 0.41767 0.52363 0.0
C774 C 0.64469 0.44906 0.53333 0.0
C775 C 0.68307 0.43178 0.54523 0.0
C776 C 0.62457 0.47862 0.56122 0.0
C777 C 0.58997 0.48799 0.52559 0.0
N778 N 0.66419 0.44688 0.54944 0.0
N779 N 0.60777 0.47155 0.52173 0.0
H780 H 0.75723 0.30448 0.33762 0.0
H781 H 0.75318 0.31789 0.47559 0.0
H782 H 0.76801 0.24288 0.3797 0.0
H783 H 0.75683 0.3816 0.43427 0.0
H784 H 0.75677 0.28974 0.44062 0.0
H785 H 0.75584 0.33281 0.37284 0.0
C786 C 0.75942 0.29698 0.35434 0.0
C787 C 0.76263 0.27131 0.3558 0.0
C788 C 0.7568 0.30988 0.43922 0.0
C789 C 0.76092 0.30356 0.39619 0.0
C790 C 0.7546 0.32596 0.45915 0.0
C791 C 0.75464 0.35215 0.45784 0.0
C792 C 0.75889 0.32004 0.4178 0.0
C793 C 0.7567 0.36155 0.4361 0.0
C794 C 0.75868 0.31314 0.37443 0.0
C795 C 0.76565 0.26259 0.37786 0.0
N796 N 0.75868 0.34549 0.41693 0.0
N797 N 0.76451 0.27866 0.39723 0.0
H798 H 0.5293 0.03982 0.91287 0.0
H799 H 0.54688 0.97215 0.78697 0.0
H800 H 0.47332 0.98322 0.87646 0.0
H801 H 0.60234 0.02873 0.82425 0.0
H802 H 0.51927 0.97625 0.8191 0.0
H803 H 0.55595 0.03628 0.88017 0.0
C804 C 0.52258 0.02665 0.89796 0.0
C805 C 0.49905 0.01175 0.89733 0.0
C806 C 0.53747 0.98778 0.82022 0.0
C807 C 0.52953 0.00759 0.85978 0.0
C808 C 0.55324 0.98546 0.80188 0.0
C809 C 0.577 9e-05 0.80293 0.0
C810 C 0.5455 0.00484 0.83976 0.0
C811 C 0.58422 0.01704 0.82267 0.0
C812 C 0.53783 0.02463 0.87927 0.0
C813 C 0.49136 0.99502 0.87757 0.0
N814 N 0.56856 0.01891 0.8403 0.0
N815 N 0.50657 0.99336 0.85956 0.0
H816 H 0.27194 0.29328 0.34804 0.0
H817 H 0.30353 0.17945 0.42252 0.0
H818 H 0.28944 0.22089 0.31702 0.0
H819 H 0.263 0.24143 0.44848 0.0
H820 H 0.30332 0.19654 0.38467 0.0
H821 H 0.2728 0.27646 0.38585 0.0
C822 C 0.27572 0.27378 0.34908 0.0
C823 C 0.28046 0.25846 0.32916 0.0
C824 C 0.29449 0.20638 0.39867 0.0
C825 C 0.28211 0.2393 0.37267 0.0
C826 C 0.2947 0.19672 0.4203 0.0
C827 C 0.28321 0.20901 0.43868 0.0
C828 C 0.28297 0.22865 0.39546 0.0
C829 C 0.27199 0.23128 0.43478 0.0
C830 C 0.27639 0.26425 0.37075 0.0
C831 C 0.28597 0.23353 0.33185 0.0
N832 N 0.27221 0.24042 0.41362 0.0
N833 N 0.2867 0.22476 0.35319 0.0
H834 H 0.54094 0.54278 0.92254 0.0
H835 H 0.4574 0.47432 0.81019 0.0
H836 H 0.53115 0.46175 0.90576 0.0
H837 H 0.47025 0.5555 0.82544 0.0
H838 H 0.48381 0.46927 0.8454 0.0
H839 H 0.51453 0.54774 0.88733 0.0
C840 C 0.53332 0.52602 0.9114 0.0
C841 C 0.53835 0.5018 0.91709 0.0
C842 C 0.48088 0.48819 0.84103 0.0
C843 C 0.50785 0.50734 0.87681 0.0
C844 C 0.4658 0.4911 0.82091 0.0
C845 C 0.46159 0.51538 0.81484 0.0
C846 C 0.49182 0.50971 0.85523 0.0
C847 C 0.47297 0.53641 0.82942 0.0
C848 C 0.51814 0.52887 0.89134 0.0
C849 C 0.52756 0.48076 0.9022 0.0
N850 N 0.48753 0.53308 0.84894 0.0
N851 N 0.51287 0.48402 0.88273 0.0
H852 H 0.74695 0.76135 0.15671 0.0
H853 H 0.80645 0.76154 0.03353 0.0
H854 H 0.76037 0.82882 0.12115 0.0
H855 H 0.77443 0.69359 0.0609 0.0
H856 H 0.79276 0.78666 0.06695 0.0
H857 H 0.75931 0.73623 0.12281 0.0
C858 C 0.75222 0.77089 0.14171 0.0
C859 C 0.75264 0.7973 0.14186 0.0
C860 C 0.78872 0.76625 0.0656 0.0
C861 C 0.76737 0.76864 0.10315 0.0
C862 C 0.79662 0.75189 0.04659 0.0
C863 C 0.79157 0.72543 0.04442 0.0
C864 C 0.77589 0.75404 0.08266 0.0
C865 C 0.77868 0.71395 0.06184 0.0
C866 C 0.75945 0.75653 0.12241 0.0
C867 C 0.76016 0.80859 0.12202 0.0
N868 N 0.77136 0.72832 0.08025 0.0
N869 N 0.76734 0.79422 0.10353 0.0
H870 H 0.02839 -0.0015 0.09521 0.0
H871 H 0.95727 0.07241 0.19417 0.0
H872 H 0.02882 0.07985 0.10336 0.0
H873 H 0.96376 0.992 0.18971 0.0
H874 H 0.98187 0.07547 0.15999 0.0
H875 H 0.00324 0.99569 0.12895 0.0
C876 C 0.0233 0.0158 0.10415 0.0
C877 C 0.03084 0.03946 0.09644 0.0
C878 C 0.97791 0.05716 0.1665 0.0
C879 C 0.00172 0.03636 0.13502 0.0
C880 C 0.96385 0.0554 0.18601 0.0
C881 C 0.95846 0.03191 0.19486 0.0
C882 C 0.98659 0.03527 0.1557 0.0
C883 C 0.96748 0.01051 0.18355 0.0
C884 C 0.00882 0.01417 0.12337 0.0
C885 C 0.02322 0.06118 0.10849 0.0
N886 N 0.98106 0.01271 0.16458 0.0
N887 N 0.00912 0.05911 0.12718 0.0
H888 H 0.27671 0.71749 0.14006 0.0
H889 H 0.26541 0.8518 0.09097 0.0
H890 H 0.2923 0.78833 0.18292 0.0
H891 H 0.27039 0.78295 0.04716 0.0
H892 H 0.27189 0.82862 0.12515 0.0
H893 H 0.27079 0.74091 0.10601 0.0
C894 C 0.27881 0.73799 0.14231 0.0
C895 C 0.28492 0.75108 0.16431 0.0
C896 C 0.27163 0.81862 0.10805 0.0
C897 C 0.27817 0.77794 0.12547 0.0
C898 C 0.26787 0.83181 0.08854 0.0
C899 C 0.26734 0.81927 0.06618 0.0
C900 C 0.27461 0.79266 0.10518 0.0
C901 C 0.27071 0.79338 0.06406 0.0
C902 C 0.27553 0.75135 0.12285 0.0
C903 C 0.28757 0.77761 0.16621 0.0
N904 N 0.27408 0.78091 0.08332 0.0
N905 N 0.28407 0.79021 0.14703 0.0
H906 H 0.01501 0.53132 0.08163 0.0
H907 H 0.06587 0.4466 0.17869 0.0
H908 H 0.99597 0.4504 0.07886 0.0
H909 H 0.07175 0.5283 0.18752 0.0
H910 H 0.04139 0.44746 0.14145 0.0
H911 H 0.03684 0.53055 0.12003 0.0
C912 C 0.01521 0.51342 0.08915 0.0
C913 C 0.00368 0.49088 0.07691 0.0
C914 C 0.04795 0.46519 0.1516 0.0
C915 C 0.02904 0.48982 0.12076 0.0
C916 C 0.06196 0.46471 0.17284 0.0
C917 C 0.07092 0.48741 0.18623 0.0
C918 C 0.04304 0.48854 0.1436 0.0
C919 C 0.06523 0.51033 0.1778 0.0
C920 C 0.02781 0.51298 0.11105 0.0
C921 C 0.00496 0.46819 0.08744 0.0
N922 N 0.05178 0.5103 0.15698 0.0
N923 N 0.01749 0.46823 0.10869 0.0
H924 H 0.35164 0.65753 0.25171 0.0
H925 H 0.44178 0.77408 0.31906 0.0
H926 H 0.33235 0.73466 0.25714 0.0
H927 H 0.45899 0.69642 0.31852 0.0
H928 H 0.40154 0.75978 0.2964 0.0
H929 H 0.39065 0.67106 0.2767 0.0
C930 C 0.35546 0.67726 0.25836 0.0
C931 C 0.33874 0.69501 0.25222 0.0
C932 C 0.41407 0.74584 0.30126 0.0
C933 C 0.38355 0.71069 0.28053 0.0
C934 C 0.43712 0.75401 0.31417 0.0
C935 C 0.45383 0.73643 0.32067 0.0
C936 C 0.40767 0.71989 0.2947 0.0
C937 C 0.4467 0.71064 0.31387 0.0
C938 C 0.37782 0.685 0.2725 0.0
C939 C 0.34487 0.72039 0.2611 0.0
N940 N 0.42418 0.70315 0.30121 0.0
N941 N 0.3668 0.72747 0.27471 0.0
H942 H 0.99225 0.43181 0.95443 0.0
H943 H 0.01931 0.28784 0.92372 0.0
H944 H -0.00137 0.37757 0.00508 0.0
H945 H 0.01776 0.34256 0.87301 0.0
H946 H 0.01143 0.32061 0.95359 0.0
H947 H 0.0011 0.39953 0.92417 0.0
C948 C 0.99549 0.41309 0.95917 0.0
C949 C 0.99467 0.40724 0.98225 0.0
C950 C 0.01286 0.32551 0.93595 0.0
C951 C 0.00482 0.37032 0.94781 0.0
C952 C 0.01737 0.30678 0.91885 0.0
C953 C 0.01918 0.31245 0.89579 0.0
C954 C 0.01005 0.35014 0.93001 0.0
C955 C 0.01651 0.33735 0.89056 0.0
C956 C 0.00058 0.39469 0.9419 0.0
C957 C -0.00093 0.38277 0.98745 0.0
N958 N 0.01201 0.35528 0.90754 0.0
N959 N 0.00392 0.36519 0.97037 0.0
H960 H 0.65737 0.78425 0.21533 0.0
H961 H 0.59836 0.77298 0.33829 0.0
H962 H 0.69221 0.82306 0.27971 0.0
H963 H 0.55929 0.74026 0.27325 0.0
H964 H 0.63386 0.78966 0.31723 0.0
H965 H 0.62213 0.7664 0.23629 0.0
C966 C 0.65762 0.789 0.23389 0.0
C967 C 0.67773 0.80513 0.24587 0.0
C968 C 0.61755 0.77881 0.30754 0.0
C969 C 0.63752 0.78475 0.26994 0.0
C970 C 0.59726 0.7692 0.31957 0.0
C971 C 0.57575 0.75521 0.30752 0.0
C972 C 0.61644 0.77436 0.28325 0.0
C973 C 0.57546 0.75097 0.28326 0.0
C974 C 0.63748 0.77881 0.24584 0.0
C975 C 0.67703 0.81068 0.26987 0.0
N976 N 0.59548 0.76053 0.27192 0.0
N977 N 0.65728 0.80049 0.28113 0.0
H978 H 0.09911 0.10826 0.97791 0.0
H979 H 0.98872 0.18097 0.91993 0.0
H980 H 0.02192 0.10399 -0.00093 0.0
H981 H 0.06496 0.1822 0.89656 0.0
H982 H 0.00011 0.15178 0.94822 0.0
H983 H 0.08668 0.13465 0.94741 0.0
C984 C 0.07953 0.11291 0.97609 0.0
C985 C 0.06156 0.10406 0.99103 0.0
C986 C 0.01432 0.15833 0.93684 0.0
C987 C 0.04714 0.13418 0.95623 0.0
C988 C 0.00783 0.175 0.92065 0.0
C989 C 0.02596 0.18416 0.90592 0.0
C990 C 0.03917 0.15081 0.9384 0.0
C991 C 0.05039 0.17568 0.9076 0.0
C992 C 0.07243 0.12791 0.95867 0.0
C993 C 0.03642 0.11049 0.98795 0.0
N994 N 0.05631 0.15959 0.92364 0.0
N995 N 0.02997 0.12524 0.97092 0.0
H996 H 0.39244 0.25575 0.26515 0.0
H997 H 0.41825 0.25281 0.13048 0.0
H998 H 0.33311 0.26008 0.21108 0.0
H999 H 0.47811 0.26738 0.18595 0.0
H1000 H 0.38646 0.25149 0.15943 0.0
H1001 H 0.42395 0.25551 0.23589 0.0
C1002 C 0.38608 0.25652 0.24709 0.0
C1003 C 0.36025 0.25811 0.24052 0.0
C1004 C 0.40656 0.25504 0.16523 0.0
C1005 C 0.396 0.25783 0.20701 0.0
C1006 C 0.42471 0.25579 0.14873 0.0
C1007 C 0.45087 0.26028 0.1558 0.0
C1008 C 0.41466 0.25856 0.18897 0.0
C1009 C 0.45815 0.26398 0.17969 0.0
C1010 C 0.40403 0.2565 0.23043 0.0
C1011 C 0.3529 0.25904 0.21692 0.0
N1012 N 0.44015 0.26294 0.1954 0.0
N1013 N 0.37071 0.25888 0.201 0.0
H1014 H 0.52494 0.42041 -0.00055 0.0
H1015 H 0.55992 0.3333 0.10046 0.0
H1016 H 0.59881 0.42622 0.03752 0.0
H1017 H 0.48891 0.32127 0.05745 0.0
H1018 H 0.57313 0.36943 0.0794 0.0
H1019 H 0.51014 0.38599 0.02219 0.0
C1020 C 0.53803 0.41448 0.01263 0.0
C1021 C 0.56319 0.42608 0.01662 0.0
C1022 C 0.55463 0.35894 0.07458 0.0
C1023 C 0.54637 0.38681 0.04267 0.0
C1024 C 0.54704 0.3383 0.08664 0.0
C1025 C 0.5233 0.32414 0.08065 0.0
C1026 C 0.53838 0.36556 0.05639 0.0
C1027 C 0.50741 0.33158 0.0626 0.0
C1028 C 0.52957 0.39481 0.02559 0.0
C1029 C 0.57929 0.41768 0.03391 0.0
N1030 N 0.51526 0.35176 0.05107 0.0
N1031 N 0.57063 0.39854 0.04629 0.0
H1032 H 0.70743 0.22271 0.21028 0.0
H1033 H 0.55863 0.24238 0.21005 0.0
H1034 H 0.66836 0.2377 0.27233 0.0
H1035 H 0.60125 0.2472 0.1492 0.0
H1036 H 0.59773 0.23526 0.23248 0.0
H1037 H 0.66754 0.22623 0.18685 0.0
C1038 C 0.69043 0.22665 0.21892 0.0
C1039 C 0.69119 0.23016 0.24318 0.0
C1040 C 0.59853 0.23786 0.21421 0.0
C1041 C 0.64571 0.23405 0.21672 0.0
C1042 C 0.5762 0.24188 0.20138 0.0
C1043 C 0.57671 0.24554 0.17774 0.0
C1044 C 0.62153 0.2373 0.20332 0.0
C1045 C 0.60003 0.24464 0.16742 0.0
C1046 C 0.66775 0.22872 0.2056 0.0
C1047 C 0.66869 0.23512 0.25364 0.0
N1048 N 0.62154 0.2406 0.18028 0.0
N1049 N 0.64687 0.23692 0.24034 0.0
H1050 H 0.48022 0.10705 0.98389 0.0
H1051 H 0.50222 0.16242 0.11731 0.0
H1052 H 0.47942 0.06068 0.04137 0.0
H1053 H 0.50533 0.20926 0.06018 0.0
H1054 H 0.49386 0.12496 0.08959 0.0
H1055 H 0.49 0.14474 0.01139 0.0
C1056 C 0.48231 0.10478 0.00228 0.0
C1057 C 0.47892 0.08068 0.01035 0.0
C1058 C 0.49637 0.14342 0.08309 0.0
C1059 C 0.48979 0.12373 0.04192 0.0
C1060 C 0.50112 0.16485 0.09892 0.0
C1061 C 0.50448 0.18903 0.09105 0.0
C1062 C 0.49494 0.14614 0.05917 0.0
C1063 C 0.50286 0.19098 0.06702 0.0
C1064 C 0.48773 0.12631 0.01798 0.0
C1065 C 0.4815 0.0789 0.03439 0.0
N1066 N 0.4982 0.16981 0.05192 0.0
N1067 N 0.48673 0.10012 0.04931 0.0
H1068 H 0.27067 0.39635 0.66147 0.0
H1069 H 0.36536 0.47501 0.76095 0.0
H1070 H 0.27745 0.37634 0.73198 0.0
H1071 H 0.34596 0.50295 0.69499 0.0
H1072 H 0.33417 0.43814 0.75038 0.0
H1073 H 0.29903 0.43507 0.67314 0.0
C1074 C 0.27811 0.40018 0.67944 0.0
C1075 C 0.27182 0.3831 0.69578 0.0
C1076 C 0.33667 0.45239 0.73827 0.0
C1077 C 0.30432 0.42728 0.70925 0.0
C1078 C 0.35453 0.4734 0.74425 0.0
C1079 C 0.35833 0.49205 0.72879 0.0
C1080 C 0.32266 0.44988 0.71659 0.0
C1081 C 0.34368 0.48904 0.70744 0.0
C1082 C 0.2942 0.42231 0.68611 0.0
C1083 C 0.28171 0.38909 0.71887 0.0
N1084 N 0.32659 0.46828 0.70192 0.0
N1085 N 0.29766 0.4106 0.72489 0.0
H1086 H 0.24218 0.6406 0.80402 0.0
H1087 H 0.3855 0.6218 0.77744 0.0
H1088 H 0.30127 0.70322 0.81213 0.0
H1089 H 0.33393 0.56248 0.80011 0.0
H1090 H 0.35419 0.65203 0.78595 0.0
H1091 H 0.27486 0.61138 0.79819 0.0
C1092 C 0.26209 0.64813 0.80457 0.0
C1093 C 0.26915 0.67425 0.80853 0.0
C1094 C 0.34989 0.63241 0.78916 0.0
C1095 C 0.30651 0.64112 0.80169 0.0
C1096 C 0.36765 0.61516 0.78424 0.0
C1097 C 0.36227 0.5896 0.78804 0.0
C1098 C 0.32646 0.62386 0.79749 0.0
C1099 C 0.3389 0.58201 0.79695 0.0
C1100 C 0.2807 0.63151 0.80136 0.0
C1101 C 0.29517 0.68314 0.80923 0.0
N1102 N 0.32177 0.59901 0.80117 0.0
N1103 N 0.31297 0.66659 0.80561 0.0
H1104 H 0.89877 0.5392 0.49618 0.0
H1105 H 0.85216 0.39299 0.50382 0.0
H1106 H 0.94484 0.47828 0.47943 0.0
H1107 H 0.80788 0.45398 0.52503 0.0
H1108 H 0.88662 0.42408 0.49552 0.0
H1109 H 0.86559 0.50843 0.50756 0.0
C1110 C 0.90199 0.51937 0.49505 0.0
C1111 C 0.92463 0.51131 0.48679 0.0
C1112 C 0.86942 0.43069 0.50209 0.0
C1113 C 0.88657 0.47594 0.49955 0.0
C1114 C 0.84971 0.41294 0.50685 0.0
C1115 C 0.82704 0.42089 0.51506 0.0
C1116 C 0.86645 0.45663 0.50546 0.0
C1117 C 0.82501 0.44699 0.5187 0.0
C1118 C 0.88298 0.5018 0.50145 0.0
C1119 C 0.92756 0.48532 0.48537 0.0
N1120 N 0.84441 0.46393 0.51377 0.0
N1121 N 0.90874 0.46858 0.49164 0.0
H1122 H 0.73092 0.81646 0.74711 0.0
H1123 H 0.66307 0.93189 0.80495 0.0
H1124 H 0.74223 0.8443 0.81957 0.0
H1125 H 0.65143 0.90564 0.73211 0.0
H1126 H 0.68996 0.89792 0.81084 0.0
H1127 H 0.69983 0.84715 0.74143 0.0
C1128 C 0.72683 0.82897 0.76183 0.0
C1129 C 0.73926 0.82782 0.78385 0.0
C1130 C 0.68147 0.89948 0.79357 0.0
C1131 C 0.70364 0.86287 0.7775 0.0
C1132 C 0.66608 0.91891 0.79018 0.0
C1133 C 0.6551 0.92173 0.76797 0.0
C1134 C 0.68604 0.88272 0.7746 0.0
C1135 C 0.65959 0.90423 0.74953 0.0
C1136 C 0.709 0.8464 0.75859 0.0
C1137 C 0.73292 0.84426 0.80236 0.0
N1138 N 0.67485 0.88553 0.75323 0.0
N1139 N 0.71569 0.86115 0.79873 0.0
H1140 H 0.61268 0.53422 0.00671 0.0
H1141 H 0.73394 0.60924 0.95825 0.0
H1142 H 0.62852 0.52922 0.93444 0.0
H1143 H 0.72219 0.60861 0.03121 0.0
H1144 H 0.69486 0.58062 0.94917 0.0
H1145 H 0.65228 0.56213 0.01603 0.0
C1146 C 0.62455 0.53888 0.99281 0.0
C1147 C 0.61725 0.52934 0.96975 0.0
C1148 C 0.70084 0.58669 0.96717 0.0
C1149 C 0.66249 0.56152 0.98027 0.0
C1150 C 0.72317 0.60305 0.97238 0.0
C1151 C 0.73135 0.61136 0.99554 0.0
C1152 C 0.6865 0.57862 0.98523 0.0
C1153 C 0.71661 0.60269 0.01311 0.0
C1154 C 0.6471 0.55491 -0.00187 0.0
C1155 C 0.63319 0.53639 0.95241 0.0
N1156 N 0.69487 0.58684 0.00759 0.0
N1157 N 0.65503 0.55204 0.95803 0.0
H1158 H 0.26036 0.63855 0.25985 0.0
H1159 H 0.18351 0.51549 0.18945 0.0
H1160 H 0.26106 0.6213 0.18582 0.0
H1161 H 0.17297 0.5392 0.26098 0.0
H1162 H 0.21488 0.5522 0.18862 0.0
H1163 H 0.2315 0.6 0.26149 0.0
C1164 C 0.25462 0.62652 0.24398 0.0
C1165 C 0.26302 0.63317 0.22265 0.0
C1166 C 0.20572 0.54936 0.20451 0.0
C1167 C 0.22989 0.5892 0.22435 0.0
C1168 C 0.18782 0.52838 0.205 0.0
C1169 C 0.17553 0.52431 0.22529 0.0
C1170 C 0.21149 0.56635 0.22448 0.0
C1171 C 0.18191 0.54166 0.24493 0.0
C1172 C 0.23802 0.60462 0.2449 0.0
C1173 C 0.25477 0.61704 0.20258 0.0
N1174 N 0.19945 0.56191 0.24404 0.0
N1175 N 0.23866 0.59583 0.20392 0.0
H1176 H 0.96021 0.53374 0.98493 0.0
H1177 H 0.85462 0.62178 0.02838 0.0
H1178 H 0.93046 0.53313 0.05254 0.0
H1179 H 0.87315 0.61173 0.95695 0.0
H1180 H 0.88616 0.59311 0.03862 0.0
H1181 H 0.93186 0.56572 0.9754 0.0
C1182 C 0.94771 0.54028 -0.00223 0.0
C1183 C 0.94769 0.53059 0.01955 0.0
C1184 C 0.88339 0.59724 0.02072 0.0
C1185 C 0.91543 0.56748 0.00883 0.0
C1186 C 0.86543 0.61367 0.01485 0.0
C1187 C 0.8611 0.61906 0.99172 0.0
C1188 C 0.89726 0.58614 0.00337 0.0
C1189 C 0.87574 0.60802 0.97497 0.0
C1190 C 0.93162 0.55863 0.99234 0.0
C1191 C 0.93141 0.5402 0.03564 0.0
N1192 N 0.89312 0.59202 0.98111 0.0
N1193 N 0.91592 0.55805 0.02993 0.0
H1194 H 0.08188 0.9771 0.05984 0.0
H1195 H 0.22403 0.97033 0.01985 0.0
H1196 H 0.12984 0.04149 0.04139 0.0
H1197 H 0.17616 0.90507 0.03677 0.0
H1198 H 0.18995 0.99677 0.02866 0.0
H1199 H 0.11658 0.95055 0.05291 0.0
C1200 C 0.09977 0.98569 0.05451 0.0
C1201 C 0.10292 0.01153 0.05107 0.0
C1202 C 0.18687 0.97667 0.03046 0.0
C1203 C 0.14259 0.98124 0.04289 0.0
C1204 C 0.20634 0.96153 0.0254 0.0
C1205 C 0.20295 0.93541 0.02752 0.0
C1206 C 0.16378 0.96566 0.03771 0.0
C1207 C 0.1796 0.92511 0.03485 0.0
C1208 C 0.11952 0.9705 0.05041 0.0
C1209 C 0.12643 0.02159 0.04391 0.0
N1210 N 0.1609 0.94026 0.03966 0.0
N1211 N 0.14531 0.00643 0.04003 0.0
loop_
_geom_bond_atom_site_label_1
_geom_bond_atom_site_label_2
_geom_bond_distance
_geom_bond_site_symmetry_2
_ccdc_geom_bond_type
H0 C5 0.930 . S
H1 C8 0.930 . S
H2 C10 0.930 . S
H3 C4 1.016 1_556 S
C4 H3 1.016 1_554 S
C4 N11 1.286 . S
C5 H0 0.930 . S
C5 C6 1.397 . S
C5 C7 1.361 . S
C6 C5 1.397 . S
C6 C10 1.390 . S
C7 C5 1.361 . S
C7 C8 1.393 . S
C7 N11 1.413 . S
C8 H1 0.930 . S
C8 C7 1.393 . S
C8 C9 1.399 . S
C9 C8 1.399 . S
C9 C10 1.381 . S
C10 H2 0.930 . S
C10 C6 1.390 . S
C10 C9 1.381 . S
N11 C4 1.286 . S
N11 C7 1.413 . S
H12 C17 0.930 . S
H13 C20 0.930 . S
H14 C22 0.930 . S
H15 C16 1.016 . S
C16 H15 1.016 . S
C16 N23 1.286 . S
C17 H12 0.930 . S
C17 C18 1.397 . S
C17 C19 1.361 . S
C18 C17 1.397 . S
C18 C22 1.390 . S
C19 C17 1.361 . S
C19 C20 1.393 . S
C19 N23 1.413 . S
C20 H13 0.930 . S
C20 C19 1.393 . S
C20 C21 1.399 . S
C21 C20 1.399 . S
C21 C22 1.381 . S
C22 H14 0.930 . S
C22 C18 1.390 . S
C22 C21 1.381 . S
N23 C16 1.286 . S
N23 C19 1.413 . S
H24 C29 0.930 . S
H25 C32 0.930 . S
H26 C34 0.930 . S
H27 C28 1.035 1_455 S
C28 H27 1.035 1_655 S
C28 N35 1.297 . S
C29 H24 0.930 . S
C29 C30 1.397 . S
C29 C31 1.361 . S
C30 C29 1.397 . S
C30 C34 1.390 . S
C31 C29 1.361 . S
C31 C32 1.393 . S
C31 N35 1.413 . S
C32 H25 0.930 . S
C32 C31 1.393 . S
C32 C33 1.399 . S
C33 C32 1.399 . S
C33 C34 1.381 . S
C34 H26 0.930 . S
C34 C30 1.390 . S
C34 C33 1.381 . S
N35 C28 1.297 . S
N35 C31 1.413 . S
H36 C41 0.930 . S
H37 C44 0.930 . S
H38 C46 0.930 . S
H39 C40 1.016 . S
C40 H39 1.016 . S
C40 N47 1.286 . S
C41 H36 0.930 . S
C41 C42 1.397 . S
C41 C43 1.361 . S
C42 C41 1.397 . S
C42 C46 1.390 . S
C43 C41 1.361 . S
C43 C44 1.393 . S
C43 N47 1.413 . S
C44 H37 0.930 . S
C44 C43 1.393 . S
C44 C45 1.399 . S
C45 C44 1.399 . S
C45 C46 1.381 . S
C46 H38 0.930 . S
C46 C42 1.390 . S
C46 C45 1.381 . S
N47 C40 1.286 . S
N47 C43 1.413 . S
H48 C53 0.930 . S
H49 C56 0.930 . S
H50 C58 0.930 . S
H51 C52 1.016 . S
C52 H51 1.016 . S
C52 N59 1.286 . S
C53 H48 0.930 . S
C53 C54 1.397 . S
C53 C55 1.361 . S
C54 C53 1.397 . S
C54 C58 1.390 1_565 S
C55 C53 1.361 . S
C55 C56 1.393 . S
C55 N59 1.413 . S
C56 H49 0.930 . S
C56 C55 1.393 . S
C56 C57 1.399 1_565 S
C57 C56 1.399 1_545 S
C57 C58 1.381 . S
C58 H50 0.930 . S
C58 C54 1.390 1_545 S
C58 C57 1.381 . S
N59 C52 1.286 . S
N59 C55 1.413 . S
H60 C65 0.930 . S
H61 C68 0.930 . S
H62 C70 0.930 . S
H63 C64 1.016 . S
C64 H63 1.016 . S
C64 N71 1.286 . S
C65 H60 0.930 . S
C65 C66 1.397 . S
C65 C67 1.361 . S
C66 C65 1.397 . S
C66 C70 1.390 . S
C67 C65 1.361 . S
C67 C68 1.393 . S
C67 N71 1.413 . S
C68 H61 0.930 . S
C68 C67 1.393 . S
C68 C69 1.399 . S
C69 C68 1.399 . S
C69 C70 1.381 . S
C70 H62 0.930 . S
C70 C66 1.390 . S
C70 C69 1.381 . S
N71 C64 1.286 . S
N71 C67 1.413 . S
H72 C77 0.930 1_455 S
H73 C80 0.930 . S
H74 C82 0.930 . S
H75 C76 1.016 . S
C76 H75 1.016 . S
C76 N83 1.286 . S
C77 H72 0.930 1_655 S
C77 C78 1.397 . S
C77 C79 1.361 . S
C78 C77 1.397 . S
C78 C82 1.390 . S
C79 C77 1.361 . S
C79 C80 1.393 . S
C79 N83 1.413 1_655 S
C80 H73 0.930 . S
C80 C79 1.393 . S
C80 C81 1.399 . S
C81 C80 1.399 . S
C81 C82 1.381 . S
C82 H74 0.930 . S
C82 C78 1.390 . S
C82 C81 1.381 . S
N83 C76 1.286 . S
N83 C79 1.413 1_455 S
H84 C89 0.930 . S
H85 C92 0.930 . S
H86 C94 0.930 . S
H87 C88 1.016 . S
C88 H87 1.016 . S
C88 N95 1.286 . S
C89 H84 0.930 . S
C89 C90 1.397 . S
C89 C91 1.361 . S
C90 C89 1.397 . S
C90 C94 1.390 . S
C91 C89 1.361 . S
C91 C92 1.393 . S
C91 N95 1.413 . S
C92 H85 0.930 . S
C92 C91 1.393 . S
C92 C93 1.399 . S
C93 C92 1.399 . S
C93 C94 1.381 . S
C94 H86 0.930 . S
C94 C90 1.390 . S
C94 C93 1.381 . S
N95 C88 1.286 . S
N95 C91 1.413 . S
H96 C101 0.930 . S
H97 C104 0.930 . S
H98 C106 0.930 . S
H99 C100 1.016 . S
C100 H99 1.016 . S
C100 N107 1.286 . S
C101 H96 0.930 . S
C101 C102 1.397 . S
C101 C103 1.361 . S
C102 C101 1.397 . S
C102 C106 1.390 . S
C103 C101 1.361 . S
C103 C104 1.393 . S
C103 N107 1.413 . S
C104 H97 0.930 . S
C104 C103 1.393 . S
C104 C105 1.399 . S
C105 C104 1.399 . S
C105 C106 1.381 . S
C106 H98 0.930 . S
C106 C102 1.390 . S
C106 C105 1.381 . S
N107 C100 1.286 . S
N107 C103 1.413 . S
H108 C113 0.930 . S
H109 C116 0.930 . S
H110 C118 0.930 . S
H111 C112 1.016 . S
C112 H111 1.016 . S
C112 N119 1.286 . S
C113 H108 0.930 . S
C113 C114 1.397 1_565 S
C113 C115 1.361 . S
C114 C113 1.397 1_545 S
C114 C118 1.390 . S
C115 C113 1.361 . S
C115 C116 1.393 . S
C115 N119 1.413 . S
C116 H109 0.930 . S
C116 C115 1.393 . S
C116 C117 1.399 . S
C117 C116 1.399 . S
C117 C118 1.381 1_565 S
C118 H110 0.930 . S
C118 C114 1.390 . S
C118 C117 1.381 1_545 S
N119 C112 1.286 . S
N119 C115 1.413 . S
H120 C125 0.930 . S
H121 C128 0.930 . S
H122 C130 0.930 . S
H123 C124 1.016 . S
C124 H123 1.016 . S
C124 N131 1.286 . S
C125 H120 0.930 . S
C125 C126 1.397 . S
C125 C127 1.361 . S
C126 C125 1.397 . S
C126 C130 1.390 . S
C127 C125 1.361 . S
C127 C128 1.393 . S
C127 N131 1.413 . S
C128 H121 0.930 . S
C128 C127 1.393 . S
C128 C129 1.399 . S
C129 C128 1.399 . S
C129 C130 1.381 . S
C130 H122 0.930 . S
C130 C126 1.390 . S
C130 C129 1.381 . S
N131 C124 1.286 . S
N131 C127 1.413 . S
H132 C137 0.930 . S
H133 C140 0.930 . S
H134 C142 0.930 . S
H135 C136 1.016 . S
C136 H135 1.016 . S
C136 N143 1.286 . S
C137 H132 0.930 . S
C137 C138 1.397 . S
C137 C139 1.361 . S
C138 C137 1.397 . S
C138 C142 1.390 . S
C139 C137 1.361 . S
C139 C140 1.393 . S
C139 N143 1.413 . S
C140 H133 0.930 . S
C140 C139 1.393 . S
C140 C141 1.399 . S
C141 C140 1.399 . S
C141 C142 1.381 . S
C142 H134 0.930 . S
C142 C138 1.390 . S
C142 C141 1.381 . S
N143 C136 1.286 . S
N143 C139 1.413 . S
H144 C149 0.930 . S
H145 C152 0.930 . S
H146 C154 0.930 . S
H147 C148 1.016 . S
C148 H147 1.016 . S
C148 N155 1.286 . S
C149 H144 0.930 . S
C149 C150 1.397 . S
C149 C151 1.361 . S
C150 C149 1.397 . S
C150 C154 1.390 . S
C151 C149 1.361 . S
C151 C152 1.393 . S
C151 N155 1.413 . S
C152 H145 0.930 . S
C152 C151 1.393 . S
C152 C153 1.399 . S
C153 C152 1.399 . S
C153 C154 1.381 . S
C154 H146 0.930 . S
C154 C150 1.390 . S
C154 C153 1.381 . S
N155 C148 1.286 . S
N155 C151 1.413 . S
H156 C161 0.930 . S
H157 C164 0.930 . S
H158 C166 0.930 . S
H159 C160 1.016 1_554 S
C160 H159 1.016 1_556 S
C160 N167 1.286 . S
C161 H156 0.930 . S
C161 C162 1.397 . S
C161 C163 1.361 . S
C162 C161 1.397 . S
C162 C166 1.390 . S
C163 C161 1.361 . S
C163 C164 1.393 . S
C163 N167 1.413 . S
C164 H157 0.930 . S
C164 C163 1.393 . S
C164 C165 1.399 . S
C165 C164 1.399 . S
C165 C166 1.381 . S
C166 H158 0.930 . S
C166 C162 1.390 . S
C166 C165 1.381 . S
N167 C160 1.286 . S
N167 C163 1.413 . S
H168 C173 0.930 . S
H169 C176 0.930 . S
H170 C178 0.930 . S
H171 C172 1.016 . S
C172 H171 1.016 . S
C172 N179 1.286 . S
C173 H168 0.930 . S
C173 C174 1.397 . S
C173 C175 1.361 . S
C174 C173 1.397 . S
C174 C178 1.390 . S
C175 C173 1.361 . S
C175 C176 1.393 . S
C175 N179 1.413 . S
C176 H169 0.930 . S
C176 C175 1.393 . S
C176 C177 1.399 . S
C177 C176 1.399 . S
C177 C178 1.381 . S
C178 H170 0.930 . S
C178 C174 1.390 . S
C178 C177 1.381 . S
N179 C172 1.286 . S
N179 C175 1.413 . S
H180 C185 0.930 . S
H181 C188 0.930 . S
H182 C190 0.930 1_554 S
H183 C184 1.016 . S
C184 H183 1.016 . S
C184 N191 1.286 . S
C185 H180 0.930 . S
C185 C186 1.397 . S
C185 C187 1.361 . S
C186 C185 1.397 . S
C186 C190 1.390 . S
C187 C185 1.361 . S
C187 C188 1.393 . S
C187 N191 1.413 . S
C188 H181 0.930 . S
C188 C187 1.393 . S
C188 C189 1.399 . S
C189 C188 1.399 . S
C189 C190 1.381 . S
C190 H182 0.930 1_556 S
C190 C186 1.390 . S
C190 C189 1.381 . S
N191 C184 1.286 . S
N191 C187 1.413 . S
C192 O193 1.187 . S
C192 O199 1.185 . S
O193 C192 1.187 . S
O194 Zn195 1.899 1_556 S
O194 C202 1.284 . S
Zn195 O194 1.899 1_554 S
Zn195 O196 2.032 . S
Zn195 O199 2.086 . S
Zn195 O204 1.977 . S
O196 Zn195 2.032 . S
O196 C200 1.278 . S
C197 O198 1.203 . S
C197 O204 1.267 . S
O198 C197 1.203 . S
O199 C192 1.185 . S
O199 Zn195 2.086 . S
C200 O196 1.278 . S
C200 O201 1.211 . S
O201 C200 1.211 . S
C202 O194 1.284 . S
C202 O203 1.273 . S
O203 C202 1.273 . S
O204 Zn195 1.977 . S
O204 C197 1.267 . S
C205 O206 1.160 . S
C205 O212 1.185 . S
O206 C205 1.160 . S
O207 Zn208 1.899 . S
O207 C215 1.284 . S
Zn208 O207 1.899 . S
Zn208 O209 2.032 . S
Zn208 O212 2.086 . S
Zn208 O217 1.977 . S
O209 Zn208 2.032 . S
O209 C213 1.278 . S
C210 O211 1.203 . S
C210 O217 1.267 . S
O211 C210 1.203 . S
O212 C205 1.185 . S
O212 Zn208 2.086 . S
C213 O209 1.278 . S
C213 O214 1.211 . S
O214 C213 1.211 . S
C215 O207 1.284 . S
C215 O216 1.273 . S
O216 C215 1.273 . S
O217 Zn208 1.977 . S
O217 C210 1.267 . S
C218 O219 1.160 1_554 S
C218 O225 1.185 . S
O219 C218 1.160 1_556 S
O220 Zn221 1.899 1_556 S
O220 C228 1.284 . S
Zn221 O220 1.899 1_554 S
Zn221 O222 2.032 1_554 S
Zn221 O225 2.086 . S
Zn221 O230 1.977 . S
O222 Zn221 2.032 1_556 S
O222 C226 1.278 . S
C223 O224 1.203 . S
C223 O230 1.267 . S
O224 C223 1.203 . S
O225 C218 1.185 . S
O225 Zn221 2.086 . S
C226 O222 1.278 . S
C226 O227 1.211 1_556 S
O227 C226 1.211 1_554 S
C228 O220 1.284 . S
C228 O229 1.273 . S
O229 C228 1.273 . S
O230 Zn221 1.977 . S
O230 C223 1.267 . S
C231 O232 1.160 . S
C231 O238 1.185 . S
O232 C231 1.160 . S
O233 Zn234 1.899 . S
O233 C241 1.284 . S
Zn234 O233 1.899 . S
Zn234 O235 2.032 . S
Zn234 O238 2.086 . S
Zn234 O243 1.977 . S
O235 Zn234 2.032 . S
O235 C239 1.278 1_545 S
C236 O237 1.203 . S
C236 O243 1.267 . S
O237 C236 1.203 . S
O238 C231 1.185 . S
O238 Zn234 2.086 . S
C239 O235 1.278 1_565 S
C239 O240 1.211 . S
O240 C239 1.211 . S
C241 O233 1.284 . S
C241 O242 1.273 . S
O242 C241 1.273 . S
O243 Zn234 1.977 . S
O243 C236 1.267 . S
C244 O245 1.160 . S
C244 O251 1.185 . S
O245 C244 1.160 . S
O246 Zn247 1.899 . S
O246 C254 1.284 . S
Zn247 O246 1.899 . S
Zn247 O248 2.032 . S
Zn247 O251 2.086 . S
Zn247 O256 1.977 . S
O248 Zn247 2.032 . S
O248 C252 1.278 . S
C249 O250 1.203 . S
C249 O256 1.267 . S
O250 C249 1.203 . S
O251 C244 1.185 . S
O251 Zn247 2.086 . S
C252 O248 1.278 . S
C252 O253 1.211 . S
O253 C252 1.211 . S
C254 O246 1.284 . S
C254 O255 1.273 . S
O255 C254 1.273 . S
O256 Zn247 1.977 . S
O256 C249 1.267 . S
C257 O258 1.160 . S
C257 O264 1.185 . S
O258 C257 1.160 . S
O259 Zn260 1.899 . S
O259 C267 1.284 . S
Zn260 O259 1.899 . S
Zn260 O261 2.032 . S
Zn260 O264 2.086 . S
Zn260 O269 1.977 . S
O261 Zn260 2.032 . S
O261 C265 1.278 . S
C262 O263 1.203 . S
C262 O269 1.267 . S
O263 C262 1.203 . S
O264 C257 1.185 . S
O264 Zn260 2.086 . S
C265 O261 1.278 . S
C265 O266 1.211 . S
O266 C265 1.211 . S
C267 O259 1.284 . S
C267 O268 1.273 . S
O268 C267 1.273 . S
O269 Zn260 1.977 . S
O269 C262 1.267 . S
C270 O271 1.160 . S
C270 O277 1.185 . S
O271 C270 1.160 . S
O272 Zn273 1.899 . S
O272 C280 1.284 . S
Zn273 O272 1.899 . S
Zn273 O274 2.032 . S
Zn273 O277 2.086 . S
Zn273 O282 1.977 . S
O274 Zn273 2.032 . S
O274 C278 1.278 . S
C275 O276 1.203 . S
C275 O282 1.267 . S
O276 C275 1.203 . S
O277 C270 1.185 . S
O277 Zn273 2.086 . S
C278 O274 1.278 . S
C278 O279 1.211 . S
O279 C278 1.211 . S
C280 O272 1.284 . S
C280 O281 1.273 . S
O281 C280 1.273 . S
O282 Zn273 1.977 . S
O282 C275 1.267 . S
C283 O284 1.160 . S
C283 O290 1.185 . S
O284 C283 1.160 . S
O285 Zn286 1.899 . S
O285 C293 1.284 1_565 S
Zn286 O285 1.899 . S
Zn286 O287 2.032 1_565 S
Zn286 O290 2.086 . S
Zn286 O295 1.977 . S
O287 Zn286 2.032 1_545 S
O287 C291 1.278 . S
C288 O289 1.203 1_565 S
C288 O295 1.267 . S
O289 C288 1.203 1_545 S
O290 C283 1.185 . S
O290 Zn286 2.086 . S
C291 O287 1.278 . S
C291 O292 1.211 . S
O292 C291 1.211 . S
C293 O285 1.284 1_545 S
C293 O294 1.273 . S
O294 C293 1.273 . S
O295 Zn286 1.977 . S
O295 C288 1.267 . S
C296 O297 1.160 1_455 S
C296 O303 1.185 . S
O297 C296 1.160 1_655 S
O298 Zn299 1.899 1_655 S
O298 C306 1.284 . S
Zn299 O298 1.899 1_455 S
Zn299 O300 2.032 . S
Zn299 O303 2.086 . S
Zn299 O308 1.977 . S
O300 Zn299 2.032 . S
O300 C304 1.278 . S
C301 O302 1.203 . S
C301 O308 1.267 . S
O302 C301 1.203 . S
O303 C296 1.185 . S
O303 Zn299 2.086 . S
C304 O300 1.278 . S
C304 O305 1.211 . S
O305 C304 1.211 . S
C306 O298 1.284 . S
C306 O307 1.273 . S
O307 C306 1.273 . S
O308 Zn299 1.977 . S
O308 C301 1.267 . S
C309 O310 1.160 . S
C309 O316 1.185 . S
O310 C309 1.160 . S
O311 Zn312 1.899 . S
O311 C319 1.284 . S
Zn312 O311 1.899 . S
Zn312 O313 2.032 . S
Zn312 O316 2.086 . S
Zn312 O321 1.977 . S
O313 Zn312 2.032 . S
O313 C317 1.278 . S
C314 O315 1.203 . S
C314 O321 1.267 . S
O315 C314 1.203 . S
O316 C309 1.185 . S
O316 Zn312 2.086 . S
C317 O313 1.278 . S
C317 O318 1.211 . S
O318 C317 1.211 . S
C319 O311 1.284 . S
C319 O320 1.273 . S
O320 C319 1.273 . S
O321 Zn312 1.977 . S
O321 C314 1.267 . S
C322 O323 1.160 1_455 S
C322 O329 1.185 . S
O323 C322 1.160 1_655 S
O324 Zn325 1.899 1_655 S
O324 C332 1.284 . S
Zn325 O324 1.899 1_455 S
Zn325 O326 2.032 . S
Zn325 O329 2.086 . S
Zn325 O334 1.977 . S
O326 Zn325 2.032 . S
O326 C330 1.278 . S
C327 O328 1.203 . S
C327 O334 1.267 . S
O328 C327 1.203 . S
O329 C322 1.185 . S
O329 Zn325 2.086 . S
C330 O326 1.278 . S
C330 O331 1.211 . S
O331 C330 1.211 . S
C332 O324 1.284 . S
C332 O333 1.273 . S
O333 C332 1.273 . S
O334 Zn325 1.977 . S
O334 C327 1.267 . S
C335 O336 1.160 . S
C335 O342 1.185 . S
O336 C335 1.160 . S
O337 Zn338 1.899 . S
O337 C345 1.284 . S
Zn338 O337 1.899 . S
Zn338 O339 2.032 . S
Zn338 O342 2.086 . S
Zn338 O347 1.977 . S
O339 Zn338 2.032 . S
O339 C343 1.278 . S
C340 O341 1.203 . S
C340 O347 1.267 . S
O341 C340 1.203 . S
O342 C335 1.185 . S
O342 Zn338 2.086 . S
C343 O339 1.278 . S
C343 O344 1.211 . S
O344 C343 1.211 . S
C345 O337 1.284 . S
C345 O346 1.273 . S
O346 C345 1.273 . S
O347 Zn338 1.977 . S
O347 C340 1.267 . S
H348 C354 0.930 . S
H349 C358 0.930 . S
H350 C363 0.929 . S
H351 C361 0.929 . S
H352 C356 0.929 . S
H353 C362 0.929 . S
C354 H348 0.930 . S
C354 C355 1.367 . S
C354 C362 1.378 . S
C355 C354 1.367 . S
C355 C363 1.433 . S
C356 H352 0.929 . S
C356 C358 1.378 . S
C356 C360 1.350 . S
C357 C360 1.463 . S
C357 C362 1.350 . S
C357 N365 1.427 . S
C358 H349 0.930 . S
C358 C356 1.378 . S
C358 C359 1.367 . S
C359 C358 1.367 . S
C359 C361 1.433 . S
C360 C356 1.350 . S
C360 C357 1.463 . S
C360 N364 1.427 . S
C361 H351 0.929 . S
C361 C359 1.433 . S
C361 N364 1.384 . S
C362 H353 0.929 . S
C362 C354 1.378 . S
C362 C357 1.350 . S
C363 H350 0.929 . S
C363 C355 1.433 . S
C363 N365 1.384 . S
N364 C360 1.427 . S
N364 C361 1.384 . S
N365 C357 1.427 . S
N365 C363 1.384 . S
H366 C372 0.930 . S
H367 C376 0.930 . S
H368 C381 0.929 . S
H369 C379 0.929 . S
H370 C374 0.929 . S
H371 C380 0.929 . S
C372 H366 0.930 . S
C372 C373 1.367 . S
C372 C380 1.378 . S
C373 C372 1.367 . S
C373 C381 1.433 . S
C374 H370 0.929 . S
C374 C376 1.378 . S
C374 C378 1.350 . S
C375 C378 1.463 . S
C375 C380 1.350 . S
C375 N383 1.427 . S
C376 H367 0.930 . S
C376 C374 1.378 . S
C376 C377 1.367 . S
C377 C376 1.367 . S
C377 C379 1.433 . S
C378 C374 1.350 . S
C378 C375 1.463 . S
C378 N382 1.427 . S
C379 H369 0.929 . S
C379 C377 1.433 . S
C379 N382 1.384 . S
C380 H371 0.929 . S
C380 C372 1.378 . S
C380 C375 1.350 . S
C381 H368 0.929 . S
C381 C373 1.433 . S
C381 N383 1.384 . S
N382 C378 1.427 . S
N382 C379 1.384 . S
N383 C375 1.427 . S
N383 C381 1.384 . S
H384 C390 0.930 . S
H385 C394 0.930 . S
H386 C399 0.929 . S
H387 C397 0.929 . S
H388 C392 0.929 . S
H389 C398 0.929 . S
C390 H384 0.930 . S
C390 C391 1.367 . S
C390 C398 1.378 . S
C391 C390 1.367 . S
C391 C399 1.433 . S
C392 H388 0.929 . S
C392 C394 1.378 . S
C392 C396 1.350 . S
C393 C396 1.463 . S
C393 C398 1.350 . S
C393 N401 1.427 . S
C394 H385 0.930 . S
C394 C392 1.378 . S
C394 C395 1.367 . S
C395 C394 1.367 . S
C395 C397 1.433 . S
C396 C392 1.350 . S
C396 C393 1.463 . S
C396 N400 1.427 . S
C397 H387 0.929 . S
C397 C395 1.433 . S
C397 N400 1.384 . S
C398 H389 0.929 . S
C398 C390 1.378 . S
C398 C393 1.350 . S
C399 H386 0.929 . S
C399 C391 1.433 . S
C399 N401 1.384 . S
N400 C396 1.427 . S
N400 C397 1.384 . S
N401 C393 1.427 . S
N401 C399 1.384 . S
H402 C408 0.930 . S
H403 C412 0.930 1_455 S
H404 C417 0.929 . S
H405 C415 0.916 1_565 S
H406 C410 0.929 . S
H407 C416 0.924 1_655 S
C408 H402 0.930 . S
C408 C409 1.360 1_565 S
C408 C416 1.380 . S
C409 C408 1.360 1_545 S
C409 C417 1.445 . S
C410 H406 0.929 . S
C410 C412 1.378 1_455 S
C410 C414 1.350 1_455 S
C411 C414 1.463 1_455 S
C411 C416 1.352 1_545 S
C411 N419 1.427 . S
C412 H403 0.930 1_655 S
C412 C410 1.378 1_655 S
C412 C413 1.367 . S
C413 C412 1.367 . S
C413 C415 1.433 . S
C414 C410 1.350 1_655 S
C414 C411 1.463 1_655 S
C414 N418 1.427 . S
C415 H405 0.916 1_545 S
C415 C413 1.433 . S
C415 N418 1.384 . S
C416 H407 0.924 1_455 S
C416 C408 1.380 . S
C416 C411 1.352 1_565 S
C417 H404 0.929 . S
C417 C409 1.445 . S
C417 N419 1.384 . S
N418 C414 1.427 . S
N418 C415 1.384 . S
N419 C411 1.427 . S
N419 C417 1.384 . S
H420 C426 0.930 . S
H421 C430 0.930 . S
H422 C435 0.929 . S
H423 C433 0.929 . S
H424 C428 0.929 . S
H425 C434 0.929 . S
C426 H420 0.930 . S
C426 C427 1.367 . S
C426 C434 1.378 . S
C427 C426 1.367 . S
C427 C435 1.433 . S
C428 H424 0.929 . S
C428 C430 1.378 . S
C428 C432 1.350 . S
C429 C432 1.463 . S
C429 C434 1.350 . S
C429 N437 1.427 . S
C430 H421 0.930 . S
C430 C428 1.378 . S
C430 C431 1.367 . S
C431 C430 1.367 . S
C431 C433 1.433 . S
C432 C428 1.350 . S
C432 C429 1.463 . S
C432 N436 1.427 . S
C433 H423 0.929 . S
C433 C431 1.433 . S
C433 N436 1.384 . S
C434 H425 0.929 . S
C434 C426 1.378 . S
C434 C429 1.350 . S
C435 H422 0.929 . S
C435 C427 1.433 . S
C435 N437 1.384 . S
N436 C432 1.427 . S
N436 C433 1.384 . S
N437 C429 1.427 . S
N437 C435 1.384 . S
H438 C444 0.930 . S
H439 C448 0.930 . S
H440 C453 0.929 . S
H441 C451 0.929 . S
H442 C446 0.929 . S
H443 C452 0.929 . S
C444 H438 0.930 . S
C444 C445 1.367 . S
C444 C452 1.378 . S
C445 C444 1.367 . S
C445 C453 1.433 . S
C446 H442 0.929 . S
C446 C448 1.378 . S
C446 C450 1.350 . S
C447 C450 1.463 . S
C447 C452 1.350 . S
C447 N455 1.427 . S
C448 H439 0.930 . S
C448 C446 1.378 . S
C448 C449 1.367 . S
C449 C448 1.367 . S
C449 C451 1.433 . S
C450 C446 1.350 . S
C450 C447 1.463 . S
C450 N454 1.427 . S
C451 H441 0.929 . S
C451 C449 1.433 . S
C451 N454 1.384 . S
C452 H443 0.929 . S
C452 C444 1.378 . S
C452 C447 1.350 . S
C453 H440 0.929 . S
C453 C445 1.433 . S
C453 N455 1.384 . S
N454 C450 1.427 . S
N454 C451 1.384 . S
N455 C447 1.427 . S
N455 C453 1.384 . S
H456 C462 0.930 . S
H457 C466 0.930 . S
H458 C471 0.929 . S
H459 C469 0.929 . S
H460 C464 0.929 . S
H461 C470 0.929 . S
C462 H456 0.930 . S
C462 C463 1.367 . S
C462 C470 1.378 . S
C463 C462 1.367 . S
C463 C471 1.433 . S
C464 H460 0.929 . S
C464 C466 1.378 . S
C464 C468 1.350 . S
C465 C468 1.463 . S
C465 C470 1.350 . S
C465 N473 1.427 . S
C466 H457 0.930 . S
C466 C464 1.378 . S
C466 C467 1.367 . S
C467 C466 1.367 . S
C467 C469 1.433 . S
C468 C464 1.350 . S
C468 C465 1.463 . S
C468 N472 1.427 . S
C469 H459 0.929 . S
C469 C467 1.433 . S
C469 N472 1.384 . S
C470 H461 0.929 . S
C470 C462 1.378 . S
C470 C465 1.350 . S
C471 H458 0.929 . S
C471 C463 1.433 . S
C471 N473 1.384 . S
N472 C468 1.427 . S
N472 C469 1.384 . S
N473 C465 1.427 . S
N473 C471 1.384 . S
H474 C480 0.930 1_545 S
H475 C484 0.930 . S
H476 C489 0.929 . S
H477 C487 0.929 . S
H478 C482 0.929 . S
H479 C488 0.919 1_545 S
C480 H474 0.930 1_565 S
C480 C481 1.367 . S
C480 C488 1.375 . S
C481 C480 1.367 . S
C481 C489 1.433 . S
C482 H478 0.929 . S
C482 C484 1.378 . S
C482 C486 1.350 . S
C483 C486 1.463 . S
C483 C488 1.362 . S
C483 N491 1.427 . S
C484 H475 0.930 . S
C484 C482 1.378 . S
C484 C485 1.367 . S
C485 C484 1.367 . S
C485 C487 1.433 1_565 S
C486 C482 1.350 . S
C486 C483 1.463 . S
C486 N490 1.427 1_565 S
C487 H477 0.929 . S
C487 C485 1.433 1_545 S
C487 N490 1.384 . S
C488 H479 0.919 1_565 S
C488 C480 1.375 . S
C488 C483 1.362 . S
C489 H476 0.929 . S
C489 C481 1.433 . S
C489 N491 1.384 . S
N490 C486 1.427 1_545 S
N490 C487 1.384 . S
N491 C483 1.427 . S
N491 C489 1.384 . S
H492 C498 0.930 . S
H493 C502 0.930 . S
H494 C507 0.929 . S
H495 C505 0.929 . S
H496 C500 0.929 . S
H497 C506 0.929 . S
C498 H492 0.930 . S
C498 C499 1.367 . S
C498 C506 1.378 . S
C499 C498 1.367 . S
C499 C507 1.433 . S
C500 H496 0.929 . S
C500 C502 1.378 . S
C500 C504 1.350 . S
C501 C504 1.463 . S
C501 C506 1.350 . S
C501 N509 1.427 . S
C502 H493 0.930 . S
C502 C500 1.378 . S
C502 C503 1.367 . S
C503 C502 1.367 . S
C503 C505 1.433 . S
C504 C500 1.350 . S
C504 C501 1.463 . S
C504 N508 1.427 . S
C505 H495 0.929 . S
C505 C503 1.433 . S
C505 N508 1.384 . S
C506 H497 0.929 . S
C506 C498 1.378 . S
C506 C501 1.350 . S
C507 H494 0.929 . S
C507 C499 1.433 . S
C507 N509 1.384 . S
N508 C504 1.427 . S
N508 C505 1.384 . S
N509 C501 1.427 . S
N509 C507 1.384 . S
H510 C516 0.930 . S
H511 C520 0.930 . S
H512 C525 0.929 . S
H513 C523 0.929 . S
H514 C518 0.929 . S
H515 C524 0.929 . S
C516 H510 0.930 . S
C516 C517 1.367 . S
C516 C524 1.378 . S
C517 C516 1.367 . S
C517 C525 1.433 . S
C518 H514 0.929 . S
C518 C520 1.378 . S
C518 C522 1.350 . S
C519 C522 1.463 . S
C519 C524 1.350 . S
C519 N527 1.427 . S
C520 H511 0.930 . S
C520 C518 1.378 . S
C520 C521 1.367 . S
C521 C520 1.367 . S
C521 C523 1.433 . S
C522 C518 1.350 . S
C522 C519 1.463 . S
C522 N526 1.427 . S
C523 H513 0.929 . S
C523 C521 1.433 . S
C523 N526 1.384 . S
C524 H515 0.929 . S
C524 C516 1.378 . S
C524 C519 1.350 . S
C525 H512 0.929 . S
C525 C517 1.433 . S
C525 N527 1.384 . S
N526 C522 1.427 . S
N526 C523 1.384 . S
N527 C519 1.427 . S
N527 C525 1.384 . S
H528 C534 0.930 . S
H529 C538 0.930 . S
H530 C543 0.929 . S
H531 C541 0.929 . S
H532 C536 0.929 . S
H533 C542 0.929 . S
C534 H528 0.930 . S
C534 C535 1.367 . S
C534 C542 1.378 . S
C535 C534 1.367 . S
C535 C543 1.433 . S
C536 H532 0.929 . S
C536 C538 1.378 . S
C536 C540 1.350 . S
C537 C540 1.463 . S
C537 C542 1.350 . S
C537 N545 1.427 . S
C538 H529 0.930 . S
C538 C536 1.378 . S
C538 C539 1.367 . S
C539 C538 1.367 . S
C539 C541 1.433 . S
C540 C536 1.350 . S
C540 C537 1.463 . S
C540 N544 1.427 . S
C541 H531 0.929 . S
C541 C539 1.433 . S
C541 N544 1.384 . S
C542 H533 0.929 . S
C542 C534 1.378 . S
C542 C537 1.350 . S
C543 H530 0.929 . S
C543 C535 1.433 . S
C543 N545 1.384 . S
N544 C540 1.427 . S
N544 C541 1.384 . S
N545 C537 1.427 . S
N545 C543 1.384 . S
H546 C552 0.930 . S
H547 C556 0.930 . S
H548 C561 0.929 . S
H549 C559 0.929 . S
H550 C554 0.929 . S
H551 C560 0.929 . S
C552 H546 0.930 . S
C552 C553 1.367 . S
C552 C560 1.378 . S
C553 C552 1.367 . S
C553 C561 1.433 . S
C554 H550 0.929 . S
C554 C556 1.378 . S
C554 C558 1.350 . S
C555 C558 1.463 . S
C555 C560 1.350 . S
C555 N563 1.427 . S
C556 H547 0.930 . S
C556 C554 1.378 . S
C556 C557 1.367 . S
C557 C556 1.367 . S
C557 C559 1.433 . S
C558 C554 1.350 . S
C558 C555 1.463 . S
C558 N562 1.427 . S
C559 H549 0.929 . S
C559 C557 1.433 . S
C559 N562 1.384 . S
C560 H551 0.929 . S
C560 C552 1.378 . S
C560 C555 1.350 . S
C561 H548 0.929 . S
C561 C553 1.433 . S
C561 N563 1.384 . S
N562 C558 1.427 . S
N562 C559 1.384 . S
N563 C555 1.427 . S
N563 C561 1.384 . S
H564 C570 0.930 . S
H565 C574 0.930 . S
H566 C579 0.929 . S
H567 C577 0.929 . S
H568 C572 0.929 . S
H569 C578 0.929 . S
C570 H564 0.930 . S
C570 C571 1.367 . S
C570 C578 1.378 . S
C571 C570 1.367 . S
C571 C579 1.433 . S
C572 H568 0.929 . S
C572 C574 1.378 . S
C572 C576 1.350 . S
C573 C576 1.463 . S
C573 C578 1.350 . S
C573 N581 1.427 . S
C574 H565 0.930 . S
C574 C572 1.378 . S
C574 C575 1.367 . S
C575 C574 1.367 . S
C575 C577 1.433 . S
C576 C572 1.350 . S
C576 C573 1.463 . S
C576 N580 1.427 . S
C577 H567 0.929 . S
C577 C575 1.433 . S
C577 N580 1.384 . S
C578 H569 0.929 . S
C578 C570 1.378 . S
C578 C573 1.350 . S
C579 H566 0.929 . S
C579 C571 1.433 . S
C579 N581 1.384 . S
N580 C576 1.427 . S
N580 C577 1.384 . S
N581 C573 1.427 . S
N581 C579 1.384 . S
H582 C588 0.930 . S
H583 C592 0.930 1_655 S
H584 C597 0.929 . S
H585 C595 0.929 . S
H586 C590 0.927 1_655 S
H587 C596 0.929 . S
C588 H582 0.930 . S
C588 C589 1.367 . S
C588 C596 1.378 . S
C589 C588 1.367 . S
C589 C597 1.433 . S
C590 H586 0.927 1_455 S
C590 C592 1.378 . S
C590 C594 1.350 . S
C591 C594 1.463 . S
C591 C596 1.350 . S
C591 N599 1.427 . S
C592 H583 0.930 1_455 S
C592 C590 1.378 . S
C592 C593 1.367 . S
C593 C592 1.367 . S
C593 C595 1.433 . S
C594 C590 1.350 . S
C594 C591 1.463 . S
C594 N598 1.427 . S
C595 H585 0.929 . S
C595 C593 1.433 . S
C595 N598 1.384 . S
C596 H587 0.929 . S
C596 C588 1.378 . S
C596 C591 1.350 . S
C597 H584 0.929 . S
C597 C589 1.433 . S
C597 N599 1.384 . S
N598 C594 1.427 . S
N598 C595 1.384 . S
N599 C591 1.427 . S
N599 C597 1.384 . S
H600 C606 0.930 . S
H601 C610 0.930 . S
H602 C615 0.929 . S
H603 C613 0.929 . S
H604 C608 0.929 . S
H605 C614 0.929 . S
C606 H600 0.930 . S
C606 C607 1.367 . S
C606 C614 1.378 . S
C607 C606 1.367 . S
C607 C615 1.433 . S
C608 H604 0.929 . S
C608 C610 1.378 . S
C608 C612 1.350 . S
C609 C612 1.463 . S
C609 C614 1.350 . S
C609 N617 1.427 . S
C610 H601 0.930 . S
C610 C608 1.378 . S
C610 C611 1.367 . S
C611 C610 1.367 . S
C611 C613 1.433 . S
C612 C608 1.350 . S
C612 C609 1.463 . S
C612 N616 1.427 . S
C613 H603 0.929 . S
C613 C611 1.433 . S
C613 N616 1.384 . S
C614 H605 0.929 . S
C614 C606 1.378 . S
C614 C609 1.350 . S
C615 H602 0.929 . S
C615 C607 1.433 . S
C615 N617 1.384 . S
N616 C612 1.427 . S
N616 C613 1.384 . S
N617 C609 1.427 . S
N617 C615 1.384 . S
H618 C624 0.930 . S
H619 C628 0.930 . S
H620 C633 0.929 . S
H621 C631 0.929 . S
H622 C626 0.929 . S
H623 C632 0.929 . S
C624 H618 0.930 . S
C624 C625 1.367 . S
C624 C632 1.378 . S
C625 C624 1.367 . S
C625 C633 1.433 1_655 S
C626 H622 0.929 . S
C626 C628 1.378 . S
C626 C630 1.350 1_455 S
C627 C630 1.463 . S
C627 C632 1.350 . S
C627 N635 1.427 1_655 S
C628 H619 0.930 . S
C628 C626 1.378 . S
C628 C629 1.367 . S
C629 C628 1.367 . S
C629 C631 1.433 1_455 S
C630 C626 1.350 1_655 S
C630 C627 1.463 . S
C630 N634 1.427 . S
C631 H621 0.929 . S
C631 C629 1.433 1_655 S
C631 N634 1.384 . S
C632 H623 0.929 . S
C632 C624 1.378 . S
C632 C627 1.350 . S
C633 H620 0.929 . S
C633 C625 1.433 1_455 S
C633 N635 1.384 . S
N634 C630 1.427 . S
N634 C631 1.384 . S
N635 C627 1.427 1_455 S
N635 C633 1.384 . S
H636 C642 0.930 . S
H637 C646 0.930 . S
H638 C651 0.929 . S
H639 C649 0.929 . S
H640 C644 0.929 . S
H641 C650 0.929 . S
C642 H636 0.930 . S
C642 C643 1.367 . S
C642 C650 1.378 . S
C643 C642 1.367 . S
C643 C651 1.433 . S
C644 H640 0.929 . S
C644 C646 1.378 . S
C644 C648 1.350 . S
C645 C648 1.463 . S
C645 C650 1.350 . S
C645 N653 1.427 . S
C646 H637 0.930 . S
C646 C644 1.378 . S
C646 C647 1.367 . S
C647 C646 1.367 . S
C647 C649 1.433 . S
C648 C644 1.350 . S
C648 C645 1.463 . S
C648 N652 1.427 . S
C649 H639 0.929 . S
C649 C647 1.433 . S
C649 N652 1.384 . S
C650 H641 0.929 . S
C650 C642 1.378 . S
C650 C645 1.350 . S
C651 H638 0.929 . S
C651 C643 1.433 . S
C651 N653 1.384 . S
N652 C648 1.427 . S
N652 C649 1.384 . S
N653 C645 1.427 . S
N653 C651 1.384 . S
H654 C660 0.930 . S
H655 C664 0.930 . S
H656 C669 0.929 . S
H657 C667 0.929 . S
H658 C662 0.929 . S
H659 C668 0.929 . S
C660 H654 0.930 . S
C660 C661 1.367 . S
C660 C668 1.378 . S
C661 C660 1.367 . S
C661 C669 1.433 . S
C662 H658 0.929 . S
C662 C664 1.378 . S
C662 C666 1.350 . S
C663 C666 1.463 . S
C663 C668 1.350 . S
C663 N671 1.427 . S
C664 H655 0.930 . S
C664 C662 1.378 . S
C664 C665 1.367 . S
C665 C664 1.367 . S
C665 C667 1.433 . S
C666 C662 1.350 . S
C666 C663 1.463 . S
C666 N670 1.427 . S
C667 H657 0.929 . S
C667 C665 1.433 . S
C667 N670 1.384 . S
C668 H659 0.929 . S
C668 C660 1.378 . S
C668 C663 1.350 . S
C669 H656 0.929 . S
C669 C661 1.433 . S
C669 N671 1.384 . S
N670 C666 1.427 . S
N670 C667 1.384 . S
N671 C663 1.427 . S
N671 C669 1.384 . S
H672 C678 0.930 . S
H673 C682 0.930 . S
H674 C687 0.929 . S
H675 C685 0.929 . S
H676 C680 0.929 . S
H677 C686 0.929 . S
C678 H672 0.930 . S
C678 C679 1.367 1_554 S
C678 C686 1.378 1_545 S
C679 C678 1.367 1_556 S
C679 C687 1.433 1_545 S
C680 H676 0.929 . S
C680 C682 1.378 . S
C680 C684 1.350 . S
C681 C684 1.463 . S
C681 C686 1.350 1_556 S
C681 N689 1.427 . S
C682 H673 0.930 . S
C682 C680 1.378 . S
C682 C683 1.367 1_556 S
C683 C682 1.367 1_554 S
C683 C685 1.433 . S
C684 C680 1.350 . S
C684 C681 1.463 . S
C684 N688 1.427 1_556 S
C685 H675 0.929 . S
C685 C683 1.433 . S
C685 N688 1.384 . S
C686 H677 0.929 . S
C686 C678 1.378 1_565 S
C686 C681 1.350 1_554 S
C687 H674 0.929 . S
C687 C679 1.433 1_565 S
C687 N689 1.384 . S
N688 C684 1.427 1_554 S
N688 C685 1.384 . S
N689 C681 1.427 . S
N689 C687 1.384 . S
H690 C696 0.930 . S
H691 C700 0.930 . S
H692 C705 0.929 . S
H693 C703 0.929 . S
H694 C698 0.929 . S
H695 C704 0.929 . S
C696 H690 0.930 . S
C696 C697 1.367 . S
C696 C704 1.378 . S
C697 C696 1.367 . S
C697 C705 1.433 . S
C698 H694 0.929 . S
C698 C700 1.378 . S
C698 C702 1.350 . S
C699 C702 1.463 . S
C699 C704 1.350 . S
C699 N707 1.427 . S
C700 H691 0.930 . S
C700 C698 1.378 . S
C700 C701 1.367 . S
C701 C700 1.367 . S
C701 C703 1.433 . S
C702 C698 1.350 . S
C702 C699 1.463 . S
C702 N706 1.427 . S
C703 H693 0.929 . S
C703 C701 1.433 . S
C703 N706 1.384 . S
C704 H695 0.929 . S
C704 C696 1.378 . S
C704 C699 1.350 . S
C705 H692 0.929 . S
C705 C697 1.433 . S
C705 N707 1.384 . S
N706 C702 1.427 . S
N706 C703 1.384 . S
N707 C699 1.427 . S
N707 C705 1.384 . S
H708 C714 0.930 . S
H709 C718 0.930 . S
H710 C723 0.929 . S
H711 C721 0.929 . S
H712 C716 0.929 . S
H713 C722 0.929 . S
C714 H708 0.930 . S
C714 C715 1.367 . S
C714 C722 1.378 . S
C715 C714 1.367 . S
C715 C723 1.433 . S
C716 H712 0.929 . S
C716 C718 1.378 . S
C716 C720 1.350 . S
C717 C720 1.463 . S
C717 C722 1.350 . S
C717 N725 1.427 . S
C718 H709 0.930 . S
C718 C716 1.378 . S
C718 C719 1.367 . S
C719 C718 1.367 . S
C719 C721 1.433 . S
C720 C716 1.350 . S
C720 C717 1.463 . S
C720 N724 1.427 . S
C721 H711 0.929 . S
C721 C719 1.433 . S
C721 N724 1.384 . S
C722 H713 0.929 . S
C722 C714 1.378 . S
C722 C717 1.350 . S
C723 H710 0.929 . S
C723 C715 1.433 . S
C723 N725 1.384 . S
N724 C720 1.427 . S
N724 C721 1.384 . S
N725 C717 1.427 . S
N725 C723 1.384 . S
H726 C732 0.930 . S
H727 C736 0.930 . S
H728 C741 0.929 . S
H729 C739 0.929 . S
H730 C734 0.929 . S
H731 C740 0.929 . S
C732 H726 0.930 . S
C732 C733 1.367 . S
C732 C740 1.378 . S
C733 C732 1.367 . S
C733 C741 1.433 . S
C734 H730 0.929 . S
C734 C736 1.378 . S
C734 C738 1.350 . S
C735 C738 1.463 . S
C735 C740 1.350 . S
C735 N743 1.427 . S
C736 H727 0.930 . S
C736 C734 1.378 . S
C736 C737 1.367 . S
C737 C736 1.367 . S
C737 C739 1.433 . S
C738 C734 1.350 . S
C738 C735 1.463 . S
C738 N742 1.427 . S
C739 H729 0.929 . S
C739 C737 1.433 . S
C739 N742 1.384 . S
C740 H731 0.929 . S
C740 C732 1.378 . S
C740 C735 1.350 . S
C741 H728 0.929 . S
C741 C733 1.433 . S
C741 N743 1.384 . S
N742 C738 1.427 . S
N742 C739 1.384 . S
N743 C735 1.427 . S
N743 C741 1.384 . S
H744 C750 0.930 . S
H745 C754 0.930 . S
H746 C759 0.929 . S
H747 C757 0.929 . S
H748 C752 0.929 . S
H749 C758 0.929 . S
C750 H744 0.930 . S
C750 C751 1.367 . S
C750 C758 1.378 . S
C751 C750 1.367 . S
C751 C759 1.433 . S
C752 H748 0.929 . S
C752 C754 1.378 . S
C752 C756 1.350 . S
C753 C756 1.463 . S
C753 C758 1.350 . S
C753 N761 1.427 . S
C754 H745 0.930 . S
C754 C752 1.378 . S
C754 C755 1.367 . S
C755 C754 1.367 . S
C755 C757 1.433 . S
C756 C752 1.350 . S
C756 C753 1.463 . S
C756 N760 1.427 . S
C757 H747 0.929 . S
C757 C755 1.433 . S
C757 N760 1.384 . S
C758 H749 0.929 . S
C758 C750 1.378 . S
C758 C753 1.350 . S
C759 H746 0.929 . S
C759 C751 1.433 . S
C759 N761 1.384 . S
N760 C756 1.427 . S
N760 C757 1.384 . S
N761 C753 1.427 . S
N761 C759 1.384 . S
H762 C768 0.930 . S
H763 C772 0.930 . S
H764 C777 0.929 . S
H765 C775 0.929 . S
H766 C770 0.929 . S
H767 C776 0.929 . S
C768 H762 0.930 . S
C768 C769 1.367 . S
C768 C776 1.378 . S
C769 C768 1.367 . S
C769 C777 1.433 . S
C770 H766 0.929 . S
C770 C772 1.378 . S
C770 C774 1.350 . S
C771 C774 1.463 . S
C771 C776 1.350 . S
C771 N779 1.427 . S
C772 H763 0.930 . S
C772 C770 1.378 . S
C772 C773 1.367 . S
C773 C772 1.367 . S
C773 C775 1.433 . S
C774 C770 1.350 . S
C774 C771 1.463 . S
C774 N778 1.427 . S
C775 H765 0.929 . S
C775 C773 1.433 . S
C775 N778 1.384 . S
C776 H767 0.929 . S
C776 C768 1.378 . S
C776 C771 1.350 . S
C777 H764 0.929 . S
C777 C769 1.433 . S
C777 N779 1.384 . S
N778 C774 1.427 . S
N778 C775 1.384 . S
N779 C771 1.427 . S
N779 C777 1.384 . S
H780 C786 0.930 . S
H781 C790 0.930 . S
H782 C795 0.929 . S
H783 C793 0.929 . S
H784 C788 0.929 . S
H785 C794 0.929 . S
C786 H780 0.930 . S
C786 C787 1.367 . S
C786 C794 1.378 . S
C787 C786 1.367 . S
C787 C795 1.433 . S
C788 H784 0.929 . S
C788 C790 1.378 . S
C788 C792 1.350 . S
C789 C792 1.463 . S
C789 C794 1.350 . S
C789 N797 1.427 . S
C790 H781 0.930 . S
C790 C788 1.378 . S
C790 C791 1.367 . S
C791 C790 1.367 . S
C791 C793 1.433 . S
C792 C788 1.350 . S
C792 C789 1.463 . S
C792 N796 1.427 . S
C793 H783 0.929 . S
C793 C791 1.433 . S
C793 N796 1.384 . S
C794 H785 0.929 . S
C794 C786 1.378 . S
C794 C789 1.350 . S
C795 H782 0.929 . S
C795 C787 1.433 . S
C795 N797 1.384 . S
N796 C792 1.427 . S
N796 C793 1.384 . S
N797 C789 1.427 . S
N797 C795 1.384 . S
H798 C804 0.930 . S
H799 C808 0.930 . S
H800 C813 0.929 1_565 S
H801 C811 0.929 . S
H802 C806 0.929 . S
H803 C812 0.929 . S
C804 H798 0.930 . S
C804 C805 1.367 . S
C804 C812 1.378 . S
C805 C804 1.367 . S
C805 C813 1.433 . S
C806 H802 0.929 . S
C806 C808 1.378 . S
C806 C810 1.350 1_565 S
C807 C810 1.463 . S
C807 C812 1.350 . S
C807 N815 1.427 . S
C808 H799 0.930 . S
C808 C806 1.378 . S
C808 C809 1.367 1_565 S
C809 C808 1.367 1_545 S
C809 C811 1.433 . S
C810 C806 1.350 1_545 S
C810 C807 1.463 . S
C810 N814 1.427 . S
C811 H801 0.929 . S
C811 C809 1.433 . S
C811 N814 1.384 . S
C812 H803 0.929 . S
C812 C804 1.378 . S
C812 C807 1.350 . S
C813 H800 0.929 1_545 S
C813 C805 1.433 . S
C813 N815 1.384 . S
N814 C810 1.427 . S
N814 C811 1.384 . S
N815 C807 1.427 . S
N815 C813 1.384 . S
H816 C822 0.930 . S
H817 C826 0.930 . S
H818 C831 0.929 . S
H819 C829 0.929 . S
H820 C824 0.929 . S
H821 C830 0.929 . S
C822 H816 0.930 . S
C822 C823 1.367 . S
C822 C830 1.378 . S
C823 C822 1.367 . S
C823 C831 1.433 . S
C824 H820 0.929 . S
C824 C826 1.378 . S
C824 C828 1.350 . S
C825 C828 1.463 . S
C825 C830 1.350 . S
C825 N833 1.427 . S
C826 H817 0.930 . S
C826 C824 1.378 . S
C826 C827 1.367 . S
C827 C826 1.367 . S
C827 C829 1.433 . S
C828 C824 1.350 . S
C828 C825 1.463 . S
C828 N832 1.427 . S
C829 H819 0.929 . S
C829 C827 1.433 . S
C829 N832 1.384 . S
C830 H821 0.929 . S
C830 C822 1.378 . S
C830 C825 1.350 . S
C831 H818 0.929 . S
C831 C823 1.433 . S
C831 N833 1.384 . S
N832 C828 1.427 . S
N832 C829 1.384 . S
N833 C825 1.427 . S
N833 C831 1.384 . S
H834 C840 0.930 . S
H835 C844 0.930 . S
H836 C849 0.929 . S
H837 C847 0.929 . S
H838 C842 0.929 . S
H839 C848 0.929 . S
C840 H834 0.930 . S
C840 C841 1.367 . S
C840 C848 1.378 . S
C841 C840 1.367 . S
C841 C849 1.433 . S
C842 H838 0.929 . S
C842 C844 1.378 . S
C842 C846 1.350 . S
C843 C846 1.463 . S
C843 C848 1.350 . S
C843 N851 1.427 . S
C844 H835 0.930 . S
C844 C842 1.378 . S
C844 C845 1.367 . S
C845 C844 1.367 . S
C845 C847 1.433 . S
C846 C842 1.350 . S
C846 C843 1.463 . S
C846 N850 1.427 . S
C847 H837 0.929 . S
C847 C845 1.433 . S
C847 N850 1.384 . S
C848 H839 0.929 . S
C848 C840 1.378 . S
C848 C843 1.350 . S
C849 H836 0.929 . S
C849 C841 1.433 . S
C849 N851 1.384 . S
N850 C846 1.427 . S
N850 C847 1.384 . S
N851 C843 1.427 . S
N851 C849 1.384 . S
H852 C858 0.930 . S
H853 C862 0.930 . S
H854 C867 0.929 . S
H855 C865 0.929 . S
H856 C860 0.929 . S
H857 C866 0.929 . S
C858 H852 0.930 . S
C858 C859 1.367 . S
C858 C866 1.378 . S
C859 C858 1.367 . S
C859 C867 1.433 . S
C860 H856 0.929 . S
C860 C862 1.378 . S
C860 C864 1.350 . S
C861 C864 1.463 . S
C861 C866 1.350 . S
C861 N869 1.427 . S
C862 H853 0.930 . S
C862 C860 1.378 . S
C862 C863 1.367 . S
C863 C862 1.367 . S
C863 C865 1.433 . S
C864 C860 1.350 . S
C864 C861 1.463 . S
C864 N868 1.427 . S
C865 H855 0.929 . S
C865 C863 1.433 . S
C865 N868 1.384 . S
C866 H857 0.929 . S
C866 C858 1.378 . S
C866 C861 1.350 . S
C867 H854 0.929 . S
C867 C859 1.433 . S
C867 N869 1.384 . S
N868 C864 1.427 . S
N868 C865 1.384 . S
N869 C861 1.427 . S
N869 C867 1.384 . S
H870 C876 0.930 . S
H871 C880 0.930 . S
H872 C885 0.929 . S
H873 C883 0.929 . S
H874 C878 0.929 . S
H875 C884 0.929 . S
C876 H870 0.930 . S
C876 C877 1.367 . S
C876 C884 1.378 . S
C877 C876 1.367 . S
C877 C885 1.433 . S
C878 H874 0.929 . S
C878 C880 1.378 . S
C878 C882 1.350 . S
C879 C882 1.463 1_455 S
C879 C884 1.350 . S
C879 N887 1.427 1_455 S
C880 H871 0.930 . S
C880 C878 1.378 . S
C880 C881 1.367 . S
C881 C880 1.367 . S
C881 C883 1.433 . S
C882 C878 1.350 . S
C882 C879 1.463 1_655 S
C882 N886 1.427 1_655 S
C883 H873 0.929 . S
C883 C881 1.433 . S
C883 N886 1.384 1_655 S
C884 H875 0.929 . S
C884 C876 1.378 . S
C884 C879 1.350 . S
C885 H872 0.929 . S
C885 C877 1.433 . S
C885 N887 1.384 1_455 S
N886 C882 1.427 1_455 S
N886 C883 1.384 1_455 S
N887 C879 1.427 1_655 S
N887 C885 1.384 1_655 S
H888 C894 0.930 . S
H889 C898 0.930 . S
H890 C903 0.929 . S
H891 C901 0.929 . S
H892 C896 0.929 . S
H893 C902 0.929 . S
C894 H888 0.930 . S
C894 C895 1.367 . S
C894 C902 1.378 . S
C895 C894 1.367 . S
C895 C903 1.433 . S
C896 H892 0.929 . S
C896 C898 1.378 . S
C896 C900 1.350 . S
C897 C900 1.463 . S
C897 C902 1.350 . S
C897 N905 1.427 . S
C898 H889 0.930 . S
C898 C896 1.378 . S
C898 C899 1.367 . S
C899 C898 1.367 . S
C899 C901 1.433 . S
C900 C896 1.350 . S
C900 C897 1.463 . S
C900 N904 1.427 . S
C901 H891 0.929 . S
C901 C899 1.433 . S
C901 N904 1.384 . S
C902 H893 0.929 . S
C902 C894 1.378 . S
C902 C897 1.350 . S
C903 H890 0.929 . S
C903 C895 1.433 . S
C903 N905 1.384 . S
N904 C900 1.427 . S
N904 C901 1.384 . S
N905 C897 1.427 . S
N905 C903 1.384 . S
H906 C912 0.930 . S
H907 C916 0.930 . S
H908 C921 0.929 . S
H909 C919 0.929 . S
H910 C914 0.929 . S
H911 C920 0.929 . S
C912 H906 0.930 . S
C912 C913 1.367 . S
C912 C920 1.378 . S
C913 C912 1.367 . S
C913 C921 1.433 . S
C914 H910 0.929 . S
C914 C916 1.378 . S
C914 C918 1.350 . S
C915 C918 1.463 . S
C915 C920 1.350 . S
C915 N923 1.427 . S
C916 H907 0.930 . S
C916 C914 1.378 . S
C916 C917 1.367 . S
C917 C916 1.367 . S
C917 C919 1.433 . S
C918 C914 1.350 . S
C918 C915 1.463 . S
C918 N922 1.427 . S
C919 H909 0.929 . S
C919 C917 1.433 . S
C919 N922 1.384 . S
C920 H911 0.929 . S
C920 C912 1.378 . S
C920 C915 1.350 . S
C921 H908 0.929 . S
C921 C913 1.433 . S
C921 N923 1.384 . S
N922 C918 1.427 . S
N922 C919 1.384 . S
N923 C915 1.427 . S
N923 C921 1.384 . S
H924 C930 0.930 . S
H925 C934 0.930 . S
H926 C939 0.929 . S
H927 C937 0.929 . S
H928 C932 0.929 . S
H929 C938 0.929 . S
C930 H924 0.930 . S
C930 C931 1.367 . S
C930 C938 1.378 . S
C931 C930 1.367 . S
C931 C939 1.433 . S
C932 H928 0.929 . S
C932 C934 1.378 . S
C932 C936 1.350 . S
C933 C936 1.463 . S
C933 C938 1.350 . S
C933 N941 1.427 . S
C934 H925 0.930 . S
C934 C932 1.378 . S
C934 C935 1.367 . S
C935 C934 1.367 . S
C935 C937 1.433 . S
C936 C932 1.350 . S
C936 C933 1.463 . S
C936 N940 1.427 . S
C937 H927 0.929 . S
C937 C935 1.433 . S
C937 N940 1.384 . S
C938 H929 0.929 . S
C938 C930 1.378 . S
C938 C933 1.350 . S
C939 H926 0.929 . S
C939 C931 1.433 . S
C939 N941 1.384 . S
N940 C936 1.427 . S
N940 C937 1.384 . S
N941 C933 1.427 . S
N941 C939 1.384 . S
H942 C948 0.930 . S
H943 C952 0.930 . S
H944 C957 0.929 1_554 S
H945 C955 0.929 . S
H946 C950 0.929 . S
H947 C956 0.929 . S
C948 H942 0.930 . S
C948 C949 1.367 . S
C948 C956 1.378 . S
C949 C948 1.367 . S
C949 C957 1.433 . S
C950 H946 0.929 . S
C950 C952 1.378 . S
C950 C954 1.350 . S
C951 C954 1.463 . S
C951 C956 1.350 . S
C951 N959 1.427 . S
C952 H943 0.930 . S
C952 C950 1.378 . S
C952 C953 1.366 . S
C953 C952 1.366 . S
C953 C955 1.433 1_655 S
C954 C950 1.350 . S
C954 C951 1.463 . S
C954 N958 1.427 . S
C955 H945 0.929 . S
C955 C953 1.433 1_455 S
C955 N958 1.384 1_455 S
C956 H947 0.929 . S
C956 C948 1.378 . S
C956 C951 1.350 . S
C957 H944 0.929 1_556 S
C957 C949 1.433 . S
C957 N959 1.384 . S
N958 C954 1.427 . S
N958 C955 1.384 1_655 S
N959 C951 1.427 . S
N959 C957 1.384 . S
H960 C966 0.930 . S
H961 C970 0.930 . S
H962 C975 0.929 . S
H963 C973 0.929 . S
H964 C968 0.929 . S
H965 C974 0.929 . S
C966 H960 0.930 . S
C966 C967 1.367 . S
C966 C974 1.378 . S
C967 C966 1.367 . S
C967 C975 1.433 . S
C968 H964 0.929 . S
C968 C970 1.378 . S
C968 C972 1.350 . S
C969 C972 1.463 . S
C969 C974 1.350 . S
C969 N977 1.427 . S
C970 H961 0.930 . S
C970 C968 1.378 . S
C970 C971 1.367 . S
C971 C970 1.367 . S
C971 C973 1.433 . S
C972 C968 1.350 . S
C972 C969 1.463 . S
C972 N976 1.427 . S
C973 H963 0.929 . S
C973 C971 1.433 . S
C973 N976 1.384 . S
C974 H965 0.929 . S
C974 C966 1.378 . S
C974 C969 1.350 . S
C975 H962 0.929 . S
C975 C967 1.433 . S
C975 N977 1.384 . S
N976 C972 1.427 . S
N976 C973 1.384 . S
N977 C969 1.427 . S
N977 C975 1.384 . S
H978 C984 0.930 1_554 S
H979 C988 0.930 1_655 S
H980 C993 0.929 . S
H981 C991 0.929 . S
H982 C986 0.929 1_655 S
H983 C992 0.929 . S
C984 H978 0.930 1_556 S
C984 C985 1.367 . S
C984 C992 1.378 . S
C985 C984 1.367 . S
C985 C993 1.433 . S
C986 H982 0.929 1_455 S
C986 C988 1.378 . S
C986 C990 1.350 . S
C987 C990 1.463 . S
C987 C992 1.350 . S
C987 N995 1.427 . S
C988 H979 0.930 1_455 S
C988 C986 1.378 . S
C988 C989 1.367 . S
C989 C988 1.367 . S
C989 C991 1.433 . S
C990 C986 1.350 . S
C990 C987 1.463 . S
C990 N994 1.427 . S
C991 H981 0.929 . S
C991 C989 1.433 . S
C991 N994 1.384 . S
C992 H983 0.929 . S
C992 C984 1.378 . S
C992 C987 1.350 . S
C993 H980 0.929 . S
C993 C985 1.433 . S
C993 N995 1.384 . S
N994 C990 1.427 . S
N994 C991 1.384 . S
N995 C987 1.427 . S
N995 C993 1.384 . S
H996 C1002 0.930 . S
H997 C1006 0.930 . S
H998 C1011 0.929 . S
H999 C1009 0.929 . S
H1000 C1004 0.929 . S
H1001 C1010 0.929 . S
C1002 H996 0.930 . S
C1002 C1003 1.367 . S
C1002 C1010 1.378 . S
C1003 C1002 1.367 . S
C1003 C1011 1.433 . S
C1004 H1000 0.929 . S
C1004 C1006 1.378 . S
C1004 C1008 1.350 . S
C1005 C1008 1.463 . S
C1005 C1010 1.350 . S
C1005 N1013 1.427 . S
C1006 H997 0.930 . S
C1006 C1004 1.378 . S
C1006 C1007 1.367 . S
C1007 C1006 1.367 . S
C1007 C1009 1.433 . S
C1008 C1004 1.350 . S
C1008 C1005 1.463 . S
C1008 N1012 1.427 . S
C1009 H999 0.929 . S
C1009 C1007 1.433 . S
C1009 N1012 1.384 . S
C1010 H1001 0.929 . S
C1010 C1002 1.378 . S
C1010 C1005 1.350 . S
C1011 H998 0.929 . S
C1011 C1003 1.433 . S
C1011 N1013 1.384 . S
N1012 C1008 1.427 . S
N1012 C1009 1.384 . S
N1013 C1005 1.427 . S
N1013 C1011 1.384 . S
H1014 C1020 0.930 . S
H1015 C1024 0.930 . S
H1016 C1029 0.929 1_556 S
H1017 C1027 0.929 . S
H1018 C1022 0.929 . S
H1019 C1028 0.929 . S
C1020 H1014 0.930 . S
C1020 C1021 1.367 . S
C1020 C1028 1.378 . S
C1021 C1020 1.367 . S
C1021 C1029 1.433 . S
C1022 H1018 0.929 . S
C1022 C1024 1.378 . S
C1022 C1026 1.350 . S
C1023 C1026 1.463 . S
C1023 C1028 1.350 . S
C1023 N1031 1.427 . S
C1024 H1015 0.930 . S
C1024 C1022 1.378 . S
C1024 C1025 1.367 . S
C1025 C1024 1.367 . S
C1025 C1027 1.433 . S
C1026 C1022 1.350 . S
C1026 C1023 1.463 . S
C1026 N1030 1.427 . S
C1027 H1017 0.929 . S
C1027 C1025 1.433 . S
C1027 N1030 1.384 . S
C1028 H1019 0.929 . S
C1028 C1020 1.378 . S
C1028 C1023 1.350 . S
C1029 H1016 0.929 1_554 S
C1029 C1021 1.433 . S
C1029 N1031 1.384 . S
N1030 C1026 1.427 . S
N1030 C1027 1.384 . S
N1031 C1023 1.427 . S
N1031 C1029 1.384 . S
H1032 C1038 0.930 . S
H1033 C1042 0.930 . S
H1034 C1047 0.929 . S
H1035 C1045 0.929 . S
H1036 C1040 0.929 . S
H1037 C1046 0.929 . S
C1038 H1032 0.930 . S
C1038 C1039 1.367 . S
C1038 C1046 1.378 . S
C1039 C1038 1.367 . S
C1039 C1047 1.433 . S
C1040 H1036 0.929 . S
C1040 C1042 1.378 . S
C1040 C1044 1.350 . S
C1041 C1044 1.463 . S
C1041 C1046 1.350 . S
C1041 N1049 1.427 . S
C1042 H1033 0.930 . S
C1042 C1040 1.378 . S
C1042 C1043 1.367 . S
C1043 C1042 1.367 . S
C1043 C1045 1.433 . S
C1044 C1040 1.350 . S
C1044 C1041 1.463 . S
C1044 N1048 1.427 . S
C1045 H1035 0.929 . S
C1045 C1043 1.433 . S
C1045 N1048 1.384 . S
C1046 H1037 0.929 . S
C1046 C1038 1.378 . S
C1046 C1041 1.350 . S
C1047 H1034 0.929 . S
C1047 C1039 1.433 . S
C1047 N1049 1.384 . S
N1048 C1044 1.427 . S
N1048 C1045 1.384 . S
N1049 C1041 1.427 . S
N1049 C1047 1.384 . S
H1050 C1056 0.930 . S
H1051 C1060 0.930 . S
H1052 C1065 0.929 . S
H1053 C1063 0.929 . S
H1054 C1058 0.929 . S
H1055 C1064 0.929 . S
C1056 H1050 0.930 . S
C1056 C1057 1.367 1_556 S
C1056 C1064 1.378 1_556 S
C1057 C1056 1.367 1_554 S
C1057 C1065 1.433 . S
C1058 H1054 0.929 . S
C1058 C1060 1.378 . S
C1058 C1062 1.350 . S
C1059 C1062 1.463 . S
C1059 C1064 1.350 . S
C1059 N1067 1.427 . S
C1060 H1051 0.930 . S
C1060 C1058 1.378 . S
C1060 C1061 1.367 . S
C1061 C1060 1.367 . S
C1061 C1063 1.433 . S
C1062 C1058 1.350 . S
C1062 C1059 1.463 . S
C1062 N1066 1.427 . S
C1063 H1053 0.929 . S
C1063 C1061 1.433 . S
C1063 N1066 1.384 . S
C1064 H1055 0.929 . S
C1064 C1056 1.378 1_554 S
C1064 C1059 1.350 . S
C1065 H1052 0.929 . S
C1065 C1057 1.433 . S
C1065 N1067 1.384 . S
N1066 C1062 1.427 . S
N1066 C1063 1.384 . S
N1067 C1059 1.427 . S
N1067 C1065 1.384 . S
H1068 C1074 0.930 . S
H1069 C1078 0.930 . S
H1070 C1083 0.929 . S
H1071 C1081 0.929 . S
H1072 C1076 0.929 . S
H1073 C1082 0.929 . S
C1074 H1068 0.930 . S
C1074 C1075 1.367 . S
C1074 C1082 1.378 . S
C1075 C1074 1.367 . S
C1075 C1083 1.433 . S
C1076 H1072 0.929 . S
C1076 C1078 1.378 . S
C1076 C1080 1.350 . S
C1077 C1080 1.463 . S
C1077 C1082 1.350 . S
C1077 N1085 1.427 . S
C1078 H1069 0.930 . S
C1078 C1076 1.378 . S
C1078 C1079 1.367 . S
C1079 C1078 1.367 . S
C1079 C1081 1.433 . S
C1080 C1076 1.350 . S
C1080 C1077 1.463 . S
C1080 N1084 1.427 . S
C1081 H1071 0.929 . S
C1081 C1079 1.433 . S
C1081 N1084 1.384 . S
C1082 H1073 0.929 . S
C1082 C1074 1.378 . S
C1082 C1077 1.350 . S
C1083 H1070 0.929 . S
C1083 C1075 1.433 . S
C1083 N1085 1.384 . S
N1084 C1080 1.427 . S
N1084 C1081 1.384 . S
N1085 C1077 1.427 . S
N1085 C1083 1.384 . S
H1086 C1092 0.930 . S
H1087 C1096 0.930 . S
H1088 C1101 0.929 . S
H1089 C1099 0.929 . S
H1090 C1094 0.929 . S
H1091 C1100 0.929 . S
C1092 H1086 0.930 . S
C1092 C1093 1.367 . S
C1092 C1100 1.378 . S
C1093 C1092 1.367 . S
C1093 C1101 1.433 . S
C1094 H1090 0.929 . S
C1094 C1096 1.378 . S
C1094 C1098 1.350 . S
C1095 C1098 1.463 . S
C1095 C1100 1.350 . S
C1095 N1103 1.427 . S
C1096 H1087 0.930 . S
C1096 C1094 1.378 . S
C1096 C1097 1.367 . S
C1097 C1096 1.367 . S
C1097 C1099 1.433 . S
C1098 C1094 1.350 . S
C1098 C1095 1.463 . S
C1098 N1102 1.427 . S
C1099 H1089 0.929 . S
C1099 C1097 1.433 . S
C1099 N1102 1.384 . S
C1100 H1091 0.929 . S
C1100 C1092 1.378 . S
C1100 C1095 1.350 . S
C1101 H1088 0.929 . S
C1101 C1093 1.433 . S
C1101 N1103 1.384 . S
N1102 C1098 1.427 . S
N1102 C1099 1.384 . S
N1103 C1095 1.427 . S
N1103 C1101 1.384 . S
H1104 C1110 0.930 . S
H1105 C1114 0.930 . S
H1106 C1119 0.929 . S
H1107 C1117 0.929 . S
H1108 C1112 0.929 . S
H1109 C1118 0.929 . S
C1110 H1104 0.930 . S
C1110 C1111 1.367 . S
C1110 C1118 1.378 . S
C1111 C1110 1.367 . S
C1111 C1119 1.433 . S
C1112 H1108 0.929 . S
C1112 C1114 1.378 . S
C1112 C1116 1.350 . S
C1113 C1116 1.463 . S
C1113 C1118 1.350 . S
C1113 N1121 1.427 . S
C1114 H1105 0.930 . S
C1114 C1112 1.378 . S
C1114 C1115 1.367 . S
C1115 C1114 1.367 . S
C1115 C1117 1.433 . S
C1116 C1112 1.350 . S
C1116 C1113 1.463 . S
C1116 N1120 1.427 . S
C1117 H1107 0.929 . S
C1117 C1115 1.433 . S
C1117 N1120 1.384 . S
C1118 H1109 0.929 . S
C1118 C1110 1.378 . S
C1118 C1113 1.350 . S
C1119 H1106 0.929 . S
C1119 C1111 1.433 . S
C1119 N1121 1.384 . S
N1120 C1116 1.427 . S
N1120 C1117 1.384 . S
N1121 C1113 1.427 . S
N1121 C1119 1.384 . S
H1122 C1128 0.930 . S
H1123 C1132 0.930 . S
H1124 C1137 0.929 . S
H1125 C1135 0.929 . S
H1126 C1130 0.929 . S
H1127 C1136 0.929 . S
C1128 H1122 0.930 . S
C1128 C1129 1.367 . S
C1128 C1136 1.378 . S
C1129 C1128 1.367 . S
C1129 C1137 1.433 . S
C1130 H1126 0.929 . S
C1130 C1132 1.378 . S
C1130 C1134 1.350 . S
C1131 C1134 1.463 . S
C1131 C1136 1.350 . S
C1131 N1139 1.427 . S
C1132 H1123 0.930 . S
C1132 C1130 1.378 . S
C1132 C1133 1.367 . S
C1133 C1132 1.367 . S
C1133 C1135 1.433 . S
C1134 C1130 1.350 . S
C1134 C1131 1.463 . S
C1134 N1138 1.427 . S
C1135 H1125 0.929 . S
C1135 C1133 1.433 . S
C1135 N1138 1.384 . S
C1136 H1127 0.929 . S
C1136 C1128 1.378 . S
C1136 C1131 1.350 . S
C1137 H1124 0.929 . S
C1137 C1129 1.433 . S
C1137 N1139 1.384 . S
N1138 C1134 1.427 . S
N1138 C1135 1.384 . S
N1139 C1131 1.427 . S
N1139 C1137 1.384 . S
H1140 C1146 0.930 1_554 S
H1141 C1150 0.930 . S
H1142 C1155 0.929 . S
H1143 C1153 0.929 . S
H1144 C1148 0.929 . S
H1145 C1154 0.929 1_554 S
C1146 H1140 0.930 1_556 S
C1146 C1147 1.367 . S
C1146 C1154 1.378 . S
C1147 C1146 1.367 . S
C1147 C1155 1.433 . S
C1148 H1144 0.929 . S
C1148 C1150 1.378 . S
C1148 C1152 1.350 . S
C1149 C1152 1.463 . S
C1149 C1154 1.350 . S
C1149 N1157 1.427 . S
C1150 H1141 0.930 . S
C1150 C1148 1.378 . S
C1150 C1151 1.367 . S
C1151 C1150 1.367 . S
C1151 C1153 1.433 1_556 S
C1152 C1148 1.350 . S
C1152 C1149 1.463 . S
C1152 N1156 1.427 1_556 S
C1153 H1143 0.929 . S
C1153 C1151 1.433 1_554 S
C1153 N1156 1.384 . S
C1154 H1145 0.929 1_556 S
C1154 C1146 1.378 . S
C1154 C1149 1.350 . S
C1155 H1142 0.929 . S
C1155 C1147 1.433 . S
C1155 N1157 1.384 . S
N1156 C1152 1.427 1_554 S
N1156 C1153 1.384 . S
N1157 C1149 1.427 . S
N1157 C1155 1.384 . S
H1158 C1164 0.930 . S
H1159 C1168 0.930 . S
H1160 C1173 0.929 . S
H1161 C1171 0.929 . S
H1162 C1166 0.929 . S
H1163 C1172 0.929 . S
C1164 H1158 0.930 . S
C1164 C1165 1.367 . S
C1164 C1172 1.378 . S
C1165 C1164 1.367 . S
C1165 C1173 1.433 . S
C1166 H1162 0.929 . S
C1166 C1168 1.378 . S
C1166 C1170 1.350 . S
C1167 C1170 1.463 . S
C1167 C1172 1.350 . S
C1167 N1175 1.427 . S
C1168 H1159 0.930 . S
C1168 C1166 1.378 . S
C1168 C1169 1.367 . S
C1169 C1168 1.367 . S
C1169 C1171 1.433 . S
C1170 C1166 1.350 . S
C1170 C1167 1.463 . S
C1170 N1174 1.427 . S
C1171 H1161 0.929 . S
C1171 C1169 1.433 . S
C1171 N1174 1.384 . S
C1172 H1163 0.929 . S
C1172 C1164 1.378 . S
C1172 C1167 1.350 . S
C1173 H1160 0.929 . S
C1173 C1165 1.433 . S
C1173 N1175 1.384 . S
N1174 C1170 1.427 . S
N1174 C1171 1.384 . S
N1175 C1167 1.427 . S
N1175 C1173 1.384 . S
H1176 C1182 0.930 1_556 S
H1177 C1186 0.930 . S
H1178 C1191 0.929 . S
H1179 C1189 0.929 . S
H1180 C1184 0.929 . S
H1181 C1190 0.929 1_556 S
C1182 H1176 0.930 1_554 S
C1182 C1183 1.367 . S
C1182 C1190 1.378 . S
C1183 C1182 1.367 . S
C1183 C1191 1.433 . S
C1184 H1180 0.929 . S
C1184 C1186 1.378 . S
C1184 C1188 1.350 . S
C1185 C1188 1.463 . S
C1185 C1190 1.350 . S
C1185 N1193 1.427 . S
C1186 H1177 0.930 . S
C1186 C1184 1.378 . S
C1186 C1187 1.367 . S
C1187 C1186 1.367 . S
C1187 C1189 1.433 1_554 S
C1188 C1184 1.350 . S
C1188 C1185 1.463 . S
C1188 N1192 1.427 1_554 S
C1189 H1179 0.929 . S
C1189 C1187 1.433 1_556 S
C1189 N1192 1.384 . S
C1190 H1181 0.929 1_554 S
C1190 C1182 1.378 . S
C1190 C1185 1.350 . S
C1191 H1178 0.929 . S
C1191 C1183 1.433 . S
C1191 N1193 1.384 . S
N1192 C1188 1.427 1_556 S
N1192 C1189 1.384 . S
N1193 C1185 1.427 . S
N1193 C1191 1.384 . S
H1194 C1200 0.930 . S
H1195 C1204 0.930 . S
H1196 C1209 0.929 . S
H1197 C1207 0.929 . S
H1198 C1202 0.944 . S
H1199 C1208 0.929 . S
C1200 H1194 0.930 . S
C1200 C1201 1.367 1_565 S
C1200 C1208 1.378 . S
C1201 C1200 1.367 1_545 S
C1201 C1209 1.433 . S
C1202 H1198 0.944 . S
C1202 C1204 1.378 . S
C1202 C1206 1.350 . S
C1203 C1206 1.463 . S
C1203 C1208 1.350 . S
C1203 N1211 1.427 1_565 S
C1204 H1195 0.930 . S
C1204 C1202 1.378 . S
C1204 C1205 1.367 . S
C1205 C1204 1.367 . S
C1205 C1207 1.433 . S
C1206 C1202 1.350 . S
C1206 C1203 1.463 . S
C1206 N1210 1.427 . S
C1207 H1197 0.929 . S
C1207 C1205 1.433 . S
C1207 N1210 1.384 . S
C1208 H1199 0.929 . S
C1208 C1200 1.378 . S
C1208 C1203 1.350 . S
C1209 H1196 0.929 . S
C1209 C1201 1.433 . S
C1209 N1211 1.384 . S
N1210 C1206 1.427 . S
N1210 C1207 1.384 . S
N1211 C1203 1.427 1_545 S
N1211 C1209 1.384 . S
C359 C202 1.648 . S
C355 C66 1.676 . S
C377 C215 1.240 . S
C373 C76 1.247 . S
C391 C93 1.798 . S
C395 C228 1.762 . S
C413 C241 1.478 . S
C409 C54 1.496 1_545 S
C431 C249 1.486 . S
C427 C126 1.500 . S
C449 C262 1.734 . S
C445 C150 1.752 . S
C463 C136 1.203 . S
C467 C275 1.187 . S
C485 C288 1.749 . S
C481 C117 1.773 . S
C499 C141 1.239 . S
C503 C306 1.229 . S
C521 C317 1.348 . S
C517 C112 1.357 . S
C535 C124 1.501 . S
C539 C301 1.480 . S
C557 C309 1.271 . S
C553 C148 1.278 . S
C571 C88 1.305 . S
C575 C332 1.304 . S
C589 C52 1.585 . S
C593 C322 1.564 . S
C607 C64 1.274 . S
C611 C327 1.252 . S
C625 C78 1.273 . S
C629 C330 1.243 . S
C643 C45 1.672 . S
C647 C239 1.650 . S
C661 C177 1.787 . S
C665 C231 1.770 . S
C683 C200 1.453 . S
C679 C189 1.456 . S
C701 C205 1.603 . S
C697 C102 1.627 . S
C715 C57 1.744 . S
C719 C252 1.724 . S
C737 C291 1.455 . S
C733 C138 1.492 . S
C755 C244 1.765 . S
C751 C114 1.775 . S
C773 C270 1.643 . S
C769 C153 1.684 . S
C791 C280 1.651 . S
C787 C174 1.675 . S
C805 C184 1.251 . S
C809 C293 1.247 . S
C823 C105 1.795 . S
C827 C254 1.760 . S
C845 C267 1.470 . S
C841 C162 1.500 . S
C859 C42 1.500 . S
C863 C223 1.484 . S
C881 C236 1.734 . S
C877 C6 1.752 . S
C899 C197 1.192 . S
C895 C16 1.205 . S
C917 C210 1.753 . S
C913 C33 1.772 1_455 S
C931 C21 1.234 . S
C935 C319 1.219 . S
C949 C28 1.333 1_556 S
C953 C304 1.348 1_655 S
C967 C40 1.500 . S
C971 C314 1.474 . S
C985 C4 1.279 1_556 S
C989 C296 1.271 . S
C1007 C345 1.299 . S
C1003 C100 1.305 . S
C1025 C335 1.571 . S
C1021 C160 1.587 1_554 S
C1043 C340 1.255 . S
C1039 C172 1.277 . S
C1057 C186 1.272 1_554 S
C1061 C343 1.244 . S
C1075 C129 1.669 . S
C1079 C265 1.657 . S
C1097 C257 1.770 . S
C1093 C69 1.789 . S
C1115 C278 1.448 . S
C1111 C81 1.457 . S
C1133 C283 1.595 . S
C1129 C90 1.625 . S
C1147 C165 1.743 . S
C1151 C226 1.729 . S
C1169 C213 1.449 . S
C1165 C18 1.493 . S
C1183 C30 1.776 . S
C1187 C218 1.766 . S
C1205 C192 1.651 . S
C1201 C9 1.684 . S
