# Generated by pormake.
# Topology llk, (3,12)-cn, num edge types: 1
# Building blocks:
#     Node 0, Type 0, BuildingBlock: KAKCAD_clean_linker_0, # of connection points: 3
#     Node 1, Type 0, BuildingBlock: KAKCAD_clean_linker_0, # of connection points: 3
#     Node 2, Type 0, BuildingBlock: KAKCAD_clean_linker_0, # of connection points: 3
#     Node 3, Type 0, BuildingBlock: KAKCAD_clean_linker_0, # of connection points: 3
#     Node 4, Type 0, BuildingBlock: KAKCAD_clean_linker_0, # of connection points: 3
#     Node 5, Type 0, BuildingBlock: KAKCAD_clean_linker_0, # of connection points: 3
#     Node 6, Type 0, BuildingBlock: KAKCAD_clean_linker_0, # of connection points: 3
#     Node 7, Type 0, BuildingBlock: KAKCAD_clean_linker_0, # of connection points: 3
#     Node 8, Type 0, BuildingBlock: KAKCAD_clean_linker_0, # of connection points: 3
#     Node 9, Type 0, BuildingBlock: KAKCAD_clean_linker_0, # of connection points: 3
#     Node 10, Type 0, BuildingBlock: KAKCAD_clean_linker_0, # of connection points: 3
#     Node 11, Type 0, BuildingBlock: KAKCAD_clean_linker_0, # of connection points: 3
#     Node 12, Type 0, BuildingBlock: KAKCAD_clean_linker_0, # of connection points: 3
#     Node 13, Type 0, BuildingBlock: KAKCAD_clean_linker_0, # of connection points: 3
#     Node 14, Type 0, BuildingBlock: KAKCAD_clean_linker_0, # of connection points: 3
#     Node 15, Type 0, BuildingBlock: KAKCAD_clean_linker_0, # of connection points: 3
#     Node 16, Type 0, BuildingBlock: KAKCAD_clean_linker_0, # of connection points: 3
#     Node 17, Type 0, BuildingBlock: KAKCAD_clean_linker_0, # of connection points: 3
#     Node 18, Type 0, BuildingBlock: KAKCAD_clean_linker_0, # of connection points: 3
#     Node 19, Type 0, BuildingBlock: KAKCAD_clean_linker_0, # of connection points: 3
#     Node 20, Type 0, BuildingBlock: KAKCAD_clean_linker_0, # of connection points: 3
#     Node 21, Type 0, BuildingBlock: KAKCAD_clean_linker_0, # of connection points: 3
#     Node 22, Type 0, BuildingBlock: KAKCAD_clean_linker_0, # of connection points: 3
#     Node 23, Type 0, BuildingBlock: KAKCAD_clean_linker_0, # of connection points: 3
#     Node 24, Type 1, BuildingBlock: QEWDON_clean_sbu_0, # of connection points: 12
#     Node 25, Type 1, BuildingBlock: QEWDON_clean_sbu_0, # of connection points: 12
#     Node 26, Type 1, BuildingBlock: QEWDON_clean_sbu_0, # of connection points: 12
#     Node 27, Type 1, BuildingBlock: QEWDON_clean_sbu_0, # of connection points: 12
#     Node 28, Type 1, BuildingBlock: QEWDON_clean_sbu_0, # of connection points: 12
#     Node 29, Type 1, BuildingBlock: QEWDON_clean_sbu_0, # of connection points: 12
#     Edge 30, Type (0, 1), BuildingBlock: OJICUG_clean_linker_0, # of connection points: 2
#     Edge 31, Type (0, 1), BuildingBlock: OJICUG_clean_linker_0, # of connection points: 2
#     Edge 32, Type (0, 1), BuildingBlock: OJICUG_clean_linker_0, # of connection points: 2
#     Edge 33, Type (0, 1), BuildingBlock: OJICUG_clean_linker_0, # of connection points: 2
#     Edge 34, Type (0, 1), BuildingBlock: OJICUG_clean_linker_0, # of connection points: 2
#     Edge 35, Type (0, 1), BuildingBlock: OJICUG_clean_linker_0, # of connection points: 2
#     Edge 36, Type (0, 1), BuildingBlock: OJICUG_clean_linker_0, # of connection points: 2
#     Edge 37, Type (0, 1), BuildingBlock: OJICUG_clean_linker_0, # of connection points: 2
#     Edge 38, Type (0, 1), BuildingBlock: OJICUG_clean_linker_0, # of connection points: 2
#     Edge 39, Type (0, 1), BuildingBlock: OJICUG_clean_linker_0, # of connection points: 2
#     Edge 40, Type (0, 1), BuildingBlock: OJICUG_clean_linker_0, # of connection points: 2
#     Edge 41, Type (0, 1), BuildingBlock: OJICUG_clean_linker_0, # of connection points: 2
#     Edge 42, Type (0, 1), BuildingBlock: OJICUG_clean_linker_0, # of connection points: 2
#     Edge 43, Type (0, 1), BuildingBlock: OJICUG_clean_linker_0, # of connection points: 2
#     Edge 44, Type (0, 1), BuildingBlock: OJICUG_clean_linker_0, # of connection points: 2
#     Edge 45, Type (0, 1), BuildingBlock: OJICUG_clean_linker_0, # of connection points: 2
#     Edge 46, Type (0, 1), BuildingBlock: OJICUG_clean_linker_0, # of connection points: 2
#     Edge 47, Type (0, 1), BuildingBlock: OJICUG_clean_linker_0, # of connection points: 2
#     Edge 48, Type (0, 1), BuildingBlock: OJICUG_clean_linker_0, # of connection points: 2
#     Edge 49, Type (0, 1), BuildingBlock: OJICUG_clean_linker_0, # of connection points: 2
#     Edge 50, Type (0, 1), BuildingBlock: OJICUG_clean_linker_0, # of connection points: 2
#     Edge 51, Type (0, 1), BuildingBlock: OJICUG_clean_linker_0, # of connection points: 2
#     Edge 52, Type (0, 1), BuildingBlock: OJICUG_clean_linker_0, # of connection points: 2
#     Edge 53, Type (0, 1), BuildingBlock: OJICUG_clean_linker_0, # of connection points: 2
#     Edge 54, Type (0, 1), BuildingBlock: OJICUG_clean_linker_0, # of connection points: 2
#     Edge 55, Type (0, 1), BuildingBlock: OJICUG_clean_linker_0, # of connection points: 2
#     Edge 56, Type (0, 1), BuildingBlock: OJICUG_clean_linker_0, # of connection points: 2
#     Edge 57, Type (0, 1), BuildingBlock: OJICUG_clean_linker_0, # of connection points: 2
#     Edge 58, Type (0, 1), BuildingBlock: OJICUG_clean_linker_0, # of connection points: 2
#     Edge 59, Type (0, 1), BuildingBlock: OJICUG_clean_linker_0, # of connection points: 2
#     Edge 60, Type (0, 1), BuildingBlock: OJICUG_clean_linker_0, # of connection points: 2
#     Edge 61, Type (0, 1), BuildingBlock: OJICUG_clean_linker_0, # of connection points: 2
#     Edge 62, Type (0, 1), BuildingBlock: OJICUG_clean_linker_0, # of connection points: 2
#     Edge 63, Type (0, 1), BuildingBlock: OJICUG_clean_linker_0, # of connection points: 2
#     Edge 64, Type (0, 1), BuildingBlock: OJICUG_clean_linker_0, # of connection points: 2
#     Edge 65, Type (0, 1), BuildingBlock: OJICUG_clean_linker_0, # of connection points: 2
#     Edge 66, Type (0, 1), BuildingBlock: OJICUG_clean_linker_0, # of connection points: 2
#     Edge 67, Type (0, 1), BuildingBlock: OJICUG_clean_linker_0, # of connection points: 2
#     Edge 68, Type (0, 1), BuildingBlock: OJICUG_clean_linker_0, # of connection points: 2
#     Edge 69, Type (0, 1), BuildingBlock: OJICUG_clean_linker_0, # of connection points: 2
#     Edge 70, Type (0, 1), BuildingBlock: OJICUG_clean_linker_0, # of connection points: 2
#     Edge 71, Type (0, 1), BuildingBlock: OJICUG_clean_linker_0, # of connection points: 2
#     Edge 72, Type (0, 1), BuildingBlock: OJICUG_clean_linker_0, # of connection points: 2
#     Edge 73, Type (0, 1), BuildingBlock: OJICUG_clean_linker_0, # of connection points: 2
#     Edge 74, Type (0, 1), BuildingBlock: OJICUG_clean_linker_0, # of connection points: 2
#     Edge 75, Type (0, 1), BuildingBlock: OJICUG_clean_linker_0, # of connection points: 2
#     Edge 76, Type (0, 1), BuildingBlock: OJICUG_clean_linker_0, # of connection points: 2
#     Edge 77, Type (0, 1), BuildingBlock: OJICUG_clean_linker_0, # of connection points: 2
#     Edge 78, Type (0, 1), BuildingBlock: OJICUG_clean_linker_0, # of connection points: 2
#     Edge 79, Type (0, 1), BuildingBlock: OJICUG_clean_linker_0, # of connection points: 2
#     Edge 80, Type (0, 1), BuildingBlock: OJICUG_clean_linker_0, # of connection points: 2
#     Edge 81, Type (0, 1), BuildingBlock: OJICUG_clean_linker_0, # of connection points: 2
#     Edge 82, Type (0, 1), BuildingBlock: OJICUG_clean_linker_0, # of connection points: 2
#     Edge 83, Type (0, 1), BuildingBlock: OJICUG_clean_linker_0, # of connection points: 2
#     Edge 84, Type (0, 1), BuildingBlock: OJICUG_clean_linker_0, # of connection points: 2
#     Edge 85, Type (0, 1), BuildingBlock: OJICUG_clean_linker_0, # of connection points: 2
#     Edge 86, Type (0, 1), BuildingBlock: OJICUG_clean_linker_0, # of connection points: 2
#     Edge 87, Type (0, 1), BuildingBlock: OJICUG_clean_linker_0, # of connection points: 2
#     Edge 88, Type (0, 1), BuildingBlock: OJICUG_clean_linker_0, # of connection points: 2
#     Edge 89, Type (0, 1), BuildingBlock: OJICUG_clean_linker_0, # of connection points: 2
#     Edge 90, Type (0, 1), BuildingBlock: OJICUG_clean_linker_0, # of connection points: 2
#     Edge 91, Type (0, 1), BuildingBlock: OJICUG_clean_linker_0, # of connection points: 2
#     Edge 92, Type (0, 1), BuildingBlock: OJICUG_clean_linker_0, # of connection points: 2
#     Edge 93, Type (0, 1), BuildingBlock: OJICUG_clean_linker_0, # of connection points: 2
#     Edge 94, Type (0, 1), BuildingBlock: OJICUG_clean_linker_0, # of connection points: 2
#     Edge 95, Type (0, 1), BuildingBlock: OJICUG_clean_linker_0, # of connection points: 2
#     Edge 96, Type (0, 1), BuildingBlock: OJICUG_clean_linker_0, # of connection points: 2
#     Edge 97, Type (0, 1), BuildingBlock: OJICUG_clean_linker_0, # of connection points: 2
#     Edge 98, Type (0, 1), BuildingBlock: OJICUG_clean_linker_0, # of connection points: 2
#     Edge 99, Type (0, 1), BuildingBlock: OJICUG_clean_linker_0, # of connection points: 2
#     Edge 100, Type (0, 1), BuildingBlock: OJICUG_clean_linker_0, # of connection points: 2
#     Edge 101, Type (0, 1), BuildingBlock: OJICUG_clean_linker_0, # of connection points: 2
# Relax obj value: 0.130
# Max RMSD: 0.163
# Mean RMSD: 0.147
data_MOF--net-llk--node1-QEWDON_clean_sbu_0--node2-KAKCAD_clean_linker_0--edge1-OJICUG_clean_linker_0
_symmetry_space_group_name_H-M    P1
_symmetry_Int_Tables_number       1
_symmetry_cell_setting            triclinic
loop_
_symmetry_equiv_pos_as_xyz
'x, y, z'
_cell_length_a     44.407368
_cell_length_b     45.34391
_cell_length_c     44.926394
_cell_angle_alpha  90.103746
_cell_angle_beta   90.011813
_cell_angle_gamma 89.611468
loop_
_atom_site_label
_atom_site_type_symbol
_atom_site_fract_x
_atom_site_fract_y
_atom_site_fract_z
_atom_type_partial_charge
C0 C 0.01524 0.3621 0.36501 0.0
C1 C 0.0292 0.36025 0.39304 0.0
C2 C 0.0254 0.3448 0.34132 0.0
C3 C 0.0497 0.32523 0.34518 0.0
C4 C 0.06408 0.32379 0.37304 0.0
C5 C 0.05399 0.34122 0.39674 0.0
C6 C 0.0585 0.30489 0.32083 0.0
C7 C 0.06052 0.31475 0.2914 0.0
C8 C 0.06641 0.29497 0.268 0.0
C9 C 0.0701 0.26458 0.2743 0.0
C10 C 0.06825 0.25449 0.30404 0.0
C11 C 0.0627 0.27495 0.3269 0.0
C12 C 0.06851 0.22276 0.31253 0.0
C13 C 0.04615 0.20387 0.30167 0.0
C14 C 0.08563 0.21364 0.33728 0.0
C15 C 0.07814 0.18811 0.35302 0.0
C16 C 0.05343 0.17091 0.34424 0.0
C17 C 0.0679 0.30728 0.2374 0.0
C18 C 0.04243 0.32148 0.22542 0.0
C19 C 0.09571 0.31045 0.22294 0.0
C20 C 0.09828 0.32883 0.19792 0.0
C21 C 0.07303 0.34428 0.18677 0.0
C22 C 0.0449 0.33958 0.20034 0.0
C23 C 0.03876 0.17814 0.3173 0.0
H24 H -0.00357 0.37699 0.36136 0.0
H25 H 0.01368 0.34615 0.32021 0.0
H26 H 0.08299 0.30897 0.37655 0.0
H27 H 0.06518 0.33938 0.41808 0.0
H28 H 0.05749 0.33803 0.28663 0.0
H29 H 0.05983 0.2672 0.34955 0.0
H30 H 0.07388 0.24902 0.25634 0.0
H31 H 0.03249 0.21033 0.28276 0.0
H32 H 0.10303 0.22781 0.34616 0.0
H33 H 0.09008 0.18343 0.3735 0.0
H34 H 0.02084 0.31983 0.2365 0.0
H35 H 0.11577 0.30018 0.23205 0.0
H36 H 0.02018 0.16496 0.3093 0.0
H37 H 0.02502 0.35127 0.19267 0.0
H38 H 0.12022 0.33165 0.18785 0.0
C39 C 0.63485 0.12191 0.28462 0.0
C40 C 0.6187 0.09894 0.27099 0.0
C41 C 0.66244 0.13089 0.27302 0.0
C42 C 0.67428 0.11718 0.24754 0.0
C43 C 0.6566 0.09647 0.23217 0.0
C44 C 0.62904 0.08743 0.24382 0.0
C45 C 0.70645 0.12068 0.23964 0.0
C46 C 0.7286 0.11763 0.26171 0.0
C47 C 0.75915 0.11396 0.25418 0.0
C48 C 0.76737 0.11352 0.22382 0.0
C49 C 0.74538 0.11742 0.2016 0.0
C50 C 0.71519 0.12164 0.20981 0.0
C51 C 0.75157 0.11113 0.16988 0.0
C52 C 0.7399 0.13015 0.14803 0.0
C53 C 0.76025 0.08242 0.1617 0.0
C54 C 0.75301 0.07153 0.13347 0.0
C55 C 0.73709 0.0893 0.11312 0.0
C56 C 0.78126 0.10702 0.27819 0.0
C57 C 0.77914 0.12103 0.30612 0.0
C58 C 0.80268 0.08438 0.27443 0.0
C59 C 0.82066 0.07521 0.29828 0.0
C60 C 0.81756 0.08829 0.3266 0.0
C61 C 0.79697 0.11172 0.33004 0.0
C62 C 0.73275 0.11932 0.11981 0.0
H63 H 0.6276 0.13113 0.30571 0.0
H64 H 0.67544 0.14715 0.28507 0.0
H65 H 0.66514 0.0854 0.2125 0.0
H66 H 0.61692 0.0699 0.23273 0.0
H67 H 0.7217 0.11552 0.28474 0.0
H68 H 0.69798 0.12317 0.19272 0.0
H69 H 0.79054 0.10939 0.2174 0.0
H70 H 0.73313 0.15244 0.15384 0.0
H71 H 0.7691 0.06727 0.17821 0.0
H72 H 0.75674 0.04831 0.12901 0.0
H73 H 0.76312 0.1388 0.30972 0.0
H74 H 0.80479 0.07287 0.25338 0.0
H75 H 0.72111 0.13368 0.1043 0.0
H76 H 0.7939 0.12232 0.35145 0.0
H77 H 0.83681 0.0576 0.29455 0.0
C78 C 0.03531 0.71699 0.36448 0.0
C79 C 0.04715 0.68829 0.36214 0.0
C80 C 0.03632 0.73612 0.34029 0.0
C81 C 0.04955 0.7271 0.31331 0.0
C82 C 0.06391 0.69938 0.31193 0.0
C83 C 0.06268 0.6801 0.33614 0.0
C84 C 0.04513 0.74513 0.28606 0.0
C85 C 0.04532 0.77598 0.2876 0.0
C86 C 0.03636 0.7933 0.26321 0.0
C87 C 0.02831 0.77931 0.23629 0.0
C88 C 0.02888 0.74829 0.23426 0.0
C89 C 0.03711 0.73153 0.2592 0.0
C90 C 0.02086 0.73233 0.20663 0.0
C91 C -0.00317 0.71233 0.2068 0.0
C92 C 0.04056 0.73248 0.1823 0.0
C93 C 0.03759 0.71157 0.15953 0.0
C94 C 0.01464 0.69018 0.16048 0.0
C95 C 0.03216 0.82548 0.26815 0.0
C96 C 0.00392 0.8387 0.26314 0.0
C97 C 0.05422 0.84153 0.28361 0.0
C98 C 0.04731 0.86896 0.2962 0.0
C99 C 0.0182 0.88101 0.29354 0.0
C100 C -0.00301 0.86622 0.27572 0.0
C101 C 0.99358 0.69167 0.18386 0.0
H102 H 0.02361 0.72403 0.38445 0.0
H103 H 0.02486 0.75719 0.34221 0.0
H104 H 0.07484 0.69202 0.29166 0.0
H105 H 0.07202 0.6581 0.3337 0.0
H106 H 0.05103 0.7866 0.30846 0.0
H107 H 0.03636 0.70767 0.25778 0.0
H108 H 0.02113 0.79235 0.21735 0.0
H109 H 0.98145 0.71173 0.22551 0.0
H110 H 0.05957 0.74733 0.18199 0.0
H111 H 0.05459 0.71105 0.14226 0.0
H112 H 0.98638 0.82673 0.25161 0.0
H113 H 0.07627 0.83196 0.2876 0.0
H114 H 0.97525 0.6761 0.18514 0.0
H115 H 0.97432 0.87484 0.27329 0.0
H116 H 0.06435 0.88009 0.30922 0.0
C117 C 0.3153 0.01582 0.33761 0.0
C118 C 0.3077 0.99974 0.36322 0.0
C119 C 0.29976 0.01148 0.31099 0.0
C120 C 0.27615 0.99112 0.30946 0.0
C121 C 0.2682 0.97532 0.33515 0.0
C122 C 0.28397 0.97946 0.36176 0.0
C123 C 0.25924 0.98723 0.28133 0.0
C124 C 0.27434 0.98448 0.25406 0.0
C125 C 0.25824 0.98315 0.2271 0.0
C126 C 0.22657 0.98497 0.22762 0.0
C127 C 0.2114 0.98707 0.25492 0.0
C128 C 0.22778 0.98799 0.28156 0.0
C129 C 0.17852 0.99035 0.25685 0.0
C130 C 0.16551 0.01833 0.25292 0.0
C131 C 0.16203 0.96822 0.27102 0.0
C132 C 0.13444 0.97491 0.2843 0.0
C133 C 0.1231 1.00397 0.28383 0.0
C134 C 0.27506 0.98162 0.19867 0.0
C135 C 0.26848 1.00138 0.17552 0.0
C136 C 0.29979 0.96233 0.1957 0.0
C137 C 0.31868 0.96403 0.17094 0.0
C138 C 0.3133 0.98514 0.14868 0.0
C139 C 0.28746 1.00318 0.15078 0.0
C140 C 0.13787 0.02511 0.26629 0.0
H141 H 0.33382 0.03124 0.33793 0.0
H142 H 0.30607 0.02425 0.29164 0.0
H143 H 0.25005 0.95948 0.33454 0.0
H144 H 0.27768 0.96675 0.38115 0.0
H145 H 0.29875 0.98403 0.25378 0.0
H146 H 0.21591 0.99066 0.30251 0.0
H147 H 0.21383 0.98459 0.20705 0.0
H148 H 0.1781 0.03577 0.24227 0.0
H149 H 0.17194 0.9466 0.27454 0.0
H150 H 0.12387 0.95807 0.29769 0.0
H151 H 0.24969 0.01664 0.17734 0.0
H152 H 0.30507 0.94654 0.21304 0.0
H153 H 0.12943 0.04754 0.26511 0.0
H154 H 0.28281 0.01989 0.13419 0.0
H155 H 0.33804 0.94943 0.1697 0.0
C156 C 0.95981 0.67278 0.68801 0.0
C157 C 0.97622 0.68139 0.66278 0.0
C158 C 0.95535 0.69251 0.71156 0.0
C159 C 0.96739 0.72111 0.71036 0.0
C160 C 0.98177 0.73027 0.6841 0.0
C161 C 0.98589 0.71071 0.66051 0.0
C162 C 0.96802 0.74028 0.7372 0.0
C163 C 0.97436 0.72817 0.76521 0.0
C164 C 0.97906 0.74631 0.79005 0.0
C165 C 0.978 0.7772 0.78682 0.0
C166 C 0.97142 0.78965 0.75878 0.0
C167 C 0.96576 0.77098 0.73447 0.0
C168 C 0.97392 0.82171 0.75276 0.0
C169 C 0.95155 0.83601 0.73586 0.0
C170 C 0.00138 0.83609 0.75763 0.0
C171 C 0.00744 0.86288 0.74341 0.0
C172 C 0.9861 0.87575 0.72411 0.0
C173 C 0.98506 0.73179 0.81888 0.0
C174 C 0.96128 0.72746 0.83882 0.0
C175 C 0.01226 0.71645 0.8233 0.0
C176 C 0.01512 0.69595 0.84643 0.0
C177 C 0.99059 0.68994 0.86529 0.0
C178 C 0.96394 0.70673 0.86171 0.0
C179 C 0.95757 0.86274 0.72168 0.0
H180 H 0.95207 0.65031 0.6904 0.0
H181 H 0.9436 0.68496 0.73122 0.0
H182 H 0.99158 0.75199 0.68233 0.0
H183 H -0.00187 0.71812 0.64108 0.0
H184 H 0.97661 0.70448 0.7677 0.0
H185 H 0.9611 0.78054 0.71285 0.0
H186 H 0.9826 0.79132 0.80574 0.0
H187 H 0.93013 0.82542 0.73184 0.0
H188 H 0.01914 0.82539 0.77024 0.0
H189 H 0.02969 0.87225 0.74573 0.0
H190 H 0.93985 0.73851 0.83534 0.0
H191 H 0.03074 0.71916 0.80782 0.0
H192 H 0.94042 0.8724 0.70752 0.0
H193 H 0.94429 0.70257 0.87528 0.0
H194 H 0.03617 0.684 0.84875 0.0
C195 C 0.41086 0.01558 0.76418 0.0
C196 C 0.41487 0.03602 0.74113 0.0
C197 C 0.38233 0.01091 0.77607 0.0
C198 C 0.3573 0.02722 0.76579 0.0
C199 C 0.36209 0.05018 0.74546 0.0
C200 C 0.39053 0.05443 0.73309 0.0
C201 C 0.32628 0.01823 0.77406 0.0
C202 C 0.32081 0.00619 0.802 0.0
C203 C 0.29344 0.99254 0.80858 0.0
C204 C 0.26972 0.99358 0.78784 0.0
C205 C 0.27415 0.00738 0.75992 0.0
C206 C 0.30285 0.01871 0.75313 0.0
C207 C 0.2499 0.0093 0.7369 0.0
C208 C 0.22959 0.98611 0.73226 0.0
C209 C 0.24826 0.03395 0.71792 0.0
C210 C 0.22808 0.03479 0.69412 0.0
C211 C 0.20821 0.01134 0.68891 0.0
C212 C 0.2922 0.97694 0.83735 0.0
C213 C 0.31292 0.95362 0.84101 0.0
C214 C 0.28402 0.99356 0.86242 0.0
C215 C 0.30134 0.99163 0.88838 0.0
C216 C 0.32745 0.9737 0.88901 0.0
C217 C 0.33104 0.95243 0.86644 0.0
C218 C 0.20889 0.9872 0.7087 0.0
H219 H 0.42927 1.0015 0.77135 0.0
H220 H 0.37973 0.99298 0.79171 0.0
H221 H 0.34353 0.06379 0.73777 0.0
H222 H 0.39266 0.07045 0.71539 0.0
H223 H 0.33848 0.00633 0.81869 0.0
H224 H 0.30733 0.02681 0.73092 0.0
H225 H 0.24828 0.9838 0.79342 0.0
H226 H 0.23016 0.96671 0.74628 0.0
H227 H 0.26301 0.05262 0.72112 0.0
H228 H 0.22864 0.05369 0.67945 0.0
H229 H 0.31931 0.94018 0.82202 0.0
H230 H 0.26772 0.01134 0.86041 0.0
H231 H 0.19347 0.969 0.70604 0.0
H232 H 0.3503 0.93768 0.86621 0.0
H233 H 0.29672 0.00711 0.9062 0.0
C234 C 0.00935 0.3417 0.6345 0.0
C235 C 0.03425 0.36029 0.63808 0.0
C236 C -0.00074 0.32452 0.65813 0.0
C237 C 0.01403 0.32526 0.68582 0.0
C238 C 0.03861 0.3442 0.68961 0.0
C239 C 0.04858 0.36158 0.66599 0.0
C240 C 0.00486 0.30493 0.70995 0.0
C241 C -0.00223 0.27581 0.70296 0.0
C242 C 0.9891 0.25573 0.72496 0.0
C243 C 0.98826 0.2649 0.75495 0.0
C244 C -0.00429 0.29426 0.76248 0.0
C245 C 0.00379 0.31404 0.73972 0.0
C246 C -0.00538 0.30534 0.79367 0.0
C247 C 0.969 0.30124 0.81149 0.0
C248 C 0.01788 0.32336 0.80441 0.0
C249 C 0.01475 0.33862 0.83126 0.0
C250 C 0.98827 0.33622 0.84824 0.0
C251 C 0.98312 0.22509 0.71511 0.0
C252 C 0.9649 0.22073 0.68994 0.0
C253 C 0.00138 0.20177 0.72504 0.0
C254 C 0.00414 0.17598 0.70793 0.0
C255 C 0.98925 0.17341 0.68023 0.0
C256 C 0.96821 0.19547 0.67248 0.0
C257 C 0.96583 0.31658 0.83849 0.0
H258 H -0.00213 0.34006 0.6133 0.0
H259 H 0.97999 0.31042 0.65463 0.0
H260 H 0.05059 0.3451 0.71059 0.0
H261 H 0.06745 0.37615 0.66969 0.0
H262 H -0.0001 0.26836 0.6801 0.0
H263 H 0.00869 0.33681 0.74514 0.0
H264 H 0.98207 0.24938 0.77217 0.0
H265 H 0.9507 0.28753 0.80379 0.0
H266 H 0.03805 0.3267 0.79131 0.0
H267 H 0.03244 0.35362 0.83777 0.0
H268 H 0.95043 0.23836 0.68194 0.0
H269 H 0.01556 0.20449 0.74446 0.0
H270 H 0.94536 0.31378 0.85123 0.0
H271 H 0.95609 0.19481 0.65162 0.0
H272 H 0.01947 0.15896 0.71557 0.0
C273 C 0.74872 0.07615 0.65646 0.0
C274 C 0.72133 0.08917 0.6479 0.0
C275 C 0.76063 0.08149 0.68466 0.0
C276 C 0.74543 0.10005 0.70492 0.0
C277 C 0.71884 0.11429 0.6958 0.0
C278 C 0.70693 0.10896 0.66752 0.0
C279 C 0.75616 0.10225 0.73612 0.0
C280 C 0.787 0.10337 0.74201 0.0
C281 C 0.79812 0.09901 0.77083 0.0
C282 C 0.77799 0.09491 0.79455 0.0
C283 C 0.74661 0.09548 0.78933 0.0
C284 C 0.73605 0.09904 0.75996 0.0
C285 C 0.72456 0.08917 0.81344 0.0
C286 C 0.73007 0.06651 0.83407 0.0
C287 C 0.69648 0.10376 0.8141 0.0
C288 C 0.67383 0.09472 0.83361 0.0
C289 C 0.67875 0.07095 0.85307 0.0
C290 C 0.83076 0.09367 0.77349 0.0
C291 C 0.84107 0.06459 0.76989 0.0
C292 C 0.85051 0.11699 0.76778 0.0
C293 C 0.87847 0.11142 0.75453 0.0
C294 C 0.88665 0.08252 0.74611 0.0
C295 C 0.86875 0.05901 0.75613 0.0
C296 C 0.70747 0.05759 0.8537 0.0
H297 H 0.76036 0.06092 0.64176 0.0
H298 H 0.78099 0.06985 0.69108 0.0
H299 H 0.70677 0.12884 0.71086 0.0
H300 H 0.68557 0.11907 0.66168 0.0
H301 H 0.80273 0.10562 0.72368 0.0
H302 H 0.71219 0.09711 0.75534 0.0
H303 H 0.78675 0.09081 0.81667 0.0
H304 H 0.75132 0.05467 0.83413 0.0
H305 H 0.69165 0.12162 0.79881 0.0
H306 H 0.65205 0.10554 0.83246 0.0
H307 H 0.82601 0.04629 0.7738 0.0
H308 H 0.8429 0.13962 0.77023 0.0
H309 H 0.7123 0.03965 0.86889 0.0
H310 H 0.87415 0.03643 0.75024 0.0
H311 H 0.89219 0.13001 0.74811 0.0
C312 C 0.34776 0.31234 0.04568 0.0
C313 C 0.3445 0.33886 0.06138 0.0
C314 C 0.32348 0.29357 0.04228 0.0
C315 C 0.29534 0.30045 0.05511 0.0
C316 C 0.29282 0.32584 0.07305 0.0
C317 C 0.31727 0.34498 0.07611 0.0
C318 C 0.26853 0.28298 0.04632 0.0
C319 C 0.27206 0.25318 0.03919 0.0
C320 C 0.25103 0.23862 0.02139 0.0
C321 C 0.22388 0.2529 0.01373 0.0
C322 C 0.21818 0.28187 0.02413 0.0
C323 C 0.24106 0.29688 0.03965 0.0
C324 C 0.18988 0.29823 0.01715 0.0
C325 C 0.17819 0.29915 0.98811 0.0
C326 C 0.17655 0.31617 0.03912 0.0
C327 C 0.1537 0.33616 0.03186 0.0
C328 C 0.14322 0.33863 0.00242 0.0
C329 C 0.26167 0.21079 0.00782 0.0
C330 C 0.28003 0.213 0.98244 0.0
C331 C 0.26494 0.18609 0.0263 0.0
C332 C 0.28883 0.16631 0.0219 0.0
C333 C 0.31003 0.17107 0.99911 0.0
C334 C 0.30416 0.19339 0.97818 0.0
C335 C 0.15507 0.31912 0.98082 0.0
H336 H 0.36868 0.30696 0.03443 0.0
H337 H 0.32649 0.27469 0.02779 0.0
H338 H 0.27167 0.33159 0.08362 0.0
H339 H 0.31428 0.36537 0.0884 0.0
H340 H 0.29285 0.24186 0.04496 0.0
H341 H 0.23813 0.32011 0.04464 0.0
H342 H 0.20761 0.24172 0.99982 0.0
H343 H 0.18799 0.28564 0.97068 0.0
H344 H 0.18484 0.31573 0.06181 0.0
H345 H 0.14553 0.35082 0.04915 0.0
H346 H 0.27834 0.23221 0.9682 0.0
H347 H 0.25138 0.18412 0.04625 0.0
H348 H 0.14717 0.31992 0.95804 0.0
H349 H 0.31987 0.19763 0.96028 0.0
H350 H 0.29215 0.14873 0.03789 0.0
C351 C 0.30494 0.69386 0.07074 0.0
C352 C 0.29831 0.66908 0.0531 0.0
C353 C 0.28534 0.71804 0.07135 0.0
C354 C 0.25875 0.71769 0.05451 0.0
C355 C 0.25151 0.69229 0.03802 0.0
C356 C 0.2711 0.66821 0.03735 0.0
C357 C 0.23902 0.74401 0.05278 0.0
C358 C 0.25092 0.77206 0.04775 0.0
C359 C 0.23192 0.79628 0.04192 0.0
C360 C 0.20037 0.79215 0.04092 0.0
C361 C 0.18837 0.76409 0.04733 0.0
C362 C 0.2079 0.74053 0.05345 0.0
C363 C 0.15612 0.75645 0.04486 0.0
C364 C 0.14242 0.74277 0.06943 0.0
C365 C 0.14423 0.75144 0.01637 0.0
C366 C 0.12214 0.72992 0.01209 0.0
C367 C 0.11179 0.71305 0.03625 0.0
C368 C 0.24641 0.82516 0.03659 0.0
C369 C 0.26254 0.83836 0.05985 0.0
C370 C 0.24995 0.83602 0.00755 0.0
C371 C 0.27052 0.85874 0.00172 0.0
C372 C 0.28791 0.871 0.02486 0.0
C373 C 0.28292 0.86101 0.05412 0.0
C374 C 0.12069 0.72097 0.06515 0.0
H375 H 0.32599 0.69517 0.08283 0.0
H376 H 0.29126 0.73722 0.08446 0.0
H377 H 0.23127 0.69147 0.02458 0.0
H378 H 0.2655 0.64932 0.02367 0.0
H379 H 0.27515 0.77492 0.04711 0.0
H380 H 0.19871 0.71879 0.05756 0.0
H381 H 0.1855 0.81042 0.03555 0.0
H382 H 0.15142 0.74603 0.09161 0.0
H383 H 0.1547 0.76127 0.99703 0.0
H384 H 0.11564 0.72433 0.98954 0.0
H385 H 0.2607 0.82991 0.08232 0.0
H386 H 0.23821 0.82575 0.98916 0.0
H387 H 0.11275 0.70864 0.08419 0.0
H388 H 0.2961 0.86939 0.07252 0.0
H389 H 0.27349 0.86602 0.97898 0.0
C390 C 0.75606 0.3681 0.98152 0.0
C391 C 0.73221 0.36394 0.00157 0.0
C392 C 0.77601 0.34501 0.97515 0.0
C393 C 0.77233 0.31729 0.98857 0.0
C394 C 0.7487 0.31326 0.00889 0.0
C395 C 0.72887 0.33636 0.01535 0.0
C396 C 0.79367 0.29288 0.98231 0.0
C397 C 0.82461 0.29805 0.98271 0.0
C398 C 0.84537 0.27483 0.97966 0.0
C399 C 0.83492 0.24575 0.97582 0.0
C400 C 0.80365 0.24052 0.97435 0.0
C401 C 0.78334 0.26413 0.97769 0.0
C402 C 0.79079 0.21071 0.97113 0.0
C403 C 0.77934 0.20165 0.94349 0.0
C404 C 0.78292 0.19494 0.99674 0.0
C405 C 0.76247 0.17166 0.99505 0.0
C406 C 0.74934 0.1636 0.96764 0.0
C407 C 0.87743 0.2824 0.98354 0.0
C408 C 0.89108 0.30075 0.96237 0.0
C409 C 0.88997 0.2805 0.01213 0.0
C410 C 0.91344 0.29926 0.02046 0.0
C411 C 0.92475 0.32014 0.00026 0.0
C412 C 0.91468 0.31938 0.9706 0.0
C413 C 0.75902 0.17818 0.94171 0.0
H414 H 0.75915 0.38915 0.9706 0.0
H415 H 0.79405 0.34869 0.95939 0.0
H416 H 0.74564 0.29227 0.01992 0.0
H417 H 0.71041 0.33234 0.03053 0.0
H418 H 0.83274 0.32019 0.98693 0.0
H419 H 0.75932 0.25996 0.97712 0.0
H420 H 0.85078 0.22756 0.97419 0.0
H421 H 0.78464 0.21393 0.92352 0.0
H422 H 0.79082 0.20209 0.01839 0.0
H423 H 0.75538 0.16145 0.01563 0.0
H424 H 0.88135 0.30302 0.94036 0.0
H425 H 0.87946 0.26695 0.02898 0.0
H426 H 0.74988 0.17236 0.92015 0.0
H427 H 0.92282 0.33522 0.95453 0.0
H428 H 0.92106 0.29907 0.04336 0.0
C429 C 0.71445 0.69095 0.0286 0.0
C430 C 0.68659 0.69632 0.01469 0.0
C431 C 0.73941 0.70831 0.02176 0.0
C432 C 0.7369 0.73114 0.00075 0.0
C433 C 0.70876 0.73678 0.98749 0.0
C434 C 0.68388 0.71993 0.99473 0.0
C435 C 0.76333 0.74876 0.99171 0.0
C436 C 0.79174 0.7358 0.98782 0.0
C437 C 0.8159 0.75224 0.97657 0.0
C438 C 0.81137 0.78194 0.96815 0.0
C439 C 0.78266 0.79484 0.97189 0.0
C440 C 0.7595 0.7785 0.98474 0.0
C441 C 0.77409 0.82471 0.96191 0.0
C442 C 0.77423 0.84739 0.98314 0.0
C443 C 0.75364 0.82654 0.93807 0.0
C444 C 0.73036 0.84749 0.93841 0.0
C445 C 0.72766 0.86745 0.96227 0.0
C446 C 0.84534 0.7371 0.97446 0.0
C447 C 0.86462 0.73759 0.99914 0.0
C448 C 0.84985 0.71566 0.9523 0.0
C449 C 0.87182 0.69367 0.9559 0.0
C450 C 0.88935 0.69244 0.982 0.0
C451 C 0.88644 0.7155 0.0029 0.0
C452 C 0.75131 0.86874 0.98319 0.0
H453 H 0.71726 0.67274 0.04394 0.0
H454 H 0.76067 0.70365 0.03265 0.0
H455 H 0.70598 0.75375 0.97077 0.0
H456 H 0.66261 0.72495 0.98401 0.0
H457 H 0.79512 0.71267 0.99303 0.0
H458 H 0.73783 0.78907 0.98847 0.0
H459 H 0.82962 0.79456 0.95866 0.0
H460 H 0.78957 0.84638 0.00187 0.0
H461 H 0.75284 0.80903 0.92164 0.0
H462 H 0.71289 0.84587 0.9217 0.0
H463 H 0.86099 0.75347 0.01686 0.0
H464 H 0.83481 0.71458 0.93334 0.0
H465 H 0.75074 0.88464 0.00119 0.0
H466 H 0.89923 0.71525 0.02341 0.0
H467 H 0.87384 0.67666 0.93905 0.0
C468 C 0.55269 0.87517 0.83146 0.0
C469 C 0.56283 0.86634 0.85966 0.0
C470 C 0.5537 0.85558 0.80755 0.0
C471 C 0.56525 0.82685 0.81127 0.0
C472 C 0.57795 0.81906 0.8389 0.0
C473 C 0.57645 0.83854 0.86299 0.0
C474 C 0.56008 0.80424 0.78785 0.0
C475 C 0.56029 0.8119 0.75766 0.0
C476 C 0.54976 0.79236 0.73584 0.0
C477 C 0.53976 0.76406 0.74425 0.0
C478 C 0.54098 0.75561 0.77448 0.0
C479 C 0.55097 0.77582 0.79588 0.0
C480 C 0.53017 0.72685 0.78566 0.0
C481 C 0.49988 0.72401 0.794 0.0
C482 C 0.55123 0.70611 0.79621 0.0
C483 C 0.54254 0.68406 0.81621 0.0
C484 C 0.51263 0.68257 0.82645 0.0
C485 C 0.54775 0.80378 0.70504 0.0
C486 C 0.52143 0.8185 0.69586 0.0
C487 C 0.57426 0.80757 0.68855 0.0
C488 C 0.57497 0.82718 0.66452 0.0
C489 C 0.54926 0.84384 0.6567 0.0
C490 C 0.52213 0.83827 0.67188 0.0
C491 C 0.49118 0.70209 0.81416 0.0
H492 H 0.54175 0.89638 0.82839 0.0
H493 H 0.54332 0.86235 0.78684 0.0
H494 H 0.58768 0.79737 0.84234 0.0
H495 H 0.58464 0.8314 0.88454 0.0
H496 H 0.56758 0.83371 0.75105 0.0
H497 H 0.54993 0.7697 0.81918 0.0
H498 H 0.53107 0.74899 0.72765 0.0
H499 H 0.48337 0.74018 0.78678 0.0
H500 H 0.57488 0.70838 0.79078 0.0
H501 H 0.55972 0.6696 0.82531 0.0
H502 H 0.50092 0.81657 0.70876 0.0
H503 H 0.59499 0.79694 0.69559 0.0
H504 H 0.46788 0.70132 0.82123 0.0
H505 H 0.50193 0.85076 0.66673 0.0
H506 H 0.59611 0.83039 0.653 0.0
C507 C 0.19079 0.58558 0.82763 0.0
C508 C 0.16806 0.56841 0.81453 0.0
C509 C 0.21931 0.58712 0.81463 0.0
C510 C 0.22562 0.57153 0.78831 0.0
C511 C 0.20255 0.55515 0.77477 0.0
C512 C 0.17408 0.55373 0.78765 0.0
C513 C 0.25632 0.57126 0.77531 0.0
C514 C 0.28189 0.56794 0.79329 0.0
C515 C 0.31081 0.56453 0.78071 0.0
C516 C 0.31369 0.56361 0.74931 0.0
C517 C 0.288 0.56768 0.73126 0.0
C518 C 0.25983 0.57204 0.7445 0.0
C519 C 0.28791 0.56503 0.69848 0.0
C520 C 0.2817 0.59045 0.68168 0.0
C521 C 0.28101 0.53738 0.68627 0.0
C522 C 0.26434 0.5354 0.6599 0.0
C523 C 0.25444 0.56109 0.64514 0.0
C524 C 0.33701 0.56083 0.80123 0.0
C525 C 0.33881 0.57835 0.82703 0.0
C526 C 0.35822 0.53799 0.79737 0.0
C527 C 0.3795 0.53174 0.81971 0.0
C528 C 0.38003 0.5482 0.84641 0.0
C529 C 0.35978 0.57204 0.84931 0.0
C530 C 0.26521 0.5885 0.65518 0.0
H531 H 0.18695 0.59685 0.84858 0.0
H532 H 0.23653 0.60016 0.8254 0.0
H533 H 0.20673 0.54255 0.75467 0.0
H534 H 0.15697 0.54049 0.77694 0.0
H535 H 0.27913 0.56669 0.81722 0.0
H536 H 0.24017 0.575 0.73042 0.0
H537 H 0.3355 0.56002 0.7391 0.0
H538 H 0.28636 0.61206 0.69085 0.0
H539 H 0.28495 0.5175 0.6991 0.0
H540 H 0.25657 0.51386 0.65301 0.0
H541 H 0.32306 0.59637 0.83057 0.0
H542 H 0.35744 0.52405 0.77779 0.0
H543 H 0.25876 0.6087 0.64397 0.0
H544 H 0.35899 0.58514 0.86947 0.0
H545 H 0.39506 0.51357 0.81631 0.0
C546 C 0.43601 0.1912 0.86166 0.0
C547 C 0.44933 0.16317 0.8591 0.0
C548 C 0.43469 0.20993 0.83701 0.0
C549 C 0.44756 0.20125 0.80966 0.0
C550 C 0.45793 0.17198 0.80658 0.0
C551 C 0.45854 0.15309 0.831 0.0
C552 C 0.45536 0.22356 0.7866 0.0
C553 C 0.46544 0.25149 0.79544 0.0
C554 C 0.47937 0.27055 0.77529 0.0
C555 C 0.4837 0.26141 0.74555 0.0
C556 C 0.47255 0.23384 0.73592 0.0
C557 C 0.45782 0.21558 0.75649 0.0
C558 C 0.47895 0.22161 0.70574 0.0
C559 C 0.45601 0.20766 0.68946 0.0
C560 C 0.50873 0.21913 0.69551 0.0
C561 C 0.51564 0.20151 0.67071 0.0
C562 C 0.49289 0.18609 0.65535 0.0
C563 C 0.49131 0.29856 0.78744 0.0
C564 C 0.47115 0.32117 0.79558 0.0
C565 C 0.52099 0.29952 0.79813 0.0
C566 C 0.52986 0.32175 0.81797 0.0
C567 C 0.50921 0.34353 0.8275 0.0
C568 C 0.48007 0.34358 0.81517 0.0
C569 C 0.46285 0.19025 0.66454 0.0
H570 H 0.42854 0.19932 0.88313 0.0
H571 H 0.42558 0.23195 0.83999 0.0
H572 H 0.46827 0.16432 0.78615 0.0
H573 H 0.46915 0.13163 0.8285 0.0
H574 H 0.46448 0.25792 0.81868 0.0
H575 H 0.45 0.19412 0.74935 0.0
H576 H 0.49573 0.27547 0.73019 0.0
H577 H 0.43281 0.20924 0.69679 0.0
H578 H 0.52694 0.22919 0.70786 0.0
H579 H 0.53908 0.19872 0.66466 0.0
H580 H 0.44791 0.32043 0.78829 0.0
H581 H 0.53671 0.28191 0.79279 0.0
H582 H 0.44461 0.17941 0.65298 0.0
H583 H 0.46351 0.35981 0.82217 0.0
H584 H 0.55257 0.32125 0.82676 0.0
C585 C 0.78659 0.55785 0.88403 0.0
C586 C 0.77773 0.53508 0.90333 0.0
C587 C 0.77365 0.56061 0.85594 0.0
C588 C 0.75156 0.54073 0.84657 0.0
C589 C 0.74142 0.519 0.86643 0.0
C590 C 0.75442 0.51619 0.89458 0.0
C591 C 0.73977 0.54202 0.81584 0.0
C592 C 0.75922 0.54534 0.79158 0.0
C593 C 0.74821 0.5458 0.76219 0.0
C594 C 0.71686 0.5426 0.75731 0.0
C595 C 0.69733 0.53922 0.78182 0.0
C596 C 0.70904 0.53916 0.81074 0.0
C597 C 0.66426 0.53671 0.77958 0.0
C598 C 0.64723 0.56283 0.78125 0.0
C599 C 0.65129 0.51037 0.78967 0.0
C600 C 0.62463 0.51109 0.80627 0.0
C601 C 0.61031 0.53817 0.81256 0.0
C602 C 0.77042 0.54819 0.73741 0.0
C603 C 0.79491 0.56763 0.73996 0.0
C604 C 0.76976 0.52858 0.71322 0.0
C605 C 0.79397 0.52714 0.69319 0.0
C606 C 0.81944 0.54525 0.69692 0.0
C607 C 0.81911 0.56612 0.72009 0.0
C608 C 0.62034 0.56354 0.79752 0.0
H609 H 0.80486 0.57248 0.88984 0.0
H610 H 0.78149 0.57784 0.84123 0.0
H611 H 0.72438 0.50335 0.85974 0.0
H612 H 0.74713 0.49849 0.90899 0.0
H613 H 0.78325 0.54654 0.79561 0.0
H614 H 0.69388 0.53719 0.82957 0.0
H615 H 0.70782 0.54285 0.73492 0.0
H616 H 0.65676 0.58347 0.77377 0.0
H617 H 0.66412 0.48997 0.78886 0.0
H618 H 0.6176 0.49101 0.81717 0.0
H619 H 0.79594 0.58329 0.75816 0.0
H620 H 0.75131 0.51329 0.71063 0.0
H621 H 0.60926 0.58462 0.80101 0.0
H622 H 0.83817 0.58043 0.72378 0.0
H623 H 0.793 0.51132 0.67515 0.0
C624 C 0.52941 0.16599 0.20195 0.0
C625 C 0.55532 0.17136 0.18491 0.0
C626 C 0.51815 0.1876 0.22117 0.0
C627 C 0.53248 0.21502 0.22348 0.0
C628 C 0.55859 0.22027 0.20684 0.0
C629 C 0.57002 0.19859 0.18787 0.0
C630 C 0.52075 0.23784 0.2439 0.0
C631 C 0.51446 0.23062 0.27338 0.0
C632 C 0.50497 0.25219 0.29371 0.0
C633 C 0.50107 0.28166 0.2841 0.0
C634 C 0.50718 0.28903 0.25411 0.0
C635 C 0.51704 0.26697 0.23438 0.0
C636 C 0.50573 0.31954 0.24235 0.0
C637 C 0.47918 0.33029 0.22913 0.0
C638 C 0.5328 0.33432 0.23697 0.0
C639 C 0.53377 0.35821 0.21737 0.0
C640 C 0.50758 0.36817 0.20256 0.0
C641 C 0.50047 0.24214 0.32469 0.0
C642 C 0.47249 0.23044 0.3328 0.0
C643 C 0.52595 0.23479 0.34176 0.0
C644 C 0.52398 0.2142 0.36487 0.0
C645 C 0.49645 0.20046 0.37139 0.0
C646 C 0.47046 0.2099 0.35599 0.0
C647 C 0.48004 0.35449 0.20962 0.0
H648 H 0.51731 0.14543 0.19983 0.0
H649 H 0.49792 0.18313 0.23381 0.0
H650 H 0.57034 0.24106 0.20875 0.0
H651 H 0.59034 0.2032 0.17544 0.0
H652 H 0.51781 0.20809 0.28087 0.0
H653 H 0.52203 0.27261 0.21145 0.0
H654 H 0.49404 0.29857 0.29973 0.0
H655 H 0.45813 0.3188 0.23236 0.0
H656 H 0.55371 0.3259 0.24617 0.0
H657 H 0.5556 0.36739 0.21235 0.0
H658 H 0.45272 0.23502 0.31941 0.0
H659 H 0.54792 0.24295 0.33544 0.0
H660 H 0.45929 0.36165 0.19917 0.0
H661 H 0.4489 0.19969 0.36015 0.0
H662 H 0.54435 0.20787 0.37656 0.0
C663 C 0.85998 0.49924 0.23247 0.0
C664 C 0.86045 0.51576 0.20608 0.0
C665 C 0.83293 0.49469 0.24751 0.0
C666 C 0.80582 0.50648 0.23641 0.0
C667 C 0.80627 0.52298 0.21002 0.0
C668 C 0.83334 0.52763 0.19502 0.0
C669 C 0.77739 0.50263 0.25306 0.0
C670 C 0.77698 0.5072 0.28378 0.0
C671 C 0.75033 0.5046 0.30012 0.0
C672 C 0.72329 0.49753 0.28543 0.0
C673 C 0.72347 0.49253 0.25437 0.0
C674 C 0.75061 0.49514 0.23849 0.0
C675 C 0.6956 0.48626 0.23736 0.0
C676 C 0.6946 0.46197 0.21791 0.0
C677 C 0.67219 0.5071 0.23651 0.0
C678 C 0.64944 0.50494 0.21505 0.0
C679 C 0.64935 0.48162 0.19416 0.0
C680 C 0.75282 0.50905 0.33255 0.0
C681 C 0.76438 0.48576 0.34967 0.0
C682 C 0.75496 0.53796 0.34353 0.0
C683 C 0.77146 0.54377 0.36943 0.0
C684 C 0.78643 0.52077 0.38455 0.0
C685 C 0.78105 0.49152 0.37542 0.0
C686 C 0.67161 0.45952 0.19675 0.0
H687 H 0.88053 0.48987 0.2415 0.0
H688 H 0.83319 0.48174 0.26776 0.0
H689 H 0.78576 0.5326 0.20116 0.0
H690 H 0.83295 0.54004 0.17445 0.0
H691 H 0.7976 0.51323 0.29519 0.0
H692 H 0.7508 0.49168 0.21459 0.0
H693 H 0.70254 0.49573 0.29796 0.0
H694 H 0.71244 0.44555 0.2182 0.0
H695 H 0.6727 0.52624 0.25097 0.0
H696 H 0.63312 0.52272 0.21372 0.0
H697 H 0.76361 0.46336 0.34126 0.0
H698 H 0.74668 0.55632 0.33039 0.0
H699 H 0.67202 0.44088 0.18166 0.0
H700 H 0.79222 0.47316 0.38624 0.0
H701 H 0.77445 0.56649 0.37621 0.0
C702 C 0.52598 0.85427 0.17079 0.0
C703 C 0.53795 0.88236 0.17609 0.0
C704 C 0.53606 0.83002 0.18698 0.0
C705 C 0.55829 0.83332 0.20894 0.0
C706 C 0.57136 0.8612 0.21328 0.0
C707 C 0.56138 0.88554 0.1968 0.0
C708 C 0.56428 0.80868 0.22975 0.0
C709 C 0.56621 0.77959 0.21933 0.0
C710 C 0.56421 0.75564 0.239 0.0
C711 C 0.56058 0.76113 0.26981 0.0
C712 C 0.56054 0.79043 0.28057 0.0
C713 C 0.56265 0.81384 0.26039 0.0
C714 C 0.55447 0.79836 0.31203 0.0
C715 C 0.52469 0.79811 0.32248 0.0
C716 C 0.5762 0.81421 0.3281 0.0
C717 C 0.56791 0.83124 0.35287 0.0
C718 C 0.53759 0.83316 0.36173 0.0
C719 C 0.56241 0.72563 0.2258 0.0
C720 C 0.53528 0.71005 0.22687 0.0
C721 C 0.58548 0.71531 0.20698 0.0
C722 C 0.58101 0.69077 0.18852 0.0
C723 C 0.55307 0.67624 0.18792 0.0
C724 C 0.53057 0.6858 0.20806 0.0
C725 C 0.51631 0.81542 0.34704 0.0
H726 H 0.50825 0.85118 0.15452 0.0
H727 H 0.52523 0.80897 0.18339 0.0
H728 H 0.58858 0.86431 0.23005 0.0
H729 H 0.57107 0.90699 0.20109 0.0
H730 H 0.56734 0.77552 0.19556 0.0
H731 H 0.56041 0.83629 0.26855 0.0
H732 H 0.55763 0.74293 0.2851 0.0
H733 H 0.50741 0.78664 0.31009 0.0
H734 H 0.59916 0.81531 0.32004 0.0
H735 H 0.58482 0.84472 0.36356 0.0
H736 H 0.51688 0.71793 0.24066 0.0
H737 H 0.60656 0.72712 0.20557 0.0
H738 H 0.49283 0.81616 0.35355 0.0
H739 H 0.50852 0.67579 0.20816 0.0
H740 H 0.59919 0.68386 0.17401 0.0
C741 C 0.27579 0.59011 0.12407 0.0
C742 C 0.24665 0.60014 0.11745 0.0
C743 C 0.289 0.5972 0.15128 0.0
C744 C 0.27327 0.61448 0.17232 0.0
C745 C 0.24541 0.62691 0.1644 0.0
C746 C 0.23225 0.6199 0.1371 0.0
C747 C 0.28409 0.6156 0.20351 0.0
C748 C 0.31488 0.61775 0.20915 0.0
C749 C 0.32694 0.61007 0.23695 0.0
C750 C 0.30729 0.60249 0.26036 0.0
C751 C 0.27587 0.60231 0.25551 0.0
C752 C 0.26459 0.60874 0.22701 0.0
C753 C 0.25448 0.59225 0.27868 0.0
C754 C 0.23622 0.56766 0.2731 0.0
C755 C 0.24997 0.60853 0.30493 0.0
C756 C 0.22698 0.60079 0.32483 0.0
C757 C 0.20843 0.57636 0.31903 0.0
C758 C 0.35962 0.60329 0.23741 0.0
C759 C 0.36837 0.57349 0.23832 0.0
C760 C 0.37963 0.62391 0.22515 0.0
C761 C 0.40485 0.6143 0.20912 0.0
C762 C 0.41072 0.584 0.20573 0.0
C763 C 0.39377 0.56388 0.22251 0.0
C764 C 0.21362 0.55968 0.29312 0.0
H765 H 0.28738 0.57498 0.10923 0.0
H766 H 0.31045 0.58707 0.15672 0.0
H767 H 0.233 0.64056 0.18003 0.0
H768 H 0.20963 0.62783 0.13264 0.0
H769 H 0.3299 0.6224 0.19072 0.0
H770 H 0.24067 0.60652 0.22275 0.0
H771 H 0.31638 0.59534 0.28156 0.0
H772 H 0.23917 0.55485 0.25291 0.0
H773 H 0.26358 0.62773 0.30955 0.0
H774 H 0.22374 0.61385 0.3448 0.0
H775 H 0.35335 0.5571 0.24747 0.0
H776 H 0.37341 0.64704 0.22422 0.0
H777 H 0.19969 0.54083 0.28794 0.0
H778 H 0.39781 0.54037 0.22049 0.0
H779 H 0.4179 0.63034 0.19689 0.0
C780 C 0.89655 0.84217 0.49739 0.0
C781 C 0.88998 0.86139 0.5211 0.0
C782 C 0.87391 0.82506 0.48468 0.0
C783 C 0.84423 0.82666 0.49551 0.0
C784 C 0.83762 0.84595 0.51914 0.0
C785 C 0.86023 0.86317 0.53175 0.0
C786 C 0.82058 0.80725 0.48308 0.0
C787 C 0.82733 0.77777 0.4768 0.0
C788 C 0.80531 0.75843 0.46617 0.0
C789 C 0.77562 0.76895 0.46174 0.0
C790 C 0.7685 0.79881 0.4679 0.0
C791 C 0.79117 0.81762 0.4785 0.0
C792 C 0.7378 0.81146 0.46378 0.0
C793 C 0.7247 0.81329 0.43539 0.0
C794 C 0.72384 0.82633 0.4876 0.0
C795 C 0.69828 0.84389 0.48293 0.0
C796 C 0.68607 0.84728 0.45423 0.0
C797 C 0.81442 0.72704 0.46278 0.0
C798 C 0.84033 0.72022 0.44604 0.0
C799 C 0.80339 0.70592 0.48269 0.0
C800 C 0.81989 0.68002 0.48823 0.0
C801 C 0.84785 0.67488 0.47414 0.0
C802 C 0.85691 0.6945 0.45169 0.0
C803 C 0.69915 0.83114 0.43062 0.0
H804 H 0.91924 0.84018 0.48874 0.0
H805 H 0.87966 0.8106 0.4663 0.0
H806 H 0.81507 0.84743 0.52822 0.0
H807 H 0.85428 0.87818 0.54961 0.0
H808 H 0.84977 0.76936 0.48145 0.0
H809 H 0.78589 0.84061 0.4829 0.0
H810 H 0.75828 0.75409 0.45401 0.0
H811 H 0.73522 0.80233 0.4166 0.0
H812 H 0.73364 0.82547 0.50968 0.0
H813 H 0.68912 0.85612 0.50161 0.0
H814 H 0.84943 0.73627 0.43069 0.0
H815 H 0.78364 0.7107 0.49606 0.0
H816 H 0.69014 0.83296 0.4083 0.0
H817 H 0.8782 0.6915 0.44032 0.0
H818 H 0.81172 0.66498 0.50505 0.0
C819 C 0.86681 0.22218 0.48722 0.0
C820 C 0.86508 0.19314 0.47646 0.0
C821 C 0.84253 0.24153 0.4839 0.0
C822 C 0.8161 0.2323 0.4695 0.0
C823 C 0.81546 0.20415 0.45637 0.0
C824 C 0.83972 0.1847 0.45986 0.0
C825 C 0.78835 0.25057 0.4716 0.0
C826 C 0.78972 0.28128 0.4694 0.0
C827 C 0.76452 0.29903 0.47591 0.0
C828 C 0.73719 0.28559 0.48411 0.0
C829 C 0.73531 0.25458 0.48572 0.0
C830 C 0.76099 0.23745 0.47927 0.0
C831 C 0.70692 0.23913 0.49348 0.0
C832 C 0.70779 0.21434 0.51228 0.0
C833 C 0.67995 0.24596 0.47867 0.0
C834 C 0.65548 0.22667 0.48018 0.0
C835 C 0.65761 0.20007 0.49633 0.0
C836 C 0.76896 0.33138 0.47729 0.0
C837 C 0.76403 0.34656 0.50412 0.0
C838 C 0.78437 0.34567 0.45415 0.0
C839 C 0.79729 0.3733 0.4588 0.0
C840 C 0.79503 0.38722 0.48668 0.0
C841 C 0.77698 0.37426 0.50879 0.0
C842 C 0.68351 0.19495 0.51357 0.0
H843 H 0.88631 0.22945 0.49965 0.0
H844 H 0.84379 0.263 0.4944 0.0
H845 H 0.79562 0.19663 0.44465 0.0
H846 H 0.83771 0.16245 0.45131 0.0
H847 H 0.81098 0.29155 0.46389 0.0
H848 H 0.75983 0.21365 0.48095 0.0
H849 H 0.71778 0.29913 0.48962 0.0
H850 H 0.72808 0.20885 0.52453 0.0
H851 H 0.6785 0.26499 0.46419 0.0
H852 H 0.63552 0.2318 0.46729 0.0
H853 H 0.75252 0.33594 0.52241 0.0
H854 H 0.78831 0.33447 0.43317 0.0
H855 H 0.68608 0.17485 0.52634 0.0
H856 H 0.77487 0.38434 0.53057 0.0
H857 H 0.81051 0.38299 0.44112 0.0
C858 C 0.1613 0.86572 0.51019 0.0
C859 C 0.1342 0.86473 0.52633 0.0
C860 C 0.18625 0.84919 0.51928 0.0
C861 C 0.18458 0.8313 0.54468 0.0
C862 C 0.15782 0.83109 0.56141 0.0
C863 C 0.13287 0.84769 0.55235 0.0
C864 C 0.2096 0.81083 0.55202 0.0
C865 C 0.23964 0.81983 0.55061 0.0
C866 C 0.26332 0.79959 0.55509 0.0
C867 C 0.25661 0.76976 0.56109 0.0
C868 C 0.22633 0.76053 0.56256 0.0
C869 C 0.20325 0.78135 0.55814 0.0
C870 C 0.21738 0.72906 0.56487 0.0
C871 C 0.22869 0.70824 0.54455 0.0
C872 C 0.19217 0.72158 0.58217 0.0
C873 C 0.17595 0.69597 0.57616 0.0
C874 C 0.18501 0.67679 0.55314 0.0
C875 C 0.29472 0.81047 0.55296 0.0
C876 C 0.30343 0.82718 0.52812 0.0
C877 C 0.3146 0.80796 0.57713 0.0
C878 C 0.34185 0.82347 0.57721 0.0
C879 C 0.34983 0.8415 0.55297 0.0
C880 C 0.33068 0.8424 0.52807 0.0
C881 C 0.2128 0.6822 0.53895 0.0
H882 H 0.16316 0.87913 0.49035 0.0
H883 H 0.20647 0.84958 0.50581 0.0
H884 H 0.15602 0.81762 0.58122 0.0
H885 H 0.11231 0.84653 0.56524 0.0
H886 H 0.24462 0.84277 0.54605 0.0
H887 H 0.18 0.77419 0.5576 0.0
H888 H 0.2747 0.75386 0.56392 0.0
H889 H 0.24818 0.71324 0.53101 0.0
H890 H 0.1832 0.73706 0.59835 0.0
H891 H 0.15494 0.69279 0.58787 0.0
H892 H 0.28849 0.82947 0.50918 0.0
H893 H 0.30832 0.79538 0.59661 0.0
H894 H 0.2213 0.66735 0.52198 0.0
H895 H 0.33592 0.8562 0.50913 0.0
H896 H 0.35627 0.82202 0.5966 0.0
C897 C 0.18974 0.16568 0.55865 0.0
C898 C 0.16263 0.17412 0.54485 0.0
C899 C 0.2135 0.18561 0.56087 0.0
C900 C 0.21076 0.21419 0.54896 0.0
C901 C 0.1827 0.22331 0.53763 0.0
C902 C 0.15883 0.2036 0.53592 0.0
C903 C 0.2377 0.2331 0.54499 0.0
C904 C 0.26519 0.2204 0.5363 0.0
C905 C 0.28999 0.23792 0.52912 0.0
C906 C 0.28723 0.26885 0.53015 0.0
C907 C 0.25964 0.28205 0.53859 0.0
C908 C 0.23537 0.26392 0.5466 0.0
C909 C 0.25416 0.31436 0.53606 0.0
C910 C 0.23716 0.32926 0.5579 0.0
C911 C 0.26123 0.32923 0.50959 0.0
C912 C 0.24946 0.35744 0.50408 0.0
C913 C 0.23038 0.37132 0.52493 0.0
C914 C 0.31839 0.22277 0.5209 0.0
C915 C 0.3422 0.22171 0.5413 0.0
C916 C 0.31923 0.20421 0.49584 0.0
C917 C 0.34262 0.18367 0.49215 0.0
C918 C 0.36541 0.18089 0.51377 0.0
C919 C 0.36538 0.20092 0.53788 0.0
C920 C 0.22534 0.35737 0.55237 0.0
H921 H 0.19341 0.14317 0.56587 0.0
H922 H 0.23454 0.1781 0.57054 0.0
H923 H 0.17959 0.24505 0.52816 0.0
H924 H 0.13793 0.21099 0.52588 0.0
H925 H 0.2673 0.19664 0.53431 0.0
H926 H 0.21406 0.27393 0.5528 0.0
H927 H 0.30618 0.28246 0.52395 0.0
H928 H 0.23167 0.3185 0.5787 0.0
H929 H 0.274 0.31825 0.49222 0.0
H930 H 0.25371 0.3675 0.48265 0.0
H931 H 0.34167 0.23539 0.5611 0.0
H932 H 0.30087 0.20451 0.47995 0.0
H933 H 0.2113 0.36773 0.56916 0.0
H934 H 0.38211 0.19936 0.55534 0.0
H935 H 0.34211 0.16918 0.47299 0.0
Zn936 Zn 0.95301 1.00394 0.42396 0.0
Zn937 Zn 0.94924 0.06504 0.46036 0.0
O938 O 0.97226 0.02669 0.45782 0.0
H939 H 0.98399 0.01812 0.47376 0.0
C940 C 0.96856 0.95006 0.56751 0.0
O941 O 0.98497 0.96559 0.54903 0.0
Zn942 Zn 0.07046 0.05078 0.56128 0.0
Zn943 Zn 0.0554 0.98442 0.58573 0.0
O944 O 0.03843 0.01957 0.56313 0.0
H945 H 0.02132 0.01873 0.54988 0.0
Zn946 Zn 0.97217 1.00517 0.59638 0.0
O947 O 0.95883 0.02788 0.55917 0.0
Zn948 Zn 0.96545 0.06789 0.57473 0.0
H949 H 0.94366 0.0219 0.54502 0.0
Zn950 Zn 0.02981 0.99035 0.44382 0.0
O951 O 0.04671 0.01854 0.47466 0.0
H952 H 0.05775 0.01253 0.49218 0.0
Zn953 Zn 0.05318 0.05438 0.45077 0.0
C954 C 0.04137 0.94204 0.48298 0.0
O955 O 0.02875 0.96095 0.50137 0.0
O956 O 0.91484 0.02384 0.40775 0.0
O957 O 0.90848 0.06203 0.4385 0.0
O958 O 0.09834 0.99153 0.60056 0.0
O959 O 0.10892 0.03621 0.58288 0.0
O960 O 0.96131 0.02594 0.63617 0.0
O961 O 0.95045 0.07003 0.61748 0.0
C962 C -0.00065 0.09315 0.43219 0.0
O963 O 0.0417 1.00206 0.40092 0.0
O964 O 0.06676 0.04368 0.40901 0.0
O965 O 0.0286 0.95949 0.61431 0.0
C966 C 0.89968 0.04613 0.41662 0.0
O967 O 0.97677 0.97441 0.39668 0.0
C968 C 0.02814 0.09012 0.58899 0.0
O969 O 0.96132 0.96141 0.59235 0.0
C970 C 0.11619 0.01321 0.59783 0.0
O971 O 0.04204 0.94813 0.45541 0.0
C972 C 0.93934 0.09802 0.52067 0.0
O973 O 0.97121 0.09567 0.43611 0.0
O974 O 0.01285 0.07325 0.44704 0.0
C975 C 0.9517 0.0523 0.63949 0.0
O976 O 0.05617 0.08584 0.58538 0.0
O977 O 0.01014 0.07414 0.57412 0.0
C978 C 0.08593 0.08141 0.50103 0.0
O979 O 0.94404 0.09778 0.54869 0.0
O980 O 0.9484 0.07623 0.5049 0.0
C981 C 0.05807 0.02312 0.39157 0.0
O982 O 0.08111 0.0815 0.47302 0.0
O983 O 0.07432 0.06115 0.51692 0.0
C984 C 0.03163 0.96326 0.64224 0.0
O985 O 0.05016 0.98368 0.65177 0.0
C986 C 0.97284 0.97541 0.36863 0.0
O987 O 0.95473 0.99565 0.3576 0.0
Zn988 Zn 0.45109 0.05684 0.0436 0.0
Zn989 Zn 0.46666 0.06401 0.9738 0.0
O990 O 0.474 0.03849 0.0094 0.0
H991 H 0.4898 0.02384 0.01117 0.0
C992 C 0.58768 0.08755 0.0936 0.0
O993 O 0.58407 0.05904 0.09715 0.0
Zn994 Zn 0.56599 0.9733 0.96461 0.0
Zn995 Zn 0.60427 0.9904 0.02347 0.0
O996 O 0.56769 1.00148 0.99911 0.0
H997 H 0.55119 0.01385 0.00572 0.0
Zn998 Zn 0.59909 0.07401 0.02959 0.0
O999 O 0.56121 0.07708 0.00507 0.0
Zn1000 Zn 0.57555 0.07919 0.96349 0.0
H1001 H 0.54092 0.07341 0.01183 0.0
Zn1002 Zn 0.44497 0.97278 0.04796 0.0
O1003 O 0.47762 0.96191 0.01845 0.0
H1004 H 0.49775 0.95486 0.02269 0.0
Zn1005 Zn 0.45505 0.95758 0.98096 0.0
C1006 C 0.48591 0.96761 0.09771 0.0
O1007 O 0.50323 0.98226 0.0793 0.0
O1008 O 0.42535 0.0921 0.03047 0.0
O1009 O 0.43774 0.09847 0.98299 0.0
O1010 O 0.62522 0.95347 0.00794 0.0
O1011 O 0.59771 0.93982 0.96881 0.0
O1012 O 0.63732 0.08507 0.00629 0.0
O1013 O 0.61868 0.09642 0.96177 0.0
C1014 C 0.43635 0.01381 0.94726 0.0
O1015 O 0.40389 0.95522 0.03569 0.0
O1016 O 0.41304 0.9396 0.98956 0.0
O1017 O 0.63253 0.02228 0.04114 0.0
C1018 C 0.42221 0.10564 0.00588 0.0
O1019 O 0.42706 0.02951 0.0714 0.0
C1020 C 0.58547 0.02231 0.92824 0.0
O1021 O 0.59432 0.09761 0.06813 0.0
C1022 C 0.62023 0.9361 0.98628 0.0
O1023 O 0.45871 0.96287 0.09046 0.0
C1024 C 0.51658 0.09729 0.94339 0.0
O1025 O 0.44213 0.04103 0.94423 0.0
O1026 O 0.45267 0.9988 0.96492 0.0
C1027 C 0.64072 0.09531 0.98014 0.0
O1028 O 0.58113 0.99466 0.92802 0.0
O1029 O 0.5742 0.03719 0.94949 0.0
C1030 C 0.5096 0.93837 0.94985 0.0
O1031 O 0.54453 0.103 0.94064 0.0
O1032 O 0.50846 0.07642 0.96034 0.0
C1033 C 0.39553 0.94178 0.01216 0.0
O1034 O 0.48167 0.93294 0.95372 0.0
O1035 O 0.52168 0.9601 0.96313 0.0
C1036 C 0.66084 0.02046 0.03691 0.0
O1037 O 0.67163 0.99879 0.02055 0.0
C1038 C 0.4008 0.02288 0.06246 0.0
O1039 O 0.39206 0.03176 0.03598 0.0
Zn1040 Zn 0.93805 0.47702 0.96684 0.0
Zn1041 Zn 0.94067 0.54856 0.97212 0.0
O1042 O 0.96586 0.51262 0.96262 0.0
H1043 H 0.9876 0.5115 0.96231 0.0
C1044 C 0.98315 0.42828 0.03639 0.0
O1045 O 0.00687 0.43838 0.02242 0.0
Zn1046 Zn 0.08382 0.56161 0.05211 0.0
Zn1047 Zn 0.10443 0.4944 0.07118 0.0
O1048 O 0.06801 0.52085 0.06114 0.0
H1049 H 0.04793 0.51393 0.05685 0.0
Zn1050 Zn 0.98426 0.48578 0.07151 0.0
O1051 O 0.9847 0.52108 0.04325 0.0
Zn1052 Zn 0.98339 0.55676 0.07031 0.0
H1053 H 0.99307 0.52059 0.02341 0.0
Zn1054 Zn 0.05497 0.49703 0.94144 0.0
O1055 O 0.04937 0.52775 0.97443 0.0
H1056 H 0.04376 0.52363 0.99477 0.0
Zn1057 Zn 0.04036 0.56475 0.95125 0.0
C1058 C 0.07322 0.44381 0.97654 0.0
O1059 O 0.06103 0.45839 0.99881 0.0
O1060 O 0.89322 0.48932 0.96907 0.0
O1061 O 0.89681 0.5382 0.97058 0.0
O1062 O 0.14494 0.51731 0.06932 0.0
O1063 O 0.12885 0.56143 0.05427 0.0
O1064 O 0.96505 0.49767 0.11148 0.0
O1065 O 0.96253 0.54668 0.10899 0.0
C1066 C 0.97643 0.58616 0.93774 0.0
O1067 O 0.07099 0.51615 0.90318 0.0
O1068 O 0.06174 0.56368 0.91161 0.0
O1069 O 0.10079 0.45784 0.10044 0.0
C1070 C 0.88102 0.51484 0.96985 0.0
O1071 O 0.94631 0.43943 0.94093 0.0
C1072 C 0.04061 0.59025 0.08679 0.0
O1073 O 0.97071 0.44405 0.05643 0.0
C1074 C 0.15011 0.54391 0.06158 0.0
O1075 O 0.07336 0.45546 0.95083 0.0
C1076 C 0.95085 0.58823 0.02522 0.0
O1077 O 0.94892 0.58168 0.94359 0.0
O1078 O -0.00439 0.56772 0.94764 0.0
C1079 C 0.95714 0.52249 0.12242 0.0
O1080 O 0.06859 0.59122 0.08172 0.0
O1081 O 0.02604 0.56877 0.07591 0.0
C1082 C 0.06551 0.60033 0.99889 0.0
O1083 O 0.96228 0.59106 0.05093 0.0
O1084 O 0.95184 0.56291 0.01295 0.0
C1085 C 0.07255 0.54309 0.89537 0.0
O1086 O 0.05398 0.60077 0.97304 0.0
O1087 O 0.06931 0.57536 0.01155 0.0
C1088 C 0.08047 0.43818 0.0986 0.0
O1089 O 0.05998 0.44049 0.07761 0.0
C1090 C 0.97177 0.42672 0.9381 0.0
O1091 O -0.00481 0.43751 0.95218 0.0
Zn1092 Zn 0.46388 0.47087 0.00158 0.0
Zn1093 Zn 0.47822 0.47271 0.07282 0.0
O1094 O 0.48189 0.49621 0.03455 0.0
H1095 H 0.49279 0.51434 0.03167 0.0
C1096 C 0.538 0.42438 0.92427 0.0
O1097 O 0.53517 0.45298 0.92045 0.0
Zn1098 Zn 0.56012 0.56424 0.06047 0.0
Zn1099 Zn 0.55075 0.57016 0.99019 0.0
O1100 O 0.55053 0.53982 0.02373 0.0
H1101 H 0.54576 0.51913 0.022 0.0
Zn1102 Zn 0.56578 0.44225 0.98301 0.0
O1103 O 0.54335 0.44898 0.02231 0.0
Zn1104 Zn 0.57437 0.4552 0.05507 0.0
H1105 H 0.52175 0.44785 0.02452 0.0
Zn1106 Zn 0.4575 0.59402 0.98839 0.0
O1107 O 0.48651 0.58237 0.02197 0.0
H1108 H 0.50813 0.58396 0.02021 0.0
Zn1109 Zn 0.46294 0.57944 0.06056 0.0
C1110 C 0.48549 0.60854 0.92873 0.0
O1111 O 0.49336 0.58059 0.92889 0.0
O1112 O 0.43901 0.4374 0.01956 0.0
O1113 O 0.44681 0.44093 0.06845 0.0
O1114 O 0.57668 0.60522 0.00273 0.0
O1115 O 0.58892 0.59655 0.04996 0.0
O1116 O 0.6108 0.43592 0.99157 0.0
O1117 O 0.6154 0.44081 0.04083 0.0
C1118 C 0.46226 0.52693 0.10312 0.0
O1119 O 0.41477 0.60215 0.00475 0.0
O1120 O 0.42026 0.59283 0.05316 0.0
O1121 O 0.55958 0.55997 0.94548 0.0
C1122 C 0.43397 0.42895 0.04613 0.0
O1123 O 0.44855 0.48729 0.9603 0.0
C1124 C 0.58159 0.5114 0.0906 0.0
O1125 O 0.54884 0.41481 0.94872 0.0
C1126 C 0.59147 0.61156 0.02615 0.0
O1127 O 0.47126 0.61906 0.95104 0.0
C1128 C 0.53431 0.43818 0.0991 0.0
O1129 O 0.46688 0.49947 0.10667 0.0
O1130 O 0.46458 0.53765 0.07693 0.0
C1131 C 0.62661 0.43496 0.01525 0.0
O1132 O 0.5774 0.53906 0.09282 0.0
O1133 O 0.57526 0.4985 0.06616 0.0
C1134 C 0.50983 0.60054 0.09428 0.0
O1135 O 0.56169 0.43379 0.09222 0.0
O1136 O 0.51856 0.45395 0.08148 0.0
C1137 C 0.40413 0.60085 0.0311 0.0
O1138 O 0.48171 0.60477 0.09206 0.0
O1139 O 0.52206 0.58339 0.07528 0.0
C1140 C 0.55015 0.54105 0.92678 0.0
O1141 O 0.53033 0.52131 0.93506 0.0
C1142 C 0.44547 0.51438 0.95349 0.0
O1143 O 0.45326 0.53456 0.97299 0.0
Zn1144 Zn 0.94676 0.49721 0.48183 0.0
Zn1145 Zn 0.9562 0.56135 0.46484 0.0
O1146 O 0.97969 0.52435 0.46646 0.0
H1147 H 0.001 0.52245 0.4704 0.0
C1148 C 0.8762 0.47627 0.53025 0.0
O1149 O 0.86631 0.49717 0.54811 0.0
Zn1150 Zn 0.08157 0.56338 0.56016 0.0
Zn1151 Zn 0.10376 0.5004 0.54666 0.0
O1152 O 0.06562 0.52305 0.55857 0.0
H1153 H 0.04498 0.51785 0.55437 0.0
Zn1154 Zn 0.93231 0.49567 0.55671 0.0
O1155 O 0.96327 0.52458 0.54168 0.0
Zn1156 Zn 0.96341 0.55903 0.57002 0.0
H1157 H 0.97959 0.51961 0.52833 0.0
Zn1158 Zn 0.10887 0.50386 0.46072 0.0
O1159 O 0.07445 0.528 0.47795 0.0
H1160 H 0.0601 0.5216 0.49272 0.0
Zn1161 Zn 0.07149 0.56472 0.45294 0.0
C1162 C 0.16175 0.4722 0.48319 0.0
O1163 O 0.17497 0.49281 0.46749 0.0
O1164 O 0.90421 0.50969 0.46744 0.0
O1165 O 0.91415 0.55352 0.4478 0.0
O1166 O 0.14299 0.51986 0.56189 0.0
O1167 O 0.12445 0.56278 0.57757 0.0
O1168 O 0.91354 0.50835 0.59619 0.0
O1169 O 0.93763 0.54978 0.60774 0.0
C1170 C 0.00851 0.59335 0.43792 0.0
O1171 O 0.1272 0.52164 0.42293 0.0
O1172 O 0.09706 0.56024 0.41431 0.0
O1173 O 0.09938 0.45674 0.55766 0.0
C1174 C 0.89593 0.53232 0.45268 0.0
O1175 O 0.95769 0.45399 0.47294 0.0
C1176 C 0.02431 0.58941 0.5872 0.0
O1177 O 0.90444 0.4716 0.52849 0.0
C1178 C 0.14643 0.54456 0.57502 0.0
O1179 O 0.13313 0.47219 0.4848 0.0
C1180 C 0.93694 0.59307 0.52243 0.0
O1181 O 0.98006 0.59133 0.44154 0.0
O1182 O 0.02583 0.57351 0.44885 0.0
C1183 C 0.91802 0.52999 0.61367 0.0
O1184 O 0.05292 0.58944 0.58389 0.0
O1185 O 0.0087 0.56899 0.57524 0.0
C1186 C 0.09665 0.59656 0.50299 0.0
O1187 O 0.94028 0.5925 0.5505 0.0
O1188 O 0.95208 0.57455 0.5072 0.0
C1189 C 0.11934 0.5436 0.407 0.0
O1190 O 0.09295 0.59722 0.47498 0.0
O1191 O 0.08259 0.57705 0.51767 0.0
C1192 C 0.07404 0.44511 0.55228 0.0
O1193 O 0.05426 0.45995 0.53641 0.0
C1194 C 0.98488 0.44584 0.47636 0.0
O1195 O 0.00386 0.464 0.48915 0.0
Zn1196 Zn 0.46231 0.97996 0.46032 0.0
Zn1197 Zn 0.45022 0.05013 0.47369 0.0
O1198 O 0.48313 0.01973 0.46663 0.0
H1199 H 0.5035 0.02153 0.47391 0.0
C1200 C 0.44642 0.92715 0.55586 0.0
O1201 O 0.46466 0.93048 0.53311 0.0
Zn1202 Zn 0.57799 0.06892 0.53384 0.0
Zn1203 Zn 0.59 1.00038 0.55443 0.0
O1204 O 0.55771 0.02951 0.54004 0.0
H1205 H 0.53892 0.0239 0.53085 0.0
Zn1206 Zn 0.47865 0.97976 0.58265 0.0
O1207 O 0.47873 0.01323 0.55209 0.0
Zn1208 Zn 0.48078 0.05163 0.57477 0.0
H1209 H 0.48257 0.01061 0.53108 0.0
Zn1210 Zn 0.56973 0.99611 0.41376 0.0
O1211 O 0.56074 0.02454 0.44848 0.0
H1212 H 0.56293 0.02027 0.46944 0.0
Zn1213 Zn 0.5471 0.0632 0.43059 0.0
C1214 C 0.59673 0.9407 0.43984 0.0
O1215 O 0.57551 0.94441 0.45989 0.0
O1216 O 0.4175 0.98654 0.45045 0.0
O1217 O 0.41028 0.03463 0.45818 0.0
O1218 O 0.6293 0.02187 0.56565 0.0
O1219 O 0.62098 0.06727 0.54862 0.0
O1220 O 0.48143 0.99545 0.62573 0.0
O1221 O 0.47827 0.04391 0.61879 0.0
C1222 C 0.48437 0.09283 0.44052 0.0
O1223 O 0.56862 0.0172 0.37268 0.0
O1224 O 0.5515 0.0615 0.38606 0.0
O1225 O 0.58008 0.96221 0.57943 0.0
C1226 C 0.40066 0.00941 0.44992 0.0
O1227 O 0.48229 0.94607 0.43465 0.0
C1228 C 0.53241 0.09678 0.57023 0.0
O1229 O 0.44832 0.94475 0.57787 0.0
C1230 C 0.63787 0.04834 0.56148 0.0
O1231 O 0.59898 0.95941 0.41886 0.0
C1232 C 0.44073 0.07964 0.53417 0.0
O1233 O 0.4589 0.08825 0.4524 0.0
O1234 O 0.50402 0.07224 0.44226 0.0
C1235 C 0.4798 0.02165 0.63598 0.0
O1236 O 0.55793 0.10078 0.5583 0.0
O1237 O 0.51968 0.07209 0.56545 0.0
C1238 C 0.58152 0.09931 0.47174 0.0
O1239 O 0.4485 0.07974 0.56135 0.0
O1240 O 0.45 0.05863 0.51767 0.0
C1241 C 0.56032 0.0434 0.36611 0.0
O1242 O 0.57302 0.09631 0.44494 0.0
O1243 O 0.57431 0.07924 0.4902 0.0
C1244 C 0.55741 0.94522 0.57755 0.0
O1245 O 0.53613 0.95117 0.55809 0.0
C1246 C 0.50085 0.92637 0.44342 0.0
O1247 O 0.51042 0.92686 0.47108 0.0
C1248 C 0.12798 0.15301 0.50695 0.0
C1249 C 0.14045 0.15155 0.53564 0.0
H1250 H 0.10108 0.13235 0.47389 0.0
C1251 C 0.13367 0.12721 0.55377 0.0
H1252 H 0.13319 0.17102 0.49206 0.0
C1253 C 0.11536 0.10451 0.54302 0.0
C1254 C 0.10367 0.10573 0.514 0.0
H1255 H 0.14288 0.12549 0.57602 0.0
H1256 H 0.11114 0.08578 0.5571 0.0
C1257 C 0.10982 0.1305 0.49634 0.0
C1258 C 0.8964 0.17 0.51614 0.0
C1259 C 0.88733 0.17071 0.48622 0.0
H1260 H 0.91982 0.14679 0.55022 0.0
C1261 C 0.89739 0.14836 0.46689 0.0
H1262 H 0.8887 0.18662 0.53179 0.0
C1263 C 0.91523 0.12518 0.47763 0.0
C1264 C 0.9231 0.1237 0.50785 0.0
H1265 H 0.89101 0.14852 0.44362 0.0
H1266 H 0.92217 0.10829 0.46236 0.0
C1267 C 0.91406 0.14686 0.52679 0.0
C1268 C 0.91437 0.88653 0.56458 0.0
C1269 C 0.91363 0.88058 0.53386 0.0
H1270 H 0.93288 0.91289 0.59953 0.0
C1271 C 0.93439 0.89468 0.51514 0.0
H1272 H 0.89921 0.87544 0.57969 0.0
C1273 C 0.95399 0.91579 0.52657 0.0
C1274 C 0.953 0.92341 0.55688 0.0
H1275 H 0.93439 0.89068 0.49137 0.0
H1276 H 0.9686 0.92734 0.51128 0.0
C1277 C 0.93384 0.90778 0.57598 0.0
C1278 C 0.10026 0.88194 0.48539 0.0
C1279 C 0.1075 0.88144 0.51583 0.0
H1280 H 0.07307 0.901 0.45114 0.0
C1281 C 0.08988 0.898 0.53583 0.0
H1282 H 0.11297 0.8688 0.46956 0.0
C1283 C 0.06677 0.91626 0.52533 0.0
C1284 C 0.06095 0.9183 0.49463 0.0
H1285 H 0.09491 0.89801 0.55942 0.0
H1286 H 0.05459 0.92992 0.54113 0.0
C1287 C 0.07721 0.90016 0.47489 0.0
C1288 C 0.56514 0.11906 0.16855 0.0
C1289 C 0.56583 0.14951 0.16263 0.0
H1290 H 0.57171 0.07535 0.15133 0.0
C1291 C 0.57535 0.15916 0.13452 0.0
H1292 H 0.5583 0.11099 0.19017 0.0
C1293 C 0.58334 0.13893 0.11259 0.0
C1294 C 0.58173 0.10848 0.11808 0.0
H1295 H 0.57569 0.18241 0.12904 0.0
H1296 H 0.58998 0.14728 0.09101 0.0
C1297 C 0.57299 0.09868 0.14641 0.0
C1298 C 0.89584 0.54608 0.17553 0.0
C1299 C 0.88869 0.51907 0.18897 0.0
H1300 H 0.9238 0.56864 0.14437 0.0
C1301 C 0.90738 0.49448 0.18389 0.0
H1302 H 0.88212 0.56553 0.17955 0.0
C1303 C 0.9313 0.49624 0.16389 0.0
C1304 C 0.93701 0.52264 0.14861 0.0
H1305 H 0.90242 0.47336 0.19392 0.0
H1306 H 0.94422 0.47642 0.15918 0.0
C1307 C 0.91989 0.5479 0.15561 0.0
C1308 C 0.54359 0.92761 0.14468 0.0
C1309 C 0.52507 0.90808 0.16034 0.0
H1310 H 0.54559 0.96234 0.11253 0.0
C1311 C 0.49368 0.91168 0.15892 0.0
H1312 H 0.56787 0.92533 0.14559 0.0
C1313 C 0.48092 0.93283 0.14026 0.0
C1314 C 0.49933 0.95068 0.12249 0.0
H1315 H 0.47895 0.89727 0.17136 0.0
H1316 H 0.45661 0.93402 0.13855 0.0
C1317 C 0.5308 0.94877 0.12581 0.0
C1318 C 0.2269 0.55431 0.09448 0.0
C1319 C 0.22865 0.58527 0.09429 0.0
H1320 H 0.20048 0.51655 0.08374 0.0
C1321 C 0.2084 0.60146 0.07672 0.0
H1322 H 0.24226 0.54124 0.10786 0.0
C1323 C 0.18443 0.58727 0.0628 0.0
C1324 C 0.18019 0.55674 0.06666 0.0
H1325 H 0.20962 0.62531 0.07584 0.0
H1326 H 0.16778 0.60071 0.05144 0.0
C1327 C 0.2028 0.54012 0.08078 0.0
C1328 C 0.55884 0.91492 0.88585 0.0
C1329 C 0.55461 0.88426 0.88591 0.0
H1330 H 0.54724 0.95617 0.90617 0.0
C1331 C 0.538 0.87132 0.90902 0.0
H1332 H 0.57132 0.92538 0.86809 0.0
C1333 C 0.52422 0.88895 0.93062 0.0
C1334 C 0.52738 0.91965 0.92975 0.0
H1335 H 0.53399 0.84778 0.90928 0.0
H1336 H 0.5103 0.87869 0.94743 0.0
C1337 C 0.54537 0.93248 0.90772 0.0
C1338 C 0.12497 0.58616 0.84614 0.0
C1339 C 0.13944 0.56323 0.83055 0.0
H1340 H 0.09163 0.5979 0.87847 0.0
C1341 C 0.12813 0.53445 0.8328 0.0
H1342 H 0.13286 0.60863 0.84437 0.0
C1343 C 0.10448 0.5283 0.85213 0.0
C1344 C 0.0917 0.55078 0.86969 0.0
H1345 H 0.13884 0.51625 0.82117 0.0
H1346 H 0.09753 0.50558 0.85464 0.0
C1347 C 0.10119 0.58001 0.86547 0.0
C1348 C 0.45595 0.11662 0.8883 0.0
C1349 C 0.45994 0.14721 0.88574 0.0
H1350 H 0.47104 0.07668 0.90914 0.0
C1351 C 0.4796 0.16162 0.9054 0.0
H1352 H 0.44118 0.10504 0.87313 0.0
C1353 C 0.49695 0.1454 0.92549 0.0
C1354 C 0.49434 0.11466 0.92672 0.0
H1355 H 0.48344 0.18511 0.90354 0.0
H1356 H 0.51345 0.1567 0.93905 0.0
C1357 C 0.47289 0.10046 0.90891 0.0
C1358 C 0.80709 0.49931 0.93391 0.0
C1359 C 0.79651 0.52828 0.92966 0.0
H1360 H 0.84238 0.47204 0.95102 0.0
C1361 C 0.80926 0.55123 0.94637 0.0
H1362 H 0.79762 0.48107 0.92152 0.0
C1363 C 0.83519 0.54609 0.96311 0.0
C1364 C 0.8486 0.51791 0.96334 0.0
H1365 H 0.80095 0.57364 0.94418 0.0
H1366 H 0.84632 0.56475 0.97329 0.0
C1367 C 0.83293 0.49413 0.95078 0.0
C1368 C 0.6542 0.66393 0.04666 0.0
C1369 C 0.66102 0.67603 0.0187 0.0
H1370 H 0.62637 0.63414 0.07116 0.0
C1371 C 0.64376 0.6679 0.99386 0.0
H1372 H 0.66697 0.67004 0.06623 0.0
C1373 C 0.62045 0.6479 0.99671 0.0
C1374 C 0.61405 0.63512 0.0244 0.0
H1375 H 0.6488 0.6763 0.97188 0.0
H1376 H 0.60811 0.64178 0.97685 0.0
C1377 C 0.63087 0.64357 0.04949 0.0
C1378 C 0.33844 0.635 0.07186 0.0
C1379 C 0.32154 0.64626 0.04804 0.0
H1380 H 0.37772 0.61105 0.08519 0.0
C1381 C 0.32942 0.63849 0.01877 0.0
H1382 H 0.33249 0.64039 0.09462 0.0
C1383 C 0.35529 0.62183 0.01326 0.0
C1384 C 0.37366 0.6126 0.03696 0.0
H1385 H 0.31677 0.64699 -2e-05 0.0
H1386 H 0.36175 0.61765 0.99038 0.0
C1387 C 0.36424 0.61814 0.06638 0.0
C1388 C 0.37943 0.36781 0.03009 0.0
C1389 C 0.36803 0.36149 0.05849 0.0
H1390 H 0.40917 0.39373 0.00402 0.0
C1391 C 0.37876 0.37718 0.08322 0.0
H1392 H 0.37114 0.35639 0.01056 0.0
C1393 C 0.4008 0.3988 0.07948 0.0
C1394 C 0.41197 0.40521 0.0509 0.0
H1395 H 0.37025 0.37263 0.10532 0.0
H1396 H 0.4087 0.41074 0.09883 0.0
C1397 C 0.40111 0.38937 0.02633 0.0
C1398 C 0.69667 0.40186 0.9816 0.0
C1399 C 0.70917 0.38721 0.00622 0.0
H1400 H 0.66087 0.42899 0.96528 0.0
C1401 C 0.69712 0.39252 0.03468 0.0
H1402 H 0.70543 0.39816 0.9594 0.0
C1403 C 0.67151 0.41026 0.0381 0.0
C1404 C 0.6574 0.42269 0.01305 0.0
H1405 H 0.70669 0.38188 0.0541 0.0
H1406 H 0.66167 0.41254 0.06006 0.0
C1407 C 0.67102 0.4194 0.98498 0.0
C1408 C 0.96833 0.63619 0.63107 0.0
C1409 C 0.98695 0.65912 0.64103 0.0
H1410 H 0.96532 0.59641 0.60584 0.0
C1411 C 0.01715 0.65958 0.63184 0.0
H1412 H 0.94489 0.63537 0.63768 0.0
C1413 C 0.02873 0.63731 0.61382 0.0
C1414 C 0.01048 0.61382 0.60448 0.0
H1415 H 0.03231 0.6766 0.63952 0.0
H1416 H 0.05231 0.63829 0.60776 0.0
C1417 C 0.98 0.61384 0.6128 0.0
C1418 C 0.45147 1.00536 0.71237 0.0
C1419 C 0.4413 0.03356 0.72108 0.0
H1420 H 0.4725 0.97945 0.67853 0.0
C1421 C 0.45175 0.0583 0.7055 0.0
H1422 H 0.44411 0.9857 0.72383 0.0
C1423 C 0.46778 0.0546 0.67903 0.0
C1424 C 0.47366 0.0261 0.66795 0.0
H1425 H 0.44515 0.08037 0.71223 0.0
H1426 H 0.47297 0.07397 0.66597 0.0
C1427 C 0.46764 1.00168 0.68608 0.0
C1428 C 0.02396 0.393 0.59422 0.0
C1429 C 0.0448 0.37887 0.61307 0.0
H1430 H 0.01697 0.42456 0.5596 0.0
C1431 C 0.07571 0.38375 0.60869 0.0
H1432 H -2e-05 0.38984 0.59703 0.0
C1433 C 0.08545 0.40389 0.58737 0.0
C1434 C 0.06446 0.41942 0.5699 0.0
H1435 H 0.09237 0.37258 0.62228 0.0
H1436 H 0.10934 0.40818 0.58544 0.0
C1437 C 0.03371 0.41295 0.57273 0.0
C1438 C 0.6898 0.09937 0.6027 0.0
C1439 C 0.70571 0.07923 0.62056 0.0
H1440 H 0.65638 0.10536 0.56901 0.0
C1441 C 0.70339 0.04891 0.61447 0.0
H1442 H 0.69161 0.12288 0.60658 0.0
C1443 C 0.68325 0.0388 0.59298 0.0
C1444 C 0.66507 0.05883 0.57716 0.0
H1445 H 0.71533 0.03282 0.62788 0.0
H1446 H 0.6804 0.01523 0.59035 0.0
C1447 C 0.66979 0.08927 0.58103 0.0
C1448 C 0.03814 0.3944 0.43605 0.0
C1449 C 0.01801 0.3786 0.41803 0.0
H1450 H 0.04338 0.4279 0.46921 0.0
C1451 C 0.98691 0.38199 0.42272 0.0
H1452 H 0.06224 0.39217 0.43296 0.0
C1453 C 0.97609 0.40239 0.44342 0.0
C1454 C -0.00382 0.41989 0.4598 0.0
H1455 H 0.97089 0.36953 0.40964 0.0
H1456 H 0.95196 0.40545 0.44548 0.0
C1457 C 0.02731 0.41486 0.4568 0.0
C1458 C 0.5751 0.09908 0.30628 0.0
C1459 C 0.59544 0.08326 0.28835 0.0
H1460 H 0.54703 0.09849 0.34481 0.0
C1461 C 0.5979 0.05252 0.29197 0.0
H1462 H 0.57234 0.12269 0.30359 0.0
C1463 C 0.58351 0.03859 0.31564 0.0
C1464 C 0.56649 0.0552 0.33607 0.0
H1465 H 0.61339 0.03967 0.27849 0.0
H1466 H 0.58813 0.01542 0.31948 0.0
C1467 C 0.56062 0.08514 0.32989 0.0
C1468 C 0.05977 0.64436 0.39421 0.0
C1469 C 0.03899 0.66578 0.38449 0.0
H1470 H 0.06669 0.60512 0.41963 0.0
C1471 C 0.00902 0.66418 0.39419 0.0
H1472 H 0.08309 0.64521 0.38722 0.0
C1473 C -0.00031 0.64112 0.41222 0.0
C1474 C 0.02006 0.61896 0.42112 0.0
H1475 H 0.9923 0.68005 0.38676 0.0
H1476 H 0.97616 0.64037 0.41851 0.0
C1477 C 0.05038 0.62131 0.41266 0.0
C1478 C 0.33747 0.97729 0.40469 0.0
C1479 C 0.32625 1.00262 0.39046 0.0
H1480 H 0.36964 0.9596 0.43534 0.0
C1481 C 0.33575 0.03049 0.40028 0.0
H1482 H 0.33053 0.95552 0.39761 0.0
C1483 C 0.35808 0.03289 0.42205 0.0
C1484 C 0.37153 0.00741 0.43409 0.0
H1485 H 0.32703 0.05039 0.39002 0.0
H1486 H 0.36633 0.05462 0.42769 0.0
C1487 C 0.35995 0.97966 0.42627 0.0
C1488 C 0.00897 0.14672 0.36826 0.0
C1489 C 0.04039 0.14864 0.36514 0.0
H1490 H 0.97183 0.12815 0.39147 0.0
C1491 C 0.05863 0.13135 0.38415 0.0
H1492 H 0.99403 0.1601 0.35475 0.0
C1493 C 0.04569 0.1131 0.40593 0.0
C1494 C 0.01424 0.11169 0.40917 0.0
H1495 H 0.08293 0.13213 0.38244 0.0
H1496 H 0.06032 0.10064 0.4205 0.0
C1497 C -0.00384 0.12859 0.38982 0.0
C1498 C 0.84174 0.04686 0.35522 0.0
C1499 C 0.83554 0.07718 0.35234 0.0
H1500 H 0.86636 0.0132 0.3782 0.0
C1501 C 0.8474 0.09667 0.37373 0.0
H1502 H 0.83227 0.03106 0.33979 0.0
C1503 C 0.86645 0.08626 0.3963 0.0
C1504 C 0.87425 0.0562 0.39778 0.0
H1505 H 0.84318 0.12017 0.37223 0.0
H1506 H 0.87653 0.10203 0.41139 0.0
C1507 C 0.86098 0.03653 0.37753 0.0
C1508 C 0.99007 0.92905 0.30015 0.0
C1509 C 0.009 0.90699 0.31184 0.0
H1510 H 0.96413 0.96811 0.30874 0.0
C1511 C 0.01738 0.90867 0.34202 0.0
H1512 H 0.98341 0.92853 0.27696 0.0
C1513 C 0.00622 0.93123 0.36031 0.0
C1514 C 0.98655 0.95278 0.34882 0.0
H1515 H 0.03163 0.89185 0.35188 0.0
H1516 H 0.01256 0.93142 0.38359 0.0
C1517 C 0.97909 0.95176 0.31839 0.0
C1518 C 0.07736 0.99397 0.315 0.0
C1519 C 0.10061 0.0131 0.30658 0.0
H1520 H 0.0456 0.98217 0.34852 0.0
C1521 C 0.10595 0.03838 0.32399 0.0
H1522 H 0.07233 0.97459 0.30182 0.0
C1523 C 0.09053 0.0428 0.35072 0.0
C1524 C 0.06958 0.02197 0.36066 0.0
H1525 H 0.1238 0.05353 0.31836 0.0
H1526 H 0.09653 0.06153 0.36446 0.0
C1527 C 0.06204 0.99833 0.34181 0.0
C1528 C 0.01308 0.92347 0.71414 0.0
C1529 C -0.00519 0.90036 0.70398 0.0
H1530 H 0.03865 0.96167 0.70275 0.0
C1531 C 0.98689 0.8995 0.67364 0.0
H1532 H 0.01937 0.92494 0.73739 0.0
C1533 C -0.00203 0.92049 0.65374 0.0
C1534 C 0.01717 0.94293 0.66371 0.0
H1535 H 0.97319 0.8818 0.66492 0.0
H1536 H 0.9922 0.91854 0.63039 0.0
C1537 C 0.02403 0.94459 0.69426 0.0
C1538 C 0.17823 0.986 0.64858 0.0
C1539 C 0.18688 0.01217 0.66308 0.0
H1540 H 0.1494 0.96585 0.61627 0.0
C1541 C 0.17453 0.03908 0.65294 0.0
H1542 H 0.18778 0.96491 0.65496 0.0
C1543 C 0.15333 0.03965 0.62987 0.0
C1544 C 0.14346 0.0133 0.61679 0.0
H1545 H 0.18015 0.05974 0.66361 0.0
H1546 H 0.14327 0.06059 0.62365 0.0
C1547 C 0.15656 0.98654 0.62598 0.0
C1548 C 0.02796 0.13918 0.65737 0.0
C1549 C -0.00177 0.15024 0.65798 0.0
H1550 H 0.06041 0.11166 0.63554 0.0
C1551 C 0.9784 0.1412 0.63523 0.0
H1552 H 0.04448 0.1461 0.67359 0.0
C1553 C 0.9882 0.12242 0.61238 0.0
C1554 C 0.01763 0.11107 0.61226 0.0
H1555 H 0.95527 0.14878 0.63469 0.0
H1556 H 0.97273 0.11707 0.59468 0.0
C1557 C 0.0374 0.11975 0.63502 0.0
C1558 C 0.91009 0.09703 0.69762 0.0
C1559 C 0.90904 0.07739 0.72184 0.0
H1560 H 0.92415 0.10454 0.65291 0.0
C1561 C 0.9256 0.05086 0.71995 0.0
H1562 H 0.89733 0.11748 0.69779 0.0
C1563 C 0.94075 0.0432 0.69367 0.0
C1564 C 0.9398 0.06197 0.66879 0.0
H1565 H 0.92576 0.03541 0.73828 0.0
H1566 H 0.95215 0.02201 0.69249 0.0
C1567 C 0.9253 0.08947 0.67152 0.0
C1568 C 0.36687 0.99106 0.1324 0.0
C1569 C 0.33606 0.99054 0.12512 0.0
H1570 H 0.41153 1.00143 0.11825 0.0
C1571 C 0.32721 0.99783 0.09601 0.0
H1572 H 0.37447 0.98587 0.1547 0.0
C1573 C 0.3485 0.00702 0.07515 0.0
C1574 C 0.37906 0.00909 0.08299 0.0
H1575 H 0.30372 0.99717 0.08957 0.0
H1576 H 0.34081 0.01343 0.0532 0.0
C1577 C 0.38814 1.00021 0.11155 0.0
C1578 C 0.10037 0.38679 0.16289 0.0
C1579 C 0.07616 0.3669 0.16271 0.0
H1580 H 0.12067 0.42484 0.14317 0.0
C1581 C 0.05399 0.37011 0.14052 0.0
H1582 H 0.11766 0.3853 0.17984 0.0
C1583 C 0.05567 0.39288 0.1195 0.0
C1584 C 0.07947 0.41323 0.12019 0.0
H1585 H 0.03517 0.35507 0.13947 0.0
H1586 H 0.03802 0.39475 0.10296 0.0
C1587 C 0.10197 0.40968 0.14198 0.0
C1588 C 0.68855 0.08199 0.08636 0.0
C1589 C 0.71939 0.0752 0.089 0.0
H1590 H 0.64606 0.06986 0.06811 0.0
C1591 C 0.73142 0.05199 0.07187 0.0
H1592 H 0.67836 0.09937 0.0996 0.0
C1593 C 0.71265 0.035 0.05368 0.0
C1594 C 0.68148 0.04068 0.05266 0.0
H1595 H 0.75509 0.04629 0.07343 0.0
H1596 H 0.72237 0.01661 0.04153 0.0
C1597 C 0.66986 0.06484 0.06854 0.0
C1598 C 0.00743 0.63608 0.14862 0.0
C1599 C 0.01481 0.66482 0.13908 0.0
H1600 H 0.00911 0.58959 0.13895 0.0
C1601 C 0.0256 0.66843 0.10987 0.0
H1602 H -0.00065 0.63219 0.17099 0.0
C1603 C 0.0316 0.64393 0.0919 0.0
C1604 C 0.0263 0.61528 0.10234 0.0
H1605 H 0.03078 0.69012 0.10131 0.0
H1606 H 0.04184 0.6473 0.0703 0.0
C1607 C 0.01297 0.61153 0.13031 0.0
C1608 C 0.37629 0.96208 0.91654 0.0
C1609 C 0.35391 0.98248 0.90757 0.0
H1610 H 0.42063 0.95584 0.93501 0.0
C1611 C 0.35924 0.01267 0.91233 0.0
H1612 H 0.37317 0.93866 0.91318 0.0
C1613 C 0.38597 0.02225 0.92506 0.0
C1614 C 0.40857 1.00211 0.93342 0.0
H1615 H 0.34339 0.02937 0.90499 0.0
H1616 H 0.38892 0.04577 0.92812 0.0
C1617 C 0.40345 0.97184 0.92923 0.0
C1618 C 0.95481 0.36973 0.87855 0.0
C1619 C 0.98314 0.35635 0.87415 0.0
H1620 H 0.92898 0.40223 0.90208 0.0
C1621 C 0.00708 0.36463 0.8929 0.0
H1622 H 0.9359 0.36424 0.86441 0.0
C1623 C 0.0032 0.38682 0.91432 0.0
C1624 C 0.97525 0.4012 0.91759 0.0
H1625 H 0.02908 0.35443 0.89058 0.0
H1626 H 0.02233 0.39318 0.9278 0.0
C1627 C 0.9509 0.3918 0.90003 0.0
C1628 C 0.63217 0.07756 0.88486 0.0
C1629 C 0.65367 0.05891 0.87132 0.0
H1630 H 0.59278 0.08062 0.91231 0.0
C1631 C 0.65074 0.02827 0.87477 0.0
H1632 H 0.6336 0.10127 0.88255 0.0
C1633 C 0.62779 0.0166 0.89224 0.0
C1634 C 0.60701 0.03522 0.90677 0.0
H1635 H 0.66626 0.01315 0.86396 0.0
H1636 H 0.62691 0.9929 0.89503 0.0
C1637 C 0.60895 0.06578 0.90223 0.0
C1638 C 0.00671 0.63806 0.87924 0.0
C1639 C 0.99147 0.66456 0.88657 0.0
H1640 H 0.01407 0.59235 0.8899 0.0
C1641 C 0.97458 0.66547 0.91305 0.0
H1642 H 0.01961 0.63618 0.85889 0.0
C1643 C 0.97104 0.64016 0.93031 0.0
C1644 C 0.98494 0.61348 0.92212 0.0
H1645 H 0.96317 0.68549 0.92002 0.0
H1646 H 0.95664 0.64121 0.94968 0.0
C1647 C 0.00361 0.61282 0.89699 0.0
C1648 C 0.12596 0.37834 0.96699 0.0
C1649 C 0.12229 0.36324 0.9941 0.0
H1650 H 0.11331 0.41537 0.94014 0.0
C1651 C 0.10036 0.37371 0.01426 0.0
H1652 H 0.14281 0.37133 0.95102 0.0
C1653 C 0.08387 0.39944 0.00824 0.0
C1654 C 0.08859 0.41514 0.98175 0.0
H1655 H 0.09631 0.36238 0.03506 0.0
H1656 H 0.06774 0.40725 0.02458 0.0
C1657 C 0.10919 0.40384 0.96082 0.0
C1658 C 0.10798 0.65833 0.04305 0.0
C1659 C 0.09631 0.68458 0.03075 0.0
H1660 H 0.10798 0.61116 0.04222 0.0
C1661 C 0.07248 0.68276 0.01036 0.0
H1662 H 0.12675 0.65898 0.05843 0.0
C1663 C 0.06144 0.65529 0.00152 0.0
C1664 C 0.07422 0.62892 0.01254 0.0
H1665 H 0.06304 0.70257 0.00055 0.0
H1666 H 0.04355 0.65472 0.98513 0.0
C1667 C 0.0972 0.63081 0.03384 0.0
C1668 C 0.35448 0.1516 0.0274 0.0
C1669 C 0.3399 0.1558 -7e-05 0.0
H1670 H 0.39215 0.13341 0.05069 0.0
C1671 C 0.35469 0.14648 0.9738 0.0
H1672 H 0.34439 0.15946 0.04791 0.0
C1673 C 0.38266 0.13188 0.97537 0.0
C1674 C 0.39635 0.12638 0.0031 0.0
H1675 H 0.34424 0.14962 0.95225 0.0
H1676 H 0.39279 0.12368 0.95501 0.0
C1677 C 0.38221 0.13707 0.02897 0.0
C1678 C 0.96689 0.35693 0.99478 0.0
C1679 C 0.94251 0.34574 0.01113 0.0
H1680 H -0.00045 0.39128 0.99046 0.0
C1681 C 0.93286 0.36109 0.03667 0.0
H1682 H 0.97483 0.34561 0.97501 0.0
C1683 C 0.94644 0.38751 0.04508 0.0
C1684 C 0.97027 0.39919 0.02835 0.0
H1685 H 0.91381 0.3534 0.04949 0.0
H1686 H 0.93781 0.39908 0.06443 0.0
C1687 C 0.98089 0.38319 0.00355 0.0
C1688 C 0.68075 0.89437 0.94415 0.0
C1689 C 0.69874 0.88369 0.96771 0.0
H1690 H 0.64103 0.91869 0.93151 0.0
C1691 C 0.68811 0.88726 0.99703 0.0
H1692 H 0.68805 0.89198 0.92128 0.0
C1693 C 0.66137 0.90252 0.00277 0.0
C1694 C 0.6441 0.91424 0.9794 0.0
H1695 H 0.7005 0.87836 0.01576 0.0
H1696 H 0.65461 0.90594 0.02571 0.0
C1697 C 0.65361 0.90939 0.94995 0.0
C1698 C 0.93449 0.66784 0.00567 0.0
C1699 C 0.90757 0.66561 0.98932 0.0
H1700 H 0.9693 0.64503 0.02955 0.0
C1701 C 0.89652 0.63726 0.98269 0.0
H1702 H 0.94395 0.68918 0.01084 0.0
C1703 C 0.91128 0.61196 0.99319 0.0
C1704 C 0.93736 0.61436 0.01055 0.0
H1705 H 0.87555 0.63455 0.97072 0.0
H1706 H 0.90137 0.59067 0.98904 0.0
C1707 C 0.94908 0.64253 0.0163 0.0
C1708 C 0.33199 0.88854 0.9939 0.0
C1709 C 0.31288 0.89221 0.01873 0.0
H1710 H 0.37289 0.90141 0.97206 0.0
C1711 C 0.31967 0.91463 0.0393 0.0
H1712 H 0.32769 0.87142 0.97765 0.0
C1713 C 0.34578 0.93142 0.03634 0.0
C1714 C 0.36581 0.92664 0.01251 0.0
H1715 H 0.30523 0.91867 0.05832 0.0
H1716 H 0.35074 0.94753 0.05341 0.0
C1717 C 0.35809 0.90564 0.99076 0.0
C1718 C 0.69864 0.14751 0.94795 0.0
C1719 C 0.72352 0.14252 0.96687 0.0
H1720 H 0.65311 0.13622 0.93688 0.0
C1721 C 0.72204 0.11899 0.98718 0.0
H1722 H 0.69868 0.16551 0.93216 0.0
C1723 C 0.69568 0.10256 0.99017 0.0
C1724 C 0.67014 0.10891 0.97271 0.0
H1725 H 0.74091 0.11384 0.00157 0.0
H1726 H 0.69499 0.08552 0.00699 0.0
C1727 C 0.67233 0.13077 0.95072 0.0
C1728 C 0.48651 0.67359 0.87532 0.0
C1729 C 0.50461 0.66289 0.85189 0.0
H1730 H 0.46659 0.66517 0.91788 0.0
C1731 C 0.51624 0.63402 0.85394 0.0
H1732 H 0.47761 0.69588 0.87481 0.0
C1733 C 0.50991 0.61636 0.87875 0.0
C1734 C 0.49211 0.62725 0.90233 0.0
H1735 H 0.53017 0.62501 0.83631 0.0
H1736 H 0.51914 0.59421 0.8795 0.0
C1737 C 0.48043 0.65606 0.90023 0.0
C1738 C 0.41099 0.56107 0.89188 0.0
C1739 C 0.39986 0.5396 0.87207 0.0
H1740 H 0.43304 0.57002 0.93323 0.0
C1741 C 0.40577 0.5097 0.87848 0.0
H1742 H 0.40757 0.58433 0.88759 0.0
C1743 C 0.42136 0.50155 0.90437 0.0
C1744 C 0.43122 0.52302 0.92475 0.0
H1745 H 0.39732 0.49242 0.86415 0.0
H1746 H 0.42489 0.47832 0.90883 0.0
C1747 C 0.42607 0.55288 0.91799 0.0
C1748 C 0.53245 0.35453 0.87744 0.0
C1749 C 0.51718 0.36457 0.85189 0.0
H1750 H 0.55056 0.3652 0.92033 0.0
C1751 C 0.50852 0.39445 0.85055 0.0
H1752 H 0.53902 0.33157 0.87948 0.0
C1753 C 0.51518 0.41379 0.87403 0.0
C1754 C 0.53031 0.40368 0.89964 0.0
H1755 H 0.49681 0.40295 0.8312 0.0
H1756 H 0.50837 0.43669 0.87211 0.0
C1757 C 0.5388 0.37377 0.90104 0.0
C1758 C 0.59439 0.56466 0.85898 0.0
C1759 C 0.59031 0.54091 0.8392 0.0
H1760 H 0.58513 0.58326 0.90167 0.0
C1761 C 0.57056 0.51819 0.84759 0.0
H1762 H 0.60976 0.58236 0.85378 0.0
C1763 C 0.5565 0.51858 0.8756 0.0
C1764 C 0.56214 0.54155 0.8959 0.0
H1765 H 0.56667 0.49965 0.83288 0.0
H1766 H 0.54208 0.50041 0.88169 0.0
C1767 C 0.58056 0.56496 0.88684 0.0
C1768 C 0.53287 0.41188 0.17851 0.0
C1769 C 0.50999 0.39052 0.17795 0.0
H1770 H 0.55854 0.44329 0.15384 0.0
C1771 C 0.49184 0.38872 0.15214 0.0
H1772 H 0.54676 0.41488 0.19807 0.0
C1773 C 0.49793 0.4062 0.12703 0.0
C1774 C 0.52257 0.4254 0.12704 0.0
H1775 H 0.47413 0.37252 0.1505 0.0
H1776 H 0.48481 0.40306 0.10695 0.0
C1777 C 0.53941 0.42861 0.15325 0.0
C1778 C 0.59978 0.49577 0.17048 0.0
C1779 C 0.62837 0.48241 0.16803 0.0
H1780 H 0.56232 0.51517 0.1475 0.0
C1781 C 0.63815 0.47321 0.13954 0.0
H1782 H 0.59089 0.5023 0.19196 0.0
C1783 C 0.62108 0.47968 0.11408 0.0
C1784 C 0.59419 0.49582 0.11659 0.0
H1785 H 0.66006 0.46306 0.13649 0.0
H1786 H 0.63029 0.4745 0.09235 0.0
C1787 C 0.58313 0.50278 0.14503 0.0
C1788 C 0.55882 0.65453 0.13595 0.0
C1789 C 0.54636 0.65307 0.16489 0.0
H1790 H 0.5576 0.63838 0.09084 0.0
C1791 C 0.52528 0.63074 0.17072 0.0
H1792 H 0.57483 0.67148 0.13022 0.0
C1793 C 0.51506 0.61232 0.14791 0.0
C1794 C 0.52625 0.61502 0.11883 0.0
H1795 H 0.51573 0.62808 0.19271 0.0
H1796 H 0.49743 0.59664 0.15277 0.0
C1797 C 0.549 0.63554 0.11321 0.0
C1798 C 0.42377 0.58433 0.15163 0.0
C1799 C 0.4292 0.57311 0.18034 0.0
H1800 H 0.42917 0.57811 0.10486 0.0
C1801 C 0.44841 0.5486 0.18345 0.0
H1802 H 0.40848 0.60277 0.14836 0.0
C1803 C 0.46065 0.53476 0.15829 0.0
C1804 C 0.45372 0.54495 0.12946 0.0
H1805 H 0.45296 0.53942 0.20525 0.0
H1806 H 0.47456 0.51529 0.16139 0.0
C1807 C 0.43567 0.57023 0.12652 0.0
C1808 C 0.86399 0.56583 0.66853 0.0
C1809 C 0.84665 0.54148 0.67759 0.0
H1810 H 0.90068 0.58132 0.64171 0.0
C1811 C 0.85565 0.51318 0.66816 0.0
H1812 H 0.85779 0.58798 0.67525 0.0
C1813 C 0.88014 0.50943 0.64897 0.0
C1814 C 0.89659 0.53382 0.63879 0.0
H1815 H 0.84358 0.49379 0.67535 0.0
H1816 H 0.88563 0.48736 0.64135 0.0
C1817 C 0.88875 0.56203 0.64942 0.0
C1818 C 0.57704 0.88723 0.63553 0.0
C1819 C 0.55157 0.86891 0.63518 0.0
H1820 H 0.59879 0.92538 0.618 0.0
C1821 C 0.52799 0.87584 0.61536 0.0
H1822 H 0.59538 0.88311 0.65089 0.0
C1823 C 0.52987 0.90044 0.59651 0.0
C1824 C 0.5553 0.91882 0.59713 0.0
H1825 H 0.50808 0.86221 0.61434 0.0
H1826 H 0.51128 0.90515 0.5816 0.0
C1827 C 0.57888 0.91177 0.61681 0.0
C1828 C 0.22656 0.53536 0.60356 0.0
C1829 C 0.22925 0.5595 0.62307 0.0
H1830 H 0.19858 0.51178 0.573 0.0
C1831 C 0.20555 0.58033 0.62407 0.0
H1832 H 0.24445 0.51911 0.60179 0.0
C1833 C 0.17927 0.57624 0.6074 0.0
C1834 C 0.17585 0.55112 0.58939 0.0
H1835 H 0.20644 0.59902 0.63907 0.0
H1836 H 0.1611 0.59214 0.60974 0.0
C1837 C 0.2002 0.5312 0.58697 0.0
C1838 C 0.48492 0.13768 0.62823 0.0
C1839 C 0.50073 0.16441 0.63126 0.0
H1840 H 0.4818 0.09592 0.60638 0.0
C1841 C 0.52518 0.16942 0.6121 0.0
H1842 H 0.46609 0.13275 0.64264 0.0
C1843 C 0.53448 0.14784 0.5917 0.0
C1844 C 0.51955 0.12057 0.58959 0.0
H1845 H 0.53752 0.1899 0.61309 0.0
H1846 H 0.55395 0.15241 0.57797 0.0
C1847 C 0.49412 0.1162 0.60754 0.0
C1848 C 0.83125 0.55058 0.40061 0.0
C1849 C 0.81127 0.52716 0.40604 0.0
H1850 H 0.87338 0.5708 0.41118 0.0
C1851 C 0.8178 0.50775 0.42962 0.0
H1852 H 0.82734 0.56581 0.38247 0.0
C1853 C 0.84462 0.51034 0.44574 0.0
C1854 C 0.8655 0.53255 0.4389 0.0
H1855 H 0.80275 0.48981 0.43489 0.0
H1856 H 0.84946 0.49421 0.46284 0.0
C1857 C 0.85793 0.55332 0.41694 0.0
C1858 C 0.50293 0.87441 0.37702 0.0
C1859 C 0.52772 0.85607 0.3836 0.0
H1860 H 0.47538 0.91103 0.39031 0.0
C1861 C 0.54377 0.86111 0.41012 0.0
H1862 H 0.49042 0.87152 0.35653 0.0
C1863 C 0.53498 0.88375 0.4297 0.0
C1864 C 0.51037 0.90227 0.42287 0.0
H1865 H 0.56304 0.84745 0.41579 0.0
H1866 H 0.54766 0.88691 0.45003 0.0
C1867 C 0.4945 0.89729 0.39627 0.0
C1868 C 0.16396 0.58915 0.35173 0.0
C1869 C 0.18397 0.56791 0.34 0.0
H1870 H 0.1271 0.59804 0.38145 0.0
C1871 C 0.18062 0.53833 0.34857 0.0
H1872 H 0.16576 0.61207 0.34525 0.0
C1873 C 0.15862 0.53032 0.36924 0.0
C1874 C 0.13909 0.55161 0.38161 0.0
H1875 H 0.1957 0.52145 0.34003 0.0
H1876 H 0.15741 0.50747 0.3761 0.0
C1877 C 0.14157 0.58105 0.37214 0.0
C1878 C 0.47039 0.17001 0.41046 0.0
C1879 C 0.49526 0.17439 0.39171 0.0
H1880 H 0.44776 0.1413 0.4406 0.0
C1881 C 0.51787 0.15242 0.39078 0.0
H1882 H 0.45276 0.18655 0.41214 0.0
C1883 C 0.51505 0.12632 0.40726 0.0
C1884 C 0.48957 0.12143 0.42502 0.0
H1885 H 0.53722 0.15478 0.37633 0.0
H1886 H 0.53238 0.10973 0.40528 0.0
C1887 C 0.4676 0.14396 0.42686 0.0
C1888 C 0.63793 0.87305 0.46967 0.0
C1889 C 0.6614 0.86931 0.44892 0.0
H1890 H 0.59923 0.8982 0.48307 0.0
C1891 C 0.6624 0.88837 0.42424 0.0
H1892 H 0.63619 0.85859 0.48874 0.0
C1893 C 0.64116 0.91118 0.42098 0.0
C1894 C 0.6183 0.91549 0.44227 0.0
H1895 H 0.6803 0.88641 0.40798 0.0
H1896 H 0.64305 0.9258 0.40205 0.0
C1897 C 0.61666 0.89579 0.46637 0.0
C1898 C 0.62772 0.15612 0.51463 0.0
C1899 C 0.63525 0.17603 0.49175 0.0
H1900 H 0.60469 0.11646 0.52658 0.0
C1901 C 0.62362 0.17102 0.46314 0.0
H1902 H 0.63603 0.1594 0.53705 0.0
C1903 C 0.60583 0.14652 0.45728 0.0
C1904 C 0.59912 0.12598 0.47975 0.0
H1905 H 0.62929 0.18531 0.44473 0.0
H1906 H 0.59793 0.1434 0.43468 0.0
C1907 C 0.60978 0.13139 0.50868 0.0
C1908 C 0.88963 0.637 0.46666 0.0
C1909 C 0.86933 0.65198 0.48563 0.0
H1910 H 0.92733 0.60741 0.46318 0.0
C1911 C 0.87163 0.64706 0.51645 0.0
H1912 H 0.88862 0.64016 0.4428 0.0
C1913 C 0.89356 0.62805 0.52798 0.0
C1914 C 0.91406 0.61332 0.50916 0.0
H1915 H 0.8571 0.65864 0.53196 0.0
H1916 H 0.89448 0.62508 0.55189 0.0
C1917 C 0.91178 0.61799 0.47832 0.0
C1918 C 0.3824 0.87761 0.58045 0.0
C1919 C 0.37649 0.8613 0.55447 0.0
H1920 H 0.40883 0.91116 0.60124 0.0
C1921 C 0.3948 0.86586 0.52934 0.0
H1922 H 0.36853 0.87498 0.60008 0.0
C1923 C 0.41793 0.88673 0.52996 0.0
C1924 C 0.42316 0.90371 0.55565 0.0
H1925 H 0.39104 0.8535 0.50905 0.0
H1926 H 0.43128 0.88997 0.51007 0.0
C1927 C 0.40537 0.89859 0.58101 0.0
C1928 C 0.18268 0.40143 0.52343 0.0
C1929 C 0.21361 0.39875 0.51694 0.0
H1930 H 0.14207 0.42658 0.51791 0.0
C1931 C 0.22764 0.42146 0.50099 0.0
H1932 H 0.17105 0.38419 0.53537 0.0
C1933 C 0.21099 0.44581 0.49097 0.0
C1934 C 0.17984 0.44789 0.49643 0.0
H1935 H 0.25146 0.42022 0.4959 0.0
H1936 H 0.22243 0.46259 0.47822 0.0
C1937 C 0.16599 0.42568 0.51325 0.0
C1938 C 0.37816 0.12731 0.5033 0.0
C1939 C 0.38718 0.15554 0.51313 0.0
H1940 H 0.38853 0.08088 0.50165 0.0
C1941 C 0.41614 0.15851 0.52543 0.0
H1942 H 0.356 0.12392 0.49393 0.0
C1943 C 0.43424 0.13374 0.53046 0.0
C1944 C 0.42429 0.10548 0.52253 0.0
H1945 H 0.42439 0.17984 0.53241 0.0
H1946 H 0.45564 0.13654 0.5417 0.0
C1947 C 0.39671 0.10252 0.50774 0.0
C1948 C 0.80398 0.43603 0.51191 0.0
C1949 C 0.81462 0.41271 0.49408 0.0
H1950 H 0.81499 0.47469 0.53693 0.0
C1951 C 0.84521 0.41225 0.48582 0.0
H1952 H 0.78051 0.43717 0.51839 0.0
C1953 C 0.86501 0.43364 0.4965 0.0
C1954 C 0.85467 0.45605 0.51562 0.0
H1955 H 0.85426 0.39444 0.47236 0.0
H1956 H 0.88862 0.43196 0.49062 0.0
C1957 C 0.82376 0.45756 0.52244 0.0
C1958 C 0.16269 0.64836 0.51051 0.0
C1959 C 0.16369 0.65414 0.54128 0.0
H1960 H 0.14116 0.6259 0.47469 0.0
C1961 C 0.14211 0.64049 0.55964 0.0
H1962 H 0.17805 0.65897 0.49528 0.0
C1963 C 0.11991 0.62219 0.54743 0.0
C1964 C 0.11923 0.61642 0.51674 0.0
H1965 H 0.14202 0.64418 0.58345 0.0
H1966 H 0.10303 0.61306 0.56198 0.0
C1967 C 0.14097 0.62972 0.49851 0.0
loop_
_geom_bond_atom_site_label_1
_geom_bond_atom_site_label_2
_geom_bond_distance
_geom_bond_site_symmetry_2
_ccdc_geom_bond_type
C0 C1 1.386 . S
C0 C2 1.397 . S
C0 H24 0.931 . S
C1 C0 1.386 . S
C1 C5 1.397 . S
C2 C0 1.397 . S
C2 C3 1.384 . S
C2 H25 0.930 . S
C3 C2 1.384 . S
C3 C4 1.377 . S
C3 C6 1.481 . S
C4 C3 1.377 . S
C4 C5 1.389 . S
C4 H26 0.929 . S
C5 C1 1.397 . S
C5 C4 1.389 . S
C5 H27 0.931 . S
C6 C3 1.481 . S
C6 C7 1.387 . S
C6 C11 1.390 . S
C7 C6 1.387 . S
C7 C8 1.401 . S
C7 H28 0.930 . S
C8 C7 1.401 . S
C8 C9 1.376 . S
C8 C17 1.511 . S
C9 C8 1.376 . S
C9 C10 1.392 . S
C9 H30 0.931 . S
C10 C9 1.392 . S
C10 C11 1.361 . S
C10 C12 1.500 . S
C11 C6 1.390 . S
C11 C10 1.361 . S
C11 H29 0.931 . S
C12 C10 1.500 . S
C12 C13 1.371 . S
C12 C14 1.365 . S
C13 C12 1.371 . S
C13 C23 1.386 . S
C13 H31 0.931 . S
C14 C12 1.365 . S
C14 C15 1.409 . S
C14 H32 0.929 . S
C15 C14 1.409 . S
C15 C16 1.380 . S
C15 H33 0.930 . S
C16 C15 1.380 . S
C16 C23 1.357 . S
C17 C8 1.511 . S
C17 C18 1.341 . S
C17 C19 1.371 . S
C18 C17 1.341 . S
C18 C22 1.394 . S
C18 H34 0.930 . S
C19 C17 1.371 . S
C19 C20 1.392 . S
C19 H35 0.931 . S
C20 C19 1.392 . S
C20 C21 1.331 . S
C20 H38 0.932 . S
C21 C20 1.331 . S
C21 C22 1.336 . S
C22 C18 1.394 . S
C22 C21 1.336 . S
C22 H37 0.929 . S
C23 C13 1.386 . S
C23 C16 1.357 . S
C23 H36 0.928 . S
H24 C0 0.931 . S
H25 C2 0.930 . S
H26 C4 0.929 . S
H27 C5 0.931 . S
H28 C7 0.930 . S
H29 C11 0.931 . S
H30 C9 0.931 . S
H31 C13 0.931 . S
H32 C14 0.929 . S
H33 C15 0.930 . S
H34 C18 0.930 . S
H35 C19 0.931 . S
H36 C23 0.928 . S
H37 C22 0.929 . S
H38 C20 0.932 . S
C39 C40 1.386 . S
C39 C41 1.397 . S
C39 H63 0.931 . S
C40 C39 1.386 . S
C40 C44 1.397 . S
C41 C39 1.397 . S
C41 C42 1.384 . S
C41 H64 0.930 . S
C42 C41 1.384 . S
C42 C43 1.377 . S
C42 C45 1.481 . S
C43 C42 1.377 . S
C43 C44 1.389 . S
C43 H65 0.929 . S
C44 C40 1.397 . S
C44 C43 1.389 . S
C44 H66 0.931 . S
C45 C42 1.481 . S
C45 C46 1.387 . S
C45 C50 1.390 . S
C46 C45 1.387 . S
C46 C47 1.401 . S
C46 H67 0.930 . S
C47 C46 1.401 . S
C47 C48 1.376 . S
C47 C56 1.511 . S
C48 C47 1.376 . S
C48 C49 1.392 . S
C48 H69 0.931 . S
C49 C48 1.392 . S
C49 C50 1.361 . S
C49 C51 1.500 . S
C50 C45 1.390 . S
C50 C49 1.361 . S
C50 H68 0.931 . S
C51 C49 1.500 . S
C51 C52 1.371 . S
C51 C53 1.365 . S
C52 C51 1.371 . S
C52 C62 1.386 . S
C52 H70 0.931 . S
C53 C51 1.365 . S
C53 C54 1.409 . S
C53 H71 0.929 . S
C54 C53 1.409 . S
C54 C55 1.380 . S
C54 H72 0.930 . S
C55 C54 1.380 . S
C55 C62 1.357 . S
C56 C47 1.511 . S
C56 C57 1.341 . S
C56 C58 1.371 . S
C57 C56 1.341 . S
C57 C61 1.394 . S
C57 H73 0.930 . S
C58 C56 1.371 . S
C58 C59 1.392 . S
C58 H74 0.931 . S
C59 C58 1.392 . S
C59 C60 1.331 . S
C59 H77 0.932 . S
C60 C59 1.331 . S
C60 C61 1.336 . S
C61 C57 1.394 . S
C61 C60 1.336 . S
C61 H76 0.929 . S
C62 C52 1.386 . S
C62 C55 1.357 . S
C62 H75 0.928 . S
H63 C39 0.931 . S
H64 C41 0.930 . S
H65 C43 0.929 . S
H66 C44 0.931 . S
H67 C46 0.930 . S
H68 C50 0.931 . S
H69 C48 0.931 . S
H70 C52 0.931 . S
H71 C53 0.929 . S
H72 C54 0.930 . S
H73 C57 0.930 . S
H74 C58 0.931 . S
H75 C62 0.928 . S
H76 C61 0.929 . S
H77 C59 0.932 . S
C78 C79 1.386 . S
C78 C80 1.397 . S
C78 H102 0.931 1_455 S
C79 C78 1.386 . S
C79 C83 1.397 . S
C80 C78 1.397 . S
C80 C81 1.384 . S
C80 H103 0.930 1_455 S
C81 C80 1.384 . S
C81 C82 1.377 . S
C81 C84 1.481 . S
C82 C81 1.377 . S
C82 C83 1.389 . S
C82 H104 0.929 . S
C83 C79 1.397 . S
C83 C82 1.389 . S
C83 H105 0.931 . S
C84 C81 1.481 . S
C84 C85 1.387 . S
C84 C89 1.390 . S
C85 C84 1.387 . S
C85 C86 1.401 . S
C85 H106 0.930 . S
C86 C85 1.401 . S
C86 C87 1.376 . S
C86 C95 1.511 . S
C87 C86 1.376 . S
C87 C88 1.392 . S
C87 H108 0.931 . S
C88 C87 1.392 . S
C88 C89 1.361 . S
C88 C90 1.500 . S
C89 C84 1.390 . S
C89 C88 1.361 . S
C89 H107 0.931 . S
C90 C88 1.500 . S
C90 C91 1.371 . S
C90 C92 1.365 . S
C91 C90 1.371 . S
C91 C101 1.386 . S
C91 H109 0.939 . S
C92 C90 1.365 . S
C92 C93 1.409 . S
C92 H110 0.929 . S
C93 C92 1.409 . S
C93 C94 1.380 . S
C93 H111 0.930 . S
C94 C93 1.380 . S
C94 C101 1.357 . S
C95 C86 1.511 . S
C95 C96 1.341 . S
C95 C97 1.371 . S
C96 C95 1.341 . S
C96 C100 1.394 . S
C96 H112 0.930 . S
C97 C95 1.371 . S
C97 C98 1.392 . S
C97 H113 0.931 . S
C98 C97 1.392 . S
C98 C99 1.331 . S
C98 H116 0.932 . S
C99 C98 1.331 . S
C99 C100 1.336 . S
C100 C96 1.394 . S
C100 C99 1.336 . S
C100 H115 0.929 . S
C101 C91 1.386 . S
C101 C94 1.357 . S
C101 H114 0.946 . S
H102 C78 0.931 1_655 S
H103 C80 0.930 1_655 S
H104 C82 0.929 . S
H105 C83 0.931 . S
H106 C85 0.930 . S
H107 C89 0.931 . S
H108 C87 0.931 . S
H109 C91 0.939 . S
H110 C92 0.929 . S
H111 C93 0.930 . S
H112 C96 0.930 . S
H113 C97 0.931 . S
H114 C101 0.946 . S
H115 C100 0.929 . S
H116 C98 0.932 . S
C117 C118 1.386 . S
C117 C119 1.397 . S
C117 H141 0.931 . S
C118 C117 1.386 . S
C118 C122 1.397 1_545 S
C119 C117 1.397 . S
C119 C120 1.384 . S
C119 H142 0.930 . S
C120 C119 1.384 . S
C120 C121 1.377 1_545 S
C120 C123 1.481 . S
C121 C120 1.377 1_565 S
C121 C122 1.389 . S
C121 H143 0.929 . S
C122 C118 1.397 1_565 S
C122 C121 1.389 . S
C122 H144 0.931 . S
C123 C120 1.481 . S
C123 C124 1.387 . S
C123 C128 1.390 . S
C124 C123 1.387 . S
C124 C125 1.401 . S
C124 H145 0.930 . S
C125 C124 1.401 . S
C125 C126 1.376 . S
C125 C134 1.511 . S
C126 C125 1.376 . S
C126 C127 1.392 . S
C126 H147 0.931 . S
C127 C126 1.392 . S
C127 C128 1.361 . S
C127 C129 1.500 . S
C128 C123 1.390 . S
C128 C127 1.361 . S
C128 H146 0.931 . S
C129 C127 1.500 . S
C129 C130 1.371 . S
C129 C131 1.365 1_545 S
C130 C129 1.371 . S
C130 C140 1.386 . S
C130 H148 0.931 . S
C131 C129 1.365 1_565 S
C131 C132 1.409 . S
C131 H149 0.929 . S
C132 C131 1.409 . S
C132 C133 1.380 1_565 S
C132 H150 0.930 . S
C133 C132 1.380 1_545 S
C133 C140 1.357 . S
C134 C125 1.511 . S
C134 C135 1.341 . S
C134 C136 1.371 1_545 S
C135 C134 1.341 . S
C135 C139 1.394 . S
C135 H151 0.930 . S
C136 C134 1.371 1_565 S
C136 C137 1.392 . S
C136 H152 0.931 . S
C137 C136 1.392 . S
C137 C138 1.331 1_565 S
C137 H155 0.932 . S
C138 C137 1.331 1_545 S
C138 C139 1.336 . S
C139 C135 1.394 . S
C139 C138 1.336 . S
C139 H154 0.929 . S
C140 C130 1.386 . S
C140 C133 1.357 . S
C140 H153 0.928 . S
H141 C117 0.931 . S
H142 C119 0.930 . S
H143 C121 0.929 . S
H144 C122 0.931 . S
H145 C124 0.930 . S
H146 C128 0.931 . S
H147 C126 0.931 . S
H148 C130 0.931 . S
H149 C131 0.929 . S
H150 C132 0.930 . S
H151 C135 0.930 . S
H152 C136 0.931 . S
H153 C140 0.928 . S
H154 C139 0.929 . S
H155 C137 0.932 . S
C156 C157 1.388 1_655 S
C156 C158 1.397 . S
C156 H180 0.931 . S
C157 C156 1.388 1_455 S
C157 C161 1.395 . S
C158 C156 1.397 . S
C158 C159 1.383 1_655 S
C158 H181 0.930 . S
C159 C158 1.383 1_455 S
C159 C160 1.378 . S
C159 C162 1.480 1_455 S
C160 C159 1.378 . S
C160 C161 1.389 . S
C160 H182 0.929 . S
C161 C157 1.395 . S
C161 C160 1.389 . S
C161 H183 0.931 . S
C162 C159 1.480 1_655 S
C162 C163 1.388 . S
C162 C167 1.390 . S
C163 C162 1.388 . S
C163 C164 1.402 . S
C163 H184 0.930 . S
C164 C163 1.402 . S
C164 C165 1.376 . S
C164 C173 1.512 . S
C165 C164 1.376 . S
C165 C166 1.392 1_655 S
C165 H186 0.933 . S
C166 C165 1.392 1_455 S
C166 C167 1.361 1_455 S
C166 C168 1.500 . S
C167 C162 1.390 . S
C167 C166 1.361 1_655 S
C167 H185 0.931 1_655 S
C168 C166 1.500 . S
C168 C169 1.371 1_455 S
C168 C170 1.365 . S
C169 C168 1.371 1_655 S
C169 C179 1.386 . S
C169 H187 0.931 . S
C170 C168 1.365 . S
C170 C171 1.409 . S
C170 H188 0.929 . S
C171 C170 1.409 . S
C171 C172 1.388 . S
C171 H189 0.930 . S
C172 C171 1.388 . S
C172 C179 1.350 1_455 S
C173 C164 1.512 . S
C173 C174 1.341 . S
C173 C175 1.371 1_655 S
C174 C173 1.341 . S
C174 C178 1.394 . S
C174 H190 0.930 . S
C175 C173 1.371 1_455 S
C175 C176 1.392 . S
C175 H191 0.931 . S
C176 C175 1.392 . S
C176 C177 1.327 1_455 S
C176 H194 0.932 . S
C177 C176 1.327 1_655 S
C177 C178 1.340 . S
C178 C174 1.394 . S
C178 C177 1.340 . S
C178 H193 0.929 . S
C179 C169 1.386 . S
C179 C172 1.350 1_655 S
C179 H192 0.928 . S
H180 C156 0.931 . S
H181 C158 0.930 . S
H182 C160 0.929 . S
H183 C161 0.931 . S
H184 C163 0.930 . S
H185 C167 0.931 1_455 S
H186 C165 0.933 . S
H187 C169 0.931 . S
H188 C170 0.929 . S
H189 C171 0.930 . S
H190 C174 0.930 . S
H191 C175 0.931 . S
H192 C179 0.928 . S
H193 C178 0.929 . S
H194 C176 0.932 . S
C195 C196 1.386 1_565 S
C195 C197 1.397 . S
C195 H219 0.931 . S
C196 C195 1.386 1_545 S
C196 C200 1.397 . S
C197 C195 1.397 . S
C197 C198 1.384 1_565 S
C197 H220 0.930 . S
C198 C197 1.384 1_545 S
C198 C199 1.377 . S
C198 C201 1.481 . S
C199 C198 1.377 . S
C199 C200 1.389 . S
C199 H221 0.929 . S
C200 C196 1.397 . S
C200 C199 1.389 . S
C200 H222 0.931 . S
C201 C198 1.481 . S
C201 C202 1.387 . S
C201 C206 1.390 . S
C202 C201 1.387 . S
C202 C203 1.401 . S
C202 H223 0.930 . S
C203 C202 1.401 . S
C203 C204 1.376 . S
C203 C212 1.511 . S
C204 C203 1.376 . S
C204 C205 1.392 . S
C204 H225 0.931 . S
C205 C204 1.392 . S
C205 C206 1.361 . S
C205 C207 1.500 . S
C206 C201 1.390 . S
C206 C205 1.361 . S
C206 H224 0.931 . S
C207 C205 1.500 . S
C207 C208 1.371 1_545 S
C207 C209 1.365 . S
C208 C207 1.371 1_565 S
C208 C218 1.386 . S
C208 H226 0.931 . S
C209 C207 1.365 . S
C209 C210 1.409 . S
C209 H227 0.929 . S
C210 C209 1.409 . S
C210 C211 1.380 . S
C210 H228 0.930 . S
C211 C210 1.380 . S
C211 C218 1.357 1_545 S
C212 C203 1.511 . S
C212 C213 1.341 1_545 S
C212 C214 1.371 . S
C213 C212 1.341 1_565 S
C213 C217 1.394 . S
C213 H229 0.930 . S
C214 C212 1.371 . S
C214 C215 1.392 . S
C214 H230 0.931 . S
C215 C214 1.392 . S
C215 C216 1.331 . S
C215 H233 0.932 . S
C216 C215 1.331 . S
C216 C217 1.336 1_545 S
C217 C213 1.394 . S
C217 C216 1.336 1_565 S
C217 H232 0.929 . S
C218 C208 1.386 . S
C218 C211 1.357 1_565 S
C218 H231 0.928 . S
H219 C195 0.931 . S
H220 C197 0.930 . S
H221 C199 0.929 . S
H222 C200 0.931 . S
H223 C202 0.930 . S
H224 C206 0.931 . S
H225 C204 0.931 . S
H226 C208 0.931 . S
H227 C209 0.929 . S
H228 C210 0.930 . S
H229 C213 0.930 . S
H230 C214 0.931 . S
H231 C218 0.928 . S
H232 C217 0.929 . S
H233 C215 0.932 . S
C234 C235 1.386 . S
C234 C236 1.397 . S
C234 H258 0.931 1_455 S
C235 C234 1.386 . S
C235 C239 1.397 . S
C236 C234 1.397 . S
C236 C237 1.384 . S
C236 H259 0.930 1_455 S
C237 C236 1.384 . S
C237 C238 1.377 . S
C237 C240 1.481 . S
C238 C237 1.377 . S
C238 C239 1.389 . S
C238 H260 0.929 . S
C239 C235 1.397 . S
C239 C238 1.389 . S
C239 H261 0.931 . S
C240 C237 1.481 . S
C240 C241 1.387 . S
C240 C245 1.390 . S
C241 C240 1.387 . S
C241 C242 1.401 . S
C241 H262 0.930 . S
C242 C241 1.401 . S
C242 C243 1.376 . S
C242 C251 1.511 . S
C243 C242 1.376 . S
C243 C244 1.392 . S
C243 H264 0.931 . S
C244 C243 1.392 . S
C244 C245 1.361 . S
C244 C246 1.500 . S
C245 C240 1.390 . S
C245 C244 1.361 . S
C245 H263 0.931 . S
C246 C244 1.500 . S
C246 C247 1.371 . S
C246 C248 1.365 . S
C247 C246 1.371 . S
C247 C257 1.386 . S
C247 H265 0.938 . S
C248 C246 1.365 . S
C248 C249 1.409 . S
C248 H266 0.929 . S
C249 C248 1.409 . S
C249 C250 1.380 . S
C249 H267 0.930 . S
C250 C249 1.380 . S
C250 C257 1.357 . S
C251 C242 1.511 . S
C251 C252 1.341 . S
C251 C253 1.371 . S
C252 C251 1.341 . S
C252 C256 1.394 . S
C252 H268 0.930 . S
C253 C251 1.371 . S
C253 C254 1.392 . S
C253 H269 0.931 . S
C254 C253 1.392 . S
C254 C255 1.331 . S
C254 H272 0.932 . S
C255 C254 1.331 . S
C255 C256 1.336 . S
C256 C252 1.394 . S
C256 C255 1.336 . S
C256 H271 0.929 . S
C257 C247 1.386 . S
C257 C250 1.357 . S
C257 H270 0.944 . S
H258 C234 0.931 1_655 S
H259 C236 0.930 1_655 S
H260 C238 0.929 . S
H261 C239 0.931 . S
H262 C241 0.930 . S
H263 C245 0.931 . S
H264 C243 0.931 . S
H265 C247 0.938 . S
H266 C248 0.929 . S
H267 C249 0.930 . S
H268 C252 0.930 . S
H269 C253 0.931 . S
H270 C257 0.944 . S
H271 C256 0.929 . S
H272 C254 0.932 . S
C273 C274 1.386 . S
C273 C275 1.397 . S
C273 H297 0.931 . S
C274 C273 1.386 . S
C274 C278 1.397 . S
C275 C273 1.397 . S
C275 C276 1.384 . S
C275 H298 0.930 . S
C276 C275 1.384 . S
C276 C277 1.377 . S
C276 C279 1.481 . S
C277 C276 1.377 . S
C277 C278 1.389 . S
C277 H299 0.929 . S
C278 C274 1.397 . S
C278 C277 1.389 . S
C278 H300 0.931 . S
C279 C276 1.481 . S
C279 C280 1.387 . S
C279 C284 1.390 . S
C280 C279 1.387 . S
C280 C281 1.401 . S
C280 H301 0.930 . S
C281 C280 1.401 . S
C281 C282 1.376 . S
C281 C290 1.511 . S
C282 C281 1.376 . S
C282 C283 1.392 . S
C282 H303 0.931 . S
C283 C282 1.392 . S
C283 C284 1.361 . S
C283 C285 1.500 . S
C284 C279 1.390 . S
C284 C283 1.361 . S
C284 H302 0.931 . S
C285 C283 1.500 . S
C285 C286 1.371 . S
C285 C287 1.365 . S
C286 C285 1.371 . S
C286 C296 1.386 . S
C286 H304 0.931 . S
C287 C285 1.365 . S
C287 C288 1.409 . S
C287 H305 0.929 . S
C288 C287 1.409 . S
C288 C289 1.380 . S
C288 H306 0.930 . S
C289 C288 1.380 . S
C289 C296 1.357 . S
C290 C281 1.511 . S
C290 C291 1.341 . S
C290 C292 1.371 . S
C291 C290 1.341 . S
C291 C295 1.394 . S
C291 H307 0.930 . S
C292 C290 1.371 . S
C292 C293 1.392 . S
C292 H308 0.931 . S
C293 C292 1.392 . S
C293 C294 1.331 . S
C293 H311 0.932 . S
C294 C293 1.331 . S
C294 C295 1.336 . S
C295 C291 1.394 . S
C295 C294 1.336 . S
C295 H310 0.929 . S
C296 C286 1.386 . S
C296 C289 1.357 . S
C296 H309 0.928 . S
H297 C273 0.931 . S
H298 C275 0.930 . S
H299 C277 0.929 . S
H300 C278 0.931 . S
H301 C280 0.930 . S
H302 C284 0.931 . S
H303 C282 0.931 . S
H304 C286 0.931 . S
H305 C287 0.929 . S
H306 C288 0.930 . S
H307 C291 0.930 . S
H308 C292 0.931 . S
H309 C296 0.928 . S
H310 C295 0.929 . S
H311 C293 0.932 . S
C312 C313 1.386 . S
C312 C314 1.397 . S
C312 H336 0.931 1_554 S
C313 C312 1.386 . S
C313 C317 1.397 . S
C314 C312 1.397 . S
C314 C315 1.384 . S
C314 H337 0.930 1_554 S
C315 C314 1.384 . S
C315 C316 1.377 . S
C315 C318 1.481 . S
C316 C315 1.377 . S
C316 C317 1.389 . S
C316 H338 0.929 . S
C317 C313 1.397 . S
C317 C316 1.389 . S
C317 H339 0.931 . S
C318 C315 1.481 . S
C318 C319 1.387 . S
C318 C323 1.390 . S
C319 C318 1.387 . S
C319 C320 1.401 . S
C319 H340 0.930 . S
C320 C319 1.401 . S
C320 C321 1.376 . S
C320 C329 1.511 . S
C321 C320 1.376 . S
C321 C322 1.392 . S
C321 H342 0.931 . S
C322 C321 1.392 . S
C322 C323 1.361 . S
C322 C324 1.500 . S
C323 C318 1.390 . S
C323 C322 1.361 . S
C323 H341 0.931 . S
C324 C322 1.500 . S
C324 C325 1.371 . S
C324 C326 1.365 . S
C325 C324 1.371 . S
C325 C335 1.386 . S
C325 H343 0.931 1_554 S
C326 C324 1.365 . S
C326 C327 1.409 . S
C326 H344 0.929 . S
C327 C326 1.409 . S
C327 C328 1.380 . S
C327 H345 0.930 . S
C328 C327 1.380 . S
C328 C335 1.357 . S
C329 C320 1.511 . S
C329 C330 1.341 . S
C329 C331 1.371 . S
C330 C329 1.341 . S
C330 C334 1.394 . S
C330 H346 0.930 . S
C331 C329 1.371 . S
C331 C332 1.392 . S
C331 H347 0.931 . S
C332 C331 1.392 . S
C332 C333 1.331 . S
C332 H350 0.932 . S
C333 C332 1.331 . S
C333 C334 1.336 . S
C334 C330 1.394 . S
C334 C333 1.336 . S
C334 H349 0.929 . S
C335 C325 1.386 . S
C335 C328 1.357 . S
C335 H348 0.928 1_554 S
H336 C312 0.931 1_556 S
H337 C314 0.930 1_556 S
H338 C316 0.929 . S
H339 C317 0.931 . S
H340 C319 0.930 . S
H341 C323 0.931 . S
H342 C321 0.931 . S
H343 C325 0.931 1_556 S
H344 C326 0.929 . S
H345 C327 0.930 . S
H346 C330 0.930 . S
H347 C331 0.931 . S
H348 C335 0.928 1_556 S
H349 C334 0.929 . S
H350 C332 0.932 . S
C351 C352 1.386 . S
C351 C353 1.397 . S
C351 H375 0.931 . S
C352 C351 1.386 . S
C352 C356 1.397 1_554 S
C353 C351 1.397 . S
C353 C354 1.384 . S
C353 H376 0.930 . S
C354 C353 1.384 . S
C354 C355 1.377 1_554 S
C354 C357 1.481 . S
C355 C354 1.377 1_556 S
C355 C356 1.389 . S
C355 H377 0.929 . S
C356 C352 1.397 1_556 S
C356 C355 1.389 . S
C356 H378 0.931 . S
C357 C354 1.481 . S
C357 C358 1.387 . S
C357 C362 1.390 . S
C358 C357 1.387 . S
C358 C359 1.401 . S
C358 H379 0.930 . S
C359 C358 1.401 . S
C359 C360 1.376 . S
C359 C368 1.511 . S
C360 C359 1.376 . S
C360 C361 1.392 . S
C360 H381 0.931 . S
C361 C360 1.392 . S
C361 C362 1.361 . S
C361 C363 1.500 . S
C362 C357 1.390 . S
C362 C361 1.361 . S
C362 H380 0.931 . S
C363 C361 1.500 . S
C363 C364 1.371 . S
C363 C365 1.383 . S
C364 C363 1.371 . S
C364 C374 1.386 . S
C364 H382 0.931 . S
C365 C363 1.383 . S
C365 C366 1.411 . S
C365 H383 0.910 1_554 S
C366 C365 1.411 . S
C366 C367 1.380 . S
C366 H384 0.930 1_554 S
C367 C366 1.380 . S
C367 C374 1.357 . S
C368 C359 1.511 . S
C368 C369 1.341 . S
C368 C370 1.371 . S
C369 C368 1.341 . S
C369 C373 1.394 . S
C369 H385 0.930 . S
C370 C368 1.371 . S
C370 C371 1.392 . S
C370 H386 0.931 . S
C371 C370 1.392 . S
C371 C372 1.331 . S
C371 H389 0.945 . S
C372 C371 1.331 . S
C372 C373 1.336 . S
C373 C369 1.394 . S
C373 C372 1.336 . S
C373 H388 0.929 . S
C374 C364 1.386 . S
C374 C367 1.357 . S
C374 H387 0.928 . S
H375 C351 0.931 . S
H376 C353 0.930 . S
H377 C355 0.929 . S
H378 C356 0.931 . S
H379 C358 0.930 . S
H380 C362 0.931 . S
H381 C360 0.931 . S
H382 C364 0.931 . S
H383 C365 0.910 1_556 S
H384 C366 0.930 1_556 S
H385 C369 0.930 . S
H386 C370 0.931 . S
H387 C374 0.928 . S
H388 C373 0.929 . S
H389 C371 0.945 . S
C390 C391 1.386 1_556 S
C390 C392 1.397 . S
C390 H414 0.931 . S
C391 C390 1.386 1_554 S
C391 C395 1.397 . S
C392 C390 1.397 . S
C392 C393 1.384 1_556 S
C392 H415 0.930 . S
C393 C392 1.384 1_554 S
C393 C394 1.377 . S
C393 C396 1.481 . S
C394 C393 1.377 . S
C394 C395 1.389 . S
C394 H416 0.929 . S
C395 C391 1.397 . S
C395 C394 1.389 . S
C395 H417 0.931 . S
C396 C393 1.481 . S
C396 C397 1.387 . S
C396 C401 1.390 . S
C397 C396 1.387 . S
C397 C398 1.401 . S
C397 H418 0.930 1_554 S
C398 C397 1.401 . S
C398 C399 1.376 . S
C398 C407 1.512 . S
C399 C398 1.376 . S
C399 C400 1.392 . S
C399 H420 0.932 . S
C400 C399 1.392 . S
C400 C401 1.361 . S
C400 C402 1.500 . S
C401 C396 1.390 . S
C401 C400 1.361 . S
C401 H419 0.931 . S
C402 C400 1.500 . S
C402 C403 1.371 1_554 S
C402 C404 1.365 . S
C403 C402 1.371 1_556 S
C403 C413 1.386 . S
C403 H421 0.931 . S
C404 C402 1.365 . S
C404 C405 1.409 . S
C404 H422 0.929 . S
C405 C404 1.409 . S
C405 C406 1.380 . S
C405 H423 0.930 . S
C406 C405 1.380 . S
C406 C413 1.357 1_554 S
C407 C398 1.512 . S
C407 C408 1.337 1_554 S
C407 C409 1.376 . S
C408 C407 1.337 1_556 S
C408 C412 1.394 . S
C408 H424 0.930 . S
C409 C407 1.376 . S
C409 C410 1.392 . S
C409 H425 0.931 . S
C410 C409 1.392 . S
C410 C411 1.331 . S
C410 H428 0.932 . S
C411 C410 1.331 . S
C411 C412 1.336 1_554 S
C412 C408 1.394 . S
C412 C411 1.336 1_556 S
C412 H427 0.929 . S
C413 C403 1.386 . S
C413 C406 1.357 1_556 S
C413 H426 0.928 . S
H414 C390 0.931 . S
H415 C392 0.930 . S
H416 C394 0.929 . S
H417 C395 0.931 . S
H418 C397 0.930 1_556 S
H419 C401 0.931 . S
H420 C399 0.932 . S
H421 C403 0.931 . S
H422 C404 0.929 . S
H423 C405 0.930 . S
H424 C408 0.930 . S
H425 C409 0.931 . S
H426 C413 0.928 . S
H427 C412 0.929 . S
H428 C410 0.932 . S
C429 C430 1.386 . S
C429 C431 1.397 . S
C429 H453 0.931 . S
C430 C429 1.386 . S
C430 C434 1.397 1_554 S
C431 C429 1.397 . S
C431 C432 1.384 . S
C431 H454 0.930 . S
C432 C431 1.384 . S
C432 C433 1.377 1_554 S
C432 C435 1.481 . S
C433 C432 1.377 1_556 S
C433 C434 1.389 . S
C433 H455 0.929 . S
C434 C430 1.397 1_556 S
C434 C433 1.389 . S
C434 H456 0.931 . S
C435 C432 1.481 . S
C435 C436 1.387 . S
C435 C440 1.390 . S
C436 C435 1.387 . S
C436 C437 1.401 . S
C436 H457 0.930 . S
C437 C436 1.401 . S
C437 C438 1.376 . S
C437 C446 1.511 . S
C438 C437 1.376 . S
C438 C439 1.392 . S
C438 H459 0.931 . S
C439 C438 1.392 . S
C439 C440 1.361 . S
C439 C441 1.500 . S
C440 C435 1.390 . S
C440 C439 1.361 . S
C440 H458 0.931 . S
C441 C439 1.500 . S
C441 C442 1.371 . S
C441 C443 1.365 1_554 S
C442 C441 1.371 . S
C442 C452 1.386 . S
C442 H460 0.931 . S
C443 C441 1.365 1_556 S
C443 C444 1.409 . S
C443 H461 0.929 . S
C444 C443 1.409 . S
C444 C445 1.380 1_556 S
C444 H462 0.930 . S
C445 C444 1.380 1_554 S
C445 C452 1.357 . S
C446 C437 1.511 . S
C446 C447 1.341 . S
C446 C448 1.371 1_554 S
C447 C446 1.341 . S
C447 C451 1.394 . S
C447 H463 0.930 . S
C448 C446 1.371 1_556 S
C448 C449 1.392 . S
C448 H464 0.931 . S
C449 C448 1.392 . S
C449 C450 1.331 1_556 S
C449 H467 0.932 . S
C450 C449 1.331 1_554 S
C450 C451 1.336 . S
C451 C447 1.394 . S
C451 C450 1.336 . S
C451 H466 0.929 . S
C452 C442 1.386 . S
C452 C445 1.357 . S
C452 H465 0.928 . S
H453 C429 0.931 . S
H454 C431 0.930 . S
H455 C433 0.929 . S
H456 C434 0.931 . S
H457 C436 0.930 . S
H458 C440 0.931 . S
H459 C438 0.931 . S
H460 C442 0.931 . S
H461 C443 0.929 . S
H462 C444 0.930 . S
H463 C447 0.930 . S
H464 C448 0.931 . S
H465 C452 0.928 . S
H466 C451 0.929 . S
H467 C449 0.932 . S
C468 C469 1.386 . S
C468 C470 1.397 . S
C468 H492 0.931 . S
C469 C468 1.386 . S
C469 C473 1.397 . S
C470 C468 1.397 . S
C470 C471 1.384 . S
C470 H493 0.930 . S
C471 C470 1.384 . S
C471 C472 1.377 . S
C471 C474 1.481 . S
C472 C471 1.377 . S
C472 C473 1.389 . S
C472 H494 0.929 . S
C473 C469 1.397 . S
C473 C472 1.389 . S
C473 H495 0.931 . S
C474 C471 1.481 . S
C474 C475 1.387 . S
C474 C479 1.390 . S
C475 C474 1.387 . S
C475 C476 1.401 . S
C475 H496 0.930 . S
C476 C475 1.401 . S
C476 C477 1.376 . S
C476 C485 1.511 . S
C477 C476 1.376 . S
C477 C478 1.392 . S
C477 H498 0.931 . S
C478 C477 1.392 . S
C478 C479 1.361 . S
C478 C480 1.500 . S
C479 C474 1.390 . S
C479 C478 1.361 . S
C479 H497 0.931 . S
C480 C478 1.500 . S
C480 C481 1.371 . S
C480 C482 1.365 . S
C481 C480 1.371 . S
C481 C491 1.386 . S
C481 H499 0.931 . S
C482 C480 1.365 . S
C482 C483 1.409 . S
C482 H500 0.929 . S
C483 C482 1.409 . S
C483 C484 1.380 . S
C483 H501 0.930 . S
C484 C483 1.380 . S
C484 C491 1.357 . S
C485 C476 1.511 . S
C485 C486 1.341 . S
C485 C487 1.371 . S
C486 C485 1.341 . S
C486 C490 1.394 . S
C486 H502 0.930 . S
C487 C485 1.371 . S
C487 C488 1.392 . S
C487 H503 0.931 . S
C488 C487 1.392 . S
C488 C489 1.331 . S
C488 H506 0.932 . S
C489 C488 1.331 . S
C489 C490 1.336 . S
C490 C486 1.394 . S
C490 C489 1.336 . S
C490 H505 0.929 . S
C491 C481 1.386 . S
C491 C484 1.357 . S
C491 H504 0.928 . S
H492 C468 0.931 . S
H493 C470 0.930 . S
H494 C472 0.929 . S
H495 C473 0.931 . S
H496 C475 0.930 . S
H497 C479 0.931 . S
H498 C477 0.931 . S
H499 C481 0.931 . S
H500 C482 0.929 . S
H501 C483 0.930 . S
H502 C486 0.930 . S
H503 C487 0.931 . S
H504 C491 0.928 . S
H505 C490 0.929 . S
H506 C488 0.932 . S
C507 C508 1.386 . S
C507 C509 1.397 . S
C507 H531 0.931 . S
C508 C507 1.386 . S
C508 C512 1.397 . S
C509 C507 1.397 . S
C509 C510 1.384 . S
C509 H532 0.930 . S
C510 C509 1.384 . S
C510 C511 1.377 . S
C510 C513 1.481 . S
C511 C510 1.377 . S
C511 C512 1.389 . S
C511 H533 0.929 . S
C512 C508 1.397 . S
C512 C511 1.389 . S
C512 H534 0.931 . S
C513 C510 1.481 . S
C513 C514 1.387 . S
C513 C518 1.390 . S
C514 C513 1.387 . S
C514 C515 1.401 . S
C514 H535 0.930 . S
C515 C514 1.401 . S
C515 C516 1.376 . S
C515 C524 1.511 . S
C516 C515 1.376 . S
C516 C517 1.392 . S
C516 H537 0.931 . S
C517 C516 1.392 . S
C517 C518 1.361 . S
C517 C519 1.500 . S
C518 C513 1.390 . S
C518 C517 1.361 . S
C518 H536 0.931 . S
C519 C517 1.500 . S
C519 C520 1.371 . S
C519 C521 1.365 . S
C520 C519 1.371 . S
C520 C530 1.386 . S
C520 H538 0.931 . S
C521 C519 1.365 . S
C521 C522 1.409 . S
C521 H539 0.929 . S
C522 C521 1.409 . S
C522 C523 1.380 . S
C522 H540 0.930 . S
C523 C522 1.380 . S
C523 C530 1.357 . S
C524 C515 1.511 . S
C524 C525 1.341 . S
C524 C526 1.371 . S
C525 C524 1.341 . S
C525 C529 1.394 . S
C525 H541 0.930 . S
C526 C524 1.371 . S
C526 C527 1.392 . S
C526 H542 0.931 . S
C527 C526 1.392 . S
C527 C528 1.331 . S
C527 H545 0.932 . S
C528 C527 1.331 . S
C528 C529 1.336 . S
C529 C525 1.394 . S
C529 C528 1.336 . S
C529 H544 0.929 . S
C530 C520 1.386 . S
C530 C523 1.357 . S
C530 H543 0.928 . S
H531 C507 0.931 . S
H532 C509 0.930 . S
H533 C511 0.929 . S
H534 C512 0.931 . S
H535 C514 0.930 . S
H536 C518 0.931 . S
H537 C516 0.931 . S
H538 C520 0.931 . S
H539 C521 0.929 . S
H540 C522 0.930 . S
H541 C525 0.930 . S
H542 C526 0.931 . S
H543 C530 0.928 . S
H544 C529 0.929 . S
H545 C527 0.932 . S
C546 C547 1.386 . S
C546 C548 1.397 . S
C546 H570 0.931 . S
C547 C546 1.386 . S
C547 C551 1.397 . S
C548 C546 1.397 . S
C548 C549 1.384 . S
C548 H571 0.930 . S
C549 C548 1.384 . S
C549 C550 1.377 . S
C549 C552 1.481 . S
C550 C549 1.377 . S
C550 C551 1.389 . S
C550 H572 0.929 . S
C551 C547 1.397 . S
C551 C550 1.389 . S
C551 H573 0.931 . S
C552 C549 1.481 . S
C552 C553 1.387 . S
C552 C557 1.390 . S
C553 C552 1.387 . S
C553 C554 1.401 . S
C553 H574 0.930 . S
C554 C553 1.401 . S
C554 C555 1.376 . S
C554 C563 1.511 . S
C555 C554 1.376 . S
C555 C556 1.392 . S
C555 H576 0.931 . S
C556 C555 1.392 . S
C556 C557 1.361 . S
C556 C558 1.500 . S
C557 C552 1.390 . S
C557 C556 1.361 . S
C557 H575 0.931 . S
C558 C556 1.500 . S
C558 C559 1.371 . S
C558 C560 1.365 . S
C559 C558 1.371 . S
C559 C569 1.386 . S
C559 H577 0.931 . S
C560 C558 1.365 . S
C560 C561 1.409 . S
C560 H578 0.929 . S
C561 C560 1.409 . S
C561 C562 1.380 . S
C561 H579 0.930 . S
C562 C561 1.380 . S
C562 C569 1.357 . S
C563 C554 1.511 . S
C563 C564 1.341 . S
C563 C565 1.371 . S
C564 C563 1.341 . S
C564 C568 1.394 . S
C564 H580 0.930 . S
C565 C563 1.371 . S
C565 C566 1.392 . S
C565 H581 0.931 . S
C566 C565 1.392 . S
C566 C567 1.331 . S
C566 H584 0.932 . S
C567 C566 1.331 . S
C567 C568 1.336 . S
C568 C564 1.394 . S
C568 C567 1.336 . S
C568 H583 0.929 . S
C569 C559 1.386 . S
C569 C562 1.357 . S
C569 H582 0.928 . S
H570 C546 0.931 . S
H571 C548 0.930 . S
H572 C550 0.929 . S
H573 C551 0.931 . S
H574 C553 0.930 . S
H575 C557 0.931 . S
H576 C555 0.931 . S
H577 C559 0.931 . S
H578 C560 0.929 . S
H579 C561 0.930 . S
H580 C564 0.930 . S
H581 C565 0.931 . S
H582 C569 0.928 . S
H583 C568 0.929 . S
H584 C566 0.932 . S
C585 C586 1.386 . S
C585 C587 1.397 . S
C585 H609 0.931 . S
C586 C585 1.386 . S
C586 C590 1.397 . S
C587 C585 1.397 . S
C587 C588 1.384 . S
C587 H610 0.930 . S
C588 C587 1.384 . S
C588 C589 1.377 . S
C588 C591 1.481 . S
C589 C588 1.377 . S
C589 C590 1.389 . S
C589 H611 0.929 . S
C590 C586 1.397 . S
C590 C589 1.389 . S
C590 H612 0.931 . S
C591 C588 1.481 . S
C591 C592 1.387 . S
C591 C596 1.390 . S
C592 C591 1.387 . S
C592 C593 1.401 . S
C592 H613 0.930 . S
C593 C592 1.401 . S
C593 C594 1.376 . S
C593 C602 1.511 . S
C594 C593 1.376 . S
C594 C595 1.392 . S
C594 H615 0.931 . S
C595 C594 1.392 . S
C595 C596 1.361 . S
C595 C597 1.500 . S
C596 C591 1.390 . S
C596 C595 1.361 . S
C596 H614 0.931 . S
C597 C595 1.500 . S
C597 C598 1.371 . S
C597 C599 1.365 . S
C598 C597 1.371 . S
C598 C608 1.386 . S
C598 H616 0.931 . S
C599 C597 1.365 . S
C599 C600 1.409 . S
C599 H617 0.929 . S
C600 C599 1.409 . S
C600 C601 1.380 . S
C600 H618 0.930 . S
C601 C600 1.380 . S
C601 C608 1.357 . S
C602 C593 1.511 . S
C602 C603 1.341 . S
C602 C604 1.371 . S
C603 C602 1.341 . S
C603 C607 1.394 . S
C603 H619 0.930 . S
C604 C602 1.371 . S
C604 C605 1.392 . S
C604 H620 0.931 . S
C605 C604 1.392 . S
C605 C606 1.331 . S
C605 H623 0.932 . S
C606 C605 1.331 . S
C606 C607 1.336 . S
C607 C603 1.394 . S
C607 C606 1.336 . S
C607 H622 0.929 . S
C608 C598 1.386 . S
C608 C601 1.357 . S
C608 H621 0.928 . S
H609 C585 0.931 . S
H610 C587 0.930 . S
H611 C589 0.929 . S
H612 C590 0.931 . S
H613 C592 0.930 . S
H614 C596 0.931 . S
H615 C594 0.931 . S
H616 C598 0.931 . S
H617 C599 0.929 . S
H618 C600 0.930 . S
H619 C603 0.930 . S
H620 C604 0.931 . S
H621 C608 0.928 . S
H622 C607 0.929 . S
H623 C605 0.932 . S
C624 C625 1.386 . S
C624 C626 1.397 . S
C624 H648 0.931 . S
C625 C624 1.386 . S
C625 C629 1.397 . S
C626 C624 1.397 . S
C626 C627 1.384 . S
C626 H649 0.930 . S
C627 C626 1.384 . S
C627 C628 1.377 . S
C627 C630 1.481 . S
C628 C627 1.377 . S
C628 C629 1.389 . S
C628 H650 0.929 . S
C629 C625 1.397 . S
C629 C628 1.389 . S
C629 H651 0.931 . S
C630 C627 1.481 . S
C630 C631 1.387 . S
C630 C635 1.390 . S
C631 C630 1.387 . S
C631 C632 1.401 . S
C631 H652 0.930 . S
C632 C631 1.401 . S
C632 C633 1.376 . S
C632 C641 1.511 . S
C633 C632 1.376 . S
C633 C634 1.392 . S
C633 H654 0.931 . S
C634 C633 1.392 . S
C634 C635 1.361 . S
C634 C636 1.500 . S
C635 C630 1.390 . S
C635 C634 1.361 . S
C635 H653 0.931 . S
C636 C634 1.500 . S
C636 C637 1.371 . S
C636 C638 1.365 . S
C637 C636 1.371 . S
C637 C647 1.386 . S
C637 H655 0.931 . S
C638 C636 1.365 . S
C638 C639 1.409 . S
C638 H656 0.929 . S
C639 C638 1.409 . S
C639 C640 1.380 . S
C639 H657 0.930 . S
C640 C639 1.380 . S
C640 C647 1.357 . S
C641 C632 1.511 . S
C641 C642 1.341 . S
C641 C643 1.371 . S
C642 C641 1.341 . S
C642 C646 1.394 . S
C642 H658 0.930 . S
C643 C641 1.371 . S
C643 C644 1.392 . S
C643 H659 0.931 . S
C644 C643 1.392 . S
C644 C645 1.331 . S
C644 H662 0.932 . S
C645 C644 1.331 . S
C645 C646 1.336 . S
C646 C642 1.394 . S
C646 C645 1.336 . S
C646 H661 0.929 . S
C647 C637 1.386 . S
C647 C640 1.357 . S
C647 H660 0.928 . S
H648 C624 0.931 . S
H649 C626 0.930 . S
H650 C628 0.929 . S
H651 C629 0.931 . S
H652 C631 0.930 . S
H653 C635 0.931 . S
H654 C633 0.931 . S
H655 C637 0.931 . S
H656 C638 0.929 . S
H657 C639 0.930 . S
H658 C642 0.930 . S
H659 C643 0.931 . S
H660 C647 0.928 . S
H661 C646 0.929 . S
H662 C644 0.932 . S
C663 C664 1.386 . S
C663 C665 1.397 . S
C663 H687 0.931 . S
C664 C663 1.386 . S
C664 C668 1.397 . S
C665 C663 1.397 . S
C665 C666 1.384 . S
C665 H688 0.930 . S
C666 C665 1.384 . S
C666 C667 1.377 . S
C666 C669 1.481 . S
C667 C666 1.377 . S
C667 C668 1.389 . S
C667 H689 0.929 . S
C668 C664 1.397 . S
C668 C667 1.389 . S
C668 H690 0.931 . S
C669 C666 1.481 . S
C669 C670 1.387 . S
C669 C674 1.390 . S
C670 C669 1.387 . S
C670 C671 1.401 . S
C670 H691 0.930 . S
C671 C670 1.401 . S
C671 C672 1.376 . S
C671 C680 1.511 . S
C672 C671 1.376 . S
C672 C673 1.392 . S
C672 H693 0.931 . S
C673 C672 1.392 . S
C673 C674 1.361 . S
C673 C675 1.500 . S
C674 C669 1.390 . S
C674 C673 1.361 . S
C674 H692 0.931 . S
C675 C673 1.500 . S
C675 C676 1.371 . S
C675 C677 1.365 . S
C676 C675 1.371 . S
C676 C686 1.386 . S
C676 H694 0.931 . S
C677 C675 1.365 . S
C677 C678 1.409 . S
C677 H695 0.929 . S
C678 C677 1.409 . S
C678 C679 1.380 . S
C678 H696 0.930 . S
C679 C678 1.380 . S
C679 C686 1.357 . S
C680 C671 1.511 . S
C680 C681 1.341 . S
C680 C682 1.371 . S
C681 C680 1.341 . S
C681 C685 1.394 . S
C681 H697 0.930 . S
C682 C680 1.371 . S
C682 C683 1.392 . S
C682 H698 0.931 . S
C683 C682 1.392 . S
C683 C684 1.331 . S
C683 H701 0.932 . S
C684 C683 1.331 . S
C684 C685 1.336 . S
C685 C681 1.394 . S
C685 C684 1.336 . S
C685 H700 0.929 . S
C686 C676 1.386 . S
C686 C679 1.357 . S
C686 H699 0.928 . S
H687 C663 0.931 . S
H688 C665 0.930 . S
H689 C667 0.929 . S
H690 C668 0.931 . S
H691 C670 0.930 . S
H692 C674 0.931 . S
H693 C672 0.931 . S
H694 C676 0.931 . S
H695 C677 0.929 . S
H696 C678 0.930 . S
H697 C681 0.930 . S
H698 C682 0.931 . S
H699 C686 0.928 . S
H700 C685 0.929 . S
H701 C683 0.932 . S
C702 C703 1.386 . S
C702 C704 1.397 . S
C702 H726 0.931 . S
C703 C702 1.386 . S
C703 C707 1.397 . S
C704 C702 1.397 . S
C704 C705 1.384 . S
C704 H727 0.930 . S
C705 C704 1.384 . S
C705 C706 1.377 . S
C705 C708 1.481 . S
C706 C705 1.377 . S
C706 C707 1.389 . S
C706 H728 0.929 . S
C707 C703 1.397 . S
C707 C706 1.389 . S
C707 H729 0.931 . S
C708 C705 1.481 . S
C708 C709 1.387 . S
C708 C713 1.390 . S
C709 C708 1.387 . S
C709 C710 1.401 . S
C709 H730 0.930 . S
C710 C709 1.401 . S
C710 C711 1.376 . S
C710 C719 1.511 . S
C711 C710 1.376 . S
C711 C712 1.392 . S
C711 H732 0.931 . S
C712 C711 1.392 . S
C712 C713 1.361 . S
C712 C714 1.500 . S
C713 C708 1.390 . S
C713 C712 1.361 . S
C713 H731 0.931 . S
C714 C712 1.500 . S
C714 C715 1.371 . S
C714 C716 1.365 . S
C715 C714 1.371 . S
C715 C725 1.386 . S
C715 H733 0.931 . S
C716 C714 1.365 . S
C716 C717 1.409 . S
C716 H734 0.929 . S
C717 C716 1.409 . S
C717 C718 1.380 . S
C717 H735 0.930 . S
C718 C717 1.380 . S
C718 C725 1.357 . S
C719 C710 1.511 . S
C719 C720 1.341 . S
C719 C721 1.371 . S
C720 C719 1.341 . S
C720 C724 1.394 . S
C720 H736 0.930 . S
C721 C719 1.371 . S
C721 C722 1.392 . S
C721 H737 0.931 . S
C722 C721 1.392 . S
C722 C723 1.331 . S
C722 H740 0.932 . S
C723 C722 1.331 . S
C723 C724 1.336 . S
C724 C720 1.394 . S
C724 C723 1.336 . S
C724 H739 0.929 . S
C725 C715 1.386 . S
C725 C718 1.357 . S
C725 H738 0.928 . S
H726 C702 0.931 . S
H727 C704 0.930 . S
H728 C706 0.929 . S
H729 C707 0.931 . S
H730 C709 0.930 . S
H731 C713 0.931 . S
H732 C711 0.931 . S
H733 C715 0.931 . S
H734 C716 0.929 . S
H735 C717 0.930 . S
H736 C720 0.930 . S
H737 C721 0.931 . S
H738 C725 0.928 . S
H739 C724 0.929 . S
H740 C722 0.932 . S
C741 C742 1.386 . S
C741 C743 1.397 . S
C741 H765 0.931 . S
C742 C741 1.386 . S
C742 C746 1.397 . S
C743 C741 1.397 . S
C743 C744 1.384 . S
C743 H766 0.930 . S
C744 C743 1.384 . S
C744 C745 1.377 . S
C744 C747 1.481 . S
C745 C744 1.377 . S
C745 C746 1.389 . S
C745 H767 0.929 . S
C746 C742 1.397 . S
C746 C745 1.389 . S
C746 H768 0.931 . S
C747 C744 1.481 . S
C747 C748 1.387 . S
C747 C752 1.390 . S
C748 C747 1.387 . S
C748 C749 1.401 . S
C748 H769 0.930 . S
C749 C748 1.401 . S
C749 C750 1.376 . S
C749 C758 1.511 . S
C750 C749 1.376 . S
C750 C751 1.392 . S
C750 H771 0.931 . S
C751 C750 1.392 . S
C751 C752 1.361 . S
C751 C753 1.500 . S
C752 C747 1.390 . S
C752 C751 1.361 . S
C752 H770 0.931 . S
C753 C751 1.500 . S
C753 C754 1.371 . S
C753 C755 1.365 . S
C754 C753 1.371 . S
C754 C764 1.386 . S
C754 H772 0.931 . S
C755 C753 1.365 . S
C755 C756 1.409 . S
C755 H773 0.929 . S
C756 C755 1.409 . S
C756 C757 1.380 . S
C756 H774 0.930 . S
C757 C756 1.380 . S
C757 C764 1.357 . S
C758 C749 1.511 . S
C758 C759 1.341 . S
C758 C760 1.371 . S
C759 C758 1.341 . S
C759 C763 1.394 . S
C759 H775 0.930 . S
C760 C758 1.371 . S
C760 C761 1.392 . S
C760 H776 0.931 . S
C761 C760 1.392 . S
C761 C762 1.331 . S
C761 H779 0.932 . S
C762 C761 1.331 . S
C762 C763 1.336 . S
C763 C759 1.394 . S
C763 C762 1.336 . S
C763 H778 0.929 . S
C764 C754 1.386 . S
C764 C757 1.357 . S
C764 H777 0.928 . S
H765 C741 0.931 . S
H766 C743 0.930 . S
H767 C745 0.929 . S
H768 C746 0.931 . S
H769 C748 0.930 . S
H770 C752 0.931 . S
H771 C750 0.931 . S
H772 C754 0.931 . S
H773 C755 0.929 . S
H774 C756 0.930 . S
H775 C759 0.930 . S
H776 C760 0.931 . S
H777 C764 0.928 . S
H778 C763 0.929 . S
H779 C761 0.932 . S
C780 C781 1.386 . S
C780 C782 1.397 . S
C780 H804 0.931 . S
C781 C780 1.386 . S
C781 C785 1.397 . S
C782 C780 1.397 . S
C782 C783 1.384 . S
C782 H805 0.930 . S
C783 C782 1.384 . S
C783 C784 1.377 . S
C783 C786 1.481 . S
C784 C783 1.377 . S
C784 C785 1.389 . S
C784 H806 0.929 . S
C785 C781 1.397 . S
C785 C784 1.389 . S
C785 H807 0.931 . S
C786 C783 1.481 . S
C786 C787 1.387 . S
C786 C791 1.390 . S
C787 C786 1.387 . S
C787 C788 1.401 . S
C787 H808 0.930 . S
C788 C787 1.401 . S
C788 C789 1.376 . S
C788 C797 1.511 . S
C789 C788 1.376 . S
C789 C790 1.392 . S
C789 H810 0.931 . S
C790 C789 1.392 . S
C790 C791 1.361 . S
C790 C792 1.500 . S
C791 C786 1.390 . S
C791 C790 1.361 . S
C791 H809 0.931 . S
C792 C790 1.500 . S
C792 C793 1.371 . S
C792 C794 1.365 . S
C793 C792 1.371 . S
C793 C803 1.386 . S
C793 H811 0.931 . S
C794 C792 1.365 . S
C794 C795 1.409 . S
C794 H812 0.929 . S
C795 C794 1.409 . S
C795 C796 1.380 . S
C795 H813 0.930 . S
C796 C795 1.380 . S
C796 C803 1.357 . S
C797 C788 1.511 . S
C797 C798 1.341 . S
C797 C799 1.371 . S
C798 C797 1.341 . S
C798 C802 1.394 . S
C798 H814 0.930 . S
C799 C797 1.371 . S
C799 C800 1.392 . S
C799 H815 0.931 . S
C800 C799 1.392 . S
C800 C801 1.331 . S
C800 H818 0.932 . S
C801 C800 1.331 . S
C801 C802 1.336 . S
C802 C798 1.394 . S
C802 C801 1.336 . S
C802 H817 0.929 . S
C803 C793 1.386 . S
C803 C796 1.357 . S
C803 H816 0.928 . S
H804 C780 0.931 . S
H805 C782 0.930 . S
H806 C784 0.929 . S
H807 C785 0.931 . S
H808 C787 0.930 . S
H809 C791 0.931 . S
H810 C789 0.931 . S
H811 C793 0.931 . S
H812 C794 0.929 . S
H813 C795 0.930 . S
H814 C798 0.930 . S
H815 C799 0.931 . S
H816 C803 0.928 . S
H817 C802 0.929 . S
H818 C800 0.932 . S
C819 C820 1.386 . S
C819 C821 1.397 . S
C819 H843 0.931 . S
C820 C819 1.386 . S
C820 C824 1.397 . S
C821 C819 1.397 . S
C821 C822 1.384 . S
C821 H844 0.930 . S
C822 C821 1.384 . S
C822 C823 1.377 . S
C822 C825 1.481 . S
C823 C822 1.377 . S
C823 C824 1.389 . S
C823 H845 0.929 . S
C824 C820 1.397 . S
C824 C823 1.389 . S
C824 H846 0.931 . S
C825 C822 1.481 . S
C825 C826 1.387 . S
C825 C830 1.390 . S
C826 C825 1.387 . S
C826 C827 1.401 . S
C826 H847 0.930 . S
C827 C826 1.401 . S
C827 C828 1.376 . S
C827 C836 1.511 . S
C828 C827 1.376 . S
C828 C829 1.392 . S
C828 H849 0.931 . S
C829 C828 1.392 . S
C829 C830 1.361 . S
C829 C831 1.500 . S
C830 C825 1.390 . S
C830 C829 1.361 . S
C830 H848 0.931 . S
C831 C829 1.500 . S
C831 C832 1.371 . S
C831 C833 1.365 . S
C832 C831 1.371 . S
C832 C842 1.386 . S
C832 H850 0.931 . S
C833 C831 1.365 . S
C833 C834 1.409 . S
C833 H851 0.929 . S
C834 C833 1.409 . S
C834 C835 1.380 . S
C834 H852 0.930 . S
C835 C834 1.380 . S
C835 C842 1.357 . S
C836 C827 1.511 . S
C836 C837 1.341 . S
C836 C838 1.371 . S
C837 C836 1.341 . S
C837 C841 1.394 . S
C837 H853 0.930 . S
C838 C836 1.371 . S
C838 C839 1.392 . S
C838 H854 0.931 . S
C839 C838 1.392 . S
C839 C840 1.331 . S
C839 H857 0.932 . S
C840 C839 1.331 . S
C840 C841 1.336 . S
C841 C837 1.394 . S
C841 C840 1.336 . S
C841 H856 0.929 . S
C842 C832 1.386 . S
C842 C835 1.357 . S
C842 H855 0.928 . S
H843 C819 0.931 . S
H844 C821 0.930 . S
H845 C823 0.929 . S
H846 C824 0.931 . S
H847 C826 0.930 . S
H848 C830 0.931 . S
H849 C828 0.931 . S
H850 C832 0.931 . S
H851 C833 0.929 . S
H852 C834 0.930 . S
H853 C837 0.930 . S
H854 C838 0.931 . S
H855 C842 0.928 . S
H856 C841 0.929 . S
H857 C839 0.932 . S
C858 C859 1.386 . S
C858 C860 1.397 . S
C858 H882 0.931 . S
C859 C858 1.386 . S
C859 C863 1.397 . S
C860 C858 1.397 . S
C860 C861 1.384 . S
C860 H883 0.930 . S
C861 C860 1.384 . S
C861 C862 1.377 . S
C861 C864 1.481 . S
C862 C861 1.377 . S
C862 C863 1.389 . S
C862 H884 0.929 . S
C863 C859 1.397 . S
C863 C862 1.389 . S
C863 H885 0.931 . S
C864 C861 1.481 . S
C864 C865 1.387 . S
C864 C869 1.390 . S
C865 C864 1.387 . S
C865 C866 1.401 . S
C865 H886 0.930 . S
C866 C865 1.401 . S
C866 C867 1.376 . S
C866 C875 1.511 . S
C867 C866 1.376 . S
C867 C868 1.392 . S
C867 H888 0.931 . S
C868 C867 1.392 . S
C868 C869 1.361 . S
C868 C870 1.500 . S
C869 C864 1.390 . S
C869 C868 1.361 . S
C869 H887 0.931 . S
C870 C868 1.500 . S
C870 C871 1.371 . S
C870 C872 1.365 . S
C871 C870 1.371 . S
C871 C881 1.386 . S
C871 H889 0.931 . S
C872 C870 1.365 . S
C872 C873 1.409 . S
C872 H890 0.929 . S
C873 C872 1.409 . S
C873 C874 1.380 . S
C873 H891 0.930 . S
C874 C873 1.380 . S
C874 C881 1.357 . S
C875 C866 1.511 . S
C875 C876 1.341 . S
C875 C877 1.371 . S
C876 C875 1.341 . S
C876 C880 1.394 . S
C876 H892 0.930 . S
C877 C875 1.371 . S
C877 C878 1.392 . S
C877 H893 0.931 . S
C878 C877 1.392 . S
C878 C879 1.331 . S
C878 H896 0.932 . S
C879 C878 1.331 . S
C879 C880 1.336 . S
C880 C876 1.394 . S
C880 C879 1.336 . S
C880 H895 0.929 . S
C881 C871 1.386 . S
C881 C874 1.357 . S
C881 H894 0.928 . S
H882 C858 0.931 . S
H883 C860 0.930 . S
H884 C862 0.929 . S
H885 C863 0.931 . S
H886 C865 0.930 . S
H887 C869 0.931 . S
H888 C867 0.931 . S
H889 C871 0.931 . S
H890 C872 0.929 . S
H891 C873 0.930 . S
H892 C876 0.930 . S
H893 C877 0.931 . S
H894 C881 0.928 . S
H895 C880 0.929 . S
H896 C878 0.932 . S
C897 C898 1.386 . S
C897 C899 1.397 . S
C897 H921 0.931 . S
C898 C897 1.386 . S
C898 C902 1.397 . S
C899 C897 1.397 . S
C899 C900 1.384 . S
C899 H922 0.930 . S
C900 C899 1.384 . S
C900 C901 1.377 . S
C900 C903 1.481 . S
C901 C900 1.377 . S
C901 C902 1.389 . S
C901 H923 0.929 . S
C902 C898 1.397 . S
C902 C901 1.389 . S
C902 H924 0.931 . S
C903 C900 1.481 . S
C903 C904 1.387 . S
C903 C908 1.390 . S
C904 C903 1.387 . S
C904 C905 1.401 . S
C904 H925 0.930 . S
C905 C904 1.401 . S
C905 C906 1.376 . S
C905 C914 1.511 . S
C906 C905 1.376 . S
C906 C907 1.392 . S
C906 H927 0.931 . S
C907 C906 1.392 . S
C907 C908 1.361 . S
C907 C909 1.500 . S
C908 C903 1.390 . S
C908 C907 1.361 . S
C908 H926 0.931 . S
C909 C907 1.500 . S
C909 C910 1.371 . S
C909 C911 1.365 . S
C910 C909 1.371 . S
C910 C920 1.386 . S
C910 H928 0.931 . S
C911 C909 1.365 . S
C911 C912 1.409 . S
C911 H929 0.929 . S
C912 C911 1.409 . S
C912 C913 1.380 . S
C912 H930 0.930 . S
C913 C912 1.380 . S
C913 C920 1.357 . S
C914 C905 1.511 . S
C914 C915 1.341 . S
C914 C916 1.371 . S
C915 C914 1.341 . S
C915 C919 1.394 . S
C915 H931 0.930 . S
C916 C914 1.371 . S
C916 C917 1.392 . S
C916 H932 0.931 . S
C917 C916 1.392 . S
C917 C918 1.331 . S
C917 H935 0.932 . S
C918 C917 1.331 . S
C918 C919 1.336 . S
C919 C915 1.394 . S
C919 C918 1.336 . S
C919 H934 0.929 . S
C920 C910 1.386 . S
C920 C913 1.357 . S
C920 H933 0.928 . S
H921 C897 0.931 . S
H922 C899 0.930 . S
H923 C901 0.929 . S
H924 C902 0.931 . S
H925 C904 0.930 . S
H926 C908 0.931 . S
H927 C906 0.931 . S
H928 C910 0.931 . S
H929 C911 0.929 . S
H930 C912 0.930 . S
H931 C915 0.930 . S
H932 C916 0.931 . S
H933 C920 0.928 . S
H934 C919 0.929 . S
H935 C917 0.932 . S
Zn936 O938 1.933 1_565 S
Zn936 O956 1.990 . S
Zn936 O967 1.955 . S
Zn937 O938 1.911 . S
Zn937 O957 1.970 . S
Zn937 O973 1.945 . S
Zn937 O980 1.981 . S
O938 Zn936 1.933 1_545 S
O938 Zn937 1.911 . S
O938 H939 0.841 1_655 S
H939 O938 0.841 1_455 S
C940 O941 1.246 . S
C940 O969 1.276 . S
O941 C940 1.246 . S
Zn942 O944 1.911 . S
Zn942 O959 1.970 . S
Zn942 O976 1.945 . S
Zn942 O983 1.981 . S
Zn943 O944 1.933 1_565 S
Zn943 O958 1.985 . S
Zn943 O965 1.955 . S
O944 Zn942 1.911 . S
O944 Zn943 1.933 1_545 S
O944 H945 0.841 . S
H945 O944 0.841 . S
Zn946 O947 1.933 1_565 S
Zn946 O960 1.988 . S
Zn946 O969 1.955 . S
O947 Zn946 1.933 1_545 S
O947 Zn948 1.911 . S
O947 H949 0.841 . S
Zn948 O947 1.911 . S
Zn948 O961 1.970 . S
Zn948 O977 1.981 1_655 S
Zn948 O979 1.945 . S
H949 O947 0.841 . S
Zn950 O951 1.933 1_565 S
Zn950 O963 1.985 . S
Zn950 O971 1.955 . S
O951 Zn950 1.933 1_545 S
O951 H952 0.841 . S
O951 Zn953 1.911 . S
H952 O951 0.841 . S
Zn953 O951 1.911 . S
Zn953 O964 1.970 . S
Zn953 O974 1.981 . S
Zn953 O982 1.945 . S
C954 O955 1.246 . S
C954 O971 1.276 . S
O955 C954 1.246 . S
O956 Zn936 1.990 . S
O956 C966 1.224 1_565 S
O957 Zn937 1.970 . S
O957 C966 1.263 . S
O958 Zn943 1.985 . S
O958 C970 1.245 1_565 S
O959 Zn942 1.970 . S
O959 C970 1.263 . S
O960 Zn946 1.988 . S
O960 C975 1.231 1_565 S
O961 Zn948 1.970 . S
O961 C975 1.263 . S
C962 O973 1.262 1_455 S
C962 O974 1.245 . S
O963 Zn950 1.985 . S
O963 C981 1.245 1_565 S
O964 Zn953 1.970 . S
O964 C981 1.263 . S
O965 Zn943 1.955 . S
O965 C984 1.276 . S
C966 O956 1.224 1_545 S
C966 O957 1.263 . S
O967 Zn936 1.955 . S
O967 C986 1.276 1_655 S
C968 O976 1.262 . S
C968 O977 1.245 . S
O969 C940 1.276 . S
O969 Zn946 1.955 . S
C970 O958 1.245 1_545 S
C970 O959 1.263 . S
O971 Zn950 1.955 . S
O971 C954 1.276 . S
C972 O979 1.262 . S
C972 O980 1.245 . S
O973 Zn937 1.945 . S
O973 C962 1.262 1_655 S
O974 Zn953 1.981 . S
O974 C962 1.245 . S
C975 O960 1.231 1_545 S
C975 O961 1.263 . S
O976 Zn942 1.945 . S
O976 C968 1.262 . S
O977 Zn948 1.981 1_455 S
O977 C968 1.245 . S
C978 O982 1.262 . S
C978 O983 1.245 . S
O979 Zn948 1.945 . S
O979 C972 1.262 . S
O980 Zn937 1.981 . S
O980 C972 1.245 . S
C981 O963 1.245 1_545 S
C981 O964 1.263 . S
O982 Zn953 1.945 . S
O982 C978 1.262 . S
O983 Zn942 1.981 . S
O983 C978 1.245 . S
C984 O965 1.276 . S
C984 O985 1.246 . S
O985 C984 1.246 . S
C986 O967 1.276 1_455 S
C986 O987 1.246 . S
O987 C986 1.246 . S
Zn988 O990 1.933 . S
Zn988 O1008 1.985 . S
Zn988 O1019 1.955 . S
Zn989 O990 1.911 1_556 S
Zn989 O1009 1.970 . S
Zn989 O1025 1.945 . S
Zn989 O1032 1.981 . S
O990 Zn988 1.933 . S
O990 Zn989 1.911 1_554 S
O990 H991 0.841 . S
H991 O990 0.841 . S
C992 O993 1.246 . S
C992 O1021 1.276 . S
O993 C992 1.246 . S
Zn994 O996 1.911 1_556 S
Zn994 O1011 1.970 . S
Zn994 O1028 1.945 . S
Zn994 O1035 1.981 . S
Zn995 O996 1.933 . S
Zn995 O1010 1.985 . S
Zn995 O1017 1.955 . S
O996 Zn994 1.911 1_554 S
O996 Zn995 1.933 . S
O996 H997 0.841 1_565 S
H997 O996 0.841 1_545 S
Zn998 O999 1.933 . S
Zn998 O1012 1.985 . S
Zn998 O1021 1.955 . S
O999 Zn998 1.933 . S
O999 Zn1000 1.911 1_554 S
O999 H1001 0.841 . S
Zn1000 O999 1.911 1_556 S
Zn1000 O1013 1.970 . S
Zn1000 O1029 1.981 . S
Zn1000 O1031 1.945 . S
H1001 O999 0.841 . S
Zn1002 O1003 1.933 . S
Zn1002 O1015 1.985 . S
Zn1002 O1023 1.955 . S
O1003 Zn1002 1.933 . S
O1003 H1004 0.841 . S
O1003 Zn1005 1.911 1_554 S
H1004 O1003 0.841 . S
Zn1005 O1003 1.911 1_556 S
Zn1005 O1016 1.970 . S
Zn1005 O1026 1.981 1_565 S
Zn1005 O1034 1.945 . S
C1006 O1007 1.246 . S
C1006 O1023 1.276 . S
O1007 C1006 1.246 . S
O1008 Zn988 1.985 . S
O1008 C1018 1.245 . S
O1009 Zn989 1.970 . S
O1009 C1018 1.263 1_556 S
O1010 Zn995 1.985 . S
O1010 C1022 1.245 . S
O1011 Zn994 1.970 . S
O1011 C1022 1.263 1_556 S
O1012 Zn998 1.985 . S
O1012 C1027 1.245 . S
O1013 Zn1000 1.970 . S
O1013 C1027 1.263 1_556 S
C1014 O1025 1.262 . S
C1014 O1026 1.245 . S
O1015 Zn1002 1.985 . S
O1015 C1033 1.245 . S
O1016 Zn1005 1.970 . S
O1016 C1033 1.263 1_556 S
O1017 Zn995 1.955 . S
O1017 C1036 1.276 1_565 S
C1018 O1008 1.245 . S
C1018 O1009 1.263 1_554 S
O1019 Zn988 1.955 . S
O1019 C1038 1.276 . S
C1020 O1028 1.262 1_545 S
C1020 O1029 1.245 . S
O1021 C992 1.276 . S
O1021 Zn998 1.955 . S
C1022 O1010 1.245 . S
C1022 O1011 1.263 1_554 S
O1023 Zn1002 1.955 . S
O1023 C1006 1.276 . S
C1024 O1031 1.262 . S
C1024 O1032 1.245 . S
O1025 Zn989 1.945 . S
O1025 C1014 1.262 . S
O1026 Zn1005 1.981 1_545 S
O1026 C1014 1.245 . S
C1027 O1012 1.245 . S
C1027 O1013 1.263 1_554 S
O1028 Zn994 1.945 . S
O1028 C1020 1.262 1_565 S
O1029 Zn1000 1.981 . S
O1029 C1020 1.245 . S
C1030 O1034 1.262 . S
C1030 O1035 1.245 . S
O1031 Zn1000 1.945 . S
O1031 C1024 1.262 . S
O1032 Zn989 1.981 . S
O1032 C1024 1.245 . S
C1033 O1015 1.245 . S
C1033 O1016 1.263 1_554 S
O1034 Zn1005 1.945 . S
O1034 C1030 1.262 . S
O1035 Zn994 1.981 . S
O1035 C1030 1.245 . S
C1036 O1017 1.276 1_545 S
C1036 O1037 1.246 . S
O1037 C1036 1.246 . S
C1038 O1019 1.276 . S
C1038 O1039 1.246 . S
O1039 C1038 1.246 . S
Zn1040 O1042 1.933 . S
Zn1040 O1060 1.985 . S
Zn1040 O1071 1.955 . S
Zn1041 O1042 1.911 . S
Zn1041 O1061 1.970 . S
Zn1041 O1077 1.945 . S
Zn1041 O1084 1.981 . S
O1042 Zn1040 1.933 . S
O1042 Zn1041 1.911 . S
O1042 H1043 0.841 1_655 S
H1043 O1042 0.841 1_455 S
C1044 O1045 1.246 1_554 S
C1044 O1073 1.276 . S
O1045 C1044 1.246 1_556 S
Zn1046 O1048 1.911 . S
Zn1046 O1063 1.970 . S
Zn1046 O1080 1.945 . S
Zn1046 O1087 1.981 . S
Zn1047 O1048 1.933 . S
Zn1047 O1062 1.985 . S
Zn1047 O1069 1.955 . S
O1048 Zn1046 1.911 . S
O1048 Zn1047 1.933 . S
O1048 H1049 0.841 . S
H1049 O1048 0.841 . S
Zn1050 O1051 1.933 . S
Zn1050 O1064 1.985 . S
Zn1050 O1073 1.955 . S
O1051 Zn1050 1.933 . S
O1051 Zn1052 1.911 . S
O1051 H1053 0.841 . S
Zn1052 O1051 1.911 . S
Zn1052 O1065 1.970 . S
Zn1052 O1081 1.981 1_655 S
Zn1052 O1083 1.945 . S
H1053 O1051 0.841 . S
Zn1054 O1055 1.933 . S
Zn1054 O1067 1.985 . S
Zn1054 O1075 1.955 . S
O1055 Zn1054 1.933 . S
O1055 H1056 0.841 1_556 S
O1055 Zn1057 1.911 . S
H1056 O1055 0.841 1_554 S
Zn1057 O1055 1.911 . S
Zn1057 O1068 1.970 . S
Zn1057 O1078 1.981 . S
Zn1057 O1086 1.945 . S
C1058 O1059 1.246 . S
C1058 O1075 1.276 1_554 S
O1059 C1058 1.246 . S
O1060 Zn1040 1.985 . S
O1060 C1070 1.245 . S
O1061 Zn1041 1.970 . S
O1061 C1070 1.263 . S
O1062 Zn1047 1.985 . S
O1062 C1074 1.245 . S
O1063 Zn1046 1.970 . S
O1063 C1074 1.263 . S
O1064 Zn1050 1.985 . S
O1064 C1079 1.245 . S
O1065 Zn1052 1.970 . S
O1065 C1079 1.263 . S
C1066 O1077 1.262 1_455 S
C1066 O1078 1.245 . S
O1067 Zn1054 1.985 . S
O1067 C1085 1.245 . S
O1068 Zn1057 1.970 . S
O1068 C1085 1.263 . S
O1069 Zn1047 1.955 . S
O1069 C1088 1.276 . S
C1070 O1060 1.245 . S
C1070 O1061 1.263 . S
O1071 Zn1040 1.955 . S
O1071 C1090 1.276 1_655 S
C1072 O1080 1.262 . S
C1072 O1081 1.245 . S
O1073 C1044 1.276 . S
O1073 Zn1050 1.955 . S
C1074 O1062 1.245 . S
C1074 O1063 1.263 . S
O1075 Zn1054 1.955 . S
O1075 C1058 1.276 1_556 S
C1076 O1083 1.262 . S
C1076 O1084 1.245 1_554 S
O1077 Zn1041 1.945 . S
O1077 C1066 1.262 1_655 S
O1078 Zn1057 1.981 . S
O1078 C1066 1.245 . S
C1079 O1064 1.245 . S
C1079 O1065 1.263 . S
O1080 Zn1046 1.945 . S
O1080 C1072 1.262 . S
O1081 Zn1052 1.981 1_455 S
O1081 C1072 1.245 . S
C1082 O1086 1.262 1_554 S
C1082 O1087 1.245 . S
O1083 Zn1052 1.945 . S
O1083 C1076 1.262 . S
O1084 Zn1041 1.981 . S
O1084 C1076 1.245 1_556 S
C1085 O1067 1.245 . S
C1085 O1068 1.263 . S
O1086 Zn1057 1.945 . S
O1086 C1082 1.262 1_556 S
O1087 Zn1046 1.981 . S
O1087 C1082 1.245 . S
C1088 O1069 1.276 . S
C1088 O1089 1.246 . S
O1089 C1088 1.246 . S
C1090 O1071 1.276 1_455 S
C1090 O1091 1.246 . S
O1091 C1090 1.246 . S
Zn1092 O1094 1.933 1_556 S
Zn1092 O1112 1.985 . S
Zn1092 O1123 1.955 . S
Zn1093 O1094 1.911 . S
Zn1093 O1113 1.970 . S
Zn1093 O1129 1.945 . S
Zn1093 O1136 1.981 . S
O1094 Zn1092 1.933 1_554 S
O1094 Zn1093 1.911 . S
O1094 H1095 0.841 . S
H1095 O1094 0.841 . S
C1096 O1097 1.246 . S
C1096 O1125 1.276 . S
O1097 C1096 1.246 . S
Zn1098 O1100 1.911 . S
Zn1098 O1115 1.970 . S
Zn1098 O1132 1.945 . S
Zn1098 O1139 1.981 . S
Zn1099 O1100 1.933 1_556 S
Zn1099 O1114 1.985 . S
Zn1099 O1121 1.955 . S
O1100 Zn1098 1.911 . S
O1100 Zn1099 1.933 1_554 S
O1100 H1101 0.841 . S
H1101 O1100 0.841 . S
Zn1102 O1103 1.933 1_556 S
Zn1102 O1116 1.985 . S
Zn1102 O1125 1.955 . S
O1103 Zn1102 1.933 1_554 S
O1103 Zn1104 1.911 . S
O1103 H1105 0.841 . S
Zn1104 O1103 1.911 . S
Zn1104 O1117 1.970 . S
Zn1104 O1133 1.981 . S
Zn1104 O1135 1.945 . S
H1105 O1103 0.841 . S
Zn1106 O1107 1.933 1_556 S
Zn1106 O1119 1.985 . S
Zn1106 O1127 1.955 . S
O1107 Zn1106 1.933 1_554 S
O1107 H1108 0.841 . S
O1107 Zn1109 1.911 . S
H1108 O1107 0.841 . S
Zn1109 O1107 1.911 . S
Zn1109 O1120 1.970 . S
Zn1109 O1130 1.981 . S
Zn1109 O1138 1.945 . S
C1110 O1111 1.246 . S
C1110 O1127 1.276 . S
O1111 C1110 1.246 . S
O1112 Zn1092 1.985 . S
O1112 C1122 1.245 1_556 S
O1113 Zn1093 1.970 . S
O1113 C1122 1.263 . S
O1114 Zn1099 1.985 . S
O1114 C1126 1.245 1_556 S
O1115 Zn1098 1.970 . S
O1115 C1126 1.263 . S
O1116 Zn1102 1.985 . S
O1116 C1131 1.245 1_556 S
O1117 Zn1104 1.970 . S
O1117 C1131 1.263 . S
C1118 O1129 1.262 . S
C1118 O1130 1.245 . S
O1119 Zn1106 1.985 . S
O1119 C1137 1.245 1_556 S
O1120 Zn1109 1.970 . S
O1120 C1137 1.263 . S
O1121 Zn1099 1.955 . S
O1121 C1140 1.276 . S
C1122 O1112 1.245 1_554 S
C1122 O1113 1.263 . S
O1123 Zn1092 1.955 . S
O1123 C1142 1.276 . S
C1124 O1132 1.262 . S
C1124 O1133 1.245 . S
O1125 C1096 1.276 . S
O1125 Zn1102 1.955 . S
C1126 O1114 1.245 1_554 S
C1126 O1115 1.263 . S
O1127 Zn1106 1.955 . S
O1127 C1110 1.276 . S
C1128 O1135 1.262 . S
C1128 O1136 1.245 . S
O1129 Zn1093 1.945 . S
O1129 C1118 1.262 . S
O1130 Zn1109 1.981 . S
O1130 C1118 1.245 . S
C1131 O1116 1.245 1_554 S
C1131 O1117 1.263 . S
O1132 Zn1098 1.945 . S
O1132 C1124 1.262 . S
O1133 Zn1104 1.981 . S
O1133 C1124 1.245 . S
C1134 O1138 1.262 . S
C1134 O1139 1.245 . S
O1135 Zn1104 1.945 . S
O1135 C1128 1.262 . S
O1136 Zn1093 1.981 . S
O1136 C1128 1.245 . S
C1137 O1119 1.245 1_554 S
C1137 O1120 1.263 . S
O1138 Zn1109 1.945 . S
O1138 C1134 1.262 . S
O1139 Zn1098 1.981 . S
O1139 C1134 1.245 . S
C1140 O1121 1.276 . S
C1140 O1141 1.246 . S
O1141 C1140 1.246 . S
C1142 O1123 1.276 . S
C1142 O1143 1.246 . S
O1143 C1142 1.246 . S
Zn1144 O1146 1.933 . S
Zn1144 O1164 1.985 . S
Zn1144 O1175 1.955 . S
Zn1145 O1146 1.911 . S
Zn1145 O1165 1.970 . S
Zn1145 O1181 1.945 . S
Zn1145 O1188 1.981 . S
O1146 Zn1144 1.933 . S
O1146 Zn1145 1.911 . S
O1146 H1147 0.841 1_655 S
H1147 O1146 0.841 1_455 S
C1148 O1149 1.246 . S
C1148 O1177 1.276 . S
O1149 C1148 1.246 . S
Zn1150 O1152 1.911 . S
Zn1150 O1167 1.970 . S
Zn1150 O1184 1.945 . S
Zn1150 O1191 1.981 . S
Zn1151 O1152 1.933 . S
Zn1151 O1166 1.985 . S
Zn1151 O1173 1.955 . S
O1152 Zn1150 1.911 . S
O1152 Zn1151 1.933 . S
O1152 H1153 0.841 . S
H1153 O1152 0.841 . S
Zn1154 O1155 1.933 . S
Zn1154 O1168 1.985 . S
Zn1154 O1177 1.955 . S
O1155 Zn1154 1.933 . S
O1155 Zn1156 1.911 . S
O1155 H1157 0.841 . S
Zn1156 O1155 1.911 . S
Zn1156 O1169 1.970 . S
Zn1156 O1185 1.981 1_655 S
Zn1156 O1187 1.945 . S
H1157 O1155 0.841 . S
Zn1158 O1159 1.933 . S
Zn1158 O1171 1.985 . S
Zn1158 O1179 1.955 . S
O1159 Zn1158 1.933 . S
O1159 H1160 0.841 . S
O1159 Zn1161 1.911 . S
H1160 O1159 0.841 . S
Zn1161 O1159 1.911 . S
Zn1161 O1172 1.970 . S
Zn1161 O1182 1.981 . S
Zn1161 O1190 1.945 . S
C1162 O1163 1.246 . S
C1162 O1179 1.276 . S
O1163 C1162 1.246 . S
O1164 Zn1144 1.985 . S
O1164 C1174 1.245 . S
O1165 Zn1145 1.970 . S
O1165 C1174 1.263 . S
O1166 Zn1151 1.985 . S
O1166 C1178 1.245 . S
O1167 Zn1150 1.970 . S
O1167 C1178 1.263 . S
O1168 Zn1154 1.985 . S
O1168 C1183 1.245 . S
O1169 Zn1156 1.970 . S
O1169 C1183 1.263 . S
C1170 O1181 1.262 1_455 S
C1170 O1182 1.245 . S
O1171 Zn1158 1.985 . S
O1171 C1189 1.245 . S
O1172 Zn1161 1.970 . S
O1172 C1189 1.263 . S
O1173 Zn1151 1.955 . S
O1173 C1192 1.276 . S
C1174 O1164 1.245 . S
C1174 O1165 1.263 . S
O1175 Zn1144 1.955 . S
O1175 C1194 1.276 1_655 S
C1176 O1184 1.262 . S
C1176 O1185 1.245 . S
O1177 C1148 1.276 . S
O1177 Zn1154 1.955 . S
C1178 O1166 1.245 . S
C1178 O1167 1.263 . S
O1179 Zn1158 1.955 . S
O1179 C1162 1.276 . S
C1180 O1187 1.262 . S
C1180 O1188 1.245 . S
O1181 Zn1145 1.945 . S
O1181 C1170 1.262 1_655 S
O1182 Zn1161 1.981 . S
O1182 C1170 1.245 . S
C1183 O1168 1.245 . S
C1183 O1169 1.263 . S
O1184 Zn1150 1.945 . S
O1184 C1176 1.262 . S
O1185 Zn1156 1.981 1_455 S
O1185 C1176 1.245 . S
C1186 O1190 1.262 . S
C1186 O1191 1.245 . S
O1187 Zn1156 1.945 . S
O1187 C1180 1.262 . S
O1188 Zn1145 1.981 . S
O1188 C1180 1.245 . S
C1189 O1171 1.245 . S
C1189 O1172 1.263 . S
O1190 Zn1161 1.945 . S
O1190 C1186 1.262 . S
O1191 Zn1150 1.981 . S
O1191 C1186 1.245 . S
C1192 O1173 1.276 . S
C1192 O1193 1.246 . S
O1193 C1192 1.246 . S
C1194 O1175 1.276 1_455 S
C1194 O1195 1.246 . S
O1195 C1194 1.246 . S
Zn1196 O1198 1.933 1_565 S
Zn1196 O1216 1.985 . S
Zn1196 O1227 1.955 . S
Zn1197 O1198 1.911 . S
Zn1197 O1217 1.970 . S
Zn1197 O1233 1.945 . S
Zn1197 O1240 1.981 . S
O1198 Zn1196 1.933 1_545 S
O1198 Zn1197 1.911 . S
O1198 H1199 0.841 . S
H1199 O1198 0.841 . S
C1200 O1201 1.246 . S
C1200 O1229 1.276 . S
O1201 C1200 1.246 . S
Zn1202 O1204 1.911 . S
Zn1202 O1219 1.970 . S
Zn1202 O1236 1.945 . S
Zn1202 O1243 1.981 . S
Zn1203 O1204 1.933 1_565 S
Zn1203 O1218 1.985 1_565 S
Zn1203 O1225 1.955 . S
O1204 Zn1202 1.911 . S
O1204 Zn1203 1.933 1_545 S
O1204 H1205 0.841 . S
H1205 O1204 0.841 . S
Zn1206 O1207 1.933 1_565 S
Zn1206 O1220 1.985 . S
Zn1206 O1229 1.955 . S
O1207 Zn1206 1.933 1_545 S
O1207 Zn1208 1.911 . S
O1207 H1209 0.841 . S
Zn1208 O1207 1.911 . S
Zn1208 O1221 1.970 . S
Zn1208 O1237 1.981 . S
Zn1208 O1239 1.945 . S
H1209 O1207 0.841 . S
Zn1210 O1211 1.933 1_565 S
Zn1210 O1223 1.985 1_565 S
Zn1210 O1231 1.955 . S
O1211 Zn1210 1.933 1_545 S
O1211 H1212 0.841 . S
O1211 Zn1213 1.911 . S
H1212 O1211 0.841 . S
Zn1213 O1211 1.911 . S
Zn1213 O1224 1.970 . S
Zn1213 O1234 1.981 . S
Zn1213 O1242 1.945 . S
C1214 O1215 1.246 . S
C1214 O1231 1.276 . S
O1215 C1214 1.246 . S
O1216 Zn1196 1.985 . S
O1216 C1226 1.245 1_565 S
O1217 Zn1197 1.970 . S
O1217 C1226 1.263 . S
O1218 Zn1203 1.985 1_545 S
O1218 C1230 1.245 . S
O1219 Zn1202 1.970 . S
O1219 C1230 1.263 . S
O1220 Zn1206 1.985 . S
O1220 C1235 1.245 1_565 S
O1221 Zn1208 1.970 . S
O1221 C1235 1.263 . S
C1222 O1233 1.262 . S
C1222 O1234 1.245 . S
O1223 Zn1210 1.985 1_545 S
O1223 C1241 1.245 . S
O1224 Zn1213 1.970 . S
O1224 C1241 1.263 . S
O1225 Zn1203 1.955 . S
O1225 C1244 1.276 . S
C1226 O1216 1.245 1_545 S
C1226 O1217 1.263 . S
O1227 Zn1196 1.955 . S
O1227 C1246 1.276 . S
C1228 O1236 1.262 . S
C1228 O1237 1.245 . S
O1229 C1200 1.276 . S
O1229 Zn1206 1.955 . S
C1230 O1218 1.245 . S
C1230 O1219 1.263 . S
O1231 Zn1210 1.955 . S
O1231 C1214 1.276 . S
C1232 O1239 1.262 . S
C1232 O1240 1.245 . S
O1233 Zn1197 1.945 . S
O1233 C1222 1.262 . S
O1234 Zn1213 1.981 . S
O1234 C1222 1.245 . S
C1235 O1220 1.245 1_545 S
C1235 O1221 1.263 . S
O1236 Zn1202 1.945 . S
O1236 C1228 1.262 . S
O1237 Zn1208 1.981 . S
O1237 C1228 1.245 . S
C1238 O1242 1.262 . S
C1238 O1243 1.245 . S
O1239 Zn1208 1.945 . S
O1239 C1232 1.262 . S
O1240 Zn1197 1.981 . S
O1240 C1232 1.245 . S
C1241 O1223 1.245 . S
C1241 O1224 1.263 . S
O1242 Zn1213 1.945 . S
O1242 C1238 1.262 . S
O1243 Zn1202 1.981 . S
O1243 C1238 1.245 . S
C1244 O1225 1.276 . S
C1244 O1245 1.246 . S
O1245 C1244 1.246 . S
C1246 O1227 1.276 . S
C1246 O1247 1.246 . S
O1247 C1246 1.246 . S
C1248 C1249 1.387 . S
C1248 H1252 0.950 . S
C1248 C1257 1.390 . S
C1249 C1248 1.387 . S
C1249 C1251 1.387 . S
H1250 C1257 0.950 . S
C1251 C1249 1.387 . S
C1251 C1253 1.390 . S
C1251 H1255 0.950 . S
H1252 C1248 0.950 . S
C1253 C1251 1.390 . S
C1253 C1254 1.387 . S
C1253 H1256 0.950 . S
C1254 C1253 1.387 . S
C1254 C1257 1.387 . S
H1255 C1251 0.950 . S
H1256 C1253 0.950 . S
C1257 C1248 1.390 . S
C1257 H1250 0.950 . S
C1257 C1254 1.387 . S
C1258 C1259 1.387 . S
C1258 H1262 0.950 . S
C1258 C1267 1.390 . S
C1259 C1258 1.387 . S
C1259 C1261 1.387 . S
H1260 C1267 0.950 . S
C1261 C1259 1.387 . S
C1261 C1263 1.390 . S
C1261 H1265 0.950 . S
H1262 C1258 0.950 . S
C1263 C1261 1.390 . S
C1263 C1264 1.387 . S
C1263 H1266 0.950 . S
C1264 C1263 1.387 . S
C1264 C1267 1.387 . S
H1265 C1261 0.950 . S
H1266 C1263 0.950 . S
C1267 C1258 1.390 . S
C1267 H1260 0.950 . S
C1267 C1264 1.387 . S
C1268 C1269 1.387 . S
C1268 H1272 0.950 . S
C1268 C1277 1.390 . S
C1269 C1268 1.387 . S
C1269 C1271 1.387 . S
H1270 C1277 0.950 . S
C1271 C1269 1.387 . S
C1271 C1273 1.390 . S
C1271 H1275 0.950 . S
H1272 C1268 0.950 . S
C1273 C1271 1.390 . S
C1273 C1274 1.387 . S
C1273 H1276 0.950 . S
C1274 C1273 1.387 . S
C1274 C1277 1.387 . S
H1275 C1271 0.950 . S
H1276 C1273 0.950 . S
C1277 C1268 1.390 . S
C1277 H1270 0.950 . S
C1277 C1274 1.387 . S
C1278 C1279 1.387 . S
C1278 H1282 0.950 . S
C1278 C1287 1.390 . S
C1279 C1278 1.387 . S
C1279 C1281 1.387 . S
H1280 C1287 0.950 . S
C1281 C1279 1.387 . S
C1281 C1283 1.390 . S
C1281 H1285 0.950 . S
H1282 C1278 0.950 . S
C1283 C1281 1.390 . S
C1283 C1284 1.387 . S
C1283 H1286 0.950 . S
C1284 C1283 1.387 . S
C1284 C1287 1.387 . S
H1285 C1281 0.950 . S
H1286 C1283 0.950 . S
C1287 C1278 1.390 . S
C1287 H1280 0.950 . S
C1287 C1284 1.387 . S
C1288 C1289 1.387 . S
C1288 H1292 0.950 . S
C1288 C1297 1.390 . S
C1289 C1288 1.387 . S
C1289 C1291 1.387 . S
H1290 C1297 0.950 . S
C1291 C1289 1.387 . S
C1291 C1293 1.390 . S
C1291 H1295 0.950 . S
H1292 C1288 0.950 . S
C1293 C1291 1.390 . S
C1293 C1294 1.387 . S
C1293 H1296 0.950 . S
C1294 C1293 1.387 . S
C1294 C1297 1.387 . S
H1295 C1291 0.950 . S
H1296 C1293 0.950 . S
C1297 C1288 1.390 . S
C1297 H1290 0.950 . S
C1297 C1294 1.387 . S
C1298 C1299 1.387 . S
C1298 H1302 0.950 . S
C1298 C1307 1.390 . S
C1299 C1298 1.387 . S
C1299 C1301 1.387 . S
H1300 C1307 0.950 . S
C1301 C1299 1.387 . S
C1301 C1303 1.390 . S
C1301 H1305 0.950 . S
H1302 C1298 0.950 . S
C1303 C1301 1.390 . S
C1303 C1304 1.387 . S
C1303 H1306 0.950 . S
C1304 C1303 1.387 . S
C1304 C1307 1.387 . S
H1305 C1301 0.950 . S
H1306 C1303 0.950 . S
C1307 C1298 1.390 . S
C1307 H1300 0.950 . S
C1307 C1304 1.387 . S
C1308 C1309 1.387 . S
C1308 H1312 0.950 . S
C1308 C1317 1.390 . S
C1309 C1308 1.387 . S
C1309 C1311 1.387 . S
H1310 C1317 0.950 . S
C1311 C1309 1.387 . S
C1311 C1313 1.390 . S
C1311 H1315 0.950 . S
H1312 C1308 0.950 . S
C1313 C1311 1.390 . S
C1313 C1314 1.387 . S
C1313 H1316 0.950 . S
C1314 C1313 1.387 . S
C1314 C1317 1.387 . S
H1315 C1311 0.950 . S
H1316 C1313 0.950 . S
C1317 C1308 1.390 . S
C1317 H1310 0.950 . S
C1317 C1314 1.387 . S
C1318 C1319 1.387 . S
C1318 H1322 0.950 . S
C1318 C1327 1.390 . S
C1319 C1318 1.387 . S
C1319 C1321 1.387 . S
H1320 C1327 0.950 . S
C1321 C1319 1.387 . S
C1321 C1323 1.390 . S
C1321 H1325 0.950 . S
H1322 C1318 0.950 . S
C1323 C1321 1.390 . S
C1323 C1324 1.387 . S
C1323 H1326 0.950 . S
C1324 C1323 1.387 . S
C1324 C1327 1.387 . S
H1325 C1321 0.950 . S
H1326 C1323 0.950 . S
C1327 C1318 1.390 . S
C1327 H1320 0.950 . S
C1327 C1324 1.387 . S
C1328 C1329 1.387 . S
C1328 H1332 0.950 . S
C1328 C1337 1.390 . S
C1329 C1328 1.387 . S
C1329 C1331 1.387 . S
H1330 C1337 0.950 . S
C1331 C1329 1.387 . S
C1331 C1333 1.390 . S
C1331 H1335 0.950 . S
H1332 C1328 0.950 . S
C1333 C1331 1.390 . S
C1333 C1334 1.387 . S
C1333 H1336 0.950 . S
C1334 C1333 1.387 . S
C1334 C1337 1.387 . S
H1335 C1331 0.950 . S
H1336 C1333 0.950 . S
C1337 C1328 1.390 . S
C1337 H1330 0.950 . S
C1337 C1334 1.387 . S
C1338 C1339 1.387 . S
C1338 H1342 0.950 . S
C1338 C1347 1.390 . S
C1339 C1338 1.387 . S
C1339 C1341 1.387 . S
H1340 C1347 0.950 . S
C1341 C1339 1.387 . S
C1341 C1343 1.390 . S
C1341 H1345 0.950 . S
H1342 C1338 0.950 . S
C1343 C1341 1.390 . S
C1343 C1344 1.387 . S
C1343 H1346 0.950 . S
C1344 C1343 1.387 . S
C1344 C1347 1.387 . S
H1345 C1341 0.950 . S
H1346 C1343 0.950 . S
C1347 C1338 1.390 . S
C1347 H1340 0.950 . S
C1347 C1344 1.387 . S
C1348 C1349 1.387 . S
C1348 H1352 0.950 . S
C1348 C1357 1.390 . S
C1349 C1348 1.387 . S
C1349 C1351 1.387 . S
H1350 C1357 0.950 . S
C1351 C1349 1.387 . S
C1351 C1353 1.390 . S
C1351 H1355 0.950 . S
H1352 C1348 0.950 . S
C1353 C1351 1.390 . S
C1353 C1354 1.387 . S
C1353 H1356 0.950 . S
C1354 C1353 1.387 . S
C1354 C1357 1.387 . S
H1355 C1351 0.950 . S
H1356 C1353 0.950 . S
C1357 C1348 1.390 . S
C1357 H1350 0.950 . S
C1357 C1354 1.387 . S
C1358 C1359 1.387 . S
C1358 H1362 0.950 . S
C1358 C1367 1.390 . S
C1359 C1358 1.387 . S
C1359 C1361 1.387 . S
H1360 C1367 0.950 . S
C1361 C1359 1.387 . S
C1361 C1363 1.390 . S
C1361 H1365 0.950 . S
H1362 C1358 0.950 . S
C1363 C1361 1.390 . S
C1363 C1364 1.387 . S
C1363 H1366 0.950 . S
C1364 C1363 1.387 . S
C1364 C1367 1.387 . S
H1365 C1361 0.950 . S
H1366 C1363 0.950 . S
C1367 C1358 1.390 . S
C1367 H1360 0.950 . S
C1367 C1364 1.387 . S
C1368 C1369 1.387 . S
C1368 H1372 0.950 . S
C1368 C1377 1.390 . S
C1369 C1368 1.387 . S
C1369 C1371 1.387 1_554 S
H1370 C1377 0.950 . S
C1371 C1369 1.387 1_556 S
C1371 C1373 1.390 . S
C1371 H1375 0.950 . S
H1372 C1368 0.950 . S
C1373 C1371 1.390 . S
C1373 C1374 1.387 1_556 S
C1373 H1376 0.950 . S
C1374 C1373 1.387 1_554 S
C1374 C1377 1.387 . S
H1375 C1371 0.950 . S
H1376 C1373 0.950 . S
C1377 C1368 1.390 . S
C1377 H1370 0.950 . S
C1377 C1374 1.387 . S
C1378 C1379 1.387 . S
C1378 H1382 0.950 . S
C1378 C1387 1.390 . S
C1379 C1378 1.387 . S
C1379 C1381 1.387 1_554 S
H1380 C1387 0.950 . S
C1381 C1379 1.387 1_556 S
C1381 C1383 1.390 . S
C1381 H1385 0.950 . S
H1382 C1378 0.950 . S
C1383 C1381 1.390 . S
C1383 C1384 1.387 1_556 S
C1383 H1386 0.950 . S
C1384 C1383 1.387 1_554 S
C1384 C1387 1.387 . S
H1385 C1381 0.950 . S
H1386 C1383 0.950 . S
C1387 C1378 1.390 . S
C1387 H1380 0.950 . S
C1387 C1384 1.387 . S
C1388 C1389 1.387 1_556 S
C1388 H1392 0.950 . S
C1388 C1397 1.390 . S
C1389 C1388 1.387 1_554 S
C1389 C1391 1.387 . S
H1390 C1397 0.950 . S
C1391 C1389 1.387 . S
C1391 C1393 1.390 . S
C1391 H1395 0.950 . S
H1392 C1388 0.950 . S
C1393 C1391 1.390 . S
C1393 C1394 1.387 . S
C1393 H1396 0.950 . S
C1394 C1393 1.387 . S
C1394 C1397 1.387 1_554 S
H1395 C1391 0.950 . S
H1396 C1393 0.950 . S
C1397 C1388 1.390 . S
C1397 H1390 0.950 . S
C1397 C1394 1.387 1_556 S
C1398 C1399 1.387 1_556 S
C1398 H1402 0.950 . S
C1398 C1407 1.390 . S
C1399 C1398 1.387 1_554 S
C1399 C1401 1.387 . S
H1400 C1407 0.950 . S
C1401 C1399 1.387 . S
C1401 C1403 1.390 . S
C1401 H1405 0.950 . S
H1402 C1398 0.950 . S
C1403 C1401 1.390 . S
C1403 C1404 1.387 . S
C1403 H1406 0.950 . S
C1404 C1403 1.387 . S
C1404 C1407 1.387 1_554 S
H1405 C1401 0.950 . S
H1406 C1403 0.950 . S
C1407 C1398 1.390 . S
C1407 H1400 0.950 . S
C1407 C1404 1.387 1_556 S
C1408 C1409 1.387 1_655 S
C1408 H1412 0.950 . S
C1408 C1417 1.390 . S
C1409 C1408 1.387 1_455 S
C1409 C1411 1.387 . S
H1410 C1417 0.950 . S
C1411 C1409 1.387 . S
C1411 C1413 1.390 . S
C1411 H1415 0.950 . S
H1412 C1408 0.950 . S
C1413 C1411 1.390 . S
C1413 C1414 1.387 . S
C1413 H1416 0.950 . S
C1414 C1413 1.387 . S
C1414 C1417 1.387 1_455 S
H1415 C1411 0.950 . S
H1416 C1413 0.950 . S
C1417 C1408 1.390 . S
C1417 H1410 0.950 . S
C1417 C1414 1.387 1_655 S
C1418 C1419 1.387 1_565 S
C1418 H1422 0.950 . S
C1418 C1427 1.390 . S
C1419 C1418 1.387 1_545 S
C1419 C1421 1.387 . S
H1420 C1427 0.950 . S
C1421 C1419 1.387 . S
C1421 C1423 1.390 . S
C1421 H1425 0.950 . S
H1422 C1418 0.950 . S
C1423 C1421 1.390 . S
C1423 C1424 1.387 . S
C1423 H1426 0.950 . S
C1424 C1423 1.387 . S
C1424 C1427 1.387 1_545 S
H1425 C1421 0.950 . S
H1426 C1423 0.950 . S
C1427 C1418 1.390 . S
C1427 H1420 0.950 . S
C1427 C1424 1.387 1_565 S
C1428 C1429 1.387 1_655 S
C1428 H1432 0.950 . S
C1428 C1437 1.390 . S
C1429 C1428 1.387 1_455 S
C1429 C1431 1.387 . S
H1430 C1437 0.950 . S
C1431 C1429 1.387 . S
C1431 C1433 1.390 . S
C1431 H1435 0.950 . S
H1432 C1428 0.950 . S
C1433 C1431 1.390 . S
C1433 C1434 1.387 . S
C1433 H1436 0.950 . S
C1434 C1433 1.387 . S
C1434 C1437 1.387 1_455 S
H1435 C1431 0.950 . S
H1436 C1433 0.950 . S
C1437 C1428 1.390 . S
C1437 H1430 0.950 . S
C1437 C1434 1.387 1_655 S
C1438 C1439 1.387 . S
C1438 H1442 0.950 . S
C1438 C1447 1.390 . S
C1439 C1438 1.387 . S
C1439 C1441 1.387 . S
H1440 C1447 0.950 . S
C1441 C1439 1.387 . S
C1441 C1443 1.390 . S
C1441 H1445 0.950 1_545 S
H1442 C1438 0.950 . S
C1443 C1441 1.390 . S
C1443 C1444 1.387 . S
C1443 H1446 0.950 1_545 S
C1444 C1443 1.387 . S
C1444 C1447 1.387 . S
H1445 C1441 0.950 1_565 S
H1446 C1443 0.950 1_565 S
C1447 C1438 1.390 . S
C1447 H1440 0.950 . S
C1447 C1444 1.387 . S
C1448 C1449 1.387 . S
C1448 H1452 0.950 . S
C1448 C1457 1.390 . S
C1449 C1448 1.387 . S
C1449 C1451 1.387 . S
H1450 C1457 0.950 . S
C1451 C1449 1.387 . S
C1451 C1453 1.390 . S
C1451 H1455 0.950 . S
H1452 C1448 0.950 . S
C1453 C1451 1.390 . S
C1453 C1454 1.387 . S
C1453 H1456 0.931 1_455 S
C1454 C1453 1.387 . S
C1454 C1457 1.387 . S
H1455 C1451 0.950 . S
H1456 C1453 0.931 1_655 S
C1457 C1448 1.390 . S
C1457 H1450 0.950 . S
C1457 C1454 1.387 . S
C1458 C1459 1.387 . S
C1458 H1462 0.950 . S
C1458 C1467 1.390 . S
C1459 C1458 1.387 . S
C1459 C1461 1.387 . S
H1460 C1467 0.950 . S
C1461 C1459 1.387 . S
C1461 C1463 1.390 . S
C1461 H1465 0.950 1_545 S
H1462 C1458 0.950 . S
C1463 C1461 1.390 . S
C1463 C1464 1.387 . S
C1463 H1466 0.950 1_545 S
C1464 C1463 1.387 . S
C1464 C1467 1.387 . S
H1465 C1461 0.950 1_565 S
H1466 C1463 0.950 1_565 S
C1467 C1458 1.390 . S
C1467 H1460 0.950 . S
C1467 C1464 1.387 . S
C1468 C1469 1.387 . S
C1468 H1472 0.950 . S
C1468 C1477 1.390 . S
C1469 C1468 1.387 . S
C1469 C1471 1.387 1_455 S
H1470 C1477 0.950 . S
C1471 C1469 1.387 1_655 S
C1471 C1473 1.392 . S
C1471 H1475 0.950 . S
H1472 C1468 0.950 . S
C1473 C1471 1.392 . S
C1473 C1474 1.355 1_655 S
C1473 H1476 0.981 . S
C1474 C1473 1.355 1_455 S
C1474 C1477 1.387 . S
H1475 C1471 0.950 . S
H1476 C1473 0.981 . S
C1477 C1468 1.390 . S
C1477 H1470 0.950 . S
C1477 C1474 1.387 . S
C1478 C1479 1.387 1_565 S
C1478 H1482 0.950 . S
C1478 C1487 1.390 . S
C1479 C1478 1.387 1_545 S
C1479 C1481 1.387 . S
H1480 C1487 0.950 . S
C1481 C1479 1.387 . S
C1481 C1483 1.390 . S
C1481 H1485 0.950 . S
H1482 C1478 0.950 . S
C1483 C1481 1.390 . S
C1483 C1484 1.387 . S
C1483 H1486 0.950 . S
C1484 C1483 1.387 . S
C1484 C1487 1.387 1_545 S
H1485 C1481 0.950 . S
H1486 C1483 0.950 . S
C1487 C1478 1.390 . S
C1487 H1480 0.950 . S
C1487 C1484 1.387 1_565 S
C1488 C1489 1.387 . S
C1488 H1492 0.950 1_455 S
C1488 C1497 1.390 . S
C1489 C1488 1.387 . S
C1489 C1491 1.387 . S
H1490 C1497 0.950 1_655 S
C1491 C1489 1.387 . S
C1491 C1493 1.390 . S
C1491 H1495 0.950 . S
H1492 C1488 0.950 1_655 S
C1493 C1491 1.390 . S
C1493 C1494 1.387 . S
C1493 H1496 0.950 . S
C1494 C1493 1.387 . S
C1494 C1497 1.387 . S
H1495 C1491 0.950 . S
H1496 C1493 0.950 . S
C1497 C1488 1.390 . S
C1497 H1490 0.950 1_455 S
C1497 C1494 1.387 . S
C1498 C1499 1.387 . S
C1498 H1502 0.950 . S
C1498 C1507 1.390 . S
C1499 C1498 1.387 . S
C1499 C1501 1.387 . S
H1500 C1507 0.950 1_565 S
C1501 C1499 1.387 . S
C1501 C1503 1.390 . S
C1501 H1505 0.950 . S
H1502 C1498 0.950 . S
C1503 C1501 1.390 . S
C1503 C1504 1.387 . S
C1503 H1506 0.950 . S
C1504 C1503 1.387 . S
C1504 C1507 1.387 . S
H1505 C1501 0.950 . S
H1506 C1503 0.950 . S
C1507 C1498 1.390 . S
C1507 H1500 0.950 1_545 S
C1507 C1504 1.387 . S
C1508 C1509 1.387 . S
C1508 H1512 0.950 1_455 S
C1508 C1517 1.390 . S
C1509 C1508 1.387 . S
C1509 C1511 1.387 . S
H1510 C1517 0.950 1_655 S
C1511 C1509 1.387 . S
C1511 C1513 1.390 . S
C1511 H1515 0.950 . S
H1512 C1508 0.950 1_655 S
C1513 C1511 1.390 . S
C1513 C1514 1.387 . S
C1513 H1516 0.950 . S
C1514 C1513 1.387 . S
C1514 C1517 1.387 . S
H1515 C1511 0.950 . S
H1516 C1513 0.950 . S
C1517 C1508 1.390 . S
C1517 H1510 0.950 1_455 S
C1517 C1514 1.387 . S
C1518 C1519 1.387 1_565 S
C1518 H1522 0.950 . S
C1518 C1527 1.390 . S
C1519 C1518 1.387 1_545 S
C1519 C1521 1.387 . S
H1520 C1527 0.950 . S
C1521 C1519 1.387 . S
C1521 C1523 1.390 . S
C1521 H1525 0.950 . S
H1522 C1518 0.950 . S
C1523 C1521 1.390 . S
C1523 C1524 1.387 . S
C1523 H1526 0.950 . S
C1524 C1523 1.387 . S
C1524 C1527 1.387 1_545 S
H1525 C1521 0.950 . S
H1526 C1523 0.950 . S
C1527 C1518 1.390 . S
C1527 H1520 0.950 . S
C1527 C1524 1.387 1_565 S
C1528 C1529 1.387 . S
C1528 H1532 0.950 . S
C1528 C1537 1.390 . S
C1529 C1528 1.387 . S
C1529 C1531 1.387 1_455 S
H1530 C1537 0.950 . S
C1531 C1529 1.387 1_655 S
C1531 C1533 1.390 . S
C1531 H1535 0.950 . S
H1532 C1528 0.950 . S
C1533 C1531 1.390 . S
C1533 C1534 1.387 1_655 S
C1533 H1536 0.950 . S
C1534 C1533 1.387 1_455 S
C1534 C1537 1.387 . S
H1535 C1531 0.950 . S
H1536 C1533 0.950 . S
C1537 C1528 1.390 . S
C1537 H1530 0.950 . S
C1537 C1534 1.387 . S
C1538 C1539 1.387 1_565 S
C1538 H1542 0.950 . S
C1538 C1547 1.390 . S
C1539 C1538 1.387 1_545 S
C1539 C1541 1.387 . S
H1540 C1547 0.950 . S
C1541 C1539 1.387 . S
C1541 C1543 1.390 . S
C1541 H1545 0.950 . S
H1542 C1538 0.950 . S
C1543 C1541 1.390 . S
C1543 C1544 1.387 . S
C1543 H1546 0.950 . S
C1544 C1543 1.387 . S
C1544 C1547 1.387 1_545 S
H1545 C1541 0.950 . S
H1546 C1543 0.950 . S
C1547 C1538 1.390 . S
C1547 H1540 0.950 . S
C1547 C1544 1.387 1_565 S
C1548 C1549 1.387 . S
C1548 H1552 0.950 . S
C1548 C1557 1.390 . S
C1549 C1548 1.387 . S
C1549 C1551 1.387 1_455 S
H1550 C1557 0.950 . S
C1551 C1549 1.387 1_655 S
C1551 C1553 1.390 . S
C1551 H1555 0.950 . S
H1552 C1548 0.950 . S
C1553 C1551 1.390 . S
C1553 C1554 1.387 1_655 S
C1553 H1556 0.950 . S
C1554 C1553 1.387 1_455 S
C1554 C1557 1.387 . S
H1555 C1551 0.950 . S
H1556 C1553 0.950 . S
C1557 C1548 1.390 . S
C1557 H1550 0.950 . S
C1557 C1554 1.387 . S
C1558 C1559 1.387 . S
C1558 H1562 0.950 . S
C1558 C1567 1.390 . S
C1559 C1558 1.387 . S
C1559 C1561 1.387 . S
H1560 C1567 0.950 . S
C1561 C1559 1.387 . S
C1561 C1563 1.390 . S
C1561 H1565 0.950 1_545 S
H1562 C1558 0.950 . S
C1563 C1561 1.390 . S
C1563 C1564 1.387 . S
C1563 H1566 0.950 1_545 S
C1564 C1563 1.387 . S
C1564 C1567 1.387 . S
H1565 C1561 0.950 1_565 S
H1566 C1563 0.950 1_565 S
C1567 C1558 1.390 . S
C1567 H1560 0.950 . S
C1567 C1564 1.387 . S
C1568 C1569 1.387 1_565 S
C1568 H1572 0.950 . S
C1568 C1577 1.390 . S
C1569 C1568 1.387 1_545 S
C1569 C1571 1.387 . S
H1570 C1577 0.950 . S
C1571 C1569 1.387 . S
C1571 C1573 1.390 . S
C1571 H1575 0.950 . S
H1572 C1568 0.950 . S
C1573 C1571 1.390 . S
C1573 C1574 1.387 . S
C1573 H1576 0.950 . S
C1574 C1573 1.387 . S
C1574 C1577 1.387 1_545 S
H1575 C1571 0.950 . S
H1576 C1573 0.950 . S
C1577 C1568 1.390 . S
C1577 H1570 0.950 . S
C1577 C1574 1.387 1_565 S
C1578 C1579 1.387 . S
C1578 H1582 0.950 . S
C1578 C1587 1.390 . S
C1579 C1578 1.387 . S
C1579 C1581 1.387 . S
H1580 C1587 0.950 . S
C1581 C1579 1.387 . S
C1581 C1583 1.390 . S
C1581 H1585 0.950 1_455 S
H1582 C1578 0.950 . S
C1583 C1581 1.390 . S
C1583 C1584 1.387 . S
C1583 H1586 0.950 1_455 S
C1584 C1583 1.387 . S
C1584 C1587 1.387 . S
H1585 C1581 0.950 1_655 S
H1586 C1583 0.950 1_655 S
C1587 C1578 1.390 . S
C1587 H1580 0.950 . S
C1587 C1584 1.387 . S
C1588 C1589 1.387 . S
C1588 H1592 0.950 . S
C1588 C1597 1.390 . S
C1589 C1588 1.387 . S
C1589 C1591 1.387 . S
H1590 C1597 0.950 . S
C1591 C1589 1.387 . S
C1591 C1593 1.390 . S
C1591 H1595 0.950 1_545 S
H1592 C1588 0.950 . S
C1593 C1591 1.390 . S
C1593 C1594 1.387 . S
C1593 H1596 0.950 1_545 S
C1594 C1593 1.387 . S
C1594 C1597 1.387 . S
H1595 C1591 0.950 1_565 S
H1596 C1593 0.950 1_565 S
C1597 C1588 1.390 . S
C1597 H1590 0.950 . S
C1597 C1594 1.387 . S
C1598 C1599 1.387 1_655 S
C1598 H1602 0.950 . S
C1598 C1607 1.390 . S
C1599 C1598 1.387 1_455 S
C1599 C1601 1.387 . S
H1600 C1607 0.950 . S
C1601 C1599 1.387 . S
C1601 C1603 1.390 . S
C1601 H1605 0.950 . S
H1602 C1598 0.950 . S
C1603 C1601 1.390 . S
C1603 C1604 1.387 . S
C1603 H1606 0.950 . S
C1604 C1603 1.387 . S
C1604 C1607 1.387 1_455 S
H1605 C1601 0.950 . S
H1606 C1603 0.950 . S
C1607 C1598 1.390 . S
C1607 H1600 0.950 . S
C1607 C1604 1.387 1_655 S
C1608 C1609 1.387 1_565 S
C1608 H1612 0.950 . S
C1608 C1617 1.390 . S
C1609 C1608 1.387 1_545 S
C1609 C1611 1.387 . S
H1610 C1617 0.950 . S
C1611 C1609 1.387 . S
C1611 C1613 1.390 . S
C1611 H1615 0.950 . S
H1612 C1608 0.950 . S
C1613 C1611 1.390 . S
C1613 C1614 1.387 . S
C1613 H1616 0.950 . S
C1614 C1613 1.387 . S
C1614 C1617 1.387 1_545 S
H1615 C1611 0.950 . S
H1616 C1613 0.950 . S
C1617 C1608 1.390 . S
C1617 H1610 0.950 . S
C1617 C1614 1.387 1_565 S
C1618 C1619 1.387 . S
C1618 H1622 0.950 1_455 S
C1618 C1627 1.390 . S
C1619 C1618 1.387 . S
C1619 C1621 1.387 . S
H1620 C1627 0.950 1_655 S
C1621 C1619 1.387 . S
C1621 C1623 1.390 . S
C1621 H1625 0.950 . S
H1622 C1618 0.950 1_655 S
C1623 C1621 1.390 . S
C1623 C1624 1.387 . S
C1623 H1626 0.950 . S
C1624 C1623 1.387 . S
C1624 C1627 1.387 . S
H1625 C1621 0.950 . S
H1626 C1623 0.950 . S
C1627 C1618 1.390 . S
C1627 H1620 0.950 1_455 S
C1627 C1624 1.387 . S
C1628 C1629 1.387 . S
C1628 H1632 0.950 . S
C1628 C1637 1.390 . S
C1629 C1628 1.387 . S
C1629 C1631 1.387 . S
H1630 C1637 0.950 . S
C1631 C1629 1.387 . S
C1631 C1633 1.390 . S
C1631 H1635 0.950 1_545 S
H1632 C1628 0.950 . S
C1633 C1631 1.390 . S
C1633 C1634 1.387 . S
C1633 H1636 0.950 1_545 S
C1634 C1633 1.387 . S
C1634 C1637 1.387 . S
H1635 C1631 0.950 1_565 S
H1636 C1633 0.950 1_565 S
C1637 C1628 1.390 . S
C1637 H1630 0.950 . S
C1637 C1634 1.387 . S
C1638 C1639 1.387 . S
C1638 H1642 0.950 . S
C1638 C1647 1.390 . S
C1639 C1638 1.387 . S
C1639 C1641 1.387 1_455 S
H1640 C1647 0.950 . S
C1641 C1639 1.387 1_655 S
C1641 C1643 1.390 . S
C1641 H1645 0.950 . S
H1642 C1638 0.950 . S
C1643 C1641 1.390 . S
C1643 C1644 1.387 1_655 S
C1643 H1646 0.950 . S
C1644 C1643 1.387 1_455 S
C1644 C1647 1.387 . S
H1645 C1641 0.950 . S
H1646 C1643 0.950 . S
C1647 C1638 1.390 . S
C1647 H1640 0.950 . S
C1647 C1644 1.387 . S
C1648 C1649 1.387 1_556 S
C1648 H1652 0.950 . S
C1648 C1657 1.390 . S
C1649 C1648 1.387 1_554 S
C1649 C1651 1.387 . S
H1650 C1657 0.950 . S
C1651 C1649 1.387 . S
C1651 C1653 1.390 . S
C1651 H1655 0.950 . S
H1652 C1648 0.950 . S
C1653 C1651 1.390 . S
C1653 C1654 1.387 . S
C1653 H1656 0.950 . S
C1654 C1653 1.387 . S
C1654 C1657 1.387 1_554 S
H1655 C1651 0.950 . S
H1656 C1653 0.950 . S
C1657 C1648 1.390 . S
C1657 H1650 0.950 . S
C1657 C1654 1.387 1_556 S
C1658 C1659 1.387 . S
C1658 H1662 0.950 . S
C1658 C1667 1.390 . S
C1659 C1658 1.387 . S
C1659 C1661 1.387 1_554 S
H1660 C1667 0.950 . S
C1661 C1659 1.387 1_556 S
C1661 C1663 1.390 . S
C1661 H1665 0.950 . S
H1662 C1658 0.950 . S
C1663 C1661 1.390 . S
C1663 C1664 1.387 1_556 S
C1663 H1666 0.950 . S
C1664 C1663 1.387 1_554 S
C1664 C1667 1.387 . S
H1665 C1661 0.950 . S
H1666 C1663 0.950 . S
C1667 C1658 1.390 . S
C1667 H1660 0.950 . S
C1667 C1664 1.387 . S
C1668 C1669 1.387 . S
C1668 H1672 0.950 . S
C1668 C1677 1.390 . S
C1669 C1668 1.387 . S
C1669 C1671 1.387 1_554 S
H1670 C1677 0.950 . S
C1671 C1669 1.387 1_556 S
C1671 C1673 1.390 . S
C1671 H1675 0.950 . S
H1672 C1668 0.950 . S
C1673 C1671 1.390 . S
C1673 C1674 1.387 1_556 S
C1673 H1676 0.950 . S
C1674 C1673 1.387 1_554 S
C1674 C1677 1.387 . S
H1675 C1671 0.950 . S
H1676 C1673 0.950 . S
C1677 C1668 1.390 . S
C1677 H1670 0.950 . S
C1677 C1674 1.387 . S
C1678 C1679 1.387 1_556 S
C1678 H1682 0.950 . S
C1678 C1687 1.390 . S
C1679 C1678 1.387 1_554 S
C1679 C1681 1.387 . S
H1680 C1687 0.950 . S
C1681 C1679 1.387 . S
C1681 C1683 1.390 . S
C1681 H1685 0.950 . S
H1682 C1678 0.950 . S
C1683 C1681 1.390 . S
C1683 C1684 1.387 . S
C1683 H1686 0.950 . S
C1684 C1683 1.387 . S
C1684 C1687 1.387 1_554 S
H1685 C1681 0.950 . S
H1686 C1683 0.950 . S
C1687 C1678 1.390 . S
C1687 H1680 0.950 . S
C1687 C1684 1.387 1_556 S
C1688 C1689 1.387 1_556 S
C1688 H1692 0.950 . S
C1688 C1697 1.390 . S
C1689 C1688 1.387 1_554 S
C1689 C1691 1.387 . S
H1690 C1697 0.950 . S
C1691 C1689 1.387 . S
C1691 C1693 1.390 . S
C1691 H1695 0.950 . S
H1692 C1688 0.950 . S
C1693 C1691 1.390 . S
C1693 C1694 1.387 . S
C1693 H1696 0.950 . S
C1694 C1693 1.387 . S
C1694 C1697 1.387 1_554 S
H1695 C1691 0.950 . S
H1696 C1693 0.950 . S
C1697 C1688 1.390 . S
C1697 H1690 0.950 . S
C1697 C1694 1.387 1_556 S
C1698 C1699 1.387 . S
C1698 H1702 0.950 . S
C1698 C1707 1.390 . S
C1699 C1698 1.387 . S
C1699 C1701 1.387 1_554 S
H1700 C1707 0.950 . S
C1701 C1699 1.387 1_556 S
C1701 C1703 1.390 . S
C1701 H1705 0.950 . S
H1702 C1698 0.950 . S
C1703 C1701 1.390 . S
C1703 C1704 1.387 1_556 S
C1703 H1706 0.950 . S
C1704 C1703 1.387 1_554 S
C1704 C1707 1.387 . S
H1705 C1701 0.950 . S
H1706 C1703 0.950 . S
C1707 C1698 1.390 . S
C1707 H1700 0.950 . S
C1707 C1704 1.387 . S
C1708 C1709 1.387 1_556 S
C1708 H1712 0.950 . S
C1708 C1717 1.390 . S
C1709 C1708 1.387 1_554 S
C1709 C1711 1.387 . S
H1710 C1717 0.950 . S
C1711 C1709 1.387 . S
C1711 C1713 1.390 . S
C1711 H1715 0.950 . S
H1712 C1708 0.950 . S
C1713 C1711 1.390 . S
C1713 C1714 1.387 . S
C1713 H1716 0.950 . S
C1714 C1713 1.387 . S
C1714 C1717 1.387 1_554 S
H1715 C1711 0.950 . S
H1716 C1713 0.950 . S
C1717 C1708 1.390 . S
C1717 H1710 0.950 . S
C1717 C1714 1.387 1_556 S
C1718 C1719 1.387 1_556 S
C1718 H1722 0.950 . S
C1718 C1727 1.390 . S
C1719 C1718 1.387 1_554 S
C1719 C1721 1.387 . S
H1720 C1727 0.950 . S
C1721 C1719 1.387 . S
C1721 C1723 1.390 . S
C1721 H1725 0.950 . S
H1722 C1718 0.950 . S
C1723 C1721 1.390 . S
C1723 C1724 1.387 . S
C1723 H1726 0.950 . S
C1724 C1723 1.387 . S
C1724 C1727 1.387 1_554 S
H1725 C1721 0.950 . S
H1726 C1723 0.950 . S
C1727 C1718 1.390 . S
C1727 H1720 0.950 . S
C1727 C1724 1.387 1_556 S
C1728 C1729 1.387 . S
C1728 H1732 0.950 . S
C1728 C1737 1.390 . S
C1729 C1728 1.387 . S
C1729 C1731 1.387 . S
H1730 C1737 0.950 . S
C1731 C1729 1.387 . S
C1731 C1733 1.390 . S
C1731 H1735 0.950 . S
H1732 C1728 0.950 . S
C1733 C1731 1.390 . S
C1733 C1734 1.387 . S
C1733 H1736 0.950 . S
C1734 C1733 1.387 . S
C1734 C1737 1.387 . S
H1735 C1731 0.950 . S
H1736 C1733 0.950 . S
C1737 C1728 1.390 . S
C1737 H1730 0.950 . S
C1737 C1734 1.387 . S
C1738 C1739 1.387 . S
C1738 H1742 0.950 . S
C1738 C1747 1.390 . S
C1739 C1738 1.387 . S
C1739 C1741 1.387 . S
H1740 C1747 0.950 . S
C1741 C1739 1.387 . S
C1741 C1743 1.390 . S
C1741 H1745 0.950 . S
H1742 C1738 0.950 . S
C1743 C1741 1.390 . S
C1743 C1744 1.387 . S
C1743 H1746 0.950 . S
C1744 C1743 1.387 . S
C1744 C1747 1.387 . S
H1745 C1741 0.950 . S
H1746 C1743 0.950 . S
C1747 C1738 1.390 . S
C1747 H1740 0.950 . S
C1747 C1744 1.387 . S
C1748 C1749 1.387 . S
C1748 H1752 0.950 . S
C1748 C1757 1.390 . S
C1749 C1748 1.387 . S
C1749 C1751 1.387 . S
H1750 C1757 0.950 . S
C1751 C1749 1.387 . S
C1751 C1753 1.390 . S
C1751 H1755 0.950 . S
H1752 C1748 0.950 . S
C1753 C1751 1.390 . S
C1753 C1754 1.387 . S
C1753 H1756 0.950 . S
C1754 C1753 1.387 . S
C1754 C1757 1.387 . S
H1755 C1751 0.950 . S
H1756 C1753 0.950 . S
C1757 C1748 1.390 . S
C1757 H1750 0.950 . S
C1757 C1754 1.387 . S
C1758 C1759 1.387 . S
C1758 H1762 0.950 . S
C1758 C1767 1.390 . S
C1759 C1758 1.387 . S
C1759 C1761 1.387 . S
H1760 C1767 0.950 . S
C1761 C1759 1.387 . S
C1761 C1763 1.390 . S
C1761 H1765 0.950 . S
H1762 C1758 0.950 . S
C1763 C1761 1.390 . S
C1763 C1764 1.387 . S
C1763 H1766 0.950 . S
C1764 C1763 1.387 . S
C1764 C1767 1.387 . S
H1765 C1761 0.950 . S
H1766 C1763 0.950 . S
C1767 C1758 1.390 . S
C1767 H1760 0.950 . S
C1767 C1764 1.387 . S
C1768 C1769 1.387 . S
C1768 H1772 0.950 . S
C1768 C1777 1.390 . S
C1769 C1768 1.387 . S
C1769 C1771 1.387 . S
H1770 C1777 0.950 . S
C1771 C1769 1.387 . S
C1771 C1773 1.390 . S
C1771 H1775 0.950 . S
H1772 C1768 0.950 . S
C1773 C1771 1.390 . S
C1773 C1774 1.387 . S
C1773 H1776 0.950 . S
C1774 C1773 1.387 . S
C1774 C1777 1.387 . S
H1775 C1771 0.950 . S
H1776 C1773 0.950 . S
C1777 C1768 1.390 . S
C1777 H1770 0.950 . S
C1777 C1774 1.387 . S
C1778 C1779 1.387 . S
C1778 H1782 0.950 . S
C1778 C1787 1.390 . S
C1779 C1778 1.387 . S
C1779 C1781 1.387 . S
H1780 C1787 0.950 . S
C1781 C1779 1.387 . S
C1781 C1783 1.390 . S
C1781 H1785 0.950 . S
H1782 C1778 0.950 . S
C1783 C1781 1.390 . S
C1783 C1784 1.387 . S
C1783 H1786 0.950 . S
C1784 C1783 1.387 . S
C1784 C1787 1.387 . S
H1785 C1781 0.950 . S
H1786 C1783 0.950 . S
C1787 C1778 1.390 . S
C1787 H1780 0.950 . S
C1787 C1784 1.387 . S
C1788 C1789 1.387 . S
C1788 H1792 0.950 . S
C1788 C1797 1.390 . S
C1789 C1788 1.387 . S
C1789 C1791 1.387 . S
H1790 C1797 0.950 . S
C1791 C1789 1.387 . S
C1791 C1793 1.390 . S
C1791 H1795 0.950 . S
H1792 C1788 0.950 . S
C1793 C1791 1.390 . S
C1793 C1794 1.387 . S
C1793 H1796 0.950 . S
C1794 C1793 1.387 . S
C1794 C1797 1.387 . S
H1795 C1791 0.950 . S
H1796 C1793 0.950 . S
C1797 C1788 1.390 . S
C1797 H1790 0.950 . S
C1797 C1794 1.387 . S
C1798 C1799 1.387 . S
C1798 H1802 0.950 . S
C1798 C1807 1.390 . S
C1799 C1798 1.387 . S
C1799 C1801 1.387 . S
H1800 C1807 0.950 . S
C1801 C1799 1.387 . S
C1801 C1803 1.390 . S
C1801 H1805 0.950 . S
H1802 C1798 0.950 . S
C1803 C1801 1.390 . S
C1803 C1804 1.387 . S
C1803 H1806 0.950 . S
C1804 C1803 1.387 . S
C1804 C1807 1.387 . S
H1805 C1801 0.950 . S
H1806 C1803 0.950 . S
C1807 C1798 1.390 . S
C1807 H1800 0.950 . S
C1807 C1804 1.387 . S
C1808 C1809 1.387 . S
C1808 H1812 0.950 . S
C1808 C1817 1.390 . S
C1809 C1808 1.387 . S
C1809 C1811 1.387 . S
H1810 C1817 0.950 . S
C1811 C1809 1.387 . S
C1811 C1813 1.390 . S
C1811 H1815 0.950 . S
H1812 C1808 0.950 . S
C1813 C1811 1.390 . S
C1813 C1814 1.387 . S
C1813 H1816 0.950 . S
C1814 C1813 1.387 . S
C1814 C1817 1.387 . S
H1815 C1811 0.950 . S
H1816 C1813 0.950 . S
C1817 C1808 1.390 . S
C1817 H1810 0.950 . S
C1817 C1814 1.387 . S
C1818 C1819 1.387 . S
C1818 H1822 0.950 . S
C1818 C1827 1.390 . S
C1819 C1818 1.387 . S
C1819 C1821 1.387 . S
H1820 C1827 0.950 . S
C1821 C1819 1.387 . S
C1821 C1823 1.390 . S
C1821 H1825 0.950 . S
H1822 C1818 0.950 . S
C1823 C1821 1.390 . S
C1823 C1824 1.387 . S
C1823 H1826 0.950 . S
C1824 C1823 1.387 . S
C1824 C1827 1.387 . S
H1825 C1821 0.950 . S
H1826 C1823 0.950 . S
C1827 C1818 1.390 . S
C1827 H1820 0.950 . S
C1827 C1824 1.387 . S
C1828 C1829 1.387 . S
C1828 H1832 0.950 . S
C1828 C1837 1.390 . S
C1829 C1828 1.387 . S
C1829 C1831 1.387 . S
H1830 C1837 0.950 . S
C1831 C1829 1.387 . S
C1831 C1833 1.390 . S
C1831 H1835 0.950 . S
H1832 C1828 0.950 . S
C1833 C1831 1.390 . S
C1833 C1834 1.387 . S
C1833 H1836 0.950 . S
C1834 C1833 1.387 . S
C1834 C1837 1.387 . S
H1835 C1831 0.950 . S
H1836 C1833 0.950 . S
C1837 C1828 1.390 . S
C1837 H1830 0.950 . S
C1837 C1834 1.387 . S
C1838 C1839 1.387 . S
C1838 H1842 0.950 . S
C1838 C1847 1.390 . S
C1839 C1838 1.387 . S
C1839 C1841 1.387 . S
H1840 C1847 0.950 . S
C1841 C1839 1.387 . S
C1841 C1843 1.390 . S
C1841 H1845 0.950 . S
H1842 C1838 0.950 . S
C1843 C1841 1.390 . S
C1843 C1844 1.387 . S
C1843 H1846 0.950 . S
C1844 C1843 1.387 . S
C1844 C1847 1.387 . S
H1845 C1841 0.950 . S
H1846 C1843 0.950 . S
C1847 C1838 1.390 . S
C1847 H1840 0.950 . S
C1847 C1844 1.387 . S
C1848 C1849 1.387 . S
C1848 H1852 0.950 . S
C1848 C1857 1.390 . S
C1849 C1848 1.387 . S
C1849 C1851 1.387 . S
H1850 C1857 0.950 . S
C1851 C1849 1.387 . S
C1851 C1853 1.390 . S
C1851 H1855 0.950 . S
H1852 C1848 0.950 . S
C1853 C1851 1.390 . S
C1853 C1854 1.387 . S
C1853 H1856 0.950 . S
C1854 C1853 1.387 . S
C1854 C1857 1.387 . S
H1855 C1851 0.950 . S
H1856 C1853 0.950 . S
C1857 C1848 1.390 . S
C1857 H1850 0.950 . S
C1857 C1854 1.387 . S
C1858 C1859 1.387 . S
C1858 H1862 0.950 . S
C1858 C1867 1.390 . S
C1859 C1858 1.387 . S
C1859 C1861 1.387 . S
H1860 C1867 0.950 . S
C1861 C1859 1.387 . S
C1861 C1863 1.390 . S
C1861 H1865 0.950 . S
H1862 C1858 0.950 . S
C1863 C1861 1.390 . S
C1863 C1864 1.387 . S
C1863 H1866 0.950 . S
C1864 C1863 1.387 . S
C1864 C1867 1.387 . S
H1865 C1861 0.950 . S
H1866 C1863 0.950 . S
C1867 C1858 1.390 . S
C1867 H1860 0.950 . S
C1867 C1864 1.387 . S
C1868 C1869 1.387 . S
C1868 H1872 0.950 . S
C1868 C1877 1.390 . S
C1869 C1868 1.387 . S
C1869 C1871 1.387 . S
H1870 C1877 0.950 . S
C1871 C1869 1.387 . S
C1871 C1873 1.390 . S
C1871 H1875 0.950 . S
H1872 C1868 0.950 . S
C1873 C1871 1.390 . S
C1873 C1874 1.387 . S
C1873 H1876 0.950 . S
C1874 C1873 1.387 . S
C1874 C1877 1.387 . S
H1875 C1871 0.950 . S
H1876 C1873 0.950 . S
C1877 C1868 1.390 . S
C1877 H1870 0.950 . S
C1877 C1874 1.387 . S
C1878 C1879 1.387 . S
C1878 H1882 0.950 . S
C1878 C1887 1.390 . S
C1879 C1878 1.387 . S
C1879 C1881 1.387 . S
H1880 C1887 0.950 . S
C1881 C1879 1.387 . S
C1881 C1883 1.390 . S
C1881 H1885 0.950 . S
H1882 C1878 0.950 . S
C1883 C1881 1.390 . S
C1883 C1884 1.387 . S
C1883 H1886 0.950 . S
C1884 C1883 1.387 . S
C1884 C1887 1.387 . S
H1885 C1881 0.950 . S
H1886 C1883 0.950 . S
C1887 C1878 1.390 . S
C1887 H1880 0.950 . S
C1887 C1884 1.387 . S
C1888 C1889 1.387 . S
C1888 H1892 0.950 . S
C1888 C1897 1.390 . S
C1889 C1888 1.387 . S
C1889 C1891 1.387 . S
H1890 C1897 0.950 . S
C1891 C1889 1.387 . S
C1891 C1893 1.390 . S
C1891 H1895 0.950 . S
H1892 C1888 0.950 . S
C1893 C1891 1.390 . S
C1893 C1894 1.387 . S
C1893 H1896 0.950 . S
C1894 C1893 1.387 . S
C1894 C1897 1.387 . S
H1895 C1891 0.950 . S
H1896 C1893 0.950 . S
C1897 C1888 1.390 . S
C1897 H1890 0.950 . S
C1897 C1894 1.387 . S
C1898 C1899 1.387 . S
C1898 H1902 0.950 . S
C1898 C1907 1.390 . S
C1899 C1898 1.387 . S
C1899 C1901 1.387 . S
H1900 C1907 0.950 . S
C1901 C1899 1.387 . S
C1901 C1903 1.390 . S
C1901 H1905 0.950 . S
H1902 C1898 0.950 . S
C1903 C1901 1.390 . S
C1903 C1904 1.387 . S
C1903 H1906 0.950 . S
C1904 C1903 1.387 . S
C1904 C1907 1.387 . S
H1905 C1901 0.950 . S
H1906 C1903 0.950 . S
C1907 C1898 1.390 . S
C1907 H1900 0.950 . S
C1907 C1904 1.387 . S
C1908 C1909 1.387 . S
C1908 H1912 0.950 . S
C1908 C1917 1.390 . S
C1909 C1908 1.387 . S
C1909 C1911 1.387 . S
H1910 C1917 0.950 . S
C1911 C1909 1.387 . S
C1911 C1913 1.390 . S
C1911 H1915 0.950 . S
H1912 C1908 0.950 . S
C1913 C1911 1.390 . S
C1913 C1914 1.387 . S
C1913 H1916 0.950 . S
C1914 C1913 1.387 . S
C1914 C1917 1.387 . S
H1915 C1911 0.950 . S
H1916 C1913 0.950 . S
C1917 C1908 1.390 . S
C1917 H1910 0.950 . S
C1917 C1914 1.387 . S
C1918 C1919 1.387 . S
C1918 H1922 0.950 . S
C1918 C1927 1.390 . S
C1919 C1918 1.387 . S
C1919 C1921 1.387 . S
H1920 C1927 0.950 . S
C1921 C1919 1.387 . S
C1921 C1923 1.390 . S
C1921 H1925 0.950 . S
H1922 C1918 0.950 . S
C1923 C1921 1.390 . S
C1923 C1924 1.387 . S
C1923 H1926 0.950 . S
C1924 C1923 1.387 . S
C1924 C1927 1.387 . S
H1925 C1921 0.950 . S
H1926 C1923 0.950 . S
C1927 C1918 1.390 . S
C1927 H1920 0.950 . S
C1927 C1924 1.387 . S
C1928 C1929 1.387 . S
C1928 H1932 0.950 . S
C1928 C1937 1.390 . S
C1929 C1928 1.387 . S
C1929 C1931 1.387 . S
H1930 C1937 0.950 . S
C1931 C1929 1.387 . S
C1931 C1933 1.390 . S
C1931 H1935 0.950 . S
H1932 C1928 0.950 . S
C1933 C1931 1.390 . S
C1933 C1934 1.387 . S
C1933 H1936 0.950 . S
C1934 C1933 1.387 . S
C1934 C1937 1.387 . S
H1935 C1931 0.950 . S
H1936 C1933 0.950 . S
C1937 C1928 1.390 . S
C1937 H1930 0.950 . S
C1937 C1934 1.387 . S
C1938 C1939 1.387 . S
C1938 H1942 0.950 . S
C1938 C1947 1.390 . S
C1939 C1938 1.387 . S
C1939 C1941 1.387 . S
H1940 C1947 0.950 . S
C1941 C1939 1.387 . S
C1941 C1943 1.390 . S
C1941 H1945 0.950 . S
H1942 C1938 0.950 . S
C1943 C1941 1.390 . S
C1943 C1944 1.387 . S
C1943 H1946 0.950 . S
C1944 C1943 1.387 . S
C1944 C1947 1.387 . S
H1945 C1941 0.950 . S
H1946 C1943 0.950 . S
C1947 C1938 1.390 . S
C1947 H1940 0.950 . S
C1947 C1944 1.387 . S
C1948 C1949 1.387 . S
C1948 H1952 0.950 . S
C1948 C1957 1.390 . S
C1949 C1948 1.387 . S
C1949 C1951 1.387 . S
H1950 C1957 0.950 . S
C1951 C1949 1.387 . S
C1951 C1953 1.390 . S
C1951 H1955 0.950 . S
H1952 C1948 0.950 . S
C1953 C1951 1.390 . S
C1953 C1954 1.387 . S
C1953 H1956 0.950 . S
C1954 C1953 1.387 . S
C1954 C1957 1.387 . S
H1955 C1951 0.950 . S
H1956 C1953 0.950 . S
C1957 C1948 1.390 . S
C1957 H1950 0.950 . S
C1957 C1954 1.387 . S
C1958 C1959 1.387 . S
C1958 H1962 0.950 . S
C1958 C1967 1.390 . S
C1959 C1958 1.387 . S
C1959 C1961 1.387 . S
H1960 C1967 0.950 . S
C1961 C1959 1.387 . S
C1961 C1963 1.390 . S
C1961 H1965 0.950 . S
H1962 C1958 0.950 . S
C1963 C1961 1.390 . S
C1963 C1964 1.387 . S
C1963 H1966 0.950 . S
C1964 C1963 1.387 . S
C1964 C1967 1.387 . S
H1965 C1961 0.950 . S
H1966 C1963 0.950 . S
C1967 C1958 1.390 . S
C1967 H1960 0.950 . S
C1967 C1964 1.387 . S
C1254 C978 1.102 . S
C1249 C898 1.135 . S
C1259 C820 1.153 . S
C1264 C972 1.103 . S
C1274 C940 1.212 . S
C1269 C781 1.282 . S
C1279 C859 1.309 . S
C1284 C954 1.228 . S
C1294 C992 1.561 . S
C1289 C625 1.663 . S
C1304 C1079 1.140 . S
C1299 C664 1.178 . S
C1309 C703 1.708 . S
C1314 C1006 1.637 . S
C1324 C1074 0.850 . S
C1319 C742 0.863 . S
C1329 C469 1.706 . S
C1334 C1030 1.615 . S
C1344 C1085 1.190 . S
C1339 C508 1.231 . S
C1349 C547 1.659 . S
C1354 C1024 1.594 . S
C1359 C586 0.906 . S
C1364 C1070 0.892 . S
C1374 C1126 0.888 . S
C1369 C430 0.896 . S
C1379 C352 1.234 . S
C1384 C1137 1.211 . S
C1389 C313 0.958 . S
C1394 C1122 0.941 . S
C1404 C1131 1.266 . S
C1399 C391 1.295 . S
C1409 C157 1.245 . S
C1414 C1176 1.207 . S
C1419 C196 0.499 . S
C1424 C1235 0.533 . S
C1429 C235 1.384 . S
C1434 C1192 1.277 . S
C1439 C274 0.893 . S
C1444 C1230 0.873 . S
C1454 C1194 1.316 . S
C1449 C1 1.398 . S
C1464 C1241 0.514 . S
C1459 C40 0.487 . S
C1469 C79 1.228 . S
C1474 C1170 1.164 . S
C1484 C1226 0.835 . S
C1479 C118 0.856 . S
C1494 C962 2.013 . S
C1489 C16 2.018 . S
C1499 C60 1.787 . S
C1504 C966 1.839 . S
C1509 C99 2.080 . S
C1514 C986 2.024 . S
C1519 C133 1.482 . S
C1524 C981 1.688 . S
C1529 C172 2.073 . S
C1534 C984 2.050 . S
C1544 C970 1.823 . S
C1539 C211 1.764 . S
C1549 C255 2.028 . S
C1554 C968 1.994 . S
C1564 C975 1.708 . S
C1559 C294 1.481 . S
C1574 C1038 2.045 . S
C1569 C138 2.080 . S
C1579 C21 2.220 . S
C1584 C1088 2.328 . S
C1594 C1036 1.686 . S
C1589 C55 1.708 . S
C1604 C1072 2.221 . S
C1599 C94 2.106 . S
C1609 C216 1.673 . S
C1614 C1014 1.658 . S
C1624 C1090 2.288 . S
C1619 C250 2.182 . S
C1634 C1020 2.006 . S
C1629 C289 2.013 . S
C1644 C1066 2.267 . S
C1639 C177 2.149 1_455 S
C1654 C1058 2.158 . S
C1649 C328 1.959 . S
C1659 C367 1.872 . S
C1664 C1082 2.124 . S
C1674 C1018 1.817 . S
C1669 C333 1.749 . S
C1684 C1044 2.168 . S
C1679 C411 1.930 . S
C1689 C445 1.680 . S
C1694 C1022 1.747 . S
C1699 C450 1.934 . S
C1704 C1076 2.144 . S
C1714 C1033 2.127 . S
C1709 C372 1.881 . S
C1724 C1027 2.169 . S
C1719 C406 1.915 . S
C1734 C1110 2.461 . S
C1729 C484 2.288 . S
C1744 C1142 2.264 . S
C1739 C528 2.031 . S
C1749 C567 2.274 . S
C1754 C1096 2.457 . S
C1764 C1140 1.874 . S
C1759 C601 1.686 . S
C1774 C1128 2.410 . S
C1769 C640 2.229 . S
C1779 C679 1.961 . S
C1784 C1124 2.204 . S
C1789 C723 2.305 . S
C1794 C1134 2.516 . S
C1804 C1118 1.850 . S
C1799 C762 1.642 . S
C1814 C1183 2.032 . S
C1809 C606 1.967 . S
C1819 C489 2.092 . S
C1824 C1244 2.284 . S
C1834 C1178 1.894 . S
C1829 C523 1.635 . S
C1844 C1228 2.276 . S
C1839 C562 2.030 . S
C1854 C1174 1.834 . S
C1849 C684 1.586 . S
C1859 C718 1.978 . S
C1864 C1246 2.191 . S
C1874 C1189 1.951 . S
C1869 C757 1.888 . S
C1884 C1222 2.142 . S
C1879 C645 1.961 . S
C1894 C1214 2.223 . S
C1889 C796 2.089 . S
C1899 C835 2.117 . S
C1904 C1238 2.225 . S
C1914 C1180 1.893 . S
C1909 C801 1.907 . S
C1919 C879 2.194 . S
C1924 C1200 2.297 . S
C1934 C1162 1.913 . S
C1929 C913 1.939 . S
C1944 C1232 2.171 . S
C1939 C918 2.022 . S
C1954 C1148 1.936 . S
C1949 C840 1.986 . S
C1959 C874 1.918 . S
C1964 C1186 1.891 . S
