# Generated by pormake.
# Topology ptr, (4,4)-cn, num edge types: 1
# Building blocks:
#     Node 0, Type 0, BuildingBlock: NAHDIM_clean_sbu_0, # of connection points: 4
#     Node 1, Type 0, BuildingBlock: NAHDIM_clean_sbu_0, # of connection points: 4
#     Node 2, Type 0, BuildingBlock: NAHDIM_clean_sbu_0, # of connection points: 4
#     Node 3, Type 0, BuildingBlock: NAHDIM_clean_sbu_0, # of connection points: 4
#     Node 4, Type 0, BuildingBlock: NAHDIM_clean_sbu_0, # of connection points: 4
#     Node 5, Type 0, BuildingBlock: NAHDIM_clean_sbu_0, # of connection points: 4
#     Node 6, Type 0, BuildingBlock: NAHDIM_clean_sbu_0, # of connection points: 4
#     Node 7, Type 0, BuildingBlock: NAHDIM_clean_sbu_0, # of connection points: 4
#     Node 8, Type 0, BuildingBlock: NAHDIM_clean_sbu_0, # of connection points: 4
#     Node 9, Type 0, BuildingBlock: NAHDIM_clean_sbu_0, # of connection points: 4
#     Node 10, Type 0, BuildingBlock: NAHDIM_clean_sbu_0, # of connection points: 4
#     Node 11, Type 0, BuildingBlock: NAHDIM_clean_sbu_0, # of connection points: 4
#     Node 12, Type 0, BuildingBlock: NAHDIM_clean_sbu_0, # of connection points: 4
#     Node 13, Type 0, BuildingBlock: NAHDIM_clean_sbu_0, # of connection points: 4
#     Node 14, Type 0, BuildingBlock: NAHDIM_clean_sbu_0, # of connection points: 4
#     Node 15, Type 0, BuildingBlock: NAHDIM_clean_sbu_0, # of connection points: 4
#     Node 16, Type 0, BuildingBlock: NAHDIM_clean_sbu_0, # of connection points: 4
#     Node 17, Type 0, BuildingBlock: NAHDIM_clean_sbu_0, # of connection points: 4
#     Node 18, Type 1, BuildingBlock: MUDLON_clean_linker_0, # of connection points: 4
#     Node 19, Type 1, BuildingBlock: MUDLON_clean_linker_0, # of connection points: 4
#     Node 20, Type 1, BuildingBlock: MUDLON_clean_linker_0, # of connection points: 4
#     Node 21, Type 1, BuildingBlock: MUDLON_clean_linker_0, # of connection points: 4
#     Node 22, Type 1, BuildingBlock: MUDLON_clean_linker_0, # of connection points: 4
#     Node 23, Type 1, BuildingBlock: MUDLON_clean_linker_0, # of connection points: 4
#     Node 24, Type 1, BuildingBlock: MUDLON_clean_linker_0, # of connection points: 4
#     Node 25, Type 1, BuildingBlock: MUDLON_clean_linker_0, # of connection points: 4
#     Node 26, Type 1, BuildingBlock: MUDLON_clean_linker_0, # of connection points: 4
#     Node 27, Type 1, BuildingBlock: MUDLON_clean_linker_0, # of connection points: 4
#     Node 28, Type 1, BuildingBlock: MUDLON_clean_linker_0, # of connection points: 4
#     Node 29, Type 1, BuildingBlock: MUDLON_clean_linker_0, # of connection points: 4
#     Node 30, Type 1, BuildingBlock: MUDLON_clean_linker_0, # of connection points: 4
#     Node 31, Type 1, BuildingBlock: MUDLON_clean_linker_0, # of connection points: 4
#     Node 32, Type 1, BuildingBlock: MUDLON_clean_linker_0, # of connection points: 4
#     Node 33, Type 1, BuildingBlock: MUDLON_clean_linker_0, # of connection points: 4
#     Node 34, Type 1, BuildingBlock: MUDLON_clean_linker_0, # of connection points: 4
#     Node 35, Type 1, BuildingBlock: MUDLON_clean_linker_0, # of connection points: 4
#     Edge 36, Type (0, 1), BuildingBlock: CIFDUS_clean_linker_0, # of connection points: 2
#     Edge 37, Type (0, 1), BuildingBlock: CIFDUS_clean_linker_0, # of connection points: 2
#     Edge 38, Type (0, 1), BuildingBlock: CIFDUS_clean_linker_0, # of connection points: 2
#     Edge 39, Type (0, 1), BuildingBlock: CIFDUS_clean_linker_0, # of connection points: 2
#     Edge 40, Type (0, 1), BuildingBlock: CIFDUS_clean_linker_0, # of connection points: 2
#     Edge 41, Type (0, 1), BuildingBlock: CIFDUS_clean_linker_0, # of connection points: 2
#     Edge 42, Type (0, 1), BuildingBlock: CIFDUS_clean_linker_0, # of connection points: 2
#     Edge 43, Type (0, 1), BuildingBlock: CIFDUS_clean_linker_0, # of connection points: 2
#     Edge 44, Type (0, 1), BuildingBlock: CIFDUS_clean_linker_0, # of connection points: 2
#     Edge 45, Type (0, 1), BuildingBlock: CIFDUS_clean_linker_0, # of connection points: 2
#     Edge 46, Type (0, 1), BuildingBlock: CIFDUS_clean_linker_0, # of connection points: 2
#     Edge 47, Type (0, 1), BuildingBlock: CIFDUS_clean_linker_0, # of connection points: 2
#     Edge 48, Type (0, 1), BuildingBlock: CIFDUS_clean_linker_0, # of connection points: 2
#     Edge 49, Type (0, 1), BuildingBlock: CIFDUS_clean_linker_0, # of connection points: 2
#     Edge 50, Type (0, 1), BuildingBlock: CIFDUS_clean_linker_0, # of connection points: 2
#     Edge 51, Type (0, 1), BuildingBlock: CIFDUS_clean_linker_0, # of connection points: 2
#     Edge 52, Type (0, 1), BuildingBlock: CIFDUS_clean_linker_0, # of connection points: 2
#     Edge 53, Type (0, 1), BuildingBlock: CIFDUS_clean_linker_0, # of connection points: 2
#     Edge 54, Type (0, 1), BuildingBlock: CIFDUS_clean_linker_0, # of connection points: 2
#     Edge 55, Type (0, 1), BuildingBlock: CIFDUS_clean_linker_0, # of connection points: 2
#     Edge 56, Type (0, 1), BuildingBlock: CIFDUS_clean_linker_0, # of connection points: 2
#     Edge 57, Type (0, 1), BuildingBlock: CIFDUS_clean_linker_0, # of connection points: 2
#     Edge 58, Type (0, 1), BuildingBlock: CIFDUS_clean_linker_0, # of connection points: 2
#     Edge 59, Type (0, 1), BuildingBlock: CIFDUS_clean_linker_0, # of connection points: 2
#     Edge 60, Type (0, 1), BuildingBlock: CIFDUS_clean_linker_0, # of connection points: 2
#     Edge 61, Type (0, 1), BuildingBlock: CIFDUS_clean_linker_0, # of connection points: 2
#     Edge 62, Type (0, 1), BuildingBlock: CIFDUS_clean_linker_0, # of connection points: 2
#     Edge 63, Type (0, 1), BuildingBlock: CIFDUS_clean_linker_0, # of connection points: 2
#     Edge 64, Type (0, 1), BuildingBlock: CIFDUS_clean_linker_0, # of connection points: 2
#     Edge 65, Type (0, 1), BuildingBlock: CIFDUS_clean_linker_0, # of connection points: 2
#     Edge 66, Type (0, 1), BuildingBlock: CIFDUS_clean_linker_0, # of connection points: 2
#     Edge 67, Type (0, 1), BuildingBlock: CIFDUS_clean_linker_0, # of connection points: 2
#     Edge 68, Type (0, 1), BuildingBlock: CIFDUS_clean_linker_0, # of connection points: 2
#     Edge 69, Type (0, 1), BuildingBlock: CIFDUS_clean_linker_0, # of connection points: 2
#     Edge 70, Type (0, 1), BuildingBlock: CIFDUS_clean_linker_0, # of connection points: 2
#     Edge 71, Type (0, 1), BuildingBlock: CIFDUS_clean_linker_0, # of connection points: 2
#     Edge 72, Type (0, 1), BuildingBlock: CIFDUS_clean_linker_0, # of connection points: 2
#     Edge 73, Type (0, 1), BuildingBlock: CIFDUS_clean_linker_0, # of connection points: 2
#     Edge 74, Type (0, 1), BuildingBlock: CIFDUS_clean_linker_0, # of connection points: 2
#     Edge 75, Type (0, 1), BuildingBlock: CIFDUS_clean_linker_0, # of connection points: 2
#     Edge 76, Type (0, 1), BuildingBlock: CIFDUS_clean_linker_0, # of connection points: 2
#     Edge 77, Type (0, 1), BuildingBlock: CIFDUS_clean_linker_0, # of connection points: 2
#     Edge 78, Type (0, 1), BuildingBlock: CIFDUS_clean_linker_0, # of connection points: 2
#     Edge 79, Type (0, 1), BuildingBlock: CIFDUS_clean_linker_0, # of connection points: 2
#     Edge 80, Type (0, 1), BuildingBlock: CIFDUS_clean_linker_0, # of connection points: 2
#     Edge 81, Type (0, 1), BuildingBlock: CIFDUS_clean_linker_0, # of connection points: 2
#     Edge 82, Type (0, 1), BuildingBlock: CIFDUS_clean_linker_0, # of connection points: 2
#     Edge 83, Type (0, 1), BuildingBlock: CIFDUS_clean_linker_0, # of connection points: 2
#     Edge 84, Type (0, 1), BuildingBlock: CIFDUS_clean_linker_0, # of connection points: 2
#     Edge 85, Type (0, 1), BuildingBlock: CIFDUS_clean_linker_0, # of connection points: 2
#     Edge 86, Type (0, 1), BuildingBlock: CIFDUS_clean_linker_0, # of connection points: 2
#     Edge 87, Type (0, 1), BuildingBlock: CIFDUS_clean_linker_0, # of connection points: 2
#     Edge 88, Type (0, 1), BuildingBlock: CIFDUS_clean_linker_0, # of connection points: 2
#     Edge 89, Type (0, 1), BuildingBlock: CIFDUS_clean_linker_0, # of connection points: 2
#     Edge 90, Type (0, 1), BuildingBlock: CIFDUS_clean_linker_0, # of connection points: 2
#     Edge 91, Type (0, 1), BuildingBlock: CIFDUS_clean_linker_0, # of connection points: 2
#     Edge 92, Type (0, 1), BuildingBlock: CIFDUS_clean_linker_0, # of connection points: 2
#     Edge 93, Type (0, 1), BuildingBlock: CIFDUS_clean_linker_0, # of connection points: 2
#     Edge 94, Type (0, 1), BuildingBlock: CIFDUS_clean_linker_0, # of connection points: 2
#     Edge 95, Type (0, 1), BuildingBlock: CIFDUS_clean_linker_0, # of connection points: 2
#     Edge 96, Type (0, 1), BuildingBlock: CIFDUS_clean_linker_0, # of connection points: 2
#     Edge 97, Type (0, 1), BuildingBlock: CIFDUS_clean_linker_0, # of connection points: 2
#     Edge 98, Type (0, 1), BuildingBlock: CIFDUS_clean_linker_0, # of connection points: 2
#     Edge 99, Type (0, 1), BuildingBlock: CIFDUS_clean_linker_0, # of connection points: 2
#     Edge 100, Type (0, 1), BuildingBlock: CIFDUS_clean_linker_0, # of connection points: 2
#     Edge 101, Type (0, 1), BuildingBlock: CIFDUS_clean_linker_0, # of connection points: 2
#     Edge 102, Type (0, 1), BuildingBlock: CIFDUS_clean_linker_0, # of connection points: 2
#     Edge 103, Type (0, 1), BuildingBlock: CIFDUS_clean_linker_0, # of connection points: 2
#     Edge 104, Type (0, 1), BuildingBlock: CIFDUS_clean_linker_0, # of connection points: 2
#     Edge 105, Type (0, 1), BuildingBlock: CIFDUS_clean_linker_0, # of connection points: 2
#     Edge 106, Type (0, 1), BuildingBlock: CIFDUS_clean_linker_0, # of connection points: 2
#     Edge 107, Type (0, 1), BuildingBlock: CIFDUS_clean_linker_0, # of connection points: 2
# Relax obj value: 0.063
# Max RMSD: 0.203
# Mean RMSD: 0.103
data_MOF--net-ptr--node1-NAHDIM_clean_sbu_0--node2-MUDLON_clean_linker_0--edge1-CIFDUS_clean_linker_0
_symmetry_space_group_name_H-M    P1
_symmetry_Int_Tables_number       1
_symmetry_cell_setting            triclinic
loop_
_symmetry_equiv_pos_as_xyz
'x, y, z'
_cell_length_a     97.232023
_cell_length_b     95.558731
_cell_length_c     55.656175
_cell_angle_alpha  91.65457
_cell_angle_beta   89.188853
_cell_angle_gamma 121.66559
loop_
_atom_site_label
_atom_site_type_symbol
_atom_site_fract_x
_atom_site_fract_y
_atom_site_fract_z
_atom_type_partial_charge
C0 C 0.0209 0.36184 0.00821 0.0
O1 O 0.00983 0.34931 0.99531 0.0
O2 O 0.97837 0.35092 0.00946 0.0
Zn3 Zn 0.99815 0.37373 0.0118 0.0
O4 O 0.99718 0.38618 0.04086 0.0
C5 C 0.99523 0.37681 0.96191 0.0
O6 O 0.99212 0.36167 0.96226 0.0
O7 O 0.01833 0.37297 0.01566 0.0
C8 C 0.99061 0.3947 0.04173 0.0
O9 O 0.98306 0.3952 0.02269 0.0
C10 C 0.9757 0.33832 0.02064 0.0
O11 O 0.98619 0.33977 0.03668 0.0
O12 O 0.99893 0.38519 0.98148 0.0
C13 C 0.67023 0.64438 0.02169 0.0
O14 O 0.66922 0.65496 0.03603 0.0
O15 O 0.6391 0.6535 0.01754 0.0
Zn16 Zn 0.63579 0.63081 0.01456 0.0
O17 O 0.62296 0.61902 0.98468 0.0
C18 C 0.60816 0.61143 0.04398 0.0
O19 O 0.60098 0.61256 0.02498 0.0
O20 O 0.6575 0.63274 0.01168 0.0
C21 C 0.6149 0.62366 0.97317 0.0
O22 O 0.61482 0.63674 0.98083 0.0
C23 C 0.64983 0.66567 0.00582 0.0
O24 O 0.65902 0.66355 0.99048 0.0
O25 O 0.62345 0.61817 0.04382 0.0
C26 C 0.3494 0.01713 0.9819 0.0
O27 O 0.34202 0.00249 0.97137 0.0
O28 O 0.339 0.98217 0.0158 0.0
Zn29 Zn 0.36131 0.00109 0.0082 0.0
O30 O 0.37101 0.99543 0.98012 0.0
C31 C 0.38427 0.00095 0.04038 0.0
O32 O 0.38426 0.99096 0.02366 0.0
O33 O 0.35903 0.02002 0.99916 0.0
C34 C 0.38532 0.00613 0.97386 0.0
O35 O 0.39305 0.02024 0.98588 0.0
C36 C 0.33638 0.96892 0.02482 0.0
O37 O 0.34862 0.96707 0.02868 0.0
O38 O 0.37547 0.007 0.03762 0.0
C39 C 0.97936 0.64549 0.97445 0.0
O40 O 0.99313 0.65053 0.9633 0.0
O41 O 0.0135 0.65475 0.00712 0.0
Zn42 Zn 0.99384 0.63233 8e-05 0.0
O43 O 0.99758 0.62153 0.97088 0.0
C44 C 0.00173 0.6207 0.04043 0.0
O45 O 0.0161 0.63131 0.03193 0.0
O46 O 0.9759 0.63625 0.99237 0.0
C47 C 0.00339 0.61232 0.9715 0.0
O48 O 0.00738 0.60926 0.99225 0.0
C49 C 0.027 0.66139 0.99627 0.0
O50 O 0.02902 0.65345 0.97827 0.0
O51 O 0.98929 0.61865 0.02972 0.0
C52 C 0.32613 0.35882 0.03502 0.0
O53 O 0.33175 0.3501 0.04358 0.0
O54 O 0.34888 0.34817 -0.00017 0.0
Zn55 Zn 0.35547 0.37081 0.01224 0.0
O56 O 0.36911 0.37698 0.04226 0.0
C57 C 0.3818 0.38816 0.98133 0.0
O58 O 0.38671 0.38047 0.99463 0.0
O59 O 0.33479 0.37001 0.02023 0.0
C60 C 0.3791 0.39205 0.04746 0.0
O61 O 0.38039 0.40333 0.03304 0.0
C62 C 0.3541 0.33917 0.00648 0.0
O63 O 0.36518 0.34462 0.02335 0.0
O64 O 0.36811 0.38637 0.98572 0.0
C65 C 0.6432 0.96893 0.01531 0.0
O66 O 0.65025 0.98343 0.02626 0.0
O67 O 0.65116 0.00428 0.98896 0.0
Zn68 Zn 0.62909 0.98455 0.99599 0.0
O69 O 0.62006 0.98704 0.02761 0.0
C70 C 0.61567 0.99363 0.95895 0.0
O71 O 0.62702 0.0082 0.9671 0.0
O72 O 0.63237 0.96553 -0.00029 0.0
C73 C 0.61048 0.99224 0.03053 0.0
O74 O 0.60636 0.9974 0.01193 0.0
C75 C 0.65808 0.01829 -0.0004 0.0
O76 O 0.65053 0.02111 0.01703 0.0
O77 O 0.61394 0.98089 0.96863 0.0
C78 C 0.6933 0.68704 0.34356 0.0
O79 O 0.67873 0.67534 0.33688 0.0
O80 O 0.65796 0.68687 0.33538 0.0
Zn81 Zn 0.67981 0.70779 0.33978 0.0
O82 O 0.68103 0.72205 0.3683 0.0
C83 C 0.67949 0.73049 0.30771 0.0
O84 O 0.67052 0.73113 0.32504 0.0
O85 O 0.69664 0.70182 0.34517 0.0
C86 C 0.66964 0.72265 0.37878 0.0
O87 O 0.65469 0.71295 0.37135 0.0
C88 C 0.64828 0.6778 0.35161 0.0
O89 O 0.65173 0.68207 0.37438 0.0
O90 O 0.68503 0.72112 0.30978 0.0
C91 C 0.33309 0.97534 0.33215 0.0
O92 O 0.3299 0.98679 0.32781 0.0
O93 O 0.3077 0.98416 0.36271 0.0
Zn94 Zn 0.30166 0.96123 0.35166 0.0
O95 O 0.28714 0.9528 0.32265 0.0
C96 C 0.28284 0.94866 0.39442 0.0
O97 O 0.28263 0.96224 0.39286 0.0
O98 O 0.32246 0.9624 0.34261 0.0
C99 C 0.27362 0.95178 0.32086 0.0
O100 O 0.26833 0.95697 0.33873 0.0
C101 C 0.30462 0.99405 0.35281 0.0
O102 O 0.29608 0.98956 0.33292 0.0
O103 O 0.29043 0.94544 0.37863 0.0
C104 C 0.02797 0.37419 0.34754 0.0
O105 O 0.01441 0.36258 0.35703 0.0
O106 O 0.01557 0.33321 0.36012 0.0
Zn107 Zn 0.03832 0.35045 0.35048 0.0
O108 O 0.04555 0.34455 0.31956 0.0
C109 C 0.05117 0.34144 0.38903 0.0
O110 O 0.03899 0.32676 0.38286 0.0
O111 O 0.03951 0.37174 0.34416 0.0
C112 C 0.05169 0.33566 0.3174 0.0
O113 O 0.0529 0.32853 0.33638 0.0
C114 C 0.00674 0.31895 0.35065 0.0
O115 O 0.01226 0.31439 0.33229 0.0
O116 O 0.05347 0.35384 0.37763 0.0
C117 C 0.64785 0.9781 0.30612 0.0
O118 O 0.66225 0.98564 0.29618 0.0
O119 O 0.6824 0.99224 0.34231 0.0
Zn120 Zn 0.66461 0.96862 0.33553 0.0
O121 O 0.67042 0.95799 0.30856 0.0
C122 C 0.66978 0.95722 0.37997 0.0
O123 O 0.68489 0.96831 0.37524 0.0
O124 O 0.64542 0.96938 0.32436 0.0
C125 C 0.67889 0.9515 0.31062 0.0
O126 O 0.68503 0.95181 0.33162 0.0
C127 C 0.69757 0.99823 0.34197 0.0
O128 O 0.70322 0.98869 0.33665 0.0
O129 O 0.65876 0.95521 0.36567 0.0
C130 C 0.99894 0.69775 0.36638 0.0
O131 O 0.00362 0.68834 0.37535 0.0
O132 O 0.02901 0.69195 0.34894 0.0
Zn133 Zn 0.03172 0.71436 0.35362 0.0
O134 O 0.04344 0.72515 0.3846 0.0
C135 C 0.04 0.72235 0.30444 0.0
O136 O 0.02729 0.70745 0.3015 0.0
O137 O 0.00928 0.71071 0.35569 0.0
C138 C 0.05605 0.72533 0.39088 0.0
O139 O 0.06178 0.71837 0.37666 0.0
C140 C 0.03833 0.68861 0.33734 0.0
O141 O 0.05168 0.70059 0.32793 0.0
O142 O 0.04411 0.72843 0.3256 0.0
C143 C 0.31693 0.30462 0.33489 0.0
O144 O 0.3281 0.31838 0.3252 0.0
O145 O 0.31771 0.34179 0.32841 0.0
Zn146 Zn 0.29752 0.31986 0.33494 0.0
O147 O 0.28641 0.32088 0.36522 0.0
C148 C 0.27573 0.32216 0.3044 0.0
O149 O 0.27999 0.33482 0.31902 0.0
O150 O 0.30312 0.30249 0.33956 0.0
C151 C 0.28751 0.33372 0.37461 0.0
O152 O 0.29688 0.348 0.36462 0.0
C153 C 0.32918 0.34929 0.34353 0.0
O154 O 0.32774 0.34287 0.36467 0.0
O155 O 0.28192 0.31345 0.30732 0.0
C156 C 0.37682 0.04277 0.69231 0.0
O157 O 0.3796 0.05722 0.69967 0.0
O158 O 0.32622 0.01801 0.66805 0.0
Zn159 Zn 0.34754 0.03922 0.67352 0.0
O160 O 0.34739 0.0531 0.70127 0.0
C161 C 0.34239 0.0538 0.63369 0.0
O162 O 0.32768 0.04571 0.64252 0.0
O163 O 0.36412 0.03325 0.68021 0.0
C164 C 0.33534 0.05265 0.71122 0.0
O165 O 0.32065 0.0418 0.70375 0.0
C166 C 0.31763 0.00782 0.6841 0.0
O167 O 0.32211 0.01131 0.70672 0.0
O168 O 0.35343 0.05277 0.64389 0.0
C169 C 0.01446 0.31158 0.68802 0.0
O170 O 0.01374 0.32119 0.70469 0.0
O171 O 0.97977 0.31397 0.70091 0.0
Zn172 Zn 0.97928 0.2932 0.69124 0.0
O173 O 0.96379 0.28016 0.66412 0.0
C174 C 0.95799 0.27497 0.72791 0.0
O175 O 0.94978 0.27997 0.71614 0.0
O176 O 0.00146 0.29893 0.6805 0.0
C177 C 0.9562 0.2844 0.65069 0.0
O178 O 0.95777 0.29882 0.65418 0.0
C179 C 0.98465 0.32677 0.68865 0.0
O180 O 0.98946 0.32712 0.66639 0.0
O181 O 0.97197 0.279 0.72037 0.0
C182 C 0.68744 0.70019 0.68391 0.0
O183 O 0.67628 0.68977 0.6986 0.0
O184 O 0.67606 0.65936 0.69291 0.0
Zn185 Zn 0.69876 0.67755 0.68558 0.0
O186 O 0.70656 0.67022 0.657 0.0
C187 C 0.72147 0.67682 0.71902 0.0
O188 O 0.72198 0.66675 0.70297 0.0
O189 O 0.69835 0.69758 0.67646 0.0
C190 C 0.7211 0.67742 0.64972 0.0
O191 O 0.73235 0.69037 0.66172 0.0
C192 C 0.67324 0.64596 0.70161 0.0
O193 O 0.68539 0.64403 0.70584 0.0
O194 O 0.71272 0.68277 0.71508 0.0
C195 C 0.30894 0.31531 0.66484 0.0
O196 O 0.32369 0.32737 0.66009 0.0
O197 O 0.34529 0.32262 0.68997 0.0
Zn198 Zn 0.3264 0.30049 0.67921 0.0
O199 O 0.33194 0.29327 0.64805 0.0
C200 C 0.33343 0.28217 0.71056 0.0
O201 O 0.34702 0.2899 0.69842 0.0
O202 O 0.30691 0.30224 0.67372 0.0
C203 C 0.32751 0.27847 0.64267 0.0
O204 O 0.31859 0.26685 0.65791 0.0
C205 C 0.35887 0.32958 0.67927 0.0
O206 O 0.36077 0.32233 0.66022 0.0
O207 O 0.32209 0.28446 0.70527 0.0
C208 C 0.67134 0.0468 0.70646 0.0
O209 O 0.68398 0.05773 0.71902 0.0
O210 O 0.69158 0.01904 0.67618 0.0
Zn211 Zn 0.69504 0.04159 0.68272 0.0
O212 O 0.70949 0.0524 0.71164 0.0
C213 C 0.72029 0.05868 0.64968 0.0
O214 O 0.72668 0.05299 0.66421 0.0
O215 O 0.67328 0.03902 0.68915 0.0
C216 C 0.70763 0.04465 0.73078 0.0
O217 O 0.69634 0.02899 0.73154 0.0
C218 C 0.67925 0.0061 0.68405 0.0
O219 O 0.66871 0.00746 0.69735 0.0
O220 O 0.70605 0.05547 0.65388 0.0
C221 C 0.96374 0.6319 0.6765 0.0
O222 O 0.97172 0.64015 0.65748 0.0
O223 O 0.97938 0.67371 0.67063 0.0
Zn224 Zn 0.9563 0.6572 0.67977 0.0
O225 O 0.94883 0.6648 0.7085 0.0
C226 C 0.94391 0.66255 0.63635 0.0
O227 O 0.95678 0.6774 0.63862 0.0
O228 O 0.95574 0.63667 0.68874 0.0
C229 C 0.94331 0.67424 0.70748 0.0
O230 O 0.94288 0.68018 0.6867 0.0
C231 C 0.98748 0.68915 0.67481 0.0
O232 O 0.98064 0.69618 0.68614 0.0
O233 O 0.94128 0.65188 0.6518 0.0
H234 H 0.22266 0.34331 0.15407 0.0
N235 N 0.19786 0.31549 0.1319 0.0
H236 H 0.23479 0.34498 0.19257 0.0
H237 H 0.18843 0.29154 0.16329 0.0
H238 H 0.20105 0.29314 0.20215 0.0
H239 H 0.20302 0.2938 0.10961 0.0
H240 H 0.22671 0.29969 0.08588 0.0
H241 H 0.21947 0.34537 0.11264 0.0
H242 H 0.24377 0.35157 0.0903 0.0
H243 H 0.19967 0.34377 0.14983 0.0
H244 H 0.17123 0.30025 0.10529 0.0
H245 H 0.17975 0.3512 0.14532 0.0
H246 H 0.15149 0.30831 0.09916 0.0
H247 H 0.11922 0.37372 0.14829 0.0
H248 H 0.10562 0.37257 0.18624 0.0
H249 H 0.08253 0.31967 0.18491 0.0
H250 H 0.09629 0.32097 0.14733 0.0
H251 H 0.08757 0.32173 0.10747 0.0
H252 H 0.06952 0.32127 0.07699 0.0
H253 H 0.10596 0.37097 0.05831 0.0
H254 H 0.12355 0.37152 0.08978 0.0
H255 H 0.14802 0.36871 0.12143 0.0
H256 H 0.16854 0.36133 0.12041 0.0
H257 H 0.13077 0.3098 0.11808 0.0
N258 N 0.11626 0.34872 0.12193 0.0
H259 H 0.11051 0.31751 0.117 0.0
C260 C 0.20427 0.31728 0.15584 0.0
C261 C 0.21745 0.33232 0.16452 0.0
C262 C 0.22447 0.33329 0.18663 0.0
C263 C 0.21879 0.31922 0.20038 0.0
C264 C 0.20562 0.30418 0.19187 0.0
C265 C 0.19837 0.30328 0.16984 0.0
C266 C 0.20966 0.31911 0.11331 0.0
C267 C 0.21161 0.30637 0.1047 0.0
C268 C 0.22527 0.30981 0.09143 0.0
C269 C 0.23743 0.32617 0.08686 0.0
C270 C 0.23472 0.33884 0.09357 0.0
C271 C 0.22086 0.33532 0.10652 0.0
C272 C 0.18689 0.32114 0.12824 0.0
C273 C 0.18926 0.3358 0.13884 0.0
C274 C 0.1778 0.34022 0.13594 0.0
C275 C 0.16387 0.33039 0.12186 0.0
C276 C 0.16184 0.31605 0.11055 0.0
C277 C 0.17319 0.31147 0.11384 0.0
C278 C 0.10888 0.34752 0.145 0.0
C279 C 0.11134 0.36192 0.15638 0.0
C280 C 0.10347 0.36121 0.17791 0.0
C281 C 0.09292 0.34601 0.18852 0.0
C282 C 0.0907 0.33158 0.17732 0.0
C283 C 0.09856 0.33231 0.15573 0.0
C284 C 0.10677 0.34683 0.10116 0.0
C285 C 0.09174 0.33243 0.09661 0.0
C286 C 0.08147 0.33215 0.07899 0.0
C287 C 0.08615 0.34621 0.06546 0.0
C288 C 0.10178 0.36008 0.0688 0.0
C289 C 0.11192 0.36039 0.08658 0.0
C290 C 0.12782 0.34371 0.11988 0.0
C291 C 0.14426 0.35585 0.12044 0.0
C292 C 0.15594 0.35155 0.12011 0.0
C293 C 0.1514 0.33492 0.11971 0.0
C294 C 0.13481 0.32273 0.1183 0.0
C295 C 0.12314 0.3271 0.11809 0.0
H296 H 0.72464 0.79025 0.13236 0.0
N297 N 0.70272 0.79493 0.11251 0.0
H298 H 0.72295 0.7778 0.17099 0.0
H299 H 0.67873 0.78568 0.14603 0.0
H300 H 0.6766 0.77271 0.18409 0.0
H301 H 0.67318 0.76602 0.11191 0.0
H302 H 0.66459 0.74318 0.08384 0.0
H303 H 0.71652 0.79534 0.07069 0.0
H304 H 0.7073 0.77287 0.04089 0.0
H305 H 0.72414 0.82642 0.12102 0.0
H306 H 0.67423 0.79307 0.10181 0.0
H307 H 0.71994 0.84942 0.12112 0.0
H308 H 0.67004 0.8161 0.10055 0.0
H309 H 0.71127 0.91243 0.14997 0.0
H310 H 0.70721 0.92316 0.18827 0.0
H311 H 0.65561 0.89017 0.18074 0.0
H312 H 0.65979 0.87965 0.14263 0.0
H313 H 0.65884 0.88076 0.10078 0.0
H314 H 0.65234 0.89726 0.07587 0.0
H315 H 0.70334 0.93329 0.06875 0.0
H316 H 0.70952 0.91723 0.09496 0.0
H317 H 0.71322 0.89011 0.10096 0.0
H318 H 0.71593 0.86619 0.09622 0.0
H319 H 0.66781 0.83546 0.12506 0.0
N320 N 0.68853 0.89116 0.11953 0.0
H321 H 0.66495 0.85938 0.12819 0.0
C322 C 0.7019 0.78892 0.13631 0.0
C323 C 0.71427 0.78666 0.14382 0.0
C324 C 0.71318 0.7794 0.16577 0.0
C325 C 0.69958 0.77413 0.18062 0.0
C326 C 0.68736 0.77681 0.17331 0.0
C327 C 0.68852 0.78418 0.15145 0.0
C328 C 0.69582 0.78231 0.09381 0.0
C329 C 0.68074 0.7677 0.09651 0.0
C330 C 0.67569 0.75461 0.08005 0.0
C331 C 0.68532 0.75594 0.06005 0.0
C332 C 0.69976 0.77112 0.05639 0.0
C333 C 0.70499 0.78408 0.07324 0.0
C334 C 0.69965 0.80811 0.11114 0.0
C335 C 0.71233 0.82414 0.11642 0.0
C336 C 0.7099 0.83728 0.11627 0.0
C337 C 0.69467 0.83472 0.11054 0.0
C338 C 0.68189 0.81856 0.10521 0.0
C339 C 0.68432 0.80535 0.10567 0.0
C340 C 0.68589 0.8953 0.14349 0.0
C341 C 0.69913 0.90731 0.15693 0.0
C342 C 0.69678 0.91339 0.17875 0.0
C343 C 0.68108 0.9076 0.18739 0.0
C344 C 0.66784 0.89503 0.17437 0.0
C345 C 0.67022 0.88891 0.15263 0.0
C346 C 0.68465 0.89809 0.10015 0.0
C347 C 0.66858 0.89211 0.09357 0.0
C348 C 0.66491 0.90149 0.07912 0.0
C349 C 0.67731 0.91683 0.07082 0.0
C350 C 0.69347 0.9218 0.07543 0.0
C351 C 0.69706 0.91257 0.09015 0.0
C352 C 0.68904 0.87656 0.11524 0.0
C353 C 0.70321 0.87814 0.10591 0.0
C354 C 0.70477 0.86447 0.10348 0.0
C355 C 0.69222 0.84888 0.11074 0.0
C356 C 0.67772 0.84722 0.1192 0.0
C357 C 0.67609 0.86093 0.12124 0.0
H358 H 0.118 0.74542 0.14973 0.0
N359 N 0.12477 0.77163 0.12499 0.0
H360 H 0.09967 0.73392 0.18406 0.0
H361 H 0.11018 0.78583 0.14907 0.0
H362 H 0.09192 0.77446 0.1836 0.0
H363 H 0.10002 0.77423 0.10773 0.0
H364 H 0.07993 0.75577 0.07812 0.0
H365 H 0.12631 0.74975 0.09645 0.0
H366 H 0.10595 0.73074 0.06744 0.0
H367 H 0.14949 0.78853 0.15497 0.0
H368 H 0.12766 0.79452 0.09207 0.0
H369 H 0.16999 0.81775 0.15516 0.0
H370 H 0.14844 0.82338 0.09164 0.0
H371 H 0.23834 0.89634 0.14041 0.0
H372 H 0.25129 0.90619 0.17923 0.0
H373 H 0.21023 0.90819 0.20543 0.0
H374 H 0.1978 0.89938 0.16556 0.0
H375 H 0.22101 0.9223 0.11103 0.0
H376 H 0.24347 0.93748 0.08329 0.0
H377 H 0.24498 0.89362 0.0691 0.0
H378 H 0.22308 0.87876 0.0972 0.0
H379 H 0.21352 0.86666 0.13657 0.0
H380 H 0.19304 0.83748 0.13457 0.0
H381 H 0.15777 0.84897 0.11193 0.0
N382 N 0.20933 0.89213 0.12661 0.0
H383 H 0.17871 0.87826 0.11289 0.0
C384 C 0.11551 0.76646 0.14695 0.0
C385 C 0.11252 0.75192 0.15729 0.0
C386 C 0.10198 0.74534 0.17671 0.0
C387 C 0.09432 0.75326 0.18633 0.0
C388 C 0.09775 0.76817 0.17657 0.0
C389 C 0.10816 0.77466 0.15689 0.0
C390 C 0.11473 0.76338 0.10422 0.0
C391 C 0.10165 0.76509 0.09848 0.0
C392 C 0.09009 0.75441 0.08168 0.0
C393 C 0.09117 0.74159 0.07063 0.0
C394 C 0.10479 0.74056 0.07536 0.0
C395 C 0.11645 0.75138 0.09197 0.0
C396 C 0.13671 0.78909 0.12393 0.0
C397 C 0.14909 0.79609 0.14118 0.0
C398 C 0.16093 0.81281 0.1411 0.0
C399 C 0.16092 0.82299 0.12337 0.0
C400 C 0.14866 0.81599 0.10584 0.0
C401 C 0.13668 0.79928 0.1061 0.0
C402 C 0.21713 0.89741 0.14985 0.0
C403 C 0.23214 0.89906 0.15432 0.0
C404 C 0.23948 0.90451 0.17681 0.0
C405 C 0.23185 0.90801 0.19566 0.0
C406 C 0.21666 0.90595 0.19129 0.0
C407 C 0.20945 0.90079 0.16859 0.0
C408 C 0.22027 0.89942 0.10653 0.0
C409 C 0.22595 0.91588 0.1015 0.0
C410 C 0.23878 0.92452 0.08558 0.0
C411 C 0.24618 0.91681 0.07419 0.0
C412 C 0.23978 0.90001 0.07796 0.0
C413 C 0.22704 0.89141 0.09401 0.0
C414 C 0.19765 0.87468 0.12469 0.0
C415 C 0.20144 0.86292 0.13094 0.0
C416 C 0.18962 0.84619 0.13001 0.0
C417 C 0.17367 0.8408 0.12326 0.0
C418 C 0.16996 0.85261 0.11688 0.0
C419 C 0.18186 0.86936 0.11752 0.0
H420 H 0.34079 0.23912 0.87759 0.0
N421 N 0.31535 0.21227 0.89897 0.0
H422 H 0.34055 0.25031 0.83914 0.0
H423 H 0.29112 0.2001 0.8674 0.0
H424 H 0.29089 0.21115 0.82818 0.0
H425 H 0.29671 0.22043 0.92299 0.0
H426 H 0.30526 0.24358 0.95141 0.0
H427 H 0.34583 0.23191 0.91776 0.0
H428 H 0.35456 0.2553 0.94563 0.0
H429 H 0.34044 0.21287 0.87392 0.0
H430 H 0.30398 0.18685 0.92781 0.0
H431 H 0.34864 0.19312 0.87597 0.0
H432 H 0.31306 0.16751 0.93141 0.0
H433 H 0.37005 0.12599 0.86987 0.0
H434 H 0.36415 0.10974 0.83264 0.0
H435 H 0.31568 0.10079 0.83313 0.0
H436 H 0.32138 0.11609 0.87094 0.0
H437 H 0.32259 0.10181 0.90988 0.0
H438 H 0.32169 0.08149 0.93646 0.0
H439 H 0.37248 0.11425 0.95212 0.0
H440 H 0.3731 0.1347 0.92597 0.0
H441 H 0.36912 0.16264 0.89345 0.0
H442 H 0.3619 0.1835 0.89727 0.0
H443 H 0.31248 0.14541 0.91233 0.0
N444 N 0.34986 0.1304 0.8967 0.0
H445 H 0.32023 0.12502 0.91046 0.0
C446 C 0.31588 0.21871 0.87553 0.0
C447 C 0.32981 0.23287 0.86706 0.0
C448 C 0.32972 0.2392 0.84485 0.0
C449 C 0.31572 0.23159 0.83053 0.0
C450 C 0.30183 0.21736 0.83888 0.0
C451 C 0.30196 0.21098 0.86116 0.0
C452 C 0.32056 0.22448 0.91817 0.0
C453 C 0.30929 0.22781 0.9283 0.0
C454 C 0.31423 0.2411 0.94435 0.0
C455 C 0.33063 0.25141 0.95051 0.0
C456 C 0.34183 0.24754 0.94137 0.0
C457 C 0.33685 0.23419 0.92535 0.0
C458 C 0.32122 0.2012 0.9004 0.0
C459 C 0.33419 0.20299 0.88638 0.0
C460 C 0.33911 0.1917 0.88786 0.0
C461 C 0.33156 0.17859 0.90387 0.0
C462 C 0.31897 0.17718 0.91847 0.0
C463 C 0.31382 0.18829 0.91659 0.0
C464 C 0.34634 0.12251 0.87318 0.0
C465 C 0.35824 0.12068 0.86171 0.0
C466 C 0.35483 0.11144 0.84034 0.0
C467 C 0.33941 0.10393 0.82972 0.0
C468 C 0.32761 0.10616 0.84091 0.0
C469 C 0.33096 0.11519 0.86252 0.0
C470 C 0.34797 0.11982 0.916 0.0
C471 C 0.33337 0.10489 0.91971 0.0
C472 C 0.33293 0.09318 0.9347 0.0
C473 C 0.34708 0.09615 0.94613 0.0
C474 C 0.36134 0.1116 0.94376 0.0
C475 C 0.36175 0.12331 0.92882 0.0
C476 C 0.34523 0.14229 0.90121 0.0
C477 C 0.3568 0.15891 0.89795 0.0
C478 C 0.35256 0.17077 0.89986 0.0
C479 C 0.33647 0.16619 0.90459 0.0
C480 C 0.325 0.14952 0.90883 0.0
C481 C 0.32938 0.13773 0.90748 0.0
H482 H 0.76569 0.14012 0.87067 0.0
N483 N 0.77456 0.12995 0.90797 0.0
H484 H 0.75567 0.12603 0.83162 0.0
H485 H 0.77319 0.1017 0.8925 0.0
H486 H 0.76378 0.0879 0.85351 0.0
H487 H 0.77565 0.10684 0.93456 0.0
H488 H 0.75434 0.0875 0.96145 0.0
H489 H 0.74962 0.13136 0.92433 0.0
H490 H 0.72841 0.11228 0.95153 0.0
H491 H 0.78918 0.16139 0.92109 0.0
H492 H 0.79823 0.12239 0.90656 0.0
H493 H 0.81815 0.1809 0.92645 0.0
H494 H 0.82717 0.14183 0.91079 0.0
H495 H 0.89669 0.23761 0.8999 0.0
H496 H 0.90705 0.24963 0.86092 0.0
H497 H 0.91551 0.21058 0.84234 0.0
H498 H 0.90498 0.19843 0.88179 0.0
H499 H 0.92176 0.21858 0.93758 0.0
H500 H 0.93669 0.24108 0.96689 0.0
H501 H 0.89657 0.24857 0.97093 0.0
H502 H 0.88203 0.22656 0.94121 0.0
H503 H 0.86971 0.2138 0.90024 0.0
H504 H 0.84096 0.19398 0.90075 0.0
H505 H 0.84935 0.15973 0.93703 0.0
N506 N 0.89378 0.20943 0.91679 0.0
H507 H 0.87855 0.17965 0.93554 0.0
C508 C 0.77022 0.12207 0.8845 0.0
C509 C 0.76545 0.12882 0.86685 0.0
C510 C 0.75981 0.12078 0.84454 0.0
C511 C 0.75886 0.10579 0.83946 0.0
C512 C 0.76413 0.0993 0.85696 0.0
C513 C 0.76969 0.1073 0.87927 0.0
C514 C 0.76406 0.12042 0.92722 0.0
C515 C 0.76551 0.10826 0.93843 0.0
C516 C 0.75333 0.09722 0.95379 0.0
C517 C 0.73967 0.09833 0.95844 0.0
C518 C 0.73884 0.1112 0.94846 0.0
C519 C 0.7509 0.12208 0.93291 0.0
C520 C 0.79153 0.14053 0.91313 0.0
C521 C 0.79744 0.15705 0.91917 0.0
C522 C 0.814 0.16818 0.92201 0.0
C523 C 0.82506 0.16301 0.91866 0.0
C524 C 0.81903 0.14624 0.91363 0.0
C525 C 0.80242 0.13508 0.911 0.0
C526 C 0.89996 0.21697 0.89381 0.0
C527 C 0.90071 0.23154 0.88757 0.0
C528 C 0.9066 0.2384 0.86517 0.0
C529 C 0.912 0.23099 0.84854 0.0
C530 C 0.91149 0.21659 0.85487 0.0
C531 C 0.90543 0.20961 0.87727 0.0
C532 C 0.90082 0.22081 0.93705 0.0
C533 C 0.91608 0.22487 0.94521 0.0
C534 C 0.92455 0.23769 0.96204 0.0
C535 C 0.91787 0.24673 0.97113 0.0
C536 C 0.90217 0.24202 0.964 0.0
C537 C 0.89375 0.22927 0.94707 0.0
C538 C 0.87646 0.19817 0.91762 0.0
C539 C 0.86554 0.20206 0.90821 0.0
C540 C 0.84894 0.19071 0.9088 0.0
C541 C 0.84277 0.17523 0.919 0.0
C542 C 0.85368 0.17145 0.92876 0.0
C543 C 0.87034 0.18283 0.92805 0.0
H544 H 0.78839 0.71526 0.88318 0.0
N545 N 0.79291 0.69414 0.90657 0.0
H546 H 0.77706 0.71182 0.8429 0.0
H547 H 0.78367 0.66793 0.87552 0.0
H548 H 0.77179 0.66405 0.83575 0.0
H549 H 0.76427 0.66425 0.90799 0.0
H550 H 0.74266 0.65646 0.93666 0.0
H551 H 0.79444 0.70953 0.94793 0.0
H552 H 0.77332 0.70115 0.97827 0.0
H553 H 0.82348 0.7176 0.90069 0.0
H554 H 0.79308 0.66651 0.91805 0.0
H555 H 0.8473 0.71537 0.90249 0.0
H556 H 0.81695 0.66421 0.92086 0.0
H557 H 0.9104 0.71116 0.87084 0.0
H558 H 0.91991 0.70668 0.83199 0.0
H559 H 0.89136 0.65422 0.84212 0.0
H560 H 0.88223 0.65878 0.8808 0.0
H561 H 0.87835 0.65845 0.92369 0.0
H562 H 0.89286 0.64833 0.94602 0.0
H563 H 0.93581 0.69694 0.94564 0.0
H564 H 0.92137 0.70676 0.92277 0.0
H565 H 0.88913 0.71186 0.92404 0.0
H566 H 0.86443 0.71247 0.92874 0.0
H567 H 0.83702 0.66377 0.89603 0.0
N568 N 0.89245 0.68863 0.90301 0.0
H569 H 0.86162 0.663 0.89264 0.0
C570 C 0.78685 0.69191 0.88236 0.0
C571 C 0.7849 0.70414 0.87274 0.0
C572 C 0.77831 0.70207 0.84982 0.0
C573 C 0.77339 0.68759 0.83608 0.0
C574 C 0.77562 0.67544 0.84564 0.0
C575 C 0.78235 0.6776 0.86849 0.0
C576 C 0.78088 0.68781 0.92536 0.0
C577 C 0.7664 0.67244 0.92318 0.0
C578 C 0.75402 0.66785 0.93998 0.0
C579 C 0.75598 0.67826 0.95981 0.0
C580 C 0.77104 0.69302 0.9629 0.0
C581 C 0.78325 0.69778 0.94573 0.0
C582 C 0.8066 0.69233 0.90938 0.0
C583 C 0.82203 0.70596 0.90529 0.0
C584 C 0.83563 0.70465 0.90651 0.0
C585 C 0.83412 0.68963 0.91205 0.0
C586 C 0.81857 0.67593 0.91638 0.0
C587 C 0.80491 0.67725 0.91497 0.0
C588 C 0.89561 0.68539 0.87874 0.0
C589 C 0.90596 0.6987 0.86436 0.0
C590 C 0.91136 0.69611 0.84221 0.0
C591 C 0.90652 0.68009 0.83413 0.0
C592 C 0.89551 0.66672 0.84804 0.0
C593 C 0.89013 0.66932 0.87013 0.0
C594 C 0.89893 0.68334 0.92129 0.0
C595 C 0.89076 0.66699 0.92894 0.0
C596 C 0.89905 0.66124 0.94177 0.0
C597 C 0.91556 0.67178 0.94711 0.0
C598 C 0.92319 0.68846 0.94135 0.0
C599 C 0.91494 0.69414 0.92851 0.0
C600 C 0.87733 0.68758 0.90766 0.0
C601 C 0.87773 0.70124 0.91827 0.0
C602 C 0.86361 0.7016 0.9207 0.0
C603 C 0.84873 0.6883 0.9123 0.0
C604 C 0.84822 0.67422 0.90277 0.0
C605 C 0.86237 0.67382 0.9006 0.0
H606 H 0.73933 0.62266 0.49322 0.0
N607 N 0.76378 0.64064 0.46385 0.0
H608 H 0.73431 0.63058 0.533 0.0
H609 H 0.78367 0.66965 0.48814 0.0
H610 H 0.77836 0.67816 0.52721 0.0
H611 H 0.76846 0.67105 0.45539 0.0
H612 H 0.75402 0.67709 0.42653 0.0
H613 H 0.74474 0.62093 0.42853 0.0
H614 H 0.73104 0.6272 0.39798 0.0
H615 H 0.77157 0.61983 0.47943 0.0
H616 H 0.79052 0.66433 0.43969 0.0
H617 H 0.79715 0.6212 0.47502 0.0
H618 H 0.8158 0.66516 0.43342 0.0
H619 H 0.87571 0.62491 0.4746 0.0
H620 H 0.89089 0.6306 0.51205 0.0
H621 H 0.89156 0.67597 0.5219 0.0
H622 H 0.87686 0.67043 0.48444 0.0
H623 H 0.89276 0.67637 0.44664 0.0
H624 H 0.91648 0.6849 0.42156 0.0
H625 H 0.89365 0.63584 0.39003 0.0
H626 H 0.87032 0.62722 0.41633 0.0
H627 H 0.83884 0.61821 0.44985 0.0
H628 H 0.8133 0.61724 0.44906 0.0
H629 H 0.83954 0.67048 0.45103 0.0
N630 N 0.86829 0.64445 0.45286 0.0
H631 H 0.86494 0.67111 0.44942 0.0
C632 C 0.7617 0.64558 0.48767 0.0
C633 C 0.74793 0.63472 0.50074 0.0
C634 C 0.74504 0.63936 0.52336 0.0
C635 C 0.7558 0.65513 0.53327 0.0
C636 C 0.76986 0.66588 0.52032 0.0
C637 C 0.77285 0.6611 0.49783 0.0
C638 C 0.75731 0.64532 0.44462 0.0
C639 C 0.7603 0.66135 0.44305 0.0
C640 C 0.75216 0.66488 0.42612 0.0
C641 C 0.74113 0.6526 0.40995 0.0
C642 C 0.73907 0.63687 0.41052 0.0
C643 C 0.74699 0.63328 0.4278 0.0
C644 C 0.77899 0.64176 0.45969 0.0
C645 C 0.7812 0.62973 0.46933 0.0
C646 C 0.79583 0.63048 0.46653 0.0
C647 C 0.80861 0.64316 0.45348 0.0
C648 C 0.80636 0.65528 0.44375 0.0
C649 C 0.79178 0.65472 0.44708 0.0
C650 C 0.87505 0.64712 0.47666 0.0
C651 C 0.87888 0.63591 0.48514 0.0
C652 C 0.88753 0.63918 0.50653 0.0
C653 C 0.89253 0.6538 0.51987 0.0
C654 C 0.8881 0.66472 0.51185 0.0
C655 C 0.87949 0.66145 0.49044 0.0
C656 C 0.87995 0.651 0.43374 0.0
C657 C 0.89268 0.66755 0.43394 0.0
C658 C 0.90624 0.67245 0.41941 0.0
C659 C 0.90716 0.66093 0.40421 0.0
C660 C 0.89353 0.6449 0.40205 0.0
C661 C 0.88012 0.63997 0.41683 0.0
C662 C 0.8537 0.64465 0.45035 0.0
C663 C 0.83899 0.62962 0.44976 0.0
C664 C 0.82441 0.62915 0.44963 0.0
C665 C 0.82422 0.64379 0.45071 0.0
C666 C 0.8391 0.65892 0.45019 0.0
C667 C 0.85371 0.65934 0.44966 0.0
H668 H 0.37241 0.11573 0.46805 0.0
N669 N 0.35397 0.12529 0.44886 0.0
H670 H 0.36798 0.10131 0.50556 0.0
H671 H 0.33092 0.11967 0.48286 0.0
H672 H 0.32694 0.10621 0.52086 0.0
H673 H 0.32151 0.10364 0.44248 0.0
H674 H 0.3093 0.07924 0.41585 0.0
H675 H 0.36862 0.11833 0.41438 0.0
H676 H 0.35649 0.0937 0.38806 0.0
H677 H 0.38066 0.15442 0.44421 0.0
H678 H 0.32887 0.13074 0.44776 0.0
H679 H 0.38324 0.1812 0.44268 0.0
H680 H 0.33127 0.15736 0.44822 0.0
H681 H 0.38066 0.26105 0.48516 0.0
H682 H 0.37292 0.26674 0.5246 0.0
H683 H 0.32779 0.21991 0.52015 0.0
H684 H 0.33585 0.21419 0.48115 0.0
H685 H 0.33389 0.23081 0.4488 0.0
H686 H 0.32762 0.2449 0.41958 0.0
H687 H 0.37556 0.26581 0.38941 0.0
H688 H 0.38214 0.25256 0.42033 0.0
H689 H 0.38408 0.22653 0.47146 0.0
H690 H 0.38153 0.19981 0.46796 0.0
H691 H 0.33705 0.18076 0.42802 0.0
N692 N 0.36362 0.23478 0.45655 0.0
H693 H 0.33919 0.20724 0.43318 0.0
C694 C 0.35217 0.11895 0.47263 0.0
C695 C 0.36261 0.11387 0.47973 0.0
C696 C 0.36007 0.10568 0.50125 0.0
C697 C 0.34705 0.10251 0.51632 0.0
C698 C 0.33692 0.10815 0.50955 0.0
C699 C 0.33933 0.11612 0.48783 0.0
C700 C 0.34602 0.11291 0.4302 0.0
C701 C 0.32917 0.10198 0.42996 0.0
C702 C 0.32219 0.08799 0.41481 0.0
C703 C 0.332 0.08461 0.40006 0.0
C704 C 0.3487 0.09604 0.39933 0.0
C705 C 0.35562 0.11011 0.4142 0.0
C706 C 0.35468 0.14062 0.44655 0.0
C707 C 0.36985 0.15505 0.4448 0.0
C708 C 0.37128 0.17035 0.44419 0.0
C709 C 0.35748 0.17159 0.4458 0.0
C710 C 0.34218 0.15699 0.44677 0.0
C711 C 0.34078 0.14166 0.44685 0.0
C712 C 0.35891 0.23726 0.48025 0.0
C713 C 0.36918 0.25199 0.49287 0.0
C714 C 0.36466 0.25525 0.51528 0.0
C715 C 0.34968 0.24382 0.52549 0.0
C716 C 0.33949 0.2289 0.51296 0.0
C717 C 0.34406 0.22563 0.49058 0.0
C718 C 0.35872 0.24101 0.43723 0.0
C719 C 0.34311 0.23844 0.43601 0.0
C720 C 0.33944 0.24638 0.41888 0.0
C721 C 0.35112 0.25673 0.40211 0.0
C722 C 0.36637 0.25834 0.40238 0.0
C723 C 0.37013 0.25065 0.41988 0.0
C724 C 0.36202 0.21901 0.45241 0.0
C725 C 0.37384 0.21657 0.46185 0.0
C726 C 0.3724 0.20128 0.45962 0.0
C727 C 0.35914 0.18803 0.44748 0.0
C728 C 0.34733 0.19056 0.43774 0.0
C729 C 0.34865 0.20582 0.44041 0.0
H730 H 0.77702 0.09939 0.48187 0.0
N731 N 0.77786 0.12466 0.45849 0.0
H732 H 0.76416 0.08827 0.5203 0.0
H733 H 0.76391 0.13601 0.48812 0.0
H734 H 0.75117 0.12506 0.5271 0.0
H735 H 0.74877 0.10957 0.43859 0.0
H736 H 0.73627 0.08501 0.41279 0.0
H737 H 0.79334 0.11 0.43786 0.0
H738 H 0.78142 0.08626 0.41046 0.0
H739 H 0.80294 0.12614 0.48346 0.0
H740 H 0.79157 0.151 0.43111 0.0
H741 H 0.8311 0.14779 0.48225 0.0
H742 H 0.82022 0.17241 0.42851 0.0
H743 H 0.91667 0.21364 0.48977 0.0
H744 H 0.92707 0.22924 0.52763 0.0
H745 H 0.89474 0.24719 0.521 0.0
H746 H 0.8849 0.23206 0.48291 0.0
H747 H 0.89627 0.24019 0.44281 0.0
H748 H 0.91523 0.25859 0.4127 0.0
H749 H 0.93394 0.22657 0.40314 0.0
H750 H 0.91476 0.20816 0.43306 0.0
H751 H 0.88295 0.18118 0.4628 0.0
H752 H 0.85462 0.1591 0.45991 0.0
H753 H 0.84134 0.19516 0.4489 0.0
N754 N 0.8952 0.21321 0.46046 0.0
H755 H 0.8698 0.21689 0.45001 0.0
C756 C 0.77142 0.1186 0.48208 0.0
C757 C 0.77153 0.10518 0.49166 0.0
C758 C 0.76423 0.09887 0.51375 0.0
C759 C 0.75664 0.10578 0.52679 0.0
C760 C 0.75677 0.11936 0.51738 0.0
C761 C 0.76413 0.1257 0.49525 0.0
C762 C 0.77197 0.11177 0.44014 0.0
C763 C 0.756 0.10465 0.43219 0.0
C764 C 0.74892 0.09061 0.41725 0.0
C765 C 0.75777 0.08348 0.40938 0.0
C766 C 0.77407 0.09112 0.41646 0.0
C767 C 0.78103 0.10495 0.43193 0.0
C768 C 0.79492 0.13706 0.45766 0.0
C769 C 0.80643 0.13622 0.4716 0.0
C770 C 0.82274 0.1486 0.4706 0.0
C771 C 0.82809 0.16196 0.45524 0.0
C772 C 0.81659 0.16254 0.4409 0.0
C773 C 0.80021 0.15026 0.44221 0.0
C774 C 0.89997 0.22154 0.48357 0.0
C775 C 0.91175 0.22083 0.49668 0.0
C776 C 0.9176 0.22969 0.51836 0.0
C777 C 0.91171 0.23946 0.52745 0.0
C778 C 0.89968 0.23995 0.51442 0.0
C779 C 0.89391 0.23114 0.49265 0.0
C780 C 0.90417 0.2228 0.44017 0.0
C781 C 0.90417 0.23693 0.43384 0.0
C782 C 0.91511 0.24751 0.41673 0.0
C783 C 0.9262 0.24413 0.40566 0.0
C784 C 0.92548 0.22947 0.4111 0.0
C785 C 0.91457 0.21896 0.42822 0.0
C786 C 0.87847 0.20064 0.45707 0.0
C787 C 0.87388 0.18422 0.45949 0.0
C788 C 0.85764 0.17166 0.45809 0.0
C789 C 0.84553 0.17528 0.45464 0.0
C790 C 0.85025 0.19181 0.45145 0.0
C791 C 0.86658 0.20435 0.45242 0.0
H792 H 0.01366 0.58427 0.20932 0.0
N793 N 0.98929 0.55829 0.23372 0.0
H794 H 0.01175 0.59393 0.17057 0.0
H795 H 0.96365 0.54503 0.20451 0.0
H796 H 0.96182 0.55431 0.16461 0.0
H797 H 0.97535 0.57208 0.25747 0.0
H798 H 0.9886 0.59767 0.28134 0.0
H799 H 0.02096 0.57499 0.24923 0.0
H800 H 0.03416 0.60022 0.27368 0.0
H801 H 0.01286 0.55731 0.20686 0.0
H802 H 0.97696 0.53235 0.26182 0.0
H803 H 0.01977 0.53645 0.20764 0.0
H804 H 0.98458 0.51173 0.26383 0.0
H805 H 0.04254 0.47246 0.20462 0.0
H806 H 0.03843 0.45673 0.16706 0.0
H807 H 0.98754 0.43962 0.16939 0.0
H808 H 0.99179 0.4555 0.20654 0.0
H809 H 0.99339 0.44466 0.24497 0.0
H810 H 0.99236 0.4262 0.27518 0.0
H811 H 0.04183 0.46193 0.29494 0.0
H812 H 0.0429 0.48006 0.26381 0.0
H813 H 0.03986 0.50562 0.22754 0.0
H814 H 0.03288 0.52671 0.23004 0.0
H815 H 0.98299 0.48908 0.2431 0.0
N816 N 0.02036 0.47349 0.23152 0.0
H817 H 0.99042 0.46833 0.24217 0.0
C818 C 0.98868 0.56391 0.21008 0.0
C819 C 0.00223 0.57764 0.19992 0.0
C820 C 0.00118 0.58307 0.17746 0.0
C821 C 0.98666 0.57483 0.16431 0.0
C822 C 0.97314 0.56102 0.17435 0.0
C823 C 0.97418 0.55564 0.19703 0.0
C824 C 0.99702 0.57153 0.25149 0.0
C825 C 0.98811 0.57796 0.26146 0.0
C826 C 0.99573 0.59258 0.27516 0.0
C827 C 0.0125 0.60109 0.27929 0.0
C828 C 0.02128 0.59412 0.27053 0.0
C829 C 0.01366 0.57952 0.25672 0.0
C830 C 0.99408 0.5463 0.23406 0.0
C831 C 0.00642 0.54737 0.21918 0.0
C832 C 0.01057 0.53545 0.2199 0.0
C833 C 0.00279 0.52234 0.23585 0.0
C834 C 0.99066 0.52145 0.25101 0.0
C835 C 0.98634 0.53328 0.25003 0.0
C836 C 0.01757 0.46525 0.2084 0.0
C837 C 0.03056 0.46548 0.19679 0.0
C838 C 0.02815 0.4564 0.17548 0.0
C839 C 0.01263 0.44684 0.16534 0.0
C840 C 0.99967 0.44698 0.17662 0.0
C841 C 0.0021 0.45605 0.19799 0.0
C842 C 0.01836 0.46368 0.25194 0.0
C843 C 0.00393 0.44866 0.25602 0.0
C844 C 0.00334 0.43812 0.27348 0.0
C845 C 0.0171 0.44246 0.28731 0.0
C846 C 0.03113 0.45803 0.28426 0.0
C847 C 0.03174 0.46848 0.26667 0.0
C848 C 0.01568 0.48545 0.23428 0.0
C849 C 0.02746 0.50202 0.23115 0.0
C850 C 0.02338 0.51401 0.23235 0.0
C851 C 0.00728 0.50963 0.23636 0.0
C852 C 0.99552 0.49298 0.24013 0.0
C853 C 0.99971 0.48101 0.2393 0.0
H854 H 0.56877 0.55949 0.22449 0.0
N855 N 0.54328 0.56244 0.23905 0.0
H856 H 0.58344 0.56854 0.18682 0.0
H857 H 0.5364 0.57462 0.20187 0.0
H858 H 0.55134 0.58416 0.16406 0.0
H859 H 0.54651 0.59007 0.2567 0.0
H860 H 0.56773 0.61018 0.28395 0.0
H861 H 0.56325 0.55679 0.26568 0.0
H862 H 0.58503 0.57722 0.29211 0.0
H863 H 0.54271 0.53435 0.22354 0.0
H864 H 0.51666 0.55184 0.26507 0.0
H865 H 0.52032 0.50642 0.22691 0.0
H866 H 0.49449 0.52353 0.27031 0.0
H867 H 0.44679 0.42137 0.21106 0.0
H868 H 0.43669 0.4131 0.16976 0.0
H869 H 0.43295 0.45604 0.16518 0.0
H870 H 0.44325 0.46431 0.20577 0.0
H871 H 0.4248 0.45185 0.23919 0.0
H872 H 0.39996 0.43566 0.26175 0.0
H873 H 0.41922 0.40833 0.29213 0.0
H874 H 0.44437 0.42499 0.26984 0.0
H875 H 0.48072 0.45546 0.24235 0.0
H876 H 0.50436 0.48311 0.24829 0.0
H877 H 0.47319 0.50285 0.24883 0.0
N878 N 0.45021 0.4469 0.23676 0.0
H879 H 0.44983 0.47527 0.24497 0.0
C880 C 0.55137 0.56634 0.21604 0.0
C881 C 0.56475 0.56472 0.21141 0.0
C882 C 0.57323 0.57001 0.18983 0.0
C883 C 0.56866 0.57719 0.17244 0.0
C884 C 0.55508 0.5785 0.17691 0.0
C885 C 0.54655 0.57311 0.1985 0.0
C886 C 0.55352 0.57215 0.25887 0.0
C887 C 0.55454 0.58698 0.26505 0.0
C888 C 0.56662 0.59841 0.28059 0.0
C889 C 0.57805 0.59527 0.28989 0.0
C890 C 0.57639 0.57993 0.285 0.0
C891 C 0.56403 0.56832 0.26987 0.0
C892 C 0.5313 0.54544 0.2436 0.0
C893 C 0.53233 0.53227 0.2338 0.0
C894 C 0.51943 0.51607 0.23604 0.0
C895 C 0.50533 0.51253 0.24865 0.0
C896 C 0.50486 0.52568 0.25983 0.0
C897 C 0.51762 0.54191 0.25711 0.0
C898 C 0.44591 0.44346 0.21162 0.0
C899 C 0.44405 0.42911 0.20091 0.0
C900 C 0.43815 0.42435 0.17743 0.0
C901 C 0.43396 0.43389 0.16418 0.0
C902 C 0.43627 0.44853 0.17471 0.0
C903 C 0.44216 0.45326 0.19813 0.0
C904 C 0.43657 0.43967 0.25287 0.0
C905 C 0.42398 0.44277 0.25121 0.0
C906 C 0.40963 0.43333 0.26397 0.0
C907 C 0.40751 0.42056 0.27853 0.0
C908 C 0.42048 0.41815 0.28125 0.0
C909 C 0.43485 0.42763 0.26851 0.0
C910 C 0.46352 0.46322 0.2428 0.0
C911 C 0.47905 0.46579 0.24423 0.0
C912 C 0.49256 0.48166 0.24735 0.0
C913 C 0.49086 0.49542 0.24862 0.0
C914 C 0.47514 0.49269 0.2482 0.0
C915 C 0.46163 0.47678 0.24563 0.0
H916 H 0.53653 0.95185 0.18445 0.0
N917 N 0.53367 0.97241 0.21408 0.0
H918 H 0.5507 0.95801 0.14581 0.0
H919 H 0.54733 0.00172 0.1907 0.0
H920 H 0.56136 0.0079 0.15204 0.0
H921 H 0.56264 1.00004 0.22633 0.0
H922 H 0.58301 0.00125 0.25276 0.0
H923 H 0.5302 0.94904 0.24276 0.0
H924 H 0.55079 0.94997 0.26876 0.0
H925 H 0.50247 0.95564 0.20369 0.0
H926 H 0.53971 0.00126 0.23642 0.0
H927 H 0.48315 0.9645 0.20891 0.0
H928 H 0.52044 0.00997 0.2424 0.0
H929 H 0.4428 0.98359 0.19233 0.0
H930 H 0.4313 0.98171 0.15292 0.0
H931 H 0.44416 0.03231 0.16073 0.0
H932 H 0.45536 0.03396 0.20063 0.0
H933 H 0.45727 0.02906 0.26085 0.0
H934 H 0.43539 0.02437 0.28828 0.0
H935 H 0.4041 0.97693 0.2538 0.0
H936 H 0.42599 0.98152 0.22707 0.0
H937 H 0.4488 0.97939 0.23609 0.0
H938 H 0.46794 0.97032 0.23738 0.0
H939 H 0.50651 0.01891 0.21793 0.0
N940 N 0.45561 0.01014 0.22372 0.0
H941 H 0.48728 0.02803 0.21744 0.0
C942 C 0.54073 0.9762 0.19038 0.0
C943 C 0.54176 0.96404 0.1773 0.0
C944 C 0.54994 0.96762 0.15539 0.0
C945 C 0.55718 0.98346 0.14603 0.0
C946 C 0.55578 0.99556 0.15878 0.0
C947 C 0.54774 0.99202 0.18088 0.0
C948 C 0.5448 0.97439 0.23263 0.0
C949 C 0.55973 0.98918 0.23606 0.0
C950 C 0.57147 0.98981 0.25099 0.0
C951 C 0.56862 0.97565 0.26261 0.0
C952 C 0.55334 0.96114 0.26024 0.0
C953 C 0.54157 0.96055 0.24538 0.0
C954 C 0.52249 0.97765 0.21967 0.0
C955 C 0.50638 0.96743 0.2124 0.0
C956 C 0.49535 0.9725 0.21554 0.0
C957 C 0.50023 0.98797 0.2261 0.0
C958 C 0.51632 0.99807 0.23394 0.0
C959 C 0.52737 0.99301 0.23069 0.0
C960 C 0.45 0.009 0.19946 0.0
C961 C 0.44332 0.99435 0.18554 0.0
C962 C 0.43679 0.99331 0.16289 0.0
C963 C 0.43678 0.00685 0.15368 0.0
C964 C 0.44379 0.02159 0.16743 0.0
C965 C 0.4503 0.02261 0.1901 0.0
C966 C 0.44333 0.00577 0.24183 0.0
C967 C 0.4458 0.0175 0.25967 0.0
C968 C 0.43325 0.01485 0.27516 0.0
C969 C 0.41794 0.00035 0.27305 0.0
C970 C 0.41577 0.98816 0.25609 0.0
C971 C 0.42832 0.99083 0.24063 0.0
C972 C 0.46664 0.00453 0.22677 0.0
C973 C 0.46138 0.98821 0.2325 0.0
C974 C 0.47236 0.98297 0.23303 0.0
C975 C 0.48878 0.99385 0.22767 0.0
C976 C 0.49402 0.01024 0.22252 0.0
C977 C 0.48306 0.01548 0.22211 0.0
H978 H 0.41357 0.94848 0.82047 0.0
N979 N 0.43107 0.97147 0.7886 0.0
H980 H 0.40325 0.95198 0.85919 0.0
H981 H 0.43814 0.00074 0.81005 0.0
H982 H 0.42747 0.00427 0.8479 0.0
H983 H 0.44957 0.00182 0.76852 0.0
H984 H 0.44008 0.01428 0.7407 0.0
H985 H 0.40277 0.95704 0.7664 0.0
H986 H 0.39303 0.96949 0.73901 0.0
H987 H 0.4369 0.95069 0.76484 0.0
H988 H 0.46035 0.99571 0.80739 0.0
H989 H 0.46255 0.95182 0.76109 0.0
H990 H 0.48575 0.99654 0.80481 0.0
H991 H 0.54271 0.95245 0.79596 0.0
H992 H 0.5549 0.95217 0.83397 0.0
H993 H 0.55229 0.99376 0.86004 0.0
H994 H 0.54035 0.99407 0.82183 0.0
H995 H 0.55772 0.00741 0.78706 0.0
H996 H 0.58203 0.02315 0.76344 0.0
H997 H 0.5692 0.97946 0.72056 0.0
H998 H 0.54407 0.96417 0.74315 0.0
H999 H 0.50576 0.94842 0.78339 0.0
H1000 H 0.48042 0.94797 0.7843 0.0
H1001 H 0.50719 0.00092 0.77921 0.0
N1002 N 0.53557 0.97428 0.78232 0.0
H1003 H 0.5323 0.0013 0.77941 0.0
C1004 C 0.42653 0.97425 0.81227 0.0
C1005 C 0.41682 0.9607 0.82663 0.0
C1006 C 0.41083 0.96272 0.84861 0.0
C1007 C 0.41442 0.9784 0.85663 0.0
C1008 C 0.42461 0.99204 0.84251 0.0
C1009 C 0.43065 0.99002 0.82066 0.0
C1010 C 0.42681 0.97841 0.76952 0.0
C1011 C 0.43734 0.99454 0.76173 0.0
C1012 C 0.43185 0.00172 0.74596 0.0
C1013 C 0.41576 0.99293 0.73773 0.0
C1014 C 0.40555 0.97655 0.74469 0.0
C1015 C 0.41105 0.96941 0.76041 0.0
C1016 C 0.44657 0.97291 0.7866 0.0
C1017 C 0.44758 0.96076 0.77348 0.0
C1018 C 0.46223 0.96138 0.77153 0.0
C1019 C 0.47625 0.97419 0.78284 0.0
C1020 C 0.47528 0.98657 0.79564 0.0
C1021 C 0.46064 0.98602 0.79737 0.0
C1022 C 0.54066 0.97323 0.80604 0.0
C1023 C 0.54453 0.9613 0.81008 0.0
C1024 C 0.55144 0.96114 0.83183 0.0
C1025 C 0.55466 0.97301 0.84999 0.0
C1026 C 0.55017 0.9846 0.84627 0.0
C1027 C 0.54326 0.98473 0.82449 0.0
C1028 C 0.54879 0.98459 0.76654 0.0
C1029 C 0.55971 0.00135 0.77194 0.0
C1030 C 0.5739 0.0103 0.75864 0.0
C1031 C 0.57785 0.00259 0.74022 0.0
C1032 C 0.56657 0.98597 0.73431 0.0
C1033 C 0.55219 0.97714 0.74726 0.0
C1034 C 0.521 0.97477 0.78115 0.0
C1035 C 0.50611 0.9599 0.78232 0.0
C1036 C 0.49163 0.95969 0.7827 0.0
C1037 C 0.4917 0.97442 0.78176 0.0
C1038 C 0.50665 0.98935 0.78031 0.0
C1039 C 0.52114 0.98955 0.78018 0.0
H1040 H 0.98119 0.55347 0.79372 0.0
N1041 N 0.00757 0.55343 0.77523 0.0
H1042 H 0.98014 0.5668 0.83087 0.0
H1043 H 0.03071 0.56885 0.80833 0.0
H1044 H 0.02967 0.58231 0.84604 0.0
H1045 H 0.02651 0.58032 0.75063 0.0
H1046 H 0.01817 0.59313 0.72146 0.0
H1047 H 0.97751 0.53911 0.75464 0.0
H1048 H 0.96904 0.55191 0.72563 0.0
H1049 H 0.98175 0.52797 0.79892 0.0
H1050 H 0.02094 0.53962 0.74998 0.0
H1051 H 0.97461 0.49967 0.79917 0.0
H1052 H 0.01304 0.51075 0.74859 0.0
H1053 H 0.9559 0.40942 0.80791 0.0
H1054 H 0.95997 0.4007 0.84682 0.0
H1055 H 0.00681 0.44537 0.85303 0.0
H1056 H 0.00285 0.45391 0.81434 0.0
H1057 H 0.00467 0.43552 0.7793 0.0
H1058 H 0.00859 0.41718 0.75246 0.0
H1059 H 0.96236 0.40009 0.71938 0.0
H1060 H 0.95821 0.41813 0.74689 0.0
H1061 H 0.95663 0.44671 0.78384 0.0
H1062 H 0.96313 0.47482 0.77875 0.0
H1063 H 0.01362 0.49084 0.77043 0.0
N1064 N 0.97676 0.43592 0.78388 0.0
H1065 H 0.00668 0.4625 0.77362 0.0
C1066 C 0.00618 0.56029 0.79799 0.0
C1067 C 0.9919 0.55974 0.80483 0.0
C1068 C 0.99129 0.56742 0.82615 0.0
C1069 C 0.00487 0.57575 0.84123 0.0
C1070 C 0.01899 0.57593 0.83478 0.0
C1071 C 0.01963 0.5683 0.8133 0.0
C1072 C 0.00269 0.55889 0.75493 0.0
C1073 C 0.01405 0.57386 0.74471 0.0
C1074 C 0.00926 0.58112 0.72804 0.0
C1075 C 0.99293 0.57356 0.72143 0.0
C1076 C 0.98168 0.55806 0.73059 0.0
C1077 C 0.98653 0.55071 0.74708 0.0
C1078 C 0.00222 0.53616 0.77477 0.0
C1079 C 0.98881 0.52449 0.78802 0.0
C1080 C 0.98454 0.50808 0.78786 0.0
C1081 C 0.99323 0.50275 0.77394 0.0
C1082 C 0.00626 0.51436 0.76 0.0
C1083 C 0.01073 0.53087 0.76058 0.0
C1084 C 0.97889 0.43234 0.80813 0.0
C1085 C 0.96692 0.41743 0.81788 0.0
C1086 C 0.96931 0.41243 0.83997 0.0
C1087 C 0.98373 0.42236 0.85288 0.0
C1088 C 0.99551 0.43756 0.84357 0.0
C1089 C 0.9932 0.44246 0.82133 0.0
C1090 C 0.98095 0.42794 0.76535 0.0
C1091 C 0.99548 0.42808 0.76604 0.0
C1092 C 0.99774 0.41762 0.75069 0.0
C1093 C 0.98572 0.4072 0.73404 0.0
C1094 C 0.97182 0.40809 0.73201 0.0
C1095 C 0.96944 0.41832 0.74768 0.0
C1096 C 0.98113 0.45255 0.7795 0.0
C1097 C 0.96905 0.45632 0.78063 0.0
C1098 C 0.97286 0.47246 0.77797 0.0
C1099 C 0.98898 0.48531 0.77459 0.0
C1100 C 0.00105 0.48136 0.77277 0.0
C1101 C 0.99714 0.46512 0.77488 0.0
H1102 H 0.4619 0.41893 0.82864 0.0
N1103 N 0.4631 0.44179 0.80115 0.0
H1104 H 0.44907 0.41024 0.86798 0.0
H1105 H 0.44902 0.45571 0.82726 0.0
H1106 H 0.43638 0.44733 0.86684 0.0
H1107 H 0.4362 0.44248 0.78938 0.0
H1108 H 0.41398 0.42241 0.7637 0.0
H1109 H 0.46254 0.41857 0.77311 0.0
H1110 H 0.44026 0.39823 0.74768 0.0
H1111 H 0.48911 0.46204 0.82746 0.0
H1112 H 0.46287 0.46118 0.76479 0.0
H1113 H 0.50814 0.49123 0.82258 0.0
H1114 H 0.48232 0.4901 0.75924 0.0
H1115 H 0.56993 0.56755 0.80297 0.0
H1116 H 0.58243 0.58068 0.84121 0.0
H1117 H 0.5422 0.5866 0.85809 0.0
H1118 H 0.52989 0.57373 0.81914 0.0
H1119 H 0.5516 0.59201 0.76682 0.0
H1120 H 0.57519 0.60815 0.74148 0.0
H1121 H 0.58092 0.56641 0.73296 0.0
H1122 H 0.55782 0.55059 0.75872 0.0
H1123 H 0.54843 0.53947 0.79742 0.0
H1124 H 0.52947 0.51006 0.79893 0.0
H1125 H 0.49123 0.5168 0.77506 0.0
N1126 N 0.54167 0.56286 0.78489 0.0
H1127 H 0.51071 0.54636 0.77226 0.0
C1128 C 0.45643 0.43791 0.82508 0.0
C1129 C 0.45647 0.42525 0.83704 0.0
C1130 C 0.44921 0.42039 0.85954 0.0
C1131 C 0.44173 0.42812 0.87057 0.0
C1132 C 0.44189 0.44101 0.8587 0.0
C1133 C 0.44916 0.44586 0.83614 0.0
C1134 C 0.45106 0.43198 0.78313 0.0
C1135 C 0.43729 0.43303 0.78002 0.0
C1136 C 0.42456 0.42149 0.76542 0.0
C1137 C 0.42527 0.40862 0.7538 0.0
C1138 C 0.43938 0.40808 0.75611 0.0
C1139 C 0.45212 0.41966 0.77064 0.0
C1140 C 0.47411 0.4592 0.79714 0.0
C1141 C 0.48739 0.46809 0.81267 0.0
C1142 C 0.49843 0.48481 0.80964 0.0
C1143 C 0.49682 0.49311 0.79047 0.0
C1144 C 0.48377 0.48421 0.7745 0.0
C1145 C 0.47254 0.46748 0.77774 0.0
C1146 C 0.54892 0.56971 0.8081 0.0
C1147 C 0.56369 0.57154 0.81488 0.0
C1148 C 0.57082 0.579 0.8369 0.0
C1149 C 0.56332 0.58469 0.85275 0.0
C1150 C 0.54839 0.58254 0.84616 0.0
C1151 C 0.54129 0.57511 0.82404 0.0
C1152 C 0.55291 0.57015 0.76516 0.0
C1153 C 0.55769 0.5862 0.75893 0.0
C1154 C 0.57118 0.59541 0.74439 0.0
C1155 C 0.58015 0.58867 0.73554 0.0
C1156 C 0.57453 0.5721 0.74001 0.0
C1157 C 0.56112 0.56295 0.75474 0.0
C1158 C 0.53102 0.5452 0.78445 0.0
C1159 C 0.53606 0.53468 0.79211 0.0
C1160 C 0.52509 0.51778 0.79325 0.0
C1161 C 0.50871 0.51098 0.78738 0.0
C1162 C 0.50376 0.52151 0.77941 0.0
C1163 C 0.51484 0.53842 0.77789 0.0
H1164 H 0.68446 0.91704 0.55317 0.0
N1165 N 0.6578 0.88809 0.56758 0.0
H1166 H 0.6883 0.93015 0.51506 0.0
H1167 H 0.63752 0.87715 0.53015 0.0
H1168 H 0.64166 0.89004 0.49099 0.0
H1169 H 0.63829 0.89704 0.58654 0.0
H1170 H 0.64558 0.92011 0.61441 0.0
H1171 H 0.68601 0.90502 0.59363 0.0
H1172 H 0.6933 0.92785 0.62199 0.0
H1173 H 0.68371 0.88932 0.54396 0.0
H1174 H 0.64576 0.86196 0.59536 0.0
H1175 H 0.6914 0.86926 0.54504 0.0
H1176 H 0.65451 0.84234 0.59836 0.0
H1177 H 0.71031 0.79961 0.53467 0.0
H1178 H 0.70317 0.78216 0.49853 0.0
H1179 H 0.65485 0.77357 0.50165 0.0
H1180 H 0.66177 0.78999 0.53851 0.0
H1181 H 0.66574 0.77634 0.57853 0.0
H1182 H 0.66763 0.75818 0.60658 0.0
H1183 H 0.718 0.79496 0.6188 0.0
H1184 H 0.71604 0.8128 0.59015 0.0
H1185 H 0.71056 0.83737 0.55889 0.0
H1186 H 0.70379 0.85845 0.56426 0.0
H1187 H 0.65431 0.82062 0.57979 0.0
N1188 N 0.69112 0.80516 0.56215 0.0
H1189 H 0.66183 0.80001 0.57696 0.0
C1190 C 0.66052 0.89608 0.54476 0.0
C1191 C 0.6749 0.91107 0.53998 0.0
C1192 C 0.67721 0.9185 0.5179 0.0
C1193 C 0.66535 0.9111 0.49986 0.0
C1194 C 0.65097 0.89613 0.50458 0.0
C1195 C 0.64862 0.88871 0.52685 0.0
C1196 C 0.66152 0.8993 0.58789 0.0
C1197 C 0.65016 0.90343 0.59476 0.0
C1198 C 0.65437 0.91661 0.61074 0.0
C1199 C 0.6701 0.92594 0.62026 0.0
C1200 C 0.68116 0.92106 0.61468 0.0
C1201 C 0.67694 0.90788 0.59865 0.0
C1202 C 0.66375 0.87706 0.56925 0.0
C1203 C 0.67705 0.87912 0.55579 0.0
C1204 C 0.6817 0.8676 0.55674 0.0
C1205 C 0.67365 0.85398 0.5718 0.0
C1206 C 0.66082 0.85236 0.58606 0.0
C1207 C 0.65586 0.86367 0.58458 0.0
C1208 C 0.68676 0.79637 0.53928 0.0
C1209 C 0.69824 0.79409 0.52734 0.0
C1210 C 0.69412 0.78415 0.50656 0.0
C1211 C 0.67839 0.77641 0.49696 0.0
C1212 C 0.66699 0.77907 0.50865 0.0
C1213 C 0.67105 0.78875 0.52972 0.0
C1214 C 0.69085 0.79584 0.58216 0.0
C1215 C 0.67706 0.78063 0.58772 0.0
C1216 C 0.67816 0.77028 0.60381 0.0
C1217 C 0.69305 0.77502 0.61463 0.0
C1218 C 0.70646 0.79081 0.61039 0.0
C1219 C 0.70534 0.80108 0.59425 0.0
C1220 C 0.68664 0.81715 0.56676 0.0
C1221 C 0.69831 0.83374 0.56372 0.0
C1222 C 0.69431 0.84574 0.56653 0.0
C1223 C 0.67832 0.84135 0.57179 0.0
C1224 C 0.66676 0.82465 0.57581 0.0
C1225 C 0.67095 0.81272 0.57377 0.0
H1226 H 0.24242 0.87362 0.54796 0.0
N1227 N 0.22551 0.87791 0.58208 0.0
H1228 H 0.25209 0.8883 0.51032 0.0
H1229 H 0.21588 0.89749 0.56285 0.0
H1230 H 0.22415 0.91097 0.5246 0.0
H1231 H 0.2153 0.896 0.6069 0.0
H1232 H 0.23318 0.92213 0.62872 0.0
H1233 H 0.25514 0.88867 0.59717 0.0
H1234 H 0.27299 0.9147 0.61876 0.0
H1235 H 0.22021 0.85068 0.60196 0.0
H1236 H 0.19537 0.8735 0.57554 0.0
H1237 H 0.19429 0.8253 0.60837 0.0
H1238 H 0.16966 0.84806 0.5801 0.0
H1239 H 0.11337 0.74437 0.56566 0.0
H1240 H 0.10386 0.73519 0.52433 0.0
H1241 H 0.10592 0.78076 0.51267 0.0
H1242 H 0.11542 0.78981 0.55399 0.0
H1243 H 0.09734 0.78145 0.58791 0.0
H1244 H 0.07238 0.76904 0.61109 0.0
H1245 H 0.08636 0.73884 0.64683 0.0
H1246 H 0.11142 0.75135 0.62337 0.0
H1247 H 0.14912 0.77751 0.58302 0.0
H1248 H 0.17472 0.80371 0.58492 0.0
H1249 H 0.1492 0.82831 0.60403 0.0
N1250 N 0.11967 0.77212 0.5877 0.0
H1251 H 0.12366 0.80218 0.60063 0.0
C1252 C 0.22819 0.88413 0.55807 0.0
C1253 C 0.23815 0.88151 0.54261 0.0
C1254 C 0.24363 0.8899 0.52105 0.0
C1255 C 0.23905 0.901 0.51437 0.0
C1256 C 0.22826 0.90283 0.5293 0.0
C1257 C 0.22314 0.89475 0.55108 0.0
C1258 C 0.23399 0.89046 0.60036 0.0
C1259 C 0.22771 0.8997 0.6102 0.0
C1260 C 0.2379 0.91459 0.62264 0.0
C1261 C 0.2544 0.92034 0.62518 0.0
C1262 C 0.26029 0.91045 0.617 0.0
C1263 C 0.25012 0.89559 0.60482 0.0
C1264 C 0.20988 0.86391 0.58778 0.0
C1265 C 0.20916 0.85021 0.59756 0.0
C1266 C 0.19432 0.83567 0.60095 0.0
C1267 C 0.17979 0.83441 0.59426 0.0
C1268 C 0.18051 0.84848 0.58559 0.0
C1269 C 0.19537 0.86313 0.58263 0.0
C1270 C 0.11504 0.76767 0.56288 0.0
C1271 C 0.11189 0.75239 0.55405 0.0
C1272 C 0.10654 0.74723 0.53047 0.0
C1273 C 0.10412 0.75726 0.51528 0.0
C1274 C 0.10751 0.77271 0.52405 0.0
C1275 C 0.11297 0.7779 0.54762 0.0
C1276 C 0.10633 0.76734 0.60397 0.0
C1277 C 0.0953 0.7725 0.60115 0.0
C1278 C 0.08099 0.76539 0.61446 0.0
C1279 C 0.07735 0.75287 0.63064 0.0
C1280 C 0.08876 0.74834 0.63429 0.0
C1281 C 0.10311 0.75554 0.62109 0.0
C1282 C 0.13445 0.78774 0.59178 0.0
C1283 C 0.14911 0.78856 0.58787 0.0
C1284 C 0.16376 0.80359 0.58917 0.0
C1285 C 0.16415 0.81826 0.59473 0.0
C1286 C 0.14942 0.81736 0.59934 0.0
C1287 C 0.13471 0.80229 0.59765 0.0
H1288 H 0.20272 0.31151 0.51346 0.0
N1289 N 0.21272 0.33059 0.55285 0.0
H1290 H 0.21751 0.31573 0.47568 0.0
H1291 H 0.24152 0.35818 0.54105 0.0
H1292 H 0.25645 0.36236 0.5037 0.0
H1293 H 0.23239 0.35597 0.5841 0.0
H1294 H 0.25151 0.35617 0.61235 0.0
H1295 H 0.21466 0.30521 0.56542 0.0
H1296 H 0.23398 0.30536 0.59306 0.0
H1297 H 0.18188 0.31288 0.56509 0.0
H1298 H 0.22012 0.36253 0.55085 0.0
H1299 H 0.16283 0.32214 0.57028 0.0
H1300 H 0.20114 0.37182 0.55529 0.0
H1301 H 0.10544 0.34272 0.55194 0.0
H1302 H 0.09111 0.34082 0.51559 0.0
H1303 H 0.13099 0.38831 0.49454 0.0
H1304 H 0.14498 0.39051 0.53205 0.0
H1305 H 0.12567 0.38706 0.59121 0.0
H1306 H 0.10493 0.37814 0.62238 0.0
H1307 H 0.09999 0.33048 0.62174 0.0
H1308 H 0.12015 0.33919 0.59021 0.0
H1309 H 0.13022 0.34017 0.54665 0.0
H1310 H 0.14973 0.3316 0.54475 0.0
H1311 H 0.18429 0.37601 0.58362 0.0
N1312 N 0.1348 0.36885 0.56716 0.0
H1313 H 0.16468 0.38479 0.58481 0.0
C1314 C 0.22096 0.33444 0.53005 0.0
C1315 C 0.21432 0.32275 0.51121 0.0
C1316 C 0.22284 0.32513 0.48977 0.0
C1317 C 0.23822 0.33932 0.4868 0.0
C1318 C 0.24458 0.35138 0.50534 0.0
C1319 C 0.23604 0.34896 0.52678 0.0
C1320 C 0.22207 0.3305 0.57264 0.0
C1321 C 0.23236 0.34476 0.58642 0.0
C1322 C 0.2434 0.34489 0.60244 0.0
C1323 C 0.24439 0.33082 0.60486 0.0
C1324 C 0.23344 0.31636 0.59198 0.0
C1325 C 0.22241 0.31623 0.57609 0.0
C1326 C 0.20233 0.3369 0.55743 0.0
C1327 C 0.18615 0.32579 0.56319 0.0
C1328 C 0.17529 0.33109 0.56595 0.0
C1329 C 0.18042 0.3477 0.56292 0.0
C1330 C 0.19681 0.35897 0.5579 0.0
C1331 C 0.20769 0.35364 0.55521 0.0
C1332 C 0.12629 0.36695 0.545 0.0
C1333 C 0.11113 0.35282 0.5397 0.0
C1334 C 0.10298 0.35164 0.5186 0.0
C1335 C 0.10986 0.3644 0.50198 0.0
C1336 C 0.12518 0.37836 0.50706 0.0
C1337 C 0.13327 0.37961 0.52839 0.0
C1338 C 0.12456 0.36393 0.58823 0.0
C1339 C 0.12032 0.3748 0.59817 0.0
C1340 C 0.10851 0.36969 0.61604 0.0
C1341 C 0.10069 0.35353 0.62441 0.0
C1342 C 0.10558 0.34291 0.6154 0.0
C1343 C 0.11731 0.34799 0.59744 0.0
C1344 C 0.14605 0.3633 0.56573 0.0
C1345 C 0.142 0.34818 0.55462 0.0
C1346 C 0.15315 0.34317 0.55379 0.0
C1347 C 0.16857 0.35308 0.56412 0.0
C1348 C 0.17258 0.36816 0.57526 0.0
C1349 C 0.1614 0.37318 0.57606 0.0
H1350 H 0.00826 0.39879 0.08153 0.0
H1351 H 0.9772 0.41336 0.05104 0.0
H1352 H 0.98116 0.43071 0.08664 0.0
H1353 H 0.99395 0.44218 0.12613 0.0
H1354 H 0.02504 0.42747 0.15609 0.0
H1355 H 0.0207 0.40989 0.12081 0.0
C1356 C 0.00228 0.40569 0.08266 0.0
C1357 C 0.99243 0.40474 0.06362 0.0
C1358 C 0.00472 0.41573 0.10301 0.0
C1359 C 0.98485 0.41384 0.06541 0.0
C1360 C 0.98712 0.42379 0.08576 0.0
C1361 C 0.99968 0.43504 0.12498 0.0
C1362 C 0.00988 0.43623 0.14367 0.0
C1363 C 0.9971 0.42488 0.10462 0.0
C1364 C 0.01735 0.42701 0.1418 0.0
C1365 C 0.01479 0.41686 0.12171 0.0
H1366 H 0.61928 0.61119 0.08857 0.0
H1367 H 0.57536 0.59309 0.04793 0.0
H1368 H 0.5593 0.58051 0.08378 0.0
H1369 H 0.55766 0.57518 0.1269 0.0
H1370 H 0.60157 0.59419 0.16792 0.0
H1371 H 0.61762 0.60562 0.13167 0.0
C1372 C 0.6062 0.60441 0.08752 0.0
C1373 C 0.59856 0.60313 0.06559 0.0
C1374 C 0.597 0.59733 0.10829 0.0
C1375 C 0.58158 0.59433 0.06458 0.0
C1376 C 0.57236 0.58713 0.08509 0.0
C1377 C 0.57074 0.58191 0.12795 0.0
C1378 C 0.57835 0.58379 0.15014 0.0
C1379 C 0.57994 0.58868 0.10709 0.0
C1380 C 0.59534 0.59233 0.15105 0.0
C1381 C 0.60456 0.59899 0.13035 0.0
H1382 H 0.40528 0.99128 0.05038 0.0
H1383 H 0.38481 0.01856 0.08038 0.0
H1384 H 0.3997 0.02326 0.11773 0.0
H1385 H 0.41758 0.01861 0.14245 0.0
H1386 H 0.43828 0.99162 0.11221 0.0
H1387 H 0.42409 0.98771 0.07442 0.0
C1388 C 0.4041 0.99831 0.06504 0.0
C1389 C 0.39387 0.00448 0.0626 0.0
C1390 C 0.41266 0.00094 0.08647 0.0
C1391 C 0.39258 0.01364 0.08176 0.0
C1392 C 0.40107 0.01632 0.10315 0.0
C1393 C 0.4192 0.01209 0.12748 0.0
C1394 C 0.42894 0.00537 0.13022 0.0
C1395 C 0.41104 0.00991 0.10577 0.0
C1396 C 0.43068 0.99673 0.11072 0.0
C1397 C 0.42263 0.99454 0.08906 0.0
H1398 H 0.37203 0.97957 0.94299 0.0
H1399 H 0.41655 0.02528 0.95902 0.0
H1400 H 0.42967 0.02029 0.92505 0.0
H1401 H 0.42841 0.00332 0.8903 0.0
H1402 H 0.38358 0.95824 0.87308 0.0
H1403 H 0.37085 0.96245 0.90833 0.0
C1404 C 0.38462 0.98842 0.93911 0.0
C1405 C 0.39326 0.0028 0.9535 0.0
C1406 C 0.39209 0.98555 0.9194 0.0
C1407 C 0.40957 0.01413 0.94819 0.0
C1408 C 0.41711 0.01129 0.92877 0.0
C1409 C 0.41583 0.99444 0.89414 0.0
C1410 C 0.407 0.9805 0.87896 0.0
C1411 C 0.40846 0.99711 0.91415 0.0
C1412 C 0.39078 0.96898 0.88458 0.0
C1413 C 0.38342 0.97144 0.90464 0.0
H1414 H 0.00048 0.4074 0.95469 0.0
H1415 H 0.98509 0.36087 0.91846 0.0
H1416 H 0.98001 0.37081 0.88184 0.0
H1417 H 0.97953 0.39249 0.86013 0.0
H1418 H 0.99523 0.43919 0.89568 0.0
H1419 H 0.00064 0.42944 0.93251 0.0
C1420 C 0.99608 0.39946 0.93876 0.0
C1421 C 0.99313 0.38339 0.9394 0.0
C1422 C 0.99318 0.40525 0.91765 0.0
C1423 C 0.98747 0.37329 0.91854 0.0
C1424 C 0.98452 0.37894 0.89756 0.0
C1425 C 0.984 0.40047 0.87602 0.0
C1426 C 0.98684 0.41646 0.87531 0.0
C1427 C 0.98721 0.39484 0.89697 0.0
C1428 C 0.99297 0.42682 0.89583 0.0
C1429 C 0.99604 0.42124 0.91687 0.0
H1430 H 0.597 0.63052 0.94417 0.0
H1431 H 0.61172 0.59554 0.95372 0.0
H1432 H 0.59654 0.5801 0.91794 0.0
H1433 H 0.57942 0.57669 0.88368 0.0
H1434 H 0.56537 0.61209 0.8733 0.0
H1435 H 0.57967 0.62697 0.90998 0.0
C1436 C 0.59688 0.61951 0.93846 0.0
C1437 C 0.60554 0.61424 0.95159 0.0
C1438 C 0.58816 0.61069 0.91781 0.0
C1439 C 0.60521 0.59992 0.94393 0.0
C1440 C 0.59652 0.59105 0.92347 0.0
C1441 C 0.57956 0.58772 0.88934 0.0
C1442 C 0.57135 0.59327 0.87569 0.0
C1443 C 0.58802 0.59637 0.91021 0.0
C1444 C 0.57141 0.60741 0.88359 0.0
C1445 C 0.5797 0.61602 0.90447 0.0
H1446 H 0.99455 0.61445 0.92624 0.0
H1447 H 0.01692 0.59355 0.96631 0.0
H1448 H 0.01987 0.58087 0.92948 0.0
H1449 H 0.01541 0.57505 0.88598 0.0
H1450 H 0.99278 0.59573 0.84617 0.0
H1451 H 0.99057 0.60909 0.88281 0.0
C1452 C 1.00011 0.60716 0.92694 0.0
C1453 C 0.00546 0.60494 0.94904 0.0
C1454 C 0.00168 0.5998 0.90573 0.0
C1455 C 0.01264 0.59544 0.94957 0.0
C1456 C 0.01435 0.58818 0.92851 0.0
C1457 C 0.01015 0.58262 0.88532 0.0
C1458 C 0.00421 0.58435 0.86343 0.0
C1459 C 0.00884 0.5902 0.9065 0.0
C1460 C 0.99726 0.59404 0.86287 0.0
C1461 C 0.99604 0.60174 0.88379 0.0
H1462 H 0.41245 0.39663 0.97066 0.0
H1463 H 0.37322 0.40118 0.94548 0.0
H1464 H 0.38874 0.41485 0.90955 0.0
H1465 H 0.41266 0.42371 0.88403 0.0
H1466 H 0.4519 0.41933 0.90968 0.0
H1467 H 0.43707 0.40726 0.94665 0.0
C1468 C 0.40731 0.40069 0.95741 0.0
C1469 C 0.39164 0.39775 0.96065 0.0
C1470 C 0.41624 0.40846 0.93678 0.0
C1471 C 0.38524 0.40325 0.9434 0.0
C1472 C 0.39409 0.41103 0.92281 0.0
C1473 C 0.4181 0.42039 0.89788 0.0
C1474 C 0.43332 0.42228 0.89396 0.0
C1475 C 0.4095 0.41346 0.91914 0.0
C1476 C 0.44009 0.41773 0.91203 0.0
C1477 C 0.43165 0.4109 0.93323 0.0
H1478 H 0.58982 0.96578 0.93933 0.0
H1479 H 0.61787 0.01864 0.93357 0.0
H1480 H 0.60108 0.0169 0.90021 0.0
H1481 H 0.57912 0.00048 0.87174 0.0
H1482 H 0.55072 0.94768 0.87723 0.0
H1483 H 0.56702 0.94931 0.91151 0.0
C1484 C 0.59224 0.97692 0.93079 0.0
C1485 C 0.60515 0.9923 0.93892 0.0
C1486 C 0.5825 0.97586 0.91153 0.0
C1487 C 0.60806 0.00661 0.9277 0.0
C1488 C 0.59845 0.00566 0.90859 0.0
C1489 C 0.57629 0.98934 0.88068 0.0
C1490 C 0.56369 0.97399 0.87194 0.0
C1491 C 0.58571 0.99036 0.90029 0.0
C1492 C 0.56044 0.95965 0.88346 0.0
C1493 C 0.56973 0.96057 0.90309 0.0
H1494 H 0.58955 0.00204 0.04336 0.0
H1495 H 0.6143 0.97936 0.07119 0.0
H1496 H 0.60023 0.975 0.10938 0.0
H1497 H 0.58013 0.97656 0.13441 0.0
H1498 H 0.55544 0.99936 0.10721 0.0
H1499 H 0.57035 0.00486 0.0693 0.0
C1500 C 0.59195 0.99624 0.05783 0.0
C1501 C 0.60289 0.99093 0.05429 0.0
C1502 C 0.58379 0.99373 0.07983 0.0
C1503 C 0.60592 0.98353 0.07332 0.0
C1504 C 0.59785 0.98099 0.09519 0.0
C1505 C 0.57799 0.98268 0.12012 0.0
C1506 C 0.5666 0.98739 0.12343 0.0
C1507 C 0.5866 0.98583 0.09852 0.0
C1508 C 0.56417 0.99563 0.10503 0.0
C1509 C 0.57264 0.99873 0.08337 0.0
H1510 H 0.97603 0.60441 0.07094 0.0
H1511 H 0.02455 0.61548 0.05748 0.0
H1512 H 0.02355 0.60107 0.09341 0.0
H1513 H 0.00957 0.58647 0.12948 0.0
H1514 H 0.96183 0.57685 0.14525 0.0
H1515 H 0.96166 0.58908 0.10732 0.0
C1516 C 0.98631 0.60354 0.07582 0.0
C1517 C 0.00038 0.6111 0.06164 0.0
C1518 C 0.98579 0.59545 0.09688 0.0
C1519 C 0.01363 0.60992 0.06821 0.0
C1520 C 0.01307 0.60164 0.08873 0.0
C1521 C 0.99915 0.58713 0.12476 0.0
C1522 C 0.98582 0.58091 0.14038 0.0
C1523 C 0.99933 0.59459 0.10337 0.0
C1524 C 0.97223 0.58144 0.13354 0.0
C1525 C 0.97218 0.58857 0.11193 0.0
H1526 H 0.40419 0.4224 0.06022 0.0
H1527 H 0.3758 0.37259 0.08488 0.0
H1528 H 0.39087 0.38098 0.12268 0.0
H1529 H 0.41106 0.40277 0.14956 0.0
H1530 H 0.43976 0.45245 0.12448 0.0
H1531 H 0.42553 0.44378 0.08604 0.0
C1532 C 0.40132 0.41335 0.07382 0.0
C1533 C 0.38879 0.39692 0.0698 0.0
C1534 C 0.41004 0.41825 0.09548 0.0
C1535 C 0.38536 0.38533 0.08753 0.0
C1536 C 0.39396 0.39013 0.10917 0.0
C1537 C 0.41442 0.41165 0.13554 0.0
C1538 C 0.4264 0.42827 0.14 0.0
C1539 C 0.4062 0.40659 0.11344 0.0
C1540 C 0.43042 0.43964 0.1217 0.0
C1541 C 0.42232 0.43469 0.09967 0.0
H1542 H 0.64964 0.72106 0.41471 0.0
H1543 H 0.69826 0.75103 0.38786 0.0
H1544 H 0.70494 0.77074 0.42117 0.0
H1545 H 0.69714 0.77929 0.45807 0.0
H1546 H 0.64928 0.74804 0.48717 0.0
H1547 H 0.64205 0.72932 0.45252 0.0
C1548 C 0.66166 0.73195 0.41613 0.0
C1549 C 0.67343 0.73459 0.39887 0.0
C1550 C 0.66554 0.74308 0.43565 0.0
C1551 C 0.68901 0.74867 0.40101 0.0
C1552 C 0.69283 0.75997 0.42002 0.0
C1553 C 0.68517 0.7683 0.4571 0.0
C1554 C 0.67382 0.7652 0.47537 0.0
C1555 C 0.68123 0.75724 0.43754 0.0
C1556 C 0.65824 0.75102 0.47327 0.0
C1557 C 0.65411 0.74017 0.45353 0.0
H1558 H 0.27222 0.95544 0.43571 0.0
H1559 H 0.27463 0.91666 0.39812 0.0
H1560 H 0.2606 0.89819 0.43137 0.0
H1561 H 0.24774 0.89318 0.47119 0.0
H1562 H 0.24754 0.93302 0.5097 0.0
H1563 H 0.26018 0.95073 0.47571 0.0
C1564 C 0.26964 0.94293 0.43473 0.0
C1565 C 0.27443 0.93743 0.41446 0.0
C1566 C 0.26181 0.93249 0.454 0.0
C1567 C 0.27112 0.92122 0.41358 0.0
C1568 C 0.26306 0.91065 0.43256 0.0
C1569 C 0.25056 0.90576 0.4723 0.0
C1570 C 0.24643 0.91157 0.49306 0.0
C1571 C 0.25839 0.91617 0.45291 0.0
C1572 C 0.25008 0.92793 0.49384 0.0
C1573 C 0.25753 0.9382 0.47447 0.0
H1574 H 0.07277 0.36965 0.41337 0.0
H1575 H 0.0538 0.31743 0.4095 0.0
H1576 H 0.07095 0.32012 0.44305 0.0
H1577 H 0.09084 0.33708 0.47397 0.0
H1578 H 0.10851 0.389 0.47992 0.0
H1579 H 0.09272 0.3867 0.4447 0.0
C1580 C 0.07246 0.35888 0.4198 0.0
C1581 C 0.06199 0.34336 0.40897 0.0
C1582 C 0.08219 0.36046 0.4394 0.0
C1583 C 0.06167 0.32951 0.41759 0.0
C1584 C 0.0715 0.33104 0.43676 0.0
C1585 C 0.09115 0.3479 0.46778 0.0
C1586 C 0.10085 0.36318 0.47977 0.0
C1587 C 0.08169 0.34642 0.44794 0.0
C1588 C 0.10136 0.37711 0.47096 0.0
C1589 C 0.0922 0.37578 0.45091 0.0
H1590 H 0.05472 0.35216 0.27675 0.0
H1591 H 0.06472 0.31699 0.30578 0.0
H1592 H 0.078 0.31676 0.26829 0.0
H1593 H 0.08778 0.32745 0.22784 0.0
H1594 H 0.07789 0.36278 0.19924 0.0
H1595 H 0.06373 0.36217 0.23611 0.0
C1596 C 0.05969 0.34433 0.27486 0.0
C1597 C 0.05873 0.33463 0.29411 0.0
C1598 C 0.06748 0.34441 0.2534 0.0
C1599 C 0.0653 0.32461 0.2913 0.0
C1600 C 0.07293 0.32449 0.26987 0.0
C1601 C 0.08239 0.33488 0.2296 0.0
C1602 C 0.084 0.34523 0.21086 0.0
C1603 C 0.07424 0.33447 0.25089 0.0
C1604 C 0.07708 0.35492 0.21353 0.0
C1605 C 0.06888 0.3545 0.23455 0.0
H1606 H 0.69405 0.72923 0.26614 0.0
H1607 H 0.67245 0.75416 0.30064 0.0
H1608 H 0.67732 0.77025 0.26485 0.0
H1609 H 0.68731 0.77701 0.22359 0.0
H1610 H 0.70777 0.75123 0.1883 0.0
H1611 H 0.70406 0.73602 0.22471 0.0
C1612 C 0.69046 0.73822 0.26586 0.0
C1613 C 0.68287 0.74044 0.28605 0.0
C1614 C 0.69316 0.74737 0.24511 0.0
C1615 C 0.67826 0.75213 0.28534 0.0
C1616 C 0.68105 0.76137 0.26488 0.0
C1617 C 0.69086 0.76798 0.22376 0.0
C1618 C 0.69782 0.76532 0.20316 0.0
C1619 C 0.68839 0.75902 0.24461 0.0
C1620 C 0.70261 0.75376 0.20395 0.0
C1621 C 0.70037 0.74493 0.22473 0.0
H1622 H 0.27334 0.9289 0.29095 0.0
H1623 H 0.25223 0.9586 0.30139 0.0
H1624 H 0.23724 0.94758 0.26358 0.0
H1625 H 0.23114 0.93034 0.22688 0.0
H1626 H 0.25059 0.89889 0.21867 0.0
H1627 H 0.26542 0.90998 0.25616 0.0
C1628 C 0.26544 0.93295 0.28493 0.0
C1629 C 0.26399 0.94465 0.29872 0.0
C1630 C 0.25667 0.92634 0.26353 0.0
C1631 C 0.25352 0.9496 0.291 0.0
C1632 C 0.245 0.94333 0.26939 0.0
C1633 C 0.23836 0.92566 0.23342 0.0
C1634 C 0.23988 0.91394 0.21957 0.0
C1635 C 0.24657 0.93177 0.25543 0.0
C1636 C 0.2495 0.90823 0.22844 0.0
C1637 C 0.25792 0.91446 0.25004 0.0
H1638 H 0.66293 0.94297 0.26797 0.0
H1639 H 0.70031 0.94124 0.30618 0.0
H1640 H 0.70423 0.92737 0.27156 0.0
H1641 H 0.69702 0.91574 0.2303 0.0
H1642 H 0.65933 0.9172 0.19265 0.0
H1643 H 0.65543 0.93098 0.22729 0.0
C1644 C 0.67198 0.93962 0.26873 0.0
C1645 C 0.68136 0.94321 0.2896 0.0
C1646 C 0.67404 0.93149 0.2489 0.0
C1647 C 0.69292 0.93862 0.29033 0.0
C1648 C 0.69517 0.93069 0.27054 0.0
C1649 C 0.68799 0.91912 0.2297 0.0
C1650 C 0.67845 0.9154 0.20897 0.0
C1651 C 0.6858 0.92706 0.24972 0.0
C1652 C 0.66667 0.9197 0.20852 0.0
C1653 C 0.66451 0.92769 0.22825 0.0
H1654 H 0.03988 0.70939 0.26048 0.0
H1655 H 0.06384 0.75483 0.30218 0.0
H1656 H 0.08235 0.76869 0.26881 0.0
H1657 H 0.09251 0.76753 0.22835 0.0
H1658 H 0.06915 0.72164 0.18778 0.0
H1659 H 0.04965 0.70831 0.22015 0.0
C1660 C 0.04904 0.72237 0.2622 0.0
C1661 C 0.05046 0.73107 0.28375 0.0
C1662 C 0.05984 0.73015 0.2432 0.0
C1663 C 0.06251 0.74785 0.28577 0.0
C1664 C 0.07311 0.75578 0.26672 0.0
C1665 C 0.08305 0.75465 0.22659 0.0
C1666 C 0.08228 0.74554 0.20582 0.0
C1667 C 0.072 0.747 0.24544 0.0
C1668 C 0.07008 0.72884 0.20376 0.0
C1669 C 0.0589 0.72123 0.2222 0.0
H1670 H 0.26058 0.33836 0.29447 0.0
H1671 H 0.26469 0.29741 0.27011 0.0
H1672 H 0.24625 0.29198 0.23681 0.0
H1673 H 0.23015 0.29991 0.21332 0.0
H1674 H 0.22684 0.34135 0.23739 0.0
H1675 H 0.24368 0.34547 0.27226 0.0
C1676 C 0.25741 0.32819 0.28196 0.0
C1677 C 0.26411 0.31838 0.28471 0.0
C1678 C 0.24692 0.32523 0.26282 0.0
C1679 C 0.25978 0.30521 0.26836 0.0
C1680 C 0.24922 0.30209 0.24932 0.0
C1681 C 0.2329 0.30964 0.22647 0.0
C1682 C 0.2273 0.32032 0.22286 0.0
C1683 C 0.24285 0.31213 0.24623 0.0
C1684 C 0.23111 0.33305 0.23979 0.0
C1685 C 0.24075 0.33542 0.25967 0.0
H1686 H 0.28411 0.35771 0.39629 0.0
H1687 H 0.2688 0.30649 0.40108 0.0
H1688 H 0.25209 0.30374 0.4358 0.0
H1689 H 0.24194 0.31579 0.46496 0.0
H1690 H 0.25675 0.36682 0.46024 0.0
H1691 H 0.27364 0.36975 0.42544 0.0
C1692 C 0.27716 0.34596 0.40496 0.0
C1693 C 0.27773 0.33234 0.39606 0.0
C1694 C 0.26747 0.34441 0.42492 0.0
C1695 C 0.26859 0.31718 0.4075 0.0
C1696 C 0.25901 0.31558 0.42737 0.0
C1697 C 0.24868 0.3275 0.45612 0.0
C1698 C 0.24801 0.34104 0.4651 0.0
C1699 C 0.25832 0.32908 0.43618 0.0
C1700 C 0.25713 0.35623 0.45377 0.0
C1701 C 0.26675 0.3579 0.43384 0.0
H1702 H 0.69018 0.95227 0.40552 0.0
H1703 H 0.64048 0.93914 0.40237 0.0
H1704 H 0.63448 0.92314 0.43881 0.0
H1705 H 0.64378 0.91392 0.47254 0.0
H1706 H 0.69334 0.92631 0.47408 0.0
H1707 H 0.69897 0.94163 0.43735 0.0
C1708 C 0.67802 0.94591 0.4128 0.0
C1709 C 0.66583 0.94702 0.40143 0.0
C1710 C 0.67465 0.93665 0.43351 0.0
C1711 C 0.65009 0.9385 0.41085 0.0
C1712 C 0.64666 0.92938 0.43169 0.0
C1713 C 0.65574 0.91976 0.46464 0.0
C1714 C 0.66817 0.91915 0.47631 0.0
C1715 C 0.65889 0.92847 0.44328 0.0
C1716 C 0.68363 0.92689 0.46585 0.0
C1717 C 0.68686 0.9356 0.44475 0.0
H1718 H 0.08145 0.72556 0.41127 0.0
H1719 H 0.04824 0.74218 0.4231 0.0
H1720 H 0.06061 0.75406 0.46212 0.0
H1721 H 0.08024 0.75894 0.49351 0.0
H1722 H 0.11322 0.74206 0.48202 0.0
H1723 H 0.1015 0.731 0.44229 0.0
C1724 C 0.07695 0.73183 0.42232 0.0
C1725 C 0.06391 0.73293 0.41425 0.0
C1726 C 0.08404 0.73854 0.44486 0.0
C1727 C 0.05823 0.7411 0.42886 0.0
C1728 C 0.0653 0.74791 0.4512 0.0
C1729 C 0.085 0.75304 0.48217 0.0
C1730 C 0.09758 0.75133 0.49068 0.0
C1731 C 0.07814 0.74662 0.45944 0.0
C1732 C 0.10344 0.74339 0.47595 0.0
C1733 C 0.09678 0.73712 0.45322 0.0
H1734 H 0.31397 0.04996 0.74572 0.0
H1735 H 0.36301 0.08172 0.72145 0.0
H1736 H 0.36821 0.10087 0.75497 0.0
H1737 H 0.35916 0.10826 0.79165 0.0
H1738 H 0.31088 0.07542 0.8181 0.0
H1739 H 0.30496 0.05734 0.78294 0.0
C1740 C 0.32575 0.06113 0.74771 0.0
C1741 C 0.33808 0.06439 0.73115 0.0
C1742 C 0.32879 0.07195 0.76736 0.0
C1743 C 0.35333 0.07886 0.73404 0.0
C1744 C 0.35632 0.08984 0.75318 0.0
C1745 C 0.34738 0.09708 0.78993 0.0
C1746 C 0.33553 0.09329 0.80766 0.0
C1747 C 0.3442 0.08643 0.77009 0.0
C1748 C 0.3202 0.07888 0.80465 0.0
C1749 C 0.31683 0.06841 0.78462 0.0
H1750 H 0.92951 0.26646 0.74923 0.0
H1751 H 0.9713 0.2622 0.75654 0.0
H1752 H 0.9604 0.2475 0.794 0.0
H1753 H 0.9394 0.23679 0.82555 0.0
H1754 H 0.89804 0.24171 0.81809 0.0
H1755 H 0.9084 0.25524 0.77982 0.0
C1756 C 0.93624 0.26227 0.75892 0.0
C1757 C 0.95123 0.26547 0.7501 0.0
C1758 C 0.92999 0.25399 0.78049 0.0
C1759 C 0.95975 0.25993 0.76294 0.0
C1760 C 0.95353 0.25152 0.78437 0.0
C1761 C 0.9326 0.24068 0.81537 0.0
C1762 C 0.91802 0.23833 0.82467 0.0
C1763 C 0.93871 0.2486 0.79343 0.0
C1764 C 0.90939 0.24357 0.81144 0.0
C1765 C 0.91528 0.25125 0.78954 0.0
H1766 H 0.74389 0.66931 0.73105 0.0
H1767 H 0.71925 0.69305 0.75861 0.0
H1768 H 0.73325 0.69863 0.79696 0.0
H1769 H 0.75177 0.69599 0.82311 0.0
H1770 H 0.77721 0.67316 0.79528 0.0
H1771 H 0.76341 0.66779 0.75674 0.0
C1772 C 0.7416 0.67573 0.74542 0.0
C1773 C 0.73047 0.68069 0.74195 0.0
C1774 C 0.74975 0.67897 0.76745 0.0
C1775 C 0.72775 0.68909 0.76074 0.0
C1776 C 0.73573 0.69227 0.78273 0.0
C1777 C 0.75452 0.69008 0.80854 0.0
C1778 C 0.76551 0.68496 0.81222 0.0
C1779 C 0.74669 0.68719 0.78632 0.0
C1780 C 0.76864 0.67702 0.79316 0.0
C1781 C 0.76082 0.67402 0.77103 0.0
H1782 H 0.75085 0.68493 0.63395 0.0
H1783 H 0.70021 0.65656 0.61531 0.0
H1784 H 0.70651 0.64729 0.57784 0.0
H1785 H 0.72632 0.6478 0.5499 0.0
H1786 H 0.77688 0.6747 0.5692 0.0
H1787 H 0.77069 0.68423 0.60663 0.0
C1788 C 0.74121 0.67671 0.62168 0.0
C1789 C 0.7251 0.67151 0.6274 0.0
C1790 C 0.74489 0.67125 0.60021 0.0
C1791 C 0.71272 0.66074 0.61141 0.0
C1792 C 0.7163 0.65545 0.58993 0.0
C1793 C 0.736 0.6555 0.56242 0.0
C1794 C 0.75206 0.6605 0.55658 0.0
C1795 C 0.73234 0.66066 0.58412 0.0
C1796 C 0.76443 0.67083 0.57293 0.0
C1797 C 0.76089 0.67621 0.59446 0.0
H1798 H 0.32094 0.05448 0.60388 0.0
H1799 H 0.37207 0.07645 0.61591 0.0
H1800 H 0.37803 0.09389 0.58126 0.0
H1801 H 0.3687 0.10294 0.54768 0.0
H1802 H 0.31749 0.07962 0.53439 0.0
H1803 H 0.31164 0.06301 0.56977 0.0
C1804 C 0.3334 0.06309 0.59895 0.0
C1805 C 0.34603 0.06417 0.61248 0.0
C1806 C 0.33674 0.07297 0.5789 0.0
C1807 C 0.36211 0.07533 0.60575 0.0
C1808 C 0.36553 0.08534 0.58598 0.0
C1809 C 0.35625 0.09412 0.55234 0.0
C1810 C 0.34359 0.09268 0.53834 0.0
C1811 C 0.35293 0.08424 0.5724 0.0
C1812 C 0.32753 0.08133 0.54502 0.0
C1813 C 0.32414 0.07166 0.56515 0.0
H1814 H 0.94412 0.29195 0.61263 0.0
H1815 H 0.94664 0.25224 0.64287 0.0
H1816 H 0.93233 0.23462 0.6081 0.0
H1817 H 0.92008 0.23076 0.56843 0.0
H1818 H 0.91878 0.27085 0.53709 0.0
H1819 H 0.9313 0.28786 0.57314 0.0
C1820 C 0.94142 0.2794 0.61171 0.0
C1821 C 0.94652 0.27347 0.6303 0.0
C1822 C 0.93338 0.26936 0.59146 0.0
C1823 C 0.94295 0.25718 0.62876 0.0
C1824 C 0.93476 0.24706 0.60888 0.0
C1825 C 0.92261 0.24325 0.5694 0.0
C1826 C 0.91852 0.24949 0.54997 0.0
C1827 C 0.93012 0.2531 0.58997 0.0
C1828 C 0.92159 0.26561 0.55183 0.0
C1829 C 0.92888 0.27542 0.57239 0.0
H1830 H 0.32307 0.24897 0.62765 0.0
H1831 H 0.34352 0.29911 0.6058 0.0
H1832 H 0.35212 0.29278 0.56781 0.0
H1833 H 0.35367 0.27305 0.54062 0.0
H1834 H 0.33398 0.22311 0.56271 0.0
H1835 H 0.32507 0.2293 0.60062 0.0
C1836 C 0.32938 0.25851 0.61457 0.0
C1837 C 0.3326 0.27448 0.61959 0.0
C1838 C 0.3344 0.25483 0.59275 0.0
C1839 C 0.34087 0.28671 0.60245 0.0
C1840 C 0.3458 0.28311 0.58068 0.0
C1841 C 0.34761 0.26356 0.55383 0.0
C1842 C 0.34453 0.24765 0.54879 0.0
C1843 C 0.34266 0.26723 0.57567 0.0
C1844 C 0.33636 0.23542 0.56597 0.0
C1845 C 0.33133 0.23897 0.58772 0.0
H1846 H 0.71076 0.07197 0.61573 0.0
H1847 H 0.75055 0.06677 0.63594 0.0
H1848 H 0.76549 0.08145 0.60039 0.0
H1849 H 0.76707 0.09509 0.56298 0.0
H1850 H 0.72723 0.09994 0.54207 0.0
H1851 H 0.71268 0.08637 0.57865 0.0
C1852 C 0.72272 0.0741 0.61241 0.0
C1853 C 0.72946 0.06818 0.62846 0.0
C1854 C 0.73129 0.08255 0.59182 0.0
C1855 C 0.74501 0.07112 0.62389 0.0
C1856 C 0.7536 0.07952 0.60353 0.0
C1857 C 0.75518 0.09313 0.56638 0.0
C1858 C 0.74824 0.09846 0.54974 0.0
C1859 C 0.7468 0.08516 0.58728 0.0
C1860 C 0.73294 0.0961 0.55467 0.0
C1861 C 0.72455 0.08823 0.57551 0.0
H1862 H 0.94529 0.68282 0.6019 0.0
H1863 H 0.91688 0.63272 0.62543 0.0
H1864 H 0.89827 0.62568 0.59187 0.0
H1865 H 0.89018 0.63369 0.55558 0.0
H1866 H 0.91894 0.6837 0.53188 0.0
H1867 H 0.93711 0.69086 0.56598 0.0
C1868 C 0.93503 0.67035 0.59972 0.0
C1869 C 0.93254 0.65832 0.61613 0.0
C1870 C 0.92436 0.66638 0.58042 0.0
C1871 C 0.91912 0.64224 0.61305 0.0
C1872 C 0.90846 0.63819 0.59386 0.0
C1873 C 0.90046 0.64613 0.55784 0.0
C1874 C 0.90314 0.65814 0.54123 0.0
C1875 C 0.91099 0.65014 0.57738 0.0
C1876 C 0.91642 0.67427 0.54459 0.0
C1877 C 0.92691 0.67836 0.56399 0.0
H1878 H 0.93868 0.66057 0.75119 0.0
H1879 H 0.93278 0.6957 0.71281 0.0
H1880 H 0.92094 0.70072 0.74858 0.0
H1881 H 0.9118 0.69472 0.79068 0.0
H1882 H 0.9177 0.6594 0.8285 0.0
H1883 H 0.92982 0.65475 0.79293 0.0
C1884 C 0.93488 0.66939 0.75062 0.0
C1885 C 0.93664 0.67775 0.72933 0.0
C1886 C 0.92795 0.67209 0.77113 0.0
C1887 C 0.93156 0.68907 0.72895 0.0
C1888 C 0.92477 0.69195 0.7494 0.0
C1889 C 0.91582 0.68607 0.79113 0.0
C1890 C 0.91372 0.67733 0.81216 0.0
C1891 C 0.92284 0.68346 0.77057 0.0
C1892 C 0.91889 0.66607 0.81242 0.0
C1893 C 0.92593 0.66349 0.79214 0.0
H1894 H 0.30781 0.26595 0.74097 0.0
H1895 H 0.35539 0.27483 0.72576 0.0
H1896 H 0.35365 0.25911 0.76062 0.0
H1897 H 0.33923 0.24396 0.79647 0.0
H1898 H 0.29201 0.23567 0.81259 0.0
H1899 H 0.29287 0.24973 0.77608 0.0
C1900 C 0.31776 0.26436 0.74519 0.0
C1901 C 0.33176 0.27168 0.73084 0.0
C1902 C 0.31674 0.25538 0.76541 0.0
C1903 C 0.3445 0.26943 0.73653 0.0
C1904 C 0.34353 0.26044 0.75649 0.0
C1905 C 0.32913 0.24526 0.79202 0.0
C1906 C 0.31564 0.23888 0.80734 0.0
C1907 C 0.32981 0.25357 0.77124 0.0
C1908 C 0.3025 0.24035 0.80103 0.0
C1909 C 0.30304 0.2485 0.78025 0.0
H1910 H 0.73055 0.07723 0.73585 0.0
H1911 H 0.70593 0.032 0.77484 0.0
H1912 H 0.72009 0.04685 0.81157 0.0
H1913 H 0.73827 0.07281 0.8331 0.0
H1914 H 0.7631 0.11805 0.79423 0.0
H1915 H 0.74986 0.10304 0.75702 0.0
C1916 C 0.72835 0.07058 0.75233 0.0
C1917 C 0.71712 0.05352 0.75258 0.0
C1918 C 0.73646 0.07921 0.77347 0.0
C1919 C 0.71447 0.04513 0.77411 0.0
C1920 C 0.72254 0.05361 0.79517 0.0
C1921 C 0.74103 0.07938 0.81643 0.0
C1922 C 0.75165 0.09656 0.81651 0.0
C1923 C 0.73341 0.07068 0.79511 0.0
C1924 C 0.75481 0.10487 0.79477 0.0
C1925 C 0.74731 0.09629 0.77345 0.0
H1926 H 0.02738 0.33725 0.00482 0.0
H1927 H 0.04709 0.38721 0.03097 0.0
H1928 H 0.06956 0.38705 0.04937 0.0
H1929 H 0.08223 0.37209 0.06116 0.0
H1930 H 0.06296 0.32213 0.03555 0.0
H1931 H 0.0416 0.3229 0.01401 0.0
C1932 C 0.03671 0.34817 0.01425 0.0
C1933 C 0.03545 0.36217 0.01666 0.0
C1934 C 0.04957 0.34795 0.02514 0.0
C1935 C 0.04766 0.37622 0.02898 0.0
C1936 C 0.06053 0.37614 0.03955 0.0
C1937 C 0.07364 0.36147 0.05039 0.0
C1938 C 0.07424 0.34707 0.05003 0.0
C1939 C 0.06142 0.36198 0.03817 0.0
C1940 C 0.06269 0.33332 0.0364 0.0
C1941 C 0.0505 0.33377 0.02401 0.0
H1942 H 0.67904 0.69394 0.00564 0.0
H1943 H 0.62867 0.67453 0.02094 0.0
H1944 H 0.63503 0.70161 0.03599 0.0
H1945 H 0.65511 0.73005 0.04777 0.0
H1946 H 0.70588 0.74814 0.03755 0.0
H1947 H 0.6991 0.72265 0.01668 0.0
C1948 C 0.66945 0.69575 0.01188 0.0
C1949 C 0.65343 0.68234 0.01217 0.0
C1950 C 0.67327 0.71115 0.0214 0.0
C1951 C 0.64111 0.68472 0.02064 0.0
C1952 C 0.64474 0.70017 0.02925 0.0
C1953 C 0.66476 0.72847 0.04116 0.0
C1954 C 0.68102 0.74115 0.04457 0.0
C1955 C 0.66084 0.71337 0.03029 0.0
C1956 C 0.69324 0.73886 0.03504 0.0
C1957 C 0.68939 0.72413 0.02329 0.0
H1958 H 0.30852 0.96858 0.01806 0.0
H1959 H 0.32727 0.94126 0.05001 0.0
H1960 H 0.3007 0.92211 0.06669 0.0
H1961 H 0.27282 0.91444 0.07484 0.0
H1962 H 0.25386 0.94149 0.04274 0.0
H1963 H 0.27994 0.95953 0.02364 0.0
C1964 C 0.30678 0.95836 0.02851 0.0
C1965 C 0.31993 0.95646 0.03295 0.0
C1966 C 0.29148 0.94743 0.03819 0.0
C1967 C 0.3174 0.94307 0.04637 0.0
C1968 C 0.30221 0.93212 0.05598 0.0
C1969 C 0.27423 0.92403 0.06323 0.0
C1970 C 0.26138 0.92662 0.06032 0.0
C1971 C 0.28924 0.93435 0.05233 0.0
C1972 C 0.2636 0.93935 0.04556 0.0
C1973 C 0.27849 0.94964 0.03457 0.0
H1974 H 0.36092 0.0479 0.00135 0.0
H1975 H 0.33151 0.01519 0.94337 0.0
H1976 H 0.32737 0.03638 0.92831 0.0
H1977 H 0.33319 0.06453 0.93022 0.0
H1978 H 0.3624 0.0975 0.98801 0.0
H1979 H 0.36554 0.07586 0.00449 0.0
C1980 C 0.35357 0.0454 0.98547 0.0
C1981 C 0.34663 0.03 0.97344 0.0
C1982 C 0.3512 0.05768 0.97684 0.0
C1983 C 0.33705 0.02693 0.95296 0.0
C1984 C 0.33465 0.03905 0.94431 0.0
C1985 C 0.33994 0.06691 0.94673 0.0
C1986 C 0.3475 0.08261 0.95789 0.0
C1987 C 0.34177 0.05449 0.95598 0.0
C1988 C 0.35654 0.08555 0.97897 0.0
C1989 C 0.35834 0.07319 0.9884 0.0
H1990 H 0.97016 0.3082 0.0322 0.0
H1991 H 0.9507 0.33166 0.99132 0.0
H1992 H 0.93024 0.30512 0.97405 0.0
H1993 H 0.91962 0.27585 0.96745 0.0
H1994 H 0.93896 0.25203 0.00762 0.0
H1995 H 0.95779 0.27816 0.02815 0.0
C1996 C 0.96129 0.30747 0.01981 0.0
C1997 C 0.96207 0.32193 0.01294 0.0
C1998 C 0.94965 0.29215 0.00958 0.0
C1999 C 0.95048 0.32075 0.99681 0.0
C2000 C 0.93877 0.30558 0.98687 0.0
C2001 C 0.92765 0.27623 0.98113 0.0
C2002 C 0.92789 0.26198 0.98591 0.0
C2003 C 0.93849 0.29126 0.99269 0.0
C2004 C 0.93866 0.26285 0.00336 0.0
C2005 C 0.9494 0.27778 0.01516 0.0
H2006 H 0.69803 0.67398 0.01913 0.0
H2007 H 0.67799 0.62216 0.00546 0.0
H2008 H 0.70358 0.62798 0.98761 0.0
H2009 H 0.73085 0.64792 0.97327 0.0
H2010 H 0.74927 0.69993 0.98249 0.0
H2011 H 0.72542 0.69386 0.0054 0.0
C2012 C 0.69937 0.66394 0.01264 0.0
C2013 C 0.6862 0.64766 0.01369 0.0
C2014 C 0.71387 0.66742 0.00157 0.0
C2015 C 0.68799 0.6348 0.00483 0.0
C2016 C 0.7026 0.63813 0.99459 0.0
C2017 C 0.72968 0.65799 0.9801 0.0
C2018 C 0.74202 0.6744 0.9759 0.0
C2019 C 0.71549 0.65443 0.99234 0.0
C2020 C 0.74028 0.68717 0.98563 0.0
C2021 C 0.72648 0.68372 0.99857 0.0
H2022 H 0.95003 0.63807 0.99317 0.0
H2023 H 0.98479 0.66603 0.93803 0.0
H2024 H 0.96823 0.67658 0.92525 0.0
H2025 H 0.9441 0.67806 0.92942 0.0
H2026 H 0.90877 0.65028 0.98372 0.0
H2027 H 0.92524 0.63935 0.997 0.0
C2028 C 0.95394 0.64644 0.97833 0.0
C2029 C 0.96868 0.65125 0.96665 0.0
C2030 C 0.94428 0.65252 0.97093 0.0
C2031 C 0.97354 0.66209 0.94741 0.0
C2032 C 0.96408 0.66818 0.94006 0.0
C2033 C 0.94009 0.66978 0.94439 0.0
C2034 C 0.92538 0.66519 0.95583 0.0
C2035 C 0.94951 0.66355 0.95173 0.0
C2036 C 0.9201 0.65404 0.9747 0.0
C2037 C 0.92952 0.64783 0.98229 0.0
H2038 H 0.36311 0.31695 0.01433 0.0
H2039 H 0.33059 0.32448 0.97235 0.0
H2040 H 0.32022 0.29789 0.95219 0.0
H2041 H 0.3209 0.27297 0.94534 0.0
H2042 H 0.35314 0.26488 0.98683 0.0
H2043 H 0.36319 0.29128 0.00816 0.0
C2044 C 0.35372 0.31274 0.00083 0.0
C2045 C 0.3477 0.32276 0.99486 0.0
C2046 C 0.34779 0.29737 0.98915 0.0
C2047 C 0.33552 0.3171 0.97731 0.0
C2048 C 0.32954 0.30186 0.96573 0.0
C2049 C 0.32992 0.27681 0.95935 0.0
C2050 C 0.33618 0.26691 0.96459 0.0
C2051 C 0.33564 0.29195 0.97142 0.0
C2052 C 0.34818 0.27232 0.98237 0.0
C2053 C 0.3539 0.28738 0.9946 0.0
H2054 H 0.67466 0.05085 0.01286 0.0
H2055 H 0.67814 0.01499 0.96851 0.0
H2056 H 0.70433 0.03642 0.95363 0.0
H2057 H 0.72545 0.06552 0.95112 0.0
H2058 H 0.72184 0.10173 0.99407 0.0
H2059 H 0.69657 0.08001 0.01168 0.0
C2060 C 0.68121 0.04771 8e-05 0.0
C2061 C 0.67437 0.03134 0.99172 0.0
C2062 C 0.69624 0.06017 0.99131 0.0
C2063 C 0.68303 0.0275 0.97513 0.0
C2064 C 0.69805 0.03975 0.96661 0.0
C2065 C 0.7193 0.06862 0.96471 0.0
C2066 C 0.72551 0.08517 0.97137 0.0
C2067 C 0.70467 0.05614 0.97433 0.0
C2068 C 0.71725 0.08905 0.98862 0.0
C2069 C 0.70281 0.07665 0.99865 0.0
H2070 H 0.66828 0.9749 0.04303 0.0
H2071 H 0.6286 0.93622 0.00177 0.0
H2072 H 0.636 0.91663 0.01439 0.0
H2073 H 0.65338 0.91044 0.03849 0.0
H2074 H 0.69244 0.94969 0.08021 0.0
H2075 H 0.68576 0.9691 0.0657 0.0
C2076 C 0.66122 0.96219 0.03671 0.0
C2077 C 0.64784 0.95701 0.02163 0.0
C2078 C 0.6655 0.95109 0.04402 0.0
C2079 C 0.63895 0.94052 0.01344 0.0
C2080 C 0.64317 0.92932 0.02068 0.0
C2081 C 0.66043 0.92324 0.04435 0.0
C2082 C 0.67351 0.92856 0.06026 0.0
C2083 C 0.65635 0.93444 0.03619 0.0
C2084 C 0.68256 0.94525 0.06755 0.0
C2085 C 0.67866 0.95638 0.05946 0.0
H2086 H 0.02595 0.68116 0.03116 0.0
H2087 H 0.05861 0.67769 0.98152 0.0
H2088 H 0.0813 0.70306 0.99885 0.0
H2089 H 0.09203 0.72526 0.02988 0.0
H2090 H 0.05908 0.72758 0.08034 0.0
H2091 H 0.03635 0.70388 0.0605 0.0
C2092 C 0.03801 0.68597 0.02398 0.0
C2093 C 0.04059 0.67743 0.00523 0.0
C2094 C 0.05097 0.70043 0.03414 0.0
C2095 C 0.05628 0.68397 0.99603 0.0
C2096 C 0.06927 0.69847 0.00596 0.0
C2097 C 0.07988 0.72061 0.03648 0.0
C2098 C 0.07734 0.72827 0.0566 0.0
C2099 C 0.06679 0.70664 0.02532 0.0
C2100 C 0.06145 0.72218 0.06468 0.0
C2101 C 0.0484 0.70848 0.0535 0.0
H2102 H 0.30518 0.33494 0.06447 0.0
H2103 H 0.31027 0.37409 0.02105 0.0
H2104 H 0.28301 0.36717 0.03254 0.0
H2105 H 0.25771 0.3499 0.0552 0.0
H2106 H 0.25369 0.31138 0.09919 0.0
H2107 H 0.28041 0.31799 0.08672 0.0
C2108 C 0.30039 0.34202 0.05748 0.0
C2109 C 0.30979 0.35504 0.04198 0.0
C2110 C 0.28479 0.33796 0.06407 0.0
C2111 C 0.30331 0.36401 0.03308 0.0
C2112 C 0.28771 0.36004 0.03961 0.0
C2113 C 0.2627 0.34297 0.06207 0.0
C2114 C 0.25352 0.33 0.07789 0.0
C2115 C 0.27833 0.34703 0.05514 0.0
C2116 C 0.2602 0.32113 0.08651 0.0
C2117 C 0.27561 0.32501 0.07961 0.0
H2118 H 0.687 0.65702 0.35589 0.0
H2119 H 0.72584 0.70763 0.35049 0.0
H2120 H 0.74456 0.701 0.36818 0.0
H2121 H 0.74938 0.68123 0.38765 0.0
H2122 H 0.70958 0.6313 0.39667 0.0
H2123 H 0.69198 0.63717 0.37434 0.0
C2124 C 0.69961 0.66657 0.35828 0.0
C2125 C 0.705 0.68281 0.35196 0.0
C2126 C 0.71017 0.66278 0.36907 0.0
C2127 C 0.72136 0.69505 0.35534 0.0
C2128 C 0.73206 0.69127 0.36546 0.0
C2129 C 0.73685 0.67162 0.38488 0.0
C2130 C 0.73092 0.65585 0.39405 0.0
C2131 C 0.72651 0.67524 0.37288 0.0
C2132 C 0.71469 0.64349 0.3896 0.0
C2133 C 0.70449 0.64687 0.37703 0.0
H2134 H 0.29482 0.0156 0.34521 0.0
H2135 H 0.33001 0.01021 0.38354 0.0
H2136 H 0.34191 0.03798 0.40048 0.0
H2137 H 0.34219 0.06363 0.40499 0.0
H2138 H 0.30632 0.06897 0.369 0.0
H2139 H 0.29478 0.04139 0.35049 0.0
C2140 C 0.30511 0.02055 0.35722 0.0
C2141 C 0.31152 0.01086 0.36308 0.0
C2142 C 0.31177 0.0365 0.36727 0.0
C2143 C 0.32477 0.01736 0.37884 0.0
C2144 C 0.33164 0.03327 0.38849 0.0
C2145 C 0.33195 0.0588 0.39286 0.0
C2146 C 0.32522 0.0683 0.38802 0.0
C2147 C 0.32523 0.04291 0.38286 0.0
C2148 C 0.31172 0.06183 0.37281 0.0
C2149 C 0.30514 0.0461 0.36229 0.0
H2150 H 0.98573 0.28677 0.3377 0.0
H2151 H 0.99205 0.32487 0.38825 0.0
H2152 H 0.96706 0.30535 0.40843 0.0
H2153 H 0.94451 0.27714 0.41367 0.0
H2154 H 0.93803 0.23881 0.3636 0.0
H2155 H 0.96197 0.25875 0.34135 0.0
C2156 C 0.98157 0.29084 0.353 0.0
C2157 C 0.99087 0.30725 0.36153 0.0
C2158 C 0.96719 0.2795 0.36472 0.0
C2159 C 0.98524 0.3123 0.38135 0.0
C2160 C 0.97092 0.30115 0.39295 0.0
C2161 C 0.9481 0.27318 0.39758 0.0
C2162 C 0.93949 0.25648 0.39036 0.0
C2163 C 0.96194 0.28467 0.38503 0.0
C2164 C 0.94454 0.25156 0.36971 0.0
C2165 C 0.95822 0.26296 0.35695 0.0
H2166 H 0.00506 0.38252 0.34894 0.0
H2167 H 0.05372 0.39961 0.32502 0.0
H2168 H 0.05495 0.42282 0.30581 0.0
H2169 H 0.04152 0.43689 0.29286 0.0
H2170 H 0.99297 0.42022 0.31673 0.0
H2171 H 0.99238 0.39812 0.33872 0.0
C2172 C 0.016 0.39141 0.33975 0.0
C2173 C 0.02922 0.3892 0.33827 0.0
C2174 C 0.01661 0.40472 0.32851 0.0
C2175 C 0.04332 0.40092 0.32636 0.0
C2176 C 0.04404 0.4142 0.31531 0.0
C2177 C 0.03092 0.4287 0.30332 0.0
C2178 C 0.01729 0.43022 0.30302 0.0
C2179 C 0.03066 0.41604 0.31588 0.0
C2180 C 0.00356 0.41921 0.31634 0.0
C2181 C 0.00323 0.40661 0.32899 0.0
H2182 H 0.64615 0.65651 0.31698 0.0
H2183 H 0.61808 0.66364 0.37104 0.0
H2184 H 0.59366 0.63806 0.35755 0.0
H2185 H 0.58014 0.61446 0.32859 0.0
H2186 H 0.60894 0.60669 0.27661 0.0
H2187 H 0.63332 0.63158 0.29129 0.0
C2188 C 0.63467 0.6524 0.32583 0.0
C2189 C 0.63376 0.66197 0.34466 0.0
C2190 C 0.62088 0.63755 0.31843 0.0
C2191 C 0.61897 0.65643 0.35639 0.0
C2192 C 0.60504 0.64185 0.34867 0.0
C2193 C 0.59182 0.61814 0.32081 0.0
C2194 C 0.59281 0.60883 0.30158 0.0
C2195 C 0.60583 0.63241 0.3295 0.0
C2196 C 0.60796 0.61361 0.2916 0.0
C2197 C 0.62186 0.6279 0.29983 0.0
H2198 H 0.35944 0.00329 0.31688 0.0
H2199 H 0.34176 0.95225 0.32975 0.0
H2200 H 0.36699 0.95571 0.31403 0.0
H2201 H 0.39351 0.97299 0.2946 0.0
H2202 H 0.41056 0.02388 0.28136 0.0
H2203 H 0.38626 0.02077 0.29971 0.0
C2204 C 0.36109 0.99291 0.31634 0.0
C2205 C 0.34867 0.97749 0.32423 0.0
C2206 C 0.37556 0.99498 0.3073 0.0
C2207 C 0.35112 0.96424 0.3237 0.0
C2208 C 0.36553 0.96621 0.31468 0.0
C2209 C 0.39192 0.9834 0.29582 0.0
C2210 C 0.40387 0.99865 0.28659 0.0
C2211 C 0.37775 0.98148 0.30611 0.0
C2212 C 0.40171 0.01208 0.28861 0.0
C2213 C 0.38773 0.01028 0.2989 0.0
H2214 H 0.61715 0.96546 0.32321 0.0
H2215 H 0.64916 0.99434 0.26598 0.0
H2216 H 0.6277 0.99664 0.24824 0.0
H2217 H 0.59971 0.98966 0.24797 0.0
H2218 H 0.56745 0.96107 0.30506 0.0
H2219 H 0.58914 0.95936 0.32375 0.0
C2220 C 0.61944 0.97229 0.30689 0.0
C2221 C 0.63475 0.97966 0.29591 0.0
C2222 C 0.60701 0.97359 0.29671 0.0
C2223 C 0.63751 0.98851 0.27481 0.0
C2224 C 0.62524 0.98984 0.26462 0.0
C2225 C 0.59747 0.98332 0.26476 0.0
C2226 C 0.58198 0.97557 0.27514 0.0
C2227 C 0.60994 0.98237 0.27534 0.0
C2228 C 0.57923 0.96705 0.29659 0.0
C2229 C 0.59163 0.9661 0.30731 0.0
H2230 H 0.05207 0.67683 0.30641 0.0
H2231 H 0.01252 0.66123 0.35632 0.0
H2232 H 0.00185 0.63258 0.34435 0.0
H2233 H 0.00254 0.61213 0.31751 0.0
H2234 H 0.04132 0.62793 0.26613 0.0
H2235 H 0.05365 0.65618 0.28132 0.0
C2236 C 0.04123 0.66716 0.31491 0.0
C2237 C 0.03305 0.67121 0.33208 0.0
C2238 C 0.03499 0.65069 0.30767 0.0
C2239 C 0.01902 0.65849 0.34291 0.0
C2240 C 0.01288 0.64208 0.33607 0.0
C2241 C 0.01372 0.62174 0.30967 0.0
C2242 C 0.02091 0.61786 0.29062 0.0
C2243 C 0.02056 0.63807 0.31807 0.0
C2244 C 0.03557 0.63046 0.281 0.0
C2245 C 0.04258 0.64669 0.28952 0.0
H2246 H 0.33545 0.36618 0.30231 0.0
H2247 H 0.35767 0.36553 0.36853 0.0
H2248 H 0.38374 0.38823 0.35494 0.0
H2249 H 0.40057 0.40719 0.32315 0.0
H2250 H 0.37817 0.40717 0.25673 0.0
H2251 H 0.35186 0.38604 0.27168 0.0
C2252 C 0.34596 0.37106 0.31388 0.0
C2253 C 0.34461 0.36405 0.33632 0.0
C2254 C 0.36092 0.38404 0.30591 0.0
C2255 C 0.35835 0.37065 0.35113 0.0
C2256 C 0.37329 0.38361 0.34335 0.0
C2257 C 0.38992 0.40259 0.312 0.0
C2258 C 0.39139 0.40879 0.28885 0.0
C2259 C 0.37478 0.39022 0.32059 0.0
C2260 C 0.37741 0.40283 0.27474 0.0
C2261 C 0.36234 0.39061 0.28319 0.0
H2262 H 0.34665 0.31056 0.34555 0.0
H2263 H 0.29627 0.27209 0.34376 0.0
H2264 H 0.30272 0.2532 0.3619 0.0
H2265 H 0.32238 0.2483 0.38084 0.0
H2266 H 0.37228 0.28801 0.38675 0.0
H2267 H 0.36638 0.30545 0.36369 0.0
C2268 C 0.33711 0.29796 0.34879 0.0
C2269 C 0.32101 0.29272 0.34335 0.0
C2270 C 0.34084 0.28736 0.35995 0.0
C2271 C 0.30876 0.27643 0.3479 0.0
C2272 C 0.31244 0.26564 0.35828 0.0
C2273 C 0.33199 0.26079 0.37726 0.0
C2274 C 0.34776 0.26673 0.38578 0.0
C2275 C 0.32839 0.27109 0.36489 0.0
C2276 C 0.36007 0.28287 0.38023 0.0
C2277 C 0.35668 0.29299 0.36722 0.0
H2278 H 0.72584 0.01098 0.36618 0.0
H2279 H 0.69364 0.02401 0.33576 0.0
H2280 H 0.71052 0.05216 0.35168 0.0
H2281 H 0.73344 0.07248 0.37615 0.0
H2282 H 0.76358 0.05827 0.41101 0.0
H2283 H 0.7489 0.03147 0.39076 0.0
C2284 C 0.72268 0.02007 0.36279 0.0
C2285 C 0.70858 0.0155 0.3498 0.0
C2286 C 0.73211 0.03605 0.37275 0.0
C2287 C 0.70444 0.02728 0.34579 0.0
C2288 C 0.71408 0.04335 0.35488 0.0
C2289 C 0.73677 0.06353 0.37958 0.0
C2290 C 0.74966 0.06757 0.3953 0.0
C2291 C 0.72776 0.04778 0.3688 0.0
C2292 C 0.75397 0.05581 0.39877 0.0
C2293 C 0.74543 0.04032 0.38739 0.0
H2294 H 0.97363 0.66811 0.37815 0.0
H2295 H 0.98612 0.71716 0.36103 0.0
H2296 H 0.95827 0.70975 0.36928 0.0
H2297 H 0.93081 0.68969 0.38405 0.0
H2298 H 0.91931 0.64098 0.40191 0.0
H2299 H 0.9462 0.64783 0.39009 0.0
C2300 C 0.97028 0.6772 0.37612 0.0
C2301 C 0.98196 0.69322 0.36932 0.0
C2302 C 0.95436 0.67288 0.38088 0.0
C2303 C 0.97734 0.70475 0.36636 0.0
C2304 C 0.96144 0.70053 0.37112 0.0
C2305 C 0.93417 0.68056 0.3852 0.0
C2306 C 0.92294 0.66481 0.39382 0.0
C2307 C 0.9499 0.68468 0.37881 0.0
C2308 C 0.92749 0.65308 0.39493 0.0
C2309 C 0.94298 0.65704 0.38844 0.0
H2310 H 0.37522 0.01435 0.67874 0.0
H2311 H 0.40209 0.05794 0.72387 0.0
H2312 H 0.41749 0.04691 0.74041 0.0
H2313 H 0.42154 0.02386 0.74478 0.0
H2314 H 0.39484 0.98031 0.69955 0.0
H2315 H 0.38112 0.99237 0.6804 0.0
C2316 C 0.38456 0.02152 0.69202 0.0
C2317 C 0.38736 0.03688 0.70023 0.0
C2318 C 0.3933 0.01506 0.7016 0.0
C2319 C 0.39961 0.04606 0.71729 0.0
C2320 C 0.40841 0.03974 0.72683 0.0
C2321 C 0.41301 0.01714 0.73034 0.0
C2322 C 0.40914 0.00114 0.72377 0.0
C2323 C 0.40513 0.02412 0.71947 0.0
C2324 C 0.39786 0.99254 0.70524 0.0
C2325 C 0.39004 0.99944 0.69423 0.0
H2326 H 0.98423 0.35184 0.66703 0.0
H2327 H 0.98747 0.33454 0.73627 0.0
H2328 H 0.98924 0.35852 0.75604 0.0
H2329 H 0.98907 0.38395 0.75398 0.0
H2330 H 0.98374 0.40056 0.68559 0.0
H2331 H 0.98364 0.37739 0.66506 0.0
C2332 C 0.98538 0.35339 0.68642 0.0
C2333 C 0.98572 0.34144 0.70016 0.0
C2334 C 0.98604 0.36708 0.69779 0.0
C2335 C 0.98707 0.3435 0.7253 0.0
C2336 C 0.98814 0.35724 0.73663 0.0
C2337 C 0.9881 0.38258 0.73454 0.0
C2338 C 0.98665 0.39397 0.7212 0.0
C2339 C 0.98756 0.36904 0.72309 0.0
C2340 C 0.98499 0.39193 0.69611 0.0
C2341 C 0.9849 0.37869 0.68444 0.0
H2342 H 0.64529 0.64405 0.68937 0.0
H2343 H 0.66371 0.61869 0.72788 0.0
H2344 H 0.63637 0.59812 0.74033 0.0
H2345 H 0.60761 0.58846 0.74257 0.0
H2346 H 0.58888 0.61329 0.70345 0.0
H2347 H 0.61604 0.63302 0.68904 0.0
C2348 C 0.64331 0.63398 0.70039 0.0
C2349 C 0.65655 0.633 0.70786 0.0
C2350 C 0.62754 0.62215 0.70746 0.0
C2351 C 0.65376 0.61978 0.72193 0.0
C2352 C 0.63813 0.60801 0.72909 0.0
C2353 C 0.60935 0.59792 0.73041 0.0
C2354 C 0.59618 0.59938 0.72417 0.0
C2355 C 0.62497 0.6092 0.72221 0.0
C2356 C 0.59881 0.61198 0.7088 0.0
C2357 C 0.61433 0.62326 0.70051 0.0
H2358 H 0.70951 0.72474 0.65588 0.0
H2359 H 0.66378 0.70718 0.69154 0.0
H2360 H 0.66179 0.72929 0.67429 0.0
H2361 H 0.6725 0.7529 0.64749 0.0
H2362 H 0.71801 0.76985 0.61145 0.0
H2363 H 0.7207 0.74888 0.63074 0.0
C2364 C 0.69913 0.72578 0.66001 0.0
C2365 C 0.68676 0.71424 0.67484 0.0
C2366 C 0.69803 0.73846 0.64999 0.0
C2367 C 0.67347 0.71586 0.68012 0.0
C2368 C 0.6723 0.72849 0.67023 0.0
C2369 C 0.68301 0.75201 0.64392 0.0
C2370 C 0.69504 0.76299 0.62809 0.0
C2371 C 0.68442 0.73974 0.65487 0.0
C2372 C 0.70868 0.76177 0.62385 0.0
C2373 C 0.71018 0.74967 0.63471 0.0
H2374 H 0.31072 0.99388 0.63949 0.0
H2375 H 0.29334 0.985 0.71255 0.0
H2376 H 0.27139 0.95731 0.70063 0.0
H2377 H 0.25794 0.93501 0.66945 0.0
H2378 H 0.27686 0.94396 0.59732 0.0
H2379 H 0.29737 0.97224 0.60877 0.0
C2380 C 0.30206 0.98598 0.65281 0.0
C2381 C 0.30367 0.99151 0.67687 0.0
C2382 C 0.28978 0.97002 0.64597 0.0
C2383 C 0.29239 0.98102 0.69391 0.0
C2384 C 0.27985 0.96518 0.6871 0.0
C2385 C 0.26651 0.94327 0.65634 0.0
C2386 C 0.26602 0.93755 0.63265 0.0
C2387 C 0.27854 0.95946 0.66322 0.0
C2388 C 0.27716 0.9482 0.61569 0.0
C2389 C 0.28886 0.96433 0.62222 0.0
H2390 H 0.0439 0.33951 0.69571 0.0
H2391 H 0.01994 0.29416 0.65363 0.0
H2392 H 0.04479 0.30279 0.63138 0.0
H2393 H 0.0726 0.32393 0.62179 0.0
H2394 H 0.09684 0.36937 0.6635 0.0
H2395 H 0.07252 0.36001 0.68782 0.0
C2396 C 0.04415 0.33144 0.68185 0.0
C2397 C 0.03002 0.31625 0.67627 0.0
C2398 C 0.05848 0.33654 0.66889 0.0
C2399 C 0.03059 0.30595 0.65825 0.0
C2400 C 0.04481 0.31088 0.64546 0.0
C2401 C 0.07272 0.33167 0.63654 0.0
C2402 C 0.08655 0.34734 0.64078 0.0
C2403 C 0.05873 0.32625 0.65036 0.0
C2404 C 0.08632 0.35733 0.65965 0.0
C2405 C 0.07243 0.35196 0.67362 0.0
H2406 H 0.30945 0.3412 0.64499 0.0
H2407 H 0.27681 0.29202 0.66969 0.0
H2408 H 0.25377 0.29312 0.65541 0.0
H2409 H 0.24305 0.3073 0.63334 0.0
H2410 H 0.27598 0.35596 0.60702 0.0
H2411 H 0.29864 0.35595 0.6251 0.0
C2412 C 0.29729 0.33076 0.64744 0.0
C2413 C 0.29489 0.31649 0.65817 0.0
C2414 C 0.28411 0.3314 0.63896 0.0
C2415 C 0.27903 0.30313 0.66135 0.0
C2416 C 0.26584 0.30374 0.65317 0.0
C2417 C 0.25518 0.31793 0.63162 0.0
C2418 C 0.25776 0.33156 0.6187 0.0
C2419 C 0.26826 0.31768 0.64152 0.0
C2420 C 0.27354 0.34536 0.61708 0.0
C2421 C 0.28657 0.34531 0.62721 0.0
H2422 H 0.69856 0.99902 0.65721 0.0
H2423 H 0.65295 0.97613 0.6948 0.0
H2424 H 0.64672 0.9491 0.68014 0.0
H2425 H 0.65335 0.93213 0.65437 0.0
H2426 H 0.69856 0.95525 0.61575 0.0
H2427 H 0.70593 0.98189 0.63357 0.0
C2428 C 0.6873 0.98812 0.66237 0.0
C2429 C 0.67618 0.98965 0.67688 0.0
C2430 C 0.68372 0.9726 0.65374 0.0
C2431 C 0.66171 0.97535 0.68353 0.0
C2432 C 0.65811 0.95987 0.67514 0.0
C2433 C 0.66485 0.94299 0.64994 0.0
C2434 C 0.67534 0.94165 0.63366 0.0
C2435 C 0.66889 0.95837 0.65986 0.0
C2436 C 0.69032 0.95583 0.62844 0.0
C2437 C 0.69449 0.97113 0.63844 0.0
H2438 H 0.00754 0.72261 0.67568 0.0
H2439 H 0.00574 0.67766 0.65568 0.0
H2440 H 0.03352 0.69342 0.64153 0.0
H2441 H 0.05802 0.71984 0.63345 0.0
H2442 H 0.06007 0.76498 0.65235 0.0
H2443 H 0.03251 0.74928 0.66826 0.0
C2444 C 0.01325 0.71627 0.66832 0.0
C2445 C 0.00451 0.69897 0.66672 0.0
C2446 C 0.02928 0.72543 0.65997 0.0
C2447 C 0.01211 0.69096 0.65706 0.0
C2448 C 0.02804 0.69996 0.64897 0.0
C2449 C 0.05254 0.72625 0.64142 0.0
C2450 C 0.06111 0.74354 0.64188 0.0
C2451 C 0.03669 0.71718 0.65021 0.0
C2452 C 0.05369 0.75167 0.65174 0.0
C2453 C 0.03795 0.7427 0.66084 0.0
H2454 H 0.98441 0.62276 0.65991 0.0
H2455 H 0.94692 0.61066 0.71245 0.0
H2456 H 0.95156 0.59019 0.72931 0.0
H2457 H 0.96792 0.57761 0.73151 0.0
H2458 H 0.0062 0.59052 0.68025 0.0
H2459 H 0.99956 0.60877 0.66041 0.0
C2460 C 0.97711 0.61551 0.67486 0.0
C2461 C 0.96541 0.61834 0.68501 0.0
C2462 C 0.98005 0.60398 0.68477 0.0
C2463 C 0.95608 0.60882 0.7044 0.0
C2464 C 0.95873 0.59711 0.71406 0.0
C2465 C 0.97456 0.58412 0.71565 0.0
C2466 C 0.98751 0.58272 0.70732 0.0
C2467 C 0.97091 0.59484 0.70472 0.0
C2468 C 0.99623 0.59148 0.68704 0.0
C2469 C 0.99244 0.60192 0.67574 0.0
H2470 H 0.35889 0.34774 0.71783 0.0
H2471 H 0.38984 0.34668 0.66235 0.0
H2472 H 0.41293 0.37163 0.67962 0.0
H2473 H 0.42459 0.39305 0.71154 0.0
H2474 H 0.39368 0.3935 0.76761 0.0
H2475 H 0.37031 0.36973 0.74873 0.0
C2476 C 0.37066 0.353 0.70942 0.0
C2477 C 0.37263 0.34526 0.68893 0.0
C2478 C 0.38391 0.3673 0.7195 0.0
C2479 C 0.38797 0.35232 0.6782 0.0
C2480 C 0.4012 0.3666 0.68807 0.0
C2481 C 0.41274 0.38794 0.71962 0.0
C2482 C 0.41094 0.39506 0.74098 0.0
C2483 C 0.39935 0.37406 0.7089 0.0
C2484 C 0.39543 0.38844 0.751 0.0
C2485 C 0.38205 0.37473 0.74034 0.0
H2486 H 0.64288 0.02788 0.68221 0.0
H2487 H 0.66279 0.05457 0.74926 0.0
H2488 H 0.63567 0.0439 0.76504 0.0
H2489 H 0.60657 0.0252 0.76123 0.0
H2490 H 0.58617 0.99959 0.69361 0.0
H2491 H 0.61328 0.01146 0.67685 0.0
C2492 C 0.64127 0.0315 0.70018 0.0
C2493 C 0.65487 0.04189 0.71459 0.0
C2494 C 0.62558 0.02536 0.70919 0.0
C2495 C 0.65257 0.04658 0.73775 0.0
C2496 C 0.63705 0.04043 0.74686 0.0
C2497 C 0.60789 0.0225 0.7426 0.0
C2498 C 0.59419 0.01134 0.72887 0.0
C2499 C 0.62348 0.02958 0.73291 0.0
C2500 C 0.59642 0.00783 0.70488 0.0
C2501 C 0.61195 0.0147 0.69518 0.0
loop_
_geom_bond_atom_site_label_1
_geom_bond_atom_site_label_2
_geom_bond_distance
_geom_bond_site_symmetry_2
_ccdc_geom_bond_type
C0 O1 1.160 . S
C0 O7 1.185 . S
O1 C0 1.160 . S
O2 Zn3 1.899 1_656 S
O2 C10 1.284 1_556 S
Zn3 O2 1.899 1_454 S
Zn3 O4 2.032 . S
Zn3 O7 2.086 . S
Zn3 O12 1.977 1_554 S
O4 Zn3 2.032 . S
O4 C8 1.278 1_455 S
C5 O6 1.203 1_455 S
C5 O12 1.267 . S
O6 C5 1.203 1_655 S
O7 C0 1.185 . S
O7 Zn3 2.086 . S
C8 O4 1.278 1_655 S
C8 O9 1.211 . S
O9 C8 1.211 . S
C10 O2 1.284 1_554 S
C10 O11 1.273 . S
O11 C10 1.273 . S
O12 Zn3 1.977 1_556 S
O12 C5 1.267 . S
C13 O14 1.160 1_554 S
C13 O20 1.185 . S
O14 C13 1.160 1_556 S
O15 Zn16 1.899 . S
O15 C23 1.284 . S
Zn16 O15 1.899 . S
Zn16 O17 2.032 1_554 S
Zn16 O20 2.086 . S
Zn16 O25 1.977 . S
O17 Zn16 2.032 1_556 S
O17 C21 1.278 . S
C18 O19 1.203 . S
C18 O25 1.267 . S
O19 C18 1.203 . S
O20 C13 1.185 . S
O20 Zn16 2.086 . S
C21 O17 1.278 . S
C21 O22 1.211 . S
O22 C21 1.211 . S
C23 O15 1.284 . S
C23 O24 1.273 . S
O24 C23 1.273 . S
O25 Zn16 1.977 . S
O25 C18 1.267 . S
C26 O27 1.160 1_554 S
C26 O33 1.185 . S
O27 C26 1.160 1_556 S
O28 Zn29 1.899 1_565 S
O28 C36 1.284 . S
Zn29 O28 1.899 1_545 S
Zn29 O30 2.032 1_554 S
Zn29 O33 2.086 . S
Zn29 O38 1.977 . S
O30 Zn29 2.032 1_556 S
O30 C34 1.328 . S
C31 O32 1.203 1_545 S
C31 O38 1.267 . S
O32 C31 1.203 1_565 S
O33 C26 1.185 . S
O33 Zn29 2.086 . S
C34 O30 1.328 . S
C34 O35 1.172 1_545 S
O35 C34 1.172 1_565 S
C36 O28 1.284 . S
C36 O37 1.273 . S
O37 C36 1.273 . S
O38 Zn29 1.977 . S
O38 C31 1.267 . S
C39 O40 1.160 . S
C39 O46 1.185 1_556 S
O40 C39 1.160 . S
O41 Zn42 1.899 1_455 S
O41 C49 1.284 . S
Zn42 O41 1.899 1_655 S
Zn42 O43 2.032 1_554 S
Zn42 O46 2.086 . S
Zn42 O51 1.977 . S
O43 Zn42 2.032 1_556 S
O43 C47 1.278 1_655 S
C44 O45 1.136 1_655 S
C44 O51 1.336 . S
O45 C44 1.136 1_455 S
O46 C39 1.185 1_554 S
O46 Zn42 2.086 . S
C47 O43 1.278 1_455 S
C47 O48 1.211 . S
O48 C47 1.211 . S
C49 O41 1.284 . S
C49 O50 1.273 . S
O50 C49 1.273 . S
O51 Zn42 1.977 . S
O51 C44 1.336 . S
C52 O53 1.160 . S
C52 O59 1.185 . S
O53 C52 1.160 . S
O54 Zn55 1.899 1_556 S
O54 C62 1.299 . S
Zn55 O54 1.899 1_554 S
Zn55 O56 2.032 . S
Zn55 O59 2.086 . S
Zn55 O64 1.977 1_554 S
O56 Zn55 2.032 . S
O56 C60 1.278 . S
C57 O58 1.203 . S
C57 O64 1.267 . S
O58 C57 1.203 . S
O59 C52 1.185 . S
O59 Zn55 2.086 . S
C60 O56 1.278 . S
C60 O61 1.211 . S
O61 C60 1.211 . S
C62 O54 1.299 . S
C62 O63 1.250 1_556 S
O63 C62 1.250 1_554 S
O64 Zn55 1.977 1_556 S
O64 C57 1.267 . S
C65 O66 1.160 . S
C65 O72 1.185 . S
O66 C65 1.160 . S
O67 Zn68 1.899 1_546 S
O67 C75 1.284 1_556 S
Zn68 O67 1.899 1_564 S
Zn68 O69 2.032 . S
Zn68 O72 2.086 . S
Zn68 O77 1.977 1_554 S
O69 Zn68 2.032 . S
O69 C73 1.278 1_565 S
C70 O71 1.203 1_565 S
C70 O77 1.267 . S
O71 C70 1.203 1_545 S
O72 C65 1.185 . S
O72 Zn68 2.086 . S
C73 O69 1.278 1_545 S
C73 O74 1.211 . S
O74 C73 1.211 . S
C75 O67 1.284 1_554 S
C75 O76 1.273 . S
O76 C75 1.273 . S
O77 Zn68 1.977 1_556 S
O77 C70 1.267 . S
C78 O79 1.160 . S
C78 O85 1.185 . S
O79 C78 1.160 . S
O80 Zn81 1.899 . S
O80 C88 1.284 . S
Zn81 O80 1.899 . S
Zn81 O82 2.032 . S
Zn81 O85 2.086 . S
Zn81 O90 1.977 . S
O82 Zn81 2.032 . S
O82 C86 1.278 . S
C83 O84 1.203 . S
C83 O90 1.267 . S
O84 C83 1.203 . S
O85 C78 1.185 . S
O85 Zn81 2.086 . S
C86 O82 1.278 . S
C86 O87 1.211 . S
O87 C86 1.211 . S
C88 O80 1.284 . S
C88 O89 1.273 . S
O89 C88 1.273 . S
O90 Zn81 1.977 . S
O90 C83 1.267 . S
C91 O92 1.160 . S
C91 O98 1.185 . S
O92 C91 1.160 . S
O93 Zn94 1.899 . S
O93 C101 1.284 1_565 S
Zn94 O93 1.899 . S
Zn94 O95 2.032 . S
Zn94 O98 2.086 . S
Zn94 O103 1.977 . S
O95 Zn94 2.032 . S
O95 C99 1.278 . S
C96 O97 1.203 . S
C96 O103 1.267 . S
O97 C96 1.203 . S
O98 C91 1.185 . S
O98 Zn94 2.086 . S
C99 O95 1.278 . S
C99 O100 1.211 . S
O100 C99 1.211 . S
C101 O93 1.284 1_545 S
C101 O102 1.273 1_545 S
O102 C101 1.273 1_565 S
O103 Zn94 1.977 . S
O103 C96 1.267 . S
C104 O105 1.160 . S
C104 O111 1.185 . S
O105 C104 1.160 . S
O106 Zn107 1.899 . S
O106 C114 1.284 . S
Zn107 O106 1.899 . S
Zn107 O108 2.032 . S
Zn107 O111 2.086 . S
Zn107 O116 1.977 . S
O108 Zn107 2.032 . S
O108 C112 1.278 . S
C109 O110 1.203 . S
C109 O116 1.267 . S
O110 C109 1.203 . S
O111 C104 1.185 . S
O111 Zn107 2.086 . S
C112 O108 1.278 . S
C112 O113 1.211 . S
O113 C112 1.211 . S
C114 O106 1.284 . S
C114 O115 1.273 . S
O115 C114 1.273 . S
O116 Zn107 1.977 . S
O116 C109 1.267 . S
C117 O118 1.160 . S
C117 O124 1.185 . S
O118 C117 1.160 . S
O119 Zn120 1.899 . S
O119 C127 1.284 1_565 S
Zn120 O119 1.899 . S
Zn120 O121 2.032 . S
Zn120 O124 2.086 . S
Zn120 O129 1.977 . S
O121 Zn120 2.032 . S
O121 C125 1.278 . S
C122 O123 1.203 . S
C122 O129 1.267 . S
O123 C122 1.203 . S
O124 C117 1.185 . S
O124 Zn120 2.086 . S
C125 O121 1.278 . S
C125 O126 1.211 . S
O126 C125 1.211 . S
C127 O119 1.284 1_545 S
C127 O128 1.273 1_545 S
O128 C127 1.273 1_565 S
O129 Zn120 1.977 . S
O129 C122 1.267 . S
C130 O131 1.160 . S
C130 O137 1.188 . S
O131 C130 1.160 . S
O132 Zn133 1.899 . S
O132 C140 1.284 . S
Zn133 O132 1.899 . S
Zn133 O134 2.032 . S
Zn133 O137 2.079 1_455 S
Zn133 O142 1.977 . S
O134 Zn133 2.032 . S
O134 C138 1.278 . S
C135 O136 1.203 . S
C135 O142 1.267 . S
O136 C135 1.203 . S
O137 C130 1.188 . S
O137 Zn133 2.079 1_655 S
C138 O134 1.278 . S
C138 O139 1.211 . S
O139 C138 1.211 . S
C140 O132 1.284 . S
C140 O141 1.273 . S
O141 C140 1.273 . S
O142 Zn133 1.977 . S
O142 C135 1.267 . S
C143 O144 1.160 . S
C143 O150 1.185 . S
O144 C143 1.160 . S
O145 Zn146 1.899 . S
O145 C153 1.284 . S
Zn146 O145 1.899 . S
Zn146 O147 2.032 . S
Zn146 O150 2.086 . S
Zn146 O155 1.977 . S
O147 Zn146 2.032 . S
O147 C151 1.278 . S
C148 O149 1.203 . S
C148 O155 1.267 . S
O149 C148 1.203 . S
O150 C143 1.185 . S
O150 Zn146 2.086 . S
C151 O147 1.278 . S
C151 O152 1.211 . S
O152 C151 1.211 . S
C153 O145 1.284 . S
C153 O154 1.273 . S
O154 C153 1.273 . S
O155 Zn146 1.977 . S
O155 C148 1.267 . S
C156 O157 1.160 . S
C156 O163 1.185 . S
O157 C156 1.160 . S
O158 Zn159 1.899 . S
O158 C166 1.284 . S
Zn159 O158 1.899 . S
Zn159 O160 2.032 . S
Zn159 O163 2.086 . S
Zn159 O168 1.977 . S
O160 Zn159 2.032 . S
O160 C164 1.278 . S
C161 O162 1.203 . S
C161 O168 1.267 . S
O162 C161 1.203 . S
O163 C156 1.185 . S
O163 Zn159 2.086 . S
C164 O160 1.278 . S
C164 O165 1.211 . S
O165 C164 1.211 . S
C166 O158 1.284 . S
C166 O167 1.273 . S
O167 C166 1.273 . S
O168 Zn159 1.977 . S
O168 C161 1.267 . S
C169 O170 1.160 . S
C169 O176 1.202 . S
O170 C169 1.160 . S
O171 Zn172 1.899 . S
O171 C179 1.284 . S
Zn172 O171 1.899 . S
Zn172 O173 2.032 . S
Zn172 O176 2.046 1_655 S
Zn172 O181 1.977 . S
O173 Zn172 2.032 . S
O173 C177 1.278 . S
C174 O175 1.203 . S
C174 O181 1.267 . S
O175 C174 1.203 . S
O176 C169 1.202 . S
O176 Zn172 2.046 1_455 S
C177 O173 1.278 . S
C177 O178 1.211 . S
O178 C177 1.211 . S
C179 O171 1.284 . S
C179 O180 1.273 . S
O180 C179 1.273 . S
O181 Zn172 1.977 . S
O181 C174 1.267 . S
C182 O183 1.160 . S
C182 O189 1.185 . S
O183 C182 1.160 . S
O184 Zn185 1.899 . S
O184 C192 1.284 . S
Zn185 O184 1.899 . S
Zn185 O186 2.032 . S
Zn185 O189 2.086 . S
Zn185 O194 1.977 . S
O186 Zn185 2.032 . S
O186 C190 1.278 . S
C187 O188 1.203 . S
C187 O194 1.267 . S
O188 C187 1.203 . S
O189 C182 1.185 . S
O189 Zn185 2.086 . S
C190 O186 1.278 . S
C190 O191 1.211 . S
O191 C190 1.211 . S
C192 O184 1.284 . S
C192 O193 1.273 . S
O193 C192 1.273 . S
O194 Zn185 1.977 . S
O194 C187 1.267 . S
C195 O196 1.160 . S
C195 O202 1.185 . S
O196 C195 1.160 . S
O197 Zn198 1.899 . S
O197 C205 1.284 . S
Zn198 O197 1.899 . S
Zn198 O199 2.032 . S
Zn198 O202 2.086 . S
Zn198 O207 1.977 . S
O199 Zn198 2.032 . S
O199 C203 1.278 . S
C200 O201 1.203 . S
C200 O207 1.267 . S
O201 C200 1.203 . S
O202 C195 1.185 . S
O202 Zn198 2.086 . S
C203 O199 1.278 . S
C203 O204 1.211 . S
O204 C203 1.211 . S
C205 O197 1.284 . S
C205 O206 1.273 . S
O206 C205 1.273 . S
O207 Zn198 1.977 . S
O207 C200 1.267 . S
C208 O209 1.160 . S
C208 O215 1.185 . S
O209 C208 1.160 . S
O210 Zn211 1.899 . S
O210 C218 1.284 . S
Zn211 O210 1.899 . S
Zn211 O212 2.032 . S
Zn211 O215 2.086 . S
Zn211 O220 1.977 . S
O212 Zn211 2.032 . S
O212 C216 1.278 . S
C213 O214 1.203 . S
C213 O220 1.267 . S
O214 C213 1.203 . S
O215 C208 1.185 . S
O215 Zn211 2.086 . S
C216 O212 1.278 . S
C216 O217 1.211 . S
O217 C216 1.211 . S
C218 O210 1.284 . S
C218 O219 1.273 . S
O219 C218 1.273 . S
O220 Zn211 1.977 . S
O220 C213 1.267 . S
C221 O222 1.160 . S
C221 O228 1.185 . S
O222 C221 1.160 . S
O223 Zn224 1.899 . S
O223 C231 1.284 . S
Zn224 O223 1.899 . S
Zn224 O225 2.032 . S
Zn224 O228 2.086 . S
Zn224 O233 1.977 . S
O225 Zn224 2.032 . S
O225 C229 1.278 . S
C226 O227 1.203 . S
C226 O233 1.267 . S
O227 C226 1.203 . S
O228 C221 1.185 . S
O228 Zn224 2.086 . S
C229 O225 1.278 . S
C229 O230 1.211 . S
O230 C229 1.211 . S
C231 O223 1.284 . S
C231 O232 1.273 . S
O232 C231 1.273 . S
O233 Zn224 1.977 . S
O233 C226 1.267 . S
H234 C261 0.929 . S
N235 C260 1.433 . S
N235 C266 1.435 . S
N235 C272 1.423 . S
H236 C262 0.930 . S
H237 C265 0.931 . S
H238 C264 0.929 . S
H239 C267 0.930 . S
H240 C268 0.932 . S
H241 C271 0.929 . S
H242 C270 0.931 . S
H243 C273 0.929 . S
H244 C277 0.932 . S
H245 C274 0.931 . S
H246 C276 0.929 . S
H247 C279 0.929 . S
H248 C280 0.930 . S
H249 C282 0.929 . S
H250 C283 0.931 . S
H251 C285 0.930 . S
H252 C286 0.932 . S
H253 C288 0.931 . S
H254 C289 0.929 . S
H255 C291 0.929 . S
H256 C292 0.931 . S
H257 C294 0.929 . S
N258 C278 1.433 . S
N258 C284 1.435 . S
N258 C290 1.423 . S
H259 C295 0.932 . S
C260 N235 1.433 . S
C260 C261 1.363 . S
C260 C265 1.370 . S
C261 H234 0.929 . S
C261 C260 1.363 . S
C261 C262 1.385 . S
C262 H236 0.930 . S
C262 C261 1.385 . S
C262 C263 1.357 . S
C263 C262 1.357 . S
C263 C264 1.406 . S
C264 H238 0.929 . S
C264 C263 1.406 . S
C264 C265 1.391 . S
C265 H237 0.931 . S
C265 C260 1.370 . S
C265 C264 1.391 . S
C266 N235 1.435 . S
C266 C267 1.358 . S
C266 C271 1.371 . S
C267 H239 0.930 . S
C267 C266 1.358 . S
C267 C268 1.405 . S
C268 H240 0.932 . S
C268 C267 1.405 . S
C268 C269 1.383 . S
C269 C268 1.383 . S
C269 C270 1.393 . S
C270 H242 0.931 . S
C270 C269 1.393 . S
C270 C271 1.382 . S
C271 H241 0.929 . S
C271 C266 1.371 . S
C271 C270 1.382 . S
C272 N235 1.423 . S
C272 C273 1.362 . S
C272 C277 1.388 . S
C273 H243 0.929 . S
C273 C272 1.362 . S
C273 C274 1.376 . S
C274 H245 0.931 . S
C274 C273 1.376 . S
C274 C275 1.396 . S
C275 C274 1.396 . S
C275 C276 1.348 . S
C275 C293 1.472 . S
C276 H246 0.929 . S
C276 C275 1.348 . S
C276 C277 1.443 . S
C277 H244 0.932 . S
C277 C272 1.388 . S
C277 C276 1.443 . S
C278 N258 1.433 . S
C278 C279 1.363 . S
C278 C283 1.370 . S
C279 H247 0.929 . S
C279 C278 1.363 . S
C279 C280 1.385 . S
C280 H248 0.930 . S
C280 C279 1.385 . S
C280 C281 1.357 . S
C281 C280 1.357 . S
C281 C282 1.406 . S
C282 H249 0.929 . S
C282 C281 1.406 . S
C282 C283 1.391 . S
C283 H250 0.931 . S
C283 C278 1.370 . S
C283 C282 1.391 . S
C284 N258 1.435 . S
C284 C285 1.358 . S
C284 C289 1.371 . S
C285 H251 0.930 . S
C285 C284 1.358 . S
C285 C286 1.405 . S
C286 H252 0.932 . S
C286 C285 1.405 . S
C286 C287 1.383 . S
C287 C286 1.383 . S
C287 C288 1.393 . S
C288 H253 0.931 . S
C288 C287 1.393 . S
C288 C289 1.382 . S
C289 H254 0.929 . S
C289 C284 1.371 . S
C289 C288 1.382 . S
C290 N258 1.423 . S
C290 C291 1.362 . S
C290 C295 1.388 . S
C291 H255 0.929 . S
C291 C290 1.362 . S
C291 C292 1.376 . S
C292 H256 0.931 . S
C292 C291 1.376 . S
C292 C293 1.396 . S
C293 C275 1.472 . S
C293 C292 1.396 . S
C293 C294 1.348 . S
C294 H257 0.929 . S
C294 C293 1.348 . S
C294 C295 1.443 . S
C295 H259 0.932 . S
C295 C290 1.388 . S
C295 C294 1.443 . S
H296 C323 0.929 . S
N297 C322 1.433 . S
N297 C328 1.435 . S
N297 C334 1.423 . S
H298 C324 0.930 . S
H299 C327 0.931 . S
H300 C326 0.929 . S
H301 C329 0.930 . S
H302 C330 0.932 . S
H303 C333 0.929 . S
H304 C332 0.931 . S
H305 C335 0.929 . S
H306 C339 0.932 . S
H307 C336 0.931 . S
H308 C338 0.929 . S
H309 C341 0.929 . S
H310 C342 0.930 . S
H311 C344 0.929 . S
H312 C345 0.931 . S
H313 C347 0.930 . S
H314 C348 0.932 . S
H315 C350 0.931 . S
H316 C351 0.929 . S
H317 C353 0.929 . S
H318 C354 0.931 . S
H319 C356 0.929 . S
N320 C340 1.433 . S
N320 C346 1.435 . S
N320 C352 1.423 . S
H321 C357 0.932 . S
C322 N297 1.433 . S
C322 C323 1.363 . S
C322 C327 1.370 . S
C323 H296 0.929 . S
C323 C322 1.363 . S
C323 C324 1.385 . S
C324 H298 0.930 . S
C324 C323 1.385 . S
C324 C325 1.357 . S
C325 C324 1.357 . S
C325 C326 1.406 . S
C326 H300 0.929 . S
C326 C325 1.406 . S
C326 C327 1.391 . S
C327 H299 0.931 . S
C327 C322 1.370 . S
C327 C326 1.391 . S
C328 N297 1.435 . S
C328 C329 1.358 . S
C328 C333 1.371 . S
C329 H301 0.930 . S
C329 C328 1.358 . S
C329 C330 1.405 . S
C330 H302 0.932 . S
C330 C329 1.405 . S
C330 C331 1.383 . S
C331 C330 1.383 . S
C331 C332 1.393 . S
C332 H304 0.931 . S
C332 C331 1.393 . S
C332 C333 1.382 . S
C333 H303 0.929 . S
C333 C328 1.371 . S
C333 C332 1.382 . S
C334 N297 1.423 . S
C334 C335 1.362 . S
C334 C339 1.388 . S
C335 H305 0.929 . S
C335 C334 1.362 . S
C335 C336 1.376 . S
C336 H307 0.931 . S
C336 C335 1.376 . S
C336 C337 1.396 . S
C337 C336 1.396 . S
C337 C338 1.348 . S
C337 C355 1.472 . S
C338 H308 0.929 . S
C338 C337 1.348 . S
C338 C339 1.443 . S
C339 H306 0.932 . S
C339 C334 1.388 . S
C339 C338 1.443 . S
C340 N320 1.433 . S
C340 C341 1.363 . S
C340 C345 1.370 . S
C341 H309 0.929 . S
C341 C340 1.363 . S
C341 C342 1.385 . S
C342 H310 0.930 . S
C342 C341 1.385 . S
C342 C343 1.357 . S
C343 C342 1.357 . S
C343 C344 1.406 . S
C344 H311 0.929 . S
C344 C343 1.406 . S
C344 C345 1.391 . S
C345 H312 0.931 . S
C345 C340 1.370 . S
C345 C344 1.391 . S
C346 N320 1.435 . S
C346 C347 1.358 . S
C346 C351 1.371 . S
C347 H313 0.930 . S
C347 C346 1.358 . S
C347 C348 1.405 . S
C348 H314 0.932 . S
C348 C347 1.405 . S
C348 C349 1.383 . S
C349 C348 1.383 . S
C349 C350 1.393 . S
C350 H315 0.931 . S
C350 C349 1.393 . S
C350 C351 1.382 . S
C351 H316 0.929 . S
C351 C346 1.371 . S
C351 C350 1.382 . S
C352 N320 1.423 . S
C352 C353 1.362 . S
C352 C357 1.388 . S
C353 H317 0.929 . S
C353 C352 1.362 . S
C353 C354 1.376 . S
C354 H318 0.931 . S
C354 C353 1.376 . S
C354 C355 1.396 . S
C355 C337 1.472 . S
C355 C354 1.396 . S
C355 C356 1.348 . S
C356 H319 0.929 . S
C356 C355 1.348 . S
C356 C357 1.443 . S
C357 H321 0.932 . S
C357 C352 1.388 . S
C357 C356 1.443 . S
H358 C385 0.929 . S
N359 C384 1.433 . S
N359 C390 1.435 . S
N359 C396 1.423 . S
H360 C386 0.930 . S
H361 C389 0.931 . S
H362 C388 0.929 . S
H363 C391 0.930 . S
H364 C392 0.932 . S
H365 C395 0.929 . S
H366 C394 0.931 . S
H367 C397 0.929 . S
H368 C401 0.932 . S
H369 C398 0.931 . S
H370 C400 0.929 . S
H371 C403 0.929 . S
H372 C404 0.930 . S
H373 C406 0.929 . S
H374 C407 0.931 . S
H375 C409 0.930 . S
H376 C410 0.932 . S
H377 C412 0.931 . S
H378 C413 0.929 . S
H379 C415 0.929 . S
H380 C416 0.931 . S
H381 C418 0.929 . S
N382 C402 1.433 . S
N382 C408 1.435 . S
N382 C414 1.423 . S
H383 C419 0.932 . S
C384 N359 1.433 . S
C384 C385 1.363 . S
C384 C389 1.370 . S
C385 H358 0.929 . S
C385 C384 1.363 . S
C385 C386 1.385 . S
C386 H360 0.930 . S
C386 C385 1.385 . S
C386 C387 1.357 . S
C387 C386 1.357 . S
C387 C388 1.406 . S
C388 H362 0.929 . S
C388 C387 1.406 . S
C388 C389 1.391 . S
C389 H361 0.931 . S
C389 C384 1.370 . S
C389 C388 1.391 . S
C390 N359 1.435 . S
C390 C391 1.358 . S
C390 C395 1.371 . S
C391 H363 0.930 . S
C391 C390 1.358 . S
C391 C392 1.405 . S
C392 H364 0.932 . S
C392 C391 1.405 . S
C392 C393 1.383 . S
C393 C392 1.383 . S
C393 C394 1.393 . S
C394 H366 0.931 . S
C394 C393 1.393 . S
C394 C395 1.382 . S
C395 H365 0.929 . S
C395 C390 1.371 . S
C395 C394 1.382 . S
C396 N359 1.423 . S
C396 C397 1.362 . S
C396 C401 1.388 . S
C397 H367 0.929 . S
C397 C396 1.362 . S
C397 C398 1.376 . S
C398 H369 0.931 . S
C398 C397 1.376 . S
C398 C399 1.396 . S
C399 C398 1.396 . S
C399 C400 1.348 . S
C399 C417 1.472 . S
C400 H370 0.929 . S
C400 C399 1.348 . S
C400 C401 1.443 . S
C401 H368 0.932 . S
C401 C396 1.388 . S
C401 C400 1.443 . S
C402 N382 1.433 . S
C402 C403 1.363 . S
C402 C407 1.370 . S
C403 H371 0.929 . S
C403 C402 1.363 . S
C403 C404 1.385 . S
C404 H372 0.930 . S
C404 C403 1.385 . S
C404 C405 1.357 . S
C405 C404 1.357 . S
C405 C406 1.406 . S
C406 H373 0.929 . S
C406 C405 1.406 . S
C406 C407 1.391 . S
C407 H374 0.931 . S
C407 C402 1.370 . S
C407 C406 1.391 . S
C408 N382 1.435 . S
C408 C409 1.358 . S
C408 C413 1.371 . S
C409 H375 0.930 . S
C409 C408 1.358 . S
C409 C410 1.405 . S
C410 H376 0.932 . S
C410 C409 1.405 . S
C410 C411 1.383 . S
C411 C410 1.383 . S
C411 C412 1.393 . S
C412 H377 0.931 . S
C412 C411 1.393 . S
C412 C413 1.382 . S
C413 H378 0.929 . S
C413 C408 1.371 . S
C413 C412 1.382 . S
C414 N382 1.423 . S
C414 C415 1.362 . S
C414 C419 1.388 . S
C415 H379 0.929 . S
C415 C414 1.362 . S
C415 C416 1.376 . S
C416 H380 0.931 . S
C416 C415 1.376 . S
C416 C417 1.396 . S
C417 C399 1.472 . S
C417 C416 1.396 . S
C417 C418 1.348 . S
C418 H381 0.929 . S
C418 C417 1.348 . S
C418 C419 1.443 . S
C419 H383 0.932 . S
C419 C414 1.388 . S
C419 C418 1.443 . S
H420 C447 0.929 . S
N421 C446 1.433 . S
N421 C452 1.435 . S
N421 C458 1.423 . S
H422 C448 0.930 . S
H423 C451 0.931 . S
H424 C450 0.929 . S
H425 C453 0.930 . S
H426 C454 0.932 . S
H427 C457 0.929 . S
H428 C456 0.931 . S
H429 C459 0.929 . S
H430 C463 0.932 . S
H431 C460 0.931 . S
H432 C462 0.929 . S
H433 C465 0.929 . S
H434 C466 0.930 . S
H435 C468 0.929 . S
H436 C469 0.931 . S
H437 C471 0.930 . S
H438 C472 0.932 . S
H439 C474 0.931 . S
H440 C475 0.929 . S
H441 C477 0.929 . S
H442 C478 0.931 . S
H443 C480 0.929 . S
N444 C464 1.433 . S
N444 C470 1.435 . S
N444 C476 1.423 . S
H445 C481 0.932 . S
C446 N421 1.433 . S
C446 C447 1.363 . S
C446 C451 1.370 . S
C447 H420 0.929 . S
C447 C446 1.363 . S
C447 C448 1.385 . S
C448 H422 0.930 . S
C448 C447 1.385 . S
C448 C449 1.357 . S
C449 C448 1.357 . S
C449 C450 1.406 . S
C450 H424 0.929 . S
C450 C449 1.406 . S
C450 C451 1.391 . S
C451 H423 0.931 . S
C451 C446 1.370 . S
C451 C450 1.391 . S
C452 N421 1.435 . S
C452 C453 1.358 . S
C452 C457 1.371 . S
C453 H425 0.930 . S
C453 C452 1.358 . S
C453 C454 1.405 . S
C454 H426 0.932 . S
C454 C453 1.405 . S
C454 C455 1.383 . S
C455 C454 1.383 . S
C455 C456 1.393 . S
C456 H428 0.931 . S
C456 C455 1.393 . S
C456 C457 1.382 . S
C457 H427 0.929 . S
C457 C452 1.371 . S
C457 C456 1.382 . S
C458 N421 1.423 . S
C458 C459 1.362 . S
C458 C463 1.388 . S
C459 H429 0.929 . S
C459 C458 1.362 . S
C459 C460 1.376 . S
C460 H431 0.931 . S
C460 C459 1.376 . S
C460 C461 1.396 . S
C461 C460 1.396 . S
C461 C462 1.348 . S
C461 C479 1.472 . S
C462 H432 0.929 . S
C462 C461 1.348 . S
C462 C463 1.443 . S
C463 H430 0.932 . S
C463 C458 1.388 . S
C463 C462 1.443 . S
C464 N444 1.433 . S
C464 C465 1.363 . S
C464 C469 1.370 . S
C465 H433 0.929 . S
C465 C464 1.363 . S
C465 C466 1.385 . S
C466 H434 0.930 . S
C466 C465 1.385 . S
C466 C467 1.357 . S
C467 C466 1.357 . S
C467 C468 1.406 . S
C468 H435 0.929 . S
C468 C467 1.406 . S
C468 C469 1.391 . S
C469 H436 0.931 . S
C469 C464 1.370 . S
C469 C468 1.391 . S
C470 N444 1.435 . S
C470 C471 1.358 . S
C470 C475 1.371 . S
C471 H437 0.930 . S
C471 C470 1.358 . S
C471 C472 1.405 . S
C472 H438 0.932 . S
C472 C471 1.405 . S
C472 C473 1.383 . S
C473 C472 1.383 . S
C473 C474 1.393 . S
C474 H439 0.931 . S
C474 C473 1.393 . S
C474 C475 1.382 . S
C475 H440 0.929 . S
C475 C470 1.371 . S
C475 C474 1.382 . S
C476 N444 1.423 . S
C476 C477 1.362 . S
C476 C481 1.388 . S
C477 H441 0.929 . S
C477 C476 1.362 . S
C477 C478 1.376 . S
C478 H442 0.931 . S
C478 C477 1.376 . S
C478 C479 1.396 . S
C479 C461 1.472 . S
C479 C478 1.396 . S
C479 C480 1.348 . S
C480 H443 0.929 . S
C480 C479 1.348 . S
C480 C481 1.443 . S
C481 H445 0.932 . S
C481 C476 1.388 . S
C481 C480 1.443 . S
H482 C509 0.929 . S
N483 C508 1.433 . S
N483 C514 1.435 . S
N483 C520 1.423 . S
H484 C510 0.930 . S
H485 C513 0.931 . S
H486 C512 0.929 . S
H487 C515 0.930 . S
H488 C516 0.932 . S
H489 C519 0.929 . S
H490 C518 0.931 . S
H491 C521 0.929 . S
H492 C525 0.932 . S
H493 C522 0.931 . S
H494 C524 0.929 . S
H495 C527 0.929 . S
H496 C528 0.930 . S
H497 C530 0.929 . S
H498 C531 0.931 . S
H499 C533 0.930 . S
H500 C534 0.932 . S
H501 C536 0.931 . S
H502 C537 0.929 . S
H503 C539 0.929 . S
H504 C540 0.931 . S
H505 C542 0.929 . S
N506 C526 1.433 . S
N506 C532 1.435 . S
N506 C538 1.423 . S
H507 C543 0.932 . S
C508 N483 1.433 . S
C508 C509 1.363 . S
C508 C513 1.370 . S
C509 H482 0.929 . S
C509 C508 1.363 . S
C509 C510 1.385 . S
C510 H484 0.930 . S
C510 C509 1.385 . S
C510 C511 1.357 . S
C511 C510 1.357 . S
C511 C512 1.406 . S
C512 H486 0.929 . S
C512 C511 1.406 . S
C512 C513 1.391 . S
C513 H485 0.931 . S
C513 C508 1.370 . S
C513 C512 1.391 . S
C514 N483 1.435 . S
C514 C515 1.358 . S
C514 C519 1.371 . S
C515 H487 0.930 . S
C515 C514 1.358 . S
C515 C516 1.405 . S
C516 H488 0.932 . S
C516 C515 1.405 . S
C516 C517 1.383 . S
C517 C516 1.383 . S
C517 C518 1.393 . S
C518 H490 0.931 . S
C518 C517 1.393 . S
C518 C519 1.382 . S
C519 H489 0.929 . S
C519 C514 1.371 . S
C519 C518 1.382 . S
C520 N483 1.423 . S
C520 C521 1.362 . S
C520 C525 1.388 . S
C521 H491 0.929 . S
C521 C520 1.362 . S
C521 C522 1.376 . S
C522 H493 0.931 . S
C522 C521 1.376 . S
C522 C523 1.396 . S
C523 C522 1.396 . S
C523 C524 1.348 . S
C523 C541 1.472 . S
C524 H494 0.929 . S
C524 C523 1.348 . S
C524 C525 1.443 . S
C525 H492 0.932 . S
C525 C520 1.388 . S
C525 C524 1.443 . S
C526 N506 1.433 . S
C526 C527 1.363 . S
C526 C531 1.370 . S
C527 H495 0.929 . S
C527 C526 1.363 . S
C527 C528 1.385 . S
C528 H496 0.930 . S
C528 C527 1.385 . S
C528 C529 1.357 . S
C529 C528 1.357 . S
C529 C530 1.406 . S
C530 H497 0.929 . S
C530 C529 1.406 . S
C530 C531 1.391 . S
C531 H498 0.931 . S
C531 C526 1.370 . S
C531 C530 1.391 . S
C532 N506 1.435 . S
C532 C533 1.358 . S
C532 C537 1.371 . S
C533 H499 0.930 . S
C533 C532 1.358 . S
C533 C534 1.405 . S
C534 H500 0.932 . S
C534 C533 1.405 . S
C534 C535 1.383 . S
C535 C534 1.383 . S
C535 C536 1.393 . S
C536 H501 0.931 . S
C536 C535 1.393 . S
C536 C537 1.382 . S
C537 H502 0.929 . S
C537 C532 1.371 . S
C537 C536 1.382 . S
C538 N506 1.423 . S
C538 C539 1.362 . S
C538 C543 1.388 . S
C539 H503 0.929 . S
C539 C538 1.362 . S
C539 C540 1.376 . S
C540 H504 0.931 . S
C540 C539 1.376 . S
C540 C541 1.396 . S
C541 C523 1.472 . S
C541 C540 1.396 . S
C541 C542 1.348 . S
C542 H505 0.929 . S
C542 C541 1.348 . S
C542 C543 1.443 . S
C543 H507 0.932 . S
C543 C538 1.388 . S
C543 C542 1.443 . S
H544 C571 0.929 . S
N545 C570 1.433 . S
N545 C576 1.435 . S
N545 C582 1.423 . S
H546 C572 0.930 . S
H547 C575 0.931 . S
H548 C574 0.929 . S
H549 C577 0.930 . S
H550 C578 0.932 . S
H551 C581 0.929 . S
H552 C580 0.931 . S
H553 C583 0.929 . S
H554 C587 0.932 . S
H555 C584 0.931 . S
H556 C586 0.929 . S
H557 C589 0.929 . S
H558 C590 0.930 . S
H559 C592 0.929 . S
H560 C593 0.931 . S
H561 C595 0.930 . S
H562 C596 0.932 . S
H563 C598 0.931 . S
H564 C599 0.929 . S
H565 C601 0.929 . S
H566 C602 0.931 . S
H567 C604 0.929 . S
N568 C588 1.433 . S
N568 C594 1.435 . S
N568 C600 1.423 . S
H569 C605 0.932 . S
C570 N545 1.433 . S
C570 C571 1.363 . S
C570 C575 1.370 . S
C571 H544 0.929 . S
C571 C570 1.363 . S
C571 C572 1.385 . S
C572 H546 0.930 . S
C572 C571 1.385 . S
C572 C573 1.357 . S
C573 C572 1.357 . S
C573 C574 1.406 . S
C574 H548 0.929 . S
C574 C573 1.406 . S
C574 C575 1.391 . S
C575 H547 0.931 . S
C575 C570 1.370 . S
C575 C574 1.391 . S
C576 N545 1.435 . S
C576 C577 1.358 . S
C576 C581 1.371 . S
C577 H549 0.930 . S
C577 C576 1.358 . S
C577 C578 1.405 . S
C578 H550 0.932 . S
C578 C577 1.405 . S
C578 C579 1.383 . S
C579 C578 1.383 . S
C579 C580 1.393 . S
C580 H552 0.931 . S
C580 C579 1.393 . S
C580 C581 1.382 . S
C581 H551 0.929 . S
C581 C576 1.371 . S
C581 C580 1.382 . S
C582 N545 1.423 . S
C582 C583 1.362 . S
C582 C587 1.388 . S
C583 H553 0.929 . S
C583 C582 1.362 . S
C583 C584 1.376 . S
C584 H555 0.931 . S
C584 C583 1.376 . S
C584 C585 1.396 . S
C585 C584 1.396 . S
C585 C586 1.348 . S
C585 C603 1.472 . S
C586 H556 0.929 . S
C586 C585 1.348 . S
C586 C587 1.443 . S
C587 H554 0.932 . S
C587 C582 1.388 . S
C587 C586 1.443 . S
C588 N568 1.433 . S
C588 C589 1.363 . S
C588 C593 1.370 . S
C589 H557 0.929 . S
C589 C588 1.363 . S
C589 C590 1.385 . S
C590 H558 0.930 . S
C590 C589 1.385 . S
C590 C591 1.357 . S
C591 C590 1.357 . S
C591 C592 1.406 . S
C592 H559 0.929 . S
C592 C591 1.406 . S
C592 C593 1.391 . S
C593 H560 0.931 . S
C593 C588 1.370 . S
C593 C592 1.391 . S
C594 N568 1.435 . S
C594 C595 1.358 . S
C594 C599 1.371 . S
C595 H561 0.930 . S
C595 C594 1.358 . S
C595 C596 1.405 . S
C596 H562 0.932 . S
C596 C595 1.405 . S
C596 C597 1.383 . S
C597 C596 1.383 . S
C597 C598 1.393 . S
C598 H563 0.931 . S
C598 C597 1.393 . S
C598 C599 1.382 . S
C599 H564 0.929 . S
C599 C594 1.371 . S
C599 C598 1.382 . S
C600 N568 1.423 . S
C600 C601 1.362 . S
C600 C605 1.388 . S
C601 H565 0.929 . S
C601 C600 1.362 . S
C601 C602 1.376 . S
C602 H566 0.931 . S
C602 C601 1.376 . S
C602 C603 1.396 . S
C603 C585 1.472 . S
C603 C602 1.396 . S
C603 C604 1.348 . S
C604 H567 0.929 . S
C604 C603 1.348 . S
C604 C605 1.443 . S
C605 H569 0.932 . S
C605 C600 1.388 . S
C605 C604 1.443 . S
H606 C633 0.929 . S
N607 C632 1.433 . S
N607 C638 1.435 . S
N607 C644 1.423 . S
H608 C634 0.930 . S
H609 C637 0.931 . S
H610 C636 0.929 . S
H611 C639 0.930 . S
H612 C640 0.932 . S
H613 C643 0.929 . S
H614 C642 0.931 . S
H615 C645 0.929 . S
H616 C649 0.932 . S
H617 C646 0.931 . S
H618 C648 0.929 . S
H619 C651 0.929 . S
H620 C652 0.930 . S
H621 C654 0.929 . S
H622 C655 0.931 . S
H623 C657 0.930 . S
H624 C658 0.932 . S
H625 C660 0.931 . S
H626 C661 0.929 . S
H627 C663 0.929 . S
H628 C664 0.931 . S
H629 C666 0.929 . S
N630 C650 1.433 . S
N630 C656 1.435 . S
N630 C662 1.423 . S
H631 C667 0.932 . S
C632 N607 1.433 . S
C632 C633 1.363 . S
C632 C637 1.370 . S
C633 H606 0.929 . S
C633 C632 1.363 . S
C633 C634 1.385 . S
C634 H608 0.930 . S
C634 C633 1.385 . S
C634 C635 1.357 . S
C635 C634 1.357 . S
C635 C636 1.406 . S
C636 H610 0.929 . S
C636 C635 1.406 . S
C636 C637 1.391 . S
C637 H609 0.931 . S
C637 C632 1.370 . S
C637 C636 1.391 . S
C638 N607 1.435 . S
C638 C639 1.358 . S
C638 C643 1.371 . S
C639 H611 0.930 . S
C639 C638 1.358 . S
C639 C640 1.405 . S
C640 H612 0.932 . S
C640 C639 1.405 . S
C640 C641 1.383 . S
C641 C640 1.383 . S
C641 C642 1.393 . S
C642 H614 0.931 . S
C642 C641 1.393 . S
C642 C643 1.382 . S
C643 H613 0.929 . S
C643 C638 1.371 . S
C643 C642 1.382 . S
C644 N607 1.423 . S
C644 C645 1.362 . S
C644 C649 1.388 . S
C645 H615 0.929 . S
C645 C644 1.362 . S
C645 C646 1.376 . S
C646 H617 0.931 . S
C646 C645 1.376 . S
C646 C647 1.396 . S
C647 C646 1.396 . S
C647 C648 1.348 . S
C647 C665 1.472 . S
C648 H618 0.929 . S
C648 C647 1.348 . S
C648 C649 1.443 . S
C649 H616 0.932 . S
C649 C644 1.388 . S
C649 C648 1.443 . S
C650 N630 1.433 . S
C650 C651 1.363 . S
C650 C655 1.370 . S
C651 H619 0.929 . S
C651 C650 1.363 . S
C651 C652 1.385 . S
C652 H620 0.930 . S
C652 C651 1.385 . S
C652 C653 1.357 . S
C653 C652 1.357 . S
C653 C654 1.406 . S
C654 H621 0.929 . S
C654 C653 1.406 . S
C654 C655 1.391 . S
C655 H622 0.931 . S
C655 C650 1.370 . S
C655 C654 1.391 . S
C656 N630 1.435 . S
C656 C657 1.358 . S
C656 C661 1.371 . S
C657 H623 0.930 . S
C657 C656 1.358 . S
C657 C658 1.405 . S
C658 H624 0.932 . S
C658 C657 1.405 . S
C658 C659 1.383 . S
C659 C658 1.383 . S
C659 C660 1.393 . S
C660 H625 0.931 . S
C660 C659 1.393 . S
C660 C661 1.382 . S
C661 H626 0.929 . S
C661 C656 1.371 . S
C661 C660 1.382 . S
C662 N630 1.423 . S
C662 C663 1.362 . S
C662 C667 1.388 . S
C663 H627 0.929 . S
C663 C662 1.362 . S
C663 C664 1.376 . S
C664 H628 0.931 . S
C664 C663 1.376 . S
C664 C665 1.396 . S
C665 C647 1.472 . S
C665 C664 1.396 . S
C665 C666 1.348 . S
C666 H629 0.929 . S
C666 C665 1.348 . S
C666 C667 1.443 . S
C667 H631 0.932 . S
C667 C662 1.388 . S
C667 C666 1.443 . S
H668 C695 0.929 . S
N669 C694 1.433 . S
N669 C700 1.435 . S
N669 C706 1.423 . S
H670 C696 0.930 . S
H671 C699 0.931 . S
H672 C698 0.929 . S
H673 C701 0.930 . S
H674 C702 0.932 . S
H675 C705 0.929 . S
H676 C704 0.931 . S
H677 C707 0.929 . S
H678 C711 0.932 . S
H679 C708 0.931 . S
H680 C710 0.929 . S
H681 C713 0.929 . S
H682 C714 0.930 . S
H683 C716 0.929 . S
H684 C717 0.931 . S
H685 C719 0.930 . S
H686 C720 0.932 . S
H687 C722 0.931 . S
H688 C723 0.929 . S
H689 C725 0.929 . S
H690 C726 0.931 . S
H691 C728 0.929 . S
N692 C712 1.433 . S
N692 C718 1.435 . S
N692 C724 1.423 . S
H693 C729 0.932 . S
C694 N669 1.433 . S
C694 C695 1.363 . S
C694 C699 1.370 . S
C695 H668 0.929 . S
C695 C694 1.363 . S
C695 C696 1.385 . S
C696 H670 0.930 . S
C696 C695 1.385 . S
C696 C697 1.357 . S
C697 C696 1.357 . S
C697 C698 1.406 . S
C698 H672 0.929 . S
C698 C697 1.406 . S
C698 C699 1.391 . S
C699 H671 0.931 . S
C699 C694 1.370 . S
C699 C698 1.391 . S
C700 N669 1.435 . S
C700 C701 1.358 . S
C700 C705 1.371 . S
C701 H673 0.930 . S
C701 C700 1.358 . S
C701 C702 1.405 . S
C702 H674 0.932 . S
C702 C701 1.405 . S
C702 C703 1.383 . S
C703 C702 1.383 . S
C703 C704 1.393 . S
C704 H676 0.931 . S
C704 C703 1.393 . S
C704 C705 1.382 . S
C705 H675 0.929 . S
C705 C700 1.371 . S
C705 C704 1.382 . S
C706 N669 1.423 . S
C706 C707 1.362 . S
C706 C711 1.388 . S
C707 H677 0.929 . S
C707 C706 1.362 . S
C707 C708 1.376 . S
C708 H679 0.931 . S
C708 C707 1.376 . S
C708 C709 1.396 . S
C709 C708 1.396 . S
C709 C710 1.348 . S
C709 C727 1.472 . S
C710 H680 0.929 . S
C710 C709 1.348 . S
C710 C711 1.443 . S
C711 H678 0.932 . S
C711 C706 1.388 . S
C711 C710 1.443 . S
C712 N692 1.433 . S
C712 C713 1.363 . S
C712 C717 1.370 . S
C713 H681 0.929 . S
C713 C712 1.363 . S
C713 C714 1.385 . S
C714 H682 0.930 . S
C714 C713 1.385 . S
C714 C715 1.357 . S
C715 C714 1.357 . S
C715 C716 1.406 . S
C716 H683 0.929 . S
C716 C715 1.406 . S
C716 C717 1.391 . S
C717 H684 0.931 . S
C717 C712 1.370 . S
C717 C716 1.391 . S
C718 N692 1.435 . S
C718 C719 1.358 . S
C718 C723 1.371 . S
C719 H685 0.930 . S
C719 C718 1.358 . S
C719 C720 1.405 . S
C720 H686 0.932 . S
C720 C719 1.405 . S
C720 C721 1.383 . S
C721 C720 1.383 . S
C721 C722 1.393 . S
C722 H687 0.931 . S
C722 C721 1.393 . S
C722 C723 1.382 . S
C723 H688 0.929 . S
C723 C718 1.371 . S
C723 C722 1.382 . S
C724 N692 1.423 . S
C724 C725 1.362 . S
C724 C729 1.388 . S
C725 H689 0.929 . S
C725 C724 1.362 . S
C725 C726 1.376 . S
C726 H690 0.931 . S
C726 C725 1.376 . S
C726 C727 1.396 . S
C727 C709 1.472 . S
C727 C726 1.396 . S
C727 C728 1.348 . S
C728 H691 0.929 . S
C728 C727 1.348 . S
C728 C729 1.443 . S
C729 H693 0.932 . S
C729 C724 1.388 . S
C729 C728 1.443 . S
H730 C757 0.929 . S
N731 C756 1.433 . S
N731 C762 1.435 . S
N731 C768 1.423 . S
H732 C758 0.930 . S
H733 C761 0.931 . S
H734 C760 0.929 . S
H735 C763 0.930 . S
H736 C764 0.932 . S
H737 C767 0.929 . S
H738 C766 0.931 . S
H739 C769 0.929 . S
H740 C773 0.932 . S
H741 C770 0.931 . S
H742 C772 0.929 . S
H743 C775 0.929 . S
H744 C776 0.930 . S
H745 C778 0.929 . S
H746 C779 0.931 . S
H747 C781 0.930 . S
H748 C782 0.932 . S
H749 C784 0.931 . S
H750 C785 0.929 . S
H751 C787 0.929 . S
H752 C788 0.931 . S
H753 C790 0.929 . S
N754 C774 1.433 . S
N754 C780 1.435 . S
N754 C786 1.423 . S
H755 C791 0.932 . S
C756 N731 1.433 . S
C756 C757 1.363 . S
C756 C761 1.370 . S
C757 H730 0.929 . S
C757 C756 1.363 . S
C757 C758 1.385 . S
C758 H732 0.930 . S
C758 C757 1.385 . S
C758 C759 1.357 . S
C759 C758 1.357 . S
C759 C760 1.406 . S
C760 H734 0.929 . S
C760 C759 1.406 . S
C760 C761 1.391 . S
C761 H733 0.931 . S
C761 C756 1.370 . S
C761 C760 1.391 . S
C762 N731 1.435 . S
C762 C763 1.358 . S
C762 C767 1.371 . S
C763 H735 0.930 . S
C763 C762 1.358 . S
C763 C764 1.405 . S
C764 H736 0.932 . S
C764 C763 1.405 . S
C764 C765 1.383 . S
C765 C764 1.383 . S
C765 C766 1.393 . S
C766 H738 0.931 . S
C766 C765 1.393 . S
C766 C767 1.382 . S
C767 H737 0.929 . S
C767 C762 1.371 . S
C767 C766 1.382 . S
C768 N731 1.423 . S
C768 C769 1.362 . S
C768 C773 1.388 . S
C769 H739 0.929 . S
C769 C768 1.362 . S
C769 C770 1.376 . S
C770 H741 0.931 . S
C770 C769 1.376 . S
C770 C771 1.396 . S
C771 C770 1.396 . S
C771 C772 1.348 . S
C771 C789 1.472 . S
C772 H742 0.929 . S
C772 C771 1.348 . S
C772 C773 1.443 . S
C773 H740 0.932 . S
C773 C768 1.388 . S
C773 C772 1.443 . S
C774 N754 1.433 . S
C774 C775 1.363 . S
C774 C779 1.370 . S
C775 H743 0.929 . S
C775 C774 1.363 . S
C775 C776 1.385 . S
C776 H744 0.930 . S
C776 C775 1.385 . S
C776 C777 1.357 . S
C777 C776 1.357 . S
C777 C778 1.406 . S
C778 H745 0.929 . S
C778 C777 1.406 . S
C778 C779 1.391 . S
C779 H746 0.931 . S
C779 C774 1.370 . S
C779 C778 1.391 . S
C780 N754 1.435 . S
C780 C781 1.358 . S
C780 C785 1.371 . S
C781 H747 0.930 . S
C781 C780 1.358 . S
C781 C782 1.405 . S
C782 H748 0.932 . S
C782 C781 1.405 . S
C782 C783 1.383 . S
C783 C782 1.383 . S
C783 C784 1.393 . S
C784 H749 0.931 . S
C784 C783 1.393 . S
C784 C785 1.382 . S
C785 H750 0.929 . S
C785 C780 1.371 . S
C785 C784 1.382 . S
C786 N754 1.423 . S
C786 C787 1.362 . S
C786 C791 1.388 . S
C787 H751 0.929 . S
C787 C786 1.362 . S
C787 C788 1.376 . S
C788 H752 0.931 . S
C788 C787 1.376 . S
C788 C789 1.396 . S
C789 C771 1.472 . S
C789 C788 1.396 . S
C789 C790 1.348 . S
C790 H753 0.929 . S
C790 C789 1.348 . S
C790 C791 1.443 . S
C791 H755 0.932 . S
C791 C786 1.388 . S
C791 C790 1.443 . S
H792 C819 0.929 . S
N793 C818 1.433 . S
N793 C824 1.435 . S
N793 C830 1.423 . S
H794 C820 0.930 . S
H795 C823 0.931 . S
H796 C822 0.929 . S
H797 C825 0.930 . S
H798 C826 0.932 . S
H799 C829 0.929 . S
H800 C828 0.931 . S
H801 C831 0.929 . S
H802 C835 0.932 1_655 S
H803 C832 0.931 . S
H804 C834 0.929 . S
H805 C837 0.929 . S
H806 C838 0.930 . S
H807 C840 0.929 . S
H808 C841 0.931 . S
H809 C843 0.930 . S
H810 C844 0.932 . S
H811 C846 0.931 . S
H812 C847 0.929 . S
H813 C849 0.929 . S
H814 C850 0.931 . S
H815 C852 0.929 . S
N816 C836 1.433 . S
N816 C842 1.435 . S
N816 C848 1.423 . S
H817 C853 0.932 1_655 S
C818 N793 1.433 . S
C818 C819 1.363 . S
C818 C823 1.370 1_455 S
C819 H792 0.929 . S
C819 C818 1.363 . S
C819 C820 1.385 . S
C820 H794 0.930 . S
C820 C819 1.385 . S
C820 C821 1.357 1_455 S
C821 C820 1.357 1_655 S
C821 C822 1.406 . S
C822 H796 0.929 . S
C822 C821 1.406 . S
C822 C823 1.391 . S
C823 H795 0.931 . S
C823 C818 1.370 1_655 S
C823 C822 1.391 . S
C824 N793 1.435 . S
C824 C825 1.358 1_455 S
C824 C829 1.371 . S
C825 H797 0.930 . S
C825 C824 1.358 1_655 S
C825 C826 1.405 . S
C826 H798 0.932 . S
C826 C825 1.405 . S
C826 C827 1.383 1_655 S
C827 C826 1.383 1_455 S
C827 C828 1.393 . S
C828 H800 0.931 . S
C828 C827 1.393 . S
C828 C829 1.382 . S
C829 H799 0.929 . S
C829 C824 1.371 . S
C829 C828 1.382 . S
C830 N793 1.423 . S
C830 C831 1.362 . S
C830 C835 1.388 . S
C831 H801 0.929 . S
C831 C830 1.362 . S
C831 C832 1.376 . S
C832 H803 0.931 . S
C832 C831 1.376 . S
C832 C833 1.396 . S
C833 C832 1.396 . S
C833 C834 1.348 . S
C833 C851 1.472 . S
C834 H804 0.929 . S
C834 C833 1.348 . S
C834 C835 1.443 . S
C835 H802 0.932 1_455 S
C835 C830 1.388 . S
C835 C834 1.443 . S
C836 N816 1.433 . S
C836 C837 1.363 . S
C836 C841 1.370 1_455 S
C837 H805 0.929 . S
C837 C836 1.363 . S
C837 C838 1.385 . S
C838 H806 0.930 . S
C838 C837 1.385 . S
C838 C839 1.357 1_455 S
C839 C838 1.357 1_655 S
C839 C840 1.406 . S
C840 H807 0.929 . S
C840 C839 1.406 . S
C840 C841 1.391 . S
C841 H808 0.931 . S
C841 C836 1.370 1_655 S
C841 C840 1.391 . S
C842 N816 1.435 . S
C842 C843 1.358 1_455 S
C842 C847 1.371 . S
C843 H809 0.930 . S
C843 C842 1.358 1_655 S
C843 C844 1.405 . S
C844 H810 0.932 . S
C844 C843 1.405 . S
C844 C845 1.383 1_655 S
C845 C844 1.383 1_455 S
C845 C846 1.393 . S
C846 H811 0.931 . S
C846 C845 1.393 . S
C846 C847 1.382 . S
C847 H812 0.929 . S
C847 C842 1.371 . S
C847 C846 1.382 . S
C848 N816 1.423 . S
C848 C849 1.362 . S
C848 C853 1.388 . S
C849 H813 0.929 . S
C849 C848 1.362 . S
C849 C850 1.376 . S
C850 H814 0.931 . S
C850 C849 1.376 . S
C850 C851 1.396 . S
C851 C833 1.472 . S
C851 C850 1.396 . S
C851 C852 1.348 . S
C852 H815 0.929 . S
C852 C851 1.348 . S
C852 C853 1.443 . S
C853 H817 0.932 1_455 S
C853 C848 1.388 . S
C853 C852 1.443 . S
H854 C881 0.929 . S
N855 C880 1.433 . S
N855 C886 1.435 . S
N855 C892 1.423 . S
H856 C882 0.930 . S
H857 C885 0.931 . S
H858 C884 0.929 . S
H859 C887 0.930 . S
H860 C888 0.932 . S
H861 C891 0.929 . S
H862 C890 0.931 . S
H863 C893 0.929 . S
H864 C897 0.932 . S
H865 C894 0.931 . S
H866 C896 0.929 . S
H867 C899 0.929 . S
H868 C900 0.930 . S
H869 C902 0.929 . S
H870 C903 0.931 . S
H871 C905 0.930 . S
H872 C906 0.932 . S
H873 C908 0.931 . S
H874 C909 0.929 . S
H875 C911 0.929 . S
H876 C912 0.931 . S
H877 C914 0.929 . S
N878 C898 1.433 . S
N878 C904 1.435 . S
N878 C910 1.423 . S
H879 C915 0.932 . S
C880 N855 1.433 . S
C880 C881 1.363 . S
C880 C885 1.370 . S
C881 H854 0.929 . S
C881 C880 1.363 . S
C881 C882 1.385 . S
C882 H856 0.930 . S
C882 C881 1.385 . S
C882 C883 1.357 . S
C883 C882 1.357 . S
C883 C884 1.406 . S
C884 H858 0.929 . S
C884 C883 1.406 . S
C884 C885 1.391 . S
C885 H857 0.931 . S
C885 C880 1.370 . S
C885 C884 1.391 . S
C886 N855 1.435 . S
C886 C887 1.358 . S
C886 C891 1.371 . S
C887 H859 0.930 . S
C887 C886 1.358 . S
C887 C888 1.405 . S
C888 H860 0.932 . S
C888 C887 1.405 . S
C888 C889 1.383 . S
C889 C888 1.383 . S
C889 C890 1.393 . S
C890 H862 0.931 . S
C890 C889 1.393 . S
C890 C891 1.382 . S
C891 H861 0.929 . S
C891 C886 1.371 . S
C891 C890 1.382 . S
C892 N855 1.423 . S
C892 C893 1.362 . S
C892 C897 1.388 . S
C893 H863 0.929 . S
C893 C892 1.362 . S
C893 C894 1.376 . S
C894 H865 0.931 . S
C894 C893 1.376 . S
C894 C895 1.396 . S
C895 C894 1.396 . S
C895 C896 1.348 . S
C895 C913 1.472 . S
C896 H866 0.929 . S
C896 C895 1.348 . S
C896 C897 1.443 . S
C897 H864 0.932 . S
C897 C892 1.388 . S
C897 C896 1.443 . S
C898 N878 1.433 . S
C898 C899 1.363 . S
C898 C903 1.370 . S
C899 H867 0.929 . S
C899 C898 1.363 . S
C899 C900 1.385 . S
C900 H868 0.930 . S
C900 C899 1.385 . S
C900 C901 1.357 . S
C901 C900 1.357 . S
C901 C902 1.406 . S
C902 H869 0.929 . S
C902 C901 1.406 . S
C902 C903 1.391 . S
C903 H870 0.931 . S
C903 C898 1.370 . S
C903 C902 1.391 . S
C904 N878 1.435 . S
C904 C905 1.358 . S
C904 C909 1.371 . S
C905 H871 0.930 . S
C905 C904 1.358 . S
C905 C906 1.405 . S
C906 H872 0.932 . S
C906 C905 1.405 . S
C906 C907 1.383 . S
C907 C906 1.383 . S
C907 C908 1.393 . S
C908 H873 0.931 . S
C908 C907 1.393 . S
C908 C909 1.382 . S
C909 H874 0.929 . S
C909 C904 1.371 . S
C909 C908 1.382 . S
C910 N878 1.423 . S
C910 C911 1.362 . S
C910 C915 1.388 . S
C911 H875 0.929 . S
C911 C910 1.362 . S
C911 C912 1.376 . S
C912 H876 0.931 . S
C912 C911 1.376 . S
C912 C913 1.396 . S
C913 C895 1.472 . S
C913 C912 1.396 . S
C913 C914 1.348 . S
C914 H877 0.929 . S
C914 C913 1.348 . S
C914 C915 1.443 . S
C915 H879 0.932 . S
C915 C910 1.388 . S
C915 C914 1.443 . S
H916 C943 0.929 . S
N917 C942 1.433 . S
N917 C948 1.435 . S
N917 C954 1.423 . S
H918 C944 0.930 . S
H919 C947 0.931 . S
H920 C946 0.929 . S
H921 C949 0.930 . S
H922 C950 0.932 . S
H923 C953 0.929 . S
H924 C952 0.931 . S
H925 C955 0.929 . S
H926 C959 0.932 1_545 S
H927 C956 0.931 . S
H928 C958 0.929 . S
H929 C961 0.929 . S
H930 C962 0.930 . S
H931 C964 0.929 . S
H932 C965 0.931 . S
H933 C967 0.930 . S
H934 C968 0.932 . S
H935 C970 0.931 . S
H936 C971 0.929 . S
H937 C973 0.929 . S
H938 C974 0.931 . S
H939 C976 0.929 . S
N940 C960 1.433 . S
N940 C966 1.435 . S
N940 C972 1.423 . S
H941 C977 0.932 1_545 S
C942 N917 1.433 . S
C942 C943 1.363 . S
C942 C947 1.370 1_565 S
C943 H916 0.929 . S
C943 C942 1.363 . S
C943 C944 1.385 . S
C944 H918 0.930 . S
C944 C943 1.385 . S
C944 C945 1.357 1_565 S
C945 C944 1.357 1_545 S
C945 C946 1.406 . S
C946 H920 0.929 . S
C946 C945 1.406 . S
C946 C947 1.391 . S
C947 H919 0.931 . S
C947 C942 1.370 1_545 S
C947 C946 1.391 . S
C948 N917 1.435 . S
C948 C949 1.358 1_565 S
C948 C953 1.371 . S
C949 H921 0.930 . S
C949 C948 1.358 1_545 S
C949 C950 1.405 . S
C950 H922 0.932 . S
C950 C949 1.405 . S
C950 C951 1.383 1_545 S
C951 C950 1.383 1_565 S
C951 C952 1.393 . S
C952 H924 0.931 . S
C952 C951 1.393 . S
C952 C953 1.382 . S
C953 H923 0.929 . S
C953 C948 1.371 . S
C953 C952 1.382 . S
C954 N917 1.423 . S
C954 C955 1.362 . S
C954 C959 1.388 . S
C955 H925 0.929 . S
C955 C954 1.362 . S
C955 C956 1.376 . S
C956 H927 0.931 . S
C956 C955 1.376 . S
C956 C957 1.396 . S
C957 C956 1.396 . S
C957 C958 1.348 . S
C957 C975 1.472 . S
C958 H928 0.929 . S
C958 C957 1.348 . S
C958 C959 1.443 . S
C959 H926 0.932 1_565 S
C959 C954 1.388 . S
C959 C958 1.443 . S
C960 N940 1.433 . S
C960 C961 1.363 . S
C960 C965 1.370 1_565 S
C961 H929 0.929 . S
C961 C960 1.363 . S
C961 C962 1.385 . S
C962 H930 0.930 . S
C962 C961 1.385 . S
C962 C963 1.357 1_565 S
C963 C962 1.357 1_545 S
C963 C964 1.406 . S
C964 H931 0.929 . S
C964 C963 1.406 . S
C964 C965 1.391 . S
C965 H932 0.931 . S
C965 C960 1.370 1_545 S
C965 C964 1.391 . S
C966 N940 1.435 . S
C966 C967 1.358 1_565 S
C966 C971 1.371 . S
C967 H933 0.930 . S
C967 C966 1.358 1_545 S
C967 C968 1.405 . S
C968 H934 0.932 . S
C968 C967 1.405 . S
C968 C969 1.383 1_545 S
C969 C968 1.383 1_565 S
C969 C970 1.393 . S
C970 H935 0.931 . S
C970 C969 1.393 . S
C970 C971 1.382 . S
C971 H936 0.929 . S
C971 C966 1.371 . S
C971 C970 1.382 . S
C972 N940 1.423 . S
C972 C973 1.362 . S
C972 C977 1.388 . S
C973 H937 0.929 . S
C973 C972 1.362 . S
C973 C974 1.376 . S
C974 H938 0.931 . S
C974 C973 1.376 . S
C974 C975 1.396 . S
C975 C957 1.472 . S
C975 C974 1.396 . S
C975 C976 1.348 . S
C976 H939 0.929 . S
C976 C975 1.348 . S
C976 C977 1.443 . S
C977 H941 0.932 1_565 S
C977 C972 1.388 . S
C977 C976 1.443 . S
H978 C1005 0.929 . S
N979 C1004 1.433 . S
N979 C1010 1.435 . S
N979 C1016 1.423 . S
H980 C1006 0.930 . S
H981 C1009 0.931 . S
H982 C1008 0.929 . S
H983 C1011 0.930 . S
H984 C1012 0.932 . S
H985 C1015 0.929 . S
H986 C1014 0.931 . S
H987 C1017 0.929 . S
H988 C1021 0.932 . S
H989 C1018 0.931 . S
H990 C1020 0.922 1_545 S
H991 C1023 0.929 . S
H992 C1024 0.930 . S
H993 C1026 0.960 . S
H994 C1027 0.950 . S
H995 C1029 0.930 . S
H996 C1030 0.932 . S
H997 C1032 0.931 . S
H998 C1033 0.929 . S
H999 C1035 0.929 . S
H1000 C1036 0.931 . S
H1001 C1038 0.883 1_545 S
N1002 C1022 1.433 . S
N1002 C1028 1.435 . S
N1002 C1034 1.423 . S
H1003 C1039 0.960 . S
C1004 N979 1.433 . S
C1004 C1005 1.363 . S
C1004 C1009 1.370 1_565 S
C1005 H978 0.929 . S
C1005 C1004 1.363 . S
C1005 C1006 1.385 . S
C1006 H980 0.930 . S
C1006 C1005 1.385 . S
C1006 C1007 1.357 . S
C1007 C1006 1.357 . S
C1007 C1008 1.406 1_565 S
C1008 H982 0.929 . S
C1008 C1007 1.406 1_545 S
C1008 C1009 1.391 . S
C1009 H981 0.931 . S
C1009 C1004 1.370 1_545 S
C1009 C1008 1.391 . S
C1010 N979 1.435 . S
C1010 C1011 1.358 1_565 S
C1010 C1015 1.371 . S
C1011 H983 0.930 . S
C1011 C1010 1.358 1_545 S
C1011 C1012 1.405 . S
C1012 H984 0.932 . S
C1012 C1011 1.405 . S
C1012 C1013 1.383 . S
C1013 C1012 1.383 . S
C1013 C1014 1.393 1_545 S
C1014 H986 0.931 . S
C1014 C1013 1.393 1_565 S
C1014 C1015 1.382 . S
C1015 H985 0.929 . S
C1015 C1010 1.371 . S
C1015 C1014 1.382 . S
C1016 N979 1.423 . S
C1016 C1017 1.362 . S
C1016 C1021 1.388 1_565 S
C1017 H987 0.929 . S
C1017 C1016 1.362 . S
C1017 C1018 1.376 . S
C1018 H989 0.931 . S
C1018 C1017 1.376 . S
C1018 C1019 1.396 . S
C1019 C1018 1.396 . S
C1019 C1020 1.377 . S
C1019 C1037 1.472 . S
C1020 H990 0.922 1_565 S
C1020 C1019 1.377 . S
C1020 C1021 1.422 1_565 S
C1021 H988 0.932 . S
C1021 C1016 1.388 1_545 S
C1021 C1020 1.422 1_545 S
C1022 N1002 1.433 . S
C1022 C1023 1.363 . S
C1022 C1027 1.356 1_565 S
C1023 H991 0.929 . S
C1023 C1022 1.363 . S
C1023 C1024 1.385 . S
C1024 H992 0.930 . S
C1024 C1023 1.385 . S
C1024 C1025 1.357 . S
C1025 C1024 1.357 . S
C1025 C1026 1.368 1_565 S
C1026 H993 0.960 . S
C1026 C1025 1.368 1_545 S
C1026 C1027 1.396 . S
C1027 H994 0.950 . S
C1027 C1022 1.356 1_545 S
C1027 C1026 1.396 . S
C1028 N1002 1.435 . S
C1028 C1029 1.358 1_565 S
C1028 C1033 1.371 . S
C1029 H995 0.930 . S
C1029 C1028 1.358 1_545 S
C1029 C1030 1.405 . S
C1030 H996 0.932 . S
C1030 C1029 1.405 . S
C1030 C1031 1.383 . S
C1031 C1030 1.383 . S
C1031 C1032 1.393 1_545 S
C1032 H997 0.931 . S
C1032 C1031 1.393 1_565 S
C1032 C1033 1.382 . S
C1033 H998 0.929 . S
C1033 C1028 1.371 . S
C1033 C1032 1.382 . S
C1034 N1002 1.423 . S
C1034 C1035 1.362 . S
C1034 C1039 1.330 1_565 S
C1035 H999 0.929 . S
C1035 C1034 1.362 . S
C1035 C1036 1.376 . S
C1036 H1000 0.931 . S
C1036 C1035 1.376 . S
C1036 C1037 1.396 . S
C1037 C1019 1.472 . S
C1037 C1036 1.396 . S
C1037 C1038 1.366 . S
C1038 H1001 0.883 1_565 S
C1038 C1037 1.366 . S
C1038 C1039 1.510 1_565 S
C1039 H1003 0.960 . S
C1039 C1034 1.330 1_545 S
C1039 C1038 1.510 1_545 S
H1040 C1067 0.929 . S
N1041 C1066 1.433 . S
N1041 C1072 1.435 . S
N1041 C1078 1.423 . S
H1042 C1068 0.930 . S
H1043 C1071 0.931 . S
H1044 C1070 0.929 . S
H1045 C1073 0.930 . S
H1046 C1074 0.932 . S
H1047 C1077 0.929 . S
H1048 C1076 0.931 . S
H1049 C1079 0.929 . S
H1050 C1083 0.932 1_455 S
H1051 C1080 0.931 . S
H1052 C1082 0.929 . S
H1053 C1085 0.929 . S
H1054 C1086 0.930 . S
H1055 C1088 0.929 . S
H1056 C1089 0.931 . S
H1057 C1091 0.930 . S
H1058 C1092 0.932 . S
H1059 C1094 0.931 . S
H1060 C1095 0.929 . S
H1061 C1097 0.929 . S
H1062 C1098 0.931 . S
H1063 C1100 0.929 . S
N1064 C1084 1.433 . S
N1064 C1090 1.435 . S
N1064 C1096 1.423 . S
H1065 C1101 0.932 1_455 S
C1066 N1041 1.433 . S
C1066 C1067 1.363 . S
C1066 C1071 1.370 1_655 S
C1067 H1040 0.929 . S
C1067 C1066 1.363 . S
C1067 C1068 1.385 . S
C1068 H1042 0.930 . S
C1068 C1067 1.385 . S
C1068 C1069 1.357 1_655 S
C1069 C1068 1.357 1_455 S
C1069 C1070 1.406 . S
C1070 H1044 0.929 . S
C1070 C1069 1.406 . S
C1070 C1071 1.391 . S
C1071 H1043 0.931 . S
C1071 C1066 1.370 1_455 S
C1071 C1070 1.391 . S
C1072 N1041 1.435 . S
C1072 C1073 1.358 1_655 S
C1072 C1077 1.371 . S
C1073 H1045 0.930 . S
C1073 C1072 1.358 1_455 S
C1073 C1074 1.405 . S
C1074 H1046 0.932 . S
C1074 C1073 1.405 . S
C1074 C1075 1.383 1_455 S
C1075 C1074 1.383 1_655 S
C1075 C1076 1.393 . S
C1076 H1048 0.931 . S
C1076 C1075 1.393 . S
C1076 C1077 1.382 . S
C1077 H1047 0.929 . S
C1077 C1072 1.371 . S
C1077 C1076 1.382 . S
C1078 N1041 1.423 . S
C1078 C1079 1.362 . S
C1078 C1083 1.388 . S
C1079 H1049 0.929 . S
C1079 C1078 1.362 . S
C1079 C1080 1.376 . S
C1080 H1051 0.931 . S
C1080 C1079 1.376 . S
C1080 C1081 1.396 . S
C1081 C1080 1.396 . S
C1081 C1082 1.348 . S
C1081 C1099 1.472 . S
C1082 H1052 0.929 . S
C1082 C1081 1.348 . S
C1082 C1083 1.443 . S
C1083 H1050 0.932 1_655 S
C1083 C1078 1.388 . S
C1083 C1082 1.443 . S
C1084 N1064 1.433 . S
C1084 C1085 1.363 . S
C1084 C1089 1.370 1_655 S
C1085 H1053 0.929 . S
C1085 C1084 1.363 . S
C1085 C1086 1.385 . S
C1086 H1054 0.930 . S
C1086 C1085 1.385 . S
C1086 C1087 1.357 1_655 S
C1087 C1086 1.357 1_455 S
C1087 C1088 1.406 . S
C1088 H1055 0.929 . S
C1088 C1087 1.406 . S
C1088 C1089 1.391 . S
C1089 H1056 0.931 . S
C1089 C1084 1.370 1_455 S
C1089 C1088 1.391 . S
C1090 N1064 1.435 . S
C1090 C1091 1.358 1_655 S
C1090 C1095 1.371 . S
C1091 H1057 0.930 . S
C1091 C1090 1.358 1_455 S
C1091 C1092 1.405 . S
C1092 H1058 0.932 . S
C1092 C1091 1.405 . S
C1092 C1093 1.383 1_455 S
C1093 C1092 1.383 1_655 S
C1093 C1094 1.393 . S
C1094 H1059 0.931 . S
C1094 C1093 1.393 . S
C1094 C1095 1.382 . S
C1095 H1060 0.929 . S
C1095 C1090 1.371 . S
C1095 C1094 1.382 . S
C1096 N1064 1.423 . S
C1096 C1097 1.362 . S
C1096 C1101 1.388 . S
C1097 H1061 0.929 . S
C1097 C1096 1.362 . S
C1097 C1098 1.376 . S
C1098 H1062 0.931 . S
C1098 C1097 1.376 . S
C1098 C1099 1.396 . S
C1099 C1081 1.472 . S
C1099 C1098 1.396 . S
C1099 C1100 1.348 . S
C1100 H1063 0.929 . S
C1100 C1099 1.348 . S
C1100 C1101 1.443 . S
C1101 H1065 0.932 1_655 S
C1101 C1096 1.388 . S
C1101 C1100 1.443 . S
H1102 C1129 0.929 . S
N1103 C1128 1.433 . S
N1103 C1134 1.435 . S
N1103 C1140 1.423 . S
H1104 C1130 0.930 . S
H1105 C1133 0.931 . S
H1106 C1132 0.929 . S
H1107 C1135 0.930 . S
H1108 C1136 0.932 . S
H1109 C1139 0.929 . S
H1110 C1138 0.931 . S
H1111 C1141 0.929 . S
H1112 C1145 0.932 . S
H1113 C1142 0.931 . S
H1114 C1144 0.929 . S
H1115 C1147 0.929 . S
H1116 C1148 0.930 . S
H1117 C1150 0.929 . S
H1118 C1151 0.931 . S
H1119 C1153 0.930 . S
H1120 C1154 0.932 . S
H1121 C1156 0.931 . S
H1122 C1157 0.929 . S
H1123 C1159 0.929 . S
H1124 C1160 0.931 . S
H1125 C1162 0.929 . S
N1126 C1146 1.433 . S
N1126 C1152 1.435 . S
N1126 C1158 1.423 . S
H1127 C1163 0.932 . S
C1128 N1103 1.433 . S
C1128 C1129 1.363 . S
C1128 C1133 1.370 . S
C1129 H1102 0.929 . S
C1129 C1128 1.363 . S
C1129 C1130 1.385 . S
C1130 H1104 0.930 . S
C1130 C1129 1.385 . S
C1130 C1131 1.357 . S
C1131 C1130 1.357 . S
C1131 C1132 1.406 . S
C1132 H1106 0.929 . S
C1132 C1131 1.406 . S
C1132 C1133 1.391 . S
C1133 H1105 0.931 . S
C1133 C1128 1.370 . S
C1133 C1132 1.391 . S
C1134 N1103 1.435 . S
C1134 C1135 1.358 . S
C1134 C1139 1.371 . S
C1135 H1107 0.930 . S
C1135 C1134 1.358 . S
C1135 C1136 1.405 . S
C1136 H1108 0.932 . S
C1136 C1135 1.405 . S
C1136 C1137 1.383 . S
C1137 C1136 1.383 . S
C1137 C1138 1.393 . S
C1138 H1110 0.931 . S
C1138 C1137 1.393 . S
C1138 C1139 1.382 . S
C1139 H1109 0.929 . S
C1139 C1134 1.371 . S
C1139 C1138 1.382 . S
C1140 N1103 1.423 . S
C1140 C1141 1.362 . S
C1140 C1145 1.388 . S
C1141 H1111 0.929 . S
C1141 C1140 1.362 . S
C1141 C1142 1.376 . S
C1142 H1113 0.931 . S
C1142 C1141 1.376 . S
C1142 C1143 1.396 . S
C1143 C1142 1.396 . S
C1143 C1144 1.348 . S
C1143 C1161 1.472 . S
C1144 H1114 0.929 . S
C1144 C1143 1.348 . S
C1144 C1145 1.443 . S
C1145 H1112 0.932 . S
C1145 C1140 1.388 . S
C1145 C1144 1.443 . S
C1146 N1126 1.433 . S
C1146 C1147 1.363 . S
C1146 C1151 1.370 . S
C1147 H1115 0.929 . S
C1147 C1146 1.363 . S
C1147 C1148 1.385 . S
C1148 H1116 0.930 . S
C1148 C1147 1.385 . S
C1148 C1149 1.357 . S
C1149 C1148 1.357 . S
C1149 C1150 1.406 . S
C1150 H1117 0.929 . S
C1150 C1149 1.406 . S
C1150 C1151 1.391 . S
C1151 H1118 0.931 . S
C1151 C1146 1.370 . S
C1151 C1150 1.391 . S
C1152 N1126 1.435 . S
C1152 C1153 1.358 . S
C1152 C1157 1.371 . S
C1153 H1119 0.930 . S
C1153 C1152 1.358 . S
C1153 C1154 1.405 . S
C1154 H1120 0.932 . S
C1154 C1153 1.405 . S
C1154 C1155 1.383 . S
C1155 C1154 1.383 . S
C1155 C1156 1.393 . S
C1156 H1121 0.931 . S
C1156 C1155 1.393 . S
C1156 C1157 1.382 . S
C1157 H1122 0.929 . S
C1157 C1152 1.371 . S
C1157 C1156 1.382 . S
C1158 N1126 1.423 . S
C1158 C1159 1.362 . S
C1158 C1163 1.388 . S
C1159 H1123 0.929 . S
C1159 C1158 1.362 . S
C1159 C1160 1.376 . S
C1160 H1124 0.931 . S
C1160 C1159 1.376 . S
C1160 C1161 1.396 . S
C1161 C1143 1.472 . S
C1161 C1160 1.396 . S
C1161 C1162 1.348 . S
C1162 H1125 0.929 . S
C1162 C1161 1.348 . S
C1162 C1163 1.443 . S
C1163 H1127 0.932 . S
C1163 C1158 1.388 . S
C1163 C1162 1.443 . S
H1164 C1191 0.929 . S
N1165 C1190 1.433 . S
N1165 C1196 1.435 . S
N1165 C1202 1.423 . S
H1166 C1192 0.930 . S
H1167 C1195 0.931 . S
H1168 C1194 0.929 . S
H1169 C1197 0.930 . S
H1170 C1198 0.932 . S
H1171 C1201 0.929 . S
H1172 C1200 0.931 . S
H1173 C1203 0.929 . S
H1174 C1207 0.932 . S
H1175 C1204 0.931 . S
H1176 C1206 0.929 . S
H1177 C1209 0.929 . S
H1178 C1210 0.930 . S
H1179 C1212 0.929 . S
H1180 C1213 0.931 . S
H1181 C1215 0.930 . S
H1182 C1216 0.932 . S
H1183 C1218 0.931 . S
H1184 C1219 0.929 . S
H1185 C1221 0.929 . S
H1186 C1222 0.931 . S
H1187 C1224 0.929 . S
N1188 C1208 1.433 . S
N1188 C1214 1.435 . S
N1188 C1220 1.423 . S
H1189 C1225 0.932 . S
C1190 N1165 1.433 . S
C1190 C1191 1.363 . S
C1190 C1195 1.370 . S
C1191 H1164 0.929 . S
C1191 C1190 1.363 . S
C1191 C1192 1.385 . S
C1192 H1166 0.930 . S
C1192 C1191 1.385 . S
C1192 C1193 1.357 . S
C1193 C1192 1.357 . S
C1193 C1194 1.406 . S
C1194 H1168 0.929 . S
C1194 C1193 1.406 . S
C1194 C1195 1.391 . S
C1195 H1167 0.931 . S
C1195 C1190 1.370 . S
C1195 C1194 1.391 . S
C1196 N1165 1.435 . S
C1196 C1197 1.358 . S
C1196 C1201 1.371 . S
C1197 H1169 0.930 . S
C1197 C1196 1.358 . S
C1197 C1198 1.405 . S
C1198 H1170 0.932 . S
C1198 C1197 1.405 . S
C1198 C1199 1.383 . S
C1199 C1198 1.383 . S
C1199 C1200 1.393 . S
C1200 H1172 0.931 . S
C1200 C1199 1.393 . S
C1200 C1201 1.382 . S
C1201 H1171 0.929 . S
C1201 C1196 1.371 . S
C1201 C1200 1.382 . S
C1202 N1165 1.423 . S
C1202 C1203 1.362 . S
C1202 C1207 1.388 . S
C1203 H1173 0.929 . S
C1203 C1202 1.362 . S
C1203 C1204 1.376 . S
C1204 H1175 0.931 . S
C1204 C1203 1.376 . S
C1204 C1205 1.396 . S
C1205 C1204 1.396 . S
C1205 C1206 1.348 . S
C1205 C1223 1.472 . S
C1206 H1176 0.929 . S
C1206 C1205 1.348 . S
C1206 C1207 1.443 . S
C1207 H1174 0.932 . S
C1207 C1202 1.388 . S
C1207 C1206 1.443 . S
C1208 N1188 1.433 . S
C1208 C1209 1.363 . S
C1208 C1213 1.370 . S
C1209 H1177 0.929 . S
C1209 C1208 1.363 . S
C1209 C1210 1.385 . S
C1210 H1178 0.930 . S
C1210 C1209 1.385 . S
C1210 C1211 1.357 . S
C1211 C1210 1.357 . S
C1211 C1212 1.406 . S
C1212 H1179 0.929 . S
C1212 C1211 1.406 . S
C1212 C1213 1.391 . S
C1213 H1180 0.931 . S
C1213 C1208 1.370 . S
C1213 C1212 1.391 . S
C1214 N1188 1.435 . S
C1214 C1215 1.358 . S
C1214 C1219 1.371 . S
C1215 H1181 0.930 . S
C1215 C1214 1.358 . S
C1215 C1216 1.405 . S
C1216 H1182 0.932 . S
C1216 C1215 1.405 . S
C1216 C1217 1.383 . S
C1217 C1216 1.383 . S
C1217 C1218 1.393 . S
C1218 H1183 0.931 . S
C1218 C1217 1.393 . S
C1218 C1219 1.382 . S
C1219 H1184 0.929 . S
C1219 C1214 1.371 . S
C1219 C1218 1.382 . S
C1220 N1188 1.423 . S
C1220 C1221 1.362 . S
C1220 C1225 1.388 . S
C1221 H1185 0.929 . S
C1221 C1220 1.362 . S
C1221 C1222 1.376 . S
C1222 H1186 0.931 . S
C1222 C1221 1.376 . S
C1222 C1223 1.396 . S
C1223 C1205 1.472 . S
C1223 C1222 1.396 . S
C1223 C1224 1.348 . S
C1224 H1187 0.929 . S
C1224 C1223 1.348 . S
C1224 C1225 1.443 . S
C1225 H1189 0.932 . S
C1225 C1220 1.388 . S
C1225 C1224 1.443 . S
H1226 C1253 0.929 . S
N1227 C1252 1.433 . S
N1227 C1258 1.435 . S
N1227 C1264 1.423 . S
H1228 C1254 0.930 . S
H1229 C1257 0.931 . S
H1230 C1256 0.929 . S
H1231 C1259 0.930 . S
H1232 C1260 0.932 . S
H1233 C1263 0.929 . S
H1234 C1262 0.931 . S
H1235 C1265 0.929 . S
H1236 C1269 0.932 . S
H1237 C1266 0.931 . S
H1238 C1268 0.929 . S
H1239 C1271 0.929 . S
H1240 C1272 0.930 . S
H1241 C1274 0.929 . S
H1242 C1275 0.931 . S
H1243 C1277 0.930 . S
H1244 C1278 0.932 . S
H1245 C1280 0.931 . S
H1246 C1281 0.929 . S
H1247 C1283 0.929 . S
H1248 C1284 0.931 . S
H1249 C1286 0.929 . S
N1250 C1270 1.433 . S
N1250 C1276 1.435 . S
N1250 C1282 1.423 . S
H1251 C1287 0.932 . S
C1252 N1227 1.433 . S
C1252 C1253 1.363 . S
C1252 C1257 1.370 . S
C1253 H1226 0.929 . S
C1253 C1252 1.363 . S
C1253 C1254 1.385 . S
C1254 H1228 0.930 . S
C1254 C1253 1.385 . S
C1254 C1255 1.357 . S
C1255 C1254 1.357 . S
C1255 C1256 1.406 . S
C1256 H1230 0.929 . S
C1256 C1255 1.406 . S
C1256 C1257 1.391 . S
C1257 H1229 0.931 . S
C1257 C1252 1.370 . S
C1257 C1256 1.391 . S
C1258 N1227 1.435 . S
C1258 C1259 1.358 . S
C1258 C1263 1.371 . S
C1259 H1231 0.930 . S
C1259 C1258 1.358 . S
C1259 C1260 1.405 . S
C1260 H1232 0.932 . S
C1260 C1259 1.405 . S
C1260 C1261 1.383 . S
C1261 C1260 1.383 . S
C1261 C1262 1.393 . S
C1262 H1234 0.931 . S
C1262 C1261 1.393 . S
C1262 C1263 1.382 . S
C1263 H1233 0.929 . S
C1263 C1258 1.371 . S
C1263 C1262 1.382 . S
C1264 N1227 1.423 . S
C1264 C1265 1.362 . S
C1264 C1269 1.388 . S
C1265 H1235 0.929 . S
C1265 C1264 1.362 . S
C1265 C1266 1.376 . S
C1266 H1237 0.931 . S
C1266 C1265 1.376 . S
C1266 C1267 1.396 . S
C1267 C1266 1.396 . S
C1267 C1268 1.348 . S
C1267 C1285 1.472 . S
C1268 H1238 0.929 . S
C1268 C1267 1.348 . S
C1268 C1269 1.443 . S
C1269 H1236 0.932 . S
C1269 C1264 1.388 . S
C1269 C1268 1.443 . S
C1270 N1250 1.433 . S
C1270 C1271 1.363 . S
C1270 C1275 1.370 . S
C1271 H1239 0.929 . S
C1271 C1270 1.363 . S
C1271 C1272 1.385 . S
C1272 H1240 0.930 . S
C1272 C1271 1.385 . S
C1272 C1273 1.357 . S
C1273 C1272 1.357 . S
C1273 C1274 1.406 . S
C1274 H1241 0.929 . S
C1274 C1273 1.406 . S
C1274 C1275 1.391 . S
C1275 H1242 0.931 . S
C1275 C1270 1.370 . S
C1275 C1274 1.391 . S
C1276 N1250 1.435 . S
C1276 C1277 1.358 . S
C1276 C1281 1.371 . S
C1277 H1243 0.930 . S
C1277 C1276 1.358 . S
C1277 C1278 1.405 . S
C1278 H1244 0.932 . S
C1278 C1277 1.405 . S
C1278 C1279 1.383 . S
C1279 C1278 1.383 . S
C1279 C1280 1.393 . S
C1280 H1245 0.931 . S
C1280 C1279 1.393 . S
C1280 C1281 1.382 . S
C1281 H1246 0.929 . S
C1281 C1276 1.371 . S
C1281 C1280 1.382 . S
C1282 N1250 1.423 . S
C1282 C1283 1.362 . S
C1282 C1287 1.388 . S
C1283 H1247 0.929 . S
C1283 C1282 1.362 . S
C1283 C1284 1.376 . S
C1284 H1248 0.931 . S
C1284 C1283 1.376 . S
C1284 C1285 1.396 . S
C1285 C1267 1.472 . S
C1285 C1284 1.396 . S
C1285 C1286 1.348 . S
C1286 H1249 0.929 . S
C1286 C1285 1.348 . S
C1286 C1287 1.443 . S
C1287 H1251 0.932 . S
C1287 C1282 1.388 . S
C1287 C1286 1.443 . S
H1288 C1315 0.929 . S
N1289 C1314 1.433 . S
N1289 C1320 1.435 . S
N1289 C1326 1.423 . S
H1290 C1316 0.930 . S
H1291 C1319 0.931 . S
H1292 C1318 0.929 . S
H1293 C1321 0.930 . S
H1294 C1322 0.932 . S
H1295 C1325 0.929 . S
H1296 C1324 0.931 . S
H1297 C1327 0.929 . S
H1298 C1331 0.932 . S
H1299 C1328 0.931 . S
H1300 C1330 0.929 . S
H1301 C1333 0.929 . S
H1302 C1334 0.930 . S
H1303 C1336 0.929 . S
H1304 C1337 0.931 . S
H1305 C1339 0.930 . S
H1306 C1340 0.932 . S
H1307 C1342 0.931 . S
H1308 C1343 0.929 . S
H1309 C1345 0.929 . S
H1310 C1346 0.931 . S
H1311 C1348 0.929 . S
N1312 C1332 1.433 . S
N1312 C1338 1.435 . S
N1312 C1344 1.423 . S
H1313 C1349 0.932 . S
C1314 N1289 1.433 . S
C1314 C1315 1.363 . S
C1314 C1319 1.370 . S
C1315 H1288 0.929 . S
C1315 C1314 1.363 . S
C1315 C1316 1.385 . S
C1316 H1290 0.930 . S
C1316 C1315 1.385 . S
C1316 C1317 1.357 . S
C1317 C1316 1.357 . S
C1317 C1318 1.406 . S
C1318 H1292 0.929 . S
C1318 C1317 1.406 . S
C1318 C1319 1.391 . S
C1319 H1291 0.931 . S
C1319 C1314 1.370 . S
C1319 C1318 1.391 . S
C1320 N1289 1.435 . S
C1320 C1321 1.358 . S
C1320 C1325 1.371 . S
C1321 H1293 0.930 . S
C1321 C1320 1.358 . S
C1321 C1322 1.405 . S
C1322 H1294 0.932 . S
C1322 C1321 1.405 . S
C1322 C1323 1.383 . S
C1323 C1322 1.383 . S
C1323 C1324 1.393 . S
C1324 H1296 0.931 . S
C1324 C1323 1.393 . S
C1324 C1325 1.382 . S
C1325 H1295 0.929 . S
C1325 C1320 1.371 . S
C1325 C1324 1.382 . S
C1326 N1289 1.423 . S
C1326 C1327 1.362 . S
C1326 C1331 1.388 . S
C1327 H1297 0.929 . S
C1327 C1326 1.362 . S
C1327 C1328 1.376 . S
C1328 H1299 0.931 . S
C1328 C1327 1.376 . S
C1328 C1329 1.396 . S
C1329 C1328 1.396 . S
C1329 C1330 1.348 . S
C1329 C1347 1.472 . S
C1330 H1300 0.929 . S
C1330 C1329 1.348 . S
C1330 C1331 1.443 . S
C1331 H1298 0.932 . S
C1331 C1326 1.388 . S
C1331 C1330 1.443 . S
C1332 N1312 1.433 . S
C1332 C1333 1.363 . S
C1332 C1337 1.370 . S
C1333 H1301 0.929 . S
C1333 C1332 1.363 . S
C1333 C1334 1.385 . S
C1334 H1302 0.930 . S
C1334 C1333 1.385 . S
C1334 C1335 1.357 . S
C1335 C1334 1.357 . S
C1335 C1336 1.406 . S
C1336 H1303 0.929 . S
C1336 C1335 1.406 . S
C1336 C1337 1.391 . S
C1337 H1304 0.931 . S
C1337 C1332 1.370 . S
C1337 C1336 1.391 . S
C1338 N1312 1.435 . S
C1338 C1339 1.358 . S
C1338 C1343 1.371 . S
C1339 H1305 0.930 . S
C1339 C1338 1.358 . S
C1339 C1340 1.405 . S
C1340 H1306 0.932 . S
C1340 C1339 1.405 . S
C1340 C1341 1.383 . S
C1341 C1340 1.383 . S
C1341 C1342 1.393 . S
C1342 H1307 0.931 . S
C1342 C1341 1.393 . S
C1342 C1343 1.382 . S
C1343 H1308 0.929 . S
C1343 C1338 1.371 . S
C1343 C1342 1.382 . S
C1344 N1312 1.423 . S
C1344 C1345 1.362 . S
C1344 C1349 1.388 . S
C1345 H1309 0.929 . S
C1345 C1344 1.362 . S
C1345 C1346 1.376 . S
C1346 H1310 0.931 . S
C1346 C1345 1.376 . S
C1346 C1347 1.396 . S
C1347 C1329 1.472 . S
C1347 C1346 1.396 . S
C1347 C1348 1.348 . S
C1348 H1311 0.929 . S
C1348 C1347 1.348 . S
C1348 C1349 1.443 . S
C1349 H1313 0.932 . S
C1349 C1344 1.388 . S
C1349 C1348 1.443 . S
H1350 C1356 0.930 . S
H1351 C1359 0.934 . S
H1352 C1360 0.930 . S
H1353 C1361 0.930 1_455 S
H1354 C1364 0.930 . S
H1355 C1365 0.930 . S
C1356 H1350 0.930 . S
C1356 C1357 1.355 . S
C1356 C1358 1.415 . S
C1357 C1356 1.355 . S
C1357 C1359 1.425 1_655 S
C1358 C1356 1.415 . S
C1358 C1363 1.425 . S
C1358 C1365 1.409 . S
C1359 H1351 0.934 . S
C1359 C1357 1.425 1_455 S
C1359 C1360 1.353 . S
C1360 H1352 0.930 . S
C1360 C1359 1.353 . S
C1360 C1363 1.409 1_455 S
C1361 H1353 0.930 1_655 S
C1361 C1362 1.355 . S
C1361 C1363 1.415 . S
C1362 C1361 1.355 . S
C1362 C1364 1.419 . S
C1363 C1358 1.425 . S
C1363 C1360 1.409 1_655 S
C1363 C1361 1.415 . S
C1364 H1354 0.930 . S
C1364 C1362 1.419 . S
C1364 C1365 1.362 . S
C1365 H1355 0.930 . S
C1365 C1358 1.409 . S
C1365 C1364 1.362 . S
H1366 C1372 0.930 . S
H1367 C1375 0.930 . S
H1368 C1376 0.930 . S
H1369 C1377 0.930 . S
H1370 C1380 0.930 . S
H1371 C1381 0.930 . S
C1372 H1366 0.930 . S
C1372 C1373 1.355 . S
C1372 C1374 1.415 . S
C1373 C1372 1.355 . S
C1373 C1375 1.419 . S
C1374 C1372 1.415 . S
C1374 C1379 1.425 . S
C1374 C1381 1.409 . S
C1375 H1367 0.930 . S
C1375 C1373 1.419 . S
C1375 C1376 1.362 . S
C1376 H1368 0.930 . S
C1376 C1375 1.362 . S
C1376 C1379 1.409 . S
C1377 H1369 0.930 . S
C1377 C1378 1.355 . S
C1377 C1379 1.415 . S
C1378 C1377 1.355 . S
C1378 C1380 1.419 . S
C1379 C1374 1.425 . S
C1379 C1376 1.409 . S
C1379 C1377 1.415 . S
C1380 H1370 0.930 . S
C1380 C1378 1.419 . S
C1380 C1381 1.362 . S
C1381 H1371 0.930 . S
C1381 C1374 1.409 . S
C1381 C1380 1.362 . S
H1382 C1388 0.930 1_565 S
H1383 C1391 0.930 . S
H1384 C1392 0.930 . S
H1385 C1393 0.930 . S
H1386 C1396 0.930 . S
H1387 C1397 0.930 . S
C1388 H1382 0.930 1_545 S
C1388 C1389 1.355 . S
C1388 C1390 1.415 . S
C1389 C1388 1.355 . S
C1389 C1391 1.419 . S
C1390 C1388 1.415 . S
C1390 C1395 1.425 . S
C1390 C1397 1.409 1_545 S
C1391 H1383 0.930 . S
C1391 C1389 1.419 . S
C1391 C1392 1.362 . S
C1392 H1384 0.930 . S
C1392 C1391 1.362 . S
C1392 C1395 1.409 . S
C1393 H1385 0.930 . S
C1393 C1394 1.355 . S
C1393 C1395 1.415 . S
C1394 C1393 1.355 . S
C1394 C1396 1.419 1_545 S
C1395 C1390 1.425 . S
C1395 C1392 1.409 . S
C1395 C1393 1.415 . S
C1396 H1386 0.930 . S
C1396 C1394 1.419 1_565 S
C1396 C1397 1.362 . S
C1397 H1387 0.930 . S
C1397 C1390 1.409 1_565 S
C1397 C1396 1.362 . S
H1398 C1404 0.984 . S
H1399 C1407 0.930 . S
H1400 C1408 0.930 . S
H1401 C1409 0.930 . S
H1402 C1412 0.930 . S
H1403 C1413 0.930 . S
C1404 H1398 0.984 . S
C1404 C1405 1.340 1_545 S
C1404 C1406 1.367 1_545 S
C1405 C1404 1.340 1_565 S
C1405 C1407 1.419 . S
C1406 C1404 1.367 1_565 S
C1406 C1411 1.449 . S
C1406 C1413 1.402 1_565 S
C1407 H1399 0.930 . S
C1407 C1405 1.419 . S
C1407 C1408 1.362 . S
C1408 H1400 0.930 . S
C1408 C1407 1.362 . S
C1408 C1411 1.409 . S
C1409 H1401 0.930 . S
C1409 C1410 1.355 . S
C1409 C1411 1.415 . S
C1410 C1409 1.355 . S
C1410 C1412 1.419 1_565 S
C1411 C1406 1.449 . S
C1411 C1408 1.409 . S
C1411 C1409 1.415 . S
C1412 H1402 0.930 . S
C1412 C1410 1.419 1_545 S
C1412 C1413 1.362 . S
C1413 H1403 0.930 . S
C1413 C1406 1.402 1_545 S
C1413 C1412 1.362 . S
H1414 C1420 0.930 . S
H1415 C1423 0.930 . S
H1416 C1424 0.930 . S
H1417 C1425 0.930 . S
H1418 C1428 0.930 . S
H1419 C1429 0.930 . S
C1420 H1414 0.930 . S
C1420 C1421 1.355 . S
C1420 C1422 1.415 . S
C1421 C1420 1.355 . S
C1421 C1423 1.419 . S
C1422 C1420 1.415 . S
C1422 C1427 1.425 . S
C1422 C1429 1.409 . S
C1423 H1415 0.930 . S
C1423 C1421 1.419 . S
C1423 C1424 1.362 . S
C1424 H1416 0.930 . S
C1424 C1423 1.362 . S
C1424 C1427 1.409 . S
C1425 H1417 0.930 . S
C1425 C1426 1.355 . S
C1425 C1427 1.415 . S
C1426 C1425 1.355 . S
C1426 C1428 1.419 . S
C1427 C1422 1.425 . S
C1427 C1424 1.409 . S
C1427 C1425 1.415 . S
C1428 H1418 0.930 . S
C1428 C1426 1.419 . S
C1428 C1429 1.362 . S
C1429 H1419 0.930 . S
C1429 C1422 1.409 . S
C1429 C1428 1.362 . S
H1430 C1436 0.930 . S
H1431 C1439 0.930 . S
H1432 C1440 0.930 . S
H1433 C1441 0.930 . S
H1434 C1444 0.930 . S
H1435 C1445 0.930 . S
C1436 H1430 0.930 . S
C1436 C1437 1.355 . S
C1436 C1438 1.415 . S
C1437 C1436 1.355 . S
C1437 C1439 1.419 . S
C1438 C1436 1.415 . S
C1438 C1443 1.425 . S
C1438 C1445 1.409 . S
C1439 H1431 0.930 . S
C1439 C1437 1.419 . S
C1439 C1440 1.362 . S
C1440 H1432 0.930 . S
C1440 C1439 1.362 . S
C1440 C1443 1.409 . S
C1441 H1433 0.930 . S
C1441 C1442 1.355 . S
C1441 C1443 1.415 . S
C1442 C1441 1.355 . S
C1442 C1444 1.419 . S
C1443 C1438 1.425 . S
C1443 C1440 1.409 . S
C1443 C1441 1.415 . S
C1444 H1434 0.930 . S
C1444 C1442 1.419 . S
C1444 C1445 1.362 . S
C1445 H1435 0.930 . S
C1445 C1438 1.409 . S
C1445 C1444 1.362 . S
H1446 C1452 0.930 . S
H1447 C1455 0.930 . S
H1448 C1456 0.930 . S
H1449 C1457 0.930 . S
H1450 C1460 0.930 . S
H1451 C1461 0.930 . S
C1452 H1446 0.930 . S
C1452 C1453 1.355 1_655 S
C1452 C1454 1.387 1_655 S
C1453 C1452 1.355 1_455 S
C1453 C1455 1.419 . S
C1454 C1452 1.387 1_455 S
C1454 C1459 1.477 . S
C1454 C1461 1.389 1_455 S
C1455 H1447 0.930 . S
C1455 C1453 1.419 . S
C1455 C1456 1.362 . S
C1456 H1448 0.930 . S
C1456 C1455 1.362 . S
C1456 C1459 1.409 . S
C1457 H1449 0.930 . S
C1457 C1458 1.355 . S
C1457 C1459 1.415 . S
C1458 C1457 1.355 . S
C1458 C1460 1.419 1_455 S
C1459 C1454 1.477 . S
C1459 C1456 1.409 . S
C1459 C1457 1.415 . S
C1460 H1450 0.930 . S
C1460 C1458 1.419 1_655 S
C1460 C1461 1.362 . S
C1461 H1451 0.930 . S
C1461 C1454 1.389 1_655 S
C1461 C1460 1.362 . S
H1462 C1468 0.930 . S
H1463 C1471 0.930 . S
H1464 C1472 0.930 . S
H1465 C1473 0.930 . S
H1466 C1476 0.930 . S
H1467 C1477 0.930 . S
C1468 H1462 0.930 . S
C1468 C1469 1.355 . S
C1468 C1470 1.415 . S
C1469 C1468 1.355 . S
C1469 C1471 1.419 . S
C1470 C1468 1.415 . S
C1470 C1475 1.425 . S
C1470 C1477 1.409 . S
C1471 H1463 0.930 . S
C1471 C1469 1.419 . S
C1471 C1472 1.362 . S
C1472 H1464 0.930 . S
C1472 C1471 1.362 . S
C1472 C1475 1.409 . S
C1473 H1465 0.930 . S
C1473 C1474 1.355 . S
C1473 C1475 1.415 . S
C1474 C1473 1.355 . S
C1474 C1476 1.419 . S
C1475 C1470 1.425 . S
C1475 C1472 1.409 . S
C1475 C1473 1.415 . S
C1476 H1466 0.930 . S
C1476 C1474 1.419 . S
C1476 C1477 1.362 . S
C1477 H1467 0.930 . S
C1477 C1470 1.409 . S
C1477 C1476 1.362 . S
H1478 C1484 0.930 . S
H1479 C1487 0.930 . S
H1480 C1488 0.930 . S
H1481 C1489 0.930 . S
H1482 C1492 0.930 . S
H1483 C1493 0.930 . S
C1484 H1478 0.930 . S
C1484 C1485 1.355 . S
C1484 C1486 1.415 . S
C1485 C1484 1.355 . S
C1485 C1487 1.419 1_565 S
C1486 C1484 1.415 . S
C1486 C1491 1.425 1_565 S
C1486 C1493 1.409 . S
C1487 H1479 0.930 . S
C1487 C1485 1.419 1_545 S
C1487 C1488 1.362 . S
C1488 H1480 0.930 . S
C1488 C1487 1.362 . S
C1488 C1491 1.409 . S
C1489 H1481 0.930 . S
C1489 C1490 1.355 1_545 S
C1489 C1491 1.415 . S
C1490 C1489 1.355 1_565 S
C1490 C1492 1.419 . S
C1491 C1486 1.425 1_545 S
C1491 C1488 1.409 . S
C1491 C1489 1.415 . S
C1492 H1482 0.930 . S
C1492 C1490 1.419 . S
C1492 C1493 1.362 . S
C1493 H1483 0.930 . S
C1493 C1486 1.409 . S
C1493 C1492 1.362 . S
H1494 C1500 0.930 . S
H1495 C1503 0.930 . S
H1496 C1504 0.930 . S
H1497 C1505 0.930 . S
H1498 C1508 0.930 . S
H1499 C1509 0.930 . S
C1500 H1494 0.930 . S
C1500 C1501 1.355 . S
C1500 C1502 1.415 . S
C1501 C1500 1.355 . S
C1501 C1503 1.419 . S
C1502 C1500 1.415 . S
C1502 C1507 1.425 . S
C1502 C1509 1.409 . S
C1503 H1495 0.930 . S
C1503 C1501 1.419 . S
C1503 C1504 1.362 . S
C1504 H1496 0.930 . S
C1504 C1503 1.362 . S
C1504 C1507 1.409 . S
C1505 H1497 0.930 . S
C1505 C1506 1.355 . S
C1505 C1507 1.415 . S
C1506 C1505 1.355 . S
C1506 C1508 1.419 . S
C1507 C1502 1.425 . S
C1507 C1504 1.409 . S
C1507 C1505 1.415 . S
C1508 H1498 0.930 . S
C1508 C1506 1.419 . S
C1508 C1509 1.362 . S
C1509 H1499 0.930 . S
C1509 C1502 1.409 . S
C1509 C1508 1.362 . S
H1510 C1516 0.930 . S
H1511 C1519 0.930 . S
H1512 C1520 0.930 . S
H1513 C1521 0.930 . S
H1514 C1524 0.930 . S
H1515 C1525 0.930 . S
C1516 H1510 0.930 . S
C1516 C1517 1.355 . S
C1516 C1518 1.415 . S
C1517 C1516 1.355 . S
C1517 C1519 1.419 . S
C1518 C1516 1.415 . S
C1518 C1523 1.425 . S
C1518 C1525 1.409 . S
C1519 H1511 0.930 . S
C1519 C1517 1.419 . S
C1519 C1520 1.362 . S
C1520 H1512 0.930 . S
C1520 C1519 1.362 . S
C1520 C1523 1.409 . S
C1521 H1513 0.930 . S
C1521 C1522 1.355 . S
C1521 C1523 1.415 . S
C1522 C1521 1.355 . S
C1522 C1524 1.419 . S
C1523 C1518 1.425 . S
C1523 C1520 1.409 . S
C1523 C1521 1.415 . S
C1524 H1514 0.930 . S
C1524 C1522 1.419 . S
C1524 C1525 1.362 . S
C1525 H1515 0.930 . S
C1525 C1518 1.409 . S
C1525 C1524 1.362 . S
H1526 C1532 0.930 . S
H1527 C1535 0.930 . S
H1528 C1536 0.930 . S
H1529 C1537 0.930 . S
H1530 C1540 0.930 . S
H1531 C1541 0.930 . S
C1532 H1526 0.930 . S
C1532 C1533 1.355 . S
C1532 C1534 1.415 . S
C1533 C1532 1.355 . S
C1533 C1535 1.419 . S
C1534 C1532 1.415 . S
C1534 C1539 1.425 . S
C1534 C1541 1.409 . S
C1535 H1527 0.930 . S
C1535 C1533 1.419 . S
C1535 C1536 1.362 . S
C1536 H1528 0.930 . S
C1536 C1535 1.362 . S
C1536 C1539 1.409 . S
C1537 H1529 0.930 . S
C1537 C1538 1.355 . S
C1537 C1539 1.415 . S
C1538 C1537 1.355 . S
C1538 C1540 1.419 . S
C1539 C1534 1.425 . S
C1539 C1536 1.409 . S
C1539 C1537 1.415 . S
C1540 H1530 0.930 . S
C1540 C1538 1.419 . S
C1540 C1541 1.362 . S
C1541 H1531 0.930 . S
C1541 C1534 1.409 . S
C1541 C1540 1.362 . S
H1542 C1548 0.930 . S
H1543 C1551 0.930 . S
H1544 C1552 0.930 . S
H1545 C1553 0.930 . S
H1546 C1556 0.930 . S
H1547 C1557 0.930 . S
C1548 H1542 0.930 . S
C1548 C1549 1.355 . S
C1548 C1550 1.415 . S
C1549 C1548 1.355 . S
C1549 C1551 1.419 . S
C1550 C1548 1.415 . S
C1550 C1555 1.425 . S
C1550 C1557 1.409 . S
C1551 H1543 0.930 . S
C1551 C1549 1.419 . S
C1551 C1552 1.362 . S
C1552 H1544 0.930 . S
C1552 C1551 1.362 . S
C1552 C1555 1.409 . S
C1553 H1545 0.930 . S
C1553 C1554 1.355 . S
C1553 C1555 1.415 . S
C1554 C1553 1.355 . S
C1554 C1556 1.419 . S
C1555 C1550 1.425 . S
C1555 C1552 1.409 . S
C1555 C1553 1.415 . S
C1556 H1546 0.930 . S
C1556 C1554 1.419 . S
C1556 C1557 1.362 . S
C1557 H1547 0.930 . S
C1557 C1550 1.409 . S
C1557 C1556 1.362 . S
H1558 C1564 0.930 . S
H1559 C1567 0.930 . S
H1560 C1568 0.930 . S
H1561 C1569 0.930 . S
H1562 C1572 0.930 . S
H1563 C1573 0.930 . S
C1564 H1558 0.930 . S
C1564 C1565 1.355 . S
C1564 C1566 1.415 . S
C1565 C1564 1.355 . S
C1565 C1567 1.419 . S
C1566 C1564 1.415 . S
C1566 C1571 1.425 . S
C1566 C1573 1.409 . S
C1567 H1559 0.930 . S
C1567 C1565 1.419 . S
C1567 C1568 1.362 . S
C1568 H1560 0.930 . S
C1568 C1567 1.362 . S
C1568 C1571 1.409 . S
C1569 H1561 0.930 . S
C1569 C1570 1.355 . S
C1569 C1571 1.415 . S
C1570 C1569 1.355 . S
C1570 C1572 1.419 . S
C1571 C1566 1.425 . S
C1571 C1568 1.409 . S
C1571 C1569 1.415 . S
C1572 H1562 0.930 . S
C1572 C1570 1.419 . S
C1572 C1573 1.362 . S
C1573 H1563 0.930 . S
C1573 C1566 1.409 . S
C1573 C1572 1.362 . S
H1574 C1580 0.930 . S
H1575 C1583 0.930 . S
H1576 C1584 0.930 . S
H1577 C1585 0.930 . S
H1578 C1588 0.930 . S
H1579 C1589 0.930 . S
C1580 H1574 0.930 . S
C1580 C1581 1.355 . S
C1580 C1582 1.415 . S
C1581 C1580 1.355 . S
C1581 C1583 1.419 . S
C1582 C1580 1.415 . S
C1582 C1587 1.425 . S
C1582 C1589 1.409 . S
C1583 H1575 0.930 . S
C1583 C1581 1.419 . S
C1583 C1584 1.362 . S
C1584 H1576 0.930 . S
C1584 C1583 1.362 . S
C1584 C1587 1.409 . S
C1585 H1577 0.930 . S
C1585 C1586 1.355 . S
C1585 C1587 1.415 . S
C1586 C1585 1.355 . S
C1586 C1588 1.419 . S
C1587 C1582 1.425 . S
C1587 C1584 1.409 . S
C1587 C1585 1.415 . S
C1588 H1578 0.930 . S
C1588 C1586 1.419 . S
C1588 C1589 1.362 . S
C1589 H1579 0.930 . S
C1589 C1582 1.409 . S
C1589 C1588 1.362 . S
H1590 C1596 0.930 . S
H1591 C1599 0.930 . S
H1592 C1600 0.930 . S
H1593 C1601 0.930 . S
H1594 C1604 0.930 . S
H1595 C1605 0.930 . S
C1596 H1590 0.930 . S
C1596 C1597 1.355 . S
C1596 C1598 1.415 . S
C1597 C1596 1.355 . S
C1597 C1599 1.419 . S
C1598 C1596 1.415 . S
C1598 C1603 1.425 . S
C1598 C1605 1.409 . S
C1599 H1591 0.930 . S
C1599 C1597 1.419 . S
C1599 C1600 1.362 . S
C1600 H1592 0.930 . S
C1600 C1599 1.362 . S
C1600 C1603 1.409 . S
C1601 H1593 0.930 . S
C1601 C1602 1.355 . S
C1601 C1603 1.415 . S
C1602 C1601 1.355 . S
C1602 C1604 1.419 . S
C1603 C1598 1.425 . S
C1603 C1600 1.409 . S
C1603 C1601 1.415 . S
C1604 H1594 0.930 . S
C1604 C1602 1.419 . S
C1604 C1605 1.362 . S
C1605 H1595 0.930 . S
C1605 C1598 1.409 . S
C1605 C1604 1.362 . S
H1606 C1612 0.930 . S
H1607 C1615 0.930 . S
H1608 C1616 0.930 . S
H1609 C1617 0.930 . S
H1610 C1620 0.930 . S
H1611 C1621 0.930 . S
C1612 H1606 0.930 . S
C1612 C1613 1.355 . S
C1612 C1614 1.415 . S
C1613 C1612 1.355 . S
C1613 C1615 1.419 . S
C1614 C1612 1.415 . S
C1614 C1619 1.425 . S
C1614 C1621 1.409 . S
C1615 H1607 0.930 . S
C1615 C1613 1.419 . S
C1615 C1616 1.362 . S
C1616 H1608 0.930 . S
C1616 C1615 1.362 . S
C1616 C1619 1.409 . S
C1617 H1609 0.930 . S
C1617 C1618 1.355 . S
C1617 C1619 1.415 . S
C1618 C1617 1.355 . S
C1618 C1620 1.419 . S
C1619 C1614 1.425 . S
C1619 C1616 1.409 . S
C1619 C1617 1.415 . S
C1620 H1610 0.930 . S
C1620 C1618 1.419 . S
C1620 C1621 1.362 . S
C1621 H1611 0.930 . S
C1621 C1614 1.409 . S
C1621 C1620 1.362 . S
H1622 C1628 0.930 . S
H1623 C1631 0.930 . S
H1624 C1632 0.930 . S
H1625 C1633 0.930 . S
H1626 C1636 0.930 . S
H1627 C1637 0.930 . S
C1628 H1622 0.930 . S
C1628 C1629 1.355 . S
C1628 C1630 1.415 . S
C1629 C1628 1.355 . S
C1629 C1631 1.419 . S
C1630 C1628 1.415 . S
C1630 C1635 1.425 . S
C1630 C1637 1.409 . S
C1631 H1623 0.930 . S
C1631 C1629 1.419 . S
C1631 C1632 1.362 . S
C1632 H1624 0.930 . S
C1632 C1631 1.362 . S
C1632 C1635 1.409 . S
C1633 H1625 0.930 . S
C1633 C1634 1.355 . S
C1633 C1635 1.415 . S
C1634 C1633 1.355 . S
C1634 C1636 1.419 . S
C1635 C1630 1.425 . S
C1635 C1632 1.409 . S
C1635 C1633 1.415 . S
C1636 H1626 0.930 . S
C1636 C1634 1.419 . S
C1636 C1637 1.362 . S
C1637 H1627 0.930 . S
C1637 C1630 1.409 . S
C1637 C1636 1.362 . S
H1638 C1644 0.930 . S
H1639 C1647 0.930 . S
H1640 C1648 0.930 . S
H1641 C1649 0.930 . S
H1642 C1652 0.930 . S
H1643 C1653 0.930 . S
C1644 H1638 0.930 . S
C1644 C1645 1.355 . S
C1644 C1646 1.415 . S
C1645 C1644 1.355 . S
C1645 C1647 1.419 . S
C1646 C1644 1.415 . S
C1646 C1651 1.425 . S
C1646 C1653 1.409 . S
C1647 H1639 0.930 . S
C1647 C1645 1.419 . S
C1647 C1648 1.362 . S
C1648 H1640 0.930 . S
C1648 C1647 1.362 . S
C1648 C1651 1.409 . S
C1649 H1641 0.930 . S
C1649 C1650 1.355 . S
C1649 C1651 1.415 . S
C1650 C1649 1.355 . S
C1650 C1652 1.419 . S
C1651 C1646 1.425 . S
C1651 C1648 1.409 . S
C1651 C1649 1.415 . S
C1652 H1642 0.930 . S
C1652 C1650 1.419 . S
C1652 C1653 1.362 . S
C1653 H1643 0.930 . S
C1653 C1646 1.409 . S
C1653 C1652 1.362 . S
H1654 C1660 0.930 . S
H1655 C1663 0.930 . S
H1656 C1664 0.930 . S
H1657 C1665 0.930 . S
H1658 C1668 0.930 . S
H1659 C1669 0.930 . S
C1660 H1654 0.930 . S
C1660 C1661 1.355 . S
C1660 C1662 1.415 . S
C1661 C1660 1.355 . S
C1661 C1663 1.419 . S
C1662 C1660 1.415 . S
C1662 C1667 1.425 . S
C1662 C1669 1.409 . S
C1663 H1655 0.930 . S
C1663 C1661 1.419 . S
C1663 C1664 1.362 . S
C1664 H1656 0.930 . S
C1664 C1663 1.362 . S
C1664 C1667 1.409 . S
C1665 H1657 0.930 . S
C1665 C1666 1.355 . S
C1665 C1667 1.415 . S
C1666 C1665 1.355 . S
C1666 C1668 1.419 . S
C1667 C1662 1.425 . S
C1667 C1664 1.409 . S
C1667 C1665 1.415 . S
C1668 H1658 0.930 . S
C1668 C1666 1.419 . S
C1668 C1669 1.362 . S
C1669 H1659 0.930 . S
C1669 C1662 1.409 . S
C1669 C1668 1.362 . S
H1670 C1676 0.930 . S
H1671 C1679 0.930 . S
H1672 C1680 0.930 . S
H1673 C1681 0.930 . S
H1674 C1684 0.930 . S
H1675 C1685 0.930 . S
C1676 H1670 0.930 . S
C1676 C1677 1.355 . S
C1676 C1678 1.415 . S
C1677 C1676 1.355 . S
C1677 C1679 1.419 . S
C1678 C1676 1.415 . S
C1678 C1683 1.425 . S
C1678 C1685 1.409 . S
C1679 H1671 0.930 . S
C1679 C1677 1.419 . S
C1679 C1680 1.362 . S
C1680 H1672 0.930 . S
C1680 C1679 1.362 . S
C1680 C1683 1.409 . S
C1681 H1673 0.930 . S
C1681 C1682 1.355 . S
C1681 C1683 1.415 . S
C1682 C1681 1.355 . S
C1682 C1684 1.419 . S
C1683 C1678 1.425 . S
C1683 C1680 1.409 . S
C1683 C1681 1.415 . S
C1684 H1674 0.930 . S
C1684 C1682 1.419 . S
C1684 C1685 1.362 . S
C1685 H1675 0.930 . S
C1685 C1678 1.409 . S
C1685 C1684 1.362 . S
H1686 C1692 0.930 . S
H1687 C1695 0.930 . S
H1688 C1696 0.930 . S
H1689 C1697 0.930 . S
H1690 C1700 0.930 . S
H1691 C1701 0.930 . S
C1692 H1686 0.930 . S
C1692 C1693 1.355 . S
C1692 C1694 1.415 . S
C1693 C1692 1.355 . S
C1693 C1695 1.419 . S
C1694 C1692 1.415 . S
C1694 C1699 1.425 . S
C1694 C1701 1.409 . S
C1695 H1687 0.930 . S
C1695 C1693 1.419 . S
C1695 C1696 1.362 . S
C1696 H1688 0.930 . S
C1696 C1695 1.362 . S
C1696 C1699 1.409 . S
C1697 H1689 0.930 . S
C1697 C1698 1.355 . S
C1697 C1699 1.415 . S
C1698 C1697 1.355 . S
C1698 C1700 1.419 . S
C1699 C1694 1.425 . S
C1699 C1696 1.409 . S
C1699 C1697 1.415 . S
C1700 H1690 0.930 . S
C1700 C1698 1.419 . S
C1700 C1701 1.362 . S
C1701 H1691 0.930 . S
C1701 C1694 1.409 . S
C1701 C1700 1.362 . S
H1702 C1708 0.930 . S
H1703 C1711 0.930 . S
H1704 C1712 0.930 . S
H1705 C1713 0.930 . S
H1706 C1716 0.930 . S
H1707 C1717 0.930 . S
C1708 H1702 0.930 . S
C1708 C1709 1.355 . S
C1708 C1710 1.415 . S
C1709 C1708 1.355 . S
C1709 C1711 1.419 . S
C1710 C1708 1.415 . S
C1710 C1715 1.425 . S
C1710 C1717 1.409 . S
C1711 H1703 0.930 . S
C1711 C1709 1.419 . S
C1711 C1712 1.362 . S
C1712 H1704 0.930 . S
C1712 C1711 1.362 . S
C1712 C1715 1.409 . S
C1713 H1705 0.930 . S
C1713 C1714 1.355 . S
C1713 C1715 1.415 . S
C1714 C1713 1.355 . S
C1714 C1716 1.419 . S
C1715 C1710 1.425 . S
C1715 C1712 1.409 . S
C1715 C1713 1.415 . S
C1716 H1706 0.930 . S
C1716 C1714 1.419 . S
C1716 C1717 1.362 . S
C1717 H1707 0.930 . S
C1717 C1710 1.409 . S
C1717 C1716 1.362 . S
H1718 C1724 0.930 . S
H1719 C1727 0.930 . S
H1720 C1728 0.930 . S
H1721 C1729 0.930 . S
H1722 C1732 0.930 . S
H1723 C1733 0.930 . S
C1724 H1718 0.930 . S
C1724 C1725 1.355 . S
C1724 C1726 1.415 . S
C1725 C1724 1.355 . S
C1725 C1727 1.419 . S
C1726 C1724 1.415 . S
C1726 C1731 1.425 . S
C1726 C1733 1.409 . S
C1727 H1719 0.930 . S
C1727 C1725 1.419 . S
C1727 C1728 1.362 . S
C1728 H1720 0.930 . S
C1728 C1727 1.362 . S
C1728 C1731 1.409 . S
C1729 H1721 0.930 . S
C1729 C1730 1.355 . S
C1729 C1731 1.415 . S
C1730 C1729 1.355 . S
C1730 C1732 1.419 . S
C1731 C1726 1.425 . S
C1731 C1728 1.409 . S
C1731 C1729 1.415 . S
C1732 H1722 0.930 . S
C1732 C1730 1.419 . S
C1732 C1733 1.362 . S
C1733 H1723 0.930 . S
C1733 C1726 1.409 . S
C1733 C1732 1.362 . S
H1734 C1740 0.930 . S
H1735 C1743 0.930 . S
H1736 C1744 0.930 . S
H1737 C1745 0.930 . S
H1738 C1748 0.930 . S
H1739 C1749 0.930 . S
C1740 H1734 0.930 . S
C1740 C1741 1.355 . S
C1740 C1742 1.415 . S
C1741 C1740 1.355 . S
C1741 C1743 1.419 . S
C1742 C1740 1.415 . S
C1742 C1747 1.425 . S
C1742 C1749 1.409 . S
C1743 H1735 0.930 . S
C1743 C1741 1.419 . S
C1743 C1744 1.362 . S
C1744 H1736 0.930 . S
C1744 C1743 1.362 . S
C1744 C1747 1.409 . S
C1745 H1737 0.930 . S
C1745 C1746 1.355 . S
C1745 C1747 1.415 . S
C1746 C1745 1.355 . S
C1746 C1748 1.419 . S
C1747 C1742 1.425 . S
C1747 C1744 1.409 . S
C1747 C1745 1.415 . S
C1748 H1738 0.930 . S
C1748 C1746 1.419 . S
C1748 C1749 1.362 . S
C1749 H1739 0.930 . S
C1749 C1742 1.409 . S
C1749 C1748 1.362 . S
H1750 C1756 0.930 . S
H1751 C1759 0.930 . S
H1752 C1760 0.930 . S
H1753 C1761 0.930 . S
H1754 C1764 0.930 . S
H1755 C1765 0.930 . S
C1756 H1750 0.930 . S
C1756 C1757 1.355 . S
C1756 C1758 1.415 . S
C1757 C1756 1.355 . S
C1757 C1759 1.419 . S
C1758 C1756 1.415 . S
C1758 C1763 1.425 . S
C1758 C1765 1.409 . S
C1759 H1751 0.930 . S
C1759 C1757 1.419 . S
C1759 C1760 1.362 . S
C1760 H1752 0.930 . S
C1760 C1759 1.362 . S
C1760 C1763 1.409 . S
C1761 H1753 0.930 . S
C1761 C1762 1.355 . S
C1761 C1763 1.415 . S
C1762 C1761 1.355 . S
C1762 C1764 1.419 . S
C1763 C1758 1.425 . S
C1763 C1760 1.409 . S
C1763 C1761 1.415 . S
C1764 H1754 0.930 . S
C1764 C1762 1.419 . S
C1764 C1765 1.362 . S
C1765 H1755 0.930 . S
C1765 C1758 1.409 . S
C1765 C1764 1.362 . S
H1766 C1772 0.930 . S
H1767 C1775 0.930 . S
H1768 C1776 0.930 . S
H1769 C1777 0.930 . S
H1770 C1780 0.930 . S
H1771 C1781 0.930 . S
C1772 H1766 0.930 . S
C1772 C1773 1.355 . S
C1772 C1774 1.415 . S
C1773 C1772 1.355 . S
C1773 C1775 1.419 . S
C1774 C1772 1.415 . S
C1774 C1779 1.425 . S
C1774 C1781 1.409 . S
C1775 H1767 0.930 . S
C1775 C1773 1.419 . S
C1775 C1776 1.362 . S
C1776 H1768 0.930 . S
C1776 C1775 1.362 . S
C1776 C1779 1.409 . S
C1777 H1769 0.930 . S
C1777 C1778 1.355 . S
C1777 C1779 1.415 . S
C1778 C1777 1.355 . S
C1778 C1780 1.419 . S
C1779 C1774 1.425 . S
C1779 C1776 1.409 . S
C1779 C1777 1.415 . S
C1780 H1770 0.930 . S
C1780 C1778 1.419 . S
C1780 C1781 1.362 . S
C1781 H1771 0.930 . S
C1781 C1774 1.409 . S
C1781 C1780 1.362 . S
H1782 C1788 0.930 . S
H1783 C1791 0.930 . S
H1784 C1792 0.930 . S
H1785 C1793 0.930 . S
H1786 C1796 0.930 . S
H1787 C1797 0.930 . S
C1788 H1782 0.930 . S
C1788 C1789 1.355 . S
C1788 C1790 1.415 . S
C1789 C1788 1.355 . S
C1789 C1791 1.419 . S
C1790 C1788 1.415 . S
C1790 C1795 1.425 . S
C1790 C1797 1.409 . S
C1791 H1783 0.930 . S
C1791 C1789 1.419 . S
C1791 C1792 1.362 . S
C1792 H1784 0.930 . S
C1792 C1791 1.362 . S
C1792 C1795 1.409 . S
C1793 H1785 0.930 . S
C1793 C1794 1.355 . S
C1793 C1795 1.415 . S
C1794 C1793 1.355 . S
C1794 C1796 1.419 . S
C1795 C1790 1.425 . S
C1795 C1792 1.409 . S
C1795 C1793 1.415 . S
C1796 H1786 0.930 . S
C1796 C1794 1.419 . S
C1796 C1797 1.362 . S
C1797 H1787 0.930 . S
C1797 C1790 1.409 . S
C1797 C1796 1.362 . S
H1798 C1804 0.930 . S
H1799 C1807 0.930 . S
H1800 C1808 0.930 . S
H1801 C1809 0.930 . S
H1802 C1812 0.930 . S
H1803 C1813 0.930 . S
C1804 H1798 0.930 . S
C1804 C1805 1.355 . S
C1804 C1806 1.415 . S
C1805 C1804 1.355 . S
C1805 C1807 1.419 . S
C1806 C1804 1.415 . S
C1806 C1811 1.425 . S
C1806 C1813 1.409 . S
C1807 H1799 0.930 . S
C1807 C1805 1.419 . S
C1807 C1808 1.362 . S
C1808 H1800 0.930 . S
C1808 C1807 1.362 . S
C1808 C1811 1.409 . S
C1809 H1801 0.930 . S
C1809 C1810 1.355 . S
C1809 C1811 1.415 . S
C1810 C1809 1.355 . S
C1810 C1812 1.419 . S
C1811 C1806 1.425 . S
C1811 C1808 1.409 . S
C1811 C1809 1.415 . S
C1812 H1802 0.930 . S
C1812 C1810 1.419 . S
C1812 C1813 1.362 . S
C1813 H1803 0.930 . S
C1813 C1806 1.409 . S
C1813 C1812 1.362 . S
H1814 C1820 0.930 . S
H1815 C1823 0.930 . S
H1816 C1824 0.930 . S
H1817 C1825 0.930 . S
H1818 C1828 0.930 . S
H1819 C1829 0.930 . S
C1820 H1814 0.930 . S
C1820 C1821 1.355 . S
C1820 C1822 1.415 . S
C1821 C1820 1.355 . S
C1821 C1823 1.419 . S
C1822 C1820 1.415 . S
C1822 C1827 1.425 . S
C1822 C1829 1.409 . S
C1823 H1815 0.930 . S
C1823 C1821 1.419 . S
C1823 C1824 1.362 . S
C1824 H1816 0.930 . S
C1824 C1823 1.362 . S
C1824 C1827 1.409 . S
C1825 H1817 0.930 . S
C1825 C1826 1.355 . S
C1825 C1827 1.415 . S
C1826 C1825 1.355 . S
C1826 C1828 1.419 . S
C1827 C1822 1.425 . S
C1827 C1824 1.409 . S
C1827 C1825 1.415 . S
C1828 H1818 0.930 . S
C1828 C1826 1.419 . S
C1828 C1829 1.362 . S
C1829 H1819 0.930 . S
C1829 C1822 1.409 . S
C1829 C1828 1.362 . S
H1830 C1836 0.930 . S
H1831 C1839 0.930 . S
H1832 C1840 0.930 . S
H1833 C1841 0.930 . S
H1834 C1844 0.930 . S
H1835 C1845 0.930 . S
C1836 H1830 0.930 . S
C1836 C1837 1.355 . S
C1836 C1838 1.415 . S
C1837 C1836 1.355 . S
C1837 C1839 1.419 . S
C1838 C1836 1.415 . S
C1838 C1843 1.425 . S
C1838 C1845 1.409 . S
C1839 H1831 0.930 . S
C1839 C1837 1.419 . S
C1839 C1840 1.362 . S
C1840 H1832 0.930 . S
C1840 C1839 1.362 . S
C1840 C1843 1.409 . S
C1841 H1833 0.930 . S
C1841 C1842 1.355 . S
C1841 C1843 1.415 . S
C1842 C1841 1.355 . S
C1842 C1844 1.419 . S
C1843 C1838 1.425 . S
C1843 C1840 1.409 . S
C1843 C1841 1.415 . S
C1844 H1834 0.930 . S
C1844 C1842 1.419 . S
C1844 C1845 1.362 . S
C1845 H1835 0.930 . S
C1845 C1838 1.409 . S
C1845 C1844 1.362 . S
H1846 C1852 0.930 . S
H1847 C1855 0.930 . S
H1848 C1856 0.930 . S
H1849 C1857 0.930 . S
H1850 C1860 0.930 . S
H1851 C1861 0.930 . S
C1852 H1846 0.930 . S
C1852 C1853 1.355 . S
C1852 C1854 1.415 . S
C1853 C1852 1.355 . S
C1853 C1855 1.419 . S
C1854 C1852 1.415 . S
C1854 C1859 1.425 . S
C1854 C1861 1.409 . S
C1855 H1847 0.930 . S
C1855 C1853 1.419 . S
C1855 C1856 1.362 . S
C1856 H1848 0.930 . S
C1856 C1855 1.362 . S
C1856 C1859 1.409 . S
C1857 H1849 0.930 . S
C1857 C1858 1.355 . S
C1857 C1859 1.415 . S
C1858 C1857 1.355 . S
C1858 C1860 1.419 . S
C1859 C1854 1.425 . S
C1859 C1856 1.409 . S
C1859 C1857 1.415 . S
C1860 H1850 0.930 . S
C1860 C1858 1.419 . S
C1860 C1861 1.362 . S
C1861 H1851 0.930 . S
C1861 C1854 1.409 . S
C1861 C1860 1.362 . S
H1862 C1868 0.930 . S
H1863 C1871 0.930 . S
H1864 C1872 0.930 . S
H1865 C1873 0.930 . S
H1866 C1876 0.930 . S
H1867 C1877 0.930 . S
C1868 H1862 0.930 . S
C1868 C1869 1.355 . S
C1868 C1870 1.415 . S
C1869 C1868 1.355 . S
C1869 C1871 1.419 . S
C1870 C1868 1.415 . S
C1870 C1875 1.425 . S
C1870 C1877 1.409 . S
C1871 H1863 0.930 . S
C1871 C1869 1.419 . S
C1871 C1872 1.362 . S
C1872 H1864 0.930 . S
C1872 C1871 1.362 . S
C1872 C1875 1.409 . S
C1873 H1865 0.930 . S
C1873 C1874 1.355 . S
C1873 C1875 1.415 . S
C1874 C1873 1.355 . S
C1874 C1876 1.419 . S
C1875 C1870 1.425 . S
C1875 C1872 1.409 . S
C1875 C1873 1.415 . S
C1876 H1866 0.930 . S
C1876 C1874 1.419 . S
C1876 C1877 1.362 . S
C1877 H1867 0.930 . S
C1877 C1870 1.409 . S
C1877 C1876 1.362 . S
H1878 C1884 0.930 . S
H1879 C1887 0.930 . S
H1880 C1888 0.930 . S
H1881 C1889 0.930 . S
H1882 C1892 0.930 . S
H1883 C1893 0.930 . S
C1884 H1878 0.930 . S
C1884 C1885 1.355 . S
C1884 C1886 1.415 . S
C1885 C1884 1.355 . S
C1885 C1887 1.419 . S
C1886 C1884 1.415 . S
C1886 C1891 1.425 . S
C1886 C1893 1.409 . S
C1887 H1879 0.930 . S
C1887 C1885 1.419 . S
C1887 C1888 1.362 . S
C1888 H1880 0.930 . S
C1888 C1887 1.362 . S
C1888 C1891 1.409 . S
C1889 H1881 0.930 . S
C1889 C1890 1.355 . S
C1889 C1891 1.415 . S
C1890 C1889 1.355 . S
C1890 C1892 1.419 . S
C1891 C1886 1.425 . S
C1891 C1888 1.409 . S
C1891 C1889 1.415 . S
C1892 H1882 0.930 . S
C1892 C1890 1.419 . S
C1892 C1893 1.362 . S
C1893 H1883 0.930 . S
C1893 C1886 1.409 . S
C1893 C1892 1.362 . S
H1894 C1900 0.930 . S
H1895 C1903 0.930 . S
H1896 C1904 0.930 . S
H1897 C1905 0.930 . S
H1898 C1908 0.930 . S
H1899 C1909 0.930 . S
C1900 H1894 0.930 . S
C1900 C1901 1.355 . S
C1900 C1902 1.415 . S
C1901 C1900 1.355 . S
C1901 C1903 1.419 . S
C1902 C1900 1.415 . S
C1902 C1907 1.425 . S
C1902 C1909 1.409 . S
C1903 H1895 0.930 . S
C1903 C1901 1.419 . S
C1903 C1904 1.362 . S
C1904 H1896 0.930 . S
C1904 C1903 1.362 . S
C1904 C1907 1.409 . S
C1905 H1897 0.930 . S
C1905 C1906 1.355 . S
C1905 C1907 1.415 . S
C1906 C1905 1.355 . S
C1906 C1908 1.419 . S
C1907 C1902 1.425 . S
C1907 C1904 1.409 . S
C1907 C1905 1.415 . S
C1908 H1898 0.930 . S
C1908 C1906 1.419 . S
C1908 C1909 1.362 . S
C1909 H1899 0.930 . S
C1909 C1902 1.409 . S
C1909 C1908 1.362 . S
H1910 C1916 0.930 . S
H1911 C1919 0.930 . S
H1912 C1920 0.930 . S
H1913 C1921 0.930 . S
H1914 C1924 0.930 . S
H1915 C1925 0.930 . S
C1916 H1910 0.930 . S
C1916 C1917 1.355 . S
C1916 C1918 1.415 . S
C1917 C1916 1.355 . S
C1917 C1919 1.419 . S
C1918 C1916 1.415 . S
C1918 C1923 1.425 . S
C1918 C1925 1.409 . S
C1919 H1911 0.930 . S
C1919 C1917 1.419 . S
C1919 C1920 1.362 . S
C1920 H1912 0.930 . S
C1920 C1919 1.362 . S
C1920 C1923 1.409 . S
C1921 H1913 0.930 . S
C1921 C1922 1.355 . S
C1921 C1923 1.415 . S
C1922 C1921 1.355 . S
C1922 C1924 1.419 . S
C1923 C1918 1.425 . S
C1923 C1920 1.409 . S
C1923 C1921 1.415 . S
C1924 H1914 0.930 . S
C1924 C1922 1.419 . S
C1924 C1925 1.362 . S
C1925 H1915 0.930 . S
C1925 C1918 1.409 . S
C1925 C1924 1.362 . S
H1926 C1932 0.930 . S
H1927 C1935 0.930 . S
H1928 C1936 0.930 . S
H1929 C1937 0.930 . S
H1930 C1940 0.930 . S
H1931 C1941 0.930 . S
C1932 H1926 0.930 . S
C1932 C1933 1.355 . S
C1932 C1934 1.415 . S
C1933 C1932 1.355 . S
C1933 C1935 1.419 . S
C1934 C1932 1.415 . S
C1934 C1939 1.425 . S
C1934 C1941 1.409 . S
C1935 H1927 0.930 . S
C1935 C1933 1.419 . S
C1935 C1936 1.362 . S
C1936 H1928 0.930 . S
C1936 C1935 1.362 . S
C1936 C1939 1.409 . S
C1937 H1929 0.930 . S
C1937 C1938 1.355 . S
C1937 C1939 1.415 . S
C1938 C1937 1.355 . S
C1938 C1940 1.419 . S
C1939 C1934 1.425 . S
C1939 C1936 1.409 . S
C1939 C1937 1.415 . S
C1940 H1930 0.930 . S
C1940 C1938 1.419 . S
C1940 C1941 1.362 . S
C1941 H1931 0.930 . S
C1941 C1934 1.409 . S
C1941 C1940 1.362 . S
H1942 C1948 0.930 . S
H1943 C1951 0.930 . S
H1944 C1952 0.930 . S
H1945 C1953 0.930 . S
H1946 C1956 0.930 . S
H1947 C1957 0.930 . S
C1948 H1942 0.930 . S
C1948 C1949 1.355 . S
C1948 C1950 1.415 . S
C1949 C1948 1.355 . S
C1949 C1951 1.419 . S
C1950 C1948 1.415 . S
C1950 C1955 1.425 . S
C1950 C1957 1.409 . S
C1951 H1943 0.930 . S
C1951 C1949 1.419 . S
C1951 C1952 1.362 . S
C1952 H1944 0.930 . S
C1952 C1951 1.362 . S
C1952 C1955 1.409 . S
C1953 H1945 0.930 . S
C1953 C1954 1.355 . S
C1953 C1955 1.415 . S
C1954 C1953 1.355 . S
C1954 C1956 1.419 . S
C1955 C1950 1.425 . S
C1955 C1952 1.409 . S
C1955 C1953 1.415 . S
C1956 H1946 0.930 . S
C1956 C1954 1.419 . S
C1956 C1957 1.362 . S
C1957 H1947 0.930 . S
C1957 C1950 1.409 . S
C1957 C1956 1.362 . S
H1958 C1964 0.930 . S
H1959 C1967 0.930 . S
H1960 C1968 0.930 . S
H1961 C1969 0.930 . S
H1962 C1972 0.930 . S
H1963 C1973 0.930 . S
C1964 H1958 0.930 . S
C1964 C1965 1.355 . S
C1964 C1966 1.415 . S
C1965 C1964 1.355 . S
C1965 C1967 1.419 . S
C1966 C1964 1.415 . S
C1966 C1971 1.425 . S
C1966 C1973 1.409 . S
C1967 H1959 0.930 . S
C1967 C1965 1.419 . S
C1967 C1968 1.362 . S
C1968 H1960 0.930 . S
C1968 C1967 1.362 . S
C1968 C1971 1.409 . S
C1969 H1961 0.930 . S
C1969 C1970 1.355 . S
C1969 C1971 1.415 . S
C1970 C1969 1.355 . S
C1970 C1972 1.419 . S
C1971 C1966 1.425 . S
C1971 C1968 1.409 . S
C1971 C1969 1.415 . S
C1972 H1962 0.930 . S
C1972 C1970 1.419 . S
C1972 C1973 1.362 . S
C1973 H1963 0.930 . S
C1973 C1966 1.409 . S
C1973 C1972 1.362 . S
H1974 C1980 0.930 . S
H1975 C1983 0.930 . S
H1976 C1984 0.930 . S
H1977 C1985 0.930 . S
H1978 C1988 0.912 1_554 S
H1979 C1989 0.930 . S
C1980 H1974 0.930 . S
C1980 C1981 1.355 1_554 S
C1980 C1982 1.415 1_554 S
C1981 C1980 1.355 1_556 S
C1981 C1983 1.419 . S
C1982 C1980 1.415 1_556 S
C1982 C1987 1.425 . S
C1982 C1989 1.409 1_556 S
C1983 H1975 0.930 . S
C1983 C1981 1.419 . S
C1983 C1984 1.362 . S
C1984 H1976 0.930 . S
C1984 C1983 1.362 . S
C1984 C1987 1.409 . S
C1985 H1977 0.930 . S
C1985 C1986 1.355 . S
C1985 C1987 1.415 . S
C1986 C1985 1.355 . S
C1986 C1988 1.454 . S
C1987 C1982 1.425 . S
C1987 C1984 1.409 . S
C1987 C1985 1.415 . S
C1988 H1978 0.912 1_556 S
C1988 C1986 1.454 . S
C1988 C1989 1.346 1_556 S
C1989 H1979 0.930 . S
C1989 C1982 1.409 1_554 S
C1989 C1988 1.346 1_554 S
H1990 C1996 0.930 . S
H1991 C1999 0.930 . S
H1992 C2000 0.930 . S
H1993 C2001 0.930 . S
H1994 C2004 0.926 1_554 S
H1995 C2005 0.930 . S
C1996 H1990 0.930 . S
C1996 C1997 1.355 1_554 S
C1996 C1998 1.415 1_554 S
C1997 C1996 1.355 1_556 S
C1997 C1999 1.419 . S
C1998 C1996 1.415 1_556 S
C1998 C2003 1.425 . S
C1998 C2005 1.409 1_556 S
C1999 H1991 0.930 . S
C1999 C1997 1.419 . S
C1999 C2000 1.362 . S
C2000 H1992 0.930 . S
C2000 C1999 1.362 . S
C2000 C2003 1.409 . S
C2001 H1993 0.930 . S
C2001 C2002 1.355 . S
C2001 C2003 1.415 . S
C2002 C2001 1.355 . S
C2002 C2004 1.425 . S
C2003 C1998 1.425 . S
C2003 C2000 1.409 . S
C2003 C2001 1.415 . S
C2004 H1994 0.926 1_556 S
C2004 C2002 1.425 . S
C2004 C2005 1.360 1_556 S
C2005 H1995 0.930 . S
C2005 C1998 1.409 1_554 S
C2005 C2004 1.360 1_554 S
H2006 C2012 0.930 . S
H2007 C2015 0.930 . S
H2008 C2016 0.930 . S
H2009 C2017 0.930 . S
H2010 C2020 0.930 . S
H2011 C2021 0.930 . S
C2012 H2006 0.930 . S
C2012 C2013 1.355 . S
C2012 C2014 1.415 . S
C2013 C2012 1.355 . S
C2013 C2015 1.419 . S
C2014 C2012 1.415 . S
C2014 C2019 1.425 . S
C2014 C2021 1.409 . S
C2015 H2007 0.930 . S
C2015 C2013 1.419 . S
C2015 C2016 1.362 . S
C2016 H2008 0.930 . S
C2016 C2015 1.362 . S
C2016 C2019 1.409 . S
C2017 H2009 0.930 . S
C2017 C2018 1.355 . S
C2017 C2019 1.415 . S
C2018 C2017 1.355 . S
C2018 C2020 1.419 . S
C2019 C2014 1.425 . S
C2019 C2016 1.409 . S
C2019 C2017 1.415 . S
C2020 H2010 0.930 . S
C2020 C2018 1.419 . S
C2020 C2021 1.362 . S
C2021 H2011 0.930 . S
C2021 C2014 1.409 . S
C2021 C2020 1.362 . S
H2022 C2028 0.930 . S
H2023 C2031 0.930 . S
H2024 C2032 0.930 . S
H2025 C2033 0.930 . S
H2026 C2036 0.930 . S
H2027 C2037 0.930 . S
C2028 H2022 0.930 . S
C2028 C2029 1.355 . S
C2028 C2030 1.415 . S
C2029 C2028 1.355 . S
C2029 C2031 1.419 . S
C2030 C2028 1.415 . S
C2030 C2035 1.425 . S
C2030 C2037 1.409 . S
C2031 H2023 0.930 . S
C2031 C2029 1.419 . S
C2031 C2032 1.362 . S
C2032 H2024 0.930 . S
C2032 C2031 1.362 . S
C2032 C2035 1.409 . S
C2033 H2025 0.930 . S
C2033 C2034 1.355 . S
C2033 C2035 1.415 . S
C2034 C2033 1.355 . S
C2034 C2036 1.419 . S
C2035 C2030 1.425 . S
C2035 C2032 1.409 . S
C2035 C2033 1.415 . S
C2036 H2026 0.930 . S
C2036 C2034 1.419 . S
C2036 C2037 1.362 . S
C2037 H2027 0.930 . S
C2037 C2030 1.409 . S
C2037 C2036 1.362 . S
H2038 C2044 0.931 1_554 S
H2039 C2047 0.930 . S
H2040 C2048 0.930 . S
H2041 C2049 0.930 . S
H2042 C2052 0.930 1_554 S
H2043 C2053 0.930 . S
C2044 H2038 0.931 1_556 S
C2044 C2045 1.354 . S
C2044 C2046 1.414 . S
C2045 C2044 1.354 . S
C2045 C2047 1.419 . S
C2046 C2044 1.414 . S
C2046 C2051 1.425 . S
C2046 C2053 1.409 1_556 S
C2047 H2039 0.930 . S
C2047 C2045 1.419 . S
C2047 C2048 1.362 . S
C2048 H2040 0.930 . S
C2048 C2047 1.362 . S
C2048 C2051 1.409 . S
C2049 H2041 0.930 . S
C2049 C2050 1.355 . S
C2049 C2051 1.415 . S
C2050 C2049 1.355 . S
C2050 C2052 1.419 . S
C2051 C2046 1.425 . S
C2051 C2048 1.409 . S
C2051 C2049 1.415 . S
C2052 H2042 0.930 1_556 S
C2052 C2050 1.419 . S
C2052 C2053 1.362 1_556 S
C2053 H2043 0.930 . S
C2053 C2046 1.409 1_554 S
C2053 C2052 1.362 1_554 S
H2054 C2060 0.930 . S
H2055 C2063 0.930 . S
H2056 C2064 0.930 . S
H2057 C2065 0.930 . S
H2058 C2068 0.930 1_554 S
H2059 C2069 0.930 . S
C2060 H2054 0.930 . S
C2060 C2061 1.355 1_554 S
C2060 C2062 1.415 1_554 S
C2061 C2060 1.355 1_556 S
C2061 C2063 1.419 . S
C2062 C2060 1.415 1_556 S
C2062 C2067 1.425 . S
C2062 C2069 1.409 1_556 S
C2063 H2055 0.930 . S
C2063 C2061 1.419 . S
C2063 C2064 1.362 . S
C2064 H2056 0.930 . S
C2064 C2063 1.362 . S
C2064 C2067 1.409 . S
C2065 H2057 0.930 . S
C2065 C2066 1.355 . S
C2065 C2067 1.415 . S
C2066 C2065 1.355 . S
C2066 C2068 1.419 . S
C2067 C2062 1.425 . S
C2067 C2064 1.409 . S
C2067 C2065 1.415 . S
C2068 H2058 0.930 1_556 S
C2068 C2066 1.419 . S
C2068 C2069 1.362 1_556 S
C2069 H2059 0.930 . S
C2069 C2062 1.409 1_554 S
C2069 C2068 1.362 1_554 S
H2070 C2076 0.930 . S
H2071 C2079 0.930 . S
H2072 C2080 0.930 . S
H2073 C2081 0.930 . S
H2074 C2084 0.930 . S
H2075 C2085 0.930 . S
C2076 H2070 0.930 . S
C2076 C2077 1.355 . S
C2076 C2078 1.415 . S
C2077 C2076 1.355 . S
C2077 C2079 1.419 . S
C2078 C2076 1.415 . S
C2078 C2083 1.425 . S
C2078 C2085 1.409 . S
C2079 H2071 0.930 . S
C2079 C2077 1.419 . S
C2079 C2080 1.362 . S
C2080 H2072 0.930 . S
C2080 C2079 1.362 . S
C2080 C2083 1.409 . S
C2081 H2073 0.930 . S
C2081 C2082 1.355 . S
C2081 C2083 1.415 . S
C2082 C2081 1.355 . S
C2082 C2084 1.419 . S
C2083 C2078 1.425 . S
C2083 C2080 1.409 . S
C2083 C2081 1.415 . S
C2084 H2074 0.930 . S
C2084 C2082 1.419 . S
C2084 C2085 1.362 . S
C2085 H2075 0.930 . S
C2085 C2078 1.409 . S
C2085 C2084 1.362 . S
H2086 C2092 0.930 . S
H2087 C2095 0.930 1_556 S
H2088 C2096 0.930 1_556 S
H2089 C2097 0.930 . S
H2090 C2100 0.930 . S
H2091 C2101 0.930 . S
C2092 H2086 0.930 . S
C2092 C2093 1.355 . S
C2092 C2094 1.415 . S
C2093 C2092 1.355 . S
C2093 C2095 1.419 . S
C2094 C2092 1.415 . S
C2094 C2099 1.425 . S
C2094 C2101 1.409 . S
C2095 H2087 0.930 1_554 S
C2095 C2093 1.419 . S
C2095 C2096 1.362 . S
C2096 H2088 0.930 1_554 S
C2096 C2095 1.362 . S
C2096 C2099 1.409 . S
C2097 H2089 0.930 . S
C2097 C2098 1.355 . S
C2097 C2099 1.415 . S
C2098 C2097 1.355 . S
C2098 C2100 1.419 . S
C2099 C2094 1.425 . S
C2099 C2096 1.409 . S
C2099 C2097 1.415 . S
C2100 H2090 0.930 . S
C2100 C2098 1.419 . S
C2100 C2101 1.362 . S
C2101 H2091 0.930 . S
C2101 C2094 1.409 . S
C2101 C2100 1.362 . S
H2102 C2108 0.930 . S
H2103 C2111 0.930 1_556 S
H2104 C2112 0.930 1_556 S
H2105 C2113 0.930 . S
H2106 C2116 0.930 . S
H2107 C2117 0.930 . S
C2108 H2102 0.930 . S
C2108 C2109 1.355 . S
C2108 C2110 1.415 . S
C2109 C2108 1.355 . S
C2109 C2111 1.419 . S
C2110 C2108 1.415 . S
C2110 C2115 1.425 . S
C2110 C2117 1.409 . S
C2111 H2103 0.930 1_554 S
C2111 C2109 1.419 . S
C2111 C2112 1.362 . S
C2112 H2104 0.930 1_554 S
C2112 C2111 1.362 . S
C2112 C2115 1.409 . S
C2113 H2105 0.930 . S
C2113 C2114 1.355 . S
C2113 C2115 1.415 . S
C2114 C2113 1.355 . S
C2114 C2116 1.419 . S
C2115 C2110 1.425 . S
C2115 C2112 1.409 . S
C2115 C2113 1.415 . S
C2116 H2106 0.930 . S
C2116 C2114 1.419 . S
C2116 C2117 1.362 . S
C2117 H2107 0.930 . S
C2117 C2110 1.409 . S
C2117 C2116 1.362 . S
H2118 C2124 0.930 . S
H2119 C2127 0.930 . S
H2120 C2128 0.930 . S
H2121 C2129 0.930 . S
H2122 C2132 0.930 . S
H2123 C2133 0.930 . S
C2124 H2118 0.930 . S
C2124 C2125 1.355 . S
C2124 C2126 1.415 . S
C2125 C2124 1.355 . S
C2125 C2127 1.419 . S
C2126 C2124 1.415 . S
C2126 C2131 1.425 . S
C2126 C2133 1.409 . S
C2127 H2119 0.930 . S
C2127 C2125 1.419 . S
C2127 C2128 1.362 . S
C2128 H2120 0.930 . S
C2128 C2127 1.362 . S
C2128 C2131 1.409 . S
C2129 H2121 0.930 . S
C2129 C2130 1.355 . S
C2129 C2131 1.415 . S
C2130 C2129 1.355 . S
C2130 C2132 1.419 . S
C2131 C2126 1.425 . S
C2131 C2128 1.409 . S
C2131 C2129 1.415 . S
C2132 H2122 0.930 . S
C2132 C2130 1.419 . S
C2132 C2133 1.362 . S
C2133 H2123 0.930 . S
C2133 C2126 1.409 . S
C2133 C2132 1.362 . S
H2134 C2140 0.930 . S
H2135 C2143 0.930 . S
H2136 C2144 0.930 . S
H2137 C2145 0.930 . S
H2138 C2148 0.930 . S
H2139 C2149 0.930 . S
C2140 H2134 0.930 . S
C2140 C2141 1.355 . S
C2140 C2142 1.415 . S
C2141 C2140 1.355 . S
C2141 C2143 1.419 . S
C2142 C2140 1.415 . S
C2142 C2147 1.425 . S
C2142 C2149 1.409 . S
C2143 H2135 0.930 . S
C2143 C2141 1.419 . S
C2143 C2144 1.362 . S
C2144 H2136 0.930 . S
C2144 C2143 1.362 . S
C2144 C2147 1.409 . S
C2145 H2137 0.930 . S
C2145 C2146 1.355 . S
C2145 C2147 1.415 . S
C2146 C2145 1.355 . S
C2146 C2148 1.419 . S
C2147 C2142 1.425 . S
C2147 C2144 1.409 . S
C2147 C2145 1.415 . S
C2148 H2138 0.930 . S
C2148 C2146 1.419 . S
C2148 C2149 1.362 . S
C2149 H2139 0.930 . S
C2149 C2142 1.409 . S
C2149 C2148 1.362 . S
H2150 C2156 0.930 . S
H2151 C2159 0.930 . S
H2152 C2160 0.930 . S
H2153 C2161 0.930 . S
H2154 C2164 0.930 . S
H2155 C2165 0.930 . S
C2156 H2150 0.930 . S
C2156 C2157 1.355 . S
C2156 C2158 1.415 . S
C2157 C2156 1.355 . S
C2157 C2159 1.419 . S
C2158 C2156 1.415 . S
C2158 C2163 1.425 . S
C2158 C2165 1.409 . S
C2159 H2151 0.930 . S
C2159 C2157 1.419 . S
C2159 C2160 1.362 . S
C2160 H2152 0.930 . S
C2160 C2159 1.362 . S
C2160 C2163 1.409 . S
C2161 H2153 0.930 . S
C2161 C2162 1.355 . S
C2161 C2163 1.415 . S
C2162 C2161 1.355 . S
C2162 C2164 1.419 . S
C2163 C2158 1.425 . S
C2163 C2160 1.409 . S
C2163 C2161 1.415 . S
C2164 H2154 0.930 . S
C2164 C2162 1.419 . S
C2164 C2165 1.362 . S
C2165 H2155 0.930 . S
C2165 C2158 1.409 . S
C2165 C2164 1.362 . S
H2166 C2172 0.930 . S
H2167 C2175 0.930 . S
H2168 C2176 0.930 . S
H2169 C2177 0.930 . S
H2170 C2180 0.930 . S
H2171 C2181 0.930 . S
C2172 H2166 0.930 . S
C2172 C2173 1.355 . S
C2172 C2174 1.415 . S
C2173 C2172 1.355 . S
C2173 C2175 1.419 . S
C2174 C2172 1.415 . S
C2174 C2179 1.425 . S
C2174 C2181 1.409 1_455 S
C2175 H2167 0.930 . S
C2175 C2173 1.419 . S
C2175 C2176 1.362 . S
C2176 H2168 0.930 . S
C2176 C2175 1.362 . S
C2176 C2179 1.409 . S
C2177 H2169 0.930 . S
C2177 C2178 1.355 . S
C2177 C2179 1.415 . S
C2178 C2177 1.355 . S
C2178 C2180 1.419 1_455 S
C2179 C2174 1.425 . S
C2179 C2176 1.409 . S
C2179 C2177 1.415 . S
C2180 H2170 0.930 . S
C2180 C2178 1.419 1_655 S
C2180 C2181 1.362 . S
C2181 H2171 0.930 . S
C2181 C2174 1.409 1_655 S
C2181 C2180 1.362 . S
H2182 C2188 0.930 . S
H2183 C2191 0.930 . S
H2184 C2192 0.930 . S
H2185 C2193 0.930 . S
H2186 C2196 0.930 . S
H2187 C2197 0.930 . S
C2188 H2182 0.930 . S
C2188 C2189 1.355 . S
C2188 C2190 1.415 . S
C2189 C2188 1.355 . S
C2189 C2191 1.419 . S
C2190 C2188 1.415 . S
C2190 C2195 1.425 . S
C2190 C2197 1.409 . S
C2191 H2183 0.930 . S
C2191 C2189 1.419 . S
C2191 C2192 1.362 . S
C2192 H2184 0.930 . S
C2192 C2191 1.362 . S
C2192 C2195 1.409 . S
C2193 H2185 0.930 . S
C2193 C2194 1.355 . S
C2193 C2195 1.415 . S
C2194 C2193 1.355 . S
C2194 C2196 1.419 . S
C2195 C2190 1.425 . S
C2195 C2192 1.409 . S
C2195 C2193 1.415 . S
C2196 H2186 0.930 . S
C2196 C2194 1.419 . S
C2196 C2197 1.362 . S
C2197 H2187 0.930 . S
C2197 C2190 1.409 . S
C2197 C2196 1.362 . S
H2198 C2204 0.930 . S
H2199 C2207 0.930 . S
H2200 C2208 0.930 . S
H2201 C2209 0.930 . S
H2202 C2212 0.930 . S
H2203 C2213 0.930 . S
C2204 H2198 0.930 . S
C2204 C2205 1.355 . S
C2204 C2206 1.415 . S
C2205 C2204 1.355 . S
C2205 C2207 1.419 . S
C2206 C2204 1.415 . S
C2206 C2211 1.425 . S
C2206 C2213 1.409 . S
C2207 H2199 0.930 . S
C2207 C2205 1.419 . S
C2207 C2208 1.362 . S
C2208 H2200 0.930 . S
C2208 C2207 1.362 . S
C2208 C2211 1.409 . S
C2209 H2201 0.930 . S
C2209 C2210 1.355 . S
C2209 C2211 1.415 . S
C2210 C2209 1.355 . S
C2210 C2212 1.419 . S
C2211 C2206 1.425 . S
C2211 C2208 1.409 . S
C2211 C2209 1.415 . S
C2212 H2202 0.930 . S
C2212 C2210 1.419 . S
C2212 C2213 1.362 . S
C2213 H2203 0.930 . S
C2213 C2206 1.409 . S
C2213 C2212 1.362 . S
H2214 C2220 0.930 . S
H2215 C2223 0.930 . S
H2216 C2224 0.930 . S
H2217 C2225 0.930 . S
H2218 C2228 0.930 . S
H2219 C2229 0.930 . S
C2220 H2214 0.930 . S
C2220 C2221 1.355 . S
C2220 C2222 1.415 . S
C2221 C2220 1.355 . S
C2221 C2223 1.419 . S
C2222 C2220 1.415 . S
C2222 C2227 1.425 . S
C2222 C2229 1.409 . S
C2223 H2215 0.930 . S
C2223 C2221 1.419 . S
C2223 C2224 1.362 . S
C2224 H2216 0.930 . S
C2224 C2223 1.362 . S
C2224 C2227 1.409 . S
C2225 H2217 0.930 . S
C2225 C2226 1.355 . S
C2225 C2227 1.415 . S
C2226 C2225 1.355 . S
C2226 C2228 1.419 . S
C2227 C2222 1.425 . S
C2227 C2224 1.409 . S
C2227 C2225 1.415 . S
C2228 H2218 0.930 . S
C2228 C2226 1.419 . S
C2228 C2229 1.362 . S
C2229 H2219 0.930 . S
C2229 C2222 1.409 . S
C2229 C2228 1.362 . S
H2230 C2236 0.930 . S
H2231 C2239 0.930 1_655 S
H2232 C2240 0.930 . S
H2233 C2241 0.944 . S
H2234 C2244 0.930 . S
H2235 C2245 0.930 . S
C2236 H2230 0.930 . S
C2236 C2237 1.355 . S
C2236 C2238 1.415 . S
C2237 C2236 1.355 . S
C2237 C2239 1.419 . S
C2238 C2236 1.415 . S
C2238 C2243 1.425 . S
C2238 C2245 1.409 . S
C2239 H2231 0.930 1_455 S
C2239 C2237 1.419 . S
C2239 C2240 1.362 1_455 S
C2240 H2232 0.930 . S
C2240 C2239 1.362 1_655 S
C2240 C2243 1.409 1_655 S
C2241 H2233 0.944 . S
C2241 C2242 1.335 1_655 S
C2241 C2243 1.420 1_655 S
C2242 C2241 1.335 1_455 S
C2242 C2244 1.419 . S
C2243 C2238 1.425 . S
C2243 C2240 1.409 1_455 S
C2243 C2241 1.420 1_455 S
C2244 H2234 0.930 . S
C2244 C2242 1.419 . S
C2244 C2245 1.362 . S
C2245 H2235 0.930 . S
C2245 C2238 1.409 . S
C2245 C2244 1.362 . S
H2246 C2252 0.930 . S
H2247 C2255 0.930 . S
H2248 C2256 0.930 . S
H2249 C2257 0.930 . S
H2250 C2260 0.930 . S
H2251 C2261 0.930 . S
C2252 H2246 0.930 . S
C2252 C2253 1.355 . S
C2252 C2254 1.415 . S
C2253 C2252 1.355 . S
C2253 C2255 1.419 . S
C2254 C2252 1.415 . S
C2254 C2259 1.425 . S
C2254 C2261 1.409 . S
C2255 H2247 0.930 . S
C2255 C2253 1.419 . S
C2255 C2256 1.362 . S
C2256 H2248 0.930 . S
C2256 C2255 1.362 . S
C2256 C2259 1.409 . S
C2257 H2249 0.930 . S
C2257 C2258 1.355 . S
C2257 C2259 1.415 . S
C2258 C2257 1.355 . S
C2258 C2260 1.419 . S
C2259 C2254 1.425 . S
C2259 C2256 1.409 . S
C2259 C2257 1.415 . S
C2260 H2250 0.930 . S
C2260 C2258 1.419 . S
C2260 C2261 1.362 . S
C2261 H2251 0.930 . S
C2261 C2254 1.409 . S
C2261 C2260 1.362 . S
H2262 C2268 0.930 . S
H2263 C2271 0.930 . S
H2264 C2272 0.930 . S
H2265 C2273 0.930 . S
H2266 C2276 0.930 . S
H2267 C2277 0.930 . S
C2268 H2262 0.930 . S
C2268 C2269 1.355 . S
C2268 C2270 1.415 . S
C2269 C2268 1.355 . S
C2269 C2271 1.419 . S
C2270 C2268 1.415 . S
C2270 C2275 1.425 . S
C2270 C2277 1.409 . S
C2271 H2263 0.930 . S
C2271 C2269 1.419 . S
C2271 C2272 1.362 . S
C2272 H2264 0.930 . S
C2272 C2271 1.362 . S
C2272 C2275 1.409 . S
C2273 H2265 0.930 . S
C2273 C2274 1.355 . S
C2273 C2275 1.415 . S
C2274 C2273 1.355 . S
C2274 C2276 1.419 . S
C2275 C2270 1.425 . S
C2275 C2272 1.409 . S
C2275 C2273 1.415 . S
C2276 H2266 0.930 . S
C2276 C2274 1.419 . S
C2276 C2277 1.362 . S
C2277 H2267 0.930 . S
C2277 C2270 1.409 . S
C2277 C2276 1.362 . S
H2278 C2284 0.930 . S
H2279 C2287 0.930 . S
H2280 C2288 0.930 . S
H2281 C2289 0.930 . S
H2282 C2292 0.930 . S
H2283 C2293 0.930 . S
C2284 H2278 0.930 . S
C2284 C2285 1.355 . S
C2284 C2286 1.415 . S
C2285 C2284 1.355 . S
C2285 C2287 1.419 . S
C2286 C2284 1.415 . S
C2286 C2291 1.425 . S
C2286 C2293 1.409 . S
C2287 H2279 0.930 . S
C2287 C2285 1.419 . S
C2287 C2288 1.362 . S
C2288 H2280 0.930 . S
C2288 C2287 1.362 . S
C2288 C2291 1.409 . S
C2289 H2281 0.930 . S
C2289 C2290 1.355 . S
C2289 C2291 1.415 . S
C2290 C2289 1.355 . S
C2290 C2292 1.419 . S
C2291 C2286 1.425 . S
C2291 C2288 1.409 . S
C2291 C2289 1.415 . S
C2292 H2282 0.930 . S
C2292 C2290 1.419 . S
C2292 C2293 1.362 . S
C2293 H2283 0.930 . S
C2293 C2286 1.409 . S
C2293 C2292 1.362 . S
H2294 C2300 0.930 . S
H2295 C2303 0.930 . S
H2296 C2304 0.930 . S
H2297 C2305 0.930 . S
H2298 C2308 0.930 . S
H2299 C2309 0.930 . S
C2300 H2294 0.930 . S
C2300 C2301 1.355 . S
C2300 C2302 1.415 . S
C2301 C2300 1.355 . S
C2301 C2303 1.419 . S
C2302 C2300 1.415 . S
C2302 C2307 1.425 . S
C2302 C2309 1.409 . S
C2303 H2295 0.930 . S
C2303 C2301 1.419 . S
C2303 C2304 1.362 . S
C2304 H2296 0.930 . S
C2304 C2303 1.362 . S
C2304 C2307 1.409 . S
C2305 H2297 0.930 . S
C2305 C2306 1.355 . S
C2305 C2307 1.415 . S
C2306 C2305 1.355 . S
C2306 C2308 1.419 . S
C2307 C2302 1.425 . S
C2307 C2304 1.409 . S
C2307 C2305 1.415 . S
C2308 H2298 0.930 . S
C2308 C2306 1.419 . S
C2308 C2309 1.362 . S
C2309 H2299 0.930 . S
C2309 C2302 1.409 . S
C2309 C2308 1.362 . S
H2310 C2316 0.930 . S
H2311 C2319 0.930 . S
H2312 C2320 0.930 . S
H2313 C2321 0.930 . S
H2314 C2324 0.930 . S
H2315 C2325 0.930 . S
C2316 H2310 0.930 . S
C2316 C2317 1.355 . S
C2316 C2318 1.415 . S
C2317 C2316 1.355 . S
C2317 C2319 1.419 . S
C2318 C2316 1.415 . S
C2318 C2323 1.425 . S
C2318 C2325 1.409 . S
C2319 H2311 0.930 . S
C2319 C2317 1.419 . S
C2319 C2320 1.362 . S
C2320 H2312 0.930 . S
C2320 C2319 1.362 . S
C2320 C2323 1.409 . S
C2321 H2313 0.930 . S
C2321 C2322 1.355 . S
C2321 C2323 1.415 . S
C2322 C2321 1.355 . S
C2322 C2324 1.419 . S
C2323 C2318 1.425 . S
C2323 C2320 1.409 . S
C2323 C2321 1.415 . S
C2324 H2314 0.930 . S
C2324 C2322 1.419 . S
C2324 C2325 1.362 . S
C2325 H2315 0.930 . S
C2325 C2318 1.409 . S
C2325 C2324 1.362 . S
H2326 C2332 0.930 . S
H2327 C2335 0.893 1_455 S
H2328 C2336 0.930 . S
H2329 C2337 0.930 1_455 S
H2330 C2340 0.930 . S
H2331 C2341 0.930 . S
C2332 H2326 0.930 . S
C2332 C2333 1.355 . S
C2332 C2334 1.415 . S
C2333 C2332 1.355 . S
C2333 C2335 1.419 . S
C2334 C2332 1.415 . S
C2334 C2339 1.425 . S
C2334 C2341 1.409 . S
C2335 H2327 0.893 1_655 S
C2335 C2333 1.419 . S
C2335 C2336 1.362 1_655 S
C2336 H2328 0.930 . S
C2336 C2335 1.362 1_455 S
C2336 C2339 1.409 1_455 S
C2337 H2329 0.930 1_655 S
C2337 C2338 1.355 . S
C2337 C2339 1.415 . S
C2338 C2337 1.355 . S
C2338 C2340 1.419 . S
C2339 C2334 1.425 . S
C2339 C2336 1.409 1_655 S
C2339 C2337 1.415 . S
C2340 H2330 0.930 . S
C2340 C2338 1.419 . S
C2340 C2341 1.362 . S
C2341 H2331 0.930 . S
C2341 C2334 1.409 . S
C2341 C2340 1.362 . S
H2342 C2348 0.930 . S
H2343 C2351 0.930 . S
H2344 C2352 0.930 . S
H2345 C2353 0.930 . S
H2346 C2356 0.930 . S
H2347 C2357 0.930 . S
C2348 H2342 0.930 . S
C2348 C2349 1.355 . S
C2348 C2350 1.415 . S
C2349 C2348 1.355 . S
C2349 C2351 1.419 . S
C2350 C2348 1.415 . S
C2350 C2355 1.425 . S
C2350 C2357 1.409 . S
C2351 H2343 0.930 . S
C2351 C2349 1.419 . S
C2351 C2352 1.362 . S
C2352 H2344 0.930 . S
C2352 C2351 1.362 . S
C2352 C2355 1.409 . S
C2353 H2345 0.930 . S
C2353 C2354 1.355 . S
C2353 C2355 1.415 . S
C2354 C2353 1.355 . S
C2354 C2356 1.419 . S
C2355 C2350 1.425 . S
C2355 C2352 1.409 . S
C2355 C2353 1.415 . S
C2356 H2346 0.930 . S
C2356 C2354 1.419 . S
C2356 C2357 1.362 . S
C2357 H2347 0.930 . S
C2357 C2350 1.409 . S
C2357 C2356 1.362 . S
H2358 C2364 0.930 . S
H2359 C2367 0.930 . S
H2360 C2368 0.930 . S
H2361 C2369 0.930 . S
H2362 C2372 0.930 . S
H2363 C2373 0.930 . S
C2364 H2358 0.930 . S
C2364 C2365 1.355 . S
C2364 C2366 1.415 . S
C2365 C2364 1.355 . S
C2365 C2367 1.419 . S
C2366 C2364 1.415 . S
C2366 C2371 1.425 . S
C2366 C2373 1.409 . S
C2367 H2359 0.930 . S
C2367 C2365 1.419 . S
C2367 C2368 1.362 . S
C2368 H2360 0.930 . S
C2368 C2367 1.362 . S
C2368 C2371 1.409 . S
C2369 H2361 0.930 . S
C2369 C2370 1.355 . S
C2369 C2371 1.415 . S
C2370 C2369 1.355 . S
C2370 C2372 1.419 . S
C2371 C2366 1.425 . S
C2371 C2368 1.409 . S
C2371 C2369 1.415 . S
C2372 H2362 0.930 . S
C2372 C2370 1.419 . S
C2372 C2373 1.362 . S
C2373 H2363 0.930 . S
C2373 C2366 1.409 . S
C2373 C2372 1.362 . S
H2374 C2380 0.930 . S
H2375 C2383 0.930 . S
H2376 C2384 0.930 . S
H2377 C2385 0.930 . S
H2378 C2388 0.930 . S
H2379 C2389 0.930 . S
C2380 H2374 0.930 . S
C2380 C2381 1.355 . S
C2380 C2382 1.415 . S
C2381 C2380 1.355 . S
C2381 C2383 1.419 . S
C2382 C2380 1.415 . S
C2382 C2387 1.425 . S
C2382 C2389 1.409 . S
C2383 H2375 0.930 . S
C2383 C2381 1.419 . S
C2383 C2384 1.362 . S
C2384 H2376 0.930 . S
C2384 C2383 1.362 . S
C2384 C2387 1.409 . S
C2385 H2377 0.930 . S
C2385 C2386 1.355 . S
C2385 C2387 1.415 . S
C2386 C2385 1.355 . S
C2386 C2388 1.419 . S
C2387 C2382 1.425 . S
C2387 C2384 1.409 . S
C2387 C2385 1.415 . S
C2388 H2378 0.930 . S
C2388 C2386 1.419 . S
C2388 C2389 1.362 . S
C2389 H2379 0.930 . S
C2389 C2382 1.409 . S
C2389 C2388 1.362 . S
H2390 C2396 0.930 . S
H2391 C2399 0.930 . S
H2392 C2400 0.930 . S
H2393 C2401 0.930 . S
H2394 C2404 0.930 . S
H2395 C2405 0.930 . S
C2396 H2390 0.930 . S
C2396 C2397 1.355 . S
C2396 C2398 1.415 . S
C2397 C2396 1.355 . S
C2397 C2399 1.419 . S
C2398 C2396 1.415 . S
C2398 C2403 1.425 . S
C2398 C2405 1.409 . S
C2399 H2391 0.930 . S
C2399 C2397 1.419 . S
C2399 C2400 1.362 . S
C2400 H2392 0.930 . S
C2400 C2399 1.362 . S
C2400 C2403 1.409 . S
C2401 H2393 0.930 . S
C2401 C2402 1.355 . S
C2401 C2403 1.415 . S
C2402 C2401 1.355 . S
C2402 C2404 1.419 . S
C2403 C2398 1.425 . S
C2403 C2400 1.409 . S
C2403 C2401 1.415 . S
C2404 H2394 0.930 . S
C2404 C2402 1.419 . S
C2404 C2405 1.362 . S
C2405 H2395 0.930 . S
C2405 C2398 1.409 . S
C2405 C2404 1.362 . S
H2406 C2412 0.930 . S
H2407 C2415 0.930 . S
H2408 C2416 0.930 . S
H2409 C2417 0.930 . S
H2410 C2420 0.930 . S
H2411 C2421 0.930 . S
C2412 H2406 0.930 . S
C2412 C2413 1.355 . S
C2412 C2414 1.415 . S
C2413 C2412 1.355 . S
C2413 C2415 1.419 . S
C2414 C2412 1.415 . S
C2414 C2419 1.425 . S
C2414 C2421 1.409 . S
C2415 H2407 0.930 . S
C2415 C2413 1.419 . S
C2415 C2416 1.362 . S
C2416 H2408 0.930 . S
C2416 C2415 1.362 . S
C2416 C2419 1.409 . S
C2417 H2409 0.930 . S
C2417 C2418 1.355 . S
C2417 C2419 1.415 . S
C2418 C2417 1.355 . S
C2418 C2420 1.419 . S
C2419 C2414 1.425 . S
C2419 C2416 1.409 . S
C2419 C2417 1.415 . S
C2420 H2410 0.930 . S
C2420 C2418 1.419 . S
C2420 C2421 1.362 . S
C2421 H2411 0.930 . S
C2421 C2414 1.409 . S
C2421 C2420 1.362 . S
H2422 C2428 0.930 . S
H2423 C2431 0.930 . S
H2424 C2432 0.930 . S
H2425 C2433 0.930 . S
H2426 C2436 0.930 . S
H2427 C2437 0.930 . S
C2428 H2422 0.930 . S
C2428 C2429 1.355 . S
C2428 C2430 1.415 . S
C2429 C2428 1.355 . S
C2429 C2431 1.419 . S
C2430 C2428 1.415 . S
C2430 C2435 1.425 . S
C2430 C2437 1.409 . S
C2431 H2423 0.930 . S
C2431 C2429 1.419 . S
C2431 C2432 1.362 . S
C2432 H2424 0.930 . S
C2432 C2431 1.362 . S
C2432 C2435 1.409 . S
C2433 H2425 0.930 . S
C2433 C2434 1.355 . S
C2433 C2435 1.415 . S
C2434 C2433 1.355 . S
C2434 C2436 1.419 . S
C2435 C2430 1.425 . S
C2435 C2432 1.409 . S
C2435 C2433 1.415 . S
C2436 H2426 0.930 . S
C2436 C2434 1.419 . S
C2436 C2437 1.362 . S
C2437 H2427 0.930 . S
C2437 C2430 1.409 . S
C2437 C2436 1.362 . S
H2438 C2444 0.930 . S
H2439 C2447 0.930 . S
H2440 C2448 0.930 . S
H2441 C2449 0.930 . S
H2442 C2452 0.930 . S
H2443 C2453 0.930 . S
C2444 H2438 0.930 . S
C2444 C2445 1.355 . S
C2444 C2446 1.415 . S
C2445 C2444 1.355 . S
C2445 C2447 1.419 . S
C2446 C2444 1.415 . S
C2446 C2451 1.425 . S
C2446 C2453 1.409 . S
C2447 H2439 0.930 . S
C2447 C2445 1.419 . S
C2447 C2448 1.362 . S
C2448 H2440 0.930 . S
C2448 C2447 1.362 . S
C2448 C2451 1.409 . S
C2449 H2441 0.930 . S
C2449 C2450 1.355 . S
C2449 C2451 1.415 . S
C2450 C2449 1.355 . S
C2450 C2452 1.419 . S
C2451 C2446 1.425 . S
C2451 C2448 1.409 . S
C2451 C2449 1.415 . S
C2452 H2442 0.930 . S
C2452 C2450 1.419 . S
C2452 C2453 1.362 . S
C2453 H2443 0.930 . S
C2453 C2446 1.409 . S
C2453 C2452 1.362 . S
H2454 C2460 0.930 . S
H2455 C2463 0.930 . S
H2456 C2464 0.930 . S
H2457 C2465 0.930 . S
H2458 C2468 0.930 . S
H2459 C2469 0.930 . S
C2460 H2454 0.930 . S
C2460 C2461 1.355 . S
C2460 C2462 1.415 . S
C2461 C2460 1.355 . S
C2461 C2463 1.419 . S
C2462 C2460 1.415 . S
C2462 C2467 1.425 . S
C2462 C2469 1.409 1_655 S
C2463 H2455 0.930 . S
C2463 C2461 1.419 . S
C2463 C2464 1.362 . S
C2464 H2456 0.930 . S
C2464 C2463 1.362 . S
C2464 C2467 1.409 . S
C2465 H2457 0.930 . S
C2465 C2466 1.355 . S
C2465 C2467 1.415 . S
C2466 C2465 1.355 . S
C2466 C2468 1.419 1_655 S
C2467 C2462 1.425 . S
C2467 C2464 1.409 . S
C2467 C2465 1.415 . S
C2468 H2458 0.930 . S
C2468 C2466 1.419 1_455 S
C2468 C2469 1.362 . S
C2469 H2459 0.930 . S
C2469 C2462 1.409 1_455 S
C2469 C2468 1.362 . S
H2470 C2476 0.930 . S
H2471 C2479 0.930 . S
H2472 C2480 0.930 . S
H2473 C2481 0.930 . S
H2474 C2484 0.930 . S
H2475 C2485 0.930 . S
C2476 H2470 0.930 . S
C2476 C2477 1.355 . S
C2476 C2478 1.415 . S
C2477 C2476 1.355 . S
C2477 C2479 1.419 . S
C2478 C2476 1.415 . S
C2478 C2483 1.425 . S
C2478 C2485 1.409 . S
C2479 H2471 0.930 . S
C2479 C2477 1.419 . S
C2479 C2480 1.362 . S
C2480 H2472 0.930 . S
C2480 C2479 1.362 . S
C2480 C2483 1.409 . S
C2481 H2473 0.930 . S
C2481 C2482 1.355 . S
C2481 C2483 1.415 . S
C2482 C2481 1.355 . S
C2482 C2484 1.419 . S
C2483 C2478 1.425 . S
C2483 C2480 1.409 . S
C2483 C2481 1.415 . S
C2484 H2474 0.930 . S
C2484 C2482 1.419 . S
C2484 C2485 1.362 . S
C2485 H2475 0.930 . S
C2485 C2478 1.409 . S
C2485 C2484 1.362 . S
H2486 C2492 0.930 . S
H2487 C2495 0.930 . S
H2488 C2496 0.930 . S
H2489 C2497 0.940 . S
H2490 C2500 0.930 . S
H2491 C2501 0.930 . S
C2492 H2486 0.930 . S
C2492 C2493 1.355 . S
C2492 C2494 1.415 . S
C2493 C2492 1.355 . S
C2493 C2495 1.419 . S
C2494 C2492 1.415 . S
C2494 C2499 1.425 . S
C2494 C2501 1.409 . S
C2495 H2487 0.930 . S
C2495 C2493 1.419 . S
C2495 C2496 1.362 . S
C2496 H2488 0.930 . S
C2496 C2495 1.362 . S
C2496 C2499 1.409 . S
C2497 H2489 0.940 . S
C2497 C2498 1.355 . S
C2497 C2499 1.415 . S
C2498 C2497 1.355 . S
C2498 C2500 1.419 . S
C2499 C2494 1.425 . S
C2499 C2496 1.409 . S
C2499 C2497 1.415 . S
C2500 H2490 0.930 . S
C2500 C2498 1.419 . S
C2500 C2501 1.362 . S
C2501 H2491 0.930 . S
C2501 C2494 1.409 . S
C2501 C2500 1.362 . S
C1357 C8 1.509 . S
C1362 C839 1.512 . S
C1373 C18 1.532 . S
C1378 C883 1.510 . S
C1394 C963 1.561 . S
C1389 C31 1.557 . S
C1405 C34 1.528 1_565 S
C1410 C1007 1.557 . S
C1421 C5 1.552 . S
C1426 C1087 1.576 . S
C1437 C21 1.538 . S
C1442 C1149 1.544 . S
C1453 C47 1.506 . S
C1458 C1069 1.501 . S
C1474 C1131 1.536 . S
C1469 C57 1.564 . S
C1490 C1025 1.569 . S
C1485 C70 1.544 . S
C1501 C73 1.575 . S
C1506 C945 1.562 . S
C1522 C821 1.532 . S
C1517 C44 1.532 . S
C1533 C60 1.594 . S
C1538 C901 1.601 . S
C1549 C86 1.585 . S
C1554 C1211 1.595 . S
C1565 C96 1.578 . S
C1570 C1255 1.540 . S
C1586 C1335 1.610 . S
C1581 C109 1.610 . S
C1597 C112 1.626 . S
C1602 C281 1.598 . S
C1613 C83 1.630 . S
C1618 C325 1.591 . S
C1629 C99 1.599 . S
C1634 C405 1.556 . S
C1645 C125 1.551 . S
C1650 C343 1.562 . S
C1661 C135 1.560 . S
C1666 C387 1.527 . S
C1682 C263 1.546 . S
C1677 C148 1.649 . S
C1698 C1317 1.640 . S
C1693 C151 1.695 . S
C1714 C1193 1.543 . S
C1709 C122 1.636 . S
C1730 C1273 1.613 . S
C1725 C138 1.600 . S
C1741 C164 1.569 . S
C1746 C467 1.582 . S
C1757 C174 1.585 . S
C1762 C529 1.518 . S
C1773 C187 1.633 . S
C1778 C573 1.638 . S
C1789 C190 1.699 . S
C1794 C635 1.704 . S
C1810 C697 1.635 . S
C1805 C161 1.645 . S
C1826 C777 1.619 . S
C1821 C177 1.610 . S
C1842 C715 1.648 . S
C1837 C203 1.642 . S
C1858 C759 1.585 . S
C1853 C213 1.561 . S
C1869 C226 1.638 . S
C1874 C653 1.583 . S
C1890 C591 1.633 . S
C1885 C229 1.633 . S
C1901 C200 1.598 . S
C1906 C449 1.597 . S
C1922 C511 1.556 . S
C1917 C216 1.589 . S
C1938 C287 1.404 . S
C1933 C0 1.434 . S
C1949 C23 1.444 . S
C1954 C331 1.398 . S
C1970 C411 1.383 . S
C1965 C36 1.447 . S
C1986 C473 1.427 . S
C1981 C26 1.402 1_556 S
C2002 C535 1.380 . S
C1997 C10 1.439 1_556 S
C2018 C579 1.417 . S
C2013 C13 1.435 1_556 S
C2029 C39 1.359 . S
C2034 C597 1.410 . S
C2045 C62 1.450 . S
C2050 C455 1.369 . S
C2061 C75 1.418 1_556 S
C2066 C517 1.366 . S
C2077 C65 1.486 . S
C2082 C349 1.455 . S
C2098 C393 1.272 . S
C2093 C49 1.407 . S
C2109 C52 1.376 . S
C2114 C269 1.313 . S
C2130 C641 1.432 . S
C2125 C78 1.422 . S
C2141 C101 1.463 . S
C2146 C703 1.374 . S
C2157 C114 1.475 1_655 S
C2162 C783 1.392 . S
C2178 C845 1.322 . S
C2173 C104 1.385 . S
C2189 C88 1.403 . S
C2194 C889 1.304 . S
C2205 C91 1.280 . S
C2210 C969 1.195 . S
C2221 C117 1.303 . S
C2226 C951 1.305 . S
C2237 C140 1.352 . S
C2242 C827 1.254 . S
C2258 C907 1.309 . S
C2253 C153 1.408 . S
C2269 C143 1.429 . S
C2274 C721 1.373 . S
C2285 C127 1.467 . S
C2290 C765 1.339 . S
C2306 C659 1.394 . S
C2301 C130 1.453 . S
C2322 C1013 1.346 . S
C2317 C156 1.314 . S
C2333 C179 1.352 . S
C2338 C1093 1.276 . S
C2349 C192 1.424 . S
C2354 C1155 1.370 . S
C2370 C1217 1.339 . S
C2365 C182 1.356 . S
C2386 C1261 1.418 . S
C2381 C166 1.483 1_565 S
C2397 C169 1.465 . S
C2402 C1341 1.437 . S
C2413 C195 1.383 . S
C2418 C1323 1.327 . S
C2429 C218 1.456 1_565 S
C2434 C1199 1.335 . S
C2450 C1279 1.387 . S
C2445 C231 1.454 1_455 S
C2466 C1075 1.278 . S
C2461 C221 1.356 . S
C2482 C1137 1.277 . S
C2477 C205 1.404 . S
C2493 C208 1.304 . S
C2498 C1031 1.331 . S
