# Generated by pormake.
# Topology zzz, (3,6)-cn, num edge types: 1
# Building blocks:
#     Node 0, Type 0, BuildingBlock: BETDAH_clean_linker_0, # of connection points: 3
#     Node 1, Type 0, BuildingBlock: BETDAH_clean_linker_0, # of connection points: 3
#     Node 2, Type 0, BuildingBlock: BETDAH_clean_linker_0, # of connection points: 3
#     Node 3, Type 0, BuildingBlock: BETDAH_clean_linker_0, # of connection points: 3
#     Node 4, Type 0, BuildingBlock: BETDAH_clean_linker_0, # of connection points: 3
#     Node 5, Type 0, BuildingBlock: BETDAH_clean_linker_0, # of connection points: 3
#     Node 6, Type 0, BuildingBlock: BETDAH_clean_linker_0, # of connection points: 3
#     Node 7, Type 0, BuildingBlock: BETDAH_clean_linker_0, # of connection points: 3
#     Node 8, Type 1, BuildingBlock: PAMTOO_clean_sbu_0, # of connection points: 6
#     Node 9, Type 1, BuildingBlock: PAMTOO_clean_sbu_0, # of connection points: 6
#     Node 10, Type 1, BuildingBlock: PAMTOO_clean_sbu_0, # of connection points: 6
#     Node 11, Type 1, BuildingBlock: PAMTOO_clean_sbu_0, # of connection points: 6
#     Edge 12, Type (0, 1), BuildingBlock: MIFKUJ_clean_linker_0, # of connection points: 2
#     Edge 13, Type (0, 1), BuildingBlock: MIFKUJ_clean_linker_0, # of connection points: 2
#     Edge 14, Type (0, 1), BuildingBlock: MIFKUJ_clean_linker_0, # of connection points: 2
#     Edge 15, Type (0, 1), BuildingBlock: MIFKUJ_clean_linker_0, # of connection points: 2
#     Edge 16, Type (0, 1), BuildingBlock: MIFKUJ_clean_linker_0, # of connection points: 2
#     Edge 17, Type (0, 1), BuildingBlock: MIFKUJ_clean_linker_0, # of connection points: 2
#     Edge 18, Type (0, 1), BuildingBlock: MIFKUJ_clean_linker_0, # of connection points: 2
#     Edge 19, Type (0, 1), BuildingBlock: MIFKUJ_clean_linker_0, # of connection points: 2
#     Edge 20, Type (0, 1), BuildingBlock: MIFKUJ_clean_linker_0, # of connection points: 2
#     Edge 21, Type (0, 1), BuildingBlock: MIFKUJ_clean_linker_0, # of connection points: 2
#     Edge 22, Type (0, 1), BuildingBlock: MIFKUJ_clean_linker_0, # of connection points: 2
#     Edge 23, Type (0, 1), BuildingBlock: MIFKUJ_clean_linker_0, # of connection points: 2
#     Edge 24, Type (0, 1), BuildingBlock: MIFKUJ_clean_linker_0, # of connection points: 2
#     Edge 25, Type (0, 1), BuildingBlock: MIFKUJ_clean_linker_0, # of connection points: 2
#     Edge 26, Type (0, 1), BuildingBlock: MIFKUJ_clean_linker_0, # of connection points: 2
#     Edge 27, Type (0, 1), BuildingBlock: MIFKUJ_clean_linker_0, # of connection points: 2
#     Edge 28, Type (0, 1), BuildingBlock: MIFKUJ_clean_linker_0, # of connection points: 2
#     Edge 29, Type (0, 1), BuildingBlock: MIFKUJ_clean_linker_0, # of connection points: 2
#     Edge 30, Type (0, 1), BuildingBlock: MIFKUJ_clean_linker_0, # of connection points: 2
#     Edge 31, Type (0, 1), BuildingBlock: MIFKUJ_clean_linker_0, # of connection points: 2
#     Edge 32, Type (0, 1), BuildingBlock: MIFKUJ_clean_linker_0, # of connection points: 2
#     Edge 33, Type (0, 1), BuildingBlock: MIFKUJ_clean_linker_0, # of connection points: 2
#     Edge 34, Type (0, 1), BuildingBlock: MIFKUJ_clean_linker_0, # of connection points: 2
#     Edge 35, Type (0, 1), BuildingBlock: MIFKUJ_clean_linker_0, # of connection points: 2
# Relax obj value: 0.187
# Max RMSD: 0.230
# Mean RMSD: 0.120
data_MOF--net-zzz--node1-PAMTOO_clean_sbu_0--node2-BETDAH_clean_linker_0--edge1-MIFKUJ_clean_linker_0
_symmetry_space_group_name_H-M    P1
_symmetry_Int_Tables_number       1
_symmetry_cell_setting            triclinic
loop_
_symmetry_equiv_pos_as_xyz
'x, y, z'
_cell_length_a     73.042278
_cell_length_b     64.559259
_cell_length_c     20.314539
_cell_angle_alpha  91.051098
_cell_angle_beta   81.649246
_cell_angle_gamma 86.333067
loop_
_atom_site_label
_atom_site_type_symbol
_atom_site_fract_x
_atom_site_fract_y
_atom_site_fract_z
_atom_type_partial_charge
H0 H 0.82377 0.54535 0.37815 0.0
H1 H 0.77177 0.53217 0.31858 0.0
H2 H 0.78422 0.51413 0.51166 0.0
C3 C 0.81004 0.53982 0.39039 0.0
C4 C 0.80542 0.5302 0.45118 0.0
C5 C 0.79821 0.54003 0.34191 0.0
C6 C 0.78073 0.53213 0.35667 0.0
C7 C 0.77531 0.5232 0.41856 0.0
C8 C 0.78793 0.52185 0.46518 0.0
N9 N 0.75772 0.51461 0.43346 0.0
C10 C 0.74465 0.51461 0.38949 0.0
H11 H 1.0047 0.77271 0.31465 0.0
H12 H 0.99945 0.70901 0.26359 0.0
H13 H 0.99738 0.72817 0.46976 0.0
C14 C 1.00259 0.75694 0.33024 0.0
C15 C 1.00113 0.75241 0.39791 0.0
C16 C 1.00195 0.74134 0.28213 0.0
C17 C 0.99976 0.7209 0.3016 0.0
C18 C 0.99793 0.71596 0.3695 0.0
C19 C 0.99846 0.73189 0.4176 0.0
N20 N 0.996 0.69515 0.39018 0.0
C21 C 0.99687 0.67839 0.34527 0.0
H22 H 0.72209 0.98662 0.20838 0.0
H23 H 0.77966 0.99349 0.1403 0.0
H24 H 0.76056 0.98629 0.34979 0.0
C25 C 0.73619 0.98695 0.21932 0.0
C26 C 0.73946 0.98574 0.28536 0.0
C27 C 0.75055 0.98979 0.16737 0.0
C28 C 0.7687 0.99109 0.18087 0.0
C29 C 0.77254 0.98944 0.24667 0.0
C30 C 0.75775 0.98718 0.29897 0.0
N31 N 0.79097 0.9902 0.26171 0.0
C32 C 0.80687 0.99062 0.21421 0.0
H33 H 0.52987 0.69076 0.22778 0.0
H34 H 0.53368 0.74528 0.1087 0.0
H35 H 0.54128 0.7484 0.31555 0.0
C36 C 0.53223 0.70712 0.22253 0.0
C37 C 0.53572 0.71843 0.27788 0.0
C38 C 0.53181 0.71645 0.16091 0.0
C39 C 0.53416 0.73789 0.1559 0.0
C40 C 0.53756 0.74951 0.21205 0.0
C41 C 0.53851 0.73958 0.27258 0.0
N42 N 0.54028 0.77109 0.21009 0.0
C43 C 0.53942 0.78356 0.15536 0.0
H44 H 0.20278 0.51359 0.1001 0.0
H45 H 0.25842 0.50957 0.14609 0.0
H46 H 0.24805 0.49297 0.94893 0.0
C47 C 0.21748 0.50971 0.0851 0.0
C48 C 0.22375 0.5026 0.01953 0.0
C49 C 0.22986 0.51228 0.13104 0.0
C50 C 0.2489 0.50787 0.11049 0.0
C51 C 0.25562 0.50094 0.04478 0.0
C52 C 0.24296 0.49851 0.99934 0.0
N53 N 0.27491 0.49604 0.02359 0.0
C54 C 0.28842 0.49691 0.06555 0.0
H55 H 0.02391 0.21712 0.13706 0.0
H56 H 0.02908 0.28117 0.18481 0.0
H57 H 0.02826 0.26145 0.98098 0.0
C58 C 0.02535 0.23293 0.12094 0.0
C59 C 0.02569 0.2373 0.05342 0.0
C60 C 0.02662 0.24863 0.1683 0.0
C61 C 0.02825 0.2691 0.14784 0.0
C62 C 0.02906 0.27381 0.07994 0.0
C63 C 0.02787 0.25781 0.033 0.0
N64 N 0.03092 0.29445 0.05768 0.0
C65 C 0.03176 0.31132 0.10057 0.0
H66 H 0.31849 0.98324 0.23674 0.0
H67 H 0.2605 0.98928 0.31366 0.0
H68 H 0.2798 0.01032 0.1167 0.0
C69 C 0.30441 0.98796 0.22968 0.0
C70 C 0.30118 0.99739 0.17038 0.0
C71 C 0.2899 0.98509 0.28127 0.0
C72 C 0.27162 0.9913 0.27329 0.0
C73 C 0.26783 1.00004 0.21324 0.0
C74 C 0.28268 0.00307 0.1621 0.0
N75 N 0.24938 0.00629 0.20313 0.0
C76 C 0.23338 0.00385 0.24854 0.0
H77 H 0.51379 0.31943 0.26792 0.0
H78 H 0.50185 0.26343 0.37148 0.0
H79 H 0.48557 0.27264 0.17767 0.0
C80 C 0.50854 0.30409 0.26849 0.0
C81 C 0.49998 0.29741 0.21534 0.0
C82 C 0.50919 0.29208 0.32486 0.0
C83 C 0.50162 0.2726 0.32745 0.0
C84 C 0.49339 0.26537 0.27337 0.0
C85 C 0.4923 0.27802 0.21834 0.0
N86 N 0.48554 0.24582 0.27314 0.0
C87 C 0.48903 0.22973 0.3151 0.0
Dy88 Dy 1.00897 0.00491 0.65564 0.0
Dy89 Dy 0.02775 0.98615 0.7792 0.0
C90 C 0.05261 0.99643 0.64479 0.0
O91 O 1.00297 0.97138 0.6515 0.0
O92 O 0.02581 0.95924 0.71028 0.0
O93 O 0.01137 0.0145 0.55351 0.0
O94 O 0.98532 0.01991 0.61849 0.0
O95 O 0.99759 0.98063 0.80243 0.0
O96 O 0.98708 0.00801 0.74597 0.0
O97 O 0.02132 0.01984 0.80652 0.0
O98 O 0.02195 0.03115 0.7002 0.0
O99 O 0.02751 0.97971 0.88337 0.0
O100 O 0.05122 0.96925 0.81104 0.0
C101 C 0.01318 0.95596 0.67206 0.0
O102 O 0.03816 0.99318 0.61521 0.0
O103 O 0.05053 0.99924 0.70966 0.0
C104 C 0.99514 0.04709 0.55037 0.0
C105 C 0.99355 0.0906 0.53873 0.0
C106 C 1.00852 0.08019 0.56328 0.0
C107 C 0.00931 0.05867 0.56892 0.0
C108 C 0.98019 0.05736 0.52568 0.0
C109 C 0.97943 0.07896 0.51958 0.0
C110 C 0.9952 0.02472 0.563 0.0
C111 C 0.98413 0.99404 0.79187 0.0
C112 C 0.02225 0.03487 0.76367 0.0
C113 C 0.04024 0.9456 0.88957 0.0
C114 C 0.03772 0.90284 0.90981 0.0
C115 C 0.02429 0.91412 0.87955 0.0
C116 C 0.02557 0.93527 0.86941 0.0
C117 C 0.05367 0.9345 0.92004 0.0
C118 C 0.0524 0.91322 0.93022 0.0
C119 C 0.04245 0.96722 0.87093 0.0
H120 H 0.01976 0.08864 0.57736 0.0
H121 H 0.02097 0.0511 0.58835 0.0
H122 H 0.96899 0.04873 0.51208 0.0
H123 H 0.96767 0.08658 0.50083 0.0
H124 H 0.01299 0.9065 0.8624 0.0
H125 H 0.0153 0.94348 0.84429 0.0
H126 H 0.06525 0.94219 0.93481 0.0
H127 H 0.06285 0.90491 0.95424 0.0
Dy128 Dy 0.50994 0.98929 0.64656 0.0
Dy129 Dy 0.52371 0.01344 0.77096 0.0
C130 C 0.51169 0.03808 0.65012 0.0
O131 O 0.54104 0.98505 0.6226 0.0
O132 O 0.54844 0.01103 0.69111 0.0
O133 O 0.49579 0.98998 0.56045 0.0
O134 O 0.50638 0.96063 0.59454 0.0
O135 O 0.53322 0.97999 0.77433 0.0
O136 O 0.50868 0.96801 0.73236 0.0
O137 O 0.49417 0.00727 0.80902 0.0
O138 O 0.48391 0.00283 0.70857 0.0
O139 O 0.52844 0.01469 0.87342 0.0
O140 O 0.53552 0.0402 0.80881 0.0
C141 C 0.55319 0.99715 0.64238 0.0
O142 O 0.51636 0.02116 0.61308 0.0
O143 O 0.50926 0.03729 0.71523 0.0
C144 C 0.4765 0.96257 0.56368 0.0
C145 C 0.43846 0.95592 0.57535 0.0
C146 C 0.44671 0.95941 0.63245 0.0
C147 C 0.46559 0.96261 0.62666 0.0
C148 C 0.46852 0.95825 0.50679 0.0
C149 C 0.44964 0.95481 0.51258 0.0
C150 C 0.49529 0.96984 0.55761 0.0
C151 C 0.52222 0.9651 0.76764 0.0
C152 C 0.48059 0.0057 0.77351 0.0
C153 C 0.55662 0.02957 0.87906 0.0
C154 C 0.59403 0.02689 0.89836 0.0
C155 C 0.58761 0.01278 0.85494 0.0
C156 C 0.56908 0.01414 0.84533 0.0
C157 C 0.56289 0.04372 0.9224 0.0
C158 C 0.58151 0.04239 0.93204 0.0
C159 C 0.53749 0.03146 0.86493 0.0
H160 H 0.43846 0.96027 0.68138 0.0
H161 H 0.47152 0.96599 0.67123 0.0
H162 H 0.47668 0.95841 0.45782 0.0
H163 H 0.4436 0.95239 0.46764 0.0
H164 H 0.59698 0.0009 0.82752 0.0
H165 H 0.5645 0.00327 0.81086 0.0
H166 H 0.55345 0.05584 0.94826 0.0
H167 H 0.58608 0.05336 0.96617 0.0
Dy168 Dy 0.52969 0.51001 0.78364 0.0
Dy169 Dy 0.48877 0.50868 0.72053 0.0
C170 C 0.49812 0.47946 0.84128 0.0
O171 O 0.53012 0.48031 0.725 0.0
O172 O 0.51168 0.49245 0.65022 0.0
O173 O 0.54188 0.51572 0.8714 0.0
O174 O 0.56007 0.5068 0.77803 0.0
O175 O 0.50224 0.53664 0.6789 0.0
O176 O 0.5328 0.53095 0.69642 0.0
O177 O 0.48231 0.52697 0.81641 0.0
O178 O 0.51159 0.53814 0.81808 0.0
O179 O 0.46451 0.52353 0.68627 0.0
O180 O 0.46854 0.48996 0.68459 0.0
C181 C 0.52322 0.47808 0.66924 0.0
O182 O 0.51197 0.49044 0.8521 0.0
O183 O 0.48888 0.48264 0.79115 0.0
C184 C 0.57475 0.51286 0.87917 0.0
C185 C 0.60466 0.51459 0.95428 0.0
C186 C 0.58612 0.51683 0.9856 0.0
C187 C 0.57144 0.51604 0.94867 0.0
C188 C 0.59322 0.5106 0.8474 0.0
C189 C 0.60801 0.51146 0.88451 0.0
C190 C 0.5588 0.51171 0.84148 0.0
C191 C 0.51964 0.54156 0.67071 0.0
C192 C 0.49364 0.53968 0.83779 0.0
C193 C 0.44829 0.50441 0.61221 0.0
C194 C 0.42479 0.50285 0.51273 0.0
C195 C 0.43613 0.51955 0.51674 0.0
C196 C 0.44768 0.5204 0.56628 0.0
C197 C 0.43753 0.48738 0.60636 0.0
C198 C 0.42596 0.48659 0.55738 0.0
C199 C 0.45804 0.50595 0.67121 0.0
H200 H 0.58286 0.51882 0.03915 0.0
H201 H 0.5574 0.51773 0.97502 0.0
H202 H 0.59625 0.50818 0.79393 0.0
H203 H 0.62206 0.50989 0.85838 0.0
H204 H 0.43551 0.53238 0.48333 0.0
H205 H 0.45569 0.53383 0.56976 0.0
H206 H 0.43761 0.4749 0.64132 0.0
H207 H 0.41767 0.47334 0.55515 0.0
Dy208 Dy 0.02572 0.52003 0.64883 0.0
Dy209 Dy 0.01555 0.48259 0.7496 0.0
C210 C 0.02776 0.47336 0.59815 0.0
O211 O 0.9946 0.5218 0.66403 0.0
O212 O 0.99019 0.48877 0.70026 0.0
O213 O 0.03927 0.5296 0.55394 0.0
O214 O 0.02432 0.55251 0.62475 0.0
O215 O 1.00415 0.51229 0.80361 0.0
O216 O 0.02595 0.53248 0.75173 0.0
O217 O 0.04409 0.48944 0.76667 0.0
O218 O 0.05339 0.50729 0.67217 0.0
O219 O 0.01321 0.4697 0.84754 0.0
O220 O 1.00633 0.45166 0.76478 0.0
C221 C 0.9839 0.50627 0.67676 0.0
O222 O 0.0207 0.49207 0.58879 0.0
O223 O 0.03199 0.46848 0.65663 0.0
C224 C 0.05294 0.56095 0.56425 0.0
C225 C 0.0892 0.57458 0.55037 0.0
C226 C 0.0807 0.57034 0.49398 0.0
C227 C 0.06274 0.56369 0.50094 0.0
C228 C 0.06085 0.5663 0.62079 0.0
C229 C 0.07875 0.57325 0.61388 0.0
C230 C 0.03617 0.54928 0.57033 0.0
C231 C 0.01342 0.52907 0.80266 0.0
C232 C 0.05707 0.49783 0.72608 0.0
C233 C 0.98574 0.45269 0.86598 0.0
C234 C 0.95042 0.46552 0.9331 0.0
C235 C 0.96526 0.46161 0.96904 0.0
C236 C 0.98284 0.4552 0.93559 0.0
C237 C 0.97038 0.45418 0.83139 0.0
C238 C 0.95287 0.46056 0.86476 0.0
C239 C 1.00455 0.45397 0.82943 0.0
H240 H 0.08829 0.57072 0.44417 0.0
H241 H 0.05697 0.55938 0.4568 0.0
H242 H 0.0536 0.56411 0.67035 0.0
H243 H 0.08467 0.57669 0.65839 0.0
H244 H 0.96369 0.46527 0.0219 0.0
H245 H 0.99447 0.45415 0.96325 0.0
H246 H 0.97207 0.45225 0.77772 0.0
H247 H 0.94151 0.46305 0.83628 0.0
H248 H 0.22523 0.01147 0.38189 0.0
H249 H 0.1948 0.01002 0.4512 0.0
H250 H 0.17131 0.99091 0.27858 0.0
H251 H 0.20164 0.99268 0.2095 0.0
H252 H 0.14889 0.02003 0.34779 0.0
H253 H 0.18087 0.95646 0.40158 0.0
H254 H 0.20631 0.93507 0.4395 0.0
H255 H 0.19665 0.96789 0.6284 0.0
H256 H 0.17129 0.98968 0.59127 0.0
H257 H 0.06281 0.98856 0.5106 0.0
H258 H 0.09363 0.98948 0.44545 0.0
H259 H 0.11589 0.00681 0.62241 0.0
H260 H 0.08518 0.00545 0.68814 0.0
H261 H 0.13913 0.97915 0.55277 0.0
H262 H 0.10728 0.0425 0.50107 0.0
H263 H 0.08193 0.06439 0.46451 0.0
H264 H 0.09157 0.03292 0.27334 0.0
H265 H 0.11682 0.01063 0.3091 0.0
C266 C 0.21355 0.00683 0.35913 0.0
C267 C 0.2157 0.00207 0.29065 0.0
C268 C 0.19617 0.00594 0.39869 0.0
C269 C 0.18066 1.00016 0.37046 0.0
C270 C 0.18296 0.99541 0.30176 0.0
C271 C 0.2003 0.99632 0.26234 0.0
C272 C 0.16198 0.99944 0.41184 0.0
C273 C 0.14674 0.01085 0.39211 0.0
C274 C 0.15912 0.98797 0.47091 0.0
C275 C 0.17431 0.97484 0.49339 0.0
C276 C 0.18426 0.95922 0.45102 0.0
C277 C 0.19865 0.94701 0.4724 0.0
C278 C 0.20313 0.95016 0.53625 0.0
C279 C 0.19318 0.96549 0.57892 0.0
C280 C 0.17879 0.97776 0.55775 0.0
C281 C 0.07424 0.99258 0.53578 0.0
C282 C 0.07141 0.997 0.60477 0.0
C283 C 0.09191 0.9932 0.49828 0.0
C284 C 0.10718 0.99851 0.52856 0.0
C285 C 0.10441 0.00269 0.59759 0.0
C286 C 0.08677 0.00197 0.63518 0.0
C287 C 0.12601 0.99963 0.48845 0.0
C288 C 0.14127 0.98833 0.50846 0.0
C289 C 0.12893 0.0113 0.4298 0.0
C290 C 0.11382 0.02476 0.408 0.0
C291 C 0.10391 0.04015 0.4514 0.0
C292 C 0.08957 0.05264 0.4308 0.0
C293 C 0.08511 0.05001 0.3667 0.0
C294 C 0.09502 0.03492 0.32301 0.0
C295 C 0.10936 0.02236 0.3434 0.0
H296 H 0.074 0.0597 0.35085 0.0
H297 H 0.21427 0.94069 0.55271 0.0
H298 H 0.49445 0.2272 0.44411 0.0
H299 H 0.49835 0.19513 0.50585 0.0
H300 H 0.49392 0.15873 0.32912 0.0
H301 H 0.48981 0.1907 0.26814 0.0
H302 H 0.4731 0.14423 0.43451 0.0
H303 H 0.53579 0.16397 0.38251 0.0
H304 H 0.56128 0.18735 0.3801 0.0
H305 H 0.55318 0.19084 0.59374 0.0
H306 H 0.52746 0.16769 0.59741 0.0
H307 H 0.50915 0.04517 0.51922 0.0
H308 H 0.50506 0.07867 0.467 0.0
H309 H 0.50482 0.11031 0.65595 0.0
H310 H 0.50882 0.07687 0.70876 0.0
H311 H 0.52727 0.12797 0.55087 0.0
H312 H 0.46526 0.10682 0.6018 0.0
H313 H 0.44022 0.08292 0.6028 0.0
H314 H 0.44746 0.0817 0.38916 0.0
H315 H 0.47275 0.10536 0.38685 0.0
C316 C 0.49441 0.21228 0.41879 0.0
C317 C 0.49191 0.21119 0.35175 0.0
C318 C 0.49667 0.19402 0.45383 0.0
C319 C 0.49655 0.17449 0.42198 0.0
C320 C 0.49403 0.17357 0.35477 0.0
C321 C 0.49177 0.19178 0.31994 0.0
C322 C 0.49875 0.15494 0.45846 0.0
C323 C 0.48505 0.1406 0.45932 0.0
C324 C 0.51411 0.15038 0.49227 0.0
C325 C 0.52956 0.1643 0.49021 0.0
C326 C 0.53934 0.16987 0.42897 0.0
C327 C 0.55385 0.18305 0.42737 0.0
C328 C 0.55881 0.19063 0.48672 0.0
C329 C 0.5493 0.18499 0.54781 0.0
C330 C 0.53476 0.17183 0.54967 0.0
C331 C 0.50824 0.05924 0.54973 0.0
C332 C 0.50925 0.05833 0.61822 0.0
C333 C 0.50585 0.07837 0.51983 0.0
C334 C 0.50452 0.09696 0.55772 0.0
C335 C 0.5058 0.09614 0.62587 0.0
C336 C 0.508 0.077 0.65597 0.0
C337 C 0.50174 0.11723 0.52608 0.0
C338 C 0.51529 0.13169 0.52626 0.0
C339 C 0.48629 0.12188 0.49297 0.0
C340 C 0.47103 0.10771 0.49415 0.0
C341 C 0.46163 0.10131 0.55501 0.0
C342 C 0.44737 0.08783 0.55582 0.0
C343 C 0.44228 0.08075 0.49608 0.0
C344 C 0.45143 0.08718 0.4354 0.0
C345 C 0.46572 0.10064 0.43431 0.0
H346 H 0.43123 0.07032 0.49681 0.0
H347 H 0.57005 0.20082 0.48539 0.0
H348 H 0.28456 0.4879 0.19596 0.0
H349 H 0.30818 0.48929 0.27024 0.0
H350 H 0.34735 0.50921 0.10771 0.0
H351 H 0.32373 0.50755 0.03332 0.0
H352 H 0.36353 0.48014 0.17831 0.0
H353 H 0.32562 0.54365 0.22986 0.0
H354 H 0.29612 0.56463 0.26135 0.0
H355 H 0.28656 0.53306 0.44614 0.0
H356 H 0.31589 0.51167 0.41534 0.0
H357 H 0.42972 0.51293 0.38038 0.0
H358 H 0.407 0.51227 0.30244 0.0
H359 H 0.36625 0.49172 0.45854 0.0
H360 H 0.38873 0.49257 0.5365 0.0
H361 H 0.35127 0.52191 0.38936 0.0
H362 H 0.38787 0.45816 0.34009 0.0
H363 H 0.41611 0.43504 0.30918 0.0
H364 H 0.42729 0.46508 0.12217 0.0
H365 H 0.39927 0.48869 0.15251 0.0
C366 C 0.29823 0.49259 0.17634 0.0
C367 C 0.3024 0.49772 0.1093 0.0
C368 C 0.3117 0.49345 0.21876 0.0
C369 C 0.32955 0.49961 0.19493 0.0
C370 C 0.33372 0.50446 0.12741 0.0
C371 C 0.32023 0.50358 0.08502 0.0
C372 C 0.34382 0.50098 0.24035 0.0
C373 C 0.36097 0.48956 0.22389 0.0
C374 C 0.34035 0.51282 0.30084 0.0
C375 C 0.32288 0.52594 0.32002 0.0
C376 C 0.31717 0.5411 0.27705 0.0
C377 C 0.30049 0.55307 0.29479 0.0
C378 C 0.28944 0.55014 0.35563 0.0
C379 C 0.29511 0.5353 0.39899 0.0
C380 C 0.31178 0.52326 0.38145 0.0
C381 C 0.41589 0.50837 0.39811 0.0
C382 C 0.41111 0.50267 0.46465 0.0
C383 C 0.40295 0.50785 0.3534 0.0
C384 C 0.38491 0.50178 0.37437 0.0
C385 C 0.38006 0.49641 0.44099 0.0
C386 C 0.393 0.49675 0.48544 0.0
C387 C 0.37101 0.50107 0.32732 0.0
C388 C 0.35391 0.51261 0.34352 0.0
C389 C 0.37449 0.48923 0.26684 0.0
C390 C 0.39159 0.47539 0.24898 0.0
C391 C 0.39647 0.46003 0.29274 0.0
C392 C 0.41242 0.4468 0.27526 0.0
C393 C 0.42351 0.44863 0.21385 0.0
C394 C 0.41871 0.46372 0.16981 0.0
C395 C 0.4028 0.47705 0.18715 0.0
H396 H 0.43578 0.43827 0.20031 0.0
H397 H 0.27651 0.55941 0.36922 0.0
H398 H 0.05442 0.31294 0.19353 0.0
H399 H 0.0549 0.34098 0.27651 0.0
H400 H 0.01075 0.37527 0.19704 0.0
H401 H 0.01052 0.3473 0.11344 0.0
H402 H 0.03717 0.40041 0.22328 0.0
H403 H 1.00212 0.34803 0.33879 0.0
H404 H 0.99714 0.31241 0.37609 0.0
H405 H 0.04374 0.31372 0.48255 0.0
H406 H 0.04919 0.34923 0.44494 0.0
H407 H 0.00988 0.47329 0.48917 0.0
H408 H 0.01127 0.4459 0.40391 0.0
H409 H 0.05116 0.40968 0.49916 0.0
H410 H 0.04911 0.4367 0.58656 0.0
H411 H 0.02766 0.38525 0.46393 0.0
H412 H 0.06298 0.43753 0.34817 0.0
H413 H 0.06851 0.47279 0.30837 0.0
H414 H 0.0219 0.47151 0.2019 0.0
H415 H 0.01603 0.43634 0.2414 0.0
C416 C 0.04493 0.32657 0.1938 0.0
C417 C 0.03244 0.32815 0.14765 0.0
C418 C 0.04514 0.3425 0.24125 0.0
C419 C 0.03271 0.36014 0.24353 0.0
C420 C 0.02045 0.36182 0.19627 0.0
C421 C 0.02028 0.34588 0.14876 0.0
C422 C 0.03229 0.37671 0.29569 0.0
C423 C 0.03489 0.39715 0.27594 0.0
C424 C 0.02974 0.37238 0.36438 0.0
C425 C 0.02617 0.35123 0.38853 0.0
C426 C 0.01137 0.34068 0.36987 0.0
C427 C 1.00846 0.32051 0.39106 0.0
C428 C 0.02014 0.31079 0.43152 0.0
C429 C 0.03471 0.32126 0.45113 0.0
C430 C 0.03771 0.34142 0.42993 0.0
C431 C 0.01907 0.45957 0.49169 0.0
C432 C 0.02948 0.45723 0.54438 0.0
C433 C 0.01992 0.44391 0.44265 0.0
C434 C 0.0316 0.42579 0.44407 0.0
C435 C 0.04206 0.42348 0.49669 0.0
C436 C 0.04094 0.43898 0.54652 0.0
C437 C 0.03258 0.40909 0.39167 0.0
C438 C 0.03004 0.38857 0.41133 0.0
C439 C 0.03526 0.41334 0.32282 0.0
C440 C 0.03899 0.43437 0.29813 0.0
C441 C 0.05388 0.44481 0.31645 0.0
C442 C 0.05708 0.46478 0.29388 0.0
C443 C 0.04556 0.47441 0.25267 0.0
C444 C 0.03084 0.46405 0.23372 0.0
C445 C 0.02759 0.44408 0.25608 0.0
H446 H 0.04804 0.48988 0.23539 0.0
H447 H 0.01789 0.29516 0.44774 0.0
H448 H 0.81341 0.01134 0.09887 0.0
H449 H 0.84311 0.01216 0.02458 0.0
H450 H 0.86904 0.9708 0.15349 0.0
H451 H 0.83944 0.9703 0.22797 0.0
H452 H 0.89087 0.00089 0.11881 0.0
H453 H 0.85777 0.95438 1.00032 0.0
H454 H 0.83168 0.94334 0.94656 0.0
H455 H 0.83875 0.99315 0.80989 0.0
H456 H 0.86474 0.00466 0.86345 0.0
H457 H 0.97416 0.97094 0.9019 0.0
H458 H 0.94379 0.97076 0.97084 0.0
H459 H 0.92134 0.01593 0.84521 0.0
H460 H 0.95173 0.01623 0.77587 0.0
H461 H 0.89763 0.98488 0.87639 0.0
H462 H 0.93113 0.0309 0.99419 0.0
H463 H 0.95738 0.0416 0.04762 0.0
H464 H 0.94959 0.99223 0.18563 0.0
H465 H 0.92344 0.98104 0.13235 0.0
C466 C 0.82548 0.00238 0.11093 0.0
C467 C 0.82421 0.9907 0.1688 0.0
C468 C 0.84244 0.00277 0.06839 0.0
C469 C 0.85842 0.99137 0.08278 0.0
C470 C 0.85702 0.97974 0.141 0.0
C471 C 0.84009 0.97938 0.18345 0.0
C472 C 0.87666 0.99181 0.03818 0.0
C473 C 0.89234 0.9971 0.06597 0.0
C474 C 0.87867 0.98741 0.96871 0.0
C475 C 0.86307 0.98052 0.93637 0.0
C476 C 0.85366 0.96308 0.95915 0.0
C477 C 0.83891 0.95672 0.92865 0.0
C478 C 0.83353 0.96757 0.87497 0.0
C479 C 0.84292 0.98478 0.85156 0.0
C480 C 0.85767 0.99122 0.88194 0.0
C481 C 0.96279 0.98084 0.88871 0.0
C482 C 0.9655 0.99367 0.83327 0.0
C483 C 0.94539 0.98077 0.92845 0.0
C484 C 0.93022 0.99347 0.91378 0.0
C485 C 0.93278 0.006 0.85775 0.0
C486 C 0.95023 0.00621 0.81823 0.0
C487 C 0.91179 0.99378 0.95725 0.0
C488 C 0.8961 0.98867 0.92923 0.0
C489 C 0.90976 0.9983 0.02656 0.0
C490 C 0.92544 0.00501 0.05884 0.0
C491 C 0.93511 0.02222 0.03557 0.0
C492 C 0.94995 0.02839 0.06589 0.0
C493 C 0.95518 0.01756 0.11987 0.0
C494 C 0.94554 1.00058 0.14375 0.0
C495 C 0.9307 0.99432 0.11354 0.0
H496 H 0.96668 0.02237 0.1433 0.0
H497 H 0.8221 0.96262 0.85142 0.0
H498 H 0.51515 0.78919 0.06702 0.0
H499 H 0.51292 0.81881 0.99326 0.0
H500 H 0.56059 0.84337 0.06213 0.0
H501 H 0.56268 0.81392 0.13577 0.0
H502 H 0.53227 0.87245 0.06836 0.0
H503 H 0.56362 0.82218 0.9062 0.0
H504 H 0.56812 0.78883 0.84299 0.0
H505 H 0.51671 0.80171 0.76787 0.0
H506 H 0.51177 0.83504 0.8314 0.0
H507 H 0.54873 0.95382 0.84497 0.0
H508 H 0.55212 0.92155 0.90433 0.0
H509 H 0.50466 0.8992 0.82822 0.0
H510 H 0.50131 0.93135 0.76783 0.0
H511 H 0.53199 0.86866 0.82439 0.0
H512 H 0.50041 0.91854 0.9859 0.0
H513 H 0.49548 0.9519 0.04906 0.0
H514 H 0.54665 0.93954 0.12634 0.0
H515 H 0.55202 0.90622 0.06284 0.0
C516 C 0.52528 0.80079 0.06526 0.0
C517 C 0.53915 0.7994 0.10627 0.0
C518 C 0.52403 0.81766 0.02325 0.0
C519 C 0.53664 0.8333 0.022 0.0
C520 C 0.55072 0.83153 0.06226 0.0
C521 C 0.55197 0.81469 0.10397 0.0
C522 C 0.53461 0.85212 0.98184 0.0
C523 C 0.53248 0.87162 0.01486 0.0
C524 C 0.5343 0.85103 0.91236 0.0
C525 C 0.53723 0.831 0.87415 0.0
C526 C 0.55319 0.81782 0.87669 0.0
C527 C 0.55584 0.79894 0.8407 0.0
C528 C 0.54268 0.79312 0.8016 0.0
C529 C 0.52687 0.80621 0.79827 0.0
C530 C 0.52415 0.82511 0.83422 0.0
C531 C 0.53904 0.94203 0.8406 0.0
C532 C 0.52467 0.94525 0.80195 0.0
C533 C 0.54096 0.92359 0.87475 0.0
C534 C 0.52849 0.90804 0.87146 0.0
C535 C 0.51442 0.91098 0.8316 0.0
C536 C 0.51249 0.92942 0.79731 0.0
C537 C 0.52989 0.88897 0.91088 0.0
C538 C 0.53182 0.86946 0.87786 0.0
C539 C 0.52993 0.89 0.98053 0.0
C540 C 0.5267 0.90997 0.0191 0.0
C541 C 0.51068 0.92301 0.01597 0.0
C542 C 0.5078 0.9419 0.05189 0.0
C543 C 0.52077 0.94786 0.09156 0.0
C544 C 0.53663 0.93491 0.09552 0.0
C545 C 0.53959 0.91601 0.05962 0.0
H546 H 0.51851 0.96249 0.11934 0.0
H547 H 0.54476 0.7785 0.77375 0.0
H548 H 0.71165 0.53681 0.40221 0.0
H549 H 0.68864 0.53676 0.32533 0.0
H550 H 0.72421 0.49224 0.19677 0.0
H551 H 0.74736 0.49265 0.27339 0.0
H552 H 0.7095 0.52081 0.12382 0.0
H553 H 0.68549 0.47767 0.3001 0.0
H554 H 0.67538 0.4683 0.41623 0.0
H555 H 0.6335 0.51874 0.43777 0.0
H556 H 0.64353 0.52859 0.32197 0.0
H557 H 0.63825 0.49151 0.93684 0.0
H558 H 0.66282 0.49172 0.00701 0.0
H559 H 0.63086 0.53904 0.135 0.0
H560 H 0.6065 0.53933 0.06454 0.0
H561 H 0.64408 0.50778 0.20666 0.0
H562 H 0.66868 0.55078 0.02876 0.0
H563 H 0.67882 0.55927 0.91184 0.0
H564 H 0.71961 0.50775 0.89243 0.0
H565 H 0.70953 0.49877 0.00905 0.0
C566 C 0.71449 0.52704 0.35748 0.0
C567 C 0.73113 0.51464 0.34366 0.0
C568 C 0.70133 0.52693 0.31367 0.0
C569 C 0.70449 0.51426 0.25543 0.0
C570 C 0.72136 0.50211 0.24126 0.0
C571 C 0.73454 0.50227 0.2851 0.0
C572 C 0.69019 0.51366 0.20966 0.0
C573 C 0.69526 0.51766 0.14186 0.0
C574 C 0.67148 0.50988 0.23293 0.0
C575 C 0.66539 0.50399 0.30256 0.0
C576 C 0.67422 0.48687 0.32976 0.0
C577 C 0.66849 0.48145 0.39549 0.0
C578 C 0.65384 0.49295 0.43441 0.0
C579 C 0.64486 0.50986 0.40759 0.0
C580 C 0.65055 0.51536 0.34189 0.0
C581 C 0.63654 0.50223 0.97925 0.0
C582 C 0.62023 0.51533 0.99487 0.0
C583 C 0.65061 0.50226 0.01959 0.0
C584 C 0.64875 0.51541 0.07647 0.0
C585 C 0.63261 0.52864 0.09176 0.0
C586 C 0.61861 0.5287 0.05137 0.0
C587 C 0.66335 0.51512 0.12107 0.0
C588 C 0.65833 0.5109 0.18865 0.0
C589 C 0.6821 0.51857 0.09747 0.0
C590 C 0.68821 0.52397 0.02742 0.0
C591 C 0.67971 0.54115 0.9994 0.0
C592 C 0.68547 0.54607 0.93321 0.0
C593 C 0.69982 0.53402 0.89467 0.0
C594 C 0.70848 0.51705 0.92231 0.0
C595 C 0.70275 0.51204 0.98846 0.0
H596 H 0.70426 0.53786 0.84344 0.0
H597 H 0.64942 0.48873 0.48529 0.0
H598 H 0.01966 0.6762 0.22859 0.0
H599 H 0.02097 0.64994 0.13895 0.0
H600 H 0.9783 0.61791 0.25759 0.0
H601 H 0.97701 0.64432 0.34752 0.0
H602 H 1.00708 0.59094 0.19373 0.0
H603 H 0.96689 0.6473 0.13549 0.0
H604 H 0.95835 0.68401 0.11602 0.0
H605 H 1.00444 0.68501 0.95898 0.0
H606 H 0.01342 0.64835 0.97813 0.0
H607 H 0.99031 0.52652 0.92155 0.0
H608 H 0.98595 0.55127 0.01637 0.0
H609 H 0.02503 0.59031 0.90855 0.0
H610 H 0.0293 0.56591 0.8137 0.0
H611 H 0.99579 0.61336 0.9699 0.0
H612 H 0.03742 0.55898 0.0297 0.0
H613 H 0.04797 0.52291 0.04973 0.0
H614 H 1.00137 0.51868 0.20311 0.0
H615 H 0.99037 0.55467 0.18327 0.0
C616 C 0.01063 0.66349 0.23544 0.0
C617 C 0.99819 0.66219 0.29437 0.0
C618 C 0.01134 0.64855 0.18427 0.0
C619 C 0.99957 0.63208 0.19121 0.0
C620 C 0.98747 0.6305 0.2511 0.0
C621 C 0.9867 0.64555 0.30227 0.0
C622 C 0.99973 0.61683 0.13527 0.0
C623 C 1.00429 0.59576 0.14508 0.0
C624 C 0.99652 0.6232 0.07136 0.0
C625 C 0.99091 0.64511 0.05862 0.0
C626 C 0.97526 0.65537 0.09703 0.0
C627 C 0.97034 0.67617 0.08604 0.0
C628 C 0.98087 0.68685 0.03641 0.0
C629 C 0.99631 0.67672 0.99744 0.0
C630 C 1.00131 0.65592 0.00828 0.0
C631 C 0.99792 0.54042 0.91793 0.0
C632 C 0.0102 0.54416 0.85997 0.0
C633 C 0.99547 0.55452 0.97232 0.0
C634 C 1.00528 0.57261 0.96992 0.0
C635 C 0.01728 0.57651 0.91168 0.0
C636 C 0.01976 0.56245 0.85747 0.0
C637 C 1.0033 0.58743 0.02806 0.0
C638 C 0.99841 0.60846 0.01866 0.0
C639 C 1.00638 0.58104 0.09215 0.0
C640 C 0.01294 0.55942 0.10439 0.0
C641 C 0.02932 0.5503 0.06728 0.0
C642 C 0.0354 0.52989 0.07867 0.0
C643 C 0.02531 0.5185 0.12746 0.0
C644 C 1.00914 0.52752 0.16519 0.0
C645 C 1.00298 0.54793 0.1539 0.0
H646 H 0.03005 0.5027 0.13606 0.0
H647 H 0.97705 0.70296 0.02812 0.0
H648 H 1.00352 0.26649 0.27543 0.0
H649 H 0.9966 0.25156 0.38587 0.0
H650 H 0.0397 0.20294 0.32858 0.0
H651 H 0.04686 0.21808 0.22015 0.0
H652 H 0.98229 0.21696 0.40152 0.0
H653 H 0.05524 0.17893 0.44745 0.0
H654 H 0.08641 0.19064 0.45318 0.0
H655 H 0.06368 0.25353 0.48774 0.0
H656 H 0.0323 0.24221 0.48343 0.0
H657 H 0.98479 0.11227 0.43266 0.0
H658 H 0.98712 0.14914 0.41367 0.0
H659 H 1.00402 0.15762 0.60683 0.0
H660 H 1.00191 0.1204 0.62583 0.0
H661 H 0.0262 0.17593 0.52086 0.0
H662 H 0.96215 0.18125 0.57419 0.0
H663 H 0.92973 0.17208 0.57976 0.0
H664 H 0.93266 0.17977 0.36909 0.0
H665 H 0.96518 0.18866 0.36193 0.0
C666 C 0.01195 0.2531 0.28772 0.0
C667 C 0.02551 0.24319 0.23918 0.0
C668 C 1.00796 0.24454 0.35067 0.0
C669 C 0.01758 0.22608 0.36587 0.0
C670 C 0.03224 0.21736 0.31907 0.0
C671 C 0.03621 0.22588 0.25657 0.0
C672 C 0.01034 0.21348 0.42324 0.0
C673 C 0.9918 0.20829 0.42878 0.0
C674 C 0.0224 0.20288 0.46189 0.0
C675 C 0.04133 0.20968 0.46515 0.0
C676 C 0.05681 0.19523 0.45698 0.0
C677 C 0.07456 0.20182 0.45978 0.0
C678 C 0.07703 0.22281 0.47081 0.0
C679 C 0.06176 0.23727 0.4791 0.0
C680 C 0.04398 0.23078 0.47639 0.0
C681 C 0.98857 0.12203 0.4718 0.0
C682 C 0.99317 0.11342 0.53066 0.0
C683 C 0.98983 0.14319 0.46107 0.0
C684 C 0.99544 0.15631 0.5093 0.0
C685 C 0.99958 0.14786 0.56902 0.0
C686 C 0.99844 0.12659 0.57965 0.0
C687 C 0.99881 0.17821 0.49306 0.0
C688 C 0.01652 0.18514 0.49576 0.0
C689 C 0.9858 0.19089 0.464 0.0
C690 C 0.96615 0.18567 0.46761 0.0
C691 C 0.95592 0.18091 0.52896 0.0
C692 C 0.93751 0.17575 0.5324 0.0
C693 C 0.92914 0.17536 0.47483 0.0
C694 C 0.93915 0.18013 0.41368 0.0
C695 C 0.95757 0.18529 0.40994 0.0
H696 H 0.91489 0.17135 0.47759 0.0
H697 H 0.09078 0.22787 0.47291 0.0
H698 H 0.28204 0.0038 0.40447 0.0
H699 H 0.29869 0.99631 0.49879 0.0
H700 H 0.32618 0.94172 0.39321 0.0
H701 H 0.30941 0.94901 0.29983 0.0
H702 H 0.32269 0.93707 0.529 0.0
H703 H 0.34356 0.98872 0.36403 0.0
H704 H 0.33954 0.02128 0.30444 0.0
H705 H 0.32876 0.05567 0.49043 0.0
H706 H 0.33261 0.02326 0.55118 0.0
H707 H 0.419 0.92876 0.51298 0.0
H708 H 0.38582 0.93157 0.50625 0.0
H709 H 0.37864 0.98483 0.64126 0.0
H710 H 0.41192 0.98223 0.64742 0.0
H711 H 0.36586 0.99341 0.52793 0.0
H712 H 0.35629 0.94179 0.68679 0.0
H713 H 0.36251 0.90904 0.74253 0.0
H714 H 0.3529 0.87426 0.57006 0.0
H715 H 0.34699 0.9068 0.5127 0.0
C716 C 0.29097 0.98969 0.40295 0.0
C717 C 0.29469 0.9771 0.34481 0.0
C718 C 0.30054 0.98547 0.45663 0.0
C719 C 0.31397 0.96871 0.45234 0.0
C720 C 0.31594 0.95477 0.39758 0.0
C721 C 0.30641 0.95897 0.34411 0.0
C722 C 0.32848 0.96783 0.49648 0.0
C723 C 0.33206 0.94941 0.5295 0.0
C724 C 0.34045 0.98417 0.49852 0.0
C725 C 0.33812 0.0036 0.46209 0.0
C726 C 0.34021 0.00322 0.39217 0.0
C727 C 0.33797 0.02163 0.3582 0.0
C728 C 0.3338 0.04051 0.3936 0.0
C729 C 0.33193 0.04103 0.46308 0.0
C730 C 0.33414 0.02265 0.49731 0.0
C731 C 0.41028 0.94082 0.54216 0.0
C732 C 0.41805 0.95537 0.58018 0.0
C733 C 0.39128 0.94229 0.53892 0.0
C734 C 0.3797 0.95835 0.57358 0.0
C735 C 0.38729 0.97227 0.61433 0.0
C736 C 0.4063 0.97073 0.61791 0.0
C737 C 0.36053 0.96232 0.55862 0.0
C738 C 0.35613 0.98132 0.53041 0.0
C739 C 0.34792 0.94649 0.56103 0.0
C740 C 0.35127 0.92678 0.59531 0.0
C741 C 0.35563 0.92716 0.66052 0.0
C742 C 0.35909 0.90863 0.69245 0.0
C743 C 0.35811 0.88958 0.65985 0.0
C744 C 0.35364 0.88903 0.59527 0.0
C745 C 0.35021 0.90752 0.56305 0.0
H746 H 0.36079 0.87524 0.68464 0.0
H747 H 0.33209 0.05475 0.36719 0.0
H748 H 0.48933 0.30268 0.44567 0.0
H749 H 0.49605 0.33119 0.51793 0.0
H750 H 0.55022 0.33359 0.40224 0.0
H751 H 0.54349 0.30521 0.33 0.0
H752 H 0.52274 0.34508 0.59369 0.0
H753 H 0.5528 0.38371 0.35055 0.0
H754 H 0.55074 0.38255 0.23032 0.0
H755 H 0.49671 0.35899 0.27055 0.0
H756 H 0.49838 0.36019 0.39104 0.0
H757 H 0.54808 0.44552 0.6854 0.0
H758 H 0.54976 0.41056 0.63515 0.0
H759 H 0.5057 0.42946 0.52425 0.0
H760 H 0.50442 0.46442 0.57206 0.0
H761 H 0.52952 0.40609 0.4491 0.0
H762 H 0.49962 0.40285 0.67508 0.0
H763 H 0.49723 0.40673 0.79697 0.0
H764 H 0.54295 0.36145 0.79611 0.0
H765 H 0.54601 0.35777 0.67383 0.0
C766 C 0.50303 0.30853 0.4381 0.0
C767 C 0.51589 0.30187 0.38235 0.0
C768 C 0.50682 0.32492 0.47906 0.0
C769 C 0.52346 0.33478 0.46439 0.0
C770 C 0.53721 0.32634 0.41387 0.0
C771 C 0.53343 0.31001 0.37302 0.0
C772 C 0.52512 0.35571 0.49325 0.0
C773 C 0.5244 0.35843 0.56227 0.0
C774 C 0.52675 0.37319 0.45221 0.0
C775 C 0.52584 0.37178 0.37972 0.0
C776 C 0.54051 0.37822 0.3337 0.0
C777 C 0.53939 0.37759 0.26555 0.0
C778 C 0.52362 0.37066 0.24286 0.0
C779 C 0.50894 0.3643 0.28824 0.0
C780 C 0.51 0.36488 0.35645 0.0
C781 C 0.53896 0.4423 0.64946 0.0
C782 C 0.52611 0.45778 0.6328 0.0
C783 C 0.53983 0.42224 0.62123 0.0
C784 C 0.52761 0.41722 0.57685 0.0
C785 C 0.51527 0.4329 0.55841 0.0
C786 C 0.51457 0.45296 0.58579 0.0
C787 C 0.5273 0.39567 0.54995 0.0
C788 C 0.52821 0.39278 0.4809 0.0
C789 C 0.52523 0.37824 0.59139 0.0
C790 C 0.52322 0.38026 0.66508 0.0
C791 C 0.50928 0.39386 0.70076 0.0
C792 C 0.50781 0.39602 0.76997 0.0
C793 C 0.51998 0.3844 0.80426 0.0
C794 C 0.53359 0.37051 0.76943 0.0
C795 C 0.53523 0.36842 0.70015 0.0
H796 H 0.5189 0.38614 0.85778 0.0
H797 H 0.52275 0.37033 0.19016 0.0
H798 H 0.2446 0.53996 0.2103 0.0
H799 H 0.23094 0.55371 0.32101 0.0
H800 H 0.18468 0.51553 0.31644 0.0
H801 H 0.19878 0.50083 0.20914 0.0
H802 H 0.20205 0.57662 0.35583 0.0
H803 H 0.16334 0.50295 0.45506 0.0
H804 H 0.1713 0.46562 0.46527 0.0
H805 H 0.22903 0.47703 0.44881 0.0
H806 H 0.22143 0.51451 0.43967 0.0
H807 H 0.11018 0.59451 0.45088 0.0
H808 H 0.14333 0.58947 0.41916 0.0
H809 H 0.14805 0.55825 0.6029 0.0
H810 H 0.11449 0.56101 0.63103 0.0
H811 H 0.16411 0.53491 0.51915 0.0
H812 H 0.17395 0.60376 0.54733 0.0
H813 H 0.16939 0.64192 0.55023 0.0
H814 H 0.1753 0.64183 0.33687 0.0
H815 H 0.17958 0.60367 0.33251 0.0
C816 C 0.23178 0.53408 0.2339 0.0
C817 C 0.22267 0.51946 0.20049 0.0
C818 C 0.22393 0.54206 0.29703 0.0
C819 C 0.20686 0.53553 0.32779 0.0
C820 C 0.19809 0.52049 0.29505 0.0
C821 C 0.206 0.51236 0.23275 0.0
C822 C 0.19682 0.54586 0.38987 0.0
C823 C 0.19392 0.56759 0.39232 0.0
C824 C 0.18721 0.53426 0.44062 0.0
C825 C 0.19179 0.51164 0.44675 0.0
C826 C 0.17773 0.49758 0.45432 0.0
C827 C 0.18218 0.47635 0.45972 0.0
C828 C 0.20066 0.46896 0.45769 0.0
C829 C 0.21472 0.48278 0.45029 0.0
C830 C 0.21035 0.50402 0.44491 0.0
C831 C 0.11823 0.58671 0.48498 0.0
C832 C 0.10947 0.57752 0.54229 0.0
C833 C 0.13742 0.58427 0.4675 0.0
C834 C 0.14847 0.57334 0.50833 0.0
C835 C 0.13993 0.56648 0.56985 0.0
C836 C 0.12062 0.56832 0.58633 0.0
C837 C 0.16772 0.56552 0.48015 0.0
C838 C 0.17257 0.5442 0.48449 0.0
C839 C 0.17968 0.57767 0.43797 0.0
C840 C 0.17716 0.60074 0.43967 0.0
C841 C 0.1742 0.61184 0.50098 0.0
C842 C 0.17166 0.6335 0.50288 0.0
C843 C 0.17208 0.64429 0.44377 0.0
C844 C 0.17504 0.63345 0.38262 0.0
C845 C 0.17759 0.61178 0.3804 0.0
H846 H 0.1701 0.66106 0.44536 0.0
H847 H 0.20407 0.45252 0.46184 0.0
H848 H 0.98016 0.76732 0.21888 0.0
H849 H 0.98921 0.7835 0.11234 0.0
H850 H 0.04016 0.74459 0.08165 0.0
H851 H 0.03086 0.72807 0.18819 0.0
H852 H 0.04522 0.78598 0.09408 0.0
H853 H 0.01437 0.74433 0.96033 0.0
H854 H 0.98959 0.7245 0.92509 0.0
H855 H 0.95446 0.78053 0.92805 0.0
H856 H 0.97892 0.80071 0.96408 0.0
H857 H 0.06516 0.87148 0.88713 0.0
H858 H 0.06248 0.83461 0.9111 0.0
H859 H 1.00405 0.84691 0.98104 0.0
H860 H 1.00662 0.88353 0.95683 0.0
H861 H 0.01037 0.80997 0.91445 0.0
H862 H 0.03642 0.84697 0.08836 0.0
H863 H 0.05992 0.86756 0.12972 0.0
H864 H 0.10241 0.82019 0.05721 0.0
H865 H 0.07914 0.79944 0.01478 0.0
C866 C 0.99289 0.76164 0.18788 0.0
C867 C 1.0049 0.74663 0.21133 0.0
C868 C 0.99802 0.77076 0.12686 0.0
C869 C 0.01536 0.76521 0.08902 0.0
C870 C 0.02666 0.74893 0.10986 0.0
C871 C 0.02137 0.73955 0.17056 0.0
C872 C 0.02312 0.7797 0.03838 0.0
C873 C 0.03802 0.79073 0.05312 0.0
C874 C 0.01352 0.78611 0.98582 0.0
C875 C 0.99853 0.77405 0.96524 0.0
C876 C 1.00131 0.75243 0.95411 0.0
C877 C 0.98731 0.74112 0.93386 0.0
C878 C 0.97044 0.75124 0.92453 0.0
C879 C 0.96754 0.77271 0.93536 0.0
C880 C 0.98149 0.7841 0.95555 0.0
C881 C 0.05175 0.86624 0.90736 0.0
C882 C 0.03613 0.88038 0.92081 0.0
C883 C 0.05021 0.84519 0.92049 0.0
C884 C 0.03308 0.83806 0.94818 0.0
C885 C 0.01737 0.85203 0.95912 0.0
C886 C 0.01887 0.87298 0.94559 0.0
C887 C 0.03165 0.81674 0.97317 0.0
C888 C 0.018 0.80458 0.95356 0.0
C889 C 0.04217 0.80938 0.02217 0.0
C890 C 0.05612 0.82182 0.04762 0.0
C891 C 0.0508 0.84104 0.08085 0.0
C892 C 0.06406 0.85272 0.10453 0.0
C893 C 0.08266 0.84522 0.09587 0.0
C894 C 0.08801 0.826 0.06369 0.0
C895 C 0.0748 0.81428 0.03981 0.0
H896 H 0.09291 0.85428 0.11426 0.0
H897 H 0.95963 0.74245 0.9088 0.0
H898 H 0.73552 0.96279 0.09054 0.0
H899 H 0.71584 0.97274 0.0076 0.0
H900 H 0.73301 0.03537 0.01508 0.0
H901 H 0.75275 0.02532 0.09855 0.0
H902 H 0.69675 0.03277 0.06023 0.0
H903 H 0.73743 0.00908 0.86607 0.0
H904 H 0.75963 0.98502 0.79433 0.0
H905 H 0.71837 0.94043 0.79776 0.0
H906 H 0.69598 0.96405 0.8704 0.0
H907 H 0.61743 0.05823 0.90207 0.0
H908 H 0.65003 0.05512 0.9193 0.0
H909 H 0.64757 0.98874 0.93363 0.0
H910 H 0.61503 0.99177 0.9175 0.0
H911 H 0.67984 0.99938 0.85772 0.0
H912 H 0.64315 0.01762 0.07002 0.0
H913 H 0.62086 0.03877 0.15091 0.0
H914 H 0.65469 0.09074 0.12033 0.0
H915 H 0.67714 0.0699 0.03869 0.0
C916 C 0.73587 0.97836 0.07158 0.0
C917 C 0.74551 0.99334 0.10071 0.0
C918 C 0.72463 0.98407 0.02414 0.0
C919 C 0.72287 0.00485 0.00545 0.0
C920 C 0.73422 0.01925 0.02878 0.0
C921 C 0.74557 0.01349 0.07606 0.0
C922 C 0.70633 0.01212 0.97584 0.0
C923 C 0.69335 0.02603 0.01455 0.0
C924 C 0.7016 0.00268 0.9178 0.0
C925 C 0.71502 0.98836 0.87402 0.0
C926 C 0.73311 0.99409 0.85199 0.0
C927 C 0.74573 0.98053 0.81106 0.0
C928 C 0.74042 0.96121 0.79155 0.0
C929 C 0.72246 0.95541 0.81287 0.0
C930 C 0.70979 0.9689 0.85384 0.0
C931 C 0.62386 0.043 0.90919 0.0
C932 C 0.61373 0.02523 0.90848 0.0
C933 C 0.64247 0.04124 0.91849 0.0
C934 C 0.65118 0.02169 0.9275 0.0
C935 C 0.64115 0.00393 0.92603 0.0
C936 C 0.62257 0.00569 0.91691 0.0
C937 C 0.67038 0.01969 0.94277 0.0
C938 C 0.68365 0.00668 0.90185 0.0
C939 C 0.67534 0.02963 0.99951 0.0
C940 C 0.66167 0.04231 0.04746 0.0
C941 C 0.64572 0.03364 0.07989 0.0
C942 C 0.63309 0.04554 0.12609 0.0
C943 C 0.63631 0.06612 0.14052 0.0
C944 C 0.65219 0.07481 0.10894 0.0
C945 C 0.66488 0.06296 0.06274 0.0
H946 H 0.62652 0.07531 0.17635 0.0
H947 H 0.75021 0.95074 0.75986 0.0
H948 H 0.50812 0.72405 0.06861 0.0
H949 H 0.49835 0.69818 0.99294 0.0
H950 H 0.53772 0.65247 0.05507 0.0
H951 H 0.54854 0.67848 0.12452 0.0
H952 H 0.53519 0.64258 0.94116 0.0
H953 H 0.48804 0.66262 0.13084 0.0
H954 H 0.46562 0.68715 0.20017 0.0
H955 H 0.43733 0.69975 0.03261 0.0
H956 H 0.45974 0.67543 0.96216 0.0
H957 H 0.49981 0.5484 0.96196 0.0
H958 H 0.50058 0.5835 0.00787 0.0
H959 H 0.47458 0.60836 0.84612 0.0
H960 H 0.47355 0.57302 0.8005 0.0
H961 H 0.46782 0.63212 0.98565 0.0
H962 H 0.51505 0.60149 0.8093 0.0
H963 H 0.53712 0.57291 0.76146 0.0
H964 H 0.56576 0.57583 0.93106 0.0
H965 H 0.54373 0.6044 0.98056 0.0
C966 C 0.51511 0.70867 0.0639 0.0
C967 C 0.52873 0.70311 0.10377 0.0
C968 C 0.50932 0.69378 0.02152 0.0
C969 C 0.51674 0.67305 0.02002 0.0
C970 C 0.53154 0.66818 0.05533 0.0
C971 C 0.53764 0.68308 0.09576 0.0
C972 C 0.50842 0.65581 0.9874 0.0
C973 C 0.52044 0.64043 0.95103 0.0
C974 C 0.48911 0.65289 0.99897 0.0
C975 C 0.47567 0.66746 0.04114 0.0
C976 C 0.47709 0.67072 0.10878 0.0
C977 C 0.46439 0.68457 0.14825 0.0
C978 C 0.45009 0.69505 0.12075 0.0
C979 C 0.44844 0.69166 0.05378 0.0
C980 C 0.46113 0.67786 0.01406 0.0
C981 C 0.4932 0.56125 0.93864 0.0
C982 C 0.48647 0.55816 0.87831 0.0
C983 C 0.49374 0.58128 0.9646 0.0
C984 C 0.48788 0.59842 0.9297 0.0
C985 C 0.47904 0.59525 0.87381 0.0
C986 C 0.47837 0.5751 0.84802 0.0
C987 C 0.49476 0.61885 0.94312 0.0
C988 C 0.48249 0.63467 0.975 0.0
C989 C 0.51396 0.62181 0.93012 0.0
C990 C 0.52766 0.60514 0.8988 0.0
C991 C 0.52601 0.59607 0.8366 0.0
C992 C 0.53854 0.57985 0.80909 0.0
C993 C 0.55283 0.57254 0.84313 0.0
C994 C 0.5547 0.58153 0.90467 0.0
C995 C 0.54222 0.5978 0.93238 0.0
H996 H 0.56247 0.55993 0.82181 0.0
H997 H 0.44027 0.70577 0.15138 0.0
H998 H 0.79826 0.51449 0.23501 0.0
H999 H 0.82251 0.51189 0.13951 0.0
H1000 H 0.84132 0.57079 0.1958 0.0
H1001 H 0.81727 0.5731 0.29353 0.0
H1002 H 0.84081 0.5281 0.03347 0.0
H1003 H 0.88354 0.56659 0.20145 0.0
H1004 H 0.88379 0.57661 0.31932 0.0
H1005 H 0.85497 0.52273 0.38125 0.0
H1006 H 0.85415 0.51274 0.26377 0.0
H1007 H 0.93382 0.49945 0.88422 0.0
H1008 H 0.90675 0.52087 0.9371 0.0
H1009 H 0.90198 0.48076 0.10555 0.0
H1010 H 0.92938 0.45939 0.05314 0.0
H1011 H 0.89721 0.52145 0.14391 0.0
H1012 H 0.87178 0.47551 0.99243 0.0
H1013 H 0.87496 0.45918 0.88021 0.0
H1014 H 0.87041 0.51932 0.79481 0.0
H1015 H 0.86705 0.53598 0.90678 0.0
C1016 C 0.8069 0.52745 0.22526 0.0
C1017 C 0.80626 0.54373 0.27249 0.0
C1018 C 0.82085 0.52592 0.17051 0.0
C1019 C 0.83416 0.54075 0.16217 0.0
C1020 C 0.83148 0.55888 0.20263 0.0
C1021 C 0.81767 0.56027 0.25812 0.0
C1022 C 0.85245 0.53472 0.12273 0.0
C1023 C 0.85323 0.52714 0.05706 0.0
C1024 C 0.86864 0.53294 0.15379 0.0
C1025 C 0.86862 0.53909 0.22425 0.0
C1026 C 0.87717 0.55699 0.24037 0.0
C1027 C 0.87735 0.56269 0.307 0.0
C1028 C 0.86926 0.55041 0.35772 0.0
C1029 C 0.86108 0.53232 0.34193 0.0
C1030 C 0.86064 0.52672 0.2754 0.0
C1031 C 0.92684 0.49504 0.93218 0.0
C1032 C 0.93344 0.47757 0.96428 0.0
C1033 C 0.91148 0.50737 0.96242 0.0
C1034 C 0.90231 0.50228 0.02485 0.0
C1035 C 0.90896 0.48495 0.05735 0.0
C1036 C 0.92448 0.47271 0.02737 0.0
C1037 C 0.88541 0.51459 0.05557 0.0
C1038 C 0.88497 0.52322 0.11942 0.0
C1039 C 0.86947 0.51681 0.02362 0.0
C1040 C 0.86919 0.50694 0.95761 0.0
C1041 C 0.8712 0.4852 0.9497 0.0
C1042 C 0.87308 0.47591 0.88628 0.0
C1043 C 0.87295 0.48822 0.83056 0.0
C1044 C 0.87046 0.50982 0.83814 0.0
C1045 C 0.86846 0.5192 0.90159 0.0
H1046 H 0.87497 0.48096 0.7816 0.0
H1047 H 0.86934 0.55493 0.40919 0.0
H1048 H 0.04665 0.22713 0.93171 0.0
H1049 H 0.04652 0.1947 0.86588 0.0
H1050 H 1.0005 0.1759 0.00424 0.0
H1051 H 1.00023 0.20819 0.06874 0.0
H1052 H 0.0362 0.14901 0.98501 0.0
H1053 H 0.99113 0.18582 0.86453 0.0
H1054 H 0.98114 0.21305 0.79127 0.0
H1055 H 0.02595 0.19282 0.63821 0.0
H1056 H 0.03627 0.16554 0.7107 0.0
H1057 H 0.01044 0.05215 0.88737 0.0
H1058 H 0.01162 0.08824 0.92357 0.0
H1059 H 0.0391 0.10247 0.7284 0.0
H1060 H 0.03688 0.06663 0.69099 0.0
H1061 H 0.01706 0.133 0.76628 0.0
H1062 H 0.06243 0.09667 0.87235 0.0
H1063 H 0.07594 0.06965 0.93858 0.0
H1064 H 0.03696 0.08964 0.11041 0.0
H1065 H 0.02303 0.11661 0.04499 0.0
C1066 C 0.03617 0.21635 0.94679 0.0
C1067 C 0.02365 0.22003 0.00599 0.0
C1068 C 0.03614 0.19784 0.90931 0.0
C1069 C 0.02358 0.18288 0.93062 0.0
C1070 C 0.01035 0.1872 0.98717 0.0
C1071 C 0.01028 0.20562 0.0241 0.0
C1072 C 0.02547 0.16169 0.90005 0.0
C1073 C 0.0319 0.14543 0.93735 0.0
C1074 C 0.02075 0.15725 0.8365 0.0
C1075 C 0.01463 0.17383 0.79345 0.0
C1076 C 0.99899 0.18733 0.81557 0.0
C1077 C 0.99321 0.20271 0.77403 0.0
C1078 C 1.00292 0.20468 0.71015 0.0
C1079 C 0.01843 0.19127 0.68766 0.0
C1080 C 0.02423 0.17584 0.72892 0.0
C1081 C 0.01683 0.06295 0.85235 0.0
C1082 C 0.02374 0.0565 0.7866 0.0
C1083 C 0.0176 0.08361 0.87313 0.0
C1084 C 0.02589 0.09813 0.82934 0.0
C1085 C 0.0327 0.09167 0.7634 0.0
C1086 C 0.0315 0.07112 0.74212 0.0
C1087 C 0.02722 0.12001 0.85238 0.0
C1088 C 0.02155 0.13644 0.81366 0.0
C1089 C 0.03325 0.12475 0.91385 0.0
C1090 C 0.0416 0.10857 0.95357 0.0
C1091 C 0.05666 0.09522 0.92415 0.0
C1092 C 0.0644 0.07992 0.96157 0.0
C1093 C 0.05729 0.0779 0.02862 0.0
C1094 C 0.04244 0.09121 0.05845 0.0
C1095 C 0.03463 0.10653 0.02124 0.0
H1096 H 0.0633 0.06604 0.0575 0.0
H1097 H 0.99841 0.21657 0.67803 0.0
H1098 H 0.33404 0.01185 0.19314 0.0
H1099 H 0.36212 0.01485 0.11522 0.0
H1100 H 0.33376 0.99695 0.95317 0.0
H1101 H 0.30555 0.99261 0.03282 0.0
H1102 H 0.36663 0.97779 0.93583 0.0
H1103 H 0.34639 0.04844 0.97765 0.0
H1104 H 0.33448 0.08021 0.04333 0.0
H1105 H 0.38314 0.0779 0.13957 0.0
H1106 H 0.39524 0.04595 0.07515 0.0
H1107 H 0.44898 0.00161 0.71689 0.0
H1108 H 0.41692 0.00227 0.77241 0.0
H1109 H 0.43539 0.01262 0.96178 0.0
H1110 H 0.4675 0.0121 0.90663 0.0
H1111 H 0.40518 0.03782 0.9494 0.0
H1112 H 0.42364 0.96458 0.90695 0.0
H1113 H 0.43482 0.9339 0.83475 0.0
H1114 H 0.38803 0.94279 0.73028 0.0
H1115 H 0.37681 0.97391 0.80057 0.0
C1116 C 0.33368 0.00843 0.14103 0.0
C1117 C 0.31748 0.0017 0.11971 0.0
C1118 C 0.34979 0.01046 0.09605 0.0
C1119 C 0.35018 0.00645 0.02766 0.0
C1120 C 0.3339 1.00021 0.00557 0.0
C1121 C 0.31769 0.99793 0.05108 0.0
C1122 C 0.36788 0.00807 0.98077 0.0
C1123 C 0.37486 0.99113 0.93787 0.0
C1124 C 0.37883 0.02539 0.98308 0.0
C1125 C 0.37167 0.0447 0.02177 0.0
C1126 C 0.35451 0.05463 0.01311 0.0
C1127 C 0.34773 0.07268 0.05009 0.0
C1128 C 0.35803 0.08105 0.09567 0.0
C1129 C 0.37517 0.0714 0.10425 0.0
C1130 C 0.38201 0.05333 0.06742 0.0
C1131 C 0.44628 0.00406 0.77038 0.0
C1132 C 0.46095 0.00675 0.80719 0.0
C1133 C 0.42787 0.00435 0.80214 0.0
C1134 C 0.42365 0.00729 0.87155 0.0
C1135 C 0.43823 0.01031 0.90822 0.0
C1136 C 0.45664 0.00997 0.87655 0.0
C1137 C 0.40414 0.00729 0.90645 0.0
C1138 C 0.39682 0.02461 0.94688 0.0
C1139 C 0.39279 0.9905 0.9007 0.0
C1140 C 0.39949 0.97173 0.85863 0.0
C1141 C 0.41582 0.96013 0.86816 0.0
C1142 C 0.42216 0.94266 0.82755 0.0
C1143 C 0.41216 0.93645 0.77781 0.0
C1144 C 0.39577 0.94767 0.7687 0.0
C1145 C 0.38944 0.96525 0.80882 0.0
H1146 H 0.4171 0.92294 0.74636 0.0
H1147 H 0.35276 0.09502 0.12427 0.0
H1148 H 0.46886 0.30767 0.15878 0.0
H1149 H 0.46425 0.33722 0.08701 0.0
H1150 H 0.52173 0.34983 0.07936 0.0
H1151 H 0.52657 0.32021 0.14942 0.0
H1152 H 0.49023 0.38244 0.14003 0.0
H1153 H 0.51564 0.33844 0.94738 0.0
H1154 H 0.51686 0.30813 0.87082 0.0
H1155 H 0.46157 0.32534 0.83395 0.0
H1156 H 0.45997 0.35564 0.91102 0.0
H1157 H 0.51791 0.4635 0.93491 0.0
H1158 H 0.51298 0.43199 0.99671 0.0
H1159 H 0.46366 0.42328 0.90829 0.0
H1160 H 0.46885 0.45464 0.84413 0.0
H1161 H 0.48361 0.38852 0.9016 0.0
H1162 H 0.46209 0.43748 0.07523 0.0
H1163 H 0.46185 0.46832 0.14876 0.0
H1164 H 0.51011 0.44235 0.22336 0.0
H1165 H 0.51102 0.41162 0.149 0.0
C1166 C 0.48065 0.31628 0.13976 0.0
C1167 C 0.49803 0.31179 0.16027 0.0
C1168 C 0.47797 0.33319 0.09914 0.0
C1169 C 0.49263 0.34571 0.07868 0.0
C1170 C 0.51025 0.34035 0.09509 0.0
C1171 C 0.51297 0.32346 0.13511 0.0
C1172 C 0.48927 0.36587 0.04795 0.0
C1173 C 0.48895 0.38389 0.08772 0.0
C1174 C 0.48682 0.36753 0.98063 0.0
C1175 C 0.48755 0.34903 0.93594 0.0
C1176 C 0.50364 0.33556 0.92379 0.0
C1177 C 0.50444 0.31845 0.88003 0.0
C1178 C 0.48926 0.31474 0.84782 0.0
C1179 C 0.47328 0.32818 0.85915 0.0
C1180 C 0.47242 0.34532 0.90286 0.0
C1181 C 0.50582 0.45513 0.9292 0.0
C1182 C 0.49376 0.46167 0.88455 0.0
C1183 C 0.50296 0.43711 0.96498 0.0
C1184 C 0.48777 0.42539 0.95807 0.0
C1185 C 0.47542 0.43212 0.91471 0.0
C1186 C 0.4784 0.45008 0.87821 0.0
C1187 C 0.48576 0.40539 0.9925 0.0
C1188 C 0.48476 0.38729 0.95399 0.0
C1189 C 0.48715 0.40369 0.06108 0.0
C1190 C 0.48669 0.42224 0.10596 0.0
C1191 C 0.47279 0.43841 0.10674 0.0
C1192 C 0.47252 0.45589 0.14865 0.0
C1193 C 0.48595 0.45729 0.19067 0.0
C1194 C 0.49971 0.44125 0.19078 0.0
C1195 C 0.50012 0.42379 0.14869 0.0
H1196 H 0.48567 0.47081 0.22321 0.0
H1197 H 0.48992 0.30151 0.81387 0.0
H1198 H 0.22311 0.51664 0.89242 0.0
H1199 H 0.19776 0.51463 0.82521 0.0
H1200 H 0.16743 0.47957 0.97831 0.0
H1201 H 0.19261 0.4814 0.04476 0.0
H1202 H 0.16449 0.46399 0.85637 0.0
H1203 H 0.15852 0.53194 0.96633 0.0
H1204 H 0.16909 0.56626 0.9924 0.0
H1205 H 0.17489 0.5811 0.78551 0.0
H1206 H 0.16459 0.54671 0.75811 0.0
H1207 H 0.06999 0.47805 0.8298 0.0
H1208 H 0.10081 0.47784 0.86201 0.0
H1209 H 0.11885 0.51559 0.69501 0.0
H1210 H 0.08771 0.51621 0.66282 0.0
H1211 H 0.13114 0.52961 0.80394 0.0
H1212 H 0.1333 0.46355 0.69528 0.0
H1213 H 0.12244 0.42943 0.66868 0.0
H1214 H 0.12406 0.41086 0.86974 0.0
H1215 H 0.13468 0.44499 0.89785 0.0
C1216 C 0.21116 0.5082 0.911 0.0
C1217 C 0.2098 0.4993 0.97407 0.0
C1218 C 0.19662 0.5072 0.87287 0.0
C1219 C 0.18051 0.49716 0.89698 0.0
C1220 C 0.17962 0.48745 0.95852 0.0
C1221 C 0.19401 0.48857 0.99664 0.0
C1222 C 0.16416 0.49734 0.86036 0.0
C1223 C 0.15717 0.47835 0.84512 0.0
C1224 C 0.15485 0.51603 0.84362 0.0
C1225 C 0.16104 0.53666 0.86008 0.0
C1226 C 0.16221 0.54245 0.92633 0.0
C1227 C 0.16812 0.56193 0.94136 0.0
C1228 C 0.17272 0.57583 0.89061 0.0
C1229 C 0.17137 0.5703 0.82474 0.0
C1230 C 0.1655 0.55082 0.80943 0.0
C1231 C 0.08048 0.48623 0.7994 0.0
C1232 C 0.07628 0.49703 0.7433 0.0
C1233 C 0.09821 0.486 0.81781 0.0
C1234 C 0.11236 0.49639 0.78044 0.0
C1235 C 0.10825 0.50731 0.72451 0.0
C1236 C 0.09043 0.50757 0.70596 0.0
C1237 C 0.13117 0.49623 0.80158 0.0
C1238 C 0.13861 0.51522 0.81398 0.0
C1239 C 0.14096 0.47752 0.81547 0.0
C1240 C 0.13468 0.4569 0.79876 0.0
C1241 C 0.13123 0.45225 0.73395 0.0
C1242 C 0.12513 0.43289 0.71858 0.0
C1243 C 0.12253 0.418 0.76751 0.0
C1244 C 0.12607 0.42242 0.83189 0.0
C1245 C 0.13216 0.44175 0.84754 0.0
H1246 H 0.1178 0.40303 0.75552 0.0
H1247 H 0.17729 0.5909 0.90235 0.0
H1248 H 0.03098 0.77511 0.39709 0.0
H1249 H 0.03283 0.80768 0.45802 0.0
H1250 H 0.97797 0.80159 0.56462 0.0
H1251 H 0.97622 0.76859 0.50367 0.0
H1252 H 0.01147 0.84095 0.44423 0.0
H1253 H 0.97469 0.83249 0.71611 0.0
H1254 H 0.97141 0.80631 0.80337 0.0
H1255 H 0.02182 0.77339 0.71136 0.0
H1256 H 0.0256 0.79952 0.62432 0.0
H1257 H 0.98998 0.9418 0.58824 0.0
H1258 H 0.98673 0.90578 0.55427 0.0
H1259 H 0.0275 0.88474 0.67626 0.0
H1260 H 0.03059 0.92049 0.71129 0.0
H1261 H 1.00065 0.85877 0.68579 0.0
H1262 H 0.03922 0.88982 0.50854 0.0
H1263 H 0.0476 0.9158 0.42382 0.0
H1264 H 1.00108 0.90166 0.32781 0.0
H1265 H 0.99227 0.87578 0.41259 0.0
C1266 C 0.01951 0.78045 0.43481 0.0
C1267 C 1.00344 0.7694 0.44565 0.0
C1268 C 0.02053 0.79912 0.46939 0.0
C1269 C 1.00549 0.80726 0.51554 0.0
C1270 C 0.98981 0.79559 0.52959 0.0
C1271 C 0.98882 0.77674 0.49496 0.0
C1272 C 1.00564 0.82886 0.54275 0.0
C1273 C 1.00901 0.84478 0.49715 0.0
C1274 C 1.00265 0.83395 0.61179 0.0
C1275 C 1.00025 0.81782 0.66297 0.0
C1276 C 0.98506 0.81964 0.71441 0.0
C1277 C 0.98313 0.80483 0.76394 0.0
C1278 C 0.99635 0.78815 0.76271 0.0
C1279 C 0.01153 0.78626 0.71202 0.0
C1280 C 0.01355 0.80104 0.66246 0.0
C1281 C 0.99821 0.92952 0.60802 0.0
C1282 C 0.01072 0.93415 0.65185 0.0
C1283 C 0.99635 0.9089 0.58853 0.0
C1284 C 1.00702 0.8925 0.61209 0.0
C1285 C 0.0191 0.89706 0.65734 0.0
C1286 C 0.02095 0.91761 0.6769 0.0
C1287 C 1.00638 0.87072 0.58713 0.0
C1288 C 1.00287 0.85485 0.63296 0.0
C1289 C 0.00974 0.86547 0.5183 0.0
C1290 C 0.01497 0.88105 0.46733 0.0
C1291 C 0.03069 0.89238 0.46968 0.0
C1292 C 0.03553 0.90706 0.42161 0.0
C1293 C 0.02484 0.91043 0.37058 0.0
C1294 C 0.00932 0.89907 0.36745 0.0
C1295 C 1.0044 0.88439 0.41548 0.0
H1296 H 0.02862 0.92179 0.33338 0.0
H1297 H 0.99486 0.77673 0.80112 0.0
H1298 H 0.71334 0.95741 0.28916 0.0
H1299 H 0.68285 0.95905 0.35757 0.0
H1300 H 0.69735 0.01186 0.46724 0.0
H1301 H 0.72809 0.01031 0.39811 0.0
H1302 H 0.67538 0.98401 0.54796 0.0
H1303 H 0.67354 0.02099 0.34623 0.0
H1304 H 0.67991 0.025 0.22468 0.0
H1305 H 0.64609 0.97463 0.19512 0.0
H1306 H 0.63973 0.97009 0.3165 0.0
H1307 H 0.58212 0.01872 0.67331 0.0
H1308 H 0.61432 0.01621 0.61982 0.0
H1309 H 0.60177 0.96894 0.48362 0.0
H1310 H 0.56928 0.97164 0.5363 0.0
H1311 H 0.6233 0.99538 0.41778 0.0
H1312 H 0.62563 0.9576 0.61729 0.0
H1313 H 0.6208 0.95141 0.73777 0.0
H1314 H 0.65399 0.00203 0.7714 0.0
H1315 H 0.65883 0.0087 0.65106 0.0
C1316 C 0.71022 0.96909 0.32888 0.0
C1317 C 0.72313 0.9838 0.33796 0.0
C1318 C 0.69273 0.97008 0.36776 0.0
C1319 C 0.6876 0.98584 0.41673 0.0
C1320 C 0.70093 0.99962 0.42953 0.0
C1321 C 0.71855 0.99865 0.39032 0.0
C1322 C 0.66795 0.98866 0.45043 0.0
C1323 C 0.66399 0.98683 0.51972 0.0
C1324 C 0.65302 0.99193 0.41347 0.0
C1325 C 0.65631 0.99506 0.34051 0.0
C1326 C 0.66753 0.01069 0.31382 0.0
C1327 C 0.67114 0.01307 0.24495 0.0
C1328 C 0.66349 1.00001 0.20223 0.0
C1329 C 0.65205 0.9847 0.2283 0.0
C1330 C 0.64842 0.98223 0.29714 0.0
C1331 C 0.58611 0.00776 0.63192 0.0
C1332 C 0.57294 0.99538 0.60929 0.0
C1333 C 0.60467 0.00625 0.60154 0.0
C1334 C 0.6107 0.99218 0.54797 0.0
C1335 C 0.59757 0.97991 0.52486 0.0
C1336 C 0.57895 0.98142 0.55523 0.0
C1337 C 0.63058 0.99051 0.51564 0.0
C1338 C 0.63462 0.99263 0.44635 0.0
C1339 C 0.64557 0.98748 0.55268 0.0
C1340 C 0.64246 0.98376 0.62519 0.0
C1341 C 0.63175 0.96754 0.65042 0.0
C1342 C 0.62904 0.96392 0.71865 0.0
C1343 C 0.63709 0.9763 0.76215 0.0
C1344 C 0.64778 0.99243 0.7376 0.0
C1345 C 0.65052 0.99613 0.66936 0.0
H1346 H 0.63511 0.97329 0.8148 0.0
H1347 H 0.66644 0.00175 0.14893 0.0
H1348 H 0.56655 0.70223 0.32306 0.0
H1349 H 0.56753 0.67491 0.40528 0.0
H1350 H 0.5078 0.68067 0.44919 0.0
H1351 H 0.50689 0.70796 0.36724 0.0
H1352 H 0.52398 0.67182 0.56089 0.0
H1353 H 0.52805 0.647 0.33368 0.0
H1354 H 0.5417 0.64453 0.21522 0.0
H1355 H 0.59323 0.61927 0.26825 0.0
H1356 H 0.57998 0.622 0.38726 0.0
H1357 H 0.49517 0.57266 0.64284 0.0
H1358 H 0.50185 0.60563 0.59176 0.0
H1359 H 0.56049 0.58856 0.57087 0.0
H1360 H 0.55392 0.55519 0.62248 0.0
H1361 H 0.54922 0.60404 0.45498 0.0
H1362 H 0.54596 0.63337 0.68257 0.0
H1363 H 0.53285 0.64009 0.80047 0.0
H1364 H 0.47927 0.65565 0.74461 0.0
H1365 H 0.49235 0.64997 0.62599 0.0
C1366 C 0.55375 0.69822 0.3525 0.0
C1367 C 0.53666 0.70726 0.33995 0.0
C1368 C 0.55428 0.68251 0.39881 0.0
C1369 C 0.53772 0.67557 0.43257 0.0
C1370 C 0.52073 0.68581 0.42378 0.0
C1371 C 0.5202 0.70144 0.37735 0.0
C1372 C 0.53779 0.65625 0.47096 0.0
C1373 C 0.5295 0.65701 0.53768 0.0
C1374 C 0.54522 0.63694 0.44098 0.0
C1375 C 0.5531 0.63494 0.36941 0.0
C1376 C 0.54234 0.64106 0.32012 0.0
C1377 C 0.55 0.63961 0.25288 0.0
C1378 C 0.56834 0.6318 0.23423 0.0
C1379 C 0.57904 0.62537 0.28279 0.0
C1380 C 0.57147 0.62687 0.35015 0.0
C1381 C 0.50953 0.57576 0.62719 0.0
C1382 C 0.52402 0.56112 0.63627 0.0
C1383 C 0.51332 0.59481 0.5988 0.0
C1384 C 0.53167 0.59975 0.57859 0.0
C1385 C 0.54622 0.58514 0.58673 0.0
C1386 C 0.54244 0.56605 0.61587 0.0
C1387 C 0.53532 0.6196 0.54491 0.0
C1388 C 0.54413 0.61891 0.47865 0.0
C1389 C 0.52826 0.63897 0.57498 0.0
C1390 C 0.52005 0.64103 0.64585 0.0
C1391 C 0.53136 0.63807 0.69561 0.0
C1392 C 0.52397 0.64189 0.76245 0.0
C1393 C 0.50518 0.64811 0.78013 0.0
C1394 C 0.4938 0.65077 0.73088 0.0
C1395 C 0.50122 0.64746 0.66383 0.0
H1396 H 0.49946 0.65102 0.83188 0.0
H1397 H 0.57425 0.63068 0.18215 0.0
H1398 H 0.82028 0.49353 0.49217 0.0
H1399 H 0.84959 0.48803 0.5369 0.0
H1400 H 0.85406 0.55427 0.54772 0.0
H1401 H 0.8251 0.55969 0.50121 0.0
H1402 H 0.88551 0.53567 0.4866 0.0
H1403 H 0.84543 0.5233 0.6966 0.0
H1404 H 0.82035 0.5055 0.76285 0.0
H1405 H 0.84863 0.44633 0.70241 0.0
H1406 H 0.87385 0.46383 0.63577 0.0
H1407 H 0.96344 0.54153 0.65031 0.0
H1408 H 0.93209 0.5444 0.62137 0.0
H1409 H 0.929 0.47813 0.63724 0.0
H1410 H 0.96007 0.47531 0.6692 0.0
H1411 H 0.89691 0.49432 0.68154 0.0
H1412 H 0.93782 0.50397 0.48269 0.0
H1413 H 0.96294 0.5186 0.40701 0.0
H1414 H 0.93342 0.5786 0.42843 0.0
H1415 H 0.90824 0.5644 0.50509 0.0
C1416 C 0.8272 0.50691 0.50637 0.0
C1417 C 0.82023 0.52706 0.49412 0.0
C1418 C 0.84405 0.50377 0.53165 0.0
C1419 C 0.85415 0.52074 0.5462 0.0
C1420 C 0.84666 0.54089 0.53693 0.0
C1421 C 0.82997 0.54401 0.51104 0.0
C1422 C 0.873 0.51765 0.56692 0.0
C1423 C 0.88791 0.52696 0.52996 0.0
C1424 C 0.87651 0.50532 0.62118 0.0
C1425 C 0.86148 0.49484 0.66147 0.0
C1426 C 0.84624 0.50649 0.6974 0.0
C1427 C 0.83203 0.49647 0.73503 0.0
C1428 C 0.8329 0.4748 0.73685 0.0
C1429 C 0.84798 0.46311 0.70099 0.0
C1430 C 0.86225 0.47307 0.66341 0.0
C1431 C 0.95609 0.52755 0.64789 0.0
C1432 C 0.96445 0.50816 0.66154 0.0
C1433 C 0.93812 0.52918 0.63084 0.0
C1434 C 0.92814 0.51142 0.62525 0.0
C1435 C 0.93628 0.49211 0.64071 0.0
C1436 C 0.95416 0.49051 0.65884 0.0
C1437 C 0.90942 0.51301 0.60243 0.0
C1438 C 0.89456 0.50324 0.63848 0.0
C1439 C 0.90603 0.52449 0.54594 0.0
C1440 C 0.92124 0.53316 0.50033 0.0
C1441 C 0.93676 0.52033 0.47179 0.0
C1442 C 0.951 0.52854 0.42861 0.0
C1443 C 0.94981 0.54953 0.41309 0.0
C1444 C 0.93435 0.56235 0.44062 0.0
C1445 C 0.92009 0.55423 0.48393 0.0
H1446 H 0.96084 0.55585 0.37959 0.0
H1447 H 0.82189 0.46707 0.76603 0.0
loop_
_geom_bond_atom_site_label_1
_geom_bond_atom_site_label_2
_geom_bond_distance
_geom_bond_site_symmetry_2
_ccdc_geom_bond_type
H0 C3 0.929 . S
H1 C6 0.929 . S
H2 C8 0.930 . S
C3 H0 0.929 . S
C3 C4 1.398 . S
C3 C5 1.396 . S
C4 C3 1.398 . S
C4 C8 1.407 . S
C5 C3 1.396 . S
C5 C6 1.394 . S
C6 H1 0.929 . S
C6 C5 1.394 . S
C6 C7 1.382 . S
C7 C6 1.382 . S
C7 C8 1.392 . S
C7 N9 1.420 . S
C8 H2 0.930 . S
C8 C4 1.407 . S
C8 C7 1.392 . S
N9 C7 1.420 . S
N9 C10 1.244 . S
C10 N9 1.244 . S
H11 C14 0.929 . S
H12 C17 0.929 . S
H13 C19 0.935 . S
C14 H11 0.929 . S
C14 C15 1.398 . S
C14 C16 1.396 . S
C15 C14 1.398 . S
C15 C19 1.407 . S
C16 C14 1.396 . S
C16 C17 1.394 . S
C17 H12 0.929 . S
C17 C16 1.394 . S
C17 C18 1.382 . S
C18 C17 1.382 . S
C18 C19 1.392 . S
C18 N20 1.418 1_655 S
C19 H13 0.935 . S
C19 C15 1.407 . S
C19 C18 1.392 . S
N20 C18 1.418 1_455 S
N20 C21 1.214 1_455 S
C21 N20 1.214 1_655 S
H22 C25 0.929 . S
H23 C28 0.929 . S
H24 C30 0.930 . S
C25 H22 0.929 . S
C25 C26 1.404 . S
C25 C27 1.396 . S
C26 C25 1.404 . S
C26 C30 1.397 1_565 S
C27 C25 1.396 . S
C27 C28 1.394 1_565 S
C28 H23 0.929 . S
C28 C27 1.394 1_545 S
C28 C29 1.382 . S
C29 C28 1.382 . S
C29 C30 1.392 . S
C29 N31 1.420 . S
C30 H24 0.930 . S
C30 C26 1.397 1_545 S
C30 C29 1.392 . S
N31 C29 1.420 . S
N31 C32 1.244 1_545 S
C32 N31 1.244 1_565 S
H33 C36 0.929 . S
H34 C39 0.929 . S
H35 C41 0.930 . S
C36 H33 0.929 . S
C36 C37 1.398 . S
C36 C38 1.396 . S
C37 C36 1.398 . S
C37 C41 1.407 . S
C38 C36 1.396 . S
C38 C39 1.394 . S
C39 H34 0.929 . S
C39 C38 1.394 . S
C39 C40 1.382 . S
C40 C39 1.382 . S
C40 C41 1.392 . S
C40 N42 1.420 . S
C41 H35 0.930 . S
C41 C37 1.407 . S
C41 C40 1.392 . S
N42 C40 1.420 . S
N42 C43 1.244 . S
C43 N42 1.244 . S
H44 C47 0.929 . S
H45 C50 0.929 . S
H46 C52 0.930 . S
C47 H44 0.929 . S
C47 C48 1.398 . S
C47 C49 1.396 1_556 S
C48 C47 1.398 . S
C48 C52 1.407 . S
C49 C47 1.396 1_554 S
C49 C50 1.394 . S
C50 H45 0.929 . S
C50 C49 1.394 . S
C50 C51 1.382 1_554 S
C51 C50 1.382 1_556 S
C51 C52 1.392 . S
C51 N53 1.420 . S
C52 H46 0.930 . S
C52 C48 1.407 . S
C52 C51 1.392 . S
N53 C51 1.420 . S
N53 C54 1.244 1_556 S
C54 N53 1.244 1_554 S
H55 C58 0.929 . S
H56 C61 0.929 . S
H57 C63 0.930 . S
C58 H55 0.929 . S
C58 C59 1.398 . S
C58 C60 1.396 . S
C59 C58 1.398 . S
C59 C63 1.407 . S
C60 C58 1.396 . S
C60 C61 1.394 . S
C61 H56 0.929 . S
C61 C60 1.394 . S
C61 C62 1.382 . S
C62 C61 1.382 . S
C62 C63 1.392 . S
C62 N64 1.420 . S
C63 H57 0.930 . S
C63 C59 1.407 . S
C63 C62 1.392 . S
N64 C62 1.420 . S
N64 C65 1.244 . S
C65 N64 1.244 . S
H66 C69 0.929 . S
H67 C72 0.929 . S
H68 C74 0.930 . S
C69 H66 0.929 . S
C69 C70 1.398 . S
C69 C71 1.396 . S
C70 C69 1.398 . S
C70 C74 1.407 . S
C71 C69 1.396 . S
C71 C72 1.394 . S
C72 H67 0.929 . S
C72 C71 1.394 . S
C72 C73 1.382 . S
C73 C72 1.382 . S
C73 C74 1.392 . S
C73 N75 1.420 . S
C74 H68 0.930 . S
C74 C70 1.407 . S
C74 C73 1.392 . S
N75 C73 1.420 . S
N75 C76 1.244 . S
C76 N75 1.244 . S
H77 C80 0.929 . S
H78 C83 0.929 . S
H79 C85 0.930 . S
C80 H77 0.929 . S
C80 C81 1.398 . S
C80 C82 1.396 . S
C81 C80 1.398 . S
C81 C85 1.407 . S
C82 C80 1.396 . S
C82 C83 1.394 . S
C83 H78 0.929 . S
C83 C82 1.394 . S
C83 C84 1.382 . S
C84 C83 1.382 . S
C84 C85 1.392 . S
C84 N86 1.420 . S
C85 H79 0.930 . S
C85 C81 1.407 . S
C85 C84 1.392 . S
N86 C84 1.420 . S
N86 C87 1.244 . S
C87 N86 1.244 . S
Dy88 O91 2.307 1_545 S
Dy88 O93 2.395 1_655 S
Dy88 O94 2.379 . S
Dy88 O96 2.339 . S
Dy88 O98 2.298 1_655 S
Dy88 O102 2.275 1_655 S
Dy88 C110 2.738 . S
Dy89 O92 2.298 . S
Dy89 O95 2.278 1_455 S
Dy89 O97 2.307 1_565 S
Dy89 O99 2.395 . S
Dy89 O100 2.379 . S
Dy89 O103 2.339 . S
Dy89 C119 2.738 . S
C90 O102 1.257 . S
C90 O103 1.250 1_545 S
O91 Dy88 2.307 1_565 S
O91 C101 1.266 1_655 S
O92 Dy89 2.298 . S
O92 C101 1.236 . S
O93 Dy88 2.395 1_455 S
O93 C110 1.255 1_455 S
O94 Dy88 2.379 . S
O94 C110 1.249 . S
O95 Dy89 2.278 1_655 S
O95 C111 1.252 1_565 S
O96 Dy88 2.339 . S
O96 C111 1.257 . S
O97 Dy89 2.307 1_545 S
O97 C112 1.266 . S
O98 Dy88 2.298 1_455 S
O98 C112 1.236 . S
O99 Dy89 2.395 . S
O99 C119 1.255 . S
O100 Dy89 2.379 . S
O100 C119 1.249 . S
C101 O91 1.266 1_455 S
C101 O92 1.236 . S
O102 Dy88 2.275 1_455 S
O102 C90 1.257 . S
O103 Dy89 2.339 . S
O103 C90 1.250 1_565 S
C104 C107 1.344 1_655 S
C104 C108 1.328 . S
C104 C110 1.516 . S
C105 C106 1.286 1_655 S
C105 C109 1.342 . S
C106 C105 1.286 1_455 S
C106 C107 1.371 . S
C106 H120 0.930 . S
C107 C104 1.344 1_455 S
C107 C106 1.371 . S
C107 H121 0.931 . S
C108 C104 1.328 . S
C108 C109 1.433 . S
C108 H122 0.931 . S
C109 C105 1.342 . S
C109 C108 1.433 . S
C109 H123 0.933 . S
C110 Dy88 2.738 . S
C110 O93 1.255 1_655 S
C110 O94 1.249 . S
C110 C104 1.516 . S
C111 O95 1.252 1_545 S
C111 O96 1.257 . S
C112 O97 1.266 . S
C112 O98 1.236 . S
C113 C116 1.344 . S
C113 C117 1.328 . S
C113 C119 1.516 . S
C114 C115 1.304 . S
C114 C118 1.323 . S
C115 C114 1.304 . S
C115 C116 1.371 . S
C115 H124 0.930 1_455 S
C116 C113 1.344 . S
C116 C115 1.371 . S
C116 H125 0.931 1_455 S
C117 C113 1.328 . S
C117 C118 1.433 . S
C117 H126 0.931 . S
C118 C114 1.323 . S
C118 C117 1.433 . S
C118 H127 0.933 . S
C119 Dy89 2.738 . S
C119 O99 1.255 . S
C119 O100 1.249 . S
C119 C113 1.516 . S
H120 C106 0.930 . S
H121 C107 0.931 . S
H122 C108 0.931 . S
H123 C109 0.933 . S
H124 C115 0.930 1_655 S
H125 C116 0.931 1_655 S
H126 C117 0.931 . S
H127 C118 0.933 . S
Dy128 O131 2.307 . S
Dy128 O133 2.395 1_565 S
Dy128 O134 2.379 . S
Dy128 O136 2.339 . S
Dy128 O138 2.298 . S
Dy128 O142 2.275 1_565 S
Dy128 C150 2.738 . S
Dy129 O132 2.298 . S
Dy129 O135 2.275 1_545 S
Dy129 O137 2.307 . S
Dy129 O139 2.395 1_545 S
Dy129 O140 2.379 . S
Dy129 O143 2.339 . S
Dy129 C159 2.738 . S
C130 O142 1.254 . S
C130 O143 1.257 . S
O131 Dy128 2.307 . S
O131 C141 1.266 . S
O132 Dy129 2.298 . S
O132 C141 1.236 1_545 S
O133 Dy128 2.395 1_545 S
O133 C150 1.255 1_545 S
O134 Dy128 2.379 . S
O134 C150 1.249 . S
O135 Dy129 2.275 1_565 S
O135 C151 1.254 . S
O136 Dy128 2.339 . S
O136 C151 1.257 . S
O137 Dy129 2.307 . S
O137 C152 1.266 . S
O138 Dy128 2.298 . S
O138 C152 1.236 1_565 S
O139 Dy129 2.395 1_565 S
O139 C159 1.255 1_565 S
O140 Dy129 2.379 . S
O140 C159 1.249 . S
C141 O131 1.266 . S
C141 O132 1.236 1_565 S
O142 Dy128 2.275 1_545 S
O142 C130 1.254 . S
O143 Dy129 2.339 . S
O143 C130 1.257 . S
C144 C147 1.344 1_565 S
C144 C148 1.328 . S
C144 C150 1.516 . S
C145 C146 1.304 1_565 S
C145 C149 1.323 . S
C146 C145 1.304 1_545 S
C146 C147 1.371 . S
C146 H160 0.930 . S
C147 C144 1.344 1_545 S
C147 C146 1.371 . S
C147 H161 0.931 . S
C148 C144 1.328 . S
C148 C149 1.433 . S
C148 H162 0.931 . S
C149 C145 1.323 . S
C149 C148 1.433 . S
C149 H163 0.933 . S
C150 Dy128 2.738 . S
C150 O133 1.255 1_565 S
C150 O134 1.249 . S
C150 C144 1.516 . S
C151 O135 1.254 . S
C151 O136 1.257 . S
C152 O137 1.266 . S
C152 O138 1.236 1_545 S
C153 C156 1.344 1_545 S
C153 C157 1.328 . S
C153 C159 1.516 . S
C154 C155 1.268 1_545 S
C154 C158 1.323 . S
C155 C154 1.268 1_565 S
C155 C156 1.375 . S
C155 H164 0.966 . S
C156 C153 1.344 1_565 S
C156 C155 1.375 . S
C156 H165 0.931 . S
C157 C153 1.328 . S
C157 C158 1.433 . S
C157 H166 0.931 . S
C158 C154 1.323 . S
C158 C157 1.433 . S
C158 H167 0.933 . S
C159 Dy129 2.738 . S
C159 O139 1.255 1_545 S
C159 O140 1.249 . S
C159 C153 1.516 . S
H160 C146 0.930 . S
H161 C147 0.931 . S
H162 C148 0.931 . S
H163 C149 0.933 . S
H164 C155 0.966 . S
H165 C156 0.931 . S
H166 C157 0.931 . S
H167 C158 0.933 . S
Dy168 O171 2.307 . S
Dy168 O173 2.395 . S
Dy168 O174 2.379 . S
Dy168 O176 2.339 . S
Dy168 O178 2.298 . S
Dy168 O182 2.275 . S
Dy168 C190 2.738 . S
Dy169 O172 2.298 . S
Dy169 O175 2.275 . S
Dy169 O177 2.307 . S
Dy169 O179 2.395 . S
Dy169 O180 2.379 . S
Dy169 O183 2.339 . S
Dy169 C199 2.738 . S
C170 O182 1.254 . S
C170 O183 1.257 . S
O171 Dy168 2.307 . S
O171 C181 1.266 . S
O172 Dy169 2.298 . S
O172 C181 1.236 . S
O173 Dy168 2.395 . S
O173 C190 1.255 . S
O174 Dy168 2.379 . S
O174 C190 1.249 . S
O175 Dy169 2.275 . S
O175 C191 1.254 . S
O176 Dy168 2.339 . S
O176 C191 1.257 . S
O177 Dy169 2.307 . S
O177 C192 1.266 . S
O178 Dy168 2.298 . S
O178 C192 1.236 . S
O179 Dy169 2.395 . S
O179 C199 1.255 . S
O180 Dy169 2.379 . S
O180 C199 1.249 . S
C181 O171 1.266 . S
C181 O172 1.236 . S
O182 Dy168 2.275 . S
O182 C170 1.254 . S
O183 Dy169 2.339 . S
O183 C170 1.257 . S
C184 C187 1.344 . S
C184 C188 1.328 . S
C184 C190 1.516 . S
C185 C186 1.304 . S
C185 C189 1.323 . S
C186 C185 1.304 . S
C186 C187 1.371 . S
C186 H200 0.930 . S
C187 C184 1.344 . S
C187 C186 1.371 . S
C187 H201 0.931 . S
C188 C184 1.328 . S
C188 C189 1.433 . S
C188 H202 0.931 . S
C189 C185 1.323 . S
C189 C188 1.433 . S
C189 H203 0.933 . S
C190 Dy168 2.738 . S
C190 O173 1.255 . S
C190 O174 1.249 . S
C190 C184 1.516 . S
C191 O175 1.254 . S
C191 O176 1.257 . S
C192 O177 1.266 . S
C192 O178 1.236 . S
C193 C196 1.344 . S
C193 C197 1.328 . S
C193 C199 1.516 . S
C194 C195 1.304 . S
C194 C198 1.323 . S
C195 C194 1.304 . S
C195 C196 1.371 . S
C195 H204 0.930 . S
C196 C193 1.344 . S
C196 C195 1.371 . S
C196 H205 0.931 . S
C197 C193 1.328 . S
C197 C198 1.433 . S
C197 H206 0.931 . S
C198 C194 1.323 . S
C198 C197 1.433 . S
C198 H207 0.933 . S
C199 Dy169 2.738 . S
C199 O179 1.255 . S
C199 O180 1.249 . S
C199 C193 1.516 . S
H200 C186 0.930 . S
H201 C187 0.931 . S
H202 C188 0.931 . S
H203 C189 0.933 . S
H204 C195 0.930 . S
H205 C196 0.931 . S
H206 C197 0.931 . S
H207 C198 0.933 . S
Dy208 O211 2.307 1_455 S
Dy208 O213 2.395 . S
Dy208 O214 2.379 . S
Dy208 O216 2.339 . S
Dy208 O218 2.298 . S
Dy208 O222 2.275 . S
Dy208 C230 2.738 . S
Dy209 O212 2.298 . S
Dy209 O215 2.275 1_655 S
Dy209 O217 2.307 1_655 S
Dy209 O219 2.395 . S
Dy209 O220 2.379 . S
Dy209 O223 2.339 . S
Dy209 C239 2.738 . S
C210 O222 1.254 . S
C210 O223 1.257 1_455 S
O211 Dy208 2.307 1_655 S
O211 C221 1.266 . S
O212 Dy209 2.298 . S
O212 C221 1.236 . S
O213 Dy208 2.395 . S
O213 C230 1.255 . S
O214 Dy208 2.379 . S
O214 C230 1.249 . S
O215 Dy209 2.275 1_455 S
O215 C231 1.254 . S
O216 Dy208 2.339 . S
O216 C231 1.257 . S
O217 Dy209 2.307 1_455 S
O217 C232 1.266 . S
O218 Dy208 2.298 . S
O218 C232 1.236 . S
O219 Dy209 2.395 . S
O219 C239 1.255 . S
O220 Dy209 2.379 . S
O220 C239 1.249 . S
C221 O211 1.266 . S
C221 O212 1.236 . S
O222 Dy208 2.275 . S
O222 C210 1.254 . S
O223 Dy209 2.339 . S
O223 C210 1.257 1_655 S
C224 C227 1.344 . S
C224 C228 1.328 . S
C224 C230 1.516 . S
C225 C226 1.304 . S
C225 C229 1.323 . S
C226 C225 1.304 . S
C226 C227 1.371 . S
C226 H240 0.930 . S
C227 C224 1.344 . S
C227 C226 1.371 . S
C227 H241 0.931 . S
C228 C224 1.328 . S
C228 C229 1.433 . S
C228 H242 0.931 . S
C229 C225 1.323 . S
C229 C228 1.433 . S
C229 H243 0.933 . S
C230 Dy208 2.738 . S
C230 O213 1.255 . S
C230 O214 1.249 . S
C230 C224 1.516 . S
C231 O215 1.254 . S
C231 O216 1.257 . S
C232 O217 1.266 . S
C232 O218 1.236 . S
C233 C236 1.344 . S
C233 C237 1.328 . S
C233 C239 1.516 . S
C234 C235 1.304 1_554 S
C234 C238 1.323 1_554 S
C235 C234 1.304 1_556 S
C235 C236 1.371 . S
C235 H244 0.930 1_556 S
C236 C233 1.344 . S
C236 C235 1.371 . S
C236 H245 0.931 . S
C237 C233 1.328 . S
C237 C238 1.433 . S
C237 H246 0.931 . S
C238 C234 1.323 1_556 S
C238 C237 1.433 . S
C238 H247 0.933 . S
C239 Dy209 2.738 . S
C239 O219 1.255 . S
C239 O220 1.249 . S
C239 C233 1.516 . S
H240 C226 0.930 . S
H241 C227 0.931 . S
H242 C228 0.931 . S
H243 C229 0.933 . S
H244 C235 0.930 1_554 S
H245 C236 0.931 . S
H246 C237 0.931 . S
H247 C238 0.933 . S
H248 C266 0.951 . S
H249 C268 0.951 . S
H250 C270 0.950 . S
H251 C271 0.950 . S
H252 C273 0.950 . S
H253 C276 0.950 . S
H254 C277 0.950 . S
H255 C279 0.950 . S
H256 C280 0.950 . S
H257 C281 0.951 . S
H258 C283 0.951 . S
H259 C285 0.950 . S
H260 C286 0.950 . S
H261 C288 0.950 . S
H262 C291 0.950 . S
H263 C292 0.950 . S
H264 C294 0.950 . S
H265 C295 0.950 . S
C266 H248 0.951 . S
C266 C267 1.366 . S
C266 C268 1.388 . S
C267 C266 1.366 . S
C267 C271 1.385 1_545 S
C268 H249 0.951 . S
C268 C266 1.388 . S
C268 C269 1.366 . S
C269 C268 1.366 . S
C269 C270 1.414 1_545 S
C269 C272 1.499 . S
C270 H250 0.950 . S
C270 C269 1.414 1_565 S
C270 C271 1.374 . S
C271 H251 0.950 . S
C271 C267 1.385 1_565 S
C271 C270 1.374 . S
C272 C269 1.499 . S
C272 C273 1.373 . S
C272 C274 1.389 . S
C273 H252 0.950 . S
C273 C272 1.373 . S
C273 C289 1.377 . S
C274 C272 1.389 . S
C274 C275 1.524 . S
C274 C288 1.377 . S
C275 C274 1.524 . S
C275 C276 1.397 1_545 S
C275 C280 1.363 . S
C276 H253 0.950 . S
C276 C275 1.397 1_565 S
C276 C277 1.334 . S
C277 H254 0.950 . S
C277 C276 1.334 . S
C277 C278 1.283 1_565 S
C278 C277 1.283 1_545 S
C278 C279 1.528 . S
C278 H297 0.913 1_545 S
C279 H255 0.950 . S
C279 C278 1.528 . S
C279 C280 1.415 . S
C280 H256 0.950 . S
C280 C275 1.363 . S
C280 C279 1.415 . S
C281 H257 0.951 . S
C281 C282 1.366 1_565 S
C281 C283 1.388 . S
C282 C281 1.366 1_545 S
C282 C286 1.385 . S
C283 H258 0.951 . S
C283 C281 1.388 . S
C283 C284 1.366 1_565 S
C284 C283 1.366 1_545 S
C284 C285 1.414 . S
C284 C287 1.499 . S
C285 H259 0.950 . S
C285 C284 1.414 . S
C285 C286 1.374 . S
C286 H260 0.950 . S
C286 C282 1.385 . S
C286 C285 1.374 . S
C287 C284 1.499 . S
C287 C288 1.373 . S
C287 C289 1.389 . S
C288 H261 0.950 . S
C288 C274 1.377 . S
C288 C287 1.373 . S
C289 C273 1.377 . S
C289 C287 1.389 . S
C289 C290 1.524 . S
C290 C289 1.524 . S
C290 C291 1.397 . S
C290 C295 1.363 1_545 S
C291 H262 0.950 . S
C291 C290 1.397 . S
C291 C292 1.334 . S
C292 H263 0.950 . S
C292 C291 1.334 . S
C292 C293 1.287 . S
C293 C292 1.287 . S
C293 C294 1.524 1_545 S
C293 H296 0.999 . S
C294 H264 0.950 . S
C294 C293 1.524 1_565 S
C294 C295 1.415 . S
C295 H265 0.950 . S
C295 C290 1.363 1_565 S
C295 C294 1.415 . S
H296 C293 0.999 . S
H297 C278 0.913 1_565 S
H298 C316 0.951 . S
H299 C318 0.951 . S
H300 C320 0.950 . S
H301 C321 0.950 . S
H302 C323 0.950 . S
H303 C326 0.950 . S
H304 C327 0.950 . S
H305 C329 0.950 . S
H306 C330 0.950 . S
H307 C331 0.951 . S
H308 C333 0.951 . S
H309 C335 0.950 . S
H310 C336 0.950 . S
H311 C338 0.950 . S
H312 C341 0.950 . S
H313 C342 0.950 . S
H314 C344 0.950 . S
H315 C345 0.950 . S
C316 H298 0.951 . S
C316 C317 1.366 . S
C316 C318 1.388 . S
C317 C316 1.366 . S
C317 C321 1.385 . S
C318 H299 0.951 . S
C318 C316 1.388 . S
C318 C319 1.366 . S
C319 C318 1.366 . S
C319 C320 1.414 . S
C319 C322 1.499 . S
C320 H300 0.950 . S
C320 C319 1.414 . S
C320 C321 1.374 . S
C321 H301 0.950 . S
C321 C317 1.385 . S
C321 C320 1.374 . S
C322 C319 1.499 . S
C322 C323 1.373 . S
C322 C324 1.389 . S
C323 H302 0.950 . S
C323 C322 1.373 . S
C323 C339 1.377 . S
C324 C322 1.389 . S
C324 C325 1.524 . S
C324 C338 1.377 . S
C325 C324 1.524 . S
C325 C326 1.397 . S
C325 C330 1.363 . S
C326 H303 0.950 . S
C326 C325 1.397 . S
C326 C327 1.334 . S
C327 H304 0.950 . S
C327 C326 1.334 . S
C327 C328 1.287 . S
C328 C327 1.287 . S
C328 C329 1.524 . S
C328 H347 0.913 . S
C329 H305 0.950 . S
C329 C328 1.524 . S
C329 C330 1.415 . S
C330 H306 0.950 . S
C330 C325 1.363 . S
C330 C329 1.415 . S
C331 H307 0.951 . S
C331 C332 1.366 . S
C331 C333 1.388 . S
C332 C331 1.366 . S
C332 C336 1.385 . S
C333 H308 0.951 . S
C333 C331 1.388 . S
C333 C334 1.366 . S
C334 C333 1.366 . S
C334 C335 1.414 . S
C334 C337 1.499 . S
C335 H309 0.950 . S
C335 C334 1.414 . S
C335 C336 1.374 . S
C336 H310 0.950 . S
C336 C332 1.385 . S
C336 C335 1.374 . S
C337 C334 1.499 . S
C337 C338 1.373 . S
C337 C339 1.389 . S
C338 H311 0.950 . S
C338 C324 1.377 . S
C338 C337 1.373 . S
C339 C323 1.377 . S
C339 C337 1.389 . S
C339 C340 1.524 . S
C340 C339 1.524 . S
C340 C341 1.397 . S
C340 C345 1.363 . S
C341 H312 0.950 . S
C341 C340 1.397 . S
C341 C342 1.334 . S
C342 H313 0.950 . S
C342 C341 1.334 . S
C342 C343 1.287 . S
C343 C342 1.287 . S
C343 C344 1.524 . S
C343 H346 0.999 . S
C344 H314 0.950 . S
C344 C343 1.524 . S
C344 C345 1.415 . S
C345 H315 0.950 . S
C345 C340 1.363 . S
C345 C344 1.415 . S
H346 C343 0.999 . S
H347 C328 0.913 . S
H348 C366 0.951 . S
H349 C368 0.951 . S
H350 C370 0.950 . S
H351 C371 0.950 . S
H352 C373 0.950 . S
H353 C376 0.950 . S
H354 C377 0.950 . S
H355 C379 0.950 . S
H356 C380 0.950 . S
H357 C381 0.951 . S
H358 C383 0.951 . S
H359 C385 0.950 . S
H360 C386 0.950 . S
H361 C388 0.950 . S
H362 C391 0.950 . S
H363 C392 0.950 . S
H364 C394 0.950 . S
H365 C395 0.950 . S
C366 H348 0.951 . S
C366 C367 1.366 . S
C366 C368 1.388 . S
C367 C366 1.366 . S
C367 C371 1.385 . S
C368 H349 0.951 . S
C368 C366 1.388 . S
C368 C369 1.366 . S
C369 C368 1.366 . S
C369 C370 1.414 . S
C369 C372 1.499 . S
C370 H350 0.950 . S
C370 C369 1.414 . S
C370 C371 1.374 . S
C371 H351 0.950 . S
C371 C367 1.385 . S
C371 C370 1.374 . S
C372 C369 1.499 . S
C372 C373 1.373 . S
C372 C374 1.389 . S
C373 H352 0.950 . S
C373 C372 1.373 . S
C373 C389 1.377 . S
C374 C372 1.389 . S
C374 C375 1.524 . S
C374 C388 1.377 . S
C375 C374 1.524 . S
C375 C376 1.397 . S
C375 C380 1.363 . S
C376 H353 0.950 . S
C376 C375 1.397 . S
C376 C377 1.334 . S
C377 H354 0.950 . S
C377 C376 1.334 . S
C377 C378 1.287 . S
C378 C377 1.287 . S
C378 C379 1.524 . S
C378 H397 0.913 . S
C379 H355 0.950 . S
C379 C378 1.524 . S
C379 C380 1.415 . S
C380 H356 0.950 . S
C380 C375 1.363 . S
C380 C379 1.415 . S
C381 H357 0.951 . S
C381 C382 1.366 . S
C381 C383 1.388 . S
C382 C381 1.366 . S
C382 C386 1.385 . S
C383 H358 0.951 . S
C383 C381 1.388 . S
C383 C384 1.366 . S
C384 C383 1.366 . S
C384 C385 1.414 . S
C384 C387 1.499 . S
C385 H359 0.950 . S
C385 C384 1.414 . S
C385 C386 1.374 . S
C386 H360 0.950 . S
C386 C382 1.385 . S
C386 C385 1.374 . S
C387 C384 1.499 . S
C387 C388 1.373 . S
C387 C389 1.389 . S
C388 H361 0.950 . S
C388 C374 1.377 . S
C388 C387 1.373 . S
C389 C373 1.377 . S
C389 C387 1.389 . S
C389 C390 1.524 . S
C390 C389 1.524 . S
C390 C391 1.397 . S
C390 C395 1.363 . S
C391 H362 0.950 . S
C391 C390 1.397 . S
C391 C392 1.334 . S
C392 H363 0.950 . S
C392 C391 1.334 . S
C392 C393 1.287 . S
C393 C392 1.287 . S
C393 C394 1.524 . S
C393 H396 0.999 . S
C394 H364 0.950 . S
C394 C393 1.524 . S
C394 C395 1.415 . S
C395 H365 0.950 . S
C395 C390 1.363 . S
C395 C394 1.415 . S
H396 C393 0.999 . S
H397 C378 0.913 . S
H398 C416 0.951 . S
H399 C418 0.951 . S
H400 C420 0.950 1_655 S
H401 C421 0.935 1_655 S
H402 C423 0.950 . S
H403 C426 0.950 1_655 S
H404 C427 0.950 . S
H405 C429 0.950 . S
H406 C430 0.950 . S
H407 C431 0.957 . S
H408 C433 0.951 1_655 S
H409 C435 0.950 . S
H410 C436 0.950 . S
H411 C438 0.950 . S
H412 C441 0.950 . S
H413 C442 0.950 . S
H414 C444 0.950 1_655 S
H415 C445 0.950 1_655 S
C416 H398 0.951 . S
C416 C417 1.366 . S
C416 C418 1.388 . S
C417 C416 1.366 . S
C417 C421 1.385 . S
C418 H399 0.951 . S
C418 C416 1.388 . S
C418 C419 1.366 . S
C419 C418 1.366 . S
C419 C420 1.414 . S
C419 C422 1.499 . S
C420 H400 0.950 1_455 S
C420 C419 1.414 . S
C420 C421 1.374 . S
C421 H401 0.935 1_455 S
C421 C417 1.385 . S
C421 C420 1.374 . S
C422 C419 1.499 . S
C422 C423 1.373 . S
C422 C424 1.389 . S
C423 H402 0.950 . S
C423 C422 1.373 . S
C423 C439 1.377 . S
C424 C422 1.389 . S
C424 C425 1.524 . S
C424 C438 1.377 . S
C425 C424 1.524 . S
C425 C426 1.397 . S
C425 C430 1.363 . S
C426 H403 0.950 1_455 S
C426 C425 1.397 . S
C426 C427 1.334 1_455 S
C427 H404 0.950 . S
C427 C426 1.334 1_655 S
C427 C428 1.287 1_655 S
C428 C427 1.287 1_455 S
C428 C429 1.524 . S
C428 H447 0.913 . S
C429 H405 0.950 . S
C429 C428 1.524 . S
C429 C430 1.415 . S
C430 H406 0.950 . S
C430 C425 1.363 . S
C430 C429 1.415 . S
C431 H407 0.957 . S
C431 C432 1.359 1_655 S
C431 C433 1.389 1_655 S
C432 C431 1.359 1_455 S
C432 C436 1.385 . S
C433 H408 0.951 1_455 S
C433 C431 1.389 1_455 S
C433 C434 1.366 . S
C434 C433 1.366 . S
C434 C435 1.414 . S
C434 C437 1.499 . S
C435 H409 0.950 . S
C435 C434 1.414 . S
C435 C436 1.374 . S
C436 H410 0.950 . S
C436 C432 1.385 . S
C436 C435 1.374 . S
C437 C434 1.499 . S
C437 C438 1.373 . S
C437 C439 1.389 . S
C438 H411 0.950 . S
C438 C424 1.377 . S
C438 C437 1.373 . S
C439 C423 1.377 . S
C439 C437 1.389 . S
C439 C440 1.524 . S
C440 C439 1.524 . S
C440 C441 1.397 . S
C440 C445 1.363 . S
C441 H412 0.950 . S
C441 C440 1.397 . S
C441 C442 1.334 . S
C442 H413 0.950 . S
C442 C441 1.334 . S
C442 C443 1.287 . S
C443 C442 1.287 . S
C443 C444 1.524 . S
C443 H446 0.999 . S
C444 H414 0.950 1_455 S
C444 C443 1.524 . S
C444 C445 1.415 . S
C445 H415 0.950 1_455 S
C445 C440 1.363 . S
C445 C444 1.415 . S
H446 C443 0.999 . S
H447 C428 0.913 . S
H448 C466 0.951 . S
H449 C468 0.951 . S
H450 C470 0.950 . S
H451 C471 0.950 . S
H452 C473 0.950 . S
H453 C476 0.950 . S
H454 C477 0.950 . S
H455 C479 0.950 . S
H456 C480 0.950 . S
H457 C481 0.951 . S
H458 C483 0.951 . S
H459 C485 0.950 . S
H460 C486 0.950 . S
H461 C488 0.950 . S
H462 C491 0.950 . S
H463 C492 0.950 . S
H464 C494 0.950 . S
H465 C495 0.950 . S
C466 H448 0.951 . S
C466 C467 1.366 . S
C466 C468 1.388 . S
C467 C466 1.366 . S
C467 C471 1.385 1_565 S
C468 H449 0.951 . S
C468 C466 1.388 . S
C468 C469 1.366 . S
C469 C468 1.366 . S
C469 C470 1.414 1_565 S
C469 C472 1.499 . S
C470 H450 0.950 . S
C470 C469 1.414 1_545 S
C470 C471 1.374 . S
C471 H451 0.950 . S
C471 C467 1.385 1_545 S
C471 C470 1.374 . S
C472 C469 1.499 . S
C472 C473 1.373 1_565 S
C472 C474 1.389 1_554 S
C473 H452 0.950 . S
C473 C472 1.373 1_545 S
C473 C489 1.377 . S
C474 C472 1.389 1_556 S
C474 C475 1.524 . S
C474 C488 1.377 . S
C475 C474 1.524 . S
C475 C476 1.397 1_556 S
C475 C480 1.363 . S
C476 H453 0.950 . S
C476 C475 1.397 1_554 S
C476 C477 1.334 . S
C477 H454 0.950 . S
C477 C476 1.334 . S
C477 C478 1.287 1_554 S
C478 C477 1.287 1_556 S
C478 C479 1.524 . S
C478 H497 0.913 . S
C479 H455 0.950 . S
C479 C478 1.524 . S
C479 C480 1.415 . S
C480 H456 0.950 . S
C480 C475 1.363 . S
C480 C479 1.415 . S
C481 H457 0.951 . S
C481 C482 1.366 . S
C481 C483 1.388 . S
C482 C481 1.366 . S
C482 C486 1.385 1_545 S
C483 H458 0.951 . S
C483 C481 1.388 . S
C483 C484 1.366 . S
C484 C483 1.366 . S
C484 C485 1.414 1_545 S
C484 C487 1.499 . S
C485 H459 0.950 . S
C485 C484 1.414 1_565 S
C485 C486 1.374 . S
C486 H460 0.950 . S
C486 C482 1.385 1_565 S
C486 C485 1.374 . S
C487 C484 1.499 . S
C487 C488 1.373 1_545 S
C487 C489 1.389 1_556 S
C488 H461 0.950 . S
C488 C474 1.377 . S
C488 C487 1.373 1_565 S
C489 C473 1.377 . S
C489 C487 1.389 1_554 S
C489 C490 1.524 . S
C490 C489 1.524 . S
C490 C491 1.397 1_554 S
C490 C495 1.363 . S
C491 H462 0.950 . S
C491 C490 1.397 1_556 S
C491 C492 1.334 . S
C492 H463 0.950 . S
C492 C491 1.334 . S
C492 C493 1.287 1_556 S
C493 C492 1.287 1_554 S
C493 C494 1.524 . S
C493 H496 0.999 . S
C494 H464 0.950 . S
C494 C493 1.524 . S
C494 C495 1.415 . S
C495 H465 0.950 . S
C495 C490 1.363 . S
C495 C494 1.415 . S
H496 C493 0.999 . S
H497 C478 0.913 . S
H498 C516 0.951 . S
H499 C518 0.951 . S
H500 C520 0.950 . S
H501 C521 0.950 . S
H502 C523 0.950 1_554 S
H503 C526 0.950 . S
H504 C527 0.950 . S
H505 C529 0.950 . S
H506 C530 0.950 . S
H507 C531 0.951 . S
H508 C533 0.951 . S
H509 C535 0.950 . S
H510 C536 0.950 . S
H511 C538 0.950 . S
H512 C541 0.950 . S
H513 C542 0.950 1_556 S
H514 C544 0.950 . S
H515 C545 0.950 . S
C516 H498 0.951 . S
C516 C517 1.366 1_556 S
C516 C518 1.388 . S
C517 C516 1.366 1_554 S
C517 C521 1.385 . S
C518 H499 0.951 . S
C518 C516 1.388 . S
C518 C519 1.366 . S
C519 C518 1.366 . S
C519 C520 1.414 1_556 S
C519 C522 1.499 . S
C520 H500 0.950 . S
C520 C519 1.414 1_554 S
C520 C521 1.374 . S
C521 H501 0.950 . S
C521 C517 1.385 . S
C521 C520 1.374 . S
C522 C519 1.499 . S
C522 C523 1.373 . S
C522 C524 1.389 . S
C523 H502 0.950 1_556 S
C523 C522 1.373 . S
C523 C539 1.377 . S
C524 C522 1.389 . S
C524 C525 1.524 . S
C524 C538 1.377 . S
C525 C524 1.524 . S
C525 C526 1.397 . S
C525 C530 1.363 . S
C526 H503 0.950 . S
C526 C525 1.397 . S
C526 C527 1.334 . S
C527 H504 0.950 . S
C527 C526 1.334 . S
C527 C528 1.287 . S
C528 C527 1.287 . S
C528 C529 1.524 . S
C528 H547 0.913 . S
C529 H505 0.950 . S
C529 C528 1.524 . S
C529 C530 1.415 . S
C530 H506 0.950 . S
C530 C525 1.363 . S
C530 C529 1.415 . S
C531 H507 0.951 . S
C531 C532 1.366 . S
C531 C533 1.388 . S
C532 C531 1.366 . S
C532 C536 1.385 . S
C533 H508 0.951 . S
C533 C531 1.388 . S
C533 C534 1.366 . S
C534 C533 1.366 . S
C534 C535 1.414 . S
C534 C537 1.499 . S
C535 H509 0.950 . S
C535 C534 1.414 . S
C535 C536 1.374 . S
C536 H510 0.950 . S
C536 C532 1.385 . S
C536 C535 1.374 . S
C537 C534 1.499 . S
C537 C538 1.373 . S
C537 C539 1.389 . S
C538 H511 0.950 . S
C538 C524 1.377 . S
C538 C537 1.373 . S
C539 C523 1.377 . S
C539 C537 1.389 . S
C539 C540 1.524 . S
C540 C539 1.524 . S
C540 C541 1.397 . S
C540 C545 1.363 1_556 S
C541 H512 0.950 . S
C541 C540 1.397 . S
C541 C542 1.334 1_556 S
C542 H513 0.950 1_554 S
C542 C541 1.334 1_554 S
C542 C543 1.287 . S
C543 C542 1.287 . S
C543 C544 1.524 . S
C543 H546 0.999 . S
C544 H514 0.950 . S
C544 C543 1.524 . S
C544 C545 1.415 . S
C545 H515 0.950 . S
C545 C540 1.363 1_554 S
C545 C544 1.415 . S
H546 C543 0.999 . S
H547 C528 0.913 . S
H548 C566 0.951 . S
H549 C568 0.951 . S
H550 C570 0.950 . S
H551 C571 0.950 . S
H552 C573 0.950 . S
H553 C576 0.950 . S
H554 C577 0.950 . S
H555 C579 0.950 . S
H556 C580 0.950 . S
H557 C581 0.951 . S
H558 C583 0.951 1_556 S
H559 C585 0.950 . S
H560 C586 0.950 . S
H561 C588 0.950 . S
H562 C591 0.950 . S
H563 C592 0.950 . S
H564 C594 0.950 . S
H565 C595 0.950 . S
C566 H548 0.951 . S
C566 C567 1.366 . S
C566 C568 1.388 . S
C567 C566 1.366 . S
C567 C571 1.385 . S
C568 H549 0.951 . S
C568 C566 1.388 . S
C568 C569 1.366 . S
C569 C568 1.366 . S
C569 C570 1.414 . S
C569 C572 1.499 . S
C570 H550 0.950 . S
C570 C569 1.414 . S
C570 C571 1.374 . S
C571 H551 0.950 . S
C571 C567 1.385 . S
C571 C570 1.374 . S
C572 C569 1.499 . S
C572 C573 1.373 . S
C572 C574 1.389 . S
C573 H552 0.950 . S
C573 C572 1.373 . S
C573 C589 1.377 . S
C574 C572 1.389 . S
C574 C575 1.524 . S
C574 C588 1.377 . S
C575 C574 1.524 . S
C575 C576 1.397 . S
C575 C580 1.363 . S
C576 H553 0.950 . S
C576 C575 1.397 . S
C576 C577 1.334 . S
C577 H554 0.950 . S
C577 C576 1.334 . S
C577 C578 1.287 . S
C578 C577 1.287 . S
C578 C579 1.524 . S
C578 H597 0.913 . S
C579 H555 0.950 . S
C579 C578 1.524 . S
C579 C580 1.415 . S
C580 H556 0.950 . S
C580 C575 1.363 . S
C580 C579 1.415 . S
C581 H557 0.951 . S
C581 C582 1.366 . S
C581 C583 1.388 1_556 S
C582 C581 1.366 . S
C582 C586 1.385 1_556 S
C583 H558 0.951 1_554 S
C583 C581 1.388 1_554 S
C583 C584 1.366 . S
C584 C583 1.366 . S
C584 C585 1.414 . S
C584 C587 1.499 . S
C585 H559 0.950 . S
C585 C584 1.414 . S
C585 C586 1.374 . S
C586 H560 0.950 . S
C586 C582 1.385 1_554 S
C586 C585 1.374 . S
C587 C584 1.499 . S
C587 C588 1.373 . S
C587 C589 1.389 . S
C588 H561 0.950 . S
C588 C574 1.377 . S
C588 C587 1.373 . S
C589 C573 1.377 . S
C589 C587 1.389 . S
C589 C590 1.524 . S
C590 C589 1.524 . S
C590 C591 1.397 . S
C590 C595 1.363 . S
C591 H562 0.950 . S
C591 C590 1.397 . S
C591 C592 1.334 1_554 S
C592 H563 0.950 . S
C592 C591 1.334 1_556 S
C592 C593 1.287 . S
C593 C592 1.287 . S
C593 C594 1.524 . S
C593 H596 0.999 . S
C594 H564 0.950 . S
C594 C593 1.524 . S
C594 C595 1.415 1_556 S
C595 H565 0.950 . S
C595 C590 1.363 . S
C595 C594 1.415 1_554 S
H596 C593 0.999 . S
H597 C578 0.913 . S
H598 C616 0.958 . S
H599 C618 0.951 . S
H600 C620 0.950 . S
H601 C621 0.950 . S
H602 C623 0.950 . S
H603 C626 0.950 . S
H604 C627 0.950 . S
H605 C629 0.950 . S
H606 C630 0.950 . S
H607 C631 0.951 . S
H608 C633 0.951 . S
H609 C635 0.950 . S
H610 C636 0.950 . S
H611 C638 0.950 . S
H612 C641 0.950 1_556 S
H613 C642 0.950 1_556 S
H614 C644 0.950 . S
H615 C645 0.950 . S
C616 H598 0.958 . S
C616 C617 1.362 1_455 S
C616 C618 1.386 . S
C617 C616 1.362 1_655 S
C617 C621 1.385 . S
C618 H599 0.951 . S
C618 C616 1.386 . S
C618 C619 1.366 1_455 S
C619 C618 1.366 1_655 S
C619 C620 1.414 . S
C619 C622 1.499 . S
C620 H600 0.950 . S
C620 C619 1.414 . S
C620 C621 1.374 . S
C621 H601 0.950 . S
C621 C617 1.385 . S
C621 C620 1.374 . S
C622 C619 1.499 . S
C622 C623 1.373 1_655 S
C622 C624 1.389 . S
C623 H602 0.950 . S
C623 C622 1.373 1_455 S
C623 C639 1.377 . S
C624 C622 1.389 . S
C624 C625 1.524 . S
C624 C638 1.377 1_554 S
C625 C624 1.524 . S
C625 C626 1.397 . S
C625 C630 1.363 1_554 S
C626 H603 0.950 . S
C626 C625 1.397 . S
C626 C627 1.334 . S
C627 H604 0.950 . S
C627 C626 1.334 . S
C627 C628 1.287 . S
C628 C627 1.287 . S
C628 C629 1.524 1_554 S
C628 H647 0.913 . S
C629 H605 0.950 . S
C629 C628 1.524 1_556 S
C629 C630 1.415 . S
C630 H606 0.950 . S
C630 C625 1.363 1_556 S
C630 C629 1.415 . S
C631 H607 0.951 . S
C631 C632 1.366 1_655 S
C631 C633 1.388 . S
C632 C631 1.366 1_455 S
C632 C636 1.385 . S
C633 H608 0.951 . S
C633 C631 1.388 . S
C633 C634 1.366 1_655 S
C634 C633 1.366 1_455 S
C634 C635 1.414 . S
C634 C637 1.499 . S
C635 H609 0.950 . S
C635 C634 1.414 . S
C635 C636 1.374 . S
C636 H610 0.950 . S
C636 C632 1.385 . S
C636 C635 1.374 . S
C637 C634 1.499 . S
C637 C638 1.373 1_455 S
C637 C639 1.389 1_556 S
C638 H611 0.950 . S
C638 C624 1.377 1_556 S
C638 C637 1.373 1_655 S
C639 C623 1.377 . S
C639 C637 1.389 1_554 S
C639 C640 1.524 . S
C640 C639 1.524 . S
C640 C641 1.397 . S
C640 C645 1.363 . S
C641 H612 0.950 1_554 S
C641 C640 1.397 . S
C641 C642 1.334 . S
C642 H613 0.950 1_554 S
C642 C641 1.334 . S
C642 C643 1.287 . S
C643 C642 1.287 . S
C643 C644 1.524 . S
C643 H646 0.999 . S
C644 H614 0.950 . S
C644 C643 1.524 . S
C644 C645 1.415 . S
C645 H615 0.950 . S
C645 C640 1.363 . S
C645 C644 1.415 . S
H646 C643 0.999 . S
H647 C628 0.913 . S
H648 C666 0.951 . S
H649 C668 0.951 . S
H650 C670 0.950 . S
H651 C671 0.950 . S
H652 C673 0.929 1_655 S
H653 C676 0.950 . S
H654 C677 0.950 . S
H655 C679 0.950 . S
H656 C680 0.950 . S
H657 C681 0.951 . S
H658 C683 0.951 . S
H659 C685 0.956 . S
H660 C686 0.950 . S
H661 C688 0.950 . S
H662 C691 0.950 . S
H663 C692 0.950 . S
H664 C694 0.950 . S
H665 C695 0.950 . S
C666 H648 0.951 . S
C666 C667 1.366 . S
C666 C668 1.388 . S
C667 C666 1.366 . S
C667 C671 1.385 . S
C668 H649 0.951 . S
C668 C666 1.388 . S
C668 C669 1.366 . S
C669 C668 1.366 . S
C669 C670 1.414 . S
C669 C672 1.499 . S
C670 H650 0.950 . S
C670 C669 1.414 . S
C670 C671 1.374 . S
C671 H651 0.950 . S
C671 C667 1.385 . S
C671 C670 1.374 . S
C672 C669 1.499 . S
C672 C673 1.401 . S
C672 C674 1.389 . S
C673 H652 0.929 1_455 S
C673 C672 1.401 . S
C673 C689 1.370 1_455 S
C674 C672 1.389 . S
C674 C675 1.524 . S
C674 C688 1.377 . S
C675 C674 1.524 . S
C675 C676 1.397 . S
C675 C680 1.363 . S
C676 H653 0.950 . S
C676 C675 1.397 . S
C676 C677 1.334 . S
C677 H654 0.950 . S
C677 C676 1.334 . S
C677 C678 1.287 . S
C678 C677 1.287 . S
C678 C679 1.524 . S
C678 H697 0.913 . S
C679 H655 0.950 . S
C679 C678 1.524 . S
C679 C680 1.415 . S
C680 H656 0.950 . S
C680 C675 1.363 . S
C680 C679 1.415 . S
C681 H657 0.951 . S
C681 C682 1.366 . S
C681 C683 1.388 1_655 S
C682 C681 1.366 . S
C682 C686 1.385 . S
C683 H658 0.951 . S
C683 C681 1.388 1_455 S
C683 C684 1.366 . S
C684 C683 1.366 . S
C684 C685 1.412 . S
C684 C687 1.499 . S
C685 H659 0.956 . S
C685 C684 1.412 . S
C685 C686 1.371 1_455 S
C686 H660 0.950 . S
C686 C682 1.385 . S
C686 C685 1.371 1_655 S
C687 C684 1.499 . S
C687 C688 1.373 . S
C687 C689 1.389 1_455 S
C688 H661 0.950 . S
C688 C674 1.377 . S
C688 C687 1.373 . S
C689 C673 1.370 1_655 S
C689 C687 1.389 1_655 S
C689 C690 1.524 . S
C690 C689 1.524 . S
C690 C691 1.397 . S
C690 C695 1.363 . S
C691 H662 0.950 . S
C691 C690 1.397 . S
C691 C692 1.334 . S
C692 H663 0.950 . S
C692 C691 1.334 . S
C692 C693 1.287 . S
C693 C692 1.287 . S
C693 C694 1.524 . S
C693 H696 0.999 . S
C694 H664 0.950 . S
C694 C693 1.524 . S
C694 C695 1.415 . S
C695 H665 0.950 . S
C695 C690 1.363 . S
C695 C694 1.415 . S
H696 C693 0.999 . S
H697 C678 0.913 . S
H698 C716 0.951 . S
H699 C718 0.951 . S
H700 C720 0.950 . S
H701 C721 0.950 . S
H702 C723 0.950 . S
H703 C726 0.950 . S
H704 C727 0.950 . S
H705 C729 0.950 . S
H706 C730 0.950 . S
H707 C731 0.951 . S
H708 C733 0.951 . S
H709 C735 0.950 . S
H710 C736 0.950 . S
H711 C738 0.950 . S
H712 C741 0.950 . S
H713 C742 0.950 . S
H714 C744 0.950 . S
H715 C745 0.950 . S
C716 H698 0.951 . S
C716 C717 1.366 . S
C716 C718 1.388 . S
C717 C716 1.366 . S
C717 C721 1.385 1_545 S
C718 H699 0.951 . S
C718 C716 1.388 . S
C718 C719 1.366 . S
C719 C718 1.366 . S
C719 C720 1.414 1_545 S
C719 C722 1.499 1_545 S
C720 H700 0.950 . S
C720 C719 1.414 1_565 S
C720 C721 1.374 . S
C721 H701 0.950 . S
C721 C717 1.385 1_565 S
C721 C720 1.374 . S
C722 C719 1.499 1_565 S
C722 C723 1.373 . S
C722 C724 1.389 1_565 S
C723 H702 0.950 . S
C723 C722 1.373 . S
C723 C739 1.377 . S
C724 C722 1.389 1_545 S
C724 C725 1.524 . S
C724 C738 1.377 . S
C725 C724 1.524 . S
C725 C726 1.397 . S
C725 C730 1.363 . S
C726 H703 0.950 . S
C726 C725 1.397 . S
C726 C727 1.334 . S
C727 H704 0.950 . S
C727 C726 1.334 . S
C727 C728 1.287 . S
C728 C727 1.287 . S
C728 C729 1.524 . S
C728 H747 0.913 . S
C729 H705 0.950 . S
C729 C728 1.524 . S
C729 C730 1.415 . S
C730 H706 0.950 . S
C730 C725 1.363 . S
C730 C729 1.415 . S
C731 H707 0.951 . S
C731 C732 1.366 . S
C731 C733 1.388 . S
C732 C731 1.366 . S
C732 C736 1.385 1_565 S
C733 H708 0.951 . S
C733 C731 1.388 . S
C733 C734 1.366 . S
C734 C733 1.366 . S
C734 C735 1.414 1_565 S
C734 C737 1.499 . S
C735 H709 0.950 . S
C735 C734 1.414 1_545 S
C735 C736 1.374 . S
C736 H710 0.950 . S
C736 C732 1.385 1_545 S
C736 C735 1.374 . S
C737 C734 1.499 . S
C737 C738 1.373 1_565 S
C737 C739 1.389 . S
C738 H711 0.950 . S
C738 C724 1.377 . S
C738 C737 1.373 1_545 S
C739 C723 1.377 . S
C739 C737 1.389 . S
C739 C740 1.524 . S
C740 C739 1.524 . S
C740 C741 1.397 . S
C740 C745 1.363 . S
C741 H712 0.950 . S
C741 C740 1.397 . S
C741 C742 1.334 . S
C742 H713 0.950 . S
C742 C741 1.334 . S
C742 C743 1.287 . S
C743 C742 1.287 . S
C743 C744 1.524 . S
C743 H746 0.999 . S
C744 H714 0.950 . S
C744 C743 1.524 . S
C744 C745 1.415 . S
C745 H715 0.950 . S
C745 C740 1.363 . S
C745 C744 1.415 . S
H746 C743 0.999 . S
H747 C728 0.913 . S
H748 C766 0.951 . S
H749 C768 0.951 . S
H750 C770 0.950 . S
H751 C771 0.950 . S
H752 C773 0.950 . S
H753 C776 0.950 . S
H754 C777 0.950 . S
H755 C779 0.950 . S
H756 C780 0.950 . S
H757 C781 0.951 . S
H758 C783 0.951 . S
H759 C785 0.950 . S
H760 C786 0.950 . S
H761 C788 0.950 . S
H762 C791 0.950 . S
H763 C792 0.950 . S
H764 C794 0.950 . S
H765 C795 0.950 . S
C766 H748 0.951 . S
C766 C767 1.366 . S
C766 C768 1.388 . S
C767 C766 1.366 . S
C767 C771 1.385 . S
C768 H749 0.951 . S
C768 C766 1.388 . S
C768 C769 1.366 . S
C769 C768 1.366 . S
C769 C770 1.414 . S
C769 C772 1.499 . S
C770 H750 0.950 . S
C770 C769 1.414 . S
C770 C771 1.374 . S
C771 H751 0.950 . S
C771 C767 1.385 . S
C771 C770 1.374 . S
C772 C769 1.499 . S
C772 C773 1.373 . S
C772 C774 1.389 . S
C773 H752 0.950 . S
C773 C772 1.373 . S
C773 C789 1.377 . S
C774 C772 1.389 . S
C774 C775 1.524 . S
C774 C788 1.377 . S
C775 C774 1.524 . S
C775 C776 1.397 . S
C775 C780 1.363 . S
C776 H753 0.950 . S
C776 C775 1.397 . S
C776 C777 1.334 . S
C777 H754 0.950 . S
C777 C776 1.334 . S
C777 C778 1.287 . S
C778 C777 1.287 . S
C778 C779 1.524 . S
C778 H797 0.913 . S
C779 H755 0.950 . S
C779 C778 1.524 . S
C779 C780 1.415 . S
C780 H756 0.950 . S
C780 C775 1.363 . S
C780 C779 1.415 . S
C781 H757 0.951 . S
C781 C782 1.366 . S
C781 C783 1.388 . S
C782 C781 1.366 . S
C782 C786 1.385 . S
C783 H758 0.951 . S
C783 C781 1.388 . S
C783 C784 1.366 . S
C784 C783 1.366 . S
C784 C785 1.414 . S
C784 C787 1.499 . S
C785 H759 0.950 . S
C785 C784 1.414 . S
C785 C786 1.374 . S
C786 H760 0.950 . S
C786 C782 1.385 . S
C786 C785 1.374 . S
C787 C784 1.499 . S
C787 C788 1.373 . S
C787 C789 1.389 . S
C788 H761 0.950 . S
C788 C774 1.377 . S
C788 C787 1.373 . S
C789 C773 1.377 . S
C789 C787 1.389 . S
C789 C790 1.524 . S
C790 C789 1.524 . S
C790 C791 1.397 . S
C790 C795 1.363 . S
C791 H762 0.950 . S
C791 C790 1.397 . S
C791 C792 1.334 . S
C792 H763 0.950 . S
C792 C791 1.334 . S
C792 C793 1.287 . S
C793 C792 1.287 . S
C793 C794 1.524 . S
C793 H796 0.999 . S
C794 H764 0.950 . S
C794 C793 1.524 . S
C794 C795 1.415 . S
C795 H765 0.950 . S
C795 C790 1.363 . S
C795 C794 1.415 . S
H796 C793 0.999 . S
H797 C778 0.913 . S
H798 C816 0.951 . S
H799 C818 0.951 . S
H800 C820 0.950 . S
H801 C821 0.950 1_556 S
H802 C823 0.950 . S
H803 C826 0.950 . S
H804 C827 0.950 . S
H805 C829 0.950 . S
H806 C830 0.950 . S
H807 C831 0.951 . S
H808 C833 0.951 . S
H809 C835 0.950 . S
H810 C836 0.950 . S
H811 C838 0.950 . S
H812 C841 0.950 . S
H813 C842 0.950 . S
H814 C844 0.950 . S
H815 C845 0.950 . S
C816 H798 0.951 . S
C816 C817 1.366 . S
C816 C818 1.388 . S
C817 C816 1.366 . S
C817 C821 1.385 . S
C818 H799 0.951 . S
C818 C816 1.388 . S
C818 C819 1.366 . S
C819 C818 1.366 . S
C819 C820 1.414 . S
C819 C822 1.499 . S
C820 H800 0.950 . S
C820 C819 1.414 . S
C820 C821 1.374 . S
C821 H801 0.950 1_554 S
C821 C817 1.385 . S
C821 C820 1.374 . S
C822 C819 1.499 . S
C822 C823 1.373 . S
C822 C824 1.389 . S
C823 H802 0.950 . S
C823 C822 1.373 . S
C823 C839 1.377 . S
C824 C822 1.389 . S
C824 C825 1.524 . S
C824 C838 1.377 . S
C825 C824 1.524 . S
C825 C826 1.397 . S
C825 C830 1.363 . S
C826 H803 0.950 . S
C826 C825 1.397 . S
C826 C827 1.334 . S
C827 H804 0.950 . S
C827 C826 1.334 . S
C827 C828 1.287 . S
C828 C827 1.287 . S
C828 C829 1.524 . S
C828 H847 0.913 . S
C829 H805 0.950 . S
C829 C828 1.524 . S
C829 C830 1.415 . S
C830 H806 0.950 . S
C830 C825 1.363 . S
C830 C829 1.415 . S
C831 H807 0.951 . S
C831 C832 1.366 . S
C831 C833 1.388 . S
C832 C831 1.366 . S
C832 C836 1.385 . S
C833 H808 0.951 . S
C833 C831 1.388 . S
C833 C834 1.366 . S
C834 C833 1.366 . S
C834 C835 1.414 . S
C834 C837 1.499 . S
C835 H809 0.950 . S
C835 C834 1.414 . S
C835 C836 1.374 . S
C836 H810 0.950 . S
C836 C832 1.385 . S
C836 C835 1.374 . S
C837 C834 1.499 . S
C837 C838 1.373 . S
C837 C839 1.389 . S
C838 H811 0.950 . S
C838 C824 1.377 . S
C838 C837 1.373 . S
C839 C823 1.377 . S
C839 C837 1.389 . S
C839 C840 1.524 . S
C840 C839 1.524 . S
C840 C841 1.397 . S
C840 C845 1.363 . S
C841 H812 0.950 . S
C841 C840 1.397 . S
C841 C842 1.334 . S
C842 H813 0.950 . S
C842 C841 1.334 . S
C842 C843 1.287 . S
C843 C842 1.287 . S
C843 C844 1.524 . S
C843 H846 0.999 . S
C844 H814 0.950 . S
C844 C843 1.524 . S
C844 C845 1.415 . S
C845 H815 0.950 . S
C845 C840 1.363 . S
C845 C844 1.415 . S
H846 C843 0.999 . S
H847 C828 0.913 . S
H848 C866 0.951 . S
H849 C868 0.951 . S
H850 C870 0.950 . S
H851 C871 0.950 . S
H852 C873 0.950 . S
H853 C876 0.950 . S
H854 C877 0.950 . S
H855 C879 0.950 . S
H856 C880 0.950 . S
H857 C881 0.951 . S
H858 C883 0.951 . S
H859 C885 0.950 1_655 S
H860 C886 0.950 1_655 S
H861 C888 0.950 . S
H862 C891 0.950 . S
H863 C892 0.950 . S
H864 C894 0.950 . S
H865 C895 0.950 . S
C866 H848 0.951 . S
C866 C867 1.366 . S
C866 C868 1.388 . S
C867 C866 1.366 . S
C867 C871 1.385 1_655 S
C868 H849 0.951 . S
C868 C866 1.388 . S
C868 C869 1.366 . S
C869 C868 1.366 . S
C869 C870 1.414 1_655 S
C869 C872 1.499 1_655 S
C870 H850 0.950 . S
C870 C869 1.414 1_455 S
C870 C871 1.374 . S
C871 H851 0.950 . S
C871 C867 1.385 1_455 S
C871 C870 1.374 . S
C872 C869 1.499 1_455 S
C872 C873 1.373 . S
C872 C874 1.389 1_455 S
C873 H852 0.950 . S
C873 C872 1.373 . S
C873 C889 1.377 . S
C874 C872 1.389 1_655 S
C874 C875 1.524 . S
C874 C888 1.377 . S
C875 C874 1.524 . S
C875 C876 1.397 . S
C875 C880 1.363 . S
C876 H853 0.950 . S
C876 C875 1.397 . S
C876 C877 1.334 . S
C877 H854 0.950 . S
C877 C876 1.334 . S
C877 C878 1.287 . S
C878 C877 1.287 . S
C878 C879 1.524 . S
C878 H897 0.913 . S
C879 H855 0.950 . S
C879 C878 1.524 . S
C879 C880 1.415 . S
C880 H856 0.950 . S
C880 C875 1.363 . S
C880 C879 1.415 . S
C881 H857 0.951 . S
C881 C882 1.366 . S
C881 C883 1.388 . S
C882 C881 1.366 . S
C882 C886 1.385 1_556 S
C883 H858 0.951 . S
C883 C881 1.388 . S
C883 C884 1.366 1_556 S
C884 C883 1.366 1_554 S
C884 C885 1.414 . S
C884 C887 1.499 . S
C885 H859 0.950 1_455 S
C885 C884 1.414 . S
C885 C886 1.374 . S
C886 H860 0.950 1_455 S
C886 C882 1.385 1_554 S
C886 C885 1.374 . S
C887 C884 1.499 . S
C887 C888 1.373 1_455 S
C887 C889 1.389 . S
C888 H861 0.950 . S
C888 C874 1.377 . S
C888 C887 1.373 1_655 S
C889 C873 1.377 . S
C889 C887 1.389 . S
C889 C890 1.524 . S
C890 C889 1.524 . S
C890 C891 1.397 . S
C890 C895 1.363 . S
C891 H862 0.950 . S
C891 C890 1.397 . S
C891 C892 1.334 . S
C892 H863 0.950 . S
C892 C891 1.334 . S
C892 C893 1.287 . S
C893 C892 1.287 . S
C893 C894 1.524 . S
C893 H896 0.999 . S
C894 H864 0.950 . S
C894 C893 1.524 . S
C894 C895 1.415 . S
C895 H865 0.950 . S
C895 C890 1.363 . S
C895 C894 1.415 . S
H896 C893 0.999 . S
H897 C878 0.913 . S
H898 C916 0.951 . S
H899 C918 0.951 . S
H900 C920 0.950 . S
H901 C921 0.950 . S
H902 C923 0.950 . S
H903 C926 0.950 . S
H904 C927 0.950 . S
H905 C929 0.950 . S
H906 C930 0.950 . S
H907 C931 0.951 . S
H908 C933 0.951 . S
H909 C935 0.950 . S
H910 C936 0.950 . S
H911 C938 0.950 . S
H912 C941 0.950 . S
H913 C942 0.950 . S
H914 C944 0.950 . S
H915 C945 0.950 . S
C916 H898 0.951 . S
C916 C917 1.366 . S
C916 C918 1.388 . S
C917 C916 1.366 . S
C917 C921 1.385 1_565 S
C918 H899 0.951 . S
C918 C916 1.388 . S
C918 C919 1.366 1_565 S
C919 C918 1.366 1_545 S
C919 C920 1.414 . S
C919 C922 1.499 . S
C920 H900 0.950 . S
C920 C919 1.414 . S
C920 C921 1.374 . S
C921 H901 0.950 . S
C921 C917 1.385 1_545 S
C921 C920 1.374 . S
C922 C919 1.499 . S
C922 C923 1.373 . S
C922 C924 1.389 1_545 S
C923 H902 0.950 . S
C923 C922 1.373 . S
C923 C939 1.377 . S
C924 C922 1.389 1_565 S
C924 C925 1.524 . S
C924 C938 1.377 . S
C925 C924 1.524 . S
C925 C926 1.397 . S
C925 C930 1.363 . S
C926 H903 0.950 . S
C926 C925 1.397 . S
C926 C927 1.334 . S
C927 H904 0.950 . S
C927 C926 1.334 . S
C927 C928 1.287 . S
C928 C927 1.287 . S
C928 C929 1.524 . S
C928 H947 0.913 . S
C929 H905 0.950 . S
C929 C928 1.524 . S
C929 C930 1.415 . S
C930 H906 0.950 . S
C930 C925 1.363 . S
C930 C929 1.415 . S
C931 H907 0.951 . S
C931 C932 1.366 . S
C931 C933 1.388 . S
C932 C931 1.366 . S
C932 C936 1.385 1_556 S
C933 H908 0.951 . S
C933 C931 1.388 . S
C933 C934 1.366 1_556 S
C934 C933 1.366 1_554 S
C934 C935 1.414 . S
C934 C937 1.499 . S
C935 H909 0.950 . S
C935 C934 1.414 . S
C935 C936 1.374 . S
C936 H910 0.950 . S
C936 C932 1.385 1_554 S
C936 C935 1.374 . S
C937 C934 1.499 . S
C937 C938 1.373 1_545 S
C937 C939 1.389 . S
C938 H911 0.950 . S
C938 C924 1.377 . S
C938 C937 1.373 1_565 S
C939 C923 1.377 . S
C939 C937 1.389 . S
C939 C940 1.524 . S
C940 C939 1.524 . S
C940 C941 1.397 . S
C940 C945 1.363 1_554 S
C941 H912 0.950 . S
C941 C940 1.397 . S
C941 C942 1.334 . S
C942 H913 0.950 . S
C942 C941 1.334 . S
C942 C943 1.287 1_554 S
C943 C942 1.287 1_556 S
C943 C944 1.524 . S
C943 H946 0.999 . S
C944 H914 0.950 . S
C944 C943 1.524 . S
C944 C945 1.415 . S
C945 H915 0.950 . S
C945 C940 1.363 1_556 S
C945 C944 1.415 . S
H946 C943 0.999 . S
H947 C928 0.913 . S
H948 C966 0.951 1_556 S
H949 C968 0.951 . S
H950 C970 0.950 . S
H951 C971 0.950 . S
H952 C973 0.950 . S
H953 C976 0.950 . S
H954 C977 0.950 . S
H955 C979 0.950 . S
H956 C980 0.950 . S
H957 C981 0.951 . S
H958 C983 0.951 . S
H959 C985 0.950 . S
H960 C986 0.950 . S
H961 C988 0.950 . S
H962 C991 0.950 . S
H963 C992 0.950 . S
H964 C994 0.950 . S
H965 C995 0.950 . S
C966 H948 0.951 1_554 S
C966 C967 1.366 . S
C966 C968 1.388 1_554 S
C967 C966 1.366 . S
C967 C971 1.385 . S
C968 H949 0.951 . S
C968 C966 1.388 1_556 S
C968 C969 1.368 . S
C969 C968 1.368 . S
C969 C970 1.409 1_556 S
C969 C972 1.501 . S
C970 H950 0.950 . S
C970 C969 1.409 1_554 S
C970 C971 1.374 . S
C971 H951 0.950 . S
C971 C967 1.385 . S
C971 C970 1.374 . S
C972 C969 1.501 . S
C972 C973 1.373 . S
C972 C974 1.389 . S
C973 H952 0.950 . S
C973 C972 1.373 . S
C973 C989 1.377 . S
C974 C972 1.389 . S
C974 C975 1.524 . S
C974 C988 1.377 . S
C975 C974 1.524 . S
C975 C976 1.397 1_556 S
C975 C980 1.363 . S
C976 H953 0.950 . S
C976 C975 1.397 1_554 S
C976 C977 1.334 . S
C977 H954 0.950 . S
C977 C976 1.334 . S
C977 C978 1.287 . S
C978 C977 1.287 . S
C978 C979 1.524 1_554 S
C978 H997 0.913 . S
C979 H955 0.950 . S
C979 C978 1.524 1_556 S
C979 C980 1.415 . S
C980 H956 0.950 . S
C980 C975 1.363 . S
C980 C979 1.415 . S
C981 H957 0.951 . S
C981 C982 1.366 . S
C981 C983 1.388 . S
C982 C981 1.366 . S
C982 C986 1.385 . S
C983 H958 0.951 . S
C983 C981 1.388 . S
C983 C984 1.366 . S
C984 C983 1.366 . S
C984 C985 1.414 . S
C984 C987 1.499 . S
C985 H959 0.950 . S
C985 C984 1.414 . S
C985 C986 1.374 . S
C986 H960 0.950 . S
C986 C982 1.385 . S
C986 C985 1.374 . S
C987 C984 1.499 . S
C987 C988 1.373 . S
C987 C989 1.389 . S
C988 H961 0.950 . S
C988 C974 1.377 . S
C988 C987 1.373 . S
C989 C973 1.377 . S
C989 C987 1.389 . S
C989 C990 1.524 . S
C990 C989 1.524 . S
C990 C991 1.397 . S
C990 C995 1.363 . S
C991 H962 0.950 . S
C991 C990 1.397 . S
C991 C992 1.334 . S
C992 H963 0.950 . S
C992 C991 1.334 . S
C992 C993 1.287 . S
C993 C992 1.287 . S
C993 C994 1.524 . S
C993 H996 0.999 . S
C994 H964 0.950 . S
C994 C993 1.524 . S
C994 C995 1.415 . S
C995 H965 0.950 . S
C995 C990 1.363 . S
C995 C994 1.415 . S
H996 C993 0.999 . S
H997 C978 0.913 . S
H998 C1016 0.951 . S
H999 C1018 0.951 . S
H1000 C1020 0.950 . S
H1001 C1021 0.950 . S
H1002 C1023 0.950 . S
H1003 C1026 0.950 . S
H1004 C1027 0.950 . S
H1005 C1029 0.950 . S
H1006 C1030 0.950 . S
H1007 C1031 0.951 1_556 S
H1008 C1033 0.951 . S
H1009 C1035 0.950 . S
H1010 C1036 0.950 . S
H1011 C1038 0.950 . S
H1012 C1041 0.950 . S
H1013 C1042 0.950 . S
H1014 C1044 0.950 . S
H1015 C1045 0.950 . S
C1016 H998 0.951 . S
C1016 C1017 1.366 . S
C1016 C1018 1.388 . S
C1017 C1016 1.366 . S
C1017 C1021 1.385 . S
C1018 H999 0.951 . S
C1018 C1016 1.388 . S
C1018 C1019 1.366 . S
C1019 C1018 1.366 . S
C1019 C1020 1.414 . S
C1019 C1022 1.499 . S
C1020 H1000 0.950 . S
C1020 C1019 1.414 . S
C1020 C1021 1.374 . S
C1021 H1001 0.950 . S
C1021 C1017 1.385 . S
C1021 C1020 1.374 . S
C1022 C1019 1.499 . S
C1022 C1023 1.373 . S
C1022 C1024 1.389 . S
C1023 H1002 0.950 . S
C1023 C1022 1.373 . S
C1023 C1039 1.377 . S
C1024 C1022 1.389 . S
C1024 C1025 1.524 . S
C1024 C1038 1.377 . S
C1025 C1024 1.524 . S
C1025 C1026 1.397 . S
C1025 C1030 1.363 . S
C1026 H1003 0.950 . S
C1026 C1025 1.397 . S
C1026 C1027 1.334 . S
C1027 H1004 0.950 . S
C1027 C1026 1.334 . S
C1027 C1028 1.287 . S
C1028 C1027 1.287 . S
C1028 C1029 1.524 . S
C1028 H1047 0.913 . S
C1029 H1005 0.950 . S
C1029 C1028 1.524 . S
C1029 C1030 1.415 . S
C1030 H1006 0.950 . S
C1030 C1025 1.363 . S
C1030 C1029 1.415 . S
C1031 H1007 0.951 1_554 S
C1031 C1032 1.366 . S
C1031 C1033 1.388 . S
C1032 C1031 1.366 . S
C1032 C1036 1.385 . S
C1033 H1008 0.951 . S
C1033 C1031 1.388 . S
C1033 C1034 1.366 . S
C1034 C1033 1.366 . S
C1034 C1035 1.414 . S
C1034 C1037 1.499 . S
C1035 H1009 0.950 . S
C1035 C1034 1.414 . S
C1035 C1036 1.374 . S
C1036 H1010 0.950 . S
C1036 C1032 1.385 . S
C1036 C1035 1.374 . S
C1037 C1034 1.499 . S
C1037 C1038 1.373 . S
C1037 C1039 1.389 . S
C1038 H1011 0.950 . S
C1038 C1024 1.377 . S
C1038 C1037 1.373 . S
C1039 C1023 1.377 . S
C1039 C1037 1.389 . S
C1039 C1040 1.524 . S
C1040 C1039 1.524 . S
C1040 C1041 1.397 . S
C1040 C1045 1.363 . S
C1041 H1012 0.950 . S
C1041 C1040 1.397 . S
C1041 C1042 1.334 . S
C1042 H1013 0.950 . S
C1042 C1041 1.334 . S
C1042 C1043 1.287 1_554 S
C1043 C1042 1.287 1_556 S
C1043 C1044 1.524 . S
C1043 H1046 0.999 . S
C1044 H1014 0.950 . S
C1044 C1043 1.524 . S
C1044 C1045 1.415 1_556 S
C1045 H1015 0.950 . S
C1045 C1040 1.363 . S
C1045 C1044 1.415 1_554 S
H1046 C1043 0.999 . S
H1047 C1028 0.913 . S
H1048 C1066 0.951 . S
H1049 C1068 0.951 . S
H1050 C1070 0.950 1_655 S
H1051 C1071 0.950 1_655 S
H1052 C1073 0.950 1_554 S
H1053 C1076 0.950 . S
H1054 C1077 0.950 . S
H1055 C1079 0.950 . S
H1056 C1080 0.950 . S
H1057 C1081 0.951 1_655 S
H1058 C1083 0.951 1_655 S
H1059 C1085 0.950 . S
H1060 C1086 0.950 . S
H1061 C1088 0.950 . S
H1062 C1091 0.950 1_556 S
H1063 C1092 0.950 . S
H1064 C1094 0.950 . S
H1065 C1095 0.950 . S
C1066 H1048 0.951 . S
C1066 C1067 1.366 . S
C1066 C1068 1.388 . S
C1067 C1066 1.366 . S
C1067 C1071 1.385 1_556 S
C1068 H1049 0.951 . S
C1068 C1066 1.388 . S
C1068 C1069 1.366 . S
C1069 C1068 1.366 . S
C1069 C1070 1.414 . S
C1069 C1072 1.499 . S
C1070 H1050 0.950 1_455 S
C1070 C1069 1.414 . S
C1070 C1071 1.374 1_556 S
C1071 H1051 0.950 1_455 S
C1071 C1067 1.385 1_554 S
C1071 C1070 1.374 1_554 S
C1072 C1069 1.499 . S
C1072 C1073 1.373 . S
C1072 C1074 1.389 . S
C1073 H1052 0.950 1_556 S
C1073 C1072 1.373 . S
C1073 C1089 1.377 . S
C1074 C1072 1.389 . S
C1074 C1075 1.524 . S
C1074 C1088 1.377 . S
C1075 C1074 1.524 . S
C1075 C1076 1.397 . S
C1075 C1080 1.363 . S
C1076 H1053 0.950 . S
C1076 C1075 1.397 . S
C1076 C1077 1.334 . S
C1077 H1054 0.950 . S
C1077 C1076 1.334 . S
C1077 C1078 1.287 . S
C1078 C1077 1.287 . S
C1078 C1079 1.524 . S
C1078 H1097 0.913 . S
C1079 H1055 0.950 . S
C1079 C1078 1.524 . S
C1079 C1080 1.415 . S
C1080 H1056 0.950 . S
C1080 C1075 1.363 . S
C1080 C1079 1.415 . S
C1081 H1057 0.951 1_455 S
C1081 C1082 1.366 . S
C1081 C1083 1.388 . S
C1082 C1081 1.366 . S
C1082 C1086 1.385 . S
C1083 H1058 0.951 1_455 S
C1083 C1081 1.388 . S
C1083 C1084 1.366 . S
C1084 C1083 1.366 . S
C1084 C1085 1.414 . S
C1084 C1087 1.499 . S
C1085 H1059 0.950 . S
C1085 C1084 1.414 . S
C1085 C1086 1.374 . S
C1086 H1060 0.950 . S
C1086 C1082 1.385 . S
C1086 C1085 1.374 . S
C1087 C1084 1.499 . S
C1087 C1088 1.373 . S
C1087 C1089 1.389 . S
C1088 H1061 0.950 . S
C1088 C1074 1.377 . S
C1088 C1087 1.373 . S
C1089 C1073 1.377 . S
C1089 C1087 1.389 . S
C1089 C1090 1.524 . S
C1090 C1089 1.524 . S
C1090 C1091 1.397 1_556 S
C1090 C1095 1.363 1_456 S
C1091 H1062 0.950 1_554 S
C1091 C1090 1.397 1_554 S
C1091 C1092 1.334 . S
C1092 H1063 0.950 . S
C1092 C1091 1.334 . S
C1092 C1093 1.287 . S
C1093 C1092 1.287 . S
C1093 C1094 1.524 1_455 S
C1093 H1096 0.999 . S
C1094 H1064 0.950 . S
C1094 C1093 1.524 1_655 S
C1094 C1095 1.415 . S
C1095 H1065 0.950 . S
C1095 C1090 1.363 1_654 S
C1095 C1094 1.415 . S
H1096 C1093 0.999 . S
H1097 C1078 0.913 . S
H1098 C1116 0.951 . S
H1099 C1118 0.951 . S
H1100 C1120 0.950 . S
H1101 C1121 0.950 . S
H1102 C1123 0.950 . S
H1103 C1126 0.950 . S
H1104 C1127 0.950 . S
H1105 C1129 0.950 . S
H1106 C1130 0.950 . S
H1107 C1131 0.951 . S
H1108 C1133 0.951 . S
H1109 C1135 0.950 . S
H1110 C1136 0.950 . S
H1111 C1138 0.950 . S
H1112 C1141 0.950 . S
H1113 C1142 0.950 . S
H1114 C1144 0.950 . S
H1115 C1145 0.950 . S
C1116 H1098 0.951 . S
C1116 C1117 1.366 . S
C1116 C1118 1.388 . S
C1117 C1116 1.366 . S
C1117 C1121 1.385 1_554 S
C1118 H1099 0.951 . S
C1118 C1116 1.388 . S
C1118 C1119 1.366 . S
C1119 C1118 1.366 . S
C1119 C1120 1.414 1_554 S
C1119 C1122 1.499 1_554 S
C1120 H1100 0.950 . S
C1120 C1119 1.414 1_556 S
C1120 C1121 1.374 . S
C1121 H1101 0.950 . S
C1121 C1117 1.385 1_556 S
C1121 C1120 1.374 . S
C1122 C1119 1.499 1_556 S
C1122 C1123 1.373 1_545 S
C1122 C1124 1.389 . S
C1123 H1102 0.950 . S
C1123 C1122 1.373 1_565 S
C1123 C1139 1.377 . S
C1124 C1122 1.389 . S
C1124 C1125 1.525 1_556 S
C1124 C1138 1.376 . S
C1125 C1124 1.525 1_554 S
C1125 C1126 1.397 . S
C1125 C1130 1.363 . S
C1126 H1103 0.950 . S
C1126 C1125 1.397 . S
C1126 C1127 1.334 . S
C1127 H1104 0.950 . S
C1127 C1126 1.334 . S
C1127 C1128 1.287 . S
C1128 C1127 1.287 . S
C1128 C1129 1.524 . S
C1128 H1147 0.913 . S
C1129 H1105 0.950 . S
C1129 C1128 1.524 . S
C1129 C1130 1.415 . S
C1130 H1106 0.950 . S
C1130 C1125 1.363 . S
C1130 C1129 1.415 . S
C1131 H1107 0.951 . S
C1131 C1132 1.366 . S
C1131 C1133 1.388 . S
C1132 C1131 1.366 . S
C1132 C1136 1.385 . S
C1133 H1108 0.951 . S
C1133 C1131 1.388 . S
C1133 C1134 1.366 . S
C1134 C1133 1.366 . S
C1134 C1135 1.414 . S
C1134 C1137 1.499 . S
C1135 H1109 0.950 . S
C1135 C1134 1.414 . S
C1135 C1136 1.374 . S
C1136 H1110 0.950 . S
C1136 C1132 1.385 . S
C1136 C1135 1.374 . S
C1137 C1134 1.499 . S
C1137 C1138 1.373 . S
C1137 C1139 1.389 1_545 S
C1138 H1111 0.950 . S
C1138 C1124 1.376 . S
C1138 C1137 1.373 . S
C1139 C1123 1.377 . S
C1139 C1137 1.389 1_565 S
C1139 C1140 1.524 . S
C1140 C1139 1.524 . S
C1140 C1141 1.397 . S
C1140 C1145 1.363 . S
C1141 H1112 0.950 . S
C1141 C1140 1.397 . S
C1141 C1142 1.334 . S
C1142 H1113 0.950 . S
C1142 C1141 1.334 . S
C1142 C1143 1.287 . S
C1143 C1142 1.287 . S
C1143 C1144 1.524 . S
C1143 H1146 0.999 . S
C1144 H1114 0.950 . S
C1144 C1143 1.524 . S
C1144 C1145 1.415 . S
C1145 H1115 0.950 . S
C1145 C1140 1.363 . S
C1145 C1144 1.415 . S
H1146 C1143 0.999 . S
H1147 C1128 0.913 . S
H1148 C1166 0.951 . S
H1149 C1168 0.951 . S
H1150 C1170 0.950 . S
H1151 C1171 0.950 . S
H1152 C1173 0.950 . S
H1153 C1176 0.950 . S
H1154 C1177 0.950 . S
H1155 C1179 0.950 . S
H1156 C1180 0.950 . S
H1157 C1181 0.951 . S
H1158 C1183 0.951 1_554 S
H1159 C1185 0.950 . S
H1160 C1186 0.950 . S
H1161 C1188 0.950 . S
H1162 C1191 0.950 . S
H1163 C1192 0.950 . S
H1164 C1194 0.950 . S
H1165 C1195 0.950 . S
C1166 H1148 0.951 . S
C1166 C1167 1.366 . S
C1166 C1168 1.388 . S
C1167 C1166 1.366 . S
C1167 C1171 1.385 . S
C1168 H1149 0.951 . S
C1168 C1166 1.388 . S
C1168 C1169 1.366 . S
C1169 C1168 1.366 . S
C1169 C1170 1.414 . S
C1169 C1172 1.499 . S
C1170 H1150 0.950 . S
C1170 C1169 1.414 . S
C1170 C1171 1.374 . S
C1171 H1151 0.950 . S
C1171 C1167 1.385 . S
C1171 C1170 1.374 . S
C1172 C1169 1.499 . S
C1172 C1173 1.373 . S
C1172 C1174 1.389 . S
C1173 H1152 0.950 . S
C1173 C1172 1.373 . S
C1173 C1189 1.377 . S
C1174 C1172 1.389 . S
C1174 C1175 1.524 1_554 S
C1174 C1188 1.377 1_554 S
C1175 C1174 1.524 1_556 S
C1175 C1176 1.397 1_556 S
C1175 C1180 1.363 . S
C1176 H1153 0.950 . S
C1176 C1175 1.397 1_554 S
C1176 C1177 1.334 . S
C1177 H1154 0.950 . S
C1177 C1176 1.334 . S
C1177 C1178 1.287 1_554 S
C1178 C1177 1.287 1_556 S
C1178 C1179 1.524 . S
C1178 H1197 0.913 . S
C1179 H1155 0.950 . S
C1179 C1178 1.524 . S
C1179 C1180 1.415 . S
C1180 H1156 0.950 . S
C1180 C1175 1.363 . S
C1180 C1179 1.415 . S
C1181 H1157 0.951 . S
C1181 C1182 1.366 . S
C1181 C1183 1.388 . S
C1182 C1181 1.366 . S
C1182 C1186 1.385 . S
C1183 H1158 0.951 1_556 S
C1183 C1181 1.388 . S
C1183 C1184 1.366 . S
C1184 C1183 1.366 . S
C1184 C1185 1.414 . S
C1184 C1187 1.499 1_556 S
C1185 H1159 0.950 . S
C1185 C1184 1.414 . S
C1185 C1186 1.374 . S
C1186 H1160 0.950 . S
C1186 C1182 1.385 . S
C1186 C1185 1.374 . S
C1187 C1184 1.499 1_554 S
C1187 C1188 1.373 1_554 S
C1187 C1189 1.389 . S
C1188 H1161 0.950 . S
C1188 C1174 1.377 1_556 S
C1188 C1187 1.373 1_556 S
C1189 C1173 1.377 . S
C1189 C1187 1.389 . S
C1189 C1190 1.524 . S
C1190 C1189 1.524 . S
C1190 C1191 1.397 . S
C1190 C1195 1.363 . S
C1191 H1162 0.950 . S
C1191 C1190 1.397 . S
C1191 C1192 1.334 . S
C1192 H1163 0.950 . S
C1192 C1191 1.334 . S
C1192 C1193 1.287 . S
C1193 C1192 1.287 . S
C1193 C1194 1.524 . S
C1193 H1196 0.999 . S
C1194 H1164 0.950 . S
C1194 C1193 1.524 . S
C1194 C1195 1.415 . S
C1195 H1165 0.950 . S
C1195 C1190 1.363 . S
C1195 C1194 1.415 . S
H1196 C1193 0.999 . S
H1197 C1178 0.913 . S
H1198 C1216 0.951 . S
H1199 C1218 0.951 . S
H1200 C1220 0.950 . S
H1201 C1221 0.950 . S
H1202 C1223 0.950 . S
H1203 C1226 0.950 . S
H1204 C1227 0.950 . S
H1205 C1229 0.950 . S
H1206 C1230 0.950 . S
H1207 C1231 0.951 . S
H1208 C1233 0.951 . S
H1209 C1235 0.950 . S
H1210 C1236 0.950 . S
H1211 C1238 0.950 . S
H1212 C1241 0.950 . S
H1213 C1242 0.950 . S
H1214 C1244 0.940 1_554 S
H1215 C1245 0.950 . S
C1216 H1198 0.951 . S
C1216 C1217 1.366 . S
C1216 C1218 1.388 . S
C1217 C1216 1.366 . S
C1217 C1221 1.385 . S
C1218 H1199 0.951 . S
C1218 C1216 1.388 . S
C1218 C1219 1.366 . S
C1219 C1218 1.366 . S
C1219 C1220 1.414 . S
C1219 C1222 1.499 . S
C1220 H1200 0.950 . S
C1220 C1219 1.414 . S
C1220 C1221 1.374 . S
C1221 H1201 0.950 . S
C1221 C1217 1.385 . S
C1221 C1220 1.374 . S
C1222 C1219 1.499 . S
C1222 C1223 1.373 . S
C1222 C1224 1.389 . S
C1223 H1202 0.950 . S
C1223 C1222 1.373 . S
C1223 C1239 1.377 . S
C1224 C1222 1.389 . S
C1224 C1225 1.524 . S
C1224 C1238 1.377 . S
C1225 C1224 1.524 . S
C1225 C1226 1.397 . S
C1225 C1230 1.363 . S
C1226 H1203 0.950 . S
C1226 C1225 1.397 . S
C1226 C1227 1.334 . S
C1227 H1204 0.950 . S
C1227 C1226 1.334 . S
C1227 C1228 1.287 . S
C1228 C1227 1.287 . S
C1228 C1229 1.524 . S
C1228 H1247 0.913 . S
C1229 H1205 0.950 . S
C1229 C1228 1.524 . S
C1229 C1230 1.415 . S
C1230 H1206 0.950 . S
C1230 C1225 1.363 . S
C1230 C1229 1.415 . S
C1231 H1207 0.951 . S
C1231 C1232 1.366 . S
C1231 C1233 1.388 . S
C1232 C1231 1.366 . S
C1232 C1236 1.385 . S
C1233 H1208 0.951 . S
C1233 C1231 1.388 . S
C1233 C1234 1.366 . S
C1234 C1233 1.366 . S
C1234 C1235 1.414 . S
C1234 C1237 1.499 . S
C1235 H1209 0.950 . S
C1235 C1234 1.414 . S
C1235 C1236 1.374 . S
C1236 H1210 0.950 . S
C1236 C1232 1.385 . S
C1236 C1235 1.374 . S
C1237 C1234 1.499 . S
C1237 C1238 1.373 . S
C1237 C1239 1.389 . S
C1238 H1211 0.950 . S
C1238 C1224 1.377 . S
C1238 C1237 1.373 . S
C1239 C1223 1.377 . S
C1239 C1237 1.389 . S
C1239 C1240 1.524 . S
C1240 C1239 1.524 . S
C1240 C1241 1.397 . S
C1240 C1245 1.363 . S
C1241 H1212 0.950 . S
C1241 C1240 1.397 . S
C1241 C1242 1.334 . S
C1242 H1213 0.950 . S
C1242 C1241 1.334 . S
C1242 C1243 1.287 . S
C1243 C1242 1.287 . S
C1243 C1244 1.531 . S
C1243 H1246 0.999 . S
C1244 H1214 0.940 1_556 S
C1244 C1243 1.531 . S
C1244 C1245 1.419 . S
C1245 H1215 0.950 . S
C1245 C1240 1.363 . S
C1245 C1244 1.419 . S
H1246 C1243 0.999 . S
H1247 C1228 0.913 . S
H1248 C1266 0.950 1_455 S
H1249 C1268 0.951 . S
H1250 C1270 0.950 . S
H1251 C1271 0.950 . S
H1252 C1273 0.950 . S
H1253 C1276 0.950 . S
H1254 C1277 0.950 . S
H1255 C1279 0.950 . S
H1256 C1280 0.950 . S
H1257 C1281 0.951 . S
H1258 C1283 0.951 . S
H1259 C1285 0.950 . S
H1260 C1286 0.950 . S
H1261 C1288 0.950 . S
H1262 C1291 0.950 . S
H1263 C1292 0.950 . S
H1264 C1294 0.950 . S
H1265 C1295 0.950 . S
C1266 H1248 0.950 1_655 S
C1266 C1267 1.366 . S
C1266 C1268 1.388 1_655 S
C1267 C1266 1.366 . S
C1267 C1271 1.385 . S
C1268 H1249 0.951 . S
C1268 C1266 1.388 1_455 S
C1268 C1269 1.366 1_455 S
C1269 C1268 1.366 1_655 S
C1269 C1270 1.414 . S
C1269 C1272 1.499 . S
C1270 H1250 0.950 . S
C1270 C1269 1.414 . S
C1270 C1271 1.374 . S
C1271 H1251 0.950 . S
C1271 C1267 1.385 . S
C1271 C1270 1.374 . S
C1272 C1269 1.499 . S
C1272 C1273 1.373 1_655 S
C1272 C1274 1.389 . S
C1273 H1252 0.950 . S
C1273 C1272 1.373 1_455 S
C1273 C1289 1.377 . S
C1274 C1272 1.389 . S
C1274 C1275 1.524 . S
C1274 C1288 1.377 . S
C1275 C1274 1.524 . S
C1275 C1276 1.397 . S
C1275 C1280 1.363 . S
C1276 H1253 0.950 . S
C1276 C1275 1.397 . S
C1276 C1277 1.334 . S
C1277 H1254 0.950 . S
C1277 C1276 1.334 . S
C1277 C1278 1.287 . S
C1278 C1277 1.287 . S
C1278 C1279 1.524 . S
C1278 H1297 0.913 . S
C1279 H1255 0.950 . S
C1279 C1278 1.524 . S
C1279 C1280 1.415 . S
C1280 H1256 0.950 . S
C1280 C1275 1.363 . S
C1280 C1279 1.415 . S
C1281 H1257 0.951 . S
C1281 C1282 1.388 . S
C1281 C1283 1.388 . S
C1282 C1281 1.388 . S
C1282 C1286 1.369 1_655 S
C1283 H1258 0.951 . S
C1283 C1281 1.388 . S
C1283 C1284 1.366 . S
C1284 C1283 1.366 . S
C1284 C1285 1.414 1_655 S
C1284 C1287 1.499 . S
C1285 H1259 0.950 . S
C1285 C1284 1.414 1_455 S
C1285 C1286 1.374 . S
C1286 H1260 0.950 . S
C1286 C1282 1.369 1_455 S
C1286 C1285 1.374 . S
C1287 C1284 1.499 . S
C1287 C1288 1.373 . S
C1287 C1289 1.389 1_655 S
C1288 H1261 0.950 . S
C1288 C1274 1.377 . S
C1288 C1287 1.373 . S
C1289 C1273 1.377 . S
C1289 C1287 1.389 1_455 S
C1289 C1290 1.524 . S
C1290 C1289 1.524 . S
C1290 C1291 1.397 . S
C1290 C1295 1.363 . S
C1291 H1262 0.950 . S
C1291 C1290 1.397 . S
C1291 C1292 1.334 . S
C1292 H1263 0.950 . S
C1292 C1291 1.334 . S
C1292 C1293 1.287 . S
C1293 C1292 1.287 . S
C1293 C1294 1.524 . S
C1293 H1296 0.999 . S
C1294 H1264 0.950 . S
C1294 C1293 1.524 . S
C1294 C1295 1.415 . S
C1295 H1265 0.950 . S
C1295 C1290 1.363 . S
C1295 C1294 1.415 . S
H1296 C1293 0.999 . S
H1297 C1278 0.913 . S
H1298 C1316 0.951 . S
H1299 C1318 0.951 . S
H1300 C1320 0.950 . S
H1301 C1321 0.950 . S
H1302 C1323 0.950 . S
H1303 C1326 0.950 1_545 S
H1304 C1327 0.950 . S
H1305 C1329 0.950 . S
H1306 C1330 0.950 . S
H1307 C1331 0.951 . S
H1308 C1333 0.951 . S
H1309 C1335 0.950 . S
H1310 C1336 0.950 . S
H1311 C1338 0.950 . S
H1312 C1341 0.912 1_565 S
H1313 C1342 0.950 1_565 S
H1314 C1344 0.950 . S
H1315 C1345 0.950 . S
C1316 H1298 0.951 . S
C1316 C1317 1.366 . S
C1316 C1318 1.388 . S
C1317 C1316 1.366 . S
C1317 C1321 1.385 1_565 S
C1318 H1299 0.951 . S
C1318 C1316 1.388 . S
C1318 C1319 1.366 . S
C1319 C1318 1.366 . S
C1319 C1320 1.414 1_565 S
C1319 C1322 1.499 . S
C1320 H1300 0.950 . S
C1320 C1319 1.414 1_545 S
C1320 C1321 1.374 . S
C1321 H1301 0.950 . S
C1321 C1317 1.385 1_545 S
C1321 C1320 1.374 . S
C1322 C1319 1.499 . S
C1322 C1323 1.373 1_565 S
C1322 C1324 1.389 . S
C1323 H1302 0.950 . S
C1323 C1322 1.373 1_545 S
C1323 C1339 1.377 . S
C1324 C1322 1.389 . S
C1324 C1325 1.524 . S
C1324 C1338 1.377 . S
C1325 C1324 1.524 . S
C1325 C1326 1.397 . S
C1325 C1330 1.363 . S
C1326 H1303 0.950 1_565 S
C1326 C1325 1.397 . S
C1326 C1327 1.334 . S
C1327 H1304 0.950 . S
C1327 C1326 1.334 . S
C1327 C1328 1.287 . S
C1328 C1327 1.287 . S
C1328 C1329 1.524 . S
C1328 H1347 0.913 . S
C1329 H1305 0.950 . S
C1329 C1328 1.524 . S
C1329 C1330 1.415 . S
C1330 H1306 0.950 . S
C1330 C1325 1.363 . S
C1330 C1329 1.415 . S
C1331 H1307 0.951 . S
C1331 C1332 1.366 1_545 S
C1331 C1333 1.388 . S
C1332 C1331 1.366 1_565 S
C1332 C1336 1.385 . S
C1333 H1308 0.951 . S
C1333 C1331 1.388 . S
C1333 C1334 1.366 1_545 S
C1334 C1333 1.366 1_565 S
C1334 C1335 1.414 . S
C1334 C1337 1.499 . S
C1335 H1309 0.950 . S
C1335 C1334 1.414 . S
C1335 C1336 1.374 . S
C1336 H1310 0.950 . S
C1336 C1332 1.385 . S
C1336 C1335 1.374 . S
C1337 C1334 1.499 . S
C1337 C1338 1.373 . S
C1337 C1339 1.389 1_565 S
C1338 H1311 0.950 . S
C1338 C1324 1.377 . S
C1338 C1337 1.373 . S
C1339 C1323 1.377 . S
C1339 C1337 1.389 1_545 S
C1339 C1340 1.524 . S
C1340 C1339 1.524 . S
C1340 C1341 1.424 . S
C1340 C1345 1.363 . S
C1341 H1312 0.912 1_545 S
C1341 C1340 1.424 . S
C1341 C1342 1.345 . S
C1342 H1313 0.950 1_545 S
C1342 C1341 1.345 . S
C1342 C1343 1.287 . S
C1343 C1342 1.287 . S
C1343 C1344 1.524 . S
C1343 H1346 0.999 . S
C1344 H1314 0.950 . S
C1344 C1343 1.524 . S
C1344 C1345 1.415 . S
C1345 H1315 0.950 . S
C1345 C1340 1.363 . S
C1345 C1344 1.415 . S
H1346 C1343 0.999 . S
H1347 C1328 0.913 . S
H1348 C1366 0.951 . S
H1349 C1368 0.951 . S
H1350 C1370 0.950 . S
H1351 C1371 0.950 . S
H1352 C1373 0.950 . S
H1353 C1376 0.950 . S
H1354 C1377 0.950 . S
H1355 C1379 0.950 . S
H1356 C1380 0.950 . S
H1357 C1381 0.951 . S
H1358 C1383 0.951 . S
H1359 C1385 0.950 . S
H1360 C1386 0.950 . S
H1361 C1388 0.950 . S
H1362 C1391 0.950 . S
H1363 C1392 0.950 . S
H1364 C1394 0.950 . S
H1365 C1395 0.950 . S
C1366 H1348 0.951 . S
C1366 C1367 1.366 . S
C1366 C1368 1.388 . S
C1367 C1366 1.366 . S
C1367 C1371 1.385 . S
C1368 H1349 0.951 . S
C1368 C1366 1.388 . S
C1368 C1369 1.366 . S
C1369 C1368 1.366 . S
C1369 C1370 1.414 . S
C1369 C1372 1.499 . S
C1370 H1350 0.950 . S
C1370 C1369 1.414 . S
C1370 C1371 1.374 . S
C1371 H1351 0.950 . S
C1371 C1367 1.385 . S
C1371 C1370 1.374 . S
C1372 C1369 1.499 . S
C1372 C1373 1.373 . S
C1372 C1374 1.389 . S
C1373 H1352 0.950 . S
C1373 C1372 1.373 . S
C1373 C1389 1.377 . S
C1374 C1372 1.389 . S
C1374 C1375 1.524 . S
C1374 C1388 1.377 . S
C1375 C1374 1.524 . S
C1375 C1376 1.397 . S
C1375 C1380 1.363 . S
C1376 H1353 0.950 . S
C1376 C1375 1.397 . S
C1376 C1377 1.334 . S
C1377 H1354 0.950 . S
C1377 C1376 1.334 . S
C1377 C1378 1.287 . S
C1378 C1377 1.287 . S
C1378 C1379 1.524 . S
C1378 H1397 0.913 . S
C1379 H1355 0.950 . S
C1379 C1378 1.524 . S
C1379 C1380 1.415 . S
C1380 H1356 0.950 . S
C1380 C1375 1.363 . S
C1380 C1379 1.415 . S
C1381 H1357 0.951 . S
C1381 C1382 1.366 . S
C1381 C1383 1.388 . S
C1382 C1381 1.366 . S
C1382 C1386 1.385 . S
C1383 H1358 0.951 . S
C1383 C1381 1.388 . S
C1383 C1384 1.366 . S
C1384 C1383 1.366 . S
C1384 C1385 1.414 . S
C1384 C1387 1.499 . S
C1385 H1359 0.950 . S
C1385 C1384 1.414 . S
C1385 C1386 1.374 . S
C1386 H1360 0.950 . S
C1386 C1382 1.385 . S
C1386 C1385 1.374 . S
C1387 C1384 1.499 . S
C1387 C1388 1.373 . S
C1387 C1389 1.389 . S
C1388 H1361 0.950 . S
C1388 C1374 1.377 . S
C1388 C1387 1.373 . S
C1389 C1373 1.377 . S
C1389 C1387 1.389 . S
C1389 C1390 1.524 . S
C1390 C1389 1.524 . S
C1390 C1391 1.397 . S
C1390 C1395 1.363 . S
C1391 H1362 0.950 . S
C1391 C1390 1.397 . S
C1391 C1392 1.334 . S
C1392 H1363 0.950 . S
C1392 C1391 1.334 . S
C1392 C1393 1.287 . S
C1393 C1392 1.287 . S
C1393 C1394 1.524 . S
C1393 H1396 0.999 . S
C1394 H1364 0.950 . S
C1394 C1393 1.524 . S
C1394 C1395 1.415 . S
C1395 H1365 0.950 . S
C1395 C1390 1.363 . S
C1395 C1394 1.415 . S
H1396 C1393 0.999 . S
H1397 C1378 0.913 . S
H1398 C1416 0.951 . S
H1399 C1418 0.951 . S
H1400 C1420 0.950 . S
H1401 C1421 0.950 . S
H1402 C1423 0.950 . S
H1403 C1426 0.950 . S
H1404 C1427 0.950 . S
H1405 C1429 0.950 . S
H1406 C1430 0.950 . S
H1407 C1431 0.951 . S
H1408 C1433 0.951 . S
H1409 C1435 0.950 . S
H1410 C1436 0.950 . S
H1411 C1438 0.950 . S
H1412 C1441 0.950 . S
H1413 C1442 0.950 . S
H1414 C1444 0.950 . S
H1415 C1445 0.950 . S
C1416 H1398 0.951 . S
C1416 C1417 1.366 . S
C1416 C1418 1.388 . S
C1417 C1416 1.366 . S
C1417 C1421 1.385 . S
C1418 H1399 0.951 . S
C1418 C1416 1.388 . S
C1418 C1419 1.366 . S
C1419 C1418 1.366 . S
C1419 C1420 1.414 . S
C1419 C1422 1.499 . S
C1420 H1400 0.950 . S
C1420 C1419 1.414 . S
C1420 C1421 1.374 . S
C1421 H1401 0.950 . S
C1421 C1417 1.385 . S
C1421 C1420 1.374 . S
C1422 C1419 1.499 . S
C1422 C1423 1.373 . S
C1422 C1424 1.389 . S
C1423 H1402 0.950 . S
C1423 C1422 1.373 . S
C1423 C1439 1.377 . S
C1424 C1422 1.389 . S
C1424 C1425 1.524 . S
C1424 C1438 1.377 . S
C1425 C1424 1.524 . S
C1425 C1426 1.397 . S
C1425 C1430 1.363 . S
C1426 H1403 0.950 . S
C1426 C1425 1.397 . S
C1426 C1427 1.334 . S
C1427 H1404 0.950 . S
C1427 C1426 1.334 . S
C1427 C1428 1.287 . S
C1428 C1427 1.287 . S
C1428 C1429 1.524 . S
C1428 H1447 0.913 . S
C1429 H1405 0.950 . S
C1429 C1428 1.524 . S
C1429 C1430 1.415 . S
C1430 H1406 0.950 . S
C1430 C1425 1.363 . S
C1430 C1429 1.415 . S
C1431 H1407 0.951 . S
C1431 C1432 1.366 . S
C1431 C1433 1.388 . S
C1432 C1431 1.366 . S
C1432 C1436 1.385 . S
C1433 H1408 0.951 . S
C1433 C1431 1.388 . S
C1433 C1434 1.366 . S
C1434 C1433 1.366 . S
C1434 C1435 1.414 . S
C1434 C1437 1.499 . S
C1435 H1409 0.950 . S
C1435 C1434 1.414 . S
C1435 C1436 1.374 . S
C1436 H1410 0.950 . S
C1436 C1432 1.385 . S
C1436 C1435 1.374 . S
C1437 C1434 1.499 . S
C1437 C1438 1.373 . S
C1437 C1439 1.389 . S
C1438 H1411 0.950 . S
C1438 C1424 1.377 . S
C1438 C1437 1.373 . S
C1439 C1423 1.377 . S
C1439 C1437 1.389 . S
C1439 C1440 1.524 . S
C1440 C1439 1.524 . S
C1440 C1441 1.397 . S
C1440 C1445 1.363 . S
C1441 H1412 0.950 . S
C1441 C1440 1.397 . S
C1441 C1442 1.334 . S
C1442 H1413 0.950 . S
C1442 C1441 1.334 . S
C1442 C1443 1.287 . S
C1443 C1442 1.287 . S
C1443 C1444 1.524 . S
C1443 H1446 0.999 . S
C1444 H1414 0.950 . S
C1444 C1443 1.524 . S
C1444 C1445 1.415 . S
C1445 H1415 0.950 . S
C1445 C1440 1.363 . S
C1445 C1444 1.415 . S
H1446 C1443 0.999 . S
H1447 C1428 0.913 . S
C267 C76 1.862 . S
C282 C90 1.906 . S
C332 C130 2.062 . S
C317 C87 2.041 . S
C382 C194 1.836 . S
C367 C54 1.748 . S
C432 C210 1.456 . S
C417 C65 1.361 . S
C482 C111 1.903 . S
C467 C32 1.862 . S
C517 C43 2.047 . S
C532 C151 2.062 . S
C567 C10 1.755 . S
C582 C185 1.838 . S
C617 C21 1.362 . S
C632 C231 1.456 . S
C682 C105 0.306 . S
C667 C60 0.300 . S
C732 C145 0.572 . S
C717 C71 0.587 . S
C782 C181 0.433 . S
C767 C82 0.446 . S
C817 C49 0.395 . S
C832 C225 0.451 . S
C867 C16 0.316 . S
C882 C114 0.289 . S
C932 C154 0.571 . S
C917 C27 0.587 . S
C982 C192 0.434 . S
C967 C38 0.459 . S
C1017 C5 0.414 . S
C1032 C234 0.452 . S
C1067 C59 1.794 1_556 S
C1082 C112 1.954 . S
C1117 C70 1.768 . S
C1132 C152 1.896 . S
C1182 C170 1.487 . S
C1167 C81 1.476 . S
C1232 C232 2.299 . S
C1217 C48 2.105 . S
C1267 C15 1.792 . S
C1282 C101 1.943 1_655 S
C1332 C141 1.895 . S
C1317 C26 1.774 . S
C1382 C191 1.487 . S
C1367 C37 1.470 . S
C1417 C4 2.099 . S
C1432 C221 2.300 . S
