# Generated by pormake.
# Topology cml, (3,6)-cn, num edge types: 1
# Building blocks:
#     Node 0, Type 0, BuildingBlock: BELTOD_clean_linker_0, # of connection points: 3
#     Node 1, Type 0, BuildingBlock: BELTOD_clean_linker_0, # of connection points: 3
#     Node 2, Type 0, BuildingBlock: BELTOD_clean_linker_0, # of connection points: 3
#     Node 3, Type 0, BuildingBlock: BELTOD_clean_linker_0, # of connection points: 3
#     Node 4, Type 0, BuildingBlock: BELTOD_clean_linker_0, # of connection points: 3
#     Node 5, Type 0, BuildingBlock: BELTOD_clean_linker_0, # of connection points: 3
#     Node 6, Type 0, BuildingBlock: BELTOD_clean_linker_0, # of connection points: 3
#     Node 7, Type 0, BuildingBlock: BELTOD_clean_linker_0, # of connection points: 3
#     Node 8, Type 1, BuildingBlock: IZENUY_clean_sbu_0, # of connection points: 6
#     Node 9, Type 1, BuildingBlock: IZENUY_clean_sbu_0, # of connection points: 6
#     Node 10, Type 1, BuildingBlock: IZENUY_clean_sbu_0, # of connection points: 6
#     Node 11, Type 1, BuildingBlock: IZENUY_clean_sbu_0, # of connection points: 6
#     Edge 12, Type (0, 1), BuildingBlock: MIFKUJ_clean_linker_0, # of connection points: 2
#     Edge 13, Type (0, 1), BuildingBlock: MIFKUJ_clean_linker_0, # of connection points: 2
#     Edge 14, Type (0, 1), BuildingBlock: MIFKUJ_clean_linker_0, # of connection points: 2
#     Edge 15, Type (0, 1), BuildingBlock: MIFKUJ_clean_linker_0, # of connection points: 2
#     Edge 16, Type (0, 1), BuildingBlock: MIFKUJ_clean_linker_0, # of connection points: 2
#     Edge 17, Type (0, 1), BuildingBlock: MIFKUJ_clean_linker_0, # of connection points: 2
#     Edge 18, Type (0, 1), BuildingBlock: MIFKUJ_clean_linker_0, # of connection points: 2
#     Edge 19, Type (0, 1), BuildingBlock: MIFKUJ_clean_linker_0, # of connection points: 2
#     Edge 20, Type (0, 1), BuildingBlock: MIFKUJ_clean_linker_0, # of connection points: 2
#     Edge 21, Type (0, 1), BuildingBlock: MIFKUJ_clean_linker_0, # of connection points: 2
#     Edge 22, Type (0, 1), BuildingBlock: MIFKUJ_clean_linker_0, # of connection points: 2
#     Edge 23, Type (0, 1), BuildingBlock: MIFKUJ_clean_linker_0, # of connection points: 2
#     Edge 24, Type (0, 1), BuildingBlock: MIFKUJ_clean_linker_0, # of connection points: 2
#     Edge 25, Type (0, 1), BuildingBlock: MIFKUJ_clean_linker_0, # of connection points: 2
#     Edge 26, Type (0, 1), BuildingBlock: MIFKUJ_clean_linker_0, # of connection points: 2
#     Edge 27, Type (0, 1), BuildingBlock: MIFKUJ_clean_linker_0, # of connection points: 2
#     Edge 28, Type (0, 1), BuildingBlock: MIFKUJ_clean_linker_0, # of connection points: 2
#     Edge 29, Type (0, 1), BuildingBlock: MIFKUJ_clean_linker_0, # of connection points: 2
#     Edge 30, Type (0, 1), BuildingBlock: MIFKUJ_clean_linker_0, # of connection points: 2
#     Edge 31, Type (0, 1), BuildingBlock: MIFKUJ_clean_linker_0, # of connection points: 2
#     Edge 32, Type (0, 1), BuildingBlock: MIFKUJ_clean_linker_0, # of connection points: 2
#     Edge 33, Type (0, 1), BuildingBlock: MIFKUJ_clean_linker_0, # of connection points: 2
#     Edge 34, Type (0, 1), BuildingBlock: MIFKUJ_clean_linker_0, # of connection points: 2
#     Edge 35, Type (0, 1), BuildingBlock: MIFKUJ_clean_linker_0, # of connection points: 2
# Relax obj value: 0.049
# Max RMSD: 0.063
# Mean RMSD: 0.061
data_MOF--net-cml--node1-IZENUY_clean_sbu_0--node2-BELTOD_clean_linker_0--edge1-MIFKUJ_clean_linker_0
_symmetry_space_group_name_H-M    P1
_symmetry_Int_Tables_number       1
_symmetry_cell_setting            triclinic
loop_
_symmetry_equiv_pos_as_xyz
'x, y, z'
_cell_length_a     50.85694
_cell_length_b     59.042271
_cell_length_c     54.424431
_cell_angle_alpha  89.620485
_cell_angle_beta   89.861083
_cell_angle_gamma 90.155645
loop_
_atom_site_label
_atom_site_type_symbol
_atom_site_fract_x
_atom_site_fract_y
_atom_site_fract_z
_atom_type_partial_charge
P0 P 0.32748 0.34934 0.98065 0.0
H1 H 0.33163 0.31221 0.01573 0.0
H2 H 0.33625 0.31078 0.06032 0.0
H3 H 0.33444 0.38404 0.06236 0.0
H4 H 0.3279 0.38513 0.0182 0.0
H5 H 0.3056 0.34502 0.93173 0.0
H6 H 0.2647 0.32895 0.91621 0.0
H7 H 0.24162 0.31152 0.99057 0.0
H8 H 0.28152 0.32901 0.0059 0.0
H9 H 0.37464 0.37686 0.9769 0.0
H10 H 0.29207 0.38458 0.96095 0.0
O11 O 0.35128 0.33294 0.96949 0.0
H12 H 0.38279 0.41563 0.96247 0.0
H13 H 0.30029 0.42313 0.94586 0.0
C14 C 0.32976 0.34873 0.01362 0.0
C15 C 0.33199 0.32792 0.0259 0.0
C16 C 0.33482 0.32717 0.0514 0.0
C17 C 0.33605 0.34731 0.06508 0.0
C18 C 0.33324 0.36815 0.05263 0.0
C19 C 0.32984 0.36882 0.02718 0.0
C20 C 0.29664 0.33823 0.96992 0.0
C21 C 0.29153 0.33795 0.94466 0.0
C22 C 0.26822 0.32854 0.93582 0.0
C23 C 0.24981 0.31873 0.95209 0.0
C24 C 0.25504 0.3192 0.97747 0.0
C25 C 0.27815 0.32901 0.9863 0.0
C26 C 0.33292 0.37767 0.96937 0.0
C27 C 0.35833 0.38683 0.97008 0.0
C28 C 0.36293 0.40898 0.96203 0.0
C29 C 0.34216 0.42223 0.95298 0.0
C30 C 0.31664 0.41311 0.95253 0.0
C31 C 0.31198 0.39106 0.96101 0.0
P32 P 0.74976 0.59283 0.51875 0.0
H33 H 0.76361 0.56029 0.4809 0.0
H34 H 0.73743 0.5345 0.4557 0.0
H35 H 0.66632 0.56158 0.48748 0.0
H36 H 0.69253 0.58715 0.51265 0.0
H37 H 0.78799 0.62658 0.53343 0.0
H38 H 0.81044 0.65718 0.5113 0.0
H39 H 0.76469 0.64231 0.44652 0.0
H40 H 0.7426 0.61153 0.46871 0.0
H41 H 0.73987 0.57227 0.56665 0.0
H42 H 0.71693 0.63284 0.5277 0.0
O43 O 0.77464 0.57708 0.52909 0.0
H44 H 0.71268 0.58325 0.60156 0.0
H45 H 0.689 0.64375 0.56237 0.0
C46 C 0.73007 0.5753 0.49898 0.0
C47 C 0.74237 0.56071 0.48234 0.0
C48 C 0.72739 0.5461 0.46784 0.0
C49 C 0.69981 0.54586 0.46977 0.0
C50 C 0.68754 0.5611 0.48589 0.0
C51 C 0.70254 0.57578 0.50027 0.0
C52 C 0.76386 0.61667 0.50267 0.0
C53 C 0.78266 0.63005 0.51452 0.0
C54 C 0.79536 0.64762 0.50187 0.0
C55 C 0.78944 0.65214 0.47709 0.0
C56 C 0.76998 0.63905 0.46548 0.0
C57 C 0.75724 0.62149 0.47819 0.0
C58 C 0.7308 0.60196 0.54483 0.0
C59 C 0.72909 0.58804 0.5657 0.0
C60 C 0.7133 0.59424 0.58556 0.0
C61 C 0.69858 0.61439 0.58479 0.0
C62 C 0.70037 0.62831 0.56375 0.0
C63 C 0.71628 0.62209 0.54389 0.0
P64 P 0.74591 0.40602 0.02365 0.0
H65 H 0.75703 0.3742 0.06338 0.0
H66 H 0.73026 0.35881 0.09703 0.0
H67 H 0.66269 0.39468 0.06861 0.0
H68 H 0.68916 0.40904 0.03472 0.0
H69 H 0.79433 0.40655 0.99514 0.0
H70 H 0.81644 0.37818 0.97012 0.0
H71 H 0.75194 0.33171 0.98295 0.0
H72 H 0.73018 0.36017 0.00841 0.0
H73 H 0.72779 0.45111 0.03581 0.0
H74 H 0.72341 0.40635 0.97366 0.0
O75 O 0.76994 0.41953 0.03843 0.0
H76 H 0.70116 0.47905 0.01384 0.0
H77 H 0.69679 0.43432 0.95149 0.0
C78 C 0.72522 0.39292 0.04667 0.0
C79 C 0.73635 0.37847 0.06429 0.0
C80 C 0.72105 0.36984 0.08362 0.0
C81 C 0.6943 0.37563 0.08574 0.0
C82 C 0.6831 0.38959 0.06751 0.0
C83 C 0.69837 0.39805 0.04813 0.0
C84 C 0.76095 0.38526 0.00404 0.0
C85 C 0.78495 0.39025 0.99254 0.0
C86 C 0.79746 0.37406 0.97805 0.0
C87 C 0.78605 0.35258 0.9746 0.0
C88 C 0.76148 0.34793 0.98556 0.0
C89 C 0.74898 0.36419 1.00007 0.0
C90 C 0.72788 0.42683 0.00624 0.0
C91 C 0.72132 0.44742 0.01732 0.0
C92 C 0.70593 0.46328 0.00483 0.0
C93 C 0.69688 0.45886 0.98095 0.0
C94 C 0.70373 0.43828 0.96977 0.0
C95 C 0.71893 0.42228 0.98243 0.0
P96 P 0.32337 0.64548 0.47676 0.0
H97 H 0.32432 0.62771 0.42729 0.0
H98 H 0.32741 0.58945 0.41084 0.0
H99 H 0.3289 0.56238 0.48488 0.0
H100 H 0.32432 0.60054 0.50104 0.0
H101 H 0.30736 0.69259 0.47358 0.0
H102 H 0.26683 0.71095 0.4598 0.0
H103 H 0.23166 0.64532 0.44756 0.0
H104 H 0.27207 0.62705 0.4616 0.0
H105 H 0.36818 0.63343 0.50679 0.0
H106 H 0.28998 0.65944 0.51853 0.0
O107 O 0.34771 0.66005 0.46339 0.0
H108 H 0.3766 0.63513 0.55097 0.0
H109 H 0.29843 0.66141 0.56274 0.0
C110 C 0.32468 0.617 0.46533 0.0
C111 C 0.32518 0.61348 0.43993 0.0
C112 C 0.32705 0.5916 0.43058 0.0
C113 C 0.32876 0.57279 0.44652 0.0
C114 C 0.32741 0.5764 0.47203 0.0
C115 C 0.32517 0.59831 0.48135 0.0
C116 C 0.29288 0.65854 0.4681 0.0
C117 C 0.29087 0.68218 0.46802 0.0
C118 C 0.2677 0.69262 0.4603 0.0
C119 C 0.24623 0.67952 0.45245 0.0
C120 C 0.24807 0.65579 0.45319 0.0
C121 C 0.27116 0.64536 0.4612 0.0
C122 C 0.32857 0.64638 0.5094 0.0
C123 C 0.35283 0.63946 0.51891 0.0
C124 C 0.35755 0.64032 0.54412 0.0
C125 C 0.33813 0.64838 0.56024 0.0
C126 C 0.31377 0.65528 0.55067 0.0
C127 C 0.30895 0.65413 0.52542 0.0
P128 P 0.82857 0.85017 0.97632 0.0
H129 H 0.84979 0.81509 0.00851 0.0
H130 H 0.85728 0.81344 0.05284 0.0
H131 H 0.81967 0.87857 0.06073 0.0
H132 H 0.81253 0.88017 0.01633 0.0
H133 H 0.81596 0.8242 0.93263 0.0
H134 H 0.77534 0.80701 0.91783 0.0
H135 H 0.73415 0.83212 0.98164 0.0
H136 H 0.77513 0.84886 0.99658 0.0
H137 H 0.86933 0.88384 0.9829 0.0
H138 H 0.79244 0.88088 0.94973 0.0
O139 O 0.85399 0.83664 0.96376 0.0
H140 H 0.87373 0.92336 0.97002 0.0
H141 H 0.79653 0.92053 0.93711 0.0
C142 C 0.83128 0.84801 0.00915 0.0
C143 C 0.84302 0.82893 0.01983 0.0
C144 C 0.84708 0.82793 0.04519 0.0
C145 C 0.83931 0.846 0.06025 0.0
C146 C 0.82631 0.86458 0.04954 0.0
C147 C 0.82221 0.86552 0.02419 0.0
C148 C 0.79862 0.83729 0.96595 0.0
C149 C 0.79823 0.82583 0.94353 0.0
C150 C 0.77492 0.81624 0.93496 0.0
C151 C 0.75151 0.81817 0.94858 0.0
C152 C 0.75194 0.83003 0.97092 0.0
C153 C 0.77532 0.83961 0.97948 0.0
C154 C 0.83069 0.87942 0.96718 0.0
C155 C 0.85333 0.89178 0.97298 0.0
C156 C 0.85569 0.91441 0.96581 0.0
C157 C 0.8354 0.92511 0.95264 0.0
C158 C 0.81256 0.91271 0.94708 0.0
C159 C 0.81019 0.89003 0.95434 0.0
P160 P 0.25581 0.08834 0.52906 0.0
H161 H 0.26837 0.04794 0.50075 0.0
H162 H 0.24163 0.02215 0.4762 0.0
H163 H 0.1731 0.06311 0.49073 0.0
H164 H 0.20006 0.089 0.51487 0.0
H165 H 0.29753 0.12006 0.54046 0.0
H166 H 0.31882 0.15043 0.51708 0.0
H167 H 0.26506 0.13905 0.45696 0.0
H168 H 0.24426 0.10831 0.48034 0.0
H169 H 0.24838 0.07062 0.57865 0.0
H170 H 0.22037 0.12707 0.53556 0.0
O171 O 0.28089 0.07319 0.54005 0.0
H172 H 0.2212 0.0825 0.61314 0.0
H173 H 0.19212 0.13866 0.56971 0.0
C174 C 0.2361 0.07009 0.51008 0.0
C175 C 0.24759 0.05136 0.49866 0.0
C176 C 0.23226 0.03659 0.48469 0.0
C177 C 0.20516 0.04043 0.48172 0.0
C178 C 0.19392 0.0597 0.49256 0.0
C179 C 0.20928 0.07444 0.50656 0.0
C180 C 0.26959 0.11177 0.51202 0.0
C181 C 0.29028 0.12418 0.52227 0.0
C182 C 0.30232 0.14165 0.50892 0.0
C183 C 0.29374 0.14715 0.48506 0.0
C184 C 0.27244 0.13501 0.47512 0.0
C185 C 0.26043 0.11749 0.48852 0.0
C186 C 0.23666 0.09816 0.55471 0.0
C187 C 0.23642 0.08567 0.57666 0.0
C188 C 0.22061 0.09237 0.59631 0.0
C189 C 0.20429 0.11151 0.59424 0.0
C190 C 0.20468 0.12404 0.57213 0.0
C191 C 0.22074 0.1174 0.55253 0.0
P192 P 0.25661 0.91098 0.02135 0.0
H193 H 0.26207 0.9179 0.0743 0.0
H194 H 0.23466 0.90739 0.10936 0.0
H195 H 0.17997 0.87435 0.06046 0.0
H196 H 0.20824 0.88416 0.02554 0.0
H197 H 0.26684 0.90655 0.96856 0.0
H198 H 0.28624 0.87629 0.9442 0.0
H199 H 0.29115 0.83429 0.0094 0.0
H200 H 0.27086 0.86436 0.03338 0.0
H201 H 0.25881 0.96038 0.01881 0.0
H202 H 0.21226 0.90686 0.9873 0.0
O203 O 0.28403 0.92337 0.03145 0.0
H204 H 0.23213 0.98855 0.99754 0.0
H205 H 0.18473 0.93499 0.96658 0.0
C206 C 0.23721 0.90178 0.04731 0.0
C207 C 0.24434 0.90819 0.07112 0.0
C208 C 0.22846 0.90233 0.09118 0.0
C209 C 0.20492 0.89016 0.08779 0.0
C210 C 0.19806 0.8835 0.06384 0.0
C211 C 0.21411 0.88924 0.0438 0.0
C212 C 0.26674 0.88749 0.00266 0.0
C213 C 0.27141 0.8906 0.97747 0.0
C214 C 0.28286 0.87335 0.96361 0.0
C215 C 0.29037 0.8528 0.9748 0.0
C216 C 0.28522 0.84967 1.00003 0.0
C217 C 0.27363 0.8669 0.01382 0.0
C218 C 0.23771 0.93152 0.00439 0.0
C219 C 0.24288 0.95467 0.00721 0.0
C220 C 0.22741 0.9708 0.9952 0.0
C221 C 0.20619 0.96409 0.98036 0.0
C222 C 0.20112 0.94079 0.97756 0.0
C223 C 0.21673 0.92466 0.98952 0.0
P224 P 0.81098 0.14273 0.49057 0.0
H225 H 0.83295 0.12737 0.44412 0.0
H226 H 0.84317 0.08978 0.42827 0.0
H227 H 0.81041 0.05938 0.49405 0.0
H228 H 0.80045 0.09713 0.50987 0.0
H229 H 0.78286 0.18311 0.50528 0.0
H230 H 0.74094 0.19954 0.49255 0.0
H231 H 0.72718 0.14227 0.44524 0.0
H232 H 0.76908 0.12588 0.45807 0.0
H233 H 0.8584 0.14001 0.51971 0.0
H234 H 0.77481 0.14229 0.53314 0.0
O235 O 0.83306 0.16053 0.4784 0.0
H236 H 0.86643 0.13864 0.56396 0.0
H237 H 0.78278 0.14131 0.57752 0.0
C238 C 0.81661 0.11497 0.47839 0.0
C239 C 0.82792 0.1126 0.45509 0.0
C240 C 0.83352 0.09111 0.44596 0.0
C241 C 0.82776 0.07163 0.46001 0.0
C242 C 0.81544 0.0741 0.483 0.0
C243 C 0.80974 0.09563 0.49204 0.0
C244 C 0.77892 0.1532 0.48285 0.0
C245 C 0.77059 0.17392 0.49249 0.0
C246 C 0.74661 0.18323 0.48529 0.0
C247 C 0.73078 0.1721 0.46801 0.0
C248 C 0.73906 0.1512 0.45856 0.0
C249 C 0.76297 0.1418 0.46595 0.0
C250 C 0.81611 0.14188 0.52321 0.0
C251 C 0.8418 0.14036 0.53221 0.0
C252 C 0.84634 0.13938 0.55744 0.0
C253 C 0.8252 0.13993 0.5741 0.0
C254 C 0.7994 0.14112 0.56504 0.0
C255 C 0.79487 0.14179 0.53971 0.0
Fe256 Fe 0.99793 0.82262 0.32105 0.0
Fe257 Fe 0.99929 0.8468 0.37087 0.0
O258 O 0.99797 0.84794 0.33839 0.0
Fe259 Fe 0.99665 0.87454 0.32327 0.0
O260 O 0.97699 0.86447 0.29737 0.0
O261 O 0.96659 0.82945 0.30709 0.0
O262 O 0.97938 0.80598 0.34404 0.0
C263 C 0.965 0.8121 0.36187 0.0
C264 C 0.03083 0.85234 0.29324 0.0
O265 O 0.96904 0.83067 0.37254 0.0
C266 C 0.03222 0.88249 0.36234 0.0
O267 O 0.02925 0.81391 0.33372 0.0
O268 O 0.0194 0.82114 0.37221 0.0
O269 O 0.02712 0.86906 0.30714 0.0
O270 O 0.01646 0.83479 0.29494 0.0
C271 C 0.96321 0.88228 0.3614 0.0
O272 O 0.02973 0.8629 0.37142 0.0
O273 O 0.01615 0.88965 0.34637 0.0
C274 C 0.03409 0.81202 0.35634 0.0
O275 O 0.97932 0.87228 0.37544 0.0
O276 O 0.96605 0.88165 0.3384 0.0
C277 C 0.96227 0.84732 0.29498 0.0
Fe278 Fe 0.99371 0.15761 0.87363 0.0
Fe279 Fe 0.99636 0.13041 0.82596 0.0
O280 O 0.99529 0.15674 0.84115 0.0
Fe281 Fe 0.99569 0.18222 0.8238 0.0
O282 O 0.02587 0.19117 0.8383 0.0
O283 O 0.01291 0.18394 0.87615 0.0
O284 O 0.02449 0.14245 0.87667 0.0
C285 C 0.02901 0.12331 0.86748 0.0
C286 C 0.95945 0.19154 0.86221 0.0
O287 O 0.01478 0.11573 0.8503 0.0
C288 C 0.96239 0.15665 0.79626 0.0
O289 O 0.97425 0.13141 0.87685 0.0
O290 O 0.96504 0.12201 0.83886 0.0
O291 O 0.97531 0.19826 0.84566 0.0
O292 O 0.96285 0.17276 0.87285 0.0
C293 C 0.03161 0.15404 0.79812 0.0
O294 O 0.97814 0.14023 0.79888 0.0
O295 O 0.96546 0.17464 0.80827 0.0
C296 C 0.95994 0.12109 0.86149 0.0
O297 O 0.0277 0.13717 0.81196 0.0
O298 O 0.01623 0.17092 0.79871 0.0
C299 C 0.02889 0.19312 0.86117 0.0
Fe300 Fe 0.4947 0.31876 0.32585 0.0
Fe301 Fe 0.49391 0.34663 0.37328 0.0
O302 O 0.49436 0.34529 0.34082 0.0
Fe303 Fe 0.49441 0.37065 0.3233 0.0
O304 O 0.46349 0.3632 0.30902 0.0
O305 O 0.47508 0.32848 0.2995 0.0
O306 O 0.46399 0.31019 0.34023 0.0
C307 C 0.4599 0.30971 0.36309 0.0
C308 C 0.52858 0.34233 0.29636 0.0
O309 O 0.47461 0.3206 0.37761 0.0
C310 C 0.52888 0.38205 0.35946 0.0
O311 O 0.51415 0.30443 0.34963 0.0
O312 O 0.5247 0.33146 0.37545 0.0
O313 O 0.51319 0.35906 0.29752 0.0
O314 O 0.52555 0.32539 0.31031 0.0
C315 C 0.45949 0.38044 0.36219 0.0
O316 O 0.51325 0.37293 0.37481 0.0
O317 O 0.52542 0.37962 0.33666 0.0
C318 C 0.52876 0.31216 0.36644 0.0
O319 O 0.46297 0.36186 0.37322 0.0
O320 O 0.47538 0.38696 0.34565 0.0
C321 C 0.45974 0.34525 0.29707 0.0
Fe322 Fe 0.49536 0.65697 0.86934 0.0
Fe323 Fe 0.49556 0.63046 0.82117 0.0
O324 O 0.49596 0.65663 0.83681 0.0
Fe325 Fe 0.49687 0.68243 0.81997 0.0
O326 O 0.52754 0.69067 0.83423 0.0
O327 O 0.51526 0.6828 0.87206 0.0
O328 O 0.52579 0.64106 0.87124 0.0
C329 C 0.5291 0.62181 0.86179 0.0
C330 C 0.46168 0.69174 0.85923 0.0
O331 O 0.51411 0.61497 0.84481 0.0
C332 C 0.46236 0.65821 0.79208 0.0
O333 O 0.47539 0.63117 0.87261 0.0
O334 O 0.46432 0.62264 0.83485 0.0
O335 O 0.47727 0.69843 0.84246 0.0
O336 O 0.4649 0.67279 0.86959 0.0
C337 C 0.53105 0.65366 0.79296 0.0
O338 O 0.47702 0.64108 0.79471 0.0
O339 O 0.46625 0.67589 0.80446 0.0
C340 C 0.46028 0.62126 0.85766 0.0
O341 O 0.52669 0.63655 0.80636 0.0
O342 O 0.51667 0.67112 0.79447 0.0
C343 C 0.53105 0.69214 0.85708 0.0
H344 H 0.24438 0.29408 0.90982 0.0
H345 H 0.20501 0.27514 0.89464 0.0
H346 H 0.16163 0.2974 0.95812 0.0
H347 H 0.20047 0.31758 0.97291 0.0
H348 H 0.15941 0.24802 0.94557 0.0
H349 H 0.14696 0.32283 0.91105 0.0
H350 H 0.16065 0.35675 0.88759 0.0
H351 H 0.17197 0.31625 0.8232 0.0
H352 H 0.15872 0.28201 0.8464 0.0
H353 H 0.03418 0.21062 0.90726 0.0
H354 H 0.07035 0.23367 0.92283 0.0
H355 H 0.10883 0.23038 0.85217 0.0
H356 H 0.0723 0.20796 0.83623 0.0
H357 H 0.11306 0.27128 0.86936 0.0
H358 H 0.12797 0.19693 0.90138 0.0
H359 H 0.11674 0.1614 0.92309 0.0
H360 H 0.10449 0.19821 0.98991 0.0
H361 H 0.11523 0.23404 0.96849 0.0
C362 C 0.22639 0.29543 0.92037 0.0
C363 C 0.22569 0.30748 0.94262 0.0
C364 C 0.20398 0.28441 0.91174 0.0
C365 C 0.18056 0.28493 0.92531 0.0
C366 C 0.17966 0.29678 0.94751 0.0
C367 C 0.20194 0.30816 0.95597 0.0
C368 C 0.15715 0.27272 0.91641 0.0
C369 C 0.14893 0.25325 0.92915 0.0
C370 C 0.14425 0.27924 0.89454 0.0
C371 C 0.15211 0.29983 0.88054 0.0
C372 C 0.15261 0.32112 0.89196 0.0
C373 C 0.16024 0.34041 0.87869 0.0
C374 C 0.16724 0.33864 0.85394 0.0
C375 C 0.16657 0.31759 0.84238 0.0
C376 C 0.15898 0.29824 0.85558 0.0
C377 C 0.05032 0.21485 0.89502 0.0
C378 C 0.05045 0.20742 0.87054 0.0
C379 C 0.07102 0.22796 0.90397 0.0
C380 C 0.09249 0.23345 0.88878 0.0
C381 C 0.09246 0.22634 0.86422 0.0
C382 C 0.0716 0.21349 0.85516 0.0
C383 C 0.11512 0.24643 0.89852 0.0
C384 C 0.12333 0.26604 0.88589 0.0
C385 C 0.12837 0.23975 0.92024 0.0
C386 C 0.12214 0.21821 0.93326 0.0
C387 C 0.12269 0.19748 0.92066 0.0
C388 C 0.11644 0.17728 0.93292 0.0
C389 C 0.10984 0.17756 0.95785 0.0
C390 C 0.10957 0.19803 0.97059 0.0
C391 C 0.11575 0.21829 0.9584 0.0
H392 H 0.10501 0.16191 0.96731 0.0
H393 H 0.17314 0.3536 0.84369 0.0
H394 H 0.80868 0.64974 0.43016 0.0
H395 H 0.83574 0.67767 0.40836 0.0
H396 H 0.83196 0.72194 0.47099 0.0
H397 H 0.80421 0.69436 0.49266 0.0
H398 H 0.82683 0.74538 0.42804 0.0
H399 H 0.88532 0.6891 0.46159 0.0
H400 H 0.90193 0.65038 0.46846 0.0
H401 H 0.9144 0.64269 0.3909 0.0
H402 H 0.8975 0.68128 0.38354 0.0
H403 H 0.93655 0.81627 0.40434 0.0
H404 H 0.90455 0.78969 0.42152 0.0
H405 H 0.91517 0.74591 0.35913 0.0
H406 H 0.94779 0.77219 0.34208 0.0
H407 H 0.91553 0.72194 0.40001 0.0
H408 H 0.85916 0.77899 0.36642 0.0
H409 H 0.84285 0.81781 0.35956 0.0
H410 H 0.82636 0.82421 0.43661 0.0
H411 H 0.84291 0.78553 0.444 0.0
C412 C 0.81321 0.66558 0.43915 0.0
C413 C 0.80439 0.66977 0.46321 0.0
C414 C 0.82889 0.68144 0.42674 0.0
C415 C 0.83618 0.70175 0.43819 0.0
C416 C 0.82667 0.70633 0.46186 0.0
C417 C 0.81099 0.69048 0.47429 0.0
C418 C 0.85443 0.71788 0.42584 0.0
C419 C 0.84632 0.74034 0.4221 0.0
C420 C 0.87963 0.71115 0.41758 0.0
C421 C 0.88988 0.68798 0.42199 0.0
C422 C 0.8914 0.67909 0.44598 0.0
C423 C 0.9009 0.65717 0.44997 0.0
C424 C 0.90914 0.64406 0.43012 0.0
C425 C 0.90797 0.65286 0.40625 0.0
C426 C 0.89845 0.67475 0.40216 0.0
C427 C 0.93202 0.80106 0.39417 0.0
C428 C 0.94478 0.79637 0.37181 0.0
C429 C 0.91357 0.78591 0.40398 0.0
C430 C 0.90715 0.76592 0.39147 0.0
C431 C 0.91977 0.76124 0.3691 0.0
C432 C 0.93839 0.7763 0.35936 0.0
C433 C 0.888 0.74953 0.40221 0.0
C434 C 0.89597 0.727 0.40572 0.0
C435 C 0.86266 0.75621 0.4102 0.0
C436 C 0.85248 0.77942 0.40579 0.0
C437 C 0.85222 0.78873 0.38193 0.0
C438 C 0.84291 0.8107 0.37794 0.0
C439 C 0.83363 0.82349 0.39764 0.0
C440 C 0.83357 0.8143 0.42137 0.0
C441 C 0.84289 0.79234 0.42546 0.0
H442 H 0.82645 0.8405 0.39452 0.0
H443 H 0.9165 0.6271 0.43324 0.0
H444 H 0.79028 0.30736 0.98542 0.0
H445 H 0.81642 0.27895 0.96402 0.0
H446 H 0.84117 0.32937 0.91107 0.0
H447 H 0.8143 0.35774 0.93188 0.0
H448 H 0.83141 0.28924 0.88899 0.0
H449 H 0.88068 0.3151 0.95862 0.0
H450 H 0.88824 0.32355 0.00235 0.0
H451 H 0.8761 0.2535 0.02098 0.0
H452 H 0.8681 0.24469 0.97737 0.0
H453 H 0.94796 0.23454 0.84622 0.0
H454 H 0.91549 0.26063 0.86323 0.0
H455 H 0.89131 0.20959 0.91573 0.0
H456 H 0.92382 0.18349 0.89904 0.0
H457 H 0.89985 0.24954 0.93762 0.0
H458 H 0.85248 0.2235 0.86718 0.0
H459 H 0.84591 0.21539 0.82324 0.0
H460 H 0.85541 0.28598 0.80579 0.0
H461 H 0.86245 0.29447 0.84961 0.0
C462 C 0.80086 0.31234 0.96896 0.0
C463 C 0.80032 0.3349 0.96049 0.0
C464 C 0.81601 0.29611 0.95686 0.0
C465 C 0.8311 0.30211 0.93617 0.0
C466 C 0.8298 0.32438 0.92707 0.0
C467 C 0.81461 0.34062 0.93913 0.0
C468 C 0.84913 0.28545 0.92469 0.0
C469 C 0.84655 0.28072 0.89955 0.0
C470 C 0.86862 0.27405 0.93854 0.0
C471 C 0.87352 0.27929 0.96477 0.0
C472 C 0.87942 0.30153 0.97206 0.0
C473 C 0.88382 0.30638 0.99682 0.0
C474 C 0.88258 0.28909 0.01444 0.0
C475 C 0.87701 0.26689 0.00732 0.0
C476 C 0.87256 0.26196 0.98258 0.0
C477 C 0.9356 0.22879 0.86126 0.0
C478 C 0.93863 0.20693 0.87132 0.0
C479 C 0.91696 0.2437 0.8709 0.0
C480 C 0.90086 0.23703 0.89069 0.0
C481 C 0.90354 0.21512 0.90049 0.0
C482 C 0.92213 0.2002 0.89087 0.0
C483 C 0.88208 0.25319 0.90194 0.0
C484 C 0.88461 0.25793 0.92706 0.0
C485 C 0.86266 0.26461 0.88802 0.0
C486 C 0.85824 0.25959 0.86167 0.0
C487 C 0.85337 0.23727 0.85396 0.0
C488 C 0.84953 0.23261 0.82907 0.0
C489 C 0.8503 0.25015 0.81172 0.0
C490 C 0.85485 0.2724 0.81924 0.0
C491 C 0.85874 0.27715 0.84411 0.0
H492 H 0.84733 0.24651 0.79246 0.0
H493 H 0.886 0.29287 0.0336 0.0
H494 H 0.21993 0.66964 0.41025 0.0
H495 H 0.18213 0.68968 0.39276 0.0
H496 H 0.18124 0.7346 0.45494 0.0
H497 H 0.219 0.7146 0.47255 0.0
H498 H 0.13075 0.71841 0.44064 0.0
H499 H 0.20894 0.75243 0.40465 0.0
H500 H 0.2509 0.75144 0.38187 0.0
H501 H 0.2114 0.72374 0.31918 0.0
H502 H 0.16926 0.72427 0.34174 0.0
H503 H 0.05684 0.81142 0.40149 0.0
H504 H 0.09155 0.78649 0.41625 0.0
H505 H 0.09484 0.75412 0.34544 0.0
H506 H 0.06052 0.77962 0.33024 0.0
H507 H 0.14254 0.7604 0.36206 0.0
H508 H 0.06416 0.72848 0.39532 0.0
H509 H 0.02163 0.72802 0.41716 0.0
H510 H 0.05985 0.74905 0.4835 0.0
H511 H 0.10258 0.74996 0.46197 0.0
C512 C 0.21143 0.68361 0.42032 0.0
C513 C 0.22238 0.69066 0.4427 0.0
C514 C 0.18999 0.69508 0.41026 0.0
C515 C 0.1791 0.71367 0.42251 0.0
C516 C 0.18945 0.72029 0.44523 0.0
C517 C 0.21105 0.70897 0.45518 0.0
C518 C 0.15751 0.72681 0.41128 0.0
C519 C 0.13331 0.72776 0.42357 0.0
C520 C 0.16073 0.73831 0.38859 0.0
C521 C 0.18602 0.73815 0.37497 0.0
C522 C 0.20925 0.74595 0.38608 0.0
C523 C 0.23305 0.7455 0.3732 0.0
C524 C 0.23383 0.73747 0.34912 0.0
C525 C 0.21078 0.72992 0.33785 0.0
C526 C 0.18693 0.7303 0.35067 0.0
C527 C 0.06492 0.79899 0.38903 0.0
C528 C 0.05577 0.79733 0.36477 0.0
C529 C 0.08468 0.78467 0.39754 0.0
C530 C 0.09536 0.76807 0.38214 0.0
C531 C 0.08673 0.76671 0.3577 0.0
C532 C 0.06713 0.78127 0.34904 0.0
C533 C 0.11573 0.75239 0.39162 0.0
C534 C 0.13975 0.75091 0.379 0.0
C535 C 0.11221 0.74013 0.41386 0.0
C536 C 0.08656 0.73945 0.42697 0.0
C537 C 0.06348 0.73316 0.41453 0.0
C538 C 0.03933 0.7328 0.42686 0.0
C539 C 0.03803 0.73854 0.45169 0.0
C540 C 0.06089 0.74461 0.46426 0.0
C541 C 0.08508 0.74503 0.45201 0.0
H542 H 0.01932 0.73826 0.4612 0.0
H543 H 0.25228 0.73713 0.33917 0.0
H544 H 0.71473 0.7948 0.97544 0.0
H545 H 0.67561 0.77531 0.96029 0.0
H546 H 0.69407 0.79704 0.88638 0.0
H547 H 0.73271 0.81729 0.90152 0.0
H548 H 0.64207 0.80006 0.89537 0.0
H549 H 0.70966 0.74418 0.90577 0.0
H550 H 0.74384 0.72309 0.92832 0.0
H551 H 0.68622 0.70026 0.98077 0.0
H552 H 0.65174 0.72149 0.9587 0.0
H553 H 0.5659 0.71835 0.83086 0.0
H554 H 0.60193 0.74136 0.84696 0.0
H555 H 0.58142 0.7209 0.92081 0.0
H556 H 0.54552 0.69775 0.90494 0.0
H557 H 0.63392 0.71762 0.91213 0.0
H558 H 0.56597 0.77293 0.90065 0.0
H559 H 0.53206 0.79375 0.87747 0.0
H560 H 0.59056 0.81728 0.82626 0.0
H561 H 0.6248 0.79632 0.84894 0.0
C562 C 0.71024 0.79575 0.95603 0.0
C563 C 0.72694 0.80744 0.93965 0.0
C564 C 0.68801 0.78444 0.94736 0.0
C565 C 0.6822 0.78443 0.92216 0.0
C566 C 0.6983 0.79673 0.90589 0.0
C567 C 0.72049 0.8081 0.91454 0.0
C568 C 0.65985 0.77099 0.91265 0.0
C569 C 0.64041 0.78199 0.89879 0.0
C570 C 0.65751 0.74748 0.91749 0.0
C571 C 0.67818 0.73461 0.93072 0.0
C572 C 0.70431 0.73481 0.92222 0.0
C573 C 0.72373 0.72281 0.9349 0.0
C574 C 0.71721 0.71039 0.956 0.0
C575 C 0.69124 0.70991 0.96444 0.0
C576 C 0.67175 0.72191 0.95184 0.0
C577 C 0.569 0.71879 0.85053 0.0
C578 C 0.55276 0.70627 0.86662 0.0
C579 C 0.58952 0.73201 0.8597 0.0
C580 C 0.59415 0.73298 0.88508 0.0
C581 C 0.57812 0.7204 0.90116 0.0
C582 C 0.55756 0.70724 0.89204 0.0
C583 C 0.61609 0.74669 0.8949 0.0
C584 C 0.63551 0.73571 0.90877 0.0
C585 C 0.61844 0.77017 0.88998 0.0
C586 C 0.59791 0.78287 0.87636 0.0
C587 C 0.57158 0.78239 0.88433 0.0
C588 C 0.5523 0.79425 0.87131 0.0
C589 C 0.55914 0.80678 0.85037 0.0
C590 C 0.58529 0.80754 0.84246 0.0
C591 C 0.60464 0.79569 0.85541 0.0
H592 H 0.54418 0.81595 0.84031 0.0
H593 H 0.73228 0.70111 0.96579 0.0
H594 H 0.31259 0.18801 0.50104 0.0
H595 H 0.33783 0.21608 0.47774 0.0
H596 H 0.33087 0.17527 0.41261 0.0
H597 H 0.30648 0.14662 0.43608 0.0
H598 H 0.37999 0.18966 0.41791 0.0
H599 H 0.29528 0.22442 0.41947 0.0
H600 H 0.25441 0.23872 0.43818 0.0
H601 H 0.29899 0.28586 0.48117 0.0
H602 H 0.34017 0.27162 0.46297 0.0
H603 H 0.4325 0.27611 0.33962 0.0
H604 H 0.40112 0.24929 0.35789 0.0
H605 H 0.40992 0.28176 0.42815 0.0
H606 H 0.44124 0.30858 0.41013 0.0
H607 H 0.35791 0.27147 0.41728 0.0
H608 H 0.44268 0.23517 0.41683 0.0
H609 H 0.48332 0.22131 0.39732 0.0
H610 H 0.43806 0.17682 0.35176 0.0
H611 H 0.39705 0.19089 0.37049 0.0
C612 C 0.31648 0.18494 0.48178 0.0
C613 C 0.30751 0.16502 0.47046 0.0
C614 C 0.33069 0.20115 0.4684 0.0
C615 C 0.33602 0.19793 0.44333 0.0
C616 C 0.32691 0.17816 0.43191 0.0
C617 C 0.31275 0.1619 0.4453 0.0
C618 C 0.35194 0.21481 0.42935 0.0
C619 C 0.37487 0.20749 0.4174 0.0
C620 C 0.34558 0.23815 0.42905 0.0
C621 C 0.32084 0.24681 0.44 0.0
C622 C 0.29639 0.23771 0.43305 0.0
C623 C 0.27316 0.24583 0.44354 0.0
C624 C 0.27411 0.26315 0.46089 0.0
C625 C 0.29829 0.27243 0.46774 0.0
C626 C 0.32158 0.26436 0.45733 0.0
C627 C 0.4276 0.27766 0.35891 0.0
C628 C 0.43955 0.29438 0.37347 0.0
C629 C 0.40973 0.26229 0.36933 0.0
C630 C 0.4034 0.26343 0.39442 0.0
C631 C 0.41457 0.28058 0.40876 0.0
C632 C 0.43257 0.29582 0.39844 0.0
C633 C 0.38592 0.2463 0.40605 0.0
C634 C 0.36279 0.2536 0.4176 0.0
C635 C 0.39206 0.22294 0.40593 0.0
C636 C 0.41675 0.21429 0.39486 0.0
C637 C 0.44136 0.22259 0.40249 0.0
C638 C 0.46447 0.21467 0.39161 0.0
C639 C 0.46327 0.19819 0.37334 0.0
C640 C 0.43895 0.1896 0.3659 0.0
C641 C 0.41576 0.19757 0.37662 0.0
H642 H 0.4812 0.19206 0.36497 0.0
H643 H 0.2561 0.26941 0.46899 0.0
H644 H 0.32848 0.85938 0.93975 0.0
H645 H 0.35395 0.83078 0.91809 0.0
H646 H 0.31172 0.77793 0.95657 0.0
H647 H 0.28565 0.80647 0.97801 0.0
H648 H 0.36501 0.77167 0.9579 0.0
H649 H 0.29986 0.78747 0.89668 0.0
H650 H 0.27324 0.81168 0.86935 0.0
H651 H 0.34334 0.83557 0.83336 0.0
H652 H 0.37042 0.81174 0.86072 0.0
H653 H 0.42133 0.68181 0.89092 0.0
H654 H 0.38933 0.70793 0.90847 0.0
H655 H 0.42424 0.76314 0.86744 0.0
H656 H 0.45588 0.737 0.84928 0.0
H657 H 0.37258 0.76706 0.86716 0.0
H658 H 0.43791 0.75397 0.92916 0.0
H659 H 0.46565 0.73092 0.9567 0.0
H660 H 0.39665 0.70343 0.99154 0.0
H661 H 0.36848 0.7261 0.96397 0.0
C662 C 0.32415 0.84169 0.94328 0.0
C663 C 0.30489 0.83528 0.96062 0.0
C664 C 0.33885 0.82534 0.93092 0.0
C665 C 0.33462 0.80221 0.93558 0.0
C666 C 0.31532 0.79569 0.95271 0.0
C667 C 0.30051 0.81204 0.96502 0.0
C668 C 0.35117 0.78491 0.92333 0.0
C669 C 0.36632 0.77038 0.93806 0.0
C670 C 0.35343 0.78368 0.89745 0.0
C671 C 0.33718 0.79796 0.8809 0.0
C672 C 0.30962 0.79802 0.88307 0.0
C673 C 0.29444 0.81165 0.86755 0.0
C674 C 0.30659 0.82519 0.84967 0.0
C675 C 0.33395 0.82509 0.84723 0.0
C676 C 0.34922 0.8115 0.86273 0.0
C677 C 0.42215 0.6995 0.88553 0.0
C678 C 0.44135 0.70734 0.86886 0.0
C679 C 0.40387 0.71444 0.89565 0.0
C680 C 0.40465 0.73761 0.88964 0.0
C681 C 0.42327 0.74536 0.87243 0.0
C682 C 0.44141 0.73039 0.8621 0.0
C683 C 0.38652 0.75385 0.90174 0.0
C684 C 0.37113 0.76822 0.88701 0.0
C685 C 0.3842 0.75511 0.92764 0.0
C686 C 0.40109 0.74155 0.94433 0.0
C687 C 0.42865 0.74289 0.94257 0.0
C688 C 0.44445 0.72991 0.95821 0.0
C689 C 0.43292 0.71568 0.97581 0.0
C690 C 0.40556 0.71444 0.97787 0.0
C691 C 0.38967 0.72736 0.96226 0.0
H692 H 0.44518 0.70564 0.9879 0.0
H693 H 0.29481 0.83573 0.83767 0.0
H694 H 0.71565 0.17682 0.42029 0.0
H695 H 0.67885 0.19906 0.40438 0.0
H696 H 0.65525 0.21514 0.47839 0.0
H697 H 0.69201 0.19275 0.49449 0.0
H698 H 0.61238 0.2057 0.4459 0.0
H699 H 0.69038 0.25205 0.4509 0.0
H700 H 0.73708 0.26098 0.4432 0.0
H701 H 0.72367 0.25893 0.36538 0.0
H702 H 0.67694 0.24963 0.37263 0.0
H703 H 0.56742 0.32392 0.39885 0.0
H704 H 0.60003 0.29899 0.41785 0.0
H705 H 0.56851 0.2422 0.378 0.0
H706 H 0.53586 0.26688 0.35893 0.0
H707 H 0.63847 0.27296 0.39618 0.0
H708 H 0.57151 0.19575 0.41637 0.0
H709 H 0.52484 0.18765 0.4255 0.0
H710 H 0.51597 0.25394 0.45633 0.0
H711 H 0.56262 0.26234 0.44766 0.0
C712 C 0.70228 0.18467 0.43319 0.0
C713 C 0.70672 0.18319 0.45862 0.0
C714 C 0.68138 0.19744 0.42408 0.0
C715 C 0.66457 0.20884 0.44025 0.0
C716 C 0.66808 0.20644 0.46567 0.0
C717 C 0.68913 0.19381 0.47481 0.0
C718 C 0.64472 0.22474 0.43056 0.0
C719 C 0.61801 0.22038 0.43499 0.0
C720 C 0.65222 0.24407 0.41671 0.0
C721 C 0.68023 0.24994 0.41231 0.0
C722 C 0.69743 0.25334 0.43214 0.0
C723 C 0.7239 0.25849 0.42786 0.0
C724 C 0.73335 0.26047 0.40381 0.0
C725 C 0.71633 0.25736 0.384 0.0
C726 C 0.68985 0.25217 0.38818 0.0
C727 C 0.56742 0.30612 0.39412 0.0
C728 C 0.54901 0.29737 0.37743 0.0
C729 C 0.58609 0.29194 0.40495 0.0
C730 C 0.58645 0.26877 0.39948 0.0
C731 C 0.56831 0.26001 0.38266 0.0
C732 C 0.54977 0.27418 0.37169 0.0
C733 C 0.60604 0.25375 0.41114 0.0
C734 C 0.63276 0.25827 0.40706 0.0
C735 C 0.5985 0.23473 0.4255 0.0
C736 C 0.57052 0.22972 0.43117 0.0
C737 C 0.55963 0.20855 0.4252 0.0
C738 C 0.53318 0.20392 0.43029 0.0
C739 C 0.51746 0.22027 0.44149 0.0
C740 C 0.52816 0.2413 0.44763 0.0
C741 C 0.55459 0.24602 0.44259 0.0
H742 H 0.49699 0.21666 0.4454 0.0
H743 H 0.75385 0.26446 0.40054 0.0
H744 H 0.36856 0.45626 0.97585 0.0
H745 H 0.38057 0.49338 0.95868 0.0
H746 H 0.34028 0.47699 0.89143 0.0
H747 H 0.3279 0.43993 0.90867 0.0
H748 H 0.3946 0.49106 0.88657 0.0
H749 H 0.31379 0.51513 0.92399 0.0
H750 H 0.28197 0.51912 0.95792 0.0
H751 H 0.33909 0.55607 0.99972 0.0
H752 H 0.37141 0.55201 0.96618 0.0
H753 H 0.42567 0.59544 0.83129 0.0
H754 H 0.39784 0.5647 0.8468 0.0
H755 H 0.42299 0.57884 0.92078 0.0
H756 H 0.45052 0.6098 0.90556 0.0
H757 H 0.37188 0.56652 0.92007 0.0
H758 H 0.45343 0.53989 0.88824 0.0
H759 H 0.48885 0.5347 0.85783 0.0
H760 H 0.43477 0.50144 0.80939 0.0
H761 H 0.39895 0.50662 0.8395 0.0
C762 C 0.36203 0.46074 0.95753 0.0
C763 C 0.34739 0.44532 0.94351 0.0
C764 C 0.36875 0.48192 0.94781 0.0
C765 C 0.36118 0.48787 0.92387 0.0
C766 C 0.34614 0.47268 0.91 0.0
C767 C 0.33905 0.45162 0.91986 0.0
C768 C 0.37091 0.50916 0.91269 0.0
C769 C 0.38918 0.50761 0.89345 0.0
C770 C 0.36452 0.53058 0.92244 0.0
C771 C 0.3451 0.5331 0.94263 0.0
C772 C 0.31966 0.52393 0.9405 0.0
C773 C 0.30151 0.52625 0.95965 0.0
C774 C 0.30852 0.5378 0.98098 0.0
C775 C 0.33369 0.54711 0.98319 0.0
C776 C 0.35192 0.54483 0.9641 0.0
C777 C 0.42498 0.59226 0.8509 0.0
C778 C 0.44067 0.60483 0.86715 0.0
C779 C 0.40906 0.57468 0.85973 0.0
C780 C 0.40872 0.56928 0.88488 0.0
C781 C 0.42302 0.58272 0.9013 0.0
C782 C 0.43886 0.60034 0.89252 0.0
C783 C 0.39552 0.54843 0.89385 0.0
C784 C 0.37686 0.55001 0.9128 0.0
C785 C 0.40201 0.52691 0.88426 0.0
C786 C 0.42345 0.52385 0.86602 0.0
C787 C 0.44905 0.5316 0.87104 0.0
C788 C 0.46921 0.52864 0.85387 0.0
C789 C 0.46404 0.51781 0.83165 0.0
C790 C 0.43872 0.50986 0.8266 0.0
C791 C 0.41849 0.51279 0.84372 0.0
H792 H 0.47967 0.51552 0.81837 0.0
H793 H 0.29444 0.53958 0.99578 0.0
H794 H 0.65889 0.52024 0.48684 0.0
H795 H 0.63352 0.49179 0.46469 0.0
H796 H 0.67968 0.50454 0.39945 0.0
H797 H 0.70503 0.53341 0.42149 0.0
H798 H 0.62577 0.50115 0.39002 0.0
H799 H 0.6922 0.45851 0.4314 0.0
H800 H 0.71914 0.44643 0.4667 0.0
H801 H 0.64984 0.42302 0.50437 0.0
H802 H 0.62241 0.43528 0.46943 0.0
H803 H 0.56729 0.40427 0.33289 0.0
H804 H 0.60011 0.43107 0.34835 0.0
H805 H 0.56923 0.42253 0.42175 0.0
H806 H 0.53702 0.39549 0.40668 0.0
H807 H 0.62073 0.42272 0.42305 0.0
H808 H 0.554 0.46911 0.38446 0.0
H809 H 0.52621 0.48192 0.35002 0.0
H810 H 0.59516 0.49869 0.30791 0.0
H811 H 0.62337 0.4857 0.34202 0.0
C812 C 0.66348 0.5172 0.46771 0.0
C813 C 0.68396 0.52909 0.45591 0.0
C814 C 0.64912 0.50079 0.45513 0.0
C815 C 0.65493 0.49588 0.43052 0.0
C816 C 0.67498 0.50802 0.41848 0.0
C817 C 0.68952 0.52438 0.43112 0.0
C818 C 0.64 0.47795 0.41759 0.0
C819 C 0.62502 0.48388 0.39693 0.0
C820 C 0.63878 0.45553 0.42685 0.0
C821 C 0.65523 0.44797 0.44785 0.0
C822 C 0.68268 0.45094 0.44728 0.0
C823 C 0.69804 0.44403 0.46722 0.0
C824 C 0.6862 0.434 0.48778 0.0
C825 C 0.65898 0.43081 0.48843 0.0
C826 C 0.64352 0.43771 0.46855 0.0
C827 C 0.56756 0.40806 0.35233 0.0
C828 C 0.54939 0.39781 0.36851 0.0
C829 C 0.58627 0.42345 0.36113 0.0
C830 C 0.58695 0.42904 0.38619 0.0
C831 C 0.56914 0.41849 0.40236 0.0
C832 C 0.55063 0.40306 0.39366 0.0
C833 C 0.60585 0.44602 0.39584 0.0
C834 C 0.62169 0.4399 0.4159 0.0
C835 C 0.60771 0.46829 0.3861 0.0
C836 C 0.59078 0.47619 0.36566 0.0
C837 C 0.56323 0.47537 0.36778 0.0
C838 C 0.5474 0.48269 0.34834 0.0
C839 C 0.55891 0.49105 0.32676 0.0
C840 C 0.58627 0.49217 0.32461 0.0
C841 C 0.60219 0.48484 0.344 0.0
H842 H 0.54663 0.4967 0.31172 0.0
H843 H 0.69813 0.42866 0.5032 0.0
H844 H 0.70088 0.47396 0.93338 0.0
H845 H 0.67317 0.50209 0.91259 0.0
H846 H 0.62704 0.5095 0.97864 0.0
H847 H 0.65451 0.48136 0.99943 0.0
H848 H 0.59627 0.50583 0.93726 0.0
H849 H 0.67091 0.54871 0.96482 0.0
H850 H 0.71809 0.55767 0.96881 0.0
H851 H 0.72456 0.56511 0.89049 0.0
H852 H 0.67747 0.55586 0.88601 0.0
H853 H 0.56337 0.6294 0.89979 0.0
H854 H 0.59274 0.60199 0.91943 0.0
H855 H 0.56806 0.55088 0.86808 0.0
H856 H 0.53851 0.57799 0.84851 0.0
H857 H 0.63417 0.57703 0.90331 0.0
H858 H 0.56386 0.50024 0.89853 0.0
H859 H 0.51628 0.49204 0.89725 0.0
H860 H 0.50021 0.55439 0.93446 0.0
H861 H 0.5477 0.56283 0.93627 0.0
C862 C 0.68472 0.4815 0.94339 0.0
C863 C 0.67993 0.47555 0.96806 0.0
C864 C 0.66903 0.49764 0.93155 0.0
C865 C 0.64817 0.50798 0.94414 0.0
C866 C 0.64306 0.50176 0.96861 0.0
C867 C 0.65887 0.48581 0.98051 0.0
C868 C 0.63166 0.52537 0.9319 0.0
C869 C 0.60456 0.52135 0.92975 0.0
C870 C 0.64244 0.54575 0.92242 0.0
C871 C 0.67074 0.55137 0.92507 0.0
C872 C 0.68245 0.55207 0.94843 0.0
C873 C 0.70916 0.55723 0.95079 0.0
C874 C 0.72433 0.5619 0.92991 0.0
C875 C 0.7128 0.56146 0.90664 0.0
C876 C 0.68609 0.55627 0.90419 0.0
C877 C 0.56427 0.61237 0.89258 0.0
C878 C 0.54837 0.60587 0.8727 0.0
C879 C 0.58114 0.59674 0.90379 0.0
C880 C 0.58232 0.57432 0.89542 0.0
C881 C 0.56715 0.568 0.87508 0.0
C882 C 0.55032 0.58358 0.86386 0.0
C883 C 0.59881 0.55736 0.90839 0.0
C884 C 0.6259 0.56144 0.91067 0.0
C885 C 0.58796 0.53712 0.91825 0.0
C886 C 0.55934 0.53223 0.91735 0.0
C887 C 0.55018 0.51216 0.90651 0.0
C888 C 0.52323 0.50748 0.90569 0.0
C889 C 0.50526 0.52267 0.91579 0.0
C890 C 0.51417 0.54265 0.92663 0.0
C891 C 0.5411 0.5474 0.92753 0.0
H892 H 0.48443 0.51891 0.9153 0.0
H893 H 0.74501 0.5659 0.93177 0.0
H894 H 0.30888 0.53201 0.46313 0.0
H895 H 0.32063 0.49405 0.44893 0.0
H896 H 0.37084 0.52353 0.39327 0.0
H897 H 0.35998 0.56128 0.40767 0.0
H898 H 0.34133 0.48672 0.37619 0.0
H899 H 0.39642 0.50724 0.44646 0.0
H900 H 0.40303 0.5181 0.4897 0.0
H901 H 0.36293 0.45776 0.51371 0.0
H902 H 0.35578 0.44671 0.47055 0.0
H903 H 0.4497 0.42291 0.34486 0.0
H904 H 0.41709 0.44965 0.35931 0.0
H905 H 0.38868 0.40043 0.41206 0.0
H906 H 0.42199 0.37345 0.39797 0.0
H907 H 0.39549 0.44036 0.43306 0.0
H908 H 0.3507 0.41532 0.36241 0.0
H909 H 0.34525 0.40414 0.31916 0.0
H910 H 0.36481 0.47165 0.29557 0.0
H911 H 0.37082 0.48318 0.33864 0.0
C912 C 0.3224 0.53041 0.44785 0.0
C913 C 0.33357 0.54975 0.43663 0.0
C914 C 0.32892 0.50873 0.43967 0.0
C915 C 0.34662 0.50605 0.4201 0.0
C916 C 0.35694 0.52527 0.40826 0.0
C917 C 0.35062 0.54688 0.41651 0.0
C918 C 0.35634 0.48343 0.41297 0.0
C919 C 0.35309 0.47647 0.38858 0.0
C920 C 0.37083 0.46972 0.42945 0.0
C921 C 0.37526 0.47631 0.45533 0.0
C922 C 0.38883 0.49639 0.46097 0.0
C923 C 0.39271 0.50257 0.48545 0.0
C924 C 0.38332 0.48867 0.50444 0.0
C925 C 0.37012 0.46854 0.49898 0.0
C926 C 0.36615 0.46231 0.47452 0.0
C927 C 0.43644 0.4176 0.35942 0.0
C928 C 0.43855 0.39604 0.37032 0.0
C929 C 0.41759 0.43289 0.36752 0.0
C930 C 0.4001 0.42691 0.38646 0.0
C931 C 0.40188 0.40531 0.39729 0.0
C932 C 0.42091 0.38995 0.38923 0.0
C933 C 0.38147 0.44407 0.3959 0.0
C934 C 0.38302 0.45007 0.42076 0.0
C935 C 0.36528 0.45681 0.37984 0.0
C936 C 0.36127 0.4501 0.35383 0.0
C937 C 0.35396 0.42777 0.34801 0.0
C938 C 0.35077 0.42137 0.32351 0.0
C939 C 0.35469 0.43717 0.30463 0.0
C940 C 0.36175 0.45943 0.31022 0.0
C941 C 0.365 0.46593 0.33469 0.0
H942 H 0.35225 0.43217 0.28567 0.0
H943 H 0.38635 0.49347 0.52338 0.0
H944 H 0.82293 0.9424 0.90743 0.0
H945 H 0.8343 0.97978 0.89092 0.0
H946 H 0.86798 0.99823 0.96066 0.0
H947 H 0.85596 0.96113 0.97755 0.0
H948 H 0.84318 0.03447 0.93799 0.0
H949 H 0.90634 0.97618 0.91761 0.0
H950 H 0.91997 0.93955 0.90023 0.0
H951 H 0.89167 0.9602 0.82928 0.0
H952 H 0.87752 0.99685 0.84635 0.0
H953 H 0.94826 0.10917 0.90898 0.0
H954 H 0.91766 0.07985 0.9229 0.0
H955 H 0.89406 0.06805 0.84796 0.0
H956 H 0.92489 0.09712 0.83381 0.0
H957 H 0.90794 0.0298 0.86988 0.0
H958 H 0.85129 0.09103 0.88934 0.0
H959 H 0.83875 0.12779 0.90703 0.0
H960 H 0.85526 0.10249 0.9795 0.0
H961 H 0.86829 0.06567 0.96222 0.0
C962 C 0.8321 0.95462 0.91946 0.0
C963 C 0.83889 0.94872 0.9437 0.0
C964 C 0.83869 0.97593 0.90996 0.0
C965 C 0.85233 0.9916 0.92447 0.0
C966 C 0.85754 0.98633 0.94914 0.0
C967 C 0.85092 0.96505 0.95867 0.0
C968 C 0.8638 0.01233 0.91333 0.0
C969 C 0.85739 0.03354 0.92314 0.0
C970 C 0.88192 0.01106 0.89362 0.0
C971 C 0.8906 0.98911 0.88331 0.0
C972 C 0.90285 0.97283 0.89834 0.0
C973 C 0.91069 0.95208 0.88855 0.0
C974 C 0.90661 0.94752 0.86368 0.0
C975 C 0.89476 0.96373 0.84855 0.0
C976 C 0.88683 0.98449 0.85827 0.0
C977 C 0.93629 0.10059 0.89547 0.0
C978 C 0.93927 0.10529 0.87026 0.0
C979 C 0.91866 0.08392 0.90349 0.0
C980 C 0.90348 0.07183 0.88647 0.0
C981 C 0.90561 0.07716 0.86139 0.0
C982 C 0.92328 0.09377 0.85335 0.0
C983 C 0.88757 0.05211 0.89464 0.0
C984 C 0.89331 0.03096 0.88436 0.0
C985 C 0.86892 0.05352 0.91391 0.0
C986 C 0.86095 0.07561 0.92444 0.0
C987 C 0.85244 0.09335 0.90903 0.0
C988 C 0.84521 0.11419 0.919 0.0
C989 C 0.84625 0.11749 0.94437 0.0
C990 C 0.85447 0.09992 0.95984 0.0
C991 C 0.86175 0.07904 0.94998 0.0
H992 H 0.84065 0.13364 0.95205 0.0
H993 H 0.9127 0.93145 0.85613 0.0
H994 H 0.16586 0.04976 0.44881 0.0
H995 H 0.13763 0.02278 0.42735 0.0
H996 H 0.17865 0.96727 0.46194 0.0
H997 H 0.20692 0.99414 0.48345 0.0
H998 H 0.17024 0.95852 0.41458 0.0
H999 H 0.11863 0.98453 0.4824 0.0
H1000 H 0.09708 0.01248 0.50914 0.0
H1001 H 0.05077 0.03609 0.44834 0.0
H1002 H 0.07237 0.00853 0.4211 0.0
H1003 H 0.07326 0.87272 0.39322 0.0
H1004 H 0.1041 0.89949 0.41183 0.0
H1005 H 0.06617 0.95476 0.37387 0.0
H1006 H 0.03532 0.92825 0.35524 0.0
H1007 H 0.07322 0.96343 0.42257 0.0
H1008 H 0.12511 0.93641 0.3549 0.0
H1009 H 0.14632 0.9075 0.32908 0.0
H1010 H 0.19149 0.88456 0.39093 0.0
H1011 H 0.17027 0.91311 0.4172 0.0
C1012 C 0.16879 0.03181 0.45193 0.0
C1013 C 0.18857 0.02411 0.46792 0.0
C1014 C 0.15266 0.01641 0.43963 0.0
C1015 C 0.15581 0.99299 0.44326 0.0
C1016 C 0.17588 0.98525 0.45882 0.0
C1017 C 0.19207 0.00064 0.47106 0.0
C1018 C 0.138 0.97656 0.43108 0.0
C1019 C 0.14903 0.95943 0.41656 0.0
C1020 C 0.1103 0.97797 0.43332 0.0
C1021 C 0.09737 0.99465 0.44964 0.0
C1022 C 0.10405 0.99584 0.47466 0.0
C1023 C 0.09179 0.01159 0.48992 0.0
C1024 C 0.07263 0.02611 0.48043 0.0
C1025 C 0.06566 0.02487 0.45565 0.0
C1026 C 0.0779 0.00919 0.4403 0.0
C1027 C 0.07158 0.89056 0.38872 0.0
C1028 C 0.05183 0.89833 0.37274 0.0
C1029 C 0.08928 0.90581 0.39929 0.0
C1030 C 0.08751 0.92909 0.3941 0.0
C1031 C 0.06791 0.93686 0.37808 0.0
C1032 C 0.05035 0.92165 0.36737 0.0
C1033 C 0.10546 0.9455 0.40602 0.0
C1034 C 0.09443 0.96258 0.42054 0.0
C1035 C 0.13312 0.94394 0.40389 0.0
C1036 C 0.1459 0.92677 0.38808 0.0
C1037 C 0.13939 0.92507 0.36305 0.0
C1038 C 0.15145 0.90877 0.34832 0.0
C1039 C 0.17019 0.89417 0.35839 0.0
C1040 C 0.17695 0.89586 0.38317 0.0
C1041 C 0.16493 0.91211 0.39798 0.0
H1042 H 0.17954 0.88158 0.34698 0.0
H1043 H 0.06314 0.03827 0.49228 0.0
H1044 H 0.1891 0.00439 0.99925 0.0
H1045 H 0.16116 0.03267 0.9796 0.0
H1046 H 0.15563 0.99095 0.91504 0.0
H1047 H 0.18463 0.96299 0.93416 0.0
H1048 H 0.16221 0.03413 0.9022 0.0
H1049 H 0.10533 0.99345 0.95733 0.0
H1050 H 0.09101 0.97723 0.99704 0.0
H1051 H 0.08916 0.04373 0.02847 0.0
H1052 H 0.10383 0.06032 0.98901 0.0
H1053 H 0.04721 0.08299 0.85001 0.0
H1054 H 0.07934 0.05771 0.86899 0.0
H1055 H 0.08912 0.10456 0.92875 0.0
H1056 H 0.05697 0.13006 0.90989 0.0
H1057 H 0.08113 0.05998 0.94432 0.0
H1058 H 0.13636 0.10049 0.88759 0.0
H1059 H 0.14924 0.11593 0.84711 0.0
H1060 H 0.15265 0.04865 0.81782 0.0
H1061 H 0.13939 0.03281 0.85806 0.0
C1062 C 0.18226 0.00132 0.98074 0.0
C1063 C 0.18913 0.98135 0.96832 0.0
C1064 C 0.16602 0.01742 0.96963 0.0
C1065 C 0.15597 0.01381 0.94597 0.0
C1066 C 0.16306 0.99407 0.93335 0.0
C1067 C 0.17944 0.97798 0.94441 0.0
C1068 C 0.13791 0.03054 0.93449 0.0
C1069 C 0.14433 0.03957 0.91129 0.0
C1070 C 0.11482 0.03802 0.94654 0.0
C1071 C 0.10594 0.0281 0.97028 0.0
C1072 C 0.10207 0.0046 0.97276 0.0
C1073 C 0.09386 0.99534 0.99522 0.0
C1074 C 0.08925 0.00943 0.01528 0.0
C1075 C 0.09278 0.03283 0.01292 0.0
C1076 C 0.10102 0.04217 0.99051 0.0
C1077 C 0.05625 0.08801 0.86715 0.0
C1078 C 0.04941 0.10852 0.87848 0.0
C1079 C 0.0747 0.07356 0.87791 0.0
C1080 C 0.08668 0.07931 0.90022 0.0
C1081 C 0.08007 0.09982 0.91153 0.0
C1082 C 0.06175 0.11439 0.90068 0.0
C1083 C 0.10543 0.06349 0.91208 0.0
C1084 C 0.0991 0.0546 0.93532 0.0
C1085 C 0.12845 0.05602 0.89997 0.0
C1086 C 0.13665 0.06548 0.8758 0.0
C1087 C 0.13965 0.08899 0.87247 0.0
C1088 C 0.14705 0.09782 0.84957 0.0
C1089 C 0.15169 0.08328 0.82988 0.0
C1090 C 0.14902 0.05989 0.83308 0.0
C1091 C 0.14158 0.05097 0.85594 0.0
H1092 H 0.15741 0.09015 0.81217 0.0
H1093 H 0.08288 0.00223 0.03265 0.0
H1094 H 0.82328 0.0543 0.41367 0.0
H1095 H 0.84152 0.01872 0.39846 0.0
H1096 H 0.86914 0.00236 0.47132 0.0
H1097 H 0.8515 0.03812 0.48653 0.0
H1098 H 0.90755 0.99862 0.43724 0.0
H1099 H 0.81861 0.97321 0.44672 0.0
H1100 H 0.77052 0.97445 0.44137 0.0
H1101 H 0.78005 0.97006 0.36313 0.0
H1102 H 0.82825 0.96913 0.36799 0.0
H1103 H 0.95386 0.88996 0.41005 0.0
H1104 H 0.92578 0.91901 0.42784 0.0
H1105 H 0.90033 0.93902 0.35537 0.0
H1106 H 0.92831 0.90986 0.33728 0.0
H1107 H 0.85977 0.93971 0.39027 0.0
H1108 H 0.94823 0.96712 0.38043 0.0
H1109 H 0.99641 0.96582 0.38521 0.0
H1110 H 0.98777 0.96715 0.46368 0.0
H1111 H 0.93948 0.96799 0.45938 0.0
C1112 C 0.83309 0.04303 0.42647 0.0
C1113 C 0.83605 0.04902 0.45127 0.0
C1114 C 0.84329 0.02264 0.41781 0.0
C1115 C 0.85656 0.00788 0.43381 0.0
C1116 C 0.8589 0.01352 0.4587 0.0
C1117 C 0.84864 0.03386 0.46739 0.0
C1118 C 0.86973 0.98742 0.42421 0.0
C1119 C 0.89701 0.98553 0.42736 0.0
C1120 C 0.85606 0.97073 0.41071 0.0
C1121 C 0.82707 0.97132 0.40772 0.0
C1122 C 0.81047 0.97272 0.42836 0.0
C1123 C 0.78318 0.97332 0.42542 0.0
C1124 C 0.77224 0.97239 0.40192 0.0
C1125 C 0.78856 0.97081 0.38132 0.0
C1126 C 0.81587 0.97022 0.38416 0.0
C1127 C 0.94207 0.90032 0.39785 0.0
C1128 C 0.94367 0.89784 0.3722 0.0
C1129 C 0.92603 0.9169 0.40807 0.0
C1130 C 0.91136 0.93134 0.39287 0.0
C1131 C 0.91162 0.92805 0.36737 0.0
C1132 C 0.9277 0.91146 0.35709 0.0
C1133 C 0.89746 0.95094 0.40346 0.0
C1134 C 0.87018 0.95273 0.40036 0.0
C1135 C 0.91112 0.96765 0.41694 0.0
C1136 C 0.9402 0.96736 0.41958 0.0
C1137 C 0.95658 0.96693 0.39871 0.0
C1138 C 0.98391 0.9663 0.40133 0.0
C1139 C 0.99514 0.96635 0.42474 0.0
C1140 C 0.97904 0.96707 0.44557 0.0
C1141 C 0.95168 0.96762 0.44304 0.0
H1142 H 0.01631 0.96588 0.42673 0.0
H1143 H 0.7511 0.97285 0.39968 0.0
H1144 H 0.36775 0.3176 0.09006 0.0
H1145 H 0.37918 0.31789 0.13345 0.0
H1146 H 0.33052 0.37661 0.14439 0.0
H1147 H 0.31755 0.37578 0.10114 0.0
H1148 H 0.38608 0.37947 0.1605 0.0
H1149 H 0.30894 0.33352 0.16986 0.0
H1150 H 0.27901 0.30196 0.16004 0.0
H1151 H 0.33972 0.25409 0.17739 0.0
H1152 H 0.37017 0.28539 0.18696 0.0
H1153 H 0.42396 0.37826 0.28546 0.0
H1154 H 0.39449 0.37928 0.25004 0.0
H1155 H 0.42134 0.31306 0.22844 0.0
H1156 H 0.45044 0.31169 0.26391 0.0
H1157 H 0.36971 0.31721 0.22037 0.0
H1158 H 0.44829 0.36019 0.20341 0.0
H1159 H 0.48152 0.38979 0.21097 0.0
H1160 H 0.42206 0.44106 0.20524 0.0
H1161 H 0.38837 0.41167 0.19801 0.0
C1162 C 0.35877 0.33022 0.10169 0.0
C1163 C 0.34167 0.34668 0.09193 0.0
C1164 C 0.36552 0.33043 0.1265 0.0
C1165 C 0.35562 0.34723 0.14201 0.0
C1166 C 0.33833 0.36353 0.1326 0.0
C1167 C 0.33115 0.3631 0.10783 0.0
C1168 C 0.36497 0.34845 0.16762 0.0
C1169 C 0.38198 0.36621 0.17387 0.0
C1170 C 0.36018 0.33072 0.18462 0.0
C1171 C 0.3419 0.31183 0.17896 0.0
C1172 C 0.31599 0.31627 0.17138 0.0
C1173 C 0.29891 0.29843 0.1659 0.0
C1174 C 0.30747 0.27604 0.16805 0.0
C1175 C 0.33312 0.27145 0.17573 0.0
C1176 C 0.35028 0.28924 0.18122 0.0
C1177 C 0.42337 0.3638 0.27334 0.0
C1178 C 0.43985 0.34503 0.27731 0.0
C1179 C 0.40652 0.36442 0.25311 0.0
C1180 C 0.40604 0.34639 0.23644 0.0
C1181 C 0.42143 0.32716 0.24108 0.0
C1182 C 0.43817 0.32647 0.26132 0.0
C1183 C 0.39114 0.34809 0.21317 0.0
C1184 C 0.37327 0.33082 0.20727 0.0
C1185 C 0.39556 0.36603 0.19625 0.0
C1186 C 0.41577 0.38373 0.20048 0.0
C1187 C 0.44227 0.37777 0.20396 0.0
C1188 C 0.4612 0.3945 0.20814 0.0
C1189 C 0.4539 0.4173 0.20864 0.0
C1190 C 0.42767 0.42339 0.20489 0.0
C1191 C 0.40865 0.40671 0.20075 0.0
H1192 H 0.46858 0.43024 0.21187 0.0
H1193 H 0.29422 0.26224 0.1638 0.0
H1194 H 0.6903 0.65643 0.60472 0.0
H1195 H 0.66188 0.6661 0.63943 0.0
H1196 H 0.63967 0.59585 0.64738 0.0
H1197 H 0.66708 0.58623 0.61215 0.0
H1198 H 0.5979 0.62183 0.65204 0.0
H1199 H 0.68552 0.62117 0.68539 0.0
H1200 H 0.73216 0.63242 0.68804 0.0
H1201 H 0.7095 0.70159 0.69935 0.0
H1202 H 0.6627 0.69079 0.69644 0.0
H1203 H 0.55349 0.61532 0.77464 0.0
H1204 H 0.58233 0.61214 0.73889 0.0
H1205 H 0.58181 0.68471 0.72975 0.0
H1206 H 0.55244 0.68812 0.7654 0.0
H1207 H 0.63386 0.66138 0.72486 0.0
H1208 H 0.54557 0.66077 0.6939 0.0
H1209 H 0.49932 0.64825 0.69309 0.0
H1210 H 0.52385 0.58014 0.67842 0.0
H1211 H 0.57034 0.59218 0.6796 0.0
C1212 C 0.67914 0.64308 0.61369 0.0
C1213 C 0.68114 0.62051 0.60573 0.0
C1214 C 0.66309 0.6486 0.63369 0.0
C1215 C 0.64889 0.63166 0.64625 0.0
C1216 C 0.65051 0.60921 0.63806 0.0
C1217 C 0.66643 0.6037 0.61805 0.0
C1218 C 0.63236 0.63712 0.66797 0.0
C1219 C 0.60587 0.63033 0.668 0.0
C1220 C 0.64253 0.64869 0.68864 0.0
C1221 C 0.67063 0.65521 0.69041 0.0
C1222 C 0.69049 0.63881 0.68824 0.0
C1223 C 0.71695 0.6451 0.68982 0.0
C1224 C 0.72379 0.66772 0.69378 0.0
C1225 C 0.70418 0.68409 0.69623 0.0
C1226 C 0.67768 0.67789 0.69463 0.0
C1227 C 0.55969 0.63067 0.76525 0.0
C1228 C 0.55054 0.65199 0.7728 0.0
C1229 C 0.57612 0.62879 0.74478 0.0
C1230 C 0.584 0.64817 0.73166 0.0
C1231 C 0.57588 0.66957 0.73969 0.0
C1232 C 0.55906 0.67146 0.75997 0.0
C1233 C 0.59972 0.64577 0.70891 0.0
C1234 C 0.62595 0.65311 0.70873 0.0
C1235 C 0.5894 0.6346 0.68815 0.0
C1236 C 0.56146 0.62734 0.68708 0.0
C1237 C 0.54113 0.64308 0.69071 0.0
C1238 C 0.51486 0.63609 0.69015 0.0
C1239 C 0.50864 0.61341 0.68576 0.0
C1240 C 0.5287 0.5977 0.68185 0.0
C1241 C 0.55502 0.6046 0.68245 0.0
H1242 H 0.48828 0.60803 0.68534 0.0
H1243 H 0.74429 0.67256 0.69501 0.0
H1244 H 0.70998 0.37175 0.13384 0.0
H1245 H 0.68299 0.3621 0.16963 0.0
H1246 H 0.61541 0.35381 0.12285 0.0
H1247 H 0.64237 0.36269 0.08682 0.0
H1248 H 0.60672 0.38252 0.16272 0.0
H1249 H 0.64276 0.30845 0.14747 0.0
H1250 H 0.67854 0.28101 0.14098 0.0
H1251 H 0.71006 0.29636 0.21209 0.0
H1252 H 0.67466 0.32414 0.21887 0.0
H1253 H 0.51509 0.34415 0.24862 0.0
H1254 H 0.54435 0.34566 0.21297 0.0
H1255 H 0.61166 0.34073 0.26094 0.0
H1256 H 0.58202 0.33772 0.29665 0.0
H1257 H 0.62188 0.31887 0.22093 0.0
H1258 H 0.58869 0.39308 0.23678 0.0
H1259 H 0.55459 0.4218 0.24453 0.0
H1260 H 0.52034 0.40863 0.174 0.0
H1261 H 0.55409 0.37964 0.16593 0.0
C1262 C 0.68953 0.36736 0.13102 0.0
C1263 C 0.67838 0.36809 0.10736 0.0
C1264 C 0.6741 0.36195 0.15156 0.0
C1265 C 0.64721 0.35723 0.14888 0.0
C1266 C 0.63611 0.3575 0.12531 0.0
C1267 C 0.65155 0.36271 0.10475 0.0
C1268 C 0.63032 0.35321 0.17075 0.0
C1269 C 0.60978 0.36842 0.17527 0.0
C1270 C 0.63499 0.33531 0.18758 0.0
C1271 C 0.6562 0.31854 0.18357 0.0
C1272 C 0.65745 0.30612 0.16164 0.0
C1273 C 0.67763 0.29047 0.15793 0.0
C1274 C 0.6966 0.28699 0.17608 0.0
C1275 C 0.69538 0.2991 0.19803 0.0
C1276 C 0.67524 0.31478 0.20182 0.0
C1277 C 0.53615 0.34306 0.25144 0.0
C1278 C 0.54647 0.34096 0.27521 0.0
C1279 C 0.55287 0.3441 0.23112 0.0
C1280 C 0.58029 0.34404 0.23426 0.0
C1281 C 0.5906 0.34098 0.25803 0.0
C1282 C 0.57375 0.3393 0.2784 0.0
C1283 C 0.59798 0.34806 0.21281 0.0
C1284 C 0.61876 0.33297 0.20841 0.0
C1285 C 0.59386 0.36635 0.19625 0.0
C1286 C 0.57381 0.38408 0.20083 0.0
C1287 C 0.57383 0.39625 0.22296 0.0
C1288 C 0.55457 0.41258 0.22741 0.0
C1289 C 0.53531 0.41702 0.20977 0.0
C1290 C 0.5353 0.40519 0.18763 0.0
C1291 C 0.55451 0.38882 0.18309 0.0
H1292 H 0.5204 0.42965 0.21326 0.0
H1293 H 0.71221 0.27487 0.17317 0.0
H1294 H 0.36002 0.61628 0.58996 0.0
H1295 H 0.37293 0.62021 0.63299 0.0
H1296 H 0.34214 0.68822 0.63356 0.0
H1297 H 0.32926 0.68439 0.59035 0.0
H1298 H 0.39339 0.68512 0.65082 0.0
H1299 H 0.31074 0.64888 0.66562 0.0
H1300 H 0.27626 0.61992 0.66026 0.0
H1301 H 0.32954 0.56826 0.6848 0.0
H1302 H 0.36448 0.59686 0.68997 0.0
H1303 H 0.43154 0.69349 0.776 0.0
H1304 H 0.40252 0.69392 0.74013 0.0
H1305 H 0.42046 0.62371 0.72666 0.0
H1306 H 0.44901 0.62298 0.76247 0.0
H1307 H 0.36934 0.63206 0.71834 0.0
H1308 H 0.45296 0.66516 0.69633 0.0
H1309 H 0.48975 0.69224 0.70012 0.0
H1310 H 0.43687 0.74767 0.68746 0.0
H1311 H 0.39971 0.72089 0.68391 0.0
C1312 C 0.35582 0.63199 0.59933 0.0
C1313 C 0.34373 0.65006 0.58685 0.0
C1314 C 0.363 0.63416 0.62393 0.0
C1315 C 0.3583 0.65446 0.63647 0.0
C1316 C 0.34579 0.67239 0.6242 0.0
C1317 C 0.33835 0.67015 0.59962 0.0
C1318 C 0.36833 0.65735 0.66177 0.0
C1319 C 0.38766 0.6739 0.66578 0.0
C1320 C 0.3613 0.6423 0.68103 0.0
C1321 C 0.34029 0.62503 0.67803 0.0
C1322 C 0.31518 0.63133 0.6697 0.0
C1323 C 0.29553 0.61497 0.66673 0.0
C1324 C 0.30072 0.59226 0.67215 0.0
C1325 C 0.32555 0.58586 0.6806 0.0
C1326 C 0.34527 0.60215 0.68359 0.0
C1327 C 0.42905 0.67807 0.76557 0.0
C1328 C 0.44285 0.65828 0.77194 0.0
C1329 C 0.4125 0.67837 0.74507 0.0
C1330 C 0.40959 0.65891 0.73059 0.0
C1331 C 0.4224 0.6389 0.73758 0.0
C1332 C 0.43887 0.63858 0.75801 0.0
C1333 C 0.3947 0.65957 0.70723 0.0
C1334 C 0.37458 0.64364 0.70355 0.0
C1335 C 0.40126 0.67495 0.68811 0.0
C1336 C 0.42354 0.69107 0.69018 0.0
C1337 C 0.44917 0.68314 0.69456 0.0
C1338 C 0.47008 0.69842 0.69662 0.0
C1339 C 0.46563 0.72166 0.69411 0.0
C1340 C 0.44027 0.72966 0.68946 0.0
C1341 C 0.41928 0.71444 0.68741 0.0
H1342 H 0.48184 0.73347 0.69571 0.0
H1343 H 0.28548 0.57962 0.66983 0.0
H1344 H 0.83622 0.81102 0.09359 0.0
H1345 H 0.85241 0.81067 0.13597 0.0
H1346 H 0.87486 0.88091 0.12876 0.0
H1347 H 0.85928 0.88127 0.08636 0.0
H1348 H 0.91461 0.85474 0.14628 0.0
H1349 H 0.82265 0.86601 0.16333 0.0
H1350 H 0.7753 0.85713 0.16135 0.0
H1351 H 0.78918 0.79264 0.19578 0.0
H1352 H 0.8367 0.80101 0.19766 0.0
H1353 H 0.9477 0.88281 0.26588 0.0
H1354 H 0.92161 0.88145 0.22844 0.0
H1355 H 0.90718 0.8102 0.2402 0.0
H1356 H 0.93333 0.81133 0.27795 0.0
H1357 H 0.86312 0.83443 0.22088 0.0
H1358 H 0.95459 0.82297 0.20443 0.0
H1359 H 0.00194 0.83166 0.20721 0.0
H1360 H 0.98926 0.89564 0.17126 0.0
H1361 H 0.94171 0.88754 0.16873 0.0
C1362 C 0.84447 0.82641 0.10112 0.0
C1363 C 0.8465 0.84617 0.08664 0.0
C1364 C 0.85353 0.82623 0.12535 0.0
C1365 C 0.86475 0.84579 0.13549 0.0
C1366 C 0.86623 0.86565 0.12127 0.0
C1367 C 0.85711 0.86587 0.09712 0.0
C1368 C 0.87646 0.84529 0.16036 0.0
C1369 C 0.90326 0.85058 0.16261 0.0
C1370 C 0.86182 0.83911 0.18153 0.0
C1371 C 0.83327 0.83403 0.18038 0.0
C1372 C 0.81564 0.84984 0.17026 0.0
C1373 C 0.78877 0.84492 0.16921 0.0
C1374 C 0.77925 0.8243 0.17836 0.0
C1375 C 0.79659 0.80858 0.18866 0.0
C1376 C 0.82349 0.81342 0.18974 0.0
C1377 C 0.9387 0.86688 0.26078 0.0
C1378 C 0.94301 0.84707 0.27467 0.0
C1379 C 0.92377 0.86616 0.23938 0.0
C1380 C 0.91292 0.84565 0.23141 0.0
C1381 C 0.91554 0.82616 0.24606 0.0
C1382 C 0.93054 0.82684 0.26756 0.0
C1383 C 0.90103 0.84432 0.20671 0.0
C1384 C 0.87439 0.83856 0.20449 0.0
C1385 C 0.91582 0.84993 0.18546 0.0
C1386 C 0.94451 0.85473 0.1866 0.0
C1387 C 0.96185 0.83897 0.19729 0.0
C1388 C 0.98873 0.84379 0.19881 0.0
C1389 C 0.99859 0.86421 0.18946 0.0
C1390 C 0.98159 0.87983 0.17852 0.0
C1391 C 0.95466 0.87514 0.17704 0.0
H1392 H 0.01941 0.8679 0.19065 0.0
H1393 H 0.75843 0.82053 0.17754 0.0
H1394 H 0.19153 0.15426 0.6102 0.0
H1395 H 0.1623 0.16442 0.6441 0.0
H1396 H 0.14868 0.09359 0.65962 0.0
H1397 H 0.17656 0.08334 0.62504 0.0
H1398 H 0.10446 0.11508 0.66234 0.0
H1399 H 0.19135 0.1276 0.69447 0.0
H1400 H 0.23595 0.14409 0.69528 0.0
H1401 H 0.20319 0.21096 0.69843 0.0
H1402 H 0.15837 0.19487 0.69732 0.0
H1403 H 0.05944 0.11663 0.78449 0.0
H1404 H 0.08926 0.11288 0.74958 0.0
H1405 H 0.07955 0.18369 0.73219 0.0
H1406 H 0.04924 0.18765 0.76707 0.0
H1407 H 0.13395 0.16576 0.72931 0.0
H1408 H 0.04641 0.15161 0.69981 0.0
H1409 H 0.00258 0.13369 0.70118 0.0
H1410 H 0.03792 0.06803 0.69474 0.0
H1411 H 0.08202 0.08554 0.69378 0.0
C1412 C 0.18208 0.14084 0.62064 0.0
C1413 C 0.1866 0.11795 0.61492 0.0
C1414 C 0.1656 0.14668 0.64023 0.0
C1415 C 0.15356 0.12978 0.6547 0.0
C1416 C 0.15781 0.10697 0.64883 0.0
C1417 C 0.17405 0.10112 0.62917 0.0
C1418 C 0.13633 0.13565 0.67585 0.0
C1419 C 0.11107 0.12602 0.67704 0.0
C1420 C 0.14461 0.15035 0.69484 0.0
C1421 C 0.17152 0.16005 0.69553 0.0
C1422 C 0.19366 0.14583 0.69514 0.0
C1423 C 0.21898 0.1551 0.69568 0.0
C1424 C 0.2224 0.17856 0.69682 0.0
C1425 C 0.20051 0.1928 0.69749 0.0
C1426 C 0.17515 0.18361 0.69692 0.0
C1427 C 0.06379 0.13152 0.77345 0.0
C1428 C 0.05173 0.15242 0.77845 0.0
C1429 C 0.08083 0.1293 0.75348 0.0
C1430 C 0.08638 0.14795 0.73824 0.0
C1431 C 0.07543 0.1691 0.74377 0.0
C1432 C 0.05807 0.17129 0.76362 0.0
C1433 C 0.1025 0.14485 0.71582 0.0
C1434 C 0.12741 0.155 0.71442 0.0
C1435 C 0.09406 0.13045 0.69674 0.0
C1436 C 0.06754 0.11988 0.69694 0.0
C1437 C 0.04486 0.13334 0.69889 0.0
C1438 C 0.01996 0.12326 0.69956 0.0
C1439 C 0.01747 0.09973 0.6981 0.0
C1440 C 0.03988 0.08625 0.69589 0.0
C1441 C 0.06483 0.09624 0.69526 0.0
H1442 H 0.99818 0.09196 0.69863 0.0
H1443 H 0.24202 0.1857 0.69725 0.0
H1444 H 0.1762 0.85142 0.09675 0.0
H1445 H 0.14697 0.84344 0.13153 0.0
H1446 H 0.16499 0.90886 0.16206 0.0
H1447 H 0.19367 0.91724 0.12715 0.0
H1448 H 0.16705 0.87491 0.19675 0.0
H1449 H 0.10803 0.90062 0.13359 0.0
H1450 H 0.08741 0.90059 0.09264 0.0
H1451 H 0.0603 0.83245 0.10461 0.0
H1452 H 0.08113 0.83196 0.14551 0.0
H1453 H 0.06536 0.88706 0.28425 0.0
H1454 H 0.09538 0.89142 0.24951 0.0
H1455 H 0.06993 0.82699 0.22104 0.0
H1456 H 0.03944 0.82263 0.25557 0.0
H1457 H 0.07222 0.85817 0.18525 0.0
H1458 H 0.13 0.83249 0.24871 0.0
H1459 H 0.14999 0.83245 0.28994 0.0
H1460 H 0.17909 0.89993 0.27772 0.0
H1461 H 0.15902 0.90048 0.23647 0.0
C1462 C 0.17376 0.86422 0.11071 0.0
C1463 C 0.18736 0.88498 0.10909 0.0
C1464 C 0.15711 0.85958 0.13064 0.0
C1465 C 0.15372 0.8756 0.14933 0.0
C1466 C 0.16743 0.89621 0.1479 0.0
C1467 C 0.18394 0.90092 0.12795 0.0
C1468 C 0.13587 0.87098 0.1704 0.0
C1469 C 0.14627 0.87146 0.19426 0.0
C1470 C 0.10889 0.86591 0.1671 0.0
C1471 C 0.09644 0.86615 0.14248 0.0
C1472 C 0.09791 0.88555 0.12739 0.0
C1473 C 0.08614 0.88564 0.10421 0.0
C1474 C 0.07263 0.8665 0.09599 0.0
C1475 C 0.07082 0.84725 0.11097 0.0
C1476 C 0.0826 0.84705 0.13416 0.0
C1477 C 0.0662 0.87373 0.2707 0.0
C1478 C 0.05003 0.85444 0.27279 0.0
C1479 C 0.08348 0.87622 0.25087 0.0
C1480 C 0.08515 0.85941 0.23281 0.0
C1481 C 0.06903 0.84014 0.2348 0.0
C1482 C 0.05171 0.83763 0.25464 0.0
C1483 C 0.10337 0.86222 0.21163 0.0
C1484 C 0.09305 0.86143 0.18775 0.0
C1485 C 0.13045 0.86692 0.2149 0.0
C1486 C 0.14284 0.86658 0.23957 0.0
C1487 C 0.14053 0.84738 0.25486 0.0
C1488 C 0.1519 0.84725 0.27822 0.0
C1489 C 0.16577 0.86619 0.28645 0.0
C1490 C 0.16835 0.88528 0.27131 0.0
C1491 C 0.15702 0.88549 0.24792 0.0
H1492 H 0.17457 0.86604 0.30452 0.0
H1493 H 0.06351 0.86662 0.07804 0.0
H1494 H 0.80493 0.16836 0.60863 0.0
H1495 H 0.81826 0.17145 0.65178 0.0
H1496 H 0.87075 0.11483 0.64264 0.0
H1497 H 0.85743 0.11162 0.59964 0.0
H1498 H 0.8447 0.11488 0.68856 0.0
H1499 H 0.89403 0.16613 0.63462 0.0
H1500 H 0.89755 0.19727 0.60434 0.0
H1501 H 0.85857 0.24211 0.65435 0.0
H1502 H 0.85451 0.21109 0.6848 0.0
H1503 H 0.95527 0.12316 0.76272 0.0
H1504 H 0.9225 0.12123 0.73038 0.0
H1505 H 0.88969 0.18478 0.75415 0.0
H1506 H 0.92302 0.18712 0.7865 0.0
H1507 H 0.89608 0.18455 0.70587 0.0
H1508 H 0.85599 0.13515 0.76356 0.0
H1509 H 0.85356 0.10415 0.79405 0.0
H1510 H 0.87422 0.05608 0.73845 0.0
H1511 H 0.87725 0.08682 0.70768 0.0
C1512 C 0.81885 0.15628 0.61603 0.0
C1513 C 0.8304 0.13991 0.60082 0.0
C1514 C 0.82648 0.15809 0.6406 0.0
C1515 C 0.84562 0.14347 0.65026 0.0
C1516 C 0.85593 0.12624 0.6355 0.0
C1517 C 0.84849 0.12455 0.61093 0.0
C1518 C 0.85715 0.14743 0.67477 0.0
C1519 C 0.8559 0.13009 0.69247 0.0
C1520 C 0.87104 0.16761 0.68003 0.0
C1521 C 0.87366 0.18625 0.66182 0.0
C1522 C 0.88603 0.18259 0.63906 0.0
C1523 C 0.88815 0.20021 0.62189 0.0
C1524 C 0.87821 0.22164 0.62739 0.0
C1525 C 0.8662 0.22549 0.6501 0.0
C1526 C 0.86398 0.2079 0.66732 0.0
C1527 C 0.94101 0.13669 0.76126 0.0
C1528 C 0.94181 0.15533 0.77718 0.0
C1529 C 0.92212 0.13546 0.74284 0.0
C1530 C 0.90333 0.15265 0.74013 0.0
C1531 C 0.90392 0.17126 0.75605 0.0
C1532 C 0.92298 0.17258 0.77447 0.0
C1533 C 0.88438 0.15167 0.71953 0.0
C1534 C 0.88427 0.16957 0.70246 0.0
C1535 C 0.86914 0.13204 0.71496 0.0
C1536 C 0.86695 0.11336 0.7333 0.0
C1537 C 0.86016 0.11799 0.75784 0.0
C1538 C 0.85867 0.10046 0.77518 0.0
C1539 C 0.86375 0.07817 0.76819 0.0
C1540 C 0.87027 0.07336 0.74383 0.0
C1541 C 0.87184 0.09083 0.72642 0.0
H1542 H 0.86261 0.06462 0.78166 0.0
H1543 H 0.87988 0.23527 0.61407 0.0
loop_
_geom_bond_atom_site_label_1
_geom_bond_atom_site_label_2
_geom_bond_distance
_geom_bond_site_symmetry_2
_ccdc_geom_bond_type
P0 O11 1.490 . S
P0 C14 1.812 1_556 S
P0 C20 1.803 . S
P0 C26 1.819 . S
H1 C15 0.941 . S
H2 C16 0.939 . S
H3 C18 0.940 . S
H4 C19 0.940 . S
H5 C21 0.939 . S
H6 C22 0.942 . S
H7 C24 0.940 1_554 S
H8 C25 0.939 . S
H9 C27 0.941 . S
H10 C31 0.939 . S
O11 P0 1.490 . S
H12 C28 0.939 . S
H13 C30 0.940 . S
C14 P0 1.812 1_554 S
C14 C15 1.389 . S
C14 C19 1.391 . S
C15 H1 0.941 . S
C15 C14 1.389 . S
C15 C16 1.397 . S
C16 H2 0.939 . S
C16 C15 1.397 . S
C16 C17 1.378 . S
C17 C16 1.378 . S
C17 C18 1.378 . S
C18 H3 0.940 . S
C18 C17 1.378 . S
C18 C19 1.396 . S
C19 H4 0.940 . S
C19 C14 1.391 . S
C19 C18 1.396 . S
C20 P0 1.803 . S
C20 C21 1.378 . S
C20 C25 1.400 1_556 S
C21 H5 0.939 . S
C21 C20 1.378 . S
C21 C22 1.361 . S
C22 H6 0.942 . S
C22 C21 1.361 . S
C22 C23 1.369 . S
C23 C22 1.369 . S
C23 C24 1.404 . S
C24 H7 0.940 1_556 S
C24 C23 1.404 . S
C24 C25 1.389 1_556 S
C25 H8 0.939 . S
C25 C20 1.400 1_554 S
C25 C24 1.389 1_554 S
C26 P0 1.819 . S
C26 C27 1.391 . S
C26 C31 1.391 . S
C27 H9 0.941 . S
C27 C26 1.391 . S
C27 C28 1.396 . S
C28 H12 0.939 . S
C28 C27 1.396 . S
C28 C29 1.397 . S
C29 C28 1.397 . S
C29 C30 1.385 . S
C30 H13 0.940 . S
C30 C29 1.385 . S
C30 C31 1.388 . S
C31 H10 0.939 . S
C31 C26 1.391 . S
C31 C30 1.388 . S
P32 O43 1.490 . S
P32 C46 1.812 . S
P32 C52 1.803 . S
P32 C58 1.819 . S
H33 C47 0.941 . S
H34 C48 0.939 . S
H35 C50 0.940 . S
H36 C51 0.940 . S
H37 C53 0.939 . S
H38 C54 0.942 . S
H39 C56 0.940 . S
H40 C57 0.939 . S
H41 C59 0.941 . S
H42 C63 0.939 . S
O43 P32 1.490 . S
H44 C60 0.939 . S
H45 C62 0.940 . S
C46 P32 1.812 . S
C46 C47 1.389 . S
C46 C51 1.391 . S
C47 H33 0.941 . S
C47 C46 1.389 . S
C47 C48 1.397 . S
C48 H34 0.939 . S
C48 C47 1.397 . S
C48 C49 1.378 . S
C49 C48 1.378 . S
C49 C50 1.378 . S
C50 H35 0.940 . S
C50 C49 1.378 . S
C50 C51 1.396 . S
C51 H36 0.940 . S
C51 C46 1.391 . S
C51 C50 1.396 . S
C52 P32 1.803 . S
C52 C53 1.378 . S
C52 C57 1.400 . S
C53 H37 0.939 . S
C53 C52 1.378 . S
C53 C54 1.361 . S
C54 H38 0.942 . S
C54 C53 1.361 . S
C54 C55 1.369 . S
C55 C54 1.369 . S
C55 C56 1.404 . S
C56 H39 0.940 . S
C56 C55 1.404 . S
C56 C57 1.389 . S
C57 H40 0.939 . S
C57 C52 1.400 . S
C57 C56 1.389 . S
C58 P32 1.819 . S
C58 C59 1.391 . S
C58 C63 1.391 . S
C59 H41 0.941 . S
C59 C58 1.391 . S
C59 C60 1.396 . S
C60 H44 0.939 . S
C60 C59 1.396 . S
C60 C61 1.397 . S
C61 C60 1.397 . S
C61 C62 1.385 . S
C62 H45 0.940 . S
C62 C61 1.385 . S
C62 C63 1.388 . S
C63 H42 0.939 . S
C63 C58 1.391 . S
C63 C62 1.388 . S
P64 O75 1.490 . S
P64 C78 1.812 . S
P64 C84 1.803 . S
P64 C90 1.834 . S
H65 C79 0.941 . S
H66 C80 0.939 . S
H67 C82 0.940 . S
H68 C83 0.940 . S
H69 C85 0.939 . S
H70 C86 0.942 . S
H71 C88 0.940 . S
H72 C89 0.939 . S
H73 C91 0.941 . S
H74 C95 0.939 . S
O75 P64 1.490 . S
H76 C92 0.939 . S
H77 C94 0.940 . S
C78 P64 1.812 . S
C78 C79 1.389 . S
C78 C83 1.391 . S
C79 H65 0.941 . S
C79 C78 1.389 . S
C79 C80 1.397 . S
C80 H66 0.939 . S
C80 C79 1.397 . S
C80 C81 1.378 . S
C81 C80 1.378 . S
C81 C82 1.378 . S
C82 H67 0.940 . S
C82 C81 1.378 . S
C82 C83 1.396 . S
C83 H68 0.940 . S
C83 C78 1.391 . S
C83 C82 1.396 . S
C84 P64 1.803 . S
C84 C85 1.378 1_554 S
C84 C89 1.400 . S
C85 H69 0.939 . S
C85 C84 1.378 1_556 S
C85 C86 1.361 . S
C86 H70 0.942 . S
C86 C85 1.361 . S
C86 C87 1.369 . S
C87 C86 1.369 . S
C87 C88 1.404 . S
C88 H71 0.940 . S
C88 C87 1.404 . S
C88 C89 1.389 1_556 S
C89 H72 0.939 . S
C89 C84 1.400 . S
C89 C88 1.389 1_554 S
C90 P64 1.834 . S
C90 C91 1.399 . S
C90 C95 1.370 1_554 S
C91 H73 0.941 . S
C91 C90 1.399 . S
C91 C92 1.396 1_554 S
C92 H76 0.939 . S
C92 C91 1.396 1_556 S
C92 C93 1.397 . S
C93 C92 1.397 . S
C93 C94 1.385 . S
C94 H77 0.940 . S
C94 C93 1.385 . S
C94 C95 1.388 . S
C95 H74 0.939 . S
C95 C90 1.370 1_556 S
C95 C94 1.388 . S
P96 O107 1.490 . S
P96 C110 1.812 . S
P96 C116 1.803 . S
P96 C122 1.819 . S
H97 C111 0.941 . S
H98 C112 0.939 . S
H99 C114 0.940 . S
H100 C115 0.940 . S
H101 C117 0.939 . S
H102 C118 0.942 . S
H103 C120 0.940 . S
H104 C121 0.939 . S
H105 C123 0.941 . S
H106 C127 0.939 . S
O107 P96 1.490 . S
H108 C124 0.939 . S
H109 C126 0.940 . S
C110 P96 1.812 . S
C110 C111 1.389 . S
C110 C115 1.391 . S
C111 H97 0.941 . S
C111 C110 1.389 . S
C111 C112 1.397 . S
C112 H98 0.939 . S
C112 C111 1.397 . S
C112 C113 1.378 . S
C113 C112 1.378 . S
C113 C114 1.378 . S
C114 H99 0.940 . S
C114 C113 1.378 . S
C114 C115 1.396 . S
C115 H100 0.940 . S
C115 C110 1.391 . S
C115 C114 1.396 . S
C116 P96 1.803 . S
C116 C117 1.378 . S
C116 C121 1.400 . S
C117 H101 0.939 . S
C117 C116 1.378 . S
C117 C118 1.361 . S
C118 H102 0.942 . S
C118 C117 1.361 . S
C118 C119 1.369 . S
C119 C118 1.369 . S
C119 C120 1.404 . S
C120 H103 0.940 . S
C120 C119 1.404 . S
C120 C121 1.389 . S
C121 H104 0.939 . S
C121 C116 1.400 . S
C121 C120 1.389 . S
C122 P96 1.819 . S
C122 C123 1.391 . S
C122 C127 1.391 . S
C123 H105 0.941 . S
C123 C122 1.391 . S
C123 C124 1.396 . S
C124 H108 0.939 . S
C124 C123 1.396 . S
C124 C125 1.397 . S
C125 C124 1.397 . S
C125 C126 1.385 . S
C126 H109 0.940 . S
C126 C125 1.385 . S
C126 C127 1.388 . S
C127 H106 0.939 . S
C127 C122 1.391 . S
C127 C126 1.388 . S
P128 O139 1.490 . S
P128 C142 1.812 1_556 S
P128 C148 1.803 . S
P128 C154 1.819 . S
H129 C143 0.941 . S
H130 C144 0.939 . S
H131 C146 0.940 . S
H132 C147 0.940 . S
H133 C149 0.939 . S
H134 C150 0.942 . S
H135 C152 0.940 1_554 S
H136 C153 0.939 . S
H137 C155 0.941 . S
H138 C159 0.939 . S
O139 P128 1.490 . S
H140 C156 0.939 . S
H141 C158 0.940 . S
C142 P128 1.812 1_554 S
C142 C143 1.389 . S
C142 C147 1.391 . S
C143 H129 0.941 . S
C143 C142 1.389 . S
C143 C144 1.397 . S
C144 H130 0.939 . S
C144 C143 1.397 . S
C144 C145 1.378 . S
C145 C144 1.378 . S
C145 C146 1.378 . S
C146 H131 0.940 . S
C146 C145 1.378 . S
C146 C147 1.396 . S
C147 H132 0.940 . S
C147 C142 1.391 . S
C147 C146 1.396 . S
C148 P128 1.803 . S
C148 C149 1.378 . S
C148 C153 1.400 1_556 S
C149 H133 0.939 . S
C149 C148 1.378 . S
C149 C150 1.361 . S
C150 H134 0.942 . S
C150 C149 1.361 . S
C150 C151 1.369 . S
C151 C150 1.369 . S
C151 C152 1.404 . S
C152 H135 0.940 1_556 S
C152 C151 1.404 . S
C152 C153 1.389 1_556 S
C153 H136 0.939 . S
C153 C148 1.400 1_554 S
C153 C152 1.389 1_554 S
C154 P128 1.819 . S
C154 C155 1.391 . S
C154 C159 1.391 . S
C155 H137 0.941 . S
C155 C154 1.391 . S
C155 C156 1.396 . S
C156 H140 0.939 . S
C156 C155 1.396 . S
C156 C157 1.397 . S
C157 C156 1.397 . S
C157 C158 1.385 . S
C158 H141 0.940 . S
C158 C157 1.385 . S
C158 C159 1.388 . S
C159 H138 0.939 . S
C159 C154 1.391 . S
C159 C158 1.388 . S
P160 O171 1.490 . S
P160 C174 1.812 . S
P160 C180 1.803 . S
P160 C186 1.819 . S
H161 C175 0.941 . S
H162 C176 0.939 . S
H163 C178 0.940 . S
H164 C179 0.940 . S
H165 C181 0.939 . S
H166 C182 0.942 . S
H167 C184 0.940 . S
H168 C185 0.939 . S
H169 C187 0.941 . S
H170 C191 0.939 . S
O171 P160 1.490 . S
H172 C188 0.939 . S
H173 C190 0.940 . S
C174 P160 1.812 . S
C174 C175 1.389 . S
C174 C179 1.391 . S
C175 H161 0.941 . S
C175 C174 1.389 . S
C175 C176 1.397 . S
C176 H162 0.939 . S
C176 C175 1.397 . S
C176 C177 1.378 . S
C177 C176 1.378 . S
C177 C178 1.378 . S
C178 H163 0.940 . S
C178 C177 1.378 . S
C178 C179 1.396 . S
C179 H164 0.940 . S
C179 C174 1.391 . S
C179 C178 1.396 . S
C180 P160 1.803 . S
C180 C181 1.378 . S
C180 C185 1.400 . S
C181 H165 0.939 . S
C181 C180 1.378 . S
C181 C182 1.361 . S
C182 H166 0.942 . S
C182 C181 1.361 . S
C182 C183 1.369 . S
C183 C182 1.369 . S
C183 C184 1.404 . S
C184 H167 0.940 . S
C184 C183 1.404 . S
C184 C185 1.389 . S
C185 H168 0.939 . S
C185 C180 1.400 . S
C185 C184 1.389 . S
C186 P160 1.819 . S
C186 C187 1.391 . S
C186 C191 1.391 . S
C187 H169 0.941 . S
C187 C186 1.391 . S
C187 C188 1.396 . S
C188 H172 0.939 . S
C188 C187 1.396 . S
C188 C189 1.397 . S
C189 C188 1.397 . S
C189 C190 1.385 . S
C190 H173 0.940 . S
C190 C189 1.385 . S
C190 C191 1.388 . S
C191 H170 0.939 . S
C191 C186 1.391 . S
C191 C190 1.388 . S
P192 O203 1.490 . S
P192 C206 1.812 . S
P192 C212 1.803 . S
P192 C218 1.834 . S
H193 C207 0.941 . S
H194 C208 0.939 . S
H195 C210 0.940 . S
H196 C211 0.940 . S
H197 C213 0.939 . S
H198 C214 0.942 . S
H199 C216 0.940 . S
H200 C217 0.939 . S
H201 C219 0.941 . S
H202 C223 0.939 . S
O203 P192 1.490 . S
H204 C220 0.939 . S
H205 C222 0.940 . S
C206 P192 1.812 . S
C206 C207 1.389 . S
C206 C211 1.391 . S
C207 H193 0.941 . S
C207 C206 1.389 . S
C207 C208 1.397 . S
C208 H194 0.939 . S
C208 C207 1.397 . S
C208 C209 1.378 . S
C209 C208 1.378 . S
C209 C210 1.378 . S
C210 H195 0.940 . S
C210 C209 1.378 . S
C210 C211 1.396 . S
C211 H196 0.940 . S
C211 C206 1.391 . S
C211 C210 1.396 . S
C212 P192 1.803 . S
C212 C213 1.378 1_554 S
C212 C217 1.400 . S
C213 H197 0.939 . S
C213 C212 1.378 1_556 S
C213 C214 1.361 . S
C214 H198 0.942 . S
C214 C213 1.361 . S
C214 C215 1.369 . S
C215 C214 1.369 . S
C215 C216 1.404 . S
C216 H199 0.940 . S
C216 C215 1.404 . S
C216 C217 1.389 1_556 S
C217 H200 0.939 . S
C217 C212 1.400 . S
C217 C216 1.389 1_554 S
C218 P192 1.834 . S
C218 C219 1.399 . S
C218 C223 1.369 1_554 S
C219 H201 0.941 . S
C219 C218 1.399 . S
C219 C220 1.396 1_554 S
C220 H204 0.939 . S
C220 C219 1.396 1_556 S
C220 C221 1.397 . S
C221 C220 1.397 . S
C221 C222 1.385 . S
C222 H205 0.940 . S
C222 C221 1.385 . S
C222 C223 1.388 . S
C223 H202 0.939 . S
C223 C218 1.369 1_556 S
C223 C222 1.388 . S
P224 O235 1.490 . S
P224 C238 1.812 . S
P224 C244 1.803 . S
P224 C250 1.819 . S
H225 C239 0.941 . S
H226 C240 0.939 . S
H227 C242 0.940 . S
H228 C243 0.940 . S
H229 C245 0.939 . S
H230 C246 0.942 . S
H231 C248 0.940 . S
H232 C249 0.939 . S
H233 C251 0.941 . S
H234 C255 0.939 . S
O235 P224 1.490 . S
H236 C252 0.939 . S
H237 C254 0.940 . S
C238 P224 1.812 . S
C238 C239 1.389 . S
C238 C243 1.391 . S
C239 H225 0.941 . S
C239 C238 1.389 . S
C239 C240 1.397 . S
C240 H226 0.939 . S
C240 C239 1.397 . S
C240 C241 1.378 . S
C241 C240 1.378 . S
C241 C242 1.378 . S
C242 H227 0.940 . S
C242 C241 1.378 . S
C242 C243 1.396 . S
C243 H228 0.940 . S
C243 C238 1.391 . S
C243 C242 1.396 . S
C244 P224 1.803 . S
C244 C245 1.378 . S
C244 C249 1.400 . S
C245 H229 0.939 . S
C245 C244 1.378 . S
C245 C246 1.361 . S
C246 H230 0.942 . S
C246 C245 1.361 . S
C246 C247 1.369 . S
C247 C246 1.369 . S
C247 C248 1.404 . S
C248 H231 0.940 . S
C248 C247 1.404 . S
C248 C249 1.389 . S
C249 H232 0.939 . S
C249 C244 1.400 . S
C249 C248 1.389 . S
C250 P224 1.819 . S
C250 C251 1.391 . S
C250 C255 1.391 . S
C251 H233 0.941 . S
C251 C250 1.391 . S
C251 C252 1.396 . S
C252 H236 0.939 . S
C252 C251 1.396 . S
C252 C253 1.397 . S
C253 C252 1.397 . S
C253 C254 1.385 . S
C254 H237 0.940 . S
C254 C253 1.385 . S
C254 C255 1.388 . S
C255 H234 0.939 . S
C255 C250 1.391 . S
C255 C254 1.388 . S
Fe256 O258 1.918 . S
Fe256 O261 1.997 1_455 S
Fe256 O262 2.002 1_455 S
Fe256 O267 1.976 . S
Fe256 O270 1.996 . S
Fe257 O258 1.918 . S
Fe257 O265 1.997 1_455 S
Fe257 O268 1.996 . S
Fe257 O272 1.976 . S
Fe257 O275 2.002 1_455 S
O258 Fe256 1.918 . S
O258 Fe257 1.918 . S
O258 Fe259 1.918 . S
Fe259 O258 1.918 . S
Fe259 O260 2.002 1_455 S
Fe259 O269 1.976 . S
Fe259 O273 1.996 . S
Fe259 O276 1.997 1_455 S
O260 Fe259 2.002 1_655 S
O260 C277 1.295 . S
O261 Fe256 1.997 1_655 S
O261 C277 1.235 . S
O262 Fe256 2.002 1_655 S
O262 C263 1.295 . S
C263 O262 1.295 . S
C263 O265 1.235 . S
C264 O269 1.287 . S
C264 O270 1.255 . S
O265 Fe257 1.997 1_655 S
O265 C263 1.235 . S
C266 O272 1.287 . S
C266 O273 1.255 . S
O267 Fe256 1.976 . S
O267 C274 1.287 . S
O268 Fe257 1.996 . S
O268 C274 1.255 . S
O269 Fe259 1.976 . S
O269 C264 1.287 . S
O270 Fe256 1.996 . S
O270 C264 1.255 . S
C271 O275 1.295 . S
C271 O276 1.235 . S
O272 Fe257 1.976 . S
O272 C266 1.287 . S
O273 Fe259 1.996 . S
O273 C266 1.255 . S
C274 O267 1.287 . S
C274 O268 1.255 . S
O275 Fe257 2.002 1_655 S
O275 C271 1.295 . S
O276 Fe259 1.997 1_655 S
O276 C271 1.235 . S
C277 O260 1.295 . S
C277 O261 1.235 . S
Fe278 O280 1.918 . S
Fe278 O283 1.988 1_655 S
Fe278 O284 1.993 1_655 S
Fe278 O289 1.985 . S
Fe278 O292 2.004 . S
Fe279 O280 1.918 . S
Fe279 O287 1.988 1_655 S
Fe279 O290 2.004 . S
Fe279 O294 1.984 . S
Fe279 O297 1.994 1_655 S
O280 Fe278 1.918 . S
O280 Fe279 1.918 . S
O280 Fe281 1.918 . S
Fe281 O280 1.918 . S
Fe281 O282 1.994 1_655 S
Fe281 O291 1.984 . S
Fe281 O295 2.004 . S
Fe281 O298 1.988 1_655 S
O282 Fe281 1.994 1_455 S
O282 C299 1.295 . S
O283 Fe278 1.988 1_455 S
O283 C299 1.235 . S
O284 Fe278 1.993 1_455 S
O284 C285 1.295 . S
C285 O284 1.295 . S
C285 O287 1.235 . S
C286 O291 1.287 . S
C286 O292 1.255 . S
O287 Fe279 1.988 1_455 S
O287 C285 1.235 . S
C288 O294 1.287 . S
C288 O295 1.255 . S
O289 Fe278 1.985 . S
O289 C296 1.287 . S
O290 Fe279 2.004 . S
O290 C296 1.255 . S
O291 Fe281 1.984 . S
O291 C286 1.287 . S
O292 Fe278 2.004 . S
O292 C286 1.255 . S
C293 O297 1.295 . S
C293 O298 1.235 . S
O294 Fe279 1.984 . S
O294 C288 1.287 . S
O295 Fe281 2.004 . S
O295 C288 1.255 . S
C296 O289 1.287 . S
C296 O290 1.255 . S
O297 Fe279 1.994 1_455 S
O297 C293 1.295 . S
O298 Fe281 1.988 1_455 S
O298 C293 1.235 . S
C299 O282 1.295 . S
C299 O283 1.235 . S
Fe300 O302 1.918 . S
Fe300 O305 1.997 . S
Fe300 O306 2.002 . S
Fe300 O311 1.976 . S
Fe300 O314 1.996 . S
Fe301 O302 1.918 . S
Fe301 O309 1.997 . S
Fe301 O312 1.996 . S
Fe301 O316 1.976 . S
Fe301 O319 2.002 . S
O302 Fe300 1.918 . S
O302 Fe301 1.918 . S
O302 Fe303 1.918 . S
Fe303 O302 1.918 . S
Fe303 O304 2.002 . S
Fe303 O313 1.976 . S
Fe303 O317 1.996 . S
Fe303 O320 1.997 . S
O304 Fe303 2.002 . S
O304 C321 1.295 . S
O305 Fe300 1.997 . S
O305 C321 1.235 . S
O306 Fe300 2.002 . S
O306 C307 1.295 . S
C307 O306 1.295 . S
C307 O309 1.235 . S
C308 O313 1.287 . S
C308 O314 1.255 . S
O309 Fe301 1.997 . S
O309 C307 1.235 . S
C310 O316 1.287 . S
C310 O317 1.255 . S
O311 Fe300 1.976 . S
O311 C318 1.287 . S
O312 Fe301 1.996 . S
O312 C318 1.255 . S
O313 Fe303 1.976 . S
O313 C308 1.287 . S
O314 Fe300 1.996 . S
O314 C308 1.255 . S
C315 O319 1.295 . S
C315 O320 1.235 . S
O316 Fe301 1.976 . S
O316 C310 1.287 . S
O317 Fe303 1.996 . S
O317 C310 1.255 . S
C318 O311 1.287 . S
C318 O312 1.255 . S
O319 Fe301 2.002 . S
O319 C315 1.295 . S
O320 Fe303 1.997 . S
O320 C315 1.235 . S
C321 O304 1.295 . S
C321 O305 1.235 . S
Fe322 O324 1.918 . S
Fe322 O327 1.997 . S
Fe322 O328 2.002 . S
Fe322 O333 1.976 . S
Fe322 O336 1.996 . S
Fe323 O324 1.918 . S
Fe323 O331 1.997 . S
Fe323 O334 1.996 . S
Fe323 O338 1.976 . S
Fe323 O341 2.002 . S
O324 Fe322 1.918 . S
O324 Fe323 1.918 . S
O324 Fe325 1.918 . S
Fe325 O324 1.918 . S
Fe325 O326 2.002 . S
Fe325 O335 1.976 . S
Fe325 O339 1.996 . S
Fe325 O342 1.997 . S
O326 Fe325 2.002 . S
O326 C343 1.295 . S
O327 Fe322 1.997 . S
O327 C343 1.235 . S
O328 Fe322 2.002 . S
O328 C329 1.295 . S
C329 O328 1.295 . S
C329 O331 1.235 . S
C330 O335 1.287 . S
C330 O336 1.255 . S
O331 Fe323 1.997 . S
O331 C329 1.235 . S
C332 O338 1.287 . S
C332 O339 1.255 . S
O333 Fe322 1.976 . S
O333 C340 1.287 . S
O334 Fe323 1.996 . S
O334 C340 1.255 . S
O335 Fe325 1.976 . S
O335 C330 1.287 . S
O336 Fe322 1.996 . S
O336 C330 1.255 . S
C337 O341 1.295 . S
C337 O342 1.235 . S
O338 Fe323 1.976 . S
O338 C332 1.287 . S
O339 Fe325 1.996 . S
O339 C332 1.255 . S
C340 O333 1.287 . S
C340 O334 1.255 . S
O341 Fe323 2.002 . S
O341 C337 1.295 . S
O342 Fe325 1.997 . S
O342 C337 1.235 . S
C343 O326 1.295 . S
C343 O327 1.235 . S
H344 C362 0.951 . S
H345 C364 0.951 . S
H346 C366 0.950 . S
H347 C367 0.950 . S
H348 C369 0.950 . S
H349 C372 0.950 . S
H350 C373 0.950 . S
H351 C375 0.950 . S
H352 C376 0.950 . S
H353 C377 0.951 . S
H354 C379 0.951 . S
H355 C381 0.950 . S
H356 C382 0.950 . S
H357 C384 0.950 . S
H358 C387 0.950 . S
H359 C388 0.950 . S
H360 C390 0.950 . S
H361 C391 0.950 . S
C362 H344 0.951 . S
C362 C363 1.366 . S
C362 C364 1.388 . S
C363 C362 1.366 . S
C363 C367 1.385 . S
C364 H345 0.951 . S
C364 C362 1.388 . S
C364 C365 1.366 . S
C365 C364 1.366 . S
C365 C366 1.414 . S
C365 C368 1.499 . S
C366 H346 0.950 . S
C366 C365 1.414 . S
C366 C367 1.374 . S
C367 H347 0.950 . S
C367 C363 1.385 . S
C367 C366 1.374 . S
C368 C365 1.499 . S
C368 C369 1.373 . S
C368 C370 1.389 . S
C369 H348 0.950 . S
C369 C368 1.373 . S
C369 C385 1.377 . S
C370 C368 1.389 . S
C370 C371 1.524 . S
C370 C384 1.377 . S
C371 C370 1.524 . S
C371 C372 1.397 . S
C371 C376 1.363 . S
C372 H349 0.950 . S
C372 C371 1.397 . S
C372 C373 1.334 . S
C373 H350 0.950 . S
C373 C372 1.334 . S
C373 C374 1.287 . S
C374 C373 1.287 . S
C374 C375 1.524 . S
C374 H393 0.913 . S
C375 H351 0.950 . S
C375 C374 1.524 . S
C375 C376 1.415 . S
C376 H352 0.950 . S
C376 C371 1.363 . S
C376 C375 1.415 . S
C377 H353 0.951 . S
C377 C378 1.366 . S
C377 C379 1.388 . S
C378 C377 1.366 . S
C378 C382 1.385 . S
C379 H354 0.951 . S
C379 C377 1.388 . S
C379 C380 1.366 . S
C380 C379 1.366 . S
C380 C381 1.414 . S
C380 C383 1.499 . S
C381 H355 0.950 . S
C381 C380 1.414 . S
C381 C382 1.374 . S
C382 H356 0.950 . S
C382 C378 1.385 . S
C382 C381 1.374 . S
C383 C380 1.499 . S
C383 C384 1.373 . S
C383 C385 1.389 . S
C384 H357 0.950 . S
C384 C370 1.377 . S
C384 C383 1.373 . S
C385 C369 1.377 . S
C385 C383 1.389 . S
C385 C386 1.524 . S
C386 C385 1.524 . S
C386 C387 1.397 . S
C386 C391 1.363 . S
C387 H358 0.950 . S
C387 C386 1.397 . S
C387 C388 1.334 . S
C388 H359 0.950 . S
C388 C387 1.334 . S
C388 C389 1.287 . S
C389 C388 1.287 . S
C389 C390 1.524 . S
C389 H392 0.999 . S
C390 H360 0.950 . S
C390 C389 1.524 . S
C390 C391 1.415 . S
C391 H361 0.950 . S
C391 C386 1.363 . S
C391 C390 1.415 . S
H392 C389 0.999 . S
H393 C374 0.913 . S
H394 C412 0.951 . S
H395 C414 0.951 . S
H396 C416 0.950 . S
H397 C417 0.950 . S
H398 C419 0.950 . S
H399 C422 0.950 . S
H400 C423 0.950 . S
H401 C425 0.950 . S
H402 C426 0.950 . S
H403 C427 0.951 . S
H404 C429 0.951 . S
H405 C431 0.950 . S
H406 C432 0.950 . S
H407 C434 0.950 . S
H408 C437 0.950 . S
H409 C438 0.950 . S
H410 C440 0.950 . S
H411 C441 0.950 . S
C412 H394 0.951 . S
C412 C413 1.366 . S
C412 C414 1.388 . S
C413 C412 1.366 . S
C413 C417 1.385 . S
C414 H395 0.951 . S
C414 C412 1.388 . S
C414 C415 1.366 . S
C415 C414 1.366 . S
C415 C416 1.414 . S
C415 C418 1.499 . S
C416 H396 0.950 . S
C416 C415 1.414 . S
C416 C417 1.374 . S
C417 H397 0.950 . S
C417 C413 1.385 . S
C417 C416 1.374 . S
C418 C415 1.499 . S
C418 C419 1.373 . S
C418 C420 1.389 . S
C419 H398 0.950 . S
C419 C418 1.373 . S
C419 C435 1.377 . S
C420 C418 1.389 . S
C420 C421 1.524 . S
C420 C434 1.377 . S
C421 C420 1.524 . S
C421 C422 1.397 . S
C421 C426 1.363 . S
C422 H399 0.950 . S
C422 C421 1.397 . S
C422 C423 1.334 . S
C423 H400 0.950 . S
C423 C422 1.334 . S
C423 C424 1.287 . S
C424 C423 1.287 . S
C424 C425 1.524 . S
C424 H443 0.913 . S
C425 H401 0.950 . S
C425 C424 1.524 . S
C425 C426 1.415 . S
C426 H402 0.950 . S
C426 C421 1.363 . S
C426 C425 1.415 . S
C427 H403 0.951 . S
C427 C428 1.366 . S
C427 C429 1.388 . S
C428 C427 1.366 . S
C428 C432 1.385 . S
C429 H404 0.951 . S
C429 C427 1.388 . S
C429 C430 1.366 . S
C430 C429 1.366 . S
C430 C431 1.414 . S
C430 C433 1.499 . S
C431 H405 0.950 . S
C431 C430 1.414 . S
C431 C432 1.374 . S
C432 H406 0.950 . S
C432 C428 1.385 . S
C432 C431 1.374 . S
C433 C430 1.499 . S
C433 C434 1.373 . S
C433 C435 1.389 . S
C434 H407 0.950 . S
C434 C420 1.377 . S
C434 C433 1.373 . S
C435 C419 1.377 . S
C435 C433 1.389 . S
C435 C436 1.524 . S
C436 C435 1.524 . S
C436 C437 1.397 . S
C436 C441 1.363 . S
C437 H408 0.950 . S
C437 C436 1.397 . S
C437 C438 1.334 . S
C438 H409 0.950 . S
C438 C437 1.334 . S
C438 C439 1.287 . S
C439 C438 1.287 . S
C439 C440 1.524 . S
C439 H442 0.999 . S
C440 H410 0.950 . S
C440 C439 1.524 . S
C440 C441 1.415 . S
C441 H411 0.950 . S
C441 C436 1.363 . S
C441 C440 1.415 . S
H442 C439 0.999 . S
H443 C424 0.913 . S
H444 C462 0.951 . S
H445 C464 0.951 . S
H446 C466 0.950 . S
H447 C467 0.950 . S
H448 C469 0.950 . S
H449 C472 0.950 . S
H450 C473 0.950 . S
H451 C475 0.950 . S
H452 C476 0.950 . S
H453 C477 0.951 . S
H454 C479 0.951 . S
H455 C481 0.950 . S
H456 C482 0.950 . S
H457 C484 0.950 . S
H458 C487 0.950 . S
H459 C488 0.950 . S
H460 C490 0.950 . S
H461 C491 0.950 . S
C462 H444 0.951 . S
C462 C463 1.366 . S
C462 C464 1.388 . S
C463 C462 1.366 . S
C463 C467 1.385 . S
C464 H445 0.951 . S
C464 C462 1.388 . S
C464 C465 1.366 . S
C465 C464 1.366 . S
C465 C466 1.414 . S
C465 C468 1.499 . S
C466 H446 0.950 . S
C466 C465 1.414 . S
C466 C467 1.374 . S
C467 H447 0.950 . S
C467 C463 1.385 . S
C467 C466 1.374 . S
C468 C465 1.499 . S
C468 C469 1.373 . S
C468 C470 1.389 . S
C469 H448 0.950 . S
C469 C468 1.373 . S
C469 C485 1.377 . S
C470 C468 1.389 . S
C470 C471 1.524 . S
C470 C484 1.377 . S
C471 C470 1.524 . S
C471 C472 1.397 . S
C471 C476 1.363 . S
C472 H449 0.950 . S
C472 C471 1.397 . S
C472 C473 1.334 . S
C473 H450 0.950 . S
C473 C472 1.334 . S
C473 C474 1.287 1_556 S
C474 C473 1.287 1_554 S
C474 C475 1.524 . S
C474 H493 0.913 . S
C475 H451 0.950 . S
C475 C474 1.524 . S
C475 C476 1.415 1_554 S
C476 H452 0.950 . S
C476 C471 1.363 . S
C476 C475 1.415 1_556 S
C477 H453 0.951 . S
C477 C478 1.366 . S
C477 C479 1.388 . S
C478 C477 1.366 . S
C478 C482 1.385 . S
C479 H454 0.951 . S
C479 C477 1.388 . S
C479 C480 1.366 . S
C480 C479 1.366 . S
C480 C481 1.414 . S
C480 C483 1.499 . S
C481 H455 0.950 . S
C481 C480 1.414 . S
C481 C482 1.374 . S
C482 H456 0.950 . S
C482 C478 1.385 . S
C482 C481 1.374 . S
C483 C480 1.499 . S
C483 C484 1.373 . S
C483 C485 1.389 . S
C484 H457 0.950 . S
C484 C470 1.377 . S
C484 C483 1.373 . S
C485 C469 1.377 . S
C485 C483 1.389 . S
C485 C486 1.524 . S
C486 C485 1.524 . S
C486 C487 1.397 . S
C486 C491 1.363 . S
C487 H458 0.950 . S
C487 C486 1.397 . S
C487 C488 1.334 . S
C488 H459 0.950 . S
C488 C487 1.334 . S
C488 C489 1.287 . S
C489 C488 1.287 . S
C489 C490 1.524 . S
C489 H492 0.999 . S
C490 H460 0.950 . S
C490 C489 1.524 . S
C490 C491 1.415 . S
C491 H461 0.950 . S
C491 C486 1.363 . S
C491 C490 1.415 . S
H492 C489 0.999 . S
H493 C474 0.913 . S
H494 C512 0.951 . S
H495 C514 0.951 . S
H496 C516 0.950 . S
H497 C517 0.950 . S
H498 C519 0.950 . S
H499 C522 0.950 . S
H500 C523 0.950 . S
H501 C525 0.950 . S
H502 C526 0.950 . S
H503 C527 0.951 . S
H504 C529 0.951 . S
H505 C531 0.950 . S
H506 C532 0.950 . S
H507 C534 0.950 . S
H508 C537 0.950 . S
H509 C538 0.950 . S
H510 C540 0.950 . S
H511 C541 0.950 . S
C512 H494 0.951 . S
C512 C513 1.366 . S
C512 C514 1.388 . S
C513 C512 1.366 . S
C513 C517 1.385 . S
C514 H495 0.951 . S
C514 C512 1.388 . S
C514 C515 1.366 . S
C515 C514 1.366 . S
C515 C516 1.414 . S
C515 C518 1.499 . S
C516 H496 0.950 . S
C516 C515 1.414 . S
C516 C517 1.374 . S
C517 H497 0.950 . S
C517 C513 1.385 . S
C517 C516 1.374 . S
C518 C515 1.499 . S
C518 C519 1.373 . S
C518 C520 1.389 . S
C519 H498 0.950 . S
C519 C518 1.373 . S
C519 C535 1.377 . S
C520 C518 1.389 . S
C520 C521 1.524 . S
C520 C534 1.377 . S
C521 C520 1.524 . S
C521 C522 1.397 . S
C521 C526 1.363 . S
C522 H499 0.950 . S
C522 C521 1.397 . S
C522 C523 1.334 . S
C523 H500 0.950 . S
C523 C522 1.334 . S
C523 C524 1.287 . S
C524 C523 1.287 . S
C524 C525 1.524 . S
C524 H543 0.913 . S
C525 H501 0.950 . S
C525 C524 1.524 . S
C525 C526 1.415 . S
C526 H502 0.950 . S
C526 C521 1.363 . S
C526 C525 1.415 . S
C527 H503 0.951 . S
C527 C528 1.366 . S
C527 C529 1.388 . S
C528 C527 1.366 . S
C528 C532 1.385 . S
C529 H504 0.951 . S
C529 C527 1.388 . S
C529 C530 1.366 . S
C530 C529 1.366 . S
C530 C531 1.414 . S
C530 C533 1.499 . S
C531 H505 0.950 . S
C531 C530 1.414 . S
C531 C532 1.374 . S
C532 H506 0.950 . S
C532 C528 1.385 . S
C532 C531 1.374 . S
C533 C530 1.499 . S
C533 C534 1.373 . S
C533 C535 1.389 . S
C534 H507 0.950 . S
C534 C520 1.377 . S
C534 C533 1.373 . S
C535 C519 1.377 . S
C535 C533 1.389 . S
C535 C536 1.524 . S
C536 C535 1.524 . S
C536 C537 1.397 . S
C536 C541 1.363 . S
C537 H508 0.950 . S
C537 C536 1.397 . S
C537 C538 1.334 . S
C538 H509 0.950 . S
C538 C537 1.334 . S
C538 C539 1.287 . S
C539 C538 1.287 . S
C539 C540 1.524 . S
C539 H542 0.999 . S
C540 H510 0.950 . S
C540 C539 1.524 . S
C540 C541 1.415 . S
C541 H511 0.950 . S
C541 C536 1.363 . S
C541 C540 1.415 . S
H542 C539 0.999 . S
H543 C524 0.913 . S
H544 C562 0.951 . S
H545 C564 0.951 . S
H546 C566 0.950 . S
H547 C567 0.950 . S
H548 C569 0.950 . S
H549 C572 0.950 . S
H550 C573 0.950 . S
H551 C575 0.950 . S
H552 C576 0.950 . S
H553 C577 0.951 . S
H554 C579 0.951 . S
H555 C581 0.950 . S
H556 C582 0.950 . S
H557 C584 0.950 . S
H558 C587 0.950 . S
H559 C588 0.950 . S
H560 C590 0.950 . S
H561 C591 0.950 . S
C562 H544 0.951 . S
C562 C563 1.366 . S
C562 C564 1.388 . S
C563 C562 1.366 . S
C563 C567 1.385 . S
C564 H545 0.951 . S
C564 C562 1.388 . S
C564 C565 1.366 . S
C565 C564 1.366 . S
C565 C566 1.414 . S
C565 C568 1.499 . S
C566 H546 0.950 . S
C566 C565 1.414 . S
C566 C567 1.374 . S
C567 H547 0.950 . S
C567 C563 1.385 . S
C567 C566 1.374 . S
C568 C565 1.499 . S
C568 C569 1.373 . S
C568 C570 1.389 . S
C569 H548 0.950 . S
C569 C568 1.373 . S
C569 C585 1.377 . S
C570 C568 1.389 . S
C570 C571 1.524 . S
C570 C584 1.377 . S
C571 C570 1.524 . S
C571 C572 1.397 . S
C571 C576 1.363 . S
C572 H549 0.950 . S
C572 C571 1.397 . S
C572 C573 1.334 . S
C573 H550 0.950 . S
C573 C572 1.334 . S
C573 C574 1.287 . S
C574 C573 1.287 . S
C574 C575 1.524 . S
C574 H593 0.913 . S
C575 H551 0.950 . S
C575 C574 1.524 . S
C575 C576 1.415 . S
C576 H552 0.950 . S
C576 C571 1.363 . S
C576 C575 1.415 . S
C577 H553 0.951 . S
C577 C578 1.366 . S
C577 C579 1.388 . S
C578 C577 1.366 . S
C578 C582 1.385 . S
C579 H554 0.951 . S
C579 C577 1.388 . S
C579 C580 1.366 . S
C580 C579 1.366 . S
C580 C581 1.414 . S
C580 C583 1.499 . S
C581 H555 0.950 . S
C581 C580 1.414 . S
C581 C582 1.374 . S
C582 H556 0.950 . S
C582 C578 1.385 . S
C582 C581 1.374 . S
C583 C580 1.499 . S
C583 C584 1.373 . S
C583 C585 1.389 . S
C584 H557 0.950 . S
C584 C570 1.377 . S
C584 C583 1.373 . S
C585 C569 1.377 . S
C585 C583 1.389 . S
C585 C586 1.524 . S
C586 C585 1.524 . S
C586 C587 1.397 . S
C586 C591 1.363 . S
C587 H558 0.950 . S
C587 C586 1.397 . S
C587 C588 1.334 . S
C588 H559 0.950 . S
C588 C587 1.334 . S
C588 C589 1.287 . S
C589 C588 1.287 . S
C589 C590 1.524 . S
C589 H592 0.999 . S
C590 H560 0.950 . S
C590 C589 1.524 . S
C590 C591 1.415 . S
C591 H561 0.950 . S
C591 C586 1.363 . S
C591 C590 1.415 . S
H592 C589 0.999 . S
H593 C574 0.913 . S
H594 C612 0.951 . S
H595 C614 0.951 . S
H596 C616 0.950 . S
H597 C617 0.950 . S
H598 C619 0.950 . S
H599 C622 0.950 . S
H600 C623 0.950 . S
H601 C625 0.950 . S
H602 C626 0.950 . S
H603 C627 0.951 . S
H604 C629 0.951 . S
H605 C631 0.950 . S
H606 C632 0.950 . S
H607 C634 0.950 . S
H608 C637 0.950 . S
H609 C638 0.950 . S
H610 C640 0.950 . S
H611 C641 0.950 . S
C612 H594 0.951 . S
C612 C613 1.366 . S
C612 C614 1.388 . S
C613 C612 1.366 . S
C613 C617 1.385 . S
C614 H595 0.951 . S
C614 C612 1.388 . S
C614 C615 1.366 . S
C615 C614 1.366 . S
C615 C616 1.414 . S
C615 C618 1.499 . S
C616 H596 0.950 . S
C616 C615 1.414 . S
C616 C617 1.374 . S
C617 H597 0.950 . S
C617 C613 1.385 . S
C617 C616 1.374 . S
C618 C615 1.499 . S
C618 C619 1.373 . S
C618 C620 1.389 . S
C619 H598 0.950 . S
C619 C618 1.373 . S
C619 C635 1.377 . S
C620 C618 1.389 . S
C620 C621 1.524 . S
C620 C634 1.377 . S
C621 C620 1.524 . S
C621 C622 1.397 . S
C621 C626 1.363 . S
C622 H599 0.950 . S
C622 C621 1.397 . S
C622 C623 1.334 . S
C623 H600 0.950 . S
C623 C622 1.334 . S
C623 C624 1.287 . S
C624 C623 1.287 . S
C624 C625 1.524 . S
C624 H643 0.913 . S
C625 H601 0.950 . S
C625 C624 1.524 . S
C625 C626 1.415 . S
C626 H602 0.950 . S
C626 C621 1.363 . S
C626 C625 1.415 . S
C627 H603 0.951 . S
C627 C628 1.366 . S
C627 C629 1.388 . S
C628 C627 1.366 . S
C628 C632 1.385 . S
C629 H604 0.951 . S
C629 C627 1.388 . S
C629 C630 1.366 . S
C630 C629 1.366 . S
C630 C631 1.414 . S
C630 C633 1.499 . S
C631 H605 0.950 . S
C631 C630 1.414 . S
C631 C632 1.374 . S
C632 H606 0.950 . S
C632 C628 1.385 . S
C632 C631 1.374 . S
C633 C630 1.499 . S
C633 C634 1.373 . S
C633 C635 1.389 . S
C634 H607 0.950 . S
C634 C620 1.377 . S
C634 C633 1.373 . S
C635 C619 1.377 . S
C635 C633 1.389 . S
C635 C636 1.524 . S
C636 C635 1.524 . S
C636 C637 1.397 . S
C636 C641 1.363 . S
C637 H608 0.950 . S
C637 C636 1.397 . S
C637 C638 1.334 . S
C638 H609 0.950 . S
C638 C637 1.334 . S
C638 C639 1.287 . S
C639 C638 1.287 . S
C639 C640 1.524 . S
C639 H642 0.999 . S
C640 H610 0.950 . S
C640 C639 1.524 . S
C640 C641 1.415 . S
C641 H611 0.950 . S
C641 C636 1.363 . S
C641 C640 1.415 . S
H642 C639 0.999 . S
H643 C624 0.913 . S
H644 C662 0.951 . S
H645 C664 0.951 . S
H646 C666 0.950 . S
H647 C667 0.950 . S
H648 C669 0.950 . S
H649 C672 0.950 . S
H650 C673 0.950 . S
H651 C675 0.950 . S
H652 C676 0.950 . S
H653 C677 0.951 . S
H654 C679 0.951 . S
H655 C681 0.950 . S
H656 C682 0.950 . S
H657 C684 0.950 . S
H658 C687 0.950 . S
H659 C688 0.950 . S
H660 C690 0.950 . S
H661 C691 0.950 . S
C662 H644 0.951 . S
C662 C663 1.366 . S
C662 C664 1.388 . S
C663 C662 1.366 . S
C663 C667 1.385 . S
C664 H645 0.951 . S
C664 C662 1.388 . S
C664 C665 1.366 . S
C665 C664 1.366 . S
C665 C666 1.414 . S
C665 C668 1.499 . S
C666 H646 0.950 . S
C666 C665 1.414 . S
C666 C667 1.374 . S
C667 H647 0.950 . S
C667 C663 1.385 . S
C667 C666 1.374 . S
C668 C665 1.499 . S
C668 C669 1.373 . S
C668 C670 1.389 . S
C669 H648 0.950 . S
C669 C668 1.373 . S
C669 C685 1.377 . S
C670 C668 1.389 . S
C670 C671 1.524 . S
C670 C684 1.377 . S
C671 C670 1.524 . S
C671 C672 1.397 . S
C671 C676 1.363 . S
C672 H649 0.950 . S
C672 C671 1.397 . S
C672 C673 1.334 . S
C673 H650 0.950 . S
C673 C672 1.334 . S
C673 C674 1.287 . S
C674 C673 1.287 . S
C674 C675 1.524 . S
C674 H693 0.913 . S
C675 H651 0.950 . S
C675 C674 1.524 . S
C675 C676 1.415 . S
C676 H652 0.950 . S
C676 C671 1.363 . S
C676 C675 1.415 . S
C677 H653 0.951 . S
C677 C678 1.366 . S
C677 C679 1.388 . S
C678 C677 1.366 . S
C678 C682 1.385 . S
C679 H654 0.951 . S
C679 C677 1.388 . S
C679 C680 1.366 . S
C680 C679 1.366 . S
C680 C681 1.414 . S
C680 C683 1.499 . S
C681 H655 0.950 . S
C681 C680 1.414 . S
C681 C682 1.374 . S
C682 H656 0.950 . S
C682 C678 1.385 . S
C682 C681 1.374 . S
C683 C680 1.499 . S
C683 C684 1.373 . S
C683 C685 1.389 . S
C684 H657 0.950 . S
C684 C670 1.377 . S
C684 C683 1.373 . S
C685 C669 1.377 . S
C685 C683 1.389 . S
C685 C686 1.524 . S
C686 C685 1.524 . S
C686 C687 1.397 . S
C686 C691 1.363 . S
C687 H658 0.950 . S
C687 C686 1.397 . S
C687 C688 1.334 . S
C688 H659 0.950 . S
C688 C687 1.334 . S
C688 C689 1.287 . S
C689 C688 1.287 . S
C689 C690 1.524 . S
C689 H692 0.999 . S
C690 H660 0.950 . S
C690 C689 1.524 . S
C690 C691 1.415 . S
C691 H661 0.950 . S
C691 C686 1.363 . S
C691 C690 1.415 . S
H692 C689 0.999 . S
H693 C674 0.913 . S
H694 C712 0.951 . S
H695 C714 0.951 . S
H696 C716 0.950 . S
H697 C717 0.950 . S
H698 C719 0.950 . S
H699 C722 0.950 . S
H700 C723 0.950 . S
H701 C725 0.950 . S
H702 C726 0.950 . S
H703 C727 0.951 . S
H704 C729 0.951 . S
H705 C731 0.950 . S
H706 C732 0.950 . S
H707 C734 0.950 . S
H708 C737 0.950 . S
H709 C738 0.950 . S
H710 C740 0.950 . S
H711 C741 0.950 . S
C712 H694 0.951 . S
C712 C713 1.366 . S
C712 C714 1.388 . S
C713 C712 1.366 . S
C713 C717 1.385 . S
C714 H695 0.951 . S
C714 C712 1.388 . S
C714 C715 1.366 . S
C715 C714 1.366 . S
C715 C716 1.414 . S
C715 C718 1.499 . S
C716 H696 0.950 . S
C716 C715 1.414 . S
C716 C717 1.374 . S
C717 H697 0.950 . S
C717 C713 1.385 . S
C717 C716 1.374 . S
C718 C715 1.499 . S
C718 C719 1.373 . S
C718 C720 1.389 . S
C719 H698 0.950 . S
C719 C718 1.373 . S
C719 C735 1.377 . S
C720 C718 1.389 . S
C720 C721 1.524 . S
C720 C734 1.377 . S
C721 C720 1.524 . S
C721 C722 1.397 . S
C721 C726 1.363 . S
C722 H699 0.950 . S
C722 C721 1.397 . S
C722 C723 1.334 . S
C723 H700 0.950 . S
C723 C722 1.334 . S
C723 C724 1.287 . S
C724 C723 1.287 . S
C724 C725 1.524 . S
C724 H743 0.913 . S
C725 H701 0.950 . S
C725 C724 1.524 . S
C725 C726 1.415 . S
C726 H702 0.950 . S
C726 C721 1.363 . S
C726 C725 1.415 . S
C727 H703 0.951 . S
C727 C728 1.366 . S
C727 C729 1.388 . S
C728 C727 1.366 . S
C728 C732 1.385 . S
C729 H704 0.951 . S
C729 C727 1.388 . S
C729 C730 1.366 . S
C730 C729 1.366 . S
C730 C731 1.414 . S
C730 C733 1.499 . S
C731 H705 0.950 . S
C731 C730 1.414 . S
C731 C732 1.374 . S
C732 H706 0.950 . S
C732 C728 1.385 . S
C732 C731 1.374 . S
C733 C730 1.499 . S
C733 C734 1.373 . S
C733 C735 1.389 . S
C734 H707 0.950 . S
C734 C720 1.377 . S
C734 C733 1.373 . S
C735 C719 1.377 . S
C735 C733 1.389 . S
C735 C736 1.524 . S
C736 C735 1.524 . S
C736 C737 1.397 . S
C736 C741 1.363 . S
C737 H708 0.950 . S
C737 C736 1.397 . S
C737 C738 1.334 . S
C738 H709 0.950 . S
C738 C737 1.334 . S
C738 C739 1.287 . S
C739 C738 1.287 . S
C739 C740 1.524 . S
C739 H742 0.999 . S
C740 H710 0.950 . S
C740 C739 1.524 . S
C740 C741 1.415 . S
C741 H711 0.950 . S
C741 C736 1.363 . S
C741 C740 1.415 . S
H742 C739 0.999 . S
H743 C724 0.913 . S
H744 C762 0.951 . S
H745 C764 0.951 . S
H746 C766 0.950 . S
H747 C767 0.950 . S
H748 C769 0.950 . S
H749 C772 0.950 . S
H750 C773 0.950 . S
H751 C775 0.950 . S
H752 C776 0.950 . S
H753 C777 0.951 . S
H754 C779 0.951 . S
H755 C781 0.950 . S
H756 C782 0.950 . S
H757 C784 0.950 . S
H758 C787 0.950 . S
H759 C788 0.950 . S
H760 C790 0.950 . S
H761 C791 0.950 . S
C762 H744 0.951 . S
C762 C763 1.366 . S
C762 C764 1.388 . S
C763 C762 1.366 . S
C763 C767 1.385 . S
C764 H745 0.951 . S
C764 C762 1.388 . S
C764 C765 1.366 . S
C765 C764 1.366 . S
C765 C766 1.414 . S
C765 C768 1.499 . S
C766 H746 0.950 . S
C766 C765 1.414 . S
C766 C767 1.374 . S
C767 H747 0.950 . S
C767 C763 1.385 . S
C767 C766 1.374 . S
C768 C765 1.499 . S
C768 C769 1.373 . S
C768 C770 1.389 . S
C769 H748 0.950 . S
C769 C768 1.373 . S
C769 C785 1.377 . S
C770 C768 1.389 . S
C770 C771 1.524 . S
C770 C784 1.377 . S
C771 C770 1.524 . S
C771 C772 1.397 . S
C771 C776 1.363 . S
C772 H749 0.950 . S
C772 C771 1.397 . S
C772 C773 1.334 1_556 S
C773 H750 0.950 . S
C773 C772 1.334 1_554 S
C773 C774 1.287 . S
C774 C773 1.287 . S
C774 C775 1.524 . S
C774 H793 0.913 . S
C775 H751 0.950 . S
C775 C774 1.524 . S
C775 C776 1.415 1_554 S
C776 H752 0.950 . S
C776 C771 1.363 . S
C776 C775 1.415 1_556 S
C777 H753 0.951 . S
C777 C778 1.366 . S
C777 C779 1.388 . S
C778 C777 1.366 . S
C778 C782 1.385 . S
C779 H754 0.951 . S
C779 C777 1.388 . S
C779 C780 1.366 . S
C780 C779 1.366 . S
C780 C781 1.414 . S
C780 C783 1.499 . S
C781 H755 0.950 . S
C781 C780 1.414 . S
C781 C782 1.374 . S
C782 H756 0.950 . S
C782 C778 1.385 . S
C782 C781 1.374 . S
C783 C780 1.499 . S
C783 C784 1.373 . S
C783 C785 1.389 . S
C784 H757 0.950 . S
C784 C770 1.377 . S
C784 C783 1.373 . S
C785 C769 1.377 . S
C785 C783 1.389 . S
C785 C786 1.524 . S
C786 C785 1.524 . S
C786 C787 1.397 . S
C786 C791 1.363 . S
C787 H758 0.950 . S
C787 C786 1.397 . S
C787 C788 1.334 . S
C788 H759 0.950 . S
C788 C787 1.334 . S
C788 C789 1.287 . S
C789 C788 1.287 . S
C789 C790 1.524 . S
C789 H792 0.999 . S
C790 H760 0.950 . S
C790 C789 1.524 . S
C790 C791 1.415 . S
C791 H761 0.950 . S
C791 C786 1.363 . S
C791 C790 1.415 . S
H792 C789 0.999 . S
H793 C774 0.913 . S
H794 C812 0.951 . S
H795 C814 0.951 . S
H796 C816 0.950 . S
H797 C817 0.950 . S
H798 C819 0.950 . S
H799 C822 0.950 . S
H800 C823 0.950 . S
H801 C825 0.950 . S
H802 C826 0.950 . S
H803 C827 0.951 . S
H804 C829 0.951 . S
H805 C831 0.950 . S
H806 C832 0.950 . S
H807 C834 0.950 . S
H808 C837 0.950 . S
H809 C838 0.950 . S
H810 C840 0.950 . S
H811 C841 0.950 . S
C812 H794 0.951 . S
C812 C813 1.366 . S
C812 C814 1.388 . S
C813 C812 1.366 . S
C813 C817 1.385 . S
C814 H795 0.951 . S
C814 C812 1.388 . S
C814 C815 1.366 . S
C815 C814 1.366 . S
C815 C816 1.414 . S
C815 C818 1.499 . S
C816 H796 0.950 . S
C816 C815 1.414 . S
C816 C817 1.374 . S
C817 H797 0.950 . S
C817 C813 1.385 . S
C817 C816 1.374 . S
C818 C815 1.499 . S
C818 C819 1.373 . S
C818 C820 1.389 . S
C819 H798 0.950 . S
C819 C818 1.373 . S
C819 C835 1.377 . S
C820 C818 1.389 . S
C820 C821 1.524 . S
C820 C834 1.377 . S
C821 C820 1.524 . S
C821 C822 1.397 . S
C821 C826 1.363 . S
C822 H799 0.950 . S
C822 C821 1.397 . S
C822 C823 1.334 . S
C823 H800 0.950 . S
C823 C822 1.334 . S
C823 C824 1.287 . S
C824 C823 1.287 . S
C824 C825 1.524 . S
C824 H843 0.913 . S
C825 H801 0.950 . S
C825 C824 1.524 . S
C825 C826 1.415 . S
C826 H802 0.950 . S
C826 C821 1.363 . S
C826 C825 1.415 . S
C827 H803 0.951 . S
C827 C828 1.366 . S
C827 C829 1.388 . S
C828 C827 1.366 . S
C828 C832 1.385 . S
C829 H804 0.951 . S
C829 C827 1.388 . S
C829 C830 1.366 . S
C830 C829 1.366 . S
C830 C831 1.414 . S
C830 C833 1.499 . S
C831 H805 0.950 . S
C831 C830 1.414 . S
C831 C832 1.374 . S
C832 H806 0.950 . S
C832 C828 1.385 . S
C832 C831 1.374 . S
C833 C830 1.499 . S
C833 C834 1.373 . S
C833 C835 1.389 . S
C834 H807 0.950 . S
C834 C820 1.377 . S
C834 C833 1.373 . S
C835 C819 1.377 . S
C835 C833 1.389 . S
C835 C836 1.524 . S
C836 C835 1.524 . S
C836 C837 1.397 . S
C836 C841 1.363 . S
C837 H808 0.950 . S
C837 C836 1.397 . S
C837 C838 1.334 . S
C838 H809 0.950 . S
C838 C837 1.334 . S
C838 C839 1.287 . S
C839 C838 1.287 . S
C839 C840 1.524 . S
C839 H842 0.999 . S
C840 H810 0.950 . S
C840 C839 1.524 . S
C840 C841 1.415 . S
C841 H811 0.950 . S
C841 C836 1.363 . S
C841 C840 1.415 . S
H842 C839 0.999 . S
H843 C824 0.913 . S
H844 C862 0.951 . S
H845 C864 0.951 . S
H846 C866 0.950 . S
H847 C867 0.950 . S
H848 C869 0.950 . S
H849 C872 0.950 . S
H850 C873 0.950 . S
H851 C875 0.950 . S
H852 C876 0.950 . S
H853 C877 0.951 . S
H854 C879 0.951 . S
H855 C881 0.950 . S
H856 C882 0.950 . S
H857 C884 0.950 . S
H858 C887 0.950 . S
H859 C888 0.950 . S
H860 C890 0.950 . S
H861 C891 0.950 . S
C862 H844 0.951 . S
C862 C863 1.366 . S
C862 C864 1.388 . S
C863 C862 1.366 . S
C863 C867 1.385 . S
C864 H845 0.951 . S
C864 C862 1.388 . S
C864 C865 1.366 . S
C865 C864 1.366 . S
C865 C866 1.414 . S
C865 C868 1.499 . S
C866 H846 0.950 . S
C866 C865 1.414 . S
C866 C867 1.374 . S
C867 H847 0.950 . S
C867 C863 1.385 . S
C867 C866 1.374 . S
C868 C865 1.499 . S
C868 C869 1.373 . S
C868 C870 1.389 . S
C869 H848 0.950 . S
C869 C868 1.373 . S
C869 C885 1.377 . S
C870 C868 1.389 . S
C870 C871 1.524 . S
C870 C884 1.377 . S
C871 C870 1.524 . S
C871 C872 1.397 . S
C871 C876 1.363 . S
C872 H849 0.950 . S
C872 C871 1.397 . S
C872 C873 1.334 . S
C873 H850 0.950 . S
C873 C872 1.334 . S
C873 C874 1.287 . S
C874 C873 1.287 . S
C874 C875 1.524 . S
C874 H893 0.913 . S
C875 H851 0.950 . S
C875 C874 1.524 . S
C875 C876 1.415 . S
C876 H852 0.950 . S
C876 C871 1.363 . S
C876 C875 1.415 . S
C877 H853 0.951 . S
C877 C878 1.366 . S
C877 C879 1.388 . S
C878 C877 1.366 . S
C878 C882 1.385 . S
C879 H854 0.951 . S
C879 C877 1.388 . S
C879 C880 1.366 . S
C880 C879 1.366 . S
C880 C881 1.414 . S
C880 C883 1.499 . S
C881 H855 0.950 . S
C881 C880 1.414 . S
C881 C882 1.374 . S
C882 H856 0.950 . S
C882 C878 1.385 . S
C882 C881 1.374 . S
C883 C880 1.499 . S
C883 C884 1.373 . S
C883 C885 1.389 . S
C884 H857 0.950 . S
C884 C870 1.377 . S
C884 C883 1.373 . S
C885 C869 1.377 . S
C885 C883 1.389 . S
C885 C886 1.524 . S
C886 C885 1.524 . S
C886 C887 1.397 . S
C886 C891 1.363 . S
C887 H858 0.950 . S
C887 C886 1.397 . S
C887 C888 1.334 . S
C888 H859 0.950 . S
C888 C887 1.334 . S
C888 C889 1.287 . S
C889 C888 1.287 . S
C889 C890 1.524 . S
C889 H892 0.999 . S
C890 H860 0.950 . S
C890 C889 1.524 . S
C890 C891 1.415 . S
C891 H861 0.950 . S
C891 C886 1.363 . S
C891 C890 1.415 . S
H892 C889 0.999 . S
H893 C874 0.913 . S
H894 C912 0.951 . S
H895 C914 0.951 . S
H896 C916 0.950 . S
H897 C917 0.950 . S
H898 C919 0.950 . S
H899 C922 0.950 . S
H900 C923 0.950 . S
H901 C925 0.950 . S
H902 C926 0.950 . S
H903 C927 0.951 . S
H904 C929 0.951 . S
H905 C931 0.950 . S
H906 C932 0.950 . S
H907 C934 0.950 . S
H908 C937 0.950 . S
H909 C938 0.950 . S
H910 C940 0.950 . S
H911 C941 0.950 . S
C912 H894 0.951 . S
C912 C913 1.366 . S
C912 C914 1.388 . S
C913 C912 1.366 . S
C913 C917 1.385 . S
C914 H895 0.951 . S
C914 C912 1.388 . S
C914 C915 1.366 . S
C915 C914 1.366 . S
C915 C916 1.414 . S
C915 C918 1.499 . S
C916 H896 0.950 . S
C916 C915 1.414 . S
C916 C917 1.374 . S
C917 H897 0.950 . S
C917 C913 1.385 . S
C917 C916 1.374 . S
C918 C915 1.499 . S
C918 C919 1.373 . S
C918 C920 1.389 . S
C919 H898 0.950 . S
C919 C918 1.373 . S
C919 C935 1.377 . S
C920 C918 1.389 . S
C920 C921 1.524 . S
C920 C934 1.377 . S
C921 C920 1.524 . S
C921 C922 1.397 . S
C921 C926 1.363 . S
C922 H899 0.950 . S
C922 C921 1.397 . S
C922 C923 1.334 . S
C923 H900 0.950 . S
C923 C922 1.334 . S
C923 C924 1.287 . S
C924 C923 1.287 . S
C924 C925 1.524 . S
C924 H943 0.913 . S
C925 H901 0.950 . S
C925 C924 1.524 . S
C925 C926 1.415 . S
C926 H902 0.950 . S
C926 C921 1.363 . S
C926 C925 1.415 . S
C927 H903 0.951 . S
C927 C928 1.366 . S
C927 C929 1.388 . S
C928 C927 1.366 . S
C928 C932 1.385 . S
C929 H904 0.951 . S
C929 C927 1.388 . S
C929 C930 1.366 . S
C930 C929 1.366 . S
C930 C931 1.414 . S
C930 C933 1.499 . S
C931 H905 0.950 . S
C931 C930 1.414 . S
C931 C932 1.374 . S
C932 H906 0.950 . S
C932 C928 1.385 . S
C932 C931 1.374 . S
C933 C930 1.499 . S
C933 C934 1.373 . S
C933 C935 1.389 . S
C934 H907 0.950 . S
C934 C920 1.377 . S
C934 C933 1.373 . S
C935 C919 1.377 . S
C935 C933 1.389 . S
C935 C936 1.524 . S
C936 C935 1.524 . S
C936 C937 1.397 . S
C936 C941 1.363 . S
C937 H908 0.950 . S
C937 C936 1.397 . S
C937 C938 1.334 . S
C938 H909 0.950 . S
C938 C937 1.334 . S
C938 C939 1.287 . S
C939 C938 1.287 . S
C939 C940 1.524 . S
C939 H942 0.999 . S
C940 H910 0.950 . S
C940 C939 1.524 . S
C940 C941 1.415 . S
C941 H911 0.950 . S
C941 C936 1.363 . S
C941 C940 1.415 . S
H942 C939 0.999 . S
H943 C924 0.913 . S
H944 C962 0.951 . S
H945 C964 0.951 . S
H946 C966 0.950 . S
H947 C967 0.950 . S
H948 C969 0.950 . S
H949 C972 0.950 . S
H950 C973 0.950 . S
H951 C975 0.950 . S
H952 C976 0.950 . S
H953 C977 0.951 . S
H954 C979 0.951 . S
H955 C981 0.950 . S
H956 C982 0.950 . S
H957 C984 0.950 . S
H958 C987 0.950 . S
H959 C988 0.950 . S
H960 C990 0.950 . S
H961 C991 0.950 . S
C962 H944 0.951 . S
C962 C963 1.366 . S
C962 C964 1.388 . S
C963 C962 1.366 . S
C963 C967 1.385 . S
C964 H945 0.951 . S
C964 C962 1.388 . S
C964 C965 1.339 1_565 S
C965 C964 1.339 1_545 S
C965 C966 1.418 . S
C965 C968 1.523 . S
C966 H946 0.950 . S
C966 C965 1.418 . S
C966 C967 1.374 1_545 S
C967 H947 0.950 . S
C967 C963 1.385 . S
C967 C966 1.374 1_565 S
C968 C965 1.523 . S
C968 C969 1.373 . S
C968 C970 1.389 . S
C969 H948 0.950 . S
C969 C968 1.373 . S
C969 C985 1.377 . S
C970 C968 1.389 . S
C970 C971 1.524 1_545 S
C970 C984 1.377 . S
C971 C970 1.524 1_565 S
C971 C972 1.397 . S
C971 C976 1.363 . S
C972 H949 0.950 . S
C972 C971 1.397 . S
C972 C973 1.334 . S
C973 H950 0.950 . S
C973 C972 1.334 . S
C973 C974 1.287 . S
C974 C973 1.287 . S
C974 C975 1.524 . S
C974 H993 0.913 . S
C975 H951 0.950 . S
C975 C974 1.524 . S
C975 C976 1.415 . S
C976 H952 0.950 . S
C976 C971 1.363 . S
C976 C975 1.415 . S
C977 H953 0.951 . S
C977 C978 1.366 . S
C977 C979 1.388 . S
C978 C977 1.366 . S
C978 C982 1.385 . S
C979 H954 0.951 . S
C979 C977 1.388 . S
C979 C980 1.366 . S
C980 C979 1.366 . S
C980 C981 1.414 . S
C980 C983 1.499 . S
C981 H955 0.950 . S
C981 C980 1.414 . S
C981 C982 1.374 . S
C982 H956 0.950 . S
C982 C978 1.385 . S
C982 C981 1.374 . S
C983 C980 1.499 . S
C983 C984 1.373 . S
C983 C985 1.389 . S
C984 H957 0.950 . S
C984 C970 1.377 . S
C984 C983 1.373 . S
C985 C969 1.377 . S
C985 C983 1.389 . S
C985 C986 1.524 . S
C986 C985 1.524 . S
C986 C987 1.397 . S
C986 C991 1.363 . S
C987 H958 0.950 . S
C987 C986 1.397 . S
C987 C988 1.334 . S
C988 H959 0.950 . S
C988 C987 1.334 . S
C988 C989 1.287 . S
C989 C988 1.287 . S
C989 C990 1.524 . S
C989 H992 0.999 . S
C990 H960 0.950 . S
C990 C989 1.524 . S
C990 C991 1.415 . S
C991 H961 0.950 . S
C991 C986 1.363 . S
C991 C990 1.415 . S
H992 C989 0.999 . S
H993 C974 0.913 . S
H994 C1012 0.951 . S
H995 C1014 0.951 . S
H996 C1016 0.950 . S
H997 C1017 0.950 . S
H998 C1019 0.950 . S
H999 C1022 0.950 . S
H1000 C1023 0.950 . S
H1001 C1025 0.950 1_545 S
H1002 C1026 0.950 . S
H1003 C1027 0.951 . S
H1004 C1029 0.951 . S
H1005 C1031 0.950 . S
H1006 C1032 0.950 . S
H1007 C1034 0.950 . S
H1008 C1037 0.950 . S
H1009 C1038 0.950 . S
H1010 C1040 0.950 . S
H1011 C1041 0.950 . S
C1012 H994 0.951 . S
C1012 C1013 1.366 . S
C1012 C1014 1.388 . S
C1013 C1012 1.366 . S
C1013 C1017 1.385 . S
C1014 H995 0.951 . S
C1014 C1012 1.388 . S
C1014 C1015 1.366 1_545 S
C1015 C1014 1.366 1_565 S
C1015 C1016 1.414 . S
C1015 C1018 1.499 . S
C1016 H996 0.950 . S
C1016 C1015 1.414 . S
C1016 C1017 1.374 1_565 S
C1017 H997 0.950 . S
C1017 C1013 1.385 . S
C1017 C1016 1.374 1_545 S
C1018 C1015 1.499 . S
C1018 C1019 1.373 . S
C1018 C1020 1.389 . S
C1019 H998 0.950 . S
C1019 C1018 1.373 . S
C1019 C1035 1.377 . S
C1020 C1018 1.389 . S
C1020 C1021 1.524 . S
C1020 C1034 1.377 . S
C1021 C1020 1.524 . S
C1021 C1022 1.397 . S
C1021 C1026 1.363 . S
C1022 H999 0.950 . S
C1022 C1021 1.397 . S
C1022 C1023 1.334 . S
C1023 H1000 0.950 . S
C1023 C1022 1.334 . S
C1023 C1024 1.287 . S
C1024 C1023 1.287 . S
C1024 C1025 1.524 . S
C1024 H1043 0.913 . S
C1025 H1001 0.950 1_565 S
C1025 C1024 1.524 . S
C1025 C1026 1.415 . S
C1026 H1002 0.950 . S
C1026 C1021 1.363 . S
C1026 C1025 1.415 . S
C1027 H1003 0.951 . S
C1027 C1028 1.366 . S
C1027 C1029 1.388 . S
C1028 C1027 1.366 . S
C1028 C1032 1.385 . S
C1029 H1004 0.951 . S
C1029 C1027 1.388 . S
C1029 C1030 1.366 . S
C1030 C1029 1.366 . S
C1030 C1031 1.414 . S
C1030 C1033 1.499 . S
C1031 H1005 0.950 . S
C1031 C1030 1.414 . S
C1031 C1032 1.374 . S
C1032 H1006 0.950 . S
C1032 C1028 1.385 . S
C1032 C1031 1.374 . S
C1033 C1030 1.499 . S
C1033 C1034 1.373 . S
C1033 C1035 1.389 . S
C1034 H1007 0.950 . S
C1034 C1020 1.377 . S
C1034 C1033 1.373 . S
C1035 C1019 1.377 . S
C1035 C1033 1.389 . S
C1035 C1036 1.524 . S
C1036 C1035 1.524 . S
C1036 C1037 1.397 . S
C1036 C1041 1.363 . S
C1037 H1008 0.950 . S
C1037 C1036 1.397 . S
C1037 C1038 1.334 . S
C1038 H1009 0.950 . S
C1038 C1037 1.334 . S
C1038 C1039 1.287 . S
C1039 C1038 1.287 . S
C1039 C1040 1.524 . S
C1039 H1042 0.999 . S
C1040 H1010 0.950 . S
C1040 C1039 1.524 . S
C1040 C1041 1.415 . S
C1041 H1011 0.950 . S
C1041 C1036 1.363 . S
C1041 C1040 1.415 . S
H1042 C1039 0.999 . S
H1043 C1024 0.913 . S
H1044 C1062 0.951 . S
H1045 C1064 0.951 . S
H1046 C1066 0.950 . S
H1047 C1067 0.950 . S
H1048 C1069 0.950 . S
H1049 C1072 0.950 . S
H1050 C1073 0.950 . S
H1051 C1075 0.950 1_554 S
H1052 C1076 0.950 . S
H1053 C1077 0.951 . S
H1054 C1079 0.951 . S
H1055 C1081 0.950 . S
H1056 C1082 0.950 . S
H1057 C1084 0.950 . S
H1058 C1087 0.950 . S
H1059 C1088 0.950 . S
H1060 C1090 0.950 . S
H1061 C1091 0.950 . S
C1062 H1044 0.951 . S
C1062 C1063 1.366 . S
C1062 C1064 1.388 1_565 S
C1063 C1062 1.366 . S
C1063 C1067 1.385 . S
C1064 H1045 0.951 . S
C1064 C1062 1.388 1_545 S
C1064 C1065 1.366 . S
C1065 C1064 1.366 . S
C1065 C1066 1.414 1_545 S
C1065 C1068 1.499 . S
C1066 H1046 0.950 . S
C1066 C1065 1.414 1_565 S
C1066 C1067 1.374 . S
C1067 H1047 0.950 . S
C1067 C1063 1.385 . S
C1067 C1066 1.374 . S
C1068 C1065 1.499 . S
C1068 C1069 1.373 . S
C1068 C1070 1.389 . S
C1069 H1048 0.950 . S
C1069 C1068 1.373 . S
C1069 C1085 1.377 . S
C1070 C1068 1.389 . S
C1070 C1071 1.524 . S
C1070 C1084 1.377 . S
C1071 C1070 1.524 . S
C1071 C1072 1.397 1_545 S
C1071 C1076 1.363 . S
C1072 H1049 0.950 . S
C1072 C1071 1.397 1_565 S
C1072 C1073 1.334 . S
C1073 H1050 0.950 . S
C1073 C1072 1.334 . S
C1073 C1074 1.287 . S
C1074 C1073 1.287 . S
C1074 C1075 1.524 1_565 S
C1074 H1093 0.913 1_556 S
C1075 H1051 0.950 1_556 S
C1075 C1074 1.524 1_545 S
C1075 C1076 1.415 . S
C1076 H1052 0.950 . S
C1076 C1071 1.363 . S
C1076 C1075 1.415 . S
C1077 H1053 0.951 . S
C1077 C1078 1.366 . S
C1077 C1079 1.388 . S
C1078 C1077 1.366 . S
C1078 C1082 1.385 . S
C1079 H1054 0.951 . S
C1079 C1077 1.388 . S
C1079 C1080 1.366 . S
C1080 C1079 1.366 . S
C1080 C1081 1.414 . S
C1080 C1083 1.499 . S
C1081 H1055 0.950 . S
C1081 C1080 1.414 . S
C1081 C1082 1.374 . S
C1082 H1056 0.950 . S
C1082 C1078 1.385 . S
C1082 C1081 1.374 . S
C1083 C1080 1.499 . S
C1083 C1084 1.373 . S
C1083 C1085 1.389 . S
C1084 H1057 0.950 . S
C1084 C1070 1.377 . S
C1084 C1083 1.373 . S
C1085 C1069 1.377 . S
C1085 C1083 1.389 . S
C1085 C1086 1.524 . S
C1086 C1085 1.524 . S
C1086 C1087 1.397 . S
C1086 C1091 1.363 . S
C1087 H1058 0.950 . S
C1087 C1086 1.397 . S
C1087 C1088 1.334 . S
C1088 H1059 0.950 . S
C1088 C1087 1.334 . S
C1088 C1089 1.287 . S
C1089 C1088 1.287 . S
C1089 C1090 1.524 . S
C1089 H1092 0.999 . S
C1090 H1060 0.950 . S
C1090 C1089 1.524 . S
C1090 C1091 1.415 . S
C1091 H1061 0.950 . S
C1091 C1086 1.363 . S
C1091 C1090 1.415 . S
H1092 C1089 0.999 . S
H1093 C1074 0.913 1_554 S
H1094 C1112 0.951 . S
H1095 C1114 0.951 . S
H1096 C1116 0.950 . S
H1097 C1117 0.950 . S
H1098 C1119 0.955 . S
H1099 C1122 0.950 . S
H1100 C1123 0.950 . S
H1101 C1125 0.950 . S
H1102 C1126 0.950 . S
H1103 C1127 0.951 . S
H1104 C1129 0.951 . S
H1105 C1131 0.950 . S
H1106 C1132 0.950 . S
H1107 C1134 0.950 . S
H1108 C1137 0.950 . S
H1109 C1138 0.950 . S
H1110 C1140 0.950 . S
H1111 C1141 0.950 . S
C1112 H1094 0.951 . S
C1112 C1113 1.366 . S
C1112 C1114 1.388 1_545 S
C1113 C1112 1.366 . S
C1113 C1117 1.385 . S
C1114 H1095 0.951 . S
C1114 C1112 1.388 1_565 S
C1114 C1115 1.366 . S
C1115 C1114 1.366 . S
C1115 C1116 1.414 1_565 S
C1115 C1118 1.499 . S
C1116 H1096 0.950 . S
C1116 C1115 1.414 1_545 S
C1116 C1117 1.374 . S
C1117 H1097 0.950 . S
C1117 C1113 1.385 . S
C1117 C1116 1.374 . S
C1118 C1115 1.499 . S
C1118 C1119 1.373 . S
C1118 C1120 1.389 . S
C1119 H1098 0.955 . S
C1119 C1118 1.373 . S
C1119 C1135 1.377 . S
C1120 C1118 1.389 . S
C1120 C1121 1.524 . S
C1120 C1134 1.377 . S
C1121 C1120 1.524 . S
C1121 C1122 1.397 . S
C1121 C1126 1.363 . S
C1122 H1099 0.950 . S
C1122 C1121 1.397 . S
C1122 C1123 1.334 . S
C1123 H1100 0.950 . S
C1123 C1122 1.334 . S
C1123 C1124 1.287 . S
C1124 C1123 1.287 . S
C1124 C1125 1.524 . S
C1124 H1143 0.913 . S
C1125 H1101 0.950 . S
C1125 C1124 1.524 . S
C1125 C1126 1.415 . S
C1126 H1102 0.950 . S
C1126 C1121 1.363 . S
C1126 C1125 1.415 . S
C1127 H1103 0.951 . S
C1127 C1128 1.366 . S
C1127 C1129 1.388 . S
C1128 C1127 1.366 . S
C1128 C1132 1.385 . S
C1129 H1104 0.951 . S
C1129 C1127 1.388 . S
C1129 C1130 1.366 . S
C1130 C1129 1.366 . S
C1130 C1131 1.414 . S
C1130 C1133 1.499 . S
C1131 H1105 0.950 . S
C1131 C1130 1.414 . S
C1131 C1132 1.374 . S
C1132 H1106 0.950 . S
C1132 C1128 1.385 . S
C1132 C1131 1.374 . S
C1133 C1130 1.499 . S
C1133 C1134 1.373 . S
C1133 C1135 1.389 . S
C1134 H1107 0.950 . S
C1134 C1120 1.377 . S
C1134 C1133 1.373 . S
C1135 C1119 1.377 . S
C1135 C1133 1.389 . S
C1135 C1136 1.524 . S
C1136 C1135 1.524 . S
C1136 C1137 1.397 . S
C1136 C1141 1.363 . S
C1137 H1108 0.950 . S
C1137 C1136 1.397 . S
C1137 C1138 1.334 . S
C1138 H1109 0.950 . S
C1138 C1137 1.334 . S
C1138 C1139 1.287 . S
C1139 C1138 1.287 . S
C1139 C1140 1.524 1_565 S
C1139 H1142 0.999 1_565 S
C1140 H1110 0.950 . S
C1140 C1139 1.524 1_545 S
C1140 C1141 1.415 1_545 S
C1141 H1111 0.950 . S
C1141 C1136 1.363 . S
C1141 C1140 1.415 1_565 S
H1142 C1139 0.999 1_545 S
H1143 C1124 0.913 . S
H1144 C1162 0.951 . S
H1145 C1164 0.951 . S
H1146 C1166 0.950 . S
H1147 C1167 0.950 . S
H1148 C1169 0.950 . S
H1149 C1172 0.950 . S
H1150 C1173 0.950 . S
H1151 C1175 0.950 . S
H1152 C1176 0.950 . S
H1153 C1177 0.951 . S
H1154 C1179 0.951 . S
H1155 C1181 0.950 . S
H1156 C1182 0.950 . S
H1157 C1184 0.950 . S
H1158 C1187 0.950 . S
H1159 C1188 0.950 . S
H1160 C1190 0.950 . S
H1161 C1191 0.950 . S
C1162 H1144 0.951 . S
C1162 C1163 1.366 . S
C1162 C1164 1.388 . S
C1163 C1162 1.366 . S
C1163 C1167 1.385 . S
C1164 H1145 0.951 . S
C1164 C1162 1.388 . S
C1164 C1165 1.366 . S
C1165 C1164 1.366 . S
C1165 C1166 1.414 . S
C1165 C1168 1.499 . S
C1166 H1146 0.950 . S
C1166 C1165 1.414 . S
C1166 C1167 1.374 . S
C1167 H1147 0.950 . S
C1167 C1163 1.385 . S
C1167 C1166 1.374 . S
C1168 C1165 1.499 . S
C1168 C1169 1.373 . S
C1168 C1170 1.389 . S
C1169 H1148 0.950 . S
C1169 C1168 1.373 . S
C1169 C1185 1.377 . S
C1170 C1168 1.389 . S
C1170 C1171 1.524 . S
C1170 C1184 1.377 . S
C1171 C1170 1.524 . S
C1171 C1172 1.397 . S
C1171 C1176 1.363 . S
C1172 H1149 0.950 . S
C1172 C1171 1.397 . S
C1172 C1173 1.334 . S
C1173 H1150 0.950 . S
C1173 C1172 1.334 . S
C1173 C1174 1.287 . S
C1174 C1173 1.287 . S
C1174 C1175 1.524 . S
C1174 H1193 0.913 . S
C1175 H1151 0.950 . S
C1175 C1174 1.524 . S
C1175 C1176 1.415 . S
C1176 H1152 0.950 . S
C1176 C1171 1.363 . S
C1176 C1175 1.415 . S
C1177 H1153 0.951 . S
C1177 C1178 1.366 . S
C1177 C1179 1.388 . S
C1178 C1177 1.366 . S
C1178 C1182 1.385 . S
C1179 H1154 0.951 . S
C1179 C1177 1.388 . S
C1179 C1180 1.366 . S
C1180 C1179 1.366 . S
C1180 C1181 1.414 . S
C1180 C1183 1.499 . S
C1181 H1155 0.950 . S
C1181 C1180 1.414 . S
C1181 C1182 1.374 . S
C1182 H1156 0.950 . S
C1182 C1178 1.385 . S
C1182 C1181 1.374 . S
C1183 C1180 1.499 . S
C1183 C1184 1.373 . S
C1183 C1185 1.389 . S
C1184 H1157 0.950 . S
C1184 C1170 1.377 . S
C1184 C1183 1.373 . S
C1185 C1169 1.377 . S
C1185 C1183 1.389 . S
C1185 C1186 1.524 . S
C1186 C1185 1.524 . S
C1186 C1187 1.397 . S
C1186 C1191 1.363 . S
C1187 H1158 0.950 . S
C1187 C1186 1.397 . S
C1187 C1188 1.334 . S
C1188 H1159 0.950 . S
C1188 C1187 1.334 . S
C1188 C1189 1.287 . S
C1189 C1188 1.287 . S
C1189 C1190 1.524 . S
C1189 H1192 0.999 . S
C1190 H1160 0.950 . S
C1190 C1189 1.524 . S
C1190 C1191 1.415 . S
C1191 H1161 0.950 . S
C1191 C1186 1.363 . S
C1191 C1190 1.415 . S
H1192 C1189 0.999 . S
H1193 C1174 0.913 . S
H1194 C1212 0.951 . S
H1195 C1214 0.951 . S
H1196 C1216 0.950 . S
H1197 C1217 0.950 . S
H1198 C1219 0.950 . S
H1199 C1222 0.950 . S
H1200 C1223 0.950 . S
H1201 C1225 0.950 . S
H1202 C1226 0.950 . S
H1203 C1227 0.951 . S
H1204 C1229 0.951 . S
H1205 C1231 0.950 . S
H1206 C1232 0.950 . S
H1207 C1234 0.950 . S
H1208 C1237 0.950 . S
H1209 C1238 0.950 . S
H1210 C1240 0.950 . S
H1211 C1241 0.950 . S
C1212 H1194 0.951 . S
C1212 C1213 1.366 . S
C1212 C1214 1.388 . S
C1213 C1212 1.366 . S
C1213 C1217 1.385 . S
C1214 H1195 0.951 . S
C1214 C1212 1.388 . S
C1214 C1215 1.366 . S
C1215 C1214 1.366 . S
C1215 C1216 1.414 . S
C1215 C1218 1.499 . S
C1216 H1196 0.950 . S
C1216 C1215 1.414 . S
C1216 C1217 1.374 . S
C1217 H1197 0.950 . S
C1217 C1213 1.385 . S
C1217 C1216 1.374 . S
C1218 C1215 1.499 . S
C1218 C1219 1.373 . S
C1218 C1220 1.389 . S
C1219 H1198 0.950 . S
C1219 C1218 1.373 . S
C1219 C1235 1.377 . S
C1220 C1218 1.389 . S
C1220 C1221 1.524 . S
C1220 C1234 1.377 . S
C1221 C1220 1.524 . S
C1221 C1222 1.397 . S
C1221 C1226 1.363 . S
C1222 H1199 0.950 . S
C1222 C1221 1.397 . S
C1222 C1223 1.334 . S
C1223 H1200 0.950 . S
C1223 C1222 1.334 . S
C1223 C1224 1.287 . S
C1224 C1223 1.287 . S
C1224 C1225 1.524 . S
C1224 H1243 0.913 . S
C1225 H1201 0.950 . S
C1225 C1224 1.524 . S
C1225 C1226 1.415 . S
C1226 H1202 0.950 . S
C1226 C1221 1.363 . S
C1226 C1225 1.415 . S
C1227 H1203 0.951 . S
C1227 C1228 1.366 . S
C1227 C1229 1.388 . S
C1228 C1227 1.366 . S
C1228 C1232 1.385 . S
C1229 H1204 0.951 . S
C1229 C1227 1.388 . S
C1229 C1230 1.366 . S
C1230 C1229 1.366 . S
C1230 C1231 1.414 . S
C1230 C1233 1.499 . S
C1231 H1205 0.950 . S
C1231 C1230 1.414 . S
C1231 C1232 1.374 . S
C1232 H1206 0.950 . S
C1232 C1228 1.385 . S
C1232 C1231 1.374 . S
C1233 C1230 1.499 . S
C1233 C1234 1.373 . S
C1233 C1235 1.389 . S
C1234 H1207 0.950 . S
C1234 C1220 1.377 . S
C1234 C1233 1.373 . S
C1235 C1219 1.377 . S
C1235 C1233 1.389 . S
C1235 C1236 1.524 . S
C1236 C1235 1.524 . S
C1236 C1237 1.397 . S
C1236 C1241 1.363 . S
C1237 H1208 0.950 . S
C1237 C1236 1.397 . S
C1237 C1238 1.334 . S
C1238 H1209 0.950 . S
C1238 C1237 1.334 . S
C1238 C1239 1.287 . S
C1239 C1238 1.287 . S
C1239 C1240 1.524 . S
C1239 H1242 0.999 . S
C1240 H1210 0.950 . S
C1240 C1239 1.524 . S
C1240 C1241 1.415 . S
C1241 H1211 0.950 . S
C1241 C1236 1.363 . S
C1241 C1240 1.415 . S
H1242 C1239 0.999 . S
H1243 C1224 0.913 . S
H1244 C1262 0.951 . S
H1245 C1264 0.951 . S
H1246 C1266 0.950 . S
H1247 C1267 0.950 . S
H1248 C1269 0.950 . S
H1249 C1272 0.950 . S
H1250 C1273 0.950 . S
H1251 C1275 0.950 . S
H1252 C1276 0.950 . S
H1253 C1277 0.951 . S
H1254 C1279 0.951 . S
H1255 C1281 0.950 . S
H1256 C1282 0.950 . S
H1257 C1284 0.950 . S
H1258 C1287 0.950 . S
H1259 C1288 0.950 . S
H1260 C1290 0.950 . S
H1261 C1291 0.950 . S
C1262 H1244 0.951 . S
C1262 C1263 1.366 . S
C1262 C1264 1.388 . S
C1263 C1262 1.366 . S
C1263 C1267 1.385 . S
C1264 H1245 0.951 . S
C1264 C1262 1.388 . S
C1264 C1265 1.366 . S
C1265 C1264 1.366 . S
C1265 C1266 1.414 . S
C1265 C1268 1.499 . S
C1266 H1246 0.950 . S
C1266 C1265 1.414 . S
C1266 C1267 1.374 . S
C1267 H1247 0.950 . S
C1267 C1263 1.385 . S
C1267 C1266 1.374 . S
C1268 C1265 1.499 . S
C1268 C1269 1.373 . S
C1268 C1270 1.389 . S
C1269 H1248 0.950 . S
C1269 C1268 1.373 . S
C1269 C1285 1.377 . S
C1270 C1268 1.389 . S
C1270 C1271 1.524 . S
C1270 C1284 1.377 . S
C1271 C1270 1.524 . S
C1271 C1272 1.397 . S
C1271 C1276 1.363 . S
C1272 H1249 0.950 . S
C1272 C1271 1.397 . S
C1272 C1273 1.334 . S
C1273 H1250 0.950 . S
C1273 C1272 1.334 . S
C1273 C1274 1.287 . S
C1274 C1273 1.287 . S
C1274 C1275 1.524 . S
C1274 H1293 0.913 . S
C1275 H1251 0.950 . S
C1275 C1274 1.524 . S
C1275 C1276 1.415 . S
C1276 H1252 0.950 . S
C1276 C1271 1.363 . S
C1276 C1275 1.415 . S
C1277 H1253 0.951 . S
C1277 C1278 1.366 . S
C1277 C1279 1.388 . S
C1278 C1277 1.366 . S
C1278 C1282 1.385 . S
C1279 H1254 0.951 . S
C1279 C1277 1.388 . S
C1279 C1280 1.366 . S
C1280 C1279 1.366 . S
C1280 C1281 1.414 . S
C1280 C1283 1.499 . S
C1281 H1255 0.950 . S
C1281 C1280 1.414 . S
C1281 C1282 1.374 . S
C1282 H1256 0.950 . S
C1282 C1278 1.385 . S
C1282 C1281 1.374 . S
C1283 C1280 1.499 . S
C1283 C1284 1.373 . S
C1283 C1285 1.389 . S
C1284 H1257 0.950 . S
C1284 C1270 1.377 . S
C1284 C1283 1.373 . S
C1285 C1269 1.377 . S
C1285 C1283 1.389 . S
C1285 C1286 1.524 . S
C1286 C1285 1.524 . S
C1286 C1287 1.397 . S
C1286 C1291 1.363 . S
C1287 H1258 0.950 . S
C1287 C1286 1.397 . S
C1287 C1288 1.334 . S
C1288 H1259 0.950 . S
C1288 C1287 1.334 . S
C1288 C1289 1.287 . S
C1289 C1288 1.287 . S
C1289 C1290 1.524 . S
C1289 H1292 0.999 . S
C1290 H1260 0.950 . S
C1290 C1289 1.524 . S
C1290 C1291 1.415 . S
C1291 H1261 0.950 . S
C1291 C1286 1.363 . S
C1291 C1290 1.415 . S
H1292 C1289 0.999 . S
H1293 C1274 0.913 . S
H1294 C1312 0.951 . S
H1295 C1314 0.951 . S
H1296 C1316 0.950 . S
H1297 C1317 0.950 . S
H1298 C1319 0.950 . S
H1299 C1322 0.950 . S
H1300 C1323 0.950 . S
H1301 C1325 0.950 . S
H1302 C1326 0.950 . S
H1303 C1327 0.951 . S
H1304 C1329 0.951 . S
H1305 C1331 0.950 . S
H1306 C1332 0.950 . S
H1307 C1334 0.950 . S
H1308 C1337 0.950 . S
H1309 C1338 0.950 . S
H1310 C1340 0.950 . S
H1311 C1341 0.950 . S
C1312 H1294 0.951 . S
C1312 C1313 1.366 . S
C1312 C1314 1.388 . S
C1313 C1312 1.366 . S
C1313 C1317 1.385 . S
C1314 H1295 0.951 . S
C1314 C1312 1.388 . S
C1314 C1315 1.366 . S
C1315 C1314 1.366 . S
C1315 C1316 1.414 . S
C1315 C1318 1.499 . S
C1316 H1296 0.950 . S
C1316 C1315 1.414 . S
C1316 C1317 1.374 . S
C1317 H1297 0.950 . S
C1317 C1313 1.385 . S
C1317 C1316 1.374 . S
C1318 C1315 1.499 . S
C1318 C1319 1.373 . S
C1318 C1320 1.389 . S
C1319 H1298 0.950 . S
C1319 C1318 1.373 . S
C1319 C1335 1.377 . S
C1320 C1318 1.389 . S
C1320 C1321 1.524 . S
C1320 C1334 1.377 . S
C1321 C1320 1.524 . S
C1321 C1322 1.397 . S
C1321 C1326 1.363 . S
C1322 H1299 0.950 . S
C1322 C1321 1.397 . S
C1322 C1323 1.334 . S
C1323 H1300 0.950 . S
C1323 C1322 1.334 . S
C1323 C1324 1.287 . S
C1324 C1323 1.287 . S
C1324 C1325 1.524 . S
C1324 H1343 0.913 . S
C1325 H1301 0.950 . S
C1325 C1324 1.524 . S
C1325 C1326 1.415 . S
C1326 H1302 0.950 . S
C1326 C1321 1.363 . S
C1326 C1325 1.415 . S
C1327 H1303 0.951 . S
C1327 C1328 1.366 . S
C1327 C1329 1.388 . S
C1328 C1327 1.366 . S
C1328 C1332 1.385 . S
C1329 H1304 0.951 . S
C1329 C1327 1.388 . S
C1329 C1330 1.366 . S
C1330 C1329 1.366 . S
C1330 C1331 1.414 . S
C1330 C1333 1.499 . S
C1331 H1305 0.950 . S
C1331 C1330 1.414 . S
C1331 C1332 1.374 . S
C1332 H1306 0.950 . S
C1332 C1328 1.385 . S
C1332 C1331 1.374 . S
C1333 C1330 1.499 . S
C1333 C1334 1.373 . S
C1333 C1335 1.389 . S
C1334 H1307 0.950 . S
C1334 C1320 1.377 . S
C1334 C1333 1.373 . S
C1335 C1319 1.377 . S
C1335 C1333 1.389 . S
C1335 C1336 1.524 . S
C1336 C1335 1.524 . S
C1336 C1337 1.397 . S
C1336 C1341 1.363 . S
C1337 H1308 0.950 . S
C1337 C1336 1.397 . S
C1337 C1338 1.334 . S
C1338 H1309 0.950 . S
C1338 C1337 1.334 . S
C1338 C1339 1.287 . S
C1339 C1338 1.287 . S
C1339 C1340 1.524 . S
C1339 H1342 0.999 . S
C1340 H1310 0.950 . S
C1340 C1339 1.524 . S
C1340 C1341 1.415 . S
C1341 H1311 0.950 . S
C1341 C1336 1.363 . S
C1341 C1340 1.415 . S
H1342 C1339 0.999 . S
H1343 C1324 0.913 . S
H1344 C1362 0.951 . S
H1345 C1364 0.951 . S
H1346 C1366 0.950 . S
H1347 C1367 0.950 . S
H1348 C1369 0.950 . S
H1349 C1372 0.950 . S
H1350 C1373 0.950 . S
H1351 C1375 0.950 . S
H1352 C1376 0.950 . S
H1353 C1377 0.951 . S
H1354 C1379 0.951 . S
H1355 C1381 0.950 . S
H1356 C1382 0.950 . S
H1357 C1384 0.950 . S
H1358 C1387 0.950 . S
H1359 C1388 0.950 . S
H1360 C1390 0.950 . S
H1361 C1391 0.950 . S
C1362 H1344 0.951 . S
C1362 C1363 1.366 . S
C1362 C1364 1.388 . S
C1363 C1362 1.366 . S
C1363 C1367 1.385 . S
C1364 H1345 0.951 . S
C1364 C1362 1.388 . S
C1364 C1365 1.366 . S
C1365 C1364 1.366 . S
C1365 C1366 1.414 . S
C1365 C1368 1.499 . S
C1366 H1346 0.950 . S
C1366 C1365 1.414 . S
C1366 C1367 1.374 . S
C1367 H1347 0.950 . S
C1367 C1363 1.385 . S
C1367 C1366 1.374 . S
C1368 C1365 1.499 . S
C1368 C1369 1.373 . S
C1368 C1370 1.389 . S
C1369 H1348 0.950 . S
C1369 C1368 1.373 . S
C1369 C1385 1.377 . S
C1370 C1368 1.389 . S
C1370 C1371 1.524 . S
C1370 C1384 1.377 . S
C1371 C1370 1.524 . S
C1371 C1372 1.397 . S
C1371 C1376 1.363 . S
C1372 H1349 0.950 . S
C1372 C1371 1.397 . S
C1372 C1373 1.334 . S
C1373 H1350 0.950 . S
C1373 C1372 1.334 . S
C1373 C1374 1.287 . S
C1374 C1373 1.287 . S
C1374 C1375 1.524 . S
C1374 H1393 0.913 . S
C1375 H1351 0.950 . S
C1375 C1374 1.524 . S
C1375 C1376 1.415 . S
C1376 H1352 0.950 . S
C1376 C1371 1.363 . S
C1376 C1375 1.415 . S
C1377 H1353 0.951 . S
C1377 C1378 1.366 . S
C1377 C1379 1.388 . S
C1378 C1377 1.366 . S
C1378 C1382 1.385 . S
C1379 H1354 0.951 . S
C1379 C1377 1.388 . S
C1379 C1380 1.366 . S
C1380 C1379 1.366 . S
C1380 C1381 1.414 . S
C1380 C1383 1.499 . S
C1381 H1355 0.950 . S
C1381 C1380 1.414 . S
C1381 C1382 1.374 . S
C1382 H1356 0.950 . S
C1382 C1378 1.385 . S
C1382 C1381 1.374 . S
C1383 C1380 1.499 . S
C1383 C1384 1.373 . S
C1383 C1385 1.389 . S
C1384 H1357 0.950 . S
C1384 C1370 1.377 . S
C1384 C1383 1.373 . S
C1385 C1369 1.377 . S
C1385 C1383 1.389 . S
C1385 C1386 1.524 . S
C1386 C1385 1.524 . S
C1386 C1387 1.397 . S
C1386 C1391 1.363 . S
C1387 H1358 0.950 . S
C1387 C1386 1.397 . S
C1387 C1388 1.334 . S
C1388 H1359 0.950 . S
C1388 C1387 1.334 . S
C1388 C1389 1.287 . S
C1389 C1388 1.287 . S
C1389 C1390 1.524 . S
C1389 H1392 0.999 1_655 S
C1390 H1360 0.950 . S
C1390 C1389 1.524 . S
C1390 C1391 1.415 . S
C1391 H1361 0.950 . S
C1391 C1386 1.363 . S
C1391 C1390 1.415 . S
H1392 C1389 0.999 1_455 S
H1393 C1374 0.913 . S
H1394 C1412 0.951 . S
H1395 C1414 0.951 . S
H1396 C1416 0.950 . S
H1397 C1417 0.950 . S
H1398 C1419 0.950 . S
H1399 C1422 0.950 . S
H1400 C1423 0.950 . S
H1401 C1425 0.950 . S
H1402 C1426 0.950 . S
H1403 C1427 0.951 . S
H1404 C1429 0.951 . S
H1405 C1431 0.950 . S
H1406 C1432 0.950 . S
H1407 C1434 0.950 . S
H1408 C1437 0.950 . S
H1409 C1438 0.950 . S
H1410 C1440 0.950 . S
H1411 C1441 0.950 . S
C1412 H1394 0.951 . S
C1412 C1413 1.366 . S
C1412 C1414 1.388 . S
C1413 C1412 1.366 . S
C1413 C1417 1.385 . S
C1414 H1395 0.951 . S
C1414 C1412 1.388 . S
C1414 C1415 1.366 . S
C1415 C1414 1.366 . S
C1415 C1416 1.414 . S
C1415 C1418 1.499 . S
C1416 H1396 0.950 . S
C1416 C1415 1.414 . S
C1416 C1417 1.374 . S
C1417 H1397 0.950 . S
C1417 C1413 1.385 . S
C1417 C1416 1.374 . S
C1418 C1415 1.499 . S
C1418 C1419 1.373 . S
C1418 C1420 1.389 . S
C1419 H1398 0.950 . S
C1419 C1418 1.373 . S
C1419 C1435 1.377 . S
C1420 C1418 1.389 . S
C1420 C1421 1.524 . S
C1420 C1434 1.377 . S
C1421 C1420 1.524 . S
C1421 C1422 1.397 . S
C1421 C1426 1.363 . S
C1422 H1399 0.950 . S
C1422 C1421 1.397 . S
C1422 C1423 1.334 . S
C1423 H1400 0.950 . S
C1423 C1422 1.334 . S
C1423 C1424 1.287 . S
C1424 C1423 1.287 . S
C1424 C1425 1.524 . S
C1424 H1443 0.913 . S
C1425 H1401 0.950 . S
C1425 C1424 1.524 . S
C1425 C1426 1.415 . S
C1426 H1402 0.950 . S
C1426 C1421 1.363 . S
C1426 C1425 1.415 . S
C1427 H1403 0.951 . S
C1427 C1428 1.366 . S
C1427 C1429 1.388 . S
C1428 C1427 1.366 . S
C1428 C1432 1.385 . S
C1429 H1404 0.951 . S
C1429 C1427 1.388 . S
C1429 C1430 1.366 . S
C1430 C1429 1.366 . S
C1430 C1431 1.414 . S
C1430 C1433 1.499 . S
C1431 H1405 0.950 . S
C1431 C1430 1.414 . S
C1431 C1432 1.374 . S
C1432 H1406 0.950 . S
C1432 C1428 1.385 . S
C1432 C1431 1.374 . S
C1433 C1430 1.499 . S
C1433 C1434 1.373 . S
C1433 C1435 1.389 . S
C1434 H1407 0.950 . S
C1434 C1420 1.377 . S
C1434 C1433 1.373 . S
C1435 C1419 1.377 . S
C1435 C1433 1.389 . S
C1435 C1436 1.524 . S
C1436 C1435 1.524 . S
C1436 C1437 1.397 . S
C1436 C1441 1.363 . S
C1437 H1408 0.950 . S
C1437 C1436 1.397 . S
C1437 C1438 1.334 . S
C1438 H1409 0.950 . S
C1438 C1437 1.334 . S
C1438 C1439 1.287 . S
C1439 C1438 1.287 . S
C1439 C1440 1.524 . S
C1439 H1442 0.999 . S
C1440 H1410 0.950 . S
C1440 C1439 1.524 . S
C1440 C1441 1.415 . S
C1441 H1411 0.950 . S
C1441 C1436 1.363 . S
C1441 C1440 1.415 . S
H1442 C1439 0.999 . S
H1443 C1424 0.913 . S
H1444 C1462 0.951 . S
H1445 C1464 0.951 . S
H1446 C1466 0.950 . S
H1447 C1467 0.950 . S
H1448 C1469 0.950 . S
H1449 C1472 0.950 . S
H1450 C1473 0.950 . S
H1451 C1475 0.950 . S
H1452 C1476 0.950 . S
H1453 C1477 0.951 . S
H1454 C1479 0.951 . S
H1455 C1481 0.950 . S
H1456 C1482 0.950 . S
H1457 C1484 0.950 . S
H1458 C1487 0.950 . S
H1459 C1488 0.950 . S
H1460 C1490 0.950 . S
H1461 C1491 0.950 . S
C1462 H1444 0.951 . S
C1462 C1463 1.366 . S
C1462 C1464 1.388 . S
C1463 C1462 1.366 . S
C1463 C1467 1.385 . S
C1464 H1445 0.951 . S
C1464 C1462 1.388 . S
C1464 C1465 1.366 . S
C1465 C1464 1.366 . S
C1465 C1466 1.414 . S
C1465 C1468 1.499 . S
C1466 H1446 0.950 . S
C1466 C1465 1.414 . S
C1466 C1467 1.374 . S
C1467 H1447 0.950 . S
C1467 C1463 1.385 . S
C1467 C1466 1.374 . S
C1468 C1465 1.499 . S
C1468 C1469 1.373 . S
C1468 C1470 1.389 . S
C1469 H1448 0.950 . S
C1469 C1468 1.373 . S
C1469 C1485 1.377 . S
C1470 C1468 1.389 . S
C1470 C1471 1.524 . S
C1470 C1484 1.377 . S
C1471 C1470 1.524 . S
C1471 C1472 1.397 . S
C1471 C1476 1.363 . S
C1472 H1449 0.950 . S
C1472 C1471 1.397 . S
C1472 C1473 1.334 . S
C1473 H1450 0.950 . S
C1473 C1472 1.334 . S
C1473 C1474 1.287 . S
C1474 C1473 1.287 . S
C1474 C1475 1.524 . S
C1474 H1493 0.913 . S
C1475 H1451 0.950 . S
C1475 C1474 1.524 . S
C1475 C1476 1.415 . S
C1476 H1452 0.950 . S
C1476 C1471 1.363 . S
C1476 C1475 1.415 . S
C1477 H1453 0.951 . S
C1477 C1478 1.366 . S
C1477 C1479 1.388 . S
C1478 C1477 1.366 . S
C1478 C1482 1.385 . S
C1479 H1454 0.951 . S
C1479 C1477 1.388 . S
C1479 C1480 1.366 . S
C1480 C1479 1.366 . S
C1480 C1481 1.414 . S
C1480 C1483 1.499 . S
C1481 H1455 0.950 . S
C1481 C1480 1.414 . S
C1481 C1482 1.374 . S
C1482 H1456 0.950 . S
C1482 C1478 1.385 . S
C1482 C1481 1.374 . S
C1483 C1480 1.499 . S
C1483 C1484 1.373 . S
C1483 C1485 1.389 . S
C1484 H1457 0.950 . S
C1484 C1470 1.377 . S
C1484 C1483 1.373 . S
C1485 C1469 1.377 . S
C1485 C1483 1.389 . S
C1485 C1486 1.524 . S
C1486 C1485 1.524 . S
C1486 C1487 1.397 . S
C1486 C1491 1.363 . S
C1487 H1458 0.950 . S
C1487 C1486 1.397 . S
C1487 C1488 1.334 . S
C1488 H1459 0.950 . S
C1488 C1487 1.334 . S
C1488 C1489 1.287 . S
C1489 C1488 1.287 . S
C1489 C1490 1.524 . S
C1489 H1492 0.999 . S
C1490 H1460 0.950 . S
C1490 C1489 1.524 . S
C1490 C1491 1.415 . S
C1491 H1461 0.950 . S
C1491 C1486 1.363 . S
C1491 C1490 1.415 . S
H1492 C1489 0.999 . S
H1493 C1474 0.913 . S
H1494 C1512 0.951 . S
H1495 C1514 0.951 . S
H1496 C1516 0.950 . S
H1497 C1517 0.950 . S
H1498 C1519 0.950 . S
H1499 C1522 0.950 . S
H1500 C1523 0.950 . S
H1501 C1525 0.950 . S
H1502 C1526 0.950 . S
H1503 C1527 0.951 . S
H1504 C1529 0.951 . S
H1505 C1531 0.950 . S
H1506 C1532 0.950 . S
H1507 C1534 0.950 . S
H1508 C1537 0.950 . S
H1509 C1538 0.950 . S
H1510 C1540 0.950 . S
H1511 C1541 0.950 . S
C1512 H1494 0.951 . S
C1512 C1513 1.366 . S
C1512 C1514 1.388 . S
C1513 C1512 1.366 . S
C1513 C1517 1.385 . S
C1514 H1495 0.951 . S
C1514 C1512 1.388 . S
C1514 C1515 1.366 . S
C1515 C1514 1.366 . S
C1515 C1516 1.414 . S
C1515 C1518 1.499 . S
C1516 H1496 0.950 . S
C1516 C1515 1.414 . S
C1516 C1517 1.374 . S
C1517 H1497 0.950 . S
C1517 C1513 1.385 . S
C1517 C1516 1.374 . S
C1518 C1515 1.499 . S
C1518 C1519 1.373 . S
C1518 C1520 1.389 . S
C1519 H1498 0.950 . S
C1519 C1518 1.373 . S
C1519 C1535 1.377 . S
C1520 C1518 1.389 . S
C1520 C1521 1.524 . S
C1520 C1534 1.377 . S
C1521 C1520 1.524 . S
C1521 C1522 1.397 . S
C1521 C1526 1.363 . S
C1522 H1499 0.950 . S
C1522 C1521 1.397 . S
C1522 C1523 1.334 . S
C1523 H1500 0.950 . S
C1523 C1522 1.334 . S
C1523 C1524 1.287 . S
C1524 C1523 1.287 . S
C1524 C1525 1.524 . S
C1524 H1543 0.913 . S
C1525 H1501 0.950 . S
C1525 C1524 1.524 . S
C1525 C1526 1.415 . S
C1526 H1502 0.950 . S
C1526 C1521 1.363 . S
C1526 C1525 1.415 . S
C1527 H1503 0.951 . S
C1527 C1528 1.366 . S
C1527 C1529 1.388 . S
C1528 C1527 1.366 . S
C1528 C1532 1.385 . S
C1529 H1504 0.951 . S
C1529 C1527 1.388 . S
C1529 C1530 1.366 . S
C1530 C1529 1.366 . S
C1530 C1531 1.414 . S
C1530 C1533 1.499 . S
C1531 H1505 0.950 . S
C1531 C1530 1.414 . S
C1531 C1532 1.374 . S
C1532 H1506 0.950 . S
C1532 C1528 1.385 . S
C1532 C1531 1.374 . S
C1533 C1530 1.499 . S
C1533 C1534 1.373 . S
C1533 C1535 1.389 . S
C1534 H1507 0.950 . S
C1534 C1520 1.377 . S
C1534 C1533 1.373 . S
C1535 C1519 1.377 . S
C1535 C1533 1.389 . S
C1535 C1536 1.524 . S
C1536 C1535 1.524 . S
C1536 C1537 1.397 . S
C1536 C1541 1.363 . S
C1537 H1508 0.950 . S
C1537 C1536 1.397 . S
C1537 C1538 1.334 . S
C1538 H1509 0.950 . S
C1538 C1537 1.334 . S
C1538 C1539 1.287 . S
C1539 C1538 1.287 . S
C1539 C1540 1.524 . S
C1539 H1542 0.999 . S
C1540 H1510 0.950 . S
C1540 C1539 1.524 . S
C1540 C1541 1.415 . S
C1541 H1511 0.950 . S
C1541 C1536 1.363 . S
C1541 C1540 1.415 . S
H1542 C1539 0.999 . S
H1543 C1524 0.913 . S
C363 C23 1.508 . S
C378 C299 1.552 . S
C428 C263 1.498 . S
C413 C55 1.509 . S
C478 C286 1.540 . S
C463 C87 1.544 . S
C528 C274 1.485 . S
C513 C119 1.430 . S
C578 C343 1.552 . S
C563 C151 1.508 . S
C628 C307 1.498 . S
C613 C183 1.508 . S
C663 C215 1.544 . S
C678 C330 1.541 . S
C728 C318 1.485 . S
C713 C247 1.430 . S
C763 C29 1.450 . S
C778 C340 1.516 . S
C828 C310 1.439 . S
C813 C49 1.436 . S
C863 C93 1.543 . S
C878 C329 1.542 . S
C913 C113 1.422 . S
C928 C315 1.466 . S
C978 C296 1.516 . S
C963 C157 1.451 . S
C1013 C177 1.436 . S
C1028 C266 1.439 . S
C1078 C285 1.542 . S
C1063 C221 1.543 . S
C1128 C271 1.466 . S
C1113 C241 1.421 . S
C1178 C321 1.484 . S
C1163 C17 1.442 . S
C1228 C337 1.475 . S
C1213 C61 1.481 . S
C1263 C81 1.452 . S
C1278 C308 1.452 . S
C1328 C332 1.444 . S
C1313 C125 1.375 . S
C1378 C277 1.483 . S
C1363 C145 1.441 . S
C1413 C189 1.481 . S
C1428 C293 1.475 . S
C1463 C209 1.452 . S
C1478 C264 1.453 . S
C1513 C253 1.376 . S
C1528 C288 1.445 . S
