# Generated by pormake.
# Topology anh, (6,3)-cn, num edge types: 1
# Building blocks:
#     Node 0, Type 0, BuildingBlock: BETGAK_clean_sbu_0, # of connection points: 6
#     Node 1, Type 0, BuildingBlock: BETGAK_clean_sbu_0, # of connection points: 6
#     Node 2, Type 0, BuildingBlock: BETGAK_clean_sbu_0, # of connection points: 6
#     Node 3, Type 1, BuildingBlock: VETTIZ_charged_linker_0, # of connection points: 3
#     Node 4, Type 1, BuildingBlock: VETTIZ_charged_linker_0, # of connection points: 3
#     Node 5, Type 1, BuildingBlock: VETTIZ_charged_linker_0, # of connection points: 3
#     Node 6, Type 1, BuildingBlock: VETTIZ_charged_linker_0, # of connection points: 3
#     Node 7, Type 1, BuildingBlock: VETTIZ_charged_linker_0, # of connection points: 3
#     Node 8, Type 1, BuildingBlock: VETTIZ_charged_linker_0, # of connection points: 3
#     Edge 9, Type (0, 1), BuildingBlock: XIVTED_clean_linker_0, # of connection points: 2
#     Edge 10, Type (0, 1), BuildingBlock: XIVTED_clean_linker_0, # of connection points: 2
#     Edge 11, Type (0, 1), BuildingBlock: XIVTED_clean_linker_0, # of connection points: 2
#     Edge 12, Type (0, 1), BuildingBlock: XIVTED_clean_linker_0, # of connection points: 2
#     Edge 13, Type (0, 1), BuildingBlock: XIVTED_clean_linker_0, # of connection points: 2
#     Edge 14, Type (0, 1), BuildingBlock: XIVTED_clean_linker_0, # of connection points: 2
#     Edge 15, Type (0, 1), BuildingBlock: XIVTED_clean_linker_0, # of connection points: 2
#     Edge 16, Type (0, 1), BuildingBlock: XIVTED_clean_linker_0, # of connection points: 2
#     Edge 17, Type (0, 1), BuildingBlock: XIVTED_clean_linker_0, # of connection points: 2
#     Edge 18, Type (0, 1), BuildingBlock: XIVTED_clean_linker_0, # of connection points: 2
#     Edge 19, Type (0, 1), BuildingBlock: XIVTED_clean_linker_0, # of connection points: 2
#     Edge 20, Type (0, 1), BuildingBlock: XIVTED_clean_linker_0, # of connection points: 2
#     Edge 21, Type (0, 1), BuildingBlock: XIVTED_clean_linker_0, # of connection points: 2
#     Edge 22, Type (0, 1), BuildingBlock: XIVTED_clean_linker_0, # of connection points: 2
#     Edge 23, Type (0, 1), BuildingBlock: XIVTED_clean_linker_0, # of connection points: 2
#     Edge 24, Type (0, 1), BuildingBlock: XIVTED_clean_linker_0, # of connection points: 2
#     Edge 25, Type (0, 1), BuildingBlock: XIVTED_clean_linker_0, # of connection points: 2
#     Edge 26, Type (0, 1), BuildingBlock: XIVTED_clean_linker_0, # of connection points: 2
# Relax obj value: 0.188
# Max RMSD: 0.209
# Mean RMSD: 0.159
data_MOF--net-anh--node1-BETGAK_clean_sbu_0--node2-VETTIZ_charged_linker_0--edge1-XIVTED_clean_linker_0
_symmetry_space_group_name_H-M    P1
_symmetry_Int_Tables_number       1
_symmetry_cell_setting            triclinic
loop_
_symmetry_equiv_pos_as_xyz
'x, y, z'
_cell_length_a     35.890694
_cell_length_b     43.321114
_cell_length_c     67.133095
_cell_angle_alpha  92.074407
_cell_angle_beta   89.588335
_cell_angle_gamma 128.54306
loop_
_atom_site_label
_atom_site_type_symbol
_atom_site_fract_x
_atom_site_fract_y
_atom_site_fract_z
_atom_type_partial_charge
La0 La 0.11536 0.50719 0.14347 0.0
La1 La 1.05178 0.52587 0.15809 0.0
C2 C 0.17931 0.50965 0.12623 0.0
C3 C 0.23014 0.53443 0.13146 0.0
C4 C 0.24633 0.55468 0.15013 0.0
C5 C 0.2937 0.57524 0.15617 0.0
C6 C 0.3257 0.57625 0.14353 0.0
C7 C 0.30993 0.55769 0.1244 0.0
C8 C 0.26233 0.53675 0.11844 0.0
C9 C 0.10382 0.50492 0.18228 0.0
C10 C 0.15811 0.59795 0.15305 0.0
C11 C 0.99128 0.52371 0.17858 0.0
C12 C 0.94265 0.49061 0.18435 0.0
C13 C 0.90705 0.49484 0.18402 0.0
C14 C 0.85928 0.46183 0.18564 0.0
C15 C 0.84641 0.42402 0.18736 0.0
C16 C 0.88231 0.42024 0.18908 0.0
C17 C 0.93015 0.45339 0.18781 0.0
C18 C 1.06649 0.5313 0.11962 0.0
C19 C 1.00871 0.43606 0.14673 0.0
O20 O 0.15123 0.48366 0.13942 0.0
O21 O 0.16419 0.52857 0.12017 0.0
O22 O 0.11071 0.48281 0.17236 0.0
O23 O 0.10791 0.52901 0.17083 0.0
O24 O 0.16334 0.57255 0.14477 0.0
O25 O 0.11773 0.58591 0.16137 0.0
O26 O 0.99678 0.53032 0.15949 0.0
O27 O 1.02567 0.52504 0.18628 0.0
O28 O 1.05999 0.55343 0.13001 0.0
O29 O 1.06058 0.50545 0.13039 0.0
O30 O 1.0052 0.46073 0.15712 0.0
O31 O 1.04786 0.44901 0.13697 0.0
H32 H 0.22188 0.55343 0.1603 0.0
H33 H 0.30501 0.58939 0.17093 0.0
H34 H 0.33379 0.55761 0.11446 0.0
H35 H 0.25036 0.52139 0.10397 0.0
H36 H 0.91595 0.52326 0.18139 0.0
H37 H 0.83223 0.46549 0.18403 0.0
H38 H 0.87324 0.39142 0.19043 0.0
H39 H 0.95706 0.44944 0.18849 0.0
La40 La 0.63193 0.02821 0.48424 0.0
La41 La 0.57036 0.04994 0.47367 0.0
C42 C 0.66672 0.99883 0.49975 0.0
C43 C 0.65299 0.95907 0.50186 0.0
C44 C 0.64873 0.93624 0.48524 0.0
C45 C 0.6377 0.89944 0.48775 0.0
C46 C 0.63042 0.88464 0.50689 0.0
C47 C 0.63415 0.90734 0.52344 0.0
C48 C 0.64549 0.94419 0.52095 0.0
C49 C 0.62608 0.03658 0.44604 0.0
C50 C 0.51931 0.96058 0.47662 0.0
C51 C 0.53724 0.08035 0.45784 0.0
C52 C 0.54964 0.11964 0.46026 0.0
C53 C 0.57886 0.14508 0.47631 0.0
C54 C 0.58966 0.182 0.47903 0.0
C55 C 0.57163 0.19435 0.46569 0.0
C56 C 0.5429 0.16889 0.44941 0.0
C57 C 0.53201 0.13182 0.44674 0.0
C58 C 0.57606 0.04242 0.512 0.0
C59 C 0.68323 0.11783 0.48146 0.0
O60 O 0.67674 0.01272 0.48186 0.0
O61 O 0.64146 1.00646 0.50956 0.0
O62 O 0.66426 0.04641 0.45484 0.0
O63 O 0.59263 0.02061 0.45818 0.0
O64 O 0.55914 0.97118 0.48523 0.0
O65 O 0.5179 0.9867 0.46786 0.0
O66 O 0.51921 0.05876 0.47354 0.0
O67 O 0.5697 0.07937 0.44961 0.0
O68 O 0.5389 0.03452 0.5032 0.0
O69 O 0.60939 0.05739 0.49982 0.0
O70 O 0.64265 0.10719 0.47373 0.0
O71 O 0.68611 0.09169 0.48918 0.0
H72 H 0.65425 0.94683 0.4703 0.0
H73 H 0.63469 0.8825 0.47471 0.0
H74 H 0.62944 0.89704 0.5384 0.0
H75 H 0.64893 0.96131 0.534 0.0
H76 H 0.5928 0.13614 0.48692 0.0
H77 H 0.6112 0.20041 0.49191 0.0
H78 H 0.52891 0.17762 0.43871 0.0
H79 H 0.50959 0.11259 0.4342 0.0
La80 La 0.63923 0.56469 0.82953 0.0
La81 La 0.5739 0.47858 0.83811 0.0
C82 C 0.67645 0.6306 0.81472 0.0
C83 C 0.66476 0.6577 0.81293 0.0
C84 C 0.66628 0.67922 0.82957 0.0
C85 C 0.65645 0.70553 0.82736 0.0
C86 C 0.64473 0.71076 0.80851 0.0
C87 C 0.64309 0.6891 0.79194 0.0
C88 C 0.65317 0.66302 0.79412 0.0
C89 C 0.6327 0.54862 0.86728 0.0
C90 C 0.52644 0.51952 0.83588 0.0
C91 C 0.5383 0.41273 0.85257 0.0
C92 C 0.54941 0.38543 0.8499 0.0
C93 C 0.57776 0.38969 0.83405 0.0
C94 C 0.58805 0.36363 0.83132 0.0
C95 C 0.57045 0.33285 0.84446 0.0
C96 C 0.54247 0.32904 0.8605 0.0
C97 C 0.53206 0.35515 0.86318 0.0
C98 C 0.58154 0.49413 0.80011 0.0
C99 C 0.687 0.524 0.832 0.0
O100 O 0.68708 0.62654 0.83255 0.0
O101 O 0.64913 0.59682 0.80457 0.0
O102 O 0.67116 0.57855 0.85938 0.0
O103 O 0.59915 0.53098 0.85461 0.0
O104 O 0.56775 0.55017 0.82872 0.0
O105 O 0.52234 0.48943 0.84314 0.0
O106 O 0.52105 0.41704 0.83676 0.0
O107 O 0.57141 0.44665 0.86165 0.0
O108 O 0.54343 0.46377 0.80793 0.0
O109 O 0.61445 0.51215 0.81307 0.0
O110 O 0.64525 0.49304 0.83865 0.0
O111 O 0.69182 0.5547 0.82518 0.0
H112 H 0.67523 0.67592 0.84429 0.0
H113 H 0.6577 0.72158 0.84044 0.0
H114 H 0.63497 0.69292 0.77716 0.0
H115 H 0.65224 0.64717 0.78102 0.0
H116 H 0.59158 0.413 0.82365 0.0
H117 H 0.60901 0.36716 0.81862 0.0
H118 H 0.52884 0.30605 0.87105 0.0
H119 H 0.51041 0.35166 0.87559 0.0
C120 C 0.70124 0.12349 0.16788 0.0
C121 C 0.74173 0.1589 0.17681 0.0
C122 C 0.74927 0.16139 0.19751 0.0
C123 C 0.67574 0.09497 0.20052 0.0
C124 C 0.66883 0.0916 0.18006 0.0
C125 C 0.62427 0.05089 0.17355 0.0
H126 H 0.42049 0.87411 0.20208 0.0
C127 C 0.63474 0.05824 0.20924 0.0
C128 C 0.60396 0.03198 0.19358 0.0
H129 H 0.47034 0.90555 0.14194 0.0
H130 H 0.54052 0.97043 0.15425 0.0
H131 H 0.52103 0.9072 0.22051 0.0
H132 H 0.44486 0.95345 0.21688 0.0
H133 H 0.47666 0.97271 0.23963 0.0
H134 H 0.43227 0.91986 0.23564 0.0
H135 H 0.46807 0.88864 0.23415 0.0
H136 H 0.52623 0.92881 0.24403 0.0
C137 C 0.63956 0.02981 0.16117 0.0
C138 C 0.59077 0.05525 0.16208 0.0
C139 C 0.62434 0.04859 0.28477 0.0
C140 C 0.58783 0.0207 0.29749 0.0
C141 C 0.54398 0.98807 0.2888 0.0
C142 C 0.53731 0.98244 0.2681 0.0
C143 C 0.57447 1.00997 0.25569 0.0
C144 C 0.61658 0.0429 0.26406 0.0
C145 C 0.6504 0.0707 0.24849 0.0
C146 C 0.62218 0.0481 0.22941 0.0
C147 C 0.57823 0.01234 0.23378 0.0
C148 C 0.6964 0.07484 0.25007 0.0
C149 C 0.65818 0.11007 0.25168 0.0
C150 C 0.44622 0.89503 0.19149 0.0
C151 C 0.43962 0.88496 0.17105 0.0
C152 C 0.47467 0.91273 0.1578 0.0
C153 C 0.51533 0.95024 0.16498 0.0
C154 C 0.52138 0.95968 0.18563 0.0
C155 C 0.48706 0.93184 0.1984 0.0
C156 C 0.49951 0.94506 0.21988 0.0
C157 C 0.54735 0.98538 0.21816 0.0
C158 C 0.56016 0.99453 0.19809 0.0
C159 C 0.50374 0.91599 0.23037 0.0
C160 C 0.46139 0.94774 0.22863 0.0
H161 H 0.72432 0.13391 0.22507 0.0
H162 H 0.6951 0.1208 0.15192 0.0
H163 H 0.58639 0.07527 0.1706 0.0
H164 H 0.55474 0.0269 0.15968 0.0
H165 H 0.60549 0.06793 0.14731 0.0
H166 H 0.67283 0.03696 0.16749 0.0
H167 H 0.64645 0.03914 0.14549 0.0
H168 H 0.61303 0.99734 0.16128 0.0
H169 H 0.65851 0.07418 0.29066 0.0
H170 H 0.5143 0.96677 0.29796 0.0
H171 H 0.50331 0.95673 0.2626 0.0
H172 H 0.68764 0.04586 0.25299 0.0
H173 H 0.71999 0.09587 0.26247 0.0
H174 H 0.71676 0.08436 0.23615 0.0
H175 H 0.6277 0.10557 0.25943 0.0
H176 H 0.66036 0.12328 0.23749 0.0
H177 H 0.69077 0.13201 0.26085 0.0
H178 H 0.78025 0.18834 0.20458 0.0
C179 C 0.71659 0.12979 0.20938 0.0
C180 C 0.60904 0.62638 0.53402 0.0
C181 C 0.60789 0.65354 0.54561 0.0
C182 C 0.61084 0.65378 0.56655 0.0
C183 C 0.61493 0.60013 0.56417 0.0
C184 C 0.61234 0.59985 0.54362 0.0
C185 C 0.61272 0.56815 0.53382 0.0
H186 H 0.626 0.41972 0.54422 0.0
C187 C 0.6176 0.56886 0.56959 0.0
C188 C 0.61637 0.54988 0.5519 0.0
H189 H 0.6095 0.45971 0.48944 0.0
H190 H 0.60997 0.50903 0.5081 0.0
H191 H 0.70245 0.50701 0.56665 0.0
H192 H 0.55033 0.41751 0.56673 0.0
H193 H 0.56628 0.43926 0.59086 0.0
H194 H 0.58883 0.41416 0.58164 0.0
H195 H 0.67278 0.45957 0.57717 0.0
H196 H 0.684 0.5006 0.59156 0.0
C197 C 0.6574 0.58837 0.52076 0.0
C198 C 0.56501 0.53858 0.52217 0.0
C199 C 0.62329 0.54526 0.64271 0.0
C200 C 0.62238 0.51659 0.65238 0.0
C201 C 0.62368 0.4894 0.64091 0.0
C202 C 0.62514 0.49036 0.62008 0.0
C203 C 0.62472 0.51852 0.61055 0.0
C204 C 0.62401 0.54544 0.62186 0.0
C205 C 0.62165 0.57208 0.60917 0.0
C206 C 0.62068 0.5565 0.58838 0.0
C207 C 0.62283 0.52538 0.5893 0.0
C208 C 0.66766 0.61501 0.61326 0.0
C209 C 0.57469 0.56537 0.6138 0.0
C210 C 0.62326 0.43953 0.53622 0.0
C211 C 0.61845 0.43635 0.51537 0.0
C212 C 0.6134 0.46179 0.50553 0.0
C213 C 0.61374 0.49036 0.51639 0.0
C214 C 0.6185 0.49308 0.53731 0.0
C215 C 0.62281 0.46764 0.54683 0.0
C216 C 0.62482 0.47292 0.56911 0.0
C217 C 0.62204 0.50634 0.57149 0.0
C218 C 0.61862 0.51831 0.55286 0.0
C219 C 0.67333 0.48545 0.57669 0.0
C220 C 0.58062 0.43404 0.57768 0.0
H221 H 0.61654 0.62924 0.59182 0.0
H222 H 0.60663 0.62537 0.51791 0.0
H223 H 0.5352 0.53484 0.53013 0.0
H224 H 0.55438 0.50857 0.52073 0.0
H225 H 0.56662 0.54904 0.50709 0.0
H226 H 0.6889 0.61517 0.52869 0.0
H227 H 0.65202 0.5977 0.50658 0.0
H228 H 0.66751 0.56943 0.51725 0.0
H229 H 0.62161 0.56615 0.65116 0.0
H230 H 0.6233 0.46723 0.64811 0.0
H231 H 0.62589 0.46878 0.6122 0.0
H232 H 0.69878 0.61571 0.61584 0.0
H233 H 0.66414 0.62865 0.62672 0.0
H234 H 0.67774 0.63411 0.60053 0.0
H235 H 0.54603 0.53432 0.61784 0.0
H236 H 0.55985 0.56972 0.60084 0.0
H237 H 0.57974 0.58491 0.62649 0.0
H238 H 0.61094 0.67485 0.5758 0.0
C239 C 0.61442 0.62738 0.57585 0.0
C240 C 0.21459 0.52231 0.84536 0.0
C241 C 0.24883 0.52202 0.85583 0.0
C242 C 0.24907 0.52369 0.87674 0.0
C243 C 0.18249 0.52509 0.87695 0.0
C244 C 0.18139 0.52376 0.85634 0.0
C245 C 0.14138 0.5239 0.84862 0.0
H246 H 0.94869 0.5174 0.87514 0.0
C247 C 0.14389 0.52554 0.88441 0.0
C248 C 0.11867 0.52462 0.86799 0.0
H249 H 0.99433 0.52324 0.81494 0.0
H250 H 1.06053 0.52544 0.82736 0.0
H251 H 0.96193 0.45774 0.89059 0.0
H252 H 1.04799 0.5838 0.89174 0.0
H253 H 1.0619 0.5739 0.91435 0.0
H254 H 1.00139 0.55462 0.90918 0.0
H255 H 0.951 0.48509 0.90677 0.0
H256 H 0.98911 0.47359 0.91433 0.0
C257 C 0.10599 0.48595 0.83579 0.0
C258 C 0.16362 0.56153 0.83696 0.0
C259 C 0.12564 0.53042 0.95969 0.0
C260 C 0.09376 0.53151 0.9714 0.0
C261 C 1.05733 0.52934 0.96188 0.0
C262 C 1.05301 0.52674 0.94112 0.0
C263 C 0.08562 0.52653 0.92951 0.0
C264 C 0.12101 0.52818 0.93881 0.0
C265 C 0.15237 0.52776 0.924 0.0
C266 C 0.13024 0.52611 0.90428 0.0
C267 C 0.09124 0.52529 0.90769 0.0
C268 C 0.14693 0.48973 0.92692 0.0
C269 C 0.20376 0.56703 0.92717 0.0
C270 C 0.97251 0.51886 0.86447 0.0
C271 C 0.96558 0.51956 0.84409 0.0
C272 C 0.99858 0.5225 0.83082 0.0
C273 C 1.03683 0.52365 0.83802 0.0
C274 C 1.04271 0.52254 0.85873 0.0
C275 C 1.01064 0.52073 0.87133 0.0
C276 C 1.02176 0.52196 0.89279 0.0
C277 C 1.0652 0.52394 0.89148 0.0
C278 C 1.0783 0.52397 0.87155 0.0
C279 C 0.97883 0.48283 0.90177 0.0
C280 C 1.03359 0.56026 0.90269 0.0
H281 H 0.21941 0.52641 0.90313 0.0
H282 H 0.21342 0.52098 0.82923 0.0
H283 H 0.19217 0.5881 0.84607 0.0
H284 H 0.13714 0.56559 0.83307 0.0
H285 H 0.17962 0.56049 0.82298 0.0
H286 H 0.09348 0.4595 0.84422 0.0
H287 H 0.12311 0.48574 0.82199 0.0
H288 H 1.07422 0.48293 0.83145 0.0
H289 H 0.15406 0.53208 0.96659 0.0
H290 H 1.03176 0.52935 0.97056 0.0
H291 H 1.02427 0.52504 0.935 0.0
H292 H 0.11131 0.46568 0.93281 0.0
H293 H 0.17414 0.49527 0.93763 0.0
H294 H 0.14888 0.47692 0.91277 0.0
H295 H 0.20332 0.59172 0.9318 0.0
H296 H 0.22475 0.57692 0.9134 0.0
H297 H 0.22328 0.56464 0.93897 0.0
H298 H 0.27471 0.52358 0.8851 0.0
C299 C 0.21659 0.52527 0.88723 0.0
C300 C 0.99917 0.42747 0.46056 0.0
C301 C 0.96276 0.39022 0.45158 0.0
C302 C 0.96008 0.38514 0.43073 0.0
C303 C 1.02837 0.45382 0.42772 0.0
C304 C 1.03177 0.45899 0.44827 0.0
C305 C 1.07296 0.50107 0.45478 0.0
H306 H 0.24954 0.68929 0.4268 0.0
C307 C 1.06596 0.49201 0.41904 0.0
C308 C 0.09251 0.52018 0.43475 0.0
H309 H 0.21653 0.64901 0.48695 0.0
H310 H 0.15368 0.58175 0.4743 0.0
H311 H 0.24659 0.62026 0.40957 0.0
H312 H 0.14344 0.64015 0.41047 0.0
H313 H 0.13884 0.61971 0.38669 0.0
H314 H 0.1944 0.66613 0.39475 0.0
H315 H 0.24898 0.65276 0.39282 0.0
H316 H 0.21584 0.60077 0.38663 0.0
C317 C 0.10922 0.50055 0.4667 0.0
C318 C 1.05302 0.51889 0.4667 0.0
C319 C 1.07608 0.5012 0.34357 0.0
C320 C 0.10589 0.53287 0.33102 0.0
C321 C 0.14122 0.57079 0.33962 0.0
C322 C 0.14682 0.57713 0.36033 0.0
C323 C 0.11678 0.54524 0.3727 0.0
C324 C 0.08211 0.5081 0.36428 0.0
C325 C 1.05318 0.47794 0.37979 0.0
C326 C 1.07673 0.50308 0.3989 0.0
C327 C 0.11379 0.54233 0.39461 0.0
C328 C 1.06026 0.44616 0.37726 0.0
C329 C 1.00082 0.46193 0.37742 0.0
C330 C 0.22854 0.66609 0.43731 0.0
C331 C 0.23734 0.67445 0.45786 0.0
C332 C 0.21014 0.6432 0.47101 0.0
C333 C 0.1737 0.60431 0.46364 0.0
C334 C 0.16495 0.59665 0.44291 0.0
C335 C 0.19288 0.62747 0.43023 0.0
C336 C 0.18088 0.61462 0.40869 0.0
C337 C 0.14063 0.57096 0.4103 0.0
C338 C 0.13068 0.56018 0.43033 0.0
C339 C 0.22522 0.62264 0.39874 0.0
C340 C 0.16377 0.63631 0.39948 0.0
H341 H 0.98822 0.41062 0.40298 0.0
H342 H 1.00182 0.43193 0.47662 0.0
H343 H 1.0213 0.51205 0.45886 0.0
H344 H 1.07876 0.55134 0.46844 0.0
H345 H 1.04194 0.50651 0.48175 0.0
H346 H 0.1131 0.47903 0.4597 0.0
H347 H 0.09745 0.49182 0.48225 0.0
H348 H 0.14535 0.52924 0.46702 0.0
H349 H 1.04825 0.47178 0.33743 0.0
H350 H 0.16512 0.59559 0.33031 0.0
H351 H 0.17444 0.60669 0.36587 0.0
H352 H 0.09709 0.45958 0.37246 0.0
H353 H 1.03522 0.42307 0.3658 0.0
H354 H 1.05626 0.43193 0.39131 0.0
H355 H 0.99913 0.48495 0.37188 0.0
H356 H 0.98182 0.45355 0.39168 0.0
H357 H 0.98051 0.43624 0.36663 0.0
H358 H 0.93226 0.35664 0.42365 0.0
C359 C 0.99259 0.41658 0.41878 0.0
C360 C 0.61429 0.9415 0.7798 0.0
C361 C 0.61262 0.91268 0.76841 0.0
C362 C 0.61332 0.91393 0.74746 0.0
C363 C 0.6163 0.97128 0.74938 0.0
C364 C 0.61575 0.97033 0.76996 0.0
C365 C 0.61561 1.00237 0.77948 0.0
H366 H 0.62159 0.16064 0.7676 0.0
C367 C 0.6172 1.00429 0.74368 0.0
C368 C 0.61671 0.02274 0.76122 0.0
H369 H 0.61144 0.10803 0.82286 0.0
H370 H 0.61228 0.05897 0.80468 0.0
H371 H 0.69802 0.15328 0.74601 0.0
H372 H 0.54541 0.08242 0.74517 0.0
H373 H 0.56039 0.07672 0.72116 0.0
H374 H 0.58184 0.12505 0.73035 0.0
H375 H 0.6662 0.16797 0.73484 0.0
H376 H 0.67809 0.1386 0.72105 0.0
C377 C 0.66133 0.02993 0.79255 0.0
C378 C 0.56878 0.98251 0.79106 0.0
C379 C 0.61807 0.02974 0.67027 0.0
C380 C 0.6159 0.05658 0.66032 0.0
C381 C 0.61629 0.08488 0.67157 0.0
C382 C 0.61832 0.08619 0.69244 0.0
C383 C 0.61947 0.05864 0.70222 0.0
C384 C 0.6194 0.03109 0.69115 0.0
C385 C 0.61876 1.00315 0.70409 0.0
C386 C 0.61833 0.01844 0.72475 0.0
C387 C 0.6191 0.05105 0.72354 0.0
C388 C 0.66528 1.0087 0.70051 0.0
C389 C 0.57224 0.96073 0.69927 0.0
C390 C 0.62025 0.13889 0.77581 0.0
C391 C 0.61718 0.13844 0.79666 0.0
C392 C 0.61398 0.10893 0.80678 0.0
C393 C 0.61453 0.08058 0.7962 0.0
C394 C 0.61758 0.08145 0.77528 0.0
C395 C 0.62 0.11018 0.76549 0.0
C396 C 0.6205 0.10569 0.74325 0.0
C397 C 0.61892 0.06997 0.74119 0.0
C398 C 0.61751 0.05588 0.75996 0.0
C399 C 0.66794 0.14333 0.73572 0.0
C400 C 0.575 0.0973 0.73437 0.0
H401 H 0.61572 0.94218 0.72196 0.0
H402 H 0.61348 0.94108 0.79592 0.0
H403 H 0.53879 0.95456 0.78324 0.0
H404 H 0.5571 1.00081 0.79219 0.0
H405 H 0.57228 0.97521 0.80628 0.0
H406 H 0.69264 0.03627 0.78464 0.0
H407 H 0.65796 0.01603 0.80675 0.0
H408 H 0.67035 0.05898 0.79604 0.0
H409 H 0.6171 1.0073 0.66199 0.0
H410 H 0.61497 0.106 0.66418 0.0
H411 H 0.61842 0.10838 0.70013 0.0
H412 H 0.69585 0.04035 0.69848 0.0
H413 H 0.66201 0.99177 0.68688 0.0
H414 H 0.67598 1.00018 0.71324 0.0
H415 H 0.54301 0.96115 0.69437 0.0
H416 H 0.55794 0.94207 0.7124 0.0
H417 H 0.57761 0.94581 0.68714 0.0
H418 H 0.61278 0.89244 0.73839 0.0
C419 C 0.61528 0.94302 0.73793 0.0
C420 C 0.57881 0.37036 0.13162 0.0
C421 C 0.58133 0.34308 0.12104 0.0
C422 C 0.57467 0.3391 0.10011 0.0
C423 C 0.57133 0.39338 0.10067 0.0
C424 C 0.57403 0.39509 0.12124 0.0
C425 C 0.57537 0.42792 0.1304 0.0
H426 H 0.57236 0.57987 0.11782 0.0
C427 C 0.57307 0.42669 0.0945 0.0
C428 C 0.57528 0.44687 0.11193 0.0
H429 H 0.56797 0.53005 0.17336 0.0
H430 H 0.57697 0.48578 0.15539 0.0
H431 H 0.65728 0.58316 0.09912 0.0
H432 H 0.50491 0.50222 0.09372 0.0
H433 H 0.52692 0.50698 0.06961 0.0
H434 H 0.54125 0.54997 0.08307 0.0
H435 H 0.62547 0.59102 0.08239 0.0
H436 H 0.64542 0.56314 0.07467 0.0
C437 C 0.62234 0.45628 0.14278 0.0
C438 C 0.52944 0.40911 0.14255 0.0
C439 C 0.58547 0.45814 0.0211 0.0
C440 C 0.59289 0.48997 0.01165 0.0
C441 C 0.59416 0.51846 0.02311 0.0
C442 C 0.58893 0.51584 0.04374 0.0
C443 C 0.58275 0.48454 0.05313 0.0
C444 C 0.58097 0.45624 0.04191 0.0
C445 C 0.57638 0.42626 0.0548 0.0
C446 C 0.57576 0.44142 0.07551 0.0
C447 C 0.57936 0.47545 0.0743 0.0
C448 C 0.62098 0.42874 0.05176 0.0
C449 C 0.52864 0.38524 0.04938 0.0
C450 C 0.57491 0.56048 0.12633 0.0
C451 C 0.56909 0.55847 0.14712 0.0
C452 C 0.57165 0.53191 0.15733 0.0
C453 C 0.57655 0.50602 0.14684 0.0
C454 C 0.57894 0.50669 0.12592 0.0
C455 C 0.57948 0.5344 0.11612 0.0
C456 C 0.58164 0.53075 0.09389 0.0
C457 C 0.58029 0.49512 0.09186 0.0
C458 C 0.57868 0.48113 0.1106 0.0
C459 C 0.62964 0.56894 0.087 0.0
C460 C 0.53664 0.52229 0.08441 0.0
H461 H 0.56631 0.36053 0.07394 0.0
H462 H 0.58434 0.37492 0.14762 0.0
H463 H 0.49874 0.38077 0.13527 0.0
H464 H 0.51802 0.42761 0.14356 0.0
H465 H 0.53395 0.4027 0.15782 0.0
H466 H 0.65212 0.45902 0.13542 0.0
H467 H 0.61874 0.44533 0.15793 0.0
H468 H 0.63442 0.48676 0.14418 0.0
H469 H 0.58477 0.43605 0.01259 0.0
H470 H 0.59931 0.54294 0.01604 0.0
H471 H 0.59029 0.53853 0.05156 0.0
H472 H 0.65353 0.46001 0.05071 0.0
H473 H 0.61759 0.41256 0.03778 0.0
H474 H 0.62832 0.41735 0.06427 0.0
H475 H 0.50033 0.38778 0.04606 0.0
H476 H 0.51475 0.36477 0.06173 0.0
H477 H 0.53219 0.37147 0.03599 0.0
H478 H 0.57549 0.31788 0.09155 0.0
C479 C 0.56962 0.36407 0.08989 0.0
H480 H 0.4114 0.62583 0.12513 0.0
H481 H 0.50252 0.5305 0.17635 0.0
H482 H 0.34812 0.56162 0.17877 0.0
H483 H 0.59483 0.6319 0.14029 0.0
H484 H 0.45475 0.55151 0.18302 0.0
H485 H 0.48566 0.63838 0.13438 0.0
C486 C 0.4136 0.61519 0.13908 0.0
C487 C 0.37347 0.59203 0.15101 0.0
C488 C 0.48622 0.56988 0.17409 0.0
C489 C 0.45773 0.60561 0.16155 0.0
C490 C 0.51395 0.558 0.17037 0.0
C491 C 0.55174 0.57853 0.15701 0.0
C492 C 0.49569 0.60186 0.16399 0.0
C493 C 0.56462 0.61409 0.14991 0.0
C494 C 0.45602 0.62253 0.14444 0.0
C495 C 0.37822 0.57937 0.16908 0.0
N496 N 0.53565 0.62391 0.1529 0.0
N497 N 0.41921 0.58544 0.17356 0.0
H498 H 0.77643 0.15093 0.49003 0.0
H499 H 0.87557 0.36769 0.46082 0.0
H500 H 0.68745 0.18137 0.47312 0.0
H501 H 0.96496 0.33384 0.46678 0.0
H502 H 0.80754 0.30276 0.47206 0.0
H503 H 0.84665 0.22038 0.48766 0.0
C504 C 0.77155 0.17221 0.48601 0.0
C505 C 0.7259 0.16013 0.4816 0.0
C506 C 0.84219 0.30971 0.47132 0.0
C507 C 0.80619 0.23974 0.47894 0.0
C508 C 0.88103 0.3469 0.46515 0.0
C509 C 0.92581 0.35609 0.46321 0.0
C510 C 0.84811 0.28136 0.47537 0.0
C511 C 0.93101 0.32791 0.46843 0.0
C512 C 0.8117 0.21186 0.48464 0.0
C513 C 0.72188 0.18913 0.47648 0.0
N514 N 0.89251 0.29163 0.47412 0.0
N515 N 0.76143 0.22744 0.47522 0.0
H516 H 0.69277 0.78555 0.82545 0.0
H517 H 0.55232 0.83382 0.75889 0.0
H518 H 0.57486 0.70081 0.78564 0.0
H519 H 0.66781 0.91984 0.79925 0.0
H520 H 0.55531 0.78317 0.77129 0.0
H521 H 0.67976 0.83347 0.81882 0.0
C522 C 0.66378 0.77684 0.81551 0.0
C523 C 0.63516 0.73921 0.80592 0.0
C524 C 0.57981 0.813 0.7776 0.0
C525 C 0.62034 0.794 0.79815 0.0
C526 C 0.57812 0.84193 0.7705 0.0
C527 C 0.61025 0.88113 0.77789 0.0
C528 C 0.61421 0.82329 0.79212 0.0
C529 C 0.64243 0.88993 0.79316 0.0
C530 C 0.65651 0.80428 0.81167 0.0
C531 C 0.59839 0.72971 0.79306 0.0
N532 N 0.64402 0.86131 0.79961 0.0
N533 N 0.59226 0.75695 0.78948 0.0
H534 H 0.76688 0.40615 0.20547 0.0
H535 H 0.64225 0.32968 0.10677 0.0
H536 H 0.81214 0.36307 0.16039 0.0
H537 H 0.56438 0.31654 0.15943 0.0
H538 H 0.69482 0.32608 0.12705 0.0
H539 H 0.68572 0.36077 0.19176 0.0
C540 C 0.75927 0.38614 0.19309 0.0
C541 C 0.79621 0.38887 0.18375 0.0
C542 C 0.66537 0.32275 0.13416 0.0
C543 C 0.70408 0.33783 0.16762 0.0
C544 C 0.63487 0.32455 0.12248 0.0
C545 C 0.60002 0.32536 0.13149 0.0
C546 C 0.66181 0.32288 0.155 0.0
C547 C 0.5924 0.31822 0.15196 0.0
C548 C 0.71295 0.36014 0.18526 0.0
C549 C 0.78463 0.36212 0.16787 0.0
N550 N 0.62423 0.31885 0.16318 0.0
N551 N 0.7398 0.33855 0.15987 0.0
H552 H 0.43186 0.9284 0.46034 0.0
H553 H 0.3138 0.70406 0.4832 0.0
H554 H 0.50763 0.89647 0.49143 0.0
H555 H 0.24715 0.73939 0.44793 0.0
H556 H 0.38186 0.77422 0.48989 0.0
H557 H 0.36128 0.85932 0.45873 0.0
C558 C 0.43375 0.90689 0.46686 0.0
C559 C 0.47604 0.91842 0.47592 0.0
C560 C 0.35207 0.76656 0.48087 0.0
C561 C 0.39466 0.83864 0.47415 0.0
C562 C 0.31312 0.7266 0.47721 0.0
C563 C 0.275 0.71601 0.46492 0.0
C564 C 0.35257 0.79596 0.47225 0.0
C565 C 0.27604 0.7463 0.45734 0.0
C566 C 0.39324 0.8673 0.46596 0.0
C567 C 0.47593 0.88899 0.48421 0.0
N568 N 0.31419 0.78473 0.46103 0.0
N569 N 0.43594 0.85044 0.48306 0.0
H570 H 0.51044 0.25263 0.84958 0.0
H571 H 0.67782 0.21823 0.793 0.0
H572 H 0.65291 0.34791 0.83138 0.0
H573 H 0.5531 0.12624 0.82435 0.0
H574 H 0.66974 0.26631 0.80751 0.0
H575 H 0.52554 0.20595 0.8413 0.0
C576 C 0.54512 0.26388 0.84411 0.0
C577 C 0.58027 0.30437 0.841 0.0
C578 C 0.64441 0.23572 0.81144 0.0
C579 C 0.59743 0.25081 0.83115 0.0
C580 C 0.64899 0.20829 0.80313 0.0
C581 C 0.61594 0.16825 0.80744 0.0
C582 C 0.60604 0.22297 0.82392 0.0
C583 C 0.57942 0.1569 0.82073 0.0
C584 C 0.55362 0.23712 0.83929 0.0
C585 C 0.62429 0.31695 0.8336 0.0
N586 N 0.57505 0.18406 0.82832 0.0
N587 N 0.63142 0.29028 0.82876 0.0
H588 H 0.56521 0.82604 0.53147 0.0
H589 H 0.65667 0.69962 0.51365 0.0
H590 H 0.67275 0.85585 0.48894 0.0
H591 H 0.55102 0.67277 0.55654 0.0
H592 H 0.65676 0.75238 0.50147 0.0
H593 H 0.5538 0.7657 0.5382 0.0
C594 C 0.58636 0.81982 0.52351 0.0
C595 C 0.62034 0.84625 0.50978 0.0
C596 C 0.63325 0.73469 0.51342 0.0
C597 C 0.60741 0.77703 0.51737 0.0
C598 C 0.63299 0.70444 0.52029 0.0
C599 C 0.60427 0.68216 0.53631 0.0
C600 C 0.60449 0.74257 0.52263 0.0
C601 C 0.57444 0.68977 0.54443 0.0
C602 C 0.5797 0.78525 0.52729 0.0
C603 C 0.64606 0.83625 0.4996 0.0
N604 N 0.5756 0.71947 0.53761 0.0
N605 N 0.6394 0.80262 0.50374 0.0
H606 H 0.77927 0.58049 0.81903 0.0
H607 H 0.87196 0.46131 0.85188 0.0
H608 H 0.68986 0.46532 0.84409 0.0
H609 H 0.96276 0.5724 0.82318 0.0
H610 H 0.80463 0.46165 0.84749 0.0
H611 H 0.846 0.5781 0.81926 0.0
C612 C 0.77345 0.55464 0.82455 0.0
C613 C 0.7284 0.52312 0.83161 0.0
C614 C 0.839 0.48583 0.84189 0.0
C615 C 0.80538 0.52021 0.83189 0.0
C616 C 0.87755 0.48549 0.84427 0.0
C617 C 0.92325 0.51665 0.83771 0.0
C618 C 0.84569 0.5179 0.83307 0.0
C619 C 0.92817 0.54744 0.8282 0.0
C620 C 0.81174 0.5533 0.82464 0.0
C621 C 0.72359 0.49048 0.83853 0.0
N622 N 0.89013 0.54747 0.82634 0.0
N623 N 0.76131 0.49 0.83854 0.0
H624 H 0.24829 0.63464 0.13869 0.0
H625 H 0.34729 0.84966 0.18011 0.0
H626 H 0.16209 0.65956 0.16841 0.0
H627 H 0.4339 0.8289 0.14729 0.0
H628 H 0.27807 0.7806 0.17391 0.0
H629 H 0.31564 0.70542 0.14015 0.0
C630 C 0.24338 0.65492 0.14548 0.0
C631 C 0.19928 0.64091 0.15352 0.0
C632 C 0.31199 0.79106 0.16784 0.0
C633 C 0.27651 0.72222 0.15519 0.0
C634 C 0.35152 0.83057 0.17134 0.0
C635 C 0.39644 0.84501 0.16425 0.0
C636 C 0.31723 0.76537 0.15734 0.0
C637 C 0.39985 0.81901 0.15291 0.0
C638 C 0.28192 0.6954 0.14626 0.0
C639 C 0.19528 0.66877 0.16209 0.0
N640 N 0.36089 0.78031 0.15 0.0
N641 N 0.23332 0.70791 0.16274 0.0
H642 H 0.51119 0.21226 0.46015 0.0
H643 H 0.68036 0.42024 0.51881 0.0
H644 H 0.65463 0.26481 0.4795 0.0
H645 H 0.55296 0.3818 0.48717 0.0
H646 H 0.67231 0.36411 0.50374 0.0
H647 H 0.52627 0.27447 0.46884 0.0
C648 C 0.54609 0.23698 0.46595 0.0
C649 C 0.58152 0.23301 0.46926 0.0
C650 C 0.64637 0.36812 0.49987 0.0
C651 C 0.59867 0.30421 0.47959 0.0
C652 C 0.65093 0.40011 0.5085 0.0
C653 C 0.61713 0.40547 0.50428 0.0
C654 C 0.60728 0.34086 0.48714 0.0
C655 C 0.57987 0.37875 0.49073 0.0
C656 C 0.55458 0.27248 0.471 0.0
C657 C 0.62582 0.26607 0.47709 0.0
N658 N 0.57556 0.34725 0.48282 0.0
N659 N 0.63295 0.30007 0.48215 0.0
H660 H 0.52295 0.57954 0.82661 0.0
H661 H 0.24506 0.45724 0.85247 0.0
H662 H 0.43352 0.46004 0.84639 0.0
H663 H 0.33611 0.58074 0.84002 0.0
H664 H 0.31145 0.45593 0.84605 0.0
H665 H 0.45428 0.57922 0.82802 0.0
C666 C 0.48896 0.55314 0.83121 0.0
C667 C 0.48456 0.51978 0.83647 0.0
C668 C 0.3169 0.48323 0.8443 0.0
C669 C 0.40491 0.51919 0.83795 0.0
C670 C 0.27863 0.48381 0.84767 0.0
C671 C 0.28438 0.51886 0.84624 0.0
C672 C 0.36204 0.51814 0.83965 0.0
C673 C 0.3295 0.55278 0.84074 0.0
C674 C 0.4496 0.55302 0.832 0.0
C675 C 0.43916 0.48658 0.84228 0.0
N676 N 0.36647 0.55164 0.83777 0.0
N677 N 0.40149 0.48716 0.84285 0.0
H678 H 1.00855 0.37315 0.13941 0.0
H679 H 0.73074 0.21111 0.16291 0.0
H680 H 0.9149 0.40132 0.15289 0.0
H681 H 0.83191 0.18898 0.16657 0.0
H682 H 0.79438 0.2778 0.15167 0.0
H683 H 0.94091 0.30275 0.14206 0.0
C684 C 0.97369 0.36453 0.1427 0.0
C685 C 0.96753 0.39322 0.14623 0.0
C686 C 0.80248 0.25808 0.15451 0.0
C687 C 0.88997 0.31277 0.14918 0.0
C688 C 0.76608 0.21993 0.16068 0.0
C689 C 0.77614 0.19452 0.16537 0.0
C690 C 0.84926 0.27082 0.153 0.0
C691 C 0.82274 0.20764 0.16282 0.0
C692 C 0.93515 0.32437 0.14429 0.0
C693 C 0.92151 0.3803 0.15046 0.0
N694 N 0.85764 0.24493 0.1569 0.0
N695 N 0.88461 0.34113 0.15188 0.0
H696 H 1.07872 0.58512 0.09481 0.0
H697 H 0.10678 0.49041 -0.00328 0.0
H698 H 1.07618 0.48432 0.09567 0.0
H699 H 0.08967 0.58049 0.99621 0.0
H700 H 0.10557 0.49276 0.03331 0.0
H701 H 0.09195 0.58852 0.05893 0.0
C702 C 0.08107 0.56376 0.08741 0.0
C703 C 1.07602 0.53424 0.09811 0.0
C704 C 0.10236 0.51215 0.02516 0.0
C705 C 0.09123 0.5379 0.05709 0.0
C706 C 0.10336 0.51099 0.00433 0.0
C707 C 0.09781 0.53499 0.99346 0.0
C708 C 0.09612 0.53771 0.03513 0.0
C709 C 0.09325 0.561 0.00401 0.0
C710 C 0.08865 0.56569 0.06694 0.0
C711 C 1.07968 0.50744 0.08788 0.0
N712 N 0.09231 0.56155 0.02422 0.0
N713 N 0.0869 0.5098 0.06789 0.0
H714 H 0.54398 0.9887 0.42403 0.0
H715 H 0.64449 0.08944 0.32121 0.0
H716 H 0.69442 0.084 0.41905 0.0
H717 H 0.54798 0.9622 0.32476 0.0
H718 H 0.65515 0.09506 0.35748 0.0
H719 H 0.53522 0.98611 0.38765 0.0
C720 C 0.57504 1.00929 0.41526 0.0
C721 C 0.62006 0.03641 0.42439 0.0
C722 C 0.63162 0.06605 0.35015 0.0
C723 C 0.61008 0.03409 0.38312 0.0
C724 C 0.62567 0.06265 0.32942 0.0
C725 C 0.59501 0.02519 0.31963 0.0
C726 C 0.60583 0.03189 0.36121 0.0
C727 C 0.57091 0.99178 0.33142 0.0
C728 C 0.57004 1.00768 0.3946 0.0
C729 C 0.65923 0.06248 0.41244 0.0
N730 N 0.57646 0.99595 0.35156 0.0
N731 N 0.65333 0.06089 0.39233 0.0
H732 H 0.66211 0.55259 0.78087 0.0
H733 H 0.55884 0.45075 0.67311 0.0
H734 H 0.51691 0.44775 0.77032 0.0
H735 H 0.67409 0.57562 0.68122 0.0
H736 H 0.54906 0.44623 0.70926 0.0
H737 H 0.67286 0.55935 0.7447 0.0
C738 C 0.63243 0.53123 0.77094 0.0
C739 C 0.58847 0.49971 0.77852 0.0
C740 C 0.57649 0.47462 0.70313 0.0
C741 C 0.60083 0.50668 0.73738 0.0
C742 C 0.58231 0.47715 0.68256 0.0
C743 C 0.61738 0.51359 0.67426 0.0
C744 C 0.60641 0.50868 0.71551 0.0
C745 C 0.6465 0.54702 0.6871 0.0
C746 C 0.63861 0.53505 0.75036 0.0
C747 C 0.55134 0.47251 0.76506 0.0
N748 N 0.64058 0.54375 0.70715 0.0
N749 N 0.55847 0.47644 0.74512 0.0
H750 H 0.50963 0.02093 0.53999 0.0
H751 H 0.66879 0.05165 0.63272 0.0
H752 H 0.65466 0.06471 0.53339 0.0
H753 H 0.55177 0.05533 0.63807 0.0
H754 H 0.65923 0.04694 0.59625 0.0
H755 H 0.51935 0.02355 0.57617 0.0
C756 C 0.54346 0.0309 0.54618 0.0
C757 C 0.58141 0.04259 0.53374 0.0
C758 C 0.63579 0.04888 0.60545 0.0
C759 C 0.59267 0.04544 0.57504 0.0
C760 C 0.64108 0.05139 0.62619 0.0
C761 C 0.61116 0.05409 0.63834 0.0
C762 C 0.59977 0.04832 0.59691 0.0
C763 C 0.57591 0.05377 0.6292 0.0
C764 C 0.54902 0.0325 0.5668 0.0
C765 C 0.62446 0.05522 0.54249 0.0
N766 N 0.571 0.05072 0.60903 0.0
N767 N 0.62893 0.05622 0.56266 0.0
H768 H 0.70249 0.58537 0.89596 0.0
H769 H 0.53683 0.43655 0.98117 0.0
H770 H 0.55324 0.48805 0.88613 0.0
H771 H 0.66671 0.55465 0.99315 0.0
H772 H 0.54752 0.44854 0.94526 0.0
H773 H 0.69481 0.56833 0.9309 0.0
C774 C 0.66815 0.56032 0.90117 0.0
C775 C 0.62843 0.53807 0.88823 0.0
C776 C 0.57376 0.47167 0.95578 0.0
C777 C 0.61946 0.51823 0.92802 0.0
C778 C 0.56785 0.46475 0.97617 0.0
C779 C 0.6008 0.4948 0.99 0.0
C780 C 0.61326 0.50865 0.94931 0.0
C781 C 0.6403 0.53092 0.9829 0.0
C782 C 0.66379 0.55061 0.92107 0.0
C783 C 0.58476 0.50583 0.89567 0.0
N784 N 0.64543 0.53686 0.96305 0.0
N785 N 0.5814 0.4968 0.91512 0.0
H786 H 0.08898 0.45209 0.2088 0.0
H787 H 0.10924 0.57976 0.30366 0.0
H788 H 0.11187 0.56197 0.20522 0.0
H789 H 0.09091 0.47192 0.30832 0.0
H790 H 0.10573 0.57144 0.26743 0.0
H791 H 0.0854 0.4566 0.2452 0.0
C792 C 0.09307 0.47706 0.21571 0.0
C793 C 0.10052 0.50661 0.20409 0.0
C794 C 0.10232 0.54949 0.27634 0.0
C795 C 0.09654 0.51206 0.24551 0.0
C796 C 0.10453 0.55433 0.29704 0.0
C797 C 0.10079 0.52668 0.30903 0.0
C798 C 0.09643 0.51679 0.26749 0.0
C799 C 0.09371 0.49385 0.29964 0.0
C800 C 0.09096 0.47961 0.23644 0.0
C801 C 0.1056 0.53836 0.21367 0.0
N802 N 0.09204 0.48993 0.27941 0.0
N803 N 0.10361 0.54028 0.23383 0.0
loop_
_geom_bond_atom_site_label_1
_geom_bond_atom_site_label_2
_geom_bond_distance
_geom_bond_site_symmetry_2
_ccdc_geom_bond_type
La0 C2 2.928 . S
La0 O20 2.521 . S
La0 O21 2.628 . S
La0 O22 2.554 . S
La0 O23 2.757 . S
La0 O24 2.470 . S
La0 O29 2.482 . S
La0 O31 2.503 1_455 S
La1 C11 2.928 . S
La1 O23 2.482 1_655 S
La1 O25 2.503 1_655 S
La1 O26 2.521 . S
La1 O27 2.628 . S
La1 O28 2.554 . S
La1 O29 2.757 1_655 S
La1 O30 2.470 . S
C2 La0 2.928 . S
C2 C3 1.503 . S
C2 O20 1.261 . S
C2 O21 1.243 . S
C3 C2 1.503 . S
C3 C4 1.394 . S
C3 C8 1.373 . S
C4 C3 1.394 . S
C4 C5 1.380 . S
C4 H32 0.930 . S
C5 C4 1.380 . S
C5 C6 1.376 . S
C5 H33 0.930 . S
C6 C5 1.376 . S
C6 C7 1.370 . S
C7 C6 1.370 . S
C7 C8 1.396 . S
C7 H34 0.929 . S
C8 C3 1.373 . S
C8 C7 1.396 . S
C8 H35 0.929 . S
C9 O22 1.240 . S
C9 O23 1.289 . S
C10 O24 1.258 . S
C10 O25 1.256 . S
C11 La1 2.928 . S
C11 C12 1.503 . S
C11 O26 1.261 . S
C11 O27 1.243 . S
C12 C11 1.503 . S
C12 C13 1.394 . S
C12 C17 1.373 . S
C13 C12 1.394 . S
C13 C14 1.380 . S
C13 H36 0.930 . S
C14 C13 1.380 . S
C14 C15 1.376 . S
C14 H37 0.930 . S
C15 C14 1.376 . S
C15 C16 1.370 . S
C16 C15 1.370 . S
C16 C17 1.396 . S
C16 H38 0.929 . S
C17 C12 1.373 . S
C17 C16 1.396 . S
C17 H39 0.929 . S
C18 O28 1.240 1_455 S
C18 O29 1.289 . S
C19 O30 1.258 . S
C19 O31 1.256 . S
O20 La0 2.521 . S
O20 C2 1.261 . S
O21 La0 2.628 . S
O21 C2 1.243 . S
O22 La0 2.554 . S
O22 C9 1.240 . S
O23 La0 2.757 . S
O23 La1 2.482 1_455 S
O23 C9 1.289 . S
O24 La0 2.470 . S
O24 C10 1.258 . S
O25 La1 2.503 1_455 S
O25 C10 1.256 . S
O26 La1 2.521 . S
O26 C11 1.261 . S
O27 La1 2.628 . S
O27 C11 1.243 . S
O28 La1 2.554 . S
O28 C18 1.240 1_655 S
O29 La0 2.482 . S
O29 La1 2.757 1_455 S
O29 C18 1.289 . S
O30 La1 2.470 . S
O30 C19 1.258 . S
O31 La0 2.503 1_655 S
O31 C19 1.256 . S
H32 C4 0.930 . S
H33 C5 0.930 . S
H34 C7 0.929 . S
H35 C8 0.929 . S
H36 C13 0.930 . S
H37 C14 0.930 . S
H38 C16 0.929 . S
H39 C17 0.929 . S
La40 C42 2.928 . S
La40 O60 2.521 . S
La40 O61 2.628 . S
La40 O62 2.554 . S
La40 O63 2.757 1_565 S
La40 O64 2.470 . S
La40 O69 2.482 . S
La40 O71 2.503 1_565 S
La41 C51 2.928 . S
La41 O63 2.482 . S
La41 O65 2.503 1_545 S
La41 O66 2.521 . S
La41 O67 2.628 . S
La41 O68 2.554 . S
La41 O69 2.757 1_545 S
La41 O70 2.470 . S
C42 La40 2.928 . S
C42 C43 1.503 . S
C42 O60 1.261 . S
C42 O61 1.243 . S
C43 C42 1.503 . S
C43 C44 1.394 . S
C43 C48 1.373 . S
C44 C43 1.394 . S
C44 C45 1.380 . S
C44 H72 0.930 . S
C45 C44 1.380 . S
C45 C46 1.376 . S
C45 H73 0.930 . S
C46 C45 1.376 . S
C46 C47 1.370 . S
C47 C46 1.370 . S
C47 C48 1.396 . S
C47 H74 0.929 . S
C48 C43 1.373 . S
C48 C47 1.396 . S
C48 H75 0.929 . S
C49 O62 1.240 1_545 S
C49 O63 1.289 . S
C50 O64 1.258 . S
C50 O65 1.256 . S
C51 La41 2.928 . S
C51 C52 1.503 . S
C51 O66 1.261 . S
C51 O67 1.243 . S
C52 C51 1.503 . S
C52 C53 1.394 . S
C52 C57 1.373 . S
C53 C52 1.394 . S
C53 C54 1.380 . S
C53 H76 0.930 . S
C54 C53 1.380 . S
C54 C55 1.376 . S
C54 H77 0.930 . S
C55 C54 1.376 . S
C55 C56 1.370 . S
C56 C55 1.370 . S
C56 C57 1.396 . S
C56 H78 0.929 . S
C57 C52 1.373 . S
C57 C56 1.396 . S
C57 H79 0.929 . S
C58 O68 1.240 . S
C58 O69 1.289 1_545 S
C59 O70 1.258 . S
C59 O71 1.256 . S
O60 La40 2.521 . S
O60 C42 1.261 . S
O61 La40 2.628 . S
O61 C42 1.243 . S
O62 La40 2.554 . S
O62 C49 1.240 1_565 S
O63 La40 2.757 1_545 S
O63 La41 2.482 . S
O63 C49 1.289 . S
O64 La40 2.470 . S
O64 C50 1.258 . S
O65 La41 2.503 1_565 S
O65 C50 1.256 . S
O66 La41 2.521 . S
O66 C51 1.261 . S
O67 La41 2.628 . S
O67 C51 1.243 . S
O68 La41 2.554 . S
O68 C58 1.240 . S
O69 La40 2.482 . S
O69 La41 2.757 1_565 S
O69 C58 1.289 1_565 S
O70 La41 2.470 . S
O70 C59 1.258 . S
O71 La40 2.503 1_545 S
O71 C59 1.256 . S
H72 C44 0.930 . S
H73 C45 0.930 . S
H74 C47 0.929 . S
H75 C48 0.929 . S
H76 C53 0.930 . S
H77 C54 0.930 . S
H78 C56 0.929 . S
H79 C57 0.929 . S
La80 C82 2.928 . S
La80 O100 2.521 . S
La80 O101 2.628 . S
La80 O102 2.554 . S
La80 O103 2.757 . S
La80 O104 2.470 . S
La80 O109 2.482 . S
La80 O111 2.503 . S
La81 C91 2.928 . S
La81 O103 2.482 . S
La81 O105 2.503 . S
La81 O106 2.521 . S
La81 O107 2.628 . S
La81 O108 2.554 . S
La81 O109 2.757 . S
La81 O110 2.470 . S
C82 La80 2.928 . S
C82 C83 1.503 . S
C82 O100 1.261 . S
C82 O101 1.243 . S
C83 C82 1.503 . S
C83 C84 1.394 . S
C83 C88 1.373 . S
C84 C83 1.394 . S
C84 C85 1.380 . S
C84 H112 0.930 . S
C85 C84 1.380 . S
C85 C86 1.376 . S
C85 H113 0.930 . S
C86 C85 1.376 . S
C86 C87 1.370 . S
C87 C86 1.370 . S
C87 C88 1.396 . S
C87 H114 0.929 . S
C88 C83 1.373 . S
C88 C87 1.396 . S
C88 H115 0.929 . S
C89 O102 1.240 . S
C89 O103 1.289 . S
C90 O104 1.258 . S
C90 O105 1.256 . S
C91 La81 2.928 . S
C91 C92 1.503 . S
C91 O106 1.261 . S
C91 O107 1.243 . S
C92 C91 1.503 . S
C92 C93 1.394 . S
C92 C97 1.373 . S
C93 C92 1.394 . S
C93 C94 1.380 . S
C93 H116 0.930 . S
C94 C93 1.380 . S
C94 C95 1.376 . S
C94 H117 0.930 . S
C95 C94 1.376 . S
C95 C96 1.370 . S
C96 C95 1.370 . S
C96 C97 1.396 . S
C96 H118 0.929 . S
C97 C92 1.373 . S
C97 C96 1.396 . S
C97 H119 0.929 . S
C98 O108 1.240 . S
C98 O109 1.289 . S
C99 O110 1.258 . S
C99 O111 1.256 . S
O100 La80 2.521 . S
O100 C82 1.261 . S
O101 La80 2.628 . S
O101 C82 1.243 . S
O102 La80 2.554 . S
O102 C89 1.240 . S
O103 La80 2.757 . S
O103 La81 2.482 . S
O103 C89 1.289 . S
O104 La80 2.470 . S
O104 C90 1.258 . S
O105 La81 2.503 . S
O105 C90 1.256 . S
O106 La81 2.521 . S
O106 C91 1.261 . S
O107 La81 2.628 . S
O107 C91 1.243 . S
O108 La81 2.554 . S
O108 C98 1.240 . S
O109 La80 2.482 . S
O109 La81 2.757 . S
O109 C98 1.289 . S
O110 La81 2.470 . S
O110 C99 1.258 . S
O111 La80 2.503 . S
O111 C99 1.256 . S
H112 C84 0.930 . S
H113 C85 0.930 . S
H114 C87 0.929 . S
H115 C88 0.929 . S
H116 C93 0.930 . S
H117 C94 0.930 . S
H118 C96 0.929 . S
H119 C97 0.929 . S
C120 C121 1.391 . S
C120 C124 1.391 . S
C120 H162 0.948 . S
C121 C120 1.391 . S
C121 C122 1.391 . S
C122 C121 1.391 . S
C122 H178 0.947 . S
C122 C179 1.392 . S
C123 C124 1.391 . S
C123 C127 1.397 . S
C123 C179 1.419 . S
C124 C120 1.391 . S
C124 C123 1.391 . S
C124 C125 1.399 . S
C125 C124 1.399 . S
C125 C128 1.396 . S
C125 C137 1.453 . S
C125 C138 1.684 . S
H126 C150 0.948 . S
C127 C123 1.397 . S
C127 C128 1.394 . S
C127 C146 1.723 . S
C128 C125 1.396 . S
C128 C127 1.394 . S
C128 C158 1.723 1_545 S
H129 C152 0.947 . S
H130 C153 0.948 . S
H131 C159 0.982 . S
H132 C160 0.979 . S
H133 C160 0.980 . S
H134 C160 0.983 . S
H135 C159 0.979 . S
H136 C159 0.977 . S
C137 C125 1.453 . S
C137 H166 0.982 . S
C137 H167 0.979 . S
C137 H168 0.977 1_545 S
C138 C125 1.684 . S
C138 H163 0.979 . S
C138 H164 0.980 . S
C138 H165 0.983 . S
C139 C140 1.391 . S
C139 C144 1.391 . S
C139 H169 0.948 . S
C140 C139 1.391 . S
C140 C141 1.391 1_545 S
C141 C140 1.391 1_565 S
C141 C142 1.392 . S
C141 H170 0.947 . S
C142 C141 1.392 . S
C142 C143 1.419 1_565 S
C142 H171 0.948 . S
C143 C142 1.419 1_545 S
C143 C144 1.391 . S
C143 C147 1.397 . S
C144 C139 1.391 . S
C144 C143 1.391 . S
C144 C145 1.399 . S
C145 C144 1.399 . S
C145 C146 1.396 . S
C145 C148 1.453 . S
C145 C149 1.684 . S
C146 C127 1.723 . S
C146 C145 1.396 . S
C146 C147 1.394 . S
C147 C143 1.397 . S
C147 C146 1.394 . S
C147 C157 1.723 1_545 S
C148 C145 1.453 . S
C148 H172 0.982 . S
C148 H173 0.979 . S
C148 H174 0.977 . S
C149 C145 1.684 . S
C149 H175 0.979 . S
C149 H176 0.980 . S
C149 H177 0.983 . S
C150 H126 0.948 . S
C150 C151 1.391 . S
C150 C155 1.391 . S
C151 C150 1.391 . S
C151 C152 1.391 . S
C152 H129 0.947 . S
C152 C151 1.391 . S
C152 C153 1.392 . S
C153 H130 0.948 . S
C153 C152 1.392 . S
C153 C154 1.419 . S
C154 C153 1.419 . S
C154 C155 1.391 . S
C154 C158 1.397 . S
C155 C150 1.391 . S
C155 C154 1.391 . S
C155 C156 1.399 . S
C156 C155 1.399 . S
C156 C157 1.396 . S
C156 C159 1.453 . S
C156 C160 1.684 . S
C157 C147 1.723 1_565 S
C157 C156 1.396 . S
C157 C158 1.394 . S
C158 C128 1.723 1_565 S
C158 C154 1.397 . S
C158 C157 1.394 . S
C159 H131 0.982 . S
C159 H135 0.979 . S
C159 H136 0.977 . S
C159 C156 1.453 . S
C160 H132 0.979 . S
C160 H133 0.980 . S
C160 H134 0.983 . S
C160 C156 1.684 . S
H161 C179 0.948 . S
H162 C120 0.948 . S
H163 C138 0.979 . S
H164 C138 0.980 . S
H165 C138 0.983 . S
H166 C137 0.982 . S
H167 C137 0.979 . S
H168 C137 0.977 1_565 S
H169 C139 0.948 . S
H170 C141 0.947 . S
H171 C142 0.948 . S
H172 C148 0.982 . S
H173 C148 0.979 . S
H174 C148 0.977 . S
H175 C149 0.979 . S
H176 C149 0.980 . S
H177 C149 0.983 . S
H178 C122 0.947 . S
C179 C122 1.392 . S
C179 C123 1.419 . S
C179 H161 0.948 . S
C180 C181 1.391 . S
C180 C184 1.391 . S
C180 H222 0.948 . S
C181 C180 1.391 . S
C181 C182 1.391 . S
C182 C181 1.391 . S
C182 H238 0.947 . S
C182 C239 1.392 . S
C183 C184 1.391 . S
C183 C187 1.397 . S
C183 C239 1.419 . S
C184 C180 1.391 . S
C184 C183 1.391 . S
C184 C185 1.399 . S
C185 C184 1.399 . S
C185 C188 1.396 . S
C185 C197 1.453 . S
C185 C198 1.684 . S
H186 C210 0.948 . S
C187 C183 1.397 . S
C187 C188 1.394 . S
C187 C206 1.723 . S
C188 C185 1.396 . S
C188 C187 1.394 . S
C188 C218 1.723 . S
H189 C212 0.947 . S
H190 C213 0.948 . S
H191 C219 0.982 . S
H192 C220 0.979 . S
H193 C220 0.980 . S
H194 C220 0.983 . S
H195 C219 0.979 . S
H196 C219 0.977 . S
C197 C185 1.453 . S
C197 H226 0.982 . S
C197 H227 0.979 . S
C197 H228 0.977 . S
C198 C185 1.684 . S
C198 H223 0.979 . S
C198 H224 0.980 . S
C198 H225 0.983 . S
C199 C200 1.391 . S
C199 C204 1.391 . S
C199 H229 0.948 . S
C200 C199 1.391 . S
C200 C201 1.391 . S
C201 C200 1.391 . S
C201 C202 1.392 . S
C201 H230 0.947 . S
C202 C201 1.392 . S
C202 C203 1.419 . S
C202 H231 0.948 . S
C203 C202 1.419 . S
C203 C204 1.391 . S
C203 C207 1.397 . S
C204 C199 1.391 . S
C204 C203 1.391 . S
C204 C205 1.399 . S
C205 C204 1.399 . S
C205 C206 1.396 . S
C205 C208 1.453 . S
C205 C209 1.684 . S
C206 C187 1.723 . S
C206 C205 1.396 . S
C206 C207 1.394 . S
C207 C203 1.397 . S
C207 C206 1.394 . S
C207 C217 1.723 . S
C208 C205 1.453 . S
C208 H232 0.982 . S
C208 H233 0.979 . S
C208 H234 0.977 . S
C209 C205 1.684 . S
C209 H235 0.979 . S
C209 H236 0.980 . S
C209 H237 0.983 . S
C210 H186 0.948 . S
C210 C211 1.391 . S
C210 C215 1.391 . S
C211 C210 1.391 . S
C211 C212 1.391 . S
C212 H189 0.947 . S
C212 C211 1.391 . S
C212 C213 1.392 . S
C213 H190 0.948 . S
C213 C212 1.392 . S
C213 C214 1.419 . S
C214 C213 1.419 . S
C214 C215 1.391 . S
C214 C218 1.397 . S
C215 C210 1.391 . S
C215 C214 1.391 . S
C215 C216 1.399 . S
C216 C215 1.399 . S
C216 C217 1.396 . S
C216 C219 1.453 . S
C216 C220 1.684 . S
C217 C207 1.723 . S
C217 C216 1.396 . S
C217 C218 1.394 . S
C218 C188 1.723 . S
C218 C214 1.397 . S
C218 C217 1.394 . S
C219 H191 0.982 . S
C219 H195 0.979 . S
C219 H196 0.977 . S
C219 C216 1.453 . S
C220 H192 0.979 . S
C220 H193 0.980 . S
C220 H194 0.983 . S
C220 C216 1.684 . S
H221 C239 0.948 . S
H222 C180 0.948 . S
H223 C198 0.979 . S
H224 C198 0.980 . S
H225 C198 0.983 . S
H226 C197 0.982 . S
H227 C197 0.979 . S
H228 C197 0.977 . S
H229 C199 0.948 . S
H230 C201 0.947 . S
H231 C202 0.948 . S
H232 C208 0.982 . S
H233 C208 0.979 . S
H234 C208 0.977 . S
H235 C209 0.979 . S
H236 C209 0.980 . S
H237 C209 0.983 . S
H238 C182 0.947 . S
C239 C182 1.392 . S
C239 C183 1.419 . S
C239 H221 0.948 . S
C240 C241 1.391 . S
C240 C244 1.391 . S
C240 H282 0.948 . S
C241 C240 1.391 . S
C241 C242 1.391 . S
C242 C241 1.391 . S
C242 H298 0.947 . S
C242 C299 1.392 . S
C243 C244 1.391 . S
C243 C247 1.397 . S
C243 C299 1.419 . S
C244 C240 1.391 . S
C244 C243 1.391 . S
C244 C245 1.399 . S
C245 C244 1.399 . S
C245 C248 1.396 . S
C245 C257 1.453 . S
C245 C258 1.684 . S
H246 C270 0.948 . S
C247 C243 1.397 . S
C247 C248 1.394 . S
C247 C266 1.723 . S
C248 C245 1.396 . S
C248 C247 1.394 . S
C248 C278 1.723 . S
H249 C272 0.947 . S
H250 C273 0.948 1_455 S
H251 C279 0.982 . S
H252 C280 0.979 . S
H253 C280 0.980 . S
H254 C280 0.983 . S
H255 C279 0.979 . S
H256 C279 0.977 . S
C257 C245 1.453 . S
C257 H286 0.982 . S
C257 H287 0.979 . S
C257 H288 0.977 . S
C258 C245 1.684 . S
C258 H283 0.979 . S
C258 H284 0.980 . S
C258 H285 0.983 . S
C259 C260 1.391 . S
C259 C264 1.391 . S
C259 H289 0.948 . S
C260 C259 1.391 . S
C260 C261 1.391 . S
C261 C260 1.391 . S
C261 C262 1.392 . S
C261 H290 0.947 1_455 S
C262 C261 1.392 . S
C262 C263 1.419 . S
C262 H291 0.948 1_455 S
C263 C262 1.419 . S
C263 C264 1.391 . S
C263 C267 1.397 . S
C264 C259 1.391 . S
C264 C263 1.391 . S
C264 C265 1.399 . S
C265 C264 1.399 . S
C265 C266 1.396 . S
C265 C268 1.453 . S
C265 C269 1.684 . S
C266 C247 1.723 . S
C266 C265 1.396 . S
C266 C267 1.394 . S
C267 C263 1.397 . S
C267 C266 1.394 . S
C267 C277 1.723 . S
C268 C265 1.453 . S
C268 H292 0.982 . S
C268 H293 0.979 . S
C268 H294 0.977 . S
C269 C265 1.684 . S
C269 H295 0.979 . S
C269 H296 0.980 . S
C269 H297 0.983 . S
C270 H246 0.948 . S
C270 C271 1.391 . S
C270 C275 1.391 . S
C271 C270 1.391 . S
C271 C272 1.391 . S
C272 H249 0.947 . S
C272 C271 1.391 . S
C272 C273 1.392 . S
C273 H250 0.948 1_655 S
C273 C272 1.392 . S
C273 C274 1.419 . S
C274 C273 1.419 . S
C274 C275 1.391 . S
C274 C278 1.397 1_655 S
C275 C270 1.391 . S
C275 C274 1.391 . S
C275 C276 1.399 . S
C276 C275 1.399 . S
C276 C277 1.396 1_655 S
C276 C279 1.453 . S
C276 C280 1.684 . S
C277 C267 1.723 . S
C277 C276 1.396 1_455 S
C277 C278 1.394 . S
C278 C248 1.723 . S
C278 C274 1.397 1_455 S
C278 C277 1.394 . S
C279 H251 0.982 . S
C279 H255 0.979 . S
C279 H256 0.977 . S
C279 C276 1.453 . S
C280 H252 0.979 . S
C280 H253 0.980 . S
C280 H254 0.983 . S
C280 C276 1.684 . S
H281 C299 0.948 . S
H282 C240 0.948 . S
H283 C258 0.979 . S
H284 C258 0.980 . S
H285 C258 0.983 . S
H286 C257 0.982 . S
H287 C257 0.979 . S
H288 C257 0.977 . S
H289 C259 0.948 . S
H290 C261 0.947 1_655 S
H291 C262 0.948 1_655 S
H292 C268 0.982 . S
H293 C268 0.979 . S
H294 C268 0.977 . S
H295 C269 0.979 . S
H296 C269 0.980 . S
H297 C269 0.983 . S
H298 C242 0.947 . S
C299 C242 1.392 . S
C299 C243 1.419 . S
C299 H281 0.948 . S
C300 C301 1.391 . S
C300 C304 1.391 . S
C300 H342 0.948 . S
C301 C300 1.391 . S
C301 C302 1.391 . S
C302 C301 1.391 . S
C302 H358 0.947 . S
C302 C359 1.392 . S
C303 C304 1.391 . S
C303 C307 1.397 . S
C303 C359 1.419 . S
C304 C300 1.391 . S
C304 C303 1.391 . S
C304 C305 1.399 . S
C305 C304 1.399 . S
C305 C308 1.396 . S
C305 C317 1.453 . S
C305 C318 1.684 . S
H306 C330 0.948 . S
C307 C303 1.397 . S
C307 C308 1.394 . S
C307 C326 1.723 . S
C308 C305 1.396 . S
C308 C307 1.394 . S
C308 C338 1.723 1_655 S
H309 C332 0.947 . S
H310 C333 0.948 . S
H311 C339 0.982 . S
H312 C340 0.979 . S
H313 C340 0.980 . S
H314 C340 0.983 . S
H315 C339 0.979 . S
H316 C339 0.977 . S
C317 C305 1.453 . S
C317 H346 0.982 1_655 S
C317 H347 0.979 . S
C317 H348 0.977 1_655 S
C318 C305 1.684 . S
C318 H343 0.979 . S
C318 H344 0.980 . S
C318 H345 0.983 . S
C319 C320 1.391 1_655 S
C319 C324 1.391 . S
C319 H349 0.948 . S
C320 C319 1.391 1_455 S
C320 C321 1.391 . S
C321 C320 1.391 . S
C321 C322 1.392 . S
C321 H350 0.947 . S
C322 C321 1.392 . S
C322 C323 1.419 . S
C322 H351 0.948 . S
C323 C322 1.419 . S
C323 C324 1.391 1_455 S
C323 C327 1.397 . S
C324 C319 1.391 . S
C324 C323 1.391 1_655 S
C324 C325 1.399 . S
C325 C324 1.399 . S
C325 C326 1.396 . S
C325 C328 1.453 . S
C325 C329 1.684 . S
C326 C307 1.723 . S
C326 C325 1.396 . S
C326 C327 1.394 1_655 S
C327 C323 1.397 . S
C327 C326 1.394 1_455 S
C327 C337 1.723 . S
C328 C325 1.453 . S
C328 H352 0.982 . S
C328 H353 0.979 . S
C328 H354 0.977 . S
C329 C325 1.684 . S
C329 H355 0.979 . S
C329 H356 0.980 . S
C329 H357 0.983 . S
C330 H306 0.948 . S
C330 C331 1.391 . S
C330 C335 1.391 . S
C331 C330 1.391 . S
C331 C332 1.391 . S
C332 H309 0.947 . S
C332 C331 1.391 . S
C332 C333 1.392 . S
C333 H310 0.948 . S
C333 C332 1.392 . S
C333 C334 1.419 . S
C334 C333 1.419 . S
C334 C335 1.391 . S
C334 C338 1.397 . S
C335 C330 1.391 . S
C335 C334 1.391 . S
C335 C336 1.399 . S
C336 C335 1.399 . S
C336 C337 1.396 . S
C336 C339 1.453 . S
C336 C340 1.684 . S
C337 C327 1.723 . S
C337 C336 1.396 . S
C337 C338 1.394 . S
C338 C308 1.723 1_455 S
C338 C334 1.397 . S
C338 C337 1.394 . S
C339 H311 0.982 . S
C339 H315 0.979 . S
C339 H316 0.977 . S
C339 C336 1.453 . S
C340 H312 0.979 . S
C340 H313 0.980 . S
C340 H314 0.983 . S
C340 C336 1.684 . S
H341 C359 0.948 . S
H342 C300 0.948 . S
H343 C318 0.979 . S
H344 C318 0.980 . S
H345 C318 0.983 . S
H346 C317 0.982 1_455 S
H347 C317 0.979 . S
H348 C317 0.977 1_455 S
H349 C319 0.948 . S
H350 C321 0.947 . S
H351 C322 0.948 . S
H352 C328 0.982 . S
H353 C328 0.979 . S
H354 C328 0.977 . S
H355 C329 0.979 . S
H356 C329 0.980 . S
H357 C329 0.983 . S
H358 C302 0.947 . S
C359 C302 1.392 . S
C359 C303 1.419 . S
C359 H341 0.948 . S
C360 C361 1.391 . S
C360 C364 1.391 . S
C360 H402 0.948 . S
C361 C360 1.391 . S
C361 C362 1.391 . S
C362 C361 1.391 . S
C362 H418 0.947 . S
C362 C419 1.392 . S
C363 C364 1.391 . S
C363 C367 1.397 . S
C363 C419 1.419 . S
C364 C360 1.391 . S
C364 C363 1.391 . S
C364 C365 1.399 . S
C365 C364 1.399 . S
C365 C368 1.396 . S
C365 C377 1.453 1_565 S
C365 C378 1.684 . S
H366 C390 0.948 . S
C367 C363 1.397 . S
C367 C368 1.394 . S
C367 C386 1.723 . S
C368 C365 1.396 . S
C368 C367 1.394 . S
C368 C398 1.723 1_565 S
H369 C392 0.947 . S
H370 C393 0.948 . S
H371 C399 0.982 . S
H372 C400 0.979 . S
H373 C400 0.980 . S
H374 C400 0.983 . S
H375 C399 0.979 . S
H376 C399 0.977 . S
C377 C365 1.453 1_545 S
C377 H406 0.982 . S
C377 H407 0.979 1_545 S
C377 H408 0.977 . S
C378 C365 1.684 . S
C378 H403 0.979 . S
C378 H404 0.980 . S
C378 H405 0.983 . S
C379 C380 1.391 . S
C379 C384 1.391 . S
C379 H409 0.948 . S
C380 C379 1.391 . S
C380 C381 1.391 1_565 S
C381 C380 1.391 1_545 S
C381 C382 1.392 . S
C381 H410 0.947 . S
C382 C381 1.392 . S
C382 C383 1.419 . S
C382 H411 0.948 . S
C383 C382 1.419 . S
C383 C384 1.391 1_545 S
C383 C387 1.397 . S
C384 C379 1.391 . S
C384 C383 1.391 1_565 S
C384 C385 1.399 . S
C385 C384 1.399 . S
C385 C386 1.396 . S
C385 C388 1.453 . S
C385 C389 1.684 . S
C386 C367 1.723 . S
C386 C385 1.396 . S
C386 C387 1.394 1_565 S
C387 C383 1.397 . S
C387 C386 1.394 1_545 S
C387 C397 1.723 . S
C388 C385 1.453 . S
C388 H412 0.982 . S
C388 H413 0.979 . S
C388 H414 0.977 . S
C389 C385 1.684 . S
C389 H415 0.979 . S
C389 H416 0.980 . S
C389 H417 0.983 . S
C390 H366 0.948 . S
C390 C391 1.391 . S
C390 C395 1.391 . S
C391 C390 1.391 . S
C391 C392 1.391 . S
C392 H369 0.947 . S
C392 C391 1.391 . S
C392 C393 1.392 . S
C393 H370 0.948 . S
C393 C392 1.392 . S
C393 C394 1.419 . S
C394 C393 1.419 . S
C394 C395 1.391 . S
C394 C398 1.397 . S
C395 C390 1.391 . S
C395 C394 1.391 . S
C395 C396 1.399 . S
C396 C395 1.399 . S
C396 C397 1.396 . S
C396 C399 1.453 . S
C396 C400 1.684 . S
C397 C387 1.723 . S
C397 C396 1.396 . S
C397 C398 1.394 . S
C398 C368 1.723 1_545 S
C398 C394 1.397 . S
C398 C397 1.394 . S
C399 H371 0.982 . S
C399 H375 0.979 . S
C399 H376 0.977 . S
C399 C396 1.453 . S
C400 H372 0.979 . S
C400 H373 0.980 . S
C400 H374 0.983 . S
C400 C396 1.684 . S
H401 C419 0.948 . S
H402 C360 0.948 . S
H403 C378 0.979 . S
H404 C378 0.980 . S
H405 C378 0.983 . S
H406 C377 0.982 . S
H407 C377 0.979 1_565 S
H408 C377 0.977 . S
H409 C379 0.948 . S
H410 C381 0.947 . S
H411 C382 0.948 . S
H412 C388 0.982 . S
H413 C388 0.979 . S
H414 C388 0.977 . S
H415 C389 0.979 . S
H416 C389 0.980 . S
H417 C389 0.983 . S
H418 C362 0.947 . S
C419 C362 1.392 . S
C419 C363 1.419 . S
C419 H401 0.948 . S
C420 C421 1.391 . S
C420 C424 1.391 . S
C420 H462 0.948 . S
C421 C420 1.391 . S
C421 C422 1.391 . S
C422 C421 1.391 . S
C422 H478 0.947 . S
C422 C479 1.392 . S
C423 C424 1.391 . S
C423 C427 1.397 . S
C423 C479 1.419 . S
C424 C420 1.391 . S
C424 C423 1.391 . S
C424 C425 1.399 . S
C425 C424 1.399 . S
C425 C428 1.396 . S
C425 C437 1.453 . S
C425 C438 1.684 . S
H426 C450 0.948 . S
C427 C423 1.397 . S
C427 C428 1.394 . S
C427 C446 1.723 . S
C428 C425 1.396 . S
C428 C427 1.394 . S
C428 C458 1.723 . S
H429 C452 0.947 . S
H430 C453 0.948 . S
H431 C459 0.982 . S
H432 C460 0.979 . S
H433 C460 0.980 . S
H434 C460 0.983 . S
H435 C459 0.979 . S
H436 C459 0.977 . S
C437 C425 1.453 . S
C437 H466 0.982 . S
C437 H467 0.979 . S
C437 H468 0.977 . S
C438 C425 1.684 . S
C438 H463 0.979 . S
C438 H464 0.980 . S
C438 H465 0.983 . S
C439 C440 1.391 . S
C439 C444 1.391 . S
C439 H469 0.948 . S
C440 C439 1.391 . S
C440 C441 1.391 . S
C441 C440 1.391 . S
C441 C442 1.392 . S
C441 H470 0.947 . S
C442 C441 1.392 . S
C442 C443 1.419 . S
C442 H471 0.948 . S
C443 C442 1.419 . S
C443 C444 1.391 . S
C443 C447 1.397 . S
C444 C439 1.391 . S
C444 C443 1.391 . S
C444 C445 1.399 . S
C445 C444 1.399 . S
C445 C446 1.396 . S
C445 C448 1.453 . S
C445 C449 1.684 . S
C446 C427 1.723 . S
C446 C445 1.396 . S
C446 C447 1.394 . S
C447 C443 1.397 . S
C447 C446 1.394 . S
C447 C457 1.723 . S
C448 C445 1.453 . S
C448 H472 0.982 . S
C448 H473 0.979 . S
C448 H474 0.977 . S
C449 C445 1.684 . S
C449 H475 0.979 . S
C449 H476 0.980 . S
C449 H477 0.983 . S
C450 H426 0.948 . S
C450 C451 1.391 . S
C450 C455 1.391 . S
C451 C450 1.391 . S
C451 C452 1.391 . S
C452 H429 0.947 . S
C452 C451 1.391 . S
C452 C453 1.392 . S
C453 H430 0.948 . S
C453 C452 1.392 . S
C453 C454 1.419 . S
C454 C453 1.419 . S
C454 C455 1.391 . S
C454 C458 1.397 . S
C455 C450 1.391 . S
C455 C454 1.391 . S
C455 C456 1.399 . S
C456 C455 1.399 . S
C456 C457 1.396 . S
C456 C459 1.453 . S
C456 C460 1.684 . S
C457 C447 1.723 . S
C457 C456 1.396 . S
C457 C458 1.394 . S
C458 C428 1.723 . S
C458 C454 1.397 . S
C458 C457 1.394 . S
C459 H431 0.982 . S
C459 H435 0.979 . S
C459 H436 0.977 . S
C459 C456 1.453 . S
C460 H432 0.979 . S
C460 H433 0.980 . S
C460 H434 0.983 . S
C460 C456 1.684 . S
H461 C479 0.948 . S
H462 C420 0.948 . S
H463 C438 0.979 . S
H464 C438 0.980 . S
H465 C438 0.983 . S
H466 C437 0.982 . S
H467 C437 0.979 . S
H468 C437 0.977 . S
H469 C439 0.948 . S
H470 C441 0.947 . S
H471 C442 0.948 . S
H472 C448 0.982 . S
H473 C448 0.979 . S
H474 C448 0.977 . S
H475 C449 0.979 . S
H476 C449 0.980 . S
H477 C449 0.983 . S
H478 C422 0.947 . S
C479 C422 1.392 . S
C479 C423 1.419 . S
C479 H461 0.948 . S
H480 C486 0.930 . S
H481 C490 0.930 . S
H482 C495 0.929 . S
H483 C493 0.929 . S
H484 C488 0.929 . S
H485 C494 0.929 . S
C486 H480 0.930 . S
C486 C487 1.367 . S
C486 C494 1.378 . S
C487 C486 1.367 . S
C487 C495 1.433 . S
C488 H484 0.929 . S
C488 C490 1.378 . S
C488 C492 1.350 . S
C489 C492 1.463 . S
C489 C494 1.350 . S
C489 N497 1.427 . S
C490 H481 0.930 . S
C490 C488 1.378 . S
C490 C491 1.367 . S
C491 C490 1.367 . S
C491 C493 1.433 . S
C492 C488 1.350 . S
C492 C489 1.463 . S
C492 N496 1.427 . S
C493 H483 0.929 . S
C493 C491 1.433 . S
C493 N496 1.384 . S
C494 H485 0.929 . S
C494 C486 1.378 . S
C494 C489 1.350 . S
C495 H482 0.929 . S
C495 C487 1.433 . S
C495 N497 1.384 . S
N496 C492 1.427 . S
N496 C493 1.384 . S
N497 C489 1.427 . S
N497 C495 1.384 . S
H498 C504 0.930 . S
H499 C508 0.930 . S
H500 C513 0.929 . S
H501 C511 0.929 . S
H502 C506 0.929 . S
H503 C512 0.929 . S
C504 H498 0.930 . S
C504 C505 1.367 . S
C504 C512 1.378 . S
C505 C504 1.367 . S
C505 C513 1.433 . S
C506 H502 0.929 . S
C506 C508 1.378 . S
C506 C510 1.350 . S
C507 C510 1.463 . S
C507 C512 1.350 . S
C507 N515 1.427 . S
C508 H499 0.930 . S
C508 C506 1.378 . S
C508 C509 1.367 . S
C509 C508 1.367 . S
C509 C511 1.433 . S
C510 C506 1.350 . S
C510 C507 1.463 . S
C510 N514 1.427 . S
C511 H501 0.929 . S
C511 C509 1.433 . S
C511 N514 1.384 . S
C512 H503 0.929 . S
C512 C504 1.378 . S
C512 C507 1.350 . S
C513 H500 0.929 . S
C513 C505 1.433 . S
C513 N515 1.384 . S
N514 C510 1.427 . S
N514 C511 1.384 . S
N515 C507 1.427 . S
N515 C513 1.384 . S
H516 C522 0.930 . S
H517 C526 0.930 . S
H518 C531 0.929 . S
H519 C529 0.929 . S
H520 C524 0.929 . S
H521 C530 0.929 . S
C522 H516 0.930 . S
C522 C523 1.367 . S
C522 C530 1.378 . S
C523 C522 1.367 . S
C523 C531 1.433 . S
C524 H520 0.929 . S
C524 C526 1.378 . S
C524 C528 1.350 . S
C525 C528 1.463 . S
C525 C530 1.350 . S
C525 N533 1.427 . S
C526 H517 0.930 . S
C526 C524 1.378 . S
C526 C527 1.367 . S
C527 C526 1.367 . S
C527 C529 1.433 . S
C528 C524 1.350 . S
C528 C525 1.463 . S
C528 N532 1.427 . S
C529 H519 0.929 . S
C529 C527 1.433 . S
C529 N532 1.384 . S
C530 H521 0.929 . S
C530 C522 1.378 . S
C530 C525 1.350 . S
C531 H518 0.929 . S
C531 C523 1.433 . S
C531 N533 1.384 . S
N532 C528 1.427 . S
N532 C529 1.384 . S
N533 C525 1.427 . S
N533 C531 1.384 . S
H534 C540 0.930 . S
H535 C544 0.930 . S
H536 C549 0.929 . S
H537 C547 0.929 . S
H538 C542 0.929 . S
H539 C548 0.929 . S
C540 H534 0.930 . S
C540 C541 1.367 . S
C540 C548 1.378 . S
C541 C540 1.367 . S
C541 C549 1.433 . S
C542 H538 0.929 . S
C542 C544 1.378 . S
C542 C546 1.350 . S
C543 C546 1.463 . S
C543 C548 1.350 . S
C543 N551 1.427 . S
C544 H535 0.930 . S
C544 C542 1.378 . S
C544 C545 1.367 . S
C545 C544 1.367 . S
C545 C547 1.433 . S
C546 C542 1.350 . S
C546 C543 1.463 . S
C546 N550 1.427 . S
C547 H537 0.929 . S
C547 C545 1.433 . S
C547 N550 1.384 . S
C548 H539 0.929 . S
C548 C540 1.378 . S
C548 C543 1.350 . S
C549 H536 0.929 . S
C549 C541 1.433 . S
C549 N551 1.384 . S
N550 C546 1.427 . S
N550 C547 1.384 . S
N551 C543 1.427 . S
N551 C549 1.384 . S
H552 C558 0.930 . S
H553 C562 0.930 . S
H554 C567 0.929 . S
H555 C565 0.929 . S
H556 C560 0.929 . S
H557 C566 0.929 . S
C558 H552 0.930 . S
C558 C559 1.367 . S
C558 C566 1.378 . S
C559 C558 1.367 . S
C559 C567 1.433 . S
C560 H556 0.929 . S
C560 C562 1.378 . S
C560 C564 1.350 . S
C561 C564 1.463 . S
C561 C566 1.350 . S
C561 N569 1.427 . S
C562 H553 0.930 . S
C562 C560 1.378 . S
C562 C563 1.367 . S
C563 C562 1.367 . S
C563 C565 1.433 . S
C564 C560 1.350 . S
C564 C561 1.463 . S
C564 N568 1.427 . S
C565 H555 0.929 . S
C565 C563 1.433 . S
C565 N568 1.384 . S
C566 H557 0.929 . S
C566 C558 1.378 . S
C566 C561 1.350 . S
C567 H554 0.929 . S
C567 C559 1.433 . S
C567 N569 1.384 . S
N568 C564 1.427 . S
N568 C565 1.384 . S
N569 C561 1.427 . S
N569 C567 1.384 . S
H570 C576 0.930 . S
H571 C580 0.930 . S
H572 C585 0.929 . S
H573 C583 0.929 . S
H574 C578 0.929 . S
H575 C584 0.929 . S
C576 H570 0.930 . S
C576 C577 1.367 . S
C576 C584 1.378 . S
C577 C576 1.367 . S
C577 C585 1.433 . S
C578 H574 0.929 . S
C578 C580 1.378 . S
C578 C582 1.350 . S
C579 C582 1.463 . S
C579 C584 1.350 . S
C579 N587 1.427 . S
C580 H571 0.930 . S
C580 C578 1.378 . S
C580 C581 1.367 . S
C581 C580 1.367 . S
C581 C583 1.433 . S
C582 C578 1.350 . S
C582 C579 1.463 . S
C582 N586 1.427 . S
C583 H573 0.929 . S
C583 C581 1.433 . S
C583 N586 1.384 . S
C584 H575 0.929 . S
C584 C576 1.378 . S
C584 C579 1.350 . S
C585 H572 0.929 . S
C585 C577 1.433 . S
C585 N587 1.384 . S
N586 C582 1.427 . S
N586 C583 1.384 . S
N587 C579 1.427 . S
N587 C585 1.384 . S
H588 C594 0.930 . S
H589 C598 0.930 . S
H590 C603 0.929 . S
H591 C601 0.929 . S
H592 C596 0.929 . S
H593 C602 0.929 . S
C594 H588 0.930 . S
C594 C595 1.367 . S
C594 C602 1.378 . S
C595 C594 1.367 . S
C595 C603 1.433 . S
C596 H592 0.929 . S
C596 C598 1.378 . S
C596 C600 1.350 . S
C597 C600 1.463 . S
C597 C602 1.350 . S
C597 N605 1.427 . S
C598 H589 0.930 . S
C598 C596 1.378 . S
C598 C599 1.367 . S
C599 C598 1.367 . S
C599 C601 1.433 . S
C600 C596 1.350 . S
C600 C597 1.463 . S
C600 N604 1.427 . S
C601 H591 0.929 . S
C601 C599 1.433 . S
C601 N604 1.384 . S
C602 H593 0.929 . S
C602 C594 1.378 . S
C602 C597 1.350 . S
C603 H590 0.929 . S
C603 C595 1.433 . S
C603 N605 1.384 . S
N604 C600 1.427 . S
N604 C601 1.384 . S
N605 C597 1.427 . S
N605 C603 1.384 . S
H606 C612 0.930 . S
H607 C616 0.930 . S
H608 C621 0.929 . S
H609 C619 0.929 . S
H610 C614 0.929 . S
H611 C620 0.929 . S
C612 H606 0.930 . S
C612 C613 1.367 . S
C612 C620 1.378 . S
C613 C612 1.367 . S
C613 C621 1.433 . S
C614 H610 0.929 . S
C614 C616 1.378 . S
C614 C618 1.350 . S
C615 C618 1.463 . S
C615 C620 1.350 . S
C615 N623 1.427 . S
C616 H607 0.930 . S
C616 C614 1.378 . S
C616 C617 1.367 . S
C617 C616 1.367 . S
C617 C619 1.433 . S
C618 C614 1.350 . S
C618 C615 1.463 . S
C618 N622 1.427 . S
C619 H609 0.929 . S
C619 C617 1.433 . S
C619 N622 1.384 . S
C620 H611 0.929 . S
C620 C612 1.378 . S
C620 C615 1.350 . S
C621 H608 0.929 . S
C621 C613 1.433 . S
C621 N623 1.384 . S
N622 C618 1.427 . S
N622 C619 1.384 . S
N623 C615 1.427 . S
N623 C621 1.384 . S
H624 C630 0.930 . S
H625 C634 0.930 . S
H626 C639 0.929 . S
H627 C637 0.929 . S
H628 C632 0.929 . S
H629 C638 0.929 . S
C630 H624 0.930 . S
C630 C631 1.367 . S
C630 C638 1.378 . S
C631 C630 1.367 . S
C631 C639 1.433 . S
C632 H628 0.929 . S
C632 C634 1.378 . S
C632 C636 1.350 . S
C633 C636 1.463 . S
C633 C638 1.350 . S
C633 N641 1.427 . S
C634 H625 0.930 . S
C634 C632 1.378 . S
C634 C635 1.367 . S
C635 C634 1.367 . S
C635 C637 1.433 . S
C636 C632 1.350 . S
C636 C633 1.463 . S
C636 N640 1.427 . S
C637 H627 0.929 . S
C637 C635 1.433 . S
C637 N640 1.384 . S
C638 H629 0.929 . S
C638 C630 1.378 . S
C638 C633 1.350 . S
C639 H626 0.929 . S
C639 C631 1.433 . S
C639 N641 1.384 . S
N640 C636 1.427 . S
N640 C637 1.384 . S
N641 C633 1.427 . S
N641 C639 1.384 . S
H642 C648 0.930 . S
H643 C652 0.930 . S
H644 C657 0.929 . S
H645 C655 0.929 . S
H646 C650 0.929 . S
H647 C656 0.929 . S
C648 H642 0.930 . S
C648 C649 1.367 . S
C648 C656 1.378 . S
C649 C648 1.367 . S
C649 C657 1.433 . S
C650 H646 0.929 . S
C650 C652 1.378 . S
C650 C654 1.350 . S
C651 C654 1.463 . S
C651 C656 1.350 . S
C651 N659 1.427 . S
C652 H643 0.930 . S
C652 C650 1.378 . S
C652 C653 1.367 . S
C653 C652 1.367 . S
C653 C655 1.433 . S
C654 C650 1.350 . S
C654 C651 1.463 . S
C654 N658 1.427 . S
C655 H645 0.929 . S
C655 C653 1.433 . S
C655 N658 1.384 . S
C656 H647 0.929 . S
C656 C648 1.378 . S
C656 C651 1.350 . S
C657 H644 0.929 . S
C657 C649 1.433 . S
C657 N659 1.384 . S
N658 C654 1.427 . S
N658 C655 1.384 . S
N659 C651 1.427 . S
N659 C657 1.384 . S
H660 C666 0.930 . S
H661 C670 0.930 . S
H662 C675 0.929 . S
H663 C673 0.929 . S
H664 C668 0.929 . S
H665 C674 0.929 . S
C666 H660 0.930 . S
C666 C667 1.367 . S
C666 C674 1.378 . S
C667 C666 1.367 . S
C667 C675 1.433 . S
C668 H664 0.929 . S
C668 C670 1.378 . S
C668 C672 1.350 . S
C669 C672 1.463 . S
C669 C674 1.350 . S
C669 N677 1.427 . S
C670 H661 0.930 . S
C670 C668 1.378 . S
C670 C671 1.367 . S
C671 C670 1.367 . S
C671 C673 1.433 . S
C672 C668 1.350 . S
C672 C669 1.463 . S
C672 N676 1.427 . S
C673 H663 0.929 . S
C673 C671 1.433 . S
C673 N676 1.384 . S
C674 H665 0.929 . S
C674 C666 1.378 . S
C674 C669 1.350 . S
C675 H662 0.929 . S
C675 C667 1.433 . S
C675 N677 1.384 . S
N676 C672 1.427 . S
N676 C673 1.384 . S
N677 C669 1.427 . S
N677 C675 1.384 . S
H678 C684 0.930 . S
H679 C688 0.930 . S
H680 C693 0.929 . S
H681 C691 0.929 . S
H682 C686 0.929 . S
H683 C692 0.929 . S
C684 H678 0.930 . S
C684 C685 1.367 . S
C684 C692 1.378 . S
C685 C684 1.367 . S
C685 C693 1.433 . S
C686 H682 0.929 . S
C686 C688 1.378 . S
C686 C690 1.350 . S
C687 C690 1.463 . S
C687 C692 1.350 . S
C687 N695 1.427 . S
C688 H679 0.930 . S
C688 C686 1.378 . S
C688 C689 1.367 . S
C689 C688 1.367 . S
C689 C691 1.433 . S
C690 C686 1.350 . S
C690 C687 1.463 . S
C690 N694 1.427 . S
C691 H681 0.929 . S
C691 C689 1.433 . S
C691 N694 1.384 . S
C692 H683 0.929 . S
C692 C684 1.378 . S
C692 C687 1.350 . S
C693 H680 0.929 . S
C693 C685 1.433 . S
C693 N695 1.384 . S
N694 C690 1.427 . S
N694 C691 1.384 . S
N695 C687 1.427 . S
N695 C693 1.384 . S
H696 C702 0.930 . S
H697 C706 0.924 1_656 S
H698 C711 0.929 . S
H699 C709 0.929 . S
H700 C704 0.929 1_655 S
H701 C710 0.929 . S
C702 H696 0.930 . S
C702 C703 1.367 . S
C702 C710 1.378 . S
C703 C702 1.367 . S
C703 C711 1.433 1_455 S
C704 H700 0.929 1_455 S
C704 C706 1.378 . S
C704 C708 1.350 . S
C705 C708 1.463 . S
C705 C710 1.350 . S
C705 N713 1.427 1_455 S
C706 H697 0.924 1_454 S
C706 C704 1.378 . S
C706 C707 1.363 1_554 S
C707 C706 1.363 1_556 S
C707 C709 1.429 1_556 S
C708 C704 1.350 . S
C708 C705 1.463 . S
C708 N712 1.427 . S
C709 H699 0.929 . S
C709 C707 1.429 1_554 S
C709 N712 1.384 . S
C710 H701 0.929 . S
C710 C702 1.378 . S
C710 C705 1.350 . S
C711 H698 0.929 . S
C711 C703 1.433 1_655 S
C711 N713 1.384 . S
N712 C708 1.427 . S
N712 C709 1.384 . S
N713 C705 1.427 1_655 S
N713 C711 1.384 . S
H714 C720 0.930 . S
H715 C724 0.930 . S
H716 C729 0.929 . S
H717 C727 0.929 . S
H718 C722 0.929 . S
H719 C728 0.929 . S
C720 H714 0.930 . S
C720 C721 1.367 1_565 S
C720 C728 1.378 . S
C721 C720 1.367 1_545 S
C721 C729 1.433 . S
C722 H718 0.929 . S
C722 C724 1.378 . S
C722 C726 1.350 . S
C723 C726 1.463 . S
C723 C728 1.350 1_545 S
C723 N731 1.427 . S
C724 H715 0.930 . S
C724 C722 1.378 . S
C724 C725 1.367 . S
C725 C724 1.367 . S
C725 C727 1.433 1_545 S
C726 C722 1.350 . S
C726 C723 1.463 . S
C726 N730 1.427 1_545 S
C727 H717 0.929 . S
C727 C725 1.433 1_565 S
C727 N730 1.384 . S
C728 H719 0.929 . S
C728 C720 1.378 . S
C728 C723 1.350 1_565 S
C729 H716 0.929 . S
C729 C721 1.433 . S
C729 N731 1.384 . S
N730 C726 1.427 1_565 S
N730 C727 1.384 . S
N731 C723 1.427 . S
N731 C729 1.384 . S
H732 C738 0.930 . S
H733 C742 0.930 . S
H734 C747 0.929 . S
H735 C745 0.929 . S
H736 C740 0.929 . S
H737 C746 0.929 . S
C738 H732 0.930 . S
C738 C739 1.367 . S
C738 C746 1.378 . S
C739 C738 1.367 . S
C739 C747 1.433 . S
C740 H736 0.929 . S
C740 C742 1.378 . S
C740 C744 1.350 . S
C741 C744 1.463 . S
C741 C746 1.350 . S
C741 N749 1.427 . S
C742 H733 0.930 . S
C742 C740 1.378 . S
C742 C743 1.367 . S
C743 C742 1.367 . S
C743 C745 1.433 . S
C744 C740 1.350 . S
C744 C741 1.463 . S
C744 N748 1.427 . S
C745 H735 0.929 . S
C745 C743 1.433 . S
C745 N748 1.384 . S
C746 H737 0.929 . S
C746 C738 1.378 . S
C746 C741 1.350 . S
C747 H734 0.929 . S
C747 C739 1.433 . S
C747 N749 1.384 . S
N748 C744 1.427 . S
N748 C745 1.384 . S
N749 C741 1.427 . S
N749 C747 1.384 . S
H750 C756 0.930 . S
H751 C760 0.930 . S
H752 C765 0.929 . S
H753 C763 0.929 . S
H754 C758 0.929 . S
H755 C764 0.929 . S
C756 H750 0.930 . S
C756 C757 1.367 . S
C756 C764 1.378 . S
C757 C756 1.367 . S
C757 C765 1.433 1_545 S
C758 H754 0.929 . S
C758 C760 1.378 . S
C758 C762 1.350 . S
C759 C762 1.463 1_545 S
C759 C764 1.350 . S
C759 N767 1.427 1_545 S
C760 H751 0.930 . S
C760 C758 1.378 . S
C760 C761 1.367 . S
C761 C760 1.367 . S
C761 C763 1.433 1_565 S
C762 C758 1.350 . S
C762 C759 1.463 1_565 S
C762 N766 1.427 1_565 S
C763 H753 0.929 . S
C763 C761 1.433 1_545 S
C763 N766 1.384 . S
C764 H755 0.929 . S
C764 C756 1.378 . S
C764 C759 1.350 . S
C765 H752 0.929 . S
C765 C757 1.433 1_565 S
C765 N767 1.384 . S
N766 C762 1.427 1_545 S
N766 C763 1.384 . S
N767 C759 1.427 1_565 S
N767 C765 1.384 . S
H768 C774 0.930 . S
H769 C778 0.930 . S
H770 C783 0.929 . S
H771 C781 0.929 . S
H772 C776 0.929 . S
H773 C782 0.929 . S
C774 H768 0.930 . S
C774 C775 1.367 . S
C774 C782 1.378 . S
C775 C774 1.367 . S
C775 C783 1.433 . S
C776 H772 0.929 . S
C776 C778 1.378 . S
C776 C780 1.350 . S
C777 C780 1.463 . S
C777 C782 1.350 . S
C777 N785 1.427 . S
C778 H769 0.930 . S
C778 C776 1.378 . S
C778 C779 1.367 . S
C779 C778 1.367 . S
C779 C781 1.433 . S
C780 C776 1.350 . S
C780 C777 1.463 . S
C780 N784 1.427 . S
C781 H771 0.929 . S
C781 C779 1.433 . S
C781 N784 1.384 . S
C782 H773 0.929 . S
C782 C774 1.378 . S
C782 C777 1.350 . S
C783 H770 0.929 . S
C783 C775 1.433 . S
C783 N785 1.384 . S
N784 C780 1.427 . S
N784 C781 1.384 . S
N785 C777 1.427 . S
N785 C783 1.384 . S
H786 C792 0.921 . S
H787 C796 0.930 . S
H788 C801 0.929 . S
H789 C799 0.929 . S
H790 C794 0.929 . S
H791 C800 0.929 . S
C792 H786 0.921 . S
C792 C793 1.374 1_655 S
C792 C800 1.380 . S
C793 C792 1.374 1_455 S
C793 C801 1.433 . S
C794 H790 0.929 . S
C794 C796 1.378 . S
C794 C798 1.350 . S
C795 C798 1.463 . S
C795 C800 1.350 1_455 S
C795 N803 1.427 . S
C796 H787 0.930 . S
C796 C794 1.378 . S
C796 C797 1.368 . S
C797 C796 1.368 . S
C797 C799 1.432 1_455 S
C798 C794 1.350 . S
C798 C795 1.463 . S
C798 N802 1.427 1_455 S
C799 H789 0.929 . S
C799 C797 1.432 1_655 S
C799 N802 1.384 . S
C800 H791 0.929 . S
C800 C792 1.380 . S
C800 C795 1.350 1_655 S
C801 H788 0.929 . S
C801 C793 1.433 . S
C801 N803 1.384 . S
N802 C798 1.427 1_655 S
N802 C799 1.384 . S
N803 C795 1.427 . S
N803 C801 1.384 . S
C487 C6 0.592 . S
C491 C451 0.537 . S
C505 C59 1.915 . S
C509 C301 1.782 . S
C523 C86 1.234 . S
C527 C361 1.205 . S
C541 C15 0.447 . S
C545 C421 0.393 . S
C563 C331 2.032 . S
C559 C50 2.021 . S
C581 C391 1.318 . S
C577 C95 1.305 . S
C595 C46 1.205 . S
C599 C181 1.174 . S
C613 C99 3.116 . S
C617 C271 3.118 . S
C631 C10 2.052 . S
C635 C151 2.074 . S
C653 C211 1.305 . S
C649 C55 1.287 . S
C671 C241 2.882 . S
C667 C90 3.021 . S
C685 C19 1.907 . S
C689 C121 1.782 . S
C707 C260 1.764 . S
C703 C18 1.705 . S
C721 C49 1.324 . S
C725 C140 1.352 . S
C739 C98 1.456 . S
C743 C200 1.474 . S
C761 C380 1.466 . S
C757 C58 1.432 . S
C779 C440 1.078 1_556 S
C775 C89 1.059 . S
C793 C9 1.314 . S
C797 C320 1.332 . S
