# Generated by pormake.
# Topology pth, (4,4)-cn, num edge types: 1
# Building blocks:
#     Node 0, Type 0, BuildingBlock: CEKHIL_clean_sbu_0, # of connection points: 4
#     Node 1, Type 0, BuildingBlock: CEKHIL_clean_sbu_0, # of connection points: 4
#     Node 2, Type 0, BuildingBlock: CEKHIL_clean_sbu_0, # of connection points: 4
#     Node 3, Type 1, BuildingBlock: NAHDIM_clean_linker_0, # of connection points: 4
#     Node 4, Type 1, BuildingBlock: NAHDIM_clean_linker_0, # of connection points: 4
#     Node 5, Type 1, BuildingBlock: NAHDIM_clean_linker_0, # of connection points: 4
#     Edge 6, Type (0, 1), BuildingBlock: TEMPAE_clean_linker_10, # of connection points: 2
#     Edge 7, Type (0, 1), BuildingBlock: TEMPAE_clean_linker_10, # of connection points: 2
#     Edge 8, Type (0, 1), BuildingBlock: TEMPAE_clean_linker_10, # of connection points: 2
#     Edge 9, Type (0, 1), BuildingBlock: TEMPAE_clean_linker_10, # of connection points: 2
#     Edge 10, Type (0, 1), BuildingBlock: TEMPAE_clean_linker_10, # of connection points: 2
#     Edge 11, Type (0, 1), BuildingBlock: TEMPAE_clean_linker_10, # of connection points: 2
#     Edge 12, Type (0, 1), BuildingBlock: TEMPAE_clean_linker_10, # of connection points: 2
#     Edge 13, Type (0, 1), BuildingBlock: TEMPAE_clean_linker_10, # of connection points: 2
#     Edge 14, Type (0, 1), BuildingBlock: TEMPAE_clean_linker_10, # of connection points: 2
#     Edge 15, Type (0, 1), BuildingBlock: TEMPAE_clean_linker_10, # of connection points: 2
#     Edge 16, Type (0, 1), BuildingBlock: TEMPAE_clean_linker_10, # of connection points: 2
#     Edge 17, Type (0, 1), BuildingBlock: TEMPAE_clean_linker_10, # of connection points: 2
# Relax obj value: 0.007
# Max RMSD: 0.047
# Mean RMSD: 0.045
data_MOF--net-pth--node1-CEKHIL_clean_sbu_0--node2-NAHDIM_clean_linker_0--edge1-TEMPAE_clean_linker_10
_symmetry_space_group_name_H-M    P1
_symmetry_Int_Tables_number       1
_symmetry_cell_setting            triclinic
loop_
_symmetry_equiv_pos_as_xyz
'x, y, z'
_cell_length_a     31.745026
_cell_length_b     31.821951
_cell_length_c     82.667254
_cell_angle_alpha  90.661483
_cell_angle_beta   90.583909
_cell_angle_gamma 120.31073
loop_
_atom_site_label
_atom_site_type_symbol
_atom_site_fract_x
_atom_site_fract_y
_atom_site_fract_z
_atom_type_partial_charge
Co0 Co 0.02608 0.06685 0.04216 0.0
O1 O 0.00276 0.02001 0.05892 0.0
O2 O 0.06039 0.03061 0.04171 0.0
C3 C 0.03493 0.12894 0.05791 0.0
O4 O 0.0606 0.11423 0.02395 0.0
Co5 Co 0.96281 0.11051 0.0317 0.0
O6 O 0.02174 0.15593 0.0196 0.0
C7 C 0.93585 0.01276 0.01997 0.0
C8 C 0.03434 0.00836 0.05421 0.0
C9 C 0.05697 0.14843 0.01706 0.0
O10 O 0.97526 0.0185 0.02659 0.0
O11 O 0.92163 0.04369 0.02165 0.0
O12 O 0.06846 0.11707 0.05757 0.0
O13 O 0.99492 0.09991 0.04999 0.0
Co14 Co 0.02577 0.06817 0.36426 0.0
O15 O 0.00137 0.09056 0.34708 0.0
O16 O 0.06715 0.13786 0.36222 0.0
C17 C 0.01992 0.00391 0.35054 0.0
O18 O 0.06344 0.05754 0.38224 0.0
Co19 Co 0.95941 0.96691 0.3793 0.0
O20 O 0.02047 0.98019 0.39063 0.0
C21 C 0.94524 0.04867 0.38806 0.0
C22 C 0.03845 0.13356 0.35018 0.0
C23 C 0.05902 0.02206 0.39082 0.0
O24 O 0.98438 0.07796 0.38056 0.0
O25 O 0.92652 0.00238 0.38769 0.0
O26 O 0.05699 0.04724 0.34847 0.0
O27 O 0.98566 0.00167 0.35945 0.0
Co28 Co 0.03883 0.06206 0.69765 0.0
O29 O 0.09478 0.09579 0.68404 0.0
O30 O 0.07446 0.02775 0.69697 0.0
C31 C 0.9852 0.06608 0.68056 0.0
O32 O 0.9832 0.01497 0.71192 0.0
Co33 Co 0.98057 0.1098 0.71067 0.0
O34 O 0.93318 0.04356 0.7179 0.0
C35 C 0.07522 0.13418 0.72597 0.0
C36 C 0.10377 0.06112 0.68715 0.0
C37 C 0.94409 0.01016 0.71823 0.0
O38 O 0.07836 0.10219 0.71717 0.0
O39 O 0.04122 0.14432 0.72433 0.0
O40 O 0.99665 0.03254 0.67844 0.0
O41 O 0.00898 0.09756 0.69195 0.0
C42 C 0.94841 0.6545 0.31502 0.0
C43 C 0.98606 0.69346 0.30406 0.0
C44 C 0.98623 0.6673 0.27632 0.0
C45 C 0.03645 0.68922 0.27364 0.0
C46 C 0.05413 0.67044 0.26179 0.0
C47 C 0.02081 0.6287 0.25258 0.0
C48 C 0.96999 0.60773 0.25488 0.0
C49 C 0.95337 0.62803 0.26656 0.0
C50 C 0.10842 0.6945 0.25934 0.0
C51 C 0.93328 0.56282 0.24548 0.0
C52 C 0.15051 0.37663 0.25208 0.0
C53 C 0.11567 0.38052 0.26391 0.0
C54 C 0.11685 0.45747 0.26202 0.0
C55 C 0.06685 0.43998 0.25943 0.0
C56 C 0.0508 0.46934 0.2523 0.0
C57 C 0.08544 0.51735 0.24791 0.0
C58 C 0.13562 0.53588 0.25126 0.0
C59 C 0.15066 0.50565 0.25838 0.0
C60 C 0.99692 0.44892 0.24924 0.0
C61 C 0.17336 0.58726 0.24703 0.0
C62 C 0.09585 0.46281 0.14269 0.0
C63 C 0.04896 0.44291 0.14905 0.0
C64 C 0.03567 0.47217 0.15789 0.0
C65 C 0.07028 0.52211 0.16052 0.0
C66 C 0.11692 0.54254 0.15353 0.0
C67 C 0.12881 0.51259 0.14446 0.0
C68 C 0.985 0.44959 0.16466 0.0
C69 C 0.15447 0.59577 0.15584 0.0
C70 C 0.99242 0.8102 0.15497 0.0
C71 C 0.01803 0.79468 0.14266 0.0
C72 C 0.00363 0.7133 0.14842 0.0
C73 C 0.96533 0.66792 0.15293 0.0
C74 C 0.97441 0.63474 0.16108 0.0
C75 C 0.0231 0.64752 0.16476 0.0
C76 C 0.06209 0.69283 0.15982 0.0
C77 C 0.05199 0.7249 0.15147 0.0
C78 C 0.93209 0.58619 0.16582 0.0
C79 C 0.11454 0.70725 0.16325 0.0
C80 C 0.03903 0.60424 0.24169 0.0
C81 C 0.05479 0.57486 0.24886 0.0
C82 C 0.06926 0.54779 0.23947 0.0
C83 C 0.06725 0.54917 0.22241 0.0
C84 C 0.08006 0.52111 0.21261 0.0
C85 C 0.07736 0.5222 0.19584 0.0
C86 C 0.06183 0.55147 0.18821 0.0
C87 C 0.05848 0.55243 0.17117 0.0
C88 C 0.04455 0.58311 0.16396 0.0
C89 C 0.03369 0.61312 0.17333 0.0
C90 C 0.03544 0.61172 0.19042 0.0
C91 C 0.02383 0.64074 0.20024 0.0
C92 C 0.02509 0.63852 0.21704 0.0
C93 C 0.03856 0.60764 0.22465 0.0
C94 C 0.05191 0.57927 0.21499 0.0
C95 C 0.04962 0.58075 0.19786 0.0
C96 C 0.15213 0.39806 0.14619 0.0
C97 C 0.10328 0.39074 0.13998 0.0
O98 O 0.96843 0.68322 0.28823 0.0
O99 O 0.99259 0.74439 0.14092 0.0
O100 O 0.11015 0.4349 0.13469 0.0
O101 O 0.13359 0.42901 0.26807 0.0
H102 H 0.02033 0.69211 0.30535 0.0
H103 H 0.9418 0.61808 0.31116 0.0
H104 H 0.91326 0.65418 0.31432 0.0
H105 H 0.96191 0.66138 0.32778 0.0
H106 H 0.06174 0.72086 0.28085 0.0
H107 H 0.91462 0.61197 0.26861 0.0
H108 H 0.1218 0.67088 0.2642 0.0
H109 H 0.12877 0.73063 0.26558 0.0
H110 H 0.11663 0.69913 0.24624 0.0
H111 H 0.89542 0.54882 0.24966 0.0
H112 H 0.94242 0.53357 0.24664 0.0
H113 H 0.93461 0.57135 0.23245 0.0
H114 H 0.08028 0.36475 0.25715 0.0
H115 H 0.13966 0.3379 0.2499 0.0
H116 H 0.14902 0.39242 0.24032 0.0
H117 H 0.18882 0.39722 0.25667 0.0
H118 H 0.04025 0.40353 0.26302 0.0
H119 H 0.18907 0.51909 0.26072 0.0
H120 H 0.98986 0.45029 0.23613 0.0
H121 H 0.98481 0.47158 0.25575 0.0
H122 H 0.97463 0.41069 0.25323 0.0
H123 H 0.21066 0.59699 0.25117 0.0
H124 H 0.16391 0.61331 0.25259 0.0
H125 H 0.17346 0.59148 0.23371 0.0
H126 H 0.07756 0.3771 0.15025 0.0
H127 H 0.02277 0.40461 0.14706 0.0
H128 H 0.16456 0.52758 0.13919 0.0
H129 H 0.98712 0.44802 0.17803 0.0
H130 H 0.96059 0.41209 0.15981 0.0
H131 H 0.96854 0.47231 0.16181 0.0
H132 H 0.19063 0.60478 0.15107 0.0
H133 H 0.15881 0.60627 0.16887 0.0
H134 H 0.14182 0.61793 0.14941 0.0
H135 H 0.05529 0.80858 0.14778 0.0
H136 H 0.00996 0.85052 0.15553 0.0
H137 H 0.99533 0.79749 0.16717 0.0
H138 H 0.95306 0.79404 0.15189 0.0
H139 H 0.92816 0.65884 0.15023 0.0
H140 H 0.08212 0.7585 0.14715 0.0
H141 H 0.93154 0.58318 0.1792 0.0
H142 H 0.93665 0.55632 0.16072 0.0
H143 H 0.89646 0.58104 0.16156 0.0
H144 H 0.14045 0.74553 0.15997 0.0
H145 H 0.12356 0.68302 0.15622 0.0
H146 H 0.11987 0.70272 0.17627 0.0
H147 H 0.05521 0.57253 0.26194 0.0
H148 H 0.09208 0.49774 0.21779 0.0
H149 H 0.08765 0.49976 0.18894 0.0
H150 H 0.04289 0.58422 0.15086 0.0
H151 H 0.01319 0.66515 0.19503 0.0
H152 H 0.01546 0.66136 0.22402 0.0
H153 H 0.17942 0.41151 0.13641 0.0
H154 H 0.14757 0.36328 0.15072 0.0
H155 H 0.16623 0.42521 0.15633 0.0
C156 C 0.35897 0.97678 0.63557 0.0
C157 C 0.35755 0.01915 0.62754 0.0
C158 C 0.38012 0.02096 0.5997 0.0
C159 C 0.41352 0.06993 0.59679 0.0
C160 C 0.45158 0.08294 0.5859 0.0
C161 C 0.45655 0.04601 0.57796 0.0
C162 C 0.42141 0.99646 0.58036 0.0
C163 C 0.38304 0.98457 0.59106 0.0
C164 C 0.48771 0.13614 0.58342 0.0
C165 C 0.42586 0.95615 0.57229 0.0
C166 C 0.73574 0.1572 0.64746 0.0
C167 C 0.72764 0.1207 0.63387 0.0
C168 C 0.70309 0.12905 0.60671 0.0
C169 C 0.6736 0.07968 0.60241 0.0
C170 C 0.63755 0.06501 0.59024 0.0
C171 C 0.6308 0.1005 0.58237 0.0
C172 C 0.662 0.1505 0.58625 0.0
C173 C 0.69847 0.16413 0.5982 0.0
C174 C 0.60577 0.01154 0.58611 0.0
C175 C 0.65556 0.18943 0.57829 0.0
C176 C 0.74616 0.16453 0.48184 0.0
C177 C 0.71822 0.11434 0.48459 0.0
C178 C 0.67143 0.09405 0.49117 0.0
C179 C 0.65269 0.12475 0.49526 0.0
C180 C 0.68034 0.17511 0.49203 0.0
C181 C 0.72646 0.19415 0.48512 0.0
C182 C 0.64224 0.03997 0.49392 0.0
C183 C 0.66155 0.20901 0.4961 0.0
C184 C 0.29791 0.04618 0.48534 0.0
C185 C 0.32575 0.07624 0.47072 0.0
C186 C 0.39826 0.06844 0.47322 0.0
C187 C 0.4098 0.03151 0.47245 0.0
C188 C 0.44951 0.03525 0.48134 0.0
C189 C 0.47901 0.07764 0.49085 0.0
C190 C 0.46917 0.11636 0.49092 0.0
C191 C 0.42864 0.11118 0.48222 0.0
C192 C 0.4592 0.99347 0.48092 0.0
C193 C 0.50107 0.163 0.50039 0.0
C194 C 0.50195 0.05922 0.5691 0.0
C195 C 0.54326 0.07022 0.57844 0.0
C196 C 0.58824 0.08523 0.57134 0.0
C197 C 0.59234 0.08842 0.55436 0.0
C198 C 0.63697 0.10274 0.54683 0.0
C199 C 0.64116 0.10789 0.53015 0.0
C200 C 0.60072 0.09831 0.52032 0.0
C201 C 0.60497 0.10482 0.50338 0.0
C202 C 0.56425 0.09603 0.49405 0.0
C203 C 0.51922 0.08118 0.50117 0.0
C204 C 0.51405 0.07372 0.51804 0.0
C205 C 0.46911 0.05836 0.52558 0.0
C206 C 0.46493 0.05336 0.54229 0.0
C207 C 0.50538 0.06304 0.55208 0.0
C208 C 0.55081 0.07765 0.54469 0.0
C209 C 0.55508 0.08275 0.52765 0.0
C210 C 0.87343 0.21736 0.48523 0.0
C211 C 0.82646 0.17227 0.47923 0.0
O212 O 0.34595 0.00833 0.61122 0.0
O213 O 0.35751 0.06144 0.46524 0.0
O214 O 0.79193 0.18559 0.47589 0.0
O215 O 0.73568 0.14391 0.61919 0.0
H216 H 0.39445 0.05217 0.62908 0.0
H217 H 0.38714 0.97093 0.62983 0.0
H218 H 0.32303 0.94271 0.63422 0.0
H219 H 0.36843 0.98492 0.64865 0.0
H220 H 0.4103 0.09787 0.60333 0.0
H221 H 0.35663 0.94681 0.59335 0.0
H222 H 0.52243 0.1461 0.58989 0.0
H223 H 0.47414 0.15994 0.5881 0.0
H224 H 0.4958 0.14334 0.57037 0.0
H225 H 0.39539 0.91948 0.57536 0.0
H226 H 0.46086 0.95888 0.57606 0.0
H227 H 0.42641 0.96002 0.55896 0.0
H228 H 0.68907 0.09047 0.63464 0.0
H229 H 0.72872 0.13945 0.65941 0.0
H230 H 0.71026 0.17118 0.64577 0.0
H231 H 0.77377 0.1885 0.64741 0.0
H232 H 0.67847 0.05266 0.60867 0.0
H233 H 0.72203 0.20218 0.60151 0.0
H234 H 0.60253 0.00566 0.57278 0.0
H235 H 0.56854 0.99833 0.59076 0.0
H236 H 0.62027 0.98943 0.59149 0.0
H237 H 0.68034 0.2262 0.58363 0.0
H238 H 0.6173 0.18111 0.57948 0.0
H239 H 0.66307 0.19021 0.56519 0.0
H240 H 0.81413 0.14554 0.48919 0.0
H241 H 0.73273 0.091 0.48148 0.0
H242 H 0.7481 0.2327 0.4827 0.0
H243 H 0.63869 0.0332 0.50711 0.0
H244 H 0.65955 0.02041 0.4885 0.0
H245 H 0.60484 0.0246 0.48869 0.0
H246 H 0.68923 0.24777 0.4941 0.0
H247 H 0.65034 0.20488 0.50894 0.0
H248 H 0.62885 0.19937 0.48846 0.0
H249 H 0.3464 0.11535 0.47436 0.0
H250 H 0.27207 0.05746 0.48974 0.0
H251 H 0.32382 0.05193 0.49541 0.0
H252 H 0.27718 0.00676 0.48205 0.0
H253 H 0.38648 -0.00106 0.4653 0.0
H254 H 0.42128 0.14084 0.48242 0.0
H255 H 0.45905 0.98088 0.49341 0.0
H256 H 0.49594 0.00595 0.47595 0.0
H257 H 0.43171 0.96221 0.47342 0.0
H258 H 0.49273 0.19199 0.49738 0.0
H259 H 0.54018 0.17654 0.498 0.0
H260 H 0.49545 0.15592 0.51353 0.0
H261 H 0.54062 0.06822 0.59152 0.0
H262 H 0.66929 0.11062 0.5538 0.0
H263 H 0.67665 0.11976 0.52508 0.0
H264 H 0.56805 0.10238 0.48113 0.0
H265 H 0.43671 0.05043 0.51866 0.0
H266 H 0.42967 0.04206 0.54747 0.0
H267 H 0.90159 0.20771 0.48838 0.0
H268 H 0.866 0.23273 0.49624 0.0
H269 H 0.88792 0.24568 0.47581 0.0
C270 C 0.72085 0.65841 0.76875 0.0
C271 C 0.71461 0.69946 0.77589 0.0
C272 C 0.68747 0.68161 0.80338 0.0
C273 C 0.65533 0.69884 0.80598 0.0
C274 C 0.61722 0.67598 0.817 0.0
C275 C 0.61085 0.6345 0.8253 0.0
C276 C 0.6437 0.61732 0.82269 0.0
C277 C 0.68231 0.64185 0.81197 0.0
C278 C 0.58333 0.69566 0.81956 0.0
C279 C 0.63738 0.57237 0.83088 0.0
C280 C 0.22315 0.35802 0.82181 0.0
C281 C 0.26981 0.36547 0.81397 0.0
C282 C 0.34353 0.44584 0.81509 0.0
C283 C 0.37766 0.43147 0.81872 0.0
C284 C 0.42352 0.46486 0.82544 0.0
C285 C 0.43546 0.51355 0.82842 0.0
C286 C 0.40224 0.52875 0.82387 0.0
C287 C 0.35667 0.4946 0.81713 0.0
C288 C 0.45879 0.44788 0.82973 0.0
C289 C 0.4143 0.58063 0.82664 0.0
C290 C 0.37304 0.44963 0.93331 0.0
C291 C 0.4007 0.43363 0.92495 0.0
C292 C 0.44164 0.46633 0.91618 0.0
C293 C 0.45466 0.51593 0.9156 0.0
C294 C 0.42757 0.53235 0.92443 0.0
C295 C 0.38739 0.49897 0.93337 0.0
C296 C 0.47075 0.44776 0.90744 0.0
C297 C 0.44052 0.58493 0.92416 0.0
C298 C 0.85358 0.76513 0.92676 0.0
C299 C 0.80512 0.76248 0.93029 0.0
C300 C 0.72426 0.69017 0.92721 0.0
C301 C 0.70289 0.64023 0.92423 0.0
C302 C 0.65646 0.61351 0.91694 0.0
C303 C 0.63034 0.63733 0.91299 0.0
C304 C 0.65065 0.6874 0.91686 0.0
C305 C 0.69769 0.71348 0.92383 0.0
C306 C 0.63579 0.56005 0.91315 0.0
C307 C 0.62296 0.71342 0.91337 0.0
C308 C 0.56801 0.60718 0.83581 0.0
C309 C 0.52298 0.57621 0.82821 0.0
C310 C 0.48139 0.54762 0.83721 0.0
C311 C 0.48429 0.5498 0.85429 0.0
C312 C 0.44295 0.5215 0.86368 0.0
C313 C 0.44653 0.52231 0.88047 0.0
C314 C 0.49162 0.55121 0.88852 0.0
C315 C 0.49611 0.55024 0.90554 0.0
C316 C 0.54136 0.57989 0.91318 0.0
C317 C 0.58272 0.61009 0.90425 0.0
C318 C 0.57909 0.61115 0.8872 0.0
C319 C 0.62011 0.64061 0.87781 0.0
C320 C 0.61639 0.64028 0.86101 0.0
C321 C 0.57175 0.60976 0.85292 0.0
C322 C 0.52975 0.58058 0.86217 0.0
C323 C 0.53341 0.58133 0.87932 0.0
C324 C 0.26106 0.38679 0.92487 0.0
C325 C 0.29437 0.37536 0.93513 0.0
O326 O 0.72339 0.70282 0.79245 0.0
O327 O 0.7705 0.71455 0.93331 0.0
O328 O 0.33274 0.41835 0.94155 0.0
O329 O 0.29774 0.41379 0.80961 0.0
H330 H 0.67634 0.69047 0.77333 0.0
H331 H 0.6947 0.62336 0.77436 0.0
H332 H 0.75853 0.6657 0.77107 0.0
H333 H 0.71344 0.65476 0.75548 0.0
H334 H 0.66013 0.73008 0.79933 0.0
H335 H 0.70766 0.62909 0.80982 0.0
H336 H 0.54712 0.67009 0.81398 0.0
H337 H 0.59731 0.73194 0.81408 0.0
H338 H 0.57797 0.69863 0.83269 0.0
H339 H 0.66217 0.56039 0.82598 0.0
H340 H 0.59913 0.542 0.82939 0.0
H341 H 0.64518 0.57997 0.84404 0.0
H342 H 0.28911 0.35586 0.82323 0.0
H343 H 0.2001 0.31963 0.82557 0.0
H344 H 0.2018 0.36711 0.81325 0.0
H345 H 0.23261 0.38199 0.83273 0.0
H346 H 0.36854 0.39424 0.81638 0.0
H347 H 0.33036 0.50545 0.81395 0.0
H348 H 0.49461 0.47182 0.82413 0.0
H349 H 0.44528 0.40968 0.8257 0.0
H350 H 0.46484 0.45051 0.84305 0.0
H351 H 0.38516 0.58705 0.82193 0.0
H352 H 0.44906 0.60586 0.82066 0.0
H353 H 0.4196 0.58954 0.8398 0.0
H354 H 0.3084 0.35681 0.92722 0.0
H355 H 0.39076 0.39574 0.92543 0.0
H356 H 0.36609 0.51097 0.94009 0.0
H357 H 0.46484 0.44792 0.8942 0.0
H358 H 0.46007 0.41009 0.91092 0.0
H359 H 0.51036 0.47195 0.91004 0.0
H360 H 0.41405 0.5913 0.93088 0.0
H361 H 0.44176 0.59648 0.91146 0.0
H362 H 0.4774 0.60824 0.92966 0.0
H363 H 0.7947 0.77516 0.91925 0.0
H364 H 0.88196 0.80297 0.92386 0.0
H365 H 0.84895 0.74119 0.91619 0.0
H366 H 0.86622 0.75294 0.93735 0.0
H367 H 0.72352 0.62256 0.92714 0.0
H368 H 0.71355 0.7519 0.92667 0.0
H369 H 0.62522 0.55236 0.90014 0.0
H370 H 0.60236 0.53829 0.92027 0.0
H371 H 0.66212 0.54779 0.91602 0.0
H372 H 0.64139 0.75083 0.91871 0.0
H373 H 0.58549 0.6925 0.91819 0.0
H374 H 0.61952 0.71585 0.90008 0.0
H375 H 0.52044 0.57366 0.81509 0.0
H376 H 0.40736 0.49807 0.85816 0.0
H377 H 0.41352 0.49956 0.88704 0.0
H378 H 0.54473 0.57842 0.92621 0.0
H379 H 0.65567 0.66415 0.88333 0.0
H380 H 0.64913 0.66373 0.85441 0.0
H381 H 0.24628 0.40547 0.93236 0.0
H382 H 0.23019 0.3528 0.91954 0.0
H383 H 0.28191 0.41091 0.9148 0.0
C384 C 0.08357 0.19576 0.07776 0.0
C385 C 0.04102 0.16988 0.06821 0.0
C386 C 0.08939 0.2324 0.08861 0.0
C387 C 0.05194 0.24394 0.08984 0.0
C388 C 0.0094 0.21897 0.07992 0.0
C389 C 0.00431 0.18192 0.06923 0.0
C390 C 0.13521 0.25795 0.09904 0.0
C391 C 0.96907 0.23083 0.08082 0.0
C392 C 0.05556 0.30369 0.13004 0.0
C393 C 0.08348 0.35316 0.12637 0.0
C394 C 0.04236 0.26756 0.11802 0.0
C395 C 0.05744 0.28131 0.10193 0.0
C396 C 0.08362 0.33119 0.09799 0.0
C397 C 0.09694 0.36657 0.1103 0.0
C398 C 0.0151 0.21475 0.12276 0.0
C399 C 0.10005 0.34723 0.08095 0.0
H400 H 0.11214 0.18669 0.07703 0.0
H401 H 0.97143 0.16204 0.06183 0.0
H402 H 0.1542 0.29776 0.09711 0.0
H403 H 0.1256 0.25196 0.11201 0.0
H404 H 0.16103 0.2449 0.09646 0.0
H405 H 0.93959 0.20994 0.07168 0.0
H406 H 0.95296 0.22251 0.09303 0.0
H407 H 0.98399 0.2703 0.07895 0.0
H408 H 0.04576 0.29329 0.14249 0.0
H409 H 0.11923 0.40472 0.10741 0.0
H410 H 0.03967 0.1995 0.12186 0.0
H411 H 0.98366 0.19317 0.11438 0.0
H412 H 0.0015 0.21002 0.13532 0.0
H413 H 0.12987 0.34009 0.07792 0.0
H414 H 0.11365 0.38665 0.07942 0.0
H415 H 0.06966 0.32617 0.07215 0.0
C416 C 0.95269 0.11494 0.40648 0.0
C417 C 0.92326 0.06932 0.39895 0.0
C418 C 0.93419 0.13191 0.41866 0.0
C419 C 0.88478 0.10305 0.42313 0.0
C420 C 0.85418 0.05827 0.41491 0.0
C421 C 0.87394 0.04164 0.40305 0.0
C422 C 0.96824 0.17948 0.42733 0.0
C423 C 0.80102 0.02707 0.41906 0.0
C424 C 0.85454 0.11892 0.46625 0.0
C425 C 0.83665 0.15084 0.46434 0.0
C426 C 0.86953 0.10248 0.4529 0.0
C427 C 0.86625 0.11809 0.43721 0.0
C428 C 0.84721 0.14948 0.43512 0.0
C429 C 0.8333 0.16607 0.44874 0.0
C430 C 0.89032 0.0696 0.45567 0.0
C431 C 0.84257 0.16637 0.41856 0.0
H432 H 0.99093 0.13631 0.40345 0.0
H433 H 0.85096 0.0065 0.39717 0.0
H434 H 0.95261 0.20374 0.42726 0.0
H435 H 0.97276 0.17245 0.44017 0.0
H436 H 0.00485 0.19886 0.42179 0.0
H437 H 0.781 0.99606 0.41037 0.0
H438 H 0.79794 0.01231 0.43136 0.0
H439 H 0.78301 0.04923 0.41919 0.0
H440 H 0.85802 0.10787 0.47831 0.0
H441 H 0.82047 0.19156 0.44719 0.0
H442 H 0.92866 0.08775 0.4516 0.0
H443 H 0.86946 0.03543 0.44842 0.0
H444 H 0.88957 0.06014 0.4686 0.0
H445 H 0.87935 0.18965 0.41351 0.0
H446 H 0.8234 0.18747 0.41885 0.0
H447 H 0.8224 0.13465 0.41018 0.0
C448 C 0.87891 0.96435 0.73833 0.0
C449 C 0.91101 0.96466 0.72672 0.0
C450 C 0.84771 0.92189 0.74668 0.0
C451 C 0.84795 0.87841 0.74314 0.0
C452 C 0.88005 0.87835 0.73137 0.0
C453 C 0.91155 0.92162 0.7234 0.0
C454 C 0.81459 0.92362 0.75933 0.0
C455 C 0.88076 0.83246 0.72708 0.0
C456 C 0.79676 0.77746 0.77395 0.0
C457 C 0.7491 0.7471 0.7679 0.0
C458 C 0.82922 0.82054 0.76608 0.0
C459 C 0.81408 0.83287 0.75161 0.0
C460 C 0.76637 0.8019 0.74529 0.0
C461 C 0.73448 0.75945 0.75353 0.0
C462 C 0.87969 0.85287 0.77326 0.0
C463 C 0.7491 0.81345 0.72978 0.0
H464 H 0.8786 0.99758 0.74109 0.0
H465 H 0.9361 0.92155 0.7144 0.0
H466 H 0.7759 0.89814 0.75586 0.0
H467 H 0.8215 0.91165 0.77112 0.0
H468 H 0.81981 0.96066 0.76097 0.0
H469 H 0.90775 0.83846 0.71762 0.0
H470 H 0.88965 0.81826 0.73799 0.0
H471 H 0.84406 0.8039 0.72267 0.0
H472 H 0.80872 0.76751 0.78483 0.0
H473 H 0.69804 0.73548 0.74865 0.0
H474 H 0.88575 0.88993 0.77565 0.0
H475 H 0.90761 0.85651 0.76454 0.0
H476 H 0.88548 0.83856 0.78475 0.0
H477 H 0.75064 0.84894 0.73107 0.0
H478 H 0.71118 0.78513 0.72634 0.0
H479 H 0.77359 0.81682 0.71977 0.0
C480 C 0.03602 0.93137 0.05832 0.0
C481 C 0.04342 0.97598 0.06426 0.0
C482 C 0.03521 0.89681 0.06901 0.0
C483 C 0.04219 0.90775 0.08585 0.0
C484 C 0.05289 0.95423 0.09162 0.0
C485 C 0.05295 0.98754 0.08075 0.0
C486 C 0.02396 0.84777 0.0624 0.0
C487 C 0.06131 0.96783 0.10942 0.0
C488 C 0.98176 0.81558 0.11867 0.0
C489 C 0.02237 0.8175 0.12631 0.0
C490 C 0.9871 0.84222 0.10468 0.0
C491 C 0.03386 0.86998 0.09785 0.0
C492 C 0.07384 0.86758 0.10447 0.0
C493 C 0.06769 0.8416 0.1187 0.0
C494 C 0.94344 0.84369 0.09798 0.0
C495 C 0.12384 0.89518 0.0972 0.0
H496 H 0.02813 0.92246 0.04554 0.0
H497 H 0.05871 0.02227 0.08524 0.0
H498 H 0.04703 0.83538 0.06846 0.0
H499 H 0.98532 0.82053 0.06479 0.0
H500 H 0.02949 0.84849 0.04914 0.0
H501 H 0.07236 0.00655 0.11173 0.0
H502 H 0.02735 0.94455 0.1161 0.0
H503 H 0.09011 0.96148 0.11445 0.0
H504 H 0.94618 0.79519 0.12406 0.0
H505 H 0.09885 0.84165 0.12422 0.0
H506 H 0.94022 0.83742 0.08469 0.0
H507 H 0.94827 0.8803 0.10034 0.0
H508 H 0.90884 0.81615 0.10355 0.0
H509 H 0.12131 0.89167 0.0838 0.0
H510 H 0.14828 0.88217 0.10172 0.0
H511 H 0.14072 0.93443 0.10039 0.0
C512 C 0.09062 0.00272 0.41569 0.0
C513 C 0.09985 0.03033 0.4017 0.0
C514 C 0.1286 0.01079 0.42641 0.0
C515 C 0.17714 0.04658 0.42285 0.0
C516 C 0.18686 0.07393 0.40858 0.0
C517 C 0.14797 0.06588 0.39825 0.0
C518 C 0.11664 0.9816 0.44168 0.0
C519 C 0.23829 0.11166 0.40424 0.0
C520 C 0.2672 0.09842 0.45817 0.0
C521 C 0.28986 0.07037 0.45743 0.0
C522 C 0.23103 0.09161 0.44684 0.0
C523 C 0.21744 0.05609 0.43435 0.0
C524 C 0.24064 0.0281 0.43334 0.0
C525 C 0.27603 0.035 0.44505 0.0
C526 C 0.20639 0.12144 0.44854 0.0
C527 C 0.22748 0.99029 0.42006 0.0
H528 H 0.05343 0.97546 0.41847 0.0
H529 H 0.15529 0.087 0.38737 0.0
H530 H 0.13639 0.96114 0.44204 0.0
H531 H 0.12896 0.00647 0.45242 0.0
H532 H 0.07694 0.95534 0.44269 0.0
H533 H 0.23987 0.12841 0.39238 0.0
H534 H 0.25418 0.1409 0.41368 0.0
H535 H 0.26155 0.09485 0.4038 0.0
H536 H 0.27718 0.12511 0.4679 0.0
H537 H 0.29256 0.01241 0.44456 0.0
H538 H 0.16683 0.09701 0.45056 0.0
H539 H 0.2099 0.14125 0.43722 0.0
H540 H 0.22199 0.1483 0.45873 0.0
H541 H 0.18916 0.96053 0.42137 0.0
H542 H 0.25149 0.97426 0.42025 0.0
H543 H 0.23008 0.00665 0.40807 0.0
C544 C 0.1612 0.17787 0.73705 0.0
C545 C 0.11136 0.16063 0.73904 0.0
C546 C 0.19569 0.20972 0.74867 0.0
C547 C 0.17951 0.22386 0.76252 0.0
C548 C 0.12893 0.20376 0.765 0.0
C549 C 0.09562 0.17263 0.75321 0.0
C550 C 0.24931 0.2303 0.74567 0.0
C551 C 0.10989 0.21718 0.77969 0.0
C552 C 0.24979 0.28518 0.80103 0.0
C553 C 0.25698 0.33213 0.79929 0.0
C554 C 0.22883 0.25034 0.78844 0.0
C555 C 0.2144 0.26277 0.77386 0.0
C556 C 0.22509 0.31121 0.77159 0.0
C557 C 0.24578 0.34518 0.7844 0.0
C558 C 0.21822 0.19919 0.79131 0.0
C559 C 0.21059 0.32608 0.75618 0.0
H560 H 0.17335 0.1686 0.72607 0.0
H561 H 0.05696 0.15865 0.75487 0.0
H562 H 0.26564 0.26866 0.74187 0.0
H563 H 0.26875 0.23028 0.7569 0.0
H564 H 0.25559 0.20956 0.73603 0.0
H565 H 0.06946 0.19556 0.78034 0.0
H566 H 0.1256 0.21147 0.79093 0.0
H567 H 0.12115 0.25633 0.77937 0.0
H568 H 0.25812 0.27492 0.81257 0.0
H569 H 0.25079 0.38125 0.78303 0.0
H570 H 0.22602 0.18387 0.78038 0.0
H571 H 0.17893 0.17557 0.79395 0.0
H572 H 0.2399 0.19773 0.8017 0.0
H573 H 0.22046 0.31186 0.74544 0.0
H574 H 0.22822 0.36627 0.75532 0.0
H575 H 0.17043 0.31033 0.75579 0.0
C576 C 0.92945 0.09864 0.67693 0.0
C577 C 0.94492 0.06667 0.67169 0.0
C578 C 0.89182 0.10095 0.66887 0.0
C579 C 0.86946 0.07108 0.655 0.0
C580 C 0.88476 0.03859 0.64957 0.0
C581 C 0.92228 0.03651 0.65808 0.0
C582 C 0.87626 0.13574 0.67521 0.0
C583 C 0.86204 0.00672 0.63469 0.0
C584 C 0.74792 0.06122 0.64637 0.0
C585 C 0.76176 0.10104 0.63628 0.0
C586 C 0.7818 0.04794 0.65144 0.0
C587 C 0.83065 0.07523 0.64629 0.0
C588 C 0.84385 0.11301 0.63508 0.0
C589 C 0.80941 0.12595 0.63038 0.0
C590 C 0.76635 0.00771 0.66351 0.0
C591 C 0.89544 0.14263 0.62916 0.0
H592 H 0.94674 0.12212 0.68743 0.0
H593 H 0.93433 0.01189 0.65396 0.0
H594 H 0.88271 0.16326 0.66596 0.0
H595 H 0.83661 0.11571 0.67769 0.0
H596 H 0.8963 0.15514 0.6865 0.0
H597 H 0.8768 0.98216 0.6324 0.0
H598 H 0.8219 0.98431 0.63596 0.0
H599 H 0.86888 0.02982 0.62397 0.0
H600 H 0.71123 0.04223 0.65105 0.0
H601 H 0.82053 0.15709 0.62271 0.0
H602 H 0.78089 0.02393 0.67569 0.0
H603 H 0.78145 0.98398 0.66039 0.0
H604 H 0.726 0.9849 0.66415 0.0
H605 H 0.91903 0.1682 0.63892 0.0
H606 H 0.89763 0.16419 0.6184 0.0
H607 H 0.91036 0.11874 0.62604 0.0
C608 C 0.85976 0.95389 0.00437 0.0
C609 C 0.90868 0.9708 0.00867 0.0
C610 C 0.83552 0.91663 0.99262 0.0
C611 C 0.86131 0.89696 0.98473 0.0
C612 C 0.91035 0.91326 0.98928 0.0
C613 C 0.93317 0.94948 0.00131 0.0
C614 C 0.78278 0.8991 0.98839 0.0
C615 C 0.93948 0.8939 0.98097 0.0
C616 C 0.80473 0.77861 0.96049 0.0
C617 C 0.81149 0.79554 0.94458 0.0
C618 C 0.81732 0.81091 0.97376 0.0
C619 C 0.83858 0.86139 0.97105 0.0
C620 C 0.8438 0.87841 0.95503 0.0
C621 C 0.83 0.84522 0.942 0.0
C622 C 0.81038 0.79128 0.99066 0.0
C623 C 0.86706 0.93204 0.95161 0.0
H624 H 0.84054 0.96999 0.0101 0.0
H625 H 0.97109 0.96254 0.00446 0.0
H626 H 0.77988 0.90979 0.97589 0.0
H627 H 0.76097 0.85877 0.98873 0.0
H628 H 0.76656 0.91443 0.99675 0.0
H629 H 0.97704 0.90989 0.98613 0.0
H630 H 0.92086 0.85376 0.982 0.0
H631 H 0.94207 0.90212 0.96788 0.0
H632 H 0.79105 0.74035 0.96259 0.0
H633 H 0.8358 0.85839 0.92972 0.0
H634 H 0.79441 0.808 -0.00149 0.0
H635 H 0.84632 0.80072 0.99605 0.0
H636 H 0.78639 0.75106 0.99076 0.0
H637 H 0.84955 0.94857 0.95876 0.0
H638 H 0.86449 0.93887 0.93859 0.0
H639 H 0.90619 0.95088 0.95531 0.0
C640 C 0.04832 0.96418 0.33073 0.0
C641 C 0.01767 0.96007 0.34345 0.0
C642 C 0.04568 0.92265 0.3236 0.0
C643 C 0.01225 0.87614 0.32958 0.0
C644 C 0.98186 0.87192 0.34262 0.0
C645 C 0.9846 0.91395 0.3493 0.0
C646 C 0.07809 0.92847 0.30955 0.0
C647 C 0.94638 0.82298 0.34952 0.0
C648 C 0.96703 0.76193 0.30358 0.0
C649 C 0.99582 0.74325 0.30944 0.0
C650 C 0.97336 0.80617 0.3096 0.0
C651 C 0.00835 0.83163 0.32208 0.0
C652 C 0.03771 0.81316 0.32798 0.0
C653 C 0.03111 0.76919 0.32157 0.0
C654 C 0.94172 0.82503 0.3029 0.0
C655 C 0.07492 0.83894 0.34144 0.0
H656 H 0.07379 -0.00016 0.32614 0.0
H657 H 0.96107 0.91068 0.35919 0.0
H658 H 0.10118 0.91247 0.31246 0.0
H659 H 0.05534 0.90843 0.29877 0.0
H660 H 0.10221 0.96722 0.30638 0.0
H661 H 0.92664 0.82616 0.36005 0.0
H662 H 0.91919 0.79967 0.34008 0.0
H663 H 0.96606 0.80412 0.35338 0.0
H664 H 0.93898 0.74157 0.29446 0.0
H665 H 0.05274 0.75433 0.32631 0.0
H666 H 0.96474 0.86331 0.29909 0.0
H667 H 0.91723 0.8247 0.31243 0.0
H668 H 0.91895 0.80289 0.29238 0.0
H669 H 0.10052 0.87725 0.3382 0.0
H670 H 0.09633 0.82092 0.34415 0.0
H671 H 0.0562 0.83979 0.3526 0.0
C672 C 0.1563 0.0238 0.68392 0.0
C673 C 0.14368 0.05819 0.6791 0.0
C674 C 0.19207 0.01871 0.67573 0.0
C675 C 0.21531 0.04832 0.66228 0.0
C676 C 0.20315 0.08353 0.65751 0.0
C677 C 0.16769 0.08824 0.66604 0.0
C678 C 0.20455 0.98122 0.68133 0.0
C679 C 0.22687 0.11551 0.64316 0.0
C680 C 0.33567 0.06228 0.64873 0.0
C681 C 0.32063 0.02857 0.63579 0.0
C682 C 0.30187 0.06933 0.65739 0.0
C683 C 0.25173 0.04187 0.65305 0.0
C684 C 0.23627 0.00776 0.64 0.0
C685 C 0.27084 0.00117 0.63163 0.0
C686 C 0.31972 0.10563 0.67134 0.0
C687 C 0.18312 0.97787 0.63498 0.0
H688 H 0.13797 0.00057 0.69404 0.0
H689 H 0.15796 0.11475 0.6622 0.0
H690 H 0.19558 0.95354 0.6716 0.0
H691 H 0.2443 -0.00123 0.68393 0.0
H692 H 0.18452 0.9624 0.69236 0.0
H693 H 0.21392 0.14164 0.64116 0.0
H694 H 0.26708 0.13632 0.64494 0.0
H695 H 0.21892 0.09258 0.63207 0.0
H696 H 0.37399 0.08273 0.6522 0.0
H697 H 0.25891 0.97424 0.6219 0.0
H698 H 0.30238 0.08687 0.68269 0.0
H699 H 0.30902 0.13341 0.66929 0.0
H700 H 0.35999 0.12445 0.67305 0.0
H701 H 0.16157 0.95476 0.64513 0.0
H702 H 0.17728 0.954 0.62427 0.0
H703 H 0.16861 0.00221 0.63209 0.0
C704 C 0.08378 0.20659 0.99426 0.0
C705 C 0.0945 0.18026 0.00543 0.0
C706 C 0.11856 0.23749 0.98323 0.0
C707 C 0.1656 0.24285 0.98349 0.0
C708 C 0.17684 0.21652 0.99474 0.0
C709 C 0.14097 0.18517 0.00551 0.0
C710 C 0.10483 0.26431 0.97126 0.0
C711 C 0.22685 0.2219 0.9955 0.0
C712 C 0.23722 0.29082 0.94497 0.0
C713 C 0.26528 0.34088 0.94848 0.0
C714 C 0.20584 0.25821 0.95645 0.0
C715 C 0.20266 0.27606 0.97188 0.0
C716 C 0.2319 0.32636 0.97568 0.0
C717 C 0.26229 0.3583 0.96385 0.0
C718 C 0.17449 0.20501 0.95181 0.0
C719 C 0.22982 0.34671 0.99205 0.0
H720 H 0.04785 0.20275 0.994 0.0
H721 H 0.14959 0.16517 0.01417 0.0
H722 H 0.1289 0.30417 0.97308 0.0
H723 H 0.11014 0.25523 0.95873 0.0
H724 H 0.06632 0.25528 0.97242 0.0
H725 H 0.22991 0.19919 0.00503 0.0
H726 H 0.23535 0.21139 0.98366 0.0
H727 H 0.25487 0.26055 0.99795 0.0
H728 H 0.23879 0.27739 0.93301 0.0
H729 H 0.28305 0.39701 0.96658 0.0
H730 H 0.13548 0.19473 0.95166 0.0
H731 H 0.17892 0.18205 0.96088 0.0
H732 H 0.1835 0.19651 0.9397 0.0
H733 H 0.1936 0.34346 0.99353 0.0
H734 H 0.25841 0.38562 0.99366 0.0
H735 H 0.23429 0.32555 0.00181 0.0
C736 C 0.06943 0.22183 0.34516 0.0
C737 C 0.05004 0.17405 0.33927 0.0
C738 C 0.0807 0.26012 0.33449 0.0
C739 C 0.07429 0.25033 0.31759 0.0
C740 C 0.05544 0.20208 0.31166 0.0
C741 C 0.04267 0.16445 0.3226 0.0
C742 C 0.09888 0.31076 0.34126 0.0
C743 C 0.04946 0.19024 0.29373 0.0
C744 C 0.06114 0.3286 0.28613 0.0
C745 C 0.10737 0.35124 0.27912 0.0
C746 C 0.05077 0.2983 0.29948 0.0
C747 C 0.08741 0.29001 0.30588 0.0
C748 C 0.1351 0.3154 0.29961 0.0
C749 C 0.14479 0.34656 0.28654 0.0
C750 C -9e-05 0.27324 0.30619 0.0
C751 C 0.17511 0.30726 0.306 0.0
H752 H 0.07485 0.22904 0.35809 0.0
H753 H 0.02823 0.12749 0.31806 0.0
H754 H 0.1357 0.33621 0.33663 0.0
H755 H 0.07438 0.32413 0.33719 0.0
H756 H 0.10075 0.31206 0.3547 0.0
H757 H 0.03636 0.15118 0.29113 0.0
H758 H 0.02306 0.19937 0.28831 0.0
H759 H 0.08482 0.21252 0.28765 0.0
H760 H 0.03257 0.33352 0.28084 0.0
H761 H 0.18126 0.36558 0.28176 0.0
H762 H 0.00137 0.27557 0.3196 0.0
H763 H 0.98069 0.23409 0.30265 0.0
H764 H 0.97812 0.28923 0.30161 0.0
H765 H 0.17796 0.311 0.31937 0.0
H766 H 0.2112 0.33311 0.30089 0.0
H767 H 0.16618 0.26962 0.30284 0.0
loop_
_geom_bond_atom_site_label_1
_geom_bond_atom_site_label_2
_geom_bond_distance
_geom_bond_site_symmetry_2
_ccdc_geom_bond_type
Co0 O1 2.216 . S
Co0 O2 2.091 . S
Co0 O4 2.004 . S
Co0 O10 2.021 . S
Co0 O12 2.137 . S
Co0 O13 2.244 . S
O1 Co0 2.216 . S
O1 C8 1.247 1_545 S
O2 Co0 2.091 . S
O2 C8 1.261 1_545 S
C3 O12 1.247 . S
C3 O13 1.272 . S
O4 Co0 2.004 . S
O4 C9 1.259 . S
Co5 O6 2.061 1_655 S
Co5 O11 2.052 . S
Co5 O13 2.135 1_655 S
O6 Co5 2.061 1_455 S
O6 C9 1.235 . S
C7 O10 1.238 1_655 S
C7 O11 1.241 . S
C8 O1 1.247 1_565 S
C8 O2 1.261 1_565 S
C9 O4 1.259 . S
C9 O6 1.235 . S
O10 Co0 2.021 . S
O10 C7 1.238 1_455 S
O11 Co5 2.052 . S
O11 C7 1.241 . S
O12 Co0 2.137 . S
O12 C3 1.247 . S
O13 Co0 2.244 . S
O13 C3 1.272 . S
O13 Co5 2.135 1_455 S
Co14 O15 2.216 . S
Co14 O16 2.091 . S
Co14 O18 2.004 . S
Co14 O24 2.021 . S
Co14 O26 2.137 . S
Co14 O27 2.244 . S
O15 Co14 2.216 . S
O15 C22 1.247 . S
O16 Co14 2.091 . S
O16 C22 1.261 . S
C17 O26 1.247 . S
C17 O27 1.272 . S
O18 Co14 2.004 . S
O18 C23 1.259 . S
Co19 O20 2.061 1_565 S
Co19 O25 2.052 1_465 S
Co19 O27 2.135 1_565 S
O20 Co19 2.061 1_545 S
O20 C23 1.235 . S
C21 O24 1.238 1_655 S
C21 O25 1.241 . S
C22 O15 1.247 . S
C22 O16 1.261 . S
C23 O18 1.259 . S
C23 O20 1.235 . S
O24 Co14 2.021 . S
O24 C21 1.238 1_455 S
O25 Co19 2.052 1_645 S
O25 C21 1.241 . S
O26 Co14 2.137 . S
O26 C17 1.247 . S
O27 Co14 2.244 . S
O27 C17 1.272 . S
O27 Co19 2.135 1_545 S
Co28 O29 2.216 . S
Co28 O30 2.091 . S
Co28 O32 2.004 1_445 S
Co28 O38 2.021 . S
Co28 O40 2.137 1_455 S
Co28 O41 2.244 1_455 S
O29 Co28 2.216 . S
O29 C36 1.247 . S
O30 Co28 2.091 . S
O30 C36 1.261 . S
C31 O40 1.247 . S
C31 O41 1.272 . S
O32 Co28 2.004 1_665 S
O32 C37 1.259 . S
Co33 O34 2.061 . S
Co33 O39 2.052 1_655 S
Co33 O41 2.135 . S
O34 Co33 2.061 . S
O34 C37 1.235 1_545 S
C35 O38 1.238 . S
C35 O39 1.241 . S
C36 O29 1.247 . S
C36 O30 1.261 . S
C37 O32 1.259 . S
C37 O34 1.235 1_565 S
O38 Co28 2.021 . S
O38 C35 1.238 . S
O39 Co33 2.052 1_455 S
O39 C35 1.241 . S
O40 Co28 2.137 1_655 S
O40 C31 1.247 . S
O41 Co28 2.244 1_655 S
O41 C31 1.272 . S
O41 Co33 2.135 . S
C42 C43 1.560 1_655 S
C42 H103 0.959 . S
C42 H104 0.959 . S
C42 H105 0.960 . S
C43 C42 1.560 1_455 S
C43 O98 1.426 1_455 S
C43 H102 0.980 . S
C44 C45 1.407 . S
C44 C49 1.418 1_455 S
C44 O98 1.334 1_455 S
C45 C44 1.407 . S
C45 C46 1.360 . S
C45 H106 0.929 . S
C46 C45 1.360 . S
C46 C47 1.401 . S
C46 C50 1.527 . S
C47 C46 1.401 . S
C47 C48 1.405 1_455 S
C47 C80 1.587 . S
C48 C47 1.405 1_655 S
C48 C49 1.332 . S
C48 C51 1.496 . S
C49 C44 1.418 1_655 S
C49 C48 1.332 . S
C49 H107 0.929 . S
C50 C46 1.527 . S
C50 H108 0.959 . S
C50 H109 0.961 . S
C50 H110 0.961 . S
C51 C48 1.496 . S
C51 H111 0.960 . S
C51 H112 0.960 . S
C51 H113 0.961 . S
C52 C53 1.517 . S
C52 H115 0.961 . S
C52 H116 0.960 . S
C52 H117 0.959 . S
C53 C52 1.517 . S
C53 O101 1.468 . S
C53 H114 0.980 . S
C54 C55 1.349 . S
C54 C59 1.367 . S
C54 O101 1.408 . S
C55 C54 1.349 . S
C55 C56 1.407 . S
C55 H118 0.930 . S
C56 C55 1.407 . S
C56 C57 1.449 . S
C56 C60 1.535 1_455 S
C57 C56 1.449 . S
C57 C58 1.384 . S
C57 C82 1.553 . S
C58 C57 1.384 . S
C58 C59 1.364 . S
C58 C61 1.450 . S
C59 C54 1.367 . S
C59 C58 1.364 . S
C59 H119 0.931 . S
C60 C56 1.535 1_655 S
C60 H120 0.959 . S
C60 H121 0.961 . S
C60 H122 0.959 . S
C61 C58 1.450 . S
C61 H123 0.960 . S
C61 H124 0.960 . S
C61 H125 0.960 . S
C62 C63 1.309 . S
C62 C67 1.304 . S
C62 O100 1.435 . S
C63 C62 1.309 . S
C63 C64 1.476 . S
C63 H127 0.930 . S
C64 C63 1.476 . S
C64 C65 1.400 . S
C64 C68 1.567 1_455 S
C65 C64 1.400 . S
C65 C66 1.373 . S
C65 C87 1.432 . S
C66 C65 1.373 . S
C66 C67 1.339 . S
C66 C69 1.530 . S
C67 C62 1.304 . S
C67 C66 1.339 . S
C67 H128 0.930 . S
C68 C64 1.567 1_655 S
C68 H129 0.961 . S
C68 H130 0.960 . S
C68 H131 0.958 . S
C69 C66 1.530 . S
C69 H132 0.961 . S
C69 H133 0.960 . S
C69 H134 0.960 . S
C70 C71 1.530 1_655 S
C70 H136 0.961 1_655 S
C70 H137 0.961 . S
C70 H138 0.959 . S
C71 C70 1.530 1_455 S
C71 O99 1.412 1_455 S
C71 H135 0.980 . S
C72 C73 1.294 . S
C72 C77 1.359 1_655 S
C72 O99 1.406 . S
C73 C72 1.294 . S
C73 C74 1.369 . S
C73 H139 0.932 . S
C74 C73 1.369 . S
C74 C75 1.398 1_655 S
C74 C78 1.527 . S
C75 C74 1.398 1_455 S
C75 C76 1.380 . S
C75 C89 1.497 . S
C76 C75 1.380 . S
C76 C77 1.383 . S
C76 C79 1.603 . S
C77 C72 1.359 1_455 S
C77 C76 1.383 . S
C77 H140 0.929 . S
C78 C74 1.527 . S
C78 H141 0.961 . S
C78 H142 0.959 . S
C78 H143 0.959 . S
C79 C76 1.603 . S
C79 H144 0.960 . S
C79 H145 0.962 . S
C79 H146 0.961 . S
C80 C47 1.587 . S
C80 C81 1.360 . S
C80 C93 1.412 . S
C81 C80 1.360 . S
C81 C82 1.365 . S
C81 H147 0.929 . S
C82 C57 1.553 . S
C82 C81 1.365 . S
C82 C83 1.404 . S
C83 C82 1.404 . S
C83 C84 1.395 . S
C83 C94 1.451 . S
C84 C83 1.395 . S
C84 C85 1.322 . S
C84 H148 0.930 . S
C85 C84 1.322 . S
C85 C86 1.459 . S
C85 H149 0.929 . S
C86 C85 1.459 . S
C86 C87 1.445 . S
C86 C95 1.395 . S
C87 C65 1.432 . S
C87 C86 1.445 . S
C87 C88 1.370 . S
C88 C87 1.370 . S
C88 C89 1.438 . S
C88 H150 0.930 . S
C89 C75 1.497 . S
C89 C88 1.438 . S
C89 C90 1.360 . S
C90 C89 1.360 . S
C90 C91 1.401 . S
C90 C95 1.446 . S
C91 C90 1.401 . S
C91 C92 1.347 . S
C91 H151 0.929 . S
C92 C91 1.347 . S
C92 C93 1.455 . S
C92 H152 0.930 . S
C93 C80 1.412 . S
C93 C92 1.455 . S
C93 C94 1.331 . S
C94 C83 1.451 . S
C94 C93 1.331 . S
C94 C95 1.497 . S
C95 C86 1.395 . S
C95 C90 1.446 . S
C95 C94 1.497 . S
C96 C97 1.582 . S
C96 H153 0.962 . S
C96 H154 0.959 . S
C96 H155 0.958 . S
C97 C96 1.582 . S
C97 O100 1.458 . S
C97 H126 0.980 . S
O98 C43 1.426 1_655 S
O98 C44 1.334 1_655 S
O99 C71 1.412 1_655 S
O99 C72 1.406 . S
O100 C62 1.435 . S
O100 C97 1.458 . S
O101 C53 1.468 . S
O101 C54 1.408 . S
H102 C43 0.980 . S
H103 C42 0.959 . S
H104 C42 0.959 . S
H105 C42 0.960 . S
H106 C45 0.929 . S
H107 C49 0.929 . S
H108 C50 0.959 . S
H109 C50 0.961 . S
H110 C50 0.961 . S
H111 C51 0.960 . S
H112 C51 0.960 . S
H113 C51 0.961 . S
H114 C53 0.980 . S
H115 C52 0.961 . S
H116 C52 0.960 . S
H117 C52 0.959 . S
H118 C55 0.930 . S
H119 C59 0.931 . S
H120 C60 0.959 . S
H121 C60 0.961 . S
H122 C60 0.959 . S
H123 C61 0.960 . S
H124 C61 0.960 . S
H125 C61 0.960 . S
H126 C97 0.980 . S
H127 C63 0.930 . S
H128 C67 0.930 . S
H129 C68 0.961 . S
H130 C68 0.960 . S
H131 C68 0.958 . S
H132 C69 0.961 . S
H133 C69 0.960 . S
H134 C69 0.960 . S
H135 C71 0.980 . S
H136 C70 0.961 1_455 S
H137 C70 0.961 . S
H138 C70 0.959 . S
H139 C73 0.932 . S
H140 C77 0.929 . S
H141 C78 0.961 . S
H142 C78 0.959 . S
H143 C78 0.959 . S
H144 C79 0.960 . S
H145 C79 0.962 . S
H146 C79 0.961 . S
H147 C81 0.929 . S
H148 C84 0.930 . S
H149 C85 0.929 . S
H150 C88 0.930 . S
H151 C91 0.929 . S
H152 C92 0.930 . S
H153 C96 0.962 . S
H154 C96 0.959 . S
H155 C96 0.958 . S
C156 C157 1.560 1_565 S
C156 H217 0.959 . S
C156 H218 0.959 . S
C156 H219 0.960 1_565 S
C157 C156 1.560 1_545 S
C157 O212 1.426 . S
C157 H216 0.980 . S
C158 C159 1.407 . S
C158 C163 1.418 . S
C158 O212 1.334 . S
C159 C158 1.407 . S
C159 C160 1.360 . S
C159 H220 0.929 . S
C160 C159 1.360 . S
C160 C161 1.401 . S
C160 C164 1.527 . S
C161 C160 1.401 . S
C161 C162 1.405 . S
C161 C194 1.587 . S
C162 C161 1.405 . S
C162 C163 1.332 . S
C162 C165 1.496 1_545 S
C163 C158 1.418 . S
C163 C162 1.332 . S
C163 H221 0.929 1_545 S
C164 C160 1.527 . S
C164 H222 0.959 . S
C164 H223 0.961 . S
C164 H224 0.961 . S
C165 C162 1.496 1_565 S
C165 H225 0.960 . S
C165 H226 0.960 . S
C165 H227 0.961 . S
C166 C167 1.517 . S
C166 H229 0.961 . S
C166 H230 0.960 . S
C166 H231 0.959 . S
C167 C166 1.517 . S
C167 O215 1.468 . S
C167 H228 0.980 . S
C168 C169 1.349 . S
C168 C173 1.367 . S
C168 O215 1.408 . S
C169 C168 1.349 . S
C169 C170 1.407 . S
C169 H232 0.930 . S
C170 C169 1.407 . S
C170 C171 1.449 . S
C170 C174 1.535 . S
C171 C170 1.449 . S
C171 C172 1.384 . S
C171 C196 1.553 . S
C172 C171 1.384 . S
C172 C173 1.364 . S
C172 C175 1.450 . S
C173 C168 1.367 . S
C173 C172 1.364 . S
C173 H233 0.931 . S
C174 C170 1.535 . S
C174 H234 0.959 . S
C174 H235 0.961 . S
C174 H236 0.959 . S
C175 C172 1.450 . S
C175 H237 0.960 . S
C175 H238 0.960 . S
C175 H239 0.960 . S
C176 C177 1.309 . S
C176 C181 1.304 . S
C176 O214 1.435 . S
C177 C176 1.309 . S
C177 C178 1.476 . S
C177 H241 0.930 . S
C178 C177 1.476 . S
C178 C179 1.400 . S
C178 C182 1.567 . S
C179 C178 1.400 . S
C179 C180 1.373 . S
C179 C201 1.432 . S
C180 C179 1.373 . S
C180 C181 1.339 . S
C180 C183 1.530 . S
C181 C176 1.304 . S
C181 C180 1.339 . S
C181 H242 0.930 . S
C182 C178 1.567 . S
C182 H243 0.961 . S
C182 H244 0.960 1_545 S
C182 H245 0.958 1_545 S
C183 C180 1.530 . S
C183 H246 0.961 . S
C183 H247 0.960 . S
C183 H248 0.960 . S
C184 C185 1.530 . S
C184 H250 0.961 . S
C184 H251 0.961 . S
C184 H252 0.959 . S
C185 C184 1.530 . S
C185 O213 1.412 . S
C185 H249 0.980 . S
C186 C187 1.288 . S
C186 C191 1.377 . S
C186 O213 1.393 . S
C187 C186 1.288 . S
C187 C188 1.369 . S
C187 H253 0.932 1_545 S
C188 C187 1.369 . S
C188 C189 1.398 . S
C188 C192 1.527 1_545 S
C189 C188 1.398 . S
C189 C190 1.380 . S
C189 C203 1.497 . S
C190 C189 1.380 . S
C190 C191 1.383 . S
C190 C193 1.603 . S
C191 C186 1.377 . S
C191 C190 1.383 . S
C191 H254 0.929 . S
C192 C188 1.527 1_565 S
C192 H255 0.961 . S
C192 H256 0.959 . S
C192 H257 0.959 . S
C193 C190 1.603 . S
C193 H258 0.960 . S
C193 H259 0.962 . S
C193 H260 0.961 . S
C194 C161 1.587 . S
C194 C195 1.360 . S
C194 C207 1.412 . S
C195 C194 1.360 . S
C195 C196 1.365 . S
C195 H261 0.929 . S
C196 C171 1.553 . S
C196 C195 1.365 . S
C196 C197 1.404 . S
C197 C196 1.404 . S
C197 C198 1.395 . S
C197 C208 1.451 . S
C198 C197 1.395 . S
C198 C199 1.322 . S
C198 H262 0.930 . S
C199 C198 1.322 . S
C199 C200 1.459 . S
C199 H263 0.929 . S
C200 C199 1.459 . S
C200 C201 1.445 . S
C200 C209 1.395 . S
C201 C179 1.432 . S
C201 C200 1.445 . S
C201 C202 1.370 . S
C202 C201 1.370 . S
C202 C203 1.438 . S
C202 H264 0.930 . S
C203 C189 1.497 . S
C203 C202 1.438 . S
C203 C204 1.360 . S
C204 C203 1.360 . S
C204 C205 1.401 . S
C204 C209 1.446 . S
C205 C204 1.401 . S
C205 C206 1.347 . S
C205 H265 0.929 . S
C206 C205 1.347 . S
C206 C207 1.455 . S
C206 H266 0.930 . S
C207 C194 1.412 . S
C207 C206 1.455 . S
C207 C208 1.331 . S
C208 C197 1.451 . S
C208 C207 1.331 . S
C208 C209 1.497 . S
C209 C200 1.395 . S
C209 C204 1.446 . S
C209 C208 1.497 . S
C210 C211 1.582 . S
C210 H267 0.962 . S
C210 H268 0.959 . S
C210 H269 0.958 . S
C211 C210 1.582 . S
C211 O214 1.458 . S
C211 H240 0.980 . S
O212 C157 1.426 . S
O212 C158 1.334 . S
O213 C185 1.412 . S
O213 C186 1.393 . S
O214 C176 1.435 . S
O214 C211 1.458 . S
O215 C167 1.468 . S
O215 C168 1.408 . S
H216 C157 0.980 . S
H217 C156 0.959 . S
H218 C156 0.959 . S
H219 C156 0.960 1_545 S
H220 C159 0.929 . S
H221 C163 0.929 1_565 S
H222 C164 0.959 . S
H223 C164 0.961 . S
H224 C164 0.961 . S
H225 C165 0.960 . S
H226 C165 0.960 . S
H227 C165 0.961 . S
H228 C167 0.980 . S
H229 C166 0.961 . S
H230 C166 0.960 . S
H231 C166 0.959 . S
H232 C169 0.930 . S
H233 C173 0.931 . S
H234 C174 0.959 . S
H235 C174 0.961 . S
H236 C174 0.959 . S
H237 C175 0.960 . S
H238 C175 0.960 . S
H239 C175 0.960 . S
H240 C211 0.980 . S
H241 C177 0.930 . S
H242 C181 0.930 . S
H243 C182 0.961 . S
H244 C182 0.960 1_565 S
H245 C182 0.958 1_565 S
H246 C183 0.961 . S
H247 C183 0.960 . S
H248 C183 0.960 . S
H249 C185 0.980 . S
H250 C184 0.961 . S
H251 C184 0.961 . S
H252 C184 0.959 . S
H253 C187 0.932 1_565 S
H254 C191 0.929 . S
H255 C192 0.961 . S
H256 C192 0.959 . S
H257 C192 0.959 . S
H258 C193 0.960 . S
H259 C193 0.962 . S
H260 C193 0.961 . S
H261 C195 0.929 . S
H262 C198 0.930 . S
H263 C199 0.929 . S
H264 C202 0.930 . S
H265 C205 0.929 . S
H266 C206 0.930 . S
H267 C210 0.962 . S
H268 C210 0.959 . S
H269 C210 0.958 . S
C270 C271 1.560 . S
C270 H331 0.959 . S
C270 H332 0.959 . S
C270 H333 0.960 . S
C271 C270 1.560 . S
C271 O326 1.426 . S
C271 H330 0.980 . S
C272 C273 1.407 . S
C272 C277 1.418 . S
C272 O326 1.334 . S
C273 C272 1.407 . S
C273 C274 1.360 . S
C273 H334 0.929 . S
C274 C273 1.360 . S
C274 C275 1.401 . S
C274 C278 1.527 . S
C275 C274 1.401 . S
C275 C276 1.405 . S
C275 C308 1.587 . S
C276 C275 1.405 . S
C276 C277 1.332 . S
C276 C279 1.496 . S
C277 C272 1.418 . S
C277 C276 1.332 . S
C277 H335 0.929 . S
C278 C274 1.527 . S
C278 H336 0.959 . S
C278 H337 0.961 . S
C278 H338 0.961 . S
C279 C276 1.496 . S
C279 H339 0.960 . S
C279 H340 0.960 . S
C279 H341 0.961 . S
C280 C281 1.517 . S
C280 H343 0.961 . S
C280 H344 0.960 . S
C280 H345 0.959 . S
C281 C280 1.517 . S
C281 O329 1.468 . S
C281 H342 0.980 . S
C282 C283 1.349 . S
C282 C287 1.367 . S
C282 O329 1.408 . S
C283 C282 1.349 . S
C283 C284 1.407 . S
C283 H346 0.930 . S
C284 C283 1.407 . S
C284 C285 1.449 . S
C284 C288 1.535 . S
C285 C284 1.449 . S
C285 C286 1.384 . S
C285 C310 1.553 . S
C286 C285 1.384 . S
C286 C287 1.364 . S
C286 C289 1.450 . S
C287 C282 1.367 . S
C287 C286 1.364 . S
C287 H347 0.931 . S
C288 C284 1.535 . S
C288 H348 0.959 . S
C288 H349 0.961 . S
C288 H350 0.959 . S
C289 C286 1.450 . S
C289 H351 0.960 . S
C289 H352 0.960 . S
C289 H353 0.960 . S
C290 C291 1.309 . S
C290 C295 1.304 . S
C290 O328 1.435 . S
C291 C290 1.309 . S
C291 C292 1.476 . S
C291 H355 0.930 . S
C292 C291 1.476 . S
C292 C293 1.400 . S
C292 C296 1.567 . S
C293 C292 1.400 . S
C293 C294 1.373 . S
C293 C315 1.432 . S
C294 C293 1.373 . S
C294 C295 1.339 . S
C294 C297 1.530 . S
C295 C290 1.304 . S
C295 C294 1.339 . S
C295 H356 0.930 . S
C296 C292 1.567 . S
C296 H357 0.961 . S
C296 H358 0.960 . S
C296 H359 0.958 . S
C297 C294 1.530 . S
C297 H360 0.961 . S
C297 H361 0.960 . S
C297 H362 0.960 . S
C298 C299 1.530 . S
C298 H364 0.961 . S
C298 H365 0.961 . S
C298 H366 0.959 . S
C299 C298 1.530 . S
C299 O327 1.412 . S
C299 H363 0.980 . S
C300 C301 1.288 . S
C300 C305 1.377 . S
C300 O327 1.393 . S
C301 C300 1.288 . S
C301 C302 1.369 . S
C301 H367 0.932 . S
C302 C301 1.369 . S
C302 C303 1.398 . S
C302 C306 1.527 . S
C303 C302 1.398 . S
C303 C304 1.380 . S
C303 C317 1.497 . S
C304 C303 1.380 . S
C304 C305 1.383 . S
C304 C307 1.603 . S
C305 C300 1.377 . S
C305 C304 1.383 . S
C305 H368 0.929 . S
C306 C302 1.527 . S
C306 H369 0.961 . S
C306 H370 0.959 . S
C306 H371 0.959 . S
C307 C304 1.603 . S
C307 H372 0.960 . S
C307 H373 0.962 . S
C307 H374 0.961 . S
C308 C275 1.587 . S
C308 C309 1.360 . S
C308 C321 1.412 . S
C309 C308 1.360 . S
C309 C310 1.365 . S
C309 H375 0.929 . S
C310 C285 1.553 . S
C310 C309 1.365 . S
C310 C311 1.404 . S
C311 C310 1.404 . S
C311 C312 1.395 . S
C311 C322 1.451 . S
C312 C311 1.395 . S
C312 C313 1.322 . S
C312 H376 0.930 . S
C313 C312 1.322 . S
C313 C314 1.459 . S
C313 H377 0.929 . S
C314 C313 1.459 . S
C314 C315 1.445 . S
C314 C323 1.395 . S
C315 C293 1.432 . S
C315 C314 1.445 . S
C315 C316 1.370 . S
C316 C315 1.370 . S
C316 C317 1.438 . S
C316 H378 0.930 . S
C317 C303 1.497 . S
C317 C316 1.438 . S
C317 C318 1.360 . S
C318 C317 1.360 . S
C318 C319 1.401 . S
C318 C323 1.446 . S
C319 C318 1.401 . S
C319 C320 1.347 . S
C319 H379 0.929 . S
C320 C319 1.347 . S
C320 C321 1.455 . S
C320 H380 0.930 . S
C321 C308 1.412 . S
C321 C320 1.455 . S
C321 C322 1.331 . S
C322 C311 1.451 . S
C322 C321 1.331 . S
C322 C323 1.497 . S
C323 C314 1.395 . S
C323 C318 1.446 . S
C323 C322 1.497 . S
C324 C325 1.582 . S
C324 H381 0.962 . S
C324 H382 0.959 . S
C324 H383 0.958 . S
C325 C324 1.582 . S
C325 O328 1.458 . S
C325 H354 0.980 . S
O326 C271 1.426 . S
O326 C272 1.334 . S
O327 C299 1.412 . S
O327 C300 1.393 . S
O328 C290 1.435 . S
O328 C325 1.458 . S
O329 C281 1.468 . S
O329 C282 1.408 . S
H330 C271 0.980 . S
H331 C270 0.959 . S
H332 C270 0.959 . S
H333 C270 0.960 . S
H334 C273 0.929 . S
H335 C277 0.929 . S
H336 C278 0.959 . S
H337 C278 0.961 . S
H338 C278 0.961 . S
H339 C279 0.960 . S
H340 C279 0.960 . S
H341 C279 0.961 . S
H342 C281 0.980 . S
H343 C280 0.961 . S
H344 C280 0.960 . S
H345 C280 0.959 . S
H346 C283 0.930 . S
H347 C287 0.931 . S
H348 C288 0.959 . S
H349 C288 0.961 . S
H350 C288 0.959 . S
H351 C289 0.960 . S
H352 C289 0.960 . S
H353 C289 0.960 . S
H354 C325 0.980 . S
H355 C291 0.930 . S
H356 C295 0.930 . S
H357 C296 0.961 . S
H358 C296 0.960 . S
H359 C296 0.958 . S
H360 C297 0.961 . S
H361 C297 0.960 . S
H362 C297 0.960 . S
H363 C299 0.980 . S
H364 C298 0.961 . S
H365 C298 0.961 . S
H366 C298 0.959 . S
H367 C301 0.932 . S
H368 C305 0.929 . S
H369 C306 0.961 . S
H370 C306 0.959 . S
H371 C306 0.959 . S
H372 C307 0.960 . S
H373 C307 0.962 . S
H374 C307 0.961 . S
H375 C309 0.929 . S
H376 C312 0.930 . S
H377 C313 0.929 . S
H378 C316 0.930 . S
H379 C319 0.929 . S
H380 C320 0.930 . S
H381 C324 0.962 . S
H382 C324 0.959 . S
H383 C324 0.958 . S
C384 C385 1.391 . S
C384 C386 1.394 . S
C384 H400 0.931 . S
C385 C384 1.391 . S
C385 C389 1.376 1_455 S
C386 C384 1.394 . S
C386 C387 1.369 . S
C386 C390 1.531 . S
C387 C386 1.369 . S
C387 C388 1.410 1_455 S
C387 C395 1.503 . S
C388 C387 1.410 1_655 S
C388 C389 1.392 . S
C388 C391 1.511 . S
C389 C385 1.376 1_655 S
C389 C388 1.392 . S
C389 H401 0.929 . S
C390 C386 1.531 . S
C390 H402 0.960 . S
C390 H403 0.962 . S
C390 H404 0.960 . S
C391 C388 1.511 . S
C391 H405 0.961 . S
C391 H406 0.961 . S
C391 H407 0.961 . S
C392 C393 1.370 . S
C392 C394 1.363 . S
C392 H408 0.931 . S
C393 C392 1.370 . S
C393 C397 1.408 1_455 S
C394 C392 1.363 . S
C394 C395 1.370 . S
C394 C398 1.524 . S
C395 C387 1.503 . S
C395 C394 1.370 . S
C395 C396 1.403 1_455 S
C396 C395 1.403 1_655 S
C396 C397 1.404 . S
C396 C399 1.539 . S
C397 C393 1.408 1_655 S
C397 C396 1.404 . S
C397 H409 0.930 . S
C398 C394 1.524 . S
C398 H410 0.956 . S
C398 H411 0.961 . S
C398 H412 0.961 . S
C399 C396 1.539 . S
C399 H413 0.958 . S
C399 H414 0.961 . S
C399 H415 0.960 . S
H400 C384 0.931 . S
H401 C389 0.929 . S
H402 C390 0.960 . S
H403 C390 0.962 . S
H404 C390 0.960 . S
H405 C391 0.961 . S
H406 C391 0.961 . S
H407 C391 0.961 . S
H408 C392 0.931 . S
H409 C397 0.930 . S
H410 C398 0.956 . S
H411 C398 0.961 . S
H412 C398 0.961 . S
H413 C399 0.958 . S
H414 C399 0.961 . S
H415 C399 0.960 . S
C416 C417 1.391 . S
C416 C418 1.394 . S
C416 H432 0.935 . S
C417 C416 1.391 . S
C417 C421 1.376 . S
C418 C416 1.394 . S
C418 C419 1.369 . S
C418 C422 1.531 . S
C419 C418 1.369 . S
C419 C420 1.410 . S
C419 C427 1.503 . S
C420 C419 1.410 . S
C420 C421 1.392 . S
C420 C423 1.511 . S
C421 C417 1.376 . S
C421 C420 1.392 . S
C421 H433 0.929 . S
C422 C418 1.531 . S
C422 H434 0.960 . S
C422 H435 0.962 . S
C422 H436 0.960 . S
C423 C420 1.511 . S
C423 H437 0.961 . S
C423 H438 0.961 . S
C423 H439 0.961 . S
C424 C425 1.370 . S
C424 C426 1.363 . S
C424 H440 0.931 1_545 S
C425 C424 1.370 . S
C425 C429 1.408 . S
C426 C424 1.363 . S
C426 C427 1.370 . S
C426 C430 1.524 1_545 S
C427 C419 1.503 . S
C427 C426 1.370 . S
C427 C428 1.403 . S
C428 C427 1.403 . S
C428 C429 1.404 . S
C428 C431 1.539 . S
C429 C425 1.408 . S
C429 C428 1.404 . S
C429 H441 0.930 . S
C430 C426 1.524 1_565 S
C430 H442 0.956 . S
C430 H443 0.961 . S
C430 H444 0.961 . S
C431 C428 1.539 . S
C431 H445 0.958 . S
C431 H446 0.961 . S
C431 H447 0.960 . S
H432 C416 0.935 . S
H433 C421 0.929 . S
H434 C422 0.960 . S
H435 C422 0.962 . S
H436 C422 0.960 . S
H437 C423 0.961 . S
H438 C423 0.961 . S
H439 C423 0.961 . S
H440 C424 0.931 1_565 S
H441 C429 0.930 . S
H442 C430 0.956 . S
H443 C430 0.961 . S
H444 C430 0.961 . S
H445 C431 0.958 . S
H446 C431 0.961 . S
H447 C431 0.960 . S
C448 C449 1.391 . S
C448 C450 1.394 . S
C448 H464 0.931 1_565 S
C449 C448 1.391 . S
C449 C453 1.376 . S
C450 C448 1.394 . S
C450 C451 1.369 . S
C450 C454 1.531 . S
C451 C450 1.369 . S
C451 C452 1.410 . S
C451 C459 1.503 . S
C452 C451 1.410 . S
C452 C453 1.392 . S
C452 C455 1.511 . S
C453 C449 1.376 . S
C453 C452 1.392 . S
C453 H465 0.929 . S
C454 C450 1.531 . S
C454 H466 0.960 . S
C454 H467 0.962 . S
C454 H468 0.950 1_565 S
C455 C452 1.511 . S
C455 H469 0.961 . S
C455 H470 0.961 . S
C455 H471 0.961 . S
C456 C457 1.370 . S
C456 C458 1.363 . S
C456 H472 0.931 . S
C457 C456 1.370 . S
C457 C461 1.408 . S
C458 C456 1.363 . S
C458 C459 1.370 . S
C458 C462 1.524 . S
C459 C451 1.503 . S
C459 C458 1.370 . S
C459 C460 1.403 . S
C460 C459 1.403 . S
C460 C461 1.404 . S
C460 C463 1.539 . S
C461 C457 1.408 . S
C461 C460 1.404 . S
C461 H473 0.930 . S
C462 C458 1.524 . S
C462 H474 0.956 . S
C462 H475 0.961 . S
C462 H476 0.961 . S
C463 C460 1.539 . S
C463 H477 0.958 . S
C463 H478 0.961 . S
C463 H479 0.960 . S
H464 C448 0.931 1_545 S
H465 C453 0.929 . S
H466 C454 0.960 . S
H467 C454 0.962 . S
H468 C454 0.950 1_545 S
H469 C455 0.961 . S
H470 C455 0.961 . S
H471 C455 0.961 . S
H472 C456 0.931 . S
H473 C461 0.930 . S
H474 C462 0.956 . S
H475 C462 0.961 . S
H476 C462 0.961 . S
H477 C463 0.958 . S
H478 C463 0.961 . S
H479 C463 0.960 . S
C480 C481 1.391 . S
C480 C482 1.394 . S
C480 H496 0.931 1_455 S
C481 C480 1.391 . S
C481 C485 1.376 . S
C482 C480 1.394 . S
C482 C483 1.369 . S
C482 C486 1.531 1_455 S
C483 C482 1.369 . S
C483 C484 1.410 . S
C483 C491 1.503 . S
C484 C483 1.410 . S
C484 C485 1.392 . S
C484 C487 1.511 . S
C485 C481 1.376 . S
C485 C484 1.392 . S
C485 H497 0.929 1_565 S
C486 C482 1.531 1_655 S
C486 H498 0.960 1_655 S
C486 H499 0.962 . S
C486 H500 0.960 . S
C487 C484 1.511 . S
C487 H501 0.961 . S
C487 H502 0.961 . S
C487 H503 0.961 . S
C488 C489 1.370 . S
C488 C490 1.363 . S
C488 H504 0.931 1_455 S
C489 C488 1.370 . S
C489 C493 1.408 . S
C490 C488 1.363 . S
C490 C491 1.370 . S
C490 C494 1.524 1_455 S
C491 C483 1.503 . S
C491 C490 1.370 . S
C491 C492 1.403 . S
C492 C491 1.403 . S
C492 C493 1.404 . S
C492 C495 1.539 . S
C493 C489 1.408 . S
C493 C492 1.404 . S
C493 H505 0.930 . S
C494 C490 1.524 1_655 S
C494 H506 0.956 . S
C494 H507 0.961 . S
C494 H508 0.961 . S
C495 C492 1.539 . S
C495 H509 0.958 . S
C495 H510 0.961 . S
C495 H511 0.960 . S
H496 C480 0.931 1_655 S
H497 C485 0.929 1_545 S
H498 C486 0.960 1_455 S
H499 C486 0.962 . S
H500 C486 0.960 . S
H501 C487 0.961 . S
H502 C487 0.961 . S
H503 C487 0.961 . S
H504 C488 0.931 1_655 S
H505 C493 0.930 . S
H506 C494 0.956 . S
H507 C494 0.961 . S
H508 C494 0.961 . S
H509 C495 0.958 . S
H510 C495 0.961 . S
H511 C495 0.960 . S
C512 C513 1.391 . S
C512 C514 1.394 . S
C512 H528 0.931 . S
C513 C512 1.391 . S
C513 C517 1.376 . S
C514 C512 1.394 . S
C514 C515 1.369 . S
C514 C518 1.531 . S
C515 C514 1.369 . S
C515 C516 1.410 . S
C515 C523 1.503 . S
C516 C515 1.410 . S
C516 C517 1.392 . S
C516 C519 1.511 . S
C517 C513 1.376 . S
C517 C516 1.392 . S
C517 H529 0.929 . S
C518 C514 1.531 . S
C518 H530 0.960 . S
C518 H531 0.962 . S
C518 H532 0.960 . S
C519 C516 1.511 . S
C519 H533 0.961 . S
C519 H534 0.961 . S
C519 H535 0.961 . S
C520 C521 1.370 . S
C520 C522 1.363 . S
C520 H536 0.931 . S
C521 C520 1.370 . S
C521 C525 1.408 . S
C522 C520 1.363 . S
C522 C523 1.370 . S
C522 C526 1.524 . S
C523 C515 1.503 . S
C523 C522 1.370 . S
C523 C524 1.403 . S
C524 C523 1.403 . S
C524 C525 1.404 . S
C524 C527 1.539 1_545 S
C525 C521 1.408 . S
C525 C524 1.404 . S
C525 H537 0.930 . S
C526 C522 1.524 . S
C526 H538 0.956 . S
C526 H539 0.961 . S
C526 H540 0.961 . S
C527 C524 1.539 1_565 S
C527 H541 0.958 . S
C527 H542 0.961 . S
C527 H543 0.960 . S
H528 C512 0.931 . S
H529 C517 0.929 . S
H530 C518 0.960 . S
H531 C518 0.962 . S
H532 C518 0.960 . S
H533 C519 0.961 . S
H534 C519 0.961 . S
H535 C519 0.961 . S
H536 C520 0.931 . S
H537 C525 0.930 . S
H538 C526 0.956 . S
H539 C526 0.961 . S
H540 C526 0.961 . S
H541 C527 0.958 . S
H542 C527 0.961 . S
H543 C527 0.960 . S
C544 C545 1.391 . S
C544 C546 1.394 . S
C544 H560 0.931 . S
C545 C544 1.391 . S
C545 C549 1.376 . S
C546 C544 1.394 . S
C546 C547 1.369 . S
C546 C550 1.531 . S
C547 C546 1.369 . S
C547 C548 1.410 . S
C547 C555 1.503 . S
C548 C547 1.410 . S
C548 C549 1.392 . S
C548 C551 1.511 . S
C549 C545 1.376 . S
C549 C548 1.392 . S
C549 H561 0.929 . S
C550 C546 1.531 . S
C550 H562 0.960 . S
C550 H563 0.962 . S
C550 H564 0.960 . S
C551 C548 1.511 . S
C551 H565 0.961 . S
C551 H566 0.961 . S
C551 H567 0.961 . S
C552 C553 1.370 . S
C552 C554 1.363 . S
C552 H568 0.931 . S
C553 C552 1.370 . S
C553 C557 1.408 . S
C554 C552 1.363 . S
C554 C555 1.370 . S
C554 C558 1.524 . S
C555 C547 1.503 . S
C555 C554 1.370 . S
C555 C556 1.403 . S
C556 C555 1.403 . S
C556 C557 1.404 . S
C556 C559 1.539 . S
C557 C553 1.408 . S
C557 C556 1.404 . S
C557 H569 0.930 . S
C558 C554 1.524 . S
C558 H570 0.956 . S
C558 H571 0.961 . S
C558 H572 0.961 . S
C559 C556 1.539 . S
C559 H573 0.958 . S
C559 H574 0.961 . S
C559 H575 0.960 . S
H560 C544 0.931 . S
H561 C549 0.929 . S
H562 C550 0.960 . S
H563 C550 0.962 . S
H564 C550 0.960 . S
H565 C551 0.961 . S
H566 C551 0.961 . S
H567 C551 0.961 . S
H568 C552 0.931 . S
H569 C557 0.930 . S
H570 C558 0.956 . S
H571 C558 0.961 . S
H572 C558 0.961 . S
H573 C559 0.958 . S
H574 C559 0.961 . S
H575 C559 0.960 . S
C576 C577 1.391 . S
C576 C578 1.394 . S
C576 H592 0.931 . S
C577 C576 1.391 . S
C577 C581 1.376 . S
C578 C576 1.394 . S
C578 C579 1.369 . S
C578 C582 1.531 . S
C579 C578 1.369 . S
C579 C580 1.410 . S
C579 C587 1.503 . S
C580 C579 1.410 . S
C580 C581 1.392 . S
C580 C583 1.511 . S
C581 C577 1.376 . S
C581 C580 1.392 . S
C581 H593 0.929 . S
C582 C578 1.531 . S
C582 H594 0.960 . S
C582 H595 0.962 . S
C582 H596 0.960 . S
C583 C580 1.511 . S
C583 H597 0.961 . S
C583 H598 0.961 . S
C583 H599 0.961 . S
C584 C585 1.370 . S
C584 C586 1.363 . S
C584 H600 0.931 . S
C585 C584 1.370 . S
C585 C589 1.408 . S
C586 C584 1.363 . S
C586 C587 1.370 . S
C586 C590 1.524 1_545 S
C587 C579 1.503 . S
C587 C586 1.370 . S
C587 C588 1.403 . S
C588 C587 1.403 . S
C588 C589 1.404 . S
C588 C591 1.539 . S
C589 C585 1.408 . S
C589 C588 1.404 . S
C589 H601 0.930 . S
C590 C586 1.524 1_565 S
C590 H602 0.956 1_565 S
C590 H603 0.961 . S
C590 H604 0.961 . S
C591 C588 1.539 . S
C591 H605 0.958 . S
C591 H606 0.961 . S
C591 H607 0.960 . S
H592 C576 0.931 . S
H593 C581 0.929 . S
H594 C582 0.960 . S
H595 C582 0.962 . S
H596 C582 0.960 . S
H597 C583 0.961 . S
H598 C583 0.961 . S
H599 C583 0.961 . S
H600 C584 0.931 . S
H601 C589 0.930 . S
H602 C590 0.956 1_545 S
H603 C590 0.961 . S
H604 C590 0.961 . S
H605 C591 0.958 . S
H606 C591 0.961 . S
H607 C591 0.960 . S
C608 C609 1.391 . S
C608 C610 1.394 . S
C608 H624 0.931 . S
C609 C608 1.391 . S
C609 C613 1.376 1_554 S
C610 C608 1.394 . S
C610 C611 1.369 1_554 S
C610 C614 1.531 . S
C611 C610 1.369 1_556 S
C611 C612 1.410 . S
C611 C619 1.503 . S
C612 C611 1.410 . S
C612 C613 1.392 . S
C612 C615 1.511 . S
C613 C609 1.376 1_556 S
C613 C612 1.392 . S
C613 H625 0.929 . S
C614 C610 1.531 . S
C614 H626 0.960 . S
C614 H627 0.962 . S
C614 H628 0.960 . S
C615 C612 1.511 . S
C615 H629 0.961 . S
C615 H630 0.961 . S
C615 H631 0.961 . S
C616 C617 1.370 . S
C616 C618 1.363 . S
C616 H632 0.931 . S
C617 C616 1.370 . S
C617 C621 1.408 . S
C618 C616 1.363 . S
C618 C619 1.370 . S
C618 C622 1.524 . S
C619 C611 1.503 . S
C619 C618 1.370 . S
C619 C620 1.403 . S
C620 C619 1.403 . S
C620 C621 1.404 . S
C620 C623 1.539 . S
C621 C617 1.408 . S
C621 C620 1.404 . S
C621 H633 0.930 . S
C622 C618 1.524 . S
C622 H634 0.956 . S
C622 H635 0.961 . S
C622 H636 0.961 . S
C623 C620 1.539 . S
C623 H637 0.958 . S
C623 H638 0.961 . S
C623 H639 0.960 . S
H624 C608 0.931 . S
H625 C613 0.929 . S
H626 C614 0.960 . S
H627 C614 0.962 . S
H628 C614 0.960 . S
H629 C615 0.961 . S
H630 C615 0.961 . S
H631 C615 0.961 . S
H632 C616 0.931 . S
H633 C621 0.930 . S
H634 C622 0.956 . S
H635 C622 0.961 . S
H636 C622 0.961 . S
H637 C623 0.958 . S
H638 C623 0.961 . S
H639 C623 0.960 . S
C640 C641 1.391 . S
C640 C642 1.394 . S
C640 H656 0.931 1_565 S
C641 C640 1.391 . S
C641 C645 1.376 . S
C642 C640 1.394 . S
C642 C643 1.369 . S
C642 C646 1.531 . S
C643 C642 1.369 . S
C643 C644 1.410 . S
C643 C651 1.503 . S
C644 C643 1.410 . S
C644 C645 1.392 . S
C644 C647 1.511 . S
C645 C641 1.376 . S
C645 C644 1.392 . S
C645 H657 0.929 . S
C646 C642 1.531 . S
C646 H658 0.960 . S
C646 H659 0.963 . S
C646 H660 0.960 . S
C647 C644 1.511 . S
C647 H661 0.961 . S
C647 H662 0.961 . S
C647 H663 0.961 . S
C648 C649 1.370 1_655 S
C648 C650 1.363 . S
C648 H664 0.931 . S
C649 C648 1.370 1_455 S
C649 C653 1.408 . S
C650 C648 1.363 . S
C650 C651 1.370 1_655 S
C650 C654 1.524 . S
C651 C643 1.503 . S
C651 C650 1.370 1_455 S
C651 C652 1.403 . S
C652 C651 1.403 . S
C652 C653 1.404 . S
C652 C655 1.539 . S
C653 C649 1.408 . S
C653 C652 1.404 . S
C653 H665 0.930 . S
C654 C650 1.524 . S
C654 H666 0.956 . S
C654 H667 0.961 . S
C654 H668 0.961 . S
C655 C652 1.539 . S
C655 H669 0.958 . S
C655 H670 0.961 . S
C655 H671 0.960 . S
H656 C640 0.931 1_545 S
H657 C645 0.929 . S
H658 C646 0.960 . S
H659 C646 0.963 . S
H660 C646 0.960 . S
H661 C647 0.961 . S
H662 C647 0.961 . S
H663 C647 0.961 . S
H664 C648 0.931 . S
H665 C653 0.930 . S
H666 C654 0.956 . S
H667 C654 0.961 . S
H668 C654 0.961 . S
H669 C655 0.958 . S
H670 C655 0.961 . S
H671 C655 0.960 . S
C672 C673 1.391 . S
C672 C674 1.394 . S
C672 H688 0.931 . S
C673 C672 1.391 . S
C673 C677 1.376 . S
C674 C672 1.394 . S
C674 C675 1.369 . S
C674 C678 1.531 . S
C675 C674 1.369 . S
C675 C676 1.410 . S
C675 C683 1.503 . S
C676 C675 1.410 . S
C676 C677 1.392 . S
C676 C679 1.511 . S
C677 C673 1.376 . S
C677 C676 1.392 . S
C677 H689 0.929 . S
C678 C674 1.531 . S
C678 H690 0.960 . S
C678 H691 0.962 . S
C678 H692 0.960 . S
C679 C676 1.511 . S
C679 H693 0.961 . S
C679 H694 0.961 . S
C679 H695 0.961 . S
C680 C681 1.370 . S
C680 C682 1.363 . S
C680 H696 0.931 . S
C681 C680 1.370 . S
C681 C685 1.408 . S
C682 C680 1.363 . S
C682 C683 1.370 . S
C682 C686 1.524 . S
C683 C675 1.503 . S
C683 C682 1.370 . S
C683 C684 1.403 . S
C684 C683 1.403 . S
C684 C685 1.404 . S
C684 C687 1.539 1_545 S
C685 C681 1.408 . S
C685 C684 1.404 . S
C685 H697 0.930 1_545 S
C686 C682 1.524 . S
C686 H698 0.956 . S
C686 H699 0.961 . S
C686 H700 0.961 . S
C687 C684 1.539 1_565 S
C687 H701 0.958 . S
C687 H702 0.961 . S
C687 H703 0.960 . S
H688 C672 0.931 . S
H689 C677 0.929 . S
H690 C678 0.960 . S
H691 C678 0.962 . S
H692 C678 0.960 . S
H693 C679 0.961 . S
H694 C679 0.961 . S
H695 C679 0.961 . S
H696 C680 0.931 . S
H697 C685 0.930 1_565 S
H698 C686 0.956 . S
H699 C686 0.961 . S
H700 C686 0.961 . S
H701 C687 0.958 . S
H702 C687 0.961 . S
H703 C687 0.960 . S
C704 C705 1.391 . S
C704 C706 1.394 1_554 S
C704 H720 0.931 . S
C705 C704 1.391 . S
C705 C709 1.376 . S
C706 C704 1.394 1_556 S
C706 C707 1.369 . S
C706 C710 1.531 . S
C707 C706 1.369 . S
C707 C708 1.410 . S
C707 C715 1.503 . S
C708 C707 1.410 . S
C708 C709 1.392 1_556 S
C708 C711 1.511 . S
C709 C705 1.376 . S
C709 C708 1.392 1_554 S
C709 H721 0.929 . S
C710 C706 1.531 . S
C710 H722 0.960 . S
C710 H723 0.962 . S
C710 H724 0.958 1_556 S
C711 C708 1.511 . S
C711 H725 0.961 . S
C711 H726 0.961 . S
C711 H727 0.961 . S
C712 C713 1.370 . S
C712 C714 1.363 . S
C712 H728 0.931 . S
C713 C712 1.370 . S
C713 C717 1.408 . S
C714 C712 1.363 . S
C714 C715 1.370 . S
C714 C718 1.524 . S
C715 C707 1.503 . S
C715 C714 1.370 . S
C715 C716 1.403 . S
C716 C715 1.403 . S
C716 C717 1.404 . S
C716 C719 1.539 . S
C717 C713 1.408 . S
C717 C716 1.404 . S
C717 H729 0.930 . S
C718 C714 1.524 . S
C718 H730 0.956 . S
C718 H731 0.961 . S
C718 H732 0.961 . S
C719 C716 1.539 . S
C719 H733 0.958 1_556 S
C719 H734 0.961 . S
C719 H735 0.960 1_556 S
H720 C704 0.931 . S
H721 C709 0.929 . S
H722 C710 0.960 . S
H723 C710 0.962 . S
H724 C710 0.958 1_554 S
H725 C711 0.961 . S
H726 C711 0.961 . S
H727 C711 0.961 . S
H728 C712 0.931 . S
H729 C717 0.930 . S
H730 C718 0.956 . S
H731 C718 0.961 . S
H732 C718 0.961 . S
H733 C719 0.958 1_554 S
H734 C719 0.961 . S
H735 C719 0.960 1_554 S
C736 C737 1.391 . S
C736 C738 1.394 . S
C736 H752 0.931 . S
C737 C736 1.391 . S
C737 C741 1.376 . S
C738 C736 1.394 . S
C738 C739 1.369 . S
C738 C742 1.531 . S
C739 C738 1.369 . S
C739 C740 1.410 . S
C739 C747 1.503 . S
C740 C739 1.410 . S
C740 C741 1.392 . S
C740 C743 1.511 . S
C741 C737 1.376 . S
C741 C740 1.392 . S
C741 H753 0.929 . S
C742 C738 1.531 . S
C742 H754 0.960 . S
C742 H755 0.962 1_455 S
C742 H756 0.960 . S
C743 C740 1.511 . S
C743 H757 0.961 . S
C743 H758 0.961 . S
C743 H759 0.961 . S
C744 C745 1.370 . S
C744 C746 1.363 . S
C744 H760 0.931 1_455 S
C745 C744 1.370 . S
C745 C749 1.408 . S
C746 C744 1.363 . S
C746 C747 1.370 . S
C746 C750 1.524 1_455 S
C747 C739 1.503 . S
C747 C746 1.370 . S
C747 C748 1.403 . S
C748 C747 1.403 . S
C748 C749 1.404 . S
C748 C751 1.539 . S
C749 C745 1.408 . S
C749 C748 1.404 . S
C749 H761 0.930 . S
C750 C746 1.524 1_655 S
C750 H762 0.956 . S
C750 H763 0.961 . S
C750 H764 0.961 . S
C751 C748 1.539 . S
C751 H765 0.958 . S
C751 H766 0.961 . S
C751 H767 0.960 . S
H752 C736 0.931 . S
H753 C741 0.929 . S
H754 C742 0.960 . S
H755 C742 0.962 1_655 S
H756 C742 0.960 . S
H757 C743 0.961 . S
H758 C743 0.961 . S
H759 C743 0.961 . S
H760 C744 0.931 1_655 S
H761 C749 0.930 . S
H762 C750 0.956 . S
H763 C750 0.961 . S
H764 C750 0.961 . S
H765 C751 0.958 . S
H766 C751 0.961 . S
H767 C751 0.960 . S
C393 C97 1.180 . S
C385 C3 1.581 . S
C417 C21 1.606 . S
C425 C211 1.178 . S
C449 C37 1.312 . S
C457 C271 1.057 . S
C481 C8 1.419 . S
C489 C71 1.176 . S
C521 C185 1.133 . S
C513 C23 1.405 . S
C545 C35 1.482 . S
C553 C281 0.915 . S
C585 C167 0.907 . S
C577 C31 1.494 . S
C609 C7 1.398 1_565 S
C617 C299 1.148 . S
C649 C43 1.095 . S
C641 C17 1.337 1_565 S
C681 C157 1.040 . S
C673 C36 1.310 . S
C713 C325 1.223 . S
C705 C9 1.564 . S
C737 C22 1.488 . S
C745 C53 0.859 . S
