# Generated by pormake.
# Topology pyr, (3,6)-cn, num edge types: 1
# Building blocks:
#     Node 0, Type 0, BuildingBlock: BETDIP_clean_linker_0, # of connection points: 3
#     Node 1, Type 0, BuildingBlock: BETDIP_clean_linker_0, # of connection points: 3
#     Node 2, Type 0, BuildingBlock: BETDIP_clean_linker_0, # of connection points: 3
#     Node 3, Type 0, BuildingBlock: BETDIP_clean_linker_0, # of connection points: 3
#     Node 4, Type 0, BuildingBlock: BETDIP_clean_linker_0, # of connection points: 3
#     Node 5, Type 0, BuildingBlock: BETDIP_clean_linker_0, # of connection points: 3
#     Node 6, Type 0, BuildingBlock: BETDIP_clean_linker_0, # of connection points: 3
#     Node 7, Type 0, BuildingBlock: BETDIP_clean_linker_0, # of connection points: 3
#     Node 8, Type 1, BuildingBlock: MIDCAF_clean_sbu_0, # of connection points: 6
#     Node 9, Type 1, BuildingBlock: MIDCAF_clean_sbu_0, # of connection points: 6
#     Node 10, Type 1, BuildingBlock: MIDCAF_clean_sbu_0, # of connection points: 6
#     Node 11, Type 1, BuildingBlock: MIDCAF_clean_sbu_0, # of connection points: 6
#     Edge 12, Type (0, 1), BuildingBlock: XUDNAN_clean_linker_2, # of connection points: 2
#     Edge 13, Type (0, 1), BuildingBlock: XUDNAN_clean_linker_2, # of connection points: 2
#     Edge 14, Type (0, 1), BuildingBlock: XUDNAN_clean_linker_2, # of connection points: 2
#     Edge 15, Type (0, 1), BuildingBlock: XUDNAN_clean_linker_2, # of connection points: 2
#     Edge 16, Type (0, 1), BuildingBlock: XUDNAN_clean_linker_2, # of connection points: 2
#     Edge 17, Type (0, 1), BuildingBlock: XUDNAN_clean_linker_2, # of connection points: 2
#     Edge 18, Type (0, 1), BuildingBlock: XUDNAN_clean_linker_2, # of connection points: 2
#     Edge 19, Type (0, 1), BuildingBlock: XUDNAN_clean_linker_2, # of connection points: 2
#     Edge 20, Type (0, 1), BuildingBlock: XUDNAN_clean_linker_2, # of connection points: 2
#     Edge 21, Type (0, 1), BuildingBlock: XUDNAN_clean_linker_2, # of connection points: 2
#     Edge 22, Type (0, 1), BuildingBlock: XUDNAN_clean_linker_2, # of connection points: 2
#     Edge 23, Type (0, 1), BuildingBlock: XUDNAN_clean_linker_2, # of connection points: 2
#     Edge 24, Type (0, 1), BuildingBlock: XUDNAN_clean_linker_2, # of connection points: 2
#     Edge 25, Type (0, 1), BuildingBlock: XUDNAN_clean_linker_2, # of connection points: 2
#     Edge 26, Type (0, 1), BuildingBlock: XUDNAN_clean_linker_2, # of connection points: 2
#     Edge 27, Type (0, 1), BuildingBlock: XUDNAN_clean_linker_2, # of connection points: 2
#     Edge 28, Type (0, 1), BuildingBlock: XUDNAN_clean_linker_2, # of connection points: 2
#     Edge 29, Type (0, 1), BuildingBlock: XUDNAN_clean_linker_2, # of connection points: 2
#     Edge 30, Type (0, 1), BuildingBlock: XUDNAN_clean_linker_2, # of connection points: 2
#     Edge 31, Type (0, 1), BuildingBlock: XUDNAN_clean_linker_2, # of connection points: 2
#     Edge 32, Type (0, 1), BuildingBlock: XUDNAN_clean_linker_2, # of connection points: 2
#     Edge 33, Type (0, 1), BuildingBlock: XUDNAN_clean_linker_2, # of connection points: 2
#     Edge 34, Type (0, 1), BuildingBlock: XUDNAN_clean_linker_2, # of connection points: 2
#     Edge 35, Type (0, 1), BuildingBlock: XUDNAN_clean_linker_2, # of connection points: 2
# Relax obj value: 0.088
# Max RMSD: 0.178
# Mean RMSD: 0.136
data_MOF--net-pyr--node1-MIDCAF_clean_sbu_0--node2-BETDIP_clean_linker_0--edge1-XUDNAN_clean_linker_2
_symmetry_space_group_name_H-M    P1
_symmetry_Int_Tables_number       1
_symmetry_cell_setting            triclinic
loop_
_symmetry_equiv_pos_as_xyz
'x, y, z'
_cell_length_a     35.023569
_cell_length_b     34.619819
_cell_length_c     36.543068
_cell_angle_alpha  93.341608
_cell_angle_beta   85.734629
_cell_angle_gamma 97.304585
loop_
_atom_site_label
_atom_site_type_symbol
_atom_site_fract_x
_atom_site_fract_y
_atom_site_fract_z
_atom_type_partial_charge
H0 H 0.20317 0.25511 0.26941 0.0
H1 H 0.29691 0.25324 0.18759 0.0
H2 H 0.28072 0.16843 0.27088 0.0
H3 H 0.25903 0.28882 0.15603 0.0
C4 C 0.2433 0.30496 0.1772 0.0
C5 C 0.22841 0.24213 0.25841 0.0
C6 C 0.23972 0.21011 0.27491 0.0
C7 C 0.24843 0.25749 0.22695 0.0
C8 C 0.28067 0.2406 0.21123 0.0
C9 C 0.29261 0.20809 0.22684 0.0
C10 C 0.27188 0.19331 0.25872 0.0
N11 N 0.23545 0.2907 0.21305 0.0
H12 H 0.31717 0.85441 0.77881 0.0
H13 H 0.29624 0.76855 0.69164 0.0
H14 H 0.39092 0.76387 0.75929 0.0
H15 H 0.28781 0.83007 0.66502 0.0
C16 C 0.26662 0.83808 0.68648 0.0
C17 C 0.32484 0.82816 0.76408 0.0
C18 C 0.35644 0.81034 0.77379 0.0
C19 C 0.30397 0.81374 0.73395 0.0
C20 C 0.31391 0.78031 0.71367 0.0
C21 C 0.34581 0.76208 0.72191 0.0
C22 C 0.36649 0.77736 0.75236 0.0
N23 N 0.27357 0.83382 0.72382 0.0
H24 H 0.79254 0.35256 0.77503 0.0
H25 H 0.70376 0.25639 0.78964 0.0
H26 H 0.78347 0.28735 0.87291 0.0
H27 H 0.69053 0.26571 0.73339 0.0
C28 C 0.69926 0.29626 0.72847 0.0
C29 C 0.77879 0.3292 0.79168 0.0
C30 C 0.79336 0.32243 0.82536 0.0
C31 C 0.74606 0.30629 0.77895 0.0
C32 C 0.72854 0.27476 0.79939 0.0
C33 C 0.74274 0.26695 0.83288 0.0
C34 C 0.77442 0.29159 0.84592 0.0
N35 N 0.73041 0.3175 0.7468 0.0
H36 H 0.77503 0.68463 0.28244 0.0
H37 H 0.8517 0.79122 0.28053 0.0
H38 H 0.76612 0.77322 0.36987 0.0
H39 H 0.85374 0.77452 0.21588 0.0
C40 C 0.85538 0.74355 0.21754 0.0
C41 C 0.78317 0.71354 0.29449 0.0
C42 C 0.76521 0.7259 0.32814 0.0
C43 C 0.81314 0.73735 0.27648 0.0
C44 C 0.82667 0.77376 0.2928 0.0
C45 C 0.81002 0.78606 0.32687 0.0
C46 C 0.77877 0.76276 0.34382 0.0
N47 N 0.8317 0.7217 0.24417 0.0
H48 H 0.87129 0.90534 0.95326 0.0
H49 H 0.97124 0.89669 0.87922 0.0
H50 H 0.88936 0.9728 0.8564 0.0
H51 H 0.95039 0.83106 0.89479 0.0
C52 C 0.95021 0.8364 0.92443 0.0
C53 C 0.88862 0.91489 0.9289 0.0
C54 C 0.8758 0.94157 0.90623 0.0
C55 C 0.92261 0.89821 0.91908 0.0
C56 C 0.94488 0.90935 0.88694 0.0
C57 C 0.93266 0.93573 0.86401 0.0
C58 C 0.89835 0.95193 0.87395 0.0
N59 N 0.93308 0.86888 0.94076 0.0
H60 H 0.66449 0.09945 0.34367 0.0
H61 H 0.6751 0.16207 0.44792 0.0
H62 H 0.5968 0.19362 0.37238 0.0
H63 H 0.67271 0.08611 0.45812 0.0
C64 C 0.69844 0.08589 0.43956 0.0
C65 C 0.65582 0.12224 0.36293 0.0
C66 C 0.62788 0.14537 0.35408 0.0
C67 C 0.67228 0.12768 0.39685 0.0
C68 C 0.66193 0.15756 0.42186 0.0
C69 C 0.63499 0.18183 0.41308 0.0
C70 C 0.61789 0.17532 0.37921 0.0
N71 N 0.69967 0.10315 0.40513 0.0
H72 H 0.39142 0.55925 0.16463 0.0
H73 H 0.45836 0.67208 0.15644 0.0
H74 H 0.37653 0.63177 0.07654 0.0
H75 H 0.46584 0.66733 0.21524 0.0
C76 C 0.46479 0.63661 0.22019 0.0
C77 C 0.39909 0.58621 0.15067 0.0
C78 C 0.38151 0.59201 0.11856 0.0
C79 C 0.4265 0.61513 0.16497 0.0
C80 C 0.43629 0.65005 0.14661 0.0
C81 C 0.41822 0.65651 0.11476 0.0
C82 C 0.39112 0.62707 0.10076 0.0
N83 N 0.44383 0.60784 0.1975 0.0
H84 H 0.0688 0.37802 0.61244 0.0
H85 H 0.13193 0.49008 0.63658 0.0
H86 H 0.18299 0.4073 0.56208 0.0
H87 H 0.04731 0.38849 0.67288 0.0
C88 C 0.04384 0.41928 0.67553 0.0
C89 C 0.09436 0.39872 0.60798 0.0
C90 C 0.12543 0.38825 0.58443 0.0
C91 C 0.09664 0.43548 0.62663 0.0
C92 C 0.12993 0.46207 0.62149 0.0
C93 C 0.16128 0.45195 0.5985 0.0
C94 C 0.15859 0.41528 0.57962 0.0
N95 N 0.06686 0.44588 0.65231 0.0
Zn96 Zn 0.98481 0.06518 0.57143 0.0
Zn97 Zn 0.06463 0.97643 0.48559 0.0
Zn98 Zn 0.02804 0.02262 0.52993 0.0
C99 C 0.09037 0.05318 0.46548 0.0
C100 C 0.9891 0.95769 0.47138 0.0
O101 O 0.03123 0.00488 0.58729 0.0
O102 O 0.98897 0.03985 0.61721 0.0
C103 C 0.0451 0.11587 0.54132 0.0
O104 O 0.07017 0.06117 0.49535 0.0
O105 O 0.09142 0.01807 0.45431 0.0
O106 O 0.01999 0.9424 0.4659 0.0
O107 O 0.98774 0.98851 0.49277 0.0
O108 O 0.01565 0.11553 0.56341 0.0
O109 O 0.05429 0.08398 0.52499 0.0
O110 O 0.9665 0.01396 0.514 0.0
O111 O 0.93503 0.05513 0.54953 0.0
C112 C 0.93534 0.02927 0.52387 0.0
O113 O 0.05746 0.98481 0.56441 0.0
O114 O 0.09441 0.9561 0.52224 0.0
C115 C 0.01212 0.01481 0.61721 0.0
C116 C 0.08413 0.96266 0.55562 0.0
Zn117 Zn 0.49334 0.04652 0.99365 0.0
Zn118 Zn 0.57357 0.97577 0.07193 0.0
Zn119 Zn 0.53596 0.01098 0.03263 0.0
C120 C 0.62504 0.99826 0.01468 0.0
C121 C 0.51405 0.92139 0.05253 0.0
O122 O 0.50251 0.04993 0.07094 0.0
O123 O 0.4629 0.07071 0.03423 0.0
C124 C 0.57148 0.07236 0.97313 0.0
O125 O 0.5969 0.01729 0.00866 0.0
O126 O 0.62141 0.97509 0.04044 0.0
O127 O 0.53828 0.92743 0.07667 0.0
O128 O 0.51106 0.94811 0.03009 0.0
O129 O 0.53757 0.07949 0.9691 0.0
O130 O 0.57699 0.04536 0.99434 0.0
O131 O 0.49818 0.96621 1.00072 0.0
O132 O 0.46798 0.00087 0.96564 0.0
C133 C 0.47527 0.9682 0.97493 0.0
O134 O 0.53213 0.03817 0.09008 0.0
O135 O 0.57609 0.01022 0.11574 0.0
C136 C 0.47398 0.06904 0.06612 0.0
C137 C 0.55251 0.03495 0.11758 0.0
Zn138 Zn 0.56825 0.55098 0.57529 0.0
Zn139 Zn 0.47638 0.45788 0.48727 0.0
Zn140 Zn 0.52106 0.5042 0.52909 0.0
C141 C 0.5258 0.41106 0.51168 0.0
C142 C 0.51288 0.51631 0.44317 0.0
O143 O 0.48497 0.53851 0.56734 0.0
O144 O 0.52526 0.57797 0.6007 0.0
C145 C 0.57509 0.47176 0.58621 0.0
O146 O 0.53665 0.4435 0.52943 0.0
O147 O 0.49837 0.40896 0.49088 0.0
O148 O 0.48835 0.48633 0.44179 0.0
O149 O 0.52989 0.52637 0.47301 0.0
O150 O 0.58569 0.50601 0.59859 0.0
O151 O 0.55258 0.46601 0.55948 0.0
O152 O 0.56096 0.54242 0.49435 0.0
O153 O 0.60087 0.57514 0.53274 0.0
C154 C 0.59121 0.56664 0.50028 0.0
O155 O 0.46064 0.51059 0.54802 0.0
O156 O 0.42687 0.46597 0.51365 0.0
C157 C 0.49128 0.56634 0.59201 0.0
C158 C 0.42804 0.49268 0.5387 0.0
Zn159 Zn 0.11171 0.56533 0.96494 0.0
Zn160 Zn 0.00604 0.47901 0.05079 0.0
Zn161 Zn 0.05841 0.52546 0.00718 0.0
C162 C 0.08001 0.46907 0.06985 0.0
C163 C 0.99174 0.45854 0.97722 0.0
O164 O 0.05064 0.58799 0.01488 0.0
O165 O 0.10193 0.61806 0.9847 0.0
C166 C 0.1513 0.52222 0.00607 0.0
O167 O 0.08957 0.49316 0.04413 0.0
O168 O 0.04493 0.45812 0.07874 0.0
O169 O 0.98092 0.44742 0.0091 0.0
O170 O 0.01957 0.48635 0.97254 0.0
O171 O 0.1574 0.54252 0.97818 0.0
O172 O 0.11684 0.51467 0.02106 0.0
O173 O 0.04764 0.50776 0.94978 0.0
O174 O 0.08913 0.54858 0.91766 0.0
C175 C 0.06144 0.52147 0.9189 0.0
O176 O 0.02314 0.56536 0.03842 0.0
O177 O 0.98245 0.52573 0.07273 0.0
C178 C 0.07092 0.61962 0.00439 0.0
C179 C 0.99462 0.55971 0.06263 0.0
H180 H 0.2277 0.13356 0.29622 0.0
H181 H 0.20112 0.25008 0.33088 0.0
H182 H 0.16055 0.22312 0.3834 0.0
H183 H 0.1385 0.08103 0.32131 0.0
H184 H 0.15832 0.04069 0.33864 0.0
H185 H 0.1851 0.06898 0.30333 0.0
H186 H 0.24336 0.08311 0.34394 0.0
H187 H 0.21684 0.0546 0.37933 0.0
H188 H 0.23652 0.10435 0.38982 0.0
H189 H 0.11687 0.18192 0.42854 0.0
H190 H 0.08086 0.131 0.4665 0.0
H191 H 0.14539 0.04442 0.40943 0.0
C192 C 0.21423 0.15384 0.31508 0.0
C193 C 0.21745 0.1941 0.30851 0.0
C194 C 0.19837 0.21897 0.33412 0.0
C195 C 0.17547 0.20401 0.36445 0.0
C196 C 0.17264 0.16422 0.36963 0.0
C197 C 0.19219 0.13964 0.3461 0.0
C198 C 0.18501 0.09812 0.35826 0.0
C199 C 0.16557 0.0706 0.32862 0.0
C200 C 0.22267 0.08424 0.36845 0.0
C201 C 0.15774 0.10307 0.39186 0.0
C202 C 0.15059 0.14132 0.39778 0.0
C203 C 0.12352 0.15219 0.42513 0.0
C204 C 0.10368 0.12323 0.44722 0.0
C205 C 0.11188 0.0842 0.44285 0.0
C206 C 0.13919 0.0742 0.41448 0.0
H207 H 0.33259 0.85131 0.83748 0.0
H208 H 0.43448 0.80907 0.78157 0.0
H209 H 0.47246 0.83558 0.8329 0.0
H210 H 0.38253 0.94253 0.86439 0.0
H211 H 0.35437 0.9473 0.90739 0.0
H212 H 0.33348 0.91927 0.86922 0.0
H213 H 0.31721 0.85963 0.90982 0.0
H214 H 0.33861 0.88743 0.948 0.0
H215 H 0.35518 0.84174 0.93219 0.0
H216 H 0.50111 0.86991 0.8886 0.0
H217 H 0.51972 0.91755 0.93926 0.0
H218 H 0.4019 0.94403 0.95539 0.0
C219 C 0.36284 0.84745 0.83571 0.0
C220 C 0.37978 0.82682 0.80528 0.0
C221 C 0.41977 0.82295 0.80483 0.0
C222 C 0.44194 0.83827 0.83393 0.0
C223 C 0.42421 0.85823 0.86327 0.0
C224 C 0.38574 0.86353 0.86404 0.0
C225 C 0.37482 0.89017 0.89654 0.0
C226 C 0.36047 0.927 0.8836 0.0
C227 C 0.34467 0.86843 0.92321 0.0
C228 C 0.41339 0.89965 0.91344 0.0
C229 C 0.44124 0.88001 0.8944 0.0
C230 C 0.47945 0.8851 0.90396 0.0
C231 C 0.48972 0.91193 0.93293 0.0
C232 C 0.46202 0.93355 0.95171 0.0
C233 C 0.42332 0.92696 0.94208 0.0
H234 H 0.71285 0.37194 0.70614 0.0
H235 H 0.63567 0.26425 0.69435 0.0
H236 H 0.59618 0.29638 0.65466 0.0
H237 H 0.64126 0.43606 0.71174 0.0
H238 H 0.67012 0.47329 0.68582 0.0
H239 H 0.69314 0.44129 0.71175 0.0
H240 H 0.73337 0.42104 0.65293 0.0
H241 H 0.71052 0.45311 0.62684 0.0
H242 H 0.709 0.40222 0.61267 0.0
H243 H 0.56285 0.34185 0.6194 0.0
H244 H 0.53982 0.39632 0.58992 0.0
H245 H 0.64045 0.4731 0.62285 0.0
C246 C 0.68785 0.35498 0.69498 0.0
C247 C 0.67725 0.31554 0.70326 0.0
C248 C 0.64426 0.29448 0.68819 0.0
C249 C 0.62169 0.31247 0.66567 0.0
C250 C 0.63268 0.35152 0.6583 0.0
C251 C 0.66513 0.37244 0.67232 0.0
C252 C 0.67029 0.41421 0.66084 0.0
C253 C 0.66859 0.44289 0.69455 0.0
C254 C 0.70803 0.42315 0.63689 0.0
C255 C 0.6354 0.4137 0.63864 0.0
C256 C 0.61405 0.3773 0.6374 0.0
C257 C 0.57972 0.37029 0.61968 0.0
C258 C 0.567 0.40132 0.60275 0.0
C259 C 0.58883 0.43866 0.60318 0.0
C260 C 0.62335 0.44475 0.62159 0.0
H261 H 0.88238 0.67369 0.22265 0.0
H262 H 0.88056 0.76695 0.14886 0.0
H263 H 0.91656 0.73026 0.10022 0.0
H264 H 0.97912 0.65319 0.19361 0.0
H265 H 0.96751 0.60151 0.19896 0.0
H266 H 0.94183 0.63534 0.22733 0.0
H267 H 0.87693 0.6001 0.20578 0.0
H268 H 0.90241 0.56627 0.17725 0.0
H269 H 0.86979 0.59411 0.15733 0.0
H270 H 0.94814 0.68002 0.05844 0.0
H271 H 0.97918 0.62431 0.02943 0.0
H272 H 0.96444 0.56761 0.13294 0.0
C273 C 0.8895 0.6864 0.19625 0.0
C274 C 0.87838 0.72284 0.18913 0.0
C275 C 0.88881 0.73892 0.15457 0.0
C276 C 0.90909 0.71828 0.12688 0.0
C277 C 0.91917 0.68204 0.13464 0.0
C278 C 0.9102 0.66659 0.1687 0.0
C279 C 0.92496 0.62763 0.17056 0.0
C280 C 0.95515 0.62955 0.19932 0.0
C281 C 0.89153 0.59512 0.17817 0.0
C282 C 0.94316 0.62313 0.13201 0.0
C283 C 0.93936 0.65461 0.11154 0.0
C284 C 0.9523 0.65582 0.07455 0.0
C285 C 0.9703 0.62439 0.05841 0.0
C286 C 0.97571 0.59272 0.07939 0.0
C287 C 0.96139 0.59193 0.11646 0.0
H288 H 0.3156 0.19931 0.15313 0.0
H289 H 0.34594 0.17291 0.26132 0.0
H290 H 0.39639 0.13538 0.23259 0.0
H291 H 0.32936 0.11034 0.10731 0.0
H292 H 0.35075 0.13107 0.06534 0.0
H293 H 0.3175 0.15664 0.09441 0.0
H294 H 0.36866 0.21754 0.09822 0.0
H295 H 0.40201 0.19226 0.06886 0.0
H296 H 0.41568 0.21278 0.11315 0.0
H297 H 0.43921 0.09439 0.19115 0.0
H298 H 0.47475 0.06016 0.14085 0.0
H299 H 0.42273 0.12135 0.06112 0.0
C300 C 0.33328 0.18651 0.17102 0.0
C301 C 0.32597 0.18878 0.20966 0.0
C302 C 0.34983 0.17082 0.23165 0.0
C303 C 0.37895 0.14965 0.2156 0.0
C304 C 0.38469 0.14735 0.17746 0.0
C305 C 0.36301 0.16599 0.15553 0.0
C306 C 0.37495 0.15918 0.11524 0.0
C307 C 0.34113 0.13805 0.09437 0.0
C308 C 0.39131 0.19774 0.09785 0.0
C309 C 0.40615 0.13314 0.11792 0.0
C310 C 0.41126 0.12635 0.15397 0.0
C311 C 0.43637 0.10059 0.16286 0.0
C312 C 0.45698 0.08165 0.13413 0.0
C313 C 0.4532 0.08931 0.09703 0.0
C314 C 0.4272 0.11539 0.08915 0.0
H315 H 0.26241 0.87161 0.62229 0.0
H316 H 0.19827 0.84924 0.72646 0.0
H317 H 0.14393 0.88016 0.70561 0.0
H318 H 0.23176 0.96664 0.61243 0.0
H319 H 0.23038 0.95958 0.56326 0.0
H320 H 0.2636 0.93612 0.58707 0.0
H321 H 0.23542 0.86897 0.55893 0.0
H322 H 0.20208 0.8922 0.53514 0.0
H323 H 0.18432 0.85353 0.56526 0.0
H324 H 0.09413 0.90947 0.66963 0.0
H325 H 0.05729 0.93798 0.62458 0.0
H326 H 0.15788 0.94614 0.54787 0.0
C327 C 0.23698 0.87343 0.6408 0.0
C328 C 0.23439 0.85804 0.67588 0.0
C329 C 0.20082 0.86104 0.69947 0.0
C330 C 0.16983 0.87845 0.6878 0.0
C331 C 0.17325 0.89321 0.65275 0.0
C332 C 0.20634 0.89126 0.6299 0.0
C333 C 0.20348 0.90942 0.59375 0.0
C334 C 0.23412 0.94506 0.58886 0.0
C335 C 0.20649 0.87922 0.56137 0.0
C336 C 0.16335 0.92136 0.59937 0.0
C337 C 0.14605 0.91172 0.63339 0.0
C338 C 0.10794 0.9181 0.64338 0.0
C339 C 0.08734 0.93494 0.61798 0.0
C340 C 0.10512 0.94592 0.58349 0.0
C341 C 0.14357 0.93874 0.57429 0.0
H342 H 0.84722 0.30341 0.87114 0.0
H343 H 0.81656 0.40065 0.81384 0.0
H344 H 0.87034 0.4431 0.83999 0.0
H345 H 0.86194 0.35943 0.95389 0.0
H346 H 0.90016 0.33362 0.96655 0.0
H347 H 0.86355 0.30924 0.93839 0.0
H348 H 0.91649 0.29174 0.88996 0.0
H349 H 0.95396 0.31748 0.91651 0.0
H350 H 0.94992 0.32968 0.86979 0.0
H351 H 0.92382 0.47682 0.87631 0.0
H352 H 0.96871 0.50012 0.92409 0.0
H353 H 0.96071 0.38298 0.96218 0.0
C354 C 0.8514 0.33359 0.86394 0.0
C355 C 0.82727 0.34811 0.83983 0.0
C356 C 0.83487 0.38796 0.83116 0.0
C357 C 0.86536 0.4126 0.84615 0.0
C358 C 0.8878 0.39736 0.87032 0.0
C359 C 0.88087 0.35889 0.87952 0.0
C360 C 0.90615 0.35078 0.9094 0.0
C361 C 0.88147 0.3375 0.9441 0.0
C362 C 0.93327 0.32067 0.89559 0.0
C363 C 0.92819 0.39088 0.91582 0.0
C364 C 0.91761 0.41717 0.89252 0.0
C365 C 0.93262 0.45642 0.89441 0.0
C366 C 0.95837 0.46933 0.92139 0.0
C367 C 0.96888 0.44313 0.94608 0.0
C368 C 0.9537 0.4034 0.94311 0.0
H369 H 0.74785 0.72179 0.40331 0.0
H370 H 0.71199 0.66899 0.29831 0.0
H371 H 0.66608 0.62104 0.33098 0.0
H372 H 0.73936 0.6379 0.45373 0.0
H373 H 0.71869 0.65991 0.49525 0.0
H374 H 0.75011 0.68957 0.46388 0.0
H375 H 0.69709 0.73452 0.45903 0.0
H376 H 0.66568 0.70537 0.49084 0.0
H377 H 0.64983 0.71348 0.44642 0.0
H378 H 0.62905 0.5746 0.37535 0.0
H379 H 0.59433 0.5409 0.42785 0.0
H380 H 0.64475 0.63176 0.50274 0.0
C381 C 0.72995 0.70096 0.38678 0.0
C382 C 0.73456 0.69918 0.34787 0.0
C383 C 0.71043 0.6705 0.32802 0.0
C384 C 0.68387 0.64319 0.34633 0.0
C385 C 0.68079 0.64554 0.38454 0.0
C386 C 0.70235 0.67436 0.4045 0.0
C387 C 0.69209 0.6717 0.44534 0.0
C388 C 0.72715 0.66432 0.46573 0.0
C389 C 0.67516 0.70845 0.46134 0.0
C390 C 0.66176 0.63645 0.44521 0.0
C391 C 0.65623 0.62135 0.4099 0.0
C392 C 0.63201 0.58701 0.40301 0.0
C393 C 0.61198 0.56834 0.43299 0.0
C394 C 0.61484 0.58495 0.46916 0.0
C395 C 0.64088 0.61897 0.4753 0.0
H396 H 0.23403 0.32843 0.10817 0.0
H397 H 0.20831 0.3564 0.22399 0.0
H398 H 0.17043 0.40738 0.20802 0.0
H399 H 0.23911 0.43049 0.078 0.0
H400 H 0.21612 0.41561 0.03602 0.0
H401 H 0.24556 0.38394 0.05537 0.0
H402 H 0.1891 0.32821 0.05685 0.0
H403 H 0.15947 0.35897 0.03677 0.0
H404 H 0.14325 0.33686 0.07956 0.0
H405 H 0.12814 0.44801 0.18075 0.0
H406 H 0.08533 0.47803 0.14303 0.0
H407 H 0.13892 0.42709 0.04421 0.0
C408 C 0.22112 0.34598 0.13006 0.0
C409 C 0.22407 0.33835 0.16729 0.0
C410 C 0.20636 0.36148 0.19527 0.0
C411 C 0.18491 0.39073 0.18649 0.0
C412 C 0.18164 0.39685 0.1496 0.0
C413 C 0.19949 0.37547 0.12173 0.0
C414 C 0.18884 0.3862 0.08438 0.0
C415 C 0.22453 0.40521 0.06212 0.0
C416 C 0.16898 0.35043 0.06316 0.0
C417 C 0.16092 0.41558 0.09578 0.0
C418 C 0.15761 0.42149 0.13358 0.0
C419 C 0.13107 0.44434 0.15111 0.0
C420 C 0.10686 0.46119 0.12954 0.0
C421 C 0.10946 0.45533 0.0909 0.0
C422 C 0.13725 0.4328 0.0737 0.0
H423 H 0.66534 0.23865 0.84133 0.0
H424 H 0.77781 0.21952 0.87444 0.0
H425 H 0.74683 0.1669 0.91325 0.0
H426 H 0.61247 0.22138 0.92561 0.0
H427 H 0.57035 0.19597 0.90545 0.0
H428 H 0.60143 0.23202 0.88012 0.0
H429 H 0.61025 0.18114 0.82623 0.0
H430 H 0.579 0.14493 0.85133 0.0
H431 H 0.62694 0.13558 0.83493 0.0
H432 H 0.70253 0.11941 0.95237 0.0
H433 H 0.64911 0.0783 0.98456 0.0
H434 H 0.56739 0.12337 0.91972 0.0
C435 C 0.68373 0.22305 0.85607 0.0
C436 C 0.72413 0.23373 0.85487 0.0
C437 C 0.74672 0.21269 0.8754 0.0
C438 C 0.72944 0.18245 0.89734 0.0
C439 C 0.68956 0.17301 0.89805 0.0
C440 C 0.66709 0.19236 0.87755 0.0
C441 C 0.62487 0.17655 0.88295 0.0
C442 C 0.60089 0.20838 0.89952 0.0
C443 C 0.60937 0.15847 0.8467 0.0
C444 C 0.62704 0.14567 0.9101 0.0
C445 C 0.66452 0.14415 0.91871 0.0
C446 C 0.67318 0.1196 0.94507 0.0
C447 C 0.64267 0.09592 0.96293 0.0
C448 C 0.60415 0.09624 0.95374 0.0
C449 C 0.59653 0.12164 0.92695 0.0
H450 H 0.85383 0.78174 0.38339 0.0
H451 H 0.81142 0.86423 0.31669 0.0
H452 H 0.84765 0.91902 0.35177 0.0
H453 H 0.85586 0.84085 0.47026 0.0
H454 H 0.90011 0.82451 0.48184 0.0
H455 H 0.867 0.79293 0.45467 0.0
H456 H 0.92169 0.78591 0.40373 0.0
H457 H 0.95489 0.81733 0.43072 0.0
H458 H 0.94787 0.82913 0.38449 0.0
H459 H 0.89164 0.96411 0.39267 0.0
H460 H 0.94412 0.99477 0.43078 0.0
H461 H 0.95945 0.88151 0.46762 0.0
C462 C 0.85171 0.81146 0.37674 0.0
C463 C 0.82964 0.81925 0.348 0.0
C464 C 0.82803 0.85813 0.33905 0.0
C465 C 0.84832 0.88921 0.35887 0.0
C466 C 0.87013 0.88056 0.38715 0.0
C467 C 0.87213 0.84252 0.39577 0.0
C468 C 0.90034 0.84044 0.42471 0.0
C469 C 0.87958 0.82369 0.45996 0.0
C470 C 0.93313 0.81683 0.41002 0.0
C471 C 0.91472 0.88318 0.43056 0.0
C472 C 0.89638 0.90606 0.40936 0.0
C473 C 0.90585 0.94646 0.4096 0.0
C474 C 0.93538 0.96367 0.43147 0.0
C475 C 0.95509 0.9404 0.45233 0.0
C476 C 0.94441 0.89982 0.45207 0.0
H477 H 0.38813 0.70315 0.73967 0.0
H478 H 0.33458 0.74459 0.64799 0.0
H479 H 0.35755 0.69195 0.60817 0.0
H480 H 0.47414 0.69051 0.68726 0.0
H481 H 0.48356 0.64879 0.7109 0.0
H482 H 0.4563 0.68452 0.73441 0.0
H483 H 0.40016 0.63023 0.74955 0.0
H484 H 0.42726 0.59434 0.72581 0.0
H485 H 0.37955 0.59931 0.7128 0.0
H486 H 0.38951 0.63677 0.57652 0.0
H487 H 0.43579 0.59094 0.5541 0.0
H488 H 0.47686 0.59273 0.66323 0.0
C489 C 0.38104 0.70175 0.71132 0.0
C490 C 0.35853 0.72851 0.69784 0.0
C491 C 0.35017 0.72416 0.66018 0.0
C492 C 0.36345 0.69429 0.63692 0.0
C493 C 0.38595 0.66916 0.65114 0.0
C494 C 0.39529 0.67306 0.68731 0.0
C495 C 0.42423 0.64578 0.69457 0.0
C496 C 0.46177 0.66878 0.70753 0.0
C497 C 0.40674 0.61563 0.72233 0.0
C498 C 0.43042 0.62667 0.65658 0.0
C499 C 0.40705 0.63959 0.63221 0.0
C500 C 0.40789 0.62642 0.59539 0.0
C501 C 0.43411 0.6003 0.58292 0.0
C502 C 0.45966 0.5883 0.60701 0.0
C503 C 0.45742 0.60132 0.64437 0.0
H504 H 0.90336 0.93304 0.79694 0.0
H505 H 0.01054 0.95747 0.8508 0.0
H506 H 0.04562 0.97314 0.79092 0.0
H507 H 0.9442 0.88927 0.71132 0.0
H508 H 0.9124 0.91023 0.68365 0.0
H509 H 0.89688 0.89815 0.73017 0.0
H510 H 0.88264 0.96925 0.74554 0.0
H511 H 0.89767 0.98134 0.69907 0.0
H512 H 0.9202 0.00894 0.73676 0.0
H513 H 0.06725 0.99291 0.72532 0.0
H514 H 0.07252 0.01484 0.66127 0.0
H515 H 0.95154 0.97396 0.65155 0.0
C516 C 0.93425 0.94157 0.7961 0.0
C517 C 0.95428 0.94436 0.82838 0.0
C518 C 0.99475 0.95512 0.82622 0.0
C519 C 0.01486 0.96396 0.79237 0.0
C520 C 0.9941 0.96119 0.76098 0.0
C521 C 0.95468 0.94996 0.76266 0.0
C522 C 0.9385 0.9508 0.72561 0.0
C523 C 0.92203 0.90966 0.71189 0.0
C524 C 0.90798 0.97929 0.72684 0.0
C525 C 0.97466 0.96556 0.70292 0.0
C526 C 0.00666 0.97112 0.7235 0.0
C527 C 0.04257 0.98782 0.70876 0.0
C528 C 0.04544 0.99998 0.67243 0.0
C529 C 0.01268 0.99486 0.65148 0.0
C530 C 0.97723 0.97691 0.66679 0.0
H531 H 0.60071 0.07456 0.32306 0.0
H532 H 0.61224 0.19839 0.3055 0.0
H533 H 0.58379 0.18419 0.24536 0.0
H534 H 0.63004 0.04538 0.23452 0.0
H535 H 0.59735 0.00077 0.2331 0.0
H536 H 0.61331 0.02157 0.27635 0.0
H537 H 0.54205 0.02241 0.30123 0.0
H538 H 0.5259 0.0019 0.25775 0.0
H539 H 0.51027 0.04699 0.27663 0.0
H540 H 0.56085 0.15512 0.18341 0.0
H541 H 0.54929 0.11419 0.12613 0.0
H542 H 0.55303 0.01052 0.18592 0.0
C543 C 0.59696 0.09876 0.30674 0.0
C544 C 0.60876 0.13756 0.31893 0.0
C545 C 0.60305 0.16841 0.29686 0.0
C546 C 0.58688 0.16062 0.26268 0.0
C547 C 0.57612 0.12186 0.25121 0.0
C548 C 0.58087 0.09151 0.27281 0.0
C549 C 0.57019 0.05236 0.2534 0.0
C550 C 0.60478 0.02866 0.24908 0.0
C551 C 0.535 0.02958 0.27346 0.0
C552 C 0.56017 0.06524 0.21688 0.0
C553 C 0.56298 0.10537 0.21611 0.0
C554 C 0.55791 0.12366 0.18397 0.0
C555 C 0.55117 0.10031 0.15163 0.0
C556 C 0.54993 0.05934 0.15191 0.0
C557 C 0.55332 0.04181 0.18518 0.0
H558 H 0.46947 0.56298 0.24269 0.0
H559 H 0.49656 0.68573 0.27351 0.0
H560 H 0.51997 0.66838 0.33198 0.0
H561 H 0.43255 0.53327 0.32845 0.0
H562 H 0.45194 0.4873 0.32491 0.0
H563 H 0.44186 0.50953 0.28403 0.0
H564 H 0.51261 0.50721 0.25827 0.0
H565 H 0.52292 0.485 0.29925 0.0
H566 H 0.55158 0.52926 0.28506 0.0
H567 H 0.53278 0.63742 0.39013 0.0
H568 H 0.5338 0.59549 0.44255 0.0
H569 H 0.50104 0.49331 0.37211 0.0
C570 C 0.48088 0.58623 0.26145 0.0
C571 C 0.4812 0.62573 0.25372 0.0
C572 C 0.49618 0.65528 0.27903 0.0
C573 C 0.50964 0.6457 0.31218 0.0
C574 C 0.50836 0.60642 0.3193 0.0
C575 C 0.49462 0.57717 0.29447 0.0
C576 C 0.49386 0.53732 0.30958 0.0
C577 C 0.45261 0.51561 0.31189 0.0
C578 C 0.52192 0.51329 0.28668 0.0
C579 C 0.50788 0.54872 0.34732 0.0
C580 C 0.51658 0.58865 0.35236 0.0
C581 C 0.52694 0.60606 0.38621 0.0
C582 C 0.52764 0.58204 0.41578 0.0
C583 C 0.5184 0.54111 0.41116 0.0
C584 C 0.50905 0.52444 0.37628 0.0
H585 H 0.03804 0.38586 0.74131 0.0
H586 H 0.01511 0.48862 0.68869 0.0
H587 H 0.00244 0.5212 0.74935 0.0
H588 H 0.96976 0.39873 0.82827 0.0
H589 H 0.00378 0.38313 0.85724 0.0
H590 H 0.9997 0.36218 0.81109 0.0
H591 H 0.07239 0.38151 0.79567 0.0
H592 H 0.07755 0.4018 0.84158 0.0
H593 H 0.09294 0.43159 0.80306 0.0
H594 H 0.00937 0.54815 0.81193 0.0
H595 H 0.0327 0.56695 0.87329 0.0
H596 H 0.05111 0.44759 0.88764 0.0
C597 C 0.02837 0.41444 0.7428 0.0
C598 C 0.02715 0.43475 0.71066 0.0
C599 C 0.01591 0.47263 0.71319 0.0
C600 C 0.00846 0.49123 0.74751 0.0
C601 C 0.01221 0.47142 0.77893 0.0
C602 C 0.02134 0.43358 0.777 0.0
C603 C 0.03011 0.42141 0.8144 0.0
C604 C 0.99898 0.38946 0.82859 0.0
C605 C 0.07065 0.40835 0.81359 0.0
C606 C 0.02786 0.45932 0.8368 0.0
C607 C 0.01631 0.4874 0.81603 0.0
C608 C 0.01714 0.52615 0.82888 0.0
C609 C 0.03074 0.53664 0.86351 0.0
C610 C 0.04313 0.50849 0.88486 0.0
C611 C 0.04082 0.46923 0.87188 0.0
H612 H 0.84231 0.96079 0.9745 0.0
H613 H 0.82283 0.9563 0.85824 0.0
H614 H 0.75961 0.97953 0.87306 0.0
H615 H 0.74836 0.92136 0.00258 0.0
H616 H 0.74615 0.95049 0.04504 0.0
H617 H 0.79194 0.93887 0.02484 0.0
H618 H 0.81752 0.01256 0.025 0.0
H619 H 0.77156 0.02438 0.04494 0.0
H620 H 0.79166 0.04527 0.00263 0.0
H621 H 0.69556 0.99835 0.90101 0.0
H622 H 0.63552 0.00578 0.93998 0.0
H623 H 0.69638 0.99496 0.03717 0.0
C624 C 0.82496 0.96483 0.95204 0.0
C625 C 0.8381 0.95708 0.91514 0.0
C626 C 0.81417 0.96295 0.88673 0.0
C627 C 0.778 0.97603 0.89485 0.0
C628 C 0.76591 0.98307 0.93154 0.0
C629 C 0.78866 0.97745 0.95965 0.0
C630 C 0.76778 0.98368 0.99685 0.0
C631 C 0.76328 0.94638 0.01858 0.0
C632 C 0.78836 0.01855 0.01863 0.0
C633 C 0.72936 0.9926 0.98529 0.0
C634 C 0.72894 0.9929 0.94754 0.0
C635 C 0.69573 0.99862 0.93062 0.0
C636 C 0.66184 0.003 0.95288 0.0
C637 C 0.66155 0.00128 0.99147 0.0
C638 C 0.69596 0.9968 0.00771 0.0
H639 H 0.77448 0.09477 0.4132 0.0
H640 H 0.69306 0.0297 0.48886 0.0
H641 H 0.74567 0.99654 0.50929 0.0
H642 H 0.84153 0.01773 0.39229 0.0
H643 H 0.88365 0.05353 0.39221 0.0
H644 H 0.83894 0.06604 0.37748 0.0
H645 H 0.84079 0.12435 0.42544 0.0
H646 H 0.88566 0.11251 0.43978 0.0
H647 H 0.8454 0.11588 0.47305 0.0
H648 H 0.80731 0.97736 0.52752 0.0
H649 H 0.87368 0.97955 0.54715 0.0
H650 H 0.91583 0.05894 0.46198 0.0
C651 C 0.76764 0.07261 0.4332 0.0
C652 C 0.72971 0.06414 0.44908 0.0
C653 C 0.72195 0.03615 0.47616 0.0
C654 C 0.75157 0.01699 0.48768 0.0
C655 C 0.78888 0.02631 0.47195 0.0
C656 C 0.79707 0.05369 0.44544 0.0
C657 C 0.84023 0.06274 0.43701 0.0
C658 C 0.85176 0.0492 0.39739 0.0
C659 C 0.85379 0.10644 0.44428 0.0
C660 C 0.85502 0.03792 0.46436 0.0
C661 C 0.82492 0.01603 0.4833 0.0
C662 C 0.83116 0.99357 0.51228 0.0
C663 C 0.86888 0.99479 0.52315 0.0
C664 C 0.89965 0.01839 0.5052 0.0
C665 C 0.89281 0.03944 0.47498 0.0
H666 H 0.30738 0.57493 0.14563 0.0
H667 H 0.38878 0.54618 0.05646 0.0
H668 H 0.33592 0.50824 0.02386 0.0
H669 H 0.23404 0.48046 0.13477 0.0
H670 H 0.19465 0.50895 0.14545 0.0
H671 H 0.23958 0.52208 0.16677 0.0
H672 H 0.24295 0.59176 0.14303 0.0
H673 H 0.19865 0.57825 0.1213 0.0
H674 H 0.24135 0.5976 0.09446 0.0
H675 H 0.27542 0.48923 0.99467 0.0
H676 H 0.21182 0.49128 0.97064 0.0
H677 H 0.16741 0.53137 0.07794 0.0
C678 C 0.31401 0.55878 0.12016 0.0
C679 C 0.35191 0.56243 0.10372 0.0
C680 C 0.35987 0.5428 0.06961 0.0
C681 C 0.33005 0.52112 0.05106 0.0
C682 C 0.29249 0.51937 0.0671 0.0
C683 C 0.28435 0.53728 0.10118 0.0
C684 C 0.24119 0.53699 0.10926 0.0
C685 C 0.22651 0.51051 0.14093 0.0
C686 C 0.23045 0.57861 0.11744 0.0
C687 C 0.22664 0.51945 0.07316 0.0
C688 C 0.25664 0.5083 0.04973 0.0
C689 C 0.25151 0.49665 0.01308 0.0
C690 C 0.21535 0.49794 0.99963 0.0
C691 C 0.18482 0.51074 0.02273 0.0
C692 C 0.19005 0.52011 0.06023 0.0
H693 H 0.20553 0.47403 0.53739 0.0
H694 H 0.20173 0.48413 0.65616 0.0
H695 H 0.27065 0.51106 0.65336 0.0
H696 H 0.28607 0.4355 0.52514 0.0
H697 H 0.30578 0.45926 0.48408 0.0
H698 H 0.25468 0.45316 0.49469 0.0
H699 H 0.25313 0.5276 0.49218 0.0
H700 H 0.30449 0.53401 0.48094 0.0
H701 H 0.2843 0.56094 0.51979 0.0
H702 H 0.34232 0.52051 0.63795 0.0
H703 H 0.40824 0.51262 0.61111 0.0
H704 H 0.36473 0.49633 0.50274 0.0
C705 C 0.21892 0.48362 0.56267 0.0
C706 C 0.19856 0.47734 0.59689 0.0
C707 C 0.21684 0.48941 0.62962 0.0
C708 C 0.25598 0.50469 0.62827 0.0
C709 C 0.27607 0.50829 0.59397 0.0
C710 C 0.25783 0.49879 0.56169 0.0
C711 C 0.28645 0.49914 0.52868 0.0
C712 C 0.28304 0.45941 0.50694 0.0
C713 C 0.28181 0.53242 0.50394 0.0
C714 C 0.32373 0.50705 0.54757 0.0
C715 C 0.31743 0.5135 0.58511 0.0
C716 C 0.34766 0.51668 0.60849 0.0
C717 C 0.38495 0.51214 0.59313 0.0
C718 C 0.39125 0.50411 0.55497 0.0
C719 C 0.36052 0.50278 0.53202 0.0
H720 H 0.97451 0.76915 0.89813 0.0
H721 H 0.96145 0.8397 0.9991 0.0
H722 H 0.99056 0.79142 0.03257 0.0
H723 H 0.95179 0.67548 0.93834 0.0
H724 H 0.98627 0.65326 0.90755 0.0
H725 H 0.96361 0.69305 0.8929 0.0
H726 H 0.03104 0.7313 0.87759 0.0
H727 H 0.05382 0.69171 0.89241 0.0
H728 H 0.06507 0.74015 0.91272 0.0
H729 H 0.02442 0.7345 0.05387 0.0
H730 H 0.05621 0.67485 0.0603 0.0
H731 H 0.04453 0.64399 0.94483 0.0
C732 C 0.97757 0.77436 0.92736 0.0
C733 C 0.96582 0.80797 0.94607 0.0
C734 C 0.97025 0.81394 0.98429 0.0
C735 C 0.98678 0.78672 0.00345 0.0
C736 C 0.99843 0.75382 0.98392 0.0
C737 C 0.99366 0.74763 0.94669 0.0
C738 C 0.00844 0.7105 0.93148 0.0
C739 C 0.97556 0.68136 0.91671 0.0
C740 C 0.04156 0.71894 0.90181 0.0
C741 C 0.02274 0.69672 0.96575 0.0
C742 C 0.01694 0.7218 0.99592 0.0
C743 C 0.0289 0.71469 0.03038 0.0
C744 C 0.04689 0.68095 0.03387 0.0
C745 C 0.05243 0.65518 0.00303 0.0
C746 C 0.04035 0.66337 0.96879 0.0
H747 H 0.42756 0.72942 0.1483 0.0
H748 H 0.42859 0.66932 0.04076 0.0
H749 H 0.44451 0.73268 0.01166 0.0
H750 H 0.3884 0.8166 0.12261 0.0
H751 H 0.41869 0.84842 0.15228 0.0
H752 H 0.40309 0.79881 0.16412 0.0
H753 H 0.47427 0.78683 0.16804 0.0
H754 H 0.48996 0.83641 0.1567 0.0
H755 H 0.50831 0.79697 0.12929 0.0
H756 H 0.46684 0.80289 0.99486 0.0
H757 H 0.49659 0.87176 0.99294 0.0
H758 H 0.47998 0.88449 0.11128 0.0
C759 C 0.431 0.7295 0.11861 0.0
C760 C 0.42685 0.6944 0.09683 0.0
C761 C 0.43121 0.6959 0.05802 0.0
C762 C 0.44024 0.73175 0.04125 0.0
C763 C 0.44446 0.76583 0.06365 0.0
C764 C 0.43995 0.76486 0.10152 0.0
C765 C 0.44872 0.80497 0.11973 0.0
C766 C 0.41256 0.81795 0.14093 0.0
C767 C 0.48231 0.80636 0.14489 0.0
C768 C 0.46011 0.8286 0.0863 0.0
C769 C 0.45692 0.80583 0.05407 0.0
C770 C 0.46863 0.82114 0.0199 0.0
C771 C 0.48503 0.86039 0.01889 0.0
C772 C 0.48961 0.8835 0.05178 0.0
C773 C 0.47613 0.86753 0.08566 0.0
H774 H 0.0639 0.34333 0.55513 0.0
H775 H 0.18394 0.3418 0.57643 0.0
H776 H 0.17949 0.27266 0.55506 0.0
H777 H 0.03165 0.25748 0.59323 0.0
H778 H 0.99509 0.2416 0.56155 0.0
H779 H 0.0102 0.2927 0.56957 0.0
H780 H 0.02709 0.29964 0.49972 0.0
H781 H 0.01198 0.2483 0.49151 0.0
H782 H 0.05973 0.26907 0.47565 0.0
H783 H 0.15926 0.20118 0.54098 0.0
H784 H 0.12376 0.13431 0.53938 0.0
H785 H 0.01685 0.1827 0.5309 0.0
C786 C 0.08949 0.32871 0.55463 0.0
C787 C 0.12428 0.34817 0.56723 0.0
C788 C 0.15712 0.32787 0.56615 0.0
C789 C 0.15489 0.28849 0.55408 0.0
C790 C 0.11971 0.26981 0.54303 0.0
C791 C 0.08762 0.28939 0.54312 0.0
C792 C 0.05189 0.26183 0.53509 0.0
C793 C 0.0204 0.2635 0.56675 0.0
C794 C 0.0368 0.27022 0.4983 0.0
C795 C 0.06839 0.22344 0.53261 0.0
C796 C 0.10777 0.22855 0.53605 0.0
C797 C 0.12857 0.19685 0.53756 0.0
C798 C 0.10832 0.15908 0.53666 0.0
C799 C 0.06781 0.15379 0.53496 0.0
C800 C 0.04795 0.18623 0.53189 0.0
H801 H 0.56326 0.20219 0.43371 0.0
H802 H 0.68468 0.23601 0.44921 0.0
H803 H 0.66872 0.29485 0.48595 0.0
H804 H 0.54125 0.29306 0.41827 0.0
H805 H 0.49394 0.28748 0.44182 0.0
H806 H 0.51449 0.24528 0.42242 0.0
H807 H 0.50534 0.21454 0.48601 0.0
H808 H 0.48478 0.25686 0.50567 0.0
H809 H 0.52566 0.24127 0.52527 0.0
H810 H 0.64027 0.35511 0.51198 0.0
H811 H 0.60206 0.41032 0.52476 0.0
H812 H 0.49915 0.33553 0.49463 0.0
C813 C 0.58641 0.22162 0.44543 0.0
C814 C 0.62518 0.21457 0.43868 0.0
C815 C 0.65471 0.24064 0.45445 0.0
C816 C 0.64591 0.27413 0.47534 0.0
C817 C 0.60738 0.28075 0.4807 0.0
C818 C 0.57809 0.25491 0.4665 0.0
C819 C 0.53948 0.27018 0.47325 0.0
C820 C 0.52125 0.27426 0.43678 0.0
C821 C 0.51221 0.24416 0.4991 0.0
C822 C 0.55181 0.30951 0.49183 0.0
C823 C 0.59097 0.31497 0.49646 0.0
C824 C 0.60941 0.35075 0.50946 0.0
C825 C 0.58744 0.38193 0.51691 0.0
C826 C 0.54746 0.377 0.51155 0.0
C827 C 0.52949 0.33998 0.49977 0.0
loop_
_geom_bond_atom_site_label_1
_geom_bond_atom_site_label_2
_geom_bond_distance
_geom_bond_site_symmetry_2
_ccdc_geom_bond_type
H0 C5 0.930 . S
H1 C8 0.930 . S
H2 C10 0.930 . S
H3 C4 1.016 . S
C4 H3 1.016 . S
C4 N11 1.286 . S
C5 H0 0.930 . S
C5 C6 1.397 . S
C5 C7 1.361 . S
C6 C5 1.397 . S
C6 C10 1.390 . S
C7 C5 1.361 . S
C7 C8 1.393 . S
C7 N11 1.413 . S
C8 H1 0.930 . S
C8 C7 1.393 . S
C8 C9 1.399 . S
C9 C8 1.399 . S
C9 C10 1.381 . S
C10 H2 0.930 . S
C10 C6 1.390 . S
C10 C9 1.381 . S
N11 C4 1.286 . S
N11 C7 1.413 . S
H12 C17 0.930 . S
H13 C20 0.930 . S
H14 C22 0.930 . S
H15 C16 1.016 . S
C16 H15 1.016 . S
C16 N23 1.286 . S
C17 H12 0.930 . S
C17 C18 1.397 . S
C17 C19 1.361 . S
C18 C17 1.397 . S
C18 C22 1.390 . S
C19 C17 1.361 . S
C19 C20 1.393 . S
C19 N23 1.413 . S
C20 H13 0.930 . S
C20 C19 1.393 . S
C20 C21 1.399 . S
C21 C20 1.399 . S
C21 C22 1.381 . S
C22 H14 0.930 . S
C22 C18 1.390 . S
C22 C21 1.381 . S
N23 C16 1.286 . S
N23 C19 1.413 . S
H24 C29 0.930 . S
H25 C32 0.930 . S
H26 C34 0.930 . S
H27 C28 1.016 . S
C28 H27 1.016 . S
C28 N35 1.286 . S
C29 H24 0.930 . S
C29 C30 1.397 . S
C29 C31 1.361 . S
C30 C29 1.397 . S
C30 C34 1.390 . S
C31 C29 1.361 . S
C31 C32 1.393 . S
C31 N35 1.413 . S
C32 H25 0.930 . S
C32 C31 1.393 . S
C32 C33 1.399 . S
C33 C32 1.399 . S
C33 C34 1.381 . S
C34 H26 0.930 . S
C34 C30 1.390 . S
C34 C33 1.381 . S
N35 C28 1.286 . S
N35 C31 1.413 . S
H36 C41 0.930 . S
H37 C44 0.930 . S
H38 C46 0.930 . S
H39 C40 1.016 . S
C40 H39 1.016 . S
C40 N47 1.286 . S
C41 H36 0.930 . S
C41 C42 1.397 . S
C41 C43 1.361 . S
C42 C41 1.397 . S
C42 C46 1.390 . S
C43 C41 1.361 . S
C43 C44 1.393 . S
C43 N47 1.413 . S
C44 H37 0.930 . S
C44 C43 1.393 . S
C44 C45 1.399 . S
C45 C44 1.399 . S
C45 C46 1.381 . S
C46 H38 0.930 . S
C46 C42 1.390 . S
C46 C45 1.381 . S
N47 C40 1.286 . S
N47 C43 1.413 . S
H48 C53 0.930 . S
H49 C56 0.930 . S
H50 C58 0.931 . S
H51 C52 1.015 1_455 S
C52 H51 1.015 1_655 S
C52 N59 1.286 . S
C53 H48 0.930 . S
C53 C54 1.397 . S
C53 C55 1.361 . S
C54 C53 1.397 . S
C54 C58 1.390 . S
C55 C53 1.361 . S
C55 C56 1.393 . S
C55 N59 1.413 . S
C56 H49 0.930 . S
C56 C55 1.393 . S
C56 C57 1.399 . S
C57 C56 1.399 . S
C57 C58 1.381 . S
C58 H50 0.931 . S
C58 C54 1.390 . S
C58 C57 1.381 . S
N59 C52 1.286 . S
N59 C55 1.413 . S
H60 C65 0.930 . S
H61 C68 0.930 . S
H62 C70 0.930 . S
H63 C64 1.016 . S
C64 H63 1.016 . S
C64 N71 1.286 . S
C65 H60 0.930 . S
C65 C66 1.397 . S
C65 C67 1.361 . S
C66 C65 1.397 . S
C66 C70 1.390 . S
C67 C65 1.361 . S
C67 C68 1.393 . S
C67 N71 1.413 . S
C68 H61 0.930 . S
C68 C67 1.393 . S
C68 C69 1.399 . S
C69 C68 1.399 . S
C69 C70 1.381 . S
C70 H62 0.930 . S
C70 C66 1.390 . S
C70 C69 1.381 . S
N71 C64 1.286 . S
N71 C67 1.413 . S
H72 C77 0.930 . S
H73 C80 0.930 . S
H74 C82 0.930 . S
H75 C76 1.016 . S
C76 H75 1.016 . S
C76 N83 1.286 . S
C77 H72 0.930 . S
C77 C78 1.397 . S
C77 C79 1.361 . S
C78 C77 1.397 . S
C78 C82 1.390 . S
C79 C77 1.361 . S
C79 C80 1.393 . S
C79 N83 1.413 . S
C80 H73 0.930 . S
C80 C79 1.393 . S
C80 C81 1.399 . S
C81 C80 1.399 . S
C81 C82 1.381 . S
C82 H74 0.930 . S
C82 C78 1.390 . S
C82 C81 1.381 . S
N83 C76 1.286 . S
N83 C79 1.413 . S
H84 C89 0.930 . S
H85 C92 0.930 . S
H86 C94 0.930 . S
H87 C88 1.016 . S
C88 H87 1.016 . S
C88 N95 1.286 . S
C89 H84 0.930 . S
C89 C90 1.397 . S
C89 C91 1.361 . S
C90 C89 1.397 . S
C90 C94 1.390 . S
C91 C89 1.361 . S
C91 C92 1.393 . S
C91 N95 1.413 . S
C92 H85 0.930 . S
C92 C91 1.393 . S
C92 C93 1.399 . S
C93 C92 1.399 . S
C93 C94 1.381 . S
C94 H86 0.930 . S
C94 C90 1.390 . S
C94 C93 1.381 . S
N95 C88 1.286 . S
N95 C91 1.413 . S
Zn96 O102 1.920 . S
Zn96 O108 1.898 . S
Zn96 O111 1.905 . S
Zn97 O105 1.905 1_565 S
Zn97 O106 1.898 . S
Zn97 O114 1.920 . S
Zn98 O101 2.080 1_455 S
Zn98 O104 2.114 . S
Zn98 O107 2.120 1_445 S
Zn98 O109 2.120 . S
Zn98 O110 2.114 1_455 S
Zn98 O113 2.080 . S
C99 O104 1.166 . S
C99 O105 1.182 . S
C100 O106 1.167 1_655 S
C100 O107 1.299 . S
O101 Zn98 2.080 1_655 S
O101 C115 1.305 . S
O102 Zn96 1.920 . S
O102 C115 1.234 . S
C103 O108 1.167 1_455 S
C103 O109 1.299 . S
O104 Zn98 2.114 . S
O104 C99 1.166 . S
O105 Zn97 1.905 1_545 S
O105 C99 1.182 . S
O106 Zn97 1.898 . S
O106 C100 1.167 1_455 S
O107 Zn98 2.120 1_665 S
O107 C100 1.299 . S
O108 Zn96 1.898 . S
O108 C103 1.167 1_655 S
O109 Zn98 2.120 . S
O109 C103 1.299 . S
O110 Zn98 2.114 1_655 S
O110 C112 1.166 . S
O111 Zn96 1.905 . S
O111 C112 1.182 . S
C112 O110 1.166 . S
C112 O111 1.182 . S
O113 Zn98 2.080 . S
O113 C116 1.305 1_545 S
O114 Zn97 1.920 . S
O114 C116 1.234 . S
C115 O101 1.305 . S
C115 O102 1.234 . S
C116 O113 1.305 1_565 S
C116 O114 1.234 . S
Zn117 O123 1.920 1_556 S
Zn117 O129 1.898 . S
Zn117 O132 1.905 . S
Zn118 O126 1.905 . S
Zn118 O127 1.898 . S
Zn118 O135 1.920 . S
Zn119 O122 2.080 . S
Zn119 O125 2.114 1_545 S
Zn119 O128 2.120 1_545 S
Zn119 O130 2.120 . S
Zn119 O131 2.114 1_544 S
Zn119 O134 2.080 . S
C120 O125 1.166 . S
C120 O126 1.182 . S
C121 O127 1.167 . S
C121 O128 1.299 . S
O122 Zn119 2.080 . S
O122 C136 1.305 . S
O123 Zn117 1.920 1_554 S
O123 C136 1.234 . S
C124 O129 1.167 . S
C124 O130 1.299 1_556 S
O125 Zn119 2.114 1_565 S
O125 C120 1.166 . S
O126 Zn118 1.905 . S
O126 C120 1.182 . S
O127 Zn118 1.898 . S
O127 C121 1.167 . S
O128 Zn119 2.120 1_565 S
O128 C121 1.299 . S
O129 Zn117 1.898 . S
O129 C124 1.167 . S
O130 Zn119 2.120 . S
O130 C124 1.299 1_554 S
O131 Zn119 2.114 1_566 S
O131 C133 1.166 . S
O132 Zn117 1.905 . S
O132 C133 1.182 1_545 S
C133 O131 1.166 . S
C133 O132 1.182 1_565 S
O134 Zn119 2.080 . S
O134 C137 1.305 . S
O135 Zn118 1.920 . S
O135 C137 1.234 1_565 S
C136 O122 1.305 . S
C136 O123 1.234 . S
C137 O134 1.305 . S
C137 O135 1.234 1_545 S
Zn138 O144 1.920 . S
Zn138 O150 1.898 . S
Zn138 O153 1.905 . S
Zn139 O147 1.905 . S
Zn139 O148 1.898 . S
Zn139 O156 1.920 . S
Zn140 O143 2.080 . S
Zn140 O146 2.114 . S
Zn140 O149 2.120 . S
Zn140 O151 2.120 . S
Zn140 O152 2.114 . S
Zn140 O155 2.080 . S
C141 O146 1.166 . S
C141 O147 1.182 . S
C142 O148 1.167 . S
C142 O149 1.299 . S
O143 Zn140 2.080 . S
O143 C157 1.305 . S
O144 Zn138 1.920 . S
O144 C157 1.234 . S
C145 O150 1.167 . S
C145 O151 1.299 . S
O146 Zn140 2.114 . S
O146 C141 1.166 . S
O147 Zn139 1.905 . S
O147 C141 1.182 . S
O148 Zn139 1.898 . S
O148 C142 1.167 . S
O149 Zn140 2.120 . S
O149 C142 1.299 . S
O150 Zn138 1.898 . S
O150 C145 1.167 . S
O151 Zn140 2.120 . S
O151 C145 1.299 . S
O152 Zn140 2.114 . S
O152 C154 1.166 . S
O153 Zn138 1.905 . S
O153 C154 1.182 . S
C154 O152 1.166 . S
C154 O153 1.182 . S
O155 Zn140 2.080 . S
O155 C158 1.305 . S
O156 Zn139 1.920 . S
O156 C158 1.234 . S
C157 O143 1.305 . S
C157 O144 1.234 . S
C158 O155 1.305 . S
C158 O156 1.234 . S
Zn159 O165 1.920 . S
Zn159 O171 1.898 . S
Zn159 O174 1.905 . S
Zn160 O168 1.905 1_655 S
Zn160 O169 1.898 . S
Zn160 O177 1.920 . S
Zn161 O164 2.080 1_554 S
Zn161 O167 2.114 . S
Zn161 O170 2.120 1_454 S
Zn161 O172 2.120 . S
Zn161 O173 2.114 1_554 S
Zn161 O176 2.080 . S
C162 O167 1.166 . S
C162 O168 1.182 . S
C163 O169 1.167 1_556 S
C163 O170 1.299 . S
O164 Zn161 2.080 1_556 S
O164 C178 1.305 . S
O165 Zn159 1.920 . S
O165 C178 1.234 . S
C166 O171 1.167 1_554 S
C166 O172 1.299 . S
O167 Zn161 2.114 . S
O167 C162 1.166 . S
O168 Zn160 1.905 1_455 S
O168 C162 1.182 . S
O169 Zn160 1.898 . S
O169 C163 1.167 1_554 S
O170 Zn161 2.120 1_656 S
O170 C163 1.299 . S
O171 Zn159 1.898 . S
O171 C166 1.167 1_556 S
O172 Zn161 2.120 . S
O172 C166 1.299 . S
O173 Zn161 2.114 1_556 S
O173 C175 1.166 . S
O174 Zn159 1.905 . S
O174 C175 1.182 . S
C175 O173 1.166 . S
C175 O174 1.182 . S
O176 Zn161 2.080 . S
O176 C179 1.304 . S
O177 Zn160 1.920 . S
O177 C179 1.235 1_655 S
C178 O164 1.305 . S
C178 O165 1.234 . S
C179 O176 1.304 . S
C179 O177 1.235 1_455 S
H180 C192 0.930 . S
H181 C194 0.930 . S
H182 C195 0.930 . S
H183 C199 0.959 . S
H184 C199 0.959 . S
H185 C199 0.961 . S
H186 C200 0.960 . S
H187 C200 0.961 . S
H188 C200 0.959 . S
H189 C203 0.929 . S
H190 C204 0.931 . S
H191 C206 0.930 . S
C192 H180 0.930 . S
C192 C193 1.399 . S
C192 C197 1.399 . S
C193 C192 1.399 . S
C193 C194 1.376 . S
C194 H181 0.930 . S
C194 C193 1.376 . S
C194 C195 1.388 . S
C195 H182 0.930 . S
C195 C194 1.388 . S
C195 C196 1.390 . S
C196 C195 1.390 . S
C196 C197 1.394 . S
C196 C202 1.465 . S
C197 C192 1.399 . S
C197 C196 1.394 . S
C197 C198 1.516 . S
C198 C197 1.516 . S
C198 C199 1.502 . S
C198 C200 1.561 . S
C198 C201 1.526 . S
C199 H183 0.959 . S
C199 H184 0.959 . S
C199 H185 0.961 . S
C199 C198 1.502 . S
C200 H186 0.960 . S
C200 H187 0.961 . S
C200 H188 0.959 . S
C200 C198 1.561 . S
C201 C198 1.526 . S
C201 C202 1.396 . S
C201 C206 1.390 . S
C202 C196 1.465 . S
C202 C201 1.396 . S
C202 C203 1.399 . S
C203 H189 0.929 . S
C203 C202 1.399 . S
C203 C204 1.385 . S
C204 H190 0.931 . S
C204 C203 1.385 . S
C204 C205 1.389 . S
C205 C204 1.389 . S
C205 C206 1.387 . S
C206 H191 0.930 . S
C206 C201 1.390 . S
C206 C205 1.387 . S
H207 C219 0.930 . S
H208 C221 0.930 . S
H209 C222 0.930 . S
H210 C226 0.959 . S
H211 C226 0.959 . S
H212 C226 0.961 . S
H213 C227 0.960 . S
H214 C227 0.961 . S
H215 C227 0.959 . S
H216 C230 0.929 . S
H217 C231 0.931 1_545 S
H218 C233 0.930 . S
C219 H207 0.930 . S
C219 C220 1.399 . S
C219 C224 1.399 . S
C220 C219 1.399 . S
C220 C221 1.376 . S
C221 H208 0.930 . S
C221 C220 1.376 . S
C221 C222 1.388 . S
C222 H209 0.930 . S
C222 C221 1.388 . S
C222 C223 1.390 . S
C223 C222 1.390 . S
C223 C224 1.394 . S
C223 C229 1.465 . S
C224 C219 1.399 . S
C224 C223 1.394 . S
C224 C225 1.516 . S
C225 C224 1.516 . S
C225 C226 1.502 . S
C225 C227 1.561 . S
C225 C228 1.526 . S
C226 H210 0.959 . S
C226 H211 0.959 . S
C226 H212 0.961 . S
C226 C225 1.502 . S
C227 H213 0.960 . S
C227 H214 0.961 . S
C227 H215 0.959 . S
C227 C225 1.561 . S
C228 C225 1.526 . S
C228 C229 1.396 . S
C228 C233 1.390 . S
C229 C223 1.465 . S
C229 C228 1.396 . S
C229 C230 1.399 . S
C230 H216 0.929 . S
C230 C229 1.399 . S
C230 C231 1.385 . S
C231 H217 0.931 1_565 S
C231 C230 1.385 . S
C231 C232 1.389 . S
C232 C231 1.389 . S
C232 C233 1.387 . S
C233 H218 0.930 . S
C233 C228 1.390 . S
C233 C232 1.387 . S
H234 C246 0.930 . S
H235 C248 0.930 . S
H236 C249 0.930 . S
H237 C253 0.959 . S
H238 C253 0.959 . S
H239 C253 0.961 . S
H240 C254 0.960 . S
H241 C254 0.961 . S
H242 C254 0.959 . S
H243 C257 0.929 . S
H244 C258 0.931 . S
H245 C260 0.930 . S
C246 H234 0.930 . S
C246 C247 1.399 . S
C246 C251 1.399 . S
C247 C246 1.399 . S
C247 C248 1.376 . S
C248 H235 0.930 . S
C248 C247 1.376 . S
C248 C249 1.388 . S
C249 H236 0.930 . S
C249 C248 1.388 . S
C249 C250 1.390 . S
C250 C249 1.390 . S
C250 C251 1.394 . S
C250 C256 1.465 . S
C251 C246 1.399 . S
C251 C250 1.394 . S
C251 C252 1.516 . S
C252 C251 1.516 . S
C252 C253 1.502 . S
C252 C254 1.561 . S
C252 C255 1.526 . S
C253 H237 0.959 . S
C253 H238 0.959 . S
C253 H239 0.961 . S
C253 C252 1.502 . S
C254 H240 0.960 . S
C254 H241 0.961 . S
C254 H242 0.959 . S
C254 C252 1.561 . S
C255 C252 1.526 . S
C255 C256 1.396 . S
C255 C260 1.390 . S
C256 C250 1.465 . S
C256 C255 1.396 . S
C256 C257 1.399 . S
C257 H243 0.929 . S
C257 C256 1.399 . S
C257 C258 1.385 . S
C258 H244 0.931 . S
C258 C257 1.385 . S
C258 C259 1.389 . S
C259 C258 1.389 . S
C259 C260 1.387 . S
C260 H245 0.930 . S
C260 C255 1.390 . S
C260 C259 1.387 . S
H261 C273 0.930 . S
H262 C275 0.930 . S
H263 C276 0.930 . S
H264 C280 0.959 1_455 S
H265 C280 0.959 1_455 S
H266 C280 0.961 . S
H267 C281 0.960 . S
H268 C281 0.961 . S
H269 C281 0.959 . S
H270 C284 0.929 . S
H271 C285 0.931 . S
H272 C287 0.930 1_455 S
C273 H261 0.930 . S
C273 C274 1.399 . S
C273 C278 1.399 . S
C274 C273 1.399 . S
C274 C275 1.376 . S
C275 H262 0.930 . S
C275 C274 1.376 . S
C275 C276 1.388 . S
C276 H263 0.930 . S
C276 C275 1.388 . S
C276 C277 1.390 . S
C277 C276 1.390 . S
C277 C278 1.394 . S
C277 C283 1.465 . S
C278 C273 1.399 . S
C278 C277 1.394 . S
C278 C279 1.516 . S
C279 C278 1.516 . S
C279 C280 1.502 . S
C279 C281 1.561 . S
C279 C282 1.526 . S
C280 H264 0.959 1_655 S
C280 H265 0.959 1_655 S
C280 H266 0.961 . S
C280 C279 1.502 . S
C281 H267 0.960 . S
C281 H268 0.961 . S
C281 H269 0.959 . S
C281 C279 1.561 . S
C282 C279 1.526 . S
C282 C283 1.396 . S
C282 C287 1.390 . S
C283 C277 1.465 . S
C283 C282 1.396 . S
C283 C284 1.399 . S
C284 H270 0.929 . S
C284 C283 1.399 . S
C284 C285 1.385 . S
C285 H271 0.931 . S
C285 C284 1.385 . S
C285 C286 1.389 . S
C286 C285 1.389 . S
C286 C287 1.387 . S
C287 H272 0.930 1_655 S
C287 C282 1.390 . S
C287 C286 1.387 . S
H288 C300 0.930 . S
H289 C302 0.930 . S
H290 C303 0.930 . S
H291 C307 0.959 . S
H292 C307 0.959 . S
H293 C307 0.961 . S
H294 C308 0.960 . S
H295 C308 0.961 . S
H296 C308 0.959 . S
H297 C311 0.929 . S
H298 C312 0.931 . S
H299 C314 0.930 . S
C300 H288 0.930 . S
C300 C301 1.399 . S
C300 C305 1.399 . S
C301 C300 1.399 . S
C301 C302 1.376 . S
C302 H289 0.930 . S
C302 C301 1.376 . S
C302 C303 1.388 . S
C303 H290 0.930 . S
C303 C302 1.388 . S
C303 C304 1.390 . S
C304 C303 1.390 . S
C304 C305 1.394 . S
C304 C310 1.465 . S
C305 C300 1.399 . S
C305 C304 1.394 . S
C305 C306 1.516 . S
C306 C305 1.516 . S
C306 C307 1.502 . S
C306 C308 1.561 . S
C306 C309 1.526 . S
C307 H291 0.959 . S
C307 H292 0.959 . S
C307 H293 0.961 . S
C307 C306 1.502 . S
C308 H294 0.960 . S
C308 H295 0.961 . S
C308 H296 0.959 . S
C308 C306 1.561 . S
C309 C306 1.526 . S
C309 C310 1.396 . S
C309 C314 1.390 . S
C310 C304 1.465 . S
C310 C309 1.396 . S
C310 C311 1.399 . S
C311 H297 0.929 . S
C311 C310 1.399 . S
C311 C312 1.385 . S
C312 H298 0.931 . S
C312 C311 1.385 . S
C312 C313 1.389 . S
C313 C312 1.389 . S
C313 C314 1.387 . S
C314 H299 0.930 . S
C314 C309 1.390 . S
C314 C313 1.387 . S
H315 C327 0.930 . S
H316 C329 0.930 . S
H317 C330 0.930 . S
H318 C334 0.959 . S
H319 C334 0.959 . S
H320 C334 0.961 . S
H321 C335 0.960 . S
H322 C335 0.961 . S
H323 C335 0.959 . S
H324 C338 0.929 . S
H325 C339 0.931 . S
H326 C341 0.930 1_545 S
C327 H315 0.930 . S
C327 C328 1.399 . S
C327 C332 1.399 . S
C328 C327 1.399 . S
C328 C329 1.376 . S
C329 H316 0.930 . S
C329 C328 1.376 . S
C329 C330 1.388 . S
C330 H317 0.930 . S
C330 C329 1.388 . S
C330 C331 1.390 . S
C331 C330 1.390 . S
C331 C332 1.394 . S
C331 C337 1.465 . S
C332 C327 1.399 . S
C332 C331 1.394 . S
C332 C333 1.516 . S
C333 C332 1.516 . S
C333 C334 1.502 1_565 S
C333 C335 1.561 . S
C333 C336 1.526 . S
C334 H318 0.959 . S
C334 H319 0.959 . S
C334 H320 0.961 . S
C334 C333 1.502 1_545 S
C335 H321 0.960 . S
C335 H322 0.961 . S
C335 H323 0.959 . S
C335 C333 1.561 . S
C336 C333 1.526 . S
C336 C337 1.396 . S
C336 C341 1.390 . S
C337 C331 1.465 . S
C337 C336 1.396 . S
C337 C338 1.399 . S
C338 H324 0.929 . S
C338 C337 1.399 . S
C338 C339 1.385 . S
C339 H325 0.931 . S
C339 C338 1.385 . S
C339 C340 1.389 . S
C340 C339 1.389 . S
C340 C341 1.387 . S
C341 H326 0.930 1_565 S
C341 C336 1.390 . S
C341 C340 1.387 . S
H342 C354 0.930 . S
H343 C356 0.930 . S
H344 C357 0.930 . S
H345 C361 0.959 . S
H346 C361 0.959 . S
H347 C361 0.961 . S
H348 C362 0.960 . S
H349 C362 0.961 . S
H350 C362 0.959 . S
H351 C365 0.929 . S
H352 C366 0.931 . S
H353 C368 0.930 . S
C354 H342 0.930 . S
C354 C355 1.399 . S
C354 C359 1.399 . S
C355 C354 1.399 . S
C355 C356 1.376 . S
C356 H343 0.930 . S
C356 C355 1.376 . S
C356 C357 1.388 . S
C357 H344 0.930 . S
C357 C356 1.388 . S
C357 C358 1.390 . S
C358 C357 1.390 . S
C358 C359 1.394 . S
C358 C364 1.465 . S
C359 C354 1.399 . S
C359 C358 1.394 . S
C359 C360 1.516 . S
C360 C359 1.516 . S
C360 C361 1.502 . S
C360 C362 1.561 . S
C360 C363 1.526 . S
C361 H345 0.959 . S
C361 H346 0.959 . S
C361 H347 0.961 . S
C361 C360 1.502 . S
C362 H348 0.960 . S
C362 H349 0.961 . S
C362 H350 0.959 . S
C362 C360 1.561 . S
C363 C360 1.526 . S
C363 C364 1.396 . S
C363 C368 1.390 . S
C364 C358 1.465 . S
C364 C363 1.396 . S
C364 C365 1.399 . S
C365 H351 0.929 . S
C365 C364 1.399 . S
C365 C366 1.385 . S
C366 H352 0.931 . S
C366 C365 1.385 . S
C366 C367 1.389 . S
C367 C366 1.389 . S
C367 C368 1.387 . S
C368 H353 0.930 . S
C368 C363 1.390 . S
C368 C367 1.387 . S
H369 C381 0.930 . S
H370 C383 0.930 . S
H371 C384 0.930 . S
H372 C388 0.959 . S
H373 C388 0.959 . S
H374 C388 0.961 . S
H375 C389 0.960 . S
H376 C389 0.961 . S
H377 C389 0.959 . S
H378 C392 0.929 . S
H379 C393 0.931 . S
H380 C395 0.930 . S
C381 H369 0.930 . S
C381 C382 1.399 . S
C381 C386 1.399 . S
C382 C381 1.399 . S
C382 C383 1.376 . S
C383 H370 0.930 . S
C383 C382 1.376 . S
C383 C384 1.388 . S
C384 H371 0.930 . S
C384 C383 1.388 . S
C384 C385 1.390 . S
C385 C384 1.390 . S
C385 C386 1.394 . S
C385 C391 1.465 . S
C386 C381 1.399 . S
C386 C385 1.394 . S
C386 C387 1.516 . S
C387 C386 1.516 . S
C387 C388 1.502 . S
C387 C389 1.561 . S
C387 C390 1.526 . S
C388 H372 0.959 . S
C388 H373 0.959 . S
C388 H374 0.961 . S
C388 C387 1.502 . S
C389 H375 0.960 . S
C389 H376 0.961 . S
C389 H377 0.959 . S
C389 C387 1.561 . S
C390 C387 1.526 . S
C390 C391 1.396 . S
C390 C395 1.390 . S
C391 C385 1.465 . S
C391 C390 1.396 . S
C391 C392 1.399 . S
C392 H378 0.929 . S
C392 C391 1.399 . S
C392 C393 1.385 . S
C393 H379 0.931 . S
C393 C392 1.385 . S
C393 C394 1.389 . S
C394 C393 1.389 . S
C394 C395 1.387 . S
C395 H380 0.930 . S
C395 C390 1.390 . S
C395 C394 1.387 . S
H396 C408 0.930 . S
H397 C410 0.930 . S
H398 C411 0.930 . S
H399 C415 0.959 . S
H400 C415 0.959 . S
H401 C415 0.961 . S
H402 C416 0.960 . S
H403 C416 0.961 . S
H404 C416 0.959 . S
H405 C419 0.929 . S
H406 C420 0.931 . S
H407 C422 0.930 . S
C408 H396 0.930 . S
C408 C409 1.399 . S
C408 C413 1.399 . S
C409 C408 1.399 . S
C409 C410 1.376 . S
C410 H397 0.930 . S
C410 C409 1.376 . S
C410 C411 1.388 . S
C411 H398 0.930 . S
C411 C410 1.388 . S
C411 C412 1.390 . S
C412 C411 1.390 . S
C412 C413 1.394 . S
C412 C418 1.465 . S
C413 C408 1.399 . S
C413 C412 1.394 . S
C413 C414 1.516 . S
C414 C413 1.516 . S
C414 C415 1.502 . S
C414 C416 1.561 . S
C414 C417 1.526 . S
C415 H399 0.959 . S
C415 H400 0.959 . S
C415 H401 0.961 . S
C415 C414 1.502 . S
C416 H402 0.960 . S
C416 H403 0.961 . S
C416 H404 0.959 . S
C416 C414 1.561 . S
C417 C414 1.526 . S
C417 C418 1.396 . S
C417 C422 1.390 . S
C418 C412 1.465 . S
C418 C417 1.396 . S
C418 C419 1.399 . S
C419 H405 0.929 . S
C419 C418 1.399 . S
C419 C420 1.385 . S
C420 H406 0.931 . S
C420 C419 1.385 . S
C420 C421 1.389 . S
C421 C420 1.389 . S
C421 C422 1.387 . S
C422 H407 0.930 . S
C422 C417 1.390 . S
C422 C421 1.387 . S
H423 C435 0.930 . S
H424 C437 0.930 . S
H425 C438 0.930 . S
H426 C442 0.959 . S
H427 C442 0.959 1_554 S
H428 C442 0.961 . S
H429 C443 0.960 . S
H430 C443 0.961 1_554 S
H431 C443 0.959 . S
H432 C446 0.929 . S
H433 C447 0.931 . S
H434 C449 0.930 1_554 S
C435 H423 0.930 . S
C435 C436 1.399 . S
C435 C440 1.399 . S
C436 C435 1.399 . S
C436 C437 1.376 . S
C437 H424 0.930 . S
C437 C436 1.376 . S
C437 C438 1.388 . S
C438 H425 0.930 . S
C438 C437 1.388 . S
C438 C439 1.390 . S
C439 C438 1.390 . S
C439 C440 1.394 . S
C439 C445 1.465 . S
C440 C435 1.399 . S
C440 C439 1.394 . S
C440 C441 1.516 . S
C441 C440 1.516 . S
C441 C442 1.502 . S
C441 C443 1.561 . S
C441 C444 1.526 . S
C442 H426 0.959 . S
C442 H427 0.959 1_556 S
C442 H428 0.961 . S
C442 C441 1.502 . S
C443 H429 0.960 . S
C443 H430 0.961 1_556 S
C443 H431 0.959 . S
C443 C441 1.561 . S
C444 C441 1.526 . S
C444 C445 1.396 . S
C444 C449 1.390 . S
C445 C439 1.465 . S
C445 C444 1.396 . S
C445 C446 1.399 . S
C446 H432 0.929 . S
C446 C445 1.399 . S
C446 C447 1.385 . S
C447 H433 0.931 . S
C447 C446 1.385 . S
C447 C448 1.389 . S
C448 C447 1.389 . S
C448 C449 1.387 . S
C449 H434 0.930 1_556 S
C449 C444 1.390 . S
C449 C448 1.387 . S
H450 C462 0.930 . S
H451 C464 0.930 . S
H452 C465 0.930 . S
H453 C469 0.959 . S
H454 C469 0.959 . S
H455 C469 0.961 . S
H456 C470 0.960 . S
H457 C470 0.961 . S
H458 C470 0.959 . S
H459 C473 0.929 1_455 S
H460 C474 0.931 1_455 S
H461 C476 0.930 . S
C462 H450 0.930 . S
C462 C463 1.399 . S
C462 C467 1.399 . S
C463 C462 1.399 . S
C463 C464 1.376 . S
C464 H451 0.930 . S
C464 C463 1.376 . S
C464 C465 1.388 . S
C465 H452 0.930 . S
C465 C464 1.388 . S
C465 C466 1.390 . S
C466 C465 1.390 . S
C466 C467 1.394 . S
C466 C472 1.465 . S
C467 C462 1.399 . S
C467 C466 1.394 . S
C467 C468 1.516 . S
C468 C467 1.516 . S
C468 C469 1.502 . S
C468 C470 1.561 . S
C468 C471 1.526 . S
C469 H453 0.959 . S
C469 H454 0.959 . S
C469 H455 0.961 . S
C469 C468 1.502 . S
C470 H456 0.960 . S
C470 H457 0.961 . S
C470 H458 0.959 . S
C470 C468 1.561 . S
C471 C468 1.526 . S
C471 C472 1.396 . S
C471 C476 1.390 . S
C472 C466 1.465 . S
C472 C471 1.396 . S
C472 C473 1.399 . S
C473 H459 0.929 1_655 S
C473 C472 1.399 . S
C473 C474 1.385 . S
C474 H460 0.931 1_655 S
C474 C473 1.385 . S
C474 C475 1.389 . S
C475 C474 1.389 . S
C475 C476 1.387 . S
C476 H461 0.930 . S
C476 C471 1.390 . S
C476 C475 1.387 . S
H477 C489 0.930 . S
H478 C491 0.930 . S
H479 C492 0.930 . S
H480 C496 0.959 . S
H481 C496 0.959 . S
H482 C496 0.961 . S
H483 C497 0.960 . S
H484 C497 0.961 . S
H485 C497 0.959 . S
H486 C500 0.929 . S
H487 C501 0.931 . S
H488 C503 0.930 . S
C489 H477 0.930 . S
C489 C490 1.399 . S
C489 C494 1.399 . S
C490 C489 1.399 . S
C490 C491 1.376 . S
C491 H478 0.930 . S
C491 C490 1.376 . S
C491 C492 1.388 . S
C492 H479 0.930 . S
C492 C491 1.388 . S
C492 C493 1.390 . S
C493 C492 1.390 . S
C493 C494 1.394 . S
C493 C499 1.465 . S
C494 C489 1.399 . S
C494 C493 1.394 . S
C494 C495 1.516 . S
C495 C494 1.516 . S
C495 C496 1.502 . S
C495 C497 1.561 . S
C495 C498 1.526 . S
C496 H480 0.959 . S
C496 H481 0.959 . S
C496 H482 0.961 . S
C496 C495 1.502 . S
C497 H483 0.960 . S
C497 H484 0.961 . S
C497 H485 0.959 . S
C497 C495 1.561 . S
C498 C495 1.526 . S
C498 C499 1.396 . S
C498 C503 1.390 . S
C499 C493 1.465 . S
C499 C498 1.396 . S
C499 C500 1.399 . S
C500 H486 0.929 . S
C500 C499 1.399 . S
C500 C501 1.385 . S
C501 H487 0.931 . S
C501 C500 1.385 . S
C501 C502 1.389 . S
C502 C501 1.389 . S
C502 C503 1.387 . S
C503 H488 0.930 . S
C503 C498 1.390 . S
C503 C502 1.387 . S
H504 C516 0.930 . S
H505 C518 0.930 . S
H506 C519 0.930 . S
H507 C523 0.959 . S
H508 C523 0.959 . S
H509 C523 0.961 . S
H510 C524 0.960 . S
H511 C524 0.961 . S
H512 C524 0.959 . S
H513 C527 0.929 . S
H514 C528 0.931 . S
H515 C530 0.930 1_455 S
C516 H504 0.930 . S
C516 C517 1.399 . S
C516 C521 1.399 . S
C517 C516 1.399 . S
C517 C518 1.376 1_565 S
C518 H505 0.930 . S
C518 C517 1.376 1_545 S
C518 C519 1.388 . S
C519 H506 0.930 . S
C519 C518 1.388 . S
C519 C520 1.390 . S
C520 C519 1.390 . S
C520 C521 1.394 1_545 S
C520 C526 1.465 . S
C521 C516 1.399 . S
C521 C520 1.394 1_565 S
C521 C522 1.516 . S
C522 C521 1.516 . S
C522 C523 1.502 1_655 S
C522 C524 1.561 . S
C522 C525 1.526 . S
C523 H507 0.959 . S
C523 H508 0.959 . S
C523 H509 0.961 . S
C523 C522 1.502 1_455 S
C524 H510 0.960 . S
C524 H511 0.961 . S
C524 H512 0.959 . S
C524 C522 1.561 . S
C525 C522 1.526 . S
C525 C526 1.396 1_565 S
C525 C530 1.390 . S
C526 C520 1.465 . S
C526 C525 1.396 1_545 S
C526 C527 1.399 . S
C527 H513 0.929 . S
C527 C526 1.399 . S
C527 C528 1.385 . S
C528 H514 0.931 . S
C528 C527 1.385 . S
C528 C529 1.389 . S
C529 C528 1.389 . S
C529 C530 1.387 1_545 S
C530 H515 0.930 1_655 S
C530 C525 1.390 . S
C530 C529 1.387 1_565 S
H531 C543 0.930 . S
H532 C545 0.930 . S
H533 C546 0.930 . S
H534 C550 0.959 1_545 S
H535 C550 0.959 . S
H536 C550 0.961 . S
H537 C551 0.960 . S
H538 C551 0.961 . S
H539 C551 0.959 . S
H540 C554 0.929 . S
H541 C555 0.931 . S
H542 C557 0.930 1_565 S
C543 H531 0.930 . S
C543 C544 1.399 . S
C543 C548 1.399 . S
C544 C543 1.399 . S
C544 C545 1.376 . S
C545 H532 0.930 . S
C545 C544 1.376 . S
C545 C546 1.388 . S
C546 H533 0.930 . S
C546 C545 1.388 . S
C546 C547 1.390 . S
C547 C546 1.390 . S
C547 C548 1.394 . S
C547 C553 1.465 . S
C548 C543 1.399 . S
C548 C547 1.394 . S
C548 C549 1.516 . S
C549 C548 1.516 . S
C549 C550 1.502 1_545 S
C549 C551 1.561 1_545 S
C549 C552 1.526 . S
C550 H534 0.959 1_565 S
C550 H535 0.959 . S
C550 H536 0.961 . S
C550 C549 1.502 1_565 S
C551 H537 0.960 . S
C551 H538 0.961 . S
C551 H539 0.959 . S
C551 C549 1.561 1_565 S
C552 C549 1.526 . S
C552 C553 1.396 . S
C552 C557 1.390 . S
C553 C547 1.465 . S
C553 C552 1.396 . S
C553 C554 1.399 . S
C554 H540 0.929 . S
C554 C553 1.399 . S
C554 C555 1.385 . S
C555 H541 0.931 . S
C555 C554 1.385 . S
C555 C556 1.389 . S
C556 C555 1.389 . S
C556 C557 1.387 . S
C557 H542 0.930 1_545 S
C557 C552 1.390 . S
C557 C556 1.387 . S
H558 C570 0.930 . S
H559 C572 0.930 . S
H560 C573 0.930 . S
H561 C577 0.959 . S
H562 C577 0.959 . S
H563 C577 0.961 . S
H564 C578 0.960 . S
H565 C578 0.961 . S
H566 C578 0.959 . S
H567 C581 0.929 . S
H568 C582 0.931 . S
H569 C584 0.930 . S
C570 H558 0.930 . S
C570 C571 1.399 . S
C570 C575 1.399 . S
C571 C570 1.399 . S
C571 C572 1.376 . S
C572 H559 0.930 . S
C572 C571 1.376 . S
C572 C573 1.388 . S
C573 H560 0.930 . S
C573 C572 1.388 . S
C573 C574 1.390 . S
C574 C573 1.390 . S
C574 C575 1.394 . S
C574 C580 1.465 . S
C575 C570 1.399 . S
C575 C574 1.394 . S
C575 C576 1.516 . S
C576 C575 1.516 . S
C576 C577 1.502 . S
C576 C578 1.561 . S
C576 C579 1.526 . S
C577 H561 0.959 . S
C577 H562 0.959 . S
C577 H563 0.961 . S
C577 C576 1.502 . S
C578 H564 0.960 . S
C578 H565 0.961 . S
C578 H566 0.959 . S
C578 C576 1.561 . S
C579 C576 1.526 . S
C579 C580 1.396 . S
C579 C584 1.390 . S
C580 C574 1.465 . S
C580 C579 1.396 . S
C580 C581 1.399 . S
C581 H567 0.929 . S
C581 C580 1.399 . S
C581 C582 1.385 . S
C582 H568 0.931 . S
C582 C581 1.385 . S
C582 C583 1.389 . S
C583 C582 1.389 . S
C583 C584 1.387 . S
C584 H569 0.930 . S
C584 C579 1.390 . S
C584 C583 1.387 . S
H585 C597 0.930 . S
H586 C599 0.930 . S
H587 C600 0.930 . S
H588 C604 0.959 . S
H589 C604 0.959 . S
H590 C604 0.961 . S
H591 C605 0.960 . S
H592 C605 0.961 . S
H593 C605 0.959 . S
H594 C608 0.929 . S
H595 C609 0.931 . S
H596 C611 0.930 . S
C597 H585 0.930 . S
C597 C598 1.399 . S
C597 C602 1.399 . S
C598 C597 1.399 . S
C598 C599 1.376 . S
C599 H586 0.930 . S
C599 C598 1.376 . S
C599 C600 1.388 . S
C600 H587 0.930 . S
C600 C599 1.388 . S
C600 C601 1.390 . S
C601 C600 1.390 . S
C601 C602 1.394 . S
C601 C607 1.465 . S
C602 C597 1.399 . S
C602 C601 1.394 . S
C602 C603 1.516 . S
C603 C602 1.516 . S
C603 C604 1.502 . S
C603 C605 1.561 . S
C603 C606 1.526 . S
C604 H588 0.959 . S
C604 H589 0.959 . S
C604 H590 0.961 . S
C604 C603 1.502 . S
C605 H591 0.960 . S
C605 H592 0.961 . S
C605 H593 0.959 . S
C605 C603 1.561 . S
C606 C603 1.526 . S
C606 C607 1.396 . S
C606 C611 1.390 . S
C607 C601 1.465 . S
C607 C606 1.396 . S
C607 C608 1.399 . S
C608 H594 0.929 . S
C608 C607 1.399 . S
C608 C609 1.385 . S
C609 H595 0.931 . S
C609 C608 1.385 . S
C609 C610 1.389 . S
C610 C609 1.389 . S
C610 C611 1.387 . S
C611 H596 0.930 . S
C611 C606 1.390 . S
C611 C610 1.387 . S
H612 C624 0.930 . S
H613 C626 0.930 . S
H614 C627 0.930 . S
H615 C631 0.959 1_554 S
H616 C631 0.959 . S
H617 C631 0.961 . S
H618 C632 0.960 . S
H619 C632 0.961 . S
H620 C632 0.959 . S
H621 C635 0.929 . S
H622 C636 0.931 . S
H623 C638 0.930 . S
C624 H612 0.930 . S
C624 C625 1.399 1_545 S
C624 C629 1.399 . S
C625 C624 1.399 1_565 S
C625 C626 1.376 . S
C626 H613 0.930 . S
C626 C625 1.376 . S
C626 C627 1.388 . S
C627 H614 0.930 . S
C627 C626 1.388 . S
C627 C628 1.390 . S
C628 C627 1.390 . S
C628 C629 1.394 1_565 S
C628 C634 1.465 . S
C629 C624 1.399 . S
C629 C628 1.394 1_545 S
C629 C630 1.516 . S
C630 C629 1.516 . S
C630 C631 1.502 . S
C630 C632 1.561 . S
C630 C633 1.526 . S
C631 H615 0.959 1_556 S
C631 H616 0.959 . S
C631 H617 0.961 . S
C631 C630 1.502 . S
C632 H618 0.960 . S
C632 H619 0.961 . S
C632 H620 0.959 . S
C632 C630 1.561 . S
C633 C630 1.526 . S
C633 C634 1.396 1_545 S
C633 C638 1.390 . S
C634 C628 1.465 . S
C634 C633 1.396 1_565 S
C634 C635 1.399 . S
C635 H621 0.929 . S
C635 C634 1.399 . S
C635 C636 1.385 1_556 S
C636 H622 0.931 . S
C636 C635 1.385 1_554 S
C636 C637 1.389 . S
C637 C636 1.389 . S
C637 C638 1.387 1_564 S
C638 H623 0.930 . S
C638 C633 1.390 . S
C638 C637 1.387 1_546 S
H639 C651 0.930 . S
H640 C653 0.930 . S
H641 C654 0.930 . S
H642 C658 0.959 . S
H643 C658 0.959 . S
H644 C658 0.961 . S
H645 C659 0.960 . S
H646 C659 0.962 . S
H647 C659 0.959 . S
H648 C662 0.929 . S
H649 C663 0.931 . S
H650 C665 0.930 1_565 S
C651 H639 0.930 . S
C651 C652 1.399 . S
C651 C656 1.399 . S
C652 C651 1.399 . S
C652 C653 1.376 . S
C653 H640 0.930 . S
C653 C652 1.376 . S
C653 C654 1.388 . S
C654 H641 0.930 . S
C654 C653 1.388 . S
C654 C655 1.390 . S
C655 C654 1.390 . S
C655 C656 1.394 . S
C655 C661 1.465 . S
C656 C651 1.399 . S
C656 C655 1.394 . S
C656 C657 1.516 . S
C657 C656 1.516 . S
C657 C658 1.502 1_545 S
C657 C659 1.561 . S
C657 C660 1.526 . S
C658 H642 0.959 . S
C658 H643 0.959 . S
C658 H644 0.961 . S
C658 C657 1.502 1_565 S
C659 H645 0.960 . S
C659 H646 0.962 . S
C659 H647 0.959 . S
C659 C657 1.561 . S
C660 C657 1.526 . S
C660 C661 1.396 . S
C660 C665 1.390 . S
C661 C655 1.465 . S
C661 C660 1.396 . S
C661 C662 1.399 . S
C662 H648 0.929 . S
C662 C661 1.399 . S
C662 C663 1.385 . S
C663 H649 0.931 . S
C663 C662 1.385 . S
C663 C664 1.389 . S
C664 C663 1.389 . S
C664 C665 1.387 . S
C665 H650 0.930 1_545 S
C665 C660 1.390 . S
C665 C664 1.387 . S
H666 C678 0.930 . S
H667 C680 0.930 . S
H668 C681 0.930 . S
H669 C685 0.959 . S
H670 C685 0.959 . S
H671 C685 0.961 . S
H672 C686 0.960 . S
H673 C686 0.961 . S
H674 C686 0.959 1_556 S
H675 C689 0.929 . S
H676 C690 0.931 . S
H677 C692 0.930 . S
C678 H666 0.930 . S
C678 C679 1.399 . S
C678 C683 1.399 . S
C679 C678 1.399 . S
C679 C680 1.376 . S
C680 H667 0.930 . S
C680 C679 1.376 . S
C680 C681 1.388 . S
C681 H668 0.930 . S
C681 C680 1.388 . S
C681 C682 1.390 . S
C682 C681 1.390 . S
C682 C683 1.394 . S
C682 C688 1.465 . S
C683 C678 1.399 . S
C683 C682 1.394 . S
C683 C684 1.516 . S
C684 C683 1.516 . S
C684 C685 1.502 . S
C684 C686 1.561 . S
C684 C687 1.526 . S
C685 H669 0.959 . S
C685 H670 0.959 . S
C685 H671 0.961 . S
C685 C684 1.502 . S
C686 H672 0.960 . S
C686 H673 0.961 . S
C686 H674 0.959 1_554 S
C686 C684 1.561 . S
C687 C684 1.526 . S
C687 C688 1.396 . S
C687 C692 1.390 . S
C688 C682 1.465 . S
C688 C687 1.396 . S
C688 C689 1.399 . S
C689 H675 0.929 . S
C689 C688 1.399 . S
C689 C690 1.385 . S
C690 H676 0.931 . S
C690 C689 1.385 . S
C690 C691 1.389 . S
C691 C690 1.389 . S
C691 C692 1.387 . S
C692 H677 0.930 . S
C692 C687 1.390 . S
C692 C691 1.387 . S
H693 C705 0.930 . S
H694 C707 0.930 . S
H695 C708 0.930 . S
H696 C712 0.959 . S
H697 C712 0.959 . S
H698 C712 0.961 . S
H699 C713 0.960 . S
H700 C713 0.961 . S
H701 C713 0.959 . S
H702 C716 0.929 . S
H703 C717 0.931 . S
H704 C719 0.930 . S
C705 H693 0.930 . S
C705 C706 1.399 . S
C705 C710 1.399 . S
C706 C705 1.399 . S
C706 C707 1.376 . S
C707 H694 0.930 . S
C707 C706 1.376 . S
C707 C708 1.388 . S
C708 H695 0.930 . S
C708 C707 1.388 . S
C708 C709 1.390 . S
C709 C708 1.390 . S
C709 C710 1.394 . S
C709 C715 1.465 . S
C710 C705 1.399 . S
C710 C709 1.394 . S
C710 C711 1.516 . S
C711 C710 1.516 . S
C711 C712 1.502 . S
C711 C713 1.561 . S
C711 C714 1.526 . S
C712 H696 0.959 . S
C712 H697 0.959 . S
C712 H698 0.961 . S
C712 C711 1.502 . S
C713 H699 0.960 . S
C713 H700 0.961 . S
C713 H701 0.959 . S
C713 C711 1.561 . S
C714 C711 1.526 . S
C714 C715 1.396 . S
C714 C719 1.390 . S
C715 C709 1.465 . S
C715 C714 1.396 . S
C715 C716 1.399 . S
C716 H702 0.929 . S
C716 C715 1.399 . S
C716 C717 1.385 . S
C717 H703 0.931 . S
C717 C716 1.385 . S
C717 C718 1.389 . S
C718 C717 1.389 . S
C718 C719 1.387 . S
C719 H704 0.930 . S
C719 C714 1.390 . S
C719 C718 1.387 . S
H720 C732 0.930 1_655 S
H721 C734 0.930 . S
H722 C735 0.930 . S
H723 C739 0.959 . S
H724 C739 0.959 . S
H725 C739 0.961 . S
H726 C740 0.960 . S
H727 C740 0.961 . S
H728 C740 0.959 . S
H729 C743 0.929 . S
H730 C744 0.931 . S
H731 C746 0.930 . S
C732 H720 0.930 1_455 S
C732 C733 1.399 . S
C732 C737 1.399 . S
C733 C732 1.399 . S
C733 C734 1.376 1_556 S
C734 H721 0.930 . S
C734 C733 1.376 1_554 S
C734 C735 1.388 . S
C735 H722 0.930 . S
C735 C734 1.388 . S
C735 C736 1.390 1_554 S
C736 C735 1.390 1_556 S
C736 C737 1.394 . S
C736 C742 1.465 . S
C737 C732 1.399 . S
C737 C736 1.394 . S
C737 C738 1.516 . S
C738 C737 1.516 . S
C738 C739 1.502 1_455 S
C738 C740 1.561 . S
C738 C741 1.526 . S
C739 H723 0.959 . S
C739 H724 0.959 . S
C739 H725 0.961 . S
C739 C738 1.502 1_655 S
C740 H726 0.960 . S
C740 H727 0.961 . S
C740 H728 0.959 . S
C740 C738 1.561 . S
C741 C738 1.526 . S
C741 C742 1.396 . S
C741 C746 1.390 . S
C742 C736 1.465 . S
C742 C741 1.396 . S
C742 C743 1.399 1_556 S
C743 H729 0.929 . S
C743 C742 1.399 1_554 S
C743 C744 1.385 . S
C744 H730 0.931 . S
C744 C743 1.385 . S
C744 C745 1.389 1_554 S
C745 C744 1.389 1_556 S
C745 C746 1.387 . S
C746 H731 0.930 . S
C746 C741 1.390 . S
C746 C745 1.387 . S
H747 C759 0.930 . S
H748 C761 0.930 . S
H749 C762 0.930 . S
H750 C766 0.959 . S
H751 C766 0.959 . S
H752 C766 0.961 . S
H753 C767 0.960 . S
H754 C767 0.961 . S
H755 C767 0.959 . S
H756 C770 0.929 1_556 S
H757 C771 0.931 1_556 S
H758 C773 0.930 . S
C759 H747 0.930 . S
C759 C760 1.399 . S
C759 C764 1.399 . S
C760 C759 1.399 . S
C760 C761 1.376 . S
C761 H748 0.930 . S
C761 C760 1.376 . S
C761 C762 1.388 . S
C762 H749 0.930 . S
C762 C761 1.388 . S
C762 C763 1.390 . S
C763 C762 1.390 . S
C763 C764 1.394 . S
C763 C769 1.465 . S
C764 C759 1.399 . S
C764 C763 1.394 . S
C764 C765 1.516 . S
C765 C764 1.516 . S
C765 C766 1.502 . S
C765 C767 1.561 . S
C765 C768 1.526 . S
C766 H750 0.959 . S
C766 H751 0.959 . S
C766 H752 0.961 . S
C766 C765 1.502 . S
C767 H753 0.960 . S
C767 H754 0.961 . S
C767 H755 0.959 . S
C767 C765 1.561 . S
C768 C765 1.526 . S
C768 C769 1.396 . S
C768 C773 1.390 . S
C769 C763 1.465 . S
C769 C768 1.396 . S
C769 C770 1.399 . S
C770 H756 0.929 1_554 S
C770 C769 1.399 . S
C770 C771 1.385 . S
C771 H757 0.931 1_554 S
C771 C770 1.385 . S
C771 C772 1.389 . S
C772 C771 1.389 . S
C772 C773 1.387 . S
C773 H758 0.930 . S
C773 C768 1.390 . S
C773 C772 1.387 . S
H774 C786 0.930 . S
H775 C788 0.930 . S
H776 C789 0.930 . S
H777 C793 0.959 . S
H778 C793 0.959 . S
H779 C793 0.961 . S
H780 C794 0.960 . S
H781 C794 0.961 . S
H782 C794 0.959 . S
H783 C797 0.929 . S
H784 C798 0.931 . S
H785 C800 0.930 . S
C786 H774 0.930 . S
C786 C787 1.399 . S
C786 C791 1.399 . S
C787 C786 1.399 . S
C787 C788 1.376 . S
C788 H775 0.930 . S
C788 C787 1.376 . S
C788 C789 1.388 . S
C789 H776 0.930 . S
C789 C788 1.388 . S
C789 C790 1.390 . S
C790 C789 1.390 . S
C790 C791 1.394 . S
C790 C796 1.465 . S
C791 C786 1.399 . S
C791 C790 1.394 . S
C791 C792 1.516 . S
C792 C791 1.516 . S
C792 C793 1.502 . S
C792 C794 1.561 . S
C792 C795 1.526 . S
C793 H777 0.959 . S
C793 H778 0.959 . S
C793 H779 0.961 . S
C793 C792 1.502 . S
C794 H780 0.960 . S
C794 H781 0.961 . S
C794 H782 0.959 . S
C794 C792 1.561 . S
C795 C792 1.526 . S
C795 C796 1.396 . S
C795 C800 1.390 . S
C796 C790 1.465 . S
C796 C795 1.396 . S
C796 C797 1.399 . S
C797 H783 0.929 . S
C797 C796 1.399 . S
C797 C798 1.385 . S
C798 H784 0.931 . S
C798 C797 1.385 . S
C798 C799 1.389 . S
C799 C798 1.389 . S
C799 C800 1.387 . S
C800 H785 0.930 . S
C800 C795 1.390 . S
C800 C799 1.387 . S
H801 C813 0.930 . S
H802 C815 0.930 . S
H803 C816 0.930 . S
H804 C820 0.959 . S
H805 C820 0.959 . S
H806 C820 0.961 . S
H807 C821 0.960 . S
H808 C821 0.961 . S
H809 C821 0.959 . S
H810 C824 0.929 . S
H811 C825 0.931 . S
H812 C827 0.930 . S
C813 H801 0.930 . S
C813 C814 1.399 . S
C813 C818 1.399 . S
C814 C813 1.399 . S
C814 C815 1.376 . S
C815 H802 0.930 . S
C815 C814 1.376 . S
C815 C816 1.388 . S
C816 H803 0.930 . S
C816 C815 1.388 . S
C816 C817 1.390 . S
C817 C816 1.390 . S
C817 C818 1.394 . S
C817 C823 1.465 . S
C818 C813 1.399 . S
C818 C817 1.394 . S
C818 C819 1.516 . S
C819 C818 1.516 . S
C819 C820 1.502 . S
C819 C821 1.561 . S
C819 C822 1.526 . S
C820 H804 0.959 . S
C820 H805 0.959 . S
C820 H806 0.961 . S
C820 C819 1.502 . S
C821 H807 0.960 . S
C821 H808 0.961 . S
C821 H809 0.959 . S
C821 C819 1.561 . S
C822 C819 1.526 . S
C822 C823 1.396 . S
C822 C827 1.390 . S
C823 C817 1.465 . S
C823 C822 1.396 . S
C823 C824 1.399 . S
C824 H810 0.929 . S
C824 C823 1.399 . S
C824 C825 1.385 . S
C825 H811 0.931 . S
C825 C824 1.385 . S
C825 C826 1.389 . S
C826 C825 1.389 . S
C826 C827 1.387 . S
C827 H812 0.930 . S
C827 C822 1.390 . S
C827 C826 1.387 . S
C193 C6 1.718 . S
C205 C99 1.637 . S
C220 C18 1.788 . S
C232 C133 1.621 . S
C259 C145 1.369 . S
C247 C28 1.486 . S
C274 C40 1.028 . S
C286 C179 1.018 1_655 S
C313 C136 1.703 . S
C301 C9 1.786 . S
C340 C116 1.406 . S
C328 C16 1.497 . S
C367 C163 1.425 . S
C355 C30 1.519 . S
C394 C154 1.223 . S
C382 C42 1.246 . S
C409 C4 1.527 . S
C421 C162 1.386 . S
C448 C124 1.400 . S
C436 C33 1.572 . S
C463 C45 1.291 . S
C475 C100 1.133 . S
C490 C21 1.765 . S
C502 C157 1.679 . S
C529 C115 1.615 . S
C517 C57 1.778 . S
C544 C66 1.855 . S
C556 C137 1.769 . S
C571 C76 1.641 . S
C583 C142 1.609 . S
C598 C88 1.103 . S
C610 C175 1.014 . S
C625 C54 1.812 . S
C637 C120 1.691 . S
C664 C112 1.480 . S
C652 C64 1.590 . S
C691 C166 1.416 . S
C679 C78 1.496 . S
C718 C158 1.273 . S
C706 C93 1.318 . S
C733 C52 1.509 1_455 S
C745 C178 1.435 . S
C772 C121 1.523 . S
C760 C81 1.667 . S
C799 C103 1.275 . S
C787 C90 1.388 . S
C814 C69 1.786 . S
C826 C141 1.697 . S
