# Generated by pormake.
# Topology anh, (6,3)-cn, num edge types: 1
# Building blocks:
#     Node 0, Type 0, BuildingBlock: GEDQOX_clean_sbu_0, # of connection points: 6
#     Node 1, Type 0, BuildingBlock: GEDQOX_clean_sbu_0, # of connection points: 6
#     Node 2, Type 0, BuildingBlock: GEDQOX_clean_sbu_0, # of connection points: 6
#     Node 3, Type 1, BuildingBlock: QEWDON_clean_linker_0, # of connection points: 3
#     Node 4, Type 1, BuildingBlock: QEWDON_clean_linker_0, # of connection points: 3
#     Node 5, Type 1, BuildingBlock: QEWDON_clean_linker_0, # of connection points: 3
#     Node 6, Type 1, BuildingBlock: QEWDON_clean_linker_0, # of connection points: 3
#     Node 7, Type 1, BuildingBlock: QEWDON_clean_linker_0, # of connection points: 3
#     Node 8, Type 1, BuildingBlock: QEWDON_clean_linker_0, # of connection points: 3
#     Edge 9, Type (0, 1), BuildingBlock: CIFDUS_clean_linker_0, # of connection points: 2
#     Edge 10, Type (0, 1), BuildingBlock: CIFDUS_clean_linker_0, # of connection points: 2
#     Edge 11, Type (0, 1), BuildingBlock: CIFDUS_clean_linker_0, # of connection points: 2
#     Edge 12, Type (0, 1), BuildingBlock: CIFDUS_clean_linker_0, # of connection points: 2
#     Edge 13, Type (0, 1), BuildingBlock: CIFDUS_clean_linker_0, # of connection points: 2
#     Edge 14, Type (0, 1), BuildingBlock: CIFDUS_clean_linker_0, # of connection points: 2
#     Edge 15, Type (0, 1), BuildingBlock: CIFDUS_clean_linker_0, # of connection points: 2
#     Edge 16, Type (0, 1), BuildingBlock: CIFDUS_clean_linker_0, # of connection points: 2
#     Edge 17, Type (0, 1), BuildingBlock: CIFDUS_clean_linker_0, # of connection points: 2
#     Edge 18, Type (0, 1), BuildingBlock: CIFDUS_clean_linker_0, # of connection points: 2
#     Edge 19, Type (0, 1), BuildingBlock: CIFDUS_clean_linker_0, # of connection points: 2
#     Edge 20, Type (0, 1), BuildingBlock: CIFDUS_clean_linker_0, # of connection points: 2
#     Edge 21, Type (0, 1), BuildingBlock: CIFDUS_clean_linker_0, # of connection points: 2
#     Edge 22, Type (0, 1), BuildingBlock: CIFDUS_clean_linker_0, # of connection points: 2
#     Edge 23, Type (0, 1), BuildingBlock: CIFDUS_clean_linker_0, # of connection points: 2
#     Edge 24, Type (0, 1), BuildingBlock: CIFDUS_clean_linker_0, # of connection points: 2
#     Edge 25, Type (0, 1), BuildingBlock: CIFDUS_clean_linker_0, # of connection points: 2
#     Edge 26, Type (0, 1), BuildingBlock: CIFDUS_clean_linker_0, # of connection points: 2
# Relax obj value: 0.151
# Max RMSD: 0.187
# Mean RMSD: 0.124
data_MOF--net-anh--node1-GEDQOX_clean_sbu_0--node2-QEWDON_clean_linker_0--edge1-CIFDUS_clean_linker_0
_symmetry_space_group_name_H-M    P1
_symmetry_Int_Tables_number       1
_symmetry_cell_setting            triclinic
loop_
_symmetry_equiv_pos_as_xyz
'x, y, z'
_cell_length_a     30.234259
_cell_length_b     28.044574
_cell_length_c     42.741473
_cell_angle_alpha  97.794721
_cell_angle_beta   95.499706
_cell_angle_gamma 103.79661
loop_
_atom_site_label
_atom_site_type_symbol
_atom_site_fract_x
_atom_site_fract_y
_atom_site_fract_z
_atom_type_partial_charge
Nd0 Nd 0.10783 0.60152 0.13598 0.0
Nd1 Nd 0.07397 0.48783 0.14437 0.0
C2 C 0.14215 0.68525 0.11509 0.0
C3 C 0.1886 0.71975 0.12235 0.0
C4 C 0.22804 0.7015 0.12154 0.0
C5 C 0.27166 0.73305 0.13231 0.0
C6 C 0.27698 0.78361 0.14422 0.0
C7 C 0.23766 0.80229 0.14388 0.0
C8 C 0.19389 0.7706 0.13311 0.0
C9 C 0.10887 0.5938 0.19995 0.0
C10 C 0.19252 0.53844 0.14278 0.0
C11 C 1.05271 0.40149 0.16504 0.0
C12 C 1.0096 0.36395 0.16712 0.0
C13 C 0.9812 0.37289 0.19033 0.0
C14 C 0.9394 0.33869 0.19105 0.0
C15 C 0.92491 0.29465 0.16864 0.0
C16 C 0.95404 0.28488 0.14614 0.0
C17 C 0.99597 0.31906 0.14546 0.0
C18 C 0.06763 0.50717 0.08343 0.0
C19 C 0.98946 0.5501 0.13479 0.0
O20 O 0.13918 0.64125 0.09894 0.0
O21 O 0.11747 0.68319 0.13863 0.0
O22 O 0.12177 0.6358 0.18985 0.0
O23 O 0.09784 0.55969 0.17631 0.0
O24 O 0.18175 0.58133 0.13868 0.0
O25 O 0.15767 0.49956 0.14656 0.0
O26 O 0.0602 0.44464 0.18348 0.0
O27 O 0.06422 0.40568 0.13654 0.0
O28 O 1.03942 0.46983 0.09191 0.0
O29 O 0.09915 0.52811 0.10578 0.0
O30 O 1.00137 0.51106 0.1454 0.0
O31 O 1.02361 0.58558 0.1265 0.0
H32 H 0.22527 0.6625 0.11338 0.0
H33 H 0.30123 0.71761 0.13174 0.0
H34 H 0.24052 0.84097 0.15313 0.0
H35 H 0.16403 0.78549 0.13416 0.0
H36 H 0.99069 0.40684 0.20761 0.0
H37 H 0.91764 0.34768 0.20848 0.0
H38 H 0.94419 0.25099 0.1288 0.0
H39 H 1.01736 0.31073 0.12761 0.0
Nd40 Nd 0.53622 0.04106 0.5161 0.0
Nd41 Nd 0.63225 0.07469 0.50165 0.0
C42 C 0.4605 1.00233 0.53956 0.0
C43 C 0.42599 0.95413 0.53381 0.0
C44 C 0.43881 0.90894 0.52964 0.0
C45 C 0.40532 0.8638 0.52087 0.0
C46 C 0.35845 0.86309 0.51583 0.0
C47 C 0.34589 0.90846 0.52093 0.0
C48 C 0.37933 0.95344 0.52993 0.0
C49 C 0.54042 0.0434 0.45259 0.0
C50 C 0.59574 0.95619 0.50268 0.0
C51 C 0.70919 0.11394 0.47935 0.0
C52 C 0.73868 0.16398 0.48008 0.0
C53 C 0.77778 0.17014 0.46441 0.0
C54 C 0.80601 0.21773 0.4649 0.0
C55 C 0.79551 0.25991 0.48113 0.0
C56 C 0.75601 0.25339 0.49669 0.0
C57 C 0.72788 0.20583 0.4962 0.0
C58 C 0.62341 0.07581 0.56543 0.0
C59 C 0.57322 0.1595 0.51504 0.0
O60 O 0.5017 1.00356 0.55292 0.0
O61 O 0.46111 0.02809 0.51623 0.0
O62 O 0.50814 0.05443 0.46771 0.0
O63 O 0.56798 0.0279 0.4704 0.0
O64 O 0.56062 0.96771 0.51546 0.0
O65 O 0.62574 0.99036 0.49169 0.0
O66 O 0.66841 0.10421 0.46292 0.0
O67 O 0.70832 0.09761 0.50657 0.0
O68 O 0.65586 0.06081 0.55247 0.0
O69 O 0.59913 0.09054 0.54534 0.0
O70 O 0.60668 0.14718 0.5005 0.0
O71 O 0.54513 0.12592 0.52784 0.0
H72 H 0.47467 0.90853 0.5324 0.0
H73 H 0.4162 0.82957 0.51753 0.0
H74 H 0.31029 0.90958 0.5167 0.0
H75 H 0.36878 0.98793 0.5328 0.0
H76 H 0.78654 0.13811 0.45186 0.0
H77 H 0.83639 0.22145 0.45297 0.0
H78 H 0.74654 0.28512 0.50899 0.0
H79 H 0.69769 0.20171 0.50835 0.0
Nd80 Nd 0.54797 0.52566 0.8213 0.0
Nd81 Nd 0.64605 0.56789 0.82928 0.0
C82 C 0.45925 0.50987 0.80355 0.0
C83 C 0.43136 0.5457 0.79957 0.0
C84 C 0.44035 0.57944 0.77791 0.0
C85 C 0.41853 0.61817 0.77805 0.0
C86 C 0.38818 0.62412 0.80019 0.0
C87 C 0.37798 0.58943 0.82095 0.0
C88 C 0.39915 0.55041 0.8205 0.0
C89 C 0.58742 0.53856 0.88351 0.0
C90 C 0.58855 0.64921 0.82874 0.0
C91 C 0.73542 0.58582 0.84432 0.0
C92 C 0.76797 0.55651 0.83574 0.0
C93 C 0.75801 0.50518 0.83671 0.0
C94 C 0.7892 0.47784 0.8281 0.0
C95 C 0.83104 0.50151 0.81867 0.0
C96 C 0.83974 0.55248 0.81635 0.0
C97 C 0.80845 0.57963 0.82477 0.0
C98 C 0.60734 0.554 0.76713 0.0
C99 C 0.60477 0.44303 0.81886 0.0
O100 O 0.48848 0.50631 0.78323 0.0
O101 O 0.47665 0.51062 0.83287 0.0
O102 O 0.55591 0.49945 0.86946 0.0
O103 O 0.59673 0.57025 0.86507 0.0
O104 O 0.55433 0.60931 0.81786 0.0
O105 O 0.6291 0.64388 0.83959 0.0
O106 O 0.70622 0.56846 0.8633 0.0
O107 O 0.71666 0.60249 0.82071 0.0
O108 O 0.63871 0.59319 0.78095 0.0
O109 O 0.59788 0.52289 0.78585 0.0
O110 O 0.64051 0.48248 0.8263 0.0
O111 O 0.56289 0.44875 0.81324 0.0
H112 H 0.46532 0.57702 0.7616 0.0
H113 H 0.42648 0.64438 0.7617 0.0
H114 H 0.35383 0.59281 0.83778 0.0
H115 H 0.39164 0.52496 0.83737 0.0
H116 H 0.72668 0.48632 0.84479 0.0
H117 H 0.78152 0.43872 0.83015 0.0
H118 H 0.87205 0.57236 0.80993 0.0
H119 H 0.81638 0.61902 0.82343 0.0
H120 H 0.6142 0.0921 0.26486 0.0
C121 C 0.58608 0.06327 0.25094 0.0
C122 C 0.55815 0.02842 0.26625 0.0
C123 C 0.57505 0.06364 0.21822 0.0
H124 H 0.49789 0.96701 0.26036 0.0
C125 C 0.52013 0.99288 0.24836 0.0
C126 C 0.50896 0.99231 0.21567 0.0
C127 C 0.53705 0.02738 0.20077 0.0
C128 C 0.59904 0.105 0.20266 0.0
H129 H 0.52864 0.02727 0.17552 0.0
C130 C 0.64745 0.12098 0.20566 0.0
C131 C 0.66873 0.1587 0.18914 0.0
C132 C 0.57254 0.12848 0.18403 0.0
H133 H 0.53535 0.11777 0.18182 0.0
C134 C 0.5935 0.16625 0.16822 0.0
H135 H 0.6683 0.10315 0.21984 0.0
C136 C 0.64117 0.18113 0.17059 0.0
H137 H 0.65659 0.21077 0.15814 0.0
H138 H 0.57268 0.18404 0.15403 0.0
H139 H 0.59444 0.59311 0.56622 0.0
C140 C 0.59056 0.55454 0.55642 0.0
C141 C 0.58855 0.51988 0.57753 0.0
C142 C 0.58912 0.54023 0.52333 0.0
H143 H 0.58621 0.44383 0.58189 0.0
C144 C 0.58519 0.46987 0.56544 0.0
C145 C 0.58324 0.4533 0.53276 0.0
C146 C 0.5848 0.48867 0.5118 0.0
C147 C 0.59535 0.57954 0.50155 0.0
H148 H 0.58224 0.47539 0.48659 0.0
C149 C 0.58672 0.62767 0.50969 0.0
C150 C 0.59658 0.66473 0.48973 0.0
C151 C 0.61302 0.56998 0.47267 0.0
H152 H 0.62219 0.53554 0.46555 0.0
C153 C 0.62074 0.60525 0.45248 0.0
H154 H 0.57307 0.63694 0.53151 0.0
C155 C 0.61263 0.65181 0.46077 0.0
H156 H 0.61905 0.67789 0.44421 0.0
H157 H 0.63389 0.59663 0.43028 0.0
H158 H 0.15622 0.67047 0.92773 0.0
C159 C 0.13508 0.64058 0.9098 0.0
C160 C 0.11613 0.59376 0.9179 0.0
C161 C 0.12509 0.64979 0.87886 0.0
H162 H 0.07863 0.51856 0.89956 0.0
C163 C 0.09115 0.55506 0.89364 0.0
C164 C 0.07807 0.56422 0.86295 0.0
C165 C 0.09592 0.61223 0.8559 0.0
C166 C 0.14554 0.69854 0.87006 0.0
H167 H 0.08645 0.62163 0.83291 0.0
C168 C 0.19278 0.71224 0.86882 0.0
C169 C 0.2125 0.75396 0.85541 0.0
C170 C 0.11801 0.72847 0.85935 0.0
H171 H 0.08124 0.71816 0.85987 0.0
C172 C 0.13785 0.77132 0.84715 0.0
H173 H 0.21368 0.68796 0.87589 0.0
C174 C 0.18488 0.78359 0.84456 0.0
H175 H 0.19944 0.81523 0.83347 0.0
H176 H 0.11644 0.79403 0.83862 0.0
H177 H 1.02207 0.57779 0.38243 0.0
C178 C 1.0528 0.59788 0.3985 0.0
C179 C 0.09234 0.62101 0.38617 0.0
C180 C 1.05166 0.60477 0.43157 0.0
H181 H 0.16058 0.66908 0.39719 0.0
C182 C 0.13105 0.6496 0.40706 0.0
C183 C 0.13077 0.65595 0.44019 0.0
C184 C 0.09089 0.63293 0.45221 0.0
C185 C 1.00796 0.58941 0.44466 0.0
H186 H 0.08962 0.63814 0.47767 0.0
C187 C 0.9849 0.53895 0.4424 0.0
C188 C 0.94465 0.52542 0.45679 0.0
C189 C 0.99001 0.62622 0.4606 0.0
H190 H 1.0073 0.66529 0.4625 0.0
C191 C 0.94962 0.61305 0.47411 0.0
H192 H 0.99919 0.5105 0.4306 0.0
C193 C 0.92709 0.56306 0.47232 0.0
H194 H 0.89574 0.55382 0.48303 0.0
H195 H 0.93587 0.64168 0.48618 0.0
H196 H 0.60562 0.01603 0.76065 0.0
C197 C 0.60778 0.05384 0.77153 0.0
C198 C 0.61786 0.09199 0.75307 0.0
C199 C 0.59669 0.06361 0.8027 0.0
H200 H 0.62543 0.16984 0.75145 0.0
C201 C 0.61842 0.1409 0.76609 0.0
C202 C 0.6075 0.15262 0.79683 0.0
C203 C 0.59702 0.11378 0.81512 0.0
C204 C 0.57995 0.0209 0.82062 0.0
H205 H 0.58898 0.123 0.83896 0.0
C206 C 0.59378 0.97517 0.81616 0.0
C207 C 0.57415 0.93473 0.83172 0.0
C208 C 0.54686 0.02473 0.84125 0.0
H209 H 0.53362 0.05737 0.8447 0.0
C210 C 0.52874 0.98591 0.85718 0.0
H211 H 0.619 0.97062 0.80044 0.0
C212 C 0.5421 0.94161 0.85253 0.0
H213 H 0.52717 0.91245 0.86549 0.0
H214 H 0.50352 0.98998 0.87302 0.0
H215 H 0.57256 0.54202 0.07895 0.0
C216 C 0.60652 0.54426 0.09065 0.0
C217 C 0.64212 0.54428 0.07154 0.0
C218 C 0.61267 0.54441 0.12355 0.0
H219 H 0.71292 0.546 0.06875 0.0
C220 C 0.68752 0.54703 0.08489 0.0
C221 C 0.70015 0.54704 0.11759 0.0
C222 C 0.66097 0.54488 0.13683 0.0
C223 C 0.56709 0.54012 0.14149 0.0
H224 H 0.66845 0.54408 0.16195 0.0
C225 C 0.52004 0.54589 0.1296 0.0
C226 C 0.47946 0.53719 0.14783 0.0
C227 C 0.57028 0.52697 0.17193 0.0
H228 H 0.60209 0.52147 0.18274 0.0
C229 C 0.53294 0.51928 0.1893 0.0
H230 H 0.51473 0.55655 0.10645 0.0
C231 C 0.48945 0.52393 0.17776 0.0
H232 H 0.46321 0.5179 0.19338 0.0
H233 H 0.53785 0.50912 0.2127 0.0
H234 H 0.27806 0.59797 0.12317 0.0
H235 H 0.23111 0.46598 0.16453 0.0
H236 H 0.30859 0.45356 0.16808 0.0
H237 H 0.39258 0.47848 0.16093 0.0
H238 H 0.44202 0.60785 0.11787 0.0
H239 H 0.36393 0.621 0.11337 0.0
C240 C 0.28408 0.56616 0.13305 0.0
C241 C 0.24508 0.53324 0.14378 0.0
C242 C 0.33102 0.55806 0.13463 0.0
C243 C 0.25732 0.49273 0.15595 0.0
C244 C 0.3029 0.48538 0.15803 0.0
C245 C 0.38726 0.50986 0.15023 0.0
C246 C 0.42693 0.54173 0.13974 0.0
C247 C 0.34059 0.5175 0.1476 0.0
C248 C 0.41511 0.58131 0.12599 0.0
C249 C 0.36925 0.58927 0.12367 0.0
H250 H 0.83584 0.29851 0.43244 0.0
H251 H 0.82295 0.3351 0.532 0.0
H252 H 0.86931 0.4196 0.53337 0.0
H253 H 0.91175 0.48364 0.50616 0.0
H254 H 0.92489 0.44824 0.40664 0.0
H255 H 0.88138 0.3622 0.40562 0.0
C256 C 0.84365 0.3248 0.45452 0.0
C257 C 0.82556 0.31057 0.48201 0.0
C258 C 0.8705 0.37343 0.45518 0.0
C259 C 0.83568 0.3453 0.51036 0.0
C260 C 0.86243 0.39355 0.51122 0.0
C261 C 0.90493 0.45714 0.48419 0.0
C262 C 0.92108 0.4724 0.45643 0.0
C263 C 0.87956 0.40814 0.48372 0.0
C264 C 0.91295 0.43736 0.42835 0.0
C265 C 0.88785 0.38828 0.42772 0.0
H266 H 0.65145 0.74109 0.83233 0.0
H267 H 0.50601 0.67204 0.82303 0.0
H268 H 0.48918 0.75212 0.82058 0.0
H269 H 0.51478 0.84232 0.82234 0.0
H270 H 0.65934 0.914 0.83158 0.0
H271 H 0.67723 0.83297 0.83192 0.0
C272 C 0.6161 0.74361 0.82988 0.0
C273 C 0.58011 0.69992 0.82805 0.0
C274 C 0.60637 0.79052 0.82814 0.0
C275 C 0.53454 0.70438 0.82446 0.0
C276 C 0.52478 0.75046 0.82304 0.0
C277 C 0.55033 0.84043 0.82435 0.0
C278 C 0.58563 0.88481 0.82718 0.0
C279 C 0.5603 0.79379 0.82496 0.0
C280 C 0.63134 0.88086 0.82914 0.0
C281 C 0.64158 0.83439 0.82968 0.0
H282 H 0.90516 0.50435 0.16232 0.0
H283 H 0.94813 0.60569 0.09724 0.0
H284 H 0.86966 0.61432 0.08749 0.0
H285 H 0.78562 0.59389 0.09555 0.0
H286 H 0.74079 0.49687 0.16254 0.0
H287 H 0.81968 0.48752 0.17293 0.0
C288 C 0.89809 0.5286 0.1459 0.0
C289 C 0.93633 0.55399 0.13056 0.0
C290 C 0.85055 0.53478 0.14054 0.0
C291 C 0.92262 0.58507 0.10985 0.0
C292 C 0.87642 0.59017 0.1041 0.0
C293 C 0.79213 0.57052 0.11273 0.0
C294 C 0.7534 0.54631 0.12793 0.0
C295 C 0.83947 0.56538 0.11906 0.0
C296 C 0.76683 0.51711 0.15014 0.0
C297 C 0.8132 0.51131 0.15602 0.0
H298 H 0.27177 0.83397 0.5314 0.0
H299 H 0.36497 0.78626 0.47101 0.0
H300 H 0.30391 0.71417 0.44518 0.0
H301 H 0.22231 0.66945 0.43591 0.0
H302 H 0.1277 0.72267 0.49257 0.0
H303 H 0.19101 0.78721 0.52374 0.0
C304 C 0.27879 0.80785 0.51258 0.0
C305 C 0.32289 0.81599 0.50303 0.0
C306 C 0.24313 0.76737 0.49701 0.0
C307 C 0.33156 0.7809 0.47915 0.0
C308 C 0.2965 0.73981 0.4641 0.0
C309 C 0.2155 0.69512 0.4551 0.0
C310 C 0.17012 0.69117 0.46165 0.0
C311 C 0.25188 0.73345 0.47225 0.0
C312 C 0.1622 0.72416 0.48712 0.0
C313 C 0.19839 0.76156 0.50482 0.0
H314 H 0.54722 0.35509 0.82865 0.0
H315 H 0.68064 0.41511 0.8018 0.0
H316 H 0.69465 0.33236 0.7949 0.0
H317 H 0.66799 0.2417 0.79401 0.0
H318 H 0.53617 0.18103 0.82277 0.0
H319 H 0.52305 0.26453 0.8319 0.0
C320 C 0.57938 0.35005 0.82133 0.0
C321 C 0.61272 0.39175 0.81562 0.0
C322 C 0.58768 0.30192 0.8179 0.0
C323 C 0.65441 0.38422 0.80656 0.0
C324 C 0.66243 0.33664 0.8025 0.0
C325 C 0.63658 0.24676 0.80266 0.0
C326 C 0.60312 0.20465 0.80765 0.0
C327 C 0.62925 0.29509 0.80785 0.0
C328 C 0.56281 0.21241 0.81905 0.0
C329 C 0.55508 0.26029 0.82395 0.0
H330 H 0.54053 0.87139 0.51998 0.0
H331 H 0.66572 0.92249 0.47977 0.0
H332 H 0.67793 0.83941 0.47455 0.0
H333 H 0.6535 0.7518 0.48008 0.0
H334 H 0.52761 0.69708 0.51824 0.0
H335 H 0.51622 0.78157 0.52631 0.0
C336 C 0.5705 0.86444 0.51009 0.0
C337 C 0.60197 0.90401 0.50016 0.0
C338 C 0.57753 0.81563 0.50695 0.0
C339 C 0.64063 0.89354 0.48754 0.0
C340 C 0.64781 0.84571 0.48456 0.0
C341 C 0.62324 0.75792 0.49 0.0
C342 C 0.59121 0.7172 0.4981 0.0
C343 C 0.61646 0.80641 0.49396 0.0
C344 C 0.55311 0.72711 0.51183 0.0
C345 C 0.54637 0.77561 0.5162 0.0
H346 H 0.89515 0.50645 0.77731 0.0
H347 H 0.8544 0.44268 0.85979 0.0
H348 H 0.93289 0.44163 0.8763 0.0
H349 H 1.01086 0.4876 0.87787 0.0
H350 H 1.05549 0.55479 0.79703 0.0
H351 H 0.97728 0.52594 0.76966 0.0
C352 C 0.90331 0.49053 0.79821 0.0
C353 C 0.86959 0.4774 0.81825 0.0
C354 C 0.94925 0.49294 0.80878 0.0
C355 C 0.87982 0.45439 0.84431 0.0
C356 C 0.92505 0.45445 0.85411 0.0
C357 C 1.00519 0.49491 0.85385 0.0
C358 C 1.03902 0.52797 0.84108 0.0
C359 C 0.96024 0.47837 0.83825 0.0
C360 C 1.02953 0.53348 0.80897 0.0
C361 C 0.98474 0.51641 0.79299 0.0
H362 H 0.31523 0.87957 0.13718 0.0
H363 H 0.34227 0.76018 0.18366 0.0
H364 H 0.41701 0.81306 0.2085 0.0
H365 H 0.47395 0.89406 0.21846 0.0
H366 H 0.44614 0.01427 0.17323 0.0
H367 H 0.37291 0.96025 0.1464 0.0
C368 C 0.33742 0.8652 0.15283 0.0
C369 C 0.32306 0.81592 0.15847 0.0
C370 C 0.3804 0.89595 0.16725 0.0
C371 C 0.3526 0.79772 0.17851 0.0
C372 C 0.3953 0.82804 0.19292 0.0
C373 C 0.45184 0.90844 0.20276 0.0
C374 C 0.46569 0.95816 0.19788 0.0
C375 C 0.40945 0.87732 0.18764 0.0
C376 C 0.43679 0.97598 0.1771 0.0
C377 C 0.39465 0.94521 0.16193 0.0
H378 H 0.619 0.23997 0.48882 0.0
H379 H 0.51608 0.19855 0.55047 0.0
H380 H 0.50795 0.28336 0.55923 0.0
H381 H 0.5313 0.37044 0.55141 0.0
H382 H 0.63374 0.41419 0.49015 0.0
H383 H 0.63981 0.32794 0.47876 0.0
C384 C 0.59466 0.2494 0.50408 0.0
C385 C 0.56837 0.21218 0.51903 0.0
C386 C 0.58973 0.29899 0.50901 0.0
C387 C 0.53693 0.22571 0.53858 0.0
C388 C 0.53215 0.27452 0.54366 0.0
C389 C 0.55484 0.36123 0.53539 0.0
C390 C 0.58216 0.39938 0.52183 0.0
C391 C 0.55854 0.31159 0.52925 0.0
C392 C 0.61191 0.38599 0.50077 0.0
C393 C 0.61572 0.33654 0.49449 0.0
H394 H 0.39165 0.69237 0.85161 0.0
H395 H 0.33464 0.64754 0.75272 0.0
H396 H 0.28067 0.69962 0.75987 0.0
H397 H 0.23809 0.73922 0.79734 0.0
H398 H 0.29072 0.77605 0.89721 0.0
H399 H 0.3591 0.74766 0.88672 0.0
C400 C 0.36825 0.69537 0.8315 0.0
C401 C 0.36602 0.66564 0.80193 0.0
C402 C 0.33649 0.72383 0.83614 0.0
C403 C 0.33642 0.67 0.77575 0.0
C404 C 0.30545 0.69946 0.77991 0.0
C405 C 0.26577 0.74335 0.81644 0.0
C406 C 0.25972 0.75931 0.84795 0.0
C407 C 0.30341 0.72405 0.81042 0.0
C408 C 0.29513 0.76399 0.87279 0.0
C409 C 0.33377 0.74706 0.86683 0.0
H410 H 0.88083 0.26403 0.21834 0.0
H411 H 0.86357 0.25033 0.11579 0.0
H412 H 0.78431 0.20232 0.11309 0.0
H413 H 0.71791 0.17065 0.13986 0.0
H414 H 0.73318 0.18565 0.24227 0.0
H415 H 0.81523 0.22613 0.24506 0.0
C416 C 0.85975 0.25033 0.19541 0.0
C417 C 0.87819 0.26108 0.16732 0.0
C418 C 0.81379 0.22307 0.19401 0.0
C419 C 0.85057 0.24231 0.13776 0.0
C420 C 0.80505 0.2151 0.13619 0.0
C421 C 0.73934 0.18241 0.16278 0.0
C422 C 0.71949 0.17574 0.19085 0.0
C423 C 0.78607 0.20619 0.16416 0.0
C424 C 0.74772 0.1903 0.22035 0.0
C425 C 0.79451 0.21379 0.22193 0.0
H426 H 0.0726 0.59092 0.05896 0.0
H427 H 0.07511 0.43768 0.03483 0.0
H428 H 0.0969 0.45252 0.98244 0.0
H429 H 0.11731 0.50995 0.94461 0.0
H430 H 0.10948 0.66243 0.96809 0.0
H431 H 0.09213 0.64822 0.02085 0.0
C432 C 0.07836 0.56108 0.04222 0.0
C433 C 0.07272 0.51358 0.05045 0.0
C434 C 0.09147 0.57018 0.01259 0.0
C435 C 0.07872 0.47444 0.02853 0.0
C436 C 0.09181 0.48312 -0.00111 0.0
C437 C 0.11148 0.54013 0.96104 0.0
C438 C 0.11455 0.58717 0.9519 0.0
C439 C 0.0987 0.53102 -0.00919 0.0
C440 C 0.10836 0.62603 0.97427 0.0
C441 C 0.09744 0.61774 0.00438 0.0
H442 H 0.60812 0.03523 0.41488 0.0
H443 H 0.46741 0.04494 0.41182 0.0
H444 H 0.46107 0.04154 0.35447 0.0
H445 H 0.49465 0.03617 0.30507 0.0
H446 H 0.63581 0.03032 0.3062 0.0
H447 H 0.64325 0.0328 0.3643 0.0
C448 C 0.57619 0.03652 0.40155 0.0
C449 C 0.53825 0.0401 0.41762 0.0
C450 C 0.57292 0.0356 0.36826 0.0
C451 C 0.49714 0.04214 0.40011 0.0
C452 C 0.4934 0.04024 0.36725 0.0
C453 C 0.52702 0.03524 0.31804 0.0
C454 C 0.56444 0.03243 0.30147 0.0
C455 C 0.53097 0.03703 0.35112 0.0
C456 C 0.60651 0.03238 0.31856 0.0
C457 C 0.61065 0.03358 0.35169 0.0
H458 H 0.64135 0.60948 0.72385 0.0
H459 H 0.5448 0.47265 0.73221 0.0
H460 H 0.52774 0.45181 0.674 0.0
H461 H 0.5432 0.47095 0.62094 0.0
H462 H 0.64458 0.60511 0.61346 0.0
H463 H 0.65594 0.62906 0.67114 0.0
C464 C 0.61634 0.57521 0.71295 0.0
C465 C 0.5945 0.54248 0.73222 0.0
C466 C 0.60749 0.56312 0.67964 0.0
C467 C 0.56216 0.49829 0.71781 0.0
C468 C 0.55247 0.4864 0.68457 0.0
C469 C 0.56795 0.50535 0.63189 0.0
C470 C 0.59296 0.53609 0.61267 0.0
C471 C 0.57547 0.51822 0.66526 0.0
C472 C 0.62421 0.58101 0.6274 0.0
C473 C 0.63112 0.59456 0.66049 0.0
H474 H 0.66837 0.04219 0.6136 0.0
H475 H 0.56313 0.11841 0.59353 0.0
H476 H 0.55139 0.1283 0.6492 0.0
H477 H 0.57165 0.11752 0.70378 0.0
H478 H 0.67542 0.04084 0.72575 0.0
H479 H 0.68666 0.02815 0.66927 0.0
C480 C 0.64293 0.06088 0.62153 0.0
C481 C 0.61696 0.0799 0.59947 0.0
C482 C 0.63597 0.06624 0.65389 0.0
C483 C 0.58376 0.10363 0.60997 0.0
C484 C 0.57694 0.10932 0.64185 0.0
C485 C 0.59684 0.09812 0.69621 0.0
C486 C 0.62313 0.08074 0.71885 0.0
C487 C 0.603 0.09114 0.66401 0.0
C488 C 0.65486 0.05464 0.70867 0.0
C489 C 0.6614 0.04762 0.67645 0.0
H490 H 0.55888 0.47956 0.92643 0.0
H491 H 0.65508 0.61649 0.91809 0.0
H492 H 0.68247 0.62976 0.97536 0.0
H493 H 0.67746 0.6028 0.02849 0.0
H494 H 0.57859 0.46701 0.03562 0.0
H495 H 0.55402 0.45283 0.97833 0.0
C496 C 0.58591 0.51232 0.93709 0.0
C497 C 0.60482 0.54705 0.91803 0.0
C498 C 0.60101 0.51988 0.96994 0.0
C499 C 0.63981 0.58928 0.93227 0.0
C500 C 0.65551 0.59683 0.96502 0.0
C501 C 0.65078 0.57004 0.01733 0.0
C502 C 0.62973 0.53605 0.03627 0.0
C503 C 0.6362 0.56245 0.98419 0.0
C504 C 0.59503 0.49385 0.02159 0.0
C505 C 0.58099 0.48569 0.98883 0.0
H506 H 0.10762 0.66685 0.24713 0.0
H507 H 0.10098 0.51045 0.2282 0.0
H508 H 0.09122 0.50352 0.2838 0.0
H509 H 0.08707 0.5435 0.33868 0.0
H510 H 0.09767 0.70102 0.35705 0.0
H511 H 0.10329 0.70627 0.30091 0.0
C512 C 0.10404 0.63122 0.25518 0.0
C513 C 0.10416 0.58892 0.23351 0.0
C514 C 0.09913 0.62792 0.28715 0.0
C515 C 0.09962 0.5431 0.24424 0.0
C516 C 0.09447 0.53932 0.27611 0.0
C517 C 0.09011 0.57867 0.33012 0.0
C518 C 0.09184 0.62183 0.35168 0.0
C519 C 0.0942 0.58155 0.29783 0.0
C520 C 0.09628 0.66745 0.34068 0.0
C521 C 0.09961 0.67047 0.30869 0.0
loop_
_geom_bond_atom_site_label_1
_geom_bond_atom_site_label_2
_geom_bond_distance
_geom_bond_site_symmetry_2
_ccdc_geom_bond_type
Nd0 C2 2.836 . S
Nd0 O20 2.500 . S
Nd0 O21 2.492 . S
Nd0 O22 2.487 . S
Nd0 O23 2.682 . S
Nd0 O24 2.410 . S
Nd0 O29 2.414 . S
Nd0 O31 2.424 1_455 S
Nd1 C11 2.836 1_455 S
Nd1 O23 2.414 . S
Nd1 O25 2.424 . S
Nd1 O26 2.500 1_455 S
Nd1 O27 2.492 1_455 S
Nd1 O28 2.487 . S
Nd1 O29 2.682 . S
Nd1 O30 2.410 1_455 S
C2 Nd0 2.836 . S
C2 C3 1.498 . S
C2 O20 1.258 . S
C2 O21 1.239 . S
C3 C2 1.498 . S
C3 C4 1.366 . S
C3 C8 1.407 . S
C4 C3 1.366 . S
C4 C5 1.392 . S
C4 H32 0.930 . S
C5 C4 1.392 . S
C5 C6 1.398 . S
C5 H33 0.929 . S
C6 C5 1.398 . S
C6 C7 1.352 . S
C7 C6 1.352 . S
C7 C8 1.384 . S
C7 H34 0.930 . S
C8 C3 1.407 . S
C8 C7 1.384 . S
C8 H35 0.929 . S
C9 O22 1.241 . S
C9 O23 1.273 . S
C10 O24 1.251 . S
C10 O25 1.268 . S
C11 Nd1 2.836 1_655 S
C11 C12 1.498 . S
C11 O26 1.258 . S
C11 O27 1.239 . S
C12 C11 1.498 . S
C12 C13 1.366 . S
C12 C17 1.407 . S
C13 C12 1.366 . S
C13 C14 1.392 . S
C13 H36 0.930 . S
C14 C13 1.392 . S
C14 C15 1.398 . S
C14 H37 0.929 . S
C15 C14 1.398 . S
C15 C16 1.352 . S
C16 C15 1.352 . S
C16 C17 1.384 . S
C16 H38 0.930 . S
C17 C12 1.407 . S
C17 C16 1.384 . S
C17 H39 0.929 . S
C18 O28 1.241 . S
C18 O29 1.273 . S
C19 O30 1.251 . S
C19 O31 1.268 . S
O20 Nd0 2.500 . S
O20 C2 1.258 . S
O21 Nd0 2.492 . S
O21 C2 1.239 . S
O22 Nd0 2.487 . S
O22 C9 1.241 . S
O23 Nd0 2.682 . S
O23 Nd1 2.414 . S
O23 C9 1.273 . S
O24 Nd0 2.410 . S
O24 C10 1.251 . S
O25 Nd1 2.424 . S
O25 C10 1.268 . S
O26 Nd1 2.500 1_655 S
O26 C11 1.258 . S
O27 Nd1 2.492 1_655 S
O27 C11 1.239 . S
O28 Nd1 2.487 . S
O28 C18 1.241 . S
O29 Nd0 2.414 . S
O29 Nd1 2.682 . S
O29 C18 1.273 . S
O30 Nd1 2.410 1_655 S
O30 C19 1.251 . S
O31 Nd0 2.424 1_655 S
O31 C19 1.268 . S
H32 C4 0.930 . S
H33 C5 0.929 . S
H34 C7 0.930 . S
H35 C8 0.929 . S
H36 C13 0.930 . S
H37 C14 0.929 . S
H38 C16 0.930 . S
H39 C17 0.929 . S
Nd40 C42 2.836 1_545 S
Nd40 O60 2.500 1_545 S
Nd40 O61 2.492 1_545 S
Nd40 O62 2.487 . S
Nd40 O63 2.682 . S
Nd40 O64 2.410 1_545 S
Nd40 O69 2.414 . S
Nd40 O71 2.424 . S
Nd41 C51 2.836 . S
Nd41 O63 2.414 . S
Nd41 O65 2.424 1_545 S
Nd41 O66 2.500 . S
Nd41 O67 2.492 . S
Nd41 O68 2.487 . S
Nd41 O69 2.682 . S
Nd41 O70 2.410 . S
C42 Nd40 2.836 1_565 S
C42 C43 1.498 . S
C42 O60 1.258 . S
C42 O61 1.239 . S
C43 C42 1.498 . S
C43 C44 1.366 . S
C43 C48 1.407 . S
C44 C43 1.366 . S
C44 C45 1.392 . S
C44 H72 0.930 . S
C45 C44 1.392 . S
C45 C46 1.398 . S
C45 H73 0.929 . S
C46 C45 1.398 . S
C46 C47 1.352 . S
C47 C46 1.352 . S
C47 C48 1.384 . S
C47 H74 0.930 . S
C48 C43 1.407 . S
C48 C47 1.384 . S
C48 H75 0.929 . S
C49 O62 1.241 . S
C49 O63 1.273 . S
C50 O64 1.251 . S
C50 O65 1.268 . S
C51 Nd41 2.836 . S
C51 C52 1.498 . S
C51 O66 1.258 . S
C51 O67 1.239 . S
C52 C51 1.498 . S
C52 C53 1.366 . S
C52 C57 1.407 . S
C53 C52 1.366 . S
C53 C54 1.392 . S
C53 H76 0.930 . S
C54 C53 1.392 . S
C54 C55 1.398 . S
C54 H77 0.929 . S
C55 C54 1.398 . S
C55 C56 1.352 . S
C56 C55 1.352 . S
C56 C57 1.384 . S
C56 H78 0.930 . S
C57 C52 1.407 . S
C57 C56 1.384 . S
C57 H79 0.929 . S
C58 O68 1.241 . S
C58 O69 1.273 . S
C59 O70 1.251 . S
C59 O71 1.268 . S
O60 Nd40 2.500 1_565 S
O60 C42 1.258 . S
O61 Nd40 2.492 1_565 S
O61 C42 1.239 . S
O62 Nd40 2.487 . S
O62 C49 1.241 . S
O63 Nd40 2.682 . S
O63 Nd41 2.414 . S
O63 C49 1.273 . S
O64 Nd40 2.410 1_565 S
O64 C50 1.251 . S
O65 Nd41 2.424 1_565 S
O65 C50 1.268 . S
O66 Nd41 2.500 . S
O66 C51 1.258 . S
O67 Nd41 2.492 . S
O67 C51 1.239 . S
O68 Nd41 2.487 . S
O68 C58 1.241 . S
O69 Nd40 2.414 . S
O69 Nd41 2.682 . S
O69 C58 1.273 . S
O70 Nd41 2.410 . S
O70 C59 1.251 . S
O71 Nd40 2.424 . S
O71 C59 1.268 . S
H72 C44 0.930 . S
H73 C45 0.929 . S
H74 C47 0.930 . S
H75 C48 0.929 . S
H76 C53 0.930 . S
H77 C54 0.929 . S
H78 C56 0.930 . S
H79 C57 0.929 . S
Nd80 C82 2.836 . S
Nd80 O100 2.500 . S
Nd80 O101 2.492 . S
Nd80 O102 2.487 . S
Nd80 O103 2.682 . S
Nd80 O104 2.410 . S
Nd80 O109 2.414 . S
Nd80 O111 2.424 . S
Nd81 C91 2.836 . S
Nd81 O103 2.414 . S
Nd81 O105 2.424 . S
Nd81 O106 2.500 . S
Nd81 O107 2.492 . S
Nd81 O108 2.487 . S
Nd81 O109 2.682 . S
Nd81 O110 2.410 . S
C82 Nd80 2.836 . S
C82 C83 1.498 . S
C82 O100 1.258 . S
C82 O101 1.239 . S
C83 C82 1.498 . S
C83 C84 1.366 . S
C83 C88 1.407 . S
C84 C83 1.366 . S
C84 C85 1.392 . S
C84 H112 0.930 . S
C85 C84 1.392 . S
C85 C86 1.398 . S
C85 H113 0.929 . S
C86 C85 1.398 . S
C86 C87 1.352 . S
C87 C86 1.352 . S
C87 C88 1.384 . S
C87 H114 0.930 . S
C88 C83 1.407 . S
C88 C87 1.384 . S
C88 H115 0.929 . S
C89 O102 1.241 . S
C89 O103 1.273 . S
C90 O104 1.251 . S
C90 O105 1.268 . S
C91 Nd81 2.836 . S
C91 C92 1.498 . S
C91 O106 1.258 . S
C91 O107 1.239 . S
C92 C91 1.498 . S
C92 C93 1.366 . S
C92 C97 1.407 . S
C93 C92 1.366 . S
C93 C94 1.392 . S
C93 H116 0.930 . S
C94 C93 1.392 . S
C94 C95 1.398 . S
C94 H117 0.929 . S
C95 C94 1.398 . S
C95 C96 1.352 . S
C96 C95 1.352 . S
C96 C97 1.384 . S
C96 H118 0.930 . S
C97 C92 1.407 . S
C97 C96 1.384 . S
C97 H119 0.929 . S
C98 O108 1.241 . S
C98 O109 1.273 . S
C99 O110 1.251 . S
C99 O111 1.268 . S
O100 Nd80 2.500 . S
O100 C82 1.258 . S
O101 Nd80 2.492 . S
O101 C82 1.239 . S
O102 Nd80 2.487 . S
O102 C89 1.241 . S
O103 Nd80 2.682 . S
O103 Nd81 2.414 . S
O103 C89 1.273 . S
O104 Nd80 2.410 . S
O104 C90 1.251 . S
O105 Nd81 2.424 . S
O105 C90 1.268 . S
O106 Nd81 2.500 . S
O106 C91 1.258 . S
O107 Nd81 2.492 . S
O107 C91 1.239 . S
O108 Nd81 2.487 . S
O108 C98 1.241 . S
O109 Nd80 2.414 . S
O109 Nd81 2.682 . S
O109 C98 1.273 . S
O110 Nd81 2.410 . S
O110 C99 1.251 . S
O111 Nd80 2.424 . S
O111 C99 1.268 . S
H112 C84 0.930 . S
H113 C85 0.929 . S
H114 C87 0.930 . S
H115 C88 0.929 . S
H116 C93 0.930 . S
H117 C94 0.929 . S
H118 C96 0.930 . S
H119 C97 0.929 . S
H120 C121 0.949 . S
C121 H120 0.949 . S
C121 C122 1.395 . S
C121 C123 1.391 . S
C122 C121 1.395 . S
C122 C125 1.390 . S
C123 C121 1.391 . S
C123 C127 1.387 . S
C123 C128 1.491 . S
H124 C125 0.950 1_565 S
C125 C122 1.390 . S
C125 H124 0.950 1_545 S
C125 C126 1.378 . S
C126 C125 1.378 . S
C126 C127 1.409 . S
C127 C123 1.387 . S
C127 C126 1.409 . S
C127 H129 0.951 . S
C128 C123 1.491 . S
C128 C130 1.382 . S
C128 C132 1.404 . S
H129 C127 0.951 . S
C130 C128 1.382 . S
C130 C131 1.390 . S
C130 H135 0.949 . S
C131 C130 1.390 . S
C131 C136 1.399 . S
C132 C128 1.404 . S
C132 H133 0.950 . S
C132 C134 1.375 . S
H133 C132 0.950 . S
C134 C132 1.375 . S
C134 C136 1.382 . S
C134 H138 0.950 . S
H135 C130 0.949 . S
C136 C131 1.399 . S
C136 C134 1.382 . S
C136 H137 0.952 . S
H137 C136 0.952 . S
H138 C134 0.950 . S
H139 C140 0.949 . S
C140 H139 0.949 . S
C140 C141 1.395 . S
C140 C142 1.391 . S
C141 C140 1.395 . S
C141 C144 1.390 . S
C142 C140 1.391 . S
C142 C146 1.387 . S
C142 C147 1.491 . S
H143 C144 0.950 . S
C144 C141 1.390 . S
C144 H143 0.950 . S
C144 C145 1.378 . S
C145 C144 1.378 . S
C145 C146 1.409 . S
C146 C142 1.387 . S
C146 C145 1.409 . S
C146 H148 0.951 . S
C147 C142 1.491 . S
C147 C149 1.382 . S
C147 C151 1.404 . S
H148 C146 0.951 . S
C149 C147 1.382 . S
C149 C150 1.390 . S
C149 H154 0.949 . S
C150 C149 1.390 . S
C150 C155 1.399 . S
C151 C147 1.404 . S
C151 H152 0.950 . S
C151 C153 1.375 . S
H152 C151 0.950 . S
C153 C151 1.375 . S
C153 C155 1.382 . S
C153 H157 0.950 . S
H154 C149 0.949 . S
C155 C150 1.399 . S
C155 C153 1.382 . S
C155 H156 0.952 . S
H156 C155 0.952 . S
H157 C153 0.950 . S
H158 C159 0.949 . S
C159 H158 0.949 . S
C159 C160 1.395 . S
C159 C161 1.391 . S
C160 C159 1.395 . S
C160 C163 1.374 1_455 S
C161 C159 1.391 . S
C161 C165 1.387 . S
C161 C166 1.491 . S
H162 C163 0.964 . S
C163 C160 1.374 1_655 S
C163 H162 0.964 . S
C163 C164 1.380 . S
C164 C163 1.380 . S
C164 C165 1.409 1_655 S
C165 C161 1.387 . S
C165 C164 1.409 1_455 S
C165 H167 0.951 . S
C166 C161 1.491 . S
C166 C168 1.382 . S
C166 C170 1.404 . S
H167 C165 0.951 . S
C168 C166 1.382 . S
C168 C169 1.390 . S
C168 H173 0.949 . S
C169 C168 1.390 . S
C169 C174 1.399 . S
C170 C166 1.404 . S
C170 H171 0.950 . S
C170 C172 1.375 . S
H171 C170 0.950 . S
C172 C170 1.375 . S
C172 C174 1.382 . S
C172 H176 0.950 . S
H173 C168 0.949 . S
C174 C169 1.399 . S
C174 C172 1.382 . S
C174 H175 0.952 . S
H175 C174 0.952 . S
H176 C172 0.950 . S
H177 C178 0.937 1_655 S
C178 H177 0.937 1_455 S
C178 C179 1.407 . S
C178 C180 1.391 . S
C179 C178 1.407 . S
C179 C182 1.390 . S
C180 C178 1.391 . S
C180 C184 1.387 . S
C180 C185 1.491 1_455 S
H181 C182 0.950 . S
C182 C179 1.390 . S
C182 H181 0.950 . S
C182 C183 1.378 . S
C183 C182 1.378 . S
C183 C184 1.409 . S
C184 C180 1.387 . S
C184 C183 1.409 . S
C184 H186 0.951 . S
C185 C180 1.491 1_655 S
C185 C187 1.382 . S
C185 C189 1.404 . S
H186 C184 0.951 . S
C187 C185 1.382 . S
C187 C188 1.390 . S
C187 H192 0.949 . S
C188 C187 1.390 . S
C188 C193 1.399 . S
C189 C185 1.404 . S
C189 H190 0.950 . S
C189 C191 1.375 . S
H190 C189 0.950 . S
C191 C189 1.375 . S
C191 C193 1.382 . S
C191 H195 0.950 . S
H192 C187 0.949 . S
C193 C188 1.399 . S
C193 C191 1.382 . S
C193 H194 0.952 . S
H194 C193 0.952 . S
H195 C191 0.950 . S
H196 C197 0.949 1_565 S
C197 H196 0.949 1_545 S
C197 C198 1.395 . S
C197 C199 1.391 . S
C198 C197 1.395 . S
C198 C201 1.390 . S
C199 C197 1.391 . S
C199 C203 1.387 . S
C199 C204 1.491 1_545 S
H200 C201 0.950 . S
C201 C198 1.390 . S
C201 H200 0.950 . S
C201 C202 1.378 . S
C202 C201 1.378 . S
C202 C203 1.409 . S
C203 C199 1.387 . S
C203 C202 1.409 . S
C203 H205 0.951 . S
C204 C199 1.491 1_565 S
C204 C206 1.382 . S
C204 C208 1.404 . S
H205 C203 0.951 . S
C206 C204 1.382 . S
C206 C207 1.390 . S
C206 H211 0.949 . S
C207 C206 1.390 . S
C207 C212 1.399 . S
C208 C204 1.404 . S
C208 H209 0.950 1_565 S
C208 C210 1.375 . S
H209 C208 0.950 1_545 S
C210 C208 1.375 . S
C210 C212 1.382 . S
C210 H214 0.950 . S
H211 C206 0.949 . S
C212 C207 1.399 . S
C212 C210 1.382 . S
C212 H213 0.952 . S
H213 C212 0.952 . S
H214 C210 0.950 . S
H215 C216 0.949 . S
C216 H215 0.949 . S
C216 C217 1.395 . S
C216 C218 1.391 . S
C217 C216 1.395 . S
C217 C220 1.390 . S
C218 C216 1.391 . S
C218 C222 1.387 . S
C218 C223 1.491 . S
H219 C220 0.950 . S
C220 C217 1.390 . S
C220 H219 0.950 . S
C220 C221 1.378 . S
C221 C220 1.378 . S
C221 C222 1.409 . S
C222 C218 1.387 . S
C222 C221 1.409 . S
C222 H224 0.951 . S
C223 C218 1.491 . S
C223 C225 1.382 . S
C223 C227 1.404 . S
H224 C222 0.951 . S
C225 C223 1.382 . S
C225 C226 1.390 . S
C225 H230 0.949 . S
C226 C225 1.390 . S
C226 C231 1.399 . S
C227 C223 1.404 . S
C227 H228 0.950 . S
C227 C229 1.375 . S
H228 C227 0.950 . S
C229 C227 1.375 . S
C229 C231 1.382 . S
C229 H233 0.950 . S
H230 C225 0.949 . S
C231 C226 1.399 . S
C231 C229 1.382 . S
C231 H232 0.952 . S
H232 C231 0.952 . S
H233 C229 0.950 . S
H234 C240 0.930 . S
H235 C243 0.930 . S
H236 C244 0.930 . S
H237 C245 0.930 . S
H238 C248 0.930 . S
H239 C249 0.930 . S
C240 H234 0.930 . S
C240 C241 1.355 . S
C240 C242 1.415 . S
C241 C240 1.355 . S
C241 C243 1.419 . S
C242 C240 1.415 . S
C242 C247 1.425 . S
C242 C249 1.409 . S
C243 H235 0.930 . S
C243 C241 1.419 . S
C243 C244 1.362 . S
C244 H236 0.930 . S
C244 C243 1.362 . S
C244 C247 1.409 . S
C245 H237 0.930 . S
C245 C246 1.355 . S
C245 C247 1.415 . S
C246 C245 1.355 . S
C246 C248 1.419 . S
C247 C242 1.425 . S
C247 C244 1.409 . S
C247 C245 1.415 . S
C248 H238 0.930 . S
C248 C246 1.419 . S
C248 C249 1.362 . S
C249 H239 0.930 . S
C249 C242 1.409 . S
C249 C248 1.362 . S
H250 C256 0.930 . S
H251 C259 0.930 . S
H252 C260 0.930 . S
H253 C261 0.930 . S
H254 C264 0.930 . S
H255 C265 0.930 . S
C256 H250 0.930 . S
C256 C257 1.355 . S
C256 C258 1.415 . S
C257 C256 1.355 . S
C257 C259 1.419 . S
C258 C256 1.415 . S
C258 C263 1.425 . S
C258 C265 1.409 . S
C259 H251 0.930 . S
C259 C257 1.419 . S
C259 C260 1.362 . S
C260 H252 0.930 . S
C260 C259 1.362 . S
C260 C263 1.409 . S
C261 H253 0.930 . S
C261 C262 1.355 . S
C261 C263 1.415 . S
C262 C261 1.355 . S
C262 C264 1.419 . S
C263 C258 1.425 . S
C263 C260 1.409 . S
C263 C261 1.415 . S
C264 H254 0.930 . S
C264 C262 1.419 . S
C264 C265 1.362 . S
C265 H255 0.930 . S
C265 C258 1.409 . S
C265 C264 1.362 . S
H266 C272 0.930 . S
H267 C275 0.930 . S
H268 C276 0.930 . S
H269 C277 0.930 . S
H270 C280 0.930 . S
H271 C281 0.930 . S
C272 H266 0.930 . S
C272 C273 1.355 . S
C272 C274 1.415 . S
C273 C272 1.355 . S
C273 C275 1.419 . S
C274 C272 1.415 . S
C274 C279 1.425 . S
C274 C281 1.409 . S
C275 H267 0.930 . S
C275 C273 1.419 . S
C275 C276 1.362 . S
C276 H268 0.930 . S
C276 C275 1.362 . S
C276 C279 1.409 . S
C277 H269 0.930 . S
C277 C278 1.355 . S
C277 C279 1.415 . S
C278 C277 1.355 . S
C278 C280 1.419 . S
C279 C274 1.425 . S
C279 C276 1.409 . S
C279 C277 1.415 . S
C280 H270 0.930 . S
C280 C278 1.419 . S
C280 C281 1.362 . S
C281 H271 0.930 . S
C281 C274 1.409 . S
C281 C280 1.362 . S
H282 C288 0.930 . S
H283 C291 0.930 . S
H284 C292 0.930 . S
H285 C293 0.930 . S
H286 C296 0.930 . S
H287 C297 0.930 . S
C288 H282 0.930 . S
C288 C289 1.355 . S
C288 C290 1.415 . S
C289 C288 1.355 . S
C289 C291 1.419 . S
C290 C288 1.415 . S
C290 C295 1.425 . S
C290 C297 1.409 . S
C291 H283 0.930 . S
C291 C289 1.419 . S
C291 C292 1.362 . S
C292 H284 0.930 . S
C292 C291 1.362 . S
C292 C295 1.409 . S
C293 H285 0.930 . S
C293 C294 1.355 . S
C293 C295 1.415 . S
C294 C293 1.355 . S
C294 C296 1.419 . S
C295 C290 1.425 . S
C295 C292 1.409 . S
C295 C293 1.415 . S
C296 H286 0.930 . S
C296 C294 1.419 . S
C296 C297 1.362 . S
C297 H287 0.930 . S
C297 C290 1.409 . S
C297 C296 1.362 . S
H298 C304 0.930 . S
H299 C307 0.930 . S
H300 C308 0.930 . S
H301 C309 0.930 . S
H302 C312 0.930 . S
H303 C313 0.930 . S
C304 H298 0.930 . S
C304 C305 1.355 . S
C304 C306 1.415 . S
C305 C304 1.355 . S
C305 C307 1.419 . S
C306 C304 1.415 . S
C306 C311 1.425 . S
C306 C313 1.409 . S
C307 H299 0.930 . S
C307 C305 1.419 . S
C307 C308 1.362 . S
C308 H300 0.930 . S
C308 C307 1.362 . S
C308 C311 1.409 . S
C309 H301 0.930 . S
C309 C310 1.355 . S
C309 C311 1.415 . S
C310 C309 1.355 . S
C310 C312 1.419 . S
C311 C306 1.425 . S
C311 C308 1.409 . S
C311 C309 1.415 . S
C312 H302 0.930 . S
C312 C310 1.419 . S
C312 C313 1.362 . S
C313 H303 0.930 . S
C313 C306 1.409 . S
C313 C312 1.362 . S
H314 C320 0.930 . S
H315 C323 0.930 . S
H316 C324 0.930 . S
H317 C325 0.930 . S
H318 C328 0.930 . S
H319 C329 0.930 . S
C320 H314 0.930 . S
C320 C321 1.355 . S
C320 C322 1.415 . S
C321 C320 1.355 . S
C321 C323 1.419 . S
C322 C320 1.415 . S
C322 C327 1.425 . S
C322 C329 1.409 . S
C323 H315 0.930 . S
C323 C321 1.419 . S
C323 C324 1.362 . S
C324 H316 0.930 . S
C324 C323 1.362 . S
C324 C327 1.409 . S
C325 H317 0.930 . S
C325 C326 1.355 . S
C325 C327 1.415 . S
C326 C325 1.355 . S
C326 C328 1.419 . S
C327 C322 1.425 . S
C327 C324 1.409 . S
C327 C325 1.415 . S
C328 H318 0.930 . S
C328 C326 1.419 . S
C328 C329 1.362 . S
C329 H319 0.930 . S
C329 C322 1.409 . S
C329 C328 1.362 . S
H330 C336 0.930 . S
H331 C339 0.930 . S
H332 C340 0.930 . S
H333 C341 0.930 . S
H334 C344 0.930 . S
H335 C345 0.930 . S
C336 H330 0.930 . S
C336 C337 1.355 . S
C336 C338 1.415 . S
C337 C336 1.355 . S
C337 C339 1.419 . S
C338 C336 1.415 . S
C338 C343 1.425 . S
C338 C345 1.409 . S
C339 H331 0.930 . S
C339 C337 1.419 . S
C339 C340 1.362 . S
C340 H332 0.930 . S
C340 C339 1.362 . S
C340 C343 1.409 . S
C341 H333 0.930 . S
C341 C342 1.355 . S
C341 C343 1.415 . S
C342 C341 1.355 . S
C342 C344 1.419 . S
C343 C338 1.425 . S
C343 C340 1.409 . S
C343 C341 1.415 . S
C344 H334 0.930 . S
C344 C342 1.419 . S
C344 C345 1.362 . S
C345 H335 0.930 . S
C345 C338 1.409 . S
C345 C344 1.362 . S
H346 C352 0.930 . S
H347 C355 0.930 . S
H348 C356 0.930 . S
H349 C357 0.930 . S
H350 C360 0.930 . S
H351 C361 0.930 . S
C352 H346 0.930 . S
C352 C353 1.355 . S
C352 C354 1.415 . S
C353 C352 1.355 . S
C353 C355 1.419 . S
C354 C352 1.415 . S
C354 C359 1.425 . S
C354 C361 1.409 . S
C355 H347 0.930 . S
C355 C353 1.419 . S
C355 C356 1.362 . S
C356 H348 0.930 . S
C356 C355 1.362 . S
C356 C359 1.409 . S
C357 H349 0.930 . S
C357 C358 1.355 . S
C357 C359 1.415 . S
C358 C357 1.355 . S
C358 C360 1.419 . S
C359 C354 1.425 . S
C359 C356 1.409 . S
C359 C357 1.415 . S
C360 H350 0.930 . S
C360 C358 1.419 . S
C360 C361 1.362 . S
C361 H351 0.930 . S
C361 C354 1.409 . S
C361 C360 1.362 . S
H362 C368 0.930 . S
H363 C371 0.930 . S
H364 C372 0.930 . S
H365 C373 0.930 . S
H366 C376 0.930 . S
H367 C377 0.930 1_545 S
C368 H362 0.930 . S
C368 C369 1.355 . S
C368 C370 1.415 . S
C369 C368 1.355 . S
C369 C371 1.419 . S
C370 C368 1.415 . S
C370 C375 1.425 . S
C370 C377 1.409 . S
C371 H363 0.930 . S
C371 C369 1.419 . S
C371 C372 1.362 . S
C372 H364 0.930 . S
C372 C371 1.362 . S
C372 C375 1.409 . S
C373 H365 0.930 . S
C373 C374 1.355 . S
C373 C375 1.415 . S
C374 C373 1.355 . S
C374 C376 1.419 1_565 S
C375 C370 1.425 . S
C375 C372 1.409 . S
C375 C373 1.415 . S
C376 H366 0.930 . S
C376 C374 1.419 1_545 S
C376 C377 1.362 1_545 S
C377 H367 0.930 1_565 S
C377 C370 1.409 . S
C377 C376 1.362 1_565 S
H378 C384 0.930 . S
H379 C387 0.930 . S
H380 C388 0.930 . S
H381 C389 0.930 . S
H382 C392 0.930 . S
H383 C393 0.930 . S
C384 H378 0.930 . S
C384 C385 1.355 . S
C384 C386 1.415 . S
C385 C384 1.355 . S
C385 C387 1.419 . S
C386 C384 1.415 . S
C386 C391 1.425 . S
C386 C393 1.409 . S
C387 H379 0.930 . S
C387 C385 1.419 . S
C387 C388 1.362 . S
C388 H380 0.930 . S
C388 C387 1.362 . S
C388 C391 1.409 . S
C389 H381 0.930 . S
C389 C390 1.355 . S
C389 C391 1.415 . S
C390 C389 1.355 . S
C390 C392 1.419 . S
C391 C386 1.425 . S
C391 C388 1.409 . S
C391 C389 1.415 . S
C392 H382 0.930 . S
C392 C390 1.419 . S
C392 C393 1.362 . S
C393 H383 0.930 . S
C393 C386 1.409 . S
C393 C392 1.362 . S
H394 C400 0.930 . S
H395 C403 0.930 . S
H396 C404 0.930 . S
H397 C405 0.930 . S
H398 C408 0.930 . S
H399 C409 0.930 . S
C400 H394 0.930 . S
C400 C401 1.355 . S
C400 C402 1.415 . S
C401 C400 1.355 . S
C401 C403 1.419 . S
C402 C400 1.415 . S
C402 C407 1.425 . S
C402 C409 1.409 . S
C403 H395 0.930 . S
C403 C401 1.419 . S
C403 C404 1.362 . S
C404 H396 0.930 . S
C404 C403 1.362 . S
C404 C407 1.409 . S
C405 H397 0.930 . S
C405 C406 1.355 . S
C405 C407 1.415 . S
C406 C405 1.355 . S
C406 C408 1.419 . S
C407 C402 1.425 . S
C407 C404 1.409 . S
C407 C405 1.415 . S
C408 H398 0.930 . S
C408 C406 1.419 . S
C408 C409 1.362 . S
C409 H399 0.930 . S
C409 C402 1.409 . S
C409 C408 1.362 . S
H410 C416 0.930 . S
H411 C419 0.930 . S
H412 C420 0.930 . S
H413 C421 0.930 . S
H414 C424 0.930 . S
H415 C425 0.930 . S
C416 H410 0.930 . S
C416 C417 1.355 . S
C416 C418 1.415 . S
C417 C416 1.355 . S
C417 C419 1.419 . S
C418 C416 1.415 . S
C418 C423 1.425 . S
C418 C425 1.409 . S
C419 H411 0.930 . S
C419 C417 1.419 . S
C419 C420 1.362 . S
C420 H412 0.930 . S
C420 C419 1.362 . S
C420 C423 1.409 . S
C421 H413 0.930 . S
C421 C422 1.355 . S
C421 C423 1.415 . S
C422 C421 1.355 . S
C422 C424 1.419 . S
C423 C418 1.425 . S
C423 C420 1.409 . S
C423 C421 1.415 . S
C424 H414 0.930 . S
C424 C422 1.419 . S
C424 C425 1.362 . S
C425 H415 0.930 . S
C425 C418 1.409 . S
C425 C424 1.362 . S
H426 C432 0.930 . S
H427 C435 0.930 . S
H428 C436 0.930 . S
H429 C437 0.930 . S
H430 C440 0.930 . S
H431 C441 0.929 1_554 S
C432 H426 0.930 . S
C432 C433 1.355 . S
C432 C434 1.415 . S
C433 C432 1.355 . S
C433 C435 1.419 . S
C434 C432 1.415 . S
C434 C439 1.425 . S
C434 C441 1.409 1_554 S
C435 H427 0.930 . S
C435 C433 1.419 . S
C435 C436 1.362 . S
C436 H428 0.930 . S
C436 C435 1.362 . S
C436 C439 1.409 . S
C437 H429 0.930 . S
C437 C438 1.355 . S
C437 C439 1.415 1_556 S
C438 C437 1.355 . S
C438 C440 1.419 . S
C439 C434 1.425 . S
C439 C436 1.409 . S
C439 C437 1.415 1_554 S
C440 H430 0.930 . S
C440 C438 1.419 . S
C440 C441 1.362 . S
C441 H431 0.929 1_556 S
C441 C434 1.409 1_556 S
C441 C440 1.362 . S
H442 C448 0.930 1_565 S
H443 C451 0.930 . S
H444 C452 0.930 . S
H445 C453 0.930 . S
H446 C456 0.930 1_565 S
H447 C457 0.930 . S
C448 H442 0.930 1_545 S
C448 C449 1.355 . S
C448 C450 1.415 . S
C449 C448 1.355 . S
C449 C451 1.419 . S
C450 C448 1.415 . S
C450 C455 1.425 . S
C450 C457 1.409 1_545 S
C451 H443 0.930 . S
C451 C449 1.419 . S
C451 C452 1.362 . S
C452 H444 0.930 . S
C452 C451 1.362 . S
C452 C455 1.409 . S
C453 H445 0.930 . S
C453 C454 1.355 . S
C453 C455 1.415 . S
C454 C453 1.355 . S
C454 C456 1.419 . S
C455 C450 1.425 . S
C455 C452 1.409 . S
C455 C453 1.415 . S
C456 H446 0.930 1_545 S
C456 C454 1.419 . S
C456 C457 1.362 1_545 S
C457 H447 0.930 . S
C457 C450 1.409 1_565 S
C457 C456 1.362 1_565 S
H458 C464 0.930 . S
H459 C467 0.930 . S
H460 C468 0.930 . S
H461 C469 0.930 . S
H462 C472 0.930 . S
H463 C473 0.930 . S
C464 H458 0.930 . S
C464 C465 1.355 . S
C464 C466 1.415 . S
C465 C464 1.355 . S
C465 C467 1.419 . S
C466 C464 1.415 . S
C466 C471 1.425 . S
C466 C473 1.409 . S
C467 H459 0.930 . S
C467 C465 1.419 . S
C467 C468 1.362 . S
C468 H460 0.930 . S
C468 C467 1.362 . S
C468 C471 1.409 . S
C469 H461 0.930 . S
C469 C470 1.355 . S
C469 C471 1.415 . S
C470 C469 1.355 . S
C470 C472 1.419 . S
C471 C466 1.425 . S
C471 C468 1.409 . S
C471 C469 1.415 . S
C472 H462 0.930 . S
C472 C470 1.419 . S
C472 C473 1.362 . S
C473 H463 0.930 . S
C473 C466 1.409 . S
C473 C472 1.362 . S
H474 C480 0.930 1_565 S
H475 C483 0.930 . S
H476 C484 0.930 . S
H477 C485 0.930 . S
H478 C488 0.930 1_565 S
H479 C489 0.930 . S
C480 H474 0.930 1_545 S
C480 C481 1.355 . S
C480 C482 1.415 . S
C481 C480 1.355 . S
C481 C483 1.419 . S
C482 C480 1.415 . S
C482 C487 1.425 . S
C482 C489 1.409 1_545 S
C483 H475 0.930 . S
C483 C481 1.419 . S
C483 C484 1.362 . S
C484 H476 0.930 . S
C484 C483 1.362 . S
C484 C487 1.409 . S
C485 H477 0.930 . S
C485 C486 1.355 . S
C485 C487 1.415 . S
C486 C485 1.355 . S
C486 C488 1.419 . S
C487 C482 1.425 . S
C487 C484 1.409 . S
C487 C485 1.415 . S
C488 H478 0.930 1_545 S
C488 C486 1.419 . S
C488 C489 1.362 1_545 S
C489 H479 0.930 . S
C489 C482 1.409 1_565 S
C489 C488 1.362 1_565 S
H490 C496 0.930 . S
H491 C499 0.930 . S
H492 C500 0.930 . S
H493 C501 0.930 . S
H494 C504 0.930 . S
H495 C505 0.930 1_556 S
C496 H490 0.930 . S
C496 C497 1.355 . S
C496 C498 1.415 . S
C497 C496 1.355 . S
C497 C499 1.419 . S
C498 C496 1.415 . S
C498 C503 1.425 . S
C498 C505 1.409 1_556 S
C499 H491 0.930 . S
C499 C497 1.419 . S
C499 C500 1.362 . S
C500 H492 0.930 . S
C500 C499 1.362 . S
C500 C503 1.409 . S
C501 H493 0.930 . S
C501 C502 1.355 . S
C501 C503 1.415 1_554 S
C502 C501 1.355 . S
C502 C504 1.419 . S
C503 C498 1.425 . S
C503 C500 1.409 . S
C503 C501 1.415 1_556 S
C504 H494 0.930 . S
C504 C502 1.419 . S
C504 C505 1.362 . S
C505 H495 0.930 1_554 S
C505 C498 1.409 1_554 S
C505 C504 1.362 . S
H506 C512 0.930 . S
H507 C515 0.930 . S
H508 C516 0.930 . S
H509 C517 0.930 . S
H510 C520 0.911 1_655 S
H511 C521 0.930 . S
C512 H506 0.930 . S
C512 C513 1.355 . S
C512 C514 1.415 . S
C513 C512 1.355 . S
C513 C515 1.419 . S
C514 C512 1.415 . S
C514 C519 1.425 . S
C514 C521 1.409 1_455 S
C515 H507 0.930 . S
C515 C513 1.419 . S
C515 C516 1.362 . S
C516 H508 0.930 . S
C516 C515 1.362 . S
C516 C519 1.409 . S
C517 H509 0.930 . S
C517 C518 1.355 . S
C517 C519 1.415 . S
C518 C517 1.355 . S
C518 C520 1.441 . S
C519 C514 1.425 . S
C519 C516 1.409 . S
C519 C517 1.415 . S
C520 H510 0.911 1_455 S
C520 C518 1.441 . S
C520 C521 1.360 1_455 S
C521 H511 0.930 . S
C521 C514 1.409 1_655 S
C521 C520 1.360 1_655 S
C241 C10 3.223 . S
C246 C226 3.131 . S
C257 C55 1.304 . S
C262 C188 1.205 . S
C273 C90 2.003 . S
C278 C207 1.980 . S
C289 C19 2.977 . S
C294 C221 2.952 . S
C310 C183 1.107 . S
C305 C46 1.148 . S
C326 C202 1.907 . S
C321 C99 1.949 . S
C337 C50 1.989 . S
C342 C150 1.910 . S
C353 C95 0.457 . S
C358 C164 0.480 . S
C369 C6 1.159 . S
C374 C126 1.119 1_565 S
C390 C145 1.893 . S
C385 C59 1.897 . S
C406 C169 0.748 . S
C401 C86 0.688 . S
C417 C15 1.342 . S
C422 C131 1.297 . S
C438 C160 1.314 . S
C433 C18 1.220 . S
C449 C49 1.574 . S
C454 C122 1.529 . S
C465 C98 1.518 . S
C470 C141 1.523 . S
C486 C198 1.534 . S
C481 C58 1.476 . S
C502 C217 1.763 . S
C497 C89 1.665 . S
C513 C9 1.560 . S
C518 C179 1.556 . S
