# Generated by pormake.
# Topology zzz, (3,6)-cn, num edge types: 1
# Building blocks:
#     Node 0, Type 0, BuildingBlock: BELTOD_clean_linker_0, # of connection points: 3
#     Node 1, Type 0, BuildingBlock: BELTOD_clean_linker_0, # of connection points: 3
#     Node 2, Type 0, BuildingBlock: BELTOD_clean_linker_0, # of connection points: 3
#     Node 3, Type 0, BuildingBlock: BELTOD_clean_linker_0, # of connection points: 3
#     Node 4, Type 0, BuildingBlock: BELTOD_clean_linker_0, # of connection points: 3
#     Node 5, Type 0, BuildingBlock: BELTOD_clean_linker_0, # of connection points: 3
#     Node 6, Type 0, BuildingBlock: BELTOD_clean_linker_0, # of connection points: 3
#     Node 7, Type 0, BuildingBlock: BELTOD_clean_linker_0, # of connection points: 3
#     Node 8, Type 1, BuildingBlock: PAMTUU_clean_sbu_0, # of connection points: 6
#     Node 9, Type 1, BuildingBlock: PAMTUU_clean_sbu_0, # of connection points: 6
#     Node 10, Type 1, BuildingBlock: PAMTUU_clean_sbu_0, # of connection points: 6
#     Node 11, Type 1, BuildingBlock: PAMTUU_clean_sbu_0, # of connection points: 6
#     Edge 12, Type (0, 1), BuildingBlock: ZUJKAS_clean_linker_0, # of connection points: 2
#     Edge 13, Type (0, 1), BuildingBlock: ZUJKAS_clean_linker_0, # of connection points: 2
#     Edge 14, Type (0, 1), BuildingBlock: ZUJKAS_clean_linker_0, # of connection points: 2
#     Edge 15, Type (0, 1), BuildingBlock: ZUJKAS_clean_linker_0, # of connection points: 2
#     Edge 16, Type (0, 1), BuildingBlock: ZUJKAS_clean_linker_0, # of connection points: 2
#     Edge 17, Type (0, 1), BuildingBlock: ZUJKAS_clean_linker_0, # of connection points: 2
#     Edge 18, Type (0, 1), BuildingBlock: ZUJKAS_clean_linker_0, # of connection points: 2
#     Edge 19, Type (0, 1), BuildingBlock: ZUJKAS_clean_linker_0, # of connection points: 2
#     Edge 20, Type (0, 1), BuildingBlock: ZUJKAS_clean_linker_0, # of connection points: 2
#     Edge 21, Type (0, 1), BuildingBlock: ZUJKAS_clean_linker_0, # of connection points: 2
#     Edge 22, Type (0, 1), BuildingBlock: ZUJKAS_clean_linker_0, # of connection points: 2
#     Edge 23, Type (0, 1), BuildingBlock: ZUJKAS_clean_linker_0, # of connection points: 2
#     Edge 24, Type (0, 1), BuildingBlock: ZUJKAS_clean_linker_0, # of connection points: 2
#     Edge 25, Type (0, 1), BuildingBlock: ZUJKAS_clean_linker_0, # of connection points: 2
#     Edge 26, Type (0, 1), BuildingBlock: ZUJKAS_clean_linker_0, # of connection points: 2
#     Edge 27, Type (0, 1), BuildingBlock: ZUJKAS_clean_linker_0, # of connection points: 2
#     Edge 28, Type (0, 1), BuildingBlock: ZUJKAS_clean_linker_0, # of connection points: 2
#     Edge 29, Type (0, 1), BuildingBlock: ZUJKAS_clean_linker_0, # of connection points: 2
#     Edge 30, Type (0, 1), BuildingBlock: ZUJKAS_clean_linker_0, # of connection points: 2
#     Edge 31, Type (0, 1), BuildingBlock: ZUJKAS_clean_linker_0, # of connection points: 2
#     Edge 32, Type (0, 1), BuildingBlock: ZUJKAS_clean_linker_0, # of connection points: 2
#     Edge 33, Type (0, 1), BuildingBlock: ZUJKAS_clean_linker_0, # of connection points: 2
#     Edge 34, Type (0, 1), BuildingBlock: ZUJKAS_clean_linker_0, # of connection points: 2
#     Edge 35, Type (0, 1), BuildingBlock: ZUJKAS_clean_linker_0, # of connection points: 2
# Relax obj value: 0.341
# Max RMSD: 0.246
# Mean RMSD: 0.210
data_MOF--net-zzz--node1-PAMTUU_clean_sbu_0--node2-BELTOD_clean_linker_0--edge1-ZUJKAS_clean_linker_0
_symmetry_space_group_name_H-M    P1
_symmetry_Int_Tables_number       1
_symmetry_cell_setting            triclinic
loop_
_symmetry_equiv_pos_as_xyz
'x, y, z'
_cell_length_a     69.278257
_cell_length_b     71.937116
_cell_length_c     23.977129
_cell_angle_alpha  97.507247
_cell_angle_beta   90.050067
_cell_angle_gamma 90.471942
loop_
_atom_site_label
_atom_site_type_symbol
_atom_site_fract_x
_atom_site_fract_y
_atom_site_fract_z
_atom_type_partial_charge
P0 P 0.73971 0.4692 0.346 0.0
H1 H 0.74652 0.4791 0.4669 0.0
H2 H 0.77573 0.48938 0.51935 0.0
H3 H 0.80345 0.49963 0.36489 0.0
H4 H 0.77401 0.48953 0.31265 0.0
H5 H 0.69893 0.46062 0.33019 0.0
H6 H 0.67452 0.4711 0.26894 0.0
H7 H 0.71413 0.51296 0.22166 0.0
H8 H 0.73874 0.50239 0.28434 0.0
H9 H 0.76474 0.43745 0.35416 0.0
H10 H 0.74399 0.46788 0.22283 0.0
O11 O 0.72937 0.45568 0.38926 0.0
H12 H 0.78663 0.41989 0.28708 0.0
H13 H 0.76601 0.45098 0.15668 0.0
C14 C 0.75805 0.48337 0.38565 0.0
C15 C 0.75863 0.48411 0.44438 0.0
C16 C 0.77548 0.48979 0.47436 0.0
C17 C 0.79215 0.49491 0.44625 0.0
C18 C 0.79093 0.49577 0.38799 0.0
C19 C 0.77403 0.49006 0.358 0.0
C20 C 0.72065 0.48087 0.31266 0.0
C21 C 0.70226 0.47249 0.3083 0.0
C22 C 0.68823 0.47849 0.27296 0.0
C23 C 0.69232 0.49286 0.24016 0.0
C24 C 0.71054 0.50179 0.24614 0.0
C25 C 0.72455 0.49592 0.28244 0.0
C26 C 0.7526 0.45389 0.29364 0.0
C27 C 0.76457 0.44007 0.31069 0.0
C28 C 0.77718 0.43016 0.27243 0.0
C29 C 0.77813 0.43406 0.21652 0.0
C30 C 0.76546 0.44736 0.1991 0.0
C31 C 0.75286 0.45721 0.23732 0.0
P32 P 0.00487 0.7313 0.36166 0.0
H33 H 0.01225 0.744 0.48058 0.0
H34 H 0.99898 0.7704 0.54139 0.0
H35 H 0.95266 0.77404 0.42252 0.0
H36 H 0.96641 0.74774 0.36095 0.0
H37 H 0.00958 0.69165 0.37127 0.0
H38 H 0.99734 0.66324 0.31593 0.0
H39 H 0.96119 0.69666 0.22151 0.0
H40 H 0.97391 0.7252 0.27672 0.0
H41 H 0.01236 0.77154 0.37969 0.0
H42 H 0.01183 0.72758 0.23865 0.0
O43 O 0.02558 0.72507 0.38936 0.0
H44 H 0.01845 0.79469 0.31663 0.0
H45 H 0.01785 0.751 0.17475 0.0
C46 C 0.99037 0.7439 0.41607 0.0
C47 C 0.99877 0.74989 0.4686 0.0
C48 C 0.99111 0.76509 0.50353 0.0
C49 C 0.97494 0.77462 0.48637 0.0
C50 C 0.96535 0.76723 0.43649 0.0
C51 C 0.97304 0.752 0.40156 0.0
C52 C 0.99297 0.71054 0.3273 0.0
C53 C 0.99883 0.69289 0.33919 0.0
C54 C 0.99167 0.6766 0.30773 0.0
C55 C 0.97839 0.67764 0.26384 0.0
C56 C 0.97163 0.69537 0.25441 0.0
C57 C 0.9788 0.7117 0.28614 0.0
C58 C 0.01073 0.74787 0.31376 0.0
C59 C 0.0133 0.76683 0.33504 0.0
C60 C 0.01679 0.78012 0.29889 0.0
C61 C 0.01815 0.77472 0.24062 0.0
C62 C 0.01668 0.75558 0.21946 0.0
C63 C 0.01307 0.74222 0.2559 0.0
P64 P 0.79845 0.02436 0.38098 0.0
H65 H 0.78851 0.01358 0.49132 0.0
H66 H 0.75787 0.00377 0.52826 0.0
H67 H 0.73457 0.99458 0.35963 0.0
H68 H 0.76528 0.00476 0.32303 0.0
H69 H 0.83911 0.03286 0.37013 0.0
H70 H 0.86304 0.0228 0.29885 0.0
H71 H 0.82264 0.98184 0.2176 0.0
H72 H 0.7985 0.99215 0.28991 0.0
H73 H 0.77268 0.05484 0.42041 0.0
H74 H 0.79597 0.03005 0.26129 0.0
O75 O 0.80908 0.03609 0.43762 0.0
H76 H 0.74956 0.07232 0.37081 0.0
H77 H 0.77281 0.047 0.2119 0.0
C78 C 0.77927 0.00998 0.40431 0.0
C79 C 0.77708 0.00884 0.46194 0.0
C80 C 0.75943 0.00323 0.48315 0.0
C81 C 0.74354 0.9987 0.44712 0.0
C82 C 0.74634 0.99833 0.38878 0.0
C83 C 0.76404 0.00387 0.36762 0.0
C84 C 0.81708 0.01306 0.33613 0.0
C85 C 0.83552 0.02129 0.33814 0.0
C86 C 0.84926 0.01552 0.29708 0.0
C87 C 0.84483 0.00148 0.2523 0.0
C88 C 0.82651 0.99276 0.25131 0.0
C89 C 0.81276 0.99848 0.29299 0.0
C90 C 0.78607 0.04114 0.34474 0.0
C91 C 0.77325 0.05361 0.37493 0.0
C92 C 0.75994 0.06347 0.34654 0.0
C93 C 0.75922 0.0609 0.28742 0.0
C94 C 0.77309 0.04947 0.25743 0.0
C95 C 0.78635 0.03962 0.28585 0.0
P96 P 0.52337 0.77016 0.17379 0.0
H97 H 0.50635 0.75806 0.27381 0.0
H98 H 0.51729 0.73562 0.33438 0.0
H99 H 0.57354 0.73487 0.25647 0.0
H100 H 0.56264 0.75808 0.19744 0.0
H101 H 0.53149 0.77852 0.06023 0.0
H102 H 0.54528 0.8057 0.02498 0.0
H103 H 0.55931 0.82997 0.19477 0.0
H104 H 0.54532 0.80228 0.23022 0.0
H105 H 0.48848 0.75065 0.12562 0.0
H106 H 0.55017 0.74655 0.10367 0.0
O107 O 0.50214 0.77963 0.19356 0.0
H108 H 0.48403 0.7221 0.0587 0.0
H109 H 0.54581 0.71794 0.03776 0.0
C110 C 0.53369 0.75981 0.23121 0.0
C111 C 0.52128 0.75371 0.2713 0.0
C112 C 0.52748 0.74063 0.30542 0.0
C113 C 0.54614 0.73309 0.29931 0.0
C114 C 0.55908 0.74039 0.26232 0.0
C115 C 0.55287 0.75367 0.2285 0.0
C116 C 0.53776 0.78812 0.14789 0.0
C117 C 0.53814 0.78928 0.09001 0.0
C118 C 0.54608 0.80494 0.06974 0.0
C119 C 0.55351 0.82002 0.10698 0.0
C120 C 0.55368 0.81859 0.16501 0.0
C121 C 0.54583 0.80275 0.18528 0.0
C122 C 0.51966 0.75069 0.11955 0.0
C123 C 0.50104 0.74377 0.10592 0.0
C124 C 0.4985 0.72749 0.0677 0.0
C125 C 0.51459 0.7178 0.04348 0.0
C126 C 0.53318 0.72505 0.05634 0.0
C127 C 0.53568 0.74139 0.09392 0.0
P128 P 0.28976 0.46273 0.12968 0.0
H129 H 0.28026 0.4506 0.01123 0.0
H130 H 0.25365 0.45972 0.9544 0.0
H131 H 0.24384 0.50834 0.07671 0.0
H132 H 0.27097 0.49946 0.13233 0.0
H133 H 0.32075 0.44172 0.17114 0.0
H134 H 0.34978 0.45076 0.22435 0.0
H135 H 0.34067 0.50859 0.20077 0.0
H136 H 0.31102 0.49923 0.14726 0.0
H137 H 0.25235 0.44638 0.14891 0.0
H138 H 0.29078 0.48759 0.23781 0.0
O139 O 0.29023 0.43978 0.10699 0.0
H140 H 0.22662 0.45654 0.21532 0.0
H141 H 0.26518 0.49802 0.30297 0.0
C142 C 0.27758 0.47418 0.07663 0.0
C143 C 0.27295 0.46365 0.02482 0.0
C144 C 0.25742 0.46873 0.99268 0.0
C145 C 0.24607 0.48444 0.01176 0.0
C146 C 0.25211 0.49611 0.06058 0.0
C147 C 0.26779 0.49107 0.09248 0.0
C148 C 0.31383 0.46971 0.15403 0.0
C149 C 0.32525 0.45628 0.17554 0.0
C150 C 0.34197 0.46152 0.20631 0.0
C151 C 0.34773 0.48044 0.21706 0.0
C152 C 0.33664 0.49389 0.19367 0.0
C153 C 0.31983 0.48856 0.16234 0.0
C154 C 0.27355 0.46607 0.18852 0.0
C155 C 0.25546 0.45716 0.18374 0.0
C156 C 0.24071 0.46314 0.22126 0.0
C157 C 0.24382 0.47824 0.26389 0.0
C158 C 0.26237 0.48625 0.2709 0.0
C159 C 0.27709 0.48026 0.23337 0.0
P160 P 0.10069 0.26221 0.19171 0.0
H161 H 0.11489 0.24618 0.08082 0.0
H162 H 0.10154 0.22129 0.01249 0.0
H163 H 0.04709 0.22548 0.10054 0.0
H164 H 0.06052 0.25037 0.16891 0.0
H165 H 0.12165 0.29205 0.25809 0.0
H166 H 0.11234 0.32285 0.30389 0.0
H167 H 0.05644 0.31611 0.22347 0.0
H168 H 0.06611 0.28521 0.17637 0.0
H169 H 0.11688 0.22852 0.22849 0.0
H170 H 0.06951 0.26587 0.27486 0.0
O171 O 0.12453 0.26096 0.18217 0.0
H172 H 0.10499 0.2074 0.29296 0.0
H173 H 0.05716 0.24465 0.33744 0.0
C174 C 0.08877 0.25011 0.13035 0.0
C175 C 0.09985 0.24229 0.08436 0.0
C176 C 0.0922 0.22799 0.04521 0.0
C177 C 0.07337 0.22117 0.05175 0.0
C178 C 0.06175 0.23022 0.09495 0.0
C179 C 0.06938 0.24462 0.13377 0.0
C180 C 0.09468 0.2864 0.21329 0.0
C181 C 0.10757 0.29737 0.24895 0.0
C182 C 0.10214 0.31491 0.27571 0.0
C183 C 0.08355 0.32182 0.26798 0.0
C184 C 0.0709 0.3112 0.23005 0.0
C185 C 0.07641 0.29355 0.20307 0.0
C186 C 0.09432 0.24894 0.24765 0.0
C187 C 0.10417 0.23239 0.25348 0.0
C188 C 0.0972 0.22021 0.28982 0.0
C189 C 0.08003 0.22425 0.32021 0.0
C190 C 0.07058 0.24121 0.31554 0.0
C191 C 0.07765 0.25341 0.27956 0.0
P192 P 0.247 0.03783 0.17357 0.0
H193 H 0.2572 0.04529 0.05992 0.0
H194 H 0.2846 0.03513 1.00016 0.0
H195 H 0.29783 0.99316 0.10751 0.0
H196 H 0.27039 0.00352 0.16746 0.0
H197 H 0.21294 0.05831 0.21322 0.0
H198 H 0.18347 0.049 0.25654 0.0
H199 H 0.19796 0.99073 0.21013 0.0
H200 H 0.22788 0.00037 0.16619 0.0
H201 H 0.2793 0.06038 0.22427 0.0
H202 H 0.24447 0.01386 0.26388 0.0
O203 O 0.24584 0.0601 0.16116 0.0
H204 H 0.29969 0.05761 0.30624 0.0
H205 H 0.26471 0.01085 0.34411 0.0
C206 C 0.26179 0.02536 0.11876 0.0
C207 C 0.26557 0.03348 0.06971 0.0
C208 C 0.28137 0.02766 0.03546 0.0
C209 C 0.29377 0.01358 0.04957 0.0
C210 C 0.28889 0.00435 0.09604 0.0
C211 C 0.27301 0.01012 0.13008 0.0
C212 C 0.22259 0.03008 0.18563 0.0
C213 C 0.2095 0.0435 0.2101 0.0
C214 C 0.19255 0.03812 0.23526 0.0
C215 C 0.18828 0.01908 0.23734 0.0
C216 C 0.20086 0.00553 0.20979 0.0
C217 C 0.21783 0.011 0.18386 0.0
C218 C 0.26009 0.0376 0.23836 0.0
C219 C 0.27577 0.04986 0.25115 0.0
C220 C 0.28747 0.04818 0.29775 0.0
C221 C 0.28375 0.03407 0.33191 0.0
C222 C 0.26773 0.02215 0.3196 0.0
C223 C 0.2561 0.02385 0.27321 0.0
P224 P 0.4253 0.23612 0.35449 0.0
H225 H 0.40794 0.24459 0.24933 0.0
H226 H 0.41933 0.26397 0.18001 0.0
H227 H 0.47623 0.26596 0.25492 0.0
H228 H 0.4644 0.24729 0.32588 0.0
H229 H 0.40534 0.20718 0.4062 0.0
H230 H 0.41539 0.17717 0.43284 0.0
H231 H 0.47128 0.18412 0.35813 0.0
H232 H 0.46108 0.21426 0.33156 0.0
H233 H 0.4172 0.27558 0.37936 0.0
H234 H 0.45067 0.23484 0.45354 0.0
O235 O 0.40125 0.23665 0.35055 0.0
H236 H 0.43143 0.30061 0.44467 0.0
H237 H 0.46439 0.25976 0.52117 0.0
C238 C 0.43532 0.24438 0.29274 0.0
C239 C 0.42301 0.24872 0.24993 0.0
C240 C 0.4296 0.25983 0.21007 0.0
C241 C 0.44868 0.2668 0.21218 0.0
C242 C 0.46135 0.26117 0.25261 0.0
C243 C 0.4547 0.25017 0.29269 0.0
C244 C 0.43233 0.21285 0.36604 0.0
C245 C 0.41962 0.20209 0.3944 0.0
C246 C 0.42538 0.18489 0.40958 0.0
C247 C 0.44412 0.1782 0.3974 0.0
C248 C 0.45678 0.18893 0.36831 0.0
C249 C 0.45092 0.20612 0.35276 0.0
C250 C 0.43277 0.25337 0.4117 0.0
C251 C 0.42718 0.27198 0.411 0.0
C252 C 0.43532 0.2863 0.4487 0.0
C253 C 0.44914 0.28228 0.48841 0.0
C254 C 0.45404 0.26343 0.49066 0.0
C255 C 0.44602 0.2491 0.45231 0.0
Tb256 Tb 1.00036 0.00908 0.69767 0.0
Tb257 Tb 0.03197 0.99245 0.77985 0.0
C258 C 0.98814 0.9986 0.81553 0.0
C259 C 0.98227 0.04277 0.61319 0.0
C260 C 0.99037 0.07736 0.57489 0.0
C261 C 0.97348 0.06721 0.55727 0.0
C262 C 0.96942 0.05 0.5765 0.0
C263 C 0.99909 0.05286 0.63062 0.0
C264 C 1.0031 0.06995 0.61177 0.0
C265 C 0.9787 0.02474 0.63386 0.0
O266 O 0.00993 0.03231 0.75886 0.0
O267 O 0.03969 0.0219 0.78219 0.0
O268 O 0.04476 0.99024 0.69611 0.0
O269 O 0.02876 0.01428 0.66386 0.0
O270 O 0.04566 0.99301 0.85834 0.0
O271 O 0.05346 0.97263 0.78811 0.0
O272 O 0.01199 0.96966 0.75343 0.0
O273 O 1.00127 0.97894 0.67091 0.0
O274 O 0.98304 0.99859 0.76266 0.0
O275 O 0.00639 0.9996 0.83122 0.0
C276 C 0.0273 0.03552 0.78 0.0
O277 O 0.99083 0.01155 0.61576 0.0
O278 O 0.97624 0.02586 0.68807 0.0
C279 C 0.04318 0.00251 0.66042 0.0
C280 C 0.05272 0.96241 0.87643 0.0
C281 C 0.04812 0.93099 0.93411 0.0
C282 C 0.06666 0.93787 0.9237 0.0
C283 C 0.06893 0.95347 0.89504 0.0
C284 C 0.03418 0.95575 0.8872 0.0
C285 C 0.03189 0.94021 0.91596 0.0
C286 C 0.05516 0.97769 0.84203 0.0
C287 C 1.0038 0.96591 0.70386 0.0
H288 H 0.9634 0.07261 0.52894 0.0
H289 H 0.95638 0.04235 0.56267 0.0
H290 H 0.00926 0.04742 0.6586 0.0
H291 H 0.01643 0.07716 0.62519 0.0
H292 H 0.07942 0.93118 0.93769 0.0
H293 H 0.08334 0.95837 0.88663 0.0
H294 H 0.0215 0.96235 0.87237 0.0
H295 H 0.01744 0.93511 0.92268 0.0
Tb296 Tb 0.51162 0.98356 0.69922 0.0
Tb297 Tb 0.52557 0.01786 0.79389 0.0
C298 C 0.53299 0.97573 0.80769 0.0
C299 C 0.47762 0.95398 0.61297 0.0
C300 C 0.43808 0.95622 0.5876 0.0
C301 C 0.44398 0.95255 0.64108 0.0
C302 C 0.46355 0.95145 0.6537 0.0
C303 C 0.47169 0.95598 0.55815 0.0
C304 C 0.45209 0.95713 0.54555 0.0
C305 C 0.49795 0.95768 0.62944 0.0
O306 O 0.48937 0.98661 0.76404 0.0
O307 O 0.49412 0.01747 0.79899 0.0
O308 O 0.51978 0.02967 0.7169 0.0
O309 O 0.49725 0.00853 0.67814 0.0
O310 O 0.52692 0.03028 0.8782 0.0
O311 O 0.53878 0.04429 0.81177 0.0
O312 O 0.5521 0.00643 0.7547 0.0
O313 O 0.53943 0.99299 0.67013 0.0
O314 O 0.53187 0.97144 0.75295 0.0
O315 O 0.52753 0.99218 0.83267 0.0
C316 C 0.48316 0.00233 0.79212 0.0
O317 O 0.5053 0.97314 0.61512 0.0
O318 O 0.50245 0.95556 0.68106 0.0
C319 C 0.50545 0.02514 0.68197 0.0
C320 C 0.55495 0.04858 0.89791 0.0
C321 C 0.58984 0.05733 0.95587 0.0
C322 C 0.57466 0.0703 0.96003 0.0
C323 C 0.55734 0.06594 0.93118 0.0
C324 C 0.56998 0.03556 0.89366 0.0
C325 C 0.58729 0.03988 0.92248 0.0
C326 C 0.53709 0.04448 0.86586 0.0
C327 C 0.55425 0.99949 0.70146 0.0
H328 H 0.4335 0.95145 0.67403 0.0
H329 H 0.46761 0.94975 0.69636 0.0
H330 H 0.48224 0.95796 0.52608 0.0
H331 H 0.44804 0.96009 0.504 0.0
H332 H 0.57625 0.08391 0.98493 0.0
H333 H 0.54588 0.07619 0.9344 0.0
H334 H 0.56834 0.02209 0.86788 0.0
H335 H 0.59859 0.02948 0.91909 0.0
Tb336 Tb 0.50384 0.4894 0.77483 0.0
Tb337 Tb 0.53614 0.50143 0.68479 0.0
C338 C 0.49274 0.49829 0.65283 0.0
C339 C 0.47869 0.46069 0.87116 0.0
C340 C 0.47657 0.42786 0.92373 0.0
C341 C 0.45969 0.43627 0.90661 0.0
C342 C 0.46076 0.45255 0.88067 0.0
C343 C 0.49562 0.45247 0.88853 0.0
C344 C 0.49455 0.43625 0.91501 0.0
C345 C 0.47946 0.47679 0.83916 0.0
O346 O 0.52231 0.46559 0.75164 0.0
O347 O 0.52942 0.47168 0.66299 0.0
O348 O 0.55238 0.49234 0.75424 0.0
O349 O 0.52966 0.49797 0.82389 0.0
O350 O 0.5459 0.50052 0.60151 0.0
O351 O 0.56247 0.51469 0.6707 0.0
O352 O 0.52761 0.52726 0.73564 0.0
O353 O 0.49859 0.51899 0.77359 0.0
O354 O 0.49041 0.48704 0.69141 0.0
O355 O 0.5084 0.50859 0.65155 0.0
C356 C 0.52684 0.45975 0.69942 0.0
O357 O 0.49183 0.49013 0.85573 0.0
O358 O 0.47963 0.47245 0.78479 0.0
C359 C 0.54771 0.49549 0.80782 0.0
C360 C 0.56157 0.52872 0.58804 0.0
C361 C 0.56432 0.56199 0.53786 0.0
C362 C 0.5797 0.54921 0.53403 0.0
C363 C 0.57831 0.5327 0.55893 0.0
C364 C 0.5462 0.5414 0.59203 0.0
C365 C 0.54755 0.55786 0.56712 0.0
C366 C 0.56037 0.51181 0.61626 0.0
C367 C 0.51125 0.53162 0.7618 0.0
H368 H 0.44563 0.43025 0.91331 0.0
H369 H 0.44756 0.45861 0.86713 0.0
H370 H 0.50964 0.45839 0.88073 0.0
H371 H 0.5078 0.42998 0.9273 0.0
H372 H 0.59273 0.5519 0.51138 0.0
H373 H 0.59034 0.52308 0.55572 0.0
H374 H 0.53323 0.53864 0.6149 0.0
H375 H 0.53557 0.56752 0.57163 0.0
Tb376 Tb 0.02194 0.51924 0.72089 0.0
Tb377 Tb 0.01033 0.48406 0.78836 0.0
C378 C 1.00306 0.52503 0.84058 0.0
C379 C 0.05035 0.55036 0.64266 0.0
C380 C 0.08447 0.55456 0.58202 0.0
C381 C 0.06743 0.56353 0.56849 0.0
C382 C 0.05045 0.56143 0.59871 0.0
C383 C 0.06745 0.54195 0.65736 0.0
C384 C 0.08435 0.54404 0.62746 0.0
C385 C 0.03227 0.54646 0.67077 0.0
O386 O 0.04934 0.50796 0.74551 0.0
O387 O 0.03848 0.49438 0.82112 0.0
O388 O 0.02938 0.47287 0.72066 0.0
O389 O 0.02313 0.49402 0.65974 0.0
O390 O 0.00697 0.47291 0.86454 0.0
O391 O 1.00203 0.45586 0.78475 0.0
O392 O 0.98662 0.48689 0.72985 0.0
O393 O 0.99059 0.51782 0.71751 0.0
O394 O 0.0169 0.5301 0.80839 0.0
O395 O 0.99535 0.50821 0.83144 0.0
C396 C 0.05265 0.50105 0.79273 0.0
O397 O 0.02243 0.53208 0.64691 0.0
O398 O 0.03351 0.5464 0.72491 0.0
C399 C 0.02909 0.47747 0.66954 0.0
C400 C 0.98246 0.45006 0.86035 0.0
C401 C 0.94761 0.43717 0.90231 0.0
C402 C 0.96539 0.43024 0.9186 0.0
C403 C 0.98269 0.43663 0.89764 0.0
C404 C 0.96478 0.45698 0.84374 0.0
C405 C 0.94747 0.45053 0.86441 0.0
C406 C 1.00069 0.45685 0.83926 0.0
C407 C 0.98007 0.5024 0.71319 0.0
H408 H 0.06712 0.57176 0.53378 0.0
H409 H 0.03732 0.56799 0.58682 0.0
H410 H 0.06762 0.53324 0.69088 0.0
H411 H 0.09706 0.53659 0.63827 0.0
H412 H 0.96591 0.41985 0.94742 0.0
H413 H 0.99624 0.43115 0.91074 0.0
H414 H 0.96438 0.46746 0.81514 0.0
H415 H 0.93402 0.45632 0.85177 0.0
H416 H 0.15208 0.03455 0.24828 0.0
H417 H 0.12736 0.02952 0.31761 0.0
H418 H 0.16215 0.98654 0.37602 0.0
H419 H 0.1873 0.99197 0.3082 0.0
H420 H 0.10551 0.99909 0.33913 0.0
H421 H 0.15398 0.02218 0.51991 0.0
H422 H 0.16006 0.02545 0.44868 0.0
H423 H 0.16301 0.00291 0.47223 0.0
C424 C 0.1545 0.02398 0.27577 0.0
C425 C 0.17186 0.01384 0.27293 0.0
C426 C 0.14028 0.02107 0.3153 0.0
C427 C 0.14305 0.00797 0.3531 0.0
C428 C 0.15985 0.99705 0.3483 0.0
H429 H 0.07567 0.98098 0.64109 0.0
H430 H 0.09941 0.98158 0.56573 0.0
C431 C 0.17412 -1e-05 0.30881 0.0
C432 C 0.1286 0.00622 0.39839 0.0
H433 H 0.12304 0.01104 0.54137 0.0
C434 C 0.10936 0.0017 0.38334 0.0
C435 C 0.13355 0.00967 0.45623 0.0
C436 C 0.15372 0.01549 0.47544 0.0
C437 C 0.09503 0.00036 0.42432 0.0
C438 C 0.09997 0.00394 0.4821 0.0
C439 C 0.11924 0.00827 0.49715 0.0
C440 C 0.08534 0.00352 0.52761 0.0
C441 C 0.07478 0.99485 0.40534 0.0
C442 C 0.06963 0.01586 0.53197 0.0
C443 C 0.05603 0.01559 0.57512 0.0
C444 C 0.05785 0.00302 0.61516 0.0
C445 C 0.07373 0.99082 0.61104 0.0
C446 C 0.08735 0.99114 0.56791 0.0
H447 H 0.07448 0.98774 0.36134 0.0
H448 H 0.06809 0.9854 0.4331 0.0
H449 H 0.06583 0.00765 0.40722 0.0
H450 H 0.06796 0.02584 0.50221 0.0
H451 H 0.04407 0.02525 0.57699 0.0
H452 H 0.4244 0.14489 0.39495 0.0
H453 H 0.43395 0.11729 0.43823 0.0
H454 H 0.48799 0.14431 0.49007 0.0
H455 H 0.47848 0.17204 0.44779 0.0
H456 H 0.46891 0.09378 0.4213 0.0
H457 H 0.46142 0.13148 0.63762 0.0
H458 H 0.45069 0.1398 0.57693 0.0
H459 H 0.47604 0.14319 0.59078 0.0
C460 C 0.43835 0.14492 0.41542 0.0
C461 C 0.45064 0.1607 0.41824 0.0
C462 C 0.4438 0.12912 0.43983 0.0
C463 C 0.46155 0.12889 0.46787 0.0
C464 C 0.47414 0.14432 0.46905 0.0
H465 H 0.52158 0.05926 0.67249 0.0
H466 H 0.51006 0.08312 0.61762 0.0
C467 C 0.46875 0.16008 0.44445 0.0
C468 C 0.46664 0.11287 0.49791 0.0
H469 H 0.47547 0.10137 0.62912 0.0
C470 C 0.47024 0.09534 0.46675 0.0
C471 C 0.46823 0.11499 0.55718 0.0
C472 C 0.46374 0.13332 0.59282 0.0
C473 C 0.47614 0.08001 0.4933 0.0
C474 C 0.47809 0.08224 0.55259 0.0
C475 C 0.47403 0.09969 0.58368 0.0
C476 C 0.48525 0.06705 0.58339 0.0
C477 C 0.4809 0.06178 0.4576 0.0
C478 C 0.47513 0.05 0.58243 0.0
C479 C 0.48176 0.03618 0.61377 0.0
C480 C 0.49852 0.03929 0.64701 0.0
C481 C 0.5086 0.05637 0.64756 0.0
C482 C 0.50204 0.07007 0.61616 0.0
H483 H 0.48294 0.06364 0.4127 0.0
H484 H 0.49419 0.05558 0.47302 0.0
H485 H 0.46885 0.05166 0.46005 0.0
H486 H 0.46193 0.04752 0.55831 0.0
H487 H 0.4736 0.02323 0.61264 0.0
H488 H 0.35109 0.51101 0.29868 0.0
H489 H 0.37661 0.51766 0.36933 0.0
H490 H 0.4068 0.4681 0.29729 0.0
H491 H 0.38198 0.46193 0.22504 0.0
H492 H 0.38649 0.49754 0.44921 0.0
H493 H 0.45087 0.50435 0.31766 0.0
H494 H 0.4267 0.5043 0.28962 0.0
H495 H 0.43855 0.48254 0.2969 0.0
C496 C 0.36344 0.50183 0.29676 0.0
C497 C 0.36437 0.4859 0.25592 0.0
C498 C 0.37796 0.50555 0.33765 0.0
C499 C 0.39383 0.49352 0.3386 0.0
C500 C 0.39501 0.47788 0.29705 0.0
H501 H 0.46166 0.47469 0.6299 0.0
H502 H 0.43775 0.47472 0.55502 0.0
C503 C 0.3806 0.47422 0.25602 0.0
C504 C 0.40838 0.49647 0.38514 0.0
H505 H 0.45689 0.49822 0.41234 0.0
C506 C 0.40187 0.4979 0.44106 0.0
C507 C 0.4285 0.49724 0.37501 0.0
C508 C 0.43655 0.49723 0.31656 0.0
C509 C 0.41485 0.49943 0.48668 0.0
C510 C 0.43499 0.49901 0.47632 0.0
C511 C 0.44149 0.49825 0.42054 0.0
C512 C 0.44954 0.49912 0.52251 0.0
C513 C 0.40676 0.50172 0.54557 0.0
C514 C 0.46463 0.51243 0.52851 0.0
C515 C 0.47856 0.51226 0.57092 0.0
C516 C 0.47774 0.49877 0.60847 0.0
C517 C 0.46265 0.48543 0.60229 0.0
C518 C 0.44884 0.48551 0.55957 0.0
H519 H 0.39211 0.50793 0.54697 0.0
H520 H 0.40551 0.48774 0.56015 0.0
H521 H 0.41623 0.51075 0.57531 0.0
H522 H 0.46561 0.52302 0.50037 0.0
H523 H 0.48997 0.52273 0.57426 0.0
H524 H 0.08943 0.33193 0.38008 0.0
H525 H 0.07979 0.36072 0.43801 0.0
H526 H 0.05352 0.38025 0.29345 0.0
H527 H 0.0631 0.35119 0.23485 0.0
H528 H 0.09014 0.39704 0.4271 0.0
H529 H 0.01046 0.38745 0.41013 0.0
H530 H 0.02704 0.36864 0.38877 0.0
H531 H 0.02322 0.38663 0.34464 0.0
C532 C 0.08169 0.34237 0.3604 0.0
C533 C 0.07716 0.33933 0.30272 0.0
C534 C 0.07612 0.35881 0.39368 0.0
C535 C 0.06582 0.37261 0.37025 0.0
C536 C 0.06117 0.36966 0.31267 0.0
H537 H 0.0247 0.47878 0.55628 0.0
H538 H 0.0341 0.45487 0.47872 0.0
C539 C 0.06668 0.35308 0.27922 0.0
C540 C 0.06043 0.39011 0.40667 0.0
H541 H 0.02193 0.4148 0.4655 0.0
C542 C 0.07522 0.40099 0.43512 0.0
C543 C 0.04096 0.39532 0.41697 0.0
C544 C 0.02445 0.38387 0.38895 0.0
C545 C 0.07107 0.41661 0.47461 0.0
C546 C 0.05163 0.4214 0.48632 0.0
C547 C 0.03683 0.41104 0.45632 0.0
C548 C 0.04639 0.43619 0.53268 0.0
C549 C 0.08751 0.42773 0.50421 0.0
C550 C 0.05011 0.43352 0.58857 0.0
C551 C 0.04469 0.44703 0.63285 0.0
C552 C 0.03545 0.46355 0.62215 0.0
C553 C 0.03188 0.46627 0.56598 0.0
C554 C 0.03718 0.45262 0.52162 0.0
H555 H 0.10132 0.42524 0.48097 0.0
H556 H 0.0844 0.44298 0.50945 0.0
H557 H 0.08942 0.42345 0.54668 0.0
H558 H 0.057 0.42082 0.59798 0.0
H559 H 0.04766 0.44446 0.67551 0.0
H560 H 0.88419 0.99796 0.25868 0.0
H561 H 0.90745 0.99528 0.18137 0.0
H562 H 0.86072 0.99242 0.06165 0.0
H563 H 0.83735 0.99564 0.13881 0.0
H564 H 0.91305 0.96824 0.08725 0.0
H565 H 0.89298 0.03698 0.02299 0.0
H566 H 0.88541 0.02978 0.08896 0.0
H567 H 0.87329 0.02067 0.02475 0.0
C568 C 0.87883 0.99673 0.2159 0.0
C569 C 0.85886 0.99722 0.20512 0.0
C570 C 0.89216 0.99511 0.1717 0.0
C571 C 0.88587 0.99403 0.1157 0.0
C572 C 0.86594 0.9936 0.10456 0.0
H573 H 0.9488 0.99686 0.80084 0.0
H574 H 0.92396 0.99459 0.87217 0.0
C575 C 0.85258 0.99521 0.14877 0.0
C576 C 0.90021 0.99395 0.06937 0.0
H577 H 0.916 0.01927 0.96685 0.0
C578 C 0.91369 0.97938 0.06088 0.0
C579 C 0.90107 0.00851 0.03495 0.0
C580 C 0.88755 0.02498 0.04348 0.0
C581 C 0.92786 0.97888 0.01867 0.0
C582 C 0.92885 0.99355 0.98466 0.0
C583 C 0.91524 0.00801 0.9928 0.0
C584 C 0.94408 0.9944 0.94113 0.0
C585 C 0.94146 0.96248 0.01033 0.0
C586 C 0.96371 0.99525 0.95609 0.0
C587 C 0.97798 0.99655 0.91538 0.0
C588 C 0.97295 0.99716 0.85873 0.0
C589 C 0.95326 0.9964 0.84394 0.0
C590 C 0.939 0.9951 0.88472 0.0
H591 H 0.93543 0.9501 0.02784 0.0
H592 H 0.94466 0.95837 0.96504 0.0
H593 H 0.95524 0.96648 0.03247 0.0
H594 H 0.96801 0.99517 0.99949 0.0
H595 H 0.99296 0.99716 0.92849 0.0
H596 H 0.57387 0.8243 0.0115 0.0
H597 H 0.57623 0.85262 0.96533 0.0
H598 H 0.54733 0.88413 0.10578 0.0
H599 H 0.5446 0.85586 0.15185 0.0
H600 H 0.5411 0.8704 0.93978 0.0
H601 H 0.59115 0.92011 0.06561 0.0
H602 H 0.59166 0.89509 0.0678 0.0
H603 H 0.57328 0.9091 0.10506 0.0
C604 C 0.56835 0.83734 0.03308 0.0
C605 C 0.55887 0.83777 0.08511 0.0
C606 C 0.5698 0.85351 0.00676 0.0
C607 C 0.56202 0.87047 0.03223 0.0
C608 C 0.55372 0.87126 0.08584 0.0
H609 H 0.52957 0.97563 0.92149 0.0
H610 H 0.53818 0.95033 0.97579 0.0
C611 C 0.5522 0.85506 0.11216 0.0
C612 C 0.56 0.88642 0.99942 0.0
H613 H 0.57214 0.93239 0.99643 0.0
C614 C 0.54805 0.8839 0.95177 0.0
C615 C 0.56886 0.90405 0.01577 0.0
C616 C 0.58209 0.90731 0.06612 0.0
C617 C 0.54435 0.89865 0.92054 0.0
C618 C 0.55332 0.91631 0.93647 0.0
C619 C 0.56537 0.91882 0.9841 0.0
C620 C 0.54992 0.93235 0.9047 0.0
C621 C 0.53031 0.89533 0.87197 0.0
C622 C 0.55421 0.93089 0.84711 0.0
C623 C 0.54909 0.94518 0.81588 0.0
C624 C 0.53988 0.96139 0.84184 0.0
C625 C 0.53657 0.96329 0.90018 0.0
C626 C 0.54151 0.94886 0.9313 0.0
H627 H 0.52082 0.88298 0.87512 0.0
H628 H 0.52107 0.90776 0.86992 0.0
H629 H 0.53848 0.89258 0.832 0.0
H630 H 0.56115 0.91848 0.82602 0.0
H631 H 0.55213 0.9434 0.77119 0.0
H632 H 0.69922 0.49812 0.13068 0.0
H633 H 0.67542 0.50112 0.05671 0.0
H634 H 0.62941 0.49938 0.17686 0.0
H635 H 0.65309 0.4967 0.2511 0.0
H636 H 0.64629 0.47434 0.02244 0.0
H637 H 0.61436 0.54377 0.09458 0.0
H638 H 0.63726 0.53657 0.12037 0.0
H639 H 0.61507 0.52823 0.14739 0.0
C640 C 0.68406 0.49886 0.14169 0.0
C641 C 0.67809 0.4972 0.19693 0.0
C642 C 0.67046 0.50043 0.09923 0.0
C643 C 0.6506 0.50062 0.11121 0.0
C644 C 0.64463 0.49955 0.16665 0.0
H645 H 0.54346 0.4978 0.92229 0.0
H646 H 0.56877 0.49898 0.99381 0.0
C647 C 0.6582 0.49788 0.20902 0.0
C648 C 0.6361 0.50058 0.06519 0.0
H649 H 0.59764 0.5245 0.0216 0.0
C650 C 0.63576 0.4854 0.02194 0.0
C651 C 0.62226 0.51492 0.06475 0.0
C652 C 0.62229 0.53189 0.10895 0.0
C653 C 0.62169 0.4839 0.97918 0.0
C654 C 0.60778 0.49822 0.97877 0.0
C655 C 0.60825 0.5135 0.0218 0.0
C656 C 0.59246 0.49747 0.93467 0.0
C657 C 0.62146 0.46663 0.93601 0.0
C658 C 0.59725 0.49641 0.87739 0.0
C659 C 0.58277 0.4956 0.83622 0.0
C660 C 0.56313 0.49606 0.8514 0.0
C661 C 0.55839 0.49738 0.90888 0.0
C662 C 0.57288 0.49809 0.94996 0.0
H663 H 0.62936 0.45485 0.95103 0.0
H664 H 0.60645 0.46193 0.92524 0.0
H665 H 0.62863 0.46993 0.89708 0.0
H666 H 0.61222 0.49637 0.86446 0.0
H667 H 0.587 0.4948 0.7925 0.0
H668 H 0.97538 0.67392 0.14929 0.0
H669 H 0.97238 0.64497 0.08452 0.0
H670 H 0.96767 0.61327 0.22469 0.0
H671 H 0.97049 0.6423 0.2901 0.0
H672 H 0.99663 0.601 0.1524 0.0
H673 H 0.92958 0.60772 0.03159 0.0
H674 H 0.94473 0.62815 0.03404 0.0
H675 H 0.93448 0.62191 0.09807 0.0
C676 C 0.97304 0.66089 0.16649 0.0
C677 C 0.97325 0.66045 0.22497 0.0
C678 C 0.9713 0.64431 0.12928 0.0
C679 C 0.9696 0.62696 0.14971 0.0
C680 C 0.9689 0.62652 0.20802 0.0
H681 H 0.97199 0.52208 0.91053 0.0
H682 H 0.96178 0.54497 0.99008 0.0
C683 C 0.97062 0.64312 0.24532 0.0
C684 C 0.9712 0.60931 0.1104 0.0
H685 H 0.95358 0.58649 0.98667 0.0
C686 C 0.98696 0.59762 0.11685 0.0
C687 C 0.95852 0.60479 0.06422 0.0
C688 C 0.94076 0.61621 0.05683 0.0
C689 C 0.99105 0.58224 0.07651 0.0
C690 C 0.97919 0.57855 0.02834 0.0
C691 C 0.96274 0.58948 0.0235 0.0
C692 C 0.98486 0.56469 0.98021 0.0
C693 C 0.00846 0.57042 0.08464 0.0
C694 C 1.00102 0.56838 0.94823 0.0
C695 C 0.0068 0.5555 0.90292 0.0
C696 C 0.99656 0.53858 0.88865 0.0
C697 C 0.98024 0.53494 0.9206 0.0
C698 C 0.97436 0.54798 0.96589 0.0
H699 H 0.0132 0.57206 0.12932 0.0
H700 H 0.00536 0.55536 0.07057 0.0
H701 H 0.02058 0.57482 0.05897 0.0
H702 H 0.00919 0.58129 0.95837 0.0
H703 H 0.01941 0.55881 0.87931 0.0
H704 H 0.06106 0.23066 0.42145 0.0
H705 H 0.04415 0.20764 0.47086 0.0
H706 H 0.06207 0.1633 0.34347 0.0
H707 H 0.07842 0.18614 0.29272 0.0
H708 H 0.01373 0.17984 0.41557 0.0
H709 H 0.07809 0.1482 0.50408 0.0
H710 H 0.07839 0.17162 0.4844 0.0
H711 H 0.07928 0.15166 0.43113 0.0
C712 C 0.06138 0.21602 0.40382 0.0
C713 C 0.07116 0.21027 0.35312 0.0
C714 C 0.05177 0.20291 0.43222 0.0
C715 C 0.05198 0.18385 0.41077 0.0
C716 C 0.06195 0.17798 0.36084 0.0
H717 H 0.9873 0.08571 0.46705 0.0
H718 H 1.00015 0.11344 0.42997 0.0
C719 C 0.07142 0.19105 0.33218 0.0
C720 C 0.0414 0.17001 0.43961 0.0
H721 H 0.04808 0.1328 0.51197 0.0
C722 C 0.02117 0.16962 0.43706 0.0
C723 C 0.05124 0.15684 0.4677 0.0
C724 C 0.07295 0.15707 0.47255 0.0
C725 C 0.01048 0.15597 0.46081 0.0
C726 C 0.02036 0.14245 0.48745 0.0
C727 C 0.04058 0.14319 0.49127 0.0
C728 C 0.01015 0.12709 0.51072 0.0
C729 C 0.98875 0.15606 0.45729 0.0
C730 C 0.01128 0.12578 0.56841 0.0
C731 C 1.00388 0.11005 0.5897 0.0
C732 C 0.99542 0.09522 0.55352 0.0
C733 C 0.99353 0.09697 0.49604 0.0
C734 C 1.0009 0.11278 0.47479 0.0
H735 H 0.98326 0.16962 0.44655 0.0
H736 H 0.98388 0.14477 0.42412 0.0
H737 H 0.98224 0.15329 0.49774 0.0
H738 H 0.01837 0.13671 0.59672 0.0
H739 H 0.00527 0.10925 0.63433 0.0
H740 H 0.27548 0.02444 0.43632 0.0
H741 H 0.29816 0.01294 0.50212 0.0
H742 H 0.34553 0.02343 0.39358 0.0
H743 H 0.32307 0.03458 0.32737 0.0
H744 H 0.3215 0.98181 0.47138 0.0
H745 H 0.36577 0.04408 0.55025 0.0
H746 H 0.34237 0.04584 0.51808 0.0
H747 H 0.36348 0.04102 0.47504 0.0
C748 C 0.29077 0.02455 0.42693 0.0
C749 C 0.29748 0.03036 0.37652 0.0
C750 C 0.30367 0.01805 0.46464 0.0
C751 C 0.32349 0.01751 0.45289 0.0
C752 C 0.33031 0.02413 0.404 0.0
H753 H 0.41585 0.94644 0.49353 0.0
H754 H 0.3851 0.96022 0.47148 0.0
C755 C 0.31744 0.03054 0.3662 0.0
C756 C 0.33691 0.00812 0.48783 0.0
H757 H 0.3805 0.01395 0.55379 0.0
C758 C 0.33421 0.9889 0.49053 0.0
C759 C 0.3533 0.01745 0.51337 0.0
C760 C 0.35632 0.03829 0.51459 0.0
C761 C 0.34821 0.97847 0.51479 0.0
C762 C 0.36536 0.98752 0.53607 0.0
C763 C 0.36741 0.00699 0.53688 0.0
C764 C 0.38214 0.97696 0.55286 0.0
C765 C 0.34472 0.95781 0.51611 0.0
C766 C 0.39059 0.98172 0.60599 0.0
C767 C 0.40827 0.97406 0.6184 0.0
C768 C 0.41786 0.96157 0.57772 0.0
C769 C 0.40887 0.95611 0.52555 0.0
C770 C 0.39119 0.9638 0.51315 0.0
H771 H 0.32903 0.95448 0.51633 0.0
H772 H 0.35103 0.94981 0.47784 0.0
H773 H 0.35153 0.953 0.55358 0.0
H774 H 0.3839 0.99197 0.63699 0.0
H775 H 0.41494 0.9788 0.6587 0.0
H776 H 0.43434 0.31589 0.53641 0.0
H777 H 0.45224 0.34328 0.57997 0.0
H778 H 0.50478 0.31125 0.56854 0.0
H779 H 0.48729 0.28417 0.52076 0.0
H780 H 0.47304 0.35197 0.67131 0.0
H781 H 0.52049 0.35349 0.48531 0.0
H782 H 0.49997 0.33792 0.48464 0.0
H783 H 0.52223 0.33239 0.51732 0.0
C784 C 0.44974 0.31466 0.54267 0.0
C785 C 0.45939 0.29788 0.52375 0.0
C786 C 0.45993 0.3303 0.56819 0.0
C787 C 0.47997 0.32949 0.5761 0.0
C788 C 0.48943 0.31239 0.56126 0.0
H789 H 0.53225 0.43114 0.76183 0.0
H790 H 0.52441 0.39797 0.73439 0.0
C791 C 0.4793 0.29679 0.53477 0.0
C792 C 0.49083 0.34685 0.59747 0.0
H793 H 0.52587 0.37685 0.56203 0.0
C794 C 0.48468 0.35737 0.64764 0.0
C795 C 0.50589 0.35397 0.56614 0.0
C796 C 0.51244 0.34397 0.51012 0.0
C797 C 0.49265 0.37509 0.66639 0.0
C798 C 0.50779 0.38216 0.6352 0.0
C799 C 0.51439 0.37134 0.58608 0.0
C800 C 0.51563 0.40146 0.6497 0.0
C801 C 0.48397 0.38642 0.71765 0.0
C802 C 0.51477 0.41415 0.60992 0.0
C803 C 0.51984 0.43297 0.62495 0.0
C804 C 0.52561 0.43945 0.68025 0.0
C805 C 0.52764 0.42652 0.71902 0.0
C806 C 0.52297 0.40762 0.7036 0.0
H807 H 0.46947 0.38105 0.72763 0.0
H808 H 0.49343 0.38555 0.75458 0.0
H809 H 0.4826 0.40139 0.71161 0.0
H810 H 0.50929 0.4097 0.56792 0.0
H811 H 0.51805 0.44263 0.59428 0.0
H812 H 0.2081 0.48541 0.22477 0.0
H813 H 0.18175 0.50206 0.27654 0.0
H814 H 0.2162 0.50834 0.42784 0.0
H815 H 0.24267 0.49143 0.37643 0.0
H816 H 0.16285 0.49229 0.3737 0.0
H817 H 0.19832 0.56241 0.41226 0.0
H818 H 0.20683 0.54395 0.3599 0.0
H819 H 0.212 0.54331 0.43302 0.0
C820 C 0.20999 0.49005 0.26928 0.0
C821 C 0.22742 0.48703 0.29665 0.0
C822 C 0.195 0.49973 0.29857 0.0
C823 C 0.19723 0.50668 0.35558 0.0
C824 C 0.21443 0.50341 0.38345 0.0
H825 H 0.12241 0.55743 0.61426 0.0
H826 H 0.1503 0.54825 0.55488 0.0
C827 C 0.22946 0.4937 0.35417 0.0
C828 C 0.1812 0.51675 0.38616 0.0
H829 H 0.16816 0.55903 0.45705 0.0
C830 C 0.16392 0.50691 0.39162 0.0
C831 C 0.18279 0.5358 0.40943 0.0
C832 C 0.20092 0.54709 0.40311 0.0
C833 C 0.14823 0.51549 0.42098 0.0
C834 C 0.14976 0.53457 0.44422 0.0
C835 C 0.16703 0.54447 0.43861 0.0
C836 C 0.13387 0.54396 0.47743 0.0
C837 C 0.13039 0.50387 0.42842 0.0
C838 C 0.11569 0.54561 0.45291 0.0
C839 C 0.09969 0.55057 0.48675 0.0
C840 C 0.10174 0.55412 0.54553 0.0
C841 C 0.12035 0.55436 0.56919 0.0
C842 C 0.1363 0.54925 0.53535 0.0
H843 H 0.13322 0.48859 0.41915 0.0
H844 H 0.12476 0.50685 0.472 0.0
H845 H 0.11898 0.5074 0.39914 0.0
H846 H 0.11366 0.5419 0.40801 0.0
H847 H 0.08557 0.55024 0.4672 0.0
H848 H 0.04313 0.77442 0.15169 0.0
H849 H 0.0492 0.79991 0.09484 0.0
H850 H 0.00529 0.83306 0.1872 0.0
H851 H 0.99919 0.8078 0.24389 0.0
H852 H 0.02415 0.81901 0.02699 0.0
H853 H 0.05372 0.86666 0.20802 0.0
H854 H 0.05049 0.84181 0.20958 0.0
H855 H 0.03026 0.85735 0.22083 0.0
C856 C 0.03466 0.78708 0.15937 0.0
C857 C 0.0209 0.78926 0.20275 0.0
C858 C 0.03817 0.80162 0.12706 0.0
C859 C 0.02799 0.8185 0.13777 0.0
C860 C 0.01365 0.82033 0.17928 0.0
H861 H 0.02221 0.92545 0.01639 0.0
H862 H 0.01785 0.89737 0.06279 0.0
C863 C 0.01018 0.80589 0.21159 0.0
C864 C 0.03246 0.83443 0.10653 0.0
H865 H 0.04658 0.8804 0.12533 0.0
C866 C 0.02924 0.83239 0.04825 0.0
C867 C 0.03916 0.85182 0.13452 0.0
C868 C 0.0438 0.85455 0.19659 0.0
C869 C 0.03187 0.84756 0.01751 0.0
C870 C 0.0381 0.86506 0.04586 0.0
C871 C 0.04169 0.86697 0.10388 0.0
C872 C 0.04058 0.88176 0.01646 0.0
C873 C 0.02739 0.84494 0.95538 0.0
C874 C 0.05493 0.88231 0.97549 0.0
C875 C 0.05745 0.89832 0.94888 0.0
C876 C 0.04566 0.91407 0.9629 0.0
C877 C 0.03135 0.91348 0.00421 0.0
C878 C 0.0289 0.89749 0.0309 0.0
H879 H 0.01905 0.83184 0.94233 0.0
H880 H 0.01907 0.85701 0.94381 0.0
H881 H 0.04111 0.84419 0.93136 0.0
H882 H 0.06427 0.8704 0.9644 0.0
H883 H 0.06847 0.8983 0.91688 0.0
H884 H 0.75906 0.07622 0.18822 0.0
H885 H 0.73077 0.08084 0.13009 0.0
H886 H 0.69339 0.06471 0.25945 0.0
H887 H 0.72139 0.05974 0.31717 0.0
H888 H 0.69234 0.04229 0.14447 0.0
H889 H 0.68313 0.11931 0.14728 0.0
H890 H 0.70712 0.10972 0.14025 0.0
H891 H 0.69427 0.10949 0.20497 0.0
C892 C 0.74479 0.07405 0.20471 0.0
C893 C 0.74247 0.06757 0.25723 0.0
C894 C 0.72868 0.07681 0.17166 0.0
C895 C 0.71008 0.07317 0.19077 0.0
C896 C 0.70767 0.06774 0.24435 0.0
H897 H 0.59452 0.07476 0.06351 0.0
H898 H 0.62467 0.08017 0.11659 0.0
C899 C 0.7237 0.06503 0.27741 0.0
C900 C 0.69337 0.07243 0.15242 0.0
H901 H 0.66149 0.0994 0.09074 0.0
C902 C 0.68563 0.05475 0.13242 0.0
C903 C 0.68476 0.08875 0.13716 0.0
C904 C 0.6926 0.10797 0.15851 0.0
C905 C 0.66925 0.05293 0.09785 0.0
C906 C 0.66055 0.06923 0.0826 0.0
C907 C 0.66834 0.08695 0.10234 0.0
C908 C 0.64279 0.06798 0.04826 0.0
C909 C 0.66109 0.0336 0.079 0.0
C910 C 0.64316 0.0597 0.99201 0.0
C911 C 0.62599 0.05663 0.96154 0.0
C912 C 0.60819 0.06181 0.98687 0.0
C913 C 0.608 0.07075 0.04266 0.0
C914 C 0.62518 0.07383 0.07307 0.0
H915 H 0.66745 0.02283 0.10259 0.0
H916 H 0.64517 0.03344 0.08447 0.0
H917 H 0.66421 0.02962 0.03364 0.0
H918 H 0.65668 0.05526 0.97212 0.0
H919 H 0.62664 0.05005 0.9183 0.0
H920 H 0.5331 0.68532 0.05329 0.0
H921 H 0.52962 0.65524 0.99391 0.0
H922 H 0.48736 0.67914 0.89235 0.0
H923 H 0.49041 0.7093 0.95312 0.0
H924 H 0.4763 0.645 0.91264 0.0
H925 H 0.5519 0.6416 0.84017 0.0
H926 H 0.55094 0.64459 0.91547 0.0
H927 H 0.54176 0.66267 0.8774 0.0
C928 C 0.52318 0.68419 0.01803 0.0
C929 C 0.5122 0.69965 0.00725 0.0
C930 C 0.52126 0.66703 0.98399 0.0
C931 C 0.50863 0.66508 0.93775 0.0
C932 C 0.49733 0.6804 0.9275 0.0
H933 H 0.5229 0.56124 0.71021 0.0
H934 H 0.51923 0.59455 0.74419 0.0
C935 C 0.49906 0.69757 0.96215 0.0
C936 C 0.50707 0.64684 0.90123 0.0
H937 H 0.53455 0.61221 0.83171 0.0
C938 C 0.48897 0.63792 0.89413 0.0
C939 C 0.52351 0.63781 0.87576 0.0
C940 C 0.54306 0.64728 0.87704 0.0
C941 C 0.48705 0.61977 0.86485 0.0
C942 C 0.50379 0.61008 0.84383 0.0
C943 C 0.52171 0.61944 0.84846 0.0
C944 C 0.50341 0.59003 0.81924 0.0
C945 C 0.46711 0.61125 0.85676 0.0
C946 C 0.49543 0.57635 0.84943 0.0
C947 C 0.49714 0.5573 0.82936 0.0
C948 C 0.50739 0.55161 0.77967 0.0
C949 C 0.51504 0.56527 0.7489 0.0
C950 C 0.51293 0.58429 0.76826 0.0
H951 H 0.45605 0.62228 0.85538 0.0
H952 H 0.46609 0.60127 0.81743 0.0
H953 H 0.46361 0.60365 0.89292 0.0
H954 H 0.48857 0.58032 0.88972 0.0
H955 H 0.4913 0.54702 0.85415 0.0
H956 H 0.77572 0.42189 0.10325 0.0
H957 H 0.80265 0.41457 0.0382 0.0
H958 H 0.84249 0.42125 0.17781 0.0
H959 H 0.81587 0.42887 0.24274 0.0
H960 H 0.83161 0.44102 0.0302 0.0
H961 H 0.86316 0.37474 0.08029 0.0
H962 H 0.83886 0.38179 0.09995 0.0
H963 H 0.85907 0.39133 0.14174 0.0
C964 C 0.79019 0.42147 0.12015 0.0
C965 C 0.79365 0.42607 0.17819 0.0
C966 C 0.80552 0.41718 0.08298 0.0
C967 C 0.82452 0.41717 0.10327 0.0
C968 C 0.82789 0.42072 0.16138 0.0
H969 H 0.94024 0.43333 0.01192 0.0
H970 H 0.9094 0.42573 0.05326 0.0
C971 C 0.81261 0.42508 0.19851 0.0
C972 C 0.84102 0.41631 0.06397 0.0
H973 H 0.88421 0.39485 0.03427 0.0
C974 C 0.84294 0.43069 0.03001 0.0
C975 C 0.85577 0.40288 0.06424 0.0
C976 C 0.85405 0.3867 0.09813 0.0
C977 C 0.85977 0.4327 0.99893 0.0
C978 C 0.87489 0.4197 1.00096 0.0
C979 C 0.8726 0.40481 0.03289 0.0
C980 C 0.89379 0.42236 0.97431 0.0
C981 C 0.86168 0.44938 0.967 0.0
C982 C 0.89531 0.42254 0.91604 0.0
C983 C 0.9129 0.42699 0.89233 0.0
C984 C 0.9293 0.43109 0.92649 0.0
C985 C 0.92789 0.4301 0.98449 0.0
C986 C 0.91029 0.42578 0.00817 0.0
H987 H 0.85045 0.46007 0.97928 0.0
H988 H 0.8761 0.45614 0.97417 0.0
H989 H 0.86011 0.44463 0.92129 0.0
H990 H 0.88281 0.41958 0.88907 0.0
H991 H 0.91366 0.42735 0.84737 0.0
H992 H 0.05564 0.19159 0.09104 0.0
H993 H 0.04789 0.1609 0.03962 0.0
H994 H 0.06868 0.17932 0.88621 0.0
H995 H 0.07691 0.21007 0.93802 0.0
H996 H 0.02425 0.14941 0.95537 0.0
H997 H 0.09933 0.13225 0.88836 0.0
H998 H 0.0936 0.15227 0.93884 0.0
H999 H 0.09058 0.1533 0.86475 0.0
C1000 C 0.05832 0.18922 0.04619 0.0
C1001 C 0.06687 0.20328 0.01858 0.0
C1002 C 0.05398 0.17161 0.01686 0.0
C1003 C 0.05804 0.16762 0.9592 0.0
C1004 C 0.06591 0.18186 0.93098 0.0
H1005 H 0.01006 0.06779 0.75834 0.0
H1006 H 0.01789 0.0999 0.79845 0.0
C1007 C 0.07048 0.19947 0.9605 0.0
C1008 C 0.054 0.14852 0.92928 0.0
H1009 H 0.07493 0.11074 0.85184 0.0
C1010 C 0.03534 0.14097 0.93269 0.0
C1011 C 0.06854 0.13735 0.90049 0.0
C1012 C 0.08918 0.1441 0.89827 0.0
C1013 C 0.03082 0.12262 0.9083 0.0
C1014 C 0.0452 0.11166 0.87796 0.0
C1015 C 0.06386 0.11919 0.87457 0.0
C1016 C 0.04125 0.09221 0.85067 0.0
C1017 C 0.01083 0.11501 0.91699 0.0
C1018 C 0.05239 0.07719 0.8644 0.0
C1019 C 0.04819 0.05877 0.84056 0.0
C1020 C 0.03268 0.05502 0.80282 0.0
C1021 C 0.02192 0.07014 0.78794 0.0
C1022 C 0.0263 0.08854 0.81113 0.0
H1023 H 1.00367 0.12284 0.95424 0.0
H1024 H 1.0018 0.11647 0.87958 0.0
H1025 H 0.01125 0.09994 0.92267 0.0
H1026 H 0.0641 0.07968 0.8945 0.0
H1027 H 0.05678 0.04746 0.85279 0.0
H1028 H 0.30117 0.01162 0.93588 0.0
H1029 H 0.33248 0.00804 0.88836 0.0
H1030 H 0.36035 0.00436 0.04733 0.0
H1031 H 0.32921 0.00778 0.09487 0.0
H1032 H 0.3639 0.0302 0.90061 0.0
H1033 H 0.38389 0.96019 0.95244 0.0
H1034 H 0.35981 0.96936 0.96294 0.0
H1035 H 0.37845 0.97618 0.01411 0.0
C1036 C 0.31394 0.00989 0.96069 0.0
C1037 C 0.31254 0.00982 0.01928 0.0
C1038 C 0.33187 0.00783 0.93342 0.0
C1039 C 0.34886 0.00562 0.96395 0.0
C1040 C 0.34748 0.00549 0.02237 0.0
H1041 H 0.46643 0.0304 0.86454 0.0
H1042 H 0.43382 0.03107 0.90388 0.0
C1043 C 0.32957 0.00745 0.0496 0.0
C1044 C 0.36809 0.0044 0.93534 0.0
H1045 H 0.40932 0.97838 0.91852 0.0
C1046 C 0.37376 0.01879 0.90424 0.0
C1047 C 0.38096 0.98939 0.93913 0.0
C1048 C 0.37541 0.97281 0.96845 0.0
C1049 C 0.392 0.01884 0.87827 0.0
C1050 C 0.40523 0.00433 0.88452 0.0
C1051 C 0.39936 0.98967 0.91429 0.0
C1052 C 0.42516 0.00401 0.86034 0.0
C1053 C 0.39675 0.03433 0.84361 0.0
C1054 C 0.4315 0.98837 0.82386 0.0
C1055 C 0.45027 0.98784 0.80186 0.0
C1056 C 0.46322 0.00295 0.81579 0.0
C1057 C 0.45686 0.01857 0.85249 0.0
C1058 C 0.43812 0.01903 0.87478 0.0
H1059 H 0.38347 0.0408 0.82899 0.0
H1060 H 0.4051 0.04547 0.86977 0.0
H1061 H 0.40557 0.02906 0.80631 0.0
H1062 H 0.42187 0.97657 0.81209 0.0
H1063 H 0.45457 0.97559 0.77367 0.0
H1064 H 0.43879 0.26931 0.1021 0.0
H1065 H 0.44548 0.29536 0.04846 0.0
H1066 H 0.47856 0.32334 0.18745 0.0
H1067 H 0.47155 0.29776 0.24199 0.0
H1068 H 0.435 0.33406 0.08838 0.0
H1069 H 0.51357 0.32584 0.04672 0.0
H1070 H 0.49842 0.30682 0.06388 0.0
H1071 H 0.50615 0.32493 0.11818 0.0
C1072 C 0.44757 0.28094 0.12123 0.0
C1073 C 0.45463 0.28135 0.17648 0.0
C1074 C 0.45146 0.29577 0.09037 0.0
C1075 C 0.46267 0.31117 0.11381 0.0
C1076 C 0.47019 0.31141 0.16819 0.0
H1077 H 0.49538 0.4193 0.01751 0.0
H1078 H 0.49206 0.3907 0.06239 0.0
C1079 C 0.46621 0.29669 0.19922 0.0
C1080 C 0.46527 0.32766 0.08332 0.0
H1081 H 0.49925 0.35389 0.02525 0.0
C1082 C 0.44901 0.33834 0.07409 0.0
C1083 C 0.4836 0.33329 0.0655 0.0
C1084 C 0.50146 0.32209 0.07358 0.0
C1085 C 0.45061 0.35474 0.04845 0.0
C1086 C 0.46894 0.36033 0.03006 0.0
C1087 C 0.48522 0.34959 0.03919 0.0
C1088 C 0.47149 0.37734 1.0016 0.0
C1089 C 0.43274 0.36625 0.04304 0.0
C1090 C 0.46138 0.37916 0.95186 0.0
C1091 C 0.46315 0.39551 0.92646 0.0
C1092 C 0.4753 0.41026 0.94981 0.0
C1093 C 0.48594 0.40815 0.99851 0.0
C1094 C 0.48403 0.39184 0.02422 0.0
H1095 H 0.42137 0.36315 0.07323 0.0
H1096 H 0.4361 0.38149 0.05028 0.0
H1097 H 0.42675 0.36283 0.99995 0.0
H1098 H 0.45207 0.36795 0.9327 0.0
H1099 H 0.45509 0.39657 0.8883 0.0
H1100 H 0.22883 0.51776 0.99405 0.0
H1101 H 0.19669 0.5221 0.95506 0.0
H1102 H 0.1878 0.46222 0.92967 0.0
H1103 H 0.21967 0.45776 0.96864 0.0
H1104 H 0.17592 0.4784 0.83871 0.0
H1105 H 0.14544 0.51659 0.0346 0.0
H1106 H 0.16684 0.52711 0.00976 0.0
H1107 H 0.16815 0.50444 0.03333 0.0
C1108 C 0.22004 0.50551 0.98028 0.0
C1109 C 0.22702 0.4874 0.98448 0.0
C1110 C 0.20159 0.50802 0.95811 0.0
C1111 C 0.18962 0.4925 0.94008 0.0
C1112 C 0.1967 0.47444 0.94318 0.0
H1113 H 0.06535 0.4877 0.88847 0.0
H1114 H 0.09854 0.48611 0.92233 0.0
C1115 C 0.21508 0.47191 0.9652 0.0
C1116 C 0.1697 0.49488 0.91806 0.0
H1117 H 0.12543 0.51356 0.95386 0.0
C1118 C 0.1649 0.48615 0.86385 0.0
C1119 C 0.15517 0.50474 0.95106 0.0
C1120 C 0.15903 0.51363 0.01061 0.0
C1121 C 0.14613 0.48702 0.84179 0.0
C1122 C 0.13169 0.4972 0.87434 0.0
C1123 C 0.13647 0.5059 0.92861 0.0
C1124 C 0.11144 0.49849 0.8536 0.0
C1125 C 0.14179 0.47653 0.78439 0.0
C1126 C 0.10745 0.50621 0.80394 0.0
C1127 C 0.08844 0.50705 0.78424 0.0
C1128 C 0.07288 0.50037 0.814 0.0
C1129 C 0.0769 0.49294 0.86424 0.0
C1130 C 0.09592 0.49206 0.88381 0.0
H1131 H 0.15268 0.46554 0.77168 0.0
H1132 H 0.12729 0.46981 0.78334 0.0
H1133 H 0.14204 0.48652 0.75283 0.0
H1134 H 0.11906 0.51165 0.78039 0.0
H1135 H 0.086 0.51292 0.74555 0.0
H1136 H 0.97492 0.78707 0.59992 0.0
H1137 H 0.97441 0.81974 0.64416 0.0
H1138 H 0.96479 0.83799 0.48223 0.0
H1139 H 0.96555 0.8056 0.43771 0.0
H1140 H 1.00181 0.84524 0.61479 0.0
H1141 H 0.92808 0.87143 0.58361 0.0
H1142 H 0.93349 0.84674 0.57859 0.0
H1143 H 0.93868 0.85953 0.52067 0.0
C1144 C 0.97229 0.79801 0.5739 0.0
C1145 C 0.97033 0.79367 0.51521 0.0
C1146 C 0.97193 0.81666 0.59927 0.0
C1147 C 0.96941 0.83128 0.56655 0.0
C1148 C 0.96632 0.82693 0.5085 0.0
H1149 H 0.99049 0.95078 0.59969 0.0
H1150 H 0.98117 0.91809 0.56916 0.0
C1151 C 0.96673 0.80832 0.48309 0.0
C1152 C 0.97269 0.85104 0.59138 0.0
H1153 H 0.95273 0.89468 0.60718 0.0
C1154 C 0.99099 0.85601 0.6139 0.0
C1155 C 0.95863 0.86509 0.58941 0.0
C1156 C 0.93855 0.86044 0.56723 0.0
C1157 C 0.99585 0.87473 0.63301 0.0
C1158 C 0.98185 0.88883 0.63072 0.0
C1159 C 0.96344 0.88384 0.60886 0.0
C1160 C 0.98626 0.90884 0.65019 0.0
C1161 C 0.01617 0.87929 0.65352 0.0
C1162 C 0.99178 0.91454 0.70613 0.0
C1163 C 0.99727 0.93311 0.72354 0.0
C1164 C 0.99711 0.94645 0.6855 0.0
C1165 C 0.99086 0.94086 0.62997 0.0
C1166 C 0.98548 0.9222 0.61249 0.0
H1167 H 0.02634 0.86783 0.63879 0.0
H1168 H 0.02151 0.89244 0.63903 0.0
H1169 H 0.01633 0.88124 0.70019 0.0
H1170 H 0.99207 0.90455 0.73624 0.0
H1171 H 1.00176 0.93695 0.76684 0.0
H1172 H 0.70929 0.01211 0.41211 0.0
H1173 H 0.67752 0.01085 0.4556 0.0
H1174 H 0.70117 0.97961 0.58086 0.0
H1175 H 0.73303 0.98037 0.53667 0.0
H1176 H 0.66479 0.96587 0.53793 0.0
H1177 H 0.6634 0.04263 0.60521 0.0
H1178 H 0.66777 0.03617 0.53141 0.0
H1179 H 0.68518 0.03039 0.58191 0.0
C1180 C 0.70773 0.00464 0.44826 0.0
C1181 C 0.72383 0.99635 0.47082 0.0
C1182 C 0.68956 0.00416 0.47356 0.0
C1183 C 0.687 0.99545 0.52215 0.0
C1184 C 0.70282 0.98656 0.54367 0.0
H1185 H 0.58857 0.01203 0.75106 0.0
H1186 H 0.62083 0.01033 0.70912 0.0
C1187 C 0.72106 0.98707 0.51847 0.0
C1188 C 0.6679 0.99591 0.55091 0.0
H1189 H 0.63431 0.02582 0.61617 0.0
C1190 C 0.65815 0.97897 0.55518 0.0
C1191 C 0.65934 0.01299 0.57423 0.0
C1192 C 0.6695 0.03159 0.57355 0.0
C1193 C 0.63989 0.97867 0.58087 0.0
C1194 C 0.63102 0.99579 0.60237 0.0
C1195 C 0.64099 0.0127 0.59928 0.0
C1196 C 0.61138 0.9965 0.62802 0.0
C1197 C 0.63036 0.95999 0.58539 0.0
C1198 C 0.59523 0.98951 0.59629 0.0
C1199 C 0.57675 0.99048 0.6201 0.0
C1200 C 0.57394 0.99854 0.67624 0.0
C1201 C 0.59014 0.00567 0.70781 0.0
C1202 C 0.60863 0.00472 0.68388 0.0
H1203 H 0.64099 0.94841 0.58109 0.0
H1204 H 0.62278 0.96018 0.62624 0.0
H1205 H 0.61955 0.95694 0.55117 0.0
H1206 H 0.59689 0.98348 0.55278 0.0
H1207 H 0.56466 0.98492 0.59432 0.0
H1208 H 0.58033 0.72495 0.34977 0.0
H1209 H 0.58837 0.69596 0.38869 0.0
H1210 H 0.5312 0.67425 0.34762 0.0
H1211 H 0.52324 0.70267 0.30785 0.0
H1212 H 0.56893 0.67917 0.47701 0.0
H1213 H 0.56732 0.63284 0.27351 0.0
H1214 H 0.56936 0.65805 0.27817 0.0
H1215 H 0.54621 0.64711 0.28529 0.0
C1216 C 0.56952 0.71396 0.34899 0.0
C1217 C 0.55111 0.7162 0.32603 0.0
C1218 C 0.57411 0.69746 0.37132 0.0
C1219 C 0.56046 0.68288 0.37024 0.0
C1220 C 0.54204 0.68521 0.3481 0.0
H1221 H 0.53651 0.57771 0.47852 0.0
H1222 H 0.53823 0.60723 0.43853 0.0
C1223 C 0.53744 0.70162 0.32608 0.0
C1224 C 0.56504 0.6652 0.39275 0.0
H1225 H 0.56467 0.61769 0.35656 0.0
C1226 C 0.56838 0.66572 0.45067 0.0
C1227 C 0.56435 0.6477 0.35813 0.0
C1228 C 0.56181 0.64634 0.29522 0.0
C1229 C 0.56988 0.64911 0.47541 0.0
C1230 C 0.56825 0.6316 0.44106 0.0
C1231 C 0.56579 0.63113 0.38282 0.0
C1232 C 0.56766 0.61364 0.46509 0.0
C1233 C 0.5722 0.65038 0.53836 0.0
C1234 C 0.58373 0.60733 0.49269 0.0
C1235 C 0.58277 0.59046 0.51584 0.0
C1236 C 0.5657 0.57961 0.51175 0.0
C1237 C 0.54976 0.58586 0.48321 0.0
C1238 C 0.55076 0.60267 0.46001 0.0
H1239 H 0.56983 0.66483 0.55976 0.0
H1240 H 0.56195 0.64071 0.55583 0.0
H1241 H 0.58706 0.64616 0.54829 0.0
H1242 H 0.59701 0.61546 0.49635 0.0
H1243 H 0.59526 0.58609 0.53782 0.0
H1244 H 0.80688 0.4738 0.52288 0.0
H1245 H 0.83843 0.47664 0.56901 0.0
H1246 H 0.85237 0.52403 0.48324 0.0
H1247 H 0.8206 0.52143 0.43709 0.0
H1248 H 0.8755 0.4751 0.51071 0.0
H1249 H 0.86516 0.54171 0.65335 0.0
H1250 H 0.84512 0.52762 0.62309 0.0
H1251 H 0.85874 0.54175 0.58062 0.0
C1252 C 0.81647 0.48508 0.51451 0.0
C1253 C 0.81106 0.49751 0.47655 0.0
C1254 C 0.83459 0.48657 0.54065 0.0
C1255 C 0.84772 0.50063 0.53004 0.0
C1256 C 0.84238 0.5132 0.49261 0.0
H1257 H 0.96379 0.52944 0.65778 0.0
H1258 H 0.93206 0.52889 0.61283 0.0
C1259 C 0.82426 0.51162 0.46599 0.0
C1260 C 0.86723 0.50154 0.55652 0.0
H1261 H 0.89599 0.52799 0.65273 0.0
C1262 C 0.87999 0.48666 0.5418 0.0
C1263 C 0.87313 0.51667 0.59677 0.0
C1264 C 0.85984 0.53284 0.61491 0.0
C1265 C 0.89853 0.48655 0.56579 0.0
C1266 C 0.90433 0.50149 0.60708 0.0
C1267 C 0.89159 0.51648 0.62139 0.0
C1268 C 0.92356 0.50187 0.63563 0.0
C1269 C 0.91188 0.47061 0.54548 0.0
C1270 C 0.92935 0.48705 0.66455 0.0
C1271 C 0.94761 0.48724 0.68993 0.0
C1272 C 0.96042 0.50242 0.68783 0.0
C1273 C 0.95436 0.5175 0.66026 0.0
C1274 C 0.93617 0.51721 0.63448 0.0
H1275 H 0.9077 0.46371 0.50295 0.0
H1276 H 0.92707 0.47555 0.54396 0.0
H1277 H 0.91105 0.45989 0.57472 0.0
H1278 H 0.91973 0.47529 0.6676 0.0
H1279 H 0.95164 0.47548 0.7113 0.0
loop_
_geom_bond_atom_site_label_1
_geom_bond_atom_site_label_2
_geom_bond_distance
_geom_bond_site_symmetry_2
_ccdc_geom_bond_type
P0 O11 1.490 . S
P0 C14 1.812 . S
P0 C20 1.803 . S
P0 C26 1.819 . S
H1 C15 0.941 . S
H2 C16 0.939 . S
H3 C18 0.940 . S
H4 C19 0.940 . S
H5 C21 0.939 . S
H6 C22 0.942 . S
H7 C24 0.940 . S
H8 C25 0.939 . S
H9 C27 0.941 . S
H10 C31 0.939 . S
O11 P0 1.490 . S
H12 C28 0.939 . S
H13 C30 0.940 . S
C14 P0 1.812 . S
C14 C15 1.389 . S
C14 C19 1.391 . S
C15 H1 0.941 . S
C15 C14 1.389 . S
C15 C16 1.397 . S
C16 H2 0.939 . S
C16 C15 1.397 . S
C16 C17 1.378 . S
C17 C16 1.378 . S
C17 C18 1.378 . S
C18 H3 0.940 . S
C18 C17 1.378 . S
C18 C19 1.396 . S
C19 H4 0.940 . S
C19 C14 1.391 . S
C19 C18 1.396 . S
C20 P0 1.803 . S
C20 C21 1.378 . S
C20 C25 1.400 . S
C21 H5 0.939 . S
C21 C20 1.378 . S
C21 C22 1.361 . S
C22 H6 0.942 . S
C22 C21 1.361 . S
C22 C23 1.369 . S
C23 C22 1.369 . S
C23 C24 1.404 . S
C24 H7 0.940 . S
C24 C23 1.404 . S
C24 C25 1.389 . S
C25 H8 0.939 . S
C25 C20 1.400 . S
C25 C24 1.389 . S
C26 P0 1.819 . S
C26 C27 1.391 . S
C26 C31 1.391 . S
C27 H9 0.941 . S
C27 C26 1.391 . S
C27 C28 1.396 . S
C28 H12 0.939 . S
C28 C27 1.396 . S
C28 C29 1.397 . S
C29 C28 1.397 . S
C29 C30 1.385 . S
C30 H13 0.940 . S
C30 C29 1.385 . S
C30 C31 1.388 . S
C31 H10 0.939 . S
C31 C26 1.391 . S
C31 C30 1.388 . S
P32 O43 1.490 1_655 S
P32 C46 1.812 . S
P32 C52 1.803 . S
P32 C58 1.819 . S
H33 C47 0.941 1_455 S
H34 C48 0.939 . S
H35 C50 0.940 . S
H36 C51 0.940 . S
H37 C53 0.939 1_455 S
H38 C54 0.942 . S
H39 C56 0.940 . S
H40 C57 0.939 . S
H41 C59 0.941 . S
H42 C63 0.939 . S
O43 P32 1.490 1_455 S
H44 C60 0.939 . S
H45 C62 0.940 . S
C46 P32 1.812 . S
C46 C47 1.389 . S
C46 C51 1.391 . S
C47 H33 0.941 1_655 S
C47 C46 1.389 . S
C47 C48 1.397 . S
C48 H34 0.939 . S
C48 C47 1.397 . S
C48 C49 1.378 . S
C49 C48 1.378 . S
C49 C50 1.378 . S
C50 H35 0.940 . S
C50 C49 1.378 . S
C50 C51 1.396 . S
C51 H36 0.940 . S
C51 C46 1.391 . S
C51 C50 1.396 . S
C52 P32 1.803 . S
C52 C53 1.378 . S
C52 C57 1.400 . S
C53 H37 0.939 1_655 S
C53 C52 1.378 . S
C53 C54 1.361 . S
C54 H38 0.942 . S
C54 C53 1.361 . S
C54 C55 1.369 . S
C55 C54 1.369 . S
C55 C56 1.404 . S
C56 H39 0.940 . S
C56 C55 1.404 . S
C56 C57 1.389 . S
C57 H40 0.939 . S
C57 C52 1.400 . S
C57 C56 1.389 . S
C58 P32 1.819 . S
C58 C59 1.391 . S
C58 C63 1.391 . S
C59 H41 0.941 . S
C59 C58 1.391 . S
C59 C60 1.396 . S
C60 H44 0.939 . S
C60 C59 1.396 . S
C60 C61 1.397 . S
C61 C60 1.397 . S
C61 C62 1.385 . S
C62 H45 0.940 . S
C62 C61 1.385 . S
C62 C63 1.388 . S
C63 H42 0.939 . S
C63 C58 1.391 . S
C63 C62 1.388 . S
P64 O75 1.490 . S
P64 C78 1.812 . S
P64 C84 1.803 . S
P64 C90 1.819 . S
H65 C79 0.941 . S
H66 C80 0.939 . S
H67 C82 0.940 . S
H68 C83 0.948 . S
H69 C85 0.939 . S
H70 C86 0.942 . S
H71 C88 0.940 . S
H72 C89 0.961 . S
H73 C91 0.941 . S
H74 C95 0.929 1_565 S
O75 P64 1.490 . S
H76 C92 0.939 . S
H77 C94 0.940 . S
C78 P64 1.812 . S
C78 C79 1.389 . S
C78 C83 1.375 1_545 S
C79 H65 0.941 . S
C79 C78 1.389 . S
C79 C80 1.397 . S
C80 H66 0.939 . S
C80 C79 1.397 . S
C80 C81 1.378 . S
C81 C80 1.378 . S
C81 C82 1.378 1_545 S
C82 H67 0.940 . S
C82 C81 1.378 1_565 S
C82 C83 1.405 . S
C83 H68 0.948 . S
C83 C78 1.375 1_565 S
C83 C82 1.405 . S
C84 P64 1.803 . S
C84 C85 1.378 . S
C84 C89 1.367 1_545 S
C85 H69 0.939 . S
C85 C84 1.378 . S
C85 C86 1.361 . S
C86 H70 0.942 . S
C86 C85 1.361 . S
C86 C87 1.369 . S
C87 C86 1.369 . S
C87 C88 1.404 1_545 S
C88 H71 0.940 . S
C88 C87 1.404 1_565 S
C88 C89 1.401 . S
C89 H72 0.961 . S
C89 C84 1.367 1_565 S
C89 C88 1.401 . S
C90 P64 1.819 . S
C90 C91 1.391 . S
C90 C95 1.391 . S
C91 H73 0.941 . S
C91 C90 1.391 . S
C91 C92 1.396 . S
C92 H76 0.939 . S
C92 C91 1.396 . S
C92 C93 1.397 . S
C93 C92 1.397 . S
C93 C94 1.385 1_545 S
C94 H77 0.940 . S
C94 C93 1.385 1_565 S
C94 C95 1.388 1_565 S
C95 H74 0.929 1_545 S
C95 C90 1.391 . S
C95 C94 1.388 1_545 S
P96 O107 1.490 . S
P96 C110 1.812 . S
P96 C116 1.803 1_554 S
P96 C122 1.819 1_554 S
H97 C111 0.941 . S
H98 C112 0.939 . S
H99 C114 0.940 . S
H100 C115 0.940 . S
H101 C117 0.939 . S
H102 C118 0.942 . S
H103 C120 0.940 1_554 S
H104 C121 0.939 . S
H105 C123 0.941 . S
H106 C127 0.939 . S
O107 P96 1.490 . S
H108 C124 0.939 . S
H109 C126 0.940 . S
C110 P96 1.812 . S
C110 C111 1.389 . S
C110 C115 1.391 . S
C111 H97 0.941 . S
C111 C110 1.389 . S
C111 C112 1.397 . S
C112 H98 0.939 . S
C112 C111 1.397 . S
C112 C113 1.378 . S
C113 C112 1.378 . S
C113 C114 1.378 . S
C114 H99 0.940 . S
C114 C113 1.378 . S
C114 C115 1.396 . S
C115 H100 0.940 . S
C115 C110 1.391 . S
C115 C114 1.396 . S
C116 P96 1.803 1_556 S
C116 C117 1.378 . S
C116 C121 1.400 1_556 S
C117 H101 0.939 . S
C117 C116 1.378 . S
C117 C118 1.361 . S
C118 H102 0.942 . S
C118 C117 1.361 . S
C118 C119 1.369 . S
C119 C118 1.369 . S
C119 C120 1.404 . S
C120 H103 0.940 1_556 S
C120 C119 1.404 . S
C120 C121 1.389 1_556 S
C121 H104 0.939 . S
C121 C116 1.400 1_554 S
C121 C120 1.389 1_554 S
C122 P96 1.819 1_556 S
C122 C123 1.391 . S
C122 C127 1.391 . S
C123 H105 0.941 . S
C123 C122 1.391 . S
C123 C124 1.396 . S
C124 H108 0.939 . S
C124 C123 1.396 . S
C124 C125 1.397 . S
C125 C124 1.397 . S
C125 C126 1.385 . S
C126 H109 0.940 . S
C126 C125 1.385 . S
C126 C127 1.388 . S
C127 H106 0.939 . S
C127 C122 1.391 . S
C127 C126 1.388 . S
P128 O139 1.490 . S
P128 C142 1.812 . S
P128 C148 1.803 . S
P128 C154 1.819 . S
H129 C143 0.941 . S
H130 C144 0.939 . S
H131 C146 0.940 . S
H132 C147 0.940 . S
H133 C149 0.939 . S
H134 C150 0.942 . S
H135 C152 0.940 . S
H136 C153 0.939 . S
H137 C155 0.941 . S
H138 C159 0.939 . S
O139 P128 1.490 . S
H140 C156 0.939 . S
H141 C158 0.940 . S
C142 P128 1.812 . S
C142 C143 1.389 . S
C142 C147 1.391 . S
C143 H129 0.941 . S
C143 C142 1.389 . S
C143 C144 1.397 1_554 S
C144 H130 0.939 . S
C144 C143 1.397 1_556 S
C144 C145 1.378 1_556 S
C145 C144 1.378 1_554 S
C145 C146 1.378 . S
C146 H131 0.940 . S
C146 C145 1.378 . S
C146 C147 1.396 . S
C147 H132 0.940 . S
C147 C142 1.391 . S
C147 C146 1.396 . S
C148 P128 1.803 . S
C148 C149 1.378 . S
C148 C153 1.400 . S
C149 H133 0.939 . S
C149 C148 1.378 . S
C149 C150 1.361 . S
C150 H134 0.942 . S
C150 C149 1.361 . S
C150 C151 1.369 . S
C151 C150 1.369 . S
C151 C152 1.404 . S
C152 H135 0.940 . S
C152 C151 1.404 . S
C152 C153 1.389 . S
C153 H136 0.939 . S
C153 C148 1.400 . S
C153 C152 1.389 . S
C154 P128 1.819 . S
C154 C155 1.391 . S
C154 C159 1.391 . S
C155 H137 0.941 . S
C155 C154 1.391 . S
C155 C156 1.396 . S
C156 H140 0.939 . S
C156 C155 1.396 . S
C156 C157 1.397 . S
C157 C156 1.397 . S
C157 C158 1.385 . S
C158 H141 0.940 . S
C158 C157 1.385 . S
C158 C159 1.388 . S
C159 H138 0.939 . S
C159 C154 1.391 . S
C159 C158 1.388 . S
P160 O171 1.490 . S
P160 C174 1.812 . S
P160 C180 1.803 . S
P160 C186 1.819 . S
H161 C175 0.941 . S
H162 C176 0.939 . S
H163 C178 0.940 . S
H164 C179 0.940 . S
H165 C181 0.939 . S
H166 C182 0.942 . S
H167 C184 0.940 . S
H168 C185 0.939 . S
H169 C187 0.941 . S
H170 C191 0.939 . S
O171 P160 1.490 . S
H172 C188 0.939 . S
H173 C190 0.940 . S
C174 P160 1.812 . S
C174 C175 1.389 . S
C174 C179 1.391 . S
C175 H161 0.941 . S
C175 C174 1.389 . S
C175 C176 1.397 . S
C176 H162 0.939 . S
C176 C175 1.397 . S
C176 C177 1.378 . S
C177 C176 1.378 . S
C177 C178 1.378 . S
C178 H163 0.940 . S
C178 C177 1.378 . S
C178 C179 1.396 . S
C179 H164 0.940 . S
C179 C174 1.391 . S
C179 C178 1.396 . S
C180 P160 1.803 . S
C180 C181 1.378 . S
C180 C185 1.400 . S
C181 H165 0.939 . S
C181 C180 1.378 . S
C181 C182 1.361 . S
C182 H166 0.942 . S
C182 C181 1.361 . S
C182 C183 1.369 . S
C183 C182 1.369 . S
C183 C184 1.404 . S
C184 H167 0.940 . S
C184 C183 1.404 . S
C184 C185 1.389 . S
C185 H168 0.939 . S
C185 C180 1.400 . S
C185 C184 1.389 . S
C186 P160 1.819 . S
C186 C187 1.391 . S
C186 C191 1.391 . S
C187 H169 0.941 . S
C187 C186 1.391 . S
C187 C188 1.396 . S
C188 H172 0.939 . S
C188 C187 1.396 . S
C188 C189 1.397 . S
C189 C188 1.397 . S
C189 C190 1.385 . S
C190 H173 0.940 . S
C190 C189 1.385 . S
C190 C191 1.388 . S
C191 H170 0.939 . S
C191 C186 1.391 . S
C191 C190 1.388 . S
P192 O203 1.490 . S
P192 C206 1.812 . S
P192 C212 1.803 . S
P192 C218 1.819 . S
H193 C207 0.941 . S
H194 C208 0.939 1_556 S
H195 C210 0.940 . S
H196 C211 0.942 . S
H197 C213 0.939 . S
H198 C214 0.942 . S
H199 C216 0.940 . S
H200 C217 0.949 . S
H201 C219 0.941 . S
H202 C223 0.934 1_565 S
O203 P192 1.490 . S
H204 C220 0.939 . S
H205 C222 0.940 . S
C206 P192 1.812 . S
C206 C207 1.389 . S
C206 C211 1.388 1_545 S
C207 H193 0.941 . S
C207 C206 1.389 . S
C207 C208 1.397 . S
C208 H194 0.939 1_554 S
C208 C207 1.397 . S
C208 C209 1.378 . S
C209 C208 1.378 . S
C209 C210 1.378 1_545 S
C210 H195 0.940 . S
C210 C209 1.378 1_565 S
C210 C211 1.397 . S
C211 H196 0.942 . S
C211 C206 1.388 1_565 S
C211 C210 1.397 . S
C212 P192 1.803 . S
C212 C213 1.378 . S
C212 C217 1.382 1_545 S
C213 H197 0.939 . S
C213 C212 1.378 . S
C213 C214 1.361 . S
C214 H198 0.942 . S
C214 C213 1.361 . S
C214 C215 1.369 . S
C215 C214 1.369 . S
C215 C216 1.404 1_545 S
C216 H199 0.940 . S
C216 C215 1.404 1_565 S
C216 C217 1.397 . S
C217 H200 0.949 . S
C217 C212 1.382 1_565 S
C217 C216 1.397 . S
C218 P192 1.819 . S
C218 C219 1.391 . S
C218 C223 1.391 . S
C219 H201 0.941 . S
C219 C218 1.391 . S
C219 C220 1.396 . S
C220 H204 0.939 . S
C220 C219 1.396 . S
C220 C221 1.397 . S
C221 C220 1.397 . S
C221 C222 1.385 1_545 S
C222 H205 0.940 . S
C222 C221 1.385 1_565 S
C222 C223 1.388 1_565 S
C223 H202 0.934 1_545 S
C223 C218 1.391 . S
C223 C222 1.388 1_545 S
P224 O235 1.490 . S
P224 C238 1.812 . S
P224 C244 1.803 . S
P224 C250 1.819 . S
H225 C239 0.941 . S
H226 C240 0.939 . S
H227 C242 0.940 . S
H228 C243 0.940 . S
H229 C245 0.939 . S
H230 C246 0.942 . S
H231 C248 0.940 . S
H232 C249 0.939 . S
H233 C251 0.941 . S
H234 C255 0.939 . S
O235 P224 1.490 . S
H236 C252 0.939 . S
H237 C254 0.940 . S
C238 P224 1.812 . S
C238 C239 1.389 . S
C238 C243 1.391 . S
C239 H225 0.941 . S
C239 C238 1.389 . S
C239 C240 1.397 . S
C240 H226 0.939 . S
C240 C239 1.397 . S
C240 C241 1.378 . S
C241 C240 1.378 . S
C241 C242 1.378 . S
C242 H227 0.940 . S
C242 C241 1.378 . S
C242 C243 1.396 . S
C243 H228 0.940 . S
C243 C238 1.391 . S
C243 C242 1.396 . S
C244 P224 1.803 . S
C244 C245 1.378 . S
C244 C249 1.400 . S
C245 H229 0.939 . S
C245 C244 1.378 . S
C245 C246 1.361 . S
C246 H230 0.942 . S
C246 C245 1.361 . S
C246 C247 1.369 . S
C247 C246 1.369 . S
C247 C248 1.404 . S
C248 H231 0.940 . S
C248 C247 1.404 . S
C248 C249 1.389 . S
C249 H232 0.939 . S
C249 C244 1.400 . S
C249 C248 1.389 . S
C250 P224 1.819 . S
C250 C251 1.391 . S
C250 C255 1.391 . S
C251 H233 0.941 . S
C251 C250 1.391 . S
C251 C252 1.396 . S
C252 H236 0.939 . S
C252 C251 1.396 . S
C252 C253 1.397 . S
C253 C252 1.397 . S
C253 C254 1.385 . S
C254 H237 0.940 . S
C254 C253 1.385 . S
C254 C255 1.388 . S
C255 H234 0.939 . S
C255 C250 1.391 . S
C255 C254 1.388 . S
Tb256 C265 2.764 1_655 S
Tb256 O266 2.308 1_655 S
Tb256 O269 2.260 1_655 S
Tb256 O273 2.331 1_545 S
Tb256 O274 2.386 . S
Tb256 O277 2.394 1_655 S
Tb256 O278 2.419 . S
Tb257 O267 2.322 1_565 S
Tb257 O268 2.349 . S
Tb257 O270 2.415 . S
Tb257 O271 2.399 . S
Tb257 O272 2.325 . S
Tb257 O275 2.303 1_455 S
Tb257 C286 2.764 . S
C258 O274 1.261 . S
C258 O275 1.257 1_545 S
C259 C262 1.311 1_455 S
C259 C263 1.379 . S
C259 C265 1.503 . S
C260 C261 1.373 1_455 S
C260 C264 1.308 . S
C261 C260 1.373 1_655 S
C261 C262 1.429 . S
C261 H288 0.932 . S
C262 C259 1.311 1_655 S
C262 C261 1.429 . S
C262 H289 0.930 . S
C263 C259 1.379 . S
C263 C264 1.394 . S
C263 H290 0.932 . S
C264 C260 1.308 . S
C264 C263 1.394 . S
C264 H291 0.929 . S
C265 Tb256 2.764 1_455 S
C265 C259 1.503 . S
C265 O277 1.249 . S
C265 O278 1.252 1_455 S
O266 Tb256 2.308 1_455 S
O266 C276 1.236 . S
O267 Tb257 2.322 1_545 S
O267 C276 1.257 . S
O268 Tb257 2.349 . S
O268 C279 1.261 . S
O269 Tb256 2.260 1_455 S
O269 C279 1.257 1_545 S
O270 Tb257 2.415 . S
O270 C286 1.239 . S
O271 Tb257 2.399 . S
O271 C286 1.263 . S
O272 Tb257 2.325 . S
O272 C287 1.215 1_455 S
O273 Tb256 2.331 1_565 S
O273 C287 1.268 . S
O274 Tb256 2.386 . S
O274 C258 1.261 . S
O275 Tb257 2.303 1_655 S
O275 C258 1.257 1_565 S
C276 O266 1.236 . S
C276 O267 1.257 . S
O277 Tb256 2.394 1_455 S
O277 C265 1.249 . S
O278 Tb256 2.419 . S
O278 C265 1.252 1_655 S
C279 O268 1.261 . S
C279 O269 1.257 1_565 S
C280 C283 1.358 . S
C280 C284 1.332 . S
C280 C286 1.504 . S
C281 C282 1.373 . S
C281 C285 1.308 . S
C282 C281 1.373 . S
C282 C283 1.429 . S
C282 H292 0.932 . S
C283 C280 1.358 . S
C283 C282 1.429 . S
C283 H293 0.930 . S
C284 C280 1.332 . S
C284 C285 1.394 . S
C284 H294 0.932 1_455 S
C285 C281 1.308 . S
C285 C284 1.394 . S
C285 H295 0.929 1_455 S
C286 Tb257 2.764 . S
C286 O270 1.239 . S
C286 O271 1.263 . S
C286 C280 1.504 . S
C287 O272 1.215 1_655 S
C287 O273 1.268 . S
H288 C261 0.932 . S
H289 C262 0.930 . S
H290 C263 0.932 . S
H291 C264 0.929 . S
H292 C282 0.932 . S
H293 C283 0.930 . S
H294 C284 0.932 1_655 S
H295 C285 0.929 1_655 S
Tb296 C305 2.764 . S
Tb296 O306 2.325 . S
Tb296 O309 2.303 1_565 S
Tb296 O313 2.322 . S
Tb296 O314 2.349 . S
Tb296 O317 2.415 1_565 S
Tb296 O318 2.399 . S
Tb297 O307 2.322 . S
Tb297 O308 2.349 . S
Tb297 O310 2.415 1_545 S
Tb297 O311 2.399 . S
Tb297 O312 2.325 . S
Tb297 O315 2.303 1_545 S
Tb297 C326 2.764 . S
C298 O314 1.261 . S
C298 O315 1.257 . S
C299 C302 1.358 . S
C299 C303 1.357 . S
C299 C305 1.504 . S
C300 C301 1.373 . S
C300 C304 1.308 . S
C301 C300 1.373 . S
C301 C302 1.429 . S
C301 H328 0.932 . S
C302 C299 1.358 . S
C302 C301 1.429 . S
C302 H329 0.930 . S
C303 C299 1.357 . S
C303 C304 1.395 . S
C303 H330 0.907 1_565 S
C304 C300 1.308 . S
C304 C303 1.395 . S
C304 H331 0.929 1_565 S
C305 Tb296 2.764 . S
C305 C299 1.504 . S
C305 O317 1.239 1_565 S
C305 O318 1.263 . S
O306 Tb296 2.325 . S
O306 C316 1.236 1_565 S
O307 Tb297 2.322 . S
O307 C316 1.257 . S
O308 Tb297 2.349 . S
O308 C319 1.261 . S
O309 Tb296 2.303 1_545 S
O309 C319 1.257 . S
O310 Tb297 2.415 1_565 S
O310 C326 1.239 1_565 S
O311 Tb297 2.399 . S
O311 C326 1.263 . S
O312 Tb297 2.325 . S
O312 C327 1.236 1_545 S
O313 Tb296 2.322 . S
O313 C327 1.257 . S
O314 Tb296 2.349 . S
O314 C298 1.261 . S
O315 Tb297 2.303 1_565 S
O315 C298 1.257 . S
C316 O306 1.236 1_545 S
C316 O307 1.257 . S
O317 Tb296 2.415 1_545 S
O317 C305 1.239 1_545 S
O318 Tb296 2.399 . S
O318 C305 1.263 . S
C319 O308 1.261 . S
C319 O309 1.257 . S
C320 C323 1.358 . S
C320 C324 1.368 . S
C320 C326 1.504 . S
C321 C322 1.373 . S
C321 C325 1.308 . S
C322 C321 1.373 . S
C322 C323 1.429 . S
C322 H332 0.932 . S
C323 C320 1.358 . S
C323 C322 1.429 . S
C323 H333 0.930 . S
C324 C320 1.368 . S
C324 C325 1.395 . S
C324 H334 0.895 1_545 S
C325 C321 1.308 . S
C325 C324 1.395 . S
C325 H335 0.929 1_545 S
C326 Tb297 2.764 . S
C326 O310 1.239 1_545 S
C326 O311 1.263 . S
C326 C320 1.504 . S
C327 O312 1.236 1_565 S
C327 O313 1.257 . S
H328 C301 0.932 . S
H329 C302 0.930 . S
H330 C303 0.907 1_545 S
H331 C304 0.929 1_545 S
H332 C322 0.932 . S
H333 C323 0.930 . S
H334 C324 0.895 1_565 S
H335 C325 0.929 1_565 S
Tb336 C345 2.764 . S
Tb336 O346 2.325 . S
Tb336 O349 2.303 . S
Tb336 O353 2.322 . S
Tb336 O354 2.349 . S
Tb336 O357 2.415 . S
Tb336 O358 2.399 . S
Tb337 O347 2.322 . S
Tb337 O348 2.349 . S
Tb337 O350 2.415 . S
Tb337 O351 2.399 . S
Tb337 O352 2.325 . S
Tb337 O355 2.303 . S
Tb337 C366 2.764 . S
C338 O354 1.261 . S
C338 O355 1.257 . S
C339 C342 1.358 . S
C339 C343 1.332 . S
C339 C345 1.504 . S
C340 C341 1.373 . S
C340 C344 1.308 . S
C341 C340 1.373 . S
C341 C342 1.429 . S
C341 H368 0.932 . S
C342 C339 1.358 . S
C342 C341 1.429 . S
C342 H369 0.930 . S
C343 C339 1.332 . S
C343 C344 1.394 . S
C343 H370 0.932 . S
C344 C340 1.308 . S
C344 C343 1.394 . S
C344 H371 0.929 . S
C345 Tb336 2.764 . S
C345 C339 1.504 . S
C345 O357 1.239 . S
C345 O358 1.263 . S
O346 Tb336 2.325 . S
O346 C356 1.236 . S
O347 Tb337 2.322 . S
O347 C356 1.257 . S
O348 Tb337 2.349 . S
O348 C359 1.261 . S
O349 Tb336 2.303 . S
O349 C359 1.257 . S
O350 Tb337 2.415 . S
O350 C366 1.239 . S
O351 Tb337 2.399 . S
O351 C366 1.263 . S
O352 Tb337 2.325 . S
O352 C367 1.236 . S
O353 Tb336 2.322 . S
O353 C367 1.257 . S
O354 Tb336 2.349 . S
O354 C338 1.261 . S
O355 Tb337 2.303 . S
O355 C338 1.257 . S
C356 O346 1.236 . S
C356 O347 1.257 . S
O357 Tb336 2.415 . S
O357 C345 1.239 . S
O358 Tb336 2.399 . S
O358 C345 1.263 . S
C359 O348 1.261 . S
C359 O349 1.257 . S
C360 C363 1.358 . S
C360 C364 1.332 . S
C360 C366 1.504 . S
C361 C362 1.373 . S
C361 C365 1.308 . S
C362 C361 1.373 . S
C362 C363 1.429 . S
C362 H372 0.932 . S
C363 C360 1.358 . S
C363 C362 1.429 . S
C363 H373 0.930 . S
C364 C360 1.332 . S
C364 C365 1.394 . S
C364 H374 0.932 . S
C365 C361 1.308 . S
C365 C364 1.394 . S
C365 H375 0.929 . S
C366 Tb337 2.764 . S
C366 O350 1.239 . S
C366 O351 1.263 . S
C366 C360 1.504 . S
C367 O352 1.236 . S
C367 O353 1.257 . S
H368 C341 0.932 . S
H369 C342 0.930 . S
H370 C343 0.932 . S
H371 C344 0.929 . S
H372 C362 0.932 . S
H373 C363 0.930 . S
H374 C364 0.932 . S
H375 C365 0.929 . S
Tb376 C385 2.764 . S
Tb376 O386 2.325 . S
Tb376 O389 2.303 . S
Tb376 O393 2.322 1_455 S
Tb376 O394 2.349 . S
Tb376 O397 2.415 . S
Tb376 O398 2.399 . S
Tb377 O387 2.336 . S
Tb377 O388 2.352 . S
Tb377 O390 2.404 1_455 S
Tb377 O391 2.389 1_455 S
Tb377 O392 2.317 1_455 S
Tb377 O395 2.305 . S
Tb377 C406 2.752 1_455 S
C378 O394 1.261 . S
C378 O395 1.257 . S
C379 C382 1.358 . S
C379 C383 1.332 . S
C379 C385 1.504 . S
C380 C381 1.373 . S
C380 C384 1.308 . S
C381 C380 1.373 . S
C381 C382 1.429 . S
C381 H408 0.932 . S
C382 C379 1.358 . S
C382 C381 1.429 . S
C382 H409 0.930 . S
C383 C379 1.332 . S
C383 C384 1.394 . S
C383 H410 0.932 . S
C384 C380 1.308 . S
C384 C383 1.394 . S
C384 H411 0.929 . S
C385 Tb376 2.764 . S
C385 C379 1.504 . S
C385 O397 1.239 . S
C385 O398 1.263 . S
O386 Tb376 2.325 . S
O386 C396 1.236 . S
O387 Tb377 2.336 . S
O387 C396 1.257 . S
O388 Tb377 2.352 . S
O388 C399 1.261 . S
O389 Tb376 2.303 . S
O389 C399 1.257 . S
O390 Tb377 2.404 1_655 S
O390 C406 1.239 . S
O391 Tb377 2.389 1_655 S
O391 C406 1.263 . S
O392 Tb377 2.317 1_655 S
O392 C407 1.236 . S
O393 Tb376 2.322 1_655 S
O393 C407 1.257 . S
O394 Tb376 2.349 . S
O394 C378 1.261 . S
O395 Tb377 2.305 . S
O395 C378 1.257 . S
C396 O386 1.236 . S
C396 O387 1.257 . S
O397 Tb376 2.415 . S
O397 C385 1.239 . S
O398 Tb376 2.399 . S
O398 C385 1.263 . S
C399 O388 1.261 . S
C399 O389 1.257 . S
C400 C403 1.358 . S
C400 C404 1.332 . S
C400 C406 1.504 . S
C401 C402 1.373 . S
C401 C405 1.308 . S
C402 C401 1.373 . S
C402 C403 1.429 . S
C402 H412 0.932 . S
C403 C400 1.358 . S
C403 C402 1.429 . S
C403 H413 0.930 . S
C404 C400 1.332 . S
C404 C405 1.394 . S
C404 H414 0.932 . S
C405 C401 1.308 . S
C405 C404 1.394 . S
C405 H415 0.929 . S
C406 Tb377 2.752 1_655 S
C406 O390 1.239 . S
C406 O391 1.263 . S
C406 C400 1.504 . S
C407 O392 1.236 . S
C407 O393 1.257 . S
H408 C381 0.932 . S
H409 C382 0.930 . S
H410 C383 0.932 . S
H411 C384 0.929 . S
H412 C402 0.932 . S
H413 C403 0.930 . S
H414 C404 0.932 . S
H415 C405 0.929 . S
H416 C424 0.929 . S
H417 C426 0.930 . S
H418 C428 0.930 . S
H419 C431 0.929 . S
H420 C434 0.930 . S
H421 C436 0.960 . S
H422 C436 0.960 . S
H423 C436 0.960 . S
C424 H416 0.929 . S
C424 C425 1.380 . S
C424 C426 1.384 . S
C425 C424 1.380 . S
C425 C431 1.387 1_545 S
C426 H417 0.930 . S
C426 C424 1.384 . S
C426 C427 1.413 . S
C427 C426 1.413 . S
C427 C428 1.363 1_545 S
C427 C432 1.487 . S
C428 H418 0.930 . S
C428 C427 1.363 1_565 S
C428 C431 1.386 . S
H429 C445 0.930 . S
H430 C446 0.931 . S
C431 H419 0.929 . S
C431 C425 1.387 1_565 S
C431 C428 1.386 . S
C432 C427 1.487 . S
C432 C434 1.395 . S
C432 C435 1.403 1_545 S
H433 C439 0.930 . S
C434 H420 0.930 . S
C434 C432 1.395 . S
C434 C437 1.403 . S
C435 C432 1.403 1_565 S
C435 C436 1.524 . S
C435 C439 1.400 . S
C436 H421 0.960 . S
C436 H422 0.960 . S
C436 H423 0.960 . S
C436 C435 1.524 . S
C437 C434 1.403 . S
C437 C438 1.392 . S
C437 C441 1.495 . S
C438 C437 1.392 . S
C438 C439 1.385 1_545 S
C438 C440 1.478 . S
C439 H433 0.930 . S
C439 C435 1.400 . S
C439 C438 1.385 1_565 S
C440 C438 1.478 . S
C440 C442 1.381 . S
C440 C446 1.383 1_545 S
C441 C437 1.495 . S
C441 H447 0.959 . S
C441 H448 0.961 . S
C441 H449 0.960 . S
C442 C440 1.381 . S
C442 C443 1.394 . S
C442 H450 0.930 . S
C443 C442 1.394 . S
C443 C444 1.378 1_545 S
C443 H451 0.929 . S
C444 C443 1.378 1_565 S
C444 C445 1.381 . S
C445 H429 0.930 . S
C445 C444 1.381 . S
C445 C446 1.379 . S
C446 H430 0.931 . S
C446 C440 1.383 1_565 S
C446 C445 1.379 . S
H447 C441 0.959 . S
H448 C441 0.961 . S
H449 C441 0.960 . S
H450 C442 0.930 . S
H451 C443 0.929 . S
H452 C460 0.929 . S
H453 C462 0.930 . S
H454 C464 0.930 . S
H455 C467 0.929 . S
H456 C470 0.930 . S
H457 C472 0.960 . S
H458 C472 0.960 . S
H459 C472 0.960 . S
C460 H452 0.929 . S
C460 C461 1.377 . S
C460 C462 1.384 . S
C461 C460 1.377 . S
C461 C467 1.390 . S
C462 H453 0.930 . S
C462 C460 1.384 . S
C462 C463 1.372 . S
C463 C462 1.372 . S
C463 C464 1.400 . S
C463 C468 1.490 . S
C464 H454 0.930 . S
C464 C463 1.400 . S
C464 C467 1.386 . S
H465 C481 0.930 . S
H466 C482 0.931 . S
C467 H455 0.929 . S
C467 C461 1.390 . S
C467 C464 1.386 . S
C468 C463 1.490 . S
C468 C470 1.395 . S
C468 C471 1.403 . S
H469 C475 0.930 . S
C470 H456 0.930 . S
C470 C468 1.395 . S
C470 C473 1.403 . S
C471 C468 1.403 . S
C471 C472 1.524 . S
C471 C475 1.400 . S
C472 H457 0.960 . S
C472 H458 0.960 . S
C472 H459 0.960 . S
C472 C471 1.524 . S
C473 C470 1.403 . S
C473 C474 1.392 . S
C473 C477 1.495 . S
C474 C473 1.392 . S
C474 C475 1.385 . S
C474 C476 1.478 . S
C475 H469 0.930 . S
C475 C471 1.400 . S
C475 C474 1.385 . S
C476 C474 1.478 . S
C476 C478 1.381 . S
C476 C482 1.383 . S
C477 C473 1.495 . S
C477 H483 0.959 . S
C477 H484 0.961 . S
C477 H485 0.960 . S
C478 C476 1.381 . S
C478 C479 1.394 . S
C478 H486 0.930 . S
C479 C478 1.394 . S
C479 C480 1.383 . S
C479 H487 0.929 . S
C480 C479 1.383 . S
C480 C481 1.377 . S
C481 H465 0.930 . S
C481 C480 1.377 . S
C481 C482 1.379 . S
C482 H466 0.931 . S
C482 C476 1.383 . S
C482 C481 1.379 . S
H483 C477 0.959 . S
H484 C477 0.961 . S
H485 C477 0.960 . S
H486 C478 0.930 . S
H487 C479 0.929 . S
H488 C496 0.929 . S
H489 C498 0.930 . S
H490 C500 0.930 . S
H491 C503 0.929 . S
H492 C506 0.930 . S
H493 C508 0.960 . S
H494 C508 0.960 . S
H495 C508 0.960 . S
C496 H488 0.929 . S
C496 C497 1.377 . S
C496 C498 1.384 . S
C497 C496 1.377 . S
C497 C503 1.390 . S
C498 H489 0.930 . S
C498 C496 1.384 . S
C498 C499 1.372 . S
C499 C498 1.372 . S
C499 C500 1.400 . S
C499 C504 1.490 . S
C500 H490 0.930 . S
C500 C499 1.400 . S
C500 C503 1.386 . S
H501 C517 0.930 . S
H502 C518 0.931 . S
C503 H491 0.929 . S
C503 C497 1.390 . S
C503 C500 1.386 . S
C504 C499 1.490 . S
C504 C506 1.395 . S
C504 C507 1.403 . S
H505 C511 0.930 . S
C506 H492 0.930 . S
C506 C504 1.395 . S
C506 C509 1.403 . S
C507 C504 1.403 . S
C507 C508 1.524 . S
C507 C511 1.400 . S
C508 H493 0.960 . S
C508 H494 0.960 . S
C508 H495 0.960 . S
C508 C507 1.524 . S
C509 C506 1.403 . S
C509 C510 1.392 . S
C509 C513 1.495 . S
C510 C509 1.392 . S
C510 C511 1.385 . S
C510 C512 1.478 . S
C511 H505 0.930 . S
C511 C507 1.400 . S
C511 C510 1.385 . S
C512 C510 1.478 . S
C512 C514 1.381 . S
C512 C518 1.383 . S
C513 C509 1.495 . S
C513 H519 0.959 . S
C513 H520 0.961 . S
C513 H521 0.960 . S
C514 C512 1.381 . S
C514 C515 1.394 . S
C514 H522 0.930 . S
C515 C514 1.394 . S
C515 C516 1.383 . S
C515 H523 0.929 . S
C516 C515 1.383 . S
C516 C517 1.377 . S
C517 H501 0.930 . S
C517 C516 1.377 . S
C517 C518 1.379 . S
C518 H502 0.931 . S
C518 C512 1.383 . S
C518 C517 1.379 . S
H519 C513 0.959 . S
H520 C513 0.961 . S
H521 C513 0.960 . S
H522 C514 0.930 . S
H523 C515 0.929 . S
H524 C532 0.929 . S
H525 C534 0.930 . S
H526 C536 0.930 . S
H527 C539 0.929 . S
H528 C542 0.930 . S
H529 C544 0.966 1_655 S
H530 C544 0.960 . S
H531 C544 0.960 . S
C532 H524 0.929 . S
C532 C533 1.377 . S
C532 C534 1.384 . S
C533 C532 1.377 . S
C533 C539 1.390 . S
C534 H525 0.930 . S
C534 C532 1.384 . S
C534 C535 1.372 . S
C535 C534 1.372 . S
C535 C536 1.400 . S
C535 C540 1.490 . S
C536 H526 0.930 . S
C536 C535 1.400 . S
C536 C539 1.386 . S
H537 C553 0.930 . S
H538 C554 0.931 . S
C539 H527 0.929 . S
C539 C533 1.390 . S
C539 C536 1.386 . S
C540 C535 1.490 . S
C540 C542 1.395 . S
C540 C543 1.403 . S
H541 C547 0.930 . S
C542 H528 0.930 . S
C542 C540 1.395 . S
C542 C545 1.403 . S
C543 C540 1.403 . S
C543 C544 1.524 . S
C543 C547 1.400 . S
C544 H529 0.966 1_455 S
C544 H530 0.960 . S
C544 H531 0.960 . S
C544 C543 1.524 . S
C545 C542 1.403 . S
C545 C546 1.392 . S
C545 C549 1.495 . S
C546 C545 1.392 . S
C546 C547 1.385 . S
C546 C548 1.478 . S
C547 H541 0.930 . S
C547 C543 1.400 . S
C547 C546 1.385 . S
C548 C546 1.478 . S
C548 C550 1.381 . S
C548 C554 1.383 . S
C549 C545 1.495 . S
C549 H555 0.959 . S
C549 H556 0.961 . S
C549 H557 0.960 . S
C550 C548 1.381 . S
C550 C551 1.394 . S
C550 H558 0.930 . S
C551 C550 1.394 . S
C551 C552 1.383 . S
C551 H559 0.929 . S
C552 C551 1.383 . S
C552 C553 1.377 . S
C553 H537 0.930 . S
C553 C552 1.377 . S
C553 C554 1.379 . S
C554 H538 0.931 . S
C554 C548 1.383 . S
C554 C553 1.379 . S
H555 C549 0.959 . S
H556 C549 0.961 . S
H557 C549 0.960 . S
H558 C550 0.930 . S
H559 C551 0.929 . S
H560 C568 0.929 . S
H561 C570 0.930 . S
H562 C572 0.930 . S
H563 C575 0.929 . S
H564 C578 0.930 . S
H565 C580 0.960 1_556 S
H566 C580 0.960 . S
H567 C580 0.960 . S
C568 H560 0.929 . S
C568 C569 1.395 . S
C568 C570 1.384 . S
C569 C568 1.395 . S
C569 C575 1.376 1_545 S
C570 H561 0.930 . S
C570 C568 1.384 . S
C570 C571 1.372 . S
C571 C570 1.372 . S
C571 C572 1.400 1_545 S
C571 C576 1.490 . S
C572 H562 0.930 . S
C572 C571 1.400 1_565 S
C572 C575 1.386 . S
H573 C589 0.930 . S
H574 C590 0.931 . S
C575 H563 0.929 . S
C575 C569 1.376 1_565 S
C575 C572 1.386 . S
C576 C571 1.490 . S
C576 C578 1.395 1_545 S
C576 C579 1.403 . S
H577 C583 0.930 . S
C578 H564 0.930 . S
C578 C576 1.395 1_565 S
C578 C581 1.403 . S
C579 C576 1.403 . S
C579 C580 1.524 . S
C579 C583 1.400 1_554 S
C580 H565 0.960 1_554 S
C580 H566 0.960 . S
C580 H567 0.960 . S
C580 C579 1.524 . S
C581 C578 1.403 . S
C581 C582 1.388 1_565 S
C581 C585 1.495 . S
C582 C581 1.388 1_545 S
C582 C583 1.388 1_554 S
C582 C584 1.479 1_544 S
C583 H577 0.930 . S
C583 C579 1.400 1_556 S
C583 C582 1.388 1_556 S
C584 C582 1.479 1_566 S
C584 C586 1.380 1_565 S
C584 C590 1.384 . S
C585 C581 1.495 . S
C585 H591 0.959 . S
C585 H592 0.961 . S
C585 H593 0.960 1_565 S
C586 C584 1.380 1_545 S
C586 C587 1.394 . S
C586 H594 0.930 . S
C587 C586 1.394 . S
C587 C588 1.405 . S
C587 H595 0.929 . S
C588 C587 1.405 . S
C588 C589 1.351 1_545 S
C589 H573 0.930 . S
C589 C588 1.351 1_565 S
C589 C590 1.379 . S
C590 H574 0.931 . S
C590 C584 1.384 . S
C590 C589 1.379 . S
H591 C585 0.959 . S
H592 C585 0.961 . S
H593 C585 0.960 1_545 S
H594 C586 0.930 . S
H595 C587 0.929 . S
H596 C604 0.929 . S
H597 C606 0.930 . S
H598 C608 0.930 . S
H599 C611 0.929 1_554 S
H600 C614 0.930 . S
H601 C616 0.960 . S
H602 C616 0.960 . S
H603 C616 0.960 . S
C604 H596 0.929 . S
C604 C605 1.377 . S
C604 C606 1.384 . S
C605 C604 1.377 . S
C605 C611 1.390 . S
C606 H597 0.930 . S
C606 C604 1.384 . S
C606 C607 1.372 . S
C607 C606 1.372 . S
C607 C608 1.400 . S
C607 C612 1.490 . S
C608 H598 0.930 . S
C608 C607 1.400 . S
C608 C611 1.386 . S
H609 C625 0.930 . S
H610 C626 0.931 . S
C611 H599 0.929 1_556 S
C611 C605 1.390 . S
C611 C608 1.386 . S
C612 C607 1.490 . S
C612 C614 1.395 . S
C612 C615 1.403 . S
H613 C619 0.930 . S
C614 H600 0.930 . S
C614 C612 1.395 . S
C614 C617 1.403 . S
C615 C612 1.403 . S
C615 C616 1.524 . S
C615 C619 1.400 . S
C616 H601 0.960 . S
C616 H602 0.960 . S
C616 H603 0.960 . S
C616 C615 1.524 . S
C617 C614 1.403 . S
C617 C618 1.392 . S
C617 C621 1.495 . S
C618 C617 1.392 . S
C618 C619 1.385 . S
C618 C620 1.478 . S
C619 H613 0.930 . S
C619 C615 1.400 . S
C619 C618 1.385 . S
C620 C618 1.478 . S
C620 C622 1.381 . S
C620 C626 1.383 . S
C621 C617 1.495 . S
C621 H627 0.959 . S
C621 H628 0.961 . S
C621 H629 0.960 . S
C622 C620 1.381 . S
C622 C623 1.394 . S
C622 H630 0.930 . S
C623 C622 1.394 . S
C623 C624 1.383 . S
C623 H631 0.929 . S
C624 C623 1.383 . S
C624 C625 1.377 . S
C625 H609 0.930 . S
C625 C624 1.377 . S
C625 C626 1.379 . S
C626 H610 0.931 . S
C626 C620 1.383 . S
C626 C625 1.379 . S
H627 C621 0.959 . S
H628 C621 0.961 . S
H629 C621 0.960 . S
H630 C622 0.930 . S
H631 C623 0.929 . S
H632 C640 0.929 . S
H633 C642 0.930 . S
H634 C644 0.930 . S
H635 C647 0.929 . S
H636 C650 0.930 . S
H637 C652 0.960 . S
H638 C652 0.960 . S
H639 C652 0.960 . S
C640 H632 0.929 . S
C640 C641 1.377 . S
C640 C642 1.384 . S
C641 C640 1.377 . S
C641 C647 1.390 . S
C642 H633 0.930 . S
C642 C640 1.384 . S
C642 C643 1.372 . S
C643 C642 1.372 . S
C643 C644 1.400 . S
C643 C648 1.490 . S
C644 H634 0.930 . S
C644 C643 1.400 . S
C644 C647 1.386 . S
H645 C661 0.930 . S
H646 C662 0.931 . S
C647 H635 0.929 . S
C647 C641 1.390 . S
C647 C644 1.386 . S
C648 C643 1.490 . S
C648 C650 1.395 . S
C648 C651 1.403 . S
H649 C655 0.930 . S
C650 H636 0.930 . S
C650 C648 1.395 . S
C650 C653 1.403 1_554 S
C651 C648 1.403 . S
C651 C652 1.524 . S
C651 C655 1.400 . S
C652 H637 0.960 . S
C652 H638 0.960 . S
C652 H639 0.960 . S
C652 C651 1.524 . S
C653 C650 1.403 1_556 S
C653 C654 1.392 . S
C653 C657 1.495 . S
C654 C653 1.392 . S
C654 C655 1.385 1_556 S
C654 C656 1.478 . S
C655 H649 0.930 . S
C655 C651 1.400 . S
C655 C654 1.385 1_554 S
C656 C654 1.478 . S
C656 C658 1.381 . S
C656 C662 1.383 . S
C657 C653 1.495 . S
C657 H663 0.959 . S
C657 H664 0.961 . S
C657 H665 0.960 . S
C658 C656 1.381 . S
C658 C659 1.394 . S
C658 H666 0.930 . S
C659 C658 1.394 . S
C659 C660 1.383 . S
C659 H667 0.929 . S
C660 C659 1.383 . S
C660 C661 1.377 . S
C661 H645 0.930 . S
C661 C660 1.377 . S
C661 C662 1.379 . S
C662 H646 0.931 . S
C662 C656 1.383 . S
C662 C661 1.379 . S
H663 C657 0.959 . S
H664 C657 0.961 . S
H665 C657 0.960 . S
H666 C658 0.930 . S
H667 C659 0.929 . S
H668 C676 0.929 . S
H669 C678 0.930 . S
H670 C680 0.930 . S
H671 C683 0.929 . S
H672 C686 0.930 1_455 S
H673 C688 0.960 1_556 S
H674 C688 0.960 . S
H675 C688 0.960 . S
C676 H668 0.929 . S
C676 C677 1.377 . S
C676 C678 1.384 . S
C677 C676 1.377 . S
C677 C683 1.390 . S
C678 H669 0.930 . S
C678 C676 1.384 . S
C678 C679 1.372 . S
C679 C678 1.372 . S
C679 C680 1.400 . S
C679 C684 1.490 . S
C680 H670 0.930 . S
C680 C679 1.400 . S
C680 C683 1.386 . S
H681 C697 0.930 . S
H682 C698 0.931 . S
C683 H671 0.929 . S
C683 C677 1.390 . S
C683 C680 1.386 . S
C684 C679 1.490 . S
C684 C686 1.395 . S
C684 C687 1.403 . S
H685 C691 0.930 . S
C686 H672 0.930 1_655 S
C686 C684 1.395 . S
C686 C689 1.403 1_655 S
C687 C684 1.403 . S
C687 C688 1.524 . S
C687 C691 1.400 1_554 S
C688 H673 0.960 1_554 S
C688 H674 0.960 . S
C688 H675 0.960 . S
C688 C687 1.524 . S
C689 C686 1.403 1_455 S
C689 C690 1.392 1_454 S
C689 C693 1.495 . S
C690 C689 1.392 1_656 S
C690 C691 1.385 . S
C690 C692 1.478 . S
C691 H685 0.930 . S
C691 C687 1.400 1_556 S
C691 C690 1.385 . S
C692 C690 1.478 . S
C692 C694 1.381 1_655 S
C692 C698 1.383 . S
C693 C689 1.495 . S
C693 H699 0.959 . S
C693 H700 0.961 . S
C693 H701 0.960 1_554 S
C694 C692 1.381 1_455 S
C694 C695 1.394 . S
C694 H702 0.930 . S
C695 C694 1.394 . S
C695 C696 1.383 . S
C695 H703 0.929 . S
C696 C695 1.383 . S
C696 C697 1.377 1_455 S
C697 H681 0.930 . S
C697 C696 1.377 1_655 S
C697 C698 1.379 . S
C698 H682 0.931 . S
C698 C692 1.383 . S
C698 C697 1.379 . S
H699 C693 0.959 . S
H700 C693 0.961 . S
H701 C693 0.960 1_556 S
H702 C694 0.930 . S
H703 C695 0.929 . S
H704 C712 0.929 . S
H705 C714 0.930 . S
H706 C716 0.930 . S
H707 C719 0.929 . S
H708 C722 0.930 . S
H709 C724 0.960 . S
H710 C724 0.960 . S
H711 C724 0.960 . S
C712 H704 0.929 . S
C712 C713 1.377 . S
C712 C714 1.384 . S
C713 C712 1.377 . S
C713 C719 1.390 . S
C714 H705 0.930 . S
C714 C712 1.384 . S
C714 C715 1.372 . S
C715 C714 1.372 . S
C715 C716 1.400 . S
C715 C720 1.490 . S
C716 H706 0.930 . S
C716 C715 1.400 . S
C716 C719 1.386 . S
H717 C733 0.930 . S
H718 C734 0.931 . S
C719 H707 0.929 . S
C719 C713 1.390 . S
C719 C716 1.386 . S
C720 C715 1.490 . S
C720 C722 1.395 . S
C720 C723 1.403 . S
H721 C727 0.930 . S
C722 H708 0.930 . S
C722 C720 1.395 . S
C722 C725 1.403 . S
C723 C720 1.403 . S
C723 C724 1.524 . S
C723 C727 1.400 . S
C724 H709 0.960 . S
C724 H710 0.960 . S
C724 H711 0.960 . S
C724 C723 1.524 . S
C725 C722 1.403 . S
C725 C726 1.392 . S
C725 C729 1.495 1_455 S
C726 C725 1.392 . S
C726 C727 1.385 . S
C726 C728 1.478 . S
C727 H721 0.930 . S
C727 C723 1.400 . S
C727 C726 1.385 . S
C728 C726 1.478 . S
C728 C730 1.381 . S
C728 C734 1.383 . S
C729 C725 1.495 1_655 S
C729 H735 0.959 . S
C729 H736 0.961 . S
C729 H737 0.960 . S
C730 C728 1.381 . S
C730 C731 1.394 . S
C730 H738 0.930 . S
C731 C730 1.394 . S
C731 C732 1.383 1_455 S
C731 H739 0.929 . S
C732 C731 1.383 1_655 S
C732 C733 1.377 . S
C733 H717 0.930 . S
C733 C732 1.377 . S
C733 C734 1.379 1_655 S
C734 H718 0.931 . S
C734 C728 1.383 . S
C734 C733 1.379 1_455 S
H735 C729 0.959 . S
H736 C729 0.961 . S
H737 C729 0.960 . S
H738 C730 0.930 . S
H739 C731 0.929 . S
H740 C748 0.929 . S
H741 C750 0.930 . S
H742 C752 0.930 . S
H743 C755 0.929 . S
H744 C758 0.930 . S
H745 C760 0.960 . S
H746 C760 0.960 . S
H747 C760 0.960 . S
C748 H740 0.929 . S
C748 C749 1.377 1_565 S
C748 C750 1.384 . S
C749 C748 1.377 1_545 S
C749 C755 1.390 . S
C750 H741 0.930 . S
C750 C748 1.384 . S
C750 C751 1.372 . S
C751 C750 1.372 . S
C751 C752 1.400 1_565 S
C751 C756 1.490 . S
C752 H742 0.930 . S
C752 C751 1.400 1_545 S
C752 C755 1.386 . S
H753 C769 0.930 . S
H754 C770 0.931 . S
C755 H743 0.929 . S
C755 C749 1.390 . S
C755 C752 1.386 . S
C756 C751 1.490 . S
C756 C758 1.395 . S
C756 C759 1.403 1_565 S
H757 C763 0.930 . S
C758 H744 0.930 . S
C758 C756 1.395 . S
C758 C761 1.403 . S
C759 C756 1.403 1_545 S
C759 C760 1.524 . S
C759 C763 1.400 . S
C760 H745 0.960 . S
C760 H746 0.960 . S
C760 H747 0.960 . S
C760 C759 1.524 . S
C761 C758 1.403 . S
C761 C762 1.392 . S
C761 C765 1.495 . S
C762 C761 1.392 . S
C762 C763 1.385 1_565 S
C762 C764 1.478 . S
C763 H757 0.930 . S
C763 C759 1.400 . S
C763 C762 1.385 1_545 S
C764 C762 1.478 . S
C764 C766 1.381 . S
C764 C770 1.383 . S
C765 C761 1.495 . S
C765 H771 0.959 . S
C765 H772 0.961 . S
C765 H773 0.960 . S
C766 C764 1.381 . S
C766 C767 1.394 . S
C766 H774 0.930 . S
C767 C766 1.394 . S
C767 C768 1.383 . S
C767 H775 0.929 . S
C768 C767 1.383 . S
C768 C769 1.377 . S
C769 H753 0.930 . S
C769 C768 1.377 . S
C769 C770 1.379 . S
C770 H754 0.931 . S
C770 C764 1.383 . S
C770 C769 1.379 . S
H771 C765 0.959 . S
H772 C765 0.961 . S
H773 C765 0.960 . S
H774 C766 0.930 . S
H775 C767 0.929 . S
H776 C784 0.929 . S
H777 C786 0.930 . S
H778 C788 0.930 . S
H779 C791 0.929 . S
H780 C794 0.930 . S
H781 C796 0.960 . S
H782 C796 0.960 . S
H783 C796 0.960 . S
C784 H776 0.929 . S
C784 C785 1.377 . S
C784 C786 1.384 . S
C785 C784 1.377 . S
C785 C791 1.390 . S
C786 H777 0.930 . S
C786 C784 1.384 . S
C786 C787 1.372 . S
C787 C786 1.372 . S
C787 C788 1.400 . S
C787 C792 1.490 . S
C788 H778 0.930 . S
C788 C787 1.400 . S
C788 C791 1.386 . S
H789 C805 0.930 . S
H790 C806 0.931 . S
C791 H779 0.929 . S
C791 C785 1.390 . S
C791 C788 1.386 . S
C792 C787 1.490 . S
C792 C794 1.395 . S
C792 C795 1.403 . S
H793 C799 0.930 . S
C794 H780 0.930 . S
C794 C792 1.395 . S
C794 C797 1.403 . S
C795 C792 1.403 . S
C795 C796 1.524 . S
C795 C799 1.400 . S
C796 H781 0.960 . S
C796 H782 0.960 . S
C796 H783 0.960 . S
C796 C795 1.524 . S
C797 C794 1.403 . S
C797 C798 1.392 . S
C797 C801 1.495 . S
C798 C797 1.392 . S
C798 C799 1.385 . S
C798 C800 1.478 . S
C799 H793 0.930 . S
C799 C795 1.400 . S
C799 C798 1.385 . S
C800 C798 1.478 . S
C800 C802 1.381 . S
C800 C806 1.383 . S
C801 C797 1.495 . S
C801 H807 0.959 . S
C801 H808 0.961 . S
C801 H809 0.960 . S
C802 C800 1.381 . S
C802 C803 1.394 . S
C802 H810 0.930 . S
C803 C802 1.394 . S
C803 C804 1.383 . S
C803 H811 0.929 . S
C804 C803 1.383 . S
C804 C805 1.377 . S
C805 H789 0.930 . S
C805 C804 1.377 . S
C805 C806 1.379 . S
C806 H790 0.931 . S
C806 C800 1.383 . S
C806 C805 1.379 . S
H807 C801 0.959 . S
H808 C801 0.961 . S
H809 C801 0.960 . S
H810 C802 0.930 . S
H811 C803 0.929 . S
H812 C820 0.929 . S
H813 C822 0.930 . S
H814 C824 0.930 . S
H815 C827 0.929 . S
H816 C830 0.930 . S
H817 C832 0.960 . S
H818 C832 0.960 . S
H819 C832 0.960 . S
C820 H812 0.929 . S
C820 C821 1.377 . S
C820 C822 1.384 . S
C821 C820 1.377 . S
C821 C827 1.390 . S
C822 H813 0.930 . S
C822 C820 1.384 . S
C822 C823 1.372 . S
C823 C822 1.372 . S
C823 C824 1.400 . S
C823 C828 1.490 . S
C824 H814 0.930 . S
C824 C823 1.400 . S
C824 C827 1.386 . S
H825 C841 0.930 . S
H826 C842 0.931 . S
C827 H815 0.929 . S
C827 C821 1.390 . S
C827 C824 1.386 . S
C828 C823 1.490 . S
C828 C830 1.395 . S
C828 C831 1.403 . S
H829 C835 0.930 . S
C830 H816 0.930 . S
C830 C828 1.395 . S
C830 C833 1.403 . S
C831 C828 1.403 . S
C831 C832 1.524 . S
C831 C835 1.400 . S
C832 H817 0.960 . S
C832 H818 0.960 . S
C832 H819 0.960 . S
C832 C831 1.524 . S
C833 C830 1.403 . S
C833 C834 1.392 . S
C833 C837 1.495 . S
C834 C833 1.392 . S
C834 C835 1.385 . S
C834 C836 1.478 . S
C835 H829 0.930 . S
C835 C831 1.400 . S
C835 C834 1.385 . S
C836 C834 1.478 . S
C836 C838 1.381 . S
C836 C842 1.383 . S
C837 C833 1.495 . S
C837 H843 0.959 . S
C837 H844 0.961 . S
C837 H845 0.960 . S
C838 C836 1.381 . S
C838 C839 1.394 . S
C838 H846 0.930 . S
C839 C838 1.394 . S
C839 C840 1.383 . S
C839 H847 0.929 . S
C840 C839 1.383 . S
C840 C841 1.377 . S
C841 H825 0.930 . S
C841 C840 1.377 . S
C841 C842 1.379 . S
C842 H826 0.931 . S
C842 C836 1.383 . S
C842 C841 1.379 . S
H843 C837 0.959 . S
H844 C837 0.961 . S
H845 C837 0.960 . S
H846 C838 0.930 . S
H847 C839 0.929 . S
H848 C856 0.929 . S
H849 C858 0.891 1_455 S
H850 C860 0.930 . S
H851 C863 0.929 . S
H852 C866 0.930 1_556 S
H853 C868 0.960 . S
H854 C868 0.960 . S
H855 C868 0.960 . S
C856 H848 0.929 . S
C856 C857 1.377 . S
C856 C858 1.384 . S
C857 C856 1.377 . S
C857 C863 1.390 . S
C858 H849 0.891 1_655 S
C858 C856 1.384 . S
C858 C859 1.372 . S
C859 C858 1.372 . S
C859 C860 1.400 . S
C859 C864 1.490 . S
C860 H850 0.930 . S
C860 C859 1.400 . S
C860 C863 1.386 . S
H861 C877 0.930 1_655 S
H862 C878 0.983 . S
C863 H851 0.929 . S
C863 C857 1.390 . S
C863 C860 1.386 . S
C864 C859 1.490 . S
C864 C866 1.395 . S
C864 C867 1.403 . S
H865 C871 0.930 . S
C866 H852 0.930 1_554 S
C866 C864 1.395 . S
C866 C869 1.403 1_654 S
C867 C864 1.403 . S
C867 C868 1.524 . S
C867 C871 1.400 . S
C868 H853 0.960 . S
C868 H854 0.960 . S
C868 H855 0.960 . S
C868 C867 1.524 . S
C869 C866 1.403 1_456 S
C869 C870 1.396 . S
C869 C873 1.495 . S
C870 C869 1.396 . S
C870 C871 1.371 1_456 S
C870 C872 1.487 . S
C871 H865 0.930 . S
C871 C867 1.400 . S
C871 C870 1.371 1_654 S
C872 C870 1.487 . S
C872 C874 1.381 . S
C872 C878 1.352 1_455 S
C873 C869 1.495 . S
C873 H879 0.959 . S
C873 H880 0.961 . S
C873 H881 0.960 . S
C874 C872 1.381 . S
C874 C875 1.394 . S
C874 H882 0.930 . S
C875 C874 1.394 . S
C875 C876 1.383 . S
C875 H883 0.929 . S
C876 C875 1.383 . S
C876 C877 1.377 . S
C877 H861 0.930 1_455 S
C877 C876 1.377 . S
C877 C878 1.360 1_455 S
C878 H862 0.983 . S
C878 C872 1.352 1_655 S
C878 C877 1.360 1_655 S
H879 C873 0.959 . S
H880 C873 0.961 . S
H881 C873 0.960 . S
H882 C874 0.930 . S
H883 C875 0.929 . S
H884 C892 0.929 . S
H885 C894 0.930 . S
H886 C896 0.930 . S
H887 C899 0.929 . S
H888 C902 0.930 . S
H889 C904 0.960 . S
H890 C904 0.960 . S
H891 C904 0.960 . S
C892 H884 0.929 . S
C892 C893 1.377 1_545 S
C892 C894 1.384 . S
C893 C892 1.377 1_565 S
C893 C899 1.390 . S
C894 H885 0.930 . S
C894 C892 1.384 . S
C894 C895 1.372 . S
C895 C894 1.372 . S
C895 C896 1.400 1_545 S
C895 C900 1.490 . S
C896 H886 0.930 . S
C896 C895 1.400 1_565 S
C896 C899 1.386 . S
H897 C913 0.930 . S
H898 C914 0.931 . S
C899 H887 0.929 . S
C899 C893 1.390 . S
C899 C896 1.386 . S
C900 C895 1.490 . S
C900 C902 1.395 1_545 S
C900 C903 1.403 . S
H901 C907 0.930 . S
C902 H888 0.930 . S
C902 C900 1.395 1_565 S
C902 C905 1.403 . S
C903 C900 1.403 . S
C903 C904 1.524 . S
C903 C907 1.400 . S
C904 H889 0.960 . S
C904 H890 0.960 . S
C904 H891 0.960 . S
C904 C903 1.524 . S
C905 C902 1.403 . S
C905 C906 1.392 1_565 S
C905 C909 1.495 1_554 S
C906 C905 1.392 1_545 S
C906 C907 1.385 . S
C906 C908 1.478 . S
C907 H901 0.930 . S
C907 C903 1.400 . S
C907 C906 1.385 . S
C908 C906 1.478 . S
C908 C910 1.381 1_554 S
C908 C914 1.383 . S
C909 C905 1.495 1_556 S
C909 H915 0.959 . S
C909 H916 0.961 . S
C909 H917 0.960 . S
C910 C908 1.381 1_556 S
C910 C911 1.394 . S
C910 H918 0.930 . S
C911 C910 1.394 . S
C911 C912 1.383 . S
C911 H919 0.929 . S
C912 C911 1.383 . S
C912 C913 1.377 1_556 S
C913 H897 0.930 . S
C913 C912 1.377 1_554 S
C913 C914 1.379 . S
C914 H898 0.931 . S
C914 C908 1.383 . S
C914 C913 1.379 . S
H915 C909 0.959 . S
H916 C909 0.961 . S
H917 C909 0.960 . S
H918 C910 0.930 . S
H919 C911 0.929 . S
H920 C928 0.929 . S
H921 C930 0.930 . S
H922 C932 0.930 . S
H923 C935 0.929 . S
H924 C938 0.930 . S
H925 C940 0.960 . S
H926 C940 0.960 . S
H927 C940 0.960 . S
C928 H920 0.929 . S
C928 C929 1.377 . S
C928 C930 1.384 . S
C929 C928 1.377 . S
C929 C935 1.390 . S
C930 H921 0.930 . S
C930 C928 1.384 . S
C930 C931 1.372 . S
C931 C930 1.372 . S
C931 C932 1.400 . S
C931 C936 1.490 . S
C932 H922 0.930 . S
C932 C931 1.400 . S
C932 C935 1.386 . S
H933 C949 0.930 . S
H934 C950 0.931 . S
C935 H923 0.929 . S
C935 C929 1.390 . S
C935 C932 1.386 . S
C936 C931 1.490 . S
C936 C938 1.395 . S
C936 C939 1.403 . S
H937 C943 0.930 . S
C938 H924 0.930 . S
C938 C936 1.395 . S
C938 C941 1.403 . S
C939 C936 1.403 . S
C939 C940 1.524 . S
C939 C943 1.400 . S
C940 H925 0.960 . S
C940 H926 0.960 . S
C940 H927 0.960 . S
C940 C939 1.524 . S
C941 C938 1.403 . S
C941 C942 1.392 . S
C941 C945 1.495 . S
C942 C941 1.392 . S
C942 C943 1.385 . S
C942 C944 1.478 . S
C943 H937 0.930 . S
C943 C939 1.400 . S
C943 C942 1.385 . S
C944 C942 1.478 . S
C944 C946 1.381 . S
C944 C950 1.383 . S
C945 C941 1.495 . S
C945 H951 0.959 . S
C945 H952 0.961 . S
C945 H953 0.960 . S
C946 C944 1.381 . S
C946 C947 1.394 . S
C946 H954 0.930 . S
C947 C946 1.394 . S
C947 C948 1.383 . S
C947 H955 0.929 . S
C948 C947 1.383 . S
C948 C949 1.377 . S
C949 H933 0.930 . S
C949 C948 1.377 . S
C949 C950 1.379 . S
C950 H934 0.931 . S
C950 C944 1.383 . S
C950 C949 1.379 . S
H951 C945 0.959 . S
H952 C945 0.961 . S
H953 C945 0.960 . S
H954 C946 0.930 . S
H955 C947 0.929 . S
H956 C964 0.929 . S
H957 C966 0.930 . S
H958 C968 0.930 . S
H959 C971 0.929 . S
H960 C974 0.930 . S
H961 C976 0.960 . S
H962 C976 0.960 . S
H963 C976 0.960 . S
C964 H956 0.929 . S
C964 C965 1.377 . S
C964 C966 1.384 . S
C965 C964 1.377 . S
C965 C971 1.390 . S
C966 H957 0.930 . S
C966 C964 1.384 . S
C966 C967 1.372 . S
C967 C966 1.372 . S
C967 C968 1.400 . S
C967 C972 1.490 . S
C968 H958 0.930 . S
C968 C967 1.400 . S
C968 C971 1.386 . S
H969 C985 0.930 1_554 S
H970 C986 0.931 . S
C971 H959 0.929 . S
C971 C965 1.390 . S
C971 C968 1.386 . S
C972 C967 1.490 . S
C972 C974 1.395 . S
C972 C975 1.403 . S
H973 C979 0.930 . S
C974 H960 0.930 . S
C974 C972 1.395 . S
C974 C977 1.403 . S
C975 C972 1.403 . S
C975 C976 1.524 . S
C975 C979 1.400 . S
C976 H961 0.960 . S
C976 H962 0.960 . S
C976 H963 0.960 . S
C976 C975 1.524 . S
C977 C974 1.403 . S
C977 C978 1.392 . S
C977 C981 1.495 1_554 S
C978 C977 1.392 . S
C978 C979 1.385 . S
C978 C980 1.478 1_554 S
C979 H973 0.930 . S
C979 C975 1.400 . S
C979 C978 1.385 . S
C980 C978 1.478 1_556 S
C980 C982 1.381 . S
C980 C986 1.383 1_556 S
C981 C977 1.495 1_556 S
C981 H987 0.959 1_556 S
C981 H988 0.961 1_556 S
C981 H989 0.960 . S
C982 C980 1.381 . S
C982 C983 1.394 . S
C982 H990 0.930 . S
C983 C982 1.394 . S
C983 C984 1.383 . S
C983 H991 0.929 . S
C984 C983 1.383 . S
C984 C985 1.377 . S
C985 H969 0.930 1_556 S
C985 C984 1.377 . S
C985 C986 1.379 1_556 S
C986 H970 0.931 . S
C986 C980 1.383 1_554 S
C986 C985 1.379 1_554 S
H987 C981 0.959 1_554 S
H988 C981 0.961 1_554 S
H989 C981 0.960 . S
H990 C982 0.930 . S
H991 C983 0.929 . S
H992 C1000 0.929 . S
H993 C1002 0.930 . S
H994 C1004 0.930 . S
H995 C1007 0.929 . S
H996 C1010 0.930 . S
H997 C1012 0.960 . S
H998 C1012 0.960 . S
H999 C1012 0.960 . S
C1000 H992 0.929 . S
C1000 C1001 1.369 1_554 S
C1000 C1002 1.384 . S
C1001 C1000 1.369 1_556 S
C1001 C1007 1.401 . S
C1002 H993 0.930 . S
C1002 C1000 1.384 . S
C1002 C1003 1.372 1_554 S
C1003 C1002 1.372 1_556 S
C1003 C1004 1.400 . S
C1003 C1008 1.490 . S
C1004 H994 0.930 . S
C1004 C1003 1.400 . S
C1004 C1007 1.386 . S
H1005 C1021 0.930 . S
H1006 C1022 0.931 . S
C1007 H995 0.929 . S
C1007 C1001 1.401 . S
C1007 C1004 1.386 . S
C1008 C1003 1.490 . S
C1008 C1010 1.395 . S
C1008 C1011 1.403 . S
H1009 C1015 0.930 . S
C1010 H996 0.930 . S
C1010 C1008 1.395 . S
C1010 C1013 1.403 . S
C1011 C1008 1.403 . S
C1011 C1012 1.524 . S
C1011 C1015 1.400 . S
C1012 H997 0.960 . S
C1012 H998 0.960 . S
C1012 H999 0.960 . S
C1012 C1011 1.524 . S
C1013 C1010 1.403 . S
C1013 C1014 1.392 . S
C1013 C1017 1.495 . S
C1014 C1013 1.392 . S
C1014 C1015 1.385 . S
C1014 C1016 1.478 . S
C1015 H1009 0.930 . S
C1015 C1011 1.400 . S
C1015 C1014 1.385 . S
C1016 C1014 1.478 . S
C1016 C1018 1.381 . S
C1016 C1022 1.383 . S
C1017 C1013 1.495 . S
C1017 H1023 0.959 1_455 S
C1017 H1024 0.961 . S
C1017 H1025 0.971 . S
C1018 C1016 1.381 . S
C1018 C1019 1.394 . S
C1018 H1026 0.930 . S
C1019 C1018 1.394 . S
C1019 C1020 1.383 . S
C1019 H1027 0.929 . S
C1020 C1019 1.383 . S
C1020 C1021 1.377 . S
C1021 H1005 0.930 . S
C1021 C1020 1.377 . S
C1021 C1022 1.379 . S
C1022 H1006 0.931 . S
C1022 C1016 1.383 . S
C1022 C1021 1.379 . S
H1023 C1017 0.959 1_655 S
H1024 C1017 0.961 . S
H1025 C1017 0.971 . S
H1026 C1018 0.930 . S
H1027 C1019 0.929 . S
H1028 C1036 0.929 . S
H1029 C1038 0.930 . S
H1030 C1040 0.922 1_554 S
H1031 C1043 0.929 1_554 S
H1032 C1046 0.930 . S
H1033 C1048 0.959 1_554 S
H1034 C1048 0.960 . S
H1035 C1048 0.960 1_554 S
C1036 H1028 0.929 . S
C1036 C1037 1.371 1_565 S
C1036 C1038 1.384 . S
C1037 C1036 1.371 1_545 S
C1037 C1043 1.397 . S
C1038 H1029 0.930 . S
C1038 C1036 1.384 . S
C1038 C1039 1.354 1_565 S
C1039 C1038 1.354 1_545 S
C1039 C1040 1.416 . S
C1039 C1044 1.494 . S
C1040 H1030 0.922 1_556 S
C1040 C1039 1.416 . S
C1040 C1043 1.386 . S
H1041 C1057 0.930 . S
H1042 C1058 0.931 . S
C1043 H1031 0.929 1_556 S
C1043 C1037 1.397 . S
C1043 C1040 1.386 . S
C1044 C1039 1.494 . S
C1044 C1046 1.395 . S
C1044 C1047 1.403 1_545 S
H1045 C1051 0.930 . S
C1046 H1032 0.930 . S
C1046 C1044 1.395 . S
C1046 C1049 1.403 . S
C1047 C1044 1.403 1_565 S
C1047 C1048 1.524 . S
C1047 C1051 1.400 . S
C1048 H1033 0.959 1_556 S
C1048 H1034 0.960 . S
C1048 H1035 0.960 1_556 S
C1048 C1047 1.524 . S
C1049 C1046 1.403 . S
C1049 C1050 1.392 . S
C1049 C1053 1.495 . S
C1050 C1049 1.392 . S
C1050 C1051 1.385 1_545 S
C1050 C1052 1.478 . S
C1051 H1045 0.930 . S
C1051 C1047 1.400 . S
C1051 C1050 1.385 1_565 S
C1052 C1050 1.478 . S
C1052 C1054 1.381 1_545 S
C1052 C1058 1.383 . S
C1053 C1049 1.495 . S
C1053 H1059 0.959 . S
C1053 H1060 0.961 . S
C1053 H1061 0.960 . S
C1054 C1052 1.381 1_565 S
C1054 C1055 1.394 . S
C1054 H1062 0.930 . S
C1055 C1054 1.394 . S
C1055 C1056 1.383 1_565 S
C1055 H1063 0.929 . S
C1056 C1055 1.383 1_545 S
C1056 C1057 1.377 . S
C1057 H1041 0.930 . S
C1057 C1056 1.377 . S
C1057 C1058 1.379 . S
C1058 H1042 0.931 . S
C1058 C1052 1.383 . S
C1058 C1057 1.379 . S
H1059 C1053 0.959 . S
H1060 C1053 0.961 . S
H1061 C1053 0.960 . S
H1062 C1054 0.930 . S
H1063 C1055 0.929 . S
H1064 C1072 0.929 . S
H1065 C1074 0.930 . S
H1066 C1076 0.930 . S
H1067 C1079 0.929 . S
H1068 C1082 0.930 . S
H1069 C1084 0.960 . S
H1070 C1084 0.960 . S
H1071 C1084 0.960 . S
C1072 H1064 0.929 . S
C1072 C1073 1.377 . S
C1072 C1074 1.384 . S
C1073 C1072 1.377 . S
C1073 C1079 1.390 . S
C1074 H1065 0.930 . S
C1074 C1072 1.384 . S
C1074 C1075 1.372 . S
C1075 C1074 1.372 . S
C1075 C1076 1.400 . S
C1075 C1080 1.490 . S
C1076 H1066 0.930 . S
C1076 C1075 1.400 . S
C1076 C1079 1.386 . S
H1077 C1093 0.930 . S
H1078 C1094 0.931 . S
C1079 H1067 0.929 . S
C1079 C1073 1.390 . S
C1079 C1076 1.386 . S
C1080 C1075 1.490 . S
C1080 C1082 1.395 . S
C1080 C1083 1.403 . S
H1081 C1087 0.930 . S
C1082 H1068 0.930 . S
C1082 C1080 1.395 . S
C1082 C1085 1.403 . S
C1083 C1080 1.403 . S
C1083 C1084 1.524 . S
C1083 C1087 1.400 . S
C1084 H1069 0.960 . S
C1084 H1070 0.960 . S
C1084 H1071 0.960 . S
C1084 C1083 1.524 . S
C1085 C1082 1.403 . S
C1085 C1086 1.392 . S
C1085 C1089 1.495 . S
C1086 C1085 1.392 . S
C1086 C1087 1.385 . S
C1086 C1088 1.478 . S
C1087 H1081 0.930 . S
C1087 C1083 1.400 . S
C1087 C1086 1.385 . S
C1088 C1086 1.478 . S
C1088 C1090 1.381 . S
C1088 C1094 1.383 . S
C1089 C1085 1.495 . S
C1089 H1095 0.959 . S
C1089 H1096 0.961 . S
C1089 H1097 0.960 . S
C1090 C1088 1.381 . S
C1090 C1091 1.394 . S
C1090 H1098 0.930 . S
C1091 C1090 1.394 . S
C1091 C1092 1.383 . S
C1091 H1099 0.929 1_554 S
C1092 C1091 1.383 . S
C1092 C1093 1.377 . S
C1093 H1077 0.930 . S
C1093 C1092 1.377 . S
C1093 C1094 1.379 . S
C1094 H1078 0.931 . S
C1094 C1088 1.383 . S
C1094 C1093 1.379 . S
H1095 C1089 0.959 . S
H1096 C1089 0.961 . S
H1097 C1089 0.960 . S
H1098 C1090 0.930 . S
H1099 C1091 0.929 1_556 S
H1100 C1108 0.929 . S
H1101 C1110 0.930 . S
H1102 C1112 0.930 . S
H1103 C1115 0.929 . S
H1104 C1118 0.930 . S
H1105 C1120 0.960 . S
H1106 C1120 0.960 1_554 S
H1107 C1120 0.960 . S
C1108 H1100 0.929 . S
C1108 C1109 1.377 . S
C1108 C1110 1.384 . S
C1109 C1108 1.377 . S
C1109 C1115 1.390 . S
C1110 H1101 0.930 . S
C1110 C1108 1.384 . S
C1110 C1111 1.372 . S
C1111 C1110 1.372 . S
C1111 C1112 1.400 . S
C1111 C1116 1.490 . S
C1112 H1102 0.930 . S
C1112 C1111 1.400 . S
C1112 C1115 1.386 . S
H1113 C1129 0.930 . S
H1114 C1130 0.931 . S
C1115 H1103 0.929 . S
C1115 C1109 1.390 . S
C1115 C1112 1.386 . S
C1116 C1111 1.490 . S
C1116 C1118 1.395 . S
C1116 C1119 1.403 . S
H1117 C1123 0.930 . S
C1118 H1104 0.930 . S
C1118 C1116 1.395 . S
C1118 C1121 1.403 . S
C1119 C1116 1.403 . S
C1119 C1120 1.524 . S
C1119 C1123 1.400 . S
C1120 H1105 0.960 . S
C1120 H1106 0.960 1_556 S
C1120 H1107 0.960 . S
C1120 C1119 1.524 . S
C1121 C1118 1.403 . S
C1121 C1122 1.392 . S
C1121 C1125 1.495 . S
C1122 C1121 1.392 . S
C1122 C1123 1.385 . S
C1122 C1124 1.478 . S
C1123 H1117 0.930 . S
C1123 C1119 1.400 . S
C1123 C1122 1.385 . S
C1124 C1122 1.478 . S
C1124 C1126 1.381 . S
C1124 C1130 1.383 . S
C1125 C1121 1.495 . S
C1125 H1131 0.959 . S
C1125 H1132 0.961 . S
C1125 H1133 0.960 . S
C1126 C1124 1.381 . S
C1126 C1127 1.394 . S
C1126 H1134 0.930 . S
C1127 C1126 1.394 . S
C1127 C1128 1.383 . S
C1127 H1135 0.929 . S
C1128 C1127 1.383 . S
C1128 C1129 1.377 . S
C1129 H1113 0.930 . S
C1129 C1128 1.377 . S
C1129 C1130 1.379 . S
C1130 H1114 0.931 . S
C1130 C1124 1.383 . S
C1130 C1129 1.379 . S
H1131 C1125 0.959 . S
H1132 C1125 0.961 . S
H1133 C1125 0.960 . S
H1134 C1126 0.930 . S
H1135 C1127 0.929 . S
H1136 C1144 0.929 . S
H1137 C1146 0.930 . S
H1138 C1148 0.930 . S
H1139 C1151 0.929 . S
H1140 C1154 0.930 1_455 S
H1141 C1156 0.960 . S
H1142 C1156 0.960 . S
H1143 C1156 0.960 . S
C1144 H1136 0.929 . S
C1144 C1145 1.377 . S
C1144 C1146 1.384 . S
C1145 C1144 1.377 . S
C1145 C1151 1.390 . S
C1146 H1137 0.930 . S
C1146 C1144 1.384 . S
C1146 C1147 1.372 . S
C1147 C1146 1.372 . S
C1147 C1148 1.400 . S
C1147 C1152 1.490 . S
C1148 H1138 0.930 . S
C1148 C1147 1.400 . S
C1148 C1151 1.386 . S
H1149 C1165 0.930 . S
H1150 C1166 0.931 . S
C1151 H1139 0.929 . S
C1151 C1145 1.390 . S
C1151 C1148 1.386 . S
C1152 C1147 1.490 . S
C1152 C1154 1.395 . S
C1152 C1155 1.403 . S
H1153 C1159 0.930 . S
C1154 H1140 0.930 1_655 S
C1154 C1152 1.395 . S
C1154 C1157 1.403 . S
C1155 C1152 1.403 . S
C1155 C1156 1.524 . S
C1155 C1159 1.400 . S
C1156 H1141 0.960 . S
C1156 H1142 0.960 . S
C1156 H1143 0.960 . S
C1156 C1155 1.524 . S
C1157 C1154 1.403 . S
C1157 C1158 1.392 . S
C1157 C1161 1.495 1_655 S
C1158 C1157 1.392 . S
C1158 C1159 1.385 . S
C1158 C1160 1.478 . S
C1159 H1153 0.930 . S
C1159 C1155 1.400 . S
C1159 C1158 1.385 . S
C1160 C1158 1.478 . S
C1160 C1162 1.381 . S
C1160 C1166 1.383 . S
C1161 C1157 1.495 1_455 S
C1161 H1167 0.959 . S
C1161 H1168 0.961 . S
C1161 H1169 0.960 . S
C1162 C1160 1.381 . S
C1162 C1163 1.394 . S
C1162 H1170 0.930 . S
C1163 C1162 1.394 . S
C1163 C1164 1.383 . S
C1163 H1171 0.929 . S
C1164 C1163 1.383 . S
C1164 C1165 1.377 . S
C1165 H1149 0.930 . S
C1165 C1164 1.377 . S
C1165 C1166 1.379 . S
C1166 H1150 0.931 . S
C1166 C1160 1.383 . S
C1166 C1165 1.379 . S
H1167 C1161 0.959 . S
H1168 C1161 0.961 . S
H1169 C1161 0.960 . S
H1170 C1162 0.930 . S
H1171 C1163 0.929 . S
H1172 C1180 0.929 . S
H1173 C1182 0.930 . S
H1174 C1184 0.930 . S
H1175 C1187 0.929 . S
H1176 C1190 0.930 . S
H1177 C1192 0.960 . S
H1178 C1192 0.960 . S
H1179 C1192 0.960 . S
C1180 H1172 0.929 . S
C1180 C1181 1.375 1_545 S
C1180 C1182 1.384 . S
C1181 C1180 1.375 1_565 S
C1181 C1187 1.392 . S
C1182 H1173 0.930 . S
C1182 C1180 1.384 . S
C1182 C1183 1.353 1_545 S
C1183 C1182 1.353 1_565 S
C1183 C1184 1.417 . S
C1183 C1188 1.492 . S
C1184 H1174 0.930 . S
C1184 C1183 1.417 . S
C1184 C1187 1.386 . S
H1185 C1201 0.930 . S
H1186 C1202 0.931 . S
C1187 H1175 0.929 . S
C1187 C1181 1.392 . S
C1187 C1184 1.386 . S
C1188 C1183 1.492 . S
C1188 C1190 1.395 . S
C1188 C1191 1.403 1_565 S
H1189 C1195 0.930 . S
C1190 H1176 0.930 . S
C1190 C1188 1.395 . S
C1190 C1193 1.403 . S
C1191 C1188 1.403 1_545 S
C1191 C1192 1.524 . S
C1191 C1195 1.400 . S
C1192 H1177 0.960 . S
C1192 H1178 0.960 . S
C1192 H1179 0.960 . S
C1192 C1191 1.524 . S
C1193 C1190 1.403 . S
C1193 C1194 1.392 . S
C1193 C1197 1.495 . S
C1194 C1193 1.392 . S
C1194 C1195 1.385 1_565 S
C1194 C1196 1.478 . S
C1195 H1189 0.930 . S
C1195 C1191 1.400 . S
C1195 C1194 1.385 1_545 S
C1196 C1194 1.478 . S
C1196 C1198 1.381 1_565 S
C1196 C1202 1.383 . S
C1197 C1193 1.495 . S
C1197 H1203 0.959 . S
C1197 H1204 0.961 . S
C1197 H1205 0.960 . S
C1198 C1196 1.381 1_545 S
C1198 C1199 1.394 . S
C1198 H1206 0.930 . S
C1199 C1198 1.394 . S
C1199 C1200 1.383 1_545 S
C1199 H1207 0.929 . S
C1200 C1199 1.383 1_565 S
C1200 C1201 1.377 . S
C1201 H1185 0.930 . S
C1201 C1200 1.377 . S
C1201 C1202 1.379 . S
C1202 H1186 0.931 . S
C1202 C1196 1.383 . S
C1202 C1201 1.379 . S
H1203 C1197 0.959 . S
H1204 C1197 0.961 . S
H1205 C1197 0.960 . S
H1206 C1198 0.930 . S
H1207 C1199 0.929 . S
H1208 C1216 0.929 . S
H1209 C1218 0.930 . S
H1210 C1220 0.930 . S
H1211 C1223 0.929 . S
H1212 C1226 0.930 . S
H1213 C1228 0.960 . S
H1214 C1228 0.960 . S
H1215 C1228 0.960 . S
C1216 H1208 0.929 . S
C1216 C1217 1.377 . S
C1216 C1218 1.384 . S
C1217 C1216 1.377 . S
C1217 C1223 1.390 . S
C1218 H1209 0.930 . S
C1218 C1216 1.384 . S
C1218 C1219 1.372 . S
C1219 C1218 1.372 . S
C1219 C1220 1.400 . S
C1219 C1224 1.490 . S
C1220 H1210 0.930 . S
C1220 C1219 1.400 . S
C1220 C1223 1.386 . S
H1221 C1237 0.930 . S
H1222 C1238 0.931 . S
C1223 H1211 0.929 . S
C1223 C1217 1.390 . S
C1223 C1220 1.386 . S
C1224 C1219 1.490 . S
C1224 C1226 1.395 . S
C1224 C1227 1.403 . S
H1225 C1231 0.930 . S
C1226 H1212 0.930 . S
C1226 C1224 1.395 . S
C1226 C1229 1.403 . S
C1227 C1224 1.403 . S
C1227 C1228 1.524 . S
C1227 C1231 1.400 . S
C1228 H1213 0.960 . S
C1228 H1214 0.960 . S
C1228 H1215 0.960 . S
C1228 C1227 1.524 . S
C1229 C1226 1.403 . S
C1229 C1230 1.392 . S
C1229 C1233 1.495 . S
C1230 C1229 1.392 . S
C1230 C1231 1.385 . S
C1230 C1232 1.478 . S
C1231 H1225 0.930 . S
C1231 C1227 1.400 . S
C1231 C1230 1.385 . S
C1232 C1230 1.478 . S
C1232 C1234 1.381 . S
C1232 C1238 1.383 . S
C1233 C1229 1.495 . S
C1233 H1239 0.959 . S
C1233 H1240 0.961 . S
C1233 H1241 0.960 . S
C1234 C1232 1.381 . S
C1234 C1235 1.394 . S
C1234 H1242 0.930 . S
C1235 C1234 1.394 . S
C1235 C1236 1.383 . S
C1235 H1243 0.929 . S
C1236 C1235 1.383 . S
C1236 C1237 1.377 . S
C1237 H1221 0.930 . S
C1237 C1236 1.377 . S
C1237 C1238 1.379 . S
C1238 H1222 0.931 . S
C1238 C1232 1.383 . S
C1238 C1237 1.379 . S
H1239 C1233 0.959 . S
H1240 C1233 0.961 . S
H1241 C1233 0.960 . S
H1242 C1234 0.930 . S
H1243 C1235 0.929 . S
H1244 C1252 0.929 . S
H1245 C1254 0.930 . S
H1246 C1256 0.930 . S
H1247 C1259 0.929 . S
H1248 C1262 0.930 . S
H1249 C1264 0.960 . S
H1250 C1264 0.960 . S
H1251 C1264 0.960 . S
C1252 H1244 0.929 . S
C1252 C1253 1.377 . S
C1252 C1254 1.384 . S
C1253 C1252 1.377 . S
C1253 C1259 1.390 . S
C1254 H1245 0.930 . S
C1254 C1252 1.384 . S
C1254 C1255 1.372 . S
C1255 C1254 1.372 . S
C1255 C1256 1.400 . S
C1255 C1260 1.490 . S
C1256 H1246 0.930 . S
C1256 C1255 1.400 . S
C1256 C1259 1.386 . S
H1257 C1273 0.930 . S
H1258 C1274 0.931 . S
C1259 H1247 0.929 . S
C1259 C1253 1.390 . S
C1259 C1256 1.386 . S
C1260 C1255 1.490 . S
C1260 C1262 1.395 . S
C1260 C1263 1.403 . S
H1261 C1267 0.930 . S
C1262 H1248 0.930 . S
C1262 C1260 1.395 . S
C1262 C1265 1.403 . S
C1263 C1260 1.403 . S
C1263 C1264 1.524 . S
C1263 C1267 1.400 . S
C1264 H1249 0.960 . S
C1264 H1250 0.960 . S
C1264 H1251 0.960 . S
C1264 C1263 1.524 . S
C1265 C1262 1.403 . S
C1265 C1266 1.392 . S
C1265 C1269 1.495 . S
C1266 C1265 1.392 . S
C1266 C1267 1.385 . S
C1266 C1268 1.478 . S
C1267 H1261 0.930 . S
C1267 C1263 1.400 . S
C1267 C1266 1.385 . S
C1268 C1266 1.478 . S
C1268 C1270 1.381 . S
C1268 C1274 1.383 . S
C1269 C1265 1.495 . S
C1269 H1275 0.959 . S
C1269 H1276 0.961 . S
C1269 H1277 0.960 . S
C1270 C1268 1.381 . S
C1270 C1271 1.394 . S
C1270 H1278 0.930 . S
C1271 C1270 1.394 . S
C1271 C1272 1.383 . S
C1271 H1279 0.929 . S
C1272 C1271 1.383 . S
C1272 C1273 1.377 . S
C1273 H1257 0.930 . S
C1273 C1272 1.377 . S
C1273 C1274 1.379 . S
C1274 H1258 0.931 . S
C1274 C1268 1.383 . S
C1274 C1273 1.379 . S
H1275 C1269 0.959 . S
H1276 C1269 0.961 . S
H1277 C1269 0.960 . S
H1278 C1270 0.930 . S
H1279 C1271 0.929 . S
C425 C215 1.789 . S
C444 C279 1.894 . S
C480 C319 1.536 . S
C461 C247 1.528 . S
C516 C338 1.948 . S
C497 C151 1.844 . S
C552 C399 1.497 . S
C533 C183 1.441 . S
C588 C258 1.900 . S
C569 C87 1.789 . S
C605 C119 1.459 . S
C624 C298 1.527 . S
C641 C23 1.860 . S
C660 C359 1.950 . S
C677 C55 1.375 . S
C696 C378 1.476 . S
C732 C260 0.600 1_655 S
C713 C189 0.464 . S
C768 C300 0.380 . S
C749 C221 0.263 . S
C804 C356 0.417 . S
C785 C253 0.487 . S
C821 C157 0.280 . S
C840 C380 0.225 . S
C857 C61 0.580 . S
C876 C281 0.562 . S
C912 C321 0.229 . S
C893 C93 0.434 1_565 S
C948 C367 0.556 . S
C929 C125 0.637 . S
C965 C29 0.367 . S
C984 C401 0.172 . S
C1001 C177 1.896 1_556 S
C1020 C276 2.025 . S
C1037 C209 2.375 1_556 S
C1056 C316 2.579 . S
C1092 C340 1.705 1_554 S
C1073 C241 1.660 . S
C1128 C396 2.539 . S
C1109 C145 2.325 1_556 S
C1145 C49 1.856 . S
C1164 C287 2.044 . S
C1200 C327 2.584 . S
C1181 C81 2.374 1_565 S
C1236 C361 1.677 . S
C1217 C113 1.637 . S
C1253 C17 2.370 . S
C1272 C407 2.549 . S
