# Generated by pormake.
# Topology hwx, (6,3)-cn, num edge types: 1
# Building blocks:
#     Node 0, Type 0, BuildingBlock: OJICUG_clean_sbu_0, # of connection points: 6
#     Node 1, Type 0, BuildingBlock: OJICUG_clean_sbu_0, # of connection points: 6
#     Node 2, Type 0, BuildingBlock: OJICUG_clean_sbu_0, # of connection points: 6
#     Node 3, Type 0, BuildingBlock: OJICUG_clean_sbu_0, # of connection points: 6
#     Node 4, Type 1, BuildingBlock: CUQRIR_clean_linker_1, # of connection points: 3
#     Node 5, Type 1, BuildingBlock: CUQRIR_clean_linker_1, # of connection points: 3
#     Node 6, Type 1, BuildingBlock: CUQRIR_clean_linker_1, # of connection points: 3
#     Node 7, Type 1, BuildingBlock: CUQRIR_clean_linker_1, # of connection points: 3
#     Node 8, Type 1, BuildingBlock: CUQRIR_clean_linker_1, # of connection points: 3
#     Node 9, Type 1, BuildingBlock: CUQRIR_clean_linker_1, # of connection points: 3
#     Node 10, Type 1, BuildingBlock: CUQRIR_clean_linker_1, # of connection points: 3
#     Node 11, Type 1, BuildingBlock: CUQRIR_clean_linker_1, # of connection points: 3
#     Edge 12, Type (0, 1), BuildingBlock: CIFDUS_clean_linker_0, # of connection points: 2
#     Edge 13, Type (0, 1), BuildingBlock: CIFDUS_clean_linker_0, # of connection points: 2
#     Edge 14, Type (0, 1), BuildingBlock: CIFDUS_clean_linker_0, # of connection points: 2
#     Edge 15, Type (0, 1), BuildingBlock: CIFDUS_clean_linker_0, # of connection points: 2
#     Edge 16, Type (0, 1), BuildingBlock: CIFDUS_clean_linker_0, # of connection points: 2
#     Edge 17, Type (0, 1), BuildingBlock: CIFDUS_clean_linker_0, # of connection points: 2
#     Edge 18, Type (0, 1), BuildingBlock: CIFDUS_clean_linker_0, # of connection points: 2
#     Edge 19, Type (0, 1), BuildingBlock: CIFDUS_clean_linker_0, # of connection points: 2
#     Edge 20, Type (0, 1), BuildingBlock: CIFDUS_clean_linker_0, # of connection points: 2
#     Edge 21, Type (0, 1), BuildingBlock: CIFDUS_clean_linker_0, # of connection points: 2
#     Edge 22, Type (0, 1), BuildingBlock: CIFDUS_clean_linker_0, # of connection points: 2
#     Edge 23, Type (0, 1), BuildingBlock: CIFDUS_clean_linker_0, # of connection points: 2
#     Edge 24, Type (0, 1), BuildingBlock: CIFDUS_clean_linker_0, # of connection points: 2
#     Edge 25, Type (0, 1), BuildingBlock: CIFDUS_clean_linker_0, # of connection points: 2
#     Edge 26, Type (0, 1), BuildingBlock: CIFDUS_clean_linker_0, # of connection points: 2
#     Edge 27, Type (0, 1), BuildingBlock: CIFDUS_clean_linker_0, # of connection points: 2
#     Edge 28, Type (0, 1), BuildingBlock: CIFDUS_clean_linker_0, # of connection points: 2
#     Edge 29, Type (0, 1), BuildingBlock: CIFDUS_clean_linker_0, # of connection points: 2
#     Edge 30, Type (0, 1), BuildingBlock: CIFDUS_clean_linker_0, # of connection points: 2
#     Edge 31, Type (0, 1), BuildingBlock: CIFDUS_clean_linker_0, # of connection points: 2
#     Edge 32, Type (0, 1), BuildingBlock: CIFDUS_clean_linker_0, # of connection points: 2
#     Edge 33, Type (0, 1), BuildingBlock: CIFDUS_clean_linker_0, # of connection points: 2
#     Edge 34, Type (0, 1), BuildingBlock: CIFDUS_clean_linker_0, # of connection points: 2
#     Edge 35, Type (0, 1), BuildingBlock: CIFDUS_clean_linker_0, # of connection points: 2
# Relax obj value: 0.003
# Max RMSD: 0.053
# Mean RMSD: 0.043
data_MOF--net-hwx--node1-OJICUG_clean_sbu_0--node2-CUQRIR_clean_linker_1--edge1-CIFDUS_clean_linker_0
_symmetry_space_group_name_H-M    P1
_symmetry_Int_Tables_number       1
_symmetry_cell_setting            triclinic
loop_
_symmetry_equiv_pos_as_xyz
'x, y, z'
_cell_length_a     43.116175
_cell_length_b     42.903544
_cell_length_c     16.113723
_cell_angle_alpha  89.804005
_cell_angle_beta   90.028981
_cell_angle_gamma 90.102654
loop_
_atom_site_label
_atom_site_type_symbol
_atom_site_fract_x
_atom_site_fract_y
_atom_site_fract_z
_atom_type_partial_charge
Sc0 Sc 0.22293 0.2252 0.08687 0.0
Sc1 Sc 0.16604 0.1809 0.98236 0.0
Sc2 Sc 0.22367 0.22113 0.86919 0.0
O3 O 0.20411 0.20907 0.97946 0.0
C4 C 0.22758 0.28484 0.97152 0.0
C5 C 0.15054 0.22759 0.12998 0.0
C6 C 0.15163 0.22509 0.82642 0.0
C7 C 0.20714 0.15484 0.13347 0.0
C8 C 0.28364 0.21136 0.97878 0.0
C9 C 0.20506 0.15019 0.83618 0.0
O10 O 0.22312 0.27251 0.04238 0.0
O11 O 0.14199 0.20952 0.07179 0.0
O12 O 0.17958 0.23385 0.81618 0.0
O13 O 0.22399 0.17909 0.1408 0.0
O14 O 0.26966 0.2092 0.90975 0.0
O15 O 0.18512 0.1484 0.89412 0.0
O16 O 0.27009 0.21859 0.04599 0.0
O17 O 0.1851 0.15276 0.08107 0.0
O18 O 0.22017 0.17489 0.82008 0.0
O19 O 0.17873 0.23459 0.14297 0.0
O20 O 0.2299 0.26908 0.90513 0.0
O21 O 0.14333 0.20594 0.88282 0.0
Sc22 Sc 0.27093 0.72656 0.39388 0.0
Sc23 Sc 0.32634 0.68088 0.50013 0.0
Sc24 Sc 0.26991 0.72288 0.61196 0.0
O25 O 0.28915 0.71013 0.50194 0.0
C26 C 0.27029 0.78654 0.51057 0.0
C27 C 0.34308 0.72761 0.35132 0.0
C28 C 0.3425 0.72328 0.65597 0.0
C29 C 0.28479 0.65539 0.35174 0.0
C30 C 0.20947 0.71539 0.49849 0.0
C31 C 0.28406 0.65144 0.64482 0.0
O32 O 0.26852 0.77368 0.43968 0.0
O33 O 0.35042 0.70684 0.40432 0.0
O34 O 0.3142 0.72936 0.6705 0.0
O35 O 0.27111 0.6811 0.33836 0.0
O36 O 0.22267 0.71836 0.56855 0.0
O37 O 0.30658 0.65083 0.59382 0.0
O38 O 0.22406 0.71685 0.43031 0.0
O39 O 0.30501 0.65135 0.40817 0.0
O40 O 0.26732 0.67547 0.65584 0.0
O41 O 0.31565 0.73787 0.34291 0.0
O42 O 0.27168 0.77134 0.57831 0.0
O43 O 0.3512 0.70724 0.59376 0.0
Sc44 Sc 0.77776 0.77559 0.90842 0.0
Sc45 Sc 0.82662 0.82364 0.02725 0.0
Sc46 Sc 0.76801 0.77927 0.12447 0.0
O47 O 0.7908 0.79295 0.0201 0.0
C48 C 0.71207 0.78337 1.00019 0.0
C49 C 0.78865 0.84744 0.86718 0.0
C50 C 0.78155 0.85104 0.16517 0.0
C51 C 0.85124 0.78003 0.88332 0.0
C52 C 0.77291 0.71545 0.02112 0.0
C53 C 0.83872 0.77847 0.18269 0.0
O54 O 0.72913 0.7765 0.93864 0.0
O55 O 0.80919 0.85069 0.92354 0.0
O56 O 0.76763 0.82536 0.17857 0.0
O57 O 0.82429 0.77146 0.86128 0.0
O58 O 0.76526 0.73122 0.08468 0.0
O59 O 0.84742 0.79935 0.13125 0.0
O60 O 0.7812 0.72801 0.95286 0.0
O61 O 0.85597 0.79734 0.9458 0.0
O62 O 0.8111 0.76796 0.18575 0.0
O63 O 0.77355 0.82215 0.85633 0.0
O64 O 0.72292 0.78887 0.07207 0.0
O65 O 0.80228 0.85415 0.10979 0.0
Sc66 Sc 0.71727 0.28177 0.62438 0.0
Sc67 Sc 0.66824 0.32733 0.49767 0.0
Sc68 Sc 0.72341 0.27708 0.40656 0.0
O69 O 0.703 0.29546 0.50949 0.0
C70 C 0.78153 0.28593 0.52508 0.0
C71 C 0.70766 0.35482 0.64942 0.0
C72 C 0.71336 0.34827 0.35011 0.0
C73 C 0.64404 0.28749 0.65244 0.0
C74 C 0.71818 0.21733 0.5266 0.0
C75 C 0.65208 0.2783 0.35487 0.0
O76 O 0.76596 0.28542 0.59213 0.0
O77 O 0.68854 0.35812 0.58963 0.0
O78 O 0.72746 0.32225 0.34457 0.0
O79 O 0.67058 0.27677 0.67173 0.0
O80 O 0.72202 0.22976 0.45538 0.0
O81 O 0.64432 0.29987 0.40485 0.0
O82 O 0.71552 0.23317 0.59267 0.0
O83 O 0.63983 0.30559 0.59095 0.0
O84 O 0.67952 0.26787 0.34914 0.0
O85 O 0.71995 0.32882 0.66799 0.0
O86 O 0.76928 0.28363 0.45376 0.0
O87 O 0.69193 0.35314 0.40251 0.0
C88 C 0.23222 0.48839 0.94357 0.0
N89 N 0.24116 0.51743 0.96564 0.0
N90 N 0.2333 0.46887 0.00985 0.0
C91 C 0.22063 0.47962 0.85875 0.0
C92 C 0.24324 0.48715 0.07295 0.0
N93 N 0.24785 0.51665 0.04602 0.0
C94 C 0.25114 0.47567 0.15875 0.0
H95 H 0.204 0.4599 0.86253 0.0
H96 H 0.24058 0.47244 0.81984 0.0
H97 H 0.20922 0.49979 0.82818 0.0
H98 H 0.25916 0.45112 0.15716 0.0
H99 H 0.23009 0.4769 0.19815 0.0
H100 H 0.26943 0.4903 0.18753 0.0
C101 C 0.00432 0.71427 0.58344 0.0
N102 N 0.97573 0.72214 0.55608 0.0
N103 N 0.02578 0.71833 0.52302 0.0
C104 C 0.01126 0.70285 0.66984 0.0
C105 C 0.00908 0.72889 0.45738 0.0
N106 N 0.97865 0.73117 0.47751 0.0
C107 C 0.02299 0.73892 0.37585 0.0
H108 H 0.01529 0.7231 0.71107 0.0
H109 H 0.0323 0.68799 0.67037 0.0
H110 H 0.99126 0.68946 0.69481 0.0
H111 H 0.03288 0.71831 0.34418 0.0
H112 H 0.04222 0.75561 0.38714 0.0
H113 H 0.00572 0.74968 0.33372 0.0
C114 C 0.78167 0.51094 0.07025 0.0
N115 N 0.77514 0.48142 0.0465 0.0
N116 N 0.78209 0.53043 0.00375 0.0
C117 C 0.78673 0.52085 0.15852 0.0
C118 C 0.77514 0.51166 0.93875 0.0
N119 N 0.77068 0.48195 0.96492 0.0
C120 C 0.77094 0.52258 0.85049 0.0
H121 H 0.80142 0.54208 0.1614 0.0
H122 H 0.79769 0.50182 0.19491 0.0
H123 H 0.76392 0.52613 0.18702 0.0
H124 H 0.78546 0.54315 0.836 0.0
H125 H 0.74634 0.52928 0.84116 0.0
H126 H 0.77669 0.50373 0.80614 0.0
C127 C 0.98404 0.27304 0.41558 0.0
N128 N 0.0128 0.26471 0.44038 0.0
N129 N 0.96418 0.27386 0.48076 0.0
C130 C 0.97533 0.27961 0.32684 0.0
C131 C 0.98213 0.26583 0.54653 0.0
N132 N 0.01162 0.2602 0.52184 0.0
C133 C 0.97017 0.26147 0.63365 0.0
H134 H 0.99483 0.29133 0.29428 0.0
H135 H 0.95432 0.29446 0.32324 0.0
H136 H 0.97069 0.25728 0.29458 0.0
H137 H 0.94984 0.24557 0.63314 0.0
H138 H 0.96235 0.28426 0.65813 0.0
H139 H 0.988 0.25223 0.67658 0.0
C140 C 0.73251 0.01383 0.58535 0.0
N141 N 0.73232 0.9832 0.56455 0.0
N142 N 0.72858 0.03202 0.51696 0.0
C143 C 0.73763 0.02612 0.67159 0.0
C144 C 0.72604 0.01122 0.45419 0.0
N145 N 0.72838 0.98166 0.48288 0.0
C146 C 0.72052 0.01961 0.36465 0.0
H147 H 0.7149 0.03265 0.69857 0.0
H148 H 0.7524 0.04732 0.66963 0.0
H149 H 0.74845 0.00852 0.71284 0.0
H150 H 0.74316 0.0222 0.33267 0.0
H151 H 0.70767 0.04192 0.35934 0.0
H152 H 0.70726 0.00091 0.33299 0.0
C153 C 0.48558 0.22387 0.94645 0.0
N154 N 0.51522 0.22926 0.97083 0.0
N155 N 0.46662 0.22132 0.01335 0.0
C156 C 0.47469 0.22385 0.85769 0.0
C157 C 0.48592 0.22518 0.07885 0.0
N158 N 0.51534 0.22994 0.0532 0.0
C159 C 0.47589 0.22603 0.1682 0.0
H160 H 0.46495 0.2471 0.84248 0.0
H161 H 0.45619 0.20632 0.84811 0.0
H162 H 0.494 0.21874 0.8144 0.0
H163 H 0.45389 0.21301 0.17733 0.0
H164 H 0.47241 0.25062 0.18707 0.0
H165 H 0.4942 0.21595 0.20857 0.0
C166 C 0.264 0.99152 0.41174 0.0
N167 N 0.26173 0.0209 0.44099 0.0
N168 N 0.26233 0.97054 0.47464 0.0
C169 C 0.26829 0.98356 0.32167 0.0
C170 C 0.25879 0.98834 0.54339 0.0
N171 N 0.25842 0.01894 0.52273 0.0
C172 C 0.25476 0.9757 0.63008 0.0
H173 H 0.24521 0.98153 0.29171 0.0
H174 H 0.28076 0.96112 0.31471 0.0
H175 H 0.28138 0.00229 0.28932 0.0
H176 H 0.27788 0.96969 0.65568 0.0
H177 H 0.24041 0.95421 0.62923 0.0
H178 H 0.24402 0.99283 0.6724 0.0
C179 C 0.50857 0.77344 0.07019 0.0
N180 N 0.48074 0.76403 0.04042 0.0
N181 N 0.52803 0.78087 0.00705 0.0
C182 C 0.51753 0.77293 0.16052 0.0
C183 C 0.51093 0.77537 0.93791 0.0
N184 N 0.48232 0.76485 0.95817 0.0
C185 C 0.52159 0.78165 0.85053 0.0
H186 H 0.51655 0.79703 0.18507 0.0
H187 H 0.5416 0.76424 0.16807 0.0
H188 H 0.50165 0.75819 0.19793 0.0
H189 H 0.53097 0.75987 0.8235 0.0
H190 H 0.54002 0.79973 0.84935 0.0
H191 H 0.50183 0.78936 0.81141 0.0
H192 H 0.09587 0.20062 0.17296 0.0
H193 H 0.15323 0.28103 0.22119 0.0
H194 H 0.11614 0.2993 0.32494 0.0
H195 H 0.06676 0.29245 0.4019 0.0
H196 H 0.0108 0.21128 0.35655 0.0
H197 H 0.04792 0.19293 0.25242 0.0
C198 C 0.10008 0.2223 0.20557 0.0
C199 C 0.12708 0.23958 0.18879 0.0
C200 C 0.07904 0.23228 0.2664 0.0
C201 C 0.13254 0.26733 0.23281 0.0
C202 C 0.1114 0.27776 0.29231 0.0
C203 C 0.06319 0.27059 0.36973 0.0
C204 C 0.03649 0.25298 0.38631 0.0
C205 C 0.08462 0.26036 0.30994 0.0
C206 C 0.03149 0.22487 0.34424 0.0
C207 C 0.05254 0.21457 0.28469 0.0
H208 H 0.24563 0.64557 0.77858 0.0
H209 H 0.30831 0.59326 0.62325 0.0
H210 H 0.29971 0.54689 0.70782 0.0
H211 H 0.27577 0.52144 0.82888 0.0
H212 H 0.2138 0.57325 0.98515 0.0
H213 H 0.22081 0.61974 0.89782 0.0
C214 C 0.25727 0.624 0.76282 0.0
C215 C 0.27765 0.62303 0.69463 0.0
C216 C 0.25245 0.59739 0.81219 0.0
C217 C 0.29262 0.59483 0.67554 0.0
C218 C 0.28772 0.56823 0.72383 0.0
C219 C 0.26358 0.54288 0.84268 0.0
C220 C 0.24423 0.54421 0.91242 0.0
C221 C 0.26789 0.5693 0.79255 0.0
C222 C 0.22885 0.57204 0.93149 0.0
C223 C 0.23283 0.59845 0.88164 0.0
H224 H 0.88799 0.80818 0.25214 0.0
H225 H 0.84133 0.71923 0.24323 0.0
H226 H 0.88073 0.69658 0.33441 0.0
H227 H 0.92978 0.70166 0.41249 0.0
H228 H 0.97408 0.79118 0.43094 0.0
H229 H 0.93462 0.8142 0.33944 0.0
C230 C 0.88648 0.78385 0.2703 0.0
C231 C 0.86197 0.76533 0.24052 0.0
C232 C 0.90884 0.77117 0.32414 0.0
C233 C 0.85998 0.73396 0.26548 0.0
C234 C 0.88253 0.72098 0.31739 0.0
C235 C 0.93023 0.7263 0.39761 0.0
C236 C 0.95445 0.74488 0.42797 0.0
C237 C 0.90714 0.73931 0.34671 0.0
C238 C 0.95549 0.77666 0.40754 0.0
C239 C 0.93301 0.78969 0.35545 0.0
H240 H 0.75596 0.3601 0.75644 0.0
H241 H 0.67688 0.41055 0.66152 0.0
H242 H 0.68859 0.45394 0.75458 0.0
H243 H 0.72114 0.47725 0.86448 0.0
H244 H 0.80178 0.42806 0.95154 0.0
H245 H 0.78906 0.38382 0.86215 0.0
C246 C 0.74121 0.38055 0.75593 0.0
C247 C 0.7155 0.38198 0.70212 0.0
C248 C 0.74813 0.40539 0.80917 0.0
C249 C 0.69689 0.40885 0.70194 0.0
C250 C 0.70347 0.43361 0.75547 0.0
C251 C 0.73589 0.45684 0.86322 0.0
C252 C 0.76219 0.45559 0.91467 0.0
C253 C 0.72897 0.43207 0.80949 0.0
C254 C 0.78108 0.42906 0.91368 0.0
C255 C 0.774 0.40402 0.8619 0.0
H256 H 0.60316 0.3075 0.28284 0.0
H257 H 0.64845 0.21824 0.30325 0.0
H258 H 0.61014 0.19512 0.20997 0.0
H259 H 0.5631 0.20022 0.12341 0.0
H260 H 0.51979 0.28978 0.09616 0.0
H261 H 0.55783 0.31312 0.19104 0.0
C262 C 0.60446 0.28297 0.26711 0.0
C263 C 0.62834 0.26452 0.30018 0.0
C264 C 0.58285 0.27002 0.21182 0.0
C265 C 0.6302 0.23288 0.27837 0.0
C266 C 0.60834 0.21964 0.2251 0.0
C267 C 0.56254 0.22489 0.13766 0.0
C268 C 0.53928 0.24356 0.10312 0.0
C269 C 0.58462 0.23799 0.1913 0.0
C270 C 0.53796 0.27536 0.12225 0.0
C271 C 0.55952 0.28854 0.17647 0.0
H272 H 0.25732 0.13641 0.75118 0.0
H273 H 0.16485 0.10267 0.80148 0.0
H274 H 0.17282 0.05936 0.7054 0.0
H275 H 0.20603 0.03166 0.60455 0.0
H276 H 0.29955 0.06307 0.56398 0.0
H277 H 0.29119 0.10734 0.65714 0.0
C278 C 0.23891 0.11955 0.74118 0.0
C279 C 0.21048 0.1228 0.78293 0.0
C280 C 0.24378 0.09463 0.6868 0.0
C281 C 0.18699 0.10056 0.7703 0.0
C282 C 0.19147 0.07593 0.71506 0.0
C283 C 0.22441 0.04833 0.61669 0.0
C284 C 0.25316 0.04478 0.57719 0.0
C285 C 0.2197 0.07285 0.67263 0.0
C286 C 0.27708 0.06608 0.59271 0.0
C287 C 0.27237 0.09106 0.64644 0.0
H288 H 0.38998 0.69489 0.28152 0.0
H289 H 0.34899 0.78643 0.28958 0.0
H290 H 0.38741 0.80568 0.18996 0.0
H291 H 0.43364 0.79658 0.10247 0.0
H292 H 0.47285 0.70478 0.08868 0.0
H293 H 0.43404 0.6851 0.18768 0.0
C294 C 0.38967 0.71909 0.26184 0.0
C295 C 0.36705 0.73936 0.29363 0.0
C296 C 0.41126 0.72973 0.20281 0.0
C297 C 0.36636 0.77048 0.26625 0.0
C298 C 0.38823 0.78146 0.2092 0.0
C299 C 0.43309 0.77221 0.12048 0.0
C300 C 0.45549 0.75189 0.08869 0.0
C301 C 0.41077 0.7613 0.17706 0.0
C302 C 0.45531 0.72045 0.11231 0.0
C303 C 0.43338 0.7094 0.16914 0.0
H304 H 0.73473 0.86279 0.78779 0.0
H305 H 0.82956 0.89255 0.82058 0.0
H306 H 0.82081 0.93686 0.72801 0.0
H307 H 0.78604 0.96753 0.63714 0.0
H308 H 0.69039 0.9407 0.61383 0.0
H309 H 0.69941 0.89483 0.70203 0.0
C310 C 0.75347 0.87893 0.77437 0.0
C311 C 0.78278 0.87427 0.81085 0.0
C312 C 0.74809 0.90485 0.72241 0.0
C313 C 0.80674 0.89565 0.79368 0.0
C314 C 0.80179 0.92098 0.74054 0.0
C315 C 0.76733 0.95154 0.65191 0.0
C316 C 0.73776 0.95689 0.61842 0.0
C317 C 0.77257 0.92587 0.70467 0.0
C318 C 0.71344 0.93641 0.63782 0.0
C319 C 0.71858 0.9104 0.68859 0.0
H320 H 0.85303 0.73614 0.76112 0.0
H321 H 0.90974 0.80435 0.88711 0.0
H322 H 0.95289 0.79285 0.79476 0.0
H323 H 0.97427 0.76448 0.67583 0.0
H324 H 0.91954 0.6941 0.55516 0.0
H325 H 0.87545 0.70584 0.64615 0.0
C326 C 0.87485 0.74842 0.76862 0.0
C327 C 0.87802 0.77117 0.83094 0.0
C328 C 0.89972 0.74162 0.71542 0.0
C329 C 0.90659 0.78666 0.84004 0.0
C330 C 0.93129 0.78024 0.78696 0.0
C331 C 0.95263 0.75175 0.6701 0.0
C332 C 0.94967 0.72893 0.60853 0.0
C333 C 0.92802 0.75797 0.72419 0.0
C334 C 0.92181 0.71236 0.60085 0.0
C335 C 0.89685 0.71883 0.65344 0.0
H336 H 0.76924 0.36284 0.2773 0.0
H337 H 0.6735 0.39155 0.2904 0.0
H338 H 0.68396 0.43475 0.19595 0.0
H339 H 0.72043 0.46529 0.11039 0.0
H340 H 0.8166 0.43963 0.1032 0.0
H341 H 0.80622 0.39453 0.19391 0.0
C342 C 0.75071 0.37849 0.25904 0.0
C343 C 0.72063 0.3739 0.29095 0.0
C344 C 0.75704 0.40393 0.20577 0.0
C345 C 0.69691 0.39462 0.26733 0.0
C346 C 0.70283 0.41935 0.2131 0.0
C347 C 0.73892 0.44966 0.12902 0.0
C348 C 0.76906 0.45522 0.10022 0.0
C349 C 0.73278 0.42436 0.18228 0.0
C350 C 0.79318 0.43533 0.12469 0.0
C351 C 0.78721 0.40968 0.17639 0.0
H352 H 0.09996 0.19469 0.77547 0.0
H353 H 0.15116 0.28025 0.74144 0.0
H354 H 0.11292 0.29814 0.63965 0.0
H355 H 0.06378 0.28992 0.56312 0.0
H356 H 0.0141 0.20368 0.59313 0.0
H357 H 0.05298 0.18517 0.69305 0.0
C358 C 0.10261 0.21735 0.74621 0.0
C359 C 0.12807 0.23633 0.76678 0.0
C360 C 0.08095 0.22714 0.68656 0.0
C361 C 0.13163 0.26531 0.72694 0.0
C362 C 0.10983 0.27552 0.66865 0.0
C363 C 0.06198 0.26694 0.59091 0.0
C364 C 0.03636 0.2481 0.57209 0.0
C365 C 0.08437 0.25666 0.64811 0.0
C366 C 0.03379 0.21837 0.60777 0.0
C367 C 0.05584 0.20797 0.66489 0.0
H368 H 0.31416 0.62868 0.22205 0.0
H369 H 0.23225 0.62273 0.37422 0.0
H370 H 0.21349 0.57833 0.29307 0.0
H371 H 0.22025 0.54167 0.1773 0.0
H372 H 0.30069 0.5487 0.02091 0.0
H373 H 0.32038 0.59241 0.10402 0.0
C374 C 0.29233 0.61741 0.2372 0.0
C375 C 0.27459 0.62838 0.30378 0.0
C376 C 0.28149 0.59237 0.18926 0.0
C377 C 0.24617 0.61423 0.32311 0.0
C378 C 0.23548 0.589 0.27681 0.0
C379 C 0.24209 0.55289 0.16219 0.0
C380 C 0.2592 0.54235 0.09409 0.0
C381 C 0.2529 0.57795 0.20967 0.0
C382 C 0.28733 0.55684 0.0734 0.0
C383 C 0.29851 0.58163 0.12088 0.0
H384 H 0.4019 0.70292 0.67925 0.0
H385 H 0.33526 0.76973 0.76941 0.0
H386 H 0.37218 0.78769 0.87338 0.0
H387 H 0.42392 0.78493 0.93868 0.0
H388 H 0.4901 0.71788 0.85077 0.0
H389 H 0.45308 0.69944 0.74634 0.0
C390 C 0.39554 0.72155 0.72123 0.0
C391 C 0.36584 0.73494 0.71613 0.0
C392 C 0.4168 0.73163 0.78175 0.0
C393 C 0.35791 0.75887 0.77185 0.0
C394 C 0.379 0.7692 0.83155 0.0
C395 C 0.42987 0.76604 0.89716 0.0
C396 C 0.45947 0.75272 0.90168 0.0
C397 C 0.40848 0.75571 0.83733 0.0
C398 C 0.46737 0.7285 0.84736 0.0
C399 C 0.44626 0.71802 0.78787 0.0
H400 H 0.73325 0.85853 0.27374 0.0
H401 H 0.81517 0.9046 0.17888 0.0
H402 H 0.80642 0.94829 0.27162 0.0
H403 H 0.77593 0.97355 0.38069 0.0
H404 H 0.69232 0.93021 0.46962 0.0
H405 H 0.70153 0.88499 0.38005 0.0
C406 C 0.74915 0.87814 0.27324 0.0
C407 C 0.77485 0.87814 0.21922 0.0
C408 C 0.7439 0.90349 0.32658 0.0
C409 C 0.7951 0.90391 0.21925 0.0
C410 C 0.79024 0.92893 0.27262 0.0
C411 C 0.75987 0.95407 0.38015 0.0
C412 C 0.73394 0.95462 0.4325 0.0
C413 C 0.76482 0.92891 0.32661 0.0
C414 C 0.71295 0.92963 0.43159 0.0
C415 C 0.71804 0.90406 0.37963 0.0
H416 H 0.63973 0.24232 0.77211 0.0
H417 H 0.58722 0.31544 0.65242 0.0
H418 H 0.54303 0.30437 0.74186 0.0
H419 H 0.51923 0.27444 0.85574 0.0
H420 H 0.57005 0.19966 0.9704 0.0
H421 H 0.61523 0.21126 0.88311 0.0
C422 C 0.61863 0.25583 0.7655 0.0
C423 C 0.61694 0.2797 0.70547 0.0
C424 C 0.59307 0.24923 0.81688 0.0
C425 C 0.58925 0.29682 0.69766 0.0
C426 C 0.56392 0.29062 0.74904 0.0
C427 C 0.54015 0.26058 0.86066 0.0
C428 C 0.54153 0.23626 0.91895 0.0
C429 C 0.56557 0.26693 0.80889 0.0
C430 C 0.56881 0.21871 0.92638 0.0
C431 C 0.59445 0.2252 0.87611 0.0
H432 H 0.25775 0.14418 0.23163 0.0
H433 H 0.16936 0.10477 0.16072 0.0
H434 H 0.17821 0.06041 0.2523 0.0
H435 H 0.21123 0.03228 0.35184 0.0
H436 H 0.30041 0.0696 0.41771 0.0
H437 H 0.29107 0.11559 0.33008 0.0
C438 C 0.24037 0.12595 0.23635 0.0
C439 C 0.21293 0.12789 0.18916 0.0
C440 C 0.24569 0.10026 0.28877 0.0
C441 C 0.19078 0.10388 0.1958 0.0
C442 C 0.19574 0.0785 0.24839 0.0
C443 C 0.22839 0.0507 0.34683 0.0
C444 C 0.2561 0.04825 0.39176 0.0
C445 C 0.2231 0.07642 0.29493 0.0
C446 C 0.27859 0.07172 0.38505 0.0
C447 C 0.27334 0.09773 0.33443 0.0
H448 H 0.20238 0.32808 0.0738 0.0
H449 H 0.2598 0.31814 0.85618 0.0
H450 H 0.26648 0.37461 0.84854 0.0
H451 H 0.25737 0.42667 0.90652 0.0
H452 H 0.1973 0.4372 0.11775 0.0
H453 H 0.19053 0.38052 0.12625 0.0
C454 C 0.21637 0.33832 0.0248 0.0
C455 C 0.23074 0.31902 0.96599 0.0
C456 C 0.2197 0.3708 0.01996 0.0
C457 C 0.24844 0.33255 0.90207 0.0
C458 C 0.25234 0.3648 0.89776 0.0
C459 C 0.24238 0.41648 0.95331 0.0
C460 C 0.22788 0.4358 0.01156 0.0
C461 C 0.23818 0.38411 0.95653 0.0
C462 C 0.20892 0.42252 0.07302 0.0
C463 C 0.205 0.39025 0.0776 0.0
H464 H 0.16658 0.73833 0.60478 0.0
H465 H 0.17641 0.68262 0.38412 0.0
H466 H 0.12005 0.677 0.37466 0.0
H467 H 0.06773 0.68915 0.42754 0.0
H468 H 0.05818 0.74933 0.63916 0.0
H469 H 0.1145 0.75149 0.65524 0.0
C470 C 0.15634 0.72473 0.55514 0.0
C471 C 0.17553 0.71083 0.49545 0.0
C472 C 0.12395 0.72235 0.54873 0.0
C473 C 0.16203 0.69364 0.43065 0.0
C474 C 0.12984 0.69039 0.42524 0.0
C475 C 0.07812 0.70288 0.47657 0.0
C476 C 0.05898 0.7188 0.53258 0.0
C477 C 0.11055 0.70492 0.48342 0.0
C478 C 0.07254 0.73629 0.59662 0.0
C479 C 0.10471 0.73776 0.60531 0.0
H480 H 0.80975 0.67261 0.94462 0.0
H481 H 0.73248 0.68111 0.11291 0.0
H482 H 0.72878 0.62444 0.1239 0.0
H483 H 0.74671 0.5721 0.08287 0.0
H484 H 0.82616 0.56331 0.92358 0.0
H485 H 0.83 0.62023 0.91162 0.0
C486 C 0.79208 0.66199 0.98347 0.0
C487 C 0.77127 0.68102 0.02732 0.0
C488 C 0.79052 0.62931 0.99106 0.0
C489 C 0.74881 0.66697 0.07857 0.0
C490 C 0.74664 0.63456 0.08485 0.0
C491 C 0.76499 0.58283 0.04643 0.0
C492 C 0.78579 0.56382 1.00285 0.0
C493 C 0.7673 0.61548 0.04126 0.0
C494 C 0.80956 0.57771 0.95608 0.0
C495 C 0.81176 0.61015 0.94948 0.0
H496 H 0.82163 0.25534 0.42797 0.0
H497 H 0.81753 0.32006 0.63166 0.0
H498 H 0.87441 0.32361 0.63296 0.0
H499 H 0.92528 0.30837 0.57389 0.0
H500 H 0.92822 0.23865 0.38228 0.0
H501 H 0.87173 0.23763 0.37628 0.0
C502 C 0.83322 0.2703 0.4725 0.0
C503 C 0.81562 0.28765 0.52909 0.0
C504 C 0.86564 0.27156 0.47412 0.0
C505 C 0.83077 0.30649 0.58758 0.0
C506 C 0.86319 0.30859 0.58807 0.0
C507 C 0.91344 0.29278 0.53166 0.0
C508 C 0.93081 0.27403 0.4775 0.0
C509 C 0.88087 0.29121 0.53149 0.0
C510 C 0.9153 0.25404 0.42249 0.0
C511 C 0.88304 0.25315 0.41982 0.0
H512 H 0.74917 0.17402 0.43545 0.0
H513 H 0.68338 0.18355 0.6352 0.0
H514 H 0.68042 0.12689 0.64979 0.0
H515 H 0.69629 0.0743 0.60484 0.0
H516 H 0.76559 0.06501 0.41438 0.0
H517 H 0.76726 0.1216 0.39625 0.0
C518 C 0.73409 0.16363 0.48182 0.0
C519 C 0.71637 0.18293 0.53374 0.0
C520 C 0.73311 0.13101 0.4914 0.0
C521 C 0.6973 0.16918 0.59453 0.0
C522 C 0.69556 0.13678 0.6029 0.0
C523 C 0.71199 0.08479 0.56025 0.0
C524 C 0.73047 0.06555 0.5102 0.0
C525 C 0.71342 0.11744 0.55185 0.0
C526 C 0.75061 0.07936 0.45215 0.0
C527 C 0.75171 0.11171 0.44217 0.0
H528 H 0.32489 0.24867 0.05409 0.0
H529 H 0.31788 0.16605 0.90398 0.0
H530 H 0.37458 0.16079 0.90428 0.0
H531 H 0.42626 0.18025 0.94768 0.0
H532 H 0.43257 0.26664 0.08187 0.0
H533 H 0.37604 0.26979 0.08911 0.0
C534 C 0.33586 0.22941 0.02203 0.0
C535 C 0.31751 0.20753 0.98004 0.0
C536 C 0.36827 0.22729 0.01989 0.0
C537 C 0.33177 0.18304 0.937 0.0
C538 C 0.36408 0.18007 0.93717 0.0
C539 C 0.4151 0.19992 0.9772 0.0
C540 C 0.43332 0.22311 0.01461 0.0
C541 C 0.38259 0.20218 0.97808 0.0
C542 C 0.41882 0.24831 0.054 0.0
C543 C 0.3866 0.25019 0.05768 0.0
H544 H 0.23987 0.82802 0.41338 0.0
H545 H 0.3048 0.82138 0.6163 0.0
H546 H 0.30952 0.87817 0.61995 0.0
H547 H 0.29549 0.92965 0.56411 0.0
H548 H 0.22583 0.93656 0.37346 0.0
H549 H 0.2232 0.87972 0.36414 0.0
C550 C 0.25502 0.8391 0.45828 0.0
C551 C 0.27205 0.82074 0.51425 0.0
C552 C 0.25699 0.87171 0.46143 0.0
C553 C 0.29135 0.8352 0.57294 0.0
C554 C 0.29416 0.86759 0.57481 0.0
C555 C 0.27948 0.91862 0.52147 0.0
C556 C 0.2611 0.93711 0.46904 0.0
C557 C 0.27708 0.88606 0.51937 0.0
C558 C 0.24073 0.92268 0.41296 0.0
C559 C 0.23899 0.89025 0.40829 0.0
H560 H 0.66693 0.81578 0.08235 0.0
H561 H 0.68111 0.74667 0.89199 0.0
H562 H 0.62533 0.73999 0.87724 0.0
H563 H 0.57269 0.7515 0.9233 0.0
H564 H 0.55699 0.82369 0.10311 0.0
H565 H 0.61316 0.83108 0.11879 0.0
C566 C 0.65771 0.79944 0.03739 0.0
C567 C 0.67812 0.78169 0.98859 0.0
C568 C 0.62542 0.79605 0.028 0.0
C569 C 0.66592 0.76078 0.92997 0.0
C570 C 0.63401 0.75679 0.9217 0.0
C571 C 0.58155 0.7694 0.96425 0.0
C572 C 0.56085 0.78702 0.01196 0.0
C573 C 0.6136 0.77408 0.9708 0.0
C574 C 0.57262 0.80958 0.06662 0.0
C575 C 0.60466 0.81388 0.07519 0.0
loop_
_geom_bond_atom_site_label_1
_geom_bond_atom_site_label_2
_geom_bond_distance
_geom_bond_site_symmetry_2
_ccdc_geom_bond_type
Sc0 O3 2.026 . S
Sc0 O10 2.105 . S
Sc0 O13 2.105 . S
Sc0 O16 2.105 . S
Sc0 O19 2.105 . S
Sc1 O3 2.025 . S
Sc1 O11 2.104 . S
Sc1 O15 2.105 1_554 S
Sc1 O17 2.104 . S
Sc1 O21 2.105 1_554 S
Sc2 O3 2.025 1_556 S
Sc2 O12 2.105 . S
Sc2 O14 2.105 . S
Sc2 O18 2.105 . S
Sc2 O20 2.105 . S
O3 Sc0 2.026 . S
O3 Sc1 2.025 . S
O3 Sc2 2.025 1_554 S
C4 O10 1.270 . S
C4 O20 1.267 1_554 S
C5 O11 1.268 . S
C5 O19 1.268 . S
C6 O12 1.268 . S
C6 O21 1.268 . S
C7 O13 1.268 . S
C7 O17 1.268 . S
C8 O14 1.267 1_554 S
C8 O16 1.270 . S
C9 O15 1.268 . S
C9 O18 1.268 . S
O10 Sc0 2.105 . S
O10 C4 1.270 . S
O11 Sc1 2.104 . S
O11 C5 1.268 . S
O12 Sc2 2.105 . S
O12 C6 1.268 . S
O13 Sc0 2.105 . S
O13 C7 1.268 . S
O14 Sc2 2.105 . S
O14 C8 1.267 1_556 S
O15 Sc1 2.105 1_556 S
O15 C9 1.268 . S
O16 Sc0 2.105 . S
O16 C8 1.270 . S
O17 Sc1 2.104 . S
O17 C7 1.268 . S
O18 Sc2 2.105 . S
O18 C9 1.268 . S
O19 Sc0 2.105 . S
O19 C5 1.268 . S
O20 Sc2 2.105 . S
O20 C4 1.267 1_556 S
O21 Sc1 2.105 1_556 S
O21 C6 1.268 . S
Sc22 O25 2.025 . S
Sc22 O32 2.105 . S
Sc22 O35 2.105 . S
Sc22 O38 2.105 . S
Sc22 O41 2.105 . S
Sc23 O25 2.025 . S
Sc23 O33 2.105 . S
Sc23 O37 2.105 . S
Sc23 O39 2.105 . S
Sc23 O43 2.105 . S
Sc24 O25 2.025 . S
Sc24 O34 2.105 . S
Sc24 O36 2.105 . S
Sc24 O40 2.105 . S
Sc24 O42 2.105 . S
O25 Sc22 2.025 . S
O25 Sc23 2.025 . S
O25 Sc24 2.025 . S
C26 O32 1.268 . S
C26 O42 1.268 . S
C27 O33 1.268 . S
C27 O41 1.268 . S
C28 O34 1.268 . S
C28 O43 1.268 . S
C29 O35 1.268 . S
C29 O39 1.268 . S
C30 O36 1.268 . S
C30 O38 1.268 . S
C31 O37 1.268 . S
C31 O40 1.268 . S
O32 Sc22 2.105 . S
O32 C26 1.268 . S
O33 Sc23 2.105 . S
O33 C27 1.268 . S
O34 Sc24 2.105 . S
O34 C28 1.268 . S
O35 Sc22 2.105 . S
O35 C29 1.268 . S
O36 Sc24 2.105 . S
O36 C30 1.268 . S
O37 Sc23 2.105 . S
O37 C31 1.268 . S
O38 Sc22 2.105 . S
O38 C30 1.268 . S
O39 Sc23 2.105 . S
O39 C29 1.268 . S
O40 Sc24 2.105 . S
O40 C31 1.268 . S
O41 Sc22 2.105 . S
O41 C27 1.268 . S
O42 Sc24 2.105 . S
O42 C26 1.268 . S
O43 Sc23 2.105 . S
O43 C28 1.268 . S
Sc44 O47 2.021 1_556 S
Sc44 O54 2.105 . S
Sc44 O57 2.105 . S
Sc44 O60 2.105 . S
Sc44 O63 2.105 . S
Sc45 O47 2.025 . S
Sc45 O55 2.100 1_554 S
Sc45 O59 2.109 . S
Sc45 O61 2.100 1_554 S
Sc45 O65 2.109 . S
Sc46 O47 2.030 . S
Sc46 O56 2.105 . S
Sc46 O58 2.105 . S
Sc46 O62 2.105 . S
Sc46 O64 2.105 . S
O47 Sc44 2.021 1_554 S
O47 Sc45 2.025 . S
O47 Sc46 2.030 . S
C48 O54 1.265 1_554 S
C48 O64 1.272 . S
C49 O55 1.268 . S
C49 O63 1.268 . S
C50 O56 1.268 . S
C50 O65 1.268 . S
C51 O57 1.268 . S
C51 O61 1.268 . S
C52 O58 1.272 . S
C52 O60 1.265 1_554 S
C53 O59 1.268 . S
C53 O62 1.268 . S
O54 Sc44 2.105 . S
O54 C48 1.265 1_556 S
O55 Sc45 2.100 1_556 S
O55 C49 1.268 . S
O56 Sc46 2.105 . S
O56 C50 1.268 . S
O57 Sc44 2.105 . S
O57 C51 1.268 . S
O58 Sc46 2.105 . S
O58 C52 1.272 . S
O59 Sc45 2.109 . S
O59 C53 1.268 . S
O60 Sc44 2.105 . S
O60 C52 1.265 1_556 S
O61 Sc45 2.100 1_556 S
O61 C51 1.268 . S
O62 Sc46 2.105 . S
O62 C53 1.268 . S
O63 Sc44 2.105 . S
O63 C49 1.268 . S
O64 Sc46 2.105 . S
O64 C48 1.272 . S
O65 Sc45 2.109 . S
O65 C50 1.268 . S
Sc66 O69 2.025 . S
Sc66 O76 2.105 . S
Sc66 O79 2.105 . S
Sc66 O82 2.105 . S
Sc66 O85 2.105 . S
Sc67 O69 2.025 . S
Sc67 O77 2.105 . S
Sc67 O81 2.105 . S
Sc67 O83 2.105 . S
Sc67 O87 2.105 . S
Sc68 O69 2.025 . S
Sc68 O78 2.105 . S
Sc68 O80 2.105 . S
Sc68 O84 2.105 . S
Sc68 O86 2.105 . S
O69 Sc66 2.025 . S
O69 Sc67 2.025 . S
O69 Sc68 2.025 . S
C70 O76 1.268 . S
C70 O86 1.268 . S
C71 O77 1.268 . S
C71 O85 1.268 . S
C72 O78 1.268 . S
C72 O87 1.268 . S
C73 O79 1.268 . S
C73 O83 1.268 . S
C74 O80 1.268 . S
C74 O82 1.268 . S
C75 O81 1.268 . S
C75 O84 1.268 . S
O76 Sc66 2.105 . S
O76 C70 1.268 . S
O77 Sc67 2.105 . S
O77 C71 1.268 . S
O78 Sc68 2.105 . S
O78 C72 1.268 . S
O79 Sc66 2.105 . S
O79 C73 1.268 . S
O80 Sc68 2.105 . S
O80 C74 1.268 . S
O81 Sc67 2.105 . S
O81 C75 1.268 . S
O82 Sc66 2.105 . S
O82 C74 1.268 . S
O83 Sc67 2.105 . S
O83 C73 1.268 . S
O84 Sc68 2.105 . S
O84 C75 1.268 . S
O85 Sc66 2.105 . S
O85 C71 1.268 . S
O86 Sc68 2.105 . S
O86 C70 1.268 . S
O87 Sc67 2.105 . S
O87 C72 1.268 . S
C88 N89 1.317 . S
C88 N90 1.348 . S
C88 C91 1.485 . S
N89 C88 1.317 . S
N89 N93 1.370 1_556 S
N90 C88 1.348 . S
N90 C92 1.346 1_556 S
C91 C88 1.485 . S
C91 H95 0.960 . S
C91 H96 0.961 . S
C91 H97 0.960 . S
C92 N90 1.346 1_554 S
C92 N93 1.307 . S
C92 C94 1.486 . S
N93 N89 1.370 1_554 S
N93 C92 1.307 . S
C94 C92 1.486 . S
C94 H98 0.960 . S
C94 H99 0.960 . S
C94 H100 0.959 . S
H95 C91 0.960 . S
H96 C91 0.961 . S
H97 C91 0.960 . S
H98 C94 0.960 . S
H99 C94 0.960 . S
H100 C94 0.959 . S
C101 N102 1.317 1_455 S
C101 N103 1.348 . S
C101 C104 1.485 . S
N102 C101 1.317 1_655 S
N102 N106 1.370 . S
N103 C101 1.348 . S
N103 C105 1.346 . S
C104 C101 1.485 . S
C104 H108 0.960 . S
C104 H109 0.961 . S
C104 H110 0.960 1_455 S
C105 N103 1.346 . S
C105 N106 1.307 1_455 S
C105 C107 1.486 . S
N106 N102 1.370 . S
N106 C105 1.307 1_655 S
C107 C105 1.486 . S
C107 H111 0.960 . S
C107 H112 0.960 . S
C107 H113 0.934 1_455 S
H108 C104 0.960 . S
H109 C104 0.961 . S
H110 C104 0.960 1_655 S
H111 C107 0.960 . S
H112 C107 0.960 . S
H113 C107 0.934 1_655 S
C114 N115 1.317 . S
C114 N116 1.348 . S
C114 C117 1.485 . S
N115 C114 1.317 . S
N115 N119 1.370 1_554 S
N116 C114 1.348 . S
N116 C118 1.346 1_554 S
C117 C114 1.485 . S
C117 H121 0.960 . S
C117 H122 0.961 . S
C117 H123 0.960 . S
C118 N116 1.346 1_556 S
C118 N119 1.307 . S
C118 C120 1.486 . S
N119 N115 1.370 1_556 S
N119 C118 1.307 . S
C120 C118 1.486 . S
C120 H124 0.960 . S
C120 H125 0.960 . S
C120 H126 0.959 . S
H121 C117 0.960 . S
H122 C117 0.961 . S
H123 C117 0.960 . S
H124 C120 0.960 . S
H125 C120 0.960 . S
H126 C120 0.959 . S
C127 N128 1.317 1_655 S
C127 N129 1.348 . S
C127 C130 1.485 . S
N128 C127 1.317 1_455 S
N128 N132 1.370 . S
N129 C127 1.348 . S
N129 C131 1.346 . S
C130 C127 1.485 . S
C130 H134 0.960 . S
C130 H135 0.961 . S
C130 H136 0.960 1_655 S
C131 N129 1.346 . S
C131 N132 1.307 1_655 S
C131 C133 1.486 . S
N132 N128 1.370 . S
N132 C131 1.307 1_455 S
C133 C131 1.486 . S
C133 H137 0.960 . S
C133 H138 0.960 . S
C133 H139 0.959 1_655 S
H134 C130 0.960 . S
H135 C130 0.961 . S
H136 C130 0.960 1_455 S
H137 C133 0.960 . S
H138 C133 0.960 . S
H139 C133 0.959 1_455 S
C140 N141 1.317 1_545 S
C140 N142 1.348 . S
C140 C143 1.485 . S
N141 C140 1.317 1_565 S
N141 N145 1.370 . S
N142 C140 1.348 . S
N142 C144 1.346 . S
C143 C140 1.485 . S
C143 H147 0.960 . S
C143 H148 0.961 . S
C143 H149 0.960 1_545 S
C144 N142 1.346 . S
C144 N145 1.307 1_545 S
C144 C146 1.486 . S
N145 N141 1.370 . S
N145 C144 1.307 1_565 S
C146 C144 1.486 . S
C146 H150 0.960 . S
C146 H151 0.960 . S
C146 H152 0.959 1_545 S
H147 C143 0.960 . S
H148 C143 0.961 . S
H149 C143 0.960 1_565 S
H150 C146 0.960 . S
H151 C146 0.960 . S
H152 C146 0.959 1_565 S
C153 N154 1.317 . S
C153 N155 1.348 . S
C153 C156 1.485 . S
N154 C153 1.317 . S
N154 N158 1.370 1_556 S
N155 C153 1.348 . S
N155 C157 1.346 1_556 S
C156 C153 1.485 . S
C156 H160 0.960 . S
C156 H161 0.961 . S
C156 H162 0.960 . S
C157 N155 1.346 1_554 S
C157 N158 1.307 . S
C157 C159 1.486 . S
N158 N154 1.370 1_554 S
N158 C157 1.307 . S
C159 C157 1.486 . S
C159 H163 0.960 . S
C159 H164 0.960 . S
C159 H165 0.959 . S
H160 C156 0.960 . S
H161 C156 0.961 . S
H162 C156 0.960 . S
H163 C159 0.960 . S
H164 C159 0.960 . S
H165 C159 0.959 . S
C166 N167 1.317 1_565 S
C166 N168 1.348 . S
C166 C169 1.485 . S
N167 C166 1.317 1_545 S
N167 N171 1.370 . S
N168 C166 1.348 . S
N168 C170 1.346 . S
C169 C166 1.485 . S
C169 H173 0.960 . S
C169 H174 0.961 . S
C169 H175 0.960 1_565 S
C170 N168 1.346 . S
C170 N171 1.307 1_565 S
C170 C172 1.486 . S
N171 N167 1.370 . S
N171 C170 1.307 1_545 S
C172 C170 1.486 . S
C172 H176 0.960 . S
C172 H177 0.960 . S
C172 H178 0.934 1_565 S
H173 C169 0.960 . S
H174 C169 0.961 . S
H175 C169 0.960 1_545 S
H176 C172 0.960 . S
H177 C172 0.960 . S
H178 C172 0.934 1_545 S
C179 N180 1.317 . S
C179 N181 1.348 . S
C179 C182 1.485 . S
N180 C179 1.317 . S
N180 N184 1.370 1_554 S
N181 C179 1.348 . S
N181 C183 1.346 1_554 S
C182 C179 1.485 . S
C182 H186 0.960 . S
C182 H187 0.961 . S
C182 H188 0.960 . S
C183 N181 1.346 1_556 S
C183 N184 1.307 . S
C183 C185 1.486 . S
N184 N180 1.370 1_556 S
N184 C183 1.307 . S
C185 C183 1.486 . S
C185 H189 0.960 . S
C185 H190 0.960 . S
C185 H191 0.959 . S
H186 C182 0.960 . S
H187 C182 0.961 . S
H188 C182 0.960 . S
H189 C185 0.960 . S
H190 C185 0.960 . S
H191 C185 0.959 . S
H192 C198 0.930 . S
H193 C201 0.930 . S
H194 C202 0.930 . S
H195 C203 0.930 . S
H196 C206 0.930 . S
H197 C207 0.930 . S
C198 H192 0.930 . S
C198 C199 1.355 . S
C198 C200 1.415 . S
C199 C198 1.355 . S
C199 C201 1.419 . S
C200 C198 1.415 . S
C200 C205 1.425 . S
C200 C207 1.409 . S
C201 H193 0.930 . S
C201 C199 1.419 . S
C201 C202 1.362 . S
C202 H194 0.930 . S
C202 C201 1.362 . S
C202 C205 1.409 . S
C203 H195 0.930 . S
C203 C204 1.355 . S
C203 C205 1.415 . S
C204 C203 1.355 . S
C204 C206 1.419 . S
C205 C200 1.425 . S
C205 C202 1.409 . S
C205 C203 1.415 . S
C206 H196 0.930 . S
C206 C204 1.419 . S
C206 C207 1.362 . S
C207 H197 0.930 . S
C207 C200 1.409 . S
C207 C206 1.362 . S
H208 C214 0.930 . S
H209 C217 0.930 . S
H210 C218 0.930 . S
H211 C219 0.930 . S
H212 C222 0.930 . S
H213 C223 0.930 . S
C214 H208 0.930 . S
C214 C215 1.355 . S
C214 C216 1.415 . S
C215 C214 1.355 . S
C215 C217 1.419 . S
C216 C214 1.415 . S
C216 C221 1.425 . S
C216 C223 1.409 . S
C217 H209 0.930 . S
C217 C215 1.419 . S
C217 C218 1.362 . S
C218 H210 0.930 . S
C218 C217 1.362 . S
C218 C221 1.409 . S
C219 H211 0.930 . S
C219 C220 1.355 . S
C219 C221 1.415 . S
C220 C219 1.355 . S
C220 C222 1.419 . S
C221 C216 1.425 . S
C221 C218 1.409 . S
C221 C219 1.415 . S
C222 H212 0.930 . S
C222 C220 1.419 . S
C222 C223 1.362 . S
C223 H213 0.930 . S
C223 C216 1.409 . S
C223 C222 1.362 . S
H224 C230 0.930 . S
H225 C233 0.930 . S
H226 C234 0.930 . S
H227 C235 0.930 . S
H228 C238 0.930 . S
H229 C239 0.930 . S
C230 H224 0.930 . S
C230 C231 1.355 . S
C230 C232 1.415 . S
C231 C230 1.355 . S
C231 C233 1.419 . S
C232 C230 1.415 . S
C232 C237 1.425 . S
C232 C239 1.409 . S
C233 H225 0.930 . S
C233 C231 1.419 . S
C233 C234 1.362 . S
C234 H226 0.930 . S
C234 C233 1.362 . S
C234 C237 1.409 . S
C235 H227 0.930 . S
C235 C236 1.355 . S
C235 C237 1.415 . S
C236 C235 1.355 . S
C236 C238 1.419 . S
C237 C232 1.425 . S
C237 C234 1.409 . S
C237 C235 1.415 . S
C238 H228 0.930 . S
C238 C236 1.419 . S
C238 C239 1.362 . S
C239 H229 0.930 . S
C239 C232 1.409 . S
C239 C238 1.362 . S
H240 C246 0.930 . S
H241 C249 0.930 . S
H242 C250 0.930 . S
H243 C251 0.930 . S
H244 C254 0.930 . S
H245 C255 0.930 . S
C246 H240 0.930 . S
C246 C247 1.355 . S
C246 C248 1.415 . S
C247 C246 1.355 . S
C247 C249 1.419 . S
C248 C246 1.415 . S
C248 C253 1.425 . S
C248 C255 1.409 . S
C249 H241 0.930 . S
C249 C247 1.419 . S
C249 C250 1.362 . S
C250 H242 0.930 . S
C250 C249 1.362 . S
C250 C253 1.409 . S
C251 H243 0.930 . S
C251 C252 1.355 . S
C251 C253 1.415 . S
C252 C251 1.355 . S
C252 C254 1.419 . S
C253 C248 1.425 . S
C253 C250 1.409 . S
C253 C251 1.415 . S
C254 H244 0.930 . S
C254 C252 1.419 . S
C254 C255 1.362 . S
C255 H245 0.930 . S
C255 C248 1.409 . S
C255 C254 1.362 . S
H256 C262 0.930 . S
H257 C265 0.930 . S
H258 C266 0.930 . S
H259 C267 0.930 . S
H260 C270 0.930 . S
H261 C271 0.930 . S
C262 H256 0.930 . S
C262 C263 1.355 . S
C262 C264 1.415 . S
C263 C262 1.355 . S
C263 C265 1.419 . S
C264 C262 1.415 . S
C264 C269 1.425 . S
C264 C271 1.409 . S
C265 H257 0.930 . S
C265 C263 1.419 . S
C265 C266 1.362 . S
C266 H258 0.930 . S
C266 C265 1.362 . S
C266 C269 1.409 . S
C267 H259 0.930 . S
C267 C268 1.355 . S
C267 C269 1.415 . S
C268 C267 1.355 . S
C268 C270 1.419 . S
C269 C264 1.425 . S
C269 C266 1.409 . S
C269 C267 1.415 . S
C270 H260 0.930 . S
C270 C268 1.419 . S
C270 C271 1.362 . S
C271 H261 0.930 . S
C271 C264 1.409 . S
C271 C270 1.362 . S
H272 C278 0.930 . S
H273 C281 0.930 . S
H274 C282 0.930 . S
H275 C283 0.930 . S
H276 C286 0.930 . S
H277 C287 0.930 . S
C278 H272 0.930 . S
C278 C279 1.355 . S
C278 C280 1.415 . S
C279 C278 1.355 . S
C279 C281 1.419 . S
C280 C278 1.415 . S
C280 C285 1.425 . S
C280 C287 1.409 . S
C281 H273 0.930 . S
C281 C279 1.419 . S
C281 C282 1.362 . S
C282 H274 0.930 . S
C282 C281 1.362 . S
C282 C285 1.409 . S
C283 H275 0.930 . S
C283 C284 1.355 . S
C283 C285 1.415 . S
C284 C283 1.355 . S
C284 C286 1.419 . S
C285 C280 1.425 . S
C285 C282 1.409 . S
C285 C283 1.415 . S
C286 H276 0.930 . S
C286 C284 1.419 . S
C286 C287 1.362 . S
C287 H277 0.930 . S
C287 C280 1.409 . S
C287 C286 1.362 . S
H288 C294 0.930 . S
H289 C297 0.930 . S
H290 C298 0.930 . S
H291 C299 0.930 . S
H292 C302 0.930 . S
H293 C303 0.930 . S
C294 H288 0.930 . S
C294 C295 1.355 . S
C294 C296 1.415 . S
C295 C294 1.355 . S
C295 C297 1.419 . S
C296 C294 1.415 . S
C296 C301 1.425 . S
C296 C303 1.409 . S
C297 H289 0.930 . S
C297 C295 1.419 . S
C297 C298 1.362 . S
C298 H290 0.930 . S
C298 C297 1.362 . S
C298 C301 1.409 . S
C299 H291 0.930 . S
C299 C300 1.355 . S
C299 C301 1.415 . S
C300 C299 1.355 . S
C300 C302 1.419 . S
C301 C296 1.425 . S
C301 C298 1.409 . S
C301 C299 1.415 . S
C302 H292 0.930 . S
C302 C300 1.419 . S
C302 C303 1.362 . S
C303 H293 0.930 . S
C303 C296 1.409 . S
C303 C302 1.362 . S
H304 C310 0.930 . S
H305 C313 0.930 . S
H306 C314 0.930 . S
H307 C315 0.930 . S
H308 C318 0.930 . S
H309 C319 0.930 . S
C310 H304 0.930 . S
C310 C311 1.355 . S
C310 C312 1.415 . S
C311 C310 1.355 . S
C311 C313 1.419 . S
C312 C310 1.415 . S
C312 C317 1.425 . S
C312 C319 1.409 . S
C313 H305 0.930 . S
C313 C311 1.419 . S
C313 C314 1.362 . S
C314 H306 0.930 . S
C314 C313 1.362 . S
C314 C317 1.409 . S
C315 H307 0.930 . S
C315 C316 1.355 . S
C315 C317 1.415 . S
C316 C315 1.355 . S
C316 C318 1.419 . S
C317 C312 1.425 . S
C317 C314 1.409 . S
C317 C315 1.415 . S
C318 H308 0.930 . S
C318 C316 1.419 . S
C318 C319 1.362 . S
C319 H309 0.930 . S
C319 C312 1.409 . S
C319 C318 1.362 . S
H320 C326 0.930 . S
H321 C329 0.930 . S
H322 C330 0.930 . S
H323 C331 0.930 . S
H324 C334 0.930 . S
H325 C335 0.930 . S
C326 H320 0.930 . S
C326 C327 1.355 . S
C326 C328 1.415 . S
C327 C326 1.355 . S
C327 C329 1.419 . S
C328 C326 1.415 . S
C328 C333 1.425 . S
C328 C335 1.409 . S
C329 H321 0.930 . S
C329 C327 1.419 . S
C329 C330 1.362 . S
C330 H322 0.930 . S
C330 C329 1.362 . S
C330 C333 1.409 . S
C331 H323 0.930 . S
C331 C332 1.355 . S
C331 C333 1.415 . S
C332 C331 1.355 . S
C332 C334 1.419 . S
C333 C328 1.425 . S
C333 C330 1.409 . S
C333 C331 1.415 . S
C334 H324 0.930 . S
C334 C332 1.419 . S
C334 C335 1.362 . S
C335 H325 0.930 . S
C335 C328 1.409 . S
C335 C334 1.362 . S
H336 C342 0.930 . S
H337 C345 0.930 . S
H338 C346 0.930 . S
H339 C347 0.930 . S
H340 C350 0.930 . S
H341 C351 0.930 . S
C342 H336 0.930 . S
C342 C343 1.355 . S
C342 C344 1.415 . S
C343 C342 1.355 . S
C343 C345 1.419 . S
C344 C342 1.415 . S
C344 C349 1.425 . S
C344 C351 1.409 . S
C345 H337 0.930 . S
C345 C343 1.419 . S
C345 C346 1.362 . S
C346 H338 0.930 . S
C346 C345 1.362 . S
C346 C349 1.409 . S
C347 H339 0.930 . S
C347 C348 1.355 . S
C347 C349 1.415 . S
C348 C347 1.355 . S
C348 C350 1.419 . S
C349 C344 1.425 . S
C349 C346 1.409 . S
C349 C347 1.415 . S
C350 H340 0.930 . S
C350 C348 1.419 . S
C350 C351 1.362 . S
C351 H341 0.930 . S
C351 C344 1.409 . S
C351 C350 1.362 . S
H352 C358 0.930 . S
H353 C361 0.930 . S
H354 C362 0.930 . S
H355 C363 0.930 . S
H356 C366 0.930 . S
H357 C367 0.930 . S
C358 H352 0.930 . S
C358 C359 1.355 . S
C358 C360 1.415 . S
C359 C358 1.355 . S
C359 C361 1.419 . S
C360 C358 1.415 . S
C360 C365 1.425 . S
C360 C367 1.409 . S
C361 H353 0.930 . S
C361 C359 1.419 . S
C361 C362 1.362 . S
C362 H354 0.930 . S
C362 C361 1.362 . S
C362 C365 1.409 . S
C363 H355 0.930 . S
C363 C364 1.355 . S
C363 C365 1.415 . S
C364 C363 1.355 . S
C364 C366 1.419 . S
C365 C360 1.425 . S
C365 C362 1.409 . S
C365 C363 1.415 . S
C366 H356 0.930 . S
C366 C364 1.419 . S
C366 C367 1.362 . S
C367 H357 0.930 . S
C367 C360 1.409 . S
C367 C366 1.362 . S
H368 C374 0.930 . S
H369 C377 0.930 . S
H370 C378 0.930 . S
H371 C379 0.930 . S
H372 C382 0.930 1_556 S
H373 C383 0.930 . S
C374 H368 0.930 . S
C374 C375 1.355 . S
C374 C376 1.415 . S
C375 C374 1.355 . S
C375 C377 1.419 . S
C376 C374 1.415 . S
C376 C381 1.425 . S
C376 C383 1.409 . S
C377 H369 0.930 . S
C377 C375 1.419 . S
C377 C378 1.362 . S
C378 H370 0.930 . S
C378 C377 1.362 . S
C378 C381 1.409 . S
C379 H371 0.930 . S
C379 C380 1.355 . S
C379 C381 1.415 . S
C380 C379 1.355 . S
C380 C382 1.419 . S
C381 C376 1.425 . S
C381 C378 1.409 . S
C381 C379 1.415 . S
C382 H372 0.930 1_554 S
C382 C380 1.419 . S
C382 C383 1.362 . S
C383 H373 0.930 . S
C383 C376 1.409 . S
C383 C382 1.362 . S
H384 C390 0.930 . S
H385 C393 0.930 . S
H386 C394 0.930 . S
H387 C395 0.930 . S
H388 C398 0.930 . S
H389 C399 0.930 . S
C390 H384 0.930 . S
C390 C391 1.355 . S
C390 C392 1.415 . S
C391 C390 1.355 . S
C391 C393 1.419 . S
C392 C390 1.415 . S
C392 C397 1.425 . S
C392 C399 1.409 . S
C393 H385 0.930 . S
C393 C391 1.419 . S
C393 C394 1.362 . S
C394 H386 0.930 . S
C394 C393 1.362 . S
C394 C397 1.409 . S
C395 H387 0.930 . S
C395 C396 1.355 . S
C395 C397 1.415 . S
C396 C395 1.355 . S
C396 C398 1.419 . S
C397 C392 1.425 . S
C397 C394 1.409 . S
C397 C395 1.415 . S
C398 H388 0.930 . S
C398 C396 1.419 . S
C398 C399 1.362 . S
C399 H389 0.930 . S
C399 C392 1.409 . S
C399 C398 1.362 . S
H400 C406 0.930 . S
H401 C409 0.930 . S
H402 C410 0.930 . S
H403 C411 0.930 . S
H404 C414 0.930 . S
H405 C415 0.930 . S
C406 H400 0.930 . S
C406 C407 1.355 . S
C406 C408 1.415 . S
C407 C406 1.355 . S
C407 C409 1.419 . S
C408 C406 1.415 . S
C408 C413 1.425 . S
C408 C415 1.409 . S
C409 H401 0.930 . S
C409 C407 1.419 . S
C409 C410 1.362 . S
C410 H402 0.930 . S
C410 C409 1.362 . S
C410 C413 1.409 . S
C411 H403 0.930 . S
C411 C412 1.355 . S
C411 C413 1.415 . S
C412 C411 1.355 . S
C412 C414 1.419 . S
C413 C408 1.425 . S
C413 C410 1.409 . S
C413 C411 1.415 . S
C414 H404 0.930 . S
C414 C412 1.419 . S
C414 C415 1.362 . S
C415 H405 0.930 . S
C415 C408 1.409 . S
C415 C414 1.362 . S
H416 C422 0.930 . S
H417 C425 0.930 . S
H418 C426 0.930 . S
H419 C427 0.930 . S
H420 C430 0.930 . S
H421 C431 0.930 . S
C422 H416 0.930 . S
C422 C423 1.355 . S
C422 C424 1.415 . S
C423 C422 1.355 . S
C423 C425 1.419 . S
C424 C422 1.415 . S
C424 C429 1.425 . S
C424 C431 1.409 . S
C425 H417 0.930 . S
C425 C423 1.419 . S
C425 C426 1.362 . S
C426 H418 0.930 . S
C426 C425 1.362 . S
C426 C429 1.409 . S
C427 H419 0.930 . S
C427 C428 1.355 . S
C427 C429 1.415 . S
C428 C427 1.355 . S
C428 C430 1.419 . S
C429 C424 1.425 . S
C429 C426 1.409 . S
C429 C427 1.415 . S
C430 H420 0.930 . S
C430 C428 1.419 . S
C430 C431 1.362 . S
C431 H421 0.930 . S
C431 C424 1.409 . S
C431 C430 1.362 . S
H432 C438 0.930 . S
H433 C441 0.930 . S
H434 C442 0.930 . S
H435 C443 0.930 . S
H436 C446 0.930 . S
H437 C447 0.930 . S
C438 H432 0.930 . S
C438 C439 1.355 . S
C438 C440 1.415 . S
C439 C438 1.355 . S
C439 C441 1.419 . S
C440 C438 1.415 . S
C440 C445 1.425 . S
C440 C447 1.409 . S
C441 H433 0.930 . S
C441 C439 1.419 . S
C441 C442 1.362 . S
C442 H434 0.930 . S
C442 C441 1.362 . S
C442 C445 1.409 . S
C443 H435 0.930 . S
C443 C444 1.355 . S
C443 C445 1.415 . S
C444 C443 1.355 . S
C444 C446 1.419 . S
C445 C440 1.425 . S
C445 C442 1.409 . S
C445 C443 1.415 . S
C446 H436 0.930 . S
C446 C444 1.419 . S
C446 C447 1.362 . S
C447 H437 0.930 . S
C447 C440 1.409 . S
C447 C446 1.362 . S
H448 C454 0.930 . S
H449 C457 0.930 . S
H450 C458 0.930 . S
H451 C459 0.930 . S
H452 C462 0.930 . S
H453 C463 0.930 . S
C454 H448 0.930 . S
C454 C455 1.355 1_554 S
C454 C456 1.415 . S
C455 C454 1.355 1_556 S
C455 C457 1.419 . S
C456 C454 1.415 . S
C456 C461 1.425 1_554 S
C456 C463 1.409 . S
C457 H449 0.930 . S
C457 C455 1.419 . S
C457 C458 1.362 . S
C458 H450 0.930 . S
C458 C457 1.362 . S
C458 C461 1.409 . S
C459 H451 0.930 . S
C459 C460 1.355 1_556 S
C459 C461 1.415 . S
C460 C459 1.355 1_554 S
C460 C462 1.419 . S
C461 C456 1.425 1_556 S
C461 C458 1.409 . S
C461 C459 1.415 . S
C462 H452 0.930 . S
C462 C460 1.419 . S
C462 C463 1.362 . S
C463 H453 0.930 . S
C463 C456 1.409 . S
C463 C462 1.362 . S
H464 C470 0.930 . S
H465 C473 0.930 . S
H466 C474 0.930 . S
H467 C475 0.930 . S
H468 C478 0.930 . S
H469 C479 0.930 . S
C470 H464 0.930 . S
C470 C471 1.355 . S
C470 C472 1.415 . S
C471 C470 1.355 . S
C471 C473 1.419 . S
C472 C470 1.415 . S
C472 C477 1.425 . S
C472 C479 1.409 . S
C473 H465 0.930 . S
C473 C471 1.419 . S
C473 C474 1.362 . S
C474 H466 0.930 . S
C474 C473 1.362 . S
C474 C477 1.409 . S
C475 H467 0.930 . S
C475 C476 1.355 . S
C475 C477 1.415 . S
C476 C475 1.355 . S
C476 C478 1.419 . S
C477 C472 1.425 . S
C477 C474 1.409 . S
C477 C475 1.415 . S
C478 H468 0.930 . S
C478 C476 1.419 . S
C478 C479 1.362 . S
C479 H469 0.930 . S
C479 C472 1.409 . S
C479 C478 1.362 . S
H480 C486 0.930 . S
H481 C489 0.930 . S
H482 C490 0.930 . S
H483 C491 0.930 . S
H484 C494 0.930 . S
H485 C495 0.930 . S
C486 H480 0.930 . S
C486 C487 1.355 . S
C486 C488 1.414 1_556 S
C487 C486 1.355 . S
C487 C489 1.419 . S
C488 C486 1.414 1_554 S
C488 C493 1.425 1_554 S
C488 C495 1.410 . S
C489 H481 0.930 . S
C489 C487 1.419 . S
C489 C490 1.362 . S
C490 H482 0.930 . S
C490 C489 1.362 . S
C490 C493 1.409 . S
C491 H483 0.930 . S
C491 C492 1.355 . S
C491 C493 1.415 1_554 S
C492 C491 1.355 . S
C492 C494 1.419 . S
C493 C488 1.425 1_556 S
C493 C490 1.409 . S
C493 C491 1.415 1_556 S
C494 H484 0.930 . S
C494 C492 1.419 . S
C494 C495 1.362 . S
C495 H485 0.930 . S
C495 C488 1.410 . S
C495 C494 1.362 . S
H496 C502 0.930 . S
H497 C505 0.930 . S
H498 C506 0.930 . S
H499 C507 0.930 . S
H500 C510 0.930 . S
H501 C511 0.930 . S
C502 H496 0.930 . S
C502 C503 1.355 . S
C502 C504 1.415 . S
C503 C502 1.355 . S
C503 C505 1.419 . S
C504 C502 1.415 . S
C504 C509 1.425 . S
C504 C511 1.409 . S
C505 H497 0.930 . S
C505 C503 1.419 . S
C505 C506 1.362 . S
C506 H498 0.930 . S
C506 C505 1.362 . S
C506 C509 1.409 . S
C507 H499 0.930 . S
C507 C508 1.355 . S
C507 C509 1.415 . S
C508 C507 1.355 . S
C508 C510 1.419 . S
C509 C504 1.425 . S
C509 C506 1.409 . S
C509 C507 1.415 . S
C510 H500 0.930 . S
C510 C508 1.419 . S
C510 C511 1.362 . S
C511 H501 0.930 . S
C511 C504 1.409 . S
C511 C510 1.362 . S
H512 C518 0.930 . S
H513 C521 0.930 . S
H514 C522 0.930 . S
H515 C523 0.930 . S
H516 C526 0.930 . S
H517 C527 0.930 . S
C518 H512 0.930 . S
C518 C519 1.355 . S
C518 C520 1.415 . S
C519 C518 1.355 . S
C519 C521 1.419 . S
C520 C518 1.415 . S
C520 C525 1.425 . S
C520 C527 1.409 . S
C521 H513 0.930 . S
C521 C519 1.419 . S
C521 C522 1.362 . S
C522 H514 0.930 . S
C522 C521 1.362 . S
C522 C525 1.409 . S
C523 H515 0.930 . S
C523 C524 1.355 . S
C523 C525 1.415 . S
C524 C523 1.355 . S
C524 C526 1.419 . S
C525 C520 1.425 . S
C525 C522 1.409 . S
C525 C523 1.415 . S
C526 H516 0.930 . S
C526 C524 1.419 . S
C526 C527 1.362 . S
C527 H517 0.930 . S
C527 C520 1.409 . S
C527 C526 1.362 . S
H528 C534 0.930 . S
H529 C537 0.930 . S
H530 C538 0.930 . S
H531 C539 0.930 . S
H532 C542 0.930 . S
H533 C543 0.930 . S
C534 H528 0.930 . S
C534 C535 1.355 1_554 S
C534 C536 1.415 . S
C535 C534 1.355 1_556 S
C535 C537 1.419 . S
C536 C534 1.415 . S
C536 C541 1.425 1_554 S
C536 C543 1.409 . S
C537 H529 0.930 . S
C537 C535 1.419 . S
C537 C538 1.362 . S
C538 H530 0.930 . S
C538 C537 1.362 . S
C538 C541 1.409 . S
C539 H531 0.930 . S
C539 C540 1.355 1_556 S
C539 C541 1.415 . S
C540 C539 1.355 1_554 S
C540 C542 1.419 . S
C541 C536 1.425 1_556 S
C541 C538 1.409 . S
C541 C539 1.415 . S
C542 H532 0.930 . S
C542 C540 1.419 . S
C542 C543 1.362 . S
C543 H533 0.930 . S
C543 C536 1.409 . S
C543 C542 1.362 . S
H544 C550 0.930 . S
H545 C553 0.930 . S
H546 C554 0.930 . S
H547 C555 0.930 . S
H548 C558 0.930 . S
H549 C559 0.930 . S
C550 H544 0.930 . S
C550 C551 1.355 . S
C550 C552 1.415 . S
C551 C550 1.355 . S
C551 C553 1.419 . S
C552 C550 1.415 . S
C552 C557 1.425 . S
C552 C559 1.409 . S
C553 H545 0.930 . S
C553 C551 1.419 . S
C553 C554 1.362 . S
C554 H546 0.930 . S
C554 C553 1.362 . S
C554 C557 1.409 . S
C555 H547 0.930 . S
C555 C556 1.355 . S
C555 C557 1.415 . S
C556 C555 1.355 . S
C556 C558 1.419 . S
C557 C552 1.425 . S
C557 C554 1.409 . S
C557 C555 1.415 . S
C558 H548 0.930 . S
C558 C556 1.419 . S
C558 C559 1.362 . S
C559 H549 0.930 . S
C559 C552 1.409 . S
C559 C558 1.362 . S
H560 C566 0.930 . S
H561 C569 0.930 . S
H562 C570 0.930 . S
H563 C571 0.930 . S
H564 C574 0.930 . S
H565 C575 0.930 . S
C566 H560 0.930 . S
C566 C567 1.355 1_556 S
C566 C568 1.415 . S
C567 C566 1.355 1_554 S
C567 C569 1.419 . S
C568 C566 1.415 . S
C568 C573 1.425 1_556 S
C568 C575 1.409 . S
C569 H561 0.930 . S
C569 C567 1.419 . S
C569 C570 1.362 . S
C570 H562 0.930 . S
C570 C569 1.362 . S
C570 C573 1.409 . S
C571 H563 0.930 . S
C571 C572 1.355 1_554 S
C571 C573 1.415 . S
C572 C571 1.355 1_556 S
C572 C574 1.419 . S
C573 C568 1.425 1_554 S
C573 C570 1.409 . S
C573 C571 1.415 . S
C574 H564 0.930 . S
C574 C572 1.419 . S
C574 C575 1.362 . S
C575 H565 0.930 . S
C575 C568 1.409 . S
C575 C574 1.362 . S
C199 C5 1.479 . S
C204 N128 1.488 . S
C215 C31 1.467 . S
C220 N89 1.493 . S
C236 N106 1.475 . S
C231 C53 1.477 . S
C247 C71 1.446 . S
C252 N119 1.485 . S
C268 N158 1.474 . S
C263 C75 1.473 . S
C284 N171 1.486 . S
C279 C9 1.446 . S
C300 N180 1.460 . S
C295 C27 1.468 . S
C316 N141 1.493 . S
C311 C49 1.460 . S
C327 C51 1.488 . S
C332 N102 1.492 . S
C343 C72 1.445 . S
C348 N115 1.482 . S
C359 C6 1.466 . S
C364 N132 1.470 . S
C380 N93 1.483 . S
C375 C29 1.489 . S
C391 C28 1.446 . S
C396 N184 1.477 . S
C412 N145 1.493 . S
C407 C50 1.479 . S
C428 N154 1.488 . S
C423 C73 1.456 . S
C439 C7 1.456 . S
C444 N167 1.488 . S
C460 N90 1.508 1_554 S
C455 C4 1.483 1_556 S
C476 N103 1.502 . S
C471 C30 1.510 . S
C487 C52 1.473 1_556 S
C492 N116 1.510 . S
C503 C70 1.505 . S
C508 N129 1.491 . S
C524 N142 1.489 . S
C519 C74 1.511 . S
C535 C8 1.509 1_556 S
C540 N155 1.502 1_554 S
C551 C26 1.504 . S
C556 N168 1.501 . S
C567 C48 1.477 . S
C572 N181 1.511 1_556 S
