# Generated by pormake.
# Topology the, (3,8)-cn, num edge types: 1
# Building blocks:
#     Node 0, Type 0, BuildingBlock: INOVEN_clean_linker_0, # of connection points: 3
#     Node 1, Type 0, BuildingBlock: INOVEN_clean_linker_0, # of connection points: 3
#     Node 2, Type 0, BuildingBlock: INOVEN_clean_linker_0, # of connection points: 3
#     Node 3, Type 0, BuildingBlock: INOVEN_clean_linker_0, # of connection points: 3
#     Node 4, Type 0, BuildingBlock: INOVEN_clean_linker_0, # of connection points: 3
#     Node 5, Type 0, BuildingBlock: INOVEN_clean_linker_0, # of connection points: 3
#     Node 6, Type 0, BuildingBlock: INOVEN_clean_linker_0, # of connection points: 3
#     Node 7, Type 0, BuildingBlock: INOVEN_clean_linker_0, # of connection points: 3
#     Node 8, Type 1, BuildingBlock: GIZVER_clean_sbu_0, # of connection points: 8
#     Node 9, Type 1, BuildingBlock: GIZVER_clean_sbu_0, # of connection points: 8
#     Node 10, Type 1, BuildingBlock: GIZVER_clean_sbu_0, # of connection points: 8
#     Edge 11, Type (0, 1), BuildingBlock: AJUNOK_clean_linker_0, # of connection points: 2
#     Edge 12, Type (0, 1), BuildingBlock: AJUNOK_clean_linker_0, # of connection points: 2
#     Edge 13, Type (0, 1), BuildingBlock: AJUNOK_clean_linker_0, # of connection points: 2
#     Edge 14, Type (0, 1), BuildingBlock: AJUNOK_clean_linker_0, # of connection points: 2
#     Edge 15, Type (0, 1), BuildingBlock: AJUNOK_clean_linker_0, # of connection points: 2
#     Edge 16, Type (0, 1), BuildingBlock: AJUNOK_clean_linker_0, # of connection points: 2
#     Edge 17, Type (0, 1), BuildingBlock: AJUNOK_clean_linker_0, # of connection points: 2
#     Edge 18, Type (0, 1), BuildingBlock: AJUNOK_clean_linker_0, # of connection points: 2
#     Edge 19, Type (0, 1), BuildingBlock: AJUNOK_clean_linker_0, # of connection points: 2
#     Edge 20, Type (0, 1), BuildingBlock: AJUNOK_clean_linker_0, # of connection points: 2
#     Edge 21, Type (0, 1), BuildingBlock: AJUNOK_clean_linker_0, # of connection points: 2
#     Edge 22, Type (0, 1), BuildingBlock: AJUNOK_clean_linker_0, # of connection points: 2
#     Edge 23, Type (0, 1), BuildingBlock: AJUNOK_clean_linker_0, # of connection points: 2
#     Edge 24, Type (0, 1), BuildingBlock: AJUNOK_clean_linker_0, # of connection points: 2
#     Edge 25, Type (0, 1), BuildingBlock: AJUNOK_clean_linker_0, # of connection points: 2
#     Edge 26, Type (0, 1), BuildingBlock: AJUNOK_clean_linker_0, # of connection points: 2
#     Edge 27, Type (0, 1), BuildingBlock: AJUNOK_clean_linker_0, # of connection points: 2
#     Edge 28, Type (0, 1), BuildingBlock: AJUNOK_clean_linker_0, # of connection points: 2
#     Edge 29, Type (0, 1), BuildingBlock: AJUNOK_clean_linker_0, # of connection points: 2
#     Edge 30, Type (0, 1), BuildingBlock: AJUNOK_clean_linker_0, # of connection points: 2
#     Edge 31, Type (0, 1), BuildingBlock: AJUNOK_clean_linker_0, # of connection points: 2
#     Edge 32, Type (0, 1), BuildingBlock: AJUNOK_clean_linker_0, # of connection points: 2
#     Edge 33, Type (0, 1), BuildingBlock: AJUNOK_clean_linker_0, # of connection points: 2
#     Edge 34, Type (0, 1), BuildingBlock: AJUNOK_clean_linker_0, # of connection points: 2
# Relax obj value: 0.073
# Max RMSD: 0.199
# Mean RMSD: 0.120
data_MOF--net-the--node1-GIZVER_clean_sbu_0--node2-INOVEN_clean_linker_0--edge1-AJUNOK_clean_linker_0
_symmetry_space_group_name_H-M    P1
_symmetry_Int_Tables_number       1
_symmetry_cell_setting            triclinic
loop_
_symmetry_equiv_pos_as_xyz
'x, y, z'
_cell_length_a     30.117797
_cell_length_b     28.900595
_cell_length_c     27.335593
_cell_angle_alpha  87.117164
_cell_angle_beta   97.934614
_cell_angle_gamma 112.63501
loop_
_atom_site_label
_atom_site_type_symbol
_atom_site_fract_x
_atom_site_fract_y
_atom_site_fract_z
_atom_type_partial_charge
H0 H 0.34838 0.37635 0.35293 0.0
H1 H 0.442 0.29487 0.3589 0.0
H2 H 0.35723 0.28203 0.47744 0.0
N3 N 0.31329 0.34136 0.43736 0.0
N4 N 0.27649 0.34063 0.40972 0.0
C5 C 0.36389 0.35126 0.37221 0.0
C6 C 0.39752 0.3388 0.35104 0.0
C7 C 0.34931 0.33075 0.41768 0.0
C8 C 0.36911 0.29829 0.4426 0.0
C9 C 0.4025 0.28504 0.42148 0.0
C10 C 0.41679 0.30558 0.37575 0.0
H11 H 0.67394 0.23991 0.28209 0.0
H12 H 0.77367 0.27912 0.41592 0.0
H13 H 0.79599 0.38036 0.29188 0.0
N14 N 0.70943 0.32339 0.23731 0.0
N15 N 0.72035 0.36663 0.22028 0.0
C16 C 0.70732 0.26509 0.30262 0.0
C17 C 0.72013 0.25417 0.3517 0.0
C18 C 0.73316 0.31073 0.28134 0.0
C19 C 0.77624 0.34432 0.30768 0.0
C20 C 0.79214 0.33215 0.35586 0.0
C21 C 0.7635 0.28712 0.3778 0.0
H22 H 0.70988 0.7298 0.26106 0.0
H23 H 0.80671 0.65111 0.28632 0.0
H24 H 0.81292 0.75894 0.39243 0.0
N25 N 0.73896 0.78148 0.34283 0.0
N26 N 0.75711 0.81077 0.37873 0.0
C27 C 0.74055 0.72418 0.28234 0.0
C28 C 0.7563 0.68795 0.26722 0.0
C29 C 0.76116 0.75056 0.32676 0.0
C30 C 0.79866 0.74094 0.35667 0.0
C31 C 0.81526 0.70514 0.34198 0.0
C32 C 0.79469 0.67962 0.29684 0.0
H33 H 0.28346 0.63431 0.29558 0.0
H34 H 0.30716 0.74082 0.41097 0.0
H35 H 0.4229 0.75273 0.32861 0.0
N36 N 0.37219 0.66555 0.27658 0.0
N37 N 0.41627 0.67532 0.27622 0.0
C38 C 0.30648 0.66758 0.31682 0.0
C39 C 0.28868 0.68417 0.35457 0.0
C40 C 0.35486 0.69061 0.30839 0.0
C41 C 0.38531 0.73451 0.33489 0.0
C42 C 0.36767 0.75383 0.37095 0.0
C43 C 0.31963 0.72781 0.38115 0.0
H44 H 0.44988 0.77501 0.7776 0.0
H45 H 0.35004 0.75017 0.64417 0.0
H46 H 0.32866 0.63443 0.75503 0.0
N47 N 0.41458 0.68777 0.8144 0.0
N48 N 0.4054 0.64346 0.82763 0.0
C49 C 0.41692 0.75164 0.7551 0.0
C50 C 0.40368 0.76847 0.70863 0.0
C51 C 0.39147 0.70339 0.77156 0.0
C52 C 0.3485 0.67213 0.74282 0.0
C53 C 0.33235 0.68973 0.69715 0.0
C54 C 0.36065 0.73773 0.68032 0.0
H55 H 0.34576 0.24005 0.65404 0.0
H56 H 0.45149 0.25924 0.78261 0.0
H57 H 0.35915 0.3429 0.76792 0.0
N58 N 0.3103 0.30453 0.6801 0.0
N59 N 0.29995 0.33932 0.69371 0.0
C60 C 0.36187 0.2561 0.69032 0.0
C61 C 0.40042 0.24515 0.71618 0.0
C62 C 0.34627 0.29061 0.70922 0.0
C63 C 0.36913 0.31391 0.75504 0.0
C64 C 0.40663 0.3026 0.78273 0.0
C65 C 0.42199 0.26792 0.76267 0.0
H66 H 0.71687 0.26804 0.73496 0.0
H67 H 0.83856 0.27506 0.66598 0.0
H68 H 0.84177 0.40493 0.7407 0.0
N69 N 0.75291 0.35926 0.76895 0.0
N70 N 0.77186 0.40216 0.78735 0.0
C71 C 0.75399 0.28814 0.72769 0.0
C72 C 0.775 0.26622 0.69815 0.0
C73 C 0.77851 0.33746 0.74428 0.0
C74 C 0.82474 0.3656 0.73086 0.0
C75 C 0.84702 0.34421 0.70155 0.0
C76 C 0.82236 0.29338 0.68737 0.0
H77 H 0.71551 0.694 0.70508 0.0
H78 H 0.81386 0.61741 0.71789 0.0
H79 H 0.81801 0.72477 0.60125 0.0
N80 N 0.74602 0.74855 0.6292 0.0
N81 N 0.76866 0.78375 0.60275 0.0
C82 C 0.7445 0.68679 0.69161 0.0
C83 C 0.76255 0.653 0.71653 0.0
C84 C 0.76473 0.7133 0.65087 0.0
C85 C 0.80272 0.70492 0.63347 0.0
C86 C 0.81974 0.6694 0.65687 0.0
C87 C 0.80013 0.64405 0.69903 0.0
Co88 Co 0.14384 0.47321 0.54889 0.0
Co89 Co 0.09178 0.45409 0.46286 0.0
Co90 Co 0.05933 0.52421 0.52073 0.0
O91 O 0.07887 0.46522 0.52384 0.0
H92 H 0.05489 0.43515 0.53564 0.0
O93 O 0.03821 0.58241 0.51902 0.0
Co94 Co 0.97154 0.57187 0.49461 0.0
Co95 Co 0.02382 0.59101 0.58232 0.0
H96 H 0.06155 0.61291 0.50715 0.0
O97 O 0.09229 0.39355 0.44567 0.0
O98 O 0.15513 0.45909 0.48238 0.0
O99 O 0.09382 0.50425 0.41346 0.0
O100 O 0.1028 0.56155 0.4691 0.0
O101 O 1.00407 0.48742 0.46785 0.0
O102 O 0.9124 0.56738 0.47071 0.0
O103 O 0.98093 0.63679 0.47829 0.0
O104 O 0.95242 0.50335 0.50614 0.0
O105 O 1.01691 0.48635 0.57178 0.0
O106 O 1.0195 0.53776 0.63047 0.0
O107 O 0.9592 0.58026 0.56166 0.0
O108 O 1.01456 0.64833 0.60104 0.0
C109 C 0.1777 0.42913 0.58357 0.0
C110 C 0.15863 0.5677 0.56711 0.0
C111 C 0.11036 0.5496 0.42747 0.0
C112 C 0.13832 0.41539 0.46084 0.0
C113 C 0.93432 0.61519 0.46378 0.0
C114 C 0.96021 0.47833 0.47406 0.0
C115 C 1.0076 0.49373 0.61409 0.0
C116 C 0.96966 0.6218 0.58493 0.0
O117 O 0.20177 0.47614 0.57474 0.0
O118 O 0.13139 0.40846 0.56761 0.0
O119 O 0.1151 0.56041 0.57346 0.0
O120 O 0.16528 0.54169 0.53497 0.0
Co121 Co 0.60845 0.93658 0.49363 0.0
Co122 Co 0.63561 0.96772 0.58536 0.0
Co123 Co 0.56336 0.01676 0.5357 0.0
O124 O 0.61789 0.99622 0.52742 0.0
H125 H 0.64586 0.02419 0.51858 0.0
O126 O 0.51025 0.03997 0.54477 0.0
Co127 Co 0.52556 0.10439 0.57538 0.0
Co128 Co 0.49288 0.06782 0.4863 0.0
H129 H 0.48228 0.01366 0.55581 0.0
O130 O 0.69645 0.96417 0.59894 0.0
O131 O 0.62946 0.90892 0.55612 0.0
O132 O 0.59082 0.94729 0.6334 0.0
O133 O 0.53263 0.96135 0.58342 0.0
O134 O 0.60683 0.06108 0.59109 0.0
O135 O 0.53396 0.16091 0.60553 0.0
O136 O 0.46574 0.09175 0.59318 0.0
O137 O 0.59101 0.12673 0.56322 0.0
O138 O 0.59372 0.07212 0.48766 0.0
O139 O 0.53322 0.07762 0.4347 0.0
O140 O 0.50833 0.13171 0.51101 0.0
O141 O 0.43603 0.08002 0.47353 0.0
C142 C 0.64998 0.91146 0.45668 0.0
C143 C 0.51252 0.92347 0.48199 0.0
C144 C 0.54652 0.94054 0.62152 0.0
C145 C 0.6743 0.92152 0.57606 0.0
C146 C 0.48873 0.13687 0.61183 0.0
C147 C 0.61878 0.10833 0.58872 0.0
C148 C 0.57821 0.08872 0.4475 0.0
C149 C 0.46471 0.12429 0.48999 0.0
O150 O 0.60489 0.88366 0.4606 0.0
O151 O 0.66904 0.95635 0.47616 0.0
O152 O 0.51974 0.97021 0.48061 0.0
O153 O 0.54345 0.90841 0.50641 0.0
Co154 Co 0.52086 0.5235 0.12858 0.0
Co155 Co 0.49396 0.43317 0.10141 0.0
Co156 Co 0.56358 0.50704 0.02699 0.0
O157 O 0.50739 0.49103 0.06575 0.0
H158 H 0.47855 0.4919 0.04593 0.0
O159 O 0.61999 0.52453 0.98903 0.0
Co160 Co 0.61365 0.4968 0.92536 0.0
Co161 Co 0.6353 0.58763 0.95893 0.0
H162 H 0.64844 0.52392 1.00982 0.0
O163 O 0.43382 0.39755 0.11993 0.0
O164 O 0.49685 0.45828 0.16367 0.0
O165 O 0.54047 0.40225 0.10452 0.0
O166 O 0.59556 0.46513 0.06862 0.0
O167 O 0.52349 0.44694 0.98326 0.0
O168 O 0.61356 0.47199 0.86787 0.0
O169 O 0.67569 0.50135 0.92876 0.0
O170 O 0.54756 0.4862 0.91477 0.0
O171 O 0.53119 0.54774 0.98387 0.0
O172 O 0.58654 0.61612 0.95515 0.0
O173 O 0.62987 0.56361 0.89592 0.0
O174 O 0.69563 0.62265 0.93516 0.0
C175 C 0.48778 0.55703 0.16797 0.0
C176 C 0.61388 0.55731 0.11762 0.0
C177 C 0.58312 0.42426 0.09325 0.0
C178 C 0.45473 0.42114 0.16129 0.0
C179 C 0.65796 0.47935 0.88586 0.0
C180 C 0.51922 0.4486 0.93612 0.0
C181 C 0.54291 0.58993 0.96143 0.0
C182 C 0.67359 0.59648 0.89557 0.0
O183 O 0.52995 0.55603 0.18447 0.0
O184 O 0.46369 0.53188 0.12776 0.0
O185 O 0.60514 0.56609 0.07172 0.0
O186 O 0.58237 0.52146 0.13751 0.0
C187 C 0.25406 0.39169 0.46321 0.0
C188 C 0.24131 0.35519 0.4262 0.0
C189 C 0.22031 0.41066 0.47445 0.0
C190 C 0.17239 0.39268 0.45016 0.0
H191 H 0.29077 0.40718 0.48202 0.0
H192 H 0.23223 0.44007 0.5019 0.0
S193 S 0.12188 0.29571 0.35137 0.0
N194 N 0.1789 0.30159 0.3656 0.0
N195 N 0.11423 0.33507 0.38795 0.0
C196 C 0.15914 0.35493 0.41411 0.0
C197 C 0.19399 0.33677 0.40188 0.0
C198 C 0.69727 0.17531 0.40316 0.0
C199 C 0.68424 0.21211 0.37661 0.0
C200 C 0.66257 0.13469 0.42501 0.0
C201 C 0.61359 0.1293 0.42076 0.0
H202 H 0.73435 0.17768 0.40665 0.0
H203 H 0.67421 0.10734 0.44542 0.0
S204 S 0.56243 0.2191 0.35987 0.0
N205 N 0.62005 0.24302 0.35111 0.0
N206 N 0.55501 0.16668 0.39075 0.0
C207 C 0.60049 0.16653 0.395 0.0
C208 C 0.63576 0.20793 0.37341 0.0
C209 C 0.89738 0.70533 0.3768 0.0
C210 C 0.84691 0.6871 0.3775 0.0
C211 C 0.92636 0.68403 0.40716 0.0
C212 C 0.90554 0.64335 0.43846 0.0
H213 H 0.91426 0.73518 0.3517 0.0
H214 H 0.96482 0.69785 0.40427 0.0
S215 S 0.77534 0.58509 0.45616 0.0
N216 N 0.77785 0.6287 0.41401 0.0
N217 N 0.83156 0.58842 0.4705 0.0
C218 C 0.85528 0.6264 0.44065 0.0
C219 C 0.82614 0.64829 0.41024 0.0
C220 C 0.42643 0.84405 0.37625 0.0
C221 C 0.40049 0.79931 0.40024 0.0
C222 C 0.45993 0.8863 0.40319 0.0
C223 C 0.46908 0.88496 0.45497 0.0
H224 H 0.42148 0.84603 0.3363 0.0
H225 H 0.48074 0.91909 0.38323 0.0
S226 S 0.40994 0.77814 0.53574 0.0
N227 N 0.38535 0.75742 0.47922 0.0
N228 N 0.44853 0.83624 0.52932 0.0
C229 C 0.44238 0.84115 0.4794 0.0
C230 C 0.40801 0.7985 0.4522 0.0
C231 C 0.24207 0.6383 0.68103 0.0
C232 C 0.28811 0.65749 0.66454 0.0
C233 C 0.19976 0.61091 0.64908 0.0
C234 C 0.20209 0.60123 0.59966 0.0
H235 H 0.23868 0.64511 0.71868 0.0
H236 H 0.16523 0.59632 0.6635 0.0
S237 S 0.31397 0.64314 0.53852 0.0
N238 N 0.33327 0.66442 0.59563 0.0
N239 N 0.25463 0.61394 0.5359 0.0
C240 C 0.24803 0.62046 0.58292 0.0
C241 C 0.29074 0.64822 0.61522 0.0
C242 C 0.4716 0.23472 0.68756 0.0
C243 C 0.42177 0.21473 0.69195 0.0
C244 C 0.49244 0.20912 0.66178 0.0
C245 C 0.46456 0.16203 0.63941 0.0
H246 H 0.49461 0.27119 0.70316 0.0
H247 H 0.53094 0.22683 0.65926 0.0
S248 S 0.33253 0.09205 0.64242 0.0
N249 N 0.34511 0.14425 0.67324 0.0
N250 N 0.38422 0.09583 0.62503 0.0
C251 C 0.41471 0.14111 0.64431 0.0
C252 C 0.39337 0.16751 0.67039 0.0
C253 C 0.92758 0.41785 0.70919 0.0
C254 C 0.89264 0.37706 0.68119 0.0
C255 C 0.96622 0.4543 0.68819 0.0
C256 C 0.97265 0.45064 0.63878 0.0
H257 H 0.92423 0.42279 0.74732 0.0
H258 H 0.99042 0.48631 0.71048 0.0
S259 S 0.89537 0.34822 0.55064 0.0
N260 N 0.86887 0.33473 0.60122 0.0
N261 N 0.94391 0.39966 0.56392 0.0
C262 C 0.94049 0.40785 0.61157 0.0
C263 C 0.89999 0.37196 0.63218 0.0
C264 C 0.77333 0.86939 0.59558 0.0
C265 C 0.74755 0.81841 0.58501 0.0
C266 C 0.7496 0.90294 0.59102 0.0
C267 C 0.69944 0.88657 0.57485 0.0
H268 H 0.81126 0.88262 0.61083 0.0
H269 H 0.7705 0.94163 0.60175 0.0
S270 S 0.618 0.7573 0.53446 0.0
N271 N 0.67122 0.75366 0.55225 0.0
N272 N 0.62625 0.8164 0.54265 0.0
C273 C 0.67424 0.83611 0.56025 0.0
C274 C 0.69842 0.80207 0.56549 0.0
C275 C 0.3852 0.19775 0.45139 0.0
C276 C 0.4192 0.24636 0.44478 0.0
C277 C 0.40024 0.15877 0.46785 0.0
C278 C 0.44978 0.16725 0.47897 0.0
H279 H 0.34676 0.18936 0.44183 0.0
H280 H 0.37284 0.12148 0.47079 0.0
S281 S 0.55284 0.28951 0.47211 0.0
N282 N 0.5041 0.30195 0.4533 0.0
N283 N 0.53275 0.22912 0.48535 0.0
C284 C 0.48406 0.21647 0.47494 0.0
C285 C 0.46866 0.25591 0.45741 0.0
C286 C 0.88203 0.38399 0.37242 0.0
C287 C 0.83501 0.36915 0.38588 0.0
C288 C 0.92269 0.41845 0.40145 0.0
C289 C 0.91761 0.43996 0.44446 0.0
H290 H 0.88741 0.3685 0.3395 0.0
H291 H 0.95817 0.42877 0.38973 0.0
S292 S 0.80128 0.4138 0.49443 0.0
N293 N 0.78549 0.37857 0.44438 0.0
N294 N 0.86065 0.44352 0.49828 0.0
C295 C 0.87033 0.42545 0.45774 0.0
C296 C 0.82942 0.39003 0.42867 0.0
C297 C 0.68125 0.82386 0.38179 0.0
C298 C 0.73158 0.83821 0.39537 0.0
C299 C 0.65569 0.84886 0.40083 0.0
C300 C 0.6794 0.88971 0.43352 0.0
H301 H 0.66114 0.79222 0.35735 0.0
H302 H 0.61681 0.83557 0.39023 0.0
S303 S 0.81108 0.94255 0.47905 0.0
N304 N 0.8042 0.89554 0.44283 0.0
N305 N 0.75662 0.94411 0.47741 0.0
C306 C 0.72994 0.90529 0.44622 0.0
C307 C 0.7558 0.87901 0.42755 0.0
C308 C 0.22641 0.59924 0.36944 0.0
C309 C 0.24031 0.65172 0.36975 0.0
C310 C 0.1829 0.56699 0.38522 0.0
C311 C 0.15148 0.58542 0.40357 0.0
H312 H 0.25009 0.58248 0.35852 0.0
H313 H 0.17523 0.52715 0.3854 0.0
S314 S 0.16866 0.71904 0.41084 0.0
N315 N 0.21684 0.72043 0.38732 0.0
N316 N 0.13623 0.65929 0.42032 0.0
C317 C 0.16429 0.63758 0.40406 0.0
C318 C 0.20834 0.67077 0.38652 0.0
C319 C 0.48844 0.82275 0.69464 0.0
C320 C 0.4388 0.81482 0.68796 0.0
C321 C 0.52292 0.8647 0.67515 0.0
C322 C 0.50949 0.90052 0.64716 0.0
H323 H 0.50089 0.79553 0.71412 0.0
H324 H 0.56029 0.86784 0.68062 0.0
S325 S 0.38454 0.89887 0.62027 0.0
N326 N 0.37816 0.84772 0.65319 0.0
N327 N 0.44293 0.92611 0.61494 0.0
C328 C 0.46004 0.8936 0.64057 0.0
C329 C 0.42477 0.85087 0.6611 0.0
C330 C 0.26588 0.40256 0.68126 0.0
C331 C 0.26601 0.35702 0.66627 0.0
C332 C 0.23605 0.42459 0.65476 0.0
C333 C 0.20402 0.40112 0.61284 0.0
H334 H 0.29033 0.42209 0.71317 0.0
H335 H 0.23846 0.46069 0.66694 0.0
S336 S 0.18836 0.27988 0.55893 0.0
N337 N 0.23061 0.28809 0.60693 0.0
N338 N 0.17272 0.32885 0.55811 0.0
C339 C 0.20218 0.35443 0.59821 0.0
C340 C 0.2337 0.33243 0.62464 0.0
C341 C 0.73175 0.22444 0.61865 0.0
C342 C 0.74318 0.22038 0.66992 0.0
C343 C 0.69276 0.18655 0.59206 0.0
C344 C 0.66462 0.14279 0.6156 0.0
H345 H 0.75087 0.25869 0.5996 0.0
H346 H 0.68336 0.19237 0.55315 0.0
S347 S 0.68274 0.1119 0.74813 0.0
N348 N 0.72534 0.16811 0.74267 0.0
N349 N 0.65301 0.09574 0.69216 0.0
C350 C 0.67781 0.13663 0.66608 0.0
C351 C 0.71685 0.17581 0.69344 0.0
C352 C 0.90394 0.69406 0.63574 0.0
C353 C 0.85692 0.6576 0.63629 0.0
C354 C 0.94008 0.68258 0.61801 0.0
C355 C 0.93008 0.6345 0.59951 0.0
H356 H 0.91306 0.7313 0.65012 0.0
H357 H 0.97618 0.71142 0.6193 0.0
S358 S 0.81085 0.52711 0.59011 0.0
N359 N 0.80123 0.57269 0.61511 0.0
N360 N 0.86844 0.5508 0.58109 0.0
C361 C 0.88242 0.59828 0.59839 0.0
C362 C 0.84602 0.6099 0.61705 0.0
C363 C 0.43269 0.41114 0.29528 0.0
C364 C 0.41067 0.35909 0.30208 0.0
C365 C 0.44567 0.43108 0.24913 0.0
C366 C 0.43594 0.39968 0.20799 0.0
H367 H 0.44075 0.43648 0.3261 0.0
H368 H 0.46377 0.47133 0.24573 0.0
S369 S 0.37699 0.2607 0.20666 0.0
N370 N 0.37857 0.27661 0.26425 0.0
N371 N 0.40204 0.31381 0.17716 0.0
C372 C 0.4127 0.34756 0.21419 0.0
C373 C 0.40036 0.32732 0.26138 0.0
C374 C 0.42712 0.58163 0.87925 0.0
C375 C 0.43565 0.632 0.86768 0.0
C376 C 0.46042 0.56827 0.91236 0.0
C377 C 0.50396 0.60493 0.93475 0.0
H378 H 0.39548 0.55223 0.86074 0.0
H379 H 0.45331 0.52881 0.91814 0.0
S380 S 0.54106 0.74261 0.92245 0.0
N381 N 0.48905 0.71924 0.88604 0.0
N382 N 0.55147 0.69381 0.94689 0.0
C383 C 0.51164 0.65553 0.92576 0.0
C384 C 0.4776 0.66922 0.89264 0.0
C385 C 0.48431 0.34843 0.83814 0.0
C386 C 0.4334 0.33195 0.82902 0.0
C387 C 0.51119 0.3828 0.876 0.0
C388 C 0.48888 0.40367 0.9055 0.0
H389 H 0.50414 0.3368 0.81447 0.0
H390 H 0.55001 0.39388 0.88138 0.0
S391 S 0.35668 0.366 0.90478 0.0
N392 N 0.36128 0.3325 0.85991 0.0
N393 N 0.41282 0.4003 0.9283 0.0
C394 C 0.43811 0.38484 0.89986 0.0
C395 C 0.41024 0.34851 0.86215 0.0
C396 C 0.7654 0.45846 0.84708 0.0
C397 C 0.74345 0.42303 0.80898 0.0
C398 C 0.73777 0.47733 0.87146 0.0
C399 C 0.68737 0.46205 0.85769 0.0
H400 H 0.80397 0.47044 0.85902 0.0
H401 H 0.75595 0.50364 0.90156 0.0
S402 S 0.61366 0.3742 0.75551 0.0
N403 N 0.66922 0.37639 0.75559 0.0
N404 N 0.61736 0.41189 0.80059 0.0
C405 C 0.66546 0.42834 0.81779 0.0
C406 C 0.69346 0.40878 0.79357 0.0
C407 C 0.76936 0.64681 0.8082 0.0
C408 C 0.74251 0.62957 0.76197 0.0
C409 C 0.74714 0.63464 0.85153 0.0
C410 C 0.69733 0.60484 0.84998 0.0
H411 H 0.80707 0.67212 0.81056 0.0
H412 H 0.76887 0.65005 0.88623 0.0
S413 S 0.6127 0.54683 0.73746 0.0
N414 N 0.66509 0.57859 0.71695 0.0
N415 N 0.62284 0.5556 0.79784 0.0
C416 C 0.67086 0.58521 0.8039 0.0
C417 C 0.69359 0.59765 0.76001 0.0
C418 C 0.71222 0.67354 0.1802 0.0
C419 C 0.7273 0.65405 0.22497 0.0
C420 C 0.67807 0.64194 0.14337 0.0
C421 C 0.6573 0.5898 0.15041 0.0
H422 H 0.72559 0.7137 0.17439 0.0
H423 H 0.66576 0.65868 0.11068 0.0
S424 S 0.68677 0.51951 0.25927 0.0
N425 N 0.7204 0.57881 0.27262 0.0
N426 N 0.65704 0.51986 0.20396 0.0
C427 C 0.67407 0.56977 0.19383 0.0
C428 C 0.70881 0.60172 0.23095 0.0
C429 C 0.40139 0.6081 0.21511 0.0
C430 C 0.43313 0.64736 0.24704 0.0
C431 C 0.41909 0.57921 0.18913 0.0
C432 C 0.46891 0.58802 0.1947 0.0
H433 H 0.36272 0.59932 0.21045 0.0
H434 H 0.3935 0.54929 0.16524 0.0
S435 S 0.56645 0.68803 0.27251 0.0
N436 N 0.51598 0.69443 0.28141 0.0
N437 N 0.54962 0.6407 0.23355 0.0
C438 C 0.50074 0.62772 0.22612 0.0
C439 C 0.4827 0.65717 0.25194 0.0
C440 C 0.70191 0.42658 0.16337 0.0
C441 C 0.68951 0.37714 0.18046 0.0
C442 C 0.66857 0.44088 0.13151 0.0
C443 C 0.62112 0.40633 0.11659 0.0
H444 H 0.73681 0.45497 0.17683 0.0
H445 H 0.67903 0.48 0.12131 0.0
S446 S 0.57263 0.2703 0.14431 0.0
N447 N 0.62805 0.29183 0.1744 0.0
N448 N 0.56549 0.31926 0.1161 0.0
C449 C 0.60942 0.35599 0.13049 0.0
C450 C 0.6435 0.34119 0.1621 0.0
loop_
_geom_bond_atom_site_label_1
_geom_bond_atom_site_label_2
_geom_bond_distance
_geom_bond_site_symmetry_2
_ccdc_geom_bond_type
H0 C5 0.929 . S
H1 C10 0.931 . S
H2 C8 0.930 . S
N3 N4 1.234 . S
N3 C7 1.453 . S
N4 N3 1.234 . S
C5 H0 0.929 . S
C5 C6 1.373 . S
C5 C7 1.368 . S
C6 C5 1.373 . S
C6 C10 1.397 . S
C7 N3 1.453 . S
C7 C5 1.368 . S
C7 C8 1.373 . S
C8 H2 0.930 . S
C8 C7 1.373 . S
C8 C9 1.371 . S
C9 C8 1.371 . S
C9 C10 1.383 . S
C10 H1 0.931 . S
C10 C6 1.397 . S
C10 C9 1.383 . S
H11 C16 0.929 . S
H12 C21 0.931 . S
H13 C19 0.930 . S
N14 N15 1.234 . S
N14 C18 1.453 . S
N15 N14 1.234 . S
C16 H11 0.929 . S
C16 C17 1.373 . S
C16 C18 1.368 . S
C17 C16 1.373 . S
C17 C21 1.397 . S
C18 N14 1.453 . S
C18 C16 1.368 . S
C18 C19 1.373 . S
C19 H13 0.930 . S
C19 C18 1.373 . S
C19 C20 1.371 . S
C20 C19 1.371 . S
C20 C21 1.383 . S
C21 H12 0.931 . S
C21 C17 1.397 . S
C21 C20 1.383 . S
H22 C27 0.929 . S
H23 C32 0.931 . S
H24 C30 0.930 . S
N25 N26 1.234 . S
N25 C29 1.453 . S
N26 N25 1.234 . S
C27 H22 0.929 . S
C27 C28 1.373 . S
C27 C29 1.368 . S
C28 C27 1.373 . S
C28 C32 1.397 . S
C29 N25 1.453 . S
C29 C27 1.368 . S
C29 C30 1.373 . S
C30 H24 0.930 . S
C30 C29 1.373 . S
C30 C31 1.371 . S
C31 C30 1.371 . S
C31 C32 1.383 . S
C32 H23 0.931 . S
C32 C28 1.397 . S
C32 C31 1.383 . S
H33 C38 0.929 . S
H34 C43 0.931 . S
H35 C41 0.930 . S
N36 N37 1.234 . S
N36 C40 1.453 . S
N37 N36 1.234 . S
C38 H33 0.929 . S
C38 C39 1.373 . S
C38 C40 1.368 . S
C39 C38 1.373 . S
C39 C43 1.397 . S
C40 N36 1.453 . S
C40 C38 1.368 . S
C40 C41 1.373 . S
C41 H35 0.930 . S
C41 C40 1.373 . S
C41 C42 1.371 . S
C42 C41 1.371 . S
C42 C43 1.383 . S
C43 H34 0.931 . S
C43 C39 1.397 . S
C43 C42 1.383 . S
H44 C49 0.929 . S
H45 C54 0.931 . S
H46 C52 0.930 . S
N47 N48 1.234 . S
N47 C51 1.453 . S
N48 N47 1.234 . S
C49 H44 0.929 . S
C49 C50 1.373 . S
C49 C51 1.368 . S
C50 C49 1.373 . S
C50 C54 1.397 . S
C51 N47 1.453 . S
C51 C49 1.368 . S
C51 C52 1.373 . S
C52 H46 0.930 . S
C52 C51 1.373 . S
C52 C53 1.371 . S
C53 C52 1.371 . S
C53 C54 1.383 . S
C54 H45 0.931 . S
C54 C50 1.397 . S
C54 C53 1.383 . S
H55 C60 0.929 . S
H56 C65 0.931 . S
H57 C63 0.930 . S
N58 N59 1.234 . S
N58 C62 1.453 . S
N59 N58 1.234 . S
C60 H55 0.929 . S
C60 C61 1.373 . S
C60 C62 1.368 . S
C61 C60 1.373 . S
C61 C65 1.397 . S
C62 N58 1.453 . S
C62 C60 1.368 . S
C62 C63 1.373 . S
C63 H57 0.930 . S
C63 C62 1.373 . S
C63 C64 1.371 . S
C64 C63 1.371 . S
C64 C65 1.383 . S
C65 H56 0.931 . S
C65 C61 1.397 . S
C65 C64 1.383 . S
H66 C71 0.929 . S
H67 C76 0.931 . S
H68 C74 0.930 . S
N69 N70 1.234 . S
N69 C73 1.453 . S
N70 N69 1.234 . S
C71 H66 0.929 . S
C71 C72 1.373 . S
C71 C73 1.368 . S
C72 C71 1.373 . S
C72 C76 1.397 . S
C73 N69 1.453 . S
C73 C71 1.368 . S
C73 C74 1.373 . S
C74 H68 0.930 . S
C74 C73 1.373 . S
C74 C75 1.371 . S
C75 C74 1.371 . S
C75 C76 1.383 . S
C76 H67 0.931 . S
C76 C72 1.397 . S
C76 C75 1.383 . S
H77 C82 0.929 . S
H78 C87 0.931 . S
H79 C85 0.930 . S
N80 N81 1.234 . S
N80 C84 1.453 . S
N81 N80 1.234 . S
C82 H77 0.929 . S
C82 C83 1.373 . S
C82 C84 1.368 . S
C83 C82 1.373 . S
C83 C87 1.397 . S
C84 N80 1.453 . S
C84 C82 1.368 . S
C84 C85 1.373 . S
C85 H79 0.930 . S
C85 C84 1.373 . S
C85 C86 1.371 . S
C86 C85 1.371 . S
C86 C87 1.383 . S
C87 H78 0.931 . S
C87 C83 1.397 . S
C87 C86 1.383 . S
Co88 O91 2.042 . S
Co88 O98 2.264 . S
Co88 O117 2.286 . S
Co88 O118 2.069 . S
Co88 O120 2.015 . S
Co89 O91 2.122 . S
Co89 O97 2.073 . S
Co89 O98 2.327 . S
Co89 O99 1.976 . S
Co90 O91 2.087 . S
Co90 O93 2.087 1_455 S
Co90 O100 2.111 . S
Co90 O101 2.143 1_455 S
Co90 O105 2.111 1_455 S
Co90 O119 2.143 . S
O91 Co88 2.042 . S
O91 Co89 2.122 . S
O91 Co90 2.087 . S
O91 H92 0.980 . S
H92 O91 0.980 . S
O93 Co90 2.087 1_655 S
O93 Co94 2.042 . S
O93 Co95 2.122 . S
O93 H96 0.980 1_655 S
Co94 O93 2.042 . S
Co94 O102 2.286 . S
Co94 O103 2.069 . S
Co94 O104 2.015 . S
Co94 O107 2.264 . S
Co95 O93 2.122 . S
Co95 O106 1.976 . S
Co95 O107 2.327 . S
Co95 O108 2.073 . S
H96 O93 0.980 1_455 S
O97 Co89 2.073 . S
O97 C112 1.245 . S
O98 Co88 2.264 . S
O98 Co89 2.327 . S
O98 C112 1.257 . S
O99 Co89 1.976 . S
O99 C111 1.251 . S
O100 Co90 2.111 . S
O100 C111 1.274 . S
O101 Co90 2.143 1_655 S
O101 C114 1.246 . S
O102 Co94 2.286 . S
O102 C113 1.259 . S
O103 Co94 2.069 . S
O103 C113 1.289 . S
O104 Co94 2.015 . S
O104 C114 1.257 . S
O105 Co90 2.111 1_655 S
O105 C115 1.274 . S
O106 Co95 1.976 . S
O106 C115 1.251 . S
O107 Co94 2.264 . S
O107 Co95 2.327 . S
O107 C116 1.257 . S
O108 Co95 2.073 . S
O108 C116 1.245 . S
C109 O117 1.259 . S
C109 O118 1.289 . S
C110 O119 1.246 . S
C110 O120 1.257 . S
C111 O99 1.251 . S
C111 O100 1.274 . S
C112 O97 1.245 . S
C112 O98 1.257 . S
C113 O102 1.259 . S
C113 O103 1.289 . S
C114 O101 1.246 . S
C114 O104 1.257 . S
C115 O105 1.274 . S
C115 O106 1.251 . S
C116 O107 1.257 . S
C116 O108 1.245 . S
O117 Co88 2.286 . S
O117 C109 1.259 . S
O118 Co88 2.069 . S
O118 C109 1.289 . S
O119 Co90 2.143 . S
O119 C110 1.246 . S
O120 Co88 2.015 . S
O120 C110 1.257 . S
Co121 O124 2.042 . S
Co121 O131 2.264 . S
Co121 O150 2.286 . S
Co121 O151 2.069 . S
Co121 O153 2.015 . S
Co122 O124 2.122 . S
Co122 O130 2.073 . S
Co122 O131 2.327 . S
Co122 O132 1.976 . S
Co123 O124 2.087 1_545 S
Co123 O126 2.087 . S
Co123 O133 2.111 1_545 S
Co123 O134 2.143 . S
Co123 O138 2.111 . S
Co123 O152 2.143 1_545 S
O124 Co121 2.042 . S
O124 Co122 2.122 . S
O124 Co123 2.087 1_565 S
O124 H125 0.980 1_565 S
H125 O124 0.980 1_545 S
O126 Co123 2.087 . S
O126 Co127 2.042 . S
O126 Co128 2.122 . S
O126 H129 0.980 . S
Co127 O126 2.042 . S
Co127 O135 2.286 . S
Co127 O136 2.069 . S
Co127 O137 2.015 . S
Co127 O140 2.264 . S
Co128 O126 2.122 . S
Co128 O139 1.976 . S
Co128 O140 2.327 . S
Co128 O141 2.073 . S
H129 O126 0.980 . S
O130 Co122 2.073 . S
O130 C145 1.245 . S
O131 Co121 2.264 . S
O131 Co122 2.327 . S
O131 C145 1.257 . S
O132 Co122 1.976 . S
O132 C144 1.251 . S
O133 Co123 2.111 1_565 S
O133 C144 1.274 . S
O134 Co123 2.143 . S
O134 C147 1.246 . S
O135 Co127 2.286 . S
O135 C146 1.259 . S
O136 Co127 2.069 . S
O136 C146 1.289 . S
O137 Co127 2.015 . S
O137 C147 1.257 . S
O138 Co123 2.111 . S
O138 C148 1.274 . S
O139 Co128 1.976 . S
O139 C148 1.251 . S
O140 Co127 2.264 . S
O140 Co128 2.327 . S
O140 C149 1.257 . S
O141 Co128 2.073 . S
O141 C149 1.245 . S
C142 O150 1.259 . S
C142 O151 1.289 . S
C143 O152 1.246 . S
C143 O153 1.257 . S
C144 O132 1.251 . S
C144 O133 1.274 . S
C145 O130 1.245 . S
C145 O131 1.257 . S
C146 O135 1.259 . S
C146 O136 1.289 . S
C147 O134 1.246 . S
C147 O137 1.257 . S
C148 O138 1.274 . S
C148 O139 1.251 . S
C149 O140 1.257 . S
C149 O141 1.245 . S
O150 Co121 2.286 . S
O150 C142 1.259 . S
O151 Co121 2.069 . S
O151 C142 1.289 . S
O152 Co123 2.143 1_565 S
O152 C143 1.246 . S
O153 Co121 2.015 . S
O153 C143 1.257 . S
Co154 O157 2.042 . S
Co154 O164 2.264 . S
Co154 O183 2.286 . S
Co154 O184 2.069 . S
Co154 O186 2.015 . S
Co155 O157 2.122 . S
Co155 O163 2.073 . S
Co155 O164 2.327 . S
Co155 O165 1.976 . S
Co156 O157 2.087 . S
Co156 O159 2.087 1_554 S
Co156 O166 2.111 . S
Co156 O167 2.143 1_554 S
Co156 O171 2.111 1_554 S
Co156 O185 2.143 . S
O157 Co154 2.042 . S
O157 Co155 2.122 . S
O157 Co156 2.087 . S
O157 H158 0.980 . S
H158 O157 0.980 . S
O159 Co156 2.087 1_556 S
O159 Co160 2.042 . S
O159 Co161 2.122 . S
O159 H162 0.980 . S
Co160 O159 2.042 . S
Co160 O168 2.286 . S
Co160 O169 2.069 . S
Co160 O170 2.015 . S
Co160 O173 2.264 . S
Co161 O159 2.122 . S
Co161 O172 1.976 . S
Co161 O173 2.327 . S
Co161 O174 2.073 . S
H162 O159 0.980 . S
O163 Co155 2.073 . S
O163 C178 1.245 . S
O164 Co154 2.264 . S
O164 Co155 2.327 . S
O164 C178 1.257 . S
O165 Co155 1.976 . S
O165 C177 1.251 . S
O166 Co156 2.111 . S
O166 C177 1.274 . S
O167 Co156 2.143 1_556 S
O167 C180 1.246 . S
O168 Co160 2.286 . S
O168 C179 1.259 . S
O169 Co160 2.069 . S
O169 C179 1.289 . S
O170 Co160 2.015 . S
O170 C180 1.257 . S
O171 Co156 2.111 1_556 S
O171 C181 1.274 . S
O172 Co161 1.976 . S
O172 C181 1.251 . S
O173 Co160 2.264 . S
O173 Co161 2.327 . S
O173 C182 1.257 . S
O174 Co161 2.073 . S
O174 C182 1.245 . S
C175 O183 1.259 . S
C175 O184 1.289 . S
C176 O185 1.246 . S
C176 O186 1.257 . S
C177 O165 1.251 . S
C177 O166 1.274 . S
C178 O163 1.245 . S
C178 O164 1.257 . S
C179 O168 1.259 . S
C179 O169 1.289 . S
C180 O167 1.246 . S
C180 O170 1.257 . S
C181 O171 1.274 . S
C181 O172 1.251 . S
C182 O173 1.257 . S
C182 O174 1.245 . S
O183 Co154 2.286 . S
O183 C175 1.259 . S
O184 Co154 2.069 . S
O184 C175 1.289 . S
O185 Co156 2.143 . S
O185 C176 1.246 . S
O186 Co154 2.015 . S
O186 C176 1.257 . S
C187 C188 1.369 . S
C187 C189 1.419 . S
C187 H191 0.930 . S
C188 C187 1.369 . S
C188 C197 1.429 . S
C189 C187 1.419 . S
C189 C190 1.363 . S
C189 H192 0.929 . S
C190 C189 1.363 . S
C190 C196 1.428 . S
H191 C187 0.930 . S
H192 C189 0.929 . S
S193 N194 1.613 . S
S193 N195 1.610 . S
N194 S193 1.613 . S
N194 C197 1.350 . S
N195 S193 1.610 . S
N195 C196 1.351 . S
C196 C190 1.428 . S
C196 N195 1.351 . S
C196 C197 1.434 . S
C197 C188 1.429 . S
C197 N194 1.350 . S
C197 C196 1.434 . S
C198 C199 1.369 . S
C198 C200 1.419 . S
C198 H202 0.930 . S
C199 C198 1.369 . S
C199 C208 1.429 . S
C200 C198 1.419 . S
C200 C201 1.363 . S
C200 H203 0.929 . S
C201 C200 1.363 . S
C201 C207 1.428 . S
H202 C198 0.930 . S
H203 C200 0.929 . S
S204 N205 1.613 . S
S204 N206 1.610 . S
N205 S204 1.613 . S
N205 C208 1.350 . S
N206 S204 1.610 . S
N206 C207 1.351 . S
C207 C201 1.428 . S
C207 N206 1.351 . S
C207 C208 1.434 . S
C208 C199 1.429 . S
C208 N205 1.350 . S
C208 C207 1.434 . S
C209 C210 1.369 . S
C209 C211 1.419 . S
C209 H213 0.930 . S
C210 C209 1.369 . S
C210 C219 1.429 . S
C211 C209 1.419 . S
C211 C212 1.363 . S
C211 H214 0.929 . S
C212 C211 1.363 . S
C212 C218 1.428 . S
H213 C209 0.930 . S
H214 C211 0.929 . S
S215 N216 1.613 . S
S215 N217 1.610 . S
N216 S215 1.613 . S
N216 C219 1.350 . S
N217 S215 1.610 . S
N217 C218 1.351 . S
C218 C212 1.428 . S
C218 N217 1.351 . S
C218 C219 1.434 . S
C219 C210 1.429 . S
C219 N216 1.350 . S
C219 C218 1.434 . S
C220 C221 1.369 . S
C220 C222 1.419 . S
C220 H224 0.930 . S
C221 C220 1.369 . S
C221 C230 1.429 . S
C222 C220 1.419 . S
C222 C223 1.363 . S
C222 H225 0.929 . S
C223 C222 1.363 . S
C223 C229 1.428 . S
H224 C220 0.930 . S
H225 C222 0.929 . S
S226 N227 1.613 . S
S226 N228 1.610 . S
N227 S226 1.613 . S
N227 C230 1.350 . S
N228 S226 1.610 . S
N228 C229 1.351 . S
C229 C223 1.428 . S
C229 N228 1.351 . S
C229 C230 1.434 . S
C230 C221 1.429 . S
C230 N227 1.350 . S
C230 C229 1.434 . S
C231 C232 1.369 . S
C231 C233 1.419 . S
C231 H235 0.930 . S
C232 C231 1.369 . S
C232 C241 1.429 . S
C233 C231 1.419 . S
C233 C234 1.363 . S
C233 H236 0.929 . S
C234 C233 1.363 . S
C234 C240 1.428 . S
H235 C231 0.930 . S
H236 C233 0.929 . S
S237 N238 1.613 . S
S237 N239 1.610 . S
N238 S237 1.613 . S
N238 C241 1.350 . S
N239 S237 1.610 . S
N239 C240 1.351 . S
C240 C234 1.428 . S
C240 N239 1.351 . S
C240 C241 1.434 . S
C241 C232 1.429 . S
C241 N238 1.350 . S
C241 C240 1.434 . S
C242 C243 1.369 . S
C242 C244 1.419 . S
C242 H246 0.930 . S
C243 C242 1.369 . S
C243 C252 1.429 . S
C244 C242 1.419 . S
C244 C245 1.363 . S
C244 H247 0.929 . S
C245 C244 1.363 . S
C245 C251 1.428 . S
H246 C242 0.930 . S
H247 C244 0.929 . S
S248 N249 1.613 . S
S248 N250 1.610 . S
N249 S248 1.613 . S
N249 C252 1.350 . S
N250 S248 1.610 . S
N250 C251 1.351 . S
C251 C245 1.428 . S
C251 N250 1.351 . S
C251 C252 1.434 . S
C252 C243 1.429 . S
C252 N249 1.350 . S
C252 C251 1.434 . S
C253 C254 1.369 . S
C253 C255 1.419 . S
C253 H257 0.930 . S
C254 C253 1.369 . S
C254 C263 1.429 . S
C255 C253 1.419 . S
C255 C256 1.363 . S
C255 H258 0.929 . S
C256 C255 1.363 . S
C256 C262 1.428 . S
H257 C253 0.930 . S
H258 C255 0.929 . S
S259 N260 1.613 . S
S259 N261 1.610 . S
N260 S259 1.613 . S
N260 C263 1.350 . S
N261 S259 1.610 . S
N261 C262 1.351 . S
C262 C256 1.428 . S
C262 N261 1.351 . S
C262 C263 1.434 . S
C263 C254 1.429 . S
C263 N260 1.350 . S
C263 C262 1.434 . S
C264 C265 1.369 . S
C264 C266 1.419 . S
C264 H268 0.930 . S
C265 C264 1.369 . S
C265 C274 1.429 . S
C266 C264 1.419 . S
C266 C267 1.363 . S
C266 H269 0.929 . S
C267 C266 1.363 . S
C267 C273 1.428 . S
H268 C264 0.930 . S
H269 C266 0.929 . S
S270 N271 1.613 . S
S270 N272 1.610 . S
N271 S270 1.613 . S
N271 C274 1.350 . S
N272 S270 1.610 . S
N272 C273 1.351 . S
C273 C267 1.428 . S
C273 N272 1.351 . S
C273 C274 1.434 . S
C274 C265 1.429 . S
C274 N271 1.350 . S
C274 C273 1.434 . S
C275 C276 1.369 . S
C275 C277 1.419 . S
C275 H279 0.930 . S
C276 C275 1.369 . S
C276 C285 1.429 . S
C277 C275 1.419 . S
C277 C278 1.363 . S
C277 H280 0.929 . S
C278 C277 1.363 . S
C278 C284 1.428 . S
H279 C275 0.930 . S
H280 C277 0.929 . S
S281 N282 1.613 . S
S281 N283 1.610 . S
N282 S281 1.613 . S
N282 C285 1.350 . S
N283 S281 1.610 . S
N283 C284 1.351 . S
C284 C278 1.428 . S
C284 N283 1.351 . S
C284 C285 1.434 . S
C285 C276 1.429 . S
C285 N282 1.350 . S
C285 C284 1.434 . S
C286 C287 1.369 . S
C286 C288 1.419 . S
C286 H290 0.930 . S
C287 C286 1.369 . S
C287 C296 1.429 . S
C288 C286 1.419 . S
C288 C289 1.363 . S
C288 H291 0.929 . S
C289 C288 1.363 . S
C289 C295 1.428 . S
H290 C286 0.930 . S
H291 C288 0.929 . S
S292 N293 1.613 . S
S292 N294 1.610 . S
N293 S292 1.613 . S
N293 C296 1.350 . S
N294 S292 1.610 . S
N294 C295 1.351 . S
C295 C289 1.428 . S
C295 N294 1.351 . S
C295 C296 1.434 . S
C296 C287 1.429 . S
C296 N293 1.350 . S
C296 C295 1.434 . S
C297 C298 1.369 . S
C297 C299 1.419 . S
C297 H301 0.930 . S
C298 C297 1.369 . S
C298 C307 1.429 . S
C299 C297 1.419 . S
C299 C300 1.363 . S
C299 H302 0.929 . S
C300 C299 1.363 . S
C300 C306 1.428 . S
H301 C297 0.930 . S
H302 C299 0.929 . S
S303 N304 1.613 . S
S303 N305 1.610 . S
N304 S303 1.613 . S
N304 C307 1.350 . S
N305 S303 1.610 . S
N305 C306 1.351 . S
C306 C300 1.428 . S
C306 N305 1.351 . S
C306 C307 1.434 . S
C307 C298 1.429 . S
C307 N304 1.350 . S
C307 C306 1.434 . S
C308 C309 1.369 . S
C308 C310 1.419 . S
C308 H312 0.930 . S
C309 C308 1.369 . S
C309 C318 1.429 . S
C310 C308 1.419 . S
C310 C311 1.363 . S
C310 H313 0.929 . S
C311 C310 1.363 . S
C311 C317 1.428 . S
H312 C308 0.930 . S
H313 C310 0.929 . S
S314 N315 1.613 . S
S314 N316 1.610 . S
N315 S314 1.613 . S
N315 C318 1.350 . S
N316 S314 1.610 . S
N316 C317 1.351 . S
C317 C311 1.428 . S
C317 N316 1.351 . S
C317 C318 1.434 . S
C318 C309 1.429 . S
C318 N315 1.350 . S
C318 C317 1.434 . S
C319 C320 1.369 . S
C319 C321 1.419 . S
C319 H323 0.930 . S
C320 C319 1.369 . S
C320 C329 1.429 . S
C321 C319 1.419 . S
C321 C322 1.363 . S
C321 H324 0.929 . S
C322 C321 1.363 . S
C322 C328 1.428 . S
H323 C319 0.930 . S
H324 C321 0.929 . S
S325 N326 1.613 . S
S325 N327 1.610 . S
N326 S325 1.613 . S
N326 C329 1.350 . S
N327 S325 1.610 . S
N327 C328 1.351 . S
C328 C322 1.428 . S
C328 N327 1.351 . S
C328 C329 1.434 . S
C329 C320 1.429 . S
C329 N326 1.350 . S
C329 C328 1.434 . S
C330 C331 1.369 . S
C330 C332 1.419 . S
C330 H334 0.930 . S
C331 C330 1.369 . S
C331 C340 1.429 . S
C332 C330 1.419 . S
C332 C333 1.363 . S
C332 H335 0.929 . S
C333 C332 1.363 . S
C333 C339 1.428 . S
H334 C330 0.930 . S
H335 C332 0.929 . S
S336 N337 1.613 . S
S336 N338 1.610 . S
N337 S336 1.613 . S
N337 C340 1.350 . S
N338 S336 1.610 . S
N338 C339 1.351 . S
C339 C333 1.428 . S
C339 N338 1.351 . S
C339 C340 1.434 . S
C340 C331 1.429 . S
C340 N337 1.350 . S
C340 C339 1.434 . S
C341 C342 1.369 . S
C341 C343 1.419 . S
C341 H345 0.930 . S
C342 C341 1.369 . S
C342 C351 1.429 . S
C343 C341 1.419 . S
C343 C344 1.363 . S
C343 H346 0.929 . S
C344 C343 1.363 . S
C344 C350 1.428 . S
H345 C341 0.930 . S
H346 C343 0.929 . S
S347 N348 1.613 . S
S347 N349 1.610 . S
N348 S347 1.613 . S
N348 C351 1.350 . S
N349 S347 1.610 . S
N349 C350 1.351 . S
C350 C344 1.428 . S
C350 N349 1.351 . S
C350 C351 1.434 . S
C351 C342 1.429 . S
C351 N348 1.350 . S
C351 C350 1.434 . S
C352 C353 1.369 . S
C352 C354 1.419 . S
C352 H356 0.930 . S
C353 C352 1.369 . S
C353 C362 1.429 . S
C354 C352 1.419 . S
C354 C355 1.363 . S
C354 H357 0.929 . S
C355 C354 1.363 . S
C355 C361 1.428 . S
H356 C352 0.930 . S
H357 C354 0.929 . S
S358 N359 1.613 . S
S358 N360 1.610 . S
N359 S358 1.613 . S
N359 C362 1.350 . S
N360 S358 1.610 . S
N360 C361 1.351 . S
C361 C355 1.428 . S
C361 N360 1.351 . S
C361 C362 1.434 . S
C362 C353 1.429 . S
C362 N359 1.350 . S
C362 C361 1.434 . S
C363 C364 1.369 . S
C363 C365 1.419 . S
C363 H367 0.930 . S
C364 C363 1.369 . S
C364 C373 1.429 . S
C365 C363 1.419 . S
C365 C366 1.363 . S
C365 H368 0.929 . S
C366 C365 1.363 . S
C366 C372 1.428 . S
H367 C363 0.930 . S
H368 C365 0.929 . S
S369 N370 1.613 . S
S369 N371 1.610 . S
N370 S369 1.613 . S
N370 C373 1.350 . S
N371 S369 1.610 . S
N371 C372 1.351 . S
C372 C366 1.428 . S
C372 N371 1.351 . S
C372 C373 1.434 . S
C373 C364 1.429 . S
C373 N370 1.350 . S
C373 C372 1.434 . S
C374 C375 1.369 . S
C374 C376 1.419 . S
C374 H378 0.930 . S
C375 C374 1.369 . S
C375 C384 1.429 . S
C376 C374 1.419 . S
C376 C377 1.363 . S
C376 H379 0.929 . S
C377 C376 1.363 . S
C377 C383 1.428 . S
H378 C374 0.930 . S
H379 C376 0.929 . S
S380 N381 1.613 . S
S380 N382 1.610 . S
N381 S380 1.613 . S
N381 C384 1.350 . S
N382 S380 1.610 . S
N382 C383 1.351 . S
C383 C377 1.428 . S
C383 N382 1.351 . S
C383 C384 1.434 . S
C384 C375 1.429 . S
C384 N381 1.350 . S
C384 C383 1.434 . S
C385 C386 1.369 . S
C385 C387 1.419 . S
C385 H389 0.930 . S
C386 C385 1.369 . S
C386 C395 1.429 . S
C387 C385 1.419 . S
C387 C388 1.363 . S
C387 H390 0.929 . S
C388 C387 1.363 . S
C388 C394 1.428 . S
H389 C385 0.930 . S
H390 C387 0.929 . S
S391 N392 1.613 . S
S391 N393 1.610 . S
N392 S391 1.613 . S
N392 C395 1.350 . S
N393 S391 1.610 . S
N393 C394 1.351 . S
C394 C388 1.428 . S
C394 N393 1.351 . S
C394 C395 1.434 . S
C395 C386 1.429 . S
C395 N392 1.350 . S
C395 C394 1.434 . S
C396 C397 1.369 . S
C396 C398 1.419 . S
C396 H400 0.930 . S
C397 C396 1.369 . S
C397 C406 1.429 . S
C398 C396 1.419 . S
C398 C399 1.363 . S
C398 H401 0.929 . S
C399 C398 1.363 . S
C399 C405 1.428 . S
H400 C396 0.930 . S
H401 C398 0.929 . S
S402 N403 1.613 . S
S402 N404 1.610 . S
N403 S402 1.613 . S
N403 C406 1.350 . S
N404 S402 1.610 . S
N404 C405 1.351 . S
C405 C399 1.428 . S
C405 N404 1.351 . S
C405 C406 1.434 . S
C406 C397 1.429 . S
C406 N403 1.350 . S
C406 C405 1.434 . S
C407 C408 1.369 . S
C407 C409 1.419 . S
C407 H411 0.930 . S
C408 C407 1.369 . S
C408 C417 1.429 . S
C409 C407 1.419 . S
C409 C410 1.363 . S
C409 H412 0.929 . S
C410 C409 1.363 . S
C410 C416 1.428 . S
H411 C407 0.930 . S
H412 C409 0.929 . S
S413 N414 1.613 . S
S413 N415 1.610 . S
N414 S413 1.613 . S
N414 C417 1.350 . S
N415 S413 1.610 . S
N415 C416 1.351 . S
C416 C410 1.428 . S
C416 N415 1.351 . S
C416 C417 1.434 . S
C417 C408 1.429 . S
C417 N414 1.350 . S
C417 C416 1.434 . S
C418 C419 1.369 . S
C418 C420 1.419 . S
C418 H422 0.930 . S
C419 C418 1.369 . S
C419 C428 1.429 . S
C420 C418 1.419 . S
C420 C421 1.363 . S
C420 H423 0.929 . S
C421 C420 1.363 . S
C421 C427 1.428 . S
H422 C418 0.930 . S
H423 C420 0.929 . S
S424 N425 1.613 . S
S424 N426 1.610 . S
N425 S424 1.613 . S
N425 C428 1.350 . S
N426 S424 1.610 . S
N426 C427 1.351 . S
C427 C421 1.428 . S
C427 N426 1.351 . S
C427 C428 1.434 . S
C428 C419 1.429 . S
C428 N425 1.350 . S
C428 C427 1.434 . S
C429 C430 1.369 . S
C429 C431 1.419 . S
C429 H433 0.930 . S
C430 C429 1.369 . S
C430 C439 1.429 . S
C431 C429 1.419 . S
C431 C432 1.363 . S
C431 H434 0.929 . S
C432 C431 1.363 . S
C432 C438 1.428 . S
H433 C429 0.930 . S
H434 C431 0.929 . S
S435 N436 1.613 . S
S435 N437 1.610 . S
N436 S435 1.613 . S
N436 C439 1.350 . S
N437 S435 1.610 . S
N437 C438 1.351 . S
C438 C432 1.428 . S
C438 N437 1.351 . S
C438 C439 1.434 . S
C439 C430 1.429 . S
C439 N436 1.350 . S
C439 C438 1.434 . S
C440 C441 1.369 . S
C440 C442 1.419 . S
C440 H444 0.930 . S
C441 C440 1.369 . S
C441 C450 1.429 . S
C442 C440 1.419 . S
C442 C443 1.363 . S
C442 H445 0.929 . S
C443 C442 1.363 . S
C443 C449 1.428 . S
H444 C440 0.930 . S
H445 C442 0.929 . S
S446 N447 1.613 . S
S446 N448 1.610 . S
N447 S446 1.613 . S
N447 C450 1.350 . S
N448 S446 1.610 . S
N448 C449 1.351 . S
C449 C443 1.428 . S
C449 N448 1.351 . S
C449 C450 1.434 . S
C450 C441 1.429 . S
C450 N447 1.350 . S
C450 C449 1.434 . S
C190 C112 1.446 . S
C188 N4 1.536 . S
C201 C148 1.403 . S
C199 C17 1.486 . S
C212 C113 1.583 . S
C210 C31 1.605 . S
C223 C143 1.553 . S
C221 C42 1.605 . S
C234 C110 1.461 . S
C232 C53 1.522 . S
C243 C61 1.787 . S
C245 C146 1.806 . S
C254 C75 0.938 . S
C256 C115 0.898 . S
C267 C145 1.511 . S
C265 N81 1.539 . S
C278 C149 1.698 . S
C276 C9 1.723 . S
C289 C114 1.263 . S
C287 C20 1.301 . S
C300 C142 1.587 . S
C298 N26 1.557 . S
C311 C111 1.231 . S
C309 C39 1.380 . S
C322 C144 1.681 . S
C320 C50 1.792 . S
C331 N59 1.304 . S
C333 C109 1.298 . S
C342 C72 1.249 . S
C344 C147 1.249 . S
C355 C116 1.479 . S
C353 C86 1.572 . S
C366 C178 1.699 . S
C364 C6 1.809 . S
C375 N48 1.952 . S
C377 C181 1.811 . S
C388 C180 1.847 . S
C386 C64 1.889 . S
C397 N70 1.375 . S
C399 C179 1.365 . S
C410 C182 1.757 . S
C408 C83 1.885 . S
C419 C28 1.784 . S
C421 C176 1.725 . S
C432 C175 1.900 . S
C430 N37 1.927 . S
C441 N15 1.351 . S
C443 C177 1.263 . S
