# Generated by pormake.
# Topology bwt, (3,3)-cn, num edge types: 1
# Building blocks:
#     Node 0, Type 0, BuildingBlock: WUSLED_clean_sbu_0, # of connection points: 3
#     Node 1, Type 0, BuildingBlock: WUSLED_clean_sbu_0, # of connection points: 3
#     Node 2, Type 0, BuildingBlock: WUSLED_clean_sbu_0, # of connection points: 3
#     Node 3, Type 0, BuildingBlock: WUSLED_clean_sbu_0, # of connection points: 3
#     Node 4, Type 0, BuildingBlock: WUSLED_clean_sbu_0, # of connection points: 3
#     Node 5, Type 0, BuildingBlock: WUSLED_clean_sbu_0, # of connection points: 3
#     Node 6, Type 0, BuildingBlock: WUSLED_clean_sbu_0, # of connection points: 3
#     Node 7, Type 0, BuildingBlock: WUSLED_clean_sbu_0, # of connection points: 3
#     Node 8, Type 0, BuildingBlock: WUSLED_clean_sbu_0, # of connection points: 3
#     Node 9, Type 0, BuildingBlock: WUSLED_clean_sbu_0, # of connection points: 3
#     Node 10, Type 0, BuildingBlock: WUSLED_clean_sbu_0, # of connection points: 3
#     Node 11, Type 0, BuildingBlock: WUSLED_clean_sbu_0, # of connection points: 3
#     Node 12, Type 0, BuildingBlock: WUSLED_clean_sbu_0, # of connection points: 3
#     Node 13, Type 0, BuildingBlock: WUSLED_clean_sbu_0, # of connection points: 3
#     Node 14, Type 0, BuildingBlock: WUSLED_clean_sbu_0, # of connection points: 3
#     Node 15, Type 0, BuildingBlock: WUSLED_clean_sbu_0, # of connection points: 3
#     Node 16, Type 0, BuildingBlock: WUSLED_clean_sbu_0, # of connection points: 3
#     Node 17, Type 0, BuildingBlock: WUSLED_clean_sbu_0, # of connection points: 3
#     Node 18, Type 0, BuildingBlock: WUSLED_clean_sbu_0, # of connection points: 3
#     Node 19, Type 0, BuildingBlock: WUSLED_clean_sbu_0, # of connection points: 3
#     Node 20, Type 0, BuildingBlock: WUSLED_clean_sbu_0, # of connection points: 3
#     Node 21, Type 0, BuildingBlock: WUSLED_clean_sbu_0, # of connection points: 3
#     Node 22, Type 0, BuildingBlock: WUSLED_clean_sbu_0, # of connection points: 3
#     Node 23, Type 0, BuildingBlock: WUSLED_clean_sbu_0, # of connection points: 3
#     Node 24, Type 1, BuildingBlock: KAKCAD_clean_linker_0, # of connection points: 3
#     Node 25, Type 1, BuildingBlock: KAKCAD_clean_linker_0, # of connection points: 3
#     Node 26, Type 1, BuildingBlock: KAKCAD_clean_linker_0, # of connection points: 3
#     Node 27, Type 1, BuildingBlock: KAKCAD_clean_linker_0, # of connection points: 3
#     Node 28, Type 1, BuildingBlock: KAKCAD_clean_linker_0, # of connection points: 3
#     Node 29, Type 1, BuildingBlock: KAKCAD_clean_linker_0, # of connection points: 3
#     Node 30, Type 1, BuildingBlock: KAKCAD_clean_linker_0, # of connection points: 3
#     Node 31, Type 1, BuildingBlock: KAKCAD_clean_linker_0, # of connection points: 3
#     Node 32, Type 1, BuildingBlock: KAKCAD_clean_linker_0, # of connection points: 3
#     Node 33, Type 1, BuildingBlock: KAKCAD_clean_linker_0, # of connection points: 3
#     Node 34, Type 1, BuildingBlock: KAKCAD_clean_linker_0, # of connection points: 3
#     Node 35, Type 1, BuildingBlock: KAKCAD_clean_linker_0, # of connection points: 3
#     Node 36, Type 1, BuildingBlock: KAKCAD_clean_linker_0, # of connection points: 3
#     Node 37, Type 1, BuildingBlock: KAKCAD_clean_linker_0, # of connection points: 3
#     Node 38, Type 1, BuildingBlock: KAKCAD_clean_linker_0, # of connection points: 3
#     Node 39, Type 1, BuildingBlock: KAKCAD_clean_linker_0, # of connection points: 3
#     Node 40, Type 1, BuildingBlock: KAKCAD_clean_linker_0, # of connection points: 3
#     Node 41, Type 1, BuildingBlock: KAKCAD_clean_linker_0, # of connection points: 3
#     Node 42, Type 1, BuildingBlock: KAKCAD_clean_linker_0, # of connection points: 3
#     Node 43, Type 1, BuildingBlock: KAKCAD_clean_linker_0, # of connection points: 3
#     Node 44, Type 1, BuildingBlock: KAKCAD_clean_linker_0, # of connection points: 3
#     Node 45, Type 1, BuildingBlock: KAKCAD_clean_linker_0, # of connection points: 3
#     Node 46, Type 1, BuildingBlock: KAKCAD_clean_linker_0, # of connection points: 3
#     Node 47, Type 1, BuildingBlock: KAKCAD_clean_linker_0, # of connection points: 3
#     Edge 48, Type (0, 1), BuildingBlock: CIFDUS_clean_linker_0, # of connection points: 2
#     Edge 49, Type (0, 1), BuildingBlock: CIFDUS_clean_linker_0, # of connection points: 2
#     Edge 50, Type (0, 1), BuildingBlock: CIFDUS_clean_linker_0, # of connection points: 2
#     Edge 51, Type (0, 1), BuildingBlock: CIFDUS_clean_linker_0, # of connection points: 2
#     Edge 52, Type (0, 1), BuildingBlock: CIFDUS_clean_linker_0, # of connection points: 2
#     Edge 53, Type (0, 1), BuildingBlock: CIFDUS_clean_linker_0, # of connection points: 2
#     Edge 54, Type (0, 1), BuildingBlock: CIFDUS_clean_linker_0, # of connection points: 2
#     Edge 55, Type (0, 1), BuildingBlock: CIFDUS_clean_linker_0, # of connection points: 2
#     Edge 56, Type (0, 1), BuildingBlock: CIFDUS_clean_linker_0, # of connection points: 2
#     Edge 57, Type (0, 1), BuildingBlock: CIFDUS_clean_linker_0, # of connection points: 2
#     Edge 58, Type (0, 1), BuildingBlock: CIFDUS_clean_linker_0, # of connection points: 2
#     Edge 59, Type (0, 1), BuildingBlock: CIFDUS_clean_linker_0, # of connection points: 2
#     Edge 60, Type (0, 1), BuildingBlock: CIFDUS_clean_linker_0, # of connection points: 2
#     Edge 61, Type (0, 1), BuildingBlock: CIFDUS_clean_linker_0, # of connection points: 2
#     Edge 62, Type (0, 1), BuildingBlock: CIFDUS_clean_linker_0, # of connection points: 2
#     Edge 63, Type (0, 1), BuildingBlock: CIFDUS_clean_linker_0, # of connection points: 2
#     Edge 64, Type (0, 1), BuildingBlock: CIFDUS_clean_linker_0, # of connection points: 2
#     Edge 65, Type (0, 1), BuildingBlock: CIFDUS_clean_linker_0, # of connection points: 2
#     Edge 66, Type (0, 1), BuildingBlock: CIFDUS_clean_linker_0, # of connection points: 2
#     Edge 67, Type (0, 1), BuildingBlock: CIFDUS_clean_linker_0, # of connection points: 2
#     Edge 68, Type (0, 1), BuildingBlock: CIFDUS_clean_linker_0, # of connection points: 2
#     Edge 69, Type (0, 1), BuildingBlock: CIFDUS_clean_linker_0, # of connection points: 2
#     Edge 70, Type (0, 1), BuildingBlock: CIFDUS_clean_linker_0, # of connection points: 2
#     Edge 71, Type (0, 1), BuildingBlock: CIFDUS_clean_linker_0, # of connection points: 2
#     Edge 72, Type (0, 1), BuildingBlock: CIFDUS_clean_linker_0, # of connection points: 2
#     Edge 73, Type (0, 1), BuildingBlock: CIFDUS_clean_linker_0, # of connection points: 2
#     Edge 74, Type (0, 1), BuildingBlock: CIFDUS_clean_linker_0, # of connection points: 2
#     Edge 75, Type (0, 1), BuildingBlock: CIFDUS_clean_linker_0, # of connection points: 2
#     Edge 76, Type (0, 1), BuildingBlock: CIFDUS_clean_linker_0, # of connection points: 2
#     Edge 77, Type (0, 1), BuildingBlock: CIFDUS_clean_linker_0, # of connection points: 2
#     Edge 78, Type (0, 1), BuildingBlock: CIFDUS_clean_linker_0, # of connection points: 2
#     Edge 79, Type (0, 1), BuildingBlock: CIFDUS_clean_linker_0, # of connection points: 2
#     Edge 80, Type (0, 1), BuildingBlock: CIFDUS_clean_linker_0, # of connection points: 2
#     Edge 81, Type (0, 1), BuildingBlock: CIFDUS_clean_linker_0, # of connection points: 2
#     Edge 82, Type (0, 1), BuildingBlock: CIFDUS_clean_linker_0, # of connection points: 2
#     Edge 83, Type (0, 1), BuildingBlock: CIFDUS_clean_linker_0, # of connection points: 2
#     Edge 84, Type (0, 1), BuildingBlock: CIFDUS_clean_linker_0, # of connection points: 2
#     Edge 85, Type (0, 1), BuildingBlock: CIFDUS_clean_linker_0, # of connection points: 2
#     Edge 86, Type (0, 1), BuildingBlock: CIFDUS_clean_linker_0, # of connection points: 2
#     Edge 87, Type (0, 1), BuildingBlock: CIFDUS_clean_linker_0, # of connection points: 2
#     Edge 88, Type (0, 1), BuildingBlock: CIFDUS_clean_linker_0, # of connection points: 2
#     Edge 89, Type (0, 1), BuildingBlock: CIFDUS_clean_linker_0, # of connection points: 2
#     Edge 90, Type (0, 1), BuildingBlock: CIFDUS_clean_linker_0, # of connection points: 2
#     Edge 91, Type (0, 1), BuildingBlock: CIFDUS_clean_linker_0, # of connection points: 2
#     Edge 92, Type (0, 1), BuildingBlock: CIFDUS_clean_linker_0, # of connection points: 2
#     Edge 93, Type (0, 1), BuildingBlock: CIFDUS_clean_linker_0, # of connection points: 2
#     Edge 94, Type (0, 1), BuildingBlock: CIFDUS_clean_linker_0, # of connection points: 2
#     Edge 95, Type (0, 1), BuildingBlock: CIFDUS_clean_linker_0, # of connection points: 2
#     Edge 96, Type (0, 1), BuildingBlock: CIFDUS_clean_linker_0, # of connection points: 2
#     Edge 97, Type (0, 1), BuildingBlock: CIFDUS_clean_linker_0, # of connection points: 2
#     Edge 98, Type (0, 1), BuildingBlock: CIFDUS_clean_linker_0, # of connection points: 2
#     Edge 99, Type (0, 1), BuildingBlock: CIFDUS_clean_linker_0, # of connection points: 2
#     Edge 100, Type (0, 1), BuildingBlock: CIFDUS_clean_linker_0, # of connection points: 2
#     Edge 101, Type (0, 1), BuildingBlock: CIFDUS_clean_linker_0, # of connection points: 2
#     Edge 102, Type (0, 1), BuildingBlock: CIFDUS_clean_linker_0, # of connection points: 2
#     Edge 103, Type (0, 1), BuildingBlock: CIFDUS_clean_linker_0, # of connection points: 2
#     Edge 104, Type (0, 1), BuildingBlock: CIFDUS_clean_linker_0, # of connection points: 2
#     Edge 105, Type (0, 1), BuildingBlock: CIFDUS_clean_linker_0, # of connection points: 2
#     Edge 106, Type (0, 1), BuildingBlock: CIFDUS_clean_linker_0, # of connection points: 2
#     Edge 107, Type (0, 1), BuildingBlock: CIFDUS_clean_linker_0, # of connection points: 2
#     Edge 108, Type (0, 1), BuildingBlock: CIFDUS_clean_linker_0, # of connection points: 2
#     Edge 109, Type (0, 1), BuildingBlock: CIFDUS_clean_linker_0, # of connection points: 2
#     Edge 110, Type (0, 1), BuildingBlock: CIFDUS_clean_linker_0, # of connection points: 2
#     Edge 111, Type (0, 1), BuildingBlock: CIFDUS_clean_linker_0, # of connection points: 2
#     Edge 112, Type (0, 1), BuildingBlock: CIFDUS_clean_linker_0, # of connection points: 2
#     Edge 113, Type (0, 1), BuildingBlock: CIFDUS_clean_linker_0, # of connection points: 2
#     Edge 114, Type (0, 1), BuildingBlock: CIFDUS_clean_linker_0, # of connection points: 2
#     Edge 115, Type (0, 1), BuildingBlock: CIFDUS_clean_linker_0, # of connection points: 2
#     Edge 116, Type (0, 1), BuildingBlock: CIFDUS_clean_linker_0, # of connection points: 2
#     Edge 117, Type (0, 1), BuildingBlock: CIFDUS_clean_linker_0, # of connection points: 2
#     Edge 118, Type (0, 1), BuildingBlock: CIFDUS_clean_linker_0, # of connection points: 2
#     Edge 119, Type (0, 1), BuildingBlock: CIFDUS_clean_linker_0, # of connection points: 2
# Relax obj value: 0.224
# Max RMSD: 0.277
# Mean RMSD: 0.140
data_MOF--net-bwt--node1-WUSLED_clean_sbu_0--node2-KAKCAD_clean_linker_0--edge1-CIFDUS_clean_linker_0
_symmetry_space_group_name_H-M    P1
_symmetry_Int_Tables_number       1
_symmetry_cell_setting            triclinic
loop_
_symmetry_equiv_pos_as_xyz
'x, y, z'
_cell_length_a     73.335557
_cell_length_b     73.337847
_cell_length_c     73.314385
_cell_angle_alpha  90.140585
_cell_angle_beta   90.172868
_cell_angle_gamma 90.15906
loop_
_atom_site_label
_atom_site_type_symbol
_atom_site_fract_x
_atom_site_fract_y
_atom_site_fract_z
_atom_type_partial_charge
C0 C 0.31649 0.62787 0.4184 0.0
C1 C 0.33063 0.63525 0.42903 0.0
C2 C 0.34926 0.63988 0.4019 0.0
C3 C 0.34677 0.64125 0.42089 0.0
C4 C 0.33492 0.63266 0.39125 0.0
C5 C 0.31871 0.62677 0.39939 0.0
U6 U 0.26446 0.62362 0.42531 0.0
O7 O 0.25443 0.65079 0.41759 0.0
O8 O 0.25476 0.62868 0.3974 0.0
C9 C 0.2491 0.64522 0.40135 0.0
C10 C 0.30007 0.62063 0.42757 0.0
C11 C 0.23005 0.64956 0.39609 0.0
C12 C 0.20265 0.66804 0.39937 0.0
C13 C 0.22055 0.66391 0.40456 0.0
C14 C 0.20342 0.64366 0.37707 0.0
C15 C 0.19393 0.65803 0.38548 0.0
C16 C 0.22127 0.63955 0.38223 0.0
C17 C 0.24598 0.59123 0.4618 0.0
C18 C 0.23617 0.579 0.49091 0.0
C19 C 0.2622 0.56584 0.4755 0.0
C20 C 0.26013 0.57838 0.46131 0.0
C21 C 0.25028 0.56603 0.49052 0.0
C22 C 0.23403 0.59143 0.47666 0.0
C23 C 0.24345 0.60458 0.44707 0.0
O24 O 0.29068 0.63229 0.43741 0.0
O25 O 0.28974 0.60943 0.41801 0.0
O26 O 0.24885 0.62128 0.45081 0.0
O27 O 0.24797 0.59915 0.43059 0.0
H28 H 0.32922 0.6363 0.4437 0.0
H29 H 0.35727 0.64703 0.42955 0.0
H30 H 0.33631 0.63114 0.37663 0.0
H31 H 0.30803 0.62117 0.39081 0.0
H32 H 0.19578 0.67932 0.40596 0.0
H33 H 0.22698 0.67205 0.41513 0.0
H34 H 0.197 0.63552 0.36649 0.0
H35 H 0.22818 0.6285 0.3753 0.0
H36 H 0.22696 0.57981 0.5024 0.0
H37 H 0.27309 0.55593 0.47465 0.0
H38 H 0.26956 0.57802 0.44998 0.0
H39 H 0.2231 0.60132 0.47732 0.0
C40 C 0.20338 0.2963 0.64444 0.0
C41 C 0.19822 0.31463 0.64278 0.0
C42 C 0.16612 0.30594 0.64421 0.0
C43 C 0.17977 0.31939 0.64256 0.0
C44 C 0.17143 0.28756 0.64569 0.0
C45 C 0.18988 0.28281 0.64579 0.0
U46 U 0.25281 0.30762 0.65605 0.0
O47 O 0.27302 0.29052 0.67021 0.0
O48 O 0.27797 0.29937 0.64208 0.0
C49 C 0.28463 0.29125 0.65661 0.0
C50 C 0.22271 0.29112 0.6456 0.0
C51 C 0.30352 0.29598 0.66165 0.0
C52 C 0.33229 0.28734 0.67576 0.0
C53 C 0.31447 0.28297 0.6704 0.0
C54 C 0.32842 0.31778 0.66361 0.0
C55 C 0.33932 0.30488 0.67264 0.0
C56 C 0.31073 0.31335 0.65806 0.0
C57 C 0.26336 0.35567 0.67468 0.0
C58 C 0.29282 0.36497 0.68676 0.0
C59 C 0.26754 0.38616 0.68701 0.0
C60 C 0.25646 0.373 0.67868 0.0
C61 C 0.28582 0.38226 0.69139 0.0
C62 C 0.28162 0.35175 0.67865 0.0
C63 C 0.25104 0.34166 0.66722 0.0
O64 O 0.23379 0.29943 0.63423 0.0
O65 O 0.22929 0.29002 0.66225 0.0
O66 O 0.24806 0.3276 0.67788 0.0
O67 O 0.25367 0.33704 0.65009 0.0
H68 H 0.20845 0.32527 0.64181 0.0
H69 H 0.1762 0.33363 0.64114 0.0
H70 H 0.16134 0.27688 0.64727 0.0
H71 H 0.19364 0.26861 0.64724 0.0
H72 H 0.34043 0.27716 0.68269 0.0
H73 H 0.30918 0.26946 0.6732 0.0
H74 H 0.33364 0.33128 0.66072 0.0
H75 H 0.30266 0.32354 0.65108 0.0
H76 H 0.30689 0.36152 0.68962 0.0
H77 H 0.26153 0.39914 0.6906 0.0
H78 H 0.24233 0.37621 0.6758 0.0
H79 H 0.28708 0.33836 0.67585 0.0
C80 C 0.80645 0.02912 0.62307 0.0
C81 C 0.81939 0.02588 0.60939 0.0
C82 C 0.84403 0.0323 0.63086 0.0
C83 C 0.83802 0.02746 0.61324 0.0
C84 C 0.83095 0.03498 0.64463 0.0
C85 C 0.81233 0.03343 0.64074 0.0
U86 U 0.76819 0.02009 0.58944 0.0
O87 O 0.74049 0.00887 0.59311 0.0
O88 O 0.74431 0.03644 0.58205 0.0
C89 C 0.73265 0.02393 0.58742 0.0
C90 C 0.78687 0.02886 0.61875 0.0
C91 C 0.71696 0.03055 0.59793 0.0
C92 C 0.70337 0.05163 0.61956 0.0
C93 C 0.71886 0.04379 0.61166 0.0
C94 C 0.68404 0.03247 0.60067 0.0
C95 C 0.68576 0.04636 0.61384 0.0
C96 C 0.69949 0.02467 0.59282 0.0
C97 C 0.77763 0.00327 0.54212 0.0
C98 C 0.75323 0.00486 0.51976 0.0
C99 C 0.78118 0.98891 0.51247 0.0
C100 C 0.78811 0.99315 0.5298 0.0
C101 C 0.76365 0.99477 0.50723 0.0
C102 C 0.76011 0.00897 0.53705 0.0
C103 C 0.78481 0.00801 0.56025 0.0
O104 O 0.78176 0.0408 0.60642 0.0
O105 O 0.77963 0.01261 0.61621 0.0
O106 O 0.77948 0.99725 0.57353 0.0
O107 O 0.78369 0.0254 0.56442 0.0
H108 H 0.81506 0.02255 0.59563 0.0
H109 H 0.84767 0.02551 0.60226 0.0
H110 H 0.83511 0.03844 0.6584 0.0
H111 H 0.8025 0.03591 0.65147 0.0
H112 H 0.70518 0.06211 0.62985 0.0
H113 H 0.73227 0.04848 0.61582 0.0
H114 H 0.67075 0.02823 0.59574 0.0
H115 H 0.69777 0.01453 0.58216 0.0
H116 H 0.73984 0.00991 0.51613 0.0
H117 H 0.78948 0.98094 0.50325 0.0
H118 H 0.80164 0.98856 0.53356 0.0
H119 H 0.75179 0.01678 0.54642 0.0
C120 C 0.68083 0.90636 0.37754 0.0
C121 C 0.66842 0.92072 0.38018 0.0
C122 C 0.64321 0.90128 0.37056 0.0
C123 C 0.64986 0.91831 0.37638 0.0
C124 C 0.65553 0.88688 0.36804 0.0
C125 C 0.67413 0.8894 0.37145 0.0
U126 U 0.73198 0.9188 0.36997 0.0
O127 O 0.75143 0.93079 0.38965 0.0
O128 O 0.7553 0.90283 0.37976 0.0
C129 C 0.76228 0.91657 0.38897 0.0
C130 C 0.70025 0.90829 0.38293 0.0
C131 C 0.78154 0.9205 0.38501 0.0
C132 C 0.81288 0.92341 0.39544 0.0
C133 C 0.79434 0.92095 0.39923 0.0
C134 C 0.8059 0.92539 0.36317 0.0
C135 C 0.8189 0.92535 0.37733 0.0
C136 C 0.78738 0.92304 0.36699 0.0
C137 C 0.72258 0.93588 0.32039 0.0
C138 C 0.71376 0.92889 0.28914 0.0
C139 C 0.70638 0.95836 0.30207 0.0
C140 C 0.71456 0.95321 0.31853 0.0
C141 C 0.70644 0.94644 0.28707 0.0
C142 C 0.72172 0.92365 0.30563 0.0
C143 C 0.73391 0.93144 0.33653 0.0
O144 O 0.70676 0.92491 0.38504 0.0
O145 O 0.71186 0.89718 0.37503 0.0
O146 O 0.73209 0.9419 0.35097 0.0
O147 O 0.736 0.9141 0.34058 0.0
H148 H 0.67296 0.93371 0.3856 0.0
H149 H 0.6406 0.92955 0.3787 0.0
H150 H 0.65075 0.87363 0.3635 0.0
H151 H 0.6832 0.87792 0.36963 0.0
H152 H 0.82256 0.92316 0.40662 0.0
H153 H 0.79005 0.91901 0.41322 0.0
H154 H 0.81009 0.92708 0.34912 0.0
H155 H 0.77764 0.92285 0.35584 0.0
H156 H 0.71389 0.91944 0.27776 0.0
H157 H 0.70092 0.97201 0.30076 0.0
H158 H 0.71516 0.96306 0.32954 0.0
H159 H 0.72794 0.9103 0.30652 0.0
C160 C 0.4151 0.30691 0.63004 0.0
C161 C 0.42564 0.32178 0.63597 0.0
C162 C 0.39823 0.33989 0.64079 0.0
C163 C 0.41732 0.33802 0.64137 0.0
C164 C 0.38768 0.32486 0.635 0.0
C165 C 0.39601 0.30855 0.62973 0.0
U166 U 0.42713 0.25555 0.63097 0.0
O167 O 0.42608 0.24899 0.66023 0.0
O168 O 0.40226 0.24377 0.64279 0.0
C169 C 0.40988 0.24138 0.65886 0.0
C170 C 0.42438 0.29037 0.62322 0.0
C171 C 0.40848 0.22276 0.66604 0.0
C172 C 0.39497 0.20121 0.68718 0.0
C173 C 0.39741 0.21914 0.68114 0.0
C174 C 0.41513 0.19045 0.66337 0.0
C175 C 0.40352 0.18658 0.67814 0.0
C176 C 0.41756 0.20836 0.65737 0.0
C177 C 0.45893 0.23863 0.59399 0.0
C178 C 0.48845 0.23694 0.57913 0.0
C179 C 0.46403 0.25424 0.56522 0.0
C180 C 0.45252 0.24955 0.57963 0.0
C181 C 0.48227 0.24833 0.56498 0.0
C182 C 0.47687 0.23211 0.59345 0.0
C183 C 0.44759 0.23497 0.61017 0.0
O184 O 0.43738 0.28371 0.63362 0.0
O185 O 0.41406 0.27771 0.6157 0.0
O186 O 0.45352 0.24246 0.62539 0.0
O187 O 0.42986 0.2365 0.60794 0.0
H188 H 0.44038 0.3209 0.63631 0.0
H189 H 0.42593 0.34913 0.64595 0.0
H190 H 0.37298 0.32577 0.63407 0.0
H191 H 0.38747 0.29736 0.62517 0.0
H192 H 0.3862 0.1988 0.69878 0.0
H193 H 0.39038 0.23014 0.68804 0.0
H194 H 0.42183 0.17961 0.65597 0.0
H195 H 0.42617 0.21094 0.64566 0.0
H196 H 0.50246 0.23236 0.57959 0.0
H197 H 0.45872 0.26281 0.55444 0.0
H198 H 0.43874 0.25485 0.57972 0.0
H199 H 0.48211 0.22374 0.60443 0.0
C200 C 0.36877 0.68182 0.9085 0.0
C201 C 0.36459 0.66909 0.92218 0.0
C202 C 0.36548 0.64427 0.89981 0.0
C203 C 0.36291 0.65048 0.91786 0.0
C204 C 0.3694 0.65719 0.88624 0.0
C205 C 0.37105 0.67563 0.89053 0.0
U206 U 0.35953 0.73272 0.92314 0.0
O207 O 0.37875 0.75256 0.93542 0.0
O208 O 0.37012 0.75542 0.90692 0.0
C209 C 0.3787 0.76291 0.92079 0.0
C210 C 0.37279 0.70123 0.91238 0.0
C211 C 0.37457 0.78234 0.92356 0.0
C212 C 0.38503 0.81379 0.92482 0.0
C213 C 0.38879 0.79508 0.92493 0.0
C214 C 0.3527 0.80716 0.92264 0.0
C215 C 0.36697 0.82 0.92312 0.0
C216 C 0.35646 0.78849 0.92296 0.0
C217 C 0.30913 0.72525 0.93929 0.0
C218 C 0.28539 0.71878 0.96144 0.0
C219 C 0.28236 0.70762 0.93048 0.0
C220 C 0.29912 0.71563 0.92603 0.0
C221 C 0.27514 0.70931 0.9482 0.0
C222 C 0.30215 0.72662 0.95703 0.0
C223 C 0.32585 0.73554 0.93484 0.0
O224 O 0.3737 0.70689 0.92944 0.0
O225 O 0.36519 0.71309 0.90134 0.0
O226 O 0.3399 0.73312 0.94574 0.0
O227 O 0.33037 0.73716 0.91756 0.0
H228 H 0.36296 0.6734 0.9362 0.0
H229 H 0.35998 0.64096 0.92873 0.0
H230 H 0.371 0.65313 0.87213 0.0
H231 H 0.37443 0.68511 0.87973 0.0
H232 H 0.39628 0.82339 0.92511 0.0
H233 H 0.40285 0.79058 0.92536 0.0
H234 H 0.33866 0.81157 0.92152 0.0
H235 H 0.34528 0.77885 0.92196 0.0
H236 H 0.28019 0.7208 0.9751 0.0
H237 H 0.27503 0.70019 0.91998 0.0
H238 H 0.30413 0.71439 0.9122 0.0
H239 H 0.30945 0.73426 0.96742 0.0
C240 C 0.64156 0.19075 0.2903 0.0
C241 C 0.65666 0.18203 0.29823 0.0
C242 C 0.64095 0.15277 0.29636 0.0
C243 C 0.65638 0.16319 0.30115 0.0
C244 C 0.62573 0.16162 0.28879 0.0
C245 C 0.62608 0.18044 0.28573 0.0
U246 U 0.65598 0.24027 0.30002 0.0
O247 O 0.64035 0.26535 0.29536 0.0
O248 O 0.66572 0.26062 0.28024 0.0
C249 C 0.65254 0.27209 0.2841 0.0
C250 C 0.64192 0.21037 0.28603 0.0
C251 C 0.65824 0.29107 0.28744 0.0
C252 C 0.66771 0.32037 0.27524 0.0
C253 C 0.66263 0.30218 0.27254 0.0
C254 C 0.66417 0.31654 0.30786 0.0
C255 C 0.66847 0.3278 0.29293 0.0
C256 C 0.65913 0.29834 0.30514 0.0
C257 C 0.68509 0.25162 0.34211 0.0
C258 C 0.70181 0.28 0.34614 0.0
C259 C 0.70182 0.25739 0.37018 0.0
C260 C 0.69051 0.24618 0.3596 0.0
C261 C 0.70793 0.27428 0.36344 0.0
C262 C 0.69053 0.26874 0.33555 0.0
C263 C 0.67472 0.23884 0.33056 0.0
O264 O 0.63291 0.22107 0.29722 0.0
O265 O 0.65782 0.21706 0.28118 0.0
O266 O 0.6818 0.23553 0.31444 0.0
O267 O 0.65697 0.24123 0.33007 0.0
H268 H 0.66872 0.18975 0.30199 0.0
H269 H 0.66819 0.15679 0.30726 0.0
H270 H 0.6137 0.15395 0.28486 0.0
H271 H 0.61432 0.18691 0.27957 0.0
H272 H 0.67116 0.32857 0.26348 0.0
H273 H 0.66207 0.29678 0.25878 0.0
H274 H 0.66437 0.32188 0.32165 0.0
H275 H 0.65578 0.29001 0.31685 0.0
H276 H 0.70607 0.29302 0.34063 0.0
H277 H 0.70643 0.25242 0.3833 0.0
H278 H 0.68645 0.23299 0.36485 0.0
H279 H 0.68647 0.27316 0.32205 0.0
C280 C 0.62082 0.80416 0.0363 0.0
C281 C 0.60842 0.81694 0.02934 0.0
C282 C 0.62846 0.84181 0.03881 0.0
C283 C 0.61221 0.83562 0.03059 0.0
C284 C 0.64101 0.82886 0.04536 0.0
C285 C 0.63719 0.81021 0.04412 0.0
U286 U 0.58882 0.7652 0.02408 0.0
O287 O 0.59434 0.73709 0.01487 0.0
O288 O 0.57941 0.74196 0.04035 0.0
C289 C 0.58659 0.72984 0.02929 0.0
C290 C 0.6164 0.78461 0.03624 0.0
C291 C 0.59611 0.71457 0.03803 0.0
C292 C 0.61565 0.70223 0.06181 0.0
C293 C 0.60864 0.71724 0.05231 0.0
C294 C 0.59816 0.68185 0.04239 0.0
C295 C 0.6101 0.6844 0.05721 0.0
C296 C 0.59124 0.6968 0.03291 0.0
C297 C 0.54451 0.77245 1.00007 0.0
C298 C 0.52476 0.74599 0.99739 0.0
C299 C 0.51472 0.77522 0.98579 0.0
C300 C 0.53126 0.7831 0.99138 0.0
C301 C 0.51123 0.75658 0.98886 0.0
C302 C 0.54122 0.75384 0.00288 0.0
C303 C 0.56149 0.78059 0.00699 0.0
O304 O 0.60237 0.78004 0.04639 0.0
O305 O 0.61632 0.77664 0.02015 0.0
O306 O 0.57638 0.77521 0.99864 0.0
O307 O 0.56303 0.78036 0.02485 0.0
H308 H 0.5957 0.81247 0.02322 0.0
H309 H 0.60236 0.84521 0.02524 0.0
H310 H 0.65352 0.83315 0.05199 0.0
H311 H 0.64686 0.80051 0.04963 0.0
H312 H 0.62477 0.70461 0.07322 0.0
H313 H 0.61252 0.7309 0.05647 0.0
H314 H 0.59386 0.66828 0.03835 0.0
H315 H 0.58159 0.69449 0.02191 0.0
H316 H 0.52245 0.73171 1.00035 0.0
H317 H 0.50467 0.78372 0.97913 0.0
H318 H 0.53361 0.79751 0.98913 0.0
H319 H 0.55128 0.74543 0.00967 0.0
C320 C 0.6424 0.42399 0.31352 0.0
C321 C 0.64795 0.42874 0.33121 0.0
C322 C 0.64652 0.3969 0.34051 0.0
C323 C 0.64997 0.41534 0.34459 0.0
C324 C 0.64081 0.39218 0.3228 0.0
C325 C 0.63878 0.40558 0.30942 0.0
U326 U 0.65111 0.44204 0.2656 0.0
O327 O 0.67753 0.42936 0.25906 0.0
O328 O 0.6519 0.41577 0.25134 0.0
C329 C 0.66978 0.4158 0.25017 0.0
C330 C 0.64063 0.43833 0.29956 0.0
C331 C 0.67703 0.41178 0.23197 0.0
C332 C 0.69523 0.39215 0.21263 0.0
C333 C 0.68983 0.3978 0.22999 0.0
C334 C 0.67567 0.415 0.19903 0.0
C335 C 0.6878 0.4003 0.19693 0.0
C336 C 0.67033 0.4207 0.21643 0.0
C337 C 0.63131 0.4875 0.25203 0.0
C338 C 0.62231 0.51872 0.246 0.0
C339 C 0.60928 0.50246 0.27162 0.0
C340 C 0.61968 0.48717 0.26719 0.0
C341 C 0.61047 0.51839 0.26106 0.0
C342 C 0.63263 0.50336 0.24149 0.0
C343 C 0.6421 0.47134 0.2473 0.0
O344 O 0.65586 0.44663 0.29498 0.0
O345 O 0.63015 0.43441 0.2855 0.0
O346 O 0.63281 0.45601 0.24646 0.0
O347 O 0.65765 0.46977 0.25612 0.0
H348 H 0.65078 0.44284 0.33468 0.0
H349 H 0.65402 0.41946 0.35821 0.0
H350 H 0.63819 0.37808 0.31919 0.0
H351 H 0.63461 0.40149 0.29583 0.0
H352 H 0.70485 0.38103 0.2115 0.0
H353 H 0.69519 0.39084 0.24187 0.0
H354 H 0.66963 0.42152 0.18726 0.0
H355 H 0.66044 0.43157 0.21774 0.0
H356 H 0.62338 0.53076 0.23758 0.0
H357 H 0.60049 0.50191 0.28345 0.0
H358 H 0.61864 0.47508 0.27558 0.0
H359 H 0.64159 0.50384 0.22977 0.0
C360 C 0.90115 0.36646 0.6805 0.0
C361 C 0.91282 0.37093 0.666 0.0
C362 C 0.88952 0.36184 0.6438 0.0
C363 C 0.9071 0.36861 0.64788 0.0
C364 C 0.87811 0.35702 0.65842 0.0
C365 C 0.88382 0.35929 0.67644 0.0
U366 U 0.92058 0.35953 0.7298 0.0
O367 O 0.9327 0.37978 0.74871 0.0
O368 O 0.90571 0.36806 0.7542 0.0
C369 C 0.9192 0.37817 0.76036 0.0
C370 C 0.90566 0.37166 0.69955 0.0
C371 C 0.92414 0.37502 0.7796 0.0
C372 C 0.93113 0.38752 0.80954 0.0
C373 C 0.92883 0.38986 0.79074 0.0
C374 C 0.92475 0.35526 0.80618 0.0
C375 C 0.92859 0.37027 0.81759 0.0
C376 C 0.92263 0.3576 0.78738 0.0
C377 C 0.94032 0.31159 0.71824 0.0
C378 C 0.96303 0.28954 0.70856 0.0
C379 C 0.93142 0.28535 0.69988 0.0
C380 C 0.92684 0.30149 0.70899 0.0
C381 C 0.94954 0.27897 0.69985 0.0
C382 C 0.95846 0.30564 0.71763 0.0
C383 C 0.9358 0.32718 0.73016 0.0
O384 O 0.92285 0.37471 0.70387 0.0
O385 O 0.89659 0.3631 0.71239 0.0
O386 O 0.94498 0.34232 0.72733 0.0
O387 O 0.91851 0.32992 0.73403 0.0
H388 H 0.92614 0.37683 0.66863 0.0
H389 H 0.91627 0.37282 0.63714 0.0
H390 H 0.86461 0.3515 0.65606 0.0
H391 H 0.87433 0.35591 0.68722 0.0
H392 H 0.9345 0.39931 0.81781 0.0
H393 H 0.93015 0.4034 0.78498 0.0
H394 H 0.92253 0.34182 0.81184 0.0
H395 H 0.91909 0.3459 0.77902 0.0
H396 H 0.97705 0.28499 0.70917 0.0
H397 H 0.92071 0.27776 0.69303 0.0
H398 H 0.91273 0.3058 0.70914 0.0
H399 H 0.96906 0.31311 0.7248 0.0
C400 C 0.29681 0.63565 0.21299 0.0
C401 C 0.30558 0.65081 0.20533 0.0
C402 C 0.30238 0.63759 0.17492 0.0
C403 C 0.30825 0.65182 0.18649 0.0
C404 C 0.29382 0.62229 0.18275 0.0
C405 C 0.29105 0.62136 0.20162 0.0
U406 U 0.30714 0.65198 0.26112 0.0
O407 O 0.30768 0.63692 0.28699 0.0
O408 O 0.28794 0.65906 0.28307 0.0
C409 C 0.29512 0.64727 0.29448 0.0
C410 C 0.29334 0.63486 0.23274 0.0
C411 C 0.29877 0.65406 0.31313 0.0
C412 C 0.28688 0.66556 0.34189 0.0
C413 C 0.28414 0.66021 0.32377 0.0
C414 C 0.31906 0.65888 0.33901 0.0
C415 C 0.30434 0.66474 0.34985 0.0
C416 C 0.31632 0.65366 0.32084 0.0
C417 C 0.34538 0.68881 0.26521 0.0
C418 C 0.37054 0.69629 0.28575 0.0
C419 C 0.35762 0.71959 0.26629 0.0
C420 C 0.34518 0.70697 0.25931 0.0
C421 C 0.37074 0.71434 0.27926 0.0
C422 C 0.35798 0.68359 0.27874 0.0
C423 C 0.33357 0.67551 0.25563 0.0
O424 O 0.30662 0.62813 0.24272 0.0
O425 O 0.28617 0.64968 0.23979 0.0
O426 O 0.31621 0.67974 0.25431 0.0
O427 O 0.33641 0.65808 0.25869 0.0
H428 H 0.31015 0.662 0.2139 0.0
H429 H 0.31461 0.66395 0.18098 0.0
H430 H 0.28935 0.61097 0.17433 0.0
H431 H 0.28433 0.60951 0.20733 0.0
H432 H 0.27528 0.67029 0.34966 0.0
H433 H 0.27048 0.66064 0.31811 0.0
H434 H 0.33265 0.65783 0.34465 0.0
H435 H 0.32789 0.649 0.31297 0.0
H436 H 0.38047 0.69182 0.29573 0.0
H437 H 0.35712 0.73347 0.26131 0.0
H438 H 0.33565 0.71132 0.24887 0.0
H439 H 0.3585 0.66965 0.28354 0.0
C440 C 0.03126 0.61605 0.80546 0.0
C441 C 0.02563 0.6025 0.8177 0.0
C442 C 0.03396 0.62198 0.84339 0.0
C443 C 0.02696 0.60544 0.83652 0.0
C444 C 0.03902 0.63572 0.83101 0.0
C445 C 0.0377 0.63275 0.8122 0.0
U446 U 0.0243 0.58366 0.76564 0.0
O447 O 0.015 0.58832 0.73741 0.0
O448 O 0.04231 0.57726 0.74268 0.0
C449 C 0.03061 0.58304 0.7304 0.0
C450 C 0.0318 0.61234 0.78577 0.0
C451 C 0.03831 0.59445 0.71591 0.0
C452 C 0.05667 0.62011 0.70578 0.0
C453 C 0.04779 0.61065 0.71978 0.0
C454 C 0.04617 0.59752 0.68394 0.0
C455 C 0.05622 0.61346 0.68772 0.0
C456 C 0.0373 0.58815 0.6979 0.0
C457 C 0.00819 0.53569 0.77211 0.0
C458 C 0.01311 0.51445 0.74721 0.0
C459 C 0.99621 0.50481 0.77389 0.0
C460 C 0.99848 0.52221 0.78157 0.0
C461 C 0.00383 0.50071 0.7568 0.0
C462 C 0.01518 0.53179 0.75476 0.0
C463 C 0.01171 0.55364 0.78035 0.0
O464 O 0.04409 0.60031 0.78086 0.0
O465 O 0.01591 0.60985 0.77774 0.0
O466 O 1.00105 0.56686 0.77467 0.0
O467 O 0.02903 0.5583 0.78075 0.0
H468 H 0.02066 0.58948 0.8127 0.0
H469 H 0.02277 0.59466 0.84568 0.0
H470 H 0.0447 0.64851 0.83582 0.0
H471 H 0.04222 0.6433 0.80292 0.0
H472 H 0.06412 0.63244 0.70913 0.0
H473 H 0.04871 0.61569 0.73366 0.0
H474 H 0.04576 0.59179 0.67032 0.0
H475 H 0.03014 0.57558 0.69471 0.0
H476 H 0.01888 0.51172 0.7339 0.0
H477 H 0.98901 0.49443 0.78153 0.0
H478 H 0.99295 0.52504 0.79496 0.0
H479 H 0.02257 0.54208 0.74718 0.0
C480 C 0.69475 0.36711 0.59477 0.0
C481 C 0.67746 0.36372 0.58731 0.0
C482 C 0.66515 0.35762 0.61758 0.0
C483 C 0.66281 0.35913 0.59856 0.0
C484 C 0.68258 0.36101 0.62499 0.0
C485 C 0.69721 0.36575 0.61372 0.0
U486 U 0.74422 0.36475 0.57747 0.0
O487 O 0.75139 0.33605 0.58238 0.0
O488 O 0.75855 0.35698 0.60263 0.0
C489 C 0.76034 0.33991 0.59747 0.0
C490 C 0.70973 0.3727 0.58258 0.0
C491 C 0.77897 0.33272 0.59859 0.0
C492 C 0.80123 0.31372 0.61395 0.0
C493 C 0.78326 0.31969 0.61183 0.0
C494 C 0.81069 0.33334 0.58916 0.0
C495 C 0.81522 0.32072 0.60286 0.0
C496 C 0.79271 0.33932 0.58707 0.0
C497 C 0.75818 0.39639 0.53906 0.0
C498 C 0.76507 0.41263 0.51109 0.0
C499 C 0.73761 0.41978 0.52795 0.0
C500 C 0.74217 0.40663 0.54094 0.0
C501 C 0.74892 0.42283 0.51276 0.0
C502 C 0.76965 0.39953 0.52415 0.0
C503 C 0.76272 0.38206 0.55226 0.0
O504 O 0.72323 0.38185 0.59014 0.0
O505 O 0.7152 0.36042 0.57071 0.0
O506 O 0.76253 0.38711 0.56947 0.0
O507 O 0.75462 0.3663 0.54938 0.0
H508 H 0.67521 0.36486 0.57274 0.0
H509 H 0.64956 0.35719 0.59232 0.0
H510 H 0.68507 0.35977 0.63949 0.0
H511 H 0.71044 0.36821 0.61986 0.0
H512 H 0.80422 0.30381 0.62447 0.0
H513 H 0.77278 0.31442 0.62079 0.0
H514 H 0.82114 0.33914 0.58052 0.0
H515 H 0.7896 0.34943 0.57677 0.0
H516 H 0.77394 0.41441 0.49944 0.0
H517 H 0.7252 0.42752 0.52977 0.0
H518 H 0.73313 0.40434 0.55237 0.0
H519 H 0.78201 0.39165 0.52245 0.0
C520 C 0.80552 0.71529 0.34981 0.0
C521 C 0.81234 0.69849 0.34376 0.0
C522 C 0.84303 0.70744 0.35322 0.0
C523 C 0.83095 0.69459 0.34545 0.0
C524 C 0.83595 0.72405 0.35969 0.0
C525 C 0.81738 0.72792 0.35797 0.0
U526 U 0.75594 0.70469 0.33595 0.0
O527 O 0.73074 0.7158 0.3477 0.0
O528 O 0.73796 0.72207 0.31935 0.0
C529 C 0.7257 0.7235 0.3323 0.0
C530 C 0.78636 0.72035 0.34686 0.0
C531 C 0.70663 0.72071 0.32656 0.0
C532 C 0.67979 0.73213 0.31076 0.0
C533 C 0.69795 0.73427 0.31626 0.0
C534 C 0.67885 0.70266 0.32556 0.0
C535 C 0.67004 0.71627 0.31532 0.0
C536 C 0.69689 0.70495 0.33132 0.0
C537 C 0.74249 0.65605 0.32107 0.0
C538 C 0.71193 0.64716 0.31163 0.0
C539 C 0.73661 0.62533 0.31007 0.0
C540 C 0.74864 0.63846 0.31701 0.0
C541 C 0.71808 0.6295 0.30718 0.0
C542 C 0.72408 0.66033 0.31837 0.0
C543 C 0.7556 0.66977 0.32775 0.0
O544 O 0.78086 0.72012 0.3298 0.0
O545 O 0.77444 0.71323 0.35816 0.0
O546 O 0.7527 0.67606 0.34429 0.0
O547 O 0.76005 0.68257 0.31606 0.0
H548 H 0.80334 0.68856 0.33745 0.0
H549 H 0.83591 0.68158 0.34055 0.0
H550 H 0.84486 0.73433 0.36553 0.0
H551 H 0.81233 0.74099 0.36264 0.0
H552 H 0.67347 0.74278 0.30275 0.0
H553 H 0.70524 0.74657 0.3125 0.0
H554 H 0.67172 0.69034 0.32937 0.0
H555 H 0.70314 0.69445 0.33956 0.0
H556 H 0.69777 0.65089 0.3098 0.0
H557 H 0.74201 0.61208 0.30647 0.0
H558 H 0.76286 0.63494 0.31891 0.0
H559 H 0.71918 0.67391 0.32127 0.0
C560 C 0.19777 0.972 0.39599 0.0
C561 C 0.18391 0.97885 0.40723 0.0
C562 C 0.16082 0.96624 0.38678 0.0
C563 C 0.16557 0.97603 0.40264 0.0
C564 C 0.17482 0.95992 0.37531 0.0
C565 C 0.19312 0.96276 0.3799 0.0
U566 U 0.23426 0.98766 0.4295 0.0
O567 O 0.25778 0.97289 0.44069 0.0
O568 O 0.2621 0.99805 0.42511 0.0
C569 C 0.26969 0.98412 0.43345 0.0
C570 C 0.21702 0.97347 0.40143 0.0
C571 C 0.28502 0.97536 0.42406 0.0
C572 C 0.29778 0.95897 0.39827 0.0
C573 C 0.28315 0.96809 0.40644 0.0
C574 C 0.3162 0.96443 0.42524 0.0
C575 C 0.31446 0.95692 0.40764 0.0
C576 C 0.30163 0.97357 0.43333 0.0
C577 C 0.22194 0.01261 0.47282 0.0
C578 C 0.24528 0.02659 0.49192 0.0
C579 C 0.21697 0.01618 0.50537 0.0
C580 C 0.21078 0.0106 0.48818 0.0
C581 C 0.2344 0.02396 0.50745 0.0
C582 C 0.23916 0.02084 0.47477 0.0
C583 C 0.21624 0.00448 0.45532 0.0
O584 O 0.224 0.99 0.40133 0.0
O585 O 0.22142 0.9641 0.41604 0.0
O586 O 0.21784 0.98667 0.45453 0.0
O587 O 0.22205 0.01274 0.44052 0.0
H588 H 0.18729 0.98597 0.41976 0.0
H589 H 0.15514 0.98092 0.41185 0.0
H590 H 0.17162 0.95258 0.36286 0.0
H591 H 0.20366 0.95741 0.37106 0.0
H592 H 0.29602 0.95352 0.38463 0.0
H593 H 0.27036 0.96931 0.39911 0.0
H594 H 0.32868 0.96284 0.433 0.0
H595 H 0.30324 0.97898 0.44701 0.0
H596 H 0.25886 0.03232 0.49315 0.0
H597 H 0.20828 0.01407 0.51711 0.0
H598 H 0.19751 0.00417 0.48697 0.0
H599 H 0.24813 0.02229 0.46315 0.0
C600 C 0.32587 0.096 0.6329 0.0
C601 C 0.34035 0.08693 0.62431 0.0
C602 C 0.36225 0.10823 0.63769 0.0
C603 C 0.35835 0.09293 0.62672 0.0
C604 C 0.34783 0.11662 0.6471 0.0
C605 C 0.32988 0.11056 0.64479 0.0
U606 U 0.27482 0.0795 0.63581 0.0
O607 O 0.2521 0.0955 0.62476 0.0
O608 O 0.25772 0.0683 0.61363 0.0
C609 C 0.24673 0.08244 0.61369 0.0
C610 C 0.30692 0.09255 0.62665 0.0
C611 C 0.22704 0.07865 0.61409 0.0
C612 C 0.19689 0.08529 0.60212 0.0
C613 C 0.21583 0.08695 0.60106 0.0
C614 C 0.20008 0.06647 0.62904 0.0
C615 C 0.18871 0.07521 0.61624 0.0
C616 C 0.2191 0.06823 0.62801 0.0
C617 C 0.28064 0.05995 0.68484 0.0
C618 C 0.29272 0.03657 0.70508 0.0
C619 C 0.29099 0.06789 0.71542 0.0
C620 C 0.28386 0.07306 0.69851 0.0
C621 C 0.29518 0.04956 0.71896 0.0
C622 C 0.28528 0.04168 0.68829 0.0
C623 C 0.27039 0.06464 0.66806 0.0
O624 O 0.30192 0.07562 0.62326 0.0
O625 O 0.29398 0.10238 0.63414 0.0
O626 O 0.27424 0.05521 0.6533 0.0
O627 O 0.2675 0.08203 0.66477 0.0
H628 H 0.33768 0.07582 0.6149 0.0
H629 H 0.36906 0.08616 0.61919 0.0
H630 H 0.35034 0.12825 0.65587 0.0
H631 H 0.31909 0.11794 0.65162 0.0
H632 H 0.18867 0.09251 0.59222 0.0
H633 H 0.22172 0.09521 0.59034 0.0
H634 H 0.1943 0.05842 0.63996 0.0
H635 H 0.22758 0.06181 0.63827 0.0
H636 H 0.29576 0.02233 0.7075 0.0
H637 H 0.29295 0.07819 0.72587 0.0
H638 H 0.28028 0.08722 0.69643 0.0
H639 H 0.28254 0.03119 0.67824 0.0
C640 C 0.6147 0.69955 0.34845 0.0
C641 C 0.60363 0.68592 0.34057 0.0
C642 C 0.62907 0.66464 0.34072 0.0
C643 C 0.61077 0.66869 0.33666 0.0
C644 C 0.63999 0.67819 0.34889 0.0
C645 C 0.63294 0.69551 0.35251 0.0
U646 U 0.58236 0.73367 0.37147 0.0
O647 O 0.58716 0.76152 0.38161 0.0
O648 O 0.56757 0.75674 0.35938 0.0
C649 C 0.57607 0.76884 0.36959 0.0
C650 C 0.60777 0.71821 0.3517 0.0
C651 C 0.58302 0.78504 0.36014 0.0
C652 C 0.60303 0.79969 0.3382 0.0
C653 C 0.59643 0.78383 0.34658 0.0
C654 C 0.58276 0.8179 0.3568 0.0
C655 C 0.59634 0.81697 0.34331 0.0
C656 C 0.57617 0.80212 0.36508 0.0
C657 C 0.54649 0.71912 0.40512 0.0
C658 C 0.52094 0.73883 0.41237 0.0
C659 C 0.52802 0.71315 0.43188 0.0
C660 C 0.54269 0.70862 0.4206 0.0
C661 C 0.51688 0.72818 0.42775 0.0
C662 C 0.53569 0.73441 0.40122 0.0
C663 C 0.56183 0.71424 0.39322 0.0
O664 O 0.59126 0.72165 0.34567 0.0
O665 O 0.61104 0.72532 0.36788 0.0
O666 O 0.55865 0.71584 0.37563 0.0
O667 O 0.57774 0.72089 0.39822 0.0
H668 H 0.58952 0.6886 0.33712 0.0
H669 H 0.60202 0.65862 0.33025 0.0
H670 H 0.65398 0.67536 0.35267 0.0
H671 H 0.64179 0.70578 0.35847 0.0
H672 H 0.61333 0.7984 0.32773 0.0
H673 H 0.60183 0.77068 0.34261 0.0
H674 H 0.57745 0.83086 0.36131 0.0
H675 H 0.56584 0.80329 0.37556 0.0
H676 H 0.51269 0.75058 0.40897 0.0
H677 H 0.5251 0.70462 0.44356 0.0
H678 H 0.55097 0.69686 0.42387 0.0
H679 H 0.53858 0.74285 0.38946 0.0
C680 C 0.63999 0.32371 0.10712 0.0
C681 C 0.6328 0.33856 0.09741 0.0
C682 C 0.64609 0.35991 0.11937 0.0
C683 C 0.63591 0.35646 0.10339 0.0
C684 C 0.65397 0.34505 0.12851 0.0
C685 C 0.65101 0.32722 0.12247 0.0
U686 U 0.64154 0.27407 0.08702 0.0
O687 O 0.63359 0.25019 0.10306 0.0
O688 O 0.61872 0.25655 0.07786 0.0
C689 C 0.62099 0.24502 0.09139 0.0
C690 C 0.63344 0.3049 0.1034 0.0
C691 C 0.62129 0.22549 0.08688 0.0
C692 C 0.60981 0.19519 0.09353 0.0
C693 C 0.60829 0.2141 0.09496 0.0
C694 C 0.63689 0.19877 0.07499 0.0
C695 C 0.62437 0.18731 0.08393 0.0
C696 C 0.63543 0.21778 0.07657 0.0
C697 C 0.68699 0.28403 0.06207 0.0
C698 C 0.7021 0.30175 0.03842 0.0
C699 C 0.71787 0.29542 0.06676 0.0
C700 C 0.70259 0.28599 0.07313 0.0
C701 C 0.71781 0.30324 0.04929 0.0
C702 C 0.68697 0.29199 0.04464 0.0
C703 C 0.67164 0.2722 0.06781 0.0
O704 O 0.62778 0.30084 0.08682 0.0
O705 O 0.6425 0.29159 0.11121 0.0
O706 O 0.65558 0.27576 0.06063 0.0
O707 O 0.67079 0.26783 0.08518 0.0
H708 H 0.62399 0.33634 0.08574 0.0
H709 H 0.62943 0.36749 0.09606 0.0
H710 H 0.66206 0.34709 0.1407 0.0
H711 H 0.65665 0.31616 0.13043 0.0
H712 H 0.59987 0.18669 0.10038 0.0
H713 H 0.59734 0.21982 0.10304 0.0
H714 H 0.64828 0.19304 0.06758 0.0
H715 H 0.6457 0.22642 0.07039 0.0
H716 H 0.70183 0.30748 0.02481 0.0
H717 H 0.72985 0.29643 0.07538 0.0
H718 H 0.70323 0.2798 0.08651 0.0
H719 H 0.67544 0.29023 0.03557 0.0
C720 C 0.35186 0.80504 0.70873 0.0
C721 C 0.33578 0.81452 0.70437 0.0
C722 C 0.35239 0.8433 0.70415 0.0
C723 C 0.33604 0.83344 0.70219 0.0
C724 C 0.36858 0.83378 0.70791 0.0
C725 C 0.36828 0.81483 0.7103 0.0
U726 U 0.34094 0.75494 0.69709 0.0
O727 O 0.35502 0.72968 0.70497 0.0
O728 O 0.32745 0.73521 0.71515 0.0
C729 C 0.34075 0.72334 0.71379 0.0
C730 C 0.35149 0.78532 0.713 0.0
C731 C 0.33495 0.70461 0.70936 0.0
C732 C 0.32024 0.67647 0.71889 0.0
C733 C 0.32632 0.69414 0.7228 0.0
C734 C 0.33148 0.67948 0.68799 0.0
C735 C 0.32275 0.66891 0.70143 0.0
C736 C 0.33743 0.69719 0.69189 0.0
C737 C 0.31991 0.743 0.65029 0.0
C738 C 0.32025 0.7152 0.63199 0.0
C739 C 0.29499 0.73625 0.62947 0.0
C740 C 0.30316 0.74765 0.64236 0.0
C741 C 0.30345 0.71993 0.62397 0.0
C742 C 0.32843 0.72664 0.64503 0.0
C743 C 0.3281 0.75573 0.66366 0.0
O744 O 0.33527 0.77802 0.7152 0.0
O745 O 0.36272 0.77479 0.70382 0.0
O746 O 0.34551 0.75367 0.66746 0.0
O747 O 0.31811 0.75931 0.67809 0.0
H748 H 0.32289 0.80741 0.70297 0.0
H749 H 0.32341 0.84039 0.69902 0.0
H750 H 0.38136 0.84105 0.70955 0.0
H751 H 0.38083 0.80787 0.71375 0.0
H752 H 0.31339 0.66884 0.72949 0.0
H753 H 0.32415 0.6997 0.73633 0.0
H754 H 0.33392 0.67402 0.67449 0.0
H755 H 0.34399 0.70504 0.68126 0.0
H756 H 0.32715 0.70277 0.62805 0.0
H757 H 0.28183 0.74014 0.624 0.0
H758 H 0.29633 0.76016 0.64621 0.0
H759 H 0.34139 0.72271 0.65091 0.0
C760 C 0.39511 0.20659 0.96452 0.0
C761 C 0.40798 0.19458 0.97197 0.0
C762 C 0.39167 0.16866 0.95893 0.0
C763 C 0.40626 0.17579 0.96923 0.0
C764 C 0.37843 0.18073 0.95207 0.0
C765 C 0.38018 0.19956 0.95481 0.0
U766 U 0.42669 0.24536 0.97609 0.0
O767 O 0.43479 0.26952 0.96045 0.0
O768 O 0.42233 0.27287 0.98747 0.0
C769 C 0.42881 0.28097 0.97287 0.0
C770 C 0.39825 0.22638 0.96541 0.0
C771 C 0.41863 0.29675 0.96599 0.0
C772 C 0.39558 0.31022 0.94637 0.0
C773 C 0.40371 0.29478 0.95412 0.0
C774 C 0.4169 0.32962 0.9627 0.0
C775 C 0.40228 0.32783 0.95035 0.0
C776 C 0.42496 0.31424 0.97042 0.0
C777 C 0.47349 0.23503 0.99457 0.0
C778 C 0.49809 0.25696 0.99126 0.0
C779 C 0.50191 0.23091 0.01118 0.0
C780 C 0.48423 0.22502 0.00682 0.0
C781 C 0.50908 0.24675 0.00314 0.0
C782 C 0.48041 0.25123 0.98711 0.0
C783 C 0.45531 0.22845 0.98915 0.0
O784 O 0.39975 0.23336 0.9819 0.0
O785 O 0.41088 0.23225 0.95418 0.0
O786 O 0.45177 0.22978 0.97163 0.0
O787 O 0.44175 0.23391 0.99948 0.0
H788 H 0.41966 0.19979 0.97944 0.0
H789 H 0.41657 0.16686 0.97487 0.0
H790 H 0.36714 0.1757 0.94391 0.0
H791 H 0.37021 0.20866 0.94883 0.0
H792 H 0.3842 0.30835 0.9371 0.0
H793 H 0.39865 0.28134 0.95055 0.0
H794 H 0.42263 0.34288 0.96588 0.0
H795 H 0.43655 0.31599 0.97947 0.0
H796 H 0.50322 0.26935 0.98508 0.0
H797 H 0.51016 0.22282 0.02038 0.0
H798 H 0.47904 0.21254 0.01277 0.0
H799 H 0.47225 0.25929 0.9778 0.0
C800 C 0.36502 0.59214 0.70753 0.0
C801 C 0.36214 0.584 0.69047 0.0
C802 C 0.35536 0.61367 0.67702 0.0
C803 C 0.35744 0.59463 0.67536 0.0
C804 C 0.35827 0.62173 0.69426 0.0
C805 C 0.36296 0.61108 0.70935 0.0
U806 U 0.36575 0.58245 0.7586 0.0
O807 O 0.36349 0.6107 0.76818 0.0
O808 O 0.33913 0.59326 0.76736 0.0
C809 C 0.34634 0.60873 0.77302 0.0
C810 C 0.37053 0.58082 0.72318 0.0
C811 C 0.34173 0.61447 0.79185 0.0
C812 C 0.31922 0.61848 0.81592 0.0
C813 C 0.32383 0.61242 0.7984 0.0
C814 C 0.35031 0.62868 0.82065 0.0
C815 C 0.33237 0.62693 0.82707 0.0
C816 C 0.35496 0.62252 0.80327 0.0
C817 C 0.39312 0.54275 0.7782 0.0
C818 C 0.41423 0.52104 0.7915 0.0
C819 C 0.40743 0.51981 0.75915 0.0
C820 C 0.39568 0.53466 0.76105 0.0
C821 C 0.41693 0.51286 0.77433 0.0
C822 C 0.40243 0.53586 0.79339 0.0
C823 C 0.38113 0.55859 0.78037 0.0
O824 O 0.38232 0.58838 0.73445 0.0
O825 O 0.35732 0.57209 0.73157 0.0
O826 O 0.3645 0.5567 0.77386 0.0
O827 O 0.38856 0.57439 0.77636 0.0
H828 H 0.36371 0.56941 0.68877 0.0
H829 H 0.35583 0.58791 0.6623 0.0
H830 H 0.35659 0.63624 0.69626 0.0
H831 H 0.36492 0.61766 0.72246 0.0
H832 H 0.30527 0.61705 0.82054 0.0
H833 H 0.31335 0.60635 0.78987 0.0
H834 H 0.36076 0.63494 0.82909 0.0
H835 H 0.36889 0.62429 0.79876 0.0
H836 H 0.42147 0.51621 0.80343 0.0
H837 H 0.40894 0.51366 0.74579 0.0
H838 H 0.38861 0.53985 0.74916 0.0
H839 H 0.40068 0.54204 0.80671 0.0
C840 C 0.10165 0.61972 0.32121 0.0
C841 C 0.08997 0.61536 0.33573 0.0
C842 C 0.11404 0.6224 0.35784 0.0
C843 C 0.09609 0.61667 0.35383 0.0
C844 C 0.12562 0.62673 0.3432 0.0
C845 C 0.11957 0.62531 0.32521 0.0
U846 U 0.07964 0.63904 0.27792 0.0
O847 O 0.09123 0.6369 0.2506 0.0
O848 O 0.06344 0.62672 0.25547 0.0
C849 C 0.07634 0.62989 0.24343 0.0
C850 C 0.09573 0.61795 0.30191 0.0
C851 C 0.071 0.63752 0.22564 0.0
C852 C 0.06483 0.63144 0.19361 0.0
C853 C 0.06562 0.62551 0.21171 0.0
C854 C 0.07353 0.66184 0.20331 0.0
C855 C 0.06953 0.64948 0.18912 0.0
C856 C 0.07423 0.65592 0.22144 0.0
C857 C 0.05989 0.68832 0.28333 0.0
C858 C 0.06162 0.71801 0.26875 0.0
C859 C 0.03765 0.71177 0.29052 0.0
C860 C 0.0442 0.69404 0.29262 0.0
C861 C 0.0467 0.72418 0.27907 0.0
C862 C 0.0682 0.70025 0.27087 0.0
C863 C 0.06869 0.6712 0.28907 0.0
O864 O 0.07809 0.61717 0.29856 0.0
O865 O 0.10457 0.62829 0.2903 0.0
O866 O 0.08535 0.668 0.28327 0.0
O867 O 0.05834 0.65657 0.28955 0.0
H868 H 0.07614 0.61078 0.33314 0.0
H869 H 0.0868 0.61284 0.3646 0.0
H870 H 0.13943 0.63138 0.34552 0.0
H871 H 0.12904 0.62861 0.3144 0.0
H872 H 0.06182 0.62154 0.18303 0.0
H873 H 0.06319 0.61124 0.21467 0.0
H874 H 0.07695 0.67589 0.2003 0.0
H875 H 0.07836 0.66545 0.23199 0.0
H876 H 0.06871 0.72718 0.25961 0.0
H877 H 0.02625 0.71607 0.29883 0.0
H878 H 0.03762 0.68515 0.30238 0.0
H879 H 0.08028 0.6962 0.26345 0.0
C880 C 0.70491 0.34971 0.80823 0.0
C881 C 0.69733 0.33408 0.81632 0.0
C882 C 0.701 0.34763 0.84645 0.0
C883 C 0.6955 0.33303 0.83525 0.0
C884 C 0.70771 0.36361 0.83829 0.0
C885 C 0.70976 0.36458 0.81934 0.0
U886 U 0.69396 0.34117 0.75746 0.0
O887 O 0.7027 0.35637 0.73313 0.0
O888 O 0.71242 0.32843 0.73763 0.0
C889 C 0.71188 0.34245 0.72653 0.0
C890 C 0.7094 0.35008 0.7886 0.0
C891 C 0.70911 0.33793 0.70714 0.0
C892 C 0.72118 0.32472 0.67924 0.0
C893 C 0.72324 0.32927 0.69765 0.0
C894 C 0.6907 0.33741 0.67954 0.0
C895 C 0.70487 0.32868 0.67 0.0
C896 C 0.69281 0.34203 0.69795 0.0
C897 C 0.64672 0.32232 0.74394 0.0
C898 C 0.6382 0.31302 0.71324 0.0
C899 C 0.61684 0.30921 0.7381 0.0
C900 C 0.62953 0.31686 0.75016 0.0
C901 C 0.62109 0.30692 0.71953 0.0
C902 C 0.65094 0.32056 0.72538 0.0
C903 C 0.66017 0.32917 0.75721 0.0
O904 O 0.71132 0.3341 0.78072 0.0
O905 O 0.70058 0.36191 0.77844 0.0
O906 O 0.66448 0.34652 0.75585 0.0
O907 O 0.67434 0.31861 0.76007 0.0
H908 H 0.69333 0.32245 0.8081 0.0
H909 H 0.69004 0.32065 0.84119 0.0
H910 H 0.7121 0.37504 0.84662 0.0
H911 H 0.71567 0.37674 0.81339 0.0
H912 H 0.73227 0.31791 0.67231 0.0
H913 H 0.73593 0.32601 0.70451 0.0
H914 H 0.67807 0.34091 0.67271 0.0
H915 H 0.68176 0.34884 0.70494 0.0
H916 H 0.64186 0.31168 0.699 0.0
H917 H 0.60398 0.30443 0.74353 0.0
H918 H 0.62607 0.31809 0.76447 0.0
H919 H 0.66419 0.32468 0.72039 0.0
C920 C 0.97177 0.38767 0.2013 0.0
C921 C 0.97923 0.39962 0.18839 0.0
C922 C 0.96707 0.38087 0.16372 0.0
C923 C 0.97692 0.39624 0.16975 0.0
C924 C 0.9602 0.36859 0.17675 0.0
C925 C 0.9625 0.37201 0.1954 0.0
U926 U 0.98343 0.42129 0.23866 0.0
O927 O 0.96704 0.43114 0.26167 0.0
O928 O 0.99323 0.41765 0.26683 0.0
C929 C 0.97842 0.42474 0.27395 0.0
C930 C 0.97221 0.39235 0.22078 0.0
C931 C 0.96994 0.41443 0.28882 0.0
C932 C 0.9533 0.38809 0.30003 0.0
C933 C 0.96224 0.39715 0.28583 0.0
C934 C 0.95992 0.41343 0.3203 0.0
C935 C 0.95189 0.39621 0.3174 0.0
C936 C 0.96886 0.42242 0.30613 0.0
C937 C 0.00475 0.46666 0.2272 0.0
C938 C 1.00112 0.49309 0.24683 0.0
C939 C 0.02523 0.49261 0.22429 0.0
C940 C 0.01963 0.47518 0.21873 0.0
C941 C 0.01584 0.5018 0.23822 0.0
C942 C 0.99571 0.47565 0.24146 0.0
C943 C 0.99864 0.44848 0.22121 0.0
O944 O 0.98851 0.39357 0.22824 0.0
O945 O 0.96143 0.40588 0.22529 0.0
O946 O 0.98092 0.44582 0.2218 0.0
O947 O 0.00803 0.43469 0.22771 0.0
H948 H 0.98638 0.41184 0.19274 0.0
H949 H 0.98256 0.40583 0.16006 0.0
H950 H 0.95236 0.35675 0.17258 0.0
H951 H 0.95654 0.36273 0.20521 0.0
H952 H 0.94744 0.37477 0.29739 0.0
H953 H 0.96296 0.39081 0.27248 0.0
H954 H 0.95884 0.42022 0.33339 0.0
H955 H 0.97464 0.43582 0.30861 0.0
H956 H 0.99385 0.49977 0.25781 0.0
H957 H 0.03663 0.49906 0.21747 0.0
H958 H 0.02684 0.46838 0.20779 0.0
H959 H 0.98437 0.46923 0.2484 0.0
C960 C 0.2691 0.51477 0.59301 0.0
C961 C 0.28 0.50918 0.57829 0.0
C962 C 0.27333 0.50938 0.61077 0.0
C963 C 0.28852 0.49826 0.61419 0.0
C964 C 0.29865 0.4916 0.59938 0.0
C965 C 0.29445 0.49705 0.58159 0.0
C966 C 0.29527 0.49582 0.63311 0.0
C967 C 0.30149 0.47888 0.63935 0.0
C968 C 0.30979 0.47722 0.65664 0.0
C969 C 0.31186 0.49288 0.66768 0.0
C970 C 0.3059 0.50993 0.66137 0.0
C971 C 0.29735 0.51116 0.6443 0.0
C972 C 0.30981 0.52703 0.67141 0.0
C973 C 0.30307 0.5301 0.68906 0.0
C974 C 0.31873 0.54125 0.66225 0.0
C975 C 0.31985 0.55854 0.67 0.0
C976 C 0.31208 0.56207 0.68713 0.0
C977 C 0.31787 0.45945 0.66201 0.0
C978 C 0.30864 0.44306 0.65814 0.0
C979 C 0.33571 0.45862 0.66903 0.0
C980 C 0.34455 0.44185 0.67088 0.0
C981 C 0.33574 0.42556 0.66574 0.0
C982 C 0.31748 0.42632 0.65993 0.0
C983 C 0.30422 0.54755 0.6969 0.0
H984 H 0.25795 0.5242 0.59097 0.0
H985 H 0.26523 0.5146 0.62194 0.0
H986 H 0.31051 0.48311 0.60162 0.0
H987 H 0.30295 0.49233 0.57049 0.0
H988 H 0.30046 0.46712 0.63042 0.0
H989 H 0.29308 0.5244 0.63933 0.0
H990 H 0.31864 0.49195 0.6808 0.0
H991 H 0.29612 0.5193 0.69634 0.0
H992 H 0.32428 0.53913 0.64872 0.0
H993 H 0.3264 0.56932 0.66233 0.0
H994 H 0.29478 0.44323 0.65299 0.0
H995 H 0.34324 0.47098 0.67209 0.0
H996 H 0.29822 0.54988 0.71018 0.0
H997 H 0.31026 0.41406 0.65585 0.0
H998 H 0.35853 0.44168 0.67568 0.0
C999 C 0.36026 0.43716 0.77199 0.0
C1000 C 0.34274 0.43989 0.7647 0.0
C1001 C 0.36563 0.44603 0.78799 0.0
C1002 C 0.35366 0.45793 0.79697 0.0
C1003 C 0.3368 0.462 0.78884 0.0
C1004 C 0.33136 0.45303 0.77281 0.0
C1005 C 0.35753 0.46341 0.81605 0.0
C1006 C 0.35754 0.48174 0.82161 0.0
C1007 C 0.36147 0.48651 0.83991 0.0
C1008 C 0.36468 0.47239 0.85263 0.0
C1009 C 0.36381 0.45397 0.84733 0.0
C1010 C 0.36065 0.44973 0.82895 0.0
C1011 C 0.366 0.43889 0.86072 0.0
C1012 C 0.37985 0.43929 0.87403 0.0
C1013 C 0.35469 0.42341 0.85955 0.0
C1014 C 0.35773 0.40831 0.87067 0.0
C1015 C 0.37206 0.40836 0.8834 0.0
C1016 C 0.36234 0.5061 0.84572 0.0
C1017 C 0.36839 0.51972 0.83362 0.0
C1018 C 0.35744 0.51139 0.86353 0.0
C1019 C 0.35911 0.52955 0.86923 0.0
C1020 C 0.36526 0.54313 0.85717 0.0
C1021 C 0.36958 0.53795 0.83918 0.0
C1022 C 0.38283 0.42416 0.8853 0.0
H1023 H 0.36947 0.4274 0.76586 0.0
H1024 H 0.37877 0.4428 0.79395 0.0
H1025 H 0.32731 0.47105 0.79559 0.0
H1026 H 0.31775 0.45538 0.76758 0.0
H1027 H 0.35452 0.49216 0.81162 0.0
H1028 H 0.36041 0.43558 0.82461 0.0
H1029 H 0.36777 0.47562 0.86672 0.0
H1030 H 0.38884 0.45097 0.87524 0.0
H1031 H 0.34359 0.42282 0.84977 0.0
H1032 H 0.349 0.39646 0.86915 0.0
H1033 H 0.37254 0.51634 0.81987 0.0
H1034 H 0.3523 0.50154 0.8732 0.0
H1035 H 0.39403 0.42454 0.89496 0.0
H1036 H 0.37393 0.54795 0.82927 0.0
H1037 H 0.35584 0.53277 0.88325 0.0
C1038 C 0.69142 0.99077 0.41079 0.0
C1039 C 0.70725 0.98077 0.41484 0.0
C1040 C 0.68381 0.99021 0.3933 0.0
C1041 C 0.69177 0.97951 0.37958 0.0
C1042 C 0.70755 0.9695 0.38363 0.0
C1043 C 0.71528 0.97018 0.40107 0.0
C1044 C 0.68347 0.97861 0.36114 0.0
C1045 C 0.67823 0.99457 0.35219 0.0
C1046 C 0.6698 0.99386 0.33498 0.0
C1047 C 0.66661 0.97682 0.32665 0.0
C1048 C 0.67144 0.96053 0.33566 0.0
C1049 C 0.68017 0.96175 0.35277 0.0
C1050 C 0.66631 0.9422 0.3282 0.0
C1051 C 0.64982 0.93954 0.31869 0.0
C1052 C 0.67698 0.9268 0.33219 0.0
C1053 C 0.67064 0.90926 0.32838 0.0
C1054 C 0.65345 0.90644 0.32025 0.0
C1055 C 0.66417 0.01117 0.32623 0.0
C1056 C 0.65492 0.02437 0.33654 0.0
C1057 C 0.66936 0.01534 0.30829 0.0
C1058 C 0.66628 0.0328 0.30121 0.0
C1059 C 0.6578 0.04632 0.3119 0.0
C1060 C 0.65178 0.04172 0.32948 0.0
C1061 C 0.64357 0.92193 0.31461 0.0
H1062 H 0.68504 0.99919 0.42109 0.0
H1063 H 0.67155 0.99796 0.39058 0.0
H1064 H 0.71398 0.96127 0.37326 0.0
H1065 H 0.72742 0.96224 0.40384 0.0
H1066 H 0.68095 0.00766 0.35857 0.0
H1067 H 0.68382 0.94955 0.36011 0.0
H1068 H 0.66011 0.97633 0.31337 0.0
H1069 H 0.64116 0.95096 0.31527 0.0
H1070 H 0.68995 0.92812 0.33912 0.0
H1071 H 0.67892 0.898 0.33299 0.0
H1072 H 0.65061 0.02145 0.35035 0.0
H1073 H 0.67654 0.00539 0.30007 0.0
H1074 H 0.63062 0.92056 0.30764 0.0
H1075 H 0.64538 0.05179 0.33818 0.0
H1076 H 0.67089 0.03586 0.28754 0.0
C1077 C 0.67084 0.97528 0.17884 0.0
C1078 C 0.66415 0.98491 0.19402 0.0
C1079 C 0.66634 0.98056 0.16112 0.0
C1080 C 0.65459 0.99535 0.15797 0.0
C1081 C 0.64774 0.00494 0.17313 0.0
C1082 C 0.65256 0.99987 0.1909 0.0
C1083 C 0.64944 1.00051 0.13893 0.0
C1084 C 0.64742 0.98701 0.12544 0.0
C1085 C 0.64313 0.99152 0.10731 0.0
C1086 C 0.64031 0.0099 0.10271 0.0
C1087 C 0.64182 0.02358 0.11611 0.0
C1088 C 0.64653 0.0188 0.13408 0.0
C1089 C 0.63821 0.04295 0.11171 0.0
C1090 C 0.64785 0.05193 0.09785 0.0
C1091 C 0.62571 0.05284 0.12223 0.0
C1092 C 0.62328 0.07147 0.11938 0.0
C1093 C 0.63357 0.08081 0.10615 0.0
C1094 C 0.64108 0.97664 0.09366 0.0
C1095 C 0.65371 0.96227 0.09333 0.0
C1096 C 0.62566 0.97565 0.08228 0.0
C1097 C 0.62236 0.96004 0.0717 0.0
C1098 C 0.63446 0.94516 0.07226 0.0
C1099 C 0.65044 0.94672 0.0828 0.0
C1100 C 0.64564 0.07073 0.09515 0.0
H1101 H 0.67948 0.96346 0.18054 0.0
H1102 H 0.67222 0.973 0.14989 0.0
H1103 H 0.63847 0.01625 0.17133 0.0
H1104 H 0.64729 0.0078 0.20217 0.0
H1105 H 0.64874 0.97278 0.12911 0.0
H1106 H 0.64825 0.02948 0.14419 0.0
H1107 H 0.63676 0.01354 0.08882 0.0
H1108 H 0.65763 0.04457 0.0896 0.0
H1109 H 0.61792 0.04614 0.13283 0.0
H1110 H 0.61346 0.0786 0.12775 0.0
H1111 H 0.66584 0.96276 0.10179 0.0
H1112 H 0.61568 0.9865 0.08227 0.0
H1113 H 0.65387 0.07744 0.08492 0.0
H1114 H 0.66 0.93553 0.08374 0.0
H1115 H 0.61006 0.95939 0.06352 0.0
C1116 C 0.58059 0.26799 0.49424 0.0
C1117 C 0.56898 0.27631 0.50706 0.0
C1118 C 0.59769 0.27563 0.49031 0.0
C1119 C 0.60344 0.29157 0.4993 0.0
C1120 C 0.59148 0.30035 0.51134 0.0
C1121 C 0.57449 0.29283 0.51518 0.0
C1122 C 0.62245 0.29817 0.498 0.0
C1123 C 0.63007 0.3036 0.48137 0.0
C1124 C 0.64746 0.3119 0.48089 0.0
C1125 C 0.65733 0.31418 0.49733 0.0
C1126 C 0.64969 0.3087 0.51398 0.0
C1127 C 0.63245 0.30051 0.51409 0.0
C1128 C 0.65857 0.31256 0.53172 0.0
C1129 C 0.67572 0.30531 0.53616 0.0
C1130 C 0.64852 0.3216 0.54524 0.0
C1131 C 0.65476 0.32216 0.56316 0.0
C1132 C 0.67125 0.31378 0.56799 0.0
C1133 C 0.65416 0.31998 0.46356 0.0
C1134 C 0.65159 0.31086 0.44685 0.0
C1135 C 0.66156 0.33769 0.46342 0.0
C1136 C 0.66537 0.34643 0.44695 0.0
C1137 C 0.66187 0.33767 0.4302 0.0
C1138 C 0.65541 0.3196 0.43036 0.0
C1139 C 0.68207 0.30596 0.55424 0.0
H1140 H 0.57668 0.25534 0.48765 0.0
H1141 H 0.60675 0.26864 0.481 0.0
H1142 H 0.59562 0.3127 0.51838 0.0
H1143 H 0.5661 0.2995 0.52532 0.0
H1144 H 0.62197 0.30241 0.46903 0.0
H1145 H 0.62651 0.29629 0.52696 0.0
H1146 H 0.67057 0.32079 0.49727 0.0
H1147 H 0.68367 0.29824 0.52593 0.0
H1148 H 0.63536 0.32751 0.54209 0.0
H1149 H 0.64633 0.32862 0.5734 0.0
H1150 H 0.64616 0.29711 0.44652 0.0
H1151 H 0.66348 0.34522 0.47601 0.0
H1152 H 0.6949 0.2995 0.55763 0.0
H1153 H 0.65288 0.31236 0.41771 0.0
H1154 H 0.67012 0.36042 0.44734 0.0
C1155 C 0.16476 0.69106 0.9832 0.0
C1156 C 0.17884 0.68027 0.99049 0.0
C1157 C 0.14658 0.68771 0.98776 0.0
C1158 C 0.14203 0.67366 0.99991 0.0
C1159 C 0.15606 0.66319 0.00764 0.0
C1160 C 0.17426 0.66639 0.00291 0.0
C1161 C 0.12264 0.66937 0.00371 0.0
C1162 C 0.11029 0.66755 0.98921 0.0
C1163 C 0.09198 0.66296 0.99233 0.0
C1164 C 0.08601 0.66016 0.01031 0.0
C1165 C 0.09812 0.66228 0.02517 0.0
C1166 C 0.11647 0.66683 0.02163 0.0
C1167 C 0.09168 0.66002 0.04435 0.0
C1168 C 0.07415 0.66581 0.04961 0.0
C1169 C 0.1032 0.65245 0.05771 0.0
C1170 C 0.09758 0.65115 0.07585 0.0
C1171 C 0.08018 0.6571 0.08107 0.0
C1172 C 0.07946 0.66076 0.97653 0.0
C1173 C 0.07951 0.67374 0.96247 0.0
C1174 C 0.06856 0.64509 0.97463 0.0
C1175 C 0.05865 0.64202 0.95854 0.0
C1176 C 0.05934 0.65467 0.94414 0.0
C1177 C 0.06955 0.67075 0.94649 0.0
C1178 C 0.06842 0.66423 0.06775 0.0
H1179 H 0.16775 0.70217 0.97397 0.0
H1180 H 0.13604 0.69614 0.98178 0.0
H1181 H 0.15289 0.65214 0.0169 0.0
H1182 H 0.18469 0.65768 0.00866 0.0
H1183 H 0.1151 0.66917 0.97534 0.0
H1184 H 0.12596 0.66886 0.03281 0.0
H1185 H 0.07192 0.65637 0.01268 0.0
H1186 H 0.06497 0.67197 0.03983 0.0
H1187 H 0.11661 0.64742 0.05418 0.0
H1188 H 0.1068 0.64532 0.08581 0.0
H1189 H 0.08767 0.68603 0.96365 0.0
H1190 H 0.06833 0.63482 0.98522 0.0
H1191 H 0.05496 0.66901 0.07145 0.0
H1192 H 0.07053 0.6807 0.93563 0.0
H1193 H 0.05076 0.62958 0.9572 0.0
C1194 C 0.78283 0.32564 0.44675 0.0
C1195 C 0.78328 0.31385 0.43158 0.0
C1196 C 0.79911 0.33155 0.45502 0.0
C1197 C 0.81605 0.32569 0.44827 0.0
C1198 C 0.81634 0.31321 0.4337 0.0
C1199 C 0.8002 0.30741 0.42545 0.0
C1200 C 0.83354 0.3332 0.45542 0.0
C1201 C 0.837 0.33489 0.47425 0.0
C1202 C 0.85419 0.34083 0.48049 0.0
C1203 C 0.86776 0.34551 0.46782 0.0
C1204 C 0.86434 0.34435 0.44902 0.0
C1205 C 0.84721 0.33826 0.44301 0.0
C1206 C 0.87849 0.34948 0.4355 0.0
C1207 C 0.88873 0.36558 0.43763 0.0
C1208 C 0.88123 0.3387 0.41987 0.0
C1209 C 0.89346 0.34419 0.40638 0.0
C1210 C 0.90324 0.3606 0.40818 0.0
C1211 C 0.85847 0.34165 0.50021 0.0
C1212 C 0.84916 0.35367 0.51178 0.0
C1213 C 0.87278 0.33116 0.50728 0.0
C1214 C 0.87797 0.33289 0.52555 0.0
C1215 C 0.86925 0.34549 0.53712 0.0
C1216 C 0.85458 0.35569 0.53002 0.0
C1217 C 0.90096 0.37109 0.4241 0.0
H1218 H 0.76996 0.33077 0.45179 0.0
H1219 H 0.79846 0.34119 0.46622 0.0
H1220 H 0.82915 0.30807 0.42848 0.0
H1221 H 0.80098 0.29793 0.41413 0.0
H1222 H 0.82665 0.33092 0.48401 0.0
H1223 H 0.84438 0.33768 0.42849 0.0
H1224 H 0.88104 0.34996 0.47266 0.0
H1225 H 0.8868 0.37424 0.44945 0.0
H1226 H 0.8738 0.32605 0.418 0.0
H1227 H 0.89517 0.33561 0.39447 0.0
H1228 H 0.83815 0.36198 0.50654 0.0
H1229 H 0.88005 0.3217 0.49859 0.0
H1230 H 0.90815 0.3839 0.42583 0.0
H1231 H 0.84763 0.36569 0.53834 0.0
H1232 H 0.88894 0.32439 0.53054 0.0
C1233 C 0.40959 0.70305 0.99684 0.0
C1234 C 0.40958 0.71894 0.9862 0.0
C1235 C 0.39352 0.69321 0.9995 0.0
C1236 C 0.37716 0.69892 0.99137 0.0
C1237 C 0.37717 0.71465 0.98044 0.0
C1238 C 0.39323 0.72471 0.97805 0.0
C1239 C 0.36023 0.68831 0.99433 0.0
C1240 C 0.35501 0.6834 0.01202 0.0
C1241 C 0.33948 0.67252 0.01508 0.0
C1242 C 0.32957 0.66586 0.99994 0.0
C1243 C 0.33465 0.67084 0.98214 0.0
C1244 C 0.34977 0.68233 0.9795 0.0
C1245 C 0.325 0.66364 0.96592 0.0
C1246 C 0.32484 0.64487 0.96218 0.0
C1247 C 0.31844 0.67576 0.95271 0.0
C1248 C 0.31292 0.66938 0.93563 0.0
C1249 C 0.31419 0.65078 0.9312 0.0
C1250 C 0.33403 0.66829 0.03416 0.0
C1251 C 0.33545 0.68187 0.04769 0.0
C1252 C 0.32844 0.65067 0.0393 0.0
C1253 C 0.32521 0.64656 0.0577 0.0
C1254 C 0.32764 0.65997 0.07124 0.0
C1255 C 0.33241 0.67773 0.06598 0.0
C1256 C 0.31954 0.63847 0.94493 0.0
H1257 H 0.42199 0.69841 0.00341 0.0
H1258 H 0.3939 0.68103 0.00783 0.0
H1259 H 0.36469 0.7193 0.97404 0.0
H1260 H 0.39293 0.73692 0.96977 0.0
H1261 H 0.36321 0.68803 0.02347 0.0
H1262 H 0.35389 0.68595 0.96579 0.0
H1263 H 0.31775 0.65722 1.00196 0.0
H1264 H 0.33004 0.63528 0.97213 0.0
H1265 H 0.31848 0.69028 0.95535 0.0
H1266 H 0.30858 0.67913 0.92551 0.0
H1267 H 0.33922 0.6957 0.04417 0.0
H1268 H 0.32727 0.63989 0.02924 0.0
H1269 H 0.32088 0.62406 0.94202 0.0
H1270 H 0.334 0.68843 0.07608 0.0
H1271 H 0.32153 0.63275 0.06142 0.0
C1272 C 0.52196 0.59819 0.2864 0.0
C1273 C 0.53989 0.59504 0.29254 0.0
C1274 C 0.51287 0.61431 0.29112 0.0
C1275 C 0.5216 0.6275 0.30199 0.0
C1276 C 0.53913 0.6239 0.30884 0.0
C1277 C 0.54816 0.60787 0.30419 0.0
C1278 C 0.51335 0.64566 0.30511 0.0
C1279 C 0.49553 0.64764 0.31166 0.0
C1280 C 0.48866 0.66505 0.31603 0.0
C1281 C 0.49979 0.68057 0.31351 0.0
C1282 C 0.51733 0.67869 0.30608 0.0
C1283 C 0.52393 0.66124 0.30205 0.0
C1284 C 0.52985 0.6943 0.30336 0.0
C1285 C 0.53899 0.69595 0.28661 0.0
C1286 C 0.53602 0.70452 0.31839 0.0
C1287 C 0.55231 0.71449 0.31722 0.0
C1288 C 0.56259 0.7142 0.30106 0.0
C1289 C 0.4701 0.66667 0.32384 0.0
C1290 C 0.45526 0.65791 0.31536 0.0
C1291 C 0.46731 0.67582 0.34046 0.0
C1292 C 0.45017 0.6755 0.34883 0.0
C1293 C 0.43544 0.66631 0.34056 0.0
C1294 C 0.43808 0.65786 0.32355 0.0
C1295 C 0.55529 0.70571 0.2855 0.0
H1296 H 0.51524 0.58856 0.27738 0.0
H1297 H 0.49937 0.61681 0.28564 0.0
H1298 H 0.54604 0.63371 0.31753 0.0
H1299 H 0.56175 0.60563 0.30954 0.0
H1300 H 0.48729 0.6356 0.31411 0.0
H1301 H 0.53767 0.65973 0.29681 0.0
H1302 H 0.49473 0.694 0.317 0.0
H1303 H 0.53443 0.68822 0.27482 0.0
H1304 H 0.5293 0.70335 0.33147 0.0
H1305 H 0.55771 0.72092 0.32941 0.0
H1306 H 0.45705 0.65081 0.30251 0.0
H1307 H 0.47856 0.68258 0.34732 0.0
H1308 H 0.56295 0.70537 0.27289 0.0
H1309 H 0.42702 0.65056 0.31693 0.0
H1310 H 0.44848 0.68219 0.3619 0.0
C1311 C 0.98842 0.17093 0.67989 0.0
C1312 C 0.99365 0.18473 0.66768 0.0
C1313 C 0.99321 0.15281 0.6767 0.0
C1314 C 0.00349 0.14802 0.6613 0.0
C1315 C 0.0094 0.16183 0.64943 0.0
C1316 C 0.00448 0.18002 0.65256 0.0
C1317 C 0.00699 0.12852 0.65721 0.0
C1318 C 0.9926 0.11596 0.65821 0.0
C1319 C 0.99536 0.09742 0.65453 0.0
C1320 C 0.0129 0.09127 0.65001 0.0
C1321 C 0.0276 0.10366 0.64914 0.0
C1322 C 0.02445 0.12232 0.65249 0.0
C1323 C 0.04641 0.09718 0.64551 0.0
C1324 C 0.05381 0.0827 0.65561 0.0
C1325 C 0.05745 0.10615 0.63271 0.0
C1326 C 0.07563 0.10098 0.6303 0.0
C1327 C 0.08322 0.08691 0.64084 0.0
C1328 C 0.97945 0.08499 0.65508 0.0
C1329 C 0.96851 0.08444 0.67073 0.0
C1330 C 0.97352 0.07597 0.63922 0.0
C1331 C 0.95625 0.06776 0.63863 0.0
C1332 C 0.9447 0.06836 0.65394 0.0
C1333 C 0.95139 0.0761 0.67022 0.0
C1334 C 0.07208 0.07772 0.65341 0.0
H1335 H 0.98053 0.1741 0.69195 0.0
H1336 H 0.98874 0.14248 0.68624 0.0
H1337 H 0.01726 0.15848 0.6374 0.0
H1338 H 0.00868 0.19029 0.64284 0.0
H1339 H 0.97899 0.12073 0.66144 0.0
H1340 H 0.03571 0.13191 0.65207 0.0
H1341 H 0.01509 0.07691 0.64726 0.0
H1342 H 0.04563 0.07565 0.66567 0.0
H1343 H 0.05207 0.11731 0.6247 0.0
H1344 H 0.08393 0.1084 0.62061 0.0
H1345 H 0.97287 0.09124 0.68315 0.0
H1346 H 0.98169 0.07637 0.62694 0.0
H1347 H 0.07757 0.06678 0.66166 0.0
H1348 H 0.94306 0.07641 0.68239 0.0
H1349 H 0.95152 0.06199 0.62584 0.0
C1350 C 0.44692 0.78918 0.34073 0.0
C1351 C 0.43346 0.78956 0.32703 0.0
C1352 C 0.45478 0.80542 0.34715 0.0
C1353 C 0.44909 0.82232 0.34017 0.0
C1354 C 0.43598 0.82264 0.32618 0.0
C1355 C 0.4283 0.80646 0.31965 0.0
C1356 C 0.45567 0.83968 0.3483 0.0
C1357 C 0.47435 0.84306 0.35094 0.0
C1358 C 0.48045 0.85951 0.35898 0.0
C1359 C 0.46733 0.87249 0.36441 0.0
C1360 C 0.44862 0.86942 0.36145 0.0
C1361 C 0.44298 0.85294 0.35351 0.0
C1362 C 0.43476 0.88324 0.36665 0.0
C1363 C 0.43566 0.89227 0.38356 0.0
C1364 C 0.42002 0.88694 0.35492 0.0
C1365 C 0.40623 0.89892 0.36018 0.0
C1366 C 0.40683 0.90755 0.3773 0.0
C1367 C 0.50042 0.86321 0.36148 0.0
C1368 C 0.51277 0.8489 0.36469 0.0
C1369 C 0.50738 0.88111 0.3606 0.0
C1370 C 0.52597 0.88461 0.36319 0.0
C1371 C 0.53833 0.87028 0.36626 0.0
C1372 C 0.53143 0.85234 0.36677 0.0
C1373 C 0.42184 0.90429 0.38884 0.0
H1374 H 0.45124 0.77634 0.34659 0.0
H1375 H 0.46479 0.80483 0.35803 0.0
H1376 H 0.43142 0.83547 0.3205 0.0
H1377 H 0.41783 0.80725 0.30923 0.0
H1378 H 0.48404 0.833 0.34623 0.0
H1379 H 0.42855 0.85019 0.35175 0.0
H1380 H 0.4716 0.88508 0.37089 0.0
H1381 H 0.44674 0.88959 0.39298 0.0
H1382 H 0.41911 0.88047 0.34164 0.0
H1383 H 0.39506 0.90141 0.35082 0.0
H1384 H 0.50809 0.83493 0.36577 0.0
H1385 H 0.49854 0.89255 0.35776 0.0
H1386 H 0.42262 0.91059 0.40219 0.0
H1387 H 0.54041 0.84081 0.36869 0.0
H1388 H 0.53055 0.89864 0.36296 0.0
C1389 C 0.99395 0.40572 0.69062 0.0
C1390 C 0.98307 0.40649 0.70636 0.0
C1391 C 0.99422 0.39011 0.67977 0.0
C1392 C 0.98356 0.37486 0.68428 0.0
C1393 C 0.97214 0.37578 0.69963 0.0
C1394 C 0.97191 0.39146 0.71061 0.0
C1395 C 0.9847 0.35807 0.673 0.0
C1396 C 1.00173 0.3518 0.66703 0.0
C1397 C 0.00316 0.3366 0.65541 0.0
C1398 C 0.98717 0.32752 0.6498 0.0
C1399 C 0.97007 0.33355 0.65589 0.0
C1400 C 0.96892 0.34867 0.6676 0.0
C1401 C 0.9531 0.32478 0.64956 0.0
C1402 C 0.94678 0.32768 0.63177 0.0
C1403 C 0.94208 0.31544 0.66197 0.0
C1404 C 0.92456 0.30984 0.65696 0.0
C1405 C 0.91741 0.31406 0.6396 0.0
C1406 C 0.02148 0.33048 0.64941 0.0
C1407 C 0.03461 0.34339 0.64409 0.0
C1408 C 0.02646 0.312 0.65025 0.0
C1409 C 0.04447 0.30671 0.64677 0.0
C1410 C 0.0578 0.31982 0.64238 0.0
C1411 C 0.05254 0.33813 0.64063 0.0
C1412 C 0.92911 0.32238 0.62681 0.0
H1413 H 1.00229 0.41724 0.68664 0.0
H1414 H 0.0028 0.39 0.66776 0.0
H1415 H 0.96377 0.36423 0.70341 0.0
H1416 H 0.96339 0.39162 0.72265 0.0
H1417 H 0.01401 0.35867 0.67167 0.0
H1418 H 0.95564 0.35351 0.67191 0.0
H1419 H 0.98799 0.31594 0.64062 0.0
H1420 H 0.95513 0.33497 0.62202 0.0
H1421 H 0.94687 0.31307 0.67573 0.0
H1422 H 0.91642 0.30278 0.667 0.0
H1423 H 0.03109 0.35768 0.64295 0.0
H1424 H 0.01665 0.30176 0.6544 0.0
H1425 H 0.92443 0.32581 0.61327 0.0
H1426 H 0.06238 0.34849 0.63686 0.0
H1427 H 0.04812 0.2925 0.6483 0.0
C1428 C 0.7199 0.49836 0.42569 0.0
C1429 C 0.73642 0.48881 0.42734 0.0
C1430 C 0.71331 0.5034 0.40852 0.0
C1431 C 0.72308 0.49887 0.3927 0.0
C1432 C 0.74033 0.49076 0.39449 0.0
C1433 C 0.74696 0.48581 0.41165 0.0
C1434 C 0.71388 0.49938 0.37468 0.0
C1435 C 0.70376 0.51454 0.36905 0.0
C1436 C 0.69286 0.5137 0.35322 0.0
C1437 C 0.69192 0.49735 0.34312 0.0
C1438 C 0.70157 0.4819 0.34904 0.0
C1439 C 0.71303 0.48334 0.36434 0.0
C1440 C 0.69809 0.4635 0.34132 0.0
C1441 C 0.69934 0.45981 0.32255 0.0
C1442 C 0.69444 0.4491 0.35335 0.0
C1443 C 0.69314 0.43129 0.34704 0.0
C1444 C 0.6952 0.42727 0.32843 0.0
C1445 C 0.68112 0.52942 0.34854 0.0
C1446 C 0.66962 0.53683 0.36189 0.0
C1447 C 0.68184 0.53759 0.33124 0.0
C1448 C 0.67174 0.55341 0.32765 0.0
C1449 C 0.66055 0.56102 0.34121 0.0
C1450 C 0.65938 0.55239 0.35824 0.0
C1451 C 0.69789 0.44178 0.31613 0.0
H1452 H 0.7116 0.50106 0.43759 0.0
H1453 H 0.69992 0.50954 0.40754 0.0
H1454 H 0.74816 0.48719 0.38249 0.0
H1455 H 0.75971 0.47843 0.41246 0.0
H1456 H 0.70407 0.52689 0.37721 0.0
H1457 H 0.72032 0.47138 0.36902 0.0
H1458 H 0.68274 0.49629 0.33154 0.0
H1459 H 0.70206 0.47071 0.31299 0.0
H1460 H 0.69286 0.45159 0.36784 0.0
H1461 H 0.69044 0.42063 0.35685 0.0
H1462 H 0.66872 0.53068 0.37529 0.0
H1463 H 0.69062 0.53209 0.32074 0.0
H1464 H 0.6994 0.43916 0.30168 0.0
H1465 H 0.651 0.55805 0.369 0.0
H1466 H 0.67273 0.55976 0.31438 0.0
C1467 C 0.66783 0.5558 0.23255 0.0
C1468 C 0.65658 0.56939 0.24011 0.0
C1469 C 0.66247 0.54642 0.21674 0.0
C1470 C 0.64583 0.55052 0.20818 0.0
C1471 C 0.63387 0.56278 0.21673 0.0
C1472 C 0.63916 0.57206 0.23254 0.0
C1473 C 0.64233 0.54464 0.18909 0.0
C1474 C 0.6446 0.52644 0.18339 0.0
C1475 C 0.64224 0.52157 0.16487 0.0
C1476 C 0.63817 0.53537 0.15212 0.0
C1477 C 0.63562 0.55347 0.15772 0.0
C1478 C 0.63764 0.55793 0.17617 0.0
C1479 C 0.63076 0.56787 0.14443 0.0
C1480 C 0.64108 0.57049 0.12853 0.0
C1481 C 0.61598 0.57949 0.14795 0.0
C1482 C 0.61159 0.59346 0.13582 0.0
C1483 C 0.62202 0.59627 0.12004 0.0
C1484 C 0.64367 0.50219 0.15865 0.0
C1485 C 0.65648 0.49013 0.16636 0.0
C1486 C 0.63227 0.49566 0.14457 0.0
C1487 C 0.63403 0.47791 0.13794 0.0
C1488 C 0.64701 0.46602 0.1454 0.0
C1489 C 0.65804 0.47219 0.15987 0.0
C1490 C 0.63685 0.58469 0.11651 0.0
H1491 H 0.68136 0.55342 0.23797 0.0
H1492 H 0.67197 0.53707 0.21042 0.0
H1493 H 0.62079 0.56593 0.21061 0.0
H1494 H 0.62994 0.58203 0.2383 0.0
H1495 H 0.6478 0.51613 0.19345 0.0
H1496 H 0.6362 0.57205 0.18038 0.0
H1497 H 0.63681 0.53209 0.13776 0.0
H1498 H 0.65262 0.56179 0.12559 0.0
H1499 H 0.60778 0.57771 0.16008 0.0
H1500 H 0.60017 0.60226 0.13894 0.0
H1501 H 0.66559 0.49465 0.17711 0.0
H1502 H 0.62184 0.50425 0.13864 0.0
H1503 H 0.64504 0.58653 0.10438 0.0
H1504 H 0.66816 0.46327 0.16587 0.0
H1505 H 0.62508 0.47339 0.12703 0.0
C1506 C 0.27284 0.0161 0.62328 0.0
C1507 C 0.27913 0.02368 0.60685 0.0
C1508 C 0.28394 0.01592 0.63878 0.0
C1509 C 0.30149 0.02363 0.63834 0.0
C1510 C 0.30757 0.03184 0.62217 0.0
C1511 C 0.29655 0.03179 0.60657 0.0
C1512 C 0.31354 0.02263 0.65459 0.0
C1513 C 0.31515 0.00624 0.66428 0.0
C1514 C 0.3266 0.00493 0.67964 0.0
C1515 C 0.33631 0.02046 0.6855 0.0
C1516 C 0.33486 0.03691 0.67584 0.0
C1517 C 0.32358 0.03789 0.66037 0.0
C1518 C 0.34512 0.05326 0.68156 0.0
C1519 C 0.35837 0.06065 0.66998 0.0
C1520 C 0.34051 0.06254 0.69763 0.0
C1521 C 0.34816 0.07963 0.70144 0.0
C1522 C 0.36091 0.08743 0.68945 0.0
C1523 C 0.32901 0.98697 0.68863 0.0
C1524 C 0.31387 0.9756 0.69163 0.0
C1525 C 0.34654 0.98028 0.69252 0.0
C1526 C 0.34891 0.96226 0.69834 0.0
C1527 C 0.33379 0.9506 0.70046 0.0
C1528 C 0.31622 0.95765 0.69745 0.0
C1529 C 0.36642 0.07743 0.67407 0.0
H1530 H 0.25935 0.01012 0.62416 0.0
H1531 H 0.27877 0.00976 0.65114 0.0
H1532 H 0.32109 0.03778 0.6214 0.0
H1533 H 0.30199 0.03754 0.59412 0.0
H1534 H 0.30795 0.99425 0.65941 0.0
H1535 H 0.32235 0.05068 0.65308 0.0
H1536 H 0.34512 0.01972 0.69737 0.0
H1537 H 0.3621 0.05367 0.6575 0.0
H1538 H 0.33039 0.05698 0.70675 0.0
H1539 H 0.34377 0.08696 0.7135 0.0
H1540 H 0.30018 0.98044 0.68893 0.0
H1541 H 0.35848 0.98869 0.69026 0.0
H1542 H 0.37623 0.083 0.66467 0.0
H1543 H 0.30427 0.94906 0.6988 0.0
H1544 H 0.3626 0.95735 0.70081 0.0
C1545 C 0.35567 0.0174 0.81804 0.0
C1546 C 0.33841 0.01211 0.81158 0.0
C1547 C 0.36059 0.01423 0.83619 0.0
C1548 C 0.34847 0.00537 0.84806 0.0
C1549 C 0.33145 0.99951 0.84143 0.0
C1550 C 0.32638 0.00303 0.82338 0.0
C1551 C 0.35325 0.00308 0.86754 0.0
C1552 C 0.35815 0.01833 0.87802 0.0
C1553 C 0.36249 0.01656 0.89661 0.0
C1554 C 0.36237 0.99912 0.90457 0.0
C1555 C 0.35763 0.98368 0.89415 0.0
C1556 C 0.35277 0.98582 0.87571 0.0
C1557 C 0.35832 0.96516 0.90218 0.0
C1558 C 0.3742 0.95904 0.91095 0.0
C1559 C 0.34354 0.95313 0.90015 0.0
C1560 C 0.34476 0.93517 0.90638 0.0
C1561 C 0.36094 0.92869 0.91446 0.0
C1562 C 0.36654 0.03313 0.9076 0.0
C1563 C 0.37799 0.04681 0.9006 0.0
C1564 C 0.35794 0.03605 0.92446 0.0
C1565 C 0.36013 0.05264 0.93373 0.0
C1566 C 0.37111 0.06655 0.92639 0.0
C1567 C 0.38027 0.0633 0.90989 0.0
C1568 C 0.37556 0.94098 0.9169 0.0
H1569 H 0.36511 0.02452 0.80921 0.0
H1570 H 0.3738 0.01882 0.84102 0.0
H1571 H 0.32186 0.99273 0.85038 0.0
H1572 H 0.313 0.99882 0.81866 0.0
H1573 H 0.35799 0.03172 0.87178 0.0
H1574 H 0.34921 0.97398 0.86754 0.0
H1575 H 0.36597 0.99756 0.91883 0.0
H1576 H 0.38585 0.96803 0.91253 0.0
H1577 H 0.33107 0.95759 0.89361 0.0
H1578 H 0.33304 0.92632 0.90467 0.0
H1579 H 0.38491 0.04488 0.8877 0.0
H1580 H 0.34896 0.02579 0.93013 0.0
H1581 H 0.38833 0.93653 0.9228 0.0
H1582 H 0.38868 0.07377 0.90377 0.0
H1583 H 0.35303 0.05467 0.9465 0.0
C1584 C 0.4345 0.723 0.51365 0.0
C1585 C 0.43619 0.73613 0.49978 0.0
C1586 C 0.41739 0.71854 0.52069 0.0
C1587 C 0.40162 0.72701 0.51392 0.0
C1588 C 0.40344 0.74129 0.50133 0.0
C1589 C 0.42058 0.74589 0.49441 0.0
C1590 C 0.38357 0.7185 0.51718 0.0
C1591 C 0.37833 0.7129 0.53464 0.0
C1592 C 0.3632 0.70122 0.53715 0.0
C1593 C 0.3529 0.69575 0.52174 0.0
C1594 C 0.35803 0.70154 0.5042 0.0
C1595 C 0.37309 0.71312 0.50215 0.0
C1596 C 0.34973 0.69395 0.48739 0.0
C1597 C 0.33216 0.69903 0.48175 0.0
C1598 C 0.36093 0.68425 0.4753 0.0
C1599 C 0.35527 0.68088 0.45746 0.0
C1600 C 0.33823 0.68702 0.4513 0.0
C1601 C 0.35966 0.69341 0.55561 0.0
C1602 C 0.37447 0.68889 0.56697 0.0
C1603 C 0.34184 0.69031 0.56209 0.0
C1604 C 0.33901 0.68314 0.57964 0.0
C1605 C 0.35395 0.67921 0.59101 0.0
C1606 C 0.37165 0.68208 0.58443 0.0
C1607 C 0.32639 0.69548 0.4638 0.0
H1608 H 0.44616 0.71511 0.51806 0.0
H1609 H 0.41637 0.70735 0.53026 0.0
H1610 H 0.39149 0.74813 0.49601 0.0
H1611 H 0.42146 0.7564 0.4841 0.0
H1612 H 0.38652 0.7172 0.54621 0.0
H1613 H 0.37744 0.71688 0.48853 0.0
H1614 H 0.34174 0.68616 0.52319 0.0
H1615 H 0.3234 0.7067 0.49081 0.0
H1616 H 0.37455 0.68023 0.47938 0.0
H1617 H 0.36458 0.67407 0.44825 0.0
H1618 H 0.38839 0.69038 0.56232 0.0
H1619 H 0.33011 0.69362 0.55374 0.0
H1620 H 0.31315 0.70032 0.45939 0.0
H1621 H 0.38341 0.67871 0.59274 0.0
H1622 H 0.32521 0.68091 0.5844 0.0
C1623 C 0.82155 0.35126 0.02098 0.0
C1624 C 0.81618 0.33406 0.01441 0.0
C1625 C 0.83862 0.35844 0.0165 0.0
C1626 C 0.85057 0.34867 0.00517 0.0
C1627 C 0.84491 0.33181 0.99798 0.0
C1628 C 0.82792 0.32451 1.00267 0.0
C1629 C 0.86928 0.35556 1.00181 0.0
C1630 C 0.88005 0.36146 0.01652 0.0
C1631 C 0.8979 0.36777 0.01378 0.0
C1632 C 0.90495 0.3684 0.996 0.0
C1633 C 0.89424 0.3628 0.98102 0.0
C1634 C 0.87649 0.35613 0.9841 0.0
C1635 C 0.90112 0.36474 0.96209 0.0
C1636 C 0.90956 0.38103 0.95653 0.0
C1637 C 0.89839 0.35079 0.94917 0.0
C1638 C 0.90351 0.35329 0.93097 0.0
C1639 C 0.9113 0.36985 0.92529 0.0
C1640 C 0.90901 0.37355 0.02971 0.0
C1641 C 0.90154 0.38534 0.04282 0.0
C1642 C 0.92653 0.36641 0.03259 0.0
C1643 C 0.9361 0.37041 0.04868 0.0
C1644 C 0.92841 0.38184 0.06201 0.0
C1645 C 0.91116 0.3895 0.05874 0.0
C1646 C 0.91451 0.38359 0.93832 0.0
H1647 H 0.81283 0.35886 0.03015 0.0
H1648 H 0.84261 0.37154 0.02211 0.0
H1649 H 0.85389 0.32397 0.98928 0.0
H1650 H 0.82405 0.31126 0.99732 0.0
H1651 H 0.87467 0.36067 0.03026 0.0
H1652 H 0.86802 0.352 0.97267 0.0
H1653 H 0.91868 0.37343 0.99382 0.0
H1654 H 0.91172 0.39208 0.96614 0.0
H1655 H 0.89206 0.33803 0.95308 0.0
H1656 H 0.90075 0.3425 0.92122 0.0
H1657 H 0.88809 0.3911 0.04087 0.0
H1658 H 0.93254 0.3572 0.02273 0.0
H1659 H 0.92062 0.39644 0.93436 0.0
H1660 H 0.90479 0.39821 0.06882 0.0
H1661 H 0.94942 0.36441 0.0508 0.0
C1662 C 0.22354 0.67791 0.54089 0.0
C1663 C 0.23095 0.67334 0.55803 0.0
C1664 C 0.20673 0.67077 0.53522 0.0
C1665 C 0.19701 0.65864 0.54643 0.0
C1666 C 0.20514 0.65292 0.56285 0.0
C1667 C 0.22176 0.66029 0.56865 0.0
C1668 C 0.17787 0.65324 0.54191 0.0
C1669 C 0.17227 0.65005 0.52379 0.0
C1670 C 0.1539 0.64599 0.5196 0.0
C1671 C 0.14122 0.64484 0.53398 0.0
C1672 C 0.14667 0.64749 0.55217 0.0
C1673 C 0.16489 0.65196 0.55592 0.0
C1674 C 0.13351 0.64527 0.56742 0.0
C1675 C 0.11576 0.6524 0.56633 0.0
C1676 C 0.13873 0.63586 0.58326 0.0
C1677 C 0.12656 0.63363 0.59768 0.0
C1678 C 0.10882 0.64077 0.59667 0.0
C1679 C 0.14789 0.64298 0.5003 0.0
C1680 C 0.15581 0.65286 0.48587 0.0
C1681 C 0.13387 0.63044 0.49616 0.0
C1682 C 0.12765 0.62821 0.47825 0.0
C1683 C 0.13554 0.63814 0.46397 0.0
C1684 C 0.14982 0.65033 0.46788 0.0
C1685 C 0.10354 0.65018 0.58081 0.0
H1686 H 0.2304 0.68755 0.53208 0.0
H1687 H 0.20096 0.67548 0.52246 0.0
H1688 H 0.19834 0.64321 0.57162 0.0
H1689 H 0.22683 0.65642 0.58196 0.0
H1690 H 0.1823 0.65046 0.513 0.0
H1691 H 0.16884 0.65492 0.56987 0.0
H1692 H 0.12704 0.64181 0.53109 0.0
H1693 H 0.11138 0.6599 0.55439 0.0
H1694 H 0.15219 0.62991 0.5844 0.0
H1695 H 0.13096 0.62594 0.60949 0.0
H1696 H 0.1664 0.66286 0.48845 0.0
H1697 H 0.12772 0.62219 0.50671 0.0
H1698 H 0.09003 0.65599 0.57966 0.0
H1699 H 0.15604 0.65822 0.45707 0.0
H1700 H 0.11676 0.61855 0.47551 0.0
C1701 C 0.62043 0.2815 0.02415 0.0
C1702 C 0.60528 0.28663 0.03462 0.0
C1703 C 0.63602 0.29242 0.02376 0.0
C1704 C 0.63683 0.30871 0.03388 0.0
C1705 C 0.62212 0.31327 0.04523 0.0
C1706 C 0.60649 0.3023 0.04564 0.0
C1707 C 0.65231 0.32155 0.0314 0.0
C1708 C 0.65881 0.32518 0.01379 0.0
C1709 C 0.67305 0.33771 0.01085 0.0
C1710 C 0.68059 0.34696 0.02593 0.0
C1711 C 0.67422 0.34341 0.04361 0.0
C1712 C 0.66019 0.33066 0.0463 0.0
C1713 C 0.68162 0.35343 0.05942 0.0
C1714 C 0.67664 0.37161 0.06239 0.0
C1715 C 0.69229 0.34441 0.0724 0.0
C1716 C 0.69754 0.35331 0.08845 0.0
C1717 C 0.69171 0.37126 0.09211 0.0
C1718 C 0.67937 0.34129 0.9919 0.0
C1719 C 0.6803 0.32692 0.97921 0.0
C1720 C 0.68336 0.35908 0.98597 0.0
C1721 C 0.68742 0.36247 0.96763 0.0
C1722 C 0.68748 0.34818 0.95476 0.0
C1723 C 0.68411 0.33032 0.9609 0.0
C1724 C 0.68154 0.38043 0.07861 0.0
H1725 H 0.61997 0.26934 0.01574 0.0
H1726 H 0.64728 0.28837 0.01513 0.0
H1727 H 0.62228 0.32581 0.05305 0.0
H1728 H 0.59496 0.30666 0.05374 0.0
H1729 H 0.65226 0.31867 1.00221 0.0
H1730 H 0.65534 0.32798 0.06 0.0
H1731 H 0.69153 0.35674 0.02401 0.0
H1732 H 0.66823 0.37871 0.05254 0.0
H1733 H 0.69623 0.33035 0.07029 0.0
H1734 H 0.70581 0.3459 0.09816 0.0
H1735 H 0.67768 0.31299 0.98334 0.0
H1736 H 0.68271 0.37048 0.99535 0.0
H1737 H 0.67657 0.39412 0.08085 0.0
H1738 H 0.68377 0.31894 0.95148 0.0
H1739 H 0.69027 0.37635 0.96351 0.0
C1740 C 0.49945 0.43162 0.7341 0.0
C1741 C 0.48345 0.43179 0.74468 0.0
C1742 C 0.5066 0.41518 0.72759 0.0
C1743 C 0.49806 0.39851 0.73169 0.0
C1744 C 0.48304 0.39859 0.74358 0.0
C1745 C 0.47573 0.415 0.74984 0.0
C1746 C 0.5031 0.38156 0.7217 0.0
C1747 C 0.52128 0.37756 0.71733 0.0
C1748 C 0.52565 0.36289 0.70561 0.0
C1749 C 0.51142 0.35163 0.699 0.0
C1750 C 0.49322 0.3554 0.70349 0.0
C1751 C 0.48927 0.37027 0.71482 0.0
C1752 C 0.47777 0.34492 0.69566 0.0
C1753 C 0.47587 0.32611 0.69876 0.0
C1754 C 0.4635 0.3544 0.68715 0.0
C1755 C 0.44711 0.34565 0.68313 0.0
C1756 C 0.4446 0.32716 0.6874 0.0
C1757 C 0.54481 0.36046 0.69913 0.0
C1758 C 0.55593 0.37583 0.69608 0.0
C1759 C 0.55197 0.34306 0.69521 0.0
C1760 C 0.56965 0.3412 0.6882 0.0
C1761 C 0.58064 0.35664 0.68531 0.0
C1762 C 0.57361 0.37393 0.68945 0.0
C1763 C 0.45937 0.31726 0.69461 0.0
H1764 H 0.50608 0.44423 0.73023 0.0
H1765 H 0.51817 0.41568 0.71846 0.0
H1766 H 0.47635 0.38597 0.74734 0.0
H1767 H 0.46338 0.41445 0.75788 0.0
H1768 H 0.53201 0.38611 0.72289 0.0
H1769 H 0.47513 0.37343 0.7177 0.0
H1770 H 0.51429 0.3406 0.68959 0.0
H1771 H 0.4867 0.31855 0.70536 0.0
H1772 H 0.46473 0.36886 0.68441 0.0
H1773 H 0.43614 0.35358 0.67727 0.0
H1774 H 0.55085 0.3895 0.69829 0.0
H1775 H 0.54394 0.33088 0.6975 0.0
H1776 H 0.45782 0.30297 0.69798 0.0
H1777 H 0.58159 0.38612 0.68693 0.0
H1778 H 0.57473 0.32772 0.68501 0.0
C1779 C 0.01844 0.82779 0.31969 0.0
C1780 C 0.00855 0.82221 0.30423 0.0
C1781 C 0.01528 0.84476 0.32764 0.0
C1782 C 1.00232 0.85676 0.32018 0.0
C1783 C 0.99225 0.85107 0.30479 0.0
C1784 C 0.99526 0.83389 0.29695 0.0
C1785 C 0.99948 0.87504 0.32861 0.0
C1786 C 0.01434 0.88471 0.33593 0.0
C1787 C 0.01189 0.90128 0.34519 0.0
C1788 C 0.99429 0.90862 0.34674 0.0
C1789 C 0.97924 0.89929 0.33918 0.0
C1790 C 0.98197 0.88257 0.33013 0.0
C1791 C 0.96039 0.90613 0.34155 0.0
C1792 C 0.95358 0.90992 0.35902 0.0
C1793 C 0.94856 0.90707 0.3265 0.0
C1794 C 0.93008 0.91091 0.32894 0.0
C1795 C 0.92292 0.91359 0.34654 0.0
C1796 C 0.02804 0.91021 0.35353 0.0
C1797 C 0.03953 0.89999 0.3649 0.0
C1798 C 0.03332 0.92793 0.34851 0.0
C1799 C 0.05045 0.93476 0.35375 0.0
C1800 C 0.06248 0.92395 0.36409 0.0
C1801 C 0.0565 0.9068 0.37017 0.0
C1802 C 0.935 0.91352 0.36151 0.0
H1803 H 0.02849 0.81888 0.32581 0.0
H1804 H 0.02292 0.84838 0.33979 0.0
H1805 H 0.98225 0.85999 0.29861 0.0
H1806 H 0.98746 0.82987 0.28502 0.0
H1807 H 0.02801 0.87934 0.33443 0.0
H1808 H 0.97028 0.87505 0.325 0.0
H1809 H 0.99229 0.92135 0.35399 0.0
H1810 H 0.96241 0.90912 0.37086 0.0
H1811 H 0.95354 0.90437 0.31286 0.0
H1812 H 0.92132 0.91132 0.31704 0.0
H1813 H 0.03565 0.88637 0.36911 0.0
H1814 H 0.02469 0.93602 0.33968 0.0
H1815 H 0.93001 0.91534 0.37528 0.0
H1816 H 0.06526 0.89832 0.37851 0.0
H1817 H 0.05468 0.94803 0.34886 0.0
C1818 C 0.55438 0.22388 0.67208 0.0
C1819 C 0.56738 0.23241 0.66084 0.0
C1820 C 0.54599 0.20755 0.66659 0.0
C1821 C 0.55054 0.19949 0.64983 0.0
C1822 C 0.5623 0.20882 0.63797 0.0
C1823 C 0.57057 0.22514 0.64338 0.0
C1824 C 0.54579 0.18019 0.64605 0.0
C1825 C 0.5277 0.17382 0.64636 0.0
C1826 C 0.52378 0.1552 0.64318 0.0
C1827 C 0.53839 0.14302 0.64033 0.0
C1828 C 0.55647 0.14933 0.63986 0.0
C1829 C 0.55997 0.16789 0.64269 0.0
C1830 C 0.57195 0.13679 0.63646 0.0
C1831 C 0.57395 0.12058 0.64643 0.0
C1832 C 0.58553 0.1417 0.62391 0.0
C1833 C 0.60108 0.131 0.62182 0.0
C1834 C 0.60354 0.11517 0.63231 0.0
C1835 C 0.50455 0.14842 0.64242 0.0
C1836 C 0.49104 0.15554 0.65405 0.0
C1837 C 0.49955 0.13462 0.62997 0.0
C1838 C 0.48175 0.1278 0.62947 0.0
C1839 C 0.46837 0.13476 0.64121 0.0
C1840 C 0.47313 0.14884 0.65337 0.0
C1841 C 0.58963 0.10988 0.64441 0.0
H1842 H 0.55166 0.22906 0.68564 0.0
H1843 H 0.53706 0.20054 0.67602 0.0
H1844 H 0.5659 0.20294 0.6249 0.0
H1845 H 0.5802 0.23157 0.63424 0.0
H1846 H 0.51676 0.18347 0.64856 0.0
H1847 H 0.57396 0.17274 0.64281 0.0
H1848 H 0.53577 0.12861 0.6383 0.0
H1849 H 0.56373 0.11654 0.65627 0.0
H1850 H 0.5842 0.15397 0.61583 0.0
H1851 H 0.61125 0.13523 0.61201 0.0
H1852 H 0.49436 0.16602 0.66394 0.0
H1853 H 0.50936 0.12912 0.62044 0.0
H1854 H 0.59112 0.0978 0.65275 0.0
H1855 H 0.46309 0.15438 0.66266 0.0
H1856 H 0.47841 0.11716 0.61974 0.0
C1857 C 0.0158 0.61834 0.27478 0.0
C1858 C 0.02372 0.60172 0.27997 0.0
C1859 C 0.01644 0.6334 0.28645 0.0
C1860 C 0.025 0.63213 0.30357 0.0
C1861 C 0.03392 0.61587 0.30827 0.0
C1862 C 0.0333 0.6008 0.29658 0.0
C1863 C 0.02351 0.64724 0.31698 0.0
C1864 C 0.00676 0.65603 0.3196 0.0
C1865 C 0.00476 0.66959 0.33299 0.0
C1866 C 0.01984 0.67457 0.34382 0.0
C1867 C 0.0368 0.66619 0.34092 0.0
C1868 C 0.0385 0.65245 0.3277 0.0
C1869 C 0.0532 0.67172 0.35116 0.0
C1870 C 0.05677 0.66436 0.36843 0.0
C1871 C 0.06669 0.68196 0.34236 0.0
C1872 C 0.0839 0.68402 0.35027 0.0
C1873 C 0.08804 0.67563 0.36703 0.0
C1874 C 0.98658 0.67788 0.33558 0.0
C1875 C 0.97737 0.68531 0.32054 0.0
C1876 C 0.97737 0.67618 0.35225 0.0
C1877 C 0.95885 0.68072 0.3535 0.0
C1878 C 0.9493 0.68713 0.33811 0.0
C1879 C 0.95899 0.69 0.32182 0.0
C1880 C 0.07406 0.66636 0.37635 0.0
H1881 H 0.00861 0.61954 0.26191 0.0
H1882 H 0.00982 0.64591 0.28228 0.0
H1883 H 0.04058 0.61446 0.3214 0.0
H1884 H 0.03943 0.58815 0.30103 0.0
H1885 H 0.99497 0.65183 0.31165 0.0
H1886 H 0.0516 0.64594 0.32568 0.0
H1887 H 0.01848 0.68509 0.35412 0.0
H1888 H 0.04655 0.65621 0.37528 0.0
H1889 H 0.06417 0.68765 0.32897 0.0
H1890 H 0.0942 0.6916 0.3429 0.0
H1891 H 0.98425 0.68685 0.30757 0.0
H1892 H 0.98418 0.67032 0.36397 0.0
H1893 H 0.07673 0.65972 0.38925 0.0
H1894 H 0.95222 0.69537 0.30984 0.0
H1895 H 0.95183 0.67827 0.36623 0.0
H1896 H 0.1644 0.66681 0.40649 0.0
H1897 H 0.18142 0.65994 0.35057 0.0
H1898 H 0.15047 0.66579 0.34008 0.0
H1899 H 0.11839 0.67061 0.34672 0.0
H1900 H 0.10082 0.67839 0.40232 0.0
H1901 H 0.1322 0.6743 0.413 0.0
C1902 C 0.16137 0.66686 0.392 0.0
C1903 C 0.17519 0.66271 0.37935 0.0
C1904 C 0.14345 0.67024 0.38601 0.0
C1905 C 0.17099 0.66268 0.36063 0.0
C1906 C 0.15331 0.66616 0.3546 0.0
C1907 C 0.12141 0.67193 0.36116 0.0
C1908 C 0.10722 0.67491 0.37367 0.0
C1909 C 0.1394 0.66961 0.36717 0.0
C1910 C 0.11144 0.67601 0.39237 0.0
C1911 C 0.1294 0.67374 0.39849 0.0
H1912 H 0.37114 0.28654 0.66699 0.0
H1913 H 0.34891 0.33459 0.69256 0.0
H1914 H 0.37958 0.34514 0.70028 0.0
H1915 H 0.41257 0.3418 0.69789 0.0
H1916 H 0.43538 0.29383 0.67274 0.0
H1917 H 0.40459 0.28189 0.6671 0.0
C1918 C 0.37306 0.29916 0.67451 0.0
C1919 C 0.35786 0.30996 0.67893 0.0
C1920 C 0.39078 0.30514 0.67893 0.0
C1921 C 0.36045 0.32623 0.68876 0.0
C1922 C 0.37796 0.33224 0.6932 0.0
C1923 C 0.41082 0.32872 0.69115 0.0
C1924 C 0.4262 0.31888 0.68539 0.0
C1925 C 0.3932 0.32203 0.68795 0.0
C1926 C 0.42374 0.30168 0.67725 0.0
C1927 C 0.40616 0.29489 0.67398 0.0
H1928 H 0.68206 0.08286 0.61913 0.0
H1929 H 0.65222 0.03219 0.62258 0.0
H1930 H 0.62423 0.04891 0.62924 0.0
H1931 H 0.60784 0.07809 0.63203 0.0
H1932 H 0.63816 0.12855 0.62937 0.0
H1933 H 0.66631 0.1117 0.62456 0.0
C1934 C 0.66954 0.07541 0.62175 0.0
C1935 C 0.66927 0.05628 0.62025 0.0
C1936 C 0.6535 0.08509 0.6255 0.0
C1937 C 0.6528 0.04693 0.62338 0.0
C1938 C 0.63677 0.05648 0.62723 0.0
C1939 C 0.62064 0.08539 0.63067 0.0
C1940 C 0.62078 0.10459 0.63077 0.0
C1941 C 0.63689 0.07559 0.62799 0.0
C1942 C 0.63753 0.1138 0.62889 0.0
C1943 C 0.65369 0.10418 0.62626 0.0
H1944 H 0.83708 0.90705 0.35089 0.0
H1945 H 0.84522 0.94566 0.39464 0.0
H1946 H 0.87803 0.94605 0.38858 0.0
H1947 H 0.90448 0.93486 0.37119 0.0
H1948 H 0.89598 0.89515 0.32835 0.0
H1949 H 0.86326 0.89621 0.33338 0.0
C1950 C 0.84599 0.91575 0.35894 0.0
C1951 C 0.8387 0.92634 0.37316 0.0
C1952 C 0.86481 0.91578 0.35549 0.0
C1953 C 0.85051 0.93727 0.3837 0.0
C1954 C 0.86926 0.93754 0.3802 0.0
C1955 C 0.8955 0.92638 0.363 0.0
C1956 C 0.90283 0.91504 0.34932 0.0
C1957 C 0.87659 0.92671 0.36623 0.0
C1958 C 0.89084 0.90433 0.33871 0.0
C1959 C 0.87207 0.90477 0.34169 0.0
H1960 H 0.37074 0.17242 0.6883 0.0
H1961 H 0.42682 0.15728 0.67908 0.0
H1962 H 0.41888 0.12517 0.68305 0.0
H1963 H 0.39539 0.10125 0.68637 0.0
H1964 H 0.33971 0.1168 0.69694 0.0
H1965 H 0.34827 0.14893 0.69575 0.0
C1966 C 0.38137 0.1622 0.68761 0.0
C1967 C 0.39932 0.16733 0.68312 0.0
C1968 C 0.37677 0.14379 0.69009 0.0
C1969 C 0.41281 0.15375 0.68214 0.0
C1970 C 0.40831 0.13537 0.68451 0.0
C1971 C 0.38521 0.1117 0.68869 0.0
C1972 C 0.36693 0.10665 0.69166 0.0
C1973 C 0.39022 0.1302 0.68798 0.0
C1974 C 0.3539 0.12031 0.69483 0.0
C1975 C 0.35876 0.1387 0.69398 0.0
H1976 H 0.37975 0.84914 0.94266 0.0
H1977 H 0.34574 0.83482 0.89669 0.0
H1978 H 0.34057 0.86702 0.89023 0.0
H1979 H 0.3469 0.89909 0.89663 0.0
H1980 H 0.37954 0.91387 0.94355 0.0
H1981 H 0.38434 0.88169 0.95039 0.0
C1982 C 0.37117 0.85313 0.93129 0.0
C1983 C 0.36313 0.83964 0.92018 0.0
C1984 C 0.36815 0.87173 0.92769 0.0
C1985 C 0.35192 0.84495 0.90556 0.0
C1986 C 0.34904 0.86336 0.90179 0.0
C1987 C 0.35476 0.89539 0.9086 0.0
C1988 C 0.36289 0.90905 0.91946 0.0
C1989 C 0.35719 0.87686 0.91268 0.0
C1990 C 0.37337 0.90376 0.93468 0.0
C1991 C 0.37604 0.88531 0.9387 0.0
H1992 H 0.69017 0.34199 0.31958 0.0
H1993 H 0.65806 0.3574 0.2727 0.0
H1994 H 0.66523 0.38944 0.27827 0.0
H1995 H 0.67872 0.41333 0.29782 0.0
H1996 H 0.70986 0.39759 0.34528 0.0
H1997 H 0.7048 0.36557 0.33817 0.0
C1998 C 0.68466 0.35235 0.31061 0.0
C1999 C 0.67351 0.34725 0.29582 0.0
C2000 C 0.6886 0.37077 0.31402 0.0
C2001 C 0.66685 0.36088 0.28409 0.0
C2002 C 0.67091 0.37924 0.28728 0.0
C2003 C 0.68466 0.4029 0.30643 0.0
C2004 C 0.69428 0.40793 0.3223 0.0
C2005 C 0.68157 0.38439 0.30236 0.0
C2006 C 0.70193 0.39417 0.33325 0.0
C2007 C 0.69912 0.37581 0.32918 0.0
H2008 H 0.58849 0.65726 0.06973 0.0
H2009 H 0.64422 0.67617 0.07021 0.0
H2010 H 0.65306 0.65013 0.08914 0.0
H2011 H 0.64468 0.62217 0.10603 0.0
H2012 H 0.58867 0.60406 0.10591 0.0
H2013 H 0.58022 0.62948 0.08618 0.0
C2014 C 0.60262 0.65557 0.07379 0.0
C2015 C 0.61571 0.66854 0.06847 0.0
C2016 C 0.60753 0.6407 0.08474 0.0
C2017 C 0.63388 0.6664 0.0742 0.0
C2018 C 0.63894 0.65148 0.08496 0.0
C2019 C 0.63068 0.62374 0.1015 0.0
C2020 C 0.6173 0.61129 0.10738 0.0
C2021 C 0.62586 0.63857 0.09036 0.0
C2022 C 0.59916 0.61357 0.10165 0.0
C2023 C 0.59433 0.62807 0.09036 0.0
H2024 H 0.69354 0.41822 0.16463 0.0
H2025 H 0.6894 0.36434 0.18793 0.0
H2026 H 0.69252 0.35076 0.15785 0.0
H2027 H 0.69304 0.35405 0.12498 0.0
H2028 H 0.69675 0.40764 0.10091 0.0
H2029 H 0.6967 0.42138 0.13124 0.0
C2030 C 0.69342 0.40351 0.16312 0.0
C2031 C 0.69129 0.39235 0.17859 0.0
C2032 C 0.69485 0.3957 0.14563 0.0
C2033 C 0.69131 0.3733 0.17637 0.0
C2034 C 0.69293 0.36549 0.15912 0.0
C2035 C 0.69435 0.36872 0.1262 0.0
C2036 C 0.69462 0.37969 0.11047 0.0
C2037 C 0.69433 0.37655 0.14365 0.0
C2038 C 0.69606 0.39874 0.11265 0.0
C2039 C 0.69616 0.40666 0.13004 0.0
H2040 H 0.91523 0.39392 0.84293 0.0
H2041 H 0.94176 0.34167 0.83791 0.0
H2042 H 0.93903 0.33702 0.87076 0.0
H2043 H 0.92806 0.34734 0.90086 0.0
H2044 H 0.90235 0.39997 0.90565 0.0
H2045 H 0.9063 0.40511 0.87302 0.0
C2046 C 0.9208 0.38167 0.849 0.0
C2047 C 0.92861 0.36815 0.83783 0.0
C2048 C 0.91934 0.37914 0.86791 0.0
C2049 C 0.9354 0.35221 0.84605 0.0
C2050 C 0.93392 0.34956 0.86488 0.0
C2051 C 0.92338 0.35994 0.89473 0.0
C2052 C 0.9149 0.37324 0.90566 0.0
C2053 C 0.92568 0.36282 0.87591 0.0
C2054 C 0.90908 0.38959 0.89758 0.0
C2055 C 0.91123 0.3925 0.8789 0.0
H2056 H 0.33335 0.68229 0.36551 0.0
H2057 H 0.28153 0.65758 0.37859 0.0
H2058 H 0.28667 0.66395 0.41088 0.0
H2059 H 0.30672 0.67444 0.43576 0.0
H2060 H 0.35963 0.69653 0.42267 0.0
H2061 H 0.35336 0.69279 0.39018 0.0
C2062 C 0.3232 0.67813 0.37539 0.0
C2063 C 0.30711 0.6694 0.36949 0.0
C2064 C 0.32646 0.68122 0.39403 0.0
C2065 C 0.29394 0.66457 0.38258 0.0
C2066 C 0.29689 0.66807 0.40111 0.0
C2067 C 0.31673 0.67866 0.42576 0.0
C2068 C 0.33363 0.68565 0.43161 0.0
C2069 C 0.3132 0.67614 0.40704 0.0
C2070 C 0.3466 0.69088 0.41851 0.0
C2071 C 0.343 0.68882 0.39992 0.0
H2072 H 0.04682 0.61856 0.652 0.0
H2073 H 0.09067 0.62767 0.69042 0.0
H2074 H 0.1102 0.63849 0.66584 0.0
H2075 H 0.11574 0.6429 0.63316 0.0
H2076 H 0.07258 0.63189 0.59448 0.0
H2077 H 0.05192 0.62435 0.61942 0.0
C2078 C 0.06065 0.62292 0.65502 0.0
C2079 C 0.06726 0.62214 0.67307 0.0
C2080 C 0.072 0.62869 0.64074 0.0
C2081 C 0.0851 0.62827 0.67674 0.0
C2082 C 0.09637 0.6343 0.66264 0.0
C2083 C 0.10181 0.63883 0.63017 0.0
C2084 C 0.0958 0.6378 0.61193 0.0
C2085 C 0.0901 0.63417 0.64455 0.0
C2086 C 0.07757 0.63292 0.60836 0.0
C2087 C 0.06577 0.62848 0.62262 0.0
H2088 H 0.83174 0.31818 0.6358 0.0
H2089 H 0.84235 0.31316 0.57818 0.0
H2090 H 0.87481 0.30854 0.58452 0.0
H2091 H 0.9003 0.30802 0.60641 0.0
H2092 H 0.88897 0.31531 0.66389 0.0
H2093 H 0.85668 0.31556 0.65757 0.0
C2094 C 0.84105 0.31564 0.62462 0.0
C2095 C 0.8346 0.31603 0.60655 0.0
C2096 C 0.85963 0.31315 0.62833 0.0
C2097 C 0.84697 0.31307 0.59223 0.0
C2098 C 0.86552 0.31034 0.59585 0.0
C2099 C 0.89087 0.30975 0.61762 0.0
C2100 C 0.89748 0.31175 0.63564 0.0
C2101 C 0.87207 0.31079 0.61387 0.0
C2102 C 0.8847 0.31333 0.64989 0.0
C2103 C 0.86605 0.31378 0.6463 0.0
H2104 H 0.64275 0.74149 0.31646 0.0
H2105 H 0.65392 0.68566 0.3015 0.0
H2106 H 0.62185 0.68092 0.29398 0.0
H2107 H 0.59041 0.69185 0.2938 0.0
H2108 H 0.57848 0.74702 0.31007 0.0
H2109 H 0.61121 0.75309 0.31431 0.0
C2110 C 0.63821 0.7284 0.31122 0.0
C2111 C 0.65071 0.71393 0.30961 0.0
C2112 C 0.61967 0.72573 0.30703 0.0
C2113 C 0.64456 0.69696 0.30308 0.0
C2114 C 0.62624 0.69427 0.29865 0.0
C2115 C 0.59504 0.70532 0.29789 0.0
C2116 C 0.58219 0.71903 0.3015 0.0
C2117 C 0.61366 0.70844 0.30087 0.0
C2118 C 0.58821 0.73633 0.30715 0.0
C2119 C 0.60687 0.73973 0.30965 0.0
H2120 H 0.35088 0.96467 0.40932 0.0
H2121 H 0.31253 0.9253 0.38778 0.0
H2122 H 0.33763 0.90707 0.37592 0.0
H2123 H 0.37046 0.90143 0.37304 0.0
H2124 H 0.40889 0.94033 0.39516 0.0
H2125 H 0.38375 0.95935 0.40587 0.0
C2126 C 0.34799 0.95205 0.40211 0.0
C2127 C 0.32979 0.9464 0.39951 0.0
C2128 C 0.36251 0.94144 0.3956 0.0
C2129 C 0.32635 0.93016 0.38981 0.0
C2130 C 0.34071 0.91962 0.38314 0.0
C2131 C 0.37335 0.91419 0.37999 0.0
C2132 C 0.39155 0.91943 0.3833 0.0
C2133 C 0.35884 0.92504 0.38611 0.0
C2134 C 0.39502 0.93586 0.39262 0.0
C2135 C 0.38065 0.94679 0.39866 0.0
H2136 H 0.16838 0.07648 0.64745 0.0
H2137 H 0.16323 0.07292 0.58886 0.0
H2138 H 0.13022 0.0758 0.59131 0.0
H2139 H 0.10284 0.08096 0.60996 0.0
H2140 H 0.10783 0.08336 0.66852 0.0
H2141 H 0.14078 0.07885 0.66623 0.0
C2142 C 0.16006 0.07595 0.63521 0.0
C2143 C 0.16843 0.07474 0.61797 0.0
C2144 C 0.141 0.07744 0.63671 0.0
C2145 C 0.15729 0.07427 0.6023 0.0
C2146 C 0.13836 0.07583 0.60367 0.0
C2147 C 0.11117 0.0804 0.6222 0.0
C2148 C 0.10295 0.08259 0.63937 0.0
C2149 C 0.13009 0.07776 0.62078 0.0
C2150 C 0.11383 0.0816 0.65515 0.0
C2151 C 0.13268 0.07912 0.65384 0.0
H2152 H 0.63169 0.82443 0.33391 0.0
H2153 H 0.57788 0.84825 0.33456 0.0
H2154 H 0.5906 0.87751 0.32545 0.0
H2155 H 0.61711 0.89701 0.32111 0.0
H2156 H 0.67079 0.87295 0.31793 0.0
H2157 H 0.6578 0.84314 0.32425 0.0
C2158 C 0.62264 0.83589 0.33173 0.0
C2159 C 0.60386 0.8341 0.33534 0.0
C2160 C 0.63002 0.85278 0.32643 0.0
C2161 C 0.59245 0.84924 0.33244 0.0
C2162 C 0.5997 0.86602 0.32715 0.0
C2163 C 0.62611 0.88535 0.32132 0.0
C2164 C 0.64515 0.88771 0.31977 0.0
C2165 C 0.61853 0.86809 0.32469 0.0
C2166 C 0.65622 0.872 0.31995 0.0
C2167 C 0.64878 0.8548 0.32343 0.0
H2168 H 0.62445 0.16613 0.11389 0.0
H2169 H 0.6308 0.16372 0.05553 0.0
H2170 H 0.63438 0.13047 0.05709 0.0
H2171 H 0.63469 0.102 0.0752 0.0
H2172 H 0.62984 0.10543 0.13384 0.0
H2173 H 0.62635 0.13828 0.13193 0.0
C2174 C 0.62652 0.1583 0.10149 0.0
C2175 C 0.62712 0.16728 0.0846 0.0
C2176 C 0.62869 0.13935 0.10254 0.0
C2177 C 0.63025 0.15706 0.06869 0.0
C2178 C 0.63224 0.13807 0.06959 0.0
C2179 C 0.63305 0.10993 0.08758 0.0
C2180 C 0.63219 0.10106 0.10461 0.0
C2181 C 0.63138 0.12904 0.08646 0.0
C2182 C 0.63001 0.11168 0.12048 0.0
C2183 C 0.62817 0.13056 0.11945 0.0
H2184 H 0.32434 0.63894 0.72357 0.0
H2185 H 0.30719 0.65623 0.66991 0.0
H2186 H 0.3005 0.62476 0.66161 0.0
H2187 H 0.30265 0.59224 0.66834 0.0
H2188 H 0.32028 0.57449 0.72154 0.0
H2189 H 0.32316 0.60632 0.73146 0.0
C2190 C 0.31874 0.63591 0.7102 0.0
C2191 C 0.31663 0.64997 0.69727 0.0
C2192 C 0.31507 0.61769 0.70541 0.0
C2193 C 0.30946 0.64568 0.67997 0.0
C2194 C 0.3055 0.62768 0.67523 0.0
C2195 C 0.30705 0.59534 0.68215 0.0
C2196 C 0.31165 0.58108 0.69408 0.0
C2197 C 0.30888 0.61356 0.68761 0.0
C2198 C 0.31679 0.58525 0.71208 0.0
C2199 C 0.31846 0.60344 0.71772 0.0
H2200 H 0.39225 0.33089 0.91469 0.0
H2201 H 0.39607 0.36182 0.96472 0.0
H2202 H 0.3871 0.38946 0.94853 0.0
H2203 H 0.37914 0.40512 0.91984 0.0
H2204 H 0.37469 0.37383 0.87012 0.0
H2205 H 0.38259 0.34605 0.88657 0.0
C2206 C 0.39078 0.34358 0.92216 0.0
C2207 C 0.39496 0.34423 0.9409 0.0
C2208 C 0.38555 0.35942 0.91279 0.0
C2209 C 0.39324 0.36093 0.95024 0.0
C2210 C 0.38805 0.37676 0.941 0.0
C2211 C 0.37992 0.3922 0.91265 0.0
C2212 C 0.37635 0.39154 0.8938 0.0
C2213 C 0.38442 0.37622 0.92222 0.0
C2214 C 0.37721 0.37468 0.88467 0.0
C2215 C 0.3818 0.35879 0.89404 0.0
H2216 H 0.31392 0.61044 0.8549 0.0
H2217 H 0.33973 0.66097 0.83936 0.0
H2218 H 0.33416 0.67358 0.86961 0.0
H2219 H 0.32565 0.66894 0.90116 0.0
H2220 H 0.29946 0.61882 0.91756 0.0
H2221 H 0.30172 0.60725 0.88629 0.0
C2222 C 0.31809 0.62428 0.85814 0.0
C2223 C 0.32745 0.6347 0.84505 0.0
C2224 C 0.31508 0.63138 0.87573 0.0
C2225 C 0.3328 0.6526 0.84934 0.0
C2226 C 0.32956 0.65983 0.8666 0.0
C2227 C 0.31983 0.65571 0.89792 0.0
C2228 C 0.3125 0.64474 0.91184 0.0
C2229 C 0.32123 0.64916 0.88003 0.0
C2230 C 0.30543 0.62747 0.90722 0.0
C2231 C 0.3067 0.62085 0.88932 0.0
H2232 H 0.04808 0.64158 0.15949 0.0
H2233 H 0.09815 0.6685 0.17517 0.0
H2234 H 0.10546 0.67387 0.14323 0.0
H2235 H 0.09874 0.66913 0.11074 0.0
H2236 H 0.04874 0.64248 0.09469 0.0
H2237 H 0.04029 0.63875 0.12679 0.0
C2238 C 0.06051 0.64873 0.15589 0.0
C2239 C 0.07253 0.65461 0.16974 0.0
C2240 C 0.06473 0.65168 0.13741 0.0
C2241 C 0.08852 0.66404 0.16485 0.0
C2242 C 0.09281 0.66697 0.14655 0.0
C2243 C 0.08598 0.66254 0.11431 0.0
C2244 C 0.07447 0.65591 0.10043 0.0
C2245 C 0.0812 0.66056 0.13273 0.0
C2246 C 0.05782 0.64769 0.10517 0.0
C2247 C 0.05302 0.64551 0.1235 0.0
H2248 H 0.67535 0.31349 0.65352 0.0
H2249 H 0.72963 0.33334 0.64248 0.0
H2250 H 0.72489 0.32829 0.60984 0.0
H2251 H 0.70396 0.32177 0.58416 0.0
H2252 H 0.64958 0.30249 0.59562 0.0
H2253 H 0.65574 0.30384 0.62827 0.0
C2254 C 0.68618 0.31665 0.64397 0.0
C2255 C 0.70269 0.32402 0.6504 0.0
C2256 C 0.68332 0.31396 0.62525 0.0
C2257 C 0.71677 0.32762 0.6379 0.0
C2258 C 0.71407 0.32479 0.61922 0.0
C2259 C 0.69363 0.31754 0.59383 0.0
C2260 C 0.67624 0.31241 0.58754 0.0
C2261 C 0.69721 0.31849 0.61268 0.0
C2262 C 0.66295 0.3069 0.60018 0.0
C2263 C 0.66647 0.3076 0.61885 0.0
H2264 H 0.96062 0.39448 0.35358 0.0
H2265 H 0.91947 0.37791 0.31465 0.0
H2266 H 0.90129 0.36477 0.33916 0.0
H2267 H 0.89623 0.35951 0.37176 0.0
H2268 H 0.93701 0.37649 0.41086 0.0
H2269 H 0.95595 0.38838 0.38619 0.0
C2270 C 0.94764 0.38805 0.35045 0.0
C2271 C 0.94144 0.38723 0.33227 0.0
C2272 C 0.9371 0.38077 0.36466 0.0
C2273 C 0.92473 0.37855 0.32846 0.0
C2274 C 0.91423 0.37116 0.3425 0.0
C2275 C 0.90938 0.36556 0.37489 0.0
C2276 C 0.91517 0.36711 0.39315 0.0
C2277 C 0.92019 0.37235 0.36065 0.0
C2278 C 0.93212 0.37531 0.39695 0.0
C2279 C 0.943 0.38203 0.38284 0.0
H2280 H 0.28227 0.5548 0.50573 0.0
H2281 H 0.22393 0.54832 0.5102 0.0
H2282 H 0.22798 0.5292 0.5371 0.0
H2283 H 0.24805 0.51557 0.56026 0.0
H2284 H 0.30635 0.52211 0.55556 0.0
H2285 H 0.30234 0.53932 0.52744 0.0
C2286 C 0.27043 0.54894 0.51234 0.0
C2287 C 0.25281 0.55318 0.506 0.0
C2288 C 0.27284 0.53785 0.52773 0.0
C2289 C 0.23764 0.54562 0.51497 0.0
C2290 C 0.23994 0.53457 0.5303 0.0
C2291 C 0.25987 0.52068 0.55301 0.0
C2292 C 0.27745 0.51757 0.56004 0.0
C2293 C 0.25747 0.53084 0.53697 0.0
C2294 C 0.29266 0.52408 0.55036 0.0
C2295 C 0.29038 0.5341 0.53435 0.0
H2296 H 0.31071 0.37521 0.71807 0.0
H2297 H 0.28628 0.41971 0.68839 0.0
H2298 H 0.30259 0.44161 0.7076 0.0
H2299 H 0.32221 0.44809 0.73443 0.0
H2300 H 0.34662 0.40312 0.7634 0.0
H2301 H 0.33232 0.38156 0.74253 0.0
C2302 C 0.30917 0.38967 0.71548 0.0
C2303 C 0.29706 0.3957 0.70187 0.0
C2304 C 0.31862 0.40219 0.72652 0.0
C2305 C 0.29515 0.41459 0.69903 0.0
C2306 C 0.30457 0.42717 0.70996 0.0
C2307 C 0.32449 0.43358 0.73605 0.0
C2308 C 0.33549 0.42727 0.75048 0.0
C2309 C 0.31603 0.42112 0.72404 0.0
C2310 C 0.33844 0.40841 0.7523 0.0
C2311 C 0.33013 0.39602 0.74045 0.0
H2312 H 0.72881 0.98556 0.49803 0.0
H2313 H 0.78193 0.99515 0.47465 0.0
H2314 H 0.76938 0.99053 0.4441 0.0
H2315 H 0.74292 0.98565 0.42389 0.0
H2316 H 0.68964 0.97761 0.44735 0.0
H2317 H 0.70259 0.98018 0.478 0.0
C2318 C 0.73765 0.98678 0.48627 0.0
C2319 C 0.75628 0.99082 0.4887 0.0
C2320 C 0.73028 0.98456 0.46873 0.0
C2321 C 0.76759 0.99187 0.47326 0.0
C2322 C 0.76039 0.98938 0.45575 0.0
C2323 C 0.7342 0.98427 0.43573 0.0
C2324 C 0.71535 0.98153 0.43338 0.0
C2325 C 0.74171 0.98595 0.45331 0.0
C2326 C 0.70416 0.97995 0.44883 0.0
C2327 C 0.71156 0.98135 0.46634 0.0
H2328 H 0.67439 0.9626 0.27716 0.0
H2329 H 0.72633 0.945 0.25615 0.0
H2330 H 0.71819 0.95612 0.22588 0.0
H2331 H 0.69663 0.97093 0.20551 0.0
H2332 H 0.64343 0.98629 0.22535 0.0
H2333 H 0.65198 0.97656 0.25601 0.0
C2334 C 0.68384 0.96122 0.26589 0.0
C2335 C 0.70086 0.95291 0.26879 0.0
C2336 C 0.67895 0.96741 0.24838 0.0
C2337 C 0.71305 0.95114 0.25415 0.0
C2338 C 0.70845 0.95758 0.23688 0.0
C2339 C 0.6867 0.97189 0.21638 0.0
C2340 C 0.66935 0.97931 0.21292 0.0
C2341 C 0.69144 0.96567 0.23383 0.0
C2342 C 0.65699 0.98091 0.22751 0.0
C2343 C 0.6618 0.97517 0.24508 0.0
H2344 H 0.50982 0.22979 0.54804 0.0
H2345 H 0.48398 0.28259 0.55049 0.0
H2346 H 0.50702 0.29508 0.53022 0.0
H2347 H 0.53629 0.29202 0.51465 0.0
H2348 H 0.56381 0.24009 0.51446 0.0
H2349 H 0.53823 0.22624 0.53061 0.0
C2350 C 0.5092 0.24402 0.54411 0.0
C2351 C 0.4952 0.25521 0.55094 0.0
C2352 C 0.52284 0.25131 0.53283 0.0
C2353 C 0.49442 0.27354 0.54535 0.0
C2354 C 0.50771 0.28077 0.53384 0.0
C2355 C 0.53665 0.27763 0.51803 0.0
C2356 C 0.55207 0.26719 0.51354 0.0
C2357 C 0.52223 0.26992 0.52792 0.0
C2358 C 0.55209 0.24846 0.51762 0.0
C2359 C 0.53755 0.24056 0.52706 0.0
H2360 H 0.26333 0.69445 0.98032 0.0
H2361 H 0.24484 0.7086 0.92617 0.0
H2362 H 0.21391 0.6996 0.93412 0.0
H2363 H 0.19171 0.68949 0.95686 0.0
H2364 H 0.20958 0.67823 0.01186 0.0
H2365 H 0.24107 0.68441 0.00312 0.0
C2366 C 0.25255 0.69572 0.97025 0.0
C2367 C 0.25655 0.70231 0.95266 0.0
C2368 C 0.23459 0.69112 0.97509 0.0
C2369 C 0.24237 0.70335 0.93973 0.0
C2370 C 0.22457 0.69838 0.94432 0.0
C2371 C 0.20243 0.68856 0.96703 0.0
C2372 C 0.19815 0.68351 0.98505 0.0
C2373 C 0.22047 0.69257 0.96205 0.0
C2374 C 0.2124 0.6819 0.99785 0.0
C2375 C 0.23043 0.68555 0.9929 0.0
H2376 H 0.7099 0.28069 0.40027 0.0
H2377 H 0.73773 0.29165 0.34962 0.0
H2378 H 0.7626 0.30623 0.36623 0.0
H2379 H 0.77773 0.3136 0.3951 0.0
H2380 H 0.75089 0.30191 0.446 0.0
H2381 H 0.72433 0.28999 0.42937 0.0
C2382 C 0.72138 0.28632 0.39287 0.0
C2383 C 0.72192 0.28497 0.37369 0.0
C2384 C 0.73588 0.29446 0.40256 0.0
C2385 C 0.73678 0.29265 0.36432 0.0
C2386 C 0.75113 0.30086 0.37383 0.0
C2387 C 0.76605 0.30845 0.40256 0.0
C2388 C 0.76637 0.30837 0.42174 0.0
C2389 C 0.751 0.30148 0.39294 0.0
C2390 C 0.75097 0.3021 0.43123 0.0
C2391 C 0.73584 0.2952 0.42172 0.0
H2392 H 0.47729 0.77144 0.99252 0.0
H2393 H 0.50487 0.72269 0.97451 0.0
H2394 H 0.47568 0.70711 0.97101 0.0
H2395 H 0.44254 0.70646 0.97556 0.0
H2396 H 0.4147 0.75522 0.99268 0.0
H2397 H 0.44373 0.77185 0.99355 0.0
C2398 C 0.47692 0.75755 0.98743 0.0
C2399 C 0.49333 0.74817 0.98412 0.0
C2400 C 0.46004 0.74865 0.98534 0.0
C2401 C 0.49252 0.73011 0.97762 0.0
C2402 C 0.47581 0.72119 0.97553 0.0
C2403 C 0.44286 0.72078 0.97929 0.0
C2404 C 0.42663 0.7296 0.98424 0.0
C2405 C 0.45954 0.73017 0.9798 0.0
C2406 C 0.42708 0.7482 0.9888 0.0
C2407 C 0.44366 0.75765 0.9894 0.0
H2408 H 0.57456 0.51941 0.27012 0.0
H2409 H 0.62184 0.55374 0.26303 0.0
H2410 H 0.604 0.58054 0.2715 0.0
H2411 H 0.57516 0.59405 0.28153 0.0
H2412 H 0.528 0.5597 0.28952 0.0
H2413 H 0.54558 0.53302 0.28003 0.0
C2414 C 0.58095 0.53276 0.27052 0.0
C2415 C 0.59947 0.53463 0.2659 0.0
C2416 C 0.57064 0.54805 0.27557 0.0
C2417 C 0.60754 0.55202 0.26624 0.0
C2418 C 0.59738 0.56731 0.27121 0.0
C2419 C 0.56876 0.5807 0.28135 0.0
C2420 C 0.55033 0.57884 0.28638 0.0
C2421 C 0.57896 0.56546 0.276 0.0
C2422 C 0.54212 0.56152 0.28564 0.0
C2423 C 0.55219 0.54625 0.2803 0.0
H2424 H 0.98065 0.26882 0.68185 0.0
H2425 H 0.92895 0.24779 0.70069 0.0
H2426 H 0.93752 0.21729 0.69096 0.0
H2427 H 0.96038 0.19613 0.67925 0.0
H2428 H 0.01312 0.2164 0.66279 0.0
H2429 H 0.00344 0.24758 0.66949 0.0
C2430 C 0.97126 0.25758 0.68391 0.0
C2431 C 0.95418 0.26073 0.69211 0.0
C2432 C 0.97651 0.23986 0.67883 0.0
C2433 C 0.94206 0.24597 0.6942 0.0
C2434 C 0.94703 0.22841 0.68882 0.0
C2435 C 0.96985 0.20733 0.67725 0.0
C2436 C 0.98754 0.20385 0.67074 0.0
C2437 C 0.96434 0.22515 0.68149 0.0
C2438 C 0.99939 0.21864 0.66771 0.0
C2439 C 0.9939 0.23648 0.67165 0.0
H2440 H 0.38373 0.72028 0.31387 0.0
H2441 H 0.3897 0.7382 0.25815 0.0
H2442 H 0.41067 0.76214 0.26789 0.0
H2443 H 0.42571 0.77932 0.2923 0.0
H2444 H 0.4199 0.76194 0.34812 0.0
H2445 H 0.40099 0.73616 0.33824 0.0
C2446 C 0.38983 0.72927 0.30385 0.0
C2447 C 0.38483 0.72767 0.28535 0.0
C2448 C 0.40195 0.74309 0.30955 0.0
C2449 C 0.3929 0.73943 0.27254 0.0
C2450 C 0.40499 0.75306 0.27807 0.0
C2451 C 0.42036 0.76983 0.3023 0.0
C2452 C 0.42404 0.77265 0.32091 0.0
C2453 C 0.4093 0.75527 0.29656 0.0
C2454 C 0.41733 0.76004 0.33369 0.0
C2455 C 0.4064 0.74538 0.32806 0.0
H2456 H 0.97376 0.4791 0.75232 0.0
H2457 H 0.03192 0.48069 0.74385 0.0
H2458 H 0.0307 0.45108 0.72866 0.0
H2459 H 0.01308 0.42562 0.71641 0.0
H2460 H 0.95469 0.42416 0.72323 0.0
H2461 H 0.95604 0.45256 0.74086 0.0
C2462 C 0.98614 0.4728 0.74732 0.0
C2463 C 0.00288 0.48208 0.74903 0.0
C2464 C 0.9853 0.45584 0.73831 0.0
C2465 C 0.01885 0.47387 0.74245 0.0
C2466 C 0.01817 0.45695 0.73381 0.0
C2467 C 1.00061 0.43155 0.72165 0.0
C2468 C 0.98379 0.42292 0.71827 0.0
C2469 C 1.00145 0.44799 0.73138 0.0
C2470 C 0.96783 0.43051 0.72565 0.0
C2471 C 0.96858 0.44681 0.73563 0.0
H2472 H 0.77064 0.44673 0.49417 0.0
H2473 H 0.71487 0.42827 0.49867 0.0
H2474 H 0.70591 0.44848 0.47392 0.0
H2475 H 0.71419 0.46956 0.44952 0.0
H2476 H 0.77002 0.48724 0.44382 0.0
H2477 H 0.77872 0.46901 0.47039 0.0
C2478 C 0.75653 0.44711 0.48971 0.0
C2479 C 0.74347 0.43595 0.4983 0.0
C2480 C 0.75149 0.45856 0.47521 0.0
C2481 C 0.72519 0.43685 0.49252 0.0
C2482 C 0.72005 0.44832 0.47826 0.0
C2483 C 0.72819 0.46977 0.45433 0.0
C2484 C 0.74143 0.47981 0.44477 0.0
C2485 C 0.73312 0.45905 0.46937 0.0
C2486 C 0.7596 0.47958 0.45093 0.0
C2487 C 0.76457 0.46915 0.46609 0.0
H2488 H 0.69068 0.63572 0.28273 0.0
H2489 H 0.71736 0.59228 0.31205 0.0
H2490 H 0.69978 0.56974 0.29486 0.0
H2491 H 0.67832 0.56231 0.26986 0.0
H2492 H 0.65186 0.6062 0.24097 0.0
H2493 H 0.66713 0.62845 0.26032 0.0
C2494 C 0.69239 0.62137 0.28576 0.0
C2495 C 0.70564 0.61581 0.2985 0.0
C2496 C 0.6821 0.60845 0.27598 0.0
C2497 C 0.70767 0.59704 0.30198 0.0
C2498 C 0.69749 0.5841 0.29225 0.0
C2499 C 0.6758 0.57674 0.2679 0.0
C2500 C 0.66398 0.58248 0.25387 0.0
C2501 C 0.68495 0.58963 0.2789 0.0
C2502 C 0.66067 0.60126 0.25175 0.0
C2503 C 0.66956 0.61408 0.26271 0.0
H2504 H 0.23358 1.00187 0.5369 0.0
H2505 H 0.25241 0.05462 0.51909 0.0
H2506 H 0.26697 0.05979 0.54878 0.0
H2507 H 0.27547 0.0486 0.57929 0.0
H2508 H 0.25809 0.99483 0.59592 0.0
H2509 H 0.2414 0.99105 0.56746 0.0
C2510 C 0.24061 0.01463 0.53963 0.0
C2511 C 0.24188 0.02787 0.52588 0.0
C2512 C 0.24919 0.01733 0.55655 0.0
C2513 C 0.25133 0.04419 0.52947 0.0
C2514 C 0.25963 0.04715 0.54643 0.0
C2515 C 0.2681 0.03602 0.57668 0.0
C2516 C 0.26808 0.02205 0.58984 0.0
C2517 C 0.25889 0.03367 0.55998 0.0
C2518 C 0.25814 0.00598 0.58627 0.0
C2519 C 0.2487 0.0037 0.56988 0.0
H2520 H 0.3245 0.02868 0.72807 0.0
H2521 H 0.27892 0.05765 0.75111 0.0
H2522 H 0.28786 0.04798 0.78171 0.0
H2523 H 0.30873 0.03148 0.80198 0.0
H2524 H 0.35541 0.00399 0.77951 0.0
H2525 H 0.346 0.01278 0.74861 0.0
C2526 C 0.31657 0.03283 0.73983 0.0
C2527 C 0.30111 0.04388 0.73741 0.0
C2528 C 0.32197 0.02745 0.75743 0.0
C2529 C 0.29098 0.0493 0.7527 0.0
C2530 C 0.29603 0.04371 0.77017 0.0
C2531 C 0.31673 0.02733 0.79027 0.0
C2532 C 0.33259 0.01699 0.79288 0.0
C2533 C 0.31148 0.0328 0.7727 0.0
C2534 C 0.3431 0.01194 0.77772 0.0
C2535 C 0.33773 0.01696 0.7601 0.0
H2536 H 0.51455 0.73005 0.4648 0.0
H2537 H 0.48258 0.73524 0.4156 0.0
H2538 H 0.45507 0.73988 0.43366 0.0
H2539 H 0.43981 0.73988 0.46316 0.0
H2540 H 0.47146 0.73516 0.51266 0.0
H2541 H 0.4994 0.73279 0.49471 0.0
C2542 C 0.50155 0.73226 0.45808 0.0
C2543 C 0.50056 0.7322 0.43891 0.0
C2544 C 0.48575 0.73491 0.46856 0.0
C2545 C 0.4837 0.73533 0.43034 0.0
C2546 C 0.46796 0.73791 0.44065 0.0
C2547 C 0.45283 0.73885 0.47012 0.0
C2548 C 0.45346 0.73765 0.48928 0.0
C2549 C 0.46879 0.73746 0.45975 0.0
C2550 C 0.47051 0.7359 0.49794 0.0
C2551 C 0.48651 0.73456 0.48769 0.0
H2552 H 0.75125 0.28827 0.04738 0.0
H2553 H 0.72153 0.3372 0.03455 0.0
H2554 H 0.74938 0.35118 0.02236 0.0
H2555 H 0.78237 0.3494 0.01568 0.0
H2556 H 0.81151 0.29981 0.02764 0.0
H2557 H 0.78371 0.28607 0.03973 0.0
C2558 C 0.75096 0.30204 0.042 0.0
C2559 C 0.73452 0.31182 0.04199 0.0
C2560 C 0.76687 0.30978 0.03479 0.0
C2561 C 0.73411 0.32949 0.03468 0.0
C2562 C 0.75 0.33745 0.02775 0.0
C2563 C 0.78257 0.33559 0.02093 0.0
C2564 C 0.79894 0.32562 0.02077 0.0
C2565 C 0.76648 0.32773 0.02777 0.0
C2566 C 0.79903 0.30767 0.02744 0.0
C2567 C 0.78317 0.29986 0.03446 0.0
H2568 H 0.28491 0.73015 0.59352 0.0
H2569 H 0.30137 0.68246 0.62369 0.0
H2570 H 0.28235 0.6633 0.60397 0.0
H2571 H 0.25813 0.66071 0.58069 0.0
H2572 H 0.23958 0.70935 0.55315 0.0
H2573 H 0.26244 0.72731 0.56909 0.0
C2574 C 0.28435 0.71556 0.59584 0.0
C2575 C 0.29423 0.70787 0.61038 0.0
C2576 C 0.2729 0.70474 0.5849 0.0
C2577 C 0.29386 0.68882 0.61268 0.0
C2578 C 0.28286 0.67786 0.60148 0.0
C2579 C 0.25906 0.67523 0.57813 0.0
C2580 C 0.24688 0.68356 0.56576 0.0
C2581 C 0.27182 0.68576 0.58796 0.0
C2582 C 0.24878 0.70236 0.56233 0.0
C2583 C 0.26176 0.71277 0.57163 0.0
H2584 H 0.52627 0.25175 0.03582 0.0
H2585 H 0.53454 0.25455 0.97768 0.0
H2586 H 0.5655 0.26591 0.98244 0.0
H2587 H 0.58942 0.27679 0.00291 0.0
H2588 H 0.58138 0.27539 0.06112 0.0
H2589 H 0.5511 0.26174 0.05663 0.0
C2590 C 0.53499 0.25467 0.02426 0.0
C2591 C 0.52818 0.25243 0.00643 0.0
C2592 C 0.55271 0.26153 0.02711 0.0
C2593 C 0.53947 0.25637 0.99151 0.0
C2594 C 0.55716 0.26283 0.99422 0.0
C2595 C 0.58119 0.27318 0.01464 0.0
C2596 C 0.58764 0.27696 0.03231 0.0
C2597 C 0.56381 0.26569 0.01193 0.0
C2598 C 0.57665 0.27263 0.04737 0.0
C2599 C 0.55938 0.26483 0.0448 0.0
H2600 H 0.44066 0.50641 0.74655 0.0
H2601 H 0.42174 0.48397 0.7975 0.0
H2602 H 0.44201 0.4579 0.79374 0.0
H2603 H 0.46407 0.4408 0.77535 0.0
H2604 H 0.48073 0.46209 0.72306 0.0
H2605 H 0.46268 0.48936 0.72821 0.0
C2606 C 0.44084 0.49576 0.75678 0.0
C2607 C 0.4296 0.49717 0.77224 0.0
C2608 C 0.45226 0.48062 0.75437 0.0
C2609 C 0.43036 0.48339 0.78555 0.0
C2610 C 0.44189 0.4684 0.78336 0.0
C2611 C 0.46372 0.45133 0.76501 0.0
C2612 C 0.47384 0.44922 0.74882 0.0
C2613 C 0.45275 0.46677 0.76773 0.0
C2614 C 0.47344 0.46333 0.73582 0.0
C2615 C 0.46291 0.4789 0.73863 0.0
H2616 H 0.01285 0.73984 0.27991 0.0
H2617 H 0.07031 0.75284 0.28061 0.0
H2618 H 0.06339 0.78471 0.2867 0.0
H2619 H 0.04132 0.80826 0.29505 0.0
H2620 H 0.9839 0.7956 0.29528 0.0
H2621 H 0.99045 0.76429 0.28558 0.0
C2622 C 0.02383 0.7497 0.28123 0.0
C2623 C 0.04208 0.7439 0.27987 0.0
C2624 C 0.01977 0.76804 0.28508 0.0
C2625 C 0.05615 0.7569 0.28136 0.0
C2626 C 0.05222 0.77513 0.28503 0.0
C2627 C 0.03025 0.79865 0.29281 0.0
C2628 C 0.01219 0.80409 0.29607 0.0
C2629 C 0.03413 0.78074 0.28741 0.0
C2630 C 0.99791 0.79168 0.29284 0.0
C2631 C 1.00167 0.77378 0.2874 0.0
H2632 H 0.62966 0.28204 0.69337 0.0
H2633 H 0.58366 0.30879 0.7183 0.0
H2634 H 0.56277 0.28887 0.70148 0.0
H2635 H 0.5577 0.26207 0.68152 0.0
H2636 H 0.6041 0.23568 0.65691 0.0
H2637 H 0.62456 0.25756 0.67134 0.0
C2638 C 0.61507 0.28387 0.69483 0.0
C2639 C 0.60831 0.29679 0.70729 0.0
C2640 C 0.60314 0.27234 0.68518 0.0
C2641 C 0.5893 0.2987 0.70912 0.0
C2642 C 0.57732 0.28734 0.69945 0.0
C2643 C 0.57228 0.26122 0.67923 0.0
C2644 C 0.5793 0.24721 0.66813 0.0
C2645 C 0.5841 0.27378 0.68779 0.0
C2646 C 0.59823 0.24643 0.66515 0.0
C2647 C 0.61001 0.25886 0.67354 0.0
H2648 H 0.99366 0.53087 0.24163 0.0
H2649 H 0.04975 0.51445 0.24743 0.0
H2650 H 0.05762 0.5446 0.25975 0.0
H2651 H 0.0479 0.57487 0.27094 0.0
H2652 H 0.99152 0.59069 0.26518 0.0
H2653 H 0.98447 0.56166 0.25056 0.0
C2654 C 0.00763 0.53396 0.24552 0.0
C2655 C 0.02108 0.52049 0.24387 0.0
C2656 C 0.01198 0.5512 0.25259 0.0
C2657 C 0.03919 0.52468 0.24861 0.0
C2658 C 0.04365 0.54185 0.25572 0.0
C2659 C 0.03411 0.57197 0.26636 0.0
C2660 C 0.02026 0.58491 0.26919 0.0
C2661 C 0.03008 0.55511 0.25809 0.0
C2662 C 1.00249 0.58108 0.26299 0.0
C2663 C 0.99839 0.5644 0.25476 0.0
H2664 H 0.3548 0.65538 0.36837 0.0
H2665 H 0.38381 0.63673 0.41611 0.0
H2666 H 0.41266 0.64492 0.40203 0.0
H2667 H 0.42995 0.65551 0.37543 0.0
H2668 H 0.40123 0.67232 0.32693 0.0
H2669 H 0.37199 0.66651 0.34194 0.0
C2670 C 0.36737 0.653 0.3757 0.0
C2671 C 0.36691 0.64546 0.39336 0.0
C2672 C 0.38404 0.65734 0.36733 0.0
C2673 C 0.38352 0.6428 0.40267 0.0
C2674 C 0.40013 0.64734 0.39455 0.0
C2675 C 0.41728 0.65816 0.36826 0.0
C2676 C 0.41773 0.66436 0.35013 0.0
C2677 C 0.40057 0.65444 0.37683 0.0
C2678 C 0.40121 0.66746 0.34088 0.0
C2679 C 0.38451 0.66414 0.34944 0.0
H2680 H 0.1369 0.28829 0.62883 0.0
H2681 H 0.15112 0.3352 0.6617 0.0
H2682 H 0.11912 0.34374 0.66352 0.0
H2683 H 0.08704 0.33758 0.65657 0.0
H2684 H 0.07235 0.29039 0.62446 0.0
H2685 H 0.10455 0.282 0.62199 0.0
C2686 C 0.133 0.3003 0.63651 0.0
C2687 C 0.14651 0.31111 0.64503 0.0
C2688 C 0.11447 0.30503 0.63776 0.0
C2689 C 0.14114 0.32678 0.65471 0.0
C2690 C 0.1228 0.33162 0.6559 0.0
C2691 C 0.09089 0.32556 0.64884 0.0
C2692 C 0.07732 0.31469 0.64061 0.0
C2693 C 0.10936 0.32084 0.64751 0.0
C2694 C 0.08252 0.29894 0.63101 0.0
C2695 C 0.10093 0.29419 0.62953 0.0
H2696 H 0.85913 0.0595 0.65112 0.0
H2697 H 0.87336 0.0125 0.6187 0.0
H2698 H 0.90576 0.01908 0.62335 0.0
H2699 H 0.93011 0.03874 0.63607 0.0
H2700 H 0.91526 0.08587 0.66813 0.0
H2701 H 0.88315 0.07831 0.66463 0.0
C2702 C 0.86928 0.05048 0.64532 0.0
C2703 C 0.86376 0.03553 0.63458 0.0
C2704 C 0.88785 0.05432 0.64806 0.0
C2705 C 0.87719 0.02423 0.62686 0.0
C2706 C 0.89574 0.02794 0.62958 0.0
C2707 C 0.91984 0.04734 0.6423 0.0
C2708 C 0.9252 0.06279 0.65247 0.0
C2709 C 0.90124 0.04307 0.64001 0.0
C2710 C 0.91166 0.07369 0.66055 0.0
C2711 C 0.89322 0.06948 0.65841 0.0
H2712 H 0.62281 0.87388 0.38449 0.0
H2713 H 0.61918 0.92208 0.35119 0.0
H2714 H 0.58649 0.91665 0.34661 0.0
H2715 H 0.55931 0.89761 0.35137 0.0
H2716 H 0.56254 0.85148 0.38785 0.0
H2717 H 0.59513 0.85635 0.39132 0.0
C2718 C 0.61484 0.88315 0.37618 0.0
C2719 C 0.62337 0.89823 0.36801 0.0
C2720 C 0.59604 0.8802 0.37402 0.0
C2721 C 0.61286 0.9104 0.35765 0.0
C2722 C 0.59421 0.90727 0.355 0.0
C2723 C 0.56695 0.88879 0.36041 0.0
C2724 C 0.55824 0.87397 0.36905 0.0
C2725 C 0.58566 0.89218 0.36311 0.0
C2726 C 0.56873 0.86266 0.38049 0.0
C2727 C 0.58743 0.86554 0.38269 0.0
H2728 H 0.36535 0.34537 0.65738 0.0
H2729 H 0.41107 0.37453 0.63457 0.0
H2730 H 0.39653 0.40341 0.64183 0.0
H2731 H 0.37007 0.42044 0.6529 0.0
H2732 H 0.32423 0.39139 0.67547 0.0
H2733 H 0.33968 0.36245 0.67032 0.0
C2734 C 0.37226 0.35798 0.65416 0.0
C2735 C 0.38946 0.35758 0.64568 0.0
C2736 C 0.36377 0.37461 0.65832 0.0
C2737 C 0.39804 0.37424 0.64147 0.0
C2738 C 0.38967 0.39084 0.6455 0.0
C2739 C 0.3636 0.40781 0.65706 0.0
C2740 C 0.34598 0.40812 0.66463 0.0
C2741 C 0.37248 0.39119 0.65379 0.0
C2742 C 0.3377 0.39156 0.66956 0.0
C2743 C 0.34653 0.37498 0.66655 0.0
H2744 H 0.38566 0.62526 0.87499 0.0
H2745 H 0.34213 0.61849 0.91384 0.0
H2746 H 0.33756 0.58716 0.90355 0.0
H2747 H 0.34529 0.56198 0.88279 0.0
H2748 H 0.39082 0.56819 0.84593 0.0
H2749 H 0.39461 0.59963 0.85567 0.0
C2750 C 0.37502 0.61704 0.88112 0.0
C2751 C 0.36385 0.62456 0.89482 0.0
C2752 C 0.37265 0.59893 0.87532 0.0
C2753 C 0.35073 0.6133 0.90309 0.0
C2754 C 0.34809 0.59533 0.89718 0.0
C2755 C 0.35626 0.57002 0.87703 0.0
C2756 C 0.36759 0.56248 0.86342 0.0
C2757 C 0.35889 0.58803 0.88318 0.0
C2758 C 0.38148 0.57351 0.85602 0.0
C2759 C 0.38386 0.59153 0.86175 0.0
H2760 H 0.66768 0.12847 0.28815 0.0
H2761 H 0.61362 0.13207 0.3109 0.0
H2762 H 0.61347 0.09921 0.31637 0.0
H2763 H 0.62921 0.06969 0.3159 0.0
H2764 H 0.68362 0.06624 0.29391 0.0
H2765 H 0.68297 0.0987 0.28662 0.0
C2766 C 0.6559 0.12206 0.29437 0.0
C2767 C 0.64074 0.13272 0.29923 0.0
C2768 C 0.65591 0.10316 0.29749 0.0
C2769 C 0.62543 0.12416 0.30695 0.0
C2770 C 0.62536 0.10539 0.31014 0.0
C2771 C 0.64092 0.07604 0.30949 0.0
C2772 C 0.65646 0.06552 0.30554 0.0
C2773 C 0.64059 0.09478 0.30562 0.0
C2774 C 0.67139 0.07391 0.29692 0.0
C2775 C 0.67111 0.09253 0.29291 0.0
H2776 H 0.6043 0.86779 0.04956 0.0
H2777 H 0.66057 0.86039 0.03423 0.0
H2778 H 0.66704 0.89226 0.04164 0.0
H2779 H 0.65717 0.92162 0.05443 0.0
H2780 H 0.60108 0.92853 0.07071 0.0
H2781 H 0.59397 0.89774 0.06025 0.0
C2782 C 0.6179 0.87322 0.04749 0.0
C2783 C 0.63195 0.86164 0.04148 0.0
C2784 C 0.62156 0.89153 0.05188 0.0
C2785 C 0.64956 0.8689 0.03912 0.0
C2786 C 0.65326 0.88716 0.04327 0.0
C2787 C 0.64337 0.91642 0.05563 0.0
C2788 C 0.62974 0.92741 0.06347 0.0
C2789 C 0.63945 0.89849 0.05003 0.0
C2790 C 0.61184 0.92053 0.06456 0.0
C2791 C 0.60778 0.90282 0.05876 0.0
H2792 H 0.67376 0.39312 0.36557 0.0
H2793 H 0.62304 0.36895 0.34775 0.0
H2794 H 0.62429 0.34732 0.37297 0.0
H2795 H 0.63822 0.33723 0.40161 0.0
H2796 H 0.68873 0.36159 0.41986 0.0
H2797 H 0.68901 0.38136 0.39305 0.0
C2798 C 0.663 0.38312 0.36721 0.0
C2799 C 0.64823 0.38279 0.3549 0.0
C2800 C 0.66368 0.37086 0.38189 0.0
C2801 C 0.63459 0.36946 0.35697 0.0
C2802 C 0.63524 0.35715 0.37146 0.0
C2803 C 0.64952 0.34656 0.39955 0.0
C2804 C 0.66338 0.34798 0.41281 0.0
C2805 C 0.64952 0.35796 0.3842 0.0
C2806 C 0.67776 0.36039 0.41 0.0
C2807 C 0.67795 0.37167 0.39466 0.0
H2808 H 0.90946 0.35433 0.61312 0.0
H2809 H 0.85447 0.36576 0.63064 0.0
H2810 H 0.84345 0.36134 0.59967 0.0
H2811 H 0.84919 0.35369 0.5676 0.0
H2812 H 0.90446 0.34398 0.54988 0.0
H2813 H 0.91538 0.34796 0.58098 0.0
C2814 C 0.89508 0.35598 0.61027 0.0
C2815 C 0.8829 0.36001 0.62453 0.0
C2816 C 0.88877 0.3536 0.59231 0.0
C2817 C 0.86426 0.36212 0.62025 0.0
C2818 C 0.85789 0.35977 0.60242 0.0
C2819 C 0.86366 0.35269 0.57041 0.0
C2820 C 0.87585 0.34832 0.55625 0.0
C2821 C 0.87001 0.35541 0.58834 0.0
C2822 C 0.89456 0.34683 0.56043 0.0
C2823 C 0.90092 0.34932 0.57824 0.0
H2824 H 0.33163 0.6514 0.15669 0.0
H2825 H 0.2788 0.62684 0.14774 0.0
H2826 H 0.28243 0.63036 0.11484 0.0
H2827 H 0.29995 0.64207 0.08853 0.0
H2828 H 0.35197 0.66802 0.09802 0.0
H2829 H 0.34918 0.66259 0.13072 0.0
C2830 C 0.32082 0.64694 0.14759 0.0
C2831 C 0.30493 0.63895 0.15479 0.0
C2832 C 0.3228 0.64937 0.12872 0.0
C2833 C 0.29128 0.63286 0.14266 0.0
C2834 C 0.29327 0.63499 0.12381 0.0
C2835 C 0.31071 0.64635 0.09779 0.0
C2836 C 0.32608 0.65553 0.09091 0.0
C2837 C 0.30889 0.64341 0.11667 0.0
C2838 C 0.3399 0.66113 0.10303 0.0
C2839 C 0.33834 0.65799 0.12172 0.0
H2840 H 0.0276 0.65232 0.86404 0.0
H2841 H 0.04786 0.59723 0.86744 0.0
H2842 H 0.05583 0.60196 0.89943 0.0
H2843 H 0.05962 0.62253 0.92561 0.0
H2844 H 0.04005 0.67784 0.92217 0.0
H2845 H 0.02945 0.6723 0.891 0.0
C2846 C 0.03373 0.64134 0.8718 0.0
C2847 C 0.03719 0.62448 0.86329 0.0
C2848 C 0.03855 0.64423 0.89015 0.0
C2849 C 0.04485 0.6103 0.87365 0.0
C2850 C 0.04956 0.61302 0.89193 0.0
C2851 C 0.05268 0.63326 0.9182 0.0
C2852 C 0.05073 0.65061 0.92619 0.0
C2853 C 0.04677 0.63003 0.90023 0.0
C2854 C 0.04193 0.66443 0.91626 0.0
C2855 C 0.03585 0.66127 0.89844 0.0
H2856 H 0.65826 0.36999 0.65214 0.0
H2857 H 0.63613 0.3349 0.61009 0.0
H2858 H 0.60898 0.32975 0.62835 0.0
H2859 H 0.59012 0.33759 0.65496 0.0
H2860 H 0.61217 0.37284 0.69673 0.0
H2861 H 0.64095 0.37503 0.68014 0.0
C2862 C 0.64775 0.36087 0.64706 0.0
C2863 C 0.64934 0.35305 0.62956 0.0
C2864 C 0.63206 0.35799 0.65762 0.0
C2865 C 0.63527 0.34149 0.62328 0.0
C2866 C 0.61971 0.33841 0.63378 0.0
C2867 C 0.60138 0.3454 0.66061 0.0
C2868 C 0.59898 0.3552 0.67693 0.0
C2869 C 0.61775 0.34695 0.65078 0.0
C2870 C 0.61364 0.36538 0.68405 0.0
C2871 C 0.63007 0.36666 0.67456 0.0
H2872 H 0.864 0.69234 0.32671 0.0
H2873 H 0.86707 0.71506 0.38097 0.0
H2874 H 0.90015 0.71097 0.38114 0.0
H2875 H 0.92835 0.70147 0.36555 0.0
H2876 H 0.92474 0.67791 0.31161 0.0
H2877 H 0.89181 0.68185 0.31169 0.0
C2878 C 0.87185 0.69615 0.3387 0.0
C2879 C 0.86302 0.70398 0.3538 0.0
C2880 C 0.89084 0.69377 0.33871 0.0
C2881 C 0.87351 0.70916 0.36907 0.0
C2882 C 0.89243 0.70678 0.36921 0.0
C2883 C 0.92035 0.69708 0.35387 0.0
C2884 C 0.92914 0.68962 0.33852 0.0
C2885 C 0.90128 0.6992 0.35404 0.0
C2886 C 0.91849 0.68411 0.32346 0.0
C2887 C 0.89959 0.6862 0.32353 0.0
H2888 H 0.14725 0.93384 0.37515 0.0
H2889 H 0.13077 0.98837 0.38963 0.0
H2890 H 0.09884 0.98032 0.38376 0.0
H2891 H 0.07551 0.95745 0.3748 0.0
H2892 H 0.09275 0.90313 0.36017 0.0
H2893 H 0.12442 0.91149 0.36568 0.0
C2894 C 0.13673 0.94407 0.37678 0.0
C2895 C 0.14143 0.9617 0.38272 0.0
C2896 C 0.11847 0.93934 0.37343 0.0
C2897 C 0.12752 0.97465 0.38518 0.0
C2898 C 0.10927 0.97007 0.38176 0.0
C2899 C 0.08623 0.94751 0.37274 0.0
C2900 C 0.08171 0.92963 0.36729 0.0
C2901 C 0.10456 0.95242 0.37594 0.0
C2902 C 0.09577 0.91688 0.36473 0.0
C2903 C 0.11393 0.92167 0.36776 0.0
H2904 H 0.39472 0.08991 0.639 0.0
H2905 H 0.37221 0.14423 0.63787 0.0
H2906 H 0.4028 0.15719 0.63873 0.0
H2907 H 0.43619 0.1532 0.64012 0.0
H2908 H 0.45855 0.09892 0.64143 0.0
H2909 H 0.42785 0.08591 0.64039 0.0
C2910 C 0.39645 0.10459 0.63902 0.0
C2911 C 0.38105 0.11601 0.6386 0.0
C2912 C 0.41413 0.11201 0.63966 0.0
C2913 C 0.38371 0.13503 0.63855 0.0
C2914 C 0.40125 0.1425 0.63892 0.0
C2915 C 0.43429 0.13854 0.6403 0.0
C2916 C 0.4496 0.12705 0.64087 0.0
C2917 C 0.41658 0.13113 0.63961 0.0
C2918 C 0.44698 0.10805 0.64085 0.0
C2919 C 0.42943 0.1006 0.64031 0.0
H2920 H 0.61265 0.63175 0.34602 0.0
H2921 H 0.66269 0.65613 0.32695 0.0
H2922 H 0.67626 0.62594 0.32364 0.0
H2923 H 0.67474 0.59274 0.32841 0.0
H2924 H 0.6249 0.56859 0.34811 0.0
H2925 H 0.61024 0.59849 0.3483 0.0
C2926 C 0.6264 0.63047 0.34076 0.0
C2927 C 0.63668 0.64622 0.33695 0.0
C2928 C 0.63415 0.61307 0.3389 0.0
C2929 C 0.65457 0.64426 0.33034 0.0
C2930 C 0.66231 0.62699 0.32829 0.0
C2931 C 0.66055 0.59401 0.33234 0.0
C2932 C 0.65092 0.57854 0.33833 0.0
C2933 C 0.65236 0.61131 0.33286 0.0
C2934 C 0.63261 0.58037 0.3436 0.0
C2935 C 0.62425 0.59744 0.34375 0.0
H2936 H 0.64944 0.3922 0.10105 0.0
H2937 H 0.6455 0.37006 0.15541 0.0
H2938 H 0.64678 0.40065 0.16827 0.0
H2939 H 0.6475 0.43401 0.16412 0.0
H2940 H 0.65041 0.45611 0.10978 0.0
H2941 H 0.65108 0.42532 0.09693 0.0
C2942 C 0.64883 0.39402 0.1157 0.0
C2943 C 0.64748 0.37871 0.12715 0.0
C2944 C 0.64935 0.41174 0.12306 0.0
C2945 C 0.64685 0.38147 0.14617 0.0
C2946 C 0.64744 0.39903 0.15359 0.0
C2947 C 0.64852 0.43203 0.14949 0.0
C2948 C 0.64884 0.44728 0.13791 0.0
C2949 C 0.64858 0.41428 0.14217 0.0
C2950 C 0.64996 0.44456 0.11896 0.0
C2951 C 0.65034 0.42698 0.11161 0.0
H2952 H 0.32915 0.86694 0.72042 0.0
H2953 H 0.37567 0.86489 0.68465 0.0
H2954 H 0.37471 0.89808 0.68118 0.0
H2955 H 0.35952 0.92741 0.68697 0.0
H2956 H 0.31336 0.92936 0.72332 0.0
H2957 H 0.31522 0.89646 0.72776 0.0
C2958 C 0.33905 0.87378 0.71183 0.0
C2959 C 0.35235 0.86349 0.70266 0.0
C2960 C 0.33844 0.89282 0.70995 0.0
C2961 C 0.36532 0.87253 0.69187 0.0
C2962 C 0.36474 0.89149 0.68984 0.0
C2963 C 0.35008 0.92072 0.69614 0.0
C2964 C 0.33623 0.93089 0.70468 0.0
C2965 C 0.35124 0.90175 0.69868 0.0
C2966 C 0.32396 0.92187 0.71632 0.0
C2967 C 0.32505 0.90305 0.71892 0.0
H2968 H 0.36203 0.14597 0.95879 0.0
H2969 H 0.4199 0.14705 0.94827 0.0
H2970 H 0.41888 0.11524 0.93859 0.0
H2971 H 0.40134 0.0876 0.93143 0.0
H2972 H 0.34335 0.08657 0.94104 0.0
H2973 H 0.34466 0.11772 0.95291 0.0
C2974 C 0.37441 0.13922 0.95439 0.0
C2975 C 0.391 0.14892 0.95424 0.0
C2976 C 0.37371 0.12091 0.94866 0.0
C2977 C 0.40697 0.13988 0.94874 0.0
C2978 C 0.40639 0.12171 0.94307 0.0
C2979 C 0.38899 0.09419 0.93614 0.0
C2980 C 0.37227 0.08479 0.93524 0.0
C2981 C 0.38981 0.11217 0.94274 0.0
C2982 C 0.35644 0.09342 0.94172 0.0
C2983 C 0.35715 0.11129 0.94838 0.0
H2984 H 0.36645 0.64851 0.66946 0.0
H2985 H 0.33329 0.60467 0.64786 0.0
H2986 H 0.32792 0.62213 0.62014 0.0
H2987 H 0.33516 0.64868 0.6007 0.0
H2988 H 0.36818 0.69225 0.62265 0.0
H2989 H 0.3703 0.67644 0.65187 0.0
C2990 C 0.3577 0.64283 0.65895 0.0
C2991 C 0.35063 0.62505 0.66078 0.0
C2992 C 0.35452 0.65299 0.64305 0.0
C2993 C 0.33949 0.61803 0.64671 0.0
C2994 C 0.3362 0.62811 0.63087 0.0
C2995 C 0.34243 0.65486 0.61205 0.0
C2996 C 0.35167 0.67148 0.60953 0.0
C2997 C 0.34403 0.64542 0.62868 0.0
C2998 C 0.36113 0.67935 0.62428 0.0
C2999 C 0.36243 0.67028 0.64093 0.0
H3000 H 0.09465 0.63151 0.38845 0.0
H3001 H 0.14882 0.61659 0.37091 0.0
H3002 H 0.16026 0.62104 0.40172 0.0
H3003 H 0.15506 0.62917 0.4339 0.0
H3004 H 0.10068 0.64197 0.45187 0.0
H3005 H 0.08914 0.63813 0.42071 0.0
C3006 C 0.10889 0.62891 0.39131 0.0
C3007 C 0.12077 0.62396 0.37708 0.0
C3008 C 0.11539 0.63108 0.40924 0.0
C3009 C 0.13929 0.6209 0.38129 0.0
C3010 C 0.14589 0.62326 0.39903 0.0
C3011 C 0.1407 0.63111 0.43093 0.0
C3012 C 0.12872 0.63586 0.44506 0.0
C3013 C 0.1341 0.62847 0.41309 0.0
C3014 C 0.11011 0.63822 0.44116 0.0
C3015 C 0.10352 0.63601 0.42338 0.0
H3016 H 0.68716 0.37141 0.87148 0.0
H3017 H 0.71429 0.31955 0.86649 0.0
H3018 H 0.7137 0.31578 0.89957 0.0
H3019 H 0.70504 0.32687 0.92975 0.0
H3020 H 0.67575 0.37764 0.93482 0.0
H3021 H 0.67825 0.38248 0.90203 0.0
C3022 C 0.69301 0.35935 0.8777 0.0
C3023 C 0.70066 0.34572 0.86659 0.0
C3024 C 0.6924 0.35715 0.89675 0.0
C3025 C 0.70811 0.33011 0.87476 0.0
C3026 C 0.70787 0.32799 0.89367 0.0
C3027 C 0.69901 0.33893 0.92374 0.0
C3028 C 0.69015 0.35179 0.9349 0.0
C3029 C 0.69991 0.34134 0.90478 0.0
C3030 C 0.6829 0.36758 0.92675 0.0
C3031 C 0.68414 0.37029 0.90791 0.0
H3032 H 0.9565 0.40671 0.13945 0.0
H3033 H 0.9678 0.34918 0.14384 0.0
H3034 H 0.95809 0.34462 0.11221 0.0
H3035 H 0.94443 0.3567 0.084 0.0
H3036 H 0.93284 0.41419 0.07995 0.0
H3037 H 0.94489 0.41909 0.11069 0.0
C3038 C 0.95719 0.39322 0.1334 0.0
C3039 C 0.96283 0.3783 0.14403 0.0
C3040 C 0.95146 0.39069 0.11528 0.0
C3041 C 0.96331 0.36086 0.13603 0.0
C3042 C 0.95782 0.35826 0.11793 0.0
C3043 C 0.94487 0.37035 0.08973 0.0
C3044 C 0.93769 0.38505 0.07975 0.0
C3045 C 0.95159 0.37302 0.10752 0.0
C3046 C 0.93812 0.40263 0.08745 0.0
C3047 C 0.94502 0.40544 0.105 0.0
loop_
_geom_bond_atom_site_label_1
_geom_bond_atom_site_label_2
_geom_bond_distance
_geom_bond_site_symmetry_2
_ccdc_geom_bond_type
C0 C1 1.264 . S
C0 C5 1.479 . S
C0 C10 1.465 . S
C1 C0 1.264 . S
C1 C3 1.339 . S
C1 H28 0.931 . S
C2 C3 1.395 . S
C2 C4 1.320 . S
C3 C1 1.339 . S
C3 C2 1.395 . S
C3 H29 0.929 . S
C4 C2 1.320 . S
C4 C5 1.405 . S
C4 H30 0.930 . S
C5 C0 1.479 . S
C5 C4 1.405 . S
C5 H31 0.931 . S
U6 O7 2.454 . S
U6 O8 2.458 . S
U6 C9 2.984 . S
U6 C10 2.847 . S
U6 C23 2.882 . S
U6 O24 2.441 . S
U6 O25 2.420 . S
U6 O26 2.455 . S
U6 O27 2.449 . S
O7 U6 2.454 . S
O7 C9 1.353 . S
O8 U6 2.458 . S
O8 C9 1.286 . S
C9 U6 2.984 . S
C9 O7 1.353 . S
C9 O8 1.286 . S
C9 C11 1.363 . S
C10 C0 1.465 . S
C10 U6 2.847 . S
C10 O24 1.249 . S
C10 O25 1.202 . S
C11 C9 1.363 . S
C11 C13 1.408 . S
C11 C16 1.342 . S
C12 C13 1.310 . S
C12 C15 1.461 . S
C12 H32 0.932 . S
C13 C11 1.408 . S
C13 C12 1.310 . S
C13 H33 0.930 . S
C14 C15 1.474 . S
C14 C16 1.285 . S
C14 H34 0.929 . S
C15 C12 1.461 . S
C15 C14 1.474 . S
C16 C11 1.342 . S
C16 C14 1.285 . S
C16 H35 0.930 . S
C17 C20 1.424 . S
C17 C22 1.245 . S
C17 C23 1.428 . S
C18 C21 1.260 . S
C18 C22 1.477 . S
C18 H36 0.932 . S
C19 C20 1.384 . S
C19 C21 1.479 . S
C19 H37 0.929 . S
C20 C17 1.424 . S
C20 C19 1.384 . S
C20 H38 0.928 . S
C21 C18 1.260 . S
C21 C19 1.479 . S
C22 C17 1.245 . S
C22 C18 1.477 . S
C22 H39 0.932 . S
C23 U6 2.882 . S
C23 C17 1.428 . S
C23 O26 1.301 . S
C23 O27 1.282 . S
O24 U6 2.441 . S
O24 C10 1.249 . S
O25 U6 2.420 . S
O25 C10 1.202 . S
O26 U6 2.455 . S
O26 C23 1.301 . S
O27 U6 2.449 . S
O27 C23 1.282 . S
H28 C1 0.931 . S
H29 C3 0.929 . S
H30 C4 0.930 . S
H31 C5 0.931 . S
H32 C12 0.932 . S
H33 C13 0.930 . S
H34 C14 0.929 . S
H35 C16 0.930 . S
H36 C18 0.932 . S
H37 C19 0.929 . S
H38 C20 0.928 . S
H39 C22 0.932 . S
C40 C41 1.264 . S
C40 C45 1.479 . S
C40 C50 1.465 . S
C41 C40 1.264 . S
C41 C43 1.339 . S
C41 H68 0.931 . S
C42 C43 1.395 . S
C42 C44 1.320 . S
C43 C41 1.339 . S
C43 C42 1.395 . S
C43 H69 0.929 . S
C44 C42 1.320 . S
C44 C45 1.405 . S
C44 H70 0.930 . S
C45 C40 1.479 . S
C45 C44 1.405 . S
C45 H71 0.931 . S
U46 O47 2.454 . S
U46 O48 2.458 . S
U46 C49 2.984 . S
U46 C50 2.847 . S
U46 C63 2.882 . S
U46 O64 2.441 . S
U46 O65 2.420 . S
U46 O66 2.455 . S
U46 O67 2.449 . S
O47 U46 2.454 . S
O47 C49 1.353 . S
O48 U46 2.458 . S
O48 C49 1.286 . S
C49 U46 2.984 . S
C49 O47 1.353 . S
C49 O48 1.286 . S
C49 C51 1.363 . S
C50 C40 1.465 . S
C50 U46 2.847 . S
C50 O64 1.249 . S
C50 O65 1.202 . S
C51 C49 1.363 . S
C51 C53 1.408 . S
C51 C56 1.342 . S
C52 C53 1.310 . S
C52 C55 1.461 . S
C52 H72 0.932 . S
C53 C51 1.408 . S
C53 C52 1.310 . S
C53 H73 0.930 . S
C54 C55 1.474 . S
C54 C56 1.285 . S
C54 H74 0.929 . S
C55 C52 1.461 . S
C55 C54 1.474 . S
C56 C51 1.342 . S
C56 C54 1.285 . S
C56 H75 0.930 . S
C57 C60 1.424 . S
C57 C62 1.245 . S
C57 C63 1.428 . S
C58 C61 1.260 . S
C58 C62 1.477 . S
C58 H76 0.932 . S
C59 C60 1.384 . S
C59 C61 1.479 . S
C59 H77 0.929 . S
C60 C57 1.424 . S
C60 C59 1.384 . S
C60 H78 0.928 . S
C61 C58 1.260 . S
C61 C59 1.479 . S
C62 C57 1.245 . S
C62 C58 1.477 . S
C62 H79 0.932 . S
C63 U46 2.882 . S
C63 C57 1.428 . S
C63 O66 1.301 . S
C63 O67 1.282 . S
O64 U46 2.441 . S
O64 C50 1.249 . S
O65 U46 2.420 . S
O65 C50 1.202 . S
O66 U46 2.455 . S
O66 C63 1.301 . S
O67 U46 2.449 . S
O67 C63 1.282 . S
H68 C41 0.931 . S
H69 C43 0.929 . S
H70 C44 0.930 . S
H71 C45 0.931 . S
H72 C52 0.932 . S
H73 C53 0.930 . S
H74 C54 0.929 . S
H75 C56 0.930 . S
H76 C58 0.932 . S
H77 C59 0.929 . S
H78 C60 0.928 . S
H79 C62 0.932 . S
C80 C81 1.264 . S
C80 C85 1.479 1_565 S
C80 C90 1.465 . S
C81 C80 1.264 . S
C81 C83 1.339 . S
C81 H108 0.931 . S
C82 C83 1.395 1_545 S
C82 C84 1.320 . S
C83 C81 1.339 . S
C83 C82 1.395 1_565 S
C83 H109 0.929 . S
C84 C82 1.320 . S
C84 C85 1.405 . S
C84 H110 0.930 . S
C85 C80 1.479 1_545 S
C85 C84 1.405 . S
C85 H111 0.931 . S
U86 O87 2.454 1_565 S
U86 O88 2.458 1_565 S
U86 C89 2.984 1_565 S
U86 C90 2.847 . S
U86 C103 2.882 . S
U86 O104 2.446 . S
U86 O105 2.420 . S
U86 O106 2.455 . S
U86 O107 2.449 . S
O87 U86 2.454 1_545 S
O87 C89 1.353 . S
O88 U86 2.458 1_545 S
O88 C89 1.286 . S
C89 U86 2.984 1_545 S
C89 O87 1.353 . S
C89 O88 1.286 . S
C89 C91 1.363 . S
C90 C80 1.465 . S
C90 U86 2.847 . S
C90 O104 1.258 . S
C90 O105 1.202 . S
C91 C89 1.363 . S
C91 C93 1.408 . S
C91 C96 1.342 . S
C92 C93 1.310 . S
C92 C95 1.461 . S
C92 H112 0.932 . S
C93 C91 1.408 . S
C93 C92 1.310 . S
C93 H113 0.930 . S
C94 C95 1.474 . S
C94 C96 1.285 . S
C94 H114 0.929 . S
C95 C92 1.461 . S
C95 C94 1.474 . S
C96 C91 1.342 . S
C96 C94 1.285 . S
C96 H115 0.930 . S
C97 C100 1.424 . S
C97 C102 1.245 . S
C97 C103 1.428 . S
C98 C101 1.260 . S
C98 C102 1.477 . S
C98 H116 0.932 . S
C99 C100 1.384 . S
C99 C101 1.479 . S
C99 H117 0.929 . S
C100 C97 1.424 . S
C100 C99 1.384 . S
C100 H118 0.928 . S
C101 C98 1.260 . S
C101 C99 1.479 . S
C102 C97 1.245 . S
C102 C98 1.477 . S
C102 H119 0.932 . S
C103 U86 2.882 . S
C103 C97 1.428 . S
C103 O106 1.301 . S
C103 O107 1.282 . S
O104 U86 2.446 . S
O104 C90 1.258 . S
O105 U86 2.420 . S
O105 C90 1.202 . S
O106 U86 2.455 . S
O106 C103 1.301 . S
O107 U86 2.449 . S
O107 C103 1.282 . S
H108 C81 0.931 . S
H109 C83 0.929 . S
H110 C84 0.930 . S
H111 C85 0.931 . S
H112 C92 0.932 . S
H113 C93 0.930 . S
H114 C94 0.929 . S
H115 C96 0.930 . S
H116 C98 0.932 . S
H117 C99 0.929 . S
H118 C100 0.928 . S
H119 C102 0.932 . S
C120 C121 1.264 . S
C120 C125 1.479 . S
C120 C130 1.465 . S
C121 C120 1.264 . S
C121 C123 1.339 . S
C121 H148 0.931 . S
C122 C123 1.395 . S
C122 C124 1.320 . S
C123 C121 1.339 . S
C123 C122 1.395 . S
C123 H149 0.929 . S
C124 C122 1.320 . S
C124 C125 1.405 . S
C124 H150 0.930 . S
C125 C120 1.479 . S
C125 C124 1.405 . S
C125 H151 0.931 . S
U126 O127 2.454 . S
U126 O128 2.458 . S
U126 C129 2.984 . S
U126 C130 2.847 . S
U126 C143 2.882 . S
U126 O144 2.441 . S
U126 O145 2.420 . S
U126 O146 2.455 . S
U126 O147 2.449 . S
O127 U126 2.454 . S
O127 C129 1.353 . S
O128 U126 2.458 . S
O128 C129 1.286 . S
C129 U126 2.984 . S
C129 O127 1.353 . S
C129 O128 1.286 . S
C129 C131 1.363 . S
C130 C120 1.465 . S
C130 U126 2.847 . S
C130 O144 1.249 . S
C130 O145 1.202 . S
C131 C129 1.363 . S
C131 C133 1.408 . S
C131 C136 1.342 . S
C132 C133 1.310 . S
C132 C135 1.461 . S
C132 H152 0.932 . S
C133 C131 1.408 . S
C133 C132 1.310 . S
C133 H153 0.930 . S
C134 C135 1.474 . S
C134 C136 1.285 . S
C134 H154 0.929 . S
C135 C132 1.461 . S
C135 C134 1.474 . S
C136 C131 1.342 . S
C136 C134 1.285 . S
C136 H155 0.930 . S
C137 C140 1.424 . S
C137 C142 1.245 . S
C137 C143 1.428 . S
C138 C141 1.260 . S
C138 C142 1.477 1_545 S
C138 H156 0.932 . S
C139 C140 1.384 . S
C139 C141 1.479 1_565 S
C139 H157 0.929 . S
C140 C137 1.424 . S
C140 C139 1.384 . S
C140 H158 0.928 . S
C141 C138 1.260 . S
C141 C139 1.479 1_545 S
C142 C137 1.245 . S
C142 C138 1.477 1_565 S
C142 H159 0.932 . S
C143 U126 2.882 . S
C143 C137 1.428 . S
C143 O146 1.301 . S
C143 O147 1.282 . S
O144 U126 2.441 . S
O144 C130 1.249 . S
O145 U126 2.420 . S
O145 C130 1.202 . S
O146 U126 2.455 . S
O146 C143 1.301 . S
O147 U126 2.449 . S
O147 C143 1.282 . S
H148 C121 0.931 . S
H149 C123 0.929 . S
H150 C124 0.930 . S
H151 C125 0.931 . S
H152 C132 0.932 . S
H153 C133 0.930 . S
H154 C134 0.929 . S
H155 C136 0.930 . S
H156 C138 0.932 . S
H157 C139 0.929 . S
H158 C140 0.928 . S
H159 C142 0.932 . S
C160 C161 1.264 . S
C160 C165 1.479 . S
C160 C170 1.465 . S
C161 C160 1.264 . S
C161 C163 1.339 . S
C161 H188 0.931 . S
C162 C163 1.395 . S
C162 C164 1.320 . S
C163 C161 1.339 . S
C163 C162 1.395 . S
C163 H189 0.929 . S
C164 C162 1.320 . S
C164 C165 1.405 . S
C164 H190 0.930 . S
C165 C160 1.479 . S
C165 C164 1.405 . S
C165 H191 0.931 . S
U166 O167 2.454 . S
U166 O168 2.458 . S
U166 C169 2.984 . S
U166 C170 2.847 . S
U166 C183 2.882 . S
U166 O184 2.441 . S
U166 O185 2.420 . S
U166 O186 2.455 . S
U166 O187 2.449 . S
O167 U166 2.454 . S
O167 C169 1.353 . S
O168 U166 2.458 . S
O168 C169 1.286 . S
C169 U166 2.984 . S
C169 O167 1.353 . S
C169 O168 1.286 . S
C169 C171 1.363 . S
C170 C160 1.465 . S
C170 U166 2.847 . S
C170 O184 1.249 . S
C170 O185 1.202 . S
C171 C169 1.363 . S
C171 C173 1.408 . S
C171 C176 1.342 . S
C172 C173 1.310 . S
C172 C175 1.461 . S
C172 H192 0.932 . S
C173 C171 1.408 . S
C173 C172 1.310 . S
C173 H193 0.930 . S
C174 C175 1.474 . S
C174 C176 1.285 . S
C174 H194 0.929 . S
C175 C172 1.461 . S
C175 C174 1.474 . S
C176 C171 1.342 . S
C176 C174 1.285 . S
C176 H195 0.930 . S
C177 C180 1.424 . S
C177 C182 1.245 . S
C177 C183 1.428 . S
C178 C181 1.260 . S
C178 C182 1.477 . S
C178 H196 0.932 . S
C179 C180 1.384 . S
C179 C181 1.479 . S
C179 H197 0.929 . S
C180 C177 1.424 . S
C180 C179 1.384 . S
C180 H198 0.928 . S
C181 C178 1.260 . S
C181 C179 1.479 . S
C182 C177 1.245 . S
C182 C178 1.477 . S
C182 H199 0.932 . S
C183 U166 2.882 . S
C183 C177 1.428 . S
C183 O186 1.301 . S
C183 O187 1.282 . S
O184 U166 2.441 . S
O184 C170 1.249 . S
O185 U166 2.420 . S
O185 C170 1.202 . S
O186 U166 2.455 . S
O186 C183 1.301 . S
O187 U166 2.449 . S
O187 C183 1.282 . S
H188 C161 0.931 . S
H189 C163 0.929 . S
H190 C164 0.930 . S
H191 C165 0.931 . S
H192 C172 0.932 . S
H193 C173 0.930 . S
H194 C174 0.929 . S
H195 C176 0.930 . S
H196 C178 0.932 . S
H197 C179 0.929 . S
H198 C180 0.928 . S
H199 C182 0.932 . S
C200 C201 1.264 . S
C200 C205 1.479 . S
C200 C210 1.465 . S
C201 C200 1.264 . S
C201 C203 1.339 . S
C201 H228 0.931 . S
C202 C203 1.395 . S
C202 C204 1.320 . S
C203 C201 1.339 . S
C203 C202 1.395 . S
C203 H229 0.929 . S
C204 C202 1.320 . S
C204 C205 1.405 . S
C204 H230 0.930 . S
C205 C200 1.479 . S
C205 C204 1.405 . S
C205 H231 0.931 . S
U206 O207 2.454 . S
U206 O208 2.458 . S
U206 C209 2.984 . S
U206 C210 2.847 . S
U206 C223 2.882 . S
U206 O224 2.441 . S
U206 O225 2.420 . S
U206 O226 2.455 . S
U206 O227 2.449 . S
O207 U206 2.454 . S
O207 C209 1.353 . S
O208 U206 2.458 . S
O208 C209 1.286 . S
C209 U206 2.984 . S
C209 O207 1.353 . S
C209 O208 1.286 . S
C209 C211 1.363 . S
C210 C200 1.465 . S
C210 U206 2.847 . S
C210 O224 1.249 . S
C210 O225 1.202 . S
C211 C209 1.363 . S
C211 C213 1.408 . S
C211 C216 1.342 . S
C212 C213 1.310 . S
C212 C215 1.461 . S
C212 H232 0.932 . S
C213 C211 1.408 . S
C213 C212 1.310 . S
C213 H233 0.930 . S
C214 C215 1.474 . S
C214 C216 1.285 . S
C214 H234 0.929 . S
C215 C212 1.461 . S
C215 C214 1.474 . S
C216 C211 1.342 . S
C216 C214 1.285 . S
C216 H235 0.930 . S
C217 C220 1.424 . S
C217 C222 1.245 . S
C217 C223 1.428 . S
C218 C221 1.260 . S
C218 C222 1.477 1_554 S
C218 H236 0.932 . S
C219 C220 1.384 . S
C219 C221 1.479 1_556 S
C219 H237 0.929 . S
C220 C217 1.424 . S
C220 C219 1.384 . S
C220 H238 0.928 . S
C221 C218 1.260 . S
C221 C219 1.479 1_554 S
C222 C217 1.245 . S
C222 C218 1.477 1_556 S
C222 H239 0.932 . S
C223 U206 2.882 . S
C223 C217 1.428 . S
C223 O226 1.301 . S
C223 O227 1.282 . S
O224 U206 2.441 . S
O224 C210 1.249 . S
O225 U206 2.420 . S
O225 C210 1.202 . S
O226 U206 2.455 . S
O226 C223 1.301 . S
O227 U206 2.449 . S
O227 C223 1.282 . S
H228 C201 0.931 . S
H229 C203 0.929 . S
H230 C204 0.930 . S
H231 C205 0.931 . S
H232 C212 0.932 . S
H233 C213 0.930 . S
H234 C214 0.929 . S
H235 C216 0.930 . S
H236 C218 0.932 . S
H237 C219 0.929 . S
H238 C220 0.928 . S
H239 C222 0.932 . S
C240 C241 1.264 . S
C240 C245 1.479 . S
C240 C250 1.465 . S
C241 C240 1.264 . S
C241 C243 1.339 . S
C241 H268 0.931 . S
C242 C243 1.395 . S
C242 C244 1.320 . S
C243 C241 1.339 . S
C243 C242 1.395 . S
C243 H269 0.929 . S
C244 C242 1.320 . S
C244 C245 1.405 . S
C244 H270 0.930 . S
C245 C240 1.479 . S
C245 C244 1.405 . S
C245 H271 0.931 . S
U246 O247 2.454 . S
U246 O248 2.458 . S
U246 C249 2.984 . S
U246 C250 2.847 . S
U246 C263 2.882 . S
U246 O264 2.441 . S
U246 O265 2.420 . S
U246 O266 2.455 . S
U246 O267 2.449 . S
O247 U246 2.454 . S
O247 C249 1.353 . S
O248 U246 2.458 . S
O248 C249 1.286 . S
C249 U246 2.984 . S
C249 O247 1.353 . S
C249 O248 1.286 . S
C249 C251 1.363 . S
C250 C240 1.465 . S
C250 U246 2.847 . S
C250 O264 1.249 . S
C250 O265 1.202 . S
C251 C249 1.363 . S
C251 C253 1.408 . S
C251 C256 1.342 . S
C252 C253 1.310 . S
C252 C255 1.461 . S
C252 H272 0.932 . S
C253 C251 1.408 . S
C253 C252 1.310 . S
C253 H273 0.930 . S
C254 C255 1.474 . S
C254 C256 1.285 . S
C254 H274 0.929 . S
C255 C252 1.461 . S
C255 C254 1.474 . S
C256 C251 1.342 . S
C256 C254 1.285 . S
C256 H275 0.930 . S
C257 C260 1.424 . S
C257 C262 1.245 . S
C257 C263 1.428 . S
C258 C261 1.260 . S
C258 C262 1.477 . S
C258 H276 0.932 . S
C259 C260 1.384 . S
C259 C261 1.479 . S
C259 H277 0.929 . S
C260 C257 1.424 . S
C260 C259 1.384 . S
C260 H278 0.928 . S
C261 C258 1.260 . S
C261 C259 1.479 . S
C262 C257 1.245 . S
C262 C258 1.477 . S
C262 H279 0.932 . S
C263 U246 2.882 . S
C263 C257 1.428 . S
C263 O266 1.301 . S
C263 O267 1.282 . S
O264 U246 2.441 . S
O264 C250 1.249 . S
O265 U246 2.420 . S
O265 C250 1.202 . S
O266 U246 2.455 . S
O266 C263 1.301 . S
O267 U246 2.449 . S
O267 C263 1.282 . S
H268 C241 0.931 . S
H269 C243 0.929 . S
H270 C244 0.930 . S
H271 C245 0.931 . S
H272 C252 0.932 . S
H273 C253 0.930 . S
H274 C254 0.929 . S
H275 C256 0.930 . S
H276 C258 0.932 . S
H277 C259 0.929 . S
H278 C260 0.928 . S
H279 C262 0.932 . S
C280 C281 1.264 . S
C280 C285 1.479 1_556 S
C280 C290 1.465 . S
C281 C280 1.264 . S
C281 C283 1.339 . S
C281 H308 0.931 . S
C282 C283 1.395 1_554 S
C282 C284 1.320 . S
C283 C281 1.339 . S
C283 C282 1.395 1_556 S
C283 H309 0.929 . S
C284 C282 1.320 . S
C284 C285 1.405 . S
C284 H310 0.930 . S
C285 C280 1.479 1_554 S
C285 C284 1.405 . S
C285 H311 0.931 . S
U286 O287 2.454 1_556 S
U286 O288 2.458 1_556 S
U286 C289 2.984 1_556 S
U286 C290 2.847 . S
U286 C303 2.882 . S
U286 O304 2.446 . S
U286 O305 2.420 . S
U286 O306 2.455 . S
U286 O307 2.449 . S
O287 U286 2.454 1_554 S
O287 C289 1.353 . S
O288 U286 2.458 1_554 S
O288 C289 1.286 . S
C289 U286 2.984 1_554 S
C289 O287 1.353 . S
C289 O288 1.286 . S
C289 C291 1.363 . S
C290 C280 1.465 . S
C290 U286 2.847 . S
C290 O304 1.258 . S
C290 O305 1.202 . S
C291 C289 1.363 . S
C291 C293 1.408 . S
C291 C296 1.342 . S
C292 C293 1.310 . S
C292 C295 1.461 . S
C292 H312 0.932 . S
C293 C291 1.408 . S
C293 C292 1.310 . S
C293 H313 0.930 . S
C294 C295 1.474 . S
C294 C296 1.285 . S
C294 H314 0.929 . S
C295 C292 1.461 . S
C295 C294 1.474 . S
C296 C291 1.342 . S
C296 C294 1.285 . S
C296 H315 0.930 . S
C297 C300 1.424 . S
C297 C302 1.245 . S
C297 C303 1.428 . S
C298 C301 1.260 . S
C298 C302 1.477 . S
C298 H316 0.932 . S
C299 C300 1.384 . S
C299 C301 1.479 . S
C299 H317 0.929 . S
C300 C297 1.424 . S
C300 C299 1.384 . S
C300 H318 0.928 . S
C301 C298 1.260 . S
C301 C299 1.479 . S
C302 C297 1.245 . S
C302 C298 1.477 . S
C302 H319 0.932 . S
C303 U286 2.882 . S
C303 C297 1.428 . S
C303 O306 1.301 . S
C303 O307 1.282 . S
O304 U286 2.446 . S
O304 C290 1.258 . S
O305 U286 2.420 . S
O305 C290 1.202 . S
O306 U286 2.455 . S
O306 C303 1.301 . S
O307 U286 2.449 . S
O307 C303 1.282 . S
H308 C281 0.931 . S
H309 C283 0.929 . S
H310 C284 0.930 . S
H311 C285 0.931 . S
H312 C292 0.932 . S
H313 C293 0.930 . S
H314 C294 0.929 . S
H315 C296 0.930 . S
H316 C298 0.932 . S
H317 C299 0.929 . S
H318 C300 0.928 . S
H319 C302 0.932 . S
C320 C321 1.264 . S
C320 C325 1.479 . S
C320 C330 1.465 . S
C321 C320 1.264 . S
C321 C323 1.339 . S
C321 H348 0.931 . S
C322 C323 1.395 . S
C322 C324 1.320 . S
C323 C321 1.339 . S
C323 C322 1.395 . S
C323 H349 0.929 . S
C324 C322 1.320 . S
C324 C325 1.405 . S
C324 H350 0.930 . S
C325 C320 1.479 . S
C325 C324 1.405 . S
C325 H351 0.931 . S
U326 O327 2.454 . S
U326 O328 2.458 . S
U326 C329 2.984 . S
U326 C330 2.847 . S
U326 C343 2.882 . S
U326 O344 2.441 . S
U326 O345 2.420 . S
U326 O346 2.455 . S
U326 O347 2.449 . S
O327 U326 2.454 . S
O327 C329 1.353 . S
O328 U326 2.458 . S
O328 C329 1.286 . S
C329 U326 2.984 . S
C329 O327 1.353 . S
C329 O328 1.286 . S
C329 C331 1.363 . S
C330 C320 1.465 . S
C330 U326 2.847 . S
C330 O344 1.249 . S
C330 O345 1.202 . S
C331 C329 1.363 . S
C331 C333 1.408 . S
C331 C336 1.342 . S
C332 C333 1.310 . S
C332 C335 1.461 . S
C332 H352 0.932 . S
C333 C331 1.408 . S
C333 C332 1.310 . S
C333 H353 0.930 . S
C334 C335 1.474 . S
C334 C336 1.285 . S
C334 H354 0.929 . S
C335 C332 1.461 . S
C335 C334 1.474 . S
C336 C331 1.342 . S
C336 C334 1.285 . S
C336 H355 0.930 . S
C337 C340 1.424 . S
C337 C342 1.245 . S
C337 C343 1.428 . S
C338 C341 1.260 . S
C338 C342 1.477 . S
C338 H356 0.932 . S
C339 C340 1.384 . S
C339 C341 1.479 . S
C339 H357 0.929 . S
C340 C337 1.424 . S
C340 C339 1.384 . S
C340 H358 0.928 . S
C341 C338 1.260 . S
C341 C339 1.479 . S
C342 C337 1.245 . S
C342 C338 1.477 . S
C342 H359 0.932 . S
C343 U326 2.882 . S
C343 C337 1.428 . S
C343 O346 1.301 . S
C343 O347 1.282 . S
O344 U326 2.441 . S
O344 C330 1.249 . S
O345 U326 2.420 . S
O345 C330 1.202 . S
O346 U326 2.455 . S
O346 C343 1.301 . S
O347 U326 2.449 . S
O347 C343 1.282 . S
H348 C321 0.931 . S
H349 C323 0.929 . S
H350 C324 0.930 . S
H351 C325 0.931 . S
H352 C332 0.932 . S
H353 C333 0.930 . S
H354 C334 0.929 . S
H355 C336 0.930 . S
H356 C338 0.932 . S
H357 C339 0.929 . S
H358 C340 0.928 . S
H359 C342 0.932 . S
C360 C361 1.264 . S
C360 C365 1.479 . S
C360 C370 1.465 . S
C361 C360 1.264 . S
C361 C363 1.339 . S
C361 H388 0.931 . S
C362 C363 1.395 . S
C362 C364 1.320 . S
C363 C361 1.339 . S
C363 C362 1.395 . S
C363 H389 0.929 . S
C364 C362 1.320 . S
C364 C365 1.405 . S
C364 H390 0.930 . S
C365 C360 1.479 . S
C365 C364 1.405 . S
C365 H391 0.931 . S
U366 O367 2.454 . S
U366 O368 2.458 . S
U366 C369 2.984 . S
U366 C370 2.847 . S
U366 C383 2.882 . S
U366 O384 2.441 . S
U366 O385 2.420 . S
U366 O386 2.455 . S
U366 O387 2.449 . S
O367 U366 2.454 . S
O367 C369 1.353 . S
O368 U366 2.458 . S
O368 C369 1.286 . S
C369 U366 2.984 . S
C369 O367 1.353 . S
C369 O368 1.286 . S
C369 C371 1.363 . S
C370 C360 1.465 . S
C370 U366 2.847 . S
C370 O384 1.249 . S
C370 O385 1.202 . S
C371 C369 1.363 . S
C371 C373 1.408 . S
C371 C376 1.342 . S
C372 C373 1.310 . S
C372 C375 1.461 . S
C372 H392 0.932 . S
C373 C371 1.408 . S
C373 C372 1.310 . S
C373 H393 0.930 . S
C374 C375 1.474 . S
C374 C376 1.285 . S
C374 H394 0.929 . S
C375 C372 1.461 . S
C375 C374 1.474 . S
C376 C371 1.342 . S
C376 C374 1.285 . S
C376 H395 0.930 . S
C377 C380 1.424 . S
C377 C382 1.245 . S
C377 C383 1.428 . S
C378 C381 1.260 . S
C378 C382 1.477 1_455 S
C378 H396 0.932 . S
C379 C380 1.384 . S
C379 C381 1.479 1_655 S
C379 H397 0.929 . S
C380 C377 1.424 . S
C380 C379 1.384 . S
C380 H398 0.928 . S
C381 C378 1.260 . S
C381 C379 1.479 1_455 S
C382 C377 1.245 . S
C382 C378 1.477 1_655 S
C382 H399 0.932 . S
C383 U366 2.882 . S
C383 C377 1.428 . S
C383 O386 1.301 . S
C383 O387 1.282 . S
O384 U366 2.441 . S
O384 C370 1.249 . S
O385 U366 2.420 . S
O385 C370 1.202 . S
O386 U366 2.455 . S
O386 C383 1.301 . S
O387 U366 2.449 . S
O387 C383 1.282 . S
H388 C361 0.931 . S
H389 C363 0.929 . S
H390 C364 0.930 . S
H391 C365 0.931 . S
H392 C372 0.932 . S
H393 C373 0.930 . S
H394 C374 0.929 . S
H395 C376 0.930 . S
H396 C378 0.932 . S
H397 C379 0.929 . S
H398 C380 0.928 . S
H399 C382 0.932 . S
C400 C401 1.264 . S
C400 C405 1.479 . S
C400 C410 1.465 . S
C401 C400 1.264 . S
C401 C403 1.339 . S
C401 H428 0.931 . S
C402 C403 1.395 . S
C402 C404 1.320 . S
C403 C401 1.339 . S
C403 C402 1.395 . S
C403 H429 0.929 . S
C404 C402 1.320 . S
C404 C405 1.405 . S
C404 H430 0.930 . S
C405 C400 1.479 . S
C405 C404 1.405 . S
C405 H431 0.931 . S
U406 O407 2.454 . S
U406 O408 2.458 . S
U406 C409 2.984 . S
U406 C410 2.847 . S
U406 C423 2.882 . S
U406 O424 2.441 . S
U406 O425 2.420 . S
U406 O426 2.455 . S
U406 O427 2.449 . S
O407 U406 2.454 . S
O407 C409 1.353 . S
O408 U406 2.458 . S
O408 C409 1.286 . S
C409 U406 2.984 . S
C409 O407 1.353 . S
C409 O408 1.286 . S
C409 C411 1.363 . S
C410 C400 1.465 . S
C410 U406 2.847 . S
C410 O424 1.249 . S
C410 O425 1.202 . S
C411 C409 1.363 . S
C411 C413 1.408 . S
C411 C416 1.342 . S
C412 C413 1.310 . S
C412 C415 1.461 . S
C412 H432 0.932 . S
C413 C411 1.408 . S
C413 C412 1.310 . S
C413 H433 0.930 . S
C414 C415 1.474 . S
C414 C416 1.285 . S
C414 H434 0.929 . S
C415 C412 1.461 . S
C415 C414 1.474 . S
C416 C411 1.342 . S
C416 C414 1.285 . S
C416 H435 0.930 . S
C417 C420 1.424 . S
C417 C422 1.245 . S
C417 C423 1.428 . S
C418 C421 1.260 . S
C418 C422 1.477 . S
C418 H436 0.932 . S
C419 C420 1.384 . S
C419 C421 1.479 . S
C419 H437 0.929 . S
C420 C417 1.424 . S
C420 C419 1.384 . S
C420 H438 0.928 . S
C421 C418 1.260 . S
C421 C419 1.479 . S
C422 C417 1.245 . S
C422 C418 1.477 . S
C422 H439 0.932 . S
C423 U406 2.882 . S
C423 C417 1.428 . S
C423 O426 1.301 . S
C423 O427 1.282 . S
O424 U406 2.441 . S
O424 C410 1.249 . S
O425 U406 2.420 . S
O425 C410 1.202 . S
O426 U406 2.455 . S
O426 C423 1.301 . S
O427 U406 2.449 . S
O427 C423 1.282 . S
H428 C401 0.931 . S
H429 C403 0.929 . S
H430 C404 0.930 . S
H431 C405 0.931 . S
H432 C412 0.932 . S
H433 C413 0.930 . S
H434 C414 0.929 . S
H435 C416 0.930 . S
H436 C418 0.932 . S
H437 C419 0.929 . S
H438 C420 0.928 . S
H439 C422 0.932 . S
C440 C441 1.264 . S
C440 C445 1.479 1_655 S
C440 C450 1.465 . S
C441 C440 1.264 . S
C441 C443 1.339 . S
C441 H468 0.931 . S
C442 C443 1.395 1_455 S
C442 C444 1.320 . S
C443 C441 1.339 . S
C443 C442 1.395 1_655 S
C443 H469 0.929 . S
C444 C442 1.320 . S
C444 C445 1.405 . S
C444 H470 0.930 . S
C445 C440 1.479 1_455 S
C445 C444 1.405 . S
C445 H471 0.931 . S
U446 O447 2.454 1_655 S
U446 O448 2.458 1_655 S
U446 C449 2.984 1_655 S
U446 C450 2.847 . S
U446 C463 2.882 . S
U446 O464 2.446 . S
U446 O465 2.420 . S
U446 O466 2.455 . S
U446 O467 2.449 . S
O447 U446 2.454 1_455 S
O447 C449 1.353 . S
O448 U446 2.458 1_455 S
O448 C449 1.286 . S
C449 U446 2.984 1_455 S
C449 O447 1.353 . S
C449 O448 1.286 . S
C449 C451 1.363 . S
C450 C440 1.465 . S
C450 U446 2.847 . S
C450 O464 1.258 . S
C450 O465 1.202 . S
C451 C449 1.363 . S
C451 C453 1.408 . S
C451 C456 1.342 . S
C452 C453 1.310 . S
C452 C455 1.461 . S
C452 H472 0.932 . S
C453 C451 1.408 . S
C453 C452 1.310 . S
C453 H473 0.930 . S
C454 C455 1.474 . S
C454 C456 1.285 . S
C454 H474 0.929 . S
C455 C452 1.461 . S
C455 C454 1.474 . S
C456 C451 1.342 . S
C456 C454 1.285 . S
C456 H475 0.930 . S
C457 C460 1.424 . S
C457 C462 1.245 . S
C457 C463 1.428 . S
C458 C461 1.260 . S
C458 C462 1.477 . S
C458 H476 0.932 . S
C459 C460 1.384 . S
C459 C461 1.479 . S
C459 H477 0.929 . S
C460 C457 1.424 . S
C460 C459 1.384 . S
C460 H478 0.928 . S
C461 C458 1.260 . S
C461 C459 1.479 . S
C462 C457 1.245 . S
C462 C458 1.477 . S
C462 H479 0.932 . S
C463 U446 2.882 . S
C463 C457 1.428 . S
C463 O466 1.301 . S
C463 O467 1.282 . S
O464 U446 2.446 . S
O464 C450 1.258 . S
O465 U446 2.420 . S
O465 C450 1.202 . S
O466 U446 2.455 . S
O466 C463 1.301 . S
O467 U446 2.449 . S
O467 C463 1.282 . S
H468 C441 0.931 . S
H469 C443 0.929 . S
H470 C444 0.930 . S
H471 C445 0.931 . S
H472 C452 0.932 . S
H473 C453 0.930 . S
H474 C454 0.929 . S
H475 C456 0.930 . S
H476 C458 0.932 . S
H477 C459 0.929 . S
H478 C460 0.928 . S
H479 C462 0.932 . S
C480 C481 1.264 . S
C480 C485 1.479 . S
C480 C490 1.465 . S
C481 C480 1.264 . S
C481 C483 1.339 . S
C481 H508 0.931 . S
C482 C483 1.395 . S
C482 C484 1.320 . S
C483 C481 1.339 . S
C483 C482 1.395 . S
C483 H509 0.929 . S
C484 C482 1.320 . S
C484 C485 1.405 . S
C484 H510 0.930 . S
C485 C480 1.479 . S
C485 C484 1.405 . S
C485 H511 0.931 . S
U486 O487 2.454 . S
U486 O488 2.458 . S
U486 C489 2.984 . S
U486 C490 2.847 . S
U486 C503 2.882 . S
U486 O504 2.441 . S
U486 O505 2.420 . S
U486 O506 2.455 . S
U486 O507 2.449 . S
O487 U486 2.454 . S
O487 C489 1.353 . S
O488 U486 2.458 . S
O488 C489 1.286 . S
C489 U486 2.984 . S
C489 O487 1.353 . S
C489 O488 1.286 . S
C489 C491 1.363 . S
C490 C480 1.465 . S
C490 U486 2.847 . S
C490 O504 1.249 . S
C490 O505 1.202 . S
C491 C489 1.363 . S
C491 C493 1.408 . S
C491 C496 1.342 . S
C492 C493 1.310 . S
C492 C495 1.461 . S
C492 H512 0.932 . S
C493 C491 1.408 . S
C493 C492 1.310 . S
C493 H513 0.930 . S
C494 C495 1.474 . S
C494 C496 1.285 . S
C494 H514 0.929 . S
C495 C492 1.461 . S
C495 C494 1.474 . S
C496 C491 1.342 . S
C496 C494 1.285 . S
C496 H515 0.930 . S
C497 C500 1.424 . S
C497 C502 1.245 . S
C497 C503 1.428 . S
C498 C501 1.260 . S
C498 C502 1.477 . S
C498 H516 0.932 . S
C499 C500 1.384 . S
C499 C501 1.479 . S
C499 H517 0.929 . S
C500 C497 1.424 . S
C500 C499 1.384 . S
C500 H518 0.928 . S
C501 C498 1.260 . S
C501 C499 1.479 . S
C502 C497 1.245 . S
C502 C498 1.477 . S
C502 H519 0.932 . S
C503 U486 2.882 . S
C503 C497 1.428 . S
C503 O506 1.301 . S
C503 O507 1.282 . S
O504 U486 2.441 . S
O504 C490 1.249 . S
O505 U486 2.420 . S
O505 C490 1.202 . S
O506 U486 2.455 . S
O506 C503 1.301 . S
O507 U486 2.449 . S
O507 C503 1.282 . S
H508 C481 0.931 . S
H509 C483 0.929 . S
H510 C484 0.930 . S
H511 C485 0.931 . S
H512 C492 0.932 . S
H513 C493 0.930 . S
H514 C494 0.929 . S
H515 C496 0.930 . S
H516 C498 0.932 . S
H517 C499 0.929 . S
H518 C500 0.928 . S
H519 C502 0.932 . S
C520 C521 1.264 . S
C520 C525 1.479 . S
C520 C530 1.465 . S
C521 C520 1.264 . S
C521 C523 1.339 . S
C521 H548 0.931 . S
C522 C523 1.395 . S
C522 C524 1.320 . S
C523 C521 1.339 . S
C523 C522 1.395 . S
C523 H549 0.929 . S
C524 C522 1.320 . S
C524 C525 1.405 . S
C524 H550 0.930 . S
C525 C520 1.479 . S
C525 C524 1.405 . S
C525 H551 0.931 . S
U526 O527 2.454 . S
U526 O528 2.458 . S
U526 C529 2.984 . S
U526 C530 2.847 . S
U526 C543 2.882 . S
U526 O544 2.441 . S
U526 O545 2.420 . S
U526 O546 2.455 . S
U526 O547 2.449 . S
O527 U526 2.454 . S
O527 C529 1.353 . S
O528 U526 2.458 . S
O528 C529 1.286 . S
C529 U526 2.984 . S
C529 O527 1.353 . S
C529 O528 1.286 . S
C529 C531 1.363 . S
C530 C520 1.465 . S
C530 U526 2.847 . S
C530 O544 1.249 . S
C530 O545 1.202 . S
C531 C529 1.363 . S
C531 C533 1.408 . S
C531 C536 1.342 . S
C532 C533 1.310 . S
C532 C535 1.461 . S
C532 H552 0.932 . S
C533 C531 1.408 . S
C533 C532 1.310 . S
C533 H553 0.930 . S
C534 C535 1.474 . S
C534 C536 1.285 . S
C534 H554 0.929 . S
C535 C532 1.461 . S
C535 C534 1.474 . S
C536 C531 1.342 . S
C536 C534 1.285 . S
C536 H555 0.930 . S
C537 C540 1.424 . S
C537 C542 1.245 . S
C537 C543 1.428 . S
C538 C541 1.260 . S
C538 C542 1.477 . S
C538 H556 0.932 . S
C539 C540 1.384 . S
C539 C541 1.479 . S
C539 H557 0.929 . S
C540 C537 1.424 . S
C540 C539 1.384 . S
C540 H558 0.928 . S
C541 C538 1.260 . S
C541 C539 1.479 . S
C542 C537 1.245 . S
C542 C538 1.477 . S
C542 H559 0.932 . S
C543 U526 2.882 . S
C543 C537 1.428 . S
C543 O546 1.301 . S
C543 O547 1.282 . S
O544 U526 2.441 . S
O544 C530 1.249 . S
O545 U526 2.420 . S
O545 C530 1.202 . S
O546 U526 2.455 . S
O546 C543 1.301 . S
O547 U526 2.449 . S
O547 C543 1.282 . S
H548 C521 0.931 . S
H549 C523 0.929 . S
H550 C524 0.930 . S
H551 C525 0.931 . S
H552 C532 0.932 . S
H553 C533 0.930 . S
H554 C534 0.929 . S
H555 C536 0.930 . S
H556 C538 0.932 . S
H557 C539 0.929 . S
H558 C540 0.928 . S
H559 C542 0.932 . S
C560 C561 1.264 . S
C560 C565 1.479 . S
C560 C570 1.465 . S
C561 C560 1.264 . S
C561 C563 1.339 . S
C561 H588 0.931 . S
C562 C563 1.395 . S
C562 C564 1.320 . S
C563 C561 1.339 . S
C563 C562 1.395 . S
C563 H589 0.929 1_565 S
C564 C562 1.320 . S
C564 C565 1.405 . S
C564 H590 0.930 . S
C565 C560 1.479 . S
C565 C564 1.405 . S
C565 H591 0.931 . S
U566 O567 2.454 . S
U566 O568 2.458 . S
U566 C569 2.984 . S
U566 C570 2.847 . S
U566 C583 2.882 1_565 S
U566 O584 2.441 . S
U566 O585 2.420 . S
U566 O586 2.455 . S
U566 O587 2.449 . S
O567 U566 2.454 . S
O567 C569 1.353 . S
O568 U566 2.458 . S
O568 C569 1.286 . S
C569 U566 2.984 . S
C569 O567 1.353 . S
C569 O568 1.286 . S
C569 C571 1.363 . S
C570 C560 1.465 . S
C570 U566 2.847 . S
C570 O584 1.249 . S
C570 O585 1.202 . S
C571 C569 1.363 . S
C571 C573 1.408 . S
C571 C576 1.342 . S
C572 C573 1.310 . S
C572 C575 1.461 . S
C572 H592 0.932 . S
C573 C571 1.408 . S
C573 C572 1.310 . S
C573 H593 0.930 . S
C574 C575 1.474 . S
C574 C576 1.285 . S
C574 H594 0.929 . S
C575 C572 1.461 . S
C575 C574 1.474 . S
C576 C571 1.342 . S
C576 C574 1.285 . S
C576 H595 0.930 . S
C577 C580 1.424 . S
C577 C582 1.245 . S
C577 C583 1.428 . S
C578 C581 1.260 . S
C578 C582 1.477 . S
C578 H596 0.932 . S
C579 C580 1.384 . S
C579 C581 1.479 . S
C579 H597 0.929 . S
C580 C577 1.424 . S
C580 C579 1.384 . S
C580 H598 0.928 . S
C581 C578 1.260 . S
C581 C579 1.479 . S
C582 C577 1.245 . S
C582 C578 1.477 . S
C582 H599 0.932 . S
C583 U566 2.882 1_545 S
C583 C577 1.428 . S
C583 O586 1.301 1_545 S
C583 O587 1.282 1_545 S
O584 U566 2.441 . S
O584 C570 1.249 . S
O585 U566 2.420 . S
O585 C570 1.202 . S
O586 U566 2.455 . S
O586 C583 1.301 1_565 S
O587 U566 2.449 . S
O587 C583 1.282 1_565 S
H588 C561 0.931 . S
H589 C563 0.929 1_545 S
H590 C564 0.930 . S
H591 C565 0.931 . S
H592 C572 0.932 . S
H593 C573 0.930 . S
H594 C574 0.929 . S
H595 C576 0.930 . S
H596 C578 0.932 . S
H597 C579 0.929 . S
H598 C580 0.928 . S
H599 C582 0.932 . S
C600 C601 1.264 . S
C600 C605 1.479 . S
C600 C610 1.465 . S
C601 C600 1.264 . S
C601 C603 1.339 . S
C601 H628 0.931 . S
C602 C603 1.395 . S
C602 C604 1.320 . S
C603 C601 1.339 . S
C603 C602 1.395 . S
C603 H629 0.929 . S
C604 C602 1.320 . S
C604 C605 1.405 . S
C604 H630 0.930 . S
C605 C600 1.479 . S
C605 C604 1.405 . S
C605 H631 0.931 . S
U606 O607 2.454 . S
U606 O608 2.458 . S
U606 C609 2.984 . S
U606 C610 2.847 . S
U606 C623 2.882 . S
U606 O624 2.441 . S
U606 O625 2.420 . S
U606 O626 2.455 . S
U606 O627 2.449 . S
O607 U606 2.454 . S
O607 C609 1.353 . S
O608 U606 2.458 . S
O608 C609 1.286 . S
C609 U606 2.984 . S
C609 O607 1.353 . S
C609 O608 1.286 . S
C609 C611 1.363 . S
C610 C600 1.465 . S
C610 U606 2.847 . S
C610 O624 1.249 . S
C610 O625 1.202 . S
C611 C609 1.363 . S
C611 C613 1.408 . S
C611 C616 1.342 . S
C612 C613 1.310 . S
C612 C615 1.461 . S
C612 H632 0.932 . S
C613 C611 1.408 . S
C613 C612 1.310 . S
C613 H633 0.930 . S
C614 C615 1.474 . S
C614 C616 1.285 . S
C614 H634 0.929 . S
C615 C612 1.461 . S
C615 C614 1.474 . S
C616 C611 1.342 . S
C616 C614 1.285 . S
C616 H635 0.930 . S
C617 C620 1.424 . S
C617 C622 1.245 . S
C617 C623 1.428 . S
C618 C621 1.260 . S
C618 C622 1.477 . S
C618 H636 0.932 . S
C619 C620 1.384 . S
C619 C621 1.479 . S
C619 H637 0.929 . S
C620 C617 1.424 . S
C620 C619 1.384 . S
C620 H638 0.928 . S
C621 C618 1.260 . S
C621 C619 1.479 . S
C622 C617 1.245 . S
C622 C618 1.477 . S
C622 H639 0.932 . S
C623 U606 2.882 . S
C623 C617 1.428 . S
C623 O626 1.301 . S
C623 O627 1.282 . S
O624 U606 2.441 . S
O624 C610 1.249 . S
O625 U606 2.420 . S
O625 C610 1.202 . S
O626 U606 2.455 . S
O626 C623 1.301 . S
O627 U606 2.449 . S
O627 C623 1.282 . S
H628 C601 0.931 . S
H629 C603 0.929 . S
H630 C604 0.930 . S
H631 C605 0.931 . S
H632 C612 0.932 . S
H633 C613 0.930 . S
H634 C614 0.929 . S
H635 C616 0.930 . S
H636 C618 0.932 . S
H637 C619 0.929 . S
H638 C620 0.928 . S
H639 C622 0.932 . S
C640 C641 1.264 . S
C640 C645 1.479 . S
C640 C650 1.465 . S
C641 C640 1.264 . S
C641 C643 1.339 . S
C641 H668 0.931 . S
C642 C643 1.395 . S
C642 C644 1.320 . S
C643 C641 1.339 . S
C643 C642 1.395 . S
C643 H669 0.929 . S
C644 C642 1.320 . S
C644 C645 1.405 . S
C644 H670 0.930 . S
C645 C640 1.479 . S
C645 C644 1.405 . S
C645 H671 0.931 . S
U646 O647 2.454 . S
U646 O648 2.458 . S
U646 C649 2.984 . S
U646 C650 2.847 . S
U646 C663 2.882 . S
U646 O664 2.441 . S
U646 O665 2.420 . S
U646 O666 2.455 . S
U646 O667 2.449 . S
O647 U646 2.454 . S
O647 C649 1.353 . S
O648 U646 2.458 . S
O648 C649 1.286 . S
C649 U646 2.984 . S
C649 O647 1.353 . S
C649 O648 1.286 . S
C649 C651 1.363 . S
C650 C640 1.465 . S
C650 U646 2.847 . S
C650 O664 1.249 . S
C650 O665 1.202 . S
C651 C649 1.363 . S
C651 C653 1.408 . S
C651 C656 1.342 . S
C652 C653 1.310 . S
C652 C655 1.461 . S
C652 H672 0.932 . S
C653 C651 1.408 . S
C653 C652 1.310 . S
C653 H673 0.930 . S
C654 C655 1.474 . S
C654 C656 1.285 . S
C654 H674 0.929 . S
C655 C652 1.461 . S
C655 C654 1.474 . S
C656 C651 1.342 . S
C656 C654 1.285 . S
C656 H675 0.930 . S
C657 C660 1.424 . S
C657 C662 1.245 . S
C657 C663 1.428 . S
C658 C661 1.260 . S
C658 C662 1.477 . S
C658 H676 0.932 . S
C659 C660 1.384 . S
C659 C661 1.479 . S
C659 H677 0.929 . S
C660 C657 1.424 . S
C660 C659 1.384 . S
C660 H678 0.928 . S
C661 C658 1.260 . S
C661 C659 1.479 . S
C662 C657 1.245 . S
C662 C658 1.477 . S
C662 H679 0.932 . S
C663 U646 2.882 . S
C663 C657 1.428 . S
C663 O666 1.301 . S
C663 O667 1.282 . S
O664 U646 2.441 . S
O664 C650 1.249 . S
O665 U646 2.420 . S
O665 C650 1.202 . S
O666 U646 2.455 . S
O666 C663 1.301 . S
O667 U646 2.449 . S
O667 C663 1.282 . S
H668 C641 0.931 . S
H669 C643 0.929 . S
H670 C644 0.930 . S
H671 C645 0.931 . S
H672 C652 0.932 . S
H673 C653 0.930 . S
H674 C654 0.929 . S
H675 C656 0.930 . S
H676 C658 0.932 . S
H677 C659 0.929 . S
H678 C660 0.928 . S
H679 C662 0.932 . S
C680 C681 1.264 . S
C680 C685 1.479 . S
C680 C690 1.465 . S
C681 C680 1.264 . S
C681 C683 1.339 . S
C681 H708 0.931 . S
C682 C683 1.395 . S
C682 C684 1.320 . S
C683 C681 1.339 . S
C683 C682 1.395 . S
C683 H709 0.929 . S
C684 C682 1.320 . S
C684 C685 1.405 . S
C684 H710 0.930 . S
C685 C680 1.479 . S
C685 C684 1.405 . S
C685 H711 0.931 . S
U686 O687 2.454 . S
U686 O688 2.458 . S
U686 C689 2.984 . S
U686 C690 2.847 . S
U686 C703 2.882 . S
U686 O704 2.441 . S
U686 O705 2.420 . S
U686 O706 2.455 . S
U686 O707 2.449 . S
O687 U686 2.454 . S
O687 C689 1.353 . S
O688 U686 2.458 . S
O688 C689 1.286 . S
C689 U686 2.984 . S
C689 O687 1.353 . S
C689 O688 1.286 . S
C689 C691 1.363 . S
C690 C680 1.465 . S
C690 U686 2.847 . S
C690 O704 1.249 . S
C690 O705 1.202 . S
C691 C689 1.363 . S
C691 C693 1.408 . S
C691 C696 1.342 . S
C692 C693 1.310 . S
C692 C695 1.461 . S
C692 H712 0.932 . S
C693 C691 1.408 . S
C693 C692 1.310 . S
C693 H713 0.930 . S
C694 C695 1.474 . S
C694 C696 1.285 . S
C694 H714 0.929 . S
C695 C692 1.461 . S
C695 C694 1.474 . S
C696 C691 1.342 . S
C696 C694 1.285 . S
C696 H715 0.930 . S
C697 C700 1.424 . S
C697 C702 1.245 . S
C697 C703 1.428 . S
C698 C701 1.260 . S
C698 C702 1.477 . S
C698 H716 0.932 . S
C699 C700 1.384 . S
C699 C701 1.479 . S
C699 H717 0.929 . S
C700 C697 1.424 . S
C700 C699 1.384 . S
C700 H718 0.928 . S
C701 C698 1.260 . S
C701 C699 1.479 . S
C702 C697 1.245 . S
C702 C698 1.477 . S
C702 H719 0.932 . S
C703 U686 2.882 . S
C703 C697 1.428 . S
C703 O706 1.301 . S
C703 O707 1.282 . S
O704 U686 2.441 . S
O704 C690 1.249 . S
O705 U686 2.420 . S
O705 C690 1.202 . S
O706 U686 2.455 . S
O706 C703 1.301 . S
O707 U686 2.449 . S
O707 C703 1.282 . S
H708 C681 0.931 . S
H709 C683 0.929 . S
H710 C684 0.930 . S
H711 C685 0.931 . S
H712 C692 0.932 . S
H713 C693 0.930 . S
H714 C694 0.929 . S
H715 C696 0.930 . S
H716 C698 0.932 . S
H717 C699 0.929 . S
H718 C700 0.928 . S
H719 C702 0.932 . S
C720 C721 1.264 . S
C720 C725 1.479 . S
C720 C730 1.465 . S
C721 C720 1.264 . S
C721 C723 1.339 . S
C721 H748 0.931 . S
C722 C723 1.395 . S
C722 C724 1.320 . S
C723 C721 1.339 . S
C723 C722 1.395 . S
C723 H749 0.929 . S
C724 C722 1.320 . S
C724 C725 1.405 . S
C724 H750 0.930 . S
C725 C720 1.479 . S
C725 C724 1.405 . S
C725 H751 0.931 . S
U726 O727 2.454 . S
U726 O728 2.458 . S
U726 C729 2.984 . S
U726 C730 2.847 . S
U726 C743 2.882 . S
U726 O744 2.441 . S
U726 O745 2.420 . S
U726 O746 2.455 . S
U726 O747 2.449 . S
O727 U726 2.454 . S
O727 C729 1.353 . S
O728 U726 2.458 . S
O728 C729 1.286 . S
C729 U726 2.984 . S
C729 O727 1.353 . S
C729 O728 1.286 . S
C729 C731 1.363 . S
C730 C720 1.465 . S
C730 U726 2.847 . S
C730 O744 1.249 . S
C730 O745 1.202 . S
C731 C729 1.363 . S
C731 C733 1.408 . S
C731 C736 1.342 . S
C732 C733 1.310 . S
C732 C735 1.461 . S
C732 H752 0.932 . S
C733 C731 1.408 . S
C733 C732 1.310 . S
C733 H753 0.930 . S
C734 C735 1.474 . S
C734 C736 1.285 . S
C734 H754 0.929 . S
C735 C732 1.461 . S
C735 C734 1.474 . S
C736 C731 1.342 . S
C736 C734 1.285 . S
C736 H755 0.930 . S
C737 C740 1.424 . S
C737 C742 1.245 . S
C737 C743 1.428 . S
C738 C741 1.260 . S
C738 C742 1.477 . S
C738 H756 0.932 . S
C739 C740 1.384 . S
C739 C741 1.479 . S
C739 H757 0.929 . S
C740 C737 1.424 . S
C740 C739 1.384 . S
C740 H758 0.928 . S
C741 C738 1.260 . S
C741 C739 1.479 . S
C742 C737 1.245 . S
C742 C738 1.477 . S
C742 H759 0.932 . S
C743 U726 2.882 . S
C743 C737 1.428 . S
C743 O746 1.301 . S
C743 O747 1.282 . S
O744 U726 2.441 . S
O744 C730 1.249 . S
O745 U726 2.420 . S
O745 C730 1.202 . S
O746 U726 2.455 . S
O746 C743 1.301 . S
O747 U726 2.449 . S
O747 C743 1.282 . S
H748 C721 0.931 . S
H749 C723 0.929 . S
H750 C724 0.930 . S
H751 C725 0.931 . S
H752 C732 0.932 . S
H753 C733 0.930 . S
H754 C734 0.929 . S
H755 C736 0.930 . S
H756 C738 0.932 . S
H757 C739 0.929 . S
H758 C740 0.928 . S
H759 C742 0.932 . S
C760 C761 1.264 . S
C760 C765 1.479 . S
C760 C770 1.465 . S
C761 C760 1.264 . S
C761 C763 1.339 . S
C761 H788 0.931 . S
C762 C763 1.395 . S
C762 C764 1.320 . S
C763 C761 1.339 . S
C763 C762 1.395 . S
C763 H789 0.929 1_556 S
C764 C762 1.320 . S
C764 C765 1.405 . S
C764 H790 0.930 . S
C765 C760 1.479 . S
C765 C764 1.405 . S
C765 H791 0.931 . S
U766 O767 2.454 . S
U766 O768 2.458 . S
U766 C769 2.984 . S
U766 C770 2.847 . S
U766 C783 2.882 1_556 S
U766 O784 2.441 . S
U766 O785 2.420 . S
U766 O786 2.455 . S
U766 O787 2.449 . S
O767 U766 2.454 . S
O767 C769 1.353 . S
O768 U766 2.458 . S
O768 C769 1.286 . S
C769 U766 2.984 . S
C769 O767 1.353 . S
C769 O768 1.286 . S
C769 C771 1.363 . S
C770 C760 1.465 . S
C770 U766 2.847 . S
C770 O784 1.249 . S
C770 O785 1.202 . S
C771 C769 1.363 . S
C771 C773 1.408 . S
C771 C776 1.342 . S
C772 C773 1.310 . S
C772 C775 1.461 . S
C772 H792 0.932 . S
C773 C771 1.408 . S
C773 C772 1.310 . S
C773 H793 0.930 . S
C774 C775 1.474 . S
C774 C776 1.285 . S
C774 H794 0.929 . S
C775 C772 1.461 . S
C775 C774 1.474 . S
C776 C771 1.342 . S
C776 C774 1.285 . S
C776 H795 0.930 . S
C777 C780 1.424 . S
C777 C782 1.245 . S
C777 C783 1.428 . S
C778 C781 1.260 . S
C778 C782 1.477 . S
C778 H796 0.932 . S
C779 C780 1.384 . S
C779 C781 1.479 . S
C779 H797 0.929 . S
C780 C777 1.424 . S
C780 C779 1.384 . S
C780 H798 0.928 . S
C781 C778 1.260 . S
C781 C779 1.479 . S
C782 C777 1.245 . S
C782 C778 1.477 . S
C782 H799 0.932 . S
C783 U766 2.882 1_554 S
C783 C777 1.428 . S
C783 O786 1.301 1_554 S
C783 O787 1.282 1_554 S
O784 U766 2.441 . S
O784 C770 1.249 . S
O785 U766 2.420 . S
O785 C770 1.202 . S
O786 U766 2.455 . S
O786 C783 1.301 1_556 S
O787 U766 2.449 . S
O787 C783 1.282 1_556 S
H788 C761 0.931 . S
H789 C763 0.929 1_554 S
H790 C764 0.930 . S
H791 C765 0.931 . S
H792 C772 0.932 . S
H793 C773 0.930 . S
H794 C774 0.929 . S
H795 C776 0.930 . S
H796 C778 0.932 . S
H797 C779 0.929 . S
H798 C780 0.928 . S
H799 C782 0.932 . S
C800 C801 1.264 . S
C800 C805 1.479 . S
C800 C810 1.465 . S
C801 C800 1.264 . S
C801 C803 1.339 . S
C801 H828 0.931 . S
C802 C803 1.395 . S
C802 C804 1.320 . S
C803 C801 1.339 . S
C803 C802 1.395 . S
C803 H829 0.929 . S
C804 C802 1.320 . S
C804 C805 1.405 . S
C804 H830 0.930 . S
C805 C800 1.479 . S
C805 C804 1.405 . S
C805 H831 0.931 . S
U806 O807 2.454 . S
U806 O808 2.458 . S
U806 C809 2.984 . S
U806 C810 2.847 . S
U806 C823 2.882 . S
U806 O824 2.441 . S
U806 O825 2.420 . S
U806 O826 2.455 . S
U806 O827 2.449 . S
O807 U806 2.454 . S
O807 C809 1.353 . S
O808 U806 2.458 . S
O808 C809 1.286 . S
C809 U806 2.984 . S
C809 O807 1.353 . S
C809 O808 1.286 . S
C809 C811 1.363 . S
C810 C800 1.465 . S
C810 U806 2.847 . S
C810 O824 1.249 . S
C810 O825 1.202 . S
C811 C809 1.363 . S
C811 C813 1.408 . S
C811 C816 1.342 . S
C812 C813 1.310 . S
C812 C815 1.461 . S
C812 H832 0.932 . S
C813 C811 1.408 . S
C813 C812 1.310 . S
C813 H833 0.930 . S
C814 C815 1.474 . S
C814 C816 1.285 . S
C814 H834 0.929 . S
C815 C812 1.461 . S
C815 C814 1.474 . S
C816 C811 1.342 . S
C816 C814 1.285 . S
C816 H835 0.930 . S
C817 C820 1.424 . S
C817 C822 1.245 . S
C817 C823 1.428 . S
C818 C821 1.260 . S
C818 C822 1.477 . S
C818 H836 0.932 . S
C819 C820 1.384 . S
C819 C821 1.479 . S
C819 H837 0.929 . S
C820 C817 1.424 . S
C820 C819 1.384 . S
C820 H838 0.928 . S
C821 C818 1.260 . S
C821 C819 1.479 . S
C822 C817 1.245 . S
C822 C818 1.477 . S
C822 H839 0.932 . S
C823 U806 2.882 . S
C823 C817 1.428 . S
C823 O826 1.301 . S
C823 O827 1.282 . S
O824 U806 2.441 . S
O824 C810 1.249 . S
O825 U806 2.420 . S
O825 C810 1.202 . S
O826 U806 2.455 . S
O826 C823 1.301 . S
O827 U806 2.449 . S
O827 C823 1.282 . S
H828 C801 0.931 . S
H829 C803 0.929 . S
H830 C804 0.930 . S
H831 C805 0.931 . S
H832 C812 0.932 . S
H833 C813 0.930 . S
H834 C814 0.929 . S
H835 C816 0.930 . S
H836 C818 0.932 . S
H837 C819 0.929 . S
H838 C820 0.928 . S
H839 C822 0.932 . S
C840 C841 1.264 . S
C840 C845 1.479 . S
C840 C850 1.465 . S
C841 C840 1.264 . S
C841 C843 1.339 . S
C841 H868 0.931 . S
C842 C843 1.395 . S
C842 C844 1.320 . S
C843 C841 1.339 . S
C843 C842 1.395 . S
C843 H869 0.929 . S
C844 C842 1.320 . S
C844 C845 1.405 . S
C844 H870 0.930 . S
C845 C840 1.479 . S
C845 C844 1.405 . S
C845 H871 0.931 . S
U846 O847 2.454 . S
U846 O848 2.458 . S
U846 C849 2.984 . S
U846 C850 2.847 . S
U846 C863 2.882 . S
U846 O864 2.441 . S
U846 O865 2.420 . S
U846 O866 2.455 . S
U846 O867 2.449 . S
O847 U846 2.454 . S
O847 C849 1.353 . S
O848 U846 2.458 . S
O848 C849 1.286 . S
C849 U846 2.984 . S
C849 O847 1.353 . S
C849 O848 1.286 . S
C849 C851 1.363 . S
C850 C840 1.465 . S
C850 U846 2.847 . S
C850 O864 1.249 . S
C850 O865 1.202 . S
C851 C849 1.363 . S
C851 C853 1.408 . S
C851 C856 1.342 . S
C852 C853 1.310 . S
C852 C855 1.461 . S
C852 H872 0.932 . S
C853 C851 1.408 . S
C853 C852 1.310 . S
C853 H873 0.930 . S
C854 C855 1.474 . S
C854 C856 1.285 . S
C854 H874 0.929 . S
C855 C852 1.461 . S
C855 C854 1.474 . S
C856 C851 1.342 . S
C856 C854 1.285 . S
C856 H875 0.930 . S
C857 C860 1.424 . S
C857 C862 1.245 . S
C857 C863 1.428 . S
C858 C861 1.260 . S
C858 C862 1.477 . S
C858 H876 0.932 . S
C859 C860 1.384 . S
C859 C861 1.479 . S
C859 H877 0.929 . S
C860 C857 1.424 . S
C860 C859 1.384 . S
C860 H878 0.928 . S
C861 C858 1.260 . S
C861 C859 1.479 . S
C862 C857 1.245 . S
C862 C858 1.477 . S
C862 H879 0.932 . S
C863 U846 2.882 . S
C863 C857 1.428 . S
C863 O866 1.301 . S
C863 O867 1.282 . S
O864 U846 2.441 . S
O864 C850 1.249 . S
O865 U846 2.420 . S
O865 C850 1.202 . S
O866 U846 2.455 . S
O866 C863 1.301 . S
O867 U846 2.449 . S
O867 C863 1.282 . S
H868 C841 0.931 . S
H869 C843 0.929 . S
H870 C844 0.930 . S
H871 C845 0.931 . S
H872 C852 0.932 . S
H873 C853 0.930 . S
H874 C854 0.929 . S
H875 C856 0.930 . S
H876 C858 0.932 . S
H877 C859 0.929 . S
H878 C860 0.928 . S
H879 C862 0.932 . S
C880 C881 1.264 . S
C880 C885 1.479 . S
C880 C890 1.465 . S
C881 C880 1.264 . S
C881 C883 1.339 . S
C881 H908 0.931 . S
C882 C883 1.395 . S
C882 C884 1.320 . S
C883 C881 1.339 . S
C883 C882 1.395 . S
C883 H909 0.929 . S
C884 C882 1.320 . S
C884 C885 1.405 . S
C884 H910 0.930 . S
C885 C880 1.479 . S
C885 C884 1.405 . S
C885 H911 0.931 . S
U886 O887 2.454 . S
U886 O888 2.458 . S
U886 C889 2.984 . S
U886 C890 2.847 . S
U886 C903 2.882 . S
U886 O904 2.441 . S
U886 O905 2.420 . S
U886 O906 2.455 . S
U886 O907 2.449 . S
O887 U886 2.454 . S
O887 C889 1.353 . S
O888 U886 2.458 . S
O888 C889 1.286 . S
C889 U886 2.984 . S
C889 O887 1.353 . S
C889 O888 1.286 . S
C889 C891 1.363 . S
C890 C880 1.465 . S
C890 U886 2.847 . S
C890 O904 1.249 . S
C890 O905 1.202 . S
C891 C889 1.363 . S
C891 C893 1.408 . S
C891 C896 1.342 . S
C892 C893 1.310 . S
C892 C895 1.461 . S
C892 H912 0.932 . S
C893 C891 1.408 . S
C893 C892 1.310 . S
C893 H913 0.930 . S
C894 C895 1.474 . S
C894 C896 1.285 . S
C894 H914 0.929 . S
C895 C892 1.461 . S
C895 C894 1.474 . S
C896 C891 1.342 . S
C896 C894 1.285 . S
C896 H915 0.930 . S
C897 C900 1.424 . S
C897 C902 1.245 . S
C897 C903 1.428 . S
C898 C901 1.260 . S
C898 C902 1.477 . S
C898 H916 0.932 . S
C899 C900 1.384 . S
C899 C901 1.479 . S
C899 H917 0.929 . S
C900 C897 1.424 . S
C900 C899 1.384 . S
C900 H918 0.928 . S
C901 C898 1.260 . S
C901 C899 1.479 . S
C902 C897 1.245 . S
C902 C898 1.477 . S
C902 H919 0.932 . S
C903 U886 2.882 . S
C903 C897 1.428 . S
C903 O906 1.301 . S
C903 O907 1.282 . S
O904 U886 2.441 . S
O904 C890 1.249 . S
O905 U886 2.420 . S
O905 C890 1.202 . S
O906 U886 2.455 . S
O906 C903 1.301 . S
O907 U886 2.449 . S
O907 C903 1.282 . S
H908 C881 0.931 . S
H909 C883 0.929 . S
H910 C884 0.930 . S
H911 C885 0.931 . S
H912 C892 0.932 . S
H913 C893 0.930 . S
H914 C894 0.929 . S
H915 C896 0.930 . S
H916 C898 0.932 . S
H917 C899 0.929 . S
H918 C900 0.928 . S
H919 C902 0.932 . S
C920 C921 1.264 . S
C920 C925 1.479 . S
C920 C930 1.465 . S
C921 C920 1.264 . S
C921 C923 1.339 . S
C921 H948 0.931 . S
C922 C923 1.395 . S
C922 C924 1.320 . S
C923 C921 1.339 . S
C923 C922 1.395 . S
C923 H949 0.929 1_655 S
C924 C922 1.320 . S
C924 C925 1.405 . S
C924 H950 0.930 . S
C925 C920 1.479 . S
C925 C924 1.405 . S
C925 H951 0.931 . S
U926 O927 2.454 . S
U926 O928 2.458 . S
U926 C929 2.984 . S
U926 C930 2.847 . S
U926 C943 2.882 1_655 S
U926 O944 2.441 . S
U926 O945 2.420 . S
U926 O946 2.455 . S
U926 O947 2.449 . S
O927 U926 2.454 . S
O927 C929 1.353 . S
O928 U926 2.458 . S
O928 C929 1.286 . S
C929 U926 2.984 . S
C929 O927 1.353 . S
C929 O928 1.286 . S
C929 C931 1.363 . S
C930 C920 1.465 . S
C930 U926 2.847 . S
C930 O944 1.249 . S
C930 O945 1.202 . S
C931 C929 1.363 . S
C931 C933 1.408 . S
C931 C936 1.342 . S
C932 C933 1.310 . S
C932 C935 1.461 . S
C932 H952 0.932 . S
C933 C931 1.408 . S
C933 C932 1.310 . S
C933 H953 0.930 . S
C934 C935 1.474 . S
C934 C936 1.285 . S
C934 H954 0.929 . S
C935 C932 1.461 . S
C935 C934 1.474 . S
C936 C931 1.342 . S
C936 C934 1.285 . S
C936 H955 0.930 . S
C937 C940 1.424 . S
C937 C942 1.245 . S
C937 C943 1.428 . S
C938 C941 1.260 . S
C938 C942 1.477 . S
C938 H956 0.932 . S
C939 C940 1.384 . S
C939 C941 1.479 . S
C939 H957 0.929 . S
C940 C937 1.424 . S
C940 C939 1.384 . S
C940 H958 0.928 . S
C941 C938 1.260 . S
C941 C939 1.479 . S
C942 C937 1.245 . S
C942 C938 1.477 . S
C942 H959 0.932 . S
C943 U926 2.882 1_455 S
C943 C937 1.428 . S
C943 O946 1.301 1_455 S
C943 O947 1.282 1_455 S
O944 U926 2.441 . S
O944 C930 1.249 . S
O945 U926 2.420 . S
O945 C930 1.202 . S
O946 U926 2.455 . S
O946 C943 1.301 1_655 S
O947 U926 2.449 . S
O947 C943 1.282 1_655 S
H948 C921 0.931 . S
H949 C923 0.929 1_455 S
H950 C924 0.930 . S
H951 C925 0.931 . S
H952 C932 0.932 . S
H953 C933 0.930 . S
H954 C934 0.929 . S
H955 C936 0.930 . S
H956 C938 0.932 . S
H957 C939 0.929 . S
H958 C940 0.928 . S
H959 C942 0.932 . S
C960 C961 1.386 . S
C960 C962 1.397 . S
C960 H984 0.931 . S
C961 C960 1.386 . S
C961 C965 1.397 . S
C962 C960 1.397 . S
C962 C963 1.384 . S
C962 H985 0.930 . S
C963 C962 1.384 . S
C963 C964 1.377 . S
C963 C966 1.481 . S
C964 C963 1.377 . S
C964 C965 1.389 . S
C964 H986 0.929 . S
C965 C961 1.397 . S
C965 C964 1.389 . S
C965 H987 0.931 . S
C966 C963 1.481 . S
C966 C967 1.387 . S
C966 C971 1.390 . S
C967 C966 1.387 . S
C967 C968 1.401 . S
C967 H988 0.930 . S
C968 C967 1.401 . S
C968 C969 1.376 . S
C968 C977 1.511 . S
C969 C968 1.376 . S
C969 C970 1.392 . S
C969 H990 0.931 . S
C970 C969 1.392 . S
C970 C971 1.361 . S
C970 C972 1.500 . S
C971 C966 1.390 . S
C971 C970 1.361 . S
C971 H989 0.931 . S
C972 C970 1.500 . S
C972 C973 1.371 . S
C972 C974 1.365 . S
C973 C972 1.371 . S
C973 C983 1.386 . S
C973 H991 0.931 . S
C974 C972 1.365 . S
C974 C975 1.409 . S
C974 H992 0.929 . S
C975 C974 1.409 . S
C975 C976 1.380 . S
C975 H993 0.930 . S
C976 C975 1.380 . S
C976 C983 1.357 . S
C977 C968 1.511 . S
C977 C978 1.341 . S
C977 C979 1.371 . S
C978 C977 1.341 . S
C978 C982 1.394 . S
C978 H994 0.930 . S
C979 C977 1.371 . S
C979 C980 1.392 . S
C979 H995 0.931 . S
C980 C979 1.392 . S
C980 C981 1.331 . S
C980 H998 0.932 . S
C981 C980 1.331 . S
C981 C982 1.336 . S
C982 C978 1.394 . S
C982 C981 1.336 . S
C982 H997 0.929 . S
C983 C973 1.386 . S
C983 C976 1.357 . S
C983 H996 0.928 . S
H984 C960 0.931 . S
H985 C962 0.930 . S
H986 C964 0.929 . S
H987 C965 0.931 . S
H988 C967 0.930 . S
H989 C971 0.931 . S
H990 C969 0.931 . S
H991 C973 0.931 . S
H992 C974 0.929 . S
H993 C975 0.930 . S
H994 C978 0.930 . S
H995 C979 0.931 . S
H996 C983 0.928 . S
H997 C982 0.929 . S
H998 C980 0.932 . S
C999 C1000 1.386 . S
C999 C1001 1.397 . S
C999 H1023 0.931 . S
C1000 C999 1.386 . S
C1000 C1004 1.397 . S
C1001 C999 1.397 . S
C1001 C1002 1.384 . S
C1001 H1024 0.930 . S
C1002 C1001 1.384 . S
C1002 C1003 1.377 . S
C1002 C1005 1.481 . S
C1003 C1002 1.377 . S
C1003 C1004 1.389 . S
C1003 H1025 0.929 . S
C1004 C1000 1.397 . S
C1004 C1003 1.389 . S
C1004 H1026 0.931 . S
C1005 C1002 1.481 . S
C1005 C1006 1.387 . S
C1005 C1010 1.390 . S
C1006 C1005 1.387 . S
C1006 C1007 1.401 . S
C1006 H1027 0.930 . S
C1007 C1006 1.401 . S
C1007 C1008 1.376 . S
C1007 C1016 1.511 . S
C1008 C1007 1.376 . S
C1008 C1009 1.392 . S
C1008 H1029 0.931 . S
C1009 C1008 1.392 . S
C1009 C1010 1.361 . S
C1009 C1011 1.500 . S
C1010 C1005 1.390 . S
C1010 C1009 1.361 . S
C1010 H1028 0.931 . S
C1011 C1009 1.500 . S
C1011 C1012 1.371 . S
C1011 C1013 1.365 . S
C1012 C1011 1.371 . S
C1012 C1022 1.386 . S
C1012 H1030 0.931 . S
C1013 C1011 1.365 . S
C1013 C1014 1.409 . S
C1013 H1031 0.929 . S
C1014 C1013 1.409 . S
C1014 C1015 1.380 . S
C1014 H1032 0.930 . S
C1015 C1014 1.380 . S
C1015 C1022 1.357 . S
C1016 C1007 1.511 . S
C1016 C1017 1.341 . S
C1016 C1018 1.371 . S
C1017 C1016 1.341 . S
C1017 C1021 1.394 . S
C1017 H1033 0.930 . S
C1018 C1016 1.371 . S
C1018 C1019 1.392 . S
C1018 H1034 0.931 . S
C1019 C1018 1.392 . S
C1019 C1020 1.331 . S
C1019 H1037 0.932 . S
C1020 C1019 1.331 . S
C1020 C1021 1.336 . S
C1021 C1017 1.394 . S
C1021 C1020 1.336 . S
C1021 H1036 0.929 . S
C1022 C1012 1.386 . S
C1022 C1015 1.357 . S
C1022 H1035 0.928 . S
H1023 C999 0.931 . S
H1024 C1001 0.930 . S
H1025 C1003 0.929 . S
H1026 C1004 0.931 . S
H1027 C1006 0.930 . S
H1028 C1010 0.931 . S
H1029 C1008 0.931 . S
H1030 C1012 0.931 . S
H1031 C1013 0.929 . S
H1032 C1014 0.930 . S
H1033 C1017 0.930 . S
H1034 C1018 0.931 . S
H1035 C1022 0.928 . S
H1036 C1021 0.929 . S
H1037 C1019 0.932 . S
C1038 C1039 1.349 1_545 S
C1038 C1040 1.397 . S
C1038 H1062 0.931 . S
C1039 C1038 1.349 1_565 S
C1039 C1043 1.433 . S
C1040 C1038 1.397 . S
C1040 C1041 1.400 . S
C1040 H1063 0.930 . S
C1041 C1040 1.400 . S
C1041 C1042 1.360 1_545 S
C1041 C1044 1.480 . S
C1042 C1041 1.360 1_565 S
C1042 C1043 1.389 . S
C1042 H1064 0.929 . S
C1043 C1039 1.433 . S
C1043 C1042 1.389 . S
C1043 H1065 0.931 . S
C1044 C1041 1.480 . S
C1044 C1045 1.422 . S
C1044 C1049 1.356 1_545 S
C1045 C1044 1.422 . S
C1045 C1046 1.401 . S
C1045 H1066 0.930 . S
C1046 C1045 1.401 . S
C1046 C1047 1.412 . S
C1046 C1055 1.511 . S
C1047 C1046 1.412 . S
C1047 C1048 1.356 1_545 S
C1047 H1068 0.931 . S
C1048 C1047 1.356 1_565 S
C1048 C1049 1.361 . S
C1048 C1050 1.500 . S
C1049 C1044 1.356 1_565 S
C1049 C1048 1.361 . S
C1049 H1067 0.931 . S
C1050 C1048 1.500 . S
C1050 C1051 1.371 . S
C1050 C1052 1.365 . S
C1051 C1050 1.371 . S
C1051 C1061 1.386 . S
C1051 H1069 0.931 . S
C1052 C1050 1.365 . S
C1052 C1053 1.409 . S
C1052 H1070 0.929 . S
C1053 C1052 1.409 . S
C1053 C1054 1.380 . S
C1053 H1071 0.930 . S
C1054 C1053 1.380 . S
C1054 C1061 1.357 . S
C1055 C1046 1.511 . S
C1055 C1056 1.341 . S
C1055 C1057 1.371 . S
C1056 C1055 1.341 . S
C1056 C1060 1.394 . S
C1056 H1072 0.930 . S
C1057 C1055 1.371 . S
C1057 C1058 1.392 . S
C1057 H1073 0.931 . S
C1058 C1057 1.392 . S
C1058 C1059 1.331 . S
C1058 H1076 0.932 . S
C1059 C1058 1.331 . S
C1059 C1060 1.336 . S
C1060 C1056 1.394 . S
C1060 C1059 1.336 . S
C1060 H1075 0.929 . S
C1061 C1051 1.386 . S
C1061 C1054 1.357 . S
C1061 H1074 0.928 . S
H1062 C1038 0.931 . S
H1063 C1040 0.930 . S
H1064 C1042 0.929 . S
H1065 C1043 0.931 . S
H1066 C1045 0.930 . S
H1067 C1049 0.931 . S
H1068 C1047 0.931 . S
H1069 C1051 0.931 . S
H1070 C1052 0.929 . S
H1071 C1053 0.930 . S
H1072 C1056 0.930 . S
H1073 C1057 0.931 . S
H1074 C1061 0.928 . S
H1075 C1060 0.929 . S
H1076 C1058 0.932 . S
C1077 C1078 1.386 . S
C1077 C1079 1.397 . S
C1077 H1101 0.931 . S
C1078 C1077 1.386 . S
C1078 C1082 1.397 1_565 S
C1079 C1077 1.397 . S
C1079 C1080 1.384 . S
C1079 H1102 0.930 . S
C1080 C1079 1.384 . S
C1080 C1081 1.377 1_565 S
C1080 C1083 1.481 . S
C1081 C1080 1.377 1_545 S
C1081 C1082 1.389 . S
C1081 H1103 0.929 . S
C1082 C1078 1.397 1_545 S
C1082 C1081 1.389 . S
C1082 H1104 0.931 . S
C1083 C1080 1.481 . S
C1083 C1084 1.387 . S
C1083 C1088 1.390 1_565 S
C1084 C1083 1.387 . S
C1084 C1085 1.401 . S
C1084 H1105 0.930 . S
C1085 C1084 1.401 . S
C1085 C1086 1.376 1_565 S
C1085 C1094 1.511 . S
C1086 C1085 1.376 1_545 S
C1086 C1087 1.392 . S
C1086 H1107 0.931 . S
C1087 C1086 1.392 . S
C1087 C1088 1.361 . S
C1087 C1089 1.500 . S
C1088 C1083 1.390 1_545 S
C1088 C1087 1.361 . S
C1088 H1106 0.931 . S
C1089 C1087 1.500 . S
C1089 C1090 1.371 . S
C1089 C1091 1.365 . S
C1090 C1089 1.371 . S
C1090 C1100 1.386 . S
C1090 H1108 0.931 . S
C1091 C1089 1.365 . S
C1091 C1092 1.409 . S
C1091 H1109 0.929 . S
C1092 C1091 1.409 . S
C1092 C1093 1.380 . S
C1092 H1110 0.930 . S
C1093 C1092 1.380 . S
C1093 C1100 1.357 . S
C1094 C1085 1.511 . S
C1094 C1095 1.341 . S
C1094 C1096 1.371 . S
C1095 C1094 1.341 . S
C1095 C1099 1.394 . S
C1095 H1111 0.930 . S
C1096 C1094 1.371 . S
C1096 C1097 1.392 . S
C1096 H1112 0.931 . S
C1097 C1096 1.392 . S
C1097 C1098 1.331 . S
C1097 H1115 0.932 . S
C1098 C1097 1.331 . S
C1098 C1099 1.336 . S
C1099 C1095 1.394 . S
C1099 C1098 1.336 . S
C1099 H1114 0.929 . S
C1100 C1090 1.386 . S
C1100 C1093 1.357 . S
C1100 H1113 0.928 . S
H1101 C1077 0.931 . S
H1102 C1079 0.930 . S
H1103 C1081 0.929 . S
H1104 C1082 0.931 . S
H1105 C1084 0.930 . S
H1106 C1088 0.931 . S
H1107 C1086 0.931 . S
H1108 C1090 0.931 . S
H1109 C1091 0.929 . S
H1110 C1092 0.930 . S
H1111 C1095 0.930 . S
H1112 C1096 0.931 . S
H1113 C1100 0.928 . S
H1114 C1099 0.929 . S
H1115 C1097 0.932 . S
C1116 C1117 1.386 . S
C1116 C1118 1.397 . S
C1116 H1140 0.931 . S
C1117 C1116 1.386 . S
C1117 C1121 1.397 . S
C1118 C1116 1.397 . S
C1118 C1119 1.384 . S
C1118 H1141 0.930 . S
C1119 C1118 1.384 . S
C1119 C1120 1.377 . S
C1119 C1122 1.481 . S
C1120 C1119 1.377 . S
C1120 C1121 1.389 . S
C1120 H1142 0.929 . S
C1121 C1117 1.397 . S
C1121 C1120 1.389 . S
C1121 H1143 0.931 . S
C1122 C1119 1.481 . S
C1122 C1123 1.387 . S
C1122 C1127 1.390 . S
C1123 C1122 1.387 . S
C1123 C1124 1.401 . S
C1123 H1144 0.930 . S
C1124 C1123 1.401 . S
C1124 C1125 1.376 . S
C1124 C1133 1.511 . S
C1125 C1124 1.376 . S
C1125 C1126 1.392 . S
C1125 H1146 0.931 . S
C1126 C1125 1.392 . S
C1126 C1127 1.361 . S
C1126 C1128 1.500 . S
C1127 C1122 1.390 . S
C1127 C1126 1.361 . S
C1127 H1145 0.931 . S
C1128 C1126 1.500 . S
C1128 C1129 1.371 . S
C1128 C1130 1.365 . S
C1129 C1128 1.371 . S
C1129 C1139 1.386 . S
C1129 H1147 0.931 . S
C1130 C1128 1.365 . S
C1130 C1131 1.409 . S
C1130 H1148 0.929 . S
C1131 C1130 1.409 . S
C1131 C1132 1.380 . S
C1131 H1149 0.930 . S
C1132 C1131 1.380 . S
C1132 C1139 1.357 . S
C1133 C1124 1.511 . S
C1133 C1134 1.341 . S
C1133 C1135 1.371 . S
C1134 C1133 1.341 . S
C1134 C1138 1.394 . S
C1134 H1150 0.930 . S
C1135 C1133 1.371 . S
C1135 C1136 1.392 . S
C1135 H1151 0.931 . S
C1136 C1135 1.392 . S
C1136 C1137 1.331 . S
C1136 H1154 0.932 . S
C1137 C1136 1.331 . S
C1137 C1138 1.336 . S
C1138 C1134 1.394 . S
C1138 C1137 1.336 . S
C1138 H1153 0.929 . S
C1139 C1129 1.386 . S
C1139 C1132 1.357 . S
C1139 H1152 0.928 . S
H1140 C1116 0.931 . S
H1141 C1118 0.930 . S
H1142 C1120 0.929 . S
H1143 C1121 0.931 . S
H1144 C1123 0.930 . S
H1145 C1127 0.931 . S
H1146 C1125 0.931 . S
H1147 C1129 0.931 . S
H1148 C1130 0.929 . S
H1149 C1131 0.930 . S
H1150 C1134 0.930 . S
H1151 C1135 0.931 . S
H1152 C1139 0.928 . S
H1153 C1138 0.929 . S
H1154 C1136 0.932 . S
C1155 C1156 1.386 . S
C1155 C1157 1.397 . S
C1155 H1179 0.931 . S
C1156 C1155 1.386 . S
C1156 C1160 1.397 1_556 S
C1157 C1155 1.397 . S
C1157 C1158 1.384 . S
C1157 H1180 0.930 . S
C1158 C1157 1.384 . S
C1158 C1159 1.377 1_556 S
C1158 C1161 1.481 . S
C1159 C1158 1.377 1_554 S
C1159 C1160 1.389 . S
C1159 H1181 0.929 . S
C1160 C1156 1.397 1_554 S
C1160 C1159 1.389 . S
C1160 H1182 0.931 . S
C1161 C1158 1.481 . S
C1161 C1162 1.387 . S
C1161 C1166 1.390 1_556 S
C1162 C1161 1.387 . S
C1162 C1163 1.401 . S
C1162 H1183 0.930 . S
C1163 C1162 1.401 . S
C1163 C1164 1.376 1_556 S
C1163 C1172 1.511 . S
C1164 C1163 1.376 1_554 S
C1164 C1165 1.392 . S
C1164 H1185 0.931 . S
C1165 C1164 1.392 . S
C1165 C1166 1.361 . S
C1165 C1167 1.500 . S
C1166 C1161 1.390 1_554 S
C1166 C1165 1.361 . S
C1166 H1184 0.931 . S
C1167 C1165 1.500 . S
C1167 C1168 1.371 . S
C1167 C1169 1.365 . S
C1168 C1167 1.371 . S
C1168 C1178 1.386 . S
C1168 H1186 0.931 . S
C1169 C1167 1.365 . S
C1169 C1170 1.409 . S
C1169 H1187 0.929 . S
C1170 C1169 1.409 . S
C1170 C1171 1.380 . S
C1170 H1188 0.930 . S
C1171 C1170 1.380 . S
C1171 C1178 1.357 . S
C1172 C1163 1.511 . S
C1172 C1173 1.341 . S
C1172 C1174 1.371 . S
C1173 C1172 1.341 . S
C1173 C1177 1.394 . S
C1173 H1189 0.930 . S
C1174 C1172 1.371 . S
C1174 C1175 1.392 . S
C1174 H1190 0.931 . S
C1175 C1174 1.392 . S
C1175 C1176 1.331 . S
C1175 H1193 0.932 . S
C1176 C1175 1.331 . S
C1176 C1177 1.336 . S
C1177 C1173 1.394 . S
C1177 C1176 1.336 . S
C1177 H1192 0.929 . S
C1178 C1168 1.386 . S
C1178 C1171 1.357 . S
C1178 H1191 0.928 . S
H1179 C1155 0.931 . S
H1180 C1157 0.930 . S
H1181 C1159 0.929 . S
H1182 C1160 0.931 . S
H1183 C1162 0.930 . S
H1184 C1166 0.931 . S
H1185 C1164 0.931 . S
H1186 C1168 0.931 . S
H1187 C1169 0.929 . S
H1188 C1170 0.930 . S
H1189 C1173 0.930 . S
H1190 C1174 0.931 . S
H1191 C1178 0.928 . S
H1192 C1177 0.929 . S
H1193 C1175 0.932 . S
C1194 C1195 1.386 . S
C1194 C1196 1.397 . S
C1194 H1218 0.931 . S
C1195 C1194 1.386 . S
C1195 C1199 1.397 . S
C1196 C1194 1.397 . S
C1196 C1197 1.384 . S
C1196 H1219 0.930 . S
C1197 C1196 1.384 . S
C1197 C1198 1.377 . S
C1197 C1200 1.481 . S
C1198 C1197 1.377 . S
C1198 C1199 1.389 . S
C1198 H1220 0.929 . S
C1199 C1195 1.397 . S
C1199 C1198 1.389 . S
C1199 H1221 0.931 . S
C1200 C1197 1.481 . S
C1200 C1201 1.387 . S
C1200 C1205 1.390 . S
C1201 C1200 1.387 . S
C1201 C1202 1.401 . S
C1201 H1222 0.930 . S
C1202 C1201 1.401 . S
C1202 C1203 1.376 . S
C1202 C1211 1.511 . S
C1203 C1202 1.376 . S
C1203 C1204 1.392 . S
C1203 H1224 0.931 . S
C1204 C1203 1.392 . S
C1204 C1205 1.361 . S
C1204 C1206 1.500 . S
C1205 C1200 1.390 . S
C1205 C1204 1.361 . S
C1205 H1223 0.931 . S
C1206 C1204 1.500 . S
C1206 C1207 1.371 . S
C1206 C1208 1.365 . S
C1207 C1206 1.371 . S
C1207 C1217 1.386 . S
C1207 H1225 0.931 . S
C1208 C1206 1.365 . S
C1208 C1209 1.409 . S
C1208 H1226 0.929 . S
C1209 C1208 1.409 . S
C1209 C1210 1.380 . S
C1209 H1227 0.930 . S
C1210 C1209 1.380 . S
C1210 C1217 1.357 . S
C1211 C1202 1.511 . S
C1211 C1212 1.341 . S
C1211 C1213 1.371 . S
C1212 C1211 1.341 . S
C1212 C1216 1.394 . S
C1212 H1228 0.930 . S
C1213 C1211 1.371 . S
C1213 C1214 1.392 . S
C1213 H1229 0.931 . S
C1214 C1213 1.392 . S
C1214 C1215 1.331 . S
C1214 H1232 0.932 . S
C1215 C1214 1.331 . S
C1215 C1216 1.336 . S
C1216 C1212 1.394 . S
C1216 C1215 1.336 . S
C1216 H1231 0.929 . S
C1217 C1207 1.386 . S
C1217 C1210 1.357 . S
C1217 H1230 0.928 . S
H1218 C1194 0.931 . S
H1219 C1196 0.930 . S
H1220 C1198 0.929 . S
H1221 C1199 0.931 . S
H1222 C1201 0.930 . S
H1223 C1205 0.931 . S
H1224 C1203 0.931 . S
H1225 C1207 0.931 . S
H1226 C1208 0.929 . S
H1227 C1209 0.930 . S
H1228 C1212 0.930 . S
H1229 C1213 0.931 . S
H1230 C1217 0.928 . S
H1231 C1216 0.929 . S
H1232 C1214 0.932 . S
C1233 C1234 1.349 1_554 S
C1233 C1235 1.397 . S
C1233 H1257 0.931 . S
C1234 C1233 1.349 1_556 S
C1234 C1238 1.433 . S
C1235 C1233 1.397 . S
C1235 C1236 1.400 . S
C1235 H1258 0.930 . S
C1236 C1235 1.400 . S
C1236 C1237 1.360 1_554 S
C1236 C1239 1.480 . S
C1237 C1236 1.360 1_556 S
C1237 C1238 1.389 . S
C1237 H1259 0.929 . S
C1238 C1234 1.433 . S
C1238 C1237 1.389 . S
C1238 H1260 0.931 . S
C1239 C1236 1.480 . S
C1239 C1240 1.422 . S
C1239 C1244 1.356 1_554 S
C1240 C1239 1.422 . S
C1240 C1241 1.401 . S
C1240 H1261 0.930 . S
C1241 C1240 1.401 . S
C1241 C1242 1.412 . S
C1241 C1250 1.511 . S
C1242 C1241 1.412 . S
C1242 C1243 1.356 1_554 S
C1242 H1263 0.931 . S
C1243 C1242 1.356 1_556 S
C1243 C1244 1.361 . S
C1243 C1245 1.500 . S
C1244 C1239 1.356 1_556 S
C1244 C1243 1.361 . S
C1244 H1262 0.931 . S
C1245 C1243 1.500 . S
C1245 C1246 1.371 . S
C1245 C1247 1.365 . S
C1246 C1245 1.371 . S
C1246 C1256 1.386 . S
C1246 H1264 0.931 . S
C1247 C1245 1.365 . S
C1247 C1248 1.409 . S
C1247 H1265 0.929 . S
C1248 C1247 1.409 . S
C1248 C1249 1.380 . S
C1248 H1266 0.930 . S
C1249 C1248 1.380 . S
C1249 C1256 1.357 . S
C1250 C1241 1.511 . S
C1250 C1251 1.341 . S
C1250 C1252 1.371 . S
C1251 C1250 1.341 . S
C1251 C1255 1.394 . S
C1251 H1267 0.930 . S
C1252 C1250 1.371 . S
C1252 C1253 1.392 . S
C1252 H1268 0.931 . S
C1253 C1252 1.392 . S
C1253 C1254 1.331 . S
C1253 H1271 0.932 . S
C1254 C1253 1.331 . S
C1254 C1255 1.336 . S
C1255 C1251 1.394 . S
C1255 C1254 1.336 . S
C1255 H1270 0.929 . S
C1256 C1246 1.386 . S
C1256 C1249 1.357 . S
C1256 H1269 0.928 . S
H1257 C1233 0.931 . S
H1258 C1235 0.930 . S
H1259 C1237 0.929 . S
H1260 C1238 0.931 . S
H1261 C1240 0.930 . S
H1262 C1244 0.931 . S
H1263 C1242 0.931 . S
H1264 C1246 0.931 . S
H1265 C1247 0.929 . S
H1266 C1248 0.930 . S
H1267 C1251 0.930 . S
H1268 C1252 0.931 . S
H1269 C1256 0.928 . S
H1270 C1255 0.929 . S
H1271 C1253 0.932 . S
C1272 C1273 1.386 . S
C1272 C1274 1.397 . S
C1272 H1296 0.931 . S
C1273 C1272 1.386 . S
C1273 C1277 1.397 . S
C1274 C1272 1.397 . S
C1274 C1275 1.384 . S
C1274 H1297 0.930 . S
C1275 C1274 1.384 . S
C1275 C1276 1.377 . S
C1275 C1278 1.481 . S
C1276 C1275 1.377 . S
C1276 C1277 1.389 . S
C1276 H1298 0.929 . S
C1277 C1273 1.397 . S
C1277 C1276 1.389 . S
C1277 H1299 0.931 . S
C1278 C1275 1.481 . S
C1278 C1279 1.387 . S
C1278 C1283 1.390 . S
C1279 C1278 1.387 . S
C1279 C1280 1.401 . S
C1279 H1300 0.930 . S
C1280 C1279 1.401 . S
C1280 C1281 1.376 . S
C1280 C1289 1.511 . S
C1281 C1280 1.376 . S
C1281 C1282 1.392 . S
C1281 H1302 0.931 . S
C1282 C1281 1.392 . S
C1282 C1283 1.361 . S
C1282 C1284 1.500 . S
C1283 C1278 1.390 . S
C1283 C1282 1.361 . S
C1283 H1301 0.931 . S
C1284 C1282 1.500 . S
C1284 C1285 1.371 . S
C1284 C1286 1.365 . S
C1285 C1284 1.371 . S
C1285 C1295 1.386 . S
C1285 H1303 0.931 . S
C1286 C1284 1.365 . S
C1286 C1287 1.409 . S
C1286 H1304 0.929 . S
C1287 C1286 1.409 . S
C1287 C1288 1.380 . S
C1287 H1305 0.930 . S
C1288 C1287 1.380 . S
C1288 C1295 1.357 . S
C1289 C1280 1.511 . S
C1289 C1290 1.341 . S
C1289 C1291 1.371 . S
C1290 C1289 1.341 . S
C1290 C1294 1.394 . S
C1290 H1306 0.930 . S
C1291 C1289 1.371 . S
C1291 C1292 1.392 . S
C1291 H1307 0.931 . S
C1292 C1291 1.392 . S
C1292 C1293 1.331 . S
C1292 H1310 0.932 . S
C1293 C1292 1.331 . S
C1293 C1294 1.336 . S
C1294 C1290 1.394 . S
C1294 C1293 1.336 . S
C1294 H1309 0.929 . S
C1295 C1285 1.386 . S
C1295 C1288 1.357 . S
C1295 H1308 0.928 . S
H1296 C1272 0.931 . S
H1297 C1274 0.930 . S
H1298 C1276 0.929 . S
H1299 C1277 0.931 . S
H1300 C1279 0.930 . S
H1301 C1283 0.931 . S
H1302 C1281 0.931 . S
H1303 C1285 0.931 . S
H1304 C1286 0.929 . S
H1305 C1287 0.930 . S
H1306 C1290 0.930 . S
H1307 C1291 0.931 . S
H1308 C1295 0.928 . S
H1309 C1294 0.929 . S
H1310 C1292 0.932 . S
C1311 C1312 1.386 . S
C1311 C1313 1.397 . S
C1311 H1335 0.931 . S
C1312 C1311 1.386 . S
C1312 C1316 1.397 1_655 S
C1313 C1311 1.397 . S
C1313 C1314 1.384 . S
C1313 H1336 0.930 . S
C1314 C1313 1.384 . S
C1314 C1315 1.377 1_655 S
C1314 C1317 1.481 . S
C1315 C1314 1.377 1_455 S
C1315 C1316 1.389 . S
C1315 H1337 0.929 . S
C1316 C1312 1.397 1_455 S
C1316 C1315 1.389 . S
C1316 H1338 0.931 . S
C1317 C1314 1.481 . S
C1317 C1318 1.387 . S
C1317 C1322 1.390 1_655 S
C1318 C1317 1.387 . S
C1318 C1319 1.401 . S
C1318 H1339 0.930 . S
C1319 C1318 1.401 . S
C1319 C1320 1.376 1_655 S
C1319 C1328 1.511 . S
C1320 C1319 1.376 1_455 S
C1320 C1321 1.392 . S
C1320 H1341 0.931 . S
C1321 C1320 1.392 . S
C1321 C1322 1.361 . S
C1321 C1323 1.500 . S
C1322 C1317 1.390 1_455 S
C1322 C1321 1.361 . S
C1322 H1340 0.931 . S
C1323 C1321 1.500 . S
C1323 C1324 1.371 . S
C1323 C1325 1.365 . S
C1324 C1323 1.371 . S
C1324 C1334 1.386 . S
C1324 H1342 0.931 . S
C1325 C1323 1.365 . S
C1325 C1326 1.409 . S
C1325 H1343 0.929 . S
C1326 C1325 1.409 . S
C1326 C1327 1.380 . S
C1326 H1344 0.930 . S
C1327 C1326 1.380 . S
C1327 C1334 1.357 . S
C1328 C1319 1.511 . S
C1328 C1329 1.341 . S
C1328 C1330 1.371 . S
C1329 C1328 1.341 . S
C1329 C1333 1.394 . S
C1329 H1345 0.930 . S
C1330 C1328 1.371 . S
C1330 C1331 1.392 . S
C1330 H1346 0.931 . S
C1331 C1330 1.392 . S
C1331 C1332 1.331 . S
C1331 H1349 0.932 . S
C1332 C1331 1.331 . S
C1332 C1333 1.336 . S
C1333 C1329 1.394 . S
C1333 C1332 1.336 . S
C1333 H1348 0.929 . S
C1334 C1324 1.386 . S
C1334 C1327 1.357 . S
C1334 H1347 0.928 . S
H1335 C1311 0.931 . S
H1336 C1313 0.930 . S
H1337 C1315 0.929 . S
H1338 C1316 0.931 . S
H1339 C1318 0.930 . S
H1340 C1322 0.931 . S
H1341 C1320 0.931 . S
H1342 C1324 0.931 . S
H1343 C1325 0.929 . S
H1344 C1326 0.930 . S
H1345 C1329 0.930 . S
H1346 C1330 0.931 . S
H1347 C1334 0.928 . S
H1348 C1333 0.929 . S
H1349 C1331 0.932 . S
C1350 C1351 1.386 . S
C1350 C1352 1.397 . S
C1350 H1374 0.931 . S
C1351 C1350 1.386 . S
C1351 C1355 1.397 . S
C1352 C1350 1.397 . S
C1352 C1353 1.384 . S
C1352 H1375 0.930 . S
C1353 C1352 1.384 . S
C1353 C1354 1.377 . S
C1353 C1356 1.481 . S
C1354 C1353 1.377 . S
C1354 C1355 1.389 . S
C1354 H1376 0.929 . S
C1355 C1351 1.397 . S
C1355 C1354 1.389 . S
C1355 H1377 0.931 . S
C1356 C1353 1.481 . S
C1356 C1357 1.387 . S
C1356 C1361 1.390 . S
C1357 C1356 1.387 . S
C1357 C1358 1.401 . S
C1357 H1378 0.930 . S
C1358 C1357 1.401 . S
C1358 C1359 1.376 . S
C1358 C1367 1.511 . S
C1359 C1358 1.376 . S
C1359 C1360 1.392 . S
C1359 H1380 0.931 . S
C1360 C1359 1.392 . S
C1360 C1361 1.361 . S
C1360 C1362 1.500 . S
C1361 C1356 1.390 . S
C1361 C1360 1.361 . S
C1361 H1379 0.931 . S
C1362 C1360 1.500 . S
C1362 C1363 1.371 . S
C1362 C1364 1.365 . S
C1363 C1362 1.371 . S
C1363 C1373 1.386 . S
C1363 H1381 0.931 . S
C1364 C1362 1.365 . S
C1364 C1365 1.409 . S
C1364 H1382 0.929 . S
C1365 C1364 1.409 . S
C1365 C1366 1.380 . S
C1365 H1383 0.930 . S
C1366 C1365 1.380 . S
C1366 C1373 1.357 . S
C1367 C1358 1.511 . S
C1367 C1368 1.341 . S
C1367 C1369 1.371 . S
C1368 C1367 1.341 . S
C1368 C1372 1.394 . S
C1368 H1384 0.930 . S
C1369 C1367 1.371 . S
C1369 C1370 1.392 . S
C1369 H1385 0.931 . S
C1370 C1369 1.392 . S
C1370 C1371 1.331 . S
C1370 H1388 0.932 . S
C1371 C1370 1.331 . S
C1371 C1372 1.336 . S
C1372 C1368 1.394 . S
C1372 C1371 1.336 . S
C1372 H1387 0.929 . S
C1373 C1363 1.386 . S
C1373 C1366 1.357 . S
C1373 H1386 0.928 . S
H1374 C1350 0.931 . S
H1375 C1352 0.930 . S
H1376 C1354 0.929 . S
H1377 C1355 0.931 . S
H1378 C1357 0.930 . S
H1379 C1361 0.931 . S
H1380 C1359 0.931 . S
H1381 C1363 0.931 . S
H1382 C1364 0.929 . S
H1383 C1365 0.930 . S
H1384 C1368 0.930 . S
H1385 C1369 0.931 . S
H1386 C1373 0.928 . S
H1387 C1372 0.929 . S
H1388 C1370 0.932 . S
C1389 C1390 1.349 1_455 S
C1389 C1391 1.397 . S
C1389 H1413 0.931 . S
C1390 C1389 1.349 1_655 S
C1390 C1394 1.433 . S
C1391 C1389 1.397 . S
C1391 C1392 1.400 . S
C1391 H1414 0.930 . S
C1392 C1391 1.400 . S
C1392 C1393 1.360 1_455 S
C1392 C1395 1.480 . S
C1393 C1392 1.360 1_655 S
C1393 C1394 1.389 . S
C1393 H1415 0.929 . S
C1394 C1390 1.433 . S
C1394 C1393 1.389 . S
C1394 H1416 0.931 . S
C1395 C1392 1.480 . S
C1395 C1396 1.422 . S
C1395 C1400 1.356 1_455 S
C1396 C1395 1.422 . S
C1396 C1397 1.401 . S
C1396 H1417 0.930 . S
C1397 C1396 1.401 . S
C1397 C1398 1.412 . S
C1397 C1406 1.511 . S
C1398 C1397 1.412 . S
C1398 C1399 1.356 1_455 S
C1398 H1419 0.931 . S
C1399 C1398 1.356 1_655 S
C1399 C1400 1.361 . S
C1399 C1401 1.500 . S
C1400 C1395 1.356 1_655 S
C1400 C1399 1.361 . S
C1400 H1418 0.931 . S
C1401 C1399 1.500 . S
C1401 C1402 1.371 . S
C1401 C1403 1.365 . S
C1402 C1401 1.371 . S
C1402 C1412 1.386 . S
C1402 H1420 0.931 . S
C1403 C1401 1.365 . S
C1403 C1404 1.409 . S
C1403 H1421 0.929 . S
C1404 C1403 1.409 . S
C1404 C1405 1.380 . S
C1404 H1422 0.930 . S
C1405 C1404 1.380 . S
C1405 C1412 1.357 . S
C1406 C1397 1.511 . S
C1406 C1407 1.341 . S
C1406 C1408 1.371 . S
C1407 C1406 1.341 . S
C1407 C1411 1.394 . S
C1407 H1423 0.930 . S
C1408 C1406 1.371 . S
C1408 C1409 1.392 . S
C1408 H1424 0.931 . S
C1409 C1408 1.392 . S
C1409 C1410 1.331 . S
C1409 H1427 0.932 . S
C1410 C1409 1.331 . S
C1410 C1411 1.336 . S
C1411 C1407 1.394 . S
C1411 C1410 1.336 . S
C1411 H1426 0.929 . S
C1412 C1402 1.386 . S
C1412 C1405 1.357 . S
C1412 H1425 0.928 . S
H1413 C1389 0.931 . S
H1414 C1391 0.930 . S
H1415 C1393 0.929 . S
H1416 C1394 0.931 . S
H1417 C1396 0.930 . S
H1418 C1400 0.931 . S
H1419 C1398 0.931 . S
H1420 C1402 0.931 . S
H1421 C1403 0.929 . S
H1422 C1404 0.930 . S
H1423 C1407 0.930 . S
H1424 C1408 0.931 . S
H1425 C1412 0.928 . S
H1426 C1411 0.929 . S
H1427 C1409 0.932 . S
C1428 C1429 1.386 . S
C1428 C1430 1.397 . S
C1428 H1452 0.931 . S
C1429 C1428 1.386 . S
C1429 C1433 1.397 . S
C1430 C1428 1.397 . S
C1430 C1431 1.384 . S
C1430 H1453 0.930 . S
C1431 C1430 1.384 . S
C1431 C1432 1.377 . S
C1431 C1434 1.481 . S
C1432 C1431 1.377 . S
C1432 C1433 1.389 . S
C1432 H1454 0.929 . S
C1433 C1429 1.397 . S
C1433 C1432 1.389 . S
C1433 H1455 0.931 . S
C1434 C1431 1.481 . S
C1434 C1435 1.387 . S
C1434 C1439 1.390 . S
C1435 C1434 1.387 . S
C1435 C1436 1.401 . S
C1435 H1456 0.930 . S
C1436 C1435 1.401 . S
C1436 C1437 1.376 . S
C1436 C1445 1.511 . S
C1437 C1436 1.376 . S
C1437 C1438 1.392 . S
C1437 H1458 0.931 . S
C1438 C1437 1.392 . S
C1438 C1439 1.361 . S
C1438 C1440 1.500 . S
C1439 C1434 1.390 . S
C1439 C1438 1.361 . S
C1439 H1457 0.931 . S
C1440 C1438 1.500 . S
C1440 C1441 1.371 . S
C1440 C1442 1.365 . S
C1441 C1440 1.371 . S
C1441 C1451 1.386 . S
C1441 H1459 0.931 . S
C1442 C1440 1.365 . S
C1442 C1443 1.409 . S
C1442 H1460 0.929 . S
C1443 C1442 1.409 . S
C1443 C1444 1.380 . S
C1443 H1461 0.930 . S
C1444 C1443 1.380 . S
C1444 C1451 1.357 . S
C1445 C1436 1.511 . S
C1445 C1446 1.341 . S
C1445 C1447 1.371 . S
C1446 C1445 1.341 . S
C1446 C1450 1.394 . S
C1446 H1462 0.930 . S
C1447 C1445 1.371 . S
C1447 C1448 1.392 . S
C1447 H1463 0.931 . S
C1448 C1447 1.392 . S
C1448 C1449 1.331 . S
C1448 H1466 0.932 . S
C1449 C1448 1.331 . S
C1449 C1450 1.336 . S
C1450 C1446 1.394 . S
C1450 C1449 1.336 . S
C1450 H1465 0.929 . S
C1451 C1441 1.386 . S
C1451 C1444 1.357 . S
C1451 H1464 0.928 . S
H1452 C1428 0.931 . S
H1453 C1430 0.930 . S
H1454 C1432 0.929 . S
H1455 C1433 0.931 . S
H1456 C1435 0.930 . S
H1457 C1439 0.931 . S
H1458 C1437 0.931 . S
H1459 C1441 0.931 . S
H1460 C1442 0.929 . S
H1461 C1443 0.930 . S
H1462 C1446 0.930 . S
H1463 C1447 0.931 . S
H1464 C1451 0.928 . S
H1465 C1450 0.929 . S
H1466 C1448 0.932 . S
C1467 C1468 1.386 . S
C1467 C1469 1.397 . S
C1467 H1491 0.931 . S
C1468 C1467 1.386 . S
C1468 C1472 1.397 . S
C1469 C1467 1.397 . S
C1469 C1470 1.384 . S
C1469 H1492 0.930 . S
C1470 C1469 1.384 . S
C1470 C1471 1.377 . S
C1470 C1473 1.481 . S
C1471 C1470 1.377 . S
C1471 C1472 1.389 . S
C1471 H1493 0.929 . S
C1472 C1468 1.397 . S
C1472 C1471 1.389 . S
C1472 H1494 0.931 . S
C1473 C1470 1.481 . S
C1473 C1474 1.387 . S
C1473 C1478 1.390 . S
C1474 C1473 1.387 . S
C1474 C1475 1.401 . S
C1474 H1495 0.930 . S
C1475 C1474 1.401 . S
C1475 C1476 1.376 . S
C1475 C1484 1.511 . S
C1476 C1475 1.376 . S
C1476 C1477 1.392 . S
C1476 H1497 0.931 . S
C1477 C1476 1.392 . S
C1477 C1478 1.361 . S
C1477 C1479 1.500 . S
C1478 C1473 1.390 . S
C1478 C1477 1.361 . S
C1478 H1496 0.931 . S
C1479 C1477 1.500 . S
C1479 C1480 1.371 . S
C1479 C1481 1.365 . S
C1480 C1479 1.371 . S
C1480 C1490 1.386 . S
C1480 H1498 0.931 . S
C1481 C1479 1.365 . S
C1481 C1482 1.409 . S
C1481 H1499 0.929 . S
C1482 C1481 1.409 . S
C1482 C1483 1.380 . S
C1482 H1500 0.930 . S
C1483 C1482 1.380 . S
C1483 C1490 1.357 . S
C1484 C1475 1.511 . S
C1484 C1485 1.341 . S
C1484 C1486 1.371 . S
C1485 C1484 1.341 . S
C1485 C1489 1.394 . S
C1485 H1501 0.930 . S
C1486 C1484 1.371 . S
C1486 C1487 1.392 . S
C1486 H1502 0.931 . S
C1487 C1486 1.392 . S
C1487 C1488 1.331 . S
C1487 H1505 0.932 . S
C1488 C1487 1.331 . S
C1488 C1489 1.336 . S
C1489 C1485 1.394 . S
C1489 C1488 1.336 . S
C1489 H1504 0.929 . S
C1490 C1480 1.386 . S
C1490 C1483 1.357 . S
C1490 H1503 0.928 . S
H1491 C1467 0.931 . S
H1492 C1469 0.930 . S
H1493 C1471 0.929 . S
H1494 C1472 0.931 . S
H1495 C1474 0.930 . S
H1496 C1478 0.931 . S
H1497 C1476 0.931 . S
H1498 C1480 0.931 . S
H1499 C1481 0.929 . S
H1500 C1482 0.930 . S
H1501 C1485 0.930 . S
H1502 C1486 0.931 . S
H1503 C1490 0.928 . S
H1504 C1489 0.929 . S
H1505 C1487 0.932 . S
C1506 C1507 1.356 1_565 S
C1506 C1508 1.397 . S
C1506 H1530 0.931 . S
C1507 C1506 1.356 1_545 S
C1507 C1511 1.426 . S
C1508 C1506 1.397 . S
C1508 C1509 1.395 . S
C1508 H1531 0.930 . S
C1509 C1508 1.395 . S
C1509 C1510 1.366 1_565 S
C1509 C1512 1.481 . S
C1510 C1509 1.366 1_545 S
C1510 C1511 1.389 . S
C1510 H1532 0.929 . S
C1511 C1507 1.426 . S
C1511 C1510 1.389 . S
C1511 H1533 0.931 . S
C1512 C1509 1.481 . S
C1512 C1513 1.413 . S
C1512 C1517 1.365 1_565 S
C1513 C1512 1.413 . S
C1513 C1514 1.401 . S
C1513 H1534 0.930 . S
C1514 C1513 1.401 . S
C1514 C1515 1.400 . S
C1514 C1523 1.511 . S
C1515 C1514 1.400 . S
C1515 C1516 1.369 1_565 S
C1515 H1536 0.931 . S
C1516 C1515 1.369 1_545 S
C1516 C1517 1.361 . S
C1516 C1518 1.500 . S
C1517 C1512 1.365 1_545 S
C1517 C1516 1.361 . S
C1517 H1535 0.931 . S
C1518 C1516 1.500 . S
C1518 C1519 1.371 . S
C1518 C1520 1.365 . S
C1519 C1518 1.371 . S
C1519 C1529 1.386 . S
C1519 H1537 0.931 . S
C1520 C1518 1.365 . S
C1520 C1521 1.409 . S
C1520 H1538 0.929 . S
C1521 C1520 1.409 . S
C1521 C1522 1.380 . S
C1521 H1539 0.930 . S
C1522 C1521 1.380 . S
C1522 C1529 1.357 . S
C1523 C1514 1.511 . S
C1523 C1524 1.341 . S
C1523 C1525 1.371 . S
C1524 C1523 1.341 . S
C1524 C1528 1.394 . S
C1524 H1540 0.930 . S
C1525 C1523 1.371 . S
C1525 C1526 1.392 . S
C1525 H1541 0.931 . S
C1526 C1525 1.392 . S
C1526 C1527 1.331 . S
C1526 H1544 0.932 . S
C1527 C1526 1.331 . S
C1527 C1528 1.336 . S
C1528 C1524 1.394 . S
C1528 C1527 1.336 . S
C1528 H1543 0.929 . S
C1529 C1519 1.386 . S
C1529 C1522 1.357 . S
C1529 H1542 0.928 . S
H1530 C1506 0.931 . S
H1531 C1508 0.930 . S
H1532 C1510 0.929 . S
H1533 C1511 0.931 . S
H1534 C1513 0.930 . S
H1535 C1517 0.931 . S
H1536 C1515 0.931 . S
H1537 C1519 0.931 . S
H1538 C1520 0.929 . S
H1539 C1521 0.930 . S
H1540 C1524 0.930 . S
H1541 C1525 0.931 . S
H1542 C1529 0.928 . S
H1543 C1528 0.929 . S
H1544 C1526 0.932 . S
C1545 C1546 1.386 . S
C1545 C1547 1.397 . S
C1545 H1569 0.931 . S
C1546 C1545 1.386 . S
C1546 C1550 1.372 1_545 S
C1547 C1545 1.397 . S
C1547 C1548 1.384 . S
C1547 H1570 0.930 . S
C1548 C1547 1.384 . S
C1548 C1549 1.377 1_545 S
C1548 C1551 1.481 . S
C1549 C1548 1.377 1_565 S
C1549 C1550 1.395 . S
C1549 H1571 0.929 . S
C1550 C1546 1.372 1_565 S
C1550 C1549 1.395 . S
C1550 H1572 0.952 . S
C1551 C1548 1.481 . S
C1551 C1552 1.387 . S
C1551 C1556 1.390 1_545 S
C1552 C1551 1.387 . S
C1552 C1553 1.401 . S
C1552 H1573 0.930 . S
C1553 C1552 1.401 . S
C1553 C1554 1.376 1_545 S
C1553 C1562 1.511 . S
C1554 C1553 1.376 1_565 S
C1554 C1555 1.392 . S
C1554 H1575 0.931 . S
C1555 C1554 1.392 . S
C1555 C1556 1.361 . S
C1555 C1557 1.500 . S
C1556 C1551 1.390 1_565 S
C1556 C1555 1.361 . S
C1556 H1574 0.931 . S
C1557 C1555 1.500 . S
C1557 C1558 1.371 . S
C1557 C1559 1.365 . S
C1558 C1557 1.371 . S
C1558 C1568 1.386 . S
C1558 H1576 0.931 . S
C1559 C1557 1.365 . S
C1559 C1560 1.409 . S
C1559 H1577 0.929 . S
C1560 C1559 1.409 . S
C1560 C1561 1.380 . S
C1560 H1578 0.930 . S
C1561 C1560 1.380 . S
C1561 C1568 1.357 . S
C1562 C1553 1.511 . S
C1562 C1563 1.341 . S
C1562 C1564 1.371 . S
C1563 C1562 1.341 . S
C1563 C1567 1.394 . S
C1563 H1579 0.930 . S
C1564 C1562 1.371 . S
C1564 C1565 1.392 . S
C1564 H1580 0.931 . S
C1565 C1564 1.392 . S
C1565 C1566 1.331 . S
C1565 H1583 0.932 . S
C1566 C1565 1.331 . S
C1566 C1567 1.336 . S
C1567 C1563 1.394 . S
C1567 C1566 1.336 . S
C1567 H1582 0.929 . S
C1568 C1558 1.386 . S
C1568 C1561 1.357 . S
C1568 H1581 0.928 . S
H1569 C1545 0.931 . S
H1570 C1547 0.930 . S
H1571 C1549 0.929 . S
H1572 C1550 0.952 . S
H1573 C1552 0.930 . S
H1574 C1556 0.931 . S
H1575 C1554 0.931 . S
H1576 C1558 0.931 . S
H1577 C1559 0.929 . S
H1578 C1560 0.930 . S
H1579 C1563 0.930 . S
H1580 C1564 0.931 . S
H1581 C1568 0.928 . S
H1582 C1567 0.929 . S
H1583 C1565 0.932 . S
C1584 C1585 1.386 . S
C1584 C1586 1.397 . S
C1584 H1608 0.931 . S
C1585 C1584 1.386 . S
C1585 C1589 1.397 . S
C1586 C1584 1.397 . S
C1586 C1587 1.384 . S
C1586 H1609 0.930 . S
C1587 C1586 1.384 . S
C1587 C1588 1.377 . S
C1587 C1590 1.481 . S
C1588 C1587 1.377 . S
C1588 C1589 1.389 . S
C1588 H1610 0.929 . S
C1589 C1585 1.397 . S
C1589 C1588 1.389 . S
C1589 H1611 0.931 . S
C1590 C1587 1.481 . S
C1590 C1591 1.387 . S
C1590 C1595 1.390 . S
C1591 C1590 1.387 . S
C1591 C1592 1.401 . S
C1591 H1612 0.930 . S
C1592 C1591 1.401 . S
C1592 C1593 1.376 . S
C1592 C1601 1.511 . S
C1593 C1592 1.376 . S
C1593 C1594 1.392 . S
C1593 H1614 0.931 . S
C1594 C1593 1.392 . S
C1594 C1595 1.361 . S
C1594 C1596 1.500 . S
C1595 C1590 1.390 . S
C1595 C1594 1.361 . S
C1595 H1613 0.931 . S
C1596 C1594 1.500 . S
C1596 C1597 1.371 . S
C1596 C1598 1.365 . S
C1597 C1596 1.371 . S
C1597 C1607 1.386 . S
C1597 H1615 0.931 . S
C1598 C1596 1.365 . S
C1598 C1599 1.409 . S
C1598 H1616 0.929 . S
C1599 C1598 1.409 . S
C1599 C1600 1.380 . S
C1599 H1617 0.930 . S
C1600 C1599 1.380 . S
C1600 C1607 1.357 . S
C1601 C1592 1.511 . S
C1601 C1602 1.341 . S
C1601 C1603 1.371 . S
C1602 C1601 1.341 . S
C1602 C1606 1.394 . S
C1602 H1618 0.930 . S
C1603 C1601 1.371 . S
C1603 C1604 1.392 . S
C1603 H1619 0.931 . S
C1604 C1603 1.392 . S
C1604 C1605 1.331 . S
C1604 H1622 0.932 . S
C1605 C1604 1.331 . S
C1605 C1606 1.336 . S
C1606 C1602 1.394 . S
C1606 C1605 1.336 . S
C1606 H1621 0.929 . S
C1607 C1597 1.386 . S
C1607 C1600 1.357 . S
C1607 H1620 0.928 . S
H1608 C1584 0.931 . S
H1609 C1586 0.930 . S
H1610 C1588 0.929 . S
H1611 C1589 0.931 . S
H1612 C1591 0.930 . S
H1613 C1595 0.931 . S
H1614 C1593 0.931 . S
H1615 C1597 0.931 . S
H1616 C1598 0.929 . S
H1617 C1599 0.930 . S
H1618 C1602 0.930 . S
H1619 C1603 0.931 . S
H1620 C1607 0.928 . S
H1621 C1606 0.929 . S
H1622 C1604 0.932 . S
C1623 C1624 1.386 . S
C1623 C1625 1.397 . S
C1623 H1647 0.931 . S
C1624 C1623 1.386 . S
C1624 C1628 1.372 1_554 S
C1625 C1623 1.397 . S
C1625 C1626 1.384 . S
C1625 H1648 0.930 . S
C1626 C1625 1.384 . S
C1626 C1627 1.377 1_554 S
C1626 C1629 1.481 . S
C1627 C1626 1.377 1_556 S
C1627 C1628 1.395 . S
C1627 H1649 0.929 . S
C1628 C1624 1.372 1_556 S
C1628 C1627 1.395 . S
C1628 H1650 0.952 . S
C1629 C1626 1.481 . S
C1629 C1630 1.387 . S
C1629 C1634 1.390 1_554 S
C1630 C1629 1.387 . S
C1630 C1631 1.401 . S
C1630 H1651 0.930 . S
C1631 C1630 1.401 . S
C1631 C1632 1.376 1_554 S
C1631 C1640 1.511 . S
C1632 C1631 1.376 1_556 S
C1632 C1633 1.392 . S
C1632 H1653 0.931 . S
C1633 C1632 1.392 . S
C1633 C1634 1.361 . S
C1633 C1635 1.500 . S
C1634 C1629 1.390 1_556 S
C1634 C1633 1.361 . S
C1634 H1652 0.931 . S
C1635 C1633 1.500 . S
C1635 C1636 1.371 . S
C1635 C1637 1.365 . S
C1636 C1635 1.371 . S
C1636 C1646 1.386 . S
C1636 H1654 0.931 . S
C1637 C1635 1.365 . S
C1637 C1638 1.409 . S
C1637 H1655 0.929 . S
C1638 C1637 1.409 . S
C1638 C1639 1.380 . S
C1638 H1656 0.930 . S
C1639 C1638 1.380 . S
C1639 C1646 1.357 . S
C1640 C1631 1.511 . S
C1640 C1641 1.341 . S
C1640 C1642 1.371 . S
C1641 C1640 1.341 . S
C1641 C1645 1.394 . S
C1641 H1657 0.930 . S
C1642 C1640 1.371 . S
C1642 C1643 1.392 . S
C1642 H1658 0.931 . S
C1643 C1642 1.392 . S
C1643 C1644 1.331 . S
C1643 H1661 0.932 . S
C1644 C1643 1.331 . S
C1644 C1645 1.336 . S
C1645 C1641 1.394 . S
C1645 C1644 1.336 . S
C1645 H1660 0.929 . S
C1646 C1636 1.386 . S
C1646 C1639 1.357 . S
C1646 H1659 0.928 . S
H1647 C1623 0.931 . S
H1648 C1625 0.930 . S
H1649 C1627 0.929 . S
H1650 C1628 0.952 . S
H1651 C1630 0.930 . S
H1652 C1634 0.931 . S
H1653 C1632 0.931 . S
H1654 C1636 0.931 . S
H1655 C1637 0.929 . S
H1656 C1638 0.930 . S
H1657 C1641 0.930 . S
H1658 C1642 0.931 . S
H1659 C1646 0.928 . S
H1660 C1645 0.929 . S
H1661 C1643 0.932 . S
C1662 C1663 1.386 . S
C1662 C1664 1.397 . S
C1662 H1686 0.931 . S
C1663 C1662 1.386 . S
C1663 C1667 1.397 . S
C1664 C1662 1.397 . S
C1664 C1665 1.384 . S
C1664 H1687 0.930 . S
C1665 C1664 1.384 . S
C1665 C1666 1.377 . S
C1665 C1668 1.481 . S
C1666 C1665 1.377 . S
C1666 C1667 1.389 . S
C1666 H1688 0.929 . S
C1667 C1663 1.397 . S
C1667 C1666 1.389 . S
C1667 H1689 0.931 . S
C1668 C1665 1.481 . S
C1668 C1669 1.387 . S
C1668 C1673 1.390 . S
C1669 C1668 1.387 . S
C1669 C1670 1.401 . S
C1669 H1690 0.930 . S
C1670 C1669 1.401 . S
C1670 C1671 1.376 . S
C1670 C1679 1.511 . S
C1671 C1670 1.376 . S
C1671 C1672 1.392 . S
C1671 H1692 0.931 . S
C1672 C1671 1.392 . S
C1672 C1673 1.361 . S
C1672 C1674 1.500 . S
C1673 C1668 1.390 . S
C1673 C1672 1.361 . S
C1673 H1691 0.931 . S
C1674 C1672 1.500 . S
C1674 C1675 1.371 . S
C1674 C1676 1.365 . S
C1675 C1674 1.371 . S
C1675 C1685 1.386 . S
C1675 H1693 0.931 . S
C1676 C1674 1.365 . S
C1676 C1677 1.409 . S
C1676 H1694 0.929 . S
C1677 C1676 1.409 . S
C1677 C1678 1.380 . S
C1677 H1695 0.930 . S
C1678 C1677 1.380 . S
C1678 C1685 1.357 . S
C1679 C1670 1.511 . S
C1679 C1680 1.341 . S
C1679 C1681 1.371 . S
C1680 C1679 1.341 . S
C1680 C1684 1.394 . S
C1680 H1696 0.930 . S
C1681 C1679 1.371 . S
C1681 C1682 1.392 . S
C1681 H1697 0.931 . S
C1682 C1681 1.392 . S
C1682 C1683 1.331 . S
C1682 H1700 0.932 . S
C1683 C1682 1.331 . S
C1683 C1684 1.336 . S
C1684 C1680 1.394 . S
C1684 C1683 1.336 . S
C1684 H1699 0.929 . S
C1685 C1675 1.386 . S
C1685 C1678 1.357 . S
C1685 H1698 0.928 . S
H1686 C1662 0.931 . S
H1687 C1664 0.930 . S
H1688 C1666 0.929 . S
H1689 C1667 0.931 . S
H1690 C1669 0.930 . S
H1691 C1673 0.931 . S
H1692 C1671 0.931 . S
H1693 C1675 0.931 . S
H1694 C1676 0.929 . S
H1695 C1677 0.930 . S
H1696 C1680 0.930 . S
H1697 C1681 0.931 . S
H1698 C1685 0.928 . S
H1699 C1684 0.929 . S
H1700 C1682 0.932 . S
C1701 C1702 1.356 1_556 S
C1701 C1703 1.397 . S
C1701 H1725 0.931 . S
C1702 C1701 1.356 1_554 S
C1702 C1706 1.426 . S
C1703 C1701 1.397 . S
C1703 C1704 1.395 . S
C1703 H1726 0.930 . S
C1704 C1703 1.395 . S
C1704 C1705 1.366 1_556 S
C1704 C1707 1.481 . S
C1705 C1704 1.366 1_554 S
C1705 C1706 1.389 . S
C1705 H1727 0.929 . S
C1706 C1702 1.426 . S
C1706 C1705 1.389 . S
C1706 H1728 0.931 . S
C1707 C1704 1.481 . S
C1707 C1708 1.413 . S
C1707 C1712 1.365 1_556 S
C1708 C1707 1.413 . S
C1708 C1709 1.401 . S
C1708 H1729 0.930 . S
C1709 C1708 1.401 . S
C1709 C1710 1.400 . S
C1709 C1718 1.511 . S
C1710 C1709 1.400 . S
C1710 C1711 1.369 1_556 S
C1710 H1731 0.931 . S
C1711 C1710 1.369 1_554 S
C1711 C1712 1.361 . S
C1711 C1713 1.500 . S
C1712 C1707 1.365 1_554 S
C1712 C1711 1.361 . S
C1712 H1730 0.931 . S
C1713 C1711 1.500 . S
C1713 C1714 1.371 . S
C1713 C1715 1.365 . S
C1714 C1713 1.371 . S
C1714 C1724 1.386 . S
C1714 H1732 0.931 . S
C1715 C1713 1.365 . S
C1715 C1716 1.409 . S
C1715 H1733 0.929 . S
C1716 C1715 1.409 . S
C1716 C1717 1.380 . S
C1716 H1734 0.930 . S
C1717 C1716 1.380 . S
C1717 C1724 1.357 . S
C1718 C1709 1.511 . S
C1718 C1719 1.341 . S
C1718 C1720 1.371 . S
C1719 C1718 1.341 . S
C1719 C1723 1.394 . S
C1719 H1735 0.930 . S
C1720 C1718 1.371 . S
C1720 C1721 1.392 . S
C1720 H1736 0.931 . S
C1721 C1720 1.392 . S
C1721 C1722 1.331 . S
C1721 H1739 0.932 . S
C1722 C1721 1.331 . S
C1722 C1723 1.336 . S
C1723 C1719 1.394 . S
C1723 C1722 1.336 . S
C1723 H1738 0.929 . S
C1724 C1714 1.386 . S
C1724 C1717 1.357 . S
C1724 H1737 0.928 . S
H1725 C1701 0.931 . S
H1726 C1703 0.930 . S
H1727 C1705 0.929 . S
H1728 C1706 0.931 . S
H1729 C1708 0.930 . S
H1730 C1712 0.931 . S
H1731 C1710 0.931 . S
H1732 C1714 0.931 . S
H1733 C1715 0.929 . S
H1734 C1716 0.930 . S
H1735 C1719 0.930 . S
H1736 C1720 0.931 . S
H1737 C1724 0.928 . S
H1738 C1723 0.929 . S
H1739 C1721 0.932 . S
C1740 C1741 1.386 . S
C1740 C1742 1.397 . S
C1740 H1764 0.931 . S
C1741 C1740 1.386 . S
C1741 C1745 1.397 . S
C1742 C1740 1.397 . S
C1742 C1743 1.384 . S
C1742 H1765 0.930 . S
C1743 C1742 1.384 . S
C1743 C1744 1.377 . S
C1743 C1746 1.481 . S
C1744 C1743 1.377 . S
C1744 C1745 1.389 . S
C1744 H1766 0.929 . S
C1745 C1741 1.397 . S
C1745 C1744 1.389 . S
C1745 H1767 0.931 . S
C1746 C1743 1.481 . S
C1746 C1747 1.387 . S
C1746 C1751 1.390 . S
C1747 C1746 1.387 . S
C1747 C1748 1.401 . S
C1747 H1768 0.930 . S
C1748 C1747 1.401 . S
C1748 C1749 1.376 . S
C1748 C1757 1.511 . S
C1749 C1748 1.376 . S
C1749 C1750 1.392 . S
C1749 H1770 0.931 . S
C1750 C1749 1.392 . S
C1750 C1751 1.361 . S
C1750 C1752 1.500 . S
C1751 C1746 1.390 . S
C1751 C1750 1.361 . S
C1751 H1769 0.931 . S
C1752 C1750 1.500 . S
C1752 C1753 1.371 . S
C1752 C1754 1.365 . S
C1753 C1752 1.371 . S
C1753 C1763 1.386 . S
C1753 H1771 0.931 . S
C1754 C1752 1.365 . S
C1754 C1755 1.409 . S
C1754 H1772 0.929 . S
C1755 C1754 1.409 . S
C1755 C1756 1.380 . S
C1755 H1773 0.930 . S
C1756 C1755 1.380 . S
C1756 C1763 1.357 . S
C1757 C1748 1.511 . S
C1757 C1758 1.341 . S
C1757 C1759 1.371 . S
C1758 C1757 1.341 . S
C1758 C1762 1.394 . S
C1758 H1774 0.930 . S
C1759 C1757 1.371 . S
C1759 C1760 1.392 . S
C1759 H1775 0.931 . S
C1760 C1759 1.392 . S
C1760 C1761 1.331 . S
C1760 H1778 0.932 . S
C1761 C1760 1.331 . S
C1761 C1762 1.336 . S
C1762 C1758 1.394 . S
C1762 C1761 1.336 . S
C1762 H1777 0.929 . S
C1763 C1753 1.386 . S
C1763 C1756 1.357 . S
C1763 H1776 0.928 . S
H1764 C1740 0.931 . S
H1765 C1742 0.930 . S
H1766 C1744 0.929 . S
H1767 C1745 0.931 . S
H1768 C1747 0.930 . S
H1769 C1751 0.931 . S
H1770 C1749 0.931 . S
H1771 C1753 0.931 . S
H1772 C1754 0.929 . S
H1773 C1755 0.930 . S
H1774 C1758 0.930 . S
H1775 C1759 0.931 . S
H1776 C1763 0.928 . S
H1777 C1762 0.929 . S
H1778 C1760 0.932 . S
C1779 C1780 1.386 . S
C1779 C1781 1.397 . S
C1779 H1803 0.931 . S
C1780 C1779 1.386 . S
C1780 C1784 1.372 1_455 S
C1781 C1779 1.397 . S
C1781 C1782 1.384 . S
C1781 H1804 0.930 . S
C1782 C1781 1.384 . S
C1782 C1783 1.377 1_455 S
C1782 C1785 1.481 . S
C1783 C1782 1.377 1_655 S
C1783 C1784 1.395 . S
C1783 H1805 0.929 . S
C1784 C1780 1.372 1_655 S
C1784 C1783 1.395 . S
C1784 H1806 0.952 . S
C1785 C1782 1.481 . S
C1785 C1786 1.387 . S
C1785 C1790 1.390 1_455 S
C1786 C1785 1.387 . S
C1786 C1787 1.401 . S
C1786 H1807 0.930 . S
C1787 C1786 1.401 . S
C1787 C1788 1.376 1_455 S
C1787 C1796 1.511 . S
C1788 C1787 1.376 1_655 S
C1788 C1789 1.392 . S
C1788 H1809 0.931 . S
C1789 C1788 1.392 . S
C1789 C1790 1.361 . S
C1789 C1791 1.500 . S
C1790 C1785 1.390 1_655 S
C1790 C1789 1.361 . S
C1790 H1808 0.931 . S
C1791 C1789 1.500 . S
C1791 C1792 1.371 . S
C1791 C1793 1.365 . S
C1792 C1791 1.371 . S
C1792 C1802 1.386 . S
C1792 H1810 0.931 . S
C1793 C1791 1.365 . S
C1793 C1794 1.409 . S
C1793 H1811 0.929 . S
C1794 C1793 1.409 . S
C1794 C1795 1.380 . S
C1794 H1812 0.930 . S
C1795 C1794 1.380 . S
C1795 C1802 1.357 . S
C1796 C1787 1.511 . S
C1796 C1797 1.341 . S
C1796 C1798 1.371 . S
C1797 C1796 1.341 . S
C1797 C1801 1.394 . S
C1797 H1813 0.930 . S
C1798 C1796 1.371 . S
C1798 C1799 1.392 . S
C1798 H1814 0.931 . S
C1799 C1798 1.392 . S
C1799 C1800 1.331 . S
C1799 H1817 0.932 . S
C1800 C1799 1.331 . S
C1800 C1801 1.336 . S
C1801 C1797 1.394 . S
C1801 C1800 1.336 . S
C1801 H1816 0.929 . S
C1802 C1792 1.386 . S
C1802 C1795 1.357 . S
C1802 H1815 0.928 . S
H1803 C1779 0.931 . S
H1804 C1781 0.930 . S
H1805 C1783 0.929 . S
H1806 C1784 0.952 . S
H1807 C1786 0.930 . S
H1808 C1790 0.931 . S
H1809 C1788 0.931 . S
H1810 C1792 0.931 . S
H1811 C1793 0.929 . S
H1812 C1794 0.930 . S
H1813 C1797 0.930 . S
H1814 C1798 0.931 . S
H1815 C1802 0.928 . S
H1816 C1801 0.929 . S
H1817 C1799 0.932 . S
C1818 C1819 1.386 . S
C1818 C1820 1.397 . S
C1818 H1842 0.931 . S
C1819 C1818 1.386 . S
C1819 C1823 1.397 . S
C1820 C1818 1.397 . S
C1820 C1821 1.384 . S
C1820 H1843 0.930 . S
C1821 C1820 1.384 . S
C1821 C1822 1.377 . S
C1821 C1824 1.481 . S
C1822 C1821 1.377 . S
C1822 C1823 1.389 . S
C1822 H1844 0.929 . S
C1823 C1819 1.397 . S
C1823 C1822 1.389 . S
C1823 H1845 0.931 . S
C1824 C1821 1.481 . S
C1824 C1825 1.387 . S
C1824 C1829 1.390 . S
C1825 C1824 1.387 . S
C1825 C1826 1.401 . S
C1825 H1846 0.930 . S
C1826 C1825 1.401 . S
C1826 C1827 1.376 . S
C1826 C1835 1.511 . S
C1827 C1826 1.376 . S
C1827 C1828 1.392 . S
C1827 H1848 0.931 . S
C1828 C1827 1.392 . S
C1828 C1829 1.361 . S
C1828 C1830 1.500 . S
C1829 C1824 1.390 . S
C1829 C1828 1.361 . S
C1829 H1847 0.931 . S
C1830 C1828 1.500 . S
C1830 C1831 1.371 . S
C1830 C1832 1.365 . S
C1831 C1830 1.371 . S
C1831 C1841 1.386 . S
C1831 H1849 0.931 . S
C1832 C1830 1.365 . S
C1832 C1833 1.409 . S
C1832 H1850 0.929 . S
C1833 C1832 1.409 . S
C1833 C1834 1.380 . S
C1833 H1851 0.930 . S
C1834 C1833 1.380 . S
C1834 C1841 1.357 . S
C1835 C1826 1.511 . S
C1835 C1836 1.341 . S
C1835 C1837 1.371 . S
C1836 C1835 1.341 . S
C1836 C1840 1.394 . S
C1836 H1852 0.930 . S
C1837 C1835 1.371 . S
C1837 C1838 1.392 . S
C1837 H1853 0.931 . S
C1838 C1837 1.392 . S
C1838 C1839 1.331 . S
C1838 H1856 0.932 . S
C1839 C1838 1.331 . S
C1839 C1840 1.336 . S
C1840 C1836 1.394 . S
C1840 C1839 1.336 . S
C1840 H1855 0.929 . S
C1841 C1831 1.386 . S
C1841 C1834 1.357 . S
C1841 H1854 0.928 . S
H1842 C1818 0.931 . S
H1843 C1820 0.930 . S
H1844 C1822 0.929 . S
H1845 C1823 0.931 . S
H1846 C1825 0.930 . S
H1847 C1829 0.931 . S
H1848 C1827 0.931 . S
H1849 C1831 0.931 . S
H1850 C1832 0.929 . S
H1851 C1833 0.930 . S
H1852 C1836 0.930 . S
H1853 C1837 0.931 . S
H1854 C1841 0.928 . S
H1855 C1840 0.929 . S
H1856 C1838 0.932 . S
C1857 C1858 1.356 1_655 S
C1857 C1859 1.397 . S
C1857 H1881 0.931 . S
C1858 C1857 1.356 1_455 S
C1858 C1862 1.426 . S
C1859 C1857 1.397 . S
C1859 C1860 1.395 . S
C1859 H1882 0.930 . S
C1860 C1859 1.395 . S
C1860 C1861 1.366 1_655 S
C1860 C1863 1.481 . S
C1861 C1860 1.366 1_455 S
C1861 C1862 1.389 . S
C1861 H1883 0.929 . S
C1862 C1858 1.426 . S
C1862 C1861 1.389 . S
C1862 H1884 0.931 . S
C1863 C1860 1.481 . S
C1863 C1864 1.413 . S
C1863 C1868 1.365 1_655 S
C1864 C1863 1.413 . S
C1864 C1865 1.401 . S
C1864 H1885 0.930 . S
C1865 C1864 1.401 . S
C1865 C1866 1.400 . S
C1865 C1874 1.511 . S
C1866 C1865 1.400 . S
C1866 C1867 1.369 1_655 S
C1866 H1887 0.931 . S
C1867 C1866 1.369 1_455 S
C1867 C1868 1.361 . S
C1867 C1869 1.500 . S
C1868 C1863 1.365 1_455 S
C1868 C1867 1.361 . S
C1868 H1886 0.931 . S
C1869 C1867 1.500 . S
C1869 C1870 1.371 . S
C1869 C1871 1.365 . S
C1870 C1869 1.371 . S
C1870 C1880 1.386 . S
C1870 H1888 0.931 . S
C1871 C1869 1.365 . S
C1871 C1872 1.409 . S
C1871 H1889 0.929 . S
C1872 C1871 1.409 . S
C1872 C1873 1.380 . S
C1872 H1890 0.930 . S
C1873 C1872 1.380 . S
C1873 C1880 1.357 . S
C1874 C1865 1.511 . S
C1874 C1875 1.341 . S
C1874 C1876 1.371 . S
C1875 C1874 1.341 . S
C1875 C1879 1.394 . S
C1875 H1891 0.930 . S
C1876 C1874 1.371 . S
C1876 C1877 1.392 . S
C1876 H1892 0.931 . S
C1877 C1876 1.392 . S
C1877 C1878 1.331 . S
C1877 H1895 0.932 . S
C1878 C1877 1.331 . S
C1878 C1879 1.336 . S
C1879 C1875 1.394 . S
C1879 C1878 1.336 . S
C1879 H1894 0.929 . S
C1880 C1870 1.386 . S
C1880 C1873 1.357 . S
C1880 H1893 0.928 . S
H1881 C1857 0.931 . S
H1882 C1859 0.930 . S
H1883 C1861 0.929 . S
H1884 C1862 0.931 . S
H1885 C1864 0.930 . S
H1886 C1868 0.931 . S
H1887 C1866 0.931 . S
H1888 C1870 0.931 . S
H1889 C1871 0.929 . S
H1890 C1872 0.930 . S
H1891 C1875 0.930 . S
H1892 C1876 0.931 . S
H1893 C1880 0.928 . S
H1894 C1879 0.929 . S
H1895 C1877 0.932 . S
H1896 C1902 0.930 . S
H1897 C1905 0.930 . S
H1898 C1906 0.930 . S
H1899 C1907 0.930 . S
H1900 C1910 0.930 . S
H1901 C1911 0.930 . S
C1902 H1896 0.930 . S
C1902 C1903 1.355 . S
C1902 C1904 1.415 . S
C1903 C1902 1.355 . S
C1903 C1905 1.419 . S
C1904 C1902 1.415 . S
C1904 C1909 1.425 . S
C1904 C1911 1.409 . S
C1905 H1897 0.930 . S
C1905 C1903 1.419 . S
C1905 C1906 1.362 . S
C1906 H1898 0.930 . S
C1906 C1905 1.362 . S
C1906 C1909 1.409 . S
C1907 H1899 0.930 . S
C1907 C1908 1.355 . S
C1907 C1909 1.415 . S
C1908 C1907 1.355 . S
C1908 C1910 1.419 . S
C1909 C1904 1.425 . S
C1909 C1906 1.409 . S
C1909 C1907 1.415 . S
C1910 H1900 0.930 . S
C1910 C1908 1.419 . S
C1910 C1911 1.362 . S
C1911 H1901 0.930 . S
C1911 C1904 1.409 . S
C1911 C1910 1.362 . S
H1912 C1918 0.930 . S
H1913 C1921 0.930 . S
H1914 C1922 0.930 . S
H1915 C1923 0.930 . S
H1916 C1926 0.930 . S
H1917 C1927 0.930 . S
C1918 H1912 0.930 . S
C1918 C1919 1.355 . S
C1918 C1920 1.415 . S
C1919 C1918 1.355 . S
C1919 C1921 1.419 . S
C1920 C1918 1.415 . S
C1920 C1925 1.425 . S
C1920 C1927 1.409 . S
C1921 H1913 0.930 . S
C1921 C1919 1.419 . S
C1921 C1922 1.362 . S
C1922 H1914 0.930 . S
C1922 C1921 1.362 . S
C1922 C1925 1.409 . S
C1923 H1915 0.930 . S
C1923 C1924 1.355 . S
C1923 C1925 1.415 . S
C1924 C1923 1.355 . S
C1924 C1926 1.419 . S
C1925 C1920 1.425 . S
C1925 C1922 1.409 . S
C1925 C1923 1.415 . S
C1926 H1916 0.930 . S
C1926 C1924 1.419 . S
C1926 C1927 1.362 . S
C1927 H1917 0.930 . S
C1927 C1920 1.409 . S
C1927 C1926 1.362 . S
H1928 C1934 0.930 . S
H1929 C1937 0.930 . S
H1930 C1938 0.930 . S
H1931 C1939 0.930 . S
H1932 C1942 0.930 . S
H1933 C1943 0.930 . S
C1934 H1928 0.930 . S
C1934 C1935 1.355 . S
C1934 C1936 1.415 . S
C1935 C1934 1.355 . S
C1935 C1937 1.419 . S
C1936 C1934 1.415 . S
C1936 C1941 1.425 . S
C1936 C1943 1.409 . S
C1937 H1929 0.930 . S
C1937 C1935 1.419 . S
C1937 C1938 1.362 . S
C1938 H1930 0.930 . S
C1938 C1937 1.362 . S
C1938 C1941 1.409 . S
C1939 H1931 0.930 . S
C1939 C1940 1.355 . S
C1939 C1941 1.415 . S
C1940 C1939 1.355 . S
C1940 C1942 1.419 . S
C1941 C1936 1.425 . S
C1941 C1938 1.409 . S
C1941 C1939 1.415 . S
C1942 H1932 0.930 . S
C1942 C1940 1.419 . S
C1942 C1943 1.362 . S
C1943 H1933 0.930 . S
C1943 C1936 1.409 . S
C1943 C1942 1.362 . S
H1944 C1950 0.930 . S
H1945 C1953 0.930 . S
H1946 C1954 0.930 . S
H1947 C1955 0.930 . S
H1948 C1958 0.930 . S
H1949 C1959 0.930 . S
C1950 H1944 0.930 . S
C1950 C1951 1.355 . S
C1950 C1952 1.415 . S
C1951 C1950 1.355 . S
C1951 C1953 1.419 . S
C1952 C1950 1.415 . S
C1952 C1957 1.425 . S
C1952 C1959 1.409 . S
C1953 H1945 0.930 . S
C1953 C1951 1.419 . S
C1953 C1954 1.362 . S
C1954 H1946 0.930 . S
C1954 C1953 1.362 . S
C1954 C1957 1.409 . S
C1955 H1947 0.930 . S
C1955 C1956 1.355 . S
C1955 C1957 1.415 . S
C1956 C1955 1.355 . S
C1956 C1958 1.419 . S
C1957 C1952 1.425 . S
C1957 C1954 1.409 . S
C1957 C1955 1.415 . S
C1958 H1948 0.930 . S
C1958 C1956 1.419 . S
C1958 C1959 1.362 . S
C1959 H1949 0.930 . S
C1959 C1952 1.409 . S
C1959 C1958 1.362 . S
H1960 C1966 0.930 . S
H1961 C1969 0.930 . S
H1962 C1970 0.930 . S
H1963 C1971 0.930 . S
H1964 C1974 0.930 . S
H1965 C1975 0.930 . S
C1966 H1960 0.930 . S
C1966 C1967 1.355 . S
C1966 C1968 1.415 . S
C1967 C1966 1.355 . S
C1967 C1969 1.419 . S
C1968 C1966 1.415 . S
C1968 C1973 1.425 . S
C1968 C1975 1.409 . S
C1969 H1961 0.930 . S
C1969 C1967 1.419 . S
C1969 C1970 1.362 . S
C1970 H1962 0.930 . S
C1970 C1969 1.362 . S
C1970 C1973 1.409 . S
C1971 H1963 0.930 . S
C1971 C1972 1.355 . S
C1971 C1973 1.415 . S
C1972 C1971 1.355 . S
C1972 C1974 1.419 . S
C1973 C1968 1.425 . S
C1973 C1970 1.409 . S
C1973 C1971 1.415 . S
C1974 H1964 0.930 . S
C1974 C1972 1.419 . S
C1974 C1975 1.362 . S
C1975 H1965 0.930 . S
C1975 C1968 1.409 . S
C1975 C1974 1.362 . S
H1976 C1982 0.930 . S
H1977 C1985 0.930 . S
H1978 C1986 0.930 . S
H1979 C1987 0.930 . S
H1980 C1990 0.930 . S
H1981 C1991 0.930 . S
C1982 H1976 0.930 . S
C1982 C1983 1.355 . S
C1982 C1984 1.415 . S
C1983 C1982 1.355 . S
C1983 C1985 1.419 . S
C1984 C1982 1.415 . S
C1984 C1989 1.425 . S
C1984 C1991 1.409 . S
C1985 H1977 0.930 . S
C1985 C1983 1.419 . S
C1985 C1986 1.362 . S
C1986 H1978 0.930 . S
C1986 C1985 1.362 . S
C1986 C1989 1.409 . S
C1987 H1979 0.930 . S
C1987 C1988 1.355 . S
C1987 C1989 1.415 . S
C1988 C1987 1.355 . S
C1988 C1990 1.419 . S
C1989 C1984 1.425 . S
C1989 C1986 1.409 . S
C1989 C1987 1.415 . S
C1990 H1980 0.930 . S
C1990 C1988 1.419 . S
C1990 C1991 1.362 . S
C1991 H1981 0.930 . S
C1991 C1984 1.409 . S
C1991 C1990 1.362 . S
H1992 C1998 0.930 . S
H1993 C2001 0.930 . S
H1994 C2002 0.930 . S
H1995 C2003 0.930 . S
H1996 C2006 0.930 . S
H1997 C2007 0.930 . S
C1998 H1992 0.930 . S
C1998 C1999 1.355 . S
C1998 C2000 1.415 . S
C1999 C1998 1.355 . S
C1999 C2001 1.419 . S
C2000 C1998 1.415 . S
C2000 C2005 1.425 . S
C2000 C2007 1.409 . S
C2001 H1993 0.930 . S
C2001 C1999 1.419 . S
C2001 C2002 1.362 . S
C2002 H1994 0.930 . S
C2002 C2001 1.362 . S
C2002 C2005 1.409 . S
C2003 H1995 0.930 . S
C2003 C2004 1.355 . S
C2003 C2005 1.415 . S
C2004 C2003 1.355 . S
C2004 C2006 1.419 . S
C2005 C2000 1.425 . S
C2005 C2002 1.409 . S
C2005 C2003 1.415 . S
C2006 H1996 0.930 . S
C2006 C2004 1.419 . S
C2006 C2007 1.362 . S
C2007 H1997 0.930 . S
C2007 C2000 1.409 . S
C2007 C2006 1.362 . S
H2008 C2014 0.930 . S
H2009 C2017 0.930 . S
H2010 C2018 0.930 . S
H2011 C2019 0.930 . S
H2012 C2022 0.930 . S
H2013 C2023 0.930 . S
C2014 H2008 0.930 . S
C2014 C2015 1.355 . S
C2014 C2016 1.415 . S
C2015 C2014 1.355 . S
C2015 C2017 1.419 . S
C2016 C2014 1.415 . S
C2016 C2021 1.425 . S
C2016 C2023 1.409 . S
C2017 H2009 0.930 . S
C2017 C2015 1.419 . S
C2017 C2018 1.362 . S
C2018 H2010 0.930 . S
C2018 C2017 1.362 . S
C2018 C2021 1.409 . S
C2019 H2011 0.930 . S
C2019 C2020 1.355 . S
C2019 C2021 1.415 . S
C2020 C2019 1.355 . S
C2020 C2022 1.419 . S
C2021 C2016 1.425 . S
C2021 C2018 1.409 . S
C2021 C2019 1.415 . S
C2022 H2012 0.930 . S
C2022 C2020 1.419 . S
C2022 C2023 1.362 . S
C2023 H2013 0.930 . S
C2023 C2016 1.409 . S
C2023 C2022 1.362 . S
H2024 C2030 0.930 . S
H2025 C2033 0.930 . S
H2026 C2034 0.930 . S
H2027 C2035 0.930 . S
H2028 C2038 0.930 . S
H2029 C2039 0.930 . S
C2030 H2024 0.930 . S
C2030 C2031 1.355 . S
C2030 C2032 1.415 . S
C2031 C2030 1.355 . S
C2031 C2033 1.419 . S
C2032 C2030 1.415 . S
C2032 C2037 1.425 . S
C2032 C2039 1.409 . S
C2033 H2025 0.930 . S
C2033 C2031 1.419 . S
C2033 C2034 1.362 . S
C2034 H2026 0.930 . S
C2034 C2033 1.362 . S
C2034 C2037 1.409 . S
C2035 H2027 0.930 . S
C2035 C2036 1.355 . S
C2035 C2037 1.415 . S
C2036 C2035 1.355 . S
C2036 C2038 1.419 . S
C2037 C2032 1.425 . S
C2037 C2034 1.409 . S
C2037 C2035 1.415 . S
C2038 H2028 0.930 . S
C2038 C2036 1.419 . S
C2038 C2039 1.362 . S
C2039 H2029 0.930 . S
C2039 C2032 1.409 . S
C2039 C2038 1.362 . S
H2040 C2046 0.930 . S
H2041 C2049 0.930 . S
H2042 C2050 0.930 . S
H2043 C2051 0.930 . S
H2044 C2054 0.930 . S
H2045 C2055 0.930 . S
C2046 H2040 0.930 . S
C2046 C2047 1.355 . S
C2046 C2048 1.415 . S
C2047 C2046 1.355 . S
C2047 C2049 1.419 . S
C2048 C2046 1.415 . S
C2048 C2053 1.425 . S
C2048 C2055 1.409 . S
C2049 H2041 0.930 . S
C2049 C2047 1.419 . S
C2049 C2050 1.362 . S
C2050 H2042 0.930 . S
C2050 C2049 1.362 . S
C2050 C2053 1.409 . S
C2051 H2043 0.930 . S
C2051 C2052 1.355 . S
C2051 C2053 1.415 . S
C2052 C2051 1.355 . S
C2052 C2054 1.419 . S
C2053 C2048 1.425 . S
C2053 C2050 1.409 . S
C2053 C2051 1.415 . S
C2054 H2044 0.930 . S
C2054 C2052 1.419 . S
C2054 C2055 1.362 . S
C2055 H2045 0.930 . S
C2055 C2048 1.409 . S
C2055 C2054 1.362 . S
H2056 C2062 0.930 . S
H2057 C2065 0.930 . S
H2058 C2066 0.930 . S
H2059 C2067 0.930 . S
H2060 C2070 0.930 . S
H2061 C2071 0.930 . S
C2062 H2056 0.930 . S
C2062 C2063 1.355 . S
C2062 C2064 1.415 . S
C2063 C2062 1.355 . S
C2063 C2065 1.419 . S
C2064 C2062 1.415 . S
C2064 C2069 1.425 . S
C2064 C2071 1.409 . S
C2065 H2057 0.930 . S
C2065 C2063 1.419 . S
C2065 C2066 1.362 . S
C2066 H2058 0.930 . S
C2066 C2065 1.362 . S
C2066 C2069 1.409 . S
C2067 H2059 0.930 . S
C2067 C2068 1.355 . S
C2067 C2069 1.415 . S
C2068 C2067 1.355 . S
C2068 C2070 1.419 . S
C2069 C2064 1.425 . S
C2069 C2066 1.409 . S
C2069 C2067 1.415 . S
C2070 H2060 0.930 . S
C2070 C2068 1.419 . S
C2070 C2071 1.362 . S
C2071 H2061 0.930 . S
C2071 C2064 1.409 . S
C2071 C2070 1.362 . S
H2072 C2078 0.930 . S
H2073 C2081 0.930 . S
H2074 C2082 0.930 . S
H2075 C2083 0.930 . S
H2076 C2086 0.930 . S
H2077 C2087 0.930 . S
C2078 H2072 0.930 . S
C2078 C2079 1.355 . S
C2078 C2080 1.415 . S
C2079 C2078 1.355 . S
C2079 C2081 1.419 . S
C2080 C2078 1.415 . S
C2080 C2085 1.425 . S
C2080 C2087 1.409 . S
C2081 H2073 0.930 . S
C2081 C2079 1.419 . S
C2081 C2082 1.362 . S
C2082 H2074 0.930 . S
C2082 C2081 1.362 . S
C2082 C2085 1.409 . S
C2083 H2075 0.930 . S
C2083 C2084 1.355 . S
C2083 C2085 1.415 . S
C2084 C2083 1.355 . S
C2084 C2086 1.419 . S
C2085 C2080 1.425 . S
C2085 C2082 1.409 . S
C2085 C2083 1.415 . S
C2086 H2076 0.930 . S
C2086 C2084 1.419 . S
C2086 C2087 1.362 . S
C2087 H2077 0.930 . S
C2087 C2080 1.409 . S
C2087 C2086 1.362 . S
H2088 C2094 0.930 . S
H2089 C2097 0.930 . S
H2090 C2098 0.930 . S
H2091 C2099 0.930 . S
H2092 C2102 0.930 . S
H2093 C2103 0.930 . S
C2094 H2088 0.930 . S
C2094 C2095 1.355 . S
C2094 C2096 1.415 . S
C2095 C2094 1.355 . S
C2095 C2097 1.419 . S
C2096 C2094 1.415 . S
C2096 C2101 1.425 . S
C2096 C2103 1.409 . S
C2097 H2089 0.930 . S
C2097 C2095 1.419 . S
C2097 C2098 1.362 . S
C2098 H2090 0.930 . S
C2098 C2097 1.362 . S
C2098 C2101 1.409 . S
C2099 H2091 0.930 . S
C2099 C2100 1.355 . S
C2099 C2101 1.415 . S
C2100 C2099 1.355 . S
C2100 C2102 1.419 . S
C2101 C2096 1.425 . S
C2101 C2098 1.409 . S
C2101 C2099 1.415 . S
C2102 H2092 0.930 . S
C2102 C2100 1.419 . S
C2102 C2103 1.362 . S
C2103 H2093 0.930 . S
C2103 C2096 1.409 . S
C2103 C2102 1.362 . S
H2104 C2110 0.930 . S
H2105 C2113 0.930 . S
H2106 C2114 0.930 . S
H2107 C2115 0.930 . S
H2108 C2118 0.930 . S
H2109 C2119 0.930 . S
C2110 H2104 0.930 . S
C2110 C2111 1.355 . S
C2110 C2112 1.415 . S
C2111 C2110 1.355 . S
C2111 C2113 1.419 . S
C2112 C2110 1.415 . S
C2112 C2117 1.425 . S
C2112 C2119 1.409 . S
C2113 H2105 0.930 . S
C2113 C2111 1.419 . S
C2113 C2114 1.362 . S
C2114 H2106 0.930 . S
C2114 C2113 1.362 . S
C2114 C2117 1.409 . S
C2115 H2107 0.930 . S
C2115 C2116 1.355 . S
C2115 C2117 1.415 . S
C2116 C2115 1.355 . S
C2116 C2118 1.419 . S
C2117 C2112 1.425 . S
C2117 C2114 1.409 . S
C2117 C2115 1.415 . S
C2118 H2108 0.930 . S
C2118 C2116 1.419 . S
C2118 C2119 1.362 . S
C2119 H2109 0.930 . S
C2119 C2112 1.409 . S
C2119 C2118 1.362 . S
H2120 C2126 0.930 . S
H2121 C2129 0.930 . S
H2122 C2130 0.930 . S
H2123 C2131 0.930 . S
H2124 C2134 0.930 . S
H2125 C2135 0.930 . S
C2126 H2120 0.930 . S
C2126 C2127 1.355 . S
C2126 C2128 1.415 . S
C2127 C2126 1.355 . S
C2127 C2129 1.419 . S
C2128 C2126 1.415 . S
C2128 C2133 1.425 . S
C2128 C2135 1.409 . S
C2129 H2121 0.930 . S
C2129 C2127 1.419 . S
C2129 C2130 1.362 . S
C2130 H2122 0.930 . S
C2130 C2129 1.362 . S
C2130 C2133 1.409 . S
C2131 H2123 0.930 . S
C2131 C2132 1.355 . S
C2131 C2133 1.415 . S
C2132 C2131 1.355 . S
C2132 C2134 1.419 . S
C2133 C2128 1.425 . S
C2133 C2130 1.409 . S
C2133 C2131 1.415 . S
C2134 H2124 0.930 . S
C2134 C2132 1.419 . S
C2134 C2135 1.362 . S
C2135 H2125 0.930 . S
C2135 C2128 1.409 . S
C2135 C2134 1.362 . S
H2136 C2142 0.930 . S
H2137 C2145 0.930 . S
H2138 C2146 0.930 . S
H2139 C2147 0.930 . S
H2140 C2150 0.930 . S
H2141 C2151 0.930 . S
C2142 H2136 0.930 . S
C2142 C2143 1.355 . S
C2142 C2144 1.415 . S
C2143 C2142 1.355 . S
C2143 C2145 1.419 . S
C2144 C2142 1.415 . S
C2144 C2149 1.425 . S
C2144 C2151 1.409 . S
C2145 H2137 0.930 . S
C2145 C2143 1.419 . S
C2145 C2146 1.362 . S
C2146 H2138 0.930 . S
C2146 C2145 1.362 . S
C2146 C2149 1.409 . S
C2147 H2139 0.930 . S
C2147 C2148 1.355 . S
C2147 C2149 1.415 . S
C2148 C2147 1.355 . S
C2148 C2150 1.419 . S
C2149 C2144 1.425 . S
C2149 C2146 1.409 . S
C2149 C2147 1.415 . S
C2150 H2140 0.930 . S
C2150 C2148 1.419 . S
C2150 C2151 1.362 . S
C2151 H2141 0.930 . S
C2151 C2144 1.409 . S
C2151 C2150 1.362 . S
H2152 C2158 0.930 . S
H2153 C2161 0.930 . S
H2154 C2162 0.930 . S
H2155 C2163 0.930 . S
H2156 C2166 0.930 . S
H2157 C2167 0.930 . S
C2158 H2152 0.930 . S
C2158 C2159 1.355 . S
C2158 C2160 1.415 . S
C2159 C2158 1.355 . S
C2159 C2161 1.419 . S
C2160 C2158 1.415 . S
C2160 C2165 1.425 . S
C2160 C2167 1.409 . S
C2161 H2153 0.930 . S
C2161 C2159 1.419 . S
C2161 C2162 1.362 . S
C2162 H2154 0.930 . S
C2162 C2161 1.362 . S
C2162 C2165 1.409 . S
C2163 H2155 0.930 . S
C2163 C2164 1.355 . S
C2163 C2165 1.415 . S
C2164 C2163 1.355 . S
C2164 C2166 1.419 . S
C2165 C2160 1.425 . S
C2165 C2162 1.409 . S
C2165 C2163 1.415 . S
C2166 H2156 0.930 . S
C2166 C2164 1.419 . S
C2166 C2167 1.362 . S
C2167 H2157 0.930 . S
C2167 C2160 1.409 . S
C2167 C2166 1.362 . S
H2168 C2174 0.930 . S
H2169 C2177 0.930 . S
H2170 C2178 0.930 . S
H2171 C2179 0.930 . S
H2172 C2182 0.930 . S
H2173 C2183 0.930 . S
C2174 H2168 0.930 . S
C2174 C2175 1.355 . S
C2174 C2176 1.415 . S
C2175 C2174 1.355 . S
C2175 C2177 1.419 . S
C2176 C2174 1.415 . S
C2176 C2181 1.425 . S
C2176 C2183 1.409 . S
C2177 H2169 0.930 . S
C2177 C2175 1.419 . S
C2177 C2178 1.362 . S
C2178 H2170 0.930 . S
C2178 C2177 1.362 . S
C2178 C2181 1.409 . S
C2179 H2171 0.930 . S
C2179 C2180 1.355 . S
C2179 C2181 1.415 . S
C2180 C2179 1.355 . S
C2180 C2182 1.419 . S
C2181 C2176 1.425 . S
C2181 C2178 1.409 . S
C2181 C2179 1.415 . S
C2182 H2172 0.930 . S
C2182 C2180 1.419 . S
C2182 C2183 1.362 . S
C2183 H2173 0.930 . S
C2183 C2176 1.409 . S
C2183 C2182 1.362 . S
H2184 C2190 0.930 . S
H2185 C2193 0.930 . S
H2186 C2194 0.930 . S
H2187 C2195 0.930 . S
H2188 C2198 0.930 . S
H2189 C2199 0.930 . S
C2190 H2184 0.930 . S
C2190 C2191 1.355 . S
C2190 C2192 1.415 . S
C2191 C2190 1.355 . S
C2191 C2193 1.419 . S
C2192 C2190 1.415 . S
C2192 C2197 1.425 . S
C2192 C2199 1.409 . S
C2193 H2185 0.930 . S
C2193 C2191 1.419 . S
C2193 C2194 1.362 . S
C2194 H2186 0.930 . S
C2194 C2193 1.362 . S
C2194 C2197 1.409 . S
C2195 H2187 0.930 . S
C2195 C2196 1.355 . S
C2195 C2197 1.415 . S
C2196 C2195 1.355 . S
C2196 C2198 1.419 . S
C2197 C2192 1.425 . S
C2197 C2194 1.409 . S
C2197 C2195 1.415 . S
C2198 H2188 0.930 . S
C2198 C2196 1.419 . S
C2198 C2199 1.362 . S
C2199 H2189 0.930 . S
C2199 C2192 1.409 . S
C2199 C2198 1.362 . S
H2200 C2206 0.930 . S
H2201 C2209 0.930 . S
H2202 C2210 0.930 . S
H2203 C2211 0.930 . S
H2204 C2214 0.930 . S
H2205 C2215 0.930 . S
C2206 H2200 0.930 . S
C2206 C2207 1.355 . S
C2206 C2208 1.415 . S
C2207 C2206 1.355 . S
C2207 C2209 1.419 . S
C2208 C2206 1.415 . S
C2208 C2213 1.425 . S
C2208 C2215 1.409 . S
C2209 H2201 0.930 . S
C2209 C2207 1.419 . S
C2209 C2210 1.362 . S
C2210 H2202 0.930 . S
C2210 C2209 1.362 . S
C2210 C2213 1.409 . S
C2211 H2203 0.930 . S
C2211 C2212 1.355 . S
C2211 C2213 1.415 . S
C2212 C2211 1.355 . S
C2212 C2214 1.419 . S
C2213 C2208 1.425 . S
C2213 C2210 1.409 . S
C2213 C2211 1.415 . S
C2214 H2204 0.930 . S
C2214 C2212 1.419 . S
C2214 C2215 1.362 . S
C2215 H2205 0.930 . S
C2215 C2208 1.409 . S
C2215 C2214 1.362 . S
H2216 C2222 0.930 . S
H2217 C2225 0.930 . S
H2218 C2226 0.930 . S
H2219 C2227 0.930 . S
H2220 C2230 0.930 . S
H2221 C2231 0.930 . S
C2222 H2216 0.930 . S
C2222 C2223 1.355 . S
C2222 C2224 1.415 . S
C2223 C2222 1.355 . S
C2223 C2225 1.419 . S
C2224 C2222 1.415 . S
C2224 C2229 1.425 . S
C2224 C2231 1.409 . S
C2225 H2217 0.930 . S
C2225 C2223 1.419 . S
C2225 C2226 1.362 . S
C2226 H2218 0.930 . S
C2226 C2225 1.362 . S
C2226 C2229 1.409 . S
C2227 H2219 0.930 . S
C2227 C2228 1.355 . S
C2227 C2229 1.415 . S
C2228 C2227 1.355 . S
C2228 C2230 1.419 . S
C2229 C2224 1.425 . S
C2229 C2226 1.409 . S
C2229 C2227 1.415 . S
C2230 H2220 0.930 . S
C2230 C2228 1.419 . S
C2230 C2231 1.362 . S
C2231 H2221 0.930 . S
C2231 C2224 1.409 . S
C2231 C2230 1.362 . S
H2232 C2238 0.930 . S
H2233 C2241 0.930 . S
H2234 C2242 0.930 . S
H2235 C2243 0.930 . S
H2236 C2246 0.930 . S
H2237 C2247 0.930 . S
C2238 H2232 0.930 . S
C2238 C2239 1.355 . S
C2238 C2240 1.415 . S
C2239 C2238 1.355 . S
C2239 C2241 1.419 . S
C2240 C2238 1.415 . S
C2240 C2245 1.425 . S
C2240 C2247 1.409 . S
C2241 H2233 0.930 . S
C2241 C2239 1.419 . S
C2241 C2242 1.362 . S
C2242 H2234 0.930 . S
C2242 C2241 1.362 . S
C2242 C2245 1.409 . S
C2243 H2235 0.930 . S
C2243 C2244 1.355 . S
C2243 C2245 1.415 . S
C2244 C2243 1.355 . S
C2244 C2246 1.419 . S
C2245 C2240 1.425 . S
C2245 C2242 1.409 . S
C2245 C2243 1.415 . S
C2246 H2236 0.930 . S
C2246 C2244 1.419 . S
C2246 C2247 1.362 . S
C2247 H2237 0.930 . S
C2247 C2240 1.409 . S
C2247 C2246 1.362 . S
H2248 C2254 0.930 . S
H2249 C2257 0.930 . S
H2250 C2258 0.930 . S
H2251 C2259 0.930 . S
H2252 C2262 0.930 . S
H2253 C2263 0.930 . S
C2254 H2248 0.930 . S
C2254 C2255 1.355 . S
C2254 C2256 1.415 . S
C2255 C2254 1.355 . S
C2255 C2257 1.419 . S
C2256 C2254 1.415 . S
C2256 C2261 1.425 . S
C2256 C2263 1.409 . S
C2257 H2249 0.930 . S
C2257 C2255 1.419 . S
C2257 C2258 1.362 . S
C2258 H2250 0.930 . S
C2258 C2257 1.362 . S
C2258 C2261 1.409 . S
C2259 H2251 0.930 . S
C2259 C2260 1.355 . S
C2259 C2261 1.415 . S
C2260 C2259 1.355 . S
C2260 C2262 1.419 . S
C2261 C2256 1.425 . S
C2261 C2258 1.409 . S
C2261 C2259 1.415 . S
C2262 H2252 0.930 . S
C2262 C2260 1.419 . S
C2262 C2263 1.362 . S
C2263 H2253 0.930 . S
C2263 C2256 1.409 . S
C2263 C2262 1.362 . S
H2264 C2270 0.930 . S
H2265 C2273 0.930 . S
H2266 C2274 0.930 . S
H2267 C2275 0.930 . S
H2268 C2278 0.930 . S
H2269 C2279 0.930 . S
C2270 H2264 0.930 . S
C2270 C2271 1.355 . S
C2270 C2272 1.415 . S
C2271 C2270 1.355 . S
C2271 C2273 1.419 . S
C2272 C2270 1.415 . S
C2272 C2277 1.425 . S
C2272 C2279 1.409 . S
C2273 H2265 0.930 . S
C2273 C2271 1.419 . S
C2273 C2274 1.362 . S
C2274 H2266 0.930 . S
C2274 C2273 1.362 . S
C2274 C2277 1.409 . S
C2275 H2267 0.930 . S
C2275 C2276 1.355 . S
C2275 C2277 1.415 . S
C2276 C2275 1.355 . S
C2276 C2278 1.419 . S
C2277 C2272 1.425 . S
C2277 C2274 1.409 . S
C2277 C2275 1.415 . S
C2278 H2268 0.930 . S
C2278 C2276 1.419 . S
C2278 C2279 1.362 . S
C2279 H2269 0.930 . S
C2279 C2272 1.409 . S
C2279 C2278 1.362 . S
H2280 C2286 0.930 . S
H2281 C2289 0.930 . S
H2282 C2290 0.930 . S
H2283 C2291 0.930 . S
H2284 C2294 0.930 . S
H2285 C2295 0.930 . S
C2286 H2280 0.930 . S
C2286 C2287 1.355 . S
C2286 C2288 1.415 . S
C2287 C2286 1.355 . S
C2287 C2289 1.419 . S
C2288 C2286 1.415 . S
C2288 C2293 1.425 . S
C2288 C2295 1.409 . S
C2289 H2281 0.930 . S
C2289 C2287 1.419 . S
C2289 C2290 1.362 . S
C2290 H2282 0.930 . S
C2290 C2289 1.362 . S
C2290 C2293 1.409 . S
C2291 H2283 0.930 . S
C2291 C2292 1.355 . S
C2291 C2293 1.415 . S
C2292 C2291 1.355 . S
C2292 C2294 1.419 . S
C2293 C2288 1.425 . S
C2293 C2290 1.409 . S
C2293 C2291 1.415 . S
C2294 H2284 0.930 . S
C2294 C2292 1.419 . S
C2294 C2295 1.362 . S
C2295 H2285 0.930 . S
C2295 C2288 1.409 . S
C2295 C2294 1.362 . S
H2296 C2302 0.930 . S
H2297 C2305 0.930 . S
H2298 C2306 0.930 . S
H2299 C2307 0.930 . S
H2300 C2310 0.930 . S
H2301 C2311 0.930 . S
C2302 H2296 0.930 . S
C2302 C2303 1.355 . S
C2302 C2304 1.415 . S
C2303 C2302 1.355 . S
C2303 C2305 1.419 . S
C2304 C2302 1.415 . S
C2304 C2309 1.425 . S
C2304 C2311 1.409 . S
C2305 H2297 0.930 . S
C2305 C2303 1.419 . S
C2305 C2306 1.362 . S
C2306 H2298 0.930 . S
C2306 C2305 1.362 . S
C2306 C2309 1.409 . S
C2307 H2299 0.930 . S
C2307 C2308 1.355 . S
C2307 C2309 1.415 . S
C2308 C2307 1.355 . S
C2308 C2310 1.419 . S
C2309 C2304 1.425 . S
C2309 C2306 1.409 . S
C2309 C2307 1.415 . S
C2310 H2300 0.930 . S
C2310 C2308 1.419 . S
C2310 C2311 1.362 . S
C2311 H2301 0.930 . S
C2311 C2304 1.409 . S
C2311 C2310 1.362 . S
H2312 C2318 0.930 . S
H2313 C2321 0.930 . S
H2314 C2322 0.930 . S
H2315 C2323 0.930 1_545 S
H2316 C2326 0.930 . S
H2317 C2327 0.930 . S
C2318 H2312 0.930 . S
C2318 C2319 1.355 . S
C2318 C2320 1.415 . S
C2319 C2318 1.355 . S
C2319 C2321 1.419 . S
C2320 C2318 1.415 . S
C2320 C2325 1.425 . S
C2320 C2327 1.409 . S
C2321 H2313 0.930 . S
C2321 C2319 1.419 . S
C2321 C2322 1.362 . S
C2322 H2314 0.930 . S
C2322 C2321 1.362 . S
C2322 C2325 1.409 . S
C2323 H2315 0.930 1_565 S
C2323 C2324 1.355 . S
C2323 C2325 1.415 . S
C2324 C2323 1.355 . S
C2324 C2326 1.419 . S
C2325 C2320 1.425 . S
C2325 C2322 1.409 . S
C2325 C2323 1.415 . S
C2326 H2316 0.930 . S
C2326 C2324 1.419 . S
C2326 C2327 1.362 . S
C2327 H2317 0.930 . S
C2327 C2320 1.409 . S
C2327 C2326 1.362 . S
H2328 C2334 0.930 . S
H2329 C2337 0.930 . S
H2330 C2338 0.930 . S
H2331 C2339 0.913 1_545 S
H2332 C2342 0.930 . S
H2333 C2343 0.930 . S
C2334 H2328 0.930 . S
C2334 C2335 1.355 1_565 S
C2334 C2336 1.415 . S
C2335 C2334 1.355 1_545 S
C2335 C2337 1.419 . S
C2336 C2334 1.415 . S
C2336 C2341 1.429 . S
C2336 C2343 1.409 . S
C2337 H2329 0.930 . S
C2337 C2335 1.419 . S
C2337 C2338 1.362 . S
C2338 H2330 0.930 . S
C2338 C2337 1.362 . S
C2338 C2341 1.403 1_545 S
C2339 H2331 0.913 1_565 S
C2339 C2340 1.355 . S
C2339 C2341 1.417 . S
C2340 C2339 1.355 . S
C2340 C2342 1.419 . S
C2341 C2336 1.429 . S
C2341 C2338 1.403 1_565 S
C2341 C2339 1.417 . S
C2342 H2332 0.930 . S
C2342 C2340 1.419 . S
C2342 C2343 1.362 . S
C2343 H2333 0.930 . S
C2343 C2336 1.409 . S
C2343 C2342 1.362 . S
H2344 C2350 0.930 . S
H2345 C2353 0.930 . S
H2346 C2354 0.930 . S
H2347 C2355 0.930 . S
H2348 C2358 0.930 . S
H2349 C2359 0.930 . S
C2350 H2344 0.930 . S
C2350 C2351 1.355 . S
C2350 C2352 1.415 . S
C2351 C2350 1.355 . S
C2351 C2353 1.419 . S
C2352 C2350 1.415 . S
C2352 C2357 1.425 . S
C2352 C2359 1.409 . S
C2353 H2345 0.930 . S
C2353 C2351 1.419 . S
C2353 C2354 1.362 . S
C2354 H2346 0.930 . S
C2354 C2353 1.362 . S
C2354 C2357 1.409 . S
C2355 H2347 0.930 . S
C2355 C2356 1.355 . S
C2355 C2357 1.415 . S
C2356 C2355 1.355 . S
C2356 C2358 1.419 . S
C2357 C2352 1.425 . S
C2357 C2354 1.409 . S
C2357 C2355 1.415 . S
C2358 H2348 0.930 . S
C2358 C2356 1.419 . S
C2358 C2359 1.362 . S
C2359 H2349 0.930 . S
C2359 C2352 1.409 . S
C2359 C2358 1.362 . S
H2360 C2366 0.930 . S
H2361 C2369 0.930 . S
H2362 C2370 0.930 . S
H2363 C2371 0.930 . S
H2364 C2374 0.930 . S
H2365 C2375 0.930 . S
C2366 H2360 0.930 . S
C2366 C2367 1.355 . S
C2366 C2368 1.415 . S
C2367 C2366 1.355 . S
C2367 C2369 1.419 1_554 S
C2368 C2366 1.415 . S
C2368 C2373 1.425 1_554 S
C2368 C2375 1.409 . S
C2369 H2361 0.930 . S
C2369 C2367 1.419 1_556 S
C2369 C2370 1.362 . S
C2370 H2362 0.930 . S
C2370 C2369 1.362 . S
C2370 C2373 1.409 . S
C2371 H2363 0.930 . S
C2371 C2372 1.355 . S
C2371 C2373 1.415 . S
C2372 C2371 1.355 . S
C2372 C2374 1.419 1_556 S
C2373 C2368 1.425 1_556 S
C2373 C2370 1.409 . S
C2373 C2371 1.415 . S
C2374 H2364 0.930 . S
C2374 C2372 1.419 1_554 S
C2374 C2375 1.362 . S
C2375 H2365 0.930 . S
C2375 C2368 1.409 . S
C2375 C2374 1.362 . S
H2376 C2382 0.930 . S
H2377 C2385 0.930 . S
H2378 C2386 0.930 . S
H2379 C2387 0.930 . S
H2380 C2390 0.930 . S
H2381 C2391 0.930 . S
C2382 H2376 0.930 . S
C2382 C2383 1.355 . S
C2382 C2384 1.415 . S
C2383 C2382 1.355 . S
C2383 C2385 1.419 . S
C2384 C2382 1.415 . S
C2384 C2389 1.425 . S
C2384 C2391 1.409 . S
C2385 H2377 0.930 . S
C2385 C2383 1.419 . S
C2385 C2386 1.362 . S
C2386 H2378 0.930 . S
C2386 C2385 1.362 . S
C2386 C2389 1.409 . S
C2387 H2379 0.930 . S
C2387 C2388 1.355 . S
C2387 C2389 1.415 . S
C2388 C2387 1.355 . S
C2388 C2390 1.419 . S
C2389 C2384 1.425 . S
C2389 C2386 1.409 . S
C2389 C2387 1.415 . S
C2390 H2380 0.930 . S
C2390 C2388 1.419 . S
C2390 C2391 1.362 . S
C2391 H2381 0.930 . S
C2391 C2384 1.409 . S
C2391 C2390 1.362 . S
H2392 C2398 0.930 . S
H2393 C2401 0.930 . S
H2394 C2402 0.930 . S
H2395 C2403 0.930 . S
H2396 C2406 0.930 . S
H2397 C2407 0.930 1_554 S
C2398 H2392 0.930 . S
C2398 C2399 1.355 . S
C2398 C2400 1.415 . S
C2399 C2398 1.355 . S
C2399 C2401 1.419 . S
C2400 C2398 1.415 . S
C2400 C2405 1.425 . S
C2400 C2407 1.409 . S
C2401 H2393 0.930 . S
C2401 C2399 1.419 . S
C2401 C2402 1.362 . S
C2402 H2394 0.930 . S
C2402 C2401 1.362 . S
C2402 C2405 1.409 . S
C2403 H2395 0.930 . S
C2403 C2404 1.355 . S
C2403 C2405 1.415 . S
C2404 C2403 1.355 . S
C2404 C2406 1.419 1_556 S
C2405 C2400 1.425 . S
C2405 C2402 1.409 . S
C2405 C2403 1.415 . S
C2406 H2396 0.930 . S
C2406 C2404 1.419 1_554 S
C2406 C2407 1.362 1_554 S
C2407 H2397 0.930 1_556 S
C2407 C2400 1.409 . S
C2407 C2406 1.362 1_556 S
H2408 C2414 0.930 . S
H2409 C2417 0.930 . S
H2410 C2418 0.930 . S
H2411 C2419 0.930 . S
H2412 C2422 0.930 . S
H2413 C2423 0.930 . S
C2414 H2408 0.930 . S
C2414 C2415 1.355 . S
C2414 C2416 1.415 . S
C2415 C2414 1.355 . S
C2415 C2417 1.419 . S
C2416 C2414 1.415 . S
C2416 C2421 1.425 . S
C2416 C2423 1.409 . S
C2417 H2409 0.930 . S
C2417 C2415 1.419 . S
C2417 C2418 1.362 . S
C2418 H2410 0.930 . S
C2418 C2417 1.362 . S
C2418 C2421 1.409 . S
C2419 H2411 0.930 . S
C2419 C2420 1.355 . S
C2419 C2421 1.415 . S
C2420 C2419 1.355 . S
C2420 C2422 1.419 . S
C2421 C2416 1.425 . S
C2421 C2418 1.409 . S
C2421 C2419 1.415 . S
C2422 H2412 0.930 . S
C2422 C2420 1.419 . S
C2422 C2423 1.362 . S
C2423 H2413 0.930 . S
C2423 C2416 1.409 . S
C2423 C2422 1.362 . S
H2424 C2430 0.930 . S
H2425 C2433 0.930 . S
H2426 C2434 0.930 . S
H2427 C2435 0.930 . S
H2428 C2438 0.930 . S
H2429 C2439 0.930 . S
C2430 H2424 0.930 . S
C2430 C2431 1.355 . S
C2430 C2432 1.415 . S
C2431 C2430 1.355 . S
C2431 C2433 1.419 1_455 S
C2432 C2430 1.415 . S
C2432 C2437 1.425 1_455 S
C2432 C2439 1.409 . S
C2433 H2425 0.930 . S
C2433 C2431 1.419 1_655 S
C2433 C2434 1.362 . S
C2434 H2426 0.930 . S
C2434 C2433 1.362 . S
C2434 C2437 1.409 . S
C2435 H2427 0.930 . S
C2435 C2436 1.355 . S
C2435 C2437 1.415 . S
C2436 C2435 1.355 . S
C2436 C2438 1.419 1_655 S
C2437 C2432 1.425 1_655 S
C2437 C2434 1.409 . S
C2437 C2435 1.415 . S
C2438 H2428 0.930 . S
C2438 C2436 1.419 1_455 S
C2438 C2439 1.362 . S
C2439 H2429 0.930 . S
C2439 C2432 1.409 . S
C2439 C2438 1.362 . S
H2440 C2446 0.930 . S
H2441 C2449 0.930 . S
H2442 C2450 0.930 . S
H2443 C2451 0.930 . S
H2444 C2454 0.930 . S
H2445 C2455 0.930 . S
C2446 H2440 0.930 . S
C2446 C2447 1.355 . S
C2446 C2448 1.415 . S
C2447 C2446 1.355 . S
C2447 C2449 1.419 . S
C2448 C2446 1.415 . S
C2448 C2453 1.425 . S
C2448 C2455 1.409 . S
C2449 H2441 0.930 . S
C2449 C2447 1.419 . S
C2449 C2450 1.362 . S
C2450 H2442 0.930 . S
C2450 C2449 1.362 . S
C2450 C2453 1.409 . S
C2451 H2443 0.930 . S
C2451 C2452 1.355 . S
C2451 C2453 1.415 . S
C2452 C2451 1.355 . S
C2452 C2454 1.419 . S
C2453 C2448 1.425 . S
C2453 C2450 1.409 . S
C2453 C2451 1.415 . S
C2454 H2444 0.930 . S
C2454 C2452 1.419 . S
C2454 C2455 1.362 . S
C2455 H2445 0.930 . S
C2455 C2448 1.409 . S
C2455 C2454 1.362 . S
H2456 C2462 0.930 . S
H2457 C2465 0.930 . S
H2458 C2466 0.930 1_455 S
H2459 C2467 0.936 . S
H2460 C2470 0.930 . S
H2461 C2471 0.930 . S
C2462 H2456 0.930 . S
C2462 C2463 1.355 . S
C2462 C2464 1.415 . S
C2463 C2462 1.355 . S
C2463 C2465 1.419 . S
C2464 C2462 1.415 . S
C2464 C2469 1.425 . S
C2464 C2471 1.409 . S
C2465 H2457 0.930 . S
C2465 C2463 1.419 . S
C2465 C2466 1.362 . S
C2466 H2458 0.930 1_655 S
C2466 C2465 1.362 . S
C2466 C2469 1.409 . S
C2467 H2459 0.936 . S
C2467 C2468 1.352 1_455 S
C2467 C2469 1.411 1_455 S
C2468 C2467 1.352 1_655 S
C2468 C2470 1.419 . S
C2469 C2464 1.425 . S
C2469 C2466 1.409 . S
C2469 C2467 1.411 1_655 S
C2470 H2460 0.930 . S
C2470 C2468 1.419 . S
C2470 C2471 1.362 . S
C2471 H2461 0.930 . S
C2471 C2464 1.409 . S
C2471 C2470 1.362 . S
H2472 C2478 0.930 . S
H2473 C2481 0.930 . S
H2474 C2482 0.930 . S
H2475 C2483 0.930 . S
H2476 C2486 0.930 . S
H2477 C2487 0.930 . S
C2478 H2472 0.930 . S
C2478 C2479 1.355 . S
C2478 C2480 1.415 . S
C2479 C2478 1.355 . S
C2479 C2481 1.419 . S
C2480 C2478 1.415 . S
C2480 C2485 1.425 . S
C2480 C2487 1.409 . S
C2481 H2473 0.930 . S
C2481 C2479 1.419 . S
C2481 C2482 1.362 . S
C2482 H2474 0.930 . S
C2482 C2481 1.362 . S
C2482 C2485 1.409 . S
C2483 H2475 0.930 . S
C2483 C2484 1.355 . S
C2483 C2485 1.415 . S
C2484 C2483 1.355 . S
C2484 C2486 1.419 . S
C2485 C2480 1.425 . S
C2485 C2482 1.409 . S
C2485 C2483 1.415 . S
C2486 H2476 0.930 . S
C2486 C2484 1.419 . S
C2486 C2487 1.362 . S
C2487 H2477 0.930 . S
C2487 C2480 1.409 . S
C2487 C2486 1.362 . S
H2488 C2494 0.930 . S
H2489 C2497 0.930 . S
H2490 C2498 0.930 . S
H2491 C2499 0.930 . S
H2492 C2502 0.930 . S
H2493 C2503 0.930 . S
C2494 H2488 0.930 . S
C2494 C2495 1.355 . S
C2494 C2496 1.415 . S
C2495 C2494 1.355 . S
C2495 C2497 1.419 . S
C2496 C2494 1.415 . S
C2496 C2501 1.425 . S
C2496 C2503 1.409 . S
C2497 H2489 0.930 . S
C2497 C2495 1.419 . S
C2497 C2498 1.362 . S
C2498 H2490 0.930 . S
C2498 C2497 1.362 . S
C2498 C2501 1.409 . S
C2499 H2491 0.930 . S
C2499 C2500 1.355 . S
C2499 C2501 1.415 . S
C2500 C2499 1.355 . S
C2500 C2502 1.419 . S
C2501 C2496 1.425 . S
C2501 C2498 1.409 . S
C2501 C2499 1.415 . S
C2502 H2492 0.930 . S
C2502 C2500 1.419 . S
C2502 C2503 1.362 . S
C2503 H2493 0.930 . S
C2503 C2496 1.409 . S
C2503 C2502 1.362 . S
H2504 C2510 0.930 . S
H2505 C2513 0.930 . S
H2506 C2514 0.930 . S
H2507 C2515 0.930 . S
H2508 C2518 0.930 . S
H2509 C2519 0.930 1_565 S
C2510 H2504 0.930 . S
C2510 C2511 1.355 . S
C2510 C2512 1.415 . S
C2511 C2510 1.355 . S
C2511 C2513 1.419 . S
C2512 C2510 1.415 . S
C2512 C2517 1.425 . S
C2512 C2519 1.409 . S
C2513 H2505 0.930 . S
C2513 C2511 1.419 . S
C2513 C2514 1.362 . S
C2514 H2506 0.930 . S
C2514 C2513 1.362 . S
C2514 C2517 1.409 . S
C2515 H2507 0.930 . S
C2515 C2516 1.355 . S
C2515 C2517 1.415 . S
C2516 C2515 1.355 . S
C2516 C2518 1.419 1_545 S
C2517 C2512 1.425 . S
C2517 C2514 1.409 . S
C2517 C2515 1.415 . S
C2518 H2508 0.930 . S
C2518 C2516 1.419 1_565 S
C2518 C2519 1.362 1_565 S
C2519 H2509 0.930 1_545 S
C2519 C2512 1.409 . S
C2519 C2518 1.362 1_545 S
H2520 C2526 0.930 . S
H2521 C2529 0.930 . S
H2522 C2530 0.930 . S
H2523 C2531 0.930 . S
H2524 C2534 0.930 . S
H2525 C2535 0.930 . S
C2526 H2520 0.930 . S
C2526 C2527 1.355 . S
C2526 C2528 1.415 . S
C2527 C2526 1.355 . S
C2527 C2529 1.419 1_565 S
C2528 C2526 1.415 . S
C2528 C2533 1.425 1_565 S
C2528 C2535 1.409 . S
C2529 H2521 0.930 . S
C2529 C2527 1.419 1_545 S
C2529 C2530 1.362 . S
C2530 H2522 0.930 . S
C2530 C2529 1.362 . S
C2530 C2533 1.409 . S
C2531 H2523 0.930 . S
C2531 C2532 1.355 . S
C2531 C2533 1.415 . S
C2532 C2531 1.355 . S
C2532 C2534 1.419 1_545 S
C2533 C2528 1.425 1_545 S
C2533 C2530 1.409 . S
C2533 C2531 1.415 . S
C2534 H2524 0.930 . S
C2534 C2532 1.419 1_565 S
C2534 C2535 1.362 . S
C2535 H2525 0.930 . S
C2535 C2528 1.409 . S
C2535 C2534 1.362 . S
H2536 C2542 0.930 . S
H2537 C2545 0.930 . S
H2538 C2546 0.930 . S
H2539 C2547 0.930 . S
H2540 C2550 0.930 . S
H2541 C2551 0.930 . S
C2542 H2536 0.930 . S
C2542 C2543 1.355 . S
C2542 C2544 1.415 . S
C2543 C2542 1.355 . S
C2543 C2545 1.419 . S
C2544 C2542 1.415 . S
C2544 C2549 1.425 . S
C2544 C2551 1.409 . S
C2545 H2537 0.930 . S
C2545 C2543 1.419 . S
C2545 C2546 1.362 . S
C2546 H2538 0.930 . S
C2546 C2545 1.362 . S
C2546 C2549 1.409 . S
C2547 H2539 0.930 . S
C2547 C2548 1.355 . S
C2547 C2549 1.415 . S
C2548 C2547 1.355 . S
C2548 C2550 1.419 . S
C2549 C2544 1.425 . S
C2549 C2546 1.409 . S
C2549 C2547 1.415 . S
C2550 H2540 0.930 . S
C2550 C2548 1.419 . S
C2550 C2551 1.362 . S
C2551 H2541 0.930 . S
C2551 C2544 1.409 . S
C2551 C2550 1.362 . S
H2552 C2558 0.930 . S
H2553 C2561 0.930 . S
H2554 C2562 0.930 . S
H2555 C2563 0.930 . S
H2556 C2566 0.930 . S
H2557 C2567 0.930 . S
C2558 H2552 0.930 . S
C2558 C2559 1.355 1_554 S
C2558 C2560 1.415 . S
C2559 C2558 1.355 1_556 S
C2559 C2561 1.419 . S
C2560 C2558 1.415 . S
C2560 C2565 1.425 1_554 S
C2560 C2567 1.409 . S
C2561 H2553 0.930 . S
C2561 C2559 1.419 . S
C2561 C2562 1.362 . S
C2562 H2554 0.930 . S
C2562 C2561 1.362 . S
C2562 C2565 1.409 . S
C2563 H2555 0.930 . S
C2563 C2564 1.355 1_556 S
C2563 C2565 1.415 . S
C2564 C2563 1.355 1_554 S
C2564 C2566 1.419 . S
C2565 C2560 1.425 1_556 S
C2565 C2562 1.409 . S
C2565 C2563 1.415 . S
C2566 H2556 0.930 . S
C2566 C2564 1.419 . S
C2566 C2567 1.362 . S
C2567 H2557 0.930 . S
C2567 C2560 1.409 . S
C2567 C2566 1.362 . S
H2568 C2574 0.930 . S
H2569 C2577 0.930 . S
H2570 C2578 0.930 . S
H2571 C2579 0.930 . S
H2572 C2582 0.930 . S
H2573 C2583 0.930 . S
C2574 H2568 0.930 . S
C2574 C2575 1.355 . S
C2574 C2576 1.415 . S
C2575 C2574 1.355 . S
C2575 C2577 1.419 . S
C2576 C2574 1.415 . S
C2576 C2581 1.425 . S
C2576 C2583 1.409 . S
C2577 H2569 0.930 . S
C2577 C2575 1.419 . S
C2577 C2578 1.362 . S
C2578 H2570 0.930 . S
C2578 C2577 1.362 . S
C2578 C2581 1.409 . S
C2579 H2571 0.930 . S
C2579 C2580 1.355 . S
C2579 C2581 1.415 . S
C2580 C2579 1.355 . S
C2580 C2582 1.419 . S
C2581 C2576 1.425 . S
C2581 C2578 1.409 . S
C2581 C2579 1.415 . S
C2582 H2572 0.930 . S
C2582 C2580 1.419 . S
C2582 C2583 1.362 . S
C2583 H2573 0.930 . S
C2583 C2576 1.409 . S
C2583 C2582 1.362 . S
H2584 C2590 0.930 . S
H2585 C2593 0.930 . S
H2586 C2594 0.930 1_556 S
H2587 C2595 0.925 . S
H2588 C2598 0.930 . S
H2589 C2599 0.930 . S
C2590 H2584 0.930 . S
C2590 C2591 1.355 . S
C2590 C2592 1.415 . S
C2591 C2590 1.355 . S
C2591 C2593 1.419 . S
C2592 C2590 1.415 . S
C2592 C2597 1.425 . S
C2592 C2599 1.409 . S
C2593 H2585 0.930 . S
C2593 C2591 1.419 . S
C2593 C2594 1.362 . S
C2594 H2586 0.930 1_554 S
C2594 C2593 1.362 . S
C2594 C2597 1.409 . S
C2595 H2587 0.925 . S
C2595 C2596 1.357 1_556 S
C2595 C2597 1.417 1_556 S
C2596 C2595 1.357 1_554 S
C2596 C2598 1.419 . S
C2597 C2592 1.425 . S
C2597 C2594 1.409 . S
C2597 C2595 1.417 1_554 S
C2598 H2588 0.930 . S
C2598 C2596 1.419 . S
C2598 C2599 1.362 . S
C2599 H2589 0.930 . S
C2599 C2592 1.409 . S
C2599 C2598 1.362 . S
H2600 C2606 0.930 . S
H2601 C2609 0.930 . S
H2602 C2610 0.930 . S
H2603 C2611 0.930 . S
H2604 C2614 0.930 . S
H2605 C2615 0.930 . S
C2606 H2600 0.930 . S
C2606 C2607 1.355 . S
C2606 C2608 1.415 . S
C2607 C2606 1.355 . S
C2607 C2609 1.419 . S
C2608 C2606 1.415 . S
C2608 C2613 1.425 . S
C2608 C2615 1.409 . S
C2609 H2601 0.930 . S
C2609 C2607 1.419 . S
C2609 C2610 1.362 . S
C2610 H2602 0.930 . S
C2610 C2609 1.362 . S
C2610 C2613 1.409 . S
C2611 H2603 0.930 . S
C2611 C2612 1.355 . S
C2611 C2613 1.415 . S
C2612 C2611 1.355 . S
C2612 C2614 1.419 . S
C2613 C2608 1.425 . S
C2613 C2610 1.409 . S
C2613 C2611 1.415 . S
C2614 H2604 0.930 . S
C2614 C2612 1.419 . S
C2614 C2615 1.362 . S
C2615 H2605 0.930 . S
C2615 C2608 1.409 . S
C2615 C2614 1.362 . S
H2616 C2622 0.930 . S
H2617 C2625 0.930 . S
H2618 C2626 0.930 . S
H2619 C2627 0.930 . S
H2620 C2630 0.930 . S
H2621 C2631 0.930 . S
C2622 H2616 0.930 . S
C2622 C2623 1.355 . S
C2622 C2624 1.415 . S
C2623 C2622 1.355 . S
C2623 C2625 1.419 1_655 S
C2624 C2622 1.415 . S
C2624 C2629 1.425 1_655 S
C2624 C2631 1.409 . S
C2625 H2617 0.930 . S
C2625 C2623 1.419 1_455 S
C2625 C2626 1.362 . S
C2626 H2618 0.930 . S
C2626 C2625 1.362 . S
C2626 C2629 1.409 . S
C2627 H2619 0.930 . S
C2627 C2628 1.355 . S
C2627 C2629 1.415 . S
C2628 C2627 1.355 . S
C2628 C2630 1.419 1_455 S
C2629 C2624 1.425 1_455 S
C2629 C2626 1.409 . S
C2629 C2627 1.415 . S
C2630 H2620 0.930 . S
C2630 C2628 1.419 1_655 S
C2630 C2631 1.362 . S
C2631 H2621 0.930 . S
C2631 C2624 1.409 . S
C2631 C2630 1.362 . S
H2632 C2638 0.930 . S
H2633 C2641 0.930 . S
H2634 C2642 0.930 . S
H2635 C2643 0.930 . S
H2636 C2646 0.930 . S
H2637 C2647 0.930 . S
C2638 H2632 0.930 . S
C2638 C2639 1.355 . S
C2638 C2640 1.415 . S
C2639 C2638 1.355 . S
C2639 C2641 1.419 . S
C2640 C2638 1.415 . S
C2640 C2645 1.425 . S
C2640 C2647 1.409 . S
C2641 H2633 0.930 . S
C2641 C2639 1.419 . S
C2641 C2642 1.362 . S
C2642 H2634 0.930 . S
C2642 C2641 1.362 . S
C2642 C2645 1.409 . S
C2643 H2635 0.930 . S
C2643 C2644 1.355 . S
C2643 C2645 1.415 . S
C2644 C2643 1.355 . S
C2644 C2646 1.419 . S
C2645 C2640 1.425 . S
C2645 C2642 1.409 . S
C2645 C2643 1.415 . S
C2646 H2636 0.930 . S
C2646 C2644 1.419 . S
C2646 C2647 1.362 . S
C2647 H2637 0.930 . S
C2647 C2640 1.409 . S
C2647 C2646 1.362 . S
H2648 C2654 0.930 . S
H2649 C2657 0.930 . S
H2650 C2658 0.930 . S
H2651 C2659 0.930 . S
H2652 C2662 0.930 . S
H2653 C2663 0.930 . S
C2654 H2648 0.930 . S
C2654 C2655 1.355 . S
C2654 C2656 1.415 . S
C2655 C2654 1.355 . S
C2655 C2657 1.419 . S
C2656 C2654 1.415 . S
C2656 C2661 1.425 . S
C2656 C2663 1.409 1_455 S
C2657 H2649 0.930 . S
C2657 C2655 1.419 . S
C2657 C2658 1.362 . S
C2658 H2650 0.930 . S
C2658 C2657 1.362 . S
C2658 C2661 1.409 . S
C2659 H2651 0.930 . S
C2659 C2660 1.355 . S
C2659 C2661 1.415 . S
C2660 C2659 1.355 . S
C2660 C2662 1.419 1_455 S
C2661 C2656 1.425 . S
C2661 C2658 1.409 . S
C2661 C2659 1.415 . S
C2662 H2652 0.930 . S
C2662 C2660 1.419 1_655 S
C2662 C2663 1.362 . S
C2663 H2653 0.930 . S
C2663 C2656 1.409 1_655 S
C2663 C2662 1.362 . S
H2664 C2670 0.930 . S
H2665 C2673 0.930 . S
H2666 C2674 0.930 . S
H2667 C2675 0.930 . S
H2668 C2678 0.930 . S
H2669 C2679 0.930 . S
C2670 H2664 0.930 . S
C2670 C2671 1.355 . S
C2670 C2672 1.415 . S
C2671 C2670 1.355 . S
C2671 C2673 1.419 . S
C2672 C2670 1.415 . S
C2672 C2677 1.425 . S
C2672 C2679 1.409 . S
C2673 H2665 0.930 . S
C2673 C2671 1.419 . S
C2673 C2674 1.362 . S
C2674 H2666 0.930 . S
C2674 C2673 1.362 . S
C2674 C2677 1.409 . S
C2675 H2667 0.930 . S
C2675 C2676 1.355 . S
C2675 C2677 1.415 . S
C2676 C2675 1.355 . S
C2676 C2678 1.419 . S
C2677 C2672 1.425 . S
C2677 C2674 1.409 . S
C2677 C2675 1.415 . S
C2678 H2668 0.930 . S
C2678 C2676 1.419 . S
C2678 C2679 1.362 . S
C2679 H2669 0.930 . S
C2679 C2672 1.409 . S
C2679 C2678 1.362 . S
H2680 C2686 0.930 . S
H2681 C2689 0.930 . S
H2682 C2690 0.930 . S
H2683 C2691 0.930 . S
H2684 C2694 0.930 . S
H2685 C2695 0.930 . S
C2686 H2680 0.930 . S
C2686 C2687 1.355 . S
C2686 C2688 1.415 . S
C2687 C2686 1.355 . S
C2687 C2689 1.419 . S
C2688 C2686 1.415 . S
C2688 C2693 1.425 . S
C2688 C2695 1.409 . S
C2689 H2681 0.930 . S
C2689 C2687 1.419 . S
C2689 C2690 1.362 . S
C2690 H2682 0.930 . S
C2690 C2689 1.362 . S
C2690 C2693 1.409 . S
C2691 H2683 0.930 . S
C2691 C2692 1.355 . S
C2691 C2693 1.415 . S
C2692 C2691 1.355 . S
C2692 C2694 1.419 . S
C2693 C2688 1.425 . S
C2693 C2690 1.409 . S
C2693 C2691 1.415 . S
C2694 H2684 0.930 . S
C2694 C2692 1.419 . S
C2694 C2695 1.362 . S
C2695 H2685 0.930 . S
C2695 C2688 1.409 . S
C2695 C2694 1.362 . S
H2696 C2702 0.930 . S
H2697 C2705 0.930 . S
H2698 C2706 0.930 . S
H2699 C2707 0.930 . S
H2700 C2710 0.930 . S
H2701 C2711 0.930 . S
C2702 H2696 0.930 . S
C2702 C2703 1.355 . S
C2702 C2704 1.415 . S
C2703 C2702 1.355 . S
C2703 C2705 1.419 1_545 S
C2704 C2702 1.415 . S
C2704 C2709 1.425 . S
C2704 C2711 1.409 . S
C2705 H2697 0.930 . S
C2705 C2703 1.419 1_565 S
C2705 C2706 1.362 . S
C2706 H2698 0.930 . S
C2706 C2705 1.362 . S
C2706 C2709 1.409 1_565 S
C2707 H2699 0.930 . S
C2707 C2708 1.355 . S
C2707 C2709 1.415 . S
C2708 C2707 1.355 . S
C2708 C2710 1.419 . S
C2709 C2704 1.425 . S
C2709 C2706 1.409 1_545 S
C2709 C2707 1.415 . S
C2710 H2700 0.930 . S
C2710 C2708 1.419 . S
C2710 C2711 1.362 . S
C2711 H2701 0.930 . S
C2711 C2704 1.409 . S
C2711 C2710 1.362 . S
H2712 C2718 0.930 . S
H2713 C2721 0.930 . S
H2714 C2722 0.930 . S
H2715 C2723 0.930 . S
H2716 C2726 0.930 . S
H2717 C2727 0.930 . S
C2718 H2712 0.930 . S
C2718 C2719 1.355 . S
C2718 C2720 1.415 . S
C2719 C2718 1.355 . S
C2719 C2721 1.419 . S
C2720 C2718 1.415 . S
C2720 C2725 1.425 . S
C2720 C2727 1.409 . S
C2721 H2713 0.930 . S
C2721 C2719 1.419 . S
C2721 C2722 1.362 . S
C2722 H2714 0.930 . S
C2722 C2721 1.362 . S
C2722 C2725 1.409 . S
C2723 H2715 0.930 . S
C2723 C2724 1.355 . S
C2723 C2725 1.415 . S
C2724 C2723 1.355 . S
C2724 C2726 1.419 . S
C2725 C2720 1.425 . S
C2725 C2722 1.409 . S
C2725 C2723 1.415 . S
C2726 H2716 0.930 . S
C2726 C2724 1.419 . S
C2726 C2727 1.362 . S
C2727 H2717 0.930 . S
C2727 C2720 1.409 . S
C2727 C2726 1.362 . S
H2728 C2734 0.930 . S
H2729 C2737 0.930 . S
H2730 C2738 0.930 . S
H2731 C2739 0.930 . S
H2732 C2742 0.930 . S
H2733 C2743 0.930 . S
C2734 H2728 0.930 . S
C2734 C2735 1.355 . S
C2734 C2736 1.415 . S
C2735 C2734 1.355 . S
C2735 C2737 1.419 . S
C2736 C2734 1.415 . S
C2736 C2741 1.425 . S
C2736 C2743 1.409 . S
C2737 H2729 0.930 . S
C2737 C2735 1.419 . S
C2737 C2738 1.362 . S
C2738 H2730 0.930 . S
C2738 C2737 1.362 . S
C2738 C2741 1.409 . S
C2739 H2731 0.930 . S
C2739 C2740 1.355 . S
C2739 C2741 1.415 . S
C2740 C2739 1.355 . S
C2740 C2742 1.419 . S
C2741 C2736 1.425 . S
C2741 C2738 1.409 . S
C2741 C2739 1.415 . S
C2742 H2732 0.930 . S
C2742 C2740 1.419 . S
C2742 C2743 1.362 . S
C2743 H2733 0.930 . S
C2743 C2736 1.409 . S
C2743 C2742 1.362 . S
H2744 C2750 0.930 . S
H2745 C2753 0.930 . S
H2746 C2754 0.930 . S
H2747 C2755 0.930 . S
H2748 C2758 0.930 . S
H2749 C2759 0.930 . S
C2750 H2744 0.930 . S
C2750 C2751 1.355 . S
C2750 C2752 1.415 . S
C2751 C2750 1.355 . S
C2751 C2753 1.419 . S
C2752 C2750 1.415 . S
C2752 C2757 1.425 . S
C2752 C2759 1.409 . S
C2753 H2745 0.930 . S
C2753 C2751 1.419 . S
C2753 C2754 1.362 . S
C2754 H2746 0.930 . S
C2754 C2753 1.362 . S
C2754 C2757 1.409 . S
C2755 H2747 0.930 . S
C2755 C2756 1.355 . S
C2755 C2757 1.415 . S
C2756 C2755 1.355 . S
C2756 C2758 1.419 . S
C2757 C2752 1.425 . S
C2757 C2754 1.409 . S
C2757 C2755 1.415 . S
C2758 H2748 0.930 . S
C2758 C2756 1.419 . S
C2758 C2759 1.362 . S
C2759 H2749 0.930 . S
C2759 C2752 1.409 . S
C2759 C2758 1.362 . S
H2760 C2766 0.930 . S
H2761 C2769 0.930 . S
H2762 C2770 0.930 . S
H2763 C2771 0.930 . S
H2764 C2774 0.930 . S
H2765 C2775 0.930 . S
C2766 H2760 0.930 . S
C2766 C2767 1.355 . S
C2766 C2768 1.415 . S
C2767 C2766 1.355 . S
C2767 C2769 1.419 . S
C2768 C2766 1.415 . S
C2768 C2773 1.425 . S
C2768 C2775 1.409 . S
C2769 H2761 0.930 . S
C2769 C2767 1.419 . S
C2769 C2770 1.362 . S
C2770 H2762 0.930 . S
C2770 C2769 1.362 . S
C2770 C2773 1.409 . S
C2771 H2763 0.930 . S
C2771 C2772 1.355 . S
C2771 C2773 1.415 . S
C2772 C2771 1.355 . S
C2772 C2774 1.419 . S
C2773 C2768 1.425 . S
C2773 C2770 1.409 . S
C2773 C2771 1.415 . S
C2774 H2764 0.930 . S
C2774 C2772 1.419 . S
C2774 C2775 1.362 . S
C2775 H2765 0.930 . S
C2775 C2768 1.409 . S
C2775 C2774 1.362 . S
H2776 C2782 0.930 . S
H2777 C2785 0.930 . S
H2778 C2786 0.930 . S
H2779 C2787 0.930 . S
H2780 C2790 0.930 . S
H2781 C2791 0.930 . S
C2782 H2776 0.930 . S
C2782 C2783 1.355 . S
C2782 C2784 1.415 . S
C2783 C2782 1.355 . S
C2783 C2785 1.419 . S
C2784 C2782 1.415 . S
C2784 C2789 1.425 . S
C2784 C2791 1.409 . S
C2785 H2777 0.930 . S
C2785 C2783 1.419 . S
C2785 C2786 1.362 . S
C2786 H2778 0.930 . S
C2786 C2785 1.362 . S
C2786 C2789 1.409 . S
C2787 H2779 0.930 . S
C2787 C2788 1.355 . S
C2787 C2789 1.415 . S
C2788 C2787 1.355 . S
C2788 C2790 1.419 . S
C2789 C2784 1.425 . S
C2789 C2786 1.409 . S
C2789 C2787 1.415 . S
C2790 H2780 0.930 . S
C2790 C2788 1.419 . S
C2790 C2791 1.362 . S
C2791 H2781 0.930 . S
C2791 C2784 1.409 . S
C2791 C2790 1.362 . S
H2792 C2798 0.930 . S
H2793 C2801 0.930 . S
H2794 C2802 0.930 . S
H2795 C2803 0.930 . S
H2796 C2806 0.930 . S
H2797 C2807 0.930 . S
C2798 H2792 0.930 . S
C2798 C2799 1.355 . S
C2798 C2800 1.415 . S
C2799 C2798 1.355 . S
C2799 C2801 1.419 . S
C2800 C2798 1.415 . S
C2800 C2805 1.425 . S
C2800 C2807 1.409 . S
C2801 H2793 0.930 . S
C2801 C2799 1.419 . S
C2801 C2802 1.362 . S
C2802 H2794 0.930 . S
C2802 C2801 1.362 . S
C2802 C2805 1.409 . S
C2803 H2795 0.930 . S
C2803 C2804 1.355 . S
C2803 C2805 1.415 . S
C2804 C2803 1.355 . S
C2804 C2806 1.419 . S
C2805 C2800 1.425 . S
C2805 C2802 1.409 . S
C2805 C2803 1.415 . S
C2806 H2796 0.930 . S
C2806 C2804 1.419 . S
C2806 C2807 1.362 . S
C2807 H2797 0.930 . S
C2807 C2800 1.409 . S
C2807 C2806 1.362 . S
H2808 C2814 0.930 . S
H2809 C2817 0.930 . S
H2810 C2818 0.930 . S
H2811 C2819 0.930 . S
H2812 C2822 0.930 . S
H2813 C2823 0.930 . S
C2814 H2808 0.930 . S
C2814 C2815 1.355 . S
C2814 C2816 1.415 . S
C2815 C2814 1.355 . S
C2815 C2817 1.419 . S
C2816 C2814 1.415 . S
C2816 C2821 1.425 . S
C2816 C2823 1.409 . S
C2817 H2809 0.930 . S
C2817 C2815 1.419 . S
C2817 C2818 1.362 . S
C2818 H2810 0.930 . S
C2818 C2817 1.362 . S
C2818 C2821 1.409 . S
C2819 H2811 0.930 . S
C2819 C2820 1.355 . S
C2819 C2821 1.415 . S
C2820 C2819 1.355 . S
C2820 C2822 1.419 . S
C2821 C2816 1.425 . S
C2821 C2818 1.409 . S
C2821 C2819 1.415 . S
C2822 H2812 0.930 . S
C2822 C2820 1.419 . S
C2822 C2823 1.362 . S
C2823 H2813 0.930 . S
C2823 C2816 1.409 . S
C2823 C2822 1.362 . S
H2824 C2830 0.930 . S
H2825 C2833 0.930 . S
H2826 C2834 0.930 . S
H2827 C2835 0.930 . S
H2828 C2838 0.930 . S
H2829 C2839 0.930 . S
C2830 H2824 0.930 . S
C2830 C2831 1.355 . S
C2830 C2832 1.415 . S
C2831 C2830 1.355 . S
C2831 C2833 1.419 . S
C2832 C2830 1.415 . S
C2832 C2837 1.425 . S
C2832 C2839 1.409 . S
C2833 H2825 0.930 . S
C2833 C2831 1.419 . S
C2833 C2834 1.362 . S
C2834 H2826 0.930 . S
C2834 C2833 1.362 . S
C2834 C2837 1.409 . S
C2835 H2827 0.930 . S
C2835 C2836 1.355 . S
C2835 C2837 1.415 . S
C2836 C2835 1.355 . S
C2836 C2838 1.419 . S
C2837 C2832 1.425 . S
C2837 C2834 1.409 . S
C2837 C2835 1.415 . S
C2838 H2828 0.930 . S
C2838 C2836 1.419 . S
C2838 C2839 1.362 . S
C2839 H2829 0.930 . S
C2839 C2832 1.409 . S
C2839 C2838 1.362 . S
H2840 C2846 0.930 . S
H2841 C2849 0.930 . S
H2842 C2850 0.930 . S
H2843 C2851 0.930 . S
H2844 C2854 0.930 . S
H2845 C2855 0.930 . S
C2846 H2840 0.930 . S
C2846 C2847 1.355 . S
C2846 C2848 1.415 . S
C2847 C2846 1.355 . S
C2847 C2849 1.419 . S
C2848 C2846 1.415 . S
C2848 C2853 1.425 . S
C2848 C2855 1.409 . S
C2849 H2841 0.930 . S
C2849 C2847 1.419 . S
C2849 C2850 1.362 . S
C2850 H2842 0.930 . S
C2850 C2849 1.362 . S
C2850 C2853 1.409 . S
C2851 H2843 0.930 . S
C2851 C2852 1.355 . S
C2851 C2853 1.415 . S
C2852 C2851 1.355 . S
C2852 C2854 1.419 . S
C2853 C2848 1.425 . S
C2853 C2850 1.409 . S
C2853 C2851 1.415 . S
C2854 H2844 0.930 . S
C2854 C2852 1.419 . S
C2854 C2855 1.362 . S
C2855 H2845 0.930 . S
C2855 C2848 1.409 . S
C2855 C2854 1.362 . S
H2856 C2862 0.930 . S
H2857 C2865 0.930 . S
H2858 C2866 0.930 . S
H2859 C2867 0.930 . S
H2860 C2870 0.930 . S
H2861 C2871 0.930 . S
C2862 H2856 0.930 . S
C2862 C2863 1.355 . S
C2862 C2864 1.415 . S
C2863 C2862 1.355 . S
C2863 C2865 1.419 . S
C2864 C2862 1.415 . S
C2864 C2869 1.425 . S
C2864 C2871 1.409 . S
C2865 H2857 0.930 . S
C2865 C2863 1.419 . S
C2865 C2866 1.362 . S
C2866 H2858 0.930 . S
C2866 C2865 1.362 . S
C2866 C2869 1.409 . S
C2867 H2859 0.930 . S
C2867 C2868 1.355 . S
C2867 C2869 1.415 . S
C2868 C2867 1.355 . S
C2868 C2870 1.419 . S
C2869 C2864 1.425 . S
C2869 C2866 1.409 . S
C2869 C2867 1.415 . S
C2870 H2860 0.930 . S
C2870 C2868 1.419 . S
C2870 C2871 1.362 . S
C2871 H2861 0.930 . S
C2871 C2864 1.409 . S
C2871 C2870 1.362 . S
H2872 C2878 0.930 . S
H2873 C2881 0.930 . S
H2874 C2882 0.930 . S
H2875 C2883 0.930 . S
H2876 C2886 0.930 . S
H2877 C2887 0.930 . S
C2878 H2872 0.930 . S
C2878 C2879 1.355 . S
C2878 C2880 1.415 . S
C2879 C2878 1.355 . S
C2879 C2881 1.419 . S
C2880 C2878 1.415 . S
C2880 C2885 1.425 . S
C2880 C2887 1.409 . S
C2881 H2873 0.930 . S
C2881 C2879 1.419 . S
C2881 C2882 1.362 . S
C2882 H2874 0.930 . S
C2882 C2881 1.362 . S
C2882 C2885 1.409 . S
C2883 H2875 0.930 . S
C2883 C2884 1.355 . S
C2883 C2885 1.415 . S
C2884 C2883 1.355 . S
C2884 C2886 1.419 . S
C2885 C2880 1.425 . S
C2885 C2882 1.409 . S
C2885 C2883 1.415 . S
C2886 H2876 0.930 . S
C2886 C2884 1.419 . S
C2886 C2887 1.362 . S
C2887 H2877 0.930 . S
C2887 C2880 1.409 . S
C2887 C2886 1.362 . S
H2888 C2894 0.930 . S
H2889 C2897 0.930 . S
H2890 C2898 0.976 . S
H2891 C2899 0.930 . S
H2892 C2902 0.930 . S
H2893 C2903 0.930 . S
C2894 H2888 0.930 . S
C2894 C2895 1.355 . S
C2894 C2896 1.415 . S
C2895 C2894 1.355 . S
C2895 C2897 1.419 1_565 S
C2896 C2894 1.415 . S
C2896 C2901 1.425 . S
C2896 C2903 1.409 . S
C2897 H2889 0.930 . S
C2897 C2895 1.419 1_545 S
C2897 C2898 1.382 . S
C2898 H2890 0.976 . S
C2898 C2897 1.382 . S
C2898 C2901 1.347 1_545 S
C2899 H2891 0.930 . S
C2899 C2900 1.355 . S
C2899 C2901 1.415 . S
C2900 C2899 1.355 . S
C2900 C2902 1.419 . S
C2901 C2896 1.425 . S
C2901 C2898 1.347 1_565 S
C2901 C2899 1.415 . S
C2902 H2892 0.930 . S
C2902 C2900 1.419 . S
C2902 C2903 1.362 . S
C2903 H2893 0.930 . S
C2903 C2896 1.409 . S
C2903 C2902 1.362 . S
H2904 C2910 0.930 . S
H2905 C2913 0.930 . S
H2906 C2914 0.930 . S
H2907 C2915 0.930 . S
H2908 C2918 0.930 . S
H2909 C2919 0.930 . S
C2910 H2904 0.930 . S
C2910 C2911 1.355 . S
C2910 C2912 1.415 . S
C2911 C2910 1.355 . S
C2911 C2913 1.419 . S
C2912 C2910 1.415 . S
C2912 C2917 1.425 . S
C2912 C2919 1.409 . S
C2913 H2905 0.930 . S
C2913 C2911 1.419 . S
C2913 C2914 1.362 . S
C2914 H2906 0.930 . S
C2914 C2913 1.362 . S
C2914 C2917 1.409 . S
C2915 H2907 0.930 . S
C2915 C2916 1.355 . S
C2915 C2917 1.415 . S
C2916 C2915 1.355 . S
C2916 C2918 1.419 . S
C2917 C2912 1.425 . S
C2917 C2914 1.409 . S
C2917 C2915 1.415 . S
C2918 H2908 0.930 . S
C2918 C2916 1.419 . S
C2918 C2919 1.362 . S
C2919 H2909 0.930 . S
C2919 C2912 1.409 . S
C2919 C2918 1.362 . S
H2920 C2926 0.930 . S
H2921 C2929 0.930 . S
H2922 C2930 0.930 . S
H2923 C2931 0.930 . S
H2924 C2934 0.930 . S
H2925 C2935 0.930 . S
C2926 H2920 0.930 . S
C2926 C2927 1.355 . S
C2926 C2928 1.415 . S
C2927 C2926 1.355 . S
C2927 C2929 1.419 . S
C2928 C2926 1.415 . S
C2928 C2933 1.425 . S
C2928 C2935 1.409 . S
C2929 H2921 0.930 . S
C2929 C2927 1.419 . S
C2929 C2930 1.362 . S
C2930 H2922 0.930 . S
C2930 C2929 1.362 . S
C2930 C2933 1.409 . S
C2931 H2923 0.930 . S
C2931 C2932 1.355 . S
C2931 C2933 1.415 . S
C2932 C2931 1.355 . S
C2932 C2934 1.419 . S
C2933 C2928 1.425 . S
C2933 C2930 1.409 . S
C2933 C2931 1.415 . S
C2934 H2924 0.930 . S
C2934 C2932 1.419 . S
C2934 C2935 1.362 . S
C2935 H2925 0.930 . S
C2935 C2928 1.409 . S
C2935 C2934 1.362 . S
H2936 C2942 0.930 . S
H2937 C2945 0.930 . S
H2938 C2946 0.930 . S
H2939 C2947 0.930 . S
H2940 C2950 0.930 . S
H2941 C2951 0.930 . S
C2942 H2936 0.930 . S
C2942 C2943 1.355 . S
C2942 C2944 1.415 . S
C2943 C2942 1.355 . S
C2943 C2945 1.419 . S
C2944 C2942 1.415 . S
C2944 C2949 1.425 . S
C2944 C2951 1.409 . S
C2945 H2937 0.930 . S
C2945 C2943 1.419 . S
C2945 C2946 1.362 . S
C2946 H2938 0.930 . S
C2946 C2945 1.362 . S
C2946 C2949 1.409 . S
C2947 H2939 0.930 . S
C2947 C2948 1.355 . S
C2947 C2949 1.415 . S
C2948 C2947 1.355 . S
C2948 C2950 1.419 . S
C2949 C2944 1.425 . S
C2949 C2946 1.409 . S
C2949 C2947 1.415 . S
C2950 H2940 0.930 . S
C2950 C2948 1.419 . S
C2950 C2951 1.362 . S
C2951 H2941 0.930 . S
C2951 C2944 1.409 . S
C2951 C2950 1.362 . S
H2952 C2958 0.930 . S
H2953 C2961 0.930 . S
H2954 C2962 0.930 . S
H2955 C2963 0.930 . S
H2956 C2966 0.930 . S
H2957 C2967 0.930 . S
C2958 H2952 0.930 . S
C2958 C2959 1.355 . S
C2958 C2960 1.415 . S
C2959 C2958 1.355 . S
C2959 C2961 1.419 . S
C2960 C2958 1.415 . S
C2960 C2965 1.425 . S
C2960 C2967 1.409 . S
C2961 H2953 0.930 . S
C2961 C2959 1.419 . S
C2961 C2962 1.362 . S
C2962 H2954 0.930 . S
C2962 C2961 1.362 . S
C2962 C2965 1.409 . S
C2963 H2955 0.930 . S
C2963 C2964 1.355 . S
C2963 C2965 1.415 . S
C2964 C2963 1.355 . S
C2964 C2966 1.419 . S
C2965 C2960 1.425 . S
C2965 C2962 1.409 . S
C2965 C2963 1.415 . S
C2966 H2956 0.930 . S
C2966 C2964 1.419 . S
C2966 C2967 1.362 . S
C2967 H2957 0.930 . S
C2967 C2960 1.409 . S
C2967 C2966 1.362 . S
H2968 C2974 0.930 . S
H2969 C2977 0.930 . S
H2970 C2978 0.930 . S
H2971 C2979 0.930 . S
H2972 C2982 0.930 . S
H2973 C2983 0.930 . S
C2974 H2968 0.930 . S
C2974 C2975 1.355 . S
C2974 C2976 1.415 . S
C2975 C2974 1.355 . S
C2975 C2977 1.419 . S
C2976 C2974 1.415 . S
C2976 C2981 1.425 . S
C2976 C2983 1.409 . S
C2977 H2969 0.930 . S
C2977 C2975 1.419 . S
C2977 C2978 1.362 . S
C2978 H2970 0.930 . S
C2978 C2977 1.362 . S
C2978 C2981 1.409 . S
C2979 H2971 0.930 . S
C2979 C2980 1.355 . S
C2979 C2981 1.415 . S
C2980 C2979 1.355 . S
C2980 C2982 1.419 . S
C2981 C2976 1.425 . S
C2981 C2978 1.409 . S
C2981 C2979 1.415 . S
C2982 H2972 0.930 . S
C2982 C2980 1.419 . S
C2982 C2983 1.362 . S
C2983 H2973 0.930 . S
C2983 C2976 1.409 . S
C2983 C2982 1.362 . S
H2984 C2990 0.930 . S
H2985 C2993 0.930 . S
H2986 C2994 0.930 . S
H2987 C2995 0.930 . S
H2988 C2998 0.930 . S
H2989 C2999 0.930 . S
C2990 H2984 0.930 . S
C2990 C2991 1.355 . S
C2990 C2992 1.415 . S
C2991 C2990 1.355 . S
C2991 C2993 1.419 . S
C2992 C2990 1.415 . S
C2992 C2997 1.425 . S
C2992 C2999 1.409 . S
C2993 H2985 0.930 . S
C2993 C2991 1.419 . S
C2993 C2994 1.362 . S
C2994 H2986 0.930 . S
C2994 C2993 1.362 . S
C2994 C2997 1.409 . S
C2995 H2987 0.930 . S
C2995 C2996 1.355 . S
C2995 C2997 1.415 . S
C2996 C2995 1.355 . S
C2996 C2998 1.419 . S
C2997 C2992 1.425 . S
C2997 C2994 1.409 . S
C2997 C2995 1.415 . S
C2998 H2988 0.930 . S
C2998 C2996 1.419 . S
C2998 C2999 1.362 . S
C2999 H2989 0.930 . S
C2999 C2992 1.409 . S
C2999 C2998 1.362 . S
H3000 C3006 0.930 . S
H3001 C3009 0.930 . S
H3002 C3010 0.930 . S
H3003 C3011 0.930 . S
H3004 C3014 0.930 . S
H3005 C3015 0.930 . S
C3006 H3000 0.930 . S
C3006 C3007 1.355 . S
C3006 C3008 1.415 . S
C3007 C3006 1.355 . S
C3007 C3009 1.419 . S
C3008 C3006 1.415 . S
C3008 C3013 1.425 . S
C3008 C3015 1.409 . S
C3009 H3001 0.930 . S
C3009 C3007 1.419 . S
C3009 C3010 1.362 . S
C3010 H3002 0.930 . S
C3010 C3009 1.362 . S
C3010 C3013 1.409 . S
C3011 H3003 0.930 . S
C3011 C3012 1.355 . S
C3011 C3013 1.415 . S
C3012 C3011 1.355 . S
C3012 C3014 1.419 . S
C3013 C3008 1.425 . S
C3013 C3010 1.409 . S
C3013 C3011 1.415 . S
C3014 H3004 0.930 . S
C3014 C3012 1.419 . S
C3014 C3015 1.362 . S
C3015 H3005 0.930 . S
C3015 C3008 1.409 . S
C3015 C3014 1.362 . S
H3016 C3022 0.930 . S
H3017 C3025 0.930 . S
H3018 C3026 0.930 . S
H3019 C3027 0.930 . S
H3020 C3030 0.930 . S
H3021 C3031 0.930 . S
C3022 H3016 0.930 . S
C3022 C3023 1.355 . S
C3022 C3024 1.415 . S
C3023 C3022 1.355 . S
C3023 C3025 1.419 . S
C3024 C3022 1.415 . S
C3024 C3029 1.425 . S
C3024 C3031 1.409 . S
C3025 H3017 0.930 . S
C3025 C3023 1.419 . S
C3025 C3026 1.362 . S
C3026 H3018 0.930 . S
C3026 C3025 1.362 . S
C3026 C3029 1.409 . S
C3027 H3019 0.930 . S
C3027 C3028 1.355 . S
C3027 C3029 1.415 . S
C3028 C3027 1.355 . S
C3028 C3030 1.419 . S
C3029 C3024 1.425 . S
C3029 C3026 1.409 . S
C3029 C3027 1.415 . S
C3030 H3020 0.930 . S
C3030 C3028 1.419 . S
C3030 C3031 1.362 . S
C3031 H3021 0.930 . S
C3031 C3024 1.409 . S
C3031 C3030 1.362 . S
H3032 C3038 0.930 . S
H3033 C3041 0.930 . S
H3034 C3042 0.930 . S
H3035 C3043 0.930 . S
H3036 C3046 0.930 . S
H3037 C3047 0.930 . S
C3038 H3032 0.930 . S
C3038 C3039 1.355 . S
C3038 C3040 1.415 . S
C3039 C3038 1.355 . S
C3039 C3041 1.419 . S
C3040 C3038 1.415 . S
C3040 C3045 1.425 . S
C3040 C3047 1.409 . S
C3041 H3033 0.930 . S
C3041 C3039 1.419 . S
C3041 C3042 1.362 . S
C3042 H3034 0.930 . S
C3042 C3041 1.362 . S
C3042 C3045 1.409 . S
C3043 H3035 0.930 . S
C3043 C3044 1.355 . S
C3043 C3045 1.415 . S
C3044 C3043 1.355 . S
C3044 C3046 1.419 . S
C3045 C3040 1.425 . S
C3045 C3042 1.409 . S
C3045 C3043 1.415 . S
C3046 H3036 0.930 . S
C3046 C3044 1.419 . S
C3046 C3047 1.362 . S
C3047 H3037 0.930 . S
C3047 C3040 1.409 . S
C3047 C3046 1.362 . S
C1908 C1873 1.928 . S
C1903 C15 2.023 . S
C1924 C1756 2.567 . S
C1919 C55 2.240 . S
C1940 C1834 1.950 . S
C1935 C95 1.889 . S
C1956 C1795 2.213 . S
C1951 C135 2.153 . S
C1972 C1522 1.873 . S
C1967 C175 2.006 . S
C1983 C215 2.094 . S
C1988 C1561 2.208 . S
C2004 C1444 2.619 . S
C1999 C255 2.266 . S
C2015 C295 1.899 . S
C2020 C1483 1.952 . S
C2036 C1717 1.886 . S
C2031 C335 2.001 . S
C2047 C375 2.118 . S
C2052 C1639 2.204 . S
C2063 C415 2.246 . S
C2068 C1600 2.612 . S
C2084 C1678 1.935 . S
C2079 C455 1.840 . S
C2100 C1405 1.872 . S
C2095 C495 2.007 . S
C2111 C535 2.243 . S
C2116 C1288 2.585 . S
C2132 C1366 1.940 . S
C2127 C575 1.841 . S
C2143 C615 2.147 . S
C2148 C1327 2.225 . S
C2164 C1054 1.921 . S
C2159 C655 2.023 . S
C2180 C1093 2.190 . S
C2175 C695 2.116 . S
C2191 C735 2.243 . S
C2196 C976 2.570 . S
C2207 C775 1.867 . S
C2212 C1015 1.930 . S
C2223 C815 2.007 . S
C2228 C1249 1.929 . S
C2239 C855 2.127 . S
C2244 C1171 2.231 . S
C2260 C1132 2.581 . S
C2255 C895 2.329 . S
C2271 C935 1.866 . S
C2276 C1210 1.945 . S
C2292 C961 1.619 . S
C2287 C21 1.755 . S
C2308 C1000 1.095 . S
C2303 C61 1.148 . S
C2319 C101 1.512 . S
C2324 C1039 1.488 . S
C2335 C141 0.982 . S
C2340 C1078 0.972 . S
C2356 C1117 1.699 . S
C2351 C181 1.772 . S
C2367 C221 0.918 . S
C2372 C1156 0.952 . S
C2388 C1195 1.148 . S
C2383 C261 1.106 . S
C2404 C1234 1.561 . S
C2399 C301 1.539 . S
C2420 C1273 1.678 . S
C2415 C341 1.774 . S
C2431 C381 0.917 . S
C2436 C1312 0.944 . S
C2447 C421 1.148 . S
C2452 C1351 1.095 . S
C2463 C461 1.488 . S
C2468 C1390 1.498 . S
C2479 C501 1.675 . S
C2484 C1429 1.678 . S
C2495 C541 1.097 . S
C2500 C1468 1.072 . S
C2511 C581 1.431 . S
C2516 C1507 1.562 . S
C2527 C621 0.849 1_565 S
C2532 C1546 0.945 . S
C2543 C661 1.715 . S
C2548 C1585 1.678 . S
C2564 C1624 1.013 . S
C2559 C701 0.994 1_556 S
C2580 C1663 1.126 . S
C2575 C741 1.120 . S
C2596 C1702 1.520 . S
C2591 C781 1.309 . S
C2612 C1741 1.632 . S
C2607 C821 1.691 . S
C2623 C861 0.815 1_655 S
C2628 C1780 0.940 . S
C2639 C901 1.104 . S
C2644 C1819 1.077 . S
C2655 C941 1.432 . S
C2660 C1858 1.545 . S
C2671 C2 2.027 . S
C2676 C1293 2.005 . S
C2692 C1410 2.306 . S
C2687 C42 2.172 . S
C2703 C82 1.564 . S
C2708 C1332 1.537 . S
C2724 C1371 2.398 . S
C2719 C122 2.347 . S
C2735 C162 2.025 . S
C2740 C981 2.002 . S
C2751 C202 2.346 . S
C2756 C1020 2.398 . S
C2767 C242 2.237 . S
C2772 C1059 2.312 . S
C2783 C282 1.550 . S
C2788 C1098 1.556 . S
C2804 C1137 1.990 . S
C2799 C322 2.022 . S
C2820 C1215 2.388 . S
C2815 C362 2.364 . S
C2831 C402 2.205 . S
C2836 C1254 2.292 . S
C2847 C442 1.541 . S
C2852 C1176 1.534 . S
C2868 C1761 1.960 . S
C2863 C482 2.027 . S
C2884 C1878 2.359 . S
C2879 C522 2.353 . S
C2895 C562 1.502 . S
C2900 C1800 1.542 . S
C2916 C1839 2.435 . S
C2911 C602 2.256 . S
C2927 C642 2.000 . S
C2932 C1449 1.950 . S
C2943 C682 2.233 . S
C2948 C1488 2.418 . S
C2959 C722 2.353 . S
C2964 C1527 2.370 . S
C2980 C1566 1.549 . S
C2975 C762 1.453 . S
C2996 C1605 1.953 . S
C2991 C802 2.025 . S
C3012 C1683 2.417 . S
C3007 C842 2.231 . S
C3023 C882 2.317 . S
C3028 C1722 2.320 . S
C3044 C1644 1.567 . S
C3039 C922 1.446 . S
