# Generated by pormake.
# Topology ctn, (3,4)-cn, num edge types: 1
# Building blocks:
#     Node 0, Type 0, BuildingBlock: QEWDON_clean_linker_0, # of connection points: 3
#     Node 1, Type 0, BuildingBlock: QEWDON_clean_linker_0, # of connection points: 3
#     Node 2, Type 0, BuildingBlock: QEWDON_clean_linker_0, # of connection points: 3
#     Node 3, Type 0, BuildingBlock: QEWDON_clean_linker_0, # of connection points: 3
#     Node 4, Type 0, BuildingBlock: QEWDON_clean_linker_0, # of connection points: 3
#     Node 5, Type 0, BuildingBlock: QEWDON_clean_linker_0, # of connection points: 3
#     Node 6, Type 0, BuildingBlock: QEWDON_clean_linker_0, # of connection points: 3
#     Node 7, Type 0, BuildingBlock: QEWDON_clean_linker_0, # of connection points: 3
#     Node 8, Type 0, BuildingBlock: QEWDON_clean_linker_0, # of connection points: 3
#     Node 9, Type 0, BuildingBlock: QEWDON_clean_linker_0, # of connection points: 3
#     Node 10, Type 0, BuildingBlock: QEWDON_clean_linker_0, # of connection points: 3
#     Node 11, Type 0, BuildingBlock: QEWDON_clean_linker_0, # of connection points: 3
#     Node 12, Type 0, BuildingBlock: QEWDON_clean_linker_0, # of connection points: 3
#     Node 13, Type 0, BuildingBlock: QEWDON_clean_linker_0, # of connection points: 3
#     Node 14, Type 0, BuildingBlock: QEWDON_clean_linker_0, # of connection points: 3
#     Node 15, Type 0, BuildingBlock: QEWDON_clean_linker_0, # of connection points: 3
#     Node 16, Type 1, BuildingBlock: KUFVIS_clean_sbu_0, # of connection points: 4
#     Node 17, Type 1, BuildingBlock: KUFVIS_clean_sbu_0, # of connection points: 4
#     Node 18, Type 1, BuildingBlock: KUFVIS_clean_sbu_0, # of connection points: 4
#     Node 19, Type 1, BuildingBlock: KUFVIS_clean_sbu_0, # of connection points: 4
#     Node 20, Type 1, BuildingBlock: KUFVIS_clean_sbu_0, # of connection points: 4
#     Node 21, Type 1, BuildingBlock: KUFVIS_clean_sbu_0, # of connection points: 4
#     Node 22, Type 1, BuildingBlock: KUFVIS_clean_sbu_0, # of connection points: 4
#     Node 23, Type 1, BuildingBlock: KUFVIS_clean_sbu_0, # of connection points: 4
#     Node 24, Type 1, BuildingBlock: KUFVIS_clean_sbu_0, # of connection points: 4
#     Node 25, Type 1, BuildingBlock: KUFVIS_clean_sbu_0, # of connection points: 4
#     Node 26, Type 1, BuildingBlock: KUFVIS_clean_sbu_0, # of connection points: 4
#     Node 27, Type 1, BuildingBlock: KUFVIS_clean_sbu_0, # of connection points: 4
#     Edge 28, Type (0, 1), BuildingBlock: XUDNAN_clean_linker_2, # of connection points: 2
#     Edge 29, Type (0, 1), BuildingBlock: XUDNAN_clean_linker_2, # of connection points: 2
#     Edge 30, Type (0, 1), BuildingBlock: XUDNAN_clean_linker_2, # of connection points: 2
#     Edge 31, Type (0, 1), BuildingBlock: XUDNAN_clean_linker_2, # of connection points: 2
#     Edge 32, Type (0, 1), BuildingBlock: XUDNAN_clean_linker_2, # of connection points: 2
#     Edge 33, Type (0, 1), BuildingBlock: XUDNAN_clean_linker_2, # of connection points: 2
#     Edge 34, Type (0, 1), BuildingBlock: XUDNAN_clean_linker_2, # of connection points: 2
#     Edge 35, Type (0, 1), BuildingBlock: XUDNAN_clean_linker_2, # of connection points: 2
#     Edge 36, Type (0, 1), BuildingBlock: XUDNAN_clean_linker_2, # of connection points: 2
#     Edge 37, Type (0, 1), BuildingBlock: XUDNAN_clean_linker_2, # of connection points: 2
#     Edge 38, Type (0, 1), BuildingBlock: XUDNAN_clean_linker_2, # of connection points: 2
#     Edge 39, Type (0, 1), BuildingBlock: XUDNAN_clean_linker_2, # of connection points: 2
#     Edge 40, Type (0, 1), BuildingBlock: XUDNAN_clean_linker_2, # of connection points: 2
#     Edge 41, Type (0, 1), BuildingBlock: XUDNAN_clean_linker_2, # of connection points: 2
#     Edge 42, Type (0, 1), BuildingBlock: XUDNAN_clean_linker_2, # of connection points: 2
#     Edge 43, Type (0, 1), BuildingBlock: XUDNAN_clean_linker_2, # of connection points: 2
#     Edge 44, Type (0, 1), BuildingBlock: XUDNAN_clean_linker_2, # of connection points: 2
#     Edge 45, Type (0, 1), BuildingBlock: XUDNAN_clean_linker_2, # of connection points: 2
#     Edge 46, Type (0, 1), BuildingBlock: XUDNAN_clean_linker_2, # of connection points: 2
#     Edge 47, Type (0, 1), BuildingBlock: XUDNAN_clean_linker_2, # of connection points: 2
#     Edge 48, Type (0, 1), BuildingBlock: XUDNAN_clean_linker_2, # of connection points: 2
#     Edge 49, Type (0, 1), BuildingBlock: XUDNAN_clean_linker_2, # of connection points: 2
#     Edge 50, Type (0, 1), BuildingBlock: XUDNAN_clean_linker_2, # of connection points: 2
#     Edge 51, Type (0, 1), BuildingBlock: XUDNAN_clean_linker_2, # of connection points: 2
#     Edge 52, Type (0, 1), BuildingBlock: XUDNAN_clean_linker_2, # of connection points: 2
#     Edge 53, Type (0, 1), BuildingBlock: XUDNAN_clean_linker_2, # of connection points: 2
#     Edge 54, Type (0, 1), BuildingBlock: XUDNAN_clean_linker_2, # of connection points: 2
#     Edge 55, Type (0, 1), BuildingBlock: XUDNAN_clean_linker_2, # of connection points: 2
#     Edge 56, Type (0, 1), BuildingBlock: XUDNAN_clean_linker_2, # of connection points: 2
#     Edge 57, Type (0, 1), BuildingBlock: XUDNAN_clean_linker_2, # of connection points: 2
#     Edge 58, Type (0, 1), BuildingBlock: XUDNAN_clean_linker_2, # of connection points: 2
#     Edge 59, Type (0, 1), BuildingBlock: XUDNAN_clean_linker_2, # of connection points: 2
#     Edge 60, Type (0, 1), BuildingBlock: XUDNAN_clean_linker_2, # of connection points: 2
#     Edge 61, Type (0, 1), BuildingBlock: XUDNAN_clean_linker_2, # of connection points: 2
#     Edge 62, Type (0, 1), BuildingBlock: XUDNAN_clean_linker_2, # of connection points: 2
#     Edge 63, Type (0, 1), BuildingBlock: XUDNAN_clean_linker_2, # of connection points: 2
#     Edge 64, Type (0, 1), BuildingBlock: XUDNAN_clean_linker_2, # of connection points: 2
#     Edge 65, Type (0, 1), BuildingBlock: XUDNAN_clean_linker_2, # of connection points: 2
#     Edge 66, Type (0, 1), BuildingBlock: XUDNAN_clean_linker_2, # of connection points: 2
#     Edge 67, Type (0, 1), BuildingBlock: XUDNAN_clean_linker_2, # of connection points: 2
#     Edge 68, Type (0, 1), BuildingBlock: XUDNAN_clean_linker_2, # of connection points: 2
#     Edge 69, Type (0, 1), BuildingBlock: XUDNAN_clean_linker_2, # of connection points: 2
#     Edge 70, Type (0, 1), BuildingBlock: XUDNAN_clean_linker_2, # of connection points: 2
#     Edge 71, Type (0, 1), BuildingBlock: XUDNAN_clean_linker_2, # of connection points: 2
#     Edge 72, Type (0, 1), BuildingBlock: XUDNAN_clean_linker_2, # of connection points: 2
#     Edge 73, Type (0, 1), BuildingBlock: XUDNAN_clean_linker_2, # of connection points: 2
#     Edge 74, Type (0, 1), BuildingBlock: XUDNAN_clean_linker_2, # of connection points: 2
#     Edge 75, Type (0, 1), BuildingBlock: XUDNAN_clean_linker_2, # of connection points: 2
# Relax obj value: 0.125
# Max RMSD: 0.269
# Mean RMSD: 0.161
data_MOF--net-ctn--node1-KUFVIS_clean_sbu_0--node2-QEWDON_clean_linker_0--edge1-XUDNAN_clean_linker_2
_symmetry_space_group_name_H-M    P1
_symmetry_Int_Tables_number       1
_symmetry_cell_setting            triclinic
loop_
_symmetry_equiv_pos_as_xyz
'x, y, z'
_cell_length_a     52.105467
_cell_length_b     54.356526
_cell_length_c     58.101173
_cell_angle_alpha  99.131747
_cell_angle_beta   92.536868
_cell_angle_gamma 97.093902
loop_
_atom_site_label
_atom_site_type_symbol
_atom_site_fract_x
_atom_site_fract_y
_atom_site_fract_z
_atom_type_partial_charge
H0 H 0.12 0.04013 0.05414 0.0
C1 C 0.10485 0.03479 0.06528 0.0
C2 C 0.10421 0.01193 0.07388 0.0
C3 C 0.08723 0.05176 0.07241 0.0
H4 H 0.08444 0.98851 0.0959 0.0
C5 C 0.08501 1.00604 0.08921 0.0
C6 C 0.06708 0.02264 0.09665 0.0
C7 C 0.06857 0.04568 0.08822 0.0
C8 C 0.09155 0.0776 0.06675 0.0
H9 H 0.05549 0.05906 0.09411 0.0
C10 C 0.08069 0.08399 0.04609 0.0
C11 C 0.0862 0.10877 0.04108 0.0
C12 C 0.10769 0.09601 0.08231 0.0
H13 H 0.11624 0.09146 0.0982 0.0
C14 C 0.11312 0.12036 0.07752 0.0
H15 H 0.06831 0.06977 0.03397 0.0
C16 C 0.10253 0.12671 0.05715 0.0
H17 H 0.10675 0.14595 0.05423 0.0
H18 H 0.12555 0.13443 0.08972 0.0
H19 H 0.38975 0.72725 0.22819 0.0
C20 C 0.37463 0.7114 0.22388 0.0
C21 C 0.37686 0.68886 0.23251 0.0
C22 C 0.35242 0.71407 0.21028 0.0
H23 H 0.35753 0.65166 0.23368 0.0
C24 C 0.35642 0.66891 0.22688 0.0
C25 C 0.33386 0.6713 0.21362 0.0
C26 C 0.33228 0.69396 0.2051 0.0
C27 C 0.34777 0.73928 0.20568 0.0
H28 H 0.31461 0.69676 0.19589 0.0
C29 C 0.34626 0.74519 0.18286 0.0
C30 C 0.33937 0.76878 0.17896 0.0
C31 C 0.34283 0.75705 0.22463 0.0
H32 H 0.34375 0.7528 0.24223 0.0
C33 C 0.33559 0.77998 0.22103 0.0
H34 H 0.35066 0.73146 0.16847 0.0
C35 C 0.33347 0.78566 0.19852 0.0
H36 H 0.32666 0.80328 0.19669 0.0
H37 H 0.33112 0.79329 0.23575 0.0
H38 H 0.03411 0.49121 0.0643 0.0
C39 C 0.01761 0.50052 0.06049 0.0
C40 C 1.0064 0.51531 0.07861 0.0
C41 C 0.0092 0.49933 0.03693 0.0
H42 H 0.97578 0.53873 0.08557 0.0
C43 C 0.98569 0.528 0.07229 0.0
C44 C 0.97817 0.52832 0.04877 0.0
C45 C 0.9897 0.51349 0.03118 0.0
C46 C 0.02413 0.48715 0.01824 0.0
H47 H 0.98467 0.51412 0.01299 0.0
C48 C 0.02331 0.46079 0.01311 0.0
C49 C 0.03846 0.44972 0.99563 0.0
C50 C 0.04009 0.50242 1.00593 0.0
H51 H 0.04104 0.5227 0.00971 0.0
C52 C 0.05542 0.49176 0.98907 0.0
H53 H 0.01055 0.44911 0.02239 0.0
C54 C 0.05482 0.46574 0.98406 0.0
H55 H 0.0675 0.45827 0.97123 0.0
H56 H 0.06803 0.50374 0.97994 0.0
H57 H 0.75248 0.82634 0.22968 0.0
C58 C 0.75529 0.81994 0.21148 0.0
C59 C 0.77103 0.83537 0.1987 0.0
C60 C 0.74423 0.79552 0.20141 0.0
H61 H 0.78603 0.83727 0.16458 0.0
C62 C 0.77368 0.82635 0.17481 0.0
C63 C 0.76173 0.80232 0.16428 0.0
C64 C 0.74718 0.78716 0.17769 0.0
C65 C 0.73226 0.77753 0.21603 0.0
H66 H 0.73837 0.76849 0.16959 0.0
C67 C 0.71493 0.78449 0.23323 0.0
C68 C 0.7044 0.76698 0.24703 0.0
C69 C 0.739 0.75298 0.21304 0.0
H70 H 0.75268 0.74718 0.20042 0.0
C71 C 0.72856 0.73568 0.22648 0.0
H72 H 0.70968 0.80336 0.23582 0.0
C73 C 0.71136 0.74251 0.24325 0.0
H74 H 0.7032 0.72841 0.25306 0.0
H75 H 0.73382 0.71683 0.22387 0.0
H76 H 0.1018 0.96696 0.49391 0.0
C77 C 0.09151 0.97431 0.48045 0.0
C78 C 0.10233 0.99677 0.47325 0.0
C79 C 0.06821 0.96076 0.4693 0.0
H80 H 0.09839 0.02272 0.44919 0.0
C81 C 0.08968 1.0058 0.45502 0.0
C82 C 0.06625 0.99296 0.444 0.0
C83 C 0.05546 0.97092 0.45168 0.0
C84 C 0.05786 0.93503 0.47396 0.0
H85 H 0.03702 0.96141 0.44352 0.0
C86 C 0.05859 0.92796 0.49653 0.0
C87 C 0.04721 0.90362 0.49982 0.0
C88 C 0.04666 0.91702 0.45488 0.0
H89 H 0.04677 0.921 0.4372 0.0
C90 C 0.03487 0.89361 0.45808 0.0
H91 H 0.06778 0.94128 0.51131 0.0
C92 C 0.03464 0.88716 0.48024 0.0
H93 H 0.02433 0.86904 0.48185 0.0
H94 H 0.02568 0.88038 0.44324 0.0
H95 H 0.26494 0.65155 0.80009 0.0
C96 C 0.26417 0.66721 0.81398 0.0
C97 C 0.28135 0.66986 0.83379 0.0
C98 C 0.24761 0.68546 0.81115 0.0
H99 H 0.29338 0.69225 0.86743 0.0
C100 C 0.28018 0.68991 0.85205 0.0
C101 C 0.26296 0.70764 0.85036 0.0
C102 C 0.24675 0.70538 0.82986 0.0
C103 C 0.23378 0.68488 0.78772 0.0
H104 H 0.23493 0.72007 0.828 0.0
C105 C 0.20996 0.69465 0.78517 0.0
C106 C 0.19765 0.69342 0.76274 0.0
C107 C 0.24518 0.67494 0.76725 0.0
H108 H 0.26403 0.66861 0.76797 0.0
C109 C 0.23282 0.67345 0.74525 0.0
H110 H 0.2008 0.70283 0.80039 0.0
C111 C 0.20918 0.68243 0.74299 0.0
H112 H 0.2002 0.68149 0.72562 0.0
H113 H 0.24185 0.66562 0.72982 0.0
H114 H 0.99852 0.58547 0.47703 0.0
C115 C 0.98803 0.57018 0.48411 0.0
C116 C 0.98008 0.57445 0.50711 0.0
C117 C 0.97979 0.54707 0.46942 0.0
H118 H 0.95749 0.55881 0.53286 0.0
C119 C 0.96461 0.55511 0.51555 0.0
C120 C 0.95625 0.53197 0.50113 0.0
C121 C 0.96432 0.52806 0.47822 0.0
C122 C 0.98212 0.54434 0.44378 0.0
H123 H 0.95738 0.51056 0.46668 0.0
C124 C 1.00616 0.54387 0.43349 0.0
C125 C 0.00708 0.53978 0.40883 0.0
C126 C 0.95924 0.54129 0.42932 0.0
H127 H 0.94059 0.54168 0.43683 0.0
C128 C 0.96009 0.53781 0.40514 0.0
H129 H 0.02384 0.54594 0.44457 0.0
C130 C 0.98373 0.53705 0.39495 0.0
H131 H 0.98369 0.53468 0.37609 0.0
H132 H 0.94232 0.53569 0.39422 0.0
H133 H 0.85542 0.84536 0.80306 0.0
C134 C 0.85467 0.83115 0.81425 0.0
C135 C 0.87119 0.81244 0.81103 0.0
C136 C 0.83798 0.83244 0.83256 0.0
H137 H 0.88433 0.78139 0.82468 0.0
C138 C 0.8705 0.79475 0.82643 0.0
C139 C 0.85321 0.79499 0.84456 0.0
C140 C 0.83691 0.81408 0.84719 0.0
C141 C 0.8252 0.85532 0.83899 0.0
H142 H 0.82344 0.81521 0.86083 0.0
C143 C 0.80666 0.86273 0.82384 0.0
C144 C 0.79627 0.88568 0.83011 0.0
C145 C 0.83313 0.87076 0.86043 0.0
H146 H 0.84742 0.86554 0.87224 0.0
C147 C 0.82358 0.89352 0.86649 0.0
H148 H 0.80027 0.85042 0.80754 0.0
C149 C 0.8057 0.9011 0.85145 0.0
H150 H 0.7997 0.9194 0.85662 0.0
H151 H 0.83039 0.90559 0.88283 0.0
H152 H 0.3501 0.33956 0.30936 0.0
C153 C 0.34865 0.32443 0.31953 0.0
C154 C 0.36566 0.30608 0.31625 0.0
C155 C 0.33023 0.32385 0.33642 0.0
H156 H 0.37806 0.27402 0.32885 0.0
C157 C 0.36395 0.2871 0.3304 0.0
C158 C 0.34501 0.28557 0.34703 0.0
C159 C 0.32797 0.30394 0.34933 0.0
C160 C 0.31536 0.34544 0.34287 0.0
H161 H 0.3128 0.30318 0.36141 0.0
C162 C 0.30155 0.35591 0.32609 0.0
C163 C 0.28809 0.37667 0.3332 0.0
C164 C 0.31557 0.35605 0.3666 0.0
H165 H 0.32626 0.34871 0.37982 0.0
C166 C 0.30238 0.37644 0.3736 0.0
H167 H 0.30124 0.34795 0.30775 0.0
C168 C 0.28874 0.38665 0.35712 0.0
H169 H 0.27828 0.40221 0.36321 0.0
H170 H 0.30269 0.38434 0.39194 0.0
H171 H 0.53409 0.98372 0.55498 0.0
C172 C 0.51702 0.99268 0.55217 0.0
C173 C 0.50959 0.01048 0.57019 0.0
C174 C 0.50428 0.98852 0.52971 0.0
H175 H 0.48228 0.03686 0.57916 0.0
C176 C 0.48831 0.02312 0.56554 0.0
C177 C 0.47564 0.01955 0.54314 0.0
C178 C 0.48337 1.00175 0.52551 0.0
C179 C 0.51583 0.97438 0.50959 0.0
H180 H 0.4744 0.99955 0.50797 0.0
C181 C 0.52157 0.9496 0.50937 0.0
C182 C 0.53359 0.93741 0.49026 0.0
C183 C 0.52215 0.98654 0.49055 0.0
H184 H 0.51829 1.00566 0.4904 0.0
C185 C 0.53404 0.9745 0.47176 0.0
H186 H 0.51682 0.93996 0.52389 0.0
C187 C 0.5398 0.95015 0.47161 0.0
H188 H 0.54893 0.94108 0.45674 0.0
H189 H 0.53889 0.98412 0.45727 0.0
H190 H 0.26983 0.33193 0.72725 0.0
C191 C 0.26536 0.32367 0.7091 0.0
C192 C 0.2741 0.33676 0.69111 0.0
C193 C 0.25277 0.2987 0.70379 0.0
H194 H 0.27267 0.33465 0.65347 0.0
C195 C 0.26806 0.32476 0.66782 0.0
C196 C 0.25866 0.2991 0.66235 0.0
C197 C 0.25009 0.28641 0.68035 0.0
C198 C 0.24671 0.28381 0.72273 0.0
H199 H 0.24283 0.26655 0.67634 0.0
C200 C 0.2304 0.29143 0.74064 0.0
C201 C 0.22523 0.27655 0.75819 0.0
C202 C 0.25764 0.26142 0.72276 0.0
H203 H 0.27039 0.25527 0.70939 0.0
C204 C 0.25257 0.24686 0.74012 0.0
H205 H 0.22184 0.30864 0.7409 0.0
C206 C 0.23653 0.25435 0.75772 0.0
H207 H 0.23284 0.24271 0.77104 0.0
H208 H 0.26117 0.2297 0.73996 0.0
H209 H 0.9151 0.1937 0.70105 0.0
C210 C 0.89619 0.18616 0.70582 0.0
C211 C 0.894 0.17644 0.72676 0.0
C212 C 0.87416 0.18516 0.6905 0.0
H213 H 0.86808 0.15804 0.74831 0.0
C214 C 0.86958 0.16596 0.73235 0.0
C215 C 0.84728 0.165 0.71753 0.0
C216 C 0.84975 0.17472 0.69655 0.0
C217 C 0.87716 0.19193 0.6669 0.0
H218 H 0.83288 0.1736 0.68464 0.0
C219 C 0.86511 0.2115 0.65957 0.0
C220 C 0.86687 0.21661 0.6364 0.0
C221 C 0.89143 0.1777 0.6512 0.0
H222 H 0.90077 0.16254 0.65645 0.0
C223 C 0.89306 0.18228 0.62837 0.0
H224 H 0.85481 0.22276 0.67214 0.0
C225 C 0.88072 0.20126 0.62093 0.0
H226 H 0.88178 0.20341 0.6028 0.0
H227 H 0.90365 0.17079 0.61623 0.0
H228 H 0.61761 0.53023 0.55702 0.0
C229 C 0.60427 0.52762 0.57047 0.0
C230 C 0.6044 0.50675 0.58224 0.0
C231 C 0.58868 0.54647 0.57742 0.0
H232 H 0.5883 0.48961 0.61067 0.0
C233 C 0.58823 0.50518 0.60117 0.0
C234 C 0.57298 0.52426 0.60878 0.0
C235 C 0.57282 0.54429 0.59611 0.0
C236 C 0.59294 0.57117 0.56925 0.0
H237 H 0.5612 0.55917 0.60147 0.0
C238 C 0.58414 0.57485 0.54679 0.0
C239 C 0.5865 0.59941 0.54111 0.0
C240 C 0.6048 0.59195 0.58535 0.0
H241 H 0.61171 0.58956 0.60263 0.0
C242 C 0.60759 0.61598 0.57957 0.0
H243 H 0.57477 0.55903 0.53426 0.0
C244 C 0.59835 0.61974 0.55772 0.0
H245 H 0.60058 0.63866 0.5537 0.0
H246 H 0.61671 0.63181 0.59218 0.0
H247 H 0.62407 0.4796 0.9967 0.0
C248 C 0.608 0.48386 0.98616 0.0
C249 C 0.61152 0.50481 0.97474 0.0
C250 C 0.58481 0.46696 0.98222 0.0
H251 H 0.59424 0.52524 0.95072 0.0
C252 C 0.59121 0.50942 0.96001 0.0
C253 C 0.56788 0.49295 0.95575 0.0
C254 C 0.56483 0.47155 0.96685 0.0
C255 C 0.5844 0.44208 0.98989 0.0
H256 H 0.54748 0.45803 0.96284 0.0
C257 C 0.57018 0.43525 0.00868 0.0
C258 C 0.57264 0.41213 0.01644 0.0
C259 C 0.60017 0.42535 0.97867 0.0
H260 H 0.6112 0.43019 0.96426 0.0
C261 C 0.60215 0.40244 0.98597 0.0
H262 H 0.5581 0.44808 0.0176 0.0
C263 C 0.58868 0.39593 1.00475 0.0
H264 H 0.59066 0.37801 0.01011 0.0
H265 H 0.6144 0.38974 0.97714 0.0
H266 H 0.77818 0.16599 0.29467 0.0
C267 C 0.77454 0.1792 0.3098 0.0
C268 C 0.78928 0.17979 0.33073 0.0
C269 C 0.75621 0.19597 0.30795 0.0
H270 H 0.79541 0.19649 0.3671 0.0
C271 C 0.78435 0.1963 0.35082 0.0
C272 C 0.76469 0.21195 0.35002 0.0
C273 C 0.75127 0.21202 0.32836 0.0
C274 C 0.74356 0.19739 0.28445 0.0
H275 H 0.73754 0.22528 0.32736 0.0
C276 C 0.71856 0.20486 0.28181 0.0
C277 C 0.7073 0.20558 0.25938 0.0
C278 C 0.75702 0.19157 0.26413 0.0
H279 H 0.77665 0.1871 0.2651 0.0
C280 C 0.74567 0.19189 0.24204 0.0
H281 H 0.70765 0.20975 0.29692 0.0
C282 C 0.72094 0.19865 0.23963 0.0
H283 H 0.71272 0.19922 0.22229 0.0
H284 H 0.75628 0.1872 0.2267 0.0
H285 H 0.49742 0.09856 0.97854 0.0
C286 C 0.48825 0.08173 0.98422 0.0
C287 C 0.48099 0.08294 0.00734 0.0
C288 C 0.48093 0.05977 0.96772 0.0
H289 H 0.46027 0.06311 0.03156 0.0
C290 C 0.46702 0.0617 0.01406 0.0
C291 C 0.45928 0.03972 0.9978 0.0
C292 C 0.46668 0.03882 0.97468 0.0
C293 C 0.48142 0.06116 0.94251 0.0
H294 H 0.45978 0.02245 0.96167 0.0
C295 C 0.5011 0.05251 0.92861 0.0
C296 C 0.5005 0.05456 0.90461 0.0
C297 C 0.46111 0.07127 0.93227 0.0
H298 H 0.44579 0.07784 0.94267 0.0
C299 C 0.46022 0.07286 0.9086 0.0
H300 H 0.51689 0.04481 0.93647 0.0
C301 C 0.4797 0.06461 0.89486 0.0
H302 H 0.47843 0.066 0.87646 0.0
H303 H 0.44438 0.08055 0.90084 0.0
Mn304 Mn 0.27655 0.8689 0.01924 0.0
Mn305 Mn 0.26584 0.89453 0.97097 0.0
C306 C 0.25864 0.84385 0.98422 0.0
C307 C 0.30052 0.84881 0.04406 0.0
C308 C 0.23477 0.90344 0.01375 0.0
O309 O 0.30228 0.9016 0.02505 0.0
O310 O 0.29473 0.91559 0.991 0.0
C311 C 0.31496 0.8888 0.94812 0.0
N312 N 0.28866 0.88364 0.94767 0.0
C313 C 0.2869 0.85922 0.90914 0.0
C314 C 0.31395 0.86427 0.9092 0.0
C315 C 0.32803 0.87912 0.92878 0.0
C316 C 0.27491 0.86949 0.92886 0.0
H317 H 0.32591 0.90013 0.96314 0.0
C318 C 0.30738 0.91708 0.01077 0.0
O319 O 0.28286 0.86227 0.05161 0.0
O320 O 0.30521 0.84772 0.02216 0.0
N321 N 0.23873 0.87457 0.95036 0.0
C322 C 0.21297 0.87009 0.9537 0.0
C323 C 0.19624 0.85495 0.93598 0.0
C324 C 0.20615 0.84459 0.91505 0.0
C325 C 0.23276 0.84932 0.91208 0.0
C326 C 0.24848 0.86464 0.9303 0.0
H327 H 0.20527 0.87797 0.96978 0.0
O328 O 0.25357 0.8369 1.00413 0.0
O329 O 0.27192 0.86584 0.98598 0.0
O330 O 0.24588 0.8888 0.02477 0.0
O331 O 0.24079 0.90722 0.99343 0.0
C332 C 0.24437 0.83913 0.8919 0.0
C333 C 0.27142 0.84401 0.89046 0.0
H334 H 0.32412 0.85668 0.89439 0.0
H335 H 0.34892 0.88305 0.929 0.0
H336 H 0.17574 0.85125 0.93846 0.0
H337 H 0.19318 0.83287 0.90146 0.0
H338 H 0.23271 0.82732 0.87746 0.0
H339 H 0.28015 0.83576 0.875 0.0
Mn340 Mn 0.16039 0.51657 0.24886 0.0
Mn341 Mn 0.15101 0.57747 0.25789 0.0
C342 C 0.18672 0.54567 0.23183 0.0
C343 C 0.1801 0.48392 0.26148 0.0
C344 C 0.11561 0.53629 0.22536 0.0
O345 O 0.13728 0.51962 0.27685 0.0
O346 O 0.13942 0.56189 0.28502 0.0
C347 C 0.18802 0.59798 0.29852 0.0
N348 N 0.17923 0.59836 0.27619 0.0
C349 C 0.20873 0.63559 0.27432 0.0
C350 C 0.21773 0.6359 0.29748 0.0
C351 C 0.20757 0.61681 0.30953 0.0
C352 C 0.18954 0.6161 0.26416 0.0
H353 H 0.18011 0.58344 0.30785 0.0
C354 C 0.13322 0.53987 0.28999 0.0
O355 O 0.15925 0.47934 0.24756 0.0
O356 O 0.18899 0.50739 0.26852 0.0
N357 N 0.16161 0.59492 0.23301 0.0
C358 C 0.15084 0.59199 0.21076 0.0
C359 C 0.15984 0.6088 0.19598 0.0
C360 C 0.17941 0.62878 0.20434 0.0
C361 C 0.18978 0.63179 0.22744 0.0
C362 C 0.18026 0.61426 0.24129 0.0
H363 H 0.13551 0.57696 0.20427 0.0
O364 O 0.1852 0.52181 0.22389 0.0
O365 O 0.17339 0.5516 0.24971 0.0
O366 O 0.12939 0.51852 0.22612 0.0
O367 O 0.12109 0.55789 0.23818 0.0
C368 C 0.20892 0.65169 0.23737 0.0
C369 C 0.21815 0.65377 0.26086 0.0
H370 H 0.23269 0.6505 0.30608 0.0
H371 H 0.21464 0.61675 0.32731 0.0
H372 H 0.15158 0.60645 0.17822 0.0
H373 H 0.18621 0.6418 0.19293 0.0
H374 H 0.21659 0.66558 0.22712 0.0
H375 H 0.23285 0.66919 0.26831 0.0
Mn376 Mn 0.81068 0.6515 0.99767 0.0
Mn377 Mn 0.75898 0.66531 0.96698 0.0
C378 C 0.77096 0.6258 0.99469 0.0
C379 C 0.84873 0.63319 1.00311 0.0
C380 C 0.77789 0.69339 0.01503 0.0
O381 O 0.82758 0.67515 0.97647 0.0
O382 O 0.79144 0.68291 0.9574 0.0
C383 C 0.76969 0.63982 0.92012 0.0
N384 N 0.75343 0.643 0.93777 0.0
C385 C 0.71997 0.61271 0.91593 0.0
C386 C 0.7363 0.60922 0.89748 0.0
C387 C 0.76129 0.62278 0.89962 0.0
C388 C 0.72939 0.62997 0.93593 0.0
H389 H 0.78891 0.6502 0.92169 0.0
C390 C 0.81605 0.68576 0.96153 0.0
O391 O 0.84366 0.65314 0.0165 0.0
O392 O 0.83197 0.62393 0.98566 0.0
N393 N 0.72614 0.64945 0.97416 0.0
C394 C 0.71334 0.65405 0.99402 0.0
C395 C 0.68816 0.64174 0.99487 0.0
C396 C 0.67639 0.62491 0.9753 0.0
C397 C 0.68995 0.62047 0.95509 0.0
C398 C 0.71486 0.63354 0.95515 0.0
H399 H 0.72225 0.66706 0.00905 0.0
O400 O 0.78765 0.62641 0.01213 0.0
O401 O 0.77782 0.64048 0.97977 0.0
O402 O 0.79645 0.68069 0.01753 0.0
O403 O 0.76247 0.68936 0.99676 0.0
C404 C 0.67986 0.60336 0.93499 0.0
C405 C 0.69489 0.59942 0.91545 0.0
H406 H 0.72993 0.59603 0.88166 0.0
H407 H 0.77405 0.6201 0.88549 0.0
H408 H 0.67782 0.64523 0.01056 0.0
H409 H 0.65699 0.61539 0.97603 0.0
H410 H 0.66071 0.59287 0.9345 0.0
H411 H 0.68708 0.58594 0.90023 0.0
Mn412 Mn 0.92649 0.02115 0.26755 0.0
Mn413 Mn 0.9415 0.96192 0.26459 0.0
C414 C 0.89655 0.98635 0.25091 0.0
C415 C 0.90847 0.05606 0.28662 0.0
C416 C 0.96185 0.99697 0.23152 0.0
O417 O 0.95684 0.02568 0.29263 0.0
O418 O 0.96449 0.9854 0.28857 0.0
C419 C 0.92706 0.95303 0.31167 0.0
N420 N 0.92477 0.94595 0.28802 0.0
C421 C 0.89666 0.90819 0.29118 0.0
C422 C 0.89884 0.91502 0.31556 0.0
C423 C 0.91404 0.93758 0.32584 0.0
C424 C 0.9101 0.92434 0.27796 0.0
H425 H 0.93874 0.9703 0.31969 0.0
C426 C 0.96899 0.00834 0.2987 0.0
O427 O 0.9255 0.05841 0.27121 0.0
O428 O 0.90253 0.03372 0.29156 0.0
N429 N 0.92032 0.93682 0.24258 0.0
C430 C 0.91855 0.93395 0.21883 0.0
C431 C 0.9039 0.91241 0.20586 0.0
C432 C 0.89099 0.89418 0.21744 0.0
C433 C 0.89263 0.89779 0.24189 0.0
C434 C 0.90792 0.9194 0.25389 0.0
H435 H 0.92807 0.94806 0.20988 0.0
O436 O 0.89503 0.00828 0.24515 0.0
O437 O 0.91574 0.98539 0.26558 0.0
O438 O 0.95136 0.01603 0.24054 0.0
O439 O 0.95926 0.9762 0.23939 0.0
C440 C 0.87939 0.88098 0.25483 0.0
C441 C 0.88132 0.88622 0.27946 0.0
H442 H 0.88876 0.90319 0.32655 0.0
H443 H 0.91576 0.94302 0.34464 0.0
H444 H 0.90248 0.90992 0.18697 0.0
H445 H 0.87957 0.87765 0.20739 0.0
H446 H 0.86732 0.86417 0.24602 0.0
H447 H 0.87071 0.87337 0.28922 0.0
Mn448 Mn 0.30188 0.13776 0.49637 0.0
Mn449 Mn 0.24685 0.15312 0.47249 0.0
C450 C 0.26186 0.11515 0.50058 0.0
C451 C 0.33964 0.11823 0.49896 0.0
C452 C 0.27288 0.18154 0.51738 0.0
O453 O 0.31588 0.15792 0.47161 0.0
O454 O 0.27833 0.17056 0.46048 0.0
C455 C 0.25242 0.12863 0.42396 0.0
N456 N 0.23819 0.13167 0.44308 0.0
C457 C 0.20072 0.10673 0.42176 0.0
C458 C 0.21496 0.10331 0.40184 0.0
C459 C 0.24101 0.11409 0.40303 0.0
C460 C 0.21342 0.12061 0.44236 0.0
H461 H 0.27223 0.13742 0.42459 0.0
C462 C 0.30293 0.17081 0.45992 0.0
O463 O 0.337 0.13957 0.51135 0.0
O464 O 0.32034 0.10794 0.48414 0.0
N465 N 0.21449 0.13823 0.48165 0.0
C466 C 0.20323 0.14372 0.50226 0.0
C467 C 0.17742 0.13368 0.50421 0.0
C468 C 0.16307 0.11906 0.48468 0.0
C469 C 0.17472 0.11452 0.4634 0.0
C470 C 0.20081 0.1242 0.46274 0.0
H471 H 0.21392 0.15557 0.51715 0.0
O472 O 0.28121 0.11642 0.5158 0.0
O473 O 0.26616 0.12727 0.48319 0.0
O474 O 0.29255 0.16982 0.5159 0.0
O475 O 0.2533 0.17611 0.50277 0.0
C476 C 0.16126 0.10137 0.44265 0.0
C477 C 0.1743 0.09731 0.42188 0.0
H478 H 0.20605 0.09255 0.38553 0.0
H479 H 0.25213 0.11159 0.38772 0.0
H480 H 0.16848 0.13757 0.52063 0.0
H481 H 0.14301 0.11174 0.48612 0.0
H482 H 0.14097 0.09395 0.44255 0.0
H483 H 0.16385 0.0868 0.40613 0.0
Mn484 Mn 0.42672 0.51679 0.77755 0.0
Mn485 Mn 0.44596 0.45891 0.76883 0.0
C486 C 0.40224 0.4841 0.7523 0.0
C487 C 0.40459 0.54818 0.79716 0.0
C488 C 0.47029 0.50165 0.74575 0.0
O489 O 0.45206 0.51827 0.80584 0.0
O490 O 0.46332 0.47927 0.7983 0.0
C491 C 0.42278 0.44019 0.80947 0.0
N492 N 0.42512 0.43766 0.78598 0.0
C493 C 0.39853 0.39744 0.77955 0.0
C494 C 0.39588 0.39959 0.80366 0.0
C495 C 0.40788 0.42116 0.81867 0.0
C496 C 0.41301 0.41732 0.77133 0.0
H497 H 0.43231 0.45652 0.82115 0.0
C498 C 0.4644 0.50085 0.81125 0.0
O499 O 0.42455 0.55349 0.78544 0.0
O500 O 0.39774 0.52458 0.79815 0.0
N501 N 0.43071 0.4365 0.7415 0.0
C502 C 0.43612 0.43667 0.71878 0.0
C503 C 0.42534 0.41651 0.70151 0.0
C504 C 0.40963 0.39607 0.70782 0.0
C505 C 0.40505 0.39587 0.73139 0.0
C506 C 0.41606 0.41665 0.7478 0.0
H507 H 0.44827 0.4522 0.71378 0.0
O508 O 0.40069 0.50731 0.75024 0.0
O509 O 0.41817 0.48054 0.76897 0.0
O510 O 0.45663 0.51781 0.7555 0.0
O511 O 0.46815 0.47902 0.74964 0.0
C512 C 0.39064 0.37554 0.73929 0.0
C513 C 0.38762 0.37621 0.76337 0.0
H514 H 0.38471 0.38478 0.81085 0.0
H515 H 0.40593 0.42298 0.83731 0.0
H516 H 0.4292 0.4167 0.68339 0.0
H517 H 0.40146 0.38048 0.69447 0.0
H518 H 0.38196 0.3592 0.72701 0.0
H519 H 0.37655 0.36043 0.76925 0.0
Mn520 Mn 0.77397 0.36105 0.52619 0.0
Mn521 Mn 0.76314 0.38568 0.47734 0.0
C522 C 0.75383 0.33577 0.49229 0.0
C523 C 0.79599 0.34074 0.55233 0.0
C524 C 0.73313 0.39655 0.52051 0.0
O525 O 0.80082 0.39298 0.53108 0.0
O526 O 0.79282 0.40623 0.49679 0.0
C527 C 0.8114 0.37843 0.45355 0.0
N528 N 0.78511 0.37381 0.4537 0.0
C529 C 0.78169 0.35135 0.41429 0.0
C530 C 0.8087 0.35611 0.41364 0.0
C531 C 0.82362 0.36953 0.43342 0.0
C532 C 0.7706 0.36064 0.43485 0.0
H533 H 0.82294 0.38901 0.4686 0.0
C534 C 0.80587 0.40801 0.51639 0.0
O535 O 0.77912 0.35553 0.55881 0.0
O536 O 0.80161 0.33874 0.53054 0.0
N537 N 0.73518 0.36666 0.45711 0.0
C538 C 0.70934 0.3639 0.46051 0.0
C539 C 0.69179 0.35027 0.4426 0.0
C540 C 0.70094 0.33981 0.42134 0.0
C541 C 0.7276 0.34312 0.41817 0.0
C542 C 0.74418 0.3568 0.43667 0.0
H543 H 0.70217 0.372 0.47677 0.0
O544 O 0.74938 0.32989 0.51269 0.0
O545 O 0.76881 0.35667 0.49248 0.0
O546 O 0.74431 0.38211 0.5316 0.0
O547 O 0.73874 0.39963 0.49993 0.0
C548 C 0.73835 0.33341 0.39736 0.0
C549 C 0.76534 0.3377 0.39536 0.0
H550 H 0.8182 0.34933 0.39811 0.0
H551 H 0.84449 0.37316 0.43309 0.0
H552 H 0.67124 0.34784 0.44517 0.0
H553 H 0.68735 0.3293 0.40757 0.0
H554 H 0.72602 0.32271 0.38277 0.0
H555 H 0.77337 0.33024 0.37923 0.0
Mn556 Mn 0.66106 0.01817 0.7465 0.0
Mn557 Mn 0.64947 0.0786 0.75821 0.0
C558 C 0.69169 0.05071 0.73916 0.0
C559 C 0.67833 0.9839 0.75845 0.0
C560 C 0.62445 0.04162 0.71583 0.0
O561 O 0.63163 0.01639 0.76898 0.0
O562 O 0.6276 0.05766 0.77669 0.0
C563 C 0.6692 0.09112 0.80781 0.0
N564 N 0.66958 0.09605 0.78556 0.0
C565 C 0.70111 0.13267 0.79737 0.0
C566 C 0.70098 0.12805 0.82043 0.0
C567 C 0.685 0.10715 0.82566 0.0
C568 C 0.68485 0.11612 0.78034 0.0
H569 H 0.65695 0.07508 0.81191 0.0
C570 C 0.62162 0.03492 0.77988 0.0
O571 O 0.66122 0.98074 0.74093 0.0
O572 O 0.6847 1.00666 0.76941 0.0
N573 N 0.66972 0.10108 0.74175 0.0
C574 C 0.66906 0.10178 0.7184 0.0
C575 C 0.6846 0.12107 0.71013 0.0
C576 C 0.70056 0.13949 0.72595 0.0
C577 C 0.70093 0.13838 0.74989 0.0
C578 C 0.68486 0.11884 0.75714 0.0
H579 H 0.65684 0.08766 0.70616 0.0
O580 O 0.69173 0.02794 0.72836 0.0
O581 O 0.67372 0.05378 0.75374 0.0
O582 O 0.63545 0.02266 0.71944 0.0
O583 O 0.62828 0.0627 0.72961 0.0
C584 C 0.71704 0.15559 0.7668 0.0
C585 C 0.71715 0.15272 0.79052 0.0
H586 H 0.71324 0.14028 0.83423 0.0
H587 H 0.68487 0.1034 0.8434 0.0
H588 H 0.68434 0.12172 0.6916 0.0
H589 H 0.71263 0.15427 0.7195 0.0
H590 H 0.72975 0.17084 0.7617 0.0
H591 H 0.72993 0.16582 0.8033 0.0
Mn592 Mn 0.05598 0.23656 0.88428 0.0
Mn593 Mn 0.99355 0.23124 0.89839 0.0
C594 C 0.02381 0.21183 0.85878 0.0
C595 C 0.09145 0.25572 0.86706 0.0
C596 C 0.03355 0.20369 0.91938 0.0
O597 O 0.05571 0.26733 0.90953 0.0
O598 O 0.01372 0.26145 0.91804 0.0
C599 C 0.97836 0.27687 0.88254 0.0
N600 N 0.9748 0.25145 0.88146 0.0
C601 C 0.93612 0.24723 0.85619 0.0
C602 C 0.93931 0.27337 0.85709 0.0
C603 C 0.96066 0.28822 0.87015 0.0
C604 C 0.95472 0.23693 0.86844 0.0
H605 H 0.99444 0.28842 0.89293 0.0
C606 C 0.03654 0.2738 0.92098 0.0
O607 O 0.09451 0.24273 0.88365 0.0
O608 O 0.06782 0.25826 0.86086 0.0
N609 N 0.97164 0.20314 0.88065 0.0
C610 C 0.97138 0.1782 0.88152 0.0
C611 C 0.95187 0.16068 0.86857 0.0
C612 C 0.93253 0.16902 0.85526 0.0
C613 C 0.9329 0.19481 0.85503 0.0
C614 C 0.95307 0.21135 0.86797 0.0
H615 H 0.98607 0.1717 0.89184 0.0
O616 O 0.04772 0.20743 0.85805 0.0
O617 O 0.01932 0.23016 0.8747 0.0
O618 O 0.0527 0.2128 0.90896 0.0
O619 O 0.01068 0.20924 0.9164 0.0
C620 C 0.91377 0.20478 0.84282 0.0
C621 C 0.91517 0.231 0.8437 0.0
H622 H 0.92554 0.28221 0.84776 0.0
H623 H 0.96328 0.30841 0.8709 0.0
H624 H 0.95166 0.14082 0.86893 0.0
H625 H 0.91741 0.15546 0.84543 0.0
H626 H 0.89782 0.19247 0.8328 0.0
H627 H 0.90033 0.23845 0.83426 0.0
Mn628 Mn 0.54641 0.72659 0.38295 0.0
Mn629 Mn 0.4894 0.71965 0.40777 0.0
C630 C 0.5101 0.70397 0.36136 0.0
C631 C 0.57628 0.74848 0.362 0.0
C632 C 0.53465 0.6921 0.41899 0.0
O633 O 0.55108 0.75462 0.41144 0.0
O634 O 0.5106 0.75113 0.42409 0.0
C635 C 0.46529 0.76332 0.39681 0.0
N636 N 0.46481 0.73797 0.39497 0.0
C637 C 0.42209 0.7305 0.37569 0.0
C638 C 0.42197 0.75654 0.37767 0.0
C639 C 0.44377 0.77301 0.38807 0.0
C640 C 0.4441 0.72196 0.38466 0.0
H641 H 0.48186 0.77607 0.40505 0.0
C642 C 0.53382 0.76248 0.42478 0.0
O643 O 0.58337 0.73334 0.3755 0.0
O644 O 0.55201 0.7517 0.3614 0.0
N645 N 0.46736 0.69013 0.39277 0.0
C646 C 0.47088 0.66555 0.39164 0.0
C647 C 0.45156 0.64664 0.38035 0.0
C648 C 0.42872 0.65318 0.3706 0.0
C649 C 0.42548 0.6786 0.3721 0.0
C650 C 0.44556 0.69662 0.38327 0.0
H651 H 0.48833 0.66039 0.39919 0.0
O652 O 0.53323 0.70015 0.35552 0.0
O653 O 0.50904 0.72062 0.37987 0.0
O654 O 0.54918 0.69968 0.40378 0.0
O655 O 0.51258 0.69939 0.42255 0.0
C656 C 0.40311 0.68677 0.36299 0.0
C657 C 0.40126 0.71269 0.36509 0.0
H658 H 0.40539 0.76407 0.37098 0.0
H659 H 0.44392 0.79312 0.3895 0.0
H660 H 0.45422 0.62707 0.37925 0.0
H661 H 0.4138 0.63854 0.36201 0.0
H662 H 0.38718 0.67327 0.35439 0.0
H663 H 0.38392 0.71874 0.35809 0.0
Mn664 Mn 0.02372 0.76872 0.64607 0.0
Mn665 Mn 0.99364 0.71566 0.66192 0.0
C666 C 0.0201 0.72996 0.62098 0.0
C667 C 0.02491 0.80426 0.62741 0.0
C668 C 0.04758 0.73913 0.68093 0.0
O669 O 1.0018 0.78292 0.67256 0.0
O670 O 0.98411 0.74596 0.68161 0.0
C671 C 0.93982 0.72199 0.64779 0.0
N672 N 0.95977 0.70792 0.64645 0.0
C673 C 0.93377 0.67396 0.62081 0.0
C674 C 0.91293 0.68806 0.62198 0.0
C675 C 0.91601 0.71221 0.63548 0.0
C676 C 0.95705 0.68472 0.63343 0.0
H677 H 0.94205 0.74054 0.65816 0.0
C678 C 0.98716 0.77004 0.68476 0.0
O679 O 0.04204 0.80294 0.64389 0.0
O680 O 1.00636 0.78563 0.62255 0.0
N681 N 1.00065 0.68477 0.64407 0.0
C682 C 0.02296 0.67408 0.64396 0.0
C683 C 0.02313 0.64983 0.63135 0.0
C684 C 1.00039 0.63687 0.61899 0.0
C685 C 0.97776 0.64835 0.61914 0.0
C686 C 0.97864 0.67237 0.63234 0.0
H687 H 0.04044 0.68393 0.6535 0.0
O688 O 0.03863 0.74771 0.61921 0.0
O689 O 1.00495 0.73514 0.63769 0.0
O690 O 0.04831 0.75804 0.67032 0.0
O691 O 0.02842 0.72165 0.67848 0.0
C692 C 0.95442 0.63697 0.6066 0.0
C693 C 0.93247 0.64982 0.60735 0.0
H694 H 0.89455 0.6806 0.61247 0.0
H695 H 0.90004 0.72323 0.63642 0.0
H696 H 0.04073 0.64114 0.63118 0.0
H697 H 1.00053 0.61813 0.60932 0.0
H698 H 0.95324 0.61848 0.59609 0.0
H699 H 0.91474 0.64103 0.59738 0.0
Mn700 Mn 0.52077 0.27352 0.15166 0.0
Mn701 Mn 0.49455 0.21912 0.16781 0.0
C702 C 0.51704 0.23531 0.12586 0.0
C703 C 0.51927 0.3092 0.13344 0.0
C704 C 0.54874 0.24428 0.1843 0.0
O705 O 0.50018 0.28638 0.17974 0.0
O706 O 0.48471 0.24859 0.18854 0.0
C707 C 0.4393 0.22313 0.15677 0.0
N708 N 0.45997 0.21009 0.15404 0.0
C709 C 0.43403 0.17548 0.12915 0.0
C710 C 0.41245 0.1885 0.13178 0.0
C711 C 0.41513 0.21246 0.1456 0.0
C712 C 0.45762 0.18706 0.14073 0.0
H713 H 0.44123 0.24154 0.16738 0.0
C714 C 0.48675 0.27265 0.19214 0.0
O715 O 0.53777 0.30792 0.14872 0.0
O716 O 0.50068 0.29052 0.12988 0.0
N717 N 0.50203 0.18901 0.1489 0.0
C718 C 0.52501 0.17955 0.1471 0.0
C719 C 0.52571 0.15575 0.13378 0.0
C720 C 0.5028 0.14196 0.12242 0.0
C721 C 0.47945 0.15218 0.12433 0.0
C722 C 0.47986 0.17581 0.13815 0.0
H723 H 0.54265 0.19008 0.15577 0.0
O724 O 0.53456 0.25371 0.12351 0.0
O725 O 0.50287 0.23951 0.1435 0.0
O726 O 0.54779 0.26327 0.17403 0.0
O727 O 0.5302 0.22627 0.18265 0.0
C728 C 0.45583 0.13997 0.11284 0.0
C729 C 0.43315 0.15165 0.11519 0.0
H730 H 0.39379 0.18037 0.12313 0.0
H731 H 0.39859 0.22267 0.14765 0.0
H732 H 0.54386 0.14805 0.13225 0.0
H733 H 0.50339 0.12361 0.11213 0.0
H734 H 0.45497 0.12175 0.10191 0.0
H735 H 0.41519 0.14224 0.10601 0.0
H736 H 0.22539 0.72555 0.87876 0.0
H737 H 0.30596 0.74082 0.86338 0.0
H738 H 0.31235 0.77716 0.89527 0.0
H739 H 0.214 0.79036 0.89427 0.0
H740 H 0.19467 0.78592 0.91863 0.0
H741 H 0.19471 0.76061 0.89447 0.0
H742 H 0.20877 0.73106 0.9215 0.0
H743 H 0.20786 0.7554 0.94631 0.0
H744 H 0.23696 0.74103 0.94147 0.0
H745 H 0.31165 0.80903 0.92974 0.0
H746 H 0.30323 0.83845 0.96424 0.0
H747 H 0.22258 0.8053 0.95873 0.0
C748 C 0.24421 0.73684 0.88202 0.0
C749 C 0.26526 0.73044 0.86862 0.0
C750 C 0.2897 0.74538 0.87349 0.0
C751 C 0.2935 0.76604 0.89155 0.0
C752 C 0.27267 0.77158 0.90475 0.0
C753 C 0.24845 0.75762 0.9003 0.0
C754 C 0.22982 0.7676 0.91794 0.0
C755 C 0.20694 0.77669 0.90561 0.0
C756 C 0.22029 0.74758 0.93267 0.0
C757 C 0.2474 0.78942 0.93276 0.0
C758 C 0.27206 0.79096 0.92476 0.0
C759 C 0.29233 0.80834 0.93592 0.0
C760 C 0.28729 0.82505 0.9555 0.0
C761 C 0.26209 0.82476 0.96371 0.0
C762 C 0.24189 0.8063 0.9525 0.0
H763 H 0.01672 0.50833 0.369 0.0
H764 H 0.05353 0.56993 0.42146 0.0
H765 H 0.09248 0.57259 0.39874 0.0
H766 H 0.07644 0.48012 0.35276 0.0
H767 H 0.06546 0.47268 0.32229 0.0
H768 H 0.04226 0.47293 0.34442 0.0
H769 H 0.01884 0.50477 0.32545 0.0
H770 H 0.04196 0.5047 0.30336 0.0
H771 H 0.037 0.53391 0.32102 0.0
H772 H 0.12425 0.57297 0.3677 0.0
H773 H 0.14735 0.57017 0.33152 0.0
H774 H 0.09056 0.508 0.29877 0.0
C775 C 0.03312 0.52215 0.37594 0.0
C776 C 0.03198 0.53897 0.3971 0.0
C777 C 0.05398 0.55662 0.40555 0.0
C778 C 0.07617 0.55833 0.39267 0.0
C779 C 0.07622 0.54207 0.3715 0.0
C780 C 0.05536 0.52412 0.3633 0.0
C781 C 0.05943 0.51029 0.33915 0.0
C782 C 0.061 0.48234 0.3397 0.0
C783 C 0.03804 0.51363 0.32119 0.0
C784 C 0.08547 0.52389 0.33462 0.0
C785 C 0.09487 0.54199 0.35364 0.0
C786 C 0.11735 0.55851 0.35294 0.0
C787 C 0.13033 0.55681 0.33224 0.0
C788 C 0.12101 0.53862 0.31243 0.0
C789 C 0.09853 0.5216 0.31385 0.0
H790 H 0.83715 0.79877 0.89033 0.0
H791 H 0.86738 0.74674 0.83659 0.0
H792 H 0.86761 0.71627 0.86344 0.0
H793 H 0.86787 0.78189 0.94136 0.0
H794 H 0.8395 0.78343 0.95791 0.0
H795 H 0.84504 0.80296 0.93582 0.0
H796 H 0.80004 0.78478 0.91517 0.0
H797 H 0.79421 0.76558 0.93742 0.0
H798 H 0.79189 0.7512 0.9071 0.0
H799 H 0.86344 0.69024 0.89615 0.0
H800 H 0.84822 0.66889 0.92869 0.0
H801 H 0.8153 0.73521 0.95843 0.0
C802 C 0.84368 0.78103 0.88378 0.0
C803 C 0.85279 0.77594 0.861 0.0
C804 C 0.86126 0.75211 0.854 0.0
C805 C 0.8613 0.73436 0.86917 0.0
C806 C 0.85228 0.74017 0.89134 0.0
C807 C 0.84307 0.76273 0.8984 0.0
C808 C 0.83171 0.76332 0.92207 0.0
C809 C 0.84694 0.78414 0.94037 0.0
C810 C 0.80275 0.76639 0.92033 0.0
C811 C 0.83571 0.73746 0.92711 0.0
C812 C 0.84827 0.72463 0.90947 0.0
C813 C 0.85372 0.7002 0.9101 0.0
C814 C 0.8453 0.68829 0.92877 0.0
C815 C 0.83116 0.70062 0.94628 0.0
C816 C 0.82667 0.72563 0.94555 0.0
H817 H 0.0466 0.96432 0.40244 0.0
H818 H 0.05768 0.04111 0.43919 0.0
H819 H 0.03622 0.05476 0.40526 0.0
H820 H 0.0584 0.97907 0.34509 0.0
H821 H 0.03429 0.95415 0.33056 0.0
H822 H 0.05083 0.95094 0.35759 0.0
H823 H 1.00667 0.9428 0.37586 0.0
H824 H 0.99003 0.94583 0.34885 0.0
H825 H 0.98401 0.96531 0.37565 0.0
H826 H 0.01045 0.05907 0.36694 0.0
H827 H 0.98468 0.05343 0.32899 0.0
H828 H 0.99345 0.97409 0.31798 0.0
C829 C 0.04444 0.98401 0.40344 0.0
C830 C 0.05366 1.0016 0.4236 0.0
C831 C 0.05083 0.02728 0.42393 0.0
C832 C 0.03862 0.03519 0.40474 0.0
C833 C 0.02961 0.01726 0.38516 0.0
C834 C 0.03261 0.99221 0.38443 0.0
C835 C 0.02131 0.97647 0.36159 0.0
C836 C 0.04248 0.96446 0.3479 0.0
C837 C 0.9992 0.95643 0.36574 0.0
C838 C 0.01117 0.99642 0.34958 0.0
C839 C 0.01595 0.01987 0.3633 0.0
C840 C 0.00692 0.04078 0.35599 0.0
C841 C 0.99236 0.03745 0.33433 0.0
C842 C 0.9871 0.0134 0.32015 0.0
C843 C 0.99721 0.99289 0.32798 0.0
H844 H 0.22608 0.26105 0.63302 0.0
H845 H 0.30252 0.30461 0.63932 0.0
H846 H 0.31279 0.28108 0.60205 0.0
H847 H 0.24594 0.20247 0.60867 0.0
H848 H 0.21788 0.19224 0.5886 0.0
H849 H 0.2154 0.21341 0.61535 0.0
H850 H 0.19792 0.24514 0.59179 0.0
H851 H 0.20035 0.22404 0.56495 0.0
H852 H 0.21645 0.25588 0.56898 0.0
H853 H 0.31687 0.25129 0.56636 0.0
H854 H 0.31353 0.21721 0.53241 0.0
H855 H 0.23415 0.19312 0.54667 0.0
C856 C 0.24482 0.26575 0.62637 0.0
C857 C 0.26327 0.28508 0.63898 0.0
C858 C 0.28775 0.29044 0.62978 0.0
C859 C 0.29389 0.27705 0.60864 0.0
C860 C 0.27539 0.25827 0.59663 0.0
C861 C 0.25128 0.25263 0.60494 0.0
C862 C 0.23538 0.23099 0.5885 0.0
C863 C 0.22823 0.20844 0.60103 0.0
C864 C 0.21108 0.23953 0.57793 0.0
C865 C 0.25458 0.22519 0.57005 0.0
C866 C 0.27754 0.24122 0.57525 0.0
C867 C 0.29888 0.23883 0.56185 0.0
C868 C 0.29684 0.21941 0.54266 0.0
C869 C 0.27353 0.20281 0.53679 0.0
C870 C 0.252 0.20592 0.55051 0.0
H871 H 0.54751 0.4846 0.62816 0.0
H872 H 0.5683 0.56576 0.64128 0.0
H873 H 0.5454 0.56834 0.67735 0.0
H874 H 0.48436 0.48299 0.65045 0.0
H875 H 0.48662 0.45578 0.66419 0.0
H876 H 0.50452 0.45987 0.63894 0.0
H877 H 0.54716 0.45641 0.6621 0.0
H878 H 0.52938 0.45227 0.68742 0.0
H879 H 0.55615 0.47709 0.68948 0.0
H880 H 0.51855 0.56295 0.71128 0.0
H881 H 0.49116 0.54939 0.74171 0.0
H882 H 0.49043 0.47153 0.70951 0.0
C883 C 0.54744 0.50292 0.63866 0.0
C884 C 0.55936 0.52503 0.63121 0.0
C885 C 0.55866 0.54853 0.64579 0.0
C886 C 0.54589 0.55024 0.66661 0.0
C887 C 0.53411 0.52826 0.6732 0.0
C888 C 0.53495 0.50499 0.65984 0.0
C889 C 0.5208 0.48433 0.67127 0.0
C890 C 0.49771 0.46989 0.65525 0.0
C891 C 0.53949 0.46647 0.67796 0.0
C892 C 0.5117 0.49972 0.69289 0.0
C893 C 0.51953 0.52504 0.69353 0.0
C894 C 0.51252 0.54313 0.71109 0.0
C895 C 0.49689 0.53523 0.72834 0.0
C896 C 0.48854 0.50937 0.72822 0.0
C897 C 0.49649 0.49142 0.71033 0.0
H898 H 0.8803 0.24334 0.60039 0.0
H899 H 0.82355 0.23711 0.6527 0.0
H900 H 0.80236 0.27025 0.63865 0.0
H901 H 0.88348 0.30956 0.599 0.0
H902 H 0.88472 0.30604 0.5677 0.0
H903 H 0.89756 0.28368 0.58335 0.0
H904 H 0.86778 0.24727 0.55725 0.0
H905 H 0.85495 0.26947 0.54144 0.0
H906 H 0.83332 0.24831 0.55492 0.0
H907 H 0.78679 0.30375 0.61897 0.0
H908 H 0.77492 0.33214 0.59255 0.0
H909 H 0.83784 0.31313 0.54933 0.0
C910 C 0.86327 0.24849 0.60892 0.0
C911 C 0.85405 0.23728 0.62806 0.0
C912 C 0.83185 0.24553 0.63861 0.0
C913 C 0.81939 0.26433 0.63057 0.0
C914 C 0.8289 0.27455 0.61162 0.0
C915 C 0.85008 0.26669 0.60067 0.0
C916 C 0.85515 0.27943 0.5795 0.0
C917 C 0.88181 0.29564 0.58258 0.0
C918 C 0.85264 0.25996 0.55694 0.0
C919 C 0.83338 0.29566 0.58022 0.0
C920 C 0.81884 0.29283 0.59921 0.0
C921 C 0.79796 0.30601 0.604 0.0
C922 C 0.79145 0.32222 0.58885 0.0
C923 C 0.8054 0.32492 0.56876 0.0
C924 C 0.82678 0.31147 0.56448 0.0
H925 H 0.5356 0.98173 0.59722 0.0
H926 H 0.52229 0.05846 0.59355 0.0
H927 H 0.54903 0.07335 0.62994 0.0
H928 H 0.53588 0.98692 0.66037 0.0
H929 H 0.56188 0.96828 0.66282 0.0
H930 H 0.5409 0.96279 0.63651 0.0
H931 H 0.58074 0.96939 0.61206 0.0
H932 H 0.60185 0.9749 0.63829 0.0
H933 H 0.60302 0.99804 0.61918 0.0
H934 H 0.57659 0.08076 0.66609 0.0
H935 H 0.60511 0.08082 0.70057 0.0
H936 H 0.6038 0.99986 0.68225 0.0
C937 C 0.53831 1.00165 0.6041 0.0
C938 C 0.52607 0.01876 0.59259 0.0
C939 C 0.53044 0.04472 0.60222 0.0
C940 C 0.54592 0.05349 0.62287 0.0
C941 C 0.55735 0.03624 0.63381 0.0
C942 C 0.55399 0.01089 0.62486 0.0
C943 C 0.56919 0.99674 0.64029 0.0
C944 C 0.55086 0.97754 0.65061 0.0
C945 C 0.58993 0.98401 0.62664 0.0
C946 C 0.5815 0.01819 0.65922 0.0
C947 C 0.57417 0.0407 0.65494 0.0
C948 C 0.58251 0.06327 0.66966 0.0
C949 C 0.59879 0.06301 0.68935 0.0
C950 C 0.60691 0.04033 0.69443 0.0
C951 C 0.5981 0.01754 0.67898 0.0
H952 H 0.92971 0.21636 0.74742 0.0
H953 H 0.90894 0.13601 0.74336 0.0
H954 H 0.9419 0.13598 0.77521 0.0
H955 H 1.002 0.21616 0.76489 0.0
H956 H 1.00316 0.24628 0.78339 0.0
H957 H 0.98203 0.23876 0.75711 0.0
H958 H 0.94581 0.25087 0.78198 0.0
H959 H 0.9634 0.25439 0.80994 0.0
H960 H 0.93437 0.23199 0.8029 0.0
H961 H 0.97596 0.14479 0.80847 0.0
H962 H 1.00646 0.16246 0.84274 0.0
H963 H 1.00116 0.2376 0.82862 0.0
C964 C 0.93283 0.19867 0.7527 0.0
C965 C 0.91691 0.17615 0.74286 0.0
C966 C 0.92099 0.15344 0.75067 0.0
C967 C 0.93972 0.15322 0.76867 0.0
C968 C 0.95443 0.17585 0.77866 0.0
C969 C 0.95152 0.19814 0.77077 0.0
C970 C 0.96831 0.22012 0.7859 0.0
C971 C 0.99017 0.23096 0.77199 0.0
C972 C 0.95207 0.24058 0.79586 0.0
C973 C 0.97922 0.20698 0.80465 0.0
C974 C 0.97206 0.18129 0.7994 0.0
C975 C 0.98145 0.1649 0.81294 0.0
C976 C 0.99863 0.17503 0.83238 0.0
C977 C 1.00514 0.20131 0.83875 0.0
C978 C 0.99551 0.21746 0.82458 0.0
H979 H 0.49937 0.89435 0.48648 0.0
H980 H 0.58114 0.92194 0.48847 0.0
H981 H 0.59094 0.87848 0.477 0.0
H982 H 0.50671 0.83193 0.50573 0.0
H983 H 0.48017 0.81593 0.48582 0.0
H984 H 0.48016 0.84837 0.4987 0.0
H985 H 0.47472 0.85998 0.45737 0.0
H986 H 0.47503 0.82774 0.44437 0.0
H987 H 0.49798 0.852 0.43627 0.0
H988 H 0.5911 0.83348 0.45892 0.0
H989 H 0.58174 0.7902 0.43703 0.0
H990 H 0.49979 0.79143 0.44711 0.0
C991 C 0.51939 0.891 0.48553 0.0
C992 C 0.5396 0.9113 0.48885 0.0
C993 C 0.5655 0.90649 0.48642 0.0
C994 C 0.57122 0.88189 0.47988 0.0
C995 C 0.55079 0.86227 0.47584 0.0
C996 C 0.52539 0.86649 0.47883 0.0
C997 C 0.50682 0.84256 0.47086 0.0
C998 C 0.49263 0.83421 0.49151 0.0
C999 C 0.48751 0.84578 0.45104 0.0
C1000 C 0.52563 0.82455 0.46212 0.0
C1001 C 0.55092 0.83618 0.46536 0.0
C1002 C 0.57142 0.82399 0.45675 0.0
C1003 C 0.5659 0.7994 0.44425 0.0
C1004 C 0.54006 0.78719 0.44044 0.0
C1005 C 0.51983 0.79992 0.45 0.0
H1006 H 0.17221 0.27436 0.75624 0.0
H1007 H 0.24069 0.29164 0.80384 0.0
H1008 H 0.21315 0.29312 0.83746 0.0
H1009 H 0.12898 0.3125 0.79451 0.0
H1010 H 0.10114 0.28913 0.78582 0.0
H1011 H 0.12592 0.29392 0.76568 0.0
H1012 H 0.13116 0.24666 0.76077 0.0
H1013 H 0.10671 0.24177 0.78107 0.0
H1014 H 0.13845 0.23301 0.78623 0.0
H1015 H 0.17922 0.28513 0.86528 0.0
H1016 H 0.14065 0.27176 0.88578 0.0
H1017 H 0.09318 0.26123 0.82091 0.0
C1018 C 0.18123 0.27961 0.77378 0.0
C1019 C 0.20852 0.28353 0.77756 0.0
C1020 C 0.21981 0.28918 0.80069 0.0
C1021 C 0.20431 0.28994 0.81985 0.0
C1022 C 0.17747 0.2851 0.81564 0.0
C1023 C 0.16592 0.28046 0.79319 0.0
C1024 C 0.13677 0.27362 0.79352 0.0
C1025 C 0.12235 0.29348 0.78434 0.0
C1026 C 0.12776 0.2472 0.77957 0.0
C1027 C 0.1339 0.27424 0.81951 0.0
C1028 C 0.15764 0.281 0.83193 0.0
C1029 C 0.16042 0.28046 0.85583 0.0
C1030 C 0.13845 0.27274 0.86733 0.0
C1031 C 0.1139 0.26591 0.85504 0.0
C1032 C 0.11159 0.26705 0.83087 0.0
H1033 H 0.54972 0.62924 0.53341 0.0
H1034 H 0.60314 0.58371 0.4978 0.0
H1035 H 0.59409 0.6008 0.46153 0.0
H1036 H 0.50238 0.62442 0.48204 0.0
H1037 H 0.49596 0.65631 0.49063 0.0
H1038 H 0.50454 0.63817 0.51253 0.0
H1039 H 0.54229 0.6731 0.52879 0.0
H1040 H 0.53414 0.69114 0.50674 0.0
H1041 H 0.5664 0.68274 0.50955 0.0
H1042 H 0.58369 0.62786 0.43101 0.0
H1043 H 0.56902 0.65832 0.4075 0.0
H1044 H 0.52068 0.68458 0.46269 0.0
C1045 C 0.55882 0.62226 0.51771 0.0
C1046 C 0.57686 0.6049 0.51823 0.0
C1047 C 0.58888 0.59659 0.49758 0.0
C1048 C 0.58399 0.60638 0.477 0.0
C1049 C 0.56673 0.62417 0.47729 0.0
C1050 C 0.55388 0.63158 0.49701 0.0
C1051 C 0.53708 0.65166 0.49321 0.0
C1052 C 0.50828 0.64206 0.49468 0.0
C1053 C 0.54549 0.67609 0.5106 0.0
C1054 C 0.54299 0.65499 0.4685 0.0
C1055 C 0.56019 0.63905 0.4596 0.0
C1056 C 0.56984 0.64004 0.43768 0.0
C1057 C 0.56152 0.65754 0.4245 0.0
C1058 C 0.54352 0.67374 0.43311 0.0
C1059 C 0.53412 0.67222 0.4554 0.0
H1060 H 0.88447 0.77109 0.78258 0.0
H1061 H 0.90059 0.85248 0.79675 0.0
H1062 H 0.93164 0.85126 0.76573 0.0
H1063 H 0.94969 0.75976 0.7725 0.0
H1064 H 0.94005 0.73319 0.74969 0.0
H1065 H 0.91874 0.74083 0.77256 0.0
H1066 H 0.88217 0.7432 0.74155 0.0
H1067 H 0.9034 0.73561 0.71859 0.0
H1068 H 0.88811 0.76378 0.72035 0.0
H1069 H 0.96201 0.84048 0.73258 0.0
H1070 H 0.98791 0.82111 0.70138 0.0
H1071 H 0.95157 0.74725 0.71047 0.0
C1072 C 0.89461 0.78869 0.77931 0.0
C1073 C 0.88991 0.81188 0.79217 0.0
C1074 C 0.90346 0.83446 0.78698 0.0
C1075 C 0.92131 0.83395 0.76945 0.0
C1076 C 0.92549 0.81073 0.75717 0.0
C1077 C 0.91245 0.78854 0.76195 0.0
C1078 C 0.92037 0.76598 0.74651 0.0
C1079 C 0.93296 0.74895 0.76119 0.0
C1080 C 0.89713 0.75129 0.73082 0.0
C1081 C 0.93998 0.77886 0.73235 0.0
C1082 C 0.94276 0.80467 0.73859 0.0
C1083 C 0.95994 0.82025 0.72762 0.0
C1084 C 0.97459 0.80911 0.70989 0.0
C1085 C 0.97202 0.78262 0.70337 0.0
C1086 C 0.95434 0.76755 0.71491 0.0
H1087 H 0.04841 0.8552 0.50836 0.0
H1088 H 0.04664 0.93122 0.54463 0.0
H1089 H 0.04256 0.91474 0.58189 0.0
H1090 H 0.99762 0.82769 0.53838 0.0
H1091 H 0.01112 0.79868 0.5381 0.0
H1092 H 0.01755 0.81697 0.51524 0.0
H1093 H 0.06696 0.81859 0.52417 0.0
H1094 H 0.0607 0.80019 0.54699 0.0
H1095 H 0.08079 0.83022 0.55345 0.0
H1096 H 0.03802 0.88837 0.61579 0.0
H1097 H 0.03076 0.8556 0.64114 0.0
H1098 H 0.02841 0.79756 0.58048 0.0
C1099 C 0.04686 0.86865 0.52393 0.0
C1100 C 0.04754 0.8947 0.52313 0.0
C1101 C 0.04646 0.91127 0.54448 0.0
C1102 C 0.04392 0.902 0.56579 0.0
C1103 C 0.04215 0.87606 0.56555 0.0
C1104 C 0.04341 0.8597 0.54501 0.0
C1105 C 0.0392 0.83255 0.54867 0.0
C1106 C 0.01493 0.81813 0.53424 0.0
C1107 C 0.06335 0.81964 0.54299 0.0
C1108 C 0.03521 0.83596 0.57454 0.0
C1109 C 0.03753 0.86116 0.58422 0.0
C1110 C 0.03585 0.86866 0.60822 0.0
C1111 C 0.03168 0.84997 0.62249 0.0
C1112 C 0.02845 0.82415 0.61263 0.0
C1113 C 0.03017 0.8172 0.58836 0.0
H1114 H 0.15164 0.66955 0.74131 0.0
H1115 H 0.1905 0.74271 0.77359 0.0
H1116 H 0.15465 0.76276 0.7581 0.0
H1117 H 0.13068 0.68601 0.68988 0.0
H1118 H 0.0996 0.66671 0.68643 0.0
H1119 H 0.12611 0.65785 0.70277 0.0
H1120 H 0.09867 0.657 0.7388 0.0
H1121 H 0.07181 0.66535 0.72242 0.0
H1122 H 0.0837 0.68422 0.75007 0.0
H1123 H 0.11826 0.77486 0.73331 0.0
H1124 H 0.0812 0.77781 0.70616 0.0
H1125 H 0.06479 0.69646 0.69206 0.0
C1126 C 0.15204 0.68971 0.74584 0.0
C1127 C 0.17357 0.70463 0.75891 0.0
C1128 C 0.17387 0.73099 0.76404 0.0
C1129 C 0.15371 0.7425 0.75513 0.0
C1130 C 0.13322 0.72731 0.74146 0.0
C1131 C 0.13192 0.70141 0.73736 0.0
C1132 C 0.10853 0.68936 0.72123 0.0
C1133 C 0.11674 0.67409 0.69876 0.0
C1134 C 0.08955 0.67302 0.73389 0.0
C1135 C 0.0973 0.71251 0.71623 0.0
C1136 C 0.11185 0.73425 0.72795 0.0
C1137 C 0.10642 0.75794 0.72448 0.0
C1138 C 0.08545 0.75944 0.70888 0.0
C1139 C 0.06994 0.73739 0.69711 0.0
C1140 C 0.07599 0.71368 0.70104 0.0
H1141 H 0.02504 0.60501 0.52663 0.0
H1142 H 0.94146 0.60161 0.51884 0.0
H1143 H 0.94406 0.64306 0.54383 0.0
H1144 H 0.03335 0.62858 0.58342 0.0
H1145 H 0.0613 0.65209 0.58508 0.0
H1146 H 0.05689 0.62531 0.56199 0.0
H1147 H 0.05785 0.6509 0.52923 0.0
H1148 H 0.06562 0.67886 0.55088 0.0
H1149 H 0.03856 0.67629 0.52981 0.0
H1150 H 0.95474 0.68365 0.5696 0.0
H1151 H 0.97213 0.7191 0.60028 0.0
H1152 H 0.04882 0.69624 0.59551 0.0
C1153 C 0.00746 0.61338 0.52985 0.0
C1154 C 0.98301 0.60027 0.52075 0.0
C1155 C 0.96031 0.61144 0.52563 0.0
C1156 C 0.96162 0.63502 0.53965 0.0
C1157 C 0.98583 0.64736 0.54866 0.0
C1158 C 0.00842 0.63709 0.54407 0.0
C1159 C 0.03159 0.65381 0.55767 0.0
C1160 C 0.04665 0.63914 0.573 0.0
C1161 C 0.04946 0.66567 0.5409 0.0
C1162 C 0.01805 0.67378 0.57203 0.0
C1163 C 0.99186 0.67021 0.56547 0.0
C1164 C 0.97514 0.6865 0.57513 0.0
C1165 C 0.98516 0.70647 0.59267 0.0
C1166 C 0.01147 0.70966 0.60098 0.0
C1167 C 0.02844 0.69371 0.5899 0.0
H1168 H 0.78942 0.87862 0.18049 0.0
H1169 H 0.78991 0.8469 0.24478 0.0
H1170 H 0.81571 0.8852 0.26506 0.0
H1171 H 0.85227 0.90082 0.18512 0.0
H1172 H 0.85253 0.93104 0.17595 0.0
H1173 H 0.82698 0.90585 0.16521 0.0
H1174 H 0.79068 0.9298 0.17972 0.0
H1175 H 0.81437 0.95721 0.18852 0.0
H1176 H 0.79266 0.94652 0.20925 0.0
H1177 H 0.84147 0.92619 0.27909 0.0
H1178 H 0.87502 0.96299 0.28402 0.0
H1179 H 0.86583 0.96618 0.21007 0.0
C1180 C 0.79464 0.87967 0.19888 0.0
C1181 C 0.78639 0.85955 0.21096 0.0
C1182 C 0.79433 0.8621 0.23504 0.0
C1183 C 0.80931 0.8839 0.24688 0.0
C1184 C 0.8169 0.90315 0.23451 0.0
C1185 C 0.81029 0.90122 0.21097 0.0
C1186 C 0.82396 0.92355 0.20142 0.0
C1187 C 0.83995 0.91485 0.18075 0.0
C1188 C 0.80424 0.94026 0.19431 0.0
C1189 C 0.84086 0.93702 0.2229 0.0
C1190 C 0.83504 0.92562 0.24202 0.0
C1191 C 0.84662 0.93501 0.2642 0.0
C1192 C 0.86579 0.95579 0.26679 0.0
C1193 C 0.87395 0.96646 0.24724 0.0
C1194 C 0.8605 0.95775 0.22514 0.0
H1195 H 0.7869 0.12843 0.3192 0.0
H1196 H 0.84077 0.19647 0.34034 0.0
H1197 H 0.8776 0.17203 0.33316 0.0
H1198 H 0.82711 0.08638 0.34527 0.0
H1199 H 0.81731 0.06046 0.32186 0.0
H1200 H 0.79552 0.08311 0.33029 0.0
H1201 H 0.79165 0.09135 0.28766 0.0
H1202 H 0.81362 0.06896 0.27914 0.0
H1203 H 0.82059 0.10073 0.27361 0.0
H1204 H 0.9082 0.1409 0.31801 0.0
H1205 H 0.93027 0.10471 0.30168 0.0
H1206 H 0.85695 0.05609 0.29418 0.0
C1207 C 0.80649 0.13801 0.32288 0.0
C1208 C 0.81104 0.16433 0.33053 0.0
C1209 C 0.83689 0.1763 0.33485 0.0
C1210 C 0.8579 0.16257 0.33065 0.0
C1211 C 0.85278 0.13674 0.32257 0.0
C1212 C 0.82769 0.12447 0.3193 0.0
C1213 C 0.82741 0.09663 0.31026 0.0
C1214 C 0.81618 0.08071 0.32798 0.0
C1215 C 0.81243 0.08898 0.28624 0.0
C1216 C 0.85618 0.09522 0.30834 0.0
C1217 C 0.8705 0.11862 0.31529 0.0
C1218 C 0.89723 0.12241 0.31309 0.0
C1219 C 0.90961 0.1018 0.30372 0.0
C1220 C 0.89542 0.07756 0.29713 0.0
C1221 C 0.86839 0.0743 0.29967 0.0
H1222 H 0.41433 0.01768 0.97303 0.0
H1223 H 0.45989 0.01749 0.03725 0.0
H1224 H 0.42544 0.987 0.04893 0.0
H1225 H 0.35318 0.01553 0.99758 0.0
H1226 H 0.33608 0.99553 0.97245 0.0
H1227 H 0.36481 0.0163 0.9689 0.0
H1228 H 0.38584 0.97857 0.94831 0.0
H1229 H 0.35702 0.95775 0.95149 0.0
H1230 H 0.38805 0.95181 0.96273 0.0
H1231 H 0.38491 0.95576 0.0531 0.0
H1232 H 0.3435 0.92697 0.04884 0.0
H1233 H 0.32508 0.95038 0.98262 0.0
C1234 C 0.41736 0.01085 0.98934 0.0
C1235 C 0.43999 0.01967 1.00407 0.0
C1236 C 0.44276 0.01084 0.02563 0.0
C1237 C 0.42328 0.99357 0.0324 0.0
C1238 C 0.40103 0.9855 0.01754 0.0
C1239 C 0.39809 0.9939 0.99643 0.0
C1240 C 0.37227 0.98301 0.98373 0.0
C1241 C 0.35561 1.00384 0.98048 0.0
C1242 C 0.37603 0.96682 0.96018 0.0
C1243 C 0.36107 0.96706 1.00087 0.0
C1244 C 0.37782 0.96855 0.02027 0.0
C1245 C 0.37163 0.9546 0.03799 0.0
C1246 C 0.34798 0.93838 0.0355 0.0
C1247 C 0.33077 0.93638 0.01549 0.0
C1248 C 0.33747 0.9514 0.9983 0.0
H1249 H 0.28716 0.42664 0.33162 0.0
H1250 H 0.25312 0.35229 0.29744 0.0
H1251 H 0.22245 0.37147 0.27407 0.0
H1252 H 0.22933 0.4526 0.33785 0.0
H1253 H 0.24236 0.48332 0.33251 0.0
H1254 H 0.26327 0.4639 0.34452 0.0
H1255 H 0.29361 0.46723 0.31068 0.0
H1256 H 0.27297 0.48696 0.2987 0.0
H1257 H 0.28034 0.45874 0.28088 0.0
H1258 H 0.19257 0.3993 0.25724 0.0
H1259 H 0.16874 0.43294 0.24643 0.0
H1260 H 0.2227 0.48872 0.29211 0.0
C1261 C 0.27351 0.41437 0.31896 0.0
C1262 C 0.27255 0.38792 0.31637 0.0
C1263 C 0.25445 0.37257 0.29954 0.0
C1264 C 0.23683 0.38332 0.28632 0.0
C1265 C 0.23772 0.40947 0.28998 0.0
C1266 C 0.2559 0.42476 0.30568 0.0
C1267 C 0.25238 0.45221 0.30712 0.0
C1268 C 0.24648 0.46367 0.33197 0.0
C1269 C 0.27624 0.46716 0.29885 0.0
C1270 C 0.22902 0.45006 0.29011 0.0
C1271 C 0.22082 0.42529 0.28033 0.0
C1272 C 0.19905 0.41874 0.26466 0.0
C1273 C 0.18554 0.43798 0.25869 0.0
C1274 C 0.19382 0.46351 0.26837 0.0
C1275 C 0.21587 0.46944 0.28431 0.0
H1276 H 0.14837 1.00355 0.45297 0.0
H1277 H 0.11141 0.02343 0.51734 0.0
H1278 H 0.15002 0.05402 0.53271 0.0
H1279 H 0.21811 0.0138 0.48349 0.0
H1280 H 0.23106 0.02428 0.45792 0.0
H1281 H 0.20327 1.00041 0.45494 0.0
H1282 H 0.1815 0.02698 0.43076 0.0
H1283 H 0.20476 0.05495 0.43648 0.0
H1284 H 0.17159 0.0558 0.44427 0.0
H1285 H 0.19172 0.0844 0.53985 0.0
H1286 H 0.2317 0.11354 0.53747 0.0
H1287 H 0.23931 0.07651 0.46688 0.0
C1288 C 0.14892 0.01369 0.47064 0.0
C1289 C 0.12716 0.01103 0.48416 0.0
C1290 C 0.12812 0.02497 0.50696 0.0
C1291 C 0.14996 0.04236 0.51578 0.0
C1292 C 0.17084 0.04515 0.50173 0.0
C1293 C 0.17079 0.03071 0.47987 0.0
C1294 C 0.19488 0.03856 0.46764 0.0
C1295 C 0.2129 0.01805 0.4659 0.0
C1296 C 0.18788 0.04453 0.44336 0.0
C1297 C 0.20685 0.06162 0.48478 0.0
C1298 C 0.19357 0.06412 0.50494 0.0
C1299 C 0.20212 0.08273 0.52409 0.0
C1300 C 0.22477 0.09921 0.52259 0.0
C1301 C 0.23787 0.09781 0.50172 0.0
C1302 C 0.22895 0.07857 0.48269 0.0
H1303 H 0.80956 0.1319 0.68922 0.0
H1304 H 0.82788 0.16996 0.76069 0.0
H1305 H 0.79028 0.14469 0.77338 0.0
H1306 H 0.73921 0.1285 0.69201 0.0
H1307 H 0.73186 0.09768 0.67457 0.0
H1308 H 0.76022 0.11832 0.66971 0.0
H1309 H 0.79006 0.08547 0.6759 0.0
H1310 H 0.76225 0.06378 0.67999 0.0
H1311 H 0.78872 0.07151 0.70204 0.0
H1312 H 0.75567 0.11119 0.77945 0.0
H1313 H 0.71854 0.07787 0.77748 0.0
H1314 H 0.71822 0.06428 0.70195 0.0
C1315 C 0.8053 0.13535 0.70743 0.0
C1316 C 0.82203 0.15267 0.72402 0.0
C1317 C 0.81578 0.15643 0.74773 0.0
C1318 C 0.79442 0.1422 0.75513 0.0
C1319 C 0.77908 0.12454 0.73859 0.0
C1320 C 0.7837 0.12148 0.71514 0.0
C1321 C 0.76385 0.10114 0.70112 0.0
C1322 C 0.74781 0.11205 0.6833 0.0
C1323 C 0.77702 0.07918 0.68905 0.0
C1324 C 0.74756 0.09324 0.72043 0.0
C1325 C 0.75718 0.10667 0.74193 0.0
C1326 C 0.74728 0.10124 0.76267 0.0
C1327 C 0.72614 0.0824 0.76139 0.0
C1328 C 0.71459 0.06975 0.73956 0.0
C1329 C 0.72602 0.07456 0.71882 0.0
H1330 H 0.42705 0.00956 0.51887 0.0
H1331 H 0.48441 0.07039 0.5536 0.0
H1332 H 0.45705 0.10126 0.5432 0.0
H1333 H 0.40701 0.04085 0.47114 0.0
H1334 H 0.37313 0.02898 0.47102 0.0
H1335 H 0.39742 0.01105 0.48027 0.0
H1336 H 0.37633 0.01008 0.51968 0.0
H1337 H 0.35187 0.0278 0.51047 0.0
H1338 H 0.37123 0.03921 0.53741 0.0
H1339 H 0.42446 0.12568 0.52972 0.0
H1340 H 0.38599 0.143 0.51688 0.0
H1341 H 0.3474 0.06753 0.49111 0.0
C1342 C 0.43376 0.0294 0.52423 0.0
C1343 C 0.45785 0.03754 0.53726 0.0
C1344 C 0.46592 0.06366 0.54399 0.0
C1345 C 0.45061 0.08137 0.53796 0.0
C1346 C 0.42708 0.07283 0.5252 0.0
C1347 C 0.41843 0.04753 0.51857 0.0
C1348 C 0.39163 0.04378 0.50584 0.0
C1349 C 0.39235 0.03036 0.48057 0.0
C1350 C 0.37158 0.02936 0.51915 0.0
C1351 C 0.38665 0.07093 0.50656 0.0
C1352 C 0.40765 0.08722 0.5176 0.0
C1353 C 0.40789 0.11314 0.52104 0.0
C1354 C 0.38586 0.1228 0.51364 0.0
C1355 C 0.36361 0.10671 0.50293 0.0
C1356 C 0.36421 0.08034 0.49892 0.0
H1357 H 0.62312 0.4894 0.53901 0.0
H1358 H 0.63005 0.48239 0.6125 0.0
H1359 H 0.66132 0.45259 0.60388 0.0
H1360 H 0.63051 0.42494 0.515 0.0
H1361 H 0.65013 0.43334 0.49195 0.0
H1362 H 0.6267 0.45313 0.50323 0.0
H1363 H 0.66273 0.49124 0.51231 0.0
H1364 H 0.68626 0.47159 0.50102 0.0
H1365 H 0.69123 0.48913 0.53027 0.0
H1366 H 0.69229 0.42402 0.58811 0.0
H1367 H 0.72275 0.39976 0.56644 0.0
H1368 H 0.69918 0.42628 0.503 0.0
C1369 C 0.63116 0.48167 0.55336 0.0
C1370 C 0.6233 0.48813 0.57647 0.0
C1371 C 0.63463 0.47735 0.59453 0.0
C1372 C 0.65279 0.46048 0.58986 0.0
C1373 C 0.65995 0.45458 0.56704 0.0
C1374 C 0.6497 0.46492 0.54906 0.0
C1375 C 0.66175 0.45601 0.52628 0.0
C1376 C 0.64103 0.44096 0.50804 0.0
C1377 C 0.67636 0.47832 0.51692 0.0
C1378 C 0.68039 0.43915 0.53438 0.0
C1379 C 0.67875 0.43854 0.55795 0.0
C1380 C 0.69376 0.42437 0.56964 0.0
C1381 C 0.71106 0.41055 0.55705 0.0
C1382 C 0.71359 0.41094 0.53286 0.0
C1383 C 0.69786 0.42551 0.52142 0.0
H1384 H 0.79766 0.24081 0.38577 0.0
H1385 H 0.71625 0.22038 0.36316 0.0
H1386 H 0.70452 0.24883 0.3974 0.0
H1387 H 0.78699 0.24683 0.44981 0.0
H1388 H 0.81295 0.2725 0.457 0.0
H1389 H 0.81444 0.24845 0.43205 0.0
H1390 H 0.82192 0.28286 0.40758 0.0
H1391 H 0.81712 0.30806 0.43045 0.0
H1392 H 0.79723 0.30217 0.40336 0.0
H1393 H 0.70141 0.27848 0.43533 0.0
H1394 H 0.70777 0.31079 0.4712 0.0
H1395 H 0.7909 0.31546 0.46673 0.0
C1396 C 0.77735 0.24198 0.3882 0.0
C1397 C 0.75792 0.22832 0.37158 0.0
C1398 C 0.73157 0.23082 0.37538 0.0
C1399 C 0.72466 0.24679 0.39493 0.0
C1400 C 0.74426 0.26021 0.41076 0.0
C1401 C 0.77007 0.25791 0.40767 0.0
C1402 C 0.78739 0.27522 0.42681 0.0
C1403 C 0.80126 0.25983 0.44233 0.0
C1404 C 0.80706 0.29321 0.41649 0.0
C1405 C 0.76738 0.28877 0.4402 0.0
C1406 C 0.74254 0.27897 0.43131 0.0
C1407 C 0.72078 0.28663 0.44218 0.0
C1408 C 0.7245 0.30497 0.46249 0.0
C1409 C 0.7497 0.31621 0.4711 0.0
C1410 C 0.77137 0.30778 0.45992 0.0
H1411 H 0.52501 0.08139 0.87437 0.0
H1412 H 0.52259 0.01042 0.89973 0.0
H1413 H 0.55319 0.99647 0.87019 0.0
H1414 H 0.52488 0.05705 0.81449 0.0
H1415 H 0.54642 0.08319 0.80782 0.0
H1416 H 0.52596 0.08778 0.83188 0.0
H1417 H 0.56617 0.10595 0.86013 0.0
H1418 H 0.58671 0.10177 0.83609 0.0
H1419 H 0.59279 0.08788 0.86164 0.0
H1420 H 0.58295 0.99001 0.83526 0.0
H1421 H 0.61059 0.99325 0.80179 0.0
H1422 H 0.59121 0.0684 0.80028 0.0
C1423 C 0.53103 0.06295 0.87386 0.0
C1424 C 0.52133 0.04694 0.88927 0.0
C1425 C 0.52994 0.02307 0.88819 0.0
C1426 C 0.54715 0.01495 0.87135 0.0
C1427 C 0.55566 0.03101 0.85587 0.0
C1428 C 0.54802 0.05465 0.8573 0.0
C1429 C 0.55935 0.06846 0.83872 0.0
C1430 C 0.53787 0.07446 0.82226 0.0
C1431 C 0.57732 0.09242 0.84981 0.0
C1432 C 0.57447 0.04891 0.82635 0.0
C1433 C 0.57226 0.02737 0.83632 0.0
C1434 C 0.5848 1.00689 0.82745 0.0
C1435 C 0.60032 0.0088 0.80831 0.0
C1436 C 0.60318 0.03105 0.79829 0.0
C1437 C 0.58966 0.05108 0.80742 0.0
H1438 H 0.32524 0.28652 0.39115 0.0
H1439 H 0.36042 0.23779 0.3382 0.0
H1440 H 0.35796 0.20537 0.36334 0.0
H1441 H 0.35154 0.26718 0.44238 0.0
H1442 H 0.3218 0.26764 0.45705 0.0
H1443 H 0.3291 0.28839 0.43624 0.0
H1444 H 0.28562 0.27064 0.41262 0.0
H1445 H 0.27804 0.25008 0.43349 0.0
H1446 H 0.27814 0.23722 0.40293 0.0
H1447 H 0.35131 0.17747 0.39483 0.0
H1448 H 0.33535 0.15505 0.42651 0.0
H1449 H 0.29898 0.21955 0.45542 0.0
C1450 C 0.33221 0.26907 0.38434 0.0
C1451 C 0.34335 0.26538 0.36234 0.0
C1452 C 0.35254 0.24196 0.35506 0.0
C1453 C 0.35104 0.22313 0.36923 0.0
C1454 C 0.33982 0.22752 0.3906 0.0
C1455 C 0.3301 0.24976 0.39786 0.0
C1456 C 0.31684 0.24907 0.42054 0.0
C1457 C 0.33065 0.26927 0.44021 0.0
C1458 C 0.28795 0.25191 0.41718 0.0
C1459 C 0.32045 0.22289 0.42486 0.0
C1460 C 0.33433 0.21094 0.40772 0.0
C1461 C 0.34036 0.18668 0.40826 0.0
C1462 C 0.33141 0.17414 0.4264 0.0
C1463 C 0.31609 0.18562 0.44343 0.0
C1464 C 0.31078 0.21039 0.44267 0.0
H1465 H 0.54568 0.46038 0.91669 0.0
H1466 H 0.54719 0.53634 0.9538 0.0
H1467 H 0.52042 0.54661 0.92131 0.0
H1468 H 0.55232 0.47666 0.86085 0.0
H1469 H 0.53097 0.45 0.84535 0.0
H1470 H 0.54797 0.44765 0.87241 0.0
H1471 H 0.5045 0.43417 0.88976 0.0
H1472 H 0.48737 0.43612 0.86261 0.0
H1473 H 0.47891 0.45366 0.88958 0.0
H1474 H 0.49575 0.54945 0.8835 0.0
H1475 H 0.47346 0.54399 0.84423 0.0
H1476 H 0.48867 0.46636 0.8313 0.0
C1477 C 0.53971 0.47893 0.91824 0.0
C1478 C 0.54826 0.49749 0.93793 0.0
C1479 C 0.5407 0.5218 0.93897 0.0
C1480 C 0.52555 0.52782 0.92057 0.0
C1481 C 0.51807 0.50935 0.9011 0.0
C1482 C 0.5247 0.48532 0.89988 0.0
C1483 C 0.51518 0.46933 0.8765 0.0
C1484 C 0.53797 0.46039 0.86299 0.0
C1485 C 0.4953 0.447 0.87982 0.0
C1486 C 0.50248 0.48817 0.86471 0.0
C1487 C 0.50426 0.51112 0.87921 0.0
C1488 C 0.49414 0.53149 0.87204 0.0
C1489 C 0.48158 0.52824 0.84961 0.0
C1490 C 0.47928 0.5048 0.83443 0.0
C1491 C 0.49011 0.48462 0.84225 0.0
H1492 H 0.78219 0.75956 0.14824 0.0
H1493 H 0.74875 0.82117 0.12493 0.0
H1494 H 0.74977 0.80053 0.0837 0.0
H1495 H 0.8255 0.74964 0.10036 0.0
H1496 H 0.82127 0.71603 0.09919 0.0
H1497 H 0.81892 0.73648 0.12642 0.0
H1498 H 0.77329 0.71308 0.13033 0.0
H1499 H 0.77536 0.69274 0.10302 0.0
H1500 H 0.74852 0.71062 0.10711 0.0
H1501 H 0.75061 0.77046 0.04514 0.0
H1502 H 0.75585 0.73639 0.01257 0.0
H1503 H 0.79109 0.69598 0.06155 0.0
C1504 C 0.77546 0.76886 0.13439 0.0
C1505 C 0.76539 0.79192 0.13962 0.0
C1506 C 0.75671 0.80359 0.12117 0.0
C1507 C 0.7571 0.79192 0.09777 0.0
C1508 C 0.76662 0.76883 0.0932 0.0
C1509 C 0.7761 0.75769 0.11104 0.0
C1510 C 0.78519 0.73284 0.10166 0.0
C1511 C 0.81446 0.73382 0.10723 0.0
C1512 C 0.76965 0.71104 0.11109 0.0
C1513 C 0.77895 0.73142 0.07575 0.0
C1514 C 0.76806 0.75221 0.07116 0.0
C1515 C 0.75948 0.7543 0.04854 0.0
C1516 C 0.7624 0.73481 0.03016 0.0
C1517 C 0.77411 0.71365 0.03446 0.0
C1518 C 0.78244 0.71209 0.05762 0.0
H1519 H 0.049 0.05299 0.13458 0.0
H1520 H 0.04051 0.97616 0.09746 0.0
H1521 H 0.01333 0.96241 0.12764 0.0
H1522 H 0.05152 0.03939 0.19223 0.0
H1523 H 0.03192 0.06273 0.20435 0.0
H1524 H 0.05038 0.06748 0.17956 0.0
H1525 H 0.00872 0.07296 0.15607 0.0
H1526 H 0.99014 0.06849 0.18088 0.0
H1527 H 0.98116 0.04884 0.15297 0.0
H1528 H 0.99176 0.95563 0.16334 0.0
H1529 H 0.97046 0.95666 0.20001 0.0
H1530 H 0.98671 0.03821 0.2136 0.0
C1531 C 0.04102 0.03336 0.13254 0.0
C1532 C 0.04762 0.01561 0.11369 0.0
C1533 C 0.03664 0.9901 0.11193 0.0
C1534 C 0.02095 0.98206 0.12897 0.0
C1535 C 0.01566 0.99975 0.14761 0.0
C1536 C 0.02474 0.02496 0.14934 0.0
C1537 C 0.01556 0.03983 0.17132 0.0
C1538 C 0.03873 0.05315 0.18784 0.0
C1539 C 0.99784 0.05865 0.16492 0.0
C1540 C 1.00042 0.01887 0.18179 0.0
C1541 C 1.00114 0.99595 0.16778 0.0
C1542 C 0.99046 0.97351 0.17417 0.0
C1543 C 0.97831 0.97437 0.19521 0.0
C1544 C 0.97613 0.99755 0.20971 0.0
C1545 C 0.98748 0.02019 0.2028 0.0
H1546 H 0.34442 0.81665 0.16697 0.0
H1547 H 0.32998 0.73763 0.13553 0.0
H1548 H 0.32484 0.75005 0.09683 0.0
H1549 H 0.29323 0.83349 0.13373 0.0
H1550 H 0.3096 0.86433 0.13215 0.0
H1551 H 0.31684 0.84926 0.15662 0.0
H1552 H 0.36549 0.85455 0.14827 0.0
H1553 H 0.35834 0.86944 0.12358 0.0
H1554 H 0.37518 0.84217 0.11979 0.0
H1555 H 0.31921 0.77165 0.06103 0.0
H1556 H 0.30757 0.79947 0.03333 0.0
H1557 H 0.31858 0.86311 0.08964 0.0
C1558 C 0.33991 0.80164 0.15223 0.0
C1559 C 0.33765 0.77593 0.15491 0.0
C1560 C 0.33248 0.75744 0.13444 0.0
C1561 C 0.32935 0.76433 0.1122 0.0
C1562 C 0.331 0.78981 0.11052 0.0
C1563 C 0.33575 0.80811 0.13013 0.0
C1564 C 0.33358 0.834 0.12426 0.0
C1565 C 0.31203 0.84596 0.13747 0.0
C1566 C 0.35971 0.85104 0.12927 0.0
C1567 C 0.32642 0.82745 0.09828 0.0
C1568 C 0.32581 0.80197 0.09048 0.0
C1569 C 0.31966 0.7916 0.06702 0.0
C1570 C 0.31325 0.80754 0.05137 0.0
C1571 C 0.31232 0.83338 0.05938 0.0
C1572 C 0.31932 0.84343 0.08307 0.0
H1573 H 0.03687 0.4858 0.10139 0.0
H1574 H 1.00427 0.55652 0.1131 0.0
H1575 H 0.0233 0.56504 0.15289 0.0
H1576 H 0.03499 0.47145 0.16091 0.0
H1577 H 0.0665 0.46097 0.1607 0.0
H1578 H 0.04674 0.45747 0.13382 0.0
H1579 H 0.08395 0.48221 0.11543 0.0
H1580 H 0.10384 0.48563 0.14217 0.0
H1581 H 0.09779 0.51307 0.13006 0.0
H1582 H 0.04727 0.56806 0.19081 0.0
H1583 H 0.07931 0.56798 0.22293 0.0
H1584 H 0.10205 0.49853 0.18665 0.0
C1585 C 0.03348 0.50308 0.11213 0.0
C1586 C 0.01784 0.51985 0.10356 0.0
C1587 C 0.01459 0.54231 0.11884 0.0
C1588 C 0.02573 0.54765 0.14173 0.0
C1589 C 0.04086 0.53085 0.14937 0.0
C1590 C 0.04522 0.50924 0.13499 0.0
C1591 C 0.06486 0.49598 0.14691 0.0
C1592 C 0.05253 0.46992 0.15082 0.0
C1593 C 0.08904 0.49412 0.1328 0.0
C1594 C 0.07106 0.51385 0.17001 0.0
C1595 C 0.05644 0.53348 0.1711 0.0
C1596 C 0.05884 0.55278 0.1902 0.0
C1597 C 0.0772 0.55252 0.20843 0.0
C1598 C 0.09345 0.5333 0.20748 0.0
C1599 C 0.08985 0.51337 0.18813 0.0
H1600 H 0.40537 0.7262 0.2653 0.0
H1601 H 0.39937 0.64634 0.23779 0.0
H1602 H 0.43043 0.64124 0.26921 0.0
H1603 H 0.4772 0.73111 0.28042 0.0
H1604 H 0.47534 0.75542 0.30507 0.0
H1605 H 0.45354 0.75255 0.27955 0.0
H1606 H 0.41556 0.75045 0.30576 0.0
H1607 H 0.43632 0.75116 0.33145 0.0
H1608 H 0.41039 0.72551 0.3226 0.0
H1609 H 0.46141 0.6444 0.30446 0.0
H1610 H 0.49318 0.65661 0.33865 0.0
H1611 H 0.47968 0.73418 0.34277 0.0
C1612 C 0.41093 0.70768 0.26533 0.0
C1613 C 0.39903 0.68659 0.24916 0.0
C1614 C 0.40716 0.66276 0.25034 0.0
C1615 C 0.42508 0.65965 0.26806 0.0
C1616 C 0.43549 0.68063 0.28419 0.0
C1617 C 0.42939 0.70431 0.2825 0.0
C1618 C 0.44407 0.72392 0.30159 0.0
C1619 C 0.4637 0.7418 0.29103 0.0
C1620 C 0.42547 0.73861 0.31629 0.0
C1621 C 0.45784 0.7073 0.31534 0.0
C1622 C 0.45313 0.68243 0.30464 0.0
C1623 C 0.46512 0.66377 0.31308 0.0
C1624 C 0.48297 0.67079 0.33255 0.0
C1625 C 0.48814 0.6961 0.34371 0.0
C1626 C 0.47523 0.71452 0.33509 0.0
H1627 H 0.04396 0.42204 0.95234 0.0
H1628 H 0.03085 0.41348 0.02417 0.0
H1629 H 0.03029 0.3676 0.01331 0.0
H1630 H 1.00542 0.36591 0.92431 0.0
H1631 H 0.02751 0.35938 0.9018 0.0
H1632 H 0.02592 0.39134 0.91518 0.0
H1633 H 0.0753 0.39733 0.92624 0.0
H1634 H 0.07701 0.36533 0.91299 0.0
H1635 H 0.08852 0.37613 0.94305 0.0
H1636 H 0.02941 0.32195 0.99381 0.0
H1637 H 0.02968 0.28117 0.96766 0.0
H1638 H 0.04826 0.32056 0.91014 0.0
C1639 C 0.04138 0.41077 0.96603 0.0
C1640 C 0.03751 0.42175 0.98924 0.0
C1641 C 0.03345 0.40577 1.0062 0.0
C1642 C 0.03335 0.37962 1.00024 0.0
C1643 C 0.03765 0.36964 0.97731 0.0
C1644 C 0.04175 0.3848 0.96053 0.0
C1645 C 0.04618 0.3696 0.93716 0.0
C1646 C 0.025 0.37169 0.91852 0.0
C1647 C 0.07338 0.37758 0.92942 0.0
C1648 C 0.04387 0.34342 0.94333 0.0
C1649 C 0.03868 0.34375 0.96652 0.0
C1650 C 0.03394 0.32156 0.97577 0.0
C1651 C 0.03423 0.29853 0.96088 0.0
C1652 C 0.03979 0.29791 0.9372 0.0
C1653 C 0.0449 0.32065 0.92842 0.0
H1654 H 0.70239 0.7537 0.29057 0.0
H1655 H 0.6632 0.79375 0.24369 0.0
H1656 H 0.62832 0.7983 0.27102 0.0
H1657 H 0.64774 0.71737 0.30339 0.0
H1658 H 0.65786 0.71749 0.33348 0.0
H1659 H 0.68174 0.72141 0.3125 0.0
H1660 H 0.70253 0.76329 0.33789 0.0
H1661 H 0.67873 0.75945 0.35907 0.0
H1662 H 0.68274 0.78776 0.34639 0.0
H1663 H 0.59483 0.79322 0.30097 0.0
H1664 H 0.56623 0.7794 0.3306 0.0
H1665 H 0.62715 0.74174 0.35715 0.0
C1666 C 0.6867 0.76382 0.28619 0.0
C1667 C 0.68556 0.77336 0.26493 0.0
C1668 C 0.66473 0.78658 0.25999 0.0
C1669 C 0.64476 0.78916 0.27539 0.0
C1670 C 0.64603 0.77862 0.29576 0.0
C1671 C 0.66665 0.76641 0.30125 0.0
C1672 C 0.66246 0.75474 0.32302 0.0
C1673 C 0.66244 0.72606 0.31777 0.0
C1674 C 0.68283 0.76705 0.34276 0.0
C1675 C 0.63581 0.76145 0.32851 0.0
C1676 C 0.62678 0.77556 0.31283 0.0
C1677 C 0.60191 0.78254 0.31354 0.0
C1678 C 0.58578 0.77457 0.33045 0.0
C1679 C 0.59447 0.7596 0.34632 0.0
C1680 C 0.62001 0.75343 0.34551 0.0
H1681 H 0.10963 0.13948 0.01233 0.0
H1682 H 0.03599 0.09697 0.02228 0.0
H1683 H 0.01525 0.11478 0.9907 0.0
H1684 H 0.08522 0.19487 1.00345 0.0
H1685 H 0.107 0.20216 0.9815 0.0
H1686 H 0.11666 0.18424 1.00317 0.0
H1687 H 0.12548 0.1485 0.97056 0.0
H1688 H 0.11602 0.16639 0.94875 0.0
H1689 H 0.10022 0.13489 0.94835 0.0
H1690 H 1.00161 0.14081 0.96114 0.0
H1691 H 0.99645 0.17039 0.93385 0.0
H1692 H 0.07918 0.19574 0.94209 0.0
C1693 C 0.08918 0.13365 0.00771 0.0
C1694 C 0.07445 0.11673 0.0199 0.0
C1695 C 0.04779 0.10956 0.01309 0.0
C1696 C 0.03581 0.11975 0.99525 0.0
C1697 C 0.05075 0.13691 0.98413 0.0
C1698 C 0.07695 0.14355 0.98987 0.0
C1699 C 0.08845 0.16307 0.9758 0.0
C1700 C 0.10001 0.18753 0.99195 0.0
C1701 C 0.10874 0.15258 0.95992 0.0
C1702 C 0.0645 0.16682 0.96157 0.0
C1703 C 0.04299 0.15152 0.96668 0.0
C1704 C 0.0184 0.15257 0.95677 0.0
C1705 C 0.01568 0.16958 0.94128 0.0
C1706 C 0.03742 0.18539 0.93552 0.0
C1707 C 0.06221 0.18374 0.94578 0.0
H1708 H 0.38166 0.26637 0.28741 0.0
H1709 H 0.39504 0.34777 0.30451 0.0
H1710 H 0.42741 0.34886 0.2747 0.0
H1711 H 0.44818 0.25768 0.27904 0.0
H1712 H 0.43996 0.23171 0.25539 0.0
H1713 H 0.41767 0.2377 0.27779 0.0
H1714 H 0.38173 0.24006 0.24619 0.0
H1715 H 0.40394 0.23414 0.22371 0.0
H1716 H 0.38766 0.26173 0.22592 0.0
H1717 H 0.45897 0.34045 0.24185 0.0
H1718 H 0.48593 0.32317 0.21048 0.0
H1719 H 0.45188 0.24772 0.21697 0.0
C1720 C 0.39153 0.28447 0.28514 0.0
C1721 C 0.38558 0.30697 0.29841 0.0
C1722 C 0.39882 0.33022 0.29441 0.0
C1723 C 0.41743 0.33104 0.27757 0.0
C1724 C 0.42277 0.30847 0.26482 0.0
C1725 C 0.41017 0.28563 0.26853 0.0
C1726 C 0.41926 0.26397 0.25273 0.0
C1727 C 0.43203 0.24676 0.2671 0.0
C1728 C 0.39681 0.24911 0.23616 0.0
C1729 C 0.43897 0.27808 0.23955 0.0
C1730 C 0.44082 0.30374 0.24657 0.0
C1731 C 0.45768 0.32034 0.23633 0.0
C1732 C 0.47295 0.31038 0.21851 0.0
C1733 C 0.47134 0.28406 0.21119 0.0
C1734 C 0.45401 0.26795 0.22207 0.0
H1735 H 0.59426 0.39822 0.05524 0.0
H1736 H 0.52026 0.40592 0.02211 0.0
H1737 H 0.49769 0.38375 0.05122 0.0
H1738 H 0.57854 0.33785 0.06567 0.0
H1739 H 0.59646 0.34215 0.09359 0.0
H1740 H 0.6064 0.36159 0.07241 0.0
H1741 H 0.6033 0.40161 0.10243 0.0
H1742 H 0.59357 0.38227 0.12385 0.0
H1743 H 0.57354 0.40507 0.11658 0.0
H1744 H 0.48381 0.35444 0.0803 0.0
H1745 H 0.47985 0.3245 0.1084 0.0
H1746 H 0.56303 0.33811 0.12371 0.0
C1747 C 0.57328 0.39594 0.05459 0.0
C1748 C 0.55897 0.40401 0.03656 0.0
C1749 C 0.53157 0.4003 0.03601 0.0
C1750 C 0.51863 0.38757 0.0524 0.0
C1751 C 0.53338 0.37904 0.06949 0.0
C1752 C 0.56015 0.38356 0.07094 0.0
C1753 C 0.5717 0.37131 0.08997 0.0
C1754 C 0.5893 0.35209 0.07979 0.0
C1755 C 0.58639 0.39126 0.10936 0.0
C1756 C 0.54735 0.35845 0.0986 0.0
C1757 C 0.52539 0.36308 0.08662 0.0
C1758 C 0.50085 0.35124 0.09015 0.0
C1759 C 0.49877 0.33422 0.10614 0.0
C1760 C 0.52103 0.32931 0.11864 0.0
C1761 C 0.54553 0.34197 0.11497 0.0
H1762 H 0.6631 0.17954 0.23595 0.0
H1763 H 0.69569 0.25297 0.27312 0.0
H1764 H 0.65746 0.27097 0.25937 0.0
H1765 H 0.63839 0.19851 0.18655 0.0
H1766 H 0.60893 0.17668 0.18235 0.0
H1767 H 0.63718 0.169 0.19718 0.0
H1768 H 0.61112 0.16238 0.23314 0.0
H1769 H 0.5826 0.16958 0.21824 0.0
H1770 H 0.59383 0.18702 0.24667 0.0
H1771 H 0.61903 0.28179 0.2363 0.0
H1772 H 0.58015 0.2836 0.21084 0.0
H1773 H 0.57084 0.20248 0.19128 0.0
C1774 C 0.66167 0.19923 0.24182 0.0
C1775 C 0.68207 0.21488 0.25585 0.0
C1776 C 0.67997 0.24066 0.26278 0.0
C1777 C 0.65845 0.25103 0.25488 0.0
C1778 C 0.63901 0.23524 0.2404 0.0
C1779 C 0.6401 0.20975 0.23446 0.0
C1780 C 0.61709 0.19699 0.21815 0.0
C1781 C 0.62594 0.18457 0.19467 0.0
C1782 C 0.60015 0.17786 0.22975 0.0
C1783 C 0.60328 0.21937 0.21525 0.0
C1784 C 0.61632 0.24131 0.22807 0.0
C1785 C 0.60837 0.26465 0.22663 0.0
C1786 C 0.58638 0.26552 0.21199 0.0
C1787 C 0.57232 0.24318 0.19923 0.0
C1788 C 0.58092 0.21985 0.20106 0.0
H1789 H 0.52485 0.11503 0.02688 0.0
H1790 H 0.44083 0.10591 0.02322 0.0
H1791 H 0.44185 0.14586 0.05032 0.0
H1792 H 0.53474 0.13639 0.08504 0.0
H1793 H 0.56137 0.1612 0.08604 0.0
H1794 H 0.55707 0.13492 0.06243 0.0
H1795 H 0.55451 0.16184 0.03073 0.0
H1796 H 0.56157 0.18937 0.05297 0.0
H1797 H 0.53337 0.18585 0.03302 0.0
H1798 H 0.4512 0.18618 0.0769 0.0
H1799 H 0.46817 0.22185 0.10756 0.0
H1800 H 0.54637 0.2043 0.0982 0.0
C1801 C 0.50678 0.12177 0.03159 0.0
C1802 C 0.48271 0.10753 0.02298 0.0
C1803 C 0.45939 0.1166 0.0297 0.0
C1804 C 0.45979 0.13933 0.0449 0.0
C1805 C 0.48369 0.15287 0.05328 0.0
C1806 C 0.50682 0.14451 0.04707 0.0
C1807 C 0.52968 0.16208 0.06021 0.0
C1808 C 0.5467 0.14785 0.07431 0.0
C1809 C 0.54573 0.17559 0.04322 0.0
C1810 C 0.51556 0.18052 0.07582 0.0
C1811 C 0.48912 0.17536 0.07057 0.0
C1812 C 0.47182 0.19019 0.08149 0.0
C1813 C 0.48161 0.21028 0.099 0.0
C1814 C 0.50832 0.21495 0.106 0.0
C1815 C 0.52573 0.20053 0.09364 0.0
H1816 H 0.28253 0.37357 0.73177 0.0
H1817 H 0.31064 0.35466 0.66242 0.0
H1818 H 0.34116 0.3927 0.66948 0.0
H1819 H 0.29665 0.44422 0.73639 0.0
H1820 H 0.30791 0.44796 0.76669 0.0
H1821 H 0.28299 0.42261 0.7545 0.0
H1822 H 0.31034 0.39307 0.77006 0.0
H1823 H 0.33852 0.4158 0.77944 0.0
H1824 H 0.34073 0.38815 0.75823 0.0
H1825 H 0.36824 0.43377 0.68279 0.0
H1826 H 0.39838 0.46891 0.70549 0.0
H1827 H 0.3623 0.4557 0.76894 0.0
C1828 C 0.2947 0.37741 0.71783 0.0
C1829 C 0.29249 0.36104 0.69594 0.0
C1830 C 0.30984 0.3671 0.67874 0.0
C1831 C 0.32783 0.38883 0.68262 0.0
C1832 C 0.32927 0.40434 0.70411 0.0
C1833 C 0.31364 0.39877 0.72167 0.0
C1834 C 0.32206 0.41689 0.74426 0.0
C1835 C 0.30116 0.43393 0.75084 0.0
C1836 C 0.32837 0.40271 0.76422 0.0
C1837 C 0.34599 0.432 0.73685 0.0
C1838 C 0.34851 0.42552 0.7132 0.0
C1839 C 0.36702 0.43862 0.70147 0.0
C1840 C 0.38407 0.45842 0.71443 0.0
C1841 C 0.38354 0.46378 0.73895 0.0
C1842 C 0.36388 0.45087 0.75029 0.0
H1843 H 0.27934 0.61827 0.81984 0.0
H1844 H 0.33244 0.68571 0.84684 0.0
H1845 H 0.36913 0.66112 0.84333 0.0
H1846 H 0.31475 0.57455 0.84787 0.0
H1847 H 0.30792 0.54958 0.82314 0.0
H1848 H 0.28538 0.572 0.82955 0.0
H1849 H 0.28795 0.58252 0.7877 0.0
H1850 H 0.3105 0.56021 0.78119 0.0
H1851 H 0.3191 0.59242 0.77745 0.0
H1852 H 0.40057 0.63068 0.83253 0.0
H1853 H 0.42445 0.59549 0.81771 0.0
H1854 H 0.35172 0.54667 0.79958 0.0
C1855 C 0.29865 0.62777 0.82533 0.0
C1856 C 0.30286 0.65398 0.83388 0.0
C1857 C 0.32852 0.66564 0.84074 0.0
C1858 C 0.34957 0.65184 0.83866 0.0
C1859 C 0.34481 0.6262 0.8299 0.0
C1860 C 0.31997 0.61416 0.82361 0.0
C1861 C 0.32041 0.58653 0.81394 0.0
C1862 C 0.30628 0.56967 0.82956 0.0
C1863 C 0.30881 0.58005 0.78857 0.0
C1864 C 0.34939 0.58512 0.81526 0.0
C1865 C 0.36306 0.60829 0.82448 0.0
C1866 C 0.39008 0.61233 0.82574 0.0
C1867 C 0.40349 0.59226 0.81725 0.0
C1868 C 0.38997 0.56829 0.80794 0.0
C1869 C 0.36255 0.56463 0.80723 0.0
H1870 H 0.91187 0.50809 0.47651 0.0
H1871 H 0.95497 0.51439 0.54319 0.0
H1872 H 0.92074 0.48417 0.55564 0.0
H1873 H 0.84884 0.50485 0.49858 0.0
H1874 H 0.8339 0.48281 0.47371 0.0
H1875 H 0.86197 0.50452 0.47035 0.0
H1876 H 0.88591 0.46739 0.4531 0.0
H1877 H 0.85786 0.44558 0.45626 0.0
H1878 H 0.88892 0.44222 0.46946 0.0
H1879 H 0.88108 0.45146 0.55984 0.0
H1880 H 0.84074 0.42106 0.55543 0.0
H1881 H 0.82449 0.4388 0.48639 0.0
C1882 C 0.91435 0.5029 0.49364 0.0
C1883 C 0.9363 0.51334 0.50876 0.0
C1884 C 0.93835 0.50655 0.53129 0.0
C1885 C 0.91901 0.48939 0.53847 0.0
C1886 C 0.89759 0.47941 0.52303 0.0
C1887 C 0.89524 0.48609 0.50111 0.0
C1888 C 0.87041 0.4732 0.48774 0.0
C1889 C 0.85274 0.4925 0.48228 0.0
C1890 C 0.87613 0.45608 0.46532 0.0
C1891 C 0.85912 0.45802 0.50542 0.0
C1892 C 0.87494 0.46164 0.52569 0.0
C1893 C 0.86851 0.44869 0.54406 0.0
C1894 C 0.84551 0.43149 0.54144 0.0
C1895 C 0.82915 0.42751 0.52066 0.0
C1896 C 0.83619 0.44134 0.50268 0.0
H1897 H 0.7591 0.91668 0.84332 0.0
H1898 H 0.7873 0.87462 0.78166 0.0
H1899 H 0.75613 0.89122 0.75695 0.0
H1900 H 0.69222 0.91473 0.82277 0.0
H1901 H 0.69077 0.94683 0.83592 0.0
H1902 H 0.71213 0.92845 0.84892 0.0
H1903 H 0.75115 0.96233 0.84667 0.0
H1904 H 0.72993 0.98086 0.83383 0.0
H1905 H 0.75782 0.97187 0.81897 0.0
H1906 H 0.72242 0.91445 0.73865 0.0
H1907 H 0.69414 0.94528 0.72867 0.0
H1908 H 0.69379 0.97635 0.80205 0.0
C1909 C 0.75921 0.91093 0.82465 0.0
C1910 C 0.77617 0.89418 0.81474 0.0
C1911 C 0.77446 0.88693 0.79006 0.0
C1912 C 0.75681 0.89644 0.77576 0.0
C1913 C 0.7411 0.91347 0.78623 0.0
C1914 C 0.74246 0.92085 0.81014 0.0
C1915 C 0.72567 0.94133 0.81714 0.0
C1916 C 0.70391 0.93229 0.83207 0.0
C1917 C 0.74213 0.96552 0.8299 0.0
C1918 C 0.7149 0.94472 0.79339 0.0
C1919 C 0.72339 0.928 0.77577 0.0
C1920 C 0.71574 0.9276 0.75235 0.0
C1921 C 0.69958 0.94507 0.74684 0.0
C1922 C 0.69184 0.96315 0.7646 0.0
C1923 C 0.69943 0.96272 0.78814 0.0
H1924 H 0.64142 0.53478 0.01193 0.0
H1925 H 0.63985 0.50836 0.93737 0.0
H1926 H 0.68199 0.534 0.93556 0.0
H1927 H 0.66478 0.59596 0.01083 0.0
H1928 H 0.68756 0.6027 0.03601 0.0
H1929 H 0.6598 0.57912 0.03476 0.0
H1930 H 0.68666 0.5443 0.0404 0.0
H1931 H 0.71528 0.56724 0.04425 0.0
H1932 H 0.71371 0.53916 0.02277 0.0
H1933 H 0.72391 0.56163 0.94139 0.0
H1934 H 0.76059 0.59518 0.95326 0.0
H1935 H 0.73445 0.60772 0.02344 0.0
C1936 C 0.65028 0.53415 0.99538 0.0
C1937 C 0.63753 0.51951 0.97477 0.0
C1938 C 0.64937 0.51944 0.95331 0.0
C1939 C 0.67335 0.5338 0.95214 0.0
C1940 C 0.68534 0.54823 0.97261 0.0
C1941 C 0.67428 0.54871 0.99385 0.0
C1942 C 0.69066 0.5674 0.01278 0.0
C1943 C 0.67481 0.58752 0.02426 0.0
C1944 C 0.70227 0.55371 0.03114 0.0
C1945 C 0.71177 0.57826 0.99851 0.0
C1946 C 0.70875 0.56607 0.97561 0.0
C1947 C 0.72625 0.57163 0.95916 0.0
C1948 C 0.74689 0.59084 0.966 0.0
C1949 C 0.74953 0.60481 0.98886 0.0
C1950 C 0.7323 0.59783 1.00561 0.0
H1951 H 0.3174 0.64029 0.2449 0.0
H1952 H 0.29812 0.65647 0.17579 0.0
H1953 H 0.25892 0.6252 0.17241 0.0
H1954 H 0.2929 0.57044 0.22779 0.0
H1955 H 0.28339 0.56908 0.25706 0.0
H1956 H 0.31118 0.59047 0.25224 0.0
H1957 H 0.2911 0.62459 0.2764 0.0
H1958 H 0.26021 0.60665 0.27879 0.0
H1959 H 0.26225 0.63484 0.26576 0.0
H1960 H 0.22217 0.59091 0.1763 0.0
H1961 H 0.18864 0.56027 0.18908 0.0
H1962 H 0.23065 0.56956 0.25651 0.0
C1963 C 0.30555 0.63686 0.22866 0.0
C1964 C 0.31115 0.65102 0.21058 0.0
C1965 C 0.29426 0.64623 0.19006 0.0
C1966 C 0.27206 0.62826 0.18785 0.0
C1967 C 0.26716 0.61486 0.20611 0.0
C1968 C 0.28367 0.6187 0.22597 0.0
C1969 C 0.27377 0.60233 0.24336 0.0
C1970 C 0.29135 0.58187 0.24521 0.0
C1971 C 0.27158 0.61798 0.2675 0.0
C1972 C 0.24769 0.59077 0.23129 0.0
C1973 C 0.24497 0.597 0.20921 0.0
C1974 C 0.22386 0.58629 0.1937 0.0
C1975 C 0.20491 0.56903 0.20107 0.0
C1976 C 0.2066 0.56369 0.22406 0.0
C1977 C 0.22844 0.57437 0.2392 0.0
H1978 H 0.93464 0.5219 0.01749 0.0
H1979 H 0.98455 0.57794 0.06671 0.0
H1980 H 0.95856 0.61052 0.05793 0.0
H1981 H 0.92256 0.56275 0.97473 0.0
H1982 H 0.88899 0.54979 0.96838 0.0
H1983 H 0.91207 0.53053 0.97745 0.0
H1984 H 0.88402 0.52089 0.01141 0.0
H1985 H 0.8608 0.53999 1.00238 0.0
H1986 H 0.87516 0.54654 0.03187 0.0
H1987 H 0.92753 0.63695 0.04509 0.0
H1988 H 0.89094 0.65592 0.0306 0.0
H1989 H 0.85904 0.58388 0.98957 0.0
C1990 C 0.94008 0.54107 0.02627 0.0
C1991 C 0.96159 0.54732 0.04295 0.0
C1992 C 0.96801 0.5726 0.05416 0.0
C1993 C 0.95347 0.59131 0.04915 0.0
C1994 C 0.93239 0.58461 0.03285 0.0
C1995 C 0.92546 0.56014 0.02163 0.0
C1996 C 0.90101 0.55818 1.00567 0.0
C1997 C 0.90649 0.54982 0.98003 0.0
C1998 C 0.87894 0.54035 0.01329 0.0
C1999 C 0.89529 0.58531 0.00989 0.0
C2000 C 0.91392 0.60013 0.02549 0.0
C2001 C 0.91285 0.62559 0.03281 0.0
C2002 C 0.89191 0.6362 0.02444 0.0
C2003 C 0.87208 0.6215 0.00887 0.0
C2004 C 0.87406 0.59571 1.00118 0.0
H2005 H 0.12721 0.99897 0.03186 0.0
H2006 H 0.12815 0.98659 0.10394 0.0
H2007 H 0.15988 0.95706 0.09569 0.0
H2008 H 0.13409 0.93558 1.00553 0.0
H2009 H 0.15561 0.94473 0.98402 0.0
H2010 H 0.13241 0.9649 0.9951 0.0
H2011 H 0.16937 1.00172 0.00748 0.0
H2012 H 0.19266 0.98172 0.99631 0.0
H2013 H 0.19646 0.99754 0.02621 0.0
H2014 H 0.1907 0.92828 0.08012 0.0
H2015 H 0.22132 0.90387 0.05874 0.0
H2016 H 0.20316 0.93525 0.99659 0.0
C2017 C 0.13419 0.99016 0.04594 0.0
C2018 C 0.12453 0.99487 0.06849 0.0
C2019 C 0.1344 0.98288 0.08635 0.0
C2020 C 0.15267 0.96613 0.08189 0.0
C2021 C 0.16136 0.96158 0.0595 0.0
C2022 C 0.15273 0.97337 0.04182 0.0
C2023 C 0.16585 0.96528 0.01944 0.0
C2024 C 0.14579 0.95182 0.99987 0.0
C2025 C 0.18205 0.98791 0.01192 0.0
C2026 C 0.18309 0.94713 0.0274 0.0
C2027 C 0.17996 0.94526 0.05056 0.0
C2028 C 0.19341 0.92965 0.06199 0.0
C2029 C 0.21078 0.91575 0.04958 0.0
C2030 C 0.21488 0.91749 0.02586 0.0
C2031 C 0.20061 0.93341 0.01466 0.0
loop_
_geom_bond_atom_site_label_1
_geom_bond_atom_site_label_2
_geom_bond_distance
_geom_bond_site_symmetry_2
_ccdc_geom_bond_type
H0 C1 0.949 . S
C1 H0 0.949 . S
C1 C2 1.395 . S
C1 C3 1.391 . S
C2 C1 1.395 . S
C2 C5 1.396 . S
C3 C1 1.391 . S
C3 C7 1.387 . S
C3 C8 1.491 . S
H4 C5 0.931 1_565 S
C5 C2 1.396 . S
C5 H4 0.931 1_545 S
C5 C6 1.391 . S
C6 C5 1.391 . S
C6 C7 1.409 . S
C7 C3 1.387 . S
C7 C6 1.409 . S
C7 H9 0.951 . S
C8 C3 1.491 . S
C8 C10 1.382 . S
C8 C12 1.404 . S
H9 C7 0.951 . S
C10 C8 1.382 . S
C10 C11 1.390 1_554 S
C10 H15 0.949 1_554 S
C11 C10 1.390 1_556 S
C11 C16 1.399 1_556 S
C12 C8 1.404 . S
C12 H13 0.950 . S
C12 C14 1.375 . S
H13 C12 0.950 . S
C14 C12 1.375 . S
C14 C16 1.382 . S
C14 H18 0.950 . S
H15 C10 0.949 1_556 S
C16 C11 1.399 1_554 S
C16 C14 1.382 . S
C16 H17 0.952 1_554 S
H17 C16 0.952 1_556 S
H18 C14 0.950 . S
H19 C20 0.949 . S
C20 H19 0.949 . S
C20 C21 1.395 . S
C20 C22 1.391 . S
C21 C20 1.395 . S
C21 C24 1.390 . S
C22 C20 1.391 . S
C22 C26 1.387 . S
C22 C27 1.491 . S
H23 C24 0.950 . S
C24 C21 1.390 . S
C24 H23 0.950 . S
C24 C25 1.378 . S
C25 C24 1.378 . S
C25 C26 1.409 . S
C26 C22 1.387 . S
C26 C25 1.409 . S
C26 H28 0.951 . S
C27 C22 1.491 . S
C27 C29 1.382 . S
C27 C31 1.404 . S
H28 C26 0.951 . S
C29 C27 1.382 . S
C29 C30 1.390 . S
C29 H34 0.949 . S
C30 C29 1.390 . S
C30 C35 1.399 . S
C31 C27 1.404 . S
C31 H32 0.950 . S
C31 C33 1.375 . S
H32 C31 0.950 . S
C33 C31 1.375 . S
C33 C35 1.382 . S
C33 H37 0.950 . S
H34 C29 0.949 . S
C35 C30 1.399 . S
C35 C33 1.382 . S
C35 H36 0.952 . S
H36 C35 0.952 . S
H37 C33 0.950 . S
H38 C39 0.949 . S
C39 H38 0.949 . S
C39 C40 1.395 . S
C39 C41 1.391 1_455 S
C40 C39 1.395 . S
C40 C43 1.390 1_455 S
C41 C39 1.391 1_655 S
C41 C45 1.387 . S
C41 C46 1.491 1_554 S
H42 C43 0.950 . S
C43 C40 1.390 1_655 S
C43 H42 0.950 . S
C43 C44 1.378 . S
C44 C43 1.378 . S
C44 C45 1.409 . S
C45 C41 1.387 . S
C45 C44 1.409 . S
C45 H47 0.951 1_554 S
C46 C41 1.491 1_556 S
C46 C48 1.382 1_655 S
C46 C50 1.404 . S
H47 C45 0.951 1_556 S
C48 C46 1.382 1_455 S
C48 C49 1.390 . S
C48 H53 0.949 1_556 S
C49 C48 1.390 . S
C49 C54 1.399 . S
C50 C46 1.404 . S
C50 H51 0.951 . S
C50 C52 1.373 1_655 S
H51 C50 0.951 . S
C52 C50 1.373 1_455 S
C52 C54 1.382 . S
C52 H56 0.950 . S
H53 C48 0.949 1_554 S
C54 C49 1.399 . S
C54 C52 1.382 . S
C54 H55 0.952 . S
H55 C54 0.952 . S
H56 C52 0.950 . S
H57 C58 0.949 . S
C58 H57 0.949 . S
C58 C59 1.395 . S
C58 C60 1.391 . S
C59 C58 1.395 . S
C59 C62 1.390 . S
C60 C58 1.391 . S
C60 C64 1.387 . S
C60 C65 1.491 . S
H61 C62 0.950 . S
C62 C59 1.390 . S
C62 H61 0.950 . S
C62 C63 1.378 . S
C63 C62 1.378 . S
C63 C64 1.409 . S
C64 C60 1.387 . S
C64 C63 1.409 . S
C64 H66 0.951 . S
C65 C60 1.491 . S
C65 C67 1.382 . S
C65 C69 1.404 . S
H66 C64 0.951 . S
C67 C65 1.382 . S
C67 C68 1.390 . S
C67 H72 0.949 . S
C68 C67 1.390 . S
C68 C73 1.399 . S
C69 C65 1.404 . S
C69 H70 0.950 . S
C69 C71 1.375 . S
H70 C69 0.950 . S
C71 C69 1.375 . S
C71 C73 1.382 . S
C71 H75 0.950 . S
H72 C67 0.949 . S
C73 C68 1.399 . S
C73 C71 1.382 . S
C73 H74 0.952 . S
H74 C73 0.952 . S
H75 C71 0.950 . S
H76 C77 0.949 . S
C77 H76 0.949 . S
C77 C78 1.395 . S
C77 C79 1.391 . S
C78 C77 1.395 . S
C78 C81 1.390 . S
C79 C77 1.391 . S
C79 C83 1.387 . S
C79 C84 1.491 . S
H80 C81 0.950 1_545 S
C81 C78 1.390 . S
C81 H80 0.950 1_565 S
C81 C82 1.378 . S
C82 C81 1.378 . S
C82 C83 1.409 . S
C83 C79 1.387 . S
C83 C82 1.409 . S
C83 H85 0.951 . S
C84 C79 1.491 . S
C84 C86 1.382 . S
C84 C88 1.404 . S
H85 C83 0.951 . S
C86 C84 1.382 . S
C86 C87 1.390 . S
C86 H91 0.949 . S
C87 C86 1.390 . S
C87 C92 1.399 . S
C88 C84 1.404 . S
C88 H89 0.950 . S
C88 C90 1.375 . S
H89 C88 0.950 . S
C90 C88 1.375 . S
C90 C92 1.382 . S
C90 H94 0.950 . S
H91 C86 0.949 . S
C92 C87 1.399 . S
C92 C90 1.382 . S
C92 H93 0.952 . S
H93 C92 0.952 . S
H94 C90 0.950 . S
H95 C96 0.949 . S
C96 H95 0.949 . S
C96 C97 1.395 . S
C96 C98 1.391 . S
C97 C96 1.395 . S
C97 C100 1.390 . S
C98 C96 1.391 . S
C98 C102 1.387 . S
C98 C103 1.491 . S
H99 C100 0.950 . S
C100 C97 1.390 . S
C100 H99 0.950 . S
C100 C101 1.378 . S
C101 C100 1.378 . S
C101 C102 1.409 . S
C102 C98 1.387 . S
C102 C101 1.409 . S
C102 H104 0.951 . S
C103 C98 1.491 . S
C103 C105 1.382 . S
C103 C107 1.404 . S
H104 C102 0.951 . S
C105 C103 1.382 . S
C105 C106 1.390 . S
C105 H110 0.949 . S
C106 C105 1.390 . S
C106 C111 1.399 . S
C107 C103 1.404 . S
C107 H108 0.950 . S
C107 C109 1.375 . S
H108 C107 0.950 . S
C109 C107 1.375 . S
C109 C111 1.382 . S
C109 H113 0.950 . S
H110 C105 0.949 . S
C111 C106 1.399 . S
C111 C109 1.382 . S
C111 H112 0.952 . S
H112 C111 0.952 . S
H113 C109 0.950 . S
H114 C115 0.949 1_455 S
C115 H114 0.949 1_655 S
C115 C116 1.395 . S
C115 C117 1.391 . S
C116 C115 1.395 . S
C116 C119 1.390 . S
C117 C115 1.391 . S
C117 C121 1.387 . S
C117 C122 1.491 . S
H118 C119 0.950 . S
C119 C116 1.390 . S
C119 H118 0.950 . S
C119 C120 1.378 . S
C120 C119 1.378 . S
C120 C121 1.409 . S
C121 C117 1.387 . S
C121 C120 1.409 . S
C121 H123 0.951 . S
C122 C117 1.491 . S
C122 C124 1.382 1_655 S
C122 C126 1.404 . S
H123 C121 0.951 . S
C124 C122 1.382 1_455 S
C124 C125 1.390 . S
C124 H129 0.949 . S
C125 C124 1.390 . S
C125 C130 1.399 . S
C126 C122 1.404 . S
C126 H127 0.950 . S
C126 C128 1.375 . S
H127 C126 0.950 . S
C128 C126 1.375 . S
C128 C130 1.382 1_655 S
C128 H132 0.950 . S
H129 C124 0.949 . S
C130 C125 1.399 . S
C130 C128 1.382 1_455 S
C130 H131 0.952 . S
H131 C130 0.952 . S
H132 C128 0.950 . S
H133 C134 0.949 . S
C134 H133 0.949 . S
C134 C135 1.395 . S
C134 C136 1.391 . S
C135 C134 1.395 . S
C135 C138 1.390 . S
C136 C134 1.391 . S
C136 C140 1.387 . S
C136 C141 1.491 . S
H137 C138 0.950 . S
C138 C135 1.390 . S
C138 H137 0.950 . S
C138 C139 1.378 . S
C139 C138 1.378 . S
C139 C140 1.409 . S
C140 C136 1.387 . S
C140 C139 1.409 . S
C140 H142 0.951 . S
C141 C136 1.491 . S
C141 C143 1.382 . S
C141 C145 1.404 . S
H142 C140 0.951 . S
C143 C141 1.382 . S
C143 C144 1.390 . S
C143 H148 0.949 . S
C144 C143 1.390 . S
C144 C149 1.399 . S
C145 C141 1.404 . S
C145 H146 0.950 . S
C145 C147 1.375 . S
H146 C145 0.950 . S
C147 C145 1.375 . S
C147 C149 1.382 . S
C147 H151 0.950 . S
H148 C143 0.949 . S
C149 C144 1.399 . S
C149 C147 1.382 . S
C149 H150 0.952 . S
H150 C149 0.952 . S
H151 C147 0.950 . S
H152 C153 0.949 . S
C153 H152 0.949 . S
C153 C154 1.395 . S
C153 C155 1.391 . S
C154 C153 1.395 . S
C154 C157 1.390 . S
C155 C153 1.391 . S
C155 C159 1.387 . S
C155 C160 1.491 . S
H156 C157 0.950 . S
C157 C154 1.390 . S
C157 H156 0.950 . S
C157 C158 1.378 . S
C158 C157 1.378 . S
C158 C159 1.409 . S
C159 C155 1.387 . S
C159 C158 1.409 . S
C159 H161 0.951 . S
C160 C155 1.491 . S
C160 C162 1.382 . S
C160 C164 1.404 . S
H161 C159 0.951 . S
C162 C160 1.382 . S
C162 C163 1.390 . S
C162 H167 0.949 . S
C163 C162 1.390 . S
C163 C168 1.399 . S
C164 C160 1.404 . S
C164 H165 0.950 . S
C164 C166 1.375 . S
H165 C164 0.950 . S
C166 C164 1.375 . S
C166 C168 1.382 . S
C166 H170 0.950 . S
H167 C162 0.949 . S
C168 C163 1.399 . S
C168 C166 1.382 . S
C168 H169 0.952 . S
H169 C168 0.952 . S
H170 C166 0.950 . S
H171 C172 0.949 . S
C172 H171 0.949 . S
C172 C173 1.395 . S
C172 C174 1.391 . S
C173 C172 1.395 . S
C173 C176 1.390 1_565 S
C174 C172 1.391 . S
C174 C178 1.387 . S
C174 C179 1.491 . S
H175 C176 0.950 . S
C176 C173 1.390 1_545 S
C176 H175 0.950 . S
C176 C177 1.378 . S
C177 C176 1.378 . S
C177 C178 1.409 1_545 S
C178 C174 1.387 . S
C178 C177 1.409 1_565 S
C178 H180 0.951 . S
C179 C174 1.491 . S
C179 C181 1.382 . S
C179 C183 1.404 . S
H180 C178 0.951 . S
C181 C179 1.382 . S
C181 C182 1.390 . S
C181 H186 0.949 . S
C182 C181 1.390 . S
C182 C187 1.399 . S
C183 C179 1.404 . S
C183 H184 0.950 . S
C183 C185 1.375 . S
H184 C183 0.950 . S
C185 C183 1.375 . S
C185 C187 1.382 . S
C185 H189 0.950 . S
H186 C181 0.949 . S
C187 C182 1.399 . S
C187 C185 1.382 . S
C187 H188 0.952 . S
H188 C187 0.952 . S
H189 C185 0.950 . S
H190 C191 0.949 . S
C191 H190 0.949 . S
C191 C192 1.395 . S
C191 C193 1.391 . S
C192 C191 1.395 . S
C192 C195 1.390 . S
C193 C191 1.391 . S
C193 C197 1.387 . S
C193 C198 1.491 . S
H194 C195 0.950 . S
C195 C192 1.390 . S
C195 H194 0.950 . S
C195 C196 1.378 . S
C196 C195 1.378 . S
C196 C197 1.409 . S
C197 C193 1.387 . S
C197 C196 1.409 . S
C197 H199 0.951 . S
C198 C193 1.491 . S
C198 C200 1.382 . S
C198 C202 1.404 . S
H199 C197 0.951 . S
C200 C198 1.382 . S
C200 C201 1.390 . S
C200 H205 0.949 . S
C201 C200 1.390 . S
C201 C206 1.399 . S
C202 C198 1.404 . S
C202 H203 0.950 . S
C202 C204 1.375 . S
H203 C202 0.950 . S
C204 C202 1.375 . S
C204 C206 1.382 . S
C204 H208 0.950 . S
H205 C200 0.949 . S
C206 C201 1.399 . S
C206 C204 1.382 . S
C206 H207 0.952 . S
H207 C206 0.952 . S
H208 C204 0.950 . S
H209 C210 0.949 . S
C210 H209 0.949 . S
C210 C211 1.395 . S
C210 C212 1.391 . S
C211 C210 1.395 . S
C211 C214 1.390 . S
C212 C210 1.391 . S
C212 C216 1.387 . S
C212 C217 1.491 . S
H213 C214 0.950 . S
C214 C211 1.390 . S
C214 H213 0.950 . S
C214 C215 1.378 . S
C215 C214 1.378 . S
C215 C216 1.409 . S
C216 C212 1.387 . S
C216 C215 1.409 . S
C216 H218 0.951 . S
C217 C212 1.491 . S
C217 C219 1.382 . S
C217 C221 1.404 . S
H218 C216 0.951 . S
C219 C217 1.382 . S
C219 C220 1.390 . S
C219 H224 0.949 . S
C220 C219 1.390 . S
C220 C225 1.399 . S
C221 C217 1.404 . S
C221 H222 0.950 . S
C221 C223 1.375 . S
H222 C221 0.950 . S
C223 C221 1.375 . S
C223 C225 1.382 . S
C223 H227 0.950 . S
H224 C219 0.949 . S
C225 C220 1.399 . S
C225 C223 1.382 . S
C225 H226 0.952 . S
H226 C225 0.952 . S
H227 C223 0.950 . S
H228 C229 0.949 . S
C229 H228 0.949 . S
C229 C230 1.395 . S
C229 C231 1.391 . S
C230 C229 1.395 . S
C230 C233 1.390 . S
C231 C229 1.391 . S
C231 C235 1.387 . S
C231 C236 1.491 . S
H232 C233 0.950 . S
C233 C230 1.390 . S
C233 H232 0.950 . S
C233 C234 1.378 . S
C234 C233 1.378 . S
C234 C235 1.409 . S
C235 C231 1.387 . S
C235 C234 1.409 . S
C235 H237 0.951 . S
C236 C231 1.491 . S
C236 C238 1.382 . S
C236 C240 1.404 . S
H237 C235 0.951 . S
C238 C236 1.382 . S
C238 C239 1.390 . S
C238 H243 0.949 . S
C239 C238 1.390 . S
C239 C244 1.399 . S
C240 C236 1.404 . S
C240 H241 0.950 . S
C240 C242 1.375 . S
H241 C240 0.950 . S
C242 C240 1.375 . S
C242 C244 1.382 . S
C242 H246 0.950 . S
H243 C238 0.949 . S
C244 C239 1.399 . S
C244 C242 1.382 . S
C244 H245 0.952 . S
H245 C244 0.952 . S
H246 C242 0.950 . S
H247 C248 0.949 1_554 S
C248 H247 0.949 1_556 S
C248 C249 1.395 . S
C248 C250 1.391 . S
C249 C248 1.395 . S
C249 C252 1.390 . S
C250 C248 1.391 . S
C250 C254 1.387 . S
C250 C255 1.491 . S
H251 C252 0.950 . S
C252 C249 1.390 . S
C252 H251 0.950 . S
C252 C253 1.378 . S
C253 C252 1.378 . S
C253 C254 1.409 . S
C254 C250 1.387 . S
C254 C253 1.409 . S
C254 H256 0.951 . S
C255 C250 1.491 . S
C255 C257 1.382 1_556 S
C255 C259 1.404 . S
H256 C254 0.951 . S
C257 C255 1.382 1_554 S
C257 C258 1.390 . S
C257 H262 0.949 . S
C258 C257 1.390 . S
C258 C263 1.399 . S
C259 C255 1.404 . S
C259 H260 0.950 . S
C259 C261 1.375 . S
H260 C259 0.950 . S
C261 C259 1.375 . S
C261 C263 1.382 1_556 S
C261 H265 0.950 . S
H262 C257 0.949 . S
C263 C258 1.399 . S
C263 C261 1.382 1_554 S
C263 H264 0.952 . S
H264 C263 0.952 . S
H265 C261 0.950 . S
H266 C267 0.949 . S
C267 H266 0.949 . S
C267 C268 1.395 . S
C267 C269 1.391 . S
C268 C267 1.395 . S
C268 C271 1.390 . S
C269 C267 1.391 . S
C269 C273 1.387 . S
C269 C274 1.491 . S
H270 C271 0.950 . S
C271 C268 1.390 . S
C271 H270 0.950 . S
C271 C272 1.378 . S
C272 C271 1.378 . S
C272 C273 1.409 . S
C273 C269 1.387 . S
C273 C272 1.409 . S
C273 H275 0.951 . S
C274 C269 1.491 . S
C274 C276 1.382 . S
C274 C278 1.404 . S
H275 C273 0.951 . S
C276 C274 1.382 . S
C276 C277 1.390 . S
C276 H281 0.949 . S
C277 C276 1.390 . S
C277 C282 1.399 . S
C278 C274 1.404 . S
C278 H279 0.950 . S
C278 C280 1.375 . S
H279 C278 0.950 . S
C280 C278 1.375 . S
C280 C282 1.382 . S
C280 H284 0.950 . S
H281 C276 0.949 . S
C282 C277 1.399 . S
C282 C280 1.382 . S
C282 H283 0.952 . S
H283 C282 0.952 . S
H284 C280 0.950 . S
H285 C286 0.949 . S
C286 H285 0.949 . S
C286 C287 1.395 . S
C286 C288 1.391 . S
C287 C286 1.395 . S
C287 C290 1.390 . S
C288 C286 1.391 . S
C288 C292 1.387 . S
C288 C293 1.491 . S
H289 C290 0.950 1_554 S
C290 C287 1.390 . S
C290 H289 0.950 1_556 S
C290 C291 1.378 . S
C291 C290 1.378 . S
C291 C292 1.409 . S
C292 C288 1.387 . S
C292 C291 1.409 . S
C292 H294 0.951 . S
C293 C288 1.491 . S
C293 C295 1.382 . S
C293 C297 1.404 . S
H294 C292 0.951 . S
C295 C293 1.382 . S
C295 C296 1.390 . S
C295 H300 0.949 . S
C296 C295 1.390 . S
C296 C301 1.399 . S
C297 C293 1.404 . S
C297 H298 0.950 . S
C297 C299 1.375 . S
H298 C297 0.950 . S
C299 C297 1.375 . S
C299 C301 1.382 . S
C299 H303 0.950 . S
H300 C295 0.949 . S
C301 C296 1.399 . S
C301 C299 1.382 . S
C301 H302 0.952 . S
H302 C301 0.952 . S
H303 C299 0.950 . S
Mn304 O309 2.095 . S
Mn304 O319 2.162 . S
Mn304 O320 2.297 . S
Mn304 O328 2.385 . S
Mn304 O329 2.209 . S
Mn304 O330 2.094 . S
Mn305 O310 2.121 1_556 S
Mn305 N312 2.257 . S
Mn305 N321 2.282 . S
Mn305 O329 2.215 1_556 S
Mn305 O331 2.117 1_556 S
C306 O328 1.234 . S
C306 O329 1.283 . S
C307 O319 1.281 . S
C307 O320 1.236 . S
C308 O330 1.240 . S
C308 O331 1.264 . S
O309 Mn304 2.095 . S
O309 C318 1.250 . S
O310 Mn305 2.121 1_554 S
O310 C318 1.258 . S
C311 N312 1.326 . S
C311 C315 1.460 . S
C311 H317 0.929 . S
N312 Mn305 2.257 . S
N312 C311 1.326 . S
N312 C316 1.362 . S
C313 C314 1.258 . S
C313 C316 1.431 . S
C313 C333 1.449 . S
C314 C313 1.258 . S
C314 C315 1.477 . S
C314 H334 0.931 . S
C315 C311 1.460 . S
C315 C314 1.477 . S
C315 H335 0.930 . S
C316 N312 1.362 . S
C316 C313 1.431 . S
C316 C326 1.476 . S
H317 C311 0.929 . S
C318 O309 1.250 . S
C318 O310 1.258 . S
O319 Mn304 2.162 . S
O319 C307 1.281 . S
O320 Mn304 2.297 . S
O320 C307 1.236 . S
N321 Mn305 2.282 . S
N321 C322 1.328 . S
N321 C326 1.318 . S
C322 N321 1.328 . S
C322 C323 1.457 . S
C322 H327 0.929 . S
C323 C322 1.457 . S
C323 C324 1.291 . S
C323 H336 0.931 . S
C324 C323 1.291 . S
C324 C325 1.373 . S
C324 H337 0.929 . S
C325 C324 1.373 . S
C325 C326 1.396 . S
C325 C332 1.403 . S
C326 C316 1.476 . S
C326 N321 1.318 . S
C326 C325 1.396 . S
H327 C322 0.929 . S
O328 Mn304 2.385 . S
O328 C306 1.234 . S
O329 Mn304 2.209 . S
O329 Mn305 2.215 1_554 S
O329 C306 1.283 . S
O330 Mn304 2.094 . S
O330 C308 1.240 . S
O331 Mn305 2.117 1_554 S
O331 C308 1.264 . S
C332 C325 1.403 . S
C332 C333 1.399 . S
C332 H338 0.929 . S
C333 C313 1.449 . S
C333 C332 1.399 . S
C333 H339 0.930 . S
H334 C314 0.931 . S
H335 C315 0.930 . S
H336 C323 0.931 . S
H337 C324 0.929 . S
H338 C332 0.929 . S
H339 C333 0.930 . S
Mn340 O345 2.095 . S
Mn340 O355 2.162 . S
Mn340 O356 2.297 . S
Mn340 O364 2.385 . S
Mn340 O365 2.209 . S
Mn340 O366 2.094 . S
Mn341 O346 2.121 . S
Mn341 N348 2.257 . S
Mn341 N357 2.282 . S
Mn341 O365 2.215 . S
Mn341 O367 2.117 . S
C342 O364 1.234 . S
C342 O365 1.283 . S
C343 O355 1.281 . S
C343 O356 1.236 . S
C344 O366 1.240 . S
C344 O367 1.264 . S
O345 Mn340 2.095 . S
O345 C354 1.250 . S
O346 Mn341 2.121 . S
O346 C354 1.258 . S
C347 N348 1.326 . S
C347 C351 1.460 . S
C347 H353 0.929 . S
N348 Mn341 2.257 . S
N348 C347 1.326 . S
N348 C352 1.362 . S
C349 C350 1.258 . S
C349 C352 1.431 . S
C349 C369 1.449 . S
C350 C349 1.258 . S
C350 C351 1.477 . S
C350 H370 0.931 . S
C351 C347 1.460 . S
C351 C350 1.477 . S
C351 H371 0.930 . S
C352 N348 1.362 . S
C352 C349 1.431 . S
C352 C362 1.476 . S
H353 C347 0.929 . S
C354 O345 1.250 . S
C354 O346 1.258 . S
O355 Mn340 2.162 . S
O355 C343 1.281 . S
O356 Mn340 2.297 . S
O356 C343 1.236 . S
N357 Mn341 2.282 . S
N357 C358 1.328 . S
N357 C362 1.318 . S
C358 N357 1.328 . S
C358 C359 1.457 . S
C358 H363 0.929 . S
C359 C358 1.457 . S
C359 C360 1.291 . S
C359 H372 0.931 . S
C360 C359 1.291 . S
C360 C361 1.373 . S
C360 H373 0.929 . S
C361 C360 1.373 . S
C361 C362 1.396 . S
C361 C368 1.403 . S
C362 C352 1.476 . S
C362 N357 1.318 . S
C362 C361 1.396 . S
H363 C358 0.929 . S
O364 Mn340 2.385 . S
O364 C342 1.234 . S
O365 Mn340 2.209 . S
O365 Mn341 2.215 . S
O365 C342 1.283 . S
O366 Mn340 2.094 . S
O366 C344 1.240 . S
O367 Mn341 2.117 . S
O367 C344 1.264 . S
C368 C361 1.403 . S
C368 C369 1.399 . S
C368 H374 0.929 . S
C369 C349 1.449 . S
C369 C368 1.399 . S
C369 H375 0.930 . S
H370 C350 0.931 . S
H371 C351 0.930 . S
H372 C359 0.931 . S
H373 C360 0.929 . S
H374 C368 0.929 . S
H375 C369 0.930 . S
Mn376 O381 2.095 1_554 S
Mn376 O391 2.162 . S
Mn376 O392 2.297 1_554 S
Mn376 O400 2.385 . S
Mn376 O401 2.209 1_554 S
Mn376 O402 2.094 . S
Mn377 O382 2.121 . S
Mn377 N384 2.257 . S
Mn377 N393 2.282 1_556 S
Mn377 O401 2.215 . S
Mn377 O403 2.117 1_556 S
C378 O400 1.253 . S
C378 O401 1.266 1_554 S
C379 O391 1.257 1_556 S
C379 O392 1.259 . S
C380 O402 1.240 . S
C380 O403 1.264 . S
O381 Mn376 2.095 1_556 S
O381 C390 1.250 . S
O382 Mn377 2.121 . S
O382 C390 1.258 . S
C383 N384 1.326 . S
C383 C387 1.460 . S
C383 H389 0.929 . S
N384 Mn377 2.257 . S
N384 C383 1.326 . S
N384 C388 1.362 . S
C385 C386 1.258 . S
C385 C388 1.431 . S
C385 C405 1.449 . S
C386 C385 1.258 . S
C386 C387 1.477 . S
C386 H406 0.931 . S
C387 C383 1.460 . S
C387 C386 1.477 . S
C387 H407 0.930 . S
C388 N384 1.362 . S
C388 C385 1.431 . S
C388 C398 1.476 . S
H389 C383 0.929 . S
C390 O381 1.250 . S
C390 O382 1.258 . S
O391 Mn376 2.162 . S
O391 C379 1.257 1_554 S
O392 Mn376 2.297 1_556 S
O392 C379 1.259 . S
N393 Mn377 2.282 1_554 S
N393 C394 1.328 . S
N393 C398 1.318 1_554 S
C394 N393 1.328 . S
C394 C395 1.457 . S
C394 H399 0.929 . S
C395 C394 1.457 . S
C395 C396 1.291 . S
C395 H408 0.931 . S
C396 C395 1.291 . S
C396 C397 1.373 1_554 S
C396 H409 0.929 . S
C397 C396 1.373 1_556 S
C397 C398 1.396 . S
C397 C404 1.403 . S
C398 C388 1.476 . S
C398 N393 1.318 1_556 S
C398 C397 1.396 . S
H399 C394 0.929 . S
O400 Mn376 2.385 . S
O400 C378 1.253 . S
O401 Mn376 2.209 1_556 S
O401 Mn377 2.215 . S
O401 C378 1.266 1_556 S
O402 Mn376 2.094 . S
O402 C380 1.240 . S
O403 Mn377 2.117 1_554 S
O403 C380 1.264 . S
C404 C397 1.403 . S
C404 C405 1.399 . S
C404 H410 0.929 . S
C405 C385 1.449 . S
C405 C404 1.399 . S
C405 H411 0.930 . S
H406 C386 0.931 . S
H407 C387 0.930 . S
H408 C395 0.931 . S
H409 C396 0.929 . S
H410 C404 0.929 . S
H411 C405 0.930 . S
Mn412 O417 2.095 . S
Mn412 O427 2.162 . S
Mn412 O428 2.297 . S
Mn412 O436 2.385 . S
Mn412 O437 2.209 1_545 S
Mn412 O438 2.094 . S
Mn413 O418 2.121 . S
Mn413 N420 2.257 . S
Mn413 N429 2.282 . S
Mn413 O437 2.215 . S
Mn413 O439 2.117 1_565 S
C414 O436 1.234 1_565 S
C414 O437 1.283 . S
C415 O427 1.281 . S
C415 O428 1.236 . S
C416 O438 1.240 . S
C416 O439 1.264 . S
O417 Mn412 2.095 . S
O417 C426 1.250 . S
O418 Mn413 2.121 . S
O418 C426 1.258 1_565 S
C419 N420 1.326 . S
C419 C423 1.460 . S
C419 H425 0.929 . S
N420 Mn413 2.257 . S
N420 C419 1.326 . S
N420 C424 1.362 . S
C421 C422 1.258 . S
C421 C424 1.431 . S
C421 C441 1.449 . S
C422 C421 1.258 . S
C422 C423 1.477 . S
C422 H442 0.931 . S
C423 C419 1.460 . S
C423 C422 1.477 . S
C423 H443 0.930 . S
C424 N420 1.362 . S
C424 C421 1.431 . S
C424 C434 1.476 . S
H425 C419 0.929 . S
C426 O417 1.250 . S
C426 O418 1.258 1_545 S
O427 Mn412 2.162 . S
O427 C415 1.281 . S
O428 Mn412 2.297 . S
O428 C415 1.236 . S
N429 Mn413 2.282 . S
N429 C430 1.328 . S
N429 C434 1.318 . S
C430 N429 1.328 . S
C430 C431 1.457 . S
C430 H435 0.929 . S
C431 C430 1.457 . S
C431 C432 1.291 . S
C431 H444 0.931 . S
C432 C431 1.291 . S
C432 C433 1.373 . S
C432 H445 0.929 . S
C433 C432 1.373 . S
C433 C434 1.396 . S
C433 C440 1.403 . S
C434 C424 1.476 . S
C434 N429 1.318 . S
C434 C433 1.396 . S
H435 C430 0.929 . S
O436 Mn412 2.385 . S
O436 C414 1.234 1_545 S
O437 Mn412 2.209 1_565 S
O437 Mn413 2.215 . S
O437 C414 1.283 . S
O438 Mn412 2.094 . S
O438 C416 1.240 . S
O439 Mn413 2.117 1_545 S
O439 C416 1.264 . S
C440 C433 1.403 . S
C440 C441 1.399 . S
C440 H446 0.929 . S
C441 C421 1.449 . S
C441 C440 1.399 . S
C441 H447 0.930 . S
H442 C422 0.931 . S
H443 C423 0.930 . S
H444 C431 0.931 . S
H445 C432 0.929 . S
H446 C440 0.929 . S
H447 C441 0.930 . S
Mn448 O453 2.095 . S
Mn448 O463 2.162 . S
Mn448 O464 2.297 . S
Mn448 O472 2.385 . S
Mn448 O473 2.209 . S
Mn448 O474 2.094 . S
Mn449 O454 2.121 . S
Mn449 N456 2.257 . S
Mn449 N465 2.282 . S
Mn449 O473 2.215 . S
Mn449 O475 2.117 . S
C450 O472 1.234 . S
C450 O473 1.283 . S
C451 O463 1.281 . S
C451 O464 1.236 . S
C452 O474 1.240 . S
C452 O475 1.264 . S
O453 Mn448 2.095 . S
O453 C462 1.250 . S
O454 Mn449 2.121 . S
O454 C462 1.258 . S
C455 N456 1.326 . S
C455 C459 1.460 . S
C455 H461 0.929 . S
N456 Mn449 2.257 . S
N456 C455 1.326 . S
N456 C460 1.362 . S
C457 C458 1.258 . S
C457 C460 1.431 . S
C457 C477 1.449 . S
C458 C457 1.258 . S
C458 C459 1.477 . S
C458 H478 0.931 . S
C459 C455 1.460 . S
C459 C458 1.477 . S
C459 H479 0.930 . S
C460 N456 1.362 . S
C460 C457 1.431 . S
C460 C470 1.476 . S
H461 C455 0.929 . S
C462 O453 1.250 . S
C462 O454 1.258 . S
O463 Mn448 2.162 . S
O463 C451 1.281 . S
O464 Mn448 2.297 . S
O464 C451 1.236 . S
N465 Mn449 2.282 . S
N465 C466 1.328 . S
N465 C470 1.318 . S
C466 N465 1.328 . S
C466 C467 1.457 . S
C466 H471 0.929 . S
C467 C466 1.457 . S
C467 C468 1.291 . S
C467 H480 0.931 . S
C468 C467 1.291 . S
C468 C469 1.373 . S
C468 H481 0.929 . S
C469 C468 1.373 . S
C469 C470 1.396 . S
C469 C476 1.403 . S
C470 C460 1.476 . S
C470 N465 1.318 . S
C470 C469 1.396 . S
H471 C466 0.929 . S
O472 Mn448 2.385 . S
O472 C450 1.234 . S
O473 Mn448 2.209 . S
O473 Mn449 2.215 . S
O473 C450 1.283 . S
O474 Mn448 2.094 . S
O474 C452 1.240 . S
O475 Mn449 2.117 . S
O475 C452 1.264 . S
C476 C469 1.403 . S
C476 C477 1.399 . S
C476 H482 0.929 . S
C477 C457 1.449 . S
C477 C476 1.399 . S
C477 H483 0.930 . S
H478 C458 0.931 . S
H479 C459 0.930 . S
H480 C467 0.931 . S
H481 C468 0.929 . S
H482 C476 0.929 . S
H483 C477 0.930 . S
Mn484 O489 2.095 . S
Mn484 O499 2.162 . S
Mn484 O500 2.297 . S
Mn484 O508 2.385 . S
Mn484 O509 2.209 . S
Mn484 O510 2.094 . S
Mn485 O490 2.121 . S
Mn485 N492 2.257 . S
Mn485 N501 2.282 . S
Mn485 O509 2.215 . S
Mn485 O511 2.117 . S
C486 O508 1.234 . S
C486 O509 1.283 . S
C487 O499 1.281 . S
C487 O500 1.236 . S
C488 O510 1.240 . S
C488 O511 1.264 . S
O489 Mn484 2.095 . S
O489 C498 1.250 . S
O490 Mn485 2.121 . S
O490 C498 1.258 . S
C491 N492 1.326 . S
C491 C495 1.460 . S
C491 H497 0.929 . S
N492 Mn485 2.257 . S
N492 C491 1.326 . S
N492 C496 1.362 . S
C493 C494 1.258 . S
C493 C496 1.431 . S
C493 C513 1.449 . S
C494 C493 1.258 . S
C494 C495 1.477 . S
C494 H514 0.931 . S
C495 C491 1.460 . S
C495 C494 1.477 . S
C495 H515 0.930 . S
C496 N492 1.362 . S
C496 C493 1.431 . S
C496 C506 1.476 . S
H497 C491 0.929 . S
C498 O489 1.250 . S
C498 O490 1.258 . S
O499 Mn484 2.162 . S
O499 C487 1.281 . S
O500 Mn484 2.297 . S
O500 C487 1.236 . S
N501 Mn485 2.282 . S
N501 C502 1.328 . S
N501 C506 1.318 . S
C502 N501 1.328 . S
C502 C503 1.457 . S
C502 H507 0.929 . S
C503 C502 1.457 . S
C503 C504 1.291 . S
C503 H516 0.931 . S
C504 C503 1.291 . S
C504 C505 1.373 . S
C504 H517 0.929 . S
C505 C504 1.373 . S
C505 C506 1.396 . S
C505 C512 1.403 . S
C506 C496 1.476 . S
C506 N501 1.318 . S
C506 C505 1.396 . S
H507 C502 0.929 . S
O508 Mn484 2.385 . S
O508 C486 1.234 . S
O509 Mn484 2.209 . S
O509 Mn485 2.215 . S
O509 C486 1.283 . S
O510 Mn484 2.094 . S
O510 C488 1.240 . S
O511 Mn485 2.117 . S
O511 C488 1.264 . S
C512 C505 1.403 . S
C512 C513 1.399 . S
C512 H518 0.929 . S
C513 C493 1.449 . S
C513 C512 1.399 . S
C513 H519 0.930 . S
H514 C494 0.931 . S
H515 C495 0.930 . S
H516 C503 0.931 . S
H517 C504 0.929 . S
H518 C512 0.929 . S
H519 C513 0.930 . S
Mn520 O525 2.095 . S
Mn520 O535 2.162 . S
Mn520 O536 2.297 . S
Mn520 O544 2.385 . S
Mn520 O545 2.209 . S
Mn520 O546 2.094 . S
Mn521 O526 2.121 . S
Mn521 N528 2.257 . S
Mn521 N537 2.282 . S
Mn521 O545 2.215 . S
Mn521 O547 2.117 . S
C522 O544 1.234 . S
C522 O545 1.283 . S
C523 O535 1.281 . S
C523 O536 1.236 . S
C524 O546 1.240 . S
C524 O547 1.264 . S
O525 Mn520 2.095 . S
O525 C534 1.250 . S
O526 Mn521 2.121 . S
O526 C534 1.258 . S
C527 N528 1.326 . S
C527 C531 1.460 . S
C527 H533 0.929 . S
N528 Mn521 2.257 . S
N528 C527 1.326 . S
N528 C532 1.362 . S
C529 C530 1.258 . S
C529 C532 1.431 . S
C529 C549 1.449 . S
C530 C529 1.258 . S
C530 C531 1.477 . S
C530 H550 0.931 . S
C531 C527 1.460 . S
C531 C530 1.477 . S
C531 H551 0.930 . S
C532 N528 1.362 . S
C532 C529 1.431 . S
C532 C542 1.476 . S
H533 C527 0.929 . S
C534 O525 1.250 . S
C534 O526 1.258 . S
O535 Mn520 2.162 . S
O535 C523 1.281 . S
O536 Mn520 2.297 . S
O536 C523 1.236 . S
N537 Mn521 2.282 . S
N537 C538 1.328 . S
N537 C542 1.318 . S
C538 N537 1.328 . S
C538 C539 1.457 . S
C538 H543 0.929 . S
C539 C538 1.457 . S
C539 C540 1.291 . S
C539 H552 0.931 . S
C540 C539 1.291 . S
C540 C541 1.373 . S
C540 H553 0.929 . S
C541 C540 1.373 . S
C541 C542 1.396 . S
C541 C548 1.403 . S
C542 C532 1.476 . S
C542 N537 1.318 . S
C542 C541 1.396 . S
H543 C538 0.929 . S
O544 Mn520 2.385 . S
O544 C522 1.234 . S
O545 Mn520 2.209 . S
O545 Mn521 2.215 . S
O545 C522 1.283 . S
O546 Mn520 2.094 . S
O546 C524 1.240 . S
O547 Mn521 2.117 . S
O547 C524 1.264 . S
C548 C541 1.403 . S
C548 C549 1.399 . S
C548 H554 0.929 . S
C549 C529 1.449 . S
C549 C548 1.399 . S
C549 H555 0.930 . S
H550 C530 0.931 . S
H551 C531 0.930 . S
H552 C539 0.931 . S
H553 C540 0.929 . S
H554 C548 0.929 . S
H555 C549 0.930 . S
Mn556 O561 2.095 . S
Mn556 O571 2.162 1_545 S
Mn556 O572 2.297 . S
Mn556 O580 2.385 . S
Mn556 O581 2.209 . S
Mn556 O582 2.094 . S
Mn557 O562 2.121 . S
Mn557 N564 2.257 . S
Mn557 N573 2.282 . S
Mn557 O581 2.215 . S
Mn557 O583 2.117 . S
C558 O580 1.234 . S
C558 O581 1.283 . S
C559 O571 1.281 . S
C559 O572 1.236 1_565 S
C560 O582 1.240 . S
C560 O583 1.264 . S
O561 Mn556 2.095 . S
O561 C570 1.250 . S
O562 Mn557 2.121 . S
O562 C570 1.258 . S
C563 N564 1.326 . S
C563 C567 1.460 . S
C563 H569 0.929 . S
N564 Mn557 2.257 . S
N564 C563 1.326 . S
N564 C568 1.362 . S
C565 C566 1.258 . S
C565 C568 1.431 . S
C565 C585 1.449 . S
C566 C565 1.258 . S
C566 C567 1.477 . S
C566 H586 0.931 . S
C567 C563 1.460 . S
C567 C566 1.477 . S
C567 H587 0.930 . S
C568 N564 1.362 . S
C568 C565 1.431 . S
C568 C578 1.476 . S
H569 C563 0.929 . S
C570 O561 1.250 . S
C570 O562 1.258 . S
O571 Mn556 2.162 1_565 S
O571 C559 1.281 . S
O572 Mn556 2.297 . S
O572 C559 1.236 1_545 S
N573 Mn557 2.282 . S
N573 C574 1.328 . S
N573 C578 1.318 . S
C574 N573 1.328 . S
C574 C575 1.457 . S
C574 H579 0.929 . S
C575 C574 1.457 . S
C575 C576 1.291 . S
C575 H588 0.931 . S
C576 C575 1.291 . S
C576 C577 1.373 . S
C576 H589 0.929 . S
C577 C576 1.373 . S
C577 C578 1.396 . S
C577 C584 1.403 . S
C578 C568 1.476 . S
C578 N573 1.318 . S
C578 C577 1.396 . S
H579 C574 0.929 . S
O580 Mn556 2.385 . S
O580 C558 1.234 . S
O581 Mn556 2.209 . S
O581 Mn557 2.215 . S
O581 C558 1.283 . S
O582 Mn556 2.094 . S
O582 C560 1.240 . S
O583 Mn557 2.117 . S
O583 C560 1.264 . S
C584 C577 1.403 . S
C584 C585 1.399 . S
C584 H590 0.929 . S
C585 C565 1.449 . S
C585 C584 1.399 . S
C585 H591 0.930 . S
H586 C566 0.931 . S
H587 C567 0.930 . S
H588 C575 0.931 . S
H589 C576 0.929 . S
H590 C584 0.929 . S
H591 C585 0.930 . S
Mn592 O597 2.095 . S
Mn592 O607 2.162 . S
Mn592 O608 2.297 . S
Mn592 O616 2.385 . S
Mn592 O617 2.209 1_455 S
Mn592 O618 2.094 . S
Mn593 O598 2.121 . S
Mn593 N600 2.257 . S
Mn593 N609 2.282 . S
Mn593 O617 2.215 . S
Mn593 O619 2.117 . S
C594 O616 1.234 1_655 S
C594 O617 1.283 . S
C595 O607 1.281 . S
C595 O608 1.236 . S
C596 O618 1.240 . S
C596 O619 1.264 1_455 S
O597 Mn592 2.095 . S
O597 C606 1.250 . S
O598 Mn593 2.121 . S
O598 C606 1.258 1_655 S
C599 N600 1.326 . S
C599 C603 1.460 . S
C599 H605 0.929 . S
N600 Mn593 2.257 . S
N600 C599 1.326 . S
N600 C604 1.362 . S
C601 C602 1.258 . S
C601 C604 1.431 . S
C601 C621 1.449 . S
C602 C601 1.258 . S
C602 C603 1.477 . S
C602 H622 0.931 . S
C603 C599 1.460 . S
C603 C602 1.477 . S
C603 H623 0.930 . S
C604 N600 1.362 . S
C604 C601 1.431 . S
C604 C614 1.476 . S
H605 C599 0.929 . S
C606 O597 1.250 . S
C606 O598 1.258 1_455 S
O607 Mn592 2.162 . S
O607 C595 1.281 . S
O608 Mn592 2.297 . S
O608 C595 1.236 . S
N609 Mn593 2.282 . S
N609 C610 1.328 . S
N609 C614 1.318 . S
C610 N609 1.328 . S
C610 C611 1.457 . S
C610 H615 0.929 . S
C611 C610 1.457 . S
C611 C612 1.291 . S
C611 H624 0.931 . S
C612 C611 1.291 . S
C612 C613 1.373 . S
C612 H625 0.929 . S
C613 C612 1.373 . S
C613 C614 1.396 . S
C613 C620 1.403 . S
C614 C604 1.476 . S
C614 N609 1.318 . S
C614 C613 1.396 . S
H615 C610 0.929 . S
O616 Mn592 2.385 . S
O616 C594 1.234 1_455 S
O617 Mn592 2.209 1_655 S
O617 Mn593 2.215 . S
O617 C594 1.283 . S
O618 Mn592 2.094 . S
O618 C596 1.240 . S
O619 Mn593 2.117 . S
O619 C596 1.264 1_655 S
C620 C613 1.403 . S
C620 C621 1.399 . S
C620 H626 0.929 . S
C621 C601 1.449 . S
C621 C620 1.399 . S
C621 H627 0.930 . S
H622 C602 0.931 . S
H623 C603 0.930 . S
H624 C611 0.931 . S
H625 C612 0.929 . S
H626 C620 0.929 . S
H627 C621 0.930 . S
Mn628 O633 2.095 . S
Mn628 O643 2.162 . S
Mn628 O644 2.297 . S
Mn628 O652 2.385 . S
Mn628 O653 2.209 . S
Mn628 O654 2.094 . S
Mn629 O634 2.121 . S
Mn629 N636 2.257 . S
Mn629 N645 2.282 . S
Mn629 O653 2.215 . S
Mn629 O655 2.117 . S
C630 O652 1.234 . S
C630 O653 1.283 . S
C631 O643 1.281 . S
C631 O644 1.236 . S
C632 O654 1.240 . S
C632 O655 1.264 . S
O633 Mn628 2.095 . S
O633 C642 1.250 . S
O634 Mn629 2.121 . S
O634 C642 1.258 . S
C635 N636 1.326 . S
C635 C639 1.460 . S
C635 H641 0.929 . S
N636 Mn629 2.257 . S
N636 C635 1.326 . S
N636 C640 1.362 . S
C637 C638 1.258 . S
C637 C640 1.431 . S
C637 C657 1.449 . S
C638 C637 1.258 . S
C638 C639 1.477 . S
C638 H658 0.931 . S
C639 C635 1.460 . S
C639 C638 1.477 . S
C639 H659 0.930 . S
C640 N636 1.362 . S
C640 C637 1.431 . S
C640 C650 1.476 . S
H641 C635 0.929 . S
C642 O633 1.250 . S
C642 O634 1.258 . S
O643 Mn628 2.162 . S
O643 C631 1.281 . S
O644 Mn628 2.297 . S
O644 C631 1.236 . S
N645 Mn629 2.282 . S
N645 C646 1.328 . S
N645 C650 1.318 . S
C646 N645 1.328 . S
C646 C647 1.457 . S
C646 H651 0.929 . S
C647 C646 1.457 . S
C647 C648 1.291 . S
C647 H660 0.931 . S
C648 C647 1.291 . S
C648 C649 1.373 . S
C648 H661 0.929 . S
C649 C648 1.373 . S
C649 C650 1.396 . S
C649 C656 1.403 . S
C650 C640 1.476 . S
C650 N645 1.318 . S
C650 C649 1.396 . S
H651 C646 0.929 . S
O652 Mn628 2.385 . S
O652 C630 1.234 . S
O653 Mn628 2.209 . S
O653 Mn629 2.215 . S
O653 C630 1.283 . S
O654 Mn628 2.094 . S
O654 C632 1.240 . S
O655 Mn629 2.117 . S
O655 C632 1.264 . S
C656 C649 1.403 . S
C656 C657 1.399 . S
C656 H662 0.929 . S
C657 C637 1.449 . S
C657 C656 1.399 . S
C657 H663 0.930 . S
H658 C638 0.931 . S
H659 C639 0.930 . S
H660 C647 0.931 . S
H661 C648 0.929 . S
H662 C656 0.929 . S
H663 C657 0.930 . S
Mn664 O669 2.095 1_455 S
Mn664 O679 2.162 . S
Mn664 O680 2.297 1_455 S
Mn664 O688 2.385 . S
Mn664 O689 2.209 1_455 S
Mn664 O690 2.094 . S
Mn665 O670 2.121 . S
Mn665 N672 2.257 . S
Mn665 N681 2.282 . S
Mn665 O689 2.215 . S
Mn665 O691 2.117 1_655 S
C666 O688 1.234 . S
C666 O689 1.283 1_455 S
C667 O679 1.281 . S
C667 O680 1.236 1_455 S
C668 O690 1.240 . S
C668 O691 1.264 . S
O669 Mn664 2.095 1_655 S
O669 C678 1.250 . S
O670 Mn665 2.121 . S
O670 C678 1.258 . S
C671 N672 1.326 . S
C671 C675 1.460 . S
C671 H677 0.929 . S
N672 Mn665 2.257 . S
N672 C671 1.326 . S
N672 C676 1.362 . S
C673 C674 1.258 . S
C673 C676 1.431 . S
C673 C693 1.449 . S
C674 C673 1.258 . S
C674 C675 1.477 . S
C674 H694 0.931 . S
C675 C671 1.460 . S
C675 C674 1.477 . S
C675 H695 0.930 . S
C676 N672 1.362 . S
C676 C673 1.431 . S
C676 C686 1.476 . S
H677 C671 0.929 . S
C678 O669 1.250 . S
C678 O670 1.258 . S
O679 Mn664 2.162 . S
O679 C667 1.281 . S
O680 Mn664 2.297 1_655 S
O680 C667 1.236 1_655 S
N681 Mn665 2.282 . S
N681 C682 1.328 1_655 S
N681 C686 1.318 . S
C682 N681 1.328 1_455 S
C682 C683 1.457 . S
C682 H687 0.929 . S
C683 C682 1.457 . S
C683 C684 1.291 . S
C683 H696 0.931 . S
C684 C683 1.291 . S
C684 C685 1.373 1_455 S
C684 H697 0.929 . S
C685 C684 1.373 1_655 S
C685 C686 1.396 . S
C685 C692 1.403 . S
C686 C676 1.476 . S
C686 N681 1.318 . S
C686 C685 1.396 . S
H687 C682 0.929 . S
O688 Mn664 2.385 . S
O688 C666 1.234 . S
O689 Mn664 2.209 1_655 S
O689 Mn665 2.215 . S
O689 C666 1.283 1_655 S
O690 Mn664 2.094 . S
O690 C668 1.240 . S
O691 Mn665 2.117 1_455 S
O691 C668 1.264 . S
C692 C685 1.403 . S
C692 C693 1.399 . S
C692 H698 0.929 . S
C693 C673 1.449 . S
C693 C692 1.399 . S
C693 H699 0.930 . S
H694 C674 0.931 . S
H695 C675 0.930 . S
H696 C683 0.931 . S
H697 C684 0.929 . S
H698 C692 0.929 . S
H699 C693 0.930 . S
Mn700 O705 2.095 . S
Mn700 O715 2.162 . S
Mn700 O716 2.297 . S
Mn700 O724 2.385 . S
Mn700 O725 2.209 . S
Mn700 O726 2.094 . S
Mn701 O706 2.121 . S
Mn701 N708 2.257 . S
Mn701 N717 2.282 . S
Mn701 O725 2.215 . S
Mn701 O727 2.117 . S
C702 O724 1.234 . S
C702 O725 1.283 . S
C703 O715 1.281 . S
C703 O716 1.236 . S
C704 O726 1.240 . S
C704 O727 1.264 . S
O705 Mn700 2.095 . S
O705 C714 1.250 . S
O706 Mn701 2.121 . S
O706 C714 1.258 . S
C707 N708 1.326 . S
C707 C711 1.460 . S
C707 H713 0.929 . S
N708 Mn701 2.257 . S
N708 C707 1.326 . S
N708 C712 1.362 . S
C709 C710 1.258 . S
C709 C712 1.431 . S
C709 C729 1.449 . S
C710 C709 1.258 . S
C710 C711 1.477 . S
C710 H730 0.931 . S
C711 C707 1.460 . S
C711 C710 1.477 . S
C711 H731 0.930 . S
C712 N708 1.362 . S
C712 C709 1.431 . S
C712 C722 1.476 . S
H713 C707 0.929 . S
C714 O705 1.250 . S
C714 O706 1.258 . S
O715 Mn700 2.162 . S
O715 C703 1.281 . S
O716 Mn700 2.297 . S
O716 C703 1.236 . S
N717 Mn701 2.282 . S
N717 C718 1.328 . S
N717 C722 1.318 . S
C718 N717 1.328 . S
C718 C719 1.457 . S
C718 H723 0.929 . S
C719 C718 1.457 . S
C719 C720 1.291 . S
C719 H732 0.931 . S
C720 C719 1.291 . S
C720 C721 1.373 . S
C720 H733 0.929 . S
C721 C720 1.373 . S
C721 C722 1.396 . S
C721 C728 1.403 . S
C722 C712 1.476 . S
C722 N717 1.318 . S
C722 C721 1.396 . S
H723 C718 0.929 . S
O724 Mn700 2.385 . S
O724 C702 1.234 . S
O725 Mn700 2.209 . S
O725 Mn701 2.215 . S
O725 C702 1.283 . S
O726 Mn700 2.094 . S
O726 C704 1.240 . S
O727 Mn701 2.117 . S
O727 C704 1.264 . S
C728 C721 1.403 . S
C728 C729 1.399 . S
C728 H734 0.929 . S
C729 C709 1.449 . S
C729 C728 1.399 . S
C729 H735 0.930 . S
H730 C710 0.931 . S
H731 C711 0.930 . S
H732 C719 0.931 . S
H733 C720 0.929 . S
H734 C728 0.929 . S
H735 C729 0.930 . S
H736 C748 0.930 . S
H737 C750 0.930 . S
H738 C751 0.930 . S
H739 C755 0.959 . S
H740 C755 0.959 . S
H741 C755 0.961 . S
H742 C756 0.960 . S
H743 C756 0.961 . S
H744 C756 0.959 . S
H745 C759 0.929 . S
H746 C760 0.931 . S
H747 C762 0.930 . S
C748 H736 0.930 . S
C748 C749 1.399 . S
C748 C753 1.399 . S
C749 C748 1.399 . S
C749 C750 1.376 . S
C750 H737 0.930 . S
C750 C749 1.376 . S
C750 C751 1.388 . S
C751 H738 0.930 . S
C751 C750 1.388 . S
C751 C752 1.390 . S
C752 C751 1.390 . S
C752 C753 1.394 . S
C752 C758 1.465 . S
C753 C748 1.399 . S
C753 C752 1.394 . S
C753 C754 1.516 . S
C754 C753 1.516 . S
C754 C755 1.502 . S
C754 C756 1.561 . S
C754 C757 1.526 . S
C755 H739 0.959 . S
C755 H740 0.959 . S
C755 H741 0.961 . S
C755 C754 1.502 . S
C756 H742 0.960 . S
C756 H743 0.961 . S
C756 H744 0.959 . S
C756 C754 1.561 . S
C757 C754 1.526 . S
C757 C758 1.396 . S
C757 C762 1.390 . S
C758 C752 1.465 . S
C758 C757 1.396 . S
C758 C759 1.399 . S
C759 H745 0.929 . S
C759 C758 1.399 . S
C759 C760 1.385 . S
C760 H746 0.931 . S
C760 C759 1.385 . S
C760 C761 1.389 . S
C761 C760 1.389 . S
C761 C762 1.387 . S
C762 H747 0.930 . S
C762 C757 1.390 . S
C762 C761 1.387 . S
H763 C775 0.930 . S
H764 C777 0.930 . S
H765 C778 0.930 . S
H766 C782 0.959 . S
H767 C782 0.959 . S
H768 C782 0.961 . S
H769 C783 0.960 . S
H770 C783 0.961 . S
H771 C783 0.959 . S
H772 C786 0.929 . S
H773 C787 0.931 . S
H774 C789 0.930 . S
C775 H763 0.930 . S
C775 C776 1.399 . S
C775 C780 1.399 . S
C776 C775 1.399 . S
C776 C777 1.376 . S
C777 H764 0.930 . S
C777 C776 1.376 . S
C777 C778 1.388 . S
C778 H765 0.930 . S
C778 C777 1.388 . S
C778 C779 1.390 . S
C779 C778 1.390 . S
C779 C780 1.394 . S
C779 C785 1.465 . S
C780 C775 1.399 . S
C780 C779 1.394 . S
C780 C781 1.516 . S
C781 C780 1.516 . S
C781 C782 1.502 . S
C781 C783 1.561 . S
C781 C784 1.526 . S
C782 H766 0.959 . S
C782 H767 0.959 . S
C782 H768 0.961 . S
C782 C781 1.502 . S
C783 H769 0.960 . S
C783 H770 0.961 . S
C783 H771 0.959 . S
C783 C781 1.561 . S
C784 C781 1.526 . S
C784 C785 1.396 . S
C784 C789 1.390 . S
C785 C779 1.465 . S
C785 C784 1.396 . S
C785 C786 1.399 . S
C786 H772 0.929 . S
C786 C785 1.399 . S
C786 C787 1.385 . S
C787 H773 0.931 . S
C787 C786 1.385 . S
C787 C788 1.389 . S
C788 C787 1.389 . S
C788 C789 1.387 . S
C789 H774 0.930 . S
C789 C784 1.390 . S
C789 C788 1.387 . S
H790 C802 0.930 . S
H791 C804 0.930 . S
H792 C805 0.930 . S
H793 C809 0.959 . S
H794 C809 0.959 . S
H795 C809 0.961 . S
H796 C810 0.960 . S
H797 C810 0.961 . S
H798 C810 0.959 . S
H799 C813 0.929 . S
H800 C814 0.931 . S
H801 C816 0.930 . S
C802 H790 0.930 . S
C802 C803 1.399 . S
C802 C807 1.399 . S
C803 C802 1.399 . S
C803 C804 1.376 . S
C804 H791 0.930 . S
C804 C803 1.376 . S
C804 C805 1.388 . S
C805 H792 0.930 . S
C805 C804 1.388 . S
C805 C806 1.390 . S
C806 C805 1.390 . S
C806 C807 1.394 . S
C806 C812 1.465 . S
C807 C802 1.399 . S
C807 C806 1.394 . S
C807 C808 1.516 . S
C808 C807 1.516 . S
C808 C809 1.502 . S
C808 C810 1.561 . S
C808 C811 1.526 . S
C809 H793 0.959 . S
C809 H794 0.959 . S
C809 H795 0.961 . S
C809 C808 1.502 . S
C810 H796 0.960 . S
C810 H797 0.961 . S
C810 H798 0.959 . S
C810 C808 1.561 . S
C811 C808 1.526 . S
C811 C812 1.396 . S
C811 C816 1.390 . S
C812 C806 1.465 . S
C812 C811 1.396 . S
C812 C813 1.399 . S
C813 H799 0.929 . S
C813 C812 1.399 . S
C813 C814 1.385 . S
C814 H800 0.931 . S
C814 C813 1.385 . S
C814 C815 1.389 . S
C815 C814 1.389 . S
C815 C816 1.387 . S
C816 H801 0.930 . S
C816 C811 1.390 . S
C816 C815 1.387 . S
H817 C829 0.930 . S
H818 C831 0.930 . S
H819 C832 0.930 . S
H820 C836 0.959 . S
H821 C836 0.959 . S
H822 C836 0.961 . S
H823 C837 0.960 . S
H824 C837 0.961 . S
H825 C837 0.959 1_655 S
H826 C840 0.929 . S
H827 C841 0.931 . S
H828 C843 0.930 1_565 S
C829 H817 0.930 . S
C829 C830 1.399 . S
C829 C834 1.399 . S
C830 C829 1.399 . S
C830 C831 1.376 1_565 S
C831 H818 0.930 . S
C831 C830 1.376 1_545 S
C831 C832 1.388 . S
C832 H819 0.930 . S
C832 C831 1.388 . S
C832 C833 1.390 . S
C833 C832 1.390 . S
C833 C834 1.394 1_545 S
C833 C839 1.465 . S
C834 C829 1.399 . S
C834 C833 1.394 1_565 S
C834 C835 1.516 . S
C835 C834 1.516 . S
C835 C836 1.502 . S
C835 C837 1.561 . S
C835 C838 1.513 1_565 S
C836 H820 0.959 . S
C836 H821 0.959 . S
C836 H822 0.961 . S
C836 C835 1.502 . S
C837 H823 0.960 . S
C837 H824 0.961 . S
C837 H825 0.959 1_455 S
C837 C835 1.561 . S
C838 C835 1.513 1_545 S
C838 C839 1.405 . S
C838 C843 1.394 . S
C839 C833 1.465 . S
C839 C838 1.405 . S
C839 C840 1.399 1_455 S
C840 H826 0.929 . S
C840 C839 1.399 1_655 S
C840 C841 1.385 . S
C841 H827 0.931 . S
C841 C840 1.385 . S
C841 C842 1.389 . S
C842 C841 1.389 . S
C842 C843 1.387 1_655 S
C843 H828 0.930 1_545 S
C843 C838 1.394 . S
C843 C842 1.387 1_455 S
H844 C856 0.930 . S
H845 C858 0.930 . S
H846 C859 0.930 . S
H847 C863 0.959 . S
H848 C863 0.959 . S
H849 C863 0.961 . S
H850 C864 0.960 . S
H851 C864 0.961 . S
H852 C864 0.959 . S
H853 C867 0.929 . S
H854 C868 0.931 . S
H855 C870 0.930 . S
C856 H844 0.930 . S
C856 C857 1.399 . S
C856 C861 1.399 . S
C857 C856 1.399 . S
C857 C858 1.376 . S
C858 H845 0.930 . S
C858 C857 1.376 . S
C858 C859 1.388 . S
C859 H846 0.930 . S
C859 C858 1.388 . S
C859 C860 1.390 . S
C860 C859 1.390 . S
C860 C861 1.394 . S
C860 C866 1.465 . S
C861 C856 1.399 . S
C861 C860 1.394 . S
C861 C862 1.516 . S
C862 C861 1.516 . S
C862 C863 1.502 . S
C862 C864 1.561 . S
C862 C865 1.526 . S
C863 H847 0.959 . S
C863 H848 0.959 . S
C863 H849 0.961 . S
C863 C862 1.502 . S
C864 H850 0.960 . S
C864 H851 0.961 . S
C864 H852 0.959 . S
C864 C862 1.561 . S
C865 C862 1.526 . S
C865 C866 1.396 . S
C865 C870 1.390 . S
C866 C860 1.465 . S
C866 C865 1.396 . S
C866 C867 1.399 . S
C867 H853 0.929 . S
C867 C866 1.399 . S
C867 C868 1.385 . S
C868 H854 0.931 . S
C868 C867 1.385 . S
C868 C869 1.389 . S
C869 C868 1.389 . S
C869 C870 1.387 . S
C870 H855 0.930 . S
C870 C865 1.390 . S
C870 C869 1.387 . S
H871 C883 0.930 . S
H872 C885 0.930 . S
H873 C886 0.930 . S
H874 C890 0.959 . S
H875 C890 0.959 . S
H876 C890 0.961 . S
H877 C891 0.960 . S
H878 C891 0.961 . S
H879 C891 0.959 . S
H880 C894 0.929 . S
H881 C895 0.931 . S
H882 C897 0.930 . S
C883 H871 0.930 . S
C883 C884 1.399 . S
C883 C888 1.399 . S
C884 C883 1.399 . S
C884 C885 1.376 . S
C885 H872 0.930 . S
C885 C884 1.376 . S
C885 C886 1.388 . S
C886 H873 0.930 . S
C886 C885 1.388 . S
C886 C887 1.390 . S
C887 C886 1.390 . S
C887 C888 1.394 . S
C887 C893 1.465 . S
C888 C883 1.399 . S
C888 C887 1.394 . S
C888 C889 1.516 . S
C889 C888 1.516 . S
C889 C890 1.502 . S
C889 C891 1.561 . S
C889 C892 1.526 . S
C890 H874 0.959 . S
C890 H875 0.959 . S
C890 H876 0.961 . S
C890 C889 1.502 . S
C891 H877 0.960 . S
C891 H878 0.961 . S
C891 H879 0.959 . S
C891 C889 1.561 . S
C892 C889 1.526 . S
C892 C893 1.396 . S
C892 C897 1.390 . S
C893 C887 1.465 . S
C893 C892 1.396 . S
C893 C894 1.399 . S
C894 H880 0.929 . S
C894 C893 1.399 . S
C894 C895 1.385 . S
C895 H881 0.931 . S
C895 C894 1.385 . S
C895 C896 1.389 . S
C896 C895 1.389 . S
C896 C897 1.387 . S
C897 H882 0.930 . S
C897 C892 1.390 . S
C897 C896 1.387 . S
H898 C910 0.930 . S
H899 C912 0.930 . S
H900 C913 0.930 . S
H901 C917 0.959 . S
H902 C917 0.959 . S
H903 C917 0.961 . S
H904 C918 0.960 . S
H905 C918 0.961 . S
H906 C918 0.959 . S
H907 C921 0.929 . S
H908 C922 0.931 . S
H909 C924 0.930 . S
C910 H898 0.930 . S
C910 C911 1.399 . S
C910 C915 1.399 . S
C911 C910 1.399 . S
C911 C912 1.376 . S
C912 H899 0.930 . S
C912 C911 1.376 . S
C912 C913 1.388 . S
C913 H900 0.930 . S
C913 C912 1.388 . S
C913 C914 1.390 . S
C914 C913 1.390 . S
C914 C915 1.394 . S
C914 C920 1.465 . S
C915 C910 1.399 . S
C915 C914 1.394 . S
C915 C916 1.516 . S
C916 C915 1.516 . S
C916 C917 1.502 . S
C916 C918 1.561 . S
C916 C919 1.526 . S
C917 H901 0.959 . S
C917 H902 0.959 . S
C917 H903 0.961 . S
C917 C916 1.502 . S
C918 H904 0.960 . S
C918 H905 0.961 . S
C918 H906 0.959 . S
C918 C916 1.561 . S
C919 C916 1.526 . S
C919 C920 1.396 . S
C919 C924 1.390 . S
C920 C914 1.465 . S
C920 C919 1.396 . S
C920 C921 1.399 . S
C921 H907 0.929 . S
C921 C920 1.399 . S
C921 C922 1.385 . S
C922 H908 0.931 . S
C922 C921 1.385 . S
C922 C923 1.389 . S
C923 C922 1.389 . S
C923 C924 1.387 . S
C924 H909 0.930 . S
C924 C919 1.390 . S
C924 C923 1.387 . S
H925 C937 0.930 . S
H926 C939 0.930 . S
H927 C940 0.930 . S
H928 C944 0.959 . S
H929 C944 0.959 . S
H930 C944 0.961 . S
H931 C945 0.960 . S
H932 C945 0.961 . S
H933 C945 0.959 . S
H934 C948 0.929 . S
H935 C949 0.931 . S
H936 C951 0.930 . S
C937 H925 0.930 . S
C937 C938 1.399 . S
C937 C942 1.399 . S
C938 C937 1.399 . S
C938 C939 1.376 1_565 S
C939 H926 0.930 . S
C939 C938 1.376 1_545 S
C939 C940 1.388 . S
C940 H927 0.930 . S
C940 C939 1.388 . S
C940 C941 1.390 . S
C941 C940 1.390 . S
C941 C942 1.394 1_545 S
C941 C947 1.465 . S
C942 C937 1.399 . S
C942 C941 1.394 1_565 S
C942 C943 1.516 . S
C943 C942 1.516 . S
C943 C944 1.502 . S
C943 C945 1.561 . S
C943 C946 1.526 . S
C944 H928 0.959 . S
C944 H929 0.959 . S
C944 H930 0.961 . S
C944 C943 1.502 . S
C945 H931 0.960 . S
C945 H932 0.961 . S
C945 H933 0.959 . S
C945 C943 1.561 . S
C946 C943 1.526 . S
C946 C947 1.396 1_565 S
C946 C951 1.390 . S
C947 C941 1.465 . S
C947 C946 1.396 1_545 S
C947 C948 1.399 . S
C948 H934 0.929 . S
C948 C947 1.399 . S
C948 C949 1.385 . S
C949 H935 0.931 . S
C949 C948 1.385 . S
C949 C950 1.389 . S
C950 C949 1.389 . S
C950 C951 1.387 1_545 S
C951 H936 0.930 . S
C951 C946 1.390 . S
C951 C950 1.387 1_565 S
H952 C964 0.930 . S
H953 C966 0.930 . S
H954 C967 0.930 . S
H955 C971 0.959 . S
H956 C971 0.959 . S
H957 C971 0.961 . S
H958 C972 0.960 . S
H959 C972 0.961 . S
H960 C972 0.959 . S
H961 C975 0.929 . S
H962 C976 0.931 1_455 S
H963 C978 0.930 . S
C964 H952 0.930 . S
C964 C965 1.399 . S
C964 C969 1.399 . S
C965 C964 1.399 . S
C965 C966 1.376 . S
C966 H953 0.930 . S
C966 C965 1.376 . S
C966 C967 1.388 . S
C967 H954 0.930 . S
C967 C966 1.388 . S
C967 C968 1.390 . S
C968 C967 1.390 . S
C968 C969 1.394 . S
C968 C974 1.465 . S
C969 C964 1.399 . S
C969 C968 1.394 . S
C969 C970 1.516 . S
C970 C969 1.516 . S
C970 C971 1.502 . S
C970 C972 1.561 . S
C970 C973 1.526 . S
C971 H955 0.959 . S
C971 H956 0.959 . S
C971 H957 0.961 . S
C971 C970 1.502 . S
C972 H958 0.960 . S
C972 H959 0.961 . S
C972 H960 0.959 . S
C972 C970 1.561 . S
C973 C970 1.526 . S
C973 C974 1.396 . S
C973 C978 1.390 . S
C974 C968 1.465 . S
C974 C973 1.396 . S
C974 C975 1.399 . S
C975 H961 0.929 . S
C975 C974 1.399 . S
C975 C976 1.385 . S
C976 H962 0.931 1_655 S
C976 C975 1.385 . S
C976 C977 1.389 . S
C977 C976 1.389 . S
C977 C978 1.387 . S
C978 H963 0.930 . S
C978 C973 1.390 . S
C978 C977 1.387 . S
H979 C991 0.930 . S
H980 C993 0.930 . S
H981 C994 0.930 . S
H982 C998 0.959 . S
H983 C998 0.959 . S
H984 C998 0.961 . S
H985 C999 0.960 . S
H986 C999 0.961 . S
H987 C999 0.959 . S
H988 C1002 0.929 . S
H989 C1003 0.931 . S
H990 C1005 0.930 . S
C991 H979 0.930 . S
C991 C992 1.399 . S
C991 C996 1.399 . S
C992 C991 1.399 . S
C992 C993 1.376 . S
C993 H980 0.930 . S
C993 C992 1.376 . S
C993 C994 1.388 . S
C994 H981 0.930 . S
C994 C993 1.388 . S
C994 C995 1.390 . S
C995 C994 1.390 . S
C995 C996 1.394 . S
C995 C1001 1.465 . S
C996 C991 1.399 . S
C996 C995 1.394 . S
C996 C997 1.516 . S
C997 C996 1.516 . S
C997 C998 1.502 . S
C997 C999 1.561 . S
C997 C1000 1.526 . S
C998 H982 0.959 . S
C998 H983 0.959 . S
C998 H984 0.961 . S
C998 C997 1.502 . S
C999 H985 0.960 . S
C999 H986 0.961 . S
C999 H987 0.959 . S
C999 C997 1.561 . S
C1000 C997 1.526 . S
C1000 C1001 1.396 . S
C1000 C1005 1.390 . S
C1001 C995 1.465 . S
C1001 C1000 1.396 . S
C1001 C1002 1.399 . S
C1002 H988 0.929 . S
C1002 C1001 1.399 . S
C1002 C1003 1.385 . S
C1003 H989 0.931 . S
C1003 C1002 1.385 . S
C1003 C1004 1.389 . S
C1004 C1003 1.389 . S
C1004 C1005 1.387 . S
C1005 H990 0.930 . S
C1005 C1000 1.390 . S
C1005 C1004 1.387 . S
H1006 C1018 0.930 . S
H1007 C1020 0.930 . S
H1008 C1021 0.930 . S
H1009 C1025 0.959 . S
H1010 C1025 0.959 . S
H1011 C1025 0.961 . S
H1012 C1026 0.960 . S
H1013 C1026 0.961 . S
H1014 C1026 0.959 . S
H1015 C1029 0.929 . S
H1016 C1030 0.931 . S
H1017 C1032 0.930 . S
C1018 H1006 0.930 . S
C1018 C1019 1.399 . S
C1018 C1023 1.399 . S
C1019 C1018 1.399 . S
C1019 C1020 1.376 . S
C1020 H1007 0.930 . S
C1020 C1019 1.376 . S
C1020 C1021 1.388 . S
C1021 H1008 0.930 . S
C1021 C1020 1.388 . S
C1021 C1022 1.390 . S
C1022 C1021 1.390 . S
C1022 C1023 1.394 . S
C1022 C1028 1.465 . S
C1023 C1018 1.399 . S
C1023 C1022 1.394 . S
C1023 C1024 1.516 . S
C1024 C1023 1.516 . S
C1024 C1025 1.502 . S
C1024 C1026 1.561 . S
C1024 C1027 1.526 . S
C1025 H1009 0.959 . S
C1025 H1010 0.959 . S
C1025 H1011 0.961 . S
C1025 C1024 1.502 . S
C1026 H1012 0.960 . S
C1026 H1013 0.961 . S
C1026 H1014 0.959 . S
C1026 C1024 1.561 . S
C1027 C1024 1.526 . S
C1027 C1028 1.396 . S
C1027 C1032 1.390 . S
C1028 C1022 1.465 . S
C1028 C1027 1.396 . S
C1028 C1029 1.399 . S
C1029 H1015 0.929 . S
C1029 C1028 1.399 . S
C1029 C1030 1.385 . S
C1030 H1016 0.931 . S
C1030 C1029 1.385 . S
C1030 C1031 1.389 . S
C1031 C1030 1.389 . S
C1031 C1032 1.387 . S
C1032 H1017 0.930 . S
C1032 C1027 1.390 . S
C1032 C1031 1.387 . S
H1033 C1045 0.930 . S
H1034 C1047 0.930 . S
H1035 C1048 0.930 . S
H1036 C1052 0.959 . S
H1037 C1052 0.959 . S
H1038 C1052 0.961 . S
H1039 C1053 0.960 . S
H1040 C1053 0.961 . S
H1041 C1053 0.959 . S
H1042 C1056 0.929 . S
H1043 C1057 0.931 . S
H1044 C1059 0.930 . S
C1045 H1033 0.930 . S
C1045 C1046 1.399 . S
C1045 C1050 1.399 . S
C1046 C1045 1.399 . S
C1046 C1047 1.376 . S
C1047 H1034 0.930 . S
C1047 C1046 1.376 . S
C1047 C1048 1.388 . S
C1048 H1035 0.930 . S
C1048 C1047 1.388 . S
C1048 C1049 1.390 . S
C1049 C1048 1.390 . S
C1049 C1050 1.394 . S
C1049 C1055 1.465 . S
C1050 C1045 1.399 . S
C1050 C1049 1.394 . S
C1050 C1051 1.516 . S
C1051 C1050 1.516 . S
C1051 C1052 1.502 . S
C1051 C1053 1.561 . S
C1051 C1054 1.526 . S
C1052 H1036 0.959 . S
C1052 H1037 0.959 . S
C1052 H1038 0.961 . S
C1052 C1051 1.502 . S
C1053 H1039 0.960 . S
C1053 H1040 0.961 . S
C1053 H1041 0.959 . S
C1053 C1051 1.561 . S
C1054 C1051 1.526 . S
C1054 C1055 1.396 . S
C1054 C1059 1.390 . S
C1055 C1049 1.465 . S
C1055 C1054 1.396 . S
C1055 C1056 1.399 . S
C1056 H1042 0.929 . S
C1056 C1055 1.399 . S
C1056 C1057 1.385 . S
C1057 H1043 0.931 . S
C1057 C1056 1.385 . S
C1057 C1058 1.389 . S
C1058 C1057 1.389 . S
C1058 C1059 1.387 . S
C1059 H1044 0.930 . S
C1059 C1054 1.390 . S
C1059 C1058 1.387 . S
H1060 C1072 0.930 . S
H1061 C1074 0.930 . S
H1062 C1075 0.930 . S
H1063 C1079 0.959 . S
H1064 C1079 0.959 . S
H1065 C1079 0.961 . S
H1066 C1080 0.960 . S
H1067 C1080 0.961 . S
H1068 C1080 0.959 . S
H1069 C1083 0.929 . S
H1070 C1084 0.931 . S
H1071 C1086 0.930 . S
C1072 H1060 0.930 . S
C1072 C1073 1.399 . S
C1072 C1077 1.399 . S
C1073 C1072 1.399 . S
C1073 C1074 1.376 . S
C1074 H1061 0.930 . S
C1074 C1073 1.376 . S
C1074 C1075 1.388 . S
C1075 H1062 0.930 . S
C1075 C1074 1.388 . S
C1075 C1076 1.390 . S
C1076 C1075 1.390 . S
C1076 C1077 1.394 . S
C1076 C1082 1.465 . S
C1077 C1072 1.399 . S
C1077 C1076 1.394 . S
C1077 C1078 1.516 . S
C1078 C1077 1.516 . S
C1078 C1079 1.502 . S
C1078 C1080 1.561 . S
C1078 C1081 1.526 . S
C1079 H1063 0.959 . S
C1079 H1064 0.959 . S
C1079 H1065 0.961 . S
C1079 C1078 1.502 . S
C1080 H1066 0.960 . S
C1080 H1067 0.961 . S
C1080 H1068 0.959 . S
C1080 C1078 1.561 . S
C1081 C1078 1.526 . S
C1081 C1082 1.396 . S
C1081 C1086 1.390 . S
C1082 C1076 1.465 . S
C1082 C1081 1.396 . S
C1082 C1083 1.399 . S
C1083 H1069 0.929 . S
C1083 C1082 1.399 . S
C1083 C1084 1.385 . S
C1084 H1070 0.931 . S
C1084 C1083 1.385 . S
C1084 C1085 1.389 . S
C1085 C1084 1.389 . S
C1085 C1086 1.387 . S
C1086 H1071 0.930 . S
C1086 C1081 1.390 . S
C1086 C1085 1.387 . S
H1087 C1099 0.930 . S
H1088 C1101 0.930 . S
H1089 C1102 0.930 . S
H1090 C1106 0.959 . S
H1091 C1106 0.959 . S
H1092 C1106 0.961 . S
H1093 C1107 0.960 . S
H1094 C1107 0.961 . S
H1095 C1107 0.959 . S
H1096 C1110 0.929 . S
H1097 C1111 0.931 . S
H1098 C1113 0.930 . S
C1099 H1087 0.930 . S
C1099 C1100 1.399 . S
C1099 C1104 1.399 . S
C1100 C1099 1.399 . S
C1100 C1101 1.376 . S
C1101 H1088 0.930 . S
C1101 C1100 1.376 . S
C1101 C1102 1.388 . S
C1102 H1089 0.930 . S
C1102 C1101 1.388 . S
C1102 C1103 1.390 . S
C1103 C1102 1.390 . S
C1103 C1104 1.394 . S
C1103 C1109 1.465 . S
C1104 C1099 1.399 . S
C1104 C1103 1.394 . S
C1104 C1105 1.516 . S
C1105 C1104 1.516 . S
C1105 C1106 1.502 . S
C1105 C1107 1.561 . S
C1105 C1108 1.526 . S
C1106 H1090 0.959 . S
C1106 H1091 0.959 . S
C1106 H1092 0.961 . S
C1106 C1105 1.502 . S
C1107 H1093 0.960 . S
C1107 H1094 0.961 . S
C1107 H1095 0.959 . S
C1107 C1105 1.561 . S
C1108 C1105 1.526 . S
C1108 C1109 1.396 . S
C1108 C1113 1.390 . S
C1109 C1103 1.465 . S
C1109 C1108 1.396 . S
C1109 C1110 1.399 . S
C1110 H1096 0.929 . S
C1110 C1109 1.399 . S
C1110 C1111 1.385 . S
C1111 H1097 0.931 . S
C1111 C1110 1.385 . S
C1111 C1112 1.389 . S
C1112 C1111 1.389 . S
C1112 C1113 1.387 . S
C1113 H1098 0.930 . S
C1113 C1108 1.390 . S
C1113 C1112 1.387 . S
H1114 C1126 0.930 . S
H1115 C1128 0.930 . S
H1116 C1129 0.930 . S
H1117 C1133 0.959 . S
H1118 C1133 0.959 . S
H1119 C1133 0.961 . S
H1120 C1134 0.960 . S
H1121 C1134 0.961 . S
H1122 C1134 0.959 . S
H1123 C1137 0.929 . S
H1124 C1138 0.931 . S
H1125 C1140 0.930 . S
C1126 H1114 0.930 . S
C1126 C1127 1.399 . S
C1126 C1131 1.399 . S
C1127 C1126 1.399 . S
C1127 C1128 1.376 . S
C1128 H1115 0.930 . S
C1128 C1127 1.376 . S
C1128 C1129 1.388 . S
C1129 H1116 0.930 . S
C1129 C1128 1.388 . S
C1129 C1130 1.390 . S
C1130 C1129 1.390 . S
C1130 C1131 1.394 . S
C1130 C1136 1.465 . S
C1131 C1126 1.399 . S
C1131 C1130 1.394 . S
C1131 C1132 1.516 . S
C1132 C1131 1.516 . S
C1132 C1133 1.502 . S
C1132 C1134 1.561 . S
C1132 C1135 1.526 . S
C1133 H1117 0.959 . S
C1133 H1118 0.959 . S
C1133 H1119 0.961 . S
C1133 C1132 1.502 . S
C1134 H1120 0.960 . S
C1134 H1121 0.961 . S
C1134 H1122 0.959 . S
C1134 C1132 1.561 . S
C1135 C1132 1.526 . S
C1135 C1136 1.396 . S
C1135 C1140 1.390 . S
C1136 C1130 1.465 . S
C1136 C1135 1.396 . S
C1136 C1137 1.399 . S
C1137 H1123 0.929 . S
C1137 C1136 1.399 . S
C1137 C1138 1.385 . S
C1138 H1124 0.931 . S
C1138 C1137 1.385 . S
C1138 C1139 1.389 . S
C1139 C1138 1.389 . S
C1139 C1140 1.387 . S
C1140 H1125 0.930 . S
C1140 C1135 1.390 . S
C1140 C1139 1.387 . S
H1141 C1153 0.930 . S
H1142 C1155 0.930 . S
H1143 C1156 0.930 . S
H1144 C1160 0.959 1_655 S
H1145 C1160 0.959 . S
H1146 C1160 0.961 . S
H1147 C1161 0.960 . S
H1148 C1161 0.961 . S
H1149 C1161 0.959 . S
H1150 C1164 0.929 . S
H1151 C1165 0.931 . S
H1152 C1167 0.930 . S
C1153 H1141 0.930 . S
C1153 C1154 1.399 1_455 S
C1153 C1158 1.399 . S
C1154 C1153 1.399 1_655 S
C1154 C1155 1.376 . S
C1155 H1142 0.930 . S
C1155 C1154 1.376 . S
C1155 C1156 1.388 . S
C1156 H1143 0.930 . S
C1156 C1155 1.388 . S
C1156 C1157 1.390 . S
C1157 C1156 1.390 . S
C1157 C1158 1.394 1_655 S
C1157 C1163 1.465 . S
C1158 C1153 1.399 . S
C1158 C1157 1.394 1_455 S
C1158 C1159 1.516 . S
C1159 C1158 1.516 . S
C1159 C1160 1.502 . S
C1159 C1161 1.561 . S
C1159 C1162 1.526 . S
C1160 H1144 0.959 1_455 S
C1160 H1145 0.959 . S
C1160 H1146 0.961 . S
C1160 C1159 1.502 . S
C1161 H1147 0.960 . S
C1161 H1148 0.961 . S
C1161 H1149 0.959 . S
C1161 C1159 1.561 . S
C1162 C1159 1.526 . S
C1162 C1163 1.396 1_455 S
C1162 C1167 1.390 . S
C1163 C1157 1.465 . S
C1163 C1162 1.396 1_655 S
C1163 C1164 1.399 . S
C1164 H1150 0.929 . S
C1164 C1163 1.399 . S
C1164 C1165 1.385 . S
C1165 H1151 0.931 . S
C1165 C1164 1.385 . S
C1165 C1166 1.389 . S
C1166 C1165 1.389 . S
C1166 C1167 1.387 1_655 S
C1167 H1152 0.930 . S
C1167 C1162 1.390 . S
C1167 C1166 1.387 1_455 S
H1168 C1180 0.930 . S
H1169 C1182 0.930 . S
H1170 C1183 0.930 . S
H1171 C1187 0.959 . S
H1172 C1187 0.959 . S
H1173 C1187 0.961 . S
H1174 C1188 0.960 . S
H1175 C1188 0.961 . S
H1176 C1188 0.959 . S
H1177 C1191 0.929 . S
H1178 C1192 0.931 . S
H1179 C1194 0.930 . S
C1180 H1168 0.930 . S
C1180 C1181 1.399 . S
C1180 C1185 1.399 . S
C1181 C1180 1.399 . S
C1181 C1182 1.376 . S
C1182 H1169 0.930 . S
C1182 C1181 1.376 . S
C1182 C1183 1.388 . S
C1183 H1170 0.930 . S
C1183 C1182 1.388 . S
C1183 C1184 1.390 . S
C1184 C1183 1.390 . S
C1184 C1185 1.394 . S
C1184 C1190 1.465 . S
C1185 C1180 1.399 . S
C1185 C1184 1.394 . S
C1185 C1186 1.516 . S
C1186 C1185 1.516 . S
C1186 C1187 1.502 . S
C1186 C1188 1.561 . S
C1186 C1189 1.526 . S
C1187 H1171 0.959 . S
C1187 H1172 0.959 . S
C1187 H1173 0.961 . S
C1187 C1186 1.502 . S
C1188 H1174 0.960 . S
C1188 H1175 0.961 . S
C1188 H1176 0.959 . S
C1188 C1186 1.561 . S
C1189 C1186 1.526 . S
C1189 C1190 1.396 . S
C1189 C1194 1.390 . S
C1190 C1184 1.465 . S
C1190 C1189 1.396 . S
C1190 C1191 1.399 . S
C1191 H1177 0.929 . S
C1191 C1190 1.399 . S
C1191 C1192 1.385 . S
C1192 H1178 0.931 . S
C1192 C1191 1.385 . S
C1192 C1193 1.389 . S
C1193 C1192 1.389 . S
C1193 C1194 1.387 . S
C1194 H1179 0.930 . S
C1194 C1189 1.390 . S
C1194 C1193 1.387 . S
H1195 C1207 0.930 . S
H1196 C1209 0.930 . S
H1197 C1210 0.930 . S
H1198 C1214 0.959 . S
H1199 C1214 0.959 . S
H1200 C1214 0.961 . S
H1201 C1215 0.960 . S
H1202 C1215 0.961 . S
H1203 C1215 0.959 . S
H1204 C1218 0.929 . S
H1205 C1219 0.931 . S
H1206 C1221 0.930 . S
C1207 H1195 0.930 . S
C1207 C1208 1.399 . S
C1207 C1212 1.399 . S
C1208 C1207 1.399 . S
C1208 C1209 1.376 . S
C1209 H1196 0.930 . S
C1209 C1208 1.376 . S
C1209 C1210 1.388 . S
C1210 H1197 0.930 . S
C1210 C1209 1.388 . S
C1210 C1211 1.390 . S
C1211 C1210 1.390 . S
C1211 C1212 1.394 . S
C1211 C1217 1.465 . S
C1212 C1207 1.399 . S
C1212 C1211 1.394 . S
C1212 C1213 1.516 . S
C1213 C1212 1.516 . S
C1213 C1214 1.502 . S
C1213 C1215 1.561 . S
C1213 C1216 1.526 . S
C1214 H1198 0.959 . S
C1214 H1199 0.959 . S
C1214 H1200 0.961 . S
C1214 C1213 1.502 . S
C1215 H1201 0.960 . S
C1215 H1202 0.961 . S
C1215 H1203 0.959 . S
C1215 C1213 1.561 . S
C1216 C1213 1.526 . S
C1216 C1217 1.396 . S
C1216 C1221 1.390 . S
C1217 C1211 1.465 . S
C1217 C1216 1.396 . S
C1217 C1218 1.399 . S
C1218 H1204 0.929 . S
C1218 C1217 1.399 . S
C1218 C1219 1.385 . S
C1219 H1205 0.931 . S
C1219 C1218 1.385 . S
C1219 C1220 1.389 . S
C1220 C1219 1.389 . S
C1220 C1221 1.387 . S
C1221 H1206 0.930 . S
C1221 C1216 1.390 . S
C1221 C1220 1.387 . S
H1222 C1234 0.930 . S
H1223 C1236 0.930 . S
H1224 C1237 0.930 . S
H1225 C1241 0.959 . S
H1226 C1241 0.959 . S
H1227 C1241 0.961 1_545 S
H1228 C1242 0.960 . S
H1229 C1242 0.961 . S
H1230 C1242 0.959 . S
H1231 C1245 0.929 . S
H1232 C1246 0.928 1_556 S
H1233 C1248 0.930 . S
C1234 H1222 0.930 . S
C1234 C1235 1.399 1_554 S
C1234 C1239 1.399 1_545 S
C1235 C1234 1.399 1_556 S
C1235 C1236 1.376 1_545 S
C1236 H1223 0.930 . S
C1236 C1235 1.376 1_565 S
C1236 C1237 1.388 . S
C1237 H1224 0.930 . S
C1237 C1236 1.388 . S
C1237 C1238 1.390 . S
C1238 C1237 1.390 . S
C1238 C1239 1.394 1_556 S
C1238 C1244 1.465 1_556 S
C1239 C1234 1.399 1_565 S
C1239 C1238 1.394 1_554 S
C1239 C1240 1.516 . S
C1240 C1239 1.516 . S
C1240 C1241 1.502 . S
C1240 C1242 1.561 1_565 S
C1240 C1243 1.526 . S
C1241 H1225 0.959 . S
C1241 H1226 0.959 . S
C1241 H1227 0.961 1_565 S
C1241 C1240 1.502 . S
C1242 H1228 0.960 . S
C1242 H1229 0.961 . S
C1242 H1230 0.959 . S
C1242 C1240 1.561 1_545 S
C1243 C1240 1.526 . S
C1243 C1244 1.396 . S
C1243 C1248 1.390 . S
C1244 C1238 1.465 1_554 S
C1244 C1243 1.396 . S
C1244 C1245 1.399 1_554 S
C1245 H1231 0.929 . S
C1245 C1244 1.399 1_556 S
C1245 C1246 1.385 1_556 S
C1246 H1232 0.928 1_554 S
C1246 C1245 1.385 1_554 S
C1246 C1247 1.389 . S
C1247 C1246 1.389 . S
C1247 C1248 1.387 . S
C1248 H1233 0.930 . S
C1248 C1243 1.390 . S
C1248 C1247 1.387 . S
H1249 C1261 0.930 . S
H1250 C1263 0.930 . S
H1251 C1264 0.930 . S
H1252 C1268 0.959 . S
H1253 C1268 0.959 . S
H1254 C1268 0.961 . S
H1255 C1269 0.960 . S
H1256 C1269 0.961 . S
H1257 C1269 0.959 . S
H1258 C1272 0.929 . S
H1259 C1273 0.931 . S
H1260 C1275 0.930 . S
C1261 H1249 0.930 . S
C1261 C1262 1.399 . S
C1261 C1266 1.399 . S
C1262 C1261 1.399 . S
C1262 C1263 1.376 . S
C1263 H1250 0.930 . S
C1263 C1262 1.376 . S
C1263 C1264 1.388 . S
C1264 H1251 0.930 . S
C1264 C1263 1.388 . S
C1264 C1265 1.390 . S
C1265 C1264 1.390 . S
C1265 C1266 1.394 . S
C1265 C1271 1.465 . S
C1266 C1261 1.399 . S
C1266 C1265 1.394 . S
C1266 C1267 1.516 . S
C1267 C1266 1.516 . S
C1267 C1268 1.502 . S
C1267 C1269 1.561 . S
C1267 C1270 1.526 . S
C1268 H1252 0.959 . S
C1268 H1253 0.959 . S
C1268 H1254 0.961 . S
C1268 C1267 1.502 . S
C1269 H1255 0.960 . S
C1269 H1256 0.961 . S
C1269 H1257 0.959 . S
C1269 C1267 1.561 . S
C1270 C1267 1.526 . S
C1270 C1271 1.396 . S
C1270 C1275 1.390 . S
C1271 C1265 1.465 . S
C1271 C1270 1.396 . S
C1271 C1272 1.399 . S
C1272 H1258 0.929 . S
C1272 C1271 1.399 . S
C1272 C1273 1.385 . S
C1273 H1259 0.931 . S
C1273 C1272 1.385 . S
C1273 C1274 1.389 . S
C1274 C1273 1.389 . S
C1274 C1275 1.387 . S
C1275 H1260 0.930 . S
C1275 C1270 1.390 . S
C1275 C1274 1.387 . S
H1276 C1288 0.930 . S
H1277 C1290 0.930 . S
H1278 C1291 0.930 . S
H1279 C1295 0.959 . S
H1280 C1295 0.959 . S
H1281 C1295 0.961 . S
H1282 C1296 0.960 . S
H1283 C1296 0.961 . S
H1284 C1296 0.959 . S
H1285 C1299 0.929 . S
H1286 C1300 0.931 . S
H1287 C1302 0.930 . S
C1288 H1276 0.930 . S
C1288 C1289 1.399 . S
C1288 C1293 1.399 . S
C1289 C1288 1.399 . S
C1289 C1290 1.376 . S
C1290 H1277 0.930 . S
C1290 C1289 1.376 . S
C1290 C1291 1.388 . S
C1291 H1278 0.930 . S
C1291 C1290 1.388 . S
C1291 C1292 1.390 . S
C1292 C1291 1.390 . S
C1292 C1293 1.394 . S
C1292 C1298 1.465 . S
C1293 C1288 1.399 . S
C1293 C1292 1.394 . S
C1293 C1294 1.516 . S
C1294 C1293 1.516 . S
C1294 C1295 1.502 . S
C1294 C1296 1.561 . S
C1294 C1297 1.526 . S
C1295 H1279 0.959 . S
C1295 H1280 0.959 . S
C1295 H1281 0.961 . S
C1295 C1294 1.502 . S
C1296 H1282 0.960 . S
C1296 H1283 0.961 . S
C1296 H1284 0.959 . S
C1296 C1294 1.561 . S
C1297 C1294 1.526 . S
C1297 C1298 1.396 . S
C1297 C1302 1.390 . S
C1298 C1292 1.465 . S
C1298 C1297 1.396 . S
C1298 C1299 1.399 . S
C1299 H1285 0.929 . S
C1299 C1298 1.399 . S
C1299 C1300 1.385 . S
C1300 H1286 0.931 . S
C1300 C1299 1.385 . S
C1300 C1301 1.389 . S
C1301 C1300 1.389 . S
C1301 C1302 1.387 . S
C1302 H1287 0.930 . S
C1302 C1297 1.390 . S
C1302 C1301 1.387 . S
H1303 C1315 0.930 . S
H1304 C1317 0.930 . S
H1305 C1318 0.930 . S
H1306 C1322 0.959 . S
H1307 C1322 0.959 . S
H1308 C1322 0.961 . S
H1309 C1323 0.960 . S
H1310 C1323 0.961 . S
H1311 C1323 0.959 . S
H1312 C1326 0.929 . S
H1313 C1327 0.931 . S
H1314 C1329 0.930 . S
C1315 H1303 0.930 . S
C1315 C1316 1.399 . S
C1315 C1320 1.399 . S
C1316 C1315 1.399 . S
C1316 C1317 1.376 . S
C1317 H1304 0.930 . S
C1317 C1316 1.376 . S
C1317 C1318 1.388 . S
C1318 H1305 0.930 . S
C1318 C1317 1.388 . S
C1318 C1319 1.390 . S
C1319 C1318 1.390 . S
C1319 C1320 1.394 . S
C1319 C1325 1.465 . S
C1320 C1315 1.399 . S
C1320 C1319 1.394 . S
C1320 C1321 1.516 . S
C1321 C1320 1.516 . S
C1321 C1322 1.502 . S
C1321 C1323 1.561 . S
C1321 C1324 1.526 . S
C1322 H1306 0.959 . S
C1322 H1307 0.959 . S
C1322 H1308 0.961 . S
C1322 C1321 1.502 . S
C1323 H1309 0.960 . S
C1323 H1310 0.961 . S
C1323 H1311 0.959 . S
C1323 C1321 1.561 . S
C1324 C1321 1.526 . S
C1324 C1325 1.396 . S
C1324 C1329 1.390 . S
C1325 C1319 1.465 . S
C1325 C1324 1.396 . S
C1325 C1326 1.399 . S
C1326 H1312 0.929 . S
C1326 C1325 1.399 . S
C1326 C1327 1.385 . S
C1327 H1313 0.931 . S
C1327 C1326 1.385 . S
C1327 C1328 1.389 . S
C1328 C1327 1.389 . S
C1328 C1329 1.387 . S
C1329 H1314 0.930 . S
C1329 C1324 1.390 . S
C1329 C1328 1.387 . S
H1330 C1342 0.930 . S
H1331 C1344 0.930 . S
H1332 C1345 0.930 . S
H1333 C1349 0.959 . S
H1334 C1349 0.959 . S
H1335 C1349 0.961 . S
H1336 C1350 0.960 . S
H1337 C1350 0.961 . S
H1338 C1350 0.959 . S
H1339 C1353 0.929 . S
H1340 C1354 0.931 . S
H1341 C1356 0.930 . S
C1342 H1330 0.930 . S
C1342 C1343 1.399 . S
C1342 C1347 1.399 . S
C1343 C1342 1.399 . S
C1343 C1344 1.376 . S
C1344 H1331 0.930 . S
C1344 C1343 1.376 . S
C1344 C1345 1.388 . S
C1345 H1332 0.930 . S
C1345 C1344 1.388 . S
C1345 C1346 1.390 . S
C1346 C1345 1.390 . S
C1346 C1347 1.394 . S
C1346 C1352 1.465 . S
C1347 C1342 1.399 . S
C1347 C1346 1.394 . S
C1347 C1348 1.516 . S
C1348 C1347 1.516 . S
C1348 C1349 1.502 . S
C1348 C1350 1.561 . S
C1348 C1351 1.526 . S
C1349 H1333 0.959 . S
C1349 H1334 0.959 . S
C1349 H1335 0.961 . S
C1349 C1348 1.502 . S
C1350 H1336 0.960 . S
C1350 H1337 0.961 . S
C1350 H1338 0.959 . S
C1350 C1348 1.561 . S
C1351 C1348 1.526 . S
C1351 C1352 1.396 . S
C1351 C1356 1.390 . S
C1352 C1346 1.465 . S
C1352 C1351 1.396 . S
C1352 C1353 1.399 . S
C1353 H1339 0.929 . S
C1353 C1352 1.399 . S
C1353 C1354 1.385 . S
C1354 H1340 0.931 . S
C1354 C1353 1.385 . S
C1354 C1355 1.389 . S
C1355 C1354 1.389 . S
C1355 C1356 1.387 . S
C1356 H1341 0.930 . S
C1356 C1351 1.390 . S
C1356 C1355 1.387 . S
H1357 C1369 0.930 . S
H1358 C1371 0.930 . S
H1359 C1372 0.930 . S
H1360 C1376 0.959 . S
H1361 C1376 0.959 . S
H1362 C1376 0.961 . S
H1363 C1377 0.960 . S
H1364 C1377 0.961 . S
H1365 C1377 0.959 . S
H1366 C1380 0.929 . S
H1367 C1381 0.931 . S
H1368 C1383 0.930 . S
C1369 H1357 0.930 . S
C1369 C1370 1.399 . S
C1369 C1374 1.399 . S
C1370 C1369 1.399 . S
C1370 C1371 1.376 . S
C1371 H1358 0.930 . S
C1371 C1370 1.376 . S
C1371 C1372 1.388 . S
C1372 H1359 0.930 . S
C1372 C1371 1.388 . S
C1372 C1373 1.390 . S
C1373 C1372 1.390 . S
C1373 C1374 1.394 . S
C1373 C1379 1.465 . S
C1374 C1369 1.399 . S
C1374 C1373 1.394 . S
C1374 C1375 1.516 . S
C1375 C1374 1.516 . S
C1375 C1376 1.502 . S
C1375 C1377 1.561 . S
C1375 C1378 1.526 . S
C1376 H1360 0.959 . S
C1376 H1361 0.959 . S
C1376 H1362 0.961 . S
C1376 C1375 1.502 . S
C1377 H1363 0.960 . S
C1377 H1364 0.961 . S
C1377 H1365 0.959 . S
C1377 C1375 1.561 . S
C1378 C1375 1.526 . S
C1378 C1379 1.396 . S
C1378 C1383 1.390 . S
C1379 C1373 1.465 . S
C1379 C1378 1.396 . S
C1379 C1380 1.399 . S
C1380 H1366 0.929 . S
C1380 C1379 1.399 . S
C1380 C1381 1.385 . S
C1381 H1367 0.931 . S
C1381 C1380 1.385 . S
C1381 C1382 1.389 . S
C1382 C1381 1.389 . S
C1382 C1383 1.387 . S
C1383 H1368 0.930 . S
C1383 C1378 1.390 . S
C1383 C1382 1.387 . S
H1384 C1396 0.930 . S
H1385 C1398 0.930 . S
H1386 C1399 0.930 . S
H1387 C1403 0.959 . S
H1388 C1403 0.959 . S
H1389 C1403 0.961 . S
H1390 C1404 0.960 . S
H1391 C1404 0.961 . S
H1392 C1404 0.959 . S
H1393 C1407 0.929 . S
H1394 C1408 0.931 . S
H1395 C1410 0.930 . S
C1396 H1384 0.930 . S
C1396 C1397 1.399 . S
C1396 C1401 1.399 . S
C1397 C1396 1.399 . S
C1397 C1398 1.376 . S
C1398 H1385 0.930 . S
C1398 C1397 1.376 . S
C1398 C1399 1.388 . S
C1399 H1386 0.930 . S
C1399 C1398 1.388 . S
C1399 C1400 1.390 . S
C1400 C1399 1.390 . S
C1400 C1401 1.394 . S
C1400 C1406 1.465 . S
C1401 C1396 1.399 . S
C1401 C1400 1.394 . S
C1401 C1402 1.516 . S
C1402 C1401 1.516 . S
C1402 C1403 1.502 . S
C1402 C1404 1.561 . S
C1402 C1405 1.526 . S
C1403 H1387 0.959 . S
C1403 H1388 0.959 . S
C1403 H1389 0.961 . S
C1403 C1402 1.502 . S
C1404 H1390 0.960 . S
C1404 H1391 0.961 . S
C1404 H1392 0.959 . S
C1404 C1402 1.561 . S
C1405 C1402 1.526 . S
C1405 C1406 1.396 . S
C1405 C1410 1.390 . S
C1406 C1400 1.465 . S
C1406 C1405 1.396 . S
C1406 C1407 1.399 . S
C1407 H1393 0.929 . S
C1407 C1406 1.399 . S
C1407 C1408 1.385 . S
C1408 H1394 0.931 . S
C1408 C1407 1.385 . S
C1408 C1409 1.389 . S
C1409 C1408 1.389 . S
C1409 C1410 1.387 . S
C1410 H1395 0.930 . S
C1410 C1405 1.390 . S
C1410 C1409 1.387 . S
H1411 C1423 0.930 . S
H1412 C1425 0.930 . S
H1413 C1426 0.892 1_565 S
H1414 C1430 0.959 . S
H1415 C1430 0.959 . S
H1416 C1430 0.961 . S
H1417 C1431 0.960 . S
H1418 C1431 0.961 . S
H1419 C1431 0.959 . S
H1420 C1434 0.929 1_565 S
H1421 C1435 0.931 . S
H1422 C1437 0.930 . S
C1423 H1411 0.930 . S
C1423 C1424 1.399 . S
C1423 C1428 1.399 . S
C1424 C1423 1.399 . S
C1424 C1425 1.376 . S
C1425 H1412 0.930 . S
C1425 C1424 1.376 . S
C1425 C1426 1.388 . S
C1426 H1413 0.892 1_545 S
C1426 C1425 1.388 . S
C1426 C1427 1.390 . S
C1427 C1426 1.390 . S
C1427 C1428 1.394 . S
C1427 C1433 1.465 . S
C1428 C1423 1.399 . S
C1428 C1427 1.394 . S
C1428 C1429 1.516 . S
C1429 C1428 1.516 . S
C1429 C1430 1.502 . S
C1429 C1431 1.561 . S
C1429 C1432 1.526 . S
C1430 H1414 0.959 . S
C1430 H1415 0.959 . S
C1430 H1416 0.961 . S
C1430 C1429 1.502 . S
C1431 H1417 0.960 . S
C1431 H1418 0.961 . S
C1431 H1419 0.959 . S
C1431 C1429 1.561 . S
C1432 C1429 1.526 . S
C1432 C1433 1.396 . S
C1432 C1437 1.390 . S
C1433 C1427 1.465 . S
C1433 C1432 1.396 . S
C1433 C1434 1.399 . S
C1434 H1420 0.929 1_545 S
C1434 C1433 1.399 . S
C1434 C1435 1.385 . S
C1435 H1421 0.931 . S
C1435 C1434 1.385 . S
C1435 C1436 1.389 . S
C1436 C1435 1.389 . S
C1436 C1437 1.387 . S
C1437 H1422 0.930 . S
C1437 C1432 1.390 . S
C1437 C1436 1.387 . S
H1438 C1450 0.930 . S
H1439 C1452 0.930 . S
H1440 C1453 0.930 . S
H1441 C1457 0.959 . S
H1442 C1457 0.959 . S
H1443 C1457 0.961 . S
H1444 C1458 0.960 . S
H1445 C1458 0.961 . S
H1446 C1458 0.959 . S
H1447 C1461 0.929 . S
H1448 C1462 0.931 . S
H1449 C1464 0.930 . S
C1450 H1438 0.930 . S
C1450 C1451 1.399 . S
C1450 C1455 1.399 . S
C1451 C1450 1.399 . S
C1451 C1452 1.376 . S
C1452 H1439 0.930 . S
C1452 C1451 1.376 . S
C1452 C1453 1.388 . S
C1453 H1440 0.930 . S
C1453 C1452 1.388 . S
C1453 C1454 1.390 . S
C1454 C1453 1.390 . S
C1454 C1455 1.394 . S
C1454 C1460 1.465 . S
C1455 C1450 1.399 . S
C1455 C1454 1.394 . S
C1455 C1456 1.516 . S
C1456 C1455 1.516 . S
C1456 C1457 1.502 . S
C1456 C1458 1.561 . S
C1456 C1459 1.526 . S
C1457 H1441 0.959 . S
C1457 H1442 0.959 . S
C1457 H1443 0.961 . S
C1457 C1456 1.502 . S
C1458 H1444 0.960 . S
C1458 H1445 0.961 . S
C1458 H1446 0.959 . S
C1458 C1456 1.561 . S
C1459 C1456 1.526 . S
C1459 C1460 1.396 . S
C1459 C1464 1.390 . S
C1460 C1454 1.465 . S
C1460 C1459 1.396 . S
C1460 C1461 1.399 . S
C1461 H1447 0.929 . S
C1461 C1460 1.399 . S
C1461 C1462 1.385 . S
C1462 H1448 0.931 . S
C1462 C1461 1.385 . S
C1462 C1463 1.389 . S
C1463 C1462 1.389 . S
C1463 C1464 1.387 . S
C1464 H1449 0.930 . S
C1464 C1459 1.390 . S
C1464 C1463 1.387 . S
H1465 C1477 0.930 . S
H1466 C1479 0.930 . S
H1467 C1480 0.930 . S
H1468 C1484 0.959 . S
H1469 C1484 0.959 . S
H1470 C1484 0.961 . S
H1471 C1485 0.960 . S
H1472 C1485 0.961 . S
H1473 C1485 0.959 . S
H1474 C1488 0.929 . S
H1475 C1489 0.931 . S
H1476 C1491 0.930 . S
C1477 H1465 0.930 . S
C1477 C1478 1.399 . S
C1477 C1482 1.399 . S
C1478 C1477 1.399 . S
C1478 C1479 1.376 . S
C1479 H1466 0.930 . S
C1479 C1478 1.376 . S
C1479 C1480 1.388 . S
C1480 H1467 0.930 . S
C1480 C1479 1.388 . S
C1480 C1481 1.390 . S
C1481 C1480 1.390 . S
C1481 C1482 1.394 . S
C1481 C1487 1.465 . S
C1482 C1477 1.399 . S
C1482 C1481 1.394 . S
C1482 C1483 1.516 . S
C1483 C1482 1.516 . S
C1483 C1484 1.502 . S
C1483 C1485 1.561 . S
C1483 C1486 1.526 . S
C1484 H1468 0.959 . S
C1484 H1469 0.959 . S
C1484 H1470 0.961 . S
C1484 C1483 1.502 . S
C1485 H1471 0.960 . S
C1485 H1472 0.961 . S
C1485 H1473 0.959 . S
C1485 C1483 1.561 . S
C1486 C1483 1.526 . S
C1486 C1487 1.396 . S
C1486 C1491 1.390 . S
C1487 C1481 1.465 . S
C1487 C1486 1.396 . S
C1487 C1488 1.399 . S
C1488 H1474 0.929 . S
C1488 C1487 1.399 . S
C1488 C1489 1.385 . S
C1489 H1475 0.931 . S
C1489 C1488 1.385 . S
C1489 C1490 1.389 . S
C1490 C1489 1.389 . S
C1490 C1491 1.387 . S
C1491 H1476 0.930 . S
C1491 C1486 1.390 . S
C1491 C1490 1.387 . S
H1492 C1504 0.930 . S
H1493 C1506 0.930 . S
H1494 C1507 0.930 . S
H1495 C1511 0.959 . S
H1496 C1511 0.959 . S
H1497 C1511 0.961 . S
H1498 C1512 0.960 . S
H1499 C1512 0.961 . S
H1500 C1512 0.959 . S
H1501 C1515 0.929 . S
H1502 C1516 0.931 . S
H1503 C1518 0.930 . S
C1504 H1492 0.930 . S
C1504 C1505 1.399 . S
C1504 C1509 1.399 . S
C1505 C1504 1.399 . S
C1505 C1506 1.376 . S
C1506 H1493 0.930 . S
C1506 C1505 1.376 . S
C1506 C1507 1.388 . S
C1507 H1494 0.930 . S
C1507 C1506 1.388 . S
C1507 C1508 1.390 . S
C1508 C1507 1.390 . S
C1508 C1509 1.394 . S
C1508 C1514 1.465 . S
C1509 C1504 1.399 . S
C1509 C1508 1.394 . S
C1509 C1510 1.516 . S
C1510 C1509 1.516 . S
C1510 C1511 1.502 . S
C1510 C1512 1.561 . S
C1510 C1513 1.526 . S
C1511 H1495 0.959 . S
C1511 H1496 0.959 . S
C1511 H1497 0.961 . S
C1511 C1510 1.502 . S
C1512 H1498 0.960 . S
C1512 H1499 0.961 . S
C1512 H1500 0.959 . S
C1512 C1510 1.561 . S
C1513 C1510 1.526 . S
C1513 C1514 1.396 . S
C1513 C1518 1.390 . S
C1514 C1508 1.465 . S
C1514 C1513 1.396 . S
C1514 C1515 1.399 . S
C1515 H1501 0.929 . S
C1515 C1514 1.399 . S
C1515 C1516 1.385 . S
C1516 H1502 0.931 . S
C1516 C1515 1.385 . S
C1516 C1517 1.389 . S
C1517 C1516 1.389 . S
C1517 C1518 1.387 . S
C1518 H1503 0.930 . S
C1518 C1513 1.390 . S
C1518 C1517 1.387 . S
H1519 C1531 0.930 . S
H1520 C1533 0.930 . S
H1521 C1534 0.930 . S
H1522 C1538 0.959 . S
H1523 C1538 0.959 . S
H1524 C1538 0.961 . S
H1525 C1539 0.954 1_455 S
H1526 C1539 0.965 . S
H1527 C1539 0.974 . S
H1528 C1542 0.929 . S
H1529 C1543 0.931 . S
H1530 C1545 0.930 . S
C1531 H1519 0.930 . S
C1531 C1532 1.399 . S
C1531 C1536 1.399 . S
C1532 C1531 1.399 . S
C1532 C1533 1.376 1_545 S
C1533 H1520 0.930 . S
C1533 C1532 1.376 1_565 S
C1533 C1534 1.388 . S
C1534 H1521 0.930 . S
C1534 C1533 1.388 . S
C1534 C1535 1.390 1_565 S
C1535 C1534 1.390 1_545 S
C1535 C1536 1.394 . S
C1535 C1541 1.479 . S
C1536 C1531 1.399 . S
C1536 C1535 1.394 . S
C1536 C1537 1.516 . S
C1537 C1536 1.516 . S
C1537 C1538 1.502 . S
C1537 C1539 1.548 1_455 S
C1537 C1540 1.526 . S
C1538 H1522 0.959 . S
C1538 H1523 0.959 . S
C1538 H1524 0.961 . S
C1538 C1537 1.502 . S
C1539 H1525 0.954 1_655 S
C1539 H1526 0.965 . S
C1539 H1527 0.974 . S
C1539 C1537 1.548 1_655 S
C1540 C1537 1.526 . S
C1540 C1541 1.399 . S
C1540 C1545 1.389 . S
C1541 C1535 1.479 . S
C1541 C1540 1.399 . S
C1541 C1542 1.385 1_445 S
C1542 H1528 0.929 . S
C1542 C1541 1.385 1_665 S
C1542 C1543 1.385 . S
C1543 H1529 0.931 . S
C1543 C1542 1.385 . S
C1543 C1544 1.389 1_565 S
C1544 C1543 1.389 1_545 S
C1544 C1545 1.387 1_655 S
C1545 H1530 0.930 . S
C1545 C1540 1.389 . S
C1545 C1544 1.387 1_455 S
H1546 C1558 0.930 . S
H1547 C1560 0.930 . S
H1548 C1561 0.930 . S
H1549 C1565 0.959 . S
H1550 C1565 0.959 . S
H1551 C1565 0.961 . S
H1552 C1566 0.960 . S
H1553 C1566 0.961 . S
H1554 C1566 0.959 . S
H1555 C1569 0.929 . S
H1556 C1570 0.931 . S
H1557 C1572 0.930 . S
C1558 H1546 0.930 . S
C1558 C1559 1.399 . S
C1558 C1563 1.399 . S
C1559 C1558 1.399 . S
C1559 C1560 1.376 . S
C1560 H1547 0.930 . S
C1560 C1559 1.376 . S
C1560 C1561 1.388 . S
C1561 H1548 0.930 . S
C1561 C1560 1.388 . S
C1561 C1562 1.390 . S
C1562 C1561 1.390 . S
C1562 C1563 1.394 . S
C1562 C1568 1.465 . S
C1563 C1558 1.399 . S
C1563 C1562 1.394 . S
C1563 C1564 1.516 . S
C1564 C1563 1.516 . S
C1564 C1565 1.502 . S
C1564 C1566 1.561 . S
C1564 C1567 1.526 . S
C1565 H1549 0.959 . S
C1565 H1550 0.959 . S
C1565 H1551 0.961 . S
C1565 C1564 1.502 . S
C1566 H1552 0.960 . S
C1566 H1553 0.961 . S
C1566 H1554 0.959 . S
C1566 C1564 1.561 . S
C1567 C1564 1.526 . S
C1567 C1568 1.396 . S
C1567 C1572 1.390 . S
C1568 C1562 1.465 . S
C1568 C1567 1.396 . S
C1568 C1569 1.399 . S
C1569 H1555 0.929 . S
C1569 C1568 1.399 . S
C1569 C1570 1.385 . S
C1570 H1556 0.931 . S
C1570 C1569 1.385 . S
C1570 C1571 1.389 . S
C1571 C1570 1.389 . S
C1571 C1572 1.387 . S
C1572 H1557 0.930 . S
C1572 C1567 1.390 . S
C1572 C1571 1.387 . S
H1573 C1585 0.930 . S
H1574 C1587 0.930 . S
H1575 C1588 0.930 . S
H1576 C1592 0.959 . S
H1577 C1592 0.959 . S
H1578 C1592 0.961 . S
H1579 C1593 0.960 . S
H1580 C1593 0.961 . S
H1581 C1593 0.959 . S
H1582 C1596 0.929 . S
H1583 C1597 0.931 . S
H1584 C1599 0.930 . S
C1585 H1573 0.930 . S
C1585 C1586 1.399 . S
C1585 C1590 1.399 . S
C1586 C1585 1.399 . S
C1586 C1587 1.376 . S
C1587 H1574 0.930 . S
C1587 C1586 1.376 . S
C1587 C1588 1.388 . S
C1588 H1575 0.930 . S
C1588 C1587 1.388 . S
C1588 C1589 1.390 . S
C1589 C1588 1.390 . S
C1589 C1590 1.394 . S
C1589 C1595 1.465 . S
C1590 C1585 1.399 . S
C1590 C1589 1.394 . S
C1590 C1591 1.516 . S
C1591 C1590 1.516 . S
C1591 C1592 1.502 . S
C1591 C1593 1.561 . S
C1591 C1594 1.526 . S
C1592 H1576 0.959 . S
C1592 H1577 0.959 . S
C1592 H1578 0.961 . S
C1592 C1591 1.502 . S
C1593 H1579 0.960 . S
C1593 H1580 0.961 . S
C1593 H1581 0.959 . S
C1593 C1591 1.561 . S
C1594 C1591 1.526 . S
C1594 C1595 1.396 . S
C1594 C1599 1.390 . S
C1595 C1589 1.465 . S
C1595 C1594 1.396 . S
C1595 C1596 1.399 . S
C1596 H1582 0.929 . S
C1596 C1595 1.399 . S
C1596 C1597 1.385 . S
C1597 H1583 0.931 . S
C1597 C1596 1.385 . S
C1597 C1598 1.389 . S
C1598 C1597 1.389 . S
C1598 C1599 1.387 . S
C1599 H1584 0.930 . S
C1599 C1594 1.390 . S
C1599 C1598 1.387 . S
H1600 C1612 0.930 . S
H1601 C1614 0.930 . S
H1602 C1615 0.930 . S
H1603 C1619 0.959 . S
H1604 C1619 0.959 . S
H1605 C1619 0.961 . S
H1606 C1620 0.960 . S
H1607 C1620 0.961 . S
H1608 C1620 0.959 . S
H1609 C1623 0.929 . S
H1610 C1624 0.931 . S
H1611 C1626 0.930 . S
C1612 H1600 0.930 . S
C1612 C1613 1.399 . S
C1612 C1617 1.399 . S
C1613 C1612 1.399 . S
C1613 C1614 1.376 . S
C1614 H1601 0.930 . S
C1614 C1613 1.376 . S
C1614 C1615 1.388 . S
C1615 H1602 0.930 . S
C1615 C1614 1.388 . S
C1615 C1616 1.390 . S
C1616 C1615 1.390 . S
C1616 C1617 1.394 . S
C1616 C1622 1.465 . S
C1617 C1612 1.399 . S
C1617 C1616 1.394 . S
C1617 C1618 1.516 . S
C1618 C1617 1.516 . S
C1618 C1619 1.502 . S
C1618 C1620 1.561 . S
C1618 C1621 1.526 . S
C1619 H1603 0.959 . S
C1619 H1604 0.959 . S
C1619 H1605 0.961 . S
C1619 C1618 1.502 . S
C1620 H1606 0.960 . S
C1620 H1607 0.961 . S
C1620 H1608 0.959 . S
C1620 C1618 1.561 . S
C1621 C1618 1.526 . S
C1621 C1622 1.396 . S
C1621 C1626 1.390 . S
C1622 C1616 1.465 . S
C1622 C1621 1.396 . S
C1622 C1623 1.399 . S
C1623 H1609 0.929 . S
C1623 C1622 1.399 . S
C1623 C1624 1.385 . S
C1624 H1610 0.931 . S
C1624 C1623 1.385 . S
C1624 C1625 1.389 . S
C1625 C1624 1.389 . S
C1625 C1626 1.387 . S
C1626 H1611 0.930 . S
C1626 C1621 1.390 . S
C1626 C1625 1.387 . S
H1627 C1639 0.930 . S
H1628 C1641 0.930 . S
H1629 C1642 0.930 . S
H1630 C1646 0.959 . S
H1631 C1646 0.959 . S
H1632 C1646 0.961 . S
H1633 C1647 0.960 . S
H1634 C1647 0.961 . S
H1635 C1647 0.959 . S
H1636 C1650 0.929 . S
H1637 C1651 0.931 . S
H1638 C1653 0.930 1_655 S
C1639 H1627 0.930 . S
C1639 C1640 1.399 1_655 S
C1639 C1644 1.399 1_655 S
C1640 C1639 1.399 1_455 S
C1640 C1641 1.376 . S
C1641 H1628 0.930 . S
C1641 C1640 1.376 . S
C1641 C1642 1.388 . S
C1642 H1629 0.930 . S
C1642 C1641 1.388 . S
C1642 C1643 1.390 . S
C1643 C1642 1.390 . S
C1643 C1644 1.394 . S
C1643 C1649 1.465 . S
C1644 C1639 1.399 1_455 S
C1644 C1643 1.394 . S
C1644 C1645 1.516 1_455 S
C1645 C1644 1.516 1_655 S
C1645 C1646 1.502 . S
C1645 C1647 1.561 1_655 S
C1645 C1648 1.526 1_655 S
C1646 H1630 0.959 . S
C1646 H1631 0.959 . S
C1646 H1632 0.961 . S
C1646 C1645 1.502 . S
C1647 H1633 0.960 . S
C1647 H1634 0.961 . S
C1647 H1635 0.959 . S
C1647 C1645 1.561 1_455 S
C1648 C1645 1.526 1_455 S
C1648 C1649 1.396 . S
C1648 C1653 1.390 . S
C1649 C1643 1.465 . S
C1649 C1648 1.396 . S
C1649 C1650 1.399 . S
C1650 H1636 0.929 . S
C1650 C1649 1.399 . S
C1650 C1651 1.385 . S
C1651 H1637 0.931 . S
C1651 C1650 1.385 . S
C1651 C1652 1.389 . S
C1652 C1651 1.389 . S
C1652 C1653 1.387 . S
C1653 H1638 0.930 1_455 S
C1653 C1648 1.390 . S
C1653 C1652 1.387 . S
H1654 C1666 0.930 . S
H1655 C1668 0.930 . S
H1656 C1669 0.930 . S
H1657 C1673 0.959 . S
H1658 C1673 0.959 . S
H1659 C1673 0.961 . S
H1660 C1674 0.960 . S
H1661 C1674 0.961 . S
H1662 C1674 0.959 . S
H1663 C1677 0.929 . S
H1664 C1678 0.931 . S
H1665 C1680 0.930 . S
C1666 H1654 0.930 . S
C1666 C1667 1.399 . S
C1666 C1671 1.399 . S
C1667 C1666 1.399 . S
C1667 C1668 1.376 . S
C1668 H1655 0.930 . S
C1668 C1667 1.376 . S
C1668 C1669 1.388 . S
C1669 H1656 0.930 . S
C1669 C1668 1.388 . S
C1669 C1670 1.390 . S
C1670 C1669 1.390 . S
C1670 C1671 1.394 . S
C1670 C1676 1.465 . S
C1671 C1666 1.399 . S
C1671 C1670 1.394 . S
C1671 C1672 1.516 . S
C1672 C1671 1.516 . S
C1672 C1673 1.502 . S
C1672 C1674 1.561 . S
C1672 C1675 1.526 . S
C1673 H1657 0.959 . S
C1673 H1658 0.959 . S
C1673 H1659 0.961 . S
C1673 C1672 1.502 . S
C1674 H1660 0.960 . S
C1674 H1661 0.961 . S
C1674 H1662 0.959 . S
C1674 C1672 1.561 . S
C1675 C1672 1.526 . S
C1675 C1676 1.396 . S
C1675 C1680 1.390 . S
C1676 C1670 1.465 . S
C1676 C1675 1.396 . S
C1676 C1677 1.399 . S
C1677 H1663 0.929 . S
C1677 C1676 1.399 . S
C1677 C1678 1.385 . S
C1678 H1664 0.931 . S
C1678 C1677 1.385 . S
C1678 C1679 1.389 . S
C1679 C1678 1.389 . S
C1679 C1680 1.387 . S
C1680 H1665 0.930 . S
C1680 C1675 1.390 . S
C1680 C1679 1.387 . S
H1681 C1693 0.930 . S
H1682 C1695 0.930 . S
H1683 C1696 0.930 . S
H1684 C1700 0.959 . S
H1685 C1700 0.959 . S
H1686 C1700 0.961 . S
H1687 C1701 0.960 . S
H1688 C1701 0.961 . S
H1689 C1701 0.959 . S
H1690 C1704 0.929 . S
H1691 C1705 0.931 . S
H1692 C1707 0.930 . S
C1693 H1681 0.930 . S
C1693 C1694 1.399 . S
C1693 C1698 1.399 . S
C1694 C1693 1.399 . S
C1694 C1695 1.376 . S
C1695 H1682 0.930 . S
C1695 C1694 1.376 . S
C1695 C1696 1.388 . S
C1696 H1683 0.930 . S
C1696 C1695 1.388 . S
C1696 C1697 1.390 . S
C1697 C1696 1.390 . S
C1697 C1698 1.394 . S
C1697 C1703 1.465 . S
C1698 C1693 1.399 . S
C1698 C1697 1.394 . S
C1698 C1699 1.516 . S
C1699 C1698 1.516 . S
C1699 C1700 1.502 . S
C1699 C1701 1.561 . S
C1699 C1702 1.526 . S
C1700 H1684 0.959 . S
C1700 H1685 0.959 . S
C1700 H1686 0.961 . S
C1700 C1699 1.502 . S
C1701 H1687 0.960 . S
C1701 H1688 0.961 . S
C1701 H1689 0.959 . S
C1701 C1699 1.561 . S
C1702 C1699 1.526 . S
C1702 C1703 1.396 . S
C1702 C1707 1.390 . S
C1703 C1697 1.465 . S
C1703 C1702 1.396 . S
C1703 C1704 1.399 . S
C1704 H1690 0.929 . S
C1704 C1703 1.399 . S
C1704 C1705 1.385 . S
C1705 H1691 0.931 . S
C1705 C1704 1.385 . S
C1705 C1706 1.389 . S
C1706 C1705 1.389 . S
C1706 C1707 1.387 . S
C1707 H1692 0.930 . S
C1707 C1702 1.390 . S
C1707 C1706 1.387 . S
H1708 C1720 0.930 . S
H1709 C1722 0.930 . S
H1710 C1723 0.930 . S
H1711 C1727 0.959 . S
H1712 C1727 0.959 . S
H1713 C1727 0.961 . S
H1714 C1728 0.960 . S
H1715 C1728 0.961 . S
H1716 C1728 0.959 . S
H1717 C1731 0.929 . S
H1718 C1732 0.931 . S
H1719 C1734 0.930 . S
C1720 H1708 0.930 . S
C1720 C1721 1.399 . S
C1720 C1725 1.399 . S
C1721 C1720 1.399 . S
C1721 C1722 1.376 . S
C1722 H1709 0.930 . S
C1722 C1721 1.376 . S
C1722 C1723 1.388 . S
C1723 H1710 0.930 . S
C1723 C1722 1.388 . S
C1723 C1724 1.390 . S
C1724 C1723 1.390 . S
C1724 C1725 1.394 . S
C1724 C1730 1.465 . S
C1725 C1720 1.399 . S
C1725 C1724 1.394 . S
C1725 C1726 1.516 . S
C1726 C1725 1.516 . S
C1726 C1727 1.502 . S
C1726 C1728 1.561 . S
C1726 C1729 1.526 . S
C1727 H1711 0.959 . S
C1727 H1712 0.959 . S
C1727 H1713 0.961 . S
C1727 C1726 1.502 . S
C1728 H1714 0.960 . S
C1728 H1715 0.961 . S
C1728 H1716 0.959 . S
C1728 C1726 1.561 . S
C1729 C1726 1.526 . S
C1729 C1730 1.396 . S
C1729 C1734 1.390 . S
C1730 C1724 1.465 . S
C1730 C1729 1.396 . S
C1730 C1731 1.399 . S
C1731 H1717 0.929 . S
C1731 C1730 1.399 . S
C1731 C1732 1.385 . S
C1732 H1718 0.931 . S
C1732 C1731 1.385 . S
C1732 C1733 1.389 . S
C1733 C1732 1.389 . S
C1733 C1734 1.387 . S
C1734 H1719 0.930 . S
C1734 C1729 1.390 . S
C1734 C1733 1.387 . S
H1735 C1747 0.930 . S
H1736 C1749 0.930 . S
H1737 C1750 0.930 . S
H1738 C1754 0.959 . S
H1739 C1754 0.959 . S
H1740 C1754 0.961 . S
H1741 C1755 0.960 . S
H1742 C1755 0.961 . S
H1743 C1755 0.959 . S
H1744 C1758 0.929 . S
H1745 C1759 0.931 . S
H1746 C1761 0.930 . S
C1747 H1735 0.930 . S
C1747 C1748 1.399 . S
C1747 C1752 1.399 . S
C1748 C1747 1.399 . S
C1748 C1749 1.376 . S
C1749 H1736 0.930 . S
C1749 C1748 1.376 . S
C1749 C1750 1.388 . S
C1750 H1737 0.930 . S
C1750 C1749 1.388 . S
C1750 C1751 1.390 . S
C1751 C1750 1.390 . S
C1751 C1752 1.394 . S
C1751 C1757 1.465 . S
C1752 C1747 1.399 . S
C1752 C1751 1.394 . S
C1752 C1753 1.516 . S
C1753 C1752 1.516 . S
C1753 C1754 1.502 . S
C1753 C1755 1.561 . S
C1753 C1756 1.526 . S
C1754 H1738 0.959 . S
C1754 H1739 0.959 . S
C1754 H1740 0.961 . S
C1754 C1753 1.502 . S
C1755 H1741 0.960 . S
C1755 H1742 0.961 . S
C1755 H1743 0.959 . S
C1755 C1753 1.561 . S
C1756 C1753 1.526 . S
C1756 C1757 1.396 . S
C1756 C1761 1.390 . S
C1757 C1751 1.465 . S
C1757 C1756 1.396 . S
C1757 C1758 1.399 . S
C1758 H1744 0.929 . S
C1758 C1757 1.399 . S
C1758 C1759 1.385 . S
C1759 H1745 0.931 . S
C1759 C1758 1.385 . S
C1759 C1760 1.389 . S
C1760 C1759 1.389 . S
C1760 C1761 1.387 . S
C1761 H1746 0.930 . S
C1761 C1756 1.390 . S
C1761 C1760 1.387 . S
H1762 C1774 0.930 . S
H1763 C1776 0.930 . S
H1764 C1777 0.930 . S
H1765 C1781 0.959 . S
H1766 C1781 0.959 . S
H1767 C1781 0.961 . S
H1768 C1782 0.960 . S
H1769 C1782 0.961 . S
H1770 C1782 0.959 . S
H1771 C1785 0.929 . S
H1772 C1786 0.931 . S
H1773 C1788 0.930 . S
C1774 H1762 0.930 . S
C1774 C1775 1.399 . S
C1774 C1779 1.399 . S
C1775 C1774 1.399 . S
C1775 C1776 1.376 . S
C1776 H1763 0.930 . S
C1776 C1775 1.376 . S
C1776 C1777 1.388 . S
C1777 H1764 0.930 . S
C1777 C1776 1.388 . S
C1777 C1778 1.390 . S
C1778 C1777 1.390 . S
C1778 C1779 1.394 . S
C1778 C1784 1.465 . S
C1779 C1774 1.399 . S
C1779 C1778 1.394 . S
C1779 C1780 1.516 . S
C1780 C1779 1.516 . S
C1780 C1781 1.502 . S
C1780 C1782 1.561 . S
C1780 C1783 1.526 . S
C1781 H1765 0.959 . S
C1781 H1766 0.959 . S
C1781 H1767 0.961 . S
C1781 C1780 1.502 . S
C1782 H1768 0.960 . S
C1782 H1769 0.961 . S
C1782 H1770 0.959 . S
C1782 C1780 1.561 . S
C1783 C1780 1.526 . S
C1783 C1784 1.396 . S
C1783 C1788 1.390 . S
C1784 C1778 1.465 . S
C1784 C1783 1.396 . S
C1784 C1785 1.399 . S
C1785 H1771 0.929 . S
C1785 C1784 1.399 . S
C1785 C1786 1.385 . S
C1786 H1772 0.931 . S
C1786 C1785 1.385 . S
C1786 C1787 1.389 . S
C1787 C1786 1.389 . S
C1787 C1788 1.387 . S
C1788 H1773 0.930 . S
C1788 C1783 1.390 . S
C1788 C1787 1.387 . S
H1789 C1801 0.930 1_556 S
H1790 C1803 0.930 . S
H1791 C1804 0.930 . S
H1792 C1808 0.959 . S
H1793 C1808 0.959 . S
H1794 C1808 0.961 . S
H1795 C1809 0.960 . S
H1796 C1809 0.961 . S
H1797 C1809 0.959 . S
H1798 C1812 0.929 . S
H1799 C1813 0.931 . S
H1800 C1815 0.930 . S
C1801 H1789 0.930 1_554 S
C1801 C1802 1.399 . S
C1801 C1806 1.399 . S
C1802 C1801 1.399 . S
C1802 C1803 1.376 . S
C1803 H1790 0.930 . S
C1803 C1802 1.376 . S
C1803 C1804 1.388 . S
C1804 H1791 0.930 . S
C1804 C1803 1.388 . S
C1804 C1805 1.390 . S
C1805 C1804 1.390 . S
C1805 C1806 1.394 . S
C1805 C1811 1.465 . S
C1806 C1801 1.399 . S
C1806 C1805 1.394 . S
C1806 C1807 1.516 . S
C1807 C1806 1.516 . S
C1807 C1808 1.502 . S
C1807 C1809 1.561 . S
C1807 C1810 1.526 . S
C1808 H1792 0.959 . S
C1808 H1793 0.959 . S
C1808 H1794 0.961 . S
C1808 C1807 1.502 . S
C1809 H1795 0.960 . S
C1809 H1796 0.961 . S
C1809 H1797 0.959 . S
C1809 C1807 1.561 . S
C1810 C1807 1.526 . S
C1810 C1811 1.396 . S
C1810 C1815 1.390 . S
C1811 C1805 1.465 . S
C1811 C1810 1.396 . S
C1811 C1812 1.399 . S
C1812 H1798 0.929 . S
C1812 C1811 1.399 . S
C1812 C1813 1.385 . S
C1813 H1799 0.931 . S
C1813 C1812 1.385 . S
C1813 C1814 1.389 . S
C1814 C1813 1.389 . S
C1814 C1815 1.387 . S
C1815 H1800 0.930 . S
C1815 C1810 1.390 . S
C1815 C1814 1.387 . S
H1816 C1828 0.930 . S
H1817 C1830 0.930 . S
H1818 C1831 0.930 . S
H1819 C1835 0.959 . S
H1820 C1835 0.959 . S
H1821 C1835 0.961 . S
H1822 C1836 0.960 . S
H1823 C1836 0.961 . S
H1824 C1836 0.959 . S
H1825 C1839 0.929 . S
H1826 C1840 0.931 . S
H1827 C1842 0.930 . S
C1828 H1816 0.930 . S
C1828 C1829 1.399 . S
C1828 C1833 1.399 . S
C1829 C1828 1.399 . S
C1829 C1830 1.376 . S
C1830 H1817 0.930 . S
C1830 C1829 1.376 . S
C1830 C1831 1.388 . S
C1831 H1818 0.930 . S
C1831 C1830 1.388 . S
C1831 C1832 1.390 . S
C1832 C1831 1.390 . S
C1832 C1833 1.394 . S
C1832 C1838 1.465 . S
C1833 C1828 1.399 . S
C1833 C1832 1.394 . S
C1833 C1834 1.516 . S
C1834 C1833 1.516 . S
C1834 C1835 1.502 . S
C1834 C1836 1.561 . S
C1834 C1837 1.526 . S
C1835 H1819 0.959 . S
C1835 H1820 0.959 . S
C1835 H1821 0.961 . S
C1835 C1834 1.502 . S
C1836 H1822 0.960 . S
C1836 H1823 0.961 . S
C1836 H1824 0.959 . S
C1836 C1834 1.561 . S
C1837 C1834 1.526 . S
C1837 C1838 1.396 . S
C1837 C1842 1.390 . S
C1838 C1832 1.465 . S
C1838 C1837 1.396 . S
C1838 C1839 1.399 . S
C1839 H1825 0.929 . S
C1839 C1838 1.399 . S
C1839 C1840 1.385 . S
C1840 H1826 0.931 . S
C1840 C1839 1.385 . S
C1840 C1841 1.389 . S
C1841 C1840 1.389 . S
C1841 C1842 1.387 . S
C1842 H1827 0.930 . S
C1842 C1837 1.390 . S
C1842 C1841 1.387 . S
H1843 C1855 0.930 . S
H1844 C1857 0.930 . S
H1845 C1858 0.930 . S
H1846 C1862 0.959 . S
H1847 C1862 0.959 . S
H1848 C1862 0.961 . S
H1849 C1863 0.960 . S
H1850 C1863 0.961 . S
H1851 C1863 0.959 . S
H1852 C1866 0.929 . S
H1853 C1867 0.931 . S
H1854 C1869 0.930 . S
C1855 H1843 0.930 . S
C1855 C1856 1.399 . S
C1855 C1860 1.399 . S
C1856 C1855 1.399 . S
C1856 C1857 1.376 . S
C1857 H1844 0.930 . S
C1857 C1856 1.376 . S
C1857 C1858 1.388 . S
C1858 H1845 0.930 . S
C1858 C1857 1.388 . S
C1858 C1859 1.390 . S
C1859 C1858 1.390 . S
C1859 C1860 1.394 . S
C1859 C1865 1.465 . S
C1860 C1855 1.399 . S
C1860 C1859 1.394 . S
C1860 C1861 1.516 . S
C1861 C1860 1.516 . S
C1861 C1862 1.502 . S
C1861 C1863 1.561 . S
C1861 C1864 1.526 . S
C1862 H1846 0.959 . S
C1862 H1847 0.959 . S
C1862 H1848 0.961 . S
C1862 C1861 1.502 . S
C1863 H1849 0.960 . S
C1863 H1850 0.961 . S
C1863 H1851 0.959 . S
C1863 C1861 1.561 . S
C1864 C1861 1.526 . S
C1864 C1865 1.396 . S
C1864 C1869 1.390 . S
C1865 C1859 1.465 . S
C1865 C1864 1.396 . S
C1865 C1866 1.399 . S
C1866 H1852 0.929 . S
C1866 C1865 1.399 . S
C1866 C1867 1.385 . S
C1867 H1853 0.931 . S
C1867 C1866 1.385 . S
C1867 C1868 1.389 . S
C1868 C1867 1.389 . S
C1868 C1869 1.387 . S
C1869 H1854 0.930 . S
C1869 C1864 1.390 . S
C1869 C1868 1.387 . S
H1870 C1882 0.930 . S
H1871 C1884 0.930 . S
H1872 C1885 0.930 . S
H1873 C1889 0.959 . S
H1874 C1889 0.959 . S
H1875 C1889 0.961 . S
H1876 C1890 0.960 . S
H1877 C1890 0.961 . S
H1878 C1890 0.959 . S
H1879 C1893 0.929 . S
H1880 C1894 0.931 . S
H1881 C1896 0.930 . S
C1882 H1870 0.930 . S
C1882 C1883 1.399 . S
C1882 C1887 1.399 . S
C1883 C1882 1.399 . S
C1883 C1884 1.376 . S
C1884 H1871 0.930 . S
C1884 C1883 1.376 . S
C1884 C1885 1.388 . S
C1885 H1872 0.930 . S
C1885 C1884 1.388 . S
C1885 C1886 1.390 . S
C1886 C1885 1.390 . S
C1886 C1887 1.394 . S
C1886 C1892 1.465 . S
C1887 C1882 1.399 . S
C1887 C1886 1.394 . S
C1887 C1888 1.516 . S
C1888 C1887 1.516 . S
C1888 C1889 1.502 . S
C1888 C1890 1.561 . S
C1888 C1891 1.526 . S
C1889 H1873 0.959 . S
C1889 H1874 0.959 . S
C1889 H1875 0.961 . S
C1889 C1888 1.502 . S
C1890 H1876 0.960 . S
C1890 H1877 0.961 . S
C1890 H1878 0.959 . S
C1890 C1888 1.561 . S
C1891 C1888 1.526 . S
C1891 C1892 1.396 . S
C1891 C1896 1.390 . S
C1892 C1886 1.465 . S
C1892 C1891 1.396 . S
C1892 C1893 1.399 . S
C1893 H1879 0.929 . S
C1893 C1892 1.399 . S
C1893 C1894 1.385 . S
C1894 H1880 0.931 . S
C1894 C1893 1.385 . S
C1894 C1895 1.389 . S
C1895 C1894 1.389 . S
C1895 C1896 1.387 . S
C1896 H1881 0.930 . S
C1896 C1891 1.390 . S
C1896 C1895 1.387 . S
H1897 C1909 0.930 . S
H1898 C1911 0.930 . S
H1899 C1912 0.930 . S
H1900 C1916 0.959 . S
H1901 C1916 0.959 . S
H1902 C1916 0.961 . S
H1903 C1917 0.960 . S
H1904 C1917 0.961 . S
H1905 C1917 0.959 . S
H1906 C1920 0.929 . S
H1907 C1921 0.931 . S
H1908 C1923 0.930 . S
C1909 H1897 0.930 . S
C1909 C1910 1.399 . S
C1909 C1914 1.399 . S
C1910 C1909 1.399 . S
C1910 C1911 1.376 . S
C1911 H1898 0.930 . S
C1911 C1910 1.376 . S
C1911 C1912 1.388 . S
C1912 H1899 0.930 . S
C1912 C1911 1.388 . S
C1912 C1913 1.390 . S
C1913 C1912 1.390 . S
C1913 C1914 1.394 . S
C1913 C1919 1.465 . S
C1914 C1909 1.399 . S
C1914 C1913 1.394 . S
C1914 C1915 1.516 . S
C1915 C1914 1.516 . S
C1915 C1916 1.502 . S
C1915 C1917 1.561 . S
C1915 C1918 1.526 . S
C1916 H1900 0.959 . S
C1916 H1901 0.959 . S
C1916 H1902 0.961 . S
C1916 C1915 1.502 . S
C1917 H1903 0.960 . S
C1917 H1904 0.961 . S
C1917 H1905 0.959 . S
C1917 C1915 1.561 . S
C1918 C1915 1.526 . S
C1918 C1919 1.396 . S
C1918 C1923 1.390 . S
C1919 C1913 1.465 . S
C1919 C1918 1.396 . S
C1919 C1920 1.399 . S
C1920 H1906 0.929 . S
C1920 C1919 1.399 . S
C1920 C1921 1.385 . S
C1921 H1907 0.931 . S
C1921 C1920 1.385 . S
C1921 C1922 1.389 . S
C1922 C1921 1.389 . S
C1922 C1923 1.387 . S
C1923 H1908 0.930 . S
C1923 C1918 1.390 . S
C1923 C1922 1.387 . S
H1924 C1936 0.930 . S
H1925 C1938 0.930 . S
H1926 C1939 0.930 . S
H1927 C1943 0.959 . S
H1928 C1943 0.959 . S
H1929 C1943 0.961 . S
H1930 C1944 0.960 . S
H1931 C1944 0.961 . S
H1932 C1944 0.959 . S
H1933 C1947 0.929 . S
H1934 C1948 0.931 . S
H1935 C1950 0.930 . S
C1936 H1924 0.930 . S
C1936 C1937 1.399 1_554 S
C1936 C1941 1.399 . S
C1937 C1936 1.399 1_556 S
C1937 C1938 1.376 . S
C1938 H1925 0.930 . S
C1938 C1937 1.376 . S
C1938 C1939 1.388 . S
C1939 H1926 0.930 . S
C1939 C1938 1.388 . S
C1939 C1940 1.390 . S
C1940 C1939 1.390 . S
C1940 C1941 1.394 1_556 S
C1940 C1946 1.465 . S
C1941 C1936 1.399 . S
C1941 C1940 1.394 1_554 S
C1941 C1942 1.516 . S
C1942 C1941 1.516 . S
C1942 C1943 1.502 . S
C1942 C1944 1.561 . S
C1942 C1945 1.526 . S
C1943 H1927 0.959 . S
C1943 H1928 0.959 . S
C1943 H1929 0.961 . S
C1943 C1942 1.502 . S
C1944 H1930 0.960 . S
C1944 H1931 0.961 . S
C1944 H1932 0.959 . S
C1944 C1942 1.561 . S
C1945 C1942 1.526 . S
C1945 C1946 1.396 1_554 S
C1945 C1950 1.390 . S
C1946 C1940 1.465 . S
C1946 C1945 1.396 1_556 S
C1946 C1947 1.399 . S
C1947 H1933 0.929 . S
C1947 C1946 1.399 . S
C1947 C1948 1.385 . S
C1948 H1934 0.931 . S
C1948 C1947 1.385 . S
C1948 C1949 1.389 . S
C1949 C1948 1.389 . S
C1949 C1950 1.387 1_556 S
C1950 H1935 0.930 . S
C1950 C1945 1.390 . S
C1950 C1949 1.387 1_554 S
H1951 C1963 0.930 . S
H1952 C1965 0.930 . S
H1953 C1966 0.930 . S
H1954 C1970 0.959 . S
H1955 C1970 0.959 . S
H1956 C1970 0.961 . S
H1957 C1971 0.960 . S
H1958 C1971 0.961 . S
H1959 C1971 0.959 . S
H1960 C1974 0.929 . S
H1961 C1975 0.931 . S
H1962 C1977 0.930 . S
C1963 H1951 0.930 . S
C1963 C1964 1.399 . S
C1963 C1968 1.399 . S
C1964 C1963 1.399 . S
C1964 C1965 1.376 . S
C1965 H1952 0.930 . S
C1965 C1964 1.376 . S
C1965 C1966 1.388 . S
C1966 H1953 0.930 . S
C1966 C1965 1.388 . S
C1966 C1967 1.390 . S
C1967 C1966 1.390 . S
C1967 C1968 1.394 . S
C1967 C1973 1.465 . S
C1968 C1963 1.399 . S
C1968 C1967 1.394 . S
C1968 C1969 1.516 . S
C1969 C1968 1.516 . S
C1969 C1970 1.502 . S
C1969 C1971 1.561 . S
C1969 C1972 1.526 . S
C1970 H1954 0.959 . S
C1970 H1955 0.959 . S
C1970 H1956 0.961 . S
C1970 C1969 1.502 . S
C1971 H1957 0.960 . S
C1971 H1958 0.961 . S
C1971 H1959 0.959 . S
C1971 C1969 1.561 . S
C1972 C1969 1.526 . S
C1972 C1973 1.396 . S
C1972 C1977 1.390 . S
C1973 C1967 1.465 . S
C1973 C1972 1.396 . S
C1973 C1974 1.399 . S
C1974 H1960 0.929 . S
C1974 C1973 1.399 . S
C1974 C1975 1.385 . S
C1975 H1961 0.931 . S
C1975 C1974 1.385 . S
C1975 C1976 1.389 . S
C1976 C1975 1.389 . S
C1976 C1977 1.387 . S
C1977 H1962 0.930 . S
C1977 C1972 1.390 . S
C1977 C1976 1.387 . S
H1978 C1990 0.930 . S
H1979 C1992 0.930 . S
H1980 C1993 0.930 . S
H1981 C1997 0.959 . S
H1982 C1997 0.959 . S
H1983 C1997 0.979 . S
H1984 C1998 0.960 . S
H1985 C1998 0.961 . S
H1986 C1998 0.959 . S
H1987 C2001 0.929 . S
H1988 C2002 0.931 . S
H1989 C2004 0.930 . S
C1990 H1978 0.930 . S
C1990 C1991 1.399 . S
C1990 C1995 1.399 . S
C1991 C1990 1.399 . S
C1991 C1992 1.376 . S
C1992 H1979 0.930 . S
C1992 C1991 1.376 . S
C1992 C1993 1.388 . S
C1993 H1980 0.930 . S
C1993 C1992 1.388 . S
C1993 C1994 1.390 . S
C1994 C1993 1.390 . S
C1994 C1995 1.394 . S
C1994 C2000 1.465 . S
C1995 C1990 1.399 . S
C1995 C1994 1.394 . S
C1995 C1996 1.516 . S
C1996 C1995 1.516 . S
C1996 C1997 1.502 1_554 S
C1996 C1998 1.561 . S
C1996 C1999 1.526 . S
C1997 H1981 0.959 . S
C1997 H1982 0.959 . S
C1997 H1983 0.979 . S
C1997 C1996 1.502 1_556 S
C1998 H1984 0.960 . S
C1998 H1985 0.961 . S
C1998 H1986 0.959 . S
C1998 C1996 1.561 . S
C1999 C1996 1.526 . S
C1999 C2000 1.396 . S
C1999 C2004 1.390 . S
C2000 C1994 1.465 . S
C2000 C1999 1.396 . S
C2000 C2001 1.399 . S
C2001 H1987 0.929 . S
C2001 C2000 1.399 . S
C2001 C2002 1.385 . S
C2002 H1988 0.931 . S
C2002 C2001 1.385 . S
C2002 C2003 1.389 . S
C2003 C2002 1.389 . S
C2003 C2004 1.387 . S
C2004 H1989 0.930 . S
C2004 C1999 1.390 . S
C2004 C2003 1.387 . S
H2005 C2017 0.930 . S
H2006 C2019 0.930 . S
H2007 C2020 0.926 1_545 S
H2008 C2024 0.959 . S
H2009 C2024 0.959 . S
H2010 C2024 0.961 . S
H2011 C2025 0.960 . S
H2012 C2025 0.961 . S
H2013 C2025 0.959 . S
H2014 C2028 0.929 . S
H2015 C2029 0.931 . S
H2016 C2031 0.930 . S
C2017 H2005 0.930 . S
C2017 C2018 1.399 . S
C2017 C2022 1.399 . S
C2018 C2017 1.399 . S
C2018 C2019 1.376 1_565 S
C2019 H2006 0.930 . S
C2019 C2018 1.376 1_545 S
C2019 C2020 1.385 1_545 S
C2020 H2007 0.926 1_565 S
C2020 C2019 1.385 1_565 S
C2020 C2021 1.397 . S
C2021 C2020 1.397 . S
C2021 C2022 1.394 . S
C2021 C2027 1.465 . S
C2022 C2017 1.399 . S
C2022 C2021 1.394 . S
C2022 C2023 1.516 . S
C2023 C2022 1.516 . S
C2023 C2024 1.502 . S
C2023 C2025 1.561 1_554 S
C2023 C2026 1.526 . S
C2024 H2008 0.959 . S
C2024 H2009 0.959 . S
C2024 H2010 0.961 . S
C2024 C2023 1.502 . S
C2025 H2011 0.960 . S
C2025 H2012 0.961 . S
C2025 H2013 0.959 . S
C2025 C2023 1.561 1_556 S
C2026 C2023 1.526 . S
C2026 C2027 1.396 . S
C2026 C2031 1.390 . S
C2027 C2021 1.465 . S
C2027 C2026 1.396 . S
C2027 C2028 1.399 . S
C2028 H2014 0.929 . S
C2028 C2027 1.399 . S
C2028 C2029 1.385 . S
C2029 H2015 0.931 . S
C2029 C2028 1.385 . S
C2029 C2030 1.389 . S
C2030 C2029 1.389 . S
C2030 C2031 1.387 . S
C2031 H2016 0.930 . S
C2031 C2026 1.390 . S
C2031 C2030 1.387 . S
C761 C306 1.832 1_556 S
C749 C101 1.790 . S
C788 C354 1.178 . S
C776 C125 1.088 . S
C803 C139 1.905 . S
C815 C390 1.797 . S
C842 C426 1.816 . S
C830 C82 1.868 . S
C869 C452 1.486 . S
C857 C196 1.494 . S
C896 C488 1.924 . S
C884 C234 1.916 . S
C911 C220 0.843 . S
C923 C523 1.071 . S
C950 C560 1.737 . S
C938 C173 1.755 . S
C965 C211 1.129 . S
C977 C594 1.069 . S
C1004 C642 1.167 . S
C992 C182 1.035 . S
C1019 C201 1.084 . S
C1031 C595 1.320 . S
C1058 C632 1.482 . S
C1046 C239 1.392 . S
C1073 C135 1.570 . S
C1085 C678 1.479 . S
C1100 C87 1.875 . S
C1112 C667 1.991 . S
C1127 C106 1.111 . S
C1139 C668 1.357 . S
C1154 C116 1.316 . S
C1166 C666 1.305 1_655 S
C1181 C59 1.728 . S
C1193 C414 1.743 . S
C1208 C268 2.164 . S
C1220 C415 2.184 . S
C1247 C318 1.308 . S
C1235 C291 1.438 . S
C1274 C343 1.398 . S
C1262 C163 1.290 . S
C1289 C78 2.141 1_545 S
C1301 C450 2.149 . S
C1328 C558 1.218 . S
C1316 C215 1.149 . S
C1355 C451 1.579 . S
C1343 C177 1.597 . S
C1382 C524 1.904 . S
C1370 C230 1.877 . S
C1409 C522 1.835 . S
C1397 C272 1.777 . S
C1424 C296 1.165 . S
C1436 C570 1.233 . S
C1451 C158 1.905 . S
C1463 C462 1.772 . S
C1490 C498 1.811 . S
C1478 C253 1.865 . S
C1505 C63 1.489 . S
C1517 C380 1.458 . S
C1544 C416 1.881 . S
C1532 C6 1.941 . S
C1571 C307 1.035 . S
C1559 C30 0.971 . S
C1598 C344 1.737 . S
C1586 C40 1.757 . S
C1613 C21 1.051 . S
C1625 C630 1.121 . S
C1640 C49 1.142 . S
C1652 C606 1.149 . S
C1667 C68 1.193 . S
C1679 C631 1.320 . S
C1694 C11 1.403 . S
C1706 C596 1.484 . S
C1733 C714 1.550 . S
C1721 C154 1.589 . S
C1760 C703 1.993 . S
C1748 C258 1.874 . S
C1787 C704 1.341 . S
C1775 C277 1.200 . S
C1802 C287 1.271 1_554 S
C1814 C702 1.330 . S
C1829 C192 1.701 . S
C1841 C486 1.735 . S
C1868 C487 2.175 . S
C1856 C97 2.178 . S
C1895 C534 1.384 . S
C1883 C120 1.425 . S
C1922 C559 1.400 . S
C1910 C144 1.336 . S
C1937 C249 2.138 . S
C1949 C378 2.163 1_556 S
C1976 C342 1.130 . S
C1964 C25 1.212 . S
C1991 C44 1.595 . S
C2003 C379 1.576 1_554 S
C2030 C308 1.899 . S
C2018 C2 1.885 1_565 S
