# Generated by pormake.
# Topology nom, (4,4)-cn, num edge types: 1
# Building blocks:
#     Node 0, Type 0, BuildingBlock: MIFKUJ_clean_linker_1, # of connection points: 4
#     Node 1, Type 0, BuildingBlock: MIFKUJ_clean_linker_1, # of connection points: 4
#     Node 2, Type 0, BuildingBlock: MIFKUJ_clean_linker_1, # of connection points: 4
#     Node 3, Type 0, BuildingBlock: MIFKUJ_clean_linker_1, # of connection points: 4
#     Node 4, Type 0, BuildingBlock: MIFKUJ_clean_linker_1, # of connection points: 4
#     Node 5, Type 0, BuildingBlock: MIFKUJ_clean_linker_1, # of connection points: 4
#     Node 6, Type 1, BuildingBlock: AZAVOO_clean_sbu_0, # of connection points: 4
#     Node 7, Type 1, BuildingBlock: AZAVOO_clean_sbu_0, # of connection points: 4
#     Node 8, Type 1, BuildingBlock: AZAVOO_clean_sbu_0, # of connection points: 4
#     Node 9, Type 1, BuildingBlock: AZAVOO_clean_sbu_0, # of connection points: 4
#     Node 10, Type 1, BuildingBlock: AZAVOO_clean_sbu_0, # of connection points: 4
#     Node 11, Type 1, BuildingBlock: AZAVOO_clean_sbu_0, # of connection points: 4
#     Edge 12, Type (0, 1), BuildingBlock: XIVTED_clean_linker_0, # of connection points: 2
#     Edge 13, Type (0, 1), BuildingBlock: XIVTED_clean_linker_0, # of connection points: 2
#     Edge 14, Type (0, 1), BuildingBlock: XIVTED_clean_linker_0, # of connection points: 2
#     Edge 15, Type (0, 1), BuildingBlock: XIVTED_clean_linker_0, # of connection points: 2
#     Edge 16, Type (0, 1), BuildingBlock: XIVTED_clean_linker_0, # of connection points: 2
#     Edge 17, Type (0, 1), BuildingBlock: XIVTED_clean_linker_0, # of connection points: 2
#     Edge 18, Type (0, 1), BuildingBlock: XIVTED_clean_linker_0, # of connection points: 2
#     Edge 19, Type (0, 1), BuildingBlock: XIVTED_clean_linker_0, # of connection points: 2
#     Edge 20, Type (0, 1), BuildingBlock: XIVTED_clean_linker_0, # of connection points: 2
#     Edge 21, Type (0, 1), BuildingBlock: XIVTED_clean_linker_0, # of connection points: 2
#     Edge 22, Type (0, 1), BuildingBlock: XIVTED_clean_linker_0, # of connection points: 2
#     Edge 23, Type (0, 1), BuildingBlock: XIVTED_clean_linker_0, # of connection points: 2
#     Edge 24, Type (0, 1), BuildingBlock: XIVTED_clean_linker_0, # of connection points: 2
#     Edge 25, Type (0, 1), BuildingBlock: XIVTED_clean_linker_0, # of connection points: 2
#     Edge 26, Type (0, 1), BuildingBlock: XIVTED_clean_linker_0, # of connection points: 2
#     Edge 27, Type (0, 1), BuildingBlock: XIVTED_clean_linker_0, # of connection points: 2
#     Edge 28, Type (0, 1), BuildingBlock: XIVTED_clean_linker_0, # of connection points: 2
#     Edge 29, Type (0, 1), BuildingBlock: XIVTED_clean_linker_0, # of connection points: 2
#     Edge 30, Type (0, 1), BuildingBlock: XIVTED_clean_linker_0, # of connection points: 2
#     Edge 31, Type (0, 1), BuildingBlock: XIVTED_clean_linker_0, # of connection points: 2
#     Edge 32, Type (0, 1), BuildingBlock: XIVTED_clean_linker_0, # of connection points: 2
#     Edge 33, Type (0, 1), BuildingBlock: XIVTED_clean_linker_0, # of connection points: 2
#     Edge 34, Type (0, 1), BuildingBlock: XIVTED_clean_linker_0, # of connection points: 2
#     Edge 35, Type (0, 1), BuildingBlock: XIVTED_clean_linker_0, # of connection points: 2
# Relax obj value: 0.035
# Max RMSD: 0.156
# Mean RMSD: 0.123
data_MOF--net-nom--node1-AZAVOO_clean_sbu_0--node2-MIFKUJ_clean_linker_1--edge1-XIVTED_clean_linker_0
_symmetry_space_group_name_H-M    P1
_symmetry_Int_Tables_number       1
_symmetry_cell_setting            triclinic
loop_
_symmetry_equiv_pos_as_xyz
'x, y, z'
_cell_length_a     53.451761
_cell_length_b     53.942716
_cell_length_c     54.838692
_cell_angle_alpha  91.124472
_cell_angle_beta   90.980088
_cell_angle_gamma 119.98165
loop_
_atom_site_label
_atom_site_type_symbol
_atom_site_fract_x
_atom_site_fract_y
_atom_site_fract_z
_atom_type_partial_charge
H0 H 0.97511 0.44628 0.27559 0.0
H1 H 0.93917 0.43106 0.24227 0.0
H2 H 0.89812 0.47198 0.27962 0.0
H3 H 0.93517 0.48846 0.31226 0.0
H4 H 0.01491 0.49844 0.29275 0.0
H5 H 0.92931 0.41801 0.32385 0.0
H6 H 0.87731 0.39587 0.33026 0.0
H7 H 0.89359 0.46337 0.38273 0.0
H8 H 0.9453 0.48621 0.37548 0.0
H9 H 0.02262 0.52596 0.39642 0.0
H10 H 0.05775 0.54326 0.43065 0.0
H11 H 0.10789 0.51259 0.39322 0.0
H12 H 0.07208 0.49412 0.35938 0.0
H13 H 0.98747 0.47595 0.37885 0.0
H14 H 0.06566 0.55996 0.34405 0.0
H15 H 0.11498 0.59213 0.33151 0.0
H16 H 0.11244 0.52298 0.28819 0.0
H17 H 0.06283 0.49124 0.30031 0.0
C18 C 0.95767 0.46818 0.29662 0.0
C19 C 0.95848 0.45214 0.27652 0.0
C20 C 0.93765 0.44315 0.25759 0.0
C21 C 0.91542 0.44995 0.25831 0.0
C22 C 0.91496 0.46647 0.27831 0.0
C23 C 0.936 0.47568 0.29715 0.0
C24 C 0.97955 0.47701 0.31697 0.0
C25 C 0.00889 0.49315 0.31153 0.0
C26 C 0.97176 0.47063 0.34161 0.0
C27 C 0.94113 0.4542 0.34868 0.0
C28 C 0.92172 0.42792 0.33688 0.0
C29 C 0.89211 0.4152 0.34065 0.0
C30 C 0.88162 0.42806 0.35689 0.0
C31 C 0.90124 0.45297 0.37025 0.0
C32 C 0.93076 0.46602 0.36608 0.0
C33 C 0.04473 0.50891 0.37513 0.0
C34 C 0.04106 0.52278 0.39557 0.0
C35 C 0.06117 0.53275 0.41508 0.0
C36 C 0.08556 0.52938 0.41446 0.0
C37 C 0.08947 0.5158 0.39396 0.0
C38 C 0.06904 0.50533 0.37461 0.0
C39 C 0.02281 0.49791 0.35467 0.0
C40 C 0.99349 0.48107 0.36005 0.0
C41 C 0.03051 0.50405 0.33005 0.0
C42 C 0.06071 0.52325 0.32314 0.0
C43 C 0.07586 0.55175 0.33197 0.0
C44 C 0.10411 0.57005 0.32489 0.0
C45 C 0.11771 0.56016 0.30883 0.0
C46 C 0.10249 0.53144 0.30027 0.0
C47 C 0.07418 0.51323 0.30723 0.0
H48 H 0.4522 0.96114 0.5377 0.0
H49 H 0.42311 0.91193 0.55064 0.0
H50 H 0.47768 0.88818 0.51132 0.0
H51 H 0.50753 0.93787 0.49901 0.0
H52 H 0.50707 5e-05 0.54659 0.0
H53 H 0.44903 0.95101 0.46916 0.0
H54 H 0.43465 0.91619 0.43499 0.0
H55 H 0.52473 0.94526 0.42241 0.0
H56 H 0.53869 0.9807 0.45576 0.0
H57 H 0.56681 0.07373 0.46352 0.0
H58 H 0.57713 0.12012 0.44815 0.0
H59 H 0.51434 0.12068 0.49644 0.0
H60 H 0.50336 0.07402 0.51097 0.0
H61 H 0.51938 0.02446 0.45924 0.0
H62 H 0.57913 0.07794 0.52607 0.0
H63 H 0.6007 0.11479 0.55873 0.0
H64 H 0.51828 0.07788 0.59342 0.0
H65 H 0.49674 0.04114 0.56058 0.0
C66 C 0.48193 0.95322 0.51719 0.0
C67 C 0.45811 0.94545 0.53199 0.0
C68 C 0.44147 0.91733 0.53934 0.0
C69 C 0.44815 0.89631 0.53192 0.0
C70 C 0.47191 0.90396 0.51704 0.0
C71 C 0.4889 0.9323 0.50997 0.0
C72 C 0.49905 0.98329 0.5095 0.0
C73 C 0.50959 0.00539 0.52748 0.0
C74 C 0.50395 0.99042 0.48469 0.0
C75 C 0.49489 0.96842 0.46483 0.0
C76 C 0.46557 0.94974 0.45898 0.0
C77 C 0.45743 0.92971 0.43956 0.0
C78 C 0.47851 0.92794 0.42576 0.0
C79 C 0.50787 0.94637 0.43219 0.0
C80 C 0.51594 0.96656 0.45135 0.0
C81 C 0.53451 0.07048 0.48855 0.0
C82 C 0.55543 0.08397 0.47089 0.0
C83 C 0.56144 0.11057 0.46226 0.0
C84 C 0.54647 0.12404 0.47103 0.0
C85 C 0.52599 0.11073 0.4891 0.0
C86 C 0.51998 0.0842 0.49766 0.0
C87 C 0.52602 0.04117 0.49629 0.0
C88 C 0.51722 0.01923 0.47837 0.0
C89 C 0.52355 0.03426 0.5212 0.0
C90 C 0.5363 0.05683 0.54085 0.0
C91 C 0.56565 0.0779 0.54061 0.0
C92 C 0.57799 0.09883 0.55935 0.0
C93 C 0.56117 0.0992 0.57861 0.0
C94 C 0.5317 0.07828 0.57868 0.0
C95 C 0.51943 0.05716 0.56006 0.0
H96 H 0.56751 0.58204 0.67721 0.0
H97 H 0.55323 0.60105 0.71173 0.0
H98 H 0.46342 0.54082 0.69365 0.0
H99 H 0.47798 0.52083 0.6603 0.0
H100 H 0.55852 0.52827 0.66999 0.0
H101 H 0.5299 0.58904 0.62044 0.0
H102 H 0.49402 0.60281 0.60968 0.0
H103 H 0.4296 0.51328 0.59822 0.0
H104 H 0.4661 0.50019 0.60733 0.0
H105 H 0.51478 0.4697 0.57536 0.0
H106 H 0.53003 0.45134 0.541 0.0
H107 H 0.61938 0.50806 0.56292 0.0
H108 H 0.60401 0.52673 0.59699 0.0
H109 H 0.52252 0.52073 0.58464 0.0
H110 H 0.53976 0.4568 0.6261 0.0
H111 H 0.56063 0.42935 0.64251 0.0
H112 H 0.63145 0.50694 0.67523 0.0
H113 H 0.60998 0.5343 0.65898 0.0
C114 C 0.52383 0.55036 0.66583 0.0
C115 C 0.54475 0.57297 0.68073 0.0
C116 C 0.53651 0.58396 0.70036 0.0
C117 C 0.50713 0.57256 0.70554 0.0
C118 C 0.48625 0.54994 0.69049 0.0
C119 C 0.49453 0.53879 0.67105 0.0
C120 C 0.53278 0.53799 0.64565 0.0
C121 C 0.55131 0.52732 0.6512 0.0
C122 C 0.52183 0.53493 0.62143 0.0
C123 C 0.50055 0.54365 0.61464 0.0
C124 C 0.50807 0.57253 0.61533 0.0
C125 C 0.4874 0.58029 0.60936 0.0
C126 C 0.45869 0.55921 0.60305 0.0
C127 C 0.45149 0.53026 0.60235 0.0
C128 C 0.47229 0.52264 0.60778 0.0
C129 C 0.55824 0.49956 0.58877 0.0
C130 C 0.53765 0.47813 0.57279 0.0
C131 C 0.54639 0.46748 0.5533 0.0
C132 C 0.57592 0.47826 0.54926 0.0
C133 C 0.59649 0.49951 0.56544 0.0
C134 C 0.58773 0.51003 0.58502 0.0
C135 C 0.54898 0.51173 0.60885 0.0
C136 C 0.5304 0.52231 0.60329 0.0
C137 C 0.55876 0.51341 0.63327 0.0
C138 C 0.57345 0.49765 0.64113 0.0
C139 C 0.56012 0.46803 0.63635 0.0
C140 C 0.57214 0.45234 0.64574 0.0
C141 C 0.59776 0.46591 0.6602 0.0
C142 C 0.61151 0.49576 0.66442 0.0
C143 C 0.59937 0.51146 0.65506 0.0
H144 H 0.03785 0.59265 0.78513 0.0
H145 H 0.06715 0.60296 0.74895 0.0
H146 H 0.10057 0.54982 0.77541 0.0
H147 H 0.07 0.53833 0.81064 0.0
H148 H 0.99476 0.53914 0.79896 0.0
H149 H 0.09004 0.61561 0.8394 0.0
H150 H 0.14121 0.6324 0.8482 0.0
H151 H 0.11826 0.5482 0.87331 0.0
H152 H 0.06753 0.53259 0.86602 0.0
H153 H 0.98655 0.49895 0.8939 0.0
H154 H 0.95437 0.48414 0.92828 0.0
H155 H 0.93015 0.54737 0.91046 0.0
H156 H 0.96082 0.56034 0.87512 0.0
H157 H 0.03348 0.55697 0.88434 0.0
H158 H 0.95741 0.47803 0.84779 0.0
H159 H 0.90934 0.44046 0.83516 0.0
H160 H 0.89389 0.50286 0.79987 0.0
H161 H 0.94315 0.54046 0.81188 0.0
C162 C 0.05221 0.56524 0.80084 0.0
C163 C 0.05156 0.58329 0.78309 0.0
C164 C 0.06846 0.58929 0.7625 0.0
C165 C 0.08632 0.5773 0.75927 0.0
C166 C 0.08684 0.55917 0.77712 0.0
C167 C 0.06975 0.55298 0.79755 0.0
C168 C 0.03327 0.55792 0.82206 0.0
C169 C 0.00328 0.54403 0.81762 0.0
C170 C 0.04423 0.56204 0.84638 0.0
C171 C 0.07515 0.57295 0.85218 0.0
C172 C 0.09623 0.60104 0.84711 0.0
C173 C 0.12548 0.61046 0.85197 0.0
C174 C 0.13414 0.59174 0.86156 0.0
C175 C 0.11267 0.5636 0.8666 0.0
C176 C 0.08354 0.55447 0.86225 0.0
C177 C 0.97586 0.53059 0.88203 0.0
C178 C 0.97413 0.50944 0.89745 0.0
C179 C 0.9559 0.50124 0.91726 0.0
C180 C 0.93959 0.5146 0.92243 0.0
C181 C 0.94179 0.53611 0.90694 0.0
C182 C 0.9595 0.54377 0.88679 0.0
C183 C 0.99519 0.53939 0.86114 0.0
C184 C 0.02507 0.55339 0.86566 0.0
C185 C 0.98413 0.53363 0.83688 0.0
C186 C 0.9536 0.51208 0.83117 0.0
C187 C 0.94348 0.48373 0.83774 0.0
C188 C 0.91583 0.46223 0.83051 0.0
C189 C 0.89741 0.46853 0.81666 0.0
C190 C 0.90752 0.49713 0.81032 0.0
C191 C 0.93552 0.51871 0.81735 0.0
H192 H 0.54301 0.06215 0.02889 0.0
H193 H 0.57995 0.11103 0.03986 0.0
H194 H 0.53002 0.1426 0.00265 0.0
H195 H 0.49231 0.09305 0.99225 0.0
H196 H 0.48777 0.03302 0.04121 0.0
H197 H 0.54034 0.06796 0.96612 0.0
H198 H 0.55705 0.09821 0.93073 0.0
H199 H 0.4684 0.0686 0.90809 0.0
H200 H 0.45192 0.03928 0.94418 0.0
H201 H 0.41253 0.94852 0.96454 0.0
H202 H 0.399 0.90055 0.94886 0.0
H203 H 0.46926 0.90355 0.99159 0.0
H204 H 0.4821 0.95105 0.00757 0.0
H205 H 0.46286 0.99515 0.95587 0.0
H206 H 0.41168 0.95063 0.02658 0.0
H207 H 0.39562 0.92173 0.06289 0.0
H208 H 0.48224 0.97001 0.09447 0.0
H209 H 0.49843 0.99727 0.05767 0.0
C210 C 0.51493 0.07391 0.00967 0.0
C211 C 0.53986 0.07954 0.02317 0.0
C212 C 0.56112 0.10755 0.02925 0.0
C213 C 0.55807 0.13073 0.02193 0.0
C214 C 0.53291 0.12516 0.00864 0.0
C215 C 0.51148 0.09692 0.00252 0.0
C216 C 0.493 0.04371 0.00345 0.0
C217 C 0.48238 0.02459 0.02255 0.0
C218 C 0.48464 0.03303 0.97915 0.0
C219 C 0.49492 0.0518 0.95799 0.0
C220 C 0.52454 0.06833 0.95373 0.0
C221 C 0.53402 0.0853 0.9333 0.0
C222 C 0.51403 0.08575 0.91652 0.0
C223 C 0.48435 0.06902 0.9208 0.0
C224 C 0.4749 0.05215 0.94132 0.0
C225 C 0.44822 0.95334 0.98732 0.0
C226 C 0.4246 0.93855 0.97089 0.0
C227 C 0.41707 0.91121 0.9618 0.0
C228 C 0.43325 0.89825 0.9687 0.0
C229 C 0.45606 0.91263 0.98606 0.0
C230 C 0.46345 0.93987 0.99525 0.0
C231 C 0.45946 0.98406 0.9937 0.0
C232 C 0.46771 0.00336 0.97461 0.0
C233 C 0.46593 0.9949 0.01807 0.0
C234 C 0.4563 0.97605 0.0393 0.0
C235 C 0.4273 0.95454 0.04113 0.0
C236 C 0.41805 0.93836 0.06209 0.0
C237 C 0.43759 0.9436 0.08169 0.0
C238 C 0.46664 0.96504 0.07965 0.0
C239 C 0.4759 0.98089 0.05865 0.0
H240 H 0.45766 0.42732 0.16114 0.0
H241 H 0.47315 0.40921 0.19537 0.0
H242 H 0.51486 0.49347 0.23026 0.0
H243 H 0.50014 0.51161 0.1957 0.0
H244 H 0.45124 0.50145 0.176 0.0
H245 H 0.46791 0.43257 0.10266 0.0
H246 H 0.49962 0.41263 0.09599 0.0
H247 H 0.56592 0.48068 0.14196 0.0
H248 H 0.53373 0.49973 0.14909 0.0
H249 H 0.49551 0.54161 0.08019 0.0
H250 H 0.48448 0.56184 0.04478 0.0
H251 H 0.39524 0.5218 0.06532 0.0
H252 H 0.40629 0.50124 0.1004 0.0
H253 H 0.47856 0.48888 0.09254 0.0
H254 H 0.48118 0.5681 0.13011 0.0
H255 H 0.47071 0.60475 0.1444 0.0
H256 H 0.39085 0.53941 0.17416 0.0
H257 H 0.40232 0.50281 0.16051 0.0
C258 C 0.47804 0.47088 0.17574 0.0
C259 C 0.47008 0.44184 0.1762 0.0
C260 C 0.47869 0.43146 0.19588 0.0
C261 C 0.49535 0.44996 0.21544 0.0
C262 C 0.50237 0.47879 0.21531 0.0
C263 C 0.49378 0.48913 0.19566 0.0
C264 C 0.47086 0.48257 0.15419 0.0
C265 C 0.45672 0.49825 0.15769 0.0
C266 C 0.47944 0.47975 0.13052 0.0
C267 C 0.49843 0.46747 0.12647 0.0
C268 C 0.48925 0.44304 0.11133 0.0
C269 C 0.50748 0.43177 0.10749 0.0
C270 C 0.53541 0.445 0.11845 0.0
C271 C 0.54443 0.46953 0.1336 0.0
C272 C 0.52612 0.48061 0.13758 0.0
C273 C 0.45173 0.51989 0.09295 0.0
C274 C 0.47356 0.53713 0.07702 0.0
C275 C 0.46729 0.54891 0.05693 0.0
C276 C 0.43899 0.54343 0.05226 0.0
C277 C 0.4172 0.52622 0.0683 0.0
C278 C 0.42352 0.51461 0.08844 0.0
C279 C 0.45833 0.50735 0.11429 0.0
C280 C 0.47227 0.49138 0.11072 0.0
C281 C 0.45125 0.51144 0.1382 0.0
C282 C 0.44237 0.53275 0.14402 0.0
C283 C 0.46113 0.56162 0.13928 0.0
C284 C 0.45503 0.58258 0.14747 0.0
C285 C 0.42985 0.57512 0.16045 0.0
C286 C 0.41063 0.546 0.16456 0.0
C287 C 0.41698 0.52502 0.15657 0.0
Mg288 Mg 0.61181 0.35592 0.35701 0.0
O289 O 0.61228 0.38367 0.38941 0.0
O290 O 0.63371 0.42894 0.3775 0.0
Mg291 Mg 0.64454 0.42975 0.33717 0.0
C292 C 0.62154 0.41026 0.39375 0.0
C293 C 0.57807 0.30153 0.38898 0.0
O294 O 0.55578 0.3039 0.38187 0.0
O295 O 0.66017 0.37362 0.36215 0.0
O296 O 0.67857 0.41697 0.34627 0.0
O297 O 0.56871 0.34904 0.34384 0.0
O298 O 0.61076 0.38447 0.33285 0.0
C299 C 0.68162 0.39704 0.35551 0.0
C300 C 0.58303 0.37224 0.33184 0.0
O301 O 0.60312 0.31969 0.38218 0.0
Mg302 Mg 0.26911 0.64011 0.5986 0.0
O303 O 0.23738 0.61452 0.5664 0.0
O304 O 0.21134 0.56966 0.5791 0.0
Mg305 Mg 0.22627 0.56614 0.61738 0.0
C306 C 0.2173 0.58845 0.56299 0.0
C307 C 0.31572 0.69863 0.58926 0.0
O308 O 0.3162 0.69428 0.61273 0.0
O309 O 0.29691 0.62056 0.5902 0.0
O310 O 0.27079 0.57599 0.60336 0.0
O311 O 0.23693 0.64974 0.61468 0.0
O312 O 0.24059 0.6118 0.62325 0.0
C313 C 0.29363 0.5959 0.59409 0.0
C314 C 0.22731 0.62603 0.6261 0.0
O315 O 0.29681 0.67841 0.57557 0.0
Mg316 Mg 0.63713 0.27508 0.76564 0.0
O317 O 0.63337 0.24652 0.73259 0.0
O318 O 0.65196 0.21943 0.74418 0.0
Mg319 Mg 0.66464 0.22841 0.78483 0.0
C320 C 0.64023 0.22741 0.728 0.0
C321 C 0.64061 0.33053 0.74915 0.0
O322 O 0.6537 0.33796 0.77076 0.0
O323 O 0.6859 0.30239 0.76253 0.0
O324 O 0.70109 0.27413 0.77816 0.0
O325 O 0.59313 0.24221 0.77727 0.0
O326 O 0.63362 0.24372 0.78899 0.0
C327 C 0.70618 0.29813 0.76987 0.0
C328 C 0.60585 0.23092 0.78924 0.0
O329 O 0.63058 0.30494 0.74115 0.0
Mg330 Mg 0.4065 0.66853 0.86165 0.0
O331 O 0.40836 0.64239 0.89392 0.0
O332 O 0.38467 0.59648 0.88099 0.0
Mg333 Mg 0.36941 0.59312 0.84137 0.0
C334 C 0.3987 0.6158 0.89754 0.0
C335 C 0.41043 0.72422 0.8774 0.0
O336 O 0.3984 0.71803 0.85537 0.0
O337 O 0.35898 0.65253 0.86745 0.0
O338 O 0.3371 0.607 0.85365 0.0
O339 O 0.44772 0.67362 0.84709 0.0
O340 O 0.40431 0.63766 0.83706 0.0
C341 C 0.33623 0.62853 0.86273 0.0
C342 C 0.43187 0.6496 0.8351 0.0
O343 O 0.41809 0.70747 0.88658 0.0
Mg344 Mg 0.7429 0.39754 0.06812 0.0
O345 O 0.76962 0.39993 0.10277 0.0
O346 O 0.79755 0.38219 0.09068 0.0
Mg347 Mg 0.79215 0.37245 0.04956 0.0
C348 C 0.78856 0.39256 0.10725 0.0
C349 C 0.6859 0.39331 0.07677 0.0
O350 O 0.68405 0.38185 0.05497 0.0
O351 O 0.71597 0.34891 0.06916 0.0
O352 O 0.74593 0.33519 0.05423 0.0
O353 O 0.77581 0.44203 0.05827 0.0
O354 O 0.77672 0.40306 0.04675 0.0
C355 C 0.72113 0.32939 0.06171 0.0
C356 C 0.78871 0.4305 0.04693 0.0
O357 O 0.70921 0.40236 0.08937 0.0
Mg358 Mg 0.36257 0.76038 0.23464 0.0
O359 O 0.38996 0.78612 0.26858 0.0
O360 O 0.43472 0.81402 0.25552 0.0
Mg361 Mg 0.43592 0.80802 0.2143 0.0
C362 C 0.41651 0.80504 0.27256 0.0
C363 C 0.3098 0.70484 0.24605 0.0
O364 O 0.31591 0.70142 0.22356 0.0
O365 O 0.38345 0.73241 0.23393 0.0
O366 O 0.42598 0.76181 0.2178 0.0
O367 O 0.35147 0.79448 0.22634 0.0
O368 O 0.38964 0.79338 0.21292 0.0
C369 C 0.40741 0.73721 0.22524 0.0
C370 C 0.37515 0.80646 0.2144 0.0
O371 O 0.3262 0.7284 0.25749 0.0
H372 H 0.13852 0.56277 0.26308 0.0
H373 H 0.29007 0.7043 0.29211 0.0
H374 H 0.16417 0.603 0.33501 0.0
H375 H 0.26885 0.65417 0.22474 0.0
H376 H 0.24426 0.66781 0.30845 0.0
H377 H 0.18639 0.59634 0.24894 0.0
C378 C 0.15431 0.57844 0.27602 0.0
C379 C 0.14722 0.57998 0.30032 0.0
C380 C 0.24976 0.66476 0.29015 0.0
C381 C 0.20211 0.61903 0.28403 0.0
C382 C 0.27588 0.68557 0.28081 0.0
C383 C 0.28322 0.68236 0.25697 0.0
C384 C 0.23082 0.64071 0.27547 0.0
C385 C 0.26406 0.65763 0.24317 0.0
C386 C 0.18164 0.59776 0.26786 0.0
C387 C 0.16849 0.60125 0.31604 0.0
N388 N 0.23869 0.63788 0.25257 0.0
N389 N 0.19494 0.62002 0.30759 0.0
H390 H 0.5058 0.13883 0.45914 0.0
H391 H 0.61956 0.29006 0.40596 0.0
H392 H 0.59774 0.17103 0.45905 0.0
H393 H 0.52739 0.25681 0.4046 0.0
H394 H 0.61227 0.24789 0.42745 0.0
H395 H 0.51361 0.18309 0.44126 0.0
C396 C 0.52769 0.15534 0.45558 0.0
C397 C 0.55117 0.15121 0.46066 0.0
C398 C 0.59364 0.24985 0.42254 0.0
C399 C 0.56022 0.20188 0.43982 0.0
C400 C 0.59778 0.27396 0.41028 0.0
C401 C 0.57401 0.27692 0.40333 0.0
C402 C 0.56553 0.22847 0.42791 0.0
C403 C 0.54632 0.2554 0.40952 0.0
C404 C 0.53211 0.18056 0.44522 0.0
C405 C 0.57898 0.17316 0.4552 0.0
N406 N 0.54284 0.23203 0.42136 0.0
N407 N 0.58272 0.19753 0.44505 0.0
H408 H 0.45412 0.60393 0.62332 0.0
H409 H 0.29235 0.54515 0.58498 0.0
H410 H 0.41112 0.53249 0.57148 0.0
H411 H 0.35096 0.63601 0.59509 0.0
H412 H 0.33401 0.53771 0.58355 0.0
H413 H 0.41521 0.61446 0.6168 0.0
C414 C 0.43684 0.59064 0.61031 0.0
C415 C 0.43605 0.56709 0.59808 0.0
C416 C 0.33765 0.55927 0.58574 0.0
C417 C 0.39088 0.57862 0.59128 0.0
C418 C 0.31396 0.56352 0.58663 0.0
C419 C 0.31825 0.59122 0.5902 0.0
C420 C 0.36567 0.58279 0.58913 0.0
C421 C 0.3467 0.61431 0.5922 0.0
C422 C 0.41453 0.59663 0.60674 0.0
C423 C 0.41247 0.55038 0.58189 0.0
N424 N 0.36936 0.60954 0.59207 0.0
N425 N 0.39063 0.55621 0.57923 0.0
H426 H 0.86759 0.46243 0.77316 0.0
H427 H 0.75232 0.30024 0.79396 0.0
H428 H 0.86051 0.42055 0.84119 0.0
H429 H 0.72808 0.35231 0.7519 0.0
H430 H 0.79882 0.34257 0.80391 0.0
H431 H 0.82142 0.42108 0.75906 0.0
C432 C 0.85634 0.4448 0.78525 0.0
C433 C 0.86832 0.44495 0.80835 0.0
C434 C 0.78338 0.34464 0.79233 0.0
C435 C 0.81624 0.39741 0.79188 0.0
C436 C 0.75688 0.32045 0.78644 0.0
C437 C 0.73604 0.32271 0.77226 0.0
C438 C 0.78939 0.37129 0.78373 0.0
C439 C 0.74341 0.34961 0.76305 0.0
C440 C 0.83015 0.42117 0.77706 0.0
C441 C 0.85276 0.4212 0.82299 0.0
N442 N 0.76954 0.37298 0.76901 0.0
N443 N 0.82778 0.39833 0.8144 0.0
H444 H 0.43639 0.85312 0.98845 0.0
H445 H 0.39925 0.76516 0.86101 0.0
H446 H 0.41873 0.88161 0.9206 0.0
H447 H 0.42894 0.74118 0.92523 0.0
H448 H 0.40349 0.80636 0.88369 0.0
H449 H 0.43094 0.81048 0.96676 0.0
C450 C 0.43132 0.85045 0.96904 0.0
C451 C 0.42797 0.87109 0.9564 0.0
C452 C 0.40915 0.79217 0.89288 0.0
C453 C 0.42154 0.82219 0.93152 0.0
C454 C 0.40673 0.76857 0.87991 0.0
C455 C 0.41381 0.74966 0.8912 0.0
C456 C 0.41862 0.79701 0.91745 0.0
C457 C 0.42336 0.75526 0.91577 0.0
C458 C 0.42816 0.82605 0.9567 0.0
C459 C 0.42102 0.86617 0.93129 0.0
N460 N 0.42544 0.77842 0.92811 0.0
N461 N 0.4181 0.84233 0.91974 0.0
H462 H 0.54176 0.42213 0.07542 0.0
H463 H 0.68211 0.41755 0.12026 0.0
H464 H 0.57528 0.44307 0.14978 0.0
H465 H 0.63551 0.3791 0.05222 0.0
H466 H 0.64378 0.42754 0.13175 0.0
H467 H 0.57635 0.40651 0.06682 0.0
C468 C 0.55611 0.42313 0.09007 0.0
C469 C 0.55551 0.43404 0.11338 0.0
C470 C 0.6419 0.41672 0.1144 0.0
C471 C 0.59585 0.4167 0.10342 0.0
C472 C 0.66376 0.41102 0.10783 0.0
C473 C 0.66214 0.39764 0.08517 0.0
C474 C 0.61842 0.40917 0.09809 0.0
C475 C 0.63782 0.3896 0.06982 0.0
C476 C 0.57604 0.41436 0.08508 0.0
C477 C 0.57522 0.43532 0.13141 0.0
N478 N 0.61709 0.39568 0.07647 0.0
N479 N 0.59469 0.42695 0.12601 0.0
H480 H 0.43197 0.8793 0.57815 0.0
H481 H 0.32484 0.71488 0.54139 0.0
H482 H 0.42414 0.84615 0.5045 0.0
H483 H 0.35359 0.74679 0.61535 0.0
H484 H 0.35873 0.7627 0.52677 0.0
H485 H 0.40072 0.83068 0.59158 0.0
C486 C 0.42363 0.86169 0.56482 0.0
C487 C 0.43049 0.86667 0.5402 0.0
C488 C 0.35764 0.75908 0.54617 0.0
C489 C 0.39463 0.81092 0.55537 0.0
C490 C 0.33828 0.73187 0.55452 0.0
C491 C 0.3363 0.72686 0.57963 0.0
C492 C 0.37482 0.78138 0.56311 0.0
C493 C 0.35429 0.74962 0.59584 0.0
C494 C 0.4059 0.83393 0.57248 0.0
C495 C 0.41941 0.8431 0.52368 0.0
N496 N 0.37261 0.77585 0.58731 0.0
N497 N 0.40177 0.81618 0.53153 0.0
H498 H 0.62115 0.473 0.70647 0.0
H499 H 0.61843 0.32379 0.70248 0.0
H500 H 0.59904 0.41895 0.64137 0.0
H501 H 0.65487 0.38512 0.76295 0.0
H502 H 0.61147 0.35845 0.67961 0.0
H503 H 0.63471 0.44164 0.7271 0.0
C504 C 0.61956 0.45481 0.69635 0.0
C505 C 0.60877 0.44858 0.67214 0.0
C506 C 0.62114 0.36437 0.69783 0.0
C507 C 0.62366 0.41211 0.69592 0.0
C508 C 0.62504 0.34456 0.71093 0.0
C509 C 0.6371 0.35151 0.73472 0.0
C510 C 0.62916 0.39124 0.70867 0.0
C511 C 0.6454 0.3788 0.74469 0.0
C512 C 0.62712 0.43676 0.70824 0.0
C513 C 0.60674 0.42433 0.66017 0.0
N514 N 0.64111 0.39759 0.73168 0.0
N515 N 0.61388 0.40687 0.67224 0.0
H516 H 0.15921 0.57465 0.89687 0.0
H517 H 0.32141 0.66981 0.85753 0.0
H518 H 0.18073 0.62985 0.83526 0.0
H519 H 0.2865 0.58138 0.876 0.0
H520 H 0.27275 0.66368 0.85991 0.0
H521 H 0.20928 0.58537 0.8997 0.0
C522 C 0.17429 0.58901 0.88392 0.0
C523 C 0.1653 0.60085 0.86544 0.0
C524 C 0.27595 0.64579 0.86367 0.0
C525 C 0.22295 0.61407 0.86947 0.0
C526 C 0.30359 0.64926 0.86246 0.0
C527 C 0.30781 0.62598 0.86646 0.0
C528 C 0.2527 0.61912 0.86959 0.0
C529 C 0.28403 0.59976 0.87262 0.0
C530 C 0.2029 0.59525 0.88575 0.0
C531 C 0.18641 0.62028 0.84992 0.0
N532 N 0.25744 0.59705 0.87411 0.0
N533 N 0.21426 0.62625 0.85227 0.0
H534 H 0.55304 0.1766 0.03826 0.0
H535 H 0.72438 0.28152 0.05033 0.0
H536 H 0.61634 0.15252 0.01974 0.0
H537 H 0.66296 0.30879 0.06703 0.0
H538 H 0.6845 0.23333 0.04145 0.0
H539 H 0.59242 0.22475 0.05008 0.0
C540 C 0.57518 0.18148 0.03653 0.0
C541 C 0.58139 0.16044 0.02813 0.0
C542 C 0.67967 0.24977 0.04718 0.0
C543 C 0.62646 0.21525 0.04188 0.0
C544 C 0.7025 0.27735 0.05236 0.0
C545 C 0.69709 0.29937 0.05932 0.0
C546 C 0.65107 0.24401 0.04885 0.0
C547 C 0.66819 0.29251 0.06172 0.0
C548 C 0.59764 0.20888 0.04346 0.0
C549 C 0.61049 0.16787 0.0265 0.0
N550 N 0.64625 0.26547 0.05632 0.0
N551 N 0.63187 0.19458 0.03333 0.0
H552 H 0.44216 0.62574 0.13976 0.0
H553 H 0.37504 0.68115 0.23912 0.0
H554 H 0.40549 0.57666 0.20402 0.0
H555 H 0.45043 0.73765 0.19892 0.0
H556 H 0.37976 0.6404 0.22432 0.0
H557 H 0.43794 0.66489 0.15812 0.0
C558 C 0.4333 0.62314 0.15775 0.0
C559 C 0.4246 0.5979 0.17047 0.0
C560 C 0.39537 0.66184 0.21907 0.0
C561 C 0.4191 0.64258 0.19132 0.0
C562 C 0.39277 0.68508 0.22752 0.0
C563 C 0.41225 0.7129 0.22014 0.0
C564 C 0.41717 0.66651 0.20279 0.0
C565 C 0.4348 0.71667 0.20506 0.0
C566 C 0.43084 0.64551 0.16818 0.0
C567 C 0.41231 0.59558 0.19342 0.0
N568 N 0.43637 0.69372 0.19662 0.0
N569 N 0.40989 0.61766 0.20314 0.0
H570 H 0.84734 0.41479 0.39672 0.0
H571 H 0.72642 0.42917 0.32643 0.0
H572 H 0.84572 0.42007 0.31839 0.0
H573 H 0.70298 0.37253 0.38697 0.0
H574 H 0.77398 0.43317 0.3269 0.0
H575 H 0.79704 0.40478 0.39701 0.0
C576 C 0.8362 0.4134 0.37962 0.0
C577 C 0.85043 0.41805 0.35748 0.0
C578 C 0.75839 0.41986 0.34006 0.0
C579 C 0.79385 0.4076 0.35777 0.0
C580 C 0.73138 0.41776 0.33997 0.0
C581 C 0.71078 0.40051 0.35672 0.0
C582 C 0.76513 0.40514 0.35735 0.0
C583 C 0.71828 0.38598 0.37371 0.0
C584 C 0.80766 0.40771 0.37979 0.0
C585 C 0.83531 0.41626 0.33578 0.0
N586 N 0.74506 0.38883 0.37377 0.0
N587 N 0.80795 0.41161 0.3365 0.0
H588 H 0.14469 0.56263 0.41481 0.0
H589 H 0.16407 0.54132 0.55553 0.0
H590 H 0.0731 0.51758 0.46221 0.0
H591 H 0.22839 0.61549 0.51897 0.0
H592 H 0.13287 0.5274 0.51905 0.0
H593 H 0.17806 0.57773 0.45063 0.0
C594 C 0.13606 0.55591 0.43275 0.0
C595 C 0.10615 0.53893 0.43566 0.0
C596 C 0.15381 0.54672 0.51898 0.0
C597 C 0.14395 0.55572 0.47634 0.0
C598 C 0.17177 0.55463 0.53977 0.0
C599 C 0.19895 0.57968 0.54037 0.0
C600 C 0.16313 0.56366 0.49838 0.0
C601 C 0.20757 0.59609 0.51934 0.0
C602 C 0.15503 0.56462 0.4531 0.0
C603 C 0.09599 0.53087 0.45923 0.0
N604 N 0.18974 0.58771 0.4991 0.0
N605 N 0.11486 0.53916 0.47863 0.0
H606 H 0.5403 0.13128 0.60003 0.0
H607 H 0.65948 0.19331 0.70792 0.0
H608 H 0.61227 0.11619 0.60347 0.0
H609 H 0.60222 0.22642 0.69319 0.0
H610 H 0.6421 0.16442 0.67005 0.0
H611 H 0.56181 0.16538 0.63474 0.0
C612 C 0.56064 0.13518 0.60809 0.0
C613 C 0.57449 0.12084 0.59893 0.0
C614 C 0.63353 0.17821 0.67498 0.0
C615 C 0.5992 0.15975 0.63859 0.0
C616 C 0.64343 0.19471 0.69663 0.0
C617 C 0.63221 0.21224 0.70384 0.0
C618 C 0.61194 0.1789 0.66056 0.0
C619 C 0.61152 0.21324 0.68838 0.0
C620 C 0.573 0.15477 0.62778 0.0
C621 C 0.60098 0.12694 0.60986 0.0
N622 N 0.60182 0.19655 0.66761 0.0
N623 N 0.61235 0.14574 0.62924 0.0
H624 H 0.53135 0.62839 0.72292 0.0
H625 H 0.40574 0.59542 0.81451 0.0
H626 H 0.46257 0.54276 0.73648 0.0
H627 H 0.48706 0.67486 0.81844 0.0
H628 H 0.42567 0.5763 0.78495 0.0
H629 H 0.51522 0.64648 0.75682 0.0
C630 C 0.51304 0.61331 0.7331 0.0
C631 C 0.4982 0.58395 0.72659 0.0
C632 C 0.43929 0.59782 0.79244 0.0
C633 C 0.47936 0.60471 0.76522 0.0
C634 C 0.42789 0.6088 0.80938 0.0
C635 C 0.44471 0.63682 0.81903 0.0
C636 C 0.46761 0.61513 0.78469 0.0
C637 C 0.47333 0.6531 0.81153 0.0
C638 C 0.5038 0.62372 0.75243 0.0
C639 C 0.47433 0.56562 0.74035 0.0
N640 N 0.4838 0.64213 0.79459 0.0
N641 N 0.46557 0.57631 0.75885 0.0
H642 H 0.94666 0.49547 0.96696 0.0
H643 H 0.80379 0.47999 0.02383 0.0
H644 H 0.88778 0.51369 0.92658 0.0
H645 H 0.83292 0.42006 0.03837 0.0
H646 H 0.84337 0.50423 0.9955 0.0
H647 H 0.91272 0.4783 0.00019 0.0
C648 C 0.9267 0.49589 0.96493 0.0
C649 C 0.9201 0.50583 0.94359 0.0
C650 C 0.84122 0.48598 0.00518 0.0
C651 C 0.88186 0.48729 0.98215 0.0
C652 C 0.81887 0.47231 0.02143 0.0
C653 C 0.81498 0.44784 0.03318 0.0
C654 C 0.8601 0.47542 0.00116 0.0
C655 C 0.83495 0.4386 0.02936 0.0
C656 C 0.90752 0.48633 0.98406 0.0
C657 C 0.8942 0.50666 0.94264 0.0
N658 N 0.85671 0.4524 0.01362 0.0
N659 N 0.87607 0.49753 0.96163 0.0
H660 H 0.38604 0.9239 0.10504 0.0
H661 H 0.43035 0.84869 0.20755 0.0
H662 H 0.46729 0.92482 0.1097 0.0
H663 H 0.34172 0.82486 0.19168 0.0
H664 H 0.44598 0.88632 0.17802 0.0
H665 H 0.37091 0.89538 0.14176 0.0
C666 C 0.40069 0.91813 0.1137 0.0
C667 C 0.428 0.92676 0.10415 0.0
C668 C 0.4231 0.87307 0.18113 0.0
C669 C 0.41109 0.89491 0.14643 0.0
C670 C 0.41419 0.85155 0.19796 0.0
C671 C 0.38471 0.8332 0.20147 0.0
C672 C 0.40235 0.87611 0.16758 0.0
C673 C 0.36468 0.83852 0.18927 0.0
C674 C 0.39212 0.90211 0.13477 0.0
C675 C 0.44626 0.91914 0.1165 0.0
N676 N 0.37384 0.85927 0.17244 0.0
N677 N 0.43745 0.90366 0.13692 0.0
H678 H 0.54973 0.47742 0.23597 0.0
H679 H 0.52471 0.35113 0.32431 0.0
H680 H 0.4677 0.39922 0.23949 0.0
H681 H 0.6082 0.42105 0.30593 0.0
H682 H 0.50179 0.3709 0.29793 0.0
H683 H 0.56973 0.45977 0.26678 0.0
C684 C 0.5358 0.45665 0.24346 0.0
C685 C 0.50699 0.43977 0.23514 0.0
C686 C 0.52512 0.38195 0.29991 0.0
C687 C 0.52995 0.41916 0.27023 0.0
C688 C 0.5382 0.37075 0.31498 0.0
C689 C 0.56845 0.38453 0.31745 0.0
C690 C 0.54247 0.40715 0.28743 0.0
C691 C 0.58487 0.4098 0.30486 0.0
C692 C 0.5473 0.44647 0.26093 0.0
C693 C 0.49012 0.41278 0.24522 0.0
N694 N 0.57168 0.42024 0.29043 0.0
N695 N 0.50187 0.40325 0.26224 0.0
H696 H 0.50614 0.93694 0.38242 0.0
H697 H 0.3848 0.79469 0.31411 0.0
H698 H 0.43158 0.8733 0.41943 0.0
H699 H 0.47035 0.84813 0.28696 0.0
H700 H 0.40042 0.8227 0.35271 0.0
H701 H 0.49224 0.90455 0.34702 0.0
C702 C 0.48701 0.91601 0.3833 0.0
C703 C 0.47015 0.90789 0.40416 0.0
C704 C 0.41579 0.82803 0.33834 0.0
C705 C 0.45363 0.87073 0.36309 0.0
C706 C 0.40691 0.81205 0.31631 0.0
C707 C 0.42619 0.81917 0.2971 0.0
C708 C 0.44401 0.85144 0.34107 0.0
C709 C 0.4546 0.84189 0.30109 0.0
C710 C 0.47898 0.89753 0.36293 0.0
C711 C 0.44509 0.8807 0.40371 0.0
N712 N 0.46252 0.85732 0.32248 0.0
N713 N 0.43751 0.86314 0.38346 0.0
H714 H 0.61894 0.51035 0.51801 0.0
H715 H 0.58964 0.37686 0.4311 0.0
H716 H 0.5538 0.42318 0.53127 0.0
H717 H 0.64311 0.46515 0.41189 0.0
H718 H 0.58041 0.39303 0.47012 0.0
H719 H 0.63229 0.49364 0.48141 0.0
C720 C 0.60764 0.48764 0.51336 0.0
C721 C 0.58516 0.46813 0.52769 0.0
C722 C 0.59424 0.40884 0.45738 0.0
C723 C 0.60015 0.44888 0.48566 0.0
C724 C 0.59961 0.39964 0.43511 0.0
C725 C 0.61706 0.41967 0.41806 0.0
C726 C 0.60654 0.43828 0.46275 0.0
C727 C 0.62936 0.44891 0.42435 0.0
C728 C 0.61514 0.47814 0.49237 0.0
C729 C 0.57101 0.439 0.52058 0.0
N730 N 0.62382 0.45731 0.44614 0.0
N731 N 0.57872 0.43025 0.50005 0.0
H732 H 0.11569 0.6282 0.73585 0.0
H733 H 0.19975 0.57567 0.65029 0.0
H734 H 0.09818 0.54086 0.73273 0.0
H735 H 0.19946 0.65466 0.63994 0.0
H736 H 0.16268 0.5625 0.68063 0.0
H737 H 0.14664 0.63848 0.70088 0.0
C738 C 0.11808 0.61108 0.7277 0.0
C739 C 0.10439 0.58364 0.73742 0.0
C740 C 0.1705 0.58258 0.67153 0.0
C741 C 0.14026 0.59546 0.69758 0.0
C742 C 0.19167 0.59011 0.65416 0.0
C743 C 0.20279 0.61635 0.64257 0.0
C744 C 0.16068 0.6016 0.67762 0.0
C745 C 0.19153 0.63423 0.64843 0.0
C746 C 0.13586 0.61702 0.70777 0.0
C747 C 0.10874 0.56249 0.72624 0.0
N748 N 0.1713 0.62666 0.66574 0.0
N749 N 0.12644 0.56889 0.70705 0.0
H750 H 0.49283 0.11788 0.89596 0.0
H751 H 0.62448 0.19611 0.80792 0.0
H752 H 0.55842 0.09427 0.88718 0.0
H753 H 0.54994 0.20712 0.80381 0.0
H754 H 0.59945 0.15745 0.83582 0.0
H755 H 0.51198 0.14929 0.86135 0.0
C756 C 0.51104 0.11903 0.8866 0.0
C757 C 0.52425 0.10364 0.89469 0.0
C758 C 0.58837 0.16805 0.82864 0.0
C759 C 0.54644 0.1398 0.85528 0.0
C760 C 0.60272 0.19024 0.81265 0.0
C761 C 0.58941 0.20507 0.80362 0.0
C762 C 0.56061 0.16088 0.83604 0.0
C763 C 0.56103 0.19627 0.81038 0.0
C764 C 0.522 0.13703 0.86688 0.0
C765 C 0.54796 0.10622 0.88198 0.0
N766 N 0.54768 0.17497 0.82648 0.0
N767 N 0.55842 0.12412 0.86307 0.0
H768 H 0.39254 0.5154 0.02054 0.0
H769 H 0.43693 0.64889 0.93481 0.0
H770 H 0.46956 0.59738 0.03396 0.0
H771 H 0.37252 0.5617 0.91492 0.0
H772 H 0.44622 0.63217 0.97341 0.0
H773 H 0.38178 0.53391 0.984 0.0
C774 C 0.40708 0.53739 0.0159 0.0
C775 C 0.432 0.55485 0.03033 0.0
C776 C 0.43004 0.61678 0.96056 0.0
C777 C 0.41992 0.57619 0.98832 0.0
C778 C 0.42464 0.6263 0.93858 0.0
C779 C 0.40401 0.60667 0.9215 0.0
C780 C 0.41447 0.58748 0.96558 0.0
C781 C 0.38879 0.57764 0.92739 0.0
C782 C 0.40103 0.54791 0.99494 0.0
C783 C 0.45027 0.58309 0.02321 0.0
N784 N 0.39431 0.56898 0.94888 0.0
N785 N 0.44385 0.59291 0.00271 0.0
H786 H 0.88962 0.4784 0.23806 0.0
H787 H 0.81473 0.36532 0.12761 0.0
H788 H 0.88992 0.39857 0.23248 0.0
H789 H 0.79424 0.43183 0.14295 0.0
H790 H 0.84238 0.3775 0.16609 0.0
H791 H 0.85476 0.46223 0.20364 0.0
C792 C 0.88219 0.45736 0.22983 0.0
C793 C 0.89307 0.43998 0.23815 0.0
C794 C 0.83163 0.38929 0.16123 0.0
C795 C 0.85341 0.42156 0.19841 0.0
C796 C 0.81584 0.38236 0.1392 0.0
C797 C 0.80225 0.39768 0.13197 0.0
C798 C 0.83435 0.41205 0.17608 0.0
C799 C 0.80431 0.41942 0.14784 0.0
C800 C 0.86233 0.4482 0.21009 0.0
C801 C 0.88278 0.41307 0.22643 0.0
N802 N 0.8204 0.42623 0.16903 0.0
N803 N 0.86377 0.40483 0.2071 0.0
loop_
_geom_bond_atom_site_label_1
_geom_bond_atom_site_label_2
_geom_bond_distance
_geom_bond_site_symmetry_2
_ccdc_geom_bond_type
H0 C19 0.949 . S
H1 C20 0.950 . S
H2 C22 0.950 . S
H3 C23 0.950 . S
H4 C25 0.950 . S
H5 C28 0.950 . S
H6 C29 0.950 . S
H7 C31 0.951 . S
H8 C32 0.949 . S
H9 C34 0.949 . S
H10 C35 0.950 . S
H11 C37 0.950 . S
H12 C38 0.950 . S
H13 C40 0.950 . S
H14 C43 0.950 . S
H15 C44 0.950 . S
H16 C46 0.951 . S
H17 C47 0.949 . S
C18 C19 1.376 . S
C18 C23 1.386 . S
C18 C24 1.483 . S
C19 H0 0.949 . S
C19 C18 1.376 . S
C19 C20 1.397 . S
C20 H1 0.950 . S
C20 C19 1.397 . S
C20 C21 1.391 . S
C21 C20 1.391 . S
C21 C22 1.405 . S
C22 H2 0.950 . S
C22 C21 1.405 . S
C22 C23 1.367 . S
C23 H3 0.950 . S
C23 C18 1.386 . S
C23 C22 1.367 . S
C24 C18 1.483 . S
C24 C25 1.382 1_655 S
C24 C26 1.403 . S
C25 H4 0.950 . S
C25 C24 1.382 1_455 S
C25 C41 1.411 . S
C26 C24 1.403 . S
C26 C27 1.489 . S
C26 C40 1.411 . S
C27 C26 1.489 . S
C27 C28 1.383 . S
C27 C32 1.382 . S
C28 H5 0.950 . S
C28 C27 1.383 . S
C28 C29 1.395 . S
C29 H6 0.950 . S
C29 C28 1.395 . S
C29 C30 1.288 . S
C30 C29 1.288 . S
C30 C31 1.392 . S
C31 H7 0.951 . S
C31 C30 1.392 . S
C31 C32 1.392 . S
C32 H8 0.949 . S
C32 C27 1.382 . S
C32 C31 1.392 . S
C33 C34 1.376 . S
C33 C38 1.386 . S
C33 C39 1.483 . S
C34 H9 0.949 . S
C34 C33 1.376 . S
C34 C35 1.397 . S
C35 H10 0.950 . S
C35 C34 1.397 . S
C35 C36 1.391 . S
C36 C35 1.391 . S
C36 C37 1.405 . S
C37 H11 0.950 . S
C37 C36 1.405 . S
C37 C38 1.367 . S
C38 H12 0.950 . S
C38 C33 1.386 . S
C38 C37 1.367 . S
C39 C33 1.483 . S
C39 C40 1.382 1_455 S
C39 C41 1.403 . S
C40 H13 0.950 . S
C40 C26 1.411 . S
C40 C39 1.382 1_655 S
C41 C25 1.411 . S
C41 C39 1.403 . S
C41 C42 1.489 . S
C42 C41 1.489 . S
C42 C43 1.383 . S
C42 C47 1.382 . S
C43 H14 0.950 . S
C43 C42 1.383 . S
C43 C44 1.395 . S
C44 H15 0.950 . S
C44 C43 1.395 . S
C44 C45 1.288 . S
C45 C44 1.288 . S
C45 C46 1.392 . S
C46 H16 0.951 . S
C46 C45 1.392 . S
C46 C47 1.392 . S
C47 H17 0.949 . S
C47 C42 1.382 . S
C47 C46 1.392 . S
H48 C67 0.949 . S
H49 C68 0.950 . S
H50 C70 0.950 . S
H51 C71 0.950 . S
H52 C73 0.950 1_565 S
H53 C76 0.950 . S
H54 C77 0.950 . S
H55 C79 0.951 . S
H56 C80 0.949 . S
H57 C82 0.949 . S
H58 C83 0.950 . S
H59 C85 0.950 . S
H60 C86 0.950 . S
H61 C88 0.950 . S
H62 C91 0.950 . S
H63 C92 0.950 . S
H64 C94 0.951 . S
H65 C95 0.949 . S
C66 C67 1.376 . S
C66 C71 1.386 . S
C66 C72 1.483 . S
C67 H48 0.949 . S
C67 C66 1.376 . S
C67 C68 1.397 . S
C68 H49 0.950 . S
C68 C67 1.397 . S
C68 C69 1.391 . S
C69 C68 1.391 . S
C69 C70 1.405 . S
C70 H50 0.950 . S
C70 C69 1.405 . S
C70 C71 1.367 . S
C71 H51 0.950 . S
C71 C66 1.386 . S
C71 C70 1.367 . S
C72 C66 1.483 . S
C72 C73 1.382 1_565 S
C72 C74 1.403 . S
C73 H52 0.950 1_545 S
C73 C72 1.382 1_545 S
C73 C89 1.411 . S
C74 C72 1.403 . S
C74 C75 1.489 . S
C74 C88 1.411 1_565 S
C75 C74 1.489 . S
C75 C76 1.383 . S
C75 C80 1.382 . S
C76 H53 0.950 . S
C76 C75 1.383 . S
C76 C77 1.395 . S
C77 H54 0.950 . S
C77 C76 1.395 . S
C77 C78 1.288 . S
C78 C77 1.288 . S
C78 C79 1.392 . S
C79 H55 0.951 . S
C79 C78 1.392 . S
C79 C80 1.392 . S
C80 H56 0.949 . S
C80 C75 1.382 . S
C80 C79 1.392 . S
C81 C82 1.376 . S
C81 C86 1.386 . S
C81 C87 1.483 . S
C82 H57 0.949 . S
C82 C81 1.376 . S
C82 C83 1.397 . S
C83 H58 0.950 . S
C83 C82 1.397 . S
C83 C84 1.391 . S
C84 C83 1.391 . S
C84 C85 1.405 . S
C85 H59 0.950 . S
C85 C84 1.405 . S
C85 C86 1.367 . S
C86 H60 0.950 . S
C86 C81 1.386 . S
C86 C85 1.367 . S
C87 C81 1.483 . S
C87 C88 1.382 . S
C87 C89 1.403 . S
C88 H61 0.950 . S
C88 C74 1.411 1_545 S
C88 C87 1.382 . S
C89 C73 1.411 . S
C89 C87 1.403 . S
C89 C90 1.489 . S
C90 C89 1.489 . S
C90 C91 1.383 . S
C90 C95 1.382 . S
C91 H62 0.950 . S
C91 C90 1.383 . S
C91 C92 1.395 . S
C92 H63 0.950 . S
C92 C91 1.395 . S
C92 C93 1.288 . S
C93 C92 1.288 . S
C93 C94 1.392 . S
C94 H64 0.951 . S
C94 C93 1.392 . S
C94 C95 1.392 . S
C95 H65 0.949 . S
C95 C90 1.382 . S
C95 C94 1.392 . S
H96 C115 0.949 . S
H97 C116 0.950 . S
H98 C118 0.950 . S
H99 C119 0.950 . S
H100 C121 0.950 . S
H101 C124 0.950 . S
H102 C125 0.950 . S
H103 C127 0.951 . S
H104 C128 0.949 . S
H105 C130 0.949 . S
H106 C131 0.950 . S
H107 C133 0.950 . S
H108 C134 0.950 . S
H109 C136 0.950 . S
H110 C139 0.950 . S
H111 C140 0.950 . S
H112 C142 0.951 . S
H113 C143 0.949 . S
C114 C115 1.376 . S
C114 C119 1.386 . S
C114 C120 1.483 . S
C115 H96 0.949 . S
C115 C114 1.376 . S
C115 C116 1.397 . S
C116 H97 0.950 . S
C116 C115 1.397 . S
C116 C117 1.391 . S
C117 C116 1.391 . S
C117 C118 1.405 . S
C118 H98 0.950 . S
C118 C117 1.405 . S
C118 C119 1.367 . S
C119 H99 0.950 . S
C119 C114 1.386 . S
C119 C118 1.367 . S
C120 C114 1.483 . S
C120 C121 1.382 . S
C120 C122 1.403 . S
C121 H100 0.950 . S
C121 C120 1.382 . S
C121 C137 1.411 . S
C122 C120 1.403 . S
C122 C123 1.489 . S
C122 C136 1.411 . S
C123 C122 1.489 . S
C123 C124 1.383 . S
C123 C128 1.382 . S
C124 H101 0.950 . S
C124 C123 1.383 . S
C124 C125 1.395 . S
C125 H102 0.950 . S
C125 C124 1.395 . S
C125 C126 1.288 . S
C126 C125 1.288 . S
C126 C127 1.392 . S
C127 H103 0.951 . S
C127 C126 1.392 . S
C127 C128 1.392 . S
C128 H104 0.949 . S
C128 C123 1.382 . S
C128 C127 1.392 . S
C129 C130 1.376 . S
C129 C134 1.386 . S
C129 C135 1.483 . S
C130 H105 0.949 . S
C130 C129 1.376 . S
C130 C131 1.397 . S
C131 H106 0.950 . S
C131 C130 1.397 . S
C131 C132 1.391 . S
C132 C131 1.391 . S
C132 C133 1.405 . S
C133 H107 0.950 . S
C133 C132 1.405 . S
C133 C134 1.367 . S
C134 H108 0.950 . S
C134 C129 1.386 . S
C134 C133 1.367 . S
C135 C129 1.483 . S
C135 C136 1.382 . S
C135 C137 1.403 . S
C136 H109 0.950 . S
C136 C122 1.411 . S
C136 C135 1.382 . S
C137 C121 1.411 . S
C137 C135 1.403 . S
C137 C138 1.489 . S
C138 C137 1.489 . S
C138 C139 1.383 . S
C138 C143 1.382 . S
C139 H110 0.950 . S
C139 C138 1.383 . S
C139 C140 1.395 . S
C140 H111 0.950 . S
C140 C139 1.395 . S
C140 C141 1.288 . S
C141 C140 1.288 . S
C141 C142 1.392 . S
C142 H112 0.951 . S
C142 C141 1.392 . S
C142 C143 1.392 . S
C143 H113 0.949 . S
C143 C138 1.382 . S
C143 C142 1.392 . S
H144 C163 0.949 . S
H145 C164 0.950 . S
H146 C166 0.950 . S
H147 C167 0.950 . S
H148 C169 0.955 . S
H149 C172 0.950 . S
H150 C173 0.950 . S
H151 C175 0.951 . S
H152 C176 0.949 . S
H153 C178 0.949 . S
H154 C179 0.950 . S
H155 C181 0.950 . S
H156 C182 0.950 . S
H157 C184 0.950 . S
H158 C187 0.950 . S
H159 C188 0.950 . S
H160 C190 0.951 . S
H161 C191 0.949 . S
C162 C163 1.376 . S
C162 C167 1.386 . S
C162 C168 1.483 . S
C163 H144 0.949 . S
C163 C162 1.376 . S
C163 C164 1.397 . S
C164 H145 0.950 . S
C164 C163 1.397 . S
C164 C165 1.391 . S
C165 C164 1.391 . S
C165 C166 1.405 . S
C166 H146 0.950 . S
C166 C165 1.405 . S
C166 C167 1.367 . S
C167 H147 0.950 . S
C167 C162 1.386 . S
C167 C166 1.367 . S
C168 C162 1.483 . S
C168 C169 1.368 1_455 S
C168 C170 1.403 . S
C169 H148 0.955 . S
C169 C168 1.368 1_655 S
C169 C185 1.420 . S
C170 C168 1.403 . S
C170 C171 1.489 . S
C170 C184 1.411 . S
C171 C170 1.489 . S
C171 C172 1.383 . S
C171 C176 1.382 . S
C172 H149 0.950 . S
C172 C171 1.383 . S
C172 C173 1.395 . S
C173 H150 0.950 . S
C173 C172 1.395 . S
C173 C174 1.288 . S
C174 C173 1.288 . S
C174 C175 1.392 . S
C175 H151 0.951 . S
C175 C174 1.392 . S
C175 C176 1.392 . S
C176 H152 0.949 . S
C176 C171 1.382 . S
C176 C175 1.392 . S
C177 C178 1.376 . S
C177 C182 1.386 . S
C177 C183 1.483 . S
C178 H153 0.949 . S
C178 C177 1.376 . S
C178 C179 1.397 . S
C179 H154 0.950 . S
C179 C178 1.397 . S
C179 C180 1.391 . S
C180 C179 1.391 . S
C180 C181 1.405 . S
C181 H155 0.950 . S
C181 C180 1.405 . S
C181 C182 1.367 . S
C182 H156 0.950 . S
C182 C177 1.386 . S
C182 C181 1.367 . S
C183 C177 1.483 . S
C183 C184 1.382 1_655 S
C183 C185 1.403 . S
C184 H157 0.950 . S
C184 C170 1.411 . S
C184 C183 1.382 1_455 S
C185 C169 1.420 . S
C185 C183 1.403 . S
C185 C186 1.489 . S
C186 C185 1.489 . S
C186 C187 1.383 . S
C186 C191 1.382 . S
C187 H158 0.950 . S
C187 C186 1.383 . S
C187 C188 1.395 . S
C188 H159 0.950 . S
C188 C187 1.395 . S
C188 C189 1.288 . S
C189 C188 1.288 . S
C189 C190 1.392 . S
C190 H160 0.951 . S
C190 C189 1.392 . S
C190 C191 1.392 . S
C191 H161 0.949 . S
C191 C186 1.382 . S
C191 C190 1.392 . S
H192 C211 0.949 . S
H193 C212 0.950 . S
H194 C214 0.950 . S
H195 C215 0.950 . S
H196 C217 0.950 . S
H197 C220 0.950 . S
H198 C221 0.950 . S
H199 C223 0.951 . S
H200 C224 0.949 . S
H201 C226 0.949 . S
H202 C227 0.950 . S
H203 C229 0.950 . S
H204 C230 0.950 . S
H205 C232 0.951 . S
H206 C235 0.950 . S
H207 C236 0.950 . S
H208 C238 0.951 . S
H209 C239 0.949 . S
C210 C211 1.376 . S
C210 C215 1.386 1_554 S
C210 C216 1.483 1_554 S
C211 H192 0.949 . S
C211 C210 1.376 . S
C211 C212 1.397 . S
C212 H193 0.950 . S
C212 C211 1.397 . S
C212 C213 1.391 . S
C213 C212 1.391 . S
C213 C214 1.405 . S
C214 H194 0.950 . S
C214 C213 1.405 . S
C214 C215 1.367 1_554 S
C215 H195 0.950 . S
C215 C210 1.386 1_556 S
C215 C214 1.367 1_556 S
C216 C210 1.483 1_556 S
C216 C217 1.382 1_556 S
C216 C218 1.403 . S
C217 H196 0.950 . S
C217 C216 1.382 1_554 S
C217 C233 1.411 1_545 S
C218 C216 1.403 . S
C218 C219 1.489 . S
C218 C232 1.411 . S
C219 C218 1.489 . S
C219 C220 1.383 . S
C219 C224 1.382 . S
C220 H197 0.950 . S
C220 C219 1.383 . S
C220 C221 1.395 . S
C221 H198 0.950 . S
C221 C220 1.395 . S
C221 C222 1.288 . S
C222 C221 1.288 . S
C222 C223 1.392 . S
C223 H199 0.951 . S
C223 C222 1.392 . S
C223 C224 1.392 . S
C224 H200 0.949 . S
C224 C219 1.382 . S
C224 C223 1.392 . S
C225 C226 1.376 . S
C225 C230 1.386 . S
C225 C231 1.483 . S
C226 H201 0.949 . S
C226 C225 1.376 . S
C226 C227 1.397 . S
C227 H202 0.950 . S
C227 C226 1.397 . S
C227 C228 1.391 . S
C228 C227 1.391 . S
C228 C229 1.405 . S
C229 H203 0.950 . S
C229 C228 1.405 . S
C229 C230 1.367 . S
C230 H204 0.950 . S
C230 C225 1.386 . S
C230 C229 1.367 . S
C231 C225 1.483 . S
C231 C232 1.382 1_565 S
C231 C233 1.403 1_556 S
C232 H205 0.951 . S
C232 C218 1.411 . S
C232 C231 1.382 1_545 S
C233 C217 1.411 1_565 S
C233 C231 1.403 1_554 S
C233 C234 1.489 . S
C234 C233 1.489 . S
C234 C235 1.383 . S
C234 C239 1.382 . S
C235 H206 0.950 . S
C235 C234 1.383 . S
C235 C236 1.395 . S
C236 H207 0.950 . S
C236 C235 1.395 . S
C236 C237 1.288 . S
C237 C236 1.288 . S
C237 C238 1.392 . S
C238 H208 0.951 . S
C238 C237 1.392 . S
C238 C239 1.392 . S
C239 H209 0.949 . S
C239 C234 1.382 . S
C239 C238 1.392 . S
H240 C259 0.949 . S
H241 C260 0.950 . S
H242 C262 0.950 . S
H243 C263 0.950 . S
H244 C265 0.950 . S
H245 C268 0.950 . S
H246 C269 0.950 . S
H247 C271 0.951 . S
H248 C272 0.949 . S
H249 C274 0.949 . S
H250 C275 0.950 . S
H251 C277 0.950 . S
H252 C278 0.950 . S
H253 C280 0.950 . S
H254 C283 0.950 . S
H255 C284 0.950 . S
H256 C286 0.951 . S
H257 C287 0.949 . S
C258 C259 1.376 . S
C258 C263 1.386 . S
C258 C264 1.483 . S
C259 H240 0.949 . S
C259 C258 1.376 . S
C259 C260 1.397 . S
C260 H241 0.950 . S
C260 C259 1.397 . S
C260 C261 1.391 . S
C261 C260 1.391 . S
C261 C262 1.405 . S
C262 H242 0.950 . S
C262 C261 1.405 . S
C262 C263 1.367 . S
C263 H243 0.950 . S
C263 C258 1.386 . S
C263 C262 1.367 . S
C264 C258 1.483 . S
C264 C265 1.382 . S
C264 C266 1.403 . S
C265 H244 0.950 . S
C265 C264 1.382 . S
C265 C281 1.411 . S
C266 C264 1.403 . S
C266 C267 1.489 . S
C266 C280 1.411 . S
C267 C266 1.489 . S
C267 C268 1.383 . S
C267 C272 1.382 . S
C268 H245 0.950 . S
C268 C267 1.383 . S
C268 C269 1.395 . S
C269 H246 0.950 . S
C269 C268 1.395 . S
C269 C270 1.288 . S
C270 C269 1.288 . S
C270 C271 1.392 . S
C271 H247 0.951 . S
C271 C270 1.392 . S
C271 C272 1.392 . S
C272 H248 0.949 . S
C272 C267 1.382 . S
C272 C271 1.392 . S
C273 C274 1.376 . S
C273 C278 1.386 . S
C273 C279 1.483 . S
C274 H249 0.949 . S
C274 C273 1.376 . S
C274 C275 1.397 . S
C275 H250 0.950 . S
C275 C274 1.397 . S
C275 C276 1.391 . S
C276 C275 1.391 . S
C276 C277 1.405 . S
C277 H251 0.950 . S
C277 C276 1.405 . S
C277 C278 1.367 . S
C278 H252 0.950 . S
C278 C273 1.386 . S
C278 C277 1.367 . S
C279 C273 1.483 . S
C279 C280 1.382 . S
C279 C281 1.403 . S
C280 H253 0.950 . S
C280 C266 1.411 . S
C280 C279 1.382 . S
C281 C265 1.411 . S
C281 C279 1.403 . S
C281 C282 1.489 . S
C282 C281 1.489 . S
C282 C283 1.383 . S
C282 C287 1.382 . S
C283 H254 0.950 . S
C283 C282 1.383 . S
C283 C284 1.395 . S
C284 H255 0.950 . S
C284 C283 1.395 . S
C284 C285 1.288 . S
C285 C284 1.288 . S
C285 C286 1.392 . S
C286 H256 0.951 . S
C286 C285 1.392 . S
C286 C287 1.392 . S
C287 H257 0.949 . S
C287 C282 1.382 . S
C287 C286 1.392 . S
Mg288 O289 2.028 . S
Mg288 O295 1.986 . S
Mg288 O297 2.114 . S
Mg288 O298 2.251 . S
Mg288 O301 2.010 . S
O289 Mg288 2.028 . S
O289 C292 1.250 . S
O290 Mg291 2.028 . S
O290 C292 1.248 . S
Mg291 O290 2.028 . S
Mg291 O296 2.032 . S
Mg291 O298 2.079 . S
C292 O289 1.250 . S
C292 O290 1.248 . S
C293 O294 1.264 . S
C293 O301 1.249 . S
O294 C293 1.264 . S
O295 Mg288 1.986 . S
O295 C299 1.246 . S
O296 Mg291 2.032 . S
O296 C299 1.259 . S
O297 Mg288 2.114 . S
O297 C300 1.252 . S
O298 Mg288 2.251 . S
O298 Mg291 2.079 . S
O298 C300 1.273 . S
C299 O295 1.246 . S
C299 O296 1.259 . S
C300 O297 1.252 . S
C300 O298 1.273 . S
O301 Mg288 2.010 . S
O301 C293 1.249 . S
Mg302 O303 2.028 . S
Mg302 O309 1.986 . S
Mg302 O311 2.114 . S
Mg302 O312 2.251 . S
Mg302 O315 2.010 . S
O303 Mg302 2.028 . S
O303 C306 1.250 . S
O304 Mg305 2.028 . S
O304 C306 1.248 . S
Mg305 O304 2.028 . S
Mg305 O310 2.032 . S
Mg305 O312 2.079 . S
C306 O303 1.250 . S
C306 O304 1.248 . S
C307 O308 1.264 . S
C307 O315 1.249 . S
O308 C307 1.264 . S
O309 Mg302 1.986 . S
O309 C313 1.246 . S
O310 Mg305 2.032 . S
O310 C313 1.259 . S
O311 Mg302 2.114 . S
O311 C314 1.252 . S
O312 Mg302 2.251 . S
O312 Mg305 2.079 . S
O312 C314 1.273 . S
C313 O309 1.246 . S
C313 O310 1.259 . S
C314 O311 1.252 . S
C314 O312 1.273 . S
O315 Mg302 2.010 . S
O315 C307 1.249 . S
Mg316 O317 2.028 . S
Mg316 O323 1.986 . S
Mg316 O325 2.114 . S
Mg316 O326 2.251 . S
Mg316 O329 2.010 . S
O317 Mg316 2.028 . S
O317 C320 1.250 . S
O318 Mg319 2.028 . S
O318 C320 1.248 . S
Mg319 O318 2.028 . S
Mg319 O324 2.032 . S
Mg319 O326 2.079 . S
C320 O317 1.250 . S
C320 O318 1.248 . S
C321 O322 1.264 . S
C321 O329 1.249 . S
O322 C321 1.264 . S
O323 Mg316 1.986 . S
O323 C327 1.246 . S
O324 Mg319 2.032 . S
O324 C327 1.259 . S
O325 Mg316 2.114 . S
O325 C328 1.252 . S
O326 Mg316 2.251 . S
O326 Mg319 2.079 . S
O326 C328 1.273 . S
C327 O323 1.246 . S
C327 O324 1.259 . S
C328 O325 1.252 . S
C328 O326 1.273 . S
O329 Mg316 2.010 . S
O329 C321 1.249 . S
Mg330 O331 2.028 . S
Mg330 O337 1.986 . S
Mg330 O339 2.114 . S
Mg330 O340 2.251 . S
Mg330 O343 2.010 . S
O331 Mg330 2.028 . S
O331 C334 1.250 . S
O332 Mg333 2.028 . S
O332 C334 1.248 . S
Mg333 O332 2.028 . S
Mg333 O338 2.032 . S
Mg333 O340 2.079 . S
C334 O331 1.250 . S
C334 O332 1.248 . S
C335 O336 1.264 . S
C335 O343 1.249 . S
O336 C335 1.264 . S
O337 Mg330 1.986 . S
O337 C341 1.246 . S
O338 Mg333 2.032 . S
O338 C341 1.259 . S
O339 Mg330 2.114 . S
O339 C342 1.252 . S
O340 Mg330 2.251 . S
O340 Mg333 2.079 . S
O340 C342 1.273 . S
C341 O337 1.246 . S
C341 O338 1.259 . S
C342 O339 1.252 . S
C342 O340 1.273 . S
O343 Mg330 2.010 . S
O343 C335 1.249 . S
Mg344 O345 2.028 . S
Mg344 O351 1.986 . S
Mg344 O353 2.114 . S
Mg344 O354 2.251 . S
Mg344 O357 2.010 . S
O345 Mg344 2.028 . S
O345 C348 1.250 . S
O346 Mg347 2.028 . S
O346 C348 1.248 . S
Mg347 O346 2.028 . S
Mg347 O352 2.032 . S
Mg347 O354 2.079 . S
C348 O345 1.250 . S
C348 O346 1.248 . S
C349 O350 1.264 . S
C349 O357 1.249 . S
O350 C349 1.264 . S
O351 Mg344 1.986 . S
O351 C355 1.246 . S
O352 Mg347 2.032 . S
O352 C355 1.259 . S
O353 Mg344 2.114 . S
O353 C356 1.252 . S
O354 Mg344 2.251 . S
O354 Mg347 2.079 . S
O354 C356 1.273 . S
C355 O351 1.246 . S
C355 O352 1.259 . S
C356 O353 1.252 . S
C356 O354 1.273 . S
O357 Mg344 2.010 . S
O357 C349 1.249 . S
Mg358 O359 2.028 . S
Mg358 O365 1.986 . S
Mg358 O367 2.114 . S
Mg358 O368 2.251 . S
Mg358 O371 2.010 . S
O359 Mg358 2.028 . S
O359 C362 1.250 . S
O360 Mg361 2.028 . S
O360 C362 1.248 . S
Mg361 O360 2.028 . S
Mg361 O366 2.032 . S
Mg361 O368 2.079 . S
C362 O359 1.250 . S
C362 O360 1.248 . S
C363 O364 1.264 . S
C363 O371 1.249 . S
O364 C363 1.264 . S
O365 Mg358 1.986 . S
O365 C369 1.246 . S
O366 Mg361 2.032 . S
O366 C369 1.259 . S
O367 Mg358 2.114 . S
O367 C370 1.252 . S
O368 Mg358 2.251 . S
O368 Mg361 2.079 . S
O368 C370 1.273 . S
C369 O365 1.246 . S
C369 O366 1.259 . S
C370 O367 1.252 . S
C370 O368 1.273 . S
O371 Mg358 2.010 . S
O371 C363 1.249 . S
H372 C378 0.930 . S
H373 C382 0.930 . S
H374 C387 0.929 . S
H375 C385 0.929 . S
H376 C380 0.929 . S
H377 C386 0.929 . S
C378 H372 0.930 . S
C378 C379 1.367 . S
C378 C386 1.378 . S
C379 C378 1.367 . S
C379 C387 1.433 . S
C380 H376 0.929 . S
C380 C382 1.378 . S
C380 C384 1.350 . S
C381 C384 1.463 . S
C381 C386 1.350 . S
C381 N389 1.427 . S
C382 H373 0.930 . S
C382 C380 1.378 . S
C382 C383 1.367 . S
C383 C382 1.367 . S
C383 C385 1.433 . S
C384 C380 1.350 . S
C384 C381 1.463 . S
C384 N388 1.427 . S
C385 H375 0.929 . S
C385 C383 1.433 . S
C385 N388 1.384 . S
C386 H377 0.929 . S
C386 C378 1.378 . S
C386 C381 1.350 . S
C387 H374 0.929 . S
C387 C379 1.433 . S
C387 N389 1.384 . S
N388 C384 1.427 . S
N388 C385 1.384 . S
N389 C381 1.427 . S
N389 C387 1.384 . S
H390 C396 0.930 . S
H391 C400 0.930 . S
H392 C405 0.929 . S
H393 C403 0.929 . S
H394 C398 0.929 . S
H395 C404 0.929 . S
C396 H390 0.930 . S
C396 C397 1.367 . S
C396 C404 1.378 . S
C397 C396 1.367 . S
C397 C405 1.433 . S
C398 H394 0.929 . S
C398 C400 1.378 . S
C398 C402 1.350 . S
C399 C402 1.463 . S
C399 C404 1.350 . S
C399 N407 1.427 . S
C400 H391 0.930 . S
C400 C398 1.378 . S
C400 C401 1.367 . S
C401 C400 1.367 . S
C401 C403 1.433 . S
C402 C398 1.350 . S
C402 C399 1.463 . S
C402 N406 1.427 . S
C403 H393 0.929 . S
C403 C401 1.433 . S
C403 N406 1.384 . S
C404 H395 0.929 . S
C404 C396 1.378 . S
C404 C399 1.350 . S
C405 H392 0.929 . S
C405 C397 1.433 . S
C405 N407 1.384 . S
N406 C402 1.427 . S
N406 C403 1.384 . S
N407 C399 1.427 . S
N407 C405 1.384 . S
H408 C414 0.930 . S
H409 C418 0.930 . S
H410 C423 0.929 . S
H411 C421 0.929 . S
H412 C416 0.929 . S
H413 C422 0.929 . S
C414 H408 0.930 . S
C414 C415 1.367 . S
C414 C422 1.378 . S
C415 C414 1.367 . S
C415 C423 1.433 . S
C416 H412 0.929 . S
C416 C418 1.378 . S
C416 C420 1.350 . S
C417 C420 1.463 . S
C417 C422 1.350 . S
C417 N425 1.427 . S
C418 H409 0.930 . S
C418 C416 1.378 . S
C418 C419 1.367 . S
C419 C418 1.367 . S
C419 C421 1.433 . S
C420 C416 1.350 . S
C420 C417 1.463 . S
C420 N424 1.427 . S
C421 H411 0.929 . S
C421 C419 1.433 . S
C421 N424 1.384 . S
C422 H413 0.929 . S
C422 C414 1.378 . S
C422 C417 1.350 . S
C423 H410 0.929 . S
C423 C415 1.433 . S
C423 N425 1.384 . S
N424 C420 1.427 . S
N424 C421 1.384 . S
N425 C417 1.427 . S
N425 C423 1.384 . S
H426 C432 0.930 . S
H427 C436 0.930 . S
H428 C441 0.929 . S
H429 C439 0.929 . S
H430 C434 0.929 . S
H431 C440 0.929 . S
C432 H426 0.930 . S
C432 C433 1.367 . S
C432 C440 1.378 . S
C433 C432 1.367 . S
C433 C441 1.433 . S
C434 H430 0.929 . S
C434 C436 1.378 . S
C434 C438 1.350 . S
C435 C438 1.463 . S
C435 C440 1.350 . S
C435 N443 1.427 . S
C436 H427 0.930 . S
C436 C434 1.378 . S
C436 C437 1.367 . S
C437 C436 1.367 . S
C437 C439 1.433 . S
C438 C434 1.350 . S
C438 C435 1.463 . S
C438 N442 1.427 . S
C439 H429 0.929 . S
C439 C437 1.433 . S
C439 N442 1.384 . S
C440 H431 0.929 . S
C440 C432 1.378 . S
C440 C435 1.350 . S
C441 H428 0.929 . S
C441 C433 1.433 . S
C441 N443 1.384 . S
N442 C438 1.427 . S
N442 C439 1.384 . S
N443 C435 1.427 . S
N443 C441 1.384 . S
H444 C450 0.930 . S
H445 C454 0.930 . S
H446 C459 0.929 . S
H447 C457 0.929 . S
H448 C452 0.929 . S
H449 C458 0.929 . S
C450 H444 0.930 . S
C450 C451 1.367 . S
C450 C458 1.378 . S
C451 C450 1.367 . S
C451 C459 1.433 . S
C452 H448 0.929 . S
C452 C454 1.378 . S
C452 C456 1.350 . S
C453 C456 1.463 . S
C453 C458 1.350 . S
C453 N461 1.427 . S
C454 H445 0.930 . S
C454 C452 1.378 . S
C454 C455 1.367 . S
C455 C454 1.367 . S
C455 C457 1.433 . S
C456 C452 1.350 . S
C456 C453 1.463 . S
C456 N460 1.427 . S
C457 H447 0.929 . S
C457 C455 1.433 . S
C457 N460 1.384 . S
C458 H449 0.929 . S
C458 C450 1.378 . S
C458 C453 1.350 . S
C459 H446 0.929 . S
C459 C451 1.433 . S
C459 N461 1.384 . S
N460 C456 1.427 . S
N460 C457 1.384 . S
N461 C453 1.427 . S
N461 C459 1.384 . S
H462 C468 0.930 . S
H463 C472 0.930 . S
H464 C477 0.929 . S
H465 C475 0.929 . S
H466 C470 0.929 . S
H467 C476 0.929 . S
C468 H462 0.930 . S
C468 C469 1.367 . S
C468 C476 1.378 . S
C469 C468 1.367 . S
C469 C477 1.433 . S
C470 H466 0.929 . S
C470 C472 1.378 . S
C470 C474 1.350 . S
C471 C474 1.463 . S
C471 C476 1.350 . S
C471 N479 1.427 . S
C472 H463 0.930 . S
C472 C470 1.378 . S
C472 C473 1.367 . S
C473 C472 1.367 . S
C473 C475 1.433 . S
C474 C470 1.350 . S
C474 C471 1.463 . S
C474 N478 1.427 . S
C475 H465 0.929 . S
C475 C473 1.433 . S
C475 N478 1.384 . S
C476 H467 0.929 . S
C476 C468 1.378 . S
C476 C471 1.350 . S
C477 H464 0.929 . S
C477 C469 1.433 . S
C477 N479 1.384 . S
N478 C474 1.427 . S
N478 C475 1.384 . S
N479 C471 1.427 . S
N479 C477 1.384 . S
H480 C486 0.930 . S
H481 C490 0.930 . S
H482 C495 0.929 . S
H483 C493 0.929 . S
H484 C488 0.929 . S
H485 C494 0.929 . S
C486 H480 0.930 . S
C486 C487 1.367 . S
C486 C494 1.378 . S
C487 C486 1.367 . S
C487 C495 1.433 . S
C488 H484 0.929 . S
C488 C490 1.378 . S
C488 C492 1.350 . S
C489 C492 1.463 . S
C489 C494 1.350 . S
C489 N497 1.427 . S
C490 H481 0.930 . S
C490 C488 1.378 . S
C490 C491 1.367 . S
C491 C490 1.367 . S
C491 C493 1.433 . S
C492 C488 1.350 . S
C492 C489 1.463 . S
C492 N496 1.427 . S
C493 H483 0.929 . S
C493 C491 1.433 . S
C493 N496 1.384 . S
C494 H485 0.929 . S
C494 C486 1.378 . S
C494 C489 1.350 . S
C495 H482 0.929 . S
C495 C487 1.433 . S
C495 N497 1.384 . S
N496 C492 1.427 . S
N496 C493 1.384 . S
N497 C489 1.427 . S
N497 C495 1.384 . S
H498 C504 0.930 . S
H499 C508 0.930 . S
H500 C513 0.929 . S
H501 C511 0.929 . S
H502 C506 0.929 . S
H503 C512 0.929 . S
C504 H498 0.930 . S
C504 C505 1.367 . S
C504 C512 1.378 . S
C505 C504 1.367 . S
C505 C513 1.433 . S
C506 H502 0.929 . S
C506 C508 1.378 . S
C506 C510 1.350 . S
C507 C510 1.463 . S
C507 C512 1.350 . S
C507 N515 1.427 . S
C508 H499 0.930 . S
C508 C506 1.378 . S
C508 C509 1.367 . S
C509 C508 1.367 . S
C509 C511 1.433 . S
C510 C506 1.350 . S
C510 C507 1.463 . S
C510 N514 1.427 . S
C511 H501 0.929 . S
C511 C509 1.433 . S
C511 N514 1.384 . S
C512 H503 0.929 . S
C512 C504 1.378 . S
C512 C507 1.350 . S
C513 H500 0.929 . S
C513 C505 1.433 . S
C513 N515 1.384 . S
N514 C510 1.427 . S
N514 C511 1.384 . S
N515 C507 1.427 . S
N515 C513 1.384 . S
H516 C522 0.930 . S
H517 C526 0.930 . S
H518 C531 0.929 . S
H519 C529 0.929 . S
H520 C524 0.929 . S
H521 C530 0.929 . S
C522 H516 0.930 . S
C522 C523 1.367 . S
C522 C530 1.378 . S
C523 C522 1.367 . S
C523 C531 1.433 . S
C524 H520 0.929 . S
C524 C526 1.378 . S
C524 C528 1.350 . S
C525 C528 1.463 . S
C525 C530 1.350 . S
C525 N533 1.427 . S
C526 H517 0.930 . S
C526 C524 1.378 . S
C526 C527 1.367 . S
C527 C526 1.367 . S
C527 C529 1.433 . S
C528 C524 1.350 . S
C528 C525 1.463 . S
C528 N532 1.427 . S
C529 H519 0.929 . S
C529 C527 1.433 . S
C529 N532 1.384 . S
C530 H521 0.929 . S
C530 C522 1.378 . S
C530 C525 1.350 . S
C531 H518 0.929 . S
C531 C523 1.433 . S
C531 N533 1.384 . S
N532 C528 1.427 . S
N532 C529 1.384 . S
N533 C525 1.427 . S
N533 C531 1.384 . S
H534 C540 0.930 . S
H535 C544 0.930 . S
H536 C549 0.929 1_556 S
H537 C547 0.929 . S
H538 C542 0.929 . S
H539 C548 0.929 . S
C540 H534 0.930 . S
C540 C541 1.367 . S
C540 C548 1.378 . S
C541 C540 1.367 . S
C541 C549 1.433 . S
C542 H538 0.929 . S
C542 C544 1.378 . S
C542 C546 1.350 . S
C543 C546 1.463 . S
C543 C548 1.350 . S
C543 N551 1.427 . S
C544 H535 0.930 . S
C544 C542 1.378 . S
C544 C545 1.367 . S
C545 C544 1.367 . S
C545 C547 1.433 . S
C546 C542 1.350 . S
C546 C543 1.463 . S
C546 N550 1.427 . S
C547 H537 0.929 . S
C547 C545 1.433 . S
C547 N550 1.384 . S
C548 H539 0.929 . S
C548 C540 1.378 . S
C548 C543 1.350 . S
C549 H536 0.929 1_554 S
C549 C541 1.433 . S
C549 N551 1.384 . S
N550 C546 1.427 . S
N550 C547 1.384 . S
N551 C543 1.427 . S
N551 C549 1.384 . S
H552 C558 0.930 . S
H553 C562 0.930 . S
H554 C567 0.929 . S
H555 C565 0.929 . S
H556 C560 0.929 . S
H557 C566 0.929 . S
C558 H552 0.930 . S
C558 C559 1.367 . S
C558 C566 1.378 . S
C559 C558 1.367 . S
C559 C567 1.433 . S
C560 H556 0.929 . S
C560 C562 1.378 . S
C560 C564 1.350 . S
C561 C564 1.463 . S
C561 C566 1.350 . S
C561 N569 1.427 . S
C562 H553 0.930 . S
C562 C560 1.378 . S
C562 C563 1.367 . S
C563 C562 1.367 . S
C563 C565 1.433 . S
C564 C560 1.350 . S
C564 C561 1.463 . S
C564 N568 1.427 . S
C565 H555 0.929 . S
C565 C563 1.433 . S
C565 N568 1.384 . S
C566 H557 0.929 . S
C566 C558 1.378 . S
C566 C561 1.350 . S
C567 H554 0.929 . S
C567 C559 1.433 . S
C567 N569 1.384 . S
N568 C564 1.427 . S
N568 C565 1.384 . S
N569 C561 1.427 . S
N569 C567 1.384 . S
H570 C576 0.930 . S
H571 C580 0.930 . S
H572 C585 0.929 . S
H573 C583 0.929 . S
H574 C578 0.929 . S
H575 C584 0.929 . S
C576 H570 0.930 . S
C576 C577 1.367 . S
C576 C584 1.378 . S
C577 C576 1.367 . S
C577 C585 1.433 . S
C578 H574 0.929 . S
C578 C580 1.378 . S
C578 C582 1.350 . S
C579 C582 1.463 . S
C579 C584 1.350 . S
C579 N587 1.427 . S
C580 H571 0.930 . S
C580 C578 1.378 . S
C580 C581 1.367 . S
C581 C580 1.367 . S
C581 C583 1.433 . S
C582 C578 1.350 . S
C582 C579 1.463 . S
C582 N586 1.427 . S
C583 H573 0.929 . S
C583 C581 1.433 . S
C583 N586 1.384 . S
C584 H575 0.929 . S
C584 C576 1.378 . S
C584 C579 1.350 . S
C585 H572 0.929 . S
C585 C577 1.433 . S
C585 N587 1.384 . S
N586 C582 1.427 . S
N586 C583 1.384 . S
N587 C579 1.427 . S
N587 C585 1.384 . S
H588 C594 0.930 . S
H589 C598 0.930 . S
H590 C603 0.929 . S
H591 C601 0.929 . S
H592 C596 0.929 . S
H593 C602 0.929 . S
C594 H588 0.930 . S
C594 C595 1.367 . S
C594 C602 1.378 . S
C595 C594 1.367 . S
C595 C603 1.433 . S
C596 H592 0.929 . S
C596 C598 1.378 . S
C596 C600 1.350 . S
C597 C600 1.463 . S
C597 C602 1.350 . S
C597 N605 1.427 . S
C598 H589 0.930 . S
C598 C596 1.378 . S
C598 C599 1.367 . S
C599 C598 1.367 . S
C599 C601 1.433 . S
C600 C596 1.350 . S
C600 C597 1.463 . S
C600 N604 1.427 . S
C601 H591 0.929 . S
C601 C599 1.433 . S
C601 N604 1.384 . S
C602 H593 0.929 . S
C602 C594 1.378 . S
C602 C597 1.350 . S
C603 H590 0.929 . S
C603 C595 1.433 . S
C603 N605 1.384 . S
N604 C600 1.427 . S
N604 C601 1.384 . S
N605 C597 1.427 . S
N605 C603 1.384 . S
H606 C612 0.930 . S
H607 C616 0.930 . S
H608 C621 0.929 . S
H609 C619 0.929 . S
H610 C614 0.929 . S
H611 C620 0.929 . S
C612 H606 0.930 . S
C612 C613 1.367 . S
C612 C620 1.378 . S
C613 C612 1.367 . S
C613 C621 1.433 . S
C614 H610 0.929 . S
C614 C616 1.378 . S
C614 C618 1.350 . S
C615 C618 1.463 . S
C615 C620 1.350 . S
C615 N623 1.427 . S
C616 H607 0.930 . S
C616 C614 1.378 . S
C616 C617 1.367 . S
C617 C616 1.367 . S
C617 C619 1.433 . S
C618 C614 1.350 . S
C618 C615 1.463 . S
C618 N622 1.427 . S
C619 H609 0.929 . S
C619 C617 1.433 . S
C619 N622 1.384 . S
C620 H611 0.929 . S
C620 C612 1.378 . S
C620 C615 1.350 . S
C621 H608 0.929 . S
C621 C613 1.433 . S
C621 N623 1.384 . S
N622 C618 1.427 . S
N622 C619 1.384 . S
N623 C615 1.427 . S
N623 C621 1.384 . S
H624 C630 0.930 . S
H625 C634 0.930 . S
H626 C639 0.929 . S
H627 C637 0.929 . S
H628 C632 0.929 . S
H629 C638 0.929 . S
C630 H624 0.930 . S
C630 C631 1.367 . S
C630 C638 1.378 . S
C631 C630 1.367 . S
C631 C639 1.433 . S
C632 H628 0.929 . S
C632 C634 1.378 . S
C632 C636 1.350 . S
C633 C636 1.463 . S
C633 C638 1.350 . S
C633 N641 1.427 . S
C634 H625 0.930 . S
C634 C632 1.378 . S
C634 C635 1.367 . S
C635 C634 1.367 . S
C635 C637 1.433 . S
C636 C632 1.350 . S
C636 C633 1.463 . S
C636 N640 1.427 . S
C637 H627 0.929 . S
C637 C635 1.433 . S
C637 N640 1.384 . S
C638 H629 0.929 . S
C638 C630 1.378 . S
C638 C633 1.350 . S
C639 H626 0.929 . S
C639 C631 1.433 . S
C639 N641 1.384 . S
N640 C636 1.427 . S
N640 C637 1.384 . S
N641 C633 1.427 . S
N641 C639 1.384 . S
H642 C648 0.930 . S
H643 C652 0.930 . S
H644 C657 0.929 . S
H645 C655 0.929 . S
H646 C650 0.929 . S
H647 C656 0.929 . S
C648 H642 0.930 . S
C648 C649 1.367 . S
C648 C656 1.378 . S
C649 C648 1.367 . S
C649 C657 1.433 . S
C650 H646 0.929 . S
C650 C652 1.378 . S
C650 C654 1.350 . S
C651 C654 1.463 . S
C651 C656 1.350 . S
C651 N659 1.427 . S
C652 H643 0.930 . S
C652 C650 1.378 . S
C652 C653 1.367 1_556 S
C653 C652 1.367 1_554 S
C653 C655 1.433 . S
C654 C650 1.350 . S
C654 C651 1.463 . S
C654 N658 1.427 . S
C655 H645 0.929 . S
C655 C653 1.433 . S
C655 N658 1.384 1_554 S
C656 H647 0.929 . S
C656 C648 1.378 . S
C656 C651 1.350 . S
C657 H644 0.929 . S
C657 C649 1.433 . S
C657 N659 1.384 . S
N658 C654 1.427 . S
N658 C655 1.384 1_556 S
N659 C651 1.427 . S
N659 C657 1.384 . S
H660 C666 0.930 . S
H661 C670 0.930 . S
H662 C675 0.929 . S
H663 C673 0.929 . S
H664 C668 0.929 . S
H665 C674 0.929 . S
C666 H660 0.930 . S
C666 C667 1.367 . S
C666 C674 1.378 . S
C667 C666 1.367 . S
C667 C675 1.433 . S
C668 H664 0.929 . S
C668 C670 1.378 . S
C668 C672 1.350 . S
C669 C672 1.463 . S
C669 C674 1.350 . S
C669 N677 1.427 . S
C670 H661 0.930 . S
C670 C668 1.378 . S
C670 C671 1.367 . S
C671 C670 1.367 . S
C671 C673 1.433 . S
C672 C668 1.350 . S
C672 C669 1.463 . S
C672 N676 1.427 . S
C673 H663 0.929 . S
C673 C671 1.433 . S
C673 N676 1.384 . S
C674 H665 0.929 . S
C674 C666 1.378 . S
C674 C669 1.350 . S
C675 H662 0.929 . S
C675 C667 1.433 . S
C675 N677 1.384 . S
N676 C672 1.427 . S
N676 C673 1.384 . S
N677 C669 1.427 . S
N677 C675 1.384 . S
H678 C684 0.930 . S
H679 C688 0.930 . S
H680 C693 0.929 . S
H681 C691 0.929 . S
H682 C686 0.929 . S
H683 C692 0.929 . S
C684 H678 0.930 . S
C684 C685 1.367 . S
C684 C692 1.378 . S
C685 C684 1.367 . S
C685 C693 1.433 . S
C686 H682 0.929 . S
C686 C688 1.378 . S
C686 C690 1.350 . S
C687 C690 1.463 . S
C687 C692 1.350 . S
C687 N695 1.427 . S
C688 H679 0.930 . S
C688 C686 1.378 . S
C688 C689 1.367 . S
C689 C688 1.367 . S
C689 C691 1.433 . S
C690 C686 1.350 . S
C690 C687 1.463 . S
C690 N694 1.427 . S
C691 H681 0.929 . S
C691 C689 1.433 . S
C691 N694 1.384 . S
C692 H683 0.929 . S
C692 C684 1.378 . S
C692 C687 1.350 . S
C693 H680 0.929 . S
C693 C685 1.433 . S
C693 N695 1.384 . S
N694 C690 1.427 . S
N694 C691 1.384 . S
N695 C687 1.427 . S
N695 C693 1.384 . S
H696 C702 0.930 . S
H697 C706 0.930 . S
H698 C711 0.929 . S
H699 C709 0.929 . S
H700 C704 0.929 . S
H701 C710 0.929 . S
C702 H696 0.930 . S
C702 C703 1.367 . S
C702 C710 1.378 . S
C703 C702 1.367 . S
C703 C711 1.433 . S
C704 H700 0.929 . S
C704 C706 1.378 . S
C704 C708 1.350 . S
C705 C708 1.463 . S
C705 C710 1.350 . S
C705 N713 1.427 . S
C706 H697 0.930 . S
C706 C704 1.378 . S
C706 C707 1.367 . S
C707 C706 1.367 . S
C707 C709 1.433 . S
C708 C704 1.350 . S
C708 C705 1.463 . S
C708 N712 1.427 . S
C709 H699 0.929 . S
C709 C707 1.433 . S
C709 N712 1.384 . S
C710 H701 0.929 . S
C710 C702 1.378 . S
C710 C705 1.350 . S
C711 H698 0.929 . S
C711 C703 1.433 . S
C711 N713 1.384 . S
N712 C708 1.427 . S
N712 C709 1.384 . S
N713 C705 1.427 . S
N713 C711 1.384 . S
H714 C720 0.930 . S
H715 C724 0.930 . S
H716 C729 0.929 . S
H717 C727 0.929 . S
H718 C722 0.929 . S
H719 C728 0.929 . S
C720 H714 0.930 . S
C720 C721 1.367 . S
C720 C728 1.378 . S
C721 C720 1.367 . S
C721 C729 1.433 . S
C722 H718 0.929 . S
C722 C724 1.378 . S
C722 C726 1.350 . S
C723 C726 1.463 . S
C723 C728 1.350 . S
C723 N731 1.427 . S
C724 H715 0.930 . S
C724 C722 1.378 . S
C724 C725 1.367 . S
C725 C724 1.367 . S
C725 C727 1.433 . S
C726 C722 1.350 . S
C726 C723 1.463 . S
C726 N730 1.427 . S
C727 H717 0.929 . S
C727 C725 1.433 . S
C727 N730 1.384 . S
C728 H719 0.929 . S
C728 C720 1.378 . S
C728 C723 1.350 . S
C729 H716 0.929 . S
C729 C721 1.433 . S
C729 N731 1.384 . S
N730 C726 1.427 . S
N730 C727 1.384 . S
N731 C723 1.427 . S
N731 C729 1.384 . S
H732 C738 0.930 . S
H733 C742 0.930 . S
H734 C747 0.929 . S
H735 C745 0.929 . S
H736 C740 0.929 . S
H737 C746 0.929 . S
C738 H732 0.930 . S
C738 C739 1.367 . S
C738 C746 1.378 . S
C739 C738 1.367 . S
C739 C747 1.433 . S
C740 H736 0.929 . S
C740 C742 1.378 . S
C740 C744 1.350 . S
C741 C744 1.463 . S
C741 C746 1.350 . S
C741 N749 1.427 . S
C742 H733 0.930 . S
C742 C740 1.378 . S
C742 C743 1.367 . S
C743 C742 1.367 . S
C743 C745 1.433 . S
C744 C740 1.350 . S
C744 C741 1.463 . S
C744 N748 1.427 . S
C745 H735 0.929 . S
C745 C743 1.433 . S
C745 N748 1.384 . S
C746 H737 0.929 . S
C746 C738 1.378 . S
C746 C741 1.350 . S
C747 H734 0.929 . S
C747 C739 1.433 . S
C747 N749 1.384 . S
N748 C744 1.427 . S
N748 C745 1.384 . S
N749 C741 1.427 . S
N749 C747 1.384 . S
H750 C756 0.930 . S
H751 C760 0.930 . S
H752 C765 0.929 . S
H753 C763 0.929 . S
H754 C758 0.929 . S
H755 C764 0.929 . S
C756 H750 0.930 . S
C756 C757 1.367 . S
C756 C764 1.378 . S
C757 C756 1.367 . S
C757 C765 1.433 . S
C758 H754 0.929 . S
C758 C760 1.378 . S
C758 C762 1.350 . S
C759 C762 1.463 . S
C759 C764 1.350 . S
C759 N767 1.427 . S
C760 H751 0.930 . S
C760 C758 1.378 . S
C760 C761 1.367 . S
C761 C760 1.367 . S
C761 C763 1.433 . S
C762 C758 1.350 . S
C762 C759 1.463 . S
C762 N766 1.427 . S
C763 H753 0.929 . S
C763 C761 1.433 . S
C763 N766 1.384 . S
C764 H755 0.929 . S
C764 C756 1.378 . S
C764 C759 1.350 . S
C765 H752 0.929 . S
C765 C757 1.433 . S
C765 N767 1.384 . S
N766 C762 1.427 . S
N766 C763 1.384 . S
N767 C759 1.427 . S
N767 C765 1.384 . S
H768 C774 0.930 . S
H769 C778 0.930 . S
H770 C783 0.929 . S
H771 C781 0.929 . S
H772 C776 0.929 . S
H773 C782 0.929 . S
C774 H768 0.930 . S
C774 C775 1.367 . S
C774 C782 1.378 . S
C775 C774 1.367 . S
C775 C783 1.433 . S
C776 H772 0.929 . S
C776 C778 1.378 . S
C776 C780 1.350 . S
C777 C780 1.463 1_554 S
C777 C782 1.350 . S
C777 N785 1.427 . S
C778 H769 0.930 . S
C778 C776 1.378 . S
C778 C779 1.367 . S
C779 C778 1.367 . S
C779 C781 1.433 . S
C780 C776 1.350 . S
C780 C777 1.463 1_556 S
C780 N784 1.427 . S
C781 H771 0.929 . S
C781 C779 1.433 . S
C781 N784 1.384 . S
C782 H773 0.929 . S
C782 C774 1.378 . S
C782 C777 1.350 . S
C783 H770 0.929 . S
C783 C775 1.433 . S
C783 N785 1.384 . S
N784 C780 1.427 . S
N784 C781 1.384 . S
N785 C777 1.427 . S
N785 C783 1.384 . S
H786 C792 0.930 . S
H787 C796 0.930 . S
H788 C801 0.929 . S
H789 C799 0.929 . S
H790 C794 0.929 . S
H791 C800 0.929 . S
C792 H786 0.930 . S
C792 C793 1.367 . S
C792 C800 1.378 . S
C793 C792 1.367 . S
C793 C801 1.433 . S
C794 H790 0.929 . S
C794 C796 1.378 . S
C794 C798 1.350 . S
C795 C798 1.463 . S
C795 C800 1.350 . S
C795 N803 1.427 . S
C796 H787 0.930 . S
C796 C794 1.378 . S
C796 C797 1.367 . S
C797 C796 1.367 . S
C797 C799 1.433 . S
C798 C794 1.350 . S
C798 C795 1.463 . S
C798 N802 1.427 . S
C799 H789 0.929 . S
C799 C797 1.433 . S
C799 N802 1.384 . S
C800 H791 0.929 . S
C800 C792 1.378 . S
C800 C795 1.350 . S
C801 H788 0.929 . S
C801 C793 1.433 . S
C801 N803 1.384 . S
N802 C798 1.427 . S
N802 C799 1.384 . S
N803 C795 1.427 . S
N803 C801 1.384 . S
C383 C363 1.300 . S
C379 C45 1.538 . S
C397 C84 1.563 . S
C401 C293 1.316 . S
C415 C126 1.506 . S
C419 C313 1.546 . S
C433 C189 1.480 . S
C437 C327 1.476 . S
C455 C335 1.254 . S
C451 C228 1.510 . S
C469 C270 1.492 . S
C473 C349 1.283 . S
C487 C69 1.541 . S
C491 C307 1.318 . S
C505 C141 1.514 . S
C509 C321 1.276 . S
C523 C174 1.427 . S
C527 C341 1.470 . S
C545 C355 1.515 . S
C541 C213 1.491 . S
C563 C369 1.519 . S
C559 C285 1.517 . S
C581 C299 1.537 . S
C577 C30 1.497 . S
C595 C36 1.458 . S
C599 C306 1.428 . S
C613 C93 1.469 . S
C617 C320 1.439 . S
C635 C342 1.460 . S
C631 C117 1.458 . S
C649 C180 1.471 . S
C653 C356 1.471 . S
C671 C370 1.428 . S
C667 C237 1.436 . S
C689 C300 1.422 . S
C685 C261 1.419 . S
C707 C362 1.432 . S
C703 C78 1.444 . S
C721 C132 1.457 . S
C725 C292 1.432 . S
C743 C314 1.449 . S
C739 C165 1.445 . S
C757 C222 1.450 . S
C761 C328 1.457 . S
C775 C276 1.506 . S
C779 C334 1.484 . S
C793 C21 1.486 . S
C797 C348 1.460 . S
