# Generated by pormake.
# Topology eea, (3,6)-cn, num edge types: 1
# Building blocks:
#     Node 0, Type 0, BuildingBlock: MIDCAF_clean_linker_0, # of connection points: 3
#     Node 1, Type 0, BuildingBlock: MIDCAF_clean_linker_0, # of connection points: 3
#     Node 2, Type 0, BuildingBlock: MIDCAF_clean_linker_0, # of connection points: 3
#     Node 3, Type 0, BuildingBlock: MIDCAF_clean_linker_0, # of connection points: 3
#     Node 4, Type 0, BuildingBlock: MIDCAF_clean_linker_0, # of connection points: 3
#     Node 5, Type 0, BuildingBlock: MIDCAF_clean_linker_0, # of connection points: 3
#     Node 6, Type 0, BuildingBlock: MIDCAF_clean_linker_0, # of connection points: 3
#     Node 7, Type 0, BuildingBlock: MIDCAF_clean_linker_0, # of connection points: 3
#     Node 8, Type 0, BuildingBlock: MIDCAF_clean_linker_0, # of connection points: 3
#     Node 9, Type 0, BuildingBlock: MIDCAF_clean_linker_0, # of connection points: 3
#     Node 10, Type 0, BuildingBlock: MIDCAF_clean_linker_0, # of connection points: 3
#     Node 11, Type 0, BuildingBlock: MIDCAF_clean_linker_0, # of connection points: 3
#     Node 12, Type 0, BuildingBlock: MIDCAF_clean_linker_0, # of connection points: 3
#     Node 13, Type 0, BuildingBlock: MIDCAF_clean_linker_0, # of connection points: 3
#     Node 14, Type 0, BuildingBlock: MIDCAF_clean_linker_0, # of connection points: 3
#     Node 15, Type 0, BuildingBlock: MIDCAF_clean_linker_0, # of connection points: 3
#     Node 16, Type 0, BuildingBlock: MIDCAF_clean_linker_0, # of connection points: 3
#     Node 17, Type 0, BuildingBlock: MIDCAF_clean_linker_0, # of connection points: 3
#     Node 18, Type 1, BuildingBlock: KUMJIN_clean_sbu_0, # of connection points: 6
#     Node 19, Type 1, BuildingBlock: KUMJIN_clean_sbu_0, # of connection points: 6
#     Node 20, Type 1, BuildingBlock: KUMJIN_clean_sbu_0, # of connection points: 6
#     Node 21, Type 1, BuildingBlock: KUMJIN_clean_sbu_0, # of connection points: 6
#     Node 22, Type 1, BuildingBlock: KUMJIN_clean_sbu_0, # of connection points: 6
#     Node 23, Type 1, BuildingBlock: KUMJIN_clean_sbu_0, # of connection points: 6
#     Node 24, Type 1, BuildingBlock: KUMJIN_clean_sbu_0, # of connection points: 6
#     Node 25, Type 1, BuildingBlock: KUMJIN_clean_sbu_0, # of connection points: 6
#     Node 26, Type 1, BuildingBlock: KUMJIN_clean_sbu_0, # of connection points: 6
#     Edge 27, Type (0, 1), BuildingBlock: KIFKEQ_clean_linker_1, # of connection points: 2
#     Edge 28, Type (0, 1), BuildingBlock: KIFKEQ_clean_linker_1, # of connection points: 2
#     Edge 29, Type (0, 1), BuildingBlock: KIFKEQ_clean_linker_1, # of connection points: 2
#     Edge 30, Type (0, 1), BuildingBlock: KIFKEQ_clean_linker_1, # of connection points: 2
#     Edge 31, Type (0, 1), BuildingBlock: KIFKEQ_clean_linker_1, # of connection points: 2
#     Edge 32, Type (0, 1), BuildingBlock: KIFKEQ_clean_linker_1, # of connection points: 2
#     Edge 33, Type (0, 1), BuildingBlock: KIFKEQ_clean_linker_1, # of connection points: 2
#     Edge 34, Type (0, 1), BuildingBlock: KIFKEQ_clean_linker_1, # of connection points: 2
#     Edge 35, Type (0, 1), BuildingBlock: KIFKEQ_clean_linker_1, # of connection points: 2
#     Edge 36, Type (0, 1), BuildingBlock: KIFKEQ_clean_linker_1, # of connection points: 2
#     Edge 37, Type (0, 1), BuildingBlock: KIFKEQ_clean_linker_1, # of connection points: 2
#     Edge 38, Type (0, 1), BuildingBlock: KIFKEQ_clean_linker_1, # of connection points: 2
#     Edge 39, Type (0, 1), BuildingBlock: KIFKEQ_clean_linker_1, # of connection points: 2
#     Edge 40, Type (0, 1), BuildingBlock: KIFKEQ_clean_linker_1, # of connection points: 2
#     Edge 41, Type (0, 1), BuildingBlock: KIFKEQ_clean_linker_1, # of connection points: 2
#     Edge 42, Type (0, 1), BuildingBlock: KIFKEQ_clean_linker_1, # of connection points: 2
#     Edge 43, Type (0, 1), BuildingBlock: KIFKEQ_clean_linker_1, # of connection points: 2
#     Edge 44, Type (0, 1), BuildingBlock: KIFKEQ_clean_linker_1, # of connection points: 2
#     Edge 45, Type (0, 1), BuildingBlock: KIFKEQ_clean_linker_1, # of connection points: 2
#     Edge 46, Type (0, 1), BuildingBlock: KIFKEQ_clean_linker_1, # of connection points: 2
#     Edge 47, Type (0, 1), BuildingBlock: KIFKEQ_clean_linker_1, # of connection points: 2
#     Edge 48, Type (0, 1), BuildingBlock: KIFKEQ_clean_linker_1, # of connection points: 2
#     Edge 49, Type (0, 1), BuildingBlock: KIFKEQ_clean_linker_1, # of connection points: 2
#     Edge 50, Type (0, 1), BuildingBlock: KIFKEQ_clean_linker_1, # of connection points: 2
#     Edge 51, Type (0, 1), BuildingBlock: KIFKEQ_clean_linker_1, # of connection points: 2
#     Edge 52, Type (0, 1), BuildingBlock: KIFKEQ_clean_linker_1, # of connection points: 2
#     Edge 53, Type (0, 1), BuildingBlock: KIFKEQ_clean_linker_1, # of connection points: 2
#     Edge 54, Type (0, 1), BuildingBlock: KIFKEQ_clean_linker_1, # of connection points: 2
#     Edge 55, Type (0, 1), BuildingBlock: KIFKEQ_clean_linker_1, # of connection points: 2
#     Edge 56, Type (0, 1), BuildingBlock: KIFKEQ_clean_linker_1, # of connection points: 2
#     Edge 57, Type (0, 1), BuildingBlock: KIFKEQ_clean_linker_1, # of connection points: 2
#     Edge 58, Type (0, 1), BuildingBlock: KIFKEQ_clean_linker_1, # of connection points: 2
#     Edge 59, Type (0, 1), BuildingBlock: KIFKEQ_clean_linker_1, # of connection points: 2
#     Edge 60, Type (0, 1), BuildingBlock: KIFKEQ_clean_linker_1, # of connection points: 2
#     Edge 61, Type (0, 1), BuildingBlock: KIFKEQ_clean_linker_1, # of connection points: 2
#     Edge 62, Type (0, 1), BuildingBlock: KIFKEQ_clean_linker_1, # of connection points: 2
#     Edge 63, Type (0, 1), BuildingBlock: KIFKEQ_clean_linker_1, # of connection points: 2
#     Edge 64, Type (0, 1), BuildingBlock: KIFKEQ_clean_linker_1, # of connection points: 2
#     Edge 65, Type (0, 1), BuildingBlock: KIFKEQ_clean_linker_1, # of connection points: 2
#     Edge 66, Type (0, 1), BuildingBlock: KIFKEQ_clean_linker_1, # of connection points: 2
#     Edge 67, Type (0, 1), BuildingBlock: KIFKEQ_clean_linker_1, # of connection points: 2
#     Edge 68, Type (0, 1), BuildingBlock: KIFKEQ_clean_linker_1, # of connection points: 2
#     Edge 69, Type (0, 1), BuildingBlock: KIFKEQ_clean_linker_1, # of connection points: 2
#     Edge 70, Type (0, 1), BuildingBlock: KIFKEQ_clean_linker_1, # of connection points: 2
#     Edge 71, Type (0, 1), BuildingBlock: KIFKEQ_clean_linker_1, # of connection points: 2
#     Edge 72, Type (0, 1), BuildingBlock: KIFKEQ_clean_linker_1, # of connection points: 2
#     Edge 73, Type (0, 1), BuildingBlock: KIFKEQ_clean_linker_1, # of connection points: 2
#     Edge 74, Type (0, 1), BuildingBlock: KIFKEQ_clean_linker_1, # of connection points: 2
#     Edge 75, Type (0, 1), BuildingBlock: KIFKEQ_clean_linker_1, # of connection points: 2
#     Edge 76, Type (0, 1), BuildingBlock: KIFKEQ_clean_linker_1, # of connection points: 2
#     Edge 77, Type (0, 1), BuildingBlock: KIFKEQ_clean_linker_1, # of connection points: 2
#     Edge 78, Type (0, 1), BuildingBlock: KIFKEQ_clean_linker_1, # of connection points: 2
#     Edge 79, Type (0, 1), BuildingBlock: KIFKEQ_clean_linker_1, # of connection points: 2
#     Edge 80, Type (0, 1), BuildingBlock: KIFKEQ_clean_linker_1, # of connection points: 2
# Relax obj value: 0.009
# Max RMSD: 0.095
# Mean RMSD: 0.061
data_MOF--net-eea--node1-KUMJIN_clean_sbu_0--node2-MIDCAF_clean_linker_0--edge1-KIFKEQ_clean_linker_1
_symmetry_space_group_name_H-M    P1
_symmetry_Int_Tables_number       1
_symmetry_cell_setting            triclinic
loop_
_symmetry_equiv_pos_as_xyz
'x, y, z'
_cell_length_a     63.177275
_cell_length_b     64.438009
_cell_length_c     89.464907
_cell_angle_alpha  90.114589
_cell_angle_beta   90.12992
_cell_angle_gamma 119.97566
loop_
_atom_site_label
_atom_site_type_symbol
_atom_site_fract_x
_atom_site_fract_y
_atom_site_fract_z
_atom_type_partial_charge
C0 C 0.2287 0.03658 0.41518 0.0
C1 C 0.22633 0.03441 0.39952 0.0
C2 C 0.22978 0.05436 0.39118 0.0
C3 C 0.23517 0.07576 0.39831 0.0
H4 H 0.21407 0.12833 0.39692 0.0
H5 H 0.20373 0.15571 0.38451 0.0
H6 H 0.24686 0.21069 0.41688 0.0
H7 H 0.25738 0.18337 0.42936 0.0
H8 H 0.26464 0.16154 0.46197 0.0
H9 H 0.28456 0.1707 0.48647 0.0
H10 H 0.30172 0.11426 0.4804 0.0
H11 H 0.28195 0.10504 0.45599 0.0
H12 H 0.23613 0.05914 0.43435 0.0
H13 H 0.2257 0.02153 0.42204 0.0
H14 H 0.22862 0.05361 0.3791 0.0
H15 H 0.23773 0.09076 0.39155 0.0
N16 N 0.23793 0.11613 0.41475 0.0
N17 N 0.25386 0.14219 0.4353 0.0
N18 N 0.25423 0.10596 0.43514 0.0
C19 C 0.24299 0.13695 0.4216 0.0
C20 C 0.25958 0.12677 0.44213 0.0
C21 C 0.24344 0.10055 0.42145 0.0
C22 C 0.23661 0.15363 0.41415 0.0
C23 C 0.22141 0.14624 0.40142 0.0
C24 C 0.21534 0.16187 0.39434 0.0
C25 C 0.22449 0.1853 0.39973 0.0
C26 C 0.23972 0.19277 0.41241 0.0
C27 C 0.24562 0.17706 0.4196 0.0
C28 C 0.27167 0.13254 0.45699 0.0
C29 C 0.2727 0.15111 0.46583 0.0
C30 C 0.28399 0.15629 0.47989 0.0
C31 C 0.29473 0.14323 0.4853 0.0
C32 C 0.29382 0.12479 0.47644 0.0
C33 C 0.28233 0.11942 0.46249 0.0
C34 C 0.23769 0.07789 0.41392 0.0
C35 C 0.23454 0.05812 0.42228 0.0
C36 C 0.97389 0.19324 0.41118 0.0
C37 C 0.97657 0.18997 0.39588 0.0
C38 C 0.95796 0.16957 0.38865 0.0
C39 C 0.93717 0.15302 0.39647 0.0
H40 H 0.88267 0.07957 0.39701 0.0
H41 H 0.8535 0.04162 0.38545 0.0
H42 H 0.79799 0.03492 0.41643 0.0
H43 H 0.82748 0.07226 0.42838 0.0
H44 H 0.85823 0.09662 0.46277 0.0
H45 H 0.84925 0.10515 0.48765 0.0
H46 H 0.89489 0.18107 0.47953 0.0
H47 H 0.90485 0.17234 0.45485 0.0
H48 H 0.95168 0.18 0.43073 0.0
H49 H 0.98803 0.20847 0.41722 0.0
H50 H 0.95919 0.16658 0.37684 0.0
H51 H 0.92315 0.13766 0.39046 0.0
N52 N 0.89581 0.1179 0.41349 0.0
N53 N 0.87116 0.10726 0.43483 0.0
N54 N 0.90758 0.14426 0.43397 0.0
C55 C 0.87529 0.10191 0.42084 0.0
C56 C 0.88718 0.12835 0.4415 0.0
C57 C 0.91207 0.13912 0.41995 0.0
C58 C 0.85746 0.07894 0.41365 0.0
C59 C 0.86424 0.06998 0.40135 0.0
C60 C 0.84741 0.04824 0.39466 0.0
C61 C 0.82326 0.03507 0.39996 0.0
C62 C 0.81649 0.04422 0.41219 0.0
C63 C 0.83341 0.06577 0.41902 0.0
C64 C 0.88221 0.1338 0.45678 0.0
C65 C 0.86641 0.11515 0.4663 0.0
C66 C 0.86111 0.12008 0.48058 0.0
C67 C 0.8711 0.14385 0.48568 0.0
C68 C 0.88709 0.16252 0.47616 0.0
C69 C 0.89272 0.15754 0.46194 0.0
C70 C 0.93436 0.1565 0.41172 0.0
C71 C 0.95304 0.1768 0.41898 0.0
C72 C 0.81626 0.78278 0.41123 0.0
C73 C 0.81776 0.78788 0.39586 0.0
C74 C 0.83783 0.78981 0.38784 0.0
C75 C 0.85566 0.78636 0.39497 0.0
H76 H 0.92258 0.78852 0.38862 0.0
H77 H 0.95934 0.79455 0.37592 0.0
H78 H 0.98639 0.78253 0.41749 0.0
H79 H 0.94949 0.77585 0.43007 0.0
H80 H 0.91607 0.76103 0.45972 0.0
H81 H 0.90725 0.74535 0.48514 0.0
H82 H 0.83225 0.7283 0.47972 0.0
H83 H 0.84128 0.74474 0.45467 0.0
H84 H 0.83194 0.77526 0.43016 0.0
H85 H 0.80145 0.78169 0.41789 0.0
H86 H 0.83954 0.7935 0.37597 0.0
H87 H 0.87068 0.78772 0.38841 0.0
N88 N 0.8932 0.78083 0.411 0.0
N89 N 0.90556 0.76859 0.43245 0.0
N90 N 0.8682 0.76804 0.43223 0.0
C91 C 0.91001 0.77697 0.41816 0.0
C92 C 0.88464 0.76399 0.43957 0.0
C93 C 0.87227 0.77652 0.418 0.0
C94 C 0.93284 0.78152 0.41041 0.0
C95 C 0.93637 0.78719 0.39508 0.0
C96 C 0.95758 0.79079 0.38778 0.0
C97 C 0.97591 0.78891 0.3956 0.0
C98 C 0.97254 0.78366 0.41098 0.0
C99 C 0.95132 0.77995 0.41825 0.0
C100 C 0.87945 0.75429 0.45509 0.0
C101 C 0.89771 0.75399 0.46397 0.0
C102 C 0.89259 0.74484 0.47857 0.0
C103 C 0.869 0.73555 0.48464 0.0
C104 C 0.85076 0.73574 0.47566 0.0
C105 C 0.85593 0.74507 0.46117 0.0
C106 C 0.85384 0.78082 0.41031 0.0
C107 C 0.83394 0.77922 0.41832 0.0
C108 C 0.03216 0.21434 0.6037 0.0
C109 C 0.03037 0.21182 0.61933 0.0
C110 C 0.05058 0.21406 0.62736 0.0
C111 C 0.07196 0.21854 0.61994 0.0
H112 H 0.13896 0.22054 0.62647 0.0
H113 H 0.16894 0.21275 0.63876 0.0
H114 H 0.20072 0.21381 0.59593 0.0
H115 H 0.17103 0.22175 0.58364 0.0
H116 H 0.16553 0.2592 0.56008 0.0
H117 H 0.17484 0.27653 0.53518 0.0
H118 H 0.10007 0.25985 0.52971 0.0
H119 H 0.09058 0.24242 0.5548 0.0
H120 H 0.05439 0.22108 0.58424 0.0
H121 H 0.01702 0.21294 0.59719 0.0
H122 H 0.04975 0.21207 0.6394 0.0
H123 H 0.0871 0.22008 0.62651 0.0
N124 N 0.11355 0.22233 0.6035 0.0
N125 N 0.13841 0.2351 0.58222 0.0
N126 N 0.10102 0.2346 0.58214 0.0
C127 C 0.13438 0.22657 0.59643 0.0
C128 C 0.12195 0.23928 0.57498 0.0
C129 C 0.09669 0.22617 0.59643 0.0
C130 C 0.15252 0.2218 0.60404 0.0
C131 C 0.15231 0.21909 0.61966 0.0
C132 C 0.16956 0.21474 0.62673 0.0
C133 C 0.18716 0.21258 0.61832 0.0
C134 C 0.18726 0.21513 0.60271 0.0
C135 C 0.1703 0.21984 0.59568 0.0
C136 C 0.12727 0.24939 0.55956 0.0
C137 C 0.15096 0.2591 0.55362 0.0
C138 C 0.15638 0.26921 0.53934 0.0
C139 C 0.13825 0.2697 0.53046 0.0
C140 C 0.11443 0.25965 0.53624 0.0
C141 C 0.10904 0.24977 0.55065 0.0
C142 C 0.07386 0.22126 0.60429 0.0
C143 C 0.05367 0.21917 0.59628 0.0
C144 C 0.76936 0.8088 0.5999 0.0
C145 C 0.78563 0.8168 0.61212 0.0
C146 C 0.79528 0.84057 0.61706 0.0
C147 C 0.7886 0.85585 0.61009 0.0
H148 H 0.79408 0.92153 0.61485 0.0
H149 H 0.80391 0.9592 0.627 0.0
H150 H 0.75479 0.9671 0.59699 0.0
H151 H 0.74477 0.92936 0.58482 0.0
H152 H 0.72072 0.89277 0.55812 0.0
H153 H 0.70053 0.88342 0.53383 0.0
H154 H 0.7196 0.82845 0.52695 0.0
H155 H 0.73996 0.83778 0.55128 0.0
H156 H 0.75006 0.81727 0.58358 0.0
H157 H 0.76126 0.7905 0.59592 0.0
H158 H 0.80819 0.8475 0.62625 0.0
H159 H 0.79639 0.87402 0.61425 0.0
N160 N 0.76996 0.88484 0.59757 0.0
N161 N 0.75033 0.8932 0.57822 0.0
N162 N 0.75234 0.85782 0.57761 0.0
C163 C 0.76279 0.89956 0.59137 0.0
C164 C 0.74511 0.87242 0.57123 0.0
C165 C 0.76473 0.8639 0.59082 0.0
C166 C 0.76864 0.92238 0.59884 0.0
C167 C 0.7853 0.93122 0.61084 0.0
C168 C 0.79106 0.95288 0.61775 0.0
C169 C 0.78014 0.96608 0.61292 0.0
C170 C 0.76333 0.95719 0.60103 0.0
C171 C 0.75772 0.93563 0.59401 0.0
C172 C 0.73205 0.86607 0.55667 0.0
C173 C 0.7206 0.87863 0.55148 0.0
C174 C 0.70887 0.87319 0.53759 0.0
C175 C 0.70849 0.85521 0.5285 0.0
C176 C 0.71978 0.84253 0.53368 0.0
C177 C 0.73132 0.8478 0.54766 0.0
C178 C 0.77224 0.84781 0.59793 0.0
C179 C 0.76282 0.82414 0.59285 0.0
C180 C 0.19074 0.95461 0.60222 0.0
C181 C 0.18361 0.96388 0.61417 0.0
C182 C 0.15946 0.95085 0.61938 0.0
C183 C 0.14277 0.92898 0.61277 0.0
H184 H 0.08511 0.85968 0.62358 0.0
H185 H 0.04835 0.83173 0.63708 0.0
H186 H 0.01486 0.79539 0.59574 0.0
H187 H 0.05179 0.82328 0.58211 0.0
H188 H 0.08883 0.8371 0.55225 0.0
H189 H 0.09896 0.82833 0.52746 0.0
H190 H 0.17445 0.88233 0.53433 0.0
H191 H 0.16454 0.89115 0.5589 0.0
H192 H 0.18004 0.92637 0.58619 0.0
H193 H 0.2092 0.96436 0.59792 0.0
H194 H 0.15352 0.95749 0.62866 0.0
H195 H 0.12429 0.91943 0.61704 0.0
N196 N 0.11072 0.88154 0.60031 0.0
N197 N 0.09885 0.85535 0.57971 0.0
N198 N 0.1365 0.89126 0.57959 0.0
C199 C 0.09412 0.86067 0.59363 0.0
C200 C 0.12011 0.87059 0.57265 0.0
C201 C 0.1319 0.89696 0.59336 0.0
C202 C 0.07146 0.84376 0.60172 0.0
C203 C 0.06993 0.8458 0.6173 0.0
C204 C 0.04891 0.82971 0.62509 0.0
C205 C 0.02874 0.81139 0.61748 0.0
C206 C 0.03007 0.80946 0.60188 0.0
C207 C 0.05128 0.82536 0.5941 0.0
C208 C 0.12585 0.86483 0.55762 0.0
C209 C 0.10759 0.84706 0.54848 0.0
C210 C 0.11334 0.84212 0.53425 0.0
C211 C 0.13752 0.85457 0.52898 0.0
C212 C 0.15571 0.87223 0.53814 0.0
C213 C 0.14995 0.87737 0.55222 0.0
C214 C 0.14978 0.91983 0.60065 0.0
C215 C 0.17397 0.93291 0.59546 0.0
C216 C 0.90953 0.37819 0.74567 0.0
C217 C 0.8927 0.3692 0.73377 0.0
C218 C 0.8817 0.38238 0.72898 0.0
C219 C 0.88734 0.40398 0.73594 0.0
H220 H 0.87579 0.46092 0.73285 0.0
H221 H 0.86405 0.48744 0.72081 0.0
H222 H 0.91094 0.54446 0.75114 0.0
H223 H 0.92209 0.51766 0.76353 0.0
H224 H 0.93098 0.49599 0.7963 0.0
H225 H 0.94994 0.504 0.82098 0.0
H226 H 0.97104 0.45062 0.81311 0.0
H227 H 0.95147 0.44208 0.78873 0.0
H228 H 0.92808 0.40605 0.76185 0.0
H229 H 0.91867 0.36874 0.74949 0.0
H230 H 0.86837 0.37583 0.72 0.0
H231 H 0.87836 0.41353 0.73202 0.0
N232 N 0.90245 0.45025 0.74937 0.0
N233 N 0.91961 0.47693 0.76955 0.0
N234 N 0.92182 0.44167 0.76875 0.0
C235 C 0.90746 0.47104 0.75625 0.0
C236 C 0.92682 0.46227 0.77588 0.0
C237 C 0.90961 0.4355 0.75552 0.0
C238 C 0.89994 0.48714 0.74916 0.0
C239 C 0.88359 0.4791 0.737 0.0
C240 C 0.87694 0.49437 0.73001 0.0
C241 C 0.88661 0.51816 0.73493 0.0
C242 C 0.90284 0.52616 0.74718 0.0
C243 C 0.90934 0.5108 0.75425 0.0
C244 C 0.93952 0.46826 0.79055 0.0
C245 C 0.93974 0.48603 0.79981 0.0
C246 C 0.95072 0.4907 0.81396 0.0
C247 C 0.96188 0.47784 0.81912 0.0
C248 C 0.96214 0.4605 0.80967 0.0
C249 C 0.95102 0.4557 0.79562 0.0
C250 C 0.90398 0.41283 0.74795 0.0
C251 C 0.91503 0.39969 0.75272 0.0
C252 C 0.64132 0.52479 0.74323 0.0
C253 C 0.64227 0.52365 0.72756 0.0
C254 C 0.62166 0.50613 0.71983 0.0
C255 C 0.60064 0.48995 0.7276 0.0
H256 H 0.53389 0.42684 0.7218 0.0
H257 H 0.50377 0.38977 0.70971 0.0
H258 H 0.47543 0.35871 0.75301 0.0
H259 H 0.50473 0.39603 0.76498 0.0
H260 H 0.50993 0.43829 0.78851 0.0
H261 H 0.50107 0.44559 0.81363 0.0
H262 H 0.57568 0.50301 0.8188 0.0
H263 H 0.58441 0.49619 0.79322 0.0
H264 H 0.62004 0.5102 0.76306 0.0
H265 H 0.65686 0.53826 0.74947 0.0
H266 H 0.6219 0.50472 0.70778 0.0
H267 H 0.58515 0.47662 0.72126 0.0
N268 N 0.5603 0.45327 0.74451 0.0
N269 N 0.53633 0.44155 0.76612 0.0
N270 N 0.57345 0.47794 0.76586 0.0
C271 C 0.53988 0.43702 0.75181 0.0
C272 C 0.55287 0.46195 0.77324 0.0
C273 C 0.57724 0.47372 0.75145 0.0
C274 C 0.52171 0.41446 0.74436 0.0
C275 C 0.52118 0.4121 0.72873 0.0
C276 C 0.50395 0.39075 0.72179 0.0
C277 C 0.48704 0.37111 0.73034 0.0
C278 C 0.48774 0.37352 0.74599 0.0
C279 C 0.50471 0.39494 0.7529 0.0
C280 C 0.54795 0.46659 0.78878 0.0
C281 C 0.52457 0.45246 0.79496 0.0
C282 C 0.51949 0.45655 0.80949 0.0
C283 C 0.53768 0.47474 0.8184 0.0
C284 C 0.56112 0.48897 0.81225 0.0
C285 C 0.56618 0.48499 0.79758 0.0
C286 C 0.59959 0.4911 0.74328 0.0
C287 C 0.62016 0.50881 0.751 0.0
C288 C 0.48543 0.12355 0.74566 0.0
C289 C 0.48519 0.12537 0.73 0.0
C290 C 0.50278 0.12308 0.72168 0.0
C291 C 0.52023 0.11915 0.72884 0.0
H292 H 0.58782 0.12336 0.72216 0.0
H293 H 0.62445 0.12947 0.70922 0.0
H294 H 0.65095 0.1151 0.75024 0.0
H295 H 0.6142 0.10834 0.76302 0.0
H296 H 0.57094 0.07526 0.7875 0.0
H297 H 0.56219 0.05784 0.81248 0.0
H298 H 0.51107 0.08281 0.81949 0.0
H299 H 0.51955 0.10008 0.79438 0.0
H300 H 0.50211 0.1178 0.76487 0.0
H301 H 0.472 0.12501 0.75239 0.0
H302 H 0.50319 0.12455 0.70961 0.0
H303 H 0.53347 0.11747 0.72205 0.0
N304 N 0.55879 0.11562 0.7448 0.0
N305 N 0.57097 0.10256 0.76589 0.0
N306 N 0.53458 0.10396 0.76643 0.0
C307 C 0.57529 0.11102 0.75163 0.0
C308 C 0.55069 0.09895 0.77338 0.0
C309 C 0.53841 0.11219 0.75212 0.0
C310 C 0.59783 0.11518 0.74367 0.0
C311 C 0.60144 0.12148 0.72843 0.0
C312 C 0.62258 0.12515 0.72101 0.0
C313 C 0.64075 0.12268 0.72861 0.0
C314 C 0.63723 0.1167 0.74388 0.0
C315 C 0.6161 0.11293 0.75127 0.0
C316 C 0.54592 0.08906 0.78885 0.0
C317 C 0.55789 0.07716 0.79434 0.0
C318 C 0.5528 0.06705 0.80865 0.0
C319 C 0.5359 0.06889 0.81796 0.0
C320 C 0.52428 0.0812 0.81262 0.0
C321 C 0.52906 0.09098 0.79819 0.0
C322 C 0.52029 0.11703 0.7445 0.0
C323 C 0.50264 0.11927 0.7528 0.0
C324 C 0.70038 0.54966 0.9352 0.0
C325 C 0.69698 0.54445 0.95059 0.0
C326 C 0.71537 0.54271 0.95844 0.0
C327 C 0.73663 0.5464 0.95118 0.0
H328 H 0.80167 0.54546 0.95807 0.0
H329 H 0.83257 0.53969 0.97081 0.0
H330 H 0.87215 0.55281 0.92936 0.0
H331 H 0.84185 0.55922 0.91678 0.0
H332 H 0.83261 0.5898 0.89219 0.0
H333 H 0.84224 0.60724 0.86731 0.0
H334 H 0.76768 0.59112 0.86162 0.0
H335 H 0.75788 0.57358 0.88666 0.0
H336 H 0.72353 0.55754 0.91614 0.0
H337 H 0.68649 0.55069 0.92866 0.0
H338 H 0.71362 0.53901 0.97032 0.0
H339 H 0.75045 0.54518 0.95768 0.0
N340 N 0.77983 0.5528 0.9354 0.0
N341 N 0.80524 0.566 0.91436 0.0
N342 N 0.7678 0.56533 0.91394 0.0
C343 C 0.80091 0.55729 0.92853 0.0
C344 C 0.78888 0.57011 0.90695 0.0
C345 C 0.76311 0.55671 0.92818 0.0
C346 C 0.81925 0.553 0.93638 0.0
C347 C 0.81696 0.54711 0.95166 0.0
C348 C 0.83465 0.54366 0.95898 0.0
C349 C 0.85506 0.54594 0.95119 0.0
C350 C 0.85704 0.55142 0.93585 0.0
C351 C 0.83949 0.55497 0.92858 0.0
C352 C 0.79443 0.58028 0.89154 0.0
C353 C 0.81816 0.58985 0.88568 0.0
C354 C 0.82376 0.60001 0.87141 0.0
C355 C 0.80578 0.60069 0.86248 0.0
C356 C 0.78193 0.59076 0.86818 0.0
C357 C 0.77636 0.58083 0.88258 0.0
C358 C 0.74018 0.55203 0.93585 0.0
C359 C 0.72166 0.55348 0.92796 0.0
C360 C 0.43218 0.13982 0.93362 0.0
C361 C 0.44816 0.14724 0.94597 0.0
C362 C 0.45846 0.17104 0.95098 0.0
C363 C 0.45287 0.18699 0.94388 0.0
H364 H 0.46396 0.25507 0.94745 0.0
H365 H 0.47425 0.29266 0.95994 0.0
H366 H 0.42752 0.30306 0.92928 0.0
H367 H 0.41714 0.26551 0.91673 0.0
H368 H 0.41621 0.23863 0.88277 0.0
H369 H 0.3966 0.22982 0.85841 0.0
H370 H 0.36469 0.15395 0.86686 0.0
H371 H 0.38545 0.16293 0.891 0.0
H372 H 0.41428 0.14947 0.91698 0.0
H373 H 0.42363 0.12152 0.92959 0.0
H374 H 0.47117 0.17752 0.96029 0.0
H375 H 0.46128 0.20521 0.94804 0.0
N376 N 0.43791 0.21819 0.93044 0.0
N377 N 0.42134 0.22849 0.91028 0.0
N378 N 0.41946 0.19119 0.91056 0.0
C379 C 0.43291 0.23413 0.92372 0.0
C380 C 0.4146 0.20711 0.90361 0.0
C381 C 0.43124 0.19669 0.92397 0.0
C382 C 0.43968 0.25723 0.93109 0.0
C383 C 0.45587 0.26535 0.94334 0.0
C384 C 0.46189 0.28694 0.95046 0.0
C385 C 0.45163 0.3007 0.94559 0.0
C386 C 0.43551 0.29266 0.93334 0.0
C387 C 0.4297 0.27123 0.92611 0.0
C388 C 0.40236 0.20148 0.88883 0.0
C389 C 0.40499 0.22005 0.87944 0.0
C390 C 0.39357 0.21496 0.86547 0.0
C391 C 0.37882 0.19113 0.86062 0.0
C392 C 0.37617 0.17253 0.87007 0.0
C393 C 0.38797 0.17766 0.88397 0.0
C394 C 0.43697 0.1796 0.93149 0.0
C395 C 0.42672 0.15583 0.92642 0.0
C396 C 0.85447 0.29205 0.93398 0.0
C397 C 0.84787 0.30104 0.94633 0.0
C398 C 0.82393 0.28792 0.95187 0.0
C399 C 0.80698 0.26615 0.94526 0.0
H400 H 0.74777 0.1988 0.95632 0.0
H401 H 0.71205 0.1697 0.97014 0.0
H402 H 0.68344 0.12697 0.93005 0.0
H403 H 0.71944 0.15561 0.91635 0.0
H404 H 0.76517 0.16322 0.8921 0.0
H405 H 0.77451 0.15397 0.86726 0.0
H406 H 0.82172 0.2294 0.85892 0.0
H407 H 0.81274 0.23874 0.88375 0.0
H408 H 0.84313 0.2641 0.91769 0.0
H409 H 0.87275 0.30189 0.92942 0.0
H410 H 0.8184 0.29437 0.96145 0.0
H411 H 0.78871 0.25644 0.94984 0.0
N412 N 0.77513 0.21825 0.93319 0.0
N413 N 0.76316 0.19164 0.91284 0.0
N414 N 0.79954 0.22865 0.91174 0.0
C415 C 0.75881 0.19693 0.92685 0.0
C416 C 0.78345 0.20747 0.9052 0.0
C417 C 0.79556 0.23417 0.92573 0.0
C418 C 0.73665 0.17954 0.9352 0.0
C419 C 0.73386 0.18321 0.95042 0.0
C420 C 0.71326 0.16656 0.95836 0.0
C421 C 0.69483 0.14586 0.95127 0.0
C422 C 0.69745 0.14243 0.93598 0.0
C423 C 0.71811 0.15898 0.92808 0.0
C424 C 0.78826 0.20172 0.88994 0.0
C425 C 0.77745 0.17784 0.88495 0.0
C426 C 0.78287 0.17252 0.87076 0.0
C427 C 0.79883 0.19097 0.86118 0.0
C428 C 0.80923 0.21484 0.86604 0.0
C429 C 0.80418 0.22014 0.8803 0.0
C430 C 0.8135 0.25721 0.93281 0.0
C431 C 0.83743 0.27048 0.92722 0.0
C432 C 0.56936 0.70754 0.08013 0.0
C433 C 0.55311 0.69938 0.06791 0.0
C434 C 0.54314 0.71341 0.06297 0.0
C435 C 0.54944 0.73514 0.06999 0.0
H436 H 0.54485 0.79574 0.06499 0.0
H437 H 0.53495 0.8235 0.05283 0.0
H438 H 0.58192 0.87912 0.08391 0.0
H439 H 0.5913 0.85111 0.09641 0.0
H440 H 0.62041 0.83771 0.12215 0.0
H441 H 0.64115 0.8467 0.14629 0.0
H442 H 0.60904 0.77083 0.15482 0.0
H443 H 0.58946 0.76201 0.13046 0.0
H444 H 0.58819 0.73494 0.09653 0.0
H445 H 0.57774 0.69744 0.08408 0.0
H446 H 0.53026 0.70751 0.05376 0.0
H447 H 0.54141 0.74547 0.06588 0.0
N448 N 0.56775 0.78245 0.08277 0.0
N449 N 0.58636 0.80949 0.10262 0.0
N450 N 0.58426 0.7721 0.10294 0.0
C451 C 0.57454 0.804 0.08922 0.0
C452 C 0.59114 0.79353 0.10958 0.0
C453 C 0.57265 0.76646 0.08951 0.0
C454 C 0.56887 0.82115 0.08171 0.0
C455 C 0.55313 0.81389 0.06925 0.0
C456 C 0.54754 0.82988 0.0622 0.0
C457 C 0.55766 0.85359 0.06736 0.0
C458 C 0.5735 0.86089 0.07977 0.0
C459 C 0.57898 0.84485 0.0869 0.0
C460 C 0.6034 0.79916 0.12435 0.0
C461 C 0.61785 0.82299 0.1292 0.0
C462 C 0.62963 0.82812 0.1431 0.0
C463 C 0.62691 0.80952 0.15258 0.0
C464 C 0.61212 0.78569 0.14774 0.0
C465 C 0.60071 0.78059 0.13377 0.0
C466 C 0.56568 0.74326 0.0822 0.0
C467 C 0.57547 0.72915 0.08724 0.0
C468 C 0.30945 0.85627 0.0781 0.0
C469 C 0.31096 0.85385 0.06257 0.0
C470 C 0.291 0.8351 0.05507 0.0
C471 C 0.26996 0.81916 0.06289 0.0
H472 H 0.21598 0.74224 0.0669 0.0
H473 H 0.18614 0.70407 0.05544 0.0
H474 H 0.12783 0.70721 0.07838 0.0
H475 H 0.15762 0.74504 0.0902 0.0
H476 H 0.1744 0.77656 0.12066 0.0
H477 H 0.16456 0.78554 0.1452 0.0
H478 H 0.24041 0.83824 0.15244 0.0
H479 H 0.25046 0.82928 0.12768 0.0
H480 H 0.28754 0.84302 0.09785 0.0
H481 H 0.32451 0.87067 0.08416 0.0
H482 H 0.29171 0.83269 0.04313 0.0
H483 H 0.25492 0.805 0.05669 0.0
N484 N 0.22865 0.78429 0.07987 0.0
N485 N 0.20243 0.77548 0.10029 0.0
N486 N 0.24053 0.8109 0.10024 0.0
C487 C 0.20718 0.76936 0.08671 0.0
C488 C 0.219 0.7961 0.10721 0.0
C489 C 0.24537 0.80516 0.08647 0.0
C490 C 0.18914 0.74661 0.07947 0.0
C491 C 0.1968 0.73481 0.06948 0.0
C492 C 0.17979 0.71296 0.06298 0.0
C493 C 0.15478 0.70283 0.06606 0.0
C494 C 0.14704 0.71477 0.07582 0.0
C495 C 0.16408 0.73632 0.08261 0.0
C496 C 0.21326 0.80219 0.12214 0.0
C497 C 0.18907 0.7901 0.12742 0.0
C498 C 0.18336 0.79534 0.14148 0.0
C499 C 0.20168 0.81265 0.15075 0.0
C500 C 0.22592 0.82472 0.14557 0.0
C501 C 0.23163 0.81968 0.13136 0.0
C502 C 0.2682 0.82175 0.0784 0.0
C503 C 0.28822 0.84051 0.08592 0.0
C504 C 0.15448 0.45867 0.07939 0.0
C505 C 0.15403 0.46031 0.06373 0.0
C506 C 0.1714 0.45774 0.05534 0.0
C507 C 0.18881 0.45368 0.06245 0.0
H508 H 0.25544 0.45586 0.05543 0.0
H509 H 0.29174 0.46134 0.04238 0.0
H510 H 0.31917 0.44874 0.08362 0.0
H511 H 0.28271 0.44256 0.09652 0.0
H512 H 0.23943 0.41004 0.12149 0.0
H513 H 0.23083 0.39334 0.14653 0.0
H514 H 0.18123 0.4204 0.15334 0.0
H515 H 0.18899 0.43604 0.12798 0.0
H516 H 0.17127 0.45294 0.09855 0.0
H517 H 0.14122 0.46033 0.08617 0.0
H518 H 0.17166 0.45907 0.04327 0.0
H519 H 0.20187 0.45176 0.05562 0.0
N520 N 0.22721 0.44963 0.07828 0.0
N521 N 0.23949 0.43683 0.09946 0.0
N522 N 0.20343 0.43884 0.10008 0.0
C523 C 0.24363 0.44491 0.08511 0.0
C524 C 0.21945 0.43372 0.10704 0.0
C525 C 0.20708 0.4467 0.08569 0.0
C526 C 0.26593 0.4486 0.07706 0.0
C527 C 0.26919 0.45422 0.06173 0.0
C528 C 0.29015 0.45753 0.05423 0.0
C529 C 0.30849 0.4554 0.06187 0.0
C530 C 0.30531 0.45006 0.07724 0.0
C531 C 0.28435 0.44663 0.0847 0.0
C532 C 0.21487 0.42436 0.12263 0.0
C533 C 0.22672 0.41249 0.12833 0.0
C534 C 0.22187 0.40301 0.14282 0.0
C535 C 0.20528 0.40542 0.15217 0.0
C536 C 0.19373 0.41767 0.1465 0.0
C537 C 0.19831 0.42683 0.13192 0.0
C538 C 0.18906 0.45171 0.07811 0.0
C539 C 0.17165 0.45427 0.08648 0.0
C540 C 0.3652 0.87759 0.26962 0.0
C541 C 0.3638 0.87551 0.28528 0.0
C542 C 0.38422 0.87803 0.2932 0.0
C543 C 0.40543 0.88229 0.28561 0.0
H544 H 0.46922 0.87824 0.29067 0.0
H545 H 0.50051 0.87253 0.30285 0.0
H546 H 0.53734 0.8831 0.26055 0.0
H547 H 0.50658 0.88947 0.24849 0.0
H548 H 0.48379 0.89936 0.21868 0.0
H549 H 0.49227 0.91667 0.1936 0.0
H550 H 0.44246 0.94311 0.20103 0.0
H551 H 0.43363 0.92555 0.22603 0.0
H552 H 0.38688 0.88376 0.25 0.0
H553 H 0.34988 0.87598 0.26321 0.0
H554 H 0.38368 0.87641 0.30526 0.0
H555 H 0.42075 0.88401 0.29207 0.0
N556 N 0.44635 0.88507 0.26858 0.0
N557 N 0.47013 0.89692 0.2468 0.0
N558 N 0.43327 0.89741 0.24752 0.0
C559 C 0.46674 0.88883 0.26113 0.0
C560 C 0.45359 0.90138 0.23992 0.0
C561 C 0.42942 0.88915 0.26183 0.0
C562 C 0.48534 0.88449 0.26857 0.0
C563 C 0.48397 0.87932 0.28395 0.0
C564 C 0.50189 0.8759 0.29094 0.0
C565 C 0.52165 0.87747 0.28275 0.0
C566 C 0.52275 0.88224 0.26733 0.0
C567 C 0.50493 0.88577 0.26037 0.0
C568 C 0.45805 0.91108 0.22443 0.0
C569 C 0.47452 0.90875 0.21496 0.0
C570 C 0.4793 0.91855 0.20055 0.0
C571 C 0.46807 0.9313 0.19535 0.0
C572 C 0.4515 0.93351 0.20475 0.0
C573 C 0.44637 0.92334 0.21906 0.0
C574 C 0.40689 0.88454 0.26994 0.0
C575 C 0.38651 0.88222 0.26206 0.0
C576 C 0.08808 0.46692 0.27229 0.0
C577 C 0.10308 0.47463 0.28507 0.0
C578 C 0.11148 0.49788 0.29054 0.0
C579 C 0.10538 0.5133 0.28325 0.0
H580 H 0.11977 0.58189 0.28442 0.0
H581 H 0.13245 0.62069 0.29571 0.0
H582 H 0.08723 0.63206 0.26423 0.0
H583 H 0.07525 0.59357 0.25256 0.0
H584 H 0.07524 0.56483 0.21908 0.0
H585 H 0.05755 0.55566 0.19401 0.0
H586 H 0.02369 0.48003 0.20329 0.0
H587 H 0.04167 0.48909 0.2284 0.0
H588 H 0.07085 0.47609 0.25493 0.0
H589 H 0.08147 0.4491 0.26779 0.0
H590 H 0.12282 0.50418 0.30048 0.0
H591 H 0.11242 0.53119 0.28775 0.0
N592 N 0.09263 0.54473 0.26815 0.0
N593 N 0.07795 0.55515 0.24709 0.0
N594 N 0.07467 0.51726 0.24846 0.0
C595 C 0.08876 0.5609 0.26077 0.0
C596 C 0.07087 0.53338 0.24086 0.0
C597 C 0.08564 0.52288 0.26213 0.0
C598 C 0.09647 0.58459 0.26758 0.0
C599 C 0.11253 0.59265 0.27988 0.0
C600 C 0.1197 0.61489 0.28642 0.0
C601 C 0.11081 0.62952 0.28093 0.0
C602 C 0.09475 0.62145 0.26861 0.0
C603 C 0.08777 0.5993 0.26196 0.0
C604 C 0.05983 0.52768 0.22574 0.0
C605 C 0.064 0.54623 0.21581 0.0
C606 C 0.05403 0.54101 0.20143 0.0
C607 C 0.03933 0.51716 0.19675 0.0
C608 C 0.03491 0.49857 0.20668 0.0
C609 C 0.04527 0.50378 0.221 0.0
C610 C 0.09088 0.50589 0.27022 0.0
C611 C 0.08211 0.48243 0.26489 0.0
C612 C 0.52404 0.62183 0.26923 0.0
C613 C 0.51738 0.63139 0.28129 0.0
C614 C 0.49311 0.61871 0.28645 0.0
C615 C 0.47603 0.59711 0.27972 0.0
H616 H 0.4174 0.52849 0.29024 0.0
H617 H 0.38077 0.50061 0.30383 0.0
H618 H 0.34705 0.46399 0.2626 0.0
H619 H 0.38385 0.49187 0.24886 0.0
H620 H 0.42038 0.50613 0.21872 0.0
H621 H 0.42971 0.49891 0.19337 0.0
H622 H 0.50542 0.55278 0.20008 0.0
H623 H 0.49604 0.56048 0.22498 0.0
H624 H 0.5127 0.59364 0.25311 0.0
H625 H 0.54262 0.63076 0.26511 0.0
H626 H 0.48712 0.62565 0.29552 0.0
H627 H 0.45749 0.58797 0.28392 0.0
N628 N 0.44321 0.5499 0.26709 0.0
N629 N 0.43073 0.52418 0.24623 0.0
N630 N 0.46868 0.55976 0.24622 0.0
C631 C 0.4263 0.5293 0.26029 0.0
C632 C 0.452 0.53937 0.23915 0.0
C633 C 0.46441 0.56524 0.26012 0.0
C634 C 0.40365 0.51245 0.26841 0.0
C635 C 0.4022 0.51458 0.284 0.0
C636 C 0.38124 0.49852 0.29184 0.0
C637 C 0.36106 0.48011 0.28429 0.0
C638 C 0.36228 0.47813 0.26869 0.0
C639 C 0.38342 0.49401 0.26085 0.0
C640 C 0.45738 0.53402 0.2239 0.0
C641 C 0.439 0.51641 0.21476 0.0
C642 C 0.44438 0.51221 0.20023 0.0
C643 C 0.4683 0.52543 0.19455 0.0
C644 C 0.48667 0.54267 0.20385 0.0
C645 C 0.48129 0.54698 0.21825 0.0
C646 C 0.48266 0.58779 0.26754 0.0
C647 C 0.50688 0.60041 0.26238 0.0
Eu648 Eu 0.49254 0.98282 0.98936 0.0
C649 C 0.54223 0.07532 0.02937 0.0
C650 C 0.58539 0.08834 0.02859 0.0
C651 C 0.57224 0.11767 0.0317 0.0
C652 C 0.56073 0.06997 0.02788 0.0
C653 C 0.54774 0.09917 0.03166 0.0
C654 C 0.59104 0.11227 0.03015 0.0
C655 C 0.50456 0.0844 0.03494 0.0
N656 N 0.5188 0.05701 0.02939 0.0
C657 C 0.50004 0.06105 0.03264 0.0
C658 C 0.5285 0.10359 0.03425 0.0
Eu659 Eu 0.51243 0.01813 0.02476 0.0
N660 N 0.55462 0.04666 0.02657 0.0
C661 C 0.57224 0.0403 0.02713 0.0
C662 C 0.6036 0.08203 0.02819 0.0
C663 C 0.59697 0.05787 0.0277 0.0
H664 H 0.48149 0.04629 0.0331 0.0
H665 H 0.61089 0.05276 0.0277 0.0
H666 H 0.60988 0.12665 0.03058 0.0
H667 H 0.4896 0.08759 0.0372 0.0
H668 H 0.56737 0.02171 0.02668 0.0
H669 H 0.39402 0.94822 0.9872 0.0
H670 H 0.62277 0.0956 0.02865 0.0
H671 H 0.52328 0.95467 0.98044 0.0
H672 H 0.43754 0.97924 0.98801 0.0
H673 H 0.51508 0.91341 0.97609 0.0
H674 H 0.57686 0.13614 0.0333 0.0
H675 H 0.38211 0.90539 0.98597 0.0
H676 H 0.39494 0.87434 0.98361 0.0
H677 H 0.53197 0.12166 0.03607 0.0
H678 H 0.4279 0.86486 0.98045 0.0
N679 N 0.4503 0.9543 0.98772 0.0
C680 C 0.43268 0.96066 0.98744 0.0
C681 C 0.40128 0.91895 0.98635 0.0
C682 C 0.41947 0.91263 0.98567 0.0
C683 C 0.40793 0.9431 0.98699 0.0
C684 C 0.44415 0.93099 0.98627 0.0
H685 H 0.47273 0.87934 0.97736 0.0
N686 N 0.48603 0.94395 0.98442 0.0
C687 C 0.50016 0.91659 0.97852 0.0
C688 C 0.46261 0.92565 0.98453 0.0
C689 C 0.50473 0.93992 0.98096 0.0
C690 C 0.47623 0.8974 0.97929 0.0
C691 C 0.45705 0.90181 0.9821 0.0
O692 O 0.51249 0.99108 0.96826 0.0
O693 O 0.52181 0.01481 1.00121 0.0
O694 O 0.50725 0.04066 0.00737 0.0
O695 O 0.48018 0.01055 0.99117 0.0
O696 O 0.53315 0.99627 0.98766 0.0
O697 O 0.47849 0.9913 0.96926 0.0
O698 O 0.49261 0.01046 0.04587 0.0
O699 O 0.48337 0.9861 0.01295 0.0
O700 O 0.49814 0.96032 0.00658 0.0
O701 O 0.52463 0.99023 0.02316 0.0
O702 O 0.47167 0.00421 0.02654 0.0
O703 O 0.52644 0.00984 0.04497 0.0
C704 C 0.54043 0.01469 0.99626 0.0
C705 C 0.4896 0.98205 0.94594 0.0
C706 C 0.49229 0.98503 0.91864 0.0
C707 C 0.49718 0.99606 0.93285 0.0
C708 C 0.4794 0.95987 0.91776 0.0
C709 C 0.47658 0.95701 0.94475 0.0
C710 C 0.47149 0.94602 0.93072 0.0
C711 C 0.49109 0.03287 0.99631 0.0
C712 C 0.49628 0.99367 0.96075 0.0
C713 C 0.43255 0.88331 0.98216 0.0
C714 C 0.41378 0.88872 0.98396 0.0
C715 C 0.46458 0.98576 0.01799 0.0
C716 C 0.51564 0.01984 0.06815 0.0
C717 C 0.50957 0.00613 0.08135 0.0
C718 C 0.51502 0.01736 0.09556 0.0
C719 C 0.52659 0.04258 0.09614 0.0
C720 C 0.52749 0.04486 0.06912 0.0
C721 C 0.53289 0.05612 0.08305 0.0
C722 C 0.51408 0.96804 0.01777 0.0
C723 C 0.50876 0.00786 0.05345 0.0
H724 H 0.50739 0.01543 0.93373 0.0
H725 H 0.47527 0.95091 0.907 0.0
H726 H 0.47056 0.94597 0.95466 0.0
H727 H 0.4615 0.92667 0.92989 0.0
H728 H 0.50073 0.98681 0.08049 0.0
H729 H 0.5305 0.05198 0.10672 0.0
H730 H 0.53232 0.05567 0.05913 0.0
H731 H 0.54178 0.07546 0.08371 0.0
Eu732 Eu 0.0233 0.50782 0.99123 0.0
C733 C 0.92371 0.46748 0.0246 0.0
C734 C 0.91246 0.49813 0.02195 0.0
C735 C 0.88084 0.45631 0.02394 0.0
C736 C 0.93045 0.49132 0.02287 0.0
C737 C 0.89885 0.44977 0.02558 0.0
C738 C 0.88763 0.48044 0.02209 0.0
C739 C 0.91152 0.42088 0.03118 0.0
N740 N 0.94156 0.4618 0.02631 0.0
C741 C 0.93593 0.43909 0.03014 0.0
C742 C 0.89288 0.42617 0.02868 0.0
Eu743 Eu 0.98236 0.49343 0.02406 0.0
N744 N 0.9546 0.50797 0.02295 0.0
C745 C 0.96196 0.53182 0.02332 0.0
C746 C 0.91996 0.52255 0.02138 0.0
C747 C 0.94481 0.53947 0.02232 0.0
H748 H 0.95031 0.43494 0.03199 0.0
H749 H 0.95079 0.5584 0.0222 0.0
H750 H 0.87355 0.48531 0.02122 0.0
H751 H 0.9071 0.40279 0.03388 0.0
H752 H 0.98112 0.54508 0.02394 0.0
H753 H 0.04985 0.43896 0.99388 0.0
H754 H 0.90672 0.52852 0.02061 0.0
H755 H 0.05828 0.56518 0.98164 0.0
H756 H 0.0215 0.45444 0.99155 0.0
H757 H 0.10217 0.59579 0.98021 0.0
H758 H 0.86162 0.44293 0.02448 0.0
H759 H 0.0943 0.467 0.99607 0.0
H760 H 0.12916 0.50946 0.99566 0.0
H761 H 0.87399 0.41205 0.02954 0.0
H762 H 0.14349 0.55232 0.99196 0.0
N763 N 0.04938 0.49114 0.99274 0.0
C764 C 0.04079 0.46702 0.99241 0.0
C765 C 0.08191 0.47397 0.99501 0.0
C766 C 0.09074 0.49863 0.99436 0.0
C767 C 0.05685 0.45809 0.99373 0.0
C768 C 0.07379 0.50674 0.99305 0.0
H769 H 0.13357 0.58465 0.9859 0.0
N770 N 0.06496 0.53751 0.98871 0.0
C771 C 0.09672 0.5776 0.98337 0.0
C772 C 0.08185 0.53076 0.99103 0.0
C773 C 0.07195 0.56027 0.98417 0.0
C774 C 0.11438 0.57126 0.98664 0.0
C775 C 0.10706 0.54746 0.9902 0.0
O776 O 0.02347 0.52197 0.96902 0.0
O777 O 0.98965 0.5058 1.00045 0.0
O778 O 0.96102 0.46647 0.00598 0.0
O779 O 0.99282 0.46841 0.99172 0.0
O780 O 0.0106 0.53464 0.98683 0.0
O781 O 0.0142 0.48499 0.97147 0.0
O782 O 0.98453 0.47996 0.04603 0.0
O783 O 0.01666 0.49652 0.01506 0.0
O784 O 0.04362 0.53744 0.00815 0.0
O785 O 0.01225 0.53289 0.02422 0.0
O786 O 0.99563 0.46694 0.02812 0.0
O787 O 0.98733 0.51477 0.04415 0.0
C788 C 0.99076 0.52406 0.99453 0.0
C789 C 0.03346 0.50447 0.94913 0.0
C790 C 0.03754 0.50382 0.92205 0.0
C791 C 0.02369 0.50223 0.93474 0.0
C792 C 0.06142 0.50787 0.924 0.0
C793 C 0.05731 0.50857 0.95087 0.0
C794 C 0.07122 0.51031 0.93834 0.0
C795 C 0.96949 0.45771 0.99572 0.0
C796 C 0.01839 0.50216 0.96217 0.0
C797 C 0.12404 0.53972 0.99237 0.0
C798 C 0.11588 0.51532 0.99446 0.0
C799 C 0.01587 0.47834 0.02087 0.0
C800 C 0.97021 0.49275 0.06628 0.0
C801 C 0.98038 0.49605 0.08064 0.0
C802 C 0.96544 0.48967 0.09343 0.0
C803 C 0.94009 0.48003 0.0915 0.0
C804 C 0.945 0.48344 0.06464 0.0
C805 C 0.93004 0.47711 0.0772 0.0
C806 C 0.03486 0.54506 0.01895 0.0
C807 C 0.98609 0.49832 0.05318 0.0
H808 H 0.00513 0.49877 0.93344 0.0
H809 H 0.07257 0.50935 0.91444 0.0
H810 H 0.0651 0.5103 0.96188 0.0
H811 H 0.08963 0.51348 0.93975 0.0
H812 H 0.99997 0.50373 0.08178 0.0
H813 H 0.92791 0.47442 0.101 0.0
H814 H 0.93688 0.48094 0.05369 0.0
H815 H 0.91054 0.46971 0.07585 0.0
Eu816 Eu 0.51476 0.49358 0.02356 0.0
C817 C 0.45865 0.53275 0.98573 0.0
C818 C 0.41612 0.50194 0.98748 0.0
C819 C 0.42691 0.54355 0.9844 0.0
C820 C 0.44115 0.50897 0.98754 0.0
C821 C 0.45174 0.55027 0.98379 0.0
C822 C 0.40913 0.51942 0.98626 0.0
C823 C 0.49425 0.57938 0.97959 0.0
N824 N 0.48241 0.53858 0.98509 0.0
C825 C 0.50016 0.56134 0.98157 0.0
C826 C 0.46996 0.57389 0.98089 0.0
Eu827 Eu 0.49128 0.50745 0.98922 0.0
N828 N 0.44854 0.49255 0.98852 0.0
C829 C 0.43179 0.46863 0.9883 0.0
C830 C 0.39887 0.4775 0.9882 0.0
C831 C 0.40675 0.46077 0.98837 0.0
H832 H 0.51898 0.56569 0.98068 0.0
H833 H 0.39357 0.4418 0.98861 0.0
H834 H 0.39 0.51439 0.98635 0.0
H835 H 0.50842 0.5975 0.97711 0.0
H836 H 0.43755 0.45547 0.9885 0.0
H837 H 0.61247 0.55923 0.02388 0.0
H838 H 0.37947 0.47136 0.98825 0.0
H839 H 0.48713 0.43541 0.03227 0.0
H840 H 0.56848 0.54556 0.02412 0.0
H841 H 0.49771 0.40362 0.03585 0.0
H842 H 0.42125 0.55678 0.98308 0.0
H843 H 0.62657 0.52966 0.02422 0.0
H844 H 0.61605 0.48664 0.02617 0.0
H845 H 0.46541 0.58788 0.97933 0.0
H846 H 0.58483 0.44427 0.02957 0.0
N847 N 0.5575 0.50848 0.02416 0.0
C848 C 0.57426 0.5324 0.02432 0.0
C849 C 0.60717 0.52352 0.02432 0.0
C850 C 0.58993 0.49909 0.02511 0.0
C851 C 0.59929 0.54026 0.02417 0.0
C852 C 0.5649 0.49207 0.02513 0.0
H853 H 0.54069 0.4132 0.03348 0.0
N854 N 0.52365 0.46247 0.0277 0.0
C855 C 0.51187 0.42172 0.0333 0.0
C856 C 0.54741 0.46829 0.027 0.0
C857 C 0.50594 0.43975 0.03131 0.0
C858 C 0.53614 0.42719 0.03191 0.0
C859 C 0.55433 0.45078 0.02894 0.0
O860 O 0.49784 0.48055 0.0454 0.0
O861 O 0.48392 0.49568 0.01295 0.0
O862 O 0.49656 0.53498 0.00673 0.0
O863 O 0.52549 0.53306 0.02203 0.0
O864 O 0.4744 0.46649 0.02647 0.0
O865 O 0.52811 0.51675 0.04324 0.0
O866 O 0.50807 0.52059 0.96737 0.0
O867 O 0.52208 0.50535 0.99983 0.0
O868 O 0.50935 0.46595 0.00611 0.0
O869 O 0.4805 0.46796 0.99077 0.0
O870 O 0.53166 0.53452 0.98633 0.0
O871 O 0.47819 0.48419 0.96959 0.0
C872 C 0.46596 0.47727 0.01839 0.0
C873 C 0.52313 0.49771 0.06653 0.0
C874 C 0.52383 0.49898 0.09383 0.0
C875 C 0.51382 0.50067 0.08012 0.0
C876 C 0.54312 0.49398 0.09371 0.0
C877 C 0.54228 0.49264 0.06664 0.0
C878 C 0.55217 0.49074 0.0802 0.0
C879 C 0.51349 0.54385 0.01733 0.0
C880 C 0.5129 0.50031 0.05236 0.0
C881 C 0.57915 0.45749 0.02825 0.0
C882 C 0.59693 0.48161 0.02632 0.0
C883 C 0.54008 0.52371 0.99439 0.0
C884 C 0.48284 0.50299 0.94625 0.0
C885 C 0.49227 0.50009 0.9327 0.0
C886 C 0.48202 0.50132 0.91896 0.0
C887 C 0.46239 0.50579 0.91902 0.0
C888 C 0.46336 0.50757 0.94608 0.0
C889 C 0.45324 0.50901 0.9325 0.0
C890 C 0.49241 0.45711 0.99551 0.0
C891 C 0.49322 0.50071 0.96044 0.0
H892 H 0.49916 0.50481 0.08 0.0
H893 H 0.55106 0.49238 0.10408 0.0
H894 H 0.54964 0.49027 0.05629 0.0
H895 H 0.56696 0.48684 0.08023 0.0
H896 H 0.5072 0.49634 0.93285 0.0
H897 H 0.45424 0.50699 0.90863 0.0
H898 H 0.4559 0.50988 0.95642 0.0
H899 H 0.43817 0.51252 0.93243 0.0
Eu900 Eu 0.1598 0.31612 0.32281 0.0
C901 C 0.21354 0.40819 0.36299 0.0
C902 C 0.25606 0.41901 0.36134 0.0
C903 C 0.24532 0.44997 0.36513 0.0
C904 C 0.23101 0.40158 0.36098 0.0
C905 C 0.22047 0.43238 0.36549 0.0
C906 C 0.2631 0.4433 0.36303 0.0
C907 C 0.17798 0.41967 0.36992 0.0
N908 N 0.18978 0.39073 0.36343 0.0
C909 C 0.17206 0.39593 0.36736 0.0
C910 C 0.20227 0.43803 0.36876 0.0
Eu911 Eu 0.18074 0.35108 0.35833 0.0
N912 N 0.22354 0.37794 0.35961 0.0
C913 C 0.24024 0.37037 0.35978 0.0
C914 C 0.27326 0.41142 0.36051 0.0
C915 C 0.26529 0.38696 0.35999 0.0
H916 H 0.15323 0.38179 0.36812 0.0
H917 H 0.27843 0.38085 0.35969 0.0
H918 H 0.28224 0.45697 0.36318 0.0
H919 H 0.16382 0.42378 0.37271 0.0
H920 H 0.23446 0.35157 0.3593 0.0
H921 H 0.06117 0.28087 0.32059 0.0
H922 H 0.29267 0.42423 0.36069 0.0
H923 H 0.19099 0.28853 0.31351 0.0
H924 H 0.10459 0.31211 0.32159 0.0
H925 H 0.18311 0.24751 0.30867 0.0
H926 H 0.25102 0.46869 0.36687 0.0
H927 H 0.0496 0.23815 0.31896 0.0
H928 H 0.06278 0.20743 0.31619 0.0
H929 H 0.20683 0.45639 0.37077 0.0
H930 H 0.09597 0.19835 0.31278 0.0
N931 N 0.11764 0.2874 0.32106 0.0
C932 C 0.09988 0.29358 0.32086 0.0
C933 C 0.06873 0.25181 0.31943 0.0
C934 C 0.08707 0.24571 0.31863 0.0
C935 C 0.07519 0.2759 0.3203 0.0
C936 C 0.11169 0.26418 0.31936 0.0
H937 H 0.14086 0.21322 0.30968 0.0
N938 N 0.15366 0.27748 0.31751 0.0
C939 C 0.1681 0.25049 0.3112 0.0
C940 C 0.13029 0.25906 0.31748 0.0
C941 C 0.17249 0.2737 0.31393 0.0
C942 C 0.14423 0.23118 0.31182 0.0
C943 C 0.12491 0.23535 0.31478 0.0
O944 O 0.17986 0.32521 0.30173 0.0
O945 O 0.1892 0.3482 0.33454 0.0
O946 O 0.17385 0.37337 0.34152 0.0
O947 O 0.14718 0.34353 0.32496 0.0
O948 O 0.20044 0.3297 0.32091 0.0
O949 O 0.14527 0.32426 0.30278 0.0
O950 O 0.16311 0.34679 0.38006 0.0
O951 O 0.151 0.31951 0.34651 0.0
O952 O 0.16479 0.29294 0.33977 0.0
O953 O 0.19193 0.3225 0.35627 0.0
O954 O 0.14025 0.33793 0.36062 0.0
O955 O 0.19217 0.33862 0.37778 0.0
C956 C 0.20779 0.34825 0.32939 0.0
C957 C 0.1572 0.31615 0.27935 0.0
C958 C 0.16068 0.32 0.2521 0.0
C959 C 0.16493 0.33055 0.26643 0.0
C960 C 0.14829 0.29487 0.25092 0.0
C961 C 0.14469 0.29115 0.27787 0.0
C962 C 0.14023 0.2806 0.26371 0.0
C963 C 0.15745 0.36554 0.33057 0.0
C964 C 0.16336 0.32739 0.29427 0.0
C965 C 0.10047 0.21672 0.3147 0.0
C966 C 0.08158 0.22189 0.31665 0.0
C967 C 0.13261 0.31969 0.35183 0.0
C968 C 0.1873 0.3519 0.40147 0.0
C969 C 0.1786 0.33879 0.41484 0.0
C970 C 0.189 0.34947 0.42874 0.0
C971 C 0.20792 0.37353 0.429 0.0
C972 C 0.20612 0.37585 0.40206 0.0
C973 C 0.2163 0.38659 0.41577 0.0
C974 C 0.18091 0.30032 0.35085 0.0
C975 C 0.17709 0.34034 0.38694 0.0
H976 H 0.17478 0.3499 0.26754 0.0
H977 H 0.14462 0.28624 0.24007 0.0
H978 H 0.13859 0.27981 0.28765 0.0
H979 H 0.13063 0.26128 0.26265 0.0
H980 H 0.16417 0.32021 0.41438 0.0
H981 H 0.21612 0.38234 0.4395 0.0
H982 H 0.21302 0.38619 0.39192 0.0
H983 H 0.23083 0.4051 0.41615 0.0
Eu984 Eu 0.69073 0.8404 0.32388 0.0
C985 C 0.59081 0.80256 0.35683 0.0
C986 C 0.58048 0.8337 0.35337 0.0
C987 C 0.54818 0.79224 0.35582 0.0
C988 C 0.59806 0.8264 0.35464 0.0
C989 C 0.5658 0.78526 0.35783 0.0
C990 C 0.55551 0.81643 0.35358 0.0
C991 C 0.57757 0.75592 0.36406 0.0
N992 N 0.60829 0.79649 0.35887 0.0
C993 C 0.60213 0.77375 0.36298 0.0
C994 C 0.5593 0.76162 0.36127 0.0
Eu995 Eu 0.64943 0.8273 0.35632 0.0
N996 N 0.62232 0.84262 0.35466 0.0
C997 C 0.6302 0.8666 0.35466 0.0
C998 C 0.58852 0.8582 0.35241 0.0
C999 C 0.61348 0.87473 0.35332 0.0
H1000 H 0.61622 0.76925 0.36502 0.0
H1001 H 0.61988 0.89375 0.3529 0.0
H1002 H 0.54174 0.82166 0.35243 0.0
H1003 H 0.57275 0.7378 0.36699 0.0
H1004 H 0.64943 0.87958 0.35526 0.0
H1005 H 0.7221 0.77534 0.32677 0.0
H1006 H 0.57562 0.86455 0.35136 0.0
H1007 H 0.72298 0.89872 0.31539 0.0
H1008 H 0.69188 0.78874 0.32469 0.0
H1009 H 0.76619 0.93073 0.31341 0.0
H1010 H 0.52887 0.77917 0.35639 0.0
H1011 H 0.76621 0.80517 0.32821 0.0
H1012 H 0.79946 0.84832 0.32725 0.0
H1013 H 0.54029 0.7478 0.36215 0.0
H1014 H 0.8115 0.89065 0.32355 0.0
N1015 N 0.71847 0.82584 0.32532 0.0
C1016 C 0.71104 0.80197 0.32524 0.0
C1017 C 0.75301 0.81117 0.32727 0.0
C1018 C 0.76057 0.83558 0.32643 0.0
C1019 C 0.72814 0.79428 0.32643 0.0
C1020 C 0.74263 0.84243 0.32532 0.0
H1021 H 0.79923 0.92149 0.31807 0.0
N1022 N 0.7316 0.87189 0.32144 0.0
C1023 C 0.76173 0.91269 0.31629 0.0
C1024 C 0.74941 0.86622 0.32333 0.0
C1025 C 0.7373 0.89454 0.31739 0.0
C1026 C 0.78033 0.90741 0.31897 0.0
C1027 C 0.7743 0.88387 0.3223 0.0
O1028 O 0.68789 0.85261 0.30164 0.0
O1029 O 0.65676 0.83851 0.33252 0.0
O1030 O 0.62857 0.79943 0.33853 0.0
O1031 O 0.66073 0.80089 0.32484 0.0
O1032 O 0.67832 0.86737 0.31907 0.0
O1033 O 0.68539 0.81805 0.30423 0.0
O1034 O 0.6496 0.8143 0.37884 0.0
O1035 O 0.68303 0.82873 0.34758 0.0
O1036 O 0.71181 0.8679 0.34179 0.0
O1037 O 0.67969 0.86671 0.35534 0.0
O1038 O 0.66184 0.80036 0.3614 0.0
O1039 O 0.65771 0.85087 0.37562 0.0
C1040 C 0.65812 0.85674 0.32641 0.0
C1041 C 0.70186 0.83898 0.28168 0.0
C1042 C 0.70594 0.84086 0.25456 0.0
C1043 C 0.69126 0.83466 0.2674 0.0
C1044 C 0.73138 0.85131 0.25617 0.0
C1045 C 0.72724 0.84911 0.28312 0.0
C1046 C 0.74191 0.85523 0.2704 0.0
C1047 C 0.63733 0.79024 0.32872 0.0
C1048 C 0.68628 0.83395 0.29487 0.0
C1049 C 0.79227 0.87732 0.32414 0.0
C1050 C 0.78542 0.85321 0.32623 0.0
C1051 C 0.68178 0.81063 0.3538 0.0
C1052 C 0.63884 0.83203 0.39824 0.0
C1053 C 0.64827 0.83375 0.41268 0.0
C1054 C 0.63431 0.83221 0.4253 0.0
C1055 C 0.61067 0.82873 0.42324 0.0
C1056 C 0.61521 0.82847 0.39638 0.0
C1057 C 0.6012 0.8268 0.40885 0.0
C1058 C 0.70314 0.87714 0.35161 0.0
C1059 C 0.65403 0.83425 0.38527 0.0
H1060 H 0.67165 0.827 0.26629 0.0
H1061 H 0.74304 0.85617 0.24644 0.0
H1062 H 0.73571 0.85246 0.29401 0.0
H1063 H 0.7615 0.86314 0.27157 0.0
H1064 H 0.66665 0.83676 0.41407 0.0
H1065 H 0.59944 0.82728 0.43275 0.0
H1066 H 0.60766 0.8271 0.38535 0.0
H1067 H 0.58297 0.82405 0.40735 0.0
Eu1068 Eu 0.18192 0.82528 0.35712 0.0
C1069 C 0.12586 0.86551 0.32071 0.0
C1070 C 0.08321 0.83496 0.32243 0.0
C1071 C 0.09448 0.87684 0.32031 0.0
C1072 C 0.10817 0.84171 0.3222 0.0
C1073 C 0.11923 0.88332 0.31945 0.0
C1074 C 0.0765 0.85269 0.32181 0.0
C1075 C 0.16182 0.91233 0.31544 0.0
N1076 N 0.14955 0.87112 0.31982 0.0
C1077 C 0.16746 0.894 0.31668 0.0
C1078 C 0.13763 0.90703 0.317 0.0
Eu1079 Eu 0.15794 0.8395 0.32306 0.0
N1080 N 0.11529 0.82504 0.32269 0.0
C1081 C 0.09832 0.8012 0.32228 0.0
C1082 C 0.06576 0.81056 0.32289 0.0
C1083 C 0.07335 0.79361 0.32258 0.0
H1084 H 0.18621 0.89817 0.3156 0.0
H1085 H 0.05999 0.77468 0.32265 0.0
H1086 H 0.05743 0.84787 0.32213 0.0
H1087 H 0.17613 0.93053 0.3133 0.0
H1088 H 0.10386 0.78786 0.32214 0.0
H1089 H 0.28024 0.88856 0.35663 0.0
H1090 H 0.04641 0.80463 0.32313 0.0
H1091 H 0.15287 0.76717 0.36615 0.0
H1092 H 0.23657 0.8762 0.35718 0.0
H1093 H 0.16215 0.73451 0.36972 0.0
H1094 H 0.08902 0.89028 0.3195 0.0
H1095 H 0.29299 0.85798 0.35693 0.0
H1096 H 0.28113 0.8146 0.35905 0.0
H1097 H 0.13329 0.92124 0.31598 0.0
H1098 H 0.24899 0.77265 0.36275 0.0
N1099 N 0.22442 0.83888 0.35733 0.0
C1100 C 0.24176 0.86261 0.35736 0.0
C1101 C 0.27373 0.85242 0.35717 0.0
C1102 C 0.25593 0.82819 0.3581 0.0
C1103 C 0.26661 0.86973 0.35704 0.0
C1104 C 0.23111 0.82193 0.35828 0.0
H1105 H 0.20462 0.74268 0.36703 0.0
N1106 N 0.18961 0.79336 0.36124 0.0
C1107 C 0.17665 0.75238 0.36703 0.0
C1108 C 0.21311 0.7984 0.36034 0.0
C1109 C 0.17147 0.77091 0.36504 0.0
C1110 C 0.20063 0.75705 0.36546 0.0
C1111 C 0.21929 0.78036 0.36229 0.0
O1112 O 0.16547 0.8132 0.37917 0.0
O1113 O 0.15112 0.82779 0.3468 0.0
O1114 O 0.16387 0.8667 0.3409 0.0
O1115 O 0.19389 0.86507 0.3552 0.0
O1116 O 0.14149 0.79887 0.36056 0.0
O1117 O 0.19635 0.84893 0.37655 0.0
O1118 O 0.17409 0.85297 0.30111 0.0
O1119 O 0.18857 0.83675 0.33332 0.0
O1120 O 0.1753 0.7972 0.3397 0.0
O1121 O 0.14664 0.79988 0.32451 0.0
O1122 O 0.19848 0.86573 0.31957 0.0
O1123 O 0.14419 0.81656 0.30329 0.0
C1124 C 0.13312 0.80966 0.35244 0.0
C1125 C 0.19169 0.83021 0.39993 0.0
C1126 C 0.19292 0.8311 0.42725 0.0
C1127 C 0.18269 0.83306 0.41369 0.0
C1128 C 0.21211 0.82597 0.42679 0.0
C1129 C 0.21075 0.82502 0.39974 0.0
C1130 C 0.22086 0.82288 0.41313 0.0
C1131 C 0.18178 0.87592 0.35085 0.0
C1132 C 0.18118 0.83293 0.3859 0.0
C1133 C 0.24388 0.78629 0.36143 0.0
C1134 C 0.26218 0.81017 0.35932 0.0
C1135 C 0.20667 0.85468 0.3276 0.0
C1136 C 0.14819 0.83587 0.28021 0.0
C1137 C 0.15709 0.83318 0.26637 0.0
C1138 C 0.14662 0.8351 0.25289 0.0
C1139 C 0.12729 0.84001 0.25351 0.0
C1140 C 0.12898 0.84083 0.28057 0.0
C1141 C 0.11863 0.84291 0.26726 0.0
C1142 C 0.15818 0.78862 0.32919 0.0
C1143 C 0.15898 0.83323 0.29414 0.0
H1144 H 0.16806 0.83725 0.41381 0.0
H1145 H 0.2202 0.8241 0.43703 0.0
H1146 H 0.21785 0.82273 0.38926 0.0
H1147 H 0.23557 0.81886 0.41291 0.0
H1148 H 0.17182 0.82915 0.26612 0.0
H1149 H 0.11903 0.84185 0.24335 0.0
H1150 H 0.12195 0.843 0.29111 0.0
H1151 H 0.1038 0.84675 0.26761 0.0
Eu1152 Eu 0.82536 0.64976 0.65564 0.0
C1153 C 0.87953 0.74221 0.69559 0.0
C1154 C 0.92216 0.75335 0.69413 0.0
C1155 C 0.91105 0.78409 0.69771 0.0
C1156 C 0.89717 0.73578 0.69371 0.0
C1157 C 0.88624 0.76637 0.69794 0.0
C1158 C 0.92899 0.77759 0.69579 0.0
C1159 C 0.84356 0.75345 0.70178 0.0
N1160 N 0.8558 0.72464 0.69588 0.0
C1161 C 0.83785 0.72974 0.69941 0.0
C1162 C 0.86784 0.7719 0.70086 0.0
Eu1163 Eu 0.84723 0.68508 0.69098 0.0
N1164 N 0.88991 0.71218 0.69232 0.0
C1165 C 0.90676 0.70479 0.69247 0.0
C1166 C 0.93952 0.74596 0.69333 0.0
C1167 C 0.93176 0.72154 0.69274 0.0
H1168 H 0.81904 0.71554 0.7 0.0
H1169 H 0.94503 0.71559 0.69244 0.0
H1170 H 0.94809 0.79137 0.69599 0.0
H1171 H 0.82923 0.75748 0.70426 0.0
H1172 H 0.9011 0.68602 0.69195 0.0
H1173 H 0.72761 0.61941 0.65367 0.0
H1174 H 0.9589 0.75889 0.69356 0.0
H1175 H 0.8536 0.61923 0.64688 0.0
H1176 H 0.77155 0.64892 0.65442 0.0
H1177 H 0.84338 0.5773 0.64259 0.0
H1178 H 0.91658 0.80279 0.69936 0.0
H1179 H 0.71368 0.57611 0.65246 0.0
H1180 H 0.72445 0.54359 0.6501 0.0
H1181 H 0.87223 0.79024 0.70273 0.0
H1182 H 0.75596 0.53211 0.64695 0.0
N1183 N 0.78268 0.62271 0.6541 0.0
C1184 C 0.76587 0.63014 0.65386 0.0
C1185 C 0.73306 0.58901 0.6528 0.0
C1186 C 0.7504 0.58158 0.6521 0.0
C1187 C 0.74086 0.61343 0.65344 0.0
C1188 C 0.7754 0.59912 0.65266 0.0
H1189 H 0.80033 0.54459 0.64387 0.0
N1190 N 0.81679 0.61019 0.65077 0.0
C1191 C 0.82904 0.58135 0.64498 0.0
C1192 C 0.79304 0.59265 0.65091 0.0
C1193 C 0.83476 0.60506 0.64736 0.0
C1194 C 0.80473 0.56293 0.64575 0.0
C1195 C 0.78632 0.56849 0.64853 0.0
O1196 O 0.84289 0.65404 0.63388 0.0
O1197 O 0.85545 0.68138 0.66724 0.0
O1198 O 0.84206 0.708 0.67384 0.0
O1199 O 0.81419 0.67834 0.65768 0.0
O1200 O 0.86585 0.66258 0.65332 0.0
O1201 O 0.81368 0.66205 0.63624 0.0
O1202 O 0.8299 0.6808 0.71281 0.0
O1203 O 0.81715 0.65356 0.67935 0.0
O1204 O 0.83033 0.62679 0.67285 0.0
O1205 O 0.85839 0.65651 0.68889 0.0
O1206 O 0.80672 0.6722 0.69338 0.0
O1207 O 0.85908 0.67281 0.71032 0.0
C1208 C 0.87373 0.68107 0.66191 0.0
C1209 C 0.81887 0.64934 0.61244 0.0
C1210 C 0.81754 0.65272 0.58523 0.0
C1211 C 0.82774 0.6629 0.59925 0.0
C1212 C 0.7986 0.62869 0.58464 0.0
C1213 C 0.80006 0.62541 0.61155 0.0
C1214 C 0.79005 0.61516 0.59769 0.0
C1215 C 0.8257 0.70064 0.66289 0.0
C1216 C 0.82887 0.66052 0.62707 0.0
C1217 C 0.76149 0.5508 0.64862 0.0
C1218 C 0.74356 0.55734 0.65041 0.0
C1219 C 0.79885 0.65382 0.68469 0.0
C1220 C 0.8542 0.68567 0.73414 0.0
C1221 C 0.84571 0.67221 0.74739 0.0
C1222 C 0.85618 0.68258 0.76134 0.0
C1223 C 0.87497 0.70669 0.76177 0.0
C1224 C 0.87287 0.70967 0.73489 0.0
C1225 C 0.88313 0.7201 0.74865 0.0
C1226 C 0.84676 0.63417 0.68376 0.0
C1227 C 0.84399 0.67436 0.71956 0.0
H1228 H 0.84215 0.68147 0.59995 0.0
H1229 H 0.79054 0.62028 0.57403 0.0
H1230 H 0.79304 0.61473 0.62155 0.0
H1231 H 0.77552 0.59668 0.59708 0.0
H1232 H 0.8314 0.65359 0.74681 0.0
H1233 H 0.88322 0.71526 0.77231 0.0
H1234 H 0.87961 0.72027 0.72483 0.0
H1235 H 0.89756 0.73865 0.74916 0.0
Eu1236 Eu 0.35592 0.17349 0.65696 0.0
C1237 C 0.25587 0.13298 0.69021 0.0
C1238 C 0.24354 0.16272 0.68683 0.0
C1239 C 0.21271 0.12075 0.68954 0.0
C1240 C 0.26198 0.15654 0.68798 0.0
C1241 C 0.23118 0.11489 0.69141 0.0
C1242 C 0.21888 0.14463 0.68723 0.0
C1243 C 0.24492 0.08704 0.69765 0.0
N1244 N 0.27416 0.12799 0.69215 0.0
C1245 C 0.26912 0.10561 0.69638 0.0
C1246 C 0.22584 0.09161 0.69495 0.0
Eu1247 Eu 0.31463 0.16016 0.68943 0.0
N1248 N 0.28597 0.17359 0.68783 0.0
C1249 C 0.29276 0.19731 0.68772 0.0
C1250 C 0.25044 0.18696 0.68579 0.0
C1251 C 0.27516 0.20434 0.68649 0.0
H1252 H 0.28381 0.10197 0.69841 0.0
H1253 H 0.28068 0.22316 0.686 0.0
H1254 H 0.20446 0.149 0.68621 0.0
H1255 H 0.24099 0.06921 0.70068 0.0
H1256 H 0.3118 0.21092 0.68817 0.0
H1257 H 0.38609 0.10748 0.65995 0.0
H1258 H 0.23684 0.19245 0.68483 0.0
H1259 H 0.38901 0.232 0.64926 0.0
H1260 H 0.35634 0.12137 0.65766 0.0
H1261 H 0.43245 0.26383 0.64817 0.0
H1262 H 0.19362 0.10707 0.69027 0.0
H1263 H 0.43026 0.13688 0.66183 0.0
H1264 H 0.46391 0.1799 0.66133 0.0
H1265 H 0.20711 0.07721 0.69598 0.0
H1266 H 0.47656 0.22246 0.65808 0.0
N1267 N 0.38323 0.1584 0.65855 0.0
C1268 C 0.37552 0.13446 0.65839 0.0
C1269 C 0.41727 0.14312 0.66078 0.0
C1270 C 0.42514 0.1676 0.66007 0.0
C1271 C 0.39236 0.12647 0.65969 0.0
C1272 C 0.40745 0.17476 0.65879 0.0
H1273 H 0.46498 0.25389 0.65294 0.0
N1274 N 0.39703 0.20464 0.65491 0.0
C1275 C 0.42768 0.24558 0.6507 0.0
C1276 C 0.41458 0.19865 0.65693 0.0
C1277 C 0.40315 0.22755 0.65126 0.0
C1278 C 0.44598 0.23991 0.65344 0.0
C1279 C 0.43956 0.21614 0.65636 0.0
O1280 O 0.35635 0.18695 0.6345 0.0
O1281 O 0.32204 0.17153 0.66564 0.0
O1282 O 0.29377 0.13219 0.67172 0.0
O1283 O 0.32597 0.13393 0.65793 0.0
O1284 O 0.34289 0.19993 0.65174 0.0
O1285 O 0.3478 0.15018 0.63754 0.0
O1286 O 0.31829 0.14889 0.71179 0.0
O1287 O 0.34865 0.16241 0.68072 0.0
O1288 O 0.37634 0.20104 0.67494 0.0
O1289 O 0.3439 0.19996 0.68802 0.0
O1290 O 0.32797 0.13391 0.69454 0.0
O1291 O 0.31963 0.18287 0.70883 0.0
C1292 C 0.32294 0.1894 0.65932 0.0
C1293 C 0.36689 0.16919 0.61501 0.0
C1294 C 0.37115 0.16866 0.58795 0.0
C1295 C 0.3573 0.16722 0.6006 0.0
C1296 C 0.39484 0.17226 0.58995 0.0
C1297 C 0.39059 0.17291 0.61682 0.0
C1298 C 0.40449 0.17446 0.60432 0.0
C1299 C 0.30258 0.12315 0.66185 0.0
C1300 C 0.35174 0.167 0.62798 0.0
C1301 C 0.45727 0.20926 0.65833 0.0
C1302 C 0.45006 0.18503 0.66019 0.0
C1303 C 0.34793 0.14457 0.68696 0.0
C1304 C 0.30378 0.16229 0.73157 0.0
C1305 C 0.31438 0.16651 0.74584 0.0
C1306 C 0.2997 0.16017 0.75868 0.0
C1307 C 0.27426 0.14967 0.75708 0.0
C1308 C 0.27839 0.15211 0.73015 0.0
C1309 C 0.26372 0.14585 0.74287 0.0
C1310 C 0.36736 0.21058 0.6843 0.0
C1311 C 0.31935 0.16744 0.71837 0.0
H1312 H 0.33887 0.1641 0.59925 0.0
H1313 H 0.40597 0.1736 0.58041 0.0
H1314 H 0.39827 0.17449 0.62785 0.0
H1315 H 0.42277 0.17732 0.60577 0.0
H1316 H 0.334 0.1742 0.74694 0.0
H1317 H 0.26259 0.14471 0.76683 0.0
H1318 H 0.26992 0.14884 0.71925 0.0
H1319 H 0.24412 0.1379 0.7417 0.0
Eu1320 Eu 0.84646 0.1592 0.69071 0.0
C1321 C 0.7944 0.20318 0.65357 0.0
C1322 C 0.75135 0.17367 0.65494 0.0
C1323 C 0.76409 0.21587 0.65246 0.0
C1324 C 0.77608 0.17961 0.65505 0.0
C1325 C 0.78862 0.22153 0.65189 0.0
C1326 C 0.74548 0.19197 0.65401 0.0
C1327 C 0.83154 0.24933 0.64788 0.0
N1328 N 0.81787 0.20799 0.65294 0.0
C1329 C 0.83635 0.2305 0.6496 0.0
C1330 C 0.80761 0.2449 0.64923 0.0
Eu1331 Eu 0.82471 0.17543 0.65654 0.0
N1332 N 0.78239 0.16236 0.65575 0.0
C1333 C 0.76485 0.13872 0.65518 0.0
C1334 C 0.73328 0.14947 0.65532 0.0
C1335 C 0.74007 0.13191 0.65519 0.0
H1336 H 0.85489 0.23404 0.64863 0.0
H1337 H 0.72623 0.11313 0.65517 0.0
H1338 H 0.7266 0.18778 0.65407 0.0
H1339 H 0.8463 0.26725 0.64556 0.0
H1340 H 0.76984 0.12497 0.65516 0.0
H1341 H 0.94494 0.22156 0.69187 0.0
H1342 H 0.71407 0.14415 0.65532 0.0
H1343 H 0.81636 0.10061 0.6987 0.0
H1344 H 0.90134 0.20969 0.69194 0.0
H1345 H 0.82501 0.06745 0.70178 0.0
H1346 H 0.75928 0.22975 0.65134 0.0
H1347 H 0.95713 0.19057 0.69176 0.0
H1348 H 0.94465 0.14695 0.69308 0.0
H1349 H 0.80393 0.2595 0.64786 0.0
H1350 H 0.91201 0.10499 0.69588 0.0
N1351 N 0.8888 0.1723 0.69144 0.0
C1352 C 0.90633 0.19595 0.69194 0.0
C1353 C 0.93793 0.18523 0.69178 0.0
C1354 C 0.91986 0.16103 0.69221 0.0
C1355 C 0.93112 0.20277 0.69189 0.0
C1356 C 0.89513 0.15507 0.69215 0.0
H1357 H 0.86738 0.07522 0.69942 0.0
N1358 N 0.85337 0.12669 0.69433 0.0
C1359 C 0.83974 0.08536 0.69943 0.0
C1360 C 0.87683 0.13151 0.69366 0.0
C1361 C 0.83491 0.10417 0.69771 0.0
C1362 C 0.86368 0.08981 0.69805 0.0
C1363 C 0.88264 0.11317 0.69536 0.0
O1364 O 0.82776 0.14689 0.71209 0.0
O1365 O 0.81645 0.16275 0.68009 0.0
O1366 O 0.83055 0.20266 0.67436 0.0
O1367 O 0.85845 0.19908 0.68975 0.0
O1368 O 0.80589 0.1328 0.69311 0.0
O1369 O 0.86166 0.18064 0.71102 0.0
O1370 O 0.84352 0.18784 0.63521 0.0
O1371 O 0.85458 0.17182 0.66718 0.0
O1372 O 0.84062 0.13198 0.67289 0.0
O1373 O 0.81279 0.13554 0.65741 0.0
O1374 O 0.86539 0.20166 0.65406 0.0
O1375 O 0.80948 0.15417 0.63617 0.0
C1376 C 0.79809 0.14431 0.68519 0.0
C1377 C 0.85219 0.15916 0.73377 0.0
C1378 C 0.85091 0.15787 0.76113 0.0
C1379 C 0.84498 0.16454 0.74741 0.0
C1380 C 0.86434 0.14579 0.76083 0.0
C1381 C 0.86579 0.14741 0.73379 0.0
C1382 C 0.87182 0.14078 0.74727 0.0
C1383 C 0.84729 0.21073 0.68508 0.0
C1384 C 0.84448 0.16501 0.71964 0.0
C1385 C 0.90718 0.11885 0.69475 0.0
C1386 C 0.92576 0.14274 0.69316 0.0
C1387 C 0.87306 0.19007 0.66202 0.0
C1388 C 0.81928 0.17583 0.61347 0.0
C1389 C 0.8271 0.17101 0.59988 0.0
C1390 C 0.82156 0.17807 0.58622 0.0
C1391 C 0.80788 0.18984 0.58636 0.0
C1392 C 0.80544 0.18736 0.61338 0.0
C1393 C 0.79977 0.1943 0.59987 0.0
C1394 C 0.82397 0.12393 0.66211 0.0
C1395 C 0.82677 0.16982 0.62761 0.0
H1396 H 0.83481 0.17399 0.74726 0.0
H1397 H 0.8688 0.13981 0.77104 0.0
H1398 H 0.87153 0.14317 0.72341 0.0
H1399 H 0.88212 0.13148 0.74721 0.0
H1400 H 0.83798 0.16227 0.59995 0.0
H1401 H 0.80323 0.19534 0.57601 0.0
H1402 H 0.79923 0.19117 0.62372 0.0
H1403 H 0.78914 0.20327 0.59986 0.0
H1404 H 0.31291 0.87708 0.03665 0.0
H1405 H 0.35886 0.8696 0.06946 0.0
H1406 H 0.34927 0.90673 0.02327 0.0
H1407 H 0.39521 0.8992 0.05604 0.0
H1408 H 0.45505 0.93961 0.02138 0.0
H1409 H 0.41699 0.90543 0.03043 0.0
H1410 H 0.38302 0.94925 0.03064 0.0
H1411 H 0.42108 0.98338 0.02177 0.0
C1412 C 0.33078 0.88158 0.0409 0.0
C1413 C 0.33306 0.87111 0.05414 0.0
C1414 C 0.35155 0.89858 0.03327 0.0
C1415 C 0.37504 0.9052 0.03859 0.0
C1416 C 0.37733 0.89425 0.05159 0.0
C1417 C 0.35655 0.87752 0.05936 0.0
C1418 C 0.43926 0.94172 0.02301 0.0
C1419 C 0.44084 0.96402 0.02074 0.0
C1420 C 0.41758 0.92226 0.02831 0.0
C1421 C 0.3971 0.92473 0.03129 0.0
C1422 C 0.39843 0.94676 0.02833 0.0
C1423 C 0.42018 0.96628 0.02329 0.0
H1424 H 0.1396 0.49261 0.07124 0.0
H1425 H 0.12587 0.43695 0.03926 0.0
H1426 H 0.10742 0.49781 0.05969 0.0
H1427 H 0.09371 0.44223 0.02769 0.0
H1428 H 0.01725 0.43784 0.02688 0.0
H1429 H 0.05186 0.43436 0.03613 0.0
H1430 H 0.09735 0.51136 0.03525 0.0
H1431 H 0.06269 0.51476 0.02592 0.0
C1432 C 0.12975 0.48152 0.06172 0.0
C1433 C 0.13524 0.46429 0.05622 0.0
C1434 C 0.11146 0.48465 0.05503 0.0
C1435 C 0.09797 0.47039 0.0428 0.0
C1436 C 0.10366 0.45337 0.03716 0.0
C1437 C 0.12219 0.45047 0.04373 0.0
C1438 C 0.03475 0.45397 0.02851 0.0
C1439 C 0.03744 0.47651 0.02538 0.0
C1440 C 0.05457 0.452 0.03374 0.0
C1441 C 0.07738 0.47258 0.03637 0.0
C1442 C 0.08 0.49518 0.03338 0.0
C1443 C 0.06024 0.49712 0.02792 0.0
H1444 H 0.54633 0.68911 0.0379 0.0
H1445 H 0.54544 0.65755 0.08068 0.0
H1446 H 0.53631 0.65152 0.02549 0.0
H1447 H 0.53616 0.62031 0.06816 0.0
H1448 H 0.5488 0.56929 0.03824 0.0
H1449 H 0.55795 0.60679 0.05028 0.0
H1450 H 0.50093 0.6084 0.02452 0.0
H1451 H 0.49133 0.5706 0.01262 0.0
C1452 C 0.54381 0.67415 0.04469 0.0
C1453 C 0.54675 0.67642 0.06031 0.0
C1454 C 0.53815 0.65266 0.03755 0.0
C1455 C 0.53557 0.63308 0.04587 0.0
C1456 C 0.5384 0.63526 0.06147 0.0
C1457 C 0.5438 0.65664 0.06862 0.0
C1458 C 0.53818 0.57758 0.03509 0.0
C1459 C 0.51946 0.56698 0.02433 0.0
C1460 C 0.54339 0.59903 0.04205 0.0
C1461 C 0.53015 0.61047 0.03832 0.0
C1462 C 0.5116 0.60007 0.02748 0.0
C1463 C 0.50617 0.57844 0.02063 0.0
H1464 H 0.89477 0.31532 0.95478 0.0
H1465 H 0.8416 0.3387 0.95375 0.0
H1466 H 0.92419 0.35291 0.96676 0.0
H1467 H 0.87119 0.3767 0.96514 0.0
H1468 H 0.91981 0.43217 0.99893 0.0
H1469 H 0.89105 0.39424 0.98752 0.0
H1470 H 0.95006 0.39422 0.96314 0.0
H1471 H 0.97915 0.43149 0.97545 0.0
C1472 C 0.8895 0.32866 0.95698 0.0
C1473 C 0.86589 0.32407 0.9534 0.0
C1474 C 0.9064 0.35028 0.96378 0.0
C1475 C 0.90017 0.36798 0.96698 0.0
C1476 C 0.87656 0.36338 0.96318 0.0
C1477 C 0.85958 0.34164 0.95659 0.0
C1478 C 0.9268 0.4239 0.99138 0.0
C1479 C 0.95193 0.43474 0.98839 0.0
C1480 C 0.91016 0.40224 0.98459 0.0
C1481 C 0.91809 0.39101 0.97434 0.0
C1482 C 0.94324 0.40203 0.97118 0.0
C1483 C 0.95996 0.42357 0.97816 0.0
H1484 H 0.67258 0.56908 0.94582 0.0
H1485 H 0.67051 0.5129 0.97314 0.0
H1486 H 0.63575 0.56362 0.9578 0.0
H1487 H 0.63418 0.50832 0.98578 0.0
H1488 H 0.55258 0.4887 0.99125 0.0
H1489 H 0.59125 0.49376 0.98194 0.0
H1490 H 0.62078 0.57039 0.98035 0.0
H1491 H 0.58194 0.56509 0.98926 0.0
C1492 C 0.6643 0.55553 0.95439 0.0
C1493 C 0.6746 0.54135 0.95838 0.0
C1494 C 0.64329 0.55265 0.96148 0.0
C1495 C 0.63193 0.53562 0.97289 0.0
C1496 C 0.64226 0.52149 0.97698 0.0
C1497 C 0.66331 0.52432 0.96983 0.0
C1498 C 0.56753 0.50663 0.98918 0.0
C1499 C 0.56435 0.52655 0.99109 0.0
C1500 C 0.58974 0.50956 0.98383 0.0
C1501 C 0.60917 0.53249 0.98016 0.0
C1502 C 0.60613 0.55242 0.98269 0.0
C1503 C 0.58395 0.54945 0.98793 0.0
H1504 H 0.4561 0.11307 0.93316 0.0
H1505 H 0.45403 0.14313 0.97601 0.0
H1506 H 0.46614 0.08547 0.94561 0.0
H1507 H 0.46463 0.11583 0.98838 0.0
H1508 H 0.51105 0.08103 1.00171 0.0
H1509 H 0.50031 0.1086 0.98984 0.0
H1510 H 0.44595 0.05058 0.96299 0.0
H1511 H 0.45634 0.02293 0.97489 0.0
C1512 C 0.45757 0.11369 0.94523 0.0
C1513 C 0.45421 0.13033 0.95357 0.0
C1514 C 0.46341 0.09791 0.95235 0.0
C1515 C 0.46617 0.09852 0.96796 0.0
C1516 C 0.46291 0.11518 0.97632 0.0
C1517 C 0.45689 0.13084 0.96921 0.0
C1518 C 0.49658 0.07405 0.99343 0.0
C1519 C 0.48443 0.04969 0.98938 0.0
C1520 C 0.49047 0.08987 0.98662 0.0
C1521 C 0.47232 0.08172 0.97548 0.0
C1522 C 0.46019 0.05741 0.97142 0.0
C1523 C 0.46612 0.04156 0.97832 0.0
H1524 H 0.66886 0.15318 0.97337 0.0
H1525 H 0.67178 0.09707 0.94856 0.0
H1526 H 0.63348 0.123 0.98713 0.0
H1527 H 0.63586 0.06722 0.96159 0.0
H1528 H 0.5831 0.01527 0.99344 0.0
H1529 H 0.62201 0.04821 0.98488 0.0
H1530 H 0.59071 0.09447 0.98376 0.0
H1531 H 0.55201 0.06152 0.99289 0.0
C1532 C 0.66205 0.13444 0.97087 0.0
C1533 C 0.67321 0.12763 0.95978 0.0
C1534 C 0.64158 0.11714 0.97866 0.0
C1535 C 0.63179 0.0926 0.97556 0.0
C1536 C 0.64307 0.08587 0.96453 0.0
C1537 C 0.66352 0.10309 0.95683 0.0
C1538 C 0.58479 0.03267 0.99168 0.0
C1539 C 0.56468 0.03592 0.99389 0.0
C1540 C 0.60698 0.0515 0.98663 0.0
C1541 C 0.60943 0.07392 0.98328 0.0
C1542 C 0.58959 0.07752 0.98626 0.0
C1543 C 0.56739 0.05866 0.9915 0.0
H1544 H 0.84971 0.51381 0.97328 0.0
H1545 H 0.90456 0.57154 0.94676 0.0
H1546 H 0.88163 0.50897 0.98548 0.0
H1547 H 0.93607 0.56585 0.95828 0.0
H1548 H 0.99142 0.56571 0.9896 0.0
H1549 H 0.95814 0.57142 0.98072 0.0
H1550 H 0.9097 0.4947 0.98055 0.0
H1551 H 0.94302 0.48922 0.98979 0.0
C1552 C 0.86853 0.52552 0.97006 0.0
C1553 C 0.87444 0.54301 0.95894 0.0
C1554 C 0.88684 0.52254 0.97695 0.0
C1555 C 0.91152 0.53698 0.9729 0.0
C1556 C 0.91737 0.55458 0.96189 0.0
C1557 C 0.89916 0.55761 0.95508 0.0
C1558 C 0.97354 0.55013 0.98784 0.0
C1559 C 0.96969 0.52709 0.99065 0.0
C1560 C 0.95448 0.55334 0.98264 0.0
C1561 C 0.93116 0.53352 0.97977 0.0
C1562 C 0.92726 0.51042 0.98279 0.0
C1563 C 0.94636 0.50723 0.9881 0.0
H1564 H 0.49663 0.33711 0.95382 0.0
H1565 H 0.41996 0.31517 0.95484 0.0
H1566 H 0.50647 0.37474 0.96608 0.0
H1567 H 0.42958 0.35241 0.9675 0.0
H1568 H 0.45691 0.43157 0.97473 0.0
H1569 H 0.44743 0.39399 0.96287 0.0
H1570 H 0.50386 0.39182 0.98908 0.0
H1571 H 0.51429 0.43015 1.00034 0.0
C1572 C 0.48188 0.34027 0.95683 0.0
C1573 C 0.45756 0.32332 0.95333 0.0
C1574 C 0.48747 0.36177 0.96391 0.0
C1575 C 0.46882 0.36667 0.96778 0.0
C1576 C 0.44445 0.34948 0.96443 0.0
C1577 C 0.43891 0.32811 0.95722 0.0
C1578 C 0.46734 0.42313 0.97799 0.0
C1579 C 0.48622 0.43383 0.98863 0.0
C1580 C 0.46174 0.40142 0.97125 0.0
C1581 C 0.47476 0.38974 0.97506 0.0
C1582 C 0.49361 0.40041 0.98575 0.0
C1583 C 0.49938 0.42227 0.99237 0.0
H1584 H 0.11544 0.69359 0.0488 0.0
H1585 H 0.15374 0.66018 0.06791 0.0
H1586 H 0.08579 0.65527 0.03723 0.0
H1587 H 0.12369 0.62172 0.05671 0.0
H1588 H 0.04429 0.55473 0.0485 0.0
H1589 H 0.0735 0.5932 0.0601 0.0
H1590 H 0.09146 0.62629 0.0166 0.0
H1591 H 0.06262 0.58779 1.00502 0.0
C1592 C 0.11738 0.678 0.05056 0.0
C1593 C 0.1368 0.67972 0.05918 0.0
C1594 C 0.10054 0.65619 0.04394 0.0
C1595 C 0.10252 0.63566 0.04615 0.0
C1596 C 0.12177 0.63732 0.05492 0.0
C1597 C 0.13894 0.65925 0.06125 0.0
C1598 C 0.05449 0.57028 0.04147 0.0
C1599 C 0.05153 0.56838 0.02588 0.0
C1600 C 0.0712 0.59216 0.04807 0.0
C1601 C 0.08469 0.61257 0.0392 0.0
C1602 C 0.08125 0.61077 0.02364 0.0
C1603 C 0.06496 0.58877 0.01702 0.0
H1604 H 0.33259 0.43036 0.06619 0.0
H1605 H 0.33493 0.48716 0.03939 0.0
H1606 H 0.3695 0.43605 0.05423 0.0
H1607 H 0.37133 0.49196 0.02672 0.0
H1608 H 0.45308 0.51199 0.02155 0.0
H1609 H 0.41414 0.50654 0.03064 0.0
H1610 H 0.38506 0.42994 0.03181 0.0
H1611 H 0.42418 0.43565 0.02316 0.0
C1612 C 0.34093 0.44408 0.05772 0.0
C1613 C 0.33071 0.4584 0.05391 0.0
C1614 C 0.36199 0.4471 0.05064 0.0
C1615 C 0.37348 0.46439 0.03938 0.0
C1616 C 0.36317 0.47859 0.03541 0.0
C1617 C 0.34207 0.47564 0.04258 0.0
C1618 C 0.43817 0.494 0.02348 0.0
C1619 C 0.44156 0.47421 0.02155 0.0
C1620 C 0.41581 0.49082 0.02871 0.0
C1621 C 0.3964 0.46779 0.0322 0.0
C1622 C 0.39966 0.448 0.02962 0.0
C1623 C 0.42201 0.4512 0.02453 0.0
H1624 H 0.55213 0.85822 0.03734 0.0
H1625 H 0.54921 0.88727 0.08039 0.0
H1626 H 0.54143 0.88558 0.02514 0.0
H1627 H 0.53904 0.91492 0.06812 0.0
H1628 H 0.54849 0.9778 0.03939 0.0
H1629 H 0.55909 0.95017 0.0511 0.0
H1630 H 0.50565 0.89253 0.02359 0.0
H1631 H 0.49474 0.92009 0.01191 0.0
C1632 C 0.54906 0.87031 0.04422 0.0
C1633 C 0.55154 0.87052 0.05987 0.0
C1634 C 0.54298 0.886 0.03721 0.0
C1635 C 0.53944 0.90239 0.04568 0.0
C1636 C 0.542 0.9027 0.06129 0.0
C1637 C 0.5479 0.8869 0.06831 0.0
C1638 C 0.53897 0.95926 0.03578 0.0
C1639 C 0.52086 0.95124 0.02459 0.0
C1640 C 0.54501 0.94342 0.04256 0.0
C1641 C 0.5332 0.91921 0.03827 0.0
C1642 C 0.51526 0.91117 0.027 0.0
C1643 C 0.50904 0.92699 0.0203 0.0
H1644 H 1.00057 0.23875 0.39892 0.0
H1645 H 1.00218 0.18227 0.37373 0.0
H1646 H 0.03689 0.26828 0.38607 0.0
H1647 H 0.03795 0.21216 0.36013 0.0
H1648 H 0.11999 0.27252 0.35468 0.0
H1649 H 0.08086 0.23991 0.3636 0.0
H1650 H 0.05114 0.28753 0.36291 0.0
H1651 H 0.09048 0.3201 0.35461 0.0
C1652 C 0.00863 0.23258 0.39061 0.0
C1653 C 0.99844 0.20803 0.38749 0.0
C1654 C 0.0293 0.24962 0.383 0.0
C1655 C 0.04033 0.2427 0.37191 0.0
C1656 C 0.03006 0.21816 0.36865 0.0
C1657 C 0.00937 0.20103 0.37635 0.0
C1658 C 0.10486 0.27574 0.35612 0.0
C1659 C 0.10812 0.29874 0.35396 0.0
C1660 C 0.08242 0.25709 0.36123 0.0
C1661 C 0.06291 0.26117 0.36428 0.0
C1662 C 0.06591 0.28387 0.36112 0.0
C1663 C 0.08834 0.30249 0.35621 0.0
H1664 H 0.76843 0.76271 0.40094 0.0
H1665 H 0.82259 0.81961 0.37361 0.0
H1666 H 0.73673 0.76857 0.38989 0.0
H1667 H 0.79044 0.82461 0.36187 0.0
H1668 H 0.72968 0.84516 0.35825 0.0
H1669 H 0.76296 0.83942 0.36724 0.0
H1670 H 0.71382 0.76283 0.3678 0.0
H1671 H 0.68059 0.76882 0.35917 0.0
C1672 C 0.77363 0.77649 0.39255 0.0
C1673 C 0.79823 0.79083 0.38833 0.0
C1674 C 0.7553 0.77961 0.386 0.0
C1675 C 0.7609 0.79705 0.37491 0.0
C1676 C 0.78544 0.81119 0.37049 0.0
C1677 C 0.80387 0.80811 0.37711 0.0
C1678 C 0.72617 0.82712 0.36007 0.0
C1679 C 0.70268 0.80738 0.35776 0.0
C1680 C 0.74524 0.82378 0.36523 0.0
C1681 C 0.74116 0.80064 0.36834 0.0
C1682 C 0.71763 0.78094 0.36579 0.0
C1683 C 0.6986 0.78431 0.36074 0.0
H1684 H 0.24093 0.00224 0.40728 0.0
H1685 H 0.19785 0.01435 0.37452 0.0
H1686 H 0.22973 0.96417 0.39556 0.0
H1687 H 0.18848 0.97729 0.36199 0.0
H1688 H 0.15416 0.89754 0.35237 0.0
H1689 H 0.16498 0.93576 0.36398 0.0
H1690 H 0.23655 0.94646 0.37485 0.0
H1691 H 0.22515 0.90767 0.36393 0.0
C1692 C 0.22911 0.99687 0.39756 0.0
C1693 C 0.22023 0.01146 0.39195 0.0
C1694 C 0.22302 0.97514 0.39064 0.0
C1695 C 0.20823 0.96756 0.37774 0.0
C1696 C 0.19961 0.98229 0.37201 0.0
C1697 C 0.20535 0.00384 0.37908 0.0
C1698 C 0.17222 0.90811 0.35723 0.0
C1699 C 0.18877 0.89957 0.35732 0.0
C1700 C 0.17851 0.93013 0.36382 0.0
C1701 C 0.20166 0.9443 0.37043 0.0
C1702 C 0.21836 0.93587 0.3702 0.0
C1703 C 0.2119 0.91367 0.36384 0.0
H1704 H 0.52184 0.64421 0.31096 0.0
H1705 H 0.55426 0.67132 0.26771 0.0
H1706 H 0.55086 0.6825 0.32234 0.0
H1707 H 0.58381 0.7092 0.27928 0.0
H1708 H 0.6478 0.76323 0.30961 0.0
H1709 H 0.61916 0.72472 0.29819 0.0
H1710 H 0.55926 0.72567 0.32064 0.0
H1711 H 0.58758 0.76437 0.3317 0.0
C1712 C 0.53502 0.65829 0.30384 0.0
C1713 C 0.53556 0.65456 0.28837 0.0
C1714 C 0.55173 0.68019 0.3104 0.0
C1715 C 0.56959 0.69878 0.30169 0.0
C1716 C 0.57041 0.69505 0.28629 0.0
C1717 C 0.55351 0.67327 0.27968 0.0
C1718 C 0.62853 0.75527 0.31213 0.0
C1719 C 0.62009 0.76679 0.32181 0.0
C1720 C 0.61215 0.73324 0.30555 0.0
C1721 C 0.58703 0.72214 0.30863 0.0
C1722 C 0.57858 0.73363 0.31827 0.0
C1723 C 0.59487 0.75579 0.32466 0.0
H1724 H 0.31642 0.84245 0.27842 0.0
H1725 H 0.35999 0.89834 0.31016 0.0
H1726 H 0.27916 0.83637 0.29066 0.0
H1727 H 0.32266 0.89227 0.3224 0.0
H1728 H 0.24943 0.89547 0.3227 0.0
H1729 H 0.28809 0.89949 0.31416 0.0
H1730 H 0.25616 0.82263 0.3155 0.0
H1731 H 0.21752 0.81869 0.32413 0.0
C1732 C 0.31803 0.85337 0.28804 0.0
C1733 C 0.34117 0.87096 0.29326 0.0
C1734 C 0.2967 0.84974 0.29514 0.0
C1735 C 0.29796 0.86384 0.30749 0.0
C1736 C 0.32109 0.8812 0.31286 0.0
C1737 C 0.34246 0.88458 0.3059 0.0
C1738 C 0.25086 0.8795 0.32141 0.0
C1739 C 0.23063 0.85683 0.32429 0.0
C1740 C 0.27298 0.88178 0.31657 0.0
C1741 C 0.27519 0.86138 0.31414 0.0
C1742 C 0.25499 0.83867 0.31721 0.0
C1743 C 0.23295 0.83642 0.32227 0.0
H1744 H 0.14887 0.48603 0.29403 0.0
H1745 H 0.07438 0.42757 0.29267 0.0
H1746 H 0.16181 0.45991 0.30548 0.0
H1747 H 0.08709 0.40148 0.30456 0.0
H1748 H 0.12207 0.35509 0.30955 0.0
H1749 H 0.10899 0.38151 0.2991 0.0
H1750 H 0.16058 0.43907 0.32753 0.0
H1751 H 0.17477 0.41294 0.33736 0.0
C1752 C 0.13522 0.46764 0.29638 0.0
C1753 C 0.11064 0.45879 0.29244 0.0
C1754 C 0.1426 0.45267 0.303 0.0
C1755 C 0.12552 0.42855 0.30596 0.0
C1756 C 0.10083 0.41983 0.3022 0.0
C1757 C 0.0935 0.43476 0.29543 0.0
C1758 C 0.13069 0.37337 0.31361 0.0
C1759 C 0.14933 0.38178 0.32447 0.0
C1760 C 0.12298 0.3885 0.30769 0.0
C1761 C 0.13355 0.41241 0.31253 0.0
C1762 C 0.15216 0.42082 0.32342 0.0
C1763 C 0.16009 0.40573 0.32923 0.0
H1764 H 0.31313 0.46488 0.27782 0.0
H1765 H 0.3593 0.45618 0.30985 0.0
H1766 H 0.27688 0.43521 0.29128 0.0
H1767 H 0.32305 0.42648 0.32328 0.0
H1768 H 0.21762 0.39455 0.32634 0.0
H1769 H 0.2556 0.42864 0.3171 0.0
H1770 H 0.28893 0.38427 0.31577 0.0
H1771 H 0.25095 0.35025 0.32483 0.0
C1772 C 0.31551 0.45668 0.28775 0.0
C1773 C 0.33903 0.46277 0.29274 0.0
C1774 C 0.2948 0.43991 0.29555 0.0
C1775 C 0.29718 0.42861 0.30835 0.0
C1776 C 0.3207 0.4349 0.31344 0.0
C1777 C 0.34141 0.45193 0.30578 0.0
C1778 C 0.23326 0.39229 0.32439 0.0
C1779 C 0.23153 0.36988 0.32643 0.0
C1780 C 0.25489 0.41171 0.319 0.0
C1781 C 0.27517 0.40906 0.31567 0.0
C1782 C 0.27368 0.3869 0.31835 0.0
C1783 C 0.25198 0.36744 0.3235 0.0
H1784 H 0.57091 0.90212 0.2772 0.0
H1785 H 0.51708 0.84633 0.3053 0.0
H1786 H 0.60275 0.89671 0.28854 0.0
H1787 H 0.54934 0.8418 0.31727 0.0
H1788 H 0.61033 0.82181 0.32198 0.0
H1789 H 0.57698 0.82694 0.3124 0.0
H1790 H 0.62568 0.90355 0.31086 0.0
H1791 H 0.659 0.89818 0.32014 0.0
C1792 C 0.5658 0.88866 0.28581 0.0
C1793 C 0.54126 0.87455 0.2902 0.0
C1794 C 0.58421 0.88581 0.2925 0.0
C1795 C 0.57874 0.86886 0.3039 0.0
C1796 C 0.55424 0.85486 0.30843 0.0
C1797 C 0.53575 0.85767 0.30167 0.0
C1798 C 0.61374 0.83974 0.31982 0.0
C1799 C 0.63714 0.85966 0.32205 0.0
C1800 C 0.59463 0.84272 0.31431 0.0
C1801 C 0.59856 0.86568 0.31076 0.0
C1802 C 0.62199 0.88557 0.31321 0.0
C1803 C 0.64107 0.88256 0.31864 0.0
H1804 H 0.11761 0.64088 0.31078 0.0
H1805 H 0.1207 0.6715 0.26731 0.0
H1806 H 0.12978 0.67949 0.32246 0.0
H1807 H 0.13208 0.70984 0.27912 0.0
H1808 H 0.12256 0.76392 0.30831 0.0
H1809 H 0.11162 0.72565 0.29669 0.0
H1810 H 0.16722 0.72183 0.32268 0.0
H1811 H 0.17868 0.76043 0.33413 0.0
C1812 C 0.12105 0.65584 0.30369 0.0
C1813 C 0.11816 0.65303 0.28808 0.0
C1814 C 0.12794 0.67791 0.31041 0.0
C1815 C 0.1318 0.69757 0.30168 0.0
C1816 C 0.12892 0.69485 0.28611 0.0
C1817 C 0.1223 0.67286 0.27937 0.0
C1818 C 0.13251 0.755 0.31159 0.0
C1819 C 0.15133 0.76518 0.32232 0.0
C1820 C 0.12627 0.73311 0.30487 0.0
C1821 C 0.13855 0.72081 0.30882 0.0
C1822 C 0.15728 0.73085 0.31957 0.0
C1823 C 0.16376 0.75292 0.32616 0.0
H1824 H 0.81871 0.02277 0.37018 0.0
H1825 H 0.7868 0.99465 0.41341 0.0
H1826 H 0.78975 0.98465 0.3586 0.0
H1827 H 0.75726 0.95697 0.40162 0.0
H1828 H 0.69288 0.90402 0.37097 0.0
H1829 H 0.72169 0.94221 0.38265 0.0
H1830 H 0.78141 0.94121 0.36001 0.0
H1831 H 0.75292 0.90277 0.34871 0.0
C1832 C 0.80567 0.00851 0.37726 0.0
C1833 C 0.80525 0.01191 0.39278 0.0
C1834 C 0.78899 0.98671 0.37058 0.0
C1835 C 0.77126 0.96791 0.37922 0.0
C1836 C 0.77057 0.97129 0.39468 0.0
C1837 C 0.78747 0.99296 0.4014 0.0
C1838 C 0.71214 0.91189 0.36846 0.0
C1839 C 0.72049 0.90043 0.35867 0.0
C1840 C 0.72862 0.93374 0.3752 0.0
C1841 C 0.75373 0.94472 0.37214 0.0
C1842 C 0.7621 0.93331 0.36238 0.0
C1843 C 0.7457 0.91131 0.35584 0.0
H1844 H 0.00265 0.82065 0.37319 0.0
H1845 H 0.99992 0.76387 0.4002 0.0
H1846 H 0.03911 0.82528 0.36067 0.0
H1847 H 0.03683 0.76933 0.38834 0.0
H1848 H 0.09106 0.76826 0.35706 0.0
H1849 H 0.05209 0.76293 0.36574 0.0
H1850 H 0.08201 0.83965 0.36491 0.0
H1851 H 0.12083 0.84475 0.35584 0.0
C1852 C 0.00973 0.8091 0.37646 0.0
C1853 C 0.99824 0.79192 0.3878 0.0
C1854 C 0.03084 0.81195 0.36937 0.0
C1855 C 0.04101 0.79767 0.37342 0.0
C1856 C 0.02942 0.78044 0.3847 0.0
C1857 C 0.00836 0.77755 0.39172 0.0
C1858 C 0.08911 0.78393 0.3585 0.0
C1859 C 0.10884 0.80686 0.3556 0.0
C1860 C 0.06685 0.78093 0.36361 0.0
C1861 C 0.06387 0.80087 0.36628 0.0
C1862 C 0.08347 0.82385 0.3629 0.0
C1863 C 0.10576 0.82681 0.35768 0.0
H1864 H 0.25527 0.23185 0.39202 0.0
H1865 H 0.17954 0.17616 0.39017 0.0
H1866 H 0.24503 0.25924 0.37948 0.0
H1867 H 0.16906 0.20367 0.37798 0.0
H1868 H 0.16158 0.25252 0.34439 0.0
H1869 H 0.17273 0.22474 0.35537 0.0
H1870 H 0.2249 0.28127 0.38415 0.0
H1871 H 0.21475 0.30922 0.37268 0.0
C1872 C 0.23638 0.22556 0.38905 0.0
C1873 C 0.21819 0.20192 0.39211 0.0
C1874 C 0.23047 0.24125 0.38188 0.0
C1875 C 0.20618 0.23373 0.37776 0.0
C1876 C 0.188 0.20999 0.38077 0.0
C1877 C 0.19397 0.19424 0.38781 0.0
C1878 C 0.1757 0.25912 0.35289 0.0
C1879 C 0.18747 0.28323 0.35748 0.0
C1880 C 0.18189 0.2431 0.35933 0.0
C1881 C 0.19979 0.25075 0.37064 0.0
C1882 C 0.21139 0.27482 0.37527 0.0
C1883 C 0.20539 0.29085 0.36875 0.0
H1884 H 0.68966 0.53663 0.73391 0.0
H1885 H 0.64539 0.54934 0.70253 0.0
H1886 H 0.72657 0.56601 0.72093 0.0
H1887 H 0.68236 0.57873 0.68952 0.0
H1888 H 0.75631 0.6533 0.68885 0.0
H1889 H 0.71741 0.61977 0.69724 0.0
H1890 H 0.74835 0.57332 0.6957 0.0
H1891 H 0.78727 0.60695 0.68724 0.0
C1892 C 0.68783 0.54565 0.72421 0.0
C1893 C 0.66465 0.54079 0.71929 0.0
C1894 C 0.70893 0.56227 0.71668 0.0
C1895 C 0.70733 0.57462 0.70419 0.0
C1896 C 0.68413 0.56952 0.69914 0.0
C1897 C 0.663 0.55265 0.70655 0.0
C1898 C 0.75456 0.63578 0.69 0.0
C1899 C 0.77462 0.63261 0.68723 0.0
C1900 C 0.73233 0.61659 0.69475 0.0
C1901 C 0.72988 0.59396 0.69718 0.0
C1902 C 0.74978 0.59061 0.694 0.0
C1903 C 0.77196 0.60978 0.68903 0.0
H1904 H 0.47062 0.15755 0.73747 0.0
H1905 H 0.45729 0.10212 0.70542 0.0
H1906 H 0.43868 0.16292 0.72573 0.0
H1907 H 0.42533 0.10753 0.69366 0.0
H1908 H 0.34891 0.10377 0.69261 0.0
H1909 H 0.38329 0.09985 0.70184 0.0
H1910 H 0.42934 0.17679 0.70116 0.0
H1911 H 0.39496 0.18062 0.69191 0.0
C1912 C 0.4609 0.14655 0.7279 0.0
C1913 C 0.46644 0.12934 0.72242 0.0
C1914 C 0.44275 0.14977 0.72109 0.0
C1915 C 0.42945 0.13562 0.70877 0.0
C1916 C 0.43515 0.11858 0.70319 0.0
C1917 C 0.45355 0.1156 0.70987 0.0
C1918 C 0.36649 0.11978 0.69426 0.0
C1919 C 0.36941 0.14244 0.69123 0.0
C1920 C 0.38618 0.11756 0.69948 0.0
C1921 C 0.40906 0.13801 0.7022 0.0
C1922 C 0.41193 0.16071 0.69923 0.0
C1923 C 0.39232 0.1629 0.69379 0.0
H1924 H 0.88659 0.32826 0.74702 0.0
H1925 H 0.88459 0.35762 0.70397 0.0
H1926 H 0.87622 0.2903 0.73509 0.0
H1927 H 0.87361 0.31939 0.69214 0.0
H1928 H 0.82627 0.23855 0.68081 0.0
H1929 H 0.83789 0.27713 0.69225 0.0
H1930 H 0.89502 0.27419 0.71706 0.0
H1931 H 0.88376 0.23577 0.70547 0.0
C1932 C 0.88416 0.32673 0.73501 0.0
C1933 C 0.88646 0.34605 0.72647 0.0
C1934 C 0.87815 0.30494 0.72819 0.0
C1935 C 0.8741 0.30191 0.7127 0.0
C1936 C 0.87635 0.32115 0.70414 0.0
C1937 C 0.88256 0.34302 0.71093 0.0
C1938 C 0.84155 0.24624 0.68852 0.0
C1939 C 0.85427 0.23415 0.69205 0.0
C1940 C 0.84815 0.26834 0.6951 0.0
C1941 C 0.86739 0.27867 0.70551 0.0
C1942 C 0.88 0.26654 0.70915 0.0
C1943 C 0.87356 0.24456 0.70246 0.0
H1944 H 0.1765 0.00134 0.62061 0.0
H1945 H 0.23045 0.97907 0.62326 0.0
H1946 H 0.20541 0.03985 0.63171 0.0
H1947 H 0.25922 0.01724 0.63491 0.0
H1948 H 0.31304 0.09655 0.64238 0.0
H1949 H 0.28457 0.05856 0.63059 0.0
H1950 H 0.22475 0.0583 0.65414 0.0
H1951 H 0.25291 0.09689 0.66507 0.0
C1952 C 0.1945 0.00463 0.62375 0.0
C1953 C 0.20122 0.98721 0.6211 0.0
C1954 C 0.21109 0.02668 0.63017 0.0
C1955 C 0.23473 0.03175 0.63431 0.0
C1956 C 0.24138 0.01422 0.63166 0.0
C1957 C 0.22487 0.99227 0.62505 0.0
C1958 C 0.29381 0.08841 0.64502 0.0
C1959 C 0.28538 0.09972 0.65487 0.0
C1960 C 0.27745 0.06647 0.63834 0.0
C1961 C 0.25226 0.05516 0.64142 0.0
C1962 C 0.24391 0.06651 0.6513 0.0
C1963 C 0.2602 0.08857 0.6578 0.0
H1964 H 0.98295 0.17941 0.61192 0.0
H1965 H 0.0263 0.23366 0.64461 0.0
H1966 H 0.9456 0.17292 0.62426 0.0
H1967 H 0.98892 0.22715 0.65696 0.0
H1968 H 0.91614 0.23084 0.65803 0.0
H1969 H 0.95473 0.23498 0.64931 0.0
H1970 H 0.92217 0.15801 0.64889 0.0
H1971 H 0.88356 0.15394 0.65773 0.0
C1972 C 0.9845 0.1899 0.62176 0.0
C1973 C 0.00762 0.20714 0.62723 0.0
C1974 C 0.96311 0.18601 0.62892 0.0
C1975 C 0.96429 0.19951 0.6416 0.0
C1976 C 0.9874 0.21654 0.64718 0.0
C1977 C 0.0088 0.22018 0.64015 0.0
C1978 C 0.91741 0.21484 0.65634 0.0
C1979 C 0.89699 0.19211 0.65877 0.0
C1980 C 0.9395 0.2172 0.65138 0.0
C1981 C 0.94151 0.19683 0.64837 0.0
C1982 C 0.92115 0.17404 0.65103 0.0
C1983 C 0.89912 0.1717 0.65622 0.0
H1984 H 0.7923 0.81342 0.64215 0.0
H1985 H 0.79412 0.78288 0.59943 0.0
H1986 H 0.80265 0.78602 0.65466 0.0
H1987 H 0.80386 0.75517 0.61202 0.0
H1988 H 0.79128 0.69183 0.64146 0.0
H1989 H 0.78231 0.72036 0.62943 0.0
H1990 H 0.83761 0.77744 0.65639 0.0
H1991 H 0.84697 0.74895 0.66838 0.0
C1992 C 0.79512 0.80105 0.6354 0.0
C1993 C 0.7923 0.80035 0.61976 0.0
C1994 C 0.80099 0.78533 0.64259 0.0
C1995 C 0.80395 0.76841 0.63432 0.0
C1996 C 0.80132 0.76779 0.6187 0.0
C1997 C 0.79566 0.78363 0.6115 0.0
C1998 C 0.80158 0.71043 0.64489 0.0
C1999 C 0.81977 0.71802 0.656 0.0
C2000 C 0.79647 0.72679 0.63792 0.0
C2001 C 0.8093 0.75112 0.64194 0.0
C2002 C 0.82728 0.75874 0.65317 0.0
C2003 C 0.83258 0.74238 0.66006 0.0
H2004 H 0.02636 0.78699 0.64295 0.0
H2005 H 0.98105 0.79688 0.61086 0.0
H2006 H 0.98976 0.75752 0.65624 0.0
H2007 H 0.94448 0.76748 0.62418 0.0
H2008 H 0.91645 0.68198 0.65756 0.0
H2009 H 0.95495 0.71555 0.64868 0.0
H2010 H 0.92323 0.76132 0.64992 0.0
H2011 H 0.88476 0.72773 0.65895 0.0
C2012 C 0.00859 0.78304 0.63884 0.0
C2013 C 0.00654 0.79414 0.62583 0.0
C2014 C 0.98768 0.76614 0.64641 0.0
C2015 C 0.9643 0.76029 0.64127 0.0
C2016 C 0.96227 0.77184 0.62849 0.0
C2017 C 0.98317 0.78846 0.62078 0.0
C2018 C 0.91795 0.69938 0.65625 0.0
C2019 C 0.8978 0.70236 0.6591 0.0
C2020 C 0.93995 0.71858 0.65121 0.0
C2021 C 0.94203 0.741 0.64854 0.0
C2022 C 0.92207 0.74418 0.6518 0.0
C2023 C 0.90015 0.72504 0.65709 0.0
H2024 H 0.21525 0.23467 0.64305 0.0
H2025 H 0.2006 0.17984 0.61025 0.0
H2026 H 0.24691 0.22824 0.65433 0.0
H2027 H 0.23217 0.17342 0.62152 0.0
H2028 H 0.2756 0.15399 0.65459 0.0
H2029 H 0.24144 0.15867 0.64587 0.0
H2030 H 0.28864 0.23546 0.6454 0.0
H2031 H 0.32279 0.23069 0.65406 0.0
C2032 C 0.21862 0.22109 0.63835 0.0
C2033 C 0.2055 0.20784 0.62571 0.0
C2034 C 0.23684 0.21752 0.64474 0.0
C2035 C 0.24206 0.20036 0.63879 0.0
C2036 C 0.22847 0.18666 0.62642 0.0
C2037 C 0.21053 0.19047 0.61989 0.0
C2038 C 0.27854 0.17185 0.65284 0.0
C2039 C 0.30169 0.19203 0.65529 0.0
C2040 C 0.25906 0.17453 0.64773 0.0
C2041 C 0.26232 0.19745 0.645 0.0
C2042 C 0.28546 0.2176 0.64759 0.0
C2043 C 0.30501 0.2149 0.65248 0.0
H2044 H 0.74894 0.98135 0.62204 0.0
H2045 H 0.82547 0.00281 0.62021 0.0
H2046 H 0.75925 0.0192 0.63419 0.0
H2047 H 0.83593 0.04089 0.63201 0.0
H2048 H 0.84514 0.0963 0.66652 0.0
H2049 H 0.83387 0.05787 0.65519 0.0
H2050 H 0.77759 0.0611 0.62946 0.0
H2051 H 0.788 0.09897 0.64141 0.0
C2052 C 0.76799 0.99429 0.62412 0.0
C2053 C 0.7864 0.98914 0.62022 0.0
C2054 C 0.77392 0.016 0.63104 0.0
C2055 C 0.79844 0.03314 0.63409 0.0
C2056 C 0.81684 0.02796 0.63009 0.0
C2057 C 0.81087 0.00617 0.62329 0.0
C2058 C 0.8301 0.08868 0.65863 0.0
C2059 C 0.81726 0.10062 0.65506 0.0
C2060 C 0.82385 0.06674 0.65196 0.0
C2061 C 0.80481 0.05633 0.64138 0.0
C2062 C 0.79208 0.06836 0.63773 0.0
C2063 C 0.79819 0.09022 0.64452 0.0
H2064 H 0.49324 0.34983 0.70534 0.0
H2065 H 0.43964 0.34005 0.7387 0.0
H2066 H 0.46393 0.31223 0.69364 0.0
H2067 H 0.41103 0.30155 0.7277 0.0
H2068 H 0.35652 0.24282 0.69705 0.0
H2069 H 0.38499 0.28216 0.70737 0.0
H2070 H 0.44531 0.2708 0.69706 0.0
H2071 H 0.41696 0.23204 0.68625 0.0
C2072 C 0.47521 0.33974 0.71019 0.0
C2073 C 0.46894 0.34811 0.72303 0.0
C2074 C 0.45846 0.31789 0.70359 0.0
C2075 C 0.43506 0.30361 0.70975 0.0
C2076 C 0.42872 0.31208 0.7225 0.0
C2077 C 0.44536 0.33408 0.72899 0.0
C2078 C 0.37587 0.24878 0.69698 0.0
C2079 C 0.38447 0.23435 0.69078 0.0
C2080 C 0.39223 0.27131 0.70297 0.0
C2081 C 0.41757 0.27981 0.70308 0.0
C2082 C 0.42605 0.2652 0.69692 0.0
C2083 C 0.40974 0.24284 0.69079 0.0
H2084 H 0.6644 0.09715 0.73243 0.0
H2085 H 0.66787 0.15546 0.70674 0.0
H2086 H 0.70138 0.10301 0.72049 0.0
H2087 H 0.70443 0.16051 0.6941 0.0
H2088 H 0.78612 0.17957 0.68915 0.0
H2089 H 0.74726 0.17438 0.69827 0.0
H2090 H 0.71676 0.09756 0.69772 0.0
H2091 H 0.75574 0.10296 0.68906 0.0
C2092 C 0.67301 0.11125 0.72422 0.0
C2093 C 0.66308 0.12592 0.72069 0.0
C2094 C 0.69412 0.11438 0.71714 0.0
C2095 C 0.70596 0.13215 0.70619 0.0
C2096 C 0.69597 0.14676 0.70255 0.0
C2097 C 0.67481 0.14366 0.70969 0.0
C2098 C 0.77092 0.16161 0.69072 0.0
C2099 C 0.77385 0.14163 0.6883 0.0
C2100 C 0.74861 0.15859 0.69595 0.0
C2101 C 0.72884 0.13553 0.69898 0.0
C2102 C 0.73166 0.11561 0.6959 0.0
C2103 C 0.75393 0.11865 0.6908 0.0
H2104 H 0.87819 0.5522 0.74751 0.0
H2105 H 0.88002 0.52142 0.70487 0.0
H2106 H 0.86848 0.57987 0.73481 0.0
H2107 H 0.86968 0.54875 0.69227 0.0
H2108 H 0.82537 0.58581 0.6784 0.0
H2109 H 0.83467 0.55733 0.69049 0.0
H2110 H 0.89014 0.61456 0.71728 0.0
H2111 H 0.88124 0.64306 0.70516 0.0
C2112 C 0.87666 0.55139 0.73544 0.0
C2113 C 0.88 0.53461 0.72723 0.0
C2114 C 0.87101 0.56719 0.72817 0.0
C2115 C 0.86838 0.56648 0.71255 0.0
C2116 C 0.87133 0.54951 0.70434 0.0
C2117 C 0.8772 0.53383 0.71159 0.0
C2118 C 0.83977 0.5924 0.68671 0.0
C2119 C 0.85265 0.61679 0.69069 0.0
C2120 C 0.84505 0.57606 0.69366 0.0
C2121 C 0.86305 0.58374 0.70487 0.0
C2122 C 0.87595 0.60809 0.70881 0.0
C2123 C 0.87088 0.62443 0.70178 0.0
H2124 H 0.46947 0.91161 0.16839 0.0
H2125 H 0.48079 0.97734 0.1885 0.0
H2126 H 0.48054 0.93129 0.14389 0.0
H2127 H 0.49213 0.99702 0.16413 0.0
H2128 H 0.54026 0.02943 0.12223 0.0
H2129 H 0.52815 0.0082 0.1459 0.0
H2130 H 0.46361 0.95108 0.12507 0.0
H2131 H 0.47495 0.97282 0.10138 0.0
C2132 C 0.47434 0.93025 0.16757 0.0
C2133 C 0.47424 0.94293 0.18037 0.0
C2134 C 0.48054 0.94145 0.15355 0.0
C2135 C 0.48728 0.96571 0.1521 0.0
C2136 C 0.48718 0.97835 0.16491 0.0
C2137 C 0.48054 0.96705 0.17884 0.0
C2138 C 0.52327 0.01253 0.12262 0.0
C2139 C 0.50846 0.00316 0.10978 0.0
C2140 C 0.51643 0.00029 0.13624 0.0
C2141 C 0.49484 0.97807 0.13739 0.0
C2142 C 0.48042 0.96815 0.12451 0.0
C2143 C 0.48704 0.98061 0.11089 0.0
H2144 H 0.06278 0.53469 0.17032 0.0
H2145 H 0.99161 0.48778 0.18904 0.0
H2146 H 0.04473 0.5271 0.14524 0.0
H2147 H 0.9735 0.48039 0.16396 0.0
H2148 H 0.95152 0.50283 0.11919 0.0
H2149 H 0.96896 0.50785 0.14416 0.0
H2150 H 0.02193 0.49014 0.12731 0.0
H2151 H 0.00388 0.48393 0.10242 0.0
C2152 C 0.04329 0.52274 0.16903 0.0
C2153 C 0.02854 0.51182 0.18156 0.0
C2154 C 0.03302 0.51831 0.15471 0.0
C2155 C 0.00775 0.50322 0.15272 0.0
C2156 C 0.99302 0.49221 0.16524 0.0
C2157 C 0.00336 0.4963 0.17954 0.0
C2158 C 0.96659 0.49956 0.12079 0.0
C2159 C 0.97622 0.49294 0.1087 0.0
C2160 C 0.97662 0.50255 0.1351 0.0
C2161 C 0.99675 0.49938 0.13762 0.0
C2162 C 0.00653 0.4929 0.12561 0.0
C2163 C 0.99625 0.48951 0.11133 0.0
H2164 H 0.49992 0.55901 0.17477 0.0
H2165 H 0.45037 0.48286 0.17905 0.0
H2166 H 0.51239 0.55248 0.15031 0.0
H2167 H 0.46246 0.47651 0.15428 0.0
H2168 H 0.47625 0.48011 0.1028 0.0
H2169 H 0.46133 0.48636 0.12672 0.0
H2170 H 0.53574 0.53273 0.14125 0.0
H2171 H 0.55058 0.5266 0.11741 0.0
C2172 C 0.4917 0.54085 0.17055 0.0
C2173 C 0.47436 0.52144 0.17906 0.0
C2174 C 0.49881 0.53714 0.15648 0.0
C2175 C 0.48857 0.51397 0.15042 0.0
C2176 C 0.47057 0.4946 0.15862 0.0
C2177 C 0.46361 0.49828 0.17281 0.0
C2178 C 0.48937 0.49173 0.11109 0.0
C2179 C 0.51459 0.50284 0.10824 0.0
C2180 C 0.48084 0.49515 0.12481 0.0
C2181 C 0.49736 0.51007 0.13585 0.0
C2182 C 0.52255 0.52131 0.13292 0.0
C2183 C 0.53106 0.51764 0.11932 0.0
H2184 H 0.96039 0.44464 0.83879 0.0
H2185 H 0.98816 0.52069 0.83405 0.0
H2186 H 0.97912 0.45153 0.86345 0.0
H2187 H 0.00643 0.52742 0.85895 0.0
H2188 H 0.01166 0.52388 0.91071 0.0
H2189 H 0.99329 0.51795 0.88583 0.0
H2190 H 0.02133 0.47114 0.87421 0.0
H2191 H 0.03937 0.47679 0.8991 0.0
C2192 C 0.97064 0.46286 0.84293 0.0
C2193 C 0.9729 0.48213 0.83434 0.0
C2194 C 0.98132 0.46677 0.8571 0.0
C2195 C 0.99433 0.49002 0.8631 0.0
C2196 C 0.99632 0.50928 0.85466 0.0
C2197 C 0.98579 0.50539 0.84041 0.0
C2198 C 0.01381 0.51227 0.90284 0.0
C2199 C 0.02692 0.50077 0.90685 0.0
C2200 C 0.00349 0.50905 0.88857 0.0
C2201 C 0.00584 0.49405 0.8781 0.0
C2202 C 0.01903 0.48263 0.8821 0.0
C2203 C 0.02954 0.48603 0.8963 0.0
H2204 H 0.50812 0.4411 0.83887 0.0
H2205 H 0.55406 0.5176 0.83331 0.0
H2206 H 0.49565 0.44768 0.86333 0.0
H2207 H 0.54207 0.52401 0.85809 0.0
H2208 H 0.5296 0.52145 0.90977 0.0
H2209 H 0.54471 0.51523 0.8859 0.0
H2210 H 0.47056 0.46625 0.872 0.0
H2211 H 0.45552 0.47245 0.89576 0.0
C2212 C 0.51557 0.45934 0.84282 0.0
C2213 C 0.53187 0.47883 0.83394 0.0
C2214 C 0.50846 0.46307 0.85688 0.0
C2215 C 0.51771 0.48636 0.86257 0.0
C2216 C 0.53475 0.50584 0.85402 0.0
C2217 C 0.54166 0.50214 0.83983 0.0
C2218 C 0.51659 0.50929 0.90162 0.0
C2219 C 0.49138 0.49746 0.90461 0.0
C2220 C 0.52521 0.50586 0.88794 0.0
C2221 C 0.50882 0.49022 0.87711 0.0
C2222 C 0.48365 0.47825 0.88018 0.0
C2223 C 0.47503 0.48194 0.89373 0.0
H2224 H 0.53348 0.08845 0.84476 0.0
H2225 H 0.52494 0.02349 0.82519 0.0
H2226 H 0.52473 0.06987 0.86944 0.0
H2227 H 0.51506 0.00441 0.84957 0.0
H2228 H 0.51872 0.98077 0.89608 0.0
H2229 H 0.5305 0.00212 0.87243 0.0
H2230 H 0.49533 0.04218 0.88555 0.0
H2231 H 0.48478 0.0215 0.9096 0.0
C2232 C 0.52949 0.07009 0.84573 0.0
C2233 C 0.53007 0.0575 0.83303 0.0
C2234 C 0.52434 0.05933 0.85989 0.0
C2235 C 0.51926 0.03554 0.8617 0.0
C2236 C 0.5195 0.02292 0.84886 0.0
C2237 C 0.52503 0.03381 0.83479 0.0
C2238 C 0.51368 0.99428 0.89392 0.0
C2239 C 0.50075 0.99939 0.90466 0.0
C2240 C 0.52023 0.00643 0.88026 0.0
C2241 C 0.5136 0.02377 0.87679 0.0
C2242 C 0.50107 0.02922 0.88775 0.0
C2243 C 0.4949 0.01731 0.90156 0.0
H2244 H 0.11284 0.25255 0.50408 0.0
H2245 H 0.1777 0.31251 0.52269 0.0
H2246 H 0.12439 0.2704 0.47922 0.0
H2247 H 0.1889 0.33074 0.49809 0.0
H2248 H 0.21718 0.34719 0.45108 0.0
H2249 H 0.20425 0.32721 0.4751 0.0
H2250 H 0.12883 0.30145 0.46305 0.0
H2251 H 0.14197 0.32093 0.43869 0.0
C2252 C 0.12943 0.26969 0.50288 0.0
C2253 C 0.14446 0.28099 0.51536 0.0
C2254 C 0.13605 0.27999 0.48861 0.0
C2255 C 0.15778 0.30198 0.48648 0.0
C2256 C 0.17241 0.3135 0.4991 0.0
C2257 C 0.16593 0.3031 0.51328 0.0
C2258 C 0.19783 0.33721 0.45355 0.0
C2259 C 0.18063 0.33581 0.44301 0.0
C2260 C 0.19036 0.32584 0.4674 0.0
C2261 C 0.16544 0.31292 0.47125 0.0
C2262 C 0.14815 0.31102 0.46052 0.0
C2263 C 0.15566 0.32223 0.44654 0.0
H2264 H 0.66407 0.84988 0.52109 0.0
H2265 H 0.7265 0.84925 0.50211 0.0
H2266 H 0.64544 0.84309 0.49636 0.0
H2267 H 0.70823 0.84304 0.47729 0.0
H2268 H 0.65898 0.81084 0.43653 0.0
H2269 H 0.67601 0.81497 0.46159 0.0
H2270 H 0.65023 0.86359 0.47343 0.0
H2271 H 0.63277 0.85897 0.44851 0.0
C2272 C 0.67385 0.8484 0.5116 0.0
C2273 C 0.69675 0.85014 0.51352 0.0
C2274 C 0.66323 0.8446 0.49741 0.0
C2275 C 0.67537 0.84265 0.48478 0.0
C2276 C 0.69817 0.84409 0.48677 0.0
C2277 C 0.70869 0.8477 0.50099 0.0
C2278 C 0.65703 0.82245 0.4445 0.0
C2279 C 0.64452 0.83456 0.44057 0.0
C2280 C 0.66684 0.82487 0.45885 0.0
C2281 C 0.66451 0.83961 0.46957 0.0
C2282 C 0.65198 0.85172 0.46559 0.0
C2283 C 0.64202 0.84915 0.45129 0.0
H2284 H 0.17566 0.84789 0.52198 0.0
H2285 H 0.11417 0.84954 0.5022 0.0
H2286 H 0.18802 0.84159 0.49743 0.0
H2287 H 0.12688 0.84392 0.47743 0.0
H2288 H 0.14549 0.81257 0.43649 0.0
H2289 H 0.13104 0.81703 0.46095 0.0
H2290 H 0.20582 0.86275 0.47526 0.0
H2291 H 0.22009 0.85769 0.45103 0.0
C2292 C 0.16486 0.84703 0.51233 0.0
C2293 C 0.14404 0.84937 0.51401 0.0
C2294 C 0.172 0.84355 0.49821 0.0
C2295 C 0.15868 0.84256 0.48533 0.0
C2296 C 0.1375 0.84436 0.48707 0.0
C2297 C 0.1302 0.84762 0.50126 0.0
C2298 C 0.15878 0.82366 0.44486 0.0
C2299 C 0.18393 0.83461 0.44187 0.0
C2300 C 0.15052 0.82628 0.45889 0.0
C2301 C 0.16722 0.84008 0.47021 0.0
C2302 C 0.19237 0.85146 0.46702 0.0
C2303 C 0.2006 0.84866 0.45308 0.0
H2304 H 0.64654 0.78519 0.16675 0.0
H2305 H 0.63565 0.84595 0.1722 0.0
H2306 H 0.6653 0.79282 0.19145 0.0
H2307 H 0.6556 0.85412 0.19662 0.0
H2308 H 0.71838 0.8728 0.23173 0.0
H2309 H 0.69949 0.86573 0.20687 0.0
H2310 H 0.6495 0.79219 0.21873 0.0
H2311 H 0.66815 0.79935 0.24362 0.0
C2312 C 0.64799 0.8001 0.17318 0.0
C2313 C 0.63933 0.81483 0.16743 0.0
C2314 C 0.65889 0.80451 0.18731 0.0
C2315 C 0.66182 0.82401 0.1959 0.0
C2316 C 0.6537 0.83907 0.19013 0.0
C2317 C 0.6424 0.83442 0.1761 0.0
C2318 C 0.70339 0.85514 0.22897 0.0
C2319 C 0.6947 0.83659 0.23953 0.0
C2320 C 0.69252 0.85115 0.21483 0.0
C2321 C 0.6731 0.82842 0.21093 0.0
C2322 C 0.66455 0.80983 0.22146 0.0
C2323 C 0.6751 0.81394 0.23568 0.0
H2324 H 0.22489 0.8171 0.17751 0.0
H2325 H 0.16383 0.81977 0.15791 0.0
H2326 H 0.21228 0.82255 0.20234 0.0
H2327 H 0.15155 0.82583 0.18255 0.0
H2328 H 0.11938 0.80893 0.22898 0.0
H2329 H 0.13357 0.80423 0.20464 0.0
H2330 H 0.2084 0.84951 0.21899 0.0
H2331 H 0.19403 0.85369 0.24355 0.0
C2332 C 0.20898 0.81921 0.1785 0.0
C2333 C 0.19524 0.8178 0.16577 0.0
C2334 C 0.20175 0.82237 0.19273 0.0
C2335 C 0.18069 0.82438 0.19454 0.0
C2336 C 0.16746 0.82372 0.18169 0.0
C2337 C 0.17457 0.82037 0.16753 0.0
C2338 C 0.13886 0.81796 0.22692 0.0
C2339 C 0.15556 0.8318 0.23818 0.0
C2340 C 0.14705 0.81535 0.21292 0.0
C2341 C 0.17219 0.8267 0.20971 0.0
C2342 C 0.18893 0.8403 0.22106 0.0
C2343 C 0.18071 0.84275 0.23515 0.0
H2344 H 0.16176 0.38589 0.16765 0.0
H2345 H 0.23628 0.40082 0.17198 0.0
H2346 H 0.1527 0.36784 0.19241 0.0
H2347 H 0.22668 0.38172 0.19644 0.0
H2348 H 0.18725 0.31652 0.22923 0.0
H2349 H 0.19907 0.33887 0.20577 0.0
H2350 H 0.16482 0.37904 0.22012 0.0
H2351 H 0.15321 0.35678 0.24375 0.0
C2352 C 0.17634 0.38564 0.17386 0.0
C2353 C 0.19981 0.39488 0.1676 0.0
C2354 C 0.17105 0.37516 0.18809 0.0
C2355 C 0.18894 0.37327 0.19637 0.0
C2356 C 0.21242 0.38265 0.19025 0.0
C2357 C 0.21784 0.39348 0.17614 0.0
C2358 C 0.18239 0.33024 0.22741 0.0
C2359 C 0.16926 0.33486 0.23831 0.0
C2360 C 0.18927 0.34313 0.21402 0.0
C2361 C 0.18283 0.36068 0.21106 0.0
C2362 C 0.16992 0.36552 0.22203 0.0
C2363 C 0.16342 0.35291 0.23559 0.0
H2364 H 0.84555 0.64337 0.85484 0.0
H2365 H 0.78043 0.58398 0.83604 0.0
H2366 H 0.85678 0.66199 0.83036 0.0
H2367 H 0.792 0.60221 0.81129 0.0
H2368 H 0.80927 0.65368 0.77134 0.0
H2369 H 0.79635 0.63356 0.79552 0.0
H2370 H 0.8719 0.65913 0.80716 0.0
H2371 H 0.8846 0.67979 0.78333 0.0
C2372 C 0.83374 0.63415 0.84541 0.0
C2373 C 0.81216 0.61211 0.84741 0.0
C2374 C 0.84024 0.64478 0.83129 0.0
C2375 C 0.82551 0.63357 0.81866 0.0
C2376 C 0.80373 0.61159 0.8207 0.0
C2377 C 0.79709 0.60106 0.83491 0.0
C2378 C 0.82304 0.6548 0.77906 0.0
C2379 C 0.84797 0.66854 0.77548 0.0
C2380 C 0.81566 0.64322 0.79294 0.0
C2381 C 0.83304 0.64487 0.80351 0.0
C2382 C 0.85793 0.65793 0.7996 0.0
C2383 C 0.86527 0.6697 0.78585 0.0
H2384 H 0.35903 0.2154 0.84656 0.0
H2385 H 0.37015 0.1548 0.84093 0.0
H2386 H 0.34025 0.20784 0.82186 0.0
H2387 H 0.35017 0.1467 0.81652 0.0
H2388 H 0.28734 0.12808 0.78143 0.0
H2389 H 0.30624 0.13504 0.80627 0.0
H2390 H 0.3561 0.20868 0.79458 0.0
H2391 H 0.33743 0.20165 0.7697 0.0
C2392 C 0.35763 0.20055 0.84008 0.0
C2393 C 0.36636 0.18585 0.84578 0.0
C2394 C 0.34671 0.19617 0.82597 0.0
C2395 C 0.34384 0.17674 0.81733 0.0
C2396 C 0.35202 0.1617 0.82305 0.0
C2397 C 0.36334 0.16631 0.83707 0.0
C2398 C 0.30231 0.14573 0.78422 0.0
C2399 C 0.31095 0.16435 0.77371 0.0
C2400 C 0.31318 0.14966 0.79835 0.0
C2401 C 0.33256 0.17239 0.80229 0.0
C2402 C 0.34108 0.19104 0.79182 0.0
C2403 C 0.33051 0.187 0.77761 0.0
H2404 H 0.8139 0.15903 0.85464 0.0
H2405 H 0.79831 0.21057 0.83419 0.0
H2406 H 0.82617 0.15112 0.8303 0.0
H2407 H 0.81035 0.20246 0.80981 0.0
H2408 H 0.80829 0.1581 0.76743 0.0
H2409 H 0.79532 0.16626 0.79134 0.0
H2410 H 0.86167 0.17665 0.81201 0.0
H2411 H 0.87537 0.16971 0.78806 0.0
C2412 C 0.81289 0.16848 0.84491 0.0
C2413 C 0.80518 0.18542 0.84629 0.0
C2414 C 0.82006 0.16409 0.83102 0.0
C2415 C 0.81926 0.17623 0.81819 0.0
C2416 C 0.81104 0.19278 0.81951 0.0
C2417 C 0.80429 0.1975 0.83345 0.0
C2418 C 0.82039 0.16254 0.77696 0.0
C2419 C 0.84293 0.16315 0.7757 0.0
C2420 C 0.81283 0.16707 0.79069 0.0
C2421 C 0.82741 0.17192 0.80353 0.0
C2422 C 0.8499 0.1726 0.80233 0.0
C2423 C 0.85766 0.16848 0.78858 0.0
H2424 H 0.33904 0.14825 0.49249 0.0
H2425 H 0.27745 0.15021 0.51169 0.0
H2426 H 0.35826 0.15567 0.51706 0.0
H2427 H 0.29627 0.15698 0.53639 0.0
H2428 H 0.34646 0.18995 0.57666 0.0
H2429 H 0.32886 0.18521 0.55172 0.0
H2430 H 0.35406 0.13601 0.54016 0.0
H2431 H 0.37215 0.14131 0.56495 0.0
C2432 C 0.32956 0.15014 0.50201 0.0
C2433 C 0.30673 0.14859 0.50019 0.0
C2434 C 0.34051 0.1543 0.51611 0.0
C2435 C 0.32878 0.15678 0.52877 0.0
C2436 C 0.30603 0.15552 0.52688 0.0
C2437 C 0.29519 0.15157 0.51274 0.0
C2438 C 0.34818 0.17811 0.56876 0.0
C2439 C 0.36071 0.16603 0.57273 0.0
C2440 C 0.33803 0.17532 0.55448 0.0
C2441 C 0.34 0.16021 0.54389 0.0
C2442 C 0.35257 0.14815 0.5479 0.0
C2443 C 0.3629 0.15111 0.56213 0.0
H2444 H 0.82712 0.11939 0.50032 0.0
H2445 H 0.9 0.18022 0.50535 0.0
H2446 H 0.81649 0.12745 0.52493 0.0
H2447 H 0.88874 0.1888 0.52972 0.0
H2448 H 0.84513 0.20951 0.56354 0.0
H2449 H 0.85804 0.20137 0.53949 0.0
H2450 H 0.82982 0.12766 0.55237 0.0
H2451 H 0.8171 0.13586 0.57648 0.0
C2452 C 0.841 0.13435 0.50666 0.0
C2453 C 0.86453 0.14904 0.50074 0.0
C2454 C 0.8348 0.13901 0.52077 0.0
C2455 C 0.85179 0.15872 0.52924 0.0
C2456 C 0.87522 0.17358 0.52336 0.0
C2457 C 0.88158 0.16871 0.50934 0.0
C2458 C 0.84174 0.19159 0.56122 0.0
C2459 C 0.83006 0.17329 0.57184 0.0
C2460 C 0.84927 0.18698 0.54752 0.0
C2461 C 0.84488 0.16388 0.54406 0.0
C2462 C 0.83329 0.1456 0.55471 0.0
C2463 C 0.82615 0.15031 0.56852 0.0
H2464 H 0.88697 0.7101 0.49958 0.0
H2465 H 0.83791 0.73808 0.50513 0.0
H2466 H 0.87599 0.69225 0.52442 0.0
H2467 H 0.82647 0.71955 0.52969 0.0
H2468 H 0.78984 0.65596 0.56289 0.0
H2469 H 0.80353 0.67739 0.53924 0.0
H2470 H 0.87855 0.70307 0.55199 0.0
H2471 H 0.86476 0.6815 0.57576 0.0
C2472 C 0.87407 0.71273 0.5061 0.0
C2473 C 0.86323 0.72546 0.50016 0.0
C2474 C 0.86774 0.7024 0.52035 0.0
C2475 C 0.85023 0.70432 0.529 0.0
C2476 C 0.83974 0.71741 0.52322 0.0
C2477 C 0.84625 0.72794 0.50907 0.0
C2478 C 0.80927 0.66621 0.56067 0.0
C2479 C 0.82621 0.66696 0.57119 0.0
C2480 C 0.81712 0.67864 0.54715 0.0
C2481 C 0.84214 0.69193 0.5437 0.0
C2482 C 0.85915 0.69286 0.55427 0.0
C2483 C 0.85127 0.68068 0.56792 0.0
loop_
_geom_bond_atom_site_label_1
_geom_bond_atom_site_label_2
_geom_bond_distance
_geom_bond_site_symmetry_2
_ccdc_geom_bond_type
C0 C1 1.384 . S
C0 H13 0.947 . S
C0 C35 1.382 . S
C1 C0 1.384 . S
C1 C2 1.378 . S
C2 C1 1.378 . S
C2 C3 1.378 . S
C2 H14 0.952 . S
C3 C2 1.378 . S
C3 H15 0.950 . S
C3 C34 1.383 . S
H4 C23 0.947 . S
H5 C24 0.946 . S
H6 C26 0.953 . S
H7 C27 0.945 . S
H8 C29 0.952 . S
H9 C30 0.949 . S
H10 C32 0.950 . S
H11 C33 0.948 . S
H12 C35 0.951 . S
H13 C0 0.947 . S
H14 C2 0.952 . S
H15 C3 0.950 . S
N16 C19 1.382 . S
N16 C21 1.363 . S
N17 C19 1.371 . S
N17 C20 1.372 . S
N18 C20 1.361 . S
N18 C21 1.377 . S
C19 N16 1.382 . S
C19 N17 1.371 . S
C19 C22 1.480 . S
C20 N17 1.372 . S
C20 N18 1.361 . S
C20 C28 1.457 . S
C21 N16 1.363 . S
C21 N18 1.377 . S
C21 C34 1.479 . S
C22 C19 1.480 . S
C22 C23 1.383 . S
C22 C27 1.385 . S
C23 H4 0.947 . S
C23 C22 1.383 . S
C23 C24 1.388 . S
C24 H5 0.946 . S
C24 C23 1.388 . S
C24 C25 1.384 . S
C25 C24 1.384 . S
C25 C26 1.377 . S
C26 H6 0.953 . S
C26 C25 1.377 . S
C26 C27 1.369 . S
C27 H7 0.945 . S
C27 C22 1.385 . S
C27 C26 1.369 . S
C28 C20 1.457 . S
C28 C29 1.372 . S
C28 C33 1.364 . S
C29 H8 0.952 . S
C29 C28 1.372 . S
C29 C30 1.389 . S
C30 H9 0.949 . S
C30 C29 1.389 . S
C30 C31 1.387 . S
C31 C30 1.387 . S
C31 C32 1.372 . S
C32 H10 0.950 . S
C32 C31 1.372 . S
C32 C33 1.379 . S
C33 H11 0.948 . S
C33 C28 1.364 . S
C33 C32 1.379 . S
C34 C3 1.383 . S
C34 C21 1.479 . S
C34 C35 1.398 . S
C35 C0 1.382 . S
C35 H12 0.951 . S
C35 C34 1.398 . S
C36 C37 1.384 . S
C36 H49 0.947 . S
C36 C71 1.382 . S
C37 C36 1.384 . S
C37 C38 1.378 . S
C38 C37 1.378 . S
C38 C39 1.378 . S
C38 H50 0.952 . S
C39 C38 1.378 . S
C39 H51 0.950 . S
C39 C70 1.383 . S
H40 C59 0.947 . S
H41 C60 0.946 . S
H42 C62 0.953 . S
H43 C63 0.945 . S
H44 C65 0.952 . S
H45 C66 0.949 . S
H46 C68 0.950 . S
H47 C69 0.948 . S
H48 C71 0.951 . S
H49 C36 0.947 . S
H50 C38 0.952 . S
H51 C39 0.950 . S
N52 C55 1.382 . S
N52 C57 1.363 . S
N53 C55 1.371 . S
N53 C56 1.372 . S
N54 C56 1.361 . S
N54 C57 1.377 . S
C55 N52 1.382 . S
C55 N53 1.371 . S
C55 C58 1.480 . S
C56 N53 1.372 . S
C56 N54 1.361 . S
C56 C64 1.457 . S
C57 N52 1.363 . S
C57 N54 1.377 . S
C57 C70 1.479 . S
C58 C55 1.480 . S
C58 C59 1.383 . S
C58 C63 1.385 . S
C59 H40 0.947 . S
C59 C58 1.383 . S
C59 C60 1.388 . S
C60 H41 0.946 . S
C60 C59 1.388 . S
C60 C61 1.384 . S
C61 C60 1.384 . S
C61 C62 1.377 . S
C62 H42 0.953 . S
C62 C61 1.377 . S
C62 C63 1.369 . S
C63 H43 0.945 . S
C63 C58 1.385 . S
C63 C62 1.369 . S
C64 C56 1.457 . S
C64 C65 1.372 . S
C64 C69 1.364 . S
C65 H44 0.952 . S
C65 C64 1.372 . S
C65 C66 1.389 . S
C66 H45 0.949 . S
C66 C65 1.389 . S
C66 C67 1.387 . S
C67 C66 1.387 . S
C67 C68 1.372 . S
C68 H46 0.950 . S
C68 C67 1.372 . S
C68 C69 1.379 . S
C69 H47 0.948 . S
C69 C64 1.364 . S
C69 C68 1.379 . S
C70 C39 1.383 . S
C70 C57 1.479 . S
C70 C71 1.398 . S
C71 C36 1.382 . S
C71 H48 0.951 . S
C71 C70 1.398 . S
C72 C73 1.384 . S
C72 H85 0.947 . S
C72 C107 1.382 . S
C73 C72 1.384 . S
C73 C74 1.378 . S
C74 C73 1.378 . S
C74 C75 1.378 . S
C74 H86 0.952 . S
C75 C74 1.378 . S
C75 H87 0.950 . S
C75 C106 1.383 . S
H76 C95 0.947 . S
H77 C96 0.946 . S
H78 C98 0.953 . S
H79 C99 0.945 . S
H80 C101 0.952 . S
H81 C102 0.949 . S
H82 C104 0.950 . S
H83 C105 0.948 . S
H84 C107 0.951 . S
H85 C72 0.947 . S
H86 C74 0.952 . S
H87 C75 0.950 . S
N88 C91 1.382 . S
N88 C93 1.363 . S
N89 C91 1.371 . S
N89 C92 1.372 . S
N90 C92 1.361 . S
N90 C93 1.377 . S
C91 N88 1.382 . S
C91 N89 1.371 . S
C91 C94 1.480 . S
C92 N89 1.372 . S
C92 N90 1.361 . S
C92 C100 1.457 . S
C93 N88 1.363 . S
C93 N90 1.377 . S
C93 C106 1.479 . S
C94 C91 1.480 . S
C94 C95 1.383 . S
C94 C99 1.385 . S
C95 H76 0.947 . S
C95 C94 1.383 . S
C95 C96 1.388 . S
C96 H77 0.946 . S
C96 C95 1.388 . S
C96 C97 1.384 . S
C97 C96 1.384 . S
C97 C98 1.377 . S
C98 H78 0.953 . S
C98 C97 1.377 . S
C98 C99 1.369 . S
C99 H79 0.945 . S
C99 C94 1.385 . S
C99 C98 1.369 . S
C100 C92 1.457 . S
C100 C101 1.372 . S
C100 C105 1.364 . S
C101 H80 0.952 . S
C101 C100 1.372 . S
C101 C102 1.389 . S
C102 H81 0.949 . S
C102 C101 1.389 . S
C102 C103 1.387 . S
C103 C102 1.387 . S
C103 C104 1.372 . S
C104 H82 0.950 . S
C104 C103 1.372 . S
C104 C105 1.379 . S
C105 H83 0.948 . S
C105 C100 1.364 . S
C105 C104 1.379 . S
C106 C75 1.383 . S
C106 C93 1.479 . S
C106 C107 1.398 . S
C107 C72 1.382 . S
C107 H84 0.951 . S
C107 C106 1.398 . S
C108 C109 1.384 . S
C108 H121 0.947 . S
C108 C143 1.382 . S
C109 C108 1.384 . S
C109 C110 1.378 . S
C110 C109 1.378 . S
C110 C111 1.378 . S
C110 H122 0.952 . S
C111 C110 1.378 . S
C111 H123 0.950 . S
C111 C142 1.383 . S
H112 C131 0.947 . S
H113 C132 0.946 . S
H114 C134 0.953 . S
H115 C135 0.945 . S
H116 C137 0.952 . S
H117 C138 0.949 . S
H118 C140 0.950 . S
H119 C141 0.948 . S
H120 C143 0.951 . S
H121 C108 0.947 . S
H122 C110 0.952 . S
H123 C111 0.950 . S
N124 C127 1.382 . S
N124 C129 1.363 . S
N125 C127 1.371 . S
N125 C128 1.372 . S
N126 C128 1.361 . S
N126 C129 1.377 . S
C127 N124 1.382 . S
C127 N125 1.371 . S
C127 C130 1.480 . S
C128 N125 1.372 . S
C128 N126 1.361 . S
C128 C136 1.457 . S
C129 N124 1.363 . S
C129 N126 1.377 . S
C129 C142 1.479 . S
C130 C127 1.480 . S
C130 C131 1.383 . S
C130 C135 1.385 . S
C131 H112 0.947 . S
C131 C130 1.383 . S
C131 C132 1.388 . S
C132 H113 0.946 . S
C132 C131 1.388 . S
C132 C133 1.384 . S
C133 C132 1.384 . S
C133 C134 1.377 . S
C134 H114 0.953 . S
C134 C133 1.377 . S
C134 C135 1.369 . S
C135 H115 0.945 . S
C135 C130 1.385 . S
C135 C134 1.369 . S
C136 C128 1.457 . S
C136 C137 1.372 . S
C136 C141 1.364 . S
C137 H116 0.952 . S
C137 C136 1.372 . S
C137 C138 1.389 . S
C138 H117 0.949 . S
C138 C137 1.389 . S
C138 C139 1.387 . S
C139 C138 1.387 . S
C139 C140 1.372 . S
C140 H118 0.950 . S
C140 C139 1.372 . S
C140 C141 1.379 . S
C141 H119 0.948 . S
C141 C136 1.364 . S
C141 C140 1.379 . S
C142 C111 1.383 . S
C142 C129 1.479 . S
C142 C143 1.398 . S
C143 C108 1.382 . S
C143 H120 0.951 . S
C143 C142 1.398 . S
C144 C145 1.384 . S
C144 H157 0.947 . S
C144 C179 1.382 . S
C145 C144 1.384 . S
C145 C146 1.378 . S
C146 C145 1.378 . S
C146 C147 1.378 . S
C146 H158 0.952 . S
C147 C146 1.378 . S
C147 H159 0.950 . S
C147 C178 1.383 . S
H148 C167 0.947 . S
H149 C168 0.946 . S
H150 C170 0.953 . S
H151 C171 0.945 . S
H152 C173 0.952 . S
H153 C174 0.949 . S
H154 C176 0.950 . S
H155 C177 0.948 . S
H156 C179 0.951 . S
H157 C144 0.947 . S
H158 C146 0.952 . S
H159 C147 0.950 . S
N160 C163 1.382 . S
N160 C165 1.363 . S
N161 C163 1.371 . S
N161 C164 1.372 . S
N162 C164 1.361 . S
N162 C165 1.377 . S
C163 N160 1.382 . S
C163 N161 1.371 . S
C163 C166 1.480 . S
C164 N161 1.372 . S
C164 N162 1.361 . S
C164 C172 1.457 . S
C165 N160 1.363 . S
C165 N162 1.377 . S
C165 C178 1.479 . S
C166 C163 1.480 . S
C166 C167 1.383 . S
C166 C171 1.385 . S
C167 H148 0.947 . S
C167 C166 1.383 . S
C167 C168 1.388 . S
C168 H149 0.946 . S
C168 C167 1.388 . S
C168 C169 1.384 . S
C169 C168 1.384 . S
C169 C170 1.377 . S
C170 H150 0.953 . S
C170 C169 1.377 . S
C170 C171 1.369 . S
C171 H151 0.945 . S
C171 C166 1.385 . S
C171 C170 1.369 . S
C172 C164 1.457 . S
C172 C173 1.372 . S
C172 C177 1.364 . S
C173 H152 0.952 . S
C173 C172 1.372 . S
C173 C174 1.389 . S
C174 H153 0.949 . S
C174 C173 1.389 . S
C174 C175 1.387 . S
C175 C174 1.387 . S
C175 C176 1.372 . S
C176 H154 0.950 . S
C176 C175 1.372 . S
C176 C177 1.379 . S
C177 H155 0.948 . S
C177 C172 1.364 . S
C177 C176 1.379 . S
C178 C147 1.383 . S
C178 C165 1.479 . S
C178 C179 1.398 . S
C179 C144 1.382 . S
C179 H156 0.951 . S
C179 C178 1.398 . S
C180 C181 1.384 . S
C180 H193 0.947 . S
C180 C215 1.382 . S
C181 C180 1.384 . S
C181 C182 1.378 . S
C182 C181 1.378 . S
C182 C183 1.378 . S
C182 H194 0.952 . S
C183 C182 1.378 . S
C183 H195 0.950 . S
C183 C214 1.383 . S
H184 C203 0.947 . S
H185 C204 0.946 . S
H186 C206 0.953 . S
H187 C207 0.945 . S
H188 C209 0.952 . S
H189 C210 0.949 . S
H190 C212 0.950 . S
H191 C213 0.948 . S
H192 C215 0.951 . S
H193 C180 0.947 . S
H194 C182 0.952 . S
H195 C183 0.950 . S
N196 C199 1.382 . S
N196 C201 1.363 . S
N197 C199 1.371 . S
N197 C200 1.372 . S
N198 C200 1.361 . S
N198 C201 1.377 . S
C199 N196 1.382 . S
C199 N197 1.371 . S
C199 C202 1.480 . S
C200 N197 1.372 . S
C200 N198 1.361 . S
C200 C208 1.457 . S
C201 N196 1.363 . S
C201 N198 1.377 . S
C201 C214 1.479 . S
C202 C199 1.480 . S
C202 C203 1.383 . S
C202 C207 1.385 . S
C203 H184 0.947 . S
C203 C202 1.383 . S
C203 C204 1.388 . S
C204 H185 0.946 . S
C204 C203 1.388 . S
C204 C205 1.384 . S
C205 C204 1.384 . S
C205 C206 1.377 . S
C206 H186 0.953 . S
C206 C205 1.377 . S
C206 C207 1.369 . S
C207 H187 0.945 . S
C207 C202 1.385 . S
C207 C206 1.369 . S
C208 C200 1.457 . S
C208 C209 1.372 . S
C208 C213 1.364 . S
C209 H188 0.952 . S
C209 C208 1.372 . S
C209 C210 1.389 . S
C210 H189 0.949 . S
C210 C209 1.389 . S
C210 C211 1.387 . S
C211 C210 1.387 . S
C211 C212 1.372 . S
C212 H190 0.950 . S
C212 C211 1.372 . S
C212 C213 1.379 . S
C213 H191 0.948 . S
C213 C208 1.364 . S
C213 C212 1.379 . S
C214 C183 1.383 . S
C214 C201 1.479 . S
C214 C215 1.398 . S
C215 C180 1.382 . S
C215 H192 0.951 . S
C215 C214 1.398 . S
C216 C217 1.384 . S
C216 H229 0.947 . S
C216 C251 1.382 . S
C217 C216 1.384 . S
C217 C218 1.378 . S
C218 C217 1.378 . S
C218 C219 1.378 . S
C218 H230 0.952 . S
C219 C218 1.378 . S
C219 H231 0.950 . S
C219 C250 1.383 . S
H220 C239 0.947 . S
H221 C240 0.946 . S
H222 C242 0.953 . S
H223 C243 0.945 . S
H224 C245 0.952 . S
H225 C246 0.949 . S
H226 C248 0.950 . S
H227 C249 0.948 . S
H228 C251 0.951 . S
H229 C216 0.947 . S
H230 C218 0.952 . S
H231 C219 0.950 . S
N232 C235 1.382 . S
N232 C237 1.363 . S
N233 C235 1.371 . S
N233 C236 1.372 . S
N234 C236 1.361 . S
N234 C237 1.377 . S
C235 N232 1.382 . S
C235 N233 1.371 . S
C235 C238 1.480 . S
C236 N233 1.372 . S
C236 N234 1.361 . S
C236 C244 1.457 . S
C237 N232 1.363 . S
C237 N234 1.377 . S
C237 C250 1.479 . S
C238 C235 1.480 . S
C238 C239 1.383 . S
C238 C243 1.385 . S
C239 H220 0.947 . S
C239 C238 1.383 . S
C239 C240 1.388 . S
C240 H221 0.946 . S
C240 C239 1.388 . S
C240 C241 1.384 . S
C241 C240 1.384 . S
C241 C242 1.377 . S
C242 H222 0.953 . S
C242 C241 1.377 . S
C242 C243 1.369 . S
C243 H223 0.945 . S
C243 C238 1.385 . S
C243 C242 1.369 . S
C244 C236 1.457 . S
C244 C245 1.372 . S
C244 C249 1.364 . S
C245 H224 0.952 . S
C245 C244 1.372 . S
C245 C246 1.389 . S
C246 H225 0.949 . S
C246 C245 1.389 . S
C246 C247 1.387 . S
C247 C246 1.387 . S
C247 C248 1.372 . S
C248 H226 0.950 . S
C248 C247 1.372 . S
C248 C249 1.379 . S
C249 H227 0.948 . S
C249 C244 1.364 . S
C249 C248 1.379 . S
C250 C219 1.383 . S
C250 C237 1.479 . S
C250 C251 1.398 . S
C251 C216 1.382 . S
C251 H228 0.951 . S
C251 C250 1.398 . S
C252 C253 1.384 . S
C252 H265 0.947 . S
C252 C287 1.382 . S
C253 C252 1.384 . S
C253 C254 1.378 . S
C254 C253 1.378 . S
C254 C255 1.378 . S
C254 H266 0.952 . S
C255 C254 1.378 . S
C255 H267 0.950 . S
C255 C286 1.383 . S
H256 C275 0.947 . S
H257 C276 0.946 . S
H258 C278 0.953 . S
H259 C279 0.945 . S
H260 C281 0.952 . S
H261 C282 0.949 . S
H262 C284 0.950 . S
H263 C285 0.948 . S
H264 C287 0.951 . S
H265 C252 0.947 . S
H266 C254 0.952 . S
H267 C255 0.950 . S
N268 C271 1.382 . S
N268 C273 1.363 . S
N269 C271 1.371 . S
N269 C272 1.372 . S
N270 C272 1.361 . S
N270 C273 1.377 . S
C271 N268 1.382 . S
C271 N269 1.371 . S
C271 C274 1.480 . S
C272 N269 1.372 . S
C272 N270 1.361 . S
C272 C280 1.457 . S
C273 N268 1.363 . S
C273 N270 1.377 . S
C273 C286 1.479 . S
C274 C271 1.480 . S
C274 C275 1.383 . S
C274 C279 1.385 . S
C275 H256 0.947 . S
C275 C274 1.383 . S
C275 C276 1.388 . S
C276 H257 0.946 . S
C276 C275 1.388 . S
C276 C277 1.384 . S
C277 C276 1.384 . S
C277 C278 1.377 . S
C278 H258 0.953 . S
C278 C277 1.377 . S
C278 C279 1.369 . S
C279 H259 0.945 . S
C279 C274 1.385 . S
C279 C278 1.369 . S
C280 C272 1.457 . S
C280 C281 1.372 . S
C280 C285 1.364 . S
C281 H260 0.952 . S
C281 C280 1.372 . S
C281 C282 1.389 . S
C282 H261 0.949 . S
C282 C281 1.389 . S
C282 C283 1.387 . S
C283 C282 1.387 . S
C283 C284 1.372 . S
C284 H262 0.950 . S
C284 C283 1.372 . S
C284 C285 1.379 . S
C285 H263 0.948 . S
C285 C280 1.364 . S
C285 C284 1.379 . S
C286 C255 1.383 . S
C286 C273 1.479 . S
C286 C287 1.398 . S
C287 C252 1.382 . S
C287 H264 0.951 . S
C287 C286 1.398 . S
C288 C289 1.384 . S
C288 H301 0.947 . S
C288 C323 1.382 . S
C289 C288 1.384 . S
C289 C290 1.378 . S
C290 C289 1.378 . S
C290 C291 1.378 . S
C290 H302 0.952 . S
C291 C290 1.378 . S
C291 H303 0.950 . S
C291 C322 1.383 . S
H292 C311 0.947 . S
H293 C312 0.946 . S
H294 C314 0.953 . S
H295 C315 0.945 . S
H296 C317 0.952 . S
H297 C318 0.949 . S
H298 C320 0.950 . S
H299 C321 0.948 . S
H300 C323 0.951 . S
H301 C288 0.947 . S
H302 C290 0.952 . S
H303 C291 0.950 . S
N304 C307 1.382 . S
N304 C309 1.363 . S
N305 C307 1.371 . S
N305 C308 1.372 . S
N306 C308 1.361 . S
N306 C309 1.377 . S
C307 N304 1.382 . S
C307 N305 1.371 . S
C307 C310 1.480 . S
C308 N305 1.372 . S
C308 N306 1.361 . S
C308 C316 1.457 . S
C309 N304 1.363 . S
C309 N306 1.377 . S
C309 C322 1.479 . S
C310 C307 1.480 . S
C310 C311 1.383 . S
C310 C315 1.385 . S
C311 H292 0.947 . S
C311 C310 1.383 . S
C311 C312 1.388 . S
C312 H293 0.946 . S
C312 C311 1.388 . S
C312 C313 1.384 . S
C313 C312 1.384 . S
C313 C314 1.377 . S
C314 H294 0.953 . S
C314 C313 1.377 . S
C314 C315 1.369 . S
C315 H295 0.945 . S
C315 C310 1.385 . S
C315 C314 1.369 . S
C316 C308 1.457 . S
C316 C317 1.372 . S
C316 C321 1.364 . S
C317 H296 0.952 . S
C317 C316 1.372 . S
C317 C318 1.389 . S
C318 H297 0.949 . S
C318 C317 1.389 . S
C318 C319 1.387 . S
C319 C318 1.387 . S
C319 C320 1.372 . S
C320 H298 0.950 . S
C320 C319 1.372 . S
C320 C321 1.379 . S
C321 H299 0.948 . S
C321 C316 1.364 . S
C321 C320 1.379 . S
C322 C291 1.383 . S
C322 C309 1.479 . S
C322 C323 1.398 . S
C323 C288 1.382 . S
C323 H300 0.951 . S
C323 C322 1.398 . S
C324 C325 1.384 . S
C324 H337 0.947 . S
C324 C359 1.382 . S
C325 C324 1.384 . S
C325 C326 1.378 . S
C326 C325 1.378 . S
C326 C327 1.378 . S
C326 H338 0.952 . S
C327 C326 1.378 . S
C327 H339 0.950 . S
C327 C358 1.383 . S
H328 C347 0.947 . S
H329 C348 0.946 . S
H330 C350 0.953 . S
H331 C351 0.945 . S
H332 C353 0.952 . S
H333 C354 0.949 . S
H334 C356 0.950 . S
H335 C357 0.948 . S
H336 C359 0.951 . S
H337 C324 0.947 . S
H338 C326 0.952 . S
H339 C327 0.950 . S
N340 C343 1.382 . S
N340 C345 1.363 . S
N341 C343 1.371 . S
N341 C344 1.372 . S
N342 C344 1.361 . S
N342 C345 1.377 . S
C343 N340 1.382 . S
C343 N341 1.371 . S
C343 C346 1.480 . S
C344 N341 1.372 . S
C344 N342 1.361 . S
C344 C352 1.457 . S
C345 N340 1.363 . S
C345 N342 1.377 . S
C345 C358 1.479 . S
C346 C343 1.480 . S
C346 C347 1.383 . S
C346 C351 1.385 . S
C347 H328 0.947 . S
C347 C346 1.383 . S
C347 C348 1.388 . S
C348 H329 0.946 . S
C348 C347 1.388 . S
C348 C349 1.384 . S
C349 C348 1.384 . S
C349 C350 1.377 . S
C350 H330 0.953 . S
C350 C349 1.377 . S
C350 C351 1.369 . S
C351 H331 0.945 . S
C351 C346 1.385 . S
C351 C350 1.369 . S
C352 C344 1.457 . S
C352 C353 1.372 . S
C352 C357 1.364 . S
C353 H332 0.952 . S
C353 C352 1.372 . S
C353 C354 1.389 . S
C354 H333 0.949 . S
C354 C353 1.389 . S
C354 C355 1.387 . S
C355 C354 1.387 . S
C355 C356 1.372 . S
C356 H334 0.950 . S
C356 C355 1.372 . S
C356 C357 1.379 . S
C357 H335 0.948 . S
C357 C352 1.364 . S
C357 C356 1.379 . S
C358 C327 1.383 . S
C358 C345 1.479 . S
C358 C359 1.398 . S
C359 C324 1.382 . S
C359 H336 0.951 . S
C359 C358 1.398 . S
C360 C361 1.384 . S
C360 H373 0.947 . S
C360 C395 1.382 . S
C361 C360 1.384 . S
C361 C362 1.378 . S
C362 C361 1.378 . S
C362 C363 1.378 . S
C362 H374 0.952 . S
C363 C362 1.378 . S
C363 H375 0.950 . S
C363 C394 1.383 . S
H364 C383 0.947 . S
H365 C384 0.946 . S
H366 C386 0.953 . S
H367 C387 0.945 . S
H368 C389 0.952 . S
H369 C390 0.949 . S
H370 C392 0.950 . S
H371 C393 0.948 . S
H372 C395 0.951 . S
H373 C360 0.947 . S
H374 C362 0.952 . S
H375 C363 0.950 . S
N376 C379 1.382 . S
N376 C381 1.363 . S
N377 C379 1.371 . S
N377 C380 1.372 . S
N378 C380 1.361 . S
N378 C381 1.377 . S
C379 N376 1.382 . S
C379 N377 1.371 . S
C379 C382 1.480 . S
C380 N377 1.372 . S
C380 N378 1.361 . S
C380 C388 1.457 . S
C381 N376 1.363 . S
C381 N378 1.377 . S
C381 C394 1.479 . S
C382 C379 1.480 . S
C382 C383 1.383 . S
C382 C387 1.385 . S
C383 H364 0.947 . S
C383 C382 1.383 . S
C383 C384 1.388 . S
C384 H365 0.946 . S
C384 C383 1.388 . S
C384 C385 1.384 . S
C385 C384 1.384 . S
C385 C386 1.377 . S
C386 H366 0.953 . S
C386 C385 1.377 . S
C386 C387 1.369 . S
C387 H367 0.945 . S
C387 C382 1.385 . S
C387 C386 1.369 . S
C388 C380 1.457 . S
C388 C389 1.372 . S
C388 C393 1.364 . S
C389 H368 0.952 . S
C389 C388 1.372 . S
C389 C390 1.389 . S
C390 H369 0.949 . S
C390 C389 1.389 . S
C390 C391 1.387 . S
C391 C390 1.387 . S
C391 C392 1.372 . S
C392 H370 0.950 . S
C392 C391 1.372 . S
C392 C393 1.379 . S
C393 H371 0.948 . S
C393 C388 1.364 . S
C393 C392 1.379 . S
C394 C363 1.383 . S
C394 C381 1.479 . S
C394 C395 1.398 . S
C395 C360 1.382 . S
C395 H372 0.951 . S
C395 C394 1.398 . S
C396 C397 1.384 . S
C396 H409 0.947 . S
C396 C431 1.382 . S
C397 C396 1.384 . S
C397 C398 1.378 . S
C398 C397 1.378 . S
C398 C399 1.378 . S
C398 H410 0.952 . S
C399 C398 1.378 . S
C399 H411 0.950 . S
C399 C430 1.383 . S
H400 C419 0.947 . S
H401 C420 0.946 . S
H402 C422 0.953 . S
H403 C423 0.945 . S
H404 C425 0.952 . S
H405 C426 0.949 . S
H406 C428 0.950 . S
H407 C429 0.948 . S
H408 C431 0.951 . S
H409 C396 0.947 . S
H410 C398 0.952 . S
H411 C399 0.950 . S
N412 C415 1.382 . S
N412 C417 1.363 . S
N413 C415 1.371 . S
N413 C416 1.372 . S
N414 C416 1.361 . S
N414 C417 1.377 . S
C415 N412 1.382 . S
C415 N413 1.371 . S
C415 C418 1.480 . S
C416 N413 1.372 . S
C416 N414 1.361 . S
C416 C424 1.457 . S
C417 N412 1.363 . S
C417 N414 1.377 . S
C417 C430 1.479 . S
C418 C415 1.480 . S
C418 C419 1.383 . S
C418 C423 1.385 . S
C419 H400 0.947 . S
C419 C418 1.383 . S
C419 C420 1.388 . S
C420 H401 0.946 . S
C420 C419 1.388 . S
C420 C421 1.384 . S
C421 C420 1.384 . S
C421 C422 1.377 . S
C422 H402 0.953 . S
C422 C421 1.377 . S
C422 C423 1.369 . S
C423 H403 0.945 . S
C423 C418 1.385 . S
C423 C422 1.369 . S
C424 C416 1.457 . S
C424 C425 1.372 . S
C424 C429 1.364 . S
C425 H404 0.952 . S
C425 C424 1.372 . S
C425 C426 1.389 . S
C426 H405 0.949 . S
C426 C425 1.389 . S
C426 C427 1.387 . S
C427 C426 1.387 . S
C427 C428 1.372 . S
C428 H406 0.950 . S
C428 C427 1.372 . S
C428 C429 1.379 . S
C429 H407 0.948 . S
C429 C424 1.364 . S
C429 C428 1.379 . S
C430 C399 1.383 . S
C430 C417 1.479 . S
C430 C431 1.398 . S
C431 C396 1.382 . S
C431 H408 0.951 . S
C431 C430 1.398 . S
C432 C433 1.384 . S
C432 H445 0.947 . S
C432 C467 1.382 . S
C433 C432 1.384 . S
C433 C434 1.378 . S
C434 C433 1.378 . S
C434 C435 1.378 . S
C434 H446 0.952 . S
C435 C434 1.378 . S
C435 H447 0.950 . S
C435 C466 1.383 . S
H436 C455 0.947 . S
H437 C456 0.946 . S
H438 C458 0.953 . S
H439 C459 0.945 . S
H440 C461 0.952 . S
H441 C462 0.949 . S
H442 C464 0.950 . S
H443 C465 0.948 . S
H444 C467 0.951 . S
H445 C432 0.947 . S
H446 C434 0.952 . S
H447 C435 0.950 . S
N448 C451 1.382 . S
N448 C453 1.363 . S
N449 C451 1.371 . S
N449 C452 1.372 . S
N450 C452 1.361 . S
N450 C453 1.377 . S
C451 N448 1.382 . S
C451 N449 1.371 . S
C451 C454 1.480 . S
C452 N449 1.372 . S
C452 N450 1.361 . S
C452 C460 1.457 . S
C453 N448 1.363 . S
C453 N450 1.377 . S
C453 C466 1.479 . S
C454 C451 1.480 . S
C454 C455 1.383 . S
C454 C459 1.385 . S
C455 H436 0.947 . S
C455 C454 1.383 . S
C455 C456 1.388 . S
C456 H437 0.946 . S
C456 C455 1.388 . S
C456 C457 1.384 . S
C457 C456 1.384 . S
C457 C458 1.377 . S
C458 H438 0.953 . S
C458 C457 1.377 . S
C458 C459 1.369 . S
C459 H439 0.945 . S
C459 C454 1.385 . S
C459 C458 1.369 . S
C460 C452 1.457 . S
C460 C461 1.372 . S
C460 C465 1.364 . S
C461 H440 0.952 . S
C461 C460 1.372 . S
C461 C462 1.389 . S
C462 H441 0.949 . S
C462 C461 1.389 . S
C462 C463 1.387 . S
C463 C462 1.387 . S
C463 C464 1.372 . S
C464 H442 0.950 . S
C464 C463 1.372 . S
C464 C465 1.379 . S
C465 H443 0.948 . S
C465 C460 1.364 . S
C465 C464 1.379 . S
C466 C435 1.383 . S
C466 C453 1.479 . S
C466 C467 1.398 . S
C467 C432 1.382 . S
C467 H444 0.951 . S
C467 C466 1.398 . S
C468 C469 1.384 . S
C468 H481 0.947 . S
C468 C503 1.382 . S
C469 C468 1.384 . S
C469 C470 1.378 . S
C470 C469 1.378 . S
C470 C471 1.378 . S
C470 H482 0.952 . S
C471 C470 1.378 . S
C471 H483 0.950 . S
C471 C502 1.383 . S
H472 C491 0.947 . S
H473 C492 0.946 . S
H474 C494 0.953 . S
H475 C495 0.945 . S
H476 C497 0.952 . S
H477 C498 0.949 . S
H478 C500 0.950 . S
H479 C501 0.948 . S
H480 C503 0.951 . S
H481 C468 0.947 . S
H482 C470 0.952 . S
H483 C471 0.950 . S
N484 C487 1.382 . S
N484 C489 1.363 . S
N485 C487 1.371 . S
N485 C488 1.372 . S
N486 C488 1.361 . S
N486 C489 1.377 . S
C487 N484 1.382 . S
C487 N485 1.371 . S
C487 C490 1.480 . S
C488 N485 1.372 . S
C488 N486 1.361 . S
C488 C496 1.457 . S
C489 N484 1.363 . S
C489 N486 1.377 . S
C489 C502 1.479 . S
C490 C487 1.480 . S
C490 C491 1.383 . S
C490 C495 1.385 . S
C491 H472 0.947 . S
C491 C490 1.383 . S
C491 C492 1.388 . S
C492 H473 0.946 . S
C492 C491 1.388 . S
C492 C493 1.384 . S
C493 C492 1.384 . S
C493 C494 1.377 . S
C494 H474 0.953 . S
C494 C493 1.377 . S
C494 C495 1.369 . S
C495 H475 0.945 . S
C495 C490 1.385 . S
C495 C494 1.369 . S
C496 C488 1.457 . S
C496 C497 1.372 . S
C496 C501 1.364 . S
C497 H476 0.952 . S
C497 C496 1.372 . S
C497 C498 1.389 . S
C498 H477 0.949 . S
C498 C497 1.389 . S
C498 C499 1.387 . S
C499 C498 1.387 . S
C499 C500 1.372 . S
C500 H478 0.950 . S
C500 C499 1.372 . S
C500 C501 1.379 . S
C501 H479 0.948 . S
C501 C496 1.364 . S
C501 C500 1.379 . S
C502 C471 1.383 . S
C502 C489 1.479 . S
C502 C503 1.398 . S
C503 C468 1.382 . S
C503 H480 0.951 . S
C503 C502 1.398 . S
C504 C505 1.384 . S
C504 H517 0.947 . S
C504 C539 1.382 . S
C505 C504 1.384 . S
C505 C506 1.378 . S
C506 C505 1.378 . S
C506 C507 1.378 . S
C506 H518 0.952 . S
C507 C506 1.378 . S
C507 H519 0.950 . S
C507 C538 1.383 . S
H508 C527 0.947 . S
H509 C528 0.946 . S
H510 C530 0.953 . S
H511 C531 0.945 . S
H512 C533 0.952 . S
H513 C534 0.949 . S
H514 C536 0.950 . S
H515 C537 0.948 . S
H516 C539 0.951 . S
H517 C504 0.947 . S
H518 C506 0.952 . S
H519 C507 0.950 . S
N520 C523 1.382 . S
N520 C525 1.363 . S
N521 C523 1.371 . S
N521 C524 1.372 . S
N522 C524 1.361 . S
N522 C525 1.377 . S
C523 N520 1.382 . S
C523 N521 1.371 . S
C523 C526 1.480 . S
C524 N521 1.372 . S
C524 N522 1.361 . S
C524 C532 1.457 . S
C525 N520 1.363 . S
C525 N522 1.377 . S
C525 C538 1.479 . S
C526 C523 1.480 . S
C526 C527 1.383 . S
C526 C531 1.385 . S
C527 H508 0.947 . S
C527 C526 1.383 . S
C527 C528 1.388 . S
C528 H509 0.946 . S
C528 C527 1.388 . S
C528 C529 1.384 . S
C529 C528 1.384 . S
C529 C530 1.377 . S
C530 H510 0.953 . S
C530 C529 1.377 . S
C530 C531 1.369 . S
C531 H511 0.945 . S
C531 C526 1.385 . S
C531 C530 1.369 . S
C532 C524 1.457 . S
C532 C533 1.372 . S
C532 C537 1.364 . S
C533 H512 0.952 . S
C533 C532 1.372 . S
C533 C534 1.389 . S
C534 H513 0.949 . S
C534 C533 1.389 . S
C534 C535 1.387 . S
C535 C534 1.387 . S
C535 C536 1.372 . S
C536 H514 0.950 . S
C536 C535 1.372 . S
C536 C537 1.379 . S
C537 H515 0.948 . S
C537 C532 1.364 . S
C537 C536 1.379 . S
C538 C507 1.383 . S
C538 C525 1.479 . S
C538 C539 1.398 . S
C539 C504 1.382 . S
C539 H516 0.951 . S
C539 C538 1.398 . S
C540 C541 1.384 . S
C540 H553 0.947 . S
C540 C575 1.382 . S
C541 C540 1.384 . S
C541 C542 1.378 . S
C542 C541 1.378 . S
C542 C543 1.378 . S
C542 H554 0.952 . S
C543 C542 1.378 . S
C543 H555 0.950 . S
C543 C574 1.383 . S
H544 C563 0.947 . S
H545 C564 0.946 . S
H546 C566 0.953 . S
H547 C567 0.945 . S
H548 C569 0.952 . S
H549 C570 0.949 . S
H550 C572 0.950 . S
H551 C573 0.948 . S
H552 C575 0.951 . S
H553 C540 0.947 . S
H554 C542 0.952 . S
H555 C543 0.950 . S
N556 C559 1.382 . S
N556 C561 1.363 . S
N557 C559 1.371 . S
N557 C560 1.372 . S
N558 C560 1.361 . S
N558 C561 1.377 . S
C559 N556 1.382 . S
C559 N557 1.371 . S
C559 C562 1.480 . S
C560 N557 1.372 . S
C560 N558 1.361 . S
C560 C568 1.457 . S
C561 N556 1.363 . S
C561 N558 1.377 . S
C561 C574 1.479 . S
C562 C559 1.480 . S
C562 C563 1.383 . S
C562 C567 1.385 . S
C563 H544 0.947 . S
C563 C562 1.383 . S
C563 C564 1.388 . S
C564 H545 0.946 . S
C564 C563 1.388 . S
C564 C565 1.384 . S
C565 C564 1.384 . S
C565 C566 1.377 . S
C566 H546 0.953 . S
C566 C565 1.377 . S
C566 C567 1.369 . S
C567 H547 0.945 . S
C567 C562 1.385 . S
C567 C566 1.369 . S
C568 C560 1.457 . S
C568 C569 1.372 . S
C568 C573 1.364 . S
C569 H548 0.952 . S
C569 C568 1.372 . S
C569 C570 1.389 . S
C570 H549 0.949 . S
C570 C569 1.389 . S
C570 C571 1.387 . S
C571 C570 1.387 . S
C571 C572 1.372 . S
C572 H550 0.950 . S
C572 C571 1.372 . S
C572 C573 1.379 . S
C573 H551 0.948 . S
C573 C568 1.364 . S
C573 C572 1.379 . S
C574 C543 1.383 . S
C574 C561 1.479 . S
C574 C575 1.398 . S
C575 C540 1.382 . S
C575 H552 0.951 . S
C575 C574 1.398 . S
C576 C577 1.384 . S
C576 H589 0.947 . S
C576 C611 1.382 . S
C577 C576 1.384 . S
C577 C578 1.378 . S
C578 C577 1.378 . S
C578 C579 1.378 . S
C578 H590 0.952 . S
C579 C578 1.378 . S
C579 H591 0.950 . S
C579 C610 1.383 . S
H580 C599 0.947 . S
H581 C600 0.946 . S
H582 C602 0.953 . S
H583 C603 0.945 . S
H584 C605 0.952 . S
H585 C606 0.949 . S
H586 C608 0.950 . S
H587 C609 0.948 . S
H588 C611 0.951 . S
H589 C576 0.947 . S
H590 C578 0.952 . S
H591 C579 0.950 . S
N592 C595 1.382 . S
N592 C597 1.363 . S
N593 C595 1.371 . S
N593 C596 1.372 . S
N594 C596 1.361 . S
N594 C597 1.377 . S
C595 N592 1.382 . S
C595 N593 1.371 . S
C595 C598 1.480 . S
C596 N593 1.372 . S
C596 N594 1.361 . S
C596 C604 1.457 . S
C597 N592 1.363 . S
C597 N594 1.377 . S
C597 C610 1.479 . S
C598 C595 1.480 . S
C598 C599 1.383 . S
C598 C603 1.385 . S
C599 H580 0.947 . S
C599 C598 1.383 . S
C599 C600 1.388 . S
C600 H581 0.946 . S
C600 C599 1.388 . S
C600 C601 1.384 . S
C601 C600 1.384 . S
C601 C602 1.377 . S
C602 H582 0.953 . S
C602 C601 1.377 . S
C602 C603 1.369 . S
C603 H583 0.945 . S
C603 C598 1.385 . S
C603 C602 1.369 . S
C604 C596 1.457 . S
C604 C605 1.372 . S
C604 C609 1.364 . S
C605 H584 0.952 . S
C605 C604 1.372 . S
C605 C606 1.389 . S
C606 H585 0.949 . S
C606 C605 1.389 . S
C606 C607 1.387 . S
C607 C606 1.387 . S
C607 C608 1.372 . S
C608 H586 0.950 . S
C608 C607 1.372 . S
C608 C609 1.379 . S
C609 H587 0.948 . S
C609 C604 1.364 . S
C609 C608 1.379 . S
C610 C579 1.383 . S
C610 C597 1.479 . S
C610 C611 1.398 . S
C611 C576 1.382 . S
C611 H588 0.951 . S
C611 C610 1.398 . S
C612 C613 1.384 . S
C612 H625 0.947 . S
C612 C647 1.382 . S
C613 C612 1.384 . S
C613 C614 1.378 . S
C614 C613 1.378 . S
C614 C615 1.378 . S
C614 H626 0.952 . S
C615 C614 1.378 . S
C615 H627 0.950 . S
C615 C646 1.383 . S
H616 C635 0.947 . S
H617 C636 0.946 . S
H618 C638 0.953 . S
H619 C639 0.945 . S
H620 C641 0.952 . S
H621 C642 0.949 . S
H622 C644 0.950 . S
H623 C645 0.948 . S
H624 C647 0.951 . S
H625 C612 0.947 . S
H626 C614 0.952 . S
H627 C615 0.950 . S
N628 C631 1.382 . S
N628 C633 1.363 . S
N629 C631 1.371 . S
N629 C632 1.372 . S
N630 C632 1.361 . S
N630 C633 1.377 . S
C631 N628 1.382 . S
C631 N629 1.371 . S
C631 C634 1.480 . S
C632 N629 1.372 . S
C632 N630 1.361 . S
C632 C640 1.457 . S
C633 N628 1.363 . S
C633 N630 1.377 . S
C633 C646 1.479 . S
C634 C631 1.480 . S
C634 C635 1.383 . S
C634 C639 1.385 . S
C635 H616 0.947 . S
C635 C634 1.383 . S
C635 C636 1.388 . S
C636 H617 0.946 . S
C636 C635 1.388 . S
C636 C637 1.384 . S
C637 C636 1.384 . S
C637 C638 1.377 . S
C638 H618 0.953 . S
C638 C637 1.377 . S
C638 C639 1.369 . S
C639 H619 0.945 . S
C639 C634 1.385 . S
C639 C638 1.369 . S
C640 C632 1.457 . S
C640 C641 1.372 . S
C640 C645 1.364 . S
C641 H620 0.952 . S
C641 C640 1.372 . S
C641 C642 1.389 . S
C642 H621 0.949 . S
C642 C641 1.389 . S
C642 C643 1.387 . S
C643 C642 1.387 . S
C643 C644 1.372 . S
C644 H622 0.950 . S
C644 C643 1.372 . S
C644 C645 1.379 . S
C645 H623 0.948 . S
C645 C640 1.364 . S
C645 C644 1.379 . S
C646 C615 1.383 . S
C646 C633 1.479 . S
C646 C647 1.398 . S
C647 C612 1.382 . S
C647 H624 0.951 . S
C647 C646 1.398 . S
Eu648 N679 2.657 . S
Eu648 N686 2.609 . S
Eu648 O692 2.558 . S
Eu648 O693 2.612 1_565 S
Eu648 O695 2.339 1_565 S
Eu648 O696 2.563 1_565 S
Eu648 O697 2.419 . S
Eu648 O699 2.380 1_556 S
Eu648 O700 2.432 . S
Eu648 C712 2.848 . S
C649 C652 1.429 . S
C649 C653 1.411 . S
C649 N656 1.377 . S
C650 C652 1.420 . S
C650 C654 1.423 . S
C650 C662 1.392 . S
C651 C653 1.420 . S
C651 C654 1.351 . S
C651 H674 0.931 . S
C652 C649 1.429 . S
C652 C650 1.420 . S
C652 N660 1.362 . S
C653 C649 1.411 . S
C653 C651 1.420 . S
C653 C658 1.395 . S
C654 C650 1.423 . S
C654 C651 1.351 . S
C654 H666 0.930 . S
C655 C657 1.400 . S
C655 C658 1.386 . S
C655 H667 0.930 . S
N656 C649 1.377 . S
N656 C657 1.321 . S
N656 Eu659 2.609 . S
C657 C655 1.400 . S
C657 N656 1.321 . S
C657 H664 0.930 . S
C658 C653 1.395 . S
C658 C655 1.386 . S
C658 H677 0.930 . S
Eu659 N656 2.609 . S
Eu659 N660 2.657 . S
Eu659 O693 2.380 1_554 S
Eu659 O694 2.432 . S
Eu659 O698 2.558 . S
Eu659 O699 2.612 1_545 S
Eu659 O701 2.339 1_545 S
Eu659 O702 2.563 1_545 S
Eu659 O703 2.419 . S
Eu659 C723 2.848 . S
N660 C652 1.362 . S
N660 Eu659 2.657 . S
N660 C661 1.334 . S
C661 N660 1.334 . S
C661 C663 1.413 . S
C661 H668 0.929 . S
C662 C650 1.392 . S
C662 C663 1.367 . S
C662 H670 0.930 . S
C663 C661 1.413 . S
C663 C662 1.367 . S
C663 H665 0.930 . S
H664 C657 0.930 . S
H665 C663 0.930 . S
H666 C654 0.930 . S
H667 C655 0.930 . S
H668 C661 0.929 . S
H669 C683 0.930 . S
H670 C662 0.930 . S
H671 C689 0.930 . S
H672 C680 0.929 . S
H673 C687 0.930 . S
H674 C651 0.931 . S
H675 C681 0.930 . S
H676 C714 0.930 . S
H677 C658 0.930 . S
H678 C713 0.931 . S
N679 Eu648 2.657 . S
N679 C680 1.334 . S
N679 C684 1.362 . S
C680 H672 0.929 . S
C680 N679 1.334 . S
C680 C683 1.413 . S
C681 H675 0.930 . S
C681 C682 1.392 . S
C681 C683 1.367 . S
C682 C681 1.392 . S
C682 C684 1.420 . S
C682 C714 1.423 . S
C683 H669 0.930 . S
C683 C680 1.413 . S
C683 C681 1.367 . S
C684 N679 1.362 . S
C684 C682 1.420 . S
C684 C688 1.429 . S
H685 C690 0.930 . S
N686 Eu648 2.609 . S
N686 C688 1.377 . S
N686 C689 1.321 . S
C687 H673 0.930 . S
C687 C689 1.400 . S
C687 C690 1.386 . S
C688 C684 1.429 . S
C688 N686 1.377 . S
C688 C691 1.411 . S
C689 H671 0.930 . S
C689 N686 1.321 . S
C689 C687 1.400 . S
C690 H685 0.930 . S
C690 C687 1.386 . S
C690 C691 1.395 . S
C691 C688 1.411 . S
C691 C690 1.395 . S
C691 C713 1.420 . S
O692 Eu648 2.558 . S
O692 C712 1.257 . S
O693 Eu648 2.612 1_545 S
O693 Eu659 2.380 1_556 S
O693 C704 1.276 . S
O694 Eu659 2.432 . S
O694 C711 1.264 1_554 S
O695 Eu648 2.339 1_545 S
O695 C711 1.254 . S
O696 Eu648 2.563 1_545 S
O696 C704 1.235 . S
O697 Eu648 2.419 . S
O697 C712 1.249 . S
O698 Eu659 2.558 . S
O698 C723 1.257 . S
O699 Eu648 2.380 1_554 S
O699 Eu659 2.612 1_565 S
O699 C715 1.276 . S
O700 Eu648 2.432 . S
O700 C722 1.264 1_556 S
O701 Eu659 2.339 1_565 S
O701 C722 1.254 . S
O702 Eu659 2.563 1_565 S
O702 C715 1.235 . S
O703 Eu659 2.419 . S
O703 C723 1.249 . S
C704 O693 1.276 . S
C704 O696 1.235 . S
C705 C707 1.393 1_565 S
C705 C709 1.395 . S
C705 C712 1.492 . S
C706 C707 1.392 . S
C706 C708 1.386 1_545 S
C707 C705 1.393 1_545 S
C707 C706 1.392 . S
C707 H724 0.930 . S
C708 C706 1.386 1_565 S
C708 C710 1.395 . S
C708 H725 0.930 . S
C709 C705 1.395 . S
C709 C710 1.379 . S
C709 H726 0.930 . S
C710 C708 1.395 . S
C710 C709 1.379 . S
C710 H727 0.930 . S
C711 O694 1.264 1_556 S
C711 O695 1.254 . S
C712 Eu648 2.848 . S
C712 O692 1.257 . S
C712 O697 1.249 . S
C712 C705 1.492 . S
C713 H678 0.931 . S
C713 C691 1.420 . S
C713 C714 1.351 . S
C714 H676 0.930 . S
C714 C682 1.423 . S
C714 C713 1.351 . S
C715 O699 1.276 . S
C715 O702 1.235 . S
C716 C717 1.393 1_545 S
C716 C720 1.395 . S
C716 C723 1.492 . S
C717 C716 1.393 1_565 S
C717 C718 1.392 . S
C717 H728 0.930 . S
C718 C717 1.392 . S
C718 C719 1.386 1_565 S
C719 C718 1.386 1_545 S
C719 C721 1.395 . S
C719 H729 0.930 . S
C720 C716 1.395 . S
C720 C721 1.379 . S
C720 H730 0.930 . S
C721 C719 1.395 . S
C721 C720 1.379 . S
C721 H731 0.930 . S
C722 O700 1.264 1_554 S
C722 O701 1.254 . S
C723 Eu659 2.848 . S
C723 O698 1.257 . S
C723 O703 1.249 . S
C723 C716 1.492 . S
H724 C707 0.930 . S
H725 C708 0.930 . S
H726 C709 0.930 . S
H727 C710 0.930 . S
H728 C717 0.930 . S
H729 C719 0.930 . S
H730 C720 0.930 . S
H731 C721 0.930 . S
Eu732 N763 2.657 . S
Eu732 N770 2.609 . S
Eu732 O776 2.558 . S
Eu732 O777 2.612 1_455 S
Eu732 O779 2.339 1_455 S
Eu732 O780 2.563 1_455 S
Eu732 O781 2.419 . S
Eu732 O783 2.380 1_556 S
Eu732 O784 2.432 . S
Eu732 C796 2.848 . S
C733 C736 1.429 . S
C733 C737 1.411 . S
C733 N740 1.377 . S
C734 C736 1.420 . S
C734 C738 1.423 . S
C734 C746 1.392 . S
C735 C737 1.420 . S
C735 C738 1.351 . S
C735 H758 0.931 . S
C736 C733 1.429 . S
C736 C734 1.420 . S
C736 N744 1.362 . S
C737 C733 1.411 . S
C737 C735 1.420 . S
C737 C742 1.395 . S
C738 C734 1.423 . S
C738 C735 1.351 . S
C738 H750 0.930 . S
C739 C741 1.400 . S
C739 C742 1.386 . S
C739 H751 0.930 . S
N740 C733 1.377 . S
N740 C741 1.321 . S
N740 Eu743 2.609 . S
C741 C739 1.400 . S
C741 N740 1.321 . S
C741 H748 0.930 . S
C742 C737 1.395 . S
C742 C739 1.386 . S
C742 H761 0.930 . S
Eu743 N740 2.609 . S
Eu743 N744 2.657 . S
Eu743 O777 2.380 1_554 S
Eu743 O778 2.432 . S
Eu743 O782 2.558 . S
Eu743 O783 2.612 1_655 S
Eu743 O785 2.339 1_655 S
Eu743 O786 2.563 1_655 S
Eu743 O787 2.419 . S
Eu743 C807 2.848 . S
N744 C736 1.362 . S
N744 Eu743 2.657 . S
N744 C745 1.334 . S
C745 N744 1.334 . S
C745 C747 1.413 . S
C745 H752 0.929 . S
C746 C734 1.392 . S
C746 C747 1.367 . S
C746 H754 0.930 . S
C747 C745 1.413 . S
C747 C746 1.367 . S
C747 H749 0.930 . S
H748 C741 0.930 . S
H749 C747 0.930 . S
H750 C738 0.930 . S
H751 C739 0.930 . S
H752 C745 0.929 . S
H753 C767 0.930 . S
H754 C746 0.930 . S
H755 C773 0.930 . S
H756 C764 0.929 . S
H757 C771 0.930 . S
H758 C735 0.931 . S
H759 C765 0.930 . S
H760 C798 0.930 . S
H761 C742 0.930 . S
H762 C797 0.931 . S
N763 Eu732 2.657 . S
N763 C764 1.334 . S
N763 C768 1.362 . S
C764 H756 0.929 . S
C764 N763 1.334 . S
C764 C767 1.413 . S
C765 H759 0.930 . S
C765 C766 1.392 . S
C765 C767 1.367 . S
C766 C765 1.392 . S
C766 C768 1.420 . S
C766 C798 1.423 . S
C767 H753 0.930 . S
C767 C764 1.413 . S
C767 C765 1.367 . S
C768 N763 1.362 . S
C768 C766 1.420 . S
C768 C772 1.429 . S
H769 C774 0.930 . S
N770 Eu732 2.609 . S
N770 C772 1.377 . S
N770 C773 1.321 . S
C771 H757 0.930 . S
C771 C773 1.400 . S
C771 C774 1.386 . S
C772 C768 1.429 . S
C772 N770 1.377 . S
C772 C775 1.411 . S
C773 H755 0.930 . S
C773 N770 1.321 . S
C773 C771 1.400 . S
C774 H769 0.930 . S
C774 C771 1.386 . S
C774 C775 1.395 . S
C775 C772 1.411 . S
C775 C774 1.395 . S
C775 C797 1.420 . S
O776 Eu732 2.558 . S
O776 C796 1.257 . S
O777 Eu732 2.612 1_655 S
O777 Eu743 2.380 1_556 S
O777 C788 1.276 . S
O778 Eu743 2.432 . S
O778 C795 1.264 1_554 S
O779 Eu732 2.339 1_655 S
O779 C795 1.254 . S
O780 Eu732 2.563 1_655 S
O780 C788 1.235 . S
O781 Eu732 2.419 . S
O781 C796 1.249 . S
O782 Eu743 2.558 . S
O782 C807 1.257 . S
O783 Eu732 2.380 1_554 S
O783 Eu743 2.612 1_455 S
O783 C799 1.276 . S
O784 Eu732 2.432 . S
O784 C806 1.264 1_556 S
O785 Eu743 2.339 1_455 S
O785 C806 1.254 . S
O786 Eu743 2.563 1_455 S
O786 C799 1.235 . S
O787 Eu743 2.419 . S
O787 C807 1.249 . S
C788 O777 1.276 . S
C788 O780 1.235 . S
C789 C791 1.393 1_455 S
C789 C793 1.395 . S
C789 C796 1.492 . S
C790 C791 1.392 . S
C790 C792 1.386 1_655 S
C791 C789 1.393 1_655 S
C791 C790 1.392 . S
C791 H808 0.930 . S
C792 C790 1.386 1_455 S
C792 C794 1.395 . S
C792 H809 0.930 . S
C793 C789 1.395 . S
C793 C794 1.379 . S
C793 H810 0.930 . S
C794 C792 1.395 . S
C794 C793 1.379 . S
C794 H811 0.930 . S
C795 O778 1.264 1_556 S
C795 O779 1.254 . S
C796 Eu732 2.848 . S
C796 O776 1.257 . S
C796 O781 1.249 . S
C796 C789 1.492 . S
C797 H762 0.931 . S
C797 C775 1.420 . S
C797 C798 1.351 . S
C798 H760 0.930 . S
C798 C766 1.423 . S
C798 C797 1.351 . S
C799 O783 1.276 . S
C799 O786 1.235 . S
C800 C801 1.393 1_655 S
C800 C804 1.395 . S
C800 C807 1.492 . S
C801 C800 1.393 1_455 S
C801 C802 1.392 . S
C801 H812 0.930 . S
C802 C801 1.392 . S
C802 C803 1.386 1_455 S
C803 C802 1.386 1_655 S
C803 C805 1.395 . S
C803 H813 0.930 . S
C804 C800 1.395 . S
C804 C805 1.379 . S
C804 H814 0.930 . S
C805 C803 1.395 . S
C805 C804 1.379 . S
C805 H815 0.930 . S
C806 O784 1.264 1_554 S
C806 O785 1.254 . S
C807 Eu743 2.848 . S
C807 O782 1.257 . S
C807 O787 1.249 . S
C807 C800 1.492 . S
H808 C791 0.930 . S
H809 C792 0.930 . S
H810 C793 0.930 . S
H811 C794 0.930 . S
H812 C801 0.930 . S
H813 C803 0.930 . S
H814 C804 0.930 . S
H815 C805 0.930 . S
Eu816 N847 2.657 . S
Eu816 N854 2.609 . S
Eu816 O860 2.558 . S
Eu816 O861 2.612 . S
Eu816 O863 2.339 . S
Eu816 O864 2.563 . S
Eu816 O865 2.419 . S
Eu816 O867 2.380 1_554 S
Eu816 O868 2.432 . S
Eu816 C880 2.848 . S
C817 C820 1.429 . S
C817 C821 1.411 . S
C817 N824 1.377 . S
C818 C820 1.420 . S
C818 C822 1.423 . S
C818 C830 1.392 . S
C819 C821 1.420 . S
C819 C822 1.351 . S
C819 H842 0.931 . S
C820 C817 1.429 . S
C820 C818 1.420 . S
C820 N828 1.362 . S
C821 C817 1.411 . S
C821 C819 1.420 . S
C821 C826 1.395 . S
C822 C818 1.423 . S
C822 C819 1.351 . S
C822 H834 0.930 . S
C823 C825 1.400 . S
C823 C826 1.386 . S
C823 H835 0.930 . S
N824 C817 1.377 . S
N824 C825 1.321 . S
N824 Eu827 2.609 . S
C825 C823 1.400 . S
C825 N824 1.321 . S
C825 H832 0.930 . S
C826 C821 1.395 . S
C826 C823 1.386 . S
C826 H845 0.930 . S
Eu827 N824 2.609 . S
Eu827 N828 2.657 . S
Eu827 O861 2.380 1_556 S
Eu827 O862 2.432 . S
Eu827 O866 2.558 . S
Eu827 O867 2.612 . S
Eu827 O869 2.339 . S
Eu827 O870 2.563 . S
Eu827 O871 2.419 . S
Eu827 C891 2.848 . S
N828 C820 1.362 . S
N828 Eu827 2.657 . S
N828 C829 1.334 . S
C829 N828 1.334 . S
C829 C831 1.413 . S
C829 H836 0.929 . S
C830 C818 1.392 . S
C830 C831 1.367 . S
C830 H838 0.930 . S
C831 C829 1.413 . S
C831 C830 1.367 . S
C831 H833 0.930 . S
H832 C825 0.930 . S
H833 C831 0.930 . S
H834 C822 0.930 . S
H835 C823 0.930 . S
H836 C829 0.929 . S
H837 C851 0.930 . S
H838 C830 0.930 . S
H839 C857 0.930 . S
H840 C848 0.929 . S
H841 C855 0.930 . S
H842 C819 0.931 . S
H843 C849 0.930 . S
H844 C882 0.930 . S
H845 C826 0.930 . S
H846 C881 0.931 . S
N847 Eu816 2.657 . S
N847 C848 1.334 . S
N847 C852 1.362 . S
C848 H840 0.929 . S
C848 N847 1.334 . S
C848 C851 1.413 . S
C849 H843 0.930 . S
C849 C850 1.392 . S
C849 C851 1.367 . S
C850 C849 1.392 . S
C850 C852 1.420 . S
C850 C882 1.423 . S
C851 H837 0.930 . S
C851 C848 1.413 . S
C851 C849 1.367 . S
C852 N847 1.362 . S
C852 C850 1.420 . S
C852 C856 1.429 . S
H853 C858 0.930 . S
N854 Eu816 2.609 . S
N854 C856 1.377 . S
N854 C857 1.321 . S
C855 H841 0.930 . S
C855 C857 1.400 . S
C855 C858 1.386 . S
C856 C852 1.429 . S
C856 N854 1.377 . S
C856 C859 1.411 . S
C857 H839 0.930 . S
C857 N854 1.321 . S
C857 C855 1.400 . S
C858 H853 0.930 . S
C858 C855 1.386 . S
C858 C859 1.395 . S
C859 C856 1.411 . S
C859 C858 1.395 . S
C859 C881 1.420 . S
O860 Eu816 2.558 . S
O860 C880 1.257 . S
O861 Eu816 2.612 . S
O861 Eu827 2.380 1_554 S
O861 C872 1.276 . S
O862 Eu827 2.432 . S
O862 C879 1.264 1_556 S
O863 Eu816 2.339 . S
O863 C879 1.254 . S
O864 Eu816 2.563 . S
O864 C872 1.235 . S
O865 Eu816 2.419 . S
O865 C880 1.249 . S
O866 Eu827 2.558 . S
O866 C891 1.257 . S
O867 Eu816 2.380 1_556 S
O867 Eu827 2.612 . S
O867 C883 1.276 . S
O868 Eu816 2.432 . S
O868 C890 1.264 1_554 S
O869 Eu827 2.339 . S
O869 C890 1.254 . S
O870 Eu827 2.563 . S
O870 C883 1.235 . S
O871 Eu827 2.419 . S
O871 C891 1.249 . S
C872 O861 1.276 . S
C872 O864 1.235 . S
C873 C875 1.393 . S
C873 C877 1.395 . S
C873 C880 1.492 . S
C874 C875 1.392 . S
C874 C876 1.386 . S
C875 C873 1.393 . S
C875 C874 1.392 . S
C875 H892 0.930 . S
C876 C874 1.386 . S
C876 C878 1.395 . S
C876 H893 0.930 . S
C877 C873 1.395 . S
C877 C878 1.379 . S
C877 H894 0.930 . S
C878 C876 1.395 . S
C878 C877 1.379 . S
C878 H895 0.930 . S
C879 O862 1.264 1_554 S
C879 O863 1.254 . S
C880 Eu816 2.848 . S
C880 O860 1.257 . S
C880 O865 1.249 . S
C880 C873 1.492 . S
C881 H846 0.931 . S
C881 C859 1.420 . S
C881 C882 1.351 . S
C882 H844 0.930 . S
C882 C850 1.423 . S
C882 C881 1.351 . S
C883 O867 1.276 . S
C883 O870 1.235 . S
C884 C885 1.393 . S
C884 C888 1.395 . S
C884 C891 1.492 . S
C885 C884 1.393 . S
C885 C886 1.392 . S
C885 H896 0.930 . S
C886 C885 1.392 . S
C886 C887 1.386 . S
C887 C886 1.386 . S
C887 C889 1.395 . S
C887 H897 0.930 . S
C888 C884 1.395 . S
C888 C889 1.379 . S
C888 H898 0.930 . S
C889 C887 1.395 . S
C889 C888 1.379 . S
C889 H899 0.930 . S
C890 O868 1.264 1_556 S
C890 O869 1.254 . S
C891 Eu827 2.848 . S
C891 O866 1.257 . S
C891 O871 1.249 . S
C891 C884 1.492 . S
H892 C875 0.930 . S
H893 C876 0.930 . S
H894 C877 0.930 . S
H895 C878 0.930 . S
H896 C885 0.930 . S
H897 C887 0.930 . S
H898 C888 0.930 . S
H899 C889 0.930 . S
Eu900 N931 2.657 . S
Eu900 N938 2.609 . S
Eu900 O944 2.558 . S
Eu900 O945 2.612 . S
Eu900 O947 2.339 . S
Eu900 O948 2.563 . S
Eu900 O949 2.419 . S
Eu900 O951 2.380 . S
Eu900 O952 2.432 . S
Eu900 C964 2.848 . S
C901 C904 1.429 . S
C901 C905 1.411 . S
C901 N908 1.377 . S
C902 C904 1.420 . S
C902 C906 1.423 . S
C902 C914 1.392 . S
C903 C905 1.420 . S
C903 C906 1.351 . S
C903 H926 0.931 . S
C904 C901 1.429 . S
C904 C902 1.420 . S
C904 N912 1.362 . S
C905 C901 1.411 . S
C905 C903 1.420 . S
C905 C910 1.395 . S
C906 C902 1.423 . S
C906 C903 1.351 . S
C906 H918 0.930 . S
C907 C909 1.400 . S
C907 C910 1.386 . S
C907 H919 0.930 . S
N908 C901 1.377 . S
N908 C909 1.321 . S
N908 Eu911 2.609 . S
C909 C907 1.400 . S
C909 N908 1.321 . S
C909 H916 0.930 . S
C910 C905 1.395 . S
C910 C907 1.386 . S
C910 H929 0.930 . S
Eu911 N908 2.609 . S
Eu911 N912 2.657 . S
Eu911 O945 2.380 . S
Eu911 O946 2.432 . S
Eu911 O950 2.558 . S
Eu911 O951 2.612 . S
Eu911 O953 2.339 . S
Eu911 O954 2.563 . S
Eu911 O955 2.419 . S
Eu911 C975 2.848 . S
N912 C904 1.362 . S
N912 Eu911 2.657 . S
N912 C913 1.334 . S
C913 N912 1.334 . S
C913 C915 1.413 . S
C913 H920 0.929 . S
C914 C902 1.392 . S
C914 C915 1.367 . S
C914 H922 0.930 . S
C915 C913 1.413 . S
C915 C914 1.367 . S
C915 H917 0.930 . S
H916 C909 0.930 . S
H917 C915 0.930 . S
H918 C906 0.930 . S
H919 C907 0.930 . S
H920 C913 0.929 . S
H921 C935 0.930 . S
H922 C914 0.930 . S
H923 C941 0.930 . S
H924 C932 0.929 . S
H925 C939 0.930 . S
H926 C903 0.931 . S
H927 C933 0.930 . S
H928 C966 0.930 . S
H929 C910 0.930 . S
H930 C965 0.931 . S
N931 Eu900 2.657 . S
N931 C932 1.334 . S
N931 C936 1.362 . S
C932 H924 0.929 . S
C932 N931 1.334 . S
C932 C935 1.413 . S
C933 H927 0.930 . S
C933 C934 1.392 . S
C933 C935 1.367 . S
C934 C933 1.392 . S
C934 C936 1.420 . S
C934 C966 1.423 . S
C935 H921 0.930 . S
C935 C932 1.413 . S
C935 C933 1.367 . S
C936 N931 1.362 . S
C936 C934 1.420 . S
C936 C940 1.429 . S
H937 C942 0.930 . S
N938 Eu900 2.609 . S
N938 C940 1.377 . S
N938 C941 1.321 . S
C939 H925 0.930 . S
C939 C941 1.400 . S
C939 C942 1.386 . S
C940 C936 1.429 . S
C940 N938 1.377 . S
C940 C943 1.411 . S
C941 H923 0.930 . S
C941 N938 1.321 . S
C941 C939 1.400 . S
C942 H937 0.930 . S
C942 C939 1.386 . S
C942 C943 1.395 . S
C943 C940 1.411 . S
C943 C942 1.395 . S
C943 C965 1.420 . S
O944 Eu900 2.558 . S
O944 C964 1.257 . S
O945 Eu900 2.612 . S
O945 Eu911 2.380 . S
O945 C956 1.276 . S
O946 Eu911 2.432 . S
O946 C963 1.264 . S
O947 Eu900 2.339 . S
O947 C963 1.254 . S
O948 Eu900 2.563 . S
O948 C956 1.235 . S
O949 Eu900 2.419 . S
O949 C964 1.249 . S
O950 Eu911 2.558 . S
O950 C975 1.257 . S
O951 Eu900 2.380 . S
O951 Eu911 2.612 . S
O951 C967 1.276 . S
O952 Eu900 2.432 . S
O952 C974 1.264 . S
O953 Eu911 2.339 . S
O953 C974 1.254 . S
O954 Eu911 2.563 . S
O954 C967 1.235 . S
O955 Eu911 2.419 . S
O955 C975 1.249 . S
C956 O945 1.276 . S
C956 O948 1.235 . S
C957 C959 1.393 . S
C957 C961 1.395 . S
C957 C964 1.492 . S
C958 C959 1.392 . S
C958 C960 1.386 . S
C959 C957 1.393 . S
C959 C958 1.392 . S
C959 H976 0.930 . S
C960 C958 1.386 . S
C960 C962 1.395 . S
C960 H977 0.930 . S
C961 C957 1.395 . S
C961 C962 1.379 . S
C961 H978 0.930 . S
C962 C960 1.395 . S
C962 C961 1.379 . S
C962 H979 0.930 . S
C963 O946 1.264 . S
C963 O947 1.254 . S
C964 Eu900 2.848 . S
C964 O944 1.257 . S
C964 O949 1.249 . S
C964 C957 1.492 . S
C965 H930 0.931 . S
C965 C943 1.420 . S
C965 C966 1.351 . S
C966 H928 0.930 . S
C966 C934 1.423 . S
C966 C965 1.351 . S
C967 O951 1.276 . S
C967 O954 1.235 . S
C968 C969 1.393 . S
C968 C972 1.395 . S
C968 C975 1.492 . S
C969 C968 1.393 . S
C969 C970 1.392 . S
C969 H980 0.930 . S
C970 C969 1.392 . S
C970 C971 1.386 . S
C971 C970 1.386 . S
C971 C973 1.395 . S
C971 H981 0.930 . S
C972 C968 1.395 . S
C972 C973 1.379 . S
C972 H982 0.930 . S
C973 C971 1.395 . S
C973 C972 1.379 . S
C973 H983 0.930 . S
C974 O952 1.264 . S
C974 O953 1.254 . S
C975 Eu911 2.848 . S
C975 O950 1.257 . S
C975 O955 1.249 . S
C975 C968 1.492 . S
H976 C959 0.930 . S
H977 C960 0.930 . S
H978 C961 0.930 . S
H979 C962 0.930 . S
H980 C969 0.930 . S
H981 C971 0.930 . S
H982 C972 0.930 . S
H983 C973 0.930 . S
Eu984 N1015 2.657 . S
Eu984 N1022 2.609 . S
Eu984 O1028 2.558 . S
Eu984 O1029 2.612 . S
Eu984 O1031 2.339 . S
Eu984 O1032 2.563 . S
Eu984 O1033 2.419 . S
Eu984 O1035 2.380 . S
Eu984 O1036 2.432 . S
Eu984 C1048 2.848 . S
C985 C988 1.429 . S
C985 C989 1.411 . S
C985 N992 1.377 . S
C986 C988 1.420 . S
C986 C990 1.423 . S
C986 C998 1.392 . S
C987 C989 1.420 . S
C987 C990 1.351 . S
C987 H1010 0.931 . S
C988 C985 1.429 . S
C988 C986 1.420 . S
C988 N996 1.362 . S
C989 C985 1.411 . S
C989 C987 1.420 . S
C989 C994 1.395 . S
C990 C986 1.423 . S
C990 C987 1.351 . S
C990 H1002 0.930 . S
C991 C993 1.400 . S
C991 C994 1.386 . S
C991 H1003 0.930 . S
N992 C985 1.377 . S
N992 C993 1.321 . S
N992 Eu995 2.609 . S
C993 C991 1.400 . S
C993 N992 1.321 . S
C993 H1000 0.930 . S
C994 C989 1.395 . S
C994 C991 1.386 . S
C994 H1013 0.930 . S
Eu995 N992 2.609 . S
Eu995 N996 2.657 . S
Eu995 O1029 2.380 . S
Eu995 O1030 2.432 . S
Eu995 O1034 2.558 . S
Eu995 O1035 2.612 . S
Eu995 O1037 2.339 . S
Eu995 O1038 2.563 . S
Eu995 O1039 2.419 . S
Eu995 C1059 2.848 . S
N996 C988 1.362 . S
N996 Eu995 2.657 . S
N996 C997 1.334 . S
C997 N996 1.334 . S
C997 C999 1.413 . S
C997 H1004 0.929 . S
C998 C986 1.392 . S
C998 C999 1.367 . S
C998 H1006 0.930 . S
C999 C997 1.413 . S
C999 C998 1.367 . S
C999 H1001 0.930 . S
H1000 C993 0.930 . S
H1001 C999 0.930 . S
H1002 C990 0.930 . S
H1003 C991 0.930 . S
H1004 C997 0.929 . S
H1005 C1019 0.930 . S
H1006 C998 0.930 . S
H1007 C1025 0.930 . S
H1008 C1016 0.929 . S
H1009 C1023 0.930 . S
H1010 C987 0.931 . S
H1011 C1017 0.930 . S
H1012 C1050 0.930 . S
H1013 C994 0.930 . S
H1014 C1049 0.931 . S
N1015 Eu984 2.657 . S
N1015 C1016 1.334 . S
N1015 C1020 1.362 . S
C1016 H1008 0.929 . S
C1016 N1015 1.334 . S
C1016 C1019 1.413 . S
C1017 H1011 0.930 . S
C1017 C1018 1.392 . S
C1017 C1019 1.367 . S
C1018 C1017 1.392 . S
C1018 C1020 1.420 . S
C1018 C1050 1.423 . S
C1019 H1005 0.930 . S
C1019 C1016 1.413 . S
C1019 C1017 1.367 . S
C1020 N1015 1.362 . S
C1020 C1018 1.420 . S
C1020 C1024 1.429 . S
H1021 C1026 0.930 . S
N1022 Eu984 2.609 . S
N1022 C1024 1.377 . S
N1022 C1025 1.321 . S
C1023 H1009 0.930 . S
C1023 C1025 1.400 . S
C1023 C1026 1.386 . S
C1024 C1020 1.429 . S
C1024 N1022 1.377 . S
C1024 C1027 1.411 . S
C1025 H1007 0.930 . S
C1025 N1022 1.321 . S
C1025 C1023 1.400 . S
C1026 H1021 0.930 . S
C1026 C1023 1.386 . S
C1026 C1027 1.395 . S
C1027 C1024 1.411 . S
C1027 C1026 1.395 . S
C1027 C1049 1.420 . S
O1028 Eu984 2.558 . S
O1028 C1048 1.257 . S
O1029 Eu984 2.612 . S
O1029 Eu995 2.380 . S
O1029 C1040 1.276 . S
O1030 Eu995 2.432 . S
O1030 C1047 1.264 . S
O1031 Eu984 2.339 . S
O1031 C1047 1.254 . S
O1032 Eu984 2.563 . S
O1032 C1040 1.235 . S
O1033 Eu984 2.419 . S
O1033 C1048 1.249 . S
O1034 Eu995 2.558 . S
O1034 C1059 1.257 . S
O1035 Eu984 2.380 . S
O1035 Eu995 2.612 . S
O1035 C1051 1.276 . S
O1036 Eu984 2.432 . S
O1036 C1058 1.264 . S
O1037 Eu995 2.339 . S
O1037 C1058 1.254 . S
O1038 Eu995 2.563 . S
O1038 C1051 1.235 . S
O1039 Eu995 2.419 . S
O1039 C1059 1.249 . S
C1040 O1029 1.276 . S
C1040 O1032 1.235 . S
C1041 C1043 1.393 . S
C1041 C1045 1.395 . S
C1041 C1048 1.492 . S
C1042 C1043 1.392 . S
C1042 C1044 1.386 . S
C1043 C1041 1.393 . S
C1043 C1042 1.392 . S
C1043 H1060 0.930 . S
C1044 C1042 1.386 . S
C1044 C1046 1.395 . S
C1044 H1061 0.930 . S
C1045 C1041 1.395 . S
C1045 C1046 1.379 . S
C1045 H1062 0.930 . S
C1046 C1044 1.395 . S
C1046 C1045 1.379 . S
C1046 H1063 0.930 . S
C1047 O1030 1.264 . S
C1047 O1031 1.254 . S
C1048 Eu984 2.848 . S
C1048 O1028 1.257 . S
C1048 O1033 1.249 . S
C1048 C1041 1.492 . S
C1049 H1014 0.931 . S
C1049 C1027 1.420 . S
C1049 C1050 1.351 . S
C1050 H1012 0.930 . S
C1050 C1018 1.423 . S
C1050 C1049 1.351 . S
C1051 O1035 1.276 . S
C1051 O1038 1.235 . S
C1052 C1053 1.393 . S
C1052 C1056 1.395 . S
C1052 C1059 1.492 . S
C1053 C1052 1.393 . S
C1053 C1054 1.392 . S
C1053 H1064 0.930 . S
C1054 C1053 1.392 . S
C1054 C1055 1.386 . S
C1055 C1054 1.386 . S
C1055 C1057 1.395 . S
C1055 H1065 0.930 . S
C1056 C1052 1.395 . S
C1056 C1057 1.379 . S
C1056 H1066 0.930 . S
C1057 C1055 1.395 . S
C1057 C1056 1.379 . S
C1057 H1067 0.930 . S
C1058 O1036 1.264 . S
C1058 O1037 1.254 . S
C1059 Eu995 2.848 . S
C1059 O1034 1.257 . S
C1059 O1039 1.249 . S
C1059 C1052 1.492 . S
H1060 C1043 0.930 . S
H1061 C1044 0.930 . S
H1062 C1045 0.930 . S
H1063 C1046 0.930 . S
H1064 C1053 0.930 . S
H1065 C1055 0.930 . S
H1066 C1056 0.930 . S
H1067 C1057 0.930 . S
Eu1068 N1099 2.657 . S
Eu1068 N1106 2.609 . S
Eu1068 O1112 2.558 . S
Eu1068 O1113 2.612 . S
Eu1068 O1115 2.339 . S
Eu1068 O1116 2.563 . S
Eu1068 O1117 2.419 . S
Eu1068 O1119 2.380 . S
Eu1068 O1120 2.432 . S
Eu1068 C1132 2.848 . S
C1069 C1072 1.429 . S
C1069 C1073 1.411 . S
C1069 N1076 1.377 . S
C1070 C1072 1.420 . S
C1070 C1074 1.423 . S
C1070 C1082 1.392 . S
C1071 C1073 1.420 . S
C1071 C1074 1.351 . S
C1071 H1094 0.931 . S
C1072 C1069 1.429 . S
C1072 C1070 1.420 . S
C1072 N1080 1.362 . S
C1073 C1069 1.411 . S
C1073 C1071 1.420 . S
C1073 C1078 1.395 . S
C1074 C1070 1.423 . S
C1074 C1071 1.351 . S
C1074 H1086 0.930 . S
C1075 C1077 1.400 . S
C1075 C1078 1.386 . S
C1075 H1087 0.930 . S
N1076 C1069 1.377 . S
N1076 C1077 1.321 . S
N1076 Eu1079 2.609 . S
C1077 C1075 1.400 . S
C1077 N1076 1.321 . S
C1077 H1084 0.930 . S
C1078 C1073 1.395 . S
C1078 C1075 1.386 . S
C1078 H1097 0.930 . S
Eu1079 N1076 2.609 . S
Eu1079 N1080 2.657 . S
Eu1079 O1113 2.380 . S
Eu1079 O1114 2.432 . S
Eu1079 O1118 2.558 . S
Eu1079 O1119 2.612 . S
Eu1079 O1121 2.339 . S
Eu1079 O1122 2.563 . S
Eu1079 O1123 2.419 . S
Eu1079 C1143 2.848 . S
N1080 C1072 1.362 . S
N1080 Eu1079 2.657 . S
N1080 C1081 1.334 . S
C1081 N1080 1.334 . S
C1081 C1083 1.413 . S
C1081 H1088 0.929 . S
C1082 C1070 1.392 . S
C1082 C1083 1.367 . S
C1082 H1090 0.930 . S
C1083 C1081 1.413 . S
C1083 C1082 1.367 . S
C1083 H1085 0.930 . S
H1084 C1077 0.930 . S
H1085 C1083 0.930 . S
H1086 C1074 0.930 . S
H1087 C1075 0.930 . S
H1088 C1081 0.929 . S
H1089 C1103 0.930 . S
H1090 C1082 0.930 . S
H1091 C1109 0.930 . S
H1092 C1100 0.929 . S
H1093 C1107 0.930 . S
H1094 C1071 0.931 . S
H1095 C1101 0.930 . S
H1096 C1134 0.930 . S
H1097 C1078 0.930 . S
H1098 C1133 0.931 . S
N1099 Eu1068 2.657 . S
N1099 C1100 1.334 . S
N1099 C1104 1.362 . S
C1100 H1092 0.929 . S
C1100 N1099 1.334 . S
C1100 C1103 1.413 . S
C1101 H1095 0.930 . S
C1101 C1102 1.392 . S
C1101 C1103 1.367 . S
C1102 C1101 1.392 . S
C1102 C1104 1.420 . S
C1102 C1134 1.423 . S
C1103 H1089 0.930 . S
C1103 C1100 1.413 . S
C1103 C1101 1.367 . S
C1104 N1099 1.362 . S
C1104 C1102 1.420 . S
C1104 C1108 1.429 . S
H1105 C1110 0.930 . S
N1106 Eu1068 2.609 . S
N1106 C1108 1.377 . S
N1106 C1109 1.321 . S
C1107 H1093 0.930 . S
C1107 C1109 1.400 . S
C1107 C1110 1.386 . S
C1108 C1104 1.429 . S
C1108 N1106 1.377 . S
C1108 C1111 1.411 . S
C1109 H1091 0.930 . S
C1109 N1106 1.321 . S
C1109 C1107 1.400 . S
C1110 H1105 0.930 . S
C1110 C1107 1.386 . S
C1110 C1111 1.395 . S
C1111 C1108 1.411 . S
C1111 C1110 1.395 . S
C1111 C1133 1.420 . S
O1112 Eu1068 2.558 . S
O1112 C1132 1.257 . S
O1113 Eu1068 2.612 . S
O1113 Eu1079 2.380 . S
O1113 C1124 1.276 . S
O1114 Eu1079 2.432 . S
O1114 C1131 1.264 . S
O1115 Eu1068 2.339 . S
O1115 C1131 1.254 . S
O1116 Eu1068 2.563 . S
O1116 C1124 1.235 . S
O1117 Eu1068 2.419 . S
O1117 C1132 1.249 . S
O1118 Eu1079 2.558 . S
O1118 C1143 1.257 . S
O1119 Eu1068 2.380 . S
O1119 Eu1079 2.612 . S
O1119 C1135 1.276 . S
O1120 Eu1068 2.432 . S
O1120 C1142 1.264 . S
O1121 Eu1079 2.339 . S
O1121 C1142 1.254 . S
O1122 Eu1079 2.563 . S
O1122 C1135 1.235 . S
O1123 Eu1079 2.419 . S
O1123 C1143 1.249 . S
C1124 O1113 1.276 . S
C1124 O1116 1.235 . S
C1125 C1127 1.393 . S
C1125 C1129 1.395 . S
C1125 C1132 1.492 . S
C1126 C1127 1.392 . S
C1126 C1128 1.386 . S
C1127 C1125 1.393 . S
C1127 C1126 1.392 . S
C1127 H1144 0.930 . S
C1128 C1126 1.386 . S
C1128 C1130 1.395 . S
C1128 H1145 0.930 . S
C1129 C1125 1.395 . S
C1129 C1130 1.379 . S
C1129 H1146 0.930 . S
C1130 C1128 1.395 . S
C1130 C1129 1.379 . S
C1130 H1147 0.930 . S
C1131 O1114 1.264 . S
C1131 O1115 1.254 . S
C1132 Eu1068 2.848 . S
C1132 O1112 1.257 . S
C1132 O1117 1.249 . S
C1132 C1125 1.492 . S
C1133 H1098 0.931 . S
C1133 C1111 1.420 . S
C1133 C1134 1.351 . S
C1134 H1096 0.930 . S
C1134 C1102 1.423 . S
C1134 C1133 1.351 . S
C1135 O1119 1.276 . S
C1135 O1122 1.235 . S
C1136 C1137 1.393 . S
C1136 C1140 1.395 . S
C1136 C1143 1.492 . S
C1137 C1136 1.393 . S
C1137 C1138 1.392 . S
C1137 H1148 0.930 . S
C1138 C1137 1.392 . S
C1138 C1139 1.386 . S
C1139 C1138 1.386 . S
C1139 C1141 1.395 . S
C1139 H1149 0.930 . S
C1140 C1136 1.395 . S
C1140 C1141 1.379 . S
C1140 H1150 0.930 . S
C1141 C1139 1.395 . S
C1141 C1140 1.379 . S
C1141 H1151 0.930 . S
C1142 O1120 1.264 . S
C1142 O1121 1.254 . S
C1143 Eu1079 2.848 . S
C1143 O1118 1.257 . S
C1143 O1123 1.249 . S
C1143 C1136 1.492 . S
H1144 C1127 0.930 . S
H1145 C1128 0.930 . S
H1146 C1129 0.930 . S
H1147 C1130 0.930 . S
H1148 C1137 0.930 . S
H1149 C1139 0.930 . S
H1150 C1140 0.930 . S
H1151 C1141 0.930 . S
Eu1152 N1183 2.657 . S
Eu1152 N1190 2.609 . S
Eu1152 O1196 2.558 . S
Eu1152 O1197 2.612 . S
Eu1152 O1199 2.339 . S
Eu1152 O1200 2.563 . S
Eu1152 O1201 2.419 . S
Eu1152 O1203 2.380 . S
Eu1152 O1204 2.432 . S
Eu1152 C1216 2.848 . S
C1153 C1156 1.429 . S
C1153 C1157 1.411 . S
C1153 N1160 1.377 . S
C1154 C1156 1.420 . S
C1154 C1158 1.423 . S
C1154 C1166 1.392 . S
C1155 C1157 1.420 . S
C1155 C1158 1.351 . S
C1155 H1178 0.931 . S
C1156 C1153 1.429 . S
C1156 C1154 1.420 . S
C1156 N1164 1.362 . S
C1157 C1153 1.411 . S
C1157 C1155 1.420 . S
C1157 C1162 1.395 . S
C1158 C1154 1.423 . S
C1158 C1155 1.351 . S
C1158 H1170 0.930 . S
C1159 C1161 1.400 . S
C1159 C1162 1.386 . S
C1159 H1171 0.930 . S
N1160 C1153 1.377 . S
N1160 C1161 1.321 . S
N1160 Eu1163 2.609 . S
C1161 C1159 1.400 . S
C1161 N1160 1.321 . S
C1161 H1168 0.930 . S
C1162 C1157 1.395 . S
C1162 C1159 1.386 . S
C1162 H1181 0.930 . S
Eu1163 N1160 2.609 . S
Eu1163 N1164 2.657 . S
Eu1163 O1197 2.380 . S
Eu1163 O1198 2.432 . S
Eu1163 O1202 2.558 . S
Eu1163 O1203 2.612 . S
Eu1163 O1205 2.339 . S
Eu1163 O1206 2.563 . S
Eu1163 O1207 2.419 . S
Eu1163 C1227 2.848 . S
N1164 C1156 1.362 . S
N1164 Eu1163 2.657 . S
N1164 C1165 1.334 . S
C1165 N1164 1.334 . S
C1165 C1167 1.413 . S
C1165 H1172 0.929 . S
C1166 C1154 1.392 . S
C1166 C1167 1.367 . S
C1166 H1174 0.930 . S
C1167 C1165 1.413 . S
C1167 C1166 1.367 . S
C1167 H1169 0.930 . S
H1168 C1161 0.930 . S
H1169 C1167 0.930 . S
H1170 C1158 0.930 . S
H1171 C1159 0.930 . S
H1172 C1165 0.929 . S
H1173 C1187 0.930 . S
H1174 C1166 0.930 . S
H1175 C1193 0.930 . S
H1176 C1184 0.929 . S
H1177 C1191 0.930 . S
H1178 C1155 0.931 . S
H1179 C1185 0.930 . S
H1180 C1218 0.930 . S
H1181 C1162 0.930 . S
H1182 C1217 0.931 . S
N1183 Eu1152 2.657 . S
N1183 C1184 1.334 . S
N1183 C1188 1.362 . S
C1184 H1176 0.929 . S
C1184 N1183 1.334 . S
C1184 C1187 1.413 . S
C1185 H1179 0.930 . S
C1185 C1186 1.392 . S
C1185 C1187 1.367 . S
C1186 C1185 1.392 . S
C1186 C1188 1.420 . S
C1186 C1218 1.423 . S
C1187 H1173 0.930 . S
C1187 C1184 1.413 . S
C1187 C1185 1.367 . S
C1188 N1183 1.362 . S
C1188 C1186 1.420 . S
C1188 C1192 1.429 . S
H1189 C1194 0.930 . S
N1190 Eu1152 2.609 . S
N1190 C1192 1.377 . S
N1190 C1193 1.321 . S
C1191 H1177 0.930 . S
C1191 C1193 1.400 . S
C1191 C1194 1.386 . S
C1192 C1188 1.429 . S
C1192 N1190 1.377 . S
C1192 C1195 1.411 . S
C1193 H1175 0.930 . S
C1193 N1190 1.321 . S
C1193 C1191 1.400 . S
C1194 H1189 0.930 . S
C1194 C1191 1.386 . S
C1194 C1195 1.395 . S
C1195 C1192 1.411 . S
C1195 C1194 1.395 . S
C1195 C1217 1.420 . S
O1196 Eu1152 2.558 . S
O1196 C1216 1.257 . S
O1197 Eu1152 2.612 . S
O1197 Eu1163 2.380 . S
O1197 C1208 1.276 . S
O1198 Eu1163 2.432 . S
O1198 C1215 1.264 . S
O1199 Eu1152 2.339 . S
O1199 C1215 1.254 . S
O1200 Eu1152 2.563 . S
O1200 C1208 1.235 . S
O1201 Eu1152 2.419 . S
O1201 C1216 1.249 . S
O1202 Eu1163 2.558 . S
O1202 C1227 1.257 . S
O1203 Eu1152 2.380 . S
O1203 Eu1163 2.612 . S
O1203 C1219 1.276 . S
O1204 Eu1152 2.432 . S
O1204 C1226 1.264 . S
O1205 Eu1163 2.339 . S
O1205 C1226 1.254 . S
O1206 Eu1163 2.563 . S
O1206 C1219 1.235 . S
O1207 Eu1163 2.419 . S
O1207 C1227 1.249 . S
C1208 O1197 1.276 . S
C1208 O1200 1.235 . S
C1209 C1211 1.393 . S
C1209 C1213 1.395 . S
C1209 C1216 1.492 . S
C1210 C1211 1.392 . S
C1210 C1212 1.386 . S
C1211 C1209 1.393 . S
C1211 C1210 1.392 . S
C1211 H1228 0.930 . S
C1212 C1210 1.386 . S
C1212 C1214 1.395 . S
C1212 H1229 0.930 . S
C1213 C1209 1.395 . S
C1213 C1214 1.379 . S
C1213 H1230 0.930 . S
C1214 C1212 1.395 . S
C1214 C1213 1.379 . S
C1214 H1231 0.930 . S
C1215 O1198 1.264 . S
C1215 O1199 1.254 . S
C1216 Eu1152 2.848 . S
C1216 O1196 1.257 . S
C1216 O1201 1.249 . S
C1216 C1209 1.492 . S
C1217 H1182 0.931 . S
C1217 C1195 1.420 . S
C1217 C1218 1.351 . S
C1218 H1180 0.930 . S
C1218 C1186 1.423 . S
C1218 C1217 1.351 . S
C1219 O1203 1.276 . S
C1219 O1206 1.235 . S
C1220 C1221 1.393 . S
C1220 C1224 1.395 . S
C1220 C1227 1.492 . S
C1221 C1220 1.393 . S
C1221 C1222 1.392 . S
C1221 H1232 0.930 . S
C1222 C1221 1.392 . S
C1222 C1223 1.386 . S
C1223 C1222 1.386 . S
C1223 C1225 1.395 . S
C1223 H1233 0.930 . S
C1224 C1220 1.395 . S
C1224 C1225 1.379 . S
C1224 H1234 0.930 . S
C1225 C1223 1.395 . S
C1225 C1224 1.379 . S
C1225 H1235 0.930 . S
C1226 O1204 1.264 . S
C1226 O1205 1.254 . S
C1227 Eu1163 2.848 . S
C1227 O1202 1.257 . S
C1227 O1207 1.249 . S
C1227 C1220 1.492 . S
H1228 C1211 0.930 . S
H1229 C1212 0.930 . S
H1230 C1213 0.930 . S
H1231 C1214 0.930 . S
H1232 C1221 0.930 . S
H1233 C1223 0.930 . S
H1234 C1224 0.930 . S
H1235 C1225 0.930 . S
Eu1236 N1267 2.657 . S
Eu1236 N1274 2.609 . S
Eu1236 O1280 2.558 . S
Eu1236 O1281 2.612 . S
Eu1236 O1283 2.339 . S
Eu1236 O1284 2.563 . S
Eu1236 O1285 2.419 . S
Eu1236 O1287 2.380 . S
Eu1236 O1288 2.432 . S
Eu1236 C1300 2.848 . S
C1237 C1240 1.429 . S
C1237 C1241 1.411 . S
C1237 N1244 1.377 . S
C1238 C1240 1.420 . S
C1238 C1242 1.423 . S
C1238 C1250 1.392 . S
C1239 C1241 1.420 . S
C1239 C1242 1.351 . S
C1239 H1262 0.931 . S
C1240 C1237 1.429 . S
C1240 C1238 1.420 . S
C1240 N1248 1.362 . S
C1241 C1237 1.411 . S
C1241 C1239 1.420 . S
C1241 C1246 1.395 . S
C1242 C1238 1.423 . S
C1242 C1239 1.351 . S
C1242 H1254 0.930 . S
C1243 C1245 1.400 . S
C1243 C1246 1.386 . S
C1243 H1255 0.930 . S
N1244 C1237 1.377 . S
N1244 C1245 1.321 . S
N1244 Eu1247 2.609 . S
C1245 C1243 1.400 . S
C1245 N1244 1.321 . S
C1245 H1252 0.930 . S
C1246 C1241 1.395 . S
C1246 C1243 1.386 . S
C1246 H1265 0.930 . S
Eu1247 N1244 2.609 . S
Eu1247 N1248 2.657 . S
Eu1247 O1281 2.380 . S
Eu1247 O1282 2.432 . S
Eu1247 O1286 2.558 . S
Eu1247 O1287 2.612 . S
Eu1247 O1289 2.339 . S
Eu1247 O1290 2.563 . S
Eu1247 O1291 2.419 . S
Eu1247 C1311 2.848 . S
N1248 C1240 1.362 . S
N1248 Eu1247 2.657 . S
N1248 C1249 1.334 . S
C1249 N1248 1.334 . S
C1249 C1251 1.413 . S
C1249 H1256 0.929 . S
C1250 C1238 1.392 . S
C1250 C1251 1.367 . S
C1250 H1258 0.930 . S
C1251 C1249 1.413 . S
C1251 C1250 1.367 . S
C1251 H1253 0.930 . S
H1252 C1245 0.930 . S
H1253 C1251 0.930 . S
H1254 C1242 0.930 . S
H1255 C1243 0.930 . S
H1256 C1249 0.929 . S
H1257 C1271 0.930 . S
H1258 C1250 0.930 . S
H1259 C1277 0.930 . S
H1260 C1268 0.929 . S
H1261 C1275 0.930 . S
H1262 C1239 0.931 . S
H1263 C1269 0.930 . S
H1264 C1302 0.930 . S
H1265 C1246 0.930 . S
H1266 C1301 0.931 . S
N1267 Eu1236 2.657 . S
N1267 C1268 1.334 . S
N1267 C1272 1.362 . S
C1268 H1260 0.929 . S
C1268 N1267 1.334 . S
C1268 C1271 1.413 . S
C1269 H1263 0.930 . S
C1269 C1270 1.392 . S
C1269 C1271 1.367 . S
C1270 C1269 1.392 . S
C1270 C1272 1.420 . S
C1270 C1302 1.423 . S
C1271 H1257 0.930 . S
C1271 C1268 1.413 . S
C1271 C1269 1.367 . S
C1272 N1267 1.362 . S
C1272 C1270 1.420 . S
C1272 C1276 1.429 . S
H1273 C1278 0.930 . S
N1274 Eu1236 2.609 . S
N1274 C1276 1.377 . S
N1274 C1277 1.321 . S
C1275 H1261 0.930 . S
C1275 C1277 1.400 . S
C1275 C1278 1.386 . S
C1276 C1272 1.429 . S
C1276 N1274 1.377 . S
C1276 C1279 1.411 . S
C1277 H1259 0.930 . S
C1277 N1274 1.321 . S
C1277 C1275 1.400 . S
C1278 H1273 0.930 . S
C1278 C1275 1.386 . S
C1278 C1279 1.395 . S
C1279 C1276 1.411 . S
C1279 C1278 1.395 . S
C1279 C1301 1.420 . S
O1280 Eu1236 2.558 . S
O1280 C1300 1.257 . S
O1281 Eu1236 2.612 . S
O1281 Eu1247 2.380 . S
O1281 C1292 1.276 . S
O1282 Eu1247 2.432 . S
O1282 C1299 1.264 . S
O1283 Eu1236 2.339 . S
O1283 C1299 1.254 . S
O1284 Eu1236 2.563 . S
O1284 C1292 1.235 . S
O1285 Eu1236 2.419 . S
O1285 C1300 1.249 . S
O1286 Eu1247 2.558 . S
O1286 C1311 1.257 . S
O1287 Eu1236 2.380 . S
O1287 Eu1247 2.612 . S
O1287 C1303 1.276 . S
O1288 Eu1236 2.432 . S
O1288 C1310 1.264 . S
O1289 Eu1247 2.339 . S
O1289 C1310 1.254 . S
O1290 Eu1247 2.563 . S
O1290 C1303 1.235 . S
O1291 Eu1247 2.419 . S
O1291 C1311 1.249 . S
C1292 O1281 1.276 . S
C1292 O1284 1.235 . S
C1293 C1295 1.393 . S
C1293 C1297 1.395 . S
C1293 C1300 1.492 . S
C1294 C1295 1.392 . S
C1294 C1296 1.386 . S
C1295 C1293 1.393 . S
C1295 C1294 1.392 . S
C1295 H1312 0.930 . S
C1296 C1294 1.386 . S
C1296 C1298 1.395 . S
C1296 H1313 0.930 . S
C1297 C1293 1.395 . S
C1297 C1298 1.379 . S
C1297 H1314 0.930 . S
C1298 C1296 1.395 . S
C1298 C1297 1.379 . S
C1298 H1315 0.930 . S
C1299 O1282 1.264 . S
C1299 O1283 1.254 . S
C1300 Eu1236 2.848 . S
C1300 O1280 1.257 . S
C1300 O1285 1.249 . S
C1300 C1293 1.492 . S
C1301 H1266 0.931 . S
C1301 C1279 1.420 . S
C1301 C1302 1.351 . S
C1302 H1264 0.930 . S
C1302 C1270 1.423 . S
C1302 C1301 1.351 . S
C1303 O1287 1.276 . S
C1303 O1290 1.235 . S
C1304 C1305 1.393 . S
C1304 C1308 1.395 . S
C1304 C1311 1.492 . S
C1305 C1304 1.393 . S
C1305 C1306 1.392 . S
C1305 H1316 0.930 . S
C1306 C1305 1.392 . S
C1306 C1307 1.386 . S
C1307 C1306 1.386 . S
C1307 C1309 1.395 . S
C1307 H1317 0.930 . S
C1308 C1304 1.395 . S
C1308 C1309 1.379 . S
C1308 H1318 0.930 . S
C1309 C1307 1.395 . S
C1309 C1308 1.379 . S
C1309 H1319 0.930 . S
C1310 O1288 1.264 . S
C1310 O1289 1.254 . S
C1311 Eu1247 2.848 . S
C1311 O1286 1.257 . S
C1311 O1291 1.249 . S
C1311 C1304 1.492 . S
H1312 C1295 0.930 . S
H1313 C1296 0.930 . S
H1314 C1297 0.930 . S
H1315 C1298 0.930 . S
H1316 C1305 0.930 . S
H1317 C1307 0.930 . S
H1318 C1308 0.930 . S
H1319 C1309 0.930 . S
Eu1320 N1351 2.657 . S
Eu1320 N1358 2.609 . S
Eu1320 O1364 2.558 . S
Eu1320 O1365 2.612 . S
Eu1320 O1367 2.339 . S
Eu1320 O1368 2.563 . S
Eu1320 O1369 2.419 . S
Eu1320 O1371 2.380 . S
Eu1320 O1372 2.432 . S
Eu1320 C1384 2.848 . S
C1321 C1324 1.429 . S
C1321 C1325 1.411 . S
C1321 N1328 1.377 . S
C1322 C1324 1.420 . S
C1322 C1326 1.423 . S
C1322 C1334 1.392 . S
C1323 C1325 1.420 . S
C1323 C1326 1.351 . S
C1323 H1346 0.931 . S
C1324 C1321 1.429 . S
C1324 C1322 1.420 . S
C1324 N1332 1.362 . S
C1325 C1321 1.411 . S
C1325 C1323 1.420 . S
C1325 C1330 1.395 . S
C1326 C1322 1.423 . S
C1326 C1323 1.351 . S
C1326 H1338 0.930 . S
C1327 C1329 1.400 . S
C1327 C1330 1.386 . S
C1327 H1339 0.930 . S
N1328 C1321 1.377 . S
N1328 C1329 1.321 . S
N1328 Eu1331 2.609 . S
C1329 C1327 1.400 . S
C1329 N1328 1.321 . S
C1329 H1336 0.930 . S
C1330 C1325 1.395 . S
C1330 C1327 1.386 . S
C1330 H1349 0.930 . S
Eu1331 N1328 2.609 . S
Eu1331 N1332 2.657 . S
Eu1331 O1365 2.380 . S
Eu1331 O1366 2.432 . S
Eu1331 O1370 2.558 . S
Eu1331 O1371 2.612 . S
Eu1331 O1373 2.339 . S
Eu1331 O1374 2.563 . S
Eu1331 O1375 2.419 . S
Eu1331 C1395 2.848 . S
N1332 C1324 1.362 . S
N1332 Eu1331 2.657 . S
N1332 C1333 1.334 . S
C1333 N1332 1.334 . S
C1333 C1335 1.413 . S
C1333 H1340 0.929 . S
C1334 C1322 1.392 . S
C1334 C1335 1.367 . S
C1334 H1342 0.930 . S
C1335 C1333 1.413 . S
C1335 C1334 1.367 . S
C1335 H1337 0.930 . S
H1336 C1329 0.930 . S
H1337 C1335 0.930 . S
H1338 C1326 0.930 . S
H1339 C1327 0.930 . S
H1340 C1333 0.929 . S
H1341 C1355 0.930 . S
H1342 C1334 0.930 . S
H1343 C1361 0.930 . S
H1344 C1352 0.929 . S
H1345 C1359 0.930 . S
H1346 C1323 0.931 . S
H1347 C1353 0.930 . S
H1348 C1386 0.930 . S
H1349 C1330 0.930 . S
H1350 C1385 0.931 . S
N1351 Eu1320 2.657 . S
N1351 C1352 1.334 . S
N1351 C1356 1.362 . S
C1352 H1344 0.929 . S
C1352 N1351 1.334 . S
C1352 C1355 1.413 . S
C1353 H1347 0.930 . S
C1353 C1354 1.392 . S
C1353 C1355 1.367 . S
C1354 C1353 1.392 . S
C1354 C1356 1.420 . S
C1354 C1386 1.423 . S
C1355 H1341 0.930 . S
C1355 C1352 1.413 . S
C1355 C1353 1.367 . S
C1356 N1351 1.362 . S
C1356 C1354 1.420 . S
C1356 C1360 1.429 . S
H1357 C1362 0.930 . S
N1358 Eu1320 2.609 . S
N1358 C1360 1.377 . S
N1358 C1361 1.321 . S
C1359 H1345 0.930 . S
C1359 C1361 1.400 . S
C1359 C1362 1.386 . S
C1360 C1356 1.429 . S
C1360 N1358 1.377 . S
C1360 C1363 1.411 . S
C1361 H1343 0.930 . S
C1361 N1358 1.321 . S
C1361 C1359 1.400 . S
C1362 H1357 0.930 . S
C1362 C1359 1.386 . S
C1362 C1363 1.395 . S
C1363 C1360 1.411 . S
C1363 C1362 1.395 . S
C1363 C1385 1.420 . S
O1364 Eu1320 2.558 . S
O1364 C1384 1.257 . S
O1365 Eu1320 2.612 . S
O1365 Eu1331 2.380 . S
O1365 C1376 1.276 . S
O1366 Eu1331 2.432 . S
O1366 C1383 1.264 . S
O1367 Eu1320 2.339 . S
O1367 C1383 1.254 . S
O1368 Eu1320 2.563 . S
O1368 C1376 1.235 . S
O1369 Eu1320 2.419 . S
O1369 C1384 1.249 . S
O1370 Eu1331 2.558 . S
O1370 C1395 1.257 . S
O1371 Eu1320 2.380 . S
O1371 Eu1331 2.612 . S
O1371 C1387 1.276 . S
O1372 Eu1320 2.432 . S
O1372 C1394 1.264 . S
O1373 Eu1331 2.339 . S
O1373 C1394 1.254 . S
O1374 Eu1331 2.563 . S
O1374 C1387 1.235 . S
O1375 Eu1331 2.419 . S
O1375 C1395 1.249 . S
C1376 O1365 1.276 . S
C1376 O1368 1.235 . S
C1377 C1379 1.393 . S
C1377 C1381 1.395 . S
C1377 C1384 1.492 . S
C1378 C1379 1.392 . S
C1378 C1380 1.386 . S
C1379 C1377 1.393 . S
C1379 C1378 1.392 . S
C1379 H1396 0.930 . S
C1380 C1378 1.386 . S
C1380 C1382 1.395 . S
C1380 H1397 0.930 . S
C1381 C1377 1.395 . S
C1381 C1382 1.379 . S
C1381 H1398 0.930 . S
C1382 C1380 1.395 . S
C1382 C1381 1.379 . S
C1382 H1399 0.930 . S
C1383 O1366 1.264 . S
C1383 O1367 1.254 . S
C1384 Eu1320 2.848 . S
C1384 O1364 1.257 . S
C1384 O1369 1.249 . S
C1384 C1377 1.492 . S
C1385 H1350 0.931 . S
C1385 C1363 1.420 . S
C1385 C1386 1.351 . S
C1386 H1348 0.930 . S
C1386 C1354 1.423 . S
C1386 C1385 1.351 . S
C1387 O1371 1.276 . S
C1387 O1374 1.235 . S
C1388 C1389 1.393 . S
C1388 C1392 1.395 . S
C1388 C1395 1.492 . S
C1389 C1388 1.393 . S
C1389 C1390 1.392 . S
C1389 H1400 0.930 . S
C1390 C1389 1.392 . S
C1390 C1391 1.386 . S
C1391 C1390 1.386 . S
C1391 C1393 1.395 . S
C1391 H1401 0.930 . S
C1392 C1388 1.395 . S
C1392 C1393 1.379 . S
C1392 H1402 0.930 . S
C1393 C1391 1.395 . S
C1393 C1392 1.379 . S
C1393 H1403 0.930 . S
C1394 O1372 1.264 . S
C1394 O1373 1.254 . S
C1395 Eu1331 2.848 . S
C1395 O1370 1.257 . S
C1395 O1375 1.249 . S
C1395 C1388 1.492 . S
H1396 C1379 0.930 . S
H1397 C1380 0.930 . S
H1398 C1381 0.930 . S
H1399 C1382 0.930 . S
H1400 C1389 0.930 . S
H1401 C1391 0.930 . S
H1402 C1392 0.930 . S
H1403 C1393 0.930 . S
H1404 C1412 0.950 . S
H1405 C1417 0.950 . S
H1406 C1414 0.950 . S
H1407 C1416 0.950 . S
H1408 C1418 0.950 . S
H1409 C1420 0.950 . S
H1410 C1422 0.950 . S
H1411 C1423 0.950 1_556 S
C1412 H1404 0.950 . S
C1412 C1413 1.386 . S
C1412 C1414 1.391 . S
C1413 C1412 1.386 . S
C1413 C1417 1.393 . S
C1414 H1406 0.950 . S
C1414 C1412 1.391 . S
C1414 C1415 1.400 . S
C1415 C1414 1.400 . S
C1415 C1416 1.398 . S
C1415 C1421 1.491 . S
C1416 H1407 0.950 . S
C1416 C1415 1.398 . S
C1416 C1417 1.391 . S
C1417 H1405 0.950 . S
C1417 C1413 1.393 . S
C1417 C1416 1.391 . S
C1418 H1408 0.950 . S
C1418 C1419 1.386 . S
C1418 C1420 1.391 . S
C1419 C1418 1.386 . S
C1419 C1423 1.393 . S
C1420 H1409 0.950 . S
C1420 C1418 1.391 . S
C1420 C1421 1.400 . S
C1421 C1415 1.491 . S
C1421 C1420 1.400 . S
C1421 C1422 1.398 . S
C1422 H1410 0.950 . S
C1422 C1421 1.398 . S
C1422 C1423 1.391 . S
C1423 H1411 0.950 1_554 S
C1423 C1419 1.393 . S
C1423 C1422 1.391 . S
H1424 C1432 0.950 . S
H1425 C1437 0.950 . S
H1426 C1434 0.950 . S
H1427 C1436 0.950 . S
H1428 C1438 0.950 . S
H1429 C1440 0.950 . S
H1430 C1442 0.950 . S
H1431 C1443 0.950 . S
C1432 H1424 0.950 . S
C1432 C1433 1.386 . S
C1432 C1434 1.391 . S
C1433 C1432 1.386 . S
C1433 C1437 1.393 . S
C1434 H1426 0.950 . S
C1434 C1432 1.391 . S
C1434 C1435 1.400 . S
C1435 C1434 1.400 . S
C1435 C1436 1.398 . S
C1435 C1441 1.491 . S
C1436 H1427 0.950 . S
C1436 C1435 1.398 . S
C1436 C1437 1.391 . S
C1437 H1425 0.950 . S
C1437 C1433 1.393 . S
C1437 C1436 1.391 . S
C1438 H1428 0.950 . S
C1438 C1439 1.386 . S
C1438 C1440 1.391 . S
C1439 C1438 1.386 . S
C1439 C1443 1.393 . S
C1440 H1429 0.950 . S
C1440 C1438 1.391 . S
C1440 C1441 1.400 . S
C1441 C1435 1.491 . S
C1441 C1440 1.400 . S
C1441 C1442 1.398 . S
C1442 H1430 0.950 . S
C1442 C1441 1.398 . S
C1442 C1443 1.391 . S
C1443 H1431 0.950 . S
C1443 C1439 1.393 . S
C1443 C1442 1.391 . S
H1444 C1452 0.950 . S
H1445 C1457 0.950 . S
H1446 C1454 0.950 . S
H1447 C1456 0.950 . S
H1448 C1458 0.950 . S
H1449 C1460 0.950 . S
H1450 C1462 0.950 . S
H1451 C1463 0.950 1_556 S
C1452 H1444 0.950 . S
C1452 C1453 1.386 . S
C1452 C1454 1.391 . S
C1453 C1452 1.386 . S
C1453 C1457 1.393 . S
C1454 H1446 0.950 . S
C1454 C1452 1.391 . S
C1454 C1455 1.400 . S
C1455 C1454 1.400 . S
C1455 C1456 1.398 . S
C1455 C1461 1.491 . S
C1456 H1447 0.950 . S
C1456 C1455 1.398 . S
C1456 C1457 1.391 . S
C1457 H1445 0.950 . S
C1457 C1453 1.393 . S
C1457 C1456 1.391 . S
C1458 H1448 0.950 . S
C1458 C1459 1.386 . S
C1458 C1460 1.391 . S
C1459 C1458 1.386 . S
C1459 C1463 1.393 . S
C1460 H1449 0.950 . S
C1460 C1458 1.391 . S
C1460 C1461 1.400 . S
C1461 C1455 1.491 . S
C1461 C1460 1.400 . S
C1461 C1462 1.398 . S
C1462 H1450 0.950 . S
C1462 C1461 1.398 . S
C1462 C1463 1.391 . S
C1463 H1451 0.950 1_554 S
C1463 C1459 1.393 . S
C1463 C1462 1.391 . S
H1464 C1472 0.950 . S
H1465 C1477 0.950 . S
H1466 C1474 0.950 . S
H1467 C1476 0.950 . S
H1468 C1478 0.896 1_554 S
H1469 C1480 0.950 . S
H1470 C1482 0.950 . S
H1471 C1483 0.950 . S
C1472 H1464 0.950 . S
C1472 C1473 1.386 . S
C1472 C1474 1.391 . S
C1473 C1472 1.386 . S
C1473 C1477 1.393 . S
C1474 H1466 0.950 . S
C1474 C1472 1.391 . S
C1474 C1475 1.400 . S
C1475 C1474 1.400 . S
C1475 C1476 1.398 . S
C1475 C1481 1.491 . S
C1476 H1467 0.950 . S
C1476 C1475 1.398 . S
C1476 C1477 1.391 . S
C1477 H1465 0.950 . S
C1477 C1473 1.393 . S
C1477 C1476 1.391 . S
C1478 H1468 0.896 1_556 S
C1478 C1479 1.386 . S
C1478 C1480 1.391 . S
C1479 C1478 1.386 . S
C1479 C1483 1.393 . S
C1480 H1469 0.950 . S
C1480 C1478 1.391 . S
C1480 C1481 1.400 . S
C1481 C1475 1.491 . S
C1481 C1480 1.400 . S
C1481 C1482 1.398 . S
C1482 H1470 0.950 . S
C1482 C1481 1.398 . S
C1482 C1483 1.391 . S
C1483 H1471 0.950 . S
C1483 C1479 1.393 . S
C1483 C1482 1.391 . S
H1484 C1492 0.950 . S
H1485 C1497 0.950 . S
H1486 C1494 0.950 . S
H1487 C1496 0.950 . S
H1488 C1498 0.950 1_554 S
H1489 C1500 0.950 . S
H1490 C1502 0.950 . S
H1491 C1503 0.950 . S
C1492 H1484 0.950 . S
C1492 C1493 1.386 . S
C1492 C1494 1.391 . S
C1493 C1492 1.386 . S
C1493 C1497 1.393 . S
C1494 H1486 0.950 . S
C1494 C1492 1.391 . S
C1494 C1495 1.400 . S
C1495 C1494 1.400 . S
C1495 C1496 1.398 . S
C1495 C1501 1.491 . S
C1496 H1487 0.950 . S
C1496 C1495 1.398 . S
C1496 C1497 1.391 . S
C1497 H1485 0.950 . S
C1497 C1493 1.393 . S
C1497 C1496 1.391 . S
C1498 H1488 0.950 1_556 S
C1498 C1499 1.386 . S
C1498 C1500 1.391 . S
C1499 C1498 1.386 . S
C1499 C1503 1.393 . S
C1500 H1489 0.950 . S
C1500 C1498 1.391 . S
C1500 C1501 1.400 . S
C1501 C1495 1.491 . S
C1501 C1500 1.400 . S
C1501 C1502 1.398 . S
C1502 H1490 0.950 . S
C1502 C1501 1.398 . S
C1502 C1503 1.391 . S
C1503 H1491 0.950 . S
C1503 C1499 1.393 . S
C1503 C1502 1.391 . S
H1504 C1512 0.950 . S
H1505 C1517 0.950 . S
H1506 C1514 0.950 . S
H1507 C1516 0.950 . S
H1508 C1518 0.950 . S
H1509 C1520 0.950 . S
H1510 C1522 0.950 . S
H1511 C1523 0.950 . S
C1512 H1504 0.950 . S
C1512 C1513 1.386 . S
C1512 C1514 1.391 . S
C1513 C1512 1.386 . S
C1513 C1517 1.393 . S
C1514 H1506 0.950 . S
C1514 C1512 1.391 . S
C1514 C1515 1.400 . S
C1515 C1514 1.400 . S
C1515 C1516 1.398 . S
C1515 C1521 1.491 . S
C1516 H1507 0.950 . S
C1516 C1515 1.398 . S
C1516 C1517 1.391 . S
C1517 H1505 0.950 . S
C1517 C1513 1.393 . S
C1517 C1516 1.391 . S
C1518 H1508 0.950 . S
C1518 C1519 1.386 . S
C1518 C1520 1.391 . S
C1519 C1518 1.386 . S
C1519 C1523 1.393 . S
C1520 H1509 0.950 . S
C1520 C1518 1.391 . S
C1520 C1521 1.400 . S
C1521 C1515 1.491 . S
C1521 C1520 1.400 . S
C1521 C1522 1.398 . S
C1522 H1510 0.950 . S
C1522 C1521 1.398 . S
C1522 C1523 1.391 . S
C1523 H1511 0.950 . S
C1523 C1519 1.393 . S
C1523 C1522 1.391 . S
H1524 C1532 0.950 . S
H1525 C1537 0.950 . S
H1526 C1534 0.950 . S
H1527 C1536 0.950 . S
H1528 C1538 0.950 . S
H1529 C1540 0.950 . S
H1530 C1542 0.950 . S
H1531 C1543 0.950 . S
C1532 H1524 0.950 . S
C1532 C1533 1.386 . S
C1532 C1534 1.391 . S
C1533 C1532 1.386 . S
C1533 C1537 1.393 . S
C1534 H1526 0.950 . S
C1534 C1532 1.391 . S
C1534 C1535 1.400 . S
C1535 C1534 1.400 . S
C1535 C1536 1.398 . S
C1535 C1541 1.491 . S
C1536 H1527 0.950 . S
C1536 C1535 1.398 . S
C1536 C1537 1.391 . S
C1537 H1525 0.950 . S
C1537 C1533 1.393 . S
C1537 C1536 1.391 . S
C1538 H1528 0.950 . S
C1538 C1539 1.386 . S
C1538 C1540 1.391 . S
C1539 C1538 1.386 . S
C1539 C1543 1.393 . S
C1540 H1529 0.950 . S
C1540 C1538 1.391 . S
C1540 C1541 1.400 . S
C1541 C1535 1.491 . S
C1541 C1540 1.400 . S
C1541 C1542 1.398 . S
C1542 H1530 0.950 . S
C1542 C1541 1.398 . S
C1542 C1543 1.391 . S
C1543 H1531 0.950 . S
C1543 C1539 1.393 . S
C1543 C1542 1.391 . S
H1544 C1552 0.950 . S
H1545 C1557 0.950 . S
H1546 C1554 0.950 . S
H1547 C1556 0.950 . S
H1548 C1558 0.950 . S
H1549 C1560 0.950 . S
H1550 C1562 0.950 . S
H1551 C1563 0.950 . S
C1552 H1544 0.950 . S
C1552 C1553 1.386 . S
C1552 C1554 1.391 . S
C1553 C1552 1.386 . S
C1553 C1557 1.393 . S
C1554 H1546 0.950 . S
C1554 C1552 1.391 . S
C1554 C1555 1.400 . S
C1555 C1554 1.400 . S
C1555 C1556 1.398 . S
C1555 C1561 1.491 . S
C1556 H1547 0.950 . S
C1556 C1555 1.398 . S
C1556 C1557 1.391 . S
C1557 H1545 0.950 . S
C1557 C1553 1.393 . S
C1557 C1556 1.391 . S
C1558 H1548 0.950 . S
C1558 C1559 1.386 . S
C1558 C1560 1.391 . S
C1559 C1558 1.386 . S
C1559 C1563 1.393 . S
C1560 H1549 0.950 . S
C1560 C1558 1.391 . S
C1560 C1561 1.400 . S
C1561 C1555 1.491 . S
C1561 C1560 1.400 . S
C1561 C1562 1.398 . S
C1562 H1550 0.950 . S
C1562 C1561 1.398 . S
C1562 C1563 1.391 . S
C1563 H1551 0.950 . S
C1563 C1559 1.393 . S
C1563 C1562 1.391 . S
H1564 C1572 0.950 . S
H1565 C1577 0.950 . S
H1566 C1574 0.950 . S
H1567 C1576 0.950 . S
H1568 C1578 0.950 . S
H1569 C1580 0.950 . S
H1570 C1582 0.950 . S
H1571 C1583 0.950 1_554 S
C1572 H1564 0.950 . S
C1572 C1573 1.386 . S
C1572 C1574 1.391 . S
C1573 C1572 1.386 . S
C1573 C1577 1.393 . S
C1574 H1566 0.950 . S
C1574 C1572 1.391 . S
C1574 C1575 1.400 . S
C1575 C1574 1.400 . S
C1575 C1576 1.398 . S
C1575 C1581 1.491 . S
C1576 H1567 0.950 . S
C1576 C1575 1.398 . S
C1576 C1577 1.391 . S
C1577 H1565 0.950 . S
C1577 C1573 1.393 . S
C1577 C1576 1.391 . S
C1578 H1568 0.950 . S
C1578 C1579 1.386 . S
C1578 C1580 1.391 . S
C1579 C1578 1.386 . S
C1579 C1583 1.393 . S
C1580 H1569 0.950 . S
C1580 C1578 1.391 . S
C1580 C1581 1.400 . S
C1581 C1575 1.491 . S
C1581 C1580 1.400 . S
C1581 C1582 1.398 . S
C1582 H1570 0.950 . S
C1582 C1581 1.398 . S
C1582 C1583 1.391 . S
C1583 H1571 0.950 1_556 S
C1583 C1579 1.393 . S
C1583 C1582 1.391 . S
H1584 C1592 0.950 . S
H1585 C1597 0.950 . S
H1586 C1594 0.950 . S
H1587 C1596 0.950 . S
H1588 C1598 0.950 . S
H1589 C1600 0.950 . S
H1590 C1602 0.950 . S
H1591 C1603 0.950 . S
C1592 H1584 0.950 . S
C1592 C1593 1.386 . S
C1592 C1594 1.391 . S
C1593 C1592 1.386 . S
C1593 C1597 1.393 . S
C1594 H1586 0.950 . S
C1594 C1592 1.391 . S
C1594 C1595 1.400 . S
C1595 C1594 1.400 . S
C1595 C1596 1.398 . S
C1595 C1601 1.491 . S
C1596 H1587 0.950 . S
C1596 C1595 1.398 . S
C1596 C1597 1.391 . S
C1597 H1585 0.950 . S
C1597 C1593 1.393 . S
C1597 C1596 1.391 . S
C1598 H1588 0.950 . S
C1598 C1599 1.386 . S
C1598 C1600 1.391 . S
C1599 C1598 1.386 . S
C1599 C1603 1.393 . S
C1600 H1589 0.950 . S
C1600 C1598 1.391 . S
C1600 C1601 1.400 . S
C1601 C1595 1.491 . S
C1601 C1600 1.400 . S
C1601 C1602 1.398 . S
C1602 H1590 0.950 . S
C1602 C1601 1.398 . S
C1602 C1603 1.391 . S
C1603 H1591 0.950 . S
C1603 C1599 1.393 . S
C1603 C1602 1.391 . S
H1604 C1612 0.950 . S
H1605 C1617 0.950 . S
H1606 C1614 0.950 . S
H1607 C1616 0.950 . S
H1608 C1618 0.950 . S
H1609 C1620 0.950 . S
H1610 C1622 0.950 . S
H1611 C1623 0.950 . S
C1612 H1604 0.950 . S
C1612 C1613 1.386 . S
C1612 C1614 1.391 . S
C1613 C1612 1.386 . S
C1613 C1617 1.393 . S
C1614 H1606 0.950 . S
C1614 C1612 1.391 . S
C1614 C1615 1.400 . S
C1615 C1614 1.400 . S
C1615 C1616 1.398 . S
C1615 C1621 1.491 . S
C1616 H1607 0.950 . S
C1616 C1615 1.398 . S
C1616 C1617 1.391 . S
C1617 H1605 0.950 . S
C1617 C1613 1.393 . S
C1617 C1616 1.391 . S
C1618 H1608 0.950 . S
C1618 C1619 1.386 . S
C1618 C1620 1.391 . S
C1619 C1618 1.386 . S
C1619 C1623 1.393 . S
C1620 H1609 0.950 . S
C1620 C1618 1.391 . S
C1620 C1621 1.400 . S
C1621 C1615 1.491 . S
C1621 C1620 1.400 . S
C1621 C1622 1.398 . S
C1622 H1610 0.950 . S
C1622 C1621 1.398 . S
C1622 C1623 1.391 . S
C1623 H1611 0.950 . S
C1623 C1619 1.393 . S
C1623 C1622 1.391 . S
H1624 C1632 0.950 . S
H1625 C1637 0.950 . S
H1626 C1634 0.950 . S
H1627 C1636 0.950 . S
H1628 C1638 0.950 . S
H1629 C1640 0.950 . S
H1630 C1642 0.950 . S
H1631 C1643 0.962 . S
C1632 H1624 0.950 . S
C1632 C1633 1.386 . S
C1632 C1634 1.391 . S
C1633 C1632 1.386 . S
C1633 C1637 1.393 . S
C1634 H1626 0.950 . S
C1634 C1632 1.391 . S
C1634 C1635 1.400 . S
C1635 C1634 1.400 . S
C1635 C1636 1.398 . S
C1635 C1641 1.491 . S
C1636 H1627 0.950 . S
C1636 C1635 1.398 . S
C1636 C1637 1.391 . S
C1637 H1625 0.950 . S
C1637 C1633 1.393 . S
C1637 C1636 1.391 . S
C1638 H1628 0.950 . S
C1638 C1639 1.386 . S
C1638 C1640 1.391 . S
C1639 C1638 1.386 . S
C1639 C1643 1.393 . S
C1640 H1629 0.950 . S
C1640 C1638 1.391 . S
C1640 C1641 1.400 . S
C1641 C1635 1.491 . S
C1641 C1640 1.400 . S
C1641 C1642 1.398 . S
C1642 H1630 0.950 . S
C1642 C1641 1.398 . S
C1642 C1643 1.391 . S
C1643 H1631 0.962 . S
C1643 C1639 1.393 . S
C1643 C1642 1.391 . S
H1644 C1652 0.950 1_655 S
H1645 C1657 0.950 . S
H1646 C1654 0.950 . S
H1647 C1656 0.950 . S
H1648 C1658 0.950 . S
H1649 C1660 0.950 . S
H1650 C1662 0.950 . S
H1651 C1663 0.950 . S
C1652 H1644 0.950 1_455 S
C1652 C1653 1.386 1_455 S
C1652 C1654 1.391 . S
C1653 C1652 1.386 1_655 S
C1653 C1657 1.393 . S
C1654 H1646 0.950 . S
C1654 C1652 1.391 . S
C1654 C1655 1.400 . S
C1655 C1654 1.400 . S
C1655 C1656 1.398 . S
C1655 C1661 1.491 . S
C1656 H1647 0.950 . S
C1656 C1655 1.398 . S
C1656 C1657 1.391 1_455 S
C1657 H1645 0.950 . S
C1657 C1653 1.393 . S
C1657 C1656 1.391 1_655 S
C1658 H1648 0.950 . S
C1658 C1659 1.386 . S
C1658 C1660 1.391 . S
C1659 C1658 1.386 . S
C1659 C1663 1.393 . S
C1660 H1649 0.950 . S
C1660 C1658 1.391 . S
C1660 C1661 1.400 . S
C1661 C1655 1.491 . S
C1661 C1660 1.400 . S
C1661 C1662 1.398 . S
C1662 H1650 0.950 . S
C1662 C1661 1.398 . S
C1662 C1663 1.391 . S
C1663 H1651 0.950 . S
C1663 C1659 1.393 . S
C1663 C1662 1.391 . S
H1664 C1672 0.950 . S
H1665 C1677 0.950 . S
H1666 C1674 0.950 . S
H1667 C1676 0.950 . S
H1668 C1678 0.950 . S
H1669 C1680 0.950 . S
H1670 C1682 0.950 . S
H1671 C1683 0.950 . S
C1672 H1664 0.950 . S
C1672 C1673 1.386 . S
C1672 C1674 1.391 . S
C1673 C1672 1.386 . S
C1673 C1677 1.393 . S
C1674 H1666 0.950 . S
C1674 C1672 1.391 . S
C1674 C1675 1.400 . S
C1675 C1674 1.400 . S
C1675 C1676 1.398 . S
C1675 C1681 1.491 . S
C1676 H1667 0.950 . S
C1676 C1675 1.398 . S
C1676 C1677 1.391 . S
C1677 H1665 0.950 . S
C1677 C1673 1.393 . S
C1677 C1676 1.391 . S
C1678 H1668 0.950 . S
C1678 C1679 1.386 . S
C1678 C1680 1.391 . S
C1679 C1678 1.386 . S
C1679 C1683 1.393 . S
C1680 H1669 0.950 . S
C1680 C1678 1.391 . S
C1680 C1681 1.400 . S
C1681 C1675 1.491 . S
C1681 C1680 1.400 . S
C1681 C1682 1.398 . S
C1682 H1670 0.950 . S
C1682 C1681 1.398 . S
C1682 C1683 1.391 . S
C1683 H1671 0.950 . S
C1683 C1679 1.393 . S
C1683 C1682 1.391 . S
H1684 C1692 0.950 . S
H1685 C1697 0.950 . S
H1686 C1694 0.950 . S
H1687 C1696 0.950 . S
H1688 C1698 0.950 . S
H1689 C1700 0.950 . S
H1690 C1702 0.950 . S
H1691 C1703 0.950 . S
C1692 H1684 0.950 . S
C1692 C1693 1.386 . S
C1692 C1694 1.391 1_545 S
C1693 C1692 1.386 . S
C1693 C1697 1.393 . S
C1694 H1686 0.950 . S
C1694 C1692 1.391 1_565 S
C1694 C1695 1.400 . S
C1695 C1694 1.400 . S
C1695 C1696 1.398 . S
C1695 C1701 1.491 . S
C1696 H1687 0.950 . S
C1696 C1695 1.398 . S
C1696 C1697 1.391 1_565 S
C1697 H1685 0.950 . S
C1697 C1693 1.393 . S
C1697 C1696 1.391 1_545 S
C1698 H1688 0.950 . S
C1698 C1699 1.386 . S
C1698 C1700 1.391 . S
C1699 C1698 1.386 . S
C1699 C1703 1.393 . S
C1700 H1689 0.950 . S
C1700 C1698 1.391 . S
C1700 C1701 1.400 . S
C1701 C1695 1.491 . S
C1701 C1700 1.400 . S
C1701 C1702 1.398 . S
C1702 H1690 0.950 . S
C1702 C1701 1.398 . S
C1702 C1703 1.391 . S
C1703 H1691 0.950 . S
C1703 C1699 1.393 . S
C1703 C1702 1.391 . S
H1704 C1712 0.950 . S
H1705 C1717 0.950 . S
H1706 C1714 0.950 . S
H1707 C1716 0.950 . S
H1708 C1718 0.950 . S
H1709 C1720 0.950 . S
H1710 C1722 0.950 . S
H1711 C1723 0.950 . S
C1712 H1704 0.950 . S
C1712 C1713 1.386 . S
C1712 C1714 1.391 . S
C1713 C1712 1.386 . S
C1713 C1717 1.393 . S
C1714 H1706 0.950 . S
C1714 C1712 1.391 . S
C1714 C1715 1.400 . S
C1715 C1714 1.400 . S
C1715 C1716 1.398 . S
C1715 C1721 1.491 . S
C1716 H1707 0.950 . S
C1716 C1715 1.398 . S
C1716 C1717 1.391 . S
C1717 H1705 0.950 . S
C1717 C1713 1.393 . S
C1717 C1716 1.391 . S
C1718 H1708 0.950 . S
C1718 C1719 1.386 . S
C1718 C1720 1.391 . S
C1719 C1718 1.386 . S
C1719 C1723 1.393 . S
C1720 H1709 0.950 . S
C1720 C1718 1.391 . S
C1720 C1721 1.400 . S
C1721 C1715 1.491 . S
C1721 C1720 1.400 . S
C1721 C1722 1.398 . S
C1722 H1710 0.950 . S
C1722 C1721 1.398 . S
C1722 C1723 1.391 . S
C1723 H1711 0.950 . S
C1723 C1719 1.393 . S
C1723 C1722 1.391 . S
H1724 C1732 0.950 . S
H1725 C1737 0.950 . S
H1726 C1734 0.950 . S
H1727 C1736 0.950 . S
H1728 C1738 0.950 . S
H1729 C1740 0.950 . S
H1730 C1742 0.950 . S
H1731 C1743 0.950 . S
C1732 H1724 0.950 . S
C1732 C1733 1.386 . S
C1732 C1734 1.391 . S
C1733 C1732 1.386 . S
C1733 C1737 1.393 . S
C1734 H1726 0.950 . S
C1734 C1732 1.391 . S
C1734 C1735 1.400 . S
C1735 C1734 1.400 . S
C1735 C1736 1.398 . S
C1735 C1741 1.491 . S
C1736 H1727 0.950 . S
C1736 C1735 1.398 . S
C1736 C1737 1.391 . S
C1737 H1725 0.950 . S
C1737 C1733 1.393 . S
C1737 C1736 1.391 . S
C1738 H1728 0.950 . S
C1738 C1739 1.386 . S
C1738 C1740 1.391 . S
C1739 C1738 1.386 . S
C1739 C1743 1.393 . S
C1740 H1729 0.950 . S
C1740 C1738 1.391 . S
C1740 C1741 1.400 . S
C1741 C1735 1.491 . S
C1741 C1740 1.400 . S
C1741 C1742 1.398 . S
C1742 H1730 0.950 . S
C1742 C1741 1.398 . S
C1742 C1743 1.391 . S
C1743 H1731 0.950 . S
C1743 C1739 1.393 . S
C1743 C1742 1.391 . S
H1744 C1752 0.950 . S
H1745 C1757 0.950 . S
H1746 C1754 0.950 . S
H1747 C1756 0.950 . S
H1748 C1758 0.950 . S
H1749 C1760 0.950 . S
H1750 C1762 0.950 . S
H1751 C1763 0.950 . S
C1752 H1744 0.950 . S
C1752 C1753 1.386 . S
C1752 C1754 1.391 . S
C1753 C1752 1.386 . S
C1753 C1757 1.393 . S
C1754 H1746 0.950 . S
C1754 C1752 1.391 . S
C1754 C1755 1.400 . S
C1755 C1754 1.400 . S
C1755 C1756 1.398 . S
C1755 C1761 1.491 . S
C1756 H1747 0.950 . S
C1756 C1755 1.398 . S
C1756 C1757 1.391 . S
C1757 H1745 0.950 . S
C1757 C1753 1.393 . S
C1757 C1756 1.391 . S
C1758 H1748 0.950 . S
C1758 C1759 1.386 . S
C1758 C1760 1.391 . S
C1759 C1758 1.386 . S
C1759 C1763 1.393 . S
C1760 H1749 0.950 . S
C1760 C1758 1.391 . S
C1760 C1761 1.400 . S
C1761 C1755 1.491 . S
C1761 C1760 1.400 . S
C1761 C1762 1.398 . S
C1762 H1750 0.950 . S
C1762 C1761 1.398 . S
C1762 C1763 1.391 . S
C1763 H1751 0.950 . S
C1763 C1759 1.393 . S
C1763 C1762 1.391 . S
H1764 C1772 0.950 . S
H1765 C1777 0.950 . S
H1766 C1774 0.950 . S
H1767 C1776 0.950 . S
H1768 C1778 0.950 . S
H1769 C1780 0.950 . S
H1770 C1782 0.950 . S
H1771 C1783 0.950 . S
C1772 H1764 0.950 . S
C1772 C1773 1.386 . S
C1772 C1774 1.391 . S
C1773 C1772 1.386 . S
C1773 C1777 1.393 . S
C1774 H1766 0.950 . S
C1774 C1772 1.391 . S
C1774 C1775 1.400 . S
C1775 C1774 1.400 . S
C1775 C1776 1.398 . S
C1775 C1781 1.491 . S
C1776 H1767 0.950 . S
C1776 C1775 1.398 . S
C1776 C1777 1.391 . S
C1777 H1765 0.950 . S
C1777 C1773 1.393 . S
C1777 C1776 1.391 . S
C1778 H1768 0.950 . S
C1778 C1779 1.386 . S
C1778 C1780 1.391 . S
C1779 C1778 1.386 . S
C1779 C1783 1.393 . S
C1780 H1769 0.950 . S
C1780 C1778 1.391 . S
C1780 C1781 1.400 . S
C1781 C1775 1.491 . S
C1781 C1780 1.400 . S
C1781 C1782 1.398 . S
C1782 H1770 0.950 . S
C1782 C1781 1.398 . S
C1782 C1783 1.391 . S
C1783 H1771 0.950 . S
C1783 C1779 1.393 . S
C1783 C1782 1.391 . S
H1784 C1792 0.950 . S
H1785 C1797 0.950 . S
H1786 C1794 0.950 . S
H1787 C1796 0.950 . S
H1788 C1798 0.950 . S
H1789 C1800 0.950 . S
H1790 C1802 0.950 . S
H1791 C1803 0.950 . S
C1792 H1784 0.950 . S
C1792 C1793 1.386 . S
C1792 C1794 1.391 . S
C1793 C1792 1.386 . S
C1793 C1797 1.393 . S
C1794 H1786 0.950 . S
C1794 C1792 1.391 . S
C1794 C1795 1.400 . S
C1795 C1794 1.400 . S
C1795 C1796 1.398 . S
C1795 C1801 1.491 . S
C1796 H1787 0.950 . S
C1796 C1795 1.398 . S
C1796 C1797 1.391 . S
C1797 H1785 0.950 . S
C1797 C1793 1.393 . S
C1797 C1796 1.391 . S
C1798 H1788 0.950 . S
C1798 C1799 1.386 . S
C1798 C1800 1.391 . S
C1799 C1798 1.386 . S
C1799 C1803 1.393 . S
C1800 H1789 0.950 . S
C1800 C1798 1.391 . S
C1800 C1801 1.400 . S
C1801 C1795 1.491 . S
C1801 C1800 1.400 . S
C1801 C1802 1.398 . S
C1802 H1790 0.950 . S
C1802 C1801 1.398 . S
C1802 C1803 1.391 . S
C1803 H1791 0.950 . S
C1803 C1799 1.393 . S
C1803 C1802 1.391 . S
H1804 C1812 0.950 . S
H1805 C1817 0.950 . S
H1806 C1814 0.950 . S
H1807 C1816 0.950 . S
H1808 C1818 0.950 . S
H1809 C1820 0.950 . S
H1810 C1822 0.950 . S
H1811 C1823 0.950 . S
C1812 H1804 0.950 . S
C1812 C1813 1.386 . S
C1812 C1814 1.391 . S
C1813 C1812 1.386 . S
C1813 C1817 1.393 . S
C1814 H1806 0.950 . S
C1814 C1812 1.391 . S
C1814 C1815 1.400 . S
C1815 C1814 1.400 . S
C1815 C1816 1.398 . S
C1815 C1821 1.491 . S
C1816 H1807 0.950 . S
C1816 C1815 1.398 . S
C1816 C1817 1.391 . S
C1817 H1805 0.950 . S
C1817 C1813 1.393 . S
C1817 C1816 1.391 . S
C1818 H1808 0.950 . S
C1818 C1819 1.386 . S
C1818 C1820 1.391 . S
C1819 C1818 1.386 . S
C1819 C1823 1.393 . S
C1820 H1809 0.950 . S
C1820 C1818 1.391 . S
C1820 C1821 1.400 . S
C1821 C1815 1.491 . S
C1821 C1820 1.400 . S
C1821 C1822 1.398 . S
C1822 H1810 0.950 . S
C1822 C1821 1.398 . S
C1822 C1823 1.391 . S
C1823 H1811 0.950 . S
C1823 C1819 1.393 . S
C1823 C1822 1.391 . S
H1824 C1832 0.950 . S
H1825 C1837 0.941 . S
H1826 C1834 0.950 . S
H1827 C1836 0.950 . S
H1828 C1838 0.950 . S
H1829 C1840 0.950 . S
H1830 C1842 0.950 . S
H1831 C1843 0.950 . S
C1832 H1824 0.950 . S
C1832 C1833 1.386 . S
C1832 C1834 1.391 1_545 S
C1833 C1832 1.386 . S
C1833 C1837 1.393 1_545 S
C1834 H1826 0.950 . S
C1834 C1832 1.391 1_565 S
C1834 C1835 1.400 . S
C1835 C1834 1.400 . S
C1835 C1836 1.398 . S
C1835 C1841 1.491 . S
C1836 H1827 0.950 . S
C1836 C1835 1.398 . S
C1836 C1837 1.391 . S
C1837 H1825 0.941 . S
C1837 C1833 1.393 1_565 S
C1837 C1836 1.391 . S
C1838 H1828 0.950 . S
C1838 C1839 1.386 . S
C1838 C1840 1.391 . S
C1839 C1838 1.386 . S
C1839 C1843 1.393 . S
C1840 H1829 0.950 . S
C1840 C1838 1.391 . S
C1840 C1841 1.400 . S
C1841 C1835 1.491 . S
C1841 C1840 1.400 . S
C1841 C1842 1.398 . S
C1842 H1830 0.950 . S
C1842 C1841 1.398 . S
C1842 C1843 1.391 . S
C1843 H1831 0.950 . S
C1843 C1839 1.393 . S
C1843 C1842 1.391 . S
H1844 C1852 0.950 . S
H1845 C1857 0.950 . S
H1846 C1854 0.950 . S
H1847 C1856 0.950 . S
H1848 C1858 0.950 . S
H1849 C1860 0.950 . S
H1850 C1862 0.950 . S
H1851 C1863 0.950 . S
C1852 H1844 0.950 . S
C1852 C1853 1.386 1_455 S
C1852 C1854 1.391 . S
C1853 C1852 1.386 1_655 S
C1853 C1857 1.393 . S
C1854 H1846 0.950 . S
C1854 C1852 1.391 . S
C1854 C1855 1.400 . S
C1855 C1854 1.400 . S
C1855 C1856 1.398 . S
C1855 C1861 1.491 . S
C1856 H1847 0.950 . S
C1856 C1855 1.398 . S
C1856 C1857 1.391 1_455 S
C1857 H1845 0.950 . S
C1857 C1853 1.393 . S
C1857 C1856 1.391 1_655 S
C1858 H1848 0.950 . S
C1858 C1859 1.386 . S
C1858 C1860 1.391 . S
C1859 C1858 1.386 . S
C1859 C1863 1.393 . S
C1860 H1849 0.950 . S
C1860 C1858 1.391 . S
C1860 C1861 1.400 . S
C1861 C1855 1.491 . S
C1861 C1860 1.400 . S
C1861 C1862 1.398 . S
C1862 H1850 0.950 . S
C1862 C1861 1.398 . S
C1862 C1863 1.391 . S
C1863 H1851 0.950 . S
C1863 C1859 1.393 . S
C1863 C1862 1.391 . S
H1864 C1872 0.950 . S
H1865 C1877 0.950 . S
H1866 C1874 0.950 . S
H1867 C1876 0.950 . S
H1868 C1878 0.950 . S
H1869 C1880 0.950 . S
H1870 C1882 0.950 . S
H1871 C1883 0.950 . S
C1872 H1864 0.950 . S
C1872 C1873 1.386 . S
C1872 C1874 1.391 . S
C1873 C1872 1.386 . S
C1873 C1877 1.393 . S
C1874 H1866 0.950 . S
C1874 C1872 1.391 . S
C1874 C1875 1.400 . S
C1875 C1874 1.400 . S
C1875 C1876 1.398 . S
C1875 C1881 1.491 . S
C1876 H1867 0.950 . S
C1876 C1875 1.398 . S
C1876 C1877 1.391 . S
C1877 H1865 0.950 . S
C1877 C1873 1.393 . S
C1877 C1876 1.391 . S
C1878 H1868 0.950 . S
C1878 C1879 1.386 . S
C1878 C1880 1.391 . S
C1879 C1878 1.386 . S
C1879 C1883 1.393 . S
C1880 H1869 0.950 . S
C1880 C1878 1.391 . S
C1880 C1881 1.400 . S
C1881 C1875 1.491 . S
C1881 C1880 1.400 . S
C1881 C1882 1.398 . S
C1882 H1870 0.950 . S
C1882 C1881 1.398 . S
C1882 C1883 1.391 . S
C1883 H1871 0.950 . S
C1883 C1879 1.393 . S
C1883 C1882 1.391 . S
H1884 C1892 0.950 . S
H1885 C1897 0.950 . S
H1886 C1894 0.950 . S
H1887 C1896 0.950 . S
H1888 C1898 0.950 . S
H1889 C1900 0.950 . S
H1890 C1902 0.950 . S
H1891 C1903 0.950 . S
C1892 H1884 0.950 . S
C1892 C1893 1.386 . S
C1892 C1894 1.391 . S
C1893 C1892 1.386 . S
C1893 C1897 1.393 . S
C1894 H1886 0.950 . S
C1894 C1892 1.391 . S
C1894 C1895 1.400 . S
C1895 C1894 1.400 . S
C1895 C1896 1.398 . S
C1895 C1901 1.491 . S
C1896 H1887 0.950 . S
C1896 C1895 1.398 . S
C1896 C1897 1.391 . S
C1897 H1885 0.950 . S
C1897 C1893 1.393 . S
C1897 C1896 1.391 . S
C1898 H1888 0.950 . S
C1898 C1899 1.386 . S
C1898 C1900 1.391 . S
C1899 C1898 1.386 . S
C1899 C1903 1.393 . S
C1900 H1889 0.950 . S
C1900 C1898 1.391 . S
C1900 C1901 1.400 . S
C1901 C1895 1.491 . S
C1901 C1900 1.400 . S
C1901 C1902 1.398 . S
C1902 H1890 0.950 . S
C1902 C1901 1.398 . S
C1902 C1903 1.391 . S
C1903 H1891 0.950 . S
C1903 C1899 1.393 . S
C1903 C1902 1.391 . S
H1904 C1912 0.950 . S
H1905 C1917 0.950 . S
H1906 C1914 0.950 . S
H1907 C1916 0.950 . S
H1908 C1918 0.950 . S
H1909 C1920 0.950 . S
H1910 C1922 0.950 . S
H1911 C1923 0.950 . S
C1912 H1904 0.950 . S
C1912 C1913 1.386 . S
C1912 C1914 1.391 . S
C1913 C1912 1.386 . S
C1913 C1917 1.393 . S
C1914 H1906 0.950 . S
C1914 C1912 1.391 . S
C1914 C1915 1.400 . S
C1915 C1914 1.400 . S
C1915 C1916 1.398 . S
C1915 C1921 1.491 . S
C1916 H1907 0.950 . S
C1916 C1915 1.398 . S
C1916 C1917 1.391 . S
C1917 H1905 0.950 . S
C1917 C1913 1.393 . S
C1917 C1916 1.391 . S
C1918 H1908 0.950 . S
C1918 C1919 1.386 . S
C1918 C1920 1.391 . S
C1919 C1918 1.386 . S
C1919 C1923 1.393 . S
C1920 H1909 0.950 . S
C1920 C1918 1.391 . S
C1920 C1921 1.400 . S
C1921 C1915 1.491 . S
C1921 C1920 1.400 . S
C1921 C1922 1.398 . S
C1922 H1910 0.950 . S
C1922 C1921 1.398 . S
C1922 C1923 1.391 . S
C1923 H1911 0.950 . S
C1923 C1919 1.393 . S
C1923 C1922 1.391 . S
H1924 C1932 0.950 . S
H1925 C1937 0.950 . S
H1926 C1934 0.950 . S
H1927 C1936 0.950 . S
H1928 C1938 0.950 . S
H1929 C1940 0.950 . S
H1930 C1942 0.950 . S
H1931 C1943 0.950 . S
C1932 H1924 0.950 . S
C1932 C1933 1.386 . S
C1932 C1934 1.391 . S
C1933 C1932 1.386 . S
C1933 C1937 1.393 . S
C1934 H1926 0.950 . S
C1934 C1932 1.391 . S
C1934 C1935 1.400 . S
C1935 C1934 1.400 . S
C1935 C1936 1.398 . S
C1935 C1941 1.491 . S
C1936 H1927 0.950 . S
C1936 C1935 1.398 . S
C1936 C1937 1.391 . S
C1937 H1925 0.950 . S
C1937 C1933 1.393 . S
C1937 C1936 1.391 . S
C1938 H1928 0.950 . S
C1938 C1939 1.386 . S
C1938 C1940 1.391 . S
C1939 C1938 1.386 . S
C1939 C1943 1.393 . S
C1940 H1929 0.950 . S
C1940 C1938 1.391 . S
C1940 C1941 1.400 . S
C1941 C1935 1.491 . S
C1941 C1940 1.400 . S
C1941 C1942 1.398 . S
C1942 H1930 0.950 . S
C1942 C1941 1.398 . S
C1942 C1943 1.391 . S
C1943 H1931 0.950 . S
C1943 C1939 1.393 . S
C1943 C1942 1.391 . S
H1944 C1952 0.950 . S
H1945 C1957 0.935 1_565 S
H1946 C1954 0.950 . S
H1947 C1956 0.950 . S
H1948 C1958 0.950 . S
H1949 C1960 0.950 . S
H1950 C1962 0.950 . S
H1951 C1963 0.950 . S
C1952 H1944 0.950 . S
C1952 C1953 1.386 . S
C1952 C1954 1.391 1_565 S
C1953 C1952 1.386 . S
C1953 C1957 1.377 1_565 S
C1954 H1946 0.950 . S
C1954 C1952 1.391 1_545 S
C1954 C1955 1.400 . S
C1955 C1954 1.400 . S
C1955 C1956 1.398 . S
C1955 C1961 1.491 . S
C1956 H1947 0.950 . S
C1956 C1955 1.398 . S
C1956 C1957 1.423 . S
C1957 H1945 0.935 1_545 S
C1957 C1953 1.377 1_545 S
C1957 C1956 1.423 . S
C1958 H1948 0.950 . S
C1958 C1959 1.386 . S
C1958 C1960 1.391 . S
C1959 C1958 1.386 . S
C1959 C1963 1.393 . S
C1960 H1949 0.950 . S
C1960 C1958 1.391 . S
C1960 C1961 1.400 . S
C1961 C1955 1.491 . S
C1961 C1960 1.400 . S
C1961 C1962 1.398 . S
C1962 H1950 0.950 . S
C1962 C1961 1.398 . S
C1962 C1963 1.391 . S
C1963 H1951 0.950 . S
C1963 C1959 1.393 . S
C1963 C1962 1.391 . S
H1964 C1972 0.950 . S
H1965 C1977 0.950 . S
H1966 C1974 0.950 . S
H1967 C1976 0.950 . S
H1968 C1978 0.950 . S
H1969 C1980 0.950 . S
H1970 C1982 0.950 . S
H1971 C1983 0.950 . S
C1972 H1964 0.950 . S
C1972 C1973 1.386 1_655 S
C1972 C1974 1.391 . S
C1973 C1972 1.386 1_455 S
C1973 C1977 1.393 . S
C1974 H1966 0.950 . S
C1974 C1972 1.391 . S
C1974 C1975 1.400 . S
C1975 C1974 1.400 . S
C1975 C1976 1.398 . S
C1975 C1981 1.491 . S
C1976 H1967 0.950 . S
C1976 C1975 1.398 . S
C1976 C1977 1.391 1_655 S
C1977 H1965 0.950 . S
C1977 C1973 1.393 . S
C1977 C1976 1.391 1_455 S
C1978 H1968 0.950 . S
C1978 C1979 1.386 . S
C1978 C1980 1.391 . S
C1979 C1978 1.386 . S
C1979 C1983 1.393 . S
C1980 H1969 0.950 . S
C1980 C1978 1.391 . S
C1980 C1981 1.400 . S
C1981 C1975 1.491 . S
C1981 C1980 1.400 . S
C1981 C1982 1.398 . S
C1982 H1970 0.950 . S
C1982 C1981 1.398 . S
C1982 C1983 1.391 . S
C1983 H1971 0.950 . S
C1983 C1979 1.393 . S
C1983 C1982 1.391 . S
H1984 C1992 0.950 . S
H1985 C1997 0.950 . S
H1986 C1994 0.950 . S
H1987 C1996 0.950 . S
H1988 C1998 0.950 . S
H1989 C2000 0.950 . S
H1990 C2002 0.950 . S
H1991 C2003 0.950 . S
C1992 H1984 0.950 . S
C1992 C1993 1.386 . S
C1992 C1994 1.391 . S
C1993 C1992 1.386 . S
C1993 C1997 1.393 . S
C1994 H1986 0.950 . S
C1994 C1992 1.391 . S
C1994 C1995 1.400 . S
C1995 C1994 1.400 . S
C1995 C1996 1.398 . S
C1995 C2001 1.491 . S
C1996 H1987 0.950 . S
C1996 C1995 1.398 . S
C1996 C1997 1.391 . S
C1997 H1985 0.950 . S
C1997 C1993 1.393 . S
C1997 C1996 1.391 . S
C1998 H1988 0.950 . S
C1998 C1999 1.386 . S
C1998 C2000 1.391 . S
C1999 C1998 1.386 . S
C1999 C2003 1.393 . S
C2000 H1989 0.950 . S
C2000 C1998 1.391 . S
C2000 C2001 1.400 . S
C2001 C1995 1.491 . S
C2001 C2000 1.400 . S
C2001 C2002 1.398 . S
C2002 H1990 0.950 . S
C2002 C2001 1.398 . S
C2002 C2003 1.391 . S
C2003 H1991 0.950 . S
C2003 C1999 1.393 . S
C2003 C2002 1.391 . S
H2004 C2012 0.950 . S
H2005 C2017 0.950 . S
H2006 C2014 0.950 . S
H2007 C2016 0.950 . S
H2008 C2018 0.950 . S
H2009 C2020 0.950 . S
H2010 C2022 0.950 . S
H2011 C2023 0.950 . S
C2012 H2004 0.950 . S
C2012 C2013 1.386 . S
C2012 C2014 1.391 1_455 S
C2013 C2012 1.386 . S
C2013 C2017 1.393 1_455 S
C2014 H2006 0.950 . S
C2014 C2012 1.391 1_655 S
C2014 C2015 1.400 . S
C2015 C2014 1.400 . S
C2015 C2016 1.398 . S
C2015 C2021 1.491 . S
C2016 H2007 0.950 . S
C2016 C2015 1.398 . S
C2016 C2017 1.391 . S
C2017 H2005 0.950 . S
C2017 C2013 1.393 1_655 S
C2017 C2016 1.391 . S
C2018 H2008 0.950 . S
C2018 C2019 1.386 . S
C2018 C2020 1.391 . S
C2019 C2018 1.386 . S
C2019 C2023 1.393 . S
C2020 H2009 0.950 . S
C2020 C2018 1.391 . S
C2020 C2021 1.400 . S
C2021 C2015 1.491 . S
C2021 C2020 1.400 . S
C2021 C2022 1.398 . S
C2022 H2010 0.950 . S
C2022 C2021 1.398 . S
C2022 C2023 1.391 . S
C2023 H2011 0.950 . S
C2023 C2019 1.393 . S
C2023 C2022 1.391 . S
H2024 C2032 0.950 . S
H2025 C2037 0.950 . S
H2026 C2034 0.950 . S
H2027 C2036 0.950 . S
H2028 C2038 0.950 . S
H2029 C2040 0.950 . S
H2030 C2042 0.950 . S
H2031 C2043 0.950 . S
C2032 H2024 0.950 . S
C2032 C2033 1.386 . S
C2032 C2034 1.391 . S
C2033 C2032 1.386 . S
C2033 C2037 1.393 . S
C2034 H2026 0.950 . S
C2034 C2032 1.391 . S
C2034 C2035 1.400 . S
C2035 C2034 1.400 . S
C2035 C2036 1.398 . S
C2035 C2041 1.491 . S
C2036 H2027 0.950 . S
C2036 C2035 1.398 . S
C2036 C2037 1.391 . S
C2037 H2025 0.950 . S
C2037 C2033 1.393 . S
C2037 C2036 1.391 . S
C2038 H2028 0.950 . S
C2038 C2039 1.386 . S
C2038 C2040 1.391 . S
C2039 C2038 1.386 . S
C2039 C2043 1.393 . S
C2040 H2029 0.950 . S
C2040 C2038 1.391 . S
C2040 C2041 1.400 . S
C2041 C2035 1.491 . S
C2041 C2040 1.400 . S
C2041 C2042 1.398 . S
C2042 H2030 0.950 . S
C2042 C2041 1.398 . S
C2042 C2043 1.391 . S
C2043 H2031 0.950 . S
C2043 C2039 1.393 . S
C2043 C2042 1.391 . S
H2044 C2052 0.950 . S
H2045 C2057 0.950 . S
H2046 C2054 0.950 . S
H2047 C2056 0.950 . S
H2048 C2058 0.950 . S
H2049 C2060 0.950 . S
H2050 C2062 0.950 . S
H2051 C2063 0.950 . S
C2052 H2044 0.950 . S
C2052 C2053 1.386 . S
C2052 C2054 1.391 1_565 S
C2053 C2052 1.386 . S
C2053 C2057 1.393 . S
C2054 H2046 0.950 . S
C2054 C2052 1.391 1_545 S
C2054 C2055 1.400 . S
C2055 C2054 1.400 . S
C2055 C2056 1.398 . S
C2055 C2061 1.491 . S
C2056 H2047 0.950 . S
C2056 C2055 1.398 . S
C2056 C2057 1.391 1_545 S
C2057 H2045 0.950 . S
C2057 C2053 1.393 . S
C2057 C2056 1.391 1_565 S
C2058 H2048 0.950 . S
C2058 C2059 1.386 . S
C2058 C2060 1.391 . S
C2059 C2058 1.386 . S
C2059 C2063 1.393 . S
C2060 H2049 0.950 . S
C2060 C2058 1.391 . S
C2060 C2061 1.400 . S
C2061 C2055 1.491 . S
C2061 C2060 1.400 . S
C2061 C2062 1.398 . S
C2062 H2050 0.950 . S
C2062 C2061 1.398 . S
C2062 C2063 1.391 . S
C2063 H2051 0.950 . S
C2063 C2059 1.393 . S
C2063 C2062 1.391 . S
H2064 C2072 0.950 . S
H2065 C2077 0.950 . S
H2066 C2074 0.950 . S
H2067 C2076 0.950 . S
H2068 C2078 0.950 . S
H2069 C2080 0.950 . S
H2070 C2082 0.950 . S
H2071 C2083 0.950 . S
C2072 H2064 0.950 . S
C2072 C2073 1.386 . S
C2072 C2074 1.391 . S
C2073 C2072 1.386 . S
C2073 C2077 1.393 . S
C2074 H2066 0.950 . S
C2074 C2072 1.391 . S
C2074 C2075 1.400 . S
C2075 C2074 1.400 . S
C2075 C2076 1.398 . S
C2075 C2081 1.491 . S
C2076 H2067 0.950 . S
C2076 C2075 1.398 . S
C2076 C2077 1.391 . S
C2077 H2065 0.950 . S
C2077 C2073 1.393 . S
C2077 C2076 1.391 . S
C2078 H2068 0.950 . S
C2078 C2079 1.386 . S
C2078 C2080 1.391 . S
C2079 C2078 1.386 . S
C2079 C2083 1.393 . S
C2080 H2069 0.950 . S
C2080 C2078 1.391 . S
C2080 C2081 1.400 . S
C2081 C2075 1.491 . S
C2081 C2080 1.400 . S
C2081 C2082 1.398 . S
C2082 H2070 0.950 . S
C2082 C2081 1.398 . S
C2082 C2083 1.391 . S
C2083 H2071 0.950 . S
C2083 C2079 1.393 . S
C2083 C2082 1.391 . S
H2084 C2092 0.950 . S
H2085 C2097 0.950 . S
H2086 C2094 0.950 . S
H2087 C2096 0.950 . S
H2088 C2098 0.950 . S
H2089 C2100 0.950 . S
H2090 C2102 0.950 . S
H2091 C2103 0.950 . S
C2092 H2084 0.950 . S
C2092 C2093 1.386 . S
C2092 C2094 1.391 . S
C2093 C2092 1.386 . S
C2093 C2097 1.393 . S
C2094 H2086 0.950 . S
C2094 C2092 1.391 . S
C2094 C2095 1.400 . S
C2095 C2094 1.400 . S
C2095 C2096 1.398 . S
C2095 C2101 1.491 . S
C2096 H2087 0.950 . S
C2096 C2095 1.398 . S
C2096 C2097 1.391 . S
C2097 H2085 0.950 . S
C2097 C2093 1.393 . S
C2097 C2096 1.391 . S
C2098 H2088 0.950 . S
C2098 C2099 1.386 . S
C2098 C2100 1.391 . S
C2099 C2098 1.386 . S
C2099 C2103 1.393 . S
C2100 H2089 0.950 . S
C2100 C2098 1.391 . S
C2100 C2101 1.400 . S
C2101 C2095 1.491 . S
C2101 C2100 1.400 . S
C2101 C2102 1.398 . S
C2102 H2090 0.950 . S
C2102 C2101 1.398 . S
C2102 C2103 1.391 . S
C2103 H2091 0.950 . S
C2103 C2099 1.393 . S
C2103 C2102 1.391 . S
H2104 C2112 0.950 . S
H2105 C2117 0.950 . S
H2106 C2114 0.950 . S
H2107 C2116 0.950 . S
H2108 C2118 0.950 . S
H2109 C2120 0.950 . S
H2110 C2122 0.950 . S
H2111 C2123 0.950 . S
C2112 H2104 0.950 . S
C2112 C2113 1.386 . S
C2112 C2114 1.391 . S
C2113 C2112 1.386 . S
C2113 C2117 1.393 . S
C2114 H2106 0.950 . S
C2114 C2112 1.391 . S
C2114 C2115 1.400 . S
C2115 C2114 1.400 . S
C2115 C2116 1.398 . S
C2115 C2121 1.491 . S
C2116 H2107 0.950 . S
C2116 C2115 1.398 . S
C2116 C2117 1.391 . S
C2117 H2105 0.950 . S
C2117 C2113 1.393 . S
C2117 C2116 1.391 . S
C2118 H2108 0.950 . S
C2118 C2119 1.386 . S
C2118 C2120 1.391 . S
C2119 C2118 1.386 . S
C2119 C2123 1.393 . S
C2120 H2109 0.950 . S
C2120 C2118 1.391 . S
C2120 C2121 1.400 . S
C2121 C2115 1.491 . S
C2121 C2120 1.400 . S
C2121 C2122 1.398 . S
C2122 H2110 0.950 . S
C2122 C2121 1.398 . S
C2122 C2123 1.391 . S
C2123 H2111 0.950 . S
C2123 C2119 1.393 . S
C2123 C2122 1.391 . S
H2124 C2132 0.950 . S
H2125 C2137 0.950 . S
H2126 C2134 0.950 . S
H2127 C2136 0.950 . S
H2128 C2138 0.950 1_545 S
H2129 C2140 0.950 . S
H2130 C2142 0.950 . S
H2131 C2143 0.950 . S
C2132 H2124 0.950 . S
C2132 C2133 1.386 . S
C2132 C2134 1.391 . S
C2133 C2132 1.386 . S
C2133 C2137 1.393 . S
C2134 H2126 0.950 . S
C2134 C2132 1.391 . S
C2134 C2135 1.400 . S
C2135 C2134 1.400 . S
C2135 C2136 1.398 . S
C2135 C2141 1.491 . S
C2136 H2127 0.950 . S
C2136 C2135 1.398 . S
C2136 C2137 1.391 . S
C2137 H2125 0.950 . S
C2137 C2133 1.393 . S
C2137 C2136 1.391 . S
C2138 H2128 0.950 1_565 S
C2138 C2139 1.386 . S
C2138 C2140 1.391 . S
C2139 C2138 1.386 . S
C2139 C2143 1.393 . S
C2140 H2129 0.950 . S
C2140 C2138 1.391 . S
C2140 C2141 1.400 . S
C2141 C2135 1.491 . S
C2141 C2140 1.400 . S
C2141 C2142 1.398 . S
C2142 H2130 0.950 . S
C2142 C2141 1.398 . S
C2142 C2143 1.391 . S
C2143 H2131 0.950 . S
C2143 C2139 1.393 . S
C2143 C2142 1.391 . S
H2144 C2152 0.950 . S
H2145 C2157 0.950 . S
H2146 C2154 0.950 . S
H2147 C2156 0.950 . S
H2148 C2158 0.950 1_655 S
H2149 C2160 0.950 1_655 S
H2150 C2162 0.950 . S
H2151 C2163 0.950 . S
C2152 H2144 0.950 . S
C2152 C2153 1.386 . S
C2152 C2154 1.391 . S
C2153 C2152 1.386 . S
C2153 C2157 1.393 . S
C2154 H2146 0.950 . S
C2154 C2152 1.391 . S
C2154 C2155 1.400 . S
C2155 C2154 1.400 . S
C2155 C2156 1.398 . S
C2155 C2161 1.491 . S
C2156 H2147 0.950 . S
C2156 C2155 1.398 . S
C2156 C2157 1.391 . S
C2157 H2145 0.950 . S
C2157 C2153 1.393 . S
C2157 C2156 1.391 . S
C2158 H2148 0.950 1_455 S
C2158 C2159 1.386 . S
C2158 C2160 1.391 . S
C2159 C2158 1.386 . S
C2159 C2163 1.393 . S
C2160 H2149 0.950 1_455 S
C2160 C2158 1.391 . S
C2160 C2161 1.400 . S
C2161 C2155 1.491 . S
C2161 C2160 1.400 . S
C2161 C2162 1.398 . S
C2162 H2150 0.950 . S
C2162 C2161 1.398 . S
C2162 C2163 1.391 . S
C2163 H2151 0.950 . S
C2163 C2159 1.393 . S
C2163 C2162 1.391 . S
H2164 C2172 0.950 . S
H2165 C2177 0.950 . S
H2166 C2174 0.950 . S
H2167 C2176 0.950 . S
H2168 C2178 0.950 . S
H2169 C2180 0.950 . S
H2170 C2182 0.950 . S
H2171 C2183 0.950 . S
C2172 H2164 0.950 . S
C2172 C2173 1.386 . S
C2172 C2174 1.391 . S
C2173 C2172 1.386 . S
C2173 C2177 1.393 . S
C2174 H2166 0.950 . S
C2174 C2172 1.391 . S
C2174 C2175 1.400 . S
C2175 C2174 1.400 . S
C2175 C2176 1.398 . S
C2175 C2181 1.491 . S
C2176 H2167 0.950 . S
C2176 C2175 1.398 . S
C2176 C2177 1.391 . S
C2177 H2165 0.950 . S
C2177 C2173 1.393 . S
C2177 C2176 1.391 . S
C2178 H2168 0.950 . S
C2178 C2179 1.386 . S
C2178 C2180 1.391 . S
C2179 C2178 1.386 . S
C2179 C2183 1.393 . S
C2180 H2169 0.950 . S
C2180 C2178 1.391 . S
C2180 C2181 1.400 . S
C2181 C2175 1.491 . S
C2181 C2180 1.400 . S
C2181 C2182 1.398 . S
C2182 H2170 0.950 . S
C2182 C2181 1.398 . S
C2182 C2183 1.391 . S
C2183 H2171 0.950 . S
C2183 C2179 1.393 . S
C2183 C2182 1.391 . S
H2184 C2192 0.950 . S
H2185 C2197 0.950 . S
H2186 C2194 0.950 . S
H2187 C2196 0.950 . S
H2188 C2198 0.950 . S
H2189 C2200 0.950 . S
H2190 C2202 0.950 . S
H2191 C2203 0.950 . S
C2192 H2184 0.950 . S
C2192 C2193 1.386 . S
C2192 C2194 1.391 . S
C2193 C2192 1.386 . S
C2193 C2197 1.393 . S
C2194 H2186 0.950 . S
C2194 C2192 1.391 . S
C2194 C2195 1.400 . S
C2195 C2194 1.400 . S
C2195 C2196 1.398 . S
C2195 C2201 1.491 . S
C2196 H2187 0.950 . S
C2196 C2195 1.398 . S
C2196 C2197 1.391 . S
C2197 H2185 0.950 . S
C2197 C2193 1.393 . S
C2197 C2196 1.391 . S
C2198 H2188 0.950 . S
C2198 C2199 1.386 . S
C2198 C2200 1.391 . S
C2199 C2198 1.386 . S
C2199 C2203 1.393 . S
C2200 H2189 0.950 . S
C2200 C2198 1.391 . S
C2200 C2201 1.400 . S
C2201 C2195 1.491 . S
C2201 C2200 1.400 . S
C2201 C2202 1.398 . S
C2202 H2190 0.950 . S
C2202 C2201 1.398 . S
C2202 C2203 1.391 . S
C2203 H2191 0.950 . S
C2203 C2199 1.393 . S
C2203 C2202 1.391 . S
H2204 C2212 0.950 . S
H2205 C2217 0.950 . S
H2206 C2214 0.950 . S
H2207 C2216 0.950 . S
H2208 C2218 0.950 . S
H2209 C2220 0.950 . S
H2210 C2222 0.950 . S
H2211 C2223 0.950 . S
C2212 H2204 0.950 . S
C2212 C2213 1.386 . S
C2212 C2214 1.391 . S
C2213 C2212 1.386 . S
C2213 C2217 1.393 . S
C2214 H2206 0.950 . S
C2214 C2212 1.391 . S
C2214 C2215 1.400 . S
C2215 C2214 1.400 . S
C2215 C2216 1.398 . S
C2215 C2221 1.491 . S
C2216 H2207 0.950 . S
C2216 C2215 1.398 . S
C2216 C2217 1.391 . S
C2217 H2205 0.950 . S
C2217 C2213 1.393 . S
C2217 C2216 1.391 . S
C2218 H2208 0.950 . S
C2218 C2219 1.386 . S
C2218 C2220 1.391 . S
C2219 C2218 1.386 . S
C2219 C2223 1.393 . S
C2220 H2209 0.950 . S
C2220 C2218 1.391 . S
C2220 C2221 1.400 . S
C2221 C2215 1.491 . S
C2221 C2220 1.400 . S
C2221 C2222 1.398 . S
C2222 H2210 0.950 . S
C2222 C2221 1.398 . S
C2222 C2223 1.391 . S
C2223 H2211 0.950 . S
C2223 C2219 1.393 . S
C2223 C2222 1.391 . S
H2224 C2232 0.950 . S
H2225 C2237 0.950 . S
H2226 C2234 0.950 . S
H2227 C2236 0.950 . S
H2228 C2238 0.950 1_565 S
H2229 C2240 0.950 . S
H2230 C2242 0.950 . S
H2231 C2243 0.950 . S
C2232 H2224 0.950 . S
C2232 C2233 1.386 . S
C2232 C2234 1.391 . S
C2233 C2232 1.386 . S
C2233 C2237 1.393 . S
C2234 H2226 0.950 . S
C2234 C2232 1.391 . S
C2234 C2235 1.400 . S
C2235 C2234 1.400 . S
C2235 C2236 1.398 . S
C2235 C2241 1.491 . S
C2236 H2227 0.950 . S
C2236 C2235 1.398 . S
C2236 C2237 1.391 . S
C2237 H2225 0.950 . S
C2237 C2233 1.393 . S
C2237 C2236 1.391 . S
C2238 H2228 0.950 1_545 S
C2238 C2239 1.386 . S
C2238 C2240 1.391 . S
C2239 C2238 1.386 . S
C2239 C2243 1.393 . S
C2240 H2229 0.950 . S
C2240 C2238 1.391 . S
C2240 C2241 1.400 . S
C2241 C2235 1.491 . S
C2241 C2240 1.400 . S
C2241 C2242 1.398 . S
C2242 H2230 0.950 . S
C2242 C2241 1.398 . S
C2242 C2243 1.391 . S
C2243 H2231 0.950 . S
C2243 C2239 1.393 . S
C2243 C2242 1.391 . S
H2244 C2252 0.950 . S
H2245 C2257 0.950 . S
H2246 C2254 0.950 . S
H2247 C2256 0.950 . S
H2248 C2258 0.950 . S
H2249 C2260 0.950 . S
H2250 C2262 0.950 . S
H2251 C2263 0.950 . S
C2252 H2244 0.950 . S
C2252 C2253 1.386 . S
C2252 C2254 1.391 . S
C2253 C2252 1.386 . S
C2253 C2257 1.393 . S
C2254 H2246 0.950 . S
C2254 C2252 1.391 . S
C2254 C2255 1.400 . S
C2255 C2254 1.400 . S
C2255 C2256 1.398 . S
C2255 C2261 1.491 . S
C2256 H2247 0.950 . S
C2256 C2255 1.398 . S
C2256 C2257 1.391 . S
C2257 H2245 0.950 . S
C2257 C2253 1.393 . S
C2257 C2256 1.391 . S
C2258 H2248 0.950 . S
C2258 C2259 1.386 . S
C2258 C2260 1.391 . S
C2259 C2258 1.386 . S
C2259 C2263 1.393 . S
C2260 H2249 0.950 . S
C2260 C2258 1.391 . S
C2260 C2261 1.400 . S
C2261 C2255 1.491 . S
C2261 C2260 1.400 . S
C2261 C2262 1.398 . S
C2262 H2250 0.950 . S
C2262 C2261 1.398 . S
C2262 C2263 1.391 . S
C2263 H2251 0.950 . S
C2263 C2259 1.393 . S
C2263 C2262 1.391 . S
H2264 C2272 0.950 . S
H2265 C2277 0.950 . S
H2266 C2274 0.950 . S
H2267 C2276 0.950 . S
H2268 C2278 0.950 . S
H2269 C2280 0.950 . S
H2270 C2282 0.950 . S
H2271 C2283 0.950 . S
C2272 H2264 0.950 . S
C2272 C2273 1.386 . S
C2272 C2274 1.391 . S
C2273 C2272 1.386 . S
C2273 C2277 1.393 . S
C2274 H2266 0.950 . S
C2274 C2272 1.391 . S
C2274 C2275 1.400 . S
C2275 C2274 1.400 . S
C2275 C2276 1.398 . S
C2275 C2281 1.491 . S
C2276 H2267 0.950 . S
C2276 C2275 1.398 . S
C2276 C2277 1.391 . S
C2277 H2265 0.950 . S
C2277 C2273 1.393 . S
C2277 C2276 1.391 . S
C2278 H2268 0.950 . S
C2278 C2279 1.386 . S
C2278 C2280 1.391 . S
C2279 C2278 1.386 . S
C2279 C2283 1.393 . S
C2280 H2269 0.950 . S
C2280 C2278 1.391 . S
C2280 C2281 1.400 . S
C2281 C2275 1.491 . S
C2281 C2280 1.400 . S
C2281 C2282 1.398 . S
C2282 H2270 0.950 . S
C2282 C2281 1.398 . S
C2282 C2283 1.391 . S
C2283 H2271 0.950 . S
C2283 C2279 1.393 . S
C2283 C2282 1.391 . S
H2284 C2292 0.950 . S
H2285 C2297 0.950 . S
H2286 C2294 0.950 . S
H2287 C2296 0.950 . S
H2288 C2298 0.950 . S
H2289 C2300 0.950 . S
H2290 C2302 0.950 . S
H2291 C2303 0.950 . S
C2292 H2284 0.950 . S
C2292 C2293 1.386 . S
C2292 C2294 1.391 . S
C2293 C2292 1.386 . S
C2293 C2297 1.393 . S
C2294 H2286 0.950 . S
C2294 C2292 1.391 . S
C2294 C2295 1.400 . S
C2295 C2294 1.400 . S
C2295 C2296 1.398 . S
C2295 C2301 1.491 . S
C2296 H2287 0.950 . S
C2296 C2295 1.398 . S
C2296 C2297 1.391 . S
C2297 H2285 0.950 . S
C2297 C2293 1.393 . S
C2297 C2296 1.391 . S
C2298 H2288 0.950 . S
C2298 C2299 1.386 . S
C2298 C2300 1.391 . S
C2299 C2298 1.386 . S
C2299 C2303 1.393 . S
C2300 H2289 0.950 . S
C2300 C2298 1.391 . S
C2300 C2301 1.400 . S
C2301 C2295 1.491 . S
C2301 C2300 1.400 . S
C2301 C2302 1.398 . S
C2302 H2290 0.950 . S
C2302 C2301 1.398 . S
C2302 C2303 1.391 . S
C2303 H2291 0.950 . S
C2303 C2299 1.393 . S
C2303 C2302 1.391 . S
H2304 C2312 0.950 . S
H2305 C2317 0.950 . S
H2306 C2314 0.950 . S
H2307 C2316 0.950 . S
H2308 C2318 0.950 . S
H2309 C2320 0.950 . S
H2310 C2322 0.950 . S
H2311 C2323 0.950 . S
C2312 H2304 0.950 . S
C2312 C2313 1.386 . S
C2312 C2314 1.391 . S
C2313 C2312 1.386 . S
C2313 C2317 1.393 . S
C2314 H2306 0.950 . S
C2314 C2312 1.391 . S
C2314 C2315 1.400 . S
C2315 C2314 1.400 . S
C2315 C2316 1.398 . S
C2315 C2321 1.491 . S
C2316 H2307 0.950 . S
C2316 C2315 1.398 . S
C2316 C2317 1.391 . S
C2317 H2305 0.950 . S
C2317 C2313 1.393 . S
C2317 C2316 1.391 . S
C2318 H2308 0.950 . S
C2318 C2319 1.386 . S
C2318 C2320 1.391 . S
C2319 C2318 1.386 . S
C2319 C2323 1.393 . S
C2320 H2309 0.950 . S
C2320 C2318 1.391 . S
C2320 C2321 1.400 . S
C2321 C2315 1.491 . S
C2321 C2320 1.400 . S
C2321 C2322 1.398 . S
C2322 H2310 0.950 . S
C2322 C2321 1.398 . S
C2322 C2323 1.391 . S
C2323 H2311 0.950 . S
C2323 C2319 1.393 . S
C2323 C2322 1.391 . S
H2324 C2332 0.950 . S
H2325 C2337 0.950 . S
H2326 C2334 0.950 . S
H2327 C2336 0.950 . S
H2328 C2338 0.950 . S
H2329 C2340 0.950 . S
H2330 C2342 0.950 . S
H2331 C2343 0.950 . S
C2332 H2324 0.950 . S
C2332 C2333 1.386 . S
C2332 C2334 1.391 . S
C2333 C2332 1.386 . S
C2333 C2337 1.393 . S
C2334 H2326 0.950 . S
C2334 C2332 1.391 . S
C2334 C2335 1.400 . S
C2335 C2334 1.400 . S
C2335 C2336 1.398 . S
C2335 C2341 1.491 . S
C2336 H2327 0.950 . S
C2336 C2335 1.398 . S
C2336 C2337 1.391 . S
C2337 H2325 0.950 . S
C2337 C2333 1.393 . S
C2337 C2336 1.391 . S
C2338 H2328 0.950 . S
C2338 C2339 1.386 . S
C2338 C2340 1.391 . S
C2339 C2338 1.386 . S
C2339 C2343 1.393 . S
C2340 H2329 0.950 . S
C2340 C2338 1.391 . S
C2340 C2341 1.400 . S
C2341 C2335 1.491 . S
C2341 C2340 1.400 . S
C2341 C2342 1.398 . S
C2342 H2330 0.950 . S
C2342 C2341 1.398 . S
C2342 C2343 1.391 . S
C2343 H2331 0.950 . S
C2343 C2339 1.393 . S
C2343 C2342 1.391 . S
H2344 C2352 0.950 . S
H2345 C2357 0.950 . S
H2346 C2354 0.950 . S
H2347 C2356 0.950 . S
H2348 C2358 0.950 . S
H2349 C2360 0.950 . S
H2350 C2362 0.950 . S
H2351 C2363 0.950 . S
C2352 H2344 0.950 . S
C2352 C2353 1.386 . S
C2352 C2354 1.391 . S
C2353 C2352 1.386 . S
C2353 C2357 1.393 . S
C2354 H2346 0.950 . S
C2354 C2352 1.391 . S
C2354 C2355 1.400 . S
C2355 C2354 1.400 . S
C2355 C2356 1.398 . S
C2355 C2361 1.491 . S
C2356 H2347 0.950 . S
C2356 C2355 1.398 . S
C2356 C2357 1.391 . S
C2357 H2345 0.950 . S
C2357 C2353 1.393 . S
C2357 C2356 1.391 . S
C2358 H2348 0.950 . S
C2358 C2359 1.386 . S
C2358 C2360 1.391 . S
C2359 C2358 1.386 . S
C2359 C2363 1.393 . S
C2360 H2349 0.950 . S
C2360 C2358 1.391 . S
C2360 C2361 1.400 . S
C2361 C2355 1.491 . S
C2361 C2360 1.400 . S
C2361 C2362 1.398 . S
C2362 H2350 0.950 . S
C2362 C2361 1.398 . S
C2362 C2363 1.391 . S
C2363 H2351 0.950 . S
C2363 C2359 1.393 . S
C2363 C2362 1.391 . S
H2364 C2372 0.950 . S
H2365 C2377 0.950 . S
H2366 C2374 0.950 . S
H2367 C2376 0.950 . S
H2368 C2378 0.950 . S
H2369 C2380 0.950 . S
H2370 C2382 0.950 . S
H2371 C2383 0.950 . S
C2372 H2364 0.950 . S
C2372 C2373 1.386 . S
C2372 C2374 1.391 . S
C2373 C2372 1.386 . S
C2373 C2377 1.393 . S
C2374 H2366 0.950 . S
C2374 C2372 1.391 . S
C2374 C2375 1.400 . S
C2375 C2374 1.400 . S
C2375 C2376 1.398 . S
C2375 C2381 1.491 . S
C2376 H2367 0.950 . S
C2376 C2375 1.398 . S
C2376 C2377 1.391 . S
C2377 H2365 0.950 . S
C2377 C2373 1.393 . S
C2377 C2376 1.391 . S
C2378 H2368 0.950 . S
C2378 C2379 1.386 . S
C2378 C2380 1.391 . S
C2379 C2378 1.386 . S
C2379 C2383 1.393 . S
C2380 H2369 0.950 . S
C2380 C2378 1.391 . S
C2380 C2381 1.400 . S
C2381 C2375 1.491 . S
C2381 C2380 1.400 . S
C2381 C2382 1.398 . S
C2382 H2370 0.950 . S
C2382 C2381 1.398 . S
C2382 C2383 1.391 . S
C2383 H2371 0.950 . S
C2383 C2379 1.393 . S
C2383 C2382 1.391 . S
H2384 C2392 0.950 . S
H2385 C2397 0.950 . S
H2386 C2394 0.950 . S
H2387 C2396 0.950 . S
H2388 C2398 0.950 . S
H2389 C2400 0.950 . S
H2390 C2402 0.950 . S
H2391 C2403 0.950 . S
C2392 H2384 0.950 . S
C2392 C2393 1.386 . S
C2392 C2394 1.391 . S
C2393 C2392 1.386 . S
C2393 C2397 1.393 . S
C2394 H2386 0.950 . S
C2394 C2392 1.391 . S
C2394 C2395 1.400 . S
C2395 C2394 1.400 . S
C2395 C2396 1.398 . S
C2395 C2401 1.491 . S
C2396 H2387 0.950 . S
C2396 C2395 1.398 . S
C2396 C2397 1.391 . S
C2397 H2385 0.950 . S
C2397 C2393 1.393 . S
C2397 C2396 1.391 . S
C2398 H2388 0.950 . S
C2398 C2399 1.386 . S
C2398 C2400 1.391 . S
C2399 C2398 1.386 . S
C2399 C2403 1.393 . S
C2400 H2389 0.950 . S
C2400 C2398 1.391 . S
C2400 C2401 1.400 . S
C2401 C2395 1.491 . S
C2401 C2400 1.400 . S
C2401 C2402 1.398 . S
C2402 H2390 0.950 . S
C2402 C2401 1.398 . S
C2402 C2403 1.391 . S
C2403 H2391 0.950 . S
C2403 C2399 1.393 . S
C2403 C2402 1.391 . S
H2404 C2412 0.950 . S
H2405 C2417 0.950 . S
H2406 C2414 0.950 . S
H2407 C2416 0.950 . S
H2408 C2418 0.950 . S
H2409 C2420 0.950 . S
H2410 C2422 0.950 . S
H2411 C2423 0.950 . S
C2412 H2404 0.950 . S
C2412 C2413 1.386 . S
C2412 C2414 1.391 . S
C2413 C2412 1.386 . S
C2413 C2417 1.393 . S
C2414 H2406 0.950 . S
C2414 C2412 1.391 . S
C2414 C2415 1.400 . S
C2415 C2414 1.400 . S
C2415 C2416 1.398 . S
C2415 C2421 1.491 . S
C2416 H2407 0.950 . S
C2416 C2415 1.398 . S
C2416 C2417 1.391 . S
C2417 H2405 0.950 . S
C2417 C2413 1.393 . S
C2417 C2416 1.391 . S
C2418 H2408 0.950 . S
C2418 C2419 1.386 . S
C2418 C2420 1.391 . S
C2419 C2418 1.386 . S
C2419 C2423 1.393 . S
C2420 H2409 0.950 . S
C2420 C2418 1.391 . S
C2420 C2421 1.400 . S
C2421 C2415 1.491 . S
C2421 C2420 1.400 . S
C2421 C2422 1.398 . S
C2422 H2410 0.950 . S
C2422 C2421 1.398 . S
C2422 C2423 1.391 . S
C2423 H2411 0.950 . S
C2423 C2419 1.393 . S
C2423 C2422 1.391 . S
H2424 C2432 0.950 . S
H2425 C2437 0.950 . S
H2426 C2434 0.950 . S
H2427 C2436 0.950 . S
H2428 C2438 0.950 . S
H2429 C2440 0.950 . S
H2430 C2442 0.950 . S
H2431 C2443 0.950 . S
C2432 H2424 0.950 . S
C2432 C2433 1.386 . S
C2432 C2434 1.391 . S
C2433 C2432 1.386 . S
C2433 C2437 1.393 . S
C2434 H2426 0.950 . S
C2434 C2432 1.391 . S
C2434 C2435 1.400 . S
C2435 C2434 1.400 . S
C2435 C2436 1.398 . S
C2435 C2441 1.491 . S
C2436 H2427 0.950 . S
C2436 C2435 1.398 . S
C2436 C2437 1.391 . S
C2437 H2425 0.950 . S
C2437 C2433 1.393 . S
C2437 C2436 1.391 . S
C2438 H2428 0.950 . S
C2438 C2439 1.386 . S
C2438 C2440 1.391 . S
C2439 C2438 1.386 . S
C2439 C2443 1.393 . S
C2440 H2429 0.950 . S
C2440 C2438 1.391 . S
C2440 C2441 1.400 . S
C2441 C2435 1.491 . S
C2441 C2440 1.400 . S
C2441 C2442 1.398 . S
C2442 H2430 0.950 . S
C2442 C2441 1.398 . S
C2442 C2443 1.391 . S
C2443 H2431 0.950 . S
C2443 C2439 1.393 . S
C2443 C2442 1.391 . S
H2444 C2452 0.950 . S
H2445 C2457 0.950 . S
H2446 C2454 0.950 . S
H2447 C2456 0.950 . S
H2448 C2458 0.950 . S
H2449 C2460 0.950 . S
H2450 C2462 0.950 . S
H2451 C2463 0.950 . S
C2452 H2444 0.950 . S
C2452 C2453 1.386 . S
C2452 C2454 1.391 . S
C2453 C2452 1.386 . S
C2453 C2457 1.393 . S
C2454 H2446 0.950 . S
C2454 C2452 1.391 . S
C2454 C2455 1.400 . S
C2455 C2454 1.400 . S
C2455 C2456 1.398 . S
C2455 C2461 1.491 . S
C2456 H2447 0.950 . S
C2456 C2455 1.398 . S
C2456 C2457 1.391 . S
C2457 H2445 0.950 . S
C2457 C2453 1.393 . S
C2457 C2456 1.391 . S
C2458 H2448 0.950 . S
C2458 C2459 1.386 . S
C2458 C2460 1.391 . S
C2459 C2458 1.386 . S
C2459 C2463 1.393 . S
C2460 H2449 0.950 . S
C2460 C2458 1.391 . S
C2460 C2461 1.400 . S
C2461 C2455 1.491 . S
C2461 C2460 1.400 . S
C2461 C2462 1.398 . S
C2462 H2450 0.950 . S
C2462 C2461 1.398 . S
C2462 C2463 1.391 . S
C2463 H2451 0.950 . S
C2463 C2459 1.393 . S
C2463 C2462 1.391 . S
H2464 C2472 0.950 . S
H2465 C2477 0.950 . S
H2466 C2474 0.950 . S
H2467 C2476 0.950 . S
H2468 C2478 0.950 . S
H2469 C2480 0.950 . S
H2470 C2482 0.950 . S
H2471 C2483 0.950 . S
C2472 H2464 0.950 . S
C2472 C2473 1.386 . S
C2472 C2474 1.391 . S
C2473 C2472 1.386 . S
C2473 C2477 1.393 . S
C2474 H2466 0.950 . S
C2474 C2472 1.391 . S
C2474 C2475 1.400 . S
C2475 C2474 1.400 . S
C2475 C2476 1.398 . S
C2475 C2481 1.491 . S
C2476 H2467 0.950 . S
C2476 C2475 1.398 . S
C2476 C2477 1.391 . S
C2477 H2465 0.950 . S
C2477 C2473 1.393 . S
C2477 C2476 1.391 . S
C2478 H2468 0.950 . S
C2478 C2479 1.386 . S
C2478 C2480 1.391 . S
C2479 C2478 1.386 . S
C2479 C2483 1.393 . S
C2480 H2469 0.950 . S
C2480 C2478 1.391 . S
C2480 C2481 1.400 . S
C2481 C2475 1.491 . S
C2481 C2480 1.400 . S
C2481 C2482 1.398 . S
C2482 H2470 0.950 . S
C2482 C2481 1.398 . S
C2482 C2483 1.391 . S
C2483 H2471 0.950 . S
C2483 C2479 1.393 . S
C2483 C2482 1.391 . S
C1413 C469 1.447 . S
C1419 C715 1.382 . S
C1433 C505 1.465 . S
C1439 C799 1.379 . S
C1453 C433 1.483 . S
C1459 C879 1.441 . S
C1473 C397 1.433 . S
C1479 C795 1.378 . S
C1499 C883 1.319 . S
C1493 C325 1.401 . S
C1513 C361 1.418 . S
C1519 C711 1.368 . S
C1539 C704 1.383 . S
C1533 C421 1.442 . S
C1559 C788 1.404 . S
C1553 C349 1.462 . S
C1573 C385 1.475 . S
C1579 C890 1.419 . S
C1593 C493 1.436 . S
C1599 C806 1.389 . S
C1613 C529 1.404 . S
C1619 C872 1.312 . S
C1639 C722 1.361 . S
C1633 C457 1.419 . S
C1659 C967 1.367 . S
C1653 C37 1.443 . S
C1673 C73 1.466 . S
C1679 C1051 1.406 . S
C1693 C1 1.479 . S
C1699 C1131 1.424 . S
C1713 C613 1.436 . S
C1719 C1047 1.396 . S
C1733 C541 1.400 . S
C1739 C1135 1.312 . S
C1753 C577 1.421 . S
C1759 C963 1.384 . S
C1773 C637 1.444 . S
C1779 C956 1.377 . S
C1793 C565 1.466 . S
C1799 C1040 1.385 . S
C1819 C1142 1.424 . S
C1813 C601 1.480 . S
C1833 C61 1.436 . S
C1839 C1058 1.386 . S
C1859 C1124 1.345 . S
C1853 C97 1.399 . S
C1873 C25 1.422 . S
C1879 C974 1.379 . S
C1899 C1219 1.351 . S
C1893 C253 1.444 . S
C1913 C289 1.465 . S
C1919 C1303 1.380 . S
C1939 C1383 1.420 . S
C1933 C217 1.478 . S
C1959 C1299 1.403 . S
C1953 C181 1.436 . S
C1979 C1387 1.315 . S
C1973 C109 1.401 . S
C1993 C145 1.421 . S
C1999 C1215 1.381 . S
C2013 C205 1.443 . S
C2019 C1208 1.364 . S
C2033 C133 1.465 . S
C2039 C1292 1.386 . S
C2059 C1394 1.438 . S
C2053 C169 1.483 . S
C2073 C277 1.430 . S
C2079 C1310 1.390 . S
C2093 C313 1.402 . S
C2099 C1376 1.325 . S
C2113 C241 1.416 . S
C2119 C1226 1.379 . S
C2133 C571 1.443 . S
C2139 C718 1.346 . S
C2159 C802 1.374 . S
C2153 C607 1.508 . S
C2173 C643 1.471 . S
C2179 C874 1.358 . S
C2193 C247 1.508 . S
C2199 C790 1.382 . S
C2213 C283 1.476 . S
C2219 C886 1.328 . S
C2239 C706 1.339 . S
C2233 C319 1.442 . S
C2253 C139 1.442 . S
C2259 C970 1.351 . S
C2273 C175 1.511 . S
C2279 C1054 1.344 . S
C2293 C211 1.473 . S
C2299 C1126 1.360 . S
C2313 C463 1.509 . S
C2319 C1042 1.384 . S
C2339 C1138 1.359 . S
C2333 C499 1.472 . S
C2353 C535 1.442 . S
C2359 C958 1.355 . S
C2373 C355 1.449 . S
C2379 C1222 1.315 . S
C2393 C391 1.510 . S
C2399 C1306 1.344 . S
C2419 C1378 1.342 . S
C2413 C427 1.476 . S
C2433 C31 1.509 . S
C2439 C1294 1.383 . S
C2453 C67 1.476 . S
C2459 C1390 1.325 . S
C2473 C103 1.449 . S
C2479 C1210 1.315 . S
