# Generated by pormake.
# Topology cml, (3,6)-cn, num edge types: 1
# Building blocks:
#     Node 0, Type 0, BuildingBlock: BETDAH_clean_linker_0, # of connection points: 3
#     Node 1, Type 0, BuildingBlock: BETDAH_clean_linker_0, # of connection points: 3
#     Node 2, Type 0, BuildingBlock: BETDAH_clean_linker_0, # of connection points: 3
#     Node 3, Type 0, BuildingBlock: BETDAH_clean_linker_0, # of connection points: 3
#     Node 4, Type 0, BuildingBlock: BETDAH_clean_linker_0, # of connection points: 3
#     Node 5, Type 0, BuildingBlock: BETDAH_clean_linker_0, # of connection points: 3
#     Node 6, Type 0, BuildingBlock: BETDAH_clean_linker_0, # of connection points: 3
#     Node 7, Type 0, BuildingBlock: BETDAH_clean_linker_0, # of connection points: 3
#     Node 8, Type 1, BuildingBlock: IZENUY_clean_sbu_0, # of connection points: 6
#     Node 9, Type 1, BuildingBlock: IZENUY_clean_sbu_0, # of connection points: 6
#     Node 10, Type 1, BuildingBlock: IZENUY_clean_sbu_0, # of connection points: 6
#     Node 11, Type 1, BuildingBlock: IZENUY_clean_sbu_0, # of connection points: 6
#     Edge 12, Type (0, 1), BuildingBlock: TEMPAE_clean_linker_10, # of connection points: 2
#     Edge 13, Type (0, 1), BuildingBlock: TEMPAE_clean_linker_10, # of connection points: 2
#     Edge 14, Type (0, 1), BuildingBlock: TEMPAE_clean_linker_10, # of connection points: 2
#     Edge 15, Type (0, 1), BuildingBlock: TEMPAE_clean_linker_10, # of connection points: 2
#     Edge 16, Type (0, 1), BuildingBlock: TEMPAE_clean_linker_10, # of connection points: 2
#     Edge 17, Type (0, 1), BuildingBlock: TEMPAE_clean_linker_10, # of connection points: 2
#     Edge 18, Type (0, 1), BuildingBlock: TEMPAE_clean_linker_10, # of connection points: 2
#     Edge 19, Type (0, 1), BuildingBlock: TEMPAE_clean_linker_10, # of connection points: 2
#     Edge 20, Type (0, 1), BuildingBlock: TEMPAE_clean_linker_10, # of connection points: 2
#     Edge 21, Type (0, 1), BuildingBlock: TEMPAE_clean_linker_10, # of connection points: 2
#     Edge 22, Type (0, 1), BuildingBlock: TEMPAE_clean_linker_10, # of connection points: 2
#     Edge 23, Type (0, 1), BuildingBlock: TEMPAE_clean_linker_10, # of connection points: 2
#     Edge 24, Type (0, 1), BuildingBlock: TEMPAE_clean_linker_10, # of connection points: 2
#     Edge 25, Type (0, 1), BuildingBlock: TEMPAE_clean_linker_10, # of connection points: 2
#     Edge 26, Type (0, 1), BuildingBlock: TEMPAE_clean_linker_10, # of connection points: 2
#     Edge 27, Type (0, 1), BuildingBlock: TEMPAE_clean_linker_10, # of connection points: 2
#     Edge 28, Type (0, 1), BuildingBlock: TEMPAE_clean_linker_10, # of connection points: 2
#     Edge 29, Type (0, 1), BuildingBlock: TEMPAE_clean_linker_10, # of connection points: 2
#     Edge 30, Type (0, 1), BuildingBlock: TEMPAE_clean_linker_10, # of connection points: 2
#     Edge 31, Type (0, 1), BuildingBlock: TEMPAE_clean_linker_10, # of connection points: 2
#     Edge 32, Type (0, 1), BuildingBlock: TEMPAE_clean_linker_10, # of connection points: 2
#     Edge 33, Type (0, 1), BuildingBlock: TEMPAE_clean_linker_10, # of connection points: 2
#     Edge 34, Type (0, 1), BuildingBlock: TEMPAE_clean_linker_10, # of connection points: 2
#     Edge 35, Type (0, 1), BuildingBlock: TEMPAE_clean_linker_10, # of connection points: 2
# Relax obj value: 0.003
# Max RMSD: 0.065
# Mean RMSD: 0.051
data_MOF--net-cml--node1-IZENUY_clean_sbu_0--node2-BETDAH_clean_linker_0--edge1-TEMPAE_clean_linker_10
_symmetry_space_group_name_H-M    P1
_symmetry_Int_Tables_number       1
_symmetry_cell_setting            triclinic
loop_
_symmetry_equiv_pos_as_xyz
'x, y, z'
_cell_length_a     37.65392
_cell_length_b     41.836504
_cell_length_c     36.620715
_cell_angle_alpha  89.52197
_cell_angle_beta   90.76974
_cell_angle_gamma 91.202989
loop_
_atom_site_label
_atom_site_type_symbol
_atom_site_fract_x
_atom_site_fract_y
_atom_site_fract_z
_atom_type_partial_charge
H0 H 0.36428 0.41309 0.02688 0.0
H1 H 0.27068 0.41726 0.95897 0.0
H2 H 0.274 0.35111 0.04913 0.0
C3 C 0.3381 0.40375 0.01954 0.0
C4 C 0.32191 0.37995 0.04149 0.0
C5 C 0.32016 0.41715 0.98947 0.0
C6 C 0.28523 0.40685 0.9817 0.0
C7 C 0.26881 0.3828 1.00266 0.0
C8 C 0.28717 0.36915 0.03245 0.0
N9 N 0.23265 0.37515 0.99516 0.0
C10 C 0.21891 0.34422 0.99187 0.0
H11 H 0.65634 0.59198 0.51714 0.0
H12 H 0.75455 0.59836 0.45841 0.0
H13 H 0.74752 0.64102 0.56397 0.0
C14 C 0.68355 0.60064 0.51526 0.0
C15 C 0.69891 0.61804 0.5444 0.0
C16 C 0.70338 0.59284 0.48437 0.0
C17 C 0.73866 0.60449 0.48169 0.0
C18 C 0.75407 0.62272 0.51006 0.0
C19 C 0.73444 0.62872 0.54144 0.0
N20 N 0.79077 0.63103 0.51016 0.0
C21 C 0.80645 0.65237 0.48554 0.0
H22 H 0.66379 0.42336 0.03238 0.0
H23 H 0.75439 0.44364 0.96488 0.0
H24 H 0.75744 0.36658 0.04281 0.0
C25 C 0.69037 0.41799 0.02366 0.0
C26 C 0.70873 0.39316 0.04127 0.0
C27 C 0.7063 0.43651 0.99588 0.0
C28 C 0.74096 0.42924 0.98541 0.0
C29 C 0.75892 0.40351 1.0012 0.0
C30 C 0.74294 0.38557 0.02943 0.0
N31 N 0.79405 0.39792 0.98974 0.0
C32 C 0.80811 0.36783 0.98483 0.0
H33 H 0.35179 0.57081 0.54313 0.0
H34 H 0.29448 0.65667 0.51925 0.0
H35 H 0.31006 0.58772 0.43499 0.0
C36 C 0.33667 0.58533 0.5241 0.0
C37 C 0.33209 0.57534 0.48783 0.0
C38 C 0.3232 0.61463 0.53563 0.0
C39 C 0.30435 0.63384 0.51064 0.0
C40 C 0.29916 0.62364 0.47438 0.0
C41 C 0.31315 0.59467 0.46333 0.0
N42 N 0.28151 0.64222 0.44749 0.0
C43 C 0.26114 0.66872 0.45418 0.0
H44 H 0.85247 0.92225 0.04383 0.0
H45 H 0.76018 0.90463 0.9757 0.0
H46 H 0.77051 0.85664 0.07941 0.0
C47 C 0.82765 0.90939 0.03862 0.0
C48 C 0.81463 0.88791 0.06507 0.0
C49 C 0.80851 0.91553 0.0062 0.0
C50 C 0.77544 0.89993 1.00038 0.0
C51 C 0.76176 0.87883 0.02712 0.0
C52 C 0.78125 0.87319 0.05928 0.0
N53 N 0.72773 0.86404 0.02356 0.0
C54 C 0.71329 0.85249 0.99104 0.0
H55 H 0.15391 0.09964 0.53784 0.0
H56 H 0.24755 0.11532 0.47302 0.0
H57 H 0.23814 0.16191 0.5765 0.0
C58 C 0.17924 0.11178 0.53346 0.0
C59 C 0.19313 0.13217 0.56059 0.0
C60 C 0.19862 0.10526 0.50185 0.0
C61 C 0.23213 0.12034 0.49699 0.0
C62 C 0.24619 0.14101 0.52399 0.0
C63 C 0.22685 0.14631 0.55571 0.0
N64 N 0.28079 0.15496 0.52185 0.0
C65 C 0.2969 0.16644 0.49025 0.0
H66 H 0.15299 0.91002 0.03253 0.0
H67 H 0.23953 0.91846 0.95749 0.0
H68 H 0.24912 0.85811 0.05232 0.0
C69 C 0.17893 0.90265 0.02375 0.0
C70 C 0.19879 0.88187 0.04606 0.0
C71 C 0.19321 0.91596 0.99167 0.0
C72 C 0.22777 0.90799 0.98177 0.0
C73 C 0.24757 0.88661 1.003 0.0
C74 C 0.23315 0.87359 0.0352 0.0
N75 N 0.2835 0.88189 0.99395 0.0
C76 C 0.2971 0.85231 0.98528 0.0
H77 H 0.85839 0.08251 0.54444 0.0
H78 H 0.76723 0.14283 0.54865 0.0
H79 H 0.77576 0.07427 0.46282 0.0
C80 C 0.83371 0.0908 0.53253 0.0
C81 C 0.82022 0.07616 0.50077 0.0
C82 C 0.81515 0.11505 0.54999 0.0
C83 C 0.78216 0.12448 0.53537 0.0
C84 C 0.76797 0.10934 0.5041 0.0
C85 C 0.78691 0.08529 0.48719 0.0
N86 N 0.73376 0.11632 0.4901 0.0
C87 C 0.72114 0.14704 0.48557 0.0
Fe88 Fe 0.02396 0.83147 0.32583 0.0
Fe89 Fe 0.02476 0.86765 0.39853 0.0
O90 O 0.0242 0.86802 0.35005 0.0
Fe91 Fe 0.02361 0.90494 0.32598 0.0
O92 O 0.98205 0.89448 0.30344 0.0
O93 O 0.99639 0.84591 0.28757 0.0
O94 O 0.98301 0.818 0.34706 0.0
C95 C 0.97841 0.81526 0.38096 0.0
C96 C 0.06918 0.86707 0.28314 0.0
O97 O 0.99907 0.82977 0.40322 0.0
C98 C 0.07 0.92106 0.38095 0.0
O99 O 0.05155 0.8105 0.35985 0.0
O100 O 0.06662 0.84729 0.40006 0.0
O101 O 0.04956 0.891 0.28726 0.0
O102 O 0.06477 0.84219 0.30239 0.0
C103 C 0.97722 0.91473 0.3851 0.0
O104 O 0.05043 0.90549 0.40306 0.0
O105 O 0.0652 0.91831 0.34695 0.0
C106 C 0.07215 0.82094 0.38493 0.0
O107 O 0.98294 0.88809 0.40016 0.0
O108 O 0.99723 0.92549 0.36011 0.0
C109 C 0.97635 0.86977 0.28464 0.0
Fe110 Fe 0.99584 0.13703 0.89914 0.0
Fe111 Fe 0.99288 0.10374 0.82475 0.0
O112 O 0.99526 0.13934 0.8507 0.0
Fe113 Fe 0.99697 0.17718 0.82837 0.0
O114 O 0.0256 0.19629 0.86339 0.0
O115 O 0.03875 0.15748 0.9018 0.0
O116 O 0.01972 0.09928 0.9017 0.0
C117 C 0.03898 0.0854 0.87889 0.0
C118 C 0.95246 0.19052 0.88459 0.0
O119 O 0.03384 0.08924 0.84505 0.0
C120 C 0.9477 0.14114 0.78481 0.0
O121 O 0.95296 0.11628 0.89986 0.0
O122 O 0.96554 0.0814 0.85762 0.0
O123 O 0.95675 0.18979 0.8505 0.0
O124 O 0.9721 0.17441 0.90581 0.0
C125 C 0.04072 0.14331 0.78436 0.0
O126 O 0.95189 0.11552 0.80257 0.0
O127 O 0.9687 0.16488 0.78939 0.0
C128 C 0.94595 0.0906 0.88314 0.0
O129 O 0.01955 0.11954 0.787 0.0
O130 O 0.03729 0.16751 0.80428 0.0
C131 C 0.0455 0.1847 0.88819 0.0
Fe132 Fe 0.52218 0.32256 0.30931 0.0
Fe133 Fe 0.52262 0.35976 0.38129 0.0
O134 O 0.52171 0.35948 0.33288 0.0
Fe135 Fe 0.52012 0.39606 0.30819 0.0
O136 O 0.47864 0.38444 0.28577 0.0
O137 O 0.49447 0.33608 0.27067 0.0
O138 O 0.48137 0.3088 0.33081 0.0
C139 C 0.47679 0.30686 0.36481 0.0
C140 C 0.56691 0.35866 0.2665 0.0
O141 O 0.49749 0.32179 0.38664 0.0
C142 C 0.56674 0.41358 0.36265 0.0
O143 O 0.54995 0.30227 0.34381 0.0
O144 O 0.56481 0.33988 0.38298 0.0
O145 O 0.54634 0.38202 0.26983 0.0
O146 O 0.56288 0.33371 0.28579 0.0
C147 C 0.47445 0.40631 0.36811 0.0
O148 O 0.54775 0.39786 0.38512 0.0
O149 O 0.56153 0.4106 0.32872 0.0
C150 C 0.57025 0.31304 0.36897 0.0
O151 O 0.48049 0.37968 0.38298 0.0
O152 O 0.49357 0.4167 0.34219 0.0
C153 C 0.4738 0.35946 0.26715 0.0
Fe154 Fe 0.50509 0.64771 0.88298 0.0
Fe155 Fe 0.50528 0.61029 0.81155 0.0
O156 O 0.50386 0.64721 0.83469 0.0
Fe157 Fe 0.50133 0.68345 0.80939 0.0
O158 O 0.54263 0.69872 0.82946 0.0
O159 O 0.52993 0.68579 0.88618 0.0
O160 O 0.54767 0.62788 0.88482 0.0
C161 C 0.55243 0.60065 0.87147 0.0
C162 C 0.45589 0.69374 0.86961 0.0
O163 O 0.53203 0.58996 0.84653 0.0
C164 C 0.45694 0.64593 0.76811 0.0
O165 O 0.48022 0.60974 0.88829 0.0
O166 O 0.46427 0.59625 0.83241 0.0
O167 O 0.47455 0.70418 0.84331 0.0
O168 O 0.46275 0.66741 0.88484 0.0
C169 C 0.54942 0.6464 0.76885 0.0
O170 O 0.4787 0.62348 0.77215 0.0
O171 O 0.45981 0.67077 0.78733 0.0
C172 C 0.45998 0.59423 0.86652 0.0
O173 O 0.54644 0.62212 0.78938 0.0
O174 O 0.52778 0.66917 0.77095 0.0
C175 C 0.54875 0.70115 0.86331 0.0
C176 C 0.21044 0.296 0.95453 0.0
C177 C 0.19928 0.31526 0.98301 0.0
C178 C 0.18811 0.27151 0.9406 0.0
C179 C 0.15381 0.2666 0.9554 0.0
C180 C 0.14335 0.28507 0.98556 0.0
C181 C 0.16627 0.30929 0.99896 0.0
C182 C 0.20037 0.25227 0.90863 0.0
C183 C 0.10707 0.28066 1.00214 0.0
C184 C 0.07918 0.23683 0.89279 0.0
C185 C 0.07459 0.20492 0.9042 0.0
C186 C 0.10519 0.25689 0.90888 0.0
C187 C 0.12747 0.24479 0.937 0.0
C188 C 0.12364 0.21241 0.94809 0.0
C189 C 0.09721 0.19288 0.93164 0.0
C190 C 0.10832 0.29129 0.89624 0.0
C191 C 0.14707 0.19858 0.97775 0.0
H192 H 0.23592 0.30104 0.94201 0.0
H193 H 0.15765 0.3246 0.02075 0.0
H194 H 0.19518 0.22639 0.91345 0.0
H195 H 0.1852 0.2592 0.88373 0.0
H196 H 0.22913 0.25615 0.90337 0.0
H197 H 0.10439 0.29458 0.02763 0.0
H198 H 0.08647 0.28855 0.98227 0.0
H199 H 0.10159 0.25505 0.00834 0.0
H200 H 0.06197 0.24643 0.8716 0.0
H201 H 0.09406 0.16822 0.94055 0.0
H202 H 0.13576 0.29673 0.88706 0.0
H203 H 0.10292 0.30744 0.9193 0.0
H204 H 0.08956 0.29677 0.87348 0.0
H205 H 0.17546 0.20252 0.97093 0.0
H206 H 0.14202 0.17255 0.9819 0.0
H207 H 0.14246 0.21097 0.00387 0.0
C208 C 0.81681 0.70693 0.46099 0.0
C209 C 0.82774 0.67534 0.46511 0.0
C210 C 0.8395 0.73042 0.44554 0.0
C211 C 0.87397 0.72203 0.4343 0.0
C212 C 0.88458 0.68979 0.4376 0.0
C213 C 0.8613 0.66684 0.45304 0.0
C214 C 0.82705 0.76439 0.44236 0.0
C215 C 0.921 0.67976 0.42604 0.0
C216 C 0.92725 0.7766 0.37038 0.0
C217 C 0.95068 0.7924 0.39476 0.0
C218 C 0.90176 0.75412 0.38287 0.0
C219 C 0.89959 0.74708 0.42067 0.0
C220 C 0.92275 0.76328 0.44547 0.0
C221 C 0.9479 0.78574 0.43227 0.0
C222 C 0.87749 0.73757 0.35551 0.0
C223 C 0.9214 0.7565 0.486 0.0
H224 H 0.79092 0.71345 0.47079 0.0
H225 H 0.86979 0.6424 0.45669 0.0
H226 H 0.84352 0.78004 0.46045 0.0
H227 H 0.8304 0.77341 0.41402 0.0
H228 H 0.79876 0.7666 0.44998 0.0
H229 H 0.92452 0.65354 0.42872 0.0
H230 H 0.92568 0.68694 0.39725 0.0
H231 H 0.9416 0.69208 0.44306 0.0
H232 H 0.92893 0.78162 0.34136 0.0
H233 H 0.96573 0.79778 0.4514 0.0
H234 H 0.84933 0.74091 0.36289 0.0
H235 H 0.88224 0.71148 0.35604 0.0
H236 H 0.88151 0.74664 0.32724 0.0
H237 H 0.89427 0.76056 0.4962 0.0
H238 H 0.94054 0.7717 0.50179 0.0
H239 H 0.92748 0.73104 0.4914 0.0
C240 C 0.86317 0.34293 0.96635 0.0
C241 C 0.8271 0.33977 0.97441 0.0
C242 C 0.88191 0.31709 0.95265 0.0
C243 C 0.86402 0.28738 0.94691 0.0
C244 C 0.82757 0.28397 0.9558 0.0
C245 C 0.80942 0.31038 0.96936 0.0
C246 C 0.92069 0.32182 0.94354 0.0
C247 C 0.80765 0.25268 0.95026 0.0
C248 C 0.90716 0.23358 0.87772 0.0
C249 C 0.92722 0.21339 0.90037 0.0
C250 C 0.88539 0.25696 0.89253 0.0
C251 C 0.88358 0.26029 0.93094 0.0
C252 C 0.9027 0.23922 0.95395 0.0
C253 C 0.92423 0.21606 0.93843 0.0
C254 C 0.86534 0.27889 0.86703 0.0
C255 C 0.90145 0.2419 0.995 0.0
H256 H 0.87659 0.3659 0.97003 0.0
H257 H 0.78134 0.30822 0.97538 0.0
H258 H 0.9369 0.30409 0.95862 0.0
H259 H 0.92459 0.31782 0.91396 0.0
H260 H 0.93085 0.34619 0.95039 0.0
H261 H 0.77988 0.25353 0.96003 0.0
H262 H 0.80709 0.24658 0.92083 0.0
H263 H 0.82146 0.23313 0.96492 0.0
H264 H 0.90905 0.23163 0.84831 0.0
H265 H 0.93938 0.2005 0.95627 0.0
H266 H 0.87598 0.30369 0.86982 0.0
H267 H 0.83686 0.27912 0.87435 0.0
H268 H 0.86743 0.27171 0.83801 0.0
H269 H 0.91401 0.26491 0.0036 0.0
H270 H 0.91547 0.22211 0.00909 0.0
H271 H 0.87351 0.24187 0.00423 0.0
C272 C 0.24565 0.72195 0.43196 0.0
C273 C 0.23739 0.69518 0.4535 0.0
C274 C 0.21999 0.74497 0.42432 0.0
C275 C 0.18538 0.7408 0.43854 0.0
C276 C 0.17775 0.71467 0.46225 0.0
C277 C 0.20395 0.69197 0.46932 0.0
C278 C 0.22919 0.77247 0.39895 0.0
C279 C 0.14128 0.70953 0.47815 0.0
C280 C 0.12108 0.80941 0.43005 0.0
C281 C 0.10129 0.80068 0.39876 0.0
C282 C 0.14842 0.79009 0.44356 0.0
C283 C 0.15628 0.76152 0.42522 0.0
C284 C 0.13653 0.75267 0.39357 0.0
C285 C 0.10927 0.77231 0.38078 0.0
C286 C 0.16886 0.80018 0.47744 0.0
C287 C 0.14427 0.72245 0.37308 0.0
H288 H 0.27158 0.72402 0.4195 0.0
H289 H 0.19773 0.67091 0.48569 0.0
H290 H 0.21502 0.76909 0.37245 0.0
H291 H 0.22039 0.79539 0.41046 0.0
H292 H 0.25815 0.77435 0.39372 0.0
H293 H 0.14096 0.69057 0.49956 0.0
H294 H 0.1317 0.73201 0.49009 0.0
H295 H 0.12224 0.70245 0.45613 0.0
H296 H 0.1151 0.83127 0.44417 0.0
H297 H 0.09427 0.76542 0.35653 0.0
H298 H 0.19749 0.80311 0.4712 0.0
H299 H 0.16647 0.78134 0.49881 0.0
H300 H 0.1593 0.823 0.48866 0.0
H301 H 0.17218 0.72312 0.36371 0.0
H302 H 0.12646 0.71902 0.34893 0.0
H303 H 0.14115 0.70139 0.39145 0.0
C304 C 0.66024 0.84461 0.95228 0.0
C305 C 0.69452 0.83556 0.96235 0.0
C306 C 0.63835 0.82443 0.93084 0.0
C307 C 0.65119 0.79449 0.91964 0.0
C308 C 0.6868 0.78638 0.92778 0.0
C309 C 0.70806 0.80706 0.94927 0.0
C310 C 0.60063 0.83404 0.92271 0.0
C311 C 0.70157 0.7548 0.9163 0.0
C312 C 0.58273 0.72683 0.91469 0.0
C313 C 0.57607 0.72439 0.87701 0.0
C314 C 0.60735 0.74928 0.92866 0.0
C315 C 0.62598 0.76994 0.90444 0.0
C316 C 0.61992 0.76736 0.86632 0.0
C317 C 0.59502 0.74458 0.85302 0.0
C318 C 0.61308 0.75113 0.96953 0.0
C319 C 0.63938 0.7889 0.8397 0.0
H320 H 0.64982 0.86661 0.96288 0.0
H321 H 0.73458 0.80007 0.95753 0.0
H322 H 0.59367 0.8297 0.89362 0.0
H323 H 0.58215 0.81924 0.93948 0.0
H324 H 0.59631 0.85961 0.92885 0.0
H325 H 0.7309 0.7542 0.91987 0.0
H326 H 0.68956 0.73528 0.93306 0.0
H327 H 0.69471 0.74983 0.88732 0.0
H328 H 0.56846 0.71128 0.93351 0.0
H329 H 0.59015 0.74286 0.82386 0.0
H330 H 0.6061 0.7752 0.97931 0.0
H331 H 0.64149 0.74754 0.97647 0.0
H332 H 0.59688 0.73299 0.98458 0.0
H333 H 0.63263 0.81417 0.84465 0.0
H334 H 0.63269 0.78307 0.81084 0.0
H335 H 0.66849 0.78693 0.84388 0.0
C336 C 0.3515 0.171 0.45418 0.0
C337 C 0.31853 0.1831 0.46354 0.0
C338 C 0.37611 0.1898 0.43442 0.0
C339 C 0.36751 0.2215 0.42412 0.0
C340 C 0.33337 0.23311 0.43203 0.0
C341 C 0.3093 0.21375 0.45181 0.0
C342 C 0.41209 0.17642 0.4265 0.0
C343 C 0.32304 0.26667 0.42158 0.0
C344 C 0.44384 0.2823 0.41752 0.0
C345 C 0.44861 0.28505 0.37965 0.0
C346 C 0.41757 0.2618 0.43217 0.0
C347 C 0.39532 0.24345 0.40849 0.0
C348 C 0.39982 0.24616 0.37024 0.0
C349 C 0.42636 0.26691 0.35628 0.0
C350 C 0.41368 0.25975 0.47313 0.0
C351 C 0.37665 0.22706 0.34408 0.0
H352 H 0.35871 0.14739 0.46381 0.0
H353 H 0.2839 0.22317 0.4596 0.0
H354 H 0.41885 0.18036 0.3974 0.0
H355 H 0.43269 0.18908 0.4432 0.0
H356 H 0.41328 0.15043 0.43277 0.0
H357 H 0.29441 0.27085 0.4261 0.0
H358 H 0.33887 0.28408 0.4381 0.0
H359 H 0.32901 0.27156 0.39245 0.0
H360 H 0.46072 0.29622 0.43589 0.0
H361 H 0.42968 0.26886 0.32699 0.0
H362 H 0.41765 0.23481 0.48263 0.0
H363 H 0.38642 0.26639 0.4808 0.0
H364 H 0.43297 0.27566 0.48779 0.0
H365 H 0.3796 0.20113 0.34961 0.0
H366 H 0.38332 0.232 0.31509 0.0
H367 H 0.34832 0.23263 0.34822 0.0
C368 C 0.35039 0.81952 0.98503 0.0
C369 C 0.31583 0.82491 0.97238 0.0
C370 C 0.37127 0.79612 0.96904 0.0
C371 C 0.35714 0.77781 0.93965 0.0
C372 C 0.3216 0.78246 0.92777 0.0
C373 C 0.30137 0.80615 0.94423 0.0
C374 C 0.40897 0.79199 0.98255 0.0
C375 C 0.30547 0.76335 0.89672 0.0
C376 C 0.42468 0.74604 0.8734 0.0
C377 C 0.42858 0.71443 0.8857 0.0
C378 C 0.40096 0.76663 0.8902 0.0
C379 C 0.38038 0.75538 0.91995 0.0
C380 C 0.38332 0.72323 0.93178 0.0
C381 C 0.40741 0.70318 0.9146 0.0
C382 C 0.39868 0.80076 0.87675 0.0
C383 C 0.36167 0.71023 0.96318 0.0
H384 H 0.36155 0.83441 0.0066 0.0
H385 H 0.27467 0.81071 0.93431 0.0
H386 H 0.41366 0.76653 0.98936 0.0
H387 H 0.42774 0.79902 0.96065 0.0
H388 H 0.4152 0.80665 0.00705 0.0
H389 H 0.27668 0.76782 0.89292 0.0
H390 H 0.31925 0.76968 0.87097 0.0
H391 H 0.3091 0.73741 0.90163 0.0
H392 H 0.4408 0.75502 0.85111 0.0
H393 H 0.41 0.67876 0.92423 0.0
H394 H 0.40745 0.81732 0.89876 0.0
H395 H 0.37076 0.80642 0.86965 0.0
H396 H 0.41537 0.80545 0.85242 0.0
H397 H 0.36946 0.72289 0.98864 0.0
H398 H 0.36532 0.68419 0.96755 0.0
H399 H 0.33304 0.71456 0.95819 0.0
C400 C 0.66986 0.18214 0.486 0.0
C401 C 0.7044 0.17632 0.47473 0.0
C402 C 0.65043 0.20716 0.47036 0.0
C403 C 0.66606 0.22655 0.44273 0.0
C404 C 0.70174 0.22164 0.43271 0.0
C405 C 0.7205 0.19637 0.44881 0.0
C406 C 0.61251 0.21164 0.48186 0.0
C407 C 0.7194 0.24186 0.40356 0.0
C408 C 0.60129 0.26075 0.37316 0.0
C409 C 0.59727 0.292 0.38586 0.0
C410 C 0.62431 0.23954 0.3909 0.0
C411 C 0.64394 0.24979 0.42208 0.0
C412 C 0.64103 0.28161 0.4343 0.0
C413 C 0.61774 0.30234 0.41606 0.0
C414 C 0.62677 0.20581 0.3769 0.0
C415 C 0.6617 0.29346 0.46729 0.0
H416 H 0.65747 0.16622 0.50583 0.0
H417 H 0.7472 0.19142 0.43995 0.0
H418 H 0.60809 0.23702 0.48864 0.0
H419 H 0.59422 0.20533 0.45891 0.0
H420 H 0.60541 0.19653 0.50588 0.0
H421 H 0.74833 0.23747 0.40199 0.0
H422 H 0.70701 0.23638 0.37661 0.0
H423 H 0.71551 0.26763 0.40876 0.0
H424 H 0.58579 0.25253 0.34979 0.0
H425 H 0.615 0.32648 0.42603 0.0
H426 H 0.617 0.18865 0.39794 0.0
H427 H 0.65486 0.20011 0.37155 0.0
H428 H 0.61099 0.20203 0.35139 0.0
H429 H 0.65256 0.28038 0.49203 0.0
H430 H 0.6585 0.31948 0.47168 0.0
H431 H 0.69037 0.28865 0.46428 0.0
C432 C 0.37341 0.44013 0.95754 0.0
C433 C 0.33767 0.4427 0.9672 0.0
C434 C 0.39111 0.46488 0.93862 0.0
C435 C 0.37261 0.49291 0.92901 0.0
C436 C 0.33621 0.49525 0.9376 0.0
C437 C 0.31918 0.47013 0.95665 0.0
C438 C 0.42993 0.46143 0.92991 0.0
C439 C 0.3156 0.52475 0.92781 0.0
C440 C 0.43024 0.56783 0.91974 0.0
C441 C 0.43477 0.57005 0.88181 0.0
C442 C 0.40923 0.54339 0.93528 0.0
C443 C 0.39216 0.52055 0.91239 0.0
C444 C 0.39545 0.52328 0.87401 0.0
C445 C 0.41672 0.54803 0.85913 0.0
C446 C 0.40631 0.54139 0.97635 0.0
C447 C 0.37746 0.49946 0.84874 0.0
H448 H 0.38769 0.41878 0.96508 0.0
H449 H 0.29165 0.47244 0.96431 0.0
H450 H 0.43429 0.46555 0.90033 0.0
H451 H 0.44598 0.47974 0.9449 0.0
H452 H 0.43993 0.43743 0.93746 0.0
H453 H 0.28683 0.52173 0.93359 0.0
H454 H 0.32625 0.5454 0.94364 0.0
H455 H 0.31875 0.53074 0.89844 0.0
H456 H 0.44379 0.58484 0.93753 0.0
H457 H 0.41994 0.54958 0.8298 0.0
H458 H 0.41855 0.51906 0.98651 0.0
H459 H 0.37799 0.54048 0.98434 0.0
H460 H 0.41965 0.562 0.99018 0.0
H461 H 0.38908 0.47555 0.85307 0.0
H462 H 0.3804 0.50629 0.81954 0.0
H463 H 0.34875 0.4972 0.85492 0.0
C464 C 0.70683 0.54255 0.44769 0.0
C465 C 0.68787 0.56961 0.45755 0.0
C466 C 0.6902 0.51729 0.42836 0.0
C467 C 0.65373 0.51914 0.41864 0.0
C468 C 0.63514 0.54732 0.42646 0.0
C469 C 0.65242 0.57216 0.44576 0.0
C470 C 0.71108 0.4878 0.42043 0.0
C471 C 0.59635 0.55048 0.41638 0.0
C472 C 0.60911 0.46022 0.35249 0.0
C473 C 0.59169 0.43895 0.37654 0.0
C474 C 0.63019 0.48595 0.36567 0.0
C475 C 0.63401 0.49058 0.40382 0.0
C476 C 0.61744 0.46861 0.42817 0.0
C477 C 0.59659 0.44314 0.41429 0.0
C478 C 0.64752 0.50873 0.3388 0.0
C479 C 0.62087 0.47251 0.46905 0.0
H480 H 0.73412 0.54022 0.45696 0.0
H481 H 0.63772 0.59317 0.45291 0.0
H482 H 0.70173 0.46784 0.43823 0.0
H483 H 0.70673 0.48027 0.39172 0.0
H484 H 0.74002 0.49168 0.42535 0.0
H485 H 0.5867 0.575 0.4211 0.0
H486 H 0.59172 0.54437 0.38726 0.0
H487 H 0.58023 0.53342 0.43297 0.0
H488 H 0.60563 0.45724 0.32327 0.0
H489 H 0.58348 0.42685 0.43319 0.0
H490 H 0.67629 0.51158 0.34518 0.0
H491 H 0.63565 0.53267 0.34107 0.0
H492 H 0.64426 0.50052 0.31015 0.0
H493 H 0.64931 0.47375 0.47736 0.0
H494 H 0.60769 0.4526 0.4843 0.0
H495 H 0.6088 0.4953 0.47723 0.0
C496 C 0.69097 0.47029 0.94078 0.0
C497 C 0.68689 0.46346 0.97815 0.0
C498 C 0.67188 0.49476 0.9235 0.0
C499 C 0.64728 0.51233 0.94374 0.0
C500 C 0.64341 0.50603 0.98152 0.0
C501 C 0.66361 0.48207 0.99834 0.0
C502 C 0.67726 0.50115 0.88329 0.0
C503 C 0.61698 0.52379 0.00395 0.0
C504 C 0.60918 0.58972 0.9057 0.0
C505 C 0.57745 0.57854 0.88944 0.0
C506 C 0.63265 0.5684 0.92291 0.0
C507 C 0.62351 0.53538 0.92482 0.0
C508 C 0.59122 0.52415 0.90884 0.0
C509 C 0.56889 0.54577 0.89093 0.0
C510 C 0.66729 0.58111 0.93879 0.0
C511 C 0.57994 0.48932 0.9111 0.0
H512 H 0.70844 0.45598 0.92464 0.0
H513 H 0.66085 0.47779 0.02739 0.0
H514 H 0.65304 0.49371 0.86772 0.0
H515 H 0.68166 0.52712 0.87822 0.0
H516 H 0.70017 0.48806 0.87247 0.0
H517 H 0.618 0.51681 0.03328 0.0
H518 H 0.62199 0.54994 1.00168 0.0
H519 H 0.5897 0.5189 0.99327 0.0
H520 H 0.61587 0.61504 0.90446 0.0
H521 H 0.54412 0.53707 0.87883 0.0
H522 H 0.68984 0.56857 0.9265 0.0
H523 H 0.66839 0.57635 0.96861 0.0
H524 H 0.67096 0.60723 0.93404 0.0
H525 H 0.59969 0.47436 0.89744 0.0
H526 H 0.55349 0.48466 0.89818 0.0
H527 H 0.57888 0.48148 0.9401 0.0
C528 C 0.33128 0.52547 0.45034 0.0
C529 C 0.34943 0.54622 0.4744 0.0
C530 C 0.34873 0.50015 0.43384 0.0
C531 C 0.3852 0.49556 0.44157 0.0
C532 C 0.40325 0.51555 0.46707 0.0
C533 C 0.38513 0.54065 0.48319 0.0
C534 C 0.32855 0.47919 0.407 0.0
C535 C 0.44216 0.5114 0.47604 0.0
C536 C 0.43064 0.41863 0.41681 0.0
C537 C 0.44859 0.42784 0.38491 0.0
C538 C 0.40903 0.44011 0.43506 0.0
C539 C 0.40527 0.4715 0.42104 0.0
C540 C 0.42217 0.48053 0.38812 0.0
C541 C 0.44357 0.4586 0.37045 0.0
C542 C 0.39126 0.4296 0.47 0.0
C543 C 0.41863 0.51375 0.37219 0.0
H544 H 0.30355 0.52947 0.44382 0.0
H545 H 0.39941 0.55681 0.50143 0.0
H546 H 0.33907 0.4833 0.37916 0.0
H547 H 0.33227 0.45359 0.41384 0.0
H548 H 0.29965 0.48406 0.40648 0.0
H549 H 0.45155 0.52733 0.49845 0.0
H550 H 0.44721 0.48627 0.48411 0.0
H551 H 0.45819 0.51678 0.45145 0.0
H552 H 0.4342 0.39488 0.42815 0.0
H553 H 0.45712 0.46591 0.34572 0.0
H554 H 0.36247 0.43466 0.46863 0.0
H555 H 0.40276 0.44335 0.49325 0.0
H556 H 0.39457 0.4037 0.47573 0.0
H557 H 0.39018 0.51954 0.36849 0.0
H558 H 0.43199 0.51647 0.34545 0.0
H559 H 0.43047 0.53155 0.39134 0.0
C560 C 0.8596 0.93958 0.97218 0.0
C561 C 0.82321 0.93944 0.9799 0.0
C562 C 0.87574 0.96509 0.95326 0.0
C563 C 0.85487 0.99092 0.94106 0.0
C564 C 0.81767 0.9899 0.94645 0.0
C565 C 0.80224 0.96417 0.96602 0.0
C566 C 0.91549 0.96512 0.94804 0.0
C567 C 0.79445 0.01665 0.9331 0.0
C568 C 0.90793 0.06871 0.93346 0.0
C569 C 0.91803 0.06829 0.89678 0.0
C570 C 0.8857 0.04449 0.94785 0.0
C571 C 0.87277 0.01965 0.92483 0.0
C572 C 0.88078 0.02048 0.8872 0.0
C573 C 0.90361 0.04461 0.8737 0.0
C574 C 0.87804 0.04432 0.98822 0.0
C575 C 0.86686 0.99492 0.86157 0.0
H576 H 0.87579 0.92019 0.98227 0.0
H577 H 0.77413 0.96425 0.972 0.0
H578 H 0.92184 0.96835 0.91875 0.0
H579 H 0.92801 0.98547 0.96301 0.0
H580 H 0.92765 0.94265 0.95801 0.0
H581 H 0.76574 0.01022 0.93488 0.0
H582 H 0.79976 0.03824 0.94986 0.0
H583 H 0.80065 0.02305 0.90439 0.0
H584 H 0.91899 0.08694 0.95142 0.0
H585 H 0.91094 0.04445 0.84517 0.0
H586 H 0.89147 0.02385 1.00155 0.0
H587 H 0.84913 0.04113 0.99284 0.0
H588 H 0.88739 0.0667 1.00172 0.0
H589 H 0.88091 0.97231 0.8671 0.0
H590 H 0.87081 1.00167 0.83247 0.0
H591 H 0.83814 0.99013 0.86601 0.0
C592 C 0.14844 0.08098 0.46524 0.0
C593 C 0.18433 0.08072 0.47601 0.0
C594 C 0.13267 0.05515 0.44638 0.0
C595 C 0.15321 0.02824 0.43811 0.0
C596 C 0.18997 0.0286 0.44708 0.0
C597 C 0.20512 0.05489 0.46586 0.0
C598 C 0.09351 0.056 0.43702 0.0
C599 C 0.21283 1.00046 0.43872 0.0
C600 C 0.10007 0.95003 0.43294 0.0
C601 C 0.09472 0.94645 0.39516 0.0
C602 C 0.12018 0.97585 0.44711 0.0
C603 C 0.13538 0.99885 0.42302 0.0
C604 C 0.13134 0.99472 0.38483 0.0
C605 C 0.11114 0.96858 0.37136 0.0
C606 C 0.12402 0.97916 0.48802 0.0
C607 C 0.14712 0.01863 0.35821 0.0
H608 H 0.13235 0.10103 0.47273 0.0
H609 H 0.23279 0.0544 0.47439 0.0
H610 H 0.08894 0.05014 0.40782 0.0
H611 H 0.07899 0.03769 0.45345 0.0
H612 H 0.08202 0.07971 0.44245 0.0
H613 H 0.24152 0.00591 0.44349 0.0
H614 H 0.20498 0.97988 0.45636 0.0
H615 H 0.20883 0.99294 0.40996 0.0
H616 H 0.08777 0.93303 0.45162 0.0
H617 H 0.10731 0.96609 0.34213 0.0
H618 H 0.11027 1.00089 0.49699 0.0
H619 H 0.15245 0.9821 0.49588 0.0
H620 H 0.11269 0.95818 0.50295 0.0
H621 H 0.13356 0.04178 0.36072 0.0
H622 H 0.14445 0.01052 0.32948 0.0
H623 H 0.17567 0.02306 0.36462 0.0
C624 C 0.18904 0.96838 0.95813 0.0
C625 C 0.17271 0.93977 0.97008 0.0
C626 C 0.1693 0.99222 0.94044 0.0
C627 C 0.13235 0.98732 0.93453 0.0
C628 C 0.11598 0.95803 0.94537 0.0
C629 C 0.13633 0.93465 0.96305 0.0
C630 C 0.18771 0.02315 0.92941 0.0
C631 C 0.07669 0.9518 0.9394 0.0
C632 C 0.07217 0.05893 0.93 0.0
C633 C 0.06484 0.06159 0.89242 0.0
C634 C 0.09466 0.03531 0.94386 0.0
C635 C 0.11025 0.01366 0.91962 0.0
C636 C 0.10374 0.01663 0.88157 0.0
C637 C 0.08117 0.04062 0.86839 0.0
C638 C 0.10112 0.03313 0.9846 0.0
C639 C 0.11992 0.99399 0.8549 0.0
H640 H 0.21705 0.97267 0.96382 0.0
H641 H 0.12367 0.91242 0.9718 0.0
H642 H 0.1816 0.02896 0.90043 0.0
H643 H 0.17776 0.04298 0.94613 0.0
H644 H 0.217 0.02218 0.93309 0.0
H645 H 0.06851 0.92701 0.94711 0.0
H646 H 0.06136 0.96868 0.95591 0.0
H647 H 0.06936 0.95597 0.91033 0.0
H648 H 0.05996 0.07514 0.9488 0.0
H649 H 0.07573 0.04248 0.83932 0.0
H650 H 0.13005 0.03426 0.99076 0.0
H651 H 0.09079 0.00984 0.99511 0.0
H652 H 0.08814 0.05259 0.9996 0.0
H653 H 0.1492 0.99385 0.85865 0.0
H654 H 0.11367 1.00044 0.82606 0.0
H655 H 0.10985 0.96929 0.86021 0.0
C656 C 0.87817 0.05471 0.48001 0.0
C657 C 0.84107 0.0514 0.48208 0.0
C658 C 0.8985 0.03132 0.46351 0.0
C659 C 0.88131 1.00422 0.44789 0.0
C660 C 0.84387 1.00096 0.44911 0.0
C661 C 0.8242 0.02444 0.46649 0.0
C662 C 0.93845 0.03553 0.46303 0.0
C663 C 0.82462 0.9726 0.43222 0.0
C664 C 0.93656 0.96087 0.37891 0.0
C665 C 0.94995 0.93567 0.40009 0.0
C666 C 0.91282 0.98254 0.39364 0.0
C667 C 0.90283 0.97926 0.43063 0.0
C668 C 0.91547 0.95332 0.45184 0.0
C669 C 0.93862 0.93163 0.43618 0.0
C670 C 0.89929 0.0095 0.36995 0.0
C671 C 0.90584 0.94932 0.49154 0.0
H672 H 0.89144 0.07575 0.49121 0.0
H673 H 0.79563 0.02141 0.4683 0.0
H674 H 0.95111 0.01473 0.4765 0.0
H675 H 0.94781 0.03652 0.43445 0.0
H676 H 0.94773 0.05765 0.47713 0.0
H677 H 0.7953 0.9743 0.43411 0.0
H678 H 0.83175 0.97062 0.40303 0.0
H679 H 0.83295 0.95024 0.44607 0.0
H680 H 0.94495 0.96386 0.35086 0.0
H681 H 0.94899 0.91224 0.45271 0.0
H682 H 0.9103 0.03263 0.38004 0.0
H683 H 0.86993 0.01058 0.37145 0.0
H684 H 0.90681 0.00689 0.34091 0.0
H685 H 0.91685 0.96984 0.50736 0.0
H686 H 0.91624 0.92689 0.50365 0.0
H687 H 0.87659 0.94923 0.49463 0.0
C688 C 0.3777 0.36463 0.07488 0.0
C689 C 0.34081 0.36882 0.07519 0.0
C690 C 0.39716 0.3601 0.10737 0.0
C691 C 0.37926 0.35898 0.14112 0.0
C692 C 0.34173 0.36076 0.14145 0.0
C693 C 0.32295 0.36589 0.10851 0.0
C694 C 0.43715 0.35841 0.1057 0.0
C695 C 0.32158 0.35891 0.17678 0.0
C696 C 0.43495 0.33007 0.22189 0.0
C697 C 0.44672 0.35908 0.23732 0.0
C698 C 0.41155 0.32954 0.19164 0.0
C699 C 0.40026 0.35872 0.17596 0.0
C700 C 0.41126 0.38804 0.19208 0.0
C701 C 0.43404 0.38784 0.22276 0.0
C702 C 0.39974 0.29778 0.17584 0.0
C703 C 0.40024 0.41972 0.17595 0.0
H704 H 0.39164 0.36612 0.04919 0.0
H705 H 0.29451 0.36924 0.10916 0.0
H706 H 0.44936 0.37952 0.11952 0.0
H707 H 0.44656 0.33682 0.12036 0.0
H708 H 0.44683 0.35787 0.07719 0.0
H709 H 0.29248 0.35606 0.17204 0.0
H710 H 0.33085 0.33862 0.19385 0.0
H711 H 0.3266 0.38111 0.19255 0.0
H712 H 0.44435 0.30772 0.23324 0.0
H713 H 0.44305 0.41037 0.23443 0.0
H714 H 0.41184 0.29475 0.14867 0.0
H715 H 0.37048 0.29696 0.1718 0.0
H716 H 0.4075 0.27736 0.1936 0.0
H717 H 0.41096 0.42243 0.14799 0.0
H718 H 0.40989 0.44031 0.19257 0.0
H719 H 0.37088 0.42061 0.17361 0.0
C720 C 0.68342 0.65172 0.59873 0.0
C721 C 0.67843 0.62351 0.57852 0.0
C722 C 0.66449 0.65685 0.63095 0.0
C723 C 0.63918 0.63366 0.64286 0.0
C724 C 0.63385 0.60525 0.62262 0.0
C725 C 0.65389 0.60029 0.5912 0.0
C726 C 0.6715 0.68715 0.65221 0.0
C727 C 0.60668 0.58013 0.63397 0.0
C728 C 0.60626 0.62957 0.7407 0.0
C729 C 0.57392 0.64542 0.73763 0.0
C730 C 0.62855 0.62679 0.71043 0.0
C731 C 0.61764 0.63921 0.67604 0.0
C732 C 0.58511 0.65547 0.67294 0.0
C733 C 0.56391 0.65878 0.70388 0.0
C734 C 0.66348 0.61006 0.71512 0.0
C735 C 0.57195 0.66824 0.63662 0.0
H736 H 0.70188 0.67005 0.58921 0.0
H737 H 0.65039 0.57796 0.57673 0.0
H738 H 0.6472 0.70168 0.6524 0.0
H739 H 0.67824 0.68124 0.68104 0.0
H740 H 0.69352 0.70191 0.64056 0.0
H741 H 0.6049 0.55986 0.61458 0.0
H742 H 0.61352 0.57061 0.66146 0.0
H743 H 0.5801 0.59094 0.63576 0.0
H744 H 0.6141 0.61934 0.76682 0.0
H745 H 0.53869 0.67069 0.70128 0.0
H746 H 0.68543 0.62524 0.70412 0.0
H747 H 0.66281 0.58749 0.69943 0.0
H748 H 0.66951 0.60432 0.74419 0.0
H749 H 0.59201 0.68491 0.62468 0.0
H750 H 0.54648 0.68095 0.63899 0.0
H751 H 0.568 0.64821 0.61721 0.0
C752 C 0.65702 0.36784 0.07356 0.0
C753 C 0.69283 0.37775 0.07411 0.0
C754 C 0.63927 0.36 0.10599 0.0
C755 C 0.65772 0.36228 0.13986 0.0
C756 C 0.69459 0.36985 0.1403 0.0
C757 C 0.71174 0.37744 0.10736 0.0
C758 C 0.60008 0.35166 0.10415 0.0
C759 C 0.7153 0.37246 0.17574 0.0
C760 C 0.60043 0.38849 0.21816 0.0
C761 C 0.59301 0.35953 0.23639 0.0
C762 C 0.62239 0.38973 0.18754 0.0
C763 C 0.63737 0.36128 0.17455 0.0
C764 C 0.63109 0.3321 0.19353 0.0
C765 C 0.60904 0.33157 0.22432 0.0
C766 C 0.62862 0.42144 0.16837 0.0
C767 C 0.6466 0.3013 0.18057 0.0
H768 H 0.64241 0.36774 0.04783 0.0
H769 H 0.73937 0.38529 0.10796 0.0
H770 H 0.59399 0.33036 0.12138 0.0
H771 H 0.58477 0.37182 0.11494 0.0
H772 H 0.59077 0.34683 0.07578 0.0
H773 H 0.74443 0.37343 0.17126 0.0
H774 H 0.70779 0.39456 0.19001 0.0
H775 H 0.70892 0.35195 0.19408 0.0
H776 H 0.58853 0.41029 0.22745 0.0
H777 H 0.6035 0.30907 0.23821 0.0
H778 H 0.61701 0.42051 0.14038 0.0
H779 H 0.65752 0.42645 0.16571 0.0
H780 H 0.61664 0.4416 0.18307 0.0
H781 H 0.63425 0.29461 0.15396 0.0
H782 H 0.64214 0.2813 0.20024 0.0
H783 H 0.67556 0.3044 0.17615 0.0
C784 C 0.35241 0.6541 0.57758 0.0
C785 C 0.33217 0.62593 0.57289 0.0
C786 C 0.36828 0.66135 0.61154 0.0
C787 C 0.36327 0.6401 0.64145 0.0
C788 C 0.34008 0.61321 0.63755 0.0
C789 C 0.32513 0.60623 0.60316 0.0
C790 C 0.39309 0.69006 0.61433 0.0
C791 C 0.33343 0.59029 0.66889 0.0
C792 C 0.44137 0.62708 0.70565 0.0
C793 C 0.43242 0.64507 0.7362 0.0
C794 C 0.41933 0.62587 0.67462 0.0
C795 C 0.387 0.64255 0.67421 0.0
C796 C 0.37764 0.66076 0.70497 0.0
C797 C 0.40074 0.66212 0.73555 0.0
C798 C 0.43077 0.60665 0.64219 0.0
C799 C 0.34311 0.67836 0.70573 0.0
H800 H 0.35805 0.6692 0.55407 0.0
H801 H 0.30928 0.58453 0.59949 0.0
H802 H 0.38883 0.70316 0.64005 0.0
H803 H 0.42096 0.68192 0.61476 0.0
H804 H 0.38967 0.70681 0.59091 0.0
H805 H 0.31022 0.57412 0.66342 0.0
H806 H 0.35717 0.57541 0.67338 0.0
H807 H 0.32884 0.60349 0.69449 0.0
H808 H 0.46608 0.61423 0.70573 0.0
H809 H 0.39374 0.67602 0.75915 0.0
H810 H 0.43148 0.62199 0.61734 0.0
H811 H 0.4113 0.58689 0.63695 0.0
H812 H 0.45742 0.5962 0.64638 0.0
H813 H 0.34148 0.69524 0.68228 0.0
H814 H 0.34002 0.69193 0.7314 0.0
H815 H 0.32048 0.6611 0.7029 0.0
C816 C 0.81983 0.87856 0.13292 0.0
C817 C 0.83601 0.8814 0.0987 0.0
C818 C 0.84024 0.87428 0.16491 0.0
C819 C 0.87771 0.87331 0.16264 0.0
C820 C 0.89411 0.87535 0.12814 0.0
C821 C 0.87306 0.87903 0.09662 0.0
C822 C 0.82182 0.87168 0.20121 0.0
C823 C 0.93402 0.87462 0.12457 0.0
C824 C 0.93554 0.89955 0.24286 0.0
C825 C 0.94869 0.87031 0.25558 0.0
C826 C 0.91165 0.90075 0.21322 0.0
C827 C 0.90012 0.87199 0.19631 0.0
C828 C 0.91202 0.8423 0.21006 0.0
C829 C 0.93645 0.84183 0.23935 0.0
C830 C 0.89995 0.93292 0.19904 0.0
C831 C 0.89971 0.81111 0.19319 0.0
H832 H 0.79128 0.88059 0.13487 0.0
H833 H 0.88574 0.8804 0.07024 0.0
H834 H 0.83115 0.85044 0.21663 0.0
H835 H 0.82856 0.89301 0.21791 0.0
H836 H 0.79247 0.86984 0.19801 0.0
H837 H 0.94253 0.87579 0.09566 0.0
H838 H 0.94641 0.89513 0.13937 0.0
H839 H 0.94442 0.85247 0.13722 0.0
H840 H 0.9449 0.92168 0.25522 0.0
H841 H 0.94623 0.81914 0.24934 0.0
H842 H 0.87054 0.93373 0.19774 0.0
H843 H 0.90975 0.93672 0.17085 0.0
H844 H 0.91003 0.95294 0.21631 0.0
H845 H 0.8703 0.81012 0.19086 0.0
H846 H 0.90864 0.79007 0.2093 0.0
H847 H 0.91029 0.80936 0.16517 0.0
C848 C 0.13636 0.14321 0.59286 0.0
C849 C 0.17293 0.13754 0.59461 0.0
C850 C 0.11653 0.14653 0.62477 0.0
C851 C 0.1336 0.14393 0.65935 0.0
C852 C 0.17068 0.13904 0.6613 0.0
C853 C 0.18991 0.13597 0.62892 0.0
C854 C 0.07708 0.15193 0.62147 0.0
C855 C 0.18983 0.13588 0.69759 0.0
C856 C 0.08313 0.17226 0.74228 0.0
C857 C 0.06704 0.14363 0.75451 0.0
C858 C 0.10548 0.17273 0.71175 0.0
C859 C 0.11211 0.14386 0.69327 0.0
C860 C 0.09697 0.11479 0.70634 0.0
C861 C 0.07461 0.11504 0.73665 0.0
C862 C 0.1211 0.20421 0.69858 0.0
C863 C 0.10363 0.08342 0.68773 0.0
H864 H 0.12319 0.14488 0.56643 0.0
H865 H 0.21809 0.13127 0.6305 0.0
H866 H 0.06227 0.13101 0.63288 0.0
H867 H 0.06977 0.17312 0.63752 0.0
H868 H 0.06828 0.15556 0.59268 0.0
H869 H 0.21908 0.13459 0.69449 0.0
H870 H 0.18393 0.15643 0.71531 0.0
H871 H 0.1803 0.1139 0.71188 0.0
H872 H 0.07741 0.19446 0.75585 0.0
H873 H 0.06262 0.09273 0.74608 0.0
H874 H 0.11029 0.20988 0.671 0.0
H875 H 0.15034 0.20259 0.69612 0.0
H876 H 0.11513 0.2242 0.71714 0.0
H877 H 0.0926 0.08404 0.65949 0.0
H878 H 0.09138 0.06272 0.70243 0.0
H879 H 0.13259 0.07956 0.68572 0.0
C880 C 0.14867 0.86206 0.08511 0.0
C881 C 0.18438 0.87184 0.08216 0.0
C882 C 0.13274 0.8581 0.11934 0.0
C883 C 0.15299 0.8641 0.15153 0.0
C884 C 0.18963 0.87204 0.1488 0.0
C885 C 0.20492 0.87579 0.11413 0.0
C886 C 0.09368 0.84932 0.12094 0.0
C887 C 0.21219 0.87853 0.18241 0.0
C888 C 0.09935 0.89459 0.23067 0.0
C889 C 0.09396 0.86682 0.25182 0.0
C890 C 0.11954 0.89419 0.19874 0.0
C891 C 0.13483 0.8653 0.18748 0.0
C892 C 0.13075 0.83746 0.20942 0.0
C893 C 0.11041 0.83854 0.24135 0.0
C894 C 0.1234 0.92451 0.17632 0.0
C895 C 0.14673 0.80624 0.19845 0.0
H896 H 0.13278 0.85861 0.06048 0.0
H897 H 0.23245 0.88363 0.11208 0.0
H898 H 0.08919 0.82918 0.14033 0.0
H899 H 0.07876 0.86997 0.13106 0.0
H900 H 0.08256 0.84247 0.09379 0.0
H901 H 0.24094 0.88023 0.17604 0.0
H902 H 0.20427 0.90141 0.19472 0.0
H903 H 0.20798 0.85946 0.20322 0.0
H904 H 0.08704 0.91663 0.23857 0.0
H905 H 0.10653 0.81694 0.25748 0.0
H906 H 0.11003 0.92125 0.14938 0.0
H907 H 0.15187 0.92995 0.17116 0.0
H908 H 0.11171 0.94539 0.18991 0.0
H909 H 0.13331 0.79735 0.17324 0.0
H910 H 0.14405 0.7876 0.22008 0.0
H911 H 0.17529 0.80977 0.19218 0.0
C912 C 0.80869 0.13178 0.61536 0.0
C913 C 0.83004 0.12858 0.58454 0.0
C914 C 0.82395 0.13853 0.6498 0.0
C915 C 0.86136 0.14164 0.65345 0.0
C916 C 0.88271 0.1407 0.62197 0.0
C917 C 0.86674 0.13459 0.58791 0.0
C918 C 0.80021 0.14031 0.68255 0.0
C919 C 0.92272 0.14378 0.62455 0.0
C920 C 0.91141 0.17069 0.73808 0.0
C921 C 0.92155 0.14165 0.75419 0.0
C922 C 0.88978 0.1712 0.70649 0.0
C923 C 0.87879 0.142 0.6902 0.0
C924 C 0.8877 0.11267 0.70725 0.0
C925 C 0.90862 0.11287 0.73922 0.0
C926 C 0.87999 0.20295 0.68974 0.0
C927 C 0.87691 0.08095 0.69058 0.0
H928 H 0.78031 0.12721 0.61302 0.0
H929 H 0.88328 0.13294 0.56402 0.0
H930 H 0.80234 0.11798 0.69892 0.0
H931 H 0.8086 0.16047 0.70041 0.0
H932 H 0.77192 0.14325 0.67445 0.0
H933 H 0.93524 0.14476 0.59725 0.0
H934 H 0.93075 0.16563 0.63975 0.0
H935 H 0.93337 0.123 0.63987 0.0
H936 H 0.92096 0.19305 0.74976 0.0
H937 H 0.91629 0.09032 0.75146 0.0
H938 H 0.85141 0.20293 0.68191 0.0
H939 H 0.89543 0.20715 0.66451 0.0
H940 H 0.88559 0.22312 0.70865 0.0
H941 H 0.84781 0.07983 0.68552 0.0
H942 H 0.8843 0.06036 0.70825 0.0
H943 H 0.88999 0.07843 0.6638 0.0
loop_
_geom_bond_atom_site_label_1
_geom_bond_atom_site_label_2
_geom_bond_distance
_geom_bond_site_symmetry_2
_ccdc_geom_bond_type
H0 C3 0.929 . S
H1 C6 0.929 . S
H2 C8 0.930 . S
C3 H0 0.929 . S
C3 C4 1.398 . S
C3 C5 1.396 1_554 S
C4 C3 1.398 . S
C4 C8 1.407 . S
C5 C3 1.396 1_556 S
C5 C6 1.394 . S
C6 H1 0.929 . S
C6 C5 1.394 . S
C6 C7 1.382 1_556 S
C7 C6 1.382 1_554 S
C7 C8 1.392 . S
C7 N9 1.420 1_554 S
C8 H2 0.930 . S
C8 C4 1.407 . S
C8 C7 1.392 . S
N9 C7 1.420 1_556 S
N9 C10 1.244 . S
C10 N9 1.244 . S
H11 C14 0.929 . S
H12 C17 0.929 . S
H13 C19 0.930 . S
C14 H11 0.929 . S
C14 C15 1.398 . S
C14 C16 1.396 . S
C15 C14 1.398 . S
C15 C19 1.407 . S
C16 C14 1.396 . S
C16 C17 1.394 . S
C17 H12 0.929 . S
C17 C16 1.394 . S
C17 C18 1.382 . S
C18 C17 1.382 . S
C18 C19 1.392 . S
C18 N20 1.420 . S
C19 H13 0.930 . S
C19 C15 1.407 . S
C19 C18 1.392 . S
N20 C18 1.420 . S
N20 C21 1.244 . S
C21 N20 1.244 . S
H22 C25 0.929 . S
H23 C28 0.929 . S
H24 C30 0.930 . S
C25 H22 0.929 . S
C25 C26 1.398 . S
C25 C27 1.396 1_554 S
C26 C25 1.398 . S
C26 C30 1.407 . S
C27 C25 1.396 1_556 S
C27 C28 1.394 . S
C28 H23 0.929 . S
C28 C27 1.394 . S
C28 C29 1.382 1_556 S
C29 C28 1.382 1_554 S
C29 C30 1.392 . S
C29 N31 1.420 . S
C30 H24 0.930 . S
C30 C26 1.407 . S
C30 C29 1.392 . S
N31 C29 1.420 . S
N31 C32 1.244 1_554 S
C32 N31 1.244 1_556 S
H33 C36 0.929 . S
H34 C39 0.929 . S
H35 C41 0.930 . S
C36 H33 0.929 . S
C36 C37 1.398 . S
C36 C38 1.396 . S
C37 C36 1.398 . S
C37 C41 1.407 . S
C38 C36 1.396 . S
C38 C39 1.394 . S
C39 H34 0.929 . S
C39 C38 1.394 . S
C39 C40 1.382 . S
C40 C39 1.382 . S
C40 C41 1.392 . S
C40 N42 1.420 . S
C41 H35 0.930 . S
C41 C37 1.407 . S
C41 C40 1.392 . S
N42 C40 1.420 . S
N42 C43 1.244 . S
C43 N42 1.244 . S
H44 C47 0.929 . S
H45 C50 0.929 . S
H46 C52 0.930 . S
C47 H44 0.929 . S
C47 C48 1.398 . S
C47 C49 1.396 1_554 S
C48 C47 1.398 . S
C48 C52 1.407 . S
C49 C47 1.396 1_556 S
C49 C50 1.394 . S
C50 H45 0.929 . S
C50 C49 1.394 . S
C50 C51 1.382 1_556 S
C51 C50 1.382 1_554 S
C51 C52 1.392 . S
C51 N53 1.420 1_554 S
C52 H46 0.930 . S
C52 C48 1.407 . S
C52 C51 1.392 . S
N53 C51 1.420 1_556 S
N53 C54 1.244 . S
C54 N53 1.244 . S
H55 C58 0.929 . S
H56 C61 0.929 . S
H57 C63 0.930 . S
C58 H55 0.929 . S
C58 C59 1.398 . S
C58 C60 1.396 . S
C59 C58 1.398 . S
C59 C63 1.407 . S
C60 C58 1.396 . S
C60 C61 1.394 . S
C61 H56 0.929 . S
C61 C60 1.394 . S
C61 C62 1.382 . S
C62 C61 1.382 . S
C62 C63 1.392 . S
C62 N64 1.420 . S
C63 H57 0.930 . S
C63 C59 1.407 . S
C63 C62 1.392 . S
N64 C62 1.420 . S
N64 C65 1.244 . S
C65 N64 1.244 . S
H66 C69 0.929 . S
H67 C72 0.929 . S
H68 C74 0.930 . S
C69 H66 0.929 . S
C69 C70 1.398 . S
C69 C71 1.396 1_554 S
C70 C69 1.398 . S
C70 C74 1.407 . S
C71 C69 1.396 1_556 S
C71 C72 1.394 . S
C72 H67 0.929 . S
C72 C71 1.394 . S
C72 C73 1.382 1_556 S
C73 C72 1.382 1_554 S
C73 C74 1.392 . S
C73 N75 1.420 . S
C74 H68 0.930 . S
C74 C70 1.407 . S
C74 C73 1.392 . S
N75 C73 1.420 . S
N75 C76 1.244 1_554 S
C76 N75 1.244 1_556 S
H77 C80 0.929 . S
H78 C83 0.929 . S
H79 C85 0.930 . S
C80 H77 0.929 . S
C80 C81 1.398 . S
C80 C82 1.396 . S
C81 C80 1.398 . S
C81 C85 1.407 . S
C82 C80 1.396 . S
C82 C83 1.394 . S
C83 H78 0.929 . S
C83 C82 1.394 . S
C83 C84 1.382 . S
C84 C83 1.382 . S
C84 C85 1.392 . S
C84 N86 1.420 . S
C85 H79 0.930 . S
C85 C81 1.407 . S
C85 C84 1.392 . S
N86 C84 1.420 . S
N86 C87 1.244 . S
C87 N86 1.244 . S
Fe88 O90 1.918 . S
Fe88 O93 1.997 1_455 S
Fe88 O94 2.002 1_455 S
Fe88 O99 1.976 . S
Fe88 O102 1.996 . S
Fe89 O90 1.918 . S
Fe89 O97 1.997 1_455 S
Fe89 O100 1.996 . S
Fe89 O104 1.976 . S
Fe89 O107 2.002 1_455 S
O90 Fe88 1.918 . S
O90 Fe89 1.918 . S
O90 Fe91 1.918 . S
Fe91 O90 1.918 . S
Fe91 O92 2.002 1_455 S
Fe91 O101 1.976 . S
Fe91 O105 1.996 . S
Fe91 O108 1.997 1_455 S
O92 Fe91 2.002 1_655 S
O92 C109 1.295 . S
O93 Fe88 1.997 1_655 S
O93 C109 1.235 . S
O94 Fe88 2.002 1_655 S
O94 C95 1.295 . S
C95 O94 1.295 . S
C95 O97 1.235 . S
C96 O101 1.287 . S
C96 O102 1.255 . S
O97 Fe89 1.997 1_655 S
O97 C95 1.235 . S
C98 O104 1.287 . S
C98 O105 1.255 . S
O99 Fe88 1.976 . S
O99 C106 1.287 . S
O100 Fe89 1.996 . S
O100 C106 1.255 . S
O101 Fe91 1.976 . S
O101 C96 1.287 . S
O102 Fe88 1.996 . S
O102 C96 1.255 . S
C103 O107 1.295 . S
C103 O108 1.235 . S
O104 Fe89 1.976 . S
O104 C98 1.287 . S
O105 Fe91 1.996 . S
O105 C98 1.255 . S
C106 O99 1.287 . S
C106 O100 1.255 . S
O107 Fe89 2.002 1_655 S
O107 C103 1.295 . S
O108 Fe91 1.997 1_655 S
O108 C103 1.235 . S
C109 O92 1.295 . S
C109 O93 1.235 . S
Fe110 O112 1.918 1_455 S
Fe110 O115 2.007 . S
Fe110 O116 2.013 . S
Fe110 O121 1.966 1_455 S
Fe110 O124 1.986 1_455 S
Fe111 O112 1.918 . S
Fe111 O119 1.997 1_655 S
Fe111 O122 1.995 . S
Fe111 O126 1.975 . S
Fe111 O129 2.003 1_655 S
O112 Fe110 1.918 1_655 S
O112 Fe111 1.918 . S
O112 Fe113 1.918 1_655 S
Fe113 O112 1.918 1_455 S
Fe113 O114 2.008 . S
Fe113 O123 1.970 1_455 S
Fe113 O127 1.990 1_455 S
Fe113 O130 2.002 . S
O114 Fe113 2.008 . S
O114 C131 1.295 . S
O115 Fe110 2.007 . S
O115 C131 1.235 . S
O116 Fe110 2.013 . S
O116 C117 1.295 . S
C117 O116 1.295 . S
C117 O119 1.235 . S
C118 O123 1.287 . S
C118 O124 1.255 . S
O119 Fe111 1.997 1_455 S
O119 C117 1.235 . S
C120 O126 1.287 . S
C120 O127 1.255 . S
O121 Fe110 1.966 1_655 S
O121 C128 1.287 . S
O122 Fe111 1.995 . S
O122 C128 1.255 . S
O123 Fe113 1.970 1_655 S
O123 C118 1.287 . S
O124 Fe110 1.986 1_655 S
O124 C118 1.255 . S
C125 O129 1.295 . S
C125 O130 1.235 . S
O126 Fe111 1.975 . S
O126 C120 1.287 . S
O127 Fe113 1.990 1_655 S
O127 C120 1.255 . S
C128 O121 1.287 . S
C128 O122 1.255 . S
O129 Fe111 2.003 1_455 S
O129 C125 1.295 . S
O130 Fe113 2.002 . S
O130 C125 1.235 . S
C131 O114 1.295 . S
C131 O115 1.235 . S
Fe132 O134 1.918 . S
Fe132 O137 1.997 . S
Fe132 O138 2.002 . S
Fe132 O143 1.976 . S
Fe132 O146 1.996 . S
Fe133 O134 1.918 . S
Fe133 O141 1.997 . S
Fe133 O144 1.996 . S
Fe133 O148 1.976 . S
Fe133 O151 2.002 . S
O134 Fe132 1.918 . S
O134 Fe133 1.918 . S
O134 Fe135 1.918 . S
Fe135 O134 1.918 . S
Fe135 O136 2.002 . S
Fe135 O145 1.976 . S
Fe135 O149 1.996 . S
Fe135 O152 1.997 . S
O136 Fe135 2.002 . S
O136 C153 1.295 . S
O137 Fe132 1.997 . S
O137 C153 1.235 . S
O138 Fe132 2.002 . S
O138 C139 1.295 . S
C139 O138 1.295 . S
C139 O141 1.235 . S
C140 O145 1.287 . S
C140 O146 1.255 . S
O141 Fe133 1.997 . S
O141 C139 1.235 . S
C142 O148 1.287 . S
C142 O149 1.255 . S
O143 Fe132 1.976 . S
O143 C150 1.287 . S
O144 Fe133 1.996 . S
O144 C150 1.255 . S
O145 Fe135 1.976 . S
O145 C140 1.287 . S
O146 Fe132 1.996 . S
O146 C140 1.255 . S
C147 O151 1.295 . S
C147 O152 1.235 . S
O148 Fe133 1.976 . S
O148 C142 1.287 . S
O149 Fe135 1.996 . S
O149 C142 1.255 . S
C150 O143 1.287 . S
C150 O144 1.255 . S
O151 Fe133 2.002 . S
O151 C147 1.295 . S
O152 Fe135 1.997 . S
O152 C147 1.235 . S
C153 O136 1.295 . S
C153 O137 1.235 . S
Fe154 O156 1.918 . S
Fe154 O159 1.997 . S
Fe154 O160 2.002 . S
Fe154 O165 1.976 . S
Fe154 O168 1.996 . S
Fe155 O156 1.918 . S
Fe155 O163 1.997 . S
Fe155 O166 1.996 . S
Fe155 O170 1.976 . S
Fe155 O173 2.002 . S
O156 Fe154 1.918 . S
O156 Fe155 1.918 . S
O156 Fe157 1.918 . S
Fe157 O156 1.918 . S
Fe157 O158 2.002 . S
Fe157 O167 1.976 . S
Fe157 O171 1.996 . S
Fe157 O174 1.997 . S
O158 Fe157 2.002 . S
O158 C175 1.295 . S
O159 Fe154 1.997 . S
O159 C175 1.235 . S
O160 Fe154 2.002 . S
O160 C161 1.295 . S
C161 O160 1.295 . S
C161 O163 1.235 . S
C162 O167 1.287 . S
C162 O168 1.255 . S
O163 Fe155 1.997 . S
O163 C161 1.235 . S
C164 O170 1.287 . S
C164 O171 1.255 . S
O165 Fe154 1.976 . S
O165 C172 1.287 . S
O166 Fe155 1.996 . S
O166 C172 1.255 . S
O167 Fe157 1.976 . S
O167 C162 1.287 . S
O168 Fe154 1.996 . S
O168 C162 1.255 . S
C169 O173 1.295 . S
C169 O174 1.235 . S
O170 Fe155 1.976 . S
O170 C164 1.287 . S
O171 Fe157 1.996 . S
O171 C164 1.255 . S
C172 O165 1.287 . S
C172 O166 1.255 . S
O173 Fe155 2.002 . S
O173 C169 1.295 . S
O174 Fe157 1.997 . S
O174 C169 1.235 . S
C175 O158 1.295 . S
C175 O159 1.235 . S
C176 C177 1.391 . S
C176 C178 1.394 . S
C176 H192 0.931 . S
C177 C176 1.391 . S
C177 C181 1.376 . S
C178 C176 1.394 . S
C178 C179 1.369 . S
C178 C182 1.531 . S
C179 C178 1.369 . S
C179 C180 1.410 . S
C179 C187 1.503 . S
C180 C179 1.410 . S
C180 C181 1.392 . S
C180 C183 1.511 . S
C181 C177 1.376 . S
C181 C180 1.392 . S
C181 H193 0.929 1_556 S
C182 C178 1.531 . S
C182 H194 0.960 . S
C182 H195 0.962 . S
C182 H196 0.960 . S
C183 C180 1.511 . S
C183 H197 0.961 1_556 S
C183 H198 0.961 . S
C183 H199 0.957 1_556 S
C184 C185 1.370 . S
C184 C186 1.363 . S
C184 H200 0.931 . S
C185 C184 1.370 . S
C185 C189 1.408 . S
C186 C184 1.363 . S
C186 C187 1.370 . S
C186 C190 1.524 . S
C187 C179 1.503 . S
C187 C186 1.370 . S
C187 C188 1.403 . S
C188 C187 1.403 . S
C188 C189 1.404 . S
C188 C191 1.539 . S
C189 C185 1.408 . S
C189 C188 1.404 . S
C189 H201 0.930 . S
C190 C186 1.524 . S
C190 H202 0.956 . S
C190 H203 0.961 . S
C190 H204 0.961 . S
C191 C188 1.539 . S
C191 H205 0.958 . S
C191 H206 0.961 . S
C191 H207 0.960 . S
H192 C176 0.931 . S
H193 C181 0.929 1_554 S
H194 C182 0.960 . S
H195 C182 0.962 . S
H196 C182 0.960 . S
H197 C183 0.961 1_554 S
H198 C183 0.961 . S
H199 C183 0.957 1_554 S
H200 C184 0.931 . S
H201 C189 0.930 . S
H202 C190 0.956 . S
H203 C190 0.961 . S
H204 C190 0.961 . S
H205 C191 0.958 . S
H206 C191 0.961 . S
H207 C191 0.960 . S
C208 C209 1.391 . S
C208 C210 1.394 . S
C208 H224 0.931 . S
C209 C208 1.391 . S
C209 C213 1.376 . S
C210 C208 1.394 . S
C210 C211 1.369 . S
C210 C214 1.531 . S
C211 C210 1.369 . S
C211 C212 1.410 . S
C211 C219 1.503 . S
C212 C211 1.410 . S
C212 C213 1.392 . S
C212 C215 1.511 . S
C213 C209 1.376 . S
C213 C212 1.392 . S
C213 H225 0.929 . S
C214 C210 1.531 . S
C214 H226 0.960 . S
C214 H227 0.962 . S
C214 H228 0.960 . S
C215 C212 1.511 . S
C215 H229 0.961 . S
C215 H230 0.961 . S
C215 H231 0.961 . S
C216 C217 1.370 . S
C216 C218 1.363 . S
C216 H232 0.931 . S
C217 C216 1.370 . S
C217 C221 1.408 . S
C218 C216 1.363 . S
C218 C219 1.370 . S
C218 C222 1.524 . S
C219 C211 1.503 . S
C219 C218 1.370 . S
C219 C220 1.403 . S
C220 C219 1.403 . S
C220 C221 1.404 . S
C220 C223 1.539 . S
C221 C217 1.408 . S
C221 C220 1.404 . S
C221 H233 0.930 . S
C222 C218 1.524 . S
C222 H234 0.956 . S
C222 H235 0.961 . S
C222 H236 0.961 . S
C223 C220 1.539 . S
C223 H237 0.958 . S
C223 H238 0.961 . S
C223 H239 0.960 . S
H224 C208 0.931 . S
H225 C213 0.929 . S
H226 C214 0.960 . S
H227 C214 0.962 . S
H228 C214 0.960 . S
H229 C215 0.961 . S
H230 C215 0.961 . S
H231 C215 0.961 . S
H232 C216 0.931 . S
H233 C221 0.930 . S
H234 C222 0.956 . S
H235 C222 0.961 . S
H236 C222 0.961 . S
H237 C223 0.958 . S
H238 C223 0.961 . S
H239 C223 0.960 . S
C240 C241 1.391 . S
C240 C242 1.394 . S
C240 H256 0.931 . S
C241 C240 1.391 . S
C241 C245 1.376 . S
C242 C240 1.394 . S
C242 C243 1.369 . S
C242 C246 1.531 . S
C243 C242 1.369 . S
C243 C244 1.410 . S
C243 C251 1.503 . S
C244 C243 1.410 . S
C244 C245 1.392 . S
C244 C247 1.511 . S
C245 C241 1.376 . S
C245 C244 1.392 . S
C245 H257 0.929 1_556 S
C246 C242 1.531 . S
C246 H258 0.960 . S
C246 H259 0.962 . S
C246 H260 0.960 . S
C247 C244 1.511 . S
C247 H261 0.961 1_556 S
C247 H262 0.961 . S
C247 H263 0.961 1_556 S
C248 C249 1.370 . S
C248 C250 1.363 . S
C248 H264 0.931 . S
C249 C248 1.370 . S
C249 C253 1.408 . S
C250 C248 1.363 . S
C250 C251 1.370 . S
C250 C254 1.524 . S
C251 C243 1.503 . S
C251 C250 1.370 . S
C251 C252 1.403 . S
C252 C251 1.403 . S
C252 C253 1.404 . S
C252 C255 1.539 . S
C253 C249 1.408 . S
C253 C252 1.404 . S
C253 H265 0.930 . S
C254 C250 1.524 . S
C254 H266 0.956 . S
C254 H267 0.961 . S
C254 H268 0.961 . S
C255 C252 1.539 . S
C255 H269 0.958 . S
C255 H270 0.961 . S
C255 H271 0.960 . S
H256 C240 0.931 . S
H257 C245 0.929 1_554 S
H258 C246 0.960 . S
H259 C246 0.962 . S
H260 C246 0.960 . S
H261 C247 0.961 1_554 S
H262 C247 0.961 . S
H263 C247 0.961 1_554 S
H264 C248 0.931 . S
H265 C253 0.930 . S
H266 C254 0.956 . S
H267 C254 0.961 . S
H268 C254 0.961 . S
H269 C255 0.958 . S
H270 C255 0.961 . S
H271 C255 0.960 . S
C272 C273 1.391 . S
C272 C274 1.394 . S
C272 H288 0.931 . S
C273 C272 1.391 . S
C273 C277 1.376 . S
C274 C272 1.394 . S
C274 C275 1.369 . S
C274 C278 1.531 . S
C275 C274 1.369 . S
C275 C276 1.410 . S
C275 C283 1.503 . S
C276 C275 1.410 . S
C276 C277 1.392 . S
C276 C279 1.511 . S
C277 C273 1.376 . S
C277 C276 1.392 . S
C277 H289 0.929 . S
C278 C274 1.531 . S
C278 H290 0.960 . S
C278 H291 0.962 . S
C278 H292 0.960 . S
C279 C276 1.511 . S
C279 H293 0.961 . S
C279 H294 0.961 . S
C279 H295 0.961 . S
C280 C281 1.370 . S
C280 C282 1.363 . S
C280 H296 0.931 . S
C281 C280 1.370 . S
C281 C285 1.408 . S
C282 C280 1.363 . S
C282 C283 1.370 . S
C282 C286 1.524 . S
C283 C275 1.503 . S
C283 C282 1.370 . S
C283 C284 1.403 . S
C284 C283 1.403 . S
C284 C285 1.404 . S
C284 C287 1.539 . S
C285 C281 1.408 . S
C285 C284 1.404 . S
C285 H297 0.930 . S
C286 C282 1.524 . S
C286 H298 0.956 . S
C286 H299 0.961 . S
C286 H300 0.961 . S
C287 C284 1.539 . S
C287 H301 0.958 . S
C287 H302 0.961 . S
C287 H303 0.960 . S
H288 C272 0.931 . S
H289 C277 0.929 . S
H290 C278 0.960 . S
H291 C278 0.962 . S
H292 C278 0.960 . S
H293 C279 0.961 . S
H294 C279 0.961 . S
H295 C279 0.961 . S
H296 C280 0.931 . S
H297 C285 0.930 . S
H298 C286 0.956 . S
H299 C286 0.961 . S
H300 C286 0.961 . S
H301 C287 0.958 . S
H302 C287 0.961 . S
H303 C287 0.960 . S
C304 C305 1.391 . S
C304 C306 1.394 . S
C304 H320 0.931 . S
C305 C304 1.391 . S
C305 C309 1.376 . S
C306 C304 1.394 . S
C306 C307 1.369 . S
C306 C310 1.531 . S
C307 C306 1.369 . S
C307 C308 1.410 . S
C307 C315 1.503 . S
C308 C307 1.410 . S
C308 C309 1.392 . S
C308 C311 1.511 . S
C309 C305 1.376 . S
C309 C308 1.392 . S
C309 H321 0.929 . S
C310 C306 1.531 . S
C310 H322 0.960 . S
C310 H323 0.962 . S
C310 H324 0.960 . S
C311 C308 1.511 . S
C311 H325 0.961 . S
C311 H326 0.961 . S
C311 H327 0.961 . S
C312 C313 1.370 . S
C312 C314 1.363 . S
C312 H328 0.931 . S
C313 C312 1.370 . S
C313 C317 1.408 . S
C314 C312 1.363 . S
C314 C315 1.370 . S
C314 C318 1.524 . S
C315 C307 1.503 . S
C315 C314 1.370 . S
C315 C316 1.403 . S
C316 C315 1.403 . S
C316 C317 1.404 . S
C316 C319 1.539 . S
C317 C313 1.408 . S
C317 C316 1.404 . S
C317 H329 0.930 . S
C318 C314 1.524 . S
C318 H330 0.956 . S
C318 H331 0.961 . S
C318 H332 0.961 . S
C319 C316 1.539 . S
C319 H333 0.958 . S
C319 H334 0.961 . S
C319 H335 0.960 . S
H320 C304 0.931 . S
H321 C309 0.929 . S
H322 C310 0.960 . S
H323 C310 0.962 . S
H324 C310 0.960 . S
H325 C311 0.961 . S
H326 C311 0.961 . S
H327 C311 0.961 . S
H328 C312 0.931 . S
H329 C317 0.930 . S
H330 C318 0.956 . S
H331 C318 0.961 . S
H332 C318 0.961 . S
H333 C319 0.958 . S
H334 C319 0.961 . S
H335 C319 0.960 . S
C336 C337 1.391 . S
C336 C338 1.394 . S
C336 H352 0.931 . S
C337 C336 1.391 . S
C337 C341 1.376 . S
C338 C336 1.394 . S
C338 C339 1.369 . S
C338 C342 1.531 . S
C339 C338 1.369 . S
C339 C340 1.410 . S
C339 C347 1.503 . S
C340 C339 1.410 . S
C340 C341 1.392 . S
C340 C343 1.511 . S
C341 C337 1.376 . S
C341 C340 1.392 . S
C341 H353 0.929 . S
C342 C338 1.531 . S
C342 H354 0.960 . S
C342 H355 0.962 . S
C342 H356 0.960 . S
C343 C340 1.511 . S
C343 H357 0.961 . S
C343 H358 0.961 . S
C343 H359 0.961 . S
C344 C345 1.370 . S
C344 C346 1.363 . S
C344 H360 0.931 . S
C345 C344 1.370 . S
C345 C349 1.408 . S
C346 C344 1.363 . S
C346 C347 1.370 . S
C346 C350 1.524 . S
C347 C339 1.503 . S
C347 C346 1.370 . S
C347 C348 1.403 . S
C348 C347 1.403 . S
C348 C349 1.404 . S
C348 C351 1.539 . S
C349 C345 1.408 . S
C349 C348 1.404 . S
C349 H361 0.930 . S
C350 C346 1.524 . S
C350 H362 0.956 . S
C350 H363 0.961 . S
C350 H364 0.961 . S
C351 C348 1.539 . S
C351 H365 0.958 . S
C351 H366 0.961 . S
C351 H367 0.960 . S
H352 C336 0.931 . S
H353 C341 0.929 . S
H354 C342 0.960 . S
H355 C342 0.962 . S
H356 C342 0.960 . S
H357 C343 0.961 . S
H358 C343 0.961 . S
H359 C343 0.961 . S
H360 C344 0.931 . S
H361 C349 0.930 . S
H362 C350 0.956 . S
H363 C350 0.961 . S
H364 C350 0.961 . S
H365 C351 0.958 . S
H366 C351 0.961 . S
H367 C351 0.960 . S
C368 C369 1.391 . S
C368 C370 1.394 . S
C368 H384 0.931 1_556 S
C369 C368 1.391 . S
C369 C373 1.376 . S
C370 C368 1.394 . S
C370 C371 1.369 . S
C370 C374 1.531 . S
C371 C370 1.369 . S
C371 C372 1.410 . S
C371 C379 1.503 . S
C372 C371 1.410 . S
C372 C373 1.392 . S
C372 C375 1.511 . S
C373 C369 1.376 . S
C373 C372 1.392 . S
C373 H385 0.929 . S
C374 C370 1.531 . S
C374 H386 0.960 . S
C374 H387 0.962 . S
C374 H388 0.960 1_556 S
C375 C372 1.511 . S
C375 H389 0.961 . S
C375 H390 0.961 . S
C375 H391 0.961 . S
C376 C377 1.370 . S
C376 C378 1.363 . S
C376 H392 0.931 . S
C377 C376 1.370 . S
C377 C381 1.408 . S
C378 C376 1.363 . S
C378 C379 1.370 . S
C378 C382 1.524 . S
C379 C371 1.503 . S
C379 C378 1.370 . S
C379 C380 1.403 . S
C380 C379 1.403 . S
C380 C381 1.404 . S
C380 C383 1.539 . S
C381 C377 1.408 . S
C381 C380 1.404 . S
C381 H393 0.930 . S
C382 C378 1.524 . S
C382 H394 0.956 . S
C382 H395 0.961 . S
C382 H396 0.961 . S
C383 C380 1.539 . S
C383 H397 0.958 . S
C383 H398 0.961 . S
C383 H399 0.960 . S
H384 C368 0.931 1_554 S
H385 C373 0.929 . S
H386 C374 0.960 . S
H387 C374 0.962 . S
H388 C374 0.960 1_554 S
H389 C375 0.961 . S
H390 C375 0.961 . S
H391 C375 0.961 . S
H392 C376 0.931 . S
H393 C381 0.930 . S
H394 C382 0.956 . S
H395 C382 0.961 . S
H396 C382 0.961 . S
H397 C383 0.958 . S
H398 C383 0.961 . S
H399 C383 0.960 . S
C400 C401 1.391 . S
C400 C402 1.394 . S
C400 H416 0.931 . S
C401 C400 1.391 . S
C401 C405 1.376 . S
C402 C400 1.394 . S
C402 C403 1.369 . S
C402 C406 1.531 . S
C403 C402 1.369 . S
C403 C404 1.410 . S
C403 C411 1.503 . S
C404 C403 1.410 . S
C404 C405 1.392 . S
C404 C407 1.511 . S
C405 C401 1.376 . S
C405 C404 1.392 . S
C405 H417 0.929 . S
C406 C402 1.531 . S
C406 H418 0.960 . S
C406 H419 0.962 . S
C406 H420 0.960 . S
C407 C404 1.511 . S
C407 H421 0.961 . S
C407 H422 0.961 . S
C407 H423 0.961 . S
C408 C409 1.370 . S
C408 C410 1.363 . S
C408 H424 0.931 . S
C409 C408 1.370 . S
C409 C413 1.408 . S
C410 C408 1.363 . S
C410 C411 1.370 . S
C410 C414 1.524 . S
C411 C403 1.503 . S
C411 C410 1.370 . S
C411 C412 1.403 . S
C412 C411 1.403 . S
C412 C413 1.404 . S
C412 C415 1.539 . S
C413 C409 1.408 . S
C413 C412 1.404 . S
C413 H425 0.930 . S
C414 C410 1.524 . S
C414 H426 0.956 . S
C414 H427 0.961 . S
C414 H428 0.961 . S
C415 C412 1.539 . S
C415 H429 0.958 . S
C415 H430 0.961 . S
C415 H431 0.960 . S
H416 C400 0.931 . S
H417 C405 0.929 . S
H418 C406 0.960 . S
H419 C406 0.962 . S
H420 C406 0.960 . S
H421 C407 0.961 . S
H422 C407 0.961 . S
H423 C407 0.961 . S
H424 C408 0.931 . S
H425 C413 0.930 . S
H426 C414 0.956 . S
H427 C414 0.961 . S
H428 C414 0.961 . S
H429 C415 0.958 . S
H430 C415 0.961 . S
H431 C415 0.960 . S
C432 C433 1.391 . S
C432 C434 1.394 . S
C432 H448 0.931 . S
C433 C432 1.391 . S
C433 C437 1.376 . S
C434 C432 1.394 . S
C434 C435 1.369 . S
C434 C438 1.531 . S
C435 C434 1.369 . S
C435 C436 1.410 . S
C435 C443 1.503 . S
C436 C435 1.410 . S
C436 C437 1.392 . S
C436 C439 1.511 . S
C437 C433 1.376 . S
C437 C436 1.392 . S
C437 H449 0.929 . S
C438 C434 1.531 . S
C438 H450 0.960 . S
C438 H451 0.962 . S
C438 H452 0.960 . S
C439 C436 1.511 . S
C439 H453 0.961 . S
C439 H454 0.961 . S
C439 H455 0.961 . S
C440 C441 1.370 . S
C440 C442 1.363 . S
C440 H456 0.931 . S
C441 C440 1.370 . S
C441 C445 1.408 . S
C442 C440 1.363 . S
C442 C443 1.370 . S
C442 C446 1.524 . S
C443 C435 1.503 . S
C443 C442 1.370 . S
C443 C444 1.403 . S
C444 C443 1.403 . S
C444 C445 1.404 . S
C444 C447 1.539 . S
C445 C441 1.408 . S
C445 C444 1.404 . S
C445 H457 0.930 . S
C446 C442 1.524 . S
C446 H458 0.956 . S
C446 H459 0.961 . S
C446 H460 0.961 . S
C447 C444 1.539 . S
C447 H461 0.958 . S
C447 H462 0.961 . S
C447 H463 0.960 . S
H448 C432 0.931 . S
H449 C437 0.929 . S
H450 C438 0.960 . S
H451 C438 0.962 . S
H452 C438 0.960 . S
H453 C439 0.961 . S
H454 C439 0.961 . S
H455 C439 0.961 . S
H456 C440 0.931 . S
H457 C445 0.930 . S
H458 C446 0.956 . S
H459 C446 0.961 . S
H460 C446 0.961 . S
H461 C447 0.958 . S
H462 C447 0.961 . S
H463 C447 0.960 . S
C464 C465 1.391 . S
C464 C466 1.394 . S
C464 H480 0.931 . S
C465 C464 1.391 . S
C465 C469 1.376 . S
C466 C464 1.394 . S
C466 C467 1.369 . S
C466 C470 1.531 . S
C467 C466 1.369 . S
C467 C468 1.410 . S
C467 C475 1.503 . S
C468 C467 1.410 . S
C468 C469 1.392 . S
C468 C471 1.511 . S
C469 C465 1.376 . S
C469 C468 1.392 . S
C469 H481 0.929 . S
C470 C466 1.531 . S
C470 H482 0.960 . S
C470 H483 0.962 . S
C470 H484 0.960 . S
C471 C468 1.511 . S
C471 H485 0.961 . S
C471 H486 0.961 . S
C471 H487 0.961 . S
C472 C473 1.370 . S
C472 C474 1.363 . S
C472 H488 0.931 . S
C473 C472 1.370 . S
C473 C477 1.408 . S
C474 C472 1.363 . S
C474 C475 1.370 . S
C474 C478 1.524 . S
C475 C467 1.503 . S
C475 C474 1.370 . S
C475 C476 1.403 . S
C476 C475 1.403 . S
C476 C477 1.404 . S
C476 C479 1.539 . S
C477 C473 1.408 . S
C477 C476 1.404 . S
C477 H489 0.930 . S
C478 C474 1.524 . S
C478 H490 0.956 . S
C478 H491 0.961 . S
C478 H492 0.961 . S
C479 C476 1.539 . S
C479 H493 0.958 . S
C479 H494 0.961 . S
C479 H495 0.960 . S
H480 C464 0.931 . S
H481 C469 0.929 . S
H482 C470 0.960 . S
H483 C470 0.962 . S
H484 C470 0.960 . S
H485 C471 0.961 . S
H486 C471 0.961 . S
H487 C471 0.961 . S
H488 C472 0.931 . S
H489 C477 0.930 . S
H490 C478 0.956 . S
H491 C478 0.961 . S
H492 C478 0.961 . S
H493 C479 0.958 . S
H494 C479 0.961 . S
H495 C479 0.960 . S
C496 C497 1.391 . S
C496 C498 1.394 . S
C496 H512 0.931 . S
C497 C496 1.391 . S
C497 C501 1.376 . S
C498 C496 1.394 . S
C498 C499 1.369 . S
C498 C502 1.531 . S
C499 C498 1.369 . S
C499 C500 1.410 . S
C499 C507 1.503 . S
C500 C499 1.410 . S
C500 C501 1.392 . S
C500 C503 1.511 . S
C501 C497 1.376 . S
C501 C500 1.392 . S
C501 H513 0.929 1_556 S
C502 C498 1.531 . S
C502 H514 0.960 . S
C502 H515 0.962 . S
C502 H516 0.960 . S
C503 C500 1.511 . S
C503 H517 0.961 1_556 S
C503 H518 0.961 . S
C503 H519 0.961 . S
C504 C505 1.370 . S
C504 C506 1.363 . S
C504 H520 0.931 . S
C505 C504 1.370 . S
C505 C509 1.408 . S
C506 C504 1.363 . S
C506 C507 1.370 . S
C506 C510 1.524 . S
C507 C499 1.503 . S
C507 C506 1.370 . S
C507 C508 1.403 . S
C508 C507 1.403 . S
C508 C509 1.404 . S
C508 C511 1.539 . S
C509 C505 1.408 . S
C509 C508 1.404 . S
C509 H521 0.930 . S
C510 C506 1.524 . S
C510 H522 0.956 . S
C510 H523 0.961 . S
C510 H524 0.961 . S
C511 C508 1.539 . S
C511 H525 0.958 . S
C511 H526 0.961 . S
C511 H527 0.960 . S
H512 C496 0.931 . S
H513 C501 0.929 1_554 S
H514 C502 0.960 . S
H515 C502 0.962 . S
H516 C502 0.960 . S
H517 C503 0.961 1_554 S
H518 C503 0.961 . S
H519 C503 0.961 . S
H520 C504 0.931 . S
H521 C509 0.930 . S
H522 C510 0.956 . S
H523 C510 0.961 . S
H524 C510 0.961 . S
H525 C511 0.958 . S
H526 C511 0.961 . S
H527 C511 0.960 . S
C528 C529 1.391 . S
C528 C530 1.394 . S
C528 H544 0.931 . S
C529 C528 1.391 . S
C529 C533 1.376 . S
C530 C528 1.394 . S
C530 C531 1.369 . S
C530 C534 1.531 . S
C531 C530 1.369 . S
C531 C532 1.410 . S
C531 C539 1.503 . S
C532 C531 1.410 . S
C532 C533 1.392 . S
C532 C535 1.511 . S
C533 C529 1.376 . S
C533 C532 1.392 . S
C533 H545 0.929 . S
C534 C530 1.531 . S
C534 H546 0.960 . S
C534 H547 0.962 . S
C534 H548 0.960 . S
C535 C532 1.511 . S
C535 H549 0.961 . S
C535 H550 0.961 . S
C535 H551 0.961 . S
C536 C537 1.370 . S
C536 C538 1.363 . S
C536 H552 0.931 . S
C537 C536 1.370 . S
C537 C541 1.408 . S
C538 C536 1.363 . S
C538 C539 1.370 . S
C538 C542 1.524 . S
C539 C531 1.503 . S
C539 C538 1.370 . S
C539 C540 1.403 . S
C540 C539 1.403 . S
C540 C541 1.404 . S
C540 C543 1.539 . S
C541 C537 1.408 . S
C541 C540 1.404 . S
C541 H553 0.930 . S
C542 C538 1.524 . S
C542 H554 0.956 . S
C542 H555 0.961 . S
C542 H556 0.961 . S
C543 C540 1.539 . S
C543 H557 0.958 . S
C543 H558 0.961 . S
C543 H559 0.960 . S
H544 C528 0.931 . S
H545 C533 0.929 . S
H546 C534 0.960 . S
H547 C534 0.962 . S
H548 C534 0.960 . S
H549 C535 0.961 . S
H550 C535 0.961 . S
H551 C535 0.961 . S
H552 C536 0.931 . S
H553 C541 0.930 . S
H554 C542 0.956 . S
H555 C542 0.961 . S
H556 C542 0.961 . S
H557 C543 0.958 . S
H558 C543 0.961 . S
H559 C543 0.960 . S
C560 C561 1.391 . S
C560 C562 1.394 . S
C560 H576 0.931 . S
C561 C560 1.391 . S
C561 C565 1.376 . S
C562 C560 1.394 . S
C562 C563 1.369 . S
C562 C566 1.531 . S
C563 C562 1.369 . S
C563 C564 1.410 . S
C563 C571 1.519 . S
C564 C563 1.410 . S
C564 C565 1.392 . S
C564 C567 1.511 1_565 S
C565 C561 1.376 . S
C565 C564 1.392 . S
C565 H577 0.929 . S
C566 C562 1.531 . S
C566 H578 0.960 . S
C566 H579 0.962 . S
C566 H580 0.960 . S
C567 C564 1.511 1_545 S
C567 H581 0.961 . S
C567 H582 0.961 . S
C567 H583 0.961 1_545 S
C568 C569 1.370 . S
C568 C570 1.363 . S
C568 H584 0.931 . S
C569 C568 1.370 . S
C569 C573 1.408 . S
C570 C568 1.363 . S
C570 C571 1.352 1_545 S
C570 C574 1.524 . S
C571 C563 1.519 . S
C571 C570 1.352 1_565 S
C571 C572 1.406 . S
C572 C571 1.406 . S
C572 C573 1.404 1_565 S
C572 C575 1.539 . S
C573 C569 1.408 . S
C573 C572 1.404 1_545 S
C573 H585 0.930 . S
C574 C570 1.524 . S
C574 H586 0.956 . S
C574 H587 0.961 . S
C574 H588 0.961 . S
C575 C572 1.539 . S
C575 H589 0.958 . S
C575 H590 0.961 . S
C575 H591 0.960 . S
H576 C560 0.931 . S
H577 C565 0.929 . S
H578 C566 0.960 . S
H579 C566 0.962 . S
H580 C566 0.960 . S
H581 C567 0.961 . S
H582 C567 0.961 . S
H583 C567 0.961 1_565 S
H584 C568 0.931 . S
H585 C573 0.930 . S
H586 C574 0.956 . S
H587 C574 0.961 . S
H588 C574 0.961 . S
H589 C575 0.958 . S
H590 C575 0.961 . S
H591 C575 0.960 . S
C592 C593 1.391 . S
C592 C594 1.394 . S
C592 H608 0.931 . S
C593 C592 1.391 . S
C593 C597 1.376 . S
C594 C592 1.394 . S
C594 C595 1.369 . S
C594 C598 1.531 . S
C595 C594 1.369 . S
C595 C596 1.410 . S
C595 C603 1.503 1_545 S
C596 C595 1.410 . S
C596 C597 1.392 . S
C596 C599 1.511 1_545 S
C597 C593 1.376 . S
C597 C596 1.392 . S
C597 H609 0.929 . S
C598 C594 1.531 . S
C598 H610 0.960 . S
C598 H611 0.962 . S
C598 H612 0.960 . S
C599 C596 1.511 1_565 S
C599 H613 0.961 . S
C599 H614 0.961 . S
C599 H615 0.961 . S
C600 C601 1.370 . S
C600 C602 1.363 . S
C600 H616 0.931 . S
C601 C600 1.370 . S
C601 C605 1.408 . S
C602 C600 1.363 . S
C602 C603 1.370 . S
C602 C606 1.524 . S
C603 C595 1.503 1_565 S
C603 C602 1.370 . S
C603 C604 1.403 . S
C604 C603 1.403 . S
C604 C605 1.404 . S
C604 C607 1.539 1_565 S
C605 C601 1.408 . S
C605 C604 1.404 . S
C605 H617 0.930 . S
C606 C602 1.524 . S
C606 H618 0.956 1_565 S
C606 H619 0.961 . S
C606 H620 0.961 . S
C607 C604 1.539 1_545 S
C607 H621 0.958 . S
C607 H622 0.961 1_545 S
C607 H623 0.960 . S
H608 C592 0.931 . S
H609 C597 0.929 . S
H610 C598 0.960 . S
H611 C598 0.962 . S
H612 C598 0.960 . S
H613 C599 0.961 . S
H614 C599 0.961 . S
H615 C599 0.961 . S
H616 C600 0.931 . S
H617 C605 0.930 . S
H618 C606 0.956 1_545 S
H619 C606 0.961 . S
H620 C606 0.961 . S
H621 C607 0.958 . S
H622 C607 0.961 1_565 S
H623 C607 0.960 . S
C624 C625 1.391 . S
C624 C626 1.394 . S
C624 H640 0.931 . S
C625 C624 1.391 . S
C625 C629 1.376 . S
C626 C624 1.394 . S
C626 C627 1.369 . S
C626 C630 1.531 1_565 S
C627 C626 1.369 . S
C627 C628 1.410 . S
C627 C635 1.503 1_565 S
C628 C627 1.410 . S
C628 C629 1.392 . S
C628 C631 1.511 . S
C629 C625 1.376 . S
C629 C628 1.392 . S
C629 H641 0.929 . S
C630 C626 1.531 1_545 S
C630 H642 0.960 . S
C630 H643 0.962 . S
C630 H644 0.960 . S
C631 C628 1.511 . S
C631 H645 0.961 . S
C631 H646 0.961 . S
C631 H647 0.961 . S
C632 C633 1.370 . S
C632 C634 1.363 . S
C632 H648 0.931 . S
C633 C632 1.370 . S
C633 C637 1.408 . S
C634 C632 1.363 . S
C634 C635 1.370 . S
C634 C638 1.524 . S
C635 C627 1.503 1_545 S
C635 C634 1.370 . S
C635 C636 1.403 . S
C636 C635 1.403 . S
C636 C637 1.404 . S
C636 C639 1.539 . S
C637 C633 1.408 . S
C637 C636 1.404 . S
C637 H649 0.930 . S
C638 C634 1.524 . S
C638 H650 0.956 . S
C638 H651 0.961 1_545 S
C638 H652 0.961 . S
C639 C636 1.539 . S
C639 H653 0.958 . S
C639 H654 0.961 . S
C639 H655 0.960 1_545 S
H640 C624 0.931 . S
H641 C629 0.929 . S
H642 C630 0.960 . S
H643 C630 0.962 . S
H644 C630 0.960 . S
H645 C631 0.961 . S
H646 C631 0.961 . S
H647 C631 0.961 . S
H648 C632 0.931 . S
H649 C637 0.930 . S
H650 C638 0.956 . S
H651 C638 0.961 1_565 S
H652 C638 0.961 . S
H653 C639 0.958 . S
H654 C639 0.961 . S
H655 C639 0.960 1_565 S
C656 C657 1.391 . S
C656 C658 1.394 . S
C656 H672 0.931 . S
C657 C656 1.391 . S
C657 C661 1.376 . S
C658 C656 1.394 . S
C658 C659 1.369 . S
C658 C662 1.531 . S
C659 C658 1.369 . S
C659 C660 1.409 1_545 S
C659 C667 1.503 1_545 S
C660 C659 1.409 1_565 S
C660 C661 1.392 1_565 S
C660 C663 1.512 . S
C661 C657 1.376 . S
C661 C660 1.392 1_545 S
C661 H673 0.929 . S
C662 C658 1.531 . S
C662 H674 0.960 . S
C662 H675 0.962 . S
C662 H676 0.960 . S
C663 C660 1.512 . S
C663 H677 0.961 . S
C663 H678 0.961 . S
C663 H679 0.961 . S
C664 C665 1.370 . S
C664 C666 1.363 . S
C664 H680 0.931 . S
C665 C664 1.370 . S
C665 C669 1.408 . S
C666 C664 1.363 . S
C666 C667 1.370 . S
C666 C670 1.524 . S
C667 C659 1.503 1_565 S
C667 C666 1.370 . S
C667 C668 1.403 . S
C668 C667 1.403 . S
C668 C669 1.404 . S
C668 C671 1.539 . S
C669 C665 1.408 . S
C669 C668 1.404 . S
C669 H681 0.930 . S
C670 C666 1.524 . S
C670 H682 0.956 1_565 S
C670 H683 0.961 . S
C670 H684 0.961 . S
C671 C668 1.539 . S
C671 H685 0.958 1_565 S
C671 H686 0.961 . S
C671 H687 0.960 . S
H672 C656 0.931 . S
H673 C661 0.929 . S
H674 C662 0.960 . S
H675 C662 0.962 . S
H676 C662 0.960 . S
H677 C663 0.961 . S
H678 C663 0.961 . S
H679 C663 0.961 . S
H680 C664 0.931 . S
H681 C669 0.930 . S
H682 C670 0.956 1_545 S
H683 C670 0.961 . S
H684 C670 0.961 . S
H685 C671 0.958 1_545 S
H686 C671 0.961 . S
H687 C671 0.960 . S
C688 C689 1.391 . S
C688 C690 1.394 . S
C688 H704 0.931 . S
C689 C688 1.391 . S
C689 C693 1.376 . S
C690 C688 1.394 . S
C690 C691 1.369 . S
C690 C694 1.531 . S
C691 C690 1.369 . S
C691 C692 1.410 . S
C691 C699 1.503 . S
C692 C691 1.410 . S
C692 C693 1.392 . S
C692 C695 1.511 . S
C693 C689 1.376 . S
C693 C692 1.392 . S
C693 H705 0.929 . S
C694 C690 1.531 . S
C694 H706 0.960 . S
C694 H707 0.962 . S
C694 H708 0.960 . S
C695 C692 1.511 . S
C695 H709 0.961 . S
C695 H710 0.961 . S
C695 H711 0.961 . S
C696 C697 1.370 . S
C696 C698 1.363 . S
C696 H712 0.931 . S
C697 C696 1.370 . S
C697 C701 1.408 . S
C698 C696 1.363 . S
C698 C699 1.370 . S
C698 C702 1.524 . S
C699 C691 1.503 . S
C699 C698 1.370 . S
C699 C700 1.403 . S
C700 C699 1.403 . S
C700 C701 1.404 . S
C700 C703 1.539 . S
C701 C697 1.408 . S
C701 C700 1.404 . S
C701 H713 0.930 . S
C702 C698 1.524 . S
C702 H714 0.956 . S
C702 H715 0.961 . S
C702 H716 0.961 . S
C703 C700 1.539 . S
C703 H717 0.958 . S
C703 H718 0.961 . S
C703 H719 0.960 . S
H704 C688 0.931 . S
H705 C693 0.929 . S
H706 C694 0.960 . S
H707 C694 0.962 . S
H708 C694 0.960 . S
H709 C695 0.961 . S
H710 C695 0.961 . S
H711 C695 0.961 . S
H712 C696 0.931 . S
H713 C701 0.930 . S
H714 C702 0.956 . S
H715 C702 0.961 . S
H716 C702 0.961 . S
H717 C703 0.958 . S
H718 C703 0.961 . S
H719 C703 0.960 . S
C720 C721 1.391 . S
C720 C722 1.394 . S
C720 H736 0.931 . S
C721 C720 1.391 . S
C721 C725 1.376 . S
C722 C720 1.394 . S
C722 C723 1.369 . S
C722 C726 1.531 . S
C723 C722 1.369 . S
C723 C724 1.410 . S
C723 C731 1.503 . S
C724 C723 1.410 . S
C724 C725 1.392 . S
C724 C727 1.511 . S
C725 C721 1.376 . S
C725 C724 1.392 . S
C725 H737 0.929 . S
C726 C722 1.531 . S
C726 H738 0.960 . S
C726 H739 0.962 . S
C726 H740 0.960 . S
C727 C724 1.511 . S
C727 H741 0.961 . S
C727 H742 0.961 . S
C727 H743 0.961 . S
C728 C729 1.370 . S
C728 C730 1.363 . S
C728 H744 0.931 . S
C729 C728 1.370 . S
C729 C733 1.408 . S
C730 C728 1.363 . S
C730 C731 1.370 . S
C730 C734 1.524 . S
C731 C723 1.503 . S
C731 C730 1.370 . S
C731 C732 1.403 . S
C732 C731 1.403 . S
C732 C733 1.404 . S
C732 C735 1.539 . S
C733 C729 1.408 . S
C733 C732 1.404 . S
C733 H745 0.930 . S
C734 C730 1.524 . S
C734 H746 0.956 . S
C734 H747 0.961 . S
C734 H748 0.961 . S
C735 C732 1.539 . S
C735 H749 0.958 . S
C735 H750 0.961 . S
C735 H751 0.960 . S
H736 C720 0.931 . S
H737 C725 0.929 . S
H738 C726 0.960 . S
H739 C726 0.962 . S
H740 C726 0.960 . S
H741 C727 0.961 . S
H742 C727 0.961 . S
H743 C727 0.961 . S
H744 C728 0.931 . S
H745 C733 0.930 . S
H746 C734 0.956 . S
H747 C734 0.961 . S
H748 C734 0.961 . S
H749 C735 0.958 . S
H750 C735 0.961 . S
H751 C735 0.960 . S
C752 C753 1.391 . S
C752 C754 1.394 . S
C752 H768 0.931 . S
C753 C752 1.391 . S
C753 C757 1.376 . S
C754 C752 1.394 . S
C754 C755 1.369 . S
C754 C758 1.531 . S
C755 C754 1.369 . S
C755 C756 1.410 . S
C755 C763 1.503 . S
C756 C755 1.410 . S
C756 C757 1.392 . S
C756 C759 1.511 . S
C757 C753 1.376 . S
C757 C756 1.392 . S
C757 H769 0.929 . S
C758 C754 1.531 . S
C758 H770 0.960 . S
C758 H771 0.962 . S
C758 H772 0.960 . S
C759 C756 1.511 . S
C759 H773 0.961 . S
C759 H774 0.961 . S
C759 H775 0.961 . S
C760 C761 1.370 . S
C760 C762 1.363 . S
C760 H776 0.931 . S
C761 C760 1.370 . S
C761 C765 1.408 . S
C762 C760 1.363 . S
C762 C763 1.370 . S
C762 C766 1.524 . S
C763 C755 1.503 . S
C763 C762 1.370 . S
C763 C764 1.403 . S
C764 C763 1.403 . S
C764 C765 1.404 . S
C764 C767 1.539 . S
C765 C761 1.408 . S
C765 C764 1.404 . S
C765 H777 0.930 . S
C766 C762 1.524 . S
C766 H778 0.956 . S
C766 H779 0.961 . S
C766 H780 0.961 . S
C767 C764 1.539 . S
C767 H781 0.958 . S
C767 H782 0.961 . S
C767 H783 0.960 . S
H768 C752 0.931 . S
H769 C757 0.929 . S
H770 C758 0.960 . S
H771 C758 0.962 . S
H772 C758 0.960 . S
H773 C759 0.961 . S
H774 C759 0.961 . S
H775 C759 0.961 . S
H776 C760 0.931 . S
H777 C765 0.930 . S
H778 C766 0.956 . S
H779 C766 0.961 . S
H780 C766 0.961 . S
H781 C767 0.958 . S
H782 C767 0.961 . S
H783 C767 0.960 . S
C784 C785 1.391 . S
C784 C786 1.394 . S
C784 H800 0.931 . S
C785 C784 1.391 . S
C785 C789 1.376 . S
C786 C784 1.394 . S
C786 C787 1.369 . S
C786 C790 1.531 . S
C787 C786 1.369 . S
C787 C788 1.410 . S
C787 C795 1.503 . S
C788 C787 1.410 . S
C788 C789 1.392 . S
C788 C791 1.511 . S
C789 C785 1.376 . S
C789 C788 1.392 . S
C789 H801 0.929 . S
C790 C786 1.531 . S
C790 H802 0.960 . S
C790 H803 0.962 . S
C790 H804 0.960 . S
C791 C788 1.511 . S
C791 H805 0.961 . S
C791 H806 0.961 . S
C791 H807 0.961 . S
C792 C793 1.370 . S
C792 C794 1.363 . S
C792 H808 0.931 . S
C793 C792 1.370 . S
C793 C797 1.408 . S
C794 C792 1.363 . S
C794 C795 1.370 . S
C794 C798 1.524 . S
C795 C787 1.503 . S
C795 C794 1.370 . S
C795 C796 1.403 . S
C796 C795 1.403 . S
C796 C797 1.404 . S
C796 C799 1.539 . S
C797 C793 1.408 . S
C797 C796 1.404 . S
C797 H809 0.930 . S
C798 C794 1.524 . S
C798 H810 0.956 . S
C798 H811 0.961 . S
C798 H812 0.961 . S
C799 C796 1.539 . S
C799 H813 0.958 . S
C799 H814 0.961 . S
C799 H815 0.960 . S
H800 C784 0.931 . S
H801 C789 0.929 . S
H802 C790 0.960 . S
H803 C790 0.962 . S
H804 C790 0.960 . S
H805 C791 0.961 . S
H806 C791 0.961 . S
H807 C791 0.961 . S
H808 C792 0.931 . S
H809 C797 0.930 . S
H810 C798 0.956 . S
H811 C798 0.961 . S
H812 C798 0.961 . S
H813 C799 0.958 . S
H814 C799 0.961 . S
H815 C799 0.960 . S
C816 C817 1.391 . S
C816 C818 1.394 . S
C816 H832 0.931 . S
C817 C816 1.391 . S
C817 C821 1.376 . S
C818 C816 1.394 . S
C818 C819 1.369 . S
C818 C822 1.531 . S
C819 C818 1.369 . S
C819 C820 1.410 . S
C819 C827 1.503 . S
C820 C819 1.410 . S
C820 C821 1.392 . S
C820 C823 1.511 . S
C821 C817 1.376 . S
C821 C820 1.392 . S
C821 H833 0.929 . S
C822 C818 1.531 . S
C822 H834 0.960 . S
C822 H835 0.962 . S
C822 H836 0.960 . S
C823 C820 1.511 . S
C823 H837 0.961 . S
C823 H838 0.961 . S
C823 H839 0.961 . S
C824 C825 1.370 . S
C824 C826 1.363 . S
C824 H840 0.931 . S
C825 C824 1.370 . S
C825 C829 1.408 . S
C826 C824 1.363 . S
C826 C827 1.370 . S
C826 C830 1.524 . S
C827 C819 1.503 . S
C827 C826 1.370 . S
C827 C828 1.403 . S
C828 C827 1.403 . S
C828 C829 1.404 . S
C828 C831 1.539 . S
C829 C825 1.408 . S
C829 C828 1.404 . S
C829 H841 0.930 . S
C830 C826 1.524 . S
C830 H842 0.956 . S
C830 H843 0.961 . S
C830 H844 0.961 . S
C831 C828 1.539 . S
C831 H845 0.958 . S
C831 H846 0.961 . S
C831 H847 0.960 . S
H832 C816 0.931 . S
H833 C821 0.929 . S
H834 C822 0.960 . S
H835 C822 0.962 . S
H836 C822 0.960 . S
H837 C823 0.961 . S
H838 C823 0.961 . S
H839 C823 0.961 . S
H840 C824 0.931 . S
H841 C829 0.930 . S
H842 C830 0.956 . S
H843 C830 0.961 . S
H844 C830 0.961 . S
H845 C831 0.958 . S
H846 C831 0.961 . S
H847 C831 0.960 . S
C848 C849 1.391 . S
C848 C850 1.394 . S
C848 H864 0.931 . S
C849 C848 1.391 . S
C849 C853 1.376 . S
C850 C848 1.394 . S
C850 C851 1.369 . S
C850 C854 1.531 . S
C851 C850 1.369 . S
C851 C852 1.410 . S
C851 C859 1.503 . S
C852 C851 1.410 . S
C852 C853 1.392 . S
C852 C855 1.511 . S
C853 C849 1.376 . S
C853 C852 1.392 . S
C853 H865 0.929 . S
C854 C850 1.531 . S
C854 H866 0.960 . S
C854 H867 0.962 . S
C854 H868 0.960 . S
C855 C852 1.511 . S
C855 H869 0.961 . S
C855 H870 0.961 . S
C855 H871 0.961 . S
C856 C857 1.370 . S
C856 C858 1.363 . S
C856 H872 0.931 . S
C857 C856 1.370 . S
C857 C861 1.408 . S
C858 C856 1.363 . S
C858 C859 1.370 . S
C858 C862 1.524 . S
C859 C851 1.503 . S
C859 C858 1.370 . S
C859 C860 1.403 . S
C860 C859 1.403 . S
C860 C861 1.404 . S
C860 C863 1.539 . S
C861 C857 1.408 . S
C861 C860 1.404 . S
C861 H873 0.930 . S
C862 C858 1.524 . S
C862 H874 0.956 . S
C862 H875 0.961 . S
C862 H876 0.961 . S
C863 C860 1.539 . S
C863 H877 0.958 . S
C863 H878 0.961 . S
C863 H879 0.960 . S
H864 C848 0.931 . S
H865 C853 0.929 . S
H866 C854 0.960 . S
H867 C854 0.962 . S
H868 C854 0.960 . S
H869 C855 0.961 . S
H870 C855 0.961 . S
H871 C855 0.961 . S
H872 C856 0.931 . S
H873 C861 0.930 . S
H874 C862 0.956 . S
H875 C862 0.961 . S
H876 C862 0.961 . S
H877 C863 0.958 . S
H878 C863 0.961 . S
H879 C863 0.960 . S
C880 C881 1.391 . S
C880 C882 1.394 . S
C880 H896 0.931 . S
C881 C880 1.391 . S
C881 C885 1.376 . S
C882 C880 1.394 . S
C882 C883 1.369 . S
C882 C886 1.531 . S
C883 C882 1.369 . S
C883 C884 1.410 . S
C883 C891 1.503 . S
C884 C883 1.410 . S
C884 C885 1.392 . S
C884 C887 1.511 . S
C885 C881 1.376 . S
C885 C884 1.392 . S
C885 H897 0.929 . S
C886 C882 1.531 . S
C886 H898 0.960 . S
C886 H899 0.962 . S
C886 H900 0.960 . S
C887 C884 1.511 . S
C887 H901 0.961 . S
C887 H902 0.961 . S
C887 H903 0.961 . S
C888 C889 1.370 . S
C888 C890 1.363 . S
C888 H904 0.931 . S
C889 C888 1.370 . S
C889 C893 1.408 . S
C890 C888 1.363 . S
C890 C891 1.370 . S
C890 C894 1.524 . S
C891 C883 1.503 . S
C891 C890 1.370 . S
C891 C892 1.403 . S
C892 C891 1.403 . S
C892 C893 1.404 . S
C892 C895 1.539 . S
C893 C889 1.408 . S
C893 C892 1.404 . S
C893 H905 0.930 . S
C894 C890 1.524 . S
C894 H906 0.956 . S
C894 H907 0.961 . S
C894 H908 0.961 . S
C895 C892 1.539 . S
C895 H909 0.958 . S
C895 H910 0.961 . S
C895 H911 0.960 . S
H896 C880 0.931 . S
H897 C885 0.929 . S
H898 C886 0.960 . S
H899 C886 0.962 . S
H900 C886 0.960 . S
H901 C887 0.961 . S
H902 C887 0.961 . S
H903 C887 0.961 . S
H904 C888 0.931 . S
H905 C893 0.930 . S
H906 C894 0.956 . S
H907 C894 0.961 . S
H908 C894 0.961 . S
H909 C895 0.958 . S
H910 C895 0.961 . S
H911 C895 0.960 . S
C912 C913 1.391 . S
C912 C914 1.394 . S
C912 H928 0.931 . S
C913 C912 1.391 . S
C913 C917 1.376 . S
C914 C912 1.394 . S
C914 C915 1.369 . S
C914 C918 1.531 . S
C915 C914 1.369 . S
C915 C916 1.410 . S
C915 C923 1.503 . S
C916 C915 1.410 . S
C916 C917 1.392 . S
C916 C919 1.511 . S
C917 C913 1.376 . S
C917 C916 1.392 . S
C917 H929 0.929 . S
C918 C914 1.531 . S
C918 H930 0.960 . S
C918 H931 0.962 . S
C918 H932 0.960 . S
C919 C916 1.511 . S
C919 H933 0.961 . S
C919 H934 0.961 . S
C919 H935 0.961 . S
C920 C921 1.370 . S
C920 C922 1.363 . S
C920 H936 0.931 . S
C921 C920 1.370 . S
C921 C925 1.408 . S
C922 C920 1.363 . S
C922 C923 1.370 . S
C922 C926 1.524 . S
C923 C915 1.503 . S
C923 C922 1.370 . S
C923 C924 1.403 . S
C924 C923 1.403 . S
C924 C925 1.404 . S
C924 C927 1.539 . S
C925 C921 1.408 . S
C925 C924 1.404 . S
C925 H937 0.930 . S
C926 C922 1.524 . S
C926 H938 0.956 . S
C926 H939 0.961 . S
C926 H940 0.961 . S
C927 C924 1.539 . S
C927 H941 0.958 . S
C927 H942 0.961 . S
C927 H943 0.960 . S
H928 C912 0.931 . S
H929 C917 0.929 . S
H930 C918 0.960 . S
H931 C918 0.962 . S
H932 C918 0.960 . S
H933 C919 0.961 . S
H934 C919 0.961 . S
H935 C919 0.961 . S
H936 C920 0.931 . S
H937 C925 0.930 . S
H938 C926 0.956 . S
H939 C926 0.961 . S
H940 C926 0.961 . S
H941 C927 0.958 . S
H942 C927 0.961 . S
H943 C927 0.960 . S
C177 C10 1.535 . S
C185 C131 1.540 . S
C217 C95 1.533 . S
C209 C21 1.551 . S
C249 C118 1.601 . S
C241 C32 1.606 . S
C281 C106 1.486 . S
C273 C43 1.489 . S
C313 C175 1.534 . S
C305 C54 1.534 . S
C345 C139 1.534 . S
C337 C65 1.539 . S
C369 C76 1.587 . S
C377 C162 1.608 . S
C409 C150 1.486 . S
C401 C87 1.473 . S
C433 C5 1.509 . S
C441 C172 1.535 . S
C473 C142 1.510 . S
C465 C16 1.452 . S
C497 C27 1.562 . S
C505 C161 1.596 . S
C529 C37 1.447 . S
C537 C147 1.464 . S
C569 C128 1.534 . S
C561 C49 1.504 . S
C593 C60 1.496 . S
C601 C98 1.514 . S
C633 C117 1.604 . S
C625 C71 1.593 . S
C665 C103 1.459 . S
C657 C81 1.436 . S
C697 C153 1.524 . S
C689 C4 1.511 . S
C729 C169 1.511 . S
C721 C15 1.487 . S
C753 C26 1.497 . S
C761 C140 1.503 . S
C793 C164 1.496 . S
C785 C38 1.483 . S
C825 C109 1.529 . S
C817 C48 1.523 . S
C849 C59 1.508 . S
C857 C125 1.516 . S
C881 C70 1.504 . S
C889 C96 1.504 . S
C913 C82 1.442 . S
C921 C120 1.493 . S
