# Generated by pormake.
# Topology rtl, (3,6)-cn, num edge types: 1
# Building blocks:
#     Node 0, Type 0, BuildingBlock: BELTOD_clean_linker_0, # of connection points: 3
#     Node 1, Type 0, BuildingBlock: BELTOD_clean_linker_0, # of connection points: 3
#     Node 2, Type 0, BuildingBlock: BELTOD_clean_linker_0, # of connection points: 3
#     Node 3, Type 0, BuildingBlock: BELTOD_clean_linker_0, # of connection points: 3
#     Node 4, Type 1, BuildingBlock: FUNLAD_clean_sbu_0, # of connection points: 6
#     Node 5, Type 1, BuildingBlock: FUNLAD_clean_sbu_0, # of connection points: 6
#     Edge 6, Type (0, 1), BuildingBlock: EZIPEK_clean_linker_0, # of connection points: 2
#     Edge 7, Type (0, 1), BuildingBlock: EZIPEK_clean_linker_0, # of connection points: 2
#     Edge 8, Type (0, 1), BuildingBlock: EZIPEK_clean_linker_0, # of connection points: 2
#     Edge 9, Type (0, 1), BuildingBlock: EZIPEK_clean_linker_0, # of connection points: 2
#     Edge 10, Type (0, 1), BuildingBlock: EZIPEK_clean_linker_0, # of connection points: 2
#     Edge 11, Type (0, 1), BuildingBlock: EZIPEK_clean_linker_0, # of connection points: 2
#     Edge 12, Type (0, 1), BuildingBlock: EZIPEK_clean_linker_0, # of connection points: 2
#     Edge 13, Type (0, 1), BuildingBlock: EZIPEK_clean_linker_0, # of connection points: 2
#     Edge 14, Type (0, 1), BuildingBlock: EZIPEK_clean_linker_0, # of connection points: 2
#     Edge 15, Type (0, 1), BuildingBlock: EZIPEK_clean_linker_0, # of connection points: 2
#     Edge 16, Type (0, 1), BuildingBlock: EZIPEK_clean_linker_0, # of connection points: 2
#     Edge 17, Type (0, 1), BuildingBlock: EZIPEK_clean_linker_0, # of connection points: 2
# Relax obj value: 0.021
# Max RMSD: 0.104
# Mean RMSD: 0.085
data_MOF--net-rtl--node1-FUNLAD_clean_sbu_0--node2-BELTOD_clean_linker_0--edge1-EZIPEK_clean_linker_0
_symmetry_space_group_name_H-M    P1
_symmetry_Int_Tables_number       1
_symmetry_cell_setting            triclinic
loop_
_symmetry_equiv_pos_as_xyz
'x, y, z'
_cell_length_a     36.4445
_cell_length_b     29.489021
_cell_length_c     19.623937
_cell_angle_alpha  88.860189
_cell_angle_beta   90.953657
_cell_angle_gamma 90.447773
loop_
_atom_site_label
_atom_site_type_symbol
_atom_site_fract_x
_atom_site_fract_y
_atom_site_fract_z
_atom_type_partial_charge
P0 P 0.16128 0.82551 0.00627 0.0
H1 H 0.16756 0.80484 0.15257 0.0
H2 H 0.1326 0.83185 0.24978 0.0
H3 H 0.05458 0.89473 0.11085 0.0
H4 H 0.08987 0.86991 0.01468 0.0
H5 H 0.23255 0.80195 0.95671 0.0
H6 H 0.26834 0.7322 0.96184 0.0
H7 H 0.17979 0.66303 0.06475 0.0
H8 H 0.14362 0.7336 0.05986 0.0
H9 H 0.17646 0.87735 0.88182 0.0
H10 H 0.09292 0.78466 0.95419 0.0
O11 O 0.19213 0.86753 0.01061 0.0
H12 H 0.13734 0.89813 0.78408 0.0
H13 H 0.05308 0.80658 0.85656 0.0
C14 C 0.13079 0.83391 0.07611 0.0
C15 C 0.14226 0.82308 0.14304 0.0
C16 C 0.12242 0.8385 0.19841 0.0
C17 C 0.09092 0.86492 0.18719 0.0
C18 C 0.07853 0.87383 0.12035 0.0
C19 C 0.09864 0.85918 0.06532 0.0
C20 C 0.18596 0.77312 0.00964 0.0
C21 C 0.22079 0.77193 0.98072 0.0
C22 C 0.24113 0.73218 0.98332 0.0
C23 C 0.2268 0.69284 0.01431 0.0
C24 C 0.1913 0.69334 0.04118 0.0
C25 C 0.17085 0.73344 0.03862 0.0
C26 C 0.13702 0.83055 0.92608 0.0
C27 C 0.15005 0.8607 0.87593 0.0
C28 C 0.12783 0.87242 0.82 0.0
C29 C 0.0923 0.8542 0.81375 0.0
C30 C 0.08049 0.82086 0.86066 0.0
C31 C 0.1031 0.80854 0.91623 0.0
P32 P 0.65931 0.67162 0.51031 0.0
H33 H 0.67194 0.66485 0.36528 0.0
H34 H 0.6316 0.64184 0.2705 0.0
H35 H 0.53847 0.6441 0.40298 0.0
H36 H 0.57848 0.66742 0.49753 0.0
H37 H 0.72393 0.70013 0.58534 0.0
H38 H 0.76332 0.7676 0.57651 0.0
H39 H 0.6876 0.82759 0.43012 0.0
H40 H 0.64817 0.75959 0.43841 0.0
H41 H 0.64234 0.58767 0.58211 0.0
H42 H 0.62135 0.73023 0.60594 0.0
O43 O 0.69076 0.63127 0.50267 0.0
H44 H 0.6049 0.56981 0.6815 0.0
H45 H 0.58343 0.71211 0.70606 0.0
C46 C 0.62835 0.66694 0.43857 0.0
C47 C 0.6427 0.66168 0.37345 0.0
C48 C 0.61976 0.64878 0.31945 0.0
C49 C 0.58226 0.64116 0.33025 0.0
C50 C 0.56737 0.65003 0.39399 0.0
C51 C 0.59033 0.66303 0.44795 0.0
C52 C 0.68361 0.7247 0.5117 0.0
C53 C 0.71552 0.72802 0.55203 0.0
C54 C 0.73793 0.76639 0.54704 0.0
C55 C 0.72852 0.80206 0.50197 0.0
C56 C 0.69533 0.80008 0.46471 0.0
C57 C 0.67295 0.76138 0.46943 0.0
C58 C 0.63533 0.6603 0.58796 0.0
C59 C 0.63024 0.61518 0.60952 0.0
C60 C 0.60873 0.60495 0.66581 0.0
C61 C 0.59173 0.63969 0.70097 0.0
C62 C 0.59669 0.68501 0.67959 0.0
C63 C 0.61839 0.69527 0.623 0.0
P64 P 0.91022 0.29153 0.99019 0.0
H65 H 0.95767 0.29729 0.8707 0.0
H66 H 0.9687 0.24444 0.77825 0.0
H67 H 0.88839 0.15182 0.86242 0.0
H68 H 0.87846 0.20378 0.95642 0.0
H69 H 0.87549 0.35689 0.07689 0.0
H70 H 0.81242 0.3855 0.08238 0.0
H71 H 0.78088 0.30263 0.91227 0.0
H72 H 0.84361 0.2751 0.90533 0.0
H73 H 0.9782 0.25295 0.04225 0.0
H74 H 0.86487 0.25539 0.10268 0.0
O75 O 0.93957 0.33515 0.98566 0.0
H76 H 0.99278 0.2028 0.14029 0.0
H77 H 0.87977 0.20631 0.20145 0.0
C78 C 0.91701 0.2545 0.91992 0.0
C79 C 0.94238 0.2657 0.86926 0.0
C80 C 0.94867 0.23564 0.8166 0.0
C81 C 0.92929 0.19437 0.81364 0.0
C82 C 0.90356 0.18353 0.86393 0.0
C83 C 0.89788 0.21312 0.91727 0.0
C84 C 0.86428 0.31356 0.99121 0.0
C85 C 0.85504 0.34511 0.04052 0.0
C86 C 0.81918 0.36128 0.04383 0.0
C87 C 0.79213 0.34584 0.99799 0.0
C88 C 0.80143 0.31465 0.94825 0.0
C89 C 0.83732 0.29881 0.94461 0.0
C90 C 0.92067 0.25859 0.06595 0.0
C91 C 0.95664 0.24334 0.07716 0.0
C92 C 0.96493 0.21469 0.13269 0.0
C93 C 0.93732 0.20118 0.17784 0.0
C94 C 0.90137 0.21672 0.16712 0.0
C95 C 0.89299 0.24493 0.11101 0.0
P96 P 0.41385 0.20846 0.51249 0.0
H97 H 0.44146 0.19425 0.65215 0.0
H98 H 0.45441 0.2469 0.74539 0.0
H99 H 0.42004 0.35914 0.61598 0.0
H100 H 0.4073 0.30685 0.5229 0.0
H101 H 0.37579 0.12296 0.48488 0.0
H102 H 0.31065 0.10081 0.48764 0.0
H103 H 0.28258 0.2352 0.55072 0.0
H104 H 0.3474 0.25756 0.54752 0.0
H105 H 0.47868 0.25495 0.4623 0.0
H106 H 0.36918 0.22519 0.3875 0.0
O107 O 0.44073 0.16304 0.52027 0.0
H108 H 0.48968 0.30247 0.36042 0.0
H109 H 0.38048 0.27234 0.28555 0.0
C110 C 0.42422 0.24681 0.58033 0.0
C111 C 0.43699 0.2302 0.64372 0.0
C112 C 0.44421 0.26007 0.69682 0.0
C113 C 0.43827 0.30674 0.6871 0.0
C114 C 0.42492 0.32322 0.62405 0.0
C115 C 0.41787 0.29342 0.57103 0.0
C116 C 0.36649 0.19153 0.51758 0.0
C117 C 0.3557 0.14752 0.49997 0.0
C118 C 0.31867 0.13493 0.50129 0.0
C119 C 0.29215 0.16639 0.51988 0.0
C120 C 0.30287 0.21052 0.53683 0.0
C121 C 0.33983 0.2231 0.53528 0.0
C122 C 0.42307 0.23697 0.43274 0.0
C123 C 0.45729 0.25801 0.42351 0.0
C124 C 0.46357 0.28504 0.36566 0.0
C125 C 0.4358 0.29083 0.31607 0.0
C126 C 0.40214 0.26807 0.32356 0.0
C127 C 0.39576 0.24129 0.38178 0.0
C128 C 0.02343 0.96215 0.40496 0.0
N129 N 0.07248 0.06546 0.51573 0.0
C130 C 0.1025 0.03829 0.51987 0.0
C131 C 0.1376 0.05716 0.52275 0.0
C132 C 0.14176 0.10433 0.52104 0.0
C133 C 0.11058 0.13184 0.51754 0.0
C134 C 0.07582 0.11149 0.515 0.0
Zn135 Zn 0.02241 0.03468 0.50722 0.0
C136 C 0.97525 0.07844 0.40142 0.0
N137 N 0.91866 0.96799 0.49021 0.0
C138 C 0.91755 0.92186 0.49221 0.0
C139 C 0.88738 0.99288 0.4848 0.0
C140 C 0.85315 0.97129 0.4821 0.0
C141 C 0.85139 0.92383 0.48572 0.0
C142 C 0.88396 0.89897 0.49014 0.0
Zn143 Zn 0.96826 -0.00023 0.49875 0.0
O144 O 0.04333 0.99205 0.43327 0.0
C145 C 0.0168 0.95669 0.60468 0.0
O146 O 0.99019 0.95718 0.42255 0.0
H147 H 0.88896 0.02952 0.4834 0.0
H148 H 0.09929 0.00182 0.52003 0.0
H149 H 0.94274 0.90281 0.49622 0.0
O150 O 0.03806 0.9879 0.58347 0.0
O151 O 0.98479 0.95292 0.57846 0.0
H152 H 0.05157 0.13237 0.51159 0.0
O153 O 0.94679 0.04242 0.57339 0.0
O154 O 0.00019 0.07736 0.58235 0.0
O155 O 0.95289 0.04763 0.42082 0.0
O156 O 0.00684 0.08101 0.42932 0.0
C157 C 0.967 0.07254 0.60046 0.0
H158 H 0.16132 0.03523 0.52532 0.0
H159 H 0.11318 0.16846 0.51612 0.0
H160 H 0.82835 0.99125 0.4783 0.0
H161 H 0.88333 0.86223 0.4926 0.0
C162 C 0.47243 0.4295 0.90513 0.0
N163 N 0.5719 0.443 0.01249 0.0
C164 C 0.577 0.39754 0.00699 0.0
C165 C 0.61248 0.37998 0.00554 0.0
C166 C 0.64267 0.40958 0.01038 0.0
C167 C 0.6367 0.4561 0.01694 0.0
C168 C 0.60088 0.47222 0.01757 0.0
Zn169 Zn 0.5204 0.46963 0.01105 0.0
C170 C 0.51609 0.54917 0.91558 0.0
N171 N 0.41398 0.52922 0.00721 0.0
C172 C 0.38336 0.50244 0.00551 0.0
C173 C 0.41156 0.57513 0.01055 0.0
C174 C 0.37738 0.59585 0.01268 0.0
C175 C 0.3455 0.56906 0.01148 0.0
C176 C 0.34851 0.52183 0.00786 0.0
Zn177 Zn 0.46503 0.50126 0.00816 0.0
O178 O 0.50426 0.42658 0.93204 0.0
C179 C 0.46982 0.42131 0.10342 0.0
O180 O 0.44983 0.45845 0.92639 0.0
H181 H 0.43621 0.59575 0.01225 0.0
H182 H 0.55356 0.37497 0.00306 0.0
H183 H 0.38597 0.466 0.00301 0.0
O184 O 0.50285 0.42111 0.08375 0.0
O185 O 0.44762 0.45072 0.07915 0.0
H186 H 0.59626 0.50824 0.02145 0.0
O187 O 0.48118 0.54356 0.09046 0.0
O188 O 0.53587 0.51281 0.08992 0.0
O189 O 0.4834 0.55134 0.9367 0.0
O190 O 0.53726 0.51834 0.93853 0.0
C191 C 0.51373 0.54093 0.11429 0.0
H192 H 0.61639 0.34385 0.00032 0.0
H193 H 0.65955 0.47969 0.02062 0.0
H194 H 0.37579 0.63242 0.01575 0.0
H195 H 0.32425 0.50038 0.00715 0.0
C196 C 0.23669 0.13947 0.58316 0.0
C197 C 0.2529 0.15319 0.52077 0.0
C198 C 0.19579 0.13624 0.45853 0.0
C199 C 0.17911 0.12437 0.52129 0.0
N200 N 0.1808 0.1217 0.64407 0.0
N201 N 0.247 0.1725 0.40117 0.0
C202 C 0.19872 0.12818 0.58393 0.0
C203 C 0.23214 0.15397 0.45901 0.0
N204 N 0.25791 0.13579 0.64112 0.0
N205 N 0.17733 0.12898 0.39842 0.0
H206 H 0.27379 0.18514 0.39939 0.0
H207 H 0.23203 0.17862 0.35633 0.0
H208 H 0.1503 0.11714 0.39603 0.0
H209 H 0.18946 0.13176 0.35086 0.0
H210 H 0.2488 0.12111 0.68651 0.0
H211 H 0.2857 0.14456 0.64274 0.0
H212 H 0.19248 0.12849 0.69157 0.0
H213 H 0.15305 0.11294 0.64632 0.0
C214 C 0.25635 0.6273 0.95909 0.0
C215 C 0.25017 0.65194 0.01901 0.0
C216 C 0.29872 0.60932 0.07881 0.0
C217 C 0.30929 0.59132 0.01571 0.0
N218 N 0.29895 0.58278 0.89493 0.0
N219 N 0.26531 0.66766 0.13636 0.0
C220 C 0.28792 0.59948 0.9557 0.0
C221 C 0.27084 0.6427 0.07952 0.0
N222 N 0.23203 0.63089 0.90554 0.0
N223 N 0.31549 0.59443 0.13783 0.0
H224 H 0.24457 0.69165 0.13937 0.0
H225 H 0.28252 0.66652 0.17922 0.0
H226 H 0.33603 0.56995 0.13859 0.0
H227 H 0.30685 0.60305 0.18615 0.0
H228 H 0.23304 0.61089 0.86251 0.0
H229 H 0.20869 0.65113 0.9071 0.0
H230 H 0.28707 0.59194 0.84809 0.0
H231 H 0.32155 0.56161 0.89072 0.0
C232 C 0.76154 0.87067 0.54492 0.0
C233 C 0.75508 0.8398 0.49157 0.0
C234 C 0.80533 0.87437 0.42699 0.0
C235 C 0.81565 0.89949 0.48513 0.0
N236 N 0.80532 0.91991 0.60177 0.0
N237 N 0.77247 0.80919 0.38352 0.0
C238 C 0.79395 0.89775 0.54454 0.0
C239 C 0.77707 0.84119 0.43249 0.0
N240 N 0.73656 0.87404 0.59571 0.0
N241 N 0.8225 0.8825 0.36652 0.0
H242 H 0.7521 0.78422 0.38528 0.0
H243 H 0.79057 0.80525 0.34359 0.0
H244 H 0.8433 0.90676 0.36097 0.0
H245 H 0.81383 0.86846 0.32065 0.0
H246 H 0.73789 0.89886 0.63271 0.0
H247 H 0.71252 0.85459 0.59699 0.0
H248 H 0.79293 0.91562 0.64891 0.0
H249 H 0.82883 0.94025 0.60358 0.0
C250 C 0.73976 0.39141 0.94932 0.0
C251 C 0.75388 0.36232 0.00171 0.0
C252 C 0.69589 0.36686 0.06254 0.0
C253 C 0.68069 0.39228 0.00694 0.0
N254 N 0.68572 0.42158 0.89174 0.0
N255 N 0.74365 0.31559 0.10208 0.0
C256 C 0.70195 0.40253 0.94862 0.0
C257 C 0.73146 0.34811 0.05672 0.0
N258 N 0.76275 0.40964 0.90152 0.0
N259 N 0.67688 0.36196 0.12175 0.0
H260 H 0.76948 0.30081 0.09933 0.0
H261 H 0.72702 0.30039 0.1388 0.0
H262 H 0.65077 0.37532 0.12808 0.0
H263 H 0.68822 0.34807 0.16646 0.0
H264 H 0.75478 0.43484 0.86651 0.0
H265 H 0.79076 0.40268 0.90075 0.0
H266 H 0.69895 0.42541 0.84532 0.0
H267 H 0.65793 0.42976 0.88893 0.0
C268 C 0.05203 0.86452 0.29235 0.0
C269 C 0.07366 0.88869 0.24421 0.0
C270 C 0.05653 0.96044 0.29476 0.0
C271 C 0.0386 0.93624 0.34803 0.0
N272 N 0.02376 0.86461 0.40319 0.0
N273 N 0.10304 0.95877 0.20869 0.0
C274 C 0.03737 0.88803 0.34832 0.0
C275 C 0.07783 0.93641 0.24811 0.0
N276 N 0.04479 0.81945 0.28371 0.0
N277 N 0.05194 0.00623 0.28672 0.0
H278 H 0.1199 0.94235 0.17469 0.0
H279 H 0.10981 0.99285 0.2148 0.0
H280 H 0.03522 0.02511 0.31788 0.0
H281 H 0.06139 0.02463 0.24455 0.0
H282 H 0.02598 0.80114 0.31293 0.0
H283 H 0.05539 0.80115 0.24366 0.0
H284 H 0.02589 0.82959 0.40957 0.0
H285 H 0.01303 0.8805 0.44523 0.0
C286 C 0.58269 0.62745 0.82639 0.0
C287 C 0.56802 0.62731 0.75908 0.0
C288 C 0.51509 0.58237 0.79675 0.0
C289 C 0.53014 0.5817 0.86396 0.0
N290 N 0.57229 0.61298 0.94671 0.0
N291 N 0.51646 0.61606 0.68295 0.0
C292 C 0.56203 0.60749 0.88003 0.0
C293 C 0.53276 0.60872 0.74538 0.0
N294 N 0.61713 0.64453 0.83837 0.0
N295 N 0.4856 0.55542 0.78078 0.0
H296 H 0.529 0.63508 0.64429 0.0
H297 H 0.48938 0.60707 0.67165 0.0
H298 H 0.47173 0.53556 0.81668 0.0
H299 H 0.47638 0.55015 0.73105 0.0
H300 H 0.63122 0.64058 0.88466 0.0
H301 H 0.63259 0.66063 0.8006 0.0
H302 H 0.59329 0.63475 0.96231 0.0
H303 H 0.5575 0.59885 0.98706 0.0
C304 C 0.96121 0.18763 0.29696 0.0
C305 C 0.94614 0.16999 0.23585 0.0
C306 C 0.95317 0.09244 0.28107 0.0
C307 C 0.96524 0.1101 0.34456 0.0
N308 N 0.97694 0.17466 0.41607 0.0
N309 N 0.92316 0.10662 0.17167 0.0
C310 C 0.9684 0.15777 0.35332 0.0
C311 C 0.9406 0.12268 0.22863 0.0
N312 N 0.96924 0.23293 0.30069 0.0
N313 N 0.95589 0.04702 0.26923 0.0
H314 H 0.91503 0.12744 0.13066 0.0
H315 H 0.9143 0.07313 0.1671 0.0
H316 H 0.96608 0.02367 0.30518 0.0
H317 H 0.95149 0.03289 0.22157 0.0
H318 H 0.98453 0.2471 0.34027 0.0
H319 H 0.9627 0.25624 0.26177 0.0
H320 H 0.97509 0.20884 0.42777 0.0
H321 H 0.98336 0.15432 0.45847 0.0
C322 C 0.42267 0.34086 0.79904 0.0
C323 C 0.44647 0.33868 0.74274 0.0
C324 C 0.48365 0.40086 0.78849 0.0
C325 C 0.46228 0.3996 0.84829 0.0
N326 N 0.41494 0.36385 0.91573 0.0
N327 N 0.50283 0.36127 0.68839 0.0
C328 C 0.43259 0.3685 0.85499 0.0
C329 C 0.47788 0.36724 0.73865 0.0
N330 N 0.39015 0.31743 0.79821 0.0
N331 N 0.50854 0.43517 0.77817 0.0
H332 H 0.49963 0.3369 0.65089 0.0
H333 H 0.52822 0.37771 0.68727 0.0
H334 H 0.51316 0.46094 0.81301 0.0
H335 H 0.52205 0.44061 0.73235 0.0
H336 H 0.36987 0.32156 0.8343 0.0
H337 H 0.38201 0.29668 0.75818 0.0
H338 H 0.39593 0.33816 0.92597 0.0
H339 H 0.42147 0.38323 0.95818 0.0
C340 C 0.55821 0.56856 0.28339 0.0
C341 C 0.56026 0.61658 0.27863 0.0
C342 C 0.52835 0.61592 0.16776 0.0
C343 C 0.52578 0.5679 0.17324 0.0
N344 N 0.53019 0.49945 0.24219 0.0
N345 N 0.54179 0.68685 0.22442 0.0
C346 C 0.53821 0.54454 0.23302 0.0
C347 C 0.54344 0.64058 0.22334 0.0
N348 N 0.57671 0.54571 0.33454 0.0
N349 N 0.51824 0.63765 0.10825 0.0
H350 H 0.55317 0.70571 0.26406 0.0
H351 H 0.52678 0.70628 0.18914 0.0
H352 H 0.50666 0.62088 0.06677 0.0
H353 H 0.52345 0.67185 0.0981 0.0
H354 H 0.58017 0.51069 0.33565 0.0
H355 H 0.59099 0.56186 0.37377 0.0
H356 H 0.53475 0.48171 0.28792 0.0
H357 H 0.51585 0.4805 0.20609 0.0
C358 C 0.92665 0.1735 0.68989 0.0
C359 C 0.93641 0.16201 0.75848 0.0
C360 C 0.95577 0.08699 0.72296 0.0
C361 C 0.95223 0.10135 0.65408 0.0
N362 N 0.93249 0.15668 0.56989 0.0
N363 N 0.96528 0.11 0.83934 0.0
C364 C 0.93708 0.14423 0.63687 0.0
C365 C 0.95217 0.11921 0.77491 0.0
N366 N 0.90619 0.21134 0.67591 0.0
N367 N 0.9612 0.04223 0.73878 0.0
H368 H 0.96424 0.13316 0.8787 0.0
H369 H 0.98036 0.08105 0.85192 0.0
H370 H 0.96202 0.01748 0.70155 0.0
H371 H 0.96079 0.02915 0.78847 0.0
H372 H 0.89531 0.21942 0.62787 0.0
H373 H 0.89739 0.23295 0.71367 0.0
H374 H 0.92611 0.18948 0.55334 0.0
H375 H 0.93616 0.13401 0.53051 0.0
C376 C 0.43257 0.36976 0.26789 0.0
C377 C 0.44127 0.32351 0.25888 0.0
C378 C 0.46193 0.34073 0.14308 0.0
C379 C 0.45761 0.38768 0.15528 0.0
N380 N 0.44248 0.44777 0.23187 0.0
N381 N 0.46671 0.26455 0.1912 0.0
C382 C 0.44352 0.4025 0.21809 0.0
C383 C 0.45655 0.30881 0.19726 0.0
N384 N 0.41358 0.38232 0.32395 0.0
N385 N 0.46984 0.32663 0.07902 0.0
H386 H 0.46195 0.23991 0.22899 0.0
H387 H 0.48195 0.25283 0.15084 0.0
H388 H 0.47319 0.349 0.03771 0.0
H389 H 0.46971 0.29273 0.06516 0.0
H390 H 0.40266 0.41453 0.32955 0.0
H391 H 0.40606 0.35955 0.3627 0.0
H392 H 0.437 0.46029 0.27985 0.0
H393 H 0.44995 0.4732 0.1971 0.0
C394 C 0.0558 0.85534 0.70327 0.0
C395 C 0.06611 0.87618 0.76516 0.0
C396 C 0.04014 0.94811 0.72493 0.0
C397 C 0.02924 0.92747 0.66281 0.0
N398 N 0.01899 0.85902 0.59927 0.0
N399 N 0.05786 0.93703 0.84343 0.0
C400 C 0.03425 0.88013 0.6543 0.0
C401 C 0.0548 0.92084 0.77873 0.0
N402 N 0.06811 0.81282 0.68997 0.0
N403 N 0.03788 0.99404 0.73204 0.0
H404 H 0.06824 0.91767 0.88436 0.0
H405 H 0.04663 0.96769 0.8579 0.0
H406 H 0.02637 0.01572 0.69523 0.0
H407 H 0.04978 0.01121 0.77281 0.0
H408 H 0.06529 0.79776 0.64261 0.0
H409 H 0.08331 0.79356 0.72536 0.0
H410 H 0.01885 0.82399 0.59363 0.0
H411 H 0.00355 0.87606 0.56195 0.0
loop_
_geom_bond_atom_site_label_1
_geom_bond_atom_site_label_2
_geom_bond_distance
_geom_bond_site_symmetry_2
_ccdc_geom_bond_type
P0 O11 1.490 . S
P0 C14 1.812 . S
P0 C20 1.803 . S
P0 C26 1.819 1_554 S
H1 C15 0.941 . S
H2 C16 0.939 . S
H3 C18 0.940 . S
H4 C19 0.940 . S
H5 C21 0.939 . S
H6 C22 0.942 . S
H7 C24 0.940 . S
H8 C25 0.939 . S
H9 C27 0.941 . S
H10 C31 0.939 . S
O11 P0 1.490 . S
H12 C28 0.939 . S
H13 C30 0.940 . S
C14 P0 1.812 . S
C14 C15 1.389 . S
C14 C19 1.391 . S
C15 H1 0.941 . S
C15 C14 1.389 . S
C15 C16 1.397 . S
C16 H2 0.939 . S
C16 C15 1.397 . S
C16 C17 1.378 . S
C17 C16 1.378 . S
C17 C18 1.378 . S
C18 H3 0.940 . S
C18 C17 1.378 . S
C18 C19 1.396 . S
C19 H4 0.940 . S
C19 C14 1.391 . S
C19 C18 1.396 . S
C20 P0 1.803 . S
C20 C21 1.378 1_554 S
C20 C25 1.400 . S
C21 H5 0.939 . S
C21 C20 1.378 1_556 S
C21 C22 1.361 . S
C22 H6 0.942 . S
C22 C21 1.361 . S
C22 C23 1.369 1_556 S
C23 C22 1.369 1_554 S
C23 C24 1.404 . S
C24 H7 0.940 . S
C24 C23 1.404 . S
C24 C25 1.389 . S
C25 H8 0.939 . S
C25 C20 1.400 . S
C25 C24 1.389 . S
C26 P0 1.819 1_556 S
C26 C27 1.391 . S
C26 C31 1.391 . S
C27 H9 0.941 . S
C27 C26 1.391 . S
C27 C28 1.396 . S
C28 H12 0.939 . S
C28 C27 1.396 . S
C28 C29 1.397 . S
C29 C28 1.397 . S
C29 C30 1.385 . S
C30 H13 0.940 . S
C30 C29 1.385 . S
C30 C31 1.388 . S
C31 H10 0.939 . S
C31 C26 1.391 . S
C31 C30 1.388 . S
P32 O43 1.490 . S
P32 C46 1.812 . S
P32 C52 1.803 . S
P32 C58 1.819 . S
H33 C47 0.941 . S
H34 C48 0.939 . S
H35 C50 0.940 . S
H36 C51 0.940 . S
H37 C53 0.939 . S
H38 C54 0.942 . S
H39 C56 0.940 . S
H40 C57 0.939 . S
H41 C59 0.941 . S
H42 C63 0.939 . S
O43 P32 1.490 . S
H44 C60 0.939 . S
H45 C62 0.940 . S
C46 P32 1.812 . S
C46 C47 1.389 . S
C46 C51 1.391 . S
C47 H33 0.941 . S
C47 C46 1.389 . S
C47 C48 1.397 . S
C48 H34 0.939 . S
C48 C47 1.397 . S
C48 C49 1.378 . S
C49 C48 1.378 . S
C49 C50 1.378 . S
C50 H35 0.940 . S
C50 C49 1.378 . S
C50 C51 1.396 . S
C51 H36 0.940 . S
C51 C46 1.391 . S
C51 C50 1.396 . S
C52 P32 1.803 . S
C52 C53 1.378 . S
C52 C57 1.400 . S
C53 H37 0.939 . S
C53 C52 1.378 . S
C53 C54 1.361 . S
C54 H38 0.942 . S
C54 C53 1.361 . S
C54 C55 1.369 . S
C55 C54 1.369 . S
C55 C56 1.404 . S
C56 H39 0.940 . S
C56 C55 1.404 . S
C56 C57 1.389 . S
C57 H40 0.939 . S
C57 C52 1.400 . S
C57 C56 1.389 . S
C58 P32 1.819 . S
C58 C59 1.391 . S
C58 C63 1.391 . S
C59 H41 0.941 . S
C59 C58 1.391 . S
C59 C60 1.396 . S
C60 H44 0.939 . S
C60 C59 1.396 . S
C60 C61 1.397 . S
C61 C60 1.397 . S
C61 C62 1.385 . S
C62 H45 0.940 . S
C62 C61 1.385 . S
C62 C63 1.388 . S
C63 H42 0.939 . S
C63 C58 1.391 . S
C63 C62 1.388 . S
P64 O75 1.490 . S
P64 C78 1.812 . S
P64 C84 1.803 . S
P64 C90 1.819 1_556 S
H65 C79 0.941 . S
H66 C80 0.939 . S
H67 C82 0.940 . S
H68 C83 0.940 . S
H69 C85 0.939 . S
H70 C86 0.942 . S
H71 C88 0.940 . S
H72 C89 0.939 . S
H73 C91 0.941 . S
H74 C95 0.939 . S
O75 P64 1.490 . S
H76 C92 0.939 . S
H77 C94 0.940 . S
C78 P64 1.812 . S
C78 C79 1.389 . S
C78 C83 1.391 . S
C79 H65 0.941 . S
C79 C78 1.389 . S
C79 C80 1.397 . S
C80 H66 0.939 . S
C80 C79 1.397 . S
C80 C81 1.378 . S
C81 C80 1.378 . S
C81 C82 1.378 . S
C82 H67 0.940 . S
C82 C81 1.378 . S
C82 C83 1.396 . S
C83 H68 0.940 . S
C83 C78 1.391 . S
C83 C82 1.396 . S
C84 P64 1.803 . S
C84 C85 1.378 1_556 S
C84 C89 1.400 . S
C85 H69 0.939 . S
C85 C84 1.378 1_554 S
C85 C86 1.361 . S
C86 H70 0.942 . S
C86 C85 1.361 . S
C86 C87 1.369 . S
C87 C86 1.369 . S
C87 C88 1.404 1_554 S
C88 H71 0.940 . S
C88 C87 1.404 1_556 S
C88 C89 1.389 . S
C89 H72 0.939 . S
C89 C84 1.400 . S
C89 C88 1.389 . S
C90 P64 1.819 1_554 S
C90 C91 1.391 . S
C90 C95 1.391 . S
C91 H73 0.941 . S
C91 C90 1.391 . S
C91 C92 1.396 . S
C92 H76 0.939 . S
C92 C91 1.396 . S
C92 C93 1.397 . S
C93 C92 1.397 . S
C93 C94 1.385 . S
C94 H77 0.940 . S
C94 C93 1.385 . S
C94 C95 1.388 . S
C95 H74 0.939 . S
C95 C90 1.391 . S
C95 C94 1.388 . S
P96 O107 1.490 . S
P96 C110 1.812 . S
P96 C116 1.803 . S
P96 C122 1.819 . S
H97 C111 0.941 . S
H98 C112 0.939 . S
H99 C114 0.940 . S
H100 C115 0.940 . S
H101 C117 0.939 . S
H102 C118 0.942 . S
H103 C120 0.940 . S
H104 C121 0.939 . S
H105 C123 0.941 . S
H106 C127 0.939 . S
O107 P96 1.490 . S
H108 C124 0.939 . S
H109 C126 0.940 . S
C110 P96 1.812 . S
C110 C111 1.389 . S
C110 C115 1.391 . S
C111 H97 0.941 . S
C111 C110 1.389 . S
C111 C112 1.397 . S
C112 H98 0.939 . S
C112 C111 1.397 . S
C112 C113 1.378 . S
C113 C112 1.378 . S
C113 C114 1.378 . S
C114 H99 0.940 . S
C114 C113 1.378 . S
C114 C115 1.396 . S
C115 H100 0.940 . S
C115 C110 1.391 . S
C115 C114 1.396 . S
C116 P96 1.803 . S
C116 C117 1.378 . S
C116 C121 1.400 . S
C117 H101 0.939 . S
C117 C116 1.378 . S
C117 C118 1.361 . S
C118 H102 0.942 . S
C118 C117 1.361 . S
C118 C119 1.369 . S
C119 C118 1.369 . S
C119 C120 1.404 . S
C120 H103 0.940 . S
C120 C119 1.404 . S
C120 C121 1.389 . S
C121 H104 0.939 . S
C121 C116 1.400 . S
C121 C120 1.389 . S
C122 P96 1.819 . S
C122 C123 1.391 . S
C122 C127 1.391 . S
C123 H105 0.941 . S
C123 C122 1.391 . S
C123 C124 1.396 . S
C124 H108 0.939 . S
C124 C123 1.396 . S
C124 C125 1.397 . S
C125 C124 1.397 . S
C125 C126 1.385 . S
C126 H109 0.940 . S
C126 C125 1.385 . S
C126 C127 1.388 . S
C127 H106 0.939 . S
C127 C122 1.391 . S
C127 C126 1.388 . S
C128 O144 1.251 . S
C128 O146 1.254 1_455 S
N129 C130 1.333 . S
N129 C134 1.307 . S
N129 Zn135 2.020 . S
C130 N129 1.333 . S
C130 C131 1.379 . S
C130 H148 0.952 . S
C131 C130 1.379 . S
C131 C132 1.390 . S
C131 H158 0.949 . S
C132 C131 1.390 . S
C132 C133 1.357 . S
C133 C132 1.357 . S
C133 C134 1.370 . S
C133 H159 0.950 . S
C134 N129 1.307 . S
C134 C133 1.370 . S
C134 H152 0.948 . S
Zn135 N129 2.020 . S
Zn135 O144 2.039 1_545 S
Zn135 O150 2.034 1_545 S
Zn135 O154 2.025 . S
Zn135 O156 2.024 . S
C136 O155 1.246 . S
C136 O156 1.249 1_655 S
N137 C138 1.307 . S
N137 C139 1.333 . S
N137 Zn143 2.020 . S
C138 N137 1.307 . S
C138 C142 1.370 . S
C138 H149 0.948 . S
C139 N137 1.333 . S
C139 C140 1.379 . S
C139 H147 0.952 . S
C140 C139 1.379 . S
C140 C141 1.390 . S
C140 H160 0.949 . S
C141 C140 1.390 . S
C141 C142 1.357 . S
C142 C138 1.370 . S
C142 C141 1.357 . S
C142 H161 0.950 . S
Zn143 N137 2.020 . S
Zn143 O146 2.025 . S
Zn143 O151 2.024 . S
Zn143 O153 2.039 1_565 S
Zn143 O155 2.034 1_565 S
O144 C128 1.251 . S
O144 Zn135 2.039 1_565 S
C145 O150 1.246 . S
C145 O151 1.249 1_455 S
O146 C128 1.254 1_655 S
O146 Zn143 2.025 . S
H147 C139 0.952 . S
H148 C130 0.952 . S
H149 C138 0.948 . S
O150 Zn135 2.034 1_565 S
O150 C145 1.246 . S
O151 Zn143 2.024 . S
O151 C145 1.249 1_655 S
H152 C134 0.948 . S
O153 Zn143 2.039 1_545 S
O153 C157 1.251 . S
O154 Zn135 2.025 . S
O154 C157 1.254 1_455 S
O155 C136 1.246 . S
O155 Zn143 2.034 1_545 S
O156 Zn135 2.024 . S
O156 C136 1.249 1_455 S
C157 O153 1.251 . S
C157 O154 1.254 1_655 S
H158 C131 0.949 . S
H159 C133 0.950 . S
H160 C140 0.949 . S
H161 C142 0.950 . S
C162 O178 1.251 . S
C162 O180 1.254 . S
N163 C164 1.333 1_554 S
N163 C168 1.307 . S
N163 Zn169 2.020 . S
C164 N163 1.333 1_556 S
C164 C165 1.379 . S
C164 H182 0.952 . S
C165 C164 1.379 . S
C165 C166 1.390 1_556 S
C165 H192 0.949 . S
C166 C165 1.390 1_554 S
C166 C167 1.357 . S
C167 C166 1.357 . S
C167 C168 1.370 . S
C167 H193 0.950 . S
C168 N163 1.307 . S
C168 C167 1.370 . S
C168 H186 0.948 . S
Zn169 N163 2.020 . S
Zn169 O178 2.039 1_554 S
Zn169 O184 2.034 . S
Zn169 O188 2.025 . S
Zn169 O190 2.024 1_554 S
C170 O189 1.246 . S
C170 O190 1.249 . S
N171 C172 1.307 1_554 S
N171 C173 1.333 . S
N171 Zn177 2.020 . S
C172 N171 1.307 1_556 S
C172 C176 1.370 . S
C172 H183 0.948 . S
C173 N171 1.333 . S
C173 C174 1.379 . S
C173 H181 0.952 . S
C174 C173 1.379 . S
C174 C175 1.390 . S
C174 H194 0.949 . S
C175 C174 1.390 . S
C175 C176 1.357 1_554 S
C176 C172 1.370 . S
C176 C175 1.357 1_556 S
C176 H195 0.950 . S
Zn177 N171 2.020 . S
Zn177 O180 2.025 1_554 S
Zn177 O185 2.024 . S
Zn177 O187 2.039 . S
Zn177 O189 2.034 1_554 S
O178 C162 1.251 . S
O178 Zn169 2.039 1_556 S
C179 O184 1.246 . S
C179 O185 1.249 . S
O180 C162 1.254 . S
O180 Zn177 2.025 1_556 S
H181 C173 0.952 . S
H182 C164 0.952 . S
H183 C172 0.948 . S
O184 Zn169 2.034 . S
O184 C179 1.246 . S
O185 Zn177 2.024 . S
O185 C179 1.249 . S
H186 C168 0.948 . S
O187 Zn177 2.039 . S
O187 C191 1.251 . S
O188 Zn169 2.025 . S
O188 C191 1.254 . S
O189 C170 1.246 . S
O189 Zn177 2.034 1_556 S
O190 Zn169 2.024 1_556 S
O190 C170 1.249 . S
C191 O187 1.251 . S
C191 O188 1.254 . S
H192 C165 0.949 . S
H193 C167 0.950 . S
H194 C174 0.949 . S
H195 C176 0.950 . S
C196 C197 1.363 . S
C196 C202 1.379 . S
C196 N204 1.356 . S
C197 C196 1.363 . S
C197 C203 1.363 . S
C198 C199 1.363 . S
C198 C203 1.379 . S
C198 N205 1.356 . S
C199 C198 1.363 . S
C199 C202 1.363 . S
N200 C202 1.356 . S
N200 H212 0.984 . S
N200 H213 0.985 . S
N201 C203 1.356 . S
N201 H206 0.984 . S
N201 H207 0.985 . S
C202 C196 1.379 . S
C202 C199 1.363 . S
C202 N200 1.356 . S
C203 C197 1.363 . S
C203 C198 1.379 . S
C203 N201 1.356 . S
N204 C196 1.356 . S
N204 H210 0.984 . S
N204 H211 0.984 . S
N205 C198 1.356 . S
N205 H208 0.984 . S
N205 H209 0.985 . S
H206 N201 0.984 . S
H207 N201 0.985 . S
H208 N205 0.984 . S
H209 N205 0.985 . S
H210 N204 0.984 . S
H211 N204 0.984 . S
H212 N200 0.984 . S
H213 N200 0.985 . S
C214 C215 1.363 1_556 S
C214 C220 1.379 . S
C214 N222 1.356 . S
C215 C214 1.363 1_554 S
C215 C221 1.363 . S
C216 C217 1.363 . S
C216 C221 1.379 . S
C216 N223 1.356 . S
C217 C216 1.363 . S
C217 C220 1.363 1_554 S
N218 C220 1.356 . S
N218 H230 0.984 . S
N218 H231 0.985 . S
N219 C221 1.356 . S
N219 H224 0.984 . S
N219 H225 0.985 . S
C220 C214 1.379 . S
C220 C217 1.363 1_556 S
C220 N218 1.356 . S
C221 C215 1.363 . S
C221 C216 1.379 . S
C221 N219 1.356 . S
N222 C214 1.356 . S
N222 H228 0.984 . S
N222 H229 0.984 . S
N223 C216 1.356 . S
N223 H226 0.984 . S
N223 H227 0.985 . S
H224 N219 0.984 . S
H225 N219 0.985 . S
H226 N223 0.984 . S
H227 N223 0.985 . S
H228 N222 0.984 . S
H229 N222 0.984 . S
H230 N218 0.984 . S
H231 N218 0.985 . S
C232 C233 1.363 . S
C232 C238 1.379 . S
C232 N240 1.356 . S
C233 C232 1.363 . S
C233 C239 1.363 . S
C234 C235 1.363 . S
C234 C239 1.379 . S
C234 N241 1.356 . S
C235 C234 1.363 . S
C235 C238 1.363 . S
N236 C238 1.356 . S
N236 H248 0.984 . S
N236 H249 0.985 . S
N237 C239 1.356 . S
N237 H242 0.984 . S
N237 H243 0.985 . S
C238 C232 1.379 . S
C238 C235 1.363 . S
C238 N236 1.356 . S
C239 C233 1.363 . S
C239 C234 1.379 . S
C239 N237 1.356 . S
N240 C232 1.356 . S
N240 H246 0.984 . S
N240 H247 0.984 . S
N241 C234 1.356 . S
N241 H244 0.984 . S
N241 H245 0.985 . S
H242 N237 0.984 . S
H243 N237 0.985 . S
H244 N241 0.984 . S
H245 N241 0.985 . S
H246 N240 0.984 . S
H247 N240 0.984 . S
H248 N236 0.984 . S
H249 N236 0.985 . S
C250 C251 1.363 1_556 S
C250 C256 1.379 . S
C250 N258 1.356 . S
C251 C250 1.363 1_554 S
C251 C257 1.363 . S
C252 C253 1.363 . S
C252 C257 1.379 . S
C252 N259 1.356 . S
C253 C252 1.363 . S
C253 C256 1.363 1_554 S
N254 C256 1.356 . S
N254 H266 0.984 . S
N254 H267 0.985 . S
N255 C257 1.356 . S
N255 H260 0.984 . S
N255 H261 0.985 . S
C256 C250 1.379 . S
C256 C253 1.363 1_556 S
C256 N254 1.356 . S
C257 C251 1.363 . S
C257 C252 1.379 . S
C257 N255 1.356 . S
N258 C250 1.356 . S
N258 H264 0.984 . S
N258 H265 0.984 . S
N259 C252 1.356 . S
N259 H262 0.984 . S
N259 H263 0.985 . S
H260 N255 0.984 . S
H261 N255 0.985 . S
H262 N259 0.984 . S
H263 N259 0.985 . S
H264 N258 0.984 . S
H265 N258 0.984 . S
H266 N254 0.984 . S
H267 N254 0.985 . S
C268 C269 1.363 . S
C268 C274 1.379 . S
C268 N276 1.356 . S
C269 C268 1.363 . S
C269 C275 1.363 . S
C270 C271 1.363 . S
C270 C275 1.379 . S
C270 N277 1.356 . S
C271 C270 1.363 . S
C271 C274 1.363 . S
N272 C274 1.356 1_655 S
N272 H284 0.984 . S
N272 H285 0.985 . S
N273 C275 1.356 . S
N273 H278 0.984 . S
N273 H279 0.985 . S
C274 C268 1.379 . S
C274 C271 1.363 . S
C274 N272 1.356 1_455 S
C275 C269 1.363 . S
C275 C270 1.379 . S
C275 N273 1.356 . S
N276 C268 1.356 . S
N276 H282 0.984 1_455 S
N276 H283 0.984 . S
N277 C270 1.356 . S
N277 H280 0.984 . S
N277 H281 0.985 . S
H278 N273 0.984 . S
H279 N273 0.985 . S
H280 N277 0.984 . S
H281 N277 0.985 . S
H282 N276 0.984 1_655 S
H283 N276 0.984 . S
H284 N272 0.984 . S
H285 N272 0.985 . S
C286 C287 1.363 . S
C286 C292 1.379 . S
C286 N294 1.356 . S
C287 C286 1.363 . S
C287 C293 1.363 . S
C288 C289 1.363 . S
C288 C293 1.379 . S
C288 N295 1.356 . S
C289 C288 1.363 . S
C289 C292 1.363 . S
N290 C292 1.356 . S
N290 H302 0.984 . S
N290 H303 0.985 . S
N291 C293 1.356 . S
N291 H296 0.984 . S
N291 H297 0.985 . S
C292 C286 1.379 . S
C292 C289 1.363 . S
C292 N290 1.356 . S
C293 C287 1.363 . S
C293 C288 1.379 . S
C293 N291 1.356 . S
N294 C286 1.356 . S
N294 H300 0.984 . S
N294 H301 0.984 . S
N295 C288 1.356 . S
N295 H298 0.984 . S
N295 H299 0.985 . S
H296 N291 0.984 . S
H297 N291 0.985 . S
H298 N295 0.984 . S
H299 N295 0.985 . S
H300 N294 0.984 . S
H301 N294 0.984 . S
H302 N290 0.984 . S
H303 N290 0.985 . S
C304 C305 1.363 . S
C304 C310 1.379 . S
C304 N312 1.356 . S
C305 C304 1.363 . S
C305 C311 1.363 . S
C306 C307 1.363 . S
C306 C311 1.379 . S
C306 N313 1.356 . S
C307 C306 1.363 . S
C307 C310 1.363 . S
N308 C310 1.356 . S
N308 H320 0.984 . S
N308 H321 0.985 . S
N309 C311 1.356 . S
N309 H314 0.984 . S
N309 H315 0.985 . S
C310 C304 1.379 . S
C310 C307 1.363 . S
C310 N308 1.356 . S
C311 C305 1.363 . S
C311 C306 1.379 . S
C311 N309 1.356 . S
N312 C304 1.356 . S
N312 H318 0.984 . S
N312 H319 0.984 . S
N313 C306 1.356 . S
N313 H316 0.984 . S
N313 H317 0.985 . S
H314 N309 0.984 . S
H315 N309 0.985 . S
H316 N313 0.984 . S
H317 N313 0.985 . S
H318 N312 0.984 . S
H319 N312 0.984 . S
H320 N308 0.984 . S
H321 N308 0.985 . S
C322 C323 1.363 . S
C322 C328 1.379 . S
C322 N330 1.356 . S
C323 C322 1.363 . S
C323 C329 1.363 . S
C324 C325 1.363 . S
C324 C329 1.379 . S
C324 N331 1.356 . S
C325 C324 1.363 . S
C325 C328 1.363 . S
N326 C328 1.356 . S
N326 H338 0.984 . S
N326 H339 0.985 . S
N327 C329 1.356 . S
N327 H332 0.984 . S
N327 H333 0.985 . S
C328 C322 1.379 . S
C328 C325 1.363 . S
C328 N326 1.356 . S
C329 C323 1.363 . S
C329 C324 1.379 . S
C329 N327 1.356 . S
N330 C322 1.356 . S
N330 H336 0.984 . S
N330 H337 0.984 . S
N331 C324 1.356 . S
N331 H334 0.984 . S
N331 H335 0.985 . S
H332 N327 0.984 . S
H333 N327 0.985 . S
H334 N331 0.984 . S
H335 N331 0.985 . S
H336 N330 0.984 . S
H337 N330 0.984 . S
H338 N326 0.984 . S
H339 N326 0.985 . S
C340 C341 1.363 . S
C340 C346 1.379 . S
C340 N348 1.356 . S
C341 C340 1.363 . S
C341 C347 1.363 . S
C342 C343 1.363 . S
C342 C347 1.379 . S
C342 N349 1.356 . S
C343 C342 1.363 . S
C343 C346 1.363 . S
N344 C346 1.356 . S
N344 H356 0.984 . S
N344 H357 0.985 . S
N345 C347 1.356 . S
N345 H350 0.984 . S
N345 H351 0.985 . S
C346 C340 1.379 . S
C346 C343 1.363 . S
C346 N344 1.356 . S
C347 C341 1.363 . S
C347 C342 1.379 . S
C347 N345 1.356 . S
N348 C340 1.356 . S
N348 H354 0.984 . S
N348 H355 0.984 . S
N349 C342 1.356 . S
N349 H352 0.984 . S
N349 H353 0.985 . S
H350 N345 0.984 . S
H351 N345 0.985 . S
H352 N349 0.984 . S
H353 N349 0.985 . S
H354 N348 0.984 . S
H355 N348 0.984 . S
H356 N344 0.984 . S
H357 N344 0.985 . S
C358 C359 1.363 . S
C358 C364 1.379 . S
C358 N366 1.356 . S
C359 C358 1.363 . S
C359 C365 1.363 . S
C360 C361 1.363 . S
C360 C365 1.379 . S
C360 N367 1.356 1_655 S
C361 C360 1.363 . S
C361 C364 1.363 . S
N362 C364 1.356 . S
N362 H374 0.984 . S
N362 H375 0.985 . S
N363 C365 1.356 . S
N363 H368 0.984 . S
N363 H369 0.985 1_655 S
C364 C358 1.379 . S
C364 C361 1.363 . S
C364 N362 1.356 . S
C365 C359 1.363 . S
C365 C360 1.379 . S
C365 N363 1.356 . S
N366 C358 1.356 . S
N366 H372 0.984 . S
N366 H373 0.984 . S
N367 C360 1.356 1_455 S
N367 H370 0.984 . S
N367 H371 0.985 . S
H368 N363 0.984 . S
H369 N363 0.985 1_455 S
H370 N367 0.984 . S
H371 N367 0.985 . S
H372 N366 0.984 . S
H373 N366 0.984 . S
H374 N362 0.984 . S
H375 N362 0.985 . S
C376 C377 1.363 . S
C376 C382 1.379 . S
C376 N384 1.356 . S
C377 C376 1.363 . S
C377 C383 1.363 . S
C378 C379 1.363 . S
C378 C383 1.379 . S
C378 N385 1.356 . S
C379 C378 1.363 . S
C379 C382 1.363 . S
N380 C382 1.356 . S
N380 H392 0.984 . S
N380 H393 0.985 . S
N381 C383 1.356 . S
N381 H386 0.984 . S
N381 H387 0.985 . S
C382 C376 1.379 . S
C382 C379 1.363 . S
C382 N380 1.356 . S
C383 C377 1.363 . S
C383 C378 1.379 . S
C383 N381 1.356 . S
N384 C376 1.356 . S
N384 H390 0.984 . S
N384 H391 0.984 . S
N385 C378 1.356 . S
N385 H388 0.984 . S
N385 H389 0.985 . S
H386 N381 0.984 . S
H387 N381 0.985 . S
H388 N385 0.984 . S
H389 N385 0.985 . S
H390 N384 0.984 . S
H391 N384 0.984 . S
H392 N380 0.984 . S
H393 N380 0.985 . S
C394 C395 1.363 . S
C394 C400 1.379 . S
C394 N402 1.356 . S
C395 C394 1.363 . S
C395 C401 1.363 . S
C396 C397 1.363 . S
C396 C401 1.379 . S
C396 N403 1.356 . S
C397 C396 1.363 . S
C397 C400 1.363 . S
N398 C400 1.356 . S
N398 H410 0.984 . S
N398 H411 0.985 . S
N399 C401 1.356 . S
N399 H404 0.984 . S
N399 H405 0.985 . S
C400 C394 1.379 . S
C400 C397 1.363 . S
C400 N398 1.356 . S
C401 C395 1.363 . S
C401 C396 1.379 . S
C401 N399 1.356 . S
N402 C394 1.356 . S
N402 H408 0.984 . S
N402 H409 0.984 . S
N403 C396 1.356 . S
N403 H406 0.984 . S
N403 H407 0.985 . S
H404 N399 0.984 . S
H405 N399 0.985 . S
H406 N403 0.984 . S
H407 N403 0.985 . S
H408 N402 0.984 . S
H409 N402 0.984 . S
H410 N398 0.984 . S
H411 N398 0.985 . S
C199 C132 1.616 . S
C197 C119 1.620 . S
C215 C23 1.463 . S
C217 C175 1.553 . S
C233 C55 1.492 . S
C235 C141 1.616 . S
C251 C87 1.566 . S
C253 C166 1.553 . S
C271 C128 1.608 . S
C269 C17 1.494 . S
C289 C170 1.688 . S
C287 C61 1.519 . S
C305 C93 1.610 . S
C307 C136 1.596 . S
C323 C113 1.690 . S
C325 C162 1.685 . S
C343 C191 1.685 . S
C341 C49 1.537 . S
C361 C157 1.608 . S
C359 C81 1.617 . S
C379 C179 1.688 . S
C377 C125 1.698 . S
C395 C29 1.470 . S
C397 C145 1.596 . S
