# Generated by pormake.
# Topology ptr, (4,4)-cn, num edge types: 1
# Building blocks:
#     Node 0, Type 0, BuildingBlock: CEKHIL_clean_sbu_0, # of connection points: 4
#     Node 1, Type 0, BuildingBlock: CEKHIL_clean_sbu_0, # of connection points: 4
#     Node 2, Type 0, BuildingBlock: CEKHIL_clean_sbu_0, # of connection points: 4
#     Node 3, Type 0, BuildingBlock: CEKHIL_clean_sbu_0, # of connection points: 4
#     Node 4, Type 0, BuildingBlock: CEKHIL_clean_sbu_0, # of connection points: 4
#     Node 5, Type 0, BuildingBlock: CEKHIL_clean_sbu_0, # of connection points: 4
#     Node 6, Type 0, BuildingBlock: CEKHIL_clean_sbu_0, # of connection points: 4
#     Node 7, Type 0, BuildingBlock: CEKHIL_clean_sbu_0, # of connection points: 4
#     Node 8, Type 0, BuildingBlock: CEKHIL_clean_sbu_0, # of connection points: 4
#     Node 9, Type 0, BuildingBlock: CEKHIL_clean_sbu_0, # of connection points: 4
#     Node 10, Type 0, BuildingBlock: CEKHIL_clean_sbu_0, # of connection points: 4
#     Node 11, Type 0, BuildingBlock: CEKHIL_clean_sbu_0, # of connection points: 4
#     Node 12, Type 0, BuildingBlock: CEKHIL_clean_sbu_0, # of connection points: 4
#     Node 13, Type 0, BuildingBlock: CEKHIL_clean_sbu_0, # of connection points: 4
#     Node 14, Type 0, BuildingBlock: CEKHIL_clean_sbu_0, # of connection points: 4
#     Node 15, Type 0, BuildingBlock: CEKHIL_clean_sbu_0, # of connection points: 4
#     Node 16, Type 0, BuildingBlock: CEKHIL_clean_sbu_0, # of connection points: 4
#     Node 17, Type 0, BuildingBlock: CEKHIL_clean_sbu_0, # of connection points: 4
#     Node 18, Type 1, BuildingBlock: GIZVER_clean_linker_0, # of connection points: 4
#     Node 19, Type 1, BuildingBlock: GIZVER_clean_linker_0, # of connection points: 4
#     Node 20, Type 1, BuildingBlock: GIZVER_clean_linker_0, # of connection points: 4
#     Node 21, Type 1, BuildingBlock: GIZVER_clean_linker_0, # of connection points: 4
#     Node 22, Type 1, BuildingBlock: GIZVER_clean_linker_0, # of connection points: 4
#     Node 23, Type 1, BuildingBlock: GIZVER_clean_linker_0, # of connection points: 4
#     Node 24, Type 1, BuildingBlock: GIZVER_clean_linker_0, # of connection points: 4
#     Node 25, Type 1, BuildingBlock: GIZVER_clean_linker_0, # of connection points: 4
#     Node 26, Type 1, BuildingBlock: GIZVER_clean_linker_0, # of connection points: 4
#     Node 27, Type 1, BuildingBlock: GIZVER_clean_linker_0, # of connection points: 4
#     Node 28, Type 1, BuildingBlock: GIZVER_clean_linker_0, # of connection points: 4
#     Node 29, Type 1, BuildingBlock: GIZVER_clean_linker_0, # of connection points: 4
#     Node 30, Type 1, BuildingBlock: GIZVER_clean_linker_0, # of connection points: 4
#     Node 31, Type 1, BuildingBlock: GIZVER_clean_linker_0, # of connection points: 4
#     Node 32, Type 1, BuildingBlock: GIZVER_clean_linker_0, # of connection points: 4
#     Node 33, Type 1, BuildingBlock: GIZVER_clean_linker_0, # of connection points: 4
#     Node 34, Type 1, BuildingBlock: GIZVER_clean_linker_0, # of connection points: 4
#     Node 35, Type 1, BuildingBlock: GIZVER_clean_linker_0, # of connection points: 4
#     Edge 36, Type (0, 1), BuildingBlock: CIFDUS_clean_linker_0, # of connection points: 2
#     Edge 37, Type (0, 1), BuildingBlock: CIFDUS_clean_linker_0, # of connection points: 2
#     Edge 38, Type (0, 1), BuildingBlock: CIFDUS_clean_linker_0, # of connection points: 2
#     Edge 39, Type (0, 1), BuildingBlock: CIFDUS_clean_linker_0, # of connection points: 2
#     Edge 40, Type (0, 1), BuildingBlock: CIFDUS_clean_linker_0, # of connection points: 2
#     Edge 41, Type (0, 1), BuildingBlock: CIFDUS_clean_linker_0, # of connection points: 2
#     Edge 42, Type (0, 1), BuildingBlock: CIFDUS_clean_linker_0, # of connection points: 2
#     Edge 43, Type (0, 1), BuildingBlock: CIFDUS_clean_linker_0, # of connection points: 2
#     Edge 44, Type (0, 1), BuildingBlock: CIFDUS_clean_linker_0, # of connection points: 2
#     Edge 45, Type (0, 1), BuildingBlock: CIFDUS_clean_linker_0, # of connection points: 2
#     Edge 46, Type (0, 1), BuildingBlock: CIFDUS_clean_linker_0, # of connection points: 2
#     Edge 47, Type (0, 1), BuildingBlock: CIFDUS_clean_linker_0, # of connection points: 2
#     Edge 48, Type (0, 1), BuildingBlock: CIFDUS_clean_linker_0, # of connection points: 2
#     Edge 49, Type (0, 1), BuildingBlock: CIFDUS_clean_linker_0, # of connection points: 2
#     Edge 50, Type (0, 1), BuildingBlock: CIFDUS_clean_linker_0, # of connection points: 2
#     Edge 51, Type (0, 1), BuildingBlock: CIFDUS_clean_linker_0, # of connection points: 2
#     Edge 52, Type (0, 1), BuildingBlock: CIFDUS_clean_linker_0, # of connection points: 2
#     Edge 53, Type (0, 1), BuildingBlock: CIFDUS_clean_linker_0, # of connection points: 2
#     Edge 54, Type (0, 1), BuildingBlock: CIFDUS_clean_linker_0, # of connection points: 2
#     Edge 55, Type (0, 1), BuildingBlock: CIFDUS_clean_linker_0, # of connection points: 2
#     Edge 56, Type (0, 1), BuildingBlock: CIFDUS_clean_linker_0, # of connection points: 2
#     Edge 57, Type (0, 1), BuildingBlock: CIFDUS_clean_linker_0, # of connection points: 2
#     Edge 58, Type (0, 1), BuildingBlock: CIFDUS_clean_linker_0, # of connection points: 2
#     Edge 59, Type (0, 1), BuildingBlock: CIFDUS_clean_linker_0, # of connection points: 2
#     Edge 60, Type (0, 1), BuildingBlock: CIFDUS_clean_linker_0, # of connection points: 2
#     Edge 61, Type (0, 1), BuildingBlock: CIFDUS_clean_linker_0, # of connection points: 2
#     Edge 62, Type (0, 1), BuildingBlock: CIFDUS_clean_linker_0, # of connection points: 2
#     Edge 63, Type (0, 1), BuildingBlock: CIFDUS_clean_linker_0, # of connection points: 2
#     Edge 64, Type (0, 1), BuildingBlock: CIFDUS_clean_linker_0, # of connection points: 2
#     Edge 65, Type (0, 1), BuildingBlock: CIFDUS_clean_linker_0, # of connection points: 2
#     Edge 66, Type (0, 1), BuildingBlock: CIFDUS_clean_linker_0, # of connection points: 2
#     Edge 67, Type (0, 1), BuildingBlock: CIFDUS_clean_linker_0, # of connection points: 2
#     Edge 68, Type (0, 1), BuildingBlock: CIFDUS_clean_linker_0, # of connection points: 2
#     Edge 69, Type (0, 1), BuildingBlock: CIFDUS_clean_linker_0, # of connection points: 2
#     Edge 70, Type (0, 1), BuildingBlock: CIFDUS_clean_linker_0, # of connection points: 2
#     Edge 71, Type (0, 1), BuildingBlock: CIFDUS_clean_linker_0, # of connection points: 2
#     Edge 72, Type (0, 1), BuildingBlock: CIFDUS_clean_linker_0, # of connection points: 2
#     Edge 73, Type (0, 1), BuildingBlock: CIFDUS_clean_linker_0, # of connection points: 2
#     Edge 74, Type (0, 1), BuildingBlock: CIFDUS_clean_linker_0, # of connection points: 2
#     Edge 75, Type (0, 1), BuildingBlock: CIFDUS_clean_linker_0, # of connection points: 2
#     Edge 76, Type (0, 1), BuildingBlock: CIFDUS_clean_linker_0, # of connection points: 2
#     Edge 77, Type (0, 1), BuildingBlock: CIFDUS_clean_linker_0, # of connection points: 2
#     Edge 78, Type (0, 1), BuildingBlock: CIFDUS_clean_linker_0, # of connection points: 2
#     Edge 79, Type (0, 1), BuildingBlock: CIFDUS_clean_linker_0, # of connection points: 2
#     Edge 80, Type (0, 1), BuildingBlock: CIFDUS_clean_linker_0, # of connection points: 2
#     Edge 81, Type (0, 1), BuildingBlock: CIFDUS_clean_linker_0, # of connection points: 2
#     Edge 82, Type (0, 1), BuildingBlock: CIFDUS_clean_linker_0, # of connection points: 2
#     Edge 83, Type (0, 1), BuildingBlock: CIFDUS_clean_linker_0, # of connection points: 2
#     Edge 84, Type (0, 1), BuildingBlock: CIFDUS_clean_linker_0, # of connection points: 2
#     Edge 85, Type (0, 1), BuildingBlock: CIFDUS_clean_linker_0, # of connection points: 2
#     Edge 86, Type (0, 1), BuildingBlock: CIFDUS_clean_linker_0, # of connection points: 2
#     Edge 87, Type (0, 1), BuildingBlock: CIFDUS_clean_linker_0, # of connection points: 2
#     Edge 88, Type (0, 1), BuildingBlock: CIFDUS_clean_linker_0, # of connection points: 2
#     Edge 89, Type (0, 1), BuildingBlock: CIFDUS_clean_linker_0, # of connection points: 2
#     Edge 90, Type (0, 1), BuildingBlock: CIFDUS_clean_linker_0, # of connection points: 2
#     Edge 91, Type (0, 1), BuildingBlock: CIFDUS_clean_linker_0, # of connection points: 2
#     Edge 92, Type (0, 1), BuildingBlock: CIFDUS_clean_linker_0, # of connection points: 2
#     Edge 93, Type (0, 1), BuildingBlock: CIFDUS_clean_linker_0, # of connection points: 2
#     Edge 94, Type (0, 1), BuildingBlock: CIFDUS_clean_linker_0, # of connection points: 2
#     Edge 95, Type (0, 1), BuildingBlock: CIFDUS_clean_linker_0, # of connection points: 2
#     Edge 96, Type (0, 1), BuildingBlock: CIFDUS_clean_linker_0, # of connection points: 2
#     Edge 97, Type (0, 1), BuildingBlock: CIFDUS_clean_linker_0, # of connection points: 2
#     Edge 98, Type (0, 1), BuildingBlock: CIFDUS_clean_linker_0, # of connection points: 2
#     Edge 99, Type (0, 1), BuildingBlock: CIFDUS_clean_linker_0, # of connection points: 2
#     Edge 100, Type (0, 1), BuildingBlock: CIFDUS_clean_linker_0, # of connection points: 2
#     Edge 101, Type (0, 1), BuildingBlock: CIFDUS_clean_linker_0, # of connection points: 2
#     Edge 102, Type (0, 1), BuildingBlock: CIFDUS_clean_linker_0, # of connection points: 2
#     Edge 103, Type (0, 1), BuildingBlock: CIFDUS_clean_linker_0, # of connection points: 2
#     Edge 104, Type (0, 1), BuildingBlock: CIFDUS_clean_linker_0, # of connection points: 2
#     Edge 105, Type (0, 1), BuildingBlock: CIFDUS_clean_linker_0, # of connection points: 2
#     Edge 106, Type (0, 1), BuildingBlock: CIFDUS_clean_linker_0, # of connection points: 2
#     Edge 107, Type (0, 1), BuildingBlock: CIFDUS_clean_linker_0, # of connection points: 2
# Relax obj value: 0.048
# Max RMSD: 0.106
# Mean RMSD: 0.077
data_MOF--net-ptr--node1-CEKHIL_clean_sbu_0--node2-GIZVER_clean_linker_0--edge1-CIFDUS_clean_linker_0
_symmetry_space_group_name_H-M    P1
_symmetry_Int_Tables_number       1
_symmetry_cell_setting            triclinic
loop_
_symmetry_equiv_pos_as_xyz
'x, y, z'
_cell_length_a     70.400213
_cell_length_b     69.676687
_cell_length_c     43.583998
_cell_angle_alpha  91.27895
_cell_angle_beta   89.71044
_cell_angle_gamma 121.04212
loop_
_atom_site_label
_atom_site_type_symbol
_atom_site_fract_x
_atom_site_fract_y
_atom_site_fract_z
_atom_type_partial_charge
Co0 Co 0.00954 0.3696 0.00629 0.0
O1 O 0.02361 0.35559 0.02567 0.0
O2 O 0.04166 0.38735 0.00071 0.0
C3 C 0.98242 0.33785 0.98366 0.0
O4 O 1.00001 0.38815 0.98207 0.0
Co5 Co 0.96068 0.35452 0.02325 0.0
O6 O 0.96313 0.37259 0.98736 0.0
C7 C 0.99736 0.38529 0.06478 0.0
C8 C 0.04231 0.37175 0.01577 0.0
C9 C 0.98151 0.38676 0.97522 0.0
O10 O 0.01189 0.38705 0.04514 0.0
O11 O 0.97649 0.37172 0.0614 0.0
O12 O 1.00171 0.34913 0.9708 0.0
O13 O 0.98076 0.34493 0.01047 0.0
Co14 Co 0.65131 0.64328 0.00634 0.0
O15 O 0.67546 0.65763 0.9779 0.0
O16 O 0.6718 0.63285 0.01192 0.0
C17 C 0.65152 0.67461 0.02105 0.0
O18 O 0.62942 0.62553 0.04016 0.0
Co19 Co 0.60719 0.64292 -0.00281 0.0
O20 O 0.59864 0.62763 0.03688 0.0
C21 C 0.61533 0.61149 0.96109 0.0
C22 C 0.68333 0.64628 0.99007 0.0
C23 C 0.6102 0.62084 0.04991 0.0
O24 O 0.63361 0.61818 0.9757 0.0
O25 O 0.60327 0.62016 0.96503 0.0
O26 O 0.66554 0.67001 0.03306 0.0
O27 O 0.6392 0.66133 -0.00088 0.0
Co28 Co 0.36308 0.99824 0.0025 0.0
O29 O 0.35312 0.01258 0.9747 0.0
O30 O 0.3809 0.03049 0.00782 0.0
C31 C 0.32883 0.97202 0.01838 0.0
O32 O 0.37766 0.99011 0.03606 0.0
Co33 Co 0.34988 0.94823 -0.00415 0.0
O34 O 0.36535 0.95325 0.03563 0.0
C35 C 0.38551 0.98254 0.95711 0.0
C36 C 0.36832 0.03149 0.98701 0.0
C37 C 0.37718 0.9729 0.04723 0.0
O38 O 0.38452 0.99851 0.97109 0.0
O39 O 0.37211 0.96177 0.96229 0.0
O40 O 0.33872 0.99223 0.0301 0.0
O41 O 0.3391 0.96873 -0.00377 0.0
Co42 Co 0.00743 0.6421 0.00197 0.0
O43 O 0.99323 0.65297 0.97627 0.0
O44 O 0.97517 0.62359 0.00582 0.0
C45 C 0.0325 0.67636 0.02162 0.0
O46 O 0.01747 0.62696 0.03251 0.0
Co47 Co 0.05751 0.65895 0.99065 0.0
O48 O 0.05475 0.64463 0.03034 0.0
C49 C 0.02291 0.62195 0.95205 0.0
C50 C 0.97446 0.63743 0.9869 0.0
C51 C 0.03632 0.63036 0.04221 0.0
O52 O 0.00736 0.62205 0.96765 0.0
O53 O 0.04355 0.63621 0.95646 0.0
O54 O 0.01271 0.66513 0.03297 0.0
O55 O 0.03581 0.66745 -0.00249 0.0
Co56 Co 0.3739 0.36485 0.01727 0.0
O57 O 0.34845 0.35674 0.04281 0.0
O58 O 0.36062 0.38229 0.00677 0.0
C59 C 0.36509 0.32918 0.00669 0.0
O60 O 0.39861 0.3771 0.98519 0.0
Co61 Co 0.40923 0.35229 0.03288 0.0
O62 O 0.4199 0.36201 0.99075 0.0
C63 C 0.41039 0.39096 0.06476 0.0
C64 C 0.34606 0.37123 0.02776 0.0
C65 C 0.41433 0.37401 0.97616 0.0
O66 O 0.39432 0.38882 0.04806 0.0
O67 O 0.41739 0.37726 0.06336 0.0
O68 O 0.35577 0.33802 0.9914 0.0
O69 O 0.37799 0.34143 0.02885 0.0
Co70 Co 0.63452 0.99606 0.00822 0.0
O71 O 0.64543 0.98012 0.03055 0.0
O72 O 0.61561 0.96401 0.00057 0.0
C73 C 0.66791 0.02216 0.98975 0.0
O74 O 0.61904 0.00694 0.9799 0.0
Co75 Co 0.64845 0.04441 0.02568 0.0
O76 O 0.63683 0.04443 0.98445 0.0
C77 C 0.61356 0.00806 0.06162 0.0
C78 C 0.62912 0.9619 0.01846 0.0
C79 C 0.62297 0.02613 0.97082 0.0
O80 O 0.61515 0.99403 0.04376 0.0
O81 O 0.62601 0.02931 0.05917 0.0
O82 O 0.65626 0.0025 0.97668 0.0
O83 O 0.66001 0.02499 0.0153 0.0
Co84 Co 0.68222 0.70689 0.3457 0.0
O85 O 0.69483 0.6955 0.37408 0.0
O86 O 0.71425 0.72539 0.34554 0.0
C87 C 0.65767 0.67314 0.32457 0.0
O88 O 0.6759 0.72315 0.31265 0.0
Co89 Co 0.63262 0.69318 0.346 0.0
O90 O 0.63963 0.71117 0.30855 0.0
C91 C 0.66347 0.72474 0.39338 0.0
C92 C 0.71406 0.71167 0.3654 0.0
C93 C 0.6596 0.7234 0.2998 0.0
O94 O 0.68025 0.72639 0.37895 0.0
O95 O 0.64334 0.71092 0.38542 0.0
O96 O 0.67818 0.68391 0.31552 0.0
O97 O 0.65305 0.68238 0.34699 0.0
Co98 Co 0.3072 0.98148 0.33609 0.0
O99 O 0.33285 0.9954 0.31033 0.0
O100 O 0.32429 0.96663 0.3396 0.0
C101 C 0.31209 0.01391 0.35578 0.0
O102 O 0.28233 0.96351 0.36667 0.0
Co103 Co 0.26902 0.99138 0.32646 0.0
O104 O 0.25897 0.97659 0.36645 0.0
C105 C 0.27283 0.95925 0.28512 0.0
C106 C 0.3381 0.98139 0.32045 0.0
C107 C 0.26565 0.9643 0.37755 0.0
O108 O 0.28858 0.96041 0.30156 0.0
O109 O 0.26447 0.97157 0.28994 0.0
O110 O 0.3227 0.0051 0.3675 0.0
O111 O 0.30041 0.00395 0.33165 0.0
Co112 Co 0.02977 0.34105 0.33071 0.0
O113 O 0.01772 0.35471 0.30578 0.0
O114 O 0.04544 0.3732 0.33887 0.0
C115 C 0.99665 0.31248 0.34615 0.0
O116 O 0.04578 0.3327 0.36174 0.0
Co117 Co 0.02056 0.29327 0.31559 0.0
O118 O 0.03486 0.29629 0.35578 0.0
C119 C 0.05464 0.33149 0.28069 0.0
C120 C 0.03182 0.3736 0.31922 0.0
C121 C 0.04576 0.31506 0.37009 0.0
O122 O 0.05178 0.3451 0.29778 0.0
O123 O 0.04287 0.31016 0.28292 0.0
O124 O 0.00557 0.33213 0.35947 0.0
O125 O 0.00697 0.31112 0.32234 0.0
Co126 Co 0.67009 0.97606 0.34085 0.0
O127 O 0.65969 0.99145 0.31634 0.0
O128 O 0.63908 0.96542 0.34971 0.0
C129 C 0.70234 0.00723 0.35454 0.0
O130 O 0.67556 0.9573 0.37135 0.0
Co131 Co 0.71335 0.97648 0.32394 0.0
O132 O 0.7096 0.96256 0.36422 0.0
C133 C 0.67219 0.94766 0.28868 0.0
C134 C 0.64067 0.97973 0.32965 0.0
C135 C 0.69153 0.95427 0.37907 0.0
O136 O 0.66098 0.95234 0.30753 0.0
O137 O 0.69326 0.95665 0.28998 0.0
O138 O 0.6842 1.00188 0.36922 0.0
O139 O 0.70016 0.99461 0.33109 0.0
Co140 Co 0.03535 0.69813 0.34151 0.0
O141 O 0.00743 0.68727 0.36169 0.0
O142 O 0.02604 0.71991 0.33868 0.0
C143 C 0.02575 0.6659 0.31596 0.0
O144 O 0.06402 0.71404 0.31688 0.0
Co145 Co 0.06353 0.67651 0.35538 0.0
O146 O 0.08136 0.69458 0.32028 0.0
C147 C 0.06282 0.70846 0.39991 0.0
C148 C 0.00851 0.70559 0.35367 0.0
C149 C 0.07962 0.71039 0.30915 0.0
O150 O 0.05213 0.71318 0.38065 0.0
O151 O 0.06699 0.69278 0.39542 0.0
O152 O 0.02017 0.67961 0.30533 0.0
O153 O 0.0348 0.67096 0.34288 0.0
Co154 Co 0.30304 0.34632 0.34076 0.0
O155 O 0.31263 0.3311 0.36719 0.0
O156 O 0.28595 0.31419 0.33221 0.0
C157 C 0.33743 0.37361 0.32763 0.0
O158 O 0.2896 0.35676 0.30826 0.0
Co159 Co 0.31424 0.3944 0.35726 0.0
O160 O 0.30544 0.39411 0.31409 0.0
C161 C 0.27716 0.35662 0.38858 0.0
C162 C 0.29806 0.31267 0.35337 0.0
C163 C 0.29337 0.37588 0.29903 0.0
O164 O 0.28019 0.34315 0.37152 0.0
O165 O 0.28987 0.37795 0.3879 0.0
O166 O 0.32795 0.35406 0.31399 0.0
O167 O 0.32678 0.37551 0.3507 0.0
Co168 Co 0.34983 0.04246 0.65978 0.0
O169 O 0.35986 0.02772 0.68668 0.0
O170 O 0.38136 0.05522 0.65545 0.0
C171 C 0.31949 0.01087 0.64219 0.0
O172 O 0.34638 0.06138 0.62775 0.0
Co173 Co 0.30489 0.04031 0.66711 0.0
O174 O 0.3133 0.05888 0.63018 0.0
C175 C 0.3423 0.06965 0.70858 0.0
C176 C 0.37954 0.04112 0.6759 0.0
C177 C 0.33237 0.06663 0.61832 0.0
O178 O 0.35527 0.06531 0.69302 0.0
O179 O 0.32149 0.06028 0.70313 0.0
O180 O 0.33885 0.01718 0.63057 0.0
O181 O 0.31921 0.02282 0.66503 0.0
Co182 Co 0.96849 0.29965 0.67808 0.0
O183 O 0.99354 0.31652 0.65207 0.0
O184 O 0.98599 0.28527 0.67456 0.0
C185 C 0.97362 0.33 0.70541 0.0
O186 O 0.94447 0.27817 0.70749 0.0
Co187 Co 0.92949 0.30829 0.67696 0.0
O188 O 0.91772 0.28668 0.71069 0.0
C189 C 0.93428 0.28234 0.62652 0.0
C190 C 0.99922 0.30191 0.65728 0.0
C191 C 0.92606 0.27503 0.7185 0.0
O192 O 0.94968 0.28179 0.64157 0.0
O193 O 0.9257 0.29384 0.63534 0.0
O194 O 0.98442 0.32016 0.7123 0.0
O195 O 0.96125 0.32217 0.68117 0.0
Co196 Co 0.69764 0.67173 0.67887 0.0
O197 O 0.68711 0.68763 0.65514 0.0
O198 O 0.71535 0.70365 0.68781 0.0
C199 C 0.66385 0.64399 0.69417 0.0
O200 O 0.71293 0.66159 0.70857 0.0
Co201 Co 0.68581 0.62326 0.66253 0.0
O202 O 0.70128 0.62513 0.70126 0.0
C203 C 0.72125 0.66099 0.62834 0.0
C204 C 0.70269 0.70586 0.66841 0.0
C205 C 0.71288 0.64372 0.71576 0.0
O206 O 0.71892 0.67495 0.64538 0.0
O207 O 0.70885 0.6397 0.63043 0.0
O208 O 0.67375 0.66348 0.70812 0.0
O209 O 0.67367 0.6424 0.66995 0.0
Co210 Co 0.32343 0.30558 0.68513 0.0
O211 O 0.30966 0.31666 0.65862 0.0
O212 O 0.29162 0.28871 0.69082 0.0
C213 C 0.35066 0.33955 0.7025 0.0
O214 O 0.33167 0.28962 0.71639 0.0
Co215 Co 0.37163 0.31657 0.675 0.0
O216 O 0.36769 0.3004 0.71347 0.0
C217 C 0.33554 0.28348 0.63421 0.0
C218 C 0.29095 0.30148 0.67013 0.0
C219 C 0.3487 0.28902 0.72576 0.0
O220 O 0.321 0.28414 0.65143 0.0
O221 O 0.35646 0.29624 0.63854 0.0
O222 O 0.33106 0.32997 0.71469 0.0
O223 O 0.35275 0.32914 0.67905 0.0
Co224 Co 0.6956 0.03391 0.67241 0.0
O225 O 0.6696 0.02181 0.69765 0.0
O226 O 0.68087 0.05062 0.66689 0.0
C227 C 0.68915 1.00039 0.65456 0.0
O228 O 0.72068 0.0505 0.64187 0.0
Co229 Co 0.733 0.02381 0.68354 0.0
O230 O 0.74549 0.03949 0.64468 0.0
C231 C 0.73074 0.05793 0.72231 0.0
C232 C 0.66641 0.03701 0.68639 0.0
C233 C 0.73829 0.05096 0.63245 0.0
O234 O 0.71425 0.0554 0.70638 0.0
O235 O 0.73967 0.04609 0.71793 0.0
O236 O 0.6793 0.00982 0.64223 0.0
O237 O 0.70128 0.01063 0.67844 0.0
Co238 Co 0.98554 0.67646 0.67948 0.0
O239 O 0.99983 0.66697 0.70782 0.0
O240 O 0.97622 0.64526 0.67144 0.0
C241 C 0.01631 0.70922 0.66785 0.0
O242 O 0.96828 0.68037 0.64499 0.0
Co243 Co 0.98292 0.71891 0.69243 0.0
O244 O 0.96921 0.71298 0.65118 0.0
C245 C 0.95268 0.67753 0.72482 0.0
C246 C 0.98935 0.64751 0.69392 0.0
C247 C 0.96351 0.69494 0.63608 0.0
O248 O 0.96004 0.66707 0.70871 0.0
O249 O 0.96057 0.69864 0.72317 0.0
O250 O 0.01226 0.69058 0.65464 0.0
O251 O 1.00284 0.7074 0.68944 0.0
H252 H 0.15768 0.3415 0.15137 0.0
H253 H 0.16258 0.36698 0.06072 0.0
H254 H 0.12305 0.37512 0.12885 0.0
H255 H 0.16708 0.32595 0.1048 0.0
H256 H 0.174 0.34064 0.06979 0.0
H257 H 0.19412 0.35349 0.15356 0.0
H258 H 0.26064 0.37364 0.12825 0.0
H259 H 0.2111 0.35377 0.05819 0.0
C260 C 0.1546 0.35138 0.13558 0.0
C261 C 0.14024 0.35894 0.14434 0.0
C262 C 0.16361 0.35496 0.10582 0.0
C263 C 0.15736 0.36571 0.08439 0.0
C264 C 0.14297 0.37328 0.09294 0.0
C265 C 0.13515 0.37043 0.12305 0.0
C266 C 0.17561 0.34304 0.09517 0.0
C267 C 0.19994 0.3544 0.10453 0.0
C268 C 0.2063 0.35758 0.13581 0.0
C269 C 0.22828 0.36488 0.14445 0.0
C270 C 0.24397 0.36917 0.12165 0.0
C271 C 0.23792 0.36506 0.09065 0.0
C272 C 0.21594 0.3578 0.08212 0.0
H273 H 0.67004 0.82391 0.16675 0.0
H274 H 0.67162 0.81005 0.06994 0.0
H275 H 0.654 0.75851 0.13543 0.0
H276 H 0.69356 0.85443 0.12656 0.0
H277 H 0.6868 0.84779 0.08699 0.0
H278 H 0.66491 0.85321 0.16295 0.0
H279 H 0.62579 0.87757 0.12346 0.0
H280 H 0.66157 0.85674 0.06529 0.0
C281 C 0.66682 0.81226 0.14788 0.0
C282 C 0.66082 0.79021 0.15433 0.0
C283 C 0.67018 0.81955 0.11726 0.0
C284 C 0.66788 0.80445 0.09339 0.0
C285 C 0.66186 0.7824 0.09997 0.0
C286 C 0.65795 0.77536 0.13028 0.0
C287 C 0.67957 0.84405 0.11041 0.0
C288 C 0.66278 0.8514 0.11375 0.0
C289 C 0.65724 0.85559 0.14316 0.0
C290 C 0.64412 0.86532 0.14705 0.0
C291 C 0.63575 0.86991 0.12083 0.0
C292 C 0.6428 0.86794 0.09138 0.0
C293 C 0.6557 0.85792 0.08789 0.0
H294 H 0.17911 0.79587 0.17837 0.0
H295 H 0.16793 0.78666 0.08063 0.0
H296 H 0.11293 0.7601 0.14311 0.0
H297 H 0.20787 0.79757 0.141 0.0
H298 H 0.20396 0.79823 0.10074 0.0
H299 H 0.211 0.83025 0.17528 0.0
H300 H 0.25072 0.89381 0.13395 0.0
H301 H 0.22079 0.83402 0.07707 0.0
C302 C 0.16797 0.79038 0.1588 0.0
C303 C 0.14503 0.77916 0.16375 0.0
C304 C 0.17641 0.79364 0.12873 0.0
C305 C 0.16149 0.78479 0.1037 0.0
C306 C 0.13842 0.77243 0.10849 0.0
C307 C 0.13053 0.77035 0.13863 0.0
C308 C 0.20104 0.80381 0.12347 0.0
C309 C 0.21375 0.82913 0.12576 0.0
C310 C 0.21758 0.83991 0.15475 0.0
C311 C 0.23027 0.86327 0.15736 0.0
C312 C 0.23974 0.87583 0.1312 0.0
C313 C 0.23643 0.86569 0.10208 0.0
C314 C 0.22324 0.84216 0.09939 0.0
H315 H 0.37585 0.20675 0.85373 0.0
H316 H 0.36078 0.20697 0.94964 0.0
H317 H 0.33924 0.23692 0.88411 0.0
H318 H 0.39821 0.20295 0.89748 0.0
H319 H 0.38658 0.19628 0.93486 0.0
H320 H 0.37233 0.17381 0.85234 0.0
H321 H 0.35284 0.10729 0.8775 0.0
H322 H 0.37172 0.15816 0.94797 0.0
C323 C 0.36702 0.20963 0.87182 0.0
C324 C 0.35583 0.2209 0.86497 0.0
C325 C 0.36795 0.20338 0.90217 0.0
C326 C 0.35868 0.20999 0.92596 0.0
C327 C 0.34827 0.2221 0.91947 0.0
C328 C 0.34622 0.22658 0.88892 0.0
C329 C 0.38227 0.19359 0.90999 0.0
C330 C 0.372 0.16891 0.90139 0.0
C331 C 0.36864 0.16198 0.87025 0.0
C332 C 0.3618 0.13986 0.86176 0.0
C333 C 0.35805 0.12441 0.88428 0.0
C334 C 0.36145 0.13076 0.91531 0.0
C335 C 0.36853 0.15308 0.92396 0.0
H336 H 0.86031 0.16849 0.86224 0.0
H337 H 0.86293 0.20117 0.94897 0.0
H338 H 0.90803 0.23776 0.87615 0.0
H339 H 0.84659 0.1474 0.91373 0.0
H340 H 0.84311 0.16145 0.94599 0.0
H341 H 0.8247 0.15539 0.86211 0.0
H342 H 0.75657 0.11123 0.88363 0.0
H343 H 0.80482 0.13854 0.95621 0.0
C344 C 0.8668 0.18339 0.87675 0.0
C345 C 0.88389 0.20374 0.86556 0.0
C346 C 0.85868 0.18231 0.90683 0.0
C347 C 0.86872 0.2019 0.9257 0.0
C348 C 0.88673 0.22212 0.91504 0.0
C349 C 0.89403 0.22259 0.88494 0.0
C350 C 0.84191 0.15989 0.92051 0.0
C351 C 0.81782 0.15006 0.91065 0.0
C352 C 0.81209 0.14764 0.87927 0.0
C353 C 0.79013 0.13345 0.86927 0.0
C354 C 0.77347 0.12281 0.89113 0.0
C355 C 0.77856 0.12447 0.92246 0.0
C356 C 0.80072 0.13831 0.93222 0.0
H357 H 0.83102 0.62119 0.84137 0.0
H358 H 0.83517 0.60336 0.9345 0.0
H359 H 0.89368 0.63756 0.87946 0.0
H360 H 0.79851 0.58531 0.87255 0.0
H361 H 0.79958 0.58971 0.91288 0.0
H362 H 0.79415 0.61053 0.83705 0.0
H363 H 0.75799 0.63916 0.87562 0.0
H364 H 0.78912 0.61508 0.93532 0.0
C365 C 0.84064 0.62166 0.86093 0.0
C366 C 0.86354 0.6308 0.85761 0.0
C367 C 0.8301 0.61184 0.88879 0.0
C368 C 0.84303 0.61145 0.91331 0.0
C369 C 0.86605 0.62103 0.91015 0.0
C370 C 0.87601 0.63066 0.88231 0.0
C371 C 0.80498 0.59865 0.89079 0.0
C372 C 0.79414 0.61247 0.88668 0.0
C373 C 0.78914 0.61636 0.85697 0.0
C374 C 0.77662 0.62662 0.85287 0.0
C375 C 0.76902 0.63281 0.87878 0.0
C376 C 0.77331 0.62876 0.90857 0.0
C377 C 0.78618 0.61882 0.91244 0.0
H378 H 0.82629 0.67003 0.50269 0.0
H379 H 0.82442 0.6865 0.40854 0.0
H380 H 0.78674 0.69763 0.47654 0.0
H381 H 0.83396 0.65126 0.45842 0.0
H382 H 0.8376 0.66206 0.42094 0.0
H383 H 0.86278 0.67857 0.50124 0.0
H384 H 0.9285 0.70421 0.46689 0.0
H385 H 0.87427 0.68233 0.40364 0.0
C386 C 0.82144 0.67776 0.4856 0.0
C387 C 0.80652 0.68475 0.49365 0.0
C388 C 0.82862 0.67894 0.45508 0.0
C389 C 0.82038 0.68703 0.43246 0.0
C390 C 0.80551 0.69413 0.4403 0.0
C391 C 0.79931 0.69356 0.47098 0.0
C392 C 0.84087 0.66712 0.44565 0.0
C393 C 0.86569 0.68057 0.45174 0.0
C394 C 0.87402 0.68399 0.48202 0.0
C395 C 0.89667 0.69243 0.48746 0.0
C396 C 0.91115 0.69832 0.46261 0.0
C397 C 0.90328 0.69479 0.43236 0.0
C398 C 0.88054 0.68603 0.42701 0.0
H399 H 0.35104 0.17469 0.48721 0.0
H400 H 0.32687 0.14835 0.3957 0.0
H401 H 0.32627 0.10581 0.46622 0.0
H402 H 0.36361 0.19902 0.43854 0.0
H403 H 0.34826 0.18774 0.40381 0.0
H404 H 0.33636 0.19534 0.48714 0.0
H405 H 0.31015 0.2364 0.46319 0.0
H406 H 0.32902 0.206 0.39217 0.0
C407 C 0.34273 0.16078 0.47104 0.0
C408 C 0.33762 0.13952 0.48027 0.0
C409 C 0.33838 0.16413 0.44058 0.0
C410 C 0.32951 0.14583 0.41938 0.0
C411 C 0.32516 0.12464 0.42832 0.0
C412 C 0.32908 0.12183 0.45888 0.0
C413 C 0.34662 0.18762 0.42922 0.0
C414 C 0.33263 0.19767 0.43852 0.0
C415 C 0.33037 0.20165 0.4697 0.0
C416 C 0.32245 0.2157 0.47886 0.0
C417 C 0.31522 0.22465 0.45641 0.0
C418 C 0.31738 0.22112 0.42509 0.0
C419 C 0.32613 0.20764 0.41628 0.0
H420 H 0.84803 0.13005 0.49965 0.0
H421 H 0.83104 0.12506 0.40367 0.0
H422 H 0.77994 0.09745 0.47145 0.0
H423 H 0.87469 0.13441 0.45751 0.0
H424 H 0.86841 0.13656 0.41858 0.0
H425 H 0.87609 0.16582 0.49636 0.0
H426 H 0.91764 0.23087 0.45992 0.0
H427 H 0.88841 0.17324 0.39891 0.0
C428 C 0.83579 0.12571 0.48174 0.0
C429 C 0.81321 0.11438 0.48944 0.0
C430 C 0.84254 0.13055 0.4509 0.0
C431 C 0.82621 0.12279 0.42758 0.0
C432 C 0.8036 0.11104 0.43511 0.0
C433 C 0.79741 0.10754 0.46594 0.0
C434 C 0.86684 0.14121 0.44264 0.0
C435 C 0.87973 0.16651 0.44692 0.0
C436 C 0.88319 0.17623 0.47661 0.0
C437 C 0.89631 0.19949 0.48111 0.0
C438 C 0.90648 0.21303 0.45593 0.0
C439 C 0.90385 0.20389 0.42619 0.0
C440 C 0.8903 0.18052 0.42173 0.0
H441 H 0.04972 0.54288 0.16688 0.0
H442 H 0.04862 0.55842 0.26247 0.0
H443 H 0.00574 0.56421 0.19822 0.0
H444 H 0.07986 0.54948 0.20501 0.0
H445 H 0.07503 0.54933 0.2452 0.0
H446 H 0.0537 0.51278 0.17305 0.0
H447 H 0.04063 0.45389 0.21986 0.0
H448 H 0.06208 0.51485 0.27165 0.0
C449 C 0.04191 0.5465 0.18575 0.0
C450 C 0.02639 0.55283 0.17928 0.0
C451 C 0.04869 0.5467 0.21624 0.0
C452 C 0.04138 0.55558 0.23974 0.0
C453 C 0.02671 0.56305 0.23307 0.0
C454 C 0.01749 0.55907 0.20348 0.0
C455 C 0.06682 0.54164 0.2228 0.0
C456 C 0.05841 0.51675 0.22245 0.0
C457 C 0.05267 0.50458 0.19429 0.0
C458 C 0.04563 0.48175 0.19348 0.0
C459 C 0.04515 0.47134 0.22067 0.0
C460 C 0.05077 0.48291 0.24886 0.0
C461 C 0.05747 0.50574 0.24987 0.0
H462 H 0.51889 0.52165 0.18771 0.0
H463 H 0.5312 0.54273 0.28323 0.0
H464 H 0.56982 0.58819 0.21247 0.0
H465 H 0.50868 0.49451 0.23443 0.0
H466 H 0.50656 0.50454 0.2713 0.0
H467 H 0.48429 0.49721 0.19008 0.0
H468 H 0.41712 0.46261 0.22046 0.0
H469 H 0.46996 0.4917 0.28662 0.0
C470 C 0.52686 0.53454 0.20529 0.0
C471 C 0.54429 0.55561 0.19668 0.0
C472 C 0.52117 0.52987 0.23655 0.0
C473 C 0.5342 0.54646 0.25907 0.0
C474 C 0.55232 0.56718 0.25035 0.0
C475 C 0.55634 0.57188 0.21924 0.0
C476 C 0.50455 0.50616 0.24636 0.0
C477 C 0.48036 0.49797 0.23915 0.0
C478 C 0.4727 0.49314 0.20855 0.0
C479 C 0.44994 0.48039 0.2015 0.0
C480 C 0.43465 0.47365 0.22544 0.0
C481 C 0.44175 0.47763 0.2561 0.0
C482 C 0.46457 0.49 0.26295 0.0
H483 H 0.49795 0.96654 0.18539 0.0
H484 H 0.50473 0.95431 0.28036 0.0
H485 H 0.56202 0.98833 0.22283 0.0
H486 H 0.46764 0.93083 0.22004 0.0
H487 H 0.46878 0.93735 0.25972 0.0
H488 H 0.4616 0.95372 0.18106 0.0
H489 H 0.4179 0.97528 0.2132 0.0
H490 H 0.45154 0.95749 0.27825 0.0
C491 C 0.50807 0.96888 0.20527 0.0
C492 C 0.53111 0.97934 0.20162 0.0
C493 C 0.49822 0.9601 0.23391 0.0
C494 C 0.51204 0.96185 0.25866 0.0
C495 C 0.53517 0.97225 0.25502 0.0
C496 C 0.54438 0.98114 0.22648 0.0
C497 C 0.47315 0.94506 0.23673 0.0
C498 C 0.45972 0.95609 0.23047 0.0
C499 C 0.45488 0.95861 0.19996 0.0
C500 C 0.44025 0.96612 0.19365 0.0
C501 C 0.43023 0.97083 0.2181 0.0
C502 C 0.43398 0.96768 0.2486 0.0
C503 C 0.44897 0.9605 0.25477 0.0
H504 H 0.48752 0.00437 0.8332 0.0
H505 H 0.47875 0.00465 0.73561 0.0
H506 H 0.45108 0.0327 0.79684 0.0
H507 H 0.48734 0.97541 0.79467 0.0
H508 H 0.49259 0.98265 0.75541 0.0
H509 H 0.51662 0.99773 0.83513 0.0
H510 H 0.58323 0.02612 0.80249 0.0
H511 H 0.52994 0.00591 0.73815 0.0
C512 C 0.48227 0.00985 0.81367 0.0
C513 C 0.46964 0.02 0.81861 0.0
C514 C 0.48621 0.00473 0.78377 0.0
C515 C 0.47727 0.00993 0.75863 0.0
C516 C 0.46498 0.02046 0.76335 0.0
C517 C 0.46191 0.02608 0.79325 0.0
C518 C 0.49593 0.9899 0.77916 0.0
C519 C 0.52056 1.00186 0.78599 0.0
C520 C 0.52829 0.00397 0.81639 0.0
C521 C 0.55098 0.01315 0.82256 0.0
C522 C 0.5659 0.02024 0.79806 0.0
C523 C 0.55845 0.01747 0.76765 0.0
C524 C 0.5358 0.0086 0.7617 0.0
H525 H 0.00965 0.49333 0.83449 0.0
H526 H 0.99118 0.4645 0.7429 0.0
H527 H 0.97956 0.42265 0.82009 0.0
H528 H 0.02488 0.51619 0.78531 0.0
H529 H 0.01162 0.50409 0.74941 0.0
H530 H 0.99449 0.51371 0.82893 0.0
H531 H 0.9695 0.55329 0.79418 0.0
H532 H 0.99564 0.5244 0.73178 0.0
C533 C 1.00137 0.47889 0.81913 0.0
C534 C 0.99355 0.45754 0.83091 0.0
C535 C 0.99905 0.48147 0.78749 0.0
C536 C 0.99115 0.46253 0.76749 0.0
C537 C 0.9851 0.44145 0.77913 0.0
C538 C 0.98492 0.43902 0.81089 0.0
C539 C 0.00848 0.5047 0.77436 0.0
C540 C 0.99426 0.51516 0.77936 0.0
C541 C 0.98948 0.5193 0.80938 0.0
C542 C 0.98047 0.53294 0.81483 0.0
C543 C 0.97523 0.54169 0.78996 0.0
C544 C 0.98089 0.53894 0.76007 0.0
C545 C 0.99015 0.52546 0.75469 0.0
H546 H 0.50752 0.45979 0.83695 0.0
H547 H 0.48946 0.4542 0.74133 0.0
H548 H 0.43938 0.42521 0.81098 0.0
H549 H 0.53333 0.46305 0.79207 0.0
H550 H 0.52688 0.4672 0.75429 0.0
H551 H 0.53648 0.49363 0.83458 0.0
H552 H 0.58279 0.55892 0.80325 0.0
H553 H 0.54882 0.50468 0.73739 0.0
C554 C 0.49522 0.45546 0.81918 0.0
C555 C 0.47275 0.44382 0.82726 0.0
C556 C 0.50156 0.46035 0.78817 0.0
C557 C 0.48483 0.45178 0.7653 0.0
C558 C 0.46225 0.43872 0.77315 0.0
C559 C 0.45655 0.43574 0.8043 0.0
C560 C 0.52577 0.47098 0.77894 0.0
C561 C 0.5398 0.49613 0.78507 0.0
C562 C 0.54407 0.5046 0.81552 0.0
C563 C 0.55948 0.52717 0.82182 0.0
C564 C 0.57053 0.54156 0.79779 0.0
C565 C 0.56673 0.53389 0.7672 0.0
C566 C 0.55137 0.51099 0.76087 0.0
H567 H 0.71981 0.87736 0.51584 0.0
H568 H 0.7128 0.88711 0.61234 0.0
H569 H 0.69224 0.91681 0.54488 0.0
H570 H 0.74455 0.87553 0.55802 0.0
H571 H 0.73627 0.87347 0.59703 0.0
H572 H 0.71649 0.84397 0.5195 0.0
H573 H 0.68972 0.7789 0.55721 0.0
H574 H 0.7172 0.83664 0.61766 0.0
C575 C 0.71366 0.88338 0.53411 0.0
C576 C 0.70395 0.89603 0.52669 0.0
C577 C 0.71646 0.87955 0.56505 0.0
C578 C 0.7099 0.88913 0.58856 0.0
C579 C 0.70093 0.90249 0.58145 0.0
C580 C 0.69779 0.90542 0.55056 0.0
C581 C 0.72979 0.86871 0.57312 0.0
C582 C 0.71708 0.84337 0.56917 0.0
C583 C 0.71201 0.83359 0.53943 0.0
C584 C 0.70174 0.81035 0.53514 0.0
C585 C 0.69689 0.79682 0.56063 0.0
C586 C 0.70246 0.80604 0.59032 0.0
C587 C 0.71251 0.82939 0.59471 0.0
H588 H 0.19202 0.85066 0.50944 0.0
H589 H 0.20948 0.86783 0.60518 0.0
H590 H 0.23581 0.91905 0.53789 0.0
H591 H 0.19043 0.82281 0.55036 0.0
H592 H 0.18971 0.82946 0.58977 0.0
H593 H 0.15949 0.81618 0.51443 0.0
H594 H 0.09587 0.78333 0.55715 0.0
H595 H 0.15469 0.8183 0.61296 0.0
C596 C 0.19998 0.86307 0.52771 0.0
C597 C 0.21336 0.88576 0.5203 0.0
C598 C 0.19765 0.85643 0.55858 0.0
C599 C 0.20988 0.87278 0.58168 0.0
C600 C 0.22349 0.89541 0.57418 0.0
C601 C 0.22457 0.90169 0.54375 0.0
C602 C 0.18511 0.83179 0.56635 0.0
C603 C 0.16009 0.82072 0.56379 0.0
C604 C 0.14963 0.81327 0.53486 0.0
C605 C 0.12649 0.79973 0.53258 0.0
C606 C 0.11368 0.79463 0.55908 0.0
C607 C 0.1236 0.80094 0.58817 0.0
C608 C 0.14687 0.81423 0.59049 0.0
H609 H 0.16013 0.30661 0.51029 0.0
H610 H 0.16729 0.27716 0.59233 0.0
H611 H 0.22459 0.32698 0.54488 0.0
H612 H 0.13157 0.26228 0.53571 0.0
H613 H 0.13103 0.2655 0.57603 0.0
H614 H 0.12335 0.2852 0.5006 0.0
H615 H 0.07856 0.30395 0.53751 0.0
H616 H 0.11293 0.28406 0.59827 0.0
C617 C 0.17019 0.30618 0.52853 0.0
C618 C 0.19333 0.31921 0.52588 0.0
C619 C 0.16041 0.29167 0.55348 0.0
C620 C 0.1744 0.28964 0.5747 0.0
C621 C 0.19753 0.30208 0.57127 0.0
C622 C 0.20673 0.31768 0.54792 0.0
C623 C 0.13558 0.27499 0.55436 0.0
C624 C 0.12104 0.28496 0.55009 0.0
C625 C 0.11616 0.28877 0.52032 0.0
C626 C 0.10144 0.29639 0.51576 0.0
C627 C 0.09101 0.29946 0.54119 0.0
C628 C 0.09478 0.29486 0.57096 0.0
C629 C 0.11012 0.28792 0.57539 0.0
H630 H 0.03372 0.42743 0.07004 0.0
H631 H 0.97642 0.37801 0.11932 0.0
H632 H 0.98526 0.40452 0.1619 0.0
H633 H 0.00887 0.44142 0.18512 0.0
H634 H 0.06696 0.49114 0.13795 0.0
H635 H 0.05771 0.46515 0.09384 0.0
C636 C 0.02339 0.42243 0.09031 0.0
C637 C 1.00453 0.40075 0.09163 0.0
C638 C 0.02838 0.43793 0.11466 0.0
C639 C 0.99104 0.39458 0.11777 0.0
C640 C 0.99599 0.40975 0.14206 0.0
C641 C 0.01949 0.44659 0.16512 0.0
C642 C 0.03863 0.46802 0.16477 0.0
C643 C 0.01449 0.43145 0.14063 0.0
C644 C 0.05205 0.47474 0.13858 0.0
C645 C 0.04691 0.45979 0.11361 0.0
H646 H 0.56682 0.59668 0.06605 0.0
H647 H 0.63213 0.61231 0.0941 0.0
H648 H 0.61655 0.59023 0.14013 0.0
H649 H 0.58504 0.56963 0.17458 0.0
H650 H 0.51993 0.55468 0.14752 0.0
H651 H 0.53463 0.57278 0.09824 0.0
C652 C 0.57766 0.59524 0.0822 0.0
C653 C 0.60069 0.6065 0.07694 0.0
C654 C 0.56859 0.58246 0.10853 0.0
C655 C 0.61441 0.604 0.09773 0.0
C656 C 0.60551 0.59135 0.12401 0.0
C657 C 0.57403 0.56995 0.15753 0.0
C658 C 0.55152 0.56106 0.16452 0.0
C659 C 0.58272 0.58091 0.1299 0.0
C660 C 0.53728 0.56135 0.14242 0.0
C661 C 0.54576 0.57193 0.1145 0.0
H662 H 0.3901 0.94458 0.06712 0.0
H663 H 0.39674 0.00871 0.08745 0.0
H664 H 0.41937 0.01353 0.13256 0.0
H665 H 0.43511 0.99839 0.16809 0.0
H666 H 0.42769 0.9339 0.14845 0.0
H667 H 0.40821 0.93074 0.10061 0.0
C668 C 0.39648 0.95962 0.08141 0.0
C669 C 0.39142 0.9761 0.07414 0.0
C670 C 0.40958 0.96235 0.10722 0.0
C671 C 0.40022 0.99568 0.09259 0.0
C672 C 0.4132 0.99847 0.11838 0.0
C673 C 0.42945 0.98377 0.15311 0.0
C674 C 0.43273 0.96635 0.16192 0.0
C675 C 0.41771 0.98178 0.12613 0.0
C676 C 0.42559 0.94765 0.14212 0.0
C677 C 0.41418 0.94569 0.11495 0.0
H678 H 0.41304 0.02258 0.92912 0.0
H679 H 0.39826 0.95433 0.93451 0.0
H680 H 0.42556 0.96126 0.89553 0.0
H681 H 0.4507 0.98502 0.85634 0.0
H682 H 0.46522 0.05281 0.84808 0.0
H683 H 0.44129 0.04784 0.89199 0.0
C684 C 0.41594 0.00932 0.92192 0.0
C685 C 0.40325 0.98787 0.93445 0.0
C686 C 0.43168 0.0133 0.899 0.0
C687 C 0.40738 0.97091 0.92495 0.0
C688 C 0.42313 0.97484 0.90271 0.0
C689 C 0.44927 0.999 0.86473 0.0
C690 C 0.45981 0.01928 0.84909 0.0
C691 C 0.43502 0.99578 0.88916 0.0
C692 C 0.45727 0.03702 0.85982 0.0
C693 C 0.44347 0.03412 0.88476 0.0
H694 H 0.01654 0.42236 0.94651 0.0
H695 H 0.94499 0.38528 0.95188 0.0
H696 H 0.9429 0.40755 0.91162 0.0
H697 H 0.96073 0.43409 0.87043 0.0
H698 H 0.03177 0.4705 0.86253 0.0
H699 H 0.0348 0.45266 0.9087 0.0
C700 C 1.00052 0.41929 0.93906 0.0
C701 C 0.98098 0.40184 0.95205 0.0
C702 C 0.99932 0.43223 0.91556 0.0
C703 C 0.96037 0.39836 0.94227 0.0
C704 C 0.95908 0.41116 0.9192 0.0
C705 C 0.97688 0.43872 0.8796 0.0
C706 C 0.99599 0.45365 0.86346 0.0
C707 C 0.97837 0.42773 0.90521 0.0
C708 C 0.01687 0.45932 0.87502 0.0
C709 C 0.01855 0.44881 0.90107 0.0
H710 H 0.57309 0.58205 0.94308 0.0
H711 H 0.64076 0.59948 0.92802 0.0
H712 H 0.62864 0.57189 0.88578 0.0
H713 H 0.59945 0.5464 0.84936 0.0
H714 H 0.53195 0.52922 0.86396 0.0
H715 H 0.54322 0.55279 0.91079 0.0
C716 C 0.58516 0.57967 0.93069 0.0
C717 C 0.60783 0.59308 0.93815 0.0
C718 C 0.57808 0.56382 0.90653 0.0
C719 C 0.62324 0.58948 0.92249 0.0
C720 C 0.61633 0.57375 0.89834 0.0
C721 C 0.5872 0.54744 0.86334 0.0
C722 C 0.565 0.53636 0.85343 0.0
C723 C 0.5939 0.56132 0.88966 0.0
C724 C 0.54911 0.53761 0.87145 0.0
C725 C 0.5556 0.55124 0.89793 0.0
H726 H 0.98218 0.59258 0.92625 0.0
H727 H 0.05079 0.61036 0.9259 0.0
H728 H 0.0425 0.58156 0.88713 0.0
H729 H 0.01696 0.55382 0.85006 0.0
H730 H 0.94893 0.53708 0.84664 0.0
H731 H 0.95565 0.56253 0.89057 0.0
C732 C 0.99527 0.59006 0.91778 0.0
C733 C 0.01714 0.60391 0.92874 0.0
C734 C 0.99047 0.5735 0.89498 0.0
C735 C 0.03387 0.6003 0.91759 0.0
C736 C 0.02915 0.58369 0.89551 0.0
C737 C 1.0034 0.55515 0.85959 0.0
C738 C 0.98243 0.54341 0.8455 0.0
C739 C 0.00764 0.57046 0.88371 0.0
C740 C 0.96517 0.54582 0.85744 0.0
C741 C 0.96908 0.56053 0.88229 0.0
H742 H 0.41801 0.4107 0.94876 0.0
H743 H 0.44064 0.36377 0.94207 0.0
H744 H 0.46322 0.38322 0.89786 0.0
H745 H 0.4751 0.41238 0.85915 0.0
H746 H 0.45185 0.45863 0.86462 0.0
H747 H 0.43147 0.44111 0.91157 0.0
C748 C 0.42782 0.40469 0.93757 0.0
C749 C 0.42744 0.38566 0.94865 0.0
C750 C 0.44099 0.4161 0.9122 0.0
C751 C 0.44053 0.37832 0.93406 0.0
C752 C 0.45354 0.38948 0.90879 0.0
C753 C 0.4661 0.41898 0.87127 0.0
C754 C 0.46528 0.437 0.85903 0.0
C755 C 0.45385 0.40832 0.89757 0.0
C756 C 0.45302 0.44505 0.87417 0.0
C757 C 0.44116 0.43485 0.90072 0.0
H758 H 0.58336 0.99328 0.94617 0.0
H759 H 0.63575 0.06198 0.93467 0.0
H760 H 0.61702 0.06463 0.8896 0.0
H761 H 0.58679 0.04709 0.85189 0.0
H762 H 0.53416 0.97858 0.86265 0.0
H763 H 0.55156 0.9764 0.90992 0.0
C764 C 0.59064 0.00881 0.93378 0.0
C765 C 0.61102 0.02733 0.9437 0.0
C766 C 0.57962 0.01035 0.90791 0.0
C767 C 0.62009 0.04744 0.92761 0.0
C768 C 0.60939 0.04901 0.90179 0.0
C769 C 0.57902 0.03177 0.86481 0.0
C770 C 0.55928 0.01303 0.85378 0.0
C771 C 0.58928 0.03054 0.89159 0.0
C772 C 0.54925 0.99333 0.87085 0.0
C773 C 0.55933 0.99199 0.89768 0.0
H774 H 0.59499 0.02914 0.09214 0.0
H775 H 0.59305 0.96622 0.08521 0.0
H776 H 0.56515 0.9509 0.1253 0.0
H777 H 0.54311 0.95607 0.16488 0.0
H778 H 0.54481 0.01861 0.17266 0.0
H779 H 0.57055 0.03326 0.12931 0.0
C780 C 0.58846 0.01208 0.09941 0.0
C781 C 0.59635 0.99897 0.08586 0.0
C782 C 0.57214 0.00322 0.12238 0.0
C783 C 0.5874 0.97676 0.09525 0.0
C784 C 0.57138 0.96793 0.11818 0.0
C785 C 0.54867 0.97267 0.15639 0.0
C786 C 0.54189 0.98617 0.17138 0.0
C787 C 0.5638 0.98105 0.13209 0.0
C788 C 0.54951 0.00783 0.16091 0.0
C789 C 0.56443 0.01626 0.13645 0.0
H790 H 1.00226 0.59181 0.06738 0.0
H791 H 0.07309 0.63788 0.0729 0.0
H792 H 0.0764 0.61531 0.11148 0.0
H793 H 0.05943 0.58411 0.14626 0.0
H794 H 0.9887 0.53915 0.14504 0.0
H795 H 0.98518 0.55911 0.10172 0.0
C796 C 0.01838 0.59693 0.07711 0.0
C797 C 0.03734 0.61664 0.06711 0.0
C798 C 0.02029 0.58381 0.09973 0.0
C799 C 0.05813 0.62286 0.07994 0.0
C800 C 0.06014 0.60989 0.10203 0.0
C801 C 0.04334 0.57819 0.13575 0.0
C802 C 0.02443 0.55992 0.14825 0.0
C803 C 0.04138 0.59043 0.11217 0.0
C804 C 1.00354 0.55291 0.13525 0.0
C805 C 1.00152 0.56455 0.11085 0.0
H806 H 0.39618 0.41841 0.08821 0.0
H807 H 0.45099 0.40703 0.09029 0.0
H808 H 0.46933 0.43604 0.12963 0.0
H809 H 0.4681 0.46127 0.16737 0.0
H810 H 0.41369 0.47309 0.1677 0.0
H811 H 0.39703 0.44741 0.12337 0.0
C812 C 0.41224 0.42249 0.09704 0.0
C813 C 0.42193 0.4102 0.08666 0.0
C814 C 0.42278 0.43921 0.12017 0.0
C815 C 0.44285 0.41582 0.09824 0.0
C816 C 0.45348 0.43252 0.1207 0.0
C817 C 0.45301 0.45896 0.15718 0.0
C818 C 0.44223 0.4692 0.17082 0.0
C819 C 0.44336 0.4439 0.13235 0.0
C820 C 0.42231 0.46536 0.15768 0.0
C821 C 0.41273 0.4506 0.13243 0.0
H822 H 0.70084 0.7646 0.40865 0.0
H823 H 0.63414 0.71812 0.43851 0.0
H824 H 0.63942 0.74202 0.48305 0.0
H825 H 0.66332 0.77495 0.51498 0.0
H826 H 0.73019 0.8215 0.48676 0.0
H827 H 0.7243 0.79916 0.4396 0.0
C828 C 0.68751 0.75972 0.42496 0.0
C829 C 0.6672 0.73951 0.42036 0.0
C830 C 0.69056 0.77368 0.45057 0.0
C831 C 0.64995 0.73357 0.44146 0.0
C832 C 0.65291 0.74723 0.46695 0.0
C833 C 0.6765 0.78031 0.49826 0.0
C834 C 0.69715 0.79967 0.50424 0.0
C835 C 0.67316 0.76718 0.47183 0.0
C836 C 0.71408 0.80669 0.48242 0.0
C837 C 0.71079 0.79379 0.4557 0.0
H838 H 0.26131 0.92471 0.3955 0.0
H839 H 0.2416 0.97254 0.41864 0.0
H840 H 0.22047 0.9502 0.46193 0.0
H841 H 0.20973 0.91872 0.4955 0.0
H842 H 0.22972 0.87104 0.47444 0.0
H843 H 0.24781 0.89106 0.42748 0.0
C844 C 0.25241 0.9302 0.41008 0.0
C845 C 0.25323 0.95039 0.40396 0.0
C846 C 0.24001 0.9171 0.435 0.0
C847 C 0.2413 0.95711 0.42279 0.0
C848 C 0.22914 0.94432 0.44755 0.0
C849 C 0.21758 0.91243 0.48016 0.0
C850 C 0.2184 0.89349 0.48828 0.0
C851 C 0.22855 0.92444 0.45403 0.0
C852 C 0.22864 0.88544 0.46839 0.0
C853 C 0.23929 0.89711 0.44184 0.0
H854 H 0.05837 0.28574 0.38578 0.0
H855 H 0.06313 0.34764 0.41539 0.0
H856 H 0.08296 0.34849 0.46177 0.0
H857 H 0.09659 0.33025 0.4955 0.0
H858 H 0.0909 0.26791 0.46618 0.0
H859 H 0.07433 0.26899 0.41765 0.0
C860 C 0.06377 0.29947 0.40232 0.0
C861 C 0.05897 0.31644 0.3973 0.0
C862 C 0.07515 0.29986 0.42887 0.0
C863 C 0.06648 0.3343 0.41873 0.0
C864 C 0.07781 0.3348 0.44527 0.0
C865 C 0.09187 0.317 0.47834 0.0
C866 C 0.09484 0.29895 0.48452 0.0
C867 C 0.0819 0.31747 0.4508 0.0
C868 C 0.089 0.28209 0.46192 0.0
C869 C 0.07929 0.28257 0.4343 0.0
H870 H 0.07163 0.30947 0.24959 0.0
H871 H 0.07871 0.37462 0.26055 0.0
H872 H 0.10782 0.38955 0.22185 0.0
H873 H 0.12969 0.38352 0.18278 0.0
H874 H 0.12124 0.31787 0.17073 0.0
H875 H 0.09488 0.30402 0.21277 0.0
C876 C 0.07949 0.32695 0.24357 0.0
C877 C 0.07272 0.3408 0.25774 0.0
C878 C 0.09622 0.33544 0.22135 0.0
C879 C 0.08344 0.36351 0.24992 0.0
C880 C 0.10013 0.37208 0.22781 0.0
C881 C 0.12221 0.36622 0.18951 0.0
C882 C 0.12747 0.35179 0.17345 0.0
C883 C 0.10645 0.35812 0.2131 0.0
C884 C 0.11785 0.3295 0.18285 0.0
C885 C 0.10248 0.32145 0.20666 0.0
H886 H 0.63435 0.73976 0.27897 0.0
H887 H 0.69561 0.74124 0.26238 0.0
H888 H 0.70262 0.76449 0.21778 0.0
H889 H 0.68985 0.78174 0.18104 0.0
H890 H 0.62894 0.78067 0.19714 0.0
H891 H 0.6234 0.76029 0.24481 0.0
C892 C 0.64926 0.74523 0.26564 0.0
C893 C 0.66427 0.73849 0.27375 0.0
C894 C 0.6533 0.75879 0.24012 0.0
C895 C 0.68373 0.74607 0.25658 0.0
C896 C 0.68776 0.75938 0.23106 0.0
C897 C 0.67567 0.77747 0.19549 0.0
C898 C 0.65984 0.78266 0.18596 0.0
C899 C 0.6725 0.76552 0.22236 0.0
C900 C 0.64139 0.77699 0.20442 0.0
C901 C 0.63815 0.76516 0.2314 0.0
H902 H 0.27353 0.92051 0.27766 0.0
H903 H 0.2492 0.95974 0.23658 0.0
H904 H 0.23091 0.93142 0.19621 0.0
H905 H 0.22336 0.89674 0.17096 0.0
H906 H 0.2485 0.85766 0.20931 0.0
H907 H 0.26419 0.88419 0.25312 0.0
C908 C 0.26433 0.92288 0.25975 0.0
C909 C 0.26291 0.94231 0.26001 0.0
C910 C 0.25365 0.90638 0.23651 0.0
C911 C 0.25063 0.94499 0.23693 0.0
C912 C 0.24006 0.92876 0.21387 0.0
C913 C 0.23195 0.89387 0.18926 0.0
C914 C 0.2349 0.87547 0.18708 0.0
C915 C 0.24156 0.90952 0.21337 0.0
C916 C 0.24591 0.87169 0.2108 0.0
C917 C 0.25513 0.88701 0.23552 0.0
H918 H 0.6602 0.90413 0.28258 0.0
H919 H 0.6597 0.9579 0.23647 0.0
H920 H 0.64827 0.93578 0.18851 0.0
H921 H 0.64436 0.9041 0.15891 0.0
H922 H 0.64237 0.84865 0.20464 0.0
H923 H 0.64908 0.86869 0.25384 0.0
C924 C 0.65695 0.91061 0.26213 0.0
C925 C 0.66071 0.93245 0.26264 0.0
C926 C 0.65041 0.89778 0.2347 0.0
C927 C 0.6567 0.941 0.23631 0.0
C928 C 0.65033 0.92843 0.20896 0.0
C929 C 0.64439 0.89573 0.17953 0.0
C930 C 0.64312 0.87486 0.17766 0.0
C931 C 0.64789 0.90713 0.2077 0.0
C932 C 0.64385 0.86491 0.20507 0.0
C933 C 0.6476 0.87632 0.2333 0.0
H934 H 0.08075 0.74388 0.2759 0.0
H935 H 0.11605 0.70921 0.29015 0.0
H936 H 0.14166 0.73021 0.24941 0.0
H937 H 0.15179 0.75549 0.20601 0.0
H938 H 0.11567 0.78882 0.1898 0.0
H939 H 0.09306 0.77177 0.23529 0.0
C940 C 0.09417 0.74107 0.27034 0.0
C941 C 0.09618 0.72472 0.28595 0.0
C942 C 0.10884 0.75308 0.24652 0.0
C943 C 0.11383 0.72146 0.27842 0.0
C944 C 0.12859 0.73352 0.2551 0.0
C945 C 0.13943 0.75952 0.21308 0.0
C946 C 0.13545 0.77346 0.19487 0.0
C947 C 0.12599 0.74902 0.23855 0.0
C948 C 0.11906 0.77823 0.20374 0.0
C949 C 0.10602 0.76833 0.22953 0.0
H950 H 0.25357 0.34446 0.27325 0.0
H951 H 0.31023 0.41067 0.26033 0.0
H952 H 0.29385 0.41414 0.21322 0.0
H953 H 0.26434 0.3979 0.17443 0.0
H954 H 0.2074 0.3319 0.18652 0.0
H955 H 0.22252 0.3291 0.23562 0.0
C956 C 0.26231 0.35957 0.26 0.0
C957 C 0.28319 0.37718 0.27011 0.0
C958 C 0.25258 0.36166 0.23306 0.0
C959 C 0.29417 0.39685 0.25303 0.0
C960 C 0.2848 0.39889 0.22611 0.0
C961 C 0.25509 0.38305 0.1881 0.0
C962 C 0.23482 0.36515 0.1769 0.0
C963 C 0.2641 0.38139 0.21584 0.0
C964 C 0.22292 0.34604 0.19485 0.0
C965 C 0.23172 0.34431 0.22271 0.0
H966 H 0.26577 0.37833 0.43139 0.0
H967 H 0.24478 0.31257 0.39293 0.0
H968 H 0.21395 0.2958 0.42851 0.0
H969 H 0.19526 0.29915 0.4741 0.0
H970 H 0.21769 0.36404 0.51559 0.0
H971 H 0.24511 0.38191 0.47479 0.0
C972 C 0.25437 0.36035 0.4306 0.0
C973 C 0.25787 0.34679 0.40963 0.0
C974 C 0.2367 0.35067 0.45148 0.0
C975 C 0.24277 0.3235 0.40895 0.0
C976 C 0.225 0.31383 0.42924 0.0
C977 C 0.2056 0.31727 0.47339 0.0
C978 C 0.20421 0.33038 0.49719 0.0
C979 C 0.22205 0.32718 0.45095 0.0
C980 C 0.21818 0.35376 0.49694 0.0
C981 C 0.23406 0.36388 0.47393 0.0
H982 H 0.72053 0.94231 0.3991 0.0
H983 H 0.65685 0.93456 0.41955 0.0
H984 H 0.65377 0.91295 0.46471 0.0
H985 H 0.6703 0.89854 0.50019 0.0
H986 H 0.73501 0.90854 0.48124 0.0
H987 H 0.73605 0.92614 0.43293 0.0
C988 C 0.70588 0.93588 0.41329 0.0
C989 C 0.68904 0.94036 0.40598 0.0
C990 C 0.70429 0.9236 0.43932 0.0
C991 C 0.67015 0.93158 0.42463 0.0
C992 C 0.66836 0.91916 0.45045 0.0
C993 C 0.68458 0.90442 0.48538 0.0
C994 C 0.70265 0.90236 0.49459 0.0
C995 C 0.68548 0.91539 0.45826 0.0
C996 C 0.72078 0.90966 0.47476 0.0
C997 C 0.72152 0.92004 0.44728 0.0
H998 H 0.08202 0.75365 0.40508 0.0
H999 H 0.06512 0.69486 0.45669 0.0
H1000 H 0.08333 0.71824 0.50224 0.0
H1001 H 0.10496 0.75519 0.52681 0.0
H1002 H 0.12426 0.81458 0.47553 0.0
H1003 H 0.10452 0.79125 0.42998 0.0
C1004 C 0.08211 0.74604 0.42648 0.0
C1005 C 0.07209 0.72261 0.42779 0.0
C1006 C 0.09328 0.75967 0.4523 0.0
C1007 C 0.07268 0.71286 0.45531 0.0
C1008 C 0.08313 0.7262 0.48126 0.0
C1009 C 0.10475 0.76299 0.50562 0.0
C1010 C 0.11576 0.78644 0.50434 0.0
C1011 C 0.09365 0.74957 0.47988 0.0
C1012 C 0.11582 0.79651 0.47682 0.0
C1013 C 0.10448 0.78318 0.45097 0.0
H1014 H 0.32701 0.09543 0.73199 0.0
H1015 H 0.37836 0.07978 0.74375 0.0
H1016 H 0.39064 0.10256 0.79106 0.0
H1017 H 0.38401 0.12339 0.83179 0.0
H1018 H 0.33304 0.13938 0.81995 0.0
H1019 H 0.32348 0.12026 0.76952 0.0
C1020 C 0.34101 0.09719 0.74479 0.0
C1021 C 0.35152 0.08565 0.73478 0.0
C1022 C 0.34799 0.11032 0.77184 0.0
C1023 C 0.36994 0.08842 0.75113 0.0
C1024 C 0.37692 0.10137 0.77821 0.0
C1025 C 0.37112 0.123 0.81778 0.0
C1026 C 0.35906 0.13249 0.82932 0.0
C1027 C 0.36568 0.11188 0.78915 0.0
C1028 C 0.34249 0.13216 0.81123 0.0
C1029 C 0.33695 0.12111 0.78262 0.0
H1030 H 0.94062 0.25221 0.75245 0.0
H1031 H 0.88293 0.25708 0.73484 0.0
H1032 H 0.86271 0.23042 0.77474 0.0
H1033 H 0.86307 0.21019 0.81963 0.0
H1034 H 0.92123 0.20748 0.84075 0.0
H1035 H 0.93924 0.22791 0.79407 0.0
C1036 C 0.92353 0.24719 0.75706 0.0
C1037 C 0.91354 0.25707 0.74098 0.0
C1038 C 0.91195 0.23197 0.7806 0.0
C1039 C 0.89129 0.2502 0.7472 0.0
C1040 C 0.87959 0.23479 0.76996 0.0
C1041 C 0.87927 0.21319 0.81314 0.0
C1042 C 0.89069 0.20704 0.8331 0.0
C1043 C 0.88994 0.2261 0.78741 0.0
C1044 C 0.91198 0.21163 0.82521 0.0
C1045 C 0.92241 0.22369 0.79885 0.0
H1046 H 0.72297 0.61222 0.73104 0.0
H1047 H 0.73603 0.67811 0.75741 0.0
H1048 H 0.75951 0.67981 0.79965 0.0
H1049 H 0.77441 0.66169 0.831 0.0
H1050 H 0.75998 0.59518 0.80611 0.0
H1051 H 0.73974 0.59505 0.76064 0.0
C1052 C 0.73092 0.62698 0.74599 0.0
C1053 C 0.72743 0.64489 0.7412 0.0
C1054 C 0.74444 0.62788 0.77026 0.0
C1055 C 0.73822 0.664 0.76061 0.0
C1056 C 0.75173 0.66502 0.78475 0.0
C1057 C 0.76701 0.64724 0.81545 0.0
C1058 C 0.76858 0.6284 0.82213 0.0
C1059 C 0.75471 0.64695 0.79001 0.0
C1060 C 0.75924 0.60998 0.80145 0.0
C1061 C 0.74738 0.60977 0.77565 0.0
H1062 H 0.73959 0.6389 0.60129 0.0
H1063 H 0.7444 0.70324 0.60527 0.0
H1064 H 0.77373 0.71737 0.56687 0.0
H1065 H 0.79596 0.71051 0.52942 0.0
H1066 H 0.79002 0.64569 0.52455 0.0
H1067 H 0.76387 0.63304 0.5669 0.0
C1068 C 0.74702 0.65602 0.59377 0.0
C1069 C 0.7395 0.66985 0.60576 0.0
C1070 C 0.76393 0.66407 0.57183 0.0
C1071 C 0.74971 0.69215 0.59624 0.0
C1072 C 0.76652 0.70027 0.57432 0.0
C1073 C 0.78916 0.69371 0.53793 0.0
C1074 C 0.7949 0.67907 0.52366 0.0
C1075 C 0.77351 0.68626 0.56162 0.0
C1076 C 0.78618 0.65745 0.53525 0.0
C1077 C 0.77092 0.65006 0.5592 0.0
H1078 H 0.31681 0.09433 0.60709 0.0
H1079 H 0.36302 0.07564 0.57369 0.0
H1080 H 0.37221 0.10066 0.5305 0.0
H1081 H 0.36371 0.12419 0.49913 0.0
H1082 H 0.31702 0.14228 0.53162 0.0
H1083 H 0.31203 0.12189 0.57899 0.0
C1084 C 0.32895 0.09579 0.5904 0.0
C1085 C 0.33886 0.08276 0.5932 0.0
C1086 C 0.33428 0.11035 0.56577 0.0
C1087 C 0.35497 0.08528 0.57187 0.0
C1088 C 0.36028 0.09963 0.54722 0.0
C1089 C 0.35305 0.12427 0.51714 0.0
C1090 C 0.34072 0.13464 0.51208 0.0
C1091 C 0.34966 0.11183 0.54359 0.0
C1092 C 0.32684 0.13461 0.53529 0.0
C1093 C 0.32371 0.12263 0.56207 0.0
H1094 H 0.9334 0.24374 0.61147 0.0
H1095 H 0.91483 0.28976 0.5782 0.0
H1096 H 0.89964 0.26696 0.53144 0.0
H1097 H 0.89287 0.23482 0.49916 0.0
H1098 H 0.91088 0.18839 0.53193 0.0
H1099 H 0.92449 0.2101 0.58018 0.0
C1100 C 0.9261 0.2488 0.5939 0.0
C1101 C 0.92546 0.26854 0.59812 0.0
C1102 C 0.91704 0.23539 0.56723 0.0
C1103 C 0.91558 0.27467 0.57545 0.0
C1104 C 0.90685 0.26164 0.54874 0.0
C1105 C 0.89956 0.22936 0.51706 0.0
C1106 C 0.90098 0.21015 0.51209 0.0
C1107 C 0.9076 0.24206 0.54434 0.0
C1108 C 0.90947 0.20304 0.53543 0.0
C1109 C 0.91746 0.21558 0.56282 0.0
H1110 H 0.35859 0.26751 0.60479 0.0
H1111 H 0.29543 0.26368 0.60418 0.0
H1112 H 0.2847 0.2403 0.55729 0.0
H1113 H 0.29469 0.22352 0.51421 0.0
H1114 H 0.35864 0.22892 0.51524 0.0
H1115 H 0.36731 0.24858 0.56453 0.0
C1116 C 0.34241 0.26149 0.59452 0.0
C1117 C 0.32797 0.26759 0.60769 0.0
C1118 C 0.33642 0.24819 0.56767 0.0
C1119 C 0.3069 0.25928 0.59441 0.0
C1120 C 0.30078 0.24597 0.56756 0.0
C1121 C 0.31041 0.22882 0.52541 0.0
C1122 C 0.3259 0.22462 0.51097 0.0
C1123 C 0.31561 0.2407 0.55363 0.0
C1124 C 0.34616 0.23146 0.52594 0.0
C1125 C 0.3513 0.243 0.55404 0.0
H1126 H 0.77813 0.05956 0.61007 0.0
H1127 H 0.72768 0.07655 0.59795 0.0
H1128 H 0.74848 0.10061 0.55555 0.0
H1129 H 0.77949 0.11466 0.51965 0.0
H1130 H 0.82866 0.09583 0.52968 0.0
H1131 H 0.81036 0.07551 0.57605 0.0
C1132 C 0.77164 0.06853 0.59824 0.0
C1133 C 0.75116 0.06595 0.60703 0.0
C1134 C 0.78363 0.08229 0.57376 0.0
C1135 C 0.74325 0.07799 0.59159 0.0
C1136 C 0.75518 0.09184 0.56737 0.0
C1137 C 0.78634 0.10629 0.53219 0.0
C1138 C 0.80531 0.10661 0.52102 0.0
C1139 C 0.77519 0.09383 0.55799 0.0
C1140 C 0.81422 0.09606 0.53784 0.0
C1141 C 0.80356 0.08414 0.56412 0.0
H1142 H 0.93742 0.71155 0.62098 0.0
H1143 H 0.96031 0.66836 0.5869 0.0
H1144 H 0.94046 0.66281 0.53852 0.0
H1145 H 0.91823 0.67179 0.50504 0.0
H1146 H 0.89446 0.71408 0.53924 0.0
H1147 H 0.91278 0.71821 0.58882 0.0
C1148 C 0.93807 0.70091 0.60296 0.0
C1149 C 0.95059 0.69062 0.60737 0.0
C1150 C 0.92641 0.6976 0.57538 0.0
C1151 C 0.95088 0.67653 0.58406 0.0
C1152 C 0.93956 0.67338 0.55639 0.0
C1153 C 0.91698 0.68179 0.52349 0.0
C1154 C 0.90529 0.69286 0.51857 0.0
C1155 C 0.92752 0.68405 0.5517 0.0
C1156 C 0.90341 0.70546 0.54263 0.0
C1157 C 0.91397 0.7079 0.57082 0.0
H1158 H 0.92408 0.68889 0.74992 0.0
H1159 H 0.94016 0.63685 0.74861 0.0
H1160 H 0.91191 0.61648 0.78709 0.0
H1161 H 0.88495 0.61499 0.82427 0.0
H1162 H 0.86848 0.66655 0.82613 0.0
H1163 H 0.89422 0.68539 0.78376 0.0
C1164 C 0.92133 0.67305 0.75796 0.0
C1165 C 0.93446 0.66459 0.74668 0.0
C1166 C 0.90492 0.66129 0.78003 0.0
C1167 C 0.9304 0.64382 0.75695 0.0
C1168 C 0.91425 0.63214 0.77899 0.0
C1169 C 0.88671 0.63012 0.81488 0.0
C1170 C 0.87499 0.63949 0.82814 0.0
C1171 C 0.90171 0.64091 0.79105 0.0
C1172 C 0.87727 0.65903 0.816 0.0
C1173 C 0.89213 0.66987 0.79206 0.0
H1174 H 0.37962 0.28047 0.74843 0.0
H1175 H 0.3114 0.26261 0.75919 0.0
H1176 H 0.3068 0.2373 0.80015 0.0
H1177 H 0.32262 0.22187 0.83482 0.0
H1178 H 0.3914 0.24153 0.82635 0.0
H1179 H 0.39495 0.26364 0.78163 0.0
C1180 C 0.36371 0.27108 0.75969 0.0
C1181 C 0.34596 0.27372 0.75085 0.0
C1182 C 0.36116 0.25655 0.78332 0.0
C1183 C 0.32543 0.26114 0.76559 0.0
C1184 C 0.32274 0.24655 0.78896 0.0
C1185 C 0.33836 0.23084 0.82301 0.0
C1186 C 0.35675 0.23013 0.83412 0.0
C1187 C 0.34055 0.24433 0.79822 0.0
C1188 C 0.37689 0.24152 0.8182 0.0
C1189 C 0.37903 0.25448 0.79288 0.0
H1190 H 0.77196 0.07799 0.74707 0.0
H1191 H 0.71052 0.0776 0.75209 0.0
H1192 H 0.72514 0.10441 0.79537 0.0
H1193 H 0.75392 0.12472 0.83504 0.0
H1194 H 0.81445 0.1232 0.83073 0.0
H1195 H 0.80201 0.10127 0.78315 0.0
C1196 C 0.76177 0.08382 0.75755 0.0
C1197 C 0.74003 0.07545 0.74683 0.0
C1198 C 0.77023 0.09915 0.78234 0.0
C1199 C 0.72725 0.08361 0.76013 0.0
C1200 C 0.7356 0.09895 0.78486 0.0
C1201 C 0.76452 0.11987 0.82341 0.0
C1202 C 0.785 0.12548 0.83672 0.0
C1203 C 0.75687 0.10639 0.79662 0.0
C1204 C 0.79873 0.11942 0.82102 0.0
C1205 C 0.79147 0.10652 0.79398 0.0
H1206 H 0.0832 0.40559 0.03577 0.0
H1207 H 0.04671 0.33595 0.00749 0.0
H1208 H 0.07756 0.33167 0.0229 0.0
H1209 H 0.11222 0.34598 0.0517 0.0
H1210 H 0.14704 0.41411 0.08601 0.0
H1211 H 0.12017 0.42103 0.06057 0.0
C1212 C 0.08235 0.3897 0.03233 0.0
C1213 C 0.06276 0.3711 0.02054 0.0
C1214 C 0.09992 0.3871 0.04248 0.0
C1215 C 0.06162 0.35046 0.01664 0.0
C1216 C 0.07925 0.34799 0.02547 0.0
C1217 C 0.11438 0.36257 0.05246 0.0
C1218 C 0.13178 0.37965 0.07006 0.0
C1219 C 0.09815 0.36596 0.03936 0.0
C1220 C 0.13402 0.40088 0.07196 0.0
C1221 C 0.11847 0.40471 0.05779 0.0
H1222 H 0.68471 0.71711 0.03236 0.0
H1223 H 0.61361 0.67434 0.03355 0.0
H1224 H 0.61008 0.70519 0.05475 0.0
H1225 H 0.62767 0.74342 0.07738 0.0
H1226 H 0.69857 0.78684 0.0733 0.0
H1227 H 0.70185 0.75697 0.0479 0.0
C1228 C 0.66849 0.71469 0.03715 0.0
C1229 C 0.64946 0.69353 0.0321 0.0
C1230 C 0.66659 0.73268 0.04838 0.0
C1231 C 0.62846 0.69053 0.0376 0.0
C1232 C 0.62644 0.70814 0.04964 0.0
C1233 C 0.6437 0.74648 0.06988 0.0
C1234 C 0.66285 0.76721 0.07679 0.0
C1235 C 0.64542 0.72919 0.05556 0.0
C1236 C 0.68363 0.77107 0.06759 0.0
C1237 C 0.68552 0.75391 0.05353 0.0
H1238 H 0.31272 0.92718 0.01283 0.0
H1239 H 0.2981 0.97553 0.05193 0.0
H1240 H 0.26462 0.94541 0.07534 0.0
H1241 H 0.242 0.90618 0.08922 0.0
H1242 H 0.25972 0.85851 0.05705 0.0
H1243 H 0.28865 0.88715 0.02489 0.0
C1244 C 0.30209 0.93108 0.02625 0.0
C1245 C 0.30797 0.95357 0.03093 0.0
C1246 C 0.28327 0.91372 0.04053 0.0
C1247 C 0.29406 0.95839 0.04834 0.0
C1248 C 0.27487 0.94117 0.06158 0.0
C1249 C 0.25204 0.90196 0.0749 0.0
C1250 C 0.24897 0.88033 0.07604 0.0
C1251 C 0.26966 0.91887 0.05847 0.0
C1252 C 0.26166 0.87497 0.05665 0.0
C1253 C 0.27847 0.89147 0.03865 0.0
H1254 H 0.33562 0.03843 0.96929 0.0
H1255 H 0.40595 0.07287 0.98687 0.0
H1256 H 0.4098 0.10819 0.97069 0.0
H1257 H 0.39341 0.12836 0.94657 0.0
H1258 H 0.32295 0.09368 0.9303 0.0
H1259 H 0.31869 0.05959 0.95185 0.0
C1260 C 0.35176 0.05371 0.96966 0.0
C1261 C 0.37055 0.05302 0.97861 0.0
C1262 C 0.35374 0.07398 0.96099 0.0
C1263 C 0.39129 0.07299 0.97973 0.0
C1264 C 0.39348 0.09318 0.97057 0.0
C1265 C 0.37708 0.11357 0.94893 0.0
C1266 C 0.35846 0.11353 0.93727 0.0
C1267 C 0.37485 0.09382 0.96067 0.0
C1268 C 0.33741 0.09413 0.93964 0.0
C1269 C 0.33504 0.07456 0.95151 0.0
H1270 H 0.95378 0.29756 0.0073 0.0
H1271 H 0.96822 0.33631 0.92558 0.0
H1272 H 0.93629 0.3048 0.89935 0.0
H1273 H 0.90612 0.26586 0.89875 0.0
H1274 H 0.89631 0.22465 0.97681 0.0
H1275 H 0.92351 0.25777 0.00619 0.0
C1276 C 0.94978 0.299 0.98378 0.0
C1277 C 0.9632 0.31899 0.96815 0.0
C1278 C 0.93204 0.28051 0.9685 0.0
C1279 C 0.95814 0.32088 0.93774 0.0
C1280 C 0.93987 0.30297 0.9229 0.0
C1281 C 0.91003 0.26393 0.92209 0.0
C1282 C 0.89947 0.24253 0.93514 0.0
C1283 C 0.92699 0.2826 0.93789 0.0
C1284 C 0.90403 0.24078 0.96601 0.0
C1285 C 0.91988 0.2597 0.98272 0.0
H1286 H 0.69811 0.61722 -0.00255 0.0
H1287 H 0.71545 0.68026 0.95739 0.0
H1288 H 0.74808 0.68264 0.93398 0.0
H1289 H 0.76892 0.66473 0.91952 0.0
H1290 H 0.74971 0.59985 0.95455 0.0
H1291 H 0.7214 0.60073 0.98638 0.0
C1292 C 0.70924 0.63161 0.98396 0.0
C1293 C 0.70421 0.64841 0.97884 0.0
C1294 C 0.72776 0.6326 0.9698 0.0
C1295 C 0.71876 0.66696 0.96132 0.0
C1296 C 0.73749 0.66838 0.948 0.0
C1297 C 0.75881 0.65096 0.93458 0.0
C1298 C 0.76125 0.63213 0.93433 0.0
C1299 C 0.74176 0.65099 0.95132 0.0
C1300 C 0.74829 0.6146 0.95436 0.0
C1301 C 0.73184 0.61494 0.97221 0.0
H1302 H 0.93129 0.60166 0.98202 0.0
H1303 H 0.97186 0.67348 0.97432 0.0
H1304 H 0.94029 0.67503 0.95555 0.0
H1305 H 0.90279 0.65594 0.93487 0.0
H1306 H 0.86201 0.58412 0.93787 0.0
H1307 H 0.89148 0.58256 0.96566 0.0
C1308 C 0.93302 0.61761 0.97666 0.0
C1309 C 0.95398 0.63738 0.97909 0.0
C1310 C 0.9147 0.61839 0.96503 0.0
C1311 C 0.95602 0.65796 0.97211 0.0
C1312 C 0.93795 0.65892 0.96148 0.0
C1313 C 0.90016 0.64001 0.94239 0.0
C1314 C 0.88037 0.6202 0.93436 0.0
C1315 C 0.91744 0.63923 0.95695 0.0
C1316 C 0.87708 0.59962 0.9441 0.0
C1317 C 0.89406 0.59873 0.95958 0.0
H1318 H 0.33045 0.29347 0.97729 0.0
H1319 H 0.39492 0.31628 0.01674 0.0
H1320 H 0.39346 0.28231 -0.00177 0.0
H1321 H 0.37615 0.24871 0.96477 0.0
H1322 H 0.31116 0.22493 0.92663 0.0
H1323 H 0.31012 0.25612 0.95165 0.0
C1324 C 0.34406 0.29086 0.982 0.0
C1325 C 0.363 0.30761 -0.00237 0.0
C1326 C 0.34292 0.27098 0.97181 0.0
C1327 C 0.38029 0.30382 0.00433 0.0
C1328 C 0.37945 0.28432 0.99384 0.0
C1329 C 0.36136 0.24979 0.96303 0.0
C1330 C 0.34389 0.23472 0.94356 0.0
C1331 C 0.36111 0.26806 0.97687 0.0
C1332 C 0.32489 0.23645 0.94137 0.0
C1333 C 0.32441 0.25445 0.95532 0.0
H1334 H 0.69538 0.06673 0.00703 0.0
H1335 H 0.68947 0.01543 0.94341 0.0
H1336 H 0.72436 0.04201 0.92005 0.0
H1337 H 0.75543 0.07991 0.91513 0.0
H1338 H 0.76193 0.13278 0.97543 0.0
H1339 H 0.72845 0.10555 0.00321 0.0
C1340 C 0.70183 0.06144 0.98816 0.0
C1341 C 0.68963 0.03909 0.97689 0.0
C1342 C 0.72211 0.07705 0.97434 0.0
C1343 C 0.69827 0.03248 0.95244 0.0
C1344 C 0.71834 0.04767 0.93906 0.0
C1345 C 0.74962 0.08545 0.93456 0.0
C1346 C 0.76093 0.10828 0.94309 0.0
C1347 C 0.7302 0.06998 0.94951 0.0
C1348 C 0.75347 0.11524 0.96852 0.0
C1349 C 0.73423 0.09971 0.98415 0.0
H1350 H 0.66116 0.95175 0.01927 0.0
H1351 H 0.59109 0.9232 0.03286 0.0
H1352 H 0.58807 0.88893 0.05235 0.0
H1353 H 0.60671 0.86969 0.07219 0.0
H1354 H 0.67679 0.89851 0.05711 0.0
H1355 H 0.67832 0.9296 0.0304 0.0
C1356 C 0.64517 0.93782 0.026 0.0
C1357 C 0.62642 0.93998 0.02518 0.0
C1358 C 0.64358 0.91819 0.03673 0.0
C1359 C 0.60572 0.92182 0.03345 0.0
C1360 C 0.60404 0.90231 0.04466 0.0
C1361 C 0.62214 0.88243 0.06217 0.0
C1362 C 0.64163 0.88182 0.06686 0.0
C1363 C 0.62301 0.9006 0.0473 0.0
C1364 C 0.6615 0.89839 0.05363 0.0
C1365 C 0.66248 0.91641 0.03874 0.0
H1366 H 0.07699 0.69557 0.01457 0.0
H1367 H 0.02756 0.70421 0.06104 0.0
H1368 H 0.05667 0.73787 0.08745 0.0
H1369 H 0.09579 0.76269 0.10066 0.0
H1370 H 0.1448 0.7505 0.05994 0.0
H1371 H 0.11646 0.72138 0.02666 0.0
C1372 C 0.07262 0.70494 0.03028 0.0
C1373 C 0.05019 0.69734 0.0361 0.0
C1374 C 0.08943 0.72385 0.04613 0.0
C1375 C 0.04473 0.70961 0.0565 0.0
C1376 C 0.06136 0.7289 0.07149 0.0
C1377 C 0.10036 0.75369 0.08455 0.0
C1378 C 0.12246 0.75866 0.08343 0.0
C1379 C 0.08373 0.73584 0.06702 0.0
C1380 C 0.12807 0.74732 0.06142 0.0
C1381 C 0.11175 0.73033 0.04263 0.0
H1382 H 0.30239 0.33998 0.02771 0.0
H1383 H 0.34851 0.41051 0.04273 0.0
H1384 H 0.3182 0.41573 0.06005 0.0
H1385 H 0.27918 0.39914 0.07635 0.0
H1386 H 0.23285 0.32896 0.05858 0.0
H1387 H 0.26239 0.32469 0.03598 0.0
C1388 C 0.30566 0.35651 0.03439 0.0
C1389 C 0.32755 0.37481 0.03444 0.0
C1390 C 0.28809 0.35942 0.04357 0.0
C1391 C 0.33172 0.39623 0.04266 0.0
C1392 C 0.31442 0.39918 0.05258 0.0
C1393 C 0.27548 0.38312 0.06654 0.0
C1394 C 0.2539 0.3644 0.06897 0.0
C1395 C 0.29261 0.38079 0.05378 0.0
C1396 C 0.24927 0.34365 0.05652 0.0
C1397 C 0.26622 0.34115 0.04401 0.0
H1398 H 0.72682 0.6814 0.35899 0.0
H1399 H 0.74731 0.74681 0.39726 0.0
H1400 H 0.77988 0.74877 0.42087 0.0
H1401 H 0.8001 0.72986 0.43494 0.0
H1402 H 0.78034 0.66512 0.39464 0.0
H1403 H 0.75037 0.66514 0.36656 0.0
C1404 C 0.73863 0.69615 0.37224 0.0
C1405 C 0.73468 0.71381 0.37694 0.0
C1406 C 0.7575 0.69733 0.38505 0.0
C1407 C 0.7501 0.73302 0.39362 0.0
C1408 C 0.76866 0.73412 0.40706 0.0
C1409 C 0.78964 0.71613 0.41921 0.0
C1410 C 0.79242 0.69753 0.41678 0.0
C1411 C 0.77227 0.71616 0.40345 0.0
C1412 C 0.77872 0.67974 0.39653 0.0
C1413 C 0.76137 0.6796 0.38084 0.0
H1414 H 0.32849 0.05593 0.33596 0.0
H1415 H 0.2919 0.01172 0.40945 0.0
H1416 H 0.288 0.04128 0.4346 0.0
H1417 H 0.29716 0.08008 0.4373 0.0
H1418 H 0.34005 0.12654 0.36928 0.0
H1419 H 0.33804 0.09553 0.33911 0.0
C1420 C 0.31974 0.05295 0.35752 0.0
C1421 C 0.31067 0.03198 0.37122 0.0
C1422 C 0.31831 0.07028 0.37234 0.0
C1423 C 0.29923 0.02795 0.39894 0.0
C1424 C 0.29687 0.04474 0.4131 0.0
C1425 C 0.30617 0.08353 0.4159 0.0
C1426 C 0.31918 0.10577 0.40605 0.0
C1427 C 0.30665 0.06605 0.40024 0.0
C1428 C 0.32985 0.10967 0.37753 0.0
C1429 C 0.32906 0.09197 0.36052 0.0
H1430 H 0.98184 0.26772 0.33972 0.0
H1431 H 0.96478 0.31445 0.37816 0.0
H1432 H 0.93159 0.28378 0.40093 0.0
H1433 H 0.90974 0.24458 0.41471 0.0
H1434 H 0.92874 0.19798 0.38235 0.0
H1435 H 0.95806 0.22728 0.35126 0.0
C1436 C 0.97066 0.27106 0.35277 0.0
C1437 C 0.97583 0.29331 0.35752 0.0
C1438 C 0.95185 0.25331 0.36671 0.0
C1439 C 0.9613 0.29749 0.37454 0.0
C1440 C 0.94226 0.27996 0.38745 0.0
C1441 C 0.92012 0.24074 0.40053 0.0
C1442 C 0.91727 0.21923 0.40123 0.0
C1443 C 0.93771 0.25792 0.38438 0.0
C1444 C 0.93051 0.21437 0.3822 0.0
C1445 C 0.94751 0.23123 0.36477 0.0
H1446 H 0.06604 0.41739 0.32292 0.0
H1447 H 0.99628 0.37571 0.30181 0.0
H1448 H 0.99498 0.40839 0.28643 0.0
H1449 H 0.01461 0.44727 0.27095 0.0
H1450 H 0.08512 0.48848 0.28471 0.0
H1451 H 0.08518 0.45816 0.31232 0.0
C1452 C 0.05055 0.41562 0.3154 0.0
C1453 C 0.03135 0.39414 0.31303 0.0
C1454 C 0.05006 0.43453 0.30554 0.0
C1455 C 0.01135 0.39201 0.30328 0.0
C1456 C 0.01055 0.41071 0.29466 0.0
C1457 C 0.02981 0.44989 0.28121 0.0
C1458 C 0.04979 0.47 0.27597 0.0
C1459 C 0.02992 0.43188 0.29469 0.0
C1460 C 0.0695 0.47322 0.28887 0.0
C1461 C 0.06957 0.4557 0.30405 0.0
H1462 H 0.61357 0.6495 0.33719 0.0
H1463 H 0.66345 0.64857 0.28017 0.0
H1464 H 0.63516 0.61353 0.25565 0.0
H1465 H 0.59629 0.58483 0.24794 0.0
H1466 H 0.54565 0.58661 0.30171 0.0
H1467 H 0.57435 0.61929 0.33104 0.0
C1468 C 0.61825 0.64158 0.31947 0.0
C1469 C 0.64056 0.65173 0.31025 0.0
C1470 C 0.60183 0.62154 0.30523 0.0
C1471 C 0.6464 0.64122 0.28743 0.0
C1472 C 0.63025 0.62115 0.27351 0.0
C1473 C 0.59155 0.59226 0.26634 0.0
C1474 C 0.56895 0.58361 0.27251 0.0
C1475 C 0.60795 0.6114 0.28193 0.0
C1476 C 0.56296 0.59302 0.29666 0.0
C1477 C 0.57934 0.61182 0.3131 0.0
H1478 H 0.35196 0.95105 0.32743 0.0
H1479 H 0.37204 0.01607 0.29156 0.0
H1480 H 0.40569 0.01927 0.27135 0.0
H1481 H 0.42756 1.00226 0.25864 0.0
H1482 H 0.40741 0.93647 0.29067 0.0
H1483 H 0.37638 0.93526 0.31844 0.0
C1484 C 0.36383 0.96597 0.31546 0.0
C1485 C 0.3592 0.98312 0.31065 0.0
C1486 C 0.38332 0.96767 0.30334 0.0
C1487 C 0.37488 0.00242 0.29523 0.0
C1488 C 0.39427 0.00436 0.28372 0.0
C1489 C 0.41668 0.98788 0.27235 0.0
C1490 C 0.41974 0.96948 0.27252 0.0
C1491 C 0.39841 0.98692 0.28697 0.0
C1492 C 0.40556 0.95097 0.29042 0.0
C1493 C 0.38759 0.95014 0.30589 0.0
H1494 H 0.59596 0.94912 0.33179 0.0
H1495 H 0.64372 0.01742 0.30901 0.0
H1496 H 0.61424 0.02235 0.28929 0.0
H1497 H 0.57586 0.00616 0.2727 0.0
H1498 H 0.52813 0.93688 0.29009 0.0
H1499 H 0.5562 0.93365 0.31871 0.0
C1500 C 0.59978 0.96515 0.32299 0.0
C1501 C 0.62202 0.98282 0.32159 0.0
C1502 C 0.58269 0.96771 0.31072 0.0
C1503 C 0.62678 0.00349 0.31 0.0
C1504 C 0.60992 0.00635 0.29876 0.0
C1505 C 0.57149 0.99043 0.28317 0.0
C1506 C 0.54999 0.97174 0.27893 0.0
C1507 C 0.58795 0.9884 0.29813 0.0
C1508 C 0.5445 0.95159 0.29311 0.0
C1509 C 0.56066 0.94965 0.30912 0.0
H1510 H 0.02556 0.62886 0.33533 0.0
H1511 H 0.02288 0.66173 0.25406 0.0
H1512 H 0.02269 0.63263 0.2218 0.0
H1513 H 0.0254 0.59963 0.21661 0.0
H1514 H 0.02493 0.56394 0.29669 0.0
H1515 H 0.02484 0.59288 0.3297 0.0
C1516 C 0.02481 0.62951 0.31055 0.0
C1517 C 0.02434 0.64743 0.29701 0.0
C1518 C 0.02432 0.61243 0.29206 0.0
C1519 C 0.02319 0.64807 0.26497 0.0
C1520 C 0.02315 0.63149 0.24653 0.0
C1521 C 0.02444 0.59748 0.24124 0.0
C1522 C 0.02471 0.57919 0.25399 0.0
C1523 C 0.02385 0.61373 0.25984 0.0
C1524 C 0.02471 0.57774 0.28613 0.0
C1525 C 0.02459 0.59426 0.30501 0.0
H1526 H 0.35535 0.41912 0.33243 0.0
H1527 H 0.36919 0.36836 0.30138 0.0
H1528 H 0.40486 0.39701 0.28151 0.0
H1529 H 0.43026 0.43582 0.26788 0.0
H1530 H 0.41555 0.48678 0.29311 0.0
H1531 H 0.38244 0.45907 0.32091 0.0
C1532 C 0.36637 0.41447 0.32167 0.0
C1533 C 0.35963 0.39167 0.31819 0.0
C1534 C 0.38673 0.43111 0.30935 0.0
C1535 C 0.37392 0.38578 0.30402 0.0
C1536 C 0.39436 0.40215 0.29274 0.0
C1537 C 0.42012 0.44092 0.28032 0.0
C1538 C 0.4254 0.46323 0.27912 0.0
C1539 C 0.4007 0.42476 0.29465 0.0
C1540 C 0.41193 0.46971 0.2944 0.0
C1541 C 0.3929 0.45381 0.30991 0.0
H1542 H 0.32959 0.30192 0.34895 0.0
H1543 H 0.26207 0.27605 0.37694 0.0
H1544 H 0.26103 0.24343 0.39915 0.0
H1545 H 0.28114 0.22484 0.41582 0.0
H1546 H 0.3482 0.25021 0.38565 0.0
H1547 H 0.34754 0.28014 0.35837 0.0
C1548 C 0.31452 0.28883 0.35934 0.0
C1549 C 0.29595 0.29125 0.36153 0.0
C1550 C 0.31403 0.2701 0.37165 0.0
C1551 C 0.27648 0.27434 0.37493 0.0
C1552 C 0.27596 0.2558 0.38774 0.0
C1553 C 0.29534 0.23659 0.40254 0.0
C1554 C 0.3147 0.23536 0.40274 0.0
C1555 C 0.29485 0.25382 0.38695 0.0
C1556 C 0.33305 0.25068 0.38555 0.0
C1557 C 0.33276 0.26794 0.37024 0.0
H1558 H 0.71003 0.04629 0.38028 0.0
H1559 H 0.74307 0.01226 0.34756 0.0
H1560 H 0.77886 0.04403 0.36459 0.0
H1561 H 0.79991 0.07949 0.39434 0.0
H1562 H 0.76681 0.11363 0.42627 0.0
H1563 H 0.73203 0.08431 0.40294 0.0
C1564 C 0.72511 0.04594 0.3768 0.0
C1565 C 0.72397 0.02686 0.36339 0.0
C1566 C 0.74563 0.06443 0.38606 0.0
C1567 C 0.7436 0.02672 0.3582 0.0
C1568 C 0.76405 0.0449 0.36783 0.0
C1569 C 0.7853 0.08094 0.39502 0.0
C1570 C 0.78584 0.09862 0.41194 0.0
C1571 C 0.76521 0.06365 0.38236 0.0
C1572 C 0.76673 0.10018 0.41316 0.0
C1573 C 0.74679 0.08326 0.40025 0.0
H1574 H 0.96471 0.67583 0.35027 0.0
H1575 H 0.01222 0.74421 0.37645 0.0
H1576 H 0.9826 0.74825 0.39974 0.0
H1577 H 0.94411 0.73024 0.41899 0.0
H1578 H 0.89677 0.66203 0.39144 0.0
H1579 H 0.92519 0.66014 0.36148 0.0
C1580 C 0.96845 0.69174 0.36054 0.0
C1581 C 0.99054 0.70963 0.36211 0.0
C1582 C 0.95136 0.69392 0.37356 0.0
C1583 C 0.99528 0.73026 0.37505 0.0
C1584 C 0.97837 0.7325 0.38847 0.0
C1585 C 0.93993 0.71524 0.40561 0.0
C1586 C 0.91843 0.69626 0.4075 0.0
C1587 C 0.95647 0.71418 0.38875 0.0
C1588 C 0.91313 0.6769 0.39011 0.0
C1589 C 0.92945 0.67572 0.3733 0.0
H1590 H 0.38364 0.0052 0.68605 0.0
H1591 H 0.41926 0.07732 0.69179 0.0
H1592 H 0.45067 0.07774 0.71645 0.0
H1593 H 0.46618 0.05716 0.74121 0.0
H1594 H 0.43155 0.98519 0.73252 0.0
H1595 H 0.40183 0.98503 0.70343 0.0
C1596 C 0.39842 0.02096 0.69243 0.0
C1597 C 0.39914 0.04118 0.68767 0.0
C1598 C 0.41661 0.02106 0.70581 0.0
C1599 C 0.41842 0.06157 0.69543 0.0
C1600 C 0.43633 0.06181 0.70953 0.0
C1601 C 0.45245 0.04157 0.73201 0.0
C1602 C 0.45102 0.02124 0.73876 0.0
C1603 C 0.43542 0.04163 0.7154 0.0
C1604 C 0.4331 1.00105 0.72713 0.0
C1605 C 0.41598 1.00093 0.71088 0.0
H1606 H 0.95628 0.35628 0.69261 0.0
H1607 H 1.00023 0.35007 0.75498 0.0
H1608 H 0.0088 0.38488 0.78111 0.0
H1609 H 1.0039 0.41675 0.78664 0.0
H1610 H 0.95902 0.4233 0.72695 0.0
H1611 H 0.9513 0.38904 0.69851 0.0
C1612 C 0.96763 0.36252 0.71203 0.0
C1613 C 0.97753 0.35052 0.72193 0.0
C1614 C 0.97254 0.3827 0.72708 0.0
C1615 C 0.9923 0.35887 0.74697 0.0
C1616 C 0.99731 0.37885 0.76186 0.0
C1617 C 0.99227 0.41063 0.76752 0.0
C1618 C 0.98172 0.4223 0.75923 0.0
C1619 C 0.98753 0.39083 0.75212 0.0
C1620 C 0.96729 0.41457 0.7338 0.0
C1621 C 0.96277 0.39491 0.71777 0.0
H1622 H 0.64613 0.59897 0.68318 0.0
H1623 H 0.63399 0.64665 0.73049 0.0
H1624 H 0.60001 0.61615 0.75199 0.0
H1625 H 0.57581 0.57639 0.76152 0.0
H1626 H 0.5898 0.52831 0.72006 0.0
H1627 H 0.62019 0.55822 0.69093 0.0
C1628 C 0.63589 0.60261 0.69796 0.0
C1629 C 0.64268 0.62507 0.70545 0.0
C1630 C 0.61656 0.58487 0.71105 0.0
C1631 C 0.62929 0.62955 0.72467 0.0
C1632 C 0.60979 0.61211 0.73686 0.0
C1633 C 0.58532 0.57238 0.74579 0.0
C1634 C 0.5807 0.55017 0.74332 0.0
C1635 C 0.60355 0.58977 0.73078 0.0
C1636 C 0.59289 0.5452 0.72235 0.0
C1637 C 0.61052 0.56239 0.70605 0.0
H1638 H 0.67145 0.71596 0.65413 0.0
H1639 H 0.74192 0.74563 0.66616 0.0
H1640 H 0.7482 0.78149 0.64803 0.0
H1641 H 0.73369 0.80277 0.6222 0.0
H1642 H 0.66315 0.77298 0.6114 0.0
H1643 H 0.65673 0.73916 0.63656 0.0
C1644 C 0.68815 0.73038 0.65312 0.0
C1645 C 0.70622 0.72811 0.66092 0.0
C1646 C 0.69158 0.75102 0.64318 0.0
C1647 C 0.72775 0.74698 0.66009 0.0
C1648 C 0.73134 0.76748 0.64971 0.0
C1649 C 0.71694 0.78925 0.62666 0.0
C1650 C 0.69889 0.79041 0.61525 0.0
C1651 C 0.71341 0.76956 0.64046 0.0
C1652 C 0.67724 0.77256 0.62043 0.0
C1653 C 0.67359 0.75308 0.63436 0.0
H1654 H 0.31222 0.96892 0.63569 0.0
H1655 H 0.28093 0.00774 0.62606 0.0
H1656 H 0.24666 0.97425 0.60809 0.0
H1657 H 0.22676 0.93454 0.59141 0.0
H1658 H 0.2573 0.89522 0.60338 0.0
H1659 H 0.29044 0.92799 0.62531 0.0
C1660 C 0.29785 0.96992 0.62957 0.0
C1661 C 0.29907 0.99068 0.63135 0.0
C1662 C 0.27802 0.95047 0.62033 0.0
C1663 C 0.2803 0.99188 0.62434 0.0
C1664 C 0.26074 0.97276 0.61426 0.0
C1665 C 0.24041 0.93305 0.59983 0.0
C1666 C 0.23962 0.91256 0.59606 0.0
C1667 C 0.25949 0.95202 0.61186 0.0
C1668 C 0.25744 0.91076 0.60661 0.0
C1669 C 0.27652 0.92958 0.61863 0.0
H1670 H 0.01473 0.27278 0.65791 0.0
H1671 H 0.03072 0.33795 0.62725 0.0
H1672 H 0.06386 0.343 0.60236 0.0
H1673 H 0.08643 0.32776 0.58483 0.0
H1674 H 0.07026 0.26201 0.61215 0.0
H1675 H 0.03976 0.25869 0.64363 0.0
C1676 C 0.02559 0.28812 0.64599 0.0
C1677 C 0.01999 0.30479 0.64411 0.0
C1678 C 0.04476 0.29093 0.63128 0.0
C1679 C 0.03436 0.32467 0.62875 0.0
C1680 C 0.05344 0.32767 0.61456 0.0
C1681 C 0.07648 0.31288 0.59817 0.0
C1682 C 0.08049 0.29512 0.59602 0.0
C1683 C 0.05853 0.31075 0.61509 0.0
C1684 C 0.06762 0.27601 0.61361 0.0
C1685 C 0.04997 0.27398 0.63126 0.0
H1686 H 0.2766 0.29151 0.61227 0.0
H1687 H 0.25876 0.30425 0.70172 0.0
H1688 H 0.22627 0.30352 0.67965 0.0
H1689 H 0.20519 0.3029 0.6333 0.0
H1690 H 0.22316 0.28842 0.54476 0.0
H1691 H 0.25301 0.28568 0.56798 0.0
C1692 C 0.26536 0.29381 0.6269 0.0
C1693 C 0.26995 0.29815 0.6583 0.0
C1694 C 0.24678 0.29307 0.61415 0.0
C1695 C 0.25536 0.30089 0.67735 0.0
C1696 C 0.23689 0.30054 0.66472 0.0
C1697 C 0.21538 0.29868 0.61937 0.0
C1698 C 0.21234 0.29631 0.58735 0.0
C1699 C 0.23269 0.29714 0.63296 0.0
C1700 C 0.22552 0.29069 0.56942 0.0
C1701 C 0.2426 0.28917 0.58262 0.0
H1702 H 0.71452 0.98232 0.66676 0.0
H1703 H 0.65722 0.97065 0.61514 0.0
H1704 H 0.65305 0.93618 0.59303 0.0
H1705 H 0.66764 0.91144 0.58463 0.0
H1706 H 0.72776 0.92566 0.63083 0.0
H1707 H 0.72811 0.95613 0.66016 0.0
C1708 C 0.70104 0.97212 0.65085 0.0
C1709 C 0.68634 0.97913 0.64231 0.0
C1710 C 0.69907 0.95257 0.6376 0.0
C1711 C 0.66892 0.96576 0.62174 0.0
C1712 C 0.66645 0.94598 0.60922 0.0
C1713 C 0.68075 0.92107 0.60133 0.0
C1714 C 0.69785 0.91645 0.60507 0.0
C1715 C 0.68171 0.93952 0.61647 0.0
C1716 C 0.71431 0.92869 0.62748 0.0
C1717 C 0.71473 0.94641 0.64391 0.0
H1718 H 0.05886 0.71976 0.6659 0.0
H1719 H 0.01693 0.74688 0.65084 0.0
H1720 H 0.04833 0.78073 0.62935 0.0
H1721 H 0.0863 0.79973 0.60815 0.0
H1722 H 0.12834 0.77295 0.62508 0.0
H1723 H 0.09868 0.7423 0.65369 0.0
C1724 C 0.05679 0.73332 0.65838 0.0
C1725 C 0.0357 0.73085 0.65936 0.0
C1726 C 0.07498 0.75282 0.64667 0.0
C1727 C 0.03308 0.7485 0.65007 0.0
C1728 C 0.051 0.76779 0.63778 0.0
C1729 C 0.0892 0.78768 0.61925 0.0
C1730 C 0.10946 0.78858 0.61454 0.0
C1731 C 0.07187 0.76983 0.63514 0.0
C1732 C 0.11302 0.77279 0.62873 0.0
C1733 C 0.09591 0.75503 0.64463 0.0
H1734 H 0.96261 0.60236 0.68184 0.0
H1735 H 0.02323 0.65127 0.7279 0.0
H1736 H 0.02784 0.62149 0.74763 0.0
H1737 H 0.01281 0.58175 0.75656 0.0
H1738 H 0.95074 0.53227 0.71516 0.0
H1739 H 0.94871 0.56183 0.68817 0.0
C1740 C 0.97694 0.60645 0.69589 0.0
C1741 C 0.99245 0.62903 0.70361 0.0
C1742 C 0.97927 0.58909 0.70783 0.0
C1743 C 0.01091 0.63406 0.7219 0.0
C1744 C 0.01362 0.61704 0.73313 0.0
C1745 C 0.99923 0.57745 0.74079 0.0
C1746 C 0.98217 0.55497 0.73727 0.0
C1747 C 0.9977 0.59454 0.72681 0.0
C1748 C 0.96428 0.54948 0.71759 0.0
C1749 C 0.963 0.56641 0.70256 0.0
H1750 H 0.39439 0.35886 0.68848 0.0
H1751 H 0.34869 0.36857 0.74334 0.0
H1752 H 0.37946 0.40329 0.76514 0.0
H1753 H 0.41932 0.42883 0.77221 0.0
H1754 H 0.46525 0.41646 0.72234 0.0
H1755 H 0.43452 0.38583 0.69363 0.0
C1756 C 0.39117 0.36867 0.70504 0.0
C1757 C 0.36932 0.36102 0.71457 0.0
C1758 C 0.40901 0.38838 0.71803 0.0
C1759 C 0.36538 0.37394 0.73595 0.0
C1760 C 0.38296 0.39387 0.74829 0.0
C1761 C 0.42268 0.41955 0.7549 0.0
C1762 C 0.44463 0.42479 0.74997 0.0
C1763 C 0.40486 0.40096 0.74002 0.0
C1764 C 0.44863 0.41301 0.72667 0.0
C1765 C 0.43099 0.39517 0.71056 0.0
H1766 H 0.62353 0.00411 0.68537 0.0
H1767 H 0.667 0.07382 0.70953 0.0
H1768 H 0.6361 0.07503 0.73387 0.0
H1769 H 0.59785 0.05458 0.75401 0.0
H1770 H 0.5542 0.98528 0.72759 0.0
H1771 H 0.58378 0.98562 0.69754 0.0
C1772 C 0.62603 0.01963 0.69547 0.0
C1773 C 0.64736 0.03878 0.69613 0.0
C1774 C 0.60817 0.02023 0.70887 0.0
C1775 C 0.6506 0.05892 0.70888 0.0
C1776 C 0.63299 0.05956 0.72285 0.0
C1777 C 0.59471 0.03982 0.74081 0.0
C1778 C 0.57398 0.01993 0.74295 0.0
C1779 C 0.61185 0.04013 0.72376 0.0
C1780 C 0.56998 1.00083 0.72596 0.0
C1781 C 0.58696 1.00094 0.70911 0.0
loop_
_geom_bond_atom_site_label_1
_geom_bond_atom_site_label_2
_geom_bond_distance
_geom_bond_site_symmetry_2
_ccdc_geom_bond_type
Co0 O1 2.216 . S
Co0 O2 2.091 . S
Co0 O4 2.004 1_554 S
Co0 O10 2.021 . S
Co0 O12 2.137 1_454 S
Co0 O13 2.244 1_455 S
O1 Co0 2.216 . S
O1 C8 1.247 . S
O2 Co0 2.091 . S
O2 C8 1.261 . S
C3 O12 1.247 . S
C3 O13 1.272 1_556 S
O4 Co0 2.004 1_556 S
O4 C9 1.259 1_455 S
Co5 O6 2.061 1_554 S
Co5 O11 2.052 . S
Co5 O13 2.135 . S
O6 Co5 2.061 1_556 S
O6 C9 1.235 . S
C7 O10 1.238 1_655 S
C7 O11 1.241 . S
C8 O1 1.247 . S
C8 O2 1.261 . S
C9 O4 1.259 1_655 S
C9 O6 1.235 . S
O10 Co0 2.021 . S
O10 C7 1.238 1_455 S
O11 Co5 2.052 . S
O11 C7 1.241 . S
O12 Co0 2.137 1_656 S
O12 C3 1.247 . S
O13 Co0 2.244 1_655 S
O13 C3 1.272 1_554 S
O13 Co5 2.135 . S
Co14 O15 2.216 1_554 S
Co14 O16 2.091 . S
Co14 O18 2.004 . S
Co14 O24 2.021 1_554 S
Co14 O26 2.137 . S
Co14 O27 2.244 . S
O15 Co14 2.216 1_556 S
O15 C22 1.247 . S
O16 Co14 2.091 . S
O16 C22 1.261 1_554 S
C17 O26 1.247 . S
C17 O27 1.272 . S
O18 Co14 2.004 . S
O18 C23 1.259 . S
Co19 O20 2.061 . S
Co19 O25 2.052 1_554 S
Co19 O27 2.135 . S
O20 Co19 2.061 . S
O20 C23 1.235 . S
C21 O24 1.238 . S
C21 O25 1.241 . S
C22 O15 1.247 . S
C22 O16 1.261 1_556 S
C23 O18 1.259 . S
C23 O20 1.235 . S
O24 Co14 2.021 1_556 S
O24 C21 1.238 . S
O25 Co19 2.052 1_556 S
O25 C21 1.241 . S
O26 Co14 2.137 . S
O26 C17 1.247 . S
O27 Co14 2.244 . S
O27 C17 1.272 . S
O27 Co19 2.135 . S
Co28 O29 2.216 1_554 S
Co28 O30 2.091 . S
Co28 O32 2.004 . S
Co28 O38 2.021 1_554 S
Co28 O40 2.137 1_545 S
Co28 O41 2.244 1_545 S
O29 Co28 2.216 1_556 S
O29 C36 1.247 . S
O30 Co28 2.091 . S
O30 C36 1.261 1_554 S
C31 O40 1.247 . S
C31 O41 1.272 . S
O32 Co28 2.004 . S
O32 C37 1.259 . S
Co33 O34 2.061 . S
Co33 O39 2.052 1_554 S
Co33 O41 2.135 . S
O34 Co33 2.061 . S
O34 C37 1.235 1_565 S
C35 O38 1.238 1_565 S
C35 O39 1.241 . S
C36 O29 1.247 . S
C36 O30 1.261 1_556 S
C37 O32 1.259 . S
C37 O34 1.235 1_545 S
O38 Co28 2.021 1_556 S
O38 C35 1.238 1_545 S
O39 Co33 2.052 1_556 S
O39 C35 1.241 . S
O40 Co28 2.137 1_565 S
O40 C31 1.247 . S
O41 Co28 2.244 1_565 S
O41 C31 1.272 . S
O41 Co33 2.135 . S
Co42 O43 2.216 1_554 S
Co42 O44 2.091 . S
Co42 O46 2.004 . S
Co42 O52 2.021 1_554 S
Co42 O54 2.137 1_655 S
Co42 O55 2.244 1_655 S
O43 Co42 2.216 1_556 S
O43 C50 1.247 . S
O44 Co42 2.091 . S
O44 C50 1.261 1_554 S
C45 O54 1.247 . S
C45 O55 1.272 . S
O46 Co42 2.004 . S
O46 C51 1.259 1_655 S
Co47 O48 2.061 . S
Co47 O53 2.052 1_554 S
Co47 O55 2.135 . S
O48 Co47 2.061 . S
O48 C51 1.235 . S
C49 O52 1.238 1_455 S
C49 O53 1.241 . S
C50 O43 1.247 . S
C50 O44 1.261 1_556 S
C51 O46 1.259 1_455 S
C51 O48 1.235 . S
O52 Co42 2.021 1_556 S
O52 C49 1.238 1_655 S
O53 Co47 2.052 1_556 S
O53 C49 1.241 . S
O54 Co42 2.137 1_455 S
O54 C45 1.247 . S
O55 Co42 2.244 1_455 S
O55 C45 1.272 . S
O55 Co47 2.135 . S
Co56 O57 2.216 . S
Co56 O58 2.091 . S
Co56 O60 2.004 1_554 S
Co56 O66 2.021 . S
Co56 O68 2.137 1_554 S
Co56 O69 2.244 . S
O57 Co56 2.216 . S
O57 C64 1.247 . S
O58 Co56 2.091 . S
O58 C64 1.261 . S
C59 O68 1.247 . S
C59 O69 1.272 1_556 S
O60 Co56 2.004 1_556 S
O60 C65 1.259 . S
Co61 O62 2.061 1_554 S
Co61 O67 2.052 . S
Co61 O69 2.135 . S
O62 Co61 2.061 1_556 S
O62 C65 1.235 . S
C63 O66 1.238 . S
C63 O67 1.241 . S
C64 O57 1.247 . S
C64 O58 1.261 . S
C65 O60 1.259 . S
C65 O62 1.235 . S
O66 Co56 2.021 . S
O66 C63 1.238 . S
O67 Co61 2.052 . S
O67 C63 1.241 . S
O68 Co56 2.137 1_556 S
O68 C59 1.247 . S
O69 Co56 2.244 . S
O69 C59 1.272 1_554 S
O69 Co61 2.135 . S
Co70 O71 2.216 . S
Co70 O72 2.091 . S
Co70 O74 2.004 1_554 S
Co70 O80 2.021 . S
Co70 O82 2.137 1_564 S
Co70 O83 2.244 1_565 S
O71 Co70 2.216 . S
O71 C78 1.247 . S
O72 Co70 2.091 . S
O72 C78 1.261 . S
C73 O82 1.247 . S
C73 O83 1.272 1_556 S
O74 Co70 2.004 1_556 S
O74 C79 1.259 1_565 S
Co75 O76 2.061 1_554 S
Co75 O81 2.052 . S
Co75 O83 2.135 . S
O76 Co75 2.061 1_556 S
O76 C79 1.235 . S
C77 O80 1.238 1_545 S
C77 O81 1.241 . S
C78 O71 1.247 . S
C78 O72 1.261 . S
C79 O74 1.259 1_545 S
C79 O76 1.235 . S
O80 Co70 2.021 . S
O80 C77 1.238 1_565 S
O81 Co75 2.052 . S
O81 C77 1.241 . S
O82 Co70 2.137 1_546 S
O82 C73 1.247 . S
O83 Co70 2.244 1_545 S
O83 C73 1.272 1_554 S
O83 Co75 2.135 . S
Co84 O85 2.216 . S
Co84 O86 2.091 . S
Co84 O88 2.004 . S
Co84 O94 2.021 . S
Co84 O96 2.137 . S
Co84 O97 2.244 . S
O85 Co84 2.216 . S
O85 C92 1.247 . S
O86 Co84 2.091 . S
O86 C92 1.261 . S
C87 O96 1.247 . S
C87 O97 1.272 . S
O88 Co84 2.004 . S
O88 C93 1.259 . S
Co89 O90 2.061 . S
Co89 O95 2.052 . S
Co89 O97 2.135 . S
O90 Co89 2.061 . S
O90 C93 1.235 . S
C91 O94 1.238 . S
C91 O95 1.241 . S
C92 O85 1.247 . S
C92 O86 1.261 . S
C93 O88 1.259 . S
C93 O90 1.235 . S
O94 Co84 2.021 . S
O94 C91 1.238 . S
O95 Co89 2.052 . S
O95 C91 1.241 . S
O96 Co84 2.137 . S
O96 C87 1.247 . S
O97 Co84 2.244 . S
O97 C87 1.272 . S
O97 Co89 2.135 . S
Co98 O99 2.216 1_565 S
Co98 O100 2.091 . S
Co98 O102 2.004 . S
Co98 O108 2.021 . S
Co98 O110 2.137 1_565 S
Co98 O111 2.244 1_565 S
O99 Co98 2.216 1_545 S
O99 C106 1.247 1_545 S
O100 Co98 2.091 . S
O100 C106 1.261 . S
C101 O110 1.247 . S
C101 O111 1.272 . S
O102 Co98 2.004 . S
O102 C107 1.259 . S
Co103 O104 2.061 . S
Co103 O109 2.052 . S
Co103 O111 2.135 1_565 S
O104 Co103 2.061 . S
O104 C107 1.235 . S
C105 O108 1.238 . S
C105 O109 1.241 . S
C106 O99 1.247 1_565 S
C106 O100 1.261 . S
C107 O102 1.259 . S
C107 O104 1.235 . S
O108 Co98 2.021 . S
O108 C105 1.238 . S
O109 Co103 2.052 . S
O109 C105 1.241 . S
O110 Co98 2.137 1_545 S
O110 C101 1.247 . S
O111 Co98 2.244 1_545 S
O111 C101 1.272 . S
O111 Co103 2.135 1_545 S
Co112 O113 2.216 . S
Co112 O114 2.091 . S
Co112 O116 2.004 . S
Co112 O122 2.021 . S
Co112 O124 2.137 1_455 S
Co112 O125 2.244 1_455 S
O113 Co112 2.216 . S
O113 C120 1.247 . S
O114 Co112 2.091 . S
O114 C120 1.261 . S
C115 O124 1.247 . S
C115 O125 1.272 . S
O116 Co112 2.004 . S
O116 C121 1.259 . S
Co117 O118 2.061 . S
Co117 O123 2.052 . S
Co117 O125 2.135 1_455 S
O118 Co117 2.061 . S
O118 C121 1.235 . S
C119 O122 1.238 . S
C119 O123 1.241 . S
C120 O113 1.247 . S
C120 O114 1.261 . S
C121 O116 1.259 . S
C121 O118 1.235 . S
O122 Co112 2.021 . S
O122 C119 1.238 . S
O123 Co117 2.052 . S
O123 C119 1.241 . S
O124 Co112 2.137 1_655 S
O124 C115 1.247 . S
O125 Co112 2.244 1_655 S
O125 C115 1.272 . S
O125 Co117 2.135 1_655 S
Co126 O127 2.216 1_565 S
Co126 O128 2.091 . S
Co126 O130 2.004 . S
Co126 O136 2.021 . S
Co126 O138 2.137 1_565 S
Co126 O139 2.244 1_565 S
O127 Co126 2.216 1_545 S
O127 C134 1.247 1_545 S
O128 Co126 2.091 . S
O128 C134 1.261 . S
C129 O138 1.247 . S
C129 O139 1.272 . S
O130 Co126 2.004 . S
O130 C135 1.259 . S
Co131 O132 2.061 . S
Co131 O137 2.052 . S
Co131 O139 2.135 1_565 S
O132 Co131 2.061 . S
O132 C135 1.235 . S
C133 O136 1.238 . S
C133 O137 1.241 . S
C134 O127 1.247 1_565 S
C134 O128 1.261 . S
C135 O130 1.259 . S
C135 O132 1.235 . S
O136 Co126 2.021 . S
O136 C133 1.238 . S
O137 Co131 2.052 . S
O137 C133 1.241 . S
O138 Co126 2.137 1_545 S
O138 C129 1.247 . S
O139 Co126 2.244 1_545 S
O139 C129 1.272 . S
O139 Co131 2.135 1_545 S
Co140 O141 2.216 1_455 S
Co140 O142 2.091 1_455 S
Co140 O144 2.004 . S
Co140 O150 2.021 . S
Co140 O152 2.137 1_455 S
Co140 O153 2.244 . S
O141 Co140 2.216 1_655 S
O141 C148 1.247 . S
O142 Co140 2.091 1_655 S
O142 C148 1.261 . S
C143 O152 1.247 1_455 S
C143 O153 1.272 . S
O144 Co140 2.004 . S
O144 C149 1.259 . S
Co145 O146 2.061 . S
Co145 O151 2.052 . S
Co145 O153 2.135 . S
O146 Co145 2.061 . S
O146 C149 1.235 . S
C147 O150 1.238 . S
C147 O151 1.241 . S
C148 O141 1.247 . S
C148 O142 1.261 . S
C149 O144 1.259 . S
C149 O146 1.235 . S
O150 Co140 2.021 . S
O150 C147 1.238 . S
O151 Co145 2.052 . S
O151 C147 1.241 . S
O152 Co140 2.137 1_655 S
O152 C143 1.247 1_655 S
O153 Co140 2.244 . S
O153 C143 1.272 . S
O153 Co145 2.135 . S
Co154 O155 2.216 . S
Co154 O156 2.091 . S
Co154 O158 2.004 . S
Co154 O164 2.021 . S
Co154 O166 2.137 . S
Co154 O167 2.244 . S
O155 Co154 2.216 . S
O155 C162 1.247 . S
O156 Co154 2.091 . S
O156 C162 1.261 . S
C157 O166 1.247 . S
C157 O167 1.272 . S
O158 Co154 2.004 . S
O158 C163 1.259 . S
Co159 O160 2.061 . S
Co159 O165 2.052 . S
Co159 O167 2.135 . S
O160 Co159 2.061 . S
O160 C163 1.235 . S
C161 O164 1.238 . S
C161 O165 1.241 . S
C162 O155 1.247 . S
C162 O156 1.261 . S
C163 O158 1.259 . S
C163 O160 1.235 . S
O164 Co154 2.021 . S
O164 C161 1.238 . S
O165 Co159 2.052 . S
O165 C161 1.241 . S
O166 Co154 2.137 . S
O166 C157 1.247 . S
O167 Co154 2.244 . S
O167 C157 1.272 . S
O167 Co159 2.135 . S
Co168 O169 2.223 . S
Co168 O170 2.091 . S
Co168 O172 2.004 . S
Co168 O178 2.021 . S
Co168 O180 2.137 1_545 S
Co168 O181 2.244 1_545 S
O169 Co168 2.223 . S
O169 C176 1.246 . S
O170 Co168 2.091 . S
O170 C176 1.261 . S
C171 O180 1.247 . S
C171 O181 1.272 . S
O172 Co168 2.004 . S
O172 C177 1.259 . S
Co173 O174 2.061 . S
Co173 O179 2.052 . S
Co173 O181 2.135 1_545 S
O174 Co173 2.061 . S
O174 C177 1.235 . S
C175 O178 1.238 . S
C175 O179 1.241 . S
C176 O169 1.246 . S
C176 O170 1.261 . S
C177 O172 1.259 . S
C177 O174 1.235 . S
O178 Co168 2.021 . S
O178 C175 1.238 . S
O179 Co173 2.052 . S
O179 C175 1.241 . S
O180 Co168 2.137 1_565 S
O180 C171 1.247 . S
O181 Co168 2.244 1_565 S
O181 C171 1.272 . S
O181 Co173 2.135 1_565 S
Co182 O183 2.216 1_655 S
Co182 O184 2.091 1_655 S
Co182 O186 2.004 . S
Co182 O192 2.021 . S
Co182 O194 2.137 1_655 S
Co182 O195 2.244 . S
O183 Co182 2.216 1_455 S
O183 C190 1.247 . S
O184 Co182 2.091 1_455 S
O184 C190 1.261 . S
C185 O194 1.247 1_655 S
C185 O195 1.272 . S
O186 Co182 2.004 . S
O186 C191 1.259 . S
Co187 O188 2.061 . S
Co187 O193 2.052 . S
Co187 O195 2.135 . S
O188 Co187 2.061 . S
O188 C191 1.235 . S
C189 O192 1.238 . S
C189 O193 1.241 . S
C190 O183 1.247 . S
C190 O184 1.261 . S
C191 O186 1.259 . S
C191 O188 1.235 . S
O192 Co182 2.021 . S
O192 C189 1.238 . S
O193 Co187 2.052 . S
O193 C189 1.241 . S
O194 Co182 2.137 1_455 S
O194 C185 1.247 1_455 S
O195 Co182 2.244 . S
O195 C185 1.272 . S
O195 Co187 2.135 . S
Co196 O197 2.216 . S
Co196 O198 2.091 . S
Co196 O200 2.004 . S
Co196 O206 2.021 . S
Co196 O208 2.137 . S
Co196 O209 2.244 . S
O197 Co196 2.216 . S
O197 C204 1.247 . S
O198 Co196 2.091 . S
O198 C204 1.261 . S
C199 O208 1.247 . S
C199 O209 1.272 . S
O200 Co196 2.004 . S
O200 C205 1.259 . S
Co201 O202 2.061 . S
Co201 O207 2.052 . S
Co201 O209 2.135 . S
O202 Co201 2.061 . S
O202 C205 1.235 . S
C203 O206 1.238 . S
C203 O207 1.241 . S
C204 O197 1.247 . S
C204 O198 1.261 . S
C205 O200 1.259 . S
C205 O202 1.235 . S
O206 Co196 2.021 . S
O206 C203 1.238 . S
O207 Co201 2.052 . S
O207 C203 1.241 . S
O208 Co196 2.137 . S
O208 C199 1.247 . S
O209 Co196 2.244 . S
O209 C199 1.272 . S
O209 Co201 2.135 . S
Co210 O211 2.216 . S
Co210 O212 2.091 . S
Co210 O214 2.004 . S
Co210 O220 2.021 . S
Co210 O222 2.137 . S
Co210 O223 2.244 . S
O211 Co210 2.216 . S
O211 C218 1.247 . S
O212 Co210 2.091 . S
O212 C218 1.261 . S
C213 O222 1.247 . S
C213 O223 1.272 . S
O214 Co210 2.004 . S
O214 C219 1.259 . S
Co215 O216 2.061 . S
Co215 O221 2.052 . S
Co215 O223 2.135 . S
O216 Co215 2.061 . S
O216 C219 1.235 . S
C217 O220 1.238 . S
C217 O221 1.241 . S
C218 O211 1.247 . S
C218 O212 1.261 . S
C219 O214 1.259 . S
C219 O216 1.235 . S
O220 Co210 2.021 . S
O220 C217 1.238 . S
O221 Co215 2.052 . S
O221 C217 1.241 . S
O222 Co210 2.137 . S
O222 C213 1.247 . S
O223 Co210 2.244 . S
O223 C213 1.272 . S
O223 Co215 2.135 . S
Co224 O225 2.220 . S
Co224 O226 2.091 . S
Co224 O228 2.004 . S
Co224 O234 2.021 . S
Co224 O236 2.137 1_545 S
Co224 O237 2.244 1_545 S
O225 Co224 2.220 . S
O225 C232 1.262 . S
O226 Co224 2.091 . S
O226 C232 1.261 . S
C227 O236 1.247 . S
C227 O237 1.272 . S
O228 Co224 2.004 . S
O228 C233 1.259 . S
Co229 O230 2.061 . S
Co229 O235 2.052 . S
Co229 O237 2.135 1_545 S
O230 Co229 2.061 . S
O230 C233 1.235 . S
C231 O234 1.238 . S
C231 O235 1.241 . S
C232 O225 1.262 . S
C232 O226 1.261 . S
C233 O228 1.259 . S
C233 O230 1.235 . S
O234 Co224 2.021 . S
O234 C231 1.238 . S
O235 Co229 2.052 . S
O235 C231 1.241 . S
O236 Co224 2.137 1_565 S
O236 C227 1.247 . S
O237 Co224 2.244 1_565 S
O237 C227 1.272 . S
O237 Co229 2.135 1_565 S
Co238 O239 2.216 . S
Co238 O240 2.091 . S
Co238 O242 2.004 . S
Co238 O248 2.021 . S
Co238 O250 2.137 1_655 S
Co238 O251 2.244 1_655 S
O239 Co238 2.216 . S
O239 C246 1.247 . S
O240 Co238 2.091 . S
O240 C246 1.261 . S
C241 O250 1.247 . S
C241 O251 1.272 . S
O242 Co238 2.004 . S
O242 C247 1.259 . S
Co243 O244 2.061 . S
Co243 O249 2.052 . S
Co243 O251 2.135 1_655 S
O244 Co243 2.061 . S
O244 C247 1.235 . S
C245 O248 1.238 . S
C245 O249 1.241 . S
C246 O239 1.247 . S
C246 O240 1.261 . S
C247 O242 1.259 . S
C247 O244 1.235 . S
O248 Co238 2.021 . S
O248 C245 1.238 . S
O249 Co243 2.052 . S
O249 C245 1.241 . S
O250 Co238 2.137 1_455 S
O250 C241 1.247 . S
O251 Co238 2.244 1_455 S
O251 C241 1.272 . S
O251 Co243 2.135 1_455 S
H252 C260 0.930 . S
H253 C263 0.930 . S
H254 C265 0.930 . S
H255 C266 0.970 . S
H256 C266 0.970 . S
H257 C268 0.930 . S
H258 C270 0.930 . S
H259 C272 0.930 . S
C260 H252 0.930 . S
C260 C261 1.382 . S
C260 C262 1.426 . S
C261 C260 1.382 . S
C261 C265 1.389 . S
C262 C260 1.426 . S
C262 C263 1.375 . S
C262 C266 1.532 . S
C263 H253 0.930 . S
C263 C262 1.375 . S
C263 C264 1.416 . S
C264 C263 1.416 . S
C264 C265 1.371 . S
C265 H254 0.930 . S
C265 C261 1.389 . S
C265 C264 1.371 . S
C266 H255 0.970 . S
C266 H256 0.970 . S
C266 C262 1.532 . S
C266 C267 1.499 . S
C267 C266 1.499 . S
C267 C268 1.370 . S
C267 C272 1.415 . S
C268 H257 0.930 . S
C268 C267 1.370 . S
C268 C269 1.407 . S
C269 C268 1.407 . S
C269 C270 1.365 . S
C270 H258 0.930 . S
C270 C269 1.365 . S
C270 C271 1.393 . S
C271 C270 1.393 . S
C271 C272 1.387 . S
C272 H259 0.930 . S
C272 C267 1.415 . S
C272 C271 1.387 . S
H273 C281 0.930 . S
H274 C284 0.930 . S
H275 C286 0.930 . S
H276 C287 0.970 . S
H277 C287 0.970 . S
H278 C289 0.930 . S
H279 C291 0.930 . S
H280 C293 0.930 . S
C281 H273 0.930 . S
C281 C282 1.382 . S
C281 C283 1.426 . S
C282 C281 1.382 . S
C282 C286 1.389 . S
C283 C281 1.426 . S
C283 C284 1.375 . S
C283 C287 1.532 . S
C284 H274 0.930 . S
C284 C283 1.375 . S
C284 C285 1.416 . S
C285 C284 1.416 . S
C285 C286 1.371 . S
C286 H275 0.930 . S
C286 C282 1.389 . S
C286 C285 1.371 . S
C287 H276 0.970 . S
C287 H277 0.970 . S
C287 C283 1.532 . S
C287 C288 1.499 . S
C288 C287 1.499 . S
C288 C289 1.370 . S
C288 C293 1.415 . S
C289 H278 0.930 . S
C289 C288 1.370 . S
C289 C290 1.407 . S
C290 C289 1.407 . S
C290 C291 1.365 . S
C291 H279 0.930 . S
C291 C290 1.365 . S
C291 C292 1.393 . S
C292 C291 1.393 . S
C292 C293 1.387 . S
C293 H280 0.930 . S
C293 C288 1.415 . S
C293 C292 1.387 . S
H294 C302 0.930 . S
H295 C305 0.930 . S
H296 C307 0.930 . S
H297 C308 0.970 . S
H298 C308 0.970 . S
H299 C310 0.930 . S
H300 C312 0.930 . S
H301 C314 0.930 . S
C302 H294 0.930 . S
C302 C303 1.382 . S
C302 C304 1.426 . S
C303 C302 1.382 . S
C303 C307 1.389 . S
C304 C302 1.426 . S
C304 C305 1.375 . S
C304 C308 1.532 . S
C305 H295 0.930 . S
C305 C304 1.375 . S
C305 C306 1.416 . S
C306 C305 1.416 . S
C306 C307 1.371 . S
C307 H296 0.930 . S
C307 C303 1.389 . S
C307 C306 1.371 . S
C308 H297 0.970 . S
C308 H298 0.970 . S
C308 C304 1.532 . S
C308 C309 1.499 . S
C309 C308 1.499 . S
C309 C310 1.370 . S
C309 C314 1.415 . S
C310 H299 0.930 . S
C310 C309 1.370 . S
C310 C311 1.407 . S
C311 C310 1.407 . S
C311 C312 1.365 . S
C312 H300 0.930 . S
C312 C311 1.365 . S
C312 C313 1.393 . S
C313 C312 1.393 . S
C313 C314 1.387 . S
C314 H301 0.930 . S
C314 C309 1.415 . S
C314 C313 1.387 . S
H315 C323 0.930 . S
H316 C326 0.930 . S
H317 C328 0.930 . S
H318 C329 0.970 . S
H319 C329 0.970 . S
H320 C331 0.930 . S
H321 C333 0.930 . S
H322 C335 0.930 . S
C323 H315 0.930 . S
C323 C324 1.382 . S
C323 C325 1.426 . S
C324 C323 1.382 . S
C324 C328 1.389 . S
C325 C323 1.426 . S
C325 C326 1.375 . S
C325 C329 1.532 . S
C326 H316 0.930 . S
C326 C325 1.375 . S
C326 C327 1.416 . S
C327 C326 1.416 . S
C327 C328 1.371 . S
C328 H317 0.930 . S
C328 C324 1.389 . S
C328 C327 1.371 . S
C329 H318 0.970 . S
C329 H319 0.970 . S
C329 C325 1.532 . S
C329 C330 1.499 . S
C330 C329 1.499 . S
C330 C331 1.370 . S
C330 C335 1.415 . S
C331 H320 0.930 . S
C331 C330 1.370 . S
C331 C332 1.407 . S
C332 C331 1.407 . S
C332 C333 1.365 . S
C333 H321 0.930 . S
C333 C332 1.365 . S
C333 C334 1.393 . S
C334 C333 1.393 . S
C334 C335 1.387 . S
C335 H322 0.930 . S
C335 C330 1.415 . S
C335 C334 1.387 . S
H336 C344 0.930 . S
H337 C347 0.930 . S
H338 C349 0.930 . S
H339 C350 0.970 . S
H340 C350 0.970 . S
H341 C352 0.930 . S
H342 C354 0.930 . S
H343 C356 0.930 . S
C344 H336 0.930 . S
C344 C345 1.382 . S
C344 C346 1.426 . S
C345 C344 1.382 . S
C345 C349 1.389 . S
C346 C344 1.426 . S
C346 C347 1.375 . S
C346 C350 1.532 . S
C347 H337 0.930 . S
C347 C346 1.375 . S
C347 C348 1.416 . S
C348 C347 1.416 . S
C348 C349 1.371 . S
C349 H338 0.930 . S
C349 C345 1.389 . S
C349 C348 1.371 . S
C350 H339 0.970 . S
C350 H340 0.970 . S
C350 C346 1.532 . S
C350 C351 1.499 . S
C351 C350 1.499 . S
C351 C352 1.370 . S
C351 C356 1.415 . S
C352 H341 0.930 . S
C352 C351 1.370 . S
C352 C353 1.407 . S
C353 C352 1.407 . S
C353 C354 1.365 . S
C354 H342 0.930 . S
C354 C353 1.365 . S
C354 C355 1.393 . S
C355 C354 1.393 . S
C355 C356 1.387 . S
C356 H343 0.930 . S
C356 C351 1.415 . S
C356 C355 1.387 . S
H357 C365 0.930 . S
H358 C368 0.930 . S
H359 C370 0.930 . S
H360 C371 0.970 . S
H361 C371 0.970 . S
H362 C373 0.930 . S
H363 C375 0.930 . S
H364 C377 0.930 . S
C365 H357 0.930 . S
C365 C366 1.382 . S
C365 C367 1.426 . S
C366 C365 1.382 . S
C366 C370 1.389 . S
C367 C365 1.426 . S
C367 C368 1.375 . S
C367 C371 1.532 . S
C368 H358 0.930 . S
C368 C367 1.375 . S
C368 C369 1.416 . S
C369 C368 1.416 . S
C369 C370 1.371 . S
C370 H359 0.930 . S
C370 C366 1.389 . S
C370 C369 1.371 . S
C371 H360 0.970 . S
C371 H361 0.970 . S
C371 C367 1.532 . S
C371 C372 1.499 . S
C372 C371 1.499 . S
C372 C373 1.370 . S
C372 C377 1.415 . S
C373 H362 0.930 . S
C373 C372 1.370 . S
C373 C374 1.407 . S
C374 C373 1.407 . S
C374 C375 1.365 . S
C375 H363 0.930 . S
C375 C374 1.365 . S
C375 C376 1.393 . S
C376 C375 1.393 . S
C376 C377 1.387 . S
C377 H364 0.930 . S
C377 C372 1.415 . S
C377 C376 1.387 . S
H378 C386 0.930 . S
H379 C389 0.930 . S
H380 C391 0.930 . S
H381 C392 0.970 . S
H382 C392 0.970 . S
H383 C394 0.930 . S
H384 C396 0.930 . S
H385 C398 0.930 . S
C386 H378 0.930 . S
C386 C387 1.382 . S
C386 C388 1.426 . S
C387 C386 1.382 . S
C387 C391 1.389 . S
C388 C386 1.426 . S
C388 C389 1.375 . S
C388 C392 1.532 . S
C389 H379 0.930 . S
C389 C388 1.375 . S
C389 C390 1.416 . S
C390 C389 1.416 . S
C390 C391 1.371 . S
C391 H380 0.930 . S
C391 C387 1.389 . S
C391 C390 1.371 . S
C392 H381 0.970 . S
C392 H382 0.970 . S
C392 C388 1.532 . S
C392 C393 1.499 . S
C393 C392 1.499 . S
C393 C394 1.370 . S
C393 C398 1.415 . S
C394 H383 0.930 . S
C394 C393 1.370 . S
C394 C395 1.407 . S
C395 C394 1.407 . S
C395 C396 1.365 . S
C396 H384 0.930 . S
C396 C395 1.365 . S
C396 C397 1.393 . S
C397 C396 1.393 . S
C397 C398 1.387 . S
C398 H385 0.930 . S
C398 C393 1.415 . S
C398 C397 1.387 . S
H399 C407 0.930 . S
H400 C410 0.930 . S
H401 C412 0.930 . S
H402 C413 0.970 . S
H403 C413 0.970 . S
H404 C415 0.930 . S
H405 C417 0.930 . S
H406 C419 0.930 . S
C407 H399 0.930 . S
C407 C408 1.382 . S
C407 C409 1.426 . S
C408 C407 1.382 . S
C408 C412 1.389 . S
C409 C407 1.426 . S
C409 C410 1.375 . S
C409 C413 1.532 . S
C410 H400 0.930 . S
C410 C409 1.375 . S
C410 C411 1.416 . S
C411 C410 1.416 . S
C411 C412 1.371 . S
C412 H401 0.930 . S
C412 C408 1.389 . S
C412 C411 1.371 . S
C413 H402 0.970 . S
C413 H403 0.970 . S
C413 C409 1.532 . S
C413 C414 1.499 . S
C414 C413 1.499 . S
C414 C415 1.370 . S
C414 C419 1.415 . S
C415 H404 0.930 . S
C415 C414 1.370 . S
C415 C416 1.407 . S
C416 C415 1.407 . S
C416 C417 1.365 . S
C417 H405 0.930 . S
C417 C416 1.365 . S
C417 C418 1.393 . S
C418 C417 1.393 . S
C418 C419 1.387 . S
C419 H406 0.930 . S
C419 C414 1.415 . S
C419 C418 1.387 . S
H420 C428 0.930 . S
H421 C431 0.930 . S
H422 C433 0.930 . S
H423 C434 0.970 . S
H424 C434 0.970 . S
H425 C436 0.930 . S
H426 C438 0.930 . S
H427 C440 0.930 . S
C428 H420 0.930 . S
C428 C429 1.382 . S
C428 C430 1.426 . S
C429 C428 1.382 . S
C429 C433 1.389 . S
C430 C428 1.426 . S
C430 C431 1.375 . S
C430 C434 1.532 . S
C431 H421 0.930 . S
C431 C430 1.375 . S
C431 C432 1.416 . S
C432 C431 1.416 . S
C432 C433 1.371 . S
C433 H422 0.930 . S
C433 C429 1.389 . S
C433 C432 1.371 . S
C434 H423 0.970 . S
C434 H424 0.970 . S
C434 C430 1.532 . S
C434 C435 1.499 . S
C435 C434 1.499 . S
C435 C436 1.370 . S
C435 C440 1.415 . S
C436 H425 0.930 . S
C436 C435 1.370 . S
C436 C437 1.407 . S
C437 C436 1.407 . S
C437 C438 1.365 . S
C438 H426 0.930 . S
C438 C437 1.365 . S
C438 C439 1.393 . S
C439 C438 1.393 . S
C439 C440 1.387 . S
C440 H427 0.930 . S
C440 C435 1.415 . S
C440 C439 1.387 . S
H441 C449 0.930 . S
H442 C452 0.930 . S
H443 C454 0.930 . S
H444 C455 0.970 . S
H445 C455 0.970 . S
H446 C457 0.930 . S
H447 C459 0.930 . S
H448 C461 0.930 . S
C449 H441 0.930 . S
C449 C450 1.382 . S
C449 C451 1.426 . S
C450 C449 1.382 . S
C450 C454 1.389 1_455 S
C451 C449 1.426 . S
C451 C452 1.375 . S
C451 C455 1.532 . S
C452 H442 0.930 . S
C452 C451 1.375 . S
C452 C453 1.416 . S
C453 C452 1.416 . S
C453 C454 1.371 1_455 S
C454 H443 0.930 . S
C454 C450 1.389 1_655 S
C454 C453 1.371 1_655 S
C455 H444 0.970 . S
C455 H445 0.970 . S
C455 C451 1.532 . S
C455 C456 1.499 . S
C456 C455 1.499 . S
C456 C457 1.370 . S
C456 C461 1.415 . S
C457 H446 0.930 . S
C457 C456 1.370 . S
C457 C458 1.407 . S
C458 C457 1.407 . S
C458 C459 1.365 1_455 S
C459 H447 0.930 . S
C459 C458 1.365 1_655 S
C459 C460 1.393 1_655 S
C460 C459 1.393 1_455 S
C460 C461 1.387 . S
C461 H448 0.930 . S
C461 C456 1.415 . S
C461 C460 1.387 . S
H462 C470 0.930 . S
H463 C473 0.930 . S
H464 C475 0.930 . S
H465 C476 0.970 . S
H466 C476 0.970 . S
H467 C478 0.930 . S
H468 C480 0.930 . S
H469 C482 0.930 . S
C470 H462 0.930 . S
C470 C471 1.382 . S
C470 C472 1.426 . S
C471 C470 1.382 . S
C471 C475 1.389 . S
C472 C470 1.426 . S
C472 C473 1.375 . S
C472 C476 1.532 . S
C473 H463 0.930 . S
C473 C472 1.375 . S
C473 C474 1.416 . S
C474 C473 1.416 . S
C474 C475 1.371 . S
C475 H464 0.930 . S
C475 C471 1.389 . S
C475 C474 1.371 . S
C476 H465 0.970 . S
C476 H466 0.970 . S
C476 C472 1.532 . S
C476 C477 1.499 . S
C477 C476 1.499 . S
C477 C478 1.370 . S
C477 C482 1.415 . S
C478 H467 0.930 . S
C478 C477 1.370 . S
C478 C479 1.407 . S
C479 C478 1.407 . S
C479 C480 1.365 . S
C480 H468 0.930 . S
C480 C479 1.365 . S
C480 C481 1.393 . S
C481 C480 1.393 . S
C481 C482 1.387 . S
C482 H469 0.930 . S
C482 C477 1.415 . S
C482 C481 1.387 . S
H483 C491 0.930 . S
H484 C494 0.930 . S
H485 C496 0.930 . S
H486 C497 0.970 . S
H487 C497 0.970 . S
H488 C499 0.930 . S
H489 C501 0.930 . S
H490 C503 0.930 . S
C491 H483 0.930 . S
C491 C492 1.382 . S
C491 C493 1.426 . S
C492 C491 1.382 . S
C492 C496 1.389 1_565 S
C493 C491 1.426 . S
C493 C494 1.375 . S
C493 C497 1.532 . S
C494 H484 0.930 . S
C494 C493 1.375 . S
C494 C495 1.416 . S
C495 C494 1.416 . S
C495 C496 1.371 1_565 S
C496 H485 0.930 . S
C496 C492 1.389 1_545 S
C496 C495 1.371 1_545 S
C497 H486 0.970 . S
C497 H487 0.970 . S
C497 C493 1.532 . S
C497 C498 1.499 . S
C498 C497 1.499 . S
C498 C499 1.370 . S
C498 C503 1.415 . S
C499 H488 0.930 . S
C499 C498 1.370 . S
C499 C500 1.436 . S
C500 C499 1.436 . S
C500 C501 1.354 1_565 S
C501 H489 0.930 . S
C501 C500 1.354 1_545 S
C501 C502 1.393 1_545 S
C502 C501 1.393 1_565 S
C502 C503 1.387 . S
C503 H490 0.930 . S
C503 C498 1.415 . S
C503 C502 1.387 . S
H504 C512 0.930 . S
H505 C515 0.930 . S
H506 C517 0.930 . S
H507 C518 0.970 . S
H508 C518 0.970 . S
H509 C520 0.930 . S
H510 C522 0.930 . S
H511 C524 0.930 . S
C512 H504 0.930 . S
C512 C513 1.382 . S
C512 C514 1.426 . S
C513 C512 1.382 . S
C513 C517 1.389 1_565 S
C514 C512 1.426 . S
C514 C515 1.375 . S
C514 C518 1.532 . S
C515 H505 0.930 . S
C515 C514 1.375 . S
C515 C516 1.416 . S
C516 C515 1.416 . S
C516 C517 1.371 1_565 S
C517 H506 0.930 . S
C517 C513 1.389 1_545 S
C517 C516 1.371 1_545 S
C518 H507 0.970 . S
C518 H508 0.970 . S
C518 C514 1.532 . S
C518 C519 1.499 . S
C519 C518 1.499 . S
C519 C520 1.370 . S
C519 C524 1.415 . S
C520 H509 0.930 . S
C520 C519 1.370 . S
C520 C521 1.407 . S
C521 C520 1.407 . S
C521 C522 1.365 1_565 S
C522 H510 0.930 . S
C522 C521 1.365 1_545 S
C522 C523 1.393 1_545 S
C523 C522 1.393 1_565 S
C523 C524 1.387 . S
C524 H511 0.930 . S
C524 C519 1.415 . S
C524 C523 1.387 . S
H525 C533 0.930 . S
H526 C536 0.930 . S
H527 C538 0.930 . S
H528 C539 0.970 . S
H529 C539 0.970 . S
H530 C541 0.930 . S
H531 C543 0.930 . S
H532 C545 0.930 . S
C533 H525 0.930 . S
C533 C534 1.382 . S
C533 C535 1.426 . S
C534 C533 1.382 . S
C534 C538 1.389 1_455 S
C535 C533 1.426 . S
C535 C536 1.375 . S
C535 C539 1.532 . S
C536 H526 0.930 . S
C536 C535 1.375 . S
C536 C537 1.416 . S
C537 C536 1.416 . S
C537 C538 1.371 1_455 S
C538 H527 0.930 . S
C538 C534 1.389 1_655 S
C538 C537 1.371 1_655 S
C539 H528 0.970 . S
C539 H529 0.970 . S
C539 C535 1.532 . S
C539 C540 1.499 . S
C540 C539 1.499 . S
C540 C541 1.370 . S
C540 C545 1.415 . S
C541 H530 0.930 . S
C541 C540 1.370 . S
C541 C542 1.407 . S
C542 C541 1.407 . S
C542 C543 1.365 1_455 S
C543 H531 0.930 . S
C543 C542 1.365 1_655 S
C543 C544 1.393 1_655 S
C544 C543 1.393 1_455 S
C544 C545 1.387 . S
C545 H532 0.930 . S
C545 C540 1.415 . S
C545 C544 1.387 . S
H546 C554 0.930 . S
H547 C557 0.930 . S
H548 C559 0.930 . S
H549 C560 0.970 . S
H550 C560 0.970 . S
H551 C562 0.930 . S
H552 C564 0.930 . S
H553 C566 0.930 . S
C554 H546 0.930 . S
C554 C555 1.382 . S
C554 C556 1.426 . S
C555 C554 1.382 . S
C555 C559 1.389 . S
C556 C554 1.426 . S
C556 C557 1.375 . S
C556 C560 1.532 . S
C557 H547 0.930 . S
C557 C556 1.375 . S
C557 C558 1.416 . S
C558 C557 1.416 . S
C558 C559 1.371 . S
C559 H548 0.930 . S
C559 C555 1.389 . S
C559 C558 1.371 . S
C560 H549 0.970 . S
C560 H550 0.970 . S
C560 C556 1.532 . S
C560 C561 1.499 . S
C561 C560 1.499 . S
C561 C562 1.370 . S
C561 C566 1.415 . S
C562 H551 0.930 . S
C562 C561 1.370 . S
C562 C563 1.407 . S
C563 C562 1.407 . S
C563 C564 1.365 . S
C564 H552 0.930 . S
C564 C563 1.365 . S
C564 C565 1.393 . S
C565 C564 1.393 . S
C565 C566 1.387 . S
C566 H553 0.930 . S
C566 C561 1.415 . S
C566 C565 1.387 . S
H567 C575 0.930 . S
H568 C578 0.930 . S
H569 C580 0.930 . S
H570 C581 0.970 . S
H571 C581 0.970 . S
H572 C583 0.930 . S
H573 C585 0.930 . S
H574 C587 0.930 . S
C575 H567 0.930 . S
C575 C576 1.382 . S
C575 C577 1.426 . S
C576 C575 1.382 . S
C576 C580 1.389 . S
C577 C575 1.426 . S
C577 C578 1.375 . S
C577 C581 1.532 . S
C578 H568 0.930 . S
C578 C577 1.375 . S
C578 C579 1.416 . S
C579 C578 1.416 . S
C579 C580 1.371 . S
C580 H569 0.930 . S
C580 C576 1.389 . S
C580 C579 1.371 . S
C581 H570 0.970 . S
C581 H571 0.970 . S
C581 C577 1.532 . S
C581 C582 1.499 . S
C582 C581 1.499 . S
C582 C583 1.370 . S
C582 C587 1.415 . S
C583 H572 0.930 . S
C583 C582 1.370 . S
C583 C584 1.407 . S
C584 C583 1.407 . S
C584 C585 1.365 . S
C585 H573 0.930 . S
C585 C584 1.365 . S
C585 C586 1.393 . S
C586 C585 1.393 . S
C586 C587 1.387 . S
C587 H574 0.930 . S
C587 C582 1.415 . S
C587 C586 1.387 . S
H588 C596 0.930 . S
H589 C599 0.930 . S
H590 C601 0.930 . S
H591 C602 0.970 . S
H592 C602 0.970 . S
H593 C604 0.930 . S
H594 C606 0.930 . S
H595 C608 0.930 . S
C596 H588 0.930 . S
C596 C597 1.382 . S
C596 C598 1.426 . S
C597 C596 1.382 . S
C597 C601 1.389 . S
C598 C596 1.426 . S
C598 C599 1.375 . S
C598 C602 1.532 . S
C599 H589 0.930 . S
C599 C598 1.375 . S
C599 C600 1.416 . S
C600 C599 1.416 . S
C600 C601 1.371 . S
C601 H590 0.930 . S
C601 C597 1.389 . S
C601 C600 1.371 . S
C602 H591 0.970 . S
C602 H592 0.970 . S
C602 C598 1.532 . S
C602 C603 1.499 . S
C603 C602 1.499 . S
C603 C604 1.370 . S
C603 C608 1.415 . S
C604 H593 0.930 . S
C604 C603 1.370 . S
C604 C605 1.407 . S
C605 C604 1.407 . S
C605 C606 1.365 . S
C606 H594 0.930 . S
C606 C605 1.365 . S
C606 C607 1.393 . S
C607 C606 1.393 . S
C607 C608 1.387 . S
C608 H595 0.930 . S
C608 C603 1.415 . S
C608 C607 1.387 . S
H609 C617 0.930 . S
H610 C620 0.930 . S
H611 C622 0.930 . S
H612 C623 0.970 . S
H613 C623 0.970 . S
H614 C625 0.930 . S
H615 C627 0.930 . S
H616 C629 0.930 . S
C617 H609 0.930 . S
C617 C618 1.382 . S
C617 C619 1.426 . S
C618 C617 1.382 . S
C618 C622 1.389 . S
C619 C617 1.426 . S
C619 C620 1.375 . S
C619 C623 1.532 . S
C620 H610 0.930 . S
C620 C619 1.375 . S
C620 C621 1.416 . S
C621 C620 1.416 . S
C621 C622 1.371 . S
C622 H611 0.930 . S
C622 C618 1.389 . S
C622 C621 1.371 . S
C623 H612 0.970 . S
C623 H613 0.970 . S
C623 C619 1.532 . S
C623 C624 1.499 . S
C624 C623 1.499 . S
C624 C625 1.370 . S
C624 C629 1.415 . S
C625 H614 0.930 . S
C625 C624 1.370 . S
C625 C626 1.407 . S
C626 C625 1.407 . S
C626 C627 1.365 . S
C627 H615 0.930 . S
C627 C626 1.365 . S
C627 C628 1.393 . S
C628 C627 1.393 . S
C628 C629 1.387 . S
C629 H616 0.930 . S
C629 C624 1.415 . S
C629 C628 1.387 . S
H630 C636 0.930 . S
H631 C639 0.930 . S
H632 C640 0.930 . S
H633 C641 0.930 . S
H634 C644 0.930 . S
H635 C645 0.930 . S
C636 H630 0.930 . S
C636 C637 1.355 1_455 S
C636 C638 1.415 . S
C637 C636 1.355 1_655 S
C637 C639 1.419 . S
C638 C636 1.415 . S
C638 C643 1.425 1_455 S
C638 C645 1.409 . S
C639 H631 0.930 . S
C639 C637 1.419 . S
C639 C640 1.362 . S
C640 H632 0.930 . S
C640 C639 1.362 . S
C640 C643 1.409 . S
C641 H633 0.930 . S
C641 C642 1.355 . S
C641 C643 1.415 . S
C642 C641 1.355 . S
C642 C644 1.419 1_655 S
C643 C638 1.425 1_655 S
C643 C640 1.409 . S
C643 C641 1.415 . S
C644 H634 0.930 . S
C644 C642 1.419 1_455 S
C644 C645 1.362 . S
C645 H635 0.930 . S
C645 C638 1.409 . S
C645 C644 1.362 . S
H646 C652 0.930 . S
H647 C655 0.930 . S
H648 C656 0.930 . S
H649 C657 0.930 . S
H650 C660 0.930 . S
H651 C661 0.930 . S
C652 H646 0.930 . S
C652 C653 1.355 . S
C652 C654 1.415 . S
C653 C652 1.355 . S
C653 C655 1.419 . S
C654 C652 1.415 . S
C654 C659 1.425 . S
C654 C661 1.409 . S
C655 H647 0.930 . S
C655 C653 1.419 . S
C655 C656 1.362 . S
C656 H648 0.930 . S
C656 C655 1.362 . S
C656 C659 1.409 . S
C657 H649 0.930 . S
C657 C658 1.355 . S
C657 C659 1.415 . S
C658 C657 1.355 . S
C658 C660 1.419 . S
C659 C654 1.425 . S
C659 C656 1.409 . S
C659 C657 1.415 . S
C660 H650 0.930 . S
C660 C658 1.419 . S
C660 C661 1.362 . S
C661 H651 0.930 . S
C661 C654 1.409 . S
C661 C660 1.362 . S
H662 C668 0.930 . S
H663 C671 0.930 . S
H664 C672 0.930 . S
H665 C673 0.930 . S
H666 C676 0.930 . S
H667 C677 0.930 . S
C668 H662 0.930 . S
C668 C669 1.355 1_565 S
C668 C670 1.415 . S
C669 C668 1.355 1_545 S
C669 C671 1.419 . S
C670 C668 1.415 . S
C670 C675 1.425 1_565 S
C670 C677 1.409 . S
C671 H663 0.930 . S
C671 C669 1.419 . S
C671 C672 1.362 . S
C672 H664 0.930 . S
C672 C671 1.362 . S
C672 C675 1.409 . S
C673 H665 0.930 . S
C673 C674 1.355 . S
C673 C675 1.415 . S
C674 C673 1.355 . S
C674 C676 1.419 1_545 S
C675 C670 1.425 1_545 S
C675 C672 1.409 . S
C675 C673 1.415 . S
C676 H666 0.930 . S
C676 C674 1.419 1_565 S
C676 C677 1.362 . S
C677 H667 0.930 . S
C677 C670 1.409 . S
C677 C676 1.362 . S
H678 C684 0.930 . S
H679 C687 0.930 . S
H680 C688 0.930 . S
H681 C689 0.930 . S
H682 C692 0.930 . S
H683 C693 0.930 . S
C684 H678 0.930 . S
C684 C685 1.355 1_545 S
C684 C686 1.415 . S
C685 C684 1.355 1_565 S
C685 C687 1.419 . S
C686 C684 1.415 . S
C686 C691 1.425 1_545 S
C686 C693 1.409 . S
C687 H679 0.930 . S
C687 C685 1.419 . S
C687 C688 1.362 . S
C688 H680 0.930 . S
C688 C687 1.362 . S
C688 C691 1.409 . S
C689 H681 0.930 . S
C689 C690 1.355 . S
C689 C691 1.415 . S
C690 C689 1.355 . S
C690 C692 1.419 1_565 S
C691 C686 1.425 1_565 S
C691 C688 1.409 . S
C691 C689 1.415 . S
C692 H682 0.930 . S
C692 C690 1.419 1_545 S
C692 C693 1.362 . S
C693 H683 0.930 . S
C693 C686 1.409 . S
C693 C692 1.362 . S
H694 C700 0.930 . S
H695 C703 0.930 . S
H696 C704 0.930 . S
H697 C705 0.930 . S
H698 C708 0.930 . S
H699 C709 0.930 . S
C700 H694 0.930 . S
C700 C701 1.355 . S
C700 C702 1.415 . S
C701 C700 1.355 . S
C701 C703 1.419 1_455 S
C702 C700 1.415 . S
C702 C707 1.397 1_455 S
C702 C709 1.409 . S
C703 H695 0.930 . S
C703 C701 1.419 1_655 S
C703 C704 1.362 . S
C704 H696 0.930 . S
C704 C703 1.362 . S
C704 C707 1.417 . S
C705 H697 0.930 . S
C705 C706 1.355 1_655 S
C705 C707 1.435 . S
C706 C705 1.355 1_455 S
C706 C708 1.419 . S
C707 C702 1.397 1_655 S
C707 C704 1.417 . S
C707 C705 1.435 . S
C708 H698 0.930 . S
C708 C706 1.419 . S
C708 C709 1.362 . S
C709 H699 0.930 . S
C709 C702 1.409 . S
C709 C708 1.362 . S
H710 C716 0.930 . S
H711 C719 0.930 . S
H712 C720 0.930 . S
H713 C721 0.930 . S
H714 C724 0.930 . S
H715 C725 0.930 . S
C716 H710 0.930 . S
C716 C717 1.355 . S
C716 C718 1.415 . S
C717 C716 1.355 . S
C717 C719 1.419 . S
C718 C716 1.415 . S
C718 C723 1.425 . S
C718 C725 1.409 . S
C719 H711 0.930 . S
C719 C717 1.419 . S
C719 C720 1.362 . S
C720 H712 0.930 . S
C720 C719 1.362 . S
C720 C723 1.409 . S
C721 H713 0.930 . S
C721 C722 1.355 . S
C721 C723 1.415 . S
C722 C721 1.355 . S
C722 C724 1.419 . S
C723 C718 1.425 . S
C723 C720 1.409 . S
C723 C721 1.415 . S
C724 H714 0.930 . S
C724 C722 1.419 . S
C724 C725 1.362 . S
C725 H715 0.930 . S
C725 C718 1.409 . S
C725 C724 1.362 . S
H726 C732 0.930 . S
H727 C735 0.930 . S
H728 C736 0.930 . S
H729 C737 0.930 . S
H730 C740 0.930 . S
H731 C741 0.930 . S
C732 H726 0.930 . S
C732 C733 1.355 1_655 S
C732 C734 1.415 . S
C733 C732 1.355 1_455 S
C733 C735 1.419 . S
C734 C732 1.415 . S
C734 C739 1.425 1_655 S
C734 C741 1.409 . S
C735 H727 0.930 . S
C735 C733 1.419 . S
C735 C736 1.362 . S
C736 H728 0.930 . S
C736 C735 1.362 . S
C736 C739 1.409 . S
C737 H729 0.930 . S
C737 C738 1.355 1_455 S
C737 C739 1.415 . S
C738 C737 1.355 1_655 S
C738 C740 1.419 . S
C739 C734 1.425 1_455 S
C739 C736 1.409 . S
C739 C737 1.415 . S
C740 H730 0.930 . S
C740 C738 1.419 . S
C740 C741 1.362 . S
C741 H731 0.930 . S
C741 C734 1.409 . S
C741 C740 1.362 . S
H742 C748 0.930 . S
H743 C751 0.930 . S
H744 C752 0.930 . S
H745 C753 0.930 . S
H746 C756 0.930 . S
H747 C757 0.930 . S
C748 H742 0.930 . S
C748 C749 1.355 . S
C748 C750 1.415 . S
C749 C748 1.355 . S
C749 C751 1.419 . S
C750 C748 1.415 . S
C750 C755 1.425 . S
C750 C757 1.409 . S
C751 H743 0.930 . S
C751 C749 1.419 . S
C751 C752 1.362 . S
C752 H744 0.930 . S
C752 C751 1.362 . S
C752 C755 1.409 . S
C753 H745 0.930 . S
C753 C754 1.355 . S
C753 C755 1.415 . S
C754 C753 1.355 . S
C754 C756 1.419 . S
C755 C750 1.425 . S
C755 C752 1.409 . S
C755 C753 1.415 . S
C756 H746 0.930 . S
C756 C754 1.419 . S
C756 C757 1.362 . S
C757 H747 0.930 . S
C757 C750 1.409 . S
C757 C756 1.362 . S
H758 C764 0.930 . S
H759 C767 0.930 . S
H760 C768 0.930 . S
H761 C769 0.930 . S
H762 C772 0.930 . S
H763 C773 0.930 . S
C764 H758 0.930 . S
C764 C765 1.357 . S
C764 C766 1.415 . S
C765 C764 1.357 . S
C765 C767 1.405 1_565 S
C766 C764 1.415 . S
C766 C771 1.425 1_565 S
C766 C773 1.409 . S
C767 H759 0.930 . S
C767 C765 1.405 1_545 S
C767 C768 1.362 . S
C768 H760 0.930 . S
C768 C767 1.362 . S
C768 C771 1.409 . S
C769 H761 0.930 . S
C769 C770 1.355 1_545 S
C769 C771 1.415 . S
C770 C769 1.355 1_565 S
C770 C772 1.419 . S
C771 C766 1.425 1_545 S
C771 C768 1.409 . S
C771 C769 1.415 . S
C772 H762 0.930 . S
C772 C770 1.419 . S
C772 C773 1.362 . S
C773 H763 0.930 . S
C773 C766 1.409 . S
C773 C772 1.362 . S
H774 C780 0.930 . S
H775 C783 0.930 . S
H776 C784 0.930 . S
H777 C785 0.930 . S
H778 C788 0.930 . S
H779 C789 0.930 . S
C780 H774 0.930 . S
C780 C781 1.355 . S
C780 C782 1.415 . S
C781 C780 1.355 . S
C781 C783 1.419 1_545 S
C782 C780 1.415 . S
C782 C787 1.425 1_545 S
C782 C789 1.409 . S
C783 H775 0.930 . S
C783 C781 1.419 1_565 S
C783 C784 1.362 . S
C784 H776 0.930 . S
C784 C783 1.362 . S
C784 C787 1.409 . S
C785 H777 0.930 . S
C785 C786 1.355 1_565 S
C785 C787 1.415 . S
C786 C785 1.355 1_545 S
C786 C788 1.419 . S
C787 C782 1.425 1_565 S
C787 C784 1.409 . S
C787 C785 1.415 . S
C788 H778 0.930 . S
C788 C786 1.419 . S
C788 C789 1.362 . S
C789 H779 0.930 . S
C789 C782 1.409 . S
C789 C788 1.362 . S
H790 C796 0.930 . S
H791 C799 0.930 . S
H792 C800 0.930 . S
H793 C801 0.930 . S
H794 C804 0.930 . S
H795 C805 0.930 . S
C796 H790 0.930 . S
C796 C797 1.341 1_655 S
C796 C798 1.415 . S
C797 C796 1.341 1_455 S
C797 C799 1.453 . S
C798 C796 1.415 . S
C798 C803 1.425 1_655 S
C798 C805 1.409 . S
C799 H791 0.930 . S
C799 C797 1.453 . S
C799 C800 1.362 . S
C800 H792 0.930 . S
C800 C799 1.362 . S
C800 C803 1.409 . S
C801 H793 0.930 . S
C801 C802 1.355 1_455 S
C801 C803 1.415 . S
C802 C801 1.355 1_655 S
C802 C804 1.419 . S
C803 C798 1.425 1_455 S
C803 C800 1.409 . S
C803 C801 1.415 . S
C804 H794 0.930 . S
C804 C802 1.419 . S
C804 C805 1.362 . S
C805 H795 0.930 . S
C805 C798 1.409 . S
C805 C804 1.362 . S
H806 C812 0.930 . S
H807 C815 0.930 . S
H808 C816 0.930 . S
H809 C817 0.930 . S
H810 C820 0.930 . S
H811 C821 0.930 . S
C812 H806 0.930 . S
C812 C813 1.355 . S
C812 C814 1.415 . S
C813 C812 1.355 . S
C813 C815 1.419 . S
C814 C812 1.415 . S
C814 C819 1.425 . S
C814 C821 1.409 . S
C815 H807 0.930 . S
C815 C813 1.419 . S
C815 C816 1.362 . S
C816 H808 0.930 . S
C816 C815 1.362 . S
C816 C819 1.409 . S
C817 H809 0.930 . S
C817 C818 1.355 . S
C817 C819 1.415 . S
C818 C817 1.355 . S
C818 C820 1.419 . S
C819 C814 1.425 . S
C819 C816 1.409 . S
C819 C817 1.415 . S
C820 H810 0.930 . S
C820 C818 1.419 . S
C820 C821 1.362 . S
C821 H811 0.930 . S
C821 C814 1.409 . S
C821 C820 1.362 . S
H822 C828 0.930 . S
H823 C831 0.930 . S
H824 C832 0.930 . S
H825 C833 0.930 . S
H826 C836 0.930 . S
H827 C837 0.930 . S
C828 H822 0.930 . S
C828 C829 1.355 . S
C828 C830 1.415 . S
C829 C828 1.355 . S
C829 C831 1.419 . S
C830 C828 1.415 . S
C830 C835 1.425 . S
C830 C837 1.409 . S
C831 H823 0.930 . S
C831 C829 1.419 . S
C831 C832 1.362 . S
C832 H824 0.930 . S
C832 C831 1.362 . S
C832 C835 1.409 . S
C833 H825 0.930 . S
C833 C834 1.355 . S
C833 C835 1.415 . S
C834 C833 1.355 . S
C834 C836 1.419 . S
C835 C830 1.425 . S
C835 C832 1.409 . S
C835 C833 1.415 . S
C836 H826 0.930 . S
C836 C834 1.419 . S
C836 C837 1.362 . S
C837 H827 0.930 . S
C837 C830 1.409 . S
C837 C836 1.362 . S
H838 C844 0.930 . S
H839 C847 0.930 . S
H840 C848 0.930 . S
H841 C849 0.930 . S
H842 C852 0.930 . S
H843 C853 0.930 . S
C844 H838 0.930 . S
C844 C845 1.355 . S
C844 C846 1.415 . S
C845 C844 1.355 . S
C845 C847 1.419 . S
C846 C844 1.415 . S
C846 C851 1.425 . S
C846 C853 1.409 . S
C847 H839 0.930 . S
C847 C845 1.419 . S
C847 C848 1.362 . S
C848 H840 0.930 . S
C848 C847 1.362 . S
C848 C851 1.409 . S
C849 H841 0.930 . S
C849 C850 1.355 . S
C849 C851 1.415 . S
C850 C849 1.355 . S
C850 C852 1.419 . S
C851 C846 1.425 . S
C851 C848 1.409 . S
C851 C849 1.415 . S
C852 H842 0.930 . S
C852 C850 1.419 . S
C852 C853 1.362 . S
C853 H843 0.930 . S
C853 C846 1.409 . S
C853 C852 1.362 . S
H854 C860 0.930 . S
H855 C863 0.930 . S
H856 C864 0.930 . S
H857 C865 0.930 . S
H858 C868 0.930 . S
H859 C869 0.930 . S
C860 H854 0.930 . S
C860 C861 1.355 . S
C860 C862 1.415 . S
C861 C860 1.355 . S
C861 C863 1.419 . S
C862 C860 1.415 . S
C862 C867 1.425 . S
C862 C869 1.409 . S
C863 H855 0.930 . S
C863 C861 1.419 . S
C863 C864 1.362 . S
C864 H856 0.930 . S
C864 C863 1.362 . S
C864 C867 1.409 . S
C865 H857 0.930 . S
C865 C866 1.355 . S
C865 C867 1.415 . S
C866 C865 1.355 . S
C866 C868 1.419 . S
C867 C862 1.425 . S
C867 C864 1.409 . S
C867 C865 1.415 . S
C868 H858 0.930 . S
C868 C866 1.419 . S
C868 C869 1.362 . S
C869 H859 0.930 . S
C869 C862 1.409 . S
C869 C868 1.362 . S
H870 C876 0.930 . S
H871 C879 0.930 . S
H872 C880 0.930 . S
H873 C881 0.930 . S
H874 C884 0.930 . S
H875 C885 0.930 . S
C876 H870 0.930 . S
C876 C877 1.355 . S
C876 C878 1.415 . S
C877 C876 1.355 . S
C877 C879 1.419 . S
C878 C876 1.415 . S
C878 C883 1.425 . S
C878 C885 1.409 . S
C879 H871 0.930 . S
C879 C877 1.419 . S
C879 C880 1.362 . S
C880 H872 0.930 . S
C880 C879 1.362 . S
C880 C883 1.409 . S
C881 H873 0.930 . S
C881 C882 1.355 . S
C881 C883 1.415 . S
C882 C881 1.355 . S
C882 C884 1.419 . S
C883 C878 1.425 . S
C883 C880 1.409 . S
C883 C881 1.415 . S
C884 H874 0.930 . S
C884 C882 1.419 . S
C884 C885 1.362 . S
C885 H875 0.930 . S
C885 C878 1.409 . S
C885 C884 1.362 . S
H886 C892 0.930 . S
H887 C895 0.930 . S
H888 C896 0.930 . S
H889 C897 0.930 . S
H890 C900 0.930 . S
H891 C901 0.930 . S
C892 H886 0.930 . S
C892 C893 1.355 . S
C892 C894 1.415 . S
C893 C892 1.355 . S
C893 C895 1.419 . S
C894 C892 1.415 . S
C894 C899 1.425 . S
C894 C901 1.409 . S
C895 H887 0.930 . S
C895 C893 1.419 . S
C895 C896 1.362 . S
C896 H888 0.930 . S
C896 C895 1.362 . S
C896 C899 1.409 . S
C897 H889 0.930 . S
C897 C898 1.355 . S
C897 C899 1.415 . S
C898 C897 1.355 . S
C898 C900 1.419 . S
C899 C894 1.425 . S
C899 C896 1.409 . S
C899 C897 1.415 . S
C900 H890 0.930 . S
C900 C898 1.419 . S
C900 C901 1.362 . S
C901 H891 0.930 . S
C901 C894 1.409 . S
C901 C900 1.362 . S
H902 C908 0.930 . S
H903 C911 0.930 . S
H904 C912 0.930 . S
H905 C913 0.930 . S
H906 C916 0.930 . S
H907 C917 0.930 . S
C908 H902 0.930 . S
C908 C909 1.355 . S
C908 C910 1.415 . S
C909 C908 1.355 . S
C909 C911 1.419 . S
C910 C908 1.415 . S
C910 C915 1.425 . S
C910 C917 1.409 . S
C911 H903 0.930 . S
C911 C909 1.419 . S
C911 C912 1.362 . S
C912 H904 0.930 . S
C912 C911 1.362 . S
C912 C915 1.409 . S
C913 H905 0.930 . S
C913 C914 1.355 . S
C913 C915 1.415 . S
C914 C913 1.355 . S
C914 C916 1.419 . S
C915 C910 1.425 . S
C915 C912 1.409 . S
C915 C913 1.415 . S
C916 H906 0.930 . S
C916 C914 1.419 . S
C916 C917 1.362 . S
C917 H907 0.930 . S
C917 C910 1.409 . S
C917 C916 1.362 . S
H918 C924 0.930 . S
H919 C927 0.930 . S
H920 C928 0.930 . S
H921 C929 0.930 . S
H922 C932 0.930 . S
H923 C933 0.930 . S
C924 H918 0.930 . S
C924 C925 1.355 . S
C924 C926 1.415 . S
C925 C924 1.355 . S
C925 C927 1.419 . S
C926 C924 1.415 . S
C926 C931 1.425 . S
C926 C933 1.409 . S
C927 H919 0.930 . S
C927 C925 1.419 . S
C927 C928 1.362 . S
C928 H920 0.930 . S
C928 C927 1.362 . S
C928 C931 1.409 . S
C929 H921 0.930 . S
C929 C930 1.355 . S
C929 C931 1.415 . S
C930 C929 1.355 . S
C930 C932 1.419 . S
C931 C926 1.425 . S
C931 C928 1.409 . S
C931 C929 1.415 . S
C932 H922 0.930 . S
C932 C930 1.419 . S
C932 C933 1.362 . S
C933 H923 0.930 . S
C933 C926 1.409 . S
C933 C932 1.362 . S
H934 C940 0.930 . S
H935 C943 0.930 . S
H936 C944 0.930 . S
H937 C945 0.930 . S
H938 C948 0.930 . S
H939 C949 0.930 . S
C940 H934 0.930 . S
C940 C941 1.355 . S
C940 C942 1.415 . S
C941 C940 1.355 . S
C941 C943 1.419 . S
C942 C940 1.415 . S
C942 C947 1.425 . S
C942 C949 1.409 . S
C943 H935 0.930 . S
C943 C941 1.419 . S
C943 C944 1.362 . S
C944 H936 0.930 . S
C944 C943 1.362 . S
C944 C947 1.409 . S
C945 H937 0.930 . S
C945 C946 1.355 . S
C945 C947 1.415 . S
C946 C945 1.355 . S
C946 C948 1.419 . S
C947 C942 1.425 . S
C947 C944 1.409 . S
C947 C945 1.415 . S
C948 H938 0.930 . S
C948 C946 1.419 . S
C948 C949 1.362 . S
C949 H939 0.930 . S
C949 C942 1.409 . S
C949 C948 1.362 . S
H950 C956 0.930 . S
H951 C959 0.930 . S
H952 C960 0.930 . S
H953 C961 0.930 . S
H954 C964 0.930 . S
H955 C965 0.930 . S
C956 H950 0.930 . S
C956 C957 1.355 . S
C956 C958 1.415 . S
C957 C956 1.355 . S
C957 C959 1.419 . S
C958 C956 1.415 . S
C958 C963 1.425 . S
C958 C965 1.409 . S
C959 H951 0.930 . S
C959 C957 1.419 . S
C959 C960 1.362 . S
C960 H952 0.930 . S
C960 C959 1.362 . S
C960 C963 1.409 . S
C961 H953 0.930 . S
C961 C962 1.355 . S
C961 C963 1.415 . S
C962 C961 1.355 . S
C962 C964 1.419 . S
C963 C958 1.425 . S
C963 C960 1.409 . S
C963 C961 1.415 . S
C964 H954 0.930 . S
C964 C962 1.419 . S
C964 C965 1.362 . S
C965 H955 0.930 . S
C965 C958 1.409 . S
C965 C964 1.362 . S
H966 C972 0.930 . S
H967 C975 0.930 . S
H968 C976 0.930 . S
H969 C977 0.930 . S
H970 C980 0.930 . S
H971 C981 0.930 . S
C972 H966 0.930 . S
C972 C973 1.355 . S
C972 C974 1.415 . S
C973 C972 1.355 . S
C973 C975 1.419 . S
C974 C972 1.415 . S
C974 C979 1.425 . S
C974 C981 1.409 . S
C975 H967 0.930 . S
C975 C973 1.419 . S
C975 C976 1.362 . S
C976 H968 0.930 . S
C976 C975 1.362 . S
C976 C979 1.409 . S
C977 H969 0.930 . S
C977 C978 1.355 . S
C977 C979 1.415 . S
C978 C977 1.355 . S
C978 C980 1.419 . S
C979 C974 1.425 . S
C979 C976 1.409 . S
C979 C977 1.415 . S
C980 H970 0.930 . S
C980 C978 1.419 . S
C980 C981 1.362 . S
C981 H971 0.930 . S
C981 C974 1.409 . S
C981 C980 1.362 . S
H982 C988 0.930 . S
H983 C991 0.930 . S
H984 C992 0.930 . S
H985 C993 0.930 . S
H986 C996 0.930 . S
H987 C997 0.930 . S
C988 H982 0.930 . S
C988 C989 1.355 . S
C988 C990 1.415 . S
C989 C988 1.355 . S
C989 C991 1.419 . S
C990 C988 1.415 . S
C990 C995 1.425 . S
C990 C997 1.409 . S
C991 H983 0.930 . S
C991 C989 1.419 . S
C991 C992 1.362 . S
C992 H984 0.930 . S
C992 C991 1.362 . S
C992 C995 1.409 . S
C993 H985 0.930 . S
C993 C994 1.355 . S
C993 C995 1.415 . S
C994 C993 1.355 . S
C994 C996 1.419 . S
C995 C990 1.425 . S
C995 C992 1.409 . S
C995 C993 1.415 . S
C996 H986 0.930 . S
C996 C994 1.419 . S
C996 C997 1.362 . S
C997 H987 0.930 . S
C997 C990 1.409 . S
C997 C996 1.362 . S
H998 C1004 0.930 . S
H999 C1007 0.930 . S
H1000 C1008 0.930 . S
H1001 C1009 0.930 . S
H1002 C1012 0.930 . S
H1003 C1013 0.930 . S
C1004 H998 0.930 . S
C1004 C1005 1.355 . S
C1004 C1006 1.415 . S
C1005 C1004 1.355 . S
C1005 C1007 1.419 . S
C1006 C1004 1.415 . S
C1006 C1011 1.425 . S
C1006 C1013 1.409 . S
C1007 H999 0.930 . S
C1007 C1005 1.419 . S
C1007 C1008 1.362 . S
C1008 H1000 0.930 . S
C1008 C1007 1.362 . S
C1008 C1011 1.409 . S
C1009 H1001 0.930 . S
C1009 C1010 1.355 . S
C1009 C1011 1.415 . S
C1010 C1009 1.355 . S
C1010 C1012 1.419 . S
C1011 C1006 1.425 . S
C1011 C1008 1.409 . S
C1011 C1009 1.415 . S
C1012 H1002 0.930 . S
C1012 C1010 1.419 . S
C1012 C1013 1.362 . S
C1013 H1003 0.930 . S
C1013 C1006 1.409 . S
C1013 C1012 1.362 . S
H1014 C1020 0.930 . S
H1015 C1023 0.930 . S
H1016 C1024 0.930 . S
H1017 C1025 0.930 . S
H1018 C1028 0.930 . S
H1019 C1029 0.930 . S
C1020 H1014 0.930 . S
C1020 C1021 1.355 . S
C1020 C1022 1.415 . S
C1021 C1020 1.355 . S
C1021 C1023 1.419 . S
C1022 C1020 1.415 . S
C1022 C1027 1.425 . S
C1022 C1029 1.409 . S
C1023 H1015 0.930 . S
C1023 C1021 1.419 . S
C1023 C1024 1.362 . S
C1024 H1016 0.930 . S
C1024 C1023 1.362 . S
C1024 C1027 1.409 . S
C1025 H1017 0.930 . S
C1025 C1026 1.355 . S
C1025 C1027 1.415 . S
C1026 C1025 1.355 . S
C1026 C1028 1.419 . S
C1027 C1022 1.425 . S
C1027 C1024 1.409 . S
C1027 C1025 1.415 . S
C1028 H1018 0.930 . S
C1028 C1026 1.419 . S
C1028 C1029 1.362 . S
C1029 H1019 0.930 . S
C1029 C1022 1.409 . S
C1029 C1028 1.362 . S
H1030 C1036 0.930 . S
H1031 C1039 0.930 . S
H1032 C1040 0.930 . S
H1033 C1041 0.930 . S
H1034 C1044 0.930 . S
H1035 C1045 0.930 . S
C1036 H1030 0.930 . S
C1036 C1037 1.355 . S
C1036 C1038 1.415 . S
C1037 C1036 1.355 . S
C1037 C1039 1.419 . S
C1038 C1036 1.415 . S
C1038 C1043 1.425 . S
C1038 C1045 1.409 . S
C1039 H1031 0.930 . S
C1039 C1037 1.419 . S
C1039 C1040 1.362 . S
C1040 H1032 0.930 . S
C1040 C1039 1.362 . S
C1040 C1043 1.409 . S
C1041 H1033 0.930 . S
C1041 C1042 1.355 . S
C1041 C1043 1.415 . S
C1042 C1041 1.355 . S
C1042 C1044 1.419 . S
C1043 C1038 1.425 . S
C1043 C1040 1.409 . S
C1043 C1041 1.415 . S
C1044 H1034 0.930 . S
C1044 C1042 1.419 . S
C1044 C1045 1.362 . S
C1045 H1035 0.930 . S
C1045 C1038 1.409 . S
C1045 C1044 1.362 . S
H1046 C1052 0.930 . S
H1047 C1055 0.930 . S
H1048 C1056 0.930 . S
H1049 C1057 0.930 . S
H1050 C1060 0.930 . S
H1051 C1061 0.930 . S
C1052 H1046 0.930 . S
C1052 C1053 1.355 . S
C1052 C1054 1.415 . S
C1053 C1052 1.355 . S
C1053 C1055 1.419 . S
C1054 C1052 1.415 . S
C1054 C1059 1.425 . S
C1054 C1061 1.409 . S
C1055 H1047 0.930 . S
C1055 C1053 1.419 . S
C1055 C1056 1.362 . S
C1056 H1048 0.930 . S
C1056 C1055 1.362 . S
C1056 C1059 1.409 . S
C1057 H1049 0.930 . S
C1057 C1058 1.355 . S
C1057 C1059 1.415 . S
C1058 C1057 1.355 . S
C1058 C1060 1.419 . S
C1059 C1054 1.425 . S
C1059 C1056 1.409 . S
C1059 C1057 1.415 . S
C1060 H1050 0.930 . S
C1060 C1058 1.419 . S
C1060 C1061 1.362 . S
C1061 H1051 0.930 . S
C1061 C1054 1.409 . S
C1061 C1060 1.362 . S
H1062 C1068 0.930 . S
H1063 C1071 0.930 . S
H1064 C1072 0.930 . S
H1065 C1073 0.930 . S
H1066 C1076 0.930 . S
H1067 C1077 0.930 . S
C1068 H1062 0.930 . S
C1068 C1069 1.355 . S
C1068 C1070 1.415 . S
C1069 C1068 1.355 . S
C1069 C1071 1.419 . S
C1070 C1068 1.415 . S
C1070 C1075 1.425 . S
C1070 C1077 1.409 . S
C1071 H1063 0.930 . S
C1071 C1069 1.419 . S
C1071 C1072 1.362 . S
C1072 H1064 0.930 . S
C1072 C1071 1.362 . S
C1072 C1075 1.409 . S
C1073 H1065 0.930 . S
C1073 C1074 1.355 . S
C1073 C1075 1.415 . S
C1074 C1073 1.355 . S
C1074 C1076 1.419 . S
C1075 C1070 1.425 . S
C1075 C1072 1.409 . S
C1075 C1073 1.415 . S
C1076 H1066 0.930 . S
C1076 C1074 1.419 . S
C1076 C1077 1.362 . S
C1077 H1067 0.930 . S
C1077 C1070 1.409 . S
C1077 C1076 1.362 . S
H1078 C1084 0.930 . S
H1079 C1087 0.930 . S
H1080 C1088 0.930 . S
H1081 C1089 0.930 . S
H1082 C1092 0.930 . S
H1083 C1093 0.930 . S
C1084 H1078 0.930 . S
C1084 C1085 1.355 . S
C1084 C1086 1.415 . S
C1085 C1084 1.355 . S
C1085 C1087 1.419 . S
C1086 C1084 1.415 . S
C1086 C1091 1.425 . S
C1086 C1093 1.409 . S
C1087 H1079 0.930 . S
C1087 C1085 1.419 . S
C1087 C1088 1.362 . S
C1088 H1080 0.930 . S
C1088 C1087 1.362 . S
C1088 C1091 1.409 . S
C1089 H1081 0.930 . S
C1089 C1090 1.355 . S
C1089 C1091 1.415 . S
C1090 C1089 1.355 . S
C1090 C1092 1.419 . S
C1091 C1086 1.425 . S
C1091 C1088 1.409 . S
C1091 C1089 1.415 . S
C1092 H1082 0.930 . S
C1092 C1090 1.419 . S
C1092 C1093 1.362 . S
C1093 H1083 0.930 . S
C1093 C1086 1.409 . S
C1093 C1092 1.362 . S
H1094 C1100 0.930 . S
H1095 C1103 0.930 . S
H1096 C1104 0.930 . S
H1097 C1105 0.930 . S
H1098 C1108 0.930 . S
H1099 C1109 0.930 . S
C1100 H1094 0.930 . S
C1100 C1101 1.355 . S
C1100 C1102 1.415 . S
C1101 C1100 1.355 . S
C1101 C1103 1.419 . S
C1102 C1100 1.415 . S
C1102 C1107 1.425 . S
C1102 C1109 1.409 . S
C1103 H1095 0.930 . S
C1103 C1101 1.419 . S
C1103 C1104 1.362 . S
C1104 H1096 0.930 . S
C1104 C1103 1.362 . S
C1104 C1107 1.409 . S
C1105 H1097 0.930 . S
C1105 C1106 1.355 . S
C1105 C1107 1.415 . S
C1106 C1105 1.355 . S
C1106 C1108 1.419 . S
C1107 C1102 1.425 . S
C1107 C1104 1.409 . S
C1107 C1105 1.415 . S
C1108 H1098 0.930 . S
C1108 C1106 1.419 . S
C1108 C1109 1.362 . S
C1109 H1099 0.930 . S
C1109 C1102 1.409 . S
C1109 C1108 1.362 . S
H1110 C1116 0.930 . S
H1111 C1119 0.930 . S
H1112 C1120 0.930 . S
H1113 C1121 0.930 . S
H1114 C1124 0.930 . S
H1115 C1125 0.930 . S
C1116 H1110 0.930 . S
C1116 C1117 1.355 . S
C1116 C1118 1.415 . S
C1117 C1116 1.355 . S
C1117 C1119 1.419 . S
C1118 C1116 1.415 . S
C1118 C1123 1.425 . S
C1118 C1125 1.409 . S
C1119 H1111 0.930 . S
C1119 C1117 1.419 . S
C1119 C1120 1.362 . S
C1120 H1112 0.930 . S
C1120 C1119 1.362 . S
C1120 C1123 1.409 . S
C1121 H1113 0.930 . S
C1121 C1122 1.355 . S
C1121 C1123 1.415 . S
C1122 C1121 1.355 . S
C1122 C1124 1.419 . S
C1123 C1118 1.425 . S
C1123 C1120 1.409 . S
C1123 C1121 1.415 . S
C1124 H1114 0.930 . S
C1124 C1122 1.419 . S
C1124 C1125 1.362 . S
C1125 H1115 0.930 . S
C1125 C1118 1.409 . S
C1125 C1124 1.362 . S
H1126 C1132 0.930 . S
H1127 C1135 0.930 . S
H1128 C1136 0.930 . S
H1129 C1137 0.930 . S
H1130 C1140 0.930 . S
H1131 C1141 0.930 . S
C1132 H1126 0.930 . S
C1132 C1133 1.355 . S
C1132 C1134 1.415 . S
C1133 C1132 1.355 . S
C1133 C1135 1.419 . S
C1134 C1132 1.415 . S
C1134 C1139 1.425 . S
C1134 C1141 1.409 . S
C1135 H1127 0.930 . S
C1135 C1133 1.419 . S
C1135 C1136 1.362 . S
C1136 H1128 0.930 . S
C1136 C1135 1.362 . S
C1136 C1139 1.409 . S
C1137 H1129 0.930 . S
C1137 C1138 1.355 . S
C1137 C1139 1.415 . S
C1138 C1137 1.355 . S
C1138 C1140 1.419 . S
C1139 C1134 1.425 . S
C1139 C1136 1.409 . S
C1139 C1137 1.415 . S
C1140 H1130 0.930 . S
C1140 C1138 1.419 . S
C1140 C1141 1.362 . S
C1141 H1131 0.930 . S
C1141 C1134 1.409 . S
C1141 C1140 1.362 . S
H1142 C1148 0.930 . S
H1143 C1151 0.930 . S
H1144 C1152 0.930 . S
H1145 C1153 0.930 . S
H1146 C1156 0.930 . S
H1147 C1157 0.930 . S
C1148 H1142 0.930 . S
C1148 C1149 1.355 . S
C1148 C1150 1.415 . S
C1149 C1148 1.355 . S
C1149 C1151 1.419 . S
C1150 C1148 1.415 . S
C1150 C1155 1.425 . S
C1150 C1157 1.409 . S
C1151 H1143 0.930 . S
C1151 C1149 1.419 . S
C1151 C1152 1.362 . S
C1152 H1144 0.930 . S
C1152 C1151 1.362 . S
C1152 C1155 1.409 . S
C1153 H1145 0.930 . S
C1153 C1154 1.355 . S
C1153 C1155 1.415 . S
C1154 C1153 1.355 . S
C1154 C1156 1.419 . S
C1155 C1150 1.425 . S
C1155 C1152 1.409 . S
C1155 C1153 1.415 . S
C1156 H1146 0.930 . S
C1156 C1154 1.419 . S
C1156 C1157 1.362 . S
C1157 H1147 0.930 . S
C1157 C1150 1.409 . S
C1157 C1156 1.362 . S
H1158 C1164 0.930 . S
H1159 C1167 0.930 . S
H1160 C1168 0.930 . S
H1161 C1169 0.930 . S
H1162 C1172 0.930 . S
H1163 C1173 0.930 . S
C1164 H1158 0.930 . S
C1164 C1165 1.355 . S
C1164 C1166 1.415 . S
C1165 C1164 1.355 . S
C1165 C1167 1.419 . S
C1166 C1164 1.415 . S
C1166 C1171 1.425 . S
C1166 C1173 1.409 . S
C1167 H1159 0.930 . S
C1167 C1165 1.419 . S
C1167 C1168 1.362 . S
C1168 H1160 0.930 . S
C1168 C1167 1.362 . S
C1168 C1171 1.409 . S
C1169 H1161 0.930 . S
C1169 C1170 1.355 . S
C1169 C1171 1.415 . S
C1170 C1169 1.355 . S
C1170 C1172 1.419 . S
C1171 C1166 1.425 . S
C1171 C1168 1.409 . S
C1171 C1169 1.415 . S
C1172 H1162 0.930 . S
C1172 C1170 1.419 . S
C1172 C1173 1.362 . S
C1173 H1163 0.930 . S
C1173 C1166 1.409 . S
C1173 C1172 1.362 . S
H1174 C1180 0.930 . S
H1175 C1183 0.930 . S
H1176 C1184 0.930 . S
H1177 C1185 0.930 . S
H1178 C1188 0.930 . S
H1179 C1189 0.930 . S
C1180 H1174 0.930 . S
C1180 C1181 1.355 . S
C1180 C1182 1.415 . S
C1181 C1180 1.355 . S
C1181 C1183 1.419 . S
C1182 C1180 1.415 . S
C1182 C1187 1.425 . S
C1182 C1189 1.409 . S
C1183 H1175 0.930 . S
C1183 C1181 1.419 . S
C1183 C1184 1.362 . S
C1184 H1176 0.930 . S
C1184 C1183 1.362 . S
C1184 C1187 1.409 . S
C1185 H1177 0.930 . S
C1185 C1186 1.355 . S
C1185 C1187 1.415 . S
C1186 C1185 1.355 . S
C1186 C1188 1.419 . S
C1187 C1182 1.425 . S
C1187 C1184 1.409 . S
C1187 C1185 1.415 . S
C1188 H1178 0.930 . S
C1188 C1186 1.419 . S
C1188 C1189 1.362 . S
C1189 H1179 0.930 . S
C1189 C1182 1.409 . S
C1189 C1188 1.362 . S
H1190 C1196 0.930 . S
H1191 C1199 0.930 . S
H1192 C1200 0.930 . S
H1193 C1201 0.930 . S
H1194 C1204 0.930 . S
H1195 C1205 0.930 . S
C1196 H1190 0.930 . S
C1196 C1197 1.355 . S
C1196 C1198 1.415 . S
C1197 C1196 1.355 . S
C1197 C1199 1.419 . S
C1198 C1196 1.415 . S
C1198 C1203 1.425 . S
C1198 C1205 1.409 . S
C1199 H1191 0.930 . S
C1199 C1197 1.419 . S
C1199 C1200 1.362 . S
C1200 H1192 0.930 . S
C1200 C1199 1.362 . S
C1200 C1203 1.409 . S
C1201 H1193 0.930 . S
C1201 C1202 1.355 . S
C1201 C1203 1.415 . S
C1202 C1201 1.355 . S
C1202 C1204 1.419 . S
C1203 C1198 1.425 . S
C1203 C1200 1.409 . S
C1203 C1201 1.415 . S
C1204 H1194 0.930 . S
C1204 C1202 1.419 . S
C1204 C1205 1.362 . S
C1205 H1195 0.930 . S
C1205 C1198 1.409 . S
C1205 C1204 1.362 . S
H1206 C1212 0.930 . S
H1207 C1215 0.930 . S
H1208 C1216 0.930 . S
H1209 C1217 0.930 . S
H1210 C1220 0.930 . S
H1211 C1221 0.930 . S
C1212 H1206 0.930 . S
C1212 C1213 1.355 . S
C1212 C1214 1.415 . S
C1213 C1212 1.355 . S
C1213 C1215 1.419 . S
C1214 C1212 1.415 . S
C1214 C1219 1.425 . S
C1214 C1221 1.409 . S
C1215 H1207 0.930 . S
C1215 C1213 1.419 . S
C1215 C1216 1.362 . S
C1216 H1208 0.930 . S
C1216 C1215 1.362 . S
C1216 C1219 1.409 . S
C1217 H1209 0.930 . S
C1217 C1218 1.355 . S
C1217 C1219 1.415 . S
C1218 C1217 1.355 . S
C1218 C1220 1.419 . S
C1219 C1214 1.425 . S
C1219 C1216 1.409 . S
C1219 C1217 1.415 . S
C1220 H1210 0.930 . S
C1220 C1218 1.419 . S
C1220 C1221 1.362 . S
C1221 H1211 0.930 . S
C1221 C1214 1.409 . S
C1221 C1220 1.362 . S
H1222 C1228 0.930 . S
H1223 C1231 0.930 . S
H1224 C1232 0.930 . S
H1225 C1233 0.930 . S
H1226 C1236 0.930 . S
H1227 C1237 0.930 . S
C1228 H1222 0.930 . S
C1228 C1229 1.355 . S
C1228 C1230 1.415 . S
C1229 C1228 1.355 . S
C1229 C1231 1.419 . S
C1230 C1228 1.415 . S
C1230 C1235 1.425 . S
C1230 C1237 1.409 . S
C1231 H1223 0.930 . S
C1231 C1229 1.419 . S
C1231 C1232 1.362 . S
C1232 H1224 0.930 . S
C1232 C1231 1.362 . S
C1232 C1235 1.409 . S
C1233 H1225 0.930 . S
C1233 C1234 1.355 . S
C1233 C1235 1.415 . S
C1234 C1233 1.355 . S
C1234 C1236 1.419 . S
C1235 C1230 1.425 . S
C1235 C1232 1.409 . S
C1235 C1233 1.415 . S
C1236 H1226 0.930 . S
C1236 C1234 1.419 . S
C1236 C1237 1.362 . S
C1237 H1227 0.930 . S
C1237 C1230 1.409 . S
C1237 C1236 1.362 . S
H1238 C1244 0.930 . S
H1239 C1247 0.930 . S
H1240 C1248 0.930 . S
H1241 C1249 0.930 . S
H1242 C1252 0.930 . S
H1243 C1253 0.930 . S
C1244 H1238 0.930 . S
C1244 C1245 1.355 . S
C1244 C1246 1.415 . S
C1245 C1244 1.355 . S
C1245 C1247 1.419 . S
C1246 C1244 1.415 . S
C1246 C1251 1.425 . S
C1246 C1253 1.409 . S
C1247 H1239 0.930 . S
C1247 C1245 1.419 . S
C1247 C1248 1.362 . S
C1248 H1240 0.930 . S
C1248 C1247 1.362 . S
C1248 C1251 1.409 . S
C1249 H1241 0.930 . S
C1249 C1250 1.355 . S
C1249 C1251 1.415 . S
C1250 C1249 1.355 . S
C1250 C1252 1.419 . S
C1251 C1246 1.425 . S
C1251 C1248 1.409 . S
C1251 C1249 1.415 . S
C1252 H1242 0.930 . S
C1252 C1250 1.419 . S
C1252 C1253 1.362 . S
C1253 H1243 0.930 . S
C1253 C1246 1.409 . S
C1253 C1252 1.362 . S
H1254 C1260 0.930 . S
H1255 C1263 0.927 . S
H1256 C1264 0.930 1_554 S
H1257 C1265 0.930 . S
H1258 C1268 0.930 . S
H1259 C1269 0.930 . S
C1260 H1254 0.930 . S
C1260 C1261 1.355 . S
C1260 C1262 1.415 . S
C1261 C1260 1.355 . S
C1261 C1263 1.421 1_556 S
C1262 C1260 1.415 . S
C1262 C1267 1.425 . S
C1262 C1269 1.409 . S
C1263 H1255 0.927 . S
C1263 C1261 1.421 1_554 S
C1263 C1264 1.363 1_554 S
C1264 H1256 0.930 1_556 S
C1264 C1263 1.363 1_556 S
C1264 C1267 1.409 . S
C1265 H1257 0.930 . S
C1265 C1266 1.355 . S
C1265 C1267 1.415 . S
C1266 C1265 1.355 . S
C1266 C1268 1.419 . S
C1267 C1262 1.425 . S
C1267 C1264 1.409 . S
C1267 C1265 1.415 . S
C1268 H1258 0.930 . S
C1268 C1266 1.419 . S
C1268 C1269 1.362 . S
C1269 H1259 0.930 . S
C1269 C1262 1.409 . S
C1269 C1268 1.362 . S
H1270 C1276 0.918 1_554 S
H1271 C1279 0.930 . S
H1272 C1280 0.930 . S
H1273 C1281 0.930 . S
H1274 C1284 0.930 . S
H1275 C1285 0.930 . S
C1276 H1270 0.918 1_556 S
C1276 C1277 1.355 . S
C1276 C1278 1.415 . S
C1277 C1276 1.355 . S
C1277 C1279 1.419 . S
C1278 C1276 1.415 . S
C1278 C1283 1.425 . S
C1278 C1285 1.409 . S
C1279 H1271 0.930 . S
C1279 C1277 1.419 . S
C1279 C1280 1.362 . S
C1280 H1272 0.930 . S
C1280 C1279 1.362 . S
C1280 C1283 1.409 . S
C1281 H1273 0.930 . S
C1281 C1282 1.355 . S
C1281 C1283 1.415 . S
C1282 C1281 1.355 . S
C1282 C1284 1.419 . S
C1283 C1278 1.425 . S
C1283 C1280 1.409 . S
C1283 C1281 1.415 . S
C1284 H1274 0.930 . S
C1284 C1282 1.419 . S
C1284 C1285 1.362 . S
C1285 H1275 0.930 . S
C1285 C1278 1.409 . S
C1285 C1284 1.362 . S
H1286 C1292 0.930 . S
H1287 C1295 0.930 . S
H1288 C1296 0.930 1_554 S
H1289 C1297 0.930 . S
H1290 C1300 0.930 . S
H1291 C1301 0.930 . S
C1292 H1286 0.930 . S
C1292 C1293 1.355 . S
C1292 C1294 1.415 . S
C1293 C1292 1.355 . S
C1293 C1295 1.419 1_556 S
C1294 C1292 1.415 . S
C1294 C1299 1.425 . S
C1294 C1301 1.409 . S
C1295 H1287 0.930 . S
C1295 C1293 1.419 1_554 S
C1295 C1296 1.362 1_554 S
C1296 H1288 0.930 1_556 S
C1296 C1295 1.362 1_556 S
C1296 C1299 1.409 . S
C1297 H1289 0.930 . S
C1297 C1298 1.355 . S
C1297 C1299 1.415 . S
C1298 C1297 1.355 . S
C1298 C1300 1.419 . S
C1299 C1294 1.425 . S
C1299 C1296 1.409 . S
C1299 C1297 1.415 . S
C1300 H1290 0.930 . S
C1300 C1298 1.419 . S
C1300 C1301 1.362 . S
C1301 H1291 0.930 . S
C1301 C1294 1.409 . S
C1301 C1300 1.362 . S
H1302 C1308 0.930 . S
H1303 C1311 0.930 . S
H1304 C1312 0.930 . S
H1305 C1313 0.930 . S
H1306 C1316 0.930 . S
H1307 C1317 0.930 . S
C1308 H1302 0.930 . S
C1308 C1309 1.355 . S
C1308 C1310 1.415 . S
C1309 C1308 1.355 . S
C1309 C1311 1.419 . S
C1310 C1308 1.415 . S
C1310 C1315 1.425 . S
C1310 C1317 1.409 . S
C1311 H1303 0.930 . S
C1311 C1309 1.419 . S
C1311 C1312 1.362 . S
C1312 H1304 0.930 . S
C1312 C1311 1.362 . S
C1312 C1315 1.409 . S
C1313 H1305 0.930 . S
C1313 C1314 1.355 . S
C1313 C1315 1.415 . S
C1314 C1313 1.355 . S
C1314 C1316 1.419 . S
C1315 C1310 1.425 . S
C1315 C1312 1.409 . S
C1315 C1313 1.415 . S
C1316 H1306 0.930 . S
C1316 C1314 1.419 . S
C1316 C1317 1.362 . S
C1317 H1307 0.930 . S
C1317 C1310 1.409 . S
C1317 C1316 1.362 . S
H1318 C1324 0.930 . S
H1319 C1327 0.930 1_554 S
H1320 C1328 0.930 . S
H1321 C1329 0.930 . S
H1322 C1332 0.930 . S
H1323 C1333 0.930 . S
C1324 H1318 0.930 . S
C1324 C1325 1.355 . S
C1324 C1326 1.415 . S
C1325 C1324 1.355 . S
C1325 C1327 1.419 . S
C1326 C1324 1.415 . S
C1326 C1331 1.425 . S
C1326 C1333 1.409 . S
C1327 H1319 0.930 1_556 S
C1327 C1325 1.419 . S
C1327 C1328 1.362 . S
C1328 H1320 0.930 . S
C1328 C1327 1.362 . S
C1328 C1331 1.409 . S
C1329 H1321 0.930 . S
C1329 C1330 1.355 . S
C1329 C1331 1.415 . S
C1330 C1329 1.355 . S
C1330 C1332 1.419 . S
C1331 C1326 1.425 . S
C1331 C1328 1.409 . S
C1331 C1329 1.415 . S
C1332 H1322 0.930 . S
C1332 C1330 1.419 . S
C1332 C1333 1.362 . S
C1333 H1323 0.930 . S
C1333 C1326 1.409 . S
C1333 C1332 1.362 . S
H1334 C1340 0.930 1_554 S
H1335 C1343 0.930 . S
H1336 C1344 0.930 . S
H1337 C1345 0.930 . S
H1338 C1348 0.930 . S
H1339 C1349 0.930 1_554 S
C1340 H1334 0.930 1_556 S
C1340 C1341 1.355 . S
C1340 C1342 1.415 . S
C1341 C1340 1.355 . S
C1341 C1343 1.419 . S
C1342 C1340 1.415 . S
C1342 C1347 1.425 . S
C1342 C1349 1.409 . S
C1343 H1335 0.930 . S
C1343 C1341 1.419 . S
C1343 C1344 1.362 . S
C1344 H1336 0.930 . S
C1344 C1343 1.362 . S
C1344 C1347 1.409 . S
C1345 H1337 0.930 . S
C1345 C1346 1.355 . S
C1345 C1347 1.415 . S
C1346 C1345 1.355 . S
C1346 C1348 1.419 . S
C1347 C1342 1.425 . S
C1347 C1344 1.409 . S
C1347 C1345 1.415 . S
C1348 H1338 0.930 . S
C1348 C1346 1.419 . S
C1348 C1349 1.362 . S
C1349 H1339 0.930 1_556 S
C1349 C1342 1.409 . S
C1349 C1348 1.362 . S
H1350 C1356 0.930 . S
H1351 C1359 0.930 . S
H1352 C1360 0.930 . S
H1353 C1361 0.930 . S
H1354 C1364 0.930 . S
H1355 C1365 0.930 . S
C1356 H1350 0.930 . S
C1356 C1357 1.355 . S
C1356 C1358 1.415 . S
C1357 C1356 1.355 . S
C1357 C1359 1.419 . S
C1358 C1356 1.415 . S
C1358 C1363 1.425 . S
C1358 C1365 1.409 . S
C1359 H1351 0.930 . S
C1359 C1357 1.419 . S
C1359 C1360 1.362 . S
C1360 H1352 0.930 . S
C1360 C1359 1.362 . S
C1360 C1363 1.409 . S
C1361 H1353 0.930 . S
C1361 C1362 1.355 . S
C1361 C1363 1.415 . S
C1362 C1361 1.355 . S
C1362 C1364 1.419 . S
C1363 C1358 1.425 . S
C1363 C1360 1.409 . S
C1363 C1361 1.415 . S
C1364 H1354 0.930 . S
C1364 C1362 1.419 . S
C1364 C1365 1.362 . S
C1365 H1355 0.930 . S
C1365 C1358 1.409 . S
C1365 C1364 1.362 . S
H1366 C1372 0.930 . S
H1367 C1375 0.930 . S
H1368 C1376 0.930 . S
H1369 C1377 0.930 . S
H1370 C1380 0.930 . S
H1371 C1381 0.930 . S
C1372 H1366 0.930 . S
C1372 C1373 1.355 . S
C1372 C1374 1.415 . S
C1373 C1372 1.355 . S
C1373 C1375 1.419 . S
C1374 C1372 1.415 . S
C1374 C1379 1.425 . S
C1374 C1381 1.409 . S
C1375 H1367 0.930 . S
C1375 C1373 1.419 . S
C1375 C1376 1.362 . S
C1376 H1368 0.930 . S
C1376 C1375 1.362 . S
C1376 C1379 1.409 . S
C1377 H1369 0.930 . S
C1377 C1378 1.355 . S
C1377 C1379 1.415 . S
C1378 C1377 1.355 . S
C1378 C1380 1.419 . S
C1379 C1374 1.425 . S
C1379 C1376 1.409 . S
C1379 C1377 1.415 . S
C1380 H1370 0.930 . S
C1380 C1378 1.419 . S
C1380 C1381 1.362 . S
C1381 H1371 0.930 . S
C1381 C1374 1.409 . S
C1381 C1380 1.362 . S
H1382 C1388 0.930 . S
H1383 C1391 0.930 . S
H1384 C1392 0.930 . S
H1385 C1393 0.930 . S
H1386 C1396 0.930 . S
H1387 C1397 0.930 . S
C1388 H1382 0.930 . S
C1388 C1389 1.355 . S
C1388 C1390 1.415 . S
C1389 C1388 1.355 . S
C1389 C1391 1.419 . S
C1390 C1388 1.415 . S
C1390 C1395 1.425 . S
C1390 C1397 1.409 . S
C1391 H1383 0.930 . S
C1391 C1389 1.419 . S
C1391 C1392 1.362 . S
C1392 H1384 0.930 . S
C1392 C1391 1.362 . S
C1392 C1395 1.409 . S
C1393 H1385 0.930 . S
C1393 C1394 1.355 . S
C1393 C1395 1.415 . S
C1394 C1393 1.355 . S
C1394 C1396 1.419 . S
C1395 C1390 1.425 . S
C1395 C1392 1.409 . S
C1395 C1393 1.415 . S
C1396 H1386 0.930 . S
C1396 C1394 1.419 . S
C1396 C1397 1.362 . S
C1397 H1387 0.930 . S
C1397 C1390 1.409 . S
C1397 C1396 1.362 . S
H1398 C1404 0.930 . S
H1399 C1407 0.930 . S
H1400 C1408 0.930 . S
H1401 C1409 0.930 . S
H1402 C1412 0.930 . S
H1403 C1413 0.930 . S
C1404 H1398 0.930 . S
C1404 C1405 1.355 . S
C1404 C1406 1.415 . S
C1405 C1404 1.355 . S
C1405 C1407 1.419 . S
C1406 C1404 1.415 . S
C1406 C1411 1.425 . S
C1406 C1413 1.409 . S
C1407 H1399 0.930 . S
C1407 C1405 1.419 . S
C1407 C1408 1.362 . S
C1408 H1400 0.930 . S
C1408 C1407 1.362 . S
C1408 C1411 1.409 . S
C1409 H1401 0.930 . S
C1409 C1410 1.355 . S
C1409 C1411 1.415 . S
C1410 C1409 1.355 . S
C1410 C1412 1.419 . S
C1411 C1406 1.425 . S
C1411 C1408 1.409 . S
C1411 C1409 1.415 . S
C1412 H1402 0.930 . S
C1412 C1410 1.419 . S
C1412 C1413 1.362 . S
C1413 H1403 0.930 . S
C1413 C1406 1.409 . S
C1413 C1412 1.362 . S
H1414 C1420 0.930 . S
H1415 C1423 0.930 . S
H1416 C1424 0.930 . S
H1417 C1425 0.930 . S
H1418 C1428 0.930 . S
H1419 C1429 0.930 . S
C1420 H1414 0.930 . S
C1420 C1421 1.355 . S
C1420 C1422 1.415 . S
C1421 C1420 1.355 . S
C1421 C1423 1.419 . S
C1422 C1420 1.415 . S
C1422 C1427 1.425 . S
C1422 C1429 1.409 . S
C1423 H1415 0.930 . S
C1423 C1421 1.419 . S
C1423 C1424 1.362 . S
C1424 H1416 0.930 . S
C1424 C1423 1.362 . S
C1424 C1427 1.409 . S
C1425 H1417 0.930 . S
C1425 C1426 1.355 . S
C1425 C1427 1.415 . S
C1426 C1425 1.355 . S
C1426 C1428 1.419 . S
C1427 C1422 1.425 . S
C1427 C1424 1.409 . S
C1427 C1425 1.415 . S
C1428 H1418 0.930 . S
C1428 C1426 1.419 . S
C1428 C1429 1.362 . S
C1429 H1419 0.930 . S
C1429 C1422 1.409 . S
C1429 C1428 1.362 . S
H1430 C1436 0.930 . S
H1431 C1439 0.930 . S
H1432 C1440 0.930 . S
H1433 C1441 0.930 . S
H1434 C1444 0.930 . S
H1435 C1445 0.930 . S
C1436 H1430 0.930 . S
C1436 C1437 1.355 . S
C1436 C1438 1.415 . S
C1437 C1436 1.355 . S
C1437 C1439 1.419 . S
C1438 C1436 1.415 . S
C1438 C1443 1.425 . S
C1438 C1445 1.409 . S
C1439 H1431 0.930 . S
C1439 C1437 1.419 . S
C1439 C1440 1.362 . S
C1440 H1432 0.930 . S
C1440 C1439 1.362 . S
C1440 C1443 1.409 . S
C1441 H1433 0.930 . S
C1441 C1442 1.355 . S
C1441 C1443 1.415 . S
C1442 C1441 1.355 . S
C1442 C1444 1.419 . S
C1443 C1438 1.425 . S
C1443 C1440 1.409 . S
C1443 C1441 1.415 . S
C1444 H1434 0.930 . S
C1444 C1442 1.419 . S
C1444 C1445 1.362 . S
C1445 H1435 0.930 . S
C1445 C1438 1.409 . S
C1445 C1444 1.362 . S
H1446 C1452 0.930 . S
H1447 C1455 0.930 . S
H1448 C1456 0.930 . S
H1449 C1457 0.930 . S
H1450 C1460 0.930 . S
H1451 C1461 0.930 . S
C1452 H1446 0.930 . S
C1452 C1453 1.355 . S
C1452 C1454 1.415 . S
C1453 C1452 1.355 . S
C1453 C1455 1.419 1_455 S
C1454 C1452 1.415 . S
C1454 C1459 1.425 1_455 S
C1454 C1461 1.409 . S
C1455 H1447 0.930 . S
C1455 C1453 1.419 1_655 S
C1455 C1456 1.362 . S
C1456 H1448 0.930 . S
C1456 C1455 1.362 . S
C1456 C1459 1.409 . S
C1457 H1449 0.930 . S
C1457 C1458 1.355 1_655 S
C1457 C1459 1.415 . S
C1458 C1457 1.355 1_455 S
C1458 C1460 1.419 . S
C1459 C1454 1.425 1_655 S
C1459 C1456 1.409 . S
C1459 C1457 1.415 . S
C1460 H1450 0.930 . S
C1460 C1458 1.419 . S
C1460 C1461 1.362 . S
C1461 H1451 0.930 . S
C1461 C1454 1.409 . S
C1461 C1460 1.362 . S
H1462 C1468 0.930 . S
H1463 C1471 0.930 . S
H1464 C1472 0.930 . S
H1465 C1473 0.930 . S
H1466 C1476 0.930 . S
H1467 C1477 0.930 . S
C1468 H1462 0.930 . S
C1468 C1469 1.355 . S
C1468 C1470 1.415 . S
C1469 C1468 1.355 . S
C1469 C1471 1.419 . S
C1470 C1468 1.415 . S
C1470 C1475 1.425 . S
C1470 C1477 1.409 . S
C1471 H1463 0.930 . S
C1471 C1469 1.419 . S
C1471 C1472 1.362 . S
C1472 H1464 0.930 . S
C1472 C1471 1.362 . S
C1472 C1475 1.409 . S
C1473 H1465 0.930 . S
C1473 C1474 1.355 . S
C1473 C1475 1.415 . S
C1474 C1473 1.355 . S
C1474 C1476 1.419 . S
C1475 C1470 1.425 . S
C1475 C1472 1.409 . S
C1475 C1473 1.415 . S
C1476 H1466 0.930 . S
C1476 C1474 1.419 . S
C1476 C1477 1.362 . S
C1477 H1467 0.930 . S
C1477 C1470 1.409 . S
C1477 C1476 1.362 . S
H1478 C1484 0.906 1_545 S
H1479 C1487 0.930 . S
H1480 C1488 0.930 . S
H1481 C1489 0.930 . S
H1482 C1492 0.930 . S
H1483 C1493 0.930 . S
C1484 H1478 0.906 1_565 S
C1484 C1485 1.355 . S
C1484 C1486 1.415 . S
C1485 C1484 1.355 . S
C1485 C1487 1.419 . S
C1486 C1484 1.415 . S
C1486 C1491 1.425 . S
C1486 C1493 1.409 1_565 S
C1487 H1479 0.930 . S
C1487 C1485 1.419 . S
C1487 C1488 1.362 . S
C1488 H1480 0.930 . S
C1488 C1487 1.362 . S
C1488 C1491 1.409 . S
C1489 H1481 0.930 . S
C1489 C1490 1.355 . S
C1489 C1491 1.415 . S
C1490 C1489 1.355 . S
C1490 C1492 1.419 1_565 S
C1491 C1486 1.425 . S
C1491 C1488 1.409 . S
C1491 C1489 1.415 . S
C1492 H1482 0.930 . S
C1492 C1490 1.419 1_545 S
C1492 C1493 1.362 . S
C1493 H1483 0.930 . S
C1493 C1486 1.409 1_545 S
C1493 C1492 1.362 . S
H1494 C1500 0.930 . S
H1495 C1503 0.930 . S
H1496 C1504 0.930 . S
H1497 C1505 0.930 . S
H1498 C1508 0.930 . S
H1499 C1509 0.930 . S
C1500 H1494 0.930 . S
C1500 C1501 1.355 . S
C1500 C1502 1.415 . S
C1501 C1500 1.355 . S
C1501 C1503 1.419 1_565 S
C1502 C1500 1.415 . S
C1502 C1507 1.425 1_565 S
C1502 C1509 1.409 . S
C1503 H1495 0.930 . S
C1503 C1501 1.419 1_545 S
C1503 C1504 1.362 . S
C1504 H1496 0.930 . S
C1504 C1503 1.362 . S
C1504 C1507 1.409 . S
C1505 H1497 0.930 . S
C1505 C1506 1.355 1_545 S
C1505 C1507 1.415 . S
C1506 C1505 1.355 1_565 S
C1506 C1508 1.419 . S
C1507 C1502 1.425 1_545 S
C1507 C1504 1.409 . S
C1507 C1505 1.415 . S
C1508 H1498 0.930 . S
C1508 C1506 1.419 . S
C1508 C1509 1.362 . S
C1509 H1499 0.930 . S
C1509 C1502 1.409 . S
C1509 C1508 1.362 . S
H1510 C1516 0.930 . S
H1511 C1519 0.930 . S
H1512 C1520 0.930 . S
H1513 C1521 0.930 . S
H1514 C1524 0.930 . S
H1515 C1525 0.930 . S
C1516 H1510 0.930 . S
C1516 C1517 1.355 . S
C1516 C1518 1.415 . S
C1517 C1516 1.355 . S
C1517 C1519 1.419 1_455 S
C1518 C1516 1.415 . S
C1518 C1523 1.413 1_455 S
C1518 C1525 1.409 . S
C1519 H1511 0.930 . S
C1519 C1517 1.419 1_655 S
C1519 C1520 1.362 . S
C1520 H1512 0.930 . S
C1520 C1519 1.362 . S
C1520 C1523 1.435 . S
C1521 H1513 0.930 . S
C1521 C1522 1.355 1_655 S
C1521 C1523 1.402 . S
C1522 C1521 1.355 1_455 S
C1522 C1524 1.419 . S
C1523 C1518 1.413 1_655 S
C1523 C1520 1.435 . S
C1523 C1521 1.402 . S
C1524 H1514 0.930 . S
C1524 C1522 1.419 . S
C1524 C1525 1.362 . S
C1525 H1515 0.930 . S
C1525 C1518 1.409 . S
C1525 C1524 1.362 . S
H1526 C1532 0.930 . S
H1527 C1535 0.930 . S
H1528 C1536 0.930 . S
H1529 C1537 0.930 . S
H1530 C1540 0.930 . S
H1531 C1541 0.930 . S
C1532 H1526 0.930 . S
C1532 C1533 1.355 . S
C1532 C1534 1.415 . S
C1533 C1532 1.355 . S
C1533 C1535 1.419 . S
C1534 C1532 1.415 . S
C1534 C1539 1.425 . S
C1534 C1541 1.409 . S
C1535 H1527 0.930 . S
C1535 C1533 1.419 . S
C1535 C1536 1.362 . S
C1536 H1528 0.930 . S
C1536 C1535 1.362 . S
C1536 C1539 1.409 . S
C1537 H1529 0.930 . S
C1537 C1538 1.355 . S
C1537 C1539 1.415 . S
C1538 C1537 1.355 . S
C1538 C1540 1.419 . S
C1539 C1534 1.425 . S
C1539 C1536 1.409 . S
C1539 C1537 1.415 . S
C1540 H1530 0.930 . S
C1540 C1538 1.419 . S
C1540 C1541 1.362 . S
C1541 H1531 0.930 . S
C1541 C1534 1.409 . S
C1541 C1540 1.362 . S
H1542 C1548 0.930 . S
H1543 C1551 0.930 . S
H1544 C1552 0.930 . S
H1545 C1553 0.930 . S
H1546 C1556 0.930 . S
H1547 C1557 0.930 . S
C1548 H1542 0.930 . S
C1548 C1549 1.355 . S
C1548 C1550 1.415 . S
C1549 C1548 1.355 . S
C1549 C1551 1.419 . S
C1550 C1548 1.415 . S
C1550 C1555 1.425 . S
C1550 C1557 1.409 . S
C1551 H1543 0.930 . S
C1551 C1549 1.419 . S
C1551 C1552 1.362 . S
C1552 H1544 0.930 . S
C1552 C1551 1.362 . S
C1552 C1555 1.409 . S
C1553 H1545 0.930 . S
C1553 C1554 1.355 . S
C1553 C1555 1.415 . S
C1554 C1553 1.355 . S
C1554 C1556 1.419 . S
C1555 C1550 1.425 . S
C1555 C1552 1.409 . S
C1555 C1553 1.415 . S
C1556 H1546 0.930 . S
C1556 C1554 1.419 . S
C1556 C1557 1.362 . S
C1557 H1547 0.930 . S
C1557 C1550 1.409 . S
C1557 C1556 1.362 . S
H1558 C1564 0.930 . S
H1559 C1567 0.930 . S
H1560 C1568 0.930 . S
H1561 C1569 0.930 . S
H1562 C1572 0.930 . S
H1563 C1573 0.930 . S
C1564 H1558 0.930 . S
C1564 C1565 1.355 . S
C1564 C1566 1.415 . S
C1565 C1564 1.355 . S
C1565 C1567 1.419 . S
C1566 C1564 1.415 . S
C1566 C1571 1.425 . S
C1566 C1573 1.409 . S
C1567 H1559 0.930 . S
C1567 C1565 1.419 . S
C1567 C1568 1.362 . S
C1568 H1560 0.930 . S
C1568 C1567 1.362 . S
C1568 C1571 1.409 . S
C1569 H1561 0.930 . S
C1569 C1570 1.355 . S
C1569 C1571 1.415 . S
C1570 C1569 1.355 . S
C1570 C1572 1.419 . S
C1571 C1566 1.425 . S
C1571 C1568 1.409 . S
C1571 C1569 1.415 . S
C1572 H1562 0.930 . S
C1572 C1570 1.419 . S
C1572 C1573 1.362 . S
C1573 H1563 0.930 . S
C1573 C1566 1.409 . S
C1573 C1572 1.362 . S
H1574 C1580 0.930 . S
H1575 C1583 0.930 . S
H1576 C1584 0.930 . S
H1577 C1585 0.930 . S
H1578 C1588 0.930 . S
H1579 C1589 0.930 . S
C1580 H1574 0.930 . S
C1580 C1581 1.355 . S
C1580 C1582 1.415 . S
C1581 C1580 1.355 . S
C1581 C1583 1.419 . S
C1582 C1580 1.415 . S
C1582 C1587 1.425 . S
C1582 C1589 1.409 . S
C1583 H1575 0.930 . S
C1583 C1581 1.419 . S
C1583 C1584 1.362 . S
C1584 H1576 0.930 . S
C1584 C1583 1.362 . S
C1584 C1587 1.409 . S
C1585 H1577 0.930 . S
C1585 C1586 1.355 . S
C1585 C1587 1.415 . S
C1586 C1585 1.355 . S
C1586 C1588 1.419 . S
C1587 C1582 1.425 . S
C1587 C1584 1.409 . S
C1587 C1585 1.415 . S
C1588 H1578 0.930 . S
C1588 C1586 1.419 . S
C1588 C1589 1.362 . S
C1589 H1579 0.930 . S
C1589 C1582 1.409 . S
C1589 C1588 1.362 . S
H1590 C1596 0.930 . S
H1591 C1599 0.930 . S
H1592 C1600 0.930 . S
H1593 C1601 0.930 . S
H1594 C1604 0.930 . S
H1595 C1605 0.930 . S
C1596 H1590 0.930 . S
C1596 C1597 1.355 1_565 S
C1596 C1598 1.388 . S
C1597 C1596 1.355 1_545 S
C1597 C1599 1.419 . S
C1598 C1596 1.388 . S
C1598 C1603 1.414 1_565 S
C1598 C1605 1.450 . S
C1599 H1591 0.930 . S
C1599 C1597 1.419 . S
C1599 C1600 1.362 . S
C1600 H1592 0.930 . S
C1600 C1599 1.362 . S
C1600 C1603 1.409 . S
C1601 H1593 0.930 . S
C1601 C1602 1.355 . S
C1601 C1603 1.415 . S
C1602 C1601 1.355 . S
C1602 C1604 1.419 1_545 S
C1603 C1598 1.414 1_545 S
C1603 C1600 1.409 . S
C1603 C1601 1.415 . S
C1604 H1594 0.930 . S
C1604 C1602 1.419 1_565 S
C1604 C1605 1.362 . S
C1605 H1595 0.930 . S
C1605 C1598 1.450 . S
C1605 C1604 1.362 . S
H1606 C1612 0.930 . S
H1607 C1615 0.930 . S
H1608 C1616 0.930 . S
H1609 C1617 0.930 . S
H1610 C1620 0.930 . S
H1611 C1621 0.930 . S
C1612 H1606 0.930 . S
C1612 C1613 1.355 . S
C1612 C1614 1.415 . S
C1613 C1612 1.355 . S
C1613 C1615 1.419 . S
C1614 C1612 1.415 . S
C1614 C1619 1.425 . S
C1614 C1621 1.409 . S
C1615 H1607 0.930 . S
C1615 C1613 1.419 . S
C1615 C1616 1.362 . S
C1616 H1608 0.930 . S
C1616 C1615 1.362 . S
C1616 C1619 1.409 . S
C1617 H1609 0.930 . S
C1617 C1618 1.355 . S
C1617 C1619 1.415 . S
C1618 C1617 1.355 . S
C1618 C1620 1.419 . S
C1619 C1614 1.425 . S
C1619 C1616 1.409 . S
C1619 C1617 1.415 . S
C1620 H1610 0.930 . S
C1620 C1618 1.419 . S
C1620 C1621 1.362 . S
C1621 H1611 0.930 . S
C1621 C1614 1.409 . S
C1621 C1620 1.362 . S
H1622 C1628 0.930 . S
H1623 C1631 0.930 . S
H1624 C1632 0.930 . S
H1625 C1633 0.930 . S
H1626 C1636 0.930 . S
H1627 C1637 0.930 . S
C1628 H1622 0.930 . S
C1628 C1629 1.355 . S
C1628 C1630 1.415 . S
C1629 C1628 1.355 . S
C1629 C1631 1.419 . S
C1630 C1628 1.415 . S
C1630 C1635 1.425 . S
C1630 C1637 1.409 . S
C1631 H1623 0.930 . S
C1631 C1629 1.419 . S
C1631 C1632 1.362 . S
C1632 H1624 0.930 . S
C1632 C1631 1.362 . S
C1632 C1635 1.409 . S
C1633 H1625 0.930 . S
C1633 C1634 1.355 . S
C1633 C1635 1.415 . S
C1634 C1633 1.355 . S
C1634 C1636 1.419 . S
C1635 C1630 1.425 . S
C1635 C1632 1.409 . S
C1635 C1633 1.415 . S
C1636 H1626 0.930 . S
C1636 C1634 1.419 . S
C1636 C1637 1.362 . S
C1637 H1627 0.930 . S
C1637 C1630 1.409 . S
C1637 C1636 1.362 . S
H1638 C1644 0.930 . S
H1639 C1647 0.930 . S
H1640 C1648 0.930 . S
H1641 C1649 0.930 . S
H1642 C1652 0.930 . S
H1643 C1653 0.930 . S
C1644 H1638 0.930 . S
C1644 C1645 1.355 . S
C1644 C1646 1.415 . S
C1645 C1644 1.355 . S
C1645 C1647 1.419 . S
C1646 C1644 1.415 . S
C1646 C1651 1.425 . S
C1646 C1653 1.409 . S
C1647 H1639 0.930 . S
C1647 C1645 1.419 . S
C1647 C1648 1.362 . S
C1648 H1640 0.930 . S
C1648 C1647 1.362 . S
C1648 C1651 1.409 . S
C1649 H1641 0.930 . S
C1649 C1650 1.355 . S
C1649 C1651 1.415 . S
C1650 C1649 1.355 . S
C1650 C1652 1.419 . S
C1651 C1646 1.425 . S
C1651 C1648 1.409 . S
C1651 C1649 1.415 . S
C1652 H1642 0.930 . S
C1652 C1650 1.419 . S
C1652 C1653 1.362 . S
C1653 H1643 0.930 . S
C1653 C1646 1.409 . S
C1653 C1652 1.362 . S
H1654 C1660 0.930 . S
H1655 C1663 0.930 . S
H1656 C1664 0.930 . S
H1657 C1665 0.930 . S
H1658 C1668 0.930 . S
H1659 C1669 0.930 . S
C1660 H1654 0.930 . S
C1660 C1661 1.355 . S
C1660 C1662 1.415 . S
C1661 C1660 1.355 . S
C1661 C1663 1.419 . S
C1662 C1660 1.415 . S
C1662 C1667 1.425 . S
C1662 C1669 1.409 . S
C1663 H1655 0.930 . S
C1663 C1661 1.419 . S
C1663 C1664 1.362 . S
C1664 H1656 0.930 . S
C1664 C1663 1.362 . S
C1664 C1667 1.409 . S
C1665 H1657 0.930 . S
C1665 C1666 1.355 . S
C1665 C1667 1.415 . S
C1666 C1665 1.355 . S
C1666 C1668 1.419 . S
C1667 C1662 1.425 . S
C1667 C1664 1.409 . S
C1667 C1665 1.415 . S
C1668 H1658 0.930 . S
C1668 C1666 1.419 . S
C1668 C1669 1.362 . S
C1669 H1659 0.930 . S
C1669 C1662 1.409 . S
C1669 C1668 1.362 . S
H1670 C1676 0.930 . S
H1671 C1679 0.930 . S
H1672 C1680 0.930 . S
H1673 C1681 0.930 . S
H1674 C1684 0.930 . S
H1675 C1685 0.930 . S
C1676 H1670 0.930 . S
C1676 C1677 1.355 . S
C1676 C1678 1.415 . S
C1677 C1676 1.355 . S
C1677 C1679 1.419 . S
C1678 C1676 1.415 . S
C1678 C1683 1.425 . S
C1678 C1685 1.409 . S
C1679 H1671 0.930 . S
C1679 C1677 1.419 . S
C1679 C1680 1.362 . S
C1680 H1672 0.930 . S
C1680 C1679 1.362 . S
C1680 C1683 1.409 . S
C1681 H1673 0.930 . S
C1681 C1682 1.355 . S
C1681 C1683 1.415 . S
C1682 C1681 1.355 . S
C1682 C1684 1.419 . S
C1683 C1678 1.425 . S
C1683 C1680 1.409 . S
C1683 C1681 1.415 . S
C1684 H1674 0.930 . S
C1684 C1682 1.419 . S
C1684 C1685 1.362 . S
C1685 H1675 0.930 . S
C1685 C1678 1.409 . S
C1685 C1684 1.362 . S
H1686 C1692 0.930 . S
H1687 C1695 0.930 . S
H1688 C1696 0.930 . S
H1689 C1697 0.930 . S
H1690 C1700 0.930 . S
H1691 C1701 0.930 . S
C1692 H1686 0.930 . S
C1692 C1693 1.355 . S
C1692 C1694 1.415 . S
C1693 C1692 1.355 . S
C1693 C1695 1.419 . S
C1694 C1692 1.415 . S
C1694 C1699 1.425 . S
C1694 C1701 1.409 . S
C1695 H1687 0.930 . S
C1695 C1693 1.419 . S
C1695 C1696 1.362 . S
C1696 H1688 0.930 . S
C1696 C1695 1.362 . S
C1696 C1699 1.409 . S
C1697 H1689 0.930 . S
C1697 C1698 1.355 . S
C1697 C1699 1.415 . S
C1698 C1697 1.355 . S
C1698 C1700 1.419 . S
C1699 C1694 1.425 . S
C1699 C1696 1.409 . S
C1699 C1697 1.415 . S
C1700 H1690 0.930 . S
C1700 C1698 1.419 . S
C1700 C1701 1.362 . S
C1701 H1691 0.930 . S
C1701 C1694 1.409 . S
C1701 C1700 1.362 . S
H1702 C1708 0.930 . S
H1703 C1711 0.930 . S
H1704 C1712 0.930 . S
H1705 C1713 0.930 . S
H1706 C1716 0.930 . S
H1707 C1717 0.930 . S
C1708 H1702 0.930 . S
C1708 C1709 1.355 . S
C1708 C1710 1.415 . S
C1709 C1708 1.355 . S
C1709 C1711 1.419 . S
C1710 C1708 1.415 . S
C1710 C1715 1.425 . S
C1710 C1717 1.409 . S
C1711 H1703 0.930 . S
C1711 C1709 1.419 . S
C1711 C1712 1.362 . S
C1712 H1704 0.930 . S
C1712 C1711 1.362 . S
C1712 C1715 1.409 . S
C1713 H1705 0.930 . S
C1713 C1714 1.355 . S
C1713 C1715 1.415 . S
C1714 C1713 1.355 . S
C1714 C1716 1.419 . S
C1715 C1710 1.425 . S
C1715 C1712 1.409 . S
C1715 C1713 1.415 . S
C1716 H1706 0.930 . S
C1716 C1714 1.419 . S
C1716 C1717 1.362 . S
C1717 H1707 0.930 . S
C1717 C1710 1.409 . S
C1717 C1716 1.362 . S
H1718 C1724 0.930 . S
H1719 C1727 0.930 . S
H1720 C1728 0.930 . S
H1721 C1729 0.930 . S
H1722 C1732 0.930 . S
H1723 C1733 0.930 . S
C1724 H1718 0.930 . S
C1724 C1725 1.355 . S
C1724 C1726 1.415 . S
C1725 C1724 1.355 . S
C1725 C1727 1.419 . S
C1726 C1724 1.415 . S
C1726 C1731 1.425 . S
C1726 C1733 1.409 . S
C1727 H1719 0.930 . S
C1727 C1725 1.419 . S
C1727 C1728 1.362 . S
C1728 H1720 0.930 . S
C1728 C1727 1.362 . S
C1728 C1731 1.409 . S
C1729 H1721 0.930 . S
C1729 C1730 1.355 . S
C1729 C1731 1.415 . S
C1730 C1729 1.355 . S
C1730 C1732 1.419 . S
C1731 C1726 1.425 . S
C1731 C1728 1.409 . S
C1731 C1729 1.415 . S
C1732 H1722 0.930 . S
C1732 C1730 1.419 . S
C1732 C1733 1.362 . S
C1733 H1723 0.930 . S
C1733 C1726 1.409 . S
C1733 C1732 1.362 . S
H1734 C1740 0.930 . S
H1735 C1743 0.930 . S
H1736 C1744 0.930 . S
H1737 C1745 0.930 . S
H1738 C1748 0.930 . S
H1739 C1749 0.930 . S
C1740 H1734 0.930 . S
C1740 C1741 1.355 . S
C1740 C1742 1.415 . S
C1741 C1740 1.355 . S
C1741 C1743 1.419 1_655 S
C1742 C1740 1.415 . S
C1742 C1747 1.425 1_655 S
C1742 C1749 1.409 . S
C1743 H1735 0.930 . S
C1743 C1741 1.419 1_455 S
C1743 C1744 1.362 . S
C1744 H1736 0.930 . S
C1744 C1743 1.362 . S
C1744 C1747 1.409 . S
C1745 H1737 0.930 . S
C1745 C1746 1.355 1_455 S
C1745 C1747 1.415 . S
C1746 C1745 1.355 1_655 S
C1746 C1748 1.419 . S
C1747 C1742 1.425 1_455 S
C1747 C1744 1.409 . S
C1747 C1745 1.415 . S
C1748 H1738 0.930 . S
C1748 C1746 1.419 . S
C1748 C1749 1.362 . S
C1749 H1739 0.930 . S
C1749 C1742 1.409 . S
C1749 C1748 1.362 . S
H1750 C1756 0.930 . S
H1751 C1759 0.930 . S
H1752 C1760 0.930 . S
H1753 C1761 0.930 . S
H1754 C1764 0.930 . S
H1755 C1765 0.930 . S
C1756 H1750 0.930 . S
C1756 C1757 1.355 . S
C1756 C1758 1.415 . S
C1757 C1756 1.355 . S
C1757 C1759 1.419 . S
C1758 C1756 1.415 . S
C1758 C1763 1.425 . S
C1758 C1765 1.409 . S
C1759 H1751 0.930 . S
C1759 C1757 1.419 . S
C1759 C1760 1.362 . S
C1760 H1752 0.930 . S
C1760 C1759 1.362 . S
C1760 C1763 1.409 . S
C1761 H1753 0.930 . S
C1761 C1762 1.355 . S
C1761 C1763 1.415 . S
C1762 C1761 1.355 . S
C1762 C1764 1.419 . S
C1763 C1758 1.425 . S
C1763 C1760 1.409 . S
C1763 C1761 1.415 . S
C1764 H1754 0.930 . S
C1764 C1762 1.419 . S
C1764 C1765 1.362 . S
C1765 H1755 0.930 . S
C1765 C1758 1.409 . S
C1765 C1764 1.362 . S
H1766 C1772 0.930 . S
H1767 C1775 0.930 . S
H1768 C1776 0.930 . S
H1769 C1777 0.930 . S
H1770 C1780 0.930 . S
H1771 C1781 0.930 . S
C1772 H1766 0.930 . S
C1772 C1773 1.355 1_565 S
C1772 C1774 1.415 . S
C1773 C1772 1.355 1_545 S
C1773 C1775 1.419 . S
C1774 C1772 1.415 . S
C1774 C1779 1.425 1_565 S
C1774 C1781 1.409 . S
C1775 H1767 0.930 . S
C1775 C1773 1.419 . S
C1775 C1776 1.362 . S
C1776 H1768 0.930 . S
C1776 C1775 1.362 . S
C1776 C1779 1.409 . S
C1777 H1769 0.930 . S
C1777 C1778 1.332 1_545 S
C1777 C1779 1.415 . S
C1778 C1777 1.332 1_565 S
C1778 C1780 1.474 . S
C1779 C1774 1.425 1_545 S
C1779 C1776 1.409 . S
C1779 C1777 1.415 . S
C1780 H1770 0.930 . S
C1780 C1778 1.474 . S
C1780 C1781 1.362 . S
C1781 H1771 0.930 . S
C1781 C1774 1.409 . S
C1781 C1780 1.362 . S
C637 C7 1.488 . S
C642 C458 1.454 1_655 S
C653 C23 1.574 . S
C658 C471 1.539 . S
C674 C500 1.473 1_545 S
C669 C37 1.550 . S
C685 C35 1.486 . S
C690 C513 1.514 . S
C701 C9 1.524 1_455 S
C706 C534 1.493 . S
C717 C21 1.527 . S
C722 C563 1.492 . S
C733 C49 1.486 . S
C738 C542 1.495 1_655 S
C754 C555 1.535 . S
C749 C65 1.548 . S
C770 C521 1.511 . S
C765 C79 1.533 1_565 S
C781 C77 1.525 . S
C786 C492 1.513 1_545 S
C802 C450 1.509 1_655 S
C797 C51 1.495 . S
C813 C63 1.500 . S
C818 C479 1.535 . S
C829 C91 1.543 . S
C834 C584 1.494 . S
C845 C107 1.591 . S
C850 C597 1.555 . S
C866 C626 1.523 . S
C861 C121 1.625 . S
C877 C119 1.576 . S
C882 C261 1.567 . S
C893 C93 1.632 . S
C898 C282 1.613 . S
C909 C105 1.531 . S
C914 C311 1.478 . S
C925 C133 1.526 . S
C930 C290 1.557 . S
C941 C149 1.566 . S
C946 C303 1.551 . S
C962 C269 1.541 . S
C957 C163 1.565 . S
C978 C618 1.572 . S
C973 C161 1.594 . S
C994 C576 1.493 . S
C989 C135 1.576 . S
C1010 C605 1.593 . S
C1005 C147 1.564 . S
C1021 C175 1.568 . S
C1026 C332 1.537 . S
C1037 C191 1.587 . S
C1042 C345 1.552 . S
C1053 C205 1.615 . S
C1058 C374 1.544 . S
C1069 C203 1.617 . S
C1074 C387 1.619 . S
C1090 C408 1.619 . S
C1085 C177 1.631 . S
C1106 C437 1.540 . S
C1101 C189 1.579 . S
C1122 C416 1.596 . S
C1117 C217 1.592 . S
C1138 C429 1.487 . S
C1133 C233 1.592 . S
C1149 C247 1.601 . S
C1154 C395 1.581 . S
C1170 C366 1.517 . S
C1165 C245 1.552 . S
C1181 C219 1.584 . S
C1186 C324 1.488 . S
C1202 C353 1.536 . S
C1197 C231 1.565 . S
C1218 C264 1.449 . S
C1213 C8 1.520 . S
C1229 C17 1.481 . S
C1234 C285 1.344 . S
C1250 C313 1.361 . S
C1245 C31 1.527 . S
C1266 C334 1.394 . S
C1261 C36 1.520 . S
C1282 C348 1.429 . S
C1277 C3 1.505 . S
C1298 C376 1.321 . S
C1293 C22 1.472 . S
C1309 C50 1.548 . S
C1314 C369 1.423 . S
C1325 C59 1.495 . S
C1330 C327 1.286 . S
C1341 C73 1.521 . S
C1346 C355 1.481 . S
C1357 C78 1.550 . S
C1362 C292 1.436 . S
C1378 C306 1.371 . S
C1373 C45 1.511 . S
C1389 C64 1.495 . S
C1394 C271 1.375 . S
C1410 C390 1.366 . S
C1405 C92 1.516 . S
C1421 C101 1.543 . S
C1426 C411 1.445 . S
C1437 C115 1.558 . S
C1442 C439 1.389 . S
C1458 C460 1.378 . S
C1453 C120 1.480 . S
C1469 C87 1.509 . S
C1474 C474 1.426 . S
C1485 C106 1.443 . S
C1490 C502 1.339 . S
C1501 C134 1.484 . S
C1506 C495 1.306 . S
C1517 C143 1.469 . S
C1522 C453 1.390 . S
C1538 C481 1.492 . S
C1533 C157 1.531 . S
C1549 C162 1.528 . S
C1554 C418 1.416 . S
C1565 C129 1.575 . S
C1570 C432 1.420 . S
C1586 C397 1.429 . S
C1581 C148 1.549 . S
C1602 C516 1.308 1_545 S
C1597 C176 1.465 . S
C1613 C185 1.467 . S
C1618 C537 1.395 1_655 S
C1629 C199 1.517 . S
C1634 C565 1.385 . S
C1650 C586 1.436 . S
C1645 C204 1.516 . S
C1666 C600 1.386 . S
C1661 C171 1.558 . S
C1677 C190 1.544 . S
C1682 C628 1.418 . S
C1693 C218 1.534 . S
C1698 C621 1.319 . S
C1709 C227 1.557 . S
C1714 C579 1.332 . S
C1730 C607 1.436 . S
C1725 C241 1.571 . S
C1746 C544 1.431 1_655 S
C1741 C246 1.480 . S
C1762 C558 1.349 . S
C1757 C213 1.522 . S
C1773 C232 1.452 . S
C1778 C523 1.327 . S
