# Generated by pormake.
# Topology zzz, (3,6)-cn, num edge types: 1
# Building blocks:
#     Node 0, Type 0, BuildingBlock: BETDIP_clean_linker_0, # of connection points: 3
#     Node 1, Type 0, BuildingBlock: BETDIP_clean_linker_0, # of connection points: 3
#     Node 2, Type 0, BuildingBlock: BETDIP_clean_linker_0, # of connection points: 3
#     Node 3, Type 0, BuildingBlock: BETDIP_clean_linker_0, # of connection points: 3
#     Node 4, Type 0, BuildingBlock: BETDIP_clean_linker_0, # of connection points: 3
#     Node 5, Type 0, BuildingBlock: BETDIP_clean_linker_0, # of connection points: 3
#     Node 6, Type 0, BuildingBlock: BETDIP_clean_linker_0, # of connection points: 3
#     Node 7, Type 0, BuildingBlock: BETDIP_clean_linker_0, # of connection points: 3
#     Node 8, Type 1, BuildingBlock: FUNLAD_clean_sbu_0, # of connection points: 6
#     Node 9, Type 1, BuildingBlock: FUNLAD_clean_sbu_0, # of connection points: 6
#     Node 10, Type 1, BuildingBlock: FUNLAD_clean_sbu_0, # of connection points: 6
#     Node 11, Type 1, BuildingBlock: FUNLAD_clean_sbu_0, # of connection points: 6
#     Edge 12, Type (0, 1), BuildingBlock: TEMPAE_clean_linker_10, # of connection points: 2
#     Edge 13, Type (0, 1), BuildingBlock: TEMPAE_clean_linker_10, # of connection points: 2
#     Edge 14, Type (0, 1), BuildingBlock: TEMPAE_clean_linker_10, # of connection points: 2
#     Edge 15, Type (0, 1), BuildingBlock: TEMPAE_clean_linker_10, # of connection points: 2
#     Edge 16, Type (0, 1), BuildingBlock: TEMPAE_clean_linker_10, # of connection points: 2
#     Edge 17, Type (0, 1), BuildingBlock: TEMPAE_clean_linker_10, # of connection points: 2
#     Edge 18, Type (0, 1), BuildingBlock: TEMPAE_clean_linker_10, # of connection points: 2
#     Edge 19, Type (0, 1), BuildingBlock: TEMPAE_clean_linker_10, # of connection points: 2
#     Edge 20, Type (0, 1), BuildingBlock: TEMPAE_clean_linker_10, # of connection points: 2
#     Edge 21, Type (0, 1), BuildingBlock: TEMPAE_clean_linker_10, # of connection points: 2
#     Edge 22, Type (0, 1), BuildingBlock: TEMPAE_clean_linker_10, # of connection points: 2
#     Edge 23, Type (0, 1), BuildingBlock: TEMPAE_clean_linker_10, # of connection points: 2
#     Edge 24, Type (0, 1), BuildingBlock: TEMPAE_clean_linker_10, # of connection points: 2
#     Edge 25, Type (0, 1), BuildingBlock: TEMPAE_clean_linker_10, # of connection points: 2
#     Edge 26, Type (0, 1), BuildingBlock: TEMPAE_clean_linker_10, # of connection points: 2
#     Edge 27, Type (0, 1), BuildingBlock: TEMPAE_clean_linker_10, # of connection points: 2
#     Edge 28, Type (0, 1), BuildingBlock: TEMPAE_clean_linker_10, # of connection points: 2
#     Edge 29, Type (0, 1), BuildingBlock: TEMPAE_clean_linker_10, # of connection points: 2
#     Edge 30, Type (0, 1), BuildingBlock: TEMPAE_clean_linker_10, # of connection points: 2
#     Edge 31, Type (0, 1), BuildingBlock: TEMPAE_clean_linker_10, # of connection points: 2
#     Edge 32, Type (0, 1), BuildingBlock: TEMPAE_clean_linker_10, # of connection points: 2
#     Edge 33, Type (0, 1), BuildingBlock: TEMPAE_clean_linker_10, # of connection points: 2
#     Edge 34, Type (0, 1), BuildingBlock: TEMPAE_clean_linker_10, # of connection points: 2
#     Edge 35, Type (0, 1), BuildingBlock: TEMPAE_clean_linker_10, # of connection points: 2
# Relax obj value: 0.118
# Max RMSD: 0.175
# Mean RMSD: 0.091
data_MOF--net-zzz--node1-FUNLAD_clean_sbu_0--node2-BETDIP_clean_linker_0--edge1-TEMPAE_clean_linker_10
_symmetry_space_group_name_H-M    P1
_symmetry_Int_Tables_number       1
_symmetry_cell_setting            triclinic
loop_
_symmetry_equiv_pos_as_xyz
'x, y, z'
_cell_length_a     52.237175
_cell_length_b     58.027898
_cell_length_c     17.437695
_cell_angle_alpha  85.342927
_cell_angle_beta   84.770659
_cell_angle_gamma 89.962357
loop_
_atom_site_label
_atom_site_type_symbol
_atom_site_fract_x
_atom_site_fract_y
_atom_site_fract_z
_atom_type_partial_charge
H0 H 0.79279 0.49133 0.36565 0.0
H1 H 0.81687 0.46432 0.14891 0.0
H2 H 0.86477 0.45595 0.33719 0.0
H3 H 0.79527 0.50089 0.11603 0.0
C4 C 0.77754 0.49484 0.14907 0.0
C5 C 0.80624 0.48125 0.33126 0.0
C6 C 0.82935 0.4739 0.35995 0.0
C7 C 0.80141 0.47716 0.25582 0.0
C8 C 0.8201 0.46611 0.20856 0.0
C9 C 0.84338 0.4587 0.23671 0.0
C10 C 0.84695 0.46143 0.31425 0.0
N11 N 0.77833 0.48543 0.22661 0.0
H12 H 0.9821 0.76629 0.28123 0.0
H13 H 0.99398 0.78035 0.0334 0.0
H14 H 0.00886 0.83316 0.18147 0.0
H15 H 0.95732 0.75362 0.05081 0.0
C16 C 0.968 0.74076 0.08356 0.0
C17 C 0.98825 0.77784 0.23097 0.0
C18 C 0.99609 0.80051 0.2401 0.0
C19 C 0.98757 0.77034 0.15652 0.0
C20 C 0.99465 0.78574 0.09122 0.0
C21 C 1.00269 0.80822 0.10073 0.0
C22 C 1.00367 0.81536 0.17479 0.0
N23 N 0.98012 0.74723 0.14831 0.0
H24 H 0.73999 0.99121 0.27104 0.0
H25 H 0.73624 0.01548 0.03142 0.0
H26 H 0.66727 0.00885 0.18567 0.0
H27 H 0.76874 0.97823 0.04369 0.0
C28 C 0.78024 0.99005 0.07187 0.0
C29 C 0.72894 0.99755 0.22418 0.0
C30 C 0.70198 0.99904 0.23655 0.0
C31 C 0.74142 0.00315 0.14964 0.0
C32 C 0.72681 0.01102 0.08865 0.0
C33 C 0.70014 0.01379 0.10228 0.0
C34 C 0.68804 0.00757 0.17583 0.0
N35 N 0.7686 0.00102 0.13632 0.0
H36 H 0.54034 0.70262 0.2572 0.0
H37 H 0.50324 0.69572 0.04893 0.0
H38 H 0.51537 0.63586 0.20247 0.0
H39 H 0.53759 0.72438 0.00951 0.0
C40 C 0.53109 0.73568 0.05403 0.0
C41 C 0.53099 0.69199 0.21957 0.0
C42 C 0.5289 0.66802 0.23731 0.0
C43 C 0.52224 0.70204 0.15075 0.0
C44 C 0.51034 0.68807 0.10158 0.0
C45 C 0.50725 0.66423 0.12096 0.0
C46 C 0.51675 0.65442 0.18856 0.0
N47 N 0.5257 0.72615 0.13149 0.0
H48 H 0.24102 0.49751 0.07606 0.0
H49 H 0.23398 0.53983 0.26894 0.0
H50 H 0.16743 0.52423 0.15469 0.0
H51 H 0.27898 0.55029 0.19778 0.0
C52 C 0.28276 0.53202 0.21049 0.0
C53 C 0.22943 0.50802 0.11427 0.0
C54 C 0.20296 0.51014 0.10787 0.0
C55 C 0.24083 0.51912 0.17135 0.0
C56 C 0.22552 0.53214 0.22253 0.0
C57 C 0.199 0.53413 0.21669 0.0
C58 C 0.18803 0.52332 0.15854 0.0
N59 N 0.26717 0.51531 0.1815 0.0
H60 H 0.07933 0.22999 0.16326 0.0
H61 H 0.03968 0.2179 0.39136 0.0
H62 H 0.07281 0.16125 0.27586 0.0
H63 H 0.01599 0.24846 0.33986 0.0
C64 C 0.03228 0.25981 0.32082 0.0
C65 C 0.07322 0.21837 0.21338 0.0
C66 C 0.0786 0.19464 0.21325 0.0
C67 C 0.05907 0.22695 0.27735 0.0
C68 C 0.05038 0.2116 0.34127 0.0
C69 C 0.05561 0.18795 0.34116 0.0
C70 C 0.06992 0.17974 0.27756 0.0
N71 N 0.05383 0.251 0.27686 0.0
H72 H 0.27819 0.01067 0.19313 0.0
H73 H 0.28456 0.9789 0.42372 0.0
H74 H 0.35187 0.99007 0.26549 0.0
H75 H 0.24472 0.96434 0.40031 0.0
C76 C 0.23599 0.98054 0.38097 0.0
C77 C 0.28968 0.00281 0.23673 0.0
C78 C 0.31658 0.00131 0.22103 0.0
C79 C 0.27772 0.99421 0.3095 0.0
C80 C 0.29312 0.98461 0.36645 0.0
C81 C 0.31979 0.98274 0.35018 0.0
C82 C 0.33115 0.991 0.27757 0.0
N83 N 0.25049 0.99607 0.32578 0.0
H84 H 0.50298 0.29483 0.17295 0.0
H85 H 0.54368 0.30267 0.3743 0.0
H86 H 0.52485 0.36232 0.22976 0.0
H87 H 0.55679 0.26662 0.35303 0.0
C88 C 0.53935 0.25851 0.33829 0.0
C89 C 0.51234 0.30568 0.20989 0.0
C90 C 0.51247 0.3298 0.19441 0.0
C91 C 0.52402 0.29557 0.27394 0.0
C92 C 0.53561 0.30993 0.32276 0.0
C93 C 0.53638 0.33397 0.30607 0.0
C94 C 0.52481 0.34367 0.24193 0.0
N95 N 0.52277 0.27113 0.29011 0.0
C96 C 0.01966 0.9615 0.80969 0.0
N97 N 0.98519 0.9754 0.60855 0.0
C98 C 0.96769 0.95938 0.64201 0.0
C99 C 0.96285 0.93958 0.60566 0.0
C100 C 0.97639 0.93598 0.53461 0.0
C101 C 0.99239 0.9538 0.4976 0.0
C102 C 0.99652 0.97356 0.53589 0.0
Zn103 Zn 1.00095 0.9957 0.6831 0.0
C104 C 0.96166 0.00456 0.81567 0.0
N105 N 0.03418 0.02988 0.8568 0.0
C106 C 0.05965 0.02854 0.86777 0.0
C107 C 0.01929 0.04702 0.88548 0.0
C108 C 0.03002 0.06406 0.92456 0.0
C109 C 0.05644 0.06382 0.93293 0.0
C110 C 0.07132 0.04561 0.90526 0.0
Zn111 Zn 0.01842 0.01034 0.78023 0.0
O112 O 0.00839 0.96466 0.74833 0.0
C113 C 0.05767 0.00152 0.64712 0.0
O114 O 0.02738 0.97887 0.84142 0.0
H115 H 0.99931 0.0483 0.8743 0.0
H116 H 0.95928 0.96062 0.70039 0.0
H117 H 0.07123 0.01489 0.8442 0.0
O118 O 0.03795 0.99349 0.62059 0.0
O119 O 0.055 0.01004 0.71232 0.0
H120 H 0.01051 0.98632 0.51035 0.0
O121 O 0.00919 0.04161 0.71746 0.0
O122 O 0.99426 0.02682 0.61816 0.0
O123 O 0.98164 0.00993 0.847 0.0
O124 O 0.96411 0.99872 0.74672 0.0
C125 C 1.00004 0.04442 0.65225 0.0
H126 H 0.95 0.92646 0.63548 0.0
H127 H 1.00323 0.9517 0.44269 0.0
H128 H 0.01801 0.07803 0.94435 0.0
H129 H 0.09178 0.04489 0.91108 0.0
C130 C 0.47253 0.98634 0.63772 0.0
N131 N 0.506 0.0512 0.65238 0.0
C132 C 0.50564 0.05434 0.5743 0.0
C133 C 0.50627 0.07658 0.53709 0.0
C134 C 0.50755 0.09588 0.58038 0.0
C135 C 0.50734 0.09211 0.66116 0.0
C136 C 0.50649 0.06954 0.69611 0.0
Zn137 Zn 0.50781 0.01817 0.70265 0.0
C138 C 0.46845 0.00863 0.83762 0.0
N139 N 0.51257 0.9489 0.8043 0.0
C140 C 0.51235 0.93116 0.75786 0.0
C141 C 0.51433 0.94486 0.88166 0.0
C142 C 0.51613 0.92225 0.91499 0.0
C143 C 0.51567 0.90367 0.86841 0.0
C144 C 0.51367 0.90831 0.78897 0.0
Zn145 Zn 0.51034 0.98209 0.75578 0.0
O146 O 0.48026 0.00721 0.63227 0.0
C147 C 0.54966 0.99173 0.62091 0.0
O148 O 0.48243 0.9716 0.68399 0.0
H149 H 0.51434 0.95919 0.91763 0.0
H150 H 0.50534 0.03954 0.54049 0.0
H151 H 0.51119 0.93474 0.69645 0.0
O152 O 0.53824 0.01109 0.61892 0.0
O153 O 0.54161 0.9757 0.67153 0.0
H154 H 0.50681 0.06666 0.75808 0.0
O155 O 0.53766 0.99304 0.8267 0.0
O156 O 0.53612 0.02859 0.77361 0.0
O157 O 0.47961 0.98911 0.83925 0.0
O158 O 0.47678 0.02471 0.78746 0.0
C159 C 0.54581 0.01378 0.82025 0.0
H160 H 0.50596 0.0786 0.4749 0.0
H161 H 0.50863 0.1064 0.69691 0.0
H162 H 0.51751 0.91929 0.97661 0.0
H163 H 0.51354 0.8944 0.75113 0.0
C164 C 0.53898 0.46739 0.61483 0.0
N165 N 0.4672 0.49837 0.64196 0.0
C166 C 0.47017 0.50164 0.56351 0.0
C167 C 0.44895 0.50238 0.52082 0.0
C168 C 0.42414 0.49921 0.5585 0.0
C169 C 0.42153 0.49558 0.63972 0.0
C170 C 0.44346 0.4953 0.68059 0.0
Zn171 Zn 0.50051 0.49837 0.69561 0.0
C172 C 0.50412 0.4617 0.81868 0.0
N173 N 0.57351 0.499 0.78663 0.0
C174 C 0.58426 0.4785 0.8093 0.0
C175 C 0.58419 0.51947 0.80035 0.0
C176 C 0.60645 0.51982 0.83893 0.0
C177 C 0.6177 0.49891 0.86454 0.0
C178 C 0.60634 0.47805 0.84882 0.0
Zn179 Zn 0.5397 0.49896 0.73628 0.0
O180 O 0.51607 0.4748 0.61868 0.0
C181 C 0.53606 0.53573 0.6137 0.0
O182 O 0.55466 0.47493 0.6586 0.0
H183 H 0.57528 0.53558 0.78216 0.0
H184 H 0.48915 0.50385 0.53347 0.0
H185 H 0.57545 0.46242 0.79798 0.0
O186 O 0.51381 0.52668 0.61863 0.0
O187 O 0.55259 0.52726 0.65693 0.0
H188 H 0.44153 0.49263 0.74296 0.0
O189 O 0.52427 0.52256 0.81308 0.0
O190 O 0.48549 0.52233 0.77372 0.0
O191 O 0.52622 0.47109 0.81498 0.0
O192 O 0.48778 0.46978 0.77395 0.0
C193 C 0.50131 0.52994 0.81712 0.0
H194 H 0.45207 0.50582 0.45871 0.0
H195 H 0.40283 0.49284 0.67136 0.0
H196 H 0.61472 0.53634 0.8485 0.0
H197 H 0.61405 0.46149 0.86832 0.0
C198 C 0.05132 0.52165 0.59358 0.0
N199 N 0.0269 0.45274 0.63589 0.0
C200 C 0.02751 0.45362 0.55753 0.0
C201 C 0.03022 0.43346 0.51933 0.0
C202 C 0.03185 0.412 0.56201 0.0
C203 C 0.03139 0.41162 0.64294 0.0
C204 C 0.02903 0.43231 0.67881 0.0
Zn205 Zn 0.02142 0.48301 0.6873 0.0
C206 C 0.05963 0.492 0.79456 0.0
N207 N 0.00896 0.548 0.78165 0.0
C208 C 0.00554 0.56786 0.73683 0.0
C209 C 0.00814 0.54784 0.85993 0.0
C210 C 1.00342 0.56819 0.89617 0.0
C211 C 0.99978 0.58892 0.85135 0.0
C212 C 1.00103 0.58866 0.77066 0.0
Zn213 Zn 0.01484 0.51765 0.73153 0.0
O214 O 0.04626 0.50015 0.59889 0.0
C215 C 0.97631 0.50849 0.62632 0.0
O216 O 0.04046 0.53427 0.64295 0.0
H217 H 0.01106 0.53188 0.89444 0.0
H218 H 0.02561 0.46999 0.52436 0.0
H219 H 0.00613 0.56755 0.67477 0.0
O220 O 0.98939 0.49007 0.62315 0.0
O221 O 0.98302 0.52425 0.66694 0.0
H222 H 0.02846 0.432 0.74104 0.0
O223 O 0.98936 0.50081 0.81802 0.0
O224 O 0.99621 0.46629 0.77741 0.0
O225 O 0.04639 0.51037 0.79703 0.0
O226 O 0.05343 0.47643 0.75225 0.0
C227 C 0.98452 0.47927 0.82418 0.0
H228 H 0.03095 0.43473 0.45687 0.0
H229 H 0.03223 0.3955 0.67848 0.0
H230 H 1.00286 0.56776 0.95852 0.0
H231 H 0.9981 0.60429 0.73423 0.0
C232 C 0.19702 0.96873 0.46786 0.0
C233 C 0.20938 0.98529 0.41399 0.0
C234 C 0.17223 0.97242 0.50295 0.0
C235 C 0.15926 0.99325 0.48388 0.0
C236 C 0.17156 0.01004 0.42896 0.0
C237 C 0.19651 0.00588 0.39465 0.0
C238 C 0.16 0.95401 0.56103 0.0
C239 C 0.15841 0.03245 0.40692 0.0
C240 C 0.08644 0.99115 0.53132 0.0
C241 C 0.08349 0.00066 0.60315 0.0
C242 C 0.11083 0.98939 0.49063 0.0
C243 C 0.13296 0.99728 0.52231 0.0
C244 C 0.13004 0.00743 0.59384 0.0
C245 C 0.10542 0.00899 0.63328 0.0
C246 C 0.11298 0.97848 0.41463 0.0
C247 C 0.15304 0.01605 0.6299 0.0
H248 H 0.2069 0.95281 0.48313 0.0
H249 H 0.20595 0.01879 0.3532 0.0
H250 H 0.15564 0.96122 0.61775 0.0
H251 H 0.14151 0.94823 0.54208 0.0
H252 H 0.17254 0.9387 0.56907 0.0
H253 H 0.17031 0.04359 0.36256 0.0
H254 H 0.13978 0.02885 0.38422 0.0
H255 H 0.15412 0.04217 0.45877 0.0
H256 H 0.06968 0.98475 0.50718 0.0
H257 H 0.10343 0.01646 0.6885 0.0
H258 H 0.12383 0.96207 0.42038 0.0
H259 H 0.12385 0.99004 0.36927 0.0
H260 H 0.09387 0.97469 0.39514 0.0
H261 H 0.16567 0.0013 0.64498 0.0
H262 H 0.14744 0.02487 0.68305 0.0
H263 H 0.16453 0.02826 0.58809 0.0
C264 C 0.54899 0.224 0.42413 0.0
C265 C 0.53339 0.23453 0.37044 0.0
C266 C 0.54381 0.20148 0.45741 0.0
C267 C 0.52261 0.1891 0.43588 0.0
C268 C 0.50682 0.19962 0.38124 0.0
C269 C 0.51234 0.2223 0.34931 0.0
C270 C 0.56101 0.19096 0.51581 0.0
C271 C 0.4842 0.18687 0.35637 0.0
C272 C 0.5258 0.12379 0.47158 0.0
C273 C 0.51016 0.11967 0.54126 0.0
C274 C 0.52936 0.1462 0.43547 0.0
C275 C 0.51726 0.16507 0.47021 0.0
C276 C 0.50114 0.16106 0.53984 0.0
C277 C 0.49771 0.13841 0.57435 0.0
C278 C 0.54664 0.14975 0.36112 0.0
C279 C 0.48798 0.18075 0.57879 0.0
H280 H 0.56522 0.2335 0.44064 0.0
H281 H 0.50023 0.23037 0.30771 0.0
H282 H 0.54947 0.18592 0.57122 0.0
H283 H 0.57 0.17502 0.495 0.0
H284 H 0.5765 0.20302 0.52703 0.0
H285 H 0.47383 0.19746 0.31329 0.0
H286 H 0.49084 0.17076 0.33087 0.0
H287 H 0.47049 0.18174 0.40728 0.0
H288 H 0.53585 0.10954 0.44608 0.0
H289 H 0.48529 0.13539 0.62748 0.0
H290 H 0.56378 0.16006 0.3706 0.0
H291 H 0.53643 0.15964 0.31617 0.0
H292 H 0.55323 0.13314 0.33887 0.0
H293 H 0.50262 0.19272 0.59582 0.0
H294 H 0.47532 0.17465 0.63114 0.0
H295 H 0.47628 0.19081 0.53805 0.0
C296 C 0.32273 0.54085 0.26948 0.0
C297 C 0.30317 0.5251 0.26072 0.0
C298 C 0.34181 0.5352 0.31932 0.0
C299 C 0.34077 0.51351 0.36317 0.0
C300 C 0.32084 0.4976 0.35506 0.0
C301 C 0.30242 0.50348 0.30306 0.0
C302 C 0.36311 0.55241 0.32488 0.0
C303 C 0.31873 0.47458 0.40231 0.0
C304 C 0.40312 0.49225 0.43849 0.0
C305 C 0.40141 0.50045 0.51243 0.0
C306 C 0.38332 0.49597 0.38991 0.0
C307 C 0.3608 0.50751 0.41668 0.0
C308 C 0.35819 0.51454 0.49289 0.0
C309 C 0.37863 0.51116 0.53959 0.0
C310 C 0.387 0.48845 0.30871 0.0
C311 C 0.33417 0.52639 0.52413 0.0
H312 H 0.32319 0.55759 0.2368 0.0
H313 H 0.28702 0.49141 0.29726 0.0
H314 H 0.36266 0.55764 0.38475 0.0
H315 H 0.38206 0.54432 0.31115 0.0
H316 H 0.36158 0.56818 0.285 0.0
H317 H 0.30186 0.46431 0.38998 0.0
H318 H 0.33636 0.46433 0.39044 0.0
H319 H 0.31706 0.47736 0.46478 0.0
H320 H 0.42027 0.48332 0.41762 0.0
H321 H 0.37707 0.5177 0.59627 0.0
H322 H 0.38711 0.50386 0.26655 0.0
H323 H 0.37081 0.47721 0.29765 0.0
H324 H 0.40526 0.47894 0.29774 0.0
H325 H 0.33282 0.54379 0.49338 0.0
H326 H 0.33395 0.52842 0.587 0.0
H327 H 0.31683 0.51645 0.5139 0.0
C328 C 0.01413 0.28826 0.40898 0.0
C329 C 0.03278 0.28292 0.35036 0.0
C330 C 0.01461 0.30949 0.44182 0.0
C331 C 0.03399 0.32592 0.41434 0.0
C332 C 0.05261 0.32081 0.35392 0.0
C333 C 0.05191 0.29923 0.32294 0.0
C334 C 0.99459 0.31417 0.50673 0.0
C335 C 0.07327 0.3381 0.32226 0.0
C336 C 0.01934 0.38776 0.45826 0.0
C337 C 0.03329 0.39017 0.52237 0.0
C338 C 0.02008 0.36722 0.421 0.0
C339 C 0.0347 0.3484 0.44937 0.0
C340 C 0.04896 0.35069 0.51362 0.0
C341 C 0.04824 0.3716 0.54896 0.0
C342 C 0.00479 0.3655 0.3522 0.0
C343 C 0.06456 0.33089 0.54599 0.0
H344 H 0.9994 0.27557 0.4303 0.0
H345 H 0.0663 0.29517 0.27732 0.0
H346 H 1.00412 0.3176 0.55904 0.0
H347 H 0.9835 0.32983 0.49038 0.0
H348 H 0.98094 0.29948 0.52169 0.0
H349 H 0.08588 0.3317 0.27384 0.0
H350 H 0.06437 0.35454 0.30152 0.0
H351 H 0.08535 0.34209 0.36867 0.0
H352 H 0.00734 0.40179 0.43794 0.0
H353 H 0.05943 0.37338 0.59752 0.0
H354 H 0.98927 0.3524 0.36654 0.0
H355 H 0.01731 0.3597 0.30267 0.0
H356 H 0.99594 0.38223 0.33388 0.0
H357 H 0.05174 0.31594 0.56589 0.0
H358 H 0.07499 0.33562 0.59529 0.0
H359 H 0.07876 0.32514 0.50035 0.0
C360 C 0.82123 0.01346 0.04992 0.0
C361 C 0.808 0.99268 0.04538 0.0
C362 C 0.84676 0.01662 0.01653 0.0
C363 C 0.85957 0.99829 0.98001 0.0
C364 C 0.84652 0.97694 0.97859 0.0
C365 C 0.82079 0.97458 0.00984 0.0
C366 C 0.8596 0.03987 0.01731 0.0
C367 C 0.85956 0.95669 0.94259 0.0
C368 C 0.91388 0.00894 0.81949 0.0
C369 C 0.9358 0.00452 0.859 0.0
C370 C 0.88911 0.008 0.85881 0.0
C371 C 0.88601 0.00167 0.93939 0.0
C372 C 0.90813 0.99732 0.9797 0.0
C373 C 0.93277 0.99917 0.93924 0.0
C374 C 0.86621 0.01344 0.81372 0.0
C375 C 0.90575 0.98982 0.06499 0.0
H376 H 0.81127 0.0276 0.07645 0.0
H377 H 0.81057 0.9585 0.00635 0.0
H378 H 0.87831 0.03788 0.04239 0.0
H379 H 0.86363 0.04766 0.95715 0.0
H380 H 0.84753 0.05201 0.05078 0.0
H381 H 0.84769 0.94067 0.95289 0.0
H382 H 0.86343 0.96074 0.87934 0.0
H383 H 0.87835 0.95333 0.9662 0.0
H384 H 0.91611 0.01326 0.75756 0.0
H385 H 0.94964 0.99554 0.96997 0.0
H386 H 0.85382 0.0264 0.84213 0.0
H387 H 0.85442 0.9976 0.81265 0.0
H388 H 0.87197 0.0202 0.75317 0.0
H389 H 0.89424 0.00249 0.09759 0.0
H390 H 0.92477 0.98794 0.08851 0.0
H391 H 0.89543 0.97299 0.07528 0.0
C392 C 0.51624 0.77552 0.08225 0.0
C393 C 0.52963 0.76081 0.033 0.0
C394 C 0.51374 0.79917 0.05969 0.0
C395 C 0.52529 0.80827 0.98685 0.0
C396 C 0.53934 0.79352 0.93788 0.0
C397 C 0.54109 0.76991 0.96127 0.0
C398 C 0.49824 0.81429 0.11286 0.0
C399 C 0.55228 0.80261 0.86035 0.0
C400 C 0.49975 0.86282 0.88594 0.0
C401 C 0.51743 0.87951 0.90208 0.0
C402 C 0.50165 0.8397 0.91516 0.0
C403 C 0.52201 0.83304 0.96039 0.0
C404 C 0.53979 0.84989 0.97748 0.0
C405 C 0.53714 0.873 0.94864 0.0
C406 C 0.48205 0.82233 0.89676 0.0
C407 C 0.56202 0.8434 0.02432 0.0
H408 H 0.50716 0.76848 0.13755 0.0
H409 H 0.55147 0.7585 0.92329 0.0
H410 H 0.5101 0.82909 0.12576 0.0
H411 H 0.4816 0.82154 0.08396 0.0
H412 H 0.49096 0.80466 0.16823 0.0
H413 H 0.56364 0.78911 0.8311 0.0
H414 H 0.53762 0.80927 0.82217 0.0
H415 H 0.56527 0.81726 0.86749 0.0
H416 H 0.48435 0.86792 0.85055 0.0
H417 H 0.55094 0.88589 0.9606 0.0
H418 H 0.47322 0.81304 0.95085 0.0
H419 H 0.49162 0.80921 0.86131 0.0
H420 H 0.46654 0.83055 0.86473 0.0
H421 H 0.55485 0.8346 0.08104 0.0
H422 H 0.5737 0.85867 0.03441 0.0
H423 H 0.57466 0.83103 0.99384 0.0
C424 C 0.75277 0.50947 0.04062 0.0
C425 C 0.75322 0.49667 0.11206 0.0
C426 C 0.7304 0.51067 0.00176 0.0
C427 C 0.70811 0.49843 0.03469 0.0
C428 C 0.70839 0.48563 0.10732 0.0
C429 C 0.73095 0.48502 0.1455 0.0
C430 C 0.73073 0.52478 0.92496 0.0
C431 C 0.68508 0.47211 0.14372 0.0
C432 C 0.64371 0.51513 0.96217 0.0
C433 C 0.6409 0.49882 0.90822 0.0
C434 C 0.6655 0.51525 0.00366 0.0
C435 C 0.68477 0.49844 0.99185 0.0
C436 C 0.68199 0.48179 0.93816 0.0
C437 C 0.66021 0.4823 0.89657 0.0
C438 C 0.66794 0.53341 0.05993 0.0
C439 C 0.70207 0.46347 0.92439 0.0
H440 H 0.77003 0.51847 0.01489 0.0
H441 H 0.73129 0.47496 0.20053 0.0
H442 H 0.72751 0.51331 0.87881 0.0
H443 H 0.7149 0.53753 0.9266 0.0
H444 H 0.74922 0.53418 0.90917 0.0
H445 H 0.68824 0.4635 0.20133 0.0
H446 H 0.66827 0.4837 0.15024 0.0
H447 H 0.68013 0.4587 0.10553 0.0
H448 H 0.62873 0.52771 0.97271 0.0
H449 H 0.65847 0.46985 0.85422 0.0
H450 H 0.68583 0.54364 0.04366 0.0
H451 H 0.66936 0.52503 0.11884 0.0
H452 H 0.65137 0.54543 0.06182 0.0
H453 H 0.72067 0.47174 0.90176 0.0
H454 H 0.69656 0.45127 0.8827 0.0
H455 H 0.70518 0.45346 0.97969 0.0
C456 C 0.9885 0.70165 0.08742 0.0
C457 C 0.97097 0.71734 0.05661 0.0
C458 C 0.99281 0.68017 0.05702 0.0
C459 C 0.97906 0.67424 0.99503 0.0
C460 C 0.96077 0.68976 0.96542 0.0
C461 C 0.95708 0.71121 0.99631 0.0
C462 C 0.01262 0.66414 0.08964 0.0
C463 C 0.94552 0.68393 0.89997 0.0
C464 C 0.00805 0.63097 0.86059 0.0
C465 C 0.9946 0.61069 0.88864 0.0
C466 C 1.00336 0.65172 0.89529 0.0
C467 C 0.98455 0.65222 0.95896 0.0
C468 C 0.97086 0.63179 0.98743 0.0
C469 C 0.97617 0.61122 0.95215 0.0
C470 C 0.01856 0.6731 0.86387 0.0
C471 C 0.95044 0.63174 0.05455 0.0
H472 H 0.9994 0.70637 0.13385 0.0
H473 H 0.94352 0.72338 0.97258 0.0
H474 H 1.0039 0.64693 0.10821 0.0
H475 H 0.02842 0.66154 0.04422 0.0
H476 H 0.02096 0.67095 0.13971 0.0
H477 H 0.93096 0.69729 0.88675 0.0
H478 H 0.95869 0.68226 0.84712 0.0
H479 H 0.93556 0.66704 0.91449 0.0
H480 H 0.02251 0.63052 0.81202 0.0
H481 H 0.96557 0.59558 0.97339 0.0
H482 H 0.02881 0.67996 0.91028 0.0
H483 H 0.00536 0.68681 0.84363 0.0
H484 H 0.03287 0.66968 0.81507 0.0
H485 H 0.95881 0.63754 0.10601 0.0
H486 H 0.94162 0.61437 0.06991 0.0
H487 H 0.93506 0.64413 0.04019 0.0
C488 C 0.05983 0.15341 0.43321 0.0
C489 C 0.04443 0.17109 0.40331 0.0
C490 C 0.04889 0.13457 0.4799 0.0
C491 C 0.02188 0.13346 0.49725 0.0
C492 C 0.00639 0.15202 0.47148 0.0
C493 C 0.01789 0.17069 0.42454 0.0
C494 C 0.06615 0.11525 0.50702 0.0
C495 C 0.97758 0.15153 0.48961 0.0
C496 C 0.99922 0.0714 0.53338 0.0
C497 C 0.99945 0.068 0.61374 0.0
C498 C 0.00461 0.09326 0.49476 0.0
C499 C 0.01013 0.11205 0.53782 0.0
C500 C 0.00801 0.10915 0.61941 0.0
C501 C 1.00276 0.08711 0.65644 0.0
C502 C 0.00655 0.09575 0.40754 0.0
C503 C 0.01339 0.12882 0.6674 0.0
H504 H 0.08039 0.15387 0.41721 0.0
H505 H 0.00595 0.18429 0.40085 0.0
H506 H 0.06274 0.11149 0.57051 0.0
H507 H 0.06164 0.09925 0.47997 0.0
H508 H 0.08685 0.11944 0.4922 0.0
H509 H 0.96883 0.16862 0.47533 0.0
H510 H 0.96905 0.13862 0.45565 0.0
H511 H 0.9724 0.14619 0.55162 0.0
H512 H 0.99658 0.05672 0.50016 0.0
H513 H 1.0026 0.08465 0.71881 0.0
H514 H 0.02704 0.09789 0.38484 0.0
H515 H 0.99621 0.11138 0.38654 0.0
H516 H 0.9986 0.08044 0.38328 0.0
H517 H 0.0344 0.13215 0.66307 0.0
H518 H 0.0066 0.12485 0.72932 0.0
H519 H 1.00407 0.14493 0.6457 0.0
C520 C 0.35678 0.95897 0.38978 0.0
C521 C 0.33689 0.97427 0.40943 0.0
C522 C 0.37797 0.95637 0.43341 0.0
C523 C 0.37909 0.96924 0.49851 0.0
C524 C 0.35764 0.98255 0.52373 0.0
C525 C 0.33673 0.98497 0.47858 0.0
C526 C 0.40029 0.94185 0.40478 0.0
C527 C 0.35789 0.99614 0.59387 0.0
C528 C 0.43446 0.96123 0.62543 0.0
C529 C 0.45032 0.98009 0.59682 0.0
C530 C 0.41128 0.95717 0.59356 0.0
C531 C 0.40408 0.97216 0.53115 0.0
C532 C 0.42063 0.9906 0.5 0.0
C533 C 0.44343 0.99443 0.5336 0.0
C534 C 0.39404 0.93748 0.62865 0.0
C535 C 0.41392 0.00672 0.43236 0.0
H536 H 0.35672 0.95047 0.33665 0.0
H537 H 0.32138 0.99682 0.49384 0.0
H538 H 0.41581 0.95338 0.37576 0.0
H539 H 0.40832 0.93166 0.45348 0.0
H540 H 0.39465 0.92983 0.36272 0.0
H541 H 0.33838 0.0022 0.61341 0.0
H542 H 0.36564 0.98557 0.64228 0.0
H543 H 0.37062 0.01149 0.57961 0.0
H544 H 0.43959 0.95024 0.67489 0.0
H545 H 0.45569 0.00897 0.51118 0.0
H546 H 0.38789 0.927 0.58306 0.0
H547 H 0.37641 0.94454 0.65834 0.0
H548 H 0.40362 0.92598 0.67125 0.0
H549 H 0.41023 0.99668 0.38294 0.0
H550 H 0.42942 0.01955 0.41294 0.0
H551 H 0.39605 0.01621 0.44861 0.0
C552 C 0.53773 0.34869 0.43598 0.0
C553 C 0.54713 0.34962 0.35802 0.0
C554 C 0.54219 0.36705 0.48082 0.0
C555 C 0.55644 0.38661 0.44658 0.0
C556 C 0.56836 0.38636 0.3705 0.0
C557 C 0.56345 0.36787 0.32689 0.0
C558 C 0.5293 0.36656 0.56201 0.0
C559 C 0.58411 0.40664 0.33237 0.0
C560 C 0.52954 0.44319 0.50966 0.0
C561 C 0.54604 0.44861 0.5647 0.0
C562 C 0.53334 0.42346 0.46921 0.0
C563 C 0.55427 0.40873 0.48386 0.0
C564 C 0.57186 0.41471 0.53629 0.0
C565 C 0.56751 0.43464 0.57635 0.0
C566 C 0.51424 0.41788 0.4131 0.0
C567 C 0.59453 0.39956 0.55265 0.0
H568 H 0.52509 0.33459 0.46005 0.0
H569 H 0.571 0.3684 0.26673 0.0
H570 H 0.54259 0.3729 0.60185 0.0
H571 H 0.51244 0.37822 0.56266 0.0
H572 H 0.52255 0.34891 0.58419 0.0
H573 H 0.59622 0.40188 0.28037 0.0
H574 H 0.57103 0.42072 0.31424 0.0
H575 H 0.59669 0.41353 0.37321 0.0
H576 H 0.51305 0.45404 0.49979 0.0
H577 H 0.58031 0.43873 0.61899 0.0
H578 H 0.50422 0.40135 0.43344 0.0
H579 H 0.52435 0.41565 0.35545 0.0
H580 H 0.49955 0.43158 0.40644 0.0
H581 H 0.58767 0.3836 0.58781 0.0
H582 H 0.60853 0.40841 0.58481 0.0
H583 H 0.60457 0.39423 0.49813 0.0
C584 C 0.183 0.53609 0.35477 0.0
C585 C 0.1817 0.54411 0.27728 0.0
C586 C 0.16212 0.53881 0.40965 0.0
C587 C 0.13958 0.54978 0.38602 0.0
C588 C 0.13965 0.5607 0.31048 0.0
C589 C 0.16078 0.55768 0.25672 0.0
C590 C 0.16301 0.52731 0.49017 0.0
C591 C 0.1163 0.57315 0.28367 0.0
C592 C 0.07972 0.51775 0.47336 0.0
C593 C 0.07136 0.53108 0.53417 0.0
C594 C 0.10122 0.52436 0.42273 0.0
C595 C 0.11477 0.54485 0.43308 0.0
C596 C 0.10555 0.55916 0.4914 0.0
C597 C 0.08387 0.55207 0.54154 0.0
C598 C 0.11016 0.5087 0.3605 0.0
C599 C 0.11927 0.58125 0.50367 0.0
H600 H 0.19917 0.52565 0.37102 0.0
H601 H 0.16 0.5643 0.197 0.0
H602 H 0.15423 0.53849 0.53392 0.0
H603 H 0.15179 0.51093 0.4956 0.0
H604 H 0.183 0.52322 0.50332 0.0
H605 H 0.12132 0.585 0.23115 0.0
H606 H 0.10214 0.56026 0.2695 0.0
H607 H 0.10691 0.58321 0.32972 0.0
H608 H 0.06993 0.50166 0.46678 0.0
H609 H 0.07746 0.56245 0.5885 0.0
H610 H 0.12934 0.50159 0.37139 0.0
H611 H 0.11213 0.51861 0.30313 0.0
H612 H 0.09672 0.494 0.35802 0.0
H613 H 0.13632 0.57703 0.53557 0.0
H614 H 0.10668 0.59284 0.53794 0.0
H615 H 0.12617 0.5907 0.44775 0.0
C616 C 0.98648 0.83906 0.01286 0.0
C617 C 0.00723 0.82574 0.03534 0.0
C618 C 0.99059 0.86013 0.96832 0.0
C619 C 0.01609 0.86779 0.94534 0.0
C620 C 0.03705 0.85346 0.96303 0.0
C621 C 0.03236 0.83264 0.00901 0.0
C622 C 0.96772 0.875 0.95124 0.0
C623 C 0.06444 0.8608 0.93786 0.0
C624 C 0.02106 0.91918 0.79674 0.0
C625 C 0.02243 0.93763 0.84365 0.0
C626 C 0.02037 0.89622 0.82847 0.0
C627 C 0.02063 0.89164 0.90922 0.0
C628 C 0.02307 0.91014 0.95655 0.0
C629 C 0.02419 0.93298 0.92296 0.0
C630 C 0.01823 0.87697 0.77598 0.0
C631 C 0.02307 0.9059 0.04317 0.0
H632 H 0.96711 0.83379 0.03503 0.0
H633 H 0.04833 0.8224 0.02795 0.0
H634 H 0.96801 0.89075 0.98324 0.0
H635 H 0.96863 0.88072 0.88882 0.0
H636 H 0.94918 0.86578 0.96821 0.0
H637 H 0.07813 0.84634 0.94618 0.0
H638 H 0.06639 0.86747 0.87613 0.0
H639 H 0.06993 0.87503 0.97205 0.0
H640 H 0.01994 0.92272 0.7351 0.0
H641 H 0.02514 0.94721 0.95925 0.0
H642 H 0.03238 0.86322 0.78845 0.0
H643 H 0.02137 0.88324 0.7139 0.0
H644 H 0.99881 0.86898 0.78659 0.0
H645 H 0.02642 0.92201 0.0712 0.0
H646 H 0.03813 0.89324 0.05787 0.0
H647 H 1.00429 0.89836 0.06793 0.0
C648 C 0.66552 0.03903 0.05498 0.0
C649 C 0.68373 0.02176 0.04069 0.0
C650 C 0.64435 0.04189 0.01135 0.0
C651 C 0.64152 0.02722 0.95171 0.0
C652 C 0.66141 0.01159 0.93139 0.0
C653 C 0.68235 0.00898 0.97649 0.0
C654 C 0.62373 0.05885 0.03475 0.0
C655 C 0.65935 0.996 0.86703 0.0
C656 C 0.57443 0.00622 0.92579 0.0
C657 C 0.56862 0.01956 0.85915 0.0
C658 C 0.59782 0.00907 0.95739 0.0
C659 C 0.61611 0.02535 0.92048 0.0
C660 C 0.6101 0.03932 0.85425 0.0
C661 C 0.58626 0.03639 0.82468 0.0
C662 C 0.60322 0.99419 0.02925 0.0
C663 C 0.62922 0.05659 0.81275 0.0
H664 H 0.66674 0.04902 0.10448 0.0
H665 H 0.6964 0.99559 0.96558 0.0
H666 H 0.61662 0.06839 0.98328 0.0
H667 H 0.60717 0.04926 0.06679 0.0
H668 H 0.63073 0.07153 0.07261 0.0
H669 H 0.67806 0.98792 0.84978 0.0
H670 H 0.64518 0.98202 0.8865 0.0
H671 H 0.65241 0.00576 0.81565 0.0
H672 H 0.56082 0.9932 0.95248 0.0
H673 H 0.58198 0.04649 0.77236 0.0
H674 H 0.60839 0.00521 0.0747 0.0
H675 H 0.61985 0.98281 0.016 0.0
H676 H 0.5865 0.98316 0.05284 0.0
H677 H 0.63681 0.06783 0.85406 0.0
H678 H 0.62068 0.06767 0.76684 0.0
H679 H 0.6458 0.04725 0.78581 0.0
C680 C 0.47875 0.63136 0.09912 0.0
C681 C 0.4963 0.64875 0.06868 0.0
C682 C 0.47338 0.61283 0.05616 0.0
C683 C 0.48603 0.61169 0.98133 0.0
C684 C 0.50161 0.63048 0.94741 0.0
C685 C 0.50655 0.64887 0.99162 0.0
C686 C 0.45627 0.5934 0.09395 0.0
C687 C 0.51526 0.63004 0.86744 0.0
C688 C 0.5106 0.55379 0.92331 0.0
C689 C 0.49443 0.54888 0.86678 0.0
C690 C 0.50734 0.57376 0.96283 0.0
C691 C 0.48737 0.58929 0.9455 0.0
C692 C 0.47004 0.58385 0.89162 0.0
C693 C 0.47378 0.56362 0.85272 0.0
C694 C 0.52609 0.57871 0.02068 0.0
C695 C 0.44839 0.59988 0.87225 0.0
H696 H 0.47049 0.63147 0.15846 0.0
H697 H 0.52013 0.66231 0.96798 0.0
H698 H 0.4438 0.58684 0.0522 0.0
H699 H 0.46837 0.57884 0.11433 0.0
H700 H 0.44394 0.59892 0.14443 0.0
H701 H 0.52317 0.64729 0.84491 0.0
H702 H 0.5314 0.61761 0.86918 0.0
H703 H 0.50206 0.62414 0.82657 0.0
H704 H 0.52646 0.54235 0.93498 0.0
H705 H 0.46127 0.55995 0.80885 0.0
H706 H 0.51558 0.58171 0.07714 0.0
H707 H 0.53722 0.59467 0.00028 0.0
H708 H 0.53985 0.56435 0.0298 0.0
H709 H 0.43826 0.60598 0.9255 0.0
H710 H 0.43422 0.59145 0.8396 0.0
H711 H 0.45636 0.61534 0.83642 0.0
C712 C 0.86173 0.44121 0.11563 0.0
C713 C 0.86554 0.4523 0.18241 0.0
C714 C 0.88163 0.44001 0.05617 0.0
C715 C 0.90597 0.44971 0.06454 0.0
C716 C 0.91072 0.45852 0.13514 0.0
C717 C 0.89043 0.46007 0.19249 0.0
C718 C 0.87584 0.43038 0.98177 0.0
C719 C 0.93655 0.46865 0.1472 0.0
C720 C 0.96433 0.44788 0.9178 0.0
C721 C 0.96369 0.47024 0.88116 0.0
C722 C 0.94499 0.4403 0.9759 0.0
C723 C 0.92451 0.45535 0.99592 0.0
C724 C 0.92314 0.4774 0.95543 0.0
C725 C 0.94288 0.48464 0.89928 0.0
C726 C 0.94721 0.41679 0.01837 0.0
C727 C 0.90139 0.49386 0.97366 0.0
H728 H 0.84285 0.43455 0.10786 0.0
H729 H 0.8939 0.46905 0.24264 0.0
H730 H 0.87259 0.4449 0.93835 0.0
H731 H 0.89226 0.42022 0.9579 0.0
H732 H 0.85836 0.41924 0.98985 0.0
H733 H 0.9385 0.47083 0.20914 0.0
H734 H 0.9524 0.45755 0.12516 0.0
H735 H 0.93887 0.48589 0.11466 0.0
H736 H 0.98039 0.43672 0.90328 0.0
H737 H 0.9421 0.50177 0.86961 0.0
H738 H 0.92834 0.40774 0.0265 0.0
H739 H 0.95341 0.41887 0.07661 0.0
H740 H 0.96145 0.40577 0.98749 0.0
H741 H 0.88257 0.48501 0.97362 0.0
H742 H 0.90189 0.50934 0.93164 0.0
H743 H 0.90258 0.49974 0.03222 0.0
C744 C 0.07464 0.18477 0.07948 0.0
C745 C 0.08914 0.18386 0.14328 0.0
C746 C 0.0759 0.16674 0.0303 0.0
C747 C 0.09195 0.14756 0.04613 0.0
C748 C 0.10974 0.14867 0.10221 0.0
C749 C 0.10819 0.16696 0.15018 0.0
C750 C 0.05733 0.16664 0.96899 0.0
C751 C 0.12771 0.12894 0.1195 0.0
C752 C 0.0576 0.09064 0.0367 0.0
C753 C 0.06824 0.08343 0.9662 0.0
C754 C 0.06599 0.11104 0.06441 0.0
C755 C 0.08532 0.12474 0.01987 0.0
C756 C 0.09694 0.11703 0.95006 0.0
C757 C 0.08826 0.09635 0.92404 0.0
C758 C 0.05341 0.11832 0.14018 0.0
C759 C 0.1175 0.13109 0.90078 0.0
H760 H 0.06 0.1979 0.07376 0.0
H761 H 0.11963 0.16645 0.19918 0.0
H762 H 0.06645 0.15944 0.91623 0.0
H763 H 0.04054 0.1555 0.99102 0.0
H764 H 0.05022 0.18429 0.95328 0.0
H765 H 0.11695 0.11507 0.15663 0.0
H766 H 0.13551 0.12147 0.06571 0.0
H767 H 0.14396 0.13457 0.15061 0.0
H768 H 0.04223 0.08053 0.06934 0.0
H769 H 0.09629 0.09086 0.86897 0.0
H770 H 0.04291 0.13475 0.12997 0.0
H771 H 0.06822 0.12145 0.17995 0.0
H772 H 0.03962 0.10513 0.16933 0.0
H773 H 0.10831 0.14524 0.86671 0.0
H774 H 0.1287 0.12039 0.85975 0.0
H775 H 0.13092 0.13911 0.93678 0.0
C776 C 0.34986 0.02735 0.15025 0.0
C777 C 0.33097 0.01034 0.14744 0.0
C778 C 0.37063 0.03018 0.09316 0.0
C779 C 0.37243 0.0158 0.03107 0.0
C780 C 0.35193 0.00031 0.02368 0.0
C781 C 0.3315 0.99762 0.08242 0.0
C782 C 0.39198 0.0468 0.10407 0.0
C783 C 0.35273 0.98504 0.95752 0.0
C784 C 0.42611 0.02801 0.86846 0.0
C785 C 0.44466 0.0117 0.88933 0.0
C786 C 0.40237 0.02943 0.91323 0.0
C787 C 0.39725 0.01452 0.98137 0.0
C788 C 0.41619 0.99841 0.00354 0.0
C789 C 0.43947 0.99704 0.95691 0.0
C790 C 0.38257 0.04652 0.8868 0.0
C791 C 0.41185 0.98249 0.07656 0.0
H792 H 0.34966 0.03695 0.20115 0.0
H793 H 0.31718 0.9842 0.08072 0.0
H794 H 0.40877 0.03688 0.12312 0.0
H795 H 0.39836 0.0569 0.04894 0.0
H796 H 0.38603 0.059 0.14818 0.0
H797 H 0.33364 0.97718 0.95229 0.0
H798 H 0.35926 0.99498 0.90215 0.0
H799 H 0.36668 0.9709 0.96702 0.0
H800 H 0.4298 0.03919 0.8157 0.0
H801 H 0.45367 0.98439 0.97342 0.0
H802 H 0.37718 0.05831 0.93253 0.0
H803 H 0.36486 0.03717 0.8764 0.0
H804 H 0.38957 0.05706 0.83295 0.0
H805 H 0.4076 0.99277 0.12711 0.0
H806 H 0.42875 0.9714 0.08676 0.0
H807 H 0.39496 0.97115 0.07324 0.0
C808 C 0.48131 0.358 0.14391 0.0
C809 C 0.50031 0.3415 0.12883 0.0
C810 C 0.4761 0.37545 0.0872 0.0
C811 C 0.49037 0.37637 0.01402 0.0
C812 C 0.50715 0.35798 0.99568 0.0
C813 C 0.51201 0.3407 0.05371 0.0
C814 C 0.45782 0.39448 0.10912 0.0
C815 C 0.52236 0.35807 0.91786 0.0
C816 C 0.47919 0.42503 0.86015 0.0
C817 C 0.49861 0.44074 0.87183 0.0
C818 C 0.47597 0.40396 0.90617 0.0
C819 C 0.49246 0.39867 0.96523 0.0
C820 C 0.51154 0.41485 0.97855 0.0
C821 C 0.51442 0.43557 0.9316 0.0
C822 C 0.45553 0.3871 0.89005 0.0
C823 C 0.52932 0.41015 0.04174 0.0
H824 H 0.47229 0.35854 0.20229 0.0
H825 H 0.5268 0.32798 0.04231 0.0
H826 H 0.46904 0.40963 0.12276 0.0
H827 H 0.44633 0.40018 0.06068 0.0
H828 H 0.44453 0.38893 0.1607 0.0
H829 H 0.5303 0.34072 0.90734 0.0
H830 H 0.51028 0.36374 0.87079 0.0
H831 H 0.53864 0.37047 0.91533 0.0
H832 H 0.46707 0.42886 0.81356 0.0
H833 H 0.52937 0.44768 0.94124 0.0
H834 H 0.44412 0.38071 0.94437 0.0
H835 H 0.46481 0.37189 0.86488 0.0
H836 H 0.44229 0.39493 0.84902 0.0
H837 H 0.51795 0.40683 0.09849 0.0
H838 H 0.54274 0.42478 0.04544 0.0
H839 H 0.54084 0.39446 0.03119 0.0
C840 C 0.17067 0.48194 0.07721 0.0
C841 C 0.18975 0.49836 0.05076 0.0
C842 C 0.15182 0.47617 0.02966 0.0
C843 C 0.15208 0.4873 0.9543 0.0
C844 C 0.17303 0.50192 0.92465 0.0
C845 C 0.1917 0.50734 0.97358 0.0
C846 C 0.13003 0.46034 0.06347 0.0
C847 C 0.17418 0.51393 0.84435 0.0
C848 C 0.10089 0.47227 0.82379 0.0
C849 C 0.08271 0.48962 0.83784 0.0
C850 C 0.12367 0.47113 0.86123 0.0
C851 C 0.12819 0.48766 0.91395 0.0
C852 C 0.10964 0.5049 0.92932 0.0
C853 C 0.08721 0.50567 0.89105 0.0
C854 C 0.14302 0.45254 0.84355 0.0
C855 C 0.11354 0.52274 0.98584 0.0
H856 H 0.16922 0.47511 0.13724 0.0
H857 H 0.2064 0.52018 0.9536 0.0
H858 H 0.11302 0.4709 0.08037 0.0
H859 H 0.12438 0.4487 0.02043 0.0
H860 H 0.13518 0.44968 0.11559 0.0
H861 H 0.1937 0.52092 0.82494 0.0
H862 H 0.16852 0.50197 0.80227 0.0
H863 H 0.16044 0.52853 0.84397 0.0
H864 H 0.09759 0.45987 0.78243 0.0
H865 H 0.07322 0.51906 0.90254 0.0
H866 H 0.14759 0.44268 0.89774 0.0
H867 H 0.16121 0.46059 0.81615 0.0
H868 H 0.13604 0.44029 0.80423 0.0
H869 H 0.11605 0.51406 0.04371 0.0
H870 H 0.09713 0.53486 0.99158 0.0
H871 H 0.13126 0.53294 0.96681 0.0
C872 C 0.01429 0.82225 0.33889 0.0
C873 C 0.99326 0.81066 0.31513 0.0
C874 C 0.0106 0.8399 0.38888 0.0
C875 C 0.98526 0.84599 0.41531 0.0
C876 C 0.96423 0.83234 0.39921 0.0
C877 C 0.96851 0.81473 0.34902 0.0
C878 C 0.0336 0.85378 0.40556 0.0
C879 C 0.93699 0.838 0.42761 0.0
C880 C 0.97836 0.89287 0.55516 0.0
C881 C 0.97631 0.91278 0.50455 0.0
C882 C 0.98042 0.87085 0.52756 0.0
C883 C 0.98066 0.86872 0.44735 0.0
C884 C 0.978 0.88868 0.39613 0.0
C885 C 0.97586 0.91048 0.42541 0.0
C886 C 0.98331 0.85004 0.58388 0.0
C887 C 0.97816 0.88711 0.31 0.0
H888 H 0.03341 0.81908 0.31221 0.0
H889 H 0.95224 0.80587 0.32999 0.0
H890 H 0.03222 0.85765 0.46702 0.0
H891 H 0.05193 0.8446 0.39205 0.0
H892 H 0.03418 0.87052 0.36979 0.0
H893 H 0.92361 0.8234 0.42305 0.0
H894 H 0.93578 0.84242 0.48854 0.0
H895 H 0.93049 0.85329 0.39222 0.0
H896 H 0.97928 0.89454 0.61633 0.0
H897 H 0.97411 0.92577 0.38626 0.0
H898 H 1.0032 0.84338 0.57583 0.0
H899 H 0.97012 0.83592 0.57306 0.0
H900 H 0.9794 0.85424 0.64488 0.0
H901 H 0.9969 0.88028 0.28684 0.0
H902 H 0.97495 0.90414 0.27852 0.0
H903 H 0.96301 0.8749 0.29771 0.0
C904 C 0.66849 0.97369 0.30952 0.0
C905 C 0.68694 0.99121 0.31032 0.0
C906 C 0.64782 0.97097 0.36685 0.0
C907 C 0.64565 0.98599 0.42711 0.0
C908 C 0.66565 0.0022 0.43235 0.0
C909 C 0.68603 0.00475 0.37338 0.0
C910 C 0.62698 0.95359 0.35825 0.0
C911 C 0.66441 0.0182 0.49655 0.0
C912 C 0.57802 0.00318 0.5005 0.0
C913 C 0.57347 0.98891 0.56921 0.0
C914 C 0.60132 0.00222 0.45383 0.0
C915 C 0.62091 0.98697 0.47715 0.0
C916 C 0.61644 0.97249 0.5465 0.0
C917 C 0.59266 0.97344 0.59129 0.0
C918 C 0.60498 0.01763 0.3795 0.0
C919 C 0.63695 0.95634 0.57411 0.0
H920 H 0.66906 0.9634 0.26018 0.0
H921 H 0.70005 0.01851 0.3735 0.0
H922 H 0.62119 0.94372 0.41427 0.0
H923 H 0.60975 0.96284 0.33939 0.0
H924 H 0.63315 0.94119 0.31495 0.0
H925 H 0.68321 0.02678 0.50032 0.0
H926 H 0.6499 0.03178 0.48599 0.0
H927 H 0.65837 0.00862 0.55298 0.0
H928 H 0.56331 0.01519 0.48317 0.0
H929 H 0.58943 0.96262 0.64499 0.0
H930 H 0.60951 0.007 0.32996 0.0
H931 H 0.62148 0.02954 0.3813 0.0
H932 H 0.58767 0.0281 0.36875 0.0
H933 H 0.64267 0.9442 0.52975 0.0
H934 H 0.63046 0.94615 0.62916 0.0
H935 H 0.65434 0.96642 0.58281 0.0
C936 C 0.52683 0.65633 0.37806 0.0
C937 C 0.53991 0.65613 0.30452 0.0
C938 C 0.53134 0.63905 0.43644 0.0
C939 C 0.5491 0.62123 0.41991 0.0
C940 C 0.56447 0.62269 0.34851 0.0
C941 C 0.55961 0.64015 0.29146 0.0
C942 C 0.51492 0.63837 0.51238 0.0
C943 C 0.58374 0.60422 0.32855 0.0
C944 C 0.56009 0.57294 0.57502 0.0
C945 C 0.54157 0.55669 0.56086 0.0
C946 C 0.56304 0.59411 0.52949 0.0
C947 C 0.54727 0.59887 0.46829 0.0
C948 C 0.52918 0.58212 0.45241 0.0
C949 C 0.52648 0.56135 0.49909 0.0
C950 C 0.58236 0.61161 0.54845 0.0
C951 C 0.51226 0.58626 0.38679 0.0
H952 H 0.51149 0.66865 0.38772 0.0
H953 H 0.56962 0.64005 0.23418 0.0
H954 H 0.49926 0.62544 0.51237 0.0
H955 H 0.52639 0.63303 0.56122 0.0
H956 H 0.50606 0.65541 0.52218 0.0
H957 H 0.5975 0.61018 0.27851 0.0
H958 H 0.59469 0.59885 0.3785 0.0
H959 H 0.5734 0.58876 0.31337 0.0
H960 H 0.5716 0.56947 0.6233 0.0
H961 H 0.51224 0.54878 0.48768 0.0
H962 H 0.57207 0.62657 0.5722 0.0
H963 H 0.59435 0.61829 0.49555 0.0
H964 H 0.59516 0.60426 0.59159 0.0
H965 H 0.49988 0.6015 0.39622 0.0
H966 H 0.49968 0.57117 0.38106 0.0
H967 H 0.52427 0.59005 0.33137 0.0
C968 C 0.84788 0.46936 0.4864 0.0
C969 C 0.839 0.48395 0.4268 0.0
C970 C 0.86667 0.47707 0.53108 0.0
C971 C 0.87717 0.4996 0.51374 0.0
C972 C 0.86595 0.51521 0.46006 0.0
C973 C 0.8467 0.50721 0.41763 0.0
C974 C 0.87744 0.46018 0.59008 0.0
C975 C 0.87655 0.53933 0.4397 0.0
C976 C 0.92985 0.51838 0.63249 0.0
C977 C 0.9517 0.50986 0.59149 0.0
C978 C 0.90532 0.51574 0.60724 0.0
C979 C 0.90285 0.50484 0.53855 0.0
C980 C 0.92514 0.49753 0.49458 0.0
C981 C 0.94926 0.49978 0.52237 0.0
C982 C 0.88205 0.52325 0.65663 0.0
C983 C 0.92345 0.48642 0.41969 0.0
H984 H 0.84196 0.45134 0.49306 0.0
H985 H 0.84 0.51841 0.3708 0.0
H986 H 0.89588 0.45325 0.56501 0.0
H987 H 0.88141 0.46885 0.64219 0.0
H988 H 0.86409 0.4454 0.60773 0.0
H989 H 0.86273 0.55059 0.4097 0.0
H990 H 0.88145 0.54744 0.49196 0.0
H991 H 0.89446 0.53844 0.40064 0.0
H992 H 0.93174 0.5258 0.68683 0.0
H993 H 0.96621 0.49319 0.4909 0.0
H994 H 0.87233 0.50775 0.68768 0.0
H995 H 0.86798 0.53213 0.62067 0.0
H996 H 0.88734 0.53495 0.70013 0.0
H997 H 0.91358 0.46941 0.43152 0.0
H998 H 0.94269 0.48369 0.38921 0.0
H999 H 0.91196 0.49733 0.38051 0.0
loop_
_geom_bond_atom_site_label_1
_geom_bond_atom_site_label_2
_geom_bond_distance
_geom_bond_site_symmetry_2
_ccdc_geom_bond_type
H0 C5 0.930 . S
H1 C8 0.930 . S
H2 C10 0.930 . S
H3 C4 1.016 . S
C4 H3 1.016 . S
C4 N11 1.286 . S
C5 H0 0.930 . S
C5 C6 1.397 . S
C5 C7 1.361 . S
C6 C5 1.397 . S
C6 C10 1.390 . S
C7 C5 1.361 . S
C7 C8 1.393 . S
C7 N11 1.413 . S
C8 H1 0.930 . S
C8 C7 1.393 . S
C8 C9 1.399 . S
C9 C8 1.399 . S
C9 C10 1.381 . S
C10 H2 0.930 . S
C10 C6 1.390 . S
C10 C9 1.381 . S
N11 C4 1.286 . S
N11 C7 1.413 . S
H12 C17 0.930 . S
H13 C20 0.930 . S
H14 C22 0.930 . S
H15 C16 1.016 . S
C16 H15 1.016 . S
C16 N23 1.286 1_556 S
C17 H12 0.930 . S
C17 C18 1.397 . S
C17 C19 1.361 . S
C18 C17 1.397 . S
C18 C22 1.390 . S
C19 C17 1.361 . S
C19 C20 1.393 1_554 S
C19 N23 1.413 . S
C20 H13 0.930 . S
C20 C19 1.393 1_556 S
C20 C21 1.399 . S
C21 C20 1.399 . S
C21 C22 1.381 1_556 S
C22 H14 0.930 . S
C22 C18 1.390 . S
C22 C21 1.381 1_554 S
N23 C16 1.286 1_554 S
N23 C19 1.413 . S
H24 C29 0.930 . S
H25 C32 0.930 1_556 S
H26 C34 0.930 . S
H27 C28 1.032 1_556 S
C28 H27 1.032 1_554 S
C28 N35 1.266 1_565 S
C29 H24 0.930 . S
C29 C30 1.406 . S
C29 C31 1.361 . S
C30 C29 1.406 . S
C30 C34 1.382 1_545 S
C31 C29 1.361 . S
C31 C32 1.393 . S
C31 N35 1.413 . S
C32 H25 0.930 1_554 S
C32 C31 1.393 . S
C32 C33 1.402 . S
C33 C32 1.402 . S
C33 C34 1.381 1_545 S
C34 H26 0.930 . S
C34 C30 1.382 1_565 S
C34 C33 1.381 1_565 S
N35 C28 1.266 1_545 S
N35 C31 1.413 . S
H36 C41 0.930 . S
H37 C44 0.930 1_556 S
H38 C46 0.930 . S
H39 C40 1.016 1_556 S
C40 H39 1.016 1_554 S
C40 N47 1.286 . S
C41 H36 0.930 . S
C41 C42 1.397 . S
C41 C43 1.361 . S
C42 C41 1.397 . S
C42 C46 1.390 . S
C43 C41 1.361 . S
C43 C44 1.393 . S
C43 N47 1.413 . S
C44 H37 0.930 1_554 S
C44 C43 1.393 . S
C44 C45 1.399 . S
C45 C44 1.399 . S
C45 C46 1.381 . S
C46 H38 0.930 . S
C46 C42 1.390 . S
C46 C45 1.381 . S
N47 C40 1.286 . S
N47 C43 1.413 . S
H48 C53 0.930 . S
H49 C56 0.930 . S
H50 C58 0.930 . S
H51 C52 1.016 . S
C52 H51 1.016 . S
C52 N59 1.286 . S
C53 H48 0.930 . S
C53 C54 1.397 . S
C53 C55 1.361 . S
C54 C53 1.397 . S
C54 C58 1.390 . S
C55 C53 1.361 . S
C55 C56 1.393 . S
C55 N59 1.413 . S
C56 H49 0.930 . S
C56 C55 1.393 . S
C56 C57 1.399 . S
C57 C56 1.399 . S
C57 C58 1.381 . S
C58 H50 0.930 . S
C58 C54 1.390 . S
C58 C57 1.381 . S
N59 C52 1.286 . S
N59 C55 1.413 . S
H60 C65 0.930 . S
H61 C68 0.930 . S
H62 C70 0.930 . S
H63 C64 1.016 . S
C64 H63 1.016 . S
C64 N71 1.286 . S
C65 H60 0.930 . S
C65 C66 1.397 . S
C65 C67 1.361 . S
C66 C65 1.397 . S
C66 C70 1.390 . S
C67 C65 1.361 . S
C67 C68 1.393 . S
C67 N71 1.413 . S
C68 H61 0.930 . S
C68 C67 1.393 . S
C68 C69 1.399 . S
C69 C68 1.399 . S
C69 C70 1.381 . S
C70 H62 0.930 . S
C70 C66 1.390 . S
C70 C69 1.381 . S
N71 C64 1.286 . S
N71 C67 1.413 . S
H72 C77 0.930 . S
H73 C80 0.930 . S
H74 C82 0.930 . S
H75 C76 1.023 . S
C76 H75 1.023 . S
C76 N83 1.275 1_565 S
C77 H72 0.930 . S
C77 C78 1.397 . S
C77 C79 1.361 . S
C78 C77 1.397 . S
C78 C82 1.390 1_545 S
C79 C77 1.361 . S
C79 C80 1.393 . S
C79 N83 1.413 . S
C80 H73 0.930 . S
C80 C79 1.393 . S
C80 C81 1.405 . S
C81 C80 1.405 . S
C81 C82 1.376 1_545 S
C82 H74 0.930 . S
C82 C78 1.390 1_565 S
C82 C81 1.376 1_565 S
N83 C76 1.275 1_545 S
N83 C79 1.413 . S
H84 C89 0.930 . S
H85 C92 0.930 . S
H86 C94 0.930 . S
H87 C88 1.016 . S
C88 H87 1.016 . S
C88 N95 1.286 . S
C89 H84 0.930 . S
C89 C90 1.397 . S
C89 C91 1.361 . S
C90 C89 1.397 . S
C90 C94 1.390 . S
C91 C89 1.361 . S
C91 C92 1.393 . S
C91 N95 1.413 . S
C92 H85 0.930 . S
C92 C91 1.393 . S
C92 C93 1.399 . S
C93 C92 1.399 . S
C93 C94 1.381 . S
C94 H86 0.930 . S
C94 C90 1.390 . S
C94 C93 1.381 . S
N95 C88 1.286 . S
N95 C91 1.413 . S
C96 O112 1.251 . S
C96 O114 1.254 . S
N97 C98 1.324 1_655 S
N97 C102 1.333 . S
N97 Zn103 2.010 1_655 S
C98 N97 1.324 1_455 S
C98 C99 1.387 . S
C98 H116 0.952 . S
C99 C98 1.387 . S
C99 C100 1.374 1_455 S
C99 H126 0.959 . S
C100 C99 1.374 1_655 S
C100 C101 1.357 . S
C101 C100 1.357 . S
C101 C102 1.370 . S
C101 H127 0.950 . S
C102 N97 1.333 . S
C102 C101 1.370 . S
C102 H120 0.948 . S
Zn103 N97 2.010 1_455 S
Zn103 O112 2.039 . S
Zn103 O118 2.034 . S
Zn103 O122 2.025 1_565 S
Zn103 O124 2.024 1_455 S
C104 O123 1.246 . S
C104 O124 1.249 1_545 S
N105 C106 1.307 . S
N105 C107 1.333 . S
N105 Zn111 2.020 . S
C106 N105 1.307 . S
C106 C110 1.370 1_556 S
C106 H117 0.948 . S
C107 N105 1.333 . S
C107 C108 1.379 . S
C107 H115 0.952 . S
C108 C107 1.379 . S
C108 C109 1.390 1_556 S
C108 H128 0.949 . S
C109 C108 1.390 1_554 S
C109 C110 1.357 . S
C110 C106 1.370 1_554 S
C110 C109 1.357 . S
C110 H129 0.950 . S
Zn111 N105 2.020 . S
Zn111 O114 2.025 1_545 S
Zn111 O119 2.024 . S
Zn111 O121 2.039 . S
Zn111 O123 2.034 1_455 S
O112 C96 1.251 . S
O112 Zn103 2.039 . S
C113 O118 1.246 . S
C113 O119 1.249 1_565 S
O114 C96 1.254 . S
O114 Zn111 2.025 1_565 S
H115 C107 0.952 . S
H116 C98 0.952 . S
H117 C106 0.948 . S
O118 Zn103 2.034 . S
O118 C113 1.246 . S
O119 Zn111 2.024 . S
O119 C113 1.249 1_545 S
H120 C102 0.948 . S
O121 Zn111 2.039 . S
O121 C125 1.251 . S
O122 Zn103 2.025 1_545 S
O122 C125 1.254 . S
O123 C104 1.246 . S
O123 Zn111 2.034 1_655 S
O124 Zn103 2.024 1_655 S
O124 C104 1.249 1_565 S
C125 O121 1.251 . S
C125 O122 1.254 . S
H126 C99 0.959 . S
H127 C101 0.950 . S
H128 C108 0.949 . S
H129 C110 0.950 . S
C130 O146 1.251 1_565 S
C130 O148 1.254 . S
N131 C132 1.333 . S
N131 C136 1.307 . S
N131 Zn137 2.020 . S
C132 N131 1.333 . S
C132 C133 1.379 . S
C132 H150 0.952 . S
C133 C132 1.379 . S
C133 C134 1.390 . S
C133 H160 0.949 . S
C134 C133 1.390 . S
C134 C135 1.357 . S
C135 C134 1.357 . S
C135 C136 1.370 . S
C135 H161 0.950 . S
C136 N131 1.307 . S
C136 C135 1.370 . S
C136 H154 0.948 . S
Zn137 N131 2.020 . S
Zn137 O146 2.039 . S
Zn137 O152 2.034 . S
Zn137 O156 2.025 . S
Zn137 O158 2.024 . S
C138 O157 1.246 1_545 S
C138 O158 1.249 . S
N139 C140 1.307 . S
N139 C141 1.333 . S
N139 Zn145 2.020 . S
C140 N139 1.307 . S
C140 C144 1.370 . S
C140 H151 0.948 . S
C141 N139 1.333 . S
C141 C142 1.379 . S
C141 H149 0.952 . S
C142 C141 1.379 . S
C142 C143 1.390 . S
C142 H162 0.949 . S
C143 C142 1.390 . S
C143 C144 1.357 . S
C144 C140 1.370 . S
C144 C143 1.357 . S
C144 H163 0.950 . S
Zn145 N139 2.020 . S
Zn145 O148 2.025 . S
Zn145 O153 2.024 . S
Zn145 O155 2.039 . S
Zn145 O157 2.034 . S
O146 C130 1.251 1_545 S
O146 Zn137 2.039 . S
C147 O152 1.246 1_565 S
C147 O153 1.249 . S
O148 C130 1.254 . S
O148 Zn145 2.025 . S
H149 C141 0.952 . S
H150 C132 0.952 . S
H151 C140 0.948 . S
O152 Zn137 2.034 . S
O152 C147 1.246 1_545 S
O153 Zn145 2.024 . S
O153 C147 1.249 . S
H154 C136 0.948 . S
O155 Zn145 2.039 . S
O155 C159 1.251 1_565 S
O156 Zn137 2.025 . S
O156 C159 1.254 . S
O157 C138 1.246 1_565 S
O157 Zn145 2.034 . S
O158 Zn137 2.024 . S
O158 C138 1.249 . S
C159 O155 1.251 1_545 S
C159 O156 1.254 . S
H160 C133 0.949 . S
H161 C135 0.950 . S
H162 C142 0.949 . S
H163 C144 0.950 . S
C164 O180 1.251 . S
C164 O182 1.254 . S
N165 C166 1.333 . S
N165 C170 1.307 . S
N165 Zn171 2.020 . S
C166 N165 1.333 . S
C166 C167 1.379 . S
C166 H184 0.952 . S
C167 C166 1.379 . S
C167 C168 1.390 . S
C167 H194 0.949 . S
C168 C167 1.390 . S
C168 C169 1.357 . S
C169 C168 1.357 . S
C169 C170 1.370 . S
C169 H195 0.950 . S
C170 N165 1.307 . S
C170 C169 1.370 . S
C170 H188 0.948 . S
Zn171 N165 2.020 . S
Zn171 O180 2.039 . S
Zn171 O186 2.034 . S
Zn171 O190 2.025 . S
Zn171 O192 2.024 . S
C172 O191 1.246 . S
C172 O192 1.249 . S
N173 C174 1.307 . S
N173 C175 1.333 . S
N173 Zn179 2.020 . S
C174 N173 1.307 . S
C174 C178 1.370 . S
C174 H185 0.948 . S
C175 N173 1.333 . S
C175 C176 1.379 . S
C175 H183 0.952 . S
C176 C175 1.379 . S
C176 C177 1.390 . S
C176 H196 0.949 . S
C177 C176 1.390 . S
C177 C178 1.357 . S
C178 C174 1.370 . S
C178 C177 1.357 . S
C178 H197 0.950 . S
Zn179 N173 2.020 . S
Zn179 O182 2.025 . S
Zn179 O187 2.024 . S
Zn179 O189 2.039 . S
Zn179 O191 2.034 . S
O180 C164 1.251 . S
O180 Zn171 2.039 . S
C181 O186 1.246 . S
C181 O187 1.249 . S
O182 C164 1.254 . S
O182 Zn179 2.025 . S
H183 C175 0.952 . S
H184 C166 0.952 . S
H185 C174 0.948 . S
O186 Zn171 2.034 . S
O186 C181 1.246 . S
O187 Zn179 2.024 . S
O187 C181 1.249 . S
H188 C170 0.948 . S
O189 Zn179 2.039 . S
O189 C193 1.251 . S
O190 Zn171 2.025 . S
O190 C193 1.254 . S
O191 C172 1.246 . S
O191 Zn179 2.034 . S
O192 Zn171 2.024 . S
O192 C172 1.249 . S
C193 O189 1.251 . S
C193 O190 1.254 . S
H194 C167 0.949 . S
H195 C169 0.950 . S
H196 C176 0.949 . S
H197 C178 0.950 . S
C198 O214 1.251 . S
C198 O216 1.254 . S
N199 C200 1.333 . S
N199 C204 1.307 . S
N199 Zn205 2.020 . S
C200 N199 1.333 . S
C200 C201 1.379 . S
C200 H218 0.952 . S
C201 C200 1.379 . S
C201 C202 1.390 . S
C201 H228 0.949 . S
C202 C201 1.390 . S
C202 C203 1.357 . S
C203 C202 1.357 . S
C203 C204 1.370 . S
C203 H229 0.950 . S
C204 N199 1.307 . S
C204 C203 1.370 . S
C204 H222 0.948 . S
Zn205 N199 2.020 . S
Zn205 O214 2.039 . S
Zn205 O220 2.034 1_455 S
Zn205 O224 2.025 1_455 S
Zn205 O226 2.024 . S
C206 O225 1.246 . S
C206 O226 1.249 . S
N207 C208 1.307 . S
N207 C209 1.333 1_455 S
N207 Zn213 2.020 . S
C208 N207 1.307 . S
C208 C212 1.370 . S
C208 H219 0.948 . S
C209 N207 1.333 1_655 S
C209 C210 1.379 . S
C209 H217 0.952 . S
C210 C209 1.379 . S
C210 C211 1.390 1_655 S
C210 H230 0.949 . S
C211 C210 1.390 1_455 S
C211 C212 1.357 . S
C212 C208 1.370 . S
C212 C211 1.357 . S
C212 H231 0.950 . S
Zn213 N207 2.020 . S
Zn213 O216 2.025 . S
Zn213 O221 2.024 1_455 S
Zn213 O223 2.039 1_455 S
Zn213 O225 2.034 . S
O214 C198 1.251 . S
O214 Zn205 2.039 . S
C215 O220 1.246 . S
C215 O221 1.249 . S
O216 C198 1.254 . S
O216 Zn213 2.025 . S
H217 C209 0.952 . S
H218 C200 0.952 . S
H219 C208 0.948 . S
O220 Zn205 2.034 1_655 S
O220 C215 1.246 . S
O221 Zn213 2.024 1_655 S
O221 C215 1.249 . S
H222 C204 0.948 . S
O223 Zn213 2.039 1_655 S
O223 C227 1.251 . S
O224 Zn205 2.025 1_655 S
O224 C227 1.254 . S
O225 C206 1.246 . S
O225 Zn213 2.034 . S
O226 Zn205 2.024 . S
O226 C206 1.249 . S
C227 O223 1.251 . S
C227 O224 1.254 . S
H228 C201 0.949 . S
H229 C203 0.950 . S
H230 C210 0.949 . S
H231 C212 0.950 . S
C232 C233 1.365 1_565 S
C232 C234 1.394 . S
C232 H248 0.931 . S
C233 C232 1.365 1_545 S
C233 C237 1.405 . S
C234 C232 1.394 . S
C234 C235 1.369 1_565 S
C234 C238 1.531 . S
C235 C234 1.369 1_545 S
C235 C236 1.410 . S
C235 C243 1.503 . S
C236 C235 1.410 . S
C236 C237 1.392 . S
C236 C239 1.511 . S
C237 C233 1.405 . S
C237 C236 1.392 . S
C237 H249 0.929 . S
C238 C234 1.531 . S
C238 H250 0.960 . S
C238 H251 0.962 . S
C238 H252 0.960 . S
C239 C236 1.511 . S
C239 H253 0.961 . S
C239 H254 0.961 . S
C239 H255 0.961 . S
C240 C241 1.370 . S
C240 C242 1.363 . S
C240 H256 0.931 . S
C241 C240 1.370 . S
C241 C245 1.408 1_565 S
C242 C240 1.363 . S
C242 C243 1.373 1_565 S
C242 C246 1.524 . S
C243 C235 1.503 . S
C243 C242 1.373 1_545 S
C243 C244 1.400 . S
C244 C243 1.400 . S
C244 C245 1.404 . S
C244 C247 1.539 . S
C245 C241 1.408 1_545 S
C245 C244 1.404 . S
C245 H257 0.930 . S
C246 C242 1.524 . S
C246 H258 0.956 . S
C246 H259 0.961 . S
C246 H260 0.961 . S
C247 C244 1.539 . S
C247 H261 0.958 . S
C247 H262 0.961 . S
C247 H263 0.960 . S
H248 C232 0.931 . S
H249 C237 0.929 . S
H250 C238 0.960 . S
H251 C238 0.962 . S
H252 C238 0.960 . S
H253 C239 0.961 . S
H254 C239 0.961 . S
H255 C239 0.961 . S
H256 C240 0.931 . S
H257 C245 0.930 . S
H258 C246 0.956 . S
H259 C246 0.961 . S
H260 C246 0.961 . S
H261 C247 0.958 . S
H262 C247 0.961 . S
H263 C247 0.960 . S
C264 C265 1.391 . S
C264 C266 1.394 . S
C264 H280 0.931 . S
C265 C264 1.391 . S
C265 C269 1.376 . S
C266 C264 1.394 . S
C266 C267 1.369 . S
C266 C270 1.531 . S
C267 C266 1.369 . S
C267 C268 1.410 . S
C267 C275 1.503 . S
C268 C267 1.410 . S
C268 C269 1.392 . S
C268 C271 1.511 . S
C269 C265 1.376 . S
C269 C268 1.392 . S
C269 H281 0.929 . S
C270 C266 1.531 . S
C270 H282 0.960 . S
C270 H283 0.962 . S
C270 H284 0.960 . S
C271 C268 1.511 . S
C271 H285 0.961 . S
C271 H286 0.961 . S
C271 H287 0.961 . S
C272 C273 1.370 . S
C272 C274 1.363 . S
C272 H288 0.931 . S
C273 C272 1.370 . S
C273 C277 1.408 . S
C274 C272 1.363 . S
C274 C275 1.370 . S
C274 C278 1.524 . S
C275 C267 1.503 . S
C275 C274 1.370 . S
C275 C276 1.403 . S
C276 C275 1.403 . S
C276 C277 1.404 . S
C276 C279 1.539 . S
C277 C273 1.408 . S
C277 C276 1.404 . S
C277 H289 0.930 . S
C278 C274 1.524 . S
C278 H290 0.956 . S
C278 H291 0.961 . S
C278 H292 0.961 . S
C279 C276 1.539 . S
C279 H293 0.958 . S
C279 H294 0.961 . S
C279 H295 0.960 . S
H280 C264 0.931 . S
H281 C269 0.929 . S
H282 C270 0.960 . S
H283 C270 0.962 . S
H284 C270 0.960 . S
H285 C271 0.961 . S
H286 C271 0.961 . S
H287 C271 0.961 . S
H288 C272 0.931 . S
H289 C277 0.930 . S
H290 C278 0.956 . S
H291 C278 0.961 . S
H292 C278 0.961 . S
H293 C279 0.958 . S
H294 C279 0.961 . S
H295 C279 0.960 . S
C296 C297 1.391 . S
C296 C298 1.394 . S
C296 H312 0.931 . S
C297 C296 1.391 . S
C297 C301 1.376 . S
C298 C296 1.394 . S
C298 C299 1.369 . S
C298 C302 1.531 . S
C299 C298 1.369 . S
C299 C300 1.410 . S
C299 C307 1.503 . S
C300 C299 1.410 . S
C300 C301 1.392 . S
C300 C303 1.511 . S
C301 C297 1.376 . S
C301 C300 1.392 . S
C301 H313 0.929 . S
C302 C298 1.531 . S
C302 H314 0.960 . S
C302 H315 0.962 . S
C302 H316 0.960 . S
C303 C300 1.511 . S
C303 H317 0.961 . S
C303 H318 0.961 . S
C303 H319 0.961 . S
C304 C305 1.370 . S
C304 C306 1.363 . S
C304 H320 0.931 . S
C305 C304 1.370 . S
C305 C309 1.408 . S
C306 C304 1.363 . S
C306 C307 1.370 . S
C306 C310 1.524 . S
C307 C299 1.503 . S
C307 C306 1.370 . S
C307 C308 1.403 . S
C308 C307 1.403 . S
C308 C309 1.404 . S
C308 C311 1.539 . S
C309 C305 1.408 . S
C309 C308 1.404 . S
C309 H321 0.930 . S
C310 C306 1.524 . S
C310 H322 0.956 . S
C310 H323 0.961 . S
C310 H324 0.961 . S
C311 C308 1.539 . S
C311 H325 0.958 . S
C311 H326 0.961 . S
C311 H327 0.960 . S
H312 C296 0.931 . S
H313 C301 0.929 . S
H314 C302 0.960 . S
H315 C302 0.962 . S
H316 C302 0.960 . S
H317 C303 0.961 . S
H318 C303 0.961 . S
H319 C303 0.961 . S
H320 C304 0.931 . S
H321 C309 0.930 . S
H322 C310 0.956 . S
H323 C310 0.961 . S
H324 C310 0.961 . S
H325 C311 0.958 . S
H326 C311 0.961 . S
H327 C311 0.960 . S
C328 C329 1.391 . S
C328 C330 1.394 . S
C328 H344 0.931 . S
C329 C328 1.391 . S
C329 C333 1.376 . S
C330 C328 1.394 . S
C330 C331 1.369 . S
C330 C334 1.531 . S
C331 C330 1.369 . S
C331 C332 1.410 . S
C331 C339 1.503 . S
C332 C331 1.410 . S
C332 C333 1.392 . S
C332 C335 1.511 . S
C333 C329 1.376 . S
C333 C332 1.392 . S
C333 H345 0.929 . S
C334 C330 1.531 . S
C334 H346 0.960 . S
C334 H347 0.962 1_455 S
C334 H348 0.960 . S
C335 C332 1.511 . S
C335 H349 0.961 . S
C335 H350 0.961 . S
C335 H351 0.961 . S
C336 C337 1.370 . S
C336 C338 1.363 . S
C336 H352 0.931 . S
C337 C336 1.370 . S
C337 C341 1.408 . S
C338 C336 1.363 . S
C338 C339 1.370 . S
C338 C342 1.524 . S
C339 C331 1.503 . S
C339 C338 1.370 . S
C339 C340 1.403 . S
C340 C339 1.403 . S
C340 C341 1.404 . S
C340 C343 1.539 . S
C341 C337 1.408 . S
C341 C340 1.404 . S
C341 H353 0.930 . S
C342 C338 1.524 . S
C342 H354 0.956 . S
C342 H355 0.961 . S
C342 H356 0.961 . S
C343 C340 1.539 . S
C343 H357 0.958 . S
C343 H358 0.961 . S
C343 H359 0.960 . S
H344 C328 0.931 . S
H345 C333 0.929 . S
H346 C334 0.960 . S
H347 C334 0.962 1_655 S
H348 C334 0.960 . S
H349 C335 0.961 . S
H350 C335 0.961 . S
H351 C335 0.961 . S
H352 C336 0.931 . S
H353 C341 0.930 . S
H354 C342 0.956 . S
H355 C342 0.961 . S
H356 C342 0.961 . S
H357 C343 0.958 . S
H358 C343 0.961 . S
H359 C343 0.960 . S
C360 C361 1.393 1_554 S
C360 C362 1.395 . S
C360 H376 0.922 1_565 S
C361 C360 1.393 1_556 S
C361 C365 1.376 . S
C362 C360 1.395 . S
C362 C363 1.369 1_554 S
C362 C366 1.531 1_565 S
C363 C362 1.369 1_556 S
C363 C364 1.410 . S
C363 C371 1.503 . S
C364 C363 1.410 . S
C364 C365 1.392 . S
C364 C367 1.511 . S
C365 C361 1.376 . S
C365 C364 1.392 . S
C365 H377 0.929 . S
C366 C362 1.531 1_545 S
C366 H378 0.962 1_545 S
C366 H379 0.958 . S
C366 H380 0.962 1_545 S
C367 C364 1.511 . S
C367 H381 0.961 . S
C367 H382 0.961 . S
C367 H383 0.961 . S
C368 C369 1.370 . S
C368 C370 1.363 . S
C368 H384 0.931 . S
C369 C368 1.370 . S
C369 C373 1.408 1_545 S
C370 C368 1.363 . S
C370 C371 1.370 1_545 S
C370 C374 1.524 . S
C371 C363 1.503 . S
C371 C370 1.370 1_565 S
C371 C372 1.403 . S
C372 C371 1.403 . S
C372 C373 1.404 . S
C372 C375 1.539 . S
C373 C369 1.408 1_565 S
C373 C372 1.404 . S
C373 H385 0.930 . S
C374 C370 1.524 . S
C374 H386 0.956 . S
C374 H387 0.961 . S
C374 H388 0.961 . S
C375 C372 1.539 . S
C375 H389 0.958 . S
C375 H390 0.961 . S
C375 H391 0.960 . S
H376 C360 0.922 1_545 S
H377 C365 0.929 . S
H378 C366 0.962 1_565 S
H379 C366 0.958 . S
H380 C366 0.962 1_565 S
H381 C367 0.961 . S
H382 C367 0.961 . S
H383 C367 0.961 . S
H384 C368 0.931 . S
H385 C373 0.930 . S
H386 C374 0.956 . S
H387 C374 0.961 . S
H388 C374 0.961 . S
H389 C375 0.958 . S
H390 C375 0.961 . S
H391 C375 0.960 . S
C392 C393 1.391 . S
C392 C394 1.394 . S
C392 H408 0.931 . S
C393 C392 1.391 . S
C393 C397 1.376 1_554 S
C394 C392 1.394 . S
C394 C395 1.369 1_554 S
C394 C398 1.531 . S
C395 C394 1.369 1_556 S
C395 C396 1.410 . S
C395 C403 1.503 . S
C396 C395 1.410 . S
C396 C397 1.392 . S
C396 C399 1.511 . S
C397 C393 1.376 1_556 S
C397 C396 1.392 . S
C397 H409 0.929 . S
C398 C394 1.531 . S
C398 H410 0.960 . S
C398 H411 0.962 . S
C398 H412 0.960 . S
C399 C396 1.511 . S
C399 H413 0.961 . S
C399 H414 0.961 . S
C399 H415 0.961 . S
C400 C401 1.370 . S
C400 C402 1.363 . S
C400 H416 0.931 . S
C401 C400 1.370 . S
C401 C405 1.408 . S
C402 C400 1.363 . S
C402 C403 1.370 . S
C402 C406 1.524 . S
C403 C395 1.503 . S
C403 C402 1.370 . S
C403 C404 1.403 . S
C404 C403 1.403 . S
C404 C405 1.404 . S
C404 C407 1.539 . S
C405 C401 1.408 . S
C405 C404 1.404 . S
C405 H417 0.930 . S
C406 C402 1.524 . S
C406 H418 0.956 . S
C406 H419 0.961 . S
C406 H420 0.961 . S
C407 C404 1.539 . S
C407 H421 0.958 1_556 S
C407 H422 0.961 . S
C407 H423 0.960 . S
H408 C392 0.931 . S
H409 C397 0.929 . S
H410 C398 0.960 . S
H411 C398 0.962 . S
H412 C398 0.960 . S
H413 C399 0.961 . S
H414 C399 0.961 . S
H415 C399 0.961 . S
H416 C400 0.931 . S
H417 C405 0.930 . S
H418 C406 0.956 . S
H419 C406 0.961 . S
H420 C406 0.961 . S
H421 C407 0.958 1_554 S
H422 C407 0.961 . S
H423 C407 0.960 . S
C424 C425 1.391 . S
C424 C426 1.394 1_554 S
C424 H440 0.931 . S
C425 C424 1.391 . S
C425 C429 1.376 . S
C426 C424 1.394 1_556 S
C426 C427 1.369 . S
C426 C430 1.531 . S
C427 C426 1.369 . S
C427 C428 1.410 1_556 S
C427 C435 1.503 . S
C428 C427 1.410 1_554 S
C428 C429 1.392 . S
C428 C431 1.511 . S
C429 C425 1.376 . S
C429 C428 1.392 . S
C429 H441 0.929 . S
C430 C426 1.531 . S
C430 H442 0.960 . S
C430 H443 0.962 . S
C430 H444 0.960 . S
C431 C428 1.511 . S
C431 H445 0.961 . S
C431 H446 0.961 . S
C431 H447 0.961 1_554 S
C432 C433 1.370 . S
C432 C434 1.363 . S
C432 H448 0.931 . S
C433 C432 1.370 . S
C433 C437 1.408 . S
C434 C432 1.363 . S
C434 C435 1.370 . S
C434 C438 1.524 1_556 S
C435 C427 1.503 . S
C435 C434 1.370 . S
C435 C436 1.403 . S
C436 C435 1.403 . S
C436 C437 1.404 . S
C436 C439 1.539 . S
C437 C433 1.408 . S
C437 C436 1.404 . S
C437 H449 0.930 . S
C438 C434 1.524 1_554 S
C438 H450 0.956 . S
C438 H451 0.961 . S
C438 H452 0.961 . S
C439 C436 1.539 . S
C439 H453 0.958 . S
C439 H454 0.961 . S
C439 H455 0.960 . S
H440 C424 0.931 . S
H441 C429 0.929 . S
H442 C430 0.960 . S
H443 C430 0.962 . S
H444 C430 0.960 . S
H445 C431 0.961 . S
H446 C431 0.961 . S
H447 C431 0.961 1_556 S
H448 C432 0.931 . S
H449 C437 0.930 . S
H450 C438 0.956 . S
H451 C438 0.961 . S
H452 C438 0.961 . S
H453 C439 0.958 . S
H454 C439 0.961 . S
H455 C439 0.960 . S
C456 C457 1.391 . S
C456 C458 1.394 . S
C456 H472 0.931 1_556 S
C457 C456 1.391 . S
C457 C461 1.376 . S
C458 C456 1.394 . S
C458 C459 1.369 . S
C458 C462 1.531 1_655 S
C459 C458 1.369 . S
C459 C460 1.410 . S
C459 C467 1.503 . S
C460 C459 1.410 . S
C460 C461 1.392 . S
C460 C463 1.511 . S
C461 C457 1.376 . S
C461 C460 1.392 . S
C461 H473 0.929 . S
C462 C458 1.531 1_455 S
C462 H474 0.960 . S
C462 H475 0.962 . S
C462 H476 0.960 1_556 S
C463 C460 1.511 . S
C463 H477 0.961 . S
C463 H478 0.961 . S
C463 H479 0.961 . S
C464 C465 1.370 1_455 S
C464 C466 1.363 . S
C464 H480 0.931 . S
C465 C464 1.370 1_655 S
C465 C469 1.408 . S
C466 C464 1.363 . S
C466 C467 1.370 1_455 S
C466 C470 1.524 . S
C467 C459 1.503 . S
C467 C466 1.370 1_655 S
C467 C468 1.403 . S
C468 C467 1.403 . S
C468 C469 1.404 . S
C468 C471 1.539 . S
C469 C465 1.408 . S
C469 C468 1.404 . S
C469 H481 0.930 . S
C470 C466 1.524 . S
C470 H482 0.956 . S
C470 H483 0.961 . S
C470 H484 0.961 . S
C471 C468 1.539 . S
C471 H485 0.958 1_556 S
C471 H486 0.961 . S
C471 H487 0.960 . S
H472 C456 0.931 1_554 S
H473 C461 0.929 . S
H474 C462 0.960 . S
H475 C462 0.962 . S
H476 C462 0.960 1_554 S
H477 C463 0.961 . S
H478 C463 0.961 . S
H479 C463 0.961 . S
H480 C464 0.931 . S
H481 C469 0.930 . S
H482 C470 0.956 . S
H483 C470 0.961 . S
H484 C470 0.961 . S
H485 C471 0.958 1_554 S
H486 C471 0.961 . S
H487 C471 0.960 . S
C488 C489 1.391 . S
C488 C490 1.394 . S
C488 H504 0.931 . S
C489 C488 1.391 . S
C489 C493 1.376 . S
C490 C488 1.394 . S
C490 C491 1.369 . S
C490 C494 1.531 . S
C491 C490 1.369 . S
C491 C492 1.410 . S
C491 C499 1.503 . S
C492 C491 1.410 . S
C492 C493 1.392 . S
C492 C495 1.469 1_455 S
C493 C489 1.376 . S
C493 C492 1.392 . S
C493 H505 0.929 . S
C494 C490 1.531 . S
C494 H506 0.960 . S
C494 H507 0.962 . S
C494 H508 0.960 . S
C495 C492 1.469 1_655 S
C495 H509 0.972 . S
C495 H510 0.963 . S
C495 H511 0.993 . S
C496 C497 1.370 . S
C496 C498 1.363 . S
C496 H512 0.931 . S
C497 C496 1.370 . S
C497 C501 1.408 . S
C498 C496 1.363 . S
C498 C499 1.370 . S
C498 C502 1.524 . S
C499 C491 1.503 . S
C499 C498 1.370 . S
C499 C500 1.403 . S
C500 C499 1.403 . S
C500 C501 1.404 . S
C500 C503 1.539 . S
C501 C497 1.408 . S
C501 C500 1.404 . S
C501 H513 0.930 1_455 S
C502 C498 1.524 . S
C502 H514 0.956 . S
C502 H515 0.961 . S
C502 H516 0.961 . S
C503 C500 1.539 . S
C503 H517 0.958 . S
C503 H518 0.961 1_455 S
C503 H519 0.960 . S
H504 C488 0.931 . S
H505 C493 0.929 . S
H506 C494 0.960 . S
H507 C494 0.962 . S
H508 C494 0.960 . S
H509 C495 0.972 . S
H510 C495 0.963 . S
H511 C495 0.993 . S
H512 C496 0.931 . S
H513 C501 0.930 1_655 S
H514 C502 0.956 . S
H515 C502 0.961 . S
H516 C502 0.961 . S
H517 C503 0.958 . S
H518 C503 0.961 1_655 S
H519 C503 0.960 . S
C520 C521 1.391 . S
C520 C522 1.394 . S
C520 H536 0.931 . S
C521 C520 1.391 . S
C521 C525 1.376 1_565 S
C522 C520 1.394 . S
C522 C523 1.369 . S
C522 C526 1.531 . S
C523 C522 1.369 . S
C523 C524 1.410 1_565 S
C523 C531 1.503 . S
C524 C523 1.410 1_545 S
C524 C525 1.392 . S
C524 C527 1.511 . S
C525 C521 1.376 1_545 S
C525 C524 1.392 . S
C525 H537 0.929 . S
C526 C522 1.531 . S
C526 H538 0.960 . S
C526 H539 0.962 . S
C526 H540 0.960 . S
C527 C524 1.511 . S
C527 H541 0.961 . S
C527 H542 0.961 . S
C527 H543 0.961 . S
C528 C529 1.370 1_545 S
C528 C530 1.363 . S
C528 H544 0.931 . S
C529 C528 1.370 1_565 S
C529 C533 1.408 . S
C530 C528 1.363 . S
C530 C531 1.370 1_545 S
C530 C534 1.524 . S
C531 C523 1.503 . S
C531 C530 1.370 1_565 S
C531 C532 1.403 . S
C532 C531 1.403 . S
C532 C533 1.404 . S
C532 C535 1.539 . S
C533 C529 1.408 . S
C533 C532 1.404 . S
C533 H545 0.930 . S
C534 C530 1.524 . S
C534 H546 0.956 . S
C534 H547 0.961 . S
C534 H548 0.961 . S
C535 C532 1.539 . S
C535 H549 0.958 . S
C535 H550 0.961 . S
C535 H551 0.960 . S
H536 C520 0.931 . S
H537 C525 0.929 . S
H538 C526 0.960 . S
H539 C526 0.962 . S
H540 C526 0.960 . S
H541 C527 0.961 . S
H542 C527 0.961 . S
H543 C527 0.961 . S
H544 C528 0.931 . S
H545 C533 0.930 . S
H546 C534 0.956 . S
H547 C534 0.961 . S
H548 C534 0.961 . S
H549 C535 0.958 . S
H550 C535 0.961 . S
H551 C535 0.960 . S
C552 C553 1.391 . S
C552 C554 1.394 . S
C552 H568 0.931 . S
C553 C552 1.391 . S
C553 C557 1.376 . S
C554 C552 1.394 . S
C554 C555 1.369 . S
C554 C558 1.531 . S
C555 C554 1.369 . S
C555 C556 1.410 . S
C555 C563 1.503 . S
C556 C555 1.410 . S
C556 C557 1.392 . S
C556 C559 1.511 . S
C557 C553 1.376 . S
C557 C556 1.392 . S
C557 H569 0.929 . S
C558 C554 1.531 . S
C558 H570 0.960 . S
C558 H571 0.962 . S
C558 H572 0.960 . S
C559 C556 1.511 . S
C559 H573 0.961 . S
C559 H574 0.961 . S
C559 H575 0.961 . S
C560 C561 1.370 . S
C560 C562 1.363 . S
C560 H576 0.931 . S
C561 C560 1.370 . S
C561 C565 1.408 . S
C562 C560 1.363 . S
C562 C563 1.370 . S
C562 C566 1.524 . S
C563 C555 1.503 . S
C563 C562 1.370 . S
C563 C564 1.403 . S
C564 C563 1.403 . S
C564 C565 1.404 . S
C564 C567 1.539 . S
C565 C561 1.408 . S
C565 C564 1.404 . S
C565 H577 0.930 . S
C566 C562 1.524 . S
C566 H578 0.956 . S
C566 H579 0.961 . S
C566 H580 0.961 . S
C567 C564 1.539 . S
C567 H581 0.958 . S
C567 H582 0.961 . S
C567 H583 0.960 . S
H568 C552 0.931 . S
H569 C557 0.929 . S
H570 C558 0.960 . S
H571 C558 0.962 . S
H572 C558 0.960 . S
H573 C559 0.961 . S
H574 C559 0.961 . S
H575 C559 0.961 . S
H576 C560 0.931 . S
H577 C565 0.930 . S
H578 C566 0.956 . S
H579 C566 0.961 . S
H580 C566 0.961 . S
H581 C567 0.958 . S
H582 C567 0.961 . S
H583 C567 0.960 . S
C584 C585 1.391 . S
C584 C586 1.394 . S
C584 H600 0.931 . S
C585 C584 1.391 . S
C585 C589 1.376 . S
C586 C584 1.394 . S
C586 C587 1.369 . S
C586 C590 1.531 . S
C587 C586 1.369 . S
C587 C588 1.410 . S
C587 C595 1.503 . S
C588 C587 1.410 . S
C588 C589 1.392 . S
C588 C591 1.511 . S
C589 C585 1.376 . S
C589 C588 1.392 . S
C589 H601 0.929 . S
C590 C586 1.531 . S
C590 H602 0.960 . S
C590 H603 0.962 . S
C590 H604 0.960 . S
C591 C588 1.511 . S
C591 H605 0.961 . S
C591 H606 0.961 . S
C591 H607 0.961 . S
C592 C593 1.370 . S
C592 C594 1.363 . S
C592 H608 0.931 . S
C593 C592 1.370 . S
C593 C597 1.408 . S
C594 C592 1.363 . S
C594 C595 1.370 . S
C594 C598 1.524 . S
C595 C587 1.503 . S
C595 C594 1.370 . S
C595 C596 1.403 . S
C596 C595 1.403 . S
C596 C597 1.404 . S
C596 C599 1.539 . S
C597 C593 1.408 . S
C597 C596 1.404 . S
C597 H609 0.930 . S
C598 C594 1.524 . S
C598 H610 0.956 . S
C598 H611 0.961 . S
C598 H612 0.961 . S
C599 C596 1.539 . S
C599 H613 0.958 . S
C599 H614 0.961 . S
C599 H615 0.960 . S
H600 C584 0.931 . S
H601 C589 0.929 . S
H602 C590 0.960 . S
H603 C590 0.962 . S
H604 C590 0.960 . S
H605 C591 0.961 . S
H606 C591 0.961 . S
H607 C591 0.961 . S
H608 C592 0.931 . S
H609 C597 0.930 . S
H610 C598 0.956 . S
H611 C598 0.961 . S
H612 C598 0.961 . S
H613 C599 0.958 . S
H614 C599 0.961 . S
H615 C599 0.960 . S
C616 C617 1.391 . S
C616 C618 1.394 . S
C616 H632 0.931 1_556 S
C617 C616 1.391 . S
C617 C621 1.376 . S
C618 C616 1.394 . S
C618 C619 1.369 . S
C618 C622 1.531 1_556 S
C619 C618 1.369 . S
C619 C620 1.410 . S
C619 C627 1.503 . S
C620 C619 1.410 . S
C620 C621 1.392 . S
C620 C623 1.511 1_655 S
C621 C617 1.376 . S
C621 C620 1.392 . S
C621 H633 0.929 . S
C622 C618 1.531 1_554 S
C622 H634 0.960 . S
C622 H635 0.962 1_554 S
C622 H636 0.960 . S
C623 C620 1.511 1_455 S
C623 H637 0.961 . S
C623 H638 0.961 . S
C623 H639 0.961 . S
C624 C625 1.370 1_655 S
C624 C626 1.363 . S
C624 H640 0.931 . S
C625 C624 1.370 1_455 S
C625 C629 1.408 . S
C626 C624 1.363 . S
C626 C627 1.370 . S
C626 C630 1.524 . S
C627 C619 1.503 . S
C627 C626 1.370 . S
C627 C628 1.403 1_655 S
C628 C627 1.403 1_455 S
C628 C629 1.404 . S
C628 C631 1.539 . S
C629 C625 1.408 . S
C629 C628 1.404 . S
C629 H641 0.930 . S
C630 C626 1.524 . S
C630 H642 0.956 . S
C630 H643 0.961 . S
C630 H644 0.961 . S
C631 C628 1.539 . S
C631 H645 0.958 . S
C631 H646 0.961 . S
C631 H647 0.960 . S
H632 C616 0.931 1_554 S
H633 C621 0.929 . S
H634 C622 0.960 . S
H635 C622 0.962 1_556 S
H636 C622 0.960 . S
H637 C623 0.961 . S
H638 C623 0.961 . S
H639 C623 0.961 . S
H640 C624 0.931 . S
H641 C629 0.930 . S
H642 C630 0.956 . S
H643 C630 0.961 . S
H644 C630 0.961 . S
H645 C631 0.958 . S
H646 C631 0.961 . S
H647 C631 0.960 . S
C648 C649 1.391 1_546 S
C648 C650 1.394 . S
C648 H664 0.931 . S
C649 C648 1.391 1_564 S
C649 C653 1.376 . S
C650 C648 1.394 . S
C650 C651 1.369 1_545 S
C650 C654 1.531 . S
C651 C650 1.369 1_565 S
C651 C652 1.410 1_556 S
C651 C659 1.505 . S
C652 C651 1.410 1_554 S
C652 C653 1.392 . S
C652 C655 1.511 . S
C653 C649 1.376 . S
C653 C652 1.392 . S
C653 H665 0.929 . S
C654 C650 1.531 . S
C654 H666 0.960 . S
C654 H667 0.962 . S
C654 H668 0.960 . S
C655 C652 1.511 . S
C655 H669 0.961 . S
C655 H670 0.961 . S
C655 H671 0.961 . S
C656 C657 1.370 . S
C656 C658 1.363 . S
C656 H672 0.931 . S
C657 C656 1.370 . S
C657 C661 1.408 1_545 S
C658 C656 1.363 . S
C658 C659 1.347 1_545 S
C658 C662 1.524 . S
C659 C651 1.505 . S
C659 C658 1.347 1_565 S
C659 C660 1.424 . S
C660 C659 1.424 . S
C660 C661 1.404 . S
C660 C663 1.539 . S
C661 C657 1.408 1_565 S
C661 C660 1.404 . S
C661 H673 0.930 . S
C662 C658 1.524 . S
C662 H674 0.956 . S
C662 H675 0.961 . S
C662 H676 0.961 . S
C663 C660 1.539 . S
C663 H677 0.958 . S
C663 H678 0.961 . S
C663 H679 0.960 . S
H664 C648 0.931 . S
H665 C653 0.929 . S
H666 C654 0.960 . S
H667 C654 0.962 . S
H668 C654 0.960 . S
H669 C655 0.961 . S
H670 C655 0.961 . S
H671 C655 0.961 . S
H672 C656 0.931 . S
H673 C661 0.930 . S
H674 C662 0.956 . S
H675 C662 0.961 . S
H676 C662 0.961 . S
H677 C663 0.958 . S
H678 C663 0.961 . S
H679 C663 0.960 . S
C680 C681 1.391 1_556 S
C680 C682 1.394 . S
C680 H696 0.931 . S
C681 C680 1.391 1_554 S
C681 C685 1.376 1_554 S
C682 C680 1.394 . S
C682 C683 1.369 . S
C682 C686 1.531 . S
C683 C682 1.369 . S
C683 C684 1.410 . S
C683 C691 1.503 . S
C684 C683 1.410 . S
C684 C685 1.392 . S
C684 C687 1.511 . S
C685 C681 1.376 1_556 S
C685 C684 1.392 . S
C685 H697 0.929 1_556 S
C686 C682 1.531 . S
C686 H698 0.960 . S
C686 H699 0.962 . S
C686 H700 0.960 . S
C687 C684 1.511 . S
C687 H701 0.961 . S
C687 H702 0.961 . S
C687 H703 0.961 . S
C688 C689 1.370 . S
C688 C690 1.363 . S
C688 H704 0.931 . S
C689 C688 1.370 . S
C689 C693 1.408 . S
C690 C688 1.363 . S
C690 C691 1.370 . S
C690 C694 1.524 1_556 S
C691 C683 1.503 . S
C691 C690 1.370 . S
C691 C692 1.403 . S
C692 C691 1.403 . S
C692 C693 1.404 . S
C692 C695 1.539 . S
C693 C689 1.408 . S
C693 C692 1.404 . S
C693 H705 0.930 . S
C694 C690 1.524 1_554 S
C694 H706 0.956 . S
C694 H707 0.961 . S
C694 H708 0.961 . S
C695 C692 1.539 . S
C695 H709 0.958 . S
C695 H710 0.961 . S
C695 H711 0.960 . S
H696 C680 0.931 . S
H697 C685 0.929 1_554 S
H698 C686 0.960 . S
H699 C686 0.962 . S
H700 C686 0.960 . S
H701 C687 0.961 . S
H702 C687 0.961 . S
H703 C687 0.961 . S
H704 C688 0.931 . S
H705 C693 0.930 . S
H706 C694 0.956 . S
H707 C694 0.961 . S
H708 C694 0.961 . S
H709 C695 0.958 . S
H710 C695 0.961 . S
H711 C695 0.960 . S
C712 C713 1.391 . S
C712 C714 1.394 1_554 S
C712 H728 0.931 1_554 S
C713 C712 1.391 . S
C713 C717 1.376 . S
C714 C712 1.394 1_556 S
C714 C715 1.369 . S
C714 C718 1.531 . S
C715 C714 1.369 . S
C715 C716 1.410 1_556 S
C715 C723 1.503 . S
C716 C715 1.410 1_554 S
C716 C717 1.392 . S
C716 C719 1.511 . S
C717 C713 1.376 . S
C717 C716 1.392 . S
C717 H729 0.929 . S
C718 C714 1.531 . S
C718 H730 0.960 . S
C718 H731 0.962 . S
C718 H732 0.960 . S
C719 C716 1.511 . S
C719 H733 0.961 . S
C719 H734 0.961 . S
C719 H735 0.961 . S
C720 C721 1.370 . S
C720 C722 1.363 . S
C720 H736 0.931 . S
C721 C720 1.370 . S
C721 C725 1.408 . S
C722 C720 1.363 . S
C722 C723 1.370 . S
C722 C726 1.524 . S
C723 C715 1.503 . S
C723 C722 1.370 . S
C723 C724 1.403 . S
C724 C723 1.403 . S
C724 C725 1.404 . S
C724 C727 1.539 . S
C725 C721 1.408 . S
C725 C724 1.404 . S
C725 H737 0.930 . S
C726 C722 1.524 . S
C726 H738 0.956 . S
C726 H739 0.961 1_556 S
C726 H740 0.961 . S
C727 C724 1.539 . S
C727 H741 0.958 . S
C727 H742 0.961 . S
C727 H743 0.960 . S
H728 C712 0.931 1_556 S
H729 C717 0.929 . S
H730 C718 0.960 . S
H731 C718 0.962 . S
H732 C718 0.960 . S
H733 C719 0.961 . S
H734 C719 0.961 . S
H735 C719 0.961 . S
H736 C720 0.931 . S
H737 C725 0.930 . S
H738 C726 0.956 . S
H739 C726 0.961 1_554 S
H740 C726 0.961 . S
H741 C727 0.958 . S
H742 C727 0.961 . S
H743 C727 0.960 . S
C744 C745 1.391 . S
C744 C746 1.394 . S
C744 H760 0.931 . S
C745 C744 1.391 . S
C745 C749 1.376 . S
C746 C744 1.394 . S
C746 C747 1.369 . S
C746 C750 1.531 . S
C747 C746 1.369 . S
C747 C748 1.410 . S
C747 C755 1.503 . S
C748 C747 1.410 . S
C748 C749 1.392 . S
C748 C751 1.511 . S
C749 C745 1.376 . S
C749 C748 1.392 . S
C749 H761 0.929 . S
C750 C746 1.531 . S
C750 H762 0.960 . S
C750 H763 0.962 . S
C750 H764 0.960 . S
C751 C748 1.511 . S
C751 H765 0.961 . S
C751 H766 0.961 . S
C751 H767 0.961 . S
C752 C753 1.370 . S
C752 C754 1.363 . S
C752 H768 0.931 . S
C753 C752 1.370 . S
C753 C757 1.408 . S
C754 C752 1.363 . S
C754 C755 1.370 . S
C754 C758 1.524 . S
C755 C747 1.503 . S
C755 C754 1.370 . S
C755 C756 1.403 . S
C756 C755 1.403 . S
C756 C757 1.404 . S
C756 C759 1.539 . S
C757 C753 1.408 . S
C757 C756 1.404 . S
C757 H769 0.930 . S
C758 C754 1.524 . S
C758 H770 0.956 . S
C758 H771 0.961 . S
C758 H772 0.961 1_455 S
C759 C756 1.539 . S
C759 H773 0.958 . S
C759 H774 0.961 . S
C759 H775 0.960 . S
H760 C744 0.931 . S
H761 C749 0.929 . S
H762 C750 0.960 . S
H763 C750 0.962 . S
H764 C750 0.960 . S
H765 C751 0.961 . S
H766 C751 0.961 . S
H767 C751 0.961 . S
H768 C752 0.931 . S
H769 C757 0.930 . S
H770 C758 0.956 . S
H771 C758 0.961 . S
H772 C758 0.961 1_655 S
H773 C759 0.958 . S
H774 C759 0.961 . S
H775 C759 0.960 . S
C776 C777 1.391 . S
C776 C778 1.394 . S
C776 H792 0.931 . S
C777 C776 1.391 . S
C777 C781 1.376 1_565 S
C778 C776 1.394 . S
C778 C779 1.369 . S
C778 C782 1.531 . S
C779 C778 1.369 . S
C779 C780 1.414 . S
C779 C787 1.503 . S
C780 C779 1.414 . S
C780 C781 1.388 1_565 S
C780 C783 1.512 1_564 S
C781 C777 1.376 1_545 S
C781 C780 1.388 1_545 S
C781 H793 0.931 . S
C782 C778 1.531 . S
C782 H794 0.960 . S
C782 H795 0.962 1_565 S
C782 H796 0.960 . S
C783 C780 1.512 1_546 S
C783 H797 0.961 . S
C783 H798 0.961 . S
C783 H799 0.961 1_545 S
C784 C785 1.370 . S
C784 C786 1.363 . S
C784 H800 0.931 . S
C785 C784 1.370 . S
C785 C789 1.408 1_545 S
C786 C784 1.363 . S
C786 C787 1.370 1_546 S
C786 C790 1.524 1_556 S
C787 C779 1.503 . S
C787 C786 1.370 1_564 S
C787 C788 1.403 1_554 S
C788 C787 1.403 1_556 S
C788 C789 1.404 . S
C788 C791 1.539 1_556 S
C789 C785 1.408 1_565 S
C789 C788 1.404 . S
C789 H801 0.930 . S
C790 C786 1.524 1_554 S
C790 H802 0.956 . S
C790 H803 0.961 . S
C790 H804 0.961 . S
C791 C788 1.539 1_554 S
C791 H805 0.958 . S
C791 H806 0.961 1_554 S
C791 H807 0.960 . S
H792 C776 0.931 . S
H793 C781 0.931 . S
H794 C782 0.960 . S
H795 C782 0.962 1_545 S
H796 C782 0.960 . S
H797 C783 0.961 . S
H798 C783 0.961 . S
H799 C783 0.961 1_565 S
H800 C784 0.931 . S
H801 C789 0.930 . S
H802 C790 0.956 . S
H803 C790 0.961 . S
H804 C790 0.961 . S
H805 C791 0.958 . S
H806 C791 0.961 1_556 S
H807 C791 0.960 . S
C808 C809 1.391 . S
C808 C810 1.394 . S
C808 H824 0.931 . S
C809 C808 1.391 . S
C809 C813 1.376 . S
C810 C808 1.394 . S
C810 C811 1.369 . S
C810 C814 1.531 . S
C811 C810 1.369 . S
C811 C812 1.410 . S
C811 C819 1.503 . S
C812 C811 1.410 . S
C812 C813 1.392 . S
C812 C815 1.511 1_554 S
C813 C809 1.376 . S
C813 C812 1.392 . S
C813 H825 0.929 . S
C814 C810 1.531 . S
C814 H826 0.960 . S
C814 H827 0.962 . S
C814 H828 0.960 . S
C815 C812 1.511 1_556 S
C815 H829 0.961 . S
C815 H830 0.961 . S
C815 H831 0.961 . S
C816 C817 1.370 . S
C816 C818 1.363 . S
C816 H832 0.931 . S
C817 C816 1.370 . S
C817 C821 1.408 . S
C818 C816 1.363 . S
C818 C819 1.370 1_556 S
C818 C822 1.524 . S
C819 C811 1.503 . S
C819 C818 1.370 1_554 S
C819 C820 1.403 . S
C820 C819 1.403 . S
C820 C821 1.404 1_554 S
C820 C823 1.539 . S
C821 C817 1.408 . S
C821 C820 1.404 1_556 S
C821 H833 0.930 . S
C822 C818 1.524 . S
C822 H834 0.956 1_556 S
C822 H835 0.961 . S
C822 H836 0.961 . S
C823 C820 1.539 . S
C823 H837 0.958 . S
C823 H838 0.961 . S
C823 H839 0.960 . S
H824 C808 0.931 . S
H825 C813 0.929 . S
H826 C814 0.960 . S
H827 C814 0.962 . S
H828 C814 0.960 . S
H829 C815 0.961 . S
H830 C815 0.961 . S
H831 C815 0.961 . S
H832 C816 0.931 . S
H833 C821 0.930 . S
H834 C822 0.956 1_554 S
H835 C822 0.961 . S
H836 C822 0.961 . S
H837 C823 0.958 . S
H838 C823 0.961 . S
H839 C823 0.960 . S
C840 C841 1.391 . S
C840 C842 1.394 . S
C840 H856 0.931 . S
C841 C840 1.391 . S
C841 C845 1.376 . S
C842 C840 1.394 . S
C842 C843 1.369 . S
C842 C846 1.531 . S
C843 C842 1.369 . S
C843 C844 1.410 . S
C843 C851 1.503 1_554 S
C844 C843 1.410 . S
C844 C845 1.392 . S
C844 C847 1.511 . S
C845 C841 1.376 . S
C845 C844 1.392 . S
C845 H857 0.929 . S
C846 C842 1.531 . S
C846 H858 0.960 . S
C846 H859 0.962 1_554 S
C846 H860 0.960 . S
C847 C844 1.511 . S
C847 H861 0.961 . S
C847 H862 0.961 . S
C847 H863 0.961 . S
C848 C849 1.370 . S
C848 C850 1.363 . S
C848 H864 0.931 . S
C849 C848 1.370 . S
C849 C853 1.408 . S
C850 C848 1.363 . S
C850 C851 1.370 . S
C850 C854 1.524 . S
C851 C843 1.503 1_556 S
C851 C850 1.370 . S
C851 C852 1.403 1_556 S
C852 C851 1.403 1_554 S
C852 C853 1.404 1_554 S
C852 C855 1.539 . S
C853 C849 1.408 . S
C853 C852 1.404 1_556 S
C853 H865 0.930 . S
C854 C850 1.524 . S
C854 H866 0.956 . S
C854 H867 0.961 . S
C854 H868 0.961 . S
C855 C852 1.539 . S
C855 H869 0.958 . S
C855 H870 0.961 . S
C855 H871 0.960 . S
H856 C840 0.931 . S
H857 C845 0.929 . S
H858 C846 0.960 . S
H859 C846 0.962 1_556 S
H860 C846 0.960 . S
H861 C847 0.961 . S
H862 C847 0.961 . S
H863 C847 0.961 . S
H864 C848 0.931 . S
H865 C853 0.930 . S
H866 C854 0.956 . S
H867 C854 0.961 . S
H868 C854 0.961 . S
H869 C855 0.958 . S
H870 C855 0.961 . S
H871 C855 0.960 . S
C872 C873 1.391 . S
C872 C874 1.394 . S
C872 H888 0.931 . S
C873 C872 1.391 . S
C873 C877 1.376 . S
C874 C872 1.394 . S
C874 C875 1.369 . S
C874 C878 1.527 1_655 S
C875 C874 1.369 . S
C875 C876 1.410 . S
C875 C883 1.503 . S
C876 C875 1.410 . S
C876 C877 1.392 . S
C876 C879 1.511 . S
C877 C873 1.376 . S
C877 C876 1.392 . S
C877 H889 0.929 . S
C878 C874 1.527 1_455 S
C878 H890 0.958 1_455 S
C878 H891 0.969 . S
C878 H892 0.961 . S
C879 C876 1.511 . S
C879 H893 0.961 . S
C879 H894 0.961 . S
C879 H895 0.961 . S
C880 C881 1.390 . S
C880 C882 1.371 . S
C880 H896 0.904 1_655 S
C881 C880 1.390 . S
C881 C885 1.408 . S
C882 C880 1.371 . S
C882 C883 1.370 . S
C882 C886 1.524 1_655 S
C883 C875 1.503 . S
C883 C882 1.370 . S
C883 C884 1.403 . S
C884 C883 1.403 . S
C884 C885 1.404 . S
C884 C887 1.539 . S
C885 C881 1.408 . S
C885 C884 1.404 . S
C885 H897 0.930 . S
C886 C882 1.524 1_455 S
C886 H898 0.956 . S
C886 H899 0.961 . S
C886 H900 0.961 . S
C887 C884 1.539 . S
C887 H901 0.958 . S
C887 H902 0.961 . S
C887 H903 0.960 . S
H888 C872 0.931 . S
H889 C877 0.929 . S
H890 C878 0.958 1_655 S
H891 C878 0.969 . S
H892 C878 0.961 . S
H893 C879 0.961 . S
H894 C879 0.961 . S
H895 C879 0.961 . S
H896 C880 0.904 1_455 S
H897 C885 0.930 . S
H898 C886 0.956 . S
H899 C886 0.961 . S
H900 C886 0.961 . S
H901 C887 0.958 . S
H902 C887 0.961 . S
H903 C887 0.960 . S
C904 C905 1.391 1_565 S
C904 C906 1.394 . S
C904 H920 0.931 . S
C905 C904 1.391 1_545 S
C905 C909 1.376 . S
C906 C904 1.394 . S
C906 C907 1.369 1_565 S
C906 C910 1.531 . S
C907 C906 1.369 1_545 S
C907 C908 1.410 . S
C907 C915 1.504 . S
C908 C907 1.410 . S
C908 C909 1.392 . S
C908 C911 1.511 . S
C909 C905 1.376 . S
C909 C908 1.392 . S
C909 H921 0.929 . S
C910 C906 1.531 . S
C910 H922 0.960 . S
C910 H923 0.962 . S
C910 H924 0.960 . S
C911 C908 1.511 . S
C911 H925 0.961 . S
C911 H926 0.961 . S
C911 H927 0.961 . S
C912 C913 1.370 . S
C912 C914 1.363 . S
C912 H928 0.931 . S
C913 C912 1.370 . S
C913 C917 1.408 1_565 S
C914 C912 1.363 . S
C914 C915 1.354 1_565 S
C914 C918 1.524 . S
C915 C907 1.504 . S
C915 C914 1.354 1_545 S
C915 C916 1.419 . S
C916 C915 1.419 . S
C916 C917 1.404 . S
C916 C919 1.539 . S
C917 C913 1.408 1_545 S
C917 C916 1.404 . S
C917 H929 0.930 . S
C918 C914 1.524 . S
C918 H930 0.956 . S
C918 H931 0.961 . S
C918 H932 0.961 . S
C919 C916 1.539 . S
C919 H933 0.958 . S
C919 H934 0.961 . S
C919 H935 0.960 . S
H920 C904 0.931 . S
H921 C909 0.929 . S
H922 C910 0.960 . S
H923 C910 0.962 . S
H924 C910 0.960 . S
H925 C911 0.961 . S
H926 C911 0.961 . S
H927 C911 0.961 . S
H928 C912 0.931 . S
H929 C917 0.930 . S
H930 C918 0.956 . S
H931 C918 0.961 . S
H932 C918 0.961 . S
H933 C919 0.958 . S
H934 C919 0.961 . S
H935 C919 0.960 . S
C936 C937 1.391 . S
C936 C938 1.394 . S
C936 H952 0.931 . S
C937 C936 1.391 . S
C937 C941 1.376 . S
C938 C936 1.394 . S
C938 C939 1.369 . S
C938 C942 1.531 . S
C939 C938 1.369 . S
C939 C940 1.410 . S
C939 C947 1.503 . S
C940 C939 1.410 . S
C940 C941 1.392 . S
C940 C943 1.511 . S
C941 C937 1.376 . S
C941 C940 1.392 . S
C941 H953 0.929 . S
C942 C938 1.531 . S
C942 H954 0.960 . S
C942 H955 0.962 . S
C942 H956 0.960 . S
C943 C940 1.511 . S
C943 H957 0.961 . S
C943 H958 0.961 . S
C943 H959 0.961 . S
C944 C945 1.370 . S
C944 C946 1.363 . S
C944 H960 0.931 . S
C945 C944 1.370 . S
C945 C949 1.408 . S
C946 C944 1.363 . S
C946 C947 1.370 . S
C946 C950 1.524 . S
C947 C939 1.503 . S
C947 C946 1.370 . S
C947 C948 1.403 . S
C948 C947 1.403 . S
C948 C949 1.404 . S
C948 C951 1.539 . S
C949 C945 1.408 . S
C949 C948 1.404 . S
C949 H961 0.930 . S
C950 C946 1.524 . S
C950 H962 0.956 . S
C950 H963 0.961 . S
C950 H964 0.961 . S
C951 C948 1.539 . S
C951 H965 0.958 . S
C951 H966 0.961 . S
C951 H967 0.960 . S
H952 C936 0.931 . S
H953 C941 0.929 . S
H954 C942 0.960 . S
H955 C942 0.962 . S
H956 C942 0.960 . S
H957 C943 0.961 . S
H958 C943 0.961 . S
H959 C943 0.961 . S
H960 C944 0.931 . S
H961 C949 0.930 . S
H962 C950 0.956 . S
H963 C950 0.961 . S
H964 C950 0.961 . S
H965 C951 0.958 . S
H966 C951 0.961 . S
H967 C951 0.960 . S
C968 C969 1.391 . S
C968 C970 1.394 . S
C968 H984 0.931 . S
C969 C968 1.391 . S
C969 C973 1.376 . S
C970 C968 1.394 . S
C970 C971 1.369 . S
C970 C974 1.531 . S
C971 C970 1.369 . S
C971 C972 1.410 . S
C971 C979 1.503 . S
C972 C971 1.410 . S
C972 C973 1.392 . S
C972 C975 1.511 . S
C973 C969 1.376 . S
C973 C972 1.392 . S
C973 H985 0.929 . S
C974 C970 1.531 . S
C974 H986 0.960 . S
C974 H987 0.962 . S
C974 H988 0.960 . S
C975 C972 1.511 . S
C975 H989 0.961 . S
C975 H990 0.961 . S
C975 H991 0.961 . S
C976 C977 1.370 . S
C976 C978 1.363 . S
C976 H992 0.931 . S
C977 C976 1.370 . S
C977 C981 1.408 . S
C978 C976 1.363 . S
C978 C979 1.370 . S
C978 C982 1.524 . S
C979 C971 1.503 . S
C979 C978 1.370 . S
C979 C980 1.403 . S
C980 C979 1.403 . S
C980 C981 1.404 . S
C980 C983 1.539 . S
C981 C977 1.408 . S
C981 C980 1.404 . S
C981 H993 0.930 . S
C982 C978 1.524 . S
C982 H994 0.956 . S
C982 H995 0.961 . S
C982 H996 0.961 . S
C983 C980 1.539 . S
C983 H997 0.958 . S
C983 H998 0.961 . S
C983 H999 0.960 . S
H984 C968 0.931 . S
H985 C973 0.929 . S
H986 C974 0.960 . S
H987 C974 0.962 . S
H988 C974 0.960 . S
H989 C975 0.961 . S
H990 C975 0.961 . S
H991 C975 0.961 . S
H992 C976 0.931 . S
H993 C981 0.930 . S
H994 C982 0.956 . S
H995 C982 0.961 . S
H996 C982 0.961 . S
H997 C983 0.958 . S
H998 C983 0.961 . S
H999 C983 0.960 . S
C233 C76 1.822 1_545 S
C241 C113 1.881 . S
C273 C134 1.549 . S
C265 C88 1.485 . S
C305 C168 1.387 . S
C297 C52 1.303 . S
C337 C202 1.546 . S
C329 C64 1.505 . S
C369 C104 1.880 . S
C361 C28 1.842 1_556 S
C393 C40 1.533 . S
C401 C143 1.549 . S
C425 C4 1.298 . S
C433 C177 1.388 . S
C457 C16 1.539 . S
C465 C211 1.541 1_655 S
C497 C125 0.498 . S
C489 C69 0.643 . S
C529 C130 0.981 . S
C521 C81 0.931 1_565 S
C561 C164 0.902 . S
C553 C93 0.915 . S
C585 C57 0.441 . S
C593 C198 0.396 . S
C617 C21 0.495 . S
C625 C96 0.531 . S
C657 C159 0.970 . S
C649 C33 0.973 1_565 S
C689 C193 0.889 . S
C681 C45 0.931 . S
C713 C9 0.445 . S
C721 C227 0.371 . S
C745 C66 1.297 . S
C753 C109 1.328 . S
C777 C78 1.719 1_565 S
C785 C138 1.760 . S
C817 C172 1.550 . S
C809 C90 1.507 . S
C849 C206 1.617 . S
C841 C54 1.536 . S
C873 C18 1.276 . S
C881 C100 1.336 . S
C913 C147 1.760 . S
C905 C30 1.731 . S
C945 C181 1.555 . S
C937 C42 1.496 . S
C969 C6 1.548 . S
C977 C215 1.615 . S
