# Generated by pormake.
# Topology tsx, (6,3)-cn, num edge types: 1
# Building blocks:
#     Node 0, Type 0, BuildingBlock: CIFDUS_clean_sbu_1, # of connection points: 6
#     Node 1, Type 0, BuildingBlock: CIFDUS_clean_sbu_1, # of connection points: 6
#     Node 2, Type 1, BuildingBlock: KAKCAD_clean_linker_0, # of connection points: 3
#     Node 3, Type 1, BuildingBlock: KAKCAD_clean_linker_0, # of connection points: 3
#     Node 4, Type 1, BuildingBlock: KAKCAD_clean_linker_0, # of connection points: 3
#     Node 5, Type 1, BuildingBlock: KAKCAD_clean_linker_0, # of connection points: 3
#     Edge 6, Type (0, 1), BuildingBlock: ZUJKAS_clean_linker_0, # of connection points: 2
#     Edge 7, Type (0, 1), BuildingBlock: ZUJKAS_clean_linker_0, # of connection points: 2
#     Edge 8, Type (0, 1), BuildingBlock: ZUJKAS_clean_linker_0, # of connection points: 2
#     Edge 9, Type (0, 1), BuildingBlock: ZUJKAS_clean_linker_0, # of connection points: 2
#     Edge 10, Type (0, 1), BuildingBlock: ZUJKAS_clean_linker_0, # of connection points: 2
#     Edge 11, Type (0, 1), BuildingBlock: ZUJKAS_clean_linker_0, # of connection points: 2
#     Edge 12, Type (0, 1), BuildingBlock: ZUJKAS_clean_linker_0, # of connection points: 2
#     Edge 13, Type (0, 1), BuildingBlock: ZUJKAS_clean_linker_0, # of connection points: 2
#     Edge 14, Type (0, 1), BuildingBlock: ZUJKAS_clean_linker_0, # of connection points: 2
#     Edge 15, Type (0, 1), BuildingBlock: ZUJKAS_clean_linker_0, # of connection points: 2
#     Edge 16, Type (0, 1), BuildingBlock: ZUJKAS_clean_linker_0, # of connection points: 2
#     Edge 17, Type (0, 1), BuildingBlock: ZUJKAS_clean_linker_0, # of connection points: 2
# Relax obj value: 0.127
# Max RMSD: 0.156
# Mean RMSD: 0.118
data_MOF--net-tsx--node1-CIFDUS_clean_sbu_1--node2-KAKCAD_clean_linker_0--edge1-ZUJKAS_clean_linker_0
_symmetry_space_group_name_H-M    P1
_symmetry_Int_Tables_number       1
_symmetry_cell_setting            triclinic
loop_
_symmetry_equiv_pos_as_xyz
'x, y, z'
_cell_length_a     27.358415
_cell_length_b     33.827223
_cell_length_c     55.942919
_cell_angle_alpha  97.13893
_cell_angle_beta   91.518239
_cell_angle_gamma 91.10343
loop_
_atom_site_label
_atom_site_type_symbol
_atom_site_fract_x
_atom_site_fract_y
_atom_site_fract_z
_atom_type_partial_charge
O0 O 1.00898 0.09377 0.01431 0.0
Mn1 Mn 0.04454 0.03887 0.00879 0.0
O2 O 0.93074 0.0825 0.00115 0.0
Mn3 Mn 0.94052 0.03219 0.98514 0.0
O4 O 0.07983 0.98368 0.00266 0.0
O5 O 0.10836 0.0695 0.01389 0.0
Mn6 Mn 0.15008 0.04352 0.0302 0.0
O7 O 0.04227 0.03411 0.04569 0.0
O8 O 0.15982 -0.0038 0.01096 0.0
O9 O 0.04787 0.04311 0.97183 0.0
O10 O 0.97169 0.03118 0.95609 0.0
O11 O 0.18192 0.0902 0.02503 0.0
O12 O 0.12074 0.03887 0.05933 0.0
C13 C 0.94694 0.98147 0.0044 0.0
C14 C 0.96489 0.10527 0.01128 0.0
C15 C 0.12476 0.97295 0.00243 0.0
C16 C 0.14119 0.09752 0.01435 0.0
C17 C 0.07501 0.03454 0.06271 0.0
C18 C 0.01728 0.03785 0.95378 0.0
O19 O 0.98042 0.0087 0.00387 0.0
O20 O 0.90723 0.98738 0.9924 0.0
O21 O 0.50901 0.58872 0.51289 0.0
Mn22 Mn 0.54523 0.53402 0.50643 0.0
O23 O 0.42959 0.57557 0.50259 0.0
Mn24 Mn 0.43923 0.5264 0.48521 0.0
O25 O 0.58023 0.4789 0.49943 0.0
O26 O 0.60917 0.56507 0.51002 0.0
Mn27 Mn 0.65219 0.53828 0.5252 0.0
O28 O 0.54659 0.52934 0.54338 0.0
O29 O 0.66068 0.49082 0.50591 0.0
O30 O 0.54493 0.53838 0.46946 0.0
O31 O 0.46743 0.52711 0.45547 0.0
O32 O 0.68445 0.58409 0.51918 0.0
O33 O 0.62615 0.53416 0.55516 0.0
C34 C 0.449 0.47529 0.5038 0.0
C35 C 0.46399 0.59911 0.5117 0.0
C36 C 0.6249 0.46778 0.49821 0.0
C37 C 0.64282 0.59237 0.50969 0.0
C38 C 0.58089 0.53005 0.55966 0.0
C39 C 0.51268 0.53372 0.45214 0.0
O40 O 0.48155 0.50308 0.50276 0.0
O41 O 0.40814 0.48073 0.49265 0.0
C42 C 0.0316 0.97356 0.32406 0.0
C43 C 0.03077 0.00924 0.31356 0.0
C44 C 0.03444 0.97435 0.34915 0.0
C45 C 0.03623 0.01084 0.36425 0.0
C46 C 0.03593 0.04647 0.35372 0.0
C47 C 0.03322 0.04568 0.32871 0.0
C48 C 0.03672 0.01198 0.39092 0.0
C49 C 0.06647 0.98655 0.40266 0.0
C50 C 0.06695 0.98781 0.42795 0.0
C51 C 0.03658 0.01485 0.44149 0.0
C52 C 1.00688 0.04055 0.4299 0.0
C53 C 1.00722 0.03887 0.40475 0.0
C54 C 0.97485 0.06959 0.44345 0.0
C55 C 0.93574 0.05669 0.45651 0.0
C56 C 0.97946 0.11011 0.44059 0.0
C57 C 0.94454 0.13705 0.44972 0.0
C58 C 0.90385 0.12399 0.46167 0.0
C59 C 0.10023 0.9614 0.43992 0.0
C60 C 0.10596 0.92163 0.42985 0.0
C61 C 0.12844 0.97612 0.46063 0.0
C62 C 0.16274 0.95198 0.47051 0.0
C63 C 0.16956 0.91258 0.45991 0.0
C64 C 0.14007 0.89757 0.43971 0.0
C65 C 0.90026 0.08364 0.4654 0.0
H66 H 0.03032 0.94499 0.31289 0.0
H67 H 0.03426 0.9464 0.35672 0.0
H68 H 0.0378 0.07508 0.36484 0.0
H69 H 0.03222 0.07371 0.32125 0.0
H70 H 0.09044 0.96657 0.39209 0.0
H71 H 0.98344 0.05818 0.39586 0.0
H72 H 0.03617 0.01607 0.46094 0.0
H73 H 0.93126 0.02547 0.45872 0.0
H74 H 1.0092 0.12065 0.43045 0.0
H75 H 0.94815 0.16779 0.44631 0.0
H76 H 0.08415 0.90909 0.41419 0.0
H77 H 0.12523 0.00672 0.46871 0.0
H78 H 0.86946 0.0728 0.47468 0.0
H79 H 0.14335 0.86708 0.43144 0.0
H80 H 0.18495 0.96458 0.48601 0.0
C81 C 0.06424 0.08791 0.69393 0.0
C82 C 0.0701 0.05222 0.70404 0.0
C83 C 0.05738 0.08735 0.66905 0.0
C84 C 0.05593 0.05108 0.65374 0.0
C85 C 0.0613 0.01535 0.66385 0.0
C86 C 0.06848 0.01593 0.68873 0.0
C87 C 0.05023 0.05059 0.62722 0.0
C88 C 0.0772 0.07753 0.61547 0.0
C89 C 0.07323 0.07709 0.59039 0.0
C90 C 0.04177 0.04883 0.57676 0.0
C91 C 0.01381 0.02162 0.58834 0.0
C92 C 0.0184 0.02306 0.6136 0.0
C93 C 0.9788 0.99203 0.57472 0.0
C94 C 0.94809 0.00238 0.55595 0.0
C95 C 0.97305 0.95382 0.58191 0.0
C96 C 0.93564 0.92782 0.57193 0.0
C97 C 0.90347 0.93889 0.55411 0.0
C98 C 0.10327 0.10643 0.57922 0.0
C99 C 0.10204 0.1469 0.58853 0.0
C100 C 0.13842 0.09397 0.5622 0.0
C101 C 0.17383 0.12115 0.55589 0.0
C102 C 0.17454 0.16118 0.56653 0.0
C103 C 0.13711 0.17394 0.58222 0.0
C104 C 0.91088 0.9759 0.54564 0.0
H105 H 0.06558 0.11635 0.70524 0.0
H106 H 0.05297 0.11534 0.66179 0.0
H107 H 0.06076 0.98697 0.65249 0.0
H108 H 0.07229 0.9879 0.69602 0.0
H109 H 0.10251 0.09846 0.62587 0.0
H110 H 0.99622 0.00328 0.62291 0.0
H111 H 0.03904 0.04818 0.55736 0.0
H112 H 0.95132 0.03154 0.54999 0.0
H113 H 0.99683 0.94425 0.59578 0.0
H114 H 0.93133 0.89912 0.57843 0.0
H115 H 0.07508 0.1573 0.60157 0.0
H116 H 0.14036 0.06284 0.55494 0.0
H117 H 0.88659 0.98503 0.53183 0.0
H118 H 0.13574 0.20472 0.59024 0.0
H119 H 0.20212 0.11038 0.54372 0.0
C120 C 0.53693 0.47164 0.82257 0.0
C121 C 0.53649 0.50733 0.81205 0.0
C122 C 0.53877 0.47247 0.84768 0.0
C123 C 0.54015 0.50899 0.86275 0.0
C124 C 0.5413 0.54458 0.85219 0.0
C125 C 0.5395 0.54376 0.82718 0.0
C126 C 0.5375 0.51029 0.88935 0.0
C127 C 0.56562 0.4851 0.90207 0.0
C128 C 0.56226 0.48605 0.92729 0.0
C129 C 0.52991 0.51299 0.93966 0.0
C130 C 0.50244 0.53893 0.92711 0.0
C131 C 0.50622 0.53704 0.90207 0.0
C132 C 0.46966 0.56879 0.93952 0.0
C133 C 0.43098 0.55735 0.95339 0.0
C134 C 0.47369 0.60859 0.93498 0.0
C135 C 0.4383 0.63592 0.94287 0.0
C136 C 0.39768 0.62411 0.95537 0.0
C137 C 0.59351 0.45952 0.94048 0.0
C138 C 0.60501 0.4212 0.92959 0.0
C139 C 0.61372 0.47262 0.96359 0.0
C140 C 0.64512 0.44834 0.97523 0.0
C141 C 0.65765 0.41043 0.964 0.0
C142 C 0.63691 0.39726 0.94101 0.0
C143 C 0.39518 0.58483 0.96125 0.0
H144 H 0.53441 0.44307 0.81142 0.0
H145 H 0.53745 0.44456 0.85529 0.0
H146 H 0.54331 0.5732 0.86331 0.0
H147 H 0.54049 0.57178 0.81969 0.0
H148 H 0.59117 0.46558 0.89228 0.0
H149 H 0.48382 0.55619 0.89235 0.0
H150 H 0.5263 0.51415 0.95897 0.0
H151 H 0.427 0.52676 0.95702 0.0
H152 H 0.50352 0.61826 0.92457 0.0
H153 H 0.44219 0.6662 0.93865 0.0
H154 H 0.58958 0.40955 0.91204 0.0
H155 H 0.60625 0.50203 0.97254 0.0
H156 H 0.36441 0.57481 0.97089 0.0
H157 H 0.64597 0.36866 0.93146 0.0
H158 H 0.65957 0.45943 0.99305 0.0
C159 C 0.55856 0.58453 0.19115 0.0
C160 C 0.56373 0.54859 0.20106 0.0
C161 C 0.55334 0.58451 0.16624 0.0
C162 C 0.55301 0.54853 0.15066 0.0
C163 C 0.55774 0.51255 0.16056 0.0
C164 C 0.56318 0.51258 0.18549 0.0
C165 C 0.54899 0.54869 0.12413 0.0
C166 C 0.57611 0.57651 0.1131 0.0
C167 C 0.57339 0.57697 0.08806 0.0
C168 C 0.54305 0.54874 0.07373 0.0
C169 C 0.5151 0.52059 0.08455 0.0
C170 C 0.51845 0.52104 0.10977 0.0
C171 C 0.48135 0.491 0.07013 0.0
C172 C 0.45028 0.50206 0.05172 0.0
C173 C 0.4772 0.45193 0.07615 0.0
C174 C 0.44116 0.42544 0.0652 0.0
C175 C 0.40848 0.43705 0.04772 0.0
C176 C 0.60346 0.60718 0.07764 0.0
C177 C 0.60176 0.64732 0.0876 0.0
C178 C 0.63869 0.59581 0.06044 0.0
C179 C 0.67363 0.62371 0.05454 0.0
C180 C 0.67379 0.6634 0.06575 0.0
C181 C 0.63635 0.67508 0.08168 0.0
C182 C 0.41427 0.47526 0.04056 0.0
H183 H 0.55917 0.61278 0.20265 0.0
H184 H 0.54935 0.6127 0.15917 0.0
H185 H 0.55802 0.48438 0.149 0.0
H186 H 0.5665 0.48436 0.19258 0.0
H187 H 0.60054 0.59746 0.12405 0.0
H188 H 0.49622 0.50041 0.11842 0.0
H189 H 0.54115 0.54881 0.05437 0.0
H190 H 0.45234 0.53193 0.0467 0.0
H191 H 0.50128 0.44201 0.08977 0.0
H192 H 0.43846 0.39588 0.07067 0.0
H193 H 0.57468 0.65692 0.10075 0.0
H194 H 0.64099 0.56496 0.05266 0.0
H195 H 0.38967 0.485 0.02709 0.0
H196 H 0.6345 0.7056 0.09013 0.0
H197 H 0.70193 0.61373 0.04218 0.0
H198 H 0.1122 0.16281 0.04208 0.0
H199 H 0.13931 0.23025 0.03733 0.0
H200 H 0.18634 0.18931 0.96562 0.0
H201 H 0.16096 0.12119 0.971 0.0
H202 H 0.25959 0.21972 0.99115 0.0
H203 H 0.11321 0.3279 0.0078 0.0
H204 H 0.11443 0.29687 0.03148 0.0
H205 H 0.10007 0.27514 0.00091 0.0
C206 C 0.12555 0.1687 0.02477 0.0
C207 C 0.13385 0.13704 0.00677 0.0
C208 C 0.14124 0.20743 0.02203 0.0
C209 C 0.16496 0.21528 0.00106 0.0
C210 C 0.16815 0.18421 0.98197 0.0
H211 H 0.37778 0.41703 0.00042 0.0
H212 H 0.31435 0.36719 0.9847 0.0
C213 C 0.15303 0.14531 0.98488 0.0
C214 C 0.19507 0.25266 0.00136 0.0
H215 H 0.19628 0.35263 0.02091 0.0
C216 C 0.24527 0.24893 0.9969 0.0
C217 C 0.17688 0.29099 0.00898 0.0
C218 C 0.12306 0.29792 0.01229 0.0
C219 C 0.278 0.28166 0.00145 0.0
C220 C 0.26027 0.31924 0.01072 0.0
C221 C 0.20985 0.32366 0.01394 0.0
C222 C 0.29447 0.35267 0.0198 0.0
C223 C 0.33189 0.27539 0.99781 0.0
C224 C 0.30362 0.36139 0.04468 0.0
C225 C 0.33988 0.38939 0.05364 0.0
C226 C 0.36761 0.40954 0.0379 0.0
C227 C 0.357 0.40201 0.01298 0.0
C228 C 0.32088 0.37358 0.00398 0.0
H229 H 0.34016 0.24373 0.99181 0.0
H230 H 0.34486 0.29375 0.98402 0.0
H231 H 0.35286 0.28522 0.01485 0.0
H232 H 0.28374 0.34554 0.05718 0.0
H233 H 0.34665 0.39497 0.07294 0.0
H234 H 0.20803 0.94892 0.98079 0.0
H235 H 0.23832 0.88141 0.97355 0.0
H236 H 0.10294 0.83527 0.998 0.0
H237 H 0.07179 0.90352 0.00506 0.0
H238 H 0.24784 0.83484 0.01268 0.0
H239 H 0.13479 0.75847 0.93561 0.0
H240 H 0.14101 0.81212 0.94113 0.0
H241 H 0.10422 0.78594 0.96033 0.0
C242 C 0.18419 0.92438 0.98416 0.0
C243 C 0.13768 0.9315 0.99364 0.0
C244 C 0.20162 0.88581 0.98005 0.0
C245 C 0.17309 0.85336 0.98538 0.0
C246 C 0.12542 0.85991 0.9936 0.0
H247 H 0.34523 0.63719 0.99693 0.0
H248 H 0.28251 0.68728 0.00638 0.0
C249 C 0.10763 0.89883 0.99756 0.0
C250 C 0.19591 0.81374 0.98418 0.0
H251 H 0.20017 0.72299 0.95002 0.0
C252 C 0.23698 0.81005 0.99926 0.0
C253 C 0.18163 0.78164 0.96663 0.0
C254 C 0.13815 0.78445 0.94985 0.0
C255 C 0.26576 0.77599 0.99645 0.0
C256 C 0.25253 0.7443 0.97834 0.0
C257 C 0.21007 0.74721 0.96398 0.0
C258 C 0.28569 0.71051 0.97208 0.0
C259 C 0.31182 0.77537 0.01188 0.0
C260 C 0.30686 0.70589 0.94938 0.0
C261 C 0.34221 0.67724 0.9439 0.0
C262 C 0.35739 0.65249 0.96101 0.0
C263 C 0.33454 0.65588 0.98339 0.0
C264 C 0.29893 0.68465 0.98887 0.0
H265 H 0.32129 0.80511 0.02188 0.0
H266 H 0.30659 0.75414 0.02525 0.0
H267 H 0.34321 0.76534 0.00066 0.0
H268 H 0.29711 0.72535 0.9361 0.0
H269 H 0.35809 0.67478 0.92626 0.0
H270 H 0.94697 0.97403 0.05226 0.0
H271 H 0.92005 0.91364 0.06888 0.0
H272 H 0.92371 0.84724 0.99794 0.0
H273 H 0.95116 0.90713 0.98165 0.0
H274 H 0.8321 0.88344 0.05372 0.0
H275 H 0.96436 0.76246 0.03802 0.0
H276 H 0.98151 0.81412 0.03727 0.0
H277 H 0.95315 0.78519 0.01118 0.0
C278 C 0.94491 0.94594 0.04062 0.0
C279 C 0.9518 0.94489 0.0158 0.0
C280 C 0.92898 0.91152 0.05002 0.0
C281 C 0.9199 0.8757 0.0347 0.0
C282 C 0.93139 0.87404 0.01029 0.0
H283 H 0.71836 0.67508 0.0235 0.0
H284 H 0.78184 0.72511 0.0178 0.0
C285 C 0.94716 0.90835 0.00095 0.0
C286 C 0.88958 0.84305 0.04273 0.0
H287 H 0.87935 0.74173 0.04066 0.0
C288 C 0.84294 0.85255 0.05137 0.0
C289 C 0.90327 0.80263 0.03932 0.0
C290 C 0.95353 0.79056 0.03116 0.0
C291 C 0.80901 0.82281 0.0557 0.0
C292 C 0.82219 0.78236 0.05164 0.0
C293 C 0.86921 0.77276 0.04361 0.0
C294 C 0.78702 0.74984 0.05537 0.0
C295 C 0.75851 0.83486 0.06363 0.0
C296 C 0.76974 0.74661 0.07843 0.0
C297 C 0.73359 0.71822 0.08172 0.0
C298 C 0.71393 0.69227 0.06203 0.0
C299 C 0.73266 0.69456 0.03904 0.0
C300 C 0.76891 0.72312 0.03576 0.0
H301 H 0.7508 0.86612 0.06083 0.0
H302 H 0.73007 0.81494 0.05367 0.0
H303 H 0.75547 0.83233 0.08312 0.0
H304 H 0.78381 0.76644 0.09388 0.0
H305 H 0.721 0.71661 0.09978 0.0
H306 H 0.97214 0.15815 0.97967 0.0
H307 H 0.92937 0.22077 0.9809 0.0
H308 H 0.88642 0.21029 0.05362 0.0
H309 H 0.92713 0.14588 0.05162 0.0
H310 H 0.81097 0.22261 0.02978 0.0
H311 H 0.94419 0.33346 0.00607 0.0
H312 H 0.94574 0.29118 0.9835 0.0
H313 H 0.96319 0.2861 0.01433 0.0
C314 C 0.9553 0.17014 0.99627 0.0
C315 C 0.95362 0.14779 0.01572 0.0
C316 C 0.93091 0.20615 0.99704 0.0
C317 C 0.90505 0.22101 0.01751 0.0
C318 C 0.90622 0.19976 0.03764 0.0
H319 H 0.73831 0.43384 0.99348 0.0
H320 H 0.79668 0.39161 0.01148 0.0
C321 C 0.92991 0.1632 0.03666 0.0
C322 C 0.87102 0.25476 0.01623 0.0
H323 H 0.85912 0.34275 0.99278 0.0
C324 C 0.82196 0.24931 0.02222 0.0
C325 C 0.88488 0.29031 0.00692 0.0
C326 C 0.93755 0.30071 0.00265 0.0
C327 C 0.78613 0.2768 0.01765 0.0
C328 C 0.79903 0.30988 0.00569 0.0
C329 C 0.84863 0.31691 0.00132 0.0
C330 C 0.76151 0.33593 0.99627 0.0
C331 C 0.73477 0.26976 0.02564 0.0
C332 C 0.72204 0.31898 0.98168 0.0
C333 C 0.68774 0.34304 0.97194 0.0
C334 C 0.69272 0.38489 0.97582 0.0
C335 C 0.73249 0.40185 0.99036 0.0
C336 C 0.76636 0.37767 0.0005 0.0
H337 H 0.73512 0.25454 0.04214 0.0
H338 H 0.71487 0.29804 0.02941 0.0
H339 H 0.71441 0.24995 0.0113 0.0
H340 H 0.71805 0.28697 0.97742 0.0
H341 H 0.65742 0.32861 0.96122 0.0
H342 H 0.6881 0.6232 0.4739 0.0
H343 H 0.71153 0.69359 0.47573 0.0
H344 H 0.61193 0.72235 0.53339 0.0
H345 H 0.5879 0.65173 0.53133 0.0
H346 H 0.65889 0.78223 0.48533 0.0
H347 H 0.7685 0.72214 0.55767 0.0
H348 H 0.74324 0.68985 0.53206 0.0
H349 H 0.70373 0.71132 0.55498 0.0
C350 C 0.66873 0.64488 0.4858 0.0
C351 C 0.63602 0.63218 0.50237 0.0
C352 C 0.68238 0.68512 0.48694 0.0
C353 C 0.66386 0.71309 0.50485 0.0
C354 C 0.62641 0.70122 0.51933 0.0
H355 H 0.83441 0.90961 0.58142 0.0
H356 H 0.76982 0.86003 0.56864 0.0
C357 C 0.61238 0.66088 0.51802 0.0
C358 C 0.69233 0.75057 0.51229 0.0
H359 H 0.78609 0.78724 0.5506 0.0
C360 C 0.68638 0.78368 0.49975 0.0
C361 C 0.72838 0.75214 0.53099 0.0
C362 C 0.7368 0.71706 0.54475 0.0
C363 C 0.71561 0.81856 0.5056 0.0
C364 C 0.75247 0.81977 0.52402 0.0
C365 C 0.75784 0.78656 0.53656 0.0
C366 C 0.78658 0.85457 0.53077 0.0
C367 C 0.70626 0.85385 0.49224 0.0
C368 C 0.81708 0.86893 0.51373 0.0
C369 C 0.85375 0.89787 0.52104 0.0
C370 C 0.86116 0.91222 0.54556 0.0
C371 C 0.82969 0.89879 0.56242 0.0
C372 C 0.79272 0.8705 0.55511 0.0
H373 H 0.6683 0.85298 0.48459 0.0
H374 H 0.71243 0.88236 0.50419 0.0
H375 H 0.73164 0.85324 0.47706 0.0
H376 H 0.81408 0.85652 0.49494 0.0
H377 H 0.87778 0.90757 0.50772 0.0
H378 H 0.57178 0.39944 0.50299 0.0
H379 H 0.60113 0.33067 0.49572 0.0
H380 H 0.73411 0.37391 0.46724 0.0
H381 H 0.70545 0.44203 0.47453 0.0
H382 H 0.69057 0.29957 0.44126 0.0
H383 H 0.71861 0.2996 0.54038 0.0
H384 H 0.65941 0.31196 0.52892 0.0
H385 H 0.71065 0.34523 0.52721 0.0
C386 C 0.60667 0.39402 0.49461 0.0
C387 C 0.63655 0.42605 0.48949 0.0
C388 C 0.62352 0.35485 0.49063 0.0
C389 C 0.67005 0.34736 0.48122 0.0
C390 C 0.69819 0.37906 0.47458 0.0
H391 H 0.91223 0.20061 0.48389 0.0
H392 H 0.8476 0.24965 0.48968 0.0
C393 C 0.68177 0.41798 0.47878 0.0
C394 C 0.69223 0.30754 0.48002 0.0
H395 H 0.75394 0.24807 0.51508 0.0
C396 C 0.7034 0.28763 0.45736 0.0
C397 C 0.70949 0.29251 0.50111 0.0
C398 C 0.69929 0.31332 0.52586 0.0
C399 C 0.73311 0.25402 0.45524 0.0
C400 C 0.75199 0.23996 0.47633 0.0
C401 C 0.73915 0.25885 0.49898 0.0
C402 C 0.78944 0.2087 0.47513 0.0
C403 C 0.74658 0.23519 0.43047 0.0
C404 C 0.77788 0.16915 0.46567 0.0
C405 C 0.81479 0.141 0.4624 0.0
C406 C 0.86387 0.15205 0.46842 0.0
C407 C 0.87486 0.1913 0.47887 0.0
C408 C 0.83797 0.21929 0.48227 0.0
H409 H 0.73356 0.25258 0.41605 0.0
H410 H 0.78688 0.23243 0.42944 0.0
H411 H 0.73003 0.20475 0.42696 0.0
H412 H 0.74056 0.16035 0.46023 0.0
H413 H 0.80521 0.11109 0.45414 0.0
H414 H 0.45193 0.46794 0.55163 0.0
H415 H 0.42573 0.4076 0.56845 0.0
H416 H 0.42741 0.34116 0.49746 0.0
H417 H 0.45419 0.40104 0.48097 0.0
H418 H 0.33712 0.37853 0.55347 0.0
H419 H 0.46701 0.25584 0.53748 0.0
H420 H 0.48507 0.30731 0.53669 0.0
H421 H 0.45596 0.27873 0.51068 0.0
C422 C 0.44974 0.43984 0.54 0.0
C423 C 0.45571 0.43882 0.51512 0.0
C424 C 0.43419 0.40544 0.54952 0.0
C425 C 0.42455 0.36966 0.53425 0.0
C426 C 0.43549 0.36794 0.50977 0.0
H427 H 0.21968 0.17116 0.52417 0.0
H428 H 0.28422 0.22015 0.51811 0.0
C429 C 0.45091 0.40224 0.50031 0.0
C430 C 0.39377 0.3374 0.5424 0.0
H431 H 0.38173 0.23621 0.54053 0.0
C432 C 0.34739 0.3475 0.55114 0.0
C433 C 0.4067 0.29679 0.53899 0.0
C434 C 0.45662 0.28409 0.53066 0.0
C435 C 0.31297 0.31822 0.55561 0.0
C436 C 0.3254 0.27759 0.55161 0.0
C437 C 0.37216 0.26737 0.54345 0.0
C438 C 0.28972 0.24555 0.55556 0.0
C439 C 0.26276 0.33097 0.56361 0.0
C440 C 0.27227 0.24301 0.57867 0.0
C441 C 0.23549 0.21527 0.58215 0.0
C442 C 0.21537 0.18926 0.5626 0.0
C443 C 0.23431 0.19076 0.53958 0.0
C444 C 0.27118 0.2187 0.5361 0.0
H445 H 0.2555 0.3622 0.56058 0.0
H446 H 0.23391 0.31118 0.55389 0.0
H447 H 0.2599 0.32895 0.58317 0.0
H448 H 0.28668 0.26293 0.59401 0.0
H449 H 0.22272 0.21424 0.60023 0.0
H450 H 0.50497 0.6659 0.49702 0.0
H451 H 0.46313 0.72911 0.49559 0.0
H452 H 0.34828 0.68872 0.53869 0.0
H453 H 0.3892 0.62537 0.53948 0.0
H454 H 0.31501 0.70373 0.49511 0.0
H455 H 0.42909 0.83247 0.53704 0.0
H456 H 0.46092 0.79827 0.51608 0.0
H457 H 0.4391 0.78209 0.54338 0.0
C458 C 0.47209 0.67141 0.50717 0.0
C459 C 0.45027 0.64089 0.5184 0.0
C460 C 0.44806 0.70753 0.5063 0.0
C461 C 0.40238 0.71371 0.51698 0.0
C462 C 0.38336 0.68468 0.53029 0.0
H463 H 0.19489 0.90601 0.50723 0.0
H464 H 0.25405 0.86069 0.52234 0.0
C465 C 0.40692 0.64856 0.53087 0.0
C466 C 0.37029 0.74618 0.51072 0.0
H467 H 0.36194 0.8471 0.51137 0.0
C468 C 0.3252 0.73508 0.49893 0.0
C469 C 0.38346 0.7871 0.51563 0.0
C470 C 0.43059 0.80084 0.52892 0.0
C471 C 0.29337 0.76352 0.4916 0.0
C472 C 0.30712 0.80432 0.49581 0.0
C473 C 0.35168 0.81573 0.50803 0.0
C474 C 0.27566 0.835 0.48697 0.0
C475 C 0.24516 0.74969 0.47932 0.0
C476 C 0.26903 0.83611 0.46212 0.0
C477 C 0.23545 0.86189 0.45345 0.0
C478 C 0.20763 0.88717 0.46945 0.0
C479 C 0.21577 0.88708 0.49441 0.0
C480 C 0.24954 0.86121 0.50309 0.0
H481 H 0.23544 0.71858 0.4821 0.0
H482 H 0.21523 0.76941 0.48607 0.0
H483 H 0.24765 0.75088 0.45965 0.0
H484 H 0.28919 0.81637 0.44939 0.0
H485 H 0.23104 0.86179 0.43415 0.0
H486 H 0.98203 0.03274 0.08078 0.0
H487 H 0.95994 0.02361 0.1221 0.0
H488 H 0.11251 0.01518 0.14168 0.0
H489 H 0.13484 0.02366 0.10091 0.0
H490 H 0.05019 0.95502 0.15721 0.0
H491 H 0.98431 0.10915 0.18214 0.0
H492 H 0.95834 0.08072 0.15531 0.0
H493 H 0.02148 0.09626 0.15626 0.0
C494 C 0.0108 0.0288 0.09388 0.0
C495 C 0.06022 0.0291 0.08746 0.0
C496 C 0.99813 0.02377 0.11748 0.0
C497 C 0.03468 0.01897 0.13494 0.0
C498 C 0.08376 0.01881 0.12848 0.0
H499 H 0.08045 0.05684 0.28592 0.0
H500 H 0.07389 0.05685 0.24229 0.0
C501 C 0.09642 0.02388 0.1051 0.0
C502 C 0.02301 0.01464 0.16021 0.0
H503 H 0.99031 0.06814 0.21295 0.0
C504 C 0.03626 0.97943 0.16937 0.0
C505 C 1.00533 0.04676 0.17598 0.0
C506 C 0.99171 0.08554 0.16711 0.0
C507 C 0.03415 0.97603 0.19408 0.0
C508 C 0.01777 0.00858 0.20997 0.0
C509 C 1.00273 0.04323 0.20068 0.0
C510 C 0.02015 0.00862 0.23648 0.0
C511 C 0.05195 0.9385 0.20316 0.0
C512 C 0.99191 0.98158 0.24771 0.0
C513 C 0.99555 0.98151 0.27272 0.0
C514 C 0.02728 0.00868 0.28694 0.0
C515 C 0.05524 0.03586 0.27557 0.0
C516 C 0.05161 0.03586 0.25062 0.0
H517 H 0.07161 0.91924 0.18917 0.0
H518 H 0.07676 0.94584 0.2192 0.0
H519 H 0.02018 0.92116 0.20861 0.0
H520 H 0.96687 0.9607 0.23716 0.0
H521 H 0.97295 0.96063 0.28095 0.0
H522 H 0.9648 0.01994 0.91165 0.0
H523 H 0.99179 0.02211 0.87086 0.0
H524 H 0.136 0.06073 0.89813 0.0
H525 H 0.10911 0.05896 0.9396 0.0
H526 H 0.09575 0.10545 0.86218 0.0
H527 H 0.08259 0.94326 0.83285 0.0
H528 H 0.02825 0.96175 0.8472 0.0
H529 H 0.0852 0.96399 0.86423 0.0
C530 C 1.00238 0.02883 0.90917 0.0
C531 C 0.03483 0.03914 0.92901 0.0
C532 C 0.01781 0.02977 0.88574 0.0
C533 C 0.06607 0.04084 0.88147 0.0
C534 C 0.09868 0.0517 0.90111 0.0
H535 H 0.13498 0.00953 0.72807 0.0
H536 H 0.14433 0.00874 0.77167 0.0
C537 C 0.08327 0.05062 0.92474 0.0
C538 C 0.08094 0.04219 0.85633 0.0
H539 H 0.0778 0.98577 0.80136 0.0
C540 C 0.09287 0.0792 0.8489 0.0
C541 C 0.07796 0.00782 0.83912 0.0
C542 C 0.0683 0.96689 0.84628 0.0
C543 C 0.09858 0.08314 0.82442 0.0
C544 C 0.09124 0.04929 0.80699 0.0
C545 C 0.08273 0.01186 0.81465 0.0
C546 C 0.08868 0.05226 0.78075 0.0
C547 C 0.11156 0.12364 0.81747 0.0
C548 C 0.05409 0.07677 0.77134 0.0
C549 C 0.04867 0.07725 0.74648 0.0
C550 C 0.0773 0.05281 0.73049 0.0
C551 C 0.11208 0.0284 0.73993 0.0
C552 C 0.11767 0.02811 0.76483 0.0
H553 H 0.1322 0.1422 0.83231 0.0
H554 H 0.13377 0.1212 0.80105 0.0
H555 H 0.07744 0.13933 0.8138 0.0
H556 H 0.03021 0.0947 0.78319 0.0
H557 H 0.02102 0.09587 0.73975 0.0
H558 H 0.64431 0.52484 0.5975 0.0
H559 H 0.62561 0.51924 0.63914 0.0
H560 H 0.47131 0.52023 0.62157 0.0
H561 H 0.48963 0.52589 0.57934 0.0
H562 H 0.57146 0.57495 0.66961 0.0
H563 H 0.48896 0.42174 0.65933 0.0
H564 H 0.52636 0.43933 0.63652 0.0
H565 H 0.46491 0.45612 0.64013 0.0
C566 C 0.60625 0.52378 0.60228 0.0
C567 C 0.56845 0.52584 0.58493 0.0
C568 C 0.5957 0.52052 0.62618 0.0
C569 C 0.54716 0.51905 0.63341 0.0
C570 C 0.50907 0.52079 0.61626 0.0
H571 H 0.4812 0.55528 0.78669 0.0
H572 H 0.47848 0.55766 0.74317 0.0
C573 C 0.51961 0.52413 0.59217 0.0
C574 C 0.53748 0.51727 0.65919 0.0
H575 H 0.49674 0.45567 0.69877 0.0
C576 C 0.55463 0.54908 0.676 0.0
C577 C 0.51601 0.48326 0.66739 0.0
C578 C 0.49818 0.44794 0.65001 0.0
C579 C 0.5518 0.54753 0.70086 0.0
C580 C 0.53063 0.51343 0.70912 0.0
C581 C 0.51274 0.48181 0.69232 0.0
C582 C 0.52886 0.50964 0.73519 0.0
C583 C 0.57314 0.58177 0.7181 0.0
C584 C 0.55703 0.48107 0.74504 0.0
C585 C 0.55888 0.47972 0.76995 0.0
C586 C 0.53246 0.50691 0.78543 0.0
C587 C 0.50287 0.53452 0.77534 0.0
C588 C 0.50106 0.53582 0.75047 0.0
H589 H 0.59685 0.60182 0.70888 0.0
H590 H 0.54299 0.59961 0.72642 0.0
H591 H 0.59498 0.57061 0.73278 0.0
H592 H 0.57878 0.46062 0.73351 0.0
H593 H 0.58217 0.45823 0.77713 0.0
H594 H 0.45616 0.51863 0.411 0.0
H595 H 0.48019 0.52079 0.36967 0.0
H596 H 0.62741 0.55485 0.39432 0.0
H597 H 0.60364 0.55301 0.43623 0.0
H598 H 0.58621 0.60124 0.35927 0.0
H599 H 0.56586 0.43921 0.32998 0.0
H600 H 0.51336 0.45954 0.34525 0.0
H601 H 0.57122 0.45987 0.36133 0.0
C602 C 0.49377 0.52654 0.40781 0.0
C603 C 0.52802 0.53548 0.42704 0.0
C604 C 0.50747 0.52751 0.38408 0.0
C605 C 0.55572 0.53728 0.37893 0.0
C606 C 0.59005 0.54687 0.39797 0.0
H607 H 0.62631 0.50486 0.22575 0.0
H608 H 0.63325 0.50367 0.2694 0.0
C609 C 0.5764 0.54576 0.42186 0.0
C610 C 0.5691 0.53832 0.35355 0.0
H611 H 0.56366 0.48171 0.29862 0.0
C612 C 0.58217 0.57502 0.34602 0.0
C613 C 0.56457 0.50396 0.33638 0.0
C614 C 0.55347 0.46333 0.34365 0.0
C615 C 0.5879 0.57869 0.3215 0.0
C616 C 0.57951 0.54489 0.30415 0.0
C617 C 0.56945 0.50775 0.31188 0.0
C618 C 0.57791 0.54768 0.27788 0.0
C619 C 0.60223 0.61883 0.31443 0.0
C620 C 0.54422 0.57254 0.26815 0.0
C621 C 0.54009 0.5732 0.24326 0.0
C622 C 0.56921 0.54866 0.22756 0.0
C623 C 0.60302 0.52382 0.23736 0.0
C624 C 0.60726 0.52329 0.26228 0.0
H625 H 0.62273 0.63736 0.32934 0.0
H626 H 0.62507 0.61573 0.29821 0.0
H627 H 0.56869 0.63494 0.31031 0.0
H628 H 0.52014 0.59072 0.27976 0.0
H629 H 0.51313 0.59215 0.23627 0.0
loop_
_geom_bond_atom_site_label_1
_geom_bond_atom_site_label_2
_geom_bond_distance
_geom_bond_site_symmetry_2
_ccdc_geom_bond_type
O0 Mn1 2.163 . S
O0 C14 1.244 1_455 S
Mn1 O0 2.163 . S
Mn1 O4 2.160 1_545 S
Mn1 O5 2.221 . S
Mn1 O7 2.163 . S
Mn1 O9 2.160 1_554 S
Mn1 O19 2.221 1_444 S
O2 Mn3 2.087 . S
O2 C14 1.256 1_556 S
Mn3 O2 2.087 . S
Mn3 O10 2.089 . S
Mn3 O19 2.290 1_545 S
Mn3 O20 2.251 1_546 S
O4 Mn1 2.160 1_565 S
O4 C15 1.243 . S
O5 Mn1 2.221 . S
O5 Mn6 2.290 . S
O5 C16 1.278 . S
Mn6 O5 2.290 . S
Mn6 O8 2.089 1_545 S
Mn6 O11 2.251 . S
Mn6 O12 2.087 . S
O7 Mn1 2.163 . S
O7 C17 1.244 . S
O8 Mn6 2.089 1_565 S
O8 C15 1.256 . S
O9 Mn1 2.160 1_556 S
O9 C18 1.239 . S
O10 Mn3 2.089 . S
O10 C18 1.256 1_655 S
O11 Mn6 2.251 . S
O11 C16 1.241 . S
O12 Mn6 2.087 . S
O12 C17 1.256 . S
C13 O19 1.278 1_554 S
C13 O20 1.241 . S
C14 O0 1.244 1_655 S
C14 O2 1.256 1_554 S
C15 O4 1.243 . S
C15 O8 1.256 . S
C16 O5 1.278 . S
C16 O11 1.241 . S
C17 O7 1.244 . S
C17 O12 1.256 . S
C18 O9 1.239 . S
C18 O10 1.256 1_455 S
O19 Mn1 2.221 1_666 S
O19 Mn3 2.290 1_565 S
O19 C13 1.278 1_556 S
O20 Mn3 2.251 1_564 S
O20 C13 1.241 . S
O21 Mn22 2.163 . S
O21 C35 1.244 . S
Mn22 O21 2.163 . S
Mn22 O25 2.160 . S
Mn22 O26 2.221 . S
Mn22 O28 2.163 . S
Mn22 O30 2.160 . S
Mn22 O40 2.221 . S
O23 Mn24 2.087 . S
O23 C35 1.256 . S
Mn24 O23 2.087 . S
Mn24 O31 2.089 . S
Mn24 O40 2.290 . S
Mn24 O41 2.251 . S
O25 Mn22 2.160 . S
O25 C36 1.239 . S
O26 Mn22 2.221 . S
O26 Mn27 2.290 . S
O26 C37 1.278 . S
Mn27 O26 2.290 . S
Mn27 O29 2.089 . S
Mn27 O32 2.251 . S
Mn27 O33 2.087 . S
O28 Mn22 2.163 . S
O28 C38 1.244 . S
O29 Mn27 2.089 . S
O29 C36 1.256 . S
O30 Mn22 2.160 . S
O30 C39 1.239 . S
O31 Mn24 2.089 . S
O31 C39 1.256 . S
O32 Mn27 2.251 . S
O32 C37 1.241 . S
O33 Mn27 2.087 . S
O33 C38 1.256 . S
C34 O40 1.278 . S
C34 O41 1.241 . S
C35 O21 1.244 . S
C35 O23 1.256 . S
C36 O25 1.239 . S
C36 O29 1.256 . S
C37 O26 1.278 . S
C37 O32 1.241 . S
C38 O28 1.244 . S
C38 O33 1.256 . S
C39 O30 1.239 . S
C39 O31 1.256 . S
O40 Mn22 2.221 . S
O40 Mn24 2.290 . S
O40 C34 1.278 . S
O41 Mn24 2.251 . S
O41 C34 1.241 . S
C42 C43 1.386 . S
C42 C44 1.397 . S
C42 H66 0.931 . S
C43 C42 1.386 . S
C43 C47 1.397 1_565 S
C44 C42 1.397 . S
C44 C45 1.405 . S
C44 H67 0.930 . S
C45 C44 1.405 . S
C45 C46 1.354 1_565 S
C45 C48 1.484 1_565 S
C46 C45 1.354 1_545 S
C46 C47 1.389 . S
C46 H68 0.929 . S
C47 C43 1.397 1_545 S
C47 C46 1.389 . S
C47 H69 0.931 . S
C48 C45 1.484 1_545 S
C48 C49 1.381 1_545 S
C48 C53 1.396 . S
C49 C48 1.381 1_565 S
C49 C50 1.401 . S
C49 H70 0.930 . S
C50 C49 1.401 . S
C50 C51 1.376 1_565 S
C50 C59 1.511 . S
C51 C50 1.376 1_545 S
C51 C52 1.392 . S
C51 H72 0.931 . S
C52 C51 1.392 . S
C52 C53 1.361 . S
C52 C54 1.500 1_455 S
C53 C48 1.396 . S
C53 C52 1.361 . S
C53 H71 0.931 1_455 S
C54 C52 1.500 1_655 S
C54 C55 1.371 . S
C54 C56 1.365 . S
C55 C54 1.371 . S
C55 C65 1.386 . S
C55 H73 0.931 . S
C56 C54 1.365 . S
C56 C57 1.409 . S
C56 H74 0.929 . S
C57 C56 1.409 . S
C57 C58 1.380 . S
C57 H75 0.930 . S
C58 C57 1.380 . S
C58 C65 1.357 . S
C59 C50 1.511 . S
C59 C60 1.341 . S
C59 C61 1.371 . S
C60 C59 1.341 . S
C60 C64 1.394 . S
C60 H76 0.930 . S
C61 C59 1.371 . S
C61 C62 1.392 . S
C61 H77 0.931 . S
C62 C61 1.392 . S
C62 C63 1.331 . S
C62 H80 0.932 . S
C63 C62 1.331 . S
C63 C64 1.336 . S
C64 C60 1.394 . S
C64 C63 1.336 . S
C64 H79 0.929 . S
C65 C55 1.386 . S
C65 C58 1.357 . S
C65 H78 0.928 . S
H66 C42 0.931 . S
H67 C44 0.930 . S
H68 C46 0.929 . S
H69 C47 0.931 . S
H70 C49 0.930 . S
H71 C53 0.931 1_655 S
H72 C51 0.931 . S
H73 C55 0.931 . S
H74 C56 0.929 . S
H75 C57 0.930 . S
H76 C60 0.930 . S
H77 C61 0.931 . S
H78 C65 0.928 . S
H79 C64 0.929 . S
H80 C62 0.932 . S
C81 C82 1.386 . S
C81 C83 1.397 . S
C81 H105 0.931 . S
C82 C81 1.386 . S
C82 C86 1.397 . S
C83 C81 1.397 . S
C83 C84 1.384 . S
C83 H106 0.930 . S
C84 C83 1.384 . S
C84 C85 1.377 . S
C84 C87 1.481 . S
C85 C84 1.377 . S
C85 C86 1.389 . S
C85 H107 0.929 . S
C86 C82 1.397 . S
C86 C85 1.389 . S
C86 H108 0.931 . S
C87 C84 1.481 . S
C87 C88 1.387 . S
C87 C92 1.390 1_455 S
C88 C87 1.387 . S
C88 C89 1.401 . S
C88 H109 0.930 . S
C89 C88 1.401 . S
C89 C90 1.376 1_455 S
C89 C98 1.511 . S
C90 C89 1.376 1_655 S
C90 C91 1.392 . S
C90 H111 0.931 . S
C91 C90 1.392 . S
C91 C92 1.361 . S
C91 C93 1.500 . S
C92 C87 1.390 1_655 S
C92 C91 1.361 . S
C92 H110 0.931 . S
C93 C91 1.500 . S
C93 C94 1.371 . S
C93 C95 1.365 1_545 S
C94 C93 1.371 . S
C94 C104 1.386 1_545 S
C94 H112 0.931 . S
C95 C93 1.365 1_565 S
C95 C96 1.409 . S
C95 H113 0.929 . S
C96 C95 1.409 . S
C96 C97 1.380 . S
C96 H114 0.930 . S
C97 C96 1.380 . S
C97 C104 1.357 . S
C98 C89 1.511 . S
C98 C99 1.341 . S
C98 C100 1.371 . S
C99 C98 1.341 . S
C99 C103 1.394 . S
C99 H115 0.930 . S
C100 C98 1.371 . S
C100 C101 1.392 . S
C100 H116 0.931 . S
C101 C100 1.392 . S
C101 C102 1.331 . S
C101 H119 0.932 . S
C102 C101 1.331 . S
C102 C103 1.336 . S
C103 C99 1.394 . S
C103 C102 1.336 . S
C103 H118 0.929 . S
C104 C94 1.386 1_565 S
C104 C97 1.357 . S
C104 H117 0.928 1_565 S
H105 C81 0.931 . S
H106 C83 0.930 . S
H107 C85 0.929 . S
H108 C86 0.931 . S
H109 C88 0.930 . S
H110 C92 0.931 . S
H111 C90 0.931 . S
H112 C94 0.931 . S
H113 C95 0.929 . S
H114 C96 0.930 . S
H115 C99 0.930 . S
H116 C100 0.931 . S
H117 C104 0.928 1_545 S
H118 C103 0.929 . S
H119 C101 0.932 . S
C120 C121 1.386 . S
C120 C122 1.397 . S
C120 H144 0.931 . S
C121 C120 1.386 . S
C121 C125 1.397 . S
C122 C120 1.397 . S
C122 C123 1.384 . S
C122 H145 0.930 . S
C123 C122 1.384 . S
C123 C124 1.377 . S
C123 C126 1.481 . S
C124 C123 1.377 . S
C124 C125 1.389 . S
C124 H146 0.929 . S
C125 C121 1.397 . S
C125 C124 1.389 . S
C125 H147 0.931 . S
C126 C123 1.481 . S
C126 C127 1.387 . S
C126 C131 1.390 . S
C127 C126 1.387 . S
C127 C128 1.401 . S
C127 H148 0.930 . S
C128 C127 1.401 . S
C128 C129 1.376 . S
C128 C137 1.511 . S
C129 C128 1.376 . S
C129 C130 1.392 . S
C129 H150 0.931 . S
C130 C129 1.392 . S
C130 C131 1.361 . S
C130 C132 1.500 . S
C131 C126 1.390 . S
C131 C130 1.361 . S
C131 H149 0.931 . S
C132 C130 1.500 . S
C132 C133 1.371 . S
C132 C134 1.365 . S
C133 C132 1.371 . S
C133 C143 1.386 . S
C133 H151 0.931 . S
C134 C132 1.365 . S
C134 C135 1.409 . S
C134 H152 0.929 . S
C135 C134 1.409 . S
C135 C136 1.380 . S
C135 H153 0.930 . S
C136 C135 1.380 . S
C136 C143 1.357 . S
C137 C128 1.511 . S
C137 C138 1.341 . S
C137 C139 1.371 . S
C138 C137 1.341 . S
C138 C142 1.394 . S
C138 H154 0.930 . S
C139 C137 1.371 . S
C139 C140 1.392 . S
C139 H155 0.931 . S
C140 C139 1.392 . S
C140 C141 1.331 . S
C140 H158 0.932 . S
C141 C140 1.331 . S
C141 C142 1.336 . S
C142 C138 1.394 . S
C142 C141 1.336 . S
C142 H157 0.929 . S
C143 C133 1.386 . S
C143 C136 1.357 . S
C143 H156 0.928 . S
H144 C120 0.931 . S
H145 C122 0.930 . S
H146 C124 0.929 . S
H147 C125 0.931 . S
H148 C127 0.930 . S
H149 C131 0.931 . S
H150 C129 0.931 . S
H151 C133 0.931 . S
H152 C134 0.929 . S
H153 C135 0.930 . S
H154 C138 0.930 . S
H155 C139 0.931 . S
H156 C143 0.928 . S
H157 C142 0.929 . S
H158 C140 0.932 . S
C159 C160 1.386 . S
C159 C161 1.397 . S
C159 H183 0.931 . S
C160 C159 1.386 . S
C160 C164 1.397 . S
C161 C159 1.397 . S
C161 C162 1.384 . S
C161 H184 0.930 . S
C162 C161 1.384 . S
C162 C163 1.377 . S
C162 C165 1.481 . S
C163 C162 1.377 . S
C163 C164 1.389 . S
C163 H185 0.929 . S
C164 C160 1.397 . S
C164 C163 1.389 . S
C164 H186 0.931 . S
C165 C162 1.481 . S
C165 C166 1.387 . S
C165 C170 1.390 . S
C166 C165 1.387 . S
C166 C167 1.401 . S
C166 H187 0.930 . S
C167 C166 1.401 . S
C167 C168 1.376 . S
C167 C176 1.511 . S
C168 C167 1.376 . S
C168 C169 1.392 . S
C168 H189 0.931 . S
C169 C168 1.392 . S
C169 C170 1.361 . S
C169 C171 1.500 . S
C170 C165 1.390 . S
C170 C169 1.361 . S
C170 H188 0.931 . S
C171 C169 1.500 . S
C171 C172 1.371 . S
C171 C173 1.365 . S
C172 C171 1.371 . S
C172 C182 1.386 . S
C172 H190 0.931 . S
C173 C171 1.365 . S
C173 C174 1.409 . S
C173 H191 0.929 . S
C174 C173 1.409 . S
C174 C175 1.380 . S
C174 H192 0.930 . S
C175 C174 1.380 . S
C175 C182 1.357 . S
C176 C167 1.511 . S
C176 C177 1.341 . S
C176 C178 1.371 . S
C177 C176 1.341 . S
C177 C181 1.394 . S
C177 H193 0.930 . S
C178 C176 1.371 . S
C178 C179 1.392 . S
C178 H194 0.931 . S
C179 C178 1.392 . S
C179 C180 1.331 . S
C179 H197 0.932 . S
C180 C179 1.331 . S
C180 C181 1.336 . S
C181 C177 1.394 . S
C181 C180 1.336 . S
C181 H196 0.929 . S
C182 C172 1.386 . S
C182 C175 1.357 . S
C182 H195 0.928 . S
H183 C159 0.931 . S
H184 C161 0.930 . S
H185 C163 0.929 . S
H186 C164 0.931 . S
H187 C166 0.930 . S
H188 C170 0.931 . S
H189 C168 0.931 . S
H190 C172 0.931 . S
H191 C173 0.929 . S
H192 C174 0.930 . S
H193 C177 0.930 . S
H194 C178 0.931 . S
H195 C182 0.928 . S
H196 C181 0.929 . S
H197 C179 0.932 . S
H198 C206 0.929 . S
H199 C208 0.930 . S
H200 C210 0.930 1_556 S
H201 C213 0.929 . S
H202 C216 0.930 . S
H203 C218 0.960 . S
H204 C218 0.960 . S
H205 C218 0.960 . S
C206 H198 0.929 . S
C206 C207 1.377 . S
C206 C208 1.384 . S
C207 C206 1.377 . S
C207 C213 1.390 1_554 S
C208 H199 0.930 . S
C208 C206 1.384 . S
C208 C209 1.372 . S
C209 C208 1.372 . S
C209 C210 1.400 . S
C209 C214 1.490 . S
C210 H200 0.930 1_554 S
C210 C209 1.400 . S
C210 C213 1.386 1_554 S
H211 C227 0.930 . S
H212 C228 0.931 . S
C213 H201 0.929 . S
C213 C207 1.390 1_556 S
C213 C210 1.386 1_556 S
C214 C209 1.490 . S
C214 C216 1.395 . S
C214 C217 1.403 . S
H215 C221 0.930 . S
C216 H202 0.930 . S
C216 C214 1.395 . S
C216 C219 1.403 . S
C217 C214 1.403 . S
C217 C218 1.524 . S
C217 C221 1.400 . S
C218 H203 0.960 . S
C218 H204 0.960 . S
C218 H205 0.960 . S
C218 C217 1.524 . S
C219 C216 1.403 . S
C219 C220 1.392 . S
C219 C223 1.495 . S
C220 C219 1.392 . S
C220 C221 1.385 . S
C220 C222 1.478 . S
C221 H215 0.930 . S
C221 C217 1.400 . S
C221 C220 1.385 . S
C222 C220 1.478 . S
C222 C224 1.381 . S
C222 C228 1.383 . S
C223 C219 1.495 . S
C223 H229 0.959 . S
C223 H230 0.961 . S
C223 H231 0.960 . S
C224 C222 1.381 . S
C224 C225 1.394 . S
C224 H232 0.930 . S
C225 C224 1.394 . S
C225 C226 1.383 . S
C225 H233 0.929 . S
C226 C225 1.383 . S
C226 C227 1.377 . S
C227 H211 0.930 . S
C227 C226 1.377 . S
C227 C228 1.379 . S
C228 H212 0.931 . S
C228 C222 1.383 . S
C228 C227 1.379 . S
H229 C223 0.959 . S
H230 C223 0.961 . S
H231 C223 0.960 . S
H232 C224 0.930 . S
H233 C225 0.929 . S
H234 C242 0.929 . S
H235 C244 0.930 . S
H236 C246 0.930 . S
H237 C249 0.929 . S
H238 C252 0.930 . S
H239 C254 0.960 . S
H240 C254 0.960 1_556 S
H241 C254 0.960 . S
C242 H234 0.929 . S
C242 C243 1.377 1_556 S
C242 C244 1.384 . S
C243 C242 1.377 1_554 S
C243 C249 1.390 . S
C244 H235 0.930 . S
C244 C242 1.384 . S
C244 C245 1.372 . S
C245 C244 1.372 . S
C245 C246 1.400 1_556 S
C245 C250 1.490 . S
C246 H236 0.930 . S
C246 C245 1.400 1_554 S
C246 C249 1.386 . S
H247 C263 0.972 . S
H248 C264 0.931 . S
C249 H237 0.929 . S
C249 C243 1.390 . S
C249 C246 1.386 . S
C250 C245 1.490 . S
C250 C252 1.395 . S
C250 C253 1.403 . S
H251 C257 0.930 . S
C252 H238 0.930 . S
C252 C250 1.395 . S
C252 C255 1.403 . S
C253 C250 1.403 . S
C253 C254 1.524 1_556 S
C253 C257 1.400 . S
C254 H239 0.960 . S
C254 H240 0.960 1_554 S
C254 H241 0.960 . S
C254 C253 1.524 1_554 S
C255 C252 1.403 . S
C255 C256 1.392 . S
C255 C259 1.495 . S
C256 C255 1.392 . S
C256 C257 1.385 . S
C256 C258 1.478 . S
C257 H251 0.930 . S
C257 C253 1.400 . S
C257 C256 1.385 . S
C258 C256 1.478 . S
C258 C260 1.381 . S
C258 C264 1.383 1_556 S
C259 C255 1.495 . S
C259 H265 0.959 . S
C259 H266 0.961 . S
C259 H267 0.960 . S
C260 C258 1.381 . S
C260 C261 1.394 . S
C260 H268 0.930 . S
C261 C260 1.394 . S
C261 C262 1.383 . S
C261 H269 0.929 . S
C262 C261 1.383 . S
C262 C263 1.335 1_556 S
C263 H247 0.972 . S
C263 C262 1.335 1_554 S
C263 C264 1.381 . S
C264 H248 0.931 . S
C264 C258 1.383 1_554 S
C264 C263 1.381 . S
H265 C259 0.959 . S
H266 C259 0.961 . S
H267 C259 0.960 . S
H268 C260 0.930 . S
H269 C261 0.929 . S
H270 C278 0.929 . S
H271 C280 0.930 . S
H272 C282 0.930 1_556 S
H273 C285 0.929 . S
H274 C288 0.930 . S
H275 C290 0.960 . S
H276 C290 0.960 . S
H277 C290 0.960 . S
C278 H270 0.929 . S
C278 C279 1.377 . S
C278 C280 1.384 . S
C279 C278 1.377 . S
C279 C285 1.390 1_554 S
C280 H271 0.930 . S
C280 C278 1.384 . S
C280 C281 1.372 . S
C281 C280 1.372 . S
C281 C282 1.400 . S
C281 C286 1.490 . S
C282 H272 0.930 1_554 S
C282 C281 1.400 . S
C282 C285 1.386 1_554 S
H283 C299 0.930 . S
H284 C300 0.931 . S
C285 H273 0.929 . S
C285 C279 1.390 1_556 S
C285 C282 1.386 1_556 S
C286 C281 1.490 . S
C286 C288 1.395 . S
C286 C289 1.403 . S
H287 C293 0.930 . S
C288 H274 0.930 . S
C288 C286 1.395 . S
C288 C291 1.403 . S
C289 C286 1.403 . S
C289 C290 1.524 . S
C289 C293 1.400 . S
C290 H275 0.960 . S
C290 H276 0.960 . S
C290 H277 0.960 . S
C290 C289 1.524 . S
C291 C288 1.403 . S
C291 C292 1.392 . S
C291 C295 1.495 . S
C292 C291 1.392 . S
C292 C293 1.385 . S
C292 C294 1.478 . S
C293 H287 0.930 . S
C293 C289 1.400 . S
C293 C292 1.385 . S
C294 C292 1.478 . S
C294 C296 1.381 . S
C294 C300 1.383 . S
C295 C291 1.495 . S
C295 H301 0.959 . S
C295 H302 0.961 . S
C295 H303 0.960 . S
C296 C294 1.381 . S
C296 C297 1.394 . S
C296 H304 0.930 . S
C297 C296 1.394 . S
C297 C298 1.383 . S
C297 H305 0.929 . S
C298 C297 1.383 . S
C298 C299 1.377 . S
C299 H283 0.930 . S
C299 C298 1.377 . S
C299 C300 1.379 . S
C300 H284 0.931 . S
C300 C294 1.383 . S
C300 C299 1.379 . S
H301 C295 0.959 . S
H302 C295 0.961 . S
H303 C295 0.960 . S
H304 C296 0.930 . S
H305 C297 0.929 . S
H306 C314 0.929 . S
H307 C316 0.930 . S
H308 C318 0.930 . S
H309 C321 0.929 . S
H310 C324 0.930 1_554 S
H311 C326 0.960 . S
H312 C326 0.960 . S
H313 C326 0.960 . S
C314 H306 0.929 . S
C314 C315 1.377 1_556 S
C314 C316 1.384 . S
C315 C314 1.377 1_554 S
C315 C321 1.390 . S
C316 H307 0.930 . S
C316 C314 1.384 . S
C316 C317 1.372 . S
C317 C316 1.372 . S
C317 C318 1.400 1_556 S
C317 C322 1.490 . S
C318 H308 0.930 . S
C318 C317 1.400 1_554 S
C318 C321 1.386 . S
H319 C335 0.938 . S
H320 C336 0.931 1_554 S
C321 H309 0.929 . S
C321 C315 1.390 . S
C321 C318 1.386 . S
C322 C317 1.490 . S
C322 C324 1.395 . S
C322 C325 1.403 . S
H323 C329 0.930 . S
C324 H310 0.930 1_556 S
C324 C322 1.395 . S
C324 C327 1.403 . S
C325 C322 1.403 . S
C325 C326 1.524 . S
C325 C329 1.400 . S
C326 H311 0.960 . S
C326 H312 0.960 . S
C326 H313 0.960 . S
C326 C325 1.524 . S
C327 C324 1.403 . S
C327 C328 1.392 . S
C327 C331 1.490 1_556 S
C328 C327 1.392 . S
C328 C329 1.385 . S
C328 C330 1.478 . S
C329 H323 0.930 . S
C329 C325 1.400 . S
C329 C328 1.385 . S
C330 C328 1.478 . S
C330 C332 1.381 . S
C330 C336 1.383 . S
C331 C327 1.490 1_554 S
C331 H337 0.968 . S
C331 H338 0.974 . S
C331 H339 0.944 1_554 S
C332 C330 1.381 . S
C332 C333 1.394 . S
C332 H340 0.930 . S
C333 C332 1.394 . S
C333 C334 1.383 . S
C333 H341 0.929 . S
C334 C333 1.383 . S
C334 C335 1.377 . S
C335 H319 0.938 . S
C335 C334 1.377 . S
C335 C336 1.379 . S
C336 H320 0.931 1_556 S
C336 C330 1.383 . S
C336 C335 1.379 . S
H337 C331 0.968 . S
H338 C331 0.974 . S
H339 C331 0.944 1_556 S
H340 C332 0.930 . S
H341 C333 0.929 . S
H342 C350 0.929 . S
H343 C352 0.930 . S
H344 C354 0.930 . S
H345 C357 0.929 . S
H346 C360 0.930 . S
H347 C362 0.960 . S
H348 C362 0.960 . S
H349 C362 0.960 . S
C350 H342 0.929 . S
C350 C351 1.377 . S
C350 C352 1.384 . S
C351 C350 1.377 . S
C351 C357 1.390 . S
C352 H343 0.930 . S
C352 C350 1.384 . S
C352 C353 1.372 . S
C353 C352 1.372 . S
C353 C354 1.400 . S
C353 C358 1.490 . S
C354 H344 0.930 . S
C354 C353 1.400 . S
C354 C357 1.386 . S
H355 C371 0.930 . S
H356 C372 0.931 . S
C357 H345 0.929 . S
C357 C351 1.390 . S
C357 C354 1.386 . S
C358 C353 1.490 . S
C358 C360 1.395 . S
C358 C361 1.403 . S
H359 C365 0.930 . S
C360 H346 0.930 . S
C360 C358 1.395 . S
C360 C363 1.403 . S
C361 C358 1.403 . S
C361 C362 1.524 . S
C361 C365 1.400 . S
C362 H347 0.960 . S
C362 H348 0.960 . S
C362 H349 0.960 . S
C362 C361 1.524 . S
C363 C360 1.403 . S
C363 C364 1.392 . S
C363 C367 1.495 . S
C364 C363 1.392 . S
C364 C365 1.385 . S
C364 C366 1.478 . S
C365 H359 0.930 . S
C365 C361 1.400 . S
C365 C364 1.385 . S
C366 C364 1.478 . S
C366 C368 1.381 . S
C366 C372 1.383 . S
C367 C363 1.495 . S
C367 H373 0.959 . S
C367 H374 0.961 . S
C367 H375 0.960 . S
C368 C366 1.381 . S
C368 C369 1.394 . S
C368 H376 0.930 . S
C369 C368 1.394 . S
C369 C370 1.383 . S
C369 H377 0.929 . S
C370 C369 1.383 . S
C370 C371 1.377 . S
C371 H355 0.930 . S
C371 C370 1.377 . S
C371 C372 1.379 . S
C372 H356 0.931 . S
C372 C366 1.383 . S
C372 C371 1.379 . S
H373 C367 0.959 . S
H374 C367 0.961 . S
H375 C367 0.960 . S
H376 C368 0.930 . S
H377 C369 0.929 . S
H378 C386 0.929 . S
H379 C388 0.930 . S
H380 C390 0.930 . S
H381 C393 0.929 . S
H382 C396 0.930 . S
H383 C398 0.960 . S
H384 C398 0.960 . S
H385 C398 0.960 . S
C386 H378 0.929 . S
C386 C387 1.377 . S
C386 C388 1.384 . S
C387 C386 1.377 . S
C387 C393 1.390 . S
C388 H379 0.930 . S
C388 C386 1.384 . S
C388 C389 1.372 . S
C389 C388 1.372 . S
C389 C390 1.400 . S
C389 C394 1.490 . S
C390 H380 0.930 . S
C390 C389 1.400 . S
C390 C393 1.386 . S
H391 C407 0.930 . S
H392 C408 0.931 . S
C393 H381 0.929 . S
C393 C387 1.390 . S
C393 C390 1.386 . S
C394 C389 1.490 . S
C394 C396 1.395 . S
C394 C397 1.403 . S
H395 C401 0.930 . S
C396 H382 0.930 . S
C396 C394 1.395 . S
C396 C399 1.403 . S
C397 C394 1.403 . S
C397 C398 1.524 . S
C397 C401 1.400 . S
C398 H383 0.960 . S
C398 H384 0.960 . S
C398 H385 0.960 . S
C398 C397 1.524 . S
C399 C396 1.403 . S
C399 C400 1.392 . S
C399 C403 1.495 . S
C400 C399 1.392 . S
C400 C401 1.385 . S
C400 C402 1.478 . S
C401 H395 0.930 . S
C401 C397 1.400 . S
C401 C400 1.385 . S
C402 C400 1.478 . S
C402 C404 1.381 . S
C402 C408 1.383 . S
C403 C399 1.495 . S
C403 H409 0.959 . S
C403 H410 0.961 . S
C403 H411 0.960 . S
C404 C402 1.381 . S
C404 C405 1.394 . S
C404 H412 0.930 . S
C405 C404 1.394 . S
C405 C406 1.383 . S
C405 H413 0.929 . S
C406 C405 1.383 . S
C406 C407 1.377 . S
C407 H391 0.930 . S
C407 C406 1.377 . S
C407 C408 1.379 . S
C408 H392 0.931 . S
C408 C402 1.383 . S
C408 C407 1.379 . S
H409 C403 0.959 . S
H410 C403 0.961 . S
H411 C403 0.960 . S
H412 C404 0.930 . S
H413 C405 0.929 . S
H414 C422 0.929 . S
H415 C424 0.930 . S
H416 C426 0.930 . S
H417 C429 0.929 . S
H418 C432 0.930 . S
H419 C434 0.960 . S
H420 C434 0.960 . S
H421 C434 0.960 . S
C422 H414 0.929 . S
C422 C423 1.377 . S
C422 C424 1.384 . S
C423 C422 1.377 . S
C423 C429 1.390 . S
C424 H415 0.930 . S
C424 C422 1.384 . S
C424 C425 1.372 . S
C425 C424 1.372 . S
C425 C426 1.400 . S
C425 C430 1.490 . S
C426 H416 0.930 . S
C426 C425 1.400 . S
C426 C429 1.386 . S
H427 C443 0.930 . S
H428 C444 0.931 . S
C429 H417 0.929 . S
C429 C423 1.390 . S
C429 C426 1.386 . S
C430 C425 1.490 . S
C430 C432 1.395 . S
C430 C433 1.403 . S
H431 C437 0.930 . S
C432 H418 0.930 . S
C432 C430 1.395 . S
C432 C435 1.403 . S
C433 C430 1.403 . S
C433 C434 1.524 . S
C433 C437 1.400 . S
C434 H419 0.960 . S
C434 H420 0.960 . S
C434 H421 0.960 . S
C434 C433 1.524 . S
C435 C432 1.403 . S
C435 C436 1.392 . S
C435 C439 1.495 . S
C436 C435 1.392 . S
C436 C437 1.385 . S
C436 C438 1.478 . S
C437 H431 0.930 . S
C437 C433 1.400 . S
C437 C436 1.385 . S
C438 C436 1.478 . S
C438 C440 1.381 . S
C438 C444 1.383 . S
C439 C435 1.495 . S
C439 H445 0.959 . S
C439 H446 0.961 . S
C439 H447 0.960 . S
C440 C438 1.381 . S
C440 C441 1.394 . S
C440 H448 0.930 . S
C441 C440 1.394 . S
C441 C442 1.383 . S
C441 H449 0.929 . S
C442 C441 1.383 . S
C442 C443 1.377 . S
C443 H427 0.930 . S
C443 C442 1.377 . S
C443 C444 1.379 . S
C444 H428 0.931 . S
C444 C438 1.383 . S
C444 C443 1.379 . S
H445 C439 0.959 . S
H446 C439 0.961 . S
H447 C439 0.960 . S
H448 C440 0.930 . S
H449 C441 0.929 . S
H450 C458 0.929 . S
H451 C460 0.930 . S
H452 C462 0.930 . S
H453 C465 0.929 . S
H454 C468 0.930 . S
H455 C470 0.960 . S
H456 C470 0.960 . S
H457 C470 0.960 . S
C458 H450 0.929 . S
C458 C459 1.377 . S
C458 C460 1.384 . S
C459 C458 1.377 . S
C459 C465 1.390 . S
C460 H451 0.930 . S
C460 C458 1.384 . S
C460 C461 1.372 . S
C461 C460 1.372 . S
C461 C462 1.400 . S
C461 C466 1.490 . S
C462 H452 0.930 . S
C462 C461 1.400 . S
C462 C465 1.386 . S
H463 C479 0.930 . S
H464 C480 0.931 . S
C465 H453 0.929 . S
C465 C459 1.390 . S
C465 C462 1.386 . S
C466 C461 1.490 . S
C466 C468 1.395 . S
C466 C469 1.403 . S
H467 C473 0.930 . S
C468 H454 0.930 . S
C468 C466 1.395 . S
C468 C471 1.403 . S
C469 C466 1.403 . S
C469 C470 1.524 . S
C469 C473 1.400 . S
C470 H455 0.960 . S
C470 H456 0.960 . S
C470 H457 0.960 . S
C470 C469 1.524 . S
C471 C468 1.403 . S
C471 C472 1.392 . S
C471 C475 1.495 . S
C472 C471 1.392 . S
C472 C473 1.385 . S
C472 C474 1.478 . S
C473 H467 0.930 . S
C473 C469 1.400 . S
C473 C472 1.385 . S
C474 C472 1.478 . S
C474 C476 1.381 . S
C474 C480 1.383 . S
C475 C471 1.495 . S
C475 H481 0.959 . S
C475 H482 0.961 . S
C475 H483 0.960 . S
C476 C474 1.381 . S
C476 C477 1.394 . S
C476 H484 0.930 . S
C477 C476 1.394 . S
C477 C478 1.383 . S
C477 H485 0.929 . S
C478 C477 1.383 . S
C478 C479 1.377 . S
C479 H463 0.930 . S
C479 C478 1.377 . S
C479 C480 1.379 . S
C480 H464 0.931 . S
C480 C474 1.383 . S
C480 C479 1.379 . S
H481 C475 0.959 . S
H482 C475 0.961 . S
H483 C475 0.960 . S
H484 C476 0.930 . S
H485 C477 0.929 . S
H486 C494 0.929 1_655 S
H487 C496 0.930 1_655 S
H488 C498 0.930 . S
H489 C501 0.929 . S
H490 C504 0.930 . S
H491 C506 0.960 . S
H492 C506 0.960 . S
H493 C506 0.960 . S
C494 H486 0.929 1_455 S
C494 C495 1.377 . S
C494 C496 1.384 . S
C495 C494 1.377 . S
C495 C501 1.390 . S
C496 H487 0.930 1_455 S
C496 C494 1.384 . S
C496 C497 1.372 . S
C497 C496 1.372 . S
C497 C498 1.400 . S
C497 C502 1.490 . S
C498 H488 0.930 . S
C498 C497 1.400 . S
C498 C501 1.386 . S
H499 C515 0.930 . S
H500 C516 0.931 . S
C501 H489 0.929 . S
C501 C495 1.390 . S
C501 C498 1.386 . S
C502 C497 1.490 . S
C502 C504 1.395 1_545 S
C502 C505 1.403 . S
H503 C509 0.930 . S
C504 H490 0.930 . S
C504 C502 1.395 1_565 S
C504 C507 1.403 . S
C505 C502 1.403 . S
C505 C506 1.524 . S
C505 C509 1.400 . S
C506 H491 0.960 . S
C506 H492 0.960 . S
C506 H493 0.960 . S
C506 C505 1.524 . S
C507 C504 1.403 . S
C507 C508 1.401 . S
C507 C511 1.495 . S
C508 C507 1.401 . S
C508 C509 1.373 1_565 S
C508 C510 1.480 . S
C509 H503 0.930 . S
C509 C505 1.400 . S
C509 C508 1.373 1_545 S
C510 C508 1.480 . S
C510 C512 1.381 . S
C510 C516 1.383 . S
C511 C507 1.495 . S
C511 H517 0.959 1_455 S
C511 H518 0.961 . S
C511 H519 0.960 1_455 S
C512 C510 1.381 . S
C512 C513 1.394 . S
C512 H520 0.930 1_455 S
C513 C512 1.394 . S
C513 C514 1.383 . S
C513 H521 0.929 1_455 S
C514 C513 1.383 . S
C514 C515 1.377 . S
C515 H499 0.930 . S
C515 C514 1.377 . S
C515 C516 1.379 . S
C516 H500 0.931 . S
C516 C510 1.383 . S
C516 C515 1.379 . S
H517 C511 0.959 1_655 S
H518 C511 0.961 . S
H519 C511 0.960 1_655 S
H520 C512 0.930 1_655 S
H521 C513 0.929 1_655 S
H522 C530 0.929 . S
H523 C532 0.930 1_655 S
H524 C534 0.930 . S
H525 C537 0.929 1_565 S
H526 C540 0.930 . S
H527 C542 0.960 . S
H528 C542 0.959 1_545 S
H529 C542 0.960 1_455 S
C530 H522 0.929 . S
C530 C531 1.377 . S
C530 C532 1.384 . S
C531 C530 1.377 . S
C531 C537 1.390 . S
C532 H523 0.930 1_455 S
C532 C530 1.384 . S
C532 C533 1.372 . S
C533 C532 1.372 . S
C533 C534 1.400 . S
C533 C538 1.490 . S
C534 H524 0.930 . S
C534 C533 1.400 . S
C534 C537 1.386 . S
H535 C551 0.930 . S
H536 C552 0.931 . S
C537 H525 0.929 1_545 S
C537 C531 1.390 . S
C537 C534 1.386 . S
C538 C533 1.490 . S
C538 C540 1.395 . S
C538 C541 1.403 . S
H539 C545 0.930 1_655 S
C540 H526 0.930 . S
C540 C538 1.395 . S
C540 C543 1.403 . S
C541 C538 1.403 . S
C541 C542 1.524 1_445 S
C541 C545 1.400 . S
C542 H527 0.960 . S
C542 H528 0.959 1_565 S
C542 H529 0.960 1_655 S
C542 C541 1.524 1_665 S
C543 C540 1.403 . S
C543 C544 1.392 . S
C543 C547 1.495 . S
C544 C543 1.392 . S
C544 C545 1.385 . S
C544 C546 1.478 . S
C545 H539 0.930 1_455 S
C545 C541 1.400 . S
C545 C544 1.385 . S
C546 C544 1.478 . S
C546 C548 1.381 1_455 S
C546 C552 1.383 . S
C547 C543 1.495 . S
C547 H553 0.959 . S
C547 H554 0.961 . S
C547 H555 0.960 . S
C548 C546 1.381 1_655 S
C548 C549 1.394 . S
C548 H556 0.930 . S
C549 C548 1.394 . S
C549 C550 1.383 1_655 S
C549 H557 0.929 . S
C550 C549 1.383 1_455 S
C550 C551 1.377 . S
C551 H535 0.930 . S
C551 C550 1.377 . S
C551 C552 1.379 . S
C552 H536 0.931 . S
C552 C546 1.383 . S
C552 C551 1.379 . S
H553 C547 0.959 . S
H554 C547 0.961 . S
H555 C547 0.960 . S
H556 C548 0.930 . S
H557 C549 0.929 . S
H558 C566 0.929 . S
H559 C568 0.930 . S
H560 C570 0.930 . S
H561 C573 0.929 . S
H562 C576 0.930 . S
H563 C578 0.960 . S
H564 C578 0.960 . S
H565 C578 0.960 . S
C566 H558 0.929 . S
C566 C567 1.377 . S
C566 C568 1.384 . S
C567 C566 1.377 . S
C567 C573 1.390 . S
C568 H559 0.930 . S
C568 C566 1.384 . S
C568 C569 1.372 . S
C569 C568 1.372 . S
C569 C570 1.400 . S
C569 C574 1.490 . S
C570 H560 0.930 . S
C570 C569 1.400 . S
C570 C573 1.386 . S
H571 C587 0.930 . S
H572 C588 0.931 . S
C573 H561 0.929 . S
C573 C567 1.390 . S
C573 C570 1.386 . S
C574 C569 1.490 . S
C574 C576 1.395 . S
C574 C577 1.403 . S
H575 C581 0.930 . S
C576 H562 0.930 . S
C576 C574 1.395 . S
C576 C579 1.403 . S
C577 C574 1.403 . S
C577 C578 1.524 . S
C577 C581 1.400 . S
C578 H563 0.960 . S
C578 H564 0.960 . S
C578 H565 0.960 . S
C578 C577 1.524 . S
C579 C576 1.403 . S
C579 C580 1.392 . S
C579 C583 1.495 . S
C580 C579 1.392 . S
C580 C581 1.385 . S
C580 C582 1.478 . S
C581 H575 0.930 . S
C581 C577 1.400 . S
C581 C580 1.385 . S
C582 C580 1.478 . S
C582 C584 1.381 . S
C582 C588 1.383 . S
C583 C579 1.495 . S
C583 H589 0.959 . S
C583 H590 0.961 . S
C583 H591 0.960 . S
C584 C582 1.381 . S
C584 C585 1.394 . S
C584 H592 0.930 . S
C585 C584 1.394 . S
C585 C586 1.383 . S
C585 H593 0.929 . S
C586 C585 1.383 . S
C586 C587 1.377 . S
C587 H571 0.930 . S
C587 C586 1.377 . S
C587 C588 1.379 . S
C588 H572 0.931 . S
C588 C582 1.383 . S
C588 C587 1.379 . S
H589 C583 0.959 . S
H590 C583 0.961 . S
H591 C583 0.960 . S
H592 C584 0.930 . S
H593 C585 0.929 . S
H594 C602 0.929 . S
H595 C604 0.930 . S
H596 C606 0.930 . S
H597 C609 0.929 . S
H598 C612 0.930 . S
H599 C614 0.960 . S
H600 C614 0.960 . S
H601 C614 0.960 . S
C602 H594 0.929 . S
C602 C603 1.377 . S
C602 C604 1.384 . S
C603 C602 1.377 . S
C603 C609 1.390 . S
C604 H595 0.930 . S
C604 C602 1.384 . S
C604 C605 1.372 . S
C605 C604 1.372 . S
C605 C606 1.400 . S
C605 C610 1.490 . S
C606 H596 0.930 . S
C606 C605 1.400 . S
C606 C609 1.386 . S
H607 C623 0.930 . S
H608 C624 0.931 . S
C609 H597 0.929 . S
C609 C603 1.390 . S
C609 C606 1.386 . S
C610 C605 1.490 . S
C610 C612 1.395 . S
C610 C613 1.403 . S
H611 C617 0.930 . S
C612 H598 0.930 . S
C612 C610 1.395 . S
C612 C615 1.403 . S
C613 C610 1.403 . S
C613 C614 1.524 . S
C613 C617 1.400 . S
C614 H599 0.960 . S
C614 H600 0.960 . S
C614 H601 0.960 . S
C614 C613 1.524 . S
C615 C612 1.403 . S
C615 C616 1.392 . S
C615 C619 1.495 . S
C616 C615 1.392 . S
C616 C617 1.385 . S
C616 C618 1.478 . S
C617 H611 0.930 . S
C617 C613 1.400 . S
C617 C616 1.385 . S
C618 C616 1.478 . S
C618 C620 1.381 . S
C618 C624 1.383 . S
C619 C615 1.495 . S
C619 H625 0.959 . S
C619 H626 0.961 . S
C619 H627 0.960 . S
C620 C618 1.381 . S
C620 C621 1.394 . S
C620 H628 0.930 . S
C621 C620 1.394 . S
C621 C622 1.383 . S
C621 H629 0.929 . S
C622 C621 1.383 . S
C622 C623 1.377 . S
C623 H607 0.930 . S
C623 C622 1.377 . S
C623 C624 1.379 . S
C624 H608 0.931 . S
C624 C618 1.383 . S
C624 C623 1.379 . S
H625 C619 0.959 . S
H626 C619 0.961 . S
H627 C619 0.960 . S
H628 C620 0.930 . S
H629 C621 0.929 . S
C226 C175 1.386 . S
C207 C16 1.239 . S
C243 C15 1.480 . S
C262 C136 1.455 . S
C279 C13 1.277 . S
C298 C180 1.438 . S
C315 C14 1.269 . S
C334 C141 1.321 . S
C351 C37 1.241 . S
C370 C97 1.414 . S
C387 C36 1.476 . S
C406 C58 1.452 . S
C442 C102 1.440 . S
C423 C34 1.276 . S
C478 C63 1.308 . S
C459 C35 1.274 . S
C495 C17 1.519 . S
C514 C43 1.563 . S
C531 C18 1.360 . S
C550 C82 1.417 . S
C586 C121 1.561 . S
C567 C38 1.523 . S
C603 C39 1.361 . S
C622 C160 1.420 . S
