# Generated by pormake.
# Topology pto, (3,4)-cn, num edge types: 1
# Building blocks:
#     Node 0, Type 0, BuildingBlock: INOVEN_clean_linker_0, # of connection points: 3
#     Node 1, Type 0, BuildingBlock: INOVEN_clean_linker_0, # of connection points: 3
#     Node 2, Type 0, BuildingBlock: INOVEN_clean_linker_0, # of connection points: 3
#     Node 3, Type 0, BuildingBlock: INOVEN_clean_linker_0, # of connection points: 3
#     Node 4, Type 0, BuildingBlock: INOVEN_clean_linker_0, # of connection points: 3
#     Node 5, Type 0, BuildingBlock: INOVEN_clean_linker_0, # of connection points: 3
#     Node 6, Type 0, BuildingBlock: INOVEN_clean_linker_0, # of connection points: 3
#     Node 7, Type 0, BuildingBlock: INOVEN_clean_linker_0, # of connection points: 3
#     Node 8, Type 1, BuildingBlock: NAWXER_clean_sbu_0, # of connection points: 4
#     Node 9, Type 1, BuildingBlock: NAWXER_clean_sbu_0, # of connection points: 4
#     Node 10, Type 1, BuildingBlock: NAWXER_clean_sbu_0, # of connection points: 4
#     Node 11, Type 1, BuildingBlock: NAWXER_clean_sbu_0, # of connection points: 4
#     Node 12, Type 1, BuildingBlock: NAWXER_clean_sbu_0, # of connection points: 4
#     Node 13, Type 1, BuildingBlock: NAWXER_clean_sbu_0, # of connection points: 4
#     Edge 14, Type (0, 1), BuildingBlock: KIFKEQ_clean_linker_1, # of connection points: 2
#     Edge 15, Type (0, 1), BuildingBlock: KIFKEQ_clean_linker_1, # of connection points: 2
#     Edge 16, Type (0, 1), BuildingBlock: KIFKEQ_clean_linker_1, # of connection points: 2
#     Edge 17, Type (0, 1), BuildingBlock: KIFKEQ_clean_linker_1, # of connection points: 2
#     Edge 18, Type (0, 1), BuildingBlock: KIFKEQ_clean_linker_1, # of connection points: 2
#     Edge 19, Type (0, 1), BuildingBlock: KIFKEQ_clean_linker_1, # of connection points: 2
#     Edge 20, Type (0, 1), BuildingBlock: KIFKEQ_clean_linker_1, # of connection points: 2
#     Edge 21, Type (0, 1), BuildingBlock: KIFKEQ_clean_linker_1, # of connection points: 2
#     Edge 22, Type (0, 1), BuildingBlock: KIFKEQ_clean_linker_1, # of connection points: 2
#     Edge 23, Type (0, 1), BuildingBlock: KIFKEQ_clean_linker_1, # of connection points: 2
#     Edge 24, Type (0, 1), BuildingBlock: KIFKEQ_clean_linker_1, # of connection points: 2
#     Edge 25, Type (0, 1), BuildingBlock: KIFKEQ_clean_linker_1, # of connection points: 2
#     Edge 26, Type (0, 1), BuildingBlock: KIFKEQ_clean_linker_1, # of connection points: 2
#     Edge 27, Type (0, 1), BuildingBlock: KIFKEQ_clean_linker_1, # of connection points: 2
#     Edge 28, Type (0, 1), BuildingBlock: KIFKEQ_clean_linker_1, # of connection points: 2
#     Edge 29, Type (0, 1), BuildingBlock: KIFKEQ_clean_linker_1, # of connection points: 2
#     Edge 30, Type (0, 1), BuildingBlock: KIFKEQ_clean_linker_1, # of connection points: 2
#     Edge 31, Type (0, 1), BuildingBlock: KIFKEQ_clean_linker_1, # of connection points: 2
#     Edge 32, Type (0, 1), BuildingBlock: KIFKEQ_clean_linker_1, # of connection points: 2
#     Edge 33, Type (0, 1), BuildingBlock: KIFKEQ_clean_linker_1, # of connection points: 2
#     Edge 34, Type (0, 1), BuildingBlock: KIFKEQ_clean_linker_1, # of connection points: 2
#     Edge 35, Type (0, 1), BuildingBlock: KIFKEQ_clean_linker_1, # of connection points: 2
#     Edge 36, Type (0, 1), BuildingBlock: KIFKEQ_clean_linker_1, # of connection points: 2
#     Edge 37, Type (0, 1), BuildingBlock: KIFKEQ_clean_linker_1, # of connection points: 2
# Relax obj value: 0.009
# Max RMSD: 0.132
# Mean RMSD: 0.055
data_MOF--net-pto--node1-NAWXER_clean_sbu_0--node2-INOVEN_clean_linker_0--edge1-KIFKEQ_clean_linker_1
_symmetry_space_group_name_H-M    P1
_symmetry_Int_Tables_number       1
_symmetry_cell_setting            triclinic
loop_
_symmetry_equiv_pos_as_xyz
'x, y, z'
_cell_length_a     43.446444
_cell_length_b     39.916583
_cell_length_c     38.476356
_cell_angle_alpha  108.73475
_cell_angle_beta   95.670821
_cell_angle_gamma 98.728645
loop_
_atom_site_label
_atom_site_type_symbol
_atom_site_fract_x
_atom_site_fract_y
_atom_site_fract_z
_atom_type_partial_charge
H0 H 0.26076 0.25341 0.43705 0.0
H1 H 0.35655 0.2516 0.41821 0.0
H2 H 0.30177 0.31344 0.3727 0.0
N3 N 0.24801 0.29363 0.39631 0.0
N4 N 0.24312 0.3086 0.37288 0.0
C5 C 0.2808 0.26211 0.4252 0.0
C6 C 0.3093 0.25047 0.43075 0.0
C7 C 0.27764 0.28385 0.40327 0.0
C8 C 0.30381 0.29536 0.38823 0.0
C9 C 0.33261 0.28422 0.39353 0.0
C10 C 0.3349 0.26127 0.4145 0.0
H11 H 0.25293 0.77717 0.81851 0.0
H12 H 0.30437 0.71567 0.86818 0.0
H13 H 0.35368 0.78874 0.82202 0.0
N14 N 0.3016 0.80991 0.79733 0.0
N15 N 0.32579 0.8278 0.79207 0.0
C16 C 0.27503 0.77015 0.82655 0.0
C17 C 0.2753 0.7446 0.84461 0.0
C18 C 0.30312 0.78604 0.81792 0.0
C19 C 0.33183 0.77675 0.8284 0.0
C20 C 0.33221 0.75096 0.84607 0.0
C21 C 0.30394 0.73507 0.85391 0.0
H22 H 0.79738 0.62889 0.29754 0.0
H23 H 0.84034 0.70237 0.40655 0.0
H24 H 0.7506 0.71208 0.35598 0.0
N25 N 0.74772 0.65699 0.29156 0.0
N26 N 0.72175 0.6667 0.29172 0.0
C27 C 0.79676 0.65121 0.32242 0.0
C28 C 0.82181 0.66278 0.35219 0.0
C29 C 0.77106 0.6685 0.32371 0.0
C30 C 0.77014 0.69807 0.35535 0.0
C31 C 0.79527 0.71089 0.38528 0.0
C32 C 0.8211 0.69306 0.38343 0.0
H33 H 0.80366 0.37773 0.99289 0.0
H34 H 0.84442 0.31185 0.90412 0.0
H35 H 0.75467 0.27042 0.92832 0.0
N36 N 0.75218 0.33134 0.98503 0.0
N37 N 0.72974 0.30702 0.98333 0.0
C38 C 0.80264 0.35273 0.9703 0.0
C39 C 0.82752 0.3484 0.94957 0.0
C40 C 0.77644 0.32499 0.96289 0.0
C41 C 0.77486 0.29205 0.93405 0.0
C42 C 0.79948 0.28688 0.91282 0.0
C43 C 0.82577 0.31523 0.92093 0.0
H44 H 0.77663 0.78265 0.86633 0.0
H45 H 0.80425 0.68913 0.88374 0.0
H46 H 0.85739 0.74597 0.82413 0.0
N47 N 0.82192 0.79659 0.83041 0.0
N48 N 0.84697 0.80595 0.8197 0.0
C49 C 0.7918 0.76299 0.86232 0.0
C50 C 0.78646 0.73475 0.87675 0.0
C51 C 0.81735 0.76726 0.84379 0.0
C52 C 0.83797 0.74295 0.8392 0.0
C53 C 0.83378 0.71488 0.85395 0.0
C54 C 0.80769 0.7107 0.87235 0.0
H55 H 0.74402 0.22609 0.4027 0.0
H56 H 0.7896 0.32283 0.38716 0.0
H57 H 0.83643 0.28004 0.46227 0.0
N58 N 0.79128 0.22169 0.4491 0.0
N59 N 0.81466 0.22259 0.47127 0.0
C60 C 0.76401 0.2481 0.40901 0.0
C61 C 0.76314 0.27494 0.39272 0.0
C62 C 0.79044 0.24969 0.43387 0.0
C63 C 0.81621 0.27843 0.44253 0.0
C64 C 0.81655 0.30472 0.4255 0.0
C65 C 0.7896 0.30308 0.40099 0.0
H66 H 0.2097 0.2521 0.8914 0.0
H67 H 0.29179 0.21863 0.93069 0.0
H68 H 0.26692 0.31801 0.99541 0.0
N69 N 0.21603 0.31252 0.94368 0.0
N70 N 0.22372 0.34566 0.96044 0.0
C71 C 0.22997 0.25634 0.91225 0.0
C72 C 0.25038 0.23187 0.90656 0.0
C73 C 0.23619 0.28772 0.94325 0.0
C74 C 0.26221 0.29385 0.97102 0.0
C75 C 0.28144 0.26772 0.96737 0.0
C76 C 0.27567 0.23728 0.93471 0.0
H77 H 0.29795 0.65739 0.2704 0.0
H78 H 0.25199 0.72117 0.3542 0.0
H79 H 0.32638 0.77334 0.31269 0.0
N80 N 0.33732 0.71232 0.26358 0.0
N81 N 0.35316 0.73977 0.26045 0.0
C82 C 0.29543 0.68354 0.28865 0.0
C83 C 0.27324 0.68595 0.3131 0.0
C84 C 0.31457 0.71509 0.28806 0.0
C85 C 0.31124 0.74897 0.31225 0.0
C86 C 0.28901 0.7514 0.33662 0.0
C87 C 0.26993 0.71972 0.33634 0.0
C88 C 0.00766 0.47099 0.4127 0.0
C89 C 0.09267 0.53927 0.37304 0.0
O90 O 0.0278 0.49796 0.43476 0.0
Zn91 Zn 0.04974 0.50836 0.39602 0.0
O92 O 0.00763 0.46145 0.37762 0.0
Zn93 Zn 0.03174 0.47613 0.33794 0.0
O94 O 0.04781 0.43192 0.31517 0.0
O95 O 0.06793 0.46037 0.37437 0.0
O96 O 0.07315 0.51506 0.3466 0.0
O97 O 0.08793 0.54538 0.40648 0.0
O98 O 0.01535 0.52874 0.37032 0.0
O99 O 0.99915 0.49314 0.31227 0.0
C100 C 0.06596 0.4338 0.34421 0.0
C101 C 0.99751 0.52113 0.33923 0.0
C102 C 0.01068 0.53707 0.96038 0.0
C103 C 0.0931 0.60919 0.92009 0.0
O104 O 0.02948 0.5655 0.98197 0.0
Zn105 Zn 0.0534 0.57456 0.9439 0.0
O106 O 0.01314 0.5247 0.92597 0.0
Zn107 Zn 0.04063 0.53592 0.88724 0.0
O108 O 0.06238 0.49503 0.8741 0.0
O109 O 0.07819 0.53167 0.93192 0.0
O110 O 0.07739 0.58052 0.89475 0.0
O111 O 0.08724 0.61664 0.95327 0.0
O112 O 0.01805 0.58508 0.90897 0.0
O113 O 0.00768 0.54326 0.85311 0.0
C114 C 0.07999 0.50328 0.90532 0.0
C115 C 1.00244 0.57218 0.87599 0.0
C116 C 0.31518 0.98996 0.63853 0.0
C117 C 0.31284 0.07909 0.57445 0.0
O118 O 0.28751 0.99183 0.62522 0.0
Zn119 Zn 0.26541 0.02042 0.5944 0.0
O120 O 0.33914 0.00952 0.6334 0.0
Zn121 Zn 0.31582 0.03498 0.60697 0.0
O122 O 0.29104 0.06218 0.64922 0.0
O123 O 0.23983 0.04468 0.62886 0.0
O124 O 0.33707 0.074 0.59204 0.0
O125 O 0.28565 0.06087 0.57356 0.0
O126 O 0.24511 0.98208 0.54958 0.0
O127 O 0.29713 0.99321 0.55487 0.0
C128 C 0.26252 0.0634 0.65453 0.0
C129 C 0.2701 0.97554 0.53636 0.0
C130 C 0.57787 0.66131 0.07469 0.0
C131 C 0.5099 0.68746 0.98134 0.0
O132 O 0.55791 0.63812 0.04827 0.0
Zn133 Zn 0.54309 0.67249 0.02757 0.0
O134 O 0.58069 0.69494 0.07941 0.0
Zn135 Zn 0.56036 0.72938 0.05526 0.0
O136 O 0.53868 0.7556 0.09461 0.0
O137 O 0.51692 0.69799 0.06873 0.0
O138 O 0.5267 0.71567 0.00629 0.0
O139 O 0.51172 0.65643 0.98285 0.0
O140 O 0.58502 0.6948 0.01082 0.0
O141 O 0.59707 0.75348 0.04175 0.0
C142 C 0.51722 0.72912 0.09236 0.0
C143 C 0.60312 0.72557 0.01814 0.0
C144 C 0.85331 0.98612 0.69329 0.0
C145 C 0.83428 0.04663 0.60375 0.0
O146 O 0.82404 0.98463 0.68287 0.0
Zn147 Zn 0.79509 1.00098 0.6456 0.0
O148 O 0.87434 1.00139 0.67956 0.0
Zn149 Zn 0.84526 0.01566 0.64787 0.0
O150 O 0.82485 0.05383 0.68746 0.0
O151 O 0.77369 0.03346 0.68069 0.0
O152 O 0.86088 0.04314 0.61772 0.0
O153 O 0.80898 0.0322 0.61212 0.0
O154 O 0.77285 0.95448 0.60847 0.0
O155 O 0.82403 0.96446 0.60784 0.0
C156 C 0.79794 0.0579 0.6974 0.0
C157 C 0.79685 0.94393 0.5953 0.0
C158 C 0.57248 0.2769 0.21985 0.0
C159 C 0.47746 0.28026 0.14062 0.0
O160 O 0.5528 0.24949 0.19782 0.0
Zn161 Zn 0.52465 0.27614 0.17937 0.0
O162 O 0.56792 0.30862 0.2229 0.0
Zn163 Zn 0.53522 0.33442 0.201 0.0
O164 O 0.51747 0.35946 0.24468 0.0
O165 O 0.50501 0.30009 0.22772 0.0
O166 O 0.49354 0.31136 0.16075 0.0
O167 O 0.48697 0.25205 0.14221 0.0
O168 O 0.55378 0.30109 0.1496 0.0
O169 O 0.5626 0.3603 0.17671 0.0
C170 C 0.50361 0.33137 0.24985 0.0
C171 C 0.56676 0.33265 0.15105 0.0
H172 H 0.19031 0.30155 0.40517 0.0
H173 H 0.23052 0.33996 0.32375 0.0
H174 H 0.14255 0.32438 0.39352 0.0
H175 H 0.18315 0.36354 0.31241 0.0
H176 H 0.08717 0.38783 0.28513 0.0
H177 H 0.12676 0.35067 0.28866 0.0
H178 H 0.1303 0.38358 0.40772 0.0
H179 H 0.09085 0.41968 0.40409 0.0
C180 C 0.18881 0.31469 0.3846 0.0
C181 C 0.21414 0.31936 0.36543 0.0
C182 C 0.16151 0.32786 0.37795 0.0
C183 C 0.15898 0.34597 0.35209 0.0
C184 C 0.184 0.34936 0.33211 0.0
C185 C 0.21123 0.33619 0.33878 0.0
C186 C 0.09598 0.38641 0.31185 0.0
C187 C 0.08608 0.40694 0.34433 0.0
C188 C 0.11883 0.3654 0.31397 0.0
C189 C 0.13191 0.36427 0.34854 0.0
C190 C 0.12063 0.38338 0.38059 0.0
C191 C 0.09811 0.4044 0.37851 0.0
H192 H 0.23117 0.77636 0.88292 0.0
H193 H 0.25406 0.67287 0.82741 0.0
H194 H 0.1857 0.74623 0.90242 0.0
H195 H 0.20916 0.643 0.84674 0.0
H196 H 0.13331 0.67279 0.96439 0.0
H197 H 0.17568 0.70815 0.94541 0.0
H198 H 0.15072 0.6333 0.8329 0.0
H199 H 0.10908 0.59829 0.85139 0.0
C200 C 0.22621 0.74721 0.87452 0.0
C201 C 0.24602 0.7269 0.85356 0.0
C202 C 0.20048 0.73004 0.88601 0.0
C203 C 0.19388 0.69226 0.87615 0.0
C204 C 0.21343 0.6721 0.85455 0.0
C205 C 0.23918 0.68919 0.84353 0.0
C206 C 0.13682 0.66408 0.93561 0.0
C207 C 0.11796 0.63244 0.90959 0.0
C208 C 0.16093 0.68442 0.92471 0.0
C209 C 0.16669 0.67328 0.88771 0.0
C210 C 0.14722 0.6423 0.8617 0.0
C211 C 0.12324 0.62224 0.87242 0.0
H212 H 0.81887 0.58985 0.32689 0.0
H213 H 0.88534 0.69108 0.37157 0.0
H214 H 0.86222 0.55729 0.32024 0.0
H215 H 0.92891 0.65849 0.36462 0.0
H216 H 0.99478 0.58614 0.38936 0.0
H217 H 0.95339 0.62074 0.39108 0.0
H218 H 0.90502 0.54352 0.28575 0.0
H219 H 0.9465 0.50801 0.28451 0.0
C220 C 0.8428 0.6052 0.33504 0.0
C221 C 0.84859 0.64314 0.34978 0.0
C222 C 0.8677 0.58649 0.331 0.0
C223 C 0.89917 0.60515 0.34159 0.0
C224 C 0.90499 0.64314 0.3565 0.0
C225 C 0.88002 0.66188 0.36063 0.0
C226 C 0.97551 0.57655 0.36628 0.0
C227 C 0.97393 0.54405 0.33686 0.0
C228 C 0.95178 0.59666 0.36719 0.0
C229 C 0.92567 0.58497 0.33869 0.0
C230 C 0.92456 0.55309 0.3085 0.0
C231 C 0.94847 0.53288 0.30756 0.0
H232 H 0.82659 0.42045 0.96748 0.0
H233 H 0.89047 0.34563 0.94986 0.0
H234 H 0.87076 0.47028 0.9803 0.0
H235 H 0.93463 0.39551 0.96092 0.0
H236 H 0.01256 0.49388 0.00277 0.0
H237 H 0.9679 0.44985 0.00625 0.0
H238 H 0.90506 0.49202 0.94413 0.0
H239 H 0.94943 0.53582 0.9414 0.0
C240 C 0.85009 0.41458 0.96659 0.0
C241 C 0.85486 0.37886 0.95754 0.0
C242 C 0.87545 0.44323 0.97364 0.0
C243 C 0.90634 0.43704 0.97162 0.0
C244 C 0.91125 0.40141 0.96323 0.0
C245 C 0.88583 0.37269 0.95626 0.0
C246 C 0.98894 0.49455 0.99136 0.0
C247 C 0.98416 0.51865 0.97259 0.0
C248 C 0.96345 0.46899 0.99271 0.0
C249 C 0.93284 0.46714 0.97522 0.0
C250 C 0.92809 0.49284 0.95838 0.0
C251 C 0.95348 0.51811 0.95691 0.0
H252 H 0.3004 0.26233 0.50273 0.0
H253 H 0.32466 0.18394 0.40805 0.0
H254 H 0.30474 0.22167 0.53861 0.0
H255 H 0.32796 0.14291 0.44352 0.0
H256 H 0.27536 0.07311 0.51131 0.0
H257 H 0.2772 0.11527 0.47711 0.0
H258 H 0.35657 0.18566 0.55655 0.0
H259 H 0.35553 0.14262 0.59044 0.0
C260 C 0.30665 0.23642 0.48968 0.0
C261 C 0.31217 0.22619 0.45267 0.0
C262 C 0.30933 0.21336 0.51022 0.0
C263 C 0.31685 0.17936 0.4938 0.0
C264 C 0.32231 0.1691 0.45679 0.0
C265 C 0.32039 0.19249 0.43657 0.0
C266 C 0.29335 0.09747 0.52144 0.0
C267 C 0.3153 0.1046 0.5536 0.0
C268 C 0.29441 0.12148 0.50178 0.0
C269 C 0.31694 0.15362 0.5143 0.0
C270 C 0.33894 0.16099 0.54646 0.0
C271 C 0.33842 0.13639 0.56569 0.0
H272 H 0.38522 0.79504 0.89079 0.0
H273 H 0.34542 0.68353 0.82785 0.0
H274 H 0.43031 0.77719 0.91794 0.0
H275 H 0.39125 0.66535 0.85327 0.0
H276 H 0.45244 0.64498 0.9469 0.0
H277 H 0.41174 0.65925 0.90867 0.0
H278 H 0.47635 0.75459 0.9123 0.0
H279 H 0.51614 0.7412 0.95222 0.0
C280 C 0.38669 0.76676 0.88198 0.0
C281 C 0.36192 0.74065 0.85742 0.0
C282 C 0.41259 0.75638 0.8974 0.0
C283 C 0.41452 0.71965 0.88811 0.0
C284 C 0.39036 0.69376 0.86184 0.0
C285 C 0.36424 0.70414 0.84695 0.0
C286 C 0.458 0.66861 0.93893 0.0
C287 C 0.48728 0.69215 0.95278 0.0
C288 C 0.43471 0.67684 0.91687 0.0
C289 C 0.44045 0.70847 0.90765 0.0
C290 C 0.47062 0.73062 0.91962 0.0
C291 C 0.49359 0.72277 0.94224 0.0
H292 H 0.74661 0.72729 0.42405 0.0
H293 H 0.84294 0.76925 0.41898 0.0
H294 H 0.74569 0.78203 0.4756 0.0
H295 H 0.84187 0.82441 0.46935 0.0
H296 H 0.8435 0.90579 0.58123 0.0
H297 H 0.84227 0.8489 0.53272 0.0
H298 H 0.7444 0.84416 0.49353 0.0
H299 H 0.74542 0.90087 0.54382 0.0
C300 C 0.76756 0.74833 0.43388 0.0
C301 C 0.79494 0.74378 0.41758 0.0
C302 C 0.767 0.77988 0.46334 0.0
C303 C 0.79371 0.80793 0.47704 0.0
C304 C 0.82101 0.80327 0.46042 0.0
C305 C 0.82168 0.77158 0.43135 0.0
C306 C 0.82162 0.89261 0.56236 0.0
C307 C 0.79461 0.90809 0.56627 0.0
C308 C 0.82098 0.85995 0.5342 0.0
C309 C 0.79341 0.84187 0.50848 0.0
C310 C 0.76606 0.85698 0.51286 0.0
C311 C 0.7666 0.88961 0.5416 0.0
H312 H 0.68571 0.25745 0.99084 0.0
H313 H 0.71954 0.3723 0.02653 0.0
H314 H 0.64489 0.2669 0.03021 0.0
H315 H 0.6779 0.38227 0.06479 0.0
H316 H 0.622 0.38085 0.16183 0.0
H317 H 0.66118 0.37686 0.11985 0.0
H318 H 0.59737 0.28681 0.03649 0.0
H319 H 0.55933 0.28981 0.07912 0.0
C320 C 0.68405 0.28474 0.00689 0.0
C321 C 0.70571 0.31392 0.00575 0.0
C322 C 0.66053 0.29032 0.02924 0.0
C323 C 0.65778 0.32547 0.05065 0.0
C324 C 0.67944 0.35484 0.04914 0.0
C325 C 0.70323 0.34915 0.02704 0.0
C326 C 0.61627 0.36072 0.13425 0.0
C327 C 0.5878 0.33547 0.12379 0.0
C328 C 0.63869 0.35835 0.11011 0.0
C329 C 0.63281 0.33099 0.07488 0.0
C330 C 0.60328 0.30746 0.06374 0.0
C331 C 0.58126 0.30942 0.08802 0.0
H332 H 0.37292 0.87716 0.78904 0.0
H333 H 0.27536 0.82901 0.74476 0.0
H334 H 0.37177 0.91707 0.75229 0.0
H335 H 0.2743 0.86712 0.70657 0.0
H336 H 0.26989 0.96371 0.67188 0.0
H337 H 0.2731 0.92546 0.70921 0.0
H338 H 0.36996 0.9228 0.69327 0.0
H339 H 0.36702 0.96304 0.65706 0.0
C340 C 0.35129 0.87512 0.77123 0.0
C341 C 0.32424 0.85049 0.77018 0.0
C342 C 0.35063 0.89769 0.74986 0.0
C343 C 0.32288 0.89573 0.72639 0.0
C344 C 0.29593 0.87031 0.7249 0.0
C345 C 0.2965 0.8482 0.74669 0.0
C346 C 0.29193 0.95496 0.6762 0.0
C347 C 0.31816 0.9663 0.66119 0.0
C348 C 0.29372 0.93266 0.69753 0.0
C349 C 0.32166 0.92035 0.70411 0.0
C350 C 0.34808 0.9319 0.68925 0.0
C351 C 0.34641 0.95483 0.66826 0.0
H352 H 0.73187 0.63555 0.22081 0.0
H353 H 0.6623 0.67566 0.28733 0.0
H354 H 0.69531 0.62514 0.16426 0.0
H355 H 0.62532 0.66469 0.23043 0.0
H356 H 0.56093 0.61919 0.11609 0.0
H357 H 0.59496 0.61284 0.16786 0.0
H358 H 0.67483 0.67466 0.14285 0.0
H359 H 0.64087 0.68172 0.09226 0.0
C360 C 0.70851 0.64146 0.22333 0.0
C361 C 0.69977 0.65657 0.25847 0.0
C362 C 0.68763 0.63549 0.19096 0.0
C363 C 0.65753 0.64403 0.19304 0.0
C364 C 0.64827 0.65746 0.22808 0.0
C365 C 0.66937 0.66394 0.26053 0.0
C366 C 0.58592 0.6305 0.12122 0.0
C367 C 0.59848 0.65074 0.1003 0.0
C368 C 0.60526 0.62715 0.15088 0.0
C369 C 0.63746 0.64326 0.15924 0.0
C370 C 0.65018 0.66167 0.13679 0.0
C371 C 0.6308 0.66574 0.10791 0.0
H372 H 0.74879 0.24654 0.85949 0.0
H373 H 0.84626 0.24825 0.89656 0.0
H374 H 0.7469 0.19092 0.80771 0.0
H375 H 0.8443 0.19249 0.84548 0.0
H376 H 0.84352 0.1182 0.72906 0.0
H377 H 0.84248 0.17213 0.78047 0.0
H378 H 0.74764 0.12731 0.78876 0.0
H379 H 0.74839 0.07316 0.73596 0.0
C380 C 0.76972 0.23481 0.85684 0.0
C381 C 0.79777 0.25207 0.88203 0.0
C382 C 0.76861 0.20282 0.82716 0.0
C383 C 0.79551 0.18718 0.822 0.0
C384 C 0.8233 0.20407 0.84786 0.0
C385 C 0.82444 0.23609 0.8773 0.0
C386 C 0.82234 0.11967 0.74171 0.0
C387 C 0.79607 0.0911 0.72837 0.0
C388 C 0.82185 0.15067 0.77155 0.0
C389 C 0.79516 0.15412 0.78935 0.0
C390 C 0.76858 0.12579 0.77567 0.0
C391 C 0.76901 0.09465 0.74547 0.0
H392 H 0.39597 0.30031 0.42208 0.0
H393 H 0.3316 0.29546 0.32653 0.0
H394 H 0.44044 0.31796 0.39325 0.0
H395 H 0.37599 0.31496 0.2991 0.0
H396 H 0.46278 0.37693 0.2729 0.0
H397 H 0.42271 0.3705 0.31242 0.0
H398 H 0.4604 0.28306 0.33215 0.0
H399 H 0.4997 0.28891 0.29219 0.0
C400 C 0.39116 0.30303 0.39507 0.0
C401 C 0.35996 0.29628 0.37674 0.0
C402 C 0.41668 0.31354 0.37881 0.0
C403 C 0.4116 0.31824 0.34419 0.0
C404 C 0.38055 0.31229 0.32618 0.0
C405 C 0.35509 0.30113 0.34205 0.0
C406 C 0.46296 0.35707 0.28656 0.0
C407 C 0.48424 0.33341 0.27959 0.0
C408 C 0.43995 0.35319 0.30886 0.0
C409 C 0.43844 0.32618 0.32517 0.0
C410 C 0.46114 0.30424 0.32015 0.0
C411 C 0.48357 0.30756 0.29726 0.0
H412 H 0.89758 0.73564 0.86168 0.0
H413 H 0.82494 0.64167 0.8417 0.0
H414 H 0.93754 0.69926 0.8594 0.0
H415 H 0.8657 0.60535 0.84173 0.0
H416 H 0.95119 0.54719 0.81925 0.0
H417 H 0.90934 0.57994 0.80916 0.0
H418 H 0.95734 0.6729 0.90273 0.0
H419 H 0.99866 0.64119 0.91209 0.0
C420 C 0.89 0.70708 0.85639 0.0
C421 C 0.85789 0.69167 0.85181 0.0
C422 C 0.91306 0.68625 0.85552 0.0
C423 C 0.90486 0.64946 0.85075 0.0
C424 C 0.87275 0.6336 0.84522 0.0
C425 C 0.84947 0.65452 0.84578 0.0
C426 C 0.95288 0.57481 0.83714 0.0
C427 C 0.97824 0.59157 0.86642 0.0
C428 C 0.92884 0.5934 0.83163 0.0
C429 C 0.9301 0.62909 0.85505 0.0
C430 C 0.95581 0.64573 0.88375 0.0
C431 C 0.97949 0.62734 0.88928 0.0
H432 H 0.8228 0.37643 0.43142 0.0
H433 H 0.87737 0.29474 0.433 0.0
H434 H 0.87156 0.41889 0.43678 0.0
H435 H 0.9255 0.33748 0.44089 0.0
H436 H 0.99262 0.39901 0.38772 0.0
H437 H 0.94744 0.36126 0.39723 0.0
H438 H 0.92336 0.45492 0.47529 0.0
H439 H 0.96921 0.49326 0.46505 0.0
C440 C 0.84508 0.36761 0.43335 0.0
C441 C 0.84597 0.332 0.4316 0.0
C442 C 0.87305 0.39213 0.43706 0.0
C443 C 0.90242 0.38151 0.43912 0.0
C444 C 0.90328 0.34645 0.43896 0.0
C445 C 0.87553 0.32198 0.43485 0.0
C446 C 0.97812 0.41148 0.4076 0.0
C447 C 0.98438 0.44894 0.42577 0.0
C448 C 0.95222 0.38982 0.41318 0.0
C449 C 0.93171 0.40503 0.43703 0.0
C450 C 0.93866 0.44248 0.45656 0.0
C451 C 0.96503 0.46433 0.45114 0.0
H452 H 0.16256 0.32521 0.92649 0.0
H453 H 0.23712 0.41751 0.98271 0.0
H454 H 0.12902 0.36412 0.91249 0.0
H455 H 0.20352 0.45691 0.96807 0.0
H456 H 0.12152 0.51733 0.9683 0.0
H457 H 0.15621 0.47978 0.98256 0.0
H458 H 0.1246 0.40043 0.87293 0.0
H459 H 0.089 0.43796 0.85875 0.0
C460 C 0.17177 0.35395 0.93607 0.0
C461 C 0.20261 0.36848 0.9558 0.0
C462 C 0.1526 0.37623 0.92763 0.0
C463 C 0.16368 0.41358 0.93863 0.0
C464 C 0.19418 0.42824 0.9593 0.0
C465 C 0.21341 0.40584 0.96782 0.0
C466 C 0.12191 0.49192 0.94704 0.0
C467 C 0.10225 0.48057 0.91235 0.0
C468 C 0.14207 0.47049 0.95523 0.0
C469 C 0.1432 0.43705 0.929 0.0
C470 C 0.12397 0.42587 0.89399 0.0
C471 C 0.10372 0.44743 0.88573 0.0
H472 H 0.22078 0.6455 0.26516 0.0
H473 H 0.27763 0.65829 0.36855 0.0
H474 H 0.17796 0.60732 0.27944 0.0
H475 H 0.23531 0.61927 0.38273 0.0
H476 H 0.13821 0.5966 0.41892 0.0
H477 H 0.18475 0.62641 0.40164 0.0
H478 H 0.15854 0.55228 0.2887 0.0
H479 H 0.11195 0.5235 0.30552 0.0
C480 C 0.22455 0.63866 0.29011 0.0
C481 C 0.25252 0.65417 0.31547 0.0
C482 C 0.19999 0.61705 0.29855 0.0
C483 C 0.20299 0.61062 0.33257 0.0
C484 C 0.23194 0.62425 0.35669 0.0
C485 C 0.2564 0.64597 0.34829 0.0
C486 C 0.14242 0.58679 0.39044 0.0
C487 C 0.12116 0.55793 0.36362 0.0
C488 C 0.16924 0.6036 0.38055 0.0
C489 C 0.17544 0.59172 0.3437 0.0
C490 C 0.15434 0.56253 0.31715 0.0
C491 C 0.12757 0.54597 0.32692 0.0
H492 H 0.80236 0.84198 0.80389 0.0
H493 H 0.90047 0.83517 0.80379 0.0
H494 H 0.80976 0.89026 0.77833 0.0
H495 H 0.90855 0.88501 0.77928 0.0
H496 H 0.8939 0.93955 0.68861 0.0
H497 H 0.8958 0.89817 0.72358 0.0
H498 H 0.83254 0.95136 0.79263 0.0
H499 H 0.82946 0.99101 0.75631 0.0
C500 C 0.82569 0.85126 0.79887 0.0
C501 C 0.85101 0.83502 0.80587 0.0
C502 C 0.83007 0.87923 0.7845 0.0
C503 C 0.8599 0.89198 0.77716 0.0
C504 C 0.88525 0.87578 0.78441 0.0
C505 C 0.88074 0.84744 0.79853 0.0
C506 C 0.88118 0.94285 0.71195 0.0
C507 C 0.86137 0.96809 0.71975 0.0
C508 C 0.88218 0.91918 0.73199 0.0
C509 C 0.86369 0.92085 0.76038 0.0
C510 C 0.84625 0.9485 0.77018 0.0
C511 C 0.84476 0.97152 0.74973 0.0
H512 H 0.73288 0.32982 0.39231 0.0
H513 H 0.72923 0.21666 0.33477 0.0
H514 H 0.68672 0.32811 0.35003 0.0
H515 H 0.68343 0.21499 0.29142 0.0
H516 H 0.58287 0.21963 0.24179 0.0
H517 H 0.62857 0.21777 0.28352 0.0
H518 H 0.67216 0.32436 0.28845 0.0
H519 H 0.62644 0.32663 0.24846 0.0
C520 C 0.72235 0.30464 0.37031 0.0
C521 C 0.7348 0.27347 0.36677 0.0
C522 C 0.6959 0.30361 0.3459 0.0
C523 C 0.68139 0.27147 0.31686 0.0
C524 C 0.69369 0.24013 0.31359 0.0
C525 C 0.72002 0.24109 0.33835 0.0
C526 C 0.60236 0.24249 0.25174 0.0
C527 C 0.60086 0.27342 0.24221 0.0
C528 C 0.6286 0.24145 0.27558 0.0
C529 C 0.65397 0.27119 0.28998 0.0
C530 C 0.65279 0.30139 0.279 0.0
C531 C 0.62657 0.30259 0.25574 0.0
H532 H 0.26051 0.16248 0.89155 0.0
H533 H 0.23279 0.23595 0.83813 0.0
H534 H 0.25927 0.11755 0.8304 0.0
H535 H 0.2303 0.19067 0.77772 0.0
H536 H 0.20931 0.08949 0.67342 0.0
H537 H 0.2015 0.12618 0.73551 0.0
H538 H 0.29473 0.12037 0.78079 0.0
H539 H 0.3027 0.08438 0.71932 0.0
C540 C 0.25384 0.16895 0.86694 0.0
C541 C 0.24675 0.20287 0.86988 0.0
C542 C 0.25291 0.14316 0.83203 0.0
C543 C 0.24448 0.15071 0.79952 0.0
C544 C 0.23626 0.18397 0.80237 0.0
C545 C 0.23765 0.20987 0.83712 0.0
C546 C 0.22798 0.09597 0.69673 0.0
C547 C 0.25673 0.08457 0.69153 0.0
C548 C 0.22352 0.11681 0.73212 0.0
C549 C 0.24748 0.1258 0.76279 0.0
C550 C 0.27576 0.1134 0.75768 0.0
C551 C 0.28042 0.0932 0.72239 0.0
H552 H 0.37495 0.68055 0.2211 0.0
H553 H 0.38413 0.79528 0.24675 0.0
H554 H 0.41542 0.67975 0.18134 0.0
H555 H 0.42399 0.79466 0.20588 0.0
H556 H 0.51644 0.78446 0.15718 0.0
H557 H 0.47702 0.78728 0.19883 0.0
H558 H 0.42276 0.68546 0.12322 0.0
H559 H 0.46229 0.68216 0.08265 0.0
C560 C 0.3855 0.70557 0.21795 0.0
C561 C 0.3764 0.73808 0.23674 0.0
C562 C 0.40861 0.70516 0.19501 0.0
C563 C 0.42293 0.73714 0.19012 0.0
C564 C 0.41383 0.76961 0.20926 0.0
C565 C 0.39088 0.77 0.23239 0.0
C566 C 0.49599 0.76284 0.14949 0.0
C567 C 0.49266 0.73299 0.11677 0.0
C568 C 0.47334 0.76444 0.17328 0.0
C569 C 0.4468 0.73636 0.16466 0.0
C570 C 0.44321 0.70712 0.13135 0.0
C571 C 0.46585 0.70538 0.10787 0.0
H572 H 0.86056 0.22515 0.5226 0.0
H573 H 0.77452 0.15794 0.45419 0.0
H574 H 0.86638 0.17985 0.55169 0.0
H575 H 0.78062 0.11182 0.48213 0.0
H576 H 0.78098 0.06262 0.57483 0.0
H577 H 0.77664 0.10305 0.54 0.0
H578 H 0.87757 0.12097 0.54216 0.0
H579 H 0.88207 0.08114 0.57837 0.0
C580 C 0.84307 0.20041 0.51373 0.0
C581 C 0.81709 0.1951 0.48667 0.0
C582 C 0.8465 0.17432 0.53001 0.0
C583 C 0.824 0.1421 0.51924 0.0
C584 C 0.79815 0.13653 0.49147 0.0
C585 C 0.79465 0.16285 0.47538 0.0
C586 C 0.8023 0.07491 0.56769 0.0
C587 C 0.83194 0.06881 0.57964 0.0
C588 C 0.79975 0.09796 0.54741 0.0
C589 C 0.82674 0.11539 0.5383 0.0
C590 C 0.85634 0.10842 0.54922 0.0
C591 C 0.85892 0.08543 0.56977 0.0
H592 H 0.32959 0.32591 1.00156 0.0
H593 H 0.29387 0.21788 0.99825 0.0
H594 H 0.37673 0.32879 0.0436 0.0
H595 H 0.34019 0.22094 0.04117 0.0
H596 H 0.44221 0.22155 0.08377 0.0
H597 H 0.3944 0.21964 0.04344 0.0
H598 H 0.39745 0.33233 0.10378 0.0
H599 H 0.44564 0.33447 0.14283 0.0
C600 C 0.33156 0.30311 0.0105 0.0
C601 C 0.30816 0.27167 0.99658 0.0
C602 C 0.35857 0.30465 0.0346 0.0
C603 C 0.36258 0.27492 0.04566 0.0
C604 C 0.33845 0.24402 0.03266 0.0
C605 C 0.31171 0.24237 0.00832 0.0
C606 C 0.43262 0.24586 0.08836 0.0
C607 C 0.44787 0.27814 0.11642 0.0
C608 C 0.40506 0.24478 0.06539 0.0
C609 C 0.39188 0.27588 0.0702 0.0
C610 C 0.40707 0.30801 0.09863 0.0
C611 C 0.43471 0.30915 0.12125 0.0
H612 H 0.27902 0.76623 0.4084 0.0
H613 H 0.29174 0.81632 0.32506 0.0
H614 H 0.26973 0.82228 0.45083 0.0
H615 H 0.28397 0.87337 0.36891 0.0
H616 H 0.31393 0.96902 0.49013 0.0
H617 H 0.31607 0.9162 0.4369 0.0
H618 H 0.22605 0.86303 0.4501 0.0
H619 H 0.22355 0.91608 0.5031 0.0
C620 C 0.27958 0.78908 0.39896 0.0
C621 C 0.28564 0.78658 0.36305 0.0
C622 C 0.27428 0.82115 0.42333 0.0
C623 C 0.27559 0.85171 0.41273 0.0
C624 C 0.28261 0.84988 0.37741 0.0
C625 C 0.28735 0.81742 0.35258 0.0
C626 C 0.29429 0.94633 0.48117 0.0
C627 C 0.26874 0.94634 0.50092 0.0
C628 C 0.29546 0.91632 0.45063 0.0
C629 C 0.27133 0.88572 0.4398 0.0
C630 C 0.24495 0.88644 0.4582 0.0
C631 C 0.2435 0.91672 0.48836 0.0
H632 H 0.72745 0.74892 0.86248 0.0
H633 H 0.78377 0.71373 0.93825 0.0
H634 H 0.68478 0.74873 0.89902 0.0
H635 H 0.74004 0.71162 0.97337 0.0
H636 H 0.63545 0.67229 0.99039 0.0
H637 H 0.68054 0.67441 0.95733 0.0
H638 H 0.67869 0.78531 0.96939 0.0
H639 H 0.63386 0.78356 0.0034 0.0
C640 C 0.7309 0.74125 0.88693 0.0
C641 C 0.75941 0.73168 0.89747 0.0
C642 C 0.70633 0.74105 0.90774 0.0
C643 C 0.70928 0.73048 0.93911 0.0
C644 C 0.73722 0.71985 0.9492 0.0
C645 C 0.76214 0.72075 0.92881 0.0
C646 C 0.64474 0.6972 0.98615 0.0
C647 C 0.63108 0.72775 0.99934 0.0
C648 C 0.67063 0.69841 0.96742 0.0
C649 C 0.68296 0.72996 0.96079 0.0
C650 C 0.66945 0.76061 0.97407 0.0
C651 C 0.64395 0.75966 0.9936 0.0
loop_
_geom_bond_atom_site_label_1
_geom_bond_atom_site_label_2
_geom_bond_distance
_geom_bond_site_symmetry_2
_ccdc_geom_bond_type
H0 C5 0.929 . S
H1 C10 0.931 . S
H2 C8 0.930 . S
N3 N4 1.234 . S
N3 C7 1.453 . S
N4 N3 1.234 . S
C5 H0 0.929 . S
C5 C6 1.373 . S
C5 C7 1.368 . S
C6 C5 1.373 . S
C6 C10 1.397 . S
C7 N3 1.453 . S
C7 C5 1.368 . S
C7 C8 1.373 . S
C8 H2 0.930 . S
C8 C7 1.373 . S
C8 C9 1.371 . S
C9 C8 1.371 . S
C9 C10 1.383 . S
C10 H1 0.931 . S
C10 C6 1.397 . S
C10 C9 1.383 . S
H11 C16 0.929 . S
H12 C21 0.931 . S
H13 C19 0.930 . S
N14 N15 1.234 . S
N14 C18 1.453 . S
N15 N14 1.234 . S
C16 H11 0.929 . S
C16 C17 1.373 . S
C16 C18 1.368 . S
C17 C16 1.373 . S
C17 C21 1.397 . S
C18 N14 1.453 . S
C18 C16 1.368 . S
C18 C19 1.373 . S
C19 H13 0.930 . S
C19 C18 1.373 . S
C19 C20 1.371 . S
C20 C19 1.371 . S
C20 C21 1.383 . S
C21 H12 0.931 . S
C21 C17 1.397 . S
C21 C20 1.383 . S
H22 C27 0.929 . S
H23 C32 0.931 . S
H24 C30 0.930 . S
N25 N26 1.234 . S
N25 C29 1.453 . S
N26 N25 1.234 . S
C27 H22 0.929 . S
C27 C28 1.373 . S
C27 C29 1.368 . S
C28 C27 1.373 . S
C28 C32 1.397 . S
C29 N25 1.453 . S
C29 C27 1.368 . S
C29 C30 1.373 . S
C30 H24 0.930 . S
C30 C29 1.373 . S
C30 C31 1.371 . S
C31 C30 1.371 . S
C31 C32 1.383 . S
C32 H23 0.931 . S
C32 C28 1.397 . S
C32 C31 1.383 . S
H33 C38 0.929 1_554 S
H34 C43 0.931 . S
H35 C41 0.930 . S
N36 N37 1.234 . S
N36 C40 1.453 1_554 S
N37 N36 1.234 . S
C38 H33 0.929 1_556 S
C38 C39 1.373 . S
C38 C40 1.368 . S
C39 C38 1.373 . S
C39 C43 1.397 . S
C40 N36 1.453 1_556 S
C40 C38 1.368 . S
C40 C41 1.373 . S
C41 H35 0.930 . S
C41 C40 1.373 . S
C41 C42 1.371 . S
C42 C41 1.371 . S
C42 C43 1.383 . S
C43 H34 0.931 . S
C43 C39 1.397 . S
C43 C42 1.383 . S
H44 C49 0.929 . S
H45 C54 0.931 . S
H46 C52 0.930 . S
N47 N48 1.234 . S
N47 C51 1.453 . S
N48 N47 1.234 . S
C49 H44 0.929 . S
C49 C50 1.373 . S
C49 C51 1.368 . S
C50 C49 1.373 . S
C50 C54 1.397 . S
C51 N47 1.453 . S
C51 C49 1.368 . S
C51 C52 1.373 . S
C52 H46 0.930 . S
C52 C51 1.373 . S
C52 C53 1.371 . S
C53 C52 1.371 . S
C53 C54 1.383 . S
C54 H45 0.931 . S
C54 C50 1.397 . S
C54 C53 1.383 . S
H55 C60 0.929 . S
H56 C65 0.931 . S
H57 C63 0.930 . S
N58 N59 1.234 . S
N58 C62 1.453 . S
N59 N58 1.234 . S
C60 H55 0.929 . S
C60 C61 1.373 . S
C60 C62 1.368 . S
C61 C60 1.373 . S
C61 C65 1.397 . S
C62 N58 1.453 . S
C62 C60 1.368 . S
C62 C63 1.373 . S
C63 H57 0.930 . S
C63 C62 1.373 . S
C63 C64 1.371 . S
C64 C63 1.371 . S
C64 C65 1.383 . S
C65 H56 0.931 . S
C65 C61 1.397 . S
C65 C64 1.383 . S
H66 C71 0.929 . S
H67 C76 0.931 . S
H68 C74 0.930 . S
N69 N70 1.234 . S
N69 C73 1.453 . S
N70 N69 1.234 . S
C71 H66 0.929 . S
C71 C72 1.373 . S
C71 C73 1.368 . S
C72 C71 1.373 . S
C72 C76 1.397 . S
C73 N69 1.453 . S
C73 C71 1.368 . S
C73 C74 1.373 . S
C74 H68 0.930 . S
C74 C73 1.373 . S
C74 C75 1.371 . S
C75 C74 1.371 . S
C75 C76 1.383 . S
C76 H67 0.931 . S
C76 C72 1.397 . S
C76 C75 1.383 . S
H77 C82 0.929 . S
H78 C87 0.931 . S
H79 C85 0.930 . S
N80 N81 1.234 . S
N80 C84 1.453 . S
N81 N80 1.234 . S
C82 H77 0.929 . S
C82 C83 1.373 . S
C82 C84 1.368 . S
C83 C82 1.373 . S
C83 C87 1.397 . S
C84 N80 1.453 . S
C84 C82 1.368 . S
C84 C85 1.373 . S
C85 H79 0.930 . S
C85 C84 1.373 . S
C85 C86 1.371 . S
C86 C85 1.371 . S
C86 C87 1.383 . S
C87 H78 0.931 . S
C87 C83 1.397 . S
C87 C86 1.383 . S
C88 O90 1.247 1_655 S
C88 O92 1.258 . S
C89 O96 1.247 . S
C89 O97 1.258 . S
O90 C88 1.247 1_455 S
O90 Zn91 2.028 . S
Zn91 O90 2.028 . S
Zn91 O95 2.035 . S
Zn91 O97 2.035 . S
Zn91 O98 2.028 . S
O92 C88 1.258 . S
O92 Zn93 2.035 1_655 S
Zn93 O92 2.035 1_455 S
Zn93 O94 2.028 . S
Zn93 O96 2.028 . S
Zn93 O99 2.035 1_455 S
O94 Zn93 2.028 . S
O94 C100 1.247 . S
O95 Zn91 2.035 . S
O95 C100 1.258 . S
O96 C89 1.247 . S
O96 Zn93 2.028 . S
O97 C89 1.258 . S
O97 Zn91 2.035 . S
O98 Zn91 2.028 . S
O98 C101 1.247 1_455 S
O99 Zn93 2.035 1_655 S
O99 C101 1.258 . S
C100 O94 1.247 . S
C100 O95 1.258 . S
C101 O98 1.247 1_655 S
C101 O99 1.258 . S
C102 O104 1.247 1_655 S
C102 O106 1.258 . S
C103 O110 1.247 . S
C103 O111 1.258 . S
O104 C102 1.247 1_455 S
O104 Zn105 2.028 . S
Zn105 O104 2.028 . S
Zn105 O109 2.035 . S
Zn105 O111 2.035 . S
Zn105 O112 2.028 . S
O106 C102 1.258 . S
O106 Zn107 2.035 1_655 S
Zn107 O106 2.035 1_455 S
Zn107 O108 2.028 . S
Zn107 O110 2.028 . S
Zn107 O113 2.061 . S
O108 Zn107 2.028 . S
O108 C114 1.247 . S
O109 Zn105 2.035 . S
O109 C114 1.258 . S
O110 C103 1.247 . S
O110 Zn107 2.028 . S
O111 C103 1.258 . S
O111 Zn105 2.035 . S
O112 Zn105 2.028 . S
O112 C115 1.247 1_455 S
O113 Zn107 2.061 . S
O113 C115 1.247 1_455 S
C114 O108 1.247 . S
C114 O109 1.258 . S
C115 O112 1.247 1_655 S
C115 O113 1.247 1_655 S
C116 O118 1.247 . S
C116 O120 1.258 . S
C117 O124 1.247 . S
C117 O125 1.258 . S
O118 C116 1.247 . S
O118 Zn119 2.028 1_565 S
Zn119 O118 2.028 1_545 S
Zn119 O123 2.035 . S
Zn119 O125 2.035 . S
Zn119 O126 2.028 1_545 S
O120 C116 1.258 . S
O120 Zn121 2.035 1_565 S
Zn121 O120 2.035 1_545 S
Zn121 O122 2.028 . S
Zn121 O124 2.028 . S
Zn121 O127 2.035 1_545 S
O122 Zn121 2.028 . S
O122 C128 1.247 . S
O123 Zn119 2.035 . S
O123 C128 1.258 . S
O124 C117 1.247 . S
O124 Zn121 2.028 . S
O125 C117 1.258 . S
O125 Zn119 2.035 . S
O126 Zn119 2.028 1_565 S
O126 C129 1.247 . S
O127 Zn121 2.035 1_565 S
O127 C129 1.258 . S
C128 O122 1.247 . S
C128 O123 1.258 . S
C129 O126 1.247 . S
C129 O127 1.258 . S
C130 O132 1.247 . S
C130 O134 1.258 . S
C131 O138 1.247 . S
C131 O139 1.258 . S
O132 C130 1.247 . S
O132 Zn133 2.028 1_554 S
Zn133 O132 2.028 1_556 S
Zn133 O137 2.035 1_556 S
Zn133 O139 2.035 . S
Zn133 O140 2.028 . S
O134 C130 1.258 . S
O134 Zn135 2.035 . S
Zn135 O134 2.035 . S
Zn135 O136 2.028 . S
Zn135 O138 2.028 1_554 S
Zn135 O141 2.035 1_554 S
O136 Zn135 2.028 . S
O136 C142 1.247 . S
O137 Zn133 2.035 1_554 S
O137 C142 1.258 . S
O138 C131 1.247 . S
O138 Zn135 2.028 1_556 S
O139 C131 1.258 . S
O139 Zn133 2.035 . S
O140 Zn133 2.028 . S
O140 C143 1.247 . S
O141 Zn135 2.035 1_556 S
O141 C143 1.258 . S
C142 O136 1.247 . S
C142 O137 1.258 . S
C143 O140 1.247 . S
C143 O141 1.258 . S
C144 O146 1.247 . S
C144 O148 1.258 . S
C145 O152 1.247 . S
C145 O153 1.258 . S
O146 C144 1.247 . S
O146 Zn147 2.028 1_565 S
Zn147 O146 2.028 1_545 S
Zn147 O151 2.035 . S
Zn147 O153 2.035 . S
Zn147 O154 2.028 1_545 S
O148 C144 1.258 . S
O148 Zn149 2.035 1_565 S
Zn149 O148 2.035 1_545 S
Zn149 O150 2.028 . S
Zn149 O152 2.028 . S
Zn149 O155 2.035 1_545 S
O150 Zn149 2.028 . S
O150 C156 1.247 . S
O151 Zn147 2.035 . S
O151 C156 1.258 . S
O152 C145 1.247 . S
O152 Zn149 2.028 . S
O153 C145 1.258 . S
O153 Zn147 2.035 . S
O154 Zn147 2.028 1_565 S
O154 C157 1.247 . S
O155 Zn149 2.035 1_565 S
O155 C157 1.258 . S
C156 O150 1.247 . S
C156 O151 1.258 . S
C157 O154 1.247 . S
C157 O155 1.258 . S
C158 O160 1.247 . S
C158 O162 1.258 . S
C159 O166 1.247 . S
C159 O167 1.258 . S
O160 C158 1.247 . S
O160 Zn161 2.028 . S
Zn161 O160 2.028 . S
Zn161 O165 2.035 . S
Zn161 O167 2.035 . S
Zn161 O168 2.028 . S
O162 C158 1.258 . S
O162 Zn163 2.035 . S
Zn163 O162 2.035 . S
Zn163 O164 2.028 . S
Zn163 O166 2.028 . S
Zn163 O169 2.035 . S
O164 Zn163 2.028 . S
O164 C170 1.247 . S
O165 Zn161 2.035 . S
O165 C170 1.258 . S
O166 C159 1.247 . S
O166 Zn163 2.028 . S
O167 C159 1.258 . S
O167 Zn161 2.035 . S
O168 Zn161 2.028 . S
O168 C171 1.247 . S
O169 Zn163 2.035 . S
O169 C171 1.258 . S
C170 O164 1.247 . S
C170 O165 1.258 . S
C171 O168 1.247 . S
C171 O169 1.258 . S
H172 C180 0.950 . S
H173 C185 0.950 . S
H174 C182 0.950 . S
H175 C184 0.950 . S
H176 C186 0.950 . S
H177 C188 0.950 . S
H178 C190 0.950 . S
H179 C191 0.950 . S
C180 H172 0.950 . S
C180 C181 1.386 . S
C180 C182 1.391 . S
C181 C180 1.386 . S
C181 C185 1.393 . S
C182 H174 0.950 . S
C182 C180 1.391 . S
C182 C183 1.400 . S
C183 C182 1.400 . S
C183 C184 1.398 . S
C183 C189 1.491 . S
C184 H175 0.950 . S
C184 C183 1.398 . S
C184 C185 1.391 . S
C185 H173 0.950 . S
C185 C181 1.393 . S
C185 C184 1.391 . S
C186 H176 0.950 . S
C186 C187 1.386 . S
C186 C188 1.391 . S
C187 C186 1.386 . S
C187 C191 1.393 . S
C188 H177 0.950 . S
C188 C186 1.391 . S
C188 C189 1.400 . S
C189 C183 1.491 . S
C189 C188 1.400 . S
C189 C190 1.398 . S
C190 H178 0.950 . S
C190 C189 1.398 . S
C190 C191 1.391 . S
C191 H179 0.950 . S
C191 C187 1.393 . S
C191 C190 1.391 . S
H192 C200 0.950 . S
H193 C205 0.950 . S
H194 C202 0.950 . S
H195 C204 0.950 . S
H196 C206 0.950 . S
H197 C208 0.950 . S
H198 C210 0.950 . S
H199 C211 0.950 . S
C200 H192 0.950 . S
C200 C201 1.386 . S
C200 C202 1.391 . S
C201 C200 1.386 . S
C201 C205 1.393 . S
C202 H194 0.950 . S
C202 C200 1.391 . S
C202 C203 1.400 . S
C203 C202 1.400 . S
C203 C204 1.398 . S
C203 C209 1.491 . S
C204 H195 0.950 . S
C204 C203 1.398 . S
C204 C205 1.391 . S
C205 H193 0.950 . S
C205 C201 1.393 . S
C205 C204 1.391 . S
C206 H196 0.950 . S
C206 C207 1.386 . S
C206 C208 1.391 . S
C207 C206 1.386 . S
C207 C211 1.393 . S
C208 H197 0.950 . S
C208 C206 1.391 . S
C208 C209 1.400 . S
C209 C203 1.491 . S
C209 C208 1.400 . S
C209 C210 1.398 . S
C210 H198 0.950 . S
C210 C209 1.398 . S
C210 C211 1.391 . S
C211 H199 0.950 . S
C211 C207 1.393 . S
C211 C210 1.391 . S
H212 C220 0.950 . S
H213 C225 0.950 . S
H214 C222 0.950 . S
H215 C224 0.950 . S
H216 C226 0.950 . S
H217 C228 0.950 . S
H218 C230 0.950 . S
H219 C231 0.950 . S
C220 H212 0.950 . S
C220 C221 1.386 . S
C220 C222 1.391 . S
C221 C220 1.386 . S
C221 C225 1.393 . S
C222 H214 0.950 . S
C222 C220 1.391 . S
C222 C223 1.400 . S
C223 C222 1.400 . S
C223 C224 1.398 . S
C223 C229 1.491 . S
C224 H215 0.950 . S
C224 C223 1.398 . S
C224 C225 1.391 . S
C225 H213 0.950 . S
C225 C221 1.393 . S
C225 C224 1.391 . S
C226 H216 0.950 . S
C226 C227 1.386 . S
C226 C228 1.391 . S
C227 C226 1.386 . S
C227 C231 1.393 . S
C228 H217 0.950 . S
C228 C226 1.391 . S
C228 C229 1.400 . S
C229 C223 1.491 . S
C229 C228 1.400 . S
C229 C230 1.398 . S
C230 H218 0.950 . S
C230 C229 1.398 . S
C230 C231 1.391 . S
C231 H219 0.950 . S
C231 C227 1.393 . S
C231 C230 1.391 . S
H232 C240 0.950 . S
H233 C245 0.950 1_554 S
H234 C242 0.950 . S
H235 C244 0.950 1_554 S
H236 C246 0.950 1_554 S
H237 C248 0.950 1_554 S
H238 C250 0.950 . S
H239 C251 0.950 . S
C240 H232 0.950 . S
C240 C241 1.386 . S
C240 C242 1.391 . S
C241 C240 1.386 . S
C241 C245 1.393 . S
C242 H234 0.950 . S
C242 C240 1.391 . S
C242 C243 1.400 . S
C243 C242 1.400 . S
C243 C244 1.398 . S
C243 C249 1.491 . S
C244 H235 0.950 1_556 S
C244 C243 1.398 . S
C244 C245 1.391 . S
C245 H233 0.950 1_556 S
C245 C241 1.393 . S
C245 C244 1.391 . S
C246 H236 0.950 1_556 S
C246 C247 1.386 . S
C246 C248 1.391 . S
C247 C246 1.386 . S
C247 C251 1.393 . S
C248 H237 0.950 1_556 S
C248 C246 1.391 . S
C248 C249 1.400 . S
C249 C243 1.491 . S
C249 C248 1.400 . S
C249 C250 1.398 . S
C250 H238 0.950 . S
C250 C249 1.398 . S
C250 C251 1.391 . S
C251 H239 0.950 . S
C251 C247 1.393 . S
C251 C250 1.391 . S
H252 C260 0.950 . S
H253 C265 0.950 . S
H254 C262 0.950 . S
H255 C264 0.950 . S
H256 C266 0.950 . S
H257 C268 0.950 . S
H258 C270 0.950 . S
H259 C271 0.950 . S
C260 H252 0.950 . S
C260 C261 1.386 . S
C260 C262 1.391 . S
C261 C260 1.386 . S
C261 C265 1.393 . S
C262 H254 0.950 . S
C262 C260 1.391 . S
C262 C263 1.400 . S
C263 C262 1.400 . S
C263 C264 1.398 . S
C263 C269 1.491 . S
C264 H255 0.950 . S
C264 C263 1.398 . S
C264 C265 1.391 . S
C265 H253 0.950 . S
C265 C261 1.393 . S
C265 C264 1.391 . S
C266 H256 0.950 . S
C266 C267 1.386 . S
C266 C268 1.391 . S
C267 C266 1.386 . S
C267 C271 1.393 . S
C268 H257 0.950 . S
C268 C266 1.391 . S
C268 C269 1.400 . S
C269 C263 1.491 . S
C269 C268 1.400 . S
C269 C270 1.398 . S
C270 H258 0.950 . S
C270 C269 1.398 . S
C270 C271 1.391 . S
C271 H259 0.950 . S
C271 C267 1.393 . S
C271 C270 1.391 . S
H272 C280 0.950 . S
H273 C285 0.950 . S
H274 C282 0.950 . S
H275 C284 0.950 . S
H276 C286 0.950 . S
H277 C288 0.950 . S
H278 C290 0.950 . S
H279 C291 0.950 . S
C280 H272 0.950 . S
C280 C281 1.386 . S
C280 C282 1.391 . S
C281 C280 1.386 . S
C281 C285 1.393 . S
C282 H274 0.950 . S
C282 C280 1.391 . S
C282 C283 1.400 . S
C283 C282 1.400 . S
C283 C284 1.398 . S
C283 C289 1.491 . S
C284 H275 0.950 . S
C284 C283 1.398 . S
C284 C285 1.391 . S
C285 H273 0.950 . S
C285 C281 1.393 . S
C285 C284 1.391 . S
C286 H276 0.950 . S
C286 C287 1.386 . S
C286 C288 1.391 . S
C287 C286 1.386 . S
C287 C291 1.393 . S
C288 H277 0.950 . S
C288 C286 1.391 . S
C288 C289 1.400 . S
C289 C283 1.491 . S
C289 C288 1.400 . S
C289 C290 1.398 . S
C290 H278 0.950 . S
C290 C289 1.398 . S
C290 C291 1.391 . S
C291 H279 0.950 . S
C291 C287 1.393 . S
C291 C290 1.391 . S
H292 C300 0.950 . S
H293 C305 0.950 . S
H294 C302 0.950 . S
H295 C304 0.950 . S
H296 C306 0.950 . S
H297 C308 0.950 . S
H298 C310 0.950 . S
H299 C311 0.950 . S
C300 H292 0.950 . S
C300 C301 1.386 . S
C300 C302 1.391 . S
C301 C300 1.386 . S
C301 C305 1.393 . S
C302 H294 0.950 . S
C302 C300 1.391 . S
C302 C303 1.400 . S
C303 C302 1.400 . S
C303 C304 1.398 . S
C303 C309 1.491 . S
C304 H295 0.950 . S
C304 C303 1.398 . S
C304 C305 1.391 . S
C305 H293 0.950 . S
C305 C301 1.393 . S
C305 C304 1.391 . S
C306 H296 0.950 . S
C306 C307 1.386 . S
C306 C308 1.391 . S
C307 C306 1.386 . S
C307 C311 1.393 . S
C308 H297 0.950 . S
C308 C306 1.391 . S
C308 C309 1.400 . S
C309 C303 1.491 . S
C309 C308 1.400 . S
C309 C310 1.398 . S
C310 H298 0.950 . S
C310 C309 1.398 . S
C310 C311 1.391 . S
C311 H299 0.950 . S
C311 C307 1.393 . S
C311 C310 1.391 . S
H312 C320 0.950 1_556 S
H313 C325 0.950 . S
H314 C322 0.950 . S
H315 C324 0.950 . S
H316 C326 0.950 . S
H317 C328 0.950 . S
H318 C330 0.950 . S
H319 C331 0.950 . S
C320 H312 0.950 1_554 S
C320 C321 1.386 . S
C320 C322 1.391 . S
C321 C320 1.386 . S
C321 C325 1.393 . S
C322 H314 0.950 . S
C322 C320 1.391 . S
C322 C323 1.400 . S
C323 C322 1.400 . S
C323 C324 1.398 . S
C323 C329 1.491 . S
C324 H315 0.950 . S
C324 C323 1.398 . S
C324 C325 1.391 . S
C325 H313 0.950 . S
C325 C321 1.393 . S
C325 C324 1.391 . S
C326 H316 0.950 . S
C326 C327 1.386 . S
C326 C328 1.391 . S
C327 C326 1.386 . S
C327 C331 1.393 . S
C328 H317 0.950 . S
C328 C326 1.391 . S
C328 C329 1.400 . S
C329 C323 1.491 . S
C329 C328 1.400 . S
C329 C330 1.398 . S
C330 H318 0.950 . S
C330 C329 1.398 . S
C330 C331 1.391 . S
C331 H319 0.950 . S
C331 C327 1.393 . S
C331 C330 1.391 . S
H332 C340 0.950 . S
H333 C345 0.950 . S
H334 C342 0.950 . S
H335 C344 0.950 . S
H336 C346 0.950 . S
H337 C348 0.950 . S
H338 C350 0.950 . S
H339 C351 0.950 . S
C340 H332 0.950 . S
C340 C341 1.386 . S
C340 C342 1.391 . S
C341 C340 1.386 . S
C341 C345 1.393 . S
C342 H334 0.950 . S
C342 C340 1.391 . S
C342 C343 1.400 . S
C343 C342 1.400 . S
C343 C344 1.398 . S
C343 C349 1.491 . S
C344 H335 0.950 . S
C344 C343 1.398 . S
C344 C345 1.391 . S
C345 H333 0.950 . S
C345 C341 1.393 . S
C345 C344 1.391 . S
C346 H336 0.950 . S
C346 C347 1.386 . S
C346 C348 1.391 . S
C347 C346 1.386 . S
C347 C351 1.393 . S
C348 H337 0.950 . S
C348 C346 1.391 . S
C348 C349 1.400 . S
C349 C343 1.491 . S
C349 C348 1.400 . S
C349 C350 1.398 . S
C350 H338 0.950 . S
C350 C349 1.398 . S
C350 C351 1.391 . S
C351 H339 0.950 . S
C351 C347 1.393 . S
C351 C350 1.391 . S
H352 C360 0.950 . S
H353 C365 0.950 . S
H354 C362 0.950 . S
H355 C364 0.950 . S
H356 C366 0.950 . S
H357 C368 0.950 . S
H358 C370 0.950 . S
H359 C371 0.950 . S
C360 H352 0.950 . S
C360 C361 1.386 . S
C360 C362 1.391 . S
C361 C360 1.386 . S
C361 C365 1.393 . S
C362 H354 0.950 . S
C362 C360 1.391 . S
C362 C363 1.400 . S
C363 C362 1.400 . S
C363 C364 1.398 . S
C363 C369 1.491 . S
C364 H355 0.950 . S
C364 C363 1.398 . S
C364 C365 1.391 . S
C365 H353 0.950 . S
C365 C361 1.393 . S
C365 C364 1.391 . S
C366 H356 0.950 . S
C366 C367 1.386 . S
C366 C368 1.391 . S
C367 C366 1.386 . S
C367 C371 1.393 . S
C368 H357 0.950 . S
C368 C366 1.391 . S
C368 C369 1.400 . S
C369 C363 1.491 . S
C369 C368 1.400 . S
C369 C370 1.398 . S
C370 H358 0.950 . S
C370 C369 1.398 . S
C370 C371 1.391 . S
C371 H359 0.950 . S
C371 C367 1.393 . S
C371 C370 1.391 . S
H372 C380 0.950 . S
H373 C385 0.950 . S
H374 C382 0.950 . S
H375 C384 0.950 . S
H376 C386 0.950 . S
H377 C388 0.950 . S
H378 C390 0.950 . S
H379 C391 0.950 . S
C380 H372 0.950 . S
C380 C381 1.386 . S
C380 C382 1.391 . S
C381 C380 1.386 . S
C381 C385 1.393 . S
C382 H374 0.950 . S
C382 C380 1.391 . S
C382 C383 1.400 . S
C383 C382 1.400 . S
C383 C384 1.398 . S
C383 C389 1.491 . S
C384 H375 0.950 . S
C384 C383 1.398 . S
C384 C385 1.391 . S
C385 H373 0.950 . S
C385 C381 1.393 . S
C385 C384 1.391 . S
C386 H376 0.950 . S
C386 C387 1.386 . S
C386 C388 1.391 . S
C387 C386 1.386 . S
C387 C391 1.393 . S
C388 H377 0.950 . S
C388 C386 1.391 . S
C388 C389 1.400 . S
C389 C383 1.491 . S
C389 C388 1.400 . S
C389 C390 1.398 . S
C390 H378 0.950 . S
C390 C389 1.398 . S
C390 C391 1.391 . S
C391 H379 0.950 . S
C391 C387 1.393 . S
C391 C390 1.391 . S
H392 C400 0.950 . S
H393 C405 0.950 . S
H394 C402 0.950 . S
H395 C404 0.950 . S
H396 C406 0.950 . S
H397 C408 0.950 . S
H398 C410 0.950 . S
H399 C411 0.950 . S
C400 H392 0.950 . S
C400 C401 1.386 . S
C400 C402 1.391 . S
C401 C400 1.386 . S
C401 C405 1.393 . S
C402 H394 0.950 . S
C402 C400 1.391 . S
C402 C403 1.400 . S
C403 C402 1.400 . S
C403 C404 1.398 . S
C403 C409 1.491 . S
C404 H395 0.950 . S
C404 C403 1.398 . S
C404 C405 1.391 . S
C405 H393 0.950 . S
C405 C401 1.393 . S
C405 C404 1.391 . S
C406 H396 0.950 . S
C406 C407 1.386 . S
C406 C408 1.391 . S
C407 C406 1.386 . S
C407 C411 1.393 . S
C408 H397 0.950 . S
C408 C406 1.391 . S
C408 C409 1.400 . S
C409 C403 1.491 . S
C409 C408 1.400 . S
C409 C410 1.398 . S
C410 H398 0.950 . S
C410 C409 1.398 . S
C410 C411 1.391 . S
C411 H399 0.950 . S
C411 C407 1.393 . S
C411 C410 1.391 . S
H412 C420 0.950 . S
H413 C425 0.950 . S
H414 C422 0.950 . S
H415 C424 0.950 . S
H416 C426 0.950 . S
H417 C428 0.950 . S
H418 C430 0.950 . S
H419 C431 0.950 . S
C420 H412 0.950 . S
C420 C421 1.386 . S
C420 C422 1.391 . S
C421 C420 1.386 . S
C421 C425 1.393 . S
C422 H414 0.950 . S
C422 C420 1.391 . S
C422 C423 1.400 . S
C423 C422 1.400 . S
C423 C424 1.398 . S
C423 C429 1.491 . S
C424 H415 0.950 . S
C424 C423 1.398 . S
C424 C425 1.391 . S
C425 H413 0.950 . S
C425 C421 1.393 . S
C425 C424 1.391 . S
C426 H416 0.950 . S
C426 C427 1.386 . S
C426 C428 1.391 . S
C427 C426 1.386 . S
C427 C431 1.393 . S
C428 H417 0.950 . S
C428 C426 1.391 . S
C428 C429 1.400 . S
C429 C423 1.491 . S
C429 C428 1.400 . S
C429 C430 1.398 . S
C430 H418 0.950 . S
C430 C429 1.398 . S
C430 C431 1.391 . S
C431 H419 0.950 . S
C431 C427 1.393 . S
C431 C430 1.391 . S
H432 C440 0.950 . S
H433 C445 0.950 . S
H434 C442 0.950 . S
H435 C444 0.950 . S
H436 C446 0.950 . S
H437 C448 0.950 . S
H438 C450 0.950 . S
H439 C451 0.950 . S
C440 H432 0.950 . S
C440 C441 1.386 . S
C440 C442 1.391 . S
C441 C440 1.386 . S
C441 C445 1.393 . S
C442 H434 0.950 . S
C442 C440 1.391 . S
C442 C443 1.400 . S
C443 C442 1.400 . S
C443 C444 1.398 . S
C443 C449 1.491 . S
C444 H435 0.950 . S
C444 C443 1.398 . S
C444 C445 1.391 . S
C445 H433 0.950 . S
C445 C441 1.393 . S
C445 C444 1.391 . S
C446 H436 0.950 . S
C446 C447 1.386 . S
C446 C448 1.391 . S
C447 C446 1.386 . S
C447 C451 1.393 . S
C448 H437 0.950 . S
C448 C446 1.391 . S
C448 C449 1.400 . S
C449 C443 1.491 . S
C449 C448 1.400 . S
C449 C450 1.398 . S
C450 H438 0.950 . S
C450 C449 1.398 . S
C450 C451 1.391 . S
C451 H439 0.950 . S
C451 C447 1.393 . S
C451 C450 1.391 . S
H452 C460 0.950 . S
H453 C465 0.950 . S
H454 C462 0.950 . S
H455 C464 0.950 . S
H456 C466 0.950 . S
H457 C468 0.950 . S
H458 C470 0.950 . S
H459 C471 0.950 . S
C460 H452 0.950 . S
C460 C461 1.386 . S
C460 C462 1.391 . S
C461 C460 1.386 . S
C461 C465 1.393 . S
C462 H454 0.950 . S
C462 C460 1.391 . S
C462 C463 1.400 . S
C463 C462 1.400 . S
C463 C464 1.398 . S
C463 C469 1.491 . S
C464 H455 0.950 . S
C464 C463 1.398 . S
C464 C465 1.391 . S
C465 H453 0.950 . S
C465 C461 1.393 . S
C465 C464 1.391 . S
C466 H456 0.950 . S
C466 C467 1.386 . S
C466 C468 1.391 . S
C467 C466 1.386 . S
C467 C471 1.393 . S
C468 H457 0.950 . S
C468 C466 1.391 . S
C468 C469 1.400 . S
C469 C463 1.491 . S
C469 C468 1.400 . S
C469 C470 1.398 . S
C470 H458 0.950 . S
C470 C469 1.398 . S
C470 C471 1.391 . S
C471 H459 0.950 . S
C471 C467 1.393 . S
C471 C470 1.391 . S
H472 C480 0.950 . S
H473 C485 0.950 . S
H474 C482 0.950 . S
H475 C484 0.950 . S
H476 C486 0.950 . S
H477 C488 0.950 . S
H478 C490 0.950 . S
H479 C491 0.950 . S
C480 H472 0.950 . S
C480 C481 1.386 . S
C480 C482 1.391 . S
C481 C480 1.386 . S
C481 C485 1.393 . S
C482 H474 0.950 . S
C482 C480 1.391 . S
C482 C483 1.400 . S
C483 C482 1.400 . S
C483 C484 1.398 . S
C483 C489 1.491 . S
C484 H475 0.950 . S
C484 C483 1.398 . S
C484 C485 1.391 . S
C485 H473 0.950 . S
C485 C481 1.393 . S
C485 C484 1.391 . S
C486 H476 0.950 . S
C486 C487 1.386 . S
C486 C488 1.391 . S
C487 C486 1.386 . S
C487 C491 1.393 . S
C488 H477 0.950 . S
C488 C486 1.391 . S
C488 C489 1.400 . S
C489 C483 1.491 . S
C489 C488 1.400 . S
C489 C490 1.398 . S
C490 H478 0.950 . S
C490 C489 1.398 . S
C490 C491 1.391 . S
C491 H479 0.950 . S
C491 C487 1.393 . S
C491 C490 1.391 . S
H492 C500 0.950 . S
H493 C505 0.950 . S
H494 C502 0.950 . S
H495 C504 0.950 . S
H496 C506 0.950 . S
H497 C508 0.950 . S
H498 C510 0.950 . S
H499 C511 0.950 . S
C500 H492 0.950 . S
C500 C501 1.386 . S
C500 C502 1.391 . S
C501 C500 1.386 . S
C501 C505 1.393 . S
C502 H494 0.950 . S
C502 C500 1.391 . S
C502 C503 1.400 . S
C503 C502 1.400 . S
C503 C504 1.398 . S
C503 C509 1.491 . S
C504 H495 0.950 . S
C504 C503 1.398 . S
C504 C505 1.391 . S
C505 H493 0.950 . S
C505 C501 1.393 . S
C505 C504 1.391 . S
C506 H496 0.950 . S
C506 C507 1.386 . S
C506 C508 1.391 . S
C507 C506 1.386 . S
C507 C511 1.393 . S
C508 H497 0.950 . S
C508 C506 1.391 . S
C508 C509 1.400 . S
C509 C503 1.491 . S
C509 C508 1.400 . S
C509 C510 1.398 . S
C510 H498 0.950 . S
C510 C509 1.398 . S
C510 C511 1.391 . S
C511 H499 0.950 . S
C511 C507 1.393 . S
C511 C510 1.391 . S
H512 C520 0.950 . S
H513 C525 0.950 . S
H514 C522 0.950 . S
H515 C524 0.950 . S
H516 C526 0.950 . S
H517 C528 0.950 . S
H518 C530 0.950 . S
H519 C531 0.950 . S
C520 H512 0.950 . S
C520 C521 1.386 . S
C520 C522 1.391 . S
C521 C520 1.386 . S
C521 C525 1.393 . S
C522 H514 0.950 . S
C522 C520 1.391 . S
C522 C523 1.400 . S
C523 C522 1.400 . S
C523 C524 1.398 . S
C523 C529 1.491 . S
C524 H515 0.950 . S
C524 C523 1.398 . S
C524 C525 1.391 . S
C525 H513 0.950 . S
C525 C521 1.393 . S
C525 C524 1.391 . S
C526 H516 0.950 . S
C526 C527 1.386 . S
C526 C528 1.391 . S
C527 C526 1.386 . S
C527 C531 1.393 . S
C528 H517 0.950 . S
C528 C526 1.391 . S
C528 C529 1.400 . S
C529 C523 1.491 . S
C529 C528 1.400 . S
C529 C530 1.398 . S
C530 H518 0.950 . S
C530 C529 1.398 . S
C530 C531 1.391 . S
C531 H519 0.950 . S
C531 C527 1.393 . S
C531 C530 1.391 . S
H532 C540 0.950 . S
H533 C545 0.950 . S
H534 C542 0.950 . S
H535 C544 0.950 . S
H536 C546 0.950 . S
H537 C548 0.950 . S
H538 C550 0.950 . S
H539 C551 0.950 . S
C540 H532 0.950 . S
C540 C541 1.386 . S
C540 C542 1.391 . S
C541 C540 1.386 . S
C541 C545 1.393 . S
C542 H534 0.950 . S
C542 C540 1.391 . S
C542 C543 1.400 . S
C543 C542 1.400 . S
C543 C544 1.398 . S
C543 C549 1.491 . S
C544 H535 0.950 . S
C544 C543 1.398 . S
C544 C545 1.391 . S
C545 H533 0.950 . S
C545 C541 1.393 . S
C545 C544 1.391 . S
C546 H536 0.950 . S
C546 C547 1.386 . S
C546 C548 1.391 . S
C547 C546 1.386 . S
C547 C551 1.393 . S
C548 H537 0.950 . S
C548 C546 1.391 . S
C548 C549 1.400 . S
C549 C543 1.491 . S
C549 C548 1.400 . S
C549 C550 1.398 . S
C550 H538 0.950 . S
C550 C549 1.398 . S
C550 C551 1.391 . S
C551 H539 0.950 . S
C551 C547 1.393 . S
C551 C550 1.391 . S
H552 C560 0.950 . S
H553 C565 0.950 . S
H554 C562 0.950 . S
H555 C564 0.950 . S
H556 C566 0.950 . S
H557 C568 0.950 . S
H558 C570 0.950 . S
H559 C571 0.950 . S
C560 H552 0.950 . S
C560 C561 1.386 . S
C560 C562 1.391 . S
C561 C560 1.386 . S
C561 C565 1.393 . S
C562 H554 0.950 . S
C562 C560 1.391 . S
C562 C563 1.400 . S
C563 C562 1.400 . S
C563 C564 1.398 . S
C563 C569 1.491 . S
C564 H555 0.950 . S
C564 C563 1.398 . S
C564 C565 1.391 . S
C565 H553 0.950 . S
C565 C561 1.393 . S
C565 C564 1.391 . S
C566 H556 0.950 . S
C566 C567 1.386 . S
C566 C568 1.391 . S
C567 C566 1.386 . S
C567 C571 1.393 . S
C568 H557 0.950 . S
C568 C566 1.391 . S
C568 C569 1.400 . S
C569 C563 1.491 . S
C569 C568 1.400 . S
C569 C570 1.398 . S
C570 H558 0.950 . S
C570 C569 1.398 . S
C570 C571 1.391 . S
C571 H559 0.950 . S
C571 C567 1.393 . S
C571 C570 1.391 . S
H572 C580 0.950 . S
H573 C585 0.950 . S
H574 C582 0.950 . S
H575 C584 0.950 . S
H576 C586 0.950 . S
H577 C588 0.950 . S
H578 C590 0.950 . S
H579 C591 0.950 . S
C580 H572 0.950 . S
C580 C581 1.386 . S
C580 C582 1.391 . S
C581 C580 1.386 . S
C581 C585 1.393 . S
C582 H574 0.950 . S
C582 C580 1.391 . S
C582 C583 1.400 . S
C583 C582 1.400 . S
C583 C584 1.398 . S
C583 C589 1.491 . S
C584 H575 0.950 . S
C584 C583 1.398 . S
C584 C585 1.391 . S
C585 H573 0.950 . S
C585 C581 1.393 . S
C585 C584 1.391 . S
C586 H576 0.950 . S
C586 C587 1.386 . S
C586 C588 1.391 . S
C587 C586 1.386 . S
C587 C591 1.393 . S
C588 H577 0.950 . S
C588 C586 1.391 . S
C588 C589 1.400 . S
C589 C583 1.491 . S
C589 C588 1.400 . S
C589 C590 1.398 . S
C590 H578 0.950 . S
C590 C589 1.398 . S
C590 C591 1.391 . S
C591 H579 0.950 . S
C591 C587 1.393 . S
C591 C590 1.391 . S
H592 C600 0.950 . S
H593 C605 0.950 . S
H594 C602 0.950 . S
H595 C604 0.950 . S
H596 C606 0.950 . S
H597 C608 0.950 . S
H598 C610 0.950 . S
H599 C611 0.950 . S
C600 H592 0.950 . S
C600 C601 1.386 . S
C600 C602 1.391 1_556 S
C601 C600 1.386 . S
C601 C605 1.393 1_556 S
C602 H594 0.950 . S
C602 C600 1.391 1_554 S
C602 C603 1.400 . S
C603 C602 1.400 . S
C603 C604 1.398 . S
C603 C609 1.491 . S
C604 H595 0.950 . S
C604 C603 1.398 . S
C604 C605 1.391 . S
C605 H593 0.950 . S
C605 C601 1.393 1_554 S
C605 C604 1.391 . S
C606 H596 0.950 . S
C606 C607 1.386 . S
C606 C608 1.391 . S
C607 C606 1.386 . S
C607 C611 1.393 . S
C608 H597 0.950 . S
C608 C606 1.391 . S
C608 C609 1.400 . S
C609 C603 1.491 . S
C609 C608 1.400 . S
C609 C610 1.398 . S
C610 H598 0.950 . S
C610 C609 1.398 . S
C610 C611 1.391 . S
C611 H599 0.950 . S
C611 C607 1.393 . S
C611 C610 1.391 . S
H612 C620 0.950 . S
H613 C625 0.950 . S
H614 C622 0.950 . S
H615 C624 0.950 . S
H616 C626 0.950 . S
H617 C628 0.950 . S
H618 C630 0.950 . S
H619 C631 0.950 . S
C620 H612 0.950 . S
C620 C621 1.386 . S
C620 C622 1.391 . S
C621 C620 1.386 . S
C621 C625 1.393 . S
C622 H614 0.950 . S
C622 C620 1.391 . S
C622 C623 1.400 . S
C623 C622 1.400 . S
C623 C624 1.398 . S
C623 C629 1.491 . S
C624 H615 0.950 . S
C624 C623 1.398 . S
C624 C625 1.391 . S
C625 H613 0.950 . S
C625 C621 1.393 . S
C625 C624 1.391 . S
C626 H616 0.950 . S
C626 C627 1.386 . S
C626 C628 1.391 . S
C627 C626 1.386 . S
C627 C631 1.393 . S
C628 H617 0.950 . S
C628 C626 1.391 . S
C628 C629 1.400 . S
C629 C623 1.491 . S
C629 C628 1.400 . S
C629 C630 1.398 . S
C630 H618 0.950 . S
C630 C629 1.398 . S
C630 C631 1.391 . S
C631 H619 0.950 . S
C631 C627 1.393 . S
C631 C630 1.391 . S
H632 C640 0.950 . S
H633 C645 0.950 . S
H634 C642 0.950 . S
H635 C644 0.950 . S
H636 C646 0.950 . S
H637 C648 0.950 . S
H638 C650 0.950 . S
H639 C651 0.950 . S
C640 H632 0.950 . S
C640 C641 1.386 . S
C640 C642 1.391 . S
C641 C640 1.386 . S
C641 C645 1.393 . S
C642 H634 0.950 . S
C642 C640 1.391 . S
C642 C643 1.400 . S
C643 C642 1.400 . S
C643 C644 1.398 . S
C643 C649 1.491 . S
C644 H635 0.950 . S
C644 C643 1.398 . S
C644 C645 1.391 . S
C645 H633 0.950 . S
C645 C641 1.393 . S
C645 C644 1.391 . S
C646 H636 0.950 . S
C646 C647 1.386 . S
C646 C648 1.391 . S
C647 C646 1.386 . S
C647 C651 1.393 . S
C648 H637 0.950 . S
C648 C646 1.391 . S
C648 C649 1.400 . S
C649 C643 1.491 . S
C649 C648 1.400 . S
C649 C650 1.398 . S
C650 H638 0.950 . S
C650 C649 1.398 . S
C650 C651 1.391 . S
C651 H639 0.950 . S
C651 C647 1.393 . S
C651 C650 1.391 . S
C187 C100 1.507 . S
C181 N4 1.503 . S
C207 C103 1.676 . S
C201 C17 1.680 . S
C227 C101 1.422 . S
C221 C28 1.419 . S
C247 C102 1.488 . S
C241 C39 1.513 . S
C267 C117 1.745 . S
C261 C6 1.750 . S
C287 C131 1.659 . S
C281 C20 1.642 . S
C301 C31 1.596 . S
C307 C157 1.603 . S
C327 C171 1.413 . S
C321 N37 1.402 . S
C347 C116 1.676 . S
C341 N15 1.664 . S
C361 N26 1.449 . S
C367 C130 1.426 . S
C387 C156 1.600 . S
C381 C42 1.583 . S
C407 C170 1.572 . S
C401 C9 1.566 . S
C421 C53 1.725 . S
C427 C115 1.722 . S
C447 C88 1.591 . S
C441 C64 1.588 . S
C461 N70 1.580 . S
C467 C114 1.576 . S
C481 C83 1.530 . S
C487 C89 1.542 . S
C507 C144 1.486 . S
C501 N48 1.477 . S
C527 C158 1.588 . S
C521 C61 1.588 . S
C547 C128 1.594 . S
C541 C72 1.599 . S
C561 N81 1.617 . S
C567 C142 1.602 . S
C587 C145 1.542 . S
C581 N59 1.531 . S
C607 C159 1.613 . S
C601 C75 1.599 . S
C627 C129 1.582 . S
C621 C86 1.583 . S
C641 C50 1.698 . S
C647 C143 1.680 . S
