# Generated by pormake.
# Topology tsx, (6,3)-cn, num edge types: 1
# Building blocks:
#     Node 0, Type 0, BuildingBlock: JUFBIX_clean_sbu_0, # of connection points: 6
#     Node 1, Type 0, BuildingBlock: JUFBIX_clean_sbu_0, # of connection points: 6
#     Node 2, Type 1, BuildingBlock: CUQRIR_clean_linker_1, # of connection points: 3
#     Node 3, Type 1, BuildingBlock: CUQRIR_clean_linker_1, # of connection points: 3
#     Node 4, Type 1, BuildingBlock: CUQRIR_clean_linker_1, # of connection points: 3
#     Node 5, Type 1, BuildingBlock: CUQRIR_clean_linker_1, # of connection points: 3
#     Edge 6, Type (0, 1), BuildingBlock: CIFDUS_clean_linker_0, # of connection points: 2
#     Edge 7, Type (0, 1), BuildingBlock: CIFDUS_clean_linker_0, # of connection points: 2
#     Edge 8, Type (0, 1), BuildingBlock: CIFDUS_clean_linker_0, # of connection points: 2
#     Edge 9, Type (0, 1), BuildingBlock: CIFDUS_clean_linker_0, # of connection points: 2
#     Edge 10, Type (0, 1), BuildingBlock: CIFDUS_clean_linker_0, # of connection points: 2
#     Edge 11, Type (0, 1), BuildingBlock: CIFDUS_clean_linker_0, # of connection points: 2
#     Edge 12, Type (0, 1), BuildingBlock: CIFDUS_clean_linker_0, # of connection points: 2
#     Edge 13, Type (0, 1), BuildingBlock: CIFDUS_clean_linker_0, # of connection points: 2
#     Edge 14, Type (0, 1), BuildingBlock: CIFDUS_clean_linker_0, # of connection points: 2
#     Edge 15, Type (0, 1), BuildingBlock: CIFDUS_clean_linker_0, # of connection points: 2
#     Edge 16, Type (0, 1), BuildingBlock: CIFDUS_clean_linker_0, # of connection points: 2
#     Edge 17, Type (0, 1), BuildingBlock: CIFDUS_clean_linker_0, # of connection points: 2
# Relax obj value: 0.138
# Max RMSD: 0.161
# Mean RMSD: 0.147
data_MOF--net-tsx--node1-JUFBIX_clean_sbu_0--node2-CUQRIR_clean_linker_1--edge1-CIFDUS_clean_linker_0
_symmetry_space_group_name_H-M    P1
_symmetry_Int_Tables_number       1
_symmetry_cell_setting            triclinic
loop_
_symmetry_equiv_pos_as_xyz
'x, y, z'
_cell_length_a     16.073903
_cell_length_b     18.778842
_cell_length_c     27.250171
_cell_angle_alpha  82.033893
_cell_angle_beta   89.162711
_cell_angle_gamma 101.75745
loop_
_atom_site_label
_atom_site_type_symbol
_atom_site_fract_x
_atom_site_fract_y
_atom_site_fract_z
_atom_type_partial_charge
Co0 Co 0.1689 0.09224 -0.01485 0.0
C1 C 0.10018 0.15046 0.89712 0.0
Co2 Co 0.07589 0.1631 -0.00602 0.0
C3 C 0.28241 0.98222 0.97887 0.0
C4 C 0.31887 0.08697 0.93358 0.0
N5 N 0.25866 0.04796 0.96756 0.0
N6 N 0.35581 0.98078 0.95379 0.0
C7 C 0.37784 0.04667 0.9254 0.0
H8 H 0.24717 0.93683 0.0048 0.0
H9 H 0.31942 0.14165 0.91469 0.0
C10 C 0.14654 0.10329 0.08164 0.0
N11 N 0.98874 0.20972 0.00794 0.0
C12 C 0.95932 0.26302 0.97909 0.0
C13 C 0.9317 0.18766 0.04666 0.0
N14 N 0.88547 0.27382 -0.00209 0.0
C15 C 0.86806 0.22669 0.04047 0.0
C16 C 1.00817 1.01033 -0.00152 0.0
O17 O 0.18569 0.07149 0.0533 0.0
O18 O 0.09806 0.14532 0.06347 0.0
O19 O 0.99649 0.07458 0.00059 0.0
O20 O 0.08362 1.00117 -0.00984 0.0
O21 O 0.05571 0.17905 0.92459 0.0
H22 H 0.93361 0.14305 0.07606 0.0
H23 H 0.98832 0.28993 0.94342 0.0
O24 O 0.15102 0.11275 0.91692 0.0
O25 O 0.25015 0.18495 0.98243 0.0
O26 O 0.15478 0.25211 -0.01216 0.0
C27 C 0.2321 0.24764 0.98401 0.0
H28 H 0.43202 0.06392 0.89928 0.0
H29 H 0.81173 0.21923 0.06446 0.0
Co30 Co 0.55145 0.44595 0.50141 0.0
C31 C 0.51644 0.53168 0.41333 0.0
Co32 Co 0.45418 0.51404 0.50784 0.0
C33 C 0.6759 0.34407 0.51078 0.0
C34 C 0.61564 0.35751 0.44162 0.0
N35 N 0.62346 0.3834 0.4857 0.0
N36 N 0.69952 0.29567 0.48342 0.0
C37 C 0.66212 0.30489 0.44007 0.0
H38 H 0.69219 0.34763 0.54889 0.0
H39 H 0.57379 0.37185 0.41293 0.0
C40 C 0.49432 0.4323 0.59628 0.0
N41 N 0.37436 0.5712 0.51811 0.0
C42 C 0.3619 0.63344 0.49017 0.0
C43 C 0.30422 0.5487 0.54863 0.0
N44 N 0.28603 0.64921 0.50132 0.0
C45 C 0.24982 0.59618 0.53823 0.0
C46 C 0.38051 0.37399 0.49458 0.0
O47 O 0.54567 0.40921 0.56943 0.0
O48 O 0.44982 0.47679 0.57669 0.0
O49 O 0.36348 0.4359 0.4988 0.0
O50 O 0.45788 0.36867 0.49218 0.0
O51 O 0.4609 0.55089 0.43908 0.0
H52 H 0.29062 0.49805 0.57437 0.0
H53 H 0.40444 0.66351 0.4597 0.0
O54 O 0.55831 0.48655 0.43381 0.0
O55 O 0.64314 0.52388 0.51263 0.0
O56 O 0.54637 0.59117 0.51829 0.0
C57 C 0.62388 0.5845 0.52011 0.0
H58 H 0.6657 0.27337 0.40997 0.0
H59 H 0.18698 0.59057 0.5551 0.0
C60 C 0.92743 0.92448 0.42206 0.0
N61 N 0.98925 0.91286 0.39157 0.0
N62 N 0.91688 0.99472 0.41224 0.0
C63 C 0.87188 0.86532 0.45786 0.0
C64 C 0.97064 1.02414 0.37261 0.0
N65 N 1.01554 0.97466 0.36016 0.0
C66 C 0.96915 0.09737 0.34216 0.0
H67 H 0.82503 0.83084 0.43685 0.0
H68 H 0.83665 0.88895 0.48434 0.0
H69 H 0.91019 0.82923 0.47841 0.0
H70 H 1.02621 0.13822 0.34946 0.0
H71 H 0.91186 0.11802 0.35153 0.0
H72 H 0.96928 0.093 0.302 0.0
C73 C 0.96981 0.98953 0.58012 0.0
N74 N 0.99724 0.04978 0.60238 0.0
N75 N 0.90121 0.94487 0.60559 0.0
C76 C 1.01161 0.9735 0.53451 0.0
C77 C 0.88893 0.97959 0.64457 0.0
N78 N 0.94705 0.04345 0.64269 0.0
C79 C 0.82406 0.9476 0.68639 0.0
H80 H 0.07294 0.95807 0.54418 0.0
H81 H 1.02479 1.02254 0.50564 0.0
H82 H 0.97287 0.92676 0.51996 0.0
H83 H 0.79935 0.88802 0.68609 0.0
H84 H 0.77004 0.97618 0.68238 0.0
H85 H 0.85221 0.95542 0.72269 0.0
C86 C 0.62001 0.6263 0.90669 0.0
N87 N 0.63824 0.57372 0.88148 0.0
N88 N 0.55122 0.65095 0.88816 0.0
C89 C 0.66519 0.64824 0.95178 0.0
C90 C 0.52994 0.61231 0.85015 0.0
N91 N 0.58179 0.56448 0.84668 0.0
C92 C 0.46388 0.62695 0.81356 0.0
H93 H 0.73104 0.63912 0.95163 0.0
H94 H 0.63073 0.61353 0.98484 0.0
H95 H 0.66842 0.70678 0.95437 0.0
H96 H 0.45221 0.68329 0.81292 0.0
H97 H 0.40327 0.58708 0.82448 0.0
H98 H 0.48416 0.62056 0.77561 0.0
C99 C 0.57132 0.65248 0.06674 0.0
N100 N 0.63411 0.66971 0.0986 0.0
N101 N 0.53401 0.58035 0.07634 0.0
C102 C 0.53699 0.70752 0.03206 0.0
C103 C 0.57307 0.55497 0.11647 0.0
N104 N 0.63238 0.60937 0.13078 0.0
C105 C 0.54535 0.47952 0.14621 0.0
H106 H 0.48848 0.68013 0.0088 0.0
H107 H 0.58835 0.74486 0.00832 0.0
H108 H 0.50684 0.74159 0.05415 0.0
H109 H 0.60141 0.4538 0.15209 0.0
H110 H 0.49586 0.4431 0.12812 0.0
H111 H 0.51949 0.48453 0.18328 0.0
H112 H 0.2141 0.38211 0.0038 0.0
H113 H 0.40358 0.259 0.97297 0.0
H114 H 0.51559 0.35818 -0.00705 0.0
H115 H 0.55885 0.47305 0.02765 0.0
H116 H 0.36999 0.59081 0.06586 0.0
H117 H 0.25871 0.50234 0.03245 0.0
C118 C 0.28006 0.37761 0.00029 0.0
C119 C 0.30027 0.31279 -0.01265 0.0
C120 C 0.34431 0.43426 0.01269 0.0
C121 C 0.3861 0.30797 0.98307 0.0
C122 C 0.45034 0.36472 -0.00568 0.0
C123 C 0.49336 0.47966 0.02756 0.0
C124 C 0.47177 0.53756 0.04897 0.0
C125 C 0.43004 0.42702 0.01043 0.0
C126 C 0.38733 0.5465 0.04917 0.0
C127 C 0.32403 0.49569 0.0305 0.0
H128 H 0.29318 0.83474 0.95463 0.0
H129 H 0.52558 0.9978 0.95 0.0
H130 H 0.60774 0.91008 0.92846 0.0
H131 H 0.61225 0.79102 0.90186 0.0
H132 H 0.38417 0.62258 0.91406 0.0
H133 H 0.30119 0.70823 0.93986 0.0
C134 C 0.3619 0.85019 0.95018 0.0
C135 C 0.40299 0.92311 0.95311 0.0
C136 C 0.40928 0.79907 0.93759 0.0
C137 C 0.4923 0.94238 0.9471 0.0
C138 C 0.53939 0.8924 0.93448 0.0
C139 C 0.54489 0.77268 0.91144 0.0
C140 C 0.50451 0.70058 0.90655 0.0
C141 C 0.49836 0.82135 0.92803 0.0
C142 C 0.41641 0.67812 0.91745 0.0
C143 C 0.36914 0.72689 0.93251 0.0
H144 H 0.99889 0.86355 0.03528 0.0
H145 H 0.84488 1.02199 -0.0117 0.0
H146 H 0.71711 0.93445 0.02066 0.0
H147 H 0.64834 0.81568 0.06666 0.0
H148 H 0.79524 0.6495 0.10395 0.0
H149 H 0.92598 0.73799 0.07451 0.0
C150 C 0.93723 0.87816 0.03119 0.0
C151 C 0.93216 0.94961 0.00959 0.0
C152 C 0.86247 0.82689 0.04983 0.0
C153 C 0.85132 0.96768 0.00506 0.0
C154 C 0.77778 0.9178 0.02391 0.0
C155 C 0.70839 0.79804 0.06712 0.0
C156 C 0.71117 0.7254 0.08649 0.0
C157 C 0.78259 0.84773 0.04714 0.0
C158 C 0.79096 0.70521 0.08941 0.0
C159 C 0.86581 0.75553 0.07187 0.0
H160 H 0.93129 0.41234 0.95057 0.0
H161 H 0.71596 0.23448 -0.00788 0.0
H162 H 0.62011 0.31019 0.95497 0.0
H163 H 0.5961 0.43109 0.91644 0.0
H164 H 0.80947 0.61061 0.87739 0.0
H165 H 0.90782 0.53164 0.90801 0.0
C166 C 0.86335 0.39058 0.95126 0.0
C167 C 0.83035 0.31849 0.97447 0.0
C168 C 0.80834 0.43535 0.93106 0.0
C169 C 0.74233 0.29041 0.97529 0.0
C170 C 0.68756 0.3337 0.95411 0.0
C171 C 0.66423 0.45213 0.91456 0.0
C172 C 0.69618 0.52609 0.89564 0.0
C173 C 0.71956 0.40672 0.93286 0.0
C174 C 0.78428 0.55373 0.89258 0.0
C175 C 0.84009 0.50869 0.91004 0.0
H176 H 0.602 0.72013 0.5332 0.0
H177 H 0.79227 0.58722 0.53905 0.0
H178 H 0.89541 0.68663 0.56744 0.0
H179 H 0.93084 0.81211 0.59194 0.0
H180 H 0.73997 0.94366 0.5833 0.0
H181 H 0.63714 0.84377 0.55552 0.0
C182 C 0.66604 0.71264 0.54054 0.0
C183 C 0.68907 0.646 0.53401 0.0
C184 C 0.72457 0.76966 0.55708 0.0
C185 C 0.77267 0.63786 0.54359 0.0
C186 C 0.83157 0.69457 0.56017 0.0
C187 C 0.8666 0.81825 0.58397 0.0
C188 C 0.8424 0.88471 0.5895 0.0
C189 C 0.80808 0.76059 0.56742 0.0
C190 C 0.75922 0.89265 0.57934 0.0
C191 C 0.70078 0.83576 0.56336 0.0
H192 H 0.64349 0.15178 0.48712 0.0
H193 H 0.86676 0.31718 0.50028 0.0
H194 H 0.95743 0.23167 0.48427 0.0
H195 H 0.97146 0.11793 0.45179 0.0
H196 H 0.74671 0.95775 0.43092 0.0
H197 H 0.65765 0.03161 0.46571 0.0
C198 C 0.71203 0.16746 0.48893 0.0
C199 C 0.74871 0.24021 0.49526 0.0
C200 C 0.76309 0.11911 0.4774 0.0
C201 C 0.83741 0.26105 0.49653 0.0
C202 C 0.88903 0.21247 0.48655 0.0
C203 C 0.90305 0.09875 0.45597 0.0
C204 C 0.8654 0.03256 0.43899 0.0
C205 C 0.85247 0.1427 0.47458 0.0
C206 C 0.77687 1.00808 0.44419 0.0
C207 C 0.72614 0.05053 0.46382 0.0
H208 H 0.21324 0.3626 0.52014 0.0
H209 H 0.3966 0.23276 0.49114 0.0
H210 H 0.2944 0.12039 0.5232 0.0
H211 H 0.15807 0.05994 0.56688 0.0
H212 H 0.97216 0.18802 0.59237 0.0
H213 H 0.07178 0.30073 0.55659 0.0
C214 C 0.23032 0.30969 0.51975 0.0
C215 C 0.31275 0.30638 0.5033 0.0
C216 C 0.17171 0.24516 0.53908 0.0
C217 C 0.33369 0.23715 0.50346 0.0
C218 C 0.27553 0.17277 0.52226 0.0
C219 C 0.13853 0.11217 0.5633 0.0
C220 C 0.05755 0.11564 0.58171 0.0
C221 C 0.19517 0.17624 0.54128 0.0
C222 C 0.03459 0.18429 0.57885 0.0
C223 C 0.09116 0.24851 0.55797 0.0
H224 H 0.12616 0.63101 0.47042 0.0
H225 H 0.35787 0.79226 0.47322 0.0
H226 H 0.28762 0.88923 0.43464 0.0
H227 H 0.15599 0.9289 0.40642 0.0
H228 H 0.92709 0.76615 0.39938 0.0
H229 H 0.99993 0.66855 0.4329 0.0
C230 C 0.1611 0.68742 0.46236 0.0
C231 C 0.24657 0.70499 0.4753 0.0
C232 C 0.12061 0.74229 0.43948 0.0
C233 C 0.29199 0.77782 0.46372 0.0
C234 C 0.25176 0.83307 0.44178 0.0
C235 C 0.12299 0.87181 0.41118 0.0
C236 C 0.03596 0.85461 0.40149 0.0
C237 C 0.16568 0.81612 0.43019 0.0
C238 C 0.99357 0.78058 0.4076 0.0
C239 C 0.03522 0.72494 0.42679 0.0
H240 H 0.0956 0.97133 0.13708 0.0
H241 H 0.20267 0.19849 0.14623 0.0
H242 H 0.19083 0.17289 0.23716 0.0
H243 H 0.13258 0.08906 0.31295 0.0
H244 H 0.99786 0.86956 0.30076 0.0
H245 H 0.04268 0.88645 0.21331 0.0
C246 C 0.1179 1.01461 0.15927 0.0
C247 C 0.15036 0.08641 0.13566 0.0
C248 C 0.10634 1.00026 0.21113 0.0
C249 C 0.17766 0.14281 0.16413 0.0
C250 C 0.17084 0.12813 0.21592 0.0
C251 C 0.11335 0.04504 0.29106 0.0
C252 C 0.06013 0.97891 0.31304 0.0
C253 C 0.13259 0.05758 0.23974 0.0
C254 C 0.03878 0.92103 0.28486 0.0
C255 C 0.06321 0.9311 0.23457 0.0
H256 H 0.95914 0.16522 0.84463 0.0
H257 H 0.21957 0.14222 0.82884 0.0
H258 H 0.19747 0.11678 0.74435 0.0
H259 H 0.09829 0.0793 0.68128 0.0
H260 H 0.83829 0.10195 0.69435 0.0
H261 H 0.8654 0.149 0.77357 0.0
C262 C 1.01147 0.15676 0.82209 0.0
C263 C 0.09034 0.15421 0.84315 0.0
C264 C 0.99784 0.1404 0.77355 0.0
C265 C 0.15782 0.14324 0.81363 0.0
C266 C 0.14527 0.12846 0.76535 0.0
C267 C 0.04843 0.09689 0.70071 0.0
C268 C 0.96613 0.08568 0.68295 0.0
C269 C 0.06465 0.12357 0.74584 0.0
C270 C 0.90164 0.10832 0.70834 0.0
C271 C 0.91726 0.13534 0.75344 0.0
H272 H 0.63534 0.45418 0.64746 0.0
H273 H 0.36223 0.39243 0.66452 0.0
H274 H 0.36834 0.41277 0.7514 0.0
H275 H 0.44945 0.47193 0.81595 0.0
H276 H 0.71861 0.5569 0.79118 0.0
H277 H 0.71767 0.5016 0.71513 0.0
C278 C 0.57765 0.4424 0.67096 0.0
C279 C 0.49856 0.42138 0.65033 0.0
C280 C 0.5814 0.45968 0.71936 0.0
C281 C 0.42369 0.40811 0.68022 0.0
C282 C 0.42723 0.42042 0.72958 0.0
C283 C 0.50774 0.47732 0.79398 0.0
C284 C 0.58363 0.51925 0.80833 0.0
C285 C 0.50534 0.45009 0.74858 0.0
C286 C 0.65957 0.52457 0.78075 0.0
C287 C 0.65879 0.49369 0.73702 0.0
H288 H 0.6418 0.50828 0.3543 0.0
H289 H 0.4393 0.62821 0.35515 0.0
H290 H 0.47275 0.67737 0.26754 0.0
H291 H 0.54797 0.67355 0.18904 0.0
H292 H 0.74055 0.54523 0.18707 0.0
H293 H 0.72553 0.51398 0.27775 0.0
C294 C 0.60499 0.5454 0.33549 0.0
C295 C 0.53697 0.56349 0.36091 0.0
C296 C 0.6241 0.57277 0.28533 0.0
C297 C 0.49101 0.61258 0.33616 0.0
C298 C 0.51046 0.641 0.28624 0.0
C299 C 0.58892 0.64141 0.20908 0.0
C300 C 0.64595 0.61221 0.1823 0.0
C301 C 0.57565 0.6202 0.26032 0.0
C302 C 0.6975 0.56892 0.20759 0.0
C303 C 0.68762 0.55018 0.25906 0.0
loop_
_geom_bond_atom_site_label_1
_geom_bond_atom_site_label_2
_geom_bond_distance
_geom_bond_site_symmetry_2
_ccdc_geom_bond_type
Co0 N5 2.057 . S
Co0 O17 2.021 . S
Co0 O20 2.062 1_455 S
Co0 O24 2.117 1_564 S
Co0 O25 2.020 1_565 S
C1 O21 1.259 1_455 S
C1 O24 1.258 . S
Co2 N11 2.057 . S
Co2 O18 2.117 . S
Co2 O19 2.020 1_545 S
Co2 O21 2.021 1_554 S
Co2 O26 2.062 1_654 S
C3 N5 1.316 . S
C3 N6 1.347 . S
C3 H8 0.931 . S
C4 N5 1.375 1_556 S
C4 C7 1.350 . S
C4 H9 0.930 . S
N5 Co0 2.057 . S
N5 C3 1.316 . S
N5 C4 1.375 1_554 S
N6 C3 1.347 . S
N6 C7 1.373 1_554 S
C7 C4 1.350 . S
C7 N6 1.373 1_556 S
C7 H28 0.931 . S
H8 C3 0.931 . S
H9 C4 0.930 . S
C10 O17 1.259 1_545 S
C10 O18 1.258 1_455 S
N11 Co2 2.057 . S
N11 C12 1.316 1_554 S
N11 C13 1.375 . S
C12 N11 1.316 1_556 S
C12 N14 1.347 1_556 S
C12 H23 0.931 . S
C13 N11 1.375 . S
C13 C15 1.350 . S
C13 H22 0.930 . S
N14 C12 1.347 1_554 S
N14 C15 1.373 . S
C15 C13 1.350 . S
C15 N14 1.373 . S
C15 H29 0.931 . S
C16 O19 1.256 . S
C16 O20 1.255 . S
O17 Co0 2.021 . S
O17 C10 1.259 1_565 S
O18 Co2 2.117 . S
O18 C10 1.258 1_655 S
O19 Co2 2.020 1_565 S
O19 C16 1.256 . S
O20 Co0 2.062 1_655 S
O20 C16 1.255 . S
O21 C1 1.259 1_655 S
O21 Co2 2.021 1_556 S
H22 C13 0.930 . S
H23 C12 0.931 . S
O24 Co0 2.117 1_546 S
O24 C1 1.258 . S
O25 Co0 2.020 1_545 S
O25 C27 1.256 . S
O26 Co2 2.062 1_456 S
O26 C27 1.254 1_556 S
C27 O25 1.256 . S
C27 O26 1.254 1_554 S
H28 C7 0.931 . S
H29 C15 0.931 . S
Co30 N35 2.057 . S
Co30 O47 2.021 . S
Co30 O50 2.062 . S
Co30 O54 2.117 . S
Co30 O55 2.020 . S
C31 O51 1.259 . S
C31 O54 1.258 . S
Co32 N41 2.057 . S
Co32 O48 2.117 . S
Co32 O49 2.020 . S
Co32 O51 2.021 . S
Co32 O56 2.062 . S
C33 N35 1.316 . S
C33 N36 1.347 . S
C33 H38 0.931 . S
C34 N35 1.375 . S
C34 C37 1.350 . S
C34 H39 0.930 . S
N35 Co30 2.057 . S
N35 C33 1.316 . S
N35 C34 1.375 . S
N36 C33 1.347 . S
N36 C37 1.373 . S
C37 C34 1.350 . S
C37 N36 1.373 . S
C37 H58 0.931 . S
H38 C33 0.931 . S
H39 C34 0.930 . S
C40 O47 1.259 . S
C40 O48 1.258 . S
N41 Co32 2.057 . S
N41 C42 1.316 . S
N41 C43 1.375 . S
C42 N41 1.316 . S
C42 N44 1.347 . S
C42 H53 0.931 . S
C43 N41 1.375 . S
C43 C45 1.350 . S
C43 H52 0.930 . S
N44 C42 1.347 . S
N44 C45 1.373 . S
C45 C43 1.350 . S
C45 N44 1.373 . S
C45 H59 0.931 . S
C46 O49 1.256 . S
C46 O50 1.255 . S
O47 Co30 2.021 . S
O47 C40 1.259 . S
O48 Co32 2.117 . S
O48 C40 1.258 . S
O49 Co32 2.020 . S
O49 C46 1.256 . S
O50 Co30 2.062 . S
O50 C46 1.255 . S
O51 C31 1.259 . S
O51 Co32 2.021 . S
H52 C43 0.930 . S
H53 C42 0.931 . S
O54 Co30 2.117 . S
O54 C31 1.258 . S
O55 Co30 2.020 . S
O55 C57 1.256 . S
O56 Co32 2.062 . S
O56 C57 1.255 . S
C57 O55 1.256 . S
C57 O56 1.255 . S
H58 C37 0.931 . S
H59 C45 0.931 . S
C60 N61 1.317 1_545 S
C60 N62 1.348 1_455 S
C60 C63 1.485 1_545 S
N61 C60 1.317 1_565 S
N61 N65 1.366 1_565 S
N62 C60 1.348 1_655 S
N62 C64 1.346 . S
C63 C60 1.485 1_565 S
C63 H67 0.960 1_455 S
C63 H68 0.961 1_565 S
C63 H69 0.960 . S
C64 N62 1.346 . S
C64 N65 1.318 1_655 S
C64 C66 1.486 . S
N65 N61 1.366 1_545 S
N65 C64 1.318 1_455 S
C66 C64 1.486 . S
C66 H70 0.960 . S
C66 H71 0.960 . S
C66 H72 0.959 . S
H67 C63 0.960 1_655 S
H68 C63 0.961 1_545 S
H69 C63 0.960 . S
H70 C66 0.960 . S
H71 C66 0.960 . S
H72 C66 0.959 . S
C73 N74 1.317 . S
C73 N75 1.348 1_445 S
C73 C76 1.485 . S
N74 C73 1.317 . S
N74 N78 1.370 . S
N75 C73 1.348 1_665 S
N75 C77 1.346 . S
C76 C73 1.485 . S
C76 H80 0.960 1_455 S
C76 H81 0.961 . S
C76 H82 0.960 . S
C77 N75 1.346 . S
C77 N78 1.307 1_665 S
C77 C79 1.486 . S
N78 N74 1.370 . S
N78 C77 1.307 1_445 S
C79 C77 1.486 . S
C79 H83 0.960 . S
C79 H84 0.960 . S
C79 H85 0.959 . S
H80 C76 0.960 1_655 S
H81 C76 0.961 . S
H82 C76 0.960 . S
H83 C79 0.960 . S
H84 C79 0.960 . S
H85 C79 0.959 . S
C86 N87 1.317 . S
C86 N88 1.348 . S
C86 C89 1.485 1_556 S
N87 C86 1.317 . S
N87 N91 1.370 . S
N88 C86 1.348 . S
N88 C90 1.346 . S
C89 C86 1.485 1_554 S
C89 H93 0.960 . S
C89 H94 0.961 . S
C89 H95 0.960 . S
C90 N88 1.346 . S
C90 N91 1.307 . S
C90 C92 1.486 . S
N91 N87 1.370 . S
N91 C90 1.307 . S
C92 C90 1.486 . S
C92 H96 0.960 . S
C92 H97 0.960 . S
C92 H98 0.959 . S
H93 C89 0.960 . S
H94 C89 0.961 . S
H95 C89 0.960 . S
H96 C92 0.960 . S
H97 C92 0.960 . S
H98 C92 0.959 . S
C99 N100 1.317 . S
C99 N101 1.348 . S
C99 C102 1.485 1_554 S
N100 C99 1.317 . S
N100 N104 1.370 . S
N101 C99 1.348 . S
N101 C103 1.346 . S
C102 C99 1.485 1_556 S
C102 H106 0.960 . S
C102 H107 0.961 . S
C102 H108 0.960 . S
C103 N101 1.346 . S
C103 N104 1.307 . S
C103 C105 1.486 . S
N104 N100 1.370 . S
N104 C103 1.307 . S
C105 C103 1.486 . S
C105 H109 0.960 . S
C105 H110 0.960 . S
C105 H111 0.959 . S
H106 C102 0.960 . S
H107 C102 0.961 . S
H108 C102 0.960 . S
H109 C105 0.960 . S
H110 C105 0.960 . S
H111 C105 0.959 . S
H112 C118 0.930 . S
H113 C121 0.930 . S
H114 C122 0.930 . S
H115 C123 0.930 . S
H116 C126 0.930 . S
H117 C127 0.930 . S
C118 H112 0.930 . S
C118 C119 1.367 . S
C118 C120 1.415 . S
C119 C118 1.367 . S
C119 C121 1.408 1_554 S
C120 C118 1.415 . S
C120 C125 1.425 1_554 S
C120 C127 1.409 . S
C121 H113 0.930 . S
C121 C119 1.408 1_556 S
C121 C122 1.362 . S
C122 H114 0.930 . S
C122 C121 1.362 . S
C122 C125 1.409 . S
C123 H115 0.930 . S
C123 C124 1.355 1_556 S
C123 C125 1.415 . S
C124 C123 1.355 1_554 S
C124 C126 1.419 . S
C125 C120 1.425 1_556 S
C125 C122 1.409 . S
C125 C123 1.415 . S
C126 H116 0.930 . S
C126 C124 1.419 . S
C126 C127 1.362 . S
C127 H117 0.930 . S
C127 C120 1.409 . S
C127 C126 1.362 . S
H128 C134 0.930 1_556 S
H129 C137 0.930 . S
H130 C138 0.930 . S
H131 C139 0.930 . S
H132 C142 0.930 . S
H133 C143 0.930 . S
C134 H128 0.930 1_554 S
C134 C135 1.355 . S
C134 C136 1.415 1_554 S
C135 C134 1.355 . S
C135 C137 1.419 . S
C136 C134 1.415 1_556 S
C136 C141 1.425 1_556 S
C136 C143 1.409 . S
C137 H129 0.930 . S
C137 C135 1.419 . S
C137 C138 1.362 . S
C138 H130 0.930 . S
C138 C137 1.362 . S
C138 C141 1.409 . S
C139 H131 0.930 . S
C139 C140 1.355 1_554 S
C139 C141 1.415 . S
C140 C139 1.355 1_556 S
C140 C142 1.419 . S
C141 C136 1.425 1_554 S
C141 C138 1.409 . S
C141 C139 1.415 . S
C142 H132 0.930 . S
C142 C140 1.419 . S
C142 C143 1.362 . S
C143 H133 0.930 . S
C143 C136 1.409 . S
C143 C142 1.362 . S
H144 C150 0.930 1_556 S
H145 C153 0.930 . S
H146 C154 0.930 . S
H147 C155 0.930 . S
H148 C158 0.930 . S
H149 C159 0.930 1_556 S
C150 H144 0.930 1_554 S
C150 C151 1.355 . S
C150 C152 1.415 . S
C151 C150 1.355 . S
C151 C153 1.419 . S
C152 C150 1.415 . S
C152 C157 1.425 . S
C152 C159 1.409 . S
C153 H145 0.930 . S
C153 C151 1.419 . S
C153 C154 1.362 . S
C154 H146 0.930 . S
C154 C153 1.362 . S
C154 C157 1.409 . S
C155 H147 0.930 . S
C155 C156 1.355 . S
C155 C157 1.415 . S
C156 C155 1.355 . S
C156 C158 1.419 . S
C157 C152 1.425 . S
C157 C154 1.409 . S
C157 C155 1.415 . S
C158 H148 0.930 . S
C158 C156 1.419 . S
C158 C159 1.362 . S
C159 H149 0.930 1_554 S
C159 C152 1.409 . S
C159 C158 1.362 . S
H160 C166 0.930 1_554 S
H161 C169 0.930 . S
H162 C170 0.930 . S
H163 C171 0.930 . S
H164 C174 0.930 . S
H165 C175 0.930 1_554 S
C166 H160 0.930 1_556 S
C166 C167 1.355 . S
C166 C168 1.415 . S
C167 C166 1.355 . S
C167 C169 1.419 . S
C168 C166 1.415 . S
C168 C173 1.425 . S
C168 C175 1.409 . S
C169 H161 0.930 . S
C169 C167 1.419 . S
C169 C170 1.362 . S
C170 H162 0.930 . S
C170 C169 1.362 . S
C170 C173 1.409 . S
C171 H163 0.930 . S
C171 C172 1.355 . S
C171 C173 1.415 . S
C172 C171 1.355 . S
C172 C174 1.419 . S
C173 C168 1.425 . S
C173 C170 1.409 . S
C173 C171 1.415 . S
C174 H164 0.930 . S
C174 C172 1.419 . S
C174 C175 1.362 . S
C175 H165 0.930 1_556 S
C175 C168 1.409 . S
C175 C174 1.362 . S
H176 C182 0.930 . S
H177 C185 0.930 . S
H178 C186 0.930 . S
H179 C187 0.930 . S
H180 C190 0.930 . S
H181 C191 0.930 . S
C182 H176 0.930 . S
C182 C183 1.355 . S
C182 C184 1.415 . S
C183 C182 1.355 . S
C183 C185 1.419 . S
C184 C182 1.415 . S
C184 C189 1.425 . S
C184 C191 1.409 . S
C185 H177 0.930 . S
C185 C183 1.419 . S
C185 C186 1.362 . S
C186 H178 0.930 . S
C186 C185 1.362 . S
C186 C189 1.409 . S
C187 H179 0.930 . S
C187 C188 1.355 . S
C187 C189 1.415 . S
C188 C187 1.355 . S
C188 C190 1.419 . S
C189 C184 1.425 . S
C189 C186 1.409 . S
C189 C187 1.415 . S
C190 H180 0.930 . S
C190 C188 1.419 . S
C190 C191 1.362 . S
C191 H181 0.930 . S
C191 C184 1.409 . S
C191 C190 1.362 . S
H192 C198 0.930 . S
H193 C201 0.930 . S
H194 C202 0.930 . S
H195 C203 0.930 . S
H196 C206 0.930 . S
H197 C207 0.930 . S
C198 H192 0.930 . S
C198 C199 1.355 . S
C198 C200 1.415 . S
C199 C198 1.355 . S
C199 C201 1.419 . S
C200 C198 1.415 . S
C200 C205 1.425 . S
C200 C207 1.409 . S
C201 H193 0.930 . S
C201 C199 1.419 . S
C201 C202 1.362 . S
C202 H194 0.930 . S
C202 C201 1.362 . S
C202 C205 1.409 . S
C203 H195 0.930 . S
C203 C204 1.355 . S
C203 C205 1.415 . S
C204 C203 1.355 . S
C204 C206 1.419 . S
C205 C200 1.425 . S
C205 C202 1.409 . S
C205 C203 1.415 . S
C206 H196 0.930 . S
C206 C204 1.419 . S
C206 C207 1.362 . S
C207 H197 0.930 . S
C207 C200 1.409 . S
C207 C206 1.362 . S
H208 C214 0.930 . S
H209 C217 0.930 . S
H210 C218 0.930 . S
H211 C219 0.930 . S
H212 C222 0.930 . S
H213 C223 0.930 . S
C214 H208 0.930 . S
C214 C215 1.355 . S
C214 C216 1.415 . S
C215 C214 1.355 . S
C215 C217 1.419 . S
C216 C214 1.415 . S
C216 C221 1.425 . S
C216 C223 1.409 . S
C217 H209 0.930 . S
C217 C215 1.419 . S
C217 C218 1.362 . S
C218 H210 0.930 . S
C218 C217 1.362 . S
C218 C221 1.409 . S
C219 H211 0.930 . S
C219 C220 1.355 . S
C219 C221 1.415 . S
C220 C219 1.355 . S
C220 C222 1.419 . S
C221 C216 1.425 . S
C221 C218 1.409 . S
C221 C219 1.415 . S
C222 H212 0.930 . S
C222 C220 1.419 . S
C222 C223 1.362 . S
C223 H213 0.930 . S
C223 C216 1.409 . S
C223 C222 1.362 . S
H224 C230 0.930 . S
H225 C233 0.930 . S
H226 C234 0.930 . S
H227 C235 0.930 . S
H228 C238 0.930 1_655 S
H229 C239 0.930 . S
C230 H224 0.930 . S
C230 C231 1.355 . S
C230 C232 1.415 . S
C231 C230 1.355 . S
C231 C233 1.419 . S
C232 C230 1.415 . S
C232 C237 1.425 . S
C232 C239 1.409 . S
C233 H225 0.930 . S
C233 C231 1.419 . S
C233 C234 1.362 . S
C234 H226 0.930 . S
C234 C233 1.362 . S
C234 C237 1.409 . S
C235 H227 0.930 . S
C235 C236 1.355 . S
C235 C237 1.415 . S
C236 C235 1.355 . S
C236 C238 1.419 . S
C237 C232 1.425 . S
C237 C234 1.409 . S
C237 C235 1.415 . S
C238 H228 0.930 1_455 S
C238 C236 1.419 . S
C238 C239 1.362 . S
C239 H229 0.930 . S
C239 C232 1.409 . S
C239 C238 1.362 . S
H240 C246 0.930 . S
H241 C249 0.930 . S
H242 C250 0.930 . S
H243 C251 0.930 . S
H244 C254 0.930 . S
H245 C255 0.930 . S
C246 H240 0.930 . S
C246 C247 1.355 1_565 S
C246 C248 1.415 . S
C247 C246 1.355 1_545 S
C247 C249 1.419 1_455 S
C248 C246 1.415 . S
C248 C253 1.425 1_465 S
C248 C255 1.409 . S
C249 H241 0.930 . S
C249 C247 1.419 1_655 S
C249 C250 1.362 . S
C250 H242 0.930 . S
C250 C249 1.362 . S
C250 C253 1.409 . S
C251 H243 0.930 . S
C251 C252 1.355 1_645 S
C251 C253 1.415 . S
C252 C251 1.355 1_465 S
C252 C254 1.419 . S
C253 C248 1.425 1_645 S
C253 C250 1.409 . S
C253 C251 1.415 . S
C254 H244 0.930 . S
C254 C252 1.419 . S
C254 C255 1.362 . S
C255 H245 0.930 . S
C255 C248 1.409 . S
C255 C254 1.362 . S
H256 C262 0.930 . S
H257 C265 0.930 1_565 S
H258 C266 0.930 1_565 S
H259 C267 0.930 . S
H260 C270 0.930 . S
H261 C271 0.930 . S
C262 H256 0.930 . S
C262 C263 1.355 1_655 S
C262 C264 1.415 . S
C263 C262 1.355 1_455 S
C263 C265 1.419 . S
C264 C262 1.415 . S
C264 C269 1.425 1_655 S
C264 C271 1.409 . S
C265 H257 0.930 1_545 S
C265 C263 1.419 . S
C265 C266 1.362 . S
C266 H258 0.930 1_545 S
C266 C265 1.362 . S
C266 C269 1.409 . S
C267 H259 0.930 . S
C267 C268 1.355 . S
C267 C269 1.415 . S
C268 C267 1.355 . S
C268 C270 1.419 1_455 S
C269 C264 1.425 1_455 S
C269 C266 1.409 . S
C269 C267 1.415 . S
C270 H260 0.930 . S
C270 C268 1.419 1_655 S
C270 C271 1.362 . S
C271 H261 0.930 . S
C271 C264 1.409 . S
C271 C270 1.362 . S
H272 C278 0.930 . S
H273 C281 0.930 . S
H274 C282 0.930 . S
H275 C283 0.930 . S
H276 C286 0.930 . S
H277 C287 0.930 . S
C278 H272 0.930 . S
C278 C279 1.355 . S
C278 C280 1.415 . S
C279 C278 1.355 . S
C279 C281 1.419 . S
C280 C278 1.415 . S
C280 C285 1.425 . S
C280 C287 1.409 . S
C281 H273 0.930 . S
C281 C279 1.419 . S
C281 C282 1.362 . S
C282 H274 0.930 . S
C282 C281 1.362 . S
C282 C285 1.409 . S
C283 H275 0.930 . S
C283 C284 1.355 . S
C283 C285 1.415 . S
C284 C283 1.355 . S
C284 C286 1.419 . S
C285 C280 1.425 . S
C285 C282 1.409 . S
C285 C283 1.415 . S
C286 H276 0.930 . S
C286 C284 1.419 . S
C286 C287 1.362 . S
C287 H277 0.930 . S
C287 C280 1.409 . S
C287 C286 1.362 . S
H288 C294 0.930 . S
H289 C297 0.930 . S
H290 C298 0.930 . S
H291 C299 0.930 . S
H292 C302 0.930 . S
H293 C303 0.930 . S
C294 H288 0.930 . S
C294 C295 1.355 . S
C294 C296 1.415 . S
C295 C294 1.355 . S
C295 C297 1.419 . S
C296 C294 1.415 . S
C296 C301 1.425 . S
C296 C303 1.409 . S
C297 H289 0.930 . S
C297 C295 1.419 . S
C297 C298 1.362 . S
C298 H290 0.930 . S
C298 C297 1.362 . S
C298 C301 1.409 . S
C299 H291 0.930 . S
C299 C300 1.355 . S
C299 C301 1.415 . S
C300 C299 1.355 . S
C300 C302 1.419 . S
C301 C296 1.425 . S
C301 C298 1.409 . S
C301 C299 1.415 . S
C302 H292 0.930 . S
C302 C300 1.419 . S
C302 C303 1.362 . S
C303 H293 0.930 . S
C303 C296 1.409 . S
C303 C302 1.362 . S
C124 N101 1.391 . S
C119 C27 1.438 . S
C135 N6 1.383 . S
C140 N88 1.407 . S
C151 C16 1.475 . S
C156 N100 1.469 . S
C167 N14 1.405 1_556 S
C172 N87 1.440 . S
C183 C57 1.424 . S
C188 N75 1.431 . S
C199 N36 1.317 . S
C204 N62 1.436 . S
C220 N74 1.493 . S
C215 C46 1.488 . S
C236 N61 1.466 . S
C231 N44 1.451 . S
C247 C10 1.471 . S
C252 N65 1.459 1_565 S
C263 C1 1.555 . S
C268 N78 1.540 . S
C284 N91 1.432 . S
C279 C40 1.471 . S
C295 C31 1.560 . S
C300 N104 1.508 . S
