# Generated by pormake.
# Topology zzz, (3,6)-cn, num edge types: 1
# Building blocks:
#     Node 0, Type 0, BuildingBlock: BETDIP_clean_linker_0, # of connection points: 3
#     Node 1, Type 0, BuildingBlock: BETDIP_clean_linker_0, # of connection points: 3
#     Node 2, Type 0, BuildingBlock: BETDIP_clean_linker_0, # of connection points: 3
#     Node 3, Type 0, BuildingBlock: BETDIP_clean_linker_0, # of connection points: 3
#     Node 4, Type 0, BuildingBlock: BETDIP_clean_linker_0, # of connection points: 3
#     Node 5, Type 0, BuildingBlock: BETDIP_clean_linker_0, # of connection points: 3
#     Node 6, Type 0, BuildingBlock: BETDIP_clean_linker_0, # of connection points: 3
#     Node 7, Type 0, BuildingBlock: BETDIP_clean_linker_0, # of connection points: 3
#     Node 8, Type 1, BuildingBlock: KUMBUR_clean_sbu_0, # of connection points: 6
#     Node 9, Type 1, BuildingBlock: KUMBUR_clean_sbu_0, # of connection points: 6
#     Node 10, Type 1, BuildingBlock: KUMBUR_clean_sbu_0, # of connection points: 6
#     Node 11, Type 1, BuildingBlock: KUMBUR_clean_sbu_0, # of connection points: 6
#     Edge 12, Type (0, 1), BuildingBlock: AJUNOK_clean_linker_0, # of connection points: 2
#     Edge 13, Type (0, 1), BuildingBlock: AJUNOK_clean_linker_0, # of connection points: 2
#     Edge 14, Type (0, 1), BuildingBlock: AJUNOK_clean_linker_0, # of connection points: 2
#     Edge 15, Type (0, 1), BuildingBlock: AJUNOK_clean_linker_0, # of connection points: 2
#     Edge 16, Type (0, 1), BuildingBlock: AJUNOK_clean_linker_0, # of connection points: 2
#     Edge 17, Type (0, 1), BuildingBlock: AJUNOK_clean_linker_0, # of connection points: 2
#     Edge 18, Type (0, 1), BuildingBlock: AJUNOK_clean_linker_0, # of connection points: 2
#     Edge 19, Type (0, 1), BuildingBlock: AJUNOK_clean_linker_0, # of connection points: 2
#     Edge 20, Type (0, 1), BuildingBlock: AJUNOK_clean_linker_0, # of connection points: 2
#     Edge 21, Type (0, 1), BuildingBlock: AJUNOK_clean_linker_0, # of connection points: 2
#     Edge 22, Type (0, 1), BuildingBlock: AJUNOK_clean_linker_0, # of connection points: 2
#     Edge 23, Type (0, 1), BuildingBlock: AJUNOK_clean_linker_0, # of connection points: 2
#     Edge 24, Type (0, 1), BuildingBlock: AJUNOK_clean_linker_0, # of connection points: 2
#     Edge 25, Type (0, 1), BuildingBlock: AJUNOK_clean_linker_0, # of connection points: 2
#     Edge 26, Type (0, 1), BuildingBlock: AJUNOK_clean_linker_0, # of connection points: 2
#     Edge 27, Type (0, 1), BuildingBlock: AJUNOK_clean_linker_0, # of connection points: 2
#     Edge 28, Type (0, 1), BuildingBlock: AJUNOK_clean_linker_0, # of connection points: 2
#     Edge 29, Type (0, 1), BuildingBlock: AJUNOK_clean_linker_0, # of connection points: 2
#     Edge 30, Type (0, 1), BuildingBlock: AJUNOK_clean_linker_0, # of connection points: 2
#     Edge 31, Type (0, 1), BuildingBlock: AJUNOK_clean_linker_0, # of connection points: 2
#     Edge 32, Type (0, 1), BuildingBlock: AJUNOK_clean_linker_0, # of connection points: 2
#     Edge 33, Type (0, 1), BuildingBlock: AJUNOK_clean_linker_0, # of connection points: 2
#     Edge 34, Type (0, 1), BuildingBlock: AJUNOK_clean_linker_0, # of connection points: 2
#     Edge 35, Type (0, 1), BuildingBlock: AJUNOK_clean_linker_0, # of connection points: 2
# Relax obj value: 0.233
# Max RMSD: 0.182
# Mean RMSD: 0.118
data_MOF--net-zzz--node1-KUMBUR_clean_sbu_0--node2-BETDIP_clean_linker_0--edge1-AJUNOK_clean_linker_0
_symmetry_space_group_name_H-M    P1
_symmetry_Int_Tables_number       1
_symmetry_cell_setting            triclinic
loop_
_symmetry_equiv_pos_as_xyz
'x, y, z'
_cell_length_a     36.795124
_cell_length_b     36.716462
_cell_length_c     10.923754
_cell_angle_alpha  91.592534
_cell_angle_beta   89.737684
_cell_angle_gamma 89.909787
loop_
_atom_site_label
_atom_site_type_symbol
_atom_site_fract_x
_atom_site_fract_y
_atom_site_fract_z
_atom_type_partial_charge
H0 H 0.79146 0.59552 0.37399 0.0
H1 H 0.75257 0.51594 0.10542 0.0
H2 H 0.85373 0.49867 0.28368 0.0
H3 H 0.74051 0.5855 1.00802 0.0
C4 C 0.72137 0.58262 0.08313 0.0
C5 C 0.79514 0.5701 0.32295 0.0
C6 C 0.8265 0.54764 0.34609 0.0
C7 C 0.76848 0.55911 0.23194 0.0
C8 C 0.77276 0.52528 0.17102 0.0
C9 C 0.80236 0.50295 0.19498 0.0
C10 C 0.82933 0.51505 0.27653 0.0
N11 N 0.73622 0.58003 0.20552 0.0
H12 H 0.04569 0.80541 0.39256 0.0
H13 H 0.96638 0.77455 0.12106 0.0
H14 H 0.96125 0.88021 0.29184 0.0
H15 H 0.97698 0.72056 0.16857 0.0
C16 C 1.00631 0.71996 0.16203 0.0
C17 C 1.02163 0.81151 0.34028 0.0
C18 C 1.00328 0.84609 0.36074 0.0
C19 C 1.00796 0.78462 0.25309 0.0
C20 C 0.9769 0.79378 0.18705 0.0
C21 C 0.96178 0.82866 0.19003 0.0
C22 C 0.97353 0.85354 0.2837 0.0
N23 N 1.0259 0.74995 0.22195 0.0
H24 H 0.77945 1.02527 0.53453 0.0
H25 H 0.80119 0.04883 0.15589 0.0
H26 H 0.69376 0.06245 0.29658 0.0
H27 H 0.83632 0.98171 0.2193 0.0
C28 C 0.851 1.00566 0.25248 0.0
C29 C 0.76984 0.03329 0.44575 0.0
C30 C 0.73208 0.04318 0.43035 0.0
C31 C 0.79505 0.03445 0.34385 0.0
C32 C 0.78237 0.04598 0.23182 0.0
C33 C 0.74662 0.0563 0.21689 0.0
C34 C 0.72158 0.05419 0.31309 0.0
N35 N 0.83344 1.02664 0.35001 0.0
H36 H 0.57054 0.8191 0.56516 0.0
H37 H 0.55493 0.80643 0.18077 0.0
H38 H 0.59871 0.71895 0.37785 0.0
H39 H 0.61445 0.86201 0.21537 0.0
C40 C 0.58961 0.87533 0.24718 0.0
C41 C 0.57646 0.80339 0.48254 0.0
C42 C 0.58123 0.76431 0.48705 0.0
C43 C 0.57348 0.81998 0.36418 0.0
C44 C 0.56713 0.79617 0.26308 0.0
C45 C 0.57031 0.75857 0.27802 0.0
C46 C 0.59148 0.74764 0.37607 0.0
N47 N 0.57029 0.85862 0.34626 0.0
H48 H 0.28472 0.55367 0.03284 0.0
H49 H 0.31151 0.47233 0.29839 0.0
H50 H 0.2119 0.46494 0.10365 0.0
H51 H 0.33057 0.52332 0.4025 0.0
C52 C 0.34989 0.53079 0.33199 0.0
C53 C 0.27824 0.52884 0.07928 0.0
C54 C 0.24491 0.50973 0.05045 0.0
C55 C 0.30298 0.51538 0.17035 0.0
C56 C 0.29379 0.4832 0.2294 0.0
C57 C 0.26018 0.46673 0.21275 0.0
C58 C 0.23758 0.47847 0.11784 0.0
N59 N 0.33616 0.53382 0.20822 0.0
H60 H 0.05375 0.2895 0.97118 0.0
H61 H 0.0571 0.31081 0.36261 0.0
H62 H 0.03488 0.2035 0.22707 0.0
H63 H 1.01129 0.35584 0.28982 0.0
C64 C 0.0353 0.36775 0.24889 0.0
C65 C 0.0527 0.27987 0.06385 0.0
C66 C 0.04693 0.24131 0.08444 0.0
C67 C 0.05496 0.30586 0.16656 0.0
C68 C 0.0545 0.29231 0.28395 0.0
C69 C 0.04543 0.25655 0.30424 0.0
C70 C 0.04249 0.2312 0.20683 0.0
N71 N 0.05519 0.34531 0.15886 0.0
H72 H 0.29455 0.06776 0.03084 0.0
H73 H 0.28113 0.09119 0.41907 0.0
H74 H 0.38251 0.05295 0.28572 0.0
H75 H 0.2379 0.04602 0.38725 0.0
C76 C 0.22309 0.06355 0.32619 0.0
C77 C 0.30583 0.07092 0.12183 0.0
C78 C 0.34409 0.06388 0.14113 0.0
C79 C 0.28213 0.07942 0.22509 0.0
C80 C 0.298 0.08417 0.34019 0.0
C81 C 0.33141 0.06881 0.36171 0.0
C82 C 0.35555 0.06271 0.26411 0.0
N83 N 0.24276 0.07803 0.22243 0.0
H84 H 0.48898 0.30028 0.0325 0.0
H85 H 0.57188 0.25199 0.25679 0.0
H86 H 0.5934 0.35103 0.0775 0.0
H87 H 0.54093 0.19789 0.11142 0.0
C88 C 0.52026 0.20457 0.17991 0.0
C89 C 0.51631 0.30049 0.06876 0.0
C90 C 0.54068 0.32951 0.03888 0.0
C91 C 0.52829 0.27109 0.14371 0.0
C92 C 0.56339 0.27233 0.19287 0.0
C93 C 0.58685 0.30079 0.16827 0.0
C94 C 0.57543 0.32845 0.09107 0.0
N95 N 0.50554 0.24094 0.17648 0.0
Tb96 Tb 0.06285 0.02756 0.85237 0.0
C97 C 0.94639 0.99189 0.5209 0.0
C98 C 0.97384 0.97398 0.32812 0.0
C99 C 0.91418 0.95128 0.379 0.0
C100 C 0.97449 0.99471 0.4386 0.0
C101 C 0.91621 0.96923 0.49306 0.0
C102 C 0.94297 0.95405 0.29705 0.0
C103 C 0.89289 0.982 0.69444 0.0
N104 N 0.95012 1.00868 0.63209 0.0
C105 C 0.9228 1.00444 0.71721 0.0
C106 C 0.88943 0.96439 0.58142 0.0
Tb107 Tb 0.99681 0.05169 0.64691 0.0
N108 N 1.00474 1.01276 0.47577 0.0
C109 C 0.03674 1.0045 0.41623 0.0
C110 C 1.0054 0.97063 0.25814 0.0
C111 C 0.03746 0.98426 0.3061 0.0
H112 H 0.921 1.02103 0.79841 0.0
H113 H 0.06299 0.97724 0.26226 0.0
H114 H 0.94188 0.93969 0.21131 0.0
H115 H 0.87172 0.97955 0.7629 0.0
H116 H 0.06242 1.00944 0.45887 0.0
H117 H 1.02217 0.11583 0.23564 0.0
H118 H 1.0062 0.95417 0.17461 0.0
H119 H 0.14752 1.00887 0.75429 0.0
H120 H 1.01689 0.06427 0.09174 0.0
H121 H 0.20852 0.03603 0.77051 0.0
H122 H 0.89104 0.9344 0.35461 0.0
H123 H 0.07747 0.15388 0.23599 0.0
H124 H 0.13995 0.1647 0.15403 0.0
H125 H 0.86599 0.94728 0.56315 0.0
H126 H 0.19128 0.14252 0.0276 0.0
N127 N 0.06634 0.0747 0.99666 0.0
C128 C 0.04003 0.08157 0.08337 0.0
C129 C 0.07448 0.13209 0.16798 0.0
C130 C 0.10247 0.12358 0.08534 0.0
C131 C 0.04334 0.11059 0.16828 0.0
C132 C 0.09759 0.09432 1.00018 0.0
H133 H 0.21743 0.09381 0.88796 0.0
N134 N 0.1213 0.05121 0.86014 0.0
C135 C 0.18562 0.04935 0.81538 0.0
C136 C 0.12629 0.08193 0.92966 0.0
C137 C 0.15096 0.03393 0.80741 0.0
C138 C 0.19048 0.08209 0.88088 0.0
C139 C 0.16083 0.09839 0.9413 0.0
O140 O 0.09963 0.98616 0.89585 0.0
O141 O 1.02241 1.00403 0.72454 0.0
O142 O 0.97282 0.05539 0.83481 0.0
O143 O 1.00923 1.01605 0.93915 0.0
O144 O 0.07449 0.98507 0.71135 0.0
O145 O 0.0556 0.9997 1.01656 0.0
O146 O 0.94417 0.07142 0.6705 0.0
O147 O 0.02702 0.07213 0.80627 0.0
O148 O 0.09178 0.05244 0.69624 0.0
O149 O 0.04881 0.06563 0.5472 0.0
O150 O 1.02278 0.10592 0.66294 0.0
O151 O 0.97476 0.08628 0.51379 0.0
C152 C 0.04222 0.97946 0.67113 0.0
C153 C 0.07155 0.93778 0.98782 0.0
C154 C 0.02812 0.88933 0.94269 0.0
C155 C 0.03743 0.92633 0.94487 0.0
C156 C 0.05458 0.86363 0.97612 0.0
C157 C 0.09738 0.91197 0.02173 0.0
C158 C 0.08901 0.87496 1.01435 0.0
C159 C 0.9781 0.03385 0.92846 0.0
C160 C 0.08124 0.97637 0.98996 0.0
C161 C 0.16511 0.12925 0.01862 0.0
C162 C 0.13591 0.14187 0.0906 0.0
C163 C 0.0355 0.10431 0.77245 0.0
C164 C 0.93802 0.13096 0.61949 0.0
C165 C 0.96227 0.15818 0.58885 0.0
C166 C 0.96255 0.19159 0.6536 0.0
C167 C 0.93625 0.199 0.74411 0.0
C168 C 0.91111 0.13867 0.70876 0.0
C169 C 0.9102 0.17263 0.77022 0.0
C170 C 0.08342 0.06398 0.58564 0.0
C171 C 0.9458 0.0931 0.58035 0.0
H172 H 1.01754 0.94626 0.91781 0.0
H173 H 0.04814 0.83491 0.9798 0.0
H174 H 0.12402 0.92046 0.05323 0.0
H175 H 0.1089 0.85504 0.04167 0.0
H176 H 0.98215 0.15284 0.51692 0.0
H177 H 0.9358 0.22498 0.79354 0.0
H178 H 0.892 0.11785 0.73516 0.0
H179 H 0.88987 0.17813 0.84025 0.0
Tb180 Tb 0.54364 0.08303 0.86173 0.0
C181 C 0.58314 0.95158 0.59401 0.0
C182 C 0.62404 0.97422 0.43967 0.0
C183 C 0.6333 0.91376 0.51781 0.0
C184 C 0.59377 0.97925 0.51875 0.0
C185 C 0.60238 0.91821 0.59227 0.0
C186 C 0.64412 0.94174 0.44167 0.0
C187 C 0.55552 0.8933 0.71943 0.0
N188 N 0.55224 0.95615 0.66104 0.0
C189 C 0.53671 0.92626 0.71411 0.0
C190 C 0.58913 0.88967 0.66134 0.0
Tb191 Tb 0.52438 1.01281 0.65196 0.0
N192 N 0.57384 1.01052 0.51959 0.0
C193 C 0.58231 0.03688 0.43781 0.0
C194 C 0.63325 1.00189 0.36034 0.0
C195 C 0.61194 0.03309 0.35811 0.0
H196 H 0.51022 0.92843 0.75724 0.0
H197 H 0.61844 0.05449 0.29542 0.0
H198 H 0.66783 0.93781 0.38364 0.0
H199 H 0.54391 0.87064 0.76733 0.0
H200 H 0.56662 0.06108 0.43092 0.0
H201 H 0.5203 0.02923 0.31924 0.0
H202 H 0.6566 0.99936 0.30015 0.0
H203 H 0.49354 0.14392 0.70941 0.0
H204 H 0.55903 0.04658 0.1496 0.0
H205 H 0.44052 0.18162 0.74265 0.0
H206 H 0.64848 0.88844 0.51605 0.0
H207 H 0.46126 0.05942 0.35266 0.0
H208 H 0.41878 0.10855 0.29362 0.0
H209 H 0.60389 0.86421 0.6657 0.0
H210 H 0.3988 0.15236 0.14242 0.0
N211 N 0.51665 0.07508 0.05481 0.0
C212 C 0.5313 0.05618 0.15024 0.0
C213 C 0.47688 0.06459 0.27072 0.0
C214 C 0.46493 0.08944 0.18601 0.0
C215 C 0.51034 0.0479 0.25269 0.0
C216 C 0.48503 0.0934 0.07638 0.0
H217 H 0.4066 0.1796 0.93763 0.0
N218 N 0.49033 0.11661 0.87976 0.0
C219 C 0.44891 0.1631 0.81258 0.0
C220 C 0.47277 0.11654 0.98914 0.0
C221 C 0.47899 0.1404 0.79289 0.0
C222 C 0.43013 0.16222 0.92294 0.0
C223 C 0.44182 0.13872 1.01278 0.0
O224 O 0.55593 0.13696 0.81968 0.0
O225 O 0.5667 0.05125 0.70649 0.0
O226 O 0.53443 0.98711 0.82965 0.0
O227 O 0.56128 0.03211 0.94978 0.0
O228 O 0.59908 0.05966 0.85478 0.0
O229 O 0.57556 0.11447 0.98485 0.0
O230 O 0.50879 0.9706 0.52748 0.0
O231 O 0.49867 0.05293 0.77918 0.0
O232 O 0.54477 0.10615 0.67662 0.0
O233 O 0.51387 0.06422 0.55376 0.0
O234 O 0.482 0.99977 0.78676 0.0
O235 O 0.47759 1.01923 0.54543 0.0
C236 C 0.59887 0.04481 0.74611 0.0
C237 C 0.61546 0.15097 0.86795 0.0
C238 C 0.6792 0.13442 0.85523 0.0
C239 C 0.64511 0.13163 0.9107 0.0
C240 C 0.68457 0.1586 0.76002 0.0
C241 C 0.62075 0.17533 0.77212 0.0
C242 C 0.65524 0.17922 0.71905 0.0
C243 C 0.5514 0.9978 0.93011 0.0
C244 C 0.57866 0.14099 0.90851 0.0
C245 C 0.42269 0.13584 0.12331 0.0
C246 C 0.43379 0.11062 0.20861 0.0
C247 C 0.47558 0.0321 0.83108 0.0
C248 C 0.44546 0.96405 0.54742 0.0
C249 C 0.41279 0.98255 0.56385 0.0
C250 C 0.38317 0.96659 0.62287 0.0
C251 C 0.38572 0.93057 0.66071 0.0
C252 C 0.44787 0.92768 0.58421 0.0
C253 C 0.4181 0.91114 0.64082 0.0
C254 C 0.52663 0.09763 0.57533 0.0
C255 C 0.47746 0.98524 0.50959 0.0
H256 H 0.64159 0.11319 0.98578 0.0
H257 H 0.71108 0.16136 0.71784 0.0
H258 H 0.59805 0.19036 0.73577 0.0
H259 H 0.65904 0.1977 0.64461 0.0
H260 H 0.41044 1.00999 0.53023 0.0
H261 H 0.36263 0.9174 0.70238 0.0
H262 H 0.47276 0.91229 0.57145 0.0
H263 H 0.42018 0.88322 0.66939 0.0
Tb264 Tb 0.56497 0.53571 0.63027 0.0
C265 C 0.42889 0.51136 0.93152 0.0
C266 C 0.37818 0.52864 0.80466 0.0
C267 C 0.36903 0.48559 0.96677 0.0
C268 C 0.41548 0.53055 0.83404 0.0
C269 C 0.40552 0.48963 1.0015 0.0
C270 C 0.35534 0.50515 0.86882 0.0
C271 C 0.45491 0.48072 0.14271 0.0
N272 N 0.46436 0.51592 0.96266 0.0
C273 C 0.47724 0.50201 0.06953 0.0
C274 C 0.41907 0.47396 0.10741 0.0
Tb275 Tb 0.49663 0.55607 0.84716 0.0
N276 N 0.43821 0.55343 0.77504 0.0
C277 C 0.42422 0.57812 0.69609 0.0
C278 C 0.36456 0.55169 0.71588 0.0
C279 C 0.38754 0.57712 0.66344 0.0
H280 H 0.50491 0.5071 0.09751 0.0
H281 H 0.37706 0.59602 0.59793 0.0
H282 H 0.32675 0.50296 0.84638 0.0
H283 H 0.46536 0.46953 0.2262 0.0
H284 H 0.4416 0.59836 0.65626 0.0
H285 H 0.67749 0.48108 0.88608 0.0
H286 H 0.3361 0.55105 0.69078 0.0
H287 H 0.56249 0.59612 0.40694 0.0
H288 H 0.61353 0.48918 0.83392 0.0
H289 H 0.6059 0.63335 0.29355 0.0
H290 H 0.35086 0.46842 0.01786 0.0
H291 H 0.72501 0.51616 0.78082 0.0
H292 H 0.74126 0.56203 0.62347 0.0
H293 H 0.40179 0.45758 0.16455 0.0
H294 H 0.72172 0.60414 0.46521 0.0
N295 N 0.62354 0.52895 0.69846 0.0
C296 C 0.63349 0.50462 0.78524 0.0
C297 C 0.69674 0.5198 0.75654 0.0
C298 C 0.68665 0.54417 0.66658 0.0
C299 C 0.67001 0.49995 0.81603 0.0
C300 C 0.64942 0.54804 0.63891 0.0
H301 H 0.67136 0.63118 0.34261 0.0
N302 N 0.60256 0.57383 0.52456 0.0
C303 C 0.61542 0.61628 0.366 0.0
C304 C 0.63852 0.57158 0.54989 0.0
C305 C 0.59088 0.59496 0.4307 0.0
C306 C 0.65233 0.61503 0.39407 0.0
C307 C 0.66439 0.59213 0.48578 0.0
O308 O 0.56068 0.51704 0.44705 0.0
O309 O 0.50624 0.53353 0.66469 0.0
O310 O 0.49784 0.49563 0.83383 0.0
O311 O 0.55516 0.48786 0.74936 0.0
O312 O 0.52311 0.55236 0.50029 0.0
O313 O 0.58627 0.48385 0.58695 0.0
O314 O 0.48907 0.57617 0.02501 0.0
O315 O 0.55424 0.55736 0.81 0.0
O316 O 0.56811 0.59525 0.66458 0.0
O317 O 0.50887 0.60523 0.73231 0.0
O318 O 0.54112 0.55387 0.98632 0.0
O319 O 0.46888 0.60634 0.86834 0.0
C320 C 0.49467 0.54485 0.56261 0.0
C321 C 0.58425 0.45799 0.38085 0.0
C322 C 0.62507 0.41032 0.30446 0.0
C323 C 0.61171 0.43237 0.40143 0.0
C324 C 0.61257 0.41691 0.18484 0.0
C325 C 0.56848 0.46004 0.2646 0.0
C326 C 0.58358 0.44051 0.16609 0.0
C327 C 0.52639 0.47463 0.80799 0.0
C328 C 0.57705 0.48674 0.47273 0.0
C329 C 0.70144 0.58864 0.51352 0.0
C330 C 0.71256 0.56464 0.60356 0.0
C331 C 0.56882 0.55575 0.91485 0.0
C332 C 0.45299 0.62934 0.0714 0.0
C333 C 0.46531 0.6298 0.1915 0.0
C334 C 0.46357 0.66195 0.26194 0.0
C335 C 0.44098 0.69041 0.22048 0.0
C336 C 0.43 0.65693 0.03141 0.0
C337 C 0.42285 0.6869 0.10871 0.0
C338 C 0.54009 0.61754 0.68486 0.0
C339 C 0.46872 0.60258 0.98649 0.0
H340 H 0.6226 0.42937 0.49266 0.0
H341 H 0.62342 0.40227 0.10575 0.0
H342 H 0.54682 0.47924 0.24772 0.0
H343 H 0.57313 0.44404 0.07481 0.0
H344 H 0.48338 0.60837 0.22009 0.0
H345 H 0.43956 0.71661 0.2676 0.0
H346 H 0.41921 0.6562 0.93925 0.0
H347 H 0.40612 0.70899 0.07713 0.0
Tb348 Tb 0.05139 0.58118 0.59785 0.0
C349 C 0.0581 0.43477 0.83501 0.0
C350 C 0.03047 0.39193 0.69152 0.0
C351 C 0.07365 0.3703 0.83994 0.0
C352 C 0.03523 0.42798 0.73781 0.0
C353 C 0.07618 0.4057 0.89097 0.0
C354 C 0.0508 0.36342 0.74007 0.0
C355 C 0.09024 0.4466 0.05994 0.0
N356 N 0.05807 0.46884 0.88636 0.0
C357 C 0.07301 0.47479 0.99978 0.0
C358 C 0.09308 0.41229 1.00337 0.0
Tb359 Tb 1.0231 0.51208 0.79463 0.0
N360 N 1.015 0.45603 0.6968 0.0
C361 C 0.98764 0.44888 0.61478 0.0
C362 C 1.00417 0.38528 0.60206 0.0
C363 C 0.9823 0.41382 0.56492 0.0
H364 H 0.07033 0.50111 0.04546 0.0
H365 H 0.96128 0.4089 0.49748 0.0
H366 H 0.04779 0.33572 0.70472 0.0
H367 H 0.09974 0.45086 0.15221 0.0
H368 H 0.97036 0.47001 0.58252 0.0
H369 H 0.1045 0.69494 0.86734 0.0
H370 H 0.99983 0.35809 0.56387 0.0
H371 H 1.00078 0.58061 0.34212 0.0
H372 H 0.10027 0.63124 0.79766 0.0
H373 H 0.96253 0.6234 0.23275 0.0
H374 H 0.08765 0.34777 0.88115 0.0
H375 H 0.06479 0.74143 0.77721 0.0
H376 H 1.01894 0.75705 0.61749 0.0
H377 H 0.1059 0.39037 0.05125 0.0
H378 H 0.97816 0.73709 0.45124 0.0
N379 N 0.05694 0.63996 0.67329 0.0
C380 C 0.0824 0.65061 0.75765 0.0
C381 C 0.0626 0.71319 0.7466 0.0
C382 C 0.03845 0.70272 0.65386 0.0
C383 C 0.08504 0.68705 0.79752 0.0
C384 C 0.03649 0.66553 0.61808 0.0
H385 H 0.95497 0.68642 0.31321 0.0
N386 N 1.01624 0.61926 0.48295 0.0
C387 C 0.97725 0.63257 0.31342 0.0
C388 C 1.01513 0.65473 0.52042 0.0
C389 C 0.99907 0.60835 0.37643 0.0
C390 C 0.97364 0.66834 0.35754 0.0
C391 C 0.9939 0.6803 0.45866 0.0
O392 O 0.07306 0.59534 0.42833 0.0
O393 O 0.04802 0.52202 0.61903 0.0
O394 O 0.08354 0.51071 0.79179 0.0
O395 O 0.09557 0.57002 0.73556 0.0
O396 O 0.03855 0.54086 0.45083 0.0
O397 O 0.10837 0.58358 0.57801 0.0
O398 O 1.00274 0.5009 0.97071 0.0
O399 O 0.02651 0.57084 0.77219 0.0
O400 O 0.99058 0.58476 0.60337 0.0
O401 O 0.97772 0.52705 0.67029 0.0
O402 O 0.0356 0.55321 0.94251 0.0
O403 O 0.96707 0.50375 0.81599 0.0
C404 C 0.04062 0.51146 0.50988 0.0
C405 C 0.12282 0.55871 0.38153 0.0
C406 C 0.15043 0.49861 0.35026 0.0
C407 C 0.1381 0.5269 0.42952 0.0
C408 C 0.14591 0.5024 0.22324 0.0
C409 C 0.11945 0.56179 0.25479 0.0
C410 C 0.13003 0.53337 0.17677 0.0
C411 C 0.10617 0.53885 0.78556 0.0
C412 C 0.10583 0.58694 0.46024 0.0
C413 C 0.99431 0.71703 0.49757 0.0
C414 C 1.01718 0.72834 0.59327 0.0
C415 C 0.03409 0.58229 0.87997 0.0
C416 C 0.95403 0.45846 0.95528 0.0
C417 C 0.91629 0.45574 0.95467 0.0
C418 C 0.8989 0.42223 0.97373 0.0
C419 C 0.92008 0.3908 0.98791 0.0
C420 C 0.97481 0.42711 0.97486 0.0
C421 C 0.95797 0.39337 0.98868 0.0
C422 C 0.9672 0.55759 0.61776 0.0
C423 C 0.97042 0.49399 0.92872 0.0
H424 H 0.14098 0.52431 0.52756 0.0
H425 H 0.1556 0.48196 0.15817 0.0
H426 H 0.10749 0.58583 0.21657 0.0
H427 H 0.12592 0.5354 0.07983 0.0
H428 H 0.90044 0.48043 0.94515 0.0
H429 H 0.90738 0.36476 1.00363 0.0
H430 H 1.00385 0.42864 0.98272 0.0
H431 H 0.97433 0.36937 1.00359 0.0
C432 C 0.18192 0.08807 0.49556 0.0
C433 C 0.18594 0.07459 0.37384 0.0
C434 C 0.14794 0.08794 0.55786 0.0
C435 C 0.11593 0.07369 0.50344 0.0
H436 H 0.20578 0.09682 0.54605 0.0
H437 H 0.14719 0.09749 0.65239 0.0
S438 S 0.11321 0.03301 0.18959 0.0
N439 N 0.1559 0.04508 0.20455 0.0
N440 N 0.09179 0.04799 0.31375 0.0
C441 C 0.11952 0.06259 0.37848 0.0
C442 C 0.15445 0.06194 0.31638 0.0
C443 C 0.48937 0.16797 0.34847 0.0
C444 C 0.52108 0.18108 0.29148 0.0
C445 C 0.49103 0.1406 0.43838 0.0
C446 C 0.52451 0.12599 0.47749 0.0
H447 H 0.46307 0.17781 0.32006 0.0
H448 H 0.46591 0.13081 0.47755 0.0
S449 S 0.6155 0.15416 0.36705 0.0
N450 N 0.58693 0.17832 0.28605 0.0
N451 N 0.58998 0.12978 0.45835 0.0
C452 C 0.55621 0.14058 0.42576 0.0
C453 C 0.55452 0.16722 0.33208 0.0
C454 C 0.41327 0.55931 0.34755 0.0
C455 C 0.38924 0.53068 0.37279 0.0
C456 C 0.447 0.56297 0.40957 0.0
C457 C 0.45872 0.53822 0.49824 0.0
H458 H 0.40508 0.58025 0.28543 0.0
H459 H 0.4634 0.58669 0.39414 0.0
S460 S 0.40751 0.45643 0.58961 0.0
N461 N 0.38063 0.47594 0.48974 0.0
N462 N 0.44428 0.48211 0.59937 0.0
C463 C 0.43582 0.50841 0.51932 0.0
C464 C 0.40116 0.50499 0.45853 0.0
C465 C 1.01955 0.43429 0.27516 0.0
C466 C 0.0441 0.40586 0.29863 0.0
C467 C 1.01973 0.46785 0.34218 0.0
C468 C 0.04323 0.47463 0.44217 0.0
H469 H 0.99853 0.42995 0.20786 0.0
H470 H 0.99979 0.48823 0.31885 0.0
S471 S 0.11329 0.40962 0.54621 0.0
N472 N 0.09272 0.38704 0.43311 0.0
N473 N 0.09385 0.45025 0.5561 0.0
C474 C 0.0688 0.44694 0.46568 0.0
C475 C 0.06872 0.41256 0.39618 0.0
C476 C 0.89823 0.9888 0.09361 0.0
C477 C 0.8848 1.01531 0.17874 0.0
C478 C 0.92909 0.9947 0.01947 0.0
C479 C 0.94748 0.02821 0.02006 0.0
H480 H 0.88495 0.96253 0.08514 0.0
H481 H 0.93747 0.97331 0.95544 0.0
S482 S 0.92132 0.10929 0.21254 0.0
N483 N 0.89191 0.07781 0.25364 0.0
N484 N 0.94779 0.08991 0.10666 0.0
C485 C 0.93354 0.05586 0.10035 0.0
C486 C 0.90281 0.04927 0.18084 0.0
C487 C 0.54259 0.91784 0.15261 0.0
C488 C 0.57892 0.90967 0.18208 0.0
C489 C 0.53389 0.94634 0.07207 0.0
C490 C 0.56078 0.96923 0.02221 0.0
H491 H 0.52089 0.90083 0.18604 0.0
H492 H 0.50588 0.94994 0.04682 0.0
S493 S 0.65995 0.95843 0.06513 0.0
N494 N 0.64205 0.92568 0.14661 0.0
N495 N 0.62533 0.98082 1.00761 0.0
C496 C 0.59696 0.96187 0.05367 0.0
C497 C 0.60601 0.93185 0.13021 0.0
C498 C 0.66793 0.59354 0.93886 0.0
C499 C 0.68142 0.5789 0.0485 0.0
C500 C 0.63173 0.58714 0.8974 0.0
C501 C 0.6075 0.56415 0.95982 0.0
H502 H 0.68566 0.60999 0.88361 0.0
H503 H 0.623 0.59989 0.81457 0.0
S504 S 0.62905 0.52161 0.2555 0.0
N505 N 0.66693 0.54255 0.22112 0.0
N506 N 0.5999 0.52971 0.14482 0.0
C507 C 0.62051 0.55073 0.07208 0.0
C508 C 0.65707 0.55794 0.11504 0.0
C509 C 0.04748 0.66466 0.10708 0.0
C510 C 1.01983 0.68937 0.07601 0.0
C511 C 0.05253 0.63097 0.04054 0.0
C512 C 0.03056 0.62028 0.93922 0.0
H513 H 0.06392 0.67028 0.18735 0.0
H514 H 0.07353 0.61265 0.06993 0.0
S515 S 0.95423 0.67493 0.8206 0.0
N516 N 0.97037 0.70031 0.93502 0.0
N517 N 0.97973 0.63789 0.81385 0.0
C518 C 1.00341 0.6451 0.90633 0.0
C519 C 0.99823 0.6792 0.9734 0.0
C520 C 0.0448 0.22107 0.49397 0.0
C521 C 0.02982 0.2484 0.42346 0.0
C522 C 1.02479 0.20692 0.59018 0.0
C523 C 0.9889 0.21876 0.61397 0.0
H524 H 0.07055 0.2086 0.4683 0.0
H525 H 0.03509 0.18281 0.6325 0.0
S526 S 0.94123 0.29511 0.46996 0.0
N527 N 0.98045 0.2916 0.39661 0.0
N528 N 0.94226 0.26376 0.57536 0.0
C529 C 0.97597 0.24953 0.55538 0.0
C530 C 0.9965 0.26436 0.45878 0.0
C531 C 0.34431 0.05156 0.5781 0.0
C532 C 0.33174 0.04252 0.46039 0.0
C533 C 0.35099 1.02372 0.6607 0.0
C534 C 0.34877 0.9869 0.62092 0.0
H535 H 0.35171 0.07936 0.60243 0.0
H536 H 0.36542 0.03049 0.74385 0.0
S537 S 0.30107 0.95173 0.34616 0.0
N538 N 0.30405 0.9961 0.32755 0.0
N539 N 0.31926 0.94419 0.48107 0.0
C540 C 0.32764 0.9788 0.51798 0.0
C541 C 0.32001 1.00668 0.43476 0.0
C542 C 0.61169 0.31858 0.36658 0.0
C543 C 0.61937 0.30746 0.245 0.0
C544 C 0.62401 0.3526 0.40989 0.0
C545 C 0.64337 0.37516 0.33007 0.0
H546 H 0.58989 0.30577 0.41665 0.0
H547 H 0.61092 0.364 0.49114 0.0
S548 S 0.69279 0.34377 0.05226 0.0
N549 N 0.66405 0.3105 0.08148 0.0
N550 N 0.68785 0.37433 0.16516 0.0
C551 C 0.66264 0.3574 0.23458 0.0
C552 C 0.64998 0.32296 0.18984 0.0
C553 C 0.24035 0.46909 0.42468 0.0
C554 C 0.2437 0.44713 0.31711 0.0
C555 C 0.20577 0.48152 0.46069 0.0
C556 C 0.17511 0.46966 0.3941 0.0
H557 H 0.26356 0.48408 0.45997 0.0
H558 H 0.20425 0.50515 0.52212 0.0
S559 S 0.17236 0.38716 0.19136 0.0
N560 N 0.21606 0.39591 0.20918 0.0
N561 N 0.15044 0.41827 0.27544 0.0
C562 C 0.17881 0.43665 0.32608 0.0
C563 C 0.21412 0.42442 0.29074 0.0
C564 C 0.93633 0.87829 0.07012 0.0
C565 C 0.94078 0.84061 0.07816 0.0
C566 C 0.96371 0.89759 1.00883 0.0
C567 C 0.9894 0.87829 0.93566 0.0
H568 H 0.91806 0.89204 0.13357 0.0
H569 H 0.96757 0.92599 0.03108 0.0
S570 S 0.97155 0.78595 0.80774 0.0
N571 N 0.9433 0.79057 0.92537 0.0
N572 N 0.99514 0.82422 0.80251 0.0
C573 C 0.97953 0.84291 0.89789 0.0
C574 C 0.95219 0.82472 0.96507 0.0
C575 C 0.71622 0.05606 1.01499 0.0
C576 C 0.73694 0.07431 0.10424 0.0
C577 C 0.70249 0.07505 0.91649 0.0
C578 C 0.70842 0.11276 0.90717 0.0
H579 H 0.70881 0.02777 0.02547 0.0
H580 H 0.6833 0.06137 0.85688 0.0
S581 S 0.7665 0.17058 0.10734 0.0
N582 N 0.7678 0.12997 0.1686 0.0
N583 N 0.74068 0.16608 0.98453 0.0
C584 C 0.73259 0.13003 0.98817 0.0
C585 C 0.74689 0.11068 0.08774 0.0
C586 C 0.54382 0.69972 0.22536 0.0
C587 C 0.53733 0.73567 0.26933 0.0
C588 C 0.52704 0.66849 0.27214 0.0
C589 C 0.49503 0.66962 0.34432 0.0
H590 H 0.5664 0.695 0.16265 0.0
H591 H 0.53561 0.64271 0.23071 0.0
S592 S 0.49102 0.77595 0.63494 0.0
N593 N 0.51014 0.77644 0.45663 0.0
N594 N 0.47544 0.72082 0.63776 0.0
C595 C 0.49302 0.7006 0.42228 0.0
C596 C 0.51118 0.74084 0.36343 0.0
C597 C 0.81244 0.46957 0.99749 0.0
C598 C 0.80859 0.46838 0.12527 0.0
C599 C 0.8373 0.44644 0.93659 0.0
C600 C 0.85969 0.42317 1.00387 0.0
H601 H 0.8008 0.49184 0.94765 0.0
H602 H 0.84393 0.45189 0.84207 0.0
S603 S 0.84683 0.3992 0.32827 0.0
N604 N 0.81797 0.43289 0.30676 0.0
N605 N 0.86669 0.39116 0.19436 0.0
C606 C 0.84932 0.41575 0.12449 0.0
C607 C 0.82322 0.43842 0.18541 0.0
C608 C 1.01213 0.18622 0.99337 0.0
C609 C 0.0425 0.21012 0.98752 0.0
C610 C 1.01035 0.15229 0.92686 0.0
C611 C 0.03911 0.13944 0.85122 0.0
H612 H 0.98957 0.19343 0.05334 0.0
H613 H 0.98614 0.13582 0.93543 0.0
S614 S 0.12377 0.19147 0.7924 0.0
N615 N 0.10141 0.21805 0.8916 0.0
N616 N 0.09784 0.15537 0.76651 0.0
C617 C 0.06892 0.16358 0.83977 0.0
C618 C 0.07073 0.19826 0.9076 0.0
C619 C 0.38285 0.07498 0.94527 0.0
C620 C 0.3726 0.05258 0.04332 0.0
C621 C 0.41542 0.06844 0.87485 0.0
C622 C 0.44042 0.04042 0.90298 0.0
H623 H 0.36642 0.09855 0.92547 0.0
H624 H 0.42135 0.08599 0.79945 0.0
S625 S 0.42276 0.96911 0.13044 0.0
N626 N 0.38738 0.99652 0.14532 0.0
N627 N 0.44841 0.98663 0.02282 0.0
C628 C 0.42872 1.01638 0.99346 0.0
C629 C 0.3953 1.02199 0.06121 0.0
C630 C 0.50186 0.38539 0.97906 0.0
C631 C 0.53246 0.36255 0.95962 0.0
C632 C 0.49909 0.42031 0.92492 0.0
C633 C 0.52728 0.43516 0.85215 0.0
H634 H 0.4805 0.37696 0.04055 0.0
H635 H 0.47479 0.43607 0.94281 0.0
S636 S 0.61089 0.38434 0.75761 0.0
N637 N 0.58903 0.35578 0.84539 0.0
N638 N 0.58519 0.42111 0.75403 0.0
C639 C 0.55689 0.41153 0.82648 0.0
C640 C 0.5591 0.37568 0.87751 0.0
C641 C 0.19584 0.49391 0.89133 0.0
C642 C 0.21463 0.52116 0.96112 0.0
C643 C 0.162 0.50023 0.8334 0.0
C644 C 0.14483 0.53466 0.83668 0.0
H645 H 0.20656 0.46642 0.88637 0.0
H646 H 0.14874 0.47741 0.78727 0.0
S647 S 0.18227 0.6168 0.99872 0.0
N648 N 0.21279 0.58494 0.02526 0.0
N649 N 0.15094 0.59731 0.9112 0.0
C650 C 0.16439 0.56301 0.89814 0.0
C651 C 0.19857 0.55623 0.961 0.0
C652 C 0.98955 0.8946 0.53227 0.0
C653 C 1.01511 0.87682 0.45229 0.0
C654 C 0.99805 0.9266 0.60461 0.0
C655 C 0.03229 0.94395 0.59831 0.0
H656 H 0.96225 0.88382 0.53815 0.0
H657 H 0.9774 0.93792 0.66535 0.0
S658 S 0.1098 0.90885 0.40763 0.0
N659 N 0.07695 0.87946 0.37666 0.0
N660 N 0.09276 0.93858 0.50868 0.0
C661 C 0.05847 0.9256 0.52244 0.0
C662 C 0.04993 0.89285 0.45011 0.0
C663 C 0.67791 0.07455 0.53688 0.0
C664 C 0.70224 0.04445 0.52969 0.0
C665 C 0.64533 0.07425 0.60674 0.0
C666 C 0.63415 0.04363 0.67164 0.0
H667 H 0.68375 0.09865 0.48538 0.0
H668 H 0.62863 0.09841 0.61064 0.0
S669 S 0.69142 0.96132 0.71262 0.0
N670 N 0.715 0.98534 0.61413 0.0
N671 N 0.65427 0.98515 0.74509 0.0
C672 C 0.65971 1.01475 0.67581 0.0
C673 C 0.69327 1.01501 0.6048 0.0
C674 C 0.58648 0.71215 0.6291 0.0
C675 C 0.56261 0.73744 0.57327 0.0
C676 C 0.57831 0.67563 0.66459 0.0
C677 C 0.54446 0.65745 0.65173 0.0
H678 H 0.61474 0.72009 0.63773 0.0
H679 H 0.60067 0.66029 0.70178 0.0
S680 S 0.43371 0.69415 0.51149 0.0
N681 N 0.46265 0.74288 0.48486 0.0
N682 N 0.47525 0.66318 0.58075 0.0
C683 C 0.5165 0.67794 0.60267 0.0
C684 C 0.52531 0.72426 0.56138 0.0
C685 C 0.87338 0.5249 0.49855 0.0
C686 C 0.85772 0.55482 0.43801 0.0
C687 C 0.90733 0.52682 0.55856 0.0
C688 C 0.92831 0.559 0.56552 0.0
H689 H 0.85982 0.49872 0.49555 0.0
H690 H 0.91739 0.5021 0.59781 0.0
S691 S 0.89356 0.64902 0.46776 0.0
N692 N 0.8625 0.62013 0.41593 0.0
N693 N 0.92476 0.6244 0.53637 0.0
C694 C 0.91084 0.59047 0.52024 0.0
C695 C 0.87616 0.58828 0.45577 0.0
loop_
_geom_bond_atom_site_label_1
_geom_bond_atom_site_label_2
_geom_bond_distance
_geom_bond_site_symmetry_2
_ccdc_geom_bond_type
H0 C5 0.930 . S
H1 C8 0.930 . S
H2 C10 0.930 . S
H3 C4 1.016 . S
C4 H3 1.016 . S
C4 N11 1.286 . S
C5 H0 0.930 . S
C5 C6 1.397 . S
C5 C7 1.361 . S
C6 C5 1.397 . S
C6 C10 1.390 . S
C7 C5 1.361 . S
C7 C8 1.393 . S
C7 N11 1.413 . S
C8 H1 0.930 . S
C8 C7 1.393 . S
C8 C9 1.399 . S
C9 C8 1.399 . S
C9 C10 1.381 . S
C10 H2 0.930 . S
C10 C6 1.390 . S
C10 C9 1.381 . S
N11 C4 1.286 . S
N11 C7 1.413 . S
H12 C17 0.930 . S
H13 C20 0.930 . S
H14 C22 0.930 . S
H15 C16 1.016 . S
C16 H15 1.016 . S
C16 N23 1.286 . S
C17 H12 0.930 . S
C17 C18 1.397 . S
C17 C19 1.361 . S
C18 C17 1.397 . S
C18 C22 1.390 . S
C19 C17 1.361 . S
C19 C20 1.393 . S
C19 N23 1.413 . S
C20 H13 0.930 . S
C20 C19 1.393 . S
C20 C21 1.399 . S
C21 C20 1.399 . S
C21 C22 1.381 . S
C22 H14 0.930 . S
C22 C18 1.390 . S
C22 C21 1.381 . S
N23 C16 1.286 . S
N23 C19 1.413 . S
H24 C29 0.930 . S
H25 C32 0.930 . S
H26 C34 0.930 . S
H27 C28 1.016 . S
C28 H27 1.016 . S
C28 N35 1.286 . S
C29 H24 0.930 . S
C29 C30 1.397 . S
C29 C31 1.361 . S
C30 C29 1.397 . S
C30 C34 1.390 . S
C31 C29 1.361 . S
C31 C32 1.393 . S
C31 N35 1.413 . S
C32 H25 0.930 . S
C32 C31 1.393 . S
C32 C33 1.399 . S
C33 C32 1.399 . S
C33 C34 1.381 . S
C34 H26 0.930 . S
C34 C30 1.390 . S
C34 C33 1.381 . S
N35 C28 1.286 . S
N35 C31 1.413 . S
H36 C41 0.930 . S
H37 C44 0.930 . S
H38 C46 0.930 . S
H39 C40 1.016 . S
C40 H39 1.016 . S
C40 N47 1.286 . S
C41 H36 0.930 . S
C41 C42 1.397 . S
C41 C43 1.361 . S
C42 C41 1.397 . S
C42 C46 1.390 . S
C43 C41 1.361 . S
C43 C44 1.393 . S
C43 N47 1.413 . S
C44 H37 0.930 . S
C44 C43 1.393 . S
C44 C45 1.399 . S
C45 C44 1.399 . S
C45 C46 1.381 . S
C46 H38 0.930 . S
C46 C42 1.390 . S
C46 C45 1.381 . S
N47 C40 1.286 . S
N47 C43 1.413 . S
H48 C53 0.930 . S
H49 C56 0.930 . S
H50 C58 0.930 . S
H51 C52 1.016 . S
C52 H51 1.016 . S
C52 N59 1.286 . S
C53 H48 0.930 . S
C53 C54 1.397 . S
C53 C55 1.361 1_556 S
C54 C53 1.397 . S
C54 C58 1.390 . S
C55 C53 1.361 1_554 S
C55 C56 1.393 . S
C55 N59 1.413 . S
C56 H49 0.930 . S
C56 C55 1.393 . S
C56 C57 1.399 . S
C57 C56 1.399 . S
C57 C58 1.381 1_554 S
C58 H50 0.930 . S
C58 C54 1.390 . S
C58 C57 1.381 1_556 S
N59 C52 1.286 . S
N59 C55 1.413 . S
H60 C65 0.930 . S
H61 C68 0.930 . S
H62 C70 0.930 . S
H63 C64 1.016 . S
C64 H63 1.016 . S
C64 N71 1.286 . S
C65 H60 0.930 . S
C65 C66 1.397 . S
C65 C67 1.361 1_556 S
C66 C65 1.397 . S
C66 C70 1.390 . S
C67 C65 1.361 1_554 S
C67 C68 1.393 . S
C67 N71 1.413 . S
C68 H61 0.930 . S
C68 C67 1.393 . S
C68 C69 1.399 . S
C69 C68 1.399 . S
C69 C70 1.381 1_554 S
C70 H62 0.930 . S
C70 C66 1.390 . S
C70 C69 1.381 1_556 S
N71 C64 1.286 . S
N71 C67 1.413 . S
H72 C77 0.930 . S
H73 C80 0.930 . S
H74 C82 0.930 . S
H75 C76 1.016 . S
C76 H75 1.016 . S
C76 N83 1.286 . S
C77 H72 0.930 . S
C77 C78 1.397 . S
C77 C79 1.361 1_556 S
C78 C77 1.397 . S
C78 C82 1.390 . S
C79 C77 1.361 1_554 S
C79 C80 1.393 . S
C79 N83 1.413 . S
C80 H73 0.930 . S
C80 C79 1.393 . S
C80 C81 1.399 . S
C81 C80 1.399 . S
C81 C82 1.381 1_554 S
C82 H74 0.930 . S
C82 C78 1.390 . S
C82 C81 1.381 1_556 S
N83 C76 1.286 . S
N83 C79 1.413 . S
H84 C89 0.930 . S
H85 C92 0.930 . S
H86 C94 0.930 . S
H87 C88 1.016 . S
C88 H87 1.016 . S
C88 N95 1.286 . S
C89 H84 0.930 . S
C89 C90 1.397 . S
C89 C91 1.361 1_556 S
C90 C89 1.397 . S
C90 C94 1.390 . S
C91 C89 1.361 1_554 S
C91 C92 1.393 . S
C91 N95 1.413 . S
C92 H85 0.930 . S
C92 C91 1.393 . S
C92 C93 1.399 . S
C93 C92 1.399 . S
C93 C94 1.381 1_554 S
C94 H86 0.930 . S
C94 C90 1.390 . S
C94 C93 1.381 1_556 S
N95 C88 1.286 . S
N95 C91 1.413 . S
Tb96 N127 2.660 1_566 S
Tb96 N134 2.600 1_565 S
Tb96 O140 2.546 . S
Tb96 O141 2.610 1_455 S
Tb96 O143 2.320 1_455 S
Tb96 O144 2.552 . S
Tb96 O145 2.413 1_556 S
Tb96 O147 2.362 1_565 S
Tb96 O148 2.421 . S
Tb96 C160 2.833 . S
C97 C100 1.432 . S
C97 C101 1.414 . S
C97 N104 1.359 1_565 S
C98 C100 1.417 . S
C98 C102 1.432 . S
C98 C110 1.410 . S
C99 C101 1.444 . S
C99 C102 1.317 . S
C99 H122 0.929 . S
C100 C97 1.432 . S
C100 C98 1.417 . S
C100 N108 1.360 . S
C101 C97 1.414 . S
C101 C99 1.444 . S
C101 C106 1.385 1_565 S
C102 C98 1.432 . S
C102 C99 1.317 . S
C102 H114 0.930 . S
C103 C105 1.392 . S
C103 C106 1.370 . S
C103 H115 0.931 . S
N104 C97 1.359 1_545 S
N104 C105 1.327 . S
N104 Tb107 2.600 . S
C105 C103 1.392 . S
C105 N104 1.327 . S
C105 H112 0.930 . S
C106 C101 1.385 1_545 S
C106 C103 1.370 . S
C106 H125 0.930 . S
Tb107 N104 2.600 . S
Tb107 N108 2.660 1_545 S
Tb107 O141 2.362 1_545 S
Tb107 O142 2.421 . S
Tb107 O146 2.546 . S
Tb107 O147 2.610 1_655 S
Tb107 O149 2.320 1_655 S
Tb107 O150 2.552 1_655 S
Tb107 O151 2.413 . S
Tb107 C171 2.833 . S
N108 C100 1.360 . S
N108 Tb107 2.660 1_565 S
N108 C109 1.305 1_655 S
C109 N108 1.305 1_455 S
C109 C111 1.407 . S
C109 H116 0.930 . S
C110 C98 1.410 . S
C110 C111 1.345 1_655 S
C110 H118 0.930 . S
C111 C109 1.407 . S
C111 C110 1.345 1_455 S
C111 H113 0.930 . S
H112 C105 0.930 . S
H113 C111 0.930 . S
H114 C102 0.930 . S
H115 C103 0.931 . S
H116 C109 0.930 . S
H117 C131 0.930 1_655 S
H118 C110 0.930 . S
H119 C137 0.930 . S
H120 C128 0.930 1_655 S
H121 C135 0.931 . S
H122 C99 0.929 . S
H123 C129 0.930 . S
H124 C162 0.930 . S
H125 C106 0.930 . S
H126 C161 0.929 . S
N127 Tb96 2.660 1_544 S
N127 C128 1.305 . S
N127 C132 1.360 . S
C128 H120 0.930 1_455 S
C128 N127 1.305 . S
C128 C131 1.407 . S
C129 H123 0.930 . S
C129 C130 1.410 . S
C129 C131 1.345 . S
C130 C129 1.410 . S
C130 C132 1.417 . S
C130 C162 1.432 . S
C131 H117 0.930 1_455 S
C131 C128 1.407 . S
C131 C129 1.345 . S
C132 N127 1.360 . S
C132 C130 1.417 . S
C132 C136 1.432 . S
H133 C138 0.930 . S
N134 Tb96 2.600 1_545 S
N134 C136 1.359 1_556 S
N134 C137 1.327 1_545 S
C135 H121 0.931 . S
C135 C137 1.392 . S
C135 C138 1.370 1_566 S
C136 C132 1.432 . S
C136 N134 1.359 1_554 S
C136 C139 1.414 . S
C137 H119 0.930 . S
C137 N134 1.327 1_565 S
C137 C135 1.392 . S
C138 H133 0.930 . S
C138 C135 1.370 1_544 S
C138 C139 1.385 . S
C139 C136 1.414 . S
C139 C138 1.385 . S
C139 C161 1.444 . S
O140 Tb96 2.546 . S
O140 C160 1.251 . S
O141 Tb96 2.610 1_655 S
O141 Tb107 2.362 1_565 S
O141 C152 1.283 . S
O142 Tb107 2.421 . S
O142 C159 1.262 . S
O143 Tb96 2.320 1_655 S
O143 C159 1.260 1_565 S
O144 Tb96 2.552 . S
O144 C152 1.243 1_455 S
O145 Tb96 2.413 1_554 S
O145 C160 1.256 1_554 S
O146 Tb107 2.546 . S
O146 C171 1.251 . S
O147 Tb96 2.362 1_545 S
O147 Tb107 2.610 1_455 S
O147 C163 1.283 . S
O148 Tb96 2.421 . S
O148 C170 1.262 1_565 S
O149 Tb107 2.320 1_455 S
O149 C170 1.260 . S
O150 Tb107 2.552 1_455 S
O150 C163 1.243 . S
O151 Tb107 2.413 . S
O151 C171 1.256 . S
C152 O141 1.283 . S
C152 O144 1.243 1_655 S
C153 C155 1.382 . S
C153 C157 1.393 . S
C153 C160 1.500 1_554 S
C154 C155 1.400 . S
C154 C156 1.384 . S
C155 C153 1.382 . S
C155 C154 1.400 . S
C155 H172 0.930 . S
C156 C154 1.384 . S
C156 C158 1.392 . S
C156 H173 0.931 . S
C157 C153 1.393 . S
C157 C158 1.401 . S
C157 H174 0.930 . S
C158 C156 1.392 . S
C158 C157 1.401 . S
C158 H175 0.930 . S
C159 O142 1.262 . S
C159 O143 1.260 1_545 S
C160 Tb96 2.833 . S
C160 O140 1.251 . S
C160 O145 1.256 1_556 S
C160 C153 1.500 1_556 S
C161 H126 0.929 . S
C161 C139 1.444 . S
C161 C162 1.317 . S
C162 H124 0.930 . S
C162 C130 1.432 . S
C162 C161 1.317 . S
C163 O147 1.283 . S
C163 O150 1.243 . S
C164 C165 1.382 . S
C164 C168 1.393 . S
C164 C171 1.500 . S
C165 C164 1.382 . S
C165 C166 1.400 . S
C165 H176 0.930 1_655 S
C166 C165 1.400 . S
C166 C167 1.384 . S
C167 C166 1.384 . S
C167 C169 1.392 . S
C167 H177 0.931 . S
C168 C164 1.393 . S
C168 C169 1.401 . S
C168 H178 0.930 . S
C169 C167 1.392 . S
C169 C168 1.401 . S
C169 H179 0.930 . S
C170 O148 1.262 1_545 S
C170 O149 1.260 . S
C171 Tb107 2.833 . S
C171 O146 1.251 . S
C171 O151 1.256 . S
C171 C164 1.500 . S
H172 C155 0.930 . S
H173 C156 0.931 . S
H174 C157 0.930 . S
H175 C158 0.930 . S
H176 C165 0.930 1_455 S
H177 C167 0.931 . S
H178 C168 0.930 . S
H179 C169 0.930 . S
Tb180 N211 2.660 1_556 S
Tb180 N218 2.600 . S
Tb180 O224 2.546 . S
Tb180 O225 2.610 1_545 S
Tb180 O227 2.320 1_545 S
Tb180 O228 2.552 . S
Tb180 O229 2.413 1_556 S
Tb180 O231 2.362 . S
Tb180 O232 2.421 . S
Tb180 C244 2.833 . S
C181 C184 1.432 . S
C181 C185 1.414 . S
C181 N188 1.359 . S
C182 C184 1.417 . S
C182 C186 1.432 . S
C182 C194 1.410 . S
C183 C185 1.444 . S
C183 C186 1.317 . S
C183 H206 0.929 . S
C184 C181 1.432 . S
C184 C182 1.417 . S
C184 N192 1.360 . S
C185 C181 1.414 . S
C185 C183 1.444 . S
C185 C190 1.385 . S
C186 C182 1.432 . S
C186 C183 1.317 . S
C186 H198 0.930 . S
C187 C189 1.392 . S
C187 C190 1.370 . S
C187 H199 0.931 . S
N188 C181 1.359 . S
N188 C189 1.327 . S
N188 Tb191 2.600 . S
C189 C187 1.392 . S
C189 N188 1.327 . S
C189 H196 0.930 . S
C190 C185 1.385 . S
C190 C187 1.370 . S
C190 H209 0.930 . S
Tb191 N188 2.600 . S
Tb191 N192 2.660 . S
Tb191 O225 2.362 . S
Tb191 O226 2.421 . S
Tb191 O230 2.546 . S
Tb191 O231 2.610 1_565 S
Tb191 O233 2.320 1_565 S
Tb191 O234 2.552 1_565 S
Tb191 O235 2.413 . S
Tb191 C255 2.833 . S
N192 C184 1.360 . S
N192 Tb191 2.660 . S
N192 C193 1.305 1_565 S
C193 N192 1.305 1_545 S
C193 C195 1.407 . S
C193 H200 0.930 . S
C194 C182 1.410 . S
C194 C195 1.345 1_565 S
C194 H202 0.930 . S
C195 C193 1.407 . S
C195 C194 1.345 1_545 S
C195 H197 0.930 . S
H196 C189 0.930 . S
H197 C195 0.930 . S
H198 C186 0.930 . S
H199 C187 0.931 . S
H200 C193 0.930 . S
H201 C215 0.930 1_565 S
H202 C194 0.930 . S
H203 C221 0.930 . S
H204 C212 0.930 1_565 S
H205 C219 0.931 . S
H206 C183 0.929 . S
H207 C213 0.930 . S
H208 C246 0.930 . S
H209 C190 0.930 . S
H210 C245 0.929 . S
N211 Tb180 2.660 1_554 S
N211 C212 1.305 . S
N211 C216 1.360 . S
C212 H204 0.930 1_545 S
C212 N211 1.305 . S
C212 C215 1.407 . S
C213 H207 0.930 . S
C213 C214 1.410 . S
C213 C215 1.345 . S
C214 C213 1.410 . S
C214 C216 1.417 . S
C214 C246 1.432 . S
C215 H201 0.930 1_545 S
C215 C212 1.407 . S
C215 C213 1.345 . S
C216 N211 1.360 . S
C216 C214 1.417 . S
C216 C220 1.432 . S
H217 C222 0.930 . S
N218 Tb180 2.600 . S
N218 C220 1.359 1_556 S
N218 C221 1.327 . S
C219 H205 0.931 . S
C219 C221 1.392 . S
C219 C222 1.370 1_556 S
C220 C216 1.432 . S
C220 N218 1.359 1_554 S
C220 C223 1.414 . S
C221 H203 0.930 . S
C221 N218 1.327 . S
C221 C219 1.392 . S
C222 H217 0.930 . S
C222 C219 1.370 1_554 S
C222 C223 1.385 . S
C223 C220 1.414 . S
C223 C222 1.385 . S
C223 C245 1.444 . S
O224 Tb180 2.546 . S
O224 C244 1.251 . S
O225 Tb180 2.610 1_565 S
O225 Tb191 2.362 . S
O225 C236 1.283 . S
O226 Tb191 2.421 . S
O226 C243 1.262 . S
O227 Tb180 2.320 1_565 S
O227 C243 1.260 . S
O228 Tb180 2.552 . S
O228 C236 1.243 1_545 S
O229 Tb180 2.413 1_554 S
O229 C244 1.256 1_554 S
O230 Tb191 2.546 . S
O230 C255 1.251 . S
O231 Tb180 2.362 . S
O231 Tb191 2.610 1_545 S
O231 C247 1.283 . S
O232 Tb180 2.421 . S
O232 C254 1.262 . S
O233 Tb191 2.320 1_545 S
O233 C254 1.260 . S
O234 Tb191 2.552 1_545 S
O234 C247 1.243 . S
O235 Tb191 2.413 . S
O235 C255 1.256 . S
C236 O225 1.283 . S
C236 O228 1.243 1_565 S
C237 C239 1.382 . S
C237 C241 1.393 . S
C237 C244 1.500 1_554 S
C238 C239 1.400 . S
C238 C240 1.384 . S
C239 C237 1.382 . S
C239 C238 1.400 . S
C239 H256 0.930 . S
C240 C238 1.384 . S
C240 C242 1.392 . S
C240 H257 0.931 . S
C241 C237 1.393 . S
C241 C242 1.401 . S
C241 H258 0.930 . S
C242 C240 1.392 . S
C242 C241 1.401 . S
C242 H259 0.930 . S
C243 O226 1.262 . S
C243 O227 1.260 . S
C244 Tb180 2.833 . S
C244 O224 1.251 . S
C244 O229 1.256 1_556 S
C244 C237 1.500 1_556 S
C245 H210 0.929 . S
C245 C223 1.444 . S
C245 C246 1.317 . S
C246 H208 0.930 . S
C246 C214 1.432 . S
C246 C245 1.317 . S
C247 O231 1.283 . S
C247 O234 1.243 . S
C248 C249 1.382 . S
C248 C252 1.393 . S
C248 C255 1.500 . S
C249 C248 1.382 . S
C249 C250 1.400 . S
C249 H260 0.930 1_565 S
C250 C249 1.400 . S
C250 C251 1.384 . S
C251 C250 1.384 . S
C251 C253 1.392 . S
C251 H261 0.931 . S
C252 C248 1.393 . S
C252 C253 1.401 . S
C252 H262 0.930 . S
C253 C251 1.392 . S
C253 C252 1.401 . S
C253 H263 0.930 . S
C254 O232 1.262 . S
C254 O233 1.260 . S
C255 Tb191 2.833 . S
C255 O230 1.251 . S
C255 O235 1.256 . S
C255 C248 1.500 . S
H256 C239 0.930 . S
H257 C240 0.931 . S
H258 C241 0.930 . S
H259 C242 0.930 . S
H260 C249 0.930 1_545 S
H261 C251 0.931 . S
H262 C252 0.930 . S
H263 C253 0.930 . S
Tb264 N295 2.660 . S
Tb264 N302 2.600 . S
Tb264 O308 2.546 . S
Tb264 O309 2.610 . S
Tb264 O311 2.320 . S
Tb264 O312 2.552 . S
Tb264 O313 2.413 . S
Tb264 O315 2.362 . S
Tb264 O316 2.421 . S
Tb264 C328 2.833 . S
C265 C268 1.432 . S
C265 C269 1.414 . S
C265 N272 1.359 . S
C266 C268 1.417 . S
C266 C270 1.432 . S
C266 C278 1.410 . S
C267 C269 1.444 . S
C267 C270 1.317 . S
C267 H290 0.929 . S
C268 C265 1.432 . S
C268 C266 1.417 . S
C268 N276 1.360 . S
C269 C265 1.414 . S
C269 C267 1.444 . S
C269 C274 1.385 1_556 S
C270 C266 1.432 . S
C270 C267 1.317 . S
C270 H282 0.930 . S
C271 C273 1.392 . S
C271 C274 1.370 . S
C271 H283 0.931 . S
N272 C265 1.359 . S
N272 C273 1.327 1_556 S
N272 Tb275 2.600 . S
C273 C271 1.392 . S
C273 N272 1.327 1_554 S
C273 H280 0.930 . S
C274 C269 1.385 1_554 S
C274 C271 1.370 . S
C274 H293 0.930 . S
Tb275 N272 2.600 . S
Tb275 N276 2.660 . S
Tb275 O309 2.362 . S
Tb275 O310 2.421 . S
Tb275 O314 2.546 1_556 S
Tb275 O315 2.610 . S
Tb275 O317 2.320 . S
Tb275 O318 2.552 . S
Tb275 O319 2.413 . S
Tb275 C339 2.833 1_556 S
N276 C268 1.360 . S
N276 Tb275 2.660 . S
N276 C277 1.305 . S
C277 N276 1.305 . S
C277 C279 1.407 . S
C277 H284 0.930 . S
C278 C266 1.410 . S
C278 C279 1.345 . S
C278 H286 0.930 . S
C279 C277 1.407 . S
C279 C278 1.345 . S
C279 H281 0.930 . S
H280 C273 0.930 . S
H281 C279 0.930 . S
H282 C270 0.930 . S
H283 C271 0.931 . S
H284 C277 0.930 . S
H285 C299 0.930 . S
H286 C278 0.930 . S
H287 C305 0.930 . S
H288 C296 0.930 . S
H289 C303 0.931 . S
H290 C267 0.929 . S
H291 C297 0.930 . S
H292 C330 0.930 . S
H293 C274 0.930 . S
H294 C329 0.929 . S
N295 Tb264 2.660 . S
N295 C296 1.305 . S
N295 C300 1.360 . S
C296 H288 0.930 . S
C296 N295 1.305 . S
C296 C299 1.407 . S
C297 H291 0.930 . S
C297 C298 1.410 . S
C297 C299 1.345 . S
C298 C297 1.410 . S
C298 C300 1.417 . S
C298 C330 1.432 . S
C299 H285 0.930 . S
C299 C296 1.407 . S
C299 C297 1.345 . S
C300 N295 1.360 . S
C300 C298 1.417 . S
C300 C304 1.432 . S
H301 C306 0.930 . S
N302 Tb264 2.600 . S
N302 C304 1.359 . S
N302 C305 1.327 . S
C303 H289 0.931 . S
C303 C305 1.392 . S
C303 C306 1.370 . S
C304 C300 1.432 . S
C304 N302 1.359 . S
C304 C307 1.414 . S
C305 H287 0.930 . S
C305 N302 1.327 . S
C305 C303 1.392 . S
C306 H301 0.930 . S
C306 C303 1.370 . S
C306 C307 1.385 . S
C307 C304 1.414 . S
C307 C306 1.385 . S
C307 C329 1.444 . S
O308 Tb264 2.546 . S
O308 C328 1.251 . S
O309 Tb264 2.610 . S
O309 Tb275 2.362 . S
O309 C320 1.283 . S
O310 Tb275 2.421 . S
O310 C327 1.262 . S
O311 Tb264 2.320 . S
O311 C327 1.260 . S
O312 Tb264 2.552 . S
O312 C320 1.243 . S
O313 Tb264 2.413 . S
O313 C328 1.256 . S
O314 Tb275 2.546 1_554 S
O314 C339 1.251 . S
O315 Tb264 2.362 . S
O315 Tb275 2.610 . S
O315 C331 1.283 . S
O316 Tb264 2.421 . S
O316 C338 1.262 . S
O317 Tb275 2.320 . S
O317 C338 1.260 . S
O318 Tb275 2.552 . S
O318 C331 1.243 . S
O319 Tb275 2.413 . S
O319 C339 1.256 1_556 S
C320 O309 1.283 . S
C320 O312 1.243 . S
C321 C323 1.382 . S
C321 C325 1.393 . S
C321 C328 1.500 . S
C322 C323 1.400 . S
C322 C324 1.384 . S
C323 C321 1.382 . S
C323 C322 1.400 . S
C323 H340 0.930 . S
C324 C322 1.384 . S
C324 C326 1.392 . S
C324 H341 0.931 . S
C325 C321 1.393 . S
C325 C326 1.401 . S
C325 H342 0.930 . S
C326 C324 1.392 . S
C326 C325 1.401 . S
C326 H343 0.930 . S
C327 O310 1.262 . S
C327 O311 1.260 . S
C328 Tb264 2.833 . S
C328 O308 1.251 . S
C328 O313 1.256 . S
C328 C321 1.500 . S
C329 H294 0.929 . S
C329 C307 1.444 . S
C329 C330 1.317 . S
C330 H292 0.930 . S
C330 C298 1.432 . S
C330 C329 1.317 . S
C331 O315 1.283 . S
C331 O318 1.243 . S
C332 C333 1.382 . S
C332 C336 1.393 . S
C332 C339 1.500 . S
C333 C332 1.382 . S
C333 C334 1.400 . S
C333 H344 0.930 . S
C334 C333 1.400 . S
C334 C335 1.384 . S
C335 C334 1.384 . S
C335 C337 1.392 . S
C335 H345 0.931 . S
C336 C332 1.393 . S
C336 C337 1.401 . S
C336 H346 0.930 . S
C337 C335 1.392 . S
C337 C336 1.401 . S
C337 H347 0.930 . S
C338 O316 1.262 . S
C338 O317 1.260 . S
C339 Tb275 2.833 1_554 S
C339 O314 1.251 . S
C339 O319 1.256 1_554 S
C339 C332 1.500 . S
H340 C323 0.930 . S
H341 C324 0.931 . S
H342 C325 0.930 . S
H343 C326 0.930 . S
H344 C333 0.930 . S
H345 C335 0.931 . S
H346 C336 0.930 . S
H347 C337 0.930 . S
Tb348 N379 2.660 . S
Tb348 N386 2.600 . S
Tb348 O392 2.546 . S
Tb348 O393 2.610 . S
Tb348 O395 2.320 . S
Tb348 O396 2.552 . S
Tb348 O397 2.413 . S
Tb348 O399 2.362 . S
Tb348 O400 2.421 1_455 S
Tb348 C412 2.833 . S
C349 C352 1.432 . S
C349 C353 1.414 . S
C349 N356 1.361 . S
C350 C352 1.417 . S
C350 C354 1.432 . S
C350 C362 1.410 . S
C351 C353 1.444 . S
C351 C354 1.317 . S
C351 H374 0.929 . S
C352 C349 1.432 . S
C352 C350 1.417 . S
C352 N360 1.360 . S
C353 C349 1.414 . S
C353 C351 1.444 . S
C353 C358 1.385 1_656 S
C354 C350 1.432 . S
C354 C351 1.317 . S
C354 H366 0.930 . S
C355 C357 1.392 . S
C355 C358 1.370 . S
C355 H367 0.931 . S
N356 C349 1.361 . S
N356 C357 1.324 1_656 S
N356 Tb359 2.601 . S
C357 C355 1.392 . S
C357 N356 1.324 1_454 S
C357 H364 0.930 . S
C358 C353 1.385 1_454 S
C358 C355 1.370 . S
C358 H377 0.930 . S
Tb359 N356 2.601 . S
Tb359 N360 2.660 . S
Tb359 O393 2.362 1_655 S
Tb359 O394 2.421 1_655 S
Tb359 O398 2.546 1_556 S
Tb359 O399 2.610 1_655 S
Tb359 O401 2.320 . S
Tb359 O402 2.552 . S
Tb359 O403 2.413 . S
Tb359 C423 2.833 1_556 S
N360 C352 1.360 . S
N360 Tb359 2.660 . S
N360 C361 1.305 . S
C361 N360 1.305 . S
C361 C363 1.407 . S
C361 H368 0.930 . S
C362 C350 1.410 . S
C362 C363 1.345 . S
C362 H370 0.930 . S
C363 C361 1.407 . S
C363 C362 1.345 . S
C363 H365 0.930 . S
H364 C357 0.930 . S
H365 C363 0.930 . S
H366 C354 0.930 . S
H367 C355 0.931 . S
H368 C361 0.930 . S
H369 C383 0.930 . S
H370 C362 0.930 . S
H371 C389 0.930 . S
H372 C380 0.930 . S
H373 C387 0.931 . S
H374 C351 0.929 . S
H375 C381 0.930 . S
H376 C414 0.930 . S
H377 C358 0.930 . S
H378 C413 0.929 . S
N379 Tb348 2.660 . S
N379 C380 1.305 . S
N379 C384 1.360 . S
C380 H372 0.930 . S
C380 N379 1.305 . S
C380 C383 1.407 . S
C381 H375 0.930 . S
C381 C382 1.410 . S
C381 C383 1.345 . S
C382 C381 1.410 . S
C382 C384 1.417 . S
C382 C414 1.432 . S
C383 H369 0.930 . S
C383 C380 1.407 . S
C383 C381 1.345 . S
C384 N379 1.360 . S
C384 C382 1.417 . S
C384 C388 1.432 . S
H385 C390 0.930 1_655 S
N386 Tb348 2.600 . S
N386 C388 1.359 . S
N386 C389 1.327 1_455 S
C387 H373 0.931 . S
C387 C389 1.392 . S
C387 C390 1.370 1_655 S
C388 C384 1.432 . S
C388 N386 1.359 . S
C388 C391 1.414 . S
C389 H371 0.930 . S
C389 N386 1.327 1_655 S
C389 C387 1.392 . S
C390 H385 0.930 1_455 S
C390 C387 1.370 1_455 S
C390 C391 1.385 . S
C391 C388 1.414 . S
C391 C390 1.385 . S
C391 C413 1.444 . S
O392 Tb348 2.546 . S
O392 C412 1.251 . S
O393 Tb348 2.610 . S
O393 Tb359 2.362 1_455 S
O393 C404 1.283 . S
O394 Tb359 2.421 1_455 S
O394 C411 1.262 . S
O395 Tb348 2.320 . S
O395 C411 1.260 . S
O396 Tb348 2.552 . S
O396 C404 1.243 . S
O397 Tb348 2.413 . S
O397 C412 1.256 . S
O398 Tb359 2.546 1_554 S
O398 C423 1.251 . S
O399 Tb348 2.362 . S
O399 Tb359 2.610 1_455 S
O399 C415 1.283 1_455 S
O400 Tb348 2.421 1_655 S
O400 C422 1.262 . S
O401 Tb359 2.320 . S
O401 C422 1.260 . S
O402 Tb359 2.552 . S
O402 C415 1.243 . S
O403 Tb359 2.413 . S
O403 C423 1.256 1_556 S
C404 O393 1.283 . S
C404 O396 1.243 . S
C405 C407 1.382 . S
C405 C409 1.393 . S
C405 C412 1.500 . S
C406 C407 1.400 . S
C406 C408 1.384 . S
C407 C405 1.382 . S
C407 C406 1.400 . S
C407 H424 0.930 . S
C408 C406 1.384 . S
C408 C410 1.392 . S
C408 H425 0.931 . S
C409 C405 1.393 . S
C409 C410 1.401 . S
C409 H426 0.930 . S
C410 C408 1.392 . S
C410 C409 1.401 . S
C410 H427 0.930 . S
C411 O394 1.262 . S
C411 O395 1.260 . S
C412 Tb348 2.833 . S
C412 O392 1.251 . S
C412 O397 1.256 . S
C412 C405 1.500 . S
C413 H378 0.929 . S
C413 C391 1.444 . S
C413 C414 1.317 . S
C414 H376 0.930 . S
C414 C382 1.432 . S
C414 C413 1.317 . S
C415 O399 1.283 1_655 S
C415 O402 1.243 . S
C416 C417 1.382 . S
C416 C420 1.393 . S
C416 C423 1.500 . S
C417 C416 1.382 . S
C417 C418 1.400 . S
C417 H428 0.930 . S
C418 C417 1.400 . S
C418 C419 1.384 . S
C419 C418 1.384 . S
C419 C421 1.392 . S
C419 H429 0.931 . S
C420 C416 1.393 . S
C420 C421 1.401 . S
C420 H430 0.930 . S
C421 C419 1.392 . S
C421 C420 1.401 . S
C421 H431 0.930 . S
C422 O400 1.262 . S
C422 O401 1.260 . S
C423 Tb359 2.833 1_554 S
C423 O398 1.251 . S
C423 O403 1.256 1_554 S
C423 C416 1.500 . S
H424 C407 0.930 . S
H425 C408 0.931 . S
H426 C409 0.930 . S
H427 C410 0.930 . S
H428 C417 0.930 . S
H429 C419 0.931 . S
H430 C420 0.930 . S
H431 C421 0.930 . S
C432 C433 1.369 . S
C432 C434 1.419 . S
C432 H436 0.930 . S
C433 C432 1.369 . S
C433 C442 1.429 . S
C434 C432 1.419 . S
C434 C435 1.363 . S
C434 H437 0.929 . S
C435 C434 1.363 . S
C435 C441 1.428 . S
H436 C432 0.930 . S
H437 C434 0.929 . S
S438 N439 1.613 . S
S438 N440 1.610 . S
N439 S438 1.613 . S
N439 C442 1.350 . S
N440 S438 1.610 . S
N440 C441 1.351 . S
C441 C435 1.428 . S
C441 N440 1.351 . S
C441 C442 1.434 . S
C442 C433 1.429 . S
C442 N439 1.350 . S
C442 C441 1.434 . S
C443 C444 1.369 . S
C443 C445 1.419 . S
C443 H447 0.930 . S
C444 C443 1.369 . S
C444 C453 1.429 . S
C445 C443 1.419 . S
C445 C446 1.363 . S
C445 H448 0.929 . S
C446 C445 1.363 . S
C446 C452 1.428 . S
H447 C443 0.930 . S
H448 C445 0.929 . S
S449 N450 1.613 . S
S449 N451 1.610 . S
N450 S449 1.613 . S
N450 C453 1.350 . S
N451 S449 1.610 . S
N451 C452 1.351 . S
C452 C446 1.428 . S
C452 N451 1.351 . S
C452 C453 1.434 . S
C453 C444 1.429 . S
C453 N450 1.350 . S
C453 C452 1.434 . S
C454 C455 1.369 . S
C454 C456 1.419 . S
C454 H458 0.930 . S
C455 C454 1.369 . S
C455 C464 1.429 . S
C456 C454 1.419 . S
C456 C457 1.363 . S
C456 H459 0.929 . S
C457 C456 1.363 . S
C457 C463 1.428 . S
H458 C454 0.930 . S
H459 C456 0.929 . S
S460 N461 1.613 . S
S460 N462 1.610 . S
N461 S460 1.613 . S
N461 C464 1.350 . S
N462 S460 1.610 . S
N462 C463 1.351 . S
C463 C457 1.428 . S
C463 N462 1.351 . S
C463 C464 1.434 . S
C464 C455 1.429 . S
C464 N461 1.350 . S
C464 C463 1.434 . S
C465 C466 1.369 . S
C465 C467 1.419 . S
C465 H469 0.909 1_455 S
C466 C465 1.369 . S
C466 C475 1.429 . S
C467 C465 1.419 . S
C467 C468 1.363 . S
C467 H470 0.929 1_455 S
C468 C467 1.363 . S
C468 C474 1.428 . S
H469 C465 0.909 1_655 S
H470 C467 0.929 1_655 S
S471 N472 1.613 . S
S471 N473 1.610 . S
N472 S471 1.613 . S
N472 C475 1.350 . S
N473 S471 1.610 . S
N473 C474 1.351 . S
C474 C468 1.428 . S
C474 N473 1.351 . S
C474 C475 1.434 . S
C475 C466 1.429 . S
C475 N472 1.350 . S
C475 C474 1.434 . S
C476 C477 1.369 . S
C476 C478 1.419 . S
C476 H480 0.930 . S
C477 C476 1.369 . S
C477 C486 1.414 1_565 S
C478 C476 1.419 . S
C478 C479 1.363 1_554 S
C478 H481 0.929 . S
C479 C478 1.363 1_556 S
C479 C485 1.428 1_566 S
H480 C476 0.930 . S
H481 C478 0.929 . S
S482 N483 1.613 . S
S482 N484 1.610 1_554 S
N483 S482 1.613 . S
N483 C486 1.361 . S
N484 S482 1.610 1_556 S
N484 C485 1.351 1_556 S
C485 C479 1.428 1_544 S
C485 N484 1.351 1_554 S
C485 C486 1.438 . S
C486 C477 1.414 1_545 S
C486 N483 1.361 . S
C486 C485 1.438 . S
C487 C488 1.369 . S
C487 C489 1.419 . S
C487 H491 0.930 . S
C488 C487 1.369 . S
C488 C497 1.429 . S
C489 C487 1.419 . S
C489 C490 1.363 1_554 S
C489 H492 0.929 1_554 S
C490 C489 1.363 1_556 S
C490 C496 1.428 1_556 S
H491 C487 0.930 . S
H492 C489 0.929 1_556 S
S493 N494 1.613 . S
S493 N495 1.610 . S
N494 S493 1.613 . S
N494 C497 1.350 . S
N495 S493 1.610 . S
N495 C496 1.351 . S
C496 C490 1.428 1_554 S
C496 N495 1.351 . S
C496 C497 1.434 . S
C497 C488 1.429 . S
C497 N494 1.350 . S
C497 C496 1.434 . S
C498 C499 1.369 . S
C498 C500 1.419 . S
C498 H502 0.930 . S
C499 C498 1.369 . S
C499 C508 1.429 . S
C500 C498 1.419 . S
C500 C501 1.363 1_554 S
C500 H503 0.929 1_554 S
C501 C500 1.363 1_556 S
C501 C507 1.428 1_556 S
H502 C498 0.930 . S
H503 C500 0.929 1_556 S
S504 N505 1.613 . S
S504 N506 1.610 . S
N505 S504 1.613 . S
N505 C508 1.350 . S
N506 S504 1.610 . S
N506 C507 1.351 . S
C507 C501 1.428 1_554 S
C507 N506 1.351 . S
C507 C508 1.434 . S
C508 C499 1.429 . S
C508 N505 1.350 . S
C508 C507 1.434 . S
C509 C510 1.342 1_455 S
C509 C511 1.424 . S
C509 H513 0.953 . S
C510 C509 1.342 1_655 S
C510 C519 1.429 . S
C511 C509 1.424 . S
C511 C512 1.363 1_454 S
C511 H514 0.929 . S
C512 C511 1.363 1_656 S
C512 C518 1.428 1_556 S
H513 C509 0.953 . S
H514 C511 0.929 . S
S515 N516 1.613 . S
S515 N517 1.610 1_554 S
N516 S515 1.613 . S
N516 C519 1.350 . S
N517 S515 1.610 1_556 S
N517 C518 1.351 1_556 S
C518 C512 1.428 1_554 S
C518 N517 1.351 1_554 S
C518 C519 1.434 . S
C519 C510 1.429 . S
C519 N516 1.350 . S
C519 C518 1.434 . S
C520 C521 1.369 . S
C520 C522 1.419 . S
C520 H524 0.930 . S
C521 C520 1.369 . S
C521 C530 1.429 . S
C522 C520 1.419 . S
C522 C523 1.350 1_455 S
C522 H525 0.929 . S
C523 C522 1.350 1_655 S
C523 C529 1.423 1_655 S
H524 C520 0.930 . S
H525 C522 0.929 . S
S526 N527 1.613 . S
S526 N528 1.610 1_456 S
N527 S526 1.613 . S
N527 C530 1.350 1_556 S
N528 S526 1.610 1_654 S
N528 C529 1.351 1_655 S
C529 C523 1.423 1_455 S
C529 N528 1.351 1_455 S
C529 C530 1.434 . S
C530 C521 1.429 . S
C530 N527 1.350 1_554 S
C530 C529 1.434 . S
C531 C532 1.369 . S
C531 C533 1.419 . S
C531 H535 0.930 . S
C532 C531 1.369 . S
C532 C541 1.429 . S
C533 C531 1.419 . S
C533 C534 1.339 1_545 S
C533 H536 0.929 . S
C534 C533 1.339 1_565 S
C534 C540 1.432 . S
H535 C531 0.930 . S
H536 C533 0.929 . S
S537 N538 1.613 1_565 S
S537 N539 1.610 1_556 S
N538 S537 1.613 1_545 S
N538 C541 1.350 1_556 S
N539 S537 1.610 1_554 S
N539 C540 1.351 . S
C540 C534 1.432 . S
C540 N539 1.351 . S
C540 C541 1.434 1_565 S
C541 C532 1.429 . S
C541 N538 1.350 1_554 S
C541 C540 1.434 1_545 S
C542 C543 1.369 . S
C542 C544 1.419 . S
C542 H546 0.930 . S
C543 C542 1.369 . S
C543 C552 1.429 . S
C544 C542 1.419 . S
C544 C545 1.363 . S
C544 H547 0.929 . S
C545 C544 1.363 . S
C545 C551 1.428 . S
H546 C542 0.930 . S
H547 C544 0.929 . S
S548 N549 1.613 . S
S548 N550 1.610 . S
N549 S548 1.613 . S
N549 C552 1.350 . S
N550 S548 1.610 . S
N550 C551 1.351 . S
C551 C545 1.428 . S
C551 N550 1.351 . S
C551 C552 1.434 . S
C552 C543 1.429 . S
C552 N549 1.350 . S
C552 C551 1.434 . S
C553 C554 1.369 . S
C553 C555 1.419 . S
C553 H557 0.930 . S
C554 C553 1.369 . S
C554 C563 1.429 . S
C555 C553 1.419 . S
C555 C556 1.363 . S
C555 H558 0.929 . S
C556 C555 1.363 . S
C556 C562 1.428 . S
H557 C553 0.930 . S
H558 C555 0.929 . S
S559 N560 1.613 . S
S559 N561 1.610 1_556 S
N560 S559 1.613 . S
N560 C563 1.350 1_556 S
N561 S559 1.610 1_554 S
N561 C562 1.351 . S
C562 C556 1.428 . S
C562 N561 1.351 . S
C562 C563 1.434 . S
C563 C554 1.429 . S
C563 N560 1.350 1_554 S
C563 C562 1.434 . S
C564 C565 1.369 . S
C564 C566 1.419 . S
C564 H568 0.930 . S
C565 C564 1.369 . S
C565 C574 1.429 . S
C566 C564 1.419 . S
C566 C567 1.363 1_655 S
C566 H569 0.929 . S
C567 C566 1.363 1_455 S
C567 C573 1.428 . S
H568 C564 0.930 . S
H569 C566 0.929 . S
S570 N571 1.613 1_455 S
S570 N572 1.610 . S
N571 S570 1.613 1_655 S
N571 C574 1.350 . S
N572 S570 1.610 . S
N572 C573 1.351 . S
C573 C567 1.428 . S
C573 N572 1.351 . S
C573 C574 1.434 1_455 S
C574 C565 1.429 . S
C574 N571 1.350 . S
C574 C573 1.434 1_655 S
C575 C576 1.369 . S
C575 C577 1.419 . S
C575 H579 0.930 . S
C576 C575 1.369 . S
C576 C585 1.429 . S
C577 C575 1.419 . S
C577 C578 1.363 1_565 S
C577 H580 0.929 . S
C578 C577 1.363 1_545 S
C578 C584 1.428 . S
H579 C575 0.930 . S
H580 C577 0.929 . S
S581 N582 1.612 . S
S581 N583 1.610 . S
N582 S581 1.612 . S
N582 C585 1.350 1_545 S
N583 S581 1.610 . S
N583 C584 1.351 . S
C584 C578 1.428 . S
C584 N583 1.351 . S
C584 C585 1.434 1_545 S
C585 C576 1.429 . S
C585 N582 1.350 1_565 S
C585 C584 1.434 1_565 S
C586 C587 1.369 . S
C586 C588 1.419 . S
C586 H590 0.930 . S
C587 C586 1.369 . S
C587 C596 1.429 . S
C588 C586 1.419 . S
C588 C589 1.363 . S
C588 H591 0.929 . S
C589 C588 1.363 . S
C589 C595 1.428 . S
H590 C586 0.930 . S
H591 C588 0.929 . S
S592 N593 1.613 . S
S592 N594 1.610 . S
N593 S592 1.613 . S
N593 C596 1.350 . S
N594 S592 1.610 . S
N594 C595 1.351 . S
C595 C589 1.428 . S
C595 N594 1.351 . S
C595 C596 1.434 . S
C596 C587 1.429 . S
C596 N593 1.350 . S
C596 C595 1.434 . S
C597 C598 1.369 . S
C597 C599 1.419 . S
C597 H601 0.930 . S
C598 C597 1.369 . S
C598 C607 1.429 . S
C599 C597 1.419 . S
C599 C600 1.363 . S
C599 H602 0.929 . S
C600 C599 1.363 . S
C600 C606 1.428 . S
H601 C597 0.930 . S
H602 C599 0.929 . S
S603 N604 1.613 . S
S603 N605 1.610 . S
N604 S603 1.613 . S
N604 C607 1.350 . S
N605 S603 1.610 . S
N605 C606 1.351 . S
C606 C600 1.428 . S
C606 N605 1.351 . S
C606 C607 1.434 . S
C607 C598 1.429 . S
C607 N604 1.350 . S
C607 C606 1.434 . S
C608 C609 1.369 . S
C608 C610 1.419 . S
C608 H612 0.930 . S
C609 C608 1.369 . S
C609 C618 1.429 . S
C610 C608 1.419 . S
C610 C611 1.363 . S
C610 H613 0.929 . S
C611 C610 1.363 . S
C611 C617 1.428 . S
H612 C608 0.930 . S
H613 C610 0.929 . S
S614 N615 1.613 . S
S614 N616 1.610 . S
N615 S614 1.613 . S
N615 C618 1.350 . S
N616 S614 1.610 . S
N616 C617 1.351 . S
C617 C611 1.428 . S
C617 N616 1.351 . S
C617 C618 1.434 . S
C618 C609 1.429 . S
C618 N615 1.350 . S
C618 C617 1.434 . S
C619 C620 1.369 . S
C619 C621 1.419 . S
C619 H623 0.930 . S
C620 C619 1.369 . S
C620 C629 1.429 . S
C621 C619 1.419 . S
C621 C622 1.363 . S
C621 H624 0.929 . S
C622 C621 1.363 . S
C622 C628 1.428 . S
H623 C619 0.930 . S
H624 C621 0.929 . S
S625 N626 1.613 . S
S625 N627 1.610 . S
N626 S625 1.613 . S
N626 C629 1.350 1_565 S
N627 S625 1.610 . S
N627 C628 1.351 1_565 S
C628 C622 1.428 . S
C628 N627 1.351 1_545 S
C628 C629 1.434 . S
C629 C620 1.429 . S
C629 N626 1.350 1_545 S
C629 C628 1.434 . S
C630 C631 1.369 . S
C630 C632 1.419 . S
C630 H634 0.930 . S
C631 C630 1.369 . S
C631 C640 1.429 . S
C632 C630 1.419 . S
C632 C633 1.363 . S
C632 H635 0.929 . S
C633 C632 1.363 . S
C633 C639 1.428 . S
H634 C630 0.930 . S
H635 C632 0.929 . S
S636 N637 1.613 . S
S636 N638 1.610 . S
N637 S636 1.613 . S
N637 C640 1.350 . S
N638 S636 1.610 . S
N638 C639 1.351 . S
C639 C633 1.428 . S
C639 N638 1.351 . S
C639 C640 1.434 . S
C640 C631 1.429 . S
C640 N637 1.350 . S
C640 C639 1.434 . S
C641 C642 1.369 . S
C641 C643 1.419 . S
C641 H645 0.930 . S
C642 C641 1.369 . S
C642 C651 1.429 . S
C643 C641 1.419 . S
C643 C644 1.363 . S
C643 H646 0.929 . S
C644 C643 1.363 . S
C644 C650 1.428 . S
H645 C641 0.930 . S
H646 C643 0.929 . S
S647 N648 1.613 . S
S647 N649 1.610 . S
N648 S647 1.613 . S
N648 C651 1.350 . S
N649 S647 1.610 . S
N649 C650 1.351 . S
C650 C644 1.428 . S
C650 N649 1.351 . S
C650 C651 1.434 . S
C651 C642 1.429 . S
C651 N648 1.350 . S
C651 C650 1.434 . S
C652 C653 1.369 . S
C652 C654 1.419 . S
C652 H656 0.930 . S
C653 C652 1.369 . S
C653 C662 1.429 . S
C654 C652 1.419 . S
C654 C655 1.363 . S
C654 H657 0.929 . S
C655 C654 1.363 . S
C655 C661 1.428 . S
H656 C652 0.930 . S
H657 C654 0.929 . S
S658 N659 1.613 . S
S658 N660 1.610 . S
N659 S658 1.613 . S
N659 C662 1.350 1_455 S
N660 S658 1.610 . S
N660 C661 1.351 1_455 S
C661 C655 1.428 . S
C661 N660 1.351 1_655 S
C661 C662 1.434 . S
C662 C653 1.429 . S
C662 N659 1.350 1_655 S
C662 C661 1.434 . S
C663 C664 1.369 . S
C663 C665 1.419 1_565 S
C663 H667 0.930 1_565 S
C664 C663 1.369 . S
C664 C673 1.429 . S
C665 C663 1.419 1_545 S
C665 C666 1.363 1_545 S
C665 H668 0.929 . S
C666 C665 1.363 1_565 S
C666 C672 1.428 . S
H667 C663 0.930 1_545 S
H668 C665 0.929 . S
S669 N670 1.613 . S
S669 N671 1.610 . S
N670 S669 1.613 . S
N670 C673 1.350 . S
N671 S669 1.610 . S
N671 C672 1.351 . S
C672 C666 1.428 . S
C672 N671 1.351 . S
C672 C673 1.434 . S
C673 C664 1.429 . S
C673 N670 1.350 . S
C673 C672 1.434 . S
C674 C675 1.369 . S
C674 C676 1.419 . S
C674 H678 0.930 . S
C675 C674 1.369 . S
C675 C684 1.429 . S
C676 C674 1.419 . S
C676 C677 1.363 . S
C676 H679 0.929 . S
C677 C676 1.363 . S
C677 C683 1.428 . S
H678 C674 0.930 . S
H679 C676 0.929 . S
S680 N681 1.613 . S
S680 N682 1.610 . S
N681 S680 1.613 . S
N681 C684 1.350 . S
N682 S680 1.610 . S
N682 C683 1.351 . S
C683 C677 1.428 . S
C683 N682 1.351 . S
C683 C684 1.434 . S
C684 C675 1.429 . S
C684 N681 1.350 . S
C684 C683 1.434 . S
C685 C686 1.369 . S
C685 C687 1.419 . S
C685 H689 0.930 . S
C686 C685 1.369 . S
C686 C695 1.429 . S
C687 C685 1.419 . S
C687 C688 1.363 . S
C687 H690 0.929 . S
C688 C687 1.363 . S
C688 C694 1.428 . S
H689 C685 0.930 . S
H690 C687 0.929 . S
S691 N692 1.613 . S
S691 N693 1.610 . S
N692 S691 1.613 . S
N692 C695 1.350 . S
N693 S691 1.610 . S
N693 C694 1.351 . S
C694 C688 1.428 . S
C694 N693 1.351 . S
C694 C695 1.434 . S
C695 C686 1.429 . S
C695 N692 1.350 . S
C695 C694 1.434 . S
C433 C76 1.943 . S
C435 C170 2.094 . S
C446 C254 2.105 . S
C444 C88 1.951 . S
C457 C320 2.011 . S
C455 C52 2.020 . S
C468 C404 2.005 . S
C466 C64 2.010 . S
C479 C159 2.099 1_565 S
C477 C28 1.941 . S
C488 C40 1.962 . S
C490 C243 2.105 . S
C499 C4 2.028 . S
C501 C331 2.014 . S
C510 C16 2.023 . S
C512 C415 2.004 . S
C523 C166 0.943 . S
C521 C69 0.870 . S
C534 C250 0.909 . S
C532 C81 0.844 . S
C545 C322 0.868 . S
C543 C93 0.840 . S
C554 C57 0.849 . S
C556 C406 0.895 . S
C565 C21 0.869 . S
C567 C154 0.921 . S
C578 C238 0.887 . S
C576 C33 0.839 . S
C589 C334 0.861 . S
C587 C45 0.822 . S
C598 C9 0.847 . S
C600 C418 0.895 . S
C609 C66 2.128 . S
C611 C163 2.215 . S
C620 C78 2.098 . S
C622 C247 2.195 . S
C633 C327 2.289 . S
C631 C90 2.028 . S
C644 C411 2.309 . S
C642 C54 2.045 . S
C653 C18 2.117 . S
C655 C152 2.214 . S
C666 C236 2.197 . S
C664 C30 2.094 . S
C677 C338 2.288 . S
C675 C42 2.005 . S
C686 C6 2.024 . S
C688 C422 2.310 . S
