# Generated by pormake.
# Topology sqc, (4,8)-cn, num edge types: 1
# Building blocks:
#     Node 0, Type 0, BuildingBlock: GIZVER_clean_linker_0, # of connection points: 4
#     Node 1, Type 0, BuildingBlock: GIZVER_clean_linker_0, # of connection points: 4
#     Node 2, Type 0, BuildingBlock: GIZVER_clean_linker_0, # of connection points: 4
#     Node 3, Type 0, BuildingBlock: GIZVER_clean_linker_0, # of connection points: 4
#     Node 4, Type 0, BuildingBlock: GIZVER_clean_linker_0, # of connection points: 4
#     Node 5, Type 0, BuildingBlock: GIZVER_clean_linker_0, # of connection points: 4
#     Node 6, Type 0, BuildingBlock: GIZVER_clean_linker_0, # of connection points: 4
#     Node 7, Type 0, BuildingBlock: GIZVER_clean_linker_0, # of connection points: 4
#     Node 8, Type 1, BuildingBlock: TAGTUT_clean_sbu_3, # of connection points: 8
#     Node 9, Type 1, BuildingBlock: TAGTUT_clean_sbu_3, # of connection points: 8
#     Node 10, Type 1, BuildingBlock: TAGTUT_clean_sbu_3, # of connection points: 8
#     Node 11, Type 1, BuildingBlock: TAGTUT_clean_sbu_3, # of connection points: 8
#     Edge 12, Type (0, 1), BuildingBlock: EZIPEK_clean_linker_0, # of connection points: 2
#     Edge 13, Type (0, 1), BuildingBlock: EZIPEK_clean_linker_0, # of connection points: 2
#     Edge 14, Type (0, 1), BuildingBlock: EZIPEK_clean_linker_0, # of connection points: 2
#     Edge 15, Type (0, 1), BuildingBlock: EZIPEK_clean_linker_0, # of connection points: 2
#     Edge 16, Type (0, 1), BuildingBlock: EZIPEK_clean_linker_0, # of connection points: 2
#     Edge 17, Type (0, 1), BuildingBlock: EZIPEK_clean_linker_0, # of connection points: 2
#     Edge 18, Type (0, 1), BuildingBlock: EZIPEK_clean_linker_0, # of connection points: 2
#     Edge 19, Type (0, 1), BuildingBlock: EZIPEK_clean_linker_0, # of connection points: 2
#     Edge 20, Type (0, 1), BuildingBlock: EZIPEK_clean_linker_0, # of connection points: 2
#     Edge 21, Type (0, 1), BuildingBlock: EZIPEK_clean_linker_0, # of connection points: 2
#     Edge 22, Type (0, 1), BuildingBlock: EZIPEK_clean_linker_0, # of connection points: 2
#     Edge 23, Type (0, 1), BuildingBlock: EZIPEK_clean_linker_0, # of connection points: 2
#     Edge 24, Type (0, 1), BuildingBlock: EZIPEK_clean_linker_0, # of connection points: 2
#     Edge 25, Type (0, 1), BuildingBlock: EZIPEK_clean_linker_0, # of connection points: 2
#     Edge 26, Type (0, 1), BuildingBlock: EZIPEK_clean_linker_0, # of connection points: 2
#     Edge 27, Type (0, 1), BuildingBlock: EZIPEK_clean_linker_0, # of connection points: 2
#     Edge 28, Type (0, 1), BuildingBlock: EZIPEK_clean_linker_0, # of connection points: 2
#     Edge 29, Type (0, 1), BuildingBlock: EZIPEK_clean_linker_0, # of connection points: 2
#     Edge 30, Type (0, 1), BuildingBlock: EZIPEK_clean_linker_0, # of connection points: 2
#     Edge 31, Type (0, 1), BuildingBlock: EZIPEK_clean_linker_0, # of connection points: 2
#     Edge 32, Type (0, 1), BuildingBlock: EZIPEK_clean_linker_0, # of connection points: 2
#     Edge 33, Type (0, 1), BuildingBlock: EZIPEK_clean_linker_0, # of connection points: 2
#     Edge 34, Type (0, 1), BuildingBlock: EZIPEK_clean_linker_0, # of connection points: 2
#     Edge 35, Type (0, 1), BuildingBlock: EZIPEK_clean_linker_0, # of connection points: 2
#     Edge 36, Type (0, 1), BuildingBlock: EZIPEK_clean_linker_0, # of connection points: 2
#     Edge 37, Type (0, 1), BuildingBlock: EZIPEK_clean_linker_0, # of connection points: 2
#     Edge 38, Type (0, 1), BuildingBlock: EZIPEK_clean_linker_0, # of connection points: 2
#     Edge 39, Type (0, 1), BuildingBlock: EZIPEK_clean_linker_0, # of connection points: 2
#     Edge 40, Type (0, 1), BuildingBlock: EZIPEK_clean_linker_0, # of connection points: 2
#     Edge 41, Type (0, 1), BuildingBlock: EZIPEK_clean_linker_0, # of connection points: 2
#     Edge 42, Type (0, 1), BuildingBlock: EZIPEK_clean_linker_0, # of connection points: 2
#     Edge 43, Type (0, 1), BuildingBlock: EZIPEK_clean_linker_0, # of connection points: 2
# Relax obj value: 0.176
# Max RMSD: 0.270
# Mean RMSD: 0.222
data_MOF--net-sqc--node1-TAGTUT_clean_sbu_3--node2-GIZVER_clean_linker_0--edge1-EZIPEK_clean_linker_0
_symmetry_space_group_name_H-M    P1
_symmetry_Int_Tables_number       1
_symmetry_cell_setting            triclinic
loop_
_symmetry_equiv_pos_as_xyz
'x, y, z'
_cell_length_a     18.78817
_cell_length_b     18.732175
_cell_length_c     53.483667
_cell_angle_alpha  90.398758
_cell_angle_beta   90.092835
_cell_angle_gamma 90.079204
loop_
_atom_site_label
_atom_site_type_symbol
_atom_site_fract_x
_atom_site_fract_y
_atom_site_fract_z
_atom_type_partial_charge
H0 H 0.96834 0.99845 0.435 0.0
H1 H 0.97414 0.12004 0.50388 0.0
H2 H 0.78052 0.01877 0.48007 0.0
H3 H 0.05769 0.09147 0.44132 0.0
H4 H 0.0563 0.14643 0.46845 0.0
H5 H 0.11712 0.97201 0.44213 0.0
H6 H 0.30622 0.98186 0.48743 0.0
H7 H 0.13047 0.11931 0.50427 0.0
C8 C 0.94304 0.01681 0.45207 0.0
C9 C 0.87049 0.0023 0.45602 0.0
C10 C 0.98107 0.05995 0.46919 0.0
C11 C 0.94639 0.08527 0.49083 0.0
C12 C 0.87431 0.06917 0.49472 0.0
C13 C 0.83696 0.02855 0.47731 0.0
C14 C 0.05276 0.08985 0.46205 0.0
C15 C 0.11512 0.04861 0.4725 0.0
C16 C 0.14485 0.99192 0.45856 0.0
C17 C 0.21528 0.96954 0.46321 0.0
C18 C 0.25159 0.99764 0.48387 0.0
C19 C 0.2203 0.04941 0.49915 0.0
C20 C 0.1523 0.07546 0.49342 0.0
H21 H 0.50422 0.72719 0.72199 0.0
H22 H 0.42125 0.78748 0.79412 0.0
H23 H 0.37413 0.91433 0.72963 0.0
H24 H 0.5587 0.68589 0.76408 0.0
H25 H 0.50755 0.69545 0.79194 0.0
H26 H 0.51876 0.60328 0.72985 0.0
H27 H 0.39424 0.42467 0.75367 0.0
H28 H 0.41415 0.60849 0.80174 0.0
C29 C 0.47079 0.76111 0.73347 0.0
C30 C 0.4409 0.82292 0.72307 0.0
C31 C 0.46315 0.74733 0.7592 0.0
C32 C 0.42466 0.79576 0.77412 0.0
C33 C 0.39195 0.85588 0.76349 0.0
C34 C 0.39818 0.8673 0.73782 0.0
C35 C 0.50327 0.68683 0.77138 0.0
C36 C 0.46905 0.61529 0.76615 0.0
C37 C 0.48384 0.57948 0.74358 0.0
C38 C 0.4554 0.51163 0.73901 0.0
C39 C 0.41399 0.47837 0.75709 0.0
C40 C 0.39931 0.51232 0.77977 0.0
C41 C 0.42557 0.5818 0.78417 0.0
H42 H 0.78348 0.08287 0.02947 0.0
H43 H 0.72057 0.13604 0.95509 0.0
H44 H 0.88312 0.97693 0.96849 0.0
H45 H 0.70597 0.18663 0.02109 0.0
H46 H 0.6789 0.20715 -0.01026 0.0
H47 H 0.63943 0.10004 0.04567 0.0
H48 H 0.45487 0.99976 0.01335 0.0
H49 H 0.58858 0.13101 0.96773 0.0
C50 C 0.78826 0.07471 0.00946 0.0
C51 C 0.83712 0.02535 0.00012 0.0
C52 C 0.7456 0.11351 -0.0071 0.0
C53 C 0.75349 0.10391 0.96692 0.0
C54 C 0.80255 0.05409 0.95705 0.0
C55 C 0.84262 0.01426 0.97444 0.0
C56 C 0.68908 0.16263 0.00293 0.0
C57 C 0.62202 0.11998 0.00626 0.0
C58 C 0.6059 0.08948 0.02955 0.0
C59 C 0.54475 0.04738 0.03214 0.0
C60 C 0.50246 0.0321 0.01126 0.0
C61 C 0.51738 0.06269 -0.01185 0.0
C62 C 0.5772 0.10677 0.98563 0.0
H63 H 0.16425 0.276 0.22403 0.0
H64 H 0.26801 0.26524 0.29598 0.0
H65 H 0.26378 0.08152 0.24762 0.0
H66 H 0.12907 0.35887 0.25925 0.0
H67 H 0.17806 0.35868 0.28799 0.0
H68 H 0.15909 0.44921 0.23021 0.0
H69 H 0.3499 0.56954 0.2392 0.0
H70 H 0.31555 0.38022 0.28303 0.0
C71 C 0.19281 0.246 0.2381 0.0
C72 C 0.21216 0.17495 0.23331 0.0
C73 C 0.21007 0.27802 0.2612 0.0
C74 C 0.25156 0.24003 0.2786 0.0
C75 C 0.27141 0.16914 0.2736 0.0
C76 C 0.24881 0.13648 0.25146 0.0
C77 C 0.18314 0.35181 0.26739 0.0
C78 C 0.23296 0.4085 0.25775 0.0
C79 C 0.21072 0.45573 0.23901 0.0
C80 C 0.25426 0.5131 0.23227 0.0
C81 C 0.32018 0.52195 0.24387 0.0
C82 C 0.34745 0.47136 0.26078 0.0
C83 C 0.3011 0.41639 0.26841 0.0
H84 H 0.66976 0.28943 0.24351 0.0
H85 H 0.75529 0.26531 0.16902 0.0
H86 H 0.80979 0.44863 0.21363 0.0
H87 H 0.6187 0.202 0.2148 0.0
H88 H 0.64782 0.1968 0.18307 0.0
H89 H 0.65452 0.10906 0.24264 0.0
H90 H 0.79908 0.94867 0.21642 0.0
H91 H 0.77743 0.14408 0.17564 0.0
C92 C 0.70374 0.30792 0.22852 0.0
C93 C 0.73975 0.37327 0.23108 0.0
C94 C 0.71006 0.26763 0.20631 0.0
C95 C 0.7522 0.29397 0.18664 0.0
C96 C 0.78793 0.35931 0.18932 0.0
C97 C 0.78261 0.3977 0.21168 0.0
C98 C 0.66692 0.20035 0.20274 0.0
C99 C 0.70988 0.13414 0.20822 0.0
C100 C 0.69384 0.09162 0.22911 0.0
C101 C 0.72767 0.02552 0.23217 0.0
C102 C 0.77532 1.00107 0.21425 0.0
C103 C 0.79477 0.044 0.19415 0.0
C104 C 0.76302 0.11132 0.19143 0.0
H105 H 0.7476 0.71603 0.71838 0.0
H106 H 0.85762 0.7631 0.78734 0.0
H107 H 0.87061 0.55365 0.75477 0.0
H108 H 0.72438 0.82611 0.73997 0.0
H109 H 0.75872 0.84138 0.77063 0.0
H110 H 0.76643 0.90313 0.7087 0.0
H111 H 0.93302 0.05106 0.72671 0.0
H112 H 0.89477 0.87233 0.77438 0.0
C113 C 0.78225 0.69975 0.73353 0.0
C114 C 0.80649 0.6289 0.73452 0.0
C115 C 0.8025 0.74942 0.75203 0.0
C116 C 0.84501 0.72688 0.77211 0.0
C117 C 0.86897 0.65628 0.77313 0.0
C118 C 0.85139 0.60819 0.754 0.0
C119 C 0.77391 0.82439 0.75139 0.0
C120 C 0.82794 0.87724 0.74157 0.0
C121 C 0.81266 0.91655 0.71994 0.0
C122 C 0.85192 0.97816 0.71429 0.0
C123 C 0.90751 0.99993 0.72992 0.0
C124 C 0.92201 0.96242 0.75182 0.0
C125 C 0.88554 0.89849 0.75671 0.0
H126 H 0.50287 0.49472 0.04587 0.0
H127 H 0.47702 0.35389 0.98219 0.0
H128 H 0.30984 0.49873 0.00283 0.0
H129 H 0.57794 0.38942 0.0415 0.0
H130 H 0.56246 0.3264 0.01709 0.0
H131 H 0.66066 0.49136 0.03559 0.0
H132 H 0.81242 0.46701 0.9763 0.0
H133 H 0.6276 0.33233 0.97772 0.0
C134 C 0.4726 0.47652 0.02977 0.0
C135 C 0.40379 0.5036 0.0257 0.0
C136 C 0.50017 0.42257 0.014 0.0
C137 C 0.45794 0.39713 -0.00605 0.0
C138 C 0.38944 0.42522 -0.01007 0.0
C139 C 0.36344 0.47865 0.00562 0.0
C140 C 0.5685 0.38454 0.02101 0.0
C141 C 0.63348 0.41206 0.00732 0.0
C142 C 0.67593 0.46689 0.01798 0.0
C143 C 0.74081 0.4862 0.00675 0.0
C144 C 0.76163 0.45291 0.98462 0.0
C145 C 0.72222 0.39682 0.97444 0.0
C146 C 0.65746 0.37682 0.98547 0.0
H147 H 0.2293 0.55287 0.5369 0.0
H148 H 0.26544 0.66573 0.46814 0.0
H149 H 0.41431 0.50713 0.49237 0.0
H150 H 0.17321 0.6737 0.52785 0.0
H151 H 0.17881 0.71017 0.49709 0.0
H152 H 0.09189 0.57742 0.53713 0.0
H153 H 0.92949 0.52963 0.48296 0.0
H154 H 0.1126 0.65268 0.46153 0.0
C155 C 0.26033 0.56117 0.5201 0.0
C156 C 0.3244 0.52384 0.51673 0.0
C157 C 0.23954 0.61341 0.5028 0.0
C158 C 0.28077 0.62507 0.48144 0.0
C159 C 0.34289 0.58573 0.47747 0.0
C160 C 0.36434 0.53511 0.49502 0.0
C161 C 0.17566 0.65925 0.50765 0.0
C162 C 0.10961 0.61943 0.50017 0.0
C163 C 0.07226 0.58013 0.51808 0.0
C164 C 0.00731 0.54791 0.51192 0.0
C165 C 0.98099 0.5526 0.48752 0.0
C166 C 0.01912 0.58963 0.46926 0.0
C167 C 0.08411 0.62219 0.47548 0.0
C168 C 0.16704 0.68167 0.15063 0.0
C169 C 0.93625 0.55836 0.1295 0.0
C170 C 0.95199 0.64705 0.05783 0.0
Mg171 Mg 0.24918 0.82101 0.12929 0.0
Mg172 Mg 0.17581 0.94726 0.09513 0.0
O173 O 0.18332 0.85053 0.10185 0.0
Mg174 Mg 0.10349 0.78276 0.10772 0.0
O175 O 0.0313 0.70735 0.11459 0.0
Mg176 Mg 0.08246 0.62207 0.10122 0.0
Mg177 Mg 0.93351 0.71308 0.11015 0.0
C178 C 0.04292 0.89123 0.06371 0.0
O179 O 0.03285 0.86243 0.12929 0.0
O180 O 0.3362 0.89195 0.11135 0.0
O181 O 0.92054 0.81882 0.12636 0.0
O182 O 0.21535 0.91914 0.15426 0.0
O183 O 0.2835 0.96514 0.08368 0.0
O184 O 0.16525 1.00121 0.12955 0.0
O185 O 0.1695 0.69946 0.08606 0.0
O186 O 0.27584 0.72985 0.10244 0.0
C187 C 0.23723 0.69017 0.0883 0.0
C188 C 0.33909 0.93901 0.09407 0.0
O189 O 0.04751 0.8271 0.07211 0.0
O190 O 0.9973 0.55051 0.11923 0.0
O191 O 0.08386 0.94213 0.0711 0.0
O192 O 0.01156 0.62109 0.06529 0.0
O193 O 0.90293 0.61798 0.12978 0.0
O194 O 0.9158 0.68926 0.07166 0.0
O195 O 0.15933 0.74675 0.14367 0.0
O196 O 0.14192 0.62923 0.13796 0.0
C197 C 0.18662 0.98065 0.15087 0.0
C198 C 0.96554 0.86682 0.13322 0.0
C199 C 0.71057 0.84593 0.38374 0.0
C200 C 0.83559 0.61127 0.38434 0.0
C201 C 0.71705 0.56598 0.31532 0.0
Mg202 Mg 0.56027 0.89846 0.36235 0.0
Mg203 Mg 0.4318 0.79401 0.33976 0.0
O204 O 0.52859 0.81345 0.34234 0.0
Mg205 Mg 0.60271 0.74495 0.35382 0.0
O206 O 0.68254 0.68443 0.3653 0.0
Mg207 Mg 0.75898 0.7241 0.34356 0.0
Mg208 Mg 0.67747 0.58596 0.37021 0.0
C209 C 0.49502 0.6498 0.31738 0.0
O210 O 0.53501 0.69552 0.38454 0.0
O211 O 0.48123 0.96629 0.34041 0.0
O212 O 0.57988 0.58567 0.39188 0.0
O213 O 0.46796 0.88049 0.39163 0.0
O214 O 0.39971 0.89417 0.32242 0.0
O215 O 0.39431 0.79489 0.3773 0.0
O216 O 0.67259 0.79164 0.32309 0.0
O217 O 0.64054 0.90546 0.33106 0.0
C218 C 0.676 0.85903 0.31855 0.0
C219 C 0.42656 0.95621 0.3266 0.0
O220 O 0.55654 0.66129 0.32696 0.0
O221 O 0.83853 0.66149 0.36817 0.0
O222 O 0.44152 0.69161 0.32042 0.0
O223 O 0.74913 0.62659 0.31608 0.0
O224 O 0.77876 0.57566 0.38866 0.0
O225 O 0.68102 0.54207 0.33362 0.0
O226 O 0.64484 0.8283 0.38104 0.0
O227 O 0.76059 0.81456 0.37176 0.0
C228 C 0.4124 0.84066 0.39388 0.0
C229 C 0.5338 0.63512 0.39561 0.0
C230 C 0.70781 0.13996 0.64031 0.0
C231 C 0.47631 0.01314 0.64277 0.0
C232 C 0.4191 0.13067 0.57629 0.0
Mg233 Mg 0.76314 0.28863 0.6194 0.0
Mg234 Mg 0.66235 0.42461 0.60434 0.0
O235 O 0.67545 0.32683 0.60267 0.0
Mg236 Mg 0.60438 0.25352 0.61317 0.0
O237 O 0.54312 0.17196 0.62351 0.0
Mg238 Mg 0.58179 0.09472 0.60122 0.0
Mg239 Mg 0.44633 0.17292 0.63089 0.0
C240 C 0.51317 0.37783 0.5818 0.0
O241 O 0.55613 0.31804 0.64565 0.0
O242 O 0.82906 0.36781 0.59611 0.0
O243 O 0.4472 0.27068 0.65321 0.0
O244 O 0.75808 0.37444 0.65153 0.0
O245 O 0.75593 0.45599 0.5839 0.0
O246 O 0.67191 0.45278 0.64265 0.0
O247 O 0.64617 0.18364 0.58094 0.0
O248 O 0.76164 0.21105 0.58716 0.0
C249 C 0.71253 0.17713 0.5755 0.0
C250 C 0.81651 0.42475 0.58374 0.0
O251 O 0.51967 0.31177 0.58821 0.0
O252 O 0.52358 0.01219 0.62554 0.0
O253 O 0.55959 0.42587 0.58708 0.0
O254 O 0.48105 0.10175 0.57569 0.0
O255 O 0.44154 0.06952 0.64876 0.0
O256 O 0.39706 0.16703 0.59501 0.0
O257 O 0.69085 0.20613 0.63859 0.0
O258 O 0.67443 0.09122 0.62829 0.0
C259 C 0.72065 0.42964 0.65701 0.0
C260 C 0.49581 0.3179 0.65698 0.0
C261 C 0.22128 0.30791 0.91266 0.0
C262 C 0.31923 0.05693 0.9075 0.0
C263 C 0.25454 0.05702 0.83073 0.0
Mg264 Mg 0.09258 0.38456 0.88336 0.0
Mg265 Mg 0.97475 0.30547 0.84592 0.0
O266 O 0.06677 0.30912 0.85831 0.0
Mg267 Mg 0.12558 0.22916 0.87107 0.0
O268 O 0.19137 0.15669 0.88443 0.0
Mg269 Mg 0.28318 0.19601 0.87102 0.0
Mg270 Mg 0.17484 0.05976 0.87899 0.0
C271 C 0.03326 0.158 0.8238 0.0
O272 O 0.03396 0.17217 0.89285 0.0
O273 O 0.0344 0.46743 0.85872 0.0
O274 O 0.06348 0.05645 0.88876 0.0
O275 O 0.98553 0.36462 0.90548 0.0
O276 O 0.96977 0.40903 0.82952 0.0
O277 O 0.91053 0.31184 0.87835 0.0
O278 O 0.21807 0.27998 0.84875 0.0
O279 O 0.19142 0.39363 0.85907 0.0
C280 C 0.23117 0.34762 0.8481 0.0
C281 C 0.9946 0.46651 0.83924 0.0
O282 O 0.08965 0.15948 0.83739 0.0
O283 O 0.3359 0.11553 0.8968 0.0
O284 O 0.98408 0.2055 0.82521 0.0
O285 O 0.29108 0.10991 0.83911 0.0
O286 O 0.26015 0.02415 0.9035 0.0
O287 O 0.19663 0.03834 0.84096 0.0
O288 O 0.15688 0.2993 0.90491 0.0
O289 O 0.27346 0.27409 0.90297 0.0
C290 C 0.9244 0.3377 0.89986 0.0
C291 C 0.01948 0.10527 0.89532 0.0
C292 C 0.26159 0.95039 0.41942 0.0
C293 C 0.2569 0.92704 0.44456 0.0
C294 C 0.35519 0.84316 0.43669 0.0
C295 C 0.35578 0.86389 0.41133 0.0
N296 N 0.28976 0.91666 0.37716 0.0
N297 N 0.2861 0.83673 0.47492 0.0
C298 C 0.30204 0.91008 0.40221 0.0
C299 C 0.29957 0.86853 0.45252 0.0
N300 N 0.23348 0.01433 0.4122 0.0
N301 N 0.40787 0.80037 0.44569 0.0
H302 H 0.24381 0.85235 0.48634 0.0
H303 H 0.31214 0.79082 0.48088 0.0
H304 H 0.44815 0.78011 0.43427 0.0
H305 H 0.41411 0.78941 0.46463 0.0
H306 H 0.2396 0.03449 0.39425 0.0
H307 H 0.2122 0.05169 0.42457 0.0
H308 H 0.24572 0.94384 0.37013 0.0
H309 H 0.3193 0.89027 0.36351 0.0
C310 C 0.40704 0.85441 0.67928 0.0
C311 C 0.4606 0.8496 0.69794 0.0
C312 C 0.52936 0.94383 0.67773 0.0
C313 C 0.47385 0.95167 0.65989 0.0
N314 N 0.36857 0.90584 0.63981 0.0
N315 N 0.58131 0.8741 0.71101 0.0
C316 C 0.41547 0.90378 0.65935 0.0
C317 C 0.52498 0.88858 0.69564 0.0
N318 N 0.34699 0.81373 0.68145 0.0
N319 N 0.58388 0.99238 0.67867 0.0
H320 H 0.5798 0.83572 0.72496 0.0
H321 H 0.63201 0.89525 0.70849 0.0
H322 H 0.58965 0.03375 0.66591 0.0
H323 H 0.62083 0.99525 0.69316 0.0
H324 H 0.30195 0.81964 0.67032 0.0
H325 H 0.34193 0.77454 0.69513 0.0
H326 H 0.32763 0.86912 0.63714 0.0
H327 H 0.37384 0.9419 0.62514 0.0
C328 C 0.39542 0.08099 0.97076 0.0
C329 C 0.46528 0.05384 0.96751 0.0
C330 C 0.43425 0.01331 0.92521 0.0
C331 C 0.36378 0.03775 0.9291 0.0
N332 N 0.27234 0.07619 0.95782 0.0
N333 N 0.54757 0.98123 0.94388 0.0
C334 C 0.34266 0.06463 0.95274 0.0
C335 C 0.48371 0.01583 0.94539 0.0
N336 N 0.38048 0.12641 -0.0098 0.0
N337 N 0.45405 0.98957 0.90204 0.0
H338 H 0.58481 0.98191 0.95837 0.0
H339 H 0.56126 0.94734 0.92915 0.0
H340 H 0.4176 0.98351 0.88742 0.0
H341 H 0.50658 0.97893 0.89709 0.0
H342 H 0.33229 0.15337 -0.00806 0.0
H343 H 0.41852 0.1433 0.00318 0.0
H344 H 0.25374 0.08817 0.97571 0.0
H345 H 0.23184 0.06642 0.94492 0.0
C346 C 0.26385 0.11822 0.1956 0.0
C347 C 0.20207 0.14014 0.20862 0.0
C348 C 0.12868 0.07065 0.17959 0.0
C349 C 0.19111 0.03584 0.17072 0.0
N350 N 0.31998 0.03021 0.16905 0.0
N351 N 0.07451 0.13941 0.2131 0.0
C352 C 0.25936 0.06073 0.17836 0.0
C353 C 0.13389 0.11795 0.20041 0.0
N354 N 0.3264 0.15407 0.19944 0.0
N355 N 0.06487 0.05952 0.16797 0.0
H356 H 0.0763 0.17359 0.22854 0.0
H357 H 0.02358 0.12088 0.20908 0.0
H358 H 0.05809 0.0233 0.15331 0.0
H359 H 0.02009 0.09073 0.17146 0.0
H360 H 0.37235 0.14515 0.18903 0.0
H361 H 0.32985 0.19847 0.21129 0.0
H362 H 0.37039 0.03993 0.17645 0.0
H363 H 0.32028 0.99258 0.15462 0.0
C364 C 0.32317 0.12281 0.51364 0.0
C365 C 0.26365 0.07983 0.51977 0.0
C366 C 0.30368 0.07416 0.56329 0.0
C367 C 0.36659 0.11221 0.55659 0.0
N368 N 0.44267 0.15994 0.52446 0.0
N369 N 0.19908 0.00858 0.54938 0.0
C370 C 0.37823 0.13297 0.5315 0.0
C371 C 0.2538 0.05463 0.54441 0.0
N372 N 0.32636 0.15465 0.49074 0.0
N373 N 0.29257 0.05471 0.5876 0.0
H374 H 0.16034 0.99485 0.53621 0.0
H375 H 0.19381 0.98067 0.56603 0.0
H376 H 0.33141 0.05849 0.60148 0.0
H377 H 0.24392 0.03652 0.59433 0.0
H378 H 0.36491 0.1921 0.48594 0.0
H379 H 0.28632 0.14868 0.47733 0.0
H380 H 0.45706 0.16765 0.50588 0.0
H381 H 0.48412 0.16957 0.53699 0.0
C382 C 0.37171 0.98287 0.77877 0.0
C383 C 0.35392 0.90891 0.77945 0.0
C384 C 0.27853 0.93178 0.81545 0.0
C385 C 0.28657 0.00693 0.81223 0.0
N386 N 0.32843 0.10278 0.78602 0.0
N387 N 0.27163 0.81879 0.79384 0.0
C388 C 0.3292 0.03231 0.79234 0.0
C389 C 0.30091 0.88527 0.79619 0.0
N390 N 0.43112 0.00584 0.76652 0.0
N391 N 0.25581 0.9036 0.83756 0.0
H392 H 0.28433 0.78402 0.7792 0.0
H393 H 0.22901 0.80206 0.80484 0.0
H394 H 0.24924 0.93369 0.85385 0.0
H395 H 0.2542 0.84872 0.8407 0.0
H396 H 0.44864 0.05864 0.76736 0.0
H397 H 0.4673 0.97115 0.75808 0.0
H398 H 0.35481 0.12221 0.77033 0.0
H399 H 0.29507 0.13988 0.79468 0.0
C400 C 0.47411 0.06948 0.07071 0.0
C401 C 0.51835 0.02307 0.05664 0.0
C402 C 0.45769 0.91873 0.07344 0.0
C403 C 0.40907 0.96529 0.08567 0.0
N404 N 0.38533 0.08139 0.10334 0.0
N405 N 0.57024 0.90732 0.05136 0.0
C406 C 0.42258 0.03965 0.08691 0.0
C407 C 0.51676 0.94874 0.06076 0.0
N408 N 0.47741 0.1415 0.06701 0.0
N409 N 0.44435 0.84704 0.07207 0.0
H410 H 0.61321 0.92959 0.04177 0.0
H411 H 0.57545 0.85308 0.05509 0.0
H412 H 0.4012 0.82279 0.0808 0.0
H413 H 0.47358 0.81196 0.06094 0.0
H414 H 0.44008 0.17734 0.07409 0.0
H415 H 0.51624 0.16531 0.05594 0.0
H416 H 0.39685 0.13501 0.10668 0.0
H417 H 0.34712 0.06039 0.11538 0.0
C418 C 0.38357 0.10005 0.27938 0.0
C419 C 0.3201 0.12812 0.29001 0.0
C420 C 0.34362 0.06034 0.32788 0.0
C421 C 0.39458 0.01926 0.31471 0.0
N422 N 0.4667 1.00125 0.27797 0.0
N423 N 0.23633 0.13009 0.32435 0.0
C424 C 0.41605 0.03969 0.29045 0.0
C425 C 0.29953 0.1079 0.31444 0.0
N426 N 0.41293 0.132 0.25895 0.0
N427 N 0.33885 0.05588 0.35324 0.0
H428 H 0.20113 0.16347 0.31497 0.0
H429 H 0.21644 0.11032 0.34113 0.0
H430 H 0.37251 0.02352 0.36375 0.0
H431 H 0.30792 0.09101 0.36378 0.0
H432 H 0.46191 0.11732 0.25143 0.0
H433 H 0.3917 0.17844 0.25129 0.0
H434 H 0.47904 0.0092 0.25921 0.0
H435 H 0.4936 0.95851 0.28604 0.0
C436 C 0.79215 0.16114 0.51197 0.0
C437 C 0.83331 0.09862 0.5158 0.0
C438 C 0.77036 0.07506 0.55482 0.0
C439 C 0.73554 0.14143 0.55248 0.0
N440 N 0.71101 0.24872 0.52956 0.0
N441 N 0.86619 0.9977 0.54098 0.0
C442 C 0.74494 0.18429 0.53102 0.0
C443 C 0.8236 0.05586 0.53728 0.0
N444 N 0.79762 0.19747 0.48995 0.0
N445 N 0.7513 0.03049 0.57376 0.0
H446 H 0.90564 0.98224 0.52835 0.0
H447 H 0.86635 0.9678 0.5573 0.0
H448 H 0.70997 0.04319 0.58597 0.0
H449 H 0.7708 0.97894 0.57591 0.0
H450 H 0.76344 0.2384 0.48471 0.0
H451 H 0.83476 0.18452 0.47617 0.0
H452 H 0.72226 0.28718 0.51619 0.0
H453 H 0.67278 0.26495 0.54254 0.0
C454 C 0.65999 0.92804 0.25315 0.0
C455 C 0.71505 0.97977 0.25408 0.0
C456 C 0.75976 0.92912 0.29317 0.0
C457 C 0.69934 0.88434 0.29398 0.0
N458 N 0.58924 0.84205 0.27583 0.0
N459 N 0.81617 0.03301 0.27493 0.0
C460 C 0.64928 0.88306 0.27404 0.0
C461 C 0.76504 0.98099 0.27403 0.0
N462 N 0.61856 0.92151 0.2322 0.0
N463 N 0.81174 0.92146 0.31085 0.0
H464 H 0.82155 0.07185 0.26117 0.0
H465 H 0.85013 0.04108 0.29008 0.0
H466 H 0.8086 0.88264 0.32473 0.0
H467 H 0.86013 0.94851 0.31056 0.0
H468 H 0.58319 0.8795 0.22916 0.0
H469 H 0.62277 0.95572 0.21696 0.0
H470 H 0.54634 0.84545 0.26355 0.0
H471 H 0.58038 0.80684 0.29049 0.0
C472 C 0.86451 0.93245 0.03253 0.0
C473 C 0.88804 0.98785 0.01661 0.0
C474 C 0.01154 0.95621 0.0252 0.0
C475 C 0.98888 0.91049 0.04459 0.0
N476 N 0.89185 0.85585 0.0674 0.0
N477 N 0.98418 0.06043 0.00079 0.0
C478 C 0.91476 0.89793 0.0483 0.0
C479 C 0.96172 1.00191 0.01375 0.0
N480 N 0.79465 0.91186 0.03219 0.0
N481 N 0.08089 0.95506 0.01753 0.0
H482 H 0.94918 0.09704 -0.00718 0.0
H483 H 0.03726 0.07652 0.00015 0.0
H484 H 0.11811 0.91973 0.025 0.0
H485 H 0.0991 0.98294 0.002 0.0
H486 H 0.77555 0.86712 0.04149 0.0
H487 H 0.75637 0.93626 0.021 0.0
H488 H 0.83885 0.85238 0.07292 0.0
H489 H 0.92609 0.82781 0.07893 0.0
C490 C 0.03033 0.02492 0.76953 0.0
C491 C 0.95886 1.00106 0.77237 0.0
C492 C 0.95486 0.05653 0.81345 0.0
C493 C 0.01806 0.09414 0.80826 0.0
N494 N 0.11907 0.11365 0.78146 0.0
N495 N 0.84754 0.01068 0.79541 0.0
C496 C 0.05764 0.07751 0.78646 0.0
C497 C 0.91955 0.02067 0.79398 0.0
N498 N 0.07142 0.99747 0.75078 0.0
N499 N 0.92893 0.05456 0.83716 0.0
H500 H 0.81655 0.99092 0.78078 0.0
H501 H 0.81721 0.03048 0.81023 0.0
H502 H 0.95837 0.07526 0.85195 0.0
H503 H 0.88505 0.02381 0.84229 0.0
H504 H 0.12553 0.00836 0.74897 0.0
H505 H 0.05243 0.95872 0.73832 0.0
H506 H 0.14651 0.10895 0.76463 0.0
H507 H 0.14072 0.1512 0.79381 0.0
C508 C 0.78901 0.90173 0.44447 0.0
C509 C 0.82584 0.96465 0.43732 0.0
C510 C 0.77107 0.95897 0.39593 0.0
C511 C 0.73344 0.89685 0.40321 0.0
N512 N 0.6914 0.82015 0.43605 0.0
N513 N 0.83492 0.06477 0.4092 0.0
C514 C 0.73678 0.87244 0.42817 0.0
C515 C 0.8119 0.99689 0.41391 0.0
N516 N 0.80617 0.86851 0.46637 0.0
N517 N 0.76927 0.98062 0.37162 0.0
H518 H 0.86342 0.09543 0.42212 0.0
H519 H 0.81988 0.09332 0.39341 0.0
H520 H 0.73598 0.95694 0.35838 0.0
H521 H 0.8031 0.01948 0.36442 0.0
H522 H 0.78455 0.82002 0.47197 0.0
H523 H 0.84711 0.88612 0.47809 0.0
H524 H 0.68709 0.80436 0.45461 0.0
H525 H 0.65301 0.79706 0.42447 0.0
C526 C 0.91314 0.98769 0.18694 0.0
C527 C 0.8494 0.01602 0.17664 0.0
C528 C 0.8853 0.97127 0.13569 0.0
C529 C 0.93732 0.92832 0.14725 0.0
N530 N 1.00044 0.89319 0.18457 0.0
N531 N 0.77024 0.02554 0.14085 0.0
C532 C 0.95194 0.93627 0.17307 0.0
C533 C 0.83452 0.00668 0.15076 0.0
N534 N 0.93585 0.00956 0.21003 0.0
N535 N 0.88468 0.9779 0.11033 0.0
H536 H 0.72874 0.04684 0.15136 0.0
H537 H 0.75561 0.01301 0.12253 0.0
H538 H 0.92501 0.95594 0.09935 0.0
H539 H 0.85044 0.01228 0.10091 0.0
H540 H 0.98441 0.9942 0.21772 0.0
H541 H 0.90977 0.04942 0.2202 0.0
H542 H 0.00687 0.89151 0.20391 0.0
H543 H 0.03123 0.85582 0.17497 0.0
C544 C 0.82276 0.1094 0.9142 0.0
C545 C 0.82147 0.04835 0.92956 0.0
C546 C 0.93865 0.01452 0.9164 0.0
C547 C 0.9481 0.08246 0.90487 0.0
N548 N 0.88379 0.17056 0.88082 0.0
N549 N 0.85077 0.92431 0.92649 0.0
C550 C 0.88562 0.12382 0.90017 0.0
C551 C 0.86897 0.99377 0.92283 0.0
N552 N 0.76295 0.1494 0.91142 0.0
N553 N 0.99459 0.97328 0.92383 0.0
H554 H 0.79999 0.91074 0.93287 0.0
H555 H 0.88423 0.88221 0.92143 0.0
H556 H 0.04714 0.99088 0.924 0.0
H557 H 0.98722 0.92542 0.93335 0.0
H558 H 0.76298 0.20034 0.90371 0.0
H559 H 0.71299 0.12877 0.91592 0.0
H560 H 0.83718 0.19468 0.87459 0.0
H561 H 0.92721 0.17956 0.86924 0.0
C562 C 0.84808 0.02776 0.67081 0.0
C563 C 0.82371 0.02919 0.69585 0.0
C564 C 0.73194 0.11601 0.68525 0.0
C565 C 0.75609 0.1151 0.66013 0.0
N566 N 0.84469 0.08254 0.62976 0.0
N567 N 0.75573 0.08743 0.72843 0.0
C568 C 0.81706 0.07509 0.65321 0.0
C569 C 0.7704 0.07804 0.70358 0.0
N570 N 0.89896 0.97957 0.66379 0.0
N571 N 0.66856 0.14743 0.6912 0.0
H572 H 0.78053 0.0585 0.74254 0.0
H573 H 0.72332 0.12826 0.73521 0.0
H574 H 0.63703 0.17312 0.67808 0.0
H575 H 0.64377 0.14203 0.70849 0.0
H576 H 0.91385 0.97031 0.64532 0.0
H577 H 0.92393 0.9457 0.67649 0.0
H578 H 0.89213 0.05925 0.6239 0.0
H579 H 0.82282 0.11741 0.61673 0.0
C580 C 0.74545 0.3832 0.92928 0.0
C581 C 0.75604 0.35703 0.95361 0.0
C582 C 0.86829 0.30146 0.94052 0.0
C583 C 0.86484 0.3407 0.91797 0.0
N584 N 0.79954 0.41911 0.89036 0.0
N585 N 0.82309 0.2865 0.98268 0.0
C586 C 0.80248 0.38037 0.91192 0.0
C587 C 0.81544 0.3131 0.95911 0.0
N588 N 0.68122 0.41244 0.92318 0.0
N589 N 0.92136 0.25267 0.94396 0.0
H590 H 0.78363 0.29234 -0.00375 0.0
H591 H 0.86888 0.26118 -0.01095 0.0
H592 H 0.96133 0.24383 0.9308 0.0
H593 H 0.92258 0.21694 0.95878 0.0
H594 H 0.66717 0.42733 0.90512 0.0
H595 H 0.63932 0.41508 0.93594 0.0
H596 H 0.75931 0.45544 0.88635 0.0
H597 H 0.83992 0.41923 0.87706 0.0
C598 C 0.90333 0.40101 0.17251 0.0
C599 C 0.8293 0.39187 0.16883 0.0
C600 C 0.83309 0.47531 0.13393 0.0
C601 C 0.90266 0.49592 0.14138 0.0
N602 N 0.00307 0.482 0.16938 0.0
N603 N 0.72156 0.42233 0.14664 0.0
C604 C 0.93836 0.45886 0.16079 0.0
C605 C 0.79362 0.42854 0.14939 0.0
N606 N 0.93932 0.35525 0.18775 0.0
N607 N 0.80527 0.49967 0.11195 0.0
H608 H 0.69067 0.38783 0.15732 0.0
H609 H 0.69185 0.45473 0.13481 0.0
H610 H 0.83363 0.53276 0.0999 0.0
H611 H 0.75735 0.48118 0.10449 0.0
H612 H 0.99453 0.3554 0.18961 0.0
H613 H 0.91414 0.31245 0.1965 0.0
H614 H 0.02759 0.46142 0.18525 0.0
H615 H 0.02966 0.52609 0.16213 0.0
C616 C 0.94091 0.66245 0.44203 0.0
C617 C 0.98477 0.60164 0.44474 0.0
C618 C 0.94218 0.55426 0.40447 0.0
C619 C 0.89154 0.61008 0.40367 0.0
N620 N 0.83603 0.71275 0.42302 0.0
N621 N 0.029 0.48922 0.42925 0.0
C622 C 0.88979 0.66358 0.42259 0.0
C623 C 0.98653 0.54761 0.42599 0.0
N624 N 0.94752 0.71893 0.45823 0.0
N625 N 0.9478 0.50829 0.38463 0.0
H626 H 0.06429 0.48479 0.44425 0.0
H627 H 0.02753 0.44417 0.41777 0.0
H628 H 0.91524 0.51208 0.36886 0.0
H629 H 0.98747 0.46986 0.38293 0.0
H630 H 0.9232 0.76813 0.45535 0.0
H631 H 0.98226 0.71917 0.47344 0.0
H632 H 0.82624 0.7458 0.43829 0.0
H633 H 0.79696 0.7165 0.40924 0.0
C634 C 0.80387 0.58963 0.68972 0.0
C635 C 0.78582 0.57621 0.71492 0.0
C636 C 0.73694 0.45938 0.70264 0.0
C637 C 0.7449 0.47819 0.67722 0.0
N638 N 0.77766 0.56672 0.64637 0.0
N639 N 0.72533 0.50275 0.74522 0.0
C640 C 0.77557 0.54507 0.67071 0.0
C641 C 0.74992 0.51201 0.72142 0.0
N642 N 0.85117 0.6426 0.68397 0.0
N643 N 0.71696 0.39168 0.70882 0.0
H644 H 0.72932 0.54201 0.75907 0.0
H645 H 0.69553 0.45878 0.75071 0.0
H646 H 0.70457 0.35278 0.69545 0.0
H647 H 0.71886 0.37252 0.72704 0.0
H648 H 0.87194 0.64958 0.66609 0.0
H649 H 0.87592 0.67458 0.69745 0.0
H650 H 0.79092 0.61862 0.64121 0.0
H651 H 0.76171 0.53493 0.63135 0.0
C652 C 0.79459 0.60681 0.01653 0.0
C653 C 0.79515 0.5315 0.01941 0.0
C654 C 0.91864 0.53753 0.03379 0.0
C655 C 0.91271 0.61233 0.03662 0.0
N656 N 0.85329 0.72056 0.02522 0.0
N657 N 0.85554 0.42531 0.03356 0.0
C658 C 0.85302 0.64776 0.02606 0.0
C659 C 0.85658 0.49699 0.02895 0.0
N660 N 0.73893 0.63845 0.00444 0.0
N661 N 0.98381 0.50553 0.03444 0.0
H662 H 0.8105 0.39366 0.03064 0.0
H663 H 0.89705 0.39903 0.04258 0.0
H664 H 0.03095 0.53498 0.03453 0.0
H665 H 0.99118 0.45126 0.03089 0.0
H666 H 0.73712 0.6923 -0.0001 0.0
H667 H 0.69479 0.60973 -0.00194 0.0
H668 H 0.80976 0.75146 0.02014 0.0
H669 H 0.89898 0.74987 0.02963 0.0
C670 C 0.76417 0.40265 0.27611 0.0
C671 C 0.73026 0.42005 0.25328 0.0
C672 C 0.69814 0.53828 0.26985 0.0
C673 C 0.72605 0.51832 0.29341 0.0
N674 N 0.78485 0.43194 0.3197 0.0
N675 N 0.65826 0.49975 0.22874 0.0
C676 C 0.75853 0.4504 0.29677 0.0
C677 C 0.69549 0.48676 0.25024 0.0
N678 N 0.80513 0.34244 0.27757 0.0
N679 N 0.67427 0.60636 0.26623 0.0
H680 H 0.65196 0.4618 0.21454 0.0
H681 H 0.62954 0.54607 0.22547 0.0
H682 H 0.67058 0.64424 0.28052 0.0
H683 H 0.66227 0.62724 0.24875 0.0
H684 H 0.83818 0.33076 0.29262 0.0
H685 H 0.8103 0.30592 0.26288 0.0
H686 H 0.79964 0.3802 0.32439 0.0
H687 H 0.78979 0.46797 0.33456 0.0
C688 C 0.93463 0.55704 0.55102 0.0
C689 C 0.96349 0.51429 0.53154 0.0
C690 C 0.89683 0.41095 0.54655 0.0
C691 C 0.87242 0.45268 0.5671 0.0
N692 N 0.88572 0.55791 0.59273 0.0
N693 N 0.98523 0.3974 0.51394 0.0
C694 C 0.89671 0.52355 0.57051 0.0
C695 C 0.94877 0.44009 0.5303 0.0
N696 N 0.94046 0.62976 0.55041 0.0
N697 N 0.86809 0.34514 0.54178 0.0
H698 H 0.02421 0.417 0.50192 0.0
H699 H 0.98161 0.34189 0.51395 0.0
H700 H 0.82939 0.32182 0.55303 0.0
H701 H 0.87827 0.31613 0.52549 0.0
H702 H 0.91406 0.66327 0.56296 0.0
H703 H 0.96567 0.65708 0.53599 0.0
H704 H 0.90741 0.60775 0.59702 0.0
H705 H 0.86264 0.53224 0.60789 0.0
C706 C 0.9823 0.61121 0.791 0.0
C707 C 0.90995 0.62954 0.79467 0.0
C708 C 0.90961 0.5662 0.83439 0.0
C709 C 0.97481 0.53434 0.82753 0.0
N710 N 0.07863 0.53021 0.80136 0.0
N711 N 0.80366 0.62669 0.82003 0.0
C712 C 0.01361 0.55906 0.80667 0.0
C713 C 0.87367 0.60927 0.81677 0.0
N714 N 0.01987 0.64297 0.77225 0.0
N715 N 0.88226 0.55451 0.85764 0.0
H716 H 0.77559 0.65901 0.80769 0.0
H717 H 0.77222 0.60586 0.83425 0.0
H718 H 0.90939 0.52443 0.87095 0.0
H719 H 0.83732 0.58041 0.86455 0.0
H720 H 0.07423 0.63594 0.76949 0.0
H721 H 0.99729 0.68158 0.76071 0.0
H722 H 0.10656 0.54035 0.785 0.0
H723 H 0.10377 0.49411 0.81324 0.0
C724 C 0.33599 0.52529 0.06527 0.0
C725 C 0.36847 0.55302 0.04347 0.0
C726 C 0.30472 0.66601 0.04915 0.0
C727 C 0.27581 0.63987 0.07182 0.0
N728 N 0.27558 0.55071 0.10414 0.0
N729 N 0.39422 0.65246 0.01674 0.0
C730 C 0.29487 0.57126 0.08068 0.0
C731 C 0.35595 0.62439 0.03605 0.0
N732 N 0.34189 0.45431 0.07073 0.0
N733 N 0.28256 0.73036 0.04006 0.0
H734 H 0.43244 0.62309 0.00696 0.0
H735 H 0.39293 0.7061 0.01182 0.0
H736 H 0.24568 0.76262 0.04932 0.0
H737 H 0.29622 0.7494 0.02247 0.0
H738 H 0.31209 0.42945 0.08459 0.0
H739 H 0.37278 0.41886 0.06028 0.0
H740 H 0.29523 0.50516 0.11282 0.0
H741 H 0.24423 0.58231 0.11571 0.0
C742 C 0.3891 0.44569 0.82052 0.0
C743 C 0.35668 0.47208 0.79841 0.0
C744 C 0.25205 0.39689 0.806 0.0
C745 C 0.28066 0.37758 0.82953 0.0
N746 N 0.37216 0.38979 0.86083 0.0
N747 N 0.25308 0.4817 0.77198 0.0
C748 C 0.34809 0.40369 0.83726 0.0
C749 C 0.28682 0.45004 0.79169 0.0
N750 N 0.45971 0.45796 0.82502 0.0
N751 N 0.19117 0.36469 0.79751 0.0
H752 H 0.27575 0.52333 0.76185 0.0
H753 H 0.20057 0.47133 0.76695 0.0
H754 H 0.16413 0.32585 0.80768 0.0
H755 H 0.171 0.37141 0.77954 0.0
H756 H 0.48781 0.43356 0.83942 0.0
H757 H 0.49187 0.48794 0.81318 0.0
H758 H 0.41655 0.41468 0.86871 0.0
H759 H 0.34512 0.35614 0.87302 0.0
C760 C 0.37722 0.50911 0.55978 0.0
C761 C 0.35534 0.47836 0.53665 0.0
C762 C 0.42995 0.37399 0.54462 0.0
C763 C 0.44928 0.40316 0.5682 0.0
N764 N 0.42476 0.48854 0.60108 0.0
N765 N 0.34341 0.37266 0.51105 0.0
C766 C 0.41633 0.4669 0.57682 0.0
C767 C 0.37532 0.40736 0.5306 0.0
N768 N 0.36709 0.58013 0.56467 0.0
N769 N 0.46806 0.3193 0.53434 0.0
H770 H 0.3028 0.39598 0.50056 0.0
H771 H 0.35232 0.31883 0.50708 0.0
H772 H 0.51052 0.29484 0.54342 0.0
H773 H 0.46178 0.30332 0.51576 0.0
H774 H 0.38957 0.60617 0.58005 0.0
H775 H 0.3426 0.61512 0.55234 0.0
H776 H 0.39618 0.53069 0.60896 0.0
H777 H 0.45545 0.46017 0.61385 0.0
C778 C 0.43533 0.46635 0.29696 0.0
C779 C 0.42063 0.48326 0.27183 0.0
C780 C 0.49171 0.59106 0.27536 0.0
C781 C 0.48525 0.58589 0.30168 0.0
N782 N 0.46794 0.51186 0.33791 0.0
N783 N 0.47723 0.52964 0.23536 0.0
C784 C 0.46341 0.52077 0.31269 0.0
C785 C 0.46515 0.53426 0.26044 0.0
N786 N 0.43196 0.39719 0.30453 0.0
N787 N 0.5183 0.65157 0.2648 0.0
H788 H 0.45736 0.48666 0.22491 0.0
H789 H 0.50875 0.56537 0.2255 0.0
H790 H 0.53953 0.6932 0.27549 0.0
H791 H 0.51751 0.66119 0.24566 0.0
H792 H 0.44679 0.38057 0.32234 0.0
H793 H 0.42416 0.35582 0.29162 0.0
H794 H 0.44507 0.4688 0.34717 0.0
H795 H 0.49364 0.5488 0.34948 0.0
C796 C 0.331 0.43511 0.94812 0.0
C797 C 0.34047 0.39652 0.97059 0.0
C798 C 0.24651 0.31251 0.958 0.0
C799 C 0.23919 0.34986 0.93522 0.0
N800 N 0.25559 0.45728 0.9121 0.0
N801 N 0.29772 0.30839 -0.0003 0.0
C802 C 0.27544 0.41491 0.93151 0.0
C803 C 0.29495 0.33829 0.97646 0.0
N804 N 0.37631 0.48979 0.94241 0.0
N805 N 0.20937 0.25052 0.96129 0.0
H806 H 0.33445 0.32407 0.01333 0.0
H807 H 0.26118 0.27097 0.00609 0.0
H808 H 0.17117 0.23282 0.94847 0.0
H809 H 0.21717 0.21608 0.97621 0.0
H810 H 0.37654 0.51547 0.92521 0.0
H811 H 0.41761 0.50603 0.95422 0.0
H812 H 0.27638 0.50792 0.90888 0.0
H813 H 0.21172 0.4443 0.90103 0.0
C814 C 0.52191 0.4123 0.71915 0.0
C815 C 0.47382 0.46996 0.71648 0.0
C816 C 0.43648 0.42592 0.67535 0.0
C817 C 0.48589 0.36923 0.67768 0.0
N818 N 0.56482 0.299 0.70301 0.0
N819 N 0.39237 0.53879 0.69162 0.0
C820 C 0.52629 0.36017 0.69988 0.0
C821 C 0.43335 0.47907 0.69437 0.0
N822 N 0.56224 0.40751 0.74042 0.0
N823 N 0.38976 0.42637 0.65573 0.0
H824 H 0.38779 0.5779 0.7055 0.0
H825 H 0.36724 0.55265 0.675 0.0
H826 H 0.38996 0.38761 0.64164 0.0
H827 H 0.34739 0.46176 0.65419 0.0
H828 H 0.59858 0.36724 0.74411 0.0
H829 H 0.56175 0.44646 0.75446 0.0
H830 H 0.59404 0.28622 0.71886 0.0
H831 H 0.56345 0.25738 0.69007 0.0
C832 C 0.45808 0.63178 0.46092 0.0
C833 C 0.38976 0.60236 0.45614 0.0
C834 C 0.41157 0.60762 0.41115 0.0
C835 C 0.48323 0.62617 0.4162 0.0
N836 N 0.57748 0.65217 0.44571 0.0
N837 N 0.30383 0.55353 0.42702 0.0
C838 C 0.50744 0.63689 0.44106 0.0
C839 C 0.36681 0.58819 0.43131 0.0
N840 N 0.47447 0.65802 0.48417 0.0
N841 N 0.38606 0.60975 0.38723 0.0
H842 H 0.26996 0.53739 0.44135 0.0
H843 H 0.2881 0.53529 0.40942 0.0
H844 H 0.41737 0.625 0.3721 0.0
H845 H 0.33245 0.60331 0.38276 0.0
H846 H 0.52068 0.68678 0.48808 0.0
H847 H 0.43859 0.65783 0.49903 0.0
H848 H 0.59966 0.65214 0.46357 0.0
H849 H 0.61482 0.66052 0.43161 0.0
C850 C 0.27715 0.57036 0.19091 0.0
C851 C 0.23354 0.56433 0.21247 0.0
C852 C 0.1542 0.65652 0.19598 0.0
C853 C 0.1991 0.66298 0.17485 0.0
N854 N 0.31424 0.64573 0.15675 0.0
N855 N 0.14124 0.61471 0.23855 0.0
C856 C 0.26456 0.62657 0.17399 0.0
C857 C 0.17527 0.6116 0.21602 0.0
N858 N 0.32811 0.52028 0.18585 0.0
N859 N 0.09003 0.69065 0.1963 0.0
H860 H 0.15577 0.58313 0.2537 0.0
H861 H 0.10278 0.65282 0.24287 0.0
H862 H 0.07494 0.7264 0.18239 0.0
H863 H 0.05093 0.68109 0.20966 0.0
H864 H 0.35671 0.51892 0.16918 0.0
H865 H 0.33668 0.47578 0.19707 0.0
H866 H 0.36545 0.62449 0.15621 0.0
H867 H 0.30611 0.68919 0.14505 0.0
loop_
_geom_bond_atom_site_label_1
_geom_bond_atom_site_label_2
_geom_bond_distance
_geom_bond_site_symmetry_2
_ccdc_geom_bond_type
H0 C8 0.930 . S
H1 C11 0.930 . S
H2 C13 0.930 1_565 S
H3 C14 0.970 . S
H4 C14 0.970 . S
H5 C16 0.930 1_565 S
H6 C18 0.932 . S
H7 C20 0.930 . S
C8 H0 0.930 . S
C8 C9 1.382 1_545 S
C8 C10 1.426 . S
C9 C8 1.382 1_565 S
C9 C13 1.389 1_565 S
C10 C8 1.426 . S
C10 C11 1.375 . S
C10 C14 1.532 1_655 S
C11 H1 0.930 . S
C11 C10 1.375 . S
C11 C12 1.416 . S
C12 C11 1.416 . S
C12 C13 1.371 . S
C13 H2 0.930 1_545 S
C13 C9 1.389 1_545 S
C13 C12 1.371 . S
C14 H3 0.970 . S
C14 H4 0.970 . S
C14 C10 1.532 1_455 S
C14 C15 1.499 . S
C15 C14 1.499 . S
C15 C16 1.370 . S
C15 C20 1.415 . S
C16 H5 0.930 1_545 S
C16 C15 1.370 . S
C16 C17 1.407 1_545 S
C17 C16 1.407 1_565 S
C17 C18 1.366 . S
C18 H6 0.932 . S
C18 C17 1.366 . S
C18 C19 1.390 1_565 S
C19 C18 1.390 1_545 S
C19 C20 1.387 . S
C20 H7 0.930 . S
C20 C15 1.415 . S
C20 C19 1.387 . S
H21 C29 0.930 . S
H22 C32 0.930 . S
H23 C34 0.930 . S
H24 C35 0.970 . S
H25 C35 0.970 . S
H26 C37 0.930 . S
H27 C39 0.930 . S
H28 C41 0.930 . S
C29 H21 0.930 . S
C29 C30 1.382 . S
C29 C31 1.426 . S
C30 C29 1.382 . S
C30 C34 1.389 . S
C31 C29 1.426 . S
C31 C32 1.375 . S
C31 C35 1.532 . S
C32 H22 0.930 . S
C32 C31 1.375 . S
C32 C33 1.416 . S
C33 C32 1.416 . S
C33 C34 1.371 . S
C34 H23 0.930 . S
C34 C30 1.389 . S
C34 C33 1.371 . S
C35 H24 0.970 . S
C35 H25 0.970 . S
C35 C31 1.532 . S
C35 C36 1.499 . S
C36 C35 1.499 . S
C36 C37 1.370 . S
C36 C41 1.415 . S
C37 H26 0.930 . S
C37 C36 1.370 . S
C37 C38 1.407 . S
C38 C37 1.407 . S
C38 C39 1.365 . S
C39 H27 0.930 . S
C39 C38 1.365 . S
C39 C40 1.393 . S
C40 C39 1.393 . S
C40 C41 1.387 . S
C41 H28 0.930 . S
C41 C36 1.415 . S
C41 C40 1.387 . S
H42 C50 0.930 1_565 S
H43 C53 0.930 . S
H44 C55 0.934 . S
H45 C56 0.970 . S
H46 C56 0.970 . S
H47 C58 0.930 1_565 S
H48 C60 0.930 . S
H49 C62 0.930 . S
C50 H42 0.930 1_545 S
C50 C51 1.382 1_545 S
C50 C52 1.426 . S
C51 C50 1.382 1_565 S
C51 C55 1.377 1_554 S
C52 C50 1.426 . S
C52 C53 1.375 1_554 S
C52 C56 1.532 . S
C53 H43 0.930 . S
C53 C52 1.375 1_556 S
C53 C54 1.416 . S
C54 C53 1.416 . S
C54 C55 1.379 1_545 S
C55 H44 0.934 . S
C55 C51 1.377 1_556 S
C55 C54 1.379 1_565 S
C56 H45 0.970 . S
C56 H46 0.970 . S
C56 C52 1.532 . S
C56 C57 1.499 . S
C57 C56 1.499 . S
C57 C58 1.370 . S
C57 C62 1.415 1_554 S
C58 H47 0.930 1_545 S
C58 C57 1.370 . S
C58 C59 1.407 1_545 S
C59 C58 1.407 1_565 S
C59 C60 1.365 1_554 S
C60 H48 0.930 . S
C60 C59 1.365 1_556 S
C60 C61 1.393 1_565 S
C61 C60 1.393 1_545 S
C61 C62 1.387 . S
C62 H49 0.930 . S
C62 C57 1.415 1_556 S
C62 C61 1.387 . S
H63 C71 0.930 . S
H64 C74 0.930 . S
H65 C76 0.930 . S
H66 C77 0.970 . S
H67 C77 0.970 . S
H68 C79 0.930 . S
H69 C81 0.930 . S
H70 C83 0.930 . S
C71 H63 0.930 . S
C71 C72 1.382 . S
C71 C73 1.426 . S
C72 C71 1.382 . S
C72 C76 1.389 . S
C73 C71 1.426 . S
C73 C74 1.375 . S
C73 C77 1.532 . S
C74 H64 0.930 . S
C74 C73 1.375 . S
C74 C75 1.416 . S
C75 C74 1.416 . S
C75 C76 1.371 . S
C76 H65 0.930 . S
C76 C72 1.389 . S
C76 C75 1.371 . S
C77 H66 0.970 . S
C77 H67 0.970 . S
C77 C73 1.532 . S
C77 C78 1.499 . S
C78 C77 1.499 . S
C78 C79 1.370 . S
C78 C83 1.415 . S
C79 H68 0.930 . S
C79 C78 1.370 . S
C79 C80 1.407 . S
C80 C79 1.407 . S
C80 C81 1.365 . S
C81 H69 0.930 . S
C81 C80 1.365 . S
C81 C82 1.393 . S
C82 C81 1.393 . S
C82 C83 1.387 . S
C83 H70 0.930 . S
C83 C78 1.415 . S
C83 C82 1.387 . S
H84 C92 0.930 . S
H85 C95 0.930 . S
H86 C97 0.930 . S
H87 C98 0.970 . S
H88 C98 0.970 . S
H89 C100 0.930 . S
H90 C102 0.930 . S
H91 C104 0.930 . S
C92 H84 0.930 . S
C92 C93 1.382 . S
C92 C94 1.426 . S
C93 C92 1.382 . S
C93 C97 1.389 . S
C94 C92 1.426 . S
C94 C95 1.375 . S
C94 C98 1.532 . S
C95 H85 0.930 . S
C95 C94 1.375 . S
C95 C96 1.416 . S
C96 C95 1.416 . S
C96 C97 1.371 . S
C97 H86 0.930 . S
C97 C93 1.389 . S
C97 C96 1.371 . S
C98 H87 0.970 . S
C98 H88 0.970 . S
C98 C94 1.532 . S
C98 C99 1.499 . S
C99 C98 1.499 . S
C99 C100 1.370 . S
C99 C104 1.415 . S
C100 H89 0.930 . S
C100 C99 1.370 . S
C100 C101 1.407 . S
C101 C100 1.407 . S
C101 C102 1.365 1_545 S
C102 H90 0.930 . S
C102 C101 1.365 1_565 S
C102 C103 1.393 1_565 S
C103 C102 1.393 1_545 S
C103 C104 1.387 . S
C104 H91 0.930 . S
C104 C99 1.415 . S
C104 C103 1.387 . S
H105 C113 0.930 . S
H106 C116 0.930 . S
H107 C118 0.930 . S
H108 C119 0.970 . S
H109 C119 0.970 . S
H110 C121 0.930 . S
H111 C123 0.930 . S
H112 C125 0.930 . S
C113 H105 0.930 . S
C113 C114 1.382 . S
C113 C115 1.426 . S
C114 C113 1.382 . S
C114 C118 1.389 . S
C115 C113 1.426 . S
C115 C116 1.375 . S
C115 C119 1.532 . S
C116 H106 0.930 . S
C116 C115 1.375 . S
C116 C117 1.416 . S
C117 C116 1.416 . S
C117 C118 1.371 . S
C118 H107 0.930 . S
C118 C114 1.389 . S
C118 C117 1.371 . S
C119 H108 0.970 . S
C119 H109 0.970 . S
C119 C115 1.532 . S
C119 C120 1.499 . S
C120 C119 1.499 . S
C120 C121 1.370 . S
C120 C125 1.415 . S
C121 H110 0.930 . S
C121 C120 1.370 . S
C121 C122 1.407 . S
C122 C121 1.407 . S
C122 C123 1.365 1_565 S
C123 H111 0.930 . S
C123 C122 1.365 1_545 S
C123 C124 1.393 1_545 S
C124 C123 1.393 1_565 S
C124 C125 1.387 . S
C125 H112 0.930 . S
C125 C120 1.415 . S
C125 C124 1.387 . S
H126 C134 0.930 . S
H127 C137 0.930 . S
H128 C139 0.926 1_556 S
H129 C140 0.970 . S
H130 C140 0.970 . S
H131 C142 0.930 . S
H132 C144 0.930 . S
H133 C146 0.930 . S
C134 H126 0.930 . S
C134 C135 1.382 . S
C134 C136 1.426 . S
C135 C134 1.382 . S
C135 C139 1.399 . S
C136 C134 1.426 . S
C136 C137 1.375 1_554 S
C136 C140 1.532 . S
C137 H127 0.930 . S
C137 C136 1.375 1_556 S
C137 C138 1.416 . S
C138 C137 1.416 . S
C138 C139 1.365 1_556 S
C139 H128 0.926 1_554 S
C139 C135 1.399 . S
C139 C138 1.365 1_554 S
C140 H129 0.970 . S
C140 H130 0.970 . S
C140 C136 1.532 . S
C140 C141 1.499 . S
C141 C140 1.499 . S
C141 C142 1.370 . S
C141 C146 1.415 1_554 S
C142 H131 0.930 . S
C142 C141 1.370 . S
C142 C143 1.407 . S
C143 C142 1.407 . S
C143 C144 1.365 1_554 S
C144 H132 0.930 . S
C144 C143 1.365 1_556 S
C144 C145 1.393 . S
C145 C144 1.393 . S
C145 C146 1.387 . S
C146 H133 0.930 . S
C146 C141 1.415 1_556 S
C146 C145 1.387 . S
H147 C155 0.930 . S
H148 C158 0.930 . S
H149 C160 0.930 . S
H150 C161 0.970 . S
H151 C161 0.970 . S
H152 C163 0.930 . S
H153 C165 0.930 1_655 S
H154 C167 0.930 . S
C155 H147 0.930 . S
C155 C156 1.382 . S
C155 C157 1.426 . S
C156 C155 1.382 . S
C156 C160 1.389 . S
C157 C155 1.426 . S
C157 C158 1.375 . S
C157 C161 1.532 . S
C158 H148 0.930 . S
C158 C157 1.375 . S
C158 C159 1.416 . S
C159 C158 1.416 . S
C159 C160 1.371 . S
C160 H149 0.930 . S
C160 C156 1.389 . S
C160 C159 1.371 . S
C161 H150 0.970 . S
C161 H151 0.970 . S
C161 C157 1.532 . S
C161 C162 1.499 . S
C162 C161 1.499 . S
C162 C163 1.370 . S
C162 C167 1.415 . S
C163 H152 0.930 . S
C163 C162 1.370 . S
C163 C164 1.407 . S
C164 C163 1.407 . S
C164 C165 1.365 . S
C165 H153 0.930 1_455 S
C165 C164 1.365 . S
C165 C166 1.393 . S
C166 C165 1.393 . S
C166 C167 1.387 . S
C167 H154 0.930 . S
C167 C162 1.415 . S
C167 C166 1.387 . S
C168 O195 1.312 . S
C168 O196 1.208 . S
C169 O190 1.331 1_655 S
C169 O193 1.244 . S
C170 O192 1.264 1_655 S
C170 O194 1.273 . S
Mg171 O173 1.936 . S
Mg171 O180 2.081 . S
Mg171 O182 2.023 . S
Mg171 O186 2.031 . S
Mg171 O195 2.291 . S
Mg172 O173 1.963 . S
Mg172 O183 1.942 . S
Mg172 O184 1.955 . S
Mg172 O191 1.986 . S
O173 Mg171 1.936 . S
O173 Mg172 1.963 . S
O173 Mg174 1.915 . S
Mg174 O173 1.915 . S
Mg174 O175 1.915 . S
Mg174 O179 2.013 . S
Mg174 O185 2.114 . S
Mg174 O189 2.013 . S
Mg174 O195 2.114 . S
O175 Mg174 1.915 . S
O175 Mg176 1.936 . S
O175 Mg177 1.963 1_455 S
Mg176 O175 1.936 . S
Mg176 O185 2.291 . S
Mg176 O190 2.081 . S
Mg176 O192 2.023 . S
Mg176 O196 2.031 . S
Mg177 O175 1.963 1_655 S
Mg177 O181 1.986 . S
Mg177 O193 1.942 . S
Mg177 O194 1.955 . S
C178 O189 1.191 . S
C178 O191 1.307 . S
O179 Mg174 2.013 . S
O179 C198 1.191 . S
O180 Mg171 2.081 . S
O180 C188 1.331 . S
O181 Mg177 1.986 . S
O181 C198 1.307 1_655 S
O182 Mg171 2.023 . S
O182 C197 1.264 . S
O183 Mg172 1.942 . S
O183 C188 1.244 . S
O184 Mg172 1.955 . S
O184 C197 1.273 . S
O185 Mg174 2.114 . S
O185 Mg176 2.291 . S
O185 C187 1.312 . S
O186 Mg171 2.031 . S
O186 C187 1.208 . S
C187 O185 1.312 . S
C187 O186 1.208 . S
C188 O180 1.331 . S
C188 O183 1.244 . S
O189 Mg174 2.013 . S
O189 C178 1.191 . S
O190 C169 1.331 1_455 S
O190 Mg176 2.081 . S
O191 Mg172 1.986 . S
O191 C178 1.307 . S
O192 C170 1.264 1_455 S
O192 Mg176 2.023 . S
O193 C169 1.244 . S
O193 Mg177 1.942 . S
O194 C170 1.273 . S
O194 Mg177 1.955 . S
O195 C168 1.312 . S
O195 Mg171 2.291 . S
O195 Mg174 2.114 . S
O196 C168 1.208 . S
O196 Mg176 2.031 . S
C197 O182 1.264 . S
C197 O184 1.273 . S
C198 O179 1.191 . S
C198 O181 1.307 1_455 S
C199 O226 1.312 . S
C199 O227 1.208 . S
C200 O221 1.331 . S
C200 O224 1.244 . S
C201 O223 1.264 . S
C201 O225 1.273 . S
Mg202 O204 1.936 . S
Mg202 O211 2.081 . S
Mg202 O213 2.023 . S
Mg202 O217 2.031 . S
Mg202 O226 2.291 . S
Mg203 O204 1.963 . S
Mg203 O214 1.942 . S
Mg203 O215 1.955 . S
Mg203 O222 1.986 . S
O204 Mg202 1.936 . S
O204 Mg203 1.963 . S
O204 Mg205 1.915 . S
Mg205 O204 1.915 . S
Mg205 O206 1.915 . S
Mg205 O210 2.013 . S
Mg205 O216 2.114 . S
Mg205 O220 2.013 . S
Mg205 O226 2.114 . S
O206 Mg205 1.915 . S
O206 Mg207 1.936 . S
O206 Mg208 1.963 . S
Mg207 O206 1.936 . S
Mg207 O216 2.291 . S
Mg207 O221 2.081 . S
Mg207 O223 2.023 . S
Mg207 O227 2.031 . S
Mg208 O206 1.963 . S
Mg208 O212 1.986 . S
Mg208 O224 1.942 . S
Mg208 O225 1.955 . S
C209 O220 1.191 . S
C209 O222 1.307 . S
O210 Mg205 2.013 . S
O210 C229 1.191 . S
O211 Mg202 2.081 . S
O211 C219 1.331 . S
O212 Mg208 1.986 . S
O212 C229 1.307 . S
O213 Mg202 2.023 . S
O213 C228 1.264 . S
O214 Mg203 1.942 . S
O214 C219 1.244 . S
O215 Mg203 1.955 . S
O215 C228 1.273 . S
O216 Mg205 2.114 . S
O216 Mg207 2.291 . S
O216 C218 1.312 . S
O217 Mg202 2.031 . S
O217 C218 1.208 . S
C218 O216 1.312 . S
C218 O217 1.208 . S
C219 O211 1.331 . S
C219 O214 1.244 . S
O220 Mg205 2.013 . S
O220 C209 1.191 . S
O221 C200 1.331 . S
O221 Mg207 2.081 . S
O222 Mg203 1.986 . S
O222 C209 1.307 . S
O223 C201 1.264 . S
O223 Mg207 2.023 . S
O224 C200 1.244 . S
O224 Mg208 1.942 . S
O225 C201 1.273 . S
O225 Mg208 1.955 . S
O226 C199 1.312 . S
O226 Mg202 2.291 . S
O226 Mg205 2.114 . S
O227 C199 1.208 . S
O227 Mg207 2.031 . S
C228 O213 1.264 . S
C228 O215 1.273 . S
C229 O210 1.191 . S
C229 O212 1.307 . S
C230 O257 1.312 . S
C230 O258 1.208 . S
C231 O252 1.331 . S
C231 O255 1.244 . S
C232 O254 1.264 . S
C232 O256 1.273 . S
Mg233 O235 1.936 . S
Mg233 O242 2.081 . S
Mg233 O244 2.023 . S
Mg233 O248 2.031 . S
Mg233 O257 2.291 . S
Mg234 O235 1.963 . S
Mg234 O245 1.942 . S
Mg234 O246 1.955 . S
Mg234 O253 1.986 . S
O235 Mg233 1.936 . S
O235 Mg234 1.963 . S
O235 Mg236 1.915 . S
Mg236 O235 1.915 . S
Mg236 O237 1.915 . S
Mg236 O241 2.013 . S
Mg236 O247 2.114 . S
Mg236 O251 2.013 . S
Mg236 O257 2.114 . S
O237 Mg236 1.915 . S
O237 Mg238 1.936 . S
O237 Mg239 1.963 . S
Mg238 O237 1.936 . S
Mg238 O247 2.291 . S
Mg238 O252 2.081 . S
Mg238 O254 2.023 . S
Mg238 O258 2.031 . S
Mg239 O237 1.963 . S
Mg239 O243 1.986 . S
Mg239 O255 1.942 . S
Mg239 O256 1.955 . S
C240 O251 1.191 . S
C240 O253 1.307 . S
O241 Mg236 2.013 . S
O241 C260 1.191 . S
O242 Mg233 2.081 . S
O242 C250 1.331 . S
O243 Mg239 1.986 . S
O243 C260 1.307 . S
O244 Mg233 2.023 . S
O244 C259 1.264 . S
O245 Mg234 1.942 . S
O245 C250 1.244 . S
O246 Mg234 1.955 . S
O246 C259 1.273 . S
O247 Mg236 2.114 . S
O247 Mg238 2.291 . S
O247 C249 1.312 . S
O248 Mg233 2.031 . S
O248 C249 1.208 . S
C249 O247 1.312 . S
C249 O248 1.208 . S
C250 O242 1.331 . S
C250 O245 1.244 . S
O251 Mg236 2.013 . S
O251 C240 1.191 . S
O252 C231 1.331 . S
O252 Mg238 2.081 . S
O253 Mg234 1.986 . S
O253 C240 1.307 . S
O254 C232 1.264 . S
O254 Mg238 2.023 . S
O255 C231 1.244 . S
O255 Mg239 1.942 . S
O256 C232 1.273 . S
O256 Mg239 1.955 . S
O257 C230 1.312 . S
O257 Mg233 2.291 . S
O257 Mg236 2.114 . S
O258 C230 1.208 . S
O258 Mg238 2.031 . S
C259 O244 1.264 . S
C259 O246 1.273 . S
C260 O241 1.191 . S
C260 O243 1.307 . S
C261 O288 1.312 . S
C261 O289 1.208 . S
C262 O283 1.331 . S
C262 O286 1.244 . S
C263 O285 1.264 . S
C263 O287 1.273 . S
Mg264 O266 1.936 . S
Mg264 O273 2.081 . S
Mg264 O275 2.023 . S
Mg264 O279 2.031 . S
Mg264 O288 2.291 . S
Mg265 O266 1.963 1_655 S
Mg265 O276 1.942 . S
Mg265 O277 1.955 . S
Mg265 O284 1.986 . S
O266 Mg264 1.936 . S
O266 Mg265 1.963 1_455 S
O266 Mg267 1.915 . S
Mg267 O266 1.915 . S
Mg267 O268 1.915 . S
Mg267 O272 2.013 . S
Mg267 O278 2.114 . S
Mg267 O282 2.013 . S
Mg267 O288 2.114 . S
O268 Mg267 1.915 . S
O268 Mg269 1.936 . S
O268 Mg270 1.963 . S
Mg269 O268 1.936 . S
Mg269 O278 2.291 . S
Mg269 O283 2.081 . S
Mg269 O285 2.023 . S
Mg269 O289 2.031 . S
Mg270 O268 1.963 . S
Mg270 O274 1.986 . S
Mg270 O286 1.942 . S
Mg270 O287 1.955 . S
C271 O282 1.191 . S
C271 O284 1.307 1_455 S
O272 Mg267 2.013 . S
O272 C291 1.191 . S
O273 Mg264 2.081 . S
O273 C281 1.331 1_455 S
O274 Mg270 1.986 . S
O274 C291 1.307 . S
O275 Mg264 2.023 . S
O275 C290 1.264 1_455 S
O276 Mg265 1.942 . S
O276 C281 1.244 . S
O277 Mg265 1.955 . S
O277 C290 1.273 . S
O278 Mg267 2.114 . S
O278 Mg269 2.291 . S
O278 C280 1.312 . S
O279 Mg264 2.031 . S
O279 C280 1.208 . S
C280 O278 1.312 . S
C280 O279 1.208 . S
C281 O273 1.331 1_655 S
C281 O276 1.244 . S
O282 Mg267 2.013 . S
O282 C271 1.191 . S
O283 C262 1.331 . S
O283 Mg269 2.081 . S
O284 Mg265 1.986 . S
O284 C271 1.307 1_655 S
O285 C263 1.264 . S
O285 Mg269 2.023 . S
O286 C262 1.244 . S
O286 Mg270 1.942 . S
O287 C263 1.273 . S
O287 Mg270 1.955 . S
O288 C261 1.312 . S
O288 Mg264 2.291 . S
O288 Mg267 2.114 . S
O289 C261 1.208 . S
O289 Mg269 2.031 . S
C290 O275 1.264 1_655 S
C290 O277 1.273 . S
C291 O272 1.191 . S
C291 O274 1.307 . S
C292 C293 1.363 . S
C292 C298 1.379 . S
C292 N300 1.356 1_565 S
C293 C292 1.363 . S
C293 C299 1.363 . S
C294 C295 1.363 . S
C294 C299 1.379 . S
C294 N301 1.356 . S
C295 C294 1.363 . S
C295 C298 1.363 . S
N296 C298 1.356 . S
N296 H308 0.984 1_565 S
N296 H309 0.985 . S
N297 C299 1.356 . S
N297 H302 0.984 . S
N297 H303 0.985 . S
C298 C292 1.379 . S
C298 C295 1.363 . S
C298 N296 1.356 . S
C299 C293 1.363 . S
C299 C294 1.379 . S
C299 N297 1.356 . S
N300 C292 1.356 1_545 S
N300 H306 0.984 . S
N300 H307 0.984 . S
N301 C294 1.356 . S
N301 H304 0.984 . S
N301 H305 0.985 . S
H302 N297 0.984 . S
H303 N297 0.985 . S
H304 N301 0.984 . S
H305 N301 0.985 . S
H306 N300 0.984 . S
H307 N300 0.984 . S
H308 N296 0.984 1_545 S
H309 N296 0.985 . S
C310 C311 1.363 . S
C310 C316 1.379 . S
C310 N318 1.356 . S
C311 C310 1.363 . S
C311 C317 1.363 . S
C312 C313 1.363 . S
C312 C317 1.379 1_545 S
C312 N319 1.356 . S
C313 C312 1.363 . S
C313 C316 1.363 1_545 S
N314 C316 1.356 . S
N314 H326 0.984 . S
N314 H327 0.985 1_565 S
N315 C317 1.356 . S
N315 H320 0.984 . S
N315 H321 0.985 . S
C316 C310 1.379 . S
C316 C313 1.363 1_565 S
C316 N314 1.356 . S
C317 C311 1.363 . S
C317 C312 1.379 1_565 S
C317 N315 1.356 . S
N318 C310 1.356 . S
N318 H324 0.984 . S
N318 H325 0.984 . S
N319 C312 1.356 . S
N319 H322 0.984 . S
N319 H323 0.985 . S
H320 N315 0.984 . S
H321 N315 0.985 . S
H322 N319 0.984 . S
H323 N319 0.985 . S
H324 N318 0.984 . S
H325 N318 0.984 . S
H326 N314 0.984 . S
H327 N314 0.985 1_545 S
C328 C329 1.363 . S
C328 C334 1.379 . S
C328 N336 1.356 . S
C329 C328 1.363 . S
C329 C335 1.363 . S
C330 C331 1.363 . S
C330 C335 1.379 . S
C330 N337 1.356 . S
C331 C330 1.363 . S
C331 C334 1.363 . S
N332 C334 1.356 . S
N332 H344 0.984 . S
N332 H345 0.985 . S
N333 C335 1.356 . S
N333 H338 0.984 . S
N333 H339 0.985 1_545 S
C334 C328 1.379 . S
C334 C331 1.363 . S
C334 N332 1.356 . S
C335 C329 1.363 . S
C335 C330 1.379 . S
C335 N333 1.356 . S
N336 C328 1.356 . S
N336 H342 0.984 1_556 S
N336 H343 0.984 1_556 S
N337 C330 1.356 . S
N337 H340 0.984 . S
N337 H341 0.985 1_545 S
H338 N333 0.984 . S
H339 N333 0.985 1_565 S
H340 N337 0.984 . S
H341 N337 0.985 1_565 S
H342 N336 0.984 1_554 S
H343 N336 0.984 1_554 S
H344 N332 0.984 . S
H345 N332 0.985 . S
C346 C347 1.363 . S
C346 C352 1.379 1_545 S
C346 N354 1.356 . S
C347 C346 1.363 . S
C347 C353 1.363 . S
C348 C349 1.363 1_545 S
C348 C353 1.379 . S
C348 N355 1.356 1_545 S
C349 C348 1.363 1_565 S
C349 C352 1.363 . S
N350 C352 1.356 . S
N350 H362 0.984 . S
N350 H363 0.985 . S
N351 C353 1.356 . S
N351 H356 0.984 . S
N351 H357 0.985 . S
C352 C346 1.379 1_565 S
C352 C349 1.363 . S
C352 N350 1.356 . S
C353 C347 1.363 . S
C353 C348 1.379 . S
C353 N351 1.356 . S
N354 C346 1.356 . S
N354 H360 0.984 . S
N354 H361 0.984 . S
N355 C348 1.356 1_565 S
N355 H358 0.984 . S
N355 H359 0.985 1_565 S
H356 N351 0.984 . S
H357 N351 0.985 . S
H358 N355 0.984 . S
H359 N355 0.985 1_545 S
H360 N354 0.984 . S
H361 N354 0.984 . S
H362 N350 0.984 . S
H363 N350 0.985 . S
C364 C365 1.363 . S
C364 C370 1.379 . S
C364 N372 1.356 . S
C365 C364 1.363 . S
C365 C371 1.363 . S
C366 C367 1.363 . S
C366 C371 1.379 . S
C366 N373 1.356 . S
C367 C366 1.363 . S
C367 C370 1.363 . S
N368 C370 1.356 . S
N368 H380 0.984 . S
N368 H381 0.985 . S
N369 C371 1.356 . S
N369 H374 0.984 . S
N369 H375 0.985 . S
C370 C364 1.379 . S
C370 C367 1.363 . S
C370 N368 1.356 . S
C371 C365 1.363 . S
C371 C366 1.379 . S
C371 N369 1.356 . S
N372 C364 1.356 . S
N372 H378 0.984 . S
N372 H379 0.984 . S
N373 C366 1.356 . S
N373 H376 0.984 . S
N373 H377 0.985 . S
H374 N369 0.984 . S
H375 N369 0.985 . S
H376 N373 0.984 . S
H377 N373 0.985 . S
H378 N372 0.984 . S
H379 N372 0.984 . S
H380 N368 0.984 . S
H381 N368 0.985 . S
C382 C383 1.363 . S
C382 C388 1.379 1_565 S
C382 N390 1.356 . S
C383 C382 1.363 . S
C383 C389 1.363 . S
C384 C385 1.363 1_565 S
C384 C389 1.379 . S
C384 N391 1.356 . S
C385 C384 1.363 1_545 S
C385 C388 1.363 . S
N386 C388 1.356 . S
N386 H398 0.984 . S
N386 H399 0.985 . S
N387 C389 1.356 . S
N387 H392 0.984 . S
N387 H393 0.985 . S
C388 C382 1.379 1_545 S
C388 C385 1.363 . S
C388 N386 1.356 . S
C389 C383 1.363 . S
C389 C384 1.379 . S
C389 N387 1.356 . S
N390 C382 1.356 . S
N390 H396 0.984 . S
N390 H397 0.984 . S
N391 C384 1.356 . S
N391 H394 0.984 1_565 S
N391 H395 0.985 . S
H392 N387 0.984 . S
H393 N387 0.985 . S
H394 N391 0.984 1_545 S
H395 N391 0.985 . S
H396 N390 0.984 . S
H397 N390 0.984 . S
H398 N386 0.984 . S
H399 N386 0.985 . S
C400 C401 1.363 . S
C400 C406 1.379 . S
C400 N408 1.356 . S
C401 C400 1.363 . S
C401 C407 1.363 . S
C402 C403 1.363 . S
C402 C407 1.379 . S
C402 N409 1.356 . S
C403 C402 1.363 . S
C403 C406 1.363 . S
N404 C406 1.356 . S
N404 H416 0.984 . S
N404 H417 0.985 . S
N405 C407 1.356 . S
N405 H410 0.985 1_554 S
N405 H411 0.985 1_554 S
C406 C400 1.379 . S
C406 C403 1.363 . S
C406 N404 1.356 . S
C407 C401 1.363 . S
C407 C402 1.379 . S
C407 N405 1.356 . S
N408 C400 1.356 . S
N408 H414 0.984 . S
N408 H415 0.984 . S
N409 C402 1.356 . S
N409 H412 0.984 . S
N409 H413 0.985 . S
H410 N405 0.985 1_556 S
H411 N405 0.985 1_556 S
H412 N409 0.984 . S
H413 N409 0.985 . S
H414 N408 0.984 . S
H415 N408 0.984 . S
H416 N404 0.984 . S
H417 N404 0.985 . S
C418 C419 1.363 . S
C418 C424 1.379 1_545 S
C418 N426 1.356 . S
C419 C418 1.363 . S
C419 C425 1.363 . S
C420 C421 1.363 1_545 S
C420 C425 1.379 . S
C420 N427 1.356 . S
C421 C420 1.363 1_565 S
C421 C424 1.363 . S
N422 C424 1.356 . S
N422 H434 0.984 . S
N422 H435 0.985 . S
N423 C425 1.356 . S
N423 H428 0.984 . S
N423 H429 0.985 . S
C424 C418 1.379 1_565 S
C424 C421 1.363 . S
C424 N422 1.356 . S
C425 C419 1.363 . S
C425 C420 1.379 . S
C425 N423 1.356 . S
N426 C418 1.356 . S
N426 H432 0.984 . S
N426 H433 0.984 . S
N427 C420 1.356 . S
N427 H430 0.984 1_545 S
N427 H431 0.985 . S
H428 N423 0.984 . S
H429 N423 0.985 . S
H430 N427 0.984 1_565 S
H431 N427 0.985 . S
H432 N426 0.984 . S
H433 N426 0.984 . S
H434 N422 0.984 . S
H435 N422 0.985 . S
C436 C437 1.363 . S
C436 C442 1.379 . S
C436 N444 1.356 . S
C437 C436 1.363 . S
C437 C443 1.363 . S
C438 C439 1.363 . S
C438 C443 1.379 . S
C438 N445 1.356 . S
C439 C438 1.363 . S
C439 C442 1.363 . S
N440 C442 1.356 . S
N440 H452 0.984 . S
N440 H453 0.985 . S
N441 C443 1.356 . S
N441 H446 0.984 . S
N441 H447 0.985 . S
C442 C436 1.379 . S
C442 C439 1.363 . S
C442 N440 1.356 . S
C443 C437 1.363 . S
C443 C438 1.379 . S
C443 N441 1.356 . S
N444 C436 1.356 . S
N444 H450 0.984 1_545 S
N444 H451 0.984 1_545 S
N445 C438 1.356 . S
N445 H448 0.984 . S
N445 H449 0.985 . S
H446 N441 0.984 . S
H447 N441 0.985 . S
H448 N445 0.984 . S
H449 N445 0.985 . S
H450 N444 0.984 1_565 S
H451 N444 0.984 1_565 S
H452 N440 0.984 . S
H453 N440 0.985 . S
C454 C455 1.363 . S
C454 C460 1.379 . S
C454 N462 1.356 . S
C455 C454 1.363 . S
C455 C461 1.363 . S
C456 C457 1.363 . S
C456 C461 1.379 . S
C456 N463 1.356 . S
C457 C456 1.363 . S
C457 C460 1.363 . S
N458 C460 1.356 . S
N458 H470 0.984 . S
N458 H471 0.985 . S
N459 C461 1.356 . S
N459 H464 0.984 1_565 S
N459 H465 0.985 . S
C460 C454 1.379 . S
C460 C457 1.363 . S
C460 N458 1.356 . S
C461 C455 1.363 . S
C461 C456 1.379 . S
C461 N459 1.356 . S
N462 C454 1.356 . S
N462 H468 0.984 . S
N462 H469 0.984 1_565 S
N463 C456 1.356 . S
N463 H466 0.984 . S
N463 H467 0.985 . S
H464 N459 0.984 1_545 S
H465 N459 0.985 . S
H466 N463 0.984 . S
H467 N463 0.985 . S
H468 N462 0.984 . S
H469 N462 0.984 1_545 S
H470 N458 0.984 . S
H471 N458 0.985 . S
C472 C473 1.363 . S
C472 C478 1.379 . S
C472 N480 1.356 . S
C473 C472 1.363 . S
C473 C479 1.363 . S
C474 C475 1.363 . S
C474 C479 1.379 . S
C474 N481 1.356 1_655 S
C475 C474 1.363 . S
C475 C478 1.363 . S
N476 C478 1.356 . S
N476 H488 0.984 . S
N476 H489 0.985 . S
N477 C479 1.356 1_545 S
N477 H482 0.984 . S
N477 H483 0.985 . S
C478 C472 1.379 . S
C478 C475 1.363 . S
C478 N476 1.356 . S
C479 C473 1.363 . S
C479 C474 1.379 . S
C479 N477 1.356 1_565 S
N480 C472 1.356 . S
N480 H486 0.984 . S
N480 H487 0.984 . S
N481 C474 1.356 1_455 S
N481 H484 0.984 . S
N481 H485 0.985 . S
H482 N477 0.984 . S
H483 N477 0.985 . S
H484 N481 0.984 . S
H485 N481 0.985 . S
H486 N480 0.984 . S
H487 N480 0.984 . S
H488 N476 0.984 . S
H489 N476 0.985 . S
C490 C491 1.363 . S
C490 C496 1.379 1_655 S
C490 N498 1.356 . S
C491 C490 1.363 . S
C491 C497 1.363 . S
C492 C493 1.363 . S
C492 C497 1.379 . S
C492 N499 1.356 . S
C493 C492 1.363 . S
C493 C496 1.363 1_655 S
N494 C496 1.356 . S
N494 H506 0.984 . S
N494 H507 0.985 . S
N495 C497 1.356 . S
N495 H500 0.984 1_545 S
N495 H501 0.985 . S
C496 C490 1.379 1_455 S
C496 C493 1.363 1_455 S
C496 N494 1.356 . S
C497 C491 1.363 . S
C497 C492 1.379 . S
C497 N495 1.356 . S
N498 C490 1.356 . S
N498 H504 0.984 1_655 S
N498 H505 0.984 . S
N499 C492 1.356 . S
N499 H502 0.984 . S
N499 H503 0.985 . S
H500 N495 0.984 1_565 S
H501 N495 0.985 . S
H502 N499 0.984 . S
H503 N499 0.985 . S
H504 N498 0.984 1_455 S
H505 N498 0.984 . S
H506 N494 0.984 . S
H507 N494 0.985 . S
C508 C509 1.363 . S
C508 C514 1.379 . S
C508 N516 1.356 . S
C509 C508 1.363 . S
C509 C515 1.363 . S
C510 C511 1.363 . S
C510 C515 1.379 . S
C510 N517 1.356 . S
C511 C510 1.363 . S
C511 C514 1.363 . S
N512 C514 1.356 . S
N512 H524 0.984 . S
N512 H525 0.985 . S
N513 C515 1.356 1_545 S
N513 H518 0.984 . S
N513 H519 0.985 . S
C514 C508 1.379 . S
C514 C511 1.363 . S
C514 N512 1.356 . S
C515 C509 1.363 . S
C515 C510 1.379 . S
C515 N513 1.356 1_565 S
N516 C508 1.356 . S
N516 H522 0.984 . S
N516 H523 0.984 . S
N517 C510 1.356 . S
N517 H520 0.984 . S
N517 H521 0.985 . S
H518 N513 0.984 . S
H519 N513 0.985 . S
H520 N517 0.984 . S
H521 N517 0.985 . S
H522 N516 0.984 . S
H523 N516 0.984 . S
H524 N512 0.984 . S
H525 N512 0.985 . S
C526 C527 1.363 . S
C526 C532 1.379 1_655 S
C526 N534 1.356 . S
C527 C526 1.363 . S
C527 C533 1.363 . S
C528 C529 1.363 . S
C528 C533 1.379 . S
C528 N535 1.356 . S
C529 C528 1.363 . S
C529 C532 1.363 1_655 S
N530 C532 1.356 . S
N530 H542 0.984 . S
N530 H543 0.985 . S
N531 C533 1.356 1_545 S
N531 H536 0.984 . S
N531 H537 0.985 . S
C532 C526 1.379 1_455 S
C532 C529 1.363 1_455 S
C532 N530 1.356 . S
C533 C527 1.363 . S
C533 C528 1.379 . S
C533 N531 1.356 1_565 S
N534 C526 1.356 . S
N534 H540 0.984 1_655 S
N534 H541 0.984 . S
N535 C528 1.356 . S
N535 H538 0.984 . S
N535 H539 0.985 . S
H536 N531 0.984 . S
H537 N531 0.985 . S
H538 N535 0.984 . S
H539 N535 0.985 . S
H540 N534 0.984 1_455 S
H541 N534 0.984 . S
H542 N530 0.984 . S
H543 N530 0.985 . S
C544 C545 1.363 . S
C544 C550 1.379 . S
C544 N552 1.356 . S
C545 C544 1.363 . S
C545 C551 1.363 . S
C546 C547 1.363 . S
C546 C551 1.379 . S
C546 N553 1.356 1_655 S
C547 C546 1.363 . S
C547 C550 1.363 . S
N548 C550 1.356 . S
N548 H560 0.984 . S
N548 H561 0.985 . S
N549 C551 1.356 1_565 S
N549 H554 0.984 . S
N549 H555 0.985 . S
C550 C544 1.379 . S
C550 C547 1.363 . S
C550 N548 1.356 . S
C551 C545 1.363 . S
C551 C546 1.379 . S
C551 N549 1.356 1_545 S
N552 C544 1.356 . S
N552 H558 0.984 . S
N552 H559 0.984 . S
N553 C546 1.356 1_455 S
N553 H556 0.984 . S
N553 H557 0.985 1_545 S
H554 N549 0.984 . S
H555 N549 0.985 . S
H556 N553 0.984 . S
H557 N553 0.985 1_565 S
H558 N552 0.984 . S
H559 N552 0.984 . S
H560 N548 0.984 . S
H561 N548 0.985 . S
C562 C563 1.363 . S
C562 C568 1.379 . S
C562 N570 1.356 . S
C563 C562 1.363 . S
C563 C569 1.363 . S
C564 C565 1.363 . S
C564 C569 1.379 . S
C564 N571 1.356 . S
C565 C564 1.363 . S
C565 C568 1.363 . S
N566 C568 1.356 . S
N566 H578 0.984 . S
N566 H579 0.985 . S
N567 C569 1.356 1_565 S
N567 H572 0.984 . S
N567 H573 0.985 . S
C568 C562 1.379 . S
C568 C565 1.363 . S
C568 N566 1.356 . S
C569 C563 1.363 . S
C569 C564 1.379 . S
C569 N567 1.356 1_545 S
N570 C562 1.356 . S
N570 H576 0.984 . S
N570 H577 0.984 . S
N571 C564 1.356 . S
N571 H574 0.984 . S
N571 H575 0.985 . S
H572 N567 0.984 . S
H573 N567 0.985 . S
H574 N571 0.984 . S
H575 N571 0.985 . S
H576 N570 0.984 . S
H577 N570 0.984 . S
H578 N566 0.984 . S
H579 N566 0.985 . S
C580 C581 1.363 . S
C580 C586 1.379 . S
C580 N588 1.356 . S
C581 C580 1.363 . S
C581 C587 1.363 . S
C582 C583 1.363 . S
C582 C587 1.379 . S
C582 N589 1.356 . S
C583 C582 1.363 . S
C583 C586 1.363 . S
N584 C586 1.356 . S
N584 H596 0.984 . S
N584 H597 0.985 . S
N585 C587 1.356 . S
N585 H590 0.984 . S
N585 H591 0.985 1_556 S
C586 C580 1.379 . S
C586 C583 1.363 . S
C586 N584 1.356 . S
C587 C581 1.363 . S
C587 C582 1.379 . S
C587 N585 1.356 . S
N588 C580 1.356 . S
N588 H594 0.984 . S
N588 H595 0.984 . S
N589 C582 1.356 . S
N589 H592 0.984 . S
N589 H593 0.985 . S
H590 N585 0.984 . S
H591 N585 0.985 1_554 S
H592 N589 0.984 . S
H593 N589 0.985 . S
H594 N588 0.984 . S
H595 N588 0.984 . S
H596 N584 0.984 . S
H597 N584 0.985 . S
C598 C599 1.363 . S
C598 C604 1.379 . S
C598 N606 1.356 . S
C599 C598 1.363 . S
C599 C605 1.363 . S
C600 C601 1.363 . S
C600 C605 1.379 . S
C600 N607 1.356 . S
C601 C600 1.363 . S
C601 C604 1.363 . S
N602 C604 1.356 . S
N602 H614 0.984 1_655 S
N602 H615 0.985 . S
N603 C605 1.356 . S
N603 H608 0.984 . S
N603 H609 0.985 . S
C604 C598 1.379 . S
C604 C601 1.363 . S
C604 N602 1.356 . S
C605 C599 1.363 . S
C605 C600 1.379 . S
C605 N603 1.356 . S
N606 C598 1.356 . S
N606 H612 0.991 . S
N606 H613 0.984 . S
N607 C600 1.356 . S
N607 H610 0.984 . S
N607 H611 0.985 . S
H608 N603 0.984 . S
H609 N603 0.985 . S
H610 N607 0.984 . S
H611 N607 0.985 . S
H612 N606 0.991 . S
H613 N606 0.984 . S
H614 N602 0.984 1_455 S
H615 N602 0.985 . S
C616 C617 1.363 . S
C616 C622 1.379 . S
C616 N624 1.356 . S
C617 C616 1.363 . S
C617 C623 1.363 . S
C618 C619 1.363 . S
C618 C623 1.379 . S
C618 N625 1.356 . S
C619 C618 1.363 . S
C619 C622 1.363 . S
N620 C622 1.356 . S
N620 H632 0.984 . S
N620 H633 0.985 . S
N621 C623 1.359 . S
N621 H626 0.982 1_655 S
N621 H627 0.985 . S
C622 C616 1.379 . S
C622 C619 1.363 . S
C622 N620 1.356 . S
C623 C617 1.363 . S
C623 C618 1.379 . S
C623 N621 1.359 . S
N624 C616 1.356 . S
N624 H630 0.984 . S
N624 H631 0.984 1_655 S
N625 C618 1.356 . S
N625 H628 0.984 . S
N625 H629 0.985 . S
H626 N621 0.982 1_455 S
H627 N621 0.985 . S
H628 N625 0.984 . S
H629 N625 0.985 . S
H630 N624 0.984 . S
H631 N624 0.984 1_455 S
H632 N620 0.984 . S
H633 N620 0.985 . S
C634 C635 1.363 . S
C634 C640 1.379 . S
C634 N642 1.356 . S
C635 C634 1.363 . S
C635 C641 1.363 . S
C636 C637 1.363 . S
C636 C641 1.379 . S
C636 N643 1.356 . S
C637 C636 1.363 . S
C637 C640 1.363 . S
N638 C640 1.356 . S
N638 H650 0.984 . S
N638 H651 0.985 . S
N639 C641 1.356 . S
N639 H644 0.984 . S
N639 H645 0.985 . S
C640 C634 1.379 . S
C640 C637 1.363 . S
C640 N638 1.356 . S
C641 C635 1.363 . S
C641 C636 1.379 . S
C641 N639 1.356 . S
N642 C634 1.356 . S
N642 H648 0.984 . S
N642 H649 0.984 . S
N643 C636 1.356 . S
N643 H646 0.984 . S
N643 H647 0.985 . S
H644 N639 0.984 . S
H645 N639 0.985 . S
H646 N643 0.984 . S
H647 N643 0.985 . S
H648 N642 0.984 . S
H649 N642 0.984 . S
H650 N638 0.984 . S
H651 N638 0.985 . S
C652 C653 1.363 . S
C652 C658 1.379 . S
C652 N660 1.356 . S
C653 C652 1.363 . S
C653 C659 1.363 . S
C654 C655 1.363 . S
C654 C659 1.379 . S
C654 N661 1.356 . S
C655 C654 1.363 . S
C655 C658 1.363 . S
N656 C658 1.356 . S
N656 H668 0.984 . S
N656 H669 0.985 . S
N657 C659 1.356 . S
N657 H662 0.984 . S
N657 H663 0.985 . S
C658 C652 1.379 . S
C658 C655 1.363 . S
C658 N656 1.356 . S
C659 C653 1.363 . S
C659 C654 1.379 . S
C659 N657 1.356 . S
N660 C652 1.356 . S
N660 H666 0.984 . S
N660 H667 0.984 . S
N661 C654 1.356 . S
N661 H664 0.984 . S
N661 H665 0.985 . S
H662 N657 0.984 . S
H663 N657 0.985 . S
H664 N661 0.984 . S
H665 N661 0.985 . S
H666 N660 0.984 . S
H667 N660 0.984 . S
H668 N656 0.984 . S
H669 N656 0.985 . S
C670 C671 1.363 . S
C670 C676 1.379 . S
C670 N678 1.356 . S
C671 C670 1.363 . S
C671 C677 1.363 . S
C672 C673 1.363 . S
C672 C677 1.379 . S
C672 N679 1.356 . S
C673 C672 1.363 . S
C673 C676 1.363 . S
N674 C676 1.356 . S
N674 H686 0.984 . S
N674 H687 0.985 . S
N675 C677 1.356 . S
N675 H680 0.984 . S
N675 H681 0.985 . S
C676 C670 1.379 . S
C676 C673 1.363 . S
C676 N674 1.356 . S
C677 C671 1.363 . S
C677 C672 1.379 . S
C677 N675 1.356 . S
N678 C670 1.356 . S
N678 H684 0.984 . S
N678 H685 0.984 . S
N679 C672 1.356 . S
N679 H682 0.984 . S
N679 H683 0.985 . S
H680 N675 0.984 . S
H681 N675 0.985 . S
H682 N679 0.984 . S
H683 N679 0.985 . S
H684 N678 0.984 . S
H685 N678 0.984 . S
H686 N674 0.984 . S
H687 N674 0.985 . S
C688 C689 1.363 . S
C688 C694 1.379 . S
C688 N696 1.356 1_655 S
C689 C688 1.363 . S
C689 C695 1.363 . S
C690 C691 1.363 . S
C690 C695 1.379 . S
C690 N697 1.356 . S
C691 C690 1.363 . S
C691 C694 1.363 . S
N692 C694 1.356 . S
N692 H704 0.984 . S
N692 H705 0.985 . S
N693 C695 1.356 . S
N693 H698 0.984 1_655 S
N693 H699 0.985 . S
C694 C688 1.379 . S
C694 C691 1.363 . S
C694 N692 1.356 . S
C695 C689 1.363 . S
C695 C690 1.379 . S
C695 N693 1.356 . S
N696 C688 1.356 1_455 S
N696 H702 0.984 . S
N696 H703 0.984 . S
N697 C690 1.356 . S
N697 H700 0.984 . S
N697 H701 0.985 . S
H698 N693 0.984 1_455 S
H699 N693 0.985 . S
H700 N697 0.984 . S
H701 N697 0.985 . S
H702 N696 0.984 . S
H703 N696 0.984 . S
H704 N692 0.984 . S
H705 N692 0.985 . S
C706 C707 1.363 . S
C706 C712 1.379 . S
C706 N714 1.356 . S
C707 C706 1.363 . S
C707 C713 1.363 . S
C708 C709 1.363 . S
C708 C713 1.379 . S
C708 N715 1.356 . S
C709 C708 1.363 . S
C709 C712 1.363 . S
N710 C712 1.356 . S
N710 H722 0.984 . S
N710 H723 0.985 . S
N711 C713 1.356 . S
N711 H716 0.984 . S
N711 H717 0.985 . S
C712 C706 1.379 . S
C712 C709 1.363 . S
C712 N710 1.356 . S
C713 C707 1.363 . S
C713 C708 1.379 . S
C713 N711 1.356 . S
N714 C706 1.356 . S
N714 H720 0.984 . S
N714 H721 0.984 . S
N715 C708 1.356 . S
N715 H718 0.984 . S
N715 H719 0.985 . S
H716 N711 0.984 . S
H717 N711 0.985 . S
H718 N715 0.984 . S
H719 N715 0.985 . S
H720 N714 0.984 . S
H721 N714 0.984 . S
H722 N710 0.984 . S
H723 N710 0.985 . S
C724 C725 1.363 . S
C724 C730 1.379 . S
C724 N732 1.356 . S
C725 C724 1.363 . S
C725 C731 1.363 . S
C726 C727 1.363 . S
C726 C731 1.379 . S
C726 N733 1.356 . S
C727 C726 1.363 . S
C727 C730 1.363 . S
N728 C730 1.356 . S
N728 H740 0.984 . S
N728 H741 0.985 . S
N729 C731 1.356 . S
N729 H734 0.984 . S
N729 H735 0.985 . S
C730 C724 1.379 . S
C730 C727 1.363 . S
C730 N728 1.356 . S
C731 C725 1.363 . S
C731 C726 1.379 . S
C731 N729 1.356 . S
N732 C724 1.356 . S
N732 H738 0.984 . S
N732 H739 0.984 . S
N733 C726 1.356 . S
N733 H736 0.984 . S
N733 H737 0.985 . S
H734 N729 0.984 . S
H735 N729 0.985 . S
H736 N733 0.984 . S
H737 N733 0.985 . S
H738 N732 0.984 . S
H739 N732 0.984 . S
H740 N728 0.984 . S
H741 N728 0.985 . S
C742 C743 1.363 . S
C742 C748 1.379 . S
C742 N750 1.356 . S
C743 C742 1.363 . S
C743 C749 1.363 . S
C744 C745 1.363 . S
C744 C749 1.379 . S
C744 N751 1.356 . S
C745 C744 1.363 . S
C745 C748 1.363 . S
N746 C748 1.356 . S
N746 H758 0.984 . S
N746 H759 0.985 . S
N747 C749 1.356 . S
N747 H752 0.984 . S
N747 H753 0.985 . S
C748 C742 1.379 . S
C748 C745 1.363 . S
C748 N746 1.356 . S
C749 C743 1.363 . S
C749 C744 1.379 . S
C749 N747 1.356 . S
N750 C742 1.356 . S
N750 H756 0.984 . S
N750 H757 0.984 . S
N751 C744 1.356 . S
N751 H754 0.984 . S
N751 H755 0.985 . S
H752 N747 0.984 . S
H753 N747 0.985 . S
H754 N751 0.984 . S
H755 N751 0.985 . S
H756 N750 0.984 . S
H757 N750 0.984 . S
H758 N746 0.984 . S
H759 N746 0.985 . S
C760 C761 1.363 . S
C760 C766 1.379 . S
C760 N768 1.356 . S
C761 C760 1.363 . S
C761 C767 1.363 . S
C762 C763 1.363 . S
C762 C767 1.379 . S
C762 N769 1.356 . S
C763 C762 1.363 . S
C763 C766 1.363 . S
N764 C766 1.356 . S
N764 H776 0.984 . S
N764 H777 0.985 . S
N765 C767 1.356 . S
N765 H770 0.984 . S
N765 H771 0.985 . S
C766 C760 1.379 . S
C766 C763 1.363 . S
C766 N764 1.356 . S
C767 C761 1.363 . S
C767 C762 1.379 . S
C767 N765 1.356 . S
N768 C760 1.356 . S
N768 H774 0.984 . S
N768 H775 0.984 . S
N769 C762 1.356 . S
N769 H772 0.984 . S
N769 H773 0.985 . S
H770 N765 0.984 . S
H771 N765 0.985 . S
H772 N769 0.984 . S
H773 N769 0.985 . S
H774 N768 0.984 . S
H775 N768 0.984 . S
H776 N764 0.984 . S
H777 N764 0.985 . S
C778 C779 1.363 . S
C778 C784 1.379 . S
C778 N786 1.356 . S
C779 C778 1.363 . S
C779 C785 1.363 . S
C780 C781 1.363 . S
C780 C785 1.379 . S
C780 N787 1.356 . S
C781 C780 1.363 . S
C781 C784 1.363 . S
N782 C784 1.356 . S
N782 H794 0.984 . S
N782 H795 0.985 . S
N783 C785 1.356 . S
N783 H788 0.984 . S
N783 H789 0.985 . S
C784 C778 1.379 . S
C784 C781 1.363 . S
C784 N782 1.356 . S
C785 C779 1.363 . S
C785 C780 1.379 . S
C785 N783 1.356 . S
N786 C778 1.356 . S
N786 H792 0.984 . S
N786 H793 0.984 . S
N787 C780 1.356 . S
N787 H790 0.984 . S
N787 H791 0.985 . S
H788 N783 0.984 . S
H789 N783 0.985 . S
H790 N787 0.984 . S
H791 N787 0.985 . S
H792 N786 0.984 . S
H793 N786 0.984 . S
H794 N782 0.984 . S
H795 N782 0.985 . S
C796 C797 1.363 . S
C796 C802 1.379 . S
C796 N804 1.356 . S
C797 C796 1.363 . S
C797 C803 1.363 . S
C798 C799 1.363 . S
C798 C803 1.379 . S
C798 N805 1.356 . S
C799 C798 1.363 . S
C799 C802 1.363 . S
N800 C802 1.356 . S
N800 H812 0.984 . S
N800 H813 0.985 . S
N801 C803 1.356 . S
N801 H806 0.984 . S
N801 H807 0.985 . S
C802 C796 1.379 . S
C802 C799 1.363 . S
C802 N800 1.356 . S
C803 C797 1.363 . S
C803 C798 1.379 . S
C803 N801 1.356 . S
N804 C796 1.356 . S
N804 H810 0.984 . S
N804 H811 0.984 . S
N805 C798 1.356 . S
N805 H808 0.984 . S
N805 H809 0.985 . S
H806 N801 0.984 . S
H807 N801 0.985 . S
H808 N805 0.984 . S
H809 N805 0.985 . S
H810 N804 0.984 . S
H811 N804 0.984 . S
H812 N800 0.984 . S
H813 N800 0.985 . S
C814 C815 1.363 . S
C814 C820 1.379 . S
C814 N822 1.356 . S
C815 C814 1.363 . S
C815 C821 1.363 . S
C816 C817 1.363 . S
C816 C821 1.379 . S
C816 N823 1.356 . S
C817 C816 1.363 . S
C817 C820 1.363 . S
N818 C820 1.356 . S
N818 H830 0.984 . S
N818 H831 0.985 . S
N819 C821 1.356 . S
N819 H824 0.984 . S
N819 H825 0.985 . S
C820 C814 1.379 . S
C820 C817 1.363 . S
C820 N818 1.356 . S
C821 C815 1.363 . S
C821 C816 1.379 . S
C821 N819 1.356 . S
N822 C814 1.356 . S
N822 H828 0.984 . S
N822 H829 0.984 . S
N823 C816 1.356 . S
N823 H826 0.984 . S
N823 H827 0.985 . S
H824 N819 0.984 . S
H825 N819 0.985 . S
H826 N823 0.984 . S
H827 N823 0.985 . S
H828 N822 0.984 . S
H829 N822 0.984 . S
H830 N818 0.984 . S
H831 N818 0.985 . S
C832 C833 1.363 . S
C832 C838 1.379 . S
C832 N840 1.356 . S
C833 C832 1.363 . S
C833 C839 1.363 . S
C834 C835 1.363 . S
C834 C839 1.379 . S
C834 N841 1.356 . S
C835 C834 1.363 . S
C835 C838 1.363 . S
N836 C838 1.356 . S
N836 H848 0.984 . S
N836 H849 0.985 . S
N837 C839 1.356 . S
N837 H842 0.984 . S
N837 H843 0.985 . S
C838 C832 1.379 . S
C838 C835 1.363 . S
C838 N836 1.356 . S
C839 C833 1.363 . S
C839 C834 1.379 . S
C839 N837 1.356 . S
N840 C832 1.356 . S
N840 H846 0.984 . S
N840 H847 0.984 . S
N841 C834 1.356 . S
N841 H844 0.984 . S
N841 H845 0.985 . S
H842 N837 0.984 . S
H843 N837 0.985 . S
H844 N841 0.984 . S
H845 N841 0.985 . S
H846 N840 0.984 . S
H847 N840 0.984 . S
H848 N836 0.984 . S
H849 N836 0.985 . S
C850 C851 1.363 . S
C850 C856 1.379 . S
C850 N858 1.356 . S
C851 C850 1.363 . S
C851 C857 1.363 . S
C852 C853 1.363 . S
C852 C857 1.379 . S
C852 N859 1.356 . S
C853 C852 1.363 . S
C853 C856 1.363 . S
N854 C856 1.356 . S
N854 H866 0.984 . S
N854 H867 0.985 . S
N855 C857 1.356 . S
N855 H860 0.984 . S
N855 H861 0.985 . S
C856 C850 1.379 . S
C856 C853 1.363 . S
C856 N854 1.356 . S
C857 C851 1.363 . S
C857 C852 1.379 . S
C857 N855 1.356 . S
N858 C850 1.356 . S
N858 H864 0.984 . S
N858 H865 0.984 . S
N859 C852 1.356 . S
N859 H862 0.984 . S
N859 H863 0.985 . S
H860 N855 0.984 . S
H861 N855 0.985 . S
H862 N859 0.984 . S
H863 N859 0.985 . S
H864 N858 0.984 . S
H865 N858 0.984 . S
H866 N854 0.984 . S
H867 N854 0.985 . S
C295 C228 1.748 . S
C293 C17 1.681 . S
C311 C30 1.642 . S
C313 C231 1.658 . S
C329 C61 1.620 . S
C331 C262 1.629 . S
C349 C197 1.724 . S
C347 C72 1.726 . S
C367 C232 1.735 . S
C365 C19 1.748 . S
C385 C263 1.750 . S
C383 C33 1.666 . S
C403 C188 1.704 . S
C401 C59 1.610 . S
C421 C219 1.689 . S
C419 C75 1.586 . S
C437 C12 1.438 . S
C439 C249 1.390 . S
C455 C101 1.427 1_565 S
C457 C218 1.368 . S
C473 C51 1.343 . S
C475 C178 1.341 1_655 S
C493 C271 1.357 1_655 S
C491 C124 1.367 1_545 S
C511 C199 1.391 . S
C509 C9 1.462 . S
C527 C103 1.397 1_565 S
C529 C198 1.387 1_655 S
C545 C54 1.382 . S
C547 C291 1.403 1_655 S
C565 C230 1.403 . S
C563 C122 1.463 1_545 S
C581 C145 1.719 . S
C583 C290 1.707 . S
C599 C96 1.581 . S
C601 C169 1.684 . S
C617 C166 1.653 1_655 S
C619 C200 1.662 . S
C635 C114 1.697 . S
C637 C259 1.695 . S
C655 C170 1.774 . S
C653 C143 1.707 . S
C671 C93 1.722 . S
C673 C201 1.720 . S
C689 C164 1.582 1_655 S
C691 C250 1.673 . S
C709 C281 1.721 . S
C707 C117 1.615 . S
C725 C135 1.433 . S
C727 C187 1.364 . S
C743 C40 1.411 . S
C745 C280 1.337 . S
C761 C156 1.375 . S
C763 C240 1.372 . S
C781 C209 1.392 . S
C779 C82 1.403 . S
C799 C261 1.420 . S
C797 C138 1.470 . S
C817 C260 1.420 . S
C815 C38 1.406 . S
C835 C229 1.368 . S
C833 C159 1.349 . S
C853 C168 1.372 . S
C851 C80 1.432 . S
