# Generated by pormake.
# Topology ctn, (3,4)-cn, num edge types: 1
# Building blocks:
#     Node 0, Type 0, BuildingBlock: QEWDON_clean_linker_0, # of connection points: 3
#     Node 1, Type 0, BuildingBlock: QEWDON_clean_linker_0, # of connection points: 3
#     Node 2, Type 0, BuildingBlock: QEWDON_clean_linker_0, # of connection points: 3
#     Node 3, Type 0, BuildingBlock: QEWDON_clean_linker_0, # of connection points: 3
#     Node 4, Type 0, BuildingBlock: QEWDON_clean_linker_0, # of connection points: 3
#     Node 5, Type 0, BuildingBlock: QEWDON_clean_linker_0, # of connection points: 3
#     Node 6, Type 0, BuildingBlock: QEWDON_clean_linker_0, # of connection points: 3
#     Node 7, Type 0, BuildingBlock: QEWDON_clean_linker_0, # of connection points: 3
#     Node 8, Type 0, BuildingBlock: QEWDON_clean_linker_0, # of connection points: 3
#     Node 9, Type 0, BuildingBlock: QEWDON_clean_linker_0, # of connection points: 3
#     Node 10, Type 0, BuildingBlock: QEWDON_clean_linker_0, # of connection points: 3
#     Node 11, Type 0, BuildingBlock: QEWDON_clean_linker_0, # of connection points: 3
#     Node 12, Type 0, BuildingBlock: QEWDON_clean_linker_0, # of connection points: 3
#     Node 13, Type 0, BuildingBlock: QEWDON_clean_linker_0, # of connection points: 3
#     Node 14, Type 0, BuildingBlock: QEWDON_clean_linker_0, # of connection points: 3
#     Node 15, Type 0, BuildingBlock: QEWDON_clean_linker_0, # of connection points: 3
#     Node 16, Type 1, BuildingBlock: AZAVOO_clean_sbu_0, # of connection points: 4
#     Node 17, Type 1, BuildingBlock: AZAVOO_clean_sbu_0, # of connection points: 4
#     Node 18, Type 1, BuildingBlock: AZAVOO_clean_sbu_0, # of connection points: 4
#     Node 19, Type 1, BuildingBlock: AZAVOO_clean_sbu_0, # of connection points: 4
#     Node 20, Type 1, BuildingBlock: AZAVOO_clean_sbu_0, # of connection points: 4
#     Node 21, Type 1, BuildingBlock: AZAVOO_clean_sbu_0, # of connection points: 4
#     Node 22, Type 1, BuildingBlock: AZAVOO_clean_sbu_0, # of connection points: 4
#     Node 23, Type 1, BuildingBlock: AZAVOO_clean_sbu_0, # of connection points: 4
#     Node 24, Type 1, BuildingBlock: AZAVOO_clean_sbu_0, # of connection points: 4
#     Node 25, Type 1, BuildingBlock: AZAVOO_clean_sbu_0, # of connection points: 4
#     Node 26, Type 1, BuildingBlock: AZAVOO_clean_sbu_0, # of connection points: 4
#     Node 27, Type 1, BuildingBlock: AZAVOO_clean_sbu_0, # of connection points: 4
#     Edge 28, Type (0, 1), BuildingBlock: AJUNOK_clean_linker_0, # of connection points: 2
#     Edge 29, Type (0, 1), BuildingBlock: AJUNOK_clean_linker_0, # of connection points: 2
#     Edge 30, Type (0, 1), BuildingBlock: AJUNOK_clean_linker_0, # of connection points: 2
#     Edge 31, Type (0, 1), BuildingBlock: AJUNOK_clean_linker_0, # of connection points: 2
#     Edge 32, Type (0, 1), BuildingBlock: AJUNOK_clean_linker_0, # of connection points: 2
#     Edge 33, Type (0, 1), BuildingBlock: AJUNOK_clean_linker_0, # of connection points: 2
#     Edge 34, Type (0, 1), BuildingBlock: AJUNOK_clean_linker_0, # of connection points: 2
#     Edge 35, Type (0, 1), BuildingBlock: AJUNOK_clean_linker_0, # of connection points: 2
#     Edge 36, Type (0, 1), BuildingBlock: AJUNOK_clean_linker_0, # of connection points: 2
#     Edge 37, Type (0, 1), BuildingBlock: AJUNOK_clean_linker_0, # of connection points: 2
#     Edge 38, Type (0, 1), BuildingBlock: AJUNOK_clean_linker_0, # of connection points: 2
#     Edge 39, Type (0, 1), BuildingBlock: AJUNOK_clean_linker_0, # of connection points: 2
#     Edge 40, Type (0, 1), BuildingBlock: AJUNOK_clean_linker_0, # of connection points: 2
#     Edge 41, Type (0, 1), BuildingBlock: AJUNOK_clean_linker_0, # of connection points: 2
#     Edge 42, Type (0, 1), BuildingBlock: AJUNOK_clean_linker_0, # of connection points: 2
#     Edge 43, Type (0, 1), BuildingBlock: AJUNOK_clean_linker_0, # of connection points: 2
#     Edge 44, Type (0, 1), BuildingBlock: AJUNOK_clean_linker_0, # of connection points: 2
#     Edge 45, Type (0, 1), BuildingBlock: AJUNOK_clean_linker_0, # of connection points: 2
#     Edge 46, Type (0, 1), BuildingBlock: AJUNOK_clean_linker_0, # of connection points: 2
#     Edge 47, Type (0, 1), BuildingBlock: AJUNOK_clean_linker_0, # of connection points: 2
#     Edge 48, Type (0, 1), BuildingBlock: AJUNOK_clean_linker_0, # of connection points: 2
#     Edge 49, Type (0, 1), BuildingBlock: AJUNOK_clean_linker_0, # of connection points: 2
#     Edge 50, Type (0, 1), BuildingBlock: AJUNOK_clean_linker_0, # of connection points: 2
#     Edge 51, Type (0, 1), BuildingBlock: AJUNOK_clean_linker_0, # of connection points: 2
#     Edge 52, Type (0, 1), BuildingBlock: AJUNOK_clean_linker_0, # of connection points: 2
#     Edge 53, Type (0, 1), BuildingBlock: AJUNOK_clean_linker_0, # of connection points: 2
#     Edge 54, Type (0, 1), BuildingBlock: AJUNOK_clean_linker_0, # of connection points: 2
#     Edge 55, Type (0, 1), BuildingBlock: AJUNOK_clean_linker_0, # of connection points: 2
#     Edge 56, Type (0, 1), BuildingBlock: AJUNOK_clean_linker_0, # of connection points: 2
#     Edge 57, Type (0, 1), BuildingBlock: AJUNOK_clean_linker_0, # of connection points: 2
#     Edge 58, Type (0, 1), BuildingBlock: AJUNOK_clean_linker_0, # of connection points: 2
#     Edge 59, Type (0, 1), BuildingBlock: AJUNOK_clean_linker_0, # of connection points: 2
#     Edge 60, Type (0, 1), BuildingBlock: AJUNOK_clean_linker_0, # of connection points: 2
#     Edge 61, Type (0, 1), BuildingBlock: AJUNOK_clean_linker_0, # of connection points: 2
#     Edge 62, Type (0, 1), BuildingBlock: AJUNOK_clean_linker_0, # of connection points: 2
#     Edge 63, Type (0, 1), BuildingBlock: AJUNOK_clean_linker_0, # of connection points: 2
#     Edge 64, Type (0, 1), BuildingBlock: AJUNOK_clean_linker_0, # of connection points: 2
#     Edge 65, Type (0, 1), BuildingBlock: AJUNOK_clean_linker_0, # of connection points: 2
#     Edge 66, Type (0, 1), BuildingBlock: AJUNOK_clean_linker_0, # of connection points: 2
#     Edge 67, Type (0, 1), BuildingBlock: AJUNOK_clean_linker_0, # of connection points: 2
#     Edge 68, Type (0, 1), BuildingBlock: AJUNOK_clean_linker_0, # of connection points: 2
#     Edge 69, Type (0, 1), BuildingBlock: AJUNOK_clean_linker_0, # of connection points: 2
#     Edge 70, Type (0, 1), BuildingBlock: AJUNOK_clean_linker_0, # of connection points: 2
#     Edge 71, Type (0, 1), BuildingBlock: AJUNOK_clean_linker_0, # of connection points: 2
#     Edge 72, Type (0, 1), BuildingBlock: AJUNOK_clean_linker_0, # of connection points: 2
#     Edge 73, Type (0, 1), BuildingBlock: AJUNOK_clean_linker_0, # of connection points: 2
#     Edge 74, Type (0, 1), BuildingBlock: AJUNOK_clean_linker_0, # of connection points: 2
#     Edge 75, Type (0, 1), BuildingBlock: AJUNOK_clean_linker_0, # of connection points: 2
# Relax obj value: 0.122
# Max RMSD: 0.295
# Mean RMSD: 0.155
data_MOF--net-ctn--node1-AZAVOO_clean_sbu_0--node2-QEWDON_clean_linker_0--edge1-AJUNOK_clean_linker_0
_symmetry_space_group_name_H-M    P1
_symmetry_Int_Tables_number       1
_symmetry_cell_setting            triclinic
loop_
_symmetry_equiv_pos_as_xyz
'x, y, z'
_cell_length_a     37.814567
_cell_length_b     40.753826
_cell_length_c     43.306305
_cell_angle_alpha  98.799069
_cell_angle_beta   94.968571
_cell_angle_gamma 98.863869
loop_
_atom_site_label
_atom_site_type_symbol
_atom_site_fract_x
_atom_site_fract_y
_atom_site_fract_z
_atom_type_partial_charge
H0 H 0.1256 0.01092 0.04532 0.0
C1 C 0.10649 0.00809 0.06241 0.0
C2 C 0.10033 0.97798 0.07468 0.0
C3 C 0.09111 0.03581 0.07443 0.0
H4 H 0.07327 0.95302 0.10903 0.0
C5 C 0.07759 0.97579 0.09882 0.0
C6 C 0.06185 1.00357 0.11087 0.0
C7 C 0.06843 0.03325 0.09812 0.0
C8 C 0.10479 0.06941 0.06765 0.0
H9 H 0.05817 0.05539 0.10837 0.0
C10 C 0.08899 0.08184 0.04225 0.0
C11 C 0.10113 0.11508 0.03803 0.0
C12 C 0.133 0.08997 0.0883 0.0
H13 H 0.14527 0.08067 0.10805 0.0
C14 C 0.14524 0.12277 0.0839 0.0
H15 H 0.06701 0.06613 0.0264 0.0
C16 C 0.1293 0.13537 0.05902 0.0
H17 H 0.1391 0.16097 0.05598 0.0
H18 H 0.16695 0.13854 0.09994 0.0
H19 H 0.39244 0.77272 0.29318 0.0
C20 C 0.36849 0.75367 0.28686 0.0
C21 C 0.36526 0.72529 0.3018 0.0
C22 C 0.34119 0.75755 0.26404 0.0
H23 H 0.33292 0.67747 0.30373 0.0
C24 C 0.33514 0.69988 0.29288 0.0
C25 C 0.30799 0.70289 0.26982 0.0
C26 C 0.31064 0.73198 0.25596 0.0
C27 C 0.34498 0.78808 0.24862 0.0
H28 H 0.28904 0.73436 0.23874 0.0
C29 C 0.33173 0.78604 0.21679 0.0
C30 C 0.33618 0.8147 0.2022 0.0
C31 C 0.36235 0.81958 0.26558 0.0
H32 H 0.37199 0.82253 0.29029 0.0
C33 C 0.3671 0.84796 0.251 0.0
H34 H 0.31846 0.76216 0.20305 0.0
C35 C 0.35419 0.84558 0.21945 0.0
H36 H 0.35748 0.86803 0.20872 0.0
H37 H 0.38049 0.87199 0.26431 0.0
H38 H 0.06718 0.50503 0.047 0.0
C39 C 0.04551 0.51951 0.04569 0.0
C40 C 0.03417 0.53532 0.07347 0.0
C41 C 0.03004 0.5231 0.01603 0.0
H42 H 0.9963 0.566 0.09184 0.0
C43 C 1.00638 0.55457 0.07088 0.0
C44 C 0.99141 0.55915 0.04117 0.0
C45 C 1.00333 0.54315 0.01398 0.0
C46 C 0.04128 0.5054 0.98704 0.0
H47 H 0.99187 0.54642 0.99104 0.0
C48 C 0.04181 0.47071 0.98362 0.0
C49 C 0.05005 0.45299 0.95545 0.0
C50 C 0.05006 0.5226 0.96226 0.0
H51 H 0.04993 0.54942 0.96443 0.0
C52 C 0.05931 0.50529 0.93454 0.0
H53 H 0.03514 0.45737 1.00273 0.0
C54 C 0.05927 0.47063 0.93106 0.0
H55 H 0.06581 0.45752 0.90915 0.0
H56 H 0.06617 0.5187 0.91557 0.0
H57 H 0.80068 0.84338 0.25796 0.0
C58 C 0.79474 0.83168 0.23344 0.0
C59 C 0.81257 0.84624 0.2104 0.0
C60 C 0.7726 0.80006 0.22546 0.0
H61 H 0.82337 0.83868 0.16185 0.0
C62 C 0.8078 0.82872 0.17925 0.0
C63 C 0.78588 0.79688 0.17125 0.0
C64 C 0.76694 0.78363 0.19422 0.0
C65 C 0.76286 0.78027 0.25006 0.0
H66 H 0.75042 0.7588 0.18847 0.0
C67 C 0.73388 0.78558 0.26723 0.0
C68 C 0.72384 0.76448 0.28895 0.0
C69 C 0.78216 0.75438 0.2551 0.0
H70 H 0.80457 0.75001 0.24192 0.0
C71 C 0.77253 0.73379 0.27693 0.0
H72 H 0.71867 0.80526 0.26306 0.0
C73 C 0.74341 0.73865 0.29368 0.0
H74 H 0.73624 0.72234 0.31052 0.0
H75 H 0.78749 0.71388 0.2807 0.0
H76 H 0.15763 0.02124 0.52408 0.0
C77 C 0.13518 0.01776 0.50589 0.0
C78 C 0.13381 0.0423 0.48668 0.0
C79 C 0.10954 0.9878 0.50049 0.0
H80 H 0.1045 0.05669 0.44767 0.0
C81 C 0.10502 0.03806 0.46303 0.0
C82 C 0.07795 0.00935 0.45792 0.0
C83 C 0.08058 0.98396 0.47654 0.0
C84 C 0.11629 0.95976 0.51777 0.0
H85 H 0.06107 0.96085 0.47154 0.0
C86 C 0.08857 0.93907 0.52941 0.0
C87 C 0.09715 0.91434 0.54723 0.0
C88 C 0.15198 0.954 0.52305 0.0
H89 H 0.17378 0.96821 0.51347 0.0
C90 C 0.16031 0.92979 0.54057 0.0
H91 H 0.06083 0.9425 0.52518 0.0
C92 C 0.13325 0.91032 0.55279 0.0
H93 H 0.14045 0.89122 0.56587 0.0
H94 H 0.18791 0.92589 0.54448 0.0
H95 H 0.29129 0.67454 0.7558 0.0
C96 C 0.2848 0.6857 0.77854 0.0
C97 C 0.30094 0.67716 0.80605 0.0
C98 C 0.26257 0.71053 0.78011 0.0
H99 H 0.30711 0.68781 0.85668 0.0
C100 C 0.2943 0.69383 0.83536 0.0
C101 C 0.27236 0.71898 0.83751 0.0
C102 C 0.25614 0.72678 0.80964 0.0
C103 C 0.25276 0.72427 0.75135 0.0
H104 H 0.24092 0.74732 0.81082 0.0
C105 C 0.21678 0.72059 0.73751 0.0
C106 C 0.20923 0.73334 0.70947 0.0
C107 C 0.28064 0.74141 0.73749 0.0
H108 H 0.30836 0.74467 0.74786 0.0
C109 C 0.27315 0.75468 0.71037 0.0
H110 H 0.19516 0.70702 0.74784 0.0
C111 C 0.23783 0.75062 0.69639 0.0
H112 H 0.23281 0.76096 0.67514 0.0
H113 H 0.29487 0.76798 0.69998 0.0
H114 H 0.96318 0.56703 0.46638 0.0
C115 C 0.94618 0.5469 0.4745 0.0
C116 C 0.93952 0.5502 0.50636 0.0
C117 C 0.92932 0.51858 0.45257 0.0
H118 H 0.91012 0.52599 0.54 0.0
C119 C 0.91687 0.5237 0.51606 0.0
C120 C 0.9009 0.49481 0.49451 0.0
C121 C 0.90707 0.49255 0.46288 0.0
C122 C 0.93164 0.51735 0.41838 0.0
H123 H 0.8943 0.47044 0.44613 0.0
C124 C 0.96502 0.52157 0.40596 0.0
C125 C 0.96615 0.51904 0.37317 0.0
C126 C 0.89961 0.51149 0.39782 0.0
H127 H 0.87365 0.50848 0.40681 0.0
C128 C 0.90068 0.50993 0.36557 0.0
H129 H 0.98985 0.52577 0.4216 0.0
C130 C 0.93364 0.51371 0.35329 0.0
H131 H 0.93371 0.51269 0.32815 0.0
H132 H 0.87584 0.50577 0.35001 0.0
H133 H 0.85131 0.82671 0.77014 0.0
C134 C 0.8461 0.8091 0.78627 0.0
C135 C 0.86082 0.77913 0.78295 0.0
C136 C 0.82512 0.81664 0.81076 0.0
H137 H 0.86476 0.73339 0.80194 0.0
C138 C 0.85357 0.75646 0.80418 0.0
C139 C 0.83194 0.76364 0.82835 0.0
C140 C 0.81825 0.79388 0.8315 0.0
C141 C 0.81258 0.84937 0.81716 0.0
H142 H 0.80268 0.80021 0.8508 0.0
C143 C 0.78567 0.85804 0.7968 0.0
C144 C 0.77093 0.88736 0.80586 0.0
C145 C 0.82539 0.8707 0.84588 0.0
H146 H 0.84593 0.86433 0.86188 0.0
C147 C 0.81151 0.90006 0.85447 0.0
H148 H 0.7754 0.84157 0.77472 0.0
C149 C 0.78437 0.9083 0.83472 0.0
H150 H 0.77413 0.93138 0.84183 0.0
H151 H 0.82161 0.91637 0.87663 0.0
H152 H 0.33929 0.32733 0.26585 0.0
C153 C 0.33631 0.30779 0.28028 0.0
C154 C 0.3541 0.27985 0.27419 0.0
C155 C 0.31607 0.31141 0.30587 0.0
H156 H 0.36493 0.23395 0.28987 0.0
C157 C 0.35139 0.25551 0.29425 0.0
C158 C 0.33045 0.25864 0.31953 0.0
C159 C 0.31304 0.28662 0.325 0.0
C160 C 0.3003 0.34217 0.31478 0.0
H161 H 0.29763 0.28963 0.34495 0.0
C162 C 0.27586 0.35299 0.29364 0.0
C163 C 0.25979 0.38133 0.30356 0.0
C164 C 0.30885 0.3601 0.34561 0.0
H165 H 0.32768 0.35233 0.3622 0.0
C166 C 0.29329 0.38816 0.35538 0.0
H167 H 0.26873 0.33892 0.27001 0.0
C168 C 0.26895 0.39871 0.33461 0.0
H169 H 0.2577 0.42095 0.34275 0.0
H170 H 0.30018 0.40185 0.37914 0.0
H171 H 0.57113 1.00297 0.55264 0.0
C172 C 0.54995 0.01787 0.55021 0.0
C173 C 0.53747 0.03412 0.57709 0.0
C174 C 0.53653 0.02156 0.52002 0.0
H175 H 0.50151 0.06775 0.5937 0.0
C176 C 0.51127 0.05481 0.57322 0.0
C177 C 0.49739 0.0585 0.54281 0.0
C178 C 0.5106 0.04206 0.51643 0.0
C179 C 0.5494 1.00317 0.49235 0.0
H180 H 0.50075 0.04524 0.49298 0.0
C181 C 0.5473 0.96819 0.48927 0.0
C182 C 0.56158 0.95013 0.46444 0.0
C183 C 0.56458 0.0202 0.4696 0.0
H184 H 0.56636 0.04724 0.47159 0.0
C185 C 0.57836 1.00239 0.44451 0.0
H186 H 0.53395 0.95509 0.50615 0.0
C187 C 0.57711 0.9676 0.44198 0.0
H188 H 0.58849 0.95444 0.42261 0.0
H189 H 0.59038 0.01564 0.42714 0.0
H190 H 0.28858 0.32548 0.74924 0.0
C191 C 0.2863 0.31856 0.72387 0.0
C192 C 0.30333 0.34096 0.70587 0.0
C193 C 0.26917 0.28613 0.70942 0.0
H194 H 0.31758 0.34705 0.65964 0.0
C195 C 0.30247 0.33078 0.67329 0.0
C196 C 0.28566 0.2983 0.65879 0.0
C197 C 0.26846 0.27641 0.6769 0.0
C198 C 0.25759 0.26026 0.7285 0.0
H199 H 0.25713 0.25068 0.66617 0.0
C200 C 0.22879 0.26272 0.74661 0.0
C201 C 0.21723 0.23692 0.76352 0.0
C202 C 0.27509 0.23219 0.72765 0.0
H203 H 0.29741 0.22996 0.71382 0.0
C204 C 0.26398 0.20681 0.74465 0.0
H205 H 0.21486 0.28407 0.74676 0.0
C206 C 0.23517 0.20906 0.76242 0.0
H207 H 0.22705 0.18909 0.77555 0.0
H208 H 0.27766 0.1853 0.74398 0.0
H209 H 0.90438 0.27018 0.78271 0.0
C210 C 0.8808 0.25065 0.77671 0.0
C211 C 0.87987 0.22109 0.78973 0.0
C212 C 0.85124 0.25556 0.75684 0.0
H213 H 0.84847 0.17306 0.79233 0.0
C214 C 0.84944 0.19582 0.78209 0.0
C215 C 0.82003 0.19981 0.76173 0.0
C216 C 0.82079 0.22986 0.74953 0.0
C217 C 0.85186 0.28797 0.74476 0.0
H218 H 0.79751 0.23323 0.73467 0.0
C219 C 0.83613 0.28871 0.71419 0.0
C220 C 0.83604 0.3195 0.7033 0.0
C221 C 0.86786 0.31861 0.76406 0.0
H222 H 0.87945 0.3192 0.78794 0.0
C223 C 0.86857 0.34907 0.75302 0.0
H224 H 0.82364 0.26546 0.69893 0.0
C225 C 0.85282 0.34959 0.72283 0.0
H226 H 0.85364 0.37354 0.71475 0.0
H227 H 0.88109 0.37243 0.76804 0.0
H228 H 0.62141 0.49094 0.53944 0.0
C229 C 0.60152 0.49026 0.55603 0.0
C230 C 0.59084 0.46057 0.568 0.0
C231 C 0.5884 0.51982 0.56657 0.0
H232 H 0.55822 0.43866 0.60096 0.0
C233 C 0.56661 0.46112 0.59113 0.0
C234 C 0.55384 0.491 0.60235 0.0
C235 C 0.56422 0.51997 0.58927 0.0
C236 C 0.60424 0.55176 0.55743 0.0
H237 H 0.55561 0.54339 0.59846 0.0
C238 C 0.58363 0.56891 0.53884 0.0
C239 C 0.59931 0.59968 0.53108 0.0
C240 C 0.64041 0.56546 0.56805 0.0
H241 H 0.65658 0.55252 0.58245 0.0
C242 C 0.65582 0.59617 0.56055 0.0
H243 H 0.55576 0.55833 0.53036 0.0
C244 C 0.63539 0.61327 0.5422 0.0
H245 H 0.64784 0.63695 0.5363 0.0
H246 H 0.68368 0.60669 0.56892 0.0
H247 H 0.64783 0.51217 0.0129 0.0
C248 C 0.62505 0.51141 0.99562 0.0
C249 C 0.62386 0.53846 0.97932 0.0
C250 C 0.59847 0.48237 0.98851 0.0
H251 H 0.59457 0.55725 0.94302 0.0
C252 C 0.59448 0.5371 0.95672 0.0
C253 C 0.56691 0.50869 0.94958 0.0
C254 C 0.5691 0.48131 0.96581 0.0
C255 C 0.60616 0.45147 1.00024 0.0
H256 H 0.5493 0.45847 0.95943 0.0
C257 C 0.58361 0.43415 0.01908 0.0
C258 C 0.5942 0.40649 0.03152 0.0
C259 C 0.6383 0.44014 0.99319 0.0
H260 H 0.65585 0.4528 0.97857 0.0
C261 C 0.64833 0.41262 1.00493 0.0
H262 H 0.5588 0.44264 0.02472 0.0
C263 C 0.62664 0.39604 0.02405 0.0
H264 H 0.63504 0.37455 0.03272 0.0
H265 H 0.67313 0.40417 0.99926 0.0
H266 H 0.79305 0.17583 0.25485 0.0
C267 C 0.78756 0.1851 0.27849 0.0
C268 C 0.80566 0.175 0.30429 0.0
C269 C 0.76441 0.2089 0.28287 0.0
H270 H 0.81375 0.1813 0.35485 0.0
C271 C 0.79933 0.18838 0.33484 0.0
C272 C 0.77669 0.21282 0.33976 0.0
C273 C 0.75874 0.22233 0.31353 0.0
C274 C 0.75363 0.22539 0.25615 0.0
H275 H 0.74277 0.24225 0.31698 0.0
C276 C 0.71781 0.22021 0.24162 0.0
C277 C 0.70963 0.23555 0.2153 0.0
C278 C 0.78061 0.24651 0.24477 0.0
H279 H 0.8082 0.25087 0.25568 0.0
C280 C 0.77239 0.26221 0.21933 0.0
H281 H 0.69689 0.20363 0.25 0.0
C282 C 0.73727 0.25668 0.2046 0.0
H283 H 0.73164 0.26887 0.1846 0.0
H284 H 0.79341 0.27848 0.21079 0.0
H285 H 0.4685 0.06684 0.96602 0.0
C286 C 0.45119 0.0474 0.97473 0.0
C287 C 0.44329 0.05252 1.00623 0.0
C288 C 0.43524 0.01797 0.95379 0.0
H289 H 0.41489 0.02958 0.0411 0.0
C290 C 0.42157 0.02628 0.01711 0.0
C291 C 0.40674 0.99627 0.99665 0.0
C292 C 0.41327 0.99247 0.96508 0.0
C293 C 0.43823 0.015 0.91952 0.0
H294 H 0.40101 0.96953 0.94918 0.0
C295 C 0.47184 0.02097 0.9077 0.0
C296 C 0.47369 0.01712 0.87494 0.0
C297 C 0.40664 1.00608 0.89831 0.0
H298 H 0.38045 1.00182 0.90677 0.0
C299 C 0.40836 1.00312 0.86603 0.0
H300 H 0.49639 0.0276 0.92381 0.0
C301 C 0.44157 0.00862 0.85438 0.0
H302 H 0.44214 0.00644 0.82919 0.0
H303 H 0.38382 0.99657 0.84996 0.0
Mg304 Mg 0.23922 0.82935 0.02617 0.0
O305 O 0.28615 0.87283 0.02503 0.0
O306 O 0.33819 0.85349 0.02979 0.0
Mg307 Mg 0.32546 0.79757 0.03334 0.0
C308 C 0.32052 0.87727 0.02657 0.0
C309 C 0.20206 0.88904 0.03918 0.0
O310 O 0.2325 0.89542 0.05774 0.0
O311 O 0.2453 0.80773 0.97421 0.0
O312 O 0.29658 0.78788 0.9831 0.0
O313 O 0.24316 0.83815 0.0787 0.0
O314 O 0.27497 0.80545 0.05184 0.0
C315 C 0.27016 0.79197 0.96437 0.0
C316 C 0.26765 0.81944 0.07868 0.0
O317 O 0.19685 0.86348 0.0172 0.0
Mg318 Mg 0.15219 0.53598 0.2625 0.0
O319 O 0.11898 0.5317 0.21426 0.0
O320 O 0.15721 0.52512 0.17805 0.0
Mg321 Mg 0.21467 0.53199 0.20248 0.0
C322 C 0.12565 0.52692 0.18566 0.0
C323 C 0.09816 0.53968 0.31295 0.0
O324 O 0.12493 0.56347 0.32641 0.0
O325 O 0.16062 0.48066 0.25414 0.0
O326 O 0.20428 0.48308 0.22262 0.0
O327 O 0.16382 0.59251 0.26734 0.0
O328 O 0.19817 0.55868 0.24572 0.0
C329 C 0.18454 0.46727 0.23991 0.0
C330 C 0.19265 0.58894 0.25396 0.0
O331 O 0.10079 0.52351 0.28589 0.0
Mg332 Mg 0.83051 0.68516 1.00636 0.0
O333 O 0.77541 0.64898 0.99782 0.0
O334 O 0.73322 0.68167 0.99611 0.0
Mg335 Mg 0.7599 0.73668 1.00153 0.0
C336 C 0.74229 0.65265 0.9951 0.0
C337 C 0.89125 0.6512 0.02024 0.0
O338 O 0.89651 0.68169 0.0368 0.0
O339 O 0.82699 0.69233 0.95475 0.0
O340 O 0.78454 0.72498 0.95487 0.0
O341 O 0.82807 0.69072 0.05733 0.0
O342 O 0.80675 0.72477 0.02836 0.0
C343 C 0.80705 0.70943 0.94076 0.0
C344 C 0.81137 0.71581 0.05553 0.0
O345 O 0.86327 0.64232 1.00026 0.0
Mg346 Mg 0.96658 0.03798 0.27836 0.0
O347 O 0.92808 0.98706 0.26258 0.0
O348 O 0.96334 0.94838 0.25219 0.0
Mg349 Mg 0.02247 0.97202 0.26243 0.0
C350 C 0.93222 0.95668 0.2533 0.0
C351 C 0.91965 0.09339 0.28382 0.0
O352 O 0.9461 0.1034 0.26785 0.0
O353 O 0.98131 0.02438 0.32767 0.0
O354 O 0.01633 0.98611 0.31478 0.0
O355 O 0.9684 0.04373 0.22745 0.0
O356 O 1.00682 0.01935 0.25295 0.0
C357 C 1.00179 1.00389 0.33537 0.0
C358 C 0.99524 0.02751 0.22686 0.0
O359 O 0.91936 0.06532 0.29352 0.0
Mg360 Mg 0.3396 0.18707 0.49963 0.0
O361 O 0.28514 0.15056 0.49574 0.0
O362 O 0.24136 0.18131 0.49012 0.0
Mg363 Mg 0.2665 0.23572 0.48934 0.0
C364 C 0.25185 0.15347 0.49261 0.0
C365 C 0.39955 0.15127 0.51802 0.0
O366 O 0.40645 0.18171 0.53481 0.0
O367 O 0.33384 0.18748 0.44641 0.0
O368 O 0.29077 0.21931 0.44361 0.0
O369 O 0.33963 0.20079 0.55112 0.0
O370 O 0.31489 0.22781 0.51668 0.0
C371 C 0.31336 0.20281 0.43076 0.0
C372 C 0.32158 0.22406 0.54544 0.0
O373 O 0.37206 0.14392 0.49747 0.0
Mg374 Mg 0.45536 0.53459 0.76732 0.0
O375 O 0.41589 0.4841 0.75496 0.0
O376 O 0.44918 0.44319 0.74884 0.0
Mg377 Mg 0.50866 0.46609 0.75468 0.0
C378 C 0.41874 0.45297 0.74935 0.0
C379 C 0.4134 0.59291 0.7949 0.0
O380 O 0.44672 0.60814 0.80403 0.0
O381 O 0.47079 0.52424 0.81801 0.0
O382 O 0.50463 0.4846 0.80647 0.0
O383 O 0.45699 0.53689 0.71551 0.0
O384 O 0.49463 0.51325 0.7426 0.0
C385 C 0.49112 0.50397 0.82652 0.0
C386 C 0.48354 0.52031 0.71589 0.0
O387 O 0.40807 0.56237 0.78095 0.0
Mg388 Mg 0.7364 0.32454 0.52435 0.0
O389 O 0.78131 0.3691 0.52135 0.0
O390 O 0.83439 0.35301 0.53169 0.0
Mg391 Mg 0.82398 0.29799 0.53854 0.0
C392 C 0.81577 0.37511 0.52499 0.0
C393 C 0.66813 0.35022 0.52891 0.0
O394 O 0.66795 0.32522 0.54482 0.0
O395 O 0.74516 0.29908 0.47447 0.0
O396 O 0.79802 0.28349 0.4871 0.0
O397 O 0.73933 0.34038 0.57593 0.0
O398 O 0.77182 0.30475 0.55437 0.0
C399 C 0.7718 0.28473 0.46681 0.0
C400 C 0.76391 0.32219 0.57946 0.0
O401 O 0.69248 0.35461 0.51058 0.0
Mg402 Mg 0.65985 0.03849 0.76463 0.0
O403 O 0.62442 0.03361 0.71742 0.0
O404 O 0.66023 0.02435 0.67968 0.0
Mg405 Mg 0.71853 0.03026 0.70189 0.0
C406 C 0.62945 0.02755 0.68849 0.0
C407 C 0.60595 0.04381 0.81625 0.0
O408 O 0.63162 0.06878 0.82944 0.0
O409 O 0.66676 0.98284 0.75722 0.0
O410 O 0.70849 0.98243 0.72383 0.0
O411 O 0.67335 0.09488 0.76784 0.0
O412 O 0.70524 0.05905 0.74561 0.0
C413 C 0.68951 0.96813 0.74259 0.0
C414 C 0.70118 0.08979 0.75347 0.0
O415 O 0.60941 0.02728 0.78958 0.0
Mg416 Mg 0.08164 0.24281 0.9147 0.0
O417 O 0.02704 0.22727 0.88452 0.0
O418 O 0.98427 0.22445 0.91684 0.0
Mg419 Mg 1.01169 0.23664 0.96749 0.0
C420 C 0.99391 0.22235 0.88915 0.0
C421 C 0.10656 0.23216 0.84789 0.0
O422 O 0.08482 0.2034 0.84658 0.0
O423 O 0.06982 0.29581 0.9252 0.0
O424 O 0.02873 0.29122 0.95915 0.0
O425 O 0.08695 0.18963 0.91774 0.0
O426 O 0.06157 0.22206 0.9516 0.0
C427 C 0.04888 0.30875 0.94327 0.0
C428 C 0.07102 0.1933 0.94304 0.0
O429 O 0.10956 0.2543 0.87242 0.0
Mg430 Mg 0.56789 0.73499 0.41843 0.0
O431 O 0.5112 0.72281 0.3925 0.0
O432 O 0.47305 0.72649 0.42889 0.0
Mg433 Mg 0.50543 0.73523 0.47782 0.0
C434 C 0.4793 0.72208 0.40015 0.0
C435 C 0.61588 0.76981 0.37463 0.0
O436 O 0.62398 0.79158 0.40093 0.0
O437 O 0.56037 0.78917 0.43011 0.0
O438 O 0.52777 0.78945 0.47093 0.0
O439 O 0.57006 0.68121 0.42066 0.0
O440 O 0.55098 0.71582 0.45733 0.0
C441 C 0.54578 0.80465 0.45207 0.0
C442 C 0.55771 0.68617 0.44768 0.0
O443 O 0.59184 0.74406 0.37364 0.0
Mg444 Mg 0.98676 0.7388 0.62266 0.0
O445 O 0.04366 0.73384 0.64456 0.0
O446 O 0.07364 0.72054 0.6035 0.0
Mg447 Mg 0.03795 0.71597 0.55675 0.0
C448 C 0.07227 0.72682 0.63319 0.0
C449 C 0.93954 0.74553 0.6753 0.0
O450 O 0.92296 0.72057 0.65351 0.0
O451 O 1.00932 0.79067 0.60916 0.0
O452 O 0.03479 0.77234 0.56636 0.0
O453 O 0.96785 0.68268 0.61928 0.0
O454 O 0.99073 0.70593 0.58128 0.0
C455 C 0.02506 0.79602 0.58486 0.0
C456 C 0.9776 0.6791 0.59126 0.0
O457 O 0.97003 0.76108 0.67056 0.0
Mg458 Mg 0.4899 0.24072 0.12317 0.0
O459 O 0.54587 0.23476 0.14647 0.0
O460 O 0.57743 0.22197 0.10639 0.0
Mg461 Mg 0.54368 0.21874 0.059 0.0
C462 C 0.57488 0.22769 0.13591 0.0
C463 C 0.43743 0.26159 0.16712 0.0
O464 O 0.4199 0.2516 0.13887 0.0
O465 O 0.51348 0.29282 0.11105 0.0
O466 O 0.54154 0.27527 0.06954 0.0
O467 O 0.46947 0.18483 0.11837 0.0
O468 O 0.49512 0.20882 0.08189 0.0
C469 C 0.53113 0.29862 0.08792 0.0
C470 C 0.48031 0.18184 0.09072 0.0
O471 O 0.47135 0.26209 0.17023 0.0
C472 C 0.30221 0.75201 0.88914 0.0
C473 C 0.27034 0.73962 0.86879 0.0
C474 C 0.30167 0.77005 0.91926 0.0
C475 C 0.26923 0.77677 0.93062 0.0
H476 H 0.32798 0.74754 0.88183 0.0
H477 H 0.3271 0.77836 0.934 0.0
S478 S 0.17822 0.75131 0.88615 0.0
N479 N 0.20532 0.73639 0.86163 0.0
N480 N 0.20433 0.77063 0.91841 0.0
C481 C 0.23718 0.76573 0.91011 0.0
C482 C 0.23773 0.74711 0.87922 0.0
C483 C 0.02839 0.54992 0.37061 0.0
C484 C 1.00091 0.52223 0.35925 0.0
C485 C 0.05989 0.55504 0.35575 0.0
C486 C 0.06516 0.53267 0.32894 0.0
H487 H 0.02505 0.56835 0.39052 0.0
H488 H 0.0799 0.57716 0.36503 0.0
S489 S 1.00294 0.45408 0.29225 0.0
N490 N 0.98228 0.47057 0.32136 0.0
N491 N 0.0411 0.48029 0.29324 0.0
C492 C 0.03837 0.5042 0.31808 0.0
C493 C 1.0064 0.49897 0.33328 0.0
C494 C 0.85336 0.73403 0.87137 0.0
C495 C 0.82472 0.74129 0.85201 0.0
C496 C 0.84721 0.72083 0.89902 0.0
C497 C 0.81228 0.7148 0.90823 0.0
H498 H 0.88086 0.74088 0.8664 0.0
H499 H 0.87021 0.7178 0.91441 0.0
S500 S 0.72771 0.72327 0.8623 0.0
N501 N 0.75984 0.73648 0.84136 0.0
N502 N 0.74836 0.71238 0.89339 0.0
C503 C 0.78326 0.71915 0.88757 0.0
C504 C 0.78946 0.73219 0.85942 0.0
C505 C 0.04738 0.97634 0.40644 0.0
C506 C 0.05038 1.00468 0.43007 0.0
C507 C 0.02909 0.97532 0.37658 0.0
C508 C 1.0129 1.00255 0.36906 0.0
H509 H 0.06149 0.95584 0.41024 0.0
H510 H 0.0294 0.95368 0.3587 0.0
S511 S 1.00783 0.08013 0.42469 0.0
N512 N 0.03159 0.05865 0.4455 0.0
N513 N 0.99731 0.05685 0.3894 0.0
C514 C 1.01292 0.0297 0.39343 0.0
C515 C 0.03169 0.03076 0.42386 0.0
C516 C 0.32937 0.28435 0.62145 0.0
C517 C 0.29327 0.28427 0.627 0.0
C518 C 0.33808 0.26546 0.5943 0.0
C519 C 0.31104 0.24645 0.57153 0.0
H520 H 0.35108 0.2975 0.63907 0.0
H521 H 0.36621 0.265 0.59149 0.0
S522 S 0.21258 0.23916 0.57387 0.0
N523 N 0.23028 0.26446 0.60696 0.0
N524 N 0.24693 0.22952 0.55527 0.0
C525 C 0.27489 0.24732 0.5759 0.0
C526 C 0.26593 0.26611 0.60387 0.0
C527 C 0.5012 0.50658 0.62968 0.0
C528 C 0.53378 0.4939 0.63049 0.0
C529 C 0.48462 0.51407 0.65718 0.0
C530 C 0.50024 0.50967 0.68672 0.0
H531 H 0.48882 0.51141 0.60768 0.0
H532 H 0.45976 0.52411 0.65531 0.0
S533 S 0.58667 0.47867 0.70146 0.0
N534 N 0.58135 0.47766 0.66308 0.0
N535 N 0.55117 0.49258 0.71477 0.0
C536 C 0.53283 0.49678 0.68768 0.0
C537 C 0.54932 0.48869 0.6596 0.0
C538 C 0.82539 0.30023 0.64486 0.0
C539 C 0.81756 0.32046 0.67189 0.0
C540 C 0.80829 0.30118 0.61498 0.0
C541 C 0.78259 0.32227 0.61109 0.0
H542 H 0.8451 0.28376 0.64681 0.0
H543 H 0.8151 0.28505 0.59489 0.0
S544 S 0.75125 0.37877 0.67504 0.0
N545 N 0.78154 0.36109 0.69321 0.0
N546 N 0.74955 0.36323 0.63735 0.0
C547 C 0.77435 0.3424 0.63813 0.0
C548 C 0.79179 0.34142 0.66844 0.0
C549 C 0.5674 0.05982 0.63141 0.0
C550 C 0.55417 0.03084 0.60877 0.0
C551 C 0.58981 0.05814 0.65859 0.0
C552 C 0.59987 0.02749 0.66393 0.0
H553 H 0.56232 0.08429 0.62718 0.0
H554 H 0.60114 0.08127 0.67453 0.0
S555 S 0.56806 0.94367 0.61495 0.0
N556 N 0.54882 0.96981 0.59614 0.0
N557 N 0.59227 0.96721 0.64642 0.0
C558 C 0.58508 0.99811 0.6427 0.0
C559 C 0.5618 0.99964 0.61537 0.0
C560 C 0.90152 0.21048 0.84285 0.0
C561 C 0.90947 0.21775 0.81327 0.0
C562 C 0.929 0.21052 0.86673 0.0
C563 C 0.96561 0.21767 0.86198 0.0
H564 H 0.87383 0.206 0.84801 0.0
H565 H 0.92135 0.20586 0.88941 0.0
S566 S 1.00033 0.2345 0.78714 0.0
N567 N 0.95611 0.22945 0.77941 0.0
N568 N 1.00801 0.2296 0.82413 0.0
C569 C 0.97382 0.22328 0.83182 0.0
C570 C 0.94571 0.2234 0.80757 0.0
C571 C 0.5492 0.89215 0.43223 0.0
C572 C 0.5593 0.91303 0.46171 0.0
C573 C 0.54512 0.85702 0.42928 0.0
C574 C 0.5502 0.84155 0.45578 0.0
H575 H 0.54372 0.90293 0.41132 0.0
H576 H 0.53721 0.84183 0.40619 0.0
S577 S 0.58048 0.8844 0.53762 0.0
N578 N 0.57774 0.91537 0.51747 0.0
N579 N 0.56794 0.84924 0.51195 0.0
C580 C 0.56078 0.86191 0.48526 0.0
C581 C 0.56587 0.89769 0.48822 0.0
C582 C 0.15932 0.21004 0.7795 0.0
C583 C 0.18646 0.23845 0.78237 0.0
C584 C 0.13236 0.20902 0.79967 0.0
C585 C 0.13158 0.23632 0.82367 0.0
H586 H 0.15949 0.18802 0.762 0.0
H587 H 0.11286 0.18606 0.79715 0.0
S588 S 0.19472 0.31799 0.839 0.0
N589 N 0.20968 0.29542 0.80949 0.0
N590 N 0.15874 0.29388 0.84729 0.0
C591 C 0.15742 0.2657 0.8256 0.0
C592 C 0.18491 0.26668 0.80498 0.0
C593 C 0.57618 0.60746 0.47768 0.0
C594 C 0.57921 0.61762 0.51038 0.0
C595 C 0.56586 0.62873 0.45723 0.0
C596 C 0.55826 0.66083 0.46887 0.0
H597 H 0.58427 0.58402 0.46792 0.0
H598 H 0.56616 0.62081 0.43222 0.0
S599 S 0.55734 0.69646 0.55302 0.0
N600 N 0.57025 0.65964 0.55366 0.0
N601 N 0.55033 0.69966 0.51551 0.0
C602 C 0.55812 0.6698 0.50161 0.0
C603 C 0.56891 0.64821 0.52234 0.0
C604 C 0.87377 0.73972 0.73668 0.0
C605 C 0.88285 0.77097 0.75678 0.0
C606 C 0.89271 0.73182 0.71088 0.0
C607 C 0.9219 0.75465 0.70416 0.0
H608 H 0.85122 0.72146 0.74048 0.0
H609 H 0.8841 0.70752 0.69594 0.0
S610 S 0.95799 0.8392 0.75091 0.0
N611 N 0.92395 0.82446 0.76921 0.0
N612 N 0.95979 0.80953 0.72075 0.0
C613 C 0.93195 0.7857 0.72461 0.0
C614 C 0.91233 0.7939 0.75082 0.0
C615 C 0.07299 0.88561 0.59017 0.0
C616 C 0.06946 0.89019 0.55844 0.0
C617 C 0.05538 0.85634 0.59959 0.0
C618 C 0.03409 0.83048 0.57746 0.0
H619 H 0.09165 0.90362 0.60738 0.0
H620 H 0.061 0.85269 0.62367 0.0
S621 S 1.0121 0.8322 0.4926 0.0
N622 N 0.03965 0.86813 0.50586 0.0
N623 N 1.00698 0.81308 0.52331 0.0
C624 C 0.02793 0.8361 0.5463 0.0
C625 C 0.04544 0.86601 0.53685 0.0
C626 C 0.16732 0.71473 0.65993 0.0
C627 C 0.17234 0.72794 0.69226 0.0
C628 C 0.13472 0.71375 0.64154 0.0
C629 C 0.10538 0.72601 0.65452 0.0
H630 H 0.18925 0.70578 0.64851 0.0
H631 H 0.1329 0.70381 0.61668 0.0
S632 S 0.10405 0.76162 0.73867 0.0
N633 N 0.14492 0.75231 0.73698 0.0
N634 N 0.08326 0.7504 0.70255 0.0
C635 C 0.10953 0.7381 0.68722 0.0
C636 C 0.14301 0.73904 0.70602 0.0
C637 C 0.95226 0.6135 0.51758 0.0
C638 C 0.95291 0.58268 0.52844 0.0
C639 C 0.96173 0.64443 0.53796 0.0
C640 C 0.97141 0.64598 0.57028 0.0
H641 H 0.94313 0.6139 0.49326 0.0
H642 H 0.95996 0.66731 0.52847 0.0
S643 S 0.98153 0.5735 0.61057 0.0
N644 N 0.96804 0.55626 0.57354 0.0
N645 N 0.98363 0.61452 0.6121 0.0
C646 C 0.97313 0.61568 0.58154 0.0
C647 C 0.9644 0.58406 0.5606 0.0
C648 C 0.87634 0.87381 0.212 0.0
C649 C 0.8415 0.87602 0.22006 0.0
C650 C 0.90513 0.90011 0.22278 0.0
C651 C 0.90039 0.92993 0.242 0.0
H652 H 0.88168 0.85113 0.19791 0.0
H653 H 0.93143 0.89685 0.21597 0.0
S654 S 0.81395 0.94864 0.26898 0.0
N655 N 0.80336 0.91047 0.24778 0.0
N656 N 0.85762 0.96033 0.26805 0.0
C657 C 0.86545 0.93279 0.24978 0.0
C658 C 0.83604 0.90571 0.23892 0.0
C659 C 0.8351 0.12451 0.31214 0.0
C660 C 0.83473 0.15424 0.29931 0.0
C661 C 0.86245 0.10488 0.30712 0.0
C662 C 0.8908 0.11445 0.28942 0.0
H663 H 0.81383 0.11615 0.32581 0.0
H664 H 0.86131 0.08205 0.31719 0.0
S665 S 0.90342 0.19181 0.25284 0.0
N666 N 0.86604 0.1932 0.26963 0.0
N667 N 0.91703 0.15691 0.26013 0.0
C668 C 0.89092 0.14461 0.27706 0.0
C669 C 0.86307 0.16432 0.28202 0.0
C670 C 0.39858 0.94821 0.02628 0.0
C671 C 0.38336 0.96888 1.00765 0.0
C672 C 0.3777 0.91926 0.03327 0.0
C673 C 0.34074 0.91022 0.0222 0.0
H674 H 0.42711 0.95372 0.03442 0.0
H675 H 0.39083 0.90343 0.04687 0.0
S676 S 0.28795 0.95792 0.9742 0.0
N677 N 0.32927 0.97966 0.97943 0.0
N678 N 0.28963 0.92572 0.99296 0.0
C679 C 0.32495 0.93177 1.00475 0.0
C680 C 0.34639 0.96094 0.99731 0.0
C681 C 0.20358 0.40522 0.29295 0.0
C682 C 0.23461 0.39446 0.28198 0.0
C683 C 0.18459 0.42579 0.27707 0.0
C684 C 0.19595 0.43651 0.24958 0.0
H685 H 0.19531 0.39957 0.31516 0.0
H686 H 0.16278 0.43556 0.28798 0.0
S687 S 0.27045 0.40866 0.20722 0.0
N688 N 0.27222 0.3914 0.23928 0.0
N689 N 0.23609 0.42918 0.20885 0.0
C690 C 0.22418 0.42236 0.2363 0.0
C691 C 0.24366 0.40158 0.25265 0.0
C692 C 0.18217 0.07547 0.46242 0.0
C693 C 0.16447 0.07058 0.4891 0.0
C694 C 0.21148 0.10166 0.46398 0.0
C695 C 0.22393 0.12389 0.49223 0.0
H696 H 0.17335 0.05884 0.44017 0.0
H697 H 0.22402 0.10496 0.44284 0.0
S698 S 0.18685 0.12259 0.56851 0.0
N699 N 0.16167 0.09039 0.54456 0.0
N700 N 0.21646 0.1399 0.54727 0.0
C701 C 0.20665 0.11936 0.51904 0.0
C702 C 0.17704 0.09255 0.51756 0.0
C703 C 0.75416 0.17849 0.76169 0.0
C704 C 0.78831 0.17251 0.75423 0.0
C705 C 0.72533 0.15169 0.75962 0.0
C706 C 0.72966 0.11806 0.74987 0.0
H707 H 0.75022 0.2038 0.77075 0.0
H708 H 0.69997 0.15729 0.76702 0.0
S709 S 0.8132 0.09013 0.72408 0.0
N710 N 0.82414 0.13143 0.73382 0.0
N711 N 0.77062 0.08105 0.73024 0.0
C712 C 0.7633 0.11222 0.7405 0.0
C713 C 0.79246 0.13946 0.74263 0.0
C714 C 0.47687 0.11422 0.55345 0.0
C715 C 0.47031 0.08063 0.53804 0.0
C716 C 0.45379 0.13665 0.54672 0.0
C717 C 0.4231 0.1264 0.52433 0.0
H718 H 0.50064 0.12356 0.57016 0.0
H719 H 0.46046 0.1624 0.55901 0.0
S720 S 0.39238 0.04 0.47945 0.0
N721 N 0.42982 0.0374 0.50089 0.0
N722 N 0.38649 0.07955 0.48805 0.0
C723 C 0.41571 0.09253 0.50937 0.0
C724 C 0.43926 0.06968 0.51628 0.0
C725 C 0.61323 0.42104 0.52614 0.0
C726 C 0.60782 0.43037 0.55797 0.0
C727 C 0.6325 0.39501 0.51661 0.0
C728 C 0.64649 0.37682 0.53845 0.0
H729 H 0.60288 0.4343 0.50843 0.0
H730 H 0.63645 0.38908 0.49204 0.0
S731 S 0.64212 0.39238 0.62477 0.0
N732 N 0.62012 0.42022 0.61142 0.0
N733 N 0.65478 0.37067 0.5935 0.0
C734 C 0.64099 0.3856 0.57025 0.0
C735 C 0.622 0.41243 0.58 0.0
C736 C 0.74244 0.23654 0.38322 0.0
C737 C 0.77548 0.23163 0.37199 0.0
C738 C 0.74122 0.25455 0.41353 0.0
C739 C 0.77301 0.26835 0.43373 0.0
H740 H 0.71733 0.22592 0.36864 0.0
H741 H 0.7152 0.25693 0.42146 0.0
S742 S 0.86647 0.26676 0.41375 0.0
N743 N 0.84069 0.24511 0.3823 0.0
N744 N 0.83858 0.27842 0.43894 0.0
C745 C 0.8062 0.26465 0.42221 0.0
C746 C 0.80739 0.24645 0.39149 0.0
C747 C 0.53393 0.05183 0.87205 0.0
C748 C 0.50877 0.02213 0.8617 0.0
C749 C 0.5655 0.05839 0.85754 0.0
C750 C 0.57311 0.03551 0.83209 0.0
H751 H 0.52863 0.07063 0.89084 0.0
H752 H 0.58365 0.08197 0.86591 0.0
S753 S 0.51783 0.95208 0.79879 0.0
N754 N 0.49507 0.96824 0.82648 0.0
N755 N 0.554 0.98058 0.79902 0.0
C756 C 0.54875 1.0051 0.82237 0.0
C757 C 0.51673 0.99842 0.83722 0.0
C758 C 0.29282 0.22205 0.34962 0.0
C759 C 0.32722 0.23432 0.34189 0.0
C760 C 0.28857 0.20844 0.37713 0.0
C761 C 0.31856 0.20617 0.39779 0.0
H762 H 0.26894 0.22552 0.33561 0.0
H763 H 0.26156 0.20193 0.38342 0.0
S764 S 0.41446 0.2298 0.38575 0.0
N765 N 0.39182 0.23968 0.3551 0.0
N766 N 0.38387 0.21337 0.40662 0.0
C767 C 0.35311 0.2149 0.38861 0.0
C768 C 0.35744 0.22916 0.36064 0.0
C769 C 0.53502 0.47661 0.89821 0.0
C770 C 0.54005 0.50564 0.92135 0.0
C771 C 0.51666 0.47564 0.86846 0.0
C772 C 0.50251 0.50365 0.86034 0.0
H773 H 0.54744 0.45517 0.90224 0.0
H774 H 0.51525 0.45316 0.85111 0.0
S775 S 0.50293 0.58376 0.91428 0.0
N776 N 0.52499 0.56151 0.93564 0.0
N777 N 0.491 0.55986 0.87941 0.0
C778 C 0.50465 0.53184 0.88408 0.0
C779 C 0.52338 0.53282 0.91456 0.0
C780 C 0.78463 0.78623 0.1123 0.0
C781 C 0.78845 0.77474 0.14122 0.0
C782 C 0.79025 0.76633 0.08422 0.0
C783 C 0.80021 0.73441 0.08423 0.0
H784 H 0.77789 0.811 0.11147 0.0
H785 H 0.78806 0.77657 0.06262 0.0
S786 S 0.81322 0.69268 0.15393 0.0
N787 N 0.80281 0.72942 0.16813 0.0
N788 N 0.81217 0.69178 0.11566 0.0
C789 C 0.80301 0.72229 0.11295 0.0
C790 C 0.7975 0.74253 0.14137 0.0
C791 C 1.00919 0.01491 0.13994 0.0
C792 C 0.04285 1.00423 0.13962 0.0
C793 C 0.99359 0.02143 0.16807 0.0
C794 C 1.01117 0.01787 0.19712 0.0
H795 H 0.99528 0.01916 0.11835 0.0
H796 H 0.96789 0.03006 0.16706 0.0
S797 S 0.10052 0.99145 0.20896 0.0
N798 N 0.09335 0.99048 0.17067 0.0
N799 N 0.06464 1.00323 0.22353 0.0
C800 C 0.04464 0.00663 0.19696 0.0
C801 C 0.0603 0.99968 0.16825 0.0
C802 C 0.28255 0.8038 0.1621 0.0
C803 C 0.32003 0.81301 0.16953 0.0
C804 C 0.26601 0.80534 0.13226 0.0
C805 C 0.28646 0.81528 0.10865 0.0
H806 H 0.2658 0.79655 0.17983 0.0
H807 H 0.23692 0.79907 0.1277 0.0
S808 S 0.38553 0.84112 0.11608 0.0
N809 N 0.37723 0.83202 0.15092 0.0
N810 N 0.34605 0.83418 0.09451 0.0
C811 C 0.32402 0.82362 0.11546 0.0
C812 C 0.34084 0.8227 0.14605 0.0
C813 C 0.06373 0.50183 0.10945 0.0
C814 C 0.05282 0.53249 0.10469 0.0
C815 C 0.086 0.49966 0.13649 0.0
C816 C 0.09726 0.52773 0.16031 0.0
H817 H 0.05595 0.47949 0.09166 0.0
H818 H 0.09523 0.4761 0.13841 0.0
S819 S 0.07595 0.61346 0.16064 0.0
N820 N 0.05534 0.59159 0.1269 0.0
N821 N 0.0954 0.58667 0.17835 0.0
C822 C 0.08523 0.558 0.15685 0.0
C823 C 0.06333 0.56056 0.12897 0.0
C824 C 0.42984 0.72648 0.32106 0.0
C825 C 0.39352 0.72219 0.32667 0.0
C826 C 0.45714 0.72502 0.34459 0.0
C827 C 0.44928 0.71957 0.37484 0.0
H828 H 0.43723 0.7312 0.29832 0.0
H829 H 0.48473 0.72918 0.33915 0.0
S830 S 0.35794 0.70577 0.40101 0.0
N831 N 0.35078 0.71146 0.36421 0.0
N832 N 0.40197 0.70862 0.40853 0.0
C833 C 0.41285 0.71448 0.38048 0.0
C834 C 0.38504 0.71578 0.35639 0.0
C835 C 0.07769 0.40165 0.94074 0.0
C836 C 0.04864 0.41605 0.95156 0.0
C837 C 0.07741 0.36691 0.93793 0.0
C838 C 0.04809 0.34529 0.94594 0.0
H839 H 0.10112 0.41744 0.93495 0.0
H840 H 0.10064 0.35705 0.9299 0.0
S841 S 0.9638 0.37028 0.97244 0.0
N842 N 0.98865 0.40593 0.96805 0.0
N843 N 0.98823 0.3407 0.96326 0.0
C844 C 0.0185 0.35935 0.95615 0.0
C845 C 0.01875 0.39469 0.95882 0.0
C846 C 0.6658 0.74082 0.30645 0.0
C847 C 0.69291 0.76868 0.30687 0.0
C848 C 0.63932 0.74224 0.327 0.0
C849 C 0.63932 0.77146 0.34905 0.0
H850 H 0.66589 0.71732 0.29091 0.0
H851 H 0.61999 0.71959 0.32671 0.0
S852 S 0.70214 0.85259 0.35671 0.0
N853 N 0.71641 0.82725 0.32873 0.0
N854 N 0.66664 0.83011 0.36763 0.0
C855 C 0.66494 0.80024 0.34821 0.0
C856 C 0.69176 0.79881 0.32703 0.0
C857 C 0.06988 0.15869 0.01889 0.0
C858 C 0.08505 0.12945 0.01197 0.0
C859 C 0.06206 0.17754 0.99552 0.0
C860 C 0.06978 0.16813 0.96447 0.0
H861 H 0.06593 0.16807 0.04292 0.0
H862 H 0.05238 0.20093 1.00249 0.0
S863 S 0.10464 0.09063 0.93367 0.0
N864 N 0.10353 0.08958 0.97156 0.0
N865 N 0.08922 0.12511 0.92738 0.0
C866 C 0.08211 0.13731 0.95677 0.0
C867 C 0.08972 0.11794 0.98062 0.0
C868 C 0.41116 0.27012 0.25079 0.0
C869 C 0.37553 0.2763 0.24691 0.0
C870 C 0.43162 0.26666 0.22517 0.0
C871 C 0.41702 0.26878 0.19462 0.0
H872 H 0.42336 0.26804 0.27382 0.0
H873 H 0.45871 0.26142 0.22922 0.0
S874 S 0.32498 0.28503 0.17212 0.0
N875 N 0.32668 0.28462 0.21026 0.0
N876 N 0.3648 0.27833 0.16233 0.0
C877 C 0.38153 0.27538 0.19061 0.0
C878 C 0.36089 0.27907 0.21666 0.0
C879 C 0.5885 0.37975 0.07961 0.0
C880 C 0.57198 0.38683 0.05145 0.0
C881 C 0.57281 0.35321 0.09391 0.0
C882 C 0.53993 0.333 0.08067 0.0
H883 H 0.61515 0.39307 0.08924 0.0
H884 H 0.58798 0.34667 0.1138 0.0
S885 S 0.48354 0.34358 0.0097 0.0
N886 N 0.5191 0.37357 0.01289 0.0
N887 N 0.48965 0.32375 0.03978 0.0
C888 C 0.52165 0.34168 0.05422 0.0
C889 C 0.53757 0.36872 0.03967 0.0
C890 C 0.66972 0.21686 0.16478 0.0
C891 C 0.6732 0.22898 0.19725 0.0
C892 C 0.63757 0.21559 0.14564 0.0
C893 C 0.60727 0.2266 0.15799 0.0
H894 H 0.69256 0.20923 0.15386 0.0
H895 H 0.63694 0.20663 0.12069 0.0
S896 S 0.60198 0.25887 0.24225 0.0
N897 N 0.64342 0.25076 0.24146 0.0
N898 N 0.58263 0.24847 0.20561 0.0
C899 C 0.60993 0.23749 0.19081 0.0
C900 C 0.64291 0.23864 0.21038 0.0
C901 C 0.46643 0.08775 0.05945 0.0
C902 C 0.45523 0.08592 0.02717 0.0
C903 C 0.47496 0.11881 0.07999 0.0
C904 C 0.47353 0.14927 0.0689 0.0
H905 H 0.4683 0.06496 0.06903 0.0
H906 H 0.48277 0.11899 0.10469 0.0
S907 S 0.44409 0.15889 0.98731 0.0
N908 N 0.44118 0.11787 0.98586 0.0
N909 N 0.45941 0.17594 0.024 0.0
C910 C 0.46301 0.14798 0.03675 0.0
C911 C 0.45337 0.11643 0.01601 0.0
C912 C 0.35825 0.36848 0.74174 0.0
C913 C 0.32849 0.37173 0.72134 0.0
C914 C 0.38664 0.39546 0.75175 0.0
C915 C 0.38602 0.42686 0.74218 0.0
H916 H 0.36064 0.34433 0.74851 0.0
H917 H 0.40979 0.39139 0.76634 0.0
S918 S 0.31258 0.4491 0.69111 0.0
N919 N 0.29892 0.4091 0.69335 0.0
N920 N 0.35196 0.46031 0.71289 0.0
C921 C 0.35539 0.43106 0.72334 0.0
C922 C 0.32673 0.40332 0.71266 0.0
C923 C 0.36229 0.66414 0.8215 0.0
C924 C 0.32801 0.65387 0.80424 0.0
C925 C 0.3892 0.64394 0.81878 0.0
C926 C 0.38306 0.61232 0.79892 0.0
H927 H 0.36879 0.68851 0.83662 0.0
H928 H 0.41527 0.65352 0.83216 0.0
S929 S 0.29706 0.57279 0.74996 0.0
N930 N 0.28886 0.60934 0.76751 0.0
N931 N 0.33919 0.57124 0.76249 0.0
C932 C 0.3485 0.60129 0.78217 0.0
C933 C 0.32115 0.62209 0.78473 0.0
C934 C 0.89139 0.44887 0.52666 0.0
C935 C 0.87729 0.46682 0.50468 0.0
C936 C 0.87088 0.4198 0.53378 0.0
C937 C 0.83527 0.40794 0.51959 0.0
H938 H 0.91894 0.4566 0.5375 0.0
H939 H 0.88327 0.40617 0.55015 0.0
S940 S 0.7852 0.44788 0.46218 0.0
N941 N 0.82526 0.47204 0.46997 0.0
N942 N 0.78635 0.4178 0.48366 0.0
C943 C 0.82037 0.4267 0.49862 0.0
C944 C 0.8415 0.45599 0.49104 0.0
C945 C 0.75034 0.90501 0.7555 0.0
C946 C 0.74289 0.8979 0.78519 0.0
C947 C 0.72976 0.92453 0.73971 0.0
C948 C 0.70114 0.93786 0.75318 0.0
H949 H 0.77406 0.89803 0.7457 0.0
H950 H 0.73848 0.93162 0.71812 0.0
S951 S 0.66526 0.91829 0.82668 0.0
N952 N 0.7009 0.89952 0.82451 0.0
N953 N 0.66214 0.9362 0.79506 0.0
C954 C 0.69065 0.927 0.78091 0.0
C955 C 0.71167 0.90716 0.79694 0.0
C956 C 0.6484 0.60033 0.9885 0.0
C957 C 0.6547 0.56696 0.98391 0.0
C958 C 0.67685 0.6276 0.99214 0.0
C959 C 0.71296 0.62276 0.99122 0.0
H960 H 0.62119 0.60544 0.98946 0.0
H961 H 0.67028 0.65275 0.99577 0.0
S962 S 0.74361 0.5399 0.97803 0.0
N963 N 0.69948 0.53031 0.97732 0.0
N964 N 0.75305 0.58146 0.98451 0.0
C965 C 0.7196 0.58937 0.98646 0.0
C966 C 0.69051 0.56156 0.98273 0.0
C967 C 0.24223 0.67921 0.26573 0.0
C968 C 0.27738 0.67483 0.26015 0.0
C969 C 0.21423 0.65138 0.2618 0.0
C970 C 0.22049 0.61835 0.25202 0.0
H971 H 0.23679 0.704 0.27477 0.0
H972 H 0.18793 0.65569 0.26784 0.0
S973 S 0.3076 0.59475 0.23083 0.0
N974 N 0.3165 0.63605 0.24159 0.0
N975 N 0.26447 0.58375 0.23436 0.0
C976 C 0.25526 0.61419 0.24445 0.0
C977 C 0.28357 0.64245 0.24852 0.0
C978 C 0.93359 0.5718 0.01623 0.0
C979 C 0.96476 0.58206 0.03797 0.0
C980 C 0.90993 0.59417 0.01058 0.0
C981 C 0.91661 0.62775 0.02634 0.0
H982 H 0.92758 0.54628 1.00329 0.0
H983 H 0.88635 0.58507 0.99362 0.0
S984 S 0.99506 0.66716 0.08531 0.0
N985 N 1.00131 0.62799 0.07501 0.0
N986 N 0.95706 0.67 0.06488 0.0
C987 C 0.94763 0.63818 0.0484 0.0
C988 C 0.97159 0.61535 0.05413 0.0
C989 C 0.12507 0.93931 0.03372 0.0
C990 C 0.12242 0.95146 0.06563 0.0
C991 C 0.1497 0.9178 0.02494 0.0
C992 C 0.17309 0.90842 0.0478 0.0
H993 H 0.10853 0.94713 0.01542 0.0
H994 H 0.15149 0.90968 1.0002 0.0
S995 S 0.1758 0.93205 0.13447 0.0
N996 N 0.14453 0.95135 0.11995 0.0
N997 N 0.19046 0.91128 0.10373 0.0
C998 C 0.16983 0.91957 0.07974 0.0
C999 C 0.14461 0.94098 0.08859 0.0
loop_
_geom_bond_atom_site_label_1
_geom_bond_atom_site_label_2
_geom_bond_distance
_geom_bond_site_symmetry_2
_ccdc_geom_bond_type
H0 C1 0.949 . S
C1 H0 0.949 . S
C1 C2 1.395 1_545 S
C1 C3 1.391 . S
C2 C1 1.395 1_565 S
C2 C5 1.390 . S
C3 C1 1.391 . S
C3 C7 1.387 . S
C3 C8 1.491 . S
H4 C5 0.950 . S
C5 C2 1.390 . S
C5 H4 0.950 . S
C5 C6 1.378 1_565 S
C6 C5 1.378 1_545 S
C6 C7 1.409 . S
C7 C3 1.387 . S
C7 C6 1.409 . S
C7 H9 0.951 . S
C8 C3 1.491 . S
C8 C10 1.382 1_554 S
C8 C12 1.404 . S
H9 C7 0.951 . S
C10 C8 1.382 1_556 S
C10 C11 1.390 . S
C10 H15 0.949 . S
C11 C10 1.390 . S
C11 C16 1.399 . S
C12 C8 1.404 . S
C12 H13 0.950 . S
C12 C14 1.375 . S
H13 C12 0.950 . S
C14 C12 1.375 . S
C14 C16 1.382 1_554 S
C14 H18 0.950 . S
H15 C10 0.949 . S
C16 C11 1.399 . S
C16 C14 1.382 1_556 S
C16 H17 0.952 . S
H17 C16 0.952 . S
H18 C14 0.950 . S
H19 C20 0.949 . S
C20 H19 0.949 . S
C20 C21 1.395 . S
C20 C22 1.391 . S
C21 C20 1.395 . S
C21 C24 1.390 . S
C22 C20 1.391 . S
C22 C26 1.387 . S
C22 C27 1.491 . S
H23 C24 0.950 . S
C24 C21 1.390 . S
C24 H23 0.950 . S
C24 C25 1.378 . S
C25 C24 1.378 . S
C25 C26 1.409 . S
C26 C22 1.387 . S
C26 C25 1.409 . S
C26 H28 0.951 . S
C27 C22 1.491 . S
C27 C29 1.382 . S
C27 C31 1.404 . S
H28 C26 0.951 . S
C29 C27 1.382 . S
C29 C30 1.390 . S
C29 H34 0.949 . S
C30 C29 1.390 . S
C30 C35 1.399 . S
C31 C27 1.404 . S
C31 H32 0.950 . S
C31 C33 1.375 . S
H32 C31 0.950 . S
C33 C31 1.375 . S
C33 C35 1.382 . S
C33 H37 0.950 . S
H34 C29 0.949 . S
C35 C30 1.399 . S
C35 C33 1.382 . S
C35 H36 0.952 . S
H36 C35 0.952 . S
H37 C33 0.950 . S
H38 C39 0.949 . S
C39 H38 0.949 . S
C39 C40 1.395 . S
C39 C41 1.391 1_455 S
C40 C39 1.395 . S
C40 C43 1.390 1_455 S
C41 C39 1.391 1_655 S
C41 C45 1.387 . S
C41 C46 1.491 1_654 S
H42 C43 0.950 . S
C43 C40 1.390 1_655 S
C43 H42 0.950 . S
C43 C44 1.378 . S
C44 C43 1.378 . S
C44 C45 1.409 . S
C45 C41 1.387 . S
C45 C44 1.409 . S
C45 H47 0.967 . S
C46 C41 1.491 1_456 S
C46 C48 1.382 . S
C46 C50 1.404 . S
H47 C45 0.967 . S
C48 C46 1.382 . S
C48 C49 1.390 . S
C48 H53 0.949 1_556 S
C49 C48 1.390 . S
C49 C54 1.399 . S
C50 C46 1.404 . S
C50 H51 0.950 . S
C50 C52 1.375 . S
H51 C50 0.950 . S
C52 C50 1.375 . S
C52 C54 1.382 . S
C52 H56 0.950 . S
H53 C48 0.949 1_554 S
C54 C49 1.399 . S
C54 C52 1.382 . S
C54 H55 0.952 . S
H55 C54 0.952 . S
H56 C52 0.950 . S
H57 C58 0.949 . S
C58 H57 0.949 . S
C58 C59 1.395 . S
C58 C60 1.391 . S
C59 C58 1.395 . S
C59 C62 1.390 . S
C60 C58 1.391 . S
C60 C64 1.387 . S
C60 C65 1.491 . S
H61 C62 0.950 . S
C62 C59 1.390 . S
C62 H61 0.950 . S
C62 C63 1.378 . S
C63 C62 1.378 . S
C63 C64 1.409 . S
C64 C60 1.387 . S
C64 C63 1.409 . S
C64 H66 0.951 . S
C65 C60 1.491 . S
C65 C67 1.382 . S
C65 C69 1.404 . S
H66 C64 0.951 . S
C67 C65 1.382 . S
C67 C68 1.390 . S
C67 H72 0.949 . S
C68 C67 1.390 . S
C68 C73 1.399 . S
C69 C65 1.404 . S
C69 H70 0.950 . S
C69 C71 1.375 . S
H70 C69 0.950 . S
C71 C69 1.375 . S
C71 C73 1.382 . S
C71 H75 0.950 . S
H72 C67 0.949 . S
C73 C68 1.399 . S
C73 C71 1.382 . S
C73 H74 0.952 . S
H74 C73 0.952 . S
H75 C71 0.950 . S
H76 C77 0.949 . S
C77 H76 0.949 . S
C77 C78 1.395 1_565 S
C77 C79 1.391 . S
C78 C77 1.395 1_545 S
C78 C81 1.390 . S
C79 C77 1.391 . S
C79 C83 1.387 . S
C79 C84 1.491 . S
H80 C81 0.950 . S
C81 C78 1.390 . S
C81 H80 0.950 . S
C81 C82 1.379 . S
C82 C81 1.379 . S
C82 C83 1.408 1_545 S
C83 C79 1.387 . S
C83 C82 1.408 1_565 S
C83 H85 0.951 . S
C84 C79 1.491 . S
C84 C86 1.382 . S
C84 C88 1.404 . S
H85 C83 0.951 . S
C86 C84 1.382 . S
C86 C87 1.390 . S
C86 H91 0.949 . S
C87 C86 1.390 . S
C87 C92 1.399 . S
C88 C84 1.404 . S
C88 H89 0.950 . S
C88 C90 1.375 . S
H89 C88 0.950 . S
C90 C88 1.375 . S
C90 C92 1.382 . S
C90 H94 0.950 . S
H91 C86 0.949 . S
C92 C87 1.399 . S
C92 C90 1.382 . S
C92 H93 0.952 . S
H93 C92 0.952 . S
H94 C90 0.950 . S
H95 C96 0.949 . S
C96 H95 0.949 . S
C96 C97 1.395 . S
C96 C98 1.391 . S
C97 C96 1.395 . S
C97 C100 1.390 . S
C98 C96 1.391 . S
C98 C102 1.387 . S
C98 C103 1.491 . S
H99 C100 0.950 . S
C100 C97 1.390 . S
C100 H99 0.950 . S
C100 C101 1.378 . S
C101 C100 1.378 . S
C101 C102 1.409 . S
C102 C98 1.387 . S
C102 C101 1.409 . S
C102 H104 0.951 . S
C103 C98 1.491 . S
C103 C105 1.382 . S
C103 C107 1.404 . S
H104 C102 0.951 . S
C105 C103 1.382 . S
C105 C106 1.390 . S
C105 H110 0.949 . S
C106 C105 1.390 . S
C106 C111 1.399 . S
C107 C103 1.404 . S
C107 H108 0.950 . S
C107 C109 1.375 . S
H108 C107 0.950 . S
C109 C107 1.375 . S
C109 C111 1.382 . S
C109 H113 0.950 . S
H110 C105 0.949 . S
C111 C106 1.399 . S
C111 C109 1.382 . S
C111 H112 0.952 . S
H112 C111 0.952 . S
H113 C109 0.950 . S
H114 C115 0.949 . S
C115 H114 0.949 . S
C115 C116 1.395 . S
C115 C117 1.391 . S
C116 C115 1.395 . S
C116 C119 1.390 . S
C117 C115 1.391 . S
C117 C121 1.387 . S
C117 C122 1.491 . S
H118 C119 0.950 . S
C119 C116 1.390 . S
C119 H118 0.950 . S
C119 C120 1.378 . S
C120 C119 1.378 . S
C120 C121 1.409 . S
C121 C117 1.387 . S
C121 C120 1.409 . S
C121 H123 0.951 . S
C122 C117 1.491 . S
C122 C124 1.382 1_655 S
C122 C126 1.404 . S
H123 C121 0.951 . S
C124 C122 1.382 1_455 S
C124 C125 1.390 . S
C124 H129 0.949 . S
C125 C124 1.390 . S
C125 C130 1.399 1_455 S
C126 C122 1.404 . S
C126 H127 0.950 . S
C126 C128 1.375 . S
H127 C126 0.950 . S
C128 C126 1.375 . S
C128 C130 1.382 . S
C128 H132 0.950 . S
H129 C124 0.949 . S
C130 C125 1.399 1_655 S
C130 C128 1.382 . S
C130 H131 0.952 . S
H131 C130 0.952 . S
H132 C128 0.950 . S
H133 C134 0.949 . S
C134 H133 0.949 . S
C134 C135 1.395 . S
C134 C136 1.391 . S
C135 C134 1.395 . S
C135 C138 1.390 . S
C136 C134 1.391 . S
C136 C140 1.387 . S
C136 C141 1.491 . S
H137 C138 0.950 . S
C138 C135 1.390 . S
C138 H137 0.950 . S
C138 C139 1.378 . S
C139 C138 1.378 . S
C139 C140 1.409 . S
C140 C136 1.387 . S
C140 C139 1.409 . S
C140 H142 0.951 . S
C141 C136 1.491 . S
C141 C143 1.382 . S
C141 C145 1.404 . S
H142 C140 0.951 . S
C143 C141 1.382 . S
C143 C144 1.390 . S
C143 H148 0.949 . S
C144 C143 1.390 . S
C144 C149 1.399 . S
C145 C141 1.404 . S
C145 H146 0.950 . S
C145 C147 1.375 . S
H146 C145 0.950 . S
C147 C145 1.375 . S
C147 C149 1.382 . S
C147 H151 0.950 . S
H148 C143 0.949 . S
C149 C144 1.399 . S
C149 C147 1.382 . S
C149 H150 0.952 . S
H150 C149 0.952 . S
H151 C147 0.950 . S
H152 C153 0.949 . S
C153 H152 0.949 . S
C153 C154 1.395 . S
C153 C155 1.391 . S
C154 C153 1.395 . S
C154 C157 1.390 . S
C155 C153 1.391 . S
C155 C159 1.387 . S
C155 C160 1.491 . S
H156 C157 0.950 . S
C157 C154 1.390 . S
C157 H156 0.950 . S
C157 C158 1.378 . S
C158 C157 1.378 . S
C158 C159 1.409 . S
C159 C155 1.387 . S
C159 C158 1.409 . S
C159 H161 0.951 . S
C160 C155 1.491 . S
C160 C162 1.382 . S
C160 C164 1.404 . S
H161 C159 0.951 . S
C162 C160 1.382 . S
C162 C163 1.390 . S
C162 H167 0.949 . S
C163 C162 1.390 . S
C163 C168 1.399 . S
C164 C160 1.404 . S
C164 H165 0.950 . S
C164 C166 1.375 . S
H165 C164 0.950 . S
C166 C164 1.375 . S
C166 C168 1.382 . S
C166 H170 0.950 . S
H167 C162 0.949 . S
C168 C163 1.399 . S
C168 C166 1.382 . S
C168 H169 0.952 . S
H169 C168 0.952 . S
H170 C166 0.950 . S
H171 C172 0.949 . S
C172 H171 0.949 . S
C172 C173 1.395 . S
C172 C174 1.391 . S
C173 C172 1.395 . S
C173 C176 1.390 1_565 S
C174 C172 1.391 . S
C174 C178 1.387 . S
C174 C179 1.491 . S
H175 C176 0.950 . S
C176 C173 1.390 1_545 S
C176 H175 0.950 . S
C176 C177 1.378 . S
C177 C176 1.378 . S
C177 C178 1.409 1_545 S
C178 C174 1.387 . S
C178 C177 1.409 1_565 S
C178 H180 0.951 . S
C179 C174 1.491 . S
C179 C181 1.382 . S
C179 C183 1.404 . S
H180 C178 0.951 . S
C181 C179 1.382 . S
C181 C182 1.390 . S
C181 H186 0.949 . S
C182 C181 1.390 . S
C182 C187 1.399 . S
C183 C179 1.404 . S
C183 H184 0.950 . S
C183 C185 1.375 . S
H184 C183 0.950 . S
C185 C183 1.375 . S
C185 C187 1.382 . S
C185 H189 0.950 . S
H186 C181 0.949 . S
C187 C182 1.399 . S
C187 C185 1.382 . S
C187 H188 0.952 . S
H188 C187 0.952 . S
H189 C185 0.950 . S
H190 C191 0.949 . S
C191 H190 0.949 . S
C191 C192 1.395 . S
C191 C193 1.391 . S
C192 C191 1.395 . S
C192 C195 1.390 . S
C193 C191 1.391 . S
C193 C197 1.387 . S
C193 C198 1.491 . S
H194 C195 0.950 . S
C195 C192 1.390 . S
C195 H194 0.950 . S
C195 C196 1.378 . S
C196 C195 1.378 . S
C196 C197 1.409 . S
C197 C193 1.387 . S
C197 C196 1.409 . S
C197 H199 0.951 . S
C198 C193 1.491 . S
C198 C200 1.382 . S
C198 C202 1.404 . S
H199 C197 0.951 . S
C200 C198 1.382 . S
C200 C201 1.390 . S
C200 H205 0.949 . S
C201 C200 1.390 . S
C201 C206 1.399 . S
C202 C198 1.404 . S
C202 H203 0.950 . S
C202 C204 1.375 . S
H203 C202 0.950 . S
C204 C202 1.375 . S
C204 C206 1.382 . S
C204 H208 0.950 . S
H205 C200 0.949 . S
C206 C201 1.399 . S
C206 C204 1.382 . S
C206 H207 0.952 . S
H207 C206 0.952 . S
H208 C204 0.950 . S
H209 C210 0.949 . S
C210 H209 0.949 . S
C210 C211 1.395 . S
C210 C212 1.391 . S
C211 C210 1.395 . S
C211 C214 1.390 . S
C212 C210 1.391 . S
C212 C216 1.387 . S
C212 C217 1.491 . S
H213 C214 0.950 . S
C214 C211 1.390 . S
C214 H213 0.950 . S
C214 C215 1.378 . S
C215 C214 1.378 . S
C215 C216 1.409 . S
C216 C212 1.387 . S
C216 C215 1.409 . S
C216 H218 0.951 . S
C217 C212 1.491 . S
C217 C219 1.382 . S
C217 C221 1.404 . S
H218 C216 0.951 . S
C219 C217 1.382 . S
C219 C220 1.390 . S
C219 H224 0.949 . S
C220 C219 1.390 . S
C220 C225 1.399 . S
C221 C217 1.404 . S
C221 H222 0.950 . S
C221 C223 1.375 . S
H222 C221 0.950 . S
C223 C221 1.375 . S
C223 C225 1.382 . S
C223 H227 0.950 . S
H224 C219 0.949 . S
C225 C220 1.399 . S
C225 C223 1.382 . S
C225 H226 0.952 . S
H226 C225 0.952 . S
H227 C223 0.950 . S
H228 C229 0.949 . S
C229 H228 0.949 . S
C229 C230 1.395 . S
C229 C231 1.391 . S
C230 C229 1.395 . S
C230 C233 1.390 . S
C231 C229 1.391 . S
C231 C235 1.387 . S
C231 C236 1.491 . S
H232 C233 0.950 . S
C233 C230 1.390 . S
C233 H232 0.950 . S
C233 C234 1.378 . S
C234 C233 1.378 . S
C234 C235 1.409 . S
C235 C231 1.387 . S
C235 C234 1.409 . S
C235 H237 0.951 . S
C236 C231 1.491 . S
C236 C238 1.382 . S
C236 C240 1.404 . S
H237 C235 0.951 . S
C238 C236 1.382 . S
C238 C239 1.390 . S
C238 H243 0.949 . S
C239 C238 1.390 . S
C239 C244 1.399 . S
C240 C236 1.404 . S
C240 H241 0.950 . S
C240 C242 1.375 . S
H241 C240 0.950 . S
C242 C240 1.375 . S
C242 C244 1.382 . S
C242 H246 0.950 . S
H243 C238 0.949 . S
C244 C239 1.399 . S
C244 C242 1.382 . S
C244 H245 0.952 . S
H245 C244 0.952 . S
H246 C242 0.950 . S
H247 C248 0.949 1_554 S
C248 H247 0.949 1_556 S
C248 C249 1.395 . S
C248 C250 1.391 . S
C249 C248 1.395 . S
C249 C252 1.390 . S
C250 C248 1.391 . S
C250 C254 1.387 . S
C250 C255 1.491 . S
H251 C252 0.950 . S
C252 C249 1.390 . S
C252 H251 0.950 . S
C252 C253 1.378 . S
C253 C252 1.378 . S
C253 C254 1.409 . S
C254 C250 1.387 . S
C254 C253 1.409 . S
C254 H256 0.951 . S
C255 C250 1.491 . S
C255 C257 1.382 1_556 S
C255 C259 1.404 . S
H256 C254 0.951 . S
C257 C255 1.382 1_554 S
C257 C258 1.390 . S
C257 H262 0.949 . S
C258 C257 1.390 . S
C258 C263 1.399 . S
C259 C255 1.404 . S
C259 H260 0.950 . S
C259 C261 1.375 . S
H260 C259 0.950 . S
C261 C259 1.375 . S
C261 C263 1.382 1_556 S
C261 H265 0.950 . S
H262 C257 0.949 . S
C263 C258 1.399 . S
C263 C261 1.382 1_554 S
C263 H264 0.952 . S
H264 C263 0.952 . S
H265 C261 0.950 . S
H266 C267 0.949 . S
C267 H266 0.949 . S
C267 C268 1.395 . S
C267 C269 1.391 . S
C268 C267 1.395 . S
C268 C271 1.390 . S
C269 C267 1.391 . S
C269 C273 1.387 . S
C269 C274 1.491 . S
H270 C271 0.950 . S
C271 C268 1.390 . S
C271 H270 0.950 . S
C271 C272 1.378 . S
C272 C271 1.378 . S
C272 C273 1.409 . S
C273 C269 1.387 . S
C273 C272 1.409 . S
C273 H275 0.951 . S
C274 C269 1.491 . S
C274 C276 1.382 . S
C274 C278 1.404 . S
H275 C273 0.951 . S
C276 C274 1.382 . S
C276 C277 1.390 . S
C276 H281 0.949 . S
C277 C276 1.390 . S
C277 C282 1.399 . S
C278 C274 1.404 . S
C278 H279 0.950 . S
C278 C280 1.375 . S
H279 C278 0.950 . S
C280 C278 1.375 . S
C280 C282 1.382 . S
C280 H284 0.950 . S
H281 C276 0.949 . S
C282 C277 1.399 . S
C282 C280 1.382 . S
C282 H283 0.952 . S
H283 C282 0.952 . S
H284 C280 0.950 . S
H285 C286 0.949 . S
C286 H285 0.949 . S
C286 C287 1.402 . S
C286 C288 1.391 . S
C287 C286 1.402 . S
C287 C290 1.387 1_556 S
C288 C286 1.391 . S
C288 C292 1.387 . S
C288 C293 1.491 . S
H289 C290 0.950 . S
C290 C287 1.387 1_554 S
C290 H289 0.950 . S
C290 C291 1.378 1_554 S
C291 C290 1.378 1_556 S
C291 C292 1.409 . S
C292 C288 1.387 . S
C292 C291 1.409 . S
C292 H294 0.951 1_545 S
C293 C288 1.491 . S
C293 C295 1.382 . S
C293 C297 1.404 . S
H294 C292 0.951 1_565 S
C295 C293 1.382 . S
C295 C296 1.390 . S
C295 H300 0.949 . S
C296 C295 1.390 . S
C296 C301 1.399 . S
C297 C293 1.404 . S
C297 H298 0.950 . S
C297 C299 1.375 . S
H298 C297 0.950 . S
C299 C297 1.375 . S
C299 C301 1.382 . S
C299 H303 0.946 1_545 S
H300 C295 0.949 . S
C301 C296 1.399 . S
C301 C299 1.382 . S
C301 H302 0.952 . S
H302 C301 0.952 . S
H303 C299 0.946 1_565 S
Mg304 O305 2.028 . S
Mg304 O311 1.986 1_554 S
Mg304 O313 2.114 . S
Mg304 O314 2.251 . S
Mg304 O317 2.010 . S
O305 Mg304 2.028 . S
O305 C308 1.250 . S
O306 Mg307 2.028 . S
O306 C308 1.248 . S
Mg307 O306 2.028 . S
Mg307 O312 2.032 1_554 S
Mg307 O314 2.079 . S
C308 O305 1.250 . S
C308 O306 1.248 . S
C309 O310 1.264 . S
C309 O317 1.249 . S
O310 C309 1.264 . S
O311 Mg304 1.986 1_556 S
O311 C315 1.246 . S
O312 Mg307 2.032 1_556 S
O312 C315 1.259 . S
O313 Mg304 2.114 . S
O313 C316 1.252 . S
O314 Mg304 2.251 . S
O314 Mg307 2.079 . S
O314 C316 1.273 . S
C315 O311 1.246 . S
C315 O312 1.259 . S
C316 O313 1.252 . S
C316 O314 1.273 . S
O317 Mg304 2.010 . S
O317 C309 1.249 . S
Mg318 O319 2.028 . S
Mg318 O325 1.986 . S
Mg318 O327 2.114 . S
Mg318 O328 2.251 . S
Mg318 O331 2.010 . S
O319 Mg318 2.028 . S
O319 C322 1.250 . S
O320 Mg321 2.028 . S
O320 C322 1.248 . S
Mg321 O320 2.028 . S
Mg321 O326 2.032 . S
Mg321 O328 2.079 . S
C322 O319 1.250 . S
C322 O320 1.248 . S
C323 O324 1.264 . S
C323 O331 1.249 . S
O324 C323 1.264 . S
O325 Mg318 1.986 . S
O325 C329 1.246 . S
O326 Mg321 2.032 . S
O326 C329 1.259 . S
O327 Mg318 2.114 . S
O327 C330 1.252 . S
O328 Mg318 2.251 . S
O328 Mg321 2.079 . S
O328 C330 1.273 . S
C329 O325 1.246 . S
C329 O326 1.259 . S
C330 O327 1.252 . S
C330 O328 1.273 . S
O331 Mg318 2.010 . S
O331 C323 1.249 . S
Mg332 O333 2.029 1_554 S
Mg332 O339 1.986 1_554 S
Mg332 O341 2.114 . S
Mg332 O342 2.251 . S
Mg332 O345 2.010 . S
O333 Mg332 2.029 1_556 S
O333 C336 1.251 . S
O334 Mg335 2.028 . S
O334 C336 1.248 . S
Mg335 O334 2.028 . S
Mg335 O340 2.032 . S
Mg335 O342 2.079 1_556 S
C336 O333 1.251 . S
C336 O334 1.248 . S
C337 O338 1.264 . S
C337 O345 1.249 . S
O338 C337 1.264 . S
O339 Mg332 1.986 1_556 S
O339 C343 1.246 . S
O340 Mg335 2.032 . S
O340 C343 1.259 . S
O341 Mg332 2.114 . S
O341 C344 1.252 . S
O342 Mg332 2.251 . S
O342 Mg335 2.079 1_554 S
O342 C344 1.273 . S
C343 O339 1.246 . S
C343 O340 1.259 . S
C344 O341 1.252 . S
C344 O342 1.273 . S
O345 Mg332 2.010 . S
O345 C337 1.249 . S
Mg346 O347 2.028 . S
Mg346 O353 1.986 . S
Mg346 O355 2.114 . S
Mg346 O356 2.251 . S
Mg346 O359 2.010 . S
O347 Mg346 2.028 . S
O347 C350 1.250 1_545 S
O348 Mg349 2.028 . S
O348 C350 1.248 . S
Mg349 O348 2.028 . S
Mg349 O354 2.040 1_655 S
Mg349 O356 2.079 1_565 S
C350 O347 1.250 1_565 S
C350 O348 1.248 . S
C351 O352 1.264 . S
C351 O359 1.249 . S
O352 C351 1.264 . S
O353 Mg346 1.986 . S
O353 C357 1.246 1_655 S
O354 Mg349 2.040 1_455 S
O354 C357 1.238 1_565 S
O355 Mg346 2.114 . S
O355 C358 1.252 . S
O356 Mg346 2.251 . S
O356 Mg349 2.079 1_545 S
O356 C358 1.273 . S
C357 O353 1.246 1_455 S
C357 O354 1.238 1_545 S
C358 O355 1.252 . S
C358 O356 1.273 . S
O359 Mg346 2.010 . S
O359 C351 1.249 . S
Mg360 O361 2.028 . S
Mg360 O367 1.986 . S
Mg360 O369 2.114 . S
Mg360 O370 2.251 . S
Mg360 O373 2.010 . S
O361 Mg360 2.028 . S
O361 C364 1.250 . S
O362 Mg363 2.028 . S
O362 C364 1.248 . S
Mg363 O362 2.028 . S
Mg363 O368 2.032 . S
Mg363 O370 2.079 . S
C364 O361 1.250 . S
C364 O362 1.248 . S
C365 O366 1.264 . S
C365 O373 1.249 . S
O366 C365 1.264 . S
O367 Mg360 1.986 . S
O367 C371 1.246 . S
O368 Mg363 2.032 . S
O368 C371 1.259 . S
O369 Mg360 2.114 . S
O369 C372 1.252 . S
O370 Mg360 2.251 . S
O370 Mg363 2.079 . S
O370 C372 1.273 . S
C371 O367 1.246 . S
C371 O368 1.259 . S
C372 O369 1.252 . S
C372 O370 1.273 . S
O373 Mg360 2.010 . S
O373 C365 1.249 . S
Mg374 O375 2.028 . S
Mg374 O381 1.986 . S
Mg374 O383 2.114 . S
Mg374 O384 2.251 . S
Mg374 O387 2.010 . S
O375 Mg374 2.028 . S
O375 C378 1.250 . S
O376 Mg377 2.028 . S
O376 C378 1.248 . S
Mg377 O376 2.028 . S
Mg377 O382 2.032 . S
Mg377 O384 2.079 . S
C378 O375 1.250 . S
C378 O376 1.248 . S
C379 O380 1.264 . S
C379 O387 1.249 . S
O380 C379 1.264 . S
O381 Mg374 1.986 . S
O381 C385 1.246 . S
O382 Mg377 2.032 . S
O382 C385 1.259 . S
O383 Mg374 2.114 . S
O383 C386 1.252 . S
O384 Mg374 2.251 . S
O384 Mg377 2.079 . S
O384 C386 1.273 . S
C385 O381 1.246 . S
C385 O382 1.259 . S
C386 O383 1.252 . S
C386 O384 1.273 . S
O387 Mg374 2.010 . S
O387 C379 1.249 . S
Mg388 O389 2.028 . S
Mg388 O395 1.986 . S
Mg388 O397 2.114 . S
Mg388 O398 2.251 . S
Mg388 O401 2.010 . S
O389 Mg388 2.028 . S
O389 C392 1.250 . S
O390 Mg391 2.028 . S
O390 C392 1.248 . S
Mg391 O390 2.028 . S
Mg391 O396 2.032 . S
Mg391 O398 2.079 . S
C392 O389 1.250 . S
C392 O390 1.248 . S
C393 O394 1.264 . S
C393 O401 1.249 . S
O394 C393 1.264 . S
O395 Mg388 1.986 . S
O395 C399 1.246 . S
O396 Mg391 2.032 . S
O396 C399 1.259 . S
O397 Mg388 2.114 . S
O397 C400 1.252 . S
O398 Mg388 2.251 . S
O398 Mg391 2.079 . S
O398 C400 1.273 . S
C399 O395 1.246 . S
C399 O396 1.259 . S
C400 O397 1.252 . S
C400 O398 1.273 . S
O401 Mg388 2.010 . S
O401 C393 1.249 . S
Mg402 O403 2.028 . S
Mg402 O409 1.986 1_545 S
Mg402 O411 2.114 . S
Mg402 O412 2.251 . S
Mg402 O415 2.010 . S
O403 Mg402 2.028 . S
O403 C406 1.250 . S
O404 Mg405 2.028 . S
O404 C406 1.248 . S
Mg405 O404 2.028 . S
Mg405 O410 2.032 1_545 S
Mg405 O412 2.079 . S
C406 O403 1.250 . S
C406 O404 1.248 . S
C407 O408 1.264 . S
C407 O415 1.249 . S
O408 C407 1.264 . S
O409 Mg402 1.986 1_565 S
O409 C413 1.246 . S
O410 Mg405 2.032 1_565 S
O410 C413 1.259 . S
O411 Mg402 2.114 . S
O411 C414 1.252 . S
O412 Mg402 2.251 . S
O412 Mg405 2.079 . S
O412 C414 1.273 . S
C413 O409 1.246 . S
C413 O410 1.259 . S
C414 O411 1.252 . S
C414 O412 1.273 . S
O415 Mg402 2.010 . S
O415 C407 1.249 . S
Mg416 O417 2.028 1_455 S
Mg416 O423 1.986 . S
Mg416 O425 2.114 . S
Mg416 O426 2.251 1_455 S
Mg416 O429 2.010 . S
O417 Mg416 2.028 1_655 S
O417 C420 1.250 . S
O418 Mg419 2.028 . S
O418 C420 1.248 . S
Mg419 O418 2.028 . S
Mg419 O424 2.032 . S
Mg419 O426 2.079 . S
C420 O417 1.250 . S
C420 O418 1.248 . S
C421 O422 1.264 . S
C421 O429 1.249 . S
O422 C421 1.264 . S
O423 Mg416 1.986 . S
O423 C427 1.246 . S
O424 Mg419 2.032 . S
O424 C427 1.259 1_655 S
O425 Mg416 2.114 . S
O425 C428 1.252 . S
O426 Mg416 2.251 1_655 S
O426 Mg419 2.079 . S
O426 C428 1.273 1_655 S
C427 O423 1.246 . S
C427 O424 1.259 1_455 S
C428 O425 1.252 . S
C428 O426 1.273 1_455 S
O429 Mg416 2.010 . S
O429 C421 1.249 . S
Mg430 O431 2.028 . S
Mg430 O437 1.986 . S
Mg430 O439 2.114 . S
Mg430 O440 2.251 . S
Mg430 O443 2.010 . S
O431 Mg430 2.028 . S
O431 C434 1.250 . S
O432 Mg433 2.028 . S
O432 C434 1.248 . S
Mg433 O432 2.028 . S
Mg433 O438 2.032 . S
Mg433 O440 2.079 . S
C434 O431 1.250 . S
C434 O432 1.248 . S
C435 O436 1.264 . S
C435 O443 1.249 . S
O436 C435 1.264 . S
O437 Mg430 1.986 . S
O437 C441 1.246 . S
O438 Mg433 2.032 . S
O438 C441 1.259 . S
O439 Mg430 2.114 . S
O439 C442 1.252 . S
O440 Mg430 2.251 . S
O440 Mg433 2.079 . S
O440 C442 1.273 . S
C441 O437 1.246 . S
C441 O438 1.259 . S
C442 O439 1.252 . S
C442 O440 1.273 . S
O443 Mg430 2.010 . S
O443 C435 1.249 . S
Mg444 O445 2.028 1_655 S
Mg444 O451 1.986 1_655 S
Mg444 O453 2.114 . S
Mg444 O454 2.251 1_655 S
Mg444 O457 2.010 . S
O445 Mg444 2.028 1_455 S
O445 C448 1.250 . S
O446 Mg447 2.028 . S
O446 C448 1.248 . S
Mg447 O446 2.028 . S
Mg447 O452 2.032 . S
Mg447 O454 2.079 . S
C448 O445 1.250 . S
C448 O446 1.248 . S
C449 O450 1.264 . S
C449 O457 1.249 . S
O450 C449 1.264 . S
O451 Mg444 1.986 1_455 S
O451 C455 1.246 . S
O452 Mg447 2.032 . S
O452 C455 1.259 . S
O453 Mg444 2.114 . S
O453 C456 1.252 . S
O454 Mg444 2.251 1_455 S
O454 Mg447 2.079 . S
O454 C456 1.273 1_455 S
C455 O451 1.246 . S
C455 O452 1.259 . S
C456 O453 1.252 . S
C456 O454 1.273 1_655 S
O457 Mg444 2.010 . S
O457 C449 1.249 . S
Mg458 O459 2.028 . S
Mg458 O465 1.986 . S
Mg458 O467 2.114 . S
Mg458 O468 2.251 . S
Mg458 O471 2.010 . S
O459 Mg458 2.028 . S
O459 C462 1.250 . S
O460 Mg461 2.028 . S
O460 C462 1.248 . S
Mg461 O460 2.028 . S
Mg461 O466 2.032 . S
Mg461 O468 2.079 . S
C462 O459 1.250 . S
C462 O460 1.248 . S
C463 O464 1.264 . S
C463 O471 1.249 . S
O464 C463 1.264 . S
O465 Mg458 1.986 . S
O465 C469 1.246 . S
O466 Mg461 2.032 . S
O466 C469 1.259 . S
O467 Mg458 2.114 . S
O467 C470 1.252 . S
O468 Mg458 2.251 . S
O468 Mg461 2.079 . S
O468 C470 1.273 . S
C469 O465 1.246 . S
C469 O466 1.259 . S
C470 O467 1.252 . S
C470 O468 1.273 . S
O471 Mg458 2.010 . S
O471 C463 1.249 . S
C472 C473 1.369 . S
C472 C474 1.419 . S
C472 H476 0.930 . S
C473 C472 1.369 . S
C473 C482 1.429 . S
C474 C472 1.419 . S
C474 C475 1.363 . S
C474 H477 0.929 . S
C475 C474 1.363 . S
C475 C481 1.428 . S
H476 C472 0.930 . S
H477 C474 0.929 . S
S478 N479 1.613 . S
S478 N480 1.610 . S
N479 S478 1.613 . S
N479 C482 1.350 . S
N480 S478 1.610 . S
N480 C481 1.351 . S
C481 C475 1.428 . S
C481 N480 1.351 . S
C481 C482 1.434 . S
C482 C473 1.429 . S
C482 N479 1.350 . S
C482 C481 1.434 . S
C483 C484 1.369 . S
C483 C485 1.419 . S
C483 H487 0.930 . S
C484 C483 1.369 . S
C484 C493 1.429 . S
C485 C483 1.419 . S
C485 C486 1.363 . S
C485 H488 0.929 . S
C486 C485 1.363 . S
C486 C492 1.428 . S
H487 C483 0.930 . S
H488 C485 0.929 . S
S489 N490 1.613 . S
S489 N491 1.610 . S
N490 S489 1.613 . S
N490 C493 1.350 . S
N491 S489 1.610 . S
N491 C492 1.351 . S
C492 C486 1.428 . S
C492 N491 1.351 . S
C492 C493 1.434 . S
C493 C484 1.429 . S
C493 N490 1.350 . S
C493 C492 1.434 . S
C494 C495 1.369 . S
C494 C496 1.419 . S
C494 H498 0.930 . S
C495 C494 1.369 . S
C495 C504 1.429 . S
C496 C494 1.419 . S
C496 C497 1.363 . S
C496 H499 0.929 . S
C497 C496 1.363 . S
C497 C503 1.428 . S
H498 C494 0.930 . S
H499 C496 0.929 . S
S500 N501 1.613 . S
S500 N502 1.610 . S
N501 S500 1.613 . S
N501 C504 1.350 . S
N502 S500 1.610 . S
N502 C503 1.351 . S
C503 C497 1.428 . S
C503 N502 1.351 . S
C503 C504 1.434 . S
C504 C495 1.429 . S
C504 N501 1.350 . S
C504 C503 1.434 . S
C505 C506 1.369 1_565 S
C505 C507 1.419 . S
C505 H509 0.930 . S
C506 C505 1.369 1_545 S
C506 C515 1.429 . S
C507 C505 1.419 . S
C507 C508 1.363 1_565 S
C507 H510 0.929 1_455 S
C508 C507 1.363 1_545 S
C508 C514 1.428 . S
H509 C505 0.930 . S
H510 C507 0.929 1_655 S
S511 N512 1.613 . S
S511 N513 1.610 . S
N512 S511 1.613 . S
N512 C515 1.350 . S
N513 S511 1.610 . S
N513 C514 1.351 . S
C514 C508 1.428 . S
C514 N513 1.351 . S
C514 C515 1.434 . S
C515 C506 1.429 . S
C515 N512 1.350 . S
C515 C514 1.434 . S
C516 C517 1.369 . S
C516 C518 1.419 . S
C516 H520 0.930 . S
C517 C516 1.369 . S
C517 C526 1.429 . S
C518 C516 1.419 . S
C518 C519 1.363 . S
C518 H521 0.929 . S
C519 C518 1.363 . S
C519 C525 1.428 . S
H520 C516 0.930 . S
H521 C518 0.929 . S
S522 N523 1.613 . S
S522 N524 1.610 . S
N523 S522 1.613 . S
N523 C526 1.350 . S
N524 S522 1.610 . S
N524 C525 1.351 . S
C525 C519 1.428 . S
C525 N524 1.351 . S
C525 C526 1.434 . S
C526 C517 1.429 . S
C526 N523 1.350 . S
C526 C525 1.434 . S
C527 C528 1.369 . S
C527 C529 1.419 . S
C527 H531 0.930 . S
C528 C527 1.369 . S
C528 C537 1.429 . S
C529 C527 1.419 . S
C529 C530 1.363 . S
C529 H532 0.929 . S
C530 C529 1.363 . S
C530 C536 1.428 . S
H531 C527 0.930 . S
H532 C529 0.929 . S
S533 N534 1.613 . S
S533 N535 1.610 . S
N534 S533 1.613 . S
N534 C537 1.350 . S
N535 S533 1.610 . S
N535 C536 1.351 . S
C536 C530 1.428 . S
C536 N535 1.351 . S
C536 C537 1.434 . S
C537 C528 1.429 . S
C537 N534 1.350 . S
C537 C536 1.434 . S
C538 C539 1.369 . S
C538 C540 1.419 . S
C538 H542 0.930 . S
C539 C538 1.369 . S
C539 C548 1.429 . S
C540 C538 1.419 . S
C540 C541 1.363 . S
C540 H543 0.929 . S
C541 C540 1.363 . S
C541 C547 1.428 . S
H542 C538 0.930 . S
H543 C540 0.929 . S
S544 N545 1.613 . S
S544 N546 1.610 . S
N545 S544 1.613 . S
N545 C548 1.350 . S
N546 S544 1.610 . S
N546 C547 1.351 . S
C547 C541 1.428 . S
C547 N546 1.351 . S
C547 C548 1.434 . S
C548 C539 1.429 . S
C548 N545 1.350 . S
C548 C547 1.434 . S
C549 C550 1.369 1_545 S
C549 C551 1.419 . S
C549 H553 0.930 . S
C550 C549 1.369 1_565 S
C550 C559 1.429 . S
C551 C549 1.419 . S
C551 C552 1.363 . S
C551 H554 0.929 . S
C552 C551 1.363 . S
C552 C558 1.428 1_545 S
H553 C549 0.930 . S
H554 C551 0.929 . S
S555 N556 1.613 . S
S555 N557 1.610 . S
N556 S555 1.613 . S
N556 C559 1.350 . S
N557 S555 1.610 . S
N557 C558 1.351 . S
C558 C552 1.428 1_565 S
C558 N557 1.351 . S
C558 C559 1.434 . S
C559 C550 1.429 . S
C559 N556 1.350 . S
C559 C558 1.434 . S
C560 C561 1.369 . S
C560 C562 1.419 . S
C560 H564 0.930 . S
C561 C560 1.369 . S
C561 C570 1.429 . S
C562 C560 1.419 . S
C562 C563 1.363 . S
C562 H565 0.929 . S
C563 C562 1.363 . S
C563 C569 1.428 . S
H564 C560 0.930 . S
H565 C562 0.929 . S
S566 N567 1.613 . S
S566 N568 1.610 . S
N567 S566 1.613 . S
N567 C570 1.350 . S
N568 S566 1.610 . S
N568 C569 1.351 . S
C569 C563 1.428 . S
C569 N568 1.351 . S
C569 C570 1.434 . S
C570 C561 1.429 . S
C570 N567 1.350 . S
C570 C569 1.434 . S
C571 C572 1.369 . S
C571 C573 1.419 . S
C571 H575 0.930 . S
C572 C571 1.369 . S
C572 C581 1.429 . S
C573 C571 1.419 . S
C573 C574 1.363 . S
C573 H576 0.929 . S
C574 C573 1.363 . S
C574 C580 1.428 . S
H575 C571 0.930 . S
H576 C573 0.929 . S
S577 N578 1.613 . S
S577 N579 1.610 . S
N578 S577 1.613 . S
N578 C581 1.350 . S
N579 S577 1.610 . S
N579 C580 1.351 . S
C580 C574 1.428 . S
C580 N579 1.351 . S
C580 C581 1.434 . S
C581 C572 1.429 . S
C581 N578 1.350 . S
C581 C580 1.434 . S
C582 C583 1.369 . S
C582 C584 1.419 . S
C582 H586 0.930 . S
C583 C582 1.369 . S
C583 C592 1.429 . S
C584 C582 1.419 . S
C584 C585 1.363 . S
C584 H587 0.929 . S
C585 C584 1.363 . S
C585 C591 1.428 . S
H586 C582 0.930 . S
H587 C584 0.929 . S
S588 N589 1.613 . S
S588 N590 1.610 . S
N589 S588 1.613 . S
N589 C592 1.350 . S
N590 S588 1.610 . S
N590 C591 1.351 . S
C591 C585 1.428 . S
C591 N590 1.351 . S
C591 C592 1.434 . S
C592 C583 1.429 . S
C592 N589 1.350 . S
C592 C591 1.434 . S
C593 C594 1.369 . S
C593 C595 1.419 . S
C593 H597 0.930 . S
C594 C593 1.369 . S
C594 C603 1.429 . S
C595 C593 1.419 . S
C595 C596 1.363 . S
C595 H598 0.929 . S
C596 C595 1.363 . S
C596 C602 1.428 . S
H597 C593 0.930 . S
H598 C595 0.929 . S
S599 N600 1.613 . S
S599 N601 1.610 . S
N600 S599 1.613 . S
N600 C603 1.350 . S
N601 S599 1.610 . S
N601 C602 1.351 . S
C602 C596 1.428 . S
C602 N601 1.351 . S
C602 C603 1.434 . S
C603 C594 1.429 . S
C603 N600 1.350 . S
C603 C602 1.434 . S
C604 C605 1.369 . S
C604 C606 1.419 . S
C604 H608 0.930 . S
C605 C604 1.369 . S
C605 C614 1.429 . S
C606 C604 1.419 . S
C606 C607 1.363 . S
C606 H609 0.929 . S
C607 C606 1.363 . S
C607 C613 1.428 . S
H608 C604 0.930 . S
H609 C606 0.929 . S
S610 N611 1.613 . S
S610 N612 1.610 . S
N611 S610 1.613 . S
N611 C614 1.350 . S
N612 S610 1.610 . S
N612 C613 1.351 . S
C613 C607 1.428 . S
C613 N612 1.351 . S
C613 C614 1.434 . S
C614 C605 1.429 . S
C614 N611 1.350 . S
C614 C613 1.434 . S
C615 C616 1.369 . S
C615 C617 1.419 . S
C615 H619 0.930 . S
C616 C615 1.369 . S
C616 C625 1.429 . S
C617 C615 1.419 . S
C617 C618 1.363 . S
C617 H620 0.929 . S
C618 C617 1.363 . S
C618 C624 1.428 . S
H619 C615 0.930 . S
H620 C617 0.929 . S
S621 N622 1.613 1_655 S
S621 N623 1.610 . S
N622 S621 1.613 1_455 S
N622 C625 1.350 . S
N623 S621 1.610 . S
N623 C624 1.351 1_655 S
C624 C618 1.428 . S
C624 N623 1.351 1_455 S
C624 C625 1.434 . S
C625 C616 1.429 . S
C625 N622 1.350 . S
C625 C624 1.434 . S
C626 C627 1.369 . S
C626 C628 1.419 . S
C626 H630 0.930 . S
C627 C626 1.369 . S
C627 C636 1.429 . S
C628 C626 1.419 . S
C628 C629 1.363 . S
C628 H631 0.929 . S
C629 C628 1.363 . S
C629 C635 1.428 . S
H630 C626 0.930 . S
H631 C628 0.929 . S
S632 N633 1.613 . S
S632 N634 1.610 . S
N633 S632 1.613 . S
N633 C636 1.350 . S
N634 S632 1.610 . S
N634 C635 1.351 . S
C635 C629 1.428 . S
C635 N634 1.351 . S
C635 C636 1.434 . S
C636 C627 1.429 . S
C636 N633 1.350 . S
C636 C635 1.434 . S
C637 C638 1.369 . S
C637 C639 1.419 . S
C637 H641 0.930 . S
C638 C637 1.369 . S
C638 C647 1.429 . S
C639 C637 1.419 . S
C639 C640 1.363 . S
C639 H642 0.929 . S
C640 C639 1.363 . S
C640 C646 1.428 . S
H641 C637 0.930 . S
H642 C639 0.929 . S
S643 N644 1.613 . S
S643 N645 1.610 . S
N644 S643 1.613 . S
N644 C647 1.350 . S
N645 S643 1.610 . S
N645 C646 1.351 . S
C646 C640 1.428 . S
C646 N645 1.351 . S
C646 C647 1.434 . S
C647 C638 1.429 . S
C647 N644 1.350 . S
C647 C646 1.434 . S
C648 C649 1.369 . S
C648 C650 1.419 . S
C648 H652 0.930 . S
C649 C648 1.369 . S
C649 C658 1.429 . S
C650 C648 1.419 . S
C650 C651 1.363 . S
C650 H653 0.929 . S
C651 C650 1.363 . S
C651 C657 1.428 . S
H652 C648 0.930 . S
H653 C650 0.929 . S
S654 N655 1.613 . S
S654 N656 1.610 . S
N655 S654 1.613 . S
N655 C658 1.350 . S
N656 S654 1.610 . S
N656 C657 1.351 . S
C657 C651 1.428 . S
C657 N656 1.351 . S
C657 C658 1.434 . S
C658 C649 1.429 . S
C658 N655 1.350 . S
C658 C657 1.434 . S
C659 C660 1.369 . S
C659 C661 1.419 . S
C659 H663 0.930 . S
C660 C659 1.369 . S
C660 C669 1.429 . S
C661 C659 1.419 . S
C661 C662 1.363 . S
C661 H664 0.929 . S
C662 C661 1.363 . S
C662 C668 1.428 . S
H663 C659 0.930 . S
H664 C661 0.929 . S
S665 N666 1.613 . S
S665 N667 1.610 . S
N666 S665 1.613 . S
N666 C669 1.350 . S
N667 S665 1.610 . S
N667 C668 1.351 . S
C668 C662 1.428 . S
C668 N667 1.351 . S
C668 C669 1.434 . S
C669 C660 1.429 . S
C669 N666 1.350 . S
C669 C668 1.434 . S
C670 C671 1.369 1_554 S
C670 C672 1.419 . S
C670 H674 0.930 . S
C671 C670 1.369 1_556 S
C671 C680 1.429 . S
C672 C670 1.419 . S
C672 C673 1.363 . S
C672 H675 0.929 . S
C673 C672 1.363 . S
C673 C679 1.428 . S
H674 C670 0.930 . S
H675 C672 0.929 . S
S676 N677 1.613 1_565 S
S676 N678 1.610 . S
N677 S676 1.613 1_545 S
N677 C680 1.350 1_545 S
N678 S676 1.610 . S
N678 C679 1.351 1_556 S
C679 C673 1.428 . S
C679 N678 1.351 1_554 S
C679 C680 1.434 1_554 S
C680 C671 1.429 . S
C680 N677 1.350 1_565 S
C680 C679 1.434 1_556 S
C681 C682 1.369 . S
C681 C683 1.419 . S
C681 H685 0.930 . S
C682 C681 1.369 . S
C682 C691 1.429 . S
C683 C681 1.419 . S
C683 C684 1.363 . S
C683 H686 0.929 . S
C684 C683 1.363 . S
C684 C690 1.428 . S
H685 C681 0.930 . S
H686 C683 0.929 . S
S687 N688 1.613 . S
S687 N689 1.610 . S
N688 S687 1.613 . S
N688 C691 1.350 . S
N689 S687 1.610 . S
N689 C690 1.351 . S
C690 C684 1.428 . S
C690 N689 1.351 . S
C690 C691 1.434 . S
C691 C682 1.429 . S
C691 N688 1.350 . S
C691 C690 1.434 . S
C692 C693 1.369 . S
C692 C694 1.419 . S
C692 H696 0.930 . S
C693 C692 1.369 . S
C693 C702 1.429 . S
C694 C692 1.419 . S
C694 C695 1.363 . S
C694 H697 0.929 . S
C695 C694 1.363 . S
C695 C701 1.428 . S
H696 C692 0.930 . S
H697 C694 0.929 . S
S698 N699 1.613 . S
S698 N700 1.610 . S
N699 S698 1.613 . S
N699 C702 1.350 . S
N700 S698 1.610 . S
N700 C701 1.351 . S
C701 C695 1.428 . S
C701 N700 1.351 . S
C701 C702 1.434 . S
C702 C693 1.429 . S
C702 N699 1.350 . S
C702 C701 1.434 . S
C703 C704 1.369 . S
C703 C705 1.419 . S
C703 H707 0.930 . S
C704 C703 1.369 . S
C704 C713 1.429 . S
C705 C703 1.419 . S
C705 C706 1.363 . S
C705 H708 0.929 . S
C706 C705 1.363 . S
C706 C712 1.428 . S
H707 C703 0.930 . S
H708 C705 0.929 . S
S709 N710 1.613 . S
S709 N711 1.610 . S
N710 S709 1.613 . S
N710 C713 1.350 . S
N711 S709 1.610 . S
N711 C712 1.351 . S
C712 C706 1.428 . S
C712 N711 1.351 . S
C712 C713 1.434 . S
C713 C704 1.429 . S
C713 N710 1.350 . S
C713 C712 1.434 . S
C714 C715 1.369 . S
C714 C716 1.419 . S
C714 H718 0.930 . S
C715 C714 1.369 . S
C715 C724 1.429 . S
C716 C714 1.419 . S
C716 C717 1.363 . S
C716 H719 0.929 . S
C717 C716 1.363 . S
C717 C723 1.428 . S
H718 C714 0.930 . S
H719 C716 0.929 . S
S720 N721 1.613 . S
S720 N722 1.610 . S
N721 S720 1.613 . S
N721 C724 1.350 . S
N722 S720 1.610 . S
N722 C723 1.351 . S
C723 C717 1.428 . S
C723 N722 1.351 . S
C723 C724 1.434 . S
C724 C715 1.429 . S
C724 N721 1.350 . S
C724 C723 1.434 . S
C725 C726 1.369 . S
C725 C727 1.419 . S
C725 H729 0.930 . S
C726 C725 1.369 . S
C726 C735 1.429 . S
C727 C725 1.419 . S
C727 C728 1.363 . S
C727 H730 0.929 . S
C728 C727 1.363 . S
C728 C734 1.428 . S
H729 C725 0.930 . S
H730 C727 0.929 . S
S731 N732 1.613 . S
S731 N733 1.610 . S
N732 S731 1.613 . S
N732 C735 1.350 . S
N733 S731 1.610 . S
N733 C734 1.351 . S
C734 C728 1.428 . S
C734 N733 1.351 . S
C734 C735 1.434 . S
C735 C726 1.429 . S
C735 N732 1.350 . S
C735 C734 1.434 . S
C736 C737 1.369 . S
C736 C738 1.419 . S
C736 H740 0.930 . S
C737 C736 1.369 . S
C737 C746 1.429 . S
C738 C736 1.419 . S
C738 C739 1.363 . S
C738 H741 0.929 . S
C739 C738 1.363 . S
C739 C745 1.428 . S
H740 C736 0.930 . S
H741 C738 0.929 . S
S742 N743 1.613 . S
S742 N744 1.610 . S
N743 S742 1.613 . S
N743 C746 1.350 . S
N744 S742 1.610 . S
N744 C745 1.351 . S
C745 C739 1.428 . S
C745 N744 1.351 . S
C745 C746 1.434 . S
C746 C737 1.429 . S
C746 N743 1.350 . S
C746 C745 1.434 . S
C747 C748 1.369 . S
C747 C749 1.419 . S
C747 H751 0.930 . S
C748 C747 1.369 . S
C748 C757 1.429 . S
C749 C747 1.419 . S
C749 C750 1.363 . S
C749 H752 0.929 . S
C750 C749 1.363 . S
C750 C756 1.428 . S
H751 C747 0.930 . S
H752 C749 0.929 . S
S753 N754 1.613 . S
S753 N755 1.610 . S
N754 S753 1.613 . S
N754 C757 1.350 1_565 S
N755 S753 1.610 . S
N755 C756 1.351 1_565 S
C756 C750 1.428 . S
C756 N755 1.351 1_545 S
C756 C757 1.434 . S
C757 C748 1.429 . S
C757 N754 1.350 1_545 S
C757 C756 1.434 . S
C758 C759 1.369 . S
C758 C760 1.419 . S
C758 H762 0.930 . S
C759 C758 1.369 . S
C759 C768 1.429 . S
C760 C758 1.419 . S
C760 C761 1.363 . S
C760 H763 0.929 . S
C761 C760 1.363 . S
C761 C767 1.428 . S
H762 C758 0.930 . S
H763 C760 0.929 . S
S764 N765 1.613 . S
S764 N766 1.610 . S
N765 S764 1.613 . S
N765 C768 1.350 . S
N766 S764 1.610 . S
N766 C767 1.351 . S
C767 C761 1.428 . S
C767 N766 1.351 . S
C767 C768 1.434 . S
C768 C759 1.429 . S
C768 N765 1.350 . S
C768 C767 1.434 . S
C769 C770 1.369 . S
C769 C771 1.419 . S
C769 H773 0.930 . S
C770 C769 1.369 . S
C770 C779 1.429 . S
C771 C769 1.419 . S
C771 C772 1.363 . S
C771 H774 0.929 . S
C772 C771 1.363 . S
C772 C778 1.428 . S
H773 C769 0.930 . S
H774 C771 0.929 . S
S775 N776 1.613 . S
S775 N777 1.610 . S
N776 S775 1.613 . S
N776 C779 1.350 . S
N777 S775 1.610 . S
N777 C778 1.351 . S
C778 C772 1.428 . S
C778 N777 1.351 . S
C778 C779 1.434 . S
C779 C770 1.429 . S
C779 N776 1.350 . S
C779 C778 1.434 . S
C780 C781 1.369 . S
C780 C782 1.419 . S
C780 H784 0.930 . S
C781 C780 1.369 . S
C781 C790 1.429 . S
C782 C780 1.419 . S
C782 C783 1.363 . S
C782 H785 0.929 . S
C783 C782 1.363 . S
C783 C789 1.428 . S
H784 C780 0.930 . S
H785 C782 0.929 . S
S786 N787 1.613 . S
S786 N788 1.610 . S
N787 S786 1.613 . S
N787 C790 1.350 . S
N788 S786 1.610 . S
N788 C789 1.351 . S
C789 C783 1.428 . S
C789 N788 1.351 . S
C789 C790 1.434 . S
C790 C781 1.429 . S
C790 N787 1.350 . S
C790 C789 1.434 . S
C791 C792 1.369 1_565 S
C791 C793 1.417 1_565 S
C791 H795 0.930 . S
C792 C791 1.369 1_545 S
C792 C801 1.429 . S
C793 C791 1.417 1_545 S
C793 C794 1.371 . S
C793 H796 0.922 1_445 S
C794 C793 1.371 . S
C794 C800 1.428 . S
H795 C791 0.930 . S
H796 C793 0.922 1_665 S
S797 N798 1.613 . S
S797 N799 1.610 . S
N798 S797 1.613 . S
N798 C801 1.350 . S
N799 S797 1.610 . S
N799 C800 1.351 . S
C800 C794 1.428 . S
C800 N799 1.351 . S
C800 C801 1.434 . S
C801 C792 1.429 . S
C801 N798 1.350 . S
C801 C800 1.434 . S
C802 C803 1.369 . S
C802 C804 1.419 . S
C802 H806 0.930 . S
C803 C802 1.369 . S
C803 C812 1.429 . S
C804 C802 1.419 . S
C804 C805 1.363 . S
C804 H807 0.929 . S
C805 C804 1.363 . S
C805 C811 1.428 . S
H806 C802 0.930 . S
H807 C804 0.929 . S
S808 N809 1.613 . S
S808 N810 1.610 . S
N809 S808 1.613 . S
N809 C812 1.350 . S
N810 S808 1.610 . S
N810 C811 1.351 . S
C811 C805 1.428 . S
C811 N810 1.351 . S
C811 C812 1.434 . S
C812 C803 1.429 . S
C812 N809 1.350 . S
C812 C811 1.434 . S
C813 C814 1.369 . S
C813 C815 1.419 . S
C813 H817 0.930 . S
C814 C813 1.369 . S
C814 C823 1.429 . S
C815 C813 1.419 . S
C815 C816 1.363 . S
C815 H818 0.929 . S
C816 C815 1.363 . S
C816 C822 1.428 . S
H817 C813 0.930 . S
H818 C815 0.929 . S
S819 N820 1.613 . S
S819 N821 1.610 . S
N820 S819 1.613 . S
N820 C823 1.350 . S
N821 S819 1.610 . S
N821 C822 1.351 . S
C822 C816 1.428 . S
C822 N821 1.351 . S
C822 C823 1.434 . S
C823 C814 1.429 . S
C823 N820 1.350 . S
C823 C822 1.434 . S
C824 C825 1.369 . S
C824 C826 1.419 . S
C824 H828 0.930 . S
C825 C824 1.369 . S
C825 C834 1.429 . S
C826 C824 1.419 . S
C826 C827 1.363 . S
C826 H829 0.929 . S
C827 C826 1.363 . S
C827 C833 1.428 . S
H828 C824 0.930 . S
H829 C826 0.929 . S
S830 N831 1.613 . S
S830 N832 1.610 . S
N831 S830 1.613 . S
N831 C834 1.350 . S
N832 S830 1.610 . S
N832 C833 1.351 . S
C833 C827 1.428 . S
C833 N832 1.351 . S
C833 C834 1.434 . S
C834 C825 1.429 . S
C834 N831 1.350 . S
C834 C833 1.434 . S
C835 C836 1.369 . S
C835 C837 1.419 . S
C835 H839 0.930 . S
C836 C835 1.369 . S
C836 C845 1.429 1_455 S
C837 C835 1.419 . S
C837 C838 1.363 . S
C837 H840 0.929 . S
C838 C837 1.363 . S
C838 C844 1.428 1_455 S
H839 C835 0.930 . S
H840 C837 0.929 . S
S841 N842 1.613 . S
S841 N843 1.610 . S
N842 S841 1.613 . S
N842 C845 1.350 . S
N843 S841 1.610 . S
N843 C844 1.351 . S
C844 C838 1.428 1_655 S
C844 N843 1.351 . S
C844 C845 1.434 . S
C845 C836 1.429 1_655 S
C845 N842 1.350 . S
C845 C844 1.434 . S
C846 C847 1.369 . S
C846 C848 1.419 . S
C846 H850 0.930 . S
C847 C846 1.369 . S
C847 C856 1.429 . S
C848 C846 1.419 . S
C848 C849 1.363 . S
C848 H851 0.929 . S
C849 C848 1.363 . S
C849 C855 1.428 . S
H850 C846 0.930 . S
H851 C848 0.929 . S
S852 N853 1.613 . S
S852 N854 1.610 . S
N853 S852 1.613 . S
N853 C856 1.350 . S
N854 S852 1.610 . S
N854 C855 1.351 . S
C855 C849 1.428 . S
C855 N854 1.351 . S
C855 C856 1.434 . S
C856 C847 1.429 . S
C856 N853 1.350 . S
C856 C855 1.434 . S
C857 C858 1.369 . S
C857 C859 1.419 . S
C857 H861 0.930 . S
C858 C857 1.369 . S
C858 C867 1.429 . S
C859 C857 1.419 . S
C859 C860 1.363 . S
C859 H862 0.926 1_455 S
C860 C859 1.363 . S
C860 C866 1.428 . S
H861 C857 0.930 . S
H862 C859 0.926 1_655 S
S863 N864 1.613 . S
S863 N865 1.610 . S
N864 S863 1.613 . S
N864 C867 1.350 . S
N865 S863 1.610 . S
N865 C866 1.351 . S
C866 C860 1.428 . S
C866 N865 1.351 . S
C866 C867 1.434 . S
C867 C858 1.429 . S
C867 N864 1.350 . S
C867 C866 1.434 . S
C868 C869 1.369 . S
C868 C870 1.419 . S
C868 H872 0.930 . S
C869 C868 1.369 . S
C869 C878 1.429 . S
C870 C868 1.419 . S
C870 C871 1.363 . S
C870 H873 0.929 . S
C871 C870 1.363 . S
C871 C877 1.428 . S
H872 C868 0.930 . S
H873 C870 0.929 . S
S874 N875 1.613 . S
S874 N876 1.610 . S
N875 S874 1.613 . S
N875 C878 1.350 . S
N876 S874 1.610 . S
N876 C877 1.351 . S
C877 C871 1.428 . S
C877 N876 1.351 . S
C877 C878 1.434 . S
C878 C869 1.429 . S
C878 N875 1.350 . S
C878 C877 1.434 . S
C879 C880 1.369 . S
C879 C881 1.419 . S
C879 H883 0.930 . S
C880 C879 1.369 . S
C880 C889 1.429 . S
C881 C879 1.419 . S
C881 C882 1.363 . S
C881 H884 0.929 . S
C882 C881 1.363 . S
C882 C888 1.428 . S
H883 C879 0.930 . S
H884 C881 0.929 . S
S885 N886 1.613 . S
S885 N887 1.610 . S
N886 S885 1.613 . S
N886 C889 1.350 . S
N887 S885 1.610 . S
N887 C888 1.351 . S
C888 C882 1.428 . S
C888 N887 1.351 . S
C888 C889 1.434 . S
C889 C880 1.429 . S
C889 N886 1.350 . S
C889 C888 1.434 . S
C890 C891 1.369 . S
C890 C892 1.419 . S
C890 H894 0.930 . S
C891 C890 1.369 . S
C891 C900 1.429 . S
C892 C890 1.419 . S
C892 C893 1.363 . S
C892 H895 0.929 . S
C893 C892 1.363 . S
C893 C899 1.428 . S
H894 C890 0.930 . S
H895 C892 0.929 . S
S896 N897 1.613 . S
S896 N898 1.610 . S
N897 S896 1.613 . S
N897 C900 1.350 . S
N898 S896 1.610 . S
N898 C899 1.351 . S
C899 C893 1.428 . S
C899 N898 1.351 . S
C899 C900 1.434 . S
C900 C891 1.429 . S
C900 N897 1.350 . S
C900 C899 1.434 . S
C901 C902 1.369 . S
C901 C903 1.419 . S
C901 H905 0.930 . S
C902 C901 1.369 . S
C902 C911 1.429 . S
C903 C901 1.419 . S
C903 C904 1.363 . S
C903 H906 0.929 . S
C904 C903 1.363 . S
C904 C910 1.428 . S
H905 C901 0.930 . S
H906 C903 0.929 . S
S907 N908 1.613 1_554 S
S907 N909 1.610 . S
N908 S907 1.613 1_556 S
N908 C911 1.350 1_556 S
N909 S907 1.610 . S
N909 C910 1.351 . S
C910 C904 1.428 . S
C910 N909 1.351 . S
C910 C911 1.434 . S
C911 C902 1.429 . S
C911 N908 1.350 1_554 S
C911 C910 1.434 . S
C912 C913 1.369 . S
C912 C914 1.419 . S
C912 H916 0.930 . S
C913 C912 1.369 . S
C913 C922 1.429 . S
C914 C912 1.419 . S
C914 C915 1.363 . S
C914 H917 0.929 . S
C915 C914 1.363 . S
C915 C921 1.428 . S
H916 C912 0.930 . S
H917 C914 0.929 . S
S918 N919 1.613 . S
S918 N920 1.610 . S
N919 S918 1.613 . S
N919 C922 1.350 . S
N920 S918 1.610 . S
N920 C921 1.351 . S
C921 C915 1.428 . S
C921 N920 1.351 . S
C921 C922 1.434 . S
C922 C913 1.429 . S
C922 N919 1.350 . S
C922 C921 1.434 . S
C923 C924 1.369 . S
C923 C925 1.419 . S
C923 H927 0.930 . S
C924 C923 1.369 . S
C924 C933 1.429 . S
C925 C923 1.419 . S
C925 C926 1.363 . S
C925 H928 0.929 . S
C926 C925 1.363 . S
C926 C932 1.428 . S
H927 C923 0.930 . S
H928 C925 0.929 . S
S929 N930 1.613 . S
S929 N931 1.610 . S
N930 S929 1.613 . S
N930 C933 1.350 . S
N931 S929 1.610 . S
N931 C932 1.351 . S
C932 C926 1.428 . S
C932 N931 1.351 . S
C932 C933 1.434 . S
C933 C924 1.429 . S
C933 N930 1.350 . S
C933 C932 1.434 . S
C934 C935 1.369 . S
C934 C936 1.419 . S
C934 H938 0.930 . S
C935 C934 1.369 . S
C935 C944 1.429 . S
C936 C934 1.419 . S
C936 C937 1.363 . S
C936 H939 0.929 . S
C937 C936 1.363 . S
C937 C943 1.428 . S
H938 C934 0.930 . S
H939 C936 0.929 . S
S940 N941 1.613 . S
S940 N942 1.610 . S
N941 S940 1.613 . S
N941 C944 1.350 . S
N942 S940 1.610 . S
N942 C943 1.351 . S
C943 C937 1.428 . S
C943 N942 1.351 . S
C943 C944 1.434 . S
C944 C935 1.429 . S
C944 N941 1.350 . S
C944 C943 1.434 . S
C945 C946 1.369 . S
C945 C947 1.419 . S
C945 H949 0.930 . S
C946 C945 1.369 . S
C946 C955 1.429 . S
C947 C945 1.419 . S
C947 C948 1.363 . S
C947 H950 0.929 . S
C948 C947 1.363 . S
C948 C954 1.428 . S
H949 C945 0.930 . S
H950 C947 0.929 . S
S951 N952 1.613 . S
S951 N953 1.610 . S
N952 S951 1.613 . S
N952 C955 1.350 . S
N953 S951 1.610 . S
N953 C954 1.351 . S
C954 C948 1.428 . S
C954 N953 1.351 . S
C954 C955 1.434 . S
C955 C946 1.429 . S
C955 N952 1.350 . S
C955 C954 1.434 . S
C956 C957 1.369 1_554 S
C956 C958 1.419 . S
C956 H960 0.930 . S
C957 C956 1.369 1_556 S
C957 C966 1.429 . S
C958 C956 1.419 . S
C958 C959 1.363 1_554 S
C958 H961 0.929 . S
C959 C958 1.363 1_556 S
C959 C965 1.428 . S
H960 C956 0.930 . S
H961 C958 0.929 . S
S962 N963 1.613 . S
S962 N964 1.610 . S
N963 S962 1.613 . S
N963 C966 1.350 . S
N964 S962 1.610 . S
N964 C965 1.351 . S
C965 C959 1.428 . S
C965 N964 1.351 . S
C965 C966 1.434 . S
C966 C957 1.429 . S
C966 N963 1.350 . S
C966 C965 1.434 . S
C967 C968 1.369 . S
C967 C969 1.419 . S
C967 H971 0.930 . S
C968 C967 1.369 . S
C968 C977 1.429 . S
C969 C967 1.419 . S
C969 C970 1.363 . S
C969 H972 0.929 . S
C970 C969 1.363 . S
C970 C976 1.428 . S
H971 C967 0.930 . S
H972 C969 0.929 . S
S973 N974 1.613 . S
S973 N975 1.610 . S
N974 S973 1.613 . S
N974 C977 1.350 . S
N975 S973 1.610 . S
N975 C976 1.351 . S
C976 C970 1.428 . S
C976 N975 1.351 . S
C976 C977 1.434 . S
C977 C968 1.429 . S
C977 N974 1.350 . S
C977 C976 1.434 . S
C978 C979 1.369 . S
C978 C980 1.419 . S
C978 H982 0.930 . S
C979 C978 1.369 . S
C979 C988 1.429 . S
C980 C978 1.419 . S
C980 C981 1.363 . S
C980 H983 0.929 . S
C981 C980 1.363 . S
C981 C987 1.428 . S
H982 C978 0.930 . S
H983 C980 0.929 . S
S984 N985 1.613 . S
S984 N986 1.610 1_455 S
N985 S984 1.613 . S
N985 C988 1.350 1_455 S
N986 S984 1.610 1_655 S
N986 C987 1.351 . S
C987 C981 1.428 . S
C987 N986 1.351 . S
C987 C988 1.434 . S
C988 C979 1.429 . S
C988 N985 1.350 1_655 S
C988 C987 1.434 . S
C989 C990 1.369 . S
C989 C991 1.419 . S
C989 H993 0.930 . S
C990 C989 1.369 . S
C990 C999 1.429 . S
C991 C989 1.419 . S
C991 C992 1.363 . S
C991 H994 0.929 . S
C992 C991 1.363 . S
C992 C998 1.428 . S
H993 C989 0.930 . S
H994 C991 0.929 . S
S995 N996 1.613 . S
S995 N997 1.610 1_545 S
N996 S995 1.613 . S
N996 C999 1.350 1_545 S
N997 S995 1.610 1_565 S
N997 C998 1.351 . S
C998 C992 1.428 . S
C998 N997 1.351 . S
C998 C999 1.434 . S
C999 C990 1.429 . S
C999 N996 1.350 1_565 S
C999 C998 1.434 . S
C475 C315 1.780 . S
C473 C101 1.816 . S
C486 C323 1.000 . S
C484 C125 1.139 . S
C495 C139 1.895 . S
C497 C343 1.860 . S
C508 C357 1.707 . S
C506 C82 1.746 . S
C519 C372 1.602 . S
C517 C196 1.604 . S
C530 C386 1.853 . S
C528 C234 1.852 . S
C539 C220 1.025 . S
C541 C400 1.108 . S
C552 C406 1.607 . S
C550 C173 1.665 . S
C561 C211 1.257 . S
C563 C420 1.237 . S
C574 C441 1.197 . S
C572 C182 1.134 . S
C583 C201 1.294 . S
C585 C421 1.138 . S
C596 C442 1.416 . S
C594 C239 1.320 . S
C605 C135 1.653 . S
C607 C449 1.428 . S
C616 C87 1.655 . S
C618 C455 1.799 . S
C627 C106 1.172 . S
C629 C448 1.297 . S
C638 C116 1.251 . S
C640 C456 1.268 . S
C649 C59 1.851 . S
C651 C350 1.801 . S
C660 C268 2.080 . S
C662 C351 1.891 . S
C673 C308 1.266 . S
C671 C291 1.291 1_565 S
C684 C329 1.461 . S
C682 C163 1.326 . S
C693 C78 1.945 . S
C695 C364 1.926 . S
C706 C414 1.308 . S
C704 C215 1.301 . S
C717 C365 1.460 . S
C715 C177 1.598 . S
C728 C393 1.488 . S
C726 C230 1.814 . S
C739 C399 1.782 . S
C737 C272 1.828 . S
C748 C296 1.145 . S
C750 C407 1.002 . S
C759 C158 1.892 . S
C761 C371 1.863 . S
C772 C385 1.694 . S
C770 C253 1.733 . S
C781 C63 1.599 . S
C783 C344 1.597 . S
C794 C358 1.858 1_455 S
C792 C6 1.851 . S
C805 C316 1.110 . S
C803 C30 1.031 . S
C816 C322 1.622 . S
C814 C40 1.679 . S
C825 C21 1.270 . S
C827 C434 1.247 . S
C836 C49 1.124 . S
C838 C427 1.185 . S
C847 C68 1.289 . S
C849 C435 1.132 . S
C858 C11 1.304 . S
C860 C428 1.411 . S
C871 C463 1.415 . S
C869 C154 1.640 . S
C882 C469 1.806 . S
C880 C258 1.665 . S
C893 C462 1.323 . S
C891 C277 1.173 . S
C902 C287 1.251 1_554 S
C904 C470 1.264 . S
C913 C192 1.847 . S
C915 C378 1.796 . S
C926 C379 1.880 . S
C924 C97 2.067 . S
C937 C392 1.266 . S
C935 C120 1.293 . S
C948 C413 1.463 . S
C946 C144 1.335 . S
C957 C249 1.939 . S
C959 C336 1.928 . S
C970 C330 1.319 . S
C968 C25 1.318 . S
C979 C44 1.584 . S
C981 C337 1.444 . S
C992 C309 1.495 . S
C990 C2 1.813 . S
