# Generated by pormake.
# Topology wbl, (4,4)-cn, num edge types: 1
# Building blocks:
#     Node 0, Type 0, BuildingBlock: MIFKUJ_clean_linker_1, # of connection points: 4
#     Node 1, Type 0, BuildingBlock: MIFKUJ_clean_linker_1, # of connection points: 4
#     Node 2, Type 0, BuildingBlock: MIFKUJ_clean_linker_1, # of connection points: 4
#     Node 3, Type 0, BuildingBlock: MIFKUJ_clean_linker_1, # of connection points: 4
#     Node 4, Type 0, BuildingBlock: MIFKUJ_clean_linker_1, # of connection points: 4
#     Node 5, Type 0, BuildingBlock: MIFKUJ_clean_linker_1, # of connection points: 4
#     Node 6, Type 0, BuildingBlock: MIFKUJ_clean_linker_1, # of connection points: 4
#     Node 7, Type 0, BuildingBlock: MIFKUJ_clean_linker_1, # of connection points: 4
#     Node 8, Type 1, BuildingBlock: KUFVIS_clean_sbu_0, # of connection points: 4
#     Node 9, Type 1, BuildingBlock: KUFVIS_clean_sbu_0, # of connection points: 4
#     Node 10, Type 1, BuildingBlock: KUFVIS_clean_sbu_0, # of connection points: 4
#     Node 11, Type 1, BuildingBlock: KUFVIS_clean_sbu_0, # of connection points: 4
#     Node 12, Type 1, BuildingBlock: KUFVIS_clean_sbu_0, # of connection points: 4
#     Node 13, Type 1, BuildingBlock: KUFVIS_clean_sbu_0, # of connection points: 4
#     Node 14, Type 1, BuildingBlock: KUFVIS_clean_sbu_0, # of connection points: 4
#     Node 15, Type 1, BuildingBlock: KUFVIS_clean_sbu_0, # of connection points: 4
#     Edge 16, Type (0, 1), BuildingBlock: KIFKEQ_clean_linker_1, # of connection points: 2
#     Edge 17, Type (0, 1), BuildingBlock: KIFKEQ_clean_linker_1, # of connection points: 2
#     Edge 18, Type (0, 1), BuildingBlock: KIFKEQ_clean_linker_1, # of connection points: 2
#     Edge 19, Type (0, 1), BuildingBlock: KIFKEQ_clean_linker_1, # of connection points: 2
#     Edge 20, Type (0, 1), BuildingBlock: KIFKEQ_clean_linker_1, # of connection points: 2
#     Edge 21, Type (0, 1), BuildingBlock: KIFKEQ_clean_linker_1, # of connection points: 2
#     Edge 22, Type (0, 1), BuildingBlock: KIFKEQ_clean_linker_1, # of connection points: 2
#     Edge 23, Type (0, 1), BuildingBlock: KIFKEQ_clean_linker_1, # of connection points: 2
#     Edge 24, Type (0, 1), BuildingBlock: KIFKEQ_clean_linker_1, # of connection points: 2
#     Edge 25, Type (0, 1), BuildingBlock: KIFKEQ_clean_linker_1, # of connection points: 2
#     Edge 26, Type (0, 1), BuildingBlock: KIFKEQ_clean_linker_1, # of connection points: 2
#     Edge 27, Type (0, 1), BuildingBlock: KIFKEQ_clean_linker_1, # of connection points: 2
#     Edge 28, Type (0, 1), BuildingBlock: KIFKEQ_clean_linker_1, # of connection points: 2
#     Edge 29, Type (0, 1), BuildingBlock: KIFKEQ_clean_linker_1, # of connection points: 2
#     Edge 30, Type (0, 1), BuildingBlock: KIFKEQ_clean_linker_1, # of connection points: 2
#     Edge 31, Type (0, 1), BuildingBlock: KIFKEQ_clean_linker_1, # of connection points: 2
#     Edge 32, Type (0, 1), BuildingBlock: KIFKEQ_clean_linker_1, # of connection points: 2
#     Edge 33, Type (0, 1), BuildingBlock: KIFKEQ_clean_linker_1, # of connection points: 2
#     Edge 34, Type (0, 1), BuildingBlock: KIFKEQ_clean_linker_1, # of connection points: 2
#     Edge 35, Type (0, 1), BuildingBlock: KIFKEQ_clean_linker_1, # of connection points: 2
#     Edge 36, Type (0, 1), BuildingBlock: KIFKEQ_clean_linker_1, # of connection points: 2
#     Edge 37, Type (0, 1), BuildingBlock: KIFKEQ_clean_linker_1, # of connection points: 2
#     Edge 38, Type (0, 1), BuildingBlock: KIFKEQ_clean_linker_1, # of connection points: 2
#     Edge 39, Type (0, 1), BuildingBlock: KIFKEQ_clean_linker_1, # of connection points: 2
#     Edge 40, Type (0, 1), BuildingBlock: KIFKEQ_clean_linker_1, # of connection points: 2
#     Edge 41, Type (0, 1), BuildingBlock: KIFKEQ_clean_linker_1, # of connection points: 2
#     Edge 42, Type (0, 1), BuildingBlock: KIFKEQ_clean_linker_1, # of connection points: 2
#     Edge 43, Type (0, 1), BuildingBlock: KIFKEQ_clean_linker_1, # of connection points: 2
#     Edge 44, Type (0, 1), BuildingBlock: KIFKEQ_clean_linker_1, # of connection points: 2
#     Edge 45, Type (0, 1), BuildingBlock: KIFKEQ_clean_linker_1, # of connection points: 2
#     Edge 46, Type (0, 1), BuildingBlock: KIFKEQ_clean_linker_1, # of connection points: 2
#     Edge 47, Type (0, 1), BuildingBlock: KIFKEQ_clean_linker_1, # of connection points: 2
# Relax obj value: 0.148
# Max RMSD: 0.142
# Mean RMSD: 0.130
data_MOF--net-wbl--node1-KUFVIS_clean_sbu_0--node2-MIFKUJ_clean_linker_1--edge1-KIFKEQ_clean_linker_1
_symmetry_space_group_name_H-M    P1
_symmetry_Int_Tables_number       1
_symmetry_cell_setting            triclinic
loop_
_symmetry_equiv_pos_as_xyz
'x, y, z'
_cell_length_a     46.741845
_cell_length_b     46.738965
_cell_length_c     75.3811
_cell_angle_alpha  90.081652
_cell_angle_beta   90.559881
_cell_angle_gamma 89.985259
loop_
_atom_site_label
_atom_site_type_symbol
_atom_site_fract_x
_atom_site_fract_y
_atom_site_fract_z
_atom_type_partial_charge
H0 H 0.99802 0.0797 0.34364 0.0
H1 H 0.96553 0.10233 0.3647 0.0
H2 H 0.90109 0.03904 0.35214 0.0
H3 H 0.93377 0.01655 0.33093 0.0
H4 H 0.01378 0.02016 0.34818 0.0
H5 H 0.96642 0.08263 0.30685 0.0
H6 H 0.92114 0.09996 0.29516 0.0
H7 H 0.90706 0.01824 0.26941 0.0
H8 H 0.9511 1.00018 0.28285 0.0
H9 H 0.03115 0.95041 0.28666 0.0
H10 H 0.07286 0.92559 0.27436 0.0
H11 H 0.1268 0.99603 0.29098 0.0
H12 H 0.08547 0.01985 0.30375 0.0
H13 H 0.00655 0.01004 0.28275 0.0
H14 H 0.04521 0.94537 0.32521 0.0
H15 H 0.07432 0.91955 0.34708 0.0
H16 H 0.09858 0.99982 0.37133 0.0
H17 H 0.06973 0.02558 0.34934 0.0
C18 C 0.96825 0.04652 0.33574 0.0
C19 C 0.97669 0.07105 0.34518 0.0
C20 C 0.95806 0.08404 0.35712 0.0
C21 C 0.9308 0.07242 0.36007 0.0
C22 C 0.92204 0.04836 0.35017 0.0
C23 C 0.94059 0.03557 0.33803 0.0
C24 C 0.98946 0.03101 0.32484 0.0
C25 C 0.01251 0.0184 0.33383 0.0
C26 C 0.9867 0.02757 0.30622 0.0
C27 C 0.96178 0.03972 0.29632 0.0
C28 C 0.95343 0.0683 0.29885 0.0
C29 C 0.92757 0.07839 0.29183 0.0
C30 C 0.9098 0.06046 0.28148 0.0
C31 C 0.91945 0.0325 0.27779 0.0
C32 C 0.945 0.0222 0.28524 0.0
C33 C 0.05531 0.98683 0.29623 0.0
C34 C 0.05195 0.96059 0.28737 0.0
C35 C 0.07582 0.94646 0.28035 0.0
C36 C 0.10337 0.95852 0.28195 0.0
C37 C 0.10614 0.98565 0.28993 0.0
C38 C 0.08246 0.9995 0.29708 0.0
C39 C 0.03145 1.0 0.30618 0.0
C40 C 0.00793 0.01207 0.29706 0.0
C41 C 0.03325 0.00257 0.32483 0.0
C42 C 0.05527 0.98744 0.33562 0.0
C43 C 0.05762 0.95749 0.33482 0.0
C44 C 0.07419 0.94273 0.34737 0.0
C45 C 0.0884 0.95768 0.36102 0.0
C46 C 0.08751 0.98775 0.36109 0.0
C47 C 0.07112 0.00247 0.34851 0.0
H48 H 0.00962 0.42608 0.55188 0.0
H49 H 0.9871 0.38514 0.53717 0.0
H50 H 0.91704 0.43914 0.52013 0.0
H51 H 0.94001 0.48029 0.53488 0.0
H52 H 0.00294 0.50381 0.53228 0.0
H53 H 0.00838 0.438 0.59648 0.0
H54 H 0.98036 0.40772 0.61617 0.0
H55 H 0.90232 0.44093 0.59289 0.0
H56 H 0.93065 0.47139 0.57324 0.0
H57 H 0.99935 0.55185 0.60368 0.0
H58 H 0.02748 0.58058 0.62444 0.0
H59 H 0.10331 0.5646 0.59356 0.0
H60 H 0.0751 0.53485 0.57317 0.0
H61 H 0.00373 0.49739 0.59802 0.0
H62 H 0.00438 0.57944 0.56259 0.0
H63 H 0.02648 0.62168 0.54975 0.0
H64 H 0.07982 0.56762 0.5173 0.0
H65 H 0.05799 0.5251 0.53071 0.0
C66 C 0.97653 0.45616 0.54435 0.0
C67 C 0.98968 0.4292 0.54469 0.0
C68 C 0.97681 0.40586 0.53624 0.0
C69 C 0.95032 0.40894 0.52745 0.0
C70 C 0.93741 0.43614 0.52685 0.0
C71 C 0.95056 0.45965 0.53513 0.0
C72 C 0.98899 0.47972 0.55502 0.0
C73 C 0.00314 0.50251 0.54664 0.0
C74 C 0.98848 0.4785 0.57371 0.0
C75 C 0.9716 0.45683 0.58339 0.0
C76 C 0.98526 0.43827 0.59535 0.0
C77 C 0.96918 0.42088 0.60653 0.0
C78 C 0.93909 0.42196 0.6061 0.0
C79 C 0.92545 0.43974 0.59358 0.0
C80 C 0.9416 0.45696 0.58227 0.0
C81 C 0.03507 0.54121 0.58685 0.0
C82 C 0.022 0.55469 0.6013 0.0
C83 C 0.0381 0.57137 0.61307 0.0
C84 C 0.0677 0.57496 0.61067 0.0
C85 C 0.08063 0.56206 0.59589 0.0
C86 C 0.06447 0.54529 0.58412 0.0
C87 C 0.01832 0.52127 0.57543 0.0
C88 C 0.00355 0.49892 0.58365 0.0
C89 C 0.01737 0.5237 0.5567 0.0
C90 C 0.02966 0.54909 0.54771 0.0
C91 C 0.02083 0.57662 0.55271 0.0
C92 C 0.03337 0.60079 0.54525 0.0
C93 C 0.05492 0.59808 0.53246 0.0
C94 C 0.06349 0.57045 0.52725 0.0
C95 C 0.05084 0.54615 0.53475 0.0
H96 H 0.51033 0.57686 0.84441 0.0
H97 H 0.47827 0.60054 0.86528 0.0
H98 H 0.41051 0.54231 0.85017 0.0
H99 H 0.44283 0.51863 0.82928 0.0
H100 H 0.52252 0.51668 0.84774 0.0
H101 H 0.47707 0.58261 0.80708 0.0
H102 H 0.43227 0.60072 0.79505 0.0
H103 H 0.41921 0.52057 0.76728 0.0
H104 H 0.46234 0.50155 0.78112 0.0
H105 H 0.53478 0.44993 0.78411 0.0
H106 H 0.5735 0.42398 0.76906 0.0
H107 H 0.63461 0.48538 0.78934 0.0
H108 H 0.59617 0.51072 0.80458 0.0
H109 H 0.51636 0.50935 0.78217 0.0
H110 H 0.55032 0.44087 0.82257 0.0
H111 H 0.57754 0.41124 0.8433 0.0
H112 H 0.60261 0.48714 0.87242 0.0
H113 H 0.57693 0.51665 0.851 0.0
C114 C 0.47891 0.54607 0.8353 0.0
C115 C 0.48842 0.56953 0.84539 0.0
C116 C 0.47004 0.58314 0.85721 0.0
C117 C 0.4419 0.57326 0.85936 0.0
C118 C 0.43214 0.55027 0.84884 0.0
C119 C 0.45049 0.53682 0.83687 0.0
C120 C 0.49955 0.5299 0.82436 0.0
C121 C 0.52161 0.51558 0.83336 0.0
C122 C 0.49699 0.52719 0.80567 0.0
C123 C 0.47262 0.54024 0.79566 0.0
C124 C 0.46434 0.56875 0.79861 0.0
C125 C 0.4388 0.57933 0.79137 0.0
C126 C 0.4214 0.56201 0.7804 0.0
C127 C 0.43122 0.53431 0.77619 0.0
C128 C 0.4563 0.52348 0.78388 0.0
C129 C 0.56266 0.4822 0.79547 0.0
C130 C 0.5565 0.45787 0.78516 0.0
C131 C 0.57858 0.44302 0.77667 0.0
C132 C 0.60698 0.45277 0.778 0.0
C133 C 0.61288 0.47756 0.78795 0.0
C134 C 0.59098 0.49199 0.7967 0.0
C135 C 0.53997 0.49693 0.80563 0.0
C136 C 0.51754 0.51086 0.79652 0.0
C137 C 0.54146 0.49861 0.82434 0.0
C138 C 0.5617 0.48109 0.8351 0.0
C139 C 0.56257 0.45123 0.83301 0.0
C140 C 0.57777 0.43422 0.8451 0.0
C141 C 0.59205 0.44668 0.85971 0.0
C142 C 0.59222 0.4767 0.86126 0.0
C143 C 0.57731 0.49368 0.84907 0.0
H144 H 0.50834 0.94467 0.03233 0.0
H145 H 0.4859 0.90438 0.01733 0.0
H146 H 0.40763 0.92063 0.04589 0.0
H147 H 0.42928 0.96284 0.05918 0.0
H148 H 0.50303 0.99877 0.03362 0.0
H149 H 0.48722 0.92396 0.07984 0.0
H150 H 0.46113 0.8942 0.10099 0.0
H151 H 0.41615 0.96922 0.11951 0.0
H152 H 0.44129 0.99832 0.09797 0.0
H153 H 0.49712 0.06147 0.09983 0.0
H154 H 0.52533 0.0917 0.11967 0.0
H155 H 0.60273 0.06338 0.094 0.0
H156 H 0.5744 0.03165 0.07509 0.0
H157 H 0.499 0.00511 0.09921 0.0
H158 H 0.49595 0.07399 0.04991 0.0
H159 H 0.51971 0.11407 0.03522 0.0
H160 H 0.59428 0.06148 0.02681 0.0
H161 H 0.56984 0.02086 0.041 0.0
C162 C 0.47089 0.95644 0.04738 0.0
C163 C 0.48615 0.93992 0.0351 0.0
C164 C 0.47332 0.91646 0.02671 0.0
C165 C 0.44502 0.90844 0.03066 0.0
C166 C 0.42937 0.92589 0.04234 0.0
C167 C 0.44199 0.94988 0.05032 0.0
C168 C 0.4857 0.97977 0.05738 0.0
C169 C 0.50237 0.99974 0.04798 0.0
C170 C 0.4839 0.98237 0.07611 0.0
C171 C 0.46618 0.96336 0.08732 0.0
C172 C 0.47124 0.93379 0.08819 0.0
C173 C 0.45645 0.91686 0.10039 0.0
C174 C 0.43656 0.92928 0.11206 0.0
C175 C 0.43088 0.95874 0.11061 0.0
C176 C 0.4455 0.97553 0.09839 0.0
C177 C 0.53355 0.04452 0.08579 0.0
C178 C 0.52015 0.06202 0.09836 0.0
C179 C 0.53637 0.07955 0.1096 0.0
C180 C 0.56643 0.08011 0.10848 0.0
C181 C 0.5797 0.06331 0.09541 0.0
C182 C 0.56345 0.0455 0.08432 0.0
C183 C 0.51656 0.02324 0.07552 0.0
C184 C 0.49962 0.00382 0.08484 0.0
C185 C 0.51738 0.02163 0.05684 0.0
C186 C 0.53116 0.04456 0.04647 0.0
C187 C 0.51719 0.07093 0.0446 0.0
C188 C 0.53077 0.09375 0.03625 0.0
C189 C 0.55878 0.09076 0.02993 0.0
C190 C 0.57268 0.06423 0.0316 0.0
C191 C 0.55875 0.04109 0.03959 0.0
H192 H 0.99761 0.57794 0.907 0.0
H193 H 0.02993 0.60084 0.8863 0.0
H194 H 0.10066 0.55271 0.90857 0.0
H195 H 0.06766 0.52876 0.92874 0.0
H196 H 0.98848 0.52072 0.90578 0.0
H197 H 0.02798 0.58848 0.94777 0.0
H198 H 0.07175 0.60795 0.96059 0.0
H199 H 0.08583 0.52834 0.98861 0.0
H200 H 0.04377 0.50808 0.97415 0.0
H201 H 0.97216 0.45372 0.96876 0.0
H202 H 0.93248 0.42611 0.98129 0.0
H203 H 0.87251 0.48749 0.9595 0.0
H204 H 0.91195 0.51399 0.94656 0.0
H205 H 0.98948 0.51397 0.97143 0.0
H206 H 0.96066 0.44451 0.92852 0.0
H207 H 0.93589 0.41585 0.90588 0.0
H208 H 0.90806 0.49331 0.87977 0.0
H209 H 0.93256 0.52184 0.90246 0.0
C210 C 0.03017 0.55161 0.9194 0.0
C211 C 0.02016 0.57261 0.90759 0.0
C212 C 0.0388 0.58594 0.89586 0.0
C213 C 0.068 0.57863 0.89567 0.0
C214 C 0.07826 0.55859 0.90817 0.0
C215 C 0.05948 0.54506 0.91983 0.0
C216 C 0.00927 0.53476 0.9298 0.0
C217 C 0.98835 0.51976 0.92017 0.0
C218 C 0.01023 0.53233 0.94856 0.0
C219 C 0.03315 0.54635 0.95933 0.0
C220 C 0.04062 0.57512 0.95657 0.0
C221 C 0.06556 0.58645 0.96421 0.0
C222 C 0.08305 0.56955 0.97534 0.0
C223 C 0.07372 0.54172 0.97956 0.0
C224 C 0.04927 0.53017 0.97149 0.0
C225 C 0.94491 0.48569 0.95659 0.0
C226 C 0.95042 0.46124 0.96686 0.0
C227 C 0.92772 0.44553 0.97403 0.0
C228 C 0.89919 0.45424 0.97116 0.0
C229 C 0.89407 0.47959 0.96156 0.0
C230 C 0.91662 0.49498 0.95428 0.0
C231 C 0.96819 0.50084 0.94727 0.0
C232 C 0.98947 0.51537 0.95707 0.0
C233 C 0.96811 0.50255 0.92857 0.0
C234 C 0.94852 0.48535 0.91717 0.0
C235 C 0.94842 0.45533 0.91827 0.0
C236 C 0.93434 0.43895 0.9053 0.0
C237 C 0.92042 0.45238 0.89095 0.0
C238 C 0.91901 0.48241 0.89054 0.0
C239 C 0.9329 0.49872 0.90352 0.0
H240 H 0.50676 0.56113 0.22149 0.0
H241 H 0.48076 0.60118 0.23442 0.0
H242 H 0.40279 0.57158 0.20921 0.0
H243 H 0.42898 0.53118 0.19643 0.0
H244 H 0.50347 0.50284 0.22288 0.0
H245 H 0.48317 0.57765 0.17577 0.0
H246 H 0.45508 0.60336 0.15301 0.0
H247 H 0.42072 0.52304 0.13422 0.0
H248 H 0.44812 0.49762 0.15698 0.0
H249 H 0.51285 0.42552 0.17476 0.0
H250 H 0.53728 0.39511 0.15308 0.0
H251 H 0.5985 0.46253 0.14385 0.0
H252 H 0.57382 0.49284 0.1654 0.0
H253 H 0.50668 0.49887 0.15719 0.0
H254 H 0.4992 0.4393 0.21964 0.0
H255 H 0.52422 0.3995 0.23378 0.0
H256 H 0.6053 0.43677 0.21904 0.0
H257 H 0.57981 0.47592 0.20428 0.0
C258 C 0.46997 0.54333 0.20779 0.0
C259 C 0.48396 0.56292 0.219 0.0
C260 C 0.46903 0.58583 0.2264 0.0
C261 C 0.43969 0.58968 0.22277 0.0
C262 C 0.42544 0.56943 0.21206 0.0
C263 C 0.44039 0.54633 0.20476 0.0
C264 C 0.48697 0.5211 0.19849 0.0
C265 C 0.50418 0.50214 0.20851 0.0
C266 C 0.48727 0.51917 0.17975 0.0
C267 C 0.46778 0.53572 0.168 0.0
C268 C 0.46902 0.56572 0.16703 0.0
C269 C 0.45301 0.58035 0.15408 0.0
C270 C 0.436 0.56505 0.14185 0.0
C271 C 0.43385 0.53524 0.14343 0.0
C272 C 0.4495 0.52074 0.1564 0.0
C273 C 0.54165 0.4613 0.17166 0.0
C274 C 0.53202 0.43337 0.16843 0.0
C275 C 0.54588 0.41613 0.156 0.0
C276 C 0.56968 0.42655 0.14673 0.0
C277 C 0.5804 0.45385 0.15091 0.0
C278 C 0.56631 0.47119 0.16317 0.0
C279 C 0.5235 0.48163 0.18151 0.0
C280 C 0.50603 0.49996 0.17157 0.0
C281 C 0.52201 0.48201 0.20017 0.0
C282 C 0.53766 0.46047 0.2109 0.0
C283 C 0.52239 0.4391 0.21974 0.0
C284 C 0.53681 0.41637 0.22789 0.0
C285 C 0.5669 0.4147 0.22754 0.0
C286 C 0.58215 0.43696 0.21931 0.0
C287 C 0.56765 0.45953 0.21099 0.0
H288 H 0.48517 0.91902 0.42855 0.0
H289 H 0.45364 0.89029 0.40998 0.0
H290 H 0.40729 0.96706 0.39505 0.0
H291 H 0.43669 0.99459 0.41561 0.0
H292 H 0.50286 0.98809 0.40847 0.0
H293 H 0.47197 0.92448 0.45786 0.0
H294 H 0.42976 0.90501 0.47167 0.0
H295 H 0.40668 0.99017 0.4893 0.0
H296 H 0.44694 0.00961 0.47304 0.0
H297 H 0.52292 0.05516 0.47388 0.0
H298 H 0.56269 0.08346 0.4864 0.0
H299 H 0.62232 0.03513 0.4549 0.0
H300 H 0.58312 0.00622 0.44312 0.0
H301 H 0.50623 0.00188 0.47374 0.0
H302 H 0.52849 0.06694 0.42612 0.0
H303 H 0.55314 0.09283 0.40253 0.0
H304 H 0.58726 0.01284 0.3831 0.0
H305 H 0.56168 0.98718 0.40622 0.0
C306 C 0.46251 0.9587 0.42404 0.0
C307 C 0.4672 0.92929 0.42199 0.0
C308 C 0.44951 0.91301 0.41087 0.0
C309 C 0.42782 0.9261 0.40057 0.0
C310 C 0.42309 0.95571 0.4029 0.0
C311 C 0.44007 0.97171 0.41462 0.0
C312 C 0.484 0.97663 0.43335 0.0
C313 C 0.50391 0.9908 0.42278 0.0
C314 C 0.48429 0.98106 0.45194 0.0
C315 C 0.46175 0.96866 0.46343 0.0
C316 C 0.45729 0.93903 0.46418 0.0
C317 C 0.43332 0.92781 0.47267 0.0
C318 C 0.41381 0.94588 0.48142 0.0
C319 C 0.42012 0.97543 0.4821 0.0
C320 C 0.44356 0.98668 0.47302 0.0
C321 C 0.54988 0.02896 0.45721 0.0
C322 C 0.54458 0.05049 0.46981 0.0
C323 C 0.56724 0.0667 0.47689 0.0
C324 C 0.59543 0.06179 0.47132 0.0
C325 C 0.60071 0.03978 0.4591 0.0
C326 C 0.57827 0.02332 0.45233 0.0
C327 C 0.52607 0.01253 0.44881 0.0
C328 C 0.50547 0.99896 0.45947 0.0
C329 C 0.52455 0.00903 0.43017 0.0
C330 C 0.54306 0.02513 0.4178 0.0
C331 C 0.54169 0.05511 0.41693 0.0
C332 C 0.5559 0.06988 0.40347 0.0
C333 C 0.57183 0.0549 0.39071 0.0
C334 C 0.57459 0.02502 0.3924 0.0
C335 C 0.56013 0.01029 0.40567 0.0
H336 H 0.01129 0.04866 0.72275 0.0
H337 H 0.98974 0.09057 0.73627 0.0
H338 H 0.91118 0.0741 0.70716 0.0
H339 H 0.93198 0.03048 0.69526 0.0
H340 H 0.00543 0.9943 0.72201 0.0
H341 H 0.99031 0.06871 0.6757 0.0
H342 H 0.96556 0.09868 0.6535 0.0
H343 H 0.92097 0.02424 0.63368 0.0
H344 H 0.9448 0.99464 0.65605 0.0
H345 H 0.9977 0.9286 0.65746 0.0
H346 H 0.02503 0.89967 0.63668 0.0
H347 H 0.10379 0.93186 0.65964 0.0
H348 H 0.07612 0.96126 0.68025 0.0
H349 H 1.00117 0.98666 0.65643 0.0
H350 H 1.00122 0.91608 0.70288 0.0
H351 H 0.02531 0.87691 0.71845 0.0
H352 H 0.09323 0.93445 0.7343 0.0
H353 H 0.06861 0.97388 0.71878 0.0
C354 C 0.97367 0.03677 0.70748 0.0
C355 C 0.9892 0.05368 0.71958 0.0
C356 C 0.97689 0.07804 0.72711 0.0
C357 C 0.94887 0.08654 0.72244 0.0
C358 C 0.93277 0.06853 0.71115 0.0
C359 C 0.94487 0.0437 0.70402 0.0
C360 C 0.98821 0.01299 0.69791 0.0
C361 C 0.00464 0.99296 0.70765 0.0
C362 C 0.98647 0.01015 0.67917 0.0
C363 C 0.96937 0.02942 0.66755 0.0
C364 C 0.97463 0.05902 0.66689 0.0
C365 C 0.96056 0.07609 0.65424 0.0
C366 C 0.94155 0.0636 0.64194 0.0
C367 C 0.93562 0.03426 0.64303 0.0
C368 C 0.94926 0.01738 0.65576 0.0
C369 C 0.03485 0.94705 0.67041 0.0
C370 C 0.02086 0.92892 0.65829 0.0
C371 C 0.03656 0.91227 0.64647 0.0
C372 C 0.06664 0.91354 0.64644 0.0
C373 C 0.08066 0.9306 0.65923 0.0
C374 C 0.06488 0.94719 0.67113 0.0
C375 C 0.01818 0.96857 0.68046 0.0
C376 C 0.00171 0.98819 0.6708 0.0
C377 C 0.0192 0.97055 0.69912 0.0
C378 C 0.03312 0.94781 0.70976 0.0
C379 C 0.02109 0.92034 0.70993 0.0
C380 C 0.03483 0.89804 0.71887 0.0
C381 C 0.06109 0.90267 0.72766 0.0
C382 C 0.07302 0.93031 0.72763 0.0
C383 C 0.05896 0.95282 0.71888 0.0
Mn384 Mn 0.33771 0.66995 0.00477 0.0
Mn385 Mn 0.34396 0.59805 0.00607 0.0
C386 C 0.34451 0.64667 0.03159 0.0
C387 C 0.35902 0.71502 0.00283 0.0
C388 C 0.28745 0.62855 0.00025 0.0
O389 O 0.347 0.65977 0.97906 0.0
O390 O 0.35242 0.6119 0.98183 0.0
C391 C 0.40632 0.59297 0.00045 0.0
N392 N 0.38289 0.58772 0.01053 0.0
C393 C 0.41099 0.56133 0.03183 0.0
C394 C 0.43542 0.56633 0.02164 0.0
C395 C 0.43308 0.58232 0.00591 0.0
C396 C 0.38493 0.57255 0.02574 0.0
H397 H 0.40456 0.60517 0.98833 0.0
C398 C 0.35247 0.63501 0.97271 0.0
O399 O 0.33215 0.71137 0.99883 0.0
O400 O 0.3735 0.69241 0.00715 0.0
N401 N 0.33637 0.58199 0.02887 0.0
C402 C 0.3111 0.58061 0.03768 0.0
C403 C 0.30997 0.56632 0.05404 0.0
C404 C 0.33473 0.55333 0.06103 0.0
C405 C 0.36042 0.55484 0.05163 0.0
C406 C 0.36026 0.56945 0.03544 0.0
H407 H 0.292 0.59046 0.03231 0.0
O408 O 0.33307 0.67195 0.03118 0.0
O409 O 0.35117 0.63579 0.01633 0.0
O410 O 0.29679 0.65415 0.00161 0.0
O411 O 0.30331 0.60642 0.00164 0.0
C412 C 0.38623 0.54266 0.05777 0.0
C413 C 0.41152 0.54595 0.04789 0.0
H414 H 0.4561 0.55816 0.02581 0.0
H415 H 0.45185 0.58635 0.99801 0.0
H416 H 0.29007 0.56527 0.06122 0.0
H417 H 0.3338 0.54239 0.07367 0.0
H418 H 0.38699 0.53112 0.07021 0.0
H419 H 0.43134 0.5369 0.05291 0.0
Mn420 Mn 0.33335 0.83746 0.25904 0.0
Mn421 Mn 0.40439 0.84342 0.26637 0.0
C422 C 0.35138 0.84153 0.28777 0.0
C423 C 0.28926 0.86017 0.25421 0.0
C424 C 0.37525 0.78718 0.25692 0.0
O425 O 0.34834 0.84812 0.2345 0.0
O426 O 0.3949 0.85415 0.24156 0.0
C427 C 0.40908 0.90635 0.26309 0.0
N428 N 0.41317 0.88204 0.27273 0.0
C429 C 0.4343 0.90859 0.29688 0.0
C430 C 0.43045 0.9339 0.28719 0.0
C431 C 0.41769 0.93278 0.27024 0.0
C432 C 0.42515 0.88291 0.28911 0.0
H433 H 0.39929 0.90556 0.25006 0.0
C434 C 0.374 0.85472 0.23043 0.0
O435 O 0.29289 0.83343 0.25001 0.0
O436 O 0.31138 0.87363 0.26041 0.0
N437 N 0.41667 0.83388 0.28991 0.0
C438 C 0.4182 0.80761 0.29769 0.0
C439 C 0.43055 0.80496 0.31466 0.0
C440 C 0.4414 0.82927 0.32338 0.0
C441 C 0.43963 0.85607 0.31511 0.0
C442 C 0.42732 0.85735 0.29812 0.0
H443 H 0.41009 0.78883 0.29099 0.0
O444 O 0.32617 0.83083 0.28497 0.0
O445 O 0.36508 0.84949 0.27375 0.0
O446 O 0.34957 0.79667 0.25615 0.0
O447 O 0.39692 0.80301 0.26038 0.0
C448 C 0.44955 0.88157 0.32305 0.0
C449 C 0.44667 0.90784 0.314 0.0
H450 H 0.43709 0.95432 0.29265 0.0
H451 H 0.41456 0.95223 0.2627 0.0
H452 H 0.4318 0.78421 0.32097 0.0
H453 H 0.45105 0.82706 0.33643 0.0
H454 H 0.45922 0.88127 0.33616 0.0
H455 H 0.45403 0.92734 0.32034 0.0
Mn456 Mn 0.17377 0.83967 0.49725 0.0
Mn457 Mn 0.10271 0.84785 0.49108 0.0
C458 C 0.15498 0.84913 0.46927 0.0
C459 C 0.21868 0.86036 0.50246 0.0
C460 C 0.13078 0.78992 0.49593 0.0
O461 O 0.16003 0.8471 0.52246 0.0
O462 O 0.11283 0.85184 0.51666 0.0
C463 C 0.09914 0.90914 0.50079 0.0
N464 N 0.09465 0.88777 0.48878 0.0
C465 C 0.07415 0.92071 0.4677 0.0
C466 C 0.07841 0.94304 0.47988 0.0
C467 C 0.09104 0.93723 0.49648 0.0
C468 C 0.08272 0.89316 0.47272 0.0
H469 H 0.10885 0.90478 0.51356 0.0
C470 C 0.13428 0.85124 0.5274 0.0
O471 O 0.21439 0.8333 0.50546 0.0
O472 O 0.19673 0.87523 0.49744 0.0
N473 N 0.09002 0.84481 0.46693 0.0
C474 C 0.08843 0.8211 0.45643 0.0
C475 C 0.07671 0.82334 0.43926 0.0
C476 C 0.06661 0.84987 0.4331 0.0
C477 C 0.06829 0.87393 0.44419 0.0
C478 C 0.08006 0.87037 0.4612 0.0
H479 H 0.09627 0.80071 0.46106 0.0
O480 O 0.17973 0.83687 0.47094 0.0
O481 O 0.14196 0.8549 0.48395 0.0
O482 O 0.15642 0.799 0.49814 0.0
O483 O 0.10943 0.80636 0.49287 0.0
C484 C 0.059 0.90136 0.43898 0.0
C485 C 0.06198 0.92474 0.45071 0.0
H486 H 0.0722 0.96474 0.4766 0.0
H487 H 0.0945 0.95437 0.50592 0.0
H488 H 0.07557 0.80468 0.43076 0.0
H489 H 0.05778 0.85156 0.41981 0.0
H490 H 0.04984 0.90478 0.4259 0.0
H491 H 0.05509 0.9458 0.44646 0.0
Mn492 Mn 0.17083 0.66811 0.74849 0.0
Mn493 Mn 0.16058 0.59734 0.74252 0.0
C494 C 0.16411 0.64975 0.72018 0.0
C495 C 0.15108 0.71334 0.75346 0.0
C496 C 0.2184 0.62373 0.75149 0.0
O497 O 0.16072 0.65399 0.77337 0.0
O498 O 0.14984 0.60806 0.76702 0.0
C499 C 0.09748 0.59531 0.74508 0.0
N500 N 0.12175 0.59011 0.73576 0.0
C501 C 0.09472 0.56997 0.71146 0.0
C502 C 0.06943 0.57497 0.72083 0.0
C503 C 0.07083 0.58776 0.7377 0.0
C504 C 0.12065 0.57792 0.7195 0.0
H505 H 0.09848 0.60519 0.75804 0.0
C506 C 0.15165 0.62921 0.77783 0.0
O507 O 0.17782 0.70813 0.75713 0.0
O508 O 0.13591 0.69212 0.74758 0.0
N509 N 0.17001 0.58436 0.7192 0.0
C510 C 0.19622 0.58237 0.71155 0.0
C511 C 0.19851 0.57061 0.69446 0.0
C512 C 0.17389 0.56087 0.68549 0.0
C513 C 0.14717 0.56297 0.69369 0.0
C514 C 0.14623 0.57472 0.71077 0.0
H515 H 0.21522 0.58975 0.71841 0.0
O516 O 0.17621 0.67448 0.72238 0.0
O517 O 0.15641 0.63678 0.73456 0.0
O518 O 0.21077 0.64996 0.75076 0.0
O519 O 0.2012 0.60277 0.74915 0.0
C520 C 0.12139 0.55426 0.68548 0.0
C521 C 0.09517 0.55787 0.69433 0.0
H522 H 0.04883 0.56928 0.71516 0.0
H523 H 0.0514 0.59181 0.74498 0.0
H524 H 0.2192 0.5691 0.68822 0.0
H525 H 0.17573 0.55197 0.67227 0.0
H526 H 0.12144 0.54511 0.67227 0.0
H527 H 0.07545 0.55151 0.68776 0.0
Mn528 Mn 0.83956 0.17295 0.50701 0.0
Mn529 Mn 0.84421 0.10104 0.51018 0.0
C530 C 0.84915 0.15134 0.53408 0.0
C531 C 0.86046 0.21788 0.50293 0.0
C532 C 0.78782 0.13231 0.50704 0.0
O533 O 0.84594 0.16111 0.48129 0.0
O534 O 0.84778 0.11321 0.48502 0.0
C535 C 0.90477 0.09478 0.49968 0.0
N536 N 0.88361 0.09033 0.51165 0.0
C537 C 0.91551 0.06417 0.53091 0.0
C538 C 0.93763 0.06836 0.51875 0.0
C539 C 0.93226 0.08385 0.50311 0.0
C540 C 0.88862 0.07575 0.52684 0.0
H541 H 0.90069 0.10654 0.48759 0.0
C542 C 0.84838 0.13566 0.47528 0.0
O543 O 0.83325 0.21386 0.5003 0.0
O544 O 0.87554 0.19563 0.50726 0.0
N545 N 0.84135 0.08621 0.53374 0.0
C546 C 0.81811 0.08535 0.54449 0.0
C547 C 0.82013 0.07134 0.56093 0.0
C548 C 0.84588 0.05804 0.56601 0.0
C549 C 0.86941 0.05897 0.55463 0.0
C550 C 0.86618 0.07339 0.53848 0.0
H551 H 0.79825 0.09545 0.54061 0.0
O552 O 0.83782 0.17667 0.53349 0.0
O553 O 0.85402 0.13929 0.51888 0.0
O554 O 0.79832 0.15745 0.50573 0.0
O555 O 0.80307 0.1099 0.50912 0.0
C556 C 0.89601 0.04632 0.55874 0.0
C557 C 0.91911 0.0491 0.54696 0.0
H558 H 0.95884 0.05989 0.52133 0.0
H559 H 0.94924 0.08725 0.49369 0.0
H560 H 0.80188 0.07075 0.56964 0.0
H561 H 0.84739 0.04729 0.57871 0.0
H562 H 0.89907 0.03482 0.57108 0.0
H563 H 0.93961 0.03974 0.55043 0.0
Mn564 Mn 0.83722 0.33531 0.75388 0.0
Mn565 Mn 0.90844 0.34458 0.75823 0.0
C566 C 0.85768 0.34357 0.7816 0.0
C567 C 0.79207 0.35607 0.74964 0.0
C568 C 0.88074 0.28676 0.75131 0.0
O569 O 0.8497 0.34386 0.72845 0.0
O570 O 0.89653 0.35307 0.7335 0.0
C571 C 0.9113 0.40725 0.75307 0.0
N572 N 0.91653 0.38382 0.76332 0.0
C573 C 0.93837 0.41265 0.78617 0.0
C574 C 0.93337 0.43709 0.77583 0.0
C575 C 0.91969 0.43438 0.75923 0.0
C576 C 0.9295 0.3862 0.77935 0.0
H577 H 0.90079 0.40522 0.7403 0.0
C578 C 0.87462 0.35115 0.7232 0.0
O579 O 0.79625 0.32905 0.74644 0.0
O580 O 0.81418 0.37084 0.75454 0.0
N581 N 0.9225 0.33707 0.78169 0.0
C582 C 0.92448 0.31158 0.79036 0.0
C583 C 0.93692 0.31067 0.80739 0.0
C584 C 0.94736 0.33591 0.81525 0.0
C585 C 0.94528 0.36185 0.80601 0.0
C586 C 0.93277 0.36142 0.78906 0.0
H587 H 0.91654 0.29212 0.78434 0.0
O588 O 0.83276 0.33154 0.7803 0.0
O589 O 0.86967 0.34998 0.7667 0.0
O590 O 0.85461 0.29481 0.75207 0.0
O591 O 0.90201 0.30369 0.75326 0.0
C592 C 0.95485 0.38816 0.81301 0.0
C593 C 0.95145 0.41353 0.80309 0.0
H594 H 0.93976 0.45806 0.78055 0.0
H595 H 0.91564 0.45315 0.75121 0.0
H596 H 0.93843 0.29056 0.81444 0.0
H597 H 0.95678 0.33515 0.82843 0.0
H598 H 0.96456 0.38918 0.82611 0.0
H599 H 0.95863 0.43367 0.80869 0.0
Mn600 Mn 0.67156 0.33634 0.99879 0.0
Mn601 Mn 0.60063 0.34597 0.99286 0.0
C602 C 0.65282 0.34428 0.97069 0.0
C603 C 0.71667 0.3567 0.00372 0.0
C604 C 0.62748 0.28768 0.99918 0.0
O605 O 0.65816 0.3454 0.02384 0.0
O606 O 0.6111 0.3523 0.0182 0.0
C607 C 0.59872 0.40824 0.99996 0.0
N608 N 0.59351 0.38573 0.9889 0.0
C609 C 0.57481 0.41694 0.96622 0.0
C610 C 0.57979 0.44044 0.97741 0.0
C611 C 0.59184 0.43606 0.99434 0.0
C612 C 0.582 0.38971 0.97256 0.0
H613 H 0.60815 0.40497 0.01293 0.0
C614 C 0.63275 0.35129 0.02876 0.0
O615 O 0.71217 0.32974 0.00694 0.0
O616 O 0.69487 0.37158 0.99846 0.0
N617 N 0.5876 0.34059 0.96894 0.0
C618 C 0.58506 0.31576 0.95956 0.0
C619 C 0.57367 0.31644 0.94226 0.0
C620 C 0.56489 0.34259 0.93482 0.0
C621 C 0.56745 0.36782 0.94479 0.0
C622 C 0.57865 0.36577 0.96204 0.0
H623 H 0.59178 0.29561 0.96522 0.0
O624 O 0.67748 0.33192 0.97263 0.0
O625 O 0.63995 0.35136 0.98523 0.0
O626 O 0.65354 0.29603 0.00032 0.0
O627 O 0.60649 0.30469 0.99639 0.0
C628 C 0.5597 0.39497 0.93822 0.0
C629 C 0.56344 0.41952 0.9489 0.0
H630 H 0.57464 0.46195 0.9731 0.0
H631 H 0.59589 0.4541 0.00302 0.0
H632 H 0.57176 0.29688 0.93464 0.0
H633 H 0.55633 0.34305 0.92142 0.0
H634 H 0.55115 0.39725 0.92488 0.0
H635 H 0.55773 0.44031 0.94362 0.0
Mn636 Mn 0.66447 0.17445 0.2473 0.0
Mn637 Mn 0.64939 0.10479 0.24082 0.0
C638 C 0.65787 0.15697 0.21872 0.0
C639 C 0.64789 0.22079 0.25255 0.0
C640 C 0.70834 0.12706 0.25147 0.0
O641 O 0.65263 0.16039 0.27198 0.0
O642 O 0.63589 0.11655 0.26459 0.0
C643 C 0.58612 0.10773 0.23975 0.0
N644 N 0.61119 0.10007 0.23202 0.0
C645 C 0.5863 0.08041 0.20671 0.0
C646 C 0.56019 0.08765 0.21454 0.0
C647 C 0.56011 0.10153 0.23108 0.0
C648 C 0.61153 0.08716 0.21597 0.0
H649 H 0.58601 0.11869 0.25234 0.0
C650 C 0.6396 0.13708 0.27567 0.0
O651 O 0.67408 0.21357 0.25638 0.0
O652 O 0.63129 0.20092 0.24631 0.0
N653 N 0.66109 0.09094 0.2181 0.0
C654 C 0.68807 0.0873 0.21179 0.0
C655 C 0.6919 0.07471 0.19505 0.0
C656 C 0.66801 0.06575 0.18506 0.0
C657 C 0.64046 0.06957 0.19186 0.0
C658 C 0.63797 0.08218 0.20864 0.0
H659 H 0.70653 0.09393 0.21945 0.0
O660 O 0.67118 0.18098 0.22128 0.0
O661 O 0.6487 0.14439 0.23287 0.0
O662 O 0.70287 0.15368 0.24979 0.0
O663 O 0.68952 0.1074 0.24952 0.0
C664 C 0.61537 0.06171 0.18256 0.0
C665 C 0.5883 0.06732 0.18992 0.0
H666 H 0.54009 0.08299 0.20787 0.0
H667 H 0.54006 0.10749 0.23712 0.0
H668 H 0.71323 0.07187 0.18988 0.0
H669 H 0.67106 0.05614 0.17213 0.0
H670 H 0.61662 0.05172 0.16962 0.0
H671 H 0.56917 0.06175 0.18246 0.0
H672 H 0.11066 0.92403 0.25245 0.0
H673 H 0.15517 0.95619 0.29889 0.0
H674 H 0.15451 0.89941 0.24323 0.0
H675 H 0.1986 0.93245 0.28946 0.0
H676 H 0.2784 0.91661 0.25918 0.0
H677 H 0.23243 0.9394 0.26406 0.0
H678 H 0.18946 0.85918 0.25408 0.0
H679 H 0.23593 0.83604 0.2491 0.0
C680 C 0.12965 0.9258 0.26072 0.0
C681 C 0.12944 0.9426 0.27626 0.0
C682 C 0.15474 0.91174 0.25541 0.0
C683 C 0.1801 0.91442 0.26546 0.0
C684 C 0.1796 0.93055 0.28118 0.0
C685 C 0.15466 0.9443 0.28655 0.0
C686 C 0.2592 0.9038 0.25774 0.0
C687 C 0.26088 0.8744 0.25396 0.0
C688 C 0.23284 0.91689 0.26063 0.0
C689 C 0.20738 0.90098 0.25978 0.0
C690 C 0.20876 0.87196 0.25484 0.0
C691 C 0.23533 0.85874 0.25199 0.0
H692 H 0.1117 0.60816 0.52534 0.0
H693 H 0.02805 0.64718 0.52213 0.0
H694 H 0.13313 0.65224 0.51399 0.0
H695 H 0.04933 0.69122 0.51165 0.0
H696 H 0.08739 0.76017 0.48031 0.0
H697 H 0.07178 0.71185 0.4867 0.0
H698 H 0.14289 0.70143 0.52318 0.0
H699 H 0.15927 0.74986 0.51614 0.0
C700 C 0.09788 0.62603 0.52209 0.0
C701 C 0.06815 0.62416 0.52471 0.0
C702 C 0.11019 0.65139 0.51577 0.0
C703 C 0.09301 0.67533 0.51184 0.0
C704 C 0.06326 0.67316 0.51423 0.0
C705 C 0.05103 0.64795 0.52049 0.0
C706 C 0.10006 0.74746 0.48945 0.0
C707 C 0.12444 0.759 0.49785 0.0
C708 C 0.09095 0.71975 0.49324 0.0
C709 C 0.10564 0.70291 0.50579 0.0
C710 C 0.13106 0.71376 0.51342 0.0
C711 C 0.14046 0.74153 0.50941 0.0
H712 H 0.40311 0.61713 0.77287 0.0
H713 H 0.37318 0.52958 0.77446 0.0
H714 H 0.3547 0.63317 0.76644 0.0
H715 H 0.3259 0.54526 0.76608 0.0
H716 H 0.23756 0.57967 0.77151 0.0
H717 H 0.28657 0.56623 0.7781 0.0
H718 H 0.3166 0.63726 0.74656 0.0
H719 H 0.267 0.65175 0.74104 0.0
C720 C 0.38641 0.60119 0.77172 0.0
C721 C 0.39241 0.57195 0.77442 0.0
C722 C 0.35856 0.61043 0.7677 0.0
C723 C 0.33601 0.59065 0.76593 0.0
C724 C 0.34233 0.56136 0.76783 0.0
C725 C 0.3699 0.55222 0.77226 0.0
C726 C 0.25467 0.59247 0.76604 0.0
C727 C 0.24851 0.61665 0.75569 0.0
C728 C 0.2829 0.58461 0.76966 0.0
C729 C 0.30588 0.60023 0.7626 0.0
C730 C 0.29964 0.62477 0.75239 0.0
C731 C 0.27122 0.63306 0.74914 0.0
H732 H 0.38848 0.89591 0.0225 0.0
H733 H 0.47314 0.85845 0.0225 0.0
H734 H 0.3682 0.84989 0.01435 0.0
H735 H 0.45322 0.81366 0.01246 0.0
H736 H 0.40893 0.72878 0.01927 0.0
H737 H 0.4292 0.77568 0.02417 0.0
H738 H 0.36009 0.81358 0.99366 0.0
H739 H 0.33878 0.76616 0.98971 0.0
C740 C 0.4029 0.87807 0.02062 0.0
C741 C 0.43258 0.88119 0.02348 0.0
C742 C 0.39122 0.85164 0.01558 0.0
C743 C 0.40892 0.82768 0.01291 0.0
C744 C 0.43868 0.83125 0.01483 0.0
C745 C 0.45027 0.85739 0.02027 0.0
C746 C 0.39814 0.74706 0.01345 0.0
C747 C 0.37225 0.74373 0.00408 0.0
C748 C 0.40993 0.77413 0.01615 0.0
C749 C 0.39653 0.79874 0.00923 0.0
C750 C 0.37089 0.7953 0.99944 0.0
C751 C 0.35876 0.76809 0.99702 0.0
H752 H 0.13161 0.53756 0.98035 0.0
H753 H 0.10091 0.62478 0.98316 0.0
H754 H 0.17924 0.55363 0.98757 0.0
H755 H 0.14967 0.64121 0.98875 0.0
H756 H 0.24037 0.65698 0.01308 0.0
H757 H 0.18997 0.64383 0.00845 0.0
H758 H 0.21615 0.57625 0.97286 0.0
H759 H 0.26584 0.58839 0.97828 0.0
C760 C 0.13479 0.5602 0.98266 0.0
C761 C 0.11202 0.57976 0.98111 0.0
C762 C 0.16249 0.56955 0.98643 0.0
C763 C 0.16863 0.59886 0.98831 0.0
C764 C 0.14584 0.61848 0.98736 0.0
C765 C 0.11785 0.60903 0.9839 0.0
C766 C 0.23511 0.63945 0.00422 0.0
C767 C 0.25691 0.62342 0.99623 0.0
C768 C 0.2063 0.63191 0.00153 0.0
C769 C 0.19889 0.60851 0.99058 0.0
C770 C 0.2209 0.59366 0.98191 0.0
C771 C 0.24946 0.60078 0.98487 0.0
H772 H 0.40195 0.62428 0.20482 0.0
H773 H 0.44369 0.61389 0.25577 0.0
H774 H 0.38253 0.6702 0.21451 0.0
H775 H 0.42427 0.65967 0.26545 0.0
H776 H 0.42446 0.75785 0.26388 0.0
H777 H 0.43569 0.70859 0.25696 0.0
H778 H 0.35065 0.69654 0.23533 0.0
H779 H 0.33924 0.74656 0.24217 0.0
C780 C 0.40645 0.63148 0.21822 0.0
C781 C 0.42468 0.61559 0.22945 0.0
C782 C 0.3953 0.6578 0.22378 0.0
C783 C 0.40215 0.66879 0.24067 0.0
C784 C 0.41906 0.6521 0.25222 0.0
C785 C 0.4302 0.62587 0.24667 0.0
C786 C 0.40794 0.74481 0.25775 0.0
C787 C 0.38091 0.75635 0.25354 0.0
C788 C 0.41437 0.71637 0.25391 0.0
C789 C 0.39405 0.69852 0.24567 0.0
C790 C 0.36682 0.7098 0.24162 0.0
C791 C 0.36025 0.7384 0.24562 0.0
H792 H 0.40173 0.89114 0.49374 0.0
H793 H 0.36232 0.97401 0.48566 0.0
H794 H 0.35539 0.87105 0.50041 0.0
H795 H 0.31715 0.95482 0.49473 0.0
H796 H 0.23442 0.90849 0.48544 0.0
H797 H 0.2814 0.92891 0.48273 0.0
H798 H 0.31572 0.86358 0.51762 0.0
H799 H 0.26816 0.84174 0.51916 0.0
C800 C 0.38343 0.90531 0.49352 0.0
C801 C 0.38624 0.93429 0.4886 0.0
C802 C 0.35669 0.89376 0.49778 0.0
C803 C 0.33199 0.911 0.49777 0.0
C804 C 0.33524 0.9404 0.49425 0.0
C805 C 0.36169 0.95171 0.48942 0.0
C806 C 0.2519 0.89855 0.4927 0.0
C807 C 0.24751 0.87353 0.50258 0.0
C808 C 0.27907 0.91051 0.49129 0.0
C809 C 0.30278 0.89833 0.50012 0.0
C810 C 0.29825 0.87351 0.51039 0.0
C811 C 0.27094 0.86105 0.51144 0.0
H812 H 0.03922 0.8625 0.74995 0.0
H813 H 0.11717 0.88734 0.72394 0.0
H814 H 0.06211 0.81859 0.76025 0.0
H815 H 0.13999 0.84303 0.7338 0.0
H816 H 0.17852 0.76447 0.75987 0.0
H817 H 0.15806 0.8126 0.7574 0.0
H818 H 0.07529 0.7756 0.74562 0.0
H819 H 0.09541 0.72807 0.74851 0.0
C820 C 0.06136 0.85862 0.74656 0.0
C821 C 0.07632 0.87817 0.73599 0.0
C822 C 0.07447 0.83343 0.7524 0.0
C823 C 0.10279 0.82698 0.74763 0.0
C824 C 0.11826 0.84734 0.73787 0.0
C825 C 0.10518 0.87273 0.73217 0.0
C826 C 0.15586 0.76672 0.75709 0.0
C827 C 0.13862 0.74245 0.75432 0.0
C828 C 0.14417 0.79428 0.75554 0.0
C829 C 0.11501 0.79806 0.75125 0.0
C830 C 0.0977 0.77366 0.7492 0.0
C831 C 0.10932 0.74628 0.75074 0.0
H832 H 0.64813 0.47401 0.75638 0.0
H833 H 0.6197 0.39587 0.78093 0.0
H834 H 0.69062 0.44959 0.74555 0.0
H835 H 0.66285 0.37149 0.77078 0.0
H836 H 0.73947 0.33054 0.74428 0.0
H837 H 0.69231 0.35281 0.74758 0.0
H838 H 0.73321 0.43384 0.75892 0.0
H839 H 0.7796 0.41205 0.75504 0.0
C840 C 0.65098 0.45151 0.75936 0.0
C841 C 0.63081 0.43689 0.76962 0.0
C842 C 0.67539 0.4375 0.75325 0.0
C843 C 0.68056 0.40862 0.75754 0.0
C844 C 0.65958 0.39363 0.76707 0.0
C845 C 0.63488 0.4076 0.77296 0.0
C846 C 0.73824 0.35322 0.74713 0.0
C847 C 0.7633 0.36948 0.74942 0.0
C848 C 0.71124 0.36596 0.74918 0.0
C849 C 0.7088 0.39519 0.75356 0.0
C850 C 0.73399 0.41146 0.75523 0.0
C851 C 0.76077 0.39884 0.75314 0.0
H852 H 0.60895 0.11518 0.0409 0.0
H853 H 0.54115 0.12312 0.00204 0.0
H854 H 0.62846 0.16134 0.03158 0.0
H855 H 0.56117 0.16841 0.99205 0.0
H856 H 0.57447 0.26353 0.99897 0.0
H857 H 0.56148 0.2145 0.00434 0.0
H858 H 0.65075 0.19179 0.00986 0.0
H859 H 0.664 0.2419 0.00502 0.0
C860 C 0.59874 0.1265 0.03001 0.0
C861 C 0.57343 0.11588 0.02228 0.0
C862 C 0.60993 0.15288 0.02462 0.0
C863 C 0.59612 0.16894 0.01126 0.0
C864 C 0.57193 0.15711 0.00272 0.0
C865 C 0.56053 0.13107 0.00831 0.0
C866 C 0.59155 0.24825 0.00122 0.0
C867 C 0.62038 0.25689 0.00158 0.0
C868 C 0.58401 0.21984 0.00414 0.0
C869 C 0.60502 0.19893 0.00735 0.0
C870 C 0.63398 0.20735 0.00754 0.0
C871 C 0.64159 0.23605 0.00468 0.0
H872 H 0.86091 0.02837 0.27662 0.0
H873 H 0.89218 0.11522 0.27275 0.0
H874 H 0.81368 0.04436 0.26805 0.0
H875 H 0.84413 0.13167 0.26621 0.0
H876 H 0.75811 0.15208 0.24077 0.0
H877 H 0.80687 0.13573 0.24646 0.0
H878 H 0.77391 0.06654 0.27845 0.0
H879 H 0.72541 0.08185 0.27159 0.0
C880 C 0.85791 0.0509 0.2739 0.0
C881 C 0.88079 0.07037 0.27547 0.0
C882 C 0.8304 0.06025 0.26935 0.0
C883 C 0.82458 0.0895 0.26668 0.0
C884 C 0.84752 0.10895 0.26798 0.0
C885 C 0.87522 0.09949 0.27209 0.0
C886 C 0.76144 0.13338 0.24901 0.0
C887 C 0.73801 0.11817 0.25569 0.0
C888 C 0.78944 0.12402 0.25239 0.0
C889 C 0.79471 0.0996 0.2629 0.0
C890 C 0.77103 0.08488 0.26988 0.0
C891 C 0.74309 0.09382 0.26611 0.0
H892 H 0.89443 0.39307 0.53122 0.0
H893 H 0.97343 0.36676 0.50693 0.0
H894 H 0.87225 0.34797 0.52233 0.0
H895 H 0.95118 0.3219 0.49766 0.0
H896 H 0.91621 0.23186 0.50917 0.0
H897 H 0.93684 0.27927 0.5123 0.0
H898 H 0.85504 0.31711 0.49898 0.0
H899 H 0.83413 0.26933 0.49632 0.0
C900 C 0.90683 0.37792 0.5236 0.0
C901 C 0.93574 0.38334 0.51991 0.0
C902 C 0.89412 0.35204 0.51846 0.0
C903 C 0.90999 0.33107 0.50943 0.0
C904 C 0.93849 0.33723 0.50495 0.0
C905 C 0.95123 0.36298 0.5102 0.0
C906 C 0.90266 0.25025 0.50669 0.0
C907 C 0.87348 0.24679 0.50259 0.0
C908 C 0.91456 0.27754 0.50837 0.0
C909 C 0.89763 0.30215 0.50593 0.0
C910 C 0.86863 0.29867 0.50119 0.0
C911 C 0.85668 0.27128 0.49954 0.0
H912 H 0.61021 0.0721 0.5059 0.0
H913 H 0.63548 0.08993 0.45214 0.0
H914 H 0.65421 0.0949 0.51697 0.0
H915 H 0.6792 0.11282 0.46312 0.0
H916 H 0.74937 0.16578 0.4888 0.0
H917 H 0.69932 0.1543 0.48183 0.0
H918 H 0.70589 0.07785 0.51368 0.0
H919 H 0.75567 0.089 0.52044 0.0
C920 C 0.62487 0.08148 0.49651 0.0
C921 C 0.61966 0.07911 0.47819 0.0
C922 C 0.65004 0.09439 0.50281 0.0
C923 C 0.67013 0.10558 0.4909 0.0
C924 C 0.66401 0.10465 0.47262 0.0
C925 C 0.63913 0.09137 0.46633 0.0
C926 C 0.73991 0.14687 0.49461 0.0
C927 C 0.75653 0.1282 0.50507 0.0
C928 C 0.71134 0.14025 0.49056 0.0
C929 C 0.69876 0.11516 0.49719 0.0
C930 C 0.7149 0.09747 0.50851 0.0
C931 C 0.7435 0.10378 0.51229 0.0
H932 H 0.89284 0.10193 0.72966 0.0
H933 H 0.97876 0.13621 0.72834 0.0
H934 H 0.87444 0.14955 0.7362 0.0
H935 H 0.96079 0.18261 0.73652 0.0
H936 H 0.92265 0.26867 0.72982 0.0
H937 H 0.93702 0.22013 0.72317 0.0
H938 H 0.86978 0.18795 0.75674 0.0
H939 H 0.85432 0.23729 0.76255 0.0
C940 C 0.9079 0.11942 0.73089 0.0
C941 C 0.9374 0.11492 0.72829 0.0
C942 C 0.89732 0.14675 0.73492 0.0
C943 C 0.91599 0.17022 0.73665 0.0
C944 C 0.94553 0.16538 0.73481 0.0
C945 C 0.956 0.13835 0.73048 0.0
C946 C 0.91085 0.25123 0.73574 0.0
C947 C 0.88759 0.25674 0.74686 0.0
C948 C 0.91925 0.22328 0.73206 0.0
C949 C 0.90512 0.19988 0.73976 0.0
C950 C 0.88119 0.20535 0.75053 0.0
C951 C 0.87234 0.23358 0.75392 0.0
H952 H 0.89412 0.42433 0.00262 0.0
H953 H 0.84854 0.44411 0.95397 0.0
H954 H 0.85188 0.39852 0.01336 0.0
H955 H 0.80653 0.41957 0.96504 0.0
H956 H 0.72921 0.41299 0.00043 0.0
H957 H 0.77548 0.43432 0.99435 0.0
H958 H 0.8162 0.35215 0.00082 0.0
H959 H 0.76934 0.33025 0.00675 0.0
C960 C 0.87531 0.42302 0.99416 0.0
C961 C 0.8746 0.43685 0.97755 0.0
C962 C 0.85119 0.40831 0.00035 0.0
C963 C 0.82597 0.40748 0.9901 0.0
C964 C 0.82562 0.42034 0.97331 0.0
C965 C 0.84966 0.43461 0.96705 0.0
C966 C 0.74799 0.3994 0.0009 0.0
C967 C 0.74553 0.36981 0.00384 0.0
C968 C 0.77447 0.41169 0.99739 0.0
C969 C 0.79923 0.39479 0.99691 0.0
C970 C 0.79732 0.36557 0.00115 0.0
C971 C 0.77057 0.35311 0.00454 0.0
H972 H 0.55352 0.3825 0.25689 0.0
H973 H 0.61447 0.38798 0.21423 0.0
H974 H 0.57472 0.33711 0.26615 0.0
H975 H 0.63616 0.34329 0.22399 0.0
H976 H 0.68006 0.26974 0.25312 0.0
H977 H 0.6627 0.31899 0.24994 0.0
H978 H 0.57557 0.28843 0.25068 0.0
H979 H 0.59282 0.2394 0.25363 0.0
C980 C 0.57153 0.37423 0.24955 0.0
C981 C 0.58201 0.38893 0.23466 0.0
C982 C 0.58377 0.34831 0.25495 0.0
C983 C 0.60705 0.33666 0.24578 0.0
C984 C 0.61846 0.35194 0.23146 0.0
C985 C 0.606 0.37766 0.2259 0.0
C986 C 0.65722 0.27365 0.25297 0.0
C987 C 0.63778 0.25074 0.25355 0.0
C988 C 0.64731 0.30178 0.25103 0.0
C989 C 0.6178 0.30752 0.25 0.0
C990 C 0.59842 0.28471 0.25158 0.0
C991 C 0.6083 0.25662 0.25319 0.0
H992 H 0.08019 0.96862 0.39588 0.0
H993 H 0.12439 0.91111 0.36068 0.0
H994 H 0.09807 0.94241 0.42122 0.0
H995 H 0.14341 0.88491 0.38628 0.0
H996 H 0.14738 0.82704 0.43588 0.0
H997 H 0.13304 0.8533 0.40912 0.0
H998 H 0.13614 0.93246 0.43902 0.0
H999 H 0.14812 0.90579 0.46565 0.0
C1000 C 0.09428 0.9506 0.3936 0.0
C1001 C 0.10112 0.9421 0.3763 0.0
C1002 C 0.10463 0.93544 0.4082 0.0
C1003 C 0.12239 0.91138 0.40599 0.0
C1004 C 0.12945 0.90299 0.3886 0.0
C1005 C 0.11875 0.91808 0.3739 0.0
C1006 C 0.14475 0.85005 0.43656 0.0
C1007 C 0.14774 0.86439 0.4528 0.0
C1008 C 0.13685 0.86521 0.42124 0.0
C1009 C 0.13285 0.89513 0.42183 0.0
C1010 C 0.13786 0.90942 0.43802 0.0
C1011 C 0.14492 0.8942 0.45332 0.0
H1012 H 0.0538 0.62425 0.6283 0.0
H1013 H 0.12079 0.56096 0.62382 0.0
H1014 H 0.07906 0.64594 0.65337 0.0
H1015 H 0.14628 0.58312 0.64865 0.0
H1016 H 0.19238 0.64172 0.68896 0.0
H1017 H 0.17116 0.62755 0.66025 0.0
H1018 H 0.08732 0.6279 0.68391 0.0
H1019 H 0.10854 0.64188 0.71229 0.0
C1020 C 0.07401 0.6151 0.63256 0.0
C1021 C 0.08504 0.59061 0.62419 0.0
C1022 C 0.08852 0.62759 0.64687 0.0
C1023 C 0.11449 0.61603 0.65308 0.0
C1024 C 0.12641 0.59262 0.64408 0.0
C1025 C 0.11178 0.57996 0.62983 0.0
C1026 C 0.16945 0.63879 0.68786 0.0
C1027 C 0.15206 0.64194 0.70278 0.0
C1028 C 0.15733 0.63072 0.67152 0.0
C1029 C 0.12759 0.62661 0.66985 0.0
C1030 C 0.11024 0.63119 0.6847 0.0
C1031 C 0.12237 0.63883 0.70098 0.0
H1032 H 0.4111 0.54359 0.88354 0.0
H1033 H 0.43281 0.62963 0.86794 0.0
H1034 H 0.38599 0.562 0.9091 0.0
H1035 H 0.40664 0.64848 0.89337 0.0
H1036 H 0.39221 0.66481 0.95387 0.0
H1037 H 0.41062 0.65223 0.92459 0.0
H1038 H 0.34628 0.58606 0.91979 0.0
H1039 H 0.32937 0.59764 0.94937 0.0
C1040 C 0.40982 0.56655 0.88534 0.0
C1041 C 0.42387 0.58515 0.87371 0.0
C1042 C 0.3953 0.57722 0.90001 0.0
C1043 C 0.39407 0.60685 0.90337 0.0
C1044 C 0.40743 0.62554 0.89139 0.0
C1045 C 0.4223 0.61479 0.87677 0.0
C1046 C 0.38177 0.64801 0.94631 0.0
C1047 C 0.35961 0.632 0.95382 0.0
C1048 C 0.39222 0.64076 0.92952 0.0
C1049 C 0.38034 0.61767 0.91988 0.0
C1050 C 0.35662 0.60331 0.92699 0.0
C1051 C 0.34668 0.61012 0.94386 0.0
H1052 H 0.46246 0.88801 0.13232 0.0
H1053 H 0.3822 0.93287 0.12569 0.0
H1054 H 0.44486 0.86629 0.15934 0.0
H1055 H 0.36517 0.91222 0.15337 0.0
H1056 H 0.33837 0.85605 0.20091 0.0
H1057 H 0.35116 0.86963 0.17058 0.0
H1058 H 0.43764 0.88693 0.18823 0.0
H1059 H 0.42529 0.8732 0.21803 0.0
C1060 C 0.44085 0.89286 0.1364 0.0
C1061 C 0.42393 0.91254 0.12688 0.0
C1062 C 0.43088 0.88068 0.15207 0.0
C1063 C 0.40384 0.88801 0.15875 0.0
C1064 C 0.38612 0.90615 0.14864 0.0
C1065 C 0.39604 0.91824 0.13287 0.0
C1066 C 0.3601 0.8627 0.19826 0.0
C1067 C 0.38077 0.86335 0.21197 0.0
C1068 C 0.36742 0.8705 0.1809 0.0
C1069 C 0.39555 0.87896 0.17691 0.0
C1070 C 0.41598 0.87981 0.19067 0.0
C1071 C 0.40875 0.87212 0.20789 0.0
H1072 H 0.10953 0.54945 0.87778 0.0
H1073 H 0.06844 0.6322 0.88043 0.0
H1074 H 0.13414 0.56405 0.85109 0.0
H1075 H 0.09193 0.64619 0.85301 0.0
H1076 H 0.15136 0.66676 0.80623 0.0
H1077 H 0.13609 0.6568 0.83663 0.0
H1078 H 0.11574 0.56995 0.82144 0.0
H1079 H 0.13119 0.57948 0.79159 0.0
C1080 C 0.10613 0.57098 0.87292 0.0
C1081 C 0.08662 0.58947 0.8812 0.0
C1082 C 0.11997 0.57922 0.85742 0.0
C1083 C 0.11449 0.60605 0.84967 0.0
C1084 C 0.09659 0.62535 0.85859 0.0
C1085 C 0.08286 0.61717 0.87421 0.0
C1086 C 0.14375 0.64552 0.80944 0.0
C1087 C 0.14262 0.62396 0.79639 0.0
C1088 C 0.13496 0.63984 0.82684 0.0
C1089 C 0.12502 0.61247 0.83154 0.0
C1090 C 0.12393 0.59106 0.81846 0.0
C1091 C 0.1326 0.59668 0.8012 0.0
H1092 H 0.44415 0.55162 0.1075 0.0
H1093 H 0.39874 0.61054 0.14115 0.0
H1094 H 0.42238 0.57321 0.08145 0.0
H1095 H 0.37621 0.63226 0.11479 0.0
H1096 H 0.31872 0.63871 0.06363 0.0
H1097 H 0.34122 0.62092 0.09108 0.0
H1098 H 0.42241 0.61585 0.06427 0.0
H1099 H 0.39972 0.63282 0.03705 0.0
C1100 C 0.42932 0.5692 0.10926 0.0
C1101 C 0.42291 0.57932 0.12628 0.0
C1102 C 0.41684 0.58165 0.09432 0.0
C1103 C 0.39723 0.60426 0.09598 0.0
C1104 C 0.39093 0.6146 0.11307 0.0
C1105 C 0.40391 0.60238 0.12812 0.0
C1106 C 0.34132 0.63361 0.06374 0.0
C1107 C 0.35736 0.63601 0.04819 0.0
C1108 C 0.35427 0.6237 0.07943 0.0
C1109 C 0.38357 0.61664 0.07982 0.0
C1110 C 0.39969 0.6204 0.06435 0.0
C1111 C 0.38673 0.63005 0.04875 0.0
H1112 H 0.37353 0.93578 0.38659 0.0
H1113 H 0.44622 0.87875 0.38179 0.0
H1114 H 0.35206 0.9138 0.36033 0.0
H1115 H 0.42291 0.85522 0.35702 0.0
H1116 H 0.35826 0.80995 0.31799 0.0
H1117 H 0.37305 0.82774 0.34749 0.0
H1118 H 0.37512 0.91388 0.32698 0.0
H1119 H 0.36129 0.89603 0.29759 0.0
C1120 C 0.38494 0.91852 0.38022 0.0
C1121 C 0.41213 0.90969 0.38639 0.0
C1122 C 0.37233 0.90569 0.36529 0.0
C1123 C 0.38603 0.88303 0.35662 0.0
C1124 C 0.41198 0.8727 0.36347 0.0
C1125 C 0.42516 0.88616 0.37792 0.0
C1126 C 0.36189 0.83264 0.31992 0.0
C1127 C 0.3595 0.85162 0.30559 0.0
C1128 C 0.3702 0.84278 0.3367 0.0
C1129 C 0.37502 0.87215 0.33944 0.0
C1130 C 0.37124 0.89119 0.32523 0.0
C1131 C 0.36365 0.88099 0.30843 0.0
H1132 H 0.05827 0.86012 0.63226 0.0
H1133 H 0.11118 0.93542 0.62746 0.0
H1134 H 0.07866 0.84097 0.60503 0.0
H1135 H 0.13159 0.91623 0.60028 0.0
H1136 H 0.17163 0.86715 0.55418 0.0
H1137 H 0.15983 0.87802 0.58512 0.0
H1138 H 0.07139 0.85697 0.57432 0.0
H1139 H 0.08301 0.84602 0.54381 0.0
C1140 C 0.07453 0.8724 0.62553 0.0
C1141 C 0.0828 0.89947 0.63192 0.0
C1142 C 0.08622 0.86143 0.60994 0.0
C1143 C 0.10644 0.87727 0.60036 0.0
C1144 C 0.11621 0.9034 0.60741 0.0
C1145 C 0.10449 0.91439 0.62301 0.0
C1146 C 0.14977 0.86453 0.55852 0.0
C1147 C 0.12824 0.85592 0.54647 0.0
C1148 C 0.143 0.87085 0.57619 0.0
C1149 C 0.11469 0.86826 0.58219 0.0
C1150 C 0.09348 0.85878 0.57025 0.0
C1151 C 0.10013 0.85278 0.55265 0.0
H1152 H 0.57136 0.39608 0.87289 0.0
H1153 H 0.64087 0.45638 0.87944 0.0
H1154 H 0.58882 0.36937 0.89853 0.0
H1155 H 0.65746 0.43013 0.90554 0.0
H1156 H 0.64501 0.40035 0.96428 0.0
H1157 H 0.63343 0.42327 0.93599 0.0
H1158 H 0.63356 0.34075 0.91014 0.0
H1159 H 0.64565 0.31783 0.93864 0.0
C1160 C 0.59068 0.40338 0.87952 0.0
C1161 C 0.60459 0.42858 0.87408 0.0
C1162 C 0.60056 0.38808 0.89428 0.0
C1163 C 0.62431 0.39784 0.90406 0.0
C1164 C 0.63886 0.42237 0.89833 0.0
C1165 C 0.62925 0.43745 0.88343 0.0
C1166 C 0.64246 0.38716 0.95253 0.0
C1167 C 0.64529 0.35735 0.95358 0.0
C1168 C 0.63618 0.40026 0.93635 0.0
C1169 C 0.6326 0.38375 0.92091 0.0
C1170 C 0.63605 0.35389 0.9219 0.0
C1171 C 0.64289 0.34083 0.9381 0.0
H1172 H 0.55443 0.13226 0.12359 0.0
H1173 H 0.61772 0.06474 0.12383 0.0
H1174 H 0.57889 0.15487 0.14863 0.0
H1175 H 0.64269 0.08812 0.1483 0.0
H1176 H 0.68842 0.14589 0.18873 0.0
H1177 H 0.66904 0.13169 0.15954 0.0
H1178 H 0.58327 0.1388 0.17998 0.0
H1179 H 0.60269 0.15274 0.20886 0.0
C1180 C 0.57367 0.12234 0.12883 0.0
C1181 C 0.58374 0.09635 0.12181 0.0
C1182 C 0.58776 0.13542 0.14311 0.0
C1183 C 0.61248 0.12304 0.15057 0.0
C1184 C 0.62374 0.09822 0.1428 0.0
C1185 C 0.6094 0.08486 0.12869 0.0
C1186 C 0.66547 0.14449 0.18681 0.0
C1187 C 0.64695 0.14949 0.20099 0.0
C1188 C 0.65439 0.13642 0.17019 0.0
C1189 C 0.62463 0.13415 0.16748 0.0
C1190 C 0.60625 0.14068 0.18156 0.0
C1191 C 0.61732 0.14829 0.19813 0.0
H1192 H 0.91767 0.12833 0.36756 0.0
H1193 H 0.9045 0.04195 0.38584 0.0
H1194 H 0.89245 0.14669 0.39347 0.0
H1195 H 0.88053 0.05995 0.41195 0.0
H1196 H 0.82634 0.09402 0.4542 0.0
H1197 H 0.84081 0.08136 0.42429 0.0
H1198 H 0.89927 0.15312 0.42409 0.0
H1199 H 0.88322 0.16664 0.45367 0.0
C1200 C 0.9092 0.1133 0.37709 0.0
C1201 C 0.91293 0.08371 0.37466 0.0
C1202 C 0.89491 0.12378 0.392 0.0
C1203 C 0.88439 0.10491 0.40494 0.0
C1204 C 0.88763 0.07526 0.40218 0.0
C1205 C 0.90151 0.06483 0.38719 0.0
C1206 C 0.84183 0.1074 0.44756 0.0
C1207 C 0.85381 0.13119 0.45623 0.0
C1208 C 0.85038 0.10001 0.43047 0.0
C1209 C 0.87177 0.11575 0.42181 0.0
C1210 C 0.88261 0.14054 0.43019 0.0
C1211 C 0.8735 0.14832 0.44718 0.0
H1212 H 0.94635 0.36714 0.61794 0.0
H1213 H 0.89468 0.44265 0.62569 0.0
H1214 H 0.92567 0.34571 0.64439 0.0
H1215 H 0.87412 0.42128 0.6522 0.0
H1216 H 0.83566 0.36895 0.69772 0.0
H1217 H 0.84588 0.38195 0.66682 0.0
H1218 H 0.93473 0.35993 0.67527 0.0
H1219 H 0.92468 0.347 0.70564 0.0
C1220 C 0.93024 0.37895 0.62514 0.0
C1221 C 0.92248 0.40674 0.61989 0.0
C1222 C 0.91839 0.3667 0.64027 0.0
C1223 C 0.89861 0.38201 0.65055 0.0
C1224 C 0.88917 0.40887 0.64452 0.0
C1225 C 0.90099 0.42112 0.62933 0.0
C1226 C 0.85724 0.3666 0.69284 0.0
C1227 C 0.87939 0.35721 0.70417 0.0
C1228 C 0.86311 0.37411 0.6752 0.0
C1229 C 0.89109 0.37181 0.66858 0.0
C1230 C 0.91287 0.36153 0.67982 0.0
C1231 C 0.90714 0.35442 0.69735 0.0
H1232 H 0.57168 0.03526 0.35669 0.0
H1233 H 0.59701 0.10832 0.38836 0.0
H1234 H 0.58808 0.05912 0.33025 0.0
H1235 H 0.61237 0.13304 0.36138 0.0
H1236 H 0.6648 0.14882 0.30799 0.0
H1237 H 0.64865 0.13156 0.33705 0.0
H1238 H 0.57173 0.09837 0.31233 0.0
H1239 H 0.58826 0.11446 0.28365 0.0
C1240 C 0.581 0.05637 0.35808 0.0
C1241 C 0.58314 0.06973 0.37475 0.0
C1242 C 0.58998 0.0703 0.34281 0.0
C1243 C 0.60109 0.09822 0.34363 0.0
C1244 C 0.60386 0.11155 0.3603 0.0
C1245 C 0.59486 0.09747 0.37572 0.0
C1246 C 0.6442 0.13836 0.30895 0.0
C1247 C 0.62793 0.13261 0.29358 0.0
C1248 C 0.63496 0.12846 0.32554 0.0
C1249 C 0.60924 0.11292 0.32692 0.0
C1250 C 0.59206 0.10942 0.31167 0.0
C1251 C 0.60142 0.11886 0.29522 0.0
H1252 H 0.95051 0.05329 0.6073 0.0
H1253 H 0.90669 0.11082 0.64258 0.0
H1254 H 0.92984 0.0777 0.58188 0.0
H1255 H 0.88514 0.13537 0.61692 0.0
H1256 H 0.82602 0.14591 0.56708 0.0
H1257 H 0.84986 0.12767 0.59391 0.0
H1258 H 0.92866 0.11915 0.56474 0.0
H1259 H 0.90439 0.13611 0.53805 0.0
C1260 C 0.93636 0.07129 0.60953 0.0
C1261 C 0.92996 0.08011 0.6268 0.0
C1262 C 0.92445 0.08534 0.59495 0.0
C1263 C 0.90531 0.10825 0.59725 0.0
C1264 C 0.89937 0.11749 0.61464 0.0
C1265 C 0.91181 0.10366 0.62931 0.0
C1266 C 0.84841 0.14002 0.56655 0.0
C1267 C 0.86319 0.14131 0.55048 0.0
C1268 C 0.86218 0.12986 0.5819 0.0
C1269 C 0.89116 0.12155 0.58149 0.0
C1270 C 0.90617 0.12455 0.56551 0.0
C1271 C 0.89232 0.13426 0.5502 0.0
H1272 H 0.9311 0.46267 0.85632 0.0
H1273 H 0.88743 0.40363 0.89068 0.0
H1274 H 0.91557 0.43558 0.83065 0.0
H1275 H 0.8709 0.37649 0.86472 0.0
H1276 H 0.86843 0.32003 0.81429 0.0
H1277 H 0.88332 0.34554 0.84132 0.0
H1278 H 0.87659 0.42583 0.81303 0.0
H1279 H 0.86375 0.40009 0.78614 0.0
C1280 C 0.91775 0.44403 0.85833 0.0
C1281 C 0.91014 0.4355 0.87548 0.0
C1282 C 0.90878 0.42839 0.84356 0.0
C1283 C 0.89169 0.40382 0.84545 0.0
C1284 C 0.88428 0.39507 0.86269 0.0
C1285 C 0.89357 0.41068 0.87757 0.0
C1286 C 0.87044 0.34312 0.814 0.0
C1287 C 0.86598 0.35814 0.79814 0.0
C1288 C 0.87866 0.3578 0.82947 0.0
C1289 C 0.88166 0.38784 0.8294 0.0
C1290 C 0.87556 0.40272 0.81358 0.0
C1291 C 0.86802 0.38802 0.79815 0.0
H1292 H 0.53893 0.40379 0.11955 0.0
H1293 H 0.62561 0.41481 0.13851 0.0
H1294 H 0.55639 0.38287 0.09234 0.0
H1295 H 0.64349 0.39235 0.11144 0.0
H1296 H 0.66368 0.38542 0.05135 0.0
H1297 H 0.65007 0.40064 0.08115 0.0
H1298 H 0.57673 0.34421 0.07857 0.0
H1299 H 0.5894 0.33087 0.04848 0.0
C1300 C 0.56179 0.40094 0.11807 0.0
C1301 C 0.58089 0.41074 0.1312 0.0
C1302 C 0.57191 0.38879 0.10244 0.0
C1303 C 0.60149 0.38561 0.09957 0.0
C1304 C 0.62062 0.39476 0.11299 0.0
C1305 C 0.61043 0.40743 0.12857 0.0
C1306 C 0.64485 0.37616 0.05733 0.0
C1307 C 0.62736 0.35731 0.04762 0.0
C1308 C 0.63705 0.38473 0.07445 0.0
C1309 C 0.61192 0.3741 0.08229 0.0
C1310 C 0.59564 0.3537 0.07285 0.0
C1311 C 0.60301 0.34579 0.05564 0.0
loop_
_geom_bond_atom_site_label_1
_geom_bond_atom_site_label_2
_geom_bond_distance
_geom_bond_site_symmetry_2
_ccdc_geom_bond_type
H0 C19 0.949 . S
H1 C20 0.950 . S
H2 C22 0.950 . S
H3 C23 0.950 . S
H4 C25 0.950 . S
H5 C28 0.950 . S
H6 C29 0.950 . S
H7 C31 0.951 . S
H8 C32 0.949 1_565 S
H9 C34 0.949 . S
H10 C35 0.950 . S
H11 C37 0.950 . S
H12 C38 0.950 . S
H13 C40 0.950 1_655 S
H14 C43 0.950 . S
H15 C44 0.950 . S
H16 C46 0.951 . S
H17 C47 0.949 1_545 S
C18 C19 1.376 . S
C18 C23 1.386 . S
C18 C24 1.483 . S
C19 H0 0.949 . S
C19 C18 1.376 . S
C19 C20 1.397 . S
C20 H1 0.950 . S
C20 C19 1.397 . S
C20 C21 1.391 . S
C21 C20 1.391 . S
C21 C22 1.405 . S
C22 H2 0.950 . S
C22 C21 1.405 . S
C22 C23 1.367 . S
C23 H3 0.950 . S
C23 C18 1.386 . S
C23 C22 1.367 . S
C24 C18 1.483 . S
C24 C25 1.382 1_655 S
C24 C26 1.403 . S
C25 H4 0.950 . S
C25 C24 1.382 1_455 S
C25 C41 1.411 1_545 S
C26 C24 1.403 . S
C26 C27 1.489 . S
C26 C40 1.411 1_645 S
C27 C26 1.489 . S
C27 C28 1.383 . S
C27 C32 1.382 . S
C28 H5 0.950 . S
C28 C27 1.383 . S
C28 C29 1.395 . S
C29 H6 0.950 . S
C29 C28 1.395 . S
C29 C30 1.288 . S
C30 C29 1.288 . S
C30 C31 1.392 . S
C31 H7 0.951 . S
C31 C30 1.392 . S
C31 C32 1.392 . S
C32 H8 0.949 1_545 S
C32 C27 1.382 . S
C32 C31 1.392 . S
C33 C34 1.376 . S
C33 C38 1.386 . S
C33 C39 1.483 . S
C34 H9 0.949 . S
C34 C33 1.376 . S
C34 C35 1.397 . S
C35 H10 0.950 . S
C35 C34 1.397 . S
C35 C36 1.391 . S
C36 C35 1.391 . S
C36 C37 1.405 . S
C37 H11 0.950 . S
C37 C36 1.405 . S
C37 C38 1.367 . S
C38 H12 0.950 . S
C38 C33 1.386 . S
C38 C37 1.367 . S
C39 C33 1.483 . S
C39 C40 1.382 . S
C39 C41 1.403 . S
C40 H13 0.950 1_455 S
C40 C26 1.411 1_465 S
C40 C39 1.382 . S
C41 C25 1.411 1_565 S
C41 C39 1.403 . S
C41 C42 1.489 . S
C42 C41 1.489 . S
C42 C43 1.383 . S
C42 C47 1.382 . S
C43 H14 0.950 . S
C43 C42 1.383 . S
C43 C44 1.395 . S
C44 H15 0.950 . S
C44 C43 1.395 . S
C44 C45 1.288 . S
C45 C44 1.288 . S
C45 C46 1.392 . S
C46 H16 0.951 . S
C46 C45 1.392 . S
C46 C47 1.392 . S
C47 H17 0.949 1_565 S
C47 C42 1.382 . S
C47 C46 1.392 . S
H48 C67 0.949 1_455 S
H49 C68 0.950 . S
H50 C70 0.950 . S
H51 C71 0.950 . S
H52 C73 0.950 . S
H53 C76 0.950 . S
H54 C77 0.950 . S
H55 C79 0.951 . S
H56 C80 0.949 . S
H57 C82 0.949 1_655 S
H58 C83 0.950 . S
H59 C85 0.950 . S
H60 C86 0.950 . S
H61 C88 0.950 . S
H62 C91 0.950 . S
H63 C92 0.950 . S
H64 C94 0.951 . S
H65 C95 0.949 . S
C66 C67 1.376 . S
C66 C71 1.386 . S
C66 C72 1.483 . S
C67 H48 0.949 1_655 S
C67 C66 1.376 . S
C67 C68 1.397 . S
C68 H49 0.950 . S
C68 C67 1.397 . S
C68 C69 1.391 . S
C69 C68 1.391 . S
C69 C70 1.405 . S
C70 H50 0.950 . S
C70 C69 1.405 . S
C70 C71 1.367 . S
C71 H51 0.950 . S
C71 C66 1.386 . S
C71 C70 1.367 . S
C72 C66 1.483 . S
C72 C73 1.382 1_655 S
C72 C74 1.403 . S
C73 H52 0.950 . S
C73 C72 1.382 1_455 S
C73 C89 1.411 . S
C74 C72 1.403 . S
C74 C75 1.489 . S
C74 C88 1.411 . S
C75 C74 1.489 . S
C75 C76 1.383 . S
C75 C80 1.382 . S
C76 H53 0.950 . S
C76 C75 1.383 . S
C76 C77 1.395 . S
C77 H54 0.950 . S
C77 C76 1.395 . S
C77 C78 1.288 . S
C78 C77 1.288 . S
C78 C79 1.392 . S
C79 H55 0.951 . S
C79 C78 1.392 . S
C79 C80 1.392 . S
C80 H56 0.949 . S
C80 C75 1.382 . S
C80 C79 1.392 . S
C81 C82 1.376 . S
C81 C86 1.386 . S
C81 C87 1.483 . S
C82 H57 0.949 1_455 S
C82 C81 1.376 . S
C82 C83 1.397 . S
C83 H58 0.950 . S
C83 C82 1.397 . S
C83 C84 1.391 . S
C84 C83 1.391 . S
C84 C85 1.405 . S
C85 H59 0.950 . S
C85 C84 1.405 . S
C85 C86 1.367 . S
C86 H60 0.950 . S
C86 C81 1.386 . S
C86 C85 1.367 . S
C87 C81 1.483 . S
C87 C88 1.382 1_455 S
C87 C89 1.403 . S
C88 H61 0.950 . S
C88 C74 1.411 . S
C88 C87 1.382 1_655 S
C89 C73 1.411 . S
C89 C87 1.403 . S
C89 C90 1.489 . S
C90 C89 1.489 . S
C90 C91 1.383 . S
C90 C95 1.382 . S
C91 H62 0.950 . S
C91 C90 1.383 . S
C91 C92 1.395 . S
C92 H63 0.950 . S
C92 C91 1.395 . S
C92 C93 1.288 . S
C93 C92 1.288 . S
C93 C94 1.392 . S
C94 H64 0.951 . S
C94 C93 1.392 . S
C94 C95 1.392 . S
C95 H65 0.949 . S
C95 C90 1.382 . S
C95 C94 1.392 . S
H96 C115 0.949 . S
H97 C116 0.950 . S
H98 C118 0.950 . S
H99 C119 0.950 . S
H100 C121 0.950 . S
H101 C124 0.950 . S
H102 C125 0.950 . S
H103 C127 0.951 . S
H104 C128 0.949 . S
H105 C130 0.949 . S
H106 C131 0.950 . S
H107 C133 0.950 . S
H108 C134 0.950 . S
H109 C136 0.950 . S
H110 C139 0.950 . S
H111 C140 0.950 . S
H112 C142 0.951 . S
H113 C143 0.949 . S
C114 C115 1.376 . S
C114 C119 1.386 . S
C114 C120 1.483 . S
C115 H96 0.949 . S
C115 C114 1.376 . S
C115 C116 1.397 . S
C116 H97 0.950 . S
C116 C115 1.397 . S
C116 C117 1.391 . S
C117 C116 1.391 . S
C117 C118 1.405 . S
C118 H98 0.950 . S
C118 C117 1.405 . S
C118 C119 1.367 . S
C119 H99 0.950 . S
C119 C114 1.386 . S
C119 C118 1.367 . S
C120 C114 1.483 . S
C120 C121 1.382 . S
C120 C122 1.403 . S
C121 H100 0.950 . S
C121 C120 1.382 . S
C121 C137 1.411 . S
C122 C120 1.403 . S
C122 C123 1.489 . S
C122 C136 1.411 . S
C123 C122 1.489 . S
C123 C124 1.383 . S
C123 C128 1.382 . S
C124 H101 0.950 . S
C124 C123 1.383 . S
C124 C125 1.395 . S
C125 H102 0.950 . S
C125 C124 1.395 . S
C125 C126 1.288 . S
C126 C125 1.288 . S
C126 C127 1.392 . S
C127 H103 0.951 . S
C127 C126 1.392 . S
C127 C128 1.392 . S
C128 H104 0.949 . S
C128 C123 1.382 . S
C128 C127 1.392 . S
C129 C130 1.376 . S
C129 C134 1.386 . S
C129 C135 1.483 . S
C130 H105 0.949 . S
C130 C129 1.376 . S
C130 C131 1.397 . S
C131 H106 0.950 . S
C131 C130 1.397 . S
C131 C132 1.391 . S
C132 C131 1.391 . S
C132 C133 1.405 . S
C133 H107 0.950 . S
C133 C132 1.405 . S
C133 C134 1.367 . S
C134 H108 0.950 . S
C134 C129 1.386 . S
C134 C133 1.367 . S
C135 C129 1.483 . S
C135 C136 1.382 . S
C135 C137 1.403 . S
C136 H109 0.950 . S
C136 C122 1.411 . S
C136 C135 1.382 . S
C137 C121 1.411 . S
C137 C135 1.403 . S
C137 C138 1.489 . S
C138 C137 1.489 . S
C138 C139 1.383 . S
C138 C143 1.382 . S
C139 H110 0.950 . S
C139 C138 1.383 . S
C139 C140 1.395 . S
C140 H111 0.950 . S
C140 C139 1.395 . S
C140 C141 1.288 . S
C141 C140 1.288 . S
C141 C142 1.392 . S
C142 H112 0.951 . S
C142 C141 1.392 . S
C142 C143 1.392 . S
C143 H113 0.949 . S
C143 C138 1.382 . S
C143 C142 1.392 . S
H144 C163 0.949 . S
H145 C164 0.950 . S
H146 C166 0.950 . S
H147 C167 0.950 . S
H148 C169 0.946 1_565 S
H149 C172 0.950 . S
H150 C173 0.950 . S
H151 C175 0.951 . S
H152 C176 0.949 . S
H153 C178 0.949 . S
H154 C179 0.950 . S
H155 C181 0.950 . S
H156 C182 0.950 . S
H157 C184 0.950 . S
H158 C187 0.950 . S
H159 C188 0.950 . S
H160 C190 0.951 . S
H161 C191 0.949 . S
C162 C163 1.376 . S
C162 C167 1.386 . S
C162 C168 1.483 . S
C163 H144 0.949 . S
C163 C162 1.376 . S
C163 C164 1.397 . S
C164 H145 0.950 . S
C164 C163 1.397 . S
C164 C165 1.391 . S
C165 C164 1.391 . S
C165 C166 1.405 . S
C166 H146 0.950 . S
C166 C165 1.405 . S
C166 C167 1.367 . S
C167 H147 0.950 . S
C167 C162 1.386 . S
C167 C166 1.367 . S
C168 C162 1.483 . S
C168 C169 1.382 1_565 S
C168 C170 1.403 . S
C169 H148 0.946 1_545 S
C169 C168 1.382 1_545 S
C169 C185 1.411 . S
C170 C168 1.403 . S
C170 C171 1.489 . S
C170 C184 1.411 1_565 S
C171 C170 1.489 . S
C171 C172 1.383 . S
C171 C176 1.382 . S
C172 H149 0.950 . S
C172 C171 1.383 . S
C172 C173 1.395 . S
C173 H150 0.950 . S
C173 C172 1.395 . S
C173 C174 1.288 . S
C174 C173 1.288 . S
C174 C175 1.392 . S
C175 H151 0.951 . S
C175 C174 1.392 . S
C175 C176 1.392 . S
C176 H152 0.949 . S
C176 C171 1.382 . S
C176 C175 1.392 . S
C177 C178 1.376 . S
C177 C182 1.386 . S
C177 C183 1.483 . S
C178 H153 0.949 . S
C178 C177 1.376 . S
C178 C179 1.397 . S
C179 H154 0.950 . S
C179 C178 1.397 . S
C179 C180 1.391 . S
C180 C179 1.391 . S
C180 C181 1.405 . S
C181 H155 0.950 . S
C181 C180 1.405 . S
C181 C182 1.367 . S
C182 H156 0.950 . S
C182 C177 1.386 . S
C182 C181 1.367 . S
C183 C177 1.483 . S
C183 C184 1.382 . S
C183 C185 1.403 . S
C184 H157 0.950 . S
C184 C170 1.411 1_545 S
C184 C183 1.382 . S
C185 C169 1.411 . S
C185 C183 1.403 . S
C185 C186 1.489 . S
C186 C185 1.489 . S
C186 C187 1.383 . S
C186 C191 1.382 . S
C187 H158 0.950 . S
C187 C186 1.383 . S
C187 C188 1.395 . S
C188 H159 0.950 . S
C188 C187 1.395 . S
C188 C189 1.288 . S
C189 C188 1.288 . S
C189 C190 1.392 . S
C190 H160 0.951 . S
C190 C189 1.392 . S
C190 C191 1.392 . S
C191 H161 0.949 . S
C191 C186 1.382 . S
C191 C190 1.392 . S
H192 C211 0.949 . S
H193 C212 0.950 . S
H194 C214 0.950 . S
H195 C215 0.950 . S
H196 C217 0.952 . S
H197 C220 0.950 . S
H198 C221 0.950 . S
H199 C223 0.951 . S
H200 C224 0.949 . S
H201 C226 0.949 . S
H202 C227 0.950 . S
H203 C229 0.950 . S
H204 C230 0.950 . S
H205 C232 0.950 . S
H206 C235 0.950 . S
H207 C236 0.950 . S
H208 C238 0.951 . S
H209 C239 0.949 . S
C210 C211 1.376 . S
C210 C215 1.386 . S
C210 C216 1.483 . S
C211 H192 0.949 . S
C211 C210 1.376 . S
C211 C212 1.397 . S
C212 H193 0.950 . S
C212 C211 1.397 . S
C212 C213 1.391 . S
C213 C212 1.391 . S
C213 C214 1.405 . S
C214 H194 0.950 . S
C214 C213 1.405 . S
C214 C215 1.367 . S
C215 H195 0.950 . S
C215 C210 1.386 . S
C215 C214 1.367 . S
C216 C210 1.483 . S
C216 C217 1.366 1_455 S
C216 C218 1.403 . S
C217 H196 0.952 . S
C217 C216 1.366 1_655 S
C217 C233 1.426 . S
C218 C216 1.403 . S
C218 C219 1.489 . S
C218 C232 1.411 . S
C219 C218 1.489 . S
C219 C220 1.383 . S
C219 C224 1.382 . S
C220 H197 0.950 . S
C220 C219 1.383 . S
C220 C221 1.395 . S
C221 H198 0.950 . S
C221 C220 1.395 . S
C221 C222 1.288 . S
C222 C221 1.288 . S
C222 C223 1.392 . S
C223 H199 0.951 . S
C223 C222 1.392 . S
C223 C224 1.392 . S
C224 H200 0.949 . S
C224 C219 1.382 . S
C224 C223 1.392 . S
C225 C226 1.376 . S
C225 C230 1.386 . S
C225 C231 1.483 . S
C226 H201 0.949 . S
C226 C225 1.376 . S
C226 C227 1.397 . S
C227 H202 0.950 . S
C227 C226 1.397 . S
C227 C228 1.391 . S
C228 C227 1.391 . S
C228 C229 1.405 . S
C229 H203 0.950 . S
C229 C228 1.405 . S
C229 C230 1.367 . S
C230 H204 0.950 . S
C230 C225 1.386 . S
C230 C229 1.367 . S
C231 C225 1.483 . S
C231 C232 1.382 1_655 S
C231 C233 1.403 . S
C232 H205 0.950 . S
C232 C218 1.411 . S
C232 C231 1.382 1_455 S
C233 C217 1.426 . S
C233 C231 1.403 . S
C233 C234 1.489 . S
C234 C233 1.489 . S
C234 C235 1.383 . S
C234 C239 1.382 . S
C235 H206 0.950 . S
C235 C234 1.383 . S
C235 C236 1.395 . S
C236 H207 0.950 . S
C236 C235 1.395 . S
C236 C237 1.288 . S
C237 C236 1.288 . S
C237 C238 1.392 . S
C238 H208 0.951 . S
C238 C237 1.392 . S
C238 C239 1.392 . S
C239 H209 0.949 . S
C239 C234 1.382 . S
C239 C238 1.392 . S
H240 C259 0.949 . S
H241 C260 0.950 . S
H242 C262 0.950 . S
H243 C263 0.950 . S
H244 C265 0.950 . S
H245 C268 0.950 . S
H246 C269 0.950 . S
H247 C271 0.951 . S
H248 C272 0.949 . S
H249 C274 0.949 . S
H250 C275 0.950 . S
H251 C277 0.950 . S
H252 C278 0.950 . S
H253 C280 0.950 . S
H254 C283 0.950 . S
H255 C284 0.950 . S
H256 C286 0.951 . S
H257 C287 0.949 . S
C258 C259 1.376 . S
C258 C263 1.386 . S
C258 C264 1.483 . S
C259 H240 0.949 . S
C259 C258 1.376 . S
C259 C260 1.397 . S
C260 H241 0.950 . S
C260 C259 1.397 . S
C260 C261 1.391 . S
C261 C260 1.391 . S
C261 C262 1.405 . S
C262 H242 0.950 . S
C262 C261 1.405 . S
C262 C263 1.367 . S
C263 H243 0.950 . S
C263 C258 1.386 . S
C263 C262 1.367 . S
C264 C258 1.483 . S
C264 C265 1.382 . S
C264 C266 1.403 . S
C265 H244 0.950 . S
C265 C264 1.382 . S
C265 C281 1.411 . S
C266 C264 1.403 . S
C266 C267 1.489 . S
C266 C280 1.411 . S
C267 C266 1.489 . S
C267 C268 1.383 . S
C267 C272 1.382 . S
C268 H245 0.950 . S
C268 C267 1.383 . S
C268 C269 1.395 . S
C269 H246 0.950 . S
C269 C268 1.395 . S
C269 C270 1.288 . S
C270 C269 1.288 . S
C270 C271 1.392 . S
C271 H247 0.951 . S
C271 C270 1.392 . S
C271 C272 1.392 . S
C272 H248 0.949 . S
C272 C267 1.382 . S
C272 C271 1.392 . S
C273 C274 1.376 . S
C273 C278 1.386 . S
C273 C279 1.483 . S
C274 H249 0.949 . S
C274 C273 1.376 . S
C274 C275 1.397 . S
C275 H250 0.950 . S
C275 C274 1.397 . S
C275 C276 1.391 . S
C276 C275 1.391 . S
C276 C277 1.405 . S
C277 H251 0.950 . S
C277 C276 1.405 . S
C277 C278 1.367 . S
C278 H252 0.950 . S
C278 C273 1.386 . S
C278 C277 1.367 . S
C279 C273 1.483 . S
C279 C280 1.382 . S
C279 C281 1.403 . S
C280 H253 0.950 . S
C280 C266 1.411 . S
C280 C279 1.382 . S
C281 C265 1.411 . S
C281 C279 1.403 . S
C281 C282 1.489 . S
C282 C281 1.489 . S
C282 C283 1.383 . S
C282 C287 1.382 . S
C283 H254 0.950 . S
C283 C282 1.383 . S
C283 C284 1.395 . S
C284 H255 0.950 . S
C284 C283 1.395 . S
C284 C285 1.288 . S
C285 C284 1.288 . S
C285 C286 1.392 . S
C286 H256 0.951 . S
C286 C285 1.392 . S
C286 C287 1.392 . S
C287 H257 0.949 . S
C287 C282 1.382 . S
C287 C286 1.392 . S
H288 C307 0.949 . S
H289 C308 0.950 . S
H290 C310 0.950 . S
H291 C311 0.950 . S
H292 C313 0.950 . S
H293 C316 0.950 . S
H294 C317 0.950 . S
H295 C319 0.951 . S
H296 C320 0.949 1_545 S
H297 C322 0.949 . S
H298 C323 0.950 . S
H299 C325 0.950 . S
H300 C326 0.950 . S
H301 C328 0.950 . S
H302 C331 0.950 . S
H303 C332 0.950 . S
H304 C334 0.951 . S
H305 C335 0.949 1_565 S
C306 C307 1.376 . S
C306 C311 1.386 . S
C306 C312 1.483 . S
C307 H288 0.949 . S
C307 C306 1.376 . S
C307 C308 1.397 . S
C308 H289 0.950 . S
C308 C307 1.397 . S
C308 C309 1.391 . S
C309 C308 1.391 . S
C309 C310 1.405 . S
C310 H290 0.950 . S
C310 C309 1.405 . S
C310 C311 1.367 . S
C311 H291 0.950 . S
C311 C306 1.386 . S
C311 C310 1.367 . S
C312 C306 1.483 . S
C312 C313 1.382 . S
C312 C314 1.403 . S
C313 H292 0.950 . S
C313 C312 1.382 . S
C313 C329 1.411 1_565 S
C314 C312 1.403 . S
C314 C315 1.489 . S
C314 C328 1.411 1_565 S
C315 C314 1.489 . S
C315 C316 1.383 . S
C315 C320 1.382 . S
C316 H293 0.950 . S
C316 C315 1.383 . S
C316 C317 1.395 . S
C317 H294 0.950 . S
C317 C316 1.395 . S
C317 C318 1.288 . S
C318 C317 1.288 . S
C318 C319 1.392 . S
C319 H295 0.951 . S
C319 C318 1.392 . S
C319 C320 1.392 . S
C320 H296 0.949 1_565 S
C320 C315 1.382 . S
C320 C319 1.392 . S
C321 C322 1.376 . S
C321 C326 1.386 . S
C321 C327 1.483 . S
C322 H297 0.949 . S
C322 C321 1.376 . S
C322 C323 1.397 . S
C323 H298 0.950 . S
C323 C322 1.397 . S
C323 C324 1.391 . S
C324 C323 1.391 . S
C324 C325 1.405 . S
C325 H299 0.950 . S
C325 C324 1.405 . S
C325 C326 1.367 . S
C326 H300 0.950 . S
C326 C321 1.386 . S
C326 C325 1.367 . S
C327 C321 1.483 . S
C327 C328 1.382 . S
C327 C329 1.403 . S
C328 H301 0.950 . S
C328 C314 1.411 1_545 S
C328 C327 1.382 . S
C329 C313 1.411 1_545 S
C329 C327 1.403 . S
C329 C330 1.489 . S
C330 C329 1.489 . S
C330 C331 1.383 . S
C330 C335 1.382 . S
C331 H302 0.950 . S
C331 C330 1.383 . S
C331 C332 1.395 . S
C332 H303 0.950 . S
C332 C331 1.395 . S
C332 C333 1.288 . S
C333 C332 1.288 . S
C333 C334 1.392 . S
C334 H304 0.951 . S
C334 C333 1.392 . S
C334 C335 1.392 . S
C335 H305 0.949 1_545 S
C335 C330 1.382 . S
C335 C334 1.392 . S
H336 C355 0.949 1_455 S
H337 C356 0.950 . S
H338 C358 0.950 . S
H339 C359 0.950 . S
H340 C361 0.950 . S
H341 C364 0.950 . S
H342 C365 0.950 . S
H343 C367 0.951 . S
H344 C368 0.949 . S
H345 C370 0.975 . S
H346 C371 0.950 . S
H347 C373 0.950 . S
H348 C374 0.950 . S
H349 C376 0.947 1_665 S
H350 C379 0.950 . S
H351 C380 0.950 . S
H352 C382 0.951 . S
H353 C383 0.949 . S
C354 C355 1.376 . S
C354 C359 1.386 . S
C354 C360 1.483 . S
C355 H336 0.949 1_655 S
C355 C354 1.376 . S
C355 C356 1.397 . S
C356 H337 0.950 . S
C356 C355 1.397 . S
C356 C357 1.391 . S
C357 C356 1.391 . S
C357 C358 1.405 . S
C358 H338 0.950 . S
C358 C357 1.405 . S
C358 C359 1.367 . S
C359 H339 0.950 . S
C359 C354 1.386 . S
C359 C358 1.367 . S
C360 C354 1.483 . S
C360 C361 1.382 1_655 S
C360 C362 1.403 . S
C361 H340 0.950 . S
C361 C360 1.382 1_455 S
C361 C377 1.411 1_545 S
C362 C360 1.403 . S
C362 C363 1.489 . S
C362 C376 1.395 1_655 S
C363 C362 1.489 . S
C363 C364 1.383 . S
C363 C368 1.382 . S
C364 H341 0.950 . S
C364 C363 1.383 . S
C364 C365 1.395 . S
C365 H342 0.950 . S
C365 C364 1.395 . S
C365 C366 1.288 . S
C366 C365 1.288 . S
C366 C367 1.392 . S
C367 H343 0.951 . S
C367 C366 1.392 . S
C367 C368 1.392 . S
C368 H344 0.949 . S
C368 C363 1.382 . S
C368 C367 1.392 . S
C369 C370 1.376 . S
C369 C374 1.386 . S
C369 C375 1.483 . S
C370 H345 0.975 . S
C370 C369 1.376 . S
C370 C371 1.397 . S
C371 H346 0.950 . S
C371 C370 1.397 . S
C371 C372 1.391 . S
C372 C371 1.391 . S
C372 C373 1.405 . S
C373 H347 0.950 . S
C373 C372 1.405 . S
C373 C374 1.367 . S
C374 H348 0.950 . S
C374 C369 1.386 . S
C374 C373 1.367 . S
C375 C369 1.483 . S
C375 C376 1.401 1_565 S
C375 C377 1.403 . S
C376 H349 0.947 1_445 S
C376 C362 1.395 1_455 S
C376 C375 1.401 1_545 S
C377 C361 1.411 1_565 S
C377 C375 1.403 . S
C377 C378 1.489 . S
C378 C377 1.489 . S
C378 C379 1.383 . S
C378 C383 1.382 . S
C379 H350 0.950 . S
C379 C378 1.383 . S
C379 C380 1.395 . S
C380 H351 0.950 . S
C380 C379 1.395 . S
C380 C381 1.288 . S
C381 C380 1.288 . S
C381 C382 1.392 . S
C382 H352 0.951 . S
C382 C381 1.392 . S
C382 C383 1.392 . S
C383 H353 0.949 . S
C383 C378 1.382 . S
C383 C382 1.392 . S
Mn384 O389 2.095 1_554 S
Mn384 O399 2.162 . S
Mn384 O400 2.297 . S
Mn384 O408 2.385 . S
Mn384 O409 2.209 . S
Mn384 O410 2.094 1_554 S
Mn385 O390 2.121 . S
Mn385 N392 2.257 1_556 S
Mn385 N401 2.282 1_556 S
Mn385 O409 2.215 1_556 S
Mn385 O411 2.117 . S
C386 O408 1.234 . S
C386 O409 1.283 . S
C387 O399 1.281 . S
C387 O400 1.236 . S
C388 O410 1.240 . S
C388 O411 1.264 . S
O389 Mn384 2.095 1_556 S
O389 C398 1.250 . S
O390 Mn385 2.121 . S
O390 C398 1.258 . S
C391 N392 1.326 1_556 S
C391 C395 1.460 1_556 S
C391 H397 0.929 . S
N392 Mn385 2.257 1_554 S
N392 C391 1.326 1_554 S
N392 C396 1.362 . S
C393 C394 1.258 . S
C393 C396 1.431 . S
C393 C413 1.449 . S
C394 C393 1.258 . S
C394 C395 1.477 . S
C394 H414 0.931 . S
C395 C391 1.460 1_554 S
C395 C394 1.477 . S
C395 H415 0.930 1_554 S
C396 N392 1.362 . S
C396 C393 1.431 . S
C396 C406 1.476 . S
H397 C391 0.929 . S
C398 O389 1.250 . S
C398 O390 1.258 . S
O399 Mn384 2.162 . S
O399 C387 1.281 . S
O400 Mn384 2.297 . S
O400 C387 1.236 . S
N401 Mn385 2.282 1_554 S
N401 C402 1.328 . S
N401 C406 1.318 . S
C402 N401 1.328 . S
C402 C403 1.457 . S
C402 H407 0.929 . S
C403 C402 1.457 . S
C403 C404 1.291 . S
C403 H416 0.931 . S
C404 C403 1.291 . S
C404 C405 1.373 . S
C404 H417 0.929 . S
C405 C404 1.373 . S
C405 C406 1.396 . S
C405 C412 1.403 . S
C406 C396 1.476 . S
C406 N401 1.318 . S
C406 C405 1.396 . S
H407 C402 0.929 . S
O408 Mn384 2.385 . S
O408 C386 1.234 . S
O409 Mn384 2.209 . S
O409 Mn385 2.215 1_554 S
O409 C386 1.283 . S
O410 Mn384 2.094 1_556 S
O410 C388 1.240 . S
O411 Mn385 2.117 . S
O411 C388 1.264 . S
C412 C405 1.403 . S
C412 C413 1.399 . S
C412 H418 0.929 . S
C413 C393 1.449 . S
C413 C412 1.399 . S
C413 H419 0.930 . S
H414 C394 0.931 . S
H415 C395 0.930 1_556 S
H416 C403 0.931 . S
H417 C404 0.929 . S
H418 C412 0.929 . S
H419 C413 0.930 . S
Mn420 O425 2.095 . S
Mn420 O435 2.162 . S
Mn420 O436 2.297 . S
Mn420 O444 2.385 . S
Mn420 O445 2.209 . S
Mn420 O446 2.094 . S
Mn421 O426 2.121 . S
Mn421 N428 2.257 . S
Mn421 N437 2.282 . S
Mn421 O445 2.215 . S
Mn421 O447 2.117 . S
C422 O444 1.234 . S
C422 O445 1.283 . S
C423 O435 1.281 . S
C423 O436 1.236 . S
C424 O446 1.240 . S
C424 O447 1.264 . S
O425 Mn420 2.095 . S
O425 C434 1.250 . S
O426 Mn421 2.121 . S
O426 C434 1.258 . S
C427 N428 1.326 . S
C427 C431 1.460 . S
C427 H433 0.929 . S
N428 Mn421 2.257 . S
N428 C427 1.326 . S
N428 C432 1.362 . S
C429 C430 1.258 . S
C429 C432 1.431 . S
C429 C449 1.449 . S
C430 C429 1.258 . S
C430 C431 1.477 . S
C430 H450 0.931 . S
C431 C427 1.460 . S
C431 C430 1.477 . S
C431 H451 0.930 . S
C432 N428 1.362 . S
C432 C429 1.431 . S
C432 C442 1.476 . S
H433 C427 0.929 . S
C434 O425 1.250 . S
C434 O426 1.258 . S
O435 Mn420 2.162 . S
O435 C423 1.281 . S
O436 Mn420 2.297 . S
O436 C423 1.236 . S
N437 Mn421 2.282 . S
N437 C438 1.328 . S
N437 C442 1.318 . S
C438 N437 1.328 . S
C438 C439 1.457 . S
C438 H443 0.929 . S
C439 C438 1.457 . S
C439 C440 1.291 . S
C439 H452 0.931 . S
C440 C439 1.291 . S
C440 C441 1.373 . S
C440 H453 0.929 . S
C441 C440 1.373 . S
C441 C442 1.396 . S
C441 C448 1.403 . S
C442 C432 1.476 . S
C442 N437 1.318 . S
C442 C441 1.396 . S
H443 C438 0.929 . S
O444 Mn420 2.385 . S
O444 C422 1.234 . S
O445 Mn420 2.209 . S
O445 Mn421 2.215 . S
O445 C422 1.283 . S
O446 Mn420 2.094 . S
O446 C424 1.240 . S
O447 Mn421 2.117 . S
O447 C424 1.264 . S
C448 C441 1.403 . S
C448 C449 1.399 . S
C448 H454 0.929 . S
C449 C429 1.449 . S
C449 C448 1.399 . S
C449 H455 0.930 . S
H450 C430 0.931 . S
H451 C431 0.930 . S
H452 C439 0.931 . S
H453 C440 0.929 . S
H454 C448 0.929 . S
H455 C449 0.930 . S
Mn456 O461 2.095 . S
Mn456 O471 2.162 . S
Mn456 O472 2.297 . S
Mn456 O480 2.385 . S
Mn456 O481 2.209 . S
Mn456 O482 2.094 . S
Mn457 O462 2.121 . S
Mn457 N464 2.257 . S
Mn457 N473 2.282 . S
Mn457 O481 2.215 . S
Mn457 O483 2.117 . S
C458 O480 1.234 . S
C458 O481 1.283 . S
C459 O471 1.281 . S
C459 O472 1.236 . S
C460 O482 1.240 . S
C460 O483 1.264 . S
O461 Mn456 2.095 . S
O461 C470 1.250 . S
O462 Mn457 2.121 . S
O462 C470 1.258 . S
C463 N464 1.326 . S
C463 C467 1.460 . S
C463 H469 0.929 . S
N464 Mn457 2.257 . S
N464 C463 1.326 . S
N464 C468 1.362 . S
C465 C466 1.258 . S
C465 C468 1.431 . S
C465 C485 1.449 . S
C466 C465 1.258 . S
C466 C467 1.477 . S
C466 H486 0.931 . S
C467 C463 1.460 . S
C467 C466 1.477 . S
C467 H487 0.930 . S
C468 N464 1.362 . S
C468 C465 1.431 . S
C468 C478 1.476 . S
H469 C463 0.929 . S
C470 O461 1.250 . S
C470 O462 1.258 . S
O471 Mn456 2.162 . S
O471 C459 1.281 . S
O472 Mn456 2.297 . S
O472 C459 1.236 . S
N473 Mn457 2.282 . S
N473 C474 1.328 . S
N473 C478 1.318 . S
C474 N473 1.328 . S
C474 C475 1.457 . S
C474 H479 0.929 . S
C475 C474 1.457 . S
C475 C476 1.291 . S
C475 H488 0.931 . S
C476 C475 1.291 . S
C476 C477 1.373 . S
C476 H489 0.929 . S
C477 C476 1.373 . S
C477 C478 1.396 . S
C477 C484 1.403 . S
C478 C468 1.476 . S
C478 N473 1.318 . S
C478 C477 1.396 . S
H479 C474 0.929 . S
O480 Mn456 2.385 . S
O480 C458 1.234 . S
O481 Mn456 2.209 . S
O481 Mn457 2.215 . S
O481 C458 1.283 . S
O482 Mn456 2.094 . S
O482 C460 1.240 . S
O483 Mn457 2.117 . S
O483 C460 1.264 . S
C484 C477 1.403 . S
C484 C485 1.399 . S
C484 H490 0.929 . S
C485 C465 1.449 . S
C485 C484 1.399 . S
C485 H491 0.930 . S
H486 C466 0.931 . S
H487 C467 0.930 . S
H488 C475 0.931 . S
H489 C476 0.929 . S
H490 C484 0.929 . S
H491 C485 0.930 . S
Mn492 O497 2.095 . S
Mn492 O507 2.162 . S
Mn492 O508 2.297 . S
Mn492 O516 2.385 . S
Mn492 O517 2.209 . S
Mn492 O518 2.094 . S
Mn493 O498 2.121 . S
Mn493 N500 2.257 . S
Mn493 N509 2.282 . S
Mn493 O517 2.215 . S
Mn493 O519 2.117 . S
C494 O516 1.234 . S
C494 O517 1.283 . S
C495 O507 1.281 . S
C495 O508 1.236 . S
C496 O518 1.240 . S
C496 O519 1.264 . S
O497 Mn492 2.095 . S
O497 C506 1.250 . S
O498 Mn493 2.121 . S
O498 C506 1.258 . S
C499 N500 1.326 . S
C499 C503 1.460 . S
C499 H505 0.929 . S
N500 Mn493 2.257 . S
N500 C499 1.326 . S
N500 C504 1.362 . S
C501 C502 1.258 . S
C501 C504 1.431 . S
C501 C521 1.449 . S
C502 C501 1.258 . S
C502 C503 1.477 . S
C502 H522 0.931 . S
C503 C499 1.460 . S
C503 C502 1.477 . S
C503 H523 0.930 . S
C504 N500 1.362 . S
C504 C501 1.431 . S
C504 C514 1.476 . S
H505 C499 0.929 . S
C506 O497 1.250 . S
C506 O498 1.258 . S
O507 Mn492 2.162 . S
O507 C495 1.281 . S
O508 Mn492 2.297 . S
O508 C495 1.236 . S
N509 Mn493 2.282 . S
N509 C510 1.328 . S
N509 C514 1.318 . S
C510 N509 1.328 . S
C510 C511 1.457 . S
C510 H515 0.929 . S
C511 C510 1.457 . S
C511 C512 1.291 . S
C511 H524 0.931 . S
C512 C511 1.291 . S
C512 C513 1.373 . S
C512 H525 0.929 . S
C513 C512 1.373 . S
C513 C514 1.396 . S
C513 C520 1.403 . S
C514 C504 1.476 . S
C514 N509 1.318 . S
C514 C513 1.396 . S
H515 C510 0.929 . S
O516 Mn492 2.385 . S
O516 C494 1.234 . S
O517 Mn492 2.209 . S
O517 Mn493 2.215 . S
O517 C494 1.283 . S
O518 Mn492 2.094 . S
O518 C496 1.240 . S
O519 Mn493 2.117 . S
O519 C496 1.264 . S
C520 C513 1.403 . S
C520 C521 1.399 . S
C520 H526 0.929 . S
C521 C501 1.449 . S
C521 C520 1.399 . S
C521 H527 0.930 . S
H522 C502 0.931 . S
H523 C503 0.930 . S
H524 C511 0.931 . S
H525 C512 0.929 . S
H526 C520 0.929 . S
H527 C521 0.930 . S
Mn528 O533 2.095 . S
Mn528 O543 2.162 . S
Mn528 O544 2.297 . S
Mn528 O552 2.385 . S
Mn528 O553 2.209 . S
Mn528 O554 2.094 . S
Mn529 O534 2.121 . S
Mn529 N536 2.257 . S
Mn529 N545 2.282 . S
Mn529 O553 2.215 . S
Mn529 O555 2.117 . S
C530 O552 1.234 . S
C530 O553 1.283 . S
C531 O543 1.281 . S
C531 O544 1.236 . S
C532 O554 1.240 . S
C532 O555 1.264 . S
O533 Mn528 2.095 . S
O533 C542 1.250 . S
O534 Mn529 2.121 . S
O534 C542 1.258 . S
C535 N536 1.326 . S
C535 C539 1.460 . S
C535 H541 0.929 . S
N536 Mn529 2.257 . S
N536 C535 1.326 . S
N536 C540 1.362 . S
C537 C538 1.258 . S
C537 C540 1.431 . S
C537 C557 1.449 . S
C538 C537 1.258 . S
C538 C539 1.477 . S
C538 H558 0.931 . S
C539 C535 1.460 . S
C539 C538 1.477 . S
C539 H559 0.930 . S
C540 N536 1.362 . S
C540 C537 1.431 . S
C540 C550 1.476 . S
H541 C535 0.929 . S
C542 O533 1.250 . S
C542 O534 1.258 . S
O543 Mn528 2.162 . S
O543 C531 1.281 . S
O544 Mn528 2.297 . S
O544 C531 1.236 . S
N545 Mn529 2.282 . S
N545 C546 1.328 . S
N545 C550 1.318 . S
C546 N545 1.328 . S
C546 C547 1.457 . S
C546 H551 0.929 . S
C547 C546 1.457 . S
C547 C548 1.291 . S
C547 H560 0.931 . S
C548 C547 1.291 . S
C548 C549 1.373 . S
C548 H561 0.929 . S
C549 C548 1.373 . S
C549 C550 1.396 . S
C549 C556 1.403 . S
C550 C540 1.476 . S
C550 N545 1.318 . S
C550 C549 1.396 . S
H551 C546 0.929 . S
O552 Mn528 2.385 . S
O552 C530 1.234 . S
O553 Mn528 2.209 . S
O553 Mn529 2.215 . S
O553 C530 1.283 . S
O554 Mn528 2.094 . S
O554 C532 1.240 . S
O555 Mn529 2.117 . S
O555 C532 1.264 . S
C556 C549 1.403 . S
C556 C557 1.399 . S
C556 H562 0.929 . S
C557 C537 1.449 . S
C557 C556 1.399 . S
C557 H563 0.930 . S
H558 C538 0.931 . S
H559 C539 0.930 . S
H560 C547 0.931 . S
H561 C548 0.929 . S
H562 C556 0.929 . S
H563 C557 0.930 . S
Mn564 O569 2.095 . S
Mn564 O579 2.162 . S
Mn564 O580 2.297 . S
Mn564 O588 2.385 . S
Mn564 O589 2.209 . S
Mn564 O590 2.094 . S
Mn565 O570 2.121 . S
Mn565 N572 2.257 . S
Mn565 N581 2.282 . S
Mn565 O589 2.215 . S
Mn565 O591 2.117 . S
C566 O588 1.234 . S
C566 O589 1.283 . S
C567 O579 1.281 . S
C567 O580 1.236 . S
C568 O590 1.240 . S
C568 O591 1.264 . S
O569 Mn564 2.095 . S
O569 C578 1.250 . S
O570 Mn565 2.121 . S
O570 C578 1.258 . S
C571 N572 1.326 . S
C571 C575 1.460 . S
C571 H577 0.929 . S
N572 Mn565 2.257 . S
N572 C571 1.326 . S
N572 C576 1.362 . S
C573 C574 1.258 . S
C573 C576 1.431 . S
C573 C593 1.449 . S
C574 C573 1.258 . S
C574 C575 1.477 . S
C574 H594 0.931 . S
C575 C571 1.460 . S
C575 C574 1.477 . S
C575 H595 0.930 . S
C576 N572 1.362 . S
C576 C573 1.431 . S
C576 C586 1.476 . S
H577 C571 0.929 . S
C578 O569 1.250 . S
C578 O570 1.258 . S
O579 Mn564 2.162 . S
O579 C567 1.281 . S
O580 Mn564 2.297 . S
O580 C567 1.236 . S
N581 Mn565 2.282 . S
N581 C582 1.328 . S
N581 C586 1.318 . S
C582 N581 1.328 . S
C582 C583 1.457 . S
C582 H587 0.929 . S
C583 C582 1.457 . S
C583 C584 1.291 . S
C583 H596 0.931 . S
C584 C583 1.291 . S
C584 C585 1.373 . S
C584 H597 0.929 . S
C585 C584 1.373 . S
C585 C586 1.396 . S
C585 C592 1.403 . S
C586 C576 1.476 . S
C586 N581 1.318 . S
C586 C585 1.396 . S
H587 C582 0.929 . S
O588 Mn564 2.385 . S
O588 C566 1.234 . S
O589 Mn564 2.209 . S
O589 Mn565 2.215 . S
O589 C566 1.283 . S
O590 Mn564 2.094 . S
O590 C568 1.240 . S
O591 Mn565 2.117 . S
O591 C568 1.264 . S
C592 C585 1.403 . S
C592 C593 1.399 . S
C592 H598 0.929 . S
C593 C573 1.449 . S
C593 C592 1.399 . S
C593 H599 0.930 . S
H594 C574 0.931 . S
H595 C575 0.930 . S
H596 C583 0.931 . S
H597 C584 0.929 . S
H598 C592 0.929 . S
H599 C593 0.930 . S
Mn600 O605 2.095 . S
Mn600 O615 2.162 . S
Mn600 O616 2.297 1_554 S
Mn600 O624 2.385 1_554 S
Mn600 O625 2.209 1_554 S
Mn600 O626 2.094 . S
Mn601 O606 2.121 . S
Mn601 N608 2.257 1_554 S
Mn601 N617 2.282 1_554 S
Mn601 O625 2.215 1_554 S
Mn601 O627 2.117 . S
C602 O624 1.234 . S
C602 O625 1.283 . S
C603 O615 1.279 1_556 S
C603 O616 1.236 . S
C604 O626 1.240 . S
C604 O627 1.264 . S
O605 Mn600 2.095 . S
O605 C614 1.250 . S
O606 Mn601 2.121 . S
O606 C614 1.258 . S
C607 N608 1.326 1_554 S
C607 C611 1.475 . S
C607 H613 0.929 . S
N608 Mn601 2.257 1_556 S
N608 C607 1.326 1_556 S
N608 C612 1.362 . S
C609 C610 1.258 . S
C609 C612 1.431 . S
C609 C629 1.449 . S
C610 C609 1.258 . S
C610 C611 1.439 1_556 S
C610 H630 0.931 . S
C611 C607 1.475 . S
C611 C610 1.439 1_554 S
C611 H631 0.955 . S
C612 N608 1.362 . S
C612 C609 1.431 . S
C612 C622 1.476 . S
H613 C607 0.929 . S
C614 O605 1.250 . S
C614 O606 1.258 . S
O615 Mn600 2.162 . S
O615 C603 1.279 1_554 S
O616 Mn600 2.297 1_556 S
O616 C603 1.236 . S
N617 Mn601 2.282 1_556 S
N617 C618 1.328 . S
N617 C622 1.318 . S
C618 N617 1.328 . S
C618 C619 1.457 . S
C618 H623 0.929 . S
C619 C618 1.457 . S
C619 C620 1.291 . S
C619 H632 0.931 . S
C620 C619 1.291 . S
C620 C621 1.373 . S
C620 H633 0.929 . S
C621 C620 1.373 . S
C621 C622 1.396 . S
C621 C628 1.403 . S
C622 C612 1.476 . S
C622 N617 1.318 . S
C622 C621 1.396 . S
H623 C618 0.929 . S
O624 Mn600 2.385 1_556 S
O624 C602 1.234 . S
O625 Mn600 2.209 1_556 S
O625 Mn601 2.215 1_556 S
O625 C602 1.283 . S
O626 Mn600 2.094 . S
O626 C604 1.240 . S
O627 Mn601 2.117 . S
O627 C604 1.264 . S
C628 C621 1.403 . S
C628 C629 1.399 . S
C628 H634 0.929 . S
C629 C609 1.449 . S
C629 C628 1.399 . S
C629 H635 0.930 . S
H630 C610 0.931 . S
H631 C611 0.955 . S
H632 C619 0.931 . S
H633 C620 0.929 . S
H634 C628 0.929 . S
H635 C629 0.930 . S
Mn636 O641 2.095 . S
Mn636 O651 2.162 . S
Mn636 O652 2.297 . S
Mn636 O660 2.385 . S
Mn636 O661 2.209 . S
Mn636 O662 2.094 . S
Mn637 O642 2.121 . S
Mn637 N644 2.257 . S
Mn637 N653 2.282 . S
Mn637 O661 2.215 . S
Mn637 O663 2.117 . S
C638 O660 1.234 . S
C638 O661 1.283 . S
C639 O651 1.281 . S
C639 O652 1.236 . S
C640 O662 1.240 . S
C640 O663 1.264 . S
O641 Mn636 2.095 . S
O641 C650 1.250 . S
O642 Mn637 2.121 . S
O642 C650 1.258 . S
C643 N644 1.326 . S
C643 C647 1.460 . S
C643 H649 0.929 . S
N644 Mn637 2.257 . S
N644 C643 1.326 . S
N644 C648 1.362 . S
C645 C646 1.258 . S
C645 C648 1.431 . S
C645 C665 1.449 . S
C646 C645 1.258 . S
C646 C647 1.477 . S
C646 H666 0.931 . S
C647 C643 1.460 . S
C647 C646 1.477 . S
C647 H667 0.930 . S
C648 N644 1.362 . S
C648 C645 1.431 . S
C648 C658 1.476 . S
H649 C643 0.929 . S
C650 O641 1.250 . S
C650 O642 1.258 . S
O651 Mn636 2.162 . S
O651 C639 1.281 . S
O652 Mn636 2.297 . S
O652 C639 1.236 . S
N653 Mn637 2.282 . S
N653 C654 1.328 . S
N653 C658 1.318 . S
C654 N653 1.328 . S
C654 C655 1.457 . S
C654 H659 0.929 . S
C655 C654 1.457 . S
C655 C656 1.291 . S
C655 H668 0.931 . S
C656 C655 1.291 . S
C656 C657 1.373 . S
C656 H669 0.929 . S
C657 C656 1.373 . S
C657 C658 1.396 . S
C657 C664 1.403 . S
C658 C648 1.476 . S
C658 N653 1.318 . S
C658 C657 1.396 . S
H659 C654 0.929 . S
O660 Mn636 2.385 . S
O660 C638 1.234 . S
O661 Mn636 2.209 . S
O661 Mn637 2.215 . S
O661 C638 1.283 . S
O662 Mn636 2.094 . S
O662 C640 1.240 . S
O663 Mn637 2.117 . S
O663 C640 1.264 . S
C664 C657 1.403 . S
C664 C665 1.399 . S
C664 H670 0.929 . S
C665 C645 1.449 . S
C665 C664 1.399 . S
C665 H671 0.930 . S
H666 C646 0.931 . S
H667 C647 0.930 . S
H668 C655 0.931 . S
H669 C656 0.929 . S
H670 C664 0.929 . S
H671 C665 0.930 . S
H672 C680 0.950 . S
H673 C685 0.950 . S
H674 C682 0.950 . S
H675 C684 0.950 . S
H676 C686 0.950 . S
H677 C688 0.950 . S
H678 C690 0.950 . S
H679 C691 0.950 . S
C680 H672 0.950 . S
C680 C681 1.386 . S
C680 C682 1.391 . S
C681 C680 1.386 . S
C681 C685 1.393 . S
C682 H674 0.950 . S
C682 C680 1.391 . S
C682 C683 1.400 . S
C683 C682 1.400 . S
C683 C684 1.398 . S
C683 C689 1.491 . S
C684 H675 0.950 . S
C684 C683 1.398 . S
C684 C685 1.391 . S
C685 H673 0.950 . S
C685 C681 1.393 . S
C685 C684 1.391 . S
C686 H676 0.950 . S
C686 C687 1.386 . S
C686 C688 1.391 . S
C687 C686 1.386 . S
C687 C691 1.393 . S
C688 H677 0.950 . S
C688 C686 1.391 . S
C688 C689 1.400 . S
C689 C683 1.491 . S
C689 C688 1.400 . S
C689 C690 1.398 . S
C690 H678 0.950 . S
C690 C689 1.398 . S
C690 C691 1.391 . S
C691 H679 0.950 . S
C691 C687 1.393 . S
C691 C690 1.391 . S
H692 C700 0.950 . S
H693 C705 0.950 . S
H694 C702 0.950 . S
H695 C704 0.950 . S
H696 C706 0.950 . S
H697 C708 0.950 . S
H698 C710 0.950 . S
H699 C711 0.950 . S
C700 H692 0.950 . S
C700 C701 1.386 . S
C700 C702 1.391 . S
C701 C700 1.386 . S
C701 C705 1.393 . S
C702 H694 0.950 . S
C702 C700 1.391 . S
C702 C703 1.400 . S
C703 C702 1.400 . S
C703 C704 1.398 . S
C703 C709 1.491 . S
C704 H695 0.950 . S
C704 C703 1.398 . S
C704 C705 1.391 . S
C705 H693 0.950 . S
C705 C701 1.393 . S
C705 C704 1.391 . S
C706 H696 0.950 . S
C706 C707 1.386 . S
C706 C708 1.391 . S
C707 C706 1.386 . S
C707 C711 1.393 . S
C708 H697 0.950 . S
C708 C706 1.391 . S
C708 C709 1.400 . S
C709 C703 1.491 . S
C709 C708 1.400 . S
C709 C710 1.398 . S
C710 H698 0.950 . S
C710 C709 1.398 . S
C710 C711 1.391 . S
C711 H699 0.950 . S
C711 C707 1.393 . S
C711 C710 1.391 . S
H712 C720 0.950 . S
H713 C725 0.950 . S
H714 C722 0.950 . S
H715 C724 0.950 . S
H716 C726 0.950 . S
H717 C728 0.950 . S
H718 C730 0.950 . S
H719 C731 0.950 . S
C720 H712 0.950 . S
C720 C721 1.386 . S
C720 C722 1.391 . S
C721 C720 1.386 . S
C721 C725 1.393 . S
C722 H714 0.950 . S
C722 C720 1.391 . S
C722 C723 1.400 . S
C723 C722 1.400 . S
C723 C724 1.398 . S
C723 C729 1.491 . S
C724 H715 0.950 . S
C724 C723 1.398 . S
C724 C725 1.391 . S
C725 H713 0.950 . S
C725 C721 1.393 . S
C725 C724 1.391 . S
C726 H716 0.950 . S
C726 C727 1.386 . S
C726 C728 1.391 . S
C727 C726 1.386 . S
C727 C731 1.393 . S
C728 H717 0.950 . S
C728 C726 1.391 . S
C728 C729 1.400 . S
C729 C723 1.491 . S
C729 C728 1.400 . S
C729 C730 1.398 . S
C730 H718 0.950 . S
C730 C729 1.398 . S
C730 C731 1.391 . S
C731 H719 0.950 . S
C731 C727 1.393 . S
C731 C730 1.391 . S
H732 C740 0.950 . S
H733 C745 0.950 . S
H734 C742 0.950 . S
H735 C744 0.950 . S
H736 C746 0.950 . S
H737 C748 0.950 . S
H738 C750 0.950 . S
H739 C751 0.950 1_556 S
C740 H732 0.950 . S
C740 C741 1.386 . S
C740 C742 1.391 . S
C741 C740 1.386 . S
C741 C745 1.393 . S
C742 H734 0.950 . S
C742 C740 1.391 . S
C742 C743 1.400 . S
C743 C742 1.400 . S
C743 C744 1.398 . S
C743 C749 1.491 . S
C744 H735 0.950 . S
C744 C743 1.398 . S
C744 C745 1.391 . S
C745 H733 0.950 . S
C745 C741 1.393 . S
C745 C744 1.391 . S
C746 H736 0.950 . S
C746 C747 1.386 . S
C746 C748 1.391 . S
C747 C746 1.386 . S
C747 C751 1.393 . S
C748 H737 0.950 . S
C748 C746 1.391 . S
C748 C749 1.400 . S
C749 C743 1.491 . S
C749 C748 1.400 . S
C749 C750 1.398 . S
C750 H738 0.950 . S
C750 C749 1.398 . S
C750 C751 1.391 . S
C751 H739 0.950 1_554 S
C751 C747 1.393 . S
C751 C750 1.391 . S
H752 C760 0.950 . S
H753 C765 0.950 . S
H754 C762 0.950 . S
H755 C764 0.950 . S
H756 C766 0.950 . S
H757 C768 0.950 . S
H758 C770 0.950 . S
H759 C771 0.950 . S
C760 H752 0.950 . S
C760 C761 1.386 . S
C760 C762 1.391 . S
C761 C760 1.386 . S
C761 C765 1.393 . S
C762 H754 0.950 . S
C762 C760 1.391 . S
C762 C763 1.400 . S
C763 C762 1.400 . S
C763 C764 1.398 . S
C763 C769 1.491 . S
C764 H755 0.950 . S
C764 C763 1.398 . S
C764 C765 1.391 . S
C765 H753 0.950 . S
C765 C761 1.393 . S
C765 C764 1.391 . S
C766 H756 0.950 . S
C766 C767 1.386 . S
C766 C768 1.391 . S
C767 C766 1.386 . S
C767 C771 1.393 . S
C768 H757 0.950 . S
C768 C766 1.391 . S
C768 C769 1.400 . S
C769 C763 1.491 . S
C769 C768 1.400 . S
C769 C770 1.398 . S
C770 H758 0.950 . S
C770 C769 1.398 . S
C770 C771 1.391 . S
C771 H759 0.950 . S
C771 C767 1.393 . S
C771 C770 1.391 . S
H772 C780 0.950 . S
H773 C785 0.950 . S
H774 C782 0.950 . S
H775 C784 0.950 . S
H776 C786 0.950 . S
H777 C788 0.950 . S
H778 C790 0.950 . S
H779 C791 0.950 . S
C780 H772 0.950 . S
C780 C781 1.386 . S
C780 C782 1.391 . S
C781 C780 1.386 . S
C781 C785 1.393 . S
C782 H774 0.950 . S
C782 C780 1.391 . S
C782 C783 1.400 . S
C783 C782 1.400 . S
C783 C784 1.398 . S
C783 C789 1.491 . S
C784 H775 0.950 . S
C784 C783 1.398 . S
C784 C785 1.391 . S
C785 H773 0.950 . S
C785 C781 1.393 . S
C785 C784 1.391 . S
C786 H776 0.950 . S
C786 C787 1.386 . S
C786 C788 1.391 . S
C787 C786 1.386 . S
C787 C791 1.393 . S
C788 H777 0.950 . S
C788 C786 1.391 . S
C788 C789 1.400 . S
C789 C783 1.491 . S
C789 C788 1.400 . S
C789 C790 1.398 . S
C790 H778 0.950 . S
C790 C789 1.398 . S
C790 C791 1.391 . S
C791 H779 0.950 . S
C791 C787 1.393 . S
C791 C790 1.391 . S
H792 C800 0.950 . S
H793 C805 0.950 . S
H794 C802 0.950 . S
H795 C804 0.950 . S
H796 C806 0.950 . S
H797 C808 0.950 . S
H798 C810 0.950 . S
H799 C811 0.950 . S
C800 H792 0.950 . S
C800 C801 1.386 . S
C800 C802 1.391 . S
C801 C800 1.386 . S
C801 C805 1.393 . S
C802 H794 0.950 . S
C802 C800 1.391 . S
C802 C803 1.400 . S
C803 C802 1.400 . S
C803 C804 1.398 . S
C803 C809 1.491 . S
C804 H795 0.950 . S
C804 C803 1.398 . S
C804 C805 1.391 . S
C805 H793 0.950 . S
C805 C801 1.393 . S
C805 C804 1.391 . S
C806 H796 0.950 . S
C806 C807 1.386 . S
C806 C808 1.391 . S
C807 C806 1.386 . S
C807 C811 1.393 . S
C808 H797 0.950 . S
C808 C806 1.391 . S
C808 C809 1.400 . S
C809 C803 1.491 . S
C809 C808 1.400 . S
C809 C810 1.398 . S
C810 H798 0.950 . S
C810 C809 1.398 . S
C810 C811 1.391 . S
C811 H799 0.950 . S
C811 C807 1.393 . S
C811 C810 1.391 . S
H812 C820 0.950 . S
H813 C825 0.950 . S
H814 C822 0.950 . S
H815 C824 0.950 . S
H816 C826 0.950 . S
H817 C828 0.950 . S
H818 C830 0.950 . S
H819 C831 0.950 . S
C820 H812 0.950 . S
C820 C821 1.386 . S
C820 C822 1.391 . S
C821 C820 1.386 . S
C821 C825 1.393 . S
C822 H814 0.950 . S
C822 C820 1.391 . S
C822 C823 1.400 . S
C823 C822 1.400 . S
C823 C824 1.398 . S
C823 C829 1.491 . S
C824 H815 0.950 . S
C824 C823 1.398 . S
C824 C825 1.391 . S
C825 H813 0.950 . S
C825 C821 1.393 . S
C825 C824 1.391 . S
C826 H816 0.950 . S
C826 C827 1.386 . S
C826 C828 1.391 . S
C827 C826 1.386 . S
C827 C831 1.393 . S
C828 H817 0.950 . S
C828 C826 1.391 . S
C828 C829 1.400 . S
C829 C823 1.491 . S
C829 C828 1.400 . S
C829 C830 1.398 . S
C830 H818 0.950 . S
C830 C829 1.398 . S
C830 C831 1.391 . S
C831 H819 0.950 . S
C831 C827 1.393 . S
C831 C830 1.391 . S
H832 C840 0.950 . S
H833 C845 0.950 . S
H834 C842 0.950 . S
H835 C844 0.950 . S
H836 C846 0.950 . S
H837 C848 0.950 . S
H838 C850 0.950 . S
H839 C851 0.950 . S
C840 H832 0.950 . S
C840 C841 1.386 . S
C840 C842 1.391 . S
C841 C840 1.386 . S
C841 C845 1.393 . S
C842 H834 0.950 . S
C842 C840 1.391 . S
C842 C843 1.400 . S
C843 C842 1.400 . S
C843 C844 1.398 . S
C843 C849 1.491 . S
C844 H835 0.950 . S
C844 C843 1.398 . S
C844 C845 1.391 . S
C845 H833 0.950 . S
C845 C841 1.393 . S
C845 C844 1.391 . S
C846 H836 0.950 . S
C846 C847 1.386 . S
C846 C848 1.391 . S
C847 C846 1.386 . S
C847 C851 1.393 . S
C848 H837 0.950 . S
C848 C846 1.391 . S
C848 C849 1.400 . S
C849 C843 1.491 . S
C849 C848 1.400 . S
C849 C850 1.398 . S
C850 H838 0.950 . S
C850 C849 1.398 . S
C850 C851 1.391 . S
C851 H839 0.950 . S
C851 C847 1.393 . S
C851 C850 1.391 . S
H852 C860 0.950 . S
H853 C865 0.950 . S
H854 C862 0.950 . S
H855 C864 0.950 . S
H856 C866 0.950 . S
H857 C868 0.950 . S
H858 C870 0.950 . S
H859 C871 0.950 1_556 S
C860 H852 0.950 . S
C860 C861 1.386 . S
C860 C862 1.391 . S
C861 C860 1.386 . S
C861 C865 1.393 . S
C862 H854 0.950 . S
C862 C860 1.391 . S
C862 C863 1.400 . S
C863 C862 1.400 . S
C863 C864 1.398 . S
C863 C869 1.491 . S
C864 H855 0.950 . S
C864 C863 1.398 . S
C864 C865 1.391 . S
C865 H853 0.950 . S
C865 C861 1.393 . S
C865 C864 1.391 . S
C866 H856 0.950 . S
C866 C867 1.386 . S
C866 C868 1.391 . S
C867 C866 1.386 . S
C867 C871 1.393 . S
C868 H857 0.950 . S
C868 C866 1.391 . S
C868 C869 1.400 . S
C869 C863 1.491 . S
C869 C868 1.400 . S
C869 C870 1.398 . S
C870 H858 0.950 . S
C870 C869 1.398 . S
C870 C871 1.391 . S
C871 H859 0.950 1_554 S
C871 C867 1.393 . S
C871 C870 1.391 . S
H872 C880 0.950 . S
H873 C885 0.950 . S
H874 C882 0.950 . S
H875 C884 0.950 . S
H876 C886 0.950 . S
H877 C888 0.950 . S
H878 C890 0.950 . S
H879 C891 0.950 . S
C880 H872 0.950 . S
C880 C881 1.386 . S
C880 C882 1.391 . S
C881 C880 1.386 . S
C881 C885 1.393 . S
C882 H874 0.950 . S
C882 C880 1.391 . S
C882 C883 1.400 . S
C883 C882 1.400 . S
C883 C884 1.398 . S
C883 C889 1.491 . S
C884 H875 0.950 . S
C884 C883 1.398 . S
C884 C885 1.391 . S
C885 H873 0.950 . S
C885 C881 1.393 . S
C885 C884 1.391 . S
C886 H876 0.950 . S
C886 C887 1.386 . S
C886 C888 1.391 . S
C887 C886 1.386 . S
C887 C891 1.393 . S
C888 H877 0.950 . S
C888 C886 1.391 . S
C888 C889 1.400 . S
C889 C883 1.491 . S
C889 C888 1.400 . S
C889 C890 1.398 . S
C890 H878 0.950 . S
C890 C889 1.398 . S
C890 C891 1.391 . S
C891 H879 0.950 . S
C891 C887 1.393 . S
C891 C890 1.391 . S
H892 C900 0.950 . S
H893 C905 0.950 . S
H894 C902 0.950 . S
H895 C904 0.950 . S
H896 C906 0.950 . S
H897 C908 0.950 . S
H898 C910 0.950 . S
H899 C911 0.950 . S
C900 H892 0.950 . S
C900 C901 1.386 . S
C900 C902 1.391 . S
C901 C900 1.386 . S
C901 C905 1.393 . S
C902 H894 0.950 . S
C902 C900 1.391 . S
C902 C903 1.400 . S
C903 C902 1.400 . S
C903 C904 1.398 . S
C903 C909 1.491 . S
C904 H895 0.950 . S
C904 C903 1.398 . S
C904 C905 1.391 . S
C905 H893 0.950 . S
C905 C901 1.393 . S
C905 C904 1.391 . S
C906 H896 0.950 . S
C906 C907 1.386 . S
C906 C908 1.391 . S
C907 C906 1.386 . S
C907 C911 1.393 . S
C908 H897 0.950 . S
C908 C906 1.391 . S
C908 C909 1.400 . S
C909 C903 1.491 . S
C909 C908 1.400 . S
C909 C910 1.398 . S
C910 H898 0.950 . S
C910 C909 1.398 . S
C910 C911 1.391 . S
C911 H899 0.950 . S
C911 C907 1.393 . S
C911 C910 1.391 . S
H912 C920 0.950 . S
H913 C925 0.950 . S
H914 C922 0.950 . S
H915 C924 0.950 . S
H916 C926 0.950 . S
H917 C928 0.950 . S
H918 C930 0.950 . S
H919 C931 0.950 . S
C920 H912 0.950 . S
C920 C921 1.386 . S
C920 C922 1.391 . S
C921 C920 1.386 . S
C921 C925 1.393 . S
C922 H914 0.950 . S
C922 C920 1.391 . S
C922 C923 1.400 . S
C923 C922 1.400 . S
C923 C924 1.398 . S
C923 C929 1.491 . S
C924 H915 0.950 . S
C924 C923 1.398 . S
C924 C925 1.391 . S
C925 H913 0.950 . S
C925 C921 1.393 . S
C925 C924 1.391 . S
C926 H916 0.950 . S
C926 C927 1.386 . S
C926 C928 1.391 . S
C927 C926 1.386 . S
C927 C931 1.393 . S
C928 H917 0.950 . S
C928 C926 1.391 . S
C928 C929 1.400 . S
C929 C923 1.491 . S
C929 C928 1.400 . S
C929 C930 1.398 . S
C930 H918 0.950 . S
C930 C929 1.398 . S
C930 C931 1.391 . S
C931 H919 0.950 . S
C931 C927 1.393 . S
C931 C930 1.391 . S
H932 C940 0.950 . S
H933 C945 0.950 . S
H934 C942 0.950 . S
H935 C944 0.950 . S
H936 C946 0.950 . S
H937 C948 0.950 . S
H938 C950 0.950 . S
H939 C951 0.950 . S
C940 H932 0.950 . S
C940 C941 1.386 . S
C940 C942 1.391 . S
C941 C940 1.386 . S
C941 C945 1.393 . S
C942 H934 0.950 . S
C942 C940 1.391 . S
C942 C943 1.400 . S
C943 C942 1.400 . S
C943 C944 1.398 . S
C943 C949 1.491 . S
C944 H935 0.950 . S
C944 C943 1.398 . S
C944 C945 1.391 . S
C945 H933 0.950 . S
C945 C941 1.393 . S
C945 C944 1.391 . S
C946 H936 0.950 . S
C946 C947 1.386 . S
C946 C948 1.391 . S
C947 C946 1.386 . S
C947 C951 1.393 . S
C948 H937 0.950 . S
C948 C946 1.391 . S
C948 C949 1.400 . S
C949 C943 1.491 . S
C949 C948 1.400 . S
C949 C950 1.398 . S
C950 H938 0.950 . S
C950 C949 1.398 . S
C950 C951 1.391 . S
C951 H939 0.950 . S
C951 C947 1.393 . S
C951 C950 1.391 . S
H952 C960 0.950 . S
H953 C965 0.950 . S
H954 C962 0.950 1_554 S
H955 C964 0.950 . S
H956 C966 0.950 . S
H957 C968 0.950 . S
H958 C970 0.949 1_554 S
H959 C971 0.950 . S
C960 H952 0.950 . S
C960 C961 1.386 . S
C960 C962 1.391 . S
C961 C960 1.386 . S
C961 C965 1.393 . S
C962 H954 0.950 1_556 S
C962 C960 1.391 . S
C962 C963 1.400 . S
C963 C962 1.400 . S
C963 C964 1.398 . S
C963 C969 1.491 . S
C964 H955 0.950 . S
C964 C963 1.398 . S
C964 C965 1.391 . S
C965 H953 0.950 . S
C965 C961 1.393 . S
C965 C964 1.391 . S
C966 H956 0.950 . S
C966 C967 1.386 . S
C966 C968 1.391 . S
C967 C966 1.386 . S
C967 C971 1.393 1_556 S
C968 H957 0.950 . S
C968 C966 1.391 . S
C968 C969 1.400 . S
C969 C963 1.491 . S
C969 C968 1.400 . S
C969 C970 1.400 . S
C970 H958 0.949 1_556 S
C970 C969 1.400 . S
C970 C971 1.390 1_556 S
C971 H959 0.950 . S
C971 C967 1.393 1_554 S
C971 C970 1.390 1_554 S
H972 C980 0.950 . S
H973 C985 0.950 . S
H974 C982 0.950 . S
H975 C984 0.950 . S
H976 C986 0.950 . S
H977 C988 0.950 . S
H978 C990 0.950 . S
H979 C991 0.950 . S
C980 H972 0.950 . S
C980 C981 1.386 . S
C980 C982 1.391 . S
C981 C980 1.386 . S
C981 C985 1.393 . S
C982 H974 0.950 . S
C982 C980 1.391 . S
C982 C983 1.400 . S
C983 C982 1.400 . S
C983 C984 1.398 . S
C983 C989 1.491 . S
C984 H975 0.950 . S
C984 C983 1.398 . S
C984 C985 1.391 . S
C985 H973 0.950 . S
C985 C981 1.393 . S
C985 C984 1.391 . S
C986 H976 0.950 . S
C986 C987 1.386 . S
C986 C988 1.391 . S
C987 C986 1.386 . S
C987 C991 1.393 . S
C988 H977 0.950 . S
C988 C986 1.391 . S
C988 C989 1.400 . S
C989 C983 1.491 . S
C989 C988 1.400 . S
C989 C990 1.398 . S
C990 H978 0.950 . S
C990 C989 1.398 . S
C990 C991 1.391 . S
C991 H979 0.950 . S
C991 C987 1.393 . S
C991 C990 1.391 . S
H992 C1000 0.950 . S
H993 C1005 0.950 . S
H994 C1002 0.950 . S
H995 C1004 0.950 . S
H996 C1006 0.950 . S
H997 C1008 0.950 . S
H998 C1010 0.950 . S
H999 C1011 0.950 . S
C1000 H992 0.950 . S
C1000 C1001 1.386 . S
C1000 C1002 1.391 . S
C1001 C1000 1.386 . S
C1001 C1005 1.393 . S
C1002 H994 0.950 . S
C1002 C1000 1.391 . S
C1002 C1003 1.400 . S
C1003 C1002 1.400 . S
C1003 C1004 1.398 . S
C1003 C1009 1.491 . S
C1004 H995 0.950 . S
C1004 C1003 1.398 . S
C1004 C1005 1.391 . S
C1005 H993 0.950 . S
C1005 C1001 1.393 . S
C1005 C1004 1.391 . S
C1006 H996 0.950 . S
C1006 C1007 1.386 . S
C1006 C1008 1.391 . S
C1007 C1006 1.386 . S
C1007 C1011 1.393 . S
C1008 H997 0.950 . S
C1008 C1006 1.391 . S
C1008 C1009 1.400 . S
C1009 C1003 1.491 . S
C1009 C1008 1.400 . S
C1009 C1010 1.398 . S
C1010 H998 0.950 . S
C1010 C1009 1.398 . S
C1010 C1011 1.391 . S
C1011 H999 0.950 . S
C1011 C1007 1.393 . S
C1011 C1010 1.391 . S
H1012 C1020 0.950 . S
H1013 C1025 0.950 . S
H1014 C1022 0.950 . S
H1015 C1024 0.950 . S
H1016 C1026 0.950 . S
H1017 C1028 0.950 . S
H1018 C1030 0.950 . S
H1019 C1031 0.950 . S
C1020 H1012 0.950 . S
C1020 C1021 1.386 . S
C1020 C1022 1.391 . S
C1021 C1020 1.386 . S
C1021 C1025 1.393 . S
C1022 H1014 0.950 . S
C1022 C1020 1.391 . S
C1022 C1023 1.400 . S
C1023 C1022 1.400 . S
C1023 C1024 1.398 . S
C1023 C1029 1.491 . S
C1024 H1015 0.950 . S
C1024 C1023 1.398 . S
C1024 C1025 1.391 . S
C1025 H1013 0.950 . S
C1025 C1021 1.393 . S
C1025 C1024 1.391 . S
C1026 H1016 0.950 . S
C1026 C1027 1.386 . S
C1026 C1028 1.391 . S
C1027 C1026 1.386 . S
C1027 C1031 1.393 . S
C1028 H1017 0.950 . S
C1028 C1026 1.391 . S
C1028 C1029 1.400 . S
C1029 C1023 1.491 . S
C1029 C1028 1.400 . S
C1029 C1030 1.398 . S
C1030 H1018 0.950 . S
C1030 C1029 1.398 . S
C1030 C1031 1.391 . S
C1031 H1019 0.950 . S
C1031 C1027 1.393 . S
C1031 C1030 1.391 . S
H1032 C1040 0.950 . S
H1033 C1045 0.950 . S
H1034 C1042 0.950 . S
H1035 C1044 0.950 . S
H1036 C1046 0.950 . S
H1037 C1048 0.950 . S
H1038 C1050 0.950 . S
H1039 C1051 0.950 . S
C1040 H1032 0.950 . S
C1040 C1041 1.386 . S
C1040 C1042 1.391 . S
C1041 C1040 1.386 . S
C1041 C1045 1.393 . S
C1042 H1034 0.950 . S
C1042 C1040 1.391 . S
C1042 C1043 1.400 . S
C1043 C1042 1.400 . S
C1043 C1044 1.398 . S
C1043 C1049 1.491 . S
C1044 H1035 0.950 . S
C1044 C1043 1.398 . S
C1044 C1045 1.391 . S
C1045 H1033 0.950 . S
C1045 C1041 1.393 . S
C1045 C1044 1.391 . S
C1046 H1036 0.950 . S
C1046 C1047 1.386 . S
C1046 C1048 1.391 . S
C1047 C1046 1.386 . S
C1047 C1051 1.393 . S
C1048 H1037 0.950 . S
C1048 C1046 1.391 . S
C1048 C1049 1.400 . S
C1049 C1043 1.491 . S
C1049 C1048 1.400 . S
C1049 C1050 1.398 . S
C1050 H1038 0.950 . S
C1050 C1049 1.398 . S
C1050 C1051 1.391 . S
C1051 H1039 0.950 . S
C1051 C1047 1.393 . S
C1051 C1050 1.391 . S
H1052 C1060 0.950 . S
H1053 C1065 0.950 . S
H1054 C1062 0.950 . S
H1055 C1064 0.950 . S
H1056 C1066 0.950 . S
H1057 C1068 0.950 . S
H1058 C1070 0.950 . S
H1059 C1071 0.950 . S
C1060 H1052 0.950 . S
C1060 C1061 1.386 . S
C1060 C1062 1.391 . S
C1061 C1060 1.386 . S
C1061 C1065 1.393 . S
C1062 H1054 0.950 . S
C1062 C1060 1.391 . S
C1062 C1063 1.400 . S
C1063 C1062 1.400 . S
C1063 C1064 1.398 . S
C1063 C1069 1.491 . S
C1064 H1055 0.950 . S
C1064 C1063 1.398 . S
C1064 C1065 1.391 . S
C1065 H1053 0.950 . S
C1065 C1061 1.393 . S
C1065 C1064 1.391 . S
C1066 H1056 0.950 . S
C1066 C1067 1.386 . S
C1066 C1068 1.391 . S
C1067 C1066 1.386 . S
C1067 C1071 1.393 . S
C1068 H1057 0.950 . S
C1068 C1066 1.391 . S
C1068 C1069 1.400 . S
C1069 C1063 1.491 . S
C1069 C1068 1.400 . S
C1069 C1070 1.398 . S
C1070 H1058 0.950 . S
C1070 C1069 1.398 . S
C1070 C1071 1.391 . S
C1071 H1059 0.950 . S
C1071 C1067 1.393 . S
C1071 C1070 1.391 . S
H1072 C1080 0.950 . S
H1073 C1085 0.950 . S
H1074 C1082 0.950 . S
H1075 C1084 0.950 . S
H1076 C1086 0.950 . S
H1077 C1088 0.950 . S
H1078 C1090 0.950 . S
H1079 C1091 0.950 . S
C1080 H1072 0.950 . S
C1080 C1081 1.386 . S
C1080 C1082 1.391 . S
C1081 C1080 1.386 . S
C1081 C1085 1.393 . S
C1082 H1074 0.950 . S
C1082 C1080 1.391 . S
C1082 C1083 1.400 . S
C1083 C1082 1.400 . S
C1083 C1084 1.398 . S
C1083 C1089 1.491 . S
C1084 H1075 0.950 . S
C1084 C1083 1.398 . S
C1084 C1085 1.391 . S
C1085 H1073 0.950 . S
C1085 C1081 1.393 . S
C1085 C1084 1.391 . S
C1086 H1076 0.950 . S
C1086 C1087 1.386 . S
C1086 C1088 1.391 . S
C1087 C1086 1.386 . S
C1087 C1091 1.393 . S
C1088 H1077 0.950 . S
C1088 C1086 1.391 . S
C1088 C1089 1.400 . S
C1089 C1083 1.491 . S
C1089 C1088 1.400 . S
C1089 C1090 1.398 . S
C1090 H1078 0.950 . S
C1090 C1089 1.398 . S
C1090 C1091 1.391 . S
C1091 H1079 0.950 . S
C1091 C1087 1.393 . S
C1091 C1090 1.391 . S
H1092 C1100 0.950 . S
H1093 C1105 0.950 . S
H1094 C1102 0.950 . S
H1095 C1104 0.950 . S
H1096 C1106 0.950 . S
H1097 C1108 0.950 . S
H1098 C1110 0.950 . S
H1099 C1111 0.950 . S
C1100 H1092 0.950 . S
C1100 C1101 1.386 . S
C1100 C1102 1.391 . S
C1101 C1100 1.386 . S
C1101 C1105 1.393 . S
C1102 H1094 0.950 . S
C1102 C1100 1.391 . S
C1102 C1103 1.400 . S
C1103 C1102 1.400 . S
C1103 C1104 1.398 . S
C1103 C1109 1.491 . S
C1104 H1095 0.950 . S
C1104 C1103 1.398 . S
C1104 C1105 1.391 . S
C1105 H1093 0.950 . S
C1105 C1101 1.393 . S
C1105 C1104 1.391 . S
C1106 H1096 0.950 . S
C1106 C1107 1.386 . S
C1106 C1108 1.391 . S
C1107 C1106 1.386 . S
C1107 C1111 1.393 . S
C1108 H1097 0.950 . S
C1108 C1106 1.391 . S
C1108 C1109 1.400 . S
C1109 C1103 1.491 . S
C1109 C1108 1.400 . S
C1109 C1110 1.398 . S
C1110 H1098 0.950 . S
C1110 C1109 1.398 . S
C1110 C1111 1.391 . S
C1111 H1099 0.950 . S
C1111 C1107 1.393 . S
C1111 C1110 1.391 . S
H1112 C1120 0.950 . S
H1113 C1125 0.950 . S
H1114 C1122 0.950 . S
H1115 C1124 0.950 . S
H1116 C1126 0.950 . S
H1117 C1128 0.950 . S
H1118 C1130 0.950 . S
H1119 C1131 0.950 . S
C1120 H1112 0.950 . S
C1120 C1121 1.386 . S
C1120 C1122 1.391 . S
C1121 C1120 1.386 . S
C1121 C1125 1.393 . S
C1122 H1114 0.950 . S
C1122 C1120 1.391 . S
C1122 C1123 1.400 . S
C1123 C1122 1.400 . S
C1123 C1124 1.398 . S
C1123 C1129 1.491 . S
C1124 H1115 0.950 . S
C1124 C1123 1.398 . S
C1124 C1125 1.391 . S
C1125 H1113 0.950 . S
C1125 C1121 1.393 . S
C1125 C1124 1.391 . S
C1126 H1116 0.950 . S
C1126 C1127 1.386 . S
C1126 C1128 1.391 . S
C1127 C1126 1.386 . S
C1127 C1131 1.393 . S
C1128 H1117 0.950 . S
C1128 C1126 1.391 . S
C1128 C1129 1.400 . S
C1129 C1123 1.491 . S
C1129 C1128 1.400 . S
C1129 C1130 1.398 . S
C1130 H1118 0.950 . S
C1130 C1129 1.398 . S
C1130 C1131 1.391 . S
C1131 H1119 0.950 . S
C1131 C1127 1.393 . S
C1131 C1130 1.391 . S
H1132 C1140 0.950 . S
H1133 C1145 0.950 . S
H1134 C1142 0.950 . S
H1135 C1144 0.950 . S
H1136 C1146 0.950 . S
H1137 C1148 0.950 . S
H1138 C1150 0.950 . S
H1139 C1151 0.950 . S
C1140 H1132 0.950 . S
C1140 C1141 1.386 . S
C1140 C1142 1.391 . S
C1141 C1140 1.386 . S
C1141 C1145 1.393 . S
C1142 H1134 0.950 . S
C1142 C1140 1.391 . S
C1142 C1143 1.400 . S
C1143 C1142 1.400 . S
C1143 C1144 1.398 . S
C1143 C1149 1.491 . S
C1144 H1135 0.950 . S
C1144 C1143 1.398 . S
C1144 C1145 1.391 . S
C1145 H1133 0.950 . S
C1145 C1141 1.393 . S
C1145 C1144 1.391 . S
C1146 H1136 0.950 . S
C1146 C1147 1.386 . S
C1146 C1148 1.391 . S
C1147 C1146 1.386 . S
C1147 C1151 1.393 . S
C1148 H1137 0.950 . S
C1148 C1146 1.391 . S
C1148 C1149 1.400 . S
C1149 C1143 1.491 . S
C1149 C1148 1.400 . S
C1149 C1150 1.398 . S
C1150 H1138 0.950 . S
C1150 C1149 1.398 . S
C1150 C1151 1.391 . S
C1151 H1139 0.950 . S
C1151 C1147 1.393 . S
C1151 C1150 1.391 . S
H1152 C1160 0.950 . S
H1153 C1165 0.950 . S
H1154 C1162 0.950 . S
H1155 C1164 0.950 . S
H1156 C1166 0.950 . S
H1157 C1168 0.950 . S
H1158 C1170 0.950 . S
H1159 C1171 0.950 . S
C1160 H1152 0.950 . S
C1160 C1161 1.386 . S
C1160 C1162 1.391 . S
C1161 C1160 1.386 . S
C1161 C1165 1.393 . S
C1162 H1154 0.950 . S
C1162 C1160 1.391 . S
C1162 C1163 1.400 . S
C1163 C1162 1.400 . S
C1163 C1164 1.398 . S
C1163 C1169 1.491 . S
C1164 H1155 0.950 . S
C1164 C1163 1.398 . S
C1164 C1165 1.391 . S
C1165 H1153 0.950 . S
C1165 C1161 1.393 . S
C1165 C1164 1.391 . S
C1166 H1156 0.950 . S
C1166 C1167 1.386 . S
C1166 C1168 1.391 . S
C1167 C1166 1.386 . S
C1167 C1171 1.393 . S
C1168 H1157 0.950 . S
C1168 C1166 1.391 . S
C1168 C1169 1.400 . S
C1169 C1163 1.491 . S
C1169 C1168 1.400 . S
C1169 C1170 1.398 . S
C1170 H1158 0.950 . S
C1170 C1169 1.398 . S
C1170 C1171 1.391 . S
C1171 H1159 0.950 . S
C1171 C1167 1.393 . S
C1171 C1170 1.391 . S
H1172 C1180 0.950 . S
H1173 C1185 0.950 . S
H1174 C1182 0.950 . S
H1175 C1184 0.950 . S
H1176 C1186 0.950 . S
H1177 C1188 0.950 . S
H1178 C1190 0.950 . S
H1179 C1191 0.950 . S
C1180 H1172 0.950 . S
C1180 C1181 1.386 . S
C1180 C1182 1.391 . S
C1181 C1180 1.386 . S
C1181 C1185 1.393 . S
C1182 H1174 0.950 . S
C1182 C1180 1.391 . S
C1182 C1183 1.400 . S
C1183 C1182 1.400 . S
C1183 C1184 1.398 . S
C1183 C1189 1.491 . S
C1184 H1175 0.950 . S
C1184 C1183 1.398 . S
C1184 C1185 1.391 . S
C1185 H1173 0.950 . S
C1185 C1181 1.393 . S
C1185 C1184 1.391 . S
C1186 H1176 0.950 . S
C1186 C1187 1.386 . S
C1186 C1188 1.391 . S
C1187 C1186 1.386 . S
C1187 C1191 1.393 . S
C1188 H1177 0.950 . S
C1188 C1186 1.391 . S
C1188 C1189 1.400 . S
C1189 C1183 1.491 . S
C1189 C1188 1.400 . S
C1189 C1190 1.398 . S
C1190 H1178 0.950 . S
C1190 C1189 1.398 . S
C1190 C1191 1.391 . S
C1191 H1179 0.950 . S
C1191 C1187 1.393 . S
C1191 C1190 1.391 . S
H1192 C1200 0.950 . S
H1193 C1205 0.950 . S
H1194 C1202 0.950 . S
H1195 C1204 0.950 . S
H1196 C1206 0.950 . S
H1197 C1208 0.950 . S
H1198 C1210 0.950 . S
H1199 C1211 0.950 . S
C1200 H1192 0.950 . S
C1200 C1201 1.386 . S
C1200 C1202 1.391 . S
C1201 C1200 1.386 . S
C1201 C1205 1.393 . S
C1202 H1194 0.950 . S
C1202 C1200 1.391 . S
C1202 C1203 1.400 . S
C1203 C1202 1.400 . S
C1203 C1204 1.398 . S
C1203 C1209 1.491 . S
C1204 H1195 0.950 . S
C1204 C1203 1.398 . S
C1204 C1205 1.391 . S
C1205 H1193 0.950 . S
C1205 C1201 1.393 . S
C1205 C1204 1.391 . S
C1206 H1196 0.950 . S
C1206 C1207 1.386 . S
C1206 C1208 1.391 . S
C1207 C1206 1.386 . S
C1207 C1211 1.393 . S
C1208 H1197 0.950 . S
C1208 C1206 1.391 . S
C1208 C1209 1.400 . S
C1209 C1203 1.491 . S
C1209 C1208 1.400 . S
C1209 C1210 1.398 . S
C1210 H1198 0.950 . S
C1210 C1209 1.398 . S
C1210 C1211 1.391 . S
C1211 H1199 0.950 . S
C1211 C1207 1.393 . S
C1211 C1210 1.391 . S
H1212 C1220 0.950 . S
H1213 C1225 0.950 . S
H1214 C1222 0.950 . S
H1215 C1224 0.950 . S
H1216 C1226 0.950 . S
H1217 C1228 0.950 . S
H1218 C1230 0.950 . S
H1219 C1231 0.950 . S
C1220 H1212 0.950 . S
C1220 C1221 1.386 . S
C1220 C1222 1.391 . S
C1221 C1220 1.386 . S
C1221 C1225 1.393 . S
C1222 H1214 0.950 . S
C1222 C1220 1.391 . S
C1222 C1223 1.400 . S
C1223 C1222 1.400 . S
C1223 C1224 1.398 . S
C1223 C1229 1.491 . S
C1224 H1215 0.950 . S
C1224 C1223 1.398 . S
C1224 C1225 1.391 . S
C1225 H1213 0.950 . S
C1225 C1221 1.393 . S
C1225 C1224 1.391 . S
C1226 H1216 0.950 . S
C1226 C1227 1.386 . S
C1226 C1228 1.391 . S
C1227 C1226 1.386 . S
C1227 C1231 1.393 . S
C1228 H1217 0.950 . S
C1228 C1226 1.391 . S
C1228 C1229 1.400 . S
C1229 C1223 1.491 . S
C1229 C1228 1.400 . S
C1229 C1230 1.398 . S
C1230 H1218 0.950 . S
C1230 C1229 1.398 . S
C1230 C1231 1.391 . S
C1231 H1219 0.950 . S
C1231 C1227 1.393 . S
C1231 C1230 1.391 . S
H1232 C1240 0.950 . S
H1233 C1245 0.950 . S
H1234 C1242 0.950 . S
H1235 C1244 0.950 . S
H1236 C1246 0.950 . S
H1237 C1248 0.950 . S
H1238 C1250 0.950 . S
H1239 C1251 0.950 . S
C1240 H1232 0.950 . S
C1240 C1241 1.386 . S
C1240 C1242 1.391 . S
C1241 C1240 1.386 . S
C1241 C1245 1.393 . S
C1242 H1234 0.950 . S
C1242 C1240 1.391 . S
C1242 C1243 1.400 . S
C1243 C1242 1.400 . S
C1243 C1244 1.398 . S
C1243 C1249 1.491 . S
C1244 H1235 0.950 . S
C1244 C1243 1.398 . S
C1244 C1245 1.391 . S
C1245 H1233 0.950 . S
C1245 C1241 1.393 . S
C1245 C1244 1.391 . S
C1246 H1236 0.950 . S
C1246 C1247 1.386 . S
C1246 C1248 1.391 . S
C1247 C1246 1.386 . S
C1247 C1251 1.393 . S
C1248 H1237 0.950 . S
C1248 C1246 1.391 . S
C1248 C1249 1.400 . S
C1249 C1243 1.491 . S
C1249 C1248 1.400 . S
C1249 C1250 1.398 . S
C1250 H1238 0.950 . S
C1250 C1249 1.398 . S
C1250 C1251 1.391 . S
C1251 H1239 0.950 . S
C1251 C1247 1.393 . S
C1251 C1250 1.391 . S
H1252 C1260 0.950 . S
H1253 C1265 0.950 . S
H1254 C1262 0.950 . S
H1255 C1264 0.950 . S
H1256 C1266 0.950 . S
H1257 C1268 0.950 . S
H1258 C1270 0.950 . S
H1259 C1271 0.950 . S
C1260 H1252 0.950 . S
C1260 C1261 1.386 . S
C1260 C1262 1.391 . S
C1261 C1260 1.386 . S
C1261 C1265 1.393 . S
C1262 H1254 0.950 . S
C1262 C1260 1.391 . S
C1262 C1263 1.400 . S
C1263 C1262 1.400 . S
C1263 C1264 1.398 . S
C1263 C1269 1.491 . S
C1264 H1255 0.950 . S
C1264 C1263 1.398 . S
C1264 C1265 1.391 . S
C1265 H1253 0.950 . S
C1265 C1261 1.393 . S
C1265 C1264 1.391 . S
C1266 H1256 0.950 . S
C1266 C1267 1.386 . S
C1266 C1268 1.391 . S
C1267 C1266 1.386 . S
C1267 C1271 1.393 . S
C1268 H1257 0.950 . S
C1268 C1266 1.391 . S
C1268 C1269 1.400 . S
C1269 C1263 1.491 . S
C1269 C1268 1.400 . S
C1269 C1270 1.398 . S
C1270 H1258 0.950 . S
C1270 C1269 1.398 . S
C1270 C1271 1.391 . S
C1271 H1259 0.950 . S
C1271 C1267 1.393 . S
C1271 C1270 1.391 . S
H1272 C1280 0.950 . S
H1273 C1285 0.950 . S
H1274 C1282 0.950 . S
H1275 C1284 0.950 . S
H1276 C1286 0.950 . S
H1277 C1288 0.950 . S
H1278 C1290 0.950 . S
H1279 C1291 0.950 . S
C1280 H1272 0.950 . S
C1280 C1281 1.386 . S
C1280 C1282 1.391 . S
C1281 C1280 1.386 . S
C1281 C1285 1.393 . S
C1282 H1274 0.950 . S
C1282 C1280 1.391 . S
C1282 C1283 1.400 . S
C1283 C1282 1.400 . S
C1283 C1284 1.398 . S
C1283 C1289 1.491 . S
C1284 H1275 0.950 . S
C1284 C1283 1.398 . S
C1284 C1285 1.391 . S
C1285 H1273 0.950 . S
C1285 C1281 1.393 . S
C1285 C1284 1.391 . S
C1286 H1276 0.950 . S
C1286 C1287 1.386 . S
C1286 C1288 1.391 . S
C1287 C1286 1.386 . S
C1287 C1291 1.393 . S
C1288 H1277 0.950 . S
C1288 C1286 1.391 . S
C1288 C1289 1.400 . S
C1289 C1283 1.491 . S
C1289 C1288 1.400 . S
C1289 C1290 1.398 . S
C1290 H1278 0.950 . S
C1290 C1289 1.398 . S
C1290 C1291 1.391 . S
C1291 H1279 0.950 . S
C1291 C1287 1.393 . S
C1291 C1290 1.391 . S
H1292 C1300 0.950 . S
H1293 C1305 0.950 . S
H1294 C1302 0.950 . S
H1295 C1304 0.950 . S
H1296 C1306 0.950 . S
H1297 C1308 0.950 . S
H1298 C1310 0.950 . S
H1299 C1311 0.950 . S
C1300 H1292 0.950 . S
C1300 C1301 1.386 . S
C1300 C1302 1.391 . S
C1301 C1300 1.386 . S
C1301 C1305 1.393 . S
C1302 H1294 0.950 . S
C1302 C1300 1.391 . S
C1302 C1303 1.400 . S
C1303 C1302 1.400 . S
C1303 C1304 1.398 . S
C1303 C1309 1.491 . S
C1304 H1295 0.950 . S
C1304 C1303 1.398 . S
C1304 C1305 1.391 . S
C1305 H1293 0.950 . S
C1305 C1301 1.393 . S
C1305 C1304 1.391 . S
C1306 H1296 0.950 . S
C1306 C1307 1.386 . S
C1306 C1308 1.391 . S
C1307 C1306 1.386 . S
C1307 C1311 1.393 . S
C1308 H1297 0.950 . S
C1308 C1306 1.391 . S
C1308 C1309 1.400 . S
C1309 C1303 1.491 . S
C1309 C1308 1.400 . S
C1309 C1310 1.398 . S
C1310 H1298 0.950 . S
C1310 C1309 1.398 . S
C1310 C1311 1.391 . S
C1311 H1299 0.950 . S
C1311 C1307 1.393 . S
C1311 C1310 1.391 . S
C687 C423 1.348 . S
C681 C36 1.312 . S
C707 C460 1.316 . S
C701 C93 1.335 . S
C727 C496 1.350 . S
C721 C126 1.329 . S
C741 C165 1.328 . S
C747 C387 1.363 . S
C761 C222 1.324 . S
C767 C388 1.337 . S
C781 C261 1.324 . S
C787 C424 1.318 . S
C807 C459 1.348 . S
C801 C318 1.313 . S
C827 C495 1.357 . S
C821 C381 1.330 . S
C841 C132 1.300 . S
C847 C567 1.338 . S
C867 C604 1.331 . S
C861 C189 1.338 . S
C881 C30 1.326 . S
C887 C640 1.332 . S
C907 C531 1.356 . S
C901 C69 1.330 . S
C921 C324 1.314 . S
C927 C532 1.340 . S
C941 C357 1.322 . S
C947 C568 1.325 . S
C967 C603 1.347 . S
C961 C228 1.316 . S
C981 C285 1.332 . S
C987 C639 1.361 . S
C1007 C458 1.706 . S
C1001 C45 1.701 . S
C1027 C494 1.693 . S
C1021 C84 1.687 . S
C1041 C117 1.635 . S
C1047 C398 1.527 . S
C1061 C174 1.621 . S
C1067 C434 1.522 . S
C1081 C213 1.634 . S
C1087 C506 1.508 . S
C1107 C386 1.692 . S
C1101 C270 1.650 . S
C1127 C422 1.712 . S
C1121 C309 1.695 . S
C1147 C470 1.553 . S
C1141 C372 1.668 . S
C1167 C602 1.710 . S
C1161 C141 1.705 . S
C1187 C638 1.696 . S
C1181 C180 1.688 . S
C1201 C21 1.644 . S
C1207 C542 1.511 . S
C1227 C578 1.553 . S
C1221 C78 1.637 . S
C1247 C650 1.505 . S
C1241 C333 1.640 . S
C1261 C366 1.646 . S
C1267 C530 1.690 . S
C1287 C566 1.705 . S
C1281 C237 1.701 . S
C1307 C614 1.530 . S
C1301 C276 1.659 . S
