# Generated by pormake.
# Topology eea, (3,6)-cn, num edge types: 1
# Building blocks:
#     Node 0, Type 0, BuildingBlock: PAMTOO_clean_linker_0, # of connection points: 3
#     Node 1, Type 0, BuildingBlock: PAMTOO_clean_linker_0, # of connection points: 3
#     Node 2, Type 0, BuildingBlock: PAMTOO_clean_linker_0, # of connection points: 3
#     Node 3, Type 0, BuildingBlock: PAMTOO_clean_linker_0, # of connection points: 3
#     Node 4, Type 0, BuildingBlock: PAMTOO_clean_linker_0, # of connection points: 3
#     Node 5, Type 0, BuildingBlock: PAMTOO_clean_linker_0, # of connection points: 3
#     Node 6, Type 0, BuildingBlock: PAMTOO_clean_linker_0, # of connection points: 3
#     Node 7, Type 0, BuildingBlock: PAMTOO_clean_linker_0, # of connection points: 3
#     Node 8, Type 0, BuildingBlock: PAMTOO_clean_linker_0, # of connection points: 3
#     Node 9, Type 0, BuildingBlock: PAMTOO_clean_linker_0, # of connection points: 3
#     Node 10, Type 0, BuildingBlock: PAMTOO_clean_linker_0, # of connection points: 3
#     Node 11, Type 0, BuildingBlock: PAMTOO_clean_linker_0, # of connection points: 3
#     Node 12, Type 0, BuildingBlock: PAMTOO_clean_linker_0, # of connection points: 3
#     Node 13, Type 0, BuildingBlock: PAMTOO_clean_linker_0, # of connection points: 3
#     Node 14, Type 0, BuildingBlock: PAMTOO_clean_linker_0, # of connection points: 3
#     Node 15, Type 0, BuildingBlock: PAMTOO_clean_linker_0, # of connection points: 3
#     Node 16, Type 0, BuildingBlock: PAMTOO_clean_linker_0, # of connection points: 3
#     Node 17, Type 0, BuildingBlock: PAMTOO_clean_linker_0, # of connection points: 3
#     Node 18, Type 1, BuildingBlock: CIFDUS_clean_sbu_1, # of connection points: 6
#     Node 19, Type 1, BuildingBlock: CIFDUS_clean_sbu_1, # of connection points: 6
#     Node 20, Type 1, BuildingBlock: CIFDUS_clean_sbu_1, # of connection points: 6
#     Node 21, Type 1, BuildingBlock: CIFDUS_clean_sbu_1, # of connection points: 6
#     Node 22, Type 1, BuildingBlock: CIFDUS_clean_sbu_1, # of connection points: 6
#     Node 23, Type 1, BuildingBlock: CIFDUS_clean_sbu_1, # of connection points: 6
#     Node 24, Type 1, BuildingBlock: CIFDUS_clean_sbu_1, # of connection points: 6
#     Node 25, Type 1, BuildingBlock: CIFDUS_clean_sbu_1, # of connection points: 6
#     Node 26, Type 1, BuildingBlock: CIFDUS_clean_sbu_1, # of connection points: 6
#     Edge 27, Type (0, 1), BuildingBlock: UVAHIK_clean_linker_0, # of connection points: 2
#     Edge 28, Type (0, 1), BuildingBlock: UVAHIK_clean_linker_0, # of connection points: 2
#     Edge 29, Type (0, 1), BuildingBlock: UVAHIK_clean_linker_0, # of connection points: 2
#     Edge 30, Type (0, 1), BuildingBlock: UVAHIK_clean_linker_0, # of connection points: 2
#     Edge 31, Type (0, 1), BuildingBlock: UVAHIK_clean_linker_0, # of connection points: 2
#     Edge 32, Type (0, 1), BuildingBlock: UVAHIK_clean_linker_0, # of connection points: 2
#     Edge 33, Type (0, 1), BuildingBlock: UVAHIK_clean_linker_0, # of connection points: 2
#     Edge 34, Type (0, 1), BuildingBlock: UVAHIK_clean_linker_0, # of connection points: 2
#     Edge 35, Type (0, 1), BuildingBlock: UVAHIK_clean_linker_0, # of connection points: 2
#     Edge 36, Type (0, 1), BuildingBlock: UVAHIK_clean_linker_0, # of connection points: 2
#     Edge 37, Type (0, 1), BuildingBlock: UVAHIK_clean_linker_0, # of connection points: 2
#     Edge 38, Type (0, 1), BuildingBlock: UVAHIK_clean_linker_0, # of connection points: 2
#     Edge 39, Type (0, 1), BuildingBlock: UVAHIK_clean_linker_0, # of connection points: 2
#     Edge 40, Type (0, 1), BuildingBlock: UVAHIK_clean_linker_0, # of connection points: 2
#     Edge 41, Type (0, 1), BuildingBlock: UVAHIK_clean_linker_0, # of connection points: 2
#     Edge 42, Type (0, 1), BuildingBlock: UVAHIK_clean_linker_0, # of connection points: 2
#     Edge 43, Type (0, 1), BuildingBlock: UVAHIK_clean_linker_0, # of connection points: 2
#     Edge 44, Type (0, 1), BuildingBlock: UVAHIK_clean_linker_0, # of connection points: 2
#     Edge 45, Type (0, 1), BuildingBlock: UVAHIK_clean_linker_0, # of connection points: 2
#     Edge 46, Type (0, 1), BuildingBlock: UVAHIK_clean_linker_0, # of connection points: 2
#     Edge 47, Type (0, 1), BuildingBlock: UVAHIK_clean_linker_0, # of connection points: 2
#     Edge 48, Type (0, 1), BuildingBlock: UVAHIK_clean_linker_0, # of connection points: 2
#     Edge 49, Type (0, 1), BuildingBlock: UVAHIK_clean_linker_0, # of connection points: 2
#     Edge 50, Type (0, 1), BuildingBlock: UVAHIK_clean_linker_0, # of connection points: 2
#     Edge 51, Type (0, 1), BuildingBlock: UVAHIK_clean_linker_0, # of connection points: 2
#     Edge 52, Type (0, 1), BuildingBlock: UVAHIK_clean_linker_0, # of connection points: 2
#     Edge 53, Type (0, 1), BuildingBlock: UVAHIK_clean_linker_0, # of connection points: 2
#     Edge 54, Type (0, 1), BuildingBlock: UVAHIK_clean_linker_0, # of connection points: 2
#     Edge 55, Type (0, 1), BuildingBlock: UVAHIK_clean_linker_0, # of connection points: 2
#     Edge 56, Type (0, 1), BuildingBlock: UVAHIK_clean_linker_0, # of connection points: 2
#     Edge 57, Type (0, 1), BuildingBlock: UVAHIK_clean_linker_0, # of connection points: 2
#     Edge 58, Type (0, 1), BuildingBlock: UVAHIK_clean_linker_0, # of connection points: 2
#     Edge 59, Type (0, 1), BuildingBlock: UVAHIK_clean_linker_0, # of connection points: 2
#     Edge 60, Type (0, 1), BuildingBlock: UVAHIK_clean_linker_0, # of connection points: 2
#     Edge 61, Type (0, 1), BuildingBlock: UVAHIK_clean_linker_0, # of connection points: 2
#     Edge 62, Type (0, 1), BuildingBlock: UVAHIK_clean_linker_0, # of connection points: 2
#     Edge 63, Type (0, 1), BuildingBlock: UVAHIK_clean_linker_0, # of connection points: 2
#     Edge 64, Type (0, 1), BuildingBlock: UVAHIK_clean_linker_0, # of connection points: 2
#     Edge 65, Type (0, 1), BuildingBlock: UVAHIK_clean_linker_0, # of connection points: 2
#     Edge 66, Type (0, 1), BuildingBlock: UVAHIK_clean_linker_0, # of connection points: 2
#     Edge 67, Type (0, 1), BuildingBlock: UVAHIK_clean_linker_0, # of connection points: 2
#     Edge 68, Type (0, 1), BuildingBlock: UVAHIK_clean_linker_0, # of connection points: 2
#     Edge 69, Type (0, 1), BuildingBlock: UVAHIK_clean_linker_0, # of connection points: 2
#     Edge 70, Type (0, 1), BuildingBlock: UVAHIK_clean_linker_0, # of connection points: 2
#     Edge 71, Type (0, 1), BuildingBlock: UVAHIK_clean_linker_0, # of connection points: 2
#     Edge 72, Type (0, 1), BuildingBlock: UVAHIK_clean_linker_0, # of connection points: 2
#     Edge 73, Type (0, 1), BuildingBlock: UVAHIK_clean_linker_0, # of connection points: 2
#     Edge 74, Type (0, 1), BuildingBlock: UVAHIK_clean_linker_0, # of connection points: 2
#     Edge 75, Type (0, 1), BuildingBlock: UVAHIK_clean_linker_0, # of connection points: 2
#     Edge 76, Type (0, 1), BuildingBlock: UVAHIK_clean_linker_0, # of connection points: 2
#     Edge 77, Type (0, 1), BuildingBlock: UVAHIK_clean_linker_0, # of connection points: 2
#     Edge 78, Type (0, 1), BuildingBlock: UVAHIK_clean_linker_0, # of connection points: 2
#     Edge 79, Type (0, 1), BuildingBlock: UVAHIK_clean_linker_0, # of connection points: 2
#     Edge 80, Type (0, 1), BuildingBlock: UVAHIK_clean_linker_0, # of connection points: 2
# Relax obj value: 0.084
# Max RMSD: 0.116
# Mean RMSD: 0.102
data_MOF--net-eea--node1-CIFDUS_clean_sbu_1--node2-PAMTOO_clean_linker_0--edge1-UVAHIK_clean_linker_0
_symmetry_space_group_name_H-M    P1
_symmetry_Int_Tables_number       1
_symmetry_cell_setting            triclinic
loop_
_symmetry_equiv_pos_as_xyz
'x, y, z'
_cell_length_a     74.777632
_cell_length_b     73.404889
_cell_length_c     57.713565
_cell_angle_alpha  89.89843
_cell_angle_beta   89.780703
_cell_angle_gamma 120.13635
loop_
_atom_site_label
_atom_site_type_symbol
_atom_site_fract_x
_atom_site_fract_y
_atom_site_fract_z
_atom_type_partial_charge
H0 H 0.18527 0.05275 0.44755 0.0
H1 H 0.18143 0.1092 0.44505 0.0
H2 H 0.1461 0.05897 0.39729 0.0
H3 H 0.15518 0.10136 0.37547 0.0
C4 C 0.16452 0.10979 0.39088 0.0
O5 O 0.15567 0.09729 0.4103 0.0
H6 H 0.18041 0.11247 0.38787 0.0
C7 C 0.17884 0.0617 0.43989 0.0
C8 C 0.16468 0.05307 0.42158 0.0
C9 C 0.18487 0.0818 0.44849 0.0
C10 C 0.17682 0.09361 0.43856 0.0
C11 C 0.16307 0.08552 0.41993 0.0
C12 C 0.15693 0.06522 0.41151 0.0
H13 H 0.94535 0.14021 0.42046 0.0
H14 H 0.90033 0.07395 0.42184 0.0
H15 H 0.95303 0.09702 0.37675 0.0
H16 H 0.91756 0.05598 0.35642 0.0
C17 C 0.90749 0.05663 0.37022 0.0
O18 O 0.91877 0.06361 0.39043 0.0
H19 H 0.90255 0.06782 0.36401 0.0
C20 C 0.93987 0.12439 0.41412 0.0
C21 C 0.95154 0.12087 0.39738 0.0
C22 C 0.9215 0.10757 0.42331 0.0
C23 C 0.91464 0.08706 0.41532 0.0
C24 C 0.92597 0.08335 0.39855 0.0
C25 C 0.94451 0.10013 0.38987 0.0
H26 H 0.85057 0.77548 0.40283 0.0
H27 H 0.91031 0.78077 0.39545 0.0
H28 H 0.88755 0.80409 0.34171 0.0
H29 H 0.91552 0.79121 0.32095 0.0
C30 C 0.91991 0.78717 0.33776 0.0
O31 O 0.91844 0.79939 0.355 0.0
H32 H 0.90896 0.77011 0.34106 0.0
C33 C 0.86459 0.78041 0.39287 0.0
C34 C 0.86694 0.79002 0.37109 0.0
C35 C 0.88006 0.77695 0.4019 0.0
C36 C 0.89815 0.78323 0.38882 0.0
C37 C 0.90084 0.79314 0.36728 0.0
C38 C 0.88536 0.79667 0.35853 0.0
H39 H 0.09314 0.24963 0.6116 0.0
H40 H 0.14581 0.24335 0.62888 0.0
H41 H 0.09275 0.21657 0.67356 0.0
H42 H 0.13071 0.22659 0.70163 0.0
C43 C 0.14067 0.23284 0.68593 0.0
O44 O 0.12949 0.22176 0.66681 0.0
H45 H 0.14556 0.24987 0.68449 0.0
C46 C 0.10082 0.2442 0.62327 0.0
C47 C 0.09042 0.23281 0.64335 0.0
C48 C 0.12079 0.24809 0.61773 0.0
C49 C 0.13034 0.24037 0.63258 0.0
C50 C 0.12014 0.22901 0.65257 0.0
C51 C 0.10025 0.22515 0.65784 0.0
H52 H 0.82752 0.88512 0.57847 0.0
H53 H 0.8479 0.95141 0.57974 0.0
H54 H 0.87905 0.92721 0.62103 0.0
H55 H 0.8834 0.96828 0.64425 0.0
C56 C 0.87234 0.9674 0.63087 0.0
O57 O 0.8769 0.96101 0.61023 0.0
H58 H 0.8566 0.95566 0.63731 0.0
C59 C 0.83789 0.90083 0.58493 0.0
C60 C 0.85355 0.904 0.60061 0.0
C61 C 0.83598 0.91789 0.57694 0.0
C62 C 0.84946 0.93817 0.58536 0.0
C63 C 0.86474 0.94148 0.60144 0.0
C64 C 0.8671 0.92451 0.60866 0.0
H65 H 0.15162 0.96772 0.57827 0.0
H66 H 0.09608 0.90765 0.58702 0.0
H67 H 0.11068 0.95705 0.63594 0.0
H68 H 0.09123 0.91495 0.65812 0.0
C69 C 0.08392 0.90508 0.64256 0.0
O70 O 0.08404 0.91789 0.62489 0.0
H71 H 0.09311 0.8976 0.63747 0.0
C72 C 0.13735 0.95766 0.58758 0.0
C73 C 0.1327 0.96519 0.60778 0.0
C74 C 0.12438 0.93694 0.57992 0.0
C75 C 0.10637 0.92365 0.59267 0.0
C76 C 0.10147 0.9309 0.61281 0.0
C77 C 0.11461 0.95161 0.62035 0.0
H78 H 0.8474 0.38274 0.78175 0.0
H79 H 0.84759 0.44138 0.77772 0.0
H80 H 0.81166 0.39196 0.72948 0.0
H81 H 0.8271 0.43553 0.70777 0.0
C82 C 0.83316 0.44412 0.72434 0.0
O83 O 0.82259 0.43061 0.74253 0.0
H84 H 0.84994 0.44931 0.72501 0.0
C85 C 0.8418 0.39236 0.77393 0.0
C86 C 0.82836 0.38455 0.75491 0.0
C87 C 0.84897 0.41283 0.78226 0.0
C88 C 0.84237 0.42559 0.77145 0.0
C89 C 0.82894 0.4181 0.7525 0.0
C90 C 0.82201 0.39763 0.74416 0.0
H91 H 0.60918 0.4698 0.75271 0.0
H92 H 0.56726 0.40286 0.75662 0.0
H93 H 0.62084 0.4272 0.71275 0.0
H94 H 0.58688 0.38017 0.69618 0.0
C95 C 0.57713 0.38396 0.70747 0.0
O96 O 0.58788 0.39303 0.7276 0.0
H97 H 0.57418 0.39516 0.6974 0.0
C98 C 0.60466 0.45398 0.74712 0.0
C99 C 0.61728 0.45085 0.73132 0.0
C100 C 0.58669 0.4368 0.75655 0.0
C101 C 0.58116 0.41628 0.74976 0.0
C102 C 0.59344 0.41291 0.734 0.0
C103 C 0.61155 0.4301 0.72502 0.0
H104 H 0.51527 0.1071 0.72879 0.0
H105 H 0.57396 0.10957 0.7231 0.0
H106 H 0.55655 0.14032 0.6721 0.0
H107 H 0.58236 0.12575 0.64999 0.0
C108 C 0.5864 0.1204 0.66617 0.0
O109 O 0.58502 0.13152 0.68469 0.0
H110 H 0.57518 0.10323 0.66815 0.0
C111 C 0.52976 0.11218 0.71975 0.0
C112 C 0.53408 0.12417 0.69936 0.0
C113 C 0.54408 0.10697 0.72875 0.0
C114 C 0.56264 0.11336 0.71655 0.0
C115 C 0.56705 0.12529 0.69615 0.0
C116 C 0.55295 0.13098 0.6878 0.0
H117 H 0.75924 0.57723 0.94242 0.0
H118 H 0.81033 0.56855 0.9605 0.0
H119 H 0.75623 0.54198 0.00358 0.0
H120 H 0.79212 0.54914 0.03268 0.0
C121 C 0.80283 0.55623 0.01769 0.0
O122 O 0.79264 0.54616 0.99767 0.0
H123 H 0.80766 0.57329 0.01721 0.0
C124 C 0.76629 0.5711 0.95411 0.0
C125 C 0.75521 0.55939 0.97373 0.0
C126 C 0.78617 0.57453 0.94905 0.0
C127 C 0.79494 0.56594 0.96386 0.0
C128 C 0.78403 0.55418 0.98336 0.0
C129 C 0.76424 0.55082 0.98818 0.0
H130 H 0.49661 0.22235 0.90586 0.0
H131 H 0.51928 0.28895 0.91154 0.0
H132 H 0.54732 0.26065 0.95138 0.0
H133 H 0.55352 0.30305 0.97658 0.0
C134 C 0.54224 0.30176 0.96328 0.0
O135 O 0.5471 0.29579 0.94255 0.0
H136 H 0.52669 0.28956 0.96978 0.0
C137 C 0.50717 0.23754 0.91338 0.0
C138 C 0.52212 0.23922 0.92935 0.0
C139 C 0.50627 0.25546 0.90647 0.0
C140 C 0.52004 0.27507 0.91627 0.0
C141 C 0.53458 0.27688 0.93261 0.0
C142 C 0.53593 0.25908 0.93878 0.0
H143 H 0.81259 0.30129 0.90607 0.0
H144 H 0.7574 0.24191 0.91913 0.0
H145 H 0.77159 0.29506 0.96216 0.0
H146 H 0.74738 0.25531 0.98972 0.0
C147 C 0.74511 0.24485 0.97478 0.0
O148 O 0.74516 0.25503 0.95456 0.0
H149 H 0.7582 0.24168 0.97475 0.0
C150 C 0.7984 0.292 0.91579 0.0
C151 C 0.79375 0.30107 0.93465 0.0
C152 C 0.78546 0.27073 0.90999 0.0
C153 C 0.76761 0.25834 0.92336 0.0
C154 C 0.76262 0.26712 0.94207 0.0
C155 C 0.77563 0.28845 0.94766 0.0
H156 H 0.5151 0.71746 0.10995 0.0
H157 H 0.51119 0.77408 0.10804 0.0
H158 H 0.47918 0.72584 0.05743 0.0
H159 H 0.49448 0.7694 0.03673 0.0
C160 C 0.49939 0.77777 0.05358 0.0
O161 O 0.48832 0.7638 0.07123 0.0
H162 H 0.51625 0.78359 0.05534 0.0
C163 C 0.50893 0.72672 0.10254 0.0
C164 C 0.49592 0.71884 0.08318 0.0
C165 C 0.51467 0.74661 0.11185 0.0
C166 C 0.50731 0.75882 0.10117 0.0
C167 C 0.4948 0.75149 0.08146 0.0
C168 C 0.48905 0.73149 0.07251 0.0
H169 H 0.27477 0.80476 0.08651 0.0
H170 H 0.2324 0.73792 0.09084 0.0
H171 H 0.28517 0.7617 0.04578 0.0
H172 H 0.2507 0.71597 0.02881 0.0
C173 C 0.24093 0.71887 0.04109 0.0
O174 O 0.25216 0.72775 0.061 0.0
H175 H 0.23699 0.72985 0.03208 0.0
C176 C 0.27001 0.78888 0.08092 0.0
C177 C 0.28222 0.78554 0.06474 0.0
C178 C 0.25212 0.77183 0.09067 0.0
C179 C 0.24626 0.75124 0.08378 0.0
C180 C 0.25813 0.74768 0.06761 0.0
C181 C 0.27619 0.76473 0.05835 0.0
H182 H 0.1849 0.44239 0.06784 0.0
H183 H 0.24397 0.44613 0.05997 0.0
H184 H 0.22245 0.47153 0.00724 0.0
H185 H 0.24855 0.45739 0.98568 0.0
C186 C 0.25322 0.45306 0.00212 0.0
O187 O 0.25246 0.46526 0.01985 0.0
H188 H 0.24215 0.43602 0.00539 0.0
C189 C 0.19893 0.4472 0.05794 0.0
C190 C 0.20168 0.4574 0.03647 0.0
C191 C 0.21402 0.44302 0.06673 0.0
C192 C 0.23205 0.44909 0.0536 0.0
C193 C 0.23505 0.45944 0.0323 0.0
C194 C 0.22001 0.46376 0.02388 0.0
H195 H 0.42497 0.91087 0.27248 0.0
H196 H 0.47851 0.90634 0.29028 0.0
H197 H 0.42729 0.88311 0.33749 0.0
H198 H 0.46679 0.89573 0.36437 0.0
C199 C 0.47602 0.90052 0.34807 0.0
O200 O 0.4639 0.88796 0.33021 0.0
H201 H 0.48101 0.9174 0.3449 0.0
C202 C 0.43303 0.90618 0.28451 0.0
C203 C 0.42356 0.89659 0.30571 0.0
C204 C 0.45288 0.90986 0.2787 0.0
C205 C 0.46328 0.90382 0.29442 0.0
C206 C 0.45392 0.89407 0.31542 0.0
C207 C 0.43414 0.8904 0.321 0.0
H208 H 0.1608 0.55183 0.24568 0.0
H209 H 0.18024 0.61791 0.24669 0.0
H210 H 0.21364 0.595 0.28588 0.0
H211 H 0.21861 0.63659 0.30902 0.0
C212 C 0.20682 0.63509 0.29631 0.0
O213 O 0.21061 0.62836 0.27545 0.0
H214 H 0.19149 0.62328 0.30368 0.0
C215 C 0.1712 0.56767 0.25178 0.0
C216 C 0.18751 0.57128 0.26665 0.0
C217 C 0.16864 0.58442 0.24411 0.0
C218 C 0.18223 0.60488 0.25202 0.0
C219 C 0.19824 0.60865 0.26724 0.0
C220 C 0.20116 0.59195 0.27416 0.0
H221 H 0.48137 0.63491 0.23864 0.0
H222 H 0.4269 0.57467 0.25102 0.0
H223 H 0.44069 0.62655 0.29589 0.0
H224 H 0.41873 0.58715 0.32242 0.0
C225 C 0.4154 0.57649 0.30739 0.0
O226 O 0.41473 0.58664 0.28749 0.0
H227 H 0.42814 0.57281 0.30614 0.0
C228 C 0.46729 0.62516 0.2484 0.0
C229 C 0.46264 0.63354 0.2679 0.0
C230 C 0.4546 0.60396 0.24215 0.0
C231 C 0.4369 0.59106 0.25555 0.0
C232 C 0.43187 0.59924 0.27479 0.0
C233 C 0.44468 0.62043 0.28089 0.0
O234 O 0.4828 0.98433 0.00455 0.0
Mn235 Mn 0.51255 0.01138 0.00595 0.0
O236 O 0.46024 0.9938 0.0176 0.0
Mn237 Mn 0.48008 0.01909 0.03026 0.0
O238 O 0.54215 0.0385 0.00755 0.0
O239 O 0.52464 0.99233 0.00213 0.0
Mn240 Mn 0.54546 1.00393 0.98233 0.0
O241 O 0.51229 0.01533 0.96995 0.0
O242 O 0.56504 0.02943 0.99483 0.0
O243 O 0.51289 0.0072 0.04177 0.0
O244 O 0.49126 0.01654 0.05792 0.0
O245 O 0.54354 0.97893 0.99145 0.0
O246 O 0.5342 1.00593 0.95455 0.0
C247 C 0.49739 0.0463 0.00881 0.0
C248 C 0.46419 0.98024 0.0089 0.0
C249 C 0.56084 0.04284 0.00343 0.0
C250 C 0.52812 0.97678 0.0038 0.0
C251 C 0.52103 0.01204 0.95244 0.0
C252 C 0.50424 0.01015 0.05955 0.0
O253 O 0.50063 0.03056 0.01005 0.0
O254 O 0.48231 0.04434 0.02167 0.0
O255 O 0.02866 0.50195 0.01109 0.0
Mn256 Mn 0.00751 0.51241 0.01523 0.0
O257 O 0.01892 0.47516 0.0365 0.0
Mn258 Mn 0.99708 0.47636 0.05052 0.0
O259 O 0.98624 0.52272 0.01939 0.0
O260 O 0.02831 0.5405 0.00216 0.0
Mn261 Mn 0.01751 0.54841 0.98007 0.0
O262 O 0.9955 0.50086 0.98228 0.0
O263 O 0.99574 0.5496 0.99421 0.0
O264 O 0.01965 0.52397 0.04821 0.0
O265 O 0.00473 0.49674 0.07317 0.0
O266 O 0.04429 0.57042 0.98435 0.0
O267 O 0.00955 0.52809 0.95729 0.0
C268 C 0.97 0.46621 0.02939 0.0
C269 C 0.03079 0.4872 0.02039 0.0
C270 C 0.98386 0.53734 0.01015 0.0
C271 C 0.04489 0.55863 0.00066 0.0
C272 C 0.99836 0.50844 0.96158 0.0
C273 C 0.01631 0.51635 0.06892 0.0
O274 O 0.98659 0.48436 0.02826 0.0
O275 O 0.97032 0.45438 0.04582 0.0
O276 O 0.53733 0.51946 0.99769 0.0
Mn277 Mn 0.50552 0.50788 0.99559 0.0
O278 O 0.55244 0.54671 0.97255 0.0
Mn279 Mn 0.52842 0.54435 0.96017 0.0
O280 O 0.47371 0.49644 0.99332 0.0
O281 O 0.50036 0.47994 0.00778 0.0
Mn282 Mn 0.48192 0.47103 0.03033 0.0
O283 O 0.50547 0.51886 0.02917 0.0
O284 O 0.45808 0.46829 0.01713 0.0
O285 O 0.50552 0.49678 0.96205 0.0
O286 O 0.51606 0.52408 0.93743 0.0
O287 O 0.48885 0.45033 0.02617 0.0
O288 O 0.49325 0.49111 0.05343 0.0
C289 C 0.5109 0.55345 0.98202 0.0
C290 C 0.55344 0.53463 0.98785 0.0
C291 C 0.45738 0.4809 0.00236 0.0
C292 C 0.5007 0.4626 0.00986 0.0
C293 C 0.5011 0.5108 0.04969 0.0
C294 C 0.5089 0.50452 0.9414 0.0
O295 O 0.51072 0.5358 0.9834 0.0
O296 O 0.5222 0.56546 0.96524 0.0
O297 O 0.1527 0.31888 0.34123 0.0
Mn298 Mn 0.18227 0.34588 0.34343 0.0
O299 O 0.12968 0.32816 0.3529 0.0
Mn300 Mn 0.14907 0.35352 0.36586 0.0
O301 O 0.21186 0.37287 0.34563 0.0
O302 O 0.19424 0.32669 0.34025 0.0
Mn303 Mn 0.21543 0.3382 0.3209 0.0
O304 O 0.18284 0.34996 0.30743 0.0
O305 O 0.23484 0.36354 0.33391 0.0
O306 O 0.18172 0.34184 0.37946 0.0
O307 O 0.15953 0.35118 0.39409 0.0
O308 O 0.21292 0.31292 0.32999 0.0
O309 O 0.20501 0.34067 0.29269 0.0
C310 C 0.16701 0.38077 0.34474 0.0
C311 C 0.13397 0.31468 0.34471 0.0
C312 C 0.23057 0.37704 0.34213 0.0
C313 C 0.19741 0.31093 0.34203 0.0
C314 C 0.19198 0.3469 0.29019 0.0
C315 C 0.17259 0.34499 0.39667 0.0
O316 O 0.17027 0.36508 0.34654 0.0
O317 O 0.15145 0.37871 0.35674 0.0
O318 O 0.69324 0.83367 0.34375 0.0
Mn319 Mn 0.67405 0.84649 0.3471 0.0
O320 O 0.68294 0.80813 0.37092 0.0
Mn321 Mn 0.66277 0.8121 0.38537 0.0
O322 O 0.65482 0.85931 0.35036 0.0
O323 O 0.69527 0.87251 0.33085 0.0
Mn324 Mn 0.68455 0.87968 0.30796 0.0
O325 O 0.65953 0.8328 0.31585 0.0
O326 O 0.66452 0.88394 0.3222 0.0
O327 O 0.68829 0.85991 0.37883 0.0
O328 O 0.67306 0.83439 0.40596 0.0
O329 O 0.71237 0.90022 0.3096 0.0
O330 O 0.67396 0.85712 0.28758 0.0
C331 C 0.6353 0.80355 0.36519 0.0
C332 C 0.6947 0.8189 0.35405 0.0
C333 C 0.65305 0.87364 0.33946 0.0
C334 C 0.71269 0.88932 0.32704 0.0
C335 C 0.66168 0.83832 0.29442 0.0
C336 C 0.68541 0.85352 0.40007 0.0
O337 O 0.65283 0.82049 0.363 0.0
O338 O 0.63487 0.79181 0.38214 0.0
O339 O 0.20481 0.8538 0.333 0.0
Mn340 Mn 0.17295 0.84239 0.33165 0.0
O341 O 0.2195 0.8809 0.30764 0.0
Mn342 Mn 0.19533 0.87875 0.29602 0.0
O343 O 0.14108 0.83114 0.33014 0.0
O344 O 0.16778 0.81441 0.34363 0.0
Mn345 Mn 0.14978 0.80566 0.36663 0.0
O346 O 0.17364 0.85346 0.36534 0.0
O347 O 0.12577 0.80312 0.35416 0.0
O348 O 0.17231 0.83122 0.29798 0.0
O349 O 0.1824 0.85847 0.27341 0.0
O350 O 0.15635 0.78476 0.36188 0.0
O351 O 0.16164 0.82578 0.38964 0.0
C352 C 0.1785 0.88812 0.3187 0.0
C353 C 0.22076 0.86887 0.32281 0.0
C354 C 0.12487 0.81572 0.33953 0.0
C355 C 0.16793 0.79695 0.34535 0.0
C356 C 0.16958 0.84548 0.3859 0.0
C357 C 0.17533 0.83893 0.27733 0.0
O358 O 0.17811 0.87035 0.31969 0.0
O359 O 0.18951 0.90006 0.30172 0.0
O360 O 0.8177 0.65141 0.67664 0.0
Mn361 Mn 0.84736 0.67844 0.67838 0.0
O362 O 0.79502 0.66054 0.69009 0.0
Mn363 Mn 0.81476 0.68582 0.70291 0.0
O364 O 0.87694 0.70547 0.68015 0.0
O365 O 0.8594 0.65943 0.67407 0.0
Mn366 Mn 0.88016 0.67109 0.6542 0.0
O367 O 0.84716 0.68288 0.64248 0.0
O368 O 0.89978 0.69643 0.66706 0.0
O369 O 0.84765 0.67394 0.71421 0.0
O370 O 0.82601 0.68323 0.73047 0.0
O371 O 0.878 0.64586 0.66286 0.0
O372 O 0.86894 0.67355 0.62659 0.0
C373 C 0.83206 0.71319 0.68168 0.0
C374 C 0.79908 0.64716 0.68106 0.0
C375 C 0.8956 0.70977 0.67594 0.0
C376 C 0.86274 0.64378 0.67547 0.0
C377 C 0.85588 0.67983 0.6248 0.0
C378 C 0.83903 0.67688 0.73204 0.0
O379 O 0.83536 0.6975 0.6828 0.0
O380 O 0.81692 0.71109 0.69452 0.0
O381 O 0.36234 0.17188 0.68327 0.0
Mn382 Mn 0.34192 0.18328 0.685 0.0
O383 O 0.35424 0.14944 0.71351 0.0
Mn384 Mn 0.33248 0.15189 0.72604 0.0
O385 O 0.32147 0.19469 0.68686 0.0
O386 O 0.36218 0.20893 0.66759 0.0
Mn387 Mn 0.35084 0.21452 0.64406 0.0
O388 O 0.32771 0.16779 0.65424 0.0
O389 O 0.32993 0.21789 0.65738 0.0
O390 O 0.35597 0.19877 0.71602 0.0
O391 O 0.3411 0.17515 0.74491 0.0
O392 O 0.37815 0.23637 0.64585 0.0
O393 O 0.3414 0.19119 0.62494 0.0
C394 C 0.30476 0.14014 0.70531 0.0
C395 C 0.36539 0.15921 0.69583 0.0
C396 C 0.31883 0.20802 0.67503 0.0
C397 C 0.37903 0.22637 0.66388 0.0
C398 C 0.32975 0.17249 0.63253 0.0
C399 C 0.35321 0.19391 0.73773 0.0
O400 O 0.32169 0.15757 0.70216 0.0
O401 O 0.30515 0.12994 0.72338 0.0
O402 O 0.87059 0.18695 0.66748 0.0
Mn403 Mn 0.83878 0.17524 0.66482 0.0
O404 O 0.8859 0.21472 0.64302 0.0
Mn405 Mn 0.86203 0.21245 0.63035 0.0
O406 O 0.80697 0.16369 0.66197 0.0
O407 O 0.83356 0.14711 0.67645 0.0
Mn408 Mn 0.81475 0.13773 0.69863 0.0
O409 O 0.83811 0.18552 0.6986 0.0
O410 O 0.79106 0.13511 0.68512 0.0
O411 O 0.83941 0.16487 0.63106 0.0
O412 O 0.85014 0.19264 0.60711 0.0
O413 O 0.82184 0.11719 0.69427 0.0
O414 O 0.82557 0.15734 0.72225 0.0
C415 C 0.8441 0.22096 0.65228 0.0
C416 C 0.88678 0.2024 0.65809 0.0
C417 C 0.79054 0.14796 0.67056 0.0
C418 C 0.83393 0.12976 0.67828 0.0
C419 C 0.83341 0.17709 0.71893 0.0
C420 C 0.84309 0.17304 0.6106 0.0
O421 O 0.84397 0.20333 0.65323 0.0
O422 O 0.85559 0.23335 0.63584 0.0
C423 C 0.31966 0.80317 0.05228 0.0
C424 C 0.30125 0.8038 0.05475 0.0
C425 C 0.3377 0.82068 0.04372 0.0
C426 C 0.35654 0.87065 0.01075 0.0
H427 H 0.40798 0.88823 0.04311 0.0
C428 C 0.42627 0.95505 0.00442 0.0
C429 C 0.44646 0.95845 0.0064 0.0
C430 C 0.4091 0.93478 0.00646 0.0
C431 C 0.39388 0.88337 0.03353 0.0
H432 H 0.28729 0.82319 0.04945 0.0
H433 H 0.31868 0.85369 0.03479 0.0
H434 H 0.37701 0.85557 0.05433 0.0
H435 H 0.46432 0.94307 0.01149 0.0
H436 H 0.43443 0.9075 0.0144 0.0
H437 H 0.37331 0.89858 0.99017 0.0
C438 C 0.31921 0.83965 0.03936 0.0
C439 C 0.37606 0.86462 0.04003 0.0
C440 C 0.30124 0.82222 0.04803 0.0
C441 C 0.44906 0.94093 0.00938 0.0
C442 C 0.43185 0.92058 0.01147 0.0
C443 C 0.37437 0.88935 0.00419 0.0
C444 C 0.33773 0.83919 0.03725 0.0
C445 C 0.35707 0.85821 0.02902 0.0
C446 C 0.41162 0.9173 0.01062 0.0
C447 C 0.39321 0.8962 0.01577 0.0
H448 H 0.32026 0.7893 0.05742 0.0
H449 H 0.35163 0.8197 0.04216 0.0
H450 H 0.34228 0.866 0.00159 0.0
H451 H 0.42368 0.9682 0.00222 0.0
H452 H 0.39384 0.93302 0.00596 0.0
C453 C 0.19005 0.48034 0.0168 0.0
C454 C 0.1852 0.46105 0.02723 0.0
C455 C 0.17432 0.48401 0.00936 0.0
C456 C 0.11775 0.4566 0.99706 0.0
H457 H 0.12247 0.50975 0.01489 0.0
C458 C 0.06499 0.49964 0.00013 0.0
C459 C 0.04819 0.4842 0.01306 0.0
C460 C 0.0824 0.49765 0.99588 0.0
C461 C 0.12108 0.495 0.00935 0.0
H462 H 0.16005 0.43016 0.03702 0.0
H463 H 0.13275 0.4367 0.02479 0.0
H464 H 0.15226 0.50482 0.01885 0.0
H465 H 0.0359 0.45376 0.03005 0.0
H466 H 0.06587 0.45016 0.02222 0.0
H467 H 0.0862 0.44641 0.98887 0.0
C468 C 0.14865 0.44897 0.02204 0.0
C469 C 0.13815 0.49216 0.0116 0.0
C470 C 0.16432 0.44532 0.02941 0.0
C471 C 0.04863 0.46612 0.02029 0.0
C472 C 0.06577 0.46395 0.01567 0.0
C473 C 0.10068 0.45939 0.99502 0.0
C474 C 0.15341 0.46843 0.01214 0.0
C475 C 0.13648 0.47267 0.0062 0.0
C476 C 0.08302 0.47988 0.0039 0.0
C477 C 0.102 0.47838 0.00182 0.0
H478 H 0.20599 0.49281 0.01494 0.0
H479 H 0.17853 0.4991 0.00163 0.0
H480 H 0.11607 0.44158 0.99219 0.0
H481 H 0.06497 0.51352 0.99386 0.0
H482 H 0.09546 0.51008 0.98659 0.0
C483 C 0.48461 0.68073 0.08973 0.0
C484 C 0.49023 0.69757 0.0742 0.0
C485 C 0.48192 0.66147 0.08201 0.0
C486 C 0.47612 0.6297 0.02926 0.0
H487 H 0.50249 0.60642 0.06737 0.0
C488 C 0.48271 0.55829 -0.00134 0.0
C489 C 0.50297 0.56191 -0.0002 0.0
C490 C 0.47717 0.57122 0.01097 0.0
C491 C 0.49494 0.61263 0.05658 0.0
H492 H 0.49649 0.70702 0.03816 0.0
H493 H 0.49194 0.67341 0.0246 0.0
H494 H 0.50024 0.63654 0.08119 0.0
H495 H 0.53319 0.58138 0.01477 0.0
H496 H 0.52355 0.60353 0.03665 0.0
H497 H 0.47173 0.60633 0.00417 0.0
C498 C 0.48942 0.67502 0.04278 0.0
C499 C 0.49349 0.62982 0.06458 0.0
C500 C 0.49204 0.69432 0.05053 0.0
C501 C 0.51732 0.57796 0.01415 0.0
C502 C 0.51177 0.59066 0.02664 0.0
C503 C 0.47754 0.61244 0.02127 0.0
C504 C 0.48481 0.65851 0.05853 0.0
C505 C 0.48445 0.63889 0.05083 0.0
C506 C 0.49184 0.58796 0.02459 0.0
C507 C 0.4874 0.604 0.03461 0.0
H508 H 0.48273 0.68261 0.10804 0.0
H509 H 0.47791 0.649 0.09456 0.0
H510 H 0.46882 0.63607 0.01833 0.0
H511 H 0.47161 0.54644 0.9871 0.0
H512 H 0.46167 0.56867 0.0091 0.0
C513 C 0.81381 0.32895 0.96449 0.0
C514 C 0.80858 0.32334 0.94118 0.0
C515 C 0.82982 0.34911 0.97033 0.0
C516 C 0.87819 0.39138 0.94582 0.0
H517 H 0.87964 0.42061 0.00231 0.0
C518 C 0.95007 0.43839 0.00097 0.0
C519 C 0.95392 0.45721 0.01148 0.0
C520 C 0.93254 0.42685 0.98743 0.0
C521 C 0.87938 0.4129 0.98622 0.0
H522 H 0.81508 0.33518 0.90585 0.0
H523 H 0.84309 0.37021 0.91604 0.0
H524 H 0.84687 0.39085 0.98921 0.0
H525 H 0.94287 0.47913 0.0158 0.0
H526 H 0.91141 0.4584 0.99253 0.0
H527 H 0.91086 0.41268 0.94351 0.0
C528 C 0.83503 0.3589 0.92978 0.0
C529 C 0.86067 0.39571 0.97887 0.0
C530 C 0.81899 0.3388 0.92396 0.0
C531 C 0.94031 0.4648 0.00756 0.0
C532 C 0.92233 0.4529 0.9944 0.0
C533 C 0.8969 0.40839 0.95331 0.0
C534 C 0.841 0.36415 0.95299 0.0
C535 C 0.85998 0.38435 0.95895 0.0
C536 C 0.9181 0.43356 0.98463 0.0
C537 C 0.89781 0.41893 0.97396 0.0
H538 H 0.80628 0.31743 0.97819 0.0
H539 H 0.83414 0.35253 0.98836 0.0
H540 H 0.87829 0.38295 0.93048 0.0
H541 H 0.9603 0.43216 0.00394 0.0
H542 H 0.92964 0.41194 0.98037 0.0
C543 C 0.7303 0.5729 0.97568 0.0
C544 C 0.73442 0.5564 0.97924 0.0
C545 C 0.71077 0.57013 0.98054 0.0
C546 C 0.65599 0.52866 0.98823 0.0
H547 H 0.65072 0.57542 0.01105 0.0
C548 C 0.59207 0.55602 0.98548 0.0
C549 C 0.57418 0.53774 0.9932 0.0
C550 C 0.61156 0.5581 0.98803 0.0
C551 C 0.65196 0.56221 0.00471 0.0
H552 H 0.72107 0.524 0.99085 0.0
H553 H 0.68718 0.51936 -1e-05 0.0
H554 H 0.68492 0.57918 0.0074 0.0
H555 H 0.56298 0.50783 0.01075 0.0
H556 H 0.59711 0.51123 0.01476 0.0
H557 H 0.62296 0.51178 0.98543 0.0
C558 C 0.69899 0.53437 0.99307 0.0
C559 C 0.67155 0.56439 0.00248 0.0
C560 C 0.71853 0.53712 0.98808 0.0
C561 C 0.57639 0.52196 0.0044 0.0
C562 C 0.59591 0.5239 0.00666 0.0
C563 C 0.63637 0.52643 0.99065 0.0
C564 C 0.69484 0.55083 0.98927 0.0
C565 C 0.67387 0.5478 0.99371 0.0
C566 C 0.61366 0.54188 0.99817 0.0
C567 C 0.63419 0.54334 -0.00156 0.0
H568 H 0.74223 0.58807 0.96923 0.0
H569 H 0.7081 0.58306 0.97704 0.0
H570 H 0.65714 0.51562 0.98118 0.0
H571 H 0.59102 0.56859 0.97692 0.0
H572 H 0.62492 0.57207 0.98118 0.0
C573 C 0.54146 0.21959 0.93445 0.0
C574 C 0.52298 0.22015 0.93636 0.0
C575 C 0.54202 0.20137 0.94061 0.0
C576 C 0.51821 0.15609 0.97902 0.0
H577 H 0.53515 0.12716 0.93569 0.0
C578 C 0.52323 0.08424 0.00812 0.0
C579 C 0.50994 0.06598 0.9957 0.0
C580 C 0.52908 0.1042 -0.00089 0.0
C581 C 0.53056 0.13519 0.948 0.0
H582 H 0.49073 0.20225 0.94647 0.0
H583 H 0.4919 0.17072 0.95805 0.0
H584 H 0.53635 0.16002 0.92393 0.0
H585 H 0.49265 0.05425 0.96399 0.0
H586 H 0.50369 0.08918 0.9476 0.0
H587 H 0.51245 0.13148 0.00312 0.0
C588 C 0.50584 0.18424 0.95144 0.0
C589 C 0.53128 0.15397 0.94131 0.0
C590 C 0.50516 0.20223 0.94477 0.0
C591 C 0.50373 0.06807 0.9734 0.0
C592 C 0.50981 0.08808 0.9642 0.0
C593 C 0.51794 0.13766 0.98587 0.0
C594 C 0.52424 0.18357 0.94934 0.0
C595 C 0.52481 0.16442 0.95667 0.0
C596 C 0.52172 0.1063 0.97746 0.0
C597 C 0.52388 0.12685 0.97038 0.0
H598 H 0.55538 0.23315 0.9279 0.0
H599 H 0.55641 0.2013 0.93892 0.0
H600 H 0.51319 0.16384 0.99122 0.0
H601 H 0.5277 0.08303 0.02564 0.0
H602 H 0.53833 0.11794 0.00968 0.0
C603 C 0.70612 0.22468 0.97991 0.0
C604 C 0.72478 0.22452 0.97787 0.0
C605 C 0.6875 0.206 0.98454 0.0
C606 C 0.66768 0.15278 0.00972 0.0
H607 H 0.61707 0.13839 0.9771 0.0
C608 C 0.59873 0.06825 0.00735 0.0
C609 C 0.57841 0.06465 0.00662 0.0
C610 C 0.61568 0.08869 0.00675 0.0
C611 C 0.63096 0.14232 0.9867 0.0
H612 H 0.73854 0.20467 0.97881 0.0
H613 H 0.70617 0.17214 0.98675 0.0
H614 H 0.64835 0.17214 0.96938 0.0
H615 H 0.56006 0.07994 0.00552 0.0
H616 H 0.5898 0.11586 0.00472 0.0
H617 H 0.65048 0.123 0.02691 0.0
C618 C 0.70586 0.18667 0.98501 0.0
C619 C 0.64893 0.16166 0.9822 0.0
C620 C 0.7244 0.20528 0.98027 0.0
C621 C 0.57548 0.08214 0.00627 0.0
C622 C 0.59255 0.10272 0.00553 0.0
C623 C 0.64976 0.13354 0.01428 0.0
C624 C 0.68719 0.18679 0.98746 0.0
C625 C 0.66763 0.16694 0.99331 0.0
C626 C 0.61289 0.10623 0.00536 0.0
C627 C 0.63124 0.12782 0.00249 0.0
H628 H 0.70604 0.23934 0.97832 0.0
H629 H 0.67344 0.20669 0.98645 0.0
H630 H 0.68167 0.15654 0.01902 0.0
H631 H 0.60161 0.05518 0.00764 0.0
H632 H 0.63104 0.09066 0.00637 0.0
C633 C 0.84054 0.5688 0.01093 0.0
C634 C 0.82153 0.55391 0.0207 0.0
C635 C 0.85796 0.56666 0.01355 0.0
C636 C 0.87397 0.52762 0.02498 0.0
H637 H 0.9271 0.57731 0.03686 0.0
C638 C 0.94977 0.52439 0.0308 0.0
C639 C 0.96606 0.53974 0.01723 0.0
C640 C 0.93209 0.52587 0.03517 0.0
C641 C 0.91238 0.56329 0.03351 0.0
H642 H 0.80541 0.52464 0.03995 0.0
H643 H 0.83595 0.52084 0.04468 0.0
H644 H 0.89598 0.58012 0.03624 0.0
H645 H 0.97692 0.56927 -0.00134 0.0
H646 H 0.94638 0.57179 0.00626 0.0
H647 H 0.8905 0.5109 0.02167 0.0
C648 C 0.83745 0.53427 0.03515 0.0
C649 C 0.89457 0.56491 0.03309 0.0
C650 C 0.82004 0.53648 0.03258 0.0
C651 C 0.96466 0.55705 0.00906 0.0
C652 C 0.94716 0.5586 0.01357 0.0
C653 C 0.89183 0.526 0.02537 0.0
C654 C 0.85664 0.54942 0.02579 0.0
C655 C 0.87522 0.5472 0.02831 0.0
C656 C 0.93052 0.54289 0.02634 0.0
C657 C 0.91129 0.54393 0.02911 0.0
H658 H 0.84191 0.58213 0.00129 0.0
H659 H 0.8724 0.57835 0.00568 0.0
H660 H 0.85931 0.51371 0.0211 0.0
H661 H 0.95041 0.51096 0.03754 0.0
H662 H 0.91958 0.51362 0.04528 0.0
C663 C 0.55968 0.3413 0.96843 0.0
C664 C 0.54265 0.32246 0.96068 0.0
C665 C 0.5591 0.36007 0.96837 0.0
C666 C 0.53056 0.38588 0.94581 0.0
H667 H 0.54729 0.41633 0.00381 0.0
C668 C 0.49967 0.43913 0.97866 0.0
C669 C 0.51147 0.45537 0.99429 0.0
C670 C 0.50734 0.42676 0.96944 0.0
C671 C 0.54299 0.40845 0.98722 0.0
H672 H 0.51223 0.30867 0.94545 0.0
H673 H 0.5111 0.34144 0.94535 0.0
H674 H 0.55326 0.38718 0.99733 0.0
H675 H 0.54055 0.47164 0.01234 0.0
H676 H 0.55458 0.4509 0.9954 0.0
H677 H 0.51986 0.40695 0.93593 0.0
C678 C 0.52494 0.34178 0.95148 0.0
C679 C 0.54637 0.39159 0.98354 0.0
C680 C 0.52551 0.32299 0.95162 0.0
C681 C 0.53154 0.45983 -0.00045 0.0
C682 C 0.53931 0.44755 0.99025 0.0
C683 C 0.52728 0.40288 0.94943 0.0
C684 C 0.54152 0.36047 0.96039 0.0
C685 C 0.53983 0.37979 0.963 0.0
C686 C 0.52692 0.43019 0.97593 0.0
C687 C 0.53305 0.41414 0.97041 0.0
H688 H 0.57319 0.34136 0.97523 0.0
H689 H 0.57228 0.37423 0.97498 0.0
H690 H 0.52559 0.37734 0.92964 0.0
H691 H 0.48389 0.435 0.97489 0.0
H692 H 0.49718 0.41347 0.95873 0.0
C693 C 0.2033 0.69877 0.05297 0.0
C694 C 0.22131 0.69854 0.04658 0.0
C695 C 0.18454 0.67989 0.05569 0.0
C696 C 0.15856 0.62517 0.03484 0.0
H697 H 0.11477 0.61917 0.07593 0.0
C698 C 0.07489 0.559 0.02039 0.0
C699 C 0.06185 0.56741 0.01756 0.0
C700 C 0.09413 0.57091 0.03126 0.0
C701 C 0.12688 0.62051 0.06447 0.0
H702 H 0.23431 0.67855 0.03986 0.0
H703 H 0.20157 0.64546 0.04479 0.0
H704 H 0.14989 0.64867 0.08099 0.0
H705 H 0.05762 0.59382 0.02534 0.0
H706 H 0.09066 0.6143 0.04465 0.0
H707 H 0.13543 0.59757 0.01768 0.0
C708 C 0.20177 0.66019 0.04715 0.0
C709 C 0.14699 0.63748 0.06728 0.0
C710 C 0.22053 0.6791 0.04442 0.0
C711 C 0.06742 0.58698 0.02745 0.0
C712 C 0.08636 0.59867 0.0386 0.0
C713 C 0.13847 0.60819 0.03205 0.0
C714 C 0.18341 0.66034 0.05225 0.0
C715 C 0.16294 0.64046 0.05196 0.0
C716 C 0.10038 0.59125 0.03969 0.0
C717 C 0.12223 0.6061 0.04627 0.0
H718 H 0.20361 0.71359 0.05498 0.0
H719 H 0.17075 0.68069 0.05942 0.0
H720 H 0.17034 0.62699 0.02257 0.0
H721 H 0.07093 0.54402 0.01274 0.0
H722 H 0.10453 0.56468 0.03201 0.0
C723 C 0.29023 0.47489 0.98845 0.0
C724 C 0.27484 0.45675 -0.0003 0.0
C725 C 0.31027 0.47819 0.9859 0.0
C726 C 0.33906 0.44949 0.98564 0.0
H727 H 0.38701 0.50403 -0.00164 0.0
C728 C 0.41877 0.45969 0.00438 0.0
C729 C 0.43673 0.47791 0.9967 0.0
C730 C 0.39931 0.4575 0.00136 0.0
C731 C 0.37382 0.4888 0.99431 0.0
H732 H 0.26838 0.4283 0.01799 0.0
H733 H 0.30334 0.43396 0.01356 0.0
H734 H 0.35245 0.49972 0.0003 0.0
H735 H 0.4481 0.50784 0.97898 0.0
H736 H 0.41389 0.50396 0.97361 0.0
H737 H 0.36029 0.43846 0.97991 0.0
C738 C 0.29988 0.44544 0.00625 0.0
C739 C 0.35401 0.48632 0.9955 0.0
C740 C 0.27992 0.44223 0.0089 0.0
C741 C 0.43461 0.49363 0.98516 0.0
C742 C 0.41503 0.49147 0.98222 0.0
C743 C 0.35882 0.45198 0.98437 0.0
C744 C 0.31526 0.46338 0.99458 0.0
C745 C 0.33639 0.46652 0.99164 0.0
C746 C 0.39718 0.47347 0.99055 0.0
C747 C 0.37642 0.47154 0.98917 0.0
H748 H 0.28667 0.4864 0.98145 0.0
H749 H 0.32175 0.49213 0.9768 0.0
H750 H 0.32583 0.43415 0.98207 0.0
H751 H 0.41973 0.4472 0.01328 0.0
H752 H 0.38596 0.44356 0.00827 0.0
C753 C 0.50821 0.81398 0.06774 0.0
C754 C 0.49602 0.79645 0.05372 0.0
C755 C 0.50672 0.83224 0.066 0.0
C756 C 0.49167 0.8599 0.02371 0.0
H757 H 0.49995 0.8972 0.07514 0.0
C758 C 0.49901 0.94012 0.00607 0.0
C759 C 0.51564 0.95721 0.01705 0.0
C760 C 0.49169 0.9195 0.01401 0.0
C761 C 0.49766 0.887 0.06056 0.0
H762 H 0.47165 0.78361 0.0282 0.0
H763 H 0.46883 0.81533 0.02526 0.0
H764 H 0.49672 0.86285 0.08242 0.0
H765 H 0.53752 0.96632 0.04509 0.0
H766 H 0.52497 0.93048 0.05901 0.0
H767 H 0.49333 0.88412 0.00173 0.0
C768 C 0.47994 0.81527 0.03719 0.0
C769 C 0.49583 0.86728 0.06475 0.0
C770 C 0.48144 0.79704 0.03895 0.0
C771 C 0.52417 0.95344 0.03684 0.0
C772 C 0.517 0.93282 0.04471 0.0
C773 C 0.49355 0.87957 0.01953 0.0
C774 C 0.49292 0.83332 0.05027 0.0
C775 C 0.4931 0.85357 0.04632 0.0
C776 C 0.50128 0.91548 0.03274 0.0
C777 C 0.49686 0.89357 0.03783 0.0
H778 H 0.51944 0.81383 0.07942 0.0
H779 H 0.51705 0.84581 0.07626 0.0
H780 H 0.48996 0.85001 0.00902 0.0
H781 H 0.49271 0.94255 0.99026 0.0
H782 H 0.4793 0.90664 0.0046 0.0
C783 C 0.98881 0.13748 0.38458 0.0
C784 C 0.97086 0.13888 0.38765 0.0
C785 C 0.00708 0.1547 0.37604 0.0
C786 C 0.0269 0.20503 0.34376 0.0
H787 H 0.07832 0.22154 0.37567 0.0
C788 C 0.09618 0.28929 0.34007 0.0
C789 C 0.11646 0.29287 0.34162 0.0
C790 C 0.07918 0.26891 0.34141 0.0
C791 C 0.06422 0.21695 0.36621 0.0
H792 H 0.95794 0.15933 0.38352 0.0
H793 H 0.98973 0.18932 0.36883 0.0
H794 H 0.0471 0.18892 0.38662 0.0
H795 H 0.13472 0.27761 0.34469 0.0
H796 H 0.10496 0.24181 0.34678 0.0
H797 H 0.04386 0.2332 0.32362 0.0
C798 C 0.98971 0.1749 0.37292 0.0
C799 C 0.04627 0.19825 0.37255 0.0
C800 C 0.97154 0.15778 0.38161 0.0
C801 C 0.11933 0.2754 0.34329 0.0
C802 C 0.10225 0.2549 0.34476 0.0
C803 C 0.04483 0.22366 0.33736 0.0
C804 C 0.00776 0.17365 0.37014 0.0
C805 C 0.02728 0.19232 0.36178 0.0
C806 C 0.08194 0.25145 0.34439 0.0
C807 C 0.06363 0.23016 0.34888 0.0
H808 H 0.98885 0.12319 0.3892 0.0
H809 H 0.02066 0.15316 0.37398 0.0
H810 H 0.01263 0.20072 0.33477 0.0
H811 H 0.09336 0.30237 0.33874 0.0
H812 H 0.06385 0.26699 0.3413 0.0
C813 C 0.85413 0.81171 0.3508 0.0
C814 C 0.84997 0.79282 0.3617 0.0
C815 C 0.8379 0.81473 0.34368 0.0
C816 C 0.78078 0.78609 0.33388 0.0
H817 H 0.78569 0.83975 0.34958 0.0
C818 C 0.7115 0.79676 0.35513 0.0
C819 C 0.7116 0.81495 0.34726 0.0
C820 C 0.72849 0.79411 0.35118 0.0
C821 C 0.78419 0.8248 0.34469 0.0
H822 H 0.82552 0.76187 0.37245 0.0
H823 H 0.79742 0.76732 0.36085 0.0
H824 H 0.81568 0.8352 0.35319 0.0
H825 H 0.72926 0.84409 0.32801 0.0
H826 H 0.75923 0.83967 0.32158 0.0
H827 H 0.74895 0.77543 0.32658 0.0
C828 C 0.81312 0.77979 0.35749 0.0
C829 C 0.80141 0.82219 0.34671 0.0
C830 C 0.82928 0.77676 0.3645 0.0
C831 C 0.72876 0.83 0.33447 0.0
C832 C 0.74593 0.82751 0.33082 0.0
C833 C 0.76354 0.78865 0.33209 0.0
C834 C 0.81718 0.79891 0.34728 0.0
C835 C 0.79977 0.80261 0.34193 0.0
C836 C 0.74607 0.80967 0.33947 0.0
C837 C 0.76495 0.80788 0.33802 0.0
H838 H 0.86989 0.82441 0.34842 0.0
H839 H 0.8416 0.82955 0.33562 0.0
H840 H 0.77907 0.77095 0.32952 0.0
H841 H 0.6985 0.78476 0.36491 0.0
H842 H 0.72821 0.78027 0.35821 0.0
C843 C 0.15422 0.01528 0.42908 0.0
C844 C 0.15862 0.03155 0.41313 0.0
C845 C 0.1513 0.99586 0.42161 0.0
C846 C 0.14273 0.96246 0.36949 0.0
H847 H 0.17275 0.94171 0.40511 0.0
C848 C 0.15051 0.8918 0.33812 0.0
C849 C 0.17122 0.89676 0.33702 0.0
C850 C 0.14499 0.90447 0.35102 0.0
C851 C 0.16414 0.94718 0.39506 0.0
H852 H 0.1624 0.03975 0.37669 0.0
H853 H 0.15744 1.00587 0.36355 0.0
H854 H 0.17032 0.97162 0.41928 0.0
H855 H 0.20226 0.91826 0.34874 0.0
H856 H 0.19269 0.93986 0.37176 0.0
H857 H 0.13744 0.93855 0.34471 0.0
C858 C 0.15606 0.00805 0.38188 0.0
C859 C 0.1626 0.96427 0.40326 0.0
C860 C 0.15892 0.02751 0.38939 0.0
C861 C 0.1861 0.91386 0.3498 0.0
C862 C 0.1806 0.92624 0.36295 0.0
C863 C 0.14421 0.94529 0.36132 0.0
C864 C 0.15273 0.99216 0.39796 0.0
C865 C 0.1523 0.97249 0.39032 0.0
C866 C 0.16012 0.92217 0.3631 0.0
C867 C 0.1554 0.9378 0.37372 0.0
H868 H 0.1535 0.01774 0.44748 0.0
H869 H 0.1483 0.98387 0.43445 0.0
H870 H 0.13443 0.96816 0.35922 0.0
H871 H 0.1389 0.87907 0.32782 0.0
H872 H 0.12908 0.90093 0.35082 0.0
C873 C 0.48301 0.65995 0.29871 0.0
C874 C 0.47735 0.65551 0.27533 0.0
C875 C 0.49854 0.68002 0.3054 0.0
C876 C 0.54448 0.72712 0.28165 0.0
H877 H 0.54474 0.7493 0.34262 0.0
C878 C 0.61882 0.78113 0.33121 0.0
C879 C 0.61899 0.79524 0.34764 0.0
C880 C 0.60101 0.76844 0.31842 0.0
C881 C 0.54485 0.74366 0.32533 0.0
H882 H 0.4828 0.66903 0.24081 0.0
H883 H 0.50976 0.70415 0.25251 0.0
H884 H 0.51348 0.71869 0.32866 0.0
H885 H 0.60126 0.80794 0.36319 0.0
H886 H 0.57009 0.78617 0.3403 0.0
H887 H 0.57593 0.75205 0.27841 0.0
C888 C 0.50251 0.69199 0.26563 0.0
C889 C 0.52696 0.72584 0.31746 0.0
C890 C 0.48702 0.67187 0.25893 0.0
C891 C 0.6015 0.79738 0.35027 0.0
C892 C 0.58364 0.78473 0.33738 0.0
C893 C 0.56236 0.74501 0.28949 0.0
C894 C 0.50876 0.69623 0.2889 0.0
C895 C 0.52673 0.71692 0.29583 0.0
C896 C 0.58293 0.76953 0.32192 0.0
C897 C 0.56299 0.7531 0.31174 0.0
H898 H 0.47609 0.64765 0.31173 0.0
H899 H 0.50313 0.68253 0.32341 0.0
H900 H 0.54497 0.72072 0.26493 0.0
H901 H 0.63207 0.77898 0.32929 0.0
H902 H 0.60105 0.75681 0.30694 0.0
C903 C 0.39778 0.909 0.30683 0.0
C904 C 0.4028 0.89337 0.3119 0.0
C905 C 0.37823 0.90595 0.3122 0.0
C906 C 0.32436 0.86415 0.32384 0.0
H907 H 0.31847 0.91146 0.34312 0.0
C908 C 0.24424 0.85686 0.3396 0.0
C909 C 0.24165 0.87211 0.32771 0.0
C910 C 0.26391 0.85907 0.34173 0.0
C911 C 0.31986 0.89809 0.33776 0.0
H912 H 0.3911 0.86224 0.32679 0.0
H913 H 0.35706 0.85708 0.33661 0.0
H914 H 0.35289 0.91586 0.3391 0.0
H915 H 0.25801 0.90231 0.30993 0.0
H916 H 0.29205 0.90621 0.31389 0.0
H917 H 0.29125 0.84649 0.32222 0.0
C918 C 0.36822 0.87163 0.32821 0.0
C919 C 0.33959 0.90062 0.33536 0.0
C920 C 0.38782 0.87468 0.32279 0.0
C921 C 0.25931 0.89012 0.31906 0.0
C922 C 0.27891 0.89246 0.32145 0.0
C923 C 0.30459 0.86159 0.32637 0.0
C924 C 0.36316 0.88721 0.32291 0.0
C925 C 0.34212 0.88384 0.32781 0.0
C926 C 0.28142 0.8768 0.33242 0.0
C927 C 0.30216 0.87867 0.33282 0.0
H928 H 0.40901 0.92371 0.29876 0.0
H929 H 0.37482 0.91818 0.30755 0.0
H930 H 0.3257 0.85092 0.31781 0.0
H931 H 0.23104 0.84297 0.34672 0.0
H932 H 0.26541 0.84684 0.35049 0.0
C933 C 0.20842 0.55319 0.27083 0.0
C934 C 0.18985 0.55327 0.27449 0.0
C935 C 0.21006 0.53561 0.2772 0.0
C936 C 0.1896 0.49137 0.31756 0.0
H937 H 0.20397 0.46178 0.27222 0.0
C938 C 0.19362 0.41847 0.34431 0.0
C939 C 0.1799 0.40046 0.3318 0.0
C940 C 0.19978 0.43862 0.33565 0.0
C941 C 0.20014 0.47001 0.2851 0.0
H942 H 0.15866 0.53531 0.28806 0.0
H943 H 0.16176 0.50497 0.29993 0.0
H944 H 0.20452 0.49444 0.26116 0.0
H945 H 0.16223 0.38936 0.30024 0.0
H946 H 0.17369 0.42455 0.28452 0.0
H947 H 0.18503 0.46704 0.34145 0.0
C948 C 0.17493 0.51833 0.29186 0.0
C949 C 0.20051 0.4887 0.2788 0.0
C950 C 0.17313 0.53565 0.28503 0.0
C951 C 0.17359 0.40297 0.30973 0.0
C952 C 0.17994 0.42315 0.30089 0.0
C953 C 0.18965 0.47301 0.32396 0.0
C954 C 0.19333 0.51804 0.28786 0.0
C955 C 0.19485 0.49933 0.29488 0.0
C956 C 0.19227 0.44116 0.31429 0.0
C957 C 0.19461 0.46191 0.30775 0.0
H958 H 0.22149 0.56653 0.26261 0.0
H959 H 0.22444 0.53581 0.27399 0.0
H960 H 0.18522 0.49926 0.3303 0.0
H961 H 0.19817 0.41695 0.36168 0.0
H962 H 0.20938 0.45219 0.34632 0.0
C963 C 0.37649 0.5571 0.31316 0.0
C964 C 0.39497 0.55654 0.31157 0.0
C965 C 0.35779 0.53883 0.31871 0.0
C966 C 0.3375 0.4868 0.3471 0.0
H967 H 0.28714 0.4713 0.31335 0.0
C968 C 0.26838 0.40234 0.3469 0.0
C969 C 0.24812 0.39882 0.34536 0.0
C970 C 0.28539 0.42274 0.34604 0.0
C971 C 0.30095 0.47557 0.32327 0.0
H972 H 0.4084 0.5365 0.31466 0.0
H973 H 0.3759 0.50467 0.32417 0.0
H974 H 0.31856 0.5046 0.30456 0.0
H975 H 0.22991 0.41416 0.34261 0.0
H976 H 0.25972 0.44999 0.34136 0.0
H977 H 0.32008 0.45776 0.36563 0.0
C978 C 0.37578 0.51919 0.32127 0.0
C979 C 0.319 0.49464 0.31816 0.0
C980 C 0.39439 0.53738 0.31561 0.0
C981 C 0.24528 0.41633 0.34402 0.0
C982 C 0.26239 0.43685 0.34302 0.0
C983 C 0.31949 0.46781 0.35226 0.0
C984 C 0.35726 0.51969 0.32309 0.0
C985 C 0.33761 0.50027 0.32967 0.0
C986 C 0.28269 0.44026 0.34355 0.0
C987 C 0.30108 0.4617 0.34007 0.0
H988 H 0.37659 0.57176 0.31043 0.0
H989 H 0.34385 0.53981 0.32014 0.0
H990 H 0.35143 0.49087 0.35669 0.0
H991 H 0.27117 0.38924 0.34796 0.0
H992 H 0.30072 0.42465 0.34624 0.0
C993 C 0.49366 0.88151 0.36389 0.0
C994 C 0.49471 0.89804 0.35058 0.0
C995 C 0.51094 0.87898 0.36583 0.0
C996 C 0.56779 0.90783 0.35875 0.0
H997 H 0.56122 0.85221 0.3525 0.0
C998 C 0.63555 0.89501 0.33644 0.0
C999 C 0.63616 0.8777 0.34602 0.0
C1000 C 0.61867 0.89779 0.34043 0.0
C1001 C 0.5633 0.8678 0.35471 0.0
H1002 H 0.51412 0.92432 0.32806 0.0
H1003 H 0.54437 0.91998 0.3314 0.0
H1004 H 0.53076 0.85625 0.35241 0.0
H1005 H 0.61967 0.8501 0.36804 0.0
H1006 H 0.59016 0.85509 0.37515 0.0
H1007 H 0.60032 0.91945 0.36074 0.0
C1008 C 0.53041 0.90926 0.34082 0.0
C1009 C 0.54584 0.87012 0.3546 0.0
C1010 C 0.51312 0.91172 0.33882 0.0
C1011 C 0.61973 0.86361 0.3604 0.0
C1012 C 0.60274 0.86637 0.36432 0.0
C1013 C 0.58522 0.90552 0.35893 0.0
C1014 C 0.52954 0.8929 0.3544 0.0
C1015 C 0.54792 0.89021 0.3562 0.0
C1016 C 0.60189 0.88334 0.3541 0.0
C1017 C 0.58323 0.88552 0.35648 0.0
H1018 H 0.47949 0.8706 0.37283 0.0
H1019 H 0.50978 0.86625 0.37646 0.0
H1020 H 0.56988 0.92348 0.36049 0.0
H1021 H 0.64792 0.90621 0.32533 0.0
H1022 H 0.61845 0.91088 0.33203 0.0
C1023 C 0.1901 0.65642 0.28507 0.0
C1024 C 0.20743 0.65587 0.29346 0.0
C1025 C 0.18971 0.67531 0.28491 0.0
C1026 C 0.21277 0.72586 0.31588 0.0
H1027 H 0.18405 0.74013 0.26996 0.0
C1028 C 0.19844 0.79438 0.33279 0.0
C1029 C 0.17799 0.78943 0.32908 0.0
C1030 C 0.20588 0.78198 0.32295 0.0
C1031 C 0.19212 0.73638 0.28297 0.0
H1032 H 0.23847 0.67481 0.30671 0.0
H1033 H 0.23792 0.70786 0.30633 0.0
H1034 H 0.18951 0.7104 0.26327 0.0
H1035 H 0.14943 0.76825 0.31173 0.0
H1036 H 0.16218 0.74663 0.29456 0.0
H1037 H 0.21467 0.75112 0.33606 0.0
C1038 C 0.22443 0.69365 0.30032 0.0
C1039 C 0.19523 0.7193 0.27913 0.0
C1040 C 0.22481 0.67477 0.30043 0.0
C1041 C 0.16546 0.77269 0.31433 0.0
C1042 C 0.17281 0.76028 0.30453 0.0
C1043 C 0.2096 0.74284 0.31976 0.0
C1044 C 0.20669 0.69409 0.29309 0.0
C1045 C 0.20525 0.71357 0.29576 0.0
C1046 C 0.19283 0.76415 0.30956 0.0
C1047 C 0.19885 0.74811 0.3036 0.0
H1048 H 0.17655 0.64205 0.27948 0.0
H1049 H 0.17573 0.67497 0.27936 0.0
H1050 H 0.22028 0.72177 0.32926 0.0
H1051 H 0.20811 0.80668 0.3448 0.0
H1052 H 0.22148 0.78566 0.32697 0.0
C1053 C 0.8705 0.0335 0.38337 0.0
C1054 C 0.88859 0.03526 0.37382 0.0
C1055 C 0.85226 0.01392 0.38441 0.0
C1056 C 0.82731 0.96341 0.35372 0.0
H1057 H 0.78514 0.94708 0.40126 0.0
C1058 C 0.74655 0.89333 0.33814 0.0
C1059 C 0.73068 0.89776 0.3424 0.0
C1060 C 0.76616 0.90598 0.34776 0.0
C1061 C 0.79677 0.9514 0.38784 0.0
H1062 H 0.90239 0.01788 0.35961 0.0
H1063 H 0.87059 0.9836 0.36153 0.0
H1064 H 0.81945 0.97777 0.40723 0.0
H1065 H 0.72234 0.91824 0.3604 0.0
H1066 H 0.75644 0.94045 0.3771 0.0
H1067 H 0.80458 0.93781 0.33384 0.0
C1068 C 0.8703 0.99737 0.36773 0.0
C1069 C 0.81642 0.969 0.39126 0.0
C1070 C 0.88852 0.01694 0.3667 0.0
C1071 C 0.73429 0.91427 0.35735 0.0
C1072 C 0.75387 0.92698 0.36691 0.0
C1073 C 0.8077 0.94591 0.35028 0.0
C1074 C 0.8518 0.99569 0.37602 0.0
C1075 C 0.83179 0.9755 0.37399 0.0
C1076 C 0.77031 0.92356 0.36142 0.0
C1077 C 0.79199 0.93995 0.36703 0.0
H1078 H 0.87029 0.04741 0.38919 0.0
H1079 H 0.83831 0.01327 0.39077 0.0
H1080 H 0.83862 0.9681 0.33988 0.0
H1081 H 0.74426 0.88111 0.32603 0.0
H1082 H 0.77837 0.90272 0.34339 0.0
C1083 C 0.94691 0.77714 0.34655 0.0
C1084 C 0.94171 0.79119 0.33627 0.0
C1085 C 0.96697 0.78047 0.34452 0.0
C1086 C 0.02114 0.82113 0.33281 0.0
H1087 H 0.02744 0.77282 0.31991 0.0
C1088 C 0.10177 0.82812 0.32236 0.0
C1089 C 0.10411 0.81278 0.33443 0.0
C1090 C 0.08214 0.82595 0.31974 0.0
C1091 C 0.02597 0.78647 0.32365 0.0
H1092 H 0.95348 0.82022 0.3168 0.0
H1093 H 0.98872 0.82616 0.3132 0.0
H1094 H 0.99296 0.76847 0.32183 0.0
H1095 H 0.0874 0.78273 0.35244 0.0
H1096 H 0.05359 0.77907 0.34797 0.0
H1097 H 0.0542 0.83904 0.3351 0.0
C1098 C 0.97725 0.81248 0.32269 0.0
C1099 C 0.0062 0.78396 0.32478 0.0
C1100 C 0.95712 0.80907 0.32464 0.0
C1101 C 0.0863 0.79493 0.34308 0.0
C1102 C 0.06679 0.79273 0.34038 0.0
C1103 C 0.04098 0.82364 0.33176 0.0
C1104 C 0.98234 0.79807 0.33236 0.0
C1105 C 1.00351 0.80117 0.32977 0.0
C1106 C 0.06444 0.8083 0.32893 0.0
C1107 C 0.04361 0.80624 0.32758 0.0
H1108 H 0.93537 0.76344 0.35595 0.0
H1109 H 0.97048 0.76931 0.35259 0.0
H1110 H 0.01959 0.83469 0.33681 0.0
H1111 H 0.11512 0.84202 0.31539 0.0
H1112 H 0.08083 0.83813 0.31061 0.0
C1113 C 0.1836 0.14961 0.38855 0.0
C1114 C 0.16513 0.13067 0.39298 0.0
C1115 C 0.18391 0.16882 0.38797 0.0
C1116 C 0.14961 0.19134 0.37933 0.0
H1117 H 0.19909 0.24277 0.39706 0.0
C1118 C 0.17095 0.27313 0.34282 0.0
C1119 C 0.18453 0.29133 0.35512 0.0
C1120 C 0.16455 0.25309 0.35202 0.0
C1121 C 0.18491 0.22863 0.39241 0.0
H1122 H 0.13249 0.11705 0.40032 0.0
H1123 H 0.13302 0.15072 0.3999 0.0
H1124 H 0.19634 0.20905 0.40514 0.0
H1125 H 0.20176 0.30292 0.38685 0.0
H1126 H 0.18961 0.2681 0.40377 0.0
H1127 H 0.13809 0.211 0.36682 0.0
C1128 C 0.14729 0.15073 0.39664 0.0
C1129 C 0.1835 0.20918 0.3967 0.0
C1130 C 0.14699 0.13144 0.39713 0.0
C1131 C 0.19057 0.28916 0.37744 0.0
C1132 C 0.18402 0.26912 0.38682 0.0
C1133 C 0.15095 0.21084 0.3752 0.0
C1134 C 0.16574 0.16971 0.3918 0.0
C1135 C 0.16608 0.19024 0.38967 0.0
C1136 C 0.17178 0.25079 0.37374 0.0
C1137 C 0.16884 0.22984 0.38115 0.0
H1138 H 0.19778 0.14951 0.38492 0.0
H1139 H 0.19835 0.18292 0.38369 0.0
H1140 H 0.13595 0.17718 0.37356 0.0
H1141 H 0.16665 0.2744 0.32523 0.0
H1142 H 0.15535 0.23954 0.3412 0.0
C1143 C 0.63641 0.48776 0.7152 0.0
C1144 C 0.63639 0.46927 0.72167 0.0
C1145 C 0.65445 0.50536 0.70696 0.0
C1146 C 0.71141 0.53029 0.7081 0.0
H1147 H 0.70879 0.5658 0.66 0.0
C1148 C 0.78426 0.60787 0.67926 0.0
C1149 C 0.78144 0.62539 0.67804 0.0
C1150 C 0.76717 0.58738 0.68072 0.0
C1151 C 0.70981 0.5561 0.6735 0.0
H1152 H 0.65548 0.45484 0.72429 0.0
H1153 H 0.68693 0.48548 0.70962 0.0
H1154 H 0.67778 0.5328 0.67033 0.0
H1155 H 0.75838 0.63499 0.67604 0.0
H1156 H 0.7288 0.59957 0.67848 0.0
H1157 H 0.74334 0.55384 0.71162 0.0
C1158 C 0.67297 0.4864 0.71113 0.0
C1159 C 0.69199 0.53717 0.67947 0.0
C1160 C 0.65487 0.46875 0.71932 0.0
C1161 C 0.76115 0.62187 0.67699 0.0
C1162 C 0.74413 0.60148 0.67827 0.0
C1163 C 0.72925 0.54924 0.70212 0.0
C1164 C 0.67303 0.505 0.70496 0.0
C1165 C 0.69244 0.5242 0.69717 0.0
C1166 C 0.74687 0.58397 0.68076 0.0
C1167 C 0.72859 0.56261 0.68507 0.0
H1168 H 0.62242 0.48867 0.7165 0.0
H1169 H 0.65392 0.51944 0.70265 0.0
H1170 H 0.71233 0.52084 0.72196 0.0
H1171 H 0.79965 0.61004 0.68035 0.0
H1172 H 0.76986 0.57425 0.68237 0.0
C1173 C 0.49811 0.11424 0.68801 0.0
C1174 C 0.51892 0.12987 0.69073 0.0
C1175 C 0.48325 0.11973 0.68253 0.0
C1176 C 0.47242 0.16143 0.69354 0.0
H1177 H 0.42636 0.13086 0.65163 0.0
C1178 C 0.39193 0.1503 0.70857 0.0
C1179 C 0.38356 0.15686 0.69083 0.0
C1180 C 0.40984 0.14933 0.70475 0.0
C1181 C 0.43929 0.1397 0.66315 0.0
H1182 H 0.54071 0.16338 0.68908 0.0
H1183 H 0.51454 0.17308 0.67995 0.0
H1184 H 0.45588 0.12491 0.65041 0.0
H1185 H 0.38728 0.16719 0.65499 0.0
H1186 H 0.41846 0.16468 0.64811 0.0
H1187 H 0.45531 0.17528 0.70721 0.0
C1188 C 0.50982 0.15659 0.68185 0.0
C1189 C 0.45607 0.13625 0.66254 0.0
C1190 C 0.52476 0.15105 0.68697 0.0
C1191 C 0.39334 0.16204 0.66898 0.0
C1192 C 0.41112 0.16063 0.66502 0.0
C1193 C 0.45552 0.1646 0.69441 0.0
C1194 C 0.48887 0.14098 0.68001 0.0
C1195 C 0.47259 0.14678 0.67805 0.0
C1196 C 0.41962 0.15453 0.68302 0.0
C1197 C 0.43864 0.15344 0.67957 0.0
H1198 H 0.49328 0.09779 0.69073 0.0
H1199 H 0.4672 0.1074 0.68144 0.0
H1200 H 0.48483 0.1696 0.70585 0.0
H1201 H 0.38493 0.14637 0.72566 0.0
H1202 H 0.41605 0.14442 0.71882 0.0
C1203 C 0.82343 0.35965 0.72235 0.0
C1204 C 0.82199 0.36308 0.74606 0.0
C1205 C 0.82054 0.34025 0.71461 0.0
C1206 C 0.82504 0.29533 0.73624 0.0
H1207 H 0.80303 0.27175 0.67593 0.0
C1208 C 0.85017 0.24526 0.68452 0.0
C1209 C 0.83594 0.22902 0.67028 0.0
C1210 C 0.84424 0.25748 0.69735 0.0
C1211 C 0.8089 0.27787 0.69301 0.0
H1212 H 0.81485 0.34832 0.78 0.0
H1213 H 0.80958 0.31452 0.76654 0.0
H1214 H 0.7997 0.30116 0.69041 0.0
H1215 H 0.8044 0.2127 0.65812 0.0
H1216 H 0.79383 0.23416 0.68066 0.0
H1217 H 0.83459 0.27232 0.73865 0.0
C1218 C 0.81347 0.32693 0.75394 0.0
C1219 C 0.80724 0.29494 0.70118 0.0
C1220 C 0.81642 0.34629 0.76165 0.0
C1221 C 0.81544 0.22472 0.66958 0.0
C1222 C 0.80952 0.23719 0.68221 0.0
C1223 C 0.82675 0.27833 0.72806 0.0
C1224 C 0.81607 0.32381 0.73041 0.0
C1225 C 0.8157 0.3042 0.72269 0.0
C1226 C 0.82404 0.25411 0.69575 0.0
C1227 C 0.81915 0.26971 0.7061 0.0
H1228 H 0.82787 0.3723 0.70993 0.0
H1229 H 0.82285 0.33853 0.69639 0.0
H1230 H 0.8319 0.30209 0.7528 0.0
H1231 H 0.86621 0.24919 0.68483 0.0
H1232 H 0.85591 0.27051 0.70729 0.0
C1233 C 0.15698 1.00376 0.60025 0.0
C1234 C 0.14743 0.98687 0.61605 0.0
C1235 C 0.17249 0.02365 0.60751 0.0
C1236 C 0.19693 0.05625 0.65997 0.0
H1237 H 0.24554 0.08412 0.62049 0.0
C1238 C 0.26986 0.13088 0.69103 0.0
C1239 C 0.2881 0.13013 0.68827 0.0
C1240 C 0.25203 0.11695 0.67877 0.0
C1241 C 0.23207 0.0766 0.6317 0.0
H1242 H 0.14635 0.97787 0.65202 0.0
H1243 H 0.17346 0.01246 0.66469 0.0
H1244 H 0.21501 0.05232 0.60699 0.0
H1245 H 0.30248 0.11492 0.67038 0.0
H1246 H 0.27152 0.09057 0.649 0.0
H1247 H 0.21435 0.07987 0.68516 0.0
C1248 C 0.16878 0.01046 0.64671 0.0
C1249 C 0.21445 0.05844 0.62386 0.0
C1250 C 0.15321 0.99058 0.63946 0.0
C1251 C 0.28862 0.11601 0.67237 0.0
C1252 C 0.27086 0.10207 0.66016 0.0
C1253 C 0.21455 0.07438 0.66781 0.0
C1254 C 0.1789 0.02717 0.63075 0.0
C1255 C 0.1968 0.04775 0.63811 0.0
C1256 C 0.25213 0.10187 0.66378 0.0
C1257 C 0.23252 0.08452 0.65399 0.0
H1258 H 0.15264 1.00152 0.58215 0.0
H1259 H 0.17963 0.03622 0.59482 0.0
H1260 H 0.18353 0.04865 0.67126 0.0
H1261 H 0.26908 0.14143 0.70357 0.0
H1262 H 0.23796 0.1174 0.68176 0.0
C1263 C 0.05409 0.2096 0.65818 0.0
C1264 C 0.06944 0.22911 0.6492 0.0
C1265 C 0.03432 0.20613 0.66341 0.0
C1266 C 0.00534 0.23432 0.67383 0.0
H1267 H 0.95772 0.18145 0.65541 0.0
C1268 C 0.92536 0.22456 0.65721 0.0
C1269 C 0.90753 0.20568 0.66374 0.0
C1270 C 0.94497 0.22698 0.65992 0.0
C1271 C 0.97084 0.19615 0.66105 0.0
H1272 H 0.07611 0.26042 0.6392 0.0
H1273 H 0.0416 0.2542 0.64764 0.0
H1274 H 0.99235 0.1864 0.65108 0.0
H1275 H 0.89649 0.17496 0.67927 0.0
H1276 H 0.93088 0.17906 0.6837 0.0
H1277 H 0.98381 0.24429 0.68303 0.0
C1278 C 0.04486 0.24164 0.65097 0.0
C1279 C 0.99071 0.19901 0.65856 0.0
C1280 C 0.0646 0.24511 0.64579 0.0
C1281 C 0.90987 0.1896 0.67393 0.0
C1282 C 0.92955 0.19193 0.67639 0.0
C1283 C 0.9855 0.23149 0.67621 0.0
C1284 C 0.02944 0.22209 0.65979 0.0
C1285 C 0.00824 0.2183 0.66447 0.0
C1286 C 0.94728 0.21054 0.66906 0.0
C1287 C 0.96806 0.21253 0.66941 0.0
H1288 H 0.05723 0.19687 0.66085 0.0
H1289 H 0.02289 0.19095 0.67036 0.0
H1290 H 0.01845 0.24919 0.67906 0.0
H1291 H 0.92419 0.23736 0.64944 0.0
H1292 H 0.95829 0.24145 0.65391 0.0
C1293 C 0.87392 0.88547 0.60587 0.0
C1294 C 0.85536 0.88574 0.60868 0.0
C1295 C 0.87515 0.86771 0.61249 0.0
C1296 C 0.85349 0.82341 0.65259 0.0
H1297 H 0.86837 0.79352 0.60821 0.0
C1298 C 0.85821 0.75107 0.68066 0.0
C1299 C 0.84445 0.73285 0.66848 0.0
C1300 C 0.86408 0.77107 0.67172 0.0
C1301 C 0.86439 0.80184 0.62081 0.0
H1302 H 0.82374 0.86791 0.62098 0.0
H1303 H 0.82611 0.83724 0.63335 0.0
H1304 H 0.86923 0.82622 0.59657 0.0
H1305 H 0.82633 0.72119 0.63729 0.0
H1306 H 0.83739 0.75614 0.62101 0.0
H1307 H 0.84857 0.79917 0.67682 0.0
C1308 C 0.83959 0.8506 0.62572 0.0
C1309 C 0.86493 0.82054 0.61419 0.0
C1310 C 0.83821 0.8681 0.61861 0.0
C1311 C 0.83775 0.73498 0.64649 0.0
C1312 C 0.84386 0.75501 0.63735 0.0
C1313 C 0.8534 0.80505 0.65934 0.0
C1314 C 0.858 0.85014 0.62258 0.0
C1315 C 0.85913 0.8313 0.62993 0.0
C1316 C 0.85629 0.77323 0.6504 0.0
C1317 C 0.85856 0.79387 0.64347 0.0
H1318 H 0.88732 0.89882 0.59812 0.0
H1319 H 0.88954 0.86778 0.60996 0.0
H1320 H 0.849 0.8314 0.66507 0.0
H1321 H 0.86307 0.74983 0.69798 0.0
H1322 H 0.87374 0.78481 0.68213 0.0
C1323 C 0.05527 0.88304 0.67113 0.0
C1324 C 0.06213 0.88772 0.64802 0.0
C1325 C 0.03595 0.86561 0.67649 0.0
C1326 C 0.98532 0.82647 0.65135 0.0
H1327 H 0.98395 0.79112 0.70213 0.0
C1328 C 0.91044 0.74908 0.67698 0.0
C1329 C 0.91314 0.73153 0.67921 0.0
C1330 C 0.92763 0.76953 0.67597 0.0
C1331 C 0.98403 0.80084 0.68795 0.0
H1332 H 0.05423 0.87774 0.61245 0.0
H1333 H 0.02036 0.84728 0.62173 0.0
H1334 H 0.01564 0.82418 0.6939 0.0
H1335 H 0.93595 0.7218 0.68337 0.0
H1336 H 0.96572 0.75724 0.68196 0.0
H1337 H 0.95385 0.80272 0.64499 0.0
C1338 C 0.02975 0.8573 0.63571 0.0
C1339 C 1.00217 0.81991 0.68333 0.0
C1340 C 0.04915 0.87471 0.63036 0.0
C1341 C 0.93331 0.73496 0.68165 0.0
C1342 C 0.95041 0.75533 0.68093 0.0
C1343 C 0.96711 0.80744 0.65607 0.0
C1344 C 0.02302 0.85235 0.65888 0.0
C1345 C 1.00317 0.83283 0.66474 0.0
C1346 C 0.94785 0.77286 0.67752 0.0
C1347 C 0.96636 0.7942 0.67418 0.0
H1348 H 0.06505 0.89264 0.68512 0.0
H1349 H 0.03121 0.86239 0.69449 0.0
H1350 H 0.98548 0.83613 0.63705 0.0
H1351 H 0.89513 0.74695 0.67481 0.0
H1352 H 0.92513 0.78272 0.67353 0.0
C1353 C 0.15865 0.21406 0.70142 0.0
C1354 C 0.15945 0.23054 0.68823 0.0
C1355 C 0.17603 0.2117 0.70308 0.0
C1356 C 0.23282 0.24091 0.69504 0.0
H1357 H 0.22653 0.18539 0.68887 0.0
C1358 C 0.30043 0.22842 0.67114 0.0
C1359 C 0.30159 0.2116 0.68125 0.0
C1360 C 0.28344 0.23097 0.67527 0.0
C1361 C 0.22852 0.20096 0.69104 0.0
H1362 H 0.1785 0.25689 0.66566 0.0
H1363 H 0.20893 0.25282 0.66843 0.0
H1364 H 0.19592 0.18918 0.6894 0.0
H1365 H 0.28591 0.18453 0.70416 0.0
H1366 H 0.25614 0.18908 0.71145 0.0
H1367 H 0.26541 0.25274 0.69627 0.0
C1368 C 0.1951 0.24203 0.678 0.0
C1369 C 0.21098 0.20314 0.6913 0.0
C1370 C 0.17772 0.24434 0.67631 0.0
C1371 C 0.28554 0.19769 0.69613 0.0
C1372 C 0.26842 0.20019 0.70017 0.0
C1373 C 0.25033 0.23874 0.6948 0.0
C1374 C 0.19449 0.22572 0.69145 0.0
C1375 C 0.21296 0.22318 0.69289 0.0
C1376 C 0.2671 0.21675 0.68958 0.0
C1377 C 0.24841 0.21878 0.69237 0.0
H1378 H 0.14458 0.20304 0.71047 0.0
H1379 H 0.17508 0.19901 0.71362 0.0
H1380 H 0.23484 0.25653 0.69677 0.0
H1381 H 0.31251 0.23948 0.65962 0.0
H1382 H 0.28281 0.24373 0.66659 0.0
C1383 C 0.857 0.9897 0.61839 0.0
C1384 C 0.87354 0.98847 0.62812 0.0
C1385 C 0.85696 0.00878 0.61834 0.0
C1386 C 0.87846 0.05798 0.65165 0.0
H1387 H 0.85377 0.07509 0.60363 0.0
C1388 C 0.86475 0.12687 0.66832 0.0
C1389 C 0.84487 0.12277 0.66266 0.0
C1390 C 0.87247 0.11455 0.65895 0.0
C1391 C 0.86069 0.07054 0.61724 0.0
H1392 H 0.90365 0.00644 0.64396 0.0
H1393 H 0.90372 0.03981 0.64381 0.0
H1394 H 0.85896 0.04517 0.59707 0.0
H1395 H 0.81762 0.10311 0.64244 0.0
H1396 H 0.83083 0.08157 0.62611 0.0
H1397 H 0.87941 0.08256 0.67226 0.0
C1398 C 0.89055 0.02598 0.63662 0.0
C1399 C 0.86365 0.05336 0.61347 0.0
C1400 C 0.89059 0.00692 0.63661 0.0
C1401 C 0.83326 0.10695 0.64653 0.0
C1402 C 0.84088 0.09457 0.63722 0.0
C1403 C 0.87541 0.07504 0.65547 0.0
C1404 C 0.87351 0.02706 0.62801 0.0
C1405 C 0.87225 0.04662 0.63081 0.0
C1406 C 0.86021 0.09755 0.64413 0.0
C1407 C 0.86612 0.08135 0.63851 0.0
H1408 H 0.84372 0.97569 0.61165 0.0
H1409 H 0.84352 0.00895 0.61171 0.0
H1410 H 0.88482 0.05308 0.66556 0.0
H1411 H 0.87362 0.13838 0.68143 0.0
H1412 H 0.88755 0.11756 0.66441 0.0
C1413 C 0.53902 0.36544 0.71711 0.0
C1414 C 0.55688 0.36425 0.71282 0.0
C1415 C 0.5198 0.34707 0.71965 0.0
C1416 C 0.49304 0.29141 0.70183 0.0
H1417 H 0.44814 0.28929 0.73779 0.0
C1418 C 0.40824 0.22699 0.68592 0.0
C1419 C 0.39654 0.2364 0.67997 0.0
C1420 C 0.42732 0.23887 0.69716 0.0
C1421 C 0.46057 0.28953 0.72784 0.0
H1422 H 0.56906 0.34314 0.7097 0.0
H1423 H 0.53549 0.31093 0.71437 0.0
H1424 H 0.4835 0.31791 0.74405 0.0
H1425 H 0.39457 0.26476 0.68226 0.0
H1426 H 0.42728 0.28517 0.70228 0.0
H1427 H 0.46996 0.26351 0.68498 0.0
C1428 C 0.53619 0.32601 0.71519 0.0
C1429 C 0.48082 0.306 0.7313 0.0
C1430 C 0.55541 0.34442 0.71261 0.0
C1431 C 0.40336 0.25719 0.68676 0.0
C1432 C 0.42204 0.26883 0.69835 0.0
C1433 C 0.4728 0.27489 0.69845 0.0
C1434 C 0.51803 0.32707 0.71817 0.0
C1435 C 0.49721 0.30762 0.71768 0.0
C1436 C 0.43463 0.26011 0.70296 0.0
C1437 C 0.45624 0.27426 0.71074 0.0
H1438 H 0.53983 0.3806 0.7176 0.0
H1439 H 0.5062 0.34858 0.7217 0.0
H1440 H 0.50519 0.29216 0.69089 0.0
H1441 H 0.40331 0.21101 0.68064 0.0
H1442 H 0.43671 0.23175 0.70053 0.0
C1443 C 0.62373 0.14238 0.65359 0.0
C1444 C 0.60805 0.12408 0.6643 0.0
C1445 C 0.64379 0.14564 0.65156 0.0
C1446 C 0.67245 0.11677 0.65189 0.0
H1447 H 0.72023 0.17115 0.6656 0.0
C1448 C 0.7519 0.12675 0.67204 0.0
C1449 C 0.76994 0.14502 0.66461 0.0
C1450 C 0.73247 0.1246 0.66873 0.0
C1451 C 0.70708 0.15597 0.66129 0.0
H1452 H 0.6011 0.09533 0.68224 0.0
H1453 H 0.63611 0.10094 0.67875 0.0
H1454 H 0.68567 0.16689 0.66685 0.0
H1455 H 0.78153 0.17503 0.64702 0.0
H1456 H 0.74741 0.17123 0.64119 0.0
H1457 H 0.69374 0.10574 0.6466 0.0
C1458 C 0.63286 0.11257 0.67142 0.0
C1459 C 0.68727 0.15351 0.66208 0.0
C1460 C 0.61287 0.10938 0.67354 0.0
C1461 C 0.76797 0.1608 0.65304 0.0
C1462 C 0.74844 0.15868 0.64983 0.0
C1463 C 0.69221 0.11923 0.65103 0.0
C1464 C 0.64853 0.13065 0.66025 0.0
C1465 C 0.6697 0.13377 0.65783 0.0
C1466 C 0.73048 0.14064 0.6579 0.0
C1467 C 0.70975 0.13874 0.65618 0.0
H1468 H 0.62037 0.15404 0.64659 0.0
H1469 H 0.6555 0.15971 0.64283 0.0
H1470 H 0.65927 0.10148 0.64802 0.0
H1471 H 0.75274 0.11421 0.68095 0.0
H1472 H 0.71903 0.11062 0.67544 0.0
C1473 C 0.81926 0.46681 0.7084 0.0
C1474 C 0.83089 0.46347 0.72518 0.0
C1475 C 0.81888 0.48571 0.70784 0.0
C1476 C 0.85037 0.54137 0.72569 0.0
H1477 H 0.8028 0.5449 0.70548 0.0
C1478 C 0.85841 0.62225 0.71036 0.0
C1479 C 0.85057 0.6244 0.68914 0.0
C1480 C 0.85218 0.60223 0.71953 0.0
C1481 C 0.81625 0.54421 0.71112 0.0
H1482 H 0.85039 0.47674 0.75518 0.0
H1483 H 0.8496 0.5097 0.75449 0.0
H1484 H 0.79944 0.51043 0.71229 0.0
H1485 H 0.82986 0.60747 0.66104 0.0
H1486 H 0.81881 0.57255 0.67693 0.0
H1487 H 0.86738 0.57498 0.72387 0.0
C1488 C 0.84106 0.49792 0.74145 0.0
C1489 C 0.81433 0.52442 0.71499 0.0
C1490 C 0.84142 0.47902 0.74199 0.0
C1491 C 0.83555 0.60623 0.67788 0.0
C1492 C 0.82934 0.58619 0.68696 0.0
C1493 C 0.85228 0.5611 0.72182 0.0
C1494 C 0.83011 0.50172 0.72409 0.0
C1495 C 0.83146 0.52271 0.72198 0.0
C1496 C 0.83832 0.5839 0.70737 0.0
C1497 C 0.83535 0.56285 0.71414 0.0
H1498 H 0.81096 0.45507 0.69525 0.0
H1499 H 0.81045 0.48808 0.69408 0.0
H1500 H 0.86401 0.54077 0.73066 0.0
H1501 H 0.8706 0.63598 0.71892 0.0
H1502 H 0.85919 0.60114 0.73547 0.0
C1503 C 0.45108 0.9139 0.23573 0.0
C1504 C 0.46266 0.92004 0.25626 0.0
C1505 C 0.45993 0.924 0.21474 0.0
C1506 C 0.48524 0.94126 0.17056 0.0
H1507 H 0.51543 1.00234 0.17054 0.0
C1508 C 0.51359 0.98858 0.08527 0.0
C1509 C 0.5075 1.00376 0.08282 0.0
C1510 C 0.51278 0.97962 0.10698 0.0
C1511 C 0.50714 0.98529 0.17027 0.0
H1512 H 0.49272 0.94145 0.2708 0.0
H1513 H 0.50823 0.95913 0.23405 0.0
H1514 H 0.5042 0.98318 0.20724 0.0
H1515 H 0.49727 0.02253 0.10151 0.0
H1516 H 0.49602 0.00711 0.13921 0.0
H1517 H 0.48741 0.94335 0.13356 0.0
C1518 C 0.49226 0.94651 0.23425 0.0
C1519 C 0.50085 0.9743 0.19131 0.0
C1520 C 0.48343 0.93629 0.25525 0.0
C1521 C 0.50197 0.01081 0.10276 0.0
C1522 C 0.50137 1.00203 0.12444 0.0
C1523 C 0.49163 0.95224 0.14954 0.0
C1524 C 0.48056 0.94057 0.21378 0.0
C1525 C 0.48937 0.95216 0.19166 0.0
C1526 C 0.50614 0.98588 0.12671 0.0
C1527 C 0.50221 0.97438 0.14911 0.0
H1528 H 0.4351 0.90128 0.23589 0.0
H1529 H 0.45041 0.91918 0.19936 0.0
H1530 H 0.47666 0.9242 0.17027 0.0
H1531 H 0.51786 0.98276 0.07024 0.0
H1532 H 0.51677 0.96736 0.10822 0.0
C1533 C 0.13162 0.56396 0.2317 0.0
C1534 C 0.15184 0.58053 0.22774 0.0
C1535 C 0.11593 0.55979 0.21587 0.0
C1536 C 0.10258 0.58186 0.16462 0.0
H1537 H 0.0634 0.52288 0.15361 0.0
C1538 C 0.04836 0.54764 0.08439 0.0
C1539 C 0.02879 0.52982 0.0884 0.0
C1540 C 0.06237 0.55689 0.10265 0.0
C1541 C 0.07401 0.53945 0.1567 0.0
H1542 H 0.17152 0.6059 0.20427 0.0
H1543 H 0.14431 0.59825 0.1762 0.0
H1544 H 0.08993 0.5325 0.18266 0.0
H1545 H 0.00774 0.50928 0.11505 0.0
H1546 H 0.03197 0.52555 0.14677 0.0
H1547 H 0.08685 0.58855 0.13774 0.0
C1548 C 0.14037 0.58876 0.1918 0.0
C1549 C 0.08926 0.545 0.17345 0.0
C1550 C 0.15601 0.5931 0.20781 0.0
C1551 C 0.02281 0.52278 0.11131 0.0
C1552 C 0.03673 0.53202 0.12948 0.0
C1553 C 0.08737 0.57626 0.1476 0.0
C1554 C 0.12015 0.57189 0.19548 0.0
C1555 C 0.10373 0.56627 0.17775 0.0
C1556 C 0.05697 0.54849 0.12519 0.0
C1557 C 0.07286 0.55497 0.14357 0.0
H1558 H 0.12791 0.55424 0.24711 0.0
H1559 H 0.10048 0.547 0.21963 0.0
H1560 H 0.11332 0.59841 0.16758 0.0
H1561 H 0.05345 0.55342 0.06696 0.0
H1562 H 0.07786 0.5696 0.09881 0.0
C1563 C 0.46008 0.57604 0.22418 0.0
C1564 C 0.46034 0.59523 0.22211 0.0
C1565 C 0.46621 0.56819 0.20561 0.0
C1566 C 0.49501 0.58407 0.14946 0.0
H1567 H 0.46635 0.52373 0.1396 0.0
C1568 C 0.50113 0.51651 0.09243 0.0
C1569 C 0.50252 0.52411 0.06972 0.0
C1570 C 0.49832 0.52681 0.1112 0.0
C1571 C 0.47468 0.54061 0.14228 0.0
H1572 H 0.46687 0.62108 0.19887 0.0
H1573 H 0.47702 0.60712 0.1662 0.0
H1574 H 0.45583 0.53797 0.1714 0.0
H1575 H 0.50299 0.549 0.04918 0.0
H1576 H 0.49842 0.56728 0.08201 0.0
H1577 H 0.51348 0.58655 0.11973 0.0
C1578 C 0.47261 0.59836 0.18234 0.0
C1579 C 0.46867 0.5488 0.16057 0.0
C1580 C 0.46669 0.60632 0.20101 0.0
C1581 C 0.50233 0.54299 0.06642 0.0
C1582 C 0.49958 0.55337 0.08525 0.0
C1583 C 0.50089 0.57585 0.13095 0.0
C1584 C 0.47252 0.5792 0.1844 0.0
C1585 C 0.47883 0.57063 0.16455 0.0
C1586 C 0.49685 0.54496 0.10775 0.0
C1587 C 0.49089 0.554 0.1273 0.0
H1588 H 0.45558 0.56732 0.24035 0.0
H1589 H 0.46631 0.55361 0.20807 0.0
H1590 H 0.50338 0.60094 0.15212 0.0
H1591 H 0.50137 0.50209 0.09566 0.0
H1592 H 0.49667 0.52018 0.1284 0.0
C1593 C 0.88171 0.44109 0.80018 0.0
C1594 C 0.86403 0.42098 0.8016 0.0
C1595 C 0.89666 0.44816 0.81756 0.0
C1596 C 0.9051 0.44012 0.87859 0.0
H1597 H 0.96283 0.4692 0.86005 0.0
C1598 C 0.97034 0.47362 0.94648 0.0
C1599 C 0.98608 0.49448 0.94225 0.0
C1600 C 0.9563 0.46184 0.92905 0.0
C1601 C 0.94679 0.4612 0.86554 0.0
H1602 H 0.84783 0.39278 0.82274 0.0
H1603 H 0.87397 0.40517 0.85315 0.0
H1604 H 0.93601 0.45486 0.83057 0.0
H1605 H 1.00026 0.51875 0.91576 0.0
H1606 H 0.97592 0.49845 0.88567 0.0
H1607 H 0.91585 0.44698 0.91356 0.0
C1608 C 0.87627 0.41543 0.83855 0.0
C1609 C 0.93143 0.45302 0.84864 0.0
C1610 C 0.86139 0.4083 0.82108 0.0
C1611 C 0.9883 0.50277 0.91976 0.0
C1612 C 0.97434 0.49104 0.90238 0.0
C1613 C 0.92049 0.44842 0.89554 0.0
C1614 C 0.89421 0.43534 0.83683 0.0
C1615 C 0.91042 0.44275 0.85494 0.0
C1616 C 0.95782 0.47064 0.90695 0.0
C1617 C 0.94153 0.45946 0.88919 0.0
H1618 H 0.88427 0.45116 0.78531 0.0
H1619 H 0.91017 0.46371 0.81591 0.0
H1620 H 0.88904 0.43234 0.884 0.0
H1621 H 0.96832 0.46668 0.96349 0.0
H1622 H 0.944 0.44603 0.93306 0.0
C1623 C 0.56872 0.45596 0.77011 0.0
C1624 C 0.57402 0.44036 0.77386 0.0
C1625 C 0.55769 0.46006 0.7869 0.0
C1626 C 0.52672 0.43915 0.84148 0.0
H1627 H 0.54428 0.49804 0.85089 0.0
C1628 C 0.51072 0.47402 0.92446 0.0
C1629 C 0.50768 0.49129 0.92143 0.0
C1630 C 0.51471 0.46483 0.90534 0.0
C1631 C 0.53892 0.48148 0.84829 0.0
H1632 H 0.57169 0.41661 0.79798 0.0
H1633 H 0.55294 0.42412 0.82761 0.0
H1634 H 0.55966 0.4882 0.81987 0.0
H1635 H 0.50447 0.51111 0.89583 0.0
H1636 H 0.51113 0.49495 0.8626 0.0
H1637 H 0.50648 0.43271 0.8707 0.0
C1638 C 0.55684 0.43289 0.81149 0.0
C1639 C 0.54774 0.4758 0.83041 0.0
C1640 C 0.56768 0.42863 0.79455 0.0
C1641 C 0.50698 0.49799 0.89879 0.0
C1642 C 0.51092 0.48881 0.87974 0.0
C1643 C 0.51799 0.44489 0.85957 0.0
C1644 C 0.55193 0.44886 0.80802 0.0
C1645 C 0.54181 0.45458 0.82672 0.0
C1646 C 0.51573 0.47277 0.88287 0.0
C1647 C 0.524 0.46614 0.86314 0.0
H1648 H 0.57312 0.46502 0.75416 0.0
H1649 H 0.55379 0.47213 0.78334 0.0
H1650 H 0.52159 0.42263 0.83903 0.0
H1651 H 0.51157 0.46865 0.94166 0.0
H1652 H 0.5184 0.45251 0.90834 0.0
C1653 C 0.53117 0.10076 0.76984 0.0
C1654 C 0.53975 0.09542 0.75114 0.0
C1655 C 0.52704 0.09 0.79094 0.0
C1656 C 0.5418 0.05732 0.82554 0.0
H1657 H 0.49255 0.04395 0.86115 0.0
C1658 C 0.52293 0.00938 0.90945 0.0
C1659 C 0.51743 0.01725 0.92872 0.0
C1660 C 0.52309 0.0169 0.88719 0.0
C1661 C 0.50642 0.04769 0.85147 0.0
H1662 H 0.55051 0.07438 0.73993 0.0
H1663 H 0.54325 0.05551 0.77679 0.0
H1664 H 0.49823 0.06112 0.82334 0.0
H1665 H 0.50665 0.03833 0.93949 0.0
H1666 H 0.50704 0.05167 0.90053 0.0
H1667 H 0.55014 0.04414 0.85364 0.0
C1668 C 0.53995 0.06824 0.7752 0.0
C1669 C 0.50971 0.05755 0.82982 0.0
C1670 C 0.54413 0.07904 0.75407 0.0
C1671 C 0.51086 0.0319 0.92501 0.0
C1672 C 0.51111 0.03954 0.90267 0.0
C1673 C 0.53851 0.04746 0.84711 0.0
C1674 C 0.53139 0.07361 0.79392 0.0
C1675 C 0.52748 0.06255 0.81663 0.0
C1676 C 0.51785 0.03258 0.88361 0.0
C1677 C 0.5208 0.04254 0.86036 0.0
H1678 H 0.52795 0.11354 0.7683 0.0
H1679 H 0.52082 0.09483 0.80509 0.0
H1680 H 0.55585 0.0613 0.81609 0.0
H1681 H 0.52781 0.99786 0.91163 0.0
H1682 H 0.52785 0.0108 0.87283 0.0
C1683 C 0.14231 0.25348 0.58196 0.0
C1684 C 0.13152 0.26014 0.59642 0.0
C1685 C 0.15155 0.26432 0.56137 0.0
C1686 C 0.16894 0.31507 0.53068 0.0
H1687 H 0.15868 0.28178 0.47506 0.0
C1688 C 0.16923 0.34666 0.43963 0.0
C1689 C 0.17563 0.33947 0.42051 0.0
C1690 C 0.16875 0.3389 0.46186 0.0
C1691 C 0.1621 0.29136 0.49045 0.0
H1692 H 0.12266 0.28386 0.60101 0.0
H1693 H 0.13847 0.30254 0.56504 0.0
H1694 H 0.14827 0.26426 0.51264 0.0
H1695 H 0.18762 0.31935 0.41002 0.0
H1696 H 0.18685 0.30574 0.44898 0.0
H1697 H 0.18221 0.34213 0.50841 0.0
C1698 C 0.13993 0.28904 0.56962 0.0
C1699 C 0.15608 0.2813 0.51203 0.0
C1700 C 0.13063 0.27817 0.59011 0.0
C1701 C 0.18264 0.32519 0.42437 0.0
C1702 C 0.18202 0.31727 0.44666 0.0
C1703 C 0.17496 0.32513 0.50912 0.0
C1704 C 0.15034 0.28214 0.55488 0.0
C1705 C 0.15896 0.293 0.53234 0.0
C1706 C 0.17459 0.32368 0.46557 0.0
C1707 C 0.17113 0.31336 0.48868 0.0
H1708 H 0.14318 0.23958 0.58626 0.0
H1709 H 0.15958 0.25869 0.55049 0.0
H1710 H 0.17176 0.32458 0.54604 0.0
H1711 H 0.16381 0.35774 0.43734 0.0
H1712 H 0.16275 0.34406 0.47593 0.0
C1713 C 0.82522 0.92671 0.53943 0.0
C1714 C 0.81992 0.9145 0.55976 0.0
C1715 C 0.8102 0.92293 0.52276 0.0
C1716 C 0.75778 0.8812 0.50443 0.0
H1717 H 0.76021 0.92555 0.46551 0.0
C1718 C 0.69266 0.86308 0.44176 0.0
C1719 C 0.69899 0.86767 0.41848 0.0
C1720 C 0.70694 0.87226 0.45961 0.0
C1721 C 0.75939 0.91306 0.47629 0.0
H1722 H 0.79474 0.88945 0.57915 0.0
H1723 H 0.76836 0.88333 0.55066 0.0
H1724 H 0.78594 0.93436 0.49601 0.0
H1725 H 0.72497 0.88672 0.39579 0.0
H1726 H 0.74998 0.90317 0.42713 0.0
H1727 H 0.73114 0.85998 0.48497 0.0
C1728 C 0.78419 0.89531 0.54701 0.0
C1729 C 0.77417 0.91803 0.49368 0.0
C1730 C 0.79926 0.89886 0.56344 0.0
C1731 C 0.71956 0.88313 0.41352 0.0
C1732 C 0.73391 0.89243 0.43148 0.0
C1733 C 0.74291 0.87632 0.48738 0.0
C1734 C 0.78948 0.90704 0.52622 0.0
C1735 C 0.77359 0.90213 0.50798 0.0
C1736 C 0.72788 0.88629 0.45461 0.0
C1737 C 0.74352 0.89215 0.47313 0.0
H1738 H 0.8411 0.93881 0.53614 0.0
H1739 H 0.815 0.9321 0.50691 0.0
H1740 H 0.75707 0.86839 0.5145 0.0
H1741 H 0.67688 0.85136 0.44615 0.0
H1742 H 0.70182 0.86754 0.47732 0.0
C1743 C 0.13803 0.94171 0.53915 0.0
C1744 C 0.13026 0.9291 0.55916 0.0
C1745 C 0.14468 0.93485 0.52011 0.0
C1746 C 0.16335 0.89856 0.50455 0.0
H1747 H 0.14754 0.90377 0.44206 0.0
C1748 C 0.16787 0.8506 0.42858 0.0
C1749 C 0.17164 0.85901 0.406 0.0
C1750 C 0.16614 0.86177 0.44717 0.0
C1751 C 0.15246 0.90255 0.45933 0.0
H1752 H 0.12328 0.89937 0.57481 0.0
H1753 H 0.1347 0.8873 0.54152 0.0
H1754 H 0.13709 0.91767 0.47448 0.0
H1755 H 0.17781 0.88634 0.38566 0.0
H1756 H 0.17515 0.90612 0.41816 0.0
H1757 H 0.17863 0.88338 0.48955 0.0
C1758 C 0.13581 0.90258 0.54062 0.0
C1759 C 0.14637 0.91045 0.47793 0.0
C1760 C 0.12902 0.90936 0.55959 0.0
C1761 C 0.17485 0.87942 0.40276 0.0
C1762 C 0.17312 0.89065 0.42139 0.0
C1763 C 0.16954 0.89079 0.48598 0.0
C1764 C 0.14386 0.9153 0.52073 0.0
C1765 C 0.1514 0.90816 0.50079 0.0
C1766 C 0.16822 0.88172 0.44375 0.0
C1767 C 0.16381 0.89228 0.46316 0.0
H1768 H 0.13903 0.95694 0.53824 0.0
H1769 H 0.15086 0.94505 0.50508 0.0
H1770 H 0.16786 0.89698 0.52192 0.0
H1771 H 0.16535 0.83494 0.43183 0.0
H1772 H 0.16215 0.85424 0.46404 0.0
C1773 C 0.52795 0.74065 0.14959 0.0
C1774 C 0.52871 0.75463 0.1323 0.0
C1775 C 0.54191 0.74792 0.16798 0.0
C1776 C 0.57272 0.79276 0.204 0.0
H1777 H 0.60975 0.77063 0.21269 0.0
C1778 C 0.62548 0.81293 0.28347 0.0
C1779 C 0.64658 0.82361 0.2776 0.0
C1780 C 0.61052 0.80206 0.26663 0.0
C1781 C 0.5994 0.77681 0.21048 0.0
H1782 H 0.5448 0.78743 0.12134 0.0
H1783 H 0.56838 0.80013 0.1542 0.0
H1784 H 0.58408 0.75684 0.18141 0.0
H1785 H 0.6687 0.83094 0.24979 0.0
H1786 H 0.64239 0.81123 0.22028 0.0
H1787 H 0.58777 0.8125 0.23321 0.0
C1788 C 0.55708 0.7835 0.15311 0.0
C1789 C 0.58476 0.76893 0.19272 0.0
C1790 C 0.54343 0.77619 0.1344 0.0
C1791 C 0.65253 0.82255 0.25477 0.0
C1792 C 0.63753 0.81131 0.23797 0.0
C1793 C 0.587 0.80027 0.22207 0.0
C1794 C 0.55659 0.76938 0.16986 0.0
C1795 C 0.57148 0.77704 0.18919 0.0
C1796 C 0.61641 0.80151 0.24366 0.0
C1797 C 0.60059 0.79251 0.22531 0.0
H1798 H 0.51655 0.72404 0.149 0.0
H1799 H 0.54111 0.7368 0.1809 0.0
H1800 H 0.56258 0.79917 0.20162 0.0
H1801 H 0.6205 0.81413 0.30075 0.0
H1802 H 0.59431 0.79469 0.27138 0.0
C1803 C 0.2347 0.79131 0.10499 0.0
C1804 C 0.23984 0.77555 0.10836 0.0
C1805 C 0.22389 0.79543 0.12204 0.0
C1806 C 0.19304 0.77414 0.17664 0.0
H1807 H 0.21065 0.83295 0.18671 0.0
C1808 C 0.17701 0.80843 0.26012 0.0
C1809 C 0.17396 0.82571 0.25727 0.0
C1810 C 0.18102 0.79936 0.2409 0.0
C1811 C 0.20528 0.81641 0.18393 0.0
H1812 H 0.23751 0.75158 0.13216 0.0
H1813 H 0.21914 0.75911 0.16224 0.0
H1814 H 0.22602 0.82335 0.15545 0.0
H1815 H 0.1707 0.84564 0.23186 0.0
H1816 H 0.17738 0.82969 0.19845 0.0
H1817 H 0.17281 0.76748 0.20591 0.0
C1818 C 0.22299 0.76799 0.1462 0.0
C1819 C 0.21409 0.81087 0.16591 0.0
C1820 C 0.23361 0.76372 0.129 0.0
C1821 C 0.17322 0.83251 0.23469 0.0
C1822 C 0.17718 0.82346 0.21554 0.0
C1823 C 0.18432 0.77974 0.19487 0.0
C1824 C 0.21818 0.78407 0.14307 0.0
C1825 C 0.20814 0.78967 0.16198 0.0
C1826 C 0.18204 0.80743 0.21849 0.0
C1827 C 0.19034 0.80096 0.19867 0.0
H1828 H 0.23901 0.80045 0.08909 0.0
H1829 H 0.22006 0.80759 0.11874 0.0
H1830 H 0.18788 0.75763 0.174 0.0
H1831 H 0.17788 0.80296 0.27727 0.0
H1832 H 0.18472 0.78703 0.24376 0.0
C1833 C 0.20221 0.43751 0.10829 0.0
C1834 C 0.21076 0.43223 0.08951 0.0
C1835 C 0.19862 0.42704 0.12955 0.0
C1836 C 0.21457 0.39541 0.16427 0.0
H1837 H 0.16437 0.37966 0.19913 0.0
C1838 C 0.19581 0.34598 0.24719 0.0
C1839 C 0.18906 0.35269 0.26643 0.0
C1840 C 0.19633 0.35402 0.22511 0.0
C1841 C 0.17853 0.3841 0.18969 0.0
H1842 H 0.22213 0.41167 0.07838 0.0
H1843 H 0.21594 0.39344 0.1155 0.0
H1844 H 0.17002 0.39735 0.16167 0.0
H1845 H 0.17653 0.37227 0.27727 0.0
H1846 H 0.17762 0.38654 0.23868 0.0
H1847 H 0.22324 0.38242 0.19228 0.0
C1848 C 0.21221 0.40586 0.11384 0.0
C1849 C 0.18179 0.39425 0.16823 0.0
C1850 C 0.21579 0.41633 0.09257 0.0
C1851 C 0.18174 0.36675 0.26282 0.0
C1852 C 0.18237 0.37491 0.24068 0.0
C1853 C 0.21133 0.38529 0.18568 0.0
C1854 C 0.20353 0.41106 0.13258 0.0
C1855 C 0.19987 0.40004 0.15528 0.0
C1856 C 0.19024 0.36907 0.22167 0.0
C1857 C 0.19327 0.37948 0.19866 0.0
H1858 H 0.19848 0.44993 0.10666 0.0
H1859 H 0.19227 0.43171 0.14372 0.0
H1860 H 0.22883 0.39998 0.15498 0.0
H1861 H 0.20133 0.33496 0.24927 0.0
H1862 H 0.20197 0.34876 0.21077 0.0
C1863 C 0.80801 0.58021 0.91348 0.0
C1864 C 0.79762 0.58708 0.9283 0.0
C1865 C 0.81771 0.59148 0.89324 0.0
C1866 C 0.83709 0.64338 0.86435 0.0
H1867 H 0.8249 0.61137 0.80746 0.0
C1868 C 0.83696 0.67788 0.77523 0.0
C1869 C 0.84251 0.67077 0.75536 0.0
C1870 C 0.83674 0.66949 0.79702 0.0
C1871 C 0.82887 0.62058 0.8232 0.0
H1872 H 0.79002 0.6116 0.93399 0.0
H1873 H 0.80669 0.63108 0.89869 0.0
H1874 H 0.81439 0.59292 0.84454 0.0
H1875 H 0.85325 0.65005 0.74304 0.0
H1876 H 0.85293 0.63535 0.78123 0.0
H1877 H 0.85099 0.67102 0.84297 0.0
C1878 C 0.80746 0.61706 0.90268 0.0
C1879 C 0.8228 0.60998 0.84449 0.0
C1880 C 0.79768 0.60576 0.92279 0.0
C1881 C 0.84896 0.65589 0.758 0.0
C1882 C 0.84859 0.64734 0.77985 0.0
C1883 C 0.84317 0.65397 0.84309 0.0
C1884 C 0.81739 0.60995 0.88751 0.0
C1885 C 0.82632 0.62124 0.86526 0.0
C1886 C 0.84197 0.65368 0.79953 0.0
C1887 C 0.83862 0.64269 0.82221 0.0
H1888 H 0.80815 0.56582 0.9172 0.0
H1889 H 0.82535 0.58566 0.88199 0.0
H1890 H 0.84041 0.65253 0.88008 0.0
H1891 H 0.83199 0.68938 0.77386 0.0
H1892 H 0.83136 0.67462 0.81172 0.0
C1893 C 0.49717 0.26807 0.87038 0.0
C1894 C 0.49097 0.25384 0.88909 0.0
C1895 C 0.48278 0.26659 0.85398 0.0
C1896 C 0.42732 0.24634 0.84537 0.0
H1897 H 0.43857 0.24264 0.78045 0.0
C1898 C 0.36318 0.20453 0.77885 0.0
C1899 C 0.36711 0.20934 0.75513 0.0
C1900 C 0.37852 0.21555 0.79524 0.0
C1901 C 0.4353 0.24419 0.7984 0.0
H1902 H 0.46484 0.22717 0.90554 0.0
H1903 H 0.4396 0.22469 0.87699 0.0
H1904 H 0.46531 0.25056 0.80912 0.0
H1905 H 0.38956 0.23111 0.73039 0.0
H1906 H 0.41631 0.25077 0.75906 0.0
H1907 H 0.39731 0.23987 0.83484 0.0
C1908 C 0.45561 0.23696 0.87501 0.0
C1909 C 0.45063 0.2486 0.81485 0.0
C1910 C 0.47006 0.23823 0.89121 0.0
C1911 C 0.38608 0.22686 0.74846 0.0
C1912 C 0.4015 0.23799 0.76491 0.0
C1913 C 0.41209 0.24222 0.82892 0.0
C1914 C 0.46184 0.25107 0.85618 0.0
C1915 C 0.44655 0.24905 0.83856 0.0
C1916 C 0.39821 0.23184 0.7884 0.0
C1917 C 0.4156 0.24035 0.80528 0.0
H1918 H 0.51323 0.28018 0.86827 0.0
H1919 H 0.48799 0.27767 0.83966 0.0
H1920 H 0.42392 0.24701 0.86351 0.0
H1921 H 0.34867 0.19126 0.78469 0.0
H1922 H 0.37531 0.21018 0.81305 0.0
C1923 C 0.79037 0.24218 0.89265 0.0
C1924 C 0.79102 0.26154 0.89024 0.0
C1925 C 0.79654 0.23404 0.87438 0.0
C1926 C 0.82641 0.24962 0.81892 0.0
H1927 H 0.79718 0.18933 0.80864 0.0
C1928 C 0.83215 0.18186 0.76175 0.0
C1929 C 0.83443 0.19002 0.73917 0.0
C1930 C 0.82909 0.19196 0.78055 0.0
C1931 C 0.80568 0.20619 0.81145 0.0
H1932 H 0.79814 0.28731 0.86662 0.0
H1933 H 0.80839 0.27291 0.83452 0.0
H1934 H 0.78646 0.20369 0.84017 0.0
H1935 H 0.83622 0.21572 0.71897 0.0
H1936 H 0.83113 0.23359 0.75181 0.0
H1937 H 0.84529 0.252 0.78966 0.0
C1938 C 0.80368 0.26423 0.85071 0.0
C1939 C 0.79955 0.21445 0.82958 0.0
C1940 C 0.7977 0.27245 0.86906 0.0
C1941 C 0.83482 0.20922 0.7361 0.0
C1942 C 0.8318 0.21939 0.75494 0.0
C1943 C 0.83244 0.24135 0.80061 0.0
C1944 C 0.80331 0.24497 0.85315 0.0
C1945 C 0.80986 0.23627 0.83365 0.0
C1946 C 0.82824 0.21048 0.77727 0.0
C1947 C 0.82221 0.21952 0.79677 0.0
H1948 H 0.78557 0.23356 0.90888 0.0
H1949 H 0.79636 0.21935 0.87708 0.0
H1950 H 0.83493 0.26648 0.82169 0.0
H1951 H 0.83192 0.16718 0.76482 0.0
H1952 H 0.82681 0.18493 0.79761 0.0
C1953 C 0.19359 0.09463 0.48923 0.0
C1954 C 0.1996 0.09021 0.46793 0.0
C1955 C 0.20703 0.10105 0.50814 0.0
C1956 C 0.25579 0.10364 0.52881 0.0
H1957 H 0.25481 0.14262 0.57331 0.0
C1958 C 0.32131 0.1562 0.59316 0.0
C1959 C 0.31515 0.15685 0.61601 0.0
C1960 C 0.30654 0.1446 0.57629 0.0
C1961 C 0.25508 0.13153 0.56114 0.0
H1962 H 0.22431 0.0894 0.44926 0.0
H1963 H 0.24831 0.10178 0.4817 0.0
H1964 H 0.2308 0.13069 0.54104 0.0
H1965 H 0.28886 0.14593 0.63919 0.0
H1966 H 0.26307 0.12574 0.60973 0.0
H1967 H 0.28102 0.10565 0.54852 0.0
C1968 C 0.233 0.09955 0.48434 0.0
C1969 C 0.24124 0.12458 0.54264 0.0
C1970 C 0.21938 0.0927 0.46562 0.0
C1971 C 0.29407 0.1451 0.6219 0.0
C1972 C 0.2793 0.13382 0.60499 0.0
C1973 C 0.26993 0.11097 0.54708 0.0
C1974 C 0.22696 0.1036 0.50599 0.0
C1975 C 0.24142 0.11059 0.52611 0.0
C1976 C 0.28538 0.13393 0.58192 0.0
C1977 C 0.2697 0.12499 0.56337 0.0
H1978 H 0.17826 0.09253 0.49143 0.0
H1979 H 0.20157 0.10359 0.52454 0.0
H1980 H 0.25616 0.0925 0.51684 0.0
H1981 H 0.33745 0.16537 0.58815 0.0
H1982 H 0.31158 0.14505 0.55857 0.0
C1983 C 0.90533 0.12795 0.43856 0.0
C1984 C 0.90955 0.11147 0.44127 0.0
C1985 C 0.89466 0.13208 0.45577 0.0
C1986 C 0.86243 0.10978 0.50929 0.0
H1987 H 0.88136 0.16862 0.52137 0.0
C1988 C 0.84514 0.14283 0.59309 0.0
C1989 C 0.84237 0.1603 0.59034 0.0
C1990 C 0.84959 0.13408 0.5739 0.0
C1991 C 0.87565 0.15208 0.51802 0.0
H1992 H 0.90577 0.08627 0.46404 0.0
H1993 H 0.88767 0.09383 0.49445 0.0
H1994 H 0.89705 0.1593 0.49018 0.0
H1995 H 0.84015 0.18096 0.56505 0.0
H1996 H 0.84768 0.16562 0.5317 0.0
H1997 H 0.84152 0.10282 0.53795 0.0
C1998 C 0.89213 0.10328 0.4788 0.0
C1999 C 0.88464 0.14671 0.50005 0.0
C2000 C 0.90259 0.09899 0.46142 0.0
C2001 C 0.84243 0.16767 0.56782 0.0
C2002 C 0.84687 0.15897 0.54871 0.0
C2003 C 0.85355 0.11522 0.5275 0.0
C2004 C 0.88819 0.12003 0.47631 0.0
C2005 C 0.87816 0.12549 0.49535 0.0
C2006 C 0.85137 0.14269 0.55164 0.0
C2007 C 0.86003 0.13644 0.53198 0.0
H2008 H 0.91021 0.13761 0.42304 0.0
H2009 H 0.89151 0.14478 0.45294 0.0
H2010 H 0.85686 0.09327 0.50605 0.0
H2011 H 0.84541 0.13694 0.6102 0.0
H2012 H 0.85302 0.12155 0.57671 0.0
C2013 C 0.88159 0.75039 0.42808 0.0
C2014 C 0.87702 0.76659 0.42488 0.0
C2015 C 0.87775 0.73997 0.44941 0.0
C2016 C 0.84742 0.72966 0.50387 0.0
H2017 H 0.88662 0.71436 0.52736 0.0
C2018 C 0.84669 0.70102 0.59823 0.0
C2019 C 0.85255 0.68574 0.60131 0.0
C2020 C 0.84743 0.70943 0.5762 0.0
C2021 C 0.87534 0.71825 0.52092 0.0
H2022 H 0.86543 0.785 0.44175 0.0
H2023 H 0.85899 0.76705 0.47904 0.0
H2024 H 0.89317 0.73245 0.49029 0.0
H2025 H 0.8622 0.6661 0.58341 0.0
H2026 H 0.8631 0.68042 0.54511 0.0
H2027 H 0.82977 0.71565 0.53482 0.0
C2028 C 0.86507 0.76201 0.46493 0.0
C2029 C 0.87912 0.72864 0.49963 0.0
C2030 C 0.86883 0.77236 0.44358 0.0
C2031 C 0.85784 0.67806 0.5817 0.0
C2032 C 0.85849 0.68637 0.55975 0.0
C2033 C 0.84367 0.71929 0.52526 0.0
C2034 C 0.86936 0.74559 0.46809 0.0
C2035 C 0.86521 0.73446 0.49079 0.0
C2036 C 0.854 0.70265 0.55683 0.0
C2037 C 0.85757 0.7134 0.53398 0.0
H2038 H 0.88766 0.74541 0.41391 0.0
H2039 H 0.88099 0.72721 0.45111 0.0
H2040 H 0.83623 0.73366 0.49745 0.0
H2041 H 0.84271 0.70734 0.61299 0.0
H2042 H 0.84392 0.72201 0.57456 0.0
loop_
_geom_bond_atom_site_label_1
_geom_bond_atom_site_label_2
_geom_bond_distance
_geom_bond_site_symmetry_2
_ccdc_geom_bond_type
H0 C7 0.929 . S
H1 C10 0.930 . S
H2 C12 0.929 . S
H3 C4 0.969 . S
C4 H3 0.969 . S
C4 O5 1.550 . S
C4 H6 0.973 . S
O5 C4 1.550 . S
O5 C11 1.412 . S
H6 C4 0.973 . S
C7 H0 0.929 . S
C7 C8 1.400 . S
C7 C9 1.364 . S
C8 C7 1.400 . S
C8 C12 1.377 . S
C9 C7 1.364 . S
C9 C10 1.374 . S
C10 H1 0.930 . S
C10 C9 1.374 . S
C10 C11 1.383 . S
C11 O5 1.412 . S
C11 C10 1.383 . S
C11 C12 1.394 . S
C12 H2 0.929 . S
C12 C8 1.377 . S
C12 C11 1.394 . S
H13 C20 0.929 . S
H14 C23 0.930 . S
H15 C25 0.929 . S
H16 C17 0.969 . S
C17 H16 0.969 . S
C17 O18 1.550 . S
C17 H19 0.973 . S
O18 C17 1.550 . S
O18 C24 1.412 . S
H19 C17 0.973 . S
C20 H13 0.929 . S
C20 C21 1.400 . S
C20 C22 1.364 . S
C21 C20 1.400 . S
C21 C25 1.377 . S
C22 C20 1.364 . S
C22 C23 1.374 . S
C23 H14 0.930 . S
C23 C22 1.374 . S
C23 C24 1.383 . S
C24 O18 1.412 . S
C24 C23 1.383 . S
C24 C25 1.394 . S
C25 H15 0.929 . S
C25 C21 1.377 . S
C25 C24 1.394 . S
H26 C33 0.929 . S
H27 C36 0.930 . S
H28 C38 0.929 . S
H29 C30 0.969 . S
C30 H29 0.969 . S
C30 O31 1.550 . S
C30 H32 0.973 . S
O31 C30 1.550 . S
O31 C37 1.412 . S
H32 C30 0.973 . S
C33 H26 0.929 . S
C33 C34 1.400 . S
C33 C35 1.364 . S
C34 C33 1.400 . S
C34 C38 1.377 . S
C35 C33 1.364 . S
C35 C36 1.374 . S
C36 H27 0.930 . S
C36 C35 1.374 . S
C36 C37 1.383 . S
C37 O31 1.412 . S
C37 C36 1.383 . S
C37 C38 1.394 . S
C38 H28 0.929 . S
C38 C34 1.377 . S
C38 C37 1.394 . S
H39 C46 0.929 . S
H40 C49 0.930 . S
H41 C51 0.929 . S
H42 C43 0.969 . S
C43 H42 0.969 . S
C43 O44 1.550 . S
C43 H45 0.973 . S
O44 C43 1.550 . S
O44 C50 1.412 . S
H45 C43 0.973 . S
C46 H39 0.929 . S
C46 C47 1.400 . S
C46 C48 1.364 . S
C47 C46 1.400 . S
C47 C51 1.377 . S
C48 C46 1.364 . S
C48 C49 1.374 . S
C49 H40 0.930 . S
C49 C48 1.374 . S
C49 C50 1.383 . S
C50 O44 1.412 . S
C50 C49 1.383 . S
C50 C51 1.394 . S
C51 H41 0.929 . S
C51 C47 1.377 . S
C51 C50 1.394 . S
H52 C59 0.929 . S
H53 C62 0.930 . S
H54 C64 0.929 . S
H55 C56 0.969 . S
C56 H55 0.969 . S
C56 O57 1.550 . S
C56 H58 0.973 . S
O57 C56 1.550 . S
O57 C63 1.412 . S
H58 C56 0.973 . S
C59 H52 0.929 . S
C59 C60 1.400 . S
C59 C61 1.364 . S
C60 C59 1.400 . S
C60 C64 1.377 . S
C61 C59 1.364 . S
C61 C62 1.374 . S
C62 H53 0.930 . S
C62 C61 1.374 . S
C62 C63 1.383 . S
C63 O57 1.412 . S
C63 C62 1.383 . S
C63 C64 1.394 . S
C64 H54 0.929 . S
C64 C60 1.377 . S
C64 C63 1.394 . S
H65 C72 0.929 . S
H66 C75 0.930 . S
H67 C77 0.929 . S
H68 C69 0.969 . S
C69 H68 0.969 . S
C69 O70 1.550 . S
C69 H71 0.973 . S
O70 C69 1.550 . S
O70 C76 1.412 . S
H71 C69 0.973 . S
C72 H65 0.929 . S
C72 C73 1.400 . S
C72 C74 1.364 . S
C73 C72 1.400 . S
C73 C77 1.377 . S
C74 C72 1.364 . S
C74 C75 1.374 . S
C75 H66 0.930 . S
C75 C74 1.374 . S
C75 C76 1.383 . S
C76 O70 1.412 . S
C76 C75 1.383 . S
C76 C77 1.394 . S
C77 H67 0.929 . S
C77 C73 1.377 . S
C77 C76 1.394 . S
H78 C85 0.929 . S
H79 C88 0.930 . S
H80 C90 0.929 . S
H81 C82 0.969 . S
C82 H81 0.969 . S
C82 O83 1.550 . S
C82 H84 0.973 . S
O83 C82 1.550 . S
O83 C89 1.412 . S
H84 C82 0.973 . S
C85 H78 0.929 . S
C85 C86 1.400 . S
C85 C87 1.364 . S
C86 C85 1.400 . S
C86 C90 1.377 . S
C87 C85 1.364 . S
C87 C88 1.374 . S
C88 H79 0.930 . S
C88 C87 1.374 . S
C88 C89 1.383 . S
C89 O83 1.412 . S
C89 C88 1.383 . S
C89 C90 1.394 . S
C90 H80 0.929 . S
C90 C86 1.377 . S
C90 C89 1.394 . S
H91 C98 0.929 . S
H92 C101 0.930 . S
H93 C103 0.929 . S
H94 C95 0.969 . S
C95 H94 0.969 . S
C95 O96 1.550 . S
C95 H97 0.973 . S
O96 C95 1.550 . S
O96 C102 1.412 . S
H97 C95 0.973 . S
C98 H91 0.929 . S
C98 C99 1.400 . S
C98 C100 1.364 . S
C99 C98 1.400 . S
C99 C103 1.377 . S
C100 C98 1.364 . S
C100 C101 1.374 . S
C101 H92 0.930 . S
C101 C100 1.374 . S
C101 C102 1.383 . S
C102 O96 1.412 . S
C102 C101 1.383 . S
C102 C103 1.394 . S
C103 H93 0.929 . S
C103 C99 1.377 . S
C103 C102 1.394 . S
H104 C111 0.929 . S
H105 C114 0.930 . S
H106 C116 0.929 . S
H107 C108 0.969 . S
C108 H107 0.969 . S
C108 O109 1.550 . S
C108 H110 0.973 . S
O109 C108 1.550 . S
O109 C115 1.412 . S
H110 C108 0.973 . S
C111 H104 0.929 . S
C111 C112 1.400 . S
C111 C113 1.364 . S
C112 C111 1.400 . S
C112 C116 1.377 . S
C113 C111 1.364 . S
C113 C114 1.374 . S
C114 H105 0.930 . S
C114 C113 1.374 . S
C114 C115 1.383 . S
C115 O109 1.412 . S
C115 C114 1.383 . S
C115 C116 1.394 . S
C116 H106 0.929 . S
C116 C112 1.377 . S
C116 C115 1.394 . S
H117 C124 0.929 . S
H118 C127 0.930 . S
H119 C129 0.929 . S
H120 C121 0.978 . S
C121 H120 0.978 . S
C121 O122 1.554 . S
C121 H123 0.950 1_554 S
O122 C121 1.554 . S
O122 C128 1.412 1_554 S
H123 C121 0.950 1_556 S
C124 H117 0.929 . S
C124 C125 1.400 . S
C124 C126 1.364 . S
C125 C124 1.400 . S
C125 C129 1.377 1_556 S
C126 C124 1.364 . S
C126 C127 1.374 . S
C127 H118 0.930 . S
C127 C126 1.374 . S
C127 C128 1.383 . S
C128 O122 1.412 1_556 S
C128 C127 1.383 . S
C128 C129 1.394 1_556 S
C129 H119 0.929 . S
C129 C125 1.377 1_554 S
C129 C128 1.394 1_554 S
H130 C137 0.929 . S
H131 C140 0.930 . S
H132 C142 0.929 . S
H133 C134 0.969 . S
C134 H133 0.969 . S
C134 O135 1.550 . S
C134 H136 0.973 1_554 S
O135 C134 1.550 . S
O135 C141 1.412 1_554 S
H136 C134 0.973 1_556 S
C137 H130 0.929 . S
C137 C138 1.400 . S
C137 C139 1.364 . S
C138 C137 1.400 . S
C138 C142 1.377 1_556 S
C139 C137 1.364 . S
C139 C140 1.374 . S
C140 H131 0.930 . S
C140 C139 1.374 . S
C140 C141 1.383 . S
C141 O135 1.412 1_556 S
C141 C140 1.383 . S
C141 C142 1.394 1_556 S
C142 H132 0.929 . S
C142 C138 1.377 1_554 S
C142 C141 1.394 1_554 S
H143 C150 0.929 . S
H144 C153 0.930 . S
H145 C155 0.959 . S
H146 C147 0.969 1_554 S
C147 H146 0.969 1_556 S
C147 O148 1.547 1_556 S
C147 H149 0.973 . S
O148 C147 1.547 1_554 S
O148 C154 1.405 1_554 S
H149 C147 0.973 . S
C150 H143 0.929 . S
C150 C151 1.400 . S
C150 C152 1.364 . S
C151 C150 1.400 . S
C151 C155 1.361 1_556 S
C152 C150 1.364 . S
C152 C153 1.374 . S
C153 H144 0.930 . S
C153 C152 1.374 . S
C153 C154 1.383 . S
C154 O148 1.405 1_556 S
C154 C153 1.383 . S
C154 C155 1.381 1_556 S
C155 H145 0.959 . S
C155 C151 1.361 1_554 S
C155 C154 1.381 1_554 S
H156 C163 0.929 . S
H157 C166 0.930 . S
H158 C168 0.971 . S
H159 C160 0.969 . S
C160 H159 0.969 . S
C160 O161 1.550 . S
C160 H162 0.973 . S
O161 C160 1.550 . S
O161 C167 1.412 . S
H162 C160 0.973 . S
C163 H156 0.929 . S
C163 C164 1.400 . S
C163 C165 1.364 . S
C164 C163 1.400 . S
C164 C168 1.377 . S
C165 C163 1.364 . S
C165 C166 1.374 . S
C166 H157 0.930 . S
C166 C165 1.374 . S
C166 C167 1.383 . S
C167 O161 1.412 . S
C167 C166 1.383 . S
C167 C168 1.394 . S
C168 H158 0.971 . S
C168 C164 1.377 . S
C168 C167 1.394 . S
H169 C176 0.929 . S
H170 C179 0.930 . S
H171 C181 0.929 1_556 S
H172 C173 0.969 . S
C173 H172 0.969 . S
C173 O174 1.550 . S
C173 H175 0.973 . S
O174 C173 1.550 . S
O174 C180 1.412 . S
H175 C173 0.973 . S
C176 H169 0.929 . S
C176 C177 1.400 . S
C176 C178 1.364 . S
C177 C176 1.400 . S
C177 C181 1.377 . S
C178 C176 1.364 . S
C178 C179 1.374 . S
C179 H170 0.930 . S
C179 C178 1.374 . S
C179 C180 1.383 . S
C180 O174 1.412 . S
C180 C179 1.383 . S
C180 C181 1.394 . S
C181 H171 0.929 1_554 S
C181 C177 1.377 . S
C181 C180 1.394 . S
H182 C189 0.929 . S
H183 C192 0.930 . S
H184 C194 0.929 . S
H185 C186 0.969 . S
C186 H185 0.969 . S
C186 O187 1.550 . S
C186 H188 0.973 . S
O187 C186 1.550 . S
O187 C193 1.412 . S
H188 C186 0.973 . S
C189 H182 0.929 . S
C189 C190 1.400 . S
C189 C191 1.364 . S
C190 C189 1.400 . S
C190 C194 1.377 . S
C191 C189 1.364 . S
C191 C192 1.374 . S
C192 H183 0.930 . S
C192 C191 1.374 . S
C192 C193 1.383 . S
C193 O187 1.412 . S
C193 C192 1.383 . S
C193 C194 1.394 . S
C194 H184 0.929 . S
C194 C190 1.377 . S
C194 C193 1.394 . S
H195 C202 0.929 . S
H196 C205 0.930 . S
H197 C207 0.929 . S
H198 C199 0.969 . S
C199 H198 0.969 . S
C199 O200 1.550 . S
C199 H201 0.973 . S
O200 C199 1.550 . S
O200 C206 1.412 . S
H201 C199 0.973 . S
C202 H195 0.929 . S
C202 C203 1.400 . S
C202 C204 1.364 . S
C203 C202 1.400 . S
C203 C207 1.377 . S
C204 C202 1.364 . S
C204 C205 1.374 . S
C205 H196 0.930 . S
C205 C204 1.374 . S
C205 C206 1.383 . S
C206 O200 1.412 . S
C206 C205 1.383 . S
C206 C207 1.394 . S
C207 H197 0.929 . S
C207 C203 1.377 . S
C207 C206 1.394 . S
H208 C215 0.929 . S
H209 C218 0.930 . S
H210 C220 0.929 . S
H211 C212 0.969 . S
C212 H211 0.969 . S
C212 O213 1.550 . S
C212 H214 0.973 . S
O213 C212 1.550 . S
O213 C219 1.412 . S
H214 C212 0.973 . S
C215 H208 0.929 . S
C215 C216 1.400 . S
C215 C217 1.364 . S
C216 C215 1.400 . S
C216 C220 1.377 . S
C217 C215 1.364 . S
C217 C218 1.374 . S
C218 H209 0.930 . S
C218 C217 1.374 . S
C218 C219 1.383 . S
C219 O213 1.412 . S
C219 C218 1.383 . S
C219 C220 1.394 . S
C220 H210 0.929 . S
C220 C216 1.377 . S
C220 C219 1.394 . S
H221 C228 0.929 . S
H222 C231 0.930 . S
H223 C233 0.929 . S
H224 C225 0.969 . S
C225 H224 0.969 . S
C225 O226 1.550 . S
C225 H227 0.973 . S
O226 C225 1.550 . S
O226 C232 1.412 . S
H227 C225 0.973 . S
C228 H221 0.929 . S
C228 C229 1.400 . S
C228 C230 1.364 . S
C229 C228 1.400 . S
C229 C233 1.377 . S
C230 C228 1.364 . S
C230 C231 1.374 . S
C231 H222 0.930 . S
C231 C230 1.374 . S
C231 C232 1.383 . S
C232 O226 1.412 . S
C232 C231 1.383 . S
C232 C233 1.394 . S
C233 H223 0.929 . S
C233 C229 1.377 . S
C233 C232 1.394 . S
O234 Mn235 2.163 1_565 S
O234 C248 1.244 . S
Mn235 O234 2.163 1_545 S
Mn235 O238 2.160 . S
Mn235 O239 2.221 1_545 S
Mn235 O241 2.163 1_554 S
Mn235 O243 2.160 . S
Mn235 O253 2.221 . S
O236 Mn237 2.087 1_565 S
O236 C248 1.256 . S
Mn237 O236 2.087 1_545 S
Mn237 O244 2.089 1_545 S
Mn237 O253 2.290 . S
Mn237 O254 2.251 . S
O238 Mn235 2.160 . S
O238 C249 1.239 . S
O239 Mn235 2.221 1_565 S
O239 Mn240 2.290 1_564 S
O239 C250 1.278 1_554 S
Mn240 O239 2.290 1_546 S
Mn240 O242 2.089 . S
Mn240 O245 2.251 1_545 S
Mn240 O246 2.087 . S
O241 Mn235 2.163 1_556 S
O241 C251 1.244 . S
O242 Mn240 2.089 . S
O242 C249 1.256 1_556 S
O243 Mn235 2.160 . S
O243 C252 1.239 1_545 S
O244 Mn237 2.089 1_565 S
O244 C252 1.256 . S
O245 Mn240 2.251 1_565 S
O245 C250 1.241 . S
O246 Mn240 2.087 . S
O246 C251 1.256 . S
C247 O253 1.278 . S
C247 O254 1.241 . S
C248 O234 1.244 . S
C248 O236 1.256 . S
C249 O238 1.239 . S
C249 O242 1.256 1_554 S
C250 O239 1.278 1_556 S
C250 O245 1.241 . S
C251 O241 1.244 . S
C251 O246 1.256 . S
C252 O243 1.239 1_565 S
C252 O244 1.256 . S
O253 Mn235 2.221 . S
O253 Mn237 2.290 . S
O253 C247 1.278 . S
O254 Mn237 2.251 . S
O254 C247 1.241 . S
O255 Mn256 2.163 . S
O255 C269 1.244 . S
Mn256 O255 2.163 . S
Mn256 O259 2.160 1_455 S
Mn256 O260 2.221 . S
Mn256 O262 2.163 1_454 S
Mn256 O264 2.160 . S
Mn256 O274 2.221 1_455 S
O257 Mn258 2.087 . S
O257 C269 1.256 . S
Mn258 O257 2.087 . S
Mn258 O265 2.089 . S
Mn258 O274 2.290 1_455 S
Mn258 O275 2.251 1_455 S
O259 Mn256 2.160 1_655 S
O259 C270 1.239 . S
O260 Mn256 2.221 . S
O260 Mn261 2.290 1_554 S
O260 C271 1.278 1_554 S
Mn261 O260 2.290 1_556 S
Mn261 O263 2.089 1_455 S
Mn261 O266 2.251 . S
Mn261 O267 2.087 . S
O262 Mn256 2.163 1_656 S
O262 C272 1.244 . S
O263 Mn261 2.089 1_655 S
O263 C270 1.256 1_556 S
O264 Mn256 2.160 . S
O264 C273 1.239 . S
O265 Mn258 2.089 . S
O265 C273 1.256 . S
O266 Mn261 2.251 . S
O266 C271 1.241 . S
O267 Mn261 2.087 . S
O267 C272 1.256 1_455 S
C268 O274 1.278 . S
C268 O275 1.241 . S
C269 O255 1.244 . S
C269 O257 1.256 . S
C270 O259 1.239 . S
C270 O263 1.256 1_554 S
C271 O260 1.278 1_556 S
C271 O266 1.241 . S
C272 O262 1.244 . S
C272 O267 1.256 1_655 S
C273 O264 1.239 . S
C273 O265 1.256 . S
O274 Mn256 2.221 1_655 S
O274 Mn258 2.290 1_655 S
O274 C268 1.278 . S
O275 Mn258 2.251 1_655 S
O275 C268 1.241 . S
O276 Mn277 2.163 . S
O276 C290 1.244 . S
Mn277 O276 2.163 . S
Mn277 O280 2.155 1_554 S
Mn277 O281 2.221 . S
Mn277 O283 2.163 . S
Mn277 O285 2.160 1_554 S
Mn277 O295 2.221 1_554 S
O278 Mn279 2.087 . S
O278 C290 1.256 1_556 S
Mn279 O278 2.087 . S
Mn279 O286 2.089 . S
Mn279 O295 2.290 . S
Mn279 O296 2.265 . S
O280 Mn277 2.155 1_556 S
O280 C291 1.219 1_556 S
O281 Mn277 2.221 . S
O281 Mn282 2.290 . S
O281 C292 1.278 . S
Mn282 O281 2.290 . S
Mn282 O284 2.089 . S
Mn282 O287 2.251 . S
Mn282 O288 2.087 . S
O283 Mn277 2.163 . S
O283 C293 1.244 . S
O284 Mn282 2.089 . S
O284 C291 1.256 . S
O285 Mn277 2.160 1_556 S
O285 C294 1.239 . S
O286 Mn279 2.089 . S
O286 C294 1.256 . S
O287 Mn282 2.251 . S
O287 C292 1.241 . S
O288 Mn282 2.087 . S
O288 C293 1.256 . S
C289 O295 1.278 1_554 S
C289 O296 1.237 1_554 S
C290 O276 1.244 . S
C290 O278 1.256 1_554 S
C291 O280 1.219 1_554 S
C291 O284 1.256 . S
C292 O281 1.278 . S
C292 O287 1.241 . S
C293 O283 1.244 . S
C293 O288 1.256 . S
C294 O285 1.239 . S
C294 O286 1.256 . S
O295 Mn277 2.221 1_556 S
O295 Mn279 2.290 . S
O295 C289 1.278 1_556 S
O296 Mn279 2.265 . S
O296 C289 1.237 1_556 S
O297 Mn298 2.163 . S
O297 C311 1.244 . S
Mn298 O297 2.163 . S
Mn298 O301 2.160 . S
Mn298 O302 2.221 . S
Mn298 O304 2.163 . S
Mn298 O306 2.160 . S
Mn298 O316 2.221 . S
O299 Mn300 2.087 . S
O299 C311 1.256 . S
Mn300 O299 2.087 . S
Mn300 O307 2.089 . S
Mn300 O316 2.290 . S
Mn300 O317 2.251 . S
O301 Mn298 2.160 . S
O301 C312 1.239 . S
O302 Mn298 2.221 . S
O302 Mn303 2.290 . S
O302 C313 1.278 . S
Mn303 O302 2.290 . S
Mn303 O305 2.089 . S
Mn303 O308 2.251 . S
Mn303 O309 2.087 . S
O304 Mn298 2.163 . S
O304 C314 1.244 . S
O305 Mn303 2.089 . S
O305 C312 1.256 . S
O306 Mn298 2.160 . S
O306 C315 1.239 . S
O307 Mn300 2.089 . S
O307 C315 1.256 . S
O308 Mn303 2.251 . S
O308 C313 1.241 . S
O309 Mn303 2.087 . S
O309 C314 1.256 . S
C310 O316 1.278 . S
C310 O317 1.241 . S
C311 O297 1.244 . S
C311 O299 1.256 . S
C312 O301 1.239 . S
C312 O305 1.256 . S
C313 O302 1.278 . S
C313 O308 1.241 . S
C314 O304 1.244 . S
C314 O309 1.256 . S
C315 O306 1.239 . S
C315 O307 1.256 . S
O316 Mn298 2.221 . S
O316 Mn300 2.290 . S
O316 C310 1.278 . S
O317 Mn300 2.251 . S
O317 C310 1.241 . S
O318 Mn319 2.163 . S
O318 C332 1.244 . S
Mn319 O318 2.163 . S
Mn319 O322 2.160 . S
Mn319 O323 2.221 . S
Mn319 O325 2.163 . S
Mn319 O327 2.160 . S
Mn319 O337 2.221 . S
O320 Mn321 2.087 . S
O320 C332 1.256 . S
Mn321 O320 2.087 . S
Mn321 O328 2.089 . S
Mn321 O337 2.290 . S
Mn321 O338 2.251 . S
O322 Mn319 2.160 . S
O322 C333 1.239 . S
O323 Mn319 2.221 . S
O323 Mn324 2.290 . S
O323 C334 1.278 . S
Mn324 O323 2.290 . S
Mn324 O326 2.089 . S
Mn324 O329 2.251 . S
Mn324 O330 2.087 . S
O325 Mn319 2.163 . S
O325 C335 1.244 . S
O326 Mn324 2.089 . S
O326 C333 1.256 . S
O327 Mn319 2.160 . S
O327 C336 1.239 . S
O328 Mn321 2.089 . S
O328 C336 1.256 . S
O329 Mn324 2.251 . S
O329 C334 1.241 . S
O330 Mn324 2.087 . S
O330 C335 1.256 . S
C331 O337 1.278 . S
C331 O338 1.241 . S
C332 O318 1.244 . S
C332 O320 1.256 . S
C333 O322 1.239 . S
C333 O326 1.256 . S
C334 O323 1.278 . S
C334 O329 1.241 . S
C335 O325 1.244 . S
C335 O330 1.256 . S
C336 O327 1.239 . S
C336 O328 1.256 . S
O337 Mn319 2.221 . S
O337 Mn321 2.290 . S
O337 C331 1.278 . S
O338 Mn321 2.251 . S
O338 C331 1.241 . S
O339 Mn340 2.163 . S
O339 C353 1.244 . S
Mn340 O339 2.163 . S
Mn340 O343 2.160 . S
Mn340 O344 2.221 . S
Mn340 O346 2.163 . S
Mn340 O348 2.160 . S
Mn340 O358 2.221 . S
O341 Mn342 2.087 . S
O341 C353 1.256 . S
Mn342 O341 2.087 . S
Mn342 O349 2.089 . S
Mn342 O358 2.290 . S
Mn342 O359 2.251 . S
O343 Mn340 2.160 . S
O343 C354 1.239 . S
O344 Mn340 2.221 . S
O344 Mn345 2.290 . S
O344 C355 1.278 . S
Mn345 O344 2.290 . S
Mn345 O347 2.089 . S
Mn345 O350 2.251 . S
Mn345 O351 2.087 . S
O346 Mn340 2.163 . S
O346 C356 1.244 . S
O347 Mn345 2.089 . S
O347 C354 1.256 . S
O348 Mn340 2.160 . S
O348 C357 1.239 . S
O349 Mn342 2.089 . S
O349 C357 1.256 . S
O350 Mn345 2.251 . S
O350 C355 1.241 . S
O351 Mn345 2.087 . S
O351 C356 1.256 . S
C352 O358 1.278 . S
C352 O359 1.241 . S
C353 O339 1.244 . S
C353 O341 1.256 . S
C354 O343 1.239 . S
C354 O347 1.256 . S
C355 O344 1.278 . S
C355 O350 1.241 . S
C356 O346 1.244 . S
C356 O351 1.256 . S
C357 O348 1.239 . S
C357 O349 1.256 . S
O358 Mn340 2.221 . S
O358 Mn342 2.290 . S
O358 C352 1.278 . S
O359 Mn342 2.251 . S
O359 C352 1.241 . S
O360 Mn361 2.163 . S
O360 C374 1.244 . S
Mn361 O360 2.163 . S
Mn361 O364 2.160 . S
Mn361 O365 2.221 . S
Mn361 O367 2.163 . S
Mn361 O369 2.160 . S
Mn361 O379 2.221 . S
O362 Mn363 2.087 . S
O362 C374 1.256 . S
Mn363 O362 2.087 . S
Mn363 O370 2.089 . S
Mn363 O379 2.290 . S
Mn363 O380 2.251 . S
O364 Mn361 2.160 . S
O364 C375 1.239 . S
O365 Mn361 2.221 . S
O365 Mn366 2.290 . S
O365 C376 1.278 . S
Mn366 O365 2.290 . S
Mn366 O368 2.089 . S
Mn366 O371 2.251 . S
Mn366 O372 2.087 . S
O367 Mn361 2.163 . S
O367 C377 1.244 . S
O368 Mn366 2.089 . S
O368 C375 1.256 . S
O369 Mn361 2.160 . S
O369 C378 1.239 . S
O370 Mn363 2.089 . S
O370 C378 1.256 . S
O371 Mn366 2.251 . S
O371 C376 1.241 . S
O372 Mn366 2.087 . S
O372 C377 1.256 . S
C373 O379 1.278 . S
C373 O380 1.241 . S
C374 O360 1.244 . S
C374 O362 1.256 . S
C375 O364 1.239 . S
C375 O368 1.256 . S
C376 O365 1.278 . S
C376 O371 1.241 . S
C377 O367 1.244 . S
C377 O372 1.256 . S
C378 O369 1.239 . S
C378 O370 1.256 . S
O379 Mn361 2.221 . S
O379 Mn363 2.290 . S
O379 C373 1.278 . S
O380 Mn363 2.251 . S
O380 C373 1.241 . S
O381 Mn382 2.163 . S
O381 C395 1.244 . S
Mn382 O381 2.163 . S
Mn382 O385 2.160 . S
Mn382 O386 2.221 . S
Mn382 O388 2.163 . S
Mn382 O390 2.160 . S
Mn382 O400 2.221 . S
O383 Mn384 2.087 . S
O383 C395 1.256 . S
Mn384 O383 2.087 . S
Mn384 O391 2.089 . S
Mn384 O400 2.290 . S
Mn384 O401 2.251 . S
O385 Mn382 2.160 . S
O385 C396 1.239 . S
O386 Mn382 2.221 . S
O386 Mn387 2.290 . S
O386 C397 1.278 . S
Mn387 O386 2.290 . S
Mn387 O389 2.089 . S
Mn387 O392 2.251 . S
Mn387 O393 2.087 . S
O388 Mn382 2.163 . S
O388 C398 1.244 . S
O389 Mn387 2.089 . S
O389 C396 1.256 . S
O390 Mn382 2.160 . S
O390 C399 1.239 . S
O391 Mn384 2.089 . S
O391 C399 1.256 . S
O392 Mn387 2.251 . S
O392 C397 1.241 . S
O393 Mn387 2.087 . S
O393 C398 1.256 . S
C394 O400 1.278 . S
C394 O401 1.241 . S
C395 O381 1.244 . S
C395 O383 1.256 . S
C396 O385 1.239 . S
C396 O389 1.256 . S
C397 O386 1.278 . S
C397 O392 1.241 . S
C398 O388 1.244 . S
C398 O393 1.256 . S
C399 O390 1.239 . S
C399 O391 1.256 . S
O400 Mn382 2.221 . S
O400 Mn384 2.290 . S
O400 C394 1.278 . S
O401 Mn384 2.251 . S
O401 C394 1.241 . S
O402 Mn403 2.163 . S
O402 C416 1.244 . S
Mn403 O402 2.163 . S
Mn403 O406 2.160 . S
Mn403 O407 2.221 . S
Mn403 O409 2.163 . S
Mn403 O411 2.160 . S
Mn403 O421 2.221 . S
O404 Mn405 2.087 . S
O404 C416 1.256 . S
Mn405 O404 2.087 . S
Mn405 O412 2.089 . S
Mn405 O421 2.290 . S
Mn405 O422 2.251 . S
O406 Mn403 2.160 . S
O406 C417 1.239 . S
O407 Mn403 2.221 . S
O407 Mn408 2.290 . S
O407 C418 1.278 . S
Mn408 O407 2.290 . S
Mn408 O410 2.089 . S
Mn408 O413 2.251 . S
Mn408 O414 2.087 . S
O409 Mn403 2.163 . S
O409 C419 1.244 . S
O410 Mn408 2.089 . S
O410 C417 1.256 . S
O411 Mn403 2.160 . S
O411 C420 1.239 . S
O412 Mn405 2.089 . S
O412 C420 1.256 . S
O413 Mn408 2.251 . S
O413 C418 1.241 . S
O414 Mn408 2.087 . S
O414 C419 1.256 . S
C415 O421 1.278 . S
C415 O422 1.241 . S
C416 O402 1.244 . S
C416 O404 1.256 . S
C417 O406 1.239 . S
C417 O410 1.256 . S
C418 O407 1.278 . S
C418 O413 1.241 . S
C419 O409 1.244 . S
C419 O414 1.256 . S
C420 O411 1.239 . S
C420 O412 1.256 . S
O421 Mn403 2.221 . S
O421 Mn405 2.290 . S
O421 C415 1.278 . S
O422 Mn405 2.251 . S
O422 C415 1.241 . S
C423 C424 1.349 . S
C423 C425 1.327 . S
C423 H448 0.950 . S
C424 C423 1.349 . S
C424 C440 1.349 1_554 S
C425 C423 1.327 . S
C425 C444 1.429 . S
C425 H449 0.950 . S
C426 C443 1.574 . S
C426 C445 1.368 1_556 S
C426 H450 0.949 . S
H427 C431 0.949 . S
C428 C429 1.349 1_556 S
C428 C430 1.327 . S
C428 H451 0.950 . S
C429 C428 1.349 1_554 S
C429 C441 1.349 . S
C430 C428 1.327 . S
C430 C446 1.429 1_556 S
C430 H452 0.950 . S
C431 H427 0.949 . S
C431 C439 1.574 . S
C431 C447 1.368 . S
H432 C440 0.950 . S
H433 C438 0.950 . S
H434 C439 0.949 . S
H435 C441 0.950 . S
H436 C442 0.950 . S
H437 C443 0.949 . S
C438 H433 0.950 . S
C438 C440 1.327 . S
C438 C444 1.429 1_556 S
C439 C431 1.574 . S
C439 H434 0.949 . S
C439 C445 1.368 . S
C440 C424 1.349 1_556 S
C440 H432 0.950 . S
C440 C438 1.327 . S
C441 C429 1.349 . S
C441 H435 0.950 . S
C441 C442 1.327 . S
C442 H436 0.950 . S
C442 C441 1.327 . S
C442 C446 1.429 . S
C443 C426 1.574 . S
C443 H437 0.949 . S
C443 C447 1.368 1_556 S
C444 C425 1.429 . S
C444 C438 1.429 1_554 S
C444 C445 1.523 . S
C445 C426 1.368 1_554 S
C445 C439 1.368 . S
C445 C444 1.523 . S
C446 C430 1.429 1_554 S
C446 C442 1.429 . S
C446 C447 1.523 . S
C447 C431 1.368 . S
C447 C443 1.368 1_554 S
C447 C446 1.523 . S
H448 C423 0.950 . S
H449 C425 0.950 . S
H450 C426 0.949 . S
H451 C428 0.950 . S
H452 C430 0.950 . S
C453 C454 1.349 . S
C453 C455 1.327 . S
C453 H478 0.950 . S
C454 C453 1.349 . S
C454 C470 1.349 . S
C455 C453 1.327 . S
C455 C474 1.429 . S
C455 H479 0.950 . S
C456 C473 1.574 . S
C456 C475 1.368 . S
C456 H480 0.949 1_554 S
H457 C461 0.949 . S
C458 C459 1.360 . S
C458 C460 1.328 . S
C458 H481 0.938 1_554 S
C459 C458 1.360 . S
C459 C471 1.349 . S
C460 C458 1.328 . S
C460 C476 1.429 . S
C460 H482 0.950 1_554 S
C461 H457 0.949 . S
C461 C469 1.574 . S
C461 C477 1.368 . S
H462 C470 0.959 . S
H463 C468 0.950 1_556 S
H464 C469 0.949 . S
H465 C471 0.950 . S
H466 C472 0.950 . S
H467 C473 0.949 1_556 S
C468 H463 0.950 1_554 S
C468 C470 1.327 . S
C468 C474 1.429 . S
C469 C461 1.574 . S
C469 H464 0.949 . S
C469 C475 1.368 . S
C470 C454 1.349 . S
C470 H462 0.959 . S
C470 C468 1.327 . S
C471 C459 1.349 . S
C471 H465 0.950 . S
C471 C472 1.327 . S
C472 H466 0.950 . S
C472 C471 1.327 . S
C472 C476 1.429 . S
C473 C456 1.574 . S
C473 H467 0.949 1_554 S
C473 C477 1.368 . S
C474 C455 1.429 . S
C474 C468 1.429 . S
C474 C475 1.523 . S
C475 C456 1.368 . S
C475 C469 1.368 . S
C475 C474 1.523 . S
C476 C460 1.429 . S
C476 C472 1.429 . S
C476 C477 1.523 . S
C477 C461 1.368 . S
C477 C473 1.368 . S
C477 C476 1.523 . S
H478 C453 0.950 . S
H479 C455 0.950 . S
H480 C456 0.949 1_556 S
H481 C458 0.938 1_556 S
H482 C460 0.950 1_556 S
C483 C484 1.349 . S
C483 C485 1.327 . S
C483 H508 0.950 . S
C484 C483 1.349 . S
C484 C500 1.349 . S
C485 C483 1.327 . S
C485 C504 1.429 . S
C485 H509 0.950 . S
C486 C503 1.574 . S
C486 C505 1.368 1_556 S
C486 H510 0.949 . S
H487 C491 0.949 . S
C488 C489 1.349 1_556 S
C488 C490 1.327 . S
C488 H511 0.950 . S
C489 C488 1.349 1_554 S
C489 C501 1.349 . S
C490 C488 1.327 . S
C490 C506 1.429 1_556 S
C490 H512 0.950 . S
C491 H487 0.949 . S
C491 C499 1.574 . S
C491 C507 1.368 . S
H492 C500 0.950 1_556 S
H493 C498 0.950 1_556 S
H494 C499 0.949 . S
H495 C501 0.950 . S
H496 C502 0.950 . S
H497 C503 0.949 . S
C498 H493 0.950 1_554 S
C498 C500 1.327 . S
C498 C504 1.429 . S
C499 C491 1.574 . S
C499 H494 0.949 . S
C499 C505 1.368 . S
C500 C484 1.349 . S
C500 H492 0.950 1_554 S
C500 C498 1.327 . S
C501 C489 1.349 . S
C501 H495 0.950 . S
C501 C502 1.327 . S
C502 H496 0.950 . S
C502 C501 1.327 . S
C502 C506 1.429 . S
C503 C486 1.574 . S
C503 H497 0.949 . S
C503 C507 1.368 1_556 S
C504 C485 1.429 . S
C504 C498 1.429 . S
C504 C505 1.523 . S
C505 C486 1.368 1_554 S
C505 C499 1.368 . S
C505 C504 1.523 . S
C506 C490 1.429 1_554 S
C506 C502 1.429 . S
C506 C507 1.523 . S
C507 C491 1.368 . S
C507 C503 1.368 1_554 S
C507 C506 1.523 . S
H508 C483 0.950 . S
H509 C485 0.950 . S
H510 C486 0.949 . S
H511 C488 0.950 . S
H512 C490 0.950 . S
C513 C514 1.349 1_554 S
C513 C515 1.327 . S
C513 H538 0.950 . S
C514 C513 1.349 1_556 S
C514 C530 1.349 . S
C515 C513 1.327 . S
C515 C534 1.429 1_554 S
C515 H539 0.950 . S
C516 C533 1.574 . S
C516 C535 1.368 . S
C516 H540 0.949 . S
H517 C521 0.949 . S
C518 C519 1.349 1_556 S
C518 C520 1.327 . S
C518 H541 0.950 . S
C519 C518 1.349 1_554 S
C519 C531 1.349 . S
C520 C518 1.327 . S
C520 C536 1.429 1_556 S
C520 H542 0.950 . S
C521 H517 0.949 . S
C521 C529 1.574 . S
C521 C537 1.368 . S
H522 C530 0.950 . S
H523 C528 0.950 . S
H524 C529 0.949 . S
H525 C531 0.950 . S
H526 C532 0.950 . S
H527 C533 0.949 . S
C528 H523 0.950 . S
C528 C530 1.327 . S
C528 C534 1.429 . S
C529 C521 1.574 . S
C529 H524 0.949 . S
C529 C535 1.368 1_554 S
C530 C514 1.349 . S
C530 H522 0.950 . S
C530 C528 1.327 . S
C531 C519 1.349 . S
C531 H525 0.950 . S
C531 C532 1.327 . S
C532 H526 0.950 . S
C532 C531 1.327 . S
C532 C536 1.429 . S
C533 C516 1.574 . S
C533 H527 0.949 . S
C533 C537 1.368 1_556 S
C534 C515 1.429 1_556 S
C534 C528 1.429 . S
C534 C535 1.523 . S
C535 C516 1.368 . S
C535 C529 1.368 1_556 S
C535 C534 1.523 . S
C536 C520 1.429 1_554 S
C536 C532 1.429 . S
C536 C537 1.523 . S
C537 C521 1.368 . S
C537 C533 1.368 1_554 S
C537 C536 1.523 . S
H538 C513 0.950 . S
H539 C515 0.950 . S
H540 C516 0.949 . S
H541 C518 0.950 . S
H542 C520 0.950 . S
C543 C544 1.349 1_554 S
C543 C545 1.327 . S
C543 H568 0.950 . S
C544 C543 1.349 1_556 S
C544 C560 1.349 . S
C545 C543 1.327 . S
C545 C564 1.429 1_554 S
C545 H569 0.950 . S
C546 C563 1.574 . S
C546 C565 1.352 1_556 S
C546 H570 0.949 . S
H547 C551 0.949 . S
C548 C549 1.349 1_556 S
C548 C550 1.327 . S
C548 H571 0.950 . S
C549 C548 1.349 1_554 S
C549 C561 1.349 . S
C550 C548 1.327 . S
C550 C566 1.429 1_556 S
C550 H572 0.950 . S
C551 H547 0.949 . S
C551 C559 1.574 . S
C551 C567 1.368 . S
H552 C560 0.950 . S
H553 C558 0.950 . S
H554 C559 0.949 . S
H555 C561 0.950 . S
H556 C562 0.950 . S
H557 C563 0.949 . S
C558 H553 0.950 . S
C558 C560 1.327 . S
C558 C564 1.428 . S
C559 C551 1.574 . S
C559 H554 0.949 . S
C559 C565 1.387 . S
C560 C544 1.349 . S
C560 H552 0.950 . S
C560 C558 1.327 . S
C561 C549 1.349 . S
C561 H555 0.950 . S
C561 C562 1.327 . S
C562 H556 0.950 . S
C562 C561 1.327 . S
C562 C566 1.429 . S
C563 C546 1.574 . S
C563 H557 0.949 . S
C563 C567 1.368 1_556 S
C564 C545 1.429 1_556 S
C564 C558 1.428 . S
C564 C565 1.522 1_556 S
C565 C546 1.352 1_554 S
C565 C559 1.387 . S
C565 C564 1.522 1_554 S
C566 C550 1.429 1_554 S
C566 C562 1.429 . S
C566 C567 1.523 . S
C567 C551 1.368 . S
C567 C563 1.368 1_554 S
C567 C566 1.523 . S
H568 C543 0.950 . S
H569 C545 0.950 . S
H570 C546 0.949 . S
H571 C548 0.950 . S
H572 C550 0.950 . S
C573 C574 1.323 1_556 S
C573 C575 1.327 . S
C573 H598 0.950 . S
C574 C573 1.323 1_554 S
C574 C590 1.376 . S
C575 C573 1.327 . S
C575 C594 1.429 1_556 S
C575 H599 0.950 . S
C576 C593 1.574 . S
C576 C595 1.368 . S
C576 H600 0.949 . S
H577 C581 0.949 . S
C578 C579 1.349 . S
C578 C580 1.327 . S
C578 H601 0.950 . S
C579 C578 1.349 . S
C579 C591 1.349 1_554 S
C580 C578 1.327 . S
C580 C596 1.429 . S
C580 H602 0.950 . S
C581 H577 0.949 . S
C581 C589 1.574 . S
C581 C597 1.368 1_556 S
H582 C590 0.950 . S
H583 C588 0.950 . S
H584 C589 0.949 . S
H585 C591 0.950 . S
H586 C592 0.950 . S
H587 C593 0.949 . S
C588 H583 0.950 . S
C588 C590 1.327 . S
C588 C594 1.429 . S
C589 C581 1.574 . S
C589 H584 0.949 . S
C589 C595 1.368 1_556 S
C590 C574 1.376 . S
C590 H582 0.950 . S
C590 C588 1.327 . S
C591 C579 1.349 1_556 S
C591 H585 0.950 . S
C591 C592 1.327 . S
C592 H586 0.950 . S
C592 C591 1.327 . S
C592 C596 1.429 1_556 S
C593 C576 1.574 . S
C593 H587 0.949 . S
C593 C597 1.368 . S
C594 C575 1.429 1_554 S
C594 C588 1.429 . S
C594 C595 1.523 . S
C595 C576 1.368 . S
C595 C589 1.368 1_554 S
C595 C594 1.523 . S
C596 C580 1.429 . S
C596 C592 1.429 1_554 S
C596 C597 1.523 . S
C597 C581 1.368 1_554 S
C597 C593 1.368 . S
C597 C596 1.523 . S
H598 C573 0.950 . S
H599 C575 0.950 . S
H600 C576 0.949 . S
H601 C578 0.950 . S
H602 C580 0.950 . S
C603 C604 1.349 1_556 S
C603 C605 1.327 . S
C603 H628 0.950 . S
C604 C603 1.349 1_554 S
C604 C620 1.349 . S
C605 C603 1.327 . S
C605 C624 1.429 1_556 S
C605 H629 0.950 . S
C606 C623 1.574 . S
C606 C625 1.368 . S
C606 H630 0.949 . S
H607 C611 0.949 . S
C608 C609 1.349 . S
C608 C610 1.327 . S
C608 H631 0.950 . S
C609 C608 1.349 . S
C609 C621 1.349 1_554 S
C610 C608 1.327 . S
C610 C626 1.429 . S
C610 H632 0.950 . S
C611 H607 0.949 . S
C611 C619 1.574 . S
C611 C627 1.368 1_556 S
H612 C620 0.950 . S
H613 C618 0.950 . S
H614 C619 0.949 . S
H615 C621 0.950 . S
H616 C622 0.950 . S
H617 C623 0.949 . S
C618 H613 0.950 . S
C618 C620 1.327 . S
C618 C624 1.429 . S
C619 C611 1.574 . S
C619 H614 0.949 . S
C619 C625 1.368 1_556 S
C620 C604 1.349 . S
C620 H612 0.950 . S
C620 C618 1.327 . S
C621 C609 1.349 1_556 S
C621 H615 0.950 . S
C621 C622 1.327 . S
C622 H616 0.950 . S
C622 C621 1.327 . S
C622 C626 1.429 1_556 S
C623 C606 1.574 . S
C623 H617 0.949 . S
C623 C627 1.368 . S
C624 C605 1.429 1_554 S
C624 C618 1.429 . S
C624 C625 1.523 . S
C625 C606 1.368 . S
C625 C619 1.368 1_554 S
C625 C624 1.523 . S
C626 C610 1.429 . S
C626 C622 1.429 1_554 S
C626 C627 1.523 . S
C627 C611 1.368 1_554 S
C627 C623 1.368 . S
C627 C626 1.523 . S
H628 C603 0.950 . S
H629 C605 0.950 . S
H630 C606 0.949 . S
H631 C608 0.950 . S
H632 C610 0.950 . S
C633 C634 1.349 1_556 S
C633 C635 1.327 . S
C633 H658 0.950 . S
C634 C633 1.349 1_554 S
C634 C650 1.349 . S
C635 C633 1.327 . S
C635 C654 1.429 1_556 S
C635 H659 0.950 . S
C636 C653 1.574 . S
C636 C655 1.368 . S
C636 H660 0.949 . S
H637 C641 0.949 . S
C638 C639 1.349 . S
C638 C640 1.327 . S
C638 H661 0.950 . S
C639 C638 1.349 . S
C639 C651 1.349 1_554 S
C640 C638 1.327 . S
C640 C656 1.429 . S
C640 H662 0.950 . S
C641 H637 0.949 . S
C641 C649 1.574 . S
C641 C657 1.368 1_556 S
H642 C650 0.950 . S
H643 C648 0.950 . S
H644 C649 0.949 . S
H645 C651 0.950 . S
H646 C652 0.950 . S
H647 C653 0.949 . S
C648 H643 0.950 . S
C648 C650 1.327 . S
C648 C654 1.429 . S
C649 C641 1.574 . S
C649 H644 0.949 . S
C649 C655 1.368 1_556 S
C650 C634 1.349 . S
C650 H642 0.950 . S
C650 C648 1.327 . S
C651 C639 1.349 1_556 S
C651 H645 0.950 . S
C651 C652 1.327 . S
C652 H646 0.950 . S
C652 C651 1.327 . S
C652 C656 1.429 1_556 S
C653 C636 1.574 . S
C653 H647 0.949 . S
C653 C657 1.368 . S
C654 C635 1.429 1_554 S
C654 C648 1.429 . S
C654 C655 1.523 . S
C655 C636 1.368 . S
C655 C649 1.368 1_554 S
C655 C654 1.523 . S
C656 C640 1.429 . S
C656 C652 1.429 1_554 S
C656 C657 1.523 . S
C657 C641 1.368 1_554 S
C657 C653 1.368 . S
C657 C656 1.523 . S
H658 C633 0.950 . S
H659 C635 0.950 . S
H660 C636 0.949 . S
H661 C638 0.950 . S
H662 C640 0.950 . S
C663 C664 1.349 . S
C663 C665 1.327 . S
C663 H688 0.950 . S
C664 C663 1.349 . S
C664 C680 1.349 1_554 S
C665 C663 1.327 . S
C665 C684 1.429 . S
C665 H689 0.950 . S
C666 C683 1.574 . S
C666 C685 1.368 1_556 S
C666 H690 0.949 . S
H667 C671 0.949 . S
C668 C669 1.349 1_556 S
C668 C670 1.327 . S
C668 H691 0.950 . S
C669 C668 1.349 1_554 S
C669 C681 1.349 . S
C670 C668 1.327 . S
C670 C686 1.429 1_556 S
C670 H692 0.950 . S
C671 H667 0.949 . S
C671 C679 1.574 . S
C671 C687 1.368 . S
H672 C680 0.950 . S
H673 C678 0.950 . S
H674 C679 0.949 . S
H675 C681 0.950 . S
H676 C682 0.950 . S
H677 C683 0.949 . S
C678 H673 0.950 . S
C678 C680 1.327 . S
C678 C684 1.429 1_556 S
C679 C671 1.574 . S
C679 H674 0.949 . S
C679 C685 1.368 . S
C680 C664 1.349 1_556 S
C680 H672 0.950 . S
C680 C678 1.327 . S
C681 C669 1.349 . S
C681 H675 0.950 . S
C681 C682 1.327 . S
C682 H676 0.950 . S
C682 C681 1.327 . S
C682 C686 1.429 . S
C683 C666 1.574 . S
C683 H677 0.949 . S
C683 C687 1.368 1_556 S
C684 C665 1.429 . S
C684 C678 1.429 1_554 S
C684 C685 1.523 . S
C685 C666 1.368 1_554 S
C685 C679 1.368 . S
C685 C684 1.523 . S
C686 C670 1.429 1_554 S
C686 C682 1.429 . S
C686 C687 1.523 . S
C687 C671 1.368 . S
C687 C683 1.368 1_554 S
C687 C686 1.523 . S
H688 C663 0.950 . S
H689 C665 0.950 . S
H690 C666 0.949 . S
H691 C668 0.950 . S
H692 C670 0.950 . S
C693 C694 1.349 . S
C693 C695 1.327 . S
C693 H718 0.950 . S
C694 C693 1.349 . S
C694 C710 1.349 1_554 S
C695 C693 1.327 . S
C695 C714 1.429 . S
C695 H719 0.950 . S
C696 C713 1.574 . S
C696 C715 1.368 1_556 S
C696 H720 0.949 . S
H697 C701 0.949 . S
C698 C699 1.349 1_556 S
C698 C700 1.327 . S
C698 H721 0.950 . S
C699 C698 1.349 1_554 S
C699 C711 1.349 . S
C700 C698 1.327 . S
C700 C716 1.429 1_556 S
C700 H722 0.950 . S
C701 H697 0.949 . S
C701 C709 1.574 . S
C701 C717 1.368 . S
H702 C710 0.950 . S
H703 C708 0.950 . S
H704 C709 0.949 . S
H705 C711 0.950 . S
H706 C712 0.950 . S
H707 C713 0.949 . S
C708 H703 0.950 . S
C708 C710 1.327 . S
C708 C714 1.429 1_556 S
C709 C701 1.574 . S
C709 H704 0.949 . S
C709 C715 1.368 . S
C710 C694 1.349 1_556 S
C710 H702 0.950 . S
C710 C708 1.327 . S
C711 C699 1.349 . S
C711 H705 0.950 . S
C711 C712 1.327 . S
C712 H706 0.950 . S
C712 C711 1.327 . S
C712 C716 1.429 . S
C713 C696 1.574 . S
C713 H707 0.949 . S
C713 C717 1.368 1_556 S
C714 C695 1.429 . S
C714 C708 1.429 1_554 S
C714 C715 1.523 . S
C715 C696 1.368 1_554 S
C715 C709 1.368 . S
C715 C714 1.523 . S
C716 C700 1.429 1_554 S
C716 C712 1.429 . S
C716 C717 1.523 . S
C717 C701 1.368 . S
C717 C713 1.368 1_554 S
C717 C716 1.523 . S
H718 C693 0.950 . S
H719 C695 0.950 . S
H720 C696 0.949 . S
H721 C698 0.950 . S
H722 C700 0.950 . S
C723 C724 1.349 1_556 S
C723 C725 1.327 . S
C723 H748 0.950 . S
C724 C723 1.349 1_554 S
C724 C740 1.349 . S
C725 C723 1.327 . S
C725 C744 1.429 1_556 S
C725 H749 0.950 . S
C726 C743 1.574 . S
C726 C745 1.368 . S
C726 H750 0.949 . S
H727 C731 0.949 . S
C728 C729 1.349 . S
C728 C730 1.327 . S
C728 H751 0.950 . S
C729 C728 1.349 . S
C729 C741 1.349 1_554 S
C730 C728 1.327 . S
C730 C746 1.429 . S
C730 H752 0.950 . S
C731 H727 0.949 . S
C731 C739 1.574 . S
C731 C747 1.368 1_556 S
H732 C740 0.950 . S
H733 C738 0.950 . S
H734 C739 0.949 . S
H735 C741 0.950 . S
H736 C742 0.950 . S
H737 C743 0.949 . S
C738 H733 0.950 . S
C738 C740 1.327 . S
C738 C744 1.429 . S
C739 C731 1.574 . S
C739 H734 0.949 . S
C739 C745 1.368 1_556 S
C740 C724 1.349 . S
C740 H732 0.950 . S
C740 C738 1.327 . S
C741 C729 1.349 1_556 S
C741 H735 0.950 . S
C741 C742 1.327 . S
C742 H736 0.950 . S
C742 C741 1.327 . S
C742 C746 1.429 1_556 S
C743 C726 1.574 . S
C743 H737 0.949 . S
C743 C747 1.368 . S
C744 C725 1.429 1_554 S
C744 C738 1.429 . S
C744 C745 1.523 . S
C745 C726 1.368 . S
C745 C739 1.368 1_554 S
C745 C744 1.523 . S
C746 C730 1.429 . S
C746 C742 1.429 1_554 S
C746 C747 1.523 . S
C747 C731 1.368 1_554 S
C747 C743 1.368 . S
C747 C746 1.523 . S
H748 C723 0.950 . S
H749 C725 0.950 . S
H750 C726 0.949 . S
H751 C728 0.950 . S
H752 C730 0.950 . S
C753 C754 1.349 . S
C753 C755 1.327 . S
C753 H778 0.950 . S
C754 C753 1.349 . S
C754 C770 1.349 1_554 S
C755 C753 1.327 . S
C755 C774 1.429 . S
C755 H779 0.950 . S
C756 C773 1.574 . S
C756 C775 1.368 1_556 S
C756 H780 0.949 . S
H757 C761 0.949 . S
C758 C759 1.349 1_556 S
C758 C760 1.327 . S
C758 H781 0.950 . S
C759 C758 1.349 1_554 S
C759 C771 1.349 . S
C760 C758 1.327 . S
C760 C776 1.429 1_556 S
C760 H782 0.950 . S
C761 H757 0.949 . S
C761 C769 1.574 . S
C761 C777 1.368 . S
H762 C770 0.950 . S
H763 C768 0.950 . S
H764 C769 0.949 . S
H765 C771 0.950 . S
H766 C772 0.950 . S
H767 C773 0.949 . S
C768 H763 0.950 . S
C768 C770 1.327 . S
C768 C774 1.429 1_556 S
C769 C761 1.574 . S
C769 H764 0.949 . S
C769 C775 1.368 . S
C770 C754 1.349 1_556 S
C770 H762 0.950 . S
C770 C768 1.327 . S
C771 C759 1.349 . S
C771 H765 0.950 . S
C771 C772 1.327 . S
C772 H766 0.950 . S
C772 C771 1.327 . S
C772 C776 1.429 . S
C773 C756 1.574 . S
C773 H767 0.949 . S
C773 C777 1.368 1_556 S
C774 C755 1.429 . S
C774 C768 1.429 1_554 S
C774 C775 1.523 . S
C775 C756 1.368 1_554 S
C775 C769 1.368 . S
C775 C774 1.523 . S
C776 C760 1.429 1_554 S
C776 C772 1.429 . S
C776 C777 1.523 . S
C777 C761 1.368 . S
C777 C773 1.368 1_554 S
C777 C776 1.523 . S
H778 C753 0.950 . S
H779 C755 0.950 . S
H780 C756 0.949 . S
H781 C758 0.950 . S
H782 C760 0.950 . S
C783 C784 1.349 . S
C783 C785 1.327 . S
C783 H808 0.950 . S
C784 C783 1.349 . S
C784 C800 1.349 . S
C785 C783 1.327 . S
C785 C804 1.429 . S
C785 H809 0.950 . S
C786 C803 1.574 1_655 S
C786 C805 1.368 . S
C786 H810 0.949 . S
H787 C791 0.949 . S
C788 C789 1.349 . S
C788 C790 1.327 . S
C788 H811 0.950 . S
C789 C788 1.349 . S
C789 C801 1.349 . S
C790 C788 1.327 . S
C790 C806 1.429 . S
C790 H812 0.950 . S
C791 H787 0.949 . S
C791 C799 1.614 . S
C791 C807 1.368 . S
H792 C800 0.950 . S
H793 C798 0.950 . S
H794 C799 0.950 1_655 S
H795 C801 0.950 . S
H796 C802 0.950 . S
H797 C803 0.949 . S
C798 H793 0.950 . S
C798 C800 1.327 . S
C798 C804 1.429 . S
C799 C791 1.614 . S
C799 H794 0.950 1_455 S
C799 C805 1.331 1_455 S
C800 C784 1.349 . S
C800 H792 0.950 . S
C800 C798 1.327 . S
C801 C789 1.349 . S
C801 H795 0.950 . S
C801 C802 1.327 . S
C802 H796 0.950 . S
C802 C801 1.327 . S
C802 C806 1.429 . S
C803 C786 1.574 1_455 S
C803 H797 0.949 . S
C803 C807 1.368 . S
C804 C785 1.429 . S
C804 C798 1.429 . S
C804 C805 1.523 . S
C805 C786 1.368 . S
C805 C799 1.331 1_655 S
C805 C804 1.523 . S
C806 C790 1.429 . S
C806 C802 1.429 . S
C806 C807 1.523 . S
C807 C791 1.368 . S
C807 C803 1.368 . S
C807 C806 1.523 . S
H808 C783 0.950 . S
H809 C785 0.950 . S
H810 C786 0.949 . S
H811 C788 0.950 . S
H812 C790 0.950 . S
C813 C814 1.349 . S
C813 C815 1.327 . S
C813 H838 0.950 . S
C814 C813 1.349 . S
C814 C830 1.349 . S
C815 C813 1.327 . S
C815 C834 1.429 . S
C815 H839 0.950 . S
C816 C833 1.574 . S
C816 C835 1.368 . S
C816 H840 0.949 . S
H817 C821 0.949 . S
C818 C819 1.349 . S
C818 C820 1.327 . S
C818 H841 0.950 . S
C819 C818 1.349 . S
C819 C831 1.349 . S
C820 C818 1.327 . S
C820 C836 1.429 . S
C820 H842 0.950 . S
C821 H817 0.949 . S
C821 C829 1.574 . S
C821 C837 1.368 . S
H822 C830 0.950 . S
H823 C828 0.950 . S
H824 C829 0.949 . S
H825 C831 0.950 . S
H826 C832 0.950 . S
H827 C833 0.949 . S
C828 H823 0.950 . S
C828 C830 1.327 . S
C828 C834 1.429 . S
C829 C821 1.574 . S
C829 H824 0.949 . S
C829 C835 1.368 . S
C830 C814 1.349 . S
C830 H822 0.950 . S
C830 C828 1.327 . S
C831 C819 1.349 . S
C831 H825 0.950 . S
C831 C832 1.327 . S
C832 H826 0.950 . S
C832 C831 1.327 . S
C832 C836 1.429 . S
C833 C816 1.574 . S
C833 H827 0.949 . S
C833 C837 1.368 . S
C834 C815 1.429 . S
C834 C828 1.429 . S
C834 C835 1.523 . S
C835 C816 1.368 . S
C835 C829 1.368 . S
C835 C834 1.523 . S
C836 C820 1.429 . S
C836 C832 1.429 . S
C836 C837 1.523 . S
C837 C821 1.368 . S
C837 C833 1.368 . S
C837 C836 1.523 . S
H838 C813 0.950 . S
H839 C815 0.950 . S
H840 C816 0.949 . S
H841 C818 0.950 . S
H842 C820 0.950 . S
C843 C844 1.349 . S
C843 C845 1.327 . S
C843 H868 0.950 . S
C844 C843 1.349 . S
C844 C860 1.349 . S
C845 C843 1.327 . S
C845 C864 1.429 . S
C845 H869 0.950 . S
C846 C863 1.574 1_545 S
C846 C865 1.368 . S
C846 H870 0.949 . S
H847 C851 0.949 . S
C848 C849 1.349 . S
C848 C850 1.327 . S
C848 H871 0.950 . S
C849 C848 1.349 . S
C849 C861 1.349 . S
C850 C848 1.327 . S
C850 C866 1.429 . S
C850 H872 0.950 . S
C851 H847 0.949 . S
C851 C859 1.574 1_565 S
C851 C867 1.368 . S
H852 C860 0.950 . S
H853 C858 0.950 . S
H854 C859 0.949 . S
H855 C861 0.950 . S
H856 C862 0.950 . S
H857 C863 0.949 . S
C858 H853 0.950 . S
C858 C860 1.327 . S
C858 C864 1.429 . S
C859 C851 1.574 1_545 S
C859 H854 0.949 . S
C859 C865 1.368 . S
C860 C844 1.349 . S
C860 H852 0.950 . S
C860 C858 1.327 . S
C861 C849 1.349 . S
C861 H855 0.950 . S
C861 C862 1.327 . S
C862 H856 0.950 . S
C862 C861 1.327 . S
C862 C866 1.429 . S
C863 C846 1.574 1_565 S
C863 H857 0.949 . S
C863 C867 1.368 . S
C864 C845 1.429 . S
C864 C858 1.429 . S
C864 C865 1.523 . S
C865 C846 1.368 . S
C865 C859 1.368 . S
C865 C864 1.523 . S
C866 C850 1.429 . S
C866 C862 1.429 . S
C866 C867 1.523 . S
C867 C851 1.368 . S
C867 C863 1.368 . S
C867 C866 1.523 . S
H868 C843 0.950 . S
H869 C845 0.950 . S
H870 C846 0.949 . S
H871 C848 0.950 . S
H872 C850 0.950 . S
C873 C874 1.349 . S
C873 C875 1.327 . S
C873 H898 0.950 . S
C874 C873 1.349 . S
C874 C890 1.349 . S
C875 C873 1.327 . S
C875 C894 1.429 . S
C875 H899 0.950 . S
C876 C893 1.574 . S
C876 C895 1.368 . S
C876 H900 0.949 . S
H877 C881 0.949 . S
C878 C879 1.349 . S
C878 C880 1.327 . S
C878 H901 0.950 . S
C879 C878 1.349 . S
C879 C891 1.349 . S
C880 C878 1.327 . S
C880 C896 1.429 . S
C880 H902 0.950 . S
C881 H877 0.949 . S
C881 C889 1.574 . S
C881 C897 1.368 . S
H882 C890 0.950 . S
H883 C888 0.950 . S
H884 C889 0.949 . S
H885 C891 0.950 . S
H886 C892 0.950 . S
H887 C893 0.949 . S
C888 H883 0.950 . S
C888 C890 1.327 . S
C888 C894 1.429 . S
C889 C881 1.574 . S
C889 H884 0.949 . S
C889 C895 1.368 . S
C890 C874 1.349 . S
C890 H882 0.950 . S
C890 C888 1.327 . S
C891 C879 1.349 . S
C891 H885 0.950 . S
C891 C892 1.327 . S
C892 H886 0.950 . S
C892 C891 1.327 . S
C892 C896 1.429 . S
C893 C876 1.574 . S
C893 H887 0.949 . S
C893 C897 1.368 . S
C894 C875 1.429 . S
C894 C888 1.429 . S
C894 C895 1.523 . S
C895 C876 1.368 . S
C895 C889 1.368 . S
C895 C894 1.523 . S
C896 C880 1.429 . S
C896 C892 1.429 . S
C896 C897 1.523 . S
C897 C881 1.368 . S
C897 C893 1.368 . S
C897 C896 1.523 . S
H898 C873 0.950 . S
H899 C875 0.950 . S
H900 C876 0.949 . S
H901 C878 0.950 . S
H902 C880 0.950 . S
C903 C904 1.349 . S
C903 C905 1.327 . S
C903 H928 0.950 . S
C904 C903 1.349 . S
C904 C920 1.349 . S
C905 C903 1.327 . S
C905 C924 1.429 . S
C905 H929 0.950 . S
C906 C923 1.574 . S
C906 C925 1.368 . S
C906 H930 0.949 . S
H907 C911 0.949 . S
C908 C909 1.349 . S
C908 C910 1.327 . S
C908 H931 0.950 . S
C909 C908 1.349 . S
C909 C921 1.349 . S
C910 C908 1.327 . S
C910 C926 1.429 . S
C910 H932 0.950 . S
C911 H907 0.949 . S
C911 C919 1.574 . S
C911 C927 1.368 . S
H912 C920 0.950 . S
H913 C918 0.950 . S
H914 C919 0.949 . S
H915 C921 0.950 . S
H916 C922 0.950 . S
H917 C923 0.949 . S
C918 H913 0.950 . S
C918 C920 1.327 . S
C918 C924 1.429 . S
C919 C911 1.574 . S
C919 H914 0.949 . S
C919 C925 1.368 . S
C920 C904 1.349 . S
C920 H912 0.950 . S
C920 C918 1.327 . S
C921 C909 1.349 . S
C921 H915 0.950 . S
C921 C922 1.327 . S
C922 H916 0.950 . S
C922 C921 1.327 . S
C922 C926 1.429 . S
C923 C906 1.574 . S
C923 H917 0.949 . S
C923 C927 1.368 . S
C924 C905 1.429 . S
C924 C918 1.429 . S
C924 C925 1.523 . S
C925 C906 1.368 . S
C925 C919 1.368 . S
C925 C924 1.523 . S
C926 C910 1.429 . S
C926 C922 1.429 . S
C926 C927 1.523 . S
C927 C911 1.368 . S
C927 C923 1.368 . S
C927 C926 1.523 . S
H928 C903 0.950 . S
H929 C905 0.950 . S
H930 C906 0.949 . S
H931 C908 0.950 . S
H932 C910 0.950 . S
C933 C934 1.349 . S
C933 C935 1.327 . S
C933 H958 0.950 . S
C934 C933 1.349 . S
C934 C950 1.349 . S
C935 C933 1.327 . S
C935 C954 1.429 . S
C935 H959 0.950 . S
C936 C953 1.574 . S
C936 C955 1.368 . S
C936 H960 0.949 . S
H937 C941 0.949 . S
C938 C939 1.349 . S
C938 C940 1.327 . S
C938 H961 0.950 . S
C939 C938 1.349 . S
C939 C951 1.349 . S
C940 C938 1.327 . S
C940 C956 1.429 . S
C940 H962 0.950 . S
C941 H937 0.949 . S
C941 C949 1.574 . S
C941 C957 1.368 . S
H942 C950 0.950 . S
H943 C948 0.950 . S
H944 C949 0.949 . S
H945 C951 0.950 . S
H946 C952 0.950 . S
H947 C953 0.949 . S
C948 H943 0.950 . S
C948 C950 1.327 . S
C948 C954 1.429 . S
C949 C941 1.574 . S
C949 H944 0.949 . S
C949 C955 1.368 . S
C950 C934 1.349 . S
C950 H942 0.950 . S
C950 C948 1.327 . S
C951 C939 1.349 . S
C951 H945 0.950 . S
C951 C952 1.327 . S
C952 H946 0.950 . S
C952 C951 1.327 . S
C952 C956 1.429 . S
C953 C936 1.574 . S
C953 H947 0.949 . S
C953 C957 1.368 . S
C954 C935 1.429 . S
C954 C948 1.429 . S
C954 C955 1.523 . S
C955 C936 1.368 . S
C955 C949 1.368 . S
C955 C954 1.523 . S
C956 C940 1.429 . S
C956 C952 1.429 . S
C956 C957 1.523 . S
C957 C941 1.368 . S
C957 C953 1.368 . S
C957 C956 1.523 . S
H958 C933 0.950 . S
H959 C935 0.950 . S
H960 C936 0.949 . S
H961 C938 0.950 . S
H962 C940 0.950 . S
C963 C964 1.349 . S
C963 C965 1.327 . S
C963 H988 0.950 . S
C964 C963 1.349 . S
C964 C980 1.349 . S
C965 C963 1.327 . S
C965 C984 1.429 . S
C965 H989 0.950 . S
C966 C983 1.574 . S
C966 C985 1.368 . S
C966 H990 0.949 . S
H967 C971 0.949 . S
C968 C969 1.349 . S
C968 C970 1.327 . S
C968 H991 0.950 . S
C969 C968 1.349 . S
C969 C981 1.349 . S
C970 C968 1.327 . S
C970 C986 1.429 . S
C970 H992 0.950 . S
C971 H967 0.949 . S
C971 C979 1.574 . S
C971 C987 1.368 . S
H972 C980 0.950 . S
H973 C978 0.950 . S
H974 C979 0.949 . S
H975 C981 0.950 . S
H976 C982 0.950 . S
H977 C983 0.949 . S
C978 H973 0.950 . S
C978 C980 1.327 . S
C978 C984 1.429 . S
C979 C971 1.574 . S
C979 H974 0.949 . S
C979 C985 1.368 . S
C980 C964 1.349 . S
C980 H972 0.950 . S
C980 C978 1.327 . S
C981 C969 1.349 . S
C981 H975 0.950 . S
C981 C982 1.327 . S
C982 H976 0.950 . S
C982 C981 1.327 . S
C982 C986 1.429 . S
C983 C966 1.574 . S
C983 H977 0.949 . S
C983 C987 1.368 . S
C984 C965 1.429 . S
C984 C978 1.429 . S
C984 C985 1.523 . S
C985 C966 1.368 . S
C985 C979 1.368 . S
C985 C984 1.523 . S
C986 C970 1.429 . S
C986 C982 1.429 . S
C986 C987 1.523 . S
C987 C971 1.368 . S
C987 C983 1.368 . S
C987 C986 1.523 . S
H988 C963 0.950 . S
H989 C965 0.950 . S
H990 C966 0.949 . S
H991 C968 0.950 . S
H992 C970 0.950 . S
C993 C994 1.349 . S
C993 C995 1.327 . S
C993 H1018 0.950 . S
C994 C993 1.349 . S
C994 C1010 1.349 . S
C995 C993 1.327 . S
C995 C1014 1.429 . S
C995 H1019 0.950 . S
C996 C1013 1.574 . S
C996 C1015 1.368 . S
C996 H1020 0.949 . S
H997 C1001 0.949 . S
C998 C999 1.349 . S
C998 C1000 1.327 . S
C998 H1021 0.950 . S
C999 C998 1.349 . S
C999 C1011 1.349 . S
C1000 C998 1.327 . S
C1000 C1016 1.429 . S
C1000 H1022 0.950 . S
C1001 H997 0.949 . S
C1001 C1009 1.574 . S
C1001 C1017 1.368 . S
H1002 C1010 0.950 . S
H1003 C1008 0.950 . S
H1004 C1009 0.949 . S
H1005 C1011 0.950 . S
H1006 C1012 0.950 . S
H1007 C1013 0.949 . S
C1008 H1003 0.950 . S
C1008 C1010 1.327 . S
C1008 C1014 1.429 . S
C1009 C1001 1.574 . S
C1009 H1004 0.949 . S
C1009 C1015 1.368 . S
C1010 C994 1.349 . S
C1010 H1002 0.950 . S
C1010 C1008 1.327 . S
C1011 C999 1.349 . S
C1011 H1005 0.950 . S
C1011 C1012 1.327 . S
C1012 H1006 0.950 . S
C1012 C1011 1.327 . S
C1012 C1016 1.429 . S
C1013 C996 1.574 . S
C1013 H1007 0.949 . S
C1013 C1017 1.368 . S
C1014 C995 1.429 . S
C1014 C1008 1.429 . S
C1014 C1015 1.523 . S
C1015 C996 1.368 . S
C1015 C1009 1.368 . S
C1015 C1014 1.523 . S
C1016 C1000 1.429 . S
C1016 C1012 1.429 . S
C1016 C1017 1.523 . S
C1017 C1001 1.368 . S
C1017 C1013 1.368 . S
C1017 C1016 1.523 . S
H1018 C993 0.950 . S
H1019 C995 0.950 . S
H1020 C996 0.949 . S
H1021 C998 0.950 . S
H1022 C1000 0.950 . S
C1023 C1024 1.349 . S
C1023 C1025 1.327 . S
C1023 H1048 0.950 . S
C1024 C1023 1.349 . S
C1024 C1040 1.349 . S
C1025 C1023 1.327 . S
C1025 C1044 1.429 . S
C1025 H1049 0.950 . S
C1026 C1043 1.574 . S
C1026 C1045 1.368 . S
C1026 H1050 0.949 . S
H1027 C1031 0.949 . S
C1028 C1029 1.349 . S
C1028 C1030 1.327 . S
C1028 H1051 0.950 . S
C1029 C1028 1.349 . S
C1029 C1041 1.349 . S
C1030 C1028 1.327 . S
C1030 C1046 1.429 . S
C1030 H1052 0.950 . S
C1031 H1027 0.949 . S
C1031 C1039 1.574 . S
C1031 C1047 1.368 . S
H1032 C1040 0.950 . S
H1033 C1038 0.950 . S
H1034 C1039 0.949 . S
H1035 C1041 0.950 . S
H1036 C1042 0.950 . S
H1037 C1043 0.949 . S
C1038 H1033 0.950 . S
C1038 C1040 1.327 . S
C1038 C1044 1.429 . S
C1039 C1031 1.574 . S
C1039 H1034 0.949 . S
C1039 C1045 1.368 . S
C1040 C1024 1.349 . S
C1040 H1032 0.950 . S
C1040 C1038 1.327 . S
C1041 C1029 1.349 . S
C1041 H1035 0.950 . S
C1041 C1042 1.327 . S
C1042 H1036 0.950 . S
C1042 C1041 1.327 . S
C1042 C1046 1.429 . S
C1043 C1026 1.574 . S
C1043 H1037 0.949 . S
C1043 C1047 1.368 . S
C1044 C1025 1.429 . S
C1044 C1038 1.429 . S
C1044 C1045 1.523 . S
C1045 C1026 1.368 . S
C1045 C1039 1.368 . S
C1045 C1044 1.523 . S
C1046 C1030 1.429 . S
C1046 C1042 1.429 . S
C1046 C1047 1.523 . S
C1047 C1031 1.368 . S
C1047 C1043 1.368 . S
C1047 C1046 1.523 . S
H1048 C1023 0.950 . S
H1049 C1025 0.950 . S
H1050 C1026 0.949 . S
H1051 C1028 0.950 . S
H1052 C1030 0.950 . S
C1053 C1054 1.349 . S
C1053 C1055 1.327 . S
C1053 H1078 0.950 . S
C1054 C1053 1.349 . S
C1054 C1070 1.349 . S
C1055 C1053 1.327 . S
C1055 C1074 1.429 . S
C1055 H1079 0.950 . S
C1056 C1073 1.574 . S
C1056 C1075 1.368 . S
C1056 H1080 0.949 . S
H1057 C1061 0.949 . S
C1058 C1059 1.349 . S
C1058 C1060 1.327 . S
C1058 H1081 0.950 . S
C1059 C1058 1.349 . S
C1059 C1071 1.349 . S
C1060 C1058 1.327 . S
C1060 C1076 1.429 . S
C1060 H1082 0.950 . S
C1061 H1057 0.949 . S
C1061 C1069 1.574 . S
C1061 C1077 1.368 . S
H1062 C1070 0.950 . S
H1063 C1068 0.950 . S
H1064 C1069 0.949 . S
H1065 C1071 0.950 . S
H1066 C1072 0.950 . S
H1067 C1073 0.949 . S
C1068 H1063 0.950 . S
C1068 C1070 1.327 . S
C1068 C1074 1.429 . S
C1069 C1061 1.574 . S
C1069 H1064 0.949 . S
C1069 C1075 1.368 . S
C1070 C1054 1.349 . S
C1070 H1062 0.950 . S
C1070 C1068 1.327 . S
C1071 C1059 1.349 . S
C1071 H1065 0.950 . S
C1071 C1072 1.327 . S
C1072 H1066 0.950 . S
C1072 C1071 1.327 . S
C1072 C1076 1.429 . S
C1073 C1056 1.574 . S
C1073 H1067 0.949 . S
C1073 C1077 1.368 . S
C1074 C1055 1.429 . S
C1074 C1068 1.429 . S
C1074 C1075 1.523 1_545 S
C1075 C1056 1.368 . S
C1075 C1069 1.368 . S
C1075 C1074 1.523 1_565 S
C1076 C1060 1.429 . S
C1076 C1072 1.429 . S
C1076 C1077 1.523 . S
C1077 C1061 1.368 . S
C1077 C1073 1.368 . S
C1077 C1076 1.523 . S
H1078 C1053 0.950 . S
H1079 C1055 0.950 . S
H1080 C1056 0.949 . S
H1081 C1058 0.950 . S
H1082 C1060 0.950 . S
C1083 C1084 1.349 . S
C1083 C1085 1.327 . S
C1083 H1108 0.950 . S
C1084 C1083 1.349 . S
C1084 C1100 1.349 . S
C1085 C1083 1.327 . S
C1085 C1104 1.429 . S
C1085 H1109 0.950 . S
C1086 C1103 1.574 . S
C1086 C1105 1.368 . S
C1086 H1110 0.949 . S
H1087 C1091 0.949 . S
C1088 C1089 1.349 . S
C1088 C1090 1.327 . S
C1088 H1111 0.950 . S
C1089 C1088 1.349 . S
C1089 C1101 1.349 . S
C1090 C1088 1.327 . S
C1090 C1106 1.429 . S
C1090 H1112 0.950 . S
C1091 H1087 0.949 . S
C1091 C1099 1.574 . S
C1091 C1107 1.368 . S
H1092 C1100 0.950 . S
H1093 C1098 0.950 . S
H1094 C1099 0.949 . S
H1095 C1101 0.950 . S
H1096 C1102 0.950 . S
H1097 C1103 0.949 . S
C1098 H1093 0.950 . S
C1098 C1100 1.327 . S
C1098 C1104 1.429 . S
C1099 C1091 1.574 . S
C1099 H1094 0.949 . S
C1099 C1105 1.368 . S
C1100 C1084 1.349 . S
C1100 H1092 0.950 . S
C1100 C1098 1.327 . S
C1101 C1089 1.349 . S
C1101 H1095 0.950 . S
C1101 C1102 1.327 . S
C1102 H1096 0.950 . S
C1102 C1101 1.327 . S
C1102 C1106 1.429 . S
C1103 C1086 1.574 . S
C1103 H1097 0.949 . S
C1103 C1107 1.368 . S
C1104 C1085 1.429 . S
C1104 C1098 1.429 . S
C1104 C1105 1.523 1_655 S
C1105 C1086 1.368 . S
C1105 C1099 1.368 . S
C1105 C1104 1.523 1_455 S
C1106 C1090 1.429 . S
C1106 C1102 1.429 . S
C1106 C1107 1.523 . S
C1107 C1091 1.368 . S
C1107 C1103 1.368 . S
C1107 C1106 1.523 . S
H1108 C1083 0.950 . S
H1109 C1085 0.950 . S
H1110 C1086 0.949 . S
H1111 C1088 0.950 . S
H1112 C1090 0.950 . S
C1113 C1114 1.349 . S
C1113 C1115 1.327 . S
C1113 H1138 0.950 . S
C1114 C1113 1.349 . S
C1114 C1130 1.349 . S
C1115 C1113 1.327 . S
C1115 C1134 1.429 . S
C1115 H1139 0.950 . S
C1116 C1133 1.574 . S
C1116 C1135 1.368 . S
C1116 H1140 0.949 . S
H1117 C1121 0.949 . S
C1118 C1119 1.349 . S
C1118 C1120 1.327 . S
C1118 H1141 0.950 . S
C1119 C1118 1.349 . S
C1119 C1131 1.349 . S
C1120 C1118 1.327 . S
C1120 C1136 1.429 . S
C1120 H1142 0.950 . S
C1121 H1117 0.949 . S
C1121 C1129 1.574 . S
C1121 C1137 1.368 . S
H1122 C1130 0.950 . S
H1123 C1128 0.950 . S
H1124 C1129 0.949 . S
H1125 C1131 0.950 . S
H1126 C1132 0.950 . S
H1127 C1133 0.949 . S
C1128 H1123 0.950 . S
C1128 C1130 1.327 . S
C1128 C1134 1.429 . S
C1129 C1121 1.574 . S
C1129 H1124 0.949 . S
C1129 C1135 1.368 . S
C1130 C1114 1.349 . S
C1130 H1122 0.950 . S
C1130 C1128 1.327 . S
C1131 C1119 1.349 . S
C1131 H1125 0.950 . S
C1131 C1132 1.327 . S
C1132 H1126 0.950 . S
C1132 C1131 1.327 . S
C1132 C1136 1.429 . S
C1133 C1116 1.574 . S
C1133 H1127 0.949 . S
C1133 C1137 1.368 . S
C1134 C1115 1.429 . S
C1134 C1128 1.429 . S
C1134 C1135 1.523 . S
C1135 C1116 1.368 . S
C1135 C1129 1.368 . S
C1135 C1134 1.523 . S
C1136 C1120 1.429 . S
C1136 C1132 1.429 . S
C1136 C1137 1.523 . S
C1137 C1121 1.368 . S
C1137 C1133 1.368 . S
C1137 C1136 1.523 . S
H1138 C1113 0.950 . S
H1139 C1115 0.950 . S
H1140 C1116 0.949 . S
H1141 C1118 0.950 . S
H1142 C1120 0.950 . S
C1143 C1144 1.349 . S
C1143 C1145 1.327 . S
C1143 H1168 0.950 . S
C1144 C1143 1.349 . S
C1144 C1160 1.349 . S
C1145 C1143 1.327 . S
C1145 C1164 1.429 . S
C1145 H1169 0.950 . S
C1146 C1163 1.574 . S
C1146 C1165 1.368 . S
C1146 H1170 0.949 . S
H1147 C1151 0.949 . S
C1148 C1149 1.349 . S
C1148 C1150 1.327 . S
C1148 H1171 0.950 . S
C1149 C1148 1.349 . S
C1149 C1161 1.349 . S
C1150 C1148 1.327 . S
C1150 C1166 1.429 . S
C1150 H1172 0.950 . S
C1151 H1147 0.949 . S
C1151 C1159 1.574 . S
C1151 C1167 1.368 . S
H1152 C1160 0.950 . S
H1153 C1158 0.950 . S
H1154 C1159 0.949 . S
H1155 C1161 0.950 . S
H1156 C1162 0.950 . S
H1157 C1163 0.949 . S
C1158 H1153 0.950 . S
C1158 C1160 1.327 . S
C1158 C1164 1.429 . S
C1159 C1151 1.574 . S
C1159 H1154 0.949 . S
C1159 C1165 1.368 . S
C1160 C1144 1.349 . S
C1160 H1152 0.950 . S
C1160 C1158 1.327 . S
C1161 C1149 1.349 . S
C1161 H1155 0.950 . S
C1161 C1162 1.327 . S
C1162 H1156 0.950 . S
C1162 C1161 1.327 . S
C1162 C1166 1.429 . S
C1163 C1146 1.574 . S
C1163 H1157 0.949 . S
C1163 C1167 1.368 . S
C1164 C1145 1.429 . S
C1164 C1158 1.429 . S
C1164 C1165 1.523 . S
C1165 C1146 1.368 . S
C1165 C1159 1.368 . S
C1165 C1164 1.523 . S
C1166 C1150 1.429 . S
C1166 C1162 1.429 . S
C1166 C1167 1.523 . S
C1167 C1151 1.368 . S
C1167 C1163 1.368 . S
C1167 C1166 1.523 . S
H1168 C1143 0.950 . S
H1169 C1145 0.950 . S
H1170 C1146 0.949 . S
H1171 C1148 0.950 . S
H1172 C1150 0.950 . S
C1173 C1174 1.349 . S
C1173 C1175 1.327 . S
C1173 H1198 0.950 . S
C1174 C1173 1.349 . S
C1174 C1190 1.349 . S
C1175 C1173 1.327 . S
C1175 C1194 1.429 . S
C1175 H1199 0.950 . S
C1176 C1193 1.574 . S
C1176 C1195 1.368 . S
C1176 H1200 0.949 . S
H1177 C1181 0.949 . S
C1178 C1179 1.349 . S
C1178 C1180 1.327 . S
C1178 H1201 0.950 . S
C1179 C1178 1.349 . S
C1179 C1191 1.349 . S
C1180 C1178 1.327 . S
C1180 C1196 1.429 . S
C1180 H1202 0.950 . S
C1181 H1177 0.949 . S
C1181 C1189 1.574 . S
C1181 C1197 1.368 . S
H1182 C1190 0.950 . S
H1183 C1188 0.950 . S
H1184 C1189 0.949 . S
H1185 C1191 0.950 . S
H1186 C1192 0.950 . S
H1187 C1193 0.949 . S
C1188 H1183 0.950 . S
C1188 C1190 1.327 . S
C1188 C1194 1.429 . S
C1189 C1181 1.574 . S
C1189 H1184 0.949 . S
C1189 C1195 1.368 . S
C1190 C1174 1.349 . S
C1190 H1182 0.950 . S
C1190 C1188 1.327 . S
C1191 C1179 1.349 . S
C1191 H1185 0.950 . S
C1191 C1192 1.327 . S
C1192 H1186 0.950 . S
C1192 C1191 1.327 . S
C1192 C1196 1.429 . S
C1193 C1176 1.574 . S
C1193 H1187 0.949 . S
C1193 C1197 1.368 . S
C1194 C1175 1.429 . S
C1194 C1188 1.429 . S
C1194 C1195 1.523 . S
C1195 C1176 1.368 . S
C1195 C1189 1.368 . S
C1195 C1194 1.523 . S
C1196 C1180 1.429 . S
C1196 C1192 1.429 . S
C1196 C1197 1.523 . S
C1197 C1181 1.368 . S
C1197 C1193 1.368 . S
C1197 C1196 1.523 . S
H1198 C1173 0.950 . S
H1199 C1175 0.950 . S
H1200 C1176 0.949 . S
H1201 C1178 0.950 . S
H1202 C1180 0.950 . S
C1203 C1204 1.349 . S
C1203 C1205 1.327 . S
C1203 H1228 0.950 . S
C1204 C1203 1.349 . S
C1204 C1220 1.349 . S
C1205 C1203 1.327 . S
C1205 C1224 1.429 . S
C1205 H1229 0.950 . S
C1206 C1223 1.574 . S
C1206 C1225 1.368 . S
C1206 H1230 0.949 . S
H1207 C1211 0.949 . S
C1208 C1209 1.349 . S
C1208 C1210 1.327 . S
C1208 H1231 0.950 . S
C1209 C1208 1.349 . S
C1209 C1221 1.349 . S
C1210 C1208 1.327 . S
C1210 C1226 1.429 . S
C1210 H1232 0.950 . S
C1211 H1207 0.949 . S
C1211 C1219 1.574 . S
C1211 C1227 1.368 . S
H1212 C1220 0.950 . S
H1213 C1218 0.950 . S
H1214 C1219 0.949 . S
H1215 C1221 0.950 . S
H1216 C1222 0.950 . S
H1217 C1223 0.949 . S
C1218 H1213 0.950 . S
C1218 C1220 1.327 . S
C1218 C1224 1.429 . S
C1219 C1211 1.574 . S
C1219 H1214 0.949 . S
C1219 C1225 1.368 . S
C1220 C1204 1.349 . S
C1220 H1212 0.950 . S
C1220 C1218 1.327 . S
C1221 C1209 1.349 . S
C1221 H1215 0.950 . S
C1221 C1222 1.327 . S
C1222 H1216 0.950 . S
C1222 C1221 1.327 . S
C1222 C1226 1.429 . S
C1223 C1206 1.574 . S
C1223 H1217 0.949 . S
C1223 C1227 1.368 . S
C1224 C1205 1.429 . S
C1224 C1218 1.429 . S
C1224 C1225 1.523 . S
C1225 C1206 1.368 . S
C1225 C1219 1.368 . S
C1225 C1224 1.523 . S
C1226 C1210 1.429 . S
C1226 C1222 1.429 . S
C1226 C1227 1.523 . S
C1227 C1211 1.368 . S
C1227 C1223 1.368 . S
C1227 C1226 1.523 . S
H1228 C1203 0.950 . S
H1229 C1205 0.950 . S
H1230 C1206 0.949 . S
H1231 C1208 0.950 . S
H1232 C1210 0.950 . S
C1233 C1234 1.349 . S
C1233 C1235 1.327 . S
C1233 H1258 0.950 . S
C1234 C1233 1.349 . S
C1234 C1250 1.349 . S
C1235 C1233 1.327 . S
C1235 C1254 1.429 . S
C1235 H1259 0.950 . S
C1236 C1253 1.574 1_565 S
C1236 C1255 1.368 . S
C1236 H1260 0.949 . S
H1237 C1241 0.949 . S
C1238 C1239 1.349 . S
C1238 C1240 1.327 . S
C1238 H1261 0.950 . S
C1239 C1238 1.349 . S
C1239 C1251 1.349 . S
C1240 C1238 1.327 . S
C1240 C1256 1.429 . S
C1240 H1262 0.950 . S
C1241 H1237 0.949 . S
C1241 C1249 1.574 1_545 S
C1241 C1257 1.368 . S
H1242 C1250 0.950 . S
H1243 C1248 0.950 . S
H1244 C1249 0.949 . S
H1245 C1251 0.950 . S
H1246 C1252 0.950 . S
H1247 C1253 0.949 . S
C1248 H1243 0.950 . S
C1248 C1250 1.327 . S
C1248 C1254 1.429 . S
C1249 C1241 1.574 1_565 S
C1249 H1244 0.949 . S
C1249 C1255 1.368 . S
C1250 C1234 1.349 . S
C1250 H1242 0.950 . S
C1250 C1248 1.327 . S
C1251 C1239 1.349 . S
C1251 H1245 0.950 . S
C1251 C1252 1.327 . S
C1252 H1246 0.950 . S
C1252 C1251 1.327 . S
C1252 C1256 1.429 . S
C1253 C1236 1.574 1_545 S
C1253 H1247 0.949 . S
C1253 C1257 1.368 . S
C1254 C1235 1.429 . S
C1254 C1248 1.429 . S
C1254 C1255 1.523 . S
C1255 C1236 1.368 . S
C1255 C1249 1.368 . S
C1255 C1254 1.523 . S
C1256 C1240 1.429 . S
C1256 C1252 1.429 . S
C1256 C1257 1.523 . S
C1257 C1241 1.368 . S
C1257 C1253 1.368 . S
C1257 C1256 1.523 . S
H1258 C1233 0.950 . S
H1259 C1235 0.950 . S
H1260 C1236 0.949 . S
H1261 C1238 0.950 . S
H1262 C1240 0.950 . S
C1263 C1264 1.349 . S
C1263 C1265 1.327 . S
C1263 H1288 0.950 . S
C1264 C1263 1.349 . S
C1264 C1280 1.349 . S
C1265 C1263 1.327 . S
C1265 C1284 1.429 . S
C1265 H1289 0.950 . S
C1266 C1283 1.574 1_455 S
C1266 C1285 1.368 . S
C1266 H1290 0.949 . S
H1267 C1271 0.949 . S
C1268 C1269 1.349 . S
C1268 C1270 1.327 . S
C1268 H1291 0.950 . S
C1269 C1268 1.349 . S
C1269 C1281 1.349 . S
C1270 C1268 1.327 . S
C1270 C1286 1.429 . S
C1270 H1292 0.950 . S
C1271 H1267 0.949 . S
C1271 C1279 1.574 1_655 S
C1271 C1287 1.368 . S
H1272 C1280 0.950 . S
H1273 C1278 0.950 . S
H1274 C1279 0.949 . S
H1275 C1281 0.950 . S
H1276 C1282 0.950 . S
H1277 C1283 0.949 . S
C1278 H1273 0.950 . S
C1278 C1280 1.327 . S
C1278 C1284 1.429 . S
C1279 C1271 1.574 1_455 S
C1279 H1274 0.949 . S
C1279 C1285 1.368 . S
C1280 C1264 1.349 . S
C1280 H1272 0.950 . S
C1280 C1278 1.327 . S
C1281 C1269 1.349 . S
C1281 H1275 0.950 . S
C1281 C1282 1.327 . S
C1282 H1276 0.950 . S
C1282 C1281 1.327 . S
C1282 C1286 1.429 . S
C1283 C1266 1.574 1_655 S
C1283 H1277 0.949 . S
C1283 C1287 1.368 . S
C1284 C1265 1.429 . S
C1284 C1278 1.429 . S
C1284 C1285 1.523 . S
C1285 C1266 1.368 . S
C1285 C1279 1.368 . S
C1285 C1284 1.523 . S
C1286 C1270 1.429 . S
C1286 C1282 1.429 . S
C1286 C1287 1.523 . S
C1287 C1271 1.368 . S
C1287 C1283 1.368 . S
C1287 C1286 1.523 . S
H1288 C1263 0.950 . S
H1289 C1265 0.950 . S
H1290 C1266 0.949 . S
H1291 C1268 0.950 . S
H1292 C1270 0.950 . S
C1293 C1294 1.349 . S
C1293 C1295 1.327 . S
C1293 H1318 0.950 . S
C1294 C1293 1.349 . S
C1294 C1310 1.349 . S
C1295 C1293 1.327 . S
C1295 C1314 1.429 . S
C1295 H1319 0.950 . S
C1296 C1313 1.574 . S
C1296 C1315 1.368 . S
C1296 H1320 0.949 . S
H1297 C1301 0.949 . S
C1298 C1299 1.349 . S
C1298 C1300 1.327 . S
C1298 H1321 0.950 . S
C1299 C1298 1.349 . S
C1299 C1311 1.349 . S
C1300 C1298 1.327 . S
C1300 C1316 1.429 . S
C1300 H1322 0.950 . S
C1301 H1297 0.949 . S
C1301 C1309 1.574 . S
C1301 C1317 1.368 . S
H1302 C1310 0.950 . S
H1303 C1308 0.950 . S
H1304 C1309 0.949 . S
H1305 C1311 0.950 . S
H1306 C1312 0.950 . S
H1307 C1313 0.949 . S
C1308 H1303 0.950 . S
C1308 C1310 1.327 . S
C1308 C1314 1.429 . S
C1309 C1301 1.574 . S
C1309 H1304 0.949 . S
C1309 C1315 1.368 . S
C1310 C1294 1.349 . S
C1310 H1302 0.950 . S
C1310 C1308 1.327 . S
C1311 C1299 1.349 . S
C1311 H1305 0.950 . S
C1311 C1312 1.327 . S
C1312 H1306 0.950 . S
C1312 C1311 1.327 . S
C1312 C1316 1.429 . S
C1313 C1296 1.574 . S
C1313 H1307 0.949 . S
C1313 C1317 1.368 . S
C1314 C1295 1.429 . S
C1314 C1308 1.429 . S
C1314 C1315 1.523 . S
C1315 C1296 1.368 . S
C1315 C1309 1.368 . S
C1315 C1314 1.523 . S
C1316 C1300 1.429 . S
C1316 C1312 1.429 . S
C1316 C1317 1.523 . S
C1317 C1301 1.368 . S
C1317 C1313 1.368 . S
C1317 C1316 1.523 . S
H1318 C1293 0.950 . S
H1319 C1295 0.950 . S
H1320 C1296 0.949 . S
H1321 C1298 0.950 . S
H1322 C1300 0.950 . S
C1323 C1324 1.349 . S
C1323 C1325 1.327 . S
C1323 H1348 0.950 . S
C1324 C1323 1.349 . S
C1324 C1340 1.349 . S
C1325 C1323 1.327 . S
C1325 C1344 1.429 . S
C1325 H1349 0.950 . S
C1326 C1343 1.574 . S
C1326 C1345 1.368 . S
C1326 H1350 0.949 . S
H1327 C1331 0.949 . S
C1328 C1329 1.349 . S
C1328 C1330 1.327 . S
C1328 H1351 0.950 . S
C1329 C1328 1.349 . S
C1329 C1341 1.349 . S
C1330 C1328 1.327 . S
C1330 C1346 1.429 . S
C1330 H1352 0.950 . S
C1331 H1327 0.949 . S
C1331 C1339 1.574 . S
C1331 C1347 1.368 . S
H1332 C1340 0.950 . S
H1333 C1338 0.950 . S
H1334 C1339 0.949 . S
H1335 C1341 0.950 . S
H1336 C1342 0.950 . S
H1337 C1343 0.949 . S
C1338 H1333 0.950 . S
C1338 C1340 1.327 . S
C1338 C1344 1.429 . S
C1339 C1331 1.574 . S
C1339 H1334 0.949 . S
C1339 C1345 1.368 . S
C1340 C1324 1.349 . S
C1340 H1332 0.950 . S
C1340 C1338 1.327 . S
C1341 C1329 1.349 . S
C1341 H1335 0.950 . S
C1341 C1342 1.327 . S
C1342 H1336 0.950 . S
C1342 C1341 1.327 . S
C1342 C1346 1.429 . S
C1343 C1326 1.574 . S
C1343 H1337 0.949 . S
C1343 C1347 1.368 . S
C1344 C1325 1.429 . S
C1344 C1338 1.429 . S
C1344 C1345 1.523 1_455 S
C1345 C1326 1.368 . S
C1345 C1339 1.368 . S
C1345 C1344 1.523 1_655 S
C1346 C1330 1.429 . S
C1346 C1342 1.429 . S
C1346 C1347 1.523 . S
C1347 C1331 1.368 . S
C1347 C1343 1.368 . S
C1347 C1346 1.523 . S
H1348 C1323 0.950 . S
H1349 C1325 0.950 . S
H1350 C1326 0.949 . S
H1351 C1328 0.950 . S
H1352 C1330 0.950 . S
C1353 C1354 1.349 . S
C1353 C1355 1.327 . S
C1353 H1378 0.950 . S
C1354 C1353 1.349 . S
C1354 C1370 1.349 . S
C1355 C1353 1.327 . S
C1355 C1374 1.429 . S
C1355 H1379 0.950 . S
C1356 C1373 1.574 . S
C1356 C1375 1.368 . S
C1356 H1380 0.949 . S
H1357 C1361 0.949 . S
C1358 C1359 1.349 . S
C1358 C1360 1.327 . S
C1358 H1381 0.950 . S
C1359 C1358 1.349 . S
C1359 C1371 1.349 . S
C1360 C1358 1.327 . S
C1360 C1376 1.429 . S
C1360 H1382 0.950 . S
C1361 H1357 0.949 . S
C1361 C1369 1.574 . S
C1361 C1377 1.368 . S
H1362 C1370 0.950 . S
H1363 C1368 0.950 . S
H1364 C1369 0.949 . S
H1365 C1371 0.950 . S
H1366 C1372 0.950 . S
H1367 C1373 0.949 . S
C1368 H1363 0.950 . S
C1368 C1370 1.327 . S
C1368 C1374 1.429 . S
C1369 C1361 1.574 . S
C1369 H1364 0.949 . S
C1369 C1375 1.368 . S
C1370 C1354 1.349 . S
C1370 H1362 0.950 . S
C1370 C1368 1.327 . S
C1371 C1359 1.349 . S
C1371 H1365 0.950 . S
C1371 C1372 1.327 . S
C1372 H1366 0.950 . S
C1372 C1371 1.327 . S
C1372 C1376 1.429 . S
C1373 C1356 1.574 . S
C1373 H1367 0.949 . S
C1373 C1377 1.368 . S
C1374 C1355 1.429 . S
C1374 C1368 1.429 . S
C1374 C1375 1.523 . S
C1375 C1356 1.368 . S
C1375 C1369 1.368 . S
C1375 C1374 1.523 . S
C1376 C1360 1.429 . S
C1376 C1372 1.429 . S
C1376 C1377 1.523 . S
C1377 C1361 1.368 . S
C1377 C1373 1.368 . S
C1377 C1376 1.523 . S
H1378 C1353 0.950 . S
H1379 C1355 0.950 . S
H1380 C1356 0.949 . S
H1381 C1358 0.950 . S
H1382 C1360 0.950 . S
C1383 C1384 1.349 . S
C1383 C1385 1.327 . S
C1383 H1408 0.950 . S
C1384 C1383 1.349 . S
C1384 C1400 1.349 . S
C1385 C1383 1.327 . S
C1385 C1404 1.441 . S
C1385 H1409 0.950 . S
C1386 C1403 1.574 . S
C1386 C1405 1.368 . S
C1386 H1410 0.949 . S
H1387 C1391 0.949 . S
C1388 C1389 1.349 . S
C1388 C1390 1.327 . S
C1388 H1411 0.950 . S
C1389 C1388 1.349 . S
C1389 C1401 1.349 . S
C1390 C1388 1.327 . S
C1390 C1406 1.429 . S
C1390 H1412 0.950 . S
C1391 H1387 0.949 . S
C1391 C1399 1.574 . S
C1391 C1407 1.368 . S
H1392 C1400 0.950 . S
H1393 C1398 0.950 . S
H1394 C1399 0.949 . S
H1395 C1401 0.950 . S
H1396 C1402 0.950 . S
H1397 C1403 0.949 . S
C1398 H1393 0.950 . S
C1398 C1400 1.327 . S
C1398 C1404 1.454 . S
C1399 C1391 1.574 . S
C1399 H1394 0.949 . S
C1399 C1405 1.368 . S
C1400 C1384 1.349 . S
C1400 H1392 0.950 . S
C1400 C1398 1.327 . S
C1401 C1389 1.349 . S
C1401 H1395 0.950 . S
C1401 C1402 1.327 . S
C1402 H1396 0.950 . S
C1402 C1401 1.327 . S
C1402 C1406 1.429 . S
C1403 C1386 1.574 . S
C1403 H1397 0.949 . S
C1403 C1407 1.368 . S
C1404 C1385 1.441 . S
C1404 C1398 1.454 . S
C1404 C1405 1.489 1_565 S
C1405 C1386 1.368 . S
C1405 C1399 1.368 . S
C1405 C1404 1.489 1_545 S
C1406 C1390 1.429 . S
C1406 C1402 1.429 . S
C1406 C1407 1.523 . S
C1407 C1391 1.368 . S
C1407 C1403 1.368 . S
C1407 C1406 1.523 . S
H1408 C1383 0.950 . S
H1409 C1385 0.950 . S
H1410 C1386 0.949 . S
H1411 C1388 0.950 . S
H1412 C1390 0.950 . S
C1413 C1414 1.349 . S
C1413 C1415 1.327 . S
C1413 H1438 0.950 . S
C1414 C1413 1.349 . S
C1414 C1430 1.349 . S
C1415 C1413 1.327 . S
C1415 C1434 1.429 . S
C1415 H1439 0.950 . S
C1416 C1433 1.574 . S
C1416 C1435 1.368 . S
C1416 H1440 0.949 . S
H1417 C1421 0.949 . S
C1418 C1419 1.349 . S
C1418 C1420 1.327 . S
C1418 H1441 0.950 . S
C1419 C1418 1.349 . S
C1419 C1431 1.349 . S
C1420 C1418 1.327 . S
C1420 C1436 1.429 . S
C1420 H1442 0.950 . S
C1421 H1417 0.949 . S
C1421 C1429 1.574 . S
C1421 C1437 1.368 . S
H1422 C1430 0.950 . S
H1423 C1428 0.950 . S
H1424 C1429 0.949 . S
H1425 C1431 0.950 . S
H1426 C1432 0.950 . S
H1427 C1433 0.949 . S
C1428 H1423 0.950 . S
C1428 C1430 1.327 . S
C1428 C1434 1.429 . S
C1429 C1421 1.574 . S
C1429 H1424 0.949 . S
C1429 C1435 1.368 . S
C1430 C1414 1.349 . S
C1430 H1422 0.950 . S
C1430 C1428 1.327 . S
C1431 C1419 1.349 . S
C1431 H1425 0.950 . S
C1431 C1432 1.327 . S
C1432 H1426 0.950 . S
C1432 C1431 1.327 . S
C1432 C1436 1.429 . S
C1433 C1416 1.574 . S
C1433 H1427 0.949 . S
C1433 C1437 1.368 . S
C1434 C1415 1.429 . S
C1434 C1428 1.429 . S
C1434 C1435 1.523 . S
C1435 C1416 1.368 . S
C1435 C1429 1.368 . S
C1435 C1434 1.523 . S
C1436 C1420 1.429 . S
C1436 C1432 1.429 . S
C1436 C1437 1.523 . S
C1437 C1421 1.368 . S
C1437 C1433 1.368 . S
C1437 C1436 1.523 . S
H1438 C1413 0.950 . S
H1439 C1415 0.950 . S
H1440 C1416 0.949 . S
H1441 C1418 0.950 . S
H1442 C1420 0.950 . S
C1443 C1444 1.349 . S
C1443 C1445 1.327 . S
C1443 H1468 0.950 . S
C1444 C1443 1.349 . S
C1444 C1460 1.349 . S
C1445 C1443 1.327 . S
C1445 C1464 1.429 . S
C1445 H1469 0.950 . S
C1446 C1463 1.574 . S
C1446 C1465 1.368 . S
C1446 H1470 0.949 . S
H1447 C1451 0.949 . S
C1448 C1449 1.349 . S
C1448 C1450 1.327 . S
C1448 H1471 0.950 . S
C1449 C1448 1.349 . S
C1449 C1461 1.349 . S
C1450 C1448 1.327 . S
C1450 C1466 1.429 . S
C1450 H1472 0.950 . S
C1451 H1447 0.949 . S
C1451 C1459 1.574 . S
C1451 C1467 1.368 . S
H1452 C1460 0.950 . S
H1453 C1458 0.950 . S
H1454 C1459 0.949 . S
H1455 C1461 0.950 . S
H1456 C1462 0.950 . S
H1457 C1463 0.949 . S
C1458 H1453 0.950 . S
C1458 C1460 1.327 . S
C1458 C1464 1.429 . S
C1459 C1451 1.574 . S
C1459 H1454 0.949 . S
C1459 C1465 1.368 . S
C1460 C1444 1.349 . S
C1460 H1452 0.950 . S
C1460 C1458 1.327 . S
C1461 C1449 1.349 . S
C1461 H1455 0.950 . S
C1461 C1462 1.327 . S
C1462 H1456 0.950 . S
C1462 C1461 1.327 . S
C1462 C1466 1.429 . S
C1463 C1446 1.574 . S
C1463 H1457 0.949 . S
C1463 C1467 1.368 . S
C1464 C1445 1.429 . S
C1464 C1458 1.429 . S
C1464 C1465 1.523 . S
C1465 C1446 1.368 . S
C1465 C1459 1.368 . S
C1465 C1464 1.523 . S
C1466 C1450 1.429 . S
C1466 C1462 1.429 . S
C1466 C1467 1.523 . S
C1467 C1451 1.368 . S
C1467 C1463 1.368 . S
C1467 C1466 1.523 . S
H1468 C1443 0.950 . S
H1469 C1445 0.950 . S
H1470 C1446 0.949 . S
H1471 C1448 0.950 . S
H1472 C1450 0.950 . S
C1473 C1474 1.349 . S
C1473 C1475 1.327 . S
C1473 H1498 0.950 . S
C1474 C1473 1.349 . S
C1474 C1490 1.349 . S
C1475 C1473 1.327 . S
C1475 C1494 1.429 . S
C1475 H1499 0.950 . S
C1476 C1493 1.574 . S
C1476 C1495 1.368 . S
C1476 H1500 0.949 . S
H1477 C1481 0.949 . S
C1478 C1479 1.349 . S
C1478 C1480 1.327 . S
C1478 H1501 0.950 . S
C1479 C1478 1.349 . S
C1479 C1491 1.349 . S
C1480 C1478 1.327 . S
C1480 C1496 1.429 . S
C1480 H1502 0.950 . S
C1481 H1477 0.949 . S
C1481 C1489 1.574 . S
C1481 C1497 1.368 . S
H1482 C1490 0.950 . S
H1483 C1488 0.950 . S
H1484 C1489 0.949 . S
H1485 C1491 0.950 . S
H1486 C1492 0.950 . S
H1487 C1493 0.949 . S
C1488 H1483 0.950 . S
C1488 C1490 1.327 . S
C1488 C1494 1.429 . S
C1489 C1481 1.574 . S
C1489 H1484 0.949 . S
C1489 C1495 1.368 . S
C1490 C1474 1.349 . S
C1490 H1482 0.950 . S
C1490 C1488 1.327 . S
C1491 C1479 1.349 . S
C1491 H1485 0.950 . S
C1491 C1492 1.327 . S
C1492 H1486 0.950 . S
C1492 C1491 1.327 . S
C1492 C1496 1.429 . S
C1493 C1476 1.574 . S
C1493 H1487 0.949 . S
C1493 C1497 1.368 . S
C1494 C1475 1.429 . S
C1494 C1488 1.429 . S
C1494 C1495 1.523 . S
C1495 C1476 1.368 . S
C1495 C1489 1.368 . S
C1495 C1494 1.523 . S
C1496 C1480 1.429 . S
C1496 C1492 1.429 . S
C1496 C1497 1.523 . S
C1497 C1481 1.368 . S
C1497 C1493 1.368 . S
C1497 C1496 1.523 . S
H1498 C1473 0.950 . S
H1499 C1475 0.950 . S
H1500 C1476 0.949 . S
H1501 C1478 0.950 . S
H1502 C1480 0.950 . S
C1503 C1504 1.349 . S
C1503 C1505 1.327 . S
C1503 H1528 0.950 . S
C1504 C1503 1.349 . S
C1504 C1520 1.349 . S
C1505 C1503 1.327 . S
C1505 C1524 1.429 . S
C1505 H1529 0.950 . S
C1506 C1523 1.574 . S
C1506 C1525 1.368 . S
C1506 H1530 0.949 . S
H1507 C1511 0.949 . S
C1508 C1509 1.349 . S
C1508 C1510 1.327 . S
C1508 H1531 0.950 1_565 S
C1509 C1508 1.349 . S
C1509 C1521 1.349 . S
C1510 C1508 1.327 . S
C1510 C1526 1.429 . S
C1510 H1532 0.950 . S
C1511 H1507 0.949 . S
C1511 C1519 1.574 . S
C1511 C1527 1.368 . S
H1512 C1520 0.950 . S
H1513 C1518 0.950 . S
H1514 C1519 0.949 . S
H1515 C1521 0.950 . S
H1516 C1522 0.950 . S
H1517 C1523 0.949 . S
C1518 H1513 0.950 . S
C1518 C1520 1.327 . S
C1518 C1524 1.429 . S
C1519 C1511 1.574 . S
C1519 H1514 0.949 . S
C1519 C1525 1.368 . S
C1520 C1504 1.349 . S
C1520 H1512 0.950 . S
C1520 C1518 1.327 . S
C1521 C1509 1.349 . S
C1521 H1515 0.950 . S
C1521 C1522 1.327 . S
C1522 H1516 0.950 . S
C1522 C1521 1.327 . S
C1522 C1526 1.429 . S
C1523 C1506 1.574 . S
C1523 H1517 0.949 . S
C1523 C1527 1.368 . S
C1524 C1505 1.429 . S
C1524 C1518 1.429 . S
C1524 C1525 1.523 . S
C1525 C1506 1.368 . S
C1525 C1519 1.368 . S
C1525 C1524 1.523 . S
C1526 C1510 1.429 . S
C1526 C1522 1.429 . S
C1526 C1527 1.523 . S
C1527 C1511 1.368 . S
C1527 C1523 1.368 . S
C1527 C1526 1.523 . S
H1528 C1503 0.950 . S
H1529 C1505 0.950 . S
H1530 C1506 0.949 . S
H1531 C1508 0.950 1_545 S
H1532 C1510 0.950 . S
C1533 C1534 1.349 . S
C1533 C1535 1.327 . S
C1533 H1558 0.950 . S
C1534 C1533 1.349 . S
C1534 C1550 1.349 . S
C1535 C1533 1.327 . S
C1535 C1554 1.429 . S
C1535 H1559 0.950 . S
C1536 C1553 1.574 . S
C1536 C1555 1.368 . S
C1536 H1560 0.949 . S
H1537 C1541 0.949 . S
C1538 C1539 1.349 . S
C1538 C1540 1.327 . S
C1538 H1561 0.950 . S
C1539 C1538 1.349 . S
C1539 C1551 1.349 . S
C1540 C1538 1.327 . S
C1540 C1556 1.429 . S
C1540 H1562 0.950 . S
C1541 H1537 0.949 . S
C1541 C1549 1.574 . S
C1541 C1557 1.368 . S
H1542 C1550 0.950 . S
H1543 C1548 0.950 . S
H1544 C1549 0.949 . S
H1545 C1551 0.950 . S
H1546 C1552 0.950 . S
H1547 C1553 0.949 . S
C1548 H1543 0.950 . S
C1548 C1550 1.327 . S
C1548 C1554 1.429 . S
C1549 C1541 1.574 . S
C1549 H1544 0.949 . S
C1549 C1555 1.368 . S
C1550 C1534 1.349 . S
C1550 H1542 0.950 . S
C1550 C1548 1.327 . S
C1551 C1539 1.349 . S
C1551 H1545 0.950 . S
C1551 C1552 1.327 . S
C1552 H1546 0.950 . S
C1552 C1551 1.327 . S
C1552 C1556 1.429 . S
C1553 C1536 1.574 . S
C1553 H1547 0.949 . S
C1553 C1557 1.368 . S
C1554 C1535 1.429 . S
C1554 C1548 1.429 . S
C1554 C1555 1.523 . S
C1555 C1536 1.368 . S
C1555 C1549 1.368 . S
C1555 C1554 1.523 . S
C1556 C1540 1.429 . S
C1556 C1552 1.429 . S
C1556 C1557 1.523 . S
C1557 C1541 1.368 . S
C1557 C1553 1.368 . S
C1557 C1556 1.523 . S
H1558 C1533 0.950 . S
H1559 C1535 0.950 . S
H1560 C1536 0.949 . S
H1561 C1538 0.950 . S
H1562 C1540 0.950 . S
C1563 C1564 1.349 . S
C1563 C1565 1.327 . S
C1563 H1588 0.950 . S
C1564 C1563 1.349 . S
C1564 C1580 1.349 . S
C1565 C1563 1.327 . S
C1565 C1584 1.429 . S
C1565 H1589 0.950 . S
C1566 C1583 1.574 . S
C1566 C1585 1.368 . S
C1566 H1590 0.949 . S
H1567 C1571 0.949 . S
C1568 C1569 1.349 . S
C1568 C1570 1.327 . S
C1568 H1591 0.950 . S
C1569 C1568 1.349 . S
C1569 C1581 1.349 . S
C1570 C1568 1.327 . S
C1570 C1586 1.429 . S
C1570 H1592 0.950 . S
C1571 H1567 0.949 . S
C1571 C1579 1.574 . S
C1571 C1587 1.368 . S
H1572 C1580 0.950 . S
H1573 C1578 0.950 . S
H1574 C1579 0.949 . S
H1575 C1581 0.950 . S
H1576 C1582 0.950 . S
H1577 C1583 0.949 . S
C1578 H1573 0.950 . S
C1578 C1580 1.327 . S
C1578 C1584 1.429 . S
C1579 C1571 1.574 . S
C1579 H1574 0.949 . S
C1579 C1585 1.368 . S
C1580 C1564 1.349 . S
C1580 H1572 0.950 . S
C1580 C1578 1.327 . S
C1581 C1569 1.349 . S
C1581 H1575 0.950 . S
C1581 C1582 1.327 . S
C1582 H1576 0.950 . S
C1582 C1581 1.327 . S
C1582 C1586 1.429 . S
C1583 C1566 1.574 . S
C1583 H1577 0.949 . S
C1583 C1587 1.368 . S
C1584 C1565 1.429 . S
C1584 C1578 1.429 . S
C1584 C1585 1.523 . S
C1585 C1566 1.368 . S
C1585 C1579 1.368 . S
C1585 C1584 1.523 . S
C1586 C1570 1.429 . S
C1586 C1582 1.429 . S
C1586 C1587 1.523 . S
C1587 C1571 1.368 . S
C1587 C1583 1.368 . S
C1587 C1586 1.523 . S
H1588 C1563 0.950 . S
H1589 C1565 0.950 . S
H1590 C1566 0.949 . S
H1591 C1568 0.950 . S
H1592 C1570 0.950 . S
C1593 C1594 1.349 . S
C1593 C1595 1.327 . S
C1593 H1618 0.950 . S
C1594 C1593 1.349 . S
C1594 C1610 1.349 . S
C1595 C1593 1.327 . S
C1595 C1614 1.429 . S
C1595 H1619 0.950 . S
C1596 C1613 1.574 . S
C1596 C1615 1.368 . S
C1596 H1620 0.949 . S
H1597 C1601 0.949 . S
C1598 C1599 1.349 . S
C1598 C1600 1.327 . S
C1598 H1621 0.950 . S
C1599 C1598 1.349 . S
C1599 C1611 1.349 . S
C1600 C1598 1.327 . S
C1600 C1616 1.429 . S
C1600 H1622 0.950 . S
C1601 H1597 0.949 . S
C1601 C1609 1.574 . S
C1601 C1617 1.368 . S
H1602 C1610 0.950 . S
H1603 C1608 0.950 . S
H1604 C1609 0.949 . S
H1605 C1611 0.950 . S
H1606 C1612 0.950 . S
H1607 C1613 0.949 . S
C1608 H1603 0.950 . S
C1608 C1610 1.327 . S
C1608 C1614 1.429 . S
C1609 C1601 1.574 . S
C1609 H1604 0.949 . S
C1609 C1615 1.368 . S
C1610 C1594 1.349 . S
C1610 H1602 0.950 . S
C1610 C1608 1.327 . S
C1611 C1599 1.349 . S
C1611 H1605 0.950 . S
C1611 C1612 1.327 . S
C1612 H1606 0.950 . S
C1612 C1611 1.327 . S
C1612 C1616 1.429 . S
C1613 C1596 1.574 . S
C1613 H1607 0.949 . S
C1613 C1617 1.368 . S
C1614 C1595 1.429 . S
C1614 C1608 1.429 . S
C1614 C1615 1.523 . S
C1615 C1596 1.368 . S
C1615 C1609 1.368 . S
C1615 C1614 1.523 . S
C1616 C1600 1.429 . S
C1616 C1612 1.429 . S
C1616 C1617 1.523 . S
C1617 C1601 1.368 . S
C1617 C1613 1.368 . S
C1617 C1616 1.523 . S
H1618 C1593 0.950 . S
H1619 C1595 0.950 . S
H1620 C1596 0.949 . S
H1621 C1598 0.950 . S
H1622 C1600 0.950 . S
C1623 C1624 1.349 . S
C1623 C1625 1.327 . S
C1623 H1648 0.950 . S
C1624 C1623 1.349 . S
C1624 C1640 1.349 . S
C1625 C1623 1.327 . S
C1625 C1644 1.429 . S
C1625 H1649 0.950 . S
C1626 C1643 1.574 . S
C1626 C1645 1.368 . S
C1626 H1650 0.949 . S
H1627 C1631 0.949 . S
C1628 C1629 1.349 . S
C1628 C1630 1.327 . S
C1628 H1651 0.950 . S
C1629 C1628 1.349 . S
C1629 C1641 1.349 . S
C1630 C1628 1.327 . S
C1630 C1646 1.429 . S
C1630 H1652 0.950 . S
C1631 H1627 0.949 . S
C1631 C1639 1.574 . S
C1631 C1647 1.368 . S
H1632 C1640 0.950 . S
H1633 C1638 0.950 . S
H1634 C1639 0.949 . S
H1635 C1641 0.950 . S
H1636 C1642 0.950 . S
H1637 C1643 0.949 . S
C1638 H1633 0.950 . S
C1638 C1640 1.327 . S
C1638 C1644 1.429 . S
C1639 C1631 1.574 . S
C1639 H1634 0.949 . S
C1639 C1645 1.368 . S
C1640 C1624 1.349 . S
C1640 H1632 0.950 . S
C1640 C1638 1.327 . S
C1641 C1629 1.349 . S
C1641 H1635 0.950 . S
C1641 C1642 1.327 . S
C1642 H1636 0.950 . S
C1642 C1641 1.327 . S
C1642 C1646 1.429 . S
C1643 C1626 1.574 . S
C1643 H1637 0.949 . S
C1643 C1647 1.368 . S
C1644 C1625 1.429 . S
C1644 C1638 1.429 . S
C1644 C1645 1.523 . S
C1645 C1626 1.368 . S
C1645 C1639 1.368 . S
C1645 C1644 1.523 . S
C1646 C1630 1.429 . S
C1646 C1642 1.429 . S
C1646 C1647 1.523 . S
C1647 C1631 1.368 . S
C1647 C1643 1.368 . S
C1647 C1646 1.523 . S
H1648 C1623 0.950 . S
H1649 C1625 0.950 . S
H1650 C1626 0.949 . S
H1651 C1628 0.950 . S
H1652 C1630 0.950 . S
C1653 C1654 1.349 . S
C1653 C1655 1.327 . S
C1653 H1678 0.950 . S
C1654 C1653 1.349 . S
C1654 C1670 1.349 . S
C1655 C1653 1.327 . S
C1655 C1674 1.429 . S
C1655 H1679 0.950 . S
C1656 C1673 1.574 . S
C1656 C1675 1.368 . S
C1656 H1680 0.949 . S
H1657 C1661 0.949 . S
C1658 C1659 1.349 . S
C1658 C1660 1.327 . S
C1658 H1681 0.950 . S
C1659 C1658 1.349 . S
C1659 C1671 1.349 . S
C1660 C1658 1.327 . S
C1660 C1676 1.429 . S
C1660 H1682 0.950 . S
C1661 H1657 0.949 . S
C1661 C1669 1.574 . S
C1661 C1677 1.368 . S
H1662 C1670 0.950 . S
H1663 C1668 0.950 . S
H1664 C1669 0.949 . S
H1665 C1671 0.950 . S
H1666 C1672 0.950 . S
H1667 C1673 0.949 . S
C1668 H1663 0.950 . S
C1668 C1670 1.327 . S
C1668 C1674 1.429 . S
C1669 C1661 1.574 . S
C1669 H1664 0.949 . S
C1669 C1675 1.368 . S
C1670 C1654 1.349 . S
C1670 H1662 0.950 . S
C1670 C1668 1.327 . S
C1671 C1659 1.349 . S
C1671 H1665 0.950 . S
C1671 C1672 1.327 . S
C1672 H1666 0.950 . S
C1672 C1671 1.327 . S
C1672 C1676 1.429 . S
C1673 C1656 1.574 . S
C1673 H1667 0.949 . S
C1673 C1677 1.368 . S
C1674 C1655 1.429 . S
C1674 C1668 1.429 . S
C1674 C1675 1.523 . S
C1675 C1656 1.368 . S
C1675 C1669 1.368 . S
C1675 C1674 1.523 . S
C1676 C1660 1.429 . S
C1676 C1672 1.429 . S
C1676 C1677 1.523 . S
C1677 C1661 1.368 . S
C1677 C1673 1.368 . S
C1677 C1676 1.523 . S
H1678 C1653 0.950 . S
H1679 C1655 0.950 . S
H1680 C1656 0.949 . S
H1681 C1658 0.950 . S
H1682 C1660 0.950 . S
C1683 C1684 1.349 . S
C1683 C1685 1.327 . S
C1683 H1708 0.950 . S
C1684 C1683 1.349 . S
C1684 C1700 1.349 . S
C1685 C1683 1.327 . S
C1685 C1704 1.429 . S
C1685 H1709 0.950 . S
C1686 C1703 1.574 . S
C1686 C1705 1.368 . S
C1686 H1710 0.949 . S
H1687 C1691 0.949 . S
C1688 C1689 1.349 . S
C1688 C1690 1.327 . S
C1688 H1711 0.950 . S
C1689 C1688 1.349 . S
C1689 C1701 1.349 . S
C1690 C1688 1.327 . S
C1690 C1706 1.429 . S
C1690 H1712 0.950 . S
C1691 H1687 0.949 . S
C1691 C1699 1.574 . S
C1691 C1707 1.368 . S
H1692 C1700 0.950 . S
H1693 C1698 0.950 . S
H1694 C1699 0.949 . S
H1695 C1701 0.950 . S
H1696 C1702 0.950 . S
H1697 C1703 0.949 . S
C1698 H1693 0.950 . S
C1698 C1700 1.327 . S
C1698 C1704 1.429 . S
C1699 C1691 1.574 . S
C1699 H1694 0.949 . S
C1699 C1705 1.368 . S
C1700 C1684 1.349 . S
C1700 H1692 0.950 . S
C1700 C1698 1.327 . S
C1701 C1689 1.349 . S
C1701 H1695 0.950 . S
C1701 C1702 1.327 . S
C1702 H1696 0.950 . S
C1702 C1701 1.327 . S
C1702 C1706 1.429 . S
C1703 C1686 1.574 . S
C1703 H1697 0.949 . S
C1703 C1707 1.368 . S
C1704 C1685 1.429 . S
C1704 C1698 1.429 . S
C1704 C1705 1.523 . S
C1705 C1686 1.368 . S
C1705 C1699 1.368 . S
C1705 C1704 1.523 . S
C1706 C1690 1.429 . S
C1706 C1702 1.429 . S
C1706 C1707 1.523 . S
C1707 C1691 1.368 . S
C1707 C1703 1.368 . S
C1707 C1706 1.523 . S
H1708 C1683 0.950 . S
H1709 C1685 0.950 . S
H1710 C1686 0.949 . S
H1711 C1688 0.950 . S
H1712 C1690 0.950 . S
C1713 C1714 1.349 . S
C1713 C1715 1.327 . S
C1713 H1738 0.950 . S
C1714 C1713 1.349 . S
C1714 C1730 1.349 . S
C1715 C1713 1.327 . S
C1715 C1734 1.429 . S
C1715 H1739 0.950 . S
C1716 C1733 1.574 . S
C1716 C1735 1.368 . S
C1716 H1740 0.949 . S
H1717 C1721 0.949 . S
C1718 C1719 1.349 . S
C1718 C1720 1.327 . S
C1718 H1741 0.950 . S
C1719 C1718 1.349 . S
C1719 C1731 1.349 . S
C1720 C1718 1.327 . S
C1720 C1736 1.429 . S
C1720 H1742 0.950 . S
C1721 H1717 0.949 . S
C1721 C1729 1.574 . S
C1721 C1737 1.368 . S
H1722 C1730 0.950 . S
H1723 C1728 0.950 . S
H1724 C1729 0.949 . S
H1725 C1731 0.950 . S
H1726 C1732 0.950 . S
H1727 C1733 0.949 . S
C1728 H1723 0.950 . S
C1728 C1730 1.327 . S
C1728 C1734 1.429 . S
C1729 C1721 1.574 . S
C1729 H1724 0.949 . S
C1729 C1735 1.368 . S
C1730 C1714 1.349 . S
C1730 H1722 0.950 . S
C1730 C1728 1.327 . S
C1731 C1719 1.349 . S
C1731 H1725 0.950 . S
C1731 C1732 1.327 . S
C1732 H1726 0.950 . S
C1732 C1731 1.327 . S
C1732 C1736 1.429 . S
C1733 C1716 1.574 . S
C1733 H1727 0.949 . S
C1733 C1737 1.368 . S
C1734 C1715 1.429 . S
C1734 C1728 1.429 . S
C1734 C1735 1.523 . S
C1735 C1716 1.368 . S
C1735 C1729 1.368 . S
C1735 C1734 1.523 . S
C1736 C1720 1.429 . S
C1736 C1732 1.429 . S
C1736 C1737 1.523 . S
C1737 C1721 1.368 . S
C1737 C1733 1.368 . S
C1737 C1736 1.523 . S
H1738 C1713 0.950 . S
H1739 C1715 0.950 . S
H1740 C1716 0.949 . S
H1741 C1718 0.950 . S
H1742 C1720 0.950 . S
C1743 C1744 1.349 . S
C1743 C1745 1.327 . S
C1743 H1768 0.950 . S
C1744 C1743 1.349 . S
C1744 C1760 1.349 . S
C1745 C1743 1.327 . S
C1745 C1764 1.429 . S
C1745 H1769 0.950 . S
C1746 C1763 1.574 . S
C1746 C1765 1.368 . S
C1746 H1770 0.949 . S
H1747 C1751 0.949 . S
C1748 C1749 1.349 . S
C1748 C1750 1.327 . S
C1748 H1771 0.950 . S
C1749 C1748 1.349 . S
C1749 C1761 1.349 . S
C1750 C1748 1.327 . S
C1750 C1766 1.429 . S
C1750 H1772 0.950 . S
C1751 H1747 0.949 . S
C1751 C1759 1.574 . S
C1751 C1767 1.368 . S
H1752 C1760 0.950 . S
H1753 C1758 0.950 . S
H1754 C1759 0.949 . S
H1755 C1761 0.950 . S
H1756 C1762 0.950 . S
H1757 C1763 0.949 . S
C1758 H1753 0.950 . S
C1758 C1760 1.327 . S
C1758 C1764 1.429 . S
C1759 C1751 1.574 . S
C1759 H1754 0.949 . S
C1759 C1765 1.368 . S
C1760 C1744 1.349 . S
C1760 H1752 0.950 . S
C1760 C1758 1.327 . S
C1761 C1749 1.349 . S
C1761 H1755 0.950 . S
C1761 C1762 1.327 . S
C1762 H1756 0.950 . S
C1762 C1761 1.327 . S
C1762 C1766 1.429 . S
C1763 C1746 1.574 . S
C1763 H1757 0.949 . S
C1763 C1767 1.368 . S
C1764 C1745 1.429 . S
C1764 C1758 1.429 . S
C1764 C1765 1.523 . S
C1765 C1746 1.368 . S
C1765 C1759 1.368 . S
C1765 C1764 1.523 . S
C1766 C1750 1.429 . S
C1766 C1762 1.429 . S
C1766 C1767 1.523 . S
C1767 C1751 1.368 . S
C1767 C1763 1.368 . S
C1767 C1766 1.523 . S
H1768 C1743 0.950 . S
H1769 C1745 0.950 . S
H1770 C1746 0.949 . S
H1771 C1748 0.950 . S
H1772 C1750 0.950 . S
C1773 C1774 1.349 . S
C1773 C1775 1.327 . S
C1773 H1798 0.950 . S
C1774 C1773 1.349 . S
C1774 C1790 1.349 . S
C1775 C1773 1.327 . S
C1775 C1794 1.429 . S
C1775 H1799 0.950 . S
C1776 C1793 1.574 . S
C1776 C1795 1.368 . S
C1776 H1800 0.949 . S
H1777 C1781 0.949 . S
C1778 C1779 1.349 . S
C1778 C1780 1.327 . S
C1778 H1801 0.950 . S
C1779 C1778 1.349 . S
C1779 C1791 1.349 . S
C1780 C1778 1.327 . S
C1780 C1796 1.429 . S
C1780 H1802 0.950 . S
C1781 H1777 0.949 . S
C1781 C1789 1.574 . S
C1781 C1797 1.368 . S
H1782 C1790 0.950 . S
H1783 C1788 0.950 . S
H1784 C1789 0.949 . S
H1785 C1791 0.950 . S
H1786 C1792 0.950 . S
H1787 C1793 0.949 . S
C1788 H1783 0.950 . S
C1788 C1790 1.327 . S
C1788 C1794 1.429 . S
C1789 C1781 1.574 . S
C1789 H1784 0.949 . S
C1789 C1795 1.368 . S
C1790 C1774 1.349 . S
C1790 H1782 0.950 . S
C1790 C1788 1.327 . S
C1791 C1779 1.349 . S
C1791 H1785 0.950 . S
C1791 C1792 1.327 . S
C1792 H1786 0.950 . S
C1792 C1791 1.327 . S
C1792 C1796 1.429 . S
C1793 C1776 1.574 . S
C1793 H1787 0.949 . S
C1793 C1797 1.368 . S
C1794 C1775 1.429 . S
C1794 C1788 1.429 . S
C1794 C1795 1.523 . S
C1795 C1776 1.368 . S
C1795 C1789 1.368 . S
C1795 C1794 1.523 . S
C1796 C1780 1.429 . S
C1796 C1792 1.429 . S
C1796 C1797 1.523 . S
C1797 C1781 1.368 . S
C1797 C1793 1.368 . S
C1797 C1796 1.523 . S
H1798 C1773 0.950 . S
H1799 C1775 0.950 . S
H1800 C1776 0.949 . S
H1801 C1778 0.950 . S
H1802 C1780 0.950 . S
C1803 C1804 1.349 . S
C1803 C1805 1.327 . S
C1803 H1828 0.950 . S
C1804 C1803 1.349 . S
C1804 C1820 1.349 . S
C1805 C1803 1.327 . S
C1805 C1824 1.429 . S
C1805 H1829 0.950 . S
C1806 C1823 1.574 . S
C1806 C1825 1.368 . S
C1806 H1830 0.949 . S
H1807 C1811 0.949 . S
C1808 C1809 1.349 . S
C1808 C1810 1.327 . S
C1808 H1831 0.950 . S
C1809 C1808 1.349 . S
C1809 C1821 1.349 . S
C1810 C1808 1.327 . S
C1810 C1826 1.429 . S
C1810 H1832 0.950 . S
C1811 H1807 0.949 . S
C1811 C1819 1.574 . S
C1811 C1827 1.368 . S
H1812 C1820 0.950 . S
H1813 C1818 0.950 . S
H1814 C1819 0.949 . S
H1815 C1821 0.950 . S
H1816 C1822 0.950 . S
H1817 C1823 0.949 . S
C1818 H1813 0.950 . S
C1818 C1820 1.327 . S
C1818 C1824 1.429 . S
C1819 C1811 1.574 . S
C1819 H1814 0.949 . S
C1819 C1825 1.368 . S
C1820 C1804 1.349 . S
C1820 H1812 0.950 . S
C1820 C1818 1.327 . S
C1821 C1809 1.349 . S
C1821 H1815 0.950 . S
C1821 C1822 1.327 . S
C1822 H1816 0.950 . S
C1822 C1821 1.327 . S
C1822 C1826 1.429 . S
C1823 C1806 1.574 . S
C1823 H1817 0.949 . S
C1823 C1827 1.368 . S
C1824 C1805 1.429 . S
C1824 C1818 1.429 . S
C1824 C1825 1.523 . S
C1825 C1806 1.368 . S
C1825 C1819 1.368 . S
C1825 C1824 1.523 . S
C1826 C1810 1.429 . S
C1826 C1822 1.429 . S
C1826 C1827 1.523 . S
C1827 C1811 1.368 . S
C1827 C1823 1.368 . S
C1827 C1826 1.523 . S
H1828 C1803 0.950 . S
H1829 C1805 0.950 . S
H1830 C1806 0.949 . S
H1831 C1808 0.950 . S
H1832 C1810 0.950 . S
C1833 C1834 1.349 . S
C1833 C1835 1.327 . S
C1833 H1858 0.950 . S
C1834 C1833 1.349 . S
C1834 C1850 1.349 . S
C1835 C1833 1.327 . S
C1835 C1854 1.429 . S
C1835 H1859 0.950 . S
C1836 C1853 1.574 . S
C1836 C1855 1.368 . S
C1836 H1860 0.949 . S
H1837 C1841 0.949 . S
C1838 C1839 1.349 . S
C1838 C1840 1.327 . S
C1838 H1861 0.950 . S
C1839 C1838 1.349 . S
C1839 C1851 1.349 . S
C1840 C1838 1.327 . S
C1840 C1856 1.429 . S
C1840 H1862 0.950 . S
C1841 H1837 0.949 . S
C1841 C1849 1.574 . S
C1841 C1857 1.368 . S
H1842 C1850 0.950 . S
H1843 C1848 0.950 . S
H1844 C1849 0.949 . S
H1845 C1851 0.950 . S
H1846 C1852 0.950 . S
H1847 C1853 0.949 . S
C1848 H1843 0.950 . S
C1848 C1850 1.327 . S
C1848 C1854 1.429 . S
C1849 C1841 1.574 . S
C1849 H1844 0.949 . S
C1849 C1855 1.368 . S
C1850 C1834 1.349 . S
C1850 H1842 0.950 . S
C1850 C1848 1.327 . S
C1851 C1839 1.349 . S
C1851 H1845 0.950 . S
C1851 C1852 1.327 . S
C1852 H1846 0.950 . S
C1852 C1851 1.327 . S
C1852 C1856 1.429 . S
C1853 C1836 1.574 . S
C1853 H1847 0.949 . S
C1853 C1857 1.368 . S
C1854 C1835 1.429 . S
C1854 C1848 1.429 . S
C1854 C1855 1.523 . S
C1855 C1836 1.368 . S
C1855 C1849 1.368 . S
C1855 C1854 1.523 . S
C1856 C1840 1.429 . S
C1856 C1852 1.429 . S
C1856 C1857 1.523 . S
C1857 C1841 1.368 . S
C1857 C1853 1.368 . S
C1857 C1856 1.523 . S
H1858 C1833 0.950 . S
H1859 C1835 0.950 . S
H1860 C1836 0.949 . S
H1861 C1838 0.950 . S
H1862 C1840 0.950 . S
C1863 C1864 1.349 . S
C1863 C1865 1.327 . S
C1863 H1888 0.950 . S
C1864 C1863 1.349 . S
C1864 C1880 1.349 . S
C1865 C1863 1.327 . S
C1865 C1884 1.429 . S
C1865 H1889 0.950 . S
C1866 C1883 1.574 . S
C1866 C1885 1.368 . S
C1866 H1890 0.949 . S
H1867 C1871 0.949 . S
C1868 C1869 1.349 . S
C1868 C1870 1.327 . S
C1868 H1891 0.950 . S
C1869 C1868 1.349 . S
C1869 C1881 1.349 . S
C1870 C1868 1.327 . S
C1870 C1886 1.429 . S
C1870 H1892 0.950 . S
C1871 H1867 0.949 . S
C1871 C1879 1.574 . S
C1871 C1887 1.368 . S
H1872 C1880 0.950 . S
H1873 C1878 0.950 . S
H1874 C1879 0.949 . S
H1875 C1881 0.950 . S
H1876 C1882 0.950 . S
H1877 C1883 0.949 . S
C1878 H1873 0.950 . S
C1878 C1880 1.327 . S
C1878 C1884 1.429 . S
C1879 C1871 1.574 . S
C1879 H1874 0.949 . S
C1879 C1885 1.368 . S
C1880 C1864 1.349 . S
C1880 H1872 0.950 . S
C1880 C1878 1.327 . S
C1881 C1869 1.349 . S
C1881 H1875 0.950 . S
C1881 C1882 1.327 . S
C1882 H1876 0.950 . S
C1882 C1881 1.327 . S
C1882 C1886 1.429 . S
C1883 C1866 1.574 . S
C1883 H1877 0.949 . S
C1883 C1887 1.368 . S
C1884 C1865 1.429 . S
C1884 C1878 1.429 . S
C1884 C1885 1.523 . S
C1885 C1866 1.368 . S
C1885 C1879 1.368 . S
C1885 C1884 1.523 . S
C1886 C1870 1.429 . S
C1886 C1882 1.429 . S
C1886 C1887 1.523 . S
C1887 C1871 1.368 . S
C1887 C1883 1.368 . S
C1887 C1886 1.523 . S
H1888 C1863 0.950 . S
H1889 C1865 0.950 . S
H1890 C1866 0.949 . S
H1891 C1868 0.950 . S
H1892 C1870 0.950 . S
C1893 C1894 1.349 . S
C1893 C1895 1.327 . S
C1893 H1918 0.950 . S
C1894 C1893 1.349 . S
C1894 C1910 1.349 . S
C1895 C1893 1.327 . S
C1895 C1914 1.429 . S
C1895 H1919 0.950 . S
C1896 C1913 1.574 . S
C1896 C1915 1.368 . S
C1896 H1920 0.949 . S
H1897 C1901 0.949 . S
C1898 C1899 1.349 . S
C1898 C1900 1.327 . S
C1898 H1921 0.950 . S
C1899 C1898 1.349 . S
C1899 C1911 1.349 . S
C1900 C1898 1.327 . S
C1900 C1916 1.429 . S
C1900 H1922 0.950 . S
C1901 H1897 0.949 . S
C1901 C1909 1.574 . S
C1901 C1917 1.368 . S
H1902 C1910 0.950 . S
H1903 C1908 0.950 . S
H1904 C1909 0.949 . S
H1905 C1911 0.950 . S
H1906 C1912 0.950 . S
H1907 C1913 0.949 . S
C1908 H1903 0.950 . S
C1908 C1910 1.327 . S
C1908 C1914 1.429 . S
C1909 C1901 1.574 . S
C1909 H1904 0.949 . S
C1909 C1915 1.368 . S
C1910 C1894 1.349 . S
C1910 H1902 0.950 . S
C1910 C1908 1.327 . S
C1911 C1899 1.349 . S
C1911 H1905 0.950 . S
C1911 C1912 1.327 . S
C1912 H1906 0.950 . S
C1912 C1911 1.327 . S
C1912 C1916 1.429 . S
C1913 C1896 1.574 . S
C1913 H1907 0.949 . S
C1913 C1917 1.368 . S
C1914 C1895 1.429 . S
C1914 C1908 1.429 . S
C1914 C1915 1.523 . S
C1915 C1896 1.368 . S
C1915 C1909 1.368 . S
C1915 C1914 1.523 . S
C1916 C1900 1.429 . S
C1916 C1912 1.429 . S
C1916 C1917 1.523 . S
C1917 C1901 1.368 . S
C1917 C1913 1.368 . S
C1917 C1916 1.523 . S
H1918 C1893 0.950 . S
H1919 C1895 0.950 . S
H1920 C1896 0.949 . S
H1921 C1898 0.950 . S
H1922 C1900 0.950 . S
C1923 C1924 1.349 . S
C1923 C1925 1.327 . S
C1923 H1948 0.950 . S
C1924 C1923 1.349 . S
C1924 C1940 1.349 . S
C1925 C1923 1.327 . S
C1925 C1944 1.429 . S
C1925 H1949 0.950 . S
C1926 C1943 1.574 . S
C1926 C1945 1.368 . S
C1926 H1950 0.949 . S
H1927 C1931 0.949 . S
C1928 C1929 1.349 . S
C1928 C1930 1.327 . S
C1928 H1951 0.950 . S
C1929 C1928 1.349 . S
C1929 C1941 1.349 . S
C1930 C1928 1.327 . S
C1930 C1946 1.429 . S
C1930 H1952 0.950 . S
C1931 H1927 0.949 . S
C1931 C1939 1.574 . S
C1931 C1947 1.368 . S
H1932 C1940 0.950 . S
H1933 C1938 0.950 . S
H1934 C1939 0.949 . S
H1935 C1941 0.950 . S
H1936 C1942 0.950 . S
H1937 C1943 0.949 . S
C1938 H1933 0.950 . S
C1938 C1940 1.327 . S
C1938 C1944 1.429 . S
C1939 C1931 1.574 . S
C1939 H1934 0.949 . S
C1939 C1945 1.368 . S
C1940 C1924 1.349 . S
C1940 H1932 0.950 . S
C1940 C1938 1.327 . S
C1941 C1929 1.349 . S
C1941 H1935 0.950 . S
C1941 C1942 1.327 . S
C1942 H1936 0.950 . S
C1942 C1941 1.327 . S
C1942 C1946 1.429 . S
C1943 C1926 1.574 . S
C1943 H1937 0.949 . S
C1943 C1947 1.368 . S
C1944 C1925 1.429 . S
C1944 C1938 1.429 . S
C1944 C1945 1.523 . S
C1945 C1926 1.368 . S
C1945 C1939 1.368 . S
C1945 C1944 1.523 . S
C1946 C1930 1.429 . S
C1946 C1942 1.429 . S
C1946 C1947 1.523 . S
C1947 C1931 1.368 . S
C1947 C1943 1.368 . S
C1947 C1946 1.523 . S
H1948 C1923 0.950 . S
H1949 C1925 0.950 . S
H1950 C1926 0.949 . S
H1951 C1928 0.950 . S
H1952 C1930 0.950 . S
C1953 C1954 1.349 . S
C1953 C1955 1.327 . S
C1953 H1978 0.950 . S
C1954 C1953 1.349 . S
C1954 C1970 1.349 . S
C1955 C1953 1.327 . S
C1955 C1974 1.429 . S
C1955 H1979 0.950 . S
C1956 C1973 1.574 . S
C1956 C1975 1.368 . S
C1956 H1980 0.949 . S
H1957 C1961 0.949 . S
C1958 C1959 1.349 . S
C1958 C1960 1.327 . S
C1958 H1981 0.950 . S
C1959 C1958 1.349 . S
C1959 C1971 1.349 . S
C1960 C1958 1.327 . S
C1960 C1976 1.429 . S
C1960 H1982 0.950 . S
C1961 H1957 0.949 . S
C1961 C1969 1.574 . S
C1961 C1977 1.368 . S
H1962 C1970 0.950 . S
H1963 C1968 0.950 . S
H1964 C1969 0.949 . S
H1965 C1971 0.950 . S
H1966 C1972 0.950 . S
H1967 C1973 0.949 . S
C1968 H1963 0.950 . S
C1968 C1970 1.327 . S
C1968 C1974 1.429 . S
C1969 C1961 1.574 . S
C1969 H1964 0.949 . S
C1969 C1975 1.368 . S
C1970 C1954 1.349 . S
C1970 H1962 0.950 . S
C1970 C1968 1.327 . S
C1971 C1959 1.349 . S
C1971 H1965 0.950 . S
C1971 C1972 1.327 . S
C1972 H1966 0.950 . S
C1972 C1971 1.327 . S
C1972 C1976 1.429 . S
C1973 C1956 1.574 . S
C1973 H1967 0.949 . S
C1973 C1977 1.368 . S
C1974 C1955 1.429 . S
C1974 C1968 1.429 . S
C1974 C1975 1.523 . S
C1975 C1956 1.368 . S
C1975 C1969 1.368 . S
C1975 C1974 1.523 . S
C1976 C1960 1.429 . S
C1976 C1972 1.429 . S
C1976 C1977 1.523 . S
C1977 C1961 1.368 . S
C1977 C1973 1.368 . S
C1977 C1976 1.523 . S
H1978 C1953 0.950 . S
H1979 C1955 0.950 . S
H1980 C1956 0.949 . S
H1981 C1958 0.950 . S
H1982 C1960 0.950 . S
C1983 C1984 1.349 . S
C1983 C1985 1.327 . S
C1983 H2008 0.950 . S
C1984 C1983 1.349 . S
C1984 C2000 1.349 . S
C1985 C1983 1.327 . S
C1985 C2004 1.429 . S
C1985 H2009 0.950 . S
C1986 C2003 1.574 . S
C1986 C2005 1.368 . S
C1986 H2010 0.949 . S
H1987 C1991 0.949 . S
C1988 C1989 1.349 . S
C1988 C1990 1.327 . S
C1988 H2011 0.950 . S
C1989 C1988 1.349 . S
C1989 C2001 1.349 . S
C1990 C1988 1.327 . S
C1990 C2006 1.429 . S
C1990 H2012 0.950 . S
C1991 H1987 0.949 . S
C1991 C1999 1.574 . S
C1991 C2007 1.368 . S
H1992 C2000 0.950 . S
H1993 C1998 0.950 . S
H1994 C1999 0.949 . S
H1995 C2001 0.950 . S
H1996 C2002 0.950 . S
H1997 C2003 0.949 . S
C1998 H1993 0.950 . S
C1998 C2000 1.327 . S
C1998 C2004 1.429 . S
C1999 C1991 1.574 . S
C1999 H1994 0.949 . S
C1999 C2005 1.368 . S
C2000 C1984 1.349 . S
C2000 H1992 0.950 . S
C2000 C1998 1.327 . S
C2001 C1989 1.349 . S
C2001 H1995 0.950 . S
C2001 C2002 1.327 . S
C2002 H1996 0.950 . S
C2002 C2001 1.327 . S
C2002 C2006 1.429 . S
C2003 C1986 1.574 . S
C2003 H1997 0.949 . S
C2003 C2007 1.368 . S
C2004 C1985 1.429 . S
C2004 C1998 1.429 . S
C2004 C2005 1.523 . S
C2005 C1986 1.368 . S
C2005 C1999 1.368 . S
C2005 C2004 1.523 . S
C2006 C1990 1.429 . S
C2006 C2002 1.429 . S
C2006 C2007 1.523 . S
C2007 C1991 1.368 . S
C2007 C2003 1.368 . S
C2007 C2006 1.523 . S
H2008 C1983 0.950 . S
H2009 C1985 0.950 . S
H2010 C1986 0.949 . S
H2011 C1988 0.950 . S
H2012 C1990 0.950 . S
C2013 C2014 1.349 . S
C2013 C2015 1.327 . S
C2013 H2038 0.950 . S
C2014 C2013 1.349 . S
C2014 C2030 1.349 . S
C2015 C2013 1.327 . S
C2015 C2034 1.429 . S
C2015 H2039 0.950 . S
C2016 C2033 1.574 . S
C2016 C2035 1.368 . S
C2016 H2040 0.949 . S
H2017 C2021 0.949 . S
C2018 C2019 1.349 . S
C2018 C2020 1.327 . S
C2018 H2041 0.950 . S
C2019 C2018 1.349 . S
C2019 C2031 1.349 . S
C2020 C2018 1.327 . S
C2020 C2036 1.429 . S
C2020 H2042 0.950 . S
C2021 H2017 0.949 . S
C2021 C2029 1.574 . S
C2021 C2037 1.368 . S
H2022 C2030 0.950 . S
H2023 C2028 0.950 . S
H2024 C2029 0.949 . S
H2025 C2031 0.950 . S
H2026 C2032 0.950 . S
H2027 C2033 0.949 . S
C2028 H2023 0.950 . S
C2028 C2030 1.327 . S
C2028 C2034 1.429 . S
C2029 C2021 1.574 . S
C2029 H2024 0.949 . S
C2029 C2035 1.368 . S
C2030 C2014 1.349 . S
C2030 H2022 0.950 . S
C2030 C2028 1.327 . S
C2031 C2019 1.349 . S
C2031 H2025 0.950 . S
C2031 C2032 1.327 . S
C2032 H2026 0.950 . S
C2032 C2031 1.327 . S
C2032 C2036 1.429 . S
C2033 C2016 1.574 . S
C2033 H2027 0.949 . S
C2033 C2037 1.368 . S
C2034 C2015 1.429 . S
C2034 C2028 1.429 . S
C2034 C2035 1.523 . S
C2035 C2016 1.368 . S
C2035 C2029 1.368 . S
C2035 C2034 1.523 . S
C2036 C2020 1.429 . S
C2036 C2032 1.429 . S
C2036 C2037 1.523 . S
C2037 C2021 1.368 . S
C2037 C2033 1.368 . S
C2037 C2036 1.523 . S
H2038 C2013 0.950 . S
H2039 C2015 0.950 . S
H2040 C2016 0.949 . S
H2041 C2018 0.950 . S
H2042 C2020 0.950 . S
C424 C177 1.409 . S
C429 C248 1.387 . S
C454 C190 1.390 . S
C459 C269 1.363 . S
C484 C164 1.339 . S
C489 C289 1.201 . S
C514 C151 1.338 . S
C519 C268 1.193 . S
C549 C290 1.380 . S
C544 C125 1.407 . S
C574 C138 1.350 1_554 S
C579 C247 1.211 . S
C609 C249 1.370 . S
C604 C147 1.367 1_554 S
C639 C270 1.370 . S
C634 C121 1.361 . S
C664 C134 1.416 . S
C669 C292 1.260 . S
C694 C173 1.384 . S
C699 C271 1.243 1_554 S
C724 C186 1.335 . S
C729 C291 1.346 . S
C759 C250 1.252 1_554 S
C754 C160 1.400 . S
C789 C311 1.386 . S
C784 C21 1.409 . S
C814 C34 1.390 . S
C819 C332 1.363 . S
C844 C8 1.339 . S
C849 C352 1.201 . S
C874 C229 1.338 . S
C879 C331 1.193 . S
C904 C203 1.407 . S
C909 C353 1.380 . S
C934 C216 1.358 . S
C939 C310 1.211 . S
C964 C225 1.367 . S
C969 C312 1.370 . S
C994 C199 1.354 . S
C999 C333 1.370 . S
C1029 C355 1.260 . S
C1024 C212 1.416 . S
C1054 C17 1.384 . S
C1059 C334 1.243 . S
C1089 C354 1.346 . S
C1084 C30 1.335 . S
C1114 C4 1.400 . S
C1119 C313 1.252 . S
C1149 C374 1.386 . S
C1144 C99 1.408 . S
C1174 C112 1.390 . S
C1179 C395 1.363 . S
C1209 C415 1.201 . S
C1204 C86 1.339 . S
C1239 C394 1.193 . S
C1234 C73 1.338 . S
C1269 C416 1.380 . S
C1264 C47 1.408 . S
C1294 C60 1.358 . S
C1299 C373 1.211 . S
C1324 C69 1.367 . S
C1329 C375 1.370 . S
C1354 C43 1.354 . S
C1359 C396 1.370 . S
C1389 C418 1.260 . S
C1384 C56 1.416 . S
C1414 C95 1.384 . S
C1419 C397 1.243 . S
C1444 C108 1.335 . S
C1449 C417 1.346 . S
C1474 C82 1.400 . S
C1479 C376 1.252 . S
C1504 C204 1.485 . S
C1509 C252 1.472 . S
C1539 C273 1.510 . S
C1534 C217 1.523 . S
C1564 C230 1.556 . S
C1569 C293 1.503 . S
C1594 C87 1.630 . S
C1599 C272 1.575 . S
C1624 C100 1.560 . S
C1629 C294 1.544 . S
C1659 C251 1.538 . S
C1654 C113 1.590 . S
C1684 C48 1.485 . S
C1689 C315 1.471 . S
C1714 C61 1.523 . S
C1719 C336 1.510 . S
C1744 C74 1.556 . S
C1749 C356 1.503 . S
C1774 C165 1.630 . S
C1779 C335 1.575 . S
C1809 C357 1.544 . S
C1804 C178 1.560 . S
C1834 C191 1.590 . S
C1839 C314 1.538 . S
C1864 C126 1.485 . S
C1869 C378 1.471 . S
C1894 C139 1.523 . S
C1899 C399 1.510 . S
C1929 C419 1.503 . S
C1924 C152 1.556 . S
C1954 C9 1.630 . S
C1959 C398 1.575 . S
C1984 C22 1.560 . S
C1989 C420 1.544 . S
C2014 C35 1.590 . S
C2019 C377 1.538 . S
