# Generated by pormake.
# Topology pto, (3,4)-cn, num edge types: 1
# Building blocks:
#     Node 0, Type 0, BuildingBlock: MIDCAF_clean_linker_0, # of connection points: 3
#     Node 1, Type 0, BuildingBlock: MIDCAF_clean_linker_0, # of connection points: 3
#     Node 2, Type 0, BuildingBlock: MIDCAF_clean_linker_0, # of connection points: 3
#     Node 3, Type 0, BuildingBlock: MIDCAF_clean_linker_0, # of connection points: 3
#     Node 4, Type 0, BuildingBlock: MIDCAF_clean_linker_0, # of connection points: 3
#     Node 5, Type 0, BuildingBlock: MIDCAF_clean_linker_0, # of connection points: 3
#     Node 6, Type 0, BuildingBlock: MIDCAF_clean_linker_0, # of connection points: 3
#     Node 7, Type 0, BuildingBlock: MIDCAF_clean_linker_0, # of connection points: 3
#     Node 8, Type 1, BuildingBlock: NAWXER_clean_sbu_0, # of connection points: 4
#     Node 9, Type 1, BuildingBlock: NAWXER_clean_sbu_0, # of connection points: 4
#     Node 10, Type 1, BuildingBlock: NAWXER_clean_sbu_0, # of connection points: 4
#     Node 11, Type 1, BuildingBlock: NAWXER_clean_sbu_0, # of connection points: 4
#     Node 12, Type 1, BuildingBlock: NAWXER_clean_sbu_0, # of connection points: 4
#     Node 13, Type 1, BuildingBlock: NAWXER_clean_sbu_0, # of connection points: 4
#     Edge 14, Type (0, 1), BuildingBlock: XIVTED_clean_linker_0, # of connection points: 2
#     Edge 15, Type (0, 1), BuildingBlock: XIVTED_clean_linker_0, # of connection points: 2
#     Edge 16, Type (0, 1), BuildingBlock: XIVTED_clean_linker_0, # of connection points: 2
#     Edge 17, Type (0, 1), BuildingBlock: XIVTED_clean_linker_0, # of connection points: 2
#     Edge 18, Type (0, 1), BuildingBlock: XIVTED_clean_linker_0, # of connection points: 2
#     Edge 19, Type (0, 1), BuildingBlock: XIVTED_clean_linker_0, # of connection points: 2
#     Edge 20, Type (0, 1), BuildingBlock: XIVTED_clean_linker_0, # of connection points: 2
#     Edge 21, Type (0, 1), BuildingBlock: XIVTED_clean_linker_0, # of connection points: 2
#     Edge 22, Type (0, 1), BuildingBlock: XIVTED_clean_linker_0, # of connection points: 2
#     Edge 23, Type (0, 1), BuildingBlock: XIVTED_clean_linker_0, # of connection points: 2
#     Edge 24, Type (0, 1), BuildingBlock: XIVTED_clean_linker_0, # of connection points: 2
#     Edge 25, Type (0, 1), BuildingBlock: XIVTED_clean_linker_0, # of connection points: 2
#     Edge 26, Type (0, 1), BuildingBlock: XIVTED_clean_linker_0, # of connection points: 2
#     Edge 27, Type (0, 1), BuildingBlock: XIVTED_clean_linker_0, # of connection points: 2
#     Edge 28, Type (0, 1), BuildingBlock: XIVTED_clean_linker_0, # of connection points: 2
#     Edge 29, Type (0, 1), BuildingBlock: XIVTED_clean_linker_0, # of connection points: 2
#     Edge 30, Type (0, 1), BuildingBlock: XIVTED_clean_linker_0, # of connection points: 2
#     Edge 31, Type (0, 1), BuildingBlock: XIVTED_clean_linker_0, # of connection points: 2
#     Edge 32, Type (0, 1), BuildingBlock: XIVTED_clean_linker_0, # of connection points: 2
#     Edge 33, Type (0, 1), BuildingBlock: XIVTED_clean_linker_0, # of connection points: 2
#     Edge 34, Type (0, 1), BuildingBlock: XIVTED_clean_linker_0, # of connection points: 2
#     Edge 35, Type (0, 1), BuildingBlock: XIVTED_clean_linker_0, # of connection points: 2
#     Edge 36, Type (0, 1), BuildingBlock: XIVTED_clean_linker_0, # of connection points: 2
#     Edge 37, Type (0, 1), BuildingBlock: XIVTED_clean_linker_0, # of connection points: 2
# Relax obj value: 0.000
# Max RMSD: 0.002
# Mean RMSD: 0.001
data_MOF--net-pto--node1-NAWXER_clean_sbu_0--node2-MIDCAF_clean_linker_0--edge1-XIVTED_clean_linker_0
_symmetry_space_group_name_H-M    P1
_symmetry_Int_Tables_number       1
_symmetry_cell_setting            triclinic
loop_
_symmetry_equiv_pos_as_xyz
'x, y, z'
_cell_length_a     54.088457
_cell_length_b     50.74434
_cell_length_c     47.35824
_cell_angle_alpha  89.698409
_cell_angle_beta   90.06093
_cell_angle_gamma 90.205154
loop_
_atom_site_label
_atom_site_type_symbol
_atom_site_fract_x
_atom_site_fract_y
_atom_site_fract_z
_atom_type_partial_charge
C0 C 0.31819 0.24253 0.20175 0.0
C1 C 0.32299 0.2637 0.18332 0.0
C2 C 0.30624 0.28486 0.18242 0.0
C3 C 0.28504 0.28467 0.19932 0.0
H4 H 0.22959 0.33415 0.24188 0.0
H5 H 0.19994 0.37064 0.24435 0.0
H6 H 0.14156 0.31537 0.26399 0.0
H7 H 0.17084 0.27917 0.26195 0.0
H8 H 0.18581 0.22444 0.28847 0.0
H9 H 0.17634 0.18486 0.31574 0.0
H10 H 0.25075 0.15684 0.30215 0.0
H11 H 0.25997 0.19584 0.27425 0.0
H12 H 0.29396 0.22555 0.2324 0.0
H13 H 0.33091 0.22616 0.20338 0.0
H14 H 0.30924 0.30136 0.16823 0.0
H15 H 0.27238 0.30111 0.1978 0.0
N16 N 0.24144 0.28317 0.23556 0.0
N17 N 0.21437 0.25874 0.26433 0.0
N18 N 0.25114 0.23974 0.24865 0.0
C19 C 0.22002 0.28148 0.25053 0.0
C20 C 0.22984 0.23784 0.2636 0.0
C21 C 0.25708 0.26221 0.23448 0.0
C22 C 0.20254 0.30379 0.25165 0.0
C23 C 0.21042 0.32986 0.24673 0.0
C24 C 0.19357 0.3507 0.24836 0.0
C25 C 0.16856 0.34569 0.25434 0.0
C26 C 0.16075 0.31969 0.25923 0.0
C27 C 0.17756 0.299 0.25811 0.0
C28 C 0.2237 0.21338 0.27925 0.0
C29 C 0.2001 0.20974 0.29115 0.0
C30 C 0.19467 0.18709 0.30687 0.0
C31 C 0.21275 0.16765 0.31115 0.0
C32 C 0.2362 0.17114 0.29884 0.0
C33 C 0.24157 0.19366 0.28299 0.0
C34 C 0.28007 0.26328 0.21744 0.0
C35 C 0.29701 0.2423 0.21856 0.0
C36 C 0.20119 0.64629 0.75199 0.0
C37 C 0.17998 0.64852 0.73491 0.0
C38 C 0.1754 0.67255 0.72105 0.0
C39 C 0.19127 0.694 0.72469 0.0
H40 H 0.20575 0.76716 0.69279 0.0
H41 H 0.20096 0.8065 0.66368 0.0
H42 H 0.25484 0.84718 0.71507 0.0
H43 H 0.2601 0.80779 0.7438 0.0
H44 H 0.29672 0.7742 0.7784 0.0
H45 H 0.33152 0.77353 0.81058 0.0
H46 H 0.30915 0.69654 0.84068 0.0
H47 H 0.27443 0.69682 0.80773 0.0
H48 H 0.23303 0.66549 0.76931 0.0
H49 H 0.20547 0.62793 0.76266 0.0
H50 H 0.15907 0.67512 0.70809 0.0
H51 H 0.18681 0.71231 0.71401 0.0
N52 N 0.22377 0.73804 0.73264 0.0
N53 N 0.25687 0.75856 0.75559 0.0
N54 N 0.24721 0.71449 0.76597 0.0
C55 C 0.238 0.75973 0.7368 0.0
C56 C 0.26166 0.73612 0.77026 0.0
C57 C 0.22818 0.71536 0.74711 0.0
C58 C 0.23354 0.78418 0.72045 0.0
C59 C 0.21645 0.78454 0.69805 0.0
C60 C 0.21357 0.80715 0.68145 0.0
C61 C 0.22766 0.82987 0.68696 0.0
C62 C 0.24404 0.82981 0.70999 0.0
C63 C 0.24699 0.80722 0.72651 0.0
C64 C 0.28268 0.73553 0.79039 0.0
C65 C 0.29907 0.75708 0.79187 0.0
C66 C 0.31902 0.75681 0.81053 0.0
C67 C 0.32311 0.73506 0.82835 0.0
C68 C 0.3067 0.7135 0.82701 0.0
C69 C 0.28672 0.71371 0.80819 0.0
C70 C 0.21211 0.69205 0.7424 0.0
C71 C 0.21705 0.66782 0.75574 0.0
C72 C 0.69014 0.72005 0.16784 0.0
C73 C 0.67799 0.74402 0.16204 0.0
C74 C 0.68296 0.7658 0.17936 0.0
C75 C 0.69896 0.76353 0.20232 0.0
H76 H 0.69741 0.78121 0.29103 0.0
H77 H 0.69212 0.81352 0.32831 0.0
H78 H 0.76857 0.80321 0.35275 0.0
H79 H 0.77346 0.7701 0.31639 0.0
H80 H 0.80505 0.7266 0.28449 0.0
H81 H 0.84042 0.69701 0.28667 0.0
H82 H 0.80139 0.64068 0.2351 0.0
H83 H 0.76586 0.67064 0.2323 0.0
H84 H 0.71534 0.69914 0.19482 0.0
H85 H 0.68656 0.70272 0.15522 0.0
H86 H 0.67453 0.78476 0.1752 0.0
H87 H 0.70217 0.78075 0.21526 0.0
N88 N 0.72398 0.75452 0.25498 0.0
N89 N 0.75814 0.73663 0.27837 0.0
N90 N 0.7458 0.71957 0.2345 0.0
C91 C 0.73928 0.75412 0.27762 0.0
C92 C 0.76146 0.71921 0.25704 0.0
C93 C 0.72712 0.73748 0.23331 0.0
C94 C 0.73587 0.77315 0.30074 0.0
C95 C 0.71304 0.78577 0.3045 0.0
C96 C 0.71004 0.8044 0.32579 0.0
C97 C 0.72991 0.8111 0.34355 0.0
C98 C 0.75269 0.79823 0.33989 0.0
C99 C 0.75557 0.77933 0.31888 0.0
C100 C 0.78267 0.70093 0.25818 0.0
C101 C 0.80391 0.70789 0.27363 0.0
C102 C 0.82419 0.69105 0.27484 0.0
C103 C 0.82351 0.66665 0.26111 0.0
C104 C 0.80221 0.65939 0.24598 0.0
C105 C 0.78203 0.67655 0.24424 0.0
C106 C 0.71079 0.73954 0.20834 0.0
C107 C 0.70653 0.71789 0.19064 0.0
C108 C 0.74852 0.20757 0.66801 0.0
C109 C 0.72561 0.19474 0.66471 0.0
C110 C 0.70596 0.20162 0.6826 0.0
C111 C 0.70928 0.22058 0.70356 0.0
H112 H 0.68085 0.2436 0.77862 0.0
H113 H 0.65341 0.24175 0.81899 0.0
H114 H 0.70118 0.29557 0.86396 0.0
H115 H 0.7286 0.29794 0.82312 0.0
H116 H 0.76525 0.33656 0.77173 0.0
H117 H 0.80124 0.36594 0.76689 0.0
H118 H 0.8393 0.30614 0.71947 0.0
H119 H 0.80347 0.2771 0.72371 0.0
H120 H 0.76975 0.23592 0.69084 0.0
H121 H 0.76425 0.2024 0.65508 0.0
H122 H 0.68797 0.19241 0.6804 0.0
H123 H 0.69381 0.22534 0.7171 0.0
N124 N 0.72029 0.2539 0.75164 0.0
N125 N 0.74375 0.28798 0.7718 0.0
N126 N 0.75585 0.26923 0.72878 0.0
C127 C 0.72398 0.27128 0.77295 0.0
C128 C 0.75975 0.28699 0.74965 0.0
C129 C 0.73608 0.25277 0.72951 0.0
C130 C 0.70701 0.27097 0.79753 0.0
C131 C 0.68562 0.2551 0.79706 0.0
C132 C 0.66992 0.25382 0.82036 0.0
C133 C 0.67518 0.26831 0.84483 0.0
C134 C 0.69649 0.2843 0.84534 0.0
C135 C 0.71223 0.28565 0.82193 0.0
C136 C 0.78155 0.30457 0.74809 0.0
C137 C 0.78135 0.32973 0.76037 0.0
C138 C 0.80179 0.34656 0.75744 0.0
C139 C 0.82291 0.33822 0.74277 0.0
C140 C 0.82323 0.31296 0.73092 0.0
C141 C 0.8027 0.29642 0.73331 0.0
C142 C 0.73225 0.23325 0.70688 0.0
C143 C 0.75174 0.22671 0.6887 0.0
C144 C 0.68238 0.73741 0.80468 0.0
C145 C 0.67903 0.71226 0.81686 0.0
C146 C 0.69809 0.69367 0.81415 0.0
C147 C 0.72006 0.7002 0.80022 0.0
H148 H 0.79147 0.67772 0.79735 0.0
H149 H 0.82623 0.64813 0.8034 0.0
H150 H 0.87204 0.70055 0.75365 0.0
H151 H 0.837 0.73002 0.74694 0.0
H152 H 0.81251 0.78463 0.72339 0.0
H153 H 0.8148 0.82298 0.69226 0.0
H154 H 0.735 0.82722 0.69121 0.0
H155 H 0.73277 0.78967 0.72302 0.0
H156 H 0.70631 0.7635 0.78171 0.0
H157 H 0.66835 0.75245 0.8067 0.0
H158 H 0.69607 0.67396 0.82272 0.0
H159 H 0.73436 0.68538 0.79874 0.0
N160 N 0.7675 0.71735 0.77875 0.0
N161 N 0.79107 0.74523 0.74965 0.0
N162 N 0.74903 0.75411 0.75747 0.0
C163 C 0.7895 0.72352 0.76658 0.0
C164 C 0.77087 0.76062 0.74492 0.0
C165 C 0.74722 0.73249 0.77443 0.0
C166 C 0.81128 0.70626 0.77142 0.0
C167 C 0.80895 0.68312 0.78775 0.0
C168 C 0.829 0.66616 0.79146 0.0
C169 C 0.85198 0.67187 0.779 0.0
C170 C 0.85451 0.69533 0.76322 0.0
C171 C 0.83441 0.71231 0.75946 0.0
C172 C 0.77245 0.78402 0.72589 0.0
C173 C 0.79544 0.79379 0.71658 0.0
C174 C 0.79675 0.81575 0.69855 0.0
C175 C 0.7751 0.82841 0.68915 0.0
C176 C 0.75213 0.81847 0.69838 0.0
C177 C 0.75084 0.79671 0.71658 0.0
C178 C 0.72349 0.72542 0.78833 0.0
C179 C 0.70427 0.74385 0.79046 0.0
C180 C 0.79461 0.19389 0.30984 0.0
C181 C 0.77293 0.18141 0.31963 0.0
C182 C 0.74996 0.19149 0.31075 0.0
C183 C 0.74868 0.21312 0.29239 0.0
H184 H 0.7038 0.24471 0.22606 0.0
H185 H 0.66576 0.25574 0.20116 0.0
H186 H 0.69497 0.33328 0.18238 0.0
H187 H 0.73325 0.32187 0.20621 0.0
H188 H 0.79691 0.31294 0.19148 0.0
H189 H 0.83123 0.3427 0.18214 0.0
H190 H 0.86181 0.3245 0.26438 0.0
H191 H 0.82802 0.29357 0.27294 0.0
H192 H 0.8104 0.22466 0.28441 0.0
H193 H 0.81265 0.18657 0.31584 0.0
H194 H 0.73283 0.18288 0.31825 0.0
H195 H 0.73062 0.22022 0.28611 0.0
N196 N 0.74699 0.25453 0.25001 0.0
N197 N 0.76592 0.28999 0.22657 0.0
N198 N 0.78919 0.26349 0.25733 0.0
C199 C 0.74541 0.27536 0.23191 0.0
C200 C 0.78783 0.28425 0.23909 0.0
C201 C 0.76882 0.24843 0.26283 0.0
C202 C 0.72169 0.2823 0.21799 0.0
C203 C 0.70206 0.26414 0.21669 0.0
C204 C 0.68014 0.27056 0.20252 0.0
C205 C 0.67719 0.29544 0.1896 0.0
C206 C 0.69667 0.31376 0.1915 0.0
C207 C 0.71865 0.30724 0.20535 0.0
C208 C 0.80969 0.301 0.23302 0.0
C209 C 0.81109 0.31515 0.20748 0.0
C210 C 0.83073 0.33242 0.20222 0.0
C211 C 0.8493 0.33642 0.22259 0.0
C212 C 0.84813 0.32177 0.24794 0.0
C213 C 0.82867 0.30408 0.25298 0.0
C214 C 0.77032 0.22554 0.28255 0.0
C215 C 0.79332 0.21572 0.29164 0.0
C216 C 0.28657 0.18746 0.69667 0.0
C217 C 0.27264 0.18886 0.67167 0.0
C218 C 0.25784 0.21109 0.66667 0.0
C219 C 0.25656 0.2313 0.68664 0.0
H220 H 0.20101 0.27588 0.73034 0.0
H221 H 0.16284 0.30035 0.73694 0.0
H222 H 0.20006 0.35208 0.79554 0.0
H223 H 0.238 0.32723 0.78961 0.0
H224 H 0.28876 0.31001 0.81457 0.0
H225 H 0.32289 0.31801 0.84689 0.0
H226 H 0.36776 0.26249 0.80106 0.0
H227 H 0.33343 0.25391 0.76911 0.0
H228 H 0.29669 0.20629 0.73543 0.0
H229 H 0.29811 0.17049 0.70096 0.0
H230 H 0.24683 0.21252 0.64761 0.0
H231 H 0.24473 0.24804 0.68241 0.0
N232 N 0.24778 0.26537 0.73579 0.0
N233 N 0.26567 0.2894 0.77274 0.0
N234 N 0.28839 0.25624 0.75042 0.0
C235 C 0.24598 0.28448 0.75573 0.0
C236 C 0.28696 0.27549 0.77023 0.0
C237 C 0.26892 0.25115 0.73304 0.0
C238 C 0.22269 0.29955 0.75937 0.0
C239 C 0.20109 0.29246 0.74465 0.0
C240 C 0.17917 0.30658 0.74837 0.0
C241 C 0.1783 0.32825 0.76678 0.0
C242 C 0.19988 0.33526 0.78156 0.0
C243 C 0.22176 0.32108 0.77795 0.0
C244 C 0.30819 0.28112 0.78927 0.0
C245 C 0.30591 0.29952 0.81126 0.0
C246 C 0.32559 0.3043 0.82973 0.0
C247 C 0.3481 0.29086 0.82669 0.0
C248 C 0.35056 0.27288 0.80434 0.0
C249 C 0.33086 0.26803 0.78591 0.0
C250 C 0.27053 0.22996 0.71167 0.0
C251 C 0.28579 0.20796 0.7163 0.0
C252 C 0.19404 0.68365 0.20071 0.0
C253 C 0.17547 0.68157 0.2214 0.0
C254 C 0.17909 0.69457 0.24731 0.0
C255 C 0.20066 0.70908 0.2524 0.0
H256 H 0.22623 0.77979 0.29042 0.0
H257 H 0.22708 0.81451 0.32541 0.0
H258 H 0.30695 0.8153 0.32264 0.0
H259 H 0.30606 0.78107 0.28672 0.0
H260 H 0.33265 0.74998 0.23557 0.0
H261 H 0.36889 0.74027 0.20702 0.0
H262 H 0.32448 0.69007 0.1536 0.0
H263 H 0.28846 0.69916 0.18247 0.0
H264 H 0.22973 0.6988 0.18961 0.0
H265 H 0.19182 0.67444 0.18029 0.0
H266 H 0.16553 0.69309 0.26405 0.0
H267 H 0.20291 0.71854 0.2727 0.0
N268 N 0.24384 0.74359 0.25822 0.0
N269 N 0.28596 0.75056 0.24867 0.0
N270 N 0.26345 0.71933 0.22278 0.0
C271 C 0.26534 0.75661 0.26375 0.0
C272 C 0.28515 0.73191 0.22813 0.0
C273 C 0.24276 0.72494 0.23776 0.0
C274 C 0.26607 0.77751 0.28567 0.0
C275 C 0.24402 0.78726 0.29726 0.0
C276 C 0.24452 0.80716 0.31755 0.0
C277 C 0.26709 0.81775 0.32713 0.0
C278 C 0.28918 0.80795 0.31558 0.0
C279 C 0.28868 0.78815 0.29505 0.0
C280 C 0.30751 0.72551 0.21131 0.0
C281 C 0.3306 0.73678 0.21783 0.0
C282 C 0.3514 0.73127 0.20136 0.0
C283 C 0.34964 0.71445 0.17789 0.0
C284 C 0.32666 0.70281 0.17172 0.0
C285 C 0.30589 0.70823 0.18822 0.0
C286 C 0.21938 0.7106 0.23193 0.0
C287 C 0.21579 0.69779 0.20599 0.0
C288 C 0.97561 0.48097 0.21377 0.0
C289 C 0.03405 0.55498 0.212 0.0
O290 O 0.98287 0.48824 0.23829 0.0
Zn291 Zn 0.00559 0.518 0.25692 0.0
O292 O 0.98282 0.49359 0.19198 0.0
Zn293 Zn 0.00426 0.51851 0.21158 0.0
O294 O 0.03129 0.49312 0.22996 0.0
O295 O 0.03031 0.49689 0.27641 0.0
O296 O 0.02497 0.54319 0.19071 0.0
O297 O 0.02801 0.54756 0.23699 0.0
O298 O 0.98164 0.53834 0.27807 0.0
O299 O 0.97827 0.5436 0.23186 0.0
C300 C 0.03954 0.48659 0.25437 0.0
C301 C 0.97125 0.54922 0.25694 0.0
C302 C 0.9692 0.45871 0.73352 0.0
C303 C 0.04027 0.5186 0.73284 0.0
O304 O 0.97757 0.4641 0.75814 0.0
Zn305 Zn 0.0051 0.48821 0.77723 0.0
O306 O 0.97876 0.46954 0.71182 0.0
Zn307 Zn 0.00421 0.48946 0.73156 0.0
O308 O 0.02686 0.4594 0.74984 0.0
O309 O 0.02568 0.46211 0.79638 0.0
O310 O 0.02869 0.51043 0.71114 0.0
O311 O 0.03292 0.5117 0.75751 0.0
O312 O 0.98562 0.51434 0.79794 0.0
O313 O 0.98333 0.51915 0.75172 0.0
C314 C 0.03378 0.45101 0.77417 0.0
C315 C 0.97749 0.52686 0.77651 0.0
C316 C 0.22764 0.97277 0.5408 0.0
C317 C 0.21836 0.03209 0.46099 0.0
O318 O 0.20766 0.98127 0.52999 0.0
Zn319 Zn 0.22279 0.00304 0.50167 0.0
O320 O 0.24853 0.98029 0.53066 0.0
Zn321 Zn 0.26181 0.00554 0.49713 0.0
O322 O 0.27995 0.03303 0.51702 0.0
O323 O 0.24012 0.03289 0.52689 0.0
O324 O 0.24106 0.02704 0.46648 0.0
O325 O 0.20142 0.02279 0.47671 0.0
O326 O 0.23919 0.97384 0.47448 0.0
O327 O 0.27947 0.98093 0.47331 0.0
C328 C 0.26184 0.04242 0.53071 0.0
C329 C 0.26076 0.96757 0.46548 0.0
C330 C 0.54477 0.74037 0.0162 0.0
C331 C 0.47239 0.73511 0.95472 0.0
O332 O 0.53742 0.71678 0.01145 0.0
Zn333 Zn 0.50883 0.69665 0.98917 0.0
O334 O 0.53297 0.75978 0.0058 0.0
Zn335 Zn 0.50835 0.73904 0.98579 0.0
O336 O 0.48749 0.72313 0.01978 0.0
O337 O 0.48977 0.67975 0.01952 0.0
O338 O 0.48309 0.75601 0.96315 0.0
O339 O 0.48042 0.71258 0.96286 0.0
O340 O 0.52856 0.6763 0.9627 0.0
O341 O 0.53004 0.71926 0.95478 0.0
C342 C 0.48167 0.7008 0.03063 0.0
C343 C 0.53647 0.6958 0.94822 0.0
C344 C 0.77137 0.97368 0.5441 0.0
C345 C 0.77083 0.0344 0.46285 0.0
O346 O 0.74954 0.9798 0.53578 0.0
Zn347 Zn 0.7325 0.00356 0.50348 0.0
O348 O 0.79001 0.98345 0.53141 0.0
Zn349 Zn 0.77187 0.00396 0.50341 0.0
O350 O 0.75458 0.03417 0.52784 0.0
O351 O 0.71408 0.02866 0.52522 0.0
O352 O 0.78963 0.02492 0.47539 0.0
O353 O 0.74911 0.0278 0.47122 0.0
O354 O 0.71434 0.97804 0.48179 0.0
O355 O 0.75488 0.97337 0.47902 0.0
C356 C 0.73264 0.04145 0.53435 0.0
C357 C 0.73301 0.96563 0.4726 0.0
C358 C 0.53358 0.31182 0.05988 0.0
C359 C 0.4766 0.30459 0.97937 0.0
O360 O 0.52767 0.28815 0.05336 0.0
Zn361 Zn 0.50606 0.26745 0.02297 0.0
O362 O 0.52491 0.33106 0.04566 0.0
Zn363 Zn 0.50494 0.31002 0.01973 0.0
O364 O 0.4781 0.29266 0.04705 0.0
O365 O 0.48199 0.24934 0.04665 0.0
O366 O 0.48436 0.326 0.99019 0.0
O367 O 0.48354 0.28254 0.98993 0.0
O368 O 0.53127 0.24827 0.00199 0.0
O369 O 0.53321 0.29142 0.99612 0.0
C370 C 0.47104 0.26984 0.05559 0.0
C371 C 0.54163 0.2684 0.99095 0.0
H372 H 0.12582 0.34799 0.22459 0.0
H373 H 0.07233 0.47648 0.29784 0.0
H374 H 0.16954 0.39175 0.28451 0.0
H375 H 0.05101 0.45055 0.21459 0.0
H376 H 0.10486 0.44254 0.29844 0.0
H377 H 0.09453 0.38253 0.22579 0.0
C378 C 0.12876 0.36495 0.238 0.0
C379 C 0.1502 0.36716 0.25443 0.0
C380 C 0.09302 0.44447 0.2801 0.0
C381 C 0.11446 0.40661 0.25614 0.0
C382 C 0.07444 0.46365 0.27981 0.0
C383 C 0.05903 0.46635 0.25611 0.0
C384 C 0.09569 0.42769 0.2568 0.0
C385 C 0.06256 0.44931 0.23323 0.0
C386 C 0.11099 0.38466 0.23863 0.0
C387 C 0.15326 0.38953 0.2714 0.0
N388 N 0.08038 0.43066 0.23423 0.0
N389 N 0.13544 0.40842 0.272 0.0
H390 H 0.16476 0.61528 0.77709 0.0
H391 H 0.05917 0.54434 0.68587 0.0
H392 H 0.15339 0.6319 0.68852 0.0
H393 H 0.07187 0.53187 0.77498 0.0
H394 H 0.09522 0.57406 0.68467 0.0
H395 H 0.13276 0.58166 0.77487 0.0
C396 C 0.1558 0.61162 0.75703 0.0
C397 C 0.16181 0.62654 0.73298 0.0
C398 C 0.09009 0.56467 0.7044 0.0
C399 C 0.12448 0.58828 0.73041 0.0
C400 C 0.06956 0.54773 0.70508 0.0
C401 C 0.06235 0.53578 0.73059 0.0
C402 C 0.10344 0.56948 0.72938 0.0
C403 C 0.0765 0.54081 0.75486 0.0
C404 C 0.1373 0.59252 0.75582 0.0
C405 C 0.14911 0.62115 0.7077 0.0
N406 N 0.09623 0.55726 0.75363 0.0
N407 N 0.13094 0.60255 0.7071 0.0
H408 H 0.82593 0.61521 0.2786 0.0
H409 H 0.96201 0.59233 0.22481 0.0
H410 H 0.87061 0.67893 0.24596 0.0
H411 H 0.93412 0.54866 0.29644 0.0
H412 H 0.92628 0.62159 0.22751 0.0
H413 H 0.86302 0.58721 0.28047 0.0
C414 C 0.84354 0.6232 0.27177 0.0
C415 C 0.84536 0.64929 0.26207 0.0
C416 C 0.92808 0.60575 0.24279 0.0
C417 C 0.88742 0.61762 0.26393 0.0
C418 C 0.94839 0.58905 0.24124 0.0
C419 C 0.95095 0.56817 0.26049 0.0
C420 C 0.90985 0.60111 0.26325 0.0
C421 C 0.93284 0.56472 0.28138 0.0
C422 C 0.86463 0.60737 0.27306 0.0
C423 C 0.86855 0.6589 0.25364 0.0
N424 N 0.91277 0.58085 0.28198 0.0
N425 N 0.88865 0.64298 0.25448 0.0
H426 H 0.87036 0.32667 0.75701 0.0
H427 H 0.93066 0.4585 0.69555 0.0
H428 H 0.82524 0.38868 0.72207 0.0
H429 H 0.96085 0.41615 0.76679 0.0
H430 H 0.89462 0.42856 0.69616 0.0
H431 H 0.90681 0.35512 0.75203 0.0
C432 C 0.86821 0.34628 0.74821 0.0
C433 C 0.84486 0.3555 0.74009 0.0
C434 C 0.90928 0.42584 0.71148 0.0
C435 C 0.88635 0.38786 0.73392 0.0
C436 C 0.92984 0.4427 0.71099 0.0
C437 C 0.9486 0.43976 0.73121 0.0
C438 C 0.90797 0.40566 0.73186 0.0
C439 C 0.94666 0.41917 0.75097 0.0
C440 C 0.88893 0.36247 0.74541 0.0
C441 C 0.84296 0.38105 0.72882 0.0
N442 N 0.92676 0.40284 0.75073 0.0
N443 N 0.86352 0.39638 0.7259 0.0
H444 H 0.22809 0.11667 0.30391 0.0
H445 H 0.17894 0.06533 0.45354 0.0
H446 H 0.18622 0.16576 0.36058 0.0
H447 H 0.24458 0.03639 0.41252 0.0
H448 H 0.1726 0.096 0.41374 0.0
H449 H 0.22503 0.08054 0.33799 0.0
C450 C 0.21812 0.11983 0.32341 0.0
C451 C 0.20784 0.14449 0.32962 0.0
C452 C 0.18819 0.08266 0.41343 0.0
C453 C 0.20392 0.10307 0.36839 0.0
C454 C 0.19175 0.06518 0.43598 0.0
C455 C 0.21247 0.04865 0.43634 0.0
C456 C 0.20519 0.08305 0.39103 0.0
C457 C 0.22858 0.04913 0.41318 0.0
C458 C 0.21628 0.09917 0.34275 0.0
C459 C 0.19444 0.14713 0.35486 0.0
N460 N 0.22462 0.0661 0.39147 0.0
N461 N 0.19306 0.12673 0.3735 0.0
H462 H 0.35352 0.69359 0.84142 0.0
H463 H 0.4458 0.77854 0.93743 0.0
H464 H 0.34218 0.776 0.85943 0.0
H465 H 0.44921 0.69393 0.92908 0.0
H466 H 0.40909 0.7788 0.90697 0.0
H467 H 0.38969 0.69393 0.87219 0.0
C468 C 0.35847 0.71171 0.85203 0.0
C469 C 0.34472 0.73479 0.84778 0.0
C470 C 0.41791 0.76021 0.91186 0.0
C471 C 0.3865 0.73546 0.88273 0.0
C472 C 0.4389 0.76006 0.92916 0.0
C473 C 0.45059 0.73619 0.93586 0.0
C474 C 0.4087 0.73633 0.90111 0.0
C475 C 0.4408 0.71282 0.92458 0.0
C476 C 0.37926 0.71195 0.86947 0.0
C477 C 0.3524 0.75782 0.86173 0.0
N478 N 0.42049 0.7135 0.90778 0.0
N479 N 0.3728 0.75758 0.87852 0.0
H480 H 0.75077 0.81321 0.39642 0.0
H481 H 0.6938 0.9521 0.43875 0.0
H482 H 0.70304 0.85695 0.34003 0.0
H483 H 0.7652 0.92508 0.46733 0.0
H484 H 0.69038 0.91271 0.40892 0.0
H485 H 0.74946 0.84986 0.42953 0.0
C486 C 0.74 0.83045 0.39094 0.0
C487 C 0.7273 0.83207 0.36511 0.0
C488 C 0.70669 0.91548 0.42186 0.0
C489 C 0.72527 0.87373 0.40333 0.0
C490 C 0.70863 0.93781 0.43887 0.0
C491 C 0.7299 0.94187 0.45525 0.0
C492 C 0.72593 0.89697 0.42187 0.0
C493 C 0.74861 0.92282 0.45473 0.0
C494 C 0.73917 0.85127 0.40995 0.0
C495 C 0.71301 0.85465 0.3597 0.0
N496 N 0.74615 0.90114 0.43836 0.0
N497 N 0.71244 0.87467 0.37863 0.0
H498 H 0.66048 0.30902 0.87852 0.0
H499 H 0.561 0.22402 0.96562 0.0
H500 H 0.65044 0.22535 0.86673 0.0
H501 H 0.57179 0.30803 0.9734 0.0
H502 H 0.59572 0.22274 0.93213 0.0
H503 H 0.63026 0.30768 0.91652 0.0
C504 C 0.65215 0.29028 0.88413 0.0
C505 C 0.65796 0.26731 0.86926 0.0
C506 C 0.59049 0.24138 0.94135 0.0
C507 C 0.62283 0.26567 0.9126 0.0
C508 C 0.57074 0.2421 0.96047 0.0
C509 C 0.56332 0.26618 0.97211 0.0
C510 C 0.60286 0.26489 0.93405 0.0
C511 C 0.5766 0.28903 0.96474 0.0
C512 C 0.63471 0.28954 0.90575 0.0
C513 C 0.64621 0.24365 0.87729 0.0
N514 N 0.59559 0.28781 0.94618 0.0
N515 N 0.6291 0.24345 0.89832 0.0
H516 H 0.18666 0.85214 0.66224 0.0
H517 H 0.26682 0.95424 0.5711 0.0
H518 H 0.26604 0.85993 0.66756 0.0
H519 H 0.18736 0.9481 0.56454 0.0
H520 H 0.26623 0.92133 0.60859 0.0
H521 H 0.18588 0.88869 0.62827 0.0
C522 C 0.20389 0.86157 0.65632 0.0
C523 C 0.22645 0.85297 0.66774 0.0
C524 C 0.24888 0.92721 0.59907 0.0
C525 C 0.22569 0.89475 0.62909 0.0
C526 C 0.2492 0.94602 0.5776 0.0
C527 C 0.22711 0.95381 0.56452 0.0
C528 C 0.22631 0.91595 0.60752 0.0
C529 C 0.20484 0.9426 0.574 0.0
C530 C 0.20343 0.88248 0.63705 0.0
C531 C 0.24819 0.86611 0.65962 0.0
N532 N 0.20501 0.92408 0.59485 0.0
N533 N 0.24726 0.88623 0.64072 0.0
H534 H 0.63501 0.77285 0.16048 0.0
H535 H 0.58383 0.70747 0.02148 0.0
H536 H 0.67909 0.72024 0.10989 0.0
H537 H 0.55555 0.78149 0.05177 0.0
H538 H 0.61808 0.71077 0.05483 0.0
H539 H 0.6049 0.77544 0.12225 0.0
C540 C 0.63861 0.76208 0.14125 0.0
C541 C 0.65976 0.74624 0.13855 0.0
C542 C 0.60458 0.72647 0.05399 0.0
C543 C 0.62486 0.74873 0.09492 0.0
C544 C 0.58498 0.72456 0.03505 0.0
C545 C 0.5668 0.74419 0.03405 0.0
C546 C 0.60575 0.74787 0.07254 0.0
C547 C 0.56925 0.76599 0.0519 0.0
C548 C 0.62129 0.76355 0.11946 0.0
C549 C 0.66292 0.7323 0.11327 0.0
N550 N 0.58821 0.76707 0.0708 0.0
N551 N 0.64556 0.7337 0.09256 0.0
H552 H 0.69895 0.14857 0.66898 0.0
H553 H 0.76438 0.08264 0.53929 0.0
H554 H 0.74564 0.19262 0.61158 0.0
H555 H 0.69355 0.05421 0.56855 0.0
H556 H 0.75978 0.1215 0.56886 0.0
H557 H 0.69775 0.11242 0.63505 0.0
C558 C 0.70865 0.15087 0.64913 0.0
C559 C 0.72269 0.17363 0.64333 0.0
C560 C 0.74515 0.10686 0.56867 0.0
C561 C 0.72182 0.13207 0.6049 0.0
C562 C 0.74784 0.0846 0.55199 0.0
C563 C 0.72936 0.06518 0.55165 0.0
C564 C 0.72407 0.10948 0.58561 0.0
C565 C 0.70819 0.06881 0.56826 0.0
C566 C 0.70801 0.13016 0.62986 0.0
C567 C 0.73514 0.17523 0.61736 0.0
N568 N 0.70623 0.09046 0.58493 0.0
N569 N 0.73467 0.15459 0.59929 0.0
H570 H 0.34339 0.22205 0.15479 0.0
H571 H 0.44895 0.31025 0.08322 0.0
H572 H 0.35365 0.30515 0.17027 0.0
H573 H 0.4453 0.22575 0.0736 0.0
H574 H 0.41369 0.30826 0.11479 0.0
H575 H 0.38024 0.22254 0.12488 0.0
C576 C 0.35346 0.24037 0.15207 0.0
C577 C 0.34534 0.26363 0.16508 0.0
C578 C 0.42056 0.29009 0.10589 0.0
C579 C 0.38737 0.26433 0.13058 0.0
C580 C 0.44075 0.29119 0.08776 0.0
C581 C 0.45009 0.26811 0.0756 0.0
C582 C 0.40939 0.26574 0.11195 0.0
C583 C 0.4387 0.24402 0.08249 0.0
C584 C 0.37443 0.24063 0.13488 0.0
C585 C 0.35893 0.28684 0.16038 0.0
N586 N 0.41883 0.24347 0.10015 0.0
N587 N 0.37922 0.28658 0.14352 0.0
H588 H 0.86616 0.64161 0.82482 0.0
H589 H 0.96697 0.5628 0.73571 0.0
H590 H 0.88493 0.65796 0.73788 0.0
H591 H 0.95119 0.54438 0.82295 0.0
H592 H 0.93858 0.59955 0.73793 0.0
H593 H 0.89836 0.60774 0.82618 0.0
C594 C 0.87706 0.63817 0.80604 0.0
C595 C 0.8727 0.65268 0.78114 0.0
C596 C 0.94129 0.58763 0.75671 0.0
C597 C 0.90969 0.61406 0.78268 0.0
C598 C 0.95754 0.56651 0.75546 0.0
C599 C 0.96134 0.55026 0.77914 0.0
C600 C 0.92842 0.59268 0.78179 0.0
C601 C 0.94877 0.55636 0.80418 0.0
C602 C 0.89552 0.61891 0.80691 0.0
C603 C 0.88771 0.6476 0.75765 0.0
N604 N 0.93267 0.577 0.80481 0.0
N605 N 0.90536 0.62868 0.75898 0.0
H606 H 0.84632 0.38386 0.19404 0.0
H607 H 0.97383 0.4389 0.24921 0.0
H608 H 0.89794 0.33515 0.2403 0.0
H609 H 0.9398 0.47045 0.17394 0.0
H610 H 0.94455 0.40219 0.24853 0.0
H611 H 0.87862 0.41709 0.18819 0.0
C612 C 0.86446 0.37986 0.20267 0.0
C613 C 0.86921 0.35646 0.21781 0.0
C614 C 0.94361 0.41698 0.232 0.0
C615 C 0.90613 0.39505 0.21175 0.0
C616 C 0.96023 0.438 0.23243 0.0
C617 C 0.95914 0.45778 0.21165 0.0
C618 C 0.92534 0.41597 0.211 0.0
C619 C 0.94127 0.45555 0.19029 0.0
C620 C 0.88287 0.399 0.19938 0.0
C621 C 0.89308 0.35298 0.22901 0.0
N622 N 0.92478 0.43517 0.19073 0.0
N623 N 0.91051 0.37215 0.226 0.0
H624 H 0.15917 0.35091 0.81486 0.0
H625 H 0.04667 0.41792 0.7318 0.0
H626 H 0.14477 0.34174 0.72575 0.0
H627 H 0.06307 0.43514 0.819 0.0
H628 H 0.08002 0.38604 0.73138 0.0
H629 H 0.12223 0.37848 0.81857 0.0
C630 C 0.14829 0.35466 0.79607 0.0
C631 C 0.15524 0.34398 0.7699 0.0
C632 C 0.07634 0.39662 0.75071 0.0
C633 C 0.11272 0.37525 0.77415 0.0
C634 C 0.0572 0.41487 0.751 0.0
C635 C 0.05218 0.42946 0.77542 0.0
C636 C 0.09082 0.39286 0.77498 0.0
C637 C 0.06634 0.42436 0.79971 0.0
C638 C 0.12712 0.37028 0.79827 0.0
C639 C 0.14009 0.34917 0.74644 0.0
N640 N 0.0852 0.40662 0.79881 0.0
N641 N 0.11969 0.36446 0.74913 0.0
H642 H 0.12803 0.69036 0.24036 0.0
H643 H 0.06818 0.56236 0.16973 0.0
H644 H 0.17076 0.63565 0.1908 0.0
H645 H 0.04166 0.59621 0.24732 0.0
H646 H 0.1016 0.59542 0.16876 0.0
H647 H 0.09198 0.66176 0.2349 0.0
C648 C 0.12995 0.67239 0.22836 0.0
C649 C 0.15276 0.66538 0.21638 0.0
C650 C 0.08826 0.5957 0.18579 0.0
C651 C 0.11114 0.63293 0.20937 0.0
C652 C 0.06914 0.57702 0.18625 0.0
C653 C 0.05228 0.57651 0.20874 0.0
C654 C 0.0901 0.61423 0.20766 0.0
C655 C 0.05443 0.5958 0.22974 0.0
C656 C 0.10925 0.65619 0.22509 0.0
C657 C 0.15365 0.64215 0.20026 0.0
N658 N 0.07298 0.61386 0.22869 0.0
N659 N 0.13318 0.62675 0.19729 0.0
H660 H 0.74504 0.87206 0.68823 0.0
H661 H 0.81202 0.9436 0.55783 0.0
H662 H 0.80793 0.83836 0.64563 0.0
H663 H 0.73716 0.95974 0.58374 0.0
H664 H 0.81456 0.90939 0.59468 0.0
H665 H 0.74558 0.9086 0.65464 0.0
C666 C 0.75893 0.87219 0.67179 0.0
C667 C 0.77627 0.85171 0.6697 0.0
C668 C 0.79766 0.92056 0.59233 0.0
C669 C 0.77728 0.89414 0.63134 0.0
C670 C 0.79624 0.94017 0.57144 0.0
C671 C 0.7743 0.95449 0.56761 0.0
C672 C 0.77712 0.91554 0.60976 0.0
C673 C 0.75438 0.9491 0.58577 0.0
C674 C 0.7593 0.89323 0.65268 0.0
C675 C 0.79428 0.85366 0.64832 0.0
N676 N 0.75628 0.93013 0.606 0.0
N677 N 0.79427 0.87442 0.62996 0.0
H678 H 0.62923 0.2808 0.20157 0.0
H679 H 0.57049 0.349 0.06413 0.0
H680 H 0.67243 0.32519 0.14102 0.0
H681 H 0.53791 0.28258 0.10759 0.0
H682 H 0.60452 0.34886 0.09873 0.0
H683 H 0.59234 0.28919 0.17321 0.0
C684 C 0.63104 0.29229 0.18236 0.0
C685 C 0.65418 0.30198 0.17361 0.0
C686 C 0.58968 0.33461 0.10087 0.0
C687 C 0.61173 0.3122 0.14135 0.0
C688 C 0.5702 0.33485 0.08134 0.0
C689 C 0.55152 0.31568 0.083 0.0
C690 C 0.59013 0.31534 0.12233 0.0
C691 C 0.55211 0.29756 0.10547 0.0
C692 C 0.6099 0.29725 0.16629 0.0
C693 C 0.65507 0.31745 0.14885 0.0
N694 N 0.57113 0.29776 0.12417 0.0
N695 N 0.6342 0.32196 0.13354 0.0
H696 H 0.26068 0.13751 0.6818 0.0
H697 H 0.29654 0.08222 0.53053 0.0
H698 H 0.28483 0.19011 0.61554 0.0
H699 H 0.23516 0.051 0.57838 0.0
H700 H 0.30051 0.11815 0.56511 0.0
H701 H 0.25937 0.1013 0.64759 0.0
C702 C 0.2659 0.14132 0.66008 0.0
C703 C 0.27279 0.16674 0.65136 0.0
C704 C 0.28625 0.10333 0.56795 0.0
C705 C 0.27171 0.12552 0.61239 0.0
C706 C 0.28406 0.08283 0.54838 0.0
C707 C 0.26542 0.06373 0.55157 0.0
C708 C 0.27016 0.1042 0.59119 0.0
C709 C 0.24965 0.06546 0.57501 0.0
C710 C 0.26506 0.12076 0.64061 0.0
C711 C 0.27929 0.17075 0.62296 0.0
N712 N 0.2525 0.08519 0.59403 0.0
N713 N 0.27876 0.1503 0.60446 0.0
H714 H 0.36402 0.66875 0.15117 0.0
H715 H 0.47242 0.74136 0.06606 0.0
H716 H 0.38461 0.75045 0.16121 0.0
H717 H 0.45317 0.65987 0.05198 0.0
H718 H 0.4425 0.74313 0.10409 0.0
H719 H 0.39811 0.66347 0.11762 0.0
C720 C 0.3757 0.68557 0.14641 0.0
C721 C 0.3713 0.71014 0.15905 0.0
C722 C 0.44479 0.72475 0.09288 0.0
C723 C 0.41049 0.70411 0.12085 0.0
C724 C 0.46194 0.72372 0.07107 0.0
C725 C 0.46516 0.70048 0.05557 0.0
C726 C 0.43043 0.70246 0.09933 0.0
C727 C 0.45123 0.67819 0.06335 0.0
C728 C 0.39524 0.68247 0.12736 0.0
C729 C 0.38736 0.73105 0.15238 0.0
N730 N 0.43425 0.67979 0.08456 0.0
N731 N 0.40607 0.72757 0.13371 0.0
H732 H 0.74238 0.13793 0.32088 0.0
H733 H 0.81124 0.06507 0.44902 0.0
H734 H 0.80632 0.17108 0.36251 0.0
H735 H 0.73612 0.04846 0.42382 0.0
H736 H 0.81325 0.0998 0.41269 0.0
H737 H 0.74324 0.10103 0.354 0.0
C738 C 0.75656 0.13761 0.33703 0.0
C739 C 0.77412 0.15802 0.33896 0.0
C740 C 0.79641 0.08842 0.41507 0.0
C741 C 0.7755 0.11518 0.37677 0.0
C742 C 0.79529 0.06851 0.43567 0.0
C743 C 0.77344 0.05389 0.43956 0.0
C744 C 0.77565 0.09347 0.39801 0.0
C745 C 0.75329 0.05931 0.42174 0.0
C746 C 0.75711 0.11636 0.35586 0.0
C747 C 0.79248 0.15584 0.35994 0.0
N748 N 0.75489 0.0786 0.4018 0.0
N749 N 0.79266 0.13487 0.37804 0.0
H750 H 0.36367 0.33682 0.85231 0.0
H751 H 0.46407 0.2623 0.94748 0.0
H752 H 0.37893 0.25344 0.84892 0.0
H753 H 0.44995 0.34562 0.95542 0.0
H754 H 0.43436 0.26007 0.90927 0.0
H755 H 0.39609 0.34163 0.88819 0.0
C756 C 0.37381 0.31952 0.85905 0.0
C757 C 0.36849 0.29465 0.84749 0.0
C758 C 0.4377 0.27893 0.91921 0.0
C759 C 0.40574 0.30012 0.88836 0.0
C760 C 0.45473 0.28024 0.94116 0.0
C761 C 0.45944 0.30418 0.95492 0.0
C762 C 0.42498 0.30169 0.91077 0.0
C763 C 0.44687 0.32674 0.94545 0.0
C764 C 0.39239 0.32234 0.87944 0.0
C765 C 0.38251 0.27306 0.8568 0.0
N766 N 0.43006 0.32492 0.92402 0.0
N767 N 0.40035 0.27631 0.87667 0.0
H768 H 0.23626 0.82349 0.37281 0.0
H769 H 0.30065 0.9542 0.43237 0.0
H770 H 0.29874 0.86041 0.33166 0.0
H771 H 0.22673 0.9292 0.45429 0.0
H772 H 0.30342 0.91705 0.39945 0.0
H773 H 0.23565 0.85927 0.4069 0.0
C774 C 0.24981 0.83915 0.37077 0.0
C775 C 0.26741 0.83893 0.34896 0.0
C776 C 0.28664 0.91974 0.41153 0.0
C777 C 0.26709 0.8799 0.3886 0.0
C778 C 0.28507 0.94086 0.43038 0.0
C779 C 0.26339 0.9449 0.44606 0.0
C780 C 0.26651 0.90235 0.40865 0.0
C781 C 0.24376 0.927 0.44255 0.0
C782 C 0.24951 0.85954 0.39042 0.0
C783 C 0.28493 0.85951 0.34815 0.0
N784 N 0.24582 0.90654 0.42433 0.0
N785 N 0.2843 0.87916 0.36762 0.0
H786 H 0.63129 0.72809 0.80598 0.0
H787 H 0.57264 0.65827 0.9426 0.0
H788 H 0.67416 0.68144 0.86468 0.0
H789 H 0.54124 0.72636 0.90138 0.0
H790 H 0.60627 0.65855 0.90761 0.0
H791 H 0.59462 0.72 0.8348 0.0
C792 C 0.63308 0.71615 0.82488 0.0
C793 C 0.65608 0.70576 0.83299 0.0
C794 C 0.59179 0.67316 0.90607 0.0
C795 C 0.61385 0.69592 0.86578 0.0
C796 C 0.57253 0.67287 0.92583 0.0
C797 C 0.55429 0.69242 0.92492 0.0
C798 C 0.59246 0.69289 0.88511 0.0
C799 C 0.5551 0.71107 0.90295 0.0
C800 C 0.61205 0.71139 0.84121 0.0
C801 C 0.6569 0.68975 0.85735 0.0
N802 N 0.57389 0.71091 0.884 0.0
N803 N 0.63615 0.68544 0.87294 0.0
loop_
_geom_bond_atom_site_label_1
_geom_bond_atom_site_label_2
_geom_bond_distance
_geom_bond_site_symmetry_2
_ccdc_geom_bond_type
C0 C1 1.384 . S
C0 H13 0.947 . S
C0 C35 1.382 . S
C1 C0 1.384 . S
C1 C2 1.378 . S
C2 C1 1.378 . S
C2 C3 1.378 . S
C2 H14 0.952 . S
C3 C2 1.378 . S
C3 H15 0.950 . S
C3 C34 1.383 . S
H4 C23 0.947 . S
H5 C24 0.946 . S
H6 C26 0.953 . S
H7 C27 0.945 . S
H8 C29 0.952 . S
H9 C30 0.949 . S
H10 C32 0.950 . S
H11 C33 0.948 . S
H12 C35 0.951 . S
H13 C0 0.947 . S
H14 C2 0.952 . S
H15 C3 0.950 . S
N16 C19 1.382 . S
N16 C21 1.363 . S
N17 C19 1.371 . S
N17 C20 1.372 . S
N18 C20 1.361 . S
N18 C21 1.377 . S
C19 N16 1.382 . S
C19 N17 1.371 . S
C19 C22 1.480 . S
C20 N17 1.372 . S
C20 N18 1.361 . S
C20 C28 1.457 . S
C21 N16 1.363 . S
C21 N18 1.377 . S
C21 C34 1.479 . S
C22 C19 1.480 . S
C22 C23 1.383 . S
C22 C27 1.385 . S
C23 H4 0.947 . S
C23 C22 1.383 . S
C23 C24 1.388 . S
C24 H5 0.946 . S
C24 C23 1.388 . S
C24 C25 1.384 . S
C25 C24 1.384 . S
C25 C26 1.377 . S
C26 H6 0.953 . S
C26 C25 1.377 . S
C26 C27 1.369 . S
C27 H7 0.945 . S
C27 C22 1.385 . S
C27 C26 1.369 . S
C28 C20 1.457 . S
C28 C29 1.372 . S
C28 C33 1.364 . S
C29 H8 0.952 . S
C29 C28 1.372 . S
C29 C30 1.389 . S
C30 H9 0.949 . S
C30 C29 1.389 . S
C30 C31 1.387 . S
C31 C30 1.387 . S
C31 C32 1.372 . S
C32 H10 0.950 . S
C32 C31 1.372 . S
C32 C33 1.379 . S
C33 H11 0.948 . S
C33 C28 1.364 . S
C33 C32 1.379 . S
C34 C3 1.383 . S
C34 C21 1.479 . S
C34 C35 1.398 . S
C35 C0 1.382 . S
C35 H12 0.951 . S
C35 C34 1.398 . S
C36 C37 1.384 . S
C36 H49 0.947 . S
C36 C71 1.382 . S
C37 C36 1.384 . S
C37 C38 1.378 . S
C38 C37 1.378 . S
C38 C39 1.378 . S
C38 H50 0.952 . S
C39 C38 1.378 . S
C39 H51 0.950 . S
C39 C70 1.383 . S
H40 C59 0.947 . S
H41 C60 0.946 . S
H42 C62 0.953 . S
H43 C63 0.945 . S
H44 C65 0.952 . S
H45 C66 0.949 . S
H46 C68 0.950 . S
H47 C69 0.948 . S
H48 C71 0.951 . S
H49 C36 0.947 . S
H50 C38 0.952 . S
H51 C39 0.950 . S
N52 C55 1.382 . S
N52 C57 1.363 . S
N53 C55 1.371 . S
N53 C56 1.372 . S
N54 C56 1.361 . S
N54 C57 1.377 . S
C55 N52 1.382 . S
C55 N53 1.371 . S
C55 C58 1.480 . S
C56 N53 1.372 . S
C56 N54 1.361 . S
C56 C64 1.457 . S
C57 N52 1.363 . S
C57 N54 1.377 . S
C57 C70 1.479 . S
C58 C55 1.480 . S
C58 C59 1.383 . S
C58 C63 1.385 . S
C59 H40 0.947 . S
C59 C58 1.383 . S
C59 C60 1.388 . S
C60 H41 0.946 . S
C60 C59 1.388 . S
C60 C61 1.384 . S
C61 C60 1.384 . S
C61 C62 1.377 . S
C62 H42 0.953 . S
C62 C61 1.377 . S
C62 C63 1.369 . S
C63 H43 0.945 . S
C63 C58 1.385 . S
C63 C62 1.369 . S
C64 C56 1.457 . S
C64 C65 1.372 . S
C64 C69 1.364 . S
C65 H44 0.952 . S
C65 C64 1.372 . S
C65 C66 1.389 . S
C66 H45 0.949 . S
C66 C65 1.389 . S
C66 C67 1.387 . S
C67 C66 1.387 . S
C67 C68 1.372 . S
C68 H46 0.950 . S
C68 C67 1.372 . S
C68 C69 1.379 . S
C69 H47 0.948 . S
C69 C64 1.364 . S
C69 C68 1.379 . S
C70 C39 1.383 . S
C70 C57 1.479 . S
C70 C71 1.398 . S
C71 C36 1.382 . S
C71 H48 0.951 . S
C71 C70 1.398 . S
C72 C73 1.384 . S
C72 H85 0.947 . S
C72 C107 1.382 . S
C73 C72 1.384 . S
C73 C74 1.378 . S
C74 C73 1.378 . S
C74 C75 1.378 . S
C74 H86 0.952 . S
C75 C74 1.378 . S
C75 H87 0.950 . S
C75 C106 1.383 . S
H76 C95 0.947 . S
H77 C96 0.946 . S
H78 C98 0.953 . S
H79 C99 0.945 . S
H80 C101 0.952 . S
H81 C102 0.949 . S
H82 C104 0.950 . S
H83 C105 0.948 . S
H84 C107 0.951 . S
H85 C72 0.947 . S
H86 C74 0.952 . S
H87 C75 0.950 . S
N88 C91 1.382 . S
N88 C93 1.363 . S
N89 C91 1.371 . S
N89 C92 1.372 . S
N90 C92 1.361 . S
N90 C93 1.377 . S
C91 N88 1.382 . S
C91 N89 1.371 . S
C91 C94 1.480 . S
C92 N89 1.372 . S
C92 N90 1.361 . S
C92 C100 1.457 . S
C93 N88 1.363 . S
C93 N90 1.377 . S
C93 C106 1.479 . S
C94 C91 1.480 . S
C94 C95 1.383 . S
C94 C99 1.385 . S
C95 H76 0.947 . S
C95 C94 1.383 . S
C95 C96 1.388 . S
C96 H77 0.946 . S
C96 C95 1.388 . S
C96 C97 1.384 . S
C97 C96 1.384 . S
C97 C98 1.377 . S
C98 H78 0.953 . S
C98 C97 1.377 . S
C98 C99 1.369 . S
C99 H79 0.945 . S
C99 C94 1.385 . S
C99 C98 1.369 . S
C100 C92 1.457 . S
C100 C101 1.372 . S
C100 C105 1.364 . S
C101 H80 0.952 . S
C101 C100 1.372 . S
C101 C102 1.389 . S
C102 H81 0.949 . S
C102 C101 1.389 . S
C102 C103 1.387 . S
C103 C102 1.387 . S
C103 C104 1.372 . S
C104 H82 0.950 . S
C104 C103 1.372 . S
C104 C105 1.379 . S
C105 H83 0.948 . S
C105 C100 1.364 . S
C105 C104 1.379 . S
C106 C75 1.383 . S
C106 C93 1.479 . S
C106 C107 1.398 . S
C107 C72 1.382 . S
C107 H84 0.951 . S
C107 C106 1.398 . S
C108 C109 1.384 . S
C108 H121 0.947 . S
C108 C143 1.382 . S
C109 C108 1.384 . S
C109 C110 1.378 . S
C110 C109 1.378 . S
C110 C111 1.378 . S
C110 H122 0.952 . S
C111 C110 1.378 . S
C111 H123 0.950 . S
C111 C142 1.383 . S
H112 C131 0.947 . S
H113 C132 0.946 . S
H114 C134 0.953 . S
H115 C135 0.945 . S
H116 C137 0.952 . S
H117 C138 0.949 . S
H118 C140 0.950 . S
H119 C141 0.948 . S
H120 C143 0.951 . S
H121 C108 0.947 . S
H122 C110 0.952 . S
H123 C111 0.950 . S
N124 C127 1.382 . S
N124 C129 1.363 . S
N125 C127 1.371 . S
N125 C128 1.372 . S
N126 C128 1.361 . S
N126 C129 1.377 . S
C127 N124 1.382 . S
C127 N125 1.371 . S
C127 C130 1.480 . S
C128 N125 1.372 . S
C128 N126 1.361 . S
C128 C136 1.457 . S
C129 N124 1.363 . S
C129 N126 1.377 . S
C129 C142 1.479 . S
C130 C127 1.480 . S
C130 C131 1.383 . S
C130 C135 1.385 . S
C131 H112 0.947 . S
C131 C130 1.383 . S
C131 C132 1.388 . S
C132 H113 0.946 . S
C132 C131 1.388 . S
C132 C133 1.384 . S
C133 C132 1.384 . S
C133 C134 1.377 . S
C134 H114 0.953 . S
C134 C133 1.377 . S
C134 C135 1.369 . S
C135 H115 0.945 . S
C135 C130 1.385 . S
C135 C134 1.369 . S
C136 C128 1.457 . S
C136 C137 1.372 . S
C136 C141 1.364 . S
C137 H116 0.952 . S
C137 C136 1.372 . S
C137 C138 1.389 . S
C138 H117 0.949 . S
C138 C137 1.389 . S
C138 C139 1.387 . S
C139 C138 1.387 . S
C139 C140 1.372 . S
C140 H118 0.950 . S
C140 C139 1.372 . S
C140 C141 1.379 . S
C141 H119 0.948 . S
C141 C136 1.364 . S
C141 C140 1.379 . S
C142 C111 1.383 . S
C142 C129 1.479 . S
C142 C143 1.398 . S
C143 C108 1.382 . S
C143 H120 0.951 . S
C143 C142 1.398 . S
C144 C145 1.384 . S
C144 H157 0.947 . S
C144 C179 1.382 . S
C145 C144 1.384 . S
C145 C146 1.378 . S
C146 C145 1.378 . S
C146 C147 1.378 . S
C146 H158 0.952 . S
C147 C146 1.378 . S
C147 H159 0.950 . S
C147 C178 1.383 . S
H148 C167 0.947 . S
H149 C168 0.946 . S
H150 C170 0.953 . S
H151 C171 0.945 . S
H152 C173 0.952 . S
H153 C174 0.949 . S
H154 C176 0.950 . S
H155 C177 0.948 . S
H156 C179 0.951 . S
H157 C144 0.947 . S
H158 C146 0.952 . S
H159 C147 0.950 . S
N160 C163 1.382 . S
N160 C165 1.363 . S
N161 C163 1.371 . S
N161 C164 1.372 . S
N162 C164 1.361 . S
N162 C165 1.377 . S
C163 N160 1.382 . S
C163 N161 1.371 . S
C163 C166 1.480 . S
C164 N161 1.372 . S
C164 N162 1.361 . S
C164 C172 1.457 . S
C165 N160 1.363 . S
C165 N162 1.377 . S
C165 C178 1.479 . S
C166 C163 1.480 . S
C166 C167 1.383 . S
C166 C171 1.385 . S
C167 H148 0.947 . S
C167 C166 1.383 . S
C167 C168 1.388 . S
C168 H149 0.946 . S
C168 C167 1.388 . S
C168 C169 1.384 . S
C169 C168 1.384 . S
C169 C170 1.377 . S
C170 H150 0.953 . S
C170 C169 1.377 . S
C170 C171 1.369 . S
C171 H151 0.945 . S
C171 C166 1.385 . S
C171 C170 1.369 . S
C172 C164 1.457 . S
C172 C173 1.372 . S
C172 C177 1.364 . S
C173 H152 0.952 . S
C173 C172 1.372 . S
C173 C174 1.389 . S
C174 H153 0.949 . S
C174 C173 1.389 . S
C174 C175 1.387 . S
C175 C174 1.387 . S
C175 C176 1.372 . S
C176 H154 0.950 . S
C176 C175 1.372 . S
C176 C177 1.379 . S
C177 H155 0.948 . S
C177 C172 1.364 . S
C177 C176 1.379 . S
C178 C147 1.383 . S
C178 C165 1.479 . S
C178 C179 1.398 . S
C179 C144 1.382 . S
C179 H156 0.951 . S
C179 C178 1.398 . S
C180 C181 1.384 . S
C180 H193 0.947 . S
C180 C215 1.382 . S
C181 C180 1.384 . S
C181 C182 1.378 . S
C182 C181 1.378 . S
C182 C183 1.378 . S
C182 H194 0.952 . S
C183 C182 1.378 . S
C183 H195 0.950 . S
C183 C214 1.383 . S
H184 C203 0.947 . S
H185 C204 0.946 . S
H186 C206 0.953 . S
H187 C207 0.945 . S
H188 C209 0.952 . S
H189 C210 0.949 . S
H190 C212 0.950 . S
H191 C213 0.948 . S
H192 C215 0.951 . S
H193 C180 0.947 . S
H194 C182 0.952 . S
H195 C183 0.950 . S
N196 C199 1.382 . S
N196 C201 1.363 . S
N197 C199 1.371 . S
N197 C200 1.372 . S
N198 C200 1.361 . S
N198 C201 1.377 . S
C199 N196 1.382 . S
C199 N197 1.371 . S
C199 C202 1.480 . S
C200 N197 1.372 . S
C200 N198 1.361 . S
C200 C208 1.457 . S
C201 N196 1.363 . S
C201 N198 1.377 . S
C201 C214 1.479 . S
C202 C199 1.480 . S
C202 C203 1.383 . S
C202 C207 1.385 . S
C203 H184 0.947 . S
C203 C202 1.383 . S
C203 C204 1.388 . S
C204 H185 0.946 . S
C204 C203 1.388 . S
C204 C205 1.384 . S
C205 C204 1.384 . S
C205 C206 1.377 . S
C206 H186 0.953 . S
C206 C205 1.377 . S
C206 C207 1.369 . S
C207 H187 0.945 . S
C207 C202 1.385 . S
C207 C206 1.369 . S
C208 C200 1.457 . S
C208 C209 1.372 . S
C208 C213 1.364 . S
C209 H188 0.952 . S
C209 C208 1.372 . S
C209 C210 1.389 . S
C210 H189 0.949 . S
C210 C209 1.389 . S
C210 C211 1.387 . S
C211 C210 1.387 . S
C211 C212 1.372 . S
C212 H190 0.950 . S
C212 C211 1.372 . S
C212 C213 1.379 . S
C213 H191 0.948 . S
C213 C208 1.364 . S
C213 C212 1.379 . S
C214 C183 1.383 . S
C214 C201 1.479 . S
C214 C215 1.398 . S
C215 C180 1.382 . S
C215 H192 0.951 . S
C215 C214 1.398 . S
C216 C217 1.384 . S
C216 H229 0.947 . S
C216 C251 1.382 . S
C217 C216 1.384 . S
C217 C218 1.378 . S
C218 C217 1.378 . S
C218 C219 1.378 . S
C218 H230 0.952 . S
C219 C218 1.378 . S
C219 H231 0.950 . S
C219 C250 1.383 . S
H220 C239 0.947 . S
H221 C240 0.946 . S
H222 C242 0.953 . S
H223 C243 0.945 . S
H224 C245 0.952 . S
H225 C246 0.949 . S
H226 C248 0.950 . S
H227 C249 0.948 . S
H228 C251 0.951 . S
H229 C216 0.947 . S
H230 C218 0.952 . S
H231 C219 0.950 . S
N232 C235 1.382 . S
N232 C237 1.363 . S
N233 C235 1.371 . S
N233 C236 1.372 . S
N234 C236 1.361 . S
N234 C237 1.377 . S
C235 N232 1.382 . S
C235 N233 1.371 . S
C235 C238 1.480 . S
C236 N233 1.372 . S
C236 N234 1.361 . S
C236 C244 1.457 . S
C237 N232 1.363 . S
C237 N234 1.377 . S
C237 C250 1.479 . S
C238 C235 1.480 . S
C238 C239 1.383 . S
C238 C243 1.385 . S
C239 H220 0.947 . S
C239 C238 1.383 . S
C239 C240 1.388 . S
C240 H221 0.946 . S
C240 C239 1.388 . S
C240 C241 1.384 . S
C241 C240 1.384 . S
C241 C242 1.377 . S
C242 H222 0.953 . S
C242 C241 1.377 . S
C242 C243 1.369 . S
C243 H223 0.945 . S
C243 C238 1.385 . S
C243 C242 1.369 . S
C244 C236 1.457 . S
C244 C245 1.372 . S
C244 C249 1.364 . S
C245 H224 0.952 . S
C245 C244 1.372 . S
C245 C246 1.389 . S
C246 H225 0.949 . S
C246 C245 1.389 . S
C246 C247 1.387 . S
C247 C246 1.387 . S
C247 C248 1.372 . S
C248 H226 0.950 . S
C248 C247 1.372 . S
C248 C249 1.379 . S
C249 H227 0.948 . S
C249 C244 1.364 . S
C249 C248 1.379 . S
C250 C219 1.383 . S
C250 C237 1.479 . S
C250 C251 1.398 . S
C251 C216 1.382 . S
C251 H228 0.951 . S
C251 C250 1.398 . S
C252 C253 1.384 . S
C252 H265 0.947 . S
C252 C287 1.382 . S
C253 C252 1.384 . S
C253 C254 1.378 . S
C254 C253 1.378 . S
C254 C255 1.378 . S
C254 H266 0.952 . S
C255 C254 1.378 . S
C255 H267 0.950 . S
C255 C286 1.383 . S
H256 C275 0.947 . S
H257 C276 0.946 . S
H258 C278 0.953 . S
H259 C279 0.945 . S
H260 C281 0.952 . S
H261 C282 0.949 . S
H262 C284 0.950 . S
H263 C285 0.948 . S
H264 C287 0.951 . S
H265 C252 0.947 . S
H266 C254 0.952 . S
H267 C255 0.950 . S
N268 C271 1.382 . S
N268 C273 1.363 . S
N269 C271 1.371 . S
N269 C272 1.372 . S
N270 C272 1.361 . S
N270 C273 1.377 . S
C271 N268 1.382 . S
C271 N269 1.371 . S
C271 C274 1.480 . S
C272 N269 1.372 . S
C272 N270 1.361 . S
C272 C280 1.457 . S
C273 N268 1.363 . S
C273 N270 1.377 . S
C273 C286 1.479 . S
C274 C271 1.480 . S
C274 C275 1.383 . S
C274 C279 1.385 . S
C275 H256 0.947 . S
C275 C274 1.383 . S
C275 C276 1.388 . S
C276 H257 0.946 . S
C276 C275 1.388 . S
C276 C277 1.384 . S
C277 C276 1.384 . S
C277 C278 1.377 . S
C278 H258 0.953 . S
C278 C277 1.377 . S
C278 C279 1.369 . S
C279 H259 0.945 . S
C279 C274 1.385 . S
C279 C278 1.369 . S
C280 C272 1.457 . S
C280 C281 1.372 . S
C280 C285 1.364 . S
C281 H260 0.952 . S
C281 C280 1.372 . S
C281 C282 1.389 . S
C282 H261 0.949 . S
C282 C281 1.389 . S
C282 C283 1.387 . S
C283 C282 1.387 . S
C283 C284 1.372 . S
C284 H262 0.950 . S
C284 C283 1.372 . S
C284 C285 1.379 . S
C285 H263 0.948 . S
C285 C280 1.364 . S
C285 C284 1.379 . S
C286 C255 1.383 . S
C286 C273 1.479 . S
C286 C287 1.398 . S
C287 C252 1.382 . S
C287 H264 0.951 . S
C287 C286 1.398 . S
C288 O290 1.247 . S
C288 O292 1.258 . S
C289 O296 1.247 . S
C289 O297 1.258 . S
O290 C288 1.247 . S
O290 Zn291 2.028 1_655 S
Zn291 O290 2.028 1_455 S
Zn291 O295 2.035 . S
Zn291 O297 2.035 . S
Zn291 O298 2.028 1_455 S
O292 C288 1.258 . S
O292 Zn293 2.035 1_655 S
Zn293 O292 2.035 1_455 S
Zn293 O294 2.028 . S
Zn293 O296 2.028 . S
Zn293 O299 2.035 1_455 S
O294 Zn293 2.028 . S
O294 C300 1.247 . S
O295 Zn291 2.035 . S
O295 C300 1.258 . S
O296 C289 1.247 . S
O296 Zn293 2.028 . S
O297 C289 1.258 . S
O297 Zn291 2.035 . S
O298 Zn291 2.028 1_655 S
O298 C301 1.247 . S
O299 Zn293 2.035 1_655 S
O299 C301 1.258 . S
C300 O294 1.247 . S
C300 O295 1.258 . S
C301 O298 1.247 . S
C301 O299 1.258 . S
C302 O304 1.247 . S
C302 O306 1.258 . S
C303 O310 1.247 . S
C303 O311 1.258 . S
O304 C302 1.247 . S
O304 Zn305 2.028 1_655 S
Zn305 O304 2.028 1_455 S
Zn305 O309 2.035 . S
Zn305 O311 2.035 . S
Zn305 O312 2.028 1_455 S
O306 C302 1.258 . S
O306 Zn307 2.035 1_655 S
Zn307 O306 2.035 1_455 S
Zn307 O308 2.028 . S
Zn307 O310 2.028 . S
Zn307 O313 2.035 1_455 S
O308 Zn307 2.028 . S
O308 C314 1.247 . S
O309 Zn305 2.035 . S
O309 C314 1.258 . S
O310 C303 1.247 . S
O310 Zn307 2.028 . S
O311 C303 1.258 . S
O311 Zn305 2.035 . S
O312 Zn305 2.028 1_655 S
O312 C315 1.247 . S
O313 Zn307 2.035 1_655 S
O313 C315 1.258 . S
C314 O308 1.247 . S
C314 O309 1.258 . S
C315 O312 1.247 . S
C315 O313 1.258 . S
C316 O318 1.247 . S
C316 O320 1.258 . S
C317 O324 1.247 . S
C317 O325 1.258 . S
O318 C316 1.247 . S
O318 Zn319 2.028 1_565 S
Zn319 O318 2.028 1_545 S
Zn319 O323 2.035 . S
Zn319 O325 2.035 . S
Zn319 O326 2.028 1_545 S
O320 C316 1.258 . S
O320 Zn321 2.035 1_565 S
Zn321 O320 2.035 1_545 S
Zn321 O322 2.028 . S
Zn321 O324 2.028 . S
Zn321 O327 2.035 1_545 S
O322 Zn321 2.028 . S
O322 C328 1.247 . S
O323 Zn319 2.035 . S
O323 C328 1.258 . S
O324 C317 1.247 . S
O324 Zn321 2.028 . S
O325 C317 1.258 . S
O325 Zn319 2.035 . S
O326 Zn319 2.028 1_565 S
O326 C329 1.247 . S
O327 Zn321 2.035 1_565 S
O327 C329 1.258 . S
C328 O322 1.247 . S
C328 O323 1.258 . S
C329 O326 1.247 . S
C329 O327 1.258 . S
C330 O332 1.247 . S
C330 O334 1.258 . S
C331 O338 1.247 . S
C331 O339 1.258 . S
O332 C330 1.247 . S
O332 Zn333 2.028 . S
Zn333 O332 2.028 . S
Zn333 O337 2.035 . S
Zn333 O339 2.035 1_554 S
Zn333 O340 2.028 1_554 S
O334 C330 1.258 . S
O334 Zn335 2.035 . S
Zn335 O334 2.035 . S
Zn335 O336 2.028 . S
Zn335 O338 2.028 1_554 S
Zn335 O341 2.035 1_554 S
O336 Zn335 2.028 . S
O336 C342 1.247 . S
O337 Zn333 2.035 . S
O337 C342 1.258 . S
O338 C331 1.247 . S
O338 Zn335 2.028 1_556 S
O339 C331 1.258 . S
O339 Zn333 2.035 1_556 S
O340 Zn333 2.028 1_556 S
O340 C343 1.247 . S
O341 Zn335 2.035 1_556 S
O341 C343 1.258 . S
C342 O336 1.247 . S
C342 O337 1.258 . S
C343 O340 1.247 . S
C343 O341 1.258 . S
C344 O346 1.247 . S
C344 O348 1.258 . S
C345 O352 1.247 . S
C345 O353 1.258 . S
O346 C344 1.247 . S
O346 Zn347 2.002 1_565 S
Zn347 O346 2.002 1_545 S
Zn347 O351 2.062 . S
Zn347 O353 2.062 . S
Zn347 O354 2.002 1_545 S
O348 C344 1.258 . S
O348 Zn349 2.035 1_565 S
Zn349 O348 2.035 1_545 S
Zn349 O350 2.028 . S
Zn349 O352 2.028 . S
Zn349 O355 2.035 1_545 S
O350 Zn349 2.028 . S
O350 C356 1.247 . S
O351 Zn347 2.062 . S
O351 C356 1.258 . S
O352 C345 1.247 . S
O352 Zn349 2.028 . S
O353 C345 1.258 . S
O353 Zn347 2.062 . S
O354 Zn347 2.002 1_565 S
O354 C357 1.247 . S
O355 Zn349 2.035 1_565 S
O355 C357 1.258 . S
C356 O350 1.247 . S
C356 O351 1.258 . S
C357 O354 1.247 . S
C357 O355 1.258 . S
C358 O360 1.247 . S
C358 O362 1.258 . S
C359 O366 1.247 . S
C359 O367 1.258 . S
O360 C358 1.247 . S
O360 Zn361 2.035 . S
Zn361 O360 2.035 . S
Zn361 O365 2.042 . S
Zn361 O367 2.029 1_554 S
Zn361 O368 2.021 1_554 S
O362 C358 1.258 . S
O362 Zn363 2.035 1_554 S
Zn363 O362 2.035 1_556 S
Zn363 O364 2.028 1_556 S
Zn363 O366 2.028 . S
Zn363 O369 2.035 . S
O364 Zn363 2.028 1_554 S
O364 C370 1.247 . S
O365 Zn361 2.042 . S
O365 C370 1.258 . S
O366 C359 1.247 . S
O366 Zn363 2.028 . S
O367 C359 1.258 . S
O367 Zn361 2.029 1_556 S
O368 Zn361 2.021 1_556 S
O368 C371 1.247 . S
O369 Zn363 2.035 . S
O369 C371 1.258 . S
C370 O364 1.247 . S
C370 O365 1.258 . S
C371 O368 1.247 . S
C371 O369 1.258 . S
H372 C378 0.930 . S
H373 C382 0.930 . S
H374 C387 0.929 . S
H375 C385 0.929 . S
H376 C380 0.929 . S
H377 C386 0.929 . S
C378 H372 0.930 . S
C378 C379 1.367 . S
C378 C386 1.378 . S
C379 C378 1.367 . S
C379 C387 1.433 . S
C380 H376 0.929 . S
C380 C382 1.378 . S
C380 C384 1.350 . S
C381 C384 1.463 . S
C381 C386 1.350 . S
C381 N389 1.427 . S
C382 H373 0.930 . S
C382 C380 1.378 . S
C382 C383 1.367 . S
C383 C382 1.367 . S
C383 C385 1.433 . S
C384 C380 1.350 . S
C384 C381 1.463 . S
C384 N388 1.427 . S
C385 H375 0.929 . S
C385 C383 1.433 . S
C385 N388 1.384 . S
C386 H377 0.929 . S
C386 C378 1.378 . S
C386 C381 1.350 . S
C387 H374 0.929 . S
C387 C379 1.433 . S
C387 N389 1.384 . S
N388 C384 1.427 . S
N388 C385 1.384 . S
N389 C381 1.427 . S
N389 C387 1.384 . S
H390 C396 0.930 . S
H391 C400 0.930 . S
H392 C405 0.929 . S
H393 C403 0.929 . S
H394 C398 0.929 . S
H395 C404 0.929 . S
C396 H390 0.930 . S
C396 C397 1.367 . S
C396 C404 1.378 . S
C397 C396 1.367 . S
C397 C405 1.433 . S
C398 H394 0.929 . S
C398 C400 1.378 . S
C398 C402 1.350 . S
C399 C402 1.463 . S
C399 C404 1.350 . S
C399 N407 1.427 . S
C400 H391 0.930 . S
C400 C398 1.378 . S
C400 C401 1.367 . S
C401 C400 1.367 . S
C401 C403 1.433 . S
C402 C398 1.350 . S
C402 C399 1.463 . S
C402 N406 1.427 . S
C403 H393 0.929 . S
C403 C401 1.433 . S
C403 N406 1.384 . S
C404 H395 0.929 . S
C404 C396 1.378 . S
C404 C399 1.350 . S
C405 H392 0.929 . S
C405 C397 1.433 . S
C405 N407 1.384 . S
N406 C402 1.427 . S
N406 C403 1.384 . S
N407 C399 1.427 . S
N407 C405 1.384 . S
H408 C414 0.930 . S
H409 C418 0.930 . S
H410 C423 0.929 . S
H411 C421 0.929 . S
H412 C416 0.929 . S
H413 C422 0.929 . S
C414 H408 0.930 . S
C414 C415 1.367 . S
C414 C422 1.378 . S
C415 C414 1.367 . S
C415 C423 1.433 . S
C416 H412 0.929 . S
C416 C418 1.378 . S
C416 C420 1.350 . S
C417 C420 1.463 . S
C417 C422 1.350 . S
C417 N425 1.427 . S
C418 H409 0.930 . S
C418 C416 1.378 . S
C418 C419 1.367 . S
C419 C418 1.367 . S
C419 C421 1.433 . S
C420 C416 1.350 . S
C420 C417 1.463 . S
C420 N424 1.427 . S
C421 H411 0.929 . S
C421 C419 1.433 . S
C421 N424 1.384 . S
C422 H413 0.929 . S
C422 C414 1.378 . S
C422 C417 1.350 . S
C423 H410 0.929 . S
C423 C415 1.433 . S
C423 N425 1.384 . S
N424 C420 1.427 . S
N424 C421 1.384 . S
N425 C417 1.427 . S
N425 C423 1.384 . S
H426 C432 0.930 . S
H427 C436 0.930 . S
H428 C441 0.929 . S
H429 C439 0.929 . S
H430 C434 0.929 . S
H431 C440 0.929 . S
C432 H426 0.930 . S
C432 C433 1.367 . S
C432 C440 1.378 . S
C433 C432 1.367 . S
C433 C441 1.433 . S
C434 H430 0.929 . S
C434 C436 1.378 . S
C434 C438 1.350 . S
C435 C438 1.463 . S
C435 C440 1.350 . S
C435 N443 1.427 . S
C436 H427 0.930 . S
C436 C434 1.378 . S
C436 C437 1.367 . S
C437 C436 1.367 . S
C437 C439 1.433 . S
C438 C434 1.350 . S
C438 C435 1.463 . S
C438 N442 1.427 . S
C439 H429 0.929 . S
C439 C437 1.433 . S
C439 N442 1.384 . S
C440 H431 0.929 . S
C440 C432 1.378 . S
C440 C435 1.350 . S
C441 H428 0.929 . S
C441 C433 1.433 . S
C441 N443 1.384 . S
N442 C438 1.427 . S
N442 C439 1.384 . S
N443 C435 1.427 . S
N443 C441 1.384 . S
H444 C450 0.930 . S
H445 C454 0.930 . S
H446 C459 0.929 . S
H447 C457 0.929 . S
H448 C452 0.929 . S
H449 C458 0.929 . S
C450 H444 0.930 . S
C450 C451 1.367 . S
C450 C458 1.378 . S
C451 C450 1.367 . S
C451 C459 1.433 . S
C452 H448 0.929 . S
C452 C454 1.378 . S
C452 C456 1.350 . S
C453 C456 1.463 . S
C453 C458 1.350 . S
C453 N461 1.427 . S
C454 H445 0.930 . S
C454 C452 1.378 . S
C454 C455 1.367 . S
C455 C454 1.367 . S
C455 C457 1.433 . S
C456 C452 1.350 . S
C456 C453 1.463 . S
C456 N460 1.427 . S
C457 H447 0.929 . S
C457 C455 1.433 . S
C457 N460 1.384 . S
C458 H449 0.929 . S
C458 C450 1.378 . S
C458 C453 1.350 . S
C459 H446 0.929 . S
C459 C451 1.433 . S
C459 N461 1.384 . S
N460 C456 1.427 . S
N460 C457 1.384 . S
N461 C453 1.427 . S
N461 C459 1.384 . S
H462 C468 0.930 . S
H463 C472 0.930 . S
H464 C477 0.929 . S
H465 C475 0.929 . S
H466 C470 0.929 . S
H467 C476 0.929 . S
C468 H462 0.930 . S
C468 C469 1.367 . S
C468 C476 1.378 . S
C469 C468 1.367 . S
C469 C477 1.433 . S
C470 H466 0.929 . S
C470 C472 1.378 . S
C470 C474 1.350 . S
C471 C474 1.463 . S
C471 C476 1.350 . S
C471 N479 1.427 . S
C472 H463 0.930 . S
C472 C470 1.378 . S
C472 C473 1.367 . S
C473 C472 1.367 . S
C473 C475 1.433 . S
C474 C470 1.350 . S
C474 C471 1.463 . S
C474 N478 1.427 . S
C475 H465 0.929 . S
C475 C473 1.433 . S
C475 N478 1.384 . S
C476 H467 0.929 . S
C476 C468 1.378 . S
C476 C471 1.350 . S
C477 H464 0.929 . S
C477 C469 1.433 . S
C477 N479 1.384 . S
N478 C474 1.427 . S
N478 C475 1.384 . S
N479 C471 1.427 . S
N479 C477 1.384 . S
H480 C486 0.930 . S
H481 C490 0.930 . S
H482 C495 0.929 . S
H483 C493 0.929 . S
H484 C488 0.929 . S
H485 C494 0.929 . S
C486 H480 0.930 . S
C486 C487 1.367 . S
C486 C494 1.378 . S
C487 C486 1.367 . S
C487 C495 1.433 . S
C488 H484 0.929 . S
C488 C490 1.378 . S
C488 C492 1.350 . S
C489 C492 1.463 . S
C489 C494 1.350 . S
C489 N497 1.427 . S
C490 H481 0.930 . S
C490 C488 1.378 . S
C490 C491 1.367 . S
C491 C490 1.367 . S
C491 C493 1.433 . S
C492 C488 1.350 . S
C492 C489 1.463 . S
C492 N496 1.427 . S
C493 H483 0.929 . S
C493 C491 1.433 . S
C493 N496 1.384 . S
C494 H485 0.929 . S
C494 C486 1.378 . S
C494 C489 1.350 . S
C495 H482 0.929 . S
C495 C487 1.433 . S
C495 N497 1.384 . S
N496 C492 1.427 . S
N496 C493 1.384 . S
N497 C489 1.427 . S
N497 C495 1.384 . S
H498 C504 0.930 . S
H499 C508 0.930 . S
H500 C513 0.929 . S
H501 C511 0.929 . S
H502 C506 0.929 . S
H503 C512 0.929 . S
C504 H498 0.930 . S
C504 C505 1.367 . S
C504 C512 1.378 . S
C505 C504 1.367 . S
C505 C513 1.433 . S
C506 H502 0.929 . S
C506 C508 1.378 . S
C506 C510 1.350 . S
C507 C510 1.463 . S
C507 C512 1.350 . S
C507 N515 1.427 . S
C508 H499 0.930 . S
C508 C506 1.378 . S
C508 C509 1.367 . S
C509 C508 1.367 . S
C509 C511 1.433 . S
C510 C506 1.350 . S
C510 C507 1.463 . S
C510 N514 1.427 . S
C511 H501 0.929 . S
C511 C509 1.433 . S
C511 N514 1.384 . S
C512 H503 0.929 . S
C512 C504 1.378 . S
C512 C507 1.350 . S
C513 H500 0.929 . S
C513 C505 1.433 . S
C513 N515 1.384 . S
N514 C510 1.427 . S
N514 C511 1.384 . S
N515 C507 1.427 . S
N515 C513 1.384 . S
H516 C522 0.930 . S
H517 C526 0.930 . S
H518 C531 0.929 . S
H519 C529 0.929 . S
H520 C524 0.929 . S
H521 C530 0.929 . S
C522 H516 0.930 . S
C522 C523 1.367 . S
C522 C530 1.378 . S
C523 C522 1.367 . S
C523 C531 1.433 . S
C524 H520 0.929 . S
C524 C526 1.378 . S
C524 C528 1.350 . S
C525 C528 1.463 . S
C525 C530 1.350 . S
C525 N533 1.427 . S
C526 H517 0.930 . S
C526 C524 1.378 . S
C526 C527 1.367 . S
C527 C526 1.367 . S
C527 C529 1.433 . S
C528 C524 1.350 . S
C528 C525 1.463 . S
C528 N532 1.427 . S
C529 H519 0.929 . S
C529 C527 1.433 . S
C529 N532 1.384 . S
C530 H521 0.929 . S
C530 C522 1.378 . S
C530 C525 1.350 . S
C531 H518 0.929 . S
C531 C523 1.433 . S
C531 N533 1.384 . S
N532 C528 1.427 . S
N532 C529 1.384 . S
N533 C525 1.427 . S
N533 C531 1.384 . S
H534 C540 0.930 . S
H535 C544 0.930 . S
H536 C549 0.929 . S
H537 C547 0.929 . S
H538 C542 0.929 . S
H539 C548 0.929 . S
C540 H534 0.930 . S
C540 C541 1.367 . S
C540 C548 1.378 . S
C541 C540 1.367 . S
C541 C549 1.433 . S
C542 H538 0.929 . S
C542 C544 1.378 . S
C542 C546 1.350 . S
C543 C546 1.463 . S
C543 C548 1.350 . S
C543 N551 1.427 . S
C544 H535 0.930 . S
C544 C542 1.378 . S
C544 C545 1.367 . S
C545 C544 1.367 . S
C545 C547 1.433 . S
C546 C542 1.350 . S
C546 C543 1.463 . S
C546 N550 1.427 . S
C547 H537 0.929 . S
C547 C545 1.433 . S
C547 N550 1.384 . S
C548 H539 0.929 . S
C548 C540 1.378 . S
C548 C543 1.350 . S
C549 H536 0.929 . S
C549 C541 1.433 . S
C549 N551 1.384 . S
N550 C546 1.427 . S
N550 C547 1.384 . S
N551 C543 1.427 . S
N551 C549 1.384 . S
H552 C558 0.930 . S
H553 C562 0.930 . S
H554 C567 0.929 . S
H555 C565 0.929 . S
H556 C560 0.929 . S
H557 C566 0.929 . S
C558 H552 0.930 . S
C558 C559 1.367 . S
C558 C566 1.378 . S
C559 C558 1.367 . S
C559 C567 1.433 . S
C560 H556 0.929 . S
C560 C562 1.378 . S
C560 C564 1.350 . S
C561 C564 1.463 . S
C561 C566 1.350 . S
C561 N569 1.427 . S
C562 H553 0.930 . S
C562 C560 1.378 . S
C562 C563 1.367 . S
C563 C562 1.367 . S
C563 C565 1.433 . S
C564 C560 1.350 . S
C564 C561 1.463 . S
C564 N568 1.427 . S
C565 H555 0.929 . S
C565 C563 1.433 . S
C565 N568 1.384 . S
C566 H557 0.929 . S
C566 C558 1.378 . S
C566 C561 1.350 . S
C567 H554 0.929 . S
C567 C559 1.433 . S
C567 N569 1.384 . S
N568 C564 1.427 . S
N568 C565 1.384 . S
N569 C561 1.427 . S
N569 C567 1.384 . S
H570 C576 0.930 . S
H571 C580 0.930 . S
H572 C585 0.929 . S
H573 C583 0.929 . S
H574 C578 0.929 . S
H575 C584 0.929 . S
C576 H570 0.930 . S
C576 C577 1.367 . S
C576 C584 1.378 . S
C577 C576 1.367 . S
C577 C585 1.433 . S
C578 H574 0.929 . S
C578 C580 1.378 . S
C578 C582 1.350 . S
C579 C582 1.463 . S
C579 C584 1.350 . S
C579 N587 1.427 . S
C580 H571 0.930 . S
C580 C578 1.378 . S
C580 C581 1.367 . S
C581 C580 1.367 . S
C581 C583 1.433 . S
C582 C578 1.350 . S
C582 C579 1.463 . S
C582 N586 1.427 . S
C583 H573 0.929 . S
C583 C581 1.433 . S
C583 N586 1.384 . S
C584 H575 0.929 . S
C584 C576 1.378 . S
C584 C579 1.350 . S
C585 H572 0.929 . S
C585 C577 1.433 . S
C585 N587 1.384 . S
N586 C582 1.427 . S
N586 C583 1.384 . S
N587 C579 1.427 . S
N587 C585 1.384 . S
H588 C594 0.930 . S
H589 C598 0.930 . S
H590 C603 0.929 . S
H591 C601 0.929 . S
H592 C596 0.929 . S
H593 C602 0.929 . S
C594 H588 0.930 . S
C594 C595 1.367 . S
C594 C602 1.378 . S
C595 C594 1.367 . S
C595 C603 1.433 . S
C596 H592 0.929 . S
C596 C598 1.378 . S
C596 C600 1.350 . S
C597 C600 1.463 . S
C597 C602 1.350 . S
C597 N605 1.427 . S
C598 H589 0.930 . S
C598 C596 1.378 . S
C598 C599 1.367 . S
C599 C598 1.367 . S
C599 C601 1.433 . S
C600 C596 1.350 . S
C600 C597 1.463 . S
C600 N604 1.427 . S
C601 H591 0.929 . S
C601 C599 1.433 . S
C601 N604 1.384 . S
C602 H593 0.929 . S
C602 C594 1.378 . S
C602 C597 1.350 . S
C603 H590 0.929 . S
C603 C595 1.433 . S
C603 N605 1.384 . S
N604 C600 1.427 . S
N604 C601 1.384 . S
N605 C597 1.427 . S
N605 C603 1.384 . S
H606 C612 0.930 . S
H607 C616 0.930 . S
H608 C621 0.929 . S
H609 C619 0.929 . S
H610 C614 0.929 . S
H611 C620 0.929 . S
C612 H606 0.930 . S
C612 C613 1.367 . S
C612 C620 1.378 . S
C613 C612 1.367 . S
C613 C621 1.433 . S
C614 H610 0.929 . S
C614 C616 1.378 . S
C614 C618 1.350 . S
C615 C618 1.463 . S
C615 C620 1.350 . S
C615 N623 1.427 . S
C616 H607 0.930 . S
C616 C614 1.378 . S
C616 C617 1.367 . S
C617 C616 1.367 . S
C617 C619 1.433 . S
C618 C614 1.350 . S
C618 C615 1.463 . S
C618 N622 1.427 . S
C619 H609 0.929 . S
C619 C617 1.433 . S
C619 N622 1.384 . S
C620 H611 0.929 . S
C620 C612 1.378 . S
C620 C615 1.350 . S
C621 H608 0.929 . S
C621 C613 1.433 . S
C621 N623 1.384 . S
N622 C618 1.427 . S
N622 C619 1.384 . S
N623 C615 1.427 . S
N623 C621 1.384 . S
H624 C630 0.930 . S
H625 C634 0.930 . S
H626 C639 0.929 . S
H627 C637 0.929 . S
H628 C632 0.929 . S
H629 C638 0.929 . S
C630 H624 0.930 . S
C630 C631 1.367 . S
C630 C638 1.378 . S
C631 C630 1.367 . S
C631 C639 1.433 . S
C632 H628 0.929 . S
C632 C634 1.378 . S
C632 C636 1.350 . S
C633 C636 1.463 . S
C633 C638 1.350 . S
C633 N641 1.427 . S
C634 H625 0.930 . S
C634 C632 1.378 . S
C634 C635 1.367 . S
C635 C634 1.367 . S
C635 C637 1.433 . S
C636 C632 1.350 . S
C636 C633 1.463 . S
C636 N640 1.427 . S
C637 H627 0.929 . S
C637 C635 1.433 . S
C637 N640 1.384 . S
C638 H629 0.929 . S
C638 C630 1.378 . S
C638 C633 1.350 . S
C639 H626 0.929 . S
C639 C631 1.433 . S
C639 N641 1.384 . S
N640 C636 1.427 . S
N640 C637 1.384 . S
N641 C633 1.427 . S
N641 C639 1.384 . S
H642 C648 0.930 . S
H643 C652 0.930 . S
H644 C657 0.929 . S
H645 C655 0.929 . S
H646 C650 0.929 . S
H647 C656 0.929 . S
C648 H642 0.930 . S
C648 C649 1.367 . S
C648 C656 1.378 . S
C649 C648 1.367 . S
C649 C657 1.433 . S
C650 H646 0.929 . S
C650 C652 1.378 . S
C650 C654 1.350 . S
C651 C654 1.463 . S
C651 C656 1.350 . S
C651 N659 1.427 . S
C652 H643 0.930 . S
C652 C650 1.378 . S
C652 C653 1.367 . S
C653 C652 1.367 . S
C653 C655 1.433 . S
C654 C650 1.350 . S
C654 C651 1.463 . S
C654 N658 1.427 . S
C655 H645 0.929 . S
C655 C653 1.433 . S
C655 N658 1.384 . S
C656 H647 0.929 . S
C656 C648 1.378 . S
C656 C651 1.350 . S
C657 H644 0.929 . S
C657 C649 1.433 . S
C657 N659 1.384 . S
N658 C654 1.427 . S
N658 C655 1.384 . S
N659 C651 1.427 . S
N659 C657 1.384 . S
H660 C666 0.930 . S
H661 C670 0.930 . S
H662 C675 0.929 . S
H663 C673 0.929 . S
H664 C668 0.929 . S
H665 C674 0.929 . S
C666 H660 0.930 . S
C666 C667 1.367 . S
C666 C674 1.378 . S
C667 C666 1.367 . S
C667 C675 1.433 . S
C668 H664 0.929 . S
C668 C670 1.378 . S
C668 C672 1.350 . S
C669 C672 1.463 . S
C669 C674 1.350 . S
C669 N677 1.427 . S
C670 H661 0.930 . S
C670 C668 1.378 . S
C670 C671 1.367 . S
C671 C670 1.367 . S
C671 C673 1.433 . S
C672 C668 1.350 . S
C672 C669 1.463 . S
C672 N676 1.427 . S
C673 H663 0.929 . S
C673 C671 1.433 . S
C673 N676 1.384 . S
C674 H665 0.929 . S
C674 C666 1.378 . S
C674 C669 1.350 . S
C675 H662 0.929 . S
C675 C667 1.433 . S
C675 N677 1.384 . S
N676 C672 1.427 . S
N676 C673 1.384 . S
N677 C669 1.427 . S
N677 C675 1.384 . S
H678 C684 0.930 . S
H679 C688 0.930 . S
H680 C693 0.929 . S
H681 C691 0.929 . S
H682 C686 0.929 . S
H683 C692 0.929 . S
C684 H678 0.930 . S
C684 C685 1.367 . S
C684 C692 1.378 . S
C685 C684 1.367 . S
C685 C693 1.433 . S
C686 H682 0.929 . S
C686 C688 1.378 . S
C686 C690 1.350 . S
C687 C690 1.463 . S
C687 C692 1.350 . S
C687 N695 1.427 . S
C688 H679 0.930 . S
C688 C686 1.378 . S
C688 C689 1.367 . S
C689 C688 1.367 . S
C689 C691 1.433 . S
C690 C686 1.350 . S
C690 C687 1.463 . S
C690 N694 1.427 . S
C691 H681 0.929 . S
C691 C689 1.433 . S
C691 N694 1.384 . S
C692 H683 0.929 . S
C692 C684 1.378 . S
C692 C687 1.350 . S
C693 H680 0.929 . S
C693 C685 1.433 . S
C693 N695 1.384 . S
N694 C690 1.427 . S
N694 C691 1.384 . S
N695 C687 1.427 . S
N695 C693 1.384 . S
H696 C702 0.930 . S
H697 C706 0.930 . S
H698 C711 0.929 . S
H699 C709 0.929 . S
H700 C704 0.929 . S
H701 C710 0.929 . S
C702 H696 0.930 . S
C702 C703 1.367 . S
C702 C710 1.378 . S
C703 C702 1.367 . S
C703 C711 1.433 . S
C704 H700 0.929 . S
C704 C706 1.378 . S
C704 C708 1.350 . S
C705 C708 1.463 . S
C705 C710 1.350 . S
C705 N713 1.427 . S
C706 H697 0.930 . S
C706 C704 1.378 . S
C706 C707 1.367 . S
C707 C706 1.367 . S
C707 C709 1.433 . S
C708 C704 1.350 . S
C708 C705 1.463 . S
C708 N712 1.427 . S
C709 H699 0.929 . S
C709 C707 1.433 . S
C709 N712 1.384 . S
C710 H701 0.929 . S
C710 C702 1.378 . S
C710 C705 1.350 . S
C711 H698 0.929 . S
C711 C703 1.433 . S
C711 N713 1.384 . S
N712 C708 1.427 . S
N712 C709 1.384 . S
N713 C705 1.427 . S
N713 C711 1.384 . S
H714 C720 0.930 . S
H715 C724 0.930 . S
H716 C729 0.929 . S
H717 C727 0.929 . S
H718 C722 0.929 . S
H719 C728 0.929 . S
C720 H714 0.930 . S
C720 C721 1.367 . S
C720 C728 1.378 . S
C721 C720 1.367 . S
C721 C729 1.433 . S
C722 H718 0.929 . S
C722 C724 1.378 . S
C722 C726 1.350 . S
C723 C726 1.463 . S
C723 C728 1.350 . S
C723 N731 1.427 . S
C724 H715 0.930 . S
C724 C722 1.378 . S
C724 C725 1.367 . S
C725 C724 1.367 . S
C725 C727 1.433 . S
C726 C722 1.350 . S
C726 C723 1.463 . S
C726 N730 1.427 . S
C727 H717 0.929 . S
C727 C725 1.433 . S
C727 N730 1.384 . S
C728 H719 0.929 . S
C728 C720 1.378 . S
C728 C723 1.350 . S
C729 H716 0.929 . S
C729 C721 1.433 . S
C729 N731 1.384 . S
N730 C726 1.427 . S
N730 C727 1.384 . S
N731 C723 1.427 . S
N731 C729 1.384 . S
H732 C738 0.930 . S
H733 C742 0.930 . S
H734 C747 0.929 . S
H735 C745 0.929 . S
H736 C740 0.929 . S
H737 C746 0.929 . S
C738 H732 0.930 . S
C738 C739 1.367 . S
C738 C746 1.378 . S
C739 C738 1.367 . S
C739 C747 1.433 . S
C740 H736 0.929 . S
C740 C742 1.378 . S
C740 C744 1.350 . S
C741 C744 1.463 . S
C741 C746 1.350 . S
C741 N749 1.427 . S
C742 H733 0.930 . S
C742 C740 1.378 . S
C742 C743 1.367 . S
C743 C742 1.367 . S
C743 C745 1.433 . S
C744 C740 1.350 . S
C744 C741 1.463 . S
C744 N748 1.427 . S
C745 H735 0.929 . S
C745 C743 1.433 . S
C745 N748 1.384 . S
C746 H737 0.929 . S
C746 C738 1.378 . S
C746 C741 1.350 . S
C747 H734 0.929 . S
C747 C739 1.433 . S
C747 N749 1.384 . S
N748 C744 1.427 . S
N748 C745 1.384 . S
N749 C741 1.427 . S
N749 C747 1.384 . S
H750 C756 0.930 . S
H751 C760 0.930 . S
H752 C765 0.929 . S
H753 C763 0.929 . S
H754 C758 0.929 . S
H755 C764 0.929 . S
C756 H750 0.930 . S
C756 C757 1.367 . S
C756 C764 1.378 . S
C757 C756 1.367 . S
C757 C765 1.433 . S
C758 H754 0.929 . S
C758 C760 1.378 . S
C758 C762 1.350 . S
C759 C762 1.463 . S
C759 C764 1.350 . S
C759 N767 1.427 . S
C760 H751 0.930 . S
C760 C758 1.378 . S
C760 C761 1.367 . S
C761 C760 1.367 . S
C761 C763 1.433 . S
C762 C758 1.350 . S
C762 C759 1.463 . S
C762 N766 1.427 . S
C763 H753 0.929 . S
C763 C761 1.433 . S
C763 N766 1.384 . S
C764 H755 0.929 . S
C764 C756 1.378 . S
C764 C759 1.350 . S
C765 H752 0.929 . S
C765 C757 1.433 . S
C765 N767 1.384 . S
N766 C762 1.427 . S
N766 C763 1.384 . S
N767 C759 1.427 . S
N767 C765 1.384 . S
H768 C774 0.930 . S
H769 C778 0.930 . S
H770 C783 0.929 . S
H771 C781 0.929 . S
H772 C776 0.929 . S
H773 C782 0.929 . S
C774 H768 0.930 . S
C774 C775 1.367 . S
C774 C782 1.378 . S
C775 C774 1.367 . S
C775 C783 1.433 . S
C776 H772 0.929 . S
C776 C778 1.378 . S
C776 C780 1.350 . S
C777 C780 1.463 . S
C777 C782 1.350 . S
C777 N785 1.427 . S
C778 H769 0.930 . S
C778 C776 1.378 . S
C778 C779 1.367 . S
C779 C778 1.367 . S
C779 C781 1.433 . S
C780 C776 1.350 . S
C780 C777 1.463 . S
C780 N784 1.427 . S
C781 H771 0.929 . S
C781 C779 1.433 . S
C781 N784 1.384 . S
C782 H773 0.929 . S
C782 C774 1.378 . S
C782 C777 1.350 . S
C783 H770 0.929 . S
C783 C775 1.433 . S
C783 N785 1.384 . S
N784 C780 1.427 . S
N784 C781 1.384 . S
N785 C777 1.427 . S
N785 C783 1.384 . S
H786 C792 0.930 . S
H787 C796 0.930 . S
H788 C801 0.929 . S
H789 C799 0.929 . S
H790 C794 0.929 . S
H791 C800 0.929 . S
C792 H786 0.930 . S
C792 C793 1.367 . S
C792 C800 1.378 . S
C793 C792 1.367 . S
C793 C801 1.433 . S
C794 H790 0.929 . S
C794 C796 1.378 . S
C794 C798 1.350 . S
C795 C798 1.463 . S
C795 C800 1.350 . S
C795 N803 1.427 . S
C796 H787 0.930 . S
C796 C794 1.378 . S
C796 C797 1.367 . S
C797 C796 1.367 . S
C797 C799 1.433 . S
C798 C794 1.350 . S
C798 C795 1.463 . S
C798 N802 1.427 . S
C799 H789 0.929 . S
C799 C797 1.433 . S
C799 N802 1.384 . S
C800 H791 0.929 . S
C800 C792 1.378 . S
C800 C795 1.350 . S
C801 H788 0.929 . S
C801 C793 1.433 . S
C801 N803 1.384 . S
N802 C798 1.427 . S
N802 C799 1.384 . S
N803 C795 1.427 . S
N803 C801 1.384 . S
C383 C300 1.508 . S
C379 C25 1.508 . S
C401 C303 1.505 . S
C397 C37 1.508 . S
C419 C301 1.516 . S
C415 C103 1.514 . S
C437 C302 1.508 . S
C433 C139 1.509 . S
C455 C317 1.503 . S
C451 C31 1.501 . S
C473 C331 1.506 . S
C469 C67 1.505 . S
C487 C97 1.504 . S
C491 C357 1.508 . S
C509 C371 1.499 . S
C505 C133 1.499 . S
C527 C316 1.500 . S
C523 C61 1.501 . S
C541 C73 1.510 . S
C545 C330 1.513 . S
C563 C356 1.505 . S
C559 C109 1.504 . S
C581 C370 1.503 . S
C577 C1 1.501 . S
C595 C169 1.499 . S
C599 C315 1.505 . S
C617 C288 1.505 . S
C613 C211 1.504 . S
C631 C241 1.497 . S
C635 C314 1.497 . S
C649 C253 1.503 . S
C653 C289 1.509 . S
C671 C344 1.510 . S
C667 C175 1.503 . S
C689 C358 1.505 . S
C685 C205 1.499 . S
C707 C328 1.501 . S
C703 C217 1.501 . S
C721 C283 1.511 . S
C725 C342 1.512 . S
C743 C345 1.508 . S
C739 C181 1.502 . S
C761 C359 1.503 . S
C757 C247 1.509 . S
C779 C329 1.502 . S
C775 C277 1.501 . S
C793 C145 1.510 . S
C797 C343 1.512 . S
