# Generated by pormake.
# Topology pyr, (3,6)-cn, num edge types: 1
# Building blocks:
#     Node 0, Type 0, BuildingBlock: BETDIP_clean_linker_0, # of connection points: 3
#     Node 1, Type 0, BuildingBlock: BETDIP_clean_linker_0, # of connection points: 3
#     Node 2, Type 0, BuildingBlock: BETDIP_clean_linker_0, # of connection points: 3
#     Node 3, Type 0, BuildingBlock: BETDIP_clean_linker_0, # of connection points: 3
#     Node 4, Type 0, BuildingBlock: BETDIP_clean_linker_0, # of connection points: 3
#     Node 5, Type 0, BuildingBlock: BETDIP_clean_linker_0, # of connection points: 3
#     Node 6, Type 0, BuildingBlock: BETDIP_clean_linker_0, # of connection points: 3
#     Node 7, Type 0, BuildingBlock: BETDIP_clean_linker_0, # of connection points: 3
#     Node 8, Type 1, BuildingBlock: FUNLAD_clean_sbu_0, # of connection points: 6
#     Node 9, Type 1, BuildingBlock: FUNLAD_clean_sbu_0, # of connection points: 6
#     Node 10, Type 1, BuildingBlock: FUNLAD_clean_sbu_0, # of connection points: 6
#     Node 11, Type 1, BuildingBlock: FUNLAD_clean_sbu_0, # of connection points: 6
#     Edge 12, Type (0, 1), BuildingBlock: EZIPEK_clean_linker_0, # of connection points: 2
#     Edge 13, Type (0, 1), BuildingBlock: EZIPEK_clean_linker_0, # of connection points: 2
#     Edge 14, Type (0, 1), BuildingBlock: EZIPEK_clean_linker_0, # of connection points: 2
#     Edge 15, Type (0, 1), BuildingBlock: EZIPEK_clean_linker_0, # of connection points: 2
#     Edge 16, Type (0, 1), BuildingBlock: EZIPEK_clean_linker_0, # of connection points: 2
#     Edge 17, Type (0, 1), BuildingBlock: EZIPEK_clean_linker_0, # of connection points: 2
#     Edge 18, Type (0, 1), BuildingBlock: EZIPEK_clean_linker_0, # of connection points: 2
#     Edge 19, Type (0, 1), BuildingBlock: EZIPEK_clean_linker_0, # of connection points: 2
#     Edge 20, Type (0, 1), BuildingBlock: EZIPEK_clean_linker_0, # of connection points: 2
#     Edge 21, Type (0, 1), BuildingBlock: EZIPEK_clean_linker_0, # of connection points: 2
#     Edge 22, Type (0, 1), BuildingBlock: EZIPEK_clean_linker_0, # of connection points: 2
#     Edge 23, Type (0, 1), BuildingBlock: EZIPEK_clean_linker_0, # of connection points: 2
#     Edge 24, Type (0, 1), BuildingBlock: EZIPEK_clean_linker_0, # of connection points: 2
#     Edge 25, Type (0, 1), BuildingBlock: EZIPEK_clean_linker_0, # of connection points: 2
#     Edge 26, Type (0, 1), BuildingBlock: EZIPEK_clean_linker_0, # of connection points: 2
#     Edge 27, Type (0, 1), BuildingBlock: EZIPEK_clean_linker_0, # of connection points: 2
#     Edge 28, Type (0, 1), BuildingBlock: EZIPEK_clean_linker_0, # of connection points: 2
#     Edge 29, Type (0, 1), BuildingBlock: EZIPEK_clean_linker_0, # of connection points: 2
#     Edge 30, Type (0, 1), BuildingBlock: EZIPEK_clean_linker_0, # of connection points: 2
#     Edge 31, Type (0, 1), BuildingBlock: EZIPEK_clean_linker_0, # of connection points: 2
#     Edge 32, Type (0, 1), BuildingBlock: EZIPEK_clean_linker_0, # of connection points: 2
#     Edge 33, Type (0, 1), BuildingBlock: EZIPEK_clean_linker_0, # of connection points: 2
#     Edge 34, Type (0, 1), BuildingBlock: EZIPEK_clean_linker_0, # of connection points: 2
#     Edge 35, Type (0, 1), BuildingBlock: EZIPEK_clean_linker_0, # of connection points: 2
# Relax obj value: 0.283
# Max RMSD: 0.206
# Mean RMSD: 0.138
data_MOF--net-pry--node1-FUNLAD_clean_sbu_0--node2-BETDIP_clean_linker_0--edge1-EZIPEK_clean_linker_0
_symmetry_space_group_name_H-M    P1
_symmetry_Int_Tables_number       1
_symmetry_cell_setting            triclinic
loop_
_symmetry_equiv_pos_as_xyz
'x, y, z'
_cell_length_a     25.118444
_cell_length_b     26.66019
_cell_length_c     28.177105
_cell_angle_alpha  94.402103
_cell_angle_beta   85.18466
_cell_angle_gamma 87.803539
loop_
_atom_site_label
_atom_site_type_symbol
_atom_site_fract_x
_atom_site_fract_y
_atom_site_fract_z
_atom_type_partial_charge
H0 H 0.08601 0.20424 0.2825 0.0
H1 H 0.20427 0.19954 0.16199 0.0
H2 H 0.21889 0.09505 0.2695 0.0
H3 H 0.18238 0.28493 0.16995 0.0
C4 C 0.13897 0.28543 0.17413 0.0
C5 C 0.12242 0.18773 0.26322 0.0
C6 C 0.14991 0.14714 0.28175 0.0
C7 C 0.14217 0.20786 0.22051 0.0
C8 C 0.18924 0.18573 0.19547 0.0
C9 C 0.21707 0.14509 0.21268 0.0
C10 C 0.19733 0.12612 0.25593 0.0
N11 N 0.11373 0.24929 0.20269 0.0
H12 H 0.35266 0.94976 0.79261 0.0
H13 H 0.36121 0.83921 0.6733 0.0
H14 H 0.48416 0.83902 0.77185 0.0
H15 H 0.33729 0.91836 0.63838 0.0
C16 C 0.30308 0.92914 0.66381 0.0
C17 C 0.37329 0.91745 0.77243 0.0
C18 C 0.42018 0.89642 0.78852 0.0
C19 C 0.35345 0.89834 0.72992 0.0
C20 C 0.37871 0.85532 0.70455 0.0
C21 C 0.42624 0.83301 0.71844 0.0
C22 C 0.44736 0.85477 0.76052 0.0
N23 N 0.30778 0.9227 0.71318 0.0
H24 H 0.67167 0.58138 1.01452 0.0
H25 H 0.54832 0.47414 1.00604 0.0
H26 H 0.69842 0.43048 0.05477 0.0
H27 H 0.49865 0.5401 0.9773 0.0
C28 C 0.53385 0.54845 0.95464 0.0
C29 C 0.65634 0.5451 1.02202 0.0
C30 C 0.69011 0.50835 1.03916 0.0
C31 C 0.60552 0.53291 1.00864 0.0
C32 C 0.58679 0.48512 1.01697 0.0
C33 C 0.62031 0.44827 1.03297 0.0
C34 C 0.6717 0.4599 1.04451 0.0
N35 N 0.58032 0.56331 0.97675 0.0
H36 H 0.87409 0.49672 0.5013 0.0
H37 H 1.00737 0.59262 0.48945 0.0
H38 H 0.84902 0.65797 0.52416 0.0
H39 H 0.04795 0.46219 0.43995 0.0
C40 C 0.01656 0.49162 0.44279 0.0
C41 C 0.88965 0.5341 0.50381 0.0
C42 C 0.85461 0.57667 0.51439 0.0
C43 C 0.94468 0.5397 0.49514 0.0
C44 C 0.9649 0.58798 0.49621 0.0
C45 C 0.93023 0.63046 0.50556 0.0
C46 C 0.87558 0.62478 0.51641 0.0
N47 N 0.97938 0.49656 0.4839 0.0
H48 H 0.83338 0.89478 0.94754 0.0
H49 H 0.95457 0.89754 0.8306 0.0
H50 H 0.80875 0.98992 0.83427 0.0
H51 H 0.8606 0.80975 0.93756 0.0
C52 C 0.90373 0.81261 0.93604 0.0
C53 C 0.84741 0.90837 0.91365 0.0
C54 C 0.81585 0.94477 0.89417 0.0
C55 C 0.89675 0.88994 0.89038 0.0
C56 C 0.91583 0.91068 0.84785 0.0
C57 C 0.88441 0.94661 0.82634 0.0
C58 C 0.83377 0.96276 0.8499 0.0
N59 N 0.92758 0.85112 0.90963 0.0
H60 H 0.68104 0.14234 0.32157 0.0
H61 H 0.66322 0.2549 0.43963 0.0
H62 H 0.54721 0.25101 0.33521 0.0
H63 H 0.6989 0.18519 0.47755 0.0
C64 C 0.73132 0.17324 0.45061 0.0
C65 C 0.65832 0.17418 0.34057 0.0
C66 C 0.61105 0.19252 0.32267 0.0
C67 C 0.67576 0.19457 0.38368 0.0
C68 C 0.64825 0.23731 0.40774 0.0
C69 C 0.60266 0.25901 0.39018 0.0
C70 C 0.58313 0.23543 0.34828 0.0
N71 N 0.72196 0.17202 0.4013 0.0
H72 H 0.356 0.51068 0.09829 0.0
H73 H 0.49741 0.58919 0.12725 0.0
H74 H 0.36317 0.66915 0.07943 0.0
H75 H 0.50555 0.45854 0.1681 0.0
C76 C 0.48431 0.49411 0.16549 0.0
C77 C 0.37753 0.54516 0.0996 0.0
C78 C 0.35316 0.59004 0.08718 0.0
C79 C 0.42917 0.54468 0.11467 0.0
C80 C 0.45702 0.58921 0.11685 0.0
C81 C 0.43294 0.63408 0.10485 0.0
C82 C 0.38159 0.6343 0.08899 0.0
N83 N 0.45285 0.49868 0.12631 0.0
H84 H 0.02738 0.5003 0.6259 0.0
H85 H 0.15712 0.59642 0.59384 0.0
H86 H 0.18634 0.43588 0.5889 0.0
H87 H 0.98441 0.6307 0.6655 0.0
C88 C 0.01716 0.60283 0.66439 0.0
C89 C 0.06933 0.50501 0.6156 0.0
C90 C 0.10456 0.46275 0.60721 0.0
C91 C 0.08832 0.55331 0.61109 0.0
C92 C 0.14236 0.55901 0.59671 0.0
C93 C 0.17801 0.51674 0.58926 0.0
C94 C 0.15889 0.46862 0.59429 0.0
N95 N 0.05391 0.59665 0.62281 0.0
C96 C 0.06697 0.07216 0.46458 0.0
N97 N 0.03763 0.15472 0.59823 0.0
C98 C 0.08584 0.17363 0.58553 0.0
C99 C 0.09377 0.22471 0.59446 0.0
C100 C 0.05175 0.25626 0.61673 0.0
C101 C 1.00355 0.2356 0.6324 0.0
C102 C 0.99723 0.1841 0.62258 0.0
Zn103 Zn 0.02454 0.08426 0.57066 0.0
C104 C 0.92093 0.08379 0.52277 0.0
N105 N 0.99633 0.93926 0.50881 0.0
C106 C 0.03877 0.90817 0.491 0.0
C107 C 0.94638 0.92174 0.51607 0.0
C108 C 0.93823 0.87051 0.50818 0.0
C109 C 0.98207 0.83732 0.49343 0.0
C110 C 0.03256 0.85646 0.48338 0.0
Zn111 Zn 1.00909 1.01006 0.53604 0.0
O112 O 0.06102 0.10335 0.50144 0.0
C113 C 0.11263 1.01105 0.58489 0.0
O114 O 0.05141 1.02754 0.46855 0.0
H115 H 0.91344 0.947 0.53092 0.0
H116 H 0.1172 0.14964 0.56592 0.0
H117 H 0.07808 0.92298 0.48555 0.0
O118 O 0.1 0.05783 0.59122 0.0
O119 O 0.08209 0.98232 0.56267 0.0
H120 H 0.95919 0.16817 0.63198 0.0
O121 O 0.96642 0.99329 0.60318 0.0
O122 O 0.98834 0.06366 0.63975 0.0
O123 O 0.93655 0.03832 0.51074 0.0
O124 O 0.94856 0.11097 0.54956 0.0
C125 C 0.96664 1.02126 0.64192 0.0
H126 H 0.13132 0.23992 0.58192 0.0
H127 H 0.97043 0.25944 0.64949 0.0
H128 H 0.89891 0.85649 0.51657 0.0
H129 H 0.06708 0.83145 0.47218 0.0
C130 C 0.61848 1.00915 1.01183 0.0
N131 N 0.53086 0.14562 1.01508 0.0
C132 C 0.58171 0.16127 1.01688 0.0
C133 C 0.59259 0.21141 1.0135 0.0
C134 C 0.55069 0.24614 1.00941 0.0
C135 C 0.4989 0.22948 1.0051 0.0
C136 C 0.48978 0.17824 1.00788 0.0
Zn137 Zn 0.51966 0.07641 1.03899 0.0
C138 C 0.4779 0.99967 0.96951 0.0
N139 N 0.50639 0.93617 0.09788 0.0
C140 C 0.54834 0.91114 0.1146 0.0
C141 C 0.45966 0.91356 0.09128 0.0
C142 C 0.45446 0.86321 0.09958 0.0
C143 C 0.49792 0.8359 0.11425 0.0
C144 C 0.54502 0.86026 0.12289 0.0
Zn145 Zn 0.51413 1.00485 0.07242 0.0
O146 O 0.59588 0.05062 1.00399 0.0
C147 C 0.5558 0.08275 0.14189 0.0
O148 O 0.59525 0.98223 1.04204 0.0
H149 H 0.42725 0.9338 0.07708 0.0
H150 H 0.61358 0.13593 1.02495 0.0
H151 H 0.58519 0.9299 0.11922 0.0
O152 O 0.55526 0.10516 0.10363 0.0
O153 O 0.54127 1.03729 0.14004 0.0
H154 H 0.44954 0.16527 1.0075 0.0
O155 O 0.43383 1.02719 0.10219 0.0
O156 O 0.44156 0.10136 0.07445 0.0
O157 O 0.48606 0.97407 1.00486 0.0
O158 O 0.48499 0.04701 0.97391 0.0
C159 C 0.41455 0.07147 0.09906 0.0
H160 H 0.63278 0.22358 1.01745 0.0
H161 H 0.4658 0.25599 1.00221 0.0
H162 H 0.41784 0.84502 0.09227 0.0
H163 H 0.57927 0.83969 0.13396 0.0
C164 C 0.5344 0.44905 0.50418 0.0
N165 N 0.52423 0.51024 0.65255 0.0
C166 C 0.48652 0.48348 0.67602 0.0
C167 C 0.4836 0.48346 0.726 0.0
C168 C 0.52001 0.51105 0.75134 0.0
C169 C 0.56 0.53567 0.72629 0.0
C170 C 0.56124 0.53508 0.67697 0.0
Zn171 Zn 0.51799 0.53055 0.58379 0.0
C172 C 0.62409 0.56024 0.53923 0.0
N173 N 0.50639 0.58812 0.44797 0.0
C174 C 0.54273 0.56451 0.41422 0.0
C175 C 0.464 0.61603 0.43532 0.0
C176 C 0.45491 0.61747 0.38692 0.0
C177 C 0.48892 0.58851 0.35217 0.0
C178 C 0.53456 0.56398 0.36614 0.0
Zn179 Zn 0.51252 0.56549 0.51534 0.0
O180 O 0.5363 0.45402 0.54954 0.0
C181 C 0.4067 0.53567 0.55877 0.0
O182 O 0.52288 0.48802 0.48288 0.0
H183 H 0.43536 0.63425 0.46266 0.0
H184 H 0.45689 0.46444 0.65654 0.0
H185 H 0.57601 0.54226 0.42452 0.0
O186 O 0.43569 0.51755 0.58869 0.0
O187 O 0.42817 0.55872 0.52476 0.0
H188 H 0.58985 0.55789 0.65921 0.0
O189 O 0.50352 0.64288 0.55018 0.0
O190 O 0.49877 0.60627 0.61667 0.0
O191 O 0.59585 0.57159 0.50616 0.0
O192 O 0.6012 0.54436 0.5766 0.0
C193 C 0.49642 0.6469 0.59584 0.0
H194 H 0.45245 0.46368 0.74469 0.0
H195 H 0.58866 0.5572 0.74501 0.0
H196 H 0.41961 0.63739 0.37708 0.0
H197 H 0.56194 0.54171 0.34026 0.0
C198 C 0.99554 0.64911 1.03307 0.0
N199 N 1.0111 0.58379 0.16554 0.0
C200 C 0.05264 0.56469 0.18773 0.0
C201 C 0.04811 0.56096 0.23668 0.0
C202 C 1.00035 0.57673 0.2635 0.0
C203 C 0.95925 0.6 0.24094 0.0
C204 C 0.96539 0.60281 0.19121 0.0
Zn205 Zn 0.01807 0.56742 0.09274 0.0
C206 C 0.9168 0.53165 0.05619 0.0
N207 N 0.03906 0.5195 0.94438 0.0
C208 C 0.06339 0.55683 0.92168 0.0
C209 C 0.01647 0.48139 0.91922 0.0
C210 C 0.01576 0.48165 0.86936 0.0
C211 C 0.03623 0.52273 0.84628 0.0
C212 C 0.06145 0.55973 0.87303 0.0
Zn213 Zn 0.02989 0.53518 1.01724 0.0
O214 O 0.99921 0.64421 0.07739 0.0
C215 C 0.13117 0.57235 0.05263 0.0
O216 O 1.00592 0.61088 1.00353 0.0
H217 H 0.99699 0.45221 0.93788 0.0
H218 H 0.08813 0.54831 0.16724 0.0
H219 H 0.08148 0.58675 0.94172 0.0
O220 O 0.10024 0.58194 0.09043 0.0
O221 O 0.11169 0.55422 1.01534 0.0
H222 H 0.93251 0.61714 0.17296 0.0
O223 O 0.05215 0.45895 1.03306 0.0
O224 O 0.03733 0.49056 0.10717 0.0
O225 O 0.94867 0.51717 1.01979 0.0
O226 O 0.93513 0.55326 0.09285 0.0
C227 C 0.05144 0.45293 0.07766 0.0
H228 H 0.08046 0.54276 0.25304 0.0
H229 H 0.92182 0.61258 0.26097 0.0
H230 H 0.99678 0.45192 0.84955 0.0
H231 H 0.07812 0.5918 0.85665 0.0
C232 C 0.15668 0.13536 0.37031 0.0
C233 C 0.12923 0.12678 0.32842 0.0
C234 C 0.05967 0.08421 0.37608 0.0
C235 C 0.08946 0.08898 0.41699 0.0
N236 N 0.17176 0.11118 0.44976 0.0
N237 N 0.0595 0.08459 0.28983 0.0
C238 C 0.13947 0.11246 0.41313 0.0
C239 C 0.08214 0.09873 0.33093 0.0
N240 N 0.19829 0.16693 0.36979 0.0
N241 N 1.00856 0.06824 0.38063 0.0
H242 H 0.07454 0.09441 0.25632 0.0
H243 H 0.02887 0.05942 0.28836 0.0
H244 H 0.99003 0.05799 0.41272 0.0
H245 H 0.98265 0.06968 0.35374 0.0
H246 H 0.21616 0.17933 0.40034 0.0
H247 H 0.212 0.18436 0.33947 0.0
H248 H 0.21093 0.12281 0.44739 0.0
H249 H 0.16136 0.09384 0.48096 0.0
C250 C 0.40987 0.91145 0.87939 0.0
C251 C 0.43903 0.91911 0.83516 0.0
C252 C 0.4966 0.97637 0.87941 0.0
C253 C 0.46358 0.97318 0.92278 0.0
N254 N 0.38373 0.94237 0.96187 0.0
N255 N 0.50624 0.96447 0.79255 0.0
C256 C 0.41901 0.9417 0.92213 0.0
C257 C 0.4814 0.95307 0.83513 0.0
N258 N 0.37394 0.87426 0.88074 0.0
N259 N 0.54407 0.99964 0.88065 0.0
H260 H 0.49733 0.94747 0.75975 0.0
H261 H 0.53277 0.99336 0.78951 0.0
H262 H 0.55729 1.01638 0.91192 0.0
H263 H 0.57274 0.99818 0.8516 0.0
H264 H 0.35538 0.86285 0.91231 0.0
H265 H 0.36644 0.85147 0.85046 0.0
H266 H 0.34747 0.92468 0.96241 0.0
H267 H 0.38818 0.9646 0.99326 0.0
C268 C 0.48876 0.5639 0.88055 0.0
C269 C 0.53189 0.54063 0.90171 0.0
C270 C 0.55549 0.48832 0.82671 0.0
C271 C 0.51729 0.51599 0.80422 0.0
N272 N 0.45129 0.5844 0.80737 0.0
N273 N 0.61384 0.48772 0.88978 0.0
C274 C 0.48464 0.55483 0.83053 0.0
C275 C 0.56746 0.50486 0.87347 0.0
N276 N 0.45184 0.59497 0.9081 0.0
N277 N 0.58027 0.44581 0.80328 0.0
H278 H 0.62662 0.49948 0.92248 0.0
H279 H 0.64328 0.46604 0.8683 0.0
H280 H 0.57235 0.43283 0.76879 0.0
H281 H 0.6041 0.4207 0.81978 0.0
H282 H 0.41617 0.60791 0.89596 0.0
H283 H 0.45536 0.60585 0.94401 0.0
H284 H 0.43145 0.61724 0.82331 0.0
H285 H 0.44602 0.57785 0.77112 0.0
C286 C 0.03805 0.5588 0.38731 0.0
C287 C 1.00673 0.51781 0.39944 0.0
C288 C 0.96343 0.5207 0.3249 0.0
C289 C 0.9934 0.56302 0.31367 0.0
N290 N 0.04805 0.63023 0.33942 0.0
N291 N 0.9323 0.46572 0.38492 0.0
C292 C 0.02694 0.58473 0.34685 0.0
C293 C 0.96663 0.50108 0.37012 0.0
N294 N 0.0796 0.57182 0.4134 0.0
N295 N 0.93511 0.49679 0.29116 0.0
H296 H 0.93549 0.44779 0.41622 0.0
H297 H 0.89834 0.4567 0.36781 0.0
H298 H 0.93133 0.50965 0.25757 0.0
H299 H 0.91843 0.46203 0.2951 0.0
H300 H 0.10722 0.59802 0.4033 0.0
H301 H 0.08877 0.55376 0.44346 0.0
H302 H 0.0688 0.65038 0.3645 0.0
H303 H 0.03987 0.65006 0.31012 0.0
C304 C 0.31826 0.13669 0.20016 0.0
C305 C 0.26775 0.12349 0.18499 0.0
C306 C 0.31324 0.07884 0.11165 0.0
C307 C 0.36374 0.08951 0.12829 0.0
N308 N 0.41436 0.12025 0.19258 0.0
N309 N 0.21703 0.07577 0.12998 0.0
C310 C 0.36619 0.11609 0.17377 0.0
C311 C 0.26527 0.09275 0.1417 0.0
N312 N 0.32053 0.17044 0.23893 0.0
N313 N 0.31117 0.05644 0.06659 0.0
H314 H 0.18138 0.08517 0.15108 0.0
H315 H 0.21268 0.04926 0.10165 0.0
H316 H 0.34542 0.04512 1.0442 0.0
H317 H 0.27591 0.05228 1.05004 0.0
H318 H 0.35573 0.18631 0.24846 0.0
H319 H 0.28656 0.18573 0.25964 0.0
H320 H 0.41853 0.13419 0.22754 0.0
H321 H 0.45008 0.10563 0.17447 0.0
C322 C 0.23846 0.92968 0.59979 0.0
C323 C 0.25292 0.9495 0.64508 0.0
C324 C 0.17112 1.00423 0.65344 0.0
C325 C 0.16101 0.98979 0.60545 0.0
N326 N 0.19322 0.94608 0.52962 0.0
N327 N 0.23907 1.01653 0.70845 0.0
C328 C 0.19694 0.95446 0.57766 0.0
C329 C 0.22094 0.98976 0.67025 0.0
N330 N 0.26302 0.88612 0.57836 0.0
N331 N 0.13254 1.03003 0.68388 0.0
H332 H 0.2771 1.0105 0.71963 0.0
H333 H 0.21895 0.04894 0.72512 0.0
H334 H 0.09435 0.03895 0.67423 0.0
H335 H 0.13647 1.03724 0.72028 0.0
H336 H 0.25027 0.86759 0.5477 0.0
H337 H 0.29213 0.8655 0.59384 0.0
H338 H 0.22164 0.92433 0.50702 0.0
H339 H 0.16533 0.96525 0.51146 0.0
C340 C 0.76841 0.51259 0.08961 0.0
C341 C 0.74743 0.51762 1.04488 0.0
C342 C 0.83508 0.54117 1.01159 0.0
C343 C 0.85811 0.52803 0.05359 0.0
N344 N 0.84682 0.49282 0.13024 0.0
N345 N 0.76517 0.52415 0.95983 0.0
C346 C 0.82481 0.51164 0.0922 0.0
C347 C 0.78195 0.52836 1.00481 0.0
N348 N 0.73451 0.50962 0.12973 0.0
N349 N 0.86278 0.56802 0.97904 0.0
H350 H 0.72746 0.51222 0.95252 0.0
H351 H 0.79093 0.52708 0.92926 0.0
H352 H 0.90025 0.58197 0.98418 0.0
H353 H 0.84558 0.58187 0.94998 0.0
H354 H 0.74742 0.51075 0.16397 0.0
H355 H 0.69298 0.51106 0.12923 0.0
H356 H 0.8245 0.47587 0.15695 0.0
H357 H 0.88791 0.48938 0.13278 0.0
C358 C 0.76163 0.59956 0.49366 0.0
C359 C 0.79564 0.57147 0.52062 0.0
C360 C 0.71766 0.52966 0.55364 0.0
C361 C 0.68317 0.56447 0.53368 0.0
N362 N 0.67568 0.64313 0.49616 0.0
N363 N 0.80274 0.51898 0.58639 0.0
C364 C 0.706 0.60261 0.50696 0.0
C365 C 0.77276 0.53927 0.5538 0.0
N366 N 0.78178 0.62196 0.45442 0.0
N367 N 0.69921 0.48599 0.56984 0.0
H368 H 0.84257 0.52731 0.58959 0.0
H369 H 0.78608 0.49854 0.61361 0.0
H370 H 0.66071 0.47414 0.56574 0.0
H371 H 0.72449 0.45833 0.58135 0.0
H372 H 0.75732 0.63958 0.43195 0.0
H373 H 0.82188 0.61764 0.44119 0.0
H374 H 0.69229 0.67322 0.47952 0.0
H375 H 0.63586 0.65008 0.50938 0.0
C376 C 0.0644 0.3527 0.16686 0.0
C377 C 0.10964 0.32247 0.14639 0.0
C378 C 0.11553 0.37532 0.07795 0.0
C379 C 0.06825 0.40375 0.09694 0.0
N380 N 0.98911 0.4073 0.15222 0.0
N381 N 0.16763 0.29658 0.07545 0.0
C382 C 0.04 0.38847 0.1391 0.0
C383 C 0.13165 0.33114 0.09969 0.0
N384 N 0.04645 0.35006 0.21367 0.0
N385 N 0.14744 0.39172 1.04118 0.0
H386 H 0.17939 0.26315 0.08939 0.0
H387 H 0.18103 0.29837 1.03962 0.0
H388 H 0.13871 0.42395 1.02435 0.0
H389 H 0.18541 0.3757 1.03023 0.0
H390 H 0.01735 0.37523 0.23152 0.0
H391 H 0.06419 0.32638 0.23607 0.0
H392 H 0.96502 0.39446 0.18031 0.0
H393 H 0.96885 0.43117 0.13149 0.0
C394 C 0.58164 0.3729 0.06864 0.0
C395 C 0.60446 0.39543 1.02829 0.0
C396 C 0.58222 0.32387 0.97503 0.0
C397 C 0.56176 0.30007 1.01535 0.0
N398 N 0.54343 0.29872 0.10059 0.0
N399 N 0.63807 0.3885 0.94523 0.0
C400 C 0.56171 0.32381 0.06231 0.0
C401 C 0.6079 0.36987 0.98199 0.0
N402 N 0.57922 0.39862 0.1127 0.0
N403 N 0.57669 0.3025 0.93013 0.0
H404 H 0.6597 0.42087 0.94973 0.0
H405 H 0.64625 0.36943 0.91162 0.0
H406 H 0.5583 0.26843 0.92403 0.0
H407 H 0.5859 0.32044 0.89913 0.0
H408 H 0.5608 0.38592 0.14366 0.0
H409 H 0.59494 0.43404 0.11837 0.0
H410 H 0.54659 0.3111 0.13608 0.0
H411 H 0.52594 0.26396 0.09686 0.0
C412 C 0.95298 0.70195 0.45607 0.0
C413 C 0.95039 0.68141 0.50121 0.0
C414 C 0.97426 0.76162 0.54008 0.0
C415 C 0.97597 0.78251 0.4951 0.0
N416 N 0.97686 0.77199 0.40938 0.0
N417 N 0.96724 0.68706 0.58415 0.0
C418 C 0.96864 0.75234 0.4527 0.0
C419 C 0.96383 0.7099 0.54263 0.0
N420 N 0.93848 0.67378 0.41695 0.0
N421 N 0.98127 0.79175 0.58047 0.0
H422 H 0.95851 0.64946 0.58726 0.0
H423 H 0.98216 0.70392 0.6145 0.0
H424 H 0.99247 0.82897 0.57977 0.0
H425 H 0.97389 0.78091 0.61501 0.0
H426 H 0.93376 0.68789 0.38408 0.0
H427 H 0.92847 0.63622 0.41776 0.0
H428 H 0.97763 0.75083 0.37672 0.0
H429 H 0.98669 0.80927 0.40593 0.0
C430 C 0.45664 0.78774 0.63653 0.0
C431 C 0.45215 0.78745 0.68736 0.0
C432 C 0.4932 0.7014 0.67562 0.0
C433 C 0.48476 0.69734 0.62581 0.0
N434 N 0.44465 0.73915 0.56275 0.0
N435 N 0.45659 0.73566 0.75399 0.0
C436 C 0.46289 0.74127 0.60712 0.0
C437 C 0.46776 0.74191 0.70665 0.0
N438 N 0.45581 0.83243 0.61594 0.0
N439 N 0.52784 0.6685 0.69342 0.0
H440 H 0.43479 0.76239 0.77755 0.0
H441 H 0.46372 0.70133 0.76831 0.0
H442 H 0.55365 0.6436 0.67135 0.0
H443 H 0.5369 0.6718 0.72895 0.0
H444 H 0.46286 0.83456 0.57915 0.0
H445 H 0.45464 0.86709 0.63598 0.0
H446 H 0.42489 0.76984 0.55004 0.0
H447 H 0.44232 0.70599 0.54128 0.0
C448 C 0.92224 0.93235 0.73874 0.0
C449 C 0.90426 0.96632 0.77883 0.0
C450 C 0.91887 1.03629 0.7268 0.0
C451 C 0.94478 1.0027 0.6893 0.0
N452 N 0.98443 0.91862 0.6684 0.0
N453 N 0.89857 0.05278 0.81236 0.0
C454 C 0.95016 0.95064 0.69769 0.0
C455 C 0.90631 1.01897 0.77324 0.0
N456 N 0.9113 0.88257 0.73878 0.0
N457 N 0.9038 0.08421 0.71802 0.0
H458 H 0.89234 0.04192 0.84707 0.0
H459 H 0.90445 0.09112 0.81067 0.0
H460 H 0.90841 0.09754 0.68418 0.0
H461 H 0.88079 0.10856 0.74309 0.0
H462 H 0.91955 0.8573 0.7087 0.0
H463 H 0.88844 0.86796 0.76667 0.0
H464 H 0.99247 0.8814 0.67551 0.0
H465 H 1.01026 0.93054 0.64107 0.0
C466 C 0.57991 0.19143 0.23726 0.0
C467 C 0.59244 0.16536 0.27739 0.0
C468 C 0.58875 0.08549 0.2266 0.0
C469 C 0.56875 0.11118 0.18872 0.0
N470 N 0.52766 0.19039 0.16925 0.0
N471 N 0.59074 0.08536 0.31236 0.0
C472 C 0.55924 0.16468 0.19717 0.0
C473 C 0.59122 0.11171 0.27268 0.0
N474 N 0.58948 0.24136 0.23588 0.0
N475 N 0.60818 1.03678 0.21868 0.0
H476 H 0.58883 0.103 0.34686 0.0
H477 H 0.5856 0.04667 0.31113 0.0
H478 H 0.61244 1.01739 0.18497 0.0
H479 H 0.62675 1.01813 0.24448 0.0
H480 H 0.58516 0.26059 0.20546 0.0
H481 H 0.60746 0.26188 0.26266 0.0
H482 H 0.51624 0.2283 0.17733 0.0
H483 H 0.50646 0.1731 0.14284 0.0
C484 C 0.43253 0.52533 0.24284 0.0
C485 C 0.47741 0.52904 0.20945 0.0
C486 C 0.5145 0.59045 0.26513 0.0
C487 C 0.47615 0.5784 0.30177 0.0
N488 N 0.39989 0.53066 0.32631 0.0
N489 N 0.56416 0.5617 0.19004 0.0
C490 C 0.43457 0.54582 0.29072 0.0
C491 C 0.51904 0.56113 0.22068 0.0
N492 N 0.38877 0.50076 0.22943 0.0
N493 N 0.54724 0.62926 0.27353 0.0
H494 H 0.56888 0.54084 0.15695 0.0
H495 H 0.59818 0.58027 0.19881 0.0
H496 H 0.54413 0.65128 0.30603 0.0
H497 H 0.5732 0.64256 0.24702 0.0
H498 H 0.35274 0.50179 0.25077 0.0
H499 H 0.38679 0.48286 0.19549 0.0
H500 H 0.3736 0.50188 0.32101 0.0
H501 H 0.39965 0.54397 0.36201 0.0
C502 C 0.07296 0.57054 0.72739 0.0
C503 C 0.02303 0.57481 0.70766 0.0
C504 C 0.97992 0.53847 0.77759 0.0
C505 C 0.03089 0.53012 0.79489 0.0
N506 N 0.12659 0.5234 0.77732 0.0
N507 N 0.9313 0.55089 0.70837 0.0
C508 C 0.07763 0.54062 0.76628 0.0
C509 C 0.97727 0.55465 0.73085 0.0
N510 N 0.11457 0.59858 0.71243 0.0
N511 N 0.93401 0.53488 0.80652 0.0
H512 H 0.92806 0.56199 0.67397 0.0
H513 H 0.89842 0.53217 0.722 0.0
H514 H 0.93344 0.52508 0.84159 0.0
H515 H 0.89644 0.54614 0.79698 0.0
H516 H 0.14983 0.60009 0.72945 0.0
H517 H 0.11151 0.62493 0.68722 0.0
H518 H 0.16161 0.52752 0.75564 0.0
H519 H 0.13096 0.50048 0.8053 0.0
C520 C 0.71825 0.9334 0.91997 0.0
C521 C 0.76384 0.96331 0.92146 0.0
C522 C 0.71602 1.01968 0.98616 0.0
C523 C 0.66945 0.99141 0.98279 0.0
N524 N 0.62324 0.92621 0.94105 0.0
N525 N 0.80444 0.03828 0.95163 0.0
C526 C 0.66983 0.94942 0.94834 0.0
C527 C 0.76206 1.00758 0.9532 0.0
N528 N 0.72152 0.88902 0.89191 0.0
N529 N 0.71693 0.05683 1.02232 0.0
H530 H 0.83936 1.02981 0.92929 0.0
H531 H 0.80376 0.07383 0.96976 0.0
H532 H 0.68439 0.06609 1.04739 0.0
H533 H 0.75103 0.07568 1.03017 0.0
H534 H 0.69253 0.8622 0.89373 0.0
H535 H 0.75491 0.87754 0.86851 0.0
H536 H 0.61913 0.89968 0.91266 0.0
H537 H 0.58717 0.93619 0.9612 0.0
C538 C 0.77565 0.10716 0.49538 0.0
C539 C 0.78055 0.1485 0.46654 0.0
C540 C 0.87805 0.14413 0.47099 0.0
C541 C 0.87251 0.1059 0.5034 0.0
N542 N 0.81557 0.0553 0.55143 0.0
N543 N 0.83517 0.21114 0.43221 0.0
C544 C 0.82116 0.08842 0.5168 0.0
C545 C 0.83148 0.16811 0.45553 0.0
N546 N 0.72777 0.08465 0.50094 0.0
N547 N 0.92797 0.15648 0.45374 0.0
H548 H 0.80217 0.22972 0.42023 0.0
H549 H 0.8701 0.23074 0.42805 0.0
H550 H 0.96301 0.14042 0.46454 0.0
H551 H 0.93485 0.17952 0.42585 0.0
H552 H 0.72278 0.05114 0.51712 0.0
H553 H 0.69376 0.09704 0.48557 0.0
H554 H 0.77871 0.04535 0.56676 0.0
H555 H 0.84787 0.04073 0.56781 0.0
C556 C 0.25661 0.6217 0.09971 0.0
C557 C 0.29737 0.59046 0.07319 0.0
C558 C 0.22994 0.54827 1.02877 0.0
C559 C 0.18929 0.5818 0.05346 0.0
N560 N 0.16961 0.66266 0.0977 0.0
N561 N 0.32403 0.53648 1.00187 0.0
C562 C 0.20446 0.62252 0.0842 0.0
C563 C 0.28442 0.55786 1.03416 0.0
N564 N 0.26647 0.6486 0.14106 0.0
N565 N 0.21763 0.50559 1.00271 0.0
H566 H 0.36431 0.54383 1.00405 0.0
H567 H 0.31627 0.51613 0.9703 0.0
H568 H 0.17903 0.49506 0.99786 0.0
H569 H 0.24641 0.47776 0.98924 0.0
H570 H 0.23628 0.66814 0.16357 0.0
H571 H 0.30331 0.64713 0.1555 0.0
H572 H 0.18052 0.69485 0.11731 0.0
H573 H 0.13241 0.66646 0.08409 0.0
C574 C 0.26569 0.53969 0.61906 0.0
C575 C 0.23633 0.52298 0.58048 0.0
C576 C 0.31936 0.51105 0.52785 0.0
C577 C 0.34788 0.53238 0.56536 0.0
N578 N 0.34581 0.57817 0.64301 0.0
N579 N 0.23313 0.50018 0.49638 0.0
C580 C 0.32038 0.54991 0.60998 0.0
C581 C 0.26256 0.51095 0.53424 0.0
N582 N 0.24186 0.54406 0.66469 0.0
N583 N 0.34655 0.4887 0.48714 0.0
H584 H 0.1915 0.49928 0.49998 0.0
H585 H 0.24952 0.4963 0.46103 0.0
H586 H 0.38817 0.48677 0.48156 0.0
H587 H 0.32817 0.46803 0.46074 0.0
H588 H 0.26286 0.55099 0.6947 0.0
H589 H 0.20208 0.53581 0.6729 0.0
H590 H 0.32604 0.59604 0.6741 0.0
H591 H 0.38535 0.58837 0.63714 0.0
C592 C 0.90967 0.76597 1.00998 0.0
C593 C 0.93379 0.77716 0.96466 0.0
C594 C 1.00673 0.71516 0.97389 0.0
C595 C 0.97747 0.69771 1.01437 0.0
N596 N 0.89572 0.7029 0.06664 0.0
N597 N 1.00223 0.75524 0.9 0.0
C598 C 0.92774 0.72248 1.03167 0.0
C599 C 0.98192 0.75031 0.94581 0.0
N600 N 0.86976 0.79743 1.03286 0.0
N601 N 0.05868 0.69855 0.96252 0.0
H602 H 0.98439 0.7784 0.87721 0.0
H603 H 0.03383 0.73236 0.88299 0.0
H604 H 0.07853 0.67434 0.98329 0.0
H605 H 0.08353 0.71311 0.93594 0.0
H606 H 0.8542 0.79382 0.06783 0.0
H607 H 0.85637 0.83033 1.01894 0.0
H608 H 0.85646 0.71612 0.07642 0.0
H609 H 0.90625 0.67062 0.08292 0.0
C610 C 0.45387 0.71139 0.15466 0.0
C611 C 0.46063 0.68178 0.11033 0.0
C612 C 0.50446 0.75005 0.07169 0.0
C613 C 0.49475 0.78076 0.11523 0.0
N614 N 0.47267 0.78895 0.20023 0.0
N615 N 0.50308 0.66673 1.03047 0.0
C616 C 0.47375 0.76063 0.15757 0.0
C617 C 0.48972 0.69914 0.07006 0.0
N618 N 0.42644 0.69309 0.19317 0.0
N619 N 0.52545 0.77045 1.03152 0.0
H620 H 0.49206 0.62936 1.02832 0.0
H621 H 0.52835 0.67533 1.00133 0.0
H622 H 0.53914 0.80693 1.03202 0.0
H623 H 0.52749 0.75226 0.99736 0.0
H624 H 0.41489 0.71442 0.22509 0.0
H625 H 0.41302 0.65651 0.19267 0.0
H626 H 0.46198 0.77546 0.23321 0.0
H627 H 0.48664 0.82533 0.20296 0.0
C628 C 0.06325 0.38595 0.57284 0.0
C629 C 0.08467 0.41186 0.61219 0.0
C630 C 0.07854 0.33716 0.65746 0.0
C631 C 0.05697 0.31135 0.61812 0.0
N632 N 0.01804 0.31289 0.54282 0.0
N633 N 0.10339 0.41699 0.69486 0.0
C634 C 0.04571 0.33645 0.57725 0.0
C635 C 0.08926 0.38895 0.65556 0.0
N636 N 0.06186 0.40793 0.53063 0.0
N637 N 0.09049 0.31159 0.69573 0.0
H638 H 0.11264 0.45474 0.69418 0.0
H639 H 0.10221 0.4042 0.7289 0.0
H640 H 0.08118 0.27412 0.69892 0.0
H641 H 0.11196 0.32646 0.72312 0.0
H642 H 0.0527 0.38895 0.49889 0.0
H643 H 0.07335 0.44462 0.52636 0.0
H644 H 1.00364 0.33088 0.51466 0.0
H645 H 1.00544 0.27619 0.54441 0.0
C646 C 0.60337 0.35398 0.4056 0.0
C647 C 0.57894 0.30826 0.41546 0.0
C648 C 0.52158 0.35528 0.48159 0.0
C649 C 0.55012 0.39972 0.47481 0.0
N650 N 0.62566 0.4377 0.4355 0.0
N651 N 0.51819 0.26423 0.46627 0.0
C652 C 0.5928 0.39809 0.43792 0.0
C653 C 0.53885 0.30869 0.45441 0.0
N654 N 0.63677 0.35536 0.3649 0.0
N655 N 0.47675 0.35791 0.51284 0.0
H656 H 0.52817 0.23018 0.44612 0.0
H657 H 0.49374 0.26058 0.49741 0.0
H658 H 0.46306 0.391 0.53306 0.0
H659 H 0.45082 0.32858 0.51595 0.0
H660 H 0.65142 0.38853 0.35277 0.0
H661 H 0.64577 0.32389 0.34078 0.0
H662 H 0.66066 0.43694 0.41282 0.0
H663 H 0.62126 0.46946 0.45974 0.0
loop_
_geom_bond_atom_site_label_1
_geom_bond_atom_site_label_2
_geom_bond_distance
_geom_bond_site_symmetry_2
_ccdc_geom_bond_type
H0 C5 0.930 . S
H1 C8 0.930 . S
H2 C10 0.930 . S
H3 C4 1.016 . S
C4 H3 1.016 . S
C4 N11 1.286 . S
C5 H0 0.930 . S
C5 C6 1.397 . S
C5 C7 1.361 . S
C6 C5 1.397 . S
C6 C10 1.390 . S
C7 C5 1.361 . S
C7 C8 1.393 . S
C7 N11 1.413 . S
C8 H1 0.930 . S
C8 C7 1.393 . S
C8 C9 1.399 . S
C9 C8 1.399 . S
C9 C10 1.381 . S
C10 H2 0.930 . S
C10 C6 1.390 . S
C10 C9 1.381 . S
N11 C4 1.286 . S
N11 C7 1.413 . S
H12 C17 0.930 . S
H13 C20 0.930 . S
H14 C22 0.930 . S
H15 C16 1.016 . S
C16 H15 1.016 . S
C16 N23 1.286 . S
C17 H12 0.930 . S
C17 C18 1.397 . S
C17 C19 1.361 . S
C18 C17 1.397 . S
C18 C22 1.390 . S
C19 C17 1.361 . S
C19 C20 1.393 . S
C19 N23 1.413 . S
C20 H13 0.930 . S
C20 C19 1.393 . S
C20 C21 1.399 . S
C21 C20 1.399 . S
C21 C22 1.381 . S
C22 H14 0.930 . S
C22 C18 1.390 . S
C22 C21 1.381 . S
N23 C16 1.286 . S
N23 C19 1.413 . S
H24 C29 0.930 . S
H25 C32 0.930 . S
H26 C34 0.930 . S
H27 C28 1.016 . S
C28 H27 1.016 . S
C28 N35 1.286 . S
C29 H24 0.930 . S
C29 C30 1.397 . S
C29 C31 1.361 . S
C30 C29 1.397 . S
C30 C34 1.390 . S
C31 C29 1.361 . S
C31 C32 1.393 . S
C31 N35 1.413 . S
C32 H25 0.930 . S
C32 C31 1.393 . S
C32 C33 1.399 . S
C33 C32 1.399 . S
C33 C34 1.381 . S
C34 H26 0.930 . S
C34 C30 1.390 . S
C34 C33 1.381 . S
N35 C28 1.286 . S
N35 C31 1.413 . S
H36 C41 0.930 . S
H37 C44 0.930 . S
H38 C46 0.930 . S
H39 C40 1.016 . S
C40 H39 1.016 . S
C40 N47 1.286 . S
C41 H36 0.930 . S
C41 C42 1.397 . S
C41 C43 1.361 . S
C42 C41 1.397 . S
C42 C46 1.390 . S
C43 C41 1.361 . S
C43 C44 1.393 . S
C43 N47 1.413 . S
C44 H37 0.930 . S
C44 C43 1.393 . S
C44 C45 1.399 . S
C45 C44 1.399 . S
C45 C46 1.381 . S
C46 H38 0.930 . S
C46 C42 1.390 . S
C46 C45 1.381 . S
N47 C40 1.286 . S
N47 C43 1.413 . S
H48 C53 0.930 . S
H49 C56 0.930 . S
H50 C58 0.930 . S
H51 C52 1.016 . S
C52 H51 1.016 . S
C52 N59 1.286 . S
C53 H48 0.930 . S
C53 C54 1.397 . S
C53 C55 1.361 . S
C54 C53 1.397 . S
C54 C58 1.390 . S
C55 C53 1.361 . S
C55 C56 1.393 . S
C55 N59 1.413 . S
C56 H49 0.930 . S
C56 C55 1.393 . S
C56 C57 1.399 . S
C57 C56 1.399 . S
C57 C58 1.381 . S
C58 H50 0.930 . S
C58 C54 1.390 . S
C58 C57 1.381 . S
N59 C52 1.286 . S
N59 C55 1.413 . S
H60 C65 0.930 . S
H61 C68 0.930 . S
H62 C70 0.930 . S
H63 C64 1.016 . S
C64 H63 1.016 . S
C64 N71 1.286 . S
C65 H60 0.930 . S
C65 C66 1.397 . S
C65 C67 1.361 . S
C66 C65 1.397 . S
C66 C70 1.390 . S
C67 C65 1.361 . S
C67 C68 1.393 . S
C67 N71 1.413 . S
C68 H61 0.930 . S
C68 C67 1.393 . S
C68 C69 1.399 . S
C69 C68 1.399 . S
C69 C70 1.381 . S
C70 H62 0.930 . S
C70 C66 1.390 . S
C70 C69 1.381 . S
N71 C64 1.286 . S
N71 C67 1.413 . S
H72 C77 0.930 . S
H73 C80 0.930 . S
H74 C82 0.930 . S
H75 C76 1.016 . S
C76 H75 1.016 . S
C76 N83 1.286 . S
C77 H72 0.930 . S
C77 C78 1.397 . S
C77 C79 1.361 . S
C78 C77 1.397 . S
C78 C82 1.390 . S
C79 C77 1.361 . S
C79 C80 1.393 . S
C79 N83 1.413 . S
C80 H73 0.930 . S
C80 C79 1.393 . S
C80 C81 1.399 . S
C81 C80 1.399 . S
C81 C82 1.381 . S
C82 H74 0.930 . S
C82 C78 1.390 . S
C82 C81 1.381 . S
N83 C76 1.286 . S
N83 C79 1.413 . S
H84 C89 0.930 . S
H85 C92 0.930 . S
H86 C94 0.930 . S
H87 C88 1.016 . S
C88 H87 1.016 . S
C88 N95 1.286 . S
C89 H84 0.930 . S
C89 C90 1.397 . S
C89 C91 1.361 . S
C90 C89 1.397 . S
C90 C94 1.390 . S
C91 C89 1.361 . S
C91 C92 1.393 . S
C91 N95 1.413 . S
C92 H85 0.930 . S
C92 C91 1.393 . S
C92 C93 1.399 . S
C93 C92 1.399 . S
C93 C94 1.381 . S
C94 H86 0.930 . S
C94 C90 1.390 . S
C94 C93 1.381 . S
N95 C88 1.286 . S
N95 C91 1.413 . S
C96 O112 1.251 . S
C96 O114 1.254 1_545 S
N97 C98 1.333 . S
N97 C102 1.307 . S
N97 Zn103 2.020 . S
C98 N97 1.333 . S
C98 C99 1.379 . S
C98 H116 0.952 . S
C99 C98 1.379 . S
C99 C100 1.390 . S
C99 H126 0.949 . S
C100 C99 1.390 . S
C100 C101 1.357 . S
C101 C100 1.357 . S
C101 C102 1.370 . S
C101 H127 0.950 . S
C102 N97 1.307 . S
C102 C101 1.370 . S
C102 H120 0.948 1_455 S
Zn103 N97 2.020 . S
Zn103 O112 2.039 . S
Zn103 O118 2.034 . S
Zn103 O122 2.025 1_455 S
Zn103 O124 2.024 1_455 S
C104 O123 1.246 1_545 S
C104 O124 1.249 . S
N105 C106 1.307 . S
N105 C107 1.333 . S
N105 Zn111 2.020 . S
C106 N105 1.307 . S
C106 C110 1.370 . S
C106 H117 0.948 1_655 S
C107 N105 1.333 . S
C107 C108 1.379 . S
C107 H115 0.952 . S
C108 C107 1.379 . S
C108 C109 1.390 . S
C108 H128 0.949 . S
C109 C108 1.390 . S
C109 C110 1.357 . S
C110 C106 1.370 . S
C110 C109 1.357 . S
C110 H129 0.950 . S
Zn111 N105 2.020 . S
Zn111 O114 2.025 1_655 S
Zn111 O119 2.024 1_655 S
Zn111 O121 2.039 . S
Zn111 O123 2.034 . S
O112 C96 1.251 . S
O112 Zn103 2.039 . S
C113 O118 1.246 1_565 S
C113 O119 1.249 . S
O114 C96 1.254 1_565 S
O114 Zn111 2.025 1_455 S
H115 C107 0.952 . S
H116 C98 0.952 . S
H117 C106 0.948 1_455 S
O118 Zn103 2.034 . S
O118 C113 1.246 1_545 S
O119 Zn111 2.024 1_455 S
O119 C113 1.249 . S
H120 C102 0.948 1_655 S
O121 Zn111 2.039 . S
O121 C125 1.251 . S
O122 Zn103 2.025 1_655 S
O122 C125 1.254 1_545 S
O123 C104 1.246 1_565 S
O123 Zn111 2.034 . S
O124 Zn103 2.024 1_655 S
O124 C104 1.249 . S
C125 O121 1.251 . S
C125 O122 1.254 1_565 S
H126 C99 0.949 . S
H127 C101 0.950 . S
H128 C108 0.949 . S
H129 C110 0.950 . S
C130 O146 1.251 1_565 S
C130 O148 1.254 . S
N131 C132 1.333 . S
N131 C136 1.307 . S
N131 Zn137 2.020 . S
C132 N131 1.333 . S
C132 C133 1.379 . S
C132 H150 0.952 . S
C133 C132 1.379 . S
C133 C134 1.390 . S
C133 H160 0.949 . S
C134 C133 1.390 . S
C134 C135 1.357 . S
C135 C134 1.357 . S
C135 C136 1.370 . S
C135 H161 0.950 . S
C136 N131 1.307 . S
C136 C135 1.370 . S
C136 H154 0.948 . S
Zn137 N131 2.020 . S
Zn137 O146 2.039 . S
Zn137 O152 2.034 1_556 S
Zn137 O156 2.025 1_556 S
Zn137 O158 2.024 . S
C138 O157 1.246 . S
C138 O158 1.249 1_565 S
N139 C140 1.307 . S
N139 C141 1.333 . S
N139 Zn145 2.020 . S
C140 N139 1.307 . S
C140 C144 1.370 . S
C140 H151 0.948 . S
C141 N139 1.333 . S
C141 C142 1.379 . S
C141 H149 0.952 . S
C142 C141 1.379 . S
C142 C143 1.390 . S
C142 H162 0.949 . S
C143 C142 1.390 . S
C143 C144 1.357 . S
C144 C140 1.370 . S
C144 C143 1.357 . S
C144 H163 0.950 . S
Zn145 N139 2.020 . S
Zn145 O148 2.025 1_554 S
Zn145 O153 2.024 . S
Zn145 O155 2.039 . S
Zn145 O157 2.034 1_554 S
O146 C130 1.251 1_545 S
O146 Zn137 2.039 . S
C147 O152 1.246 . S
C147 O153 1.249 1_545 S
O148 C130 1.254 . S
O148 Zn145 2.025 1_556 S
H149 C141 0.952 . S
H150 C132 0.952 . S
H151 C140 0.948 . S
O152 Zn137 2.034 1_554 S
O152 C147 1.246 . S
O153 Zn145 2.024 . S
O153 C147 1.249 1_565 S
H154 C136 0.948 . S
O155 Zn145 2.039 . S
O155 C159 1.251 1_565 S
O156 Zn137 2.025 1_554 S
O156 C159 1.254 . S
O157 C138 1.246 . S
O157 Zn145 2.034 1_556 S
O158 Zn137 2.024 . S
O158 C138 1.249 1_545 S
C159 O155 1.251 1_545 S
C159 O156 1.254 . S
H160 C133 0.949 . S
H161 C135 0.950 . S
H162 C142 0.949 . S
H163 C144 0.950 . S
C164 O180 1.251 . S
C164 O182 1.254 . S
N165 C166 1.333 . S
N165 C170 1.307 . S
N165 Zn171 2.020 . S
C166 N165 1.333 . S
C166 C167 1.379 . S
C166 H184 0.952 . S
C167 C166 1.379 . S
C167 C168 1.390 . S
C167 H194 0.949 . S
C168 C167 1.390 . S
C168 C169 1.357 . S
C169 C168 1.357 . S
C169 C170 1.370 . S
C169 H195 0.950 . S
C170 N165 1.307 . S
C170 C169 1.370 . S
C170 H188 0.948 . S
Zn171 N165 2.020 . S
Zn171 O180 2.039 . S
Zn171 O186 2.034 . S
Zn171 O190 2.025 . S
Zn171 O192 2.024 . S
C172 O191 1.246 . S
C172 O192 1.249 . S
N173 C174 1.307 . S
N173 C175 1.333 . S
N173 Zn179 2.020 . S
C174 N173 1.307 . S
C174 C178 1.370 . S
C174 H185 0.948 . S
C175 N173 1.333 . S
C175 C176 1.379 . S
C175 H183 0.952 . S
C176 C175 1.379 . S
C176 C177 1.390 . S
C176 H196 0.949 . S
C177 C176 1.390 . S
C177 C178 1.357 . S
C178 C174 1.370 . S
C178 C177 1.357 . S
C178 H197 0.950 . S
Zn179 N173 2.020 . S
Zn179 O182 2.025 . S
Zn179 O187 2.024 . S
Zn179 O189 2.039 . S
Zn179 O191 2.034 . S
O180 C164 1.251 . S
O180 Zn171 2.039 . S
C181 O186 1.246 . S
C181 O187 1.249 . S
O182 C164 1.254 . S
O182 Zn179 2.025 . S
H183 C175 0.952 . S
H184 C166 0.952 . S
H185 C174 0.948 . S
O186 Zn171 2.034 . S
O186 C181 1.246 . S
O187 Zn179 2.024 . S
O187 C181 1.249 . S
H188 C170 0.948 . S
O189 Zn179 2.039 . S
O189 C193 1.251 . S
O190 Zn171 2.025 . S
O190 C193 1.254 . S
O191 C172 1.246 . S
O191 Zn179 2.034 . S
O192 Zn171 2.024 . S
O192 C172 1.249 . S
C193 O189 1.251 . S
C193 O190 1.254 . S
H194 C167 0.949 . S
H195 C169 0.950 . S
H196 C176 0.949 . S
H197 C178 0.950 . S
C198 O214 1.251 1_556 S
C198 O216 1.254 1_655 S
N199 C200 1.333 . S
N199 C204 1.307 . S
N199 Zn205 2.020 . S
C200 N199 1.333 . S
C200 C201 1.379 . S
C200 H218 0.952 . S
C201 C200 1.379 . S
C201 C202 1.390 . S
C201 H228 0.949 . S
C202 C201 1.390 . S
C202 C203 1.357 . S
C203 C202 1.357 . S
C203 C204 1.370 . S
C203 H229 0.950 . S
C204 N199 1.307 . S
C204 C203 1.370 . S
C204 H222 0.948 . S
Zn205 N199 2.020 . S
Zn205 O214 2.039 . S
Zn205 O220 2.034 1_655 S
Zn205 O224 2.025 1_655 S
Zn205 O226 2.024 . S
C206 O225 1.246 . S
C206 O226 1.249 1_556 S
N207 C208 1.307 . S
N207 C209 1.333 . S
N207 Zn213 2.020 . S
C208 N207 1.307 . S
C208 C212 1.370 . S
C208 H219 0.948 . S
C209 N207 1.333 . S
C209 C210 1.379 . S
C209 H217 0.952 . S
C210 C209 1.379 . S
C210 C211 1.390 . S
C210 H230 0.949 . S
C211 C210 1.390 . S
C211 C212 1.357 . S
C212 C208 1.370 . S
C212 C211 1.357 . S
C212 H231 0.950 . S
Zn213 N207 2.020 . S
Zn213 O216 2.025 . S
Zn213 O221 2.024 . S
Zn213 O223 2.039 . S
Zn213 O225 2.034 1_455 S
O214 C198 1.251 1_554 S
O214 Zn205 2.039 . S
C215 O220 1.246 . S
C215 O221 1.249 1_554 S
O216 C198 1.254 1_455 S
O216 Zn213 2.025 . S
H217 C209 0.952 . S
H218 C200 0.952 . S
H219 C208 0.948 . S
O220 Zn205 2.034 1_455 S
O220 C215 1.246 . S
O221 Zn213 2.024 . S
O221 C215 1.249 1_556 S
H222 C204 0.948 . S
O223 Zn213 2.039 . S
O223 C227 1.251 1_556 S
O224 Zn205 2.025 1_455 S
O224 C227 1.254 . S
O225 C206 1.246 . S
O225 Zn213 2.034 1_655 S
O226 Zn205 2.024 . S
O226 C206 1.249 1_554 S
C227 O223 1.251 1_554 S
C227 O224 1.254 . S
H228 C201 0.949 . S
H229 C203 0.950 . S
H230 C210 0.949 . S
H231 C212 0.950 . S
C232 C233 1.363 . S
C232 C238 1.379 . S
C232 N240 1.356 . S
C233 C232 1.363 . S
C233 C239 1.363 . S
C234 C235 1.363 . S
C234 C239 1.379 . S
C234 N241 1.356 1_545 S
C235 C234 1.363 . S
C235 C238 1.363 . S
N236 C238 1.356 . S
N236 H248 0.984 . S
N236 H249 0.985 . S
N237 C239 1.356 . S
N237 H242 0.984 . S
N237 H243 0.985 1_545 S
C238 C232 1.379 . S
C238 C235 1.363 . S
C238 N236 1.356 . S
C239 C233 1.363 . S
C239 C234 1.379 . S
C239 N237 1.356 . S
N240 C232 1.356 . S
N240 H246 0.984 . S
N240 H247 0.984 . S
N241 C234 1.356 1_565 S
N241 H244 0.984 . S
N241 H245 0.985 1_455 S
H242 N237 0.984 . S
H243 N237 0.985 1_565 S
H244 N241 0.984 . S
H245 N241 0.985 1_655 S
H246 N240 0.984 . S
H247 N240 0.984 . S
H248 N236 0.984 . S
H249 N236 0.985 . S
C250 C251 1.363 . S
C250 C256 1.379 . S
C250 N258 1.356 . S
C251 C250 1.363 . S
C251 C257 1.363 . S
C252 C253 1.363 . S
C252 C257 1.379 . S
C252 N259 1.356 1_565 S
C253 C252 1.363 . S
C253 C256 1.363 . S
N254 C256 1.356 . S
N254 H266 0.984 . S
N254 H267 0.985 . S
N255 C257 1.356 . S
N255 H260 0.984 . S
N255 H261 0.985 1_565 S
C256 C250 1.379 . S
C256 C253 1.363 . S
C256 N254 1.356 . S
C257 C251 1.363 . S
C257 C252 1.379 . S
C257 N255 1.356 . S
N258 C250 1.356 . S
N258 H264 0.984 . S
N258 H265 0.984 . S
N259 C252 1.356 1_545 S
N259 H262 0.984 . S
N259 H263 0.985 . S
H260 N255 0.984 . S
H261 N255 0.985 1_545 S
H262 N259 0.984 . S
H263 N259 0.985 . S
H264 N258 0.984 . S
H265 N258 0.984 . S
H266 N254 0.984 . S
H267 N254 0.985 . S
C268 C269 1.363 . S
C268 C274 1.379 . S
C268 N276 1.356 . S
C269 C268 1.363 . S
C269 C275 1.363 . S
C270 C271 1.363 . S
C270 C275 1.379 . S
C270 N277 1.356 . S
C271 C270 1.363 . S
C271 C274 1.363 . S
N272 C274 1.356 . S
N272 H284 0.984 . S
N272 H285 0.985 . S
N273 C275 1.356 . S
N273 H278 0.984 . S
N273 H279 0.985 . S
C274 C268 1.379 . S
C274 C271 1.363 . S
C274 N272 1.356 . S
C275 C269 1.363 . S
C275 C270 1.379 . S
C275 N273 1.356 . S
N276 C268 1.356 . S
N276 H282 0.984 . S
N276 H283 0.984 . S
N277 C270 1.356 . S
N277 H280 0.984 . S
N277 H281 0.985 . S
H278 N273 0.984 . S
H279 N273 0.985 . S
H280 N277 0.984 . S
H281 N277 0.985 . S
H282 N276 0.984 . S
H283 N276 0.984 . S
H284 N272 0.984 . S
H285 N272 0.985 . S
C286 C287 1.363 . S
C286 C292 1.379 . S
C286 N294 1.356 . S
C287 C286 1.363 . S
C287 C293 1.363 . S
C288 C289 1.363 . S
C288 C293 1.379 . S
C288 N295 1.356 . S
C289 C288 1.363 . S
C289 C292 1.363 . S
N290 C292 1.356 . S
N290 H302 0.984 . S
N290 H303 0.985 . S
N291 C293 1.356 . S
N291 H296 0.984 . S
N291 H297 0.985 . S
C292 C286 1.379 . S
C292 C289 1.363 . S
C292 N290 1.356 . S
C293 C287 1.363 . S
C293 C288 1.379 . S
C293 N291 1.356 . S
N294 C286 1.356 . S
N294 H300 0.984 . S
N294 H301 0.984 . S
N295 C288 1.356 . S
N295 H298 0.984 . S
N295 H299 0.985 . S
H296 N291 0.984 . S
H297 N291 0.985 . S
H298 N295 0.984 . S
H299 N295 0.985 . S
H300 N294 0.984 . S
H301 N294 0.984 . S
H302 N290 0.984 . S
H303 N290 0.985 . S
C304 C305 1.363 . S
C304 C310 1.379 . S
C304 N312 1.356 . S
C305 C304 1.363 . S
C305 C311 1.363 . S
C306 C307 1.363 . S
C306 C311 1.379 . S
C306 N313 1.356 . S
C307 C306 1.363 . S
C307 C310 1.363 . S
N308 C310 1.356 . S
N308 H320 0.984 1_545 S
N308 H321 0.985 . S
N309 C311 1.356 . S
N309 H314 0.984 . S
N309 H315 0.985 . S
C310 C304 1.379 . S
C310 C307 1.363 . S
C310 N308 1.356 . S
C311 C305 1.363 . S
C311 C306 1.379 . S
C311 N309 1.356 . S
N312 C304 1.356 . S
N312 H318 0.984 . S
N312 H319 0.984 . S
N313 C306 1.356 . S
N313 H316 0.984 . S
N313 H317 0.985 1_554 S
H314 N309 0.984 . S
H315 N309 0.985 . S
H316 N313 0.984 . S
H317 N313 0.985 1_556 S
H318 N312 0.984 . S
H319 N312 0.984 . S
H320 N308 0.984 1_565 S
H321 N308 0.985 . S
C322 C323 1.363 . S
C322 C328 1.379 . S
C322 N330 1.356 . S
C323 C322 1.363 . S
C323 C329 1.363 . S
C324 C325 1.363 . S
C324 C329 1.379 . S
C324 N331 1.356 1_565 S
C325 C324 1.363 . S
C325 C328 1.363 . S
N326 C328 1.356 . S
N326 H338 0.984 . S
N326 H339 0.985 . S
N327 C329 1.356 . S
N327 H332 0.984 . S
N327 H333 0.985 1_565 S
C328 C322 1.379 . S
C328 C325 1.363 . S
C328 N326 1.356 . S
C329 C323 1.363 . S
C329 C324 1.379 . S
C329 N327 1.356 . S
N330 C322 1.356 . S
N330 H336 0.984 . S
N330 H337 0.984 . S
N331 C324 1.356 1_545 S
N331 H334 0.984 . S
N331 H335 0.985 . S
H332 N327 0.984 . S
H333 N327 0.985 1_545 S
H334 N331 0.984 . S
H335 N331 0.985 . S
H336 N330 0.984 . S
H337 N330 0.984 . S
H338 N326 0.984 . S
H339 N326 0.985 . S
C340 C341 1.363 . S
C340 C346 1.379 . S
C340 N348 1.356 1_556 S
C341 C340 1.363 . S
C341 C347 1.363 . S
C342 C343 1.363 . S
C342 C347 1.379 . S
C342 N349 1.356 . S
C343 C342 1.363 . S
C343 C346 1.363 . S
N344 C346 1.356 1_554 S
N344 H356 0.984 . S
N344 H357 0.985 . S
N345 C347 1.356 . S
N345 H350 0.984 . S
N345 H351 0.985 . S
C346 C340 1.379 . S
C346 C343 1.363 . S
C346 N344 1.356 1_556 S
C347 C341 1.363 . S
C347 C342 1.379 . S
C347 N345 1.356 . S
N348 C340 1.356 1_554 S
N348 H354 0.984 . S
N348 H355 0.984 1_554 S
N349 C342 1.356 . S
N349 H352 0.984 . S
N349 H353 0.985 . S
H350 N345 0.984 . S
H351 N345 0.985 . S
H352 N349 0.984 . S
H353 N349 0.985 . S
H354 N348 0.984 . S
H355 N348 0.984 1_556 S
H356 N344 0.984 . S
H357 N344 0.985 . S
C358 C359 1.363 . S
C358 C364 1.379 . S
C358 N366 1.356 . S
C359 C358 1.363 . S
C359 C365 1.363 . S
C360 C361 1.363 . S
C360 C365 1.379 . S
C360 N367 1.356 . S
C361 C360 1.363 . S
C361 C364 1.363 . S
N362 C364 1.356 . S
N362 H374 0.984 . S
N362 H375 0.985 . S
N363 C365 1.356 . S
N363 H368 0.984 . S
N363 H369 0.985 . S
C364 C358 1.379 . S
C364 C361 1.363 . S
C364 N362 1.356 . S
C365 C359 1.363 . S
C365 C360 1.379 . S
C365 N363 1.356 . S
N366 C358 1.356 . S
N366 H372 0.984 . S
N366 H373 0.984 . S
N367 C360 1.356 . S
N367 H370 0.984 . S
N367 H371 0.985 . S
H368 N363 0.984 . S
H369 N363 0.985 . S
H370 N367 0.984 . S
H371 N367 0.985 . S
H372 N366 0.984 . S
H373 N366 0.984 . S
H374 N362 0.984 . S
H375 N362 0.985 . S
C376 C377 1.363 . S
C376 C382 1.379 . S
C376 N384 1.356 . S
C377 C376 1.363 . S
C377 C383 1.363 . S
C378 C379 1.363 . S
C378 C383 1.379 . S
C378 N385 1.356 1_554 S
C379 C378 1.363 . S
C379 C382 1.363 . S
N380 C382 1.356 . S
N380 H392 0.985 . S
N380 H393 0.985 . S
N381 C383 1.356 . S
N381 H386 0.984 . S
N381 H387 0.985 1_554 S
C382 C376 1.379 . S
C382 C379 1.363 . S
C382 N380 1.356 . S
C383 C377 1.363 . S
C383 C378 1.379 . S
C383 N381 1.356 . S
N384 C376 1.356 . S
N384 H390 0.984 . S
N384 H391 0.984 . S
N385 C378 1.356 1_556 S
N385 H388 0.984 . S
N385 H389 0.985 . S
H386 N381 0.984 . S
H387 N381 0.985 1_556 S
H388 N385 0.984 . S
H389 N385 0.985 . S
H390 N384 0.984 . S
H391 N384 0.984 . S
H392 N380 0.985 . S
H393 N380 0.985 . S
C394 C395 1.363 . S
C394 C400 1.379 . S
C394 N402 1.345 1_556 S
C395 C394 1.363 . S
C395 C401 1.363 . S
C396 C397 1.363 . S
C396 C401 1.379 . S
C396 N403 1.356 . S
C397 C396 1.363 . S
C397 C400 1.363 . S
N398 C400 1.356 . S
N398 H410 0.984 1_556 S
N398 H411 0.985 . S
N399 C401 1.356 . S
N399 H404 0.984 . S
N399 H405 0.985 . S
C400 C394 1.379 . S
C400 C397 1.363 . S
C400 N398 1.356 . S
C401 C395 1.363 . S
C401 C396 1.379 . S
C401 N399 1.356 . S
N402 C394 1.345 1_554 S
N402 H408 1.001 . S
N402 H409 0.980 1_554 S
N403 C396 1.356 . S
N403 H406 0.984 . S
N403 H407 0.985 . S
H404 N399 0.984 . S
H405 N399 0.985 . S
H406 N403 0.984 . S
H407 N403 0.985 . S
H408 N402 1.001 . S
H409 N402 0.980 1_556 S
H410 N398 0.984 1_554 S
H411 N398 0.985 . S
C412 C413 1.363 . S
C412 C418 1.379 . S
C412 N420 1.356 . S
C413 C412 1.363 . S
C413 C419 1.363 . S
C414 C415 1.363 . S
C414 C419 1.379 . S
C414 N421 1.356 . S
C415 C414 1.363 . S
C415 C418 1.363 . S
N416 C418 1.356 . S
N416 H428 0.984 . S
N416 H429 0.985 . S
N417 C419 1.356 . S
N417 H422 0.984 . S
N417 H423 0.985 . S
C418 C412 1.379 . S
C418 C415 1.363 . S
C418 N416 1.356 . S
C419 C413 1.363 . S
C419 C414 1.379 . S
C419 N417 1.356 . S
N420 C412 1.356 . S
N420 H426 0.984 . S
N420 H427 0.984 . S
N421 C414 1.356 . S
N421 H424 0.984 . S
N421 H425 0.985 . S
H422 N417 0.984 . S
H423 N417 0.985 . S
H424 N421 0.984 . S
H425 N421 0.985 . S
H426 N420 0.984 . S
H427 N420 0.984 . S
H428 N416 0.984 . S
H429 N416 0.985 . S
C430 C431 1.363 . S
C430 C436 1.379 . S
C430 N438 1.356 . S
C431 C430 1.363 . S
C431 C437 1.363 . S
C432 C433 1.363 . S
C432 C437 1.379 . S
C432 N439 1.356 . S
C433 C432 1.363 . S
C433 C436 1.363 . S
N434 C436 1.356 . S
N434 H446 0.984 . S
N434 H447 0.985 . S
N435 C437 1.356 . S
N435 H440 0.984 . S
N435 H441 0.985 . S
C436 C430 1.379 . S
C436 C433 1.363 . S
C436 N434 1.356 . S
C437 C431 1.363 . S
C437 C432 1.379 . S
C437 N435 1.356 . S
N438 C430 1.356 . S
N438 H444 0.984 . S
N438 H445 0.984 . S
N439 C432 1.356 . S
N439 H442 0.984 . S
N439 H443 0.985 . S
H440 N435 0.984 . S
H441 N435 0.985 . S
H442 N439 0.984 . S
H443 N439 0.985 . S
H444 N438 0.984 . S
H445 N438 0.984 . S
H446 N434 0.984 . S
H447 N434 0.985 . S
C448 C449 1.363 . S
C448 C454 1.379 . S
C448 N456 1.356 . S
C449 C448 1.363 . S
C449 C455 1.363 . S
C450 C451 1.363 . S
C450 C455 1.379 . S
C450 N457 1.356 1_565 S
C451 C450 1.363 . S
C451 C454 1.363 . S
N452 C454 1.356 . S
N452 H464 0.984 1_655 S
N452 H465 0.985 . S
N453 C455 1.363 . S
N453 H458 0.993 . S
N453 H459 0.969 1_565 S
C454 C448 1.379 . S
C454 C451 1.363 . S
C454 N452 1.356 . S
C455 C449 1.363 . S
C455 C450 1.379 . S
C455 N453 1.363 . S
N456 C448 1.356 . S
N456 H462 0.984 . S
N456 H463 0.984 . S
N457 C450 1.356 1_545 S
N457 H460 0.984 . S
N457 H461 0.985 . S
H458 N453 0.993 . S
H459 N453 0.969 1_545 S
H460 N457 0.984 . S
H461 N457 0.985 . S
H462 N456 0.984 . S
H463 N456 0.984 . S
H464 N452 0.984 1_455 S
H465 N452 0.985 . S
C466 C467 1.363 . S
C466 C472 1.379 . S
C466 N474 1.356 . S
C467 C466 1.363 . S
C467 C473 1.363 . S
C468 C469 1.363 . S
C468 C473 1.379 . S
C468 N475 1.356 1_545 S
C469 C468 1.363 . S
C469 C472 1.363 . S
N470 C472 1.356 . S
N470 H482 0.984 . S
N470 H483 0.985 . S
N471 C473 1.356 . S
N471 H476 0.984 . S
N471 H477 0.985 1_545 S
C472 C466 1.379 . S
C472 C469 1.363 . S
C472 N470 1.356 . S
C473 C467 1.363 . S
C473 C468 1.379 . S
C473 N471 1.356 . S
N474 C466 1.356 . S
N474 H480 0.984 . S
N474 H481 0.984 . S
N475 C468 1.356 1_565 S
N475 H478 0.984 . S
N475 H479 0.985 . S
H476 N471 0.984 . S
H477 N471 0.985 1_565 S
H478 N475 0.984 . S
H479 N475 0.985 . S
H480 N474 0.984 . S
H481 N474 0.984 . S
H482 N470 0.984 . S
H483 N470 0.985 . S
C484 C485 1.363 . S
C484 C490 1.379 . S
C484 N492 1.356 . S
C485 C484 1.363 . S
C485 C491 1.363 . S
C486 C487 1.363 . S
C486 C491 1.379 . S
C486 N493 1.356 . S
C487 C486 1.363 . S
C487 C490 1.363 . S
N488 C490 1.356 . S
N488 H500 0.984 . S
N488 H501 0.985 . S
N489 C491 1.356 . S
N489 H494 0.984 . S
N489 H495 0.985 . S
C490 C484 1.379 . S
C490 C487 1.363 . S
C490 N488 1.356 . S
C491 C485 1.363 . S
C491 C486 1.379 . S
C491 N489 1.356 . S
N492 C484 1.356 . S
N492 H498 0.984 . S
N492 H499 0.984 . S
N493 C486 1.356 . S
N493 H496 0.984 . S
N493 H497 0.985 . S
H494 N489 0.984 . S
H495 N489 0.985 . S
H496 N493 0.984 . S
H497 N493 0.985 . S
H498 N492 0.984 . S
H499 N492 0.984 . S
H500 N488 0.984 . S
H501 N488 0.985 . S
C502 C503 1.363 . S
C502 C508 1.379 . S
C502 N510 1.356 . S
C503 C502 1.363 . S
C503 C509 1.363 . S
C504 C505 1.363 . S
C504 C509 1.379 . S
C504 N511 1.356 . S
C505 C504 1.363 . S
C505 C508 1.363 . S
N506 C508 1.356 . S
N506 H518 0.984 . S
N506 H519 0.985 . S
N507 C509 1.356 . S
N507 H512 0.984 . S
N507 H513 0.985 . S
C508 C502 1.379 . S
C508 C505 1.363 . S
C508 N506 1.356 . S
C509 C503 1.363 . S
C509 C504 1.379 . S
C509 N507 1.356 . S
N510 C502 1.356 . S
N510 H516 0.984 . S
N510 H517 0.984 . S
N511 C504 1.356 . S
N511 H514 0.984 . S
N511 H515 0.985 . S
H512 N507 0.984 . S
H513 N507 0.985 . S
H514 N511 0.984 . S
H515 N511 0.985 . S
H516 N510 0.984 . S
H517 N510 0.984 . S
H518 N506 0.984 . S
H519 N506 0.985 . S
C520 C521 1.363 . S
C520 C526 1.379 . S
C520 N528 1.356 . S
C521 C520 1.363 . S
C521 C527 1.363 . S
C522 C523 1.363 1_545 S
C522 C527 1.379 1_545 S
C522 N529 1.356 . S
C523 C522 1.363 1_565 S
C523 C526 1.363 . S
N524 C526 1.356 . S
N524 H536 0.984 . S
N524 H537 0.985 . S
N525 C527 1.356 1_545 S
N525 H530 0.984 . S
N525 H531 0.985 . S
C526 C520 1.379 . S
C526 C523 1.363 . S
C526 N524 1.356 . S
C527 C521 1.363 . S
C527 C522 1.379 1_565 S
C527 N525 1.356 1_565 S
N528 C520 1.356 . S
N528 H534 0.984 . S
N528 H535 0.984 . S
N529 C522 1.356 . S
N529 H532 0.984 . S
N529 H533 0.985 . S
H530 N525 0.984 . S
H531 N525 0.985 . S
H532 N529 0.984 . S
H533 N529 0.985 . S
H534 N528 0.984 . S
H535 N528 0.984 . S
H536 N524 0.984 . S
H537 N524 0.985 . S
C538 C539 1.363 . S
C538 C544 1.379 . S
C538 N546 1.356 . S
C539 C538 1.363 . S
C539 C545 1.363 . S
C540 C541 1.363 . S
C540 C545 1.379 . S
C540 N547 1.356 . S
C541 C540 1.363 . S
C541 C544 1.363 . S
N542 C544 1.356 . S
N542 H554 0.984 . S
N542 H555 0.985 . S
N543 C545 1.356 . S
N543 H548 0.984 . S
N543 H549 0.985 . S
C544 C538 1.379 . S
C544 C541 1.363 . S
C544 N542 1.356 . S
C545 C539 1.363 . S
C545 C540 1.379 . S
C545 N543 1.356 . S
N546 C538 1.356 . S
N546 H552 0.984 . S
N546 H553 0.984 . S
N547 C540 1.356 . S
N547 H550 0.984 . S
N547 H551 0.985 . S
H548 N543 0.984 . S
H549 N543 0.985 . S
H550 N547 0.984 . S
H551 N547 0.985 . S
H552 N546 0.984 . S
H553 N546 0.984 . S
H554 N542 0.984 . S
H555 N542 0.985 . S
C556 C557 1.363 . S
C556 C562 1.379 . S
C556 N564 1.356 . S
C557 C556 1.363 . S
C557 C563 1.363 . S
C558 C559 1.363 . S
C558 C563 1.379 . S
C558 N565 1.356 . S
C559 C558 1.363 . S
C559 C562 1.363 . S
N560 C562 1.356 . S
N560 H572 0.984 . S
N560 H573 0.985 . S
N561 C563 1.356 . S
N561 H566 0.984 . S
N561 H567 0.985 . S
C562 C556 1.379 . S
C562 C559 1.363 . S
C562 N560 1.356 . S
C563 C557 1.363 . S
C563 C558 1.379 . S
C563 N561 1.356 . S
N564 C556 1.356 . S
N564 H570 0.984 . S
N564 H571 0.984 . S
N565 C558 1.356 . S
N565 H568 0.984 . S
N565 H569 0.985 . S
H566 N561 0.984 . S
H567 N561 0.985 . S
H568 N565 0.984 . S
H569 N565 0.985 . S
H570 N564 0.984 . S
H571 N564 0.984 . S
H572 N560 0.984 . S
H573 N560 0.985 . S
C574 C575 1.363 . S
C574 C580 1.379 . S
C574 N582 1.356 . S
C575 C574 1.363 . S
C575 C581 1.363 . S
C576 C577 1.363 . S
C576 C581 1.379 . S
C576 N583 1.356 . S
C577 C576 1.363 . S
C577 C580 1.363 . S
N578 C580 1.356 . S
N578 H590 0.984 . S
N578 H591 0.985 . S
N579 C581 1.356 . S
N579 H584 0.984 . S
N579 H585 0.985 . S
C580 C574 1.379 . S
C580 C577 1.363 . S
C580 N578 1.356 . S
C581 C575 1.363 . S
C581 C576 1.379 . S
C581 N579 1.356 . S
N582 C574 1.356 . S
N582 H588 0.984 . S
N582 H589 0.984 . S
N583 C576 1.356 . S
N583 H586 0.984 . S
N583 H587 0.985 . S
H584 N579 0.984 . S
H585 N579 0.985 . S
H586 N583 0.984 . S
H587 N583 0.985 . S
H588 N582 0.984 . S
H589 N582 0.984 . S
H590 N578 0.984 . S
H591 N578 0.985 . S
C592 C593 1.363 . S
C592 C598 1.379 . S
C592 N600 1.356 . S
C593 C592 1.363 . S
C593 C599 1.363 . S
C594 C595 1.363 . S
C594 C599 1.379 . S
C594 N601 1.356 1_656 S
C595 C594 1.363 . S
C595 C598 1.363 . S
N596 C598 1.356 . S
N596 H608 0.984 . S
N596 H609 0.985 . S
N597 C599 1.356 . S
N597 H602 0.984 . S
N597 H603 0.969 1_656 S
C598 C592 1.379 . S
C598 C595 1.363 . S
C598 N596 1.356 . S
C599 C593 1.363 . S
C599 C594 1.379 . S
C599 N597 1.356 . S
N600 C592 1.356 . S
N600 H606 0.984 . S
N600 H607 0.984 . S
N601 C594 1.356 1_454 S
N601 H604 0.984 . S
N601 H605 0.985 . S
H602 N597 0.984 . S
H603 N597 0.969 1_454 S
H604 N601 0.984 . S
H605 N601 0.985 . S
H606 N600 0.984 . S
H607 N600 0.984 . S
H608 N596 0.984 . S
H609 N596 0.985 . S
C610 C611 1.363 . S
C610 C616 1.379 . S
C610 N618 1.356 . S
C611 C610 1.363 . S
C611 C617 1.363 . S
C612 C613 1.363 . S
C612 C617 1.379 . S
C612 N619 1.356 . S
C613 C612 1.363 . S
C613 C616 1.363 . S
N614 C616 1.356 . S
N614 H626 0.984 . S
N614 H627 0.985 . S
N615 C617 1.356 . S
N615 H620 0.984 . S
N615 H621 0.985 1_554 S
C616 C610 1.379 . S
C616 C613 1.363 . S
C616 N614 1.356 . S
C617 C611 1.363 . S
C617 C612 1.379 . S
C617 N615 1.356 . S
N618 C610 1.356 . S
N618 H624 0.984 . S
N618 H625 0.984 . S
N619 C612 1.356 . S
N619 H622 0.984 . S
N619 H623 0.985 1_554 S
H620 N615 0.984 . S
H621 N615 0.985 1_556 S
H622 N619 0.984 . S
H623 N619 0.985 1_556 S
H624 N618 0.984 . S
H625 N618 0.984 . S
H626 N614 0.984 . S
H627 N614 0.985 . S
C628 C629 1.363 . S
C628 C634 1.379 . S
C628 N636 1.356 . S
C629 C628 1.363 . S
C629 C635 1.363 . S
C630 C631 1.363 . S
C630 C635 1.379 . S
C630 N637 1.356 . S
C631 C630 1.363 . S
C631 C634 1.363 . S
N632 C634 1.356 . S
N632 H644 0.984 . S
N632 H645 0.985 . S
N633 C635 1.356 . S
N633 H638 0.984 . S
N633 H639 0.985 . S
C634 C628 1.379 . S
C634 C631 1.363 . S
C634 N632 1.356 . S
C635 C629 1.363 . S
C635 C630 1.379 . S
C635 N633 1.356 . S
N636 C628 1.356 . S
N636 H642 0.984 . S
N636 H643 0.984 . S
N637 C630 1.356 . S
N637 H640 0.984 . S
N637 H641 0.985 . S
H638 N633 0.984 . S
H639 N633 0.985 . S
H640 N637 0.984 . S
H641 N637 0.985 . S
H642 N636 0.984 . S
H643 N636 0.984 . S
H644 N632 0.984 . S
H645 N632 0.985 . S
C646 C647 1.363 . S
C646 C652 1.379 . S
C646 N654 1.356 . S
C647 C646 1.363 . S
C647 C653 1.363 . S
C648 C649 1.363 . S
C648 C653 1.379 . S
C648 N655 1.356 . S
C649 C648 1.363 . S
C649 C652 1.363 . S
N650 C652 1.356 . S
N650 H662 0.984 . S
N650 H663 0.985 . S
N651 C653 1.356 . S
N651 H656 0.984 . S
N651 H657 0.985 . S
C652 C646 1.379 . S
C652 C649 1.363 . S
C652 N650 1.356 . S
C653 C647 1.363 . S
C653 C648 1.379 . S
C653 N651 1.356 . S
N654 C646 1.356 . S
N654 H660 0.984 . S
N654 H661 0.984 . S
N655 C648 1.356 . S
N655 H658 0.984 . S
N655 H659 0.985 . S
H656 N651 0.984 . S
H657 N651 0.985 . S
H658 N655 0.984 . S
H659 N655 0.985 . S
H660 N654 0.984 . S
H661 N654 0.984 . S
H662 N650 0.984 . S
H663 N650 0.985 . S
C233 C6 2.477 . S
C235 C96 2.483 . S
C251 C18 2.533 . S
C253 C138 2.566 . S
C271 C168 1.009 . S
C269 C28 0.984 . S
C287 C40 0.854 . S
C289 C202 0.869 . S
C307 C159 2.064 . S
C305 C9 2.057 . S
C325 C113 1.830 . S
C323 C16 1.810 . S
C343 C206 1.309 . S
C341 C30 1.295 . S
C361 C172 1.042 . S
C359 C42 1.030 . S
C377 C4 2.119 . S
C379 C227 2.150 . S
C397 C134 1.190 . S
C395 C33 1.189 . S
C413 C45 1.085 . S
C415 C109 1.100 . S
C431 C21 2.401 . S
C433 C193 2.411 . S
C451 C125 2.541 . S
C449 C57 2.531 . S
C467 C66 2.536 . S
C469 C147 2.551 . S
C485 C76 1.011 . S
C487 C177 1.022 . S
C503 C88 0.836 . S
C505 C211 0.839 . S
C521 C54 2.029 . S
C523 C130 2.042 . S
C541 C104 1.855 . S
C539 C64 1.828 . S
C559 C215 1.181 . S
C557 C78 1.143 . S
C577 C181 1.033 . S
C575 C93 1.021 . S
C593 C52 2.106 . S
C595 C198 2.116 . S
C613 C143 1.172 . S
C611 C81 1.162 . S
C631 C100 1.135 . S
C629 C90 1.101 . S
C647 C69 2.432 . S
C649 C164 2.433 . S
