# Generated by pormake.
# Topology anh, (6,3)-cn, num edge types: 1
# Building blocks:
#     Node 0, Type 0, BuildingBlock: VOLQOD_clean_sbu_1, # of connection points: 6
#     Node 1, Type 0, BuildingBlock: VOLQOD_clean_sbu_1, # of connection points: 6
#     Node 2, Type 0, BuildingBlock: VOLQOD_clean_sbu_1, # of connection points: 6
#     Node 3, Type 1, BuildingBlock: BETDIP_clean_linker_0, # of connection points: 3
#     Node 4, Type 1, BuildingBlock: BETDIP_clean_linker_0, # of connection points: 3
#     Node 5, Type 1, BuildingBlock: BETDIP_clean_linker_0, # of connection points: 3
#     Node 6, Type 1, BuildingBlock: BETDIP_clean_linker_0, # of connection points: 3
#     Node 7, Type 1, BuildingBlock: BETDIP_clean_linker_0, # of connection points: 3
#     Node 8, Type 1, BuildingBlock: BETDIP_clean_linker_0, # of connection points: 3
#     Edge 9, Type (0, 1), BuildingBlock: FUNLAD_clean_linker_1, # of connection points: 2
#     Edge 10, Type (0, 1), BuildingBlock: FUNLAD_clean_linker_1, # of connection points: 2
#     Edge 11, Type (0, 1), BuildingBlock: FUNLAD_clean_linker_1, # of connection points: 2
#     Edge 12, Type (0, 1), BuildingBlock: FUNLAD_clean_linker_1, # of connection points: 2
#     Edge 13, Type (0, 1), BuildingBlock: FUNLAD_clean_linker_1, # of connection points: 2
#     Edge 14, Type (0, 1), BuildingBlock: FUNLAD_clean_linker_1, # of connection points: 2
#     Edge 15, Type (0, 1), BuildingBlock: FUNLAD_clean_linker_1, # of connection points: 2
#     Edge 16, Type (0, 1), BuildingBlock: FUNLAD_clean_linker_1, # of connection points: 2
#     Edge 17, Type (0, 1), BuildingBlock: FUNLAD_clean_linker_1, # of connection points: 2
#     Edge 18, Type (0, 1), BuildingBlock: FUNLAD_clean_linker_1, # of connection points: 2
#     Edge 19, Type (0, 1), BuildingBlock: FUNLAD_clean_linker_1, # of connection points: 2
#     Edge 20, Type (0, 1), BuildingBlock: FUNLAD_clean_linker_1, # of connection points: 2
#     Edge 21, Type (0, 1), BuildingBlock: FUNLAD_clean_linker_1, # of connection points: 2
#     Edge 22, Type (0, 1), BuildingBlock: FUNLAD_clean_linker_1, # of connection points: 2
#     Edge 23, Type (0, 1), BuildingBlock: FUNLAD_clean_linker_1, # of connection points: 2
#     Edge 24, Type (0, 1), BuildingBlock: FUNLAD_clean_linker_1, # of connection points: 2
#     Edge 25, Type (0, 1), BuildingBlock: FUNLAD_clean_linker_1, # of connection points: 2
#     Edge 26, Type (0, 1), BuildingBlock: FUNLAD_clean_linker_1, # of connection points: 2
# Relax obj value: 0.171
# Max RMSD: 0.216
# Mean RMSD: 0.152
data_MOF--net-anh--node1-VOLQOD_clean_sbu_1--node2-BETDIP_clean_linker_0--edge1-FUNLAD_clean_linker_1
_symmetry_space_group_name_H-M    P1
_symmetry_Int_Tables_number       1
_symmetry_cell_setting            triclinic
loop_
_symmetry_equiv_pos_as_xyz
'x, y, z'
_cell_length_a     30.728579
_cell_length_b     30.596465
_cell_length_c     59.26323
_cell_angle_alpha  94.201645
_cell_angle_beta   89.903157
_cell_angle_gamma 120.32308
loop_
_atom_site_label
_atom_site_type_symbol
_atom_site_fract_x
_atom_site_fract_y
_atom_site_fract_z
_atom_type_partial_charge
O0 O 0.06353 0.61948 0.21612 0.0
Zn1 Zn 0.05939 0.63546 0.18414 0.0
O2 O 0.05155 0.5797 0.16285 0.0
Zn3 Zn 0.98342 0.54278 0.14956 0.0
Zn4 Zn 0.06515 0.53332 0.17854 0.0
Zn5 Zn 0.09812 0.60784 0.13871 0.0
O6 O 0.98215 0.54022 0.11538 0.0
O7 O 0.06243 0.59281 0.10845 0.0
O8 O 0.00012 0.6468 0.18137 0.0
O9 O 0.94617 0.57796 0.15957 0.0
O10 O 0.94557 0.47194 0.15918 0.0
O11 O 0.00435 0.46209 0.17599 0.0
O12 O 0.12563 0.53137 0.1662 0.0
O13 O 0.12371 0.7005 0.17872 0.0
O14 O 0.14393 0.57911 0.13714 0.0
O15 O 0.1438 0.68312 0.14451 0.0
C16 C 0.07247 0.58751 0.22452 0.0
C17 C 0.01657 0.56414 0.10166 0.0
C18 C 0.95899 0.44461 0.1689 0.0
C19 C 0.95697 0.61882 0.17142 0.0
C20 C 0.15195 0.551 0.14921 0.0
C21 C 0.15155 0.71396 0.16166 0.0
O22 O 0.07714 0.5545 0.21207 0.0
O23 O 0.4827 0.06474 0.4499 0.0
Zn24 Zn 0.45995 0.05772 0.48197 0.0
O25 O 0.50505 0.04719 0.50095 0.0
Zn26 Zn 0.54512 0.10665 0.52163 0.0
Zn27 Zn 0.54987 0.0335 0.4821 0.0
Zn28 Zn 0.46473 0.99089 0.51881 0.0
O29 O 0.54277 0.08858 0.55392 0.0
O30 O 0.47378 0.01203 0.55208 0.0
O31 O 0.45736 0.11998 0.4938 0.0
O32 O 0.51799 0.15361 0.52098 0.0
O33 O 0.61644 0.14529 0.51195 0.0
O34 O 0.62188 0.09133 0.48652 0.0
O35 O 0.54624 0.96781 0.48881 0.0
O36 O 0.38947 0.99696 0.48079 0.0
O37 O 0.48721 0.94032 0.51449 0.0
O38 O 0.39168 0.95381 0.50888 0.0
C39 C 0.509 0.04936 0.43911 0.0
C40 C 0.50922 0.05054 0.56349 0.0
C41 C 0.64174 0.13404 0.49813 0.0
C42 C 0.48361 0.15445 0.50945 0.0
C43 C 0.51883 0.9352 0.50244 0.0
C44 C 0.36782 0.95959 0.49293 0.0
O45 O 0.53291 0.03177 0.44908 0.0
O46 O 0.49785 0.48454 0.77792 0.0
Zn47 Zn 0.47757 0.46389 0.80938 0.0
O48 O 0.53267 0.50857 0.83125 0.0
Zn49 Zn 0.51165 0.54701 0.85118 0.0
Zn50 Zn 0.5923 0.55553 0.81533 0.0
Zn51 Zn 0.54889 0.46808 0.84955 0.0
O52 O 0.52 0.53928 0.88405 0.0
O53 O 0.53385 0.4745 0.88236 0.0
O54 O 0.41374 0.46562 0.81557 0.0
O55 O 0.43882 0.52252 0.84528 0.0
O56 O 0.54793 0.62039 0.84497 0.0
O57 O 0.60592 0.62733 0.82073 0.0
O58 O 0.65418 0.55426 0.82553 0.0
O59 O 0.4622 0.39168 0.80959 0.0
O60 O 0.62282 0.49273 0.84897 0.0
O61 O 0.5123 0.39474 0.83746 0.0
C62 C 0.54015 0.51254 0.76928 0.0
C63 C 0.52584 0.50658 0.89366 0.0
C64 C 0.58431 0.64676 0.83251 0.0
C65 C 0.40482 0.49126 0.83079 0.0
C66 C 0.6598 0.52676 0.83902 0.0
C67 C 0.47914 0.37016 0.82151 0.0
O68 O 0.58057 0.53891 0.78147 0.0
H69 H 0.52765 0.0373 0.20034 0.0
H70 H 0.60543 0.10057 0.26511 0.0
H71 H 0.46749 0.95633 0.25969 0.0
H72 H 0.6206 0.17546 0.2469 0.0
C73 C 0.63515 0.16586 0.23179 0.0
C74 C 0.52976 0.03463 0.2184 0.0
C75 C 0.49201 0.9924 0.22855 0.0
C76 C 0.57033 0.07399 0.23156 0.0
C77 C 0.57347 0.07081 0.255 0.0
C78 C 0.53637 0.02833 0.2652 0.0
C79 C 0.49649 0.98894 0.25179 0.0
N80 N 0.60823 0.11595 0.22086 0.0
H81 H 0.47037 0.4929 0.53097 0.0
H82 H 0.51416 0.59191 0.59262 0.0
H83 H 0.43924 0.43057 0.59566 0.0
H84 H 0.53101 0.65207 0.57104 0.0
C85 C 0.52998 0.6401 0.55328 0.0
C86 C 0.47192 0.49828 0.54931 0.0
C87 C 0.45179 0.45605 0.56212 0.0
C88 C 0.49368 0.54753 0.55994 0.0
C89 C 0.49623 0.55443 0.58381 0.0
C90 C 0.47746 0.51235 0.59668 0.0
C91 C 0.45419 0.46324 0.58575 0.0
N92 N 0.51284 0.58862 0.54592 0.0
H93 H 0.04845 0.59796 0.86374 0.0
H94 H 0.10857 0.59189 0.92802 0.0
H95 H 0.98008 0.61155 0.92533 0.0
H96 H 0.18212 0.62716 0.9087 0.0
C97 C 0.16816 0.60263 0.89308 0.0
C98 C 0.0472 0.59936 0.88206 0.0
C99 C 0.00882 0.60371 0.89291 0.0
C100 C 0.08394 0.59634 0.89456 0.0
C101 C 0.08163 0.59651 0.91824 0.0
C102 C 0.04357 0.60069 0.92946 0.0
C103 C 0.00785 0.60549 0.91673 0.0
N104 N 0.12117 0.59036 0.88287 0.0
H105 H 0.01736 0.57555 0.46285 0.0
H106 H 0.94991 0.5073 0.39674 0.0
H107 H 0.08216 0.65548 0.4036 0.0
H108 H 0.87683 0.47932 0.42058 0.0
C109 C 0.89102 0.46464 0.433 0.0
C110 C 0.01746 0.57743 0.44465 0.0
C111 C 0.05519 0.62049 0.43505 0.0
C112 C 0.97903 0.53703 0.43104 0.0
C113 C 0.97883 0.53902 0.40743 0.0
C114 C 0.01715 0.58092 0.39749 0.0
C115 C 0.05465 0.62197 0.41136 0.0
N116 N 0.94184 0.49407 0.4414 0.0
H117 H 0.50281 0.01237 0.79955 0.0
H118 H 0.49207 0.93938 0.73324 0.0
H119 H 0.45774 0.05881 0.74128 0.0
H120 H 0.46285 0.86983 0.75588 0.0
C121 C 0.49281 0.88752 0.76896 0.0
C122 C 0.49396 0.0082 0.78154 0.0
C123 C 0.47826 0.03922 0.77236 0.0
C124 C 0.49716 0.97086 0.76771 0.0
C125 C 0.48774 0.96675 0.7442 0.0
C126 C 0.47342 -0.00146 0.73477 0.0
C127 C 0.46759 0.03369 0.74891 0.0
N128 N 0.51078 0.93848 0.77771 0.0
H129 H 0.51703 0.55797 0.13437 0.0
H130 H 0.58494 0.57211 0.07011 0.0
H131 H 0.43064 0.53342 0.07251 0.0
H132 H 0.63165 0.54728 0.08867 0.0
C133 C 0.63891 0.56858 0.10505 0.0
C134 C 0.51366 0.55554 0.11605 0.0
C135 C 0.46794 0.54396 0.1053 0.0
C136 C 0.55538 0.56409 0.10347 0.0
C137 C 0.55181 0.56213 0.07975 0.0
C138 C 0.50629 0.54984 0.06857 0.0
C139 C 0.46481 0.54141 0.08144 0.0
N140 N 0.60092 0.57604 0.11513 0.0
H141 H 0.21551 0.56164 0.12876 0.0
C142 C 0.19464 0.54389 0.1435 0.0
H143 H 0.19035 0.50039 0.17059 0.0
H144 H 0.31922 0.42785 0.10887 0.0
H145 H 0.23989 0.34832 0.11006 0.0
H146 H 0.16742 0.34574 0.1293 0.0
H147 H 0.17402 0.42273 0.14765 0.0
C148 C 0.21056 0.51937 0.15598 0.0
C149 C 0.25665 0.51812 0.14944 0.0
C150 C 0.25232 0.47291 0.13909 0.0
C151 C 0.2939 0.47459 0.12778 0.0
C152 C 0.28854 0.42885 0.11741 0.0
C153 C 0.2433 0.38295 0.11804 0.0
C154 C 0.20249 0.38149 0.12889 0.0
C155 C 0.2067 0.42588 0.13928 0.0
H156 H 0.43288 0.54432 0.13799 0.0
C157 C 0.42547 0.53696 0.11975 0.0
H158 H 0.36857 0.51365 0.09388 0.0
H159 H 0.28073 0.60779 0.17316 0.0
H160 H 0.36034 0.68748 0.17301 0.0
H161 H 0.42996 0.69318 0.15017 0.0
H162 H 0.42149 0.61912 0.12837 0.0
C163 C 0.37932 0.52425 0.11168 0.0
C164 C 0.33948 0.52161 0.12676 0.0
C165 C 0.34488 0.56632 0.13857 0.0
C166 C 0.30379 0.56399 0.15055 0.0
C167 C 0.31038 0.60826 0.16309 0.0
C168 C 0.35579 0.6541 0.16317 0.0
C169 C 0.39509 0.65719 0.15045 0.0
C170 C 0.38982 0.61407 0.13814 0.0
H171 H 0.71656 0.16234 0.48349 0.0
C172 C 0.69286 0.17368 0.49281 0.0
H173 H 0.68264 0.23466 0.50449 0.0
H174 H 0.89706 0.42171 0.49894 0.0
H175 H 0.88973 0.41894 0.53955 0.0
H176 H 0.82037 0.34458 0.55594 0.0
H177 H 0.75747 0.27272 0.53172 0.0
C178 C 0.70646 0.22302 0.49547 0.0
C179 C 0.75223 0.26348 0.48541 0.0
C180 C 0.78971 0.30438 0.49976 0.0
C181 C 0.83038 0.34672 0.49029 0.0
C182 C 0.86587 0.3881 0.5051 0.0
C183 C 0.86209 0.38708 0.52851 0.0
C184 C 0.82301 0.34526 0.53774 0.0
C185 C 0.7871 0.30433 0.52363 0.0
H186 H 0.81782 0.4007 0.43613 0.0
C187 C 0.85729 0.41867 0.44161 0.0
H188 H 0.91161 0.41198 0.46202 0.0
H189 H 0.68388 0.1947 0.45232 0.0
H190 H 0.69566 0.19369 0.41207 0.0
H191 H 0.77344 0.26004 0.39622 0.0
H192 H 0.83854 0.32957 0.42074 0.0
C193 C 0.87224 0.39465 0.4565 0.0
C194 C 0.83411 0.3474 0.46644 0.0
C195 C 0.79909 0.30441 0.45217 0.0
C196 C 0.75663 0.26366 0.46153 0.0
C197 C 0.71882 0.22474 0.44651 0.0
C198 C 0.72487 0.22387 0.42322 0.0
C199 C 0.76843 0.26144 0.41429 0.0
C200 C 0.80523 0.30135 0.42852 0.0
H201 H 0.633 0.72428 0.82192 0.0
C202 C 0.59683 0.69887 0.82886 0.0
H203 H 0.5243 0.68576 0.83643 0.0
H204 H 0.54381 0.89641 0.83706 0.0
H205 H 0.53455 0.88292 0.87697 0.0
H206 H 0.54162 0.81361 0.89203 0.0
H207 H 0.5574 0.75692 0.86715 0.0
C208 C 0.56081 0.71151 0.82985 0.0
C209 C 0.5671 0.75881 0.82128 0.0
C210 C 0.55988 0.79287 0.83616 0.0
C211 C 0.55689 0.83351 0.82756 0.0
C212 C 0.54714 0.86535 0.84267 0.0
C213 C 0.54172 0.85804 0.86566 0.0
C214 C 0.54564 0.81898 0.87414 0.0
C215 C 0.55454 0.78663 0.85965 0.0
H216 H 0.4913 0.81785 0.77145 0.0
C217 C 0.50978 0.8576 0.77786 0.0
H218 H 0.56784 0.91561 0.80114 0.0
H219 H 0.57726 0.69861 0.78694 0.0
H220 H 0.59563 0.71791 0.74813 0.0
H221 H 0.6031 0.7958 0.73473 0.0
H222 H 0.59005 0.85374 0.76019 0.0
C223 C 0.54909 0.87614 0.79433 0.0
C224 C 0.56224 0.8406 0.80413 0.0
C225 C 0.57483 0.80989 0.78972 0.0
C226 C 0.57476 0.76738 0.79797 0.0
C227 C 0.58063 0.73358 0.78229 0.0
C228 C 0.59064 0.74388 0.75975 0.0
C229 C 0.59455 0.78754 0.75218 0.0
C230 C 0.58662 0.82022 0.7669 0.0
H231 H 0.92975 0.67237 0.18066 0.0
C232 C 0.91916 0.63504 0.17266 0.0
H233 H 0.86162 0.56722 0.15545 0.0
H234 H 0.66868 0.57207 0.17584 0.0
H235 H 0.66844 0.52638 0.20774 0.0
H236 H 0.74466 0.5243 0.21897 0.0
H237 H 0.82168 0.56792 0.19825 0.0
C238 C 0.87289 0.60513 0.16292 0.0
C239 C 0.83476 0.62091 0.16134 0.0
C240 C 0.79085 0.59686 0.17403 0.0
C241 C 0.74714 0.59841 0.16767 0.0
C242 C 0.70301 0.57223 0.18002 0.0
C243 C 0.70241 0.54594 0.19838 0.0
C244 C 0.74532 0.54474 0.20469 0.0
C245 C 0.78912 0.5697 0.19266 0.0
H246 H 0.71139 0.57629 0.10762 0.0
C247 C 0.68526 0.58542 0.11613 0.0
H248 H 0.67366 0.62092 0.14681 0.0
H249 H 0.9157 0.67814 0.13571 0.0
H250 H 0.91796 0.72977 0.10606 0.0
H251 H 0.843 0.73539 0.09624 0.0
H252 H 0.76493 0.6885 0.1159 0.0
C253 C 0.69936 0.61241 0.13751 0.0
C254 C 0.74776 0.62391 0.14858 0.0
C255 C 0.79374 0.65378 0.13794 0.0
C256 C 0.83726 0.65169 0.14407 0.0
C257 C 0.88173 0.67901 0.13204 0.0
C258 C 0.88353 0.70883 0.11497 0.0
C259 C 0.84131 0.71193 0.10942 0.0
C260 C 0.79677 0.68472 0.1207 0.0
H261 H 0.30031 0.92008 0.47005 0.0
C262 C 0.31624 0.91855 0.48614 0.0
H263 H 0.30831 0.87417 0.51316 0.0
H264 H 0.0935 0.75267 0.4478 0.0
H265 H 0.0805 0.82239 0.46019 0.0
H266 H 0.14372 0.89502 0.48528 0.0
H267 H 0.22078 0.89861 0.49783 0.0
C268 C 0.29206 0.87649 0.49734 0.0
C269 C 0.2495 0.82901 0.48605 0.0
C270 C 0.20381 0.82652 0.47968 0.0
C271 C 0.16657 0.78378 0.46591 0.0
C272 C 0.12245 0.78349 0.45878 0.0
C273 C 0.11458 0.82338 0.46571 0.0
C274 C 0.15024 0.86434 0.47978 0.0
C275 C 0.19441 0.8661 0.48674 0.0
H276 H 0.08421 0.66645 0.46796 0.0
C277 C 0.0931 0.66401 0.4503 0.0
H278 H 0.15006 0.69704 0.42648 0.0
H279 H 0.33142 0.81982 0.49679 0.0
H280 H 0.34189 0.74791 0.48639 0.0
H281 H 0.27597 0.67255 0.46355 0.0
H282 H 0.19897 0.66892 0.45101 0.0
C283 C 0.13787 0.69998 0.44343 0.0
C284 C 0.1745 0.74293 0.45924 0.0
C285 C 0.21882 0.74409 0.46674 0.0
C286 C 0.25646 0.78721 0.48015 0.0
C287 C 0.30108 0.78786 0.48686 0.0
C288 C 0.30773 0.74679 0.48094 0.0
C289 C 0.27063 0.7044 0.46808 0.0
C290 C 0.22667 0.70288 0.46097 0.0
H291 H 0.43475 0.29669 0.80139 0.0
C292 C 0.46326 0.31666 0.81502 0.0
H293 H 0.51576 0.31341 0.83691 0.0
H294 H 0.41278 0.07324 0.82204 0.0
H295 H 0.39208 0.08294 0.86097 0.0
H296 H 0.41027 0.16654 0.87835 0.0
H297 H 0.44924 0.24099 0.85692 0.0
C298 C 0.48725 0.29435 0.82324 0.0
C299 C 0.47777 0.24434 0.81302 0.0
C300 C 0.45547 0.20144 0.82587 0.0
C301 C 0.44522 0.1533 0.8159 0.0
C302 C 0.42199 0.1108 0.82892 0.0
C303 C 0.40975 0.11581 0.85124 0.0
C304 C 0.41996 0.16289 0.86102 0.0
C305 C 0.4424 0.20532 0.84855 0.0
H306 H 0.50495 0.09793 0.80128 0.0
C307 C 0.47777 0.08036 0.78702 0.0
H308 H 0.41949 0.08137 0.76852 0.0
H309 H 0.52861 0.32058 0.78476 0.0
H310 H 0.5492 0.31073 0.746 0.0
H311 H 0.52767 0.22645 0.72816 0.0
H312 H 0.48603 0.1518 0.74913 0.0
C313 C 0.44751 0.09872 0.78243 0.0
C314 C 0.45755 0.14841 0.79318 0.0
C315 C 0.48043 0.19142 0.7804 0.0
C316 C 0.4915 0.23967 0.79046 0.0
C317 C 0.51722 0.28255 0.77773 0.0
C318 C 0.52979 0.27756 0.75548 0.0
C319 C 0.51778 0.23017 0.74545 0.0
C320 C 0.49369 0.18755 0.7577 0.0
H321 H 0.49905 0.86486 0.51753 0.0
C322 C 0.52347 0.89051 0.50536 0.0
H323 H 0.58313 0.90663 0.48332 0.0
H324 H 0.64505 0.78907 0.54971 0.0
H325 H 0.72154 0.87173 0.5505 0.0
H326 H 0.72528 0.93934 0.52882 0.0
H327 H 0.6527 0.92449 0.50601 0.0
C328 C 0.55683 0.88083 0.49488 0.0
C329 C 0.56091 0.83699 0.50146 0.0
C330 C 0.60385 0.84604 0.51428 0.0
C331 C 0.60138 0.80732 0.52702 0.0
C332 C 0.64464 0.81746 0.53998 0.0
C333 C 0.6888 0.86465 0.54052 0.0
C334 C 0.69092 0.90271 0.52831 0.0
C335 C 0.64899 0.89378 0.51535 0.0
H336 H 0.53813 0.6625 0.51934 0.0
C337 C 0.54081 0.67484 0.53722 0.0
H338 H 0.5557 0.73707 0.56158 0.0
H339 H 0.47916 0.80363 0.47282 0.0
H340 H 0.40231 0.72078 0.47119 0.0
H341 H 0.39344 0.65632 0.49641 0.0
H342 H 0.46144 0.67311 0.52252 0.0
C343 C 0.55072 0.72389 0.54371 0.0
C344 C 0.55582 0.75994 0.527 0.0
C345 C 0.51426 0.74947 0.51251 0.0
C346 C 0.51784 0.78761 0.49905 0.0
C347 C 0.47714 0.77621 0.48397 0.0
C348 C 0.43306 0.72897 0.48285 0.0
C349 C 0.42822 0.69258 0.49695 0.0
C350 C 0.46801 0.70261 0.51174 0.0
H351 H 0.71273 0.51038 0.85597 0.0
C352 C 0.71022 0.53506 0.84437 0.0
H353 H 0.75155 0.59956 0.82596 0.0
H354 H 0.93434 0.67792 0.89846 0.0
H355 H 0.91265 0.74409 0.90354 0.0
H356 H 0.84032 0.73717 0.88214 0.0
H357 H 0.78936 0.66424 0.85547 0.0
C358 C 0.75278 0.57302 0.83679 0.0
C359 C 0.8023 0.58268 0.84569 0.0
C360 C 0.83214 0.6261 0.86081 0.0
C361 C 0.87358 0.62995 0.87326 0.0
C362 C 0.90226 0.67307 0.88867 0.0
C363 C 0.89027 0.71131 0.89173 0.0
C364 C 0.84955 0.70742 0.87966 0.0
C365 C 0.82058 0.66532 0.86442 0.0
H366 H 0.97936 0.61688 0.86159 0.0
C367 C 0.97028 0.60592 0.87879 0.0
H368 H 0.91191 0.57795 0.90226 0.0
H369 H 0.75948 0.50064 0.81435 0.0
H370 H 0.78224 0.4353 0.80861 0.0
H371 H 0.85194 0.44003 0.83134 0.0
H372 H 0.89962 0.51024 0.8597 0.0
C373 C 0.92355 0.59119 0.88562 0.0
C374 C 0.88504 0.59056 0.8704 0.0
C375 C 0.85752 0.54899 0.85405 0.0
C376 C 0.81651 0.54548 0.84142 0.0
C377 C 0.79005 0.50418 0.82486 0.0
C378 C 0.80293 0.46668 0.82131 0.0
C379 C 0.84224 0.4694 0.83408 0.0
C380 C 0.86934 0.50996 0.85029 0.0
H381 H 0.21555 0.77795 0.14659 0.0
C382 C 0.19731 0.76452 0.1624 0.0
H383 H 0.20381 0.77655 0.19805 0.0
H384 H 0.44402 0.90119 0.1731 0.0
H385 H 0.43058 0.82057 0.15579 0.0
H386 H 0.34503 0.74524 0.15166 0.0
H387 H 0.27286 0.74968 0.16482 0.0
C388 C 0.22124 0.78985 0.18209 0.0
C389 C 0.27281 0.83534 0.18309 0.0
C390 C 0.31489 0.83094 0.17618 0.0
C391 C 0.36446 0.87372 0.17937 0.0
C392 C 0.40579 0.86923 0.17167 0.0
C393 C 0.39859 0.82334 0.16164 0.0
C394 C 0.35044 0.78094 0.15931 0.0
C395 C 0.30907 0.78429 0.16669 0.0
H396 H 0.42741 0.91445 0.22238 0.0
C397 C 0.44644 0.9517 0.21579 0.0
H398 H 0.43921 0.9979 0.19294 0.0
H399 H 0.20037 0.85789 0.196 0.0
H400 H 0.2145 0.93883 0.21307 0.0
H401 H 0.30085 0.01192 0.22001 0.0
H402 H 0.37355 0.00467 0.20977 0.0
C403 C 0.42362 0.96016 0.19872 0.0
C404 C 0.3721 0.91979 0.19046 0.0
C405 C 0.33008 0.92497 0.19628 0.0
C406 C 0.28036 0.88267 0.19256 0.0
C407 C 0.239 0.88866 0.19871 0.0
C408 C 0.24656 0.93493 0.20847 0.0
C409 C 0.29517 0.97609 0.21236 0.0
C410 C 0.33659 0.97138 0.20641 0.0
H411 H 0.50339 0.22876 0.52594 0.0
C412 C 0.47515 0.19706 0.51485 0.0
H413 H 0.40532 0.16685 0.49664 0.0
H414 H 0.46406 0.36105 0.57598 0.0
H415 H 0.45324 0.30151 0.60308 0.0
H416 H 0.42684 0.21257 0.59052 0.0
H417 H 0.4132 0.18373 0.55046 0.0
C418 C 0.43392 0.19771 0.50789 0.0
C419 C 0.42838 0.24215 0.51527 0.0
C420 C 0.43083 0.25683 0.5387 0.0
C421 C 0.44156 0.30663 0.54595 0.0
C422 C 0.45151 0.32253 0.56941 0.0
C423 C 0.44617 0.28881 0.58523 0.0
C424 C 0.43162 0.23887 0.57817 0.0
C425 C 0.42423 0.22292 0.55518 0.0
H426 H 0.39755 0.37354 0.55826 0.0
C427 C 0.43101 0.40411 0.55136 0.0
H428 H 0.49225 0.42312 0.53021 0.0
H429 H 0.41686 0.22213 0.46923 0.0
H430 H 0.41725 0.2777 0.4419 0.0
H431 H 0.42831 0.36152 0.45447 0.0
H432 H 0.43976 0.39062 0.49441 0.0
C433 C 0.45793 0.39287 0.53671 0.0
C434 C 0.44387 0.33959 0.52966 0.0
C435 C 0.43555 0.32254 0.50632 0.0
C436 C 0.42826 0.27387 0.49908 0.0
C437 C 0.42221 0.25861 0.47563 0.0
C438 C 0.42225 0.29009 0.45978 0.0
C439 C 0.42851 0.3373 0.46685 0.0
C440 C 0.43516 0.35358 0.48982 0.0
H441 H 0.32582 0.46087 0.8184 0.0
C442 C 0.35458 0.48636 0.83116 0.0
H443 H 0.3731 0.53956 0.85956 0.0
H444 H 0.20838 0.59122 0.82584 0.0
H445 H 0.26401 0.62955 0.795 0.0
H446 H 0.33492 0.61494 0.78762 0.0
H447 H 0.35054 0.56181 0.81091 0.0
C448 C 0.34491 0.51455 0.8465 0.0
C449 C 0.2961 0.51314 0.84694 0.0
C450 C 0.28705 0.54334 0.83278 0.0
C451 C 0.24647 0.5521 0.83712 0.0
C452 C 0.23885 0.58356 0.82324 0.0
C453 C 0.27043 0.60569 0.80551 0.0
C454 C 0.31035 0.59744 0.80135 0.0
C455 C 0.31888 0.56684 0.81483 0.0
H456 H 0.23249 0.59379 0.89261 0.0
C457 C 0.19725 0.58338 0.88371 0.0
H458 H 0.1488 0.54075 0.85399 0.0
H459 H 0.2987 0.4468 0.87461 0.0
H460 H 0.24052 0.40529 0.90425 0.0
H461 H 0.16963 0.42003 0.91155 0.0
H462 H 0.15667 0.47659 0.88931 0.0
C463 C 0.1827 0.55061 0.86391 0.0
C464 C 0.21589 0.53123 0.85574 0.0
C465 C 0.22185 0.49694 0.86838 0.0
C466 C 0.26229 0.48811 0.86405 0.0
C467 C 0.26855 0.45491 0.87734 0.0
C468 C 0.23536 0.43075 0.89431 0.0
C469 C 0.19546 0.43907 0.89842 0.0
C470 C 0.18859 0.47176 0.88565 0.0
H471 H 0.93276 0.36697 0.17869 0.0
C472 C 0.92049 0.39269 0.17374 0.0
H473 H 0.85911 0.40452 0.16959 0.0
H474 H 0.67482 0.18621 0.163 0.0
H475 H 0.67571 0.20911 0.12466 0.0
H476 H 0.74852 0.28609 0.11167 0.0
H477 H 0.82066 0.34097 0.13707 0.0
C478 C 0.87147 0.37883 0.1745 0.0
C479 C 0.83193 0.32869 0.18158 0.0
C480 C 0.79073 0.29608 0.16631 0.0
C481 C 0.74926 0.25107 0.17365 0.0
C482 C 0.70771 0.22042 0.15829 0.0
C483 C 0.70768 0.23314 0.1362 0.0
C484 C 0.74863 0.27651 0.12889 0.0
C485 C 0.78973 0.30777 0.14369 0.0
H486 H 0.69591 0.24206 0.23168 0.0
C487 C 0.67916 0.20406 0.22319 0.0
H488 H 0.68698 0.15779 0.19587 0.0
H489 H 0.90254 0.38429 0.21634 0.0
H490 H 0.90552 0.35666 0.25317 0.0
H491 H 0.83913 0.27296 0.26388 0.0
H492 H 0.76845 0.21712 0.23788 0.0
C493 C 0.70326 0.19534 0.20477 0.0
C494 C 0.74956 0.23822 0.19612 0.0
C495 C 0.79272 0.26847 0.21074 0.0
C496 C 0.83294 0.31493 0.20388 0.0
C497 C 0.87261 0.34705 0.2199 0.0
C498 C 0.87454 0.33191 0.24129 0.0
C499 C 0.83706 0.28491 0.24737 0.0
C500 C 0.7965 0.25345 0.23236 0.0
H501 H 0.96372 0.53267 0.07171 0.0
C502 C 0.00259 0.55914 0.07743 0.0
H503 H 0.07482 0.6154 0.06814 0.0
H504 H 0.98615 0.49665 0.96727 0.0
H505 H 0.98828 0.42574 0.98204 0.0
H506 H 0.00682 0.42702 0.02265 0.0
H507 H 0.02285 0.49886 0.04876 0.0
C508 C 0.03636 0.58724 0.06252 0.0
C509 C 0.02199 0.58436 0.03833 0.0
C510 C 0.01315 0.54211 0.02335 0.0
C511 C 0.00373 0.54188 -0.00014 0.0
C512 C -0.00554 0.49911 0.98521 0.0
C513 C -0.00459 0.45812 0.99347 0.0
C514 C 0.00574 0.4588 0.01635 0.0
C515 C 0.01468 0.50024 0.03118 0.0
H516 H 0.07705 0.60703 0.96336 0.0
C517 C 0.04276 0.59977 0.95448 0.0
H518 H 0.96588 0.57815 0.95875 0.0
H519 H 0.03384 0.66945 0.06275 0.0
H520 H 0.03134 0.74002 0.04784 0.0
H521 H 0.01618 0.73996 0.00695 0.0
H522 H 0.00329 0.66918 0.98071 0.0
C523 C 0.00166 0.58725 0.96659 0.0
C524 C 0.00433 0.58431 0.99139 0.0
C525 C 0.01115 0.62556 0.00645 0.0
C526 C 0.02014 0.62567 0.02997 0.0
C527 C 0.02729 0.6676 0.04468 0.0
C528 C 0.02583 0.70829 0.03635 0.0
C529 C 0.01728 0.70825 0.01333 0.0
C530 C 0.01002 0.66747 0.99846 0.0
H531 H 0.49444 0.07179 0.40676 0.0
C532 C 0.51213 0.05312 0.41446 0.0
H533 H 0.55465 0.01677 0.4089 0.0
H534 H 0.45626 0.01957 0.30807 0.0
H535 H 0.37445 0.96708 0.3235 0.0
H536 H 0.36737 0.94474 0.36303 0.0
H537 H 0.44202 0.9761 0.38749 0.0
C538 C 0.53575 0.03444 0.40139 0.0
C539 C 0.53995 0.04073 0.37667 0.0
C540 C 0.49597 0.01919 0.36222 0.0
C541 C 0.50023 0.02905 0.33902 0.0
C542 C 0.45549 0.01084 0.32547 0.0
C543 C 0.40818 0.981 0.33417 0.0
C544 C 0.40418 0.96865 0.35644 0.0
C545 C 0.44739 0.98735 0.37037 0.0
H546 H 0.51997 0.98602 0.2957 0.0
C547 C 0.53747 0.02396 0.28987 0.0
H548 H 0.57007 0.10235 0.30005 0.0
H549 H 0.63189 0.08722 0.39961 0.0
H550 H 0.71391 0.13531 0.38353 0.0
H551 H 0.72137 0.14793 0.34278 0.0
H552 H 0.64678 0.11261 0.31782 0.0
C553 C 0.55351 0.06403 0.30526 0.0
C554 C 0.54863 0.05702 0.3299 0.0
C555 C 0.59258 0.07753 0.3442 0.0
C556 C 0.58826 0.0696 0.36764 0.0
C557 C 0.63286 0.09134 0.38161 0.0
C558 C 0.68024 0.11918 0.37262 0.0
C559 C 0.68445 0.12632 0.34968 0.0
C560 C 0.6413 0.10584 0.33555 0.0
H561 H 0.57942 0.53251 0.7371 0.0
C562 C 0.54261 0.51516 0.74454 0.0
H563 H 0.46389 0.48027 0.73853 0.0
H564 H 0.56488 0.59359 0.64415 0.0
H565 H 0.60399 0.67302 0.66778 0.0
H566 H 0.59473 0.67395 0.70913 0.0
H567 H 0.54764 0.59537 0.72714 0.0
C568 C 0.50085 0.49805 0.73124 0.0
C569 C 0.50278 0.49866 0.70617 0.0
C570 C 0.52784 0.54524 0.69585 0.0
C571 C 0.53016 0.54491 0.67186 0.0
C572 C 0.5592 0.5917 0.66214 0.0
C573 C 0.58232 0.63761 0.67554 0.0
C574 C 0.57732 0.63812 0.69883 0.0
C575 C 0.55047 0.59263 0.70897 0.0
H576 H 0.47191 0.54425 0.63063 0.0
C577 C 0.48332 0.51964 0.62163 0.0
H578 H 0.51534 0.47333 0.62371 0.0
H579 H 0.45343 0.40265 0.72053 0.0
H580 H 0.41063 0.32343 0.69684 0.0
H581 H 0.40873 0.32303 0.65521 0.0
H582 H 0.45004 0.40166 0.63707 0.0
C583 C 0.50315 0.49695 0.63303 0.0
C584 C 0.50409 0.4982 0.65819 0.0
C585 C 0.47854 0.45169 0.66853 0.0
C586 C 0.47843 0.45193 0.69253 0.0
C587 C 0.45387 0.40485 0.70239 0.0
C588 C 0.42923 0.35899 0.68899 0.0
C589 C 0.42824 0.35876 0.66557 0.0
C590 C 0.45239 0.40436 0.65537 0.0
H591 H 0.54714 0.07992 0.59733 0.0
C592 C 0.51296 0.05032 0.58827 0.0
H593 H 0.44227 0.98382 0.59064 0.0
H594 H 0.48832 0.91236 0.67907 0.0
H595 H 0.47643 0.84519 0.65094 0.0
H596 H 0.46828 0.8532 0.61027 0.0
H597 H 0.47136 0.92807 0.59749 0.0
C598 C 0.47612 0.01404 0.59966 0.0
C599 C 0.48236 0.01044 0.62424 0.0
C600 C 0.48139 0.96669 0.63138 0.0
C601 C 0.48722 0.96253 0.65478 0.0
C602 C 0.48486 0.91788 0.66148 0.0
C603 C 0.47798 0.87896 0.64551 0.0
C604 C 0.47332 0.88343 0.62262 0.0
C605 C 0.47501 0.92665 0.61553 0.0
H606 H 0.43619 0.00325 0.70397 0.0
C607 C 0.46612 0.99747 0.71008 0.0
H608 H 0.53037 0.99273 0.70135 0.0
H609 H 0.47872 0.09616 0.61686 0.0
H610 H 0.49638 0.16581 0.64465 0.0
H611 H 0.51718 0.16331 0.68456 0.0
H612 H 0.51886 0.09049 0.69696 0.0
C613 C 0.49936 0.99702 0.69547 0.0
C614 C 0.49491 0.00247 0.67096 0.0
C615 C 0.49773 0.04709 0.66375 0.0
C616 C 0.48939 0.05017 0.64048 0.0
C617 C 0.48775 0.09305 0.63407 0.0
C618 C 0.4974 0.13318 0.6499 0.0
C619 C 0.50884 0.13165 0.67238 0.0
C620 C 0.50916 0.0893 0.67931 0.0
H621 H 0.52931 0.47742 0.92616 0.0
C622 C 0.52404 0.50573 0.91849 0.0
H623 H 0.5135 0.56869 0.92454 0.0
H624 H 0.44618 0.45342 0.02035 0.0
H625 H 0.37344 0.38696 0.9982 0.0
H626 H 0.36565 0.39014 0.957 0.0
H627 H 0.43092 0.45947 0.93767 0.0
C628 C 0.51709 0.53899 0.93179 0.0
C629 C 0.51901 0.5392 0.95685 0.0
C630 C 0.47974 0.49917 0.96795 0.0
C631 C 0.48342 0.49823 0.99181 0.0
C632 C 0.44468 0.45678 0.00236 0.0
C633 C 0.4028 0.41825 0.98983 0.0
C634 C 0.39848 0.41997 0.96663 0.0
C635 C 0.43636 0.45985 0.95573 0.0
H636 H 0.47226 0.55313 0.03625 0.0
C637 C 0.50145 0.5476 0.04351 0.0
H638 H 0.55903 0.53057 0.03587 0.0
H639 H 0.59999 0.6222 0.94084 0.0
H640 H 0.67144 0.69004 0.96316 0.0
H641 H 0.6769 0.68935 0.00465 0.0
H642 H 0.61102 0.62072 0.02407 0.0
C643 C 0.5302 0.53746 0.02944 0.0
C644 C 0.52564 0.5381 0.00454 0.0
C645 C 0.56435 0.57862 0.99349 0.0
C646 C 0.56098 0.57924 0.96961 0.0
C647 C 0.60042 0.61998 0.95897 0.0
C648 C 0.64169 0.65917 0.97158 0.0
C649 C 0.64479 0.65877 0.99493 0.0
C650 C 0.60671 0.61909 0.00586 0.0
H651 H 0.08948 0.56398 0.25608 0.0
C652 C 0.07531 0.5867 0.24929 0.0
H653 H 0.04349 0.63296 0.25684 0.0
H654 H 0.01109 0.50307 0.34777 0.0
H655 H 0.95967 0.42726 0.32283 0.0
H656 H 0.94962 0.43287 0.28205 0.0
H657 H 0.9924 0.51402 0.26588 0.0
C658 C 0.05756 0.60996 0.26341 0.0
C659 C 0.05798 0.60669 0.28835 0.0
C660 C 0.02981 0.55914 0.2977 0.0
C661 C 0.0324 0.55633 0.32147 0.0
C662 C 0.00784 0.50786 0.33008 0.0
C663 C 0.97857 0.46391 0.3159 0.0
C664 C 0.97316 0.46702 0.29293 0.0
C665 C -0.00164 0.51393 0.28384 0.0
H666 H 0.98082 0.56449 0.36329 0.0
C667 C 0.01698 0.58156 0.37254 0.0
H668 H 0.09592 0.61579 0.37017 0.0
H669 H 0.11681 0.70367 0.27598 0.0
H670 H 0.16385 0.78011 0.30119 0.0
H671 H 0.16293 0.77605 0.34262 0.0
H672 H 0.11549 0.69554 0.35907 0.0
C673 C 0.05971 0.59975 0.36108 0.0
C674 C 0.05959 0.60154 0.33603 0.0
C675 C 0.08686 0.64915 0.32671 0.0
C676 C 0.08645 0.65165 0.30285 0.0
C677 C 0.11503 0.69959 0.29399 0.0
C678 C 0.14233 0.74382 0.30827 0.0
C679 C 0.14188 0.74152 0.33159 0.0
C680 C 0.11453 0.69493 0.3408 0.0
loop_
_geom_bond_atom_site_label_1
_geom_bond_atom_site_label_2
_geom_bond_distance
_geom_bond_site_symmetry_2
_ccdc_geom_bond_type
O0 Zn1 1.953 . S
O0 C16 1.225 . S
Zn1 O0 1.953 . S
Zn1 O2 1.949 . S
Zn1 O8 1.919 1_455 S
Zn1 O13 1.924 . S
O2 Zn1 1.949 . S
O2 Zn3 1.923 . S
O2 Zn4 1.950 . S
O2 Zn5 1.945 . S
Zn3 O2 1.923 . S
Zn3 O6 1.933 . S
Zn3 O9 1.941 1_455 S
Zn3 O10 1.965 1_455 S
Zn4 O2 1.950 . S
Zn4 O11 1.938 . S
Zn4 O12 1.906 . S
Zn4 O22 1.953 . S
Zn5 O2 1.945 . S
Zn5 O7 1.932 . S
Zn5 O14 1.977 . S
Zn5 O15 1.910 . S
O6 Zn3 1.933 . S
O6 C17 1.226 . S
O7 Zn5 1.932 . S
O7 C17 1.307 . S
O8 Zn1 1.919 1_655 S
O8 C19 1.253 . S
O9 Zn3 1.941 1_655 S
O9 C19 1.283 . S
O10 Zn3 1.965 1_655 S
O10 C18 1.303 . S
O11 Zn4 1.938 . S
O11 C18 1.247 1_455 S
O12 Zn4 1.906 . S
O12 C20 1.304 . S
O13 Zn1 1.924 . S
O13 C21 1.311 . S
O14 Zn5 1.977 . S
O14 C20 1.272 . S
O15 Zn5 1.910 . S
O15 C21 1.231 . S
C16 O0 1.225 . S
C16 O22 1.298 . S
C17 O6 1.226 . S
C17 O7 1.307 . S
C18 O10 1.303 . S
C18 O11 1.247 1_655 S
C19 O8 1.253 . S
C19 O9 1.283 . S
C20 O12 1.304 . S
C20 O14 1.272 . S
C21 O13 1.311 . S
C21 O15 1.231 . S
O22 Zn4 1.953 . S
O22 C16 1.298 . S
O23 Zn24 1.953 . S
O23 C39 1.225 . S
Zn24 O23 1.953 . S
Zn24 O25 1.949 . S
Zn24 O31 1.919 . S
Zn24 O36 1.914 1_545 S
O25 Zn24 1.949 . S
O25 Zn26 1.923 . S
O25 Zn27 1.950 . S
O25 Zn28 1.945 1_545 S
Zn26 O25 1.923 . S
Zn26 O29 1.933 . S
Zn26 O32 1.941 . S
Zn26 O33 1.965 . S
Zn27 O25 1.950 . S
Zn27 O34 1.938 . S
Zn27 O35 1.906 1_545 S
Zn27 O45 1.953 . S
Zn28 O25 1.945 1_565 S
Zn28 O30 1.932 1_565 S
Zn28 O37 1.977 . S
Zn28 O38 1.910 . S
O29 Zn26 1.933 . S
O29 C40 1.226 . S
O30 Zn28 1.932 1_545 S
O30 C40 1.307 . S
O31 Zn24 1.919 . S
O31 C42 1.253 . S
O32 Zn26 1.941 . S
O32 C42 1.283 . S
O33 Zn26 1.965 . S
O33 C41 1.303 . S
O34 Zn27 1.938 . S
O34 C41 1.247 . S
O35 Zn27 1.906 1_565 S
O35 C43 1.304 . S
O36 Zn24 1.914 1_565 S
O36 C44 1.334 . S
O37 Zn28 1.977 . S
O37 C43 1.272 . S
O38 Zn28 1.910 . S
O38 C44 1.231 . S
C39 O23 1.225 . S
C39 O45 1.298 . S
C40 O29 1.226 . S
C40 O30 1.307 . S
C41 O33 1.303 . S
C41 O34 1.247 . S
C42 O31 1.253 . S
C42 O32 1.283 . S
C43 O35 1.304 . S
C43 O37 1.272 . S
C44 O36 1.334 . S
C44 O38 1.231 . S
O45 Zn27 1.953 . S
O45 C39 1.298 . S
O46 Zn47 1.953 . S
O46 C62 1.225 . S
Zn47 O46 1.953 . S
Zn47 O48 1.949 . S
Zn47 O54 1.919 . S
Zn47 O59 1.924 . S
O48 Zn47 1.949 . S
O48 Zn49 1.923 . S
O48 Zn50 1.950 . S
O48 Zn51 1.945 . S
Zn49 O48 1.923 . S
Zn49 O52 1.933 . S
Zn49 O55 1.941 . S
Zn49 O56 1.965 . S
Zn50 O48 1.950 . S
Zn50 O57 1.938 . S
Zn50 O58 1.906 . S
Zn50 O68 1.953 . S
Zn51 O48 1.945 . S
Zn51 O53 1.932 . S
Zn51 O60 1.977 . S
Zn51 O61 1.910 . S
O52 Zn49 1.933 . S
O52 C63 1.226 . S
O53 Zn51 1.932 . S
O53 C63 1.307 . S
O54 Zn47 1.919 . S
O54 C65 1.253 . S
O55 Zn49 1.941 . S
O55 C65 1.283 . S
O56 Zn49 1.965 . S
O56 C64 1.303 . S
O57 Zn50 1.938 . S
O57 C64 1.247 . S
O58 Zn50 1.906 . S
O58 C66 1.304 . S
O59 Zn47 1.924 . S
O59 C67 1.311 . S
O60 Zn51 1.977 . S
O60 C66 1.272 . S
O61 Zn51 1.910 . S
O61 C67 1.231 . S
C62 O46 1.225 . S
C62 O68 1.298 . S
C63 O52 1.226 . S
C63 O53 1.307 . S
C64 O56 1.303 . S
C64 O57 1.247 . S
C65 O54 1.253 . S
C65 O55 1.283 . S
C66 O58 1.304 . S
C66 O60 1.272 . S
C67 O59 1.311 . S
C67 O61 1.231 . S
O68 Zn50 1.953 . S
O68 C62 1.298 . S
H69 C74 0.930 . S
H70 C77 0.930 . S
H71 C79 0.930 1_565 S
H72 C73 1.016 . S
C73 H72 1.016 . S
C73 N80 1.286 . S
C74 H69 0.930 . S
C74 C75 1.397 . S
C74 C76 1.361 . S
C75 C74 1.397 . S
C75 C79 1.390 . S
C76 C74 1.361 . S
C76 C77 1.393 . S
C76 N80 1.413 . S
C77 H70 0.930 . S
C77 C76 1.393 . S
C77 C78 1.399 . S
C78 C77 1.399 . S
C78 C79 1.381 . S
C79 H71 0.930 1_545 S
C79 C75 1.390 . S
C79 C78 1.381 . S
N80 C73 1.286 . S
N80 C76 1.413 . S
H81 C86 0.930 . S
H82 C89 0.930 . S
H83 C91 0.930 . S
H84 C85 1.016 . S
C85 H84 1.016 . S
C85 N92 1.286 . S
C86 H81 0.930 . S
C86 C87 1.397 . S
C86 C88 1.361 . S
C87 C86 1.397 . S
C87 C91 1.390 . S
C88 C86 1.361 . S
C88 C89 1.393 . S
C88 N92 1.413 . S
C89 H82 0.930 . S
C89 C88 1.393 . S
C89 C90 1.399 . S
C90 C89 1.399 . S
C90 C91 1.381 . S
C91 H83 0.930 . S
C91 C87 1.390 . S
C91 C90 1.381 . S
N92 C85 1.286 . S
N92 C88 1.413 . S
H93 C98 0.930 . S
H94 C101 0.930 . S
H95 C103 0.930 . S
H96 C97 1.016 . S
C97 H96 1.016 . S
C97 N104 1.286 . S
C98 H93 0.930 . S
C98 C99 1.397 1_455 S
C98 C100 1.361 . S
C99 C98 1.397 1_655 S
C99 C103 1.390 . S
C100 C98 1.361 . S
C100 C101 1.393 . S
C100 N104 1.413 . S
C101 H94 0.930 . S
C101 C100 1.393 . S
C101 C102 1.399 . S
C102 C101 1.399 . S
C102 C103 1.381 1_455 S
C103 H95 0.930 . S
C103 C99 1.390 . S
C103 C102 1.381 1_655 S
N104 C97 1.286 . S
N104 C100 1.413 . S
H105 C110 0.930 . S
H106 C113 0.930 . S
H107 C115 0.930 . S
H108 C109 1.016 . S
C109 H108 1.016 . S
C109 N116 1.286 . S
C110 H105 0.930 . S
C110 C111 1.397 . S
C110 C112 1.361 . S
C111 C110 1.397 . S
C111 C115 1.390 . S
C112 C110 1.361 . S
C112 C113 1.393 1_455 S
C112 N116 1.413 1_455 S
C113 H106 0.930 . S
C113 C112 1.393 1_655 S
C113 C114 1.399 1_655 S
C114 C113 1.399 1_455 S
C114 C115 1.381 . S
C115 H107 0.930 . S
C115 C111 1.390 . S
C115 C114 1.381 . S
N116 C109 1.286 . S
N116 C112 1.413 1_655 S
H117 C122 0.930 . S
H118 C125 0.930 1_565 S
H119 C127 0.930 . S
H120 C121 1.016 . S
C121 H120 1.016 . S
C121 N128 1.286 . S
C122 H117 0.930 . S
C122 C123 1.397 . S
C122 C124 1.361 . S
C123 C122 1.397 . S
C123 C127 1.390 . S
C124 C122 1.361 . S
C124 C125 1.393 . S
C124 N128 1.413 1_545 S
C125 H118 0.930 1_545 S
C125 C124 1.393 . S
C125 C126 1.399 . S
C126 C125 1.399 . S
C126 C127 1.381 . S
C127 H119 0.930 . S
C127 C123 1.390 . S
C127 C126 1.381 . S
N128 C121 1.286 . S
N128 C124 1.413 1_565 S
H129 C134 0.930 . S
H130 C137 0.930 . S
H131 C139 0.930 . S
H132 C133 1.016 . S
C133 H132 1.016 . S
C133 N140 1.286 . S
C134 H129 0.930 . S
C134 C135 1.397 . S
C134 C136 1.361 . S
C135 C134 1.397 . S
C135 C139 1.390 . S
C136 C134 1.361 . S
C136 C137 1.393 . S
C136 N140 1.413 . S
C137 H130 0.930 . S
C137 C136 1.393 . S
C137 C138 1.399 . S
C138 C137 1.399 . S
C138 C139 1.381 . S
C139 H131 0.930 . S
C139 C135 1.390 . S
C139 C138 1.381 . S
N140 C133 1.286 . S
N140 C136 1.413 . S
H141 C142 0.951 . S
C142 H141 0.951 . S
C142 C148 1.265 . S
H143 C148 0.950 . S
H144 C152 0.949 . S
H145 C153 0.950 . S
H146 C154 0.951 . S
H147 C155 0.951 . S
C148 C142 1.265 . S
C148 H143 0.950 . S
C148 C149 1.478 . S
C149 C148 1.478 . S
C149 C150 1.397 . S
C149 C166 1.394 . S
C150 C149 1.397 . S
C150 C151 1.438 . S
C150 C155 1.429 . S
C151 C150 1.438 . S
C151 C152 1.428 . S
C151 C164 1.394 . S
C152 H144 0.949 . S
C152 C151 1.428 . S
C152 C153 1.345 . S
C153 H145 0.950 . S
C153 C152 1.345 . S
C153 C154 1.424 . S
C154 H146 0.951 . S
C154 C153 1.424 . S
C154 C155 1.347 . S
C155 H147 0.951 . S
C155 C150 1.429 . S
C155 C154 1.347 . S
H156 C157 0.951 . S
C157 H156 0.951 . S
C157 C163 1.265 . S
H158 C163 0.950 . S
H159 C167 0.949 . S
H160 C168 0.950 . S
H161 C169 0.951 . S
H162 C170 0.951 . S
C163 C157 1.265 . S
C163 H158 0.950 . S
C163 C164 1.478 . S
C164 C151 1.394 . S
C164 C163 1.478 . S
C164 C165 1.397 . S
C165 C164 1.397 . S
C165 C166 1.438 . S
C165 C170 1.429 . S
C166 C149 1.394 . S
C166 C165 1.438 . S
C166 C167 1.428 . S
C167 H159 0.949 . S
C167 C166 1.428 . S
C167 C168 1.345 . S
C168 H160 0.950 . S
C168 C167 1.345 . S
C168 C169 1.424 . S
C169 H161 0.951 . S
C169 C168 1.424 . S
C169 C170 1.347 . S
C170 H162 0.951 . S
C170 C165 1.429 . S
C170 C169 1.347 . S
H171 C172 0.951 . S
C172 H171 0.951 . S
C172 C178 1.265 . S
H173 C178 0.950 . S
H174 C182 0.949 . S
H175 C183 0.950 . S
H176 C184 0.951 . S
H177 C185 0.951 . S
C178 C172 1.265 . S
C178 H173 0.950 . S
C178 C179 1.478 . S
C179 C178 1.478 . S
C179 C180 1.397 . S
C179 C196 1.394 . S
C180 C179 1.397 . S
C180 C181 1.438 . S
C180 C185 1.429 . S
C181 C180 1.438 . S
C181 C182 1.428 . S
C181 C194 1.394 . S
C182 H174 0.949 . S
C182 C181 1.428 . S
C182 C183 1.345 . S
C183 H175 0.950 . S
C183 C182 1.345 . S
C183 C184 1.424 . S
C184 H176 0.951 . S
C184 C183 1.424 . S
C184 C185 1.347 . S
C185 H177 0.951 . S
C185 C180 1.429 . S
C185 C184 1.347 . S
H186 C187 0.951 . S
C187 H186 0.951 . S
C187 C193 1.265 . S
H188 C193 0.950 . S
H189 C197 0.949 . S
H190 C198 0.950 . S
H191 C199 0.951 . S
H192 C200 0.951 . S
C193 C187 1.265 . S
C193 H188 0.950 . S
C193 C194 1.478 . S
C194 C181 1.394 . S
C194 C193 1.478 . S
C194 C195 1.397 . S
C195 C194 1.397 . S
C195 C196 1.438 . S
C195 C200 1.429 . S
C196 C179 1.394 . S
C196 C195 1.438 . S
C196 C197 1.428 . S
C197 H189 0.949 . S
C197 C196 1.428 . S
C197 C198 1.345 . S
C198 H190 0.950 . S
C198 C197 1.345 . S
C198 C199 1.424 . S
C199 H191 0.951 . S
C199 C198 1.424 . S
C199 C200 1.347 . S
C200 H192 0.951 . S
C200 C195 1.429 . S
C200 C199 1.347 . S
H201 C202 0.951 . S
C202 H201 0.951 . S
C202 C208 1.265 . S
H203 C208 0.950 . S
H204 C212 0.949 . S
H205 C213 0.950 . S
H206 C214 0.951 . S
H207 C215 0.951 . S
C208 C202 1.265 . S
C208 H203 0.950 . S
C208 C209 1.478 . S
C209 C208 1.478 . S
C209 C210 1.397 . S
C209 C226 1.394 . S
C210 C209 1.397 . S
C210 C211 1.438 . S
C210 C215 1.429 . S
C211 C210 1.438 . S
C211 C212 1.428 . S
C211 C224 1.394 . S
C212 H204 0.949 . S
C212 C211 1.428 . S
C212 C213 1.345 . S
C213 H205 0.950 . S
C213 C212 1.345 . S
C213 C214 1.424 . S
C214 H206 0.951 . S
C214 C213 1.424 . S
C214 C215 1.347 . S
C215 H207 0.951 . S
C215 C210 1.429 . S
C215 C214 1.347 . S
H216 C217 0.951 . S
C217 H216 0.951 . S
C217 C223 1.265 . S
H218 C223 0.950 . S
H219 C227 0.949 . S
H220 C228 0.950 . S
H221 C229 0.951 . S
H222 C230 0.951 . S
C223 C217 1.265 . S
C223 H218 0.950 . S
C223 C224 1.478 . S
C224 C211 1.394 . S
C224 C223 1.478 . S
C224 C225 1.397 . S
C225 C224 1.397 . S
C225 C226 1.438 . S
C225 C230 1.429 . S
C226 C209 1.394 . S
C226 C225 1.438 . S
C226 C227 1.428 . S
C227 H219 0.949 . S
C227 C226 1.428 . S
C227 C228 1.345 . S
C228 H220 0.950 . S
C228 C227 1.345 . S
C228 C229 1.424 . S
C229 H221 0.951 . S
C229 C228 1.424 . S
C229 C230 1.347 . S
C230 H222 0.951 . S
C230 C225 1.429 . S
C230 C229 1.347 . S
H231 C232 0.951 . S
C232 H231 0.951 . S
C232 C238 1.265 . S
H233 C238 0.950 . S
H234 C242 0.949 . S
H235 C243 0.950 . S
H236 C244 0.951 . S
H237 C245 0.951 . S
C238 C232 1.265 . S
C238 H233 0.950 . S
C238 C239 1.478 . S
C239 C238 1.478 . S
C239 C240 1.397 . S
C239 C256 1.394 . S
C240 C239 1.397 . S
C240 C241 1.438 . S
C240 C245 1.429 . S
C241 C240 1.438 . S
C241 C242 1.428 . S
C241 C254 1.394 . S
C242 H234 0.949 . S
C242 C241 1.428 . S
C242 C243 1.345 . S
C243 H235 0.950 . S
C243 C242 1.345 . S
C243 C244 1.424 . S
C244 H236 0.951 . S
C244 C243 1.424 . S
C244 C245 1.347 . S
C245 H237 0.951 . S
C245 C240 1.429 . S
C245 C244 1.347 . S
H246 C247 0.951 . S
C247 H246 0.951 . S
C247 C253 1.265 . S
H248 C253 0.950 . S
H249 C257 0.949 . S
H250 C258 0.950 . S
H251 C259 0.951 . S
H252 C260 0.951 . S
C253 C247 1.265 . S
C253 H248 0.950 . S
C253 C254 1.478 . S
C254 C241 1.394 . S
C254 C253 1.478 . S
C254 C255 1.397 . S
C255 C254 1.397 . S
C255 C256 1.438 . S
C255 C260 1.429 . S
C256 C239 1.394 . S
C256 C255 1.438 . S
C256 C257 1.428 . S
C257 H249 0.949 . S
C257 C256 1.428 . S
C257 C258 1.345 . S
C258 H250 0.950 . S
C258 C257 1.345 . S
C258 C259 1.424 . S
C259 H251 0.951 . S
C259 C258 1.424 . S
C259 C260 1.347 . S
C260 H252 0.951 . S
C260 C255 1.429 . S
C260 C259 1.347 . S
H261 C262 0.951 . S
C262 H261 0.951 . S
C262 C268 1.265 . S
H263 C268 0.950 . S
H264 C272 0.949 . S
H265 C273 0.950 . S
H266 C274 0.951 . S
H267 C275 0.951 . S
C268 C262 1.265 . S
C268 H263 0.950 . S
C268 C269 1.478 . S
C269 C268 1.478 . S
C269 C270 1.397 . S
C269 C286 1.394 . S
C270 C269 1.397 . S
C270 C271 1.438 . S
C270 C275 1.429 . S
C271 C270 1.438 . S
C271 C272 1.428 . S
C271 C284 1.394 . S
C272 H264 0.949 . S
C272 C271 1.428 . S
C272 C273 1.345 . S
C273 H265 0.950 . S
C273 C272 1.345 . S
C273 C274 1.424 . S
C274 H266 0.951 . S
C274 C273 1.424 . S
C274 C275 1.347 . S
C275 H267 0.951 . S
C275 C270 1.429 . S
C275 C274 1.347 . S
H276 C277 0.951 . S
C277 H276 0.951 . S
C277 C283 1.265 . S
H278 C283 0.950 . S
H279 C287 0.949 . S
H280 C288 0.950 . S
H281 C289 0.951 . S
H282 C290 0.951 . S
C283 C277 1.265 . S
C283 H278 0.950 . S
C283 C284 1.478 . S
C284 C271 1.394 . S
C284 C283 1.478 . S
C284 C285 1.397 . S
C285 C284 1.397 . S
C285 C286 1.438 . S
C285 C290 1.429 . S
C286 C269 1.394 . S
C286 C285 1.438 . S
C286 C287 1.428 . S
C287 H279 0.949 . S
C287 C286 1.428 . S
C287 C288 1.345 . S
C288 H280 0.950 . S
C288 C287 1.345 . S
C288 C289 1.424 . S
C289 H281 0.951 . S
C289 C288 1.424 . S
C289 C290 1.347 . S
C290 H282 0.951 . S
C290 C285 1.429 . S
C290 C289 1.347 . S
H291 C292 0.951 . S
C292 H291 0.951 . S
C292 C298 1.265 . S
H293 C298 0.950 . S
H294 C302 0.949 . S
H295 C303 0.950 . S
H296 C304 0.951 . S
H297 C305 0.951 . S
C298 C292 1.265 . S
C298 H293 0.950 . S
C298 C299 1.478 . S
C299 C298 1.478 . S
C299 C300 1.397 . S
C299 C316 1.394 . S
C300 C299 1.397 . S
C300 C301 1.438 . S
C300 C305 1.429 . S
C301 C300 1.438 . S
C301 C302 1.428 . S
C301 C314 1.394 . S
C302 H294 0.949 . S
C302 C301 1.428 . S
C302 C303 1.345 . S
C303 H295 0.950 . S
C303 C302 1.345 . S
C303 C304 1.424 . S
C304 H296 0.951 . S
C304 C303 1.424 . S
C304 C305 1.347 . S
C305 H297 0.951 . S
C305 C300 1.429 . S
C305 C304 1.347 . S
H306 C307 0.951 . S
C307 H306 0.951 . S
C307 C313 1.265 . S
H308 C313 0.950 . S
H309 C317 0.949 . S
H310 C318 0.950 . S
H311 C319 0.951 . S
H312 C320 0.951 . S
C313 C307 1.265 . S
C313 H308 0.950 . S
C313 C314 1.478 . S
C314 C301 1.394 . S
C314 C313 1.478 . S
C314 C315 1.397 . S
C315 C314 1.397 . S
C315 C316 1.438 . S
C315 C320 1.429 . S
C316 C299 1.394 . S
C316 C315 1.438 . S
C316 C317 1.428 . S
C317 H309 0.949 . S
C317 C316 1.428 . S
C317 C318 1.345 . S
C318 H310 0.950 . S
C318 C317 1.345 . S
C318 C319 1.424 . S
C319 H311 0.951 . S
C319 C318 1.424 . S
C319 C320 1.347 . S
C320 H312 0.951 . S
C320 C315 1.429 . S
C320 C319 1.347 . S
H321 C322 0.951 . S
C322 H321 0.951 . S
C322 C328 1.265 . S
H323 C328 0.950 . S
H324 C332 0.949 . S
H325 C333 0.950 . S
H326 C334 0.951 . S
H327 C335 0.951 . S
C328 C322 1.265 . S
C328 H323 0.950 . S
C328 C329 1.478 . S
C329 C328 1.478 . S
C329 C330 1.397 . S
C329 C346 1.394 . S
C330 C329 1.397 . S
C330 C331 1.438 . S
C330 C335 1.429 . S
C331 C330 1.438 . S
C331 C332 1.428 . S
C331 C344 1.394 . S
C332 H324 0.949 . S
C332 C331 1.428 . S
C332 C333 1.345 . S
C333 H325 0.950 . S
C333 C332 1.345 . S
C333 C334 1.424 . S
C334 H326 0.951 . S
C334 C333 1.424 . S
C334 C335 1.347 . S
C335 H327 0.951 . S
C335 C330 1.429 . S
C335 C334 1.347 . S
H336 C337 0.951 . S
C337 H336 0.951 . S
C337 C343 1.265 . S
H338 C343 0.950 . S
H339 C347 0.949 . S
H340 C348 0.950 . S
H341 C349 0.951 . S
H342 C350 0.951 . S
C343 C337 1.265 . S
C343 H338 0.950 . S
C343 C344 1.478 . S
C344 C331 1.394 . S
C344 C343 1.478 . S
C344 C345 1.397 . S
C345 C344 1.397 . S
C345 C346 1.438 . S
C345 C350 1.429 . S
C346 C329 1.394 . S
C346 C345 1.438 . S
C346 C347 1.428 . S
C347 H339 0.949 . S
C347 C346 1.428 . S
C347 C348 1.345 . S
C348 H340 0.950 . S
C348 C347 1.345 . S
C348 C349 1.424 . S
C349 H341 0.951 . S
C349 C348 1.424 . S
C349 C350 1.347 . S
C350 H342 0.951 . S
C350 C345 1.429 . S
C350 C349 1.347 . S
H351 C352 0.951 . S
C352 H351 0.951 . S
C352 C358 1.265 . S
H353 C358 0.950 . S
H354 C362 0.949 . S
H355 C363 0.950 . S
H356 C364 0.951 . S
H357 C365 0.951 . S
C358 C352 1.265 . S
C358 H353 0.950 . S
C358 C359 1.478 . S
C359 C358 1.478 . S
C359 C360 1.397 . S
C359 C376 1.394 . S
C360 C359 1.397 . S
C360 C361 1.438 . S
C360 C365 1.429 . S
C361 C360 1.438 . S
C361 C362 1.428 . S
C361 C374 1.394 . S
C362 H354 0.949 . S
C362 C361 1.428 . S
C362 C363 1.345 . S
C363 H355 0.950 . S
C363 C362 1.345 . S
C363 C364 1.424 . S
C364 H356 0.951 . S
C364 C363 1.424 . S
C364 C365 1.347 . S
C365 H357 0.951 . S
C365 C360 1.429 . S
C365 C364 1.347 . S
H366 C367 0.951 . S
C367 H366 0.951 . S
C367 C373 1.265 . S
H368 C373 0.950 . S
H369 C377 0.949 . S
H370 C378 0.950 . S
H371 C379 0.951 . S
H372 C380 0.951 . S
C373 C367 1.265 . S
C373 H368 0.950 . S
C373 C374 1.478 . S
C374 C361 1.394 . S
C374 C373 1.478 . S
C374 C375 1.397 . S
C375 C374 1.397 . S
C375 C376 1.438 . S
C375 C380 1.429 . S
C376 C359 1.394 . S
C376 C375 1.438 . S
C376 C377 1.428 . S
C377 H369 0.949 . S
C377 C376 1.428 . S
C377 C378 1.345 . S
C378 H370 0.950 . S
C378 C377 1.345 . S
C378 C379 1.424 . S
C379 H371 0.951 . S
C379 C378 1.424 . S
C379 C380 1.347 . S
C380 H372 0.951 . S
C380 C375 1.429 . S
C380 C379 1.347 . S
H381 C382 0.951 . S
C382 H381 0.951 . S
C382 C388 1.265 . S
H383 C388 0.950 . S
H384 C392 0.949 . S
H385 C393 0.950 . S
H386 C394 0.951 . S
H387 C395 0.951 . S
C388 C382 1.265 . S
C388 H383 0.950 . S
C388 C389 1.478 . S
C389 C388 1.478 . S
C389 C390 1.397 . S
C389 C406 1.394 . S
C390 C389 1.397 . S
C390 C391 1.438 . S
C390 C395 1.429 . S
C391 C390 1.438 . S
C391 C392 1.428 . S
C391 C404 1.394 . S
C392 H384 0.949 . S
C392 C391 1.428 . S
C392 C393 1.345 . S
C393 H385 0.950 . S
C393 C392 1.345 . S
C393 C394 1.424 . S
C394 H386 0.951 . S
C394 C393 1.424 . S
C394 C395 1.347 . S
C395 H387 0.951 . S
C395 C390 1.429 . S
C395 C394 1.347 . S
H396 C397 0.951 . S
C397 H396 0.951 . S
C397 C403 1.265 . S
H398 C403 0.950 . S
H399 C407 0.949 . S
H400 C408 0.950 . S
H401 C409 0.951 . S
H402 C410 0.951 . S
C403 C397 1.265 . S
C403 H398 0.950 . S
C403 C404 1.478 . S
C404 C391 1.394 . S
C404 C403 1.478 . S
C404 C405 1.397 . S
C405 C404 1.397 . S
C405 C406 1.438 . S
C405 C410 1.429 . S
C406 C389 1.394 . S
C406 C405 1.438 . S
C406 C407 1.428 . S
C407 H399 0.949 . S
C407 C406 1.428 . S
C407 C408 1.345 . S
C408 H400 0.950 . S
C408 C407 1.345 . S
C408 C409 1.424 . S
C409 H401 0.951 . S
C409 C408 1.424 . S
C409 C410 1.347 . S
C410 H402 0.951 . S
C410 C405 1.429 . S
C410 C409 1.347 . S
H411 C412 0.951 . S
C412 H411 0.951 . S
C412 C418 1.265 . S
H413 C418 0.950 . S
H414 C422 0.949 . S
H415 C423 0.950 . S
H416 C424 0.951 . S
H417 C425 0.951 . S
C418 C412 1.265 . S
C418 H413 0.950 . S
C418 C419 1.478 . S
C419 C418 1.478 . S
C419 C420 1.397 . S
C419 C436 1.394 . S
C420 C419 1.397 . S
C420 C421 1.438 . S
C420 C425 1.429 . S
C421 C420 1.438 . S
C421 C422 1.428 . S
C421 C434 1.394 . S
C422 H414 0.949 . S
C422 C421 1.428 . S
C422 C423 1.345 . S
C423 H415 0.950 . S
C423 C422 1.345 . S
C423 C424 1.424 . S
C424 H416 0.951 . S
C424 C423 1.424 . S
C424 C425 1.347 . S
C425 H417 0.951 . S
C425 C420 1.429 . S
C425 C424 1.347 . S
H426 C427 0.951 . S
C427 H426 0.951 . S
C427 C433 1.265 . S
H428 C433 0.950 . S
H429 C437 0.949 . S
H430 C438 0.950 . S
H431 C439 0.951 . S
H432 C440 0.951 . S
C433 C427 1.265 . S
C433 H428 0.950 . S
C433 C434 1.478 . S
C434 C421 1.394 . S
C434 C433 1.478 . S
C434 C435 1.397 . S
C435 C434 1.397 . S
C435 C436 1.438 . S
C435 C440 1.429 . S
C436 C419 1.394 . S
C436 C435 1.438 . S
C436 C437 1.428 . S
C437 H429 0.949 . S
C437 C436 1.428 . S
C437 C438 1.345 . S
C438 H430 0.950 . S
C438 C437 1.345 . S
C438 C439 1.424 . S
C439 H431 0.951 . S
C439 C438 1.424 . S
C439 C440 1.347 . S
C440 H432 0.951 . S
C440 C435 1.429 . S
C440 C439 1.347 . S
H441 C442 0.951 . S
C442 H441 0.951 . S
C442 C448 1.265 . S
H443 C448 0.950 . S
H444 C452 0.949 . S
H445 C453 0.950 . S
H446 C454 0.951 . S
H447 C455 0.951 . S
C448 C442 1.265 . S
C448 H443 0.950 . S
C448 C449 1.478 . S
C449 C448 1.478 . S
C449 C450 1.397 . S
C449 C466 1.394 . S
C450 C449 1.397 . S
C450 C451 1.438 . S
C450 C455 1.429 . S
C451 C450 1.438 . S
C451 C452 1.428 . S
C451 C464 1.394 . S
C452 H444 0.949 . S
C452 C451 1.428 . S
C452 C453 1.345 . S
C453 H445 0.950 . S
C453 C452 1.345 . S
C453 C454 1.424 . S
C454 H446 0.951 . S
C454 C453 1.424 . S
C454 C455 1.347 . S
C455 H447 0.951 . S
C455 C450 1.429 . S
C455 C454 1.347 . S
H456 C457 0.951 . S
C457 H456 0.951 . S
C457 C463 1.265 . S
H458 C463 0.950 . S
H459 C467 0.949 . S
H460 C468 0.950 . S
H461 C469 0.951 . S
H462 C470 0.951 . S
C463 C457 1.265 . S
C463 H458 0.950 . S
C463 C464 1.478 . S
C464 C451 1.394 . S
C464 C463 1.478 . S
C464 C465 1.397 . S
C465 C464 1.397 . S
C465 C466 1.438 . S
C465 C470 1.429 . S
C466 C449 1.394 . S
C466 C465 1.438 . S
C466 C467 1.428 . S
C467 H459 0.949 . S
C467 C466 1.428 . S
C467 C468 1.345 . S
C468 H460 0.950 . S
C468 C467 1.345 . S
C468 C469 1.424 . S
C469 H461 0.951 . S
C469 C468 1.424 . S
C469 C470 1.347 . S
C470 H462 0.951 . S
C470 C465 1.429 . S
C470 C469 1.347 . S
H471 C472 0.951 . S
C472 H471 0.951 . S
C472 C478 1.265 . S
H473 C478 0.950 . S
H474 C482 0.949 . S
H475 C483 0.950 . S
H476 C484 0.951 . S
H477 C485 0.951 . S
C478 C472 1.265 . S
C478 H473 0.950 . S
C478 C479 1.478 . S
C479 C478 1.478 . S
C479 C480 1.397 . S
C479 C496 1.394 . S
C480 C479 1.397 . S
C480 C481 1.438 . S
C480 C485 1.429 . S
C481 C480 1.438 . S
C481 C482 1.428 . S
C481 C494 1.394 . S
C482 H474 0.949 . S
C482 C481 1.428 . S
C482 C483 1.345 . S
C483 H475 0.950 . S
C483 C482 1.345 . S
C483 C484 1.424 . S
C484 H476 0.951 . S
C484 C483 1.424 . S
C484 C485 1.347 . S
C485 H477 0.951 . S
C485 C480 1.429 . S
C485 C484 1.347 . S
H486 C487 0.951 . S
C487 H486 0.951 . S
C487 C493 1.265 . S
H488 C493 0.950 . S
H489 C497 0.949 . S
H490 C498 0.950 . S
H491 C499 0.951 . S
H492 C500 0.951 . S
C493 C487 1.265 . S
C493 H488 0.950 . S
C493 C494 1.478 . S
C494 C481 1.394 . S
C494 C493 1.478 . S
C494 C495 1.397 . S
C495 C494 1.397 . S
C495 C496 1.438 . S
C495 C500 1.429 . S
C496 C479 1.394 . S
C496 C495 1.438 . S
C496 C497 1.428 . S
C497 H489 0.949 . S
C497 C496 1.428 . S
C497 C498 1.345 . S
C498 H490 0.950 . S
C498 C497 1.345 . S
C498 C499 1.424 . S
C499 H491 0.951 . S
C499 C498 1.424 . S
C499 C500 1.347 . S
C500 H492 0.951 . S
C500 C495 1.429 . S
C500 C499 1.347 . S
H501 C502 0.951 . S
C502 H501 0.951 . S
C502 C508 1.265 . S
H503 C508 0.950 . S
H504 C512 0.949 . S
H505 C513 0.950 . S
H506 C514 0.951 . S
H507 C515 0.951 . S
C508 C502 1.265 . S
C508 H503 0.950 . S
C508 C509 1.478 . S
C509 C508 1.478 . S
C509 C510 1.397 . S
C509 C526 1.394 . S
C510 C509 1.397 . S
C510 C511 1.438 . S
C510 C515 1.429 . S
C511 C510 1.438 . S
C511 C512 1.428 1_554 S
C511 C524 1.394 1_554 S
C512 H504 0.949 . S
C512 C511 1.428 1_556 S
C512 C513 1.345 . S
C513 H505 0.950 . S
C513 C512 1.345 . S
C513 C514 1.424 1_556 S
C514 H506 0.951 . S
C514 C513 1.424 1_554 S
C514 C515 1.347 . S
C515 H507 0.951 . S
C515 C510 1.429 . S
C515 C514 1.347 . S
H516 C517 0.951 . S
C517 H516 0.951 . S
C517 C523 1.265 . S
H518 C523 0.950 1_655 S
H519 C527 0.949 . S
H520 C528 0.950 . S
H521 C529 0.951 . S
H522 C530 0.996 . S
C523 C517 1.265 . S
C523 H518 0.950 1_455 S
C523 C524 1.478 . S
C524 C511 1.394 1_556 S
C524 C523 1.478 . S
C524 C525 1.397 1_556 S
C525 C524 1.397 1_554 S
C525 C526 1.438 . S
C525 C530 1.410 1_554 S
C526 C509 1.394 . S
C526 C525 1.438 . S
C526 C527 1.428 . S
C527 H519 0.949 . S
C527 C526 1.428 . S
C527 C528 1.345 . S
C528 H520 0.950 . S
C528 C527 1.345 . S
C528 C529 1.424 . S
C529 H521 0.951 . S
C529 C528 1.424 . S
C529 C530 1.323 1_554 S
C530 H522 0.996 . S
C530 C525 1.410 1_556 S
C530 C529 1.323 1_556 S
H531 C532 0.951 . S
C532 H531 0.951 . S
C532 C538 1.265 . S
H533 C538 0.950 1_565 S
H534 C542 0.949 . S
H535 C543 0.950 . S
H536 C544 0.951 . S
H537 C545 0.951 . S
C538 C532 1.265 . S
C538 H533 0.950 1_545 S
C538 C539 1.478 . S
C539 C538 1.478 . S
C539 C540 1.397 . S
C539 C556 1.394 . S
C540 C539 1.397 . S
C540 C541 1.438 . S
C540 C545 1.429 . S
C541 C540 1.438 . S
C541 C542 1.428 . S
C541 C554 1.394 . S
C542 H534 0.949 . S
C542 C541 1.428 . S
C542 C543 1.345 . S
C543 H535 0.950 . S
C543 C542 1.345 . S
C543 C544 1.424 . S
C544 H536 0.951 . S
C544 C543 1.424 . S
C544 C545 1.347 . S
C545 H537 0.951 . S
C545 C540 1.429 . S
C545 C544 1.347 . S
H546 C547 0.951 . S
C547 H546 0.951 . S
C547 C553 1.265 . S
H548 C553 0.950 . S
H549 C557 0.949 . S
H550 C558 0.950 . S
H551 C559 0.951 . S
H552 C560 0.951 . S
C553 C547 1.265 . S
C553 H548 0.950 . S
C553 C554 1.478 . S
C554 C541 1.394 . S
C554 C553 1.478 . S
C554 C555 1.397 . S
C555 C554 1.397 . S
C555 C556 1.438 . S
C555 C560 1.429 . S
C556 C539 1.394 . S
C556 C555 1.438 . S
C556 C557 1.428 . S
C557 H549 0.949 . S
C557 C556 1.428 . S
C557 C558 1.345 . S
C558 H550 0.950 . S
C558 C557 1.345 . S
C558 C559 1.424 . S
C559 H551 0.951 . S
C559 C558 1.424 . S
C559 C560 1.347 . S
C560 H552 0.951 . S
C560 C555 1.429 . S
C560 C559 1.347 . S
H561 C562 0.951 . S
C562 H561 0.951 . S
C562 C568 1.265 . S
H563 C568 0.950 . S
H564 C572 0.949 . S
H565 C573 0.950 . S
H566 C574 0.951 . S
H567 C575 0.951 . S
C568 C562 1.265 . S
C568 H563 0.950 . S
C568 C569 1.478 . S
C569 C568 1.478 . S
C569 C570 1.397 . S
C569 C586 1.394 . S
C570 C569 1.397 . S
C570 C571 1.438 . S
C570 C575 1.429 . S
C571 C570 1.438 . S
C571 C572 1.428 . S
C571 C584 1.394 . S
C572 H564 0.949 . S
C572 C571 1.428 . S
C572 C573 1.345 . S
C573 H565 0.950 . S
C573 C572 1.345 . S
C573 C574 1.424 . S
C574 H566 0.951 . S
C574 C573 1.424 . S
C574 C575 1.347 . S
C575 H567 0.951 . S
C575 C570 1.429 . S
C575 C574 1.347 . S
H576 C577 0.951 . S
C577 H576 0.951 . S
C577 C583 1.265 . S
H578 C583 0.950 . S
H579 C587 0.949 . S
H580 C588 0.950 . S
H581 C589 0.951 . S
H582 C590 0.951 . S
C583 C577 1.265 . S
C583 H578 0.950 . S
C583 C584 1.478 . S
C584 C571 1.394 . S
C584 C583 1.478 . S
C584 C585 1.397 . S
C585 C584 1.397 . S
C585 C586 1.438 . S
C585 C590 1.429 . S
C586 C569 1.394 . S
C586 C585 1.438 . S
C586 C587 1.428 . S
C587 H579 0.949 . S
C587 C586 1.428 . S
C587 C588 1.345 . S
C588 H580 0.950 . S
C588 C587 1.345 . S
C588 C589 1.424 . S
C589 H581 0.951 . S
C589 C588 1.424 . S
C589 C590 1.347 . S
C590 H582 0.951 . S
C590 C585 1.429 . S
C590 C589 1.347 . S
H591 C592 0.951 . S
C592 H591 0.951 . S
C592 C598 1.265 . S
H593 C598 0.950 . S
H594 C602 0.949 . S
H595 C603 0.950 . S
H596 C604 0.951 . S
H597 C605 0.951 . S
C598 C592 1.265 . S
C598 H593 0.950 . S
C598 C599 1.478 . S
C599 C598 1.478 . S
C599 C600 1.400 . S
C599 C616 1.394 . S
C600 C599 1.400 . S
C600 C601 1.437 . S
C600 C605 1.426 1_545 S
C601 C600 1.437 . S
C601 C602 1.426 1_545 S
C601 C614 1.395 . S
C602 H594 0.949 . S
C602 C601 1.426 1_565 S
C602 C603 1.345 . S
C603 H595 0.950 . S
C603 C602 1.345 . S
C603 C604 1.424 . S
C604 H596 0.951 . S
C604 C603 1.424 . S
C604 C605 1.347 . S
C605 H597 0.951 . S
C605 C600 1.426 1_565 S
C605 C604 1.347 . S
H606 C607 0.951 . S
C607 H606 0.951 . S
C607 C613 1.265 . S
H608 C613 0.950 . S
H609 C617 0.949 . S
H610 C618 0.950 . S
H611 C619 0.951 . S
H612 C620 0.951 . S
C613 C607 1.265 . S
C613 H608 0.950 . S
C613 C614 1.478 . S
C614 C601 1.395 . S
C614 C613 1.478 . S
C614 C615 1.397 . S
C615 C614 1.397 . S
C615 C616 1.438 . S
C615 C620 1.429 . S
C616 C599 1.394 . S
C616 C615 1.438 . S
C616 C617 1.428 . S
C617 H609 0.949 . S
C617 C616 1.428 . S
C617 C618 1.345 . S
C618 H610 0.950 . S
C618 C617 1.345 . S
C618 C619 1.424 . S
C619 H611 0.951 . S
C619 C618 1.424 . S
C619 C620 1.347 . S
C620 H612 0.951 . S
C620 C615 1.429 . S
C620 C619 1.347 . S
H621 C622 0.951 . S
C622 H621 0.951 . S
C622 C628 1.265 . S
H623 C628 0.950 . S
H624 C632 0.949 . S
H625 C633 0.950 1_554 S
H626 C634 0.951 . S
H627 C635 0.951 . S
C628 C622 1.265 . S
C628 H623 0.950 . S
C628 C629 1.478 . S
C629 C628 1.478 . S
C629 C630 1.397 . S
C629 C646 1.394 . S
C630 C629 1.397 . S
C630 C631 1.438 . S
C630 C635 1.429 . S
C631 C630 1.438 . S
C631 C632 1.428 1_556 S
C631 C644 1.394 1_556 S
C632 H624 0.949 . S
C632 C631 1.428 1_554 S
C632 C633 1.345 1_554 S
C633 H625 0.950 1_556 S
C633 C632 1.345 1_556 S
C633 C634 1.424 . S
C634 H626 0.951 . S
C634 C633 1.424 . S
C634 C635 1.347 . S
C635 H627 0.951 . S
C635 C630 1.429 . S
C635 C634 1.347 . S
H636 C637 0.951 . S
C637 H636 0.951 . S
C637 C643 1.265 . S
H638 C643 0.950 . S
H639 C647 0.949 . S
H640 C648 0.950 . S
H641 C649 0.951 . S
H642 C650 0.951 . S
C643 C637 1.265 . S
C643 H638 0.950 . S
C643 C644 1.478 . S
C644 C631 1.394 1_554 S
C644 C643 1.478 . S
C644 C645 1.397 1_554 S
C645 C644 1.397 1_556 S
C645 C646 1.438 . S
C645 C650 1.429 1_556 S
C646 C629 1.394 . S
C646 C645 1.438 . S
C646 C647 1.428 . S
C647 H639 0.949 . S
C647 C646 1.428 . S
C647 C648 1.345 . S
C648 H640 0.950 . S
C648 C647 1.345 . S
C648 C649 1.424 . S
C649 H641 0.951 . S
C649 C648 1.424 . S
C649 C650 1.347 1_556 S
C650 H642 0.951 . S
C650 C645 1.429 1_554 S
C650 C649 1.347 1_554 S
H651 C652 0.951 . S
C652 H651 0.951 . S
C652 C658 1.265 . S
H653 C658 0.950 . S
H654 C662 0.949 . S
H655 C663 0.950 . S
H656 C664 0.951 . S
H657 C665 0.951 . S
C658 C652 1.265 . S
C658 H653 0.950 . S
C658 C659 1.478 . S
C659 C658 1.478 . S
C659 C660 1.397 . S
C659 C676 1.394 . S
C660 C659 1.397 . S
C660 C661 1.438 . S
C660 C665 1.429 1_455 S
C661 C660 1.438 . S
C661 C662 1.428 1_455 S
C661 C674 1.394 . S
C662 H654 0.949 . S
C662 C661 1.428 1_655 S
C662 C663 1.345 . S
C663 H655 0.950 . S
C663 C662 1.345 . S
C663 C664 1.424 . S
C664 H656 0.951 . S
C664 C663 1.424 . S
C664 C665 1.347 . S
C665 H657 0.951 . S
C665 C660 1.429 1_655 S
C665 C664 1.347 . S
H666 C667 0.951 . S
C667 H666 0.951 . S
C667 C673 1.265 . S
H668 C673 0.950 . S
H669 C677 0.949 . S
H670 C678 0.950 . S
H671 C679 0.951 . S
H672 C680 0.951 . S
C673 C667 1.265 . S
C673 H668 0.950 . S
C673 C674 1.478 . S
C674 C661 1.394 . S
C674 C673 1.478 . S
C674 C675 1.397 . S
C675 C674 1.397 . S
C675 C676 1.438 . S
C675 C680 1.429 . S
C676 C659 1.394 . S
C676 C675 1.438 . S
C676 C677 1.428 . S
C677 H669 0.949 . S
C677 C676 1.428 . S
C677 C678 1.345 . S
C678 H670 0.950 . S
C678 C677 1.345 . S
C678 C679 1.424 . S
C679 H671 0.951 . S
C679 C678 1.424 . S
C679 C680 1.347 . S
C680 H672 0.951 . S
C680 C675 1.429 . S
C680 C679 1.347 . S
C142 C20 1.494 . S
C157 C135 1.537 . S
C172 C41 1.294 . S
C187 C109 1.283 . S
C202 C64 1.311 . S
C217 C121 1.294 . S
C232 C19 1.099 . S
C247 C133 1.080 . S
C277 C111 1.266 . S
C262 C44 1.235 . S
C307 C123 1.244 . S
C292 C67 1.255 . S
C322 C43 1.228 . S
C337 C85 1.290 . S
C352 C66 1.477 . S
C367 C99 1.537 . S
C382 C21 1.260 . S
C397 C75 1.250 1_565 S
C427 C87 1.263 . S
C412 C42 1.164 . S
C457 C97 1.039 . S
C442 C65 1.081 . S
C472 C18 1.300 . S
C487 C73 1.288 . S
C517 C102 1.517 . S
C502 C17 1.511 . S
C532 C39 1.515 . S
C547 C78 1.504 . S
C562 C62 1.531 . S
C577 C90 1.529 . S
C607 C126 1.500 . S
C592 C40 1.486 . S
C637 C138 1.509 . S
C622 C63 1.513 . S
C652 C16 1.508 . S
C667 C114 1.504 . S
