# Generated by pormake.
# Topology zzz, (3,6)-cn, num edge types: 1
# Building blocks:
#     Node 0, Type 0, BuildingBlock: BETDIP_clean_linker_0, # of connection points: 3
#     Node 1, Type 0, BuildingBlock: BETDIP_clean_linker_0, # of connection points: 3
#     Node 2, Type 0, BuildingBlock: BETDIP_clean_linker_0, # of connection points: 3
#     Node 3, Type 0, BuildingBlock: BETDIP_clean_linker_0, # of connection points: 3
#     Node 4, Type 0, BuildingBlock: BETDIP_clean_linker_0, # of connection points: 3
#     Node 5, Type 0, BuildingBlock: BETDIP_clean_linker_0, # of connection points: 3
#     Node 6, Type 0, BuildingBlock: BETDIP_clean_linker_0, # of connection points: 3
#     Node 7, Type 0, BuildingBlock: BETDIP_clean_linker_0, # of connection points: 3
#     Node 8, Type 1, BuildingBlock: BETDIP_clean_sbu_0, # of connection points: 6
#     Node 9, Type 1, BuildingBlock: BETDIP_clean_sbu_0, # of connection points: 6
#     Node 10, Type 1, BuildingBlock: BETDIP_clean_sbu_0, # of connection points: 6
#     Node 11, Type 1, BuildingBlock: BETDIP_clean_sbu_0, # of connection points: 6
#     Edge 12, Type (0, 1), BuildingBlock: TEMPAE_clean_linker_10, # of connection points: 2
#     Edge 13, Type (0, 1), BuildingBlock: TEMPAE_clean_linker_10, # of connection points: 2
#     Edge 14, Type (0, 1), BuildingBlock: TEMPAE_clean_linker_10, # of connection points: 2
#     Edge 15, Type (0, 1), BuildingBlock: TEMPAE_clean_linker_10, # of connection points: 2
#     Edge 16, Type (0, 1), BuildingBlock: TEMPAE_clean_linker_10, # of connection points: 2
#     Edge 17, Type (0, 1), BuildingBlock: TEMPAE_clean_linker_10, # of connection points: 2
#     Edge 18, Type (0, 1), BuildingBlock: TEMPAE_clean_linker_10, # of connection points: 2
#     Edge 19, Type (0, 1), BuildingBlock: TEMPAE_clean_linker_10, # of connection points: 2
#     Edge 20, Type (0, 1), BuildingBlock: TEMPAE_clean_linker_10, # of connection points: 2
#     Edge 21, Type (0, 1), BuildingBlock: TEMPAE_clean_linker_10, # of connection points: 2
#     Edge 22, Type (0, 1), BuildingBlock: TEMPAE_clean_linker_10, # of connection points: 2
#     Edge 23, Type (0, 1), BuildingBlock: TEMPAE_clean_linker_10, # of connection points: 2
#     Edge 24, Type (0, 1), BuildingBlock: TEMPAE_clean_linker_10, # of connection points: 2
#     Edge 25, Type (0, 1), BuildingBlock: TEMPAE_clean_linker_10, # of connection points: 2
#     Edge 26, Type (0, 1), BuildingBlock: TEMPAE_clean_linker_10, # of connection points: 2
#     Edge 27, Type (0, 1), BuildingBlock: TEMPAE_clean_linker_10, # of connection points: 2
#     Edge 28, Type (0, 1), BuildingBlock: TEMPAE_clean_linker_10, # of connection points: 2
#     Edge 29, Type (0, 1), BuildingBlock: TEMPAE_clean_linker_10, # of connection points: 2
#     Edge 30, Type (0, 1), BuildingBlock: TEMPAE_clean_linker_10, # of connection points: 2
#     Edge 31, Type (0, 1), BuildingBlock: TEMPAE_clean_linker_10, # of connection points: 2
#     Edge 32, Type (0, 1), BuildingBlock: TEMPAE_clean_linker_10, # of connection points: 2
#     Edge 33, Type (0, 1), BuildingBlock: TEMPAE_clean_linker_10, # of connection points: 2
#     Edge 34, Type (0, 1), BuildingBlock: TEMPAE_clean_linker_10, # of connection points: 2
#     Edge 35, Type (0, 1), BuildingBlock: TEMPAE_clean_linker_10, # of connection points: 2
# Relax obj value: 0.266
# Max RMSD: 0.167
# Mean RMSD: 0.147
data_MOF--net-zzz--node1-BETDIP_clean_sbu_0--node2-BETDIP_clean_linker_0--edge1-TEMPAE_clean_linker_10
_symmetry_space_group_name_H-M    P1
_symmetry_Int_Tables_number       1
_symmetry_cell_setting            triclinic
loop_
_symmetry_equiv_pos_as_xyz
'x, y, z'
_cell_length_a     52.344581
_cell_length_b     52.333168
_cell_length_c     13.622881
_cell_angle_alpha  89.729605
_cell_angle_beta   89.961132
_cell_angle_gamma 90.1237
loop_
_atom_site_label
_atom_site_type_symbol
_atom_site_fract_x
_atom_site_fract_y
_atom_site_fract_z
_atom_type_partial_charge
H0 H 0.75077 0.52056 0.46955 0.0
H1 H 0.73125 0.58209 0.27156 0.0
H2 H 0.7991 0.58668 0.44637 0.0
H3 H 0.68957 0.57193 0.35712 0.0
C4 C 0.69084 0.55286 0.32615 0.0
C5 C 0.75453 0.53944 0.43995 0.0
C6 C 0.77699 0.55282 0.46802 0.0
C7 C 0.73677 0.55094 0.37419 0.0
C8 C 0.74319 0.57445 0.32962 0.0
C9 C 0.76596 0.58709 0.35302 0.0
C10 C 0.78144 0.57704 0.42771 0.0
N11 N 0.71346 0.5384 0.34668 0.0
H12 H 1.00673 0.77237 0.46083 0.0
H13 H 0.05536 0.75172 0.21768 0.0
H14 H 0.07246 0.81829 0.38568 0.0
H15 H 1.00466 0.74835 0.16808 0.0
C16 C 1.00672 0.73208 0.21739 0.0
C17 C 0.02369 0.77572 0.41701 0.0
C18 C 0.03931 0.79743 0.43553 0.0
C19 C 0.02968 0.75882 0.33885 0.0
C20 C 0.05111 0.7639 0.27973 0.0
C21 C 0.06675 0.78491 0.2984 0.0
C22 C 0.06099 0.80119 0.37643 0.0
N23 N 1.01403 0.73719 0.31651 0.0
H24 H 0.77662 0.02181 0.53391 0.0
H25 H 0.79775 0.97625 0.28381 0.0
H26 H 0.72384 0.96715 0.41527 0.0
H27 H 0.83822 0.97666 0.42544 0.0
C28 C 0.83794 0.99568 0.39297 0.0
C29 C 0.77225 1.00671 0.48248 0.0
C30 C 0.74808 0.99437 0.48591 0.0
C31 C 0.79091 0.99895 0.41284 0.0
C32 C 0.78441 0.98056 0.34235 0.0
C33 C 0.76006 0.96955 0.34098 0.0
C34 C 0.74283 0.97541 0.41653 0.0
N35 N 0.81551 1.01077 0.40724 0.0
H36 H 0.51301 0.78978 0.5049 0.0
H37 H 0.55765 0.81045 0.25005 0.0
H38 H 0.5671 0.73689 0.38431 0.0
H39 H 0.55875 0.85051 0.37777 0.0
C40 C 0.53891 0.85074 0.35401 0.0
C41 C 0.52785 0.78533 0.45229 0.0
C42 C 0.54015 0.76116 0.4557 0.0
C43 C 0.53535 0.8039 0.38115 0.0
C44 C 0.55346 0.79725 0.30949 0.0
C45 C 0.56453 0.77298 0.30875 0.0
C46 C 0.55884 0.75584 0.38519 0.0
N47 N 0.52378 0.82862 0.37598 0.0
H48 H 0.26914 0.52034 0.01196 0.0
H49 H 0.28895 0.47906 0.27574 0.0
H50 H 0.21793 0.46388 0.13053 0.0
H51 H 0.29779 0.53356 0.28421 0.0
C52 C 0.31316 0.52555 0.24035 0.0
C53 C 0.26492 0.50547 0.06511 0.0
C54 C 0.24128 0.49212 0.0606 0.0
C55 C 0.28267 0.50002 0.14143 0.0
C56 C 0.27617 0.48209 0.2142 0.0
C57 C 0.25269 0.46934 0.21204 0.0
C58 C 0.23635 0.4733 0.13163 0.0
N59 N 0.30639 0.51341 0.15016 0.0
H60 H 0.02213 0.27804 0.09818 0.0
H61 H 0.96854 0.30228 0.31986 0.0
H62 H 0.9571 0.23122 0.17273 0.0
H63 H 0.97861 0.34252 0.19211 0.0
C64 C 0.99668 0.34068 0.23089 0.0
C65 C 1.00468 0.27492 0.13926 0.0
C66 C 0.99004 0.25239 0.12374 0.0
C67 C 0.99617 0.29374 0.20679 0.0
C68 C 0.97414 0.28898 0.26304 0.0
C69 C 0.9601 0.26656 0.2504 0.0
C70 C 0.96769 0.24895 0.17922 0.0
N71 N 1.00999 0.31696 0.22239 0.0
H72 H 0.25778 0.02626 0.05398 0.0
H73 H 0.24645 0.97326 0.29511 0.0
H74 H 0.31448 0.96946 0.12351 0.0
H75 H 0.20483 0.97363 0.21765 0.0
C76 C 0.20287 0.99416 0.22728 0.0
C77 C 0.2641 1.01008 0.09735 0.0
C78 C 0.28817 0.99864 0.07752 0.0
C79 C 0.24801 0.99992 0.17255 0.0
C80 C 0.25728 0.97983 0.23204 0.0
C81 C 0.28098 0.96883 0.213 0.0
C82 C 0.29575 0.97776 0.13485 0.0
N83 N 0.22308 1.0102 0.19134 0.0
H84 H 0.5111 0.26954 0.03567 0.0
H85 H 0.55903 0.25923 0.29185 0.0
H86 H 0.56387 0.32827 0.12495 0.0
H87 H 0.56189 0.21796 0.20573 0.0
C88 C 0.5414 0.21531 0.21449 0.0
C89 C 0.52585 0.2764 0.08464 0.0
C90 C 0.53689 0.30096 0.06907 0.0
C91 C 0.53474 0.26049 0.16274 0.0
C92 C 0.55322 0.27021 0.22807 0.0
C93 C 0.56366 0.29442 0.21338 0.0
C94 C 0.55588 0.30924 0.13365 0.0
N95 N 0.52504 0.2351 0.17786 0.0
Tb96 Tb 0.03341 1.0196 0.86612 0.0
Tb97 Tb 1.00064 0.02897 0.70919 0.0
C98 C 0.05844 1.0033 0.01074 0.0
C99 C 0.07716 0.98277 0.02222 0.0
C100 C 0.07973 0.96393 0.95003 0.0
C101 C 0.09487 0.9425 0.9678 0.0
C102 C 0.10764 0.93974 0.05794 0.0
C103 C 0.10699 0.9599 0.12581 0.0
C104 C 0.0918 0.9813 0.10778 0.0
C105 C 0.05894 0.03275 0.70332 0.0
C106 C 1.01809 0.97314 0.72746 0.0
C107 C 0.97569 0.04552 0.56471 0.0
C108 C 0.95813 0.06697 0.55152 0.0
C109 C 0.95531 0.08547 0.62495 0.0
C110 C 0.94128 0.10762 0.60621 0.0
C111 C 0.92993 0.11142 0.5139 0.0
C112 C 0.93096 0.09177 0.44394 0.0
C113 C 0.94502 0.06969 0.46285 0.0
C114 C 0.97549 1.01517 0.87144 0.0
C115 C 1.01589 0.07539 0.84739 0.0
O116 O 0.0351 0.99603 0.99074 0.0
O117 O 0.06578 0.02241 0.95599 0.0
O118 O 0.03997 1.01792 0.70866 0.0
O119 O 0.06386 0.04055 0.79079 0.0
O120 O 0.02397 0.98007 0.81806 0.0
O121 O 1.0124 0.99098 0.66247 0.0
O122 O 0.99948 0.05165 0.58204 0.0
O123 O 0.96759 0.02736 0.62263 0.0
O124 O 0.99407 0.03052 0.86657 0.0
O125 O 0.97068 1.0072 0.78409 0.0
O126 O 1.01024 0.06844 0.75671 0.0
O127 O 0.02136 0.05756 0.91263 0.0
H128 H 0.06902 0.9651 0.88222 0.0
H129 H 0.09484 0.9272 0.91452 0.0
H130 H 0.11683 0.95831 0.19554 0.0
H131 H 0.09053 0.99614 0.16234 0.0
H132 H 0.96491 0.08337 0.69485 0.0
H133 H 0.94097 0.12255 0.66103 0.0
H134 H 0.92223 0.09421 0.37241 0.0
H135 H 0.94663 0.05526 0.40685 0.0
Tb136 Tb 0.52087 0.04086 0.84816 0.0
Tb137 Tb 0.50911 1.01267 0.65468 0.0
C138 C 0.54076 0.05103 0.00877 0.0
C139 C 0.56303 0.03748 0.04859 0.0
C140 C 0.56512 1.01096 0.03438 0.0
C141 C 0.58817 0.99849 0.05021 0.0
C142 C 0.60974 1.01231 0.07979 0.0
C143 C 0.6075 0.0387 0.0978 0.0
C144 C 0.58427 0.0512 0.08217 0.0
C145 C 0.5088 0.07074 0.69696 0.0
C146 C 0.5666 0.02118 0.71235 0.0
C147 C 0.49836 1.00154 0.48131 0.0
C148 C 0.48121 0.98274 0.43589 0.0
C149 C 0.46361 0.99112 0.36578 0.0
C150 C 0.44459 0.97469 0.33236 0.0
C151 C 0.44292 0.94937 0.36775 0.0
C152 C 0.46173 0.94049 0.43295 0.0
C153 C 0.48066 0.95708 0.4672 0.0
C154 C 0.5117 0.97963 0.80607 0.0
C155 C 0.46364 0.02713 0.80244 0.0
O156 O 0.51976 0.03743 1.00146 0.0
O157 O 0.54557 0.06431 0.92902 0.0
O158 O 0.52172 0.05035 0.69411 0.0
O159 O 0.50376 0.07569 0.78831 0.0
O160 O 0.55858 0.02616 0.80258 0.0
O161 O 0.55021 1.0187 0.63914 0.0
O162 O 0.48704 1.02006 0.52949 0.0
O163 O 0.51822 0.99229 0.52803 0.0
O164 O 0.51455 1.00337 0.80338 0.0
O165 O 0.5073 0.97306 0.71615 0.0
O166 O 0.47054 0.0224 0.71004 0.0
O167 O 0.4806 0.03222 0.87206 0.0
H168 H 0.54934 0.99998 1.00581 0.0
H169 H 0.58924 0.97811 0.03723 0.0
H170 H 0.62394 0.04984 0.1201 0.0
H171 H 0.58325 0.07173 0.09132 0.0
H172 H 0.46376 1.01079 0.34054 0.0
H173 H 0.43025 0.9825 0.28355 0.0
H174 H 0.4612 0.92106 0.46065 0.0
H175 H 0.49417 0.95006 0.52109 0.0
Tb176 Tb 0.4997 0.5323 0.82059 0.0
Tb177 Tb 0.52884 0.52188 0.62921 0.0
C178 C 0.48793 0.5515 0.98061 0.0
C179 C 0.50061 0.57416 0.0214 0.0
C180 C 0.52727 0.57668 0.01202 0.0
C181 C 0.53913 0.60011 0.02717 0.0
C182 C 0.52457 0.62156 0.05158 0.0
C183 C 0.49804 0.61889 0.06545 0.0
C184 C 0.48613 0.59531 0.05023 0.0
C185 C 0.47088 0.51908 0.66846 0.0
C186 C 0.51838 0.579 0.68585 0.0
C187 C 0.54099 0.51135 0.45673 0.0
C188 C 0.5603 0.49434 0.41441 0.0
C189 C 0.55294 0.4773 0.34101 0.0
C190 C 0.56933 0.45781 0.31238 0.0
C191 C 0.59358 0.45505 0.35631 0.0
C192 C 0.6017 0.47347 0.42425 0.0
C193 C 0.58512 0.4929 0.45354 0.0
C194 C 0.56154 0.5255 0.78065 0.0
C195 C 0.51538 0.47568 0.77669 0.0
O196 O 0.50218 0.53097 0.97406 0.0
O197 O 0.47498 0.55598 0.90006 0.0
O198 O 0.49057 0.53313 0.66636 0.0
O199 O 0.46608 0.51322 0.75937 0.0
O200 O 0.51328 0.57068 0.77588 0.0
O201 O 0.52169 0.56277 0.61287 0.0
O202 O 0.52229 0.4998 0.50385 0.0
O203 O 0.5497 0.53142 0.50342 0.0
O204 O 0.5377 0.52746 0.77843 0.0
O205 O 0.5683 0.52149 0.6907 0.0
O206 O 0.52021 0.48283 0.6844 0.0
O207 O 0.50964 0.49245 0.84587 0.0
H208 H 0.5389 0.56093 0.98758 0.0
H209 H 0.55964 0.60155 0.01764 0.0
H210 H 0.48639 0.63525 0.08397 0.0
H211 H 0.46552 0.59394 0.05573 0.0
H212 H 0.5339 0.47814 0.30992 0.0
H213 H 0.56209 0.44383 0.26101 0.0
H214 H 0.62032 0.47212 0.45846 0.0
H215 H 0.59132 0.50596 0.5102 0.0
Tb216 Tb 1.00106 0.51627 0.87319 0.0
Tb217 Tb 1.01652 0.53752 0.66824 0.0
C218 C 0.98605 0.51956 0.04592 0.0
C219 C 0.96321 0.5334 0.07962 0.0
C220 C 0.96481 0.55092 0.15716 0.0
C221 C 0.94386 0.56643 0.17995 0.0
C222 C 0.92152 0.56506 0.12327 0.0
C223 C 0.9198 0.54739 0.04698 0.0
C224 C 0.94034 0.53155 0.02589 0.0
C225 C 1.01085 0.47839 0.74785 0.0
C226 C 0.95706 0.52947 0.71771 0.0
C227 C 0.02735 0.54255 0.49139 0.0
C228 C 0.05276 0.53813 0.4496 0.0
C229 C 0.0558 0.51929 0.37752 0.0
C230 C 0.0797 0.50814 0.36277 0.0
C231 C 0.10051 0.51568 0.42053 0.0
C232 C 0.09809 0.53617 0.48512 0.0
C233 C 0.07435 0.54737 0.49971 0.0
C234 C 1.01561 0.57068 0.81318 0.0
C235 C 0.06038 0.52004 0.81528 0.0
O236 O 1.00427 0.53418 0.01021 0.0
O237 O 0.98169 0.49939 0.99132 0.0
O238 O 1.01268 0.50216 0.73719 0.0
O239 O 1.00337 0.47483 0.83801 0.0
O240 O 0.96313 0.52126 0.807 0.0
O241 O 0.97464 0.53721 0.65365 0.0
O242 O 1.01673 0.52183 0.52733 0.0
O243 O 0.02524 0.56212 0.55074 0.0
O244 O 0.99997 0.55253 0.79958 0.0
O245 O 0.03153 0.57157 0.74012 0.0
O246 O 0.05381 0.52412 0.72206 0.0
O247 O 0.04302 0.5186 0.88682 0.0
H248 H 0.98233 0.55286 0.1988 0.0
H249 H 0.94517 0.57969 0.24057 0.0
H250 H 0.90241 0.54567 1.00431 0.0
H251 H 0.93831 0.51811 0.96639 0.0
H252 H 0.03937 0.51172 0.33895 0.0
H253 H 0.08158 0.49255 0.3112 0.0
H254 H 0.11426 0.54265 0.52782 0.0
H255 H 0.07265 0.56176 0.55623 0.0
C256 C 0.16905 0.98462 0.35051 0.0
C257 C 0.18141 1.00288 0.29135 0.0
C258 C 0.14884 0.99124 0.41343 0.0
C259 C 0.13994 1.01678 0.4158 0.0
C260 C 0.15194 0.03531 0.35435 0.0
C261 C 0.1728 0.02824 0.2939 0.0
C262 C 0.13731 0.97086 0.47882 0.0
C263 C 0.14261 0.06254 0.35199 0.0
C264 C 0.07332 0.02322 0.53063 0.0
C265 C 0.07914 0.03112 0.62622 0.0
C266 C 0.09274 1.01995 0.45974 0.0
C267 C 0.11875 0.02389 0.48547 0.0
C268 C 0.12459 0.03231 0.58165 0.0
C269 C 0.10477 0.03618 0.65004 0.0
C270 C 0.08545 1.01173 0.35777 0.0
C271 C 0.15191 0.036 0.61418 0.0
H272 H 0.17558 0.96497 0.34892 0.0
H273 H 0.18203 0.04241 0.24763 0.0
H274 H 0.1386 0.97677 0.5568 0.0
H275 H 0.11677 0.96835 0.46137 0.0
H276 H 0.14697 0.95211 0.47066 0.0
H277 H 0.15302 0.07437 0.29702 0.0
H278 H 0.12191 0.06293 0.33443 0.0
H279 H 0.14497 0.07136 0.4253 0.0
H280 H 0.05358 1.01939 0.51149 0.0
H281 H 0.10952 0.04219 0.72384 0.0
H282 H 0.09242 0.99204 0.34453 0.0
H283 H 0.09467 0.02447 0.30281 0.0
H284 H 0.06445 1.01204 0.34603 0.0
H285 H 0.16205 1.0174 0.61213 0.0
H286 H 0.15326 0.04378 0.68974 0.0
H287 H 0.16206 0.04915 0.56332 0.0
C288 C 0.55156 0.18191 0.33874 0.0
C289 C 0.53305 0.19373 0.27956 0.0
C290 C 0.54541 0.16153 0.40213 0.0
C291 C 0.52009 0.15196 0.40535 0.0
C292 C 0.50126 0.16352 0.34441 0.0
C293 C 0.50788 0.1845 0.28313 0.0
C294 C 0.56608 0.15048 0.46694 0.0
C295 C 0.47421 0.15358 0.34353 0.0
C296 C 0.51584 0.08515 0.52149 0.0
C297 C 0.50877 0.09079 0.61839 0.0
C298 C 0.51798 0.10463 0.4496 0.0
C299 C 0.51357 0.13053 0.47548 0.0
C300 C 0.50565 0.13612 0.5726 0.0
C301 C 0.50307 0.11624 0.64213 0.0
C302 C 0.52588 0.09756 0.34674 0.0
C303 C 0.50128 0.16332 0.60491 0.0
H304 H 0.57106 0.18895 0.3366 0.0
H305 H 0.4935 0.19336 0.23708 0.0
H306 H 0.56036 0.15194 0.54517 0.0
H307 H 0.56873 0.12992 0.45059 0.0
H308 H 0.5847 0.16039 0.45711 0.0
H309 H 0.46208 0.1638 0.28925 0.0
H310 H 0.47414 0.13289 0.32596 0.0
H311 H 0.46553 0.15567 0.41735 0.0
H312 H 0.52016 0.06556 0.50221 0.0
H313 H 0.49757 0.12086 0.71668 0.0
H314 H 0.54575 0.10408 0.33313 0.0
H315 H 0.51346 0.10724 0.29213 0.0
H316 H 0.52498 0.0766 0.33445 0.0
H317 H 0.51963 0.17397 0.60261 0.0
H318 H 0.49344 0.1644 0.68058 0.0
H319 H 0.48792 0.17313 0.55416 0.0
C320 C 0.35868 0.50865 0.2534 0.0
C321 C 0.33933 0.52528 0.28472 0.0
C322 C 0.3821 0.50681 0.30514 0.0
C323 C 0.38639 0.52209 0.38964 0.0
C324 C 0.36719 0.53957 0.41866 0.0
C325 C 0.34401 0.54078 0.36656 0.0
C326 C 0.40185 0.48781 0.27168 0.0
C327 C 0.37075 0.55647 0.50717 0.0
C328 C 0.4297 0.50175 0.60195 0.0
C329 C 0.45113 0.51761 0.58942 0.0
C330 C 0.40926 0.50202 0.53462 0.0
C331 C 0.4099 0.51879 0.45253 0.0
C332 C 0.43201 0.53411 0.43724 0.0
C333 C 0.45238 0.53324 0.50544 0.0
C334 C 0.3864 0.48508 0.55394 0.0
C335 C 0.43364 0.55236 0.35142 0.0
H336 H 0.3552 0.49642 0.19083 0.0
H337 H 0.32916 0.55366 0.39133 0.0
H338 H 0.4208 0.49717 0.26455 0.0
H339 H 0.40376 0.47242 0.32751 0.0
H340 H 0.39675 0.47899 0.20029 0.0
H341 H 0.35488 0.57033 0.51598 0.0
H342 H 0.37185 0.54452 0.57452 0.0
H343 H 0.38897 0.56724 0.50116 0.0
H344 H 0.42861 0.48948 0.66616 0.0
H345 H 0.46883 0.54557 0.49498 0.0
H346 H 0.38135 0.47422 0.48694 0.0
H347 H 0.36967 0.49703 0.57327 0.0
H348 H 0.38985 0.47132 0.61484 0.0
H349 H 0.42856 0.54249 0.28223 0.0
H350 H 0.45301 0.56084 0.34345 0.0
H351 H 0.4197 0.56807 0.36173 0.0
C352 C 0.02404 0.35959 0.3673 0.0
C353 C 1.00363 0.36151 0.30091 0.0
C354 C 0.02845 0.37883 0.43813 0.0
C355 C 1.01198 0.40035 0.44324 0.0
C356 C 0.99201 0.40268 0.37377 0.0
C357 C 0.98811 0.38334 0.304 0.0
C358 C 0.05046 0.37599 0.50862 0.0
C359 C 0.97421 0.42535 0.37485 0.0
C360 C 0.99997 0.43491 0.68523 0.0
C361 C 1.01284 0.45819 0.67144 0.0
C362 C 1.00028 0.41573 0.61308 0.0
C363 C 1.0142 0.41957 0.52484 0.0
C364 C 0.02827 0.44263 0.51257 0.0
C365 C 0.02725 0.46171 0.58559 0.0
C366 C 0.98492 0.39165 0.63001 0.0
C367 C 0.04389 0.44778 0.42154 0.0
H368 H 0.03622 0.34289 0.36533 0.0
H369 H 0.97237 0.38504 0.25267 0.0
H370 H 0.06254 0.39345 0.5067 0.0
H371 H 0.04308 0.37388 0.5846 0.0
H372 H 0.06256 0.35918 0.49136 0.0
H373 H 0.9601 0.42479 0.31402 0.0
H374 H 0.96369 0.42589 0.44557 0.0
H375 H 0.98538 0.44333 0.36882 0.0
H376 H 0.98895 0.43194 0.75174 0.0
H377 H 0.03795 0.47927 0.5757 0.0
H378 H 0.99719 0.37459 0.62046 0.0
H379 H 0.96937 0.39046 0.57484 0.0
H380 H 0.97626 0.39093 0.70446 0.0
H381 H 0.05031 0.42995 0.38551 0.0
H382 H 0.06097 0.45948 0.43941 0.0
H383 H 0.03213 0.45877 0.3684 0.0
C384 C 0.85798 0.02323 0.25881 0.0
C385 C 0.85932 1.0026 0.32479 0.0
C386 C 0.8774 0.0274 0.18803 0.0
C387 C 0.89869 1.01062 0.18319 0.0
C388 C 0.90047 0.99041 0.2524 0.0
C389 C 0.88082 0.98663 0.32159 0.0
C390 C 0.87476 0.04928 0.11636 0.0
C391 C 0.92276 0.97214 0.25131 0.0
C392 C 0.93374 0.99979 0.94044 0.0
C393 C 0.95624 1.01413 0.95224 0.0
C394 C 0.91474 0.99904 0.01372 0.0
C395 C 0.91818 1.01286 0.10202 0.0
C396 C 0.94083 0.02752 0.11402 0.0
C397 C 0.95957 0.02794 0.03931 0.0
C398 C 0.89103 0.98318 0.99686 0.0
C399 C 0.94566 0.04222 0.20691 0.0
H400 H 0.84144 0.03563 0.26036 0.0
H401 H 0.88203 0.97066 0.37238 0.0
H402 H 0.89229 0.06124 0.11704 0.0
H403 H 0.87256 0.04169 0.0409 0.0
H404 H 0.85805 0.06155 0.13322 0.0
H405 H 0.9222 0.95845 0.31386 0.0
H406 H 0.92266 0.96112 0.18192 0.0
H407 H 0.94104 0.98288 0.25408 0.0
H408 H 0.93091 0.9891 0.87335 0.0
H409 H 0.97684 0.0391 0.04912 0.0
H410 H 0.87374 0.99518 1.00546 0.0
H411 H 0.88989 0.96769 0.0526 0.0
H412 H 0.8907 0.97442 0.92275 0.0
H413 H 0.92832 0.05281 0.22971 0.0
H414 H 0.96174 0.05597 0.19886 0.0
H415 H 0.95047 0.02852 0.26643 0.0
C416 C 0.54992 0.88927 0.25431 0.0
C417 C 0.5313 0.87143 0.28362 0.0
C418 C 0.54487 0.90799 0.18248 0.0
C419 C 0.52037 0.90931 0.13862 0.0
C420 C 0.50105 0.89209 0.17107 0.0
C421 C 0.50677 0.87321 0.2426 0.0
C422 C 0.56614 0.92579 0.1509 0.0
C423 C 0.47447 0.89327 0.12862 0.0
C424 C 0.50701 0.97001 0.9875 0.0
C425 C 0.51295 0.96196 0.89211 0.0
C426 C 0.50839 0.95296 0.06824 0.0
C427 C 0.51599 0.92722 0.05335 0.0
C428 C 0.52133 0.91896 0.95646 0.0
C429 C 0.51953 0.9363 0.8774 0.0
C430 C 0.50218 0.96266 0.16959 0.0
C431 C 0.52968 0.89188 0.93641 0.0
H432 H 0.56889 0.88813 0.2859 0.0
H433 H 0.49219 0.85969 0.26526 0.0
H434 H 0.57086 0.92245 0.07257 0.0
H435 H 0.55993 0.94597 0.1574 0.0
H436 H 0.58376 0.92313 0.19517 0.0
H437 H 0.46115 0.87979 0.16578 0.0
H438 H 0.46675 0.91292 0.13518 0.0
H439 H 0.4751 0.88861 0.04929 0.0
H440 H 0.50121 0.98961 0.99902 0.0
H441 H 0.52387 0.92987 0.80372 0.0
H442 H 0.51992 0.96373 0.21387 0.0
H443 H 0.48899 0.9493 0.20786 0.0
H444 H 0.49335 0.98194 0.1675 0.0
H445 H 0.5481 0.88807 0.97397 0.0
H446 H 0.53213 0.88813 0.85676 0.0
H447 H 0.51545 0.87817 0.96636 0.0
C448 C 0.66941 0.52127 0.2097 0.0
C449 C 0.67056 0.54539 0.2541 0.0
C450 C 0.65051 0.51564 0.13844 0.0
C451 C 0.63263 0.53469 0.10957 0.0
C452 C 0.63346 0.5588 0.15629 0.0
C453 C 0.65218 0.56372 0.2279 0.0
C454 C 0.64992 0.48946 0.09275 0.0
C455 C 0.61509 0.57984 0.12815 0.0
C456 C 0.60466 0.53479 0.85028 0.0
C457 C 0.57925 0.52726 0.86613 0.0
C458 C 0.6222 0.53673 0.92827 0.0
C459 C 0.61445 0.53048 0.02527 0.0
C460 C 0.58894 0.52206 0.04136 0.0
C461 C 0.57164 0.52065 0.96171 0.0
C462 C 0.64895 0.5461 0.90696 0.0
C463 C 0.57983 0.51482 0.14285 0.0
H464 H 0.68333 0.50689 0.22994 0.0
H465 H 0.65284 0.58239 0.262 0.0
H466 H 0.63051 0.48106 0.09967 0.0
H467 H 0.65428 0.49098 0.01323 0.0
H468 H 0.66388 0.47624 0.12729 0.0
H469 H 0.61749 0.59715 0.17413 0.0
H470 H 0.61809 0.58529 0.05016 0.0
H471 H 0.59509 0.57304 0.13523 0.0
H472 H 0.61076 0.53969 0.77646 0.0
H473 H 0.55223 0.51417 0.97411 0.0
H474 H 0.66315 0.53202 0.93385 0.0
H475 H 0.65247 0.56426 0.94655 0.0
H476 H 0.65226 0.54943 0.82736 0.0
H477 H 0.59327 0.50107 0.17726 0.0
H478 H 0.56043 0.50619 0.14183 0.0
H479 H 0.57936 0.53202 0.19004 0.0
C480 C 1.01279 0.68375 0.22343 0.0
C481 C 1.00555 0.70602 0.17283 0.0
C482 C 1.01359 0.65983 0.17523 0.0
C483 C 1.00706 0.65814 0.07418 0.0
C484 C 0.999 0.68052 0.02423 0.0
C485 C 0.99838 0.704 0.07392 0.0
C486 C 0.02212 0.63649 0.23154 0.0
C487 C 0.99167 0.67984 0.91704 0.0
C488 C 0.0347 0.60759 0.90322 0.0
C489 C 1.01392 0.59099 0.88939 0.0
C490 C 0.03314 0.6286 0.96714 0.0
C491 C 1.01006 0.63359 0.01796 0.0
C492 C 0.98924 0.61643 0.00646 0.0
C493 C 0.9915 0.59516 0.94337 0.0
C494 C 0.05593 0.64614 0.97683 0.0
C495 C 0.96422 0.62109 0.05795 0.0
H496 H 1.01841 0.68508 0.29977 0.0
H497 H 0.99274 0.7211 0.03428 0.0
H498 H 1.00776 0.62099 0.22428 0.0
H499 H 0.0403 0.62929 0.20029 0.0
H500 H 0.02505 0.64052 0.31073 0.0
H501 H 0.98445 0.69856 0.89022 0.0
H502 H 1.0085 0.67444 0.87219 0.0
H503 H 0.97669 0.66517 0.90472 0.0
H504 H 0.05218 0.60442 0.86234 0.0
H505 H 0.97537 0.5824 0.93326 0.0
H506 H 0.06045 0.64933 0.05539 0.0
H507 H 0.0514 0.66503 0.94388 0.0
H508 H 0.07317 0.63842 0.93983 0.0
H509 H 0.95715 0.64062 0.04169 0.0
H510 H 0.96696 0.61965 0.1385 0.0
H511 H 0.94946 0.60714 0.0352 0.0
C512 C 0.91748 0.24859 0.29249 0.0
C513 C 0.94116 0.25805 0.32382 0.0
C514 C 0.90543 0.2288 0.34478 0.0
C515 C 0.91816 0.21785 0.42617 0.0
C516 C 0.93901 0.23102 0.46885 0.0
C517 C 0.95024 0.25131 0.417 0.0
C518 C 0.88159 0.21681 0.3034 0.0
C519 C 0.95233 0.22084 0.55905 0.0
C520 C 0.90675 0.15275 0.54351 0.0
C521 C 0.9222 0.13741 0.48382 0.0
C522 C 0.90334 0.17882 0.52181 0.0
C523 C 0.91656 0.18977 0.4411 0.0
C524 C 0.93125 0.17391 0.37847 0.0
C525 C 0.93351 0.14795 0.39998 0.0
C526 C 0.8865 0.19446 0.5882 0.0
C527 C 0.94616 0.18445 0.29204 0.0
H528 H 0.91009 0.25431 0.22137 0.0
H529 H 0.96833 0.25905 0.4421 0.0
H530 H 0.86971 0.20831 0.36276 0.0
H531 H 0.8701 0.23109 0.2622 0.0
H532 H 0.88694 0.20135 0.25188 0.0
H533 H 0.96586 0.23502 0.59027 0.0
H534 H 0.93818 0.21553 0.61621 0.0
H535 H 0.96322 0.20338 0.53968 0.0
H536 H 0.89788 0.14452 0.60832 0.0
H537 H 0.94575 0.13618 0.35458 0.0
H538 H 0.88086 0.21297 0.55471 0.0
H539 H 0.89674 0.19822 0.65795 0.0
H540 H 0.86894 0.18354 0.60716 0.0
H541 H 0.93291 0.19291 0.2375 0.0
H542 H 0.95758 0.16957 0.25435 0.0
H543 H 0.95945 0.19965 0.31679 0.0
C544 C 0.29884 0.92649 0.25701 0.0
C545 C 0.29374 0.95181 0.28355 0.0
C546 C 0.3213 0.91446 0.28922 0.0
C547 C 0.33937 0.92885 0.34292 0.0
C548 C 0.33212 0.95276 0.38291 0.0
C549 C 0.3089 0.96366 0.35435 0.0
C550 C 0.32701 0.88772 0.25509 0.0
C551 C 0.35035 0.96865 0.4434 0.0
C552 C 0.40706 0.92097 0.42426 0.0
C553 C 0.41945 0.93423 0.34783 0.0
C554 C 0.38101 0.91479 0.41729 0.0
C555 C 0.36708 0.92317 0.33435 0.0
C556 C 0.38047 0.93275 0.2512 0.0
C557 C 0.4067 0.93747 0.25838 0.0
C558 C 0.36814 0.90185 0.50325 0.0
C559 C 0.36683 0.94195 0.15998 0.0
H560 H 0.28684 0.91718 0.203 0.0
H561 H 0.30467 0.9832 0.37508 0.0
H562 H 0.34116 0.87815 0.30346 0.0
H563 H 0.30923 0.87611 0.25334 0.0
H564 H 0.33478 0.88834 0.17935 0.0
H565 H 0.34141 0.98652 0.47048 0.0
H566 H 0.3571 0.95755 0.50771 0.0
H567 H 0.36733 0.97389 0.39863 0.0
H568 H 0.41683 0.91754 0.49313 0.0
H569 H 0.41658 0.94644 0.19724 0.0
H570 H 0.38037 0.88615 0.5316 0.0
H571 H 0.34916 0.8939 0.48352 0.0
H572 H 0.36572 0.91573 0.56384 0.0
H573 H 0.3519 0.9283 0.13662 0.0
H574 H 0.38021 0.94484 0.09754 0.0
H575 H 0.35751 0.96049 0.17594 0.0
C576 C 0.56789 0.32396 0.35003 0.0
C577 C 0.57994 0.30692 0.28661 0.0
C578 C 0.58039 0.34624 0.37986 0.0
C579 C 0.60586 0.35072 0.3482 0.0
C580 C 0.61959 0.33084 0.30218 0.0
C581 C 0.60619 0.30929 0.26885 0.0
C582 C 0.56499 0.36648 0.43204 0.0
C583 C 0.64752 0.33359 0.2773 0.0
C584 C 0.60587 0.41769 0.25411 0.0
C585 C 0.60776 0.43073 0.34326 0.0
C586 C 0.60839 0.39112 0.25113 0.0
C587 C 0.61457 0.37764 0.33863 0.0
C588 C 0.6221 0.39142 0.42275 0.0
C589 C 0.61802 0.41791 0.42513 0.0
C590 C 0.60026 0.37757 0.15854 0.0
C591 C 0.63156 0.37814 0.51417 0.0
H592 H 0.54757 0.32182 0.36387 0.0
H593 H 0.61558 0.29583 0.22053 0.0
H594 H 0.57502 0.37271 0.49941 0.0
H595 H 0.56272 0.38347 0.38368 0.0
H596 H 0.54567 0.35957 0.45332 0.0
H597 H 0.65729 0.31484 0.28394 0.0
H598 H 0.64962 0.34009 0.2001 0.0
H599 H 0.65718 0.34759 0.32582 0.0
H600 H 0.59933 0.42783 0.18924 0.0
H601 H 0.62045 0.42783 0.49412 0.0
H602 H 0.581 0.36917 0.16994 0.0
H603 H 0.61357 0.36189 0.1403 0.0
H604 H 0.59926 0.39076 0.0945 0.0
H605 H 0.63844 0.35851 0.4989 0.0
H606 H 0.61596 0.37709 0.5692 0.0
H607 H 0.64735 0.38933 0.54759 0.0
C608 C 0.22272 0.43939 0.29551 0.0
C609 C 0.24144 0.4585 0.30341 0.0
C610 C 0.19974 0.44176 0.34748 0.0
C611 C 0.19659 0.46285 0.41084 0.0
C612 C 0.21831 0.477 0.44014 0.0
C613 C 0.24092 0.47445 0.38597 0.0
C614 C 0.17748 0.42503 0.31918 0.0
C615 C 0.21624 0.49869 0.51217 0.0
C616 C 0.14105 0.50506 0.33917 0.0
C617 C 0.12448 0.50143 0.41766 0.0
C618 C 0.16455 0.49256 0.33661 0.0
C619 C 0.17132 0.47557 0.41425 0.0
C620 C 0.15424 0.47153 0.49336 0.0
C621 C 0.13099 0.48485 0.49466 0.0
C622 C 0.18175 0.49745 0.24941 0.0
C623 C 0.16047 0.45349 0.57668 0.0
H624 H 0.22382 0.42587 0.23554 0.0
H625 H 0.25597 0.48843 0.39672 0.0
H626 H 0.16386 0.42266 0.38097 0.0
H627 H 0.16714 0.43408 0.25699 0.0
H628 H 0.18411 0.40591 0.29505 0.0
H629 H 0.20907 0.51594 0.47331 0.0
H630 H 0.20266 0.49405 0.57208 0.0
H631 H 0.23514 0.50339 0.54461 0.0
H632 H 0.13572 0.51812 0.2807 0.0
H633 H 0.11788 0.48234 0.55564 0.0
H634 H 0.18109 0.48056 0.2007 0.0
H635 H 0.20177 0.50066 0.27245 0.0
H636 H 0.1757 0.51438 0.20595 0.0
H637 H 0.16914 0.4356 0.54892 0.0
H638 H 0.14326 0.44859 0.6207 0.0
H639 H 0.17459 0.46255 0.62613 0.0
C640 C 0.11061 0.79948 0.25608 0.0
C641 C 0.08566 0.79383 0.22583 0.0
C642 C 0.12458 0.81891 0.20918 0.0
C643 C 0.11255 0.83351 0.13491 0.0
C644 C 0.08944 0.82458 0.09283 0.0
C645 C 0.07635 0.80443 0.13857 0.0
C646 C 0.15026 0.82647 0.24977 0.0
C647 C 0.07605 0.83915 0.01193 0.0
C648 C 0.10577 0.90402 0.17629 0.0
C649 C 0.11595 0.914 0.08926 0.0
C650 C 0.1064 0.87784 0.19572 0.0
C651 C 0.11822 0.86123 0.12731 0.0
C652 C 0.13122 0.87155 0.04502 0.0
C653 C 0.12959 0.89793 0.02595 0.0
C654 C 0.092 0.86793 0.28454 0.0
C655 C 0.14591 0.85467 0.97558 0.0
H656 H 0.11797 0.79085 0.32281 0.0
H657 H 0.05713 0.79977 0.11483 0.0
H658 H 0.16252 0.83503 0.19176 0.0
H659 H 0.14766 0.84087 0.30842 0.0
H660 H 0.16018 0.80971 0.28236 0.0
H661 H 0.06068 0.8276 0.97741 0.0
H662 H 0.06728 0.85665 0.04297 0.0
H663 H 0.0897 0.8452 0.9541 0.0
H664 H 0.09508 0.91637 0.22502 0.0
H665 H 0.13788 0.90582 0.95943 0.0
H666 H 0.10464 0.85599 0.33101 0.0
H667 H 0.07571 0.85587 0.26059 0.0
H668 H 0.08435 0.88357 0.3308 0.0
H669 H 0.16247 0.8463 0.01497 0.0
H670 H 0.1531 0.86538 0.91057 0.0
H671 H 0.13394 0.83851 0.95006 0.0
C672 C 0.7303 0.93974 0.257 0.0
C673 C 0.74952 0.95838 0.24961 0.0
C674 C 0.70852 0.94152 0.19763 0.0
C675 C 0.70688 0.96176 0.12879 0.0
C676 C 0.72923 0.97548 0.10319 0.0
C677 C 0.75066 0.97351 0.16433 0.0
C678 C 0.68564 0.92516 0.22214 0.0
C679 C 0.7288 0.9961 0.02554 0.0
C680 C 0.64295 0.98155 0.02048 0.0
C681 C 0.63456 0.99922 0.09078 0.0
C682 C 0.66637 0.96883 0.0315 0.0
C683 C 0.68179 0.9743 0.11393 0.0
C684 C 0.67333 0.99227 0.18477 0.0
C685 C 0.64977 1.00431 0.17248 0.0
C686 C 0.67458 0.94998 0.95423 0.0
C687 C 0.6887 0.9985 0.27553 0.0
H688 H 0.73006 0.92701 0.32005 0.0
H689 H 0.76605 0.98721 0.15506 0.0
H690 H 0.67362 0.93524 0.2768 0.0
H691 H 0.67381 0.92158 0.15605 0.0
H692 H 0.69155 0.90658 0.25455 0.0
H693 H 0.74837 1.00052 0.9986 0.0
H694 H 0.71671 0.99043 0.9625 0.0
H695 H 0.72064 1.01379 0.05736 0.0
H696 H 0.63132 0.97787 0.95619 0.0
H697 H 0.64306 1.01753 0.22781 0.0
H698 H 0.68482 0.93349 0.98702 0.0
H699 H 0.68783 0.95958 0.90225 0.0
H700 H 0.65801 0.94274 0.91161 0.0
H701 H 0.68786 0.982 0.32676 0.0
H702 H 0.68127 1.01553 0.31448 0.0
H703 H 0.70898 1.00226 0.25709 0.0
C704 C 0.56105 0.76333 0.13235 0.0
C705 C 0.57596 0.76246 0.21788 0.0
C706 C 0.55953 0.74185 0.07157 0.0
C707 C 0.5734 0.71972 0.09806 0.0
C708 C 0.59339 0.72167 0.16743 0.0
C709 C 0.59479 0.74354 0.22612 0.0
C710 C 0.53916 0.74109 0.99344 0.0
C711 C 0.6098 0.699 0.19344 0.0
C712 C 0.53124 0.66206 0.1419 0.0
C713 C 0.53709 0.64671 0.0616 0.0
C714 C 0.5429 0.68586 0.1537 0.0
C715 C 0.56115 0.69445 0.08351 0.0
C716 C 0.56729 0.67892 1.00225 0.0
C717 C 0.55503 0.65521 0.99193 0.0
C718 C 0.53604 0.7013 0.24342 0.0
C719 C 0.58641 0.68735 0.92568 0.0
H720 H 0.5472 0.77849 0.12248 0.0
H721 H 0.60735 0.74354 0.28942 0.0
H722 H 0.54498 0.72881 0.93129 0.0
H723 H 0.52136 0.73298 0.02538 0.0
H724 H 0.53485 0.76056 0.9652 0.0
H725 H 0.62825 0.70519 0.22597 0.0
H726 H 0.59964 0.68702 0.24852 0.0
H727 H 0.61366 0.68703 0.12814 0.0
H728 H 0.51777 0.65524 0.19664 0.0
H729 H 0.55927 0.64341 0.92876 0.0
H730 H 0.53193 0.72144 0.22371 0.0
H731 H 0.55238 0.70103 0.29514 0.0
H732 H 0.51905 0.69353 0.28233 0.0
H733 H 0.5772 0.70115 0.87496 0.0
H734 H 0.59344 0.67098 0.88166 0.0
H735 H 0.60301 0.69712 0.95955 0.0
C736 C 0.78107 0.59739 0.18619 0.0
C737 C 0.77792 0.60554 0.28347 0.0
C738 C 0.8046 0.60092 0.13873 0.0
C739 C 0.82465 0.61308 0.19035 0.0
C740 C 0.81883 0.6274 0.27512 0.0
C741 C 0.79499 0.62388 0.32031 0.0
C742 C 0.80949 0.58689 0.04411 0.0
C743 C 0.83917 0.64237 0.328 0.0
C744 C 0.88189 0.56969 0.21727 0.0
C745 C 0.89875 0.57991 0.14857 0.0
C746 C 0.85795 0.5807 0.23236 0.0
C747 C 0.85093 0.60293 0.17838 0.0
C748 C 0.86838 0.61382 0.1106 0.0
C749 C 0.89212 0.60194 0.09565 0.0
C750 C 0.84013 0.568 0.30506 0.0
C751 C 0.86218 0.63785 0.05379 0.0
H752 H 0.76739 0.58425 0.15434 0.0
H753 H 0.7919 0.6315 0.39324 0.0
H754 H 0.82332 0.59741 0.99716 0.0
H755 H 0.81774 0.56785 0.06117 0.0
H756 H 0.79151 0.58395 1.00231 0.0
H757 H 0.83062 0.65742 0.37489 0.0
H758 H 0.85022 0.62922 0.37597 0.0
H759 H 0.85263 0.65136 0.27512 0.0
H760 H 0.88707 0.55231 0.25604 0.0
H761 H 0.90513 0.60948 0.04092 0.0
H762 H 0.82086 0.56528 0.27326 0.0
H763 H 0.83843 0.58031 0.37066 0.0
H764 H 0.8471 0.54896 0.32913 0.0
H765 H 0.87388 0.63947 0.98596 0.0
H766 H 0.86647 0.65464 0.10044 0.0
H767 H 0.84169 0.63878 0.03354 0.0
C768 C 0.02213 0.21978 0.06228 0.0
C769 C 0.99775 0.23086 0.05701 0.0
C770 C 0.02719 0.19579 0.01866 0.0
C771 C 1.00734 0.18225 0.96994 0.0
C772 C 0.98324 0.19419 0.95909 0.0
C773 C 0.97893 0.21833 1.00113 0.0
C774 C 0.05343 0.18428 0.02941 0.0
C775 C 0.96128 0.18067 0.90937 0.0
C776 C 1.01865 0.12277 0.81087 0.0
C777 C 1.01428 0.10277 0.87799 0.0
C778 C 1.01747 0.14865 0.84025 0.0
C779 C 1.01083 0.15484 0.93841 0.0
C780 C 1.00611 0.13463 1.00595 0.0
C781 C 1.00831 0.109 0.97547 0.0
C782 C 0.0233 0.16936 0.76611 0.0
C783 C 0.99794 0.14005 0.11007 0.0
H784 H 0.03681 0.22909 0.10537 0.0
H785 H 0.9601 0.22679 0.99534 0.0
H786 H 0.05268 0.16824 0.08286 0.0
H787 H 0.06002 0.1764 0.95829 0.0
H788 H 0.06765 0.19847 0.05563 0.0
H789 H 0.94434 0.19322 0.90044 0.0
H790 H 0.9671 0.17368 0.83602 0.0
H791 H 0.9556 0.16374 0.95372 0.0
H792 H 0.02342 0.11819 0.73555 0.0
H793 H 1.00463 0.09374 0.02773 0.0
H794 H 0.03778 0.18275 0.79605 0.0
H795 H 1.00582 0.18062 0.75077 0.0
H796 H 0.03051 0.1615 0.69576 0.0
H797 H 1.01237 0.15218 0.14713 0.0
H798 H 0.99519 0.12231 0.15398 0.0
H799 H 0.97971 0.15082 0.10936 0.0
C800 C 0.31954 0.99038 0.94273 0.0
C801 C 0.30745 1.0082 1.00421 0.0
C802 C 0.34362 0.99531 0.90039 0.0
C803 C 0.35583 1.01912 0.91638 0.0
C804 C 0.34249 0.03822 0.9697 0.0
C805 C 0.31864 0.03246 0.01394 0.0
C806 C 0.35703 0.97397 0.84691 0.0
C807 C 0.35419 0.06421 0.98584 0.0
C808 C 0.42902 1.01878 0.9267 0.0
C809 C 0.43599 0.02591 0.83078 0.0
C810 C 0.40318 1.01668 0.95518 0.0
C811 C 0.38348 0.02268 0.88733 0.0
C812 C 0.39041 0.03056 0.79098 0.0
C813 C 0.41648 0.03164 0.76341 0.0
C814 C 0.39702 1.00757 0.05791 0.0
C815 C 0.37027 0.03783 0.71686 0.0
H816 H 0.31116 0.97152 0.93518 0.0
H817 H 0.30974 0.04628 0.06204 0.0
H818 H 0.36504 0.98088 0.77627 0.0
H819 H 0.37322 0.96701 0.89225 0.0
H820 H 0.34409 0.95759 0.83198 0.0
H821 H 0.3398 0.07828 0.01127 0.0
H822 H 0.36938 0.06277 0.04231 0.0
H823 H 0.36316 0.07146 0.91728 0.0
H824 H 0.44385 1.01413 0.9793 0.0
H825 H 0.42161 0.03735 0.68938 0.0
H826 H 0.38311 0.99158 0.05545 0.0
H827 H 0.38803 0.02328 0.09986 0.0
H828 H 0.41428 1.00108 0.09832 0.0
H829 H 0.35872 1.0208 0.69742 0.0
H830 H 0.37869 0.04589 0.64851 0.0
H831 H 0.35704 0.05211 0.74884 0.0
C832 C 0.54838 0.33109 0.93306 0.0
C833 C 0.52915 0.31977 0.9911 0.0
C834 C 0.54489 0.35499 0.88696 0.0
C835 C 0.52126 0.36792 0.89638 0.0
C836 C 0.5009 0.35539 0.94654 0.0
C837 C 0.50515 0.33164 0.99412 0.0
C838 C 0.56743 0.36745 0.83654 0.0
C839 C 0.47514 0.36795 0.95617 0.0
C840 C 0.52308 0.44115 0.90231 0.0
C841 C 0.51681 0.44801 0.80542 0.0
C842 C 0.52464 0.41535 0.93217 0.0
C843 C 0.51902 0.39555 0.8646 0.0
C844 C 0.51236 0.40234 0.76679 0.0
C845 C 0.51172 0.42839 0.73806 0.0
C846 C 0.53273 0.40931 0.03616 0.0
C847 C 0.50586 0.38207 0.69246 0.0
H848 H 0.5671 0.32226 0.93124 0.0
H849 H 0.49029 0.32338 0.03987 0.0
H850 H 0.56176 0.37571 0.76475 0.0
H851 H 0.57462 0.38335 0.88264 0.0
H852 H 0.58333 0.35379 0.82446 0.0
H853 H 0.46029 0.35429 0.98207 0.0
H854 H 0.4764 0.38383 0.0096 0.0
H855 H 0.46904 0.37622 0.88478 0.0
H856 H 0.52733 0.45606 0.95487 0.0
H857 H 0.50672 0.4334 0.66323 0.0
H858 H 0.54984 0.39683 0.03556 0.0
H859 H 0.5173 0.3987 0.07465 0.0
H860 H 0.53728 0.42678 0.07886 0.0
H861 H 0.52283 0.36999 0.67822 0.0
H862 H 0.49933 0.39039 0.62165 0.0
H863 H 0.49063 0.36936 0.72178 0.0
C864 C 0.20555 0.47961 0.94667 0.0
C865 C 0.21936 0.49911 0.99398 0.0
C866 C 0.18071 0.48368 0.90954 0.0
C867 C 0.16907 0.50801 0.91842 0.0
C868 C 0.18363 0.52828 0.95955 0.0
C869 C 0.20844 0.52359 0.99717 0.0
C870 C 0.16622 0.46124 0.86792 0.0
C871 C 0.17242 0.55467 0.96922 0.0
C872 C 0.10759 0.52054 0.77022 0.0
C873 C 0.08825 0.5169 0.84091 0.0
C874 C 0.1338 0.51805 0.79429 0.0
C875 C 0.14119 0.51156 0.8915 0.0
C876 C 0.12175 0.5076 0.96275 0.0
C877 C 0.09575 0.51049 0.93702 0.0
C878 C 0.15368 0.52248 0.71573 0.0
C879 C 0.12838 0.50049 0.06704 0.0
H880 H 0.21358 0.46054 0.94463 0.0
H881 H 0.21856 0.53869 0.0351 0.0
H882 H 0.15218 0.45437 0.92318 0.0
H883 H 0.1554 0.46684 0.80132 0.0
H884 H 0.17911 0.44514 0.84916 0.0
H885 H 0.18714 0.56909 0.98879 0.0
H886 H 0.16307 0.56059 0.89969 0.0
H887 H 0.15758 0.55451 0.02737 0.0
H888 H 0.10228 0.52551 0.69582 0.0
H889 H 0.08124 0.50758 0.99277 0.0
H890 H 0.16629 0.50556 0.70947 0.0
H891 H 0.16594 0.53893 0.73626 0.0
H892 H 0.14507 0.52639 0.64284 0.0
H893 H 0.11121 0.49588 0.11182 0.0
H894 H 0.13847 0.51674 0.1016 0.0
H895 H 0.14145 0.48383 0.0685 0.0
C896 C 1.00848 0.8296 0.50836 0.0
C897 C 0.03279 0.81829 0.50721 0.0
C898 C 1.00427 0.85333 0.55532 0.0
C899 C 0.02492 0.86641 0.60079 0.0
C900 C 0.04901 0.85417 0.6056 0.0
C901 C 0.05248 0.83025 0.56055 0.0
C902 C 0.97802 0.86509 0.55121 0.0
C903 C 0.0718 0.86723 0.65139 0.0
C904 C 0.02431 0.93966 0.59775 0.0
C905 C 1.01955 0.94576 0.69637 0.0
C906 C 0.0261 0.91408 0.56628 0.0
C907 C 0.02221 0.89377 0.63412 0.0
C908 C 1.01693 0.89981 0.73365 0.0
C909 C 1.01611 0.92565 0.76381 0.0
C910 C 0.03269 0.90882 0.46034 0.0
C911 C 1.0121 0.87897 0.80834 0.0
H912 H 0.9931 0.82076 0.46738 0.0
H913 H 0.07128 0.8216 0.56159 0.0
H914 H 0.97265 0.87287 0.624 0.0
H915 H 0.97807 0.88124 0.49815 0.0
H916 H 0.96327 0.85108 0.52796 0.0
H917 H 0.08863 0.8544 0.65666 0.0
H918 H 0.07718 0.88415 0.60637 0.0
H919 H 0.06708 0.87419 0.72594 0.0
H920 H 0.02724 0.95498 0.54508 0.0
H921 H 1.0123 0.93011 0.84004 0.0
H922 H 1.01704 0.89788 0.42516 0.0
H923 H 0.05018 0.89693 0.45641 0.0
H924 H 0.03596 0.92664 0.41743 0.0
H925 H 0.99725 0.86562 0.781 0.0
H926 H 1.00585 0.88672 0.88022 0.0
H927 H 0.02977 0.8677 0.81996 0.0
C928 C 0.71257 0.98267 0.60166 0.0
C929 C 0.72637 1.00189 0.55201 0.0
C930 C 0.68776 0.98696 0.63823 0.0
C931 C 0.67622 1.01127 0.6266 0.0
C932 C 0.69086 0.03137 0.58383 0.0
C933 C 0.71564 0.02642 0.54654 0.0
C934 C 0.67308 0.96467 0.68094 0.0
C935 C 0.67974 0.05774 0.57155 0.0
C936 C 0.60335 1.01244 0.59712 0.0
C937 C 0.59474 1.01881 0.69167 0.0
C938 C 0.6296 1.01017 0.57532 0.0
C939 C 0.64815 1.01469 0.64925 0.0
C940 C 0.63964 0.02127 0.74489 0.0
C941 C 0.61317 0.02312 0.76503 0.0
C942 C 0.63744 1.00293 0.47245 0.0
C943 C 0.65855 0.02625 0.82618 0.0
H944 H 0.72052 0.96358 0.60543 0.0
H945 H 0.72583 0.0413 0.50701 0.0
H946 H 0.66163 0.97055 0.74543 0.0
H947 H 0.65961 0.95733 0.62481 0.0
H948 H 0.68595 0.94882 0.70323 0.0
H949 H 0.69463 0.07212 0.55275 0.0
H950 H 0.66536 0.05751 0.51179 0.0
H951 H 0.66987 0.06376 0.63972 0.0
H952 H 0.58951 1.00906 0.53948 0.0
H953 H 0.60694 0.02806 0.83842 0.0
H954 H 0.65089 0.98657 0.47415 0.0
H955 H 0.6475 1.01927 0.43754 0.0
H956 H 0.62084 0.99775 0.42578 0.0
H957 H 0.64907 0.0323 0.89524 0.0
H958 H 0.67226 0.04133 0.80313 0.0
H959 H 0.66979 1.00872 0.84131 0.0
C960 C 0.55254 0.72643 0.57377 0.0
C961 C 0.53303 0.73952 0.52349 0.0
C962 C 0.54894 0.70148 0.61087 0.0
C963 C 0.52505 0.68906 0.59916 0.0
C964 C 0.50462 0.70298 0.55581 0.0
C965 C 0.50888 0.72791 0.51793 0.0
C966 C 0.5716 0.68763 0.65399 0.0
C967 C 0.47865 0.69092 0.54337 0.0
C968 C 0.52626 0.61615 0.5705 0.0
C969 C 0.51992 0.60725 0.66503 0.0
C970 C 0.52775 0.64249 0.54846 0.0
C971 C 0.52247 0.66085 0.62212 0.0
C972 C 0.51594 0.65205 0.71776 0.0
C973 C 0.51486 0.62549 0.73813 0.0
C974 C 0.53503 0.65065 0.44567 0.0
C975 C 0.51022 0.67073 0.79883 0.0
H976 H 0.57139 0.73503 0.57731 0.0
H977 H 0.49381 0.73752 0.47774 0.0
H978 H 0.58686 0.70109 0.67717 0.0
H979 H 0.56593 0.67572 0.71793 0.0
H980 H 0.57967 0.67466 0.59773 0.0
H981 H 0.46385 0.70528 0.52417 0.0
H982 H 0.47946 0.67656 0.48381 0.0
H983 H 0.47279 0.68082 0.6116 0.0
H984 H 0.53022 0.60247 0.51304 0.0
H985 H 0.50995 0.61905 0.81151 0.0
H986 H 0.55118 0.66442 0.44764 0.0
H987 H 0.51862 0.66046 0.41073 0.0
H988 H 0.54055 0.63423 0.39888 0.0
H989 H 0.52743 0.68243 0.81449 0.0
H990 H 0.50415 0.66102 0.86771 0.0
H991 H 0.49491 0.68405 0.77529 0.0
C992 C 0.80755 0.55583 0.60922 0.0
C993 C 0.79837 0.54189 0.52848 0.0
C994 C 0.8324 0.55209 0.64679 0.0
C995 C 0.8488 0.53381 0.60323 0.0
C996 C 0.83899 0.51839 0.52624 0.0
C997 C 0.81402 0.52266 0.48968 0.0
C998 C 0.84178 0.56927 0.72792 0.0
C999 C 0.85549 0.49853 0.47768 0.0
C1000 C 0.92126 0.54603 0.61051 0.0
C1001 C 0.92935 0.53058 0.68906 0.0
C1002 C 0.89529 0.54744 0.58295 0.0
C1003 C 0.87666 0.53243 0.63274 0.0
C1004 C 0.88475 0.51659 0.71166 0.0
C1005 C 0.9108 0.51607 0.73943 0.0
C1006 C 0.88797 0.56484 0.49913 0.0
C1007 C 0.86587 0.50001 0.76643 0.0
H1008 H 0.79588 0.57113 0.63828 0.0
H1009 H 0.80752 0.51229 0.42563 0.0
H1010 H 0.85104 0.55791 0.78682 0.0
H1011 H 0.85637 0.58263 0.69805 0.0
H1012 H 0.82609 0.58066 0.7608 0.0
H1013 H 0.84418 0.48564 0.42981 0.0
H1014 H 0.87022 0.50816 0.43199 0.0
H1015 H 0.86559 0.48685 0.53366 0.0
H1016 H 0.93525 0.55739 0.57093 0.0
H1017 H 0.91669 0.5039 0.79983 0.0
H1018 H 0.8706 0.576 0.51714 0.0
H1019 H 0.88368 0.55298 0.43419 0.0
H1020 H 0.90356 0.57835 0.47918 0.0
H1021 H 0.87514 0.48834 0.82465 0.0
H1022 H 0.85607 0.487 0.71441 0.0
H1023 H 0.85097 0.51207 0.80077 0.0
loop_
_geom_bond_atom_site_label_1
_geom_bond_atom_site_label_2
_geom_bond_distance
_geom_bond_site_symmetry_2
_ccdc_geom_bond_type
H0 C5 0.930 . S
H1 C8 0.930 . S
H2 C10 0.930 . S
H3 C4 1.016 . S
C4 H3 1.016 . S
C4 N11 1.286 . S
C5 H0 0.930 . S
C5 C6 1.397 . S
C5 C7 1.361 . S
C6 C5 1.397 . S
C6 C10 1.390 . S
C7 C5 1.361 . S
C7 C8 1.393 . S
C7 N11 1.413 . S
C8 H1 0.930 . S
C8 C7 1.393 . S
C8 C9 1.399 . S
C9 C8 1.399 . S
C9 C10 1.381 . S
C10 H2 0.930 . S
C10 C6 1.390 . S
C10 C9 1.381 . S
N11 C4 1.286 . S
N11 C7 1.413 . S
H12 C17 0.930 . S
H13 C20 0.930 . S
H14 C22 0.930 . S
H15 C16 1.029 . S
C16 H15 1.029 . S
C16 N23 1.268 1_655 S
C17 H12 0.930 . S
C17 C18 1.397 . S
C17 C19 1.361 . S
C18 C17 1.397 . S
C18 C22 1.390 1_455 S
C19 C17 1.361 . S
C19 C20 1.393 . S
C19 N23 1.413 . S
C20 H13 0.930 . S
C20 C19 1.393 . S
C20 C21 1.402 . S
C21 C20 1.402 . S
C21 C22 1.379 1_455 S
C22 H14 0.930 . S
C22 C18 1.390 1_655 S
C22 C21 1.379 1_655 S
N23 C16 1.268 1_455 S
N23 C19 1.413 . S
H24 C29 0.930 . S
H25 C32 0.930 . S
H26 C34 0.930 . S
H27 C28 1.030 . S
C28 H27 1.030 . S
C28 N35 1.268 1_565 S
C29 H24 0.930 . S
C29 C30 1.397 . S
C29 C31 1.361 . S
C30 C29 1.397 . S
C30 C34 1.390 1_545 S
C31 C29 1.361 . S
C31 C32 1.393 . S
C31 N35 1.413 . S
C32 H25 0.930 . S
C32 C31 1.393 . S
C32 C33 1.402 . S
C33 C32 1.402 . S
C33 C34 1.379 1_545 S
C34 H26 0.930 . S
C34 C30 1.390 1_565 S
C34 C33 1.379 1_565 S
N35 C28 1.268 1_545 S
N35 C31 1.413 . S
H36 C41 0.930 . S
H37 C44 0.930 . S
H38 C46 0.930 . S
H39 C40 1.016 . S
C40 H39 1.016 . S
C40 N47 1.286 . S
C41 H36 0.930 . S
C41 C42 1.397 . S
C41 C43 1.361 . S
C42 C41 1.397 . S
C42 C46 1.390 . S
C43 C41 1.361 . S
C43 C44 1.393 . S
C43 N47 1.413 . S
C44 H37 0.930 . S
C44 C43 1.393 . S
C44 C45 1.399 . S
C45 C44 1.399 . S
C45 C46 1.381 . S
C46 H38 0.930 . S
C46 C42 1.390 . S
C46 C45 1.381 . S
N47 C40 1.286 . S
N47 C43 1.413 . S
H48 C53 0.930 . S
H49 C56 0.930 . S
H50 C58 0.930 . S
H51 C52 1.016 . S
C52 H51 1.016 . S
C52 N59 1.286 . S
C53 H48 0.930 . S
C53 C54 1.397 . S
C53 C55 1.361 1_556 S
C54 C53 1.397 . S
C54 C58 1.390 1_556 S
C55 C53 1.361 1_554 S
C55 C56 1.393 . S
C55 N59 1.413 . S
C56 H49 0.930 . S
C56 C55 1.393 . S
C56 C57 1.399 . S
C57 C56 1.399 . S
C57 C58 1.381 . S
C58 H50 0.930 . S
C58 C54 1.390 1_554 S
C58 C57 1.381 . S
N59 C52 1.286 . S
N59 C55 1.413 . S
H60 C65 0.930 . S
H61 C68 0.930 . S
H62 C70 0.930 . S
H63 C64 1.026 . S
C64 H63 1.026 . S
C64 N71 1.273 1_655 S
C65 H60 0.930 . S
C65 C66 1.397 . S
C65 C67 1.361 1_556 S
C66 C65 1.397 . S
C66 C70 1.390 1_456 S
C67 C65 1.361 1_554 S
C67 C68 1.393 . S
C67 N71 1.413 . S
C68 H61 0.930 . S
C68 C67 1.393 . S
C68 C69 1.404 . S
C69 C68 1.404 . S
C69 C70 1.378 1_455 S
C70 H62 0.930 . S
C70 C66 1.390 1_654 S
C70 C69 1.378 1_655 S
N71 C64 1.273 1_455 S
N71 C67 1.413 . S
H72 C77 0.930 . S
H73 C80 0.930 . S
H74 C82 0.930 . S
H75 C76 1.025 . S
C76 H75 1.025 . S
C76 N83 1.273 1_565 S
C77 H72 0.930 . S
C77 C78 1.397 . S
C77 C79 1.361 1_556 S
C78 C77 1.397 . S
C78 C82 1.390 1_546 S
C79 C77 1.361 1_554 S
C79 C80 1.393 . S
C79 N83 1.413 . S
C80 H73 0.930 . S
C80 C79 1.393 . S
C80 C81 1.404 . S
C81 C80 1.404 . S
C81 C82 1.378 1_545 S
C82 H74 0.930 . S
C82 C78 1.390 1_564 S
C82 C81 1.378 1_565 S
N83 C76 1.273 1_545 S
N83 C79 1.413 . S
H84 C89 0.930 . S
H85 C92 0.930 . S
H86 C94 0.930 . S
H87 C88 1.016 . S
C88 H87 1.016 . S
C88 N95 1.286 . S
C89 H84 0.930 . S
C89 C90 1.397 . S
C89 C91 1.361 1_556 S
C90 C89 1.397 . S
C90 C94 1.390 1_556 S
C91 C89 1.361 1_554 S
C91 C92 1.393 . S
C91 N95 1.413 . S
C92 H85 0.930 . S
C92 C91 1.393 . S
C92 C93 1.399 . S
C93 C92 1.399 . S
C93 C94 1.381 . S
C94 H86 0.930 . S
C94 C90 1.390 1_554 S
C94 C93 1.381 . S
N95 C88 1.286 . S
N95 C91 1.413 . S
Tb96 C98 2.809 . S
Tb96 O116 2.484 . S
Tb96 O117 2.440 . S
Tb96 O118 2.658 1_565 S
Tb96 O119 2.409 . S
Tb96 O120 2.378 . S
Tb96 O124 2.325 1_455 S
Tb96 O127 2.341 1_565 S
Tb97 C107 2.809 . S
Tb97 O118 2.325 1_655 S
Tb97 O121 2.341 1_545 S
Tb97 O122 2.484 . S
Tb97 O123 2.440 . S
Tb97 O124 2.658 1_545 S
Tb97 O125 2.409 . S
Tb97 O126 2.378 . S
C98 Tb96 2.809 . S
C98 C99 1.514 1_556 S
C98 O116 1.248 . S
C98 O117 1.266 . S
C99 C98 1.514 1_554 S
C99 C100 1.359 . S
C99 C104 1.348 . S
C100 C99 1.359 . S
C100 C101 1.380 . S
C100 H128 0.929 1_455 S
C101 C100 1.380 . S
C101 C102 1.347 . S
C101 H129 0.931 1_455 S
C102 C101 1.347 . S
C102 C103 1.369 . S
C103 C102 1.369 . S
C103 C104 1.408 . S
C103 H130 0.930 . S
C104 C99 1.348 . S
C104 C103 1.408 . S
C104 H131 0.930 1_554 S
C105 O118 1.281 1_565 S
C105 O119 1.254 . S
C106 O120 1.236 1_655 S
C106 O121 1.266 . S
C107 Tb97 2.809 . S
C107 C108 1.514 . S
C107 O122 1.248 . S
C107 O123 1.266 . S
C108 C107 1.514 . S
C108 C109 1.359 . S
C108 C113 1.348 . S
C109 C108 1.359 . S
C109 C110 1.380 . S
C109 H132 0.929 1_655 S
C110 C109 1.380 . S
C110 C111 1.347 . S
C110 H133 0.931 1_655 S
C111 C110 1.347 . S
C111 C112 1.369 . S
C112 C111 1.369 . S
C112 C113 1.408 . S
C112 H134 0.930 . S
C113 C108 1.348 . S
C113 C112 1.408 . S
C113 H135 0.930 . S
C114 O124 1.281 1_545 S
C114 O125 1.254 . S
C115 O126 1.236 1_455 S
C115 O127 1.266 . S
O116 Tb96 2.484 . S
O116 C98 1.248 . S
O117 Tb96 2.440 . S
O117 C98 1.266 . S
O118 Tb96 2.658 1_545 S
O118 Tb97 2.325 1_455 S
O118 C105 1.281 1_545 S
O119 Tb96 2.409 . S
O119 C105 1.254 . S
O120 Tb96 2.378 . S
O120 C106 1.236 1_455 S
O121 Tb97 2.341 1_565 S
O121 C106 1.266 . S
O122 Tb97 2.484 . S
O122 C107 1.248 . S
O123 Tb97 2.440 . S
O123 C107 1.266 . S
O124 Tb96 2.325 1_655 S
O124 Tb97 2.658 1_565 S
O124 C114 1.281 1_565 S
O125 Tb97 2.409 . S
O125 C114 1.254 . S
O126 Tb97 2.378 . S
O126 C115 1.236 1_655 S
O127 Tb96 2.341 1_545 S
O127 C115 1.266 . S
H128 C100 0.929 1_655 S
H129 C101 0.931 1_655 S
H130 C103 0.930 . S
H131 C104 0.930 1_556 S
H132 C109 0.929 1_455 S
H133 C110 0.931 1_455 S
H134 C112 0.930 . S
H135 C113 0.930 . S
Tb136 C138 2.809 . S
Tb136 O156 2.501 . S
Tb136 O157 2.440 . S
Tb136 O158 2.658 . S
Tb136 O159 2.409 . S
Tb136 O160 2.378 . S
Tb136 O164 2.325 1_545 S
Tb136 O167 2.341 . S
Tb137 C147 2.809 . S
Tb137 O158 2.325 1_565 S
Tb137 O161 2.341 . S
Tb137 O162 2.497 . S
Tb137 O163 2.440 . S
Tb137 O164 2.658 . S
Tb137 O165 2.409 . S
Tb137 O166 2.378 . S
C138 Tb136 2.809 . S
C138 C139 1.514 1_556 S
C138 O156 1.286 . S
C138 O157 1.266 . S
C139 C138 1.514 1_554 S
C139 C140 1.359 . S
C139 C144 1.348 . S
C140 C139 1.359 . S
C140 C141 1.380 . S
C140 H168 0.929 1_545 S
C141 C140 1.380 . S
C141 C142 1.347 . S
C141 H169 0.931 1_545 S
C142 C141 1.347 . S
C142 C143 1.369 . S
C143 C142 1.369 . S
C143 C144 1.408 . S
C143 H170 0.930 . S
C144 C139 1.348 . S
C144 C143 1.408 . S
C144 H171 0.930 1_554 S
C145 O158 1.281 . S
C145 O159 1.254 . S
C146 O160 1.236 1_565 S
C146 O161 1.266 . S
C147 Tb137 2.809 . S
C147 C148 1.514 . S
C147 O162 1.276 . S
C147 O163 1.266 . S
C148 C147 1.514 . S
C148 C149 1.359 . S
C148 C153 1.348 . S
C149 C148 1.359 . S
C149 C150 1.380 . S
C149 H172 0.929 1_565 S
C150 C149 1.380 . S
C150 C151 1.347 . S
C150 H173 0.931 1_565 S
C151 C150 1.347 . S
C151 C152 1.369 . S
C152 C151 1.369 . S
C152 C153 1.408 . S
C152 H174 0.930 . S
C153 C148 1.348 . S
C153 C152 1.408 . S
C153 H175 0.930 . S
C154 O164 1.281 . S
C154 O165 1.254 . S
C155 O166 1.236 1_545 S
C155 O167 1.266 . S
O156 Tb136 2.501 . S
O156 C138 1.286 . S
O157 Tb136 2.440 . S
O157 C138 1.266 . S
O158 Tb136 2.658 . S
O158 Tb137 2.325 1_545 S
O158 C145 1.281 . S
O159 Tb136 2.409 . S
O159 C145 1.254 . S
O160 Tb136 2.378 . S
O160 C146 1.236 1_545 S
O161 Tb137 2.341 . S
O161 C146 1.266 . S
O162 Tb137 2.497 . S
O162 C147 1.276 . S
O163 Tb137 2.440 . S
O163 C147 1.266 . S
O164 Tb136 2.325 1_565 S
O164 Tb137 2.658 . S
O164 C154 1.281 . S
O165 Tb137 2.409 . S
O165 C154 1.254 . S
O166 Tb137 2.378 . S
O166 C155 1.236 1_565 S
O167 Tb136 2.341 . S
O167 C155 1.266 . S
H168 C140 0.929 1_565 S
H169 C141 0.931 1_565 S
H170 C143 0.930 . S
H171 C144 0.930 1_556 S
H172 C149 0.929 1_545 S
H173 C150 0.931 1_545 S
H174 C152 0.930 . S
H175 C153 0.930 . S
Tb176 C178 2.809 . S
Tb176 O196 2.484 . S
Tb176 O197 2.440 . S
Tb176 O198 2.658 . S
Tb176 O199 2.409 . S
Tb176 O200 2.378 . S
Tb176 O204 2.325 . S
Tb176 O207 2.341 . S
Tb177 C187 2.809 . S
Tb177 O198 2.325 . S
Tb177 O201 2.341 . S
Tb177 O202 2.484 . S
Tb177 O203 2.440 . S
Tb177 O204 2.658 . S
Tb177 O205 2.409 . S
Tb177 O206 2.378 . S
C178 Tb176 2.809 . S
C178 C179 1.514 1_556 S
C178 O196 1.248 . S
C178 O197 1.266 . S
C179 C178 1.514 1_554 S
C179 C180 1.359 . S
C179 C184 1.348 . S
C180 C179 1.359 . S
C180 C181 1.380 . S
C180 H208 0.929 . S
C181 C180 1.380 . S
C181 C182 1.347 . S
C181 H209 0.931 . S
C182 C181 1.347 . S
C182 C183 1.369 . S
C183 C182 1.369 . S
C183 C184 1.408 . S
C183 H210 0.930 . S
C184 C179 1.348 . S
C184 C183 1.408 . S
C184 H211 0.930 1_554 S
C185 O198 1.281 . S
C185 O199 1.254 . S
C186 O200 1.236 . S
C186 O201 1.266 . S
C187 Tb177 2.809 . S
C187 C188 1.514 . S
C187 O202 1.248 . S
C187 O203 1.266 . S
C188 C187 1.514 . S
C188 C189 1.359 . S
C188 C193 1.348 . S
C189 C188 1.359 . S
C189 C190 1.380 . S
C189 H212 0.929 . S
C190 C189 1.380 . S
C190 C191 1.347 . S
C190 H213 0.931 . S
C191 C190 1.347 . S
C191 C192 1.369 . S
C192 C191 1.369 . S
C192 C193 1.408 . S
C192 H214 0.930 . S
C193 C188 1.348 . S
C193 C192 1.408 . S
C193 H215 0.930 . S
C194 O204 1.281 . S
C194 O205 1.254 . S
C195 O206 1.236 . S
C195 O207 1.266 . S
O196 Tb176 2.484 . S
O196 C178 1.248 . S
O197 Tb176 2.440 . S
O197 C178 1.266 . S
O198 Tb176 2.658 . S
O198 Tb177 2.325 . S
O198 C185 1.281 . S
O199 Tb176 2.409 . S
O199 C185 1.254 . S
O200 Tb176 2.378 . S
O200 C186 1.236 . S
O201 Tb177 2.341 . S
O201 C186 1.266 . S
O202 Tb177 2.484 . S
O202 C187 1.248 . S
O203 Tb177 2.440 . S
O203 C187 1.266 . S
O204 Tb176 2.325 . S
O204 Tb177 2.658 . S
O204 C194 1.281 . S
O205 Tb177 2.409 . S
O205 C194 1.254 . S
O206 Tb177 2.378 . S
O206 C195 1.236 . S
O207 Tb176 2.341 . S
O207 C195 1.266 . S
H208 C180 0.929 . S
H209 C181 0.931 . S
H210 C183 0.930 . S
H211 C184 0.930 1_556 S
H212 C189 0.929 . S
H213 C190 0.931 . S
H214 C192 0.930 . S
H215 C193 0.930 . S
Tb216 C218 2.809 . S
Tb216 O236 2.484 . S
Tb216 O237 2.440 . S
Tb216 O238 2.658 1_655 S
Tb216 O239 2.409 . S
Tb216 O240 2.378 . S
Tb216 O244 2.325 . S
Tb216 O247 2.341 1_655 S
Tb217 C227 2.809 . S
Tb217 O238 2.325 . S
Tb217 O241 2.341 1_455 S
Tb217 O242 2.484 . S
Tb217 O243 2.440 . S
Tb217 O244 2.658 1_455 S
Tb217 O245 2.409 . S
Tb217 O246 2.378 . S
C218 Tb216 2.809 . S
C218 C219 1.514 1_556 S
C218 O236 1.248 . S
C218 O237 1.266 . S
C219 C218 1.514 1_554 S
C219 C220 1.359 . S
C219 C224 1.348 . S
C220 C219 1.359 . S
C220 C221 1.380 . S
C220 H248 0.929 . S
C221 C220 1.380 . S
C221 C222 1.347 . S
C221 H249 0.931 . S
C222 C221 1.347 . S
C222 C223 1.369 . S
C223 C222 1.369 . S
C223 C224 1.408 . S
C223 H250 0.930 . S
C224 C219 1.348 . S
C224 C223 1.408 . S
C224 H251 0.930 1_554 S
C225 O238 1.273 1_655 S
C225 O239 1.264 . S
C226 O240 1.236 . S
C226 O241 1.266 . S
C227 Tb217 2.809 . S
C227 C228 1.514 . S
C227 O242 1.248 . S
C227 O243 1.266 . S
C228 C227 1.514 . S
C228 C229 1.359 . S
C228 C233 1.348 . S
C229 C228 1.359 . S
C229 C230 1.380 . S
C229 H252 0.929 . S
C230 C229 1.380 . S
C230 C231 1.347 . S
C230 H253 0.931 . S
C231 C230 1.347 . S
C231 C232 1.369 . S
C232 C231 1.369 . S
C232 C233 1.408 . S
C232 H254 0.930 . S
C233 C228 1.348 . S
C233 C232 1.408 . S
C233 H255 0.930 . S
C234 O244 1.270 1_455 S
C234 O245 1.269 . S
C235 O246 1.236 . S
C235 O247 1.266 . S
O236 Tb216 2.484 . S
O236 C218 1.248 . S
O237 Tb216 2.440 . S
O237 C218 1.266 . S
O238 Tb216 2.658 1_455 S
O238 Tb217 2.325 . S
O238 C225 1.273 1_455 S
O239 Tb216 2.409 . S
O239 C225 1.264 . S
O240 Tb216 2.378 . S
O240 C226 1.236 . S
O241 Tb217 2.341 1_655 S
O241 C226 1.266 . S
O242 Tb217 2.484 . S
O242 C227 1.248 . S
O243 Tb217 2.440 . S
O243 C227 1.266 . S
O244 Tb216 2.325 . S
O244 Tb217 2.658 1_655 S
O244 C234 1.270 1_655 S
O245 Tb217 2.409 . S
O245 C234 1.269 . S
O246 Tb217 2.378 . S
O246 C235 1.236 . S
O247 Tb216 2.341 1_455 S
O247 C235 1.266 . S
H248 C220 0.929 . S
H249 C221 0.931 . S
H250 C223 0.930 . S
H251 C224 0.930 1_556 S
H252 C229 0.929 . S
H253 C230 0.931 . S
H254 C232 0.930 . S
H255 C233 0.930 . S
C256 C257 1.391 1_565 S
C256 C258 1.394 . S
C256 H272 0.931 . S
C257 C256 1.391 1_545 S
C257 C261 1.376 . S
C258 C256 1.394 . S
C258 C259 1.369 1_565 S
C258 C262 1.531 . S
C259 C258 1.369 1_545 S
C259 C260 1.410 . S
C259 C267 1.503 . S
C260 C259 1.410 . S
C260 C261 1.392 . S
C260 C263 1.511 . S
C261 C257 1.376 . S
C261 C260 1.392 . S
C261 H273 0.929 . S
C262 C258 1.531 . S
C262 H274 0.960 . S
C262 H275 0.962 . S
C262 H276 0.960 . S
C263 C260 1.511 . S
C263 H277 0.961 . S
C263 H278 0.961 . S
C263 H279 0.961 . S
C264 C265 1.344 1_565 S
C264 C266 1.363 . S
C264 H280 0.931 . S
C265 C264 1.344 1_545 S
C265 C269 1.437 . S
C266 C264 1.363 . S
C266 C267 1.370 1_565 S
C266 C270 1.524 . S
C267 C259 1.503 . S
C267 C266 1.370 1_545 S
C267 C268 1.403 . S
C268 C267 1.403 . S
C268 C269 1.404 . S
C268 C271 1.539 . S
C269 C265 1.437 . S
C269 C268 1.404 . S
C269 H281 0.930 . S
C270 C266 1.524 . S
C270 H282 0.956 . S
C270 H283 0.961 . S
C270 H284 0.961 . S
C271 C268 1.539 . S
C271 H285 0.958 . S
C271 H286 0.961 . S
C271 H287 0.960 . S
H272 C256 0.931 . S
H273 C261 0.929 . S
H274 C262 0.960 . S
H275 C262 0.962 . S
H276 C262 0.960 . S
H277 C263 0.961 . S
H278 C263 0.961 . S
H279 C263 0.961 . S
H280 C264 0.931 . S
H281 C269 0.930 . S
H282 C270 0.956 . S
H283 C270 0.961 . S
H284 C270 0.961 . S
H285 C271 0.958 . S
H286 C271 0.961 . S
H287 C271 0.960 . S
C288 C289 1.391 . S
C288 C290 1.394 . S
C288 H304 0.931 . S
C289 C288 1.391 . S
C289 C293 1.376 . S
C290 C288 1.394 . S
C290 C291 1.369 . S
C290 C294 1.531 . S
C291 C290 1.369 . S
C291 C292 1.410 . S
C291 C299 1.503 . S
C292 C291 1.410 . S
C292 C293 1.392 . S
C292 C295 1.511 . S
C293 C289 1.376 . S
C293 C292 1.392 . S
C293 H305 0.929 . S
C294 C290 1.531 . S
C294 H306 0.960 . S
C294 H307 0.962 . S
C294 H308 0.960 . S
C295 C292 1.511 . S
C295 H309 0.961 . S
C295 H310 0.961 . S
C295 H311 0.961 . S
C296 C297 1.370 . S
C296 C298 1.363 . S
C296 H312 0.931 . S
C297 C296 1.370 . S
C297 C301 1.408 . S
C298 C296 1.363 . S
C298 C299 1.370 . S
C298 C302 1.524 . S
C299 C291 1.503 . S
C299 C298 1.370 . S
C299 C300 1.403 . S
C300 C299 1.403 . S
C300 C301 1.404 . S
C300 C303 1.539 . S
C301 C297 1.408 . S
C301 C300 1.404 . S
C301 H313 0.930 . S
C302 C298 1.524 . S
C302 H314 0.956 . S
C302 H315 0.961 . S
C302 H316 0.961 . S
C303 C300 1.539 . S
C303 H317 0.958 . S
C303 H318 0.961 . S
C303 H319 0.960 . S
H304 C288 0.931 . S
H305 C293 0.929 . S
H306 C294 0.960 . S
H307 C294 0.962 . S
H308 C294 0.960 . S
H309 C295 0.961 . S
H310 C295 0.961 . S
H311 C295 0.961 . S
H312 C296 0.931 . S
H313 C301 0.930 . S
H314 C302 0.956 . S
H315 C302 0.961 . S
H316 C302 0.961 . S
H317 C303 0.958 . S
H318 C303 0.961 . S
H319 C303 0.960 . S
C320 C321 1.391 . S
C320 C322 1.394 . S
C320 H336 0.931 . S
C321 C320 1.391 . S
C321 C325 1.376 . S
C322 C320 1.394 . S
C322 C323 1.369 . S
C322 C326 1.531 . S
C323 C322 1.369 . S
C323 C324 1.410 . S
C323 C331 1.503 . S
C324 C323 1.410 . S
C324 C325 1.392 . S
C324 C327 1.511 . S
C325 C321 1.376 . S
C325 C324 1.392 . S
C325 H337 0.929 . S
C326 C322 1.531 . S
C326 H338 0.960 . S
C326 H339 0.962 . S
C326 H340 0.960 . S
C327 C324 1.511 . S
C327 H341 0.961 . S
C327 H342 0.961 . S
C327 H343 0.961 . S
C328 C329 1.370 . S
C328 C330 1.363 . S
C328 H344 0.931 . S
C329 C328 1.370 . S
C329 C333 1.408 . S
C330 C328 1.363 . S
C330 C331 1.370 . S
C330 C334 1.524 . S
C331 C323 1.503 . S
C331 C330 1.370 . S
C331 C332 1.403 . S
C332 C331 1.403 . S
C332 C333 1.404 . S
C332 C335 1.539 . S
C333 C329 1.408 . S
C333 C332 1.404 . S
C333 H345 0.930 . S
C334 C330 1.524 . S
C334 H346 0.956 . S
C334 H347 0.961 . S
C334 H348 0.961 . S
C335 C332 1.539 . S
C335 H349 0.958 . S
C335 H350 0.961 . S
C335 H351 0.960 . S
H336 C320 0.931 . S
H337 C325 0.929 . S
H338 C326 0.960 . S
H339 C326 0.962 . S
H340 C326 0.960 . S
H341 C327 0.961 . S
H342 C327 0.961 . S
H343 C327 0.961 . S
H344 C328 0.931 . S
H345 C333 0.930 . S
H346 C334 0.956 . S
H347 C334 0.961 . S
H348 C334 0.961 . S
H349 C335 0.958 . S
H350 C335 0.961 . S
H351 C335 0.960 . S
C352 C353 1.428 . S
C352 C354 1.394 . S
C352 H368 0.931 . S
C353 C352 1.428 . S
C353 C357 1.341 1_455 S
C354 C352 1.394 . S
C354 C355 1.369 . S
C354 C358 1.531 . S
C355 C354 1.369 . S
C355 C356 1.410 1_455 S
C355 C363 1.503 . S
C356 C355 1.410 1_655 S
C356 C357 1.392 . S
C356 C359 1.511 . S
C357 C353 1.341 1_655 S
C357 C356 1.392 . S
C357 H369 0.929 . S
C358 C354 1.531 . S
C358 H370 0.960 . S
C358 H371 0.962 . S
C358 H372 0.960 . S
C359 C356 1.511 . S
C359 H373 0.961 . S
C359 H374 0.961 . S
C359 H375 0.961 . S
C360 C361 1.370 1_655 S
C360 C362 1.363 . S
C360 H376 0.931 . S
C361 C360 1.370 1_455 S
C361 C365 1.408 . S
C362 C360 1.363 . S
C362 C363 1.370 1_655 S
C362 C366 1.524 . S
C363 C355 1.503 . S
C363 C362 1.370 1_455 S
C363 C364 1.403 . S
C364 C363 1.403 . S
C364 C365 1.404 . S
C364 C367 1.539 . S
C365 C361 1.408 . S
C365 C364 1.404 . S
C365 H377 0.930 . S
C366 C362 1.524 . S
C366 H378 0.925 1_655 S
C366 H379 0.961 . S
C366 H380 0.961 . S
C367 C364 1.539 . S
C367 H381 0.958 . S
C367 H382 0.961 . S
C367 H383 0.960 . S
H368 C352 0.931 . S
H369 C357 0.929 . S
H370 C358 0.960 . S
H371 C358 0.962 . S
H372 C358 0.960 . S
H373 C359 0.961 . S
H374 C359 0.961 . S
H375 C359 0.961 . S
H376 C360 0.931 . S
H377 C365 0.930 . S
H378 C366 0.925 1_455 S
H379 C366 0.961 . S
H380 C366 0.961 . S
H381 C367 0.958 . S
H382 C367 0.961 . S
H383 C367 0.960 . S
C384 C385 1.391 . S
C384 C386 1.394 . S
C384 H400 0.931 . S
C385 C384 1.391 . S
C385 C389 1.376 1_545 S
C386 C384 1.394 . S
C386 C387 1.369 . S
C386 C390 1.531 . S
C387 C386 1.369 . S
C387 C388 1.410 1_545 S
C387 C395 1.503 . S
C388 C387 1.410 1_565 S
C388 C389 1.392 . S
C388 C391 1.511 . S
C389 C385 1.376 1_565 S
C389 C388 1.392 . S
C389 H401 0.929 . S
C390 C386 1.531 . S
C390 H402 0.960 . S
C390 H403 0.962 . S
C390 H404 0.960 . S
C391 C388 1.511 . S
C391 H405 0.961 . S
C391 H406 0.961 . S
C391 H407 0.961 . S
C392 C393 1.347 1_565 S
C392 C394 1.363 1_556 S
C392 H408 0.931 . S
C393 C392 1.347 1_545 S
C393 C397 1.435 1_556 S
C394 C392 1.363 1_554 S
C394 C395 1.370 1_565 S
C394 C398 1.524 . S
C395 C387 1.503 . S
C395 C394 1.370 1_545 S
C395 C396 1.403 . S
C396 C395 1.403 . S
C396 C397 1.404 . S
C396 C399 1.539 . S
C397 C393 1.435 1_554 S
C397 C396 1.404 . S
C397 H409 0.930 1_554 S
C398 C394 1.524 . S
C398 H410 0.956 . S
C398 H411 0.961 . S
C398 H412 0.954 1_554 S
C399 C396 1.539 . S
C399 H413 0.958 . S
C399 H414 0.961 . S
C399 H415 0.960 . S
H400 C384 0.931 . S
H401 C389 0.929 . S
H402 C390 0.960 . S
H403 C390 0.962 . S
H404 C390 0.960 . S
H405 C391 0.961 . S
H406 C391 0.961 . S
H407 C391 0.961 . S
H408 C392 0.931 . S
H409 C397 0.930 1_556 S
H410 C398 0.956 . S
H411 C398 0.961 . S
H412 C398 0.954 1_556 S
H413 C399 0.958 . S
H414 C399 0.961 . S
H415 C399 0.960 . S
C416 C417 1.391 . S
C416 C418 1.394 . S
C416 H432 0.931 . S
C417 C416 1.391 . S
C417 C421 1.376 . S
C418 C416 1.394 . S
C418 C419 1.369 . S
C418 C422 1.531 . S
C419 C418 1.369 . S
C419 C420 1.410 . S
C419 C427 1.503 . S
C420 C419 1.410 . S
C420 C421 1.392 . S
C420 C423 1.511 . S
C421 C417 1.376 . S
C421 C420 1.392 . S
C421 H433 0.929 . S
C422 C418 1.531 . S
C422 H434 0.960 . S
C422 H435 0.962 . S
C422 H436 0.960 . S
C423 C420 1.511 . S
C423 H437 0.961 . S
C423 H438 0.961 . S
C423 H439 0.961 . S
C424 C425 1.370 1_554 S
C424 C426 1.363 . S
C424 H440 0.931 . S
C425 C424 1.370 1_556 S
C425 C429 1.408 . S
C426 C424 1.363 . S
C426 C427 1.370 . S
C426 C430 1.524 . S
C427 C419 1.503 . S
C427 C426 1.370 . S
C427 C428 1.403 1_554 S
C428 C427 1.403 1_556 S
C428 C429 1.404 . S
C428 C431 1.539 . S
C429 C425 1.408 . S
C429 C428 1.404 . S
C429 H441 0.930 . S
C430 C426 1.524 . S
C430 H442 0.956 . S
C430 H443 0.961 . S
C430 H444 0.961 . S
C431 C428 1.539 . S
C431 H445 0.958 . S
C431 H446 0.961 . S
C431 H447 0.960 1_556 S
H432 C416 0.931 . S
H433 C421 0.929 . S
H434 C422 0.960 . S
H435 C422 0.962 . S
H436 C422 0.960 . S
H437 C423 0.961 . S
H438 C423 0.961 . S
H439 C423 0.961 . S
H440 C424 0.931 . S
H441 C429 0.930 . S
H442 C430 0.956 . S
H443 C430 0.961 . S
H444 C430 0.961 . S
H445 C431 0.958 . S
H446 C431 0.961 . S
H447 C431 0.960 1_554 S
C448 C449 1.391 . S
C448 C450 1.394 . S
C448 H464 0.931 . S
C449 C448 1.391 . S
C449 C453 1.376 . S
C450 C448 1.394 . S
C450 C451 1.369 . S
C450 C454 1.531 . S
C451 C450 1.369 . S
C451 C452 1.410 . S
C451 C459 1.503 . S
C452 C451 1.410 . S
C452 C453 1.392 . S
C452 C455 1.511 . S
C453 C449 1.376 . S
C453 C452 1.392 . S
C453 H465 0.929 . S
C454 C450 1.531 . S
C454 H466 0.960 . S
C454 H467 0.962 . S
C454 H468 0.960 . S
C455 C452 1.511 . S
C455 H469 0.961 . S
C455 H470 0.961 . S
C455 H471 0.961 . S
C456 C457 1.370 . S
C456 C458 1.363 1_556 S
C456 H472 0.931 . S
C457 C456 1.370 . S
C457 C461 1.408 1_556 S
C458 C456 1.363 1_554 S
C458 C459 1.370 . S
C458 C462 1.524 . S
C459 C451 1.503 . S
C459 C458 1.370 . S
C459 C460 1.403 . S
C460 C459 1.403 . S
C460 C461 1.404 . S
C460 C463 1.539 . S
C461 C457 1.408 1_554 S
C461 C460 1.404 . S
C461 H473 0.930 . S
C462 C458 1.524 . S
C462 H474 0.956 . S
C462 H475 0.961 . S
C462 H476 0.961 1_554 S
C463 C460 1.539 . S
C463 H477 0.958 . S
C463 H478 0.961 . S
C463 H479 0.960 . S
H464 C448 0.931 . S
H465 C453 0.929 . S
H466 C454 0.960 . S
H467 C454 0.962 . S
H468 C454 0.960 . S
H469 C455 0.961 . S
H470 C455 0.961 . S
H471 C455 0.961 . S
H472 C456 0.931 . S
H473 C461 0.930 . S
H474 C462 0.956 . S
H475 C462 0.961 . S
H476 C462 0.961 1_556 S
H477 C463 0.958 . S
H478 C463 0.961 . S
H479 C463 0.960 . S
C480 C481 1.391 1_455 S
C480 C482 1.394 . S
C480 H496 0.931 . S
C481 C480 1.391 1_655 S
C481 C485 1.376 . S
C482 C480 1.394 . S
C482 C483 1.369 1_455 S
C482 C486 1.531 . S
C483 C482 1.369 1_655 S
C483 C484 1.410 . S
C483 C491 1.503 . S
C484 C483 1.410 . S
C484 C485 1.392 . S
C484 C487 1.511 . S
C485 C481 1.376 . S
C485 C484 1.392 . S
C485 H497 0.929 . S
C486 C482 1.531 . S
C486 H498 0.960 . S
C486 H499 0.962 . S
C486 H500 0.960 . S
C487 C484 1.511 . S
C487 H501 0.961 . S
C487 H502 0.961 . S
C487 H503 0.961 . S
C488 C489 1.370 1_455 S
C488 C490 1.363 1_556 S
C488 H504 0.931 . S
C489 C488 1.370 1_655 S
C489 C493 1.408 1_556 S
C490 C488 1.363 1_554 S
C490 C491 1.370 1_455 S
C490 C494 1.524 . S
C491 C483 1.503 . S
C491 C490 1.370 1_655 S
C491 C492 1.403 . S
C492 C491 1.403 . S
C492 C493 1.404 . S
C492 C495 1.539 . S
C493 C489 1.408 1_554 S
C493 C492 1.404 . S
C493 H505 0.930 . S
C494 C490 1.524 . S
C494 H506 0.956 . S
C494 H507 0.961 . S
C494 H508 0.961 1_554 S
C495 C492 1.539 . S
C495 H509 0.958 . S
C495 H510 0.961 . S
C495 H511 0.960 . S
H496 C480 0.931 . S
H497 C485 0.929 . S
H498 C486 0.960 . S
H499 C486 0.962 . S
H500 C486 0.960 . S
H501 C487 0.961 . S
H502 C487 0.961 . S
H503 C487 0.961 . S
H504 C488 0.931 . S
H505 C493 0.930 . S
H506 C494 0.956 . S
H507 C494 0.961 . S
H508 C494 0.961 1_556 S
H509 C495 0.958 . S
H510 C495 0.961 . S
H511 C495 0.960 . S
C512 C513 1.391 1_655 S
C512 C514 1.394 . S
C512 H528 0.931 . S
C513 C512 1.391 1_455 S
C513 C517 1.376 . S
C514 C512 1.394 . S
C514 C515 1.369 . S
C514 C518 1.531 . S
C515 C514 1.369 . S
C515 C516 1.410 1_655 S
C515 C523 1.503 . S
C516 C515 1.410 1_455 S
C516 C517 1.392 . S
C516 C519 1.511 . S
C517 C513 1.376 . S
C517 C516 1.392 . S
C517 H529 0.929 . S
C518 C514 1.531 . S
C518 H530 0.960 . S
C518 H531 0.962 . S
C518 H532 0.960 . S
C519 C516 1.511 . S
C519 H533 0.961 . S
C519 H534 0.961 . S
C519 H535 0.961 . S
C520 C521 1.370 . S
C520 C522 1.363 . S
C520 H536 0.931 . S
C521 C520 1.370 . S
C521 C525 1.408 . S
C522 C520 1.363 . S
C522 C523 1.370 . S
C522 C526 1.524 . S
C523 C515 1.503 . S
C523 C522 1.370 . S
C523 C524 1.403 . S
C524 C523 1.403 . S
C524 C525 1.404 . S
C524 C527 1.539 1_655 S
C525 C521 1.408 . S
C525 C524 1.404 . S
C525 H537 0.930 . S
C526 C522 1.524 . S
C526 H538 0.956 . S
C526 H539 0.961 . S
C526 H540 0.961 . S
C527 C524 1.539 1_455 S
C527 H541 0.958 . S
C527 H542 0.961 . S
C527 H543 0.960 . S
H528 C512 0.931 . S
H529 C517 0.929 . S
H530 C518 0.960 . S
H531 C518 0.962 . S
H532 C518 0.960 . S
H533 C519 0.961 . S
H534 C519 0.961 . S
H535 C519 0.961 . S
H536 C520 0.931 . S
H537 C525 0.930 . S
H538 C526 0.956 . S
H539 C526 0.961 . S
H540 C526 0.961 . S
H541 C527 0.958 . S
H542 C527 0.961 . S
H543 C527 0.960 . S
C544 C545 1.391 1_565 S
C544 C546 1.394 . S
C544 H560 0.931 . S
C545 C544 1.391 1_545 S
C545 C549 1.376 . S
C546 C544 1.394 . S
C546 C547 1.369 . S
C546 C550 1.531 . S
C547 C546 1.369 . S
C547 C548 1.410 1_565 S
C547 C555 1.503 . S
C548 C547 1.410 1_545 S
C548 C549 1.392 . S
C548 C551 1.511 . S
C549 C545 1.376 . S
C549 C548 1.392 . S
C549 H561 0.929 . S
C550 C546 1.531 . S
C550 H562 0.960 . S
C550 H563 0.962 . S
C550 H564 0.960 . S
C551 C548 1.511 . S
C551 H565 0.961 . S
C551 H566 0.961 1_545 S
C551 H567 0.961 . S
C552 C553 1.370 . S
C552 C554 1.363 . S
C552 H568 0.931 . S
C553 C552 1.370 . S
C553 C557 1.408 . S
C554 C552 1.363 . S
C554 C555 1.370 . S
C554 C558 1.524 . S
C555 C547 1.503 . S
C555 C554 1.370 . S
C555 C556 1.403 1_565 S
C556 C555 1.403 1_545 S
C556 C557 1.404 1_545 S
C556 C559 1.539 . S
C557 C553 1.408 . S
C557 C556 1.404 1_565 S
C557 H569 0.930 1_565 S
C558 C554 1.524 . S
C558 H570 0.956 . S
C558 H571 0.961 . S
C558 H572 0.961 . S
C559 C556 1.539 . S
C559 H573 0.958 . S
C559 H574 0.961 . S
C559 H575 0.960 . S
H560 C544 0.931 . S
H561 C549 0.929 . S
H562 C550 0.960 . S
H563 C550 0.962 . S
H564 C550 0.960 . S
H565 C551 0.961 . S
H566 C551 0.961 1_565 S
H567 C551 0.961 . S
H568 C552 0.931 . S
H569 C557 0.930 1_545 S
H570 C558 0.956 . S
H571 C558 0.961 . S
H572 C558 0.961 . S
H573 C559 0.958 . S
H574 C559 0.961 . S
H575 C559 0.960 . S
C576 C577 1.391 . S
C576 C578 1.394 . S
C576 H592 0.931 . S
C577 C576 1.391 . S
C577 C581 1.376 . S
C578 C576 1.394 . S
C578 C579 1.369 . S
C578 C582 1.531 . S
C579 C578 1.369 . S
C579 C580 1.410 . S
C579 C587 1.503 . S
C580 C579 1.410 . S
C580 C581 1.392 . S
C580 C583 1.511 . S
C581 C577 1.376 . S
C581 C580 1.392 . S
C581 H593 0.929 . S
C582 C578 1.531 . S
C582 H594 0.960 . S
C582 H595 0.962 . S
C582 H596 0.960 . S
C583 C580 1.511 . S
C583 H597 0.961 . S
C583 H598 0.961 . S
C583 H599 0.961 . S
C584 C585 1.370 . S
C584 C586 1.363 . S
C584 H600 0.931 . S
C585 C584 1.370 . S
C585 C589 1.408 . S
C586 C584 1.363 . S
C586 C587 1.370 . S
C586 C590 1.524 . S
C587 C579 1.503 . S
C587 C586 1.370 . S
C587 C588 1.403 . S
C588 C587 1.403 . S
C588 C589 1.404 . S
C588 C591 1.539 . S
C589 C585 1.408 . S
C589 C588 1.404 . S
C589 H601 0.930 . S
C590 C586 1.524 . S
C590 H602 0.956 . S
C590 H603 0.961 . S
C590 H604 0.961 . S
C591 C588 1.539 . S
C591 H605 0.958 . S
C591 H606 0.961 . S
C591 H607 0.960 . S
H592 C576 0.931 . S
H593 C581 0.929 . S
H594 C582 0.960 . S
H595 C582 0.962 . S
H596 C582 0.960 . S
H597 C583 0.961 . S
H598 C583 0.961 . S
H599 C583 0.961 . S
H600 C584 0.931 . S
H601 C589 0.930 . S
H602 C590 0.956 . S
H603 C590 0.961 . S
H604 C590 0.961 . S
H605 C591 0.958 . S
H606 C591 0.961 . S
H607 C591 0.960 . S
C608 C609 1.391 . S
C608 C610 1.394 . S
C608 H624 0.931 . S
C609 C608 1.391 . S
C609 C613 1.376 . S
C610 C608 1.394 . S
C610 C611 1.369 . S
C610 C614 1.531 . S
C611 C610 1.369 . S
C611 C612 1.410 . S
C611 C619 1.503 . S
C612 C611 1.410 . S
C612 C613 1.392 . S
C612 C615 1.511 . S
C613 C609 1.376 . S
C613 C612 1.392 . S
C613 H625 0.929 . S
C614 C610 1.531 . S
C614 H626 0.960 . S
C614 H627 0.962 . S
C614 H628 0.960 . S
C615 C612 1.511 . S
C615 H629 0.961 . S
C615 H630 0.961 . S
C615 H631 0.961 . S
C616 C617 1.370 . S
C616 C618 1.363 . S
C616 H632 0.931 . S
C617 C616 1.370 . S
C617 C621 1.408 . S
C618 C616 1.363 . S
C618 C619 1.370 . S
C618 C622 1.524 . S
C619 C611 1.503 . S
C619 C618 1.370 . S
C619 C620 1.403 . S
C620 C619 1.403 . S
C620 C621 1.404 . S
C620 C623 1.539 . S
C621 C617 1.408 . S
C621 C620 1.404 . S
C621 H633 0.930 . S
C622 C618 1.524 . S
C622 H634 0.956 . S
C622 H635 0.961 . S
C622 H636 0.961 . S
C623 C620 1.539 . S
C623 H637 0.958 . S
C623 H638 0.961 . S
C623 H639 0.960 . S
H624 C608 0.931 . S
H625 C613 0.929 . S
H626 C614 0.960 . S
H627 C614 0.962 . S
H628 C614 0.960 . S
H629 C615 0.961 . S
H630 C615 0.961 . S
H631 C615 0.961 . S
H632 C616 0.931 . S
H633 C621 0.930 . S
H634 C622 0.956 . S
H635 C622 0.961 . S
H636 C622 0.961 . S
H637 C623 0.958 . S
H638 C623 0.961 . S
H639 C623 0.960 . S
C640 C641 1.394 . S
C640 C642 1.394 . S
C640 H656 0.931 . S
C641 C640 1.394 . S
C641 C645 1.375 1_455 S
C642 C640 1.394 . S
C642 C643 1.369 . S
C642 C646 1.531 . S
C643 C642 1.369 . S
C643 C644 1.410 . S
C643 C651 1.503 . S
C644 C643 1.410 . S
C644 C645 1.392 1_455 S
C644 C647 1.511 . S
C645 C641 1.375 1_655 S
C645 C644 1.392 1_655 S
C645 H657 0.929 . S
C646 C642 1.531 . S
C646 H658 0.960 . S
C646 H659 0.962 . S
C646 H660 0.960 . S
C647 C644 1.511 . S
C647 H661 0.961 1_455 S
C647 H662 0.961 . S
C647 H663 0.961 . S
C648 C649 1.370 . S
C648 C650 1.363 . S
C648 H664 0.903 1_455 S
C649 C648 1.370 . S
C649 C653 1.408 . S
C650 C648 1.363 . S
C650 C651 1.370 . S
C650 C654 1.524 1_455 S
C651 C643 1.503 . S
C651 C650 1.370 . S
C651 C652 1.403 . S
C652 C651 1.403 . S
C652 C653 1.404 . S
C652 C655 1.539 . S
C653 C649 1.408 . S
C653 C652 1.404 . S
C653 H665 0.930 . S
C654 C650 1.524 1_655 S
C654 H666 0.956 . S
C654 H667 0.961 . S
C654 H668 0.961 . S
C655 C652 1.539 . S
C655 H669 0.958 . S
C655 H670 0.961 . S
C655 H671 0.960 . S
H656 C640 0.931 . S
H657 C645 0.929 . S
H658 C646 0.960 . S
H659 C646 0.962 . S
H660 C646 0.960 . S
H661 C647 0.961 1_655 S
H662 C647 0.961 . S
H663 C647 0.961 . S
H664 C648 0.903 1_655 S
H665 C653 0.930 . S
H666 C654 0.956 . S
H667 C654 0.961 . S
H668 C654 0.961 . S
H669 C655 0.958 . S
H670 C655 0.961 . S
H671 C655 0.960 . S
C672 C673 1.397 . S
C672 C674 1.394 . S
C672 H688 0.931 . S
C673 C672 1.397 . S
C673 C677 1.367 1_565 S
C674 C672 1.394 . S
C674 C675 1.369 1_565 S
C674 C678 1.531 . S
C675 C674 1.369 1_545 S
C675 C676 1.410 . S
C675 C683 1.503 . S
C676 C675 1.410 . S
C676 C677 1.392 . S
C676 C679 1.511 . S
C677 C673 1.367 1_545 S
C677 C676 1.392 . S
C677 H689 0.929 . S
C678 C674 1.531 . S
C678 H690 0.960 . S
C678 H691 0.962 . S
C678 H692 0.960 . S
C679 C676 1.511 . S
C679 H693 0.961 . S
C679 H694 0.961 . S
C679 H695 0.961 . S
C680 C681 1.370 . S
C680 C682 1.363 . S
C680 H696 0.931 . S
C681 C680 1.370 . S
C681 C685 1.408 . S
C682 C680 1.363 . S
C682 C683 1.370 . S
C682 C686 1.524 1_545 S
C683 C675 1.503 . S
C683 C682 1.370 . S
C683 C684 1.403 . S
C684 C683 1.403 . S
C684 C685 1.404 . S
C684 C687 1.539 . S
C685 C681 1.408 . S
C685 C684 1.404 . S
C685 H697 0.930 . S
C686 C682 1.524 1_565 S
C686 H698 0.956 . S
C686 H699 0.961 1_565 S
C686 H700 0.961 . S
C687 C684 1.539 . S
C687 H701 0.958 . S
C687 H702 0.961 . S
C687 H703 0.960 . S
H688 C672 0.931 . S
H689 C677 0.929 . S
H690 C678 0.960 . S
H691 C678 0.962 . S
H692 C678 0.960 . S
H693 C679 0.961 . S
H694 C679 0.961 . S
H695 C679 0.961 . S
H696 C680 0.931 . S
H697 C685 0.930 . S
H698 C686 0.956 . S
H699 C686 0.961 1_545 S
H700 C686 0.961 . S
H701 C687 0.958 . S
H702 C687 0.961 . S
H703 C687 0.960 . S
C704 C705 1.391 . S
C704 C706 1.394 . S
C704 H720 0.931 . S
C705 C704 1.391 . S
C705 C709 1.376 . S
C706 C704 1.394 . S
C706 C707 1.369 . S
C706 C710 1.531 . S
C707 C706 1.369 . S
C707 C708 1.410 . S
C707 C715 1.503 . S
C708 C707 1.410 . S
C708 C709 1.392 . S
C708 C711 1.511 . S
C709 C705 1.376 . S
C709 C708 1.392 . S
C709 H721 0.929 . S
C710 C706 1.531 . S
C710 H722 0.960 . S
C710 H723 0.962 . S
C710 H724 0.960 . S
C711 C708 1.511 . S
C711 H725 0.961 . S
C711 H726 0.961 . S
C711 H727 0.961 . S
C712 C713 1.370 . S
C712 C714 1.363 . S
C712 H728 0.931 . S
C713 C712 1.370 . S
C713 C717 1.408 . S
C714 C712 1.363 . S
C714 C715 1.370 . S
C714 C718 1.524 . S
C715 C707 1.503 . S
C715 C714 1.370 . S
C715 C716 1.403 . S
C716 C715 1.403 . S
C716 C717 1.404 . S
C716 C719 1.539 . S
C717 C713 1.408 . S
C717 C716 1.404 . S
C717 H729 0.930 . S
C718 C714 1.524 . S
C718 H730 0.956 . S
C718 H731 0.961 . S
C718 H732 0.961 . S
C719 C716 1.539 . S
C719 H733 0.958 . S
C719 H734 0.961 . S
C719 H735 0.960 . S
H720 C704 0.931 . S
H721 C709 0.929 . S
H722 C710 0.960 . S
H723 C710 0.962 . S
H724 C710 0.960 . S
H725 C711 0.961 . S
H726 C711 0.961 . S
H727 C711 0.961 . S
H728 C712 0.931 . S
H729 C717 0.930 . S
H730 C718 0.956 . S
H731 C718 0.961 . S
H732 C718 0.961 . S
H733 C719 0.958 . S
H734 C719 0.961 . S
H735 C719 0.960 . S
C736 C737 1.391 . S
C736 C738 1.394 . S
C736 H752 0.931 . S
C737 C736 1.391 . S
C737 C741 1.376 . S
C738 C736 1.394 . S
C738 C739 1.369 . S
C738 C742 1.531 . S
C739 C738 1.369 . S
C739 C740 1.410 . S
C739 C747 1.503 . S
C740 C739 1.410 . S
C740 C741 1.392 . S
C740 C743 1.511 . S
C741 C737 1.376 . S
C741 C740 1.392 . S
C741 H753 0.929 . S
C742 C738 1.531 . S
C742 H754 0.960 . S
C742 H755 0.962 . S
C742 H756 0.960 . S
C743 C740 1.511 . S
C743 H757 0.961 . S
C743 H758 0.961 . S
C743 H759 0.961 . S
C744 C745 1.370 . S
C744 C746 1.363 . S
C744 H760 0.931 . S
C745 C744 1.370 . S
C745 C749 1.408 . S
C746 C744 1.363 . S
C746 C747 1.370 . S
C746 C750 1.524 . S
C747 C739 1.503 . S
C747 C746 1.370 . S
C747 C748 1.403 . S
C748 C747 1.403 . S
C748 C749 1.404 . S
C748 C751 1.539 . S
C749 C745 1.408 . S
C749 C748 1.404 . S
C749 H761 0.930 . S
C750 C746 1.524 . S
C750 H762 0.956 . S
C750 H763 0.961 . S
C750 H764 0.961 . S
C751 C748 1.539 . S
C751 H765 0.958 . S
C751 H766 0.961 . S
C751 H767 0.960 . S
H752 C736 0.931 . S
H753 C741 0.929 . S
H754 C742 0.960 . S
H755 C742 0.962 . S
H756 C742 0.960 . S
H757 C743 0.961 . S
H758 C743 0.961 . S
H759 C743 0.961 . S
H760 C744 0.931 . S
H761 C749 0.930 . S
H762 C750 0.956 . S
H763 C750 0.961 . S
H764 C750 0.961 . S
H765 C751 0.958 . S
H766 C751 0.961 . S
H767 C751 0.960 . S
C768 C769 1.423 . S
C768 C770 1.394 . S
C768 H784 0.931 . S
C769 C768 1.423 . S
C769 C773 1.345 1_455 S
C770 C768 1.394 . S
C770 C771 1.369 . S
C770 C774 1.531 . S
C771 C770 1.369 . S
C771 C772 1.410 1_455 S
C771 C779 1.503 . S
C772 C771 1.410 1_655 S
C772 C773 1.392 . S
C772 C775 1.511 . S
C773 C769 1.345 1_655 S
C773 C772 1.392 . S
C773 H785 0.929 . S
C774 C770 1.531 . S
C774 H786 0.960 . S
C774 H787 0.962 . S
C774 H788 0.960 1_556 S
C775 C772 1.511 . S
C775 H789 0.961 . S
C775 H790 0.961 . S
C775 H791 0.961 . S
C776 C777 1.370 . S
C776 C778 1.363 . S
C776 H792 0.931 . S
C777 C776 1.370 . S
C777 C781 1.408 1_455 S
C778 C776 1.363 . S
C778 C779 1.370 . S
C778 C782 1.524 . S
C779 C771 1.503 . S
C779 C778 1.370 . S
C779 C780 1.403 1_455 S
C780 C779 1.403 1_655 S
C780 C781 1.404 . S
C780 C783 1.539 1_556 S
C781 C777 1.408 1_655 S
C781 C780 1.404 . S
C781 H793 0.930 . S
C782 C778 1.524 . S
C782 H794 0.956 . S
C782 H795 0.961 . S
C782 H796 0.961 . S
C783 C780 1.539 1_554 S
C783 H797 0.958 . S
C783 H798 0.961 . S
C783 H799 0.960 . S
H784 C768 0.931 . S
H785 C773 0.929 . S
H786 C774 0.960 . S
H787 C774 0.962 . S
H788 C774 0.960 1_554 S
H789 C775 0.961 . S
H790 C775 0.961 . S
H791 C775 0.961 . S
H792 C776 0.931 . S
H793 C781 0.930 . S
H794 C782 0.956 . S
H795 C782 0.961 . S
H796 C782 0.961 . S
H797 C783 0.958 . S
H798 C783 0.961 . S
H799 C783 0.960 . S
C800 C801 1.391 1_565 S
C800 C802 1.394 . S
C800 H816 0.931 . S
C801 C800 1.391 1_545 S
C801 C805 1.376 . S
C802 C800 1.394 . S
C802 C803 1.369 1_565 S
C802 C806 1.531 . S
C803 C802 1.369 1_545 S
C803 C804 1.410 . S
C803 C811 1.503 . S
C804 C803 1.410 . S
C804 C805 1.392 . S
C804 C807 1.511 . S
C805 C801 1.376 . S
C805 C804 1.392 . S
C805 H817 0.929 . S
C806 C802 1.531 . S
C806 H818 0.960 . S
C806 H819 0.962 . S
C806 H820 0.960 . S
C807 C804 1.511 . S
C807 H821 0.961 . S
C807 H822 0.961 . S
C807 H823 0.961 . S
C808 C809 1.370 1_565 S
C808 C810 1.363 . S
C808 H824 0.931 . S
C809 C808 1.370 1_545 S
C809 C813 1.408 . S
C810 C808 1.363 . S
C810 C811 1.370 1_565 S
C810 C814 1.524 . S
C811 C803 1.503 . S
C811 C810 1.370 1_545 S
C811 C812 1.403 . S
C812 C811 1.403 . S
C812 C813 1.404 . S
C812 C815 1.539 . S
C813 C809 1.408 . S
C813 C812 1.404 . S
C813 H825 0.930 . S
C814 C810 1.524 . S
C814 H826 0.956 . S
C814 H827 0.961 1_556 S
C814 H828 0.961 1_556 S
C815 C812 1.539 . S
C815 H829 0.958 . S
C815 H830 0.961 . S
C815 H831 0.960 . S
H816 C800 0.931 . S
H817 C805 0.929 . S
H818 C806 0.960 . S
H819 C806 0.962 . S
H820 C806 0.960 . S
H821 C807 0.961 . S
H822 C807 0.961 . S
H823 C807 0.961 . S
H824 C808 0.931 . S
H825 C813 0.930 . S
H826 C814 0.956 . S
H827 C814 0.961 1_554 S
H828 C814 0.961 1_554 S
H829 C815 0.958 . S
H830 C815 0.961 . S
H831 C815 0.960 . S
C832 C833 1.391 . S
C832 C834 1.394 . S
C832 H848 0.931 . S
C833 C832 1.391 . S
C833 C837 1.376 . S
C834 C832 1.394 . S
C834 C835 1.369 . S
C834 C838 1.531 . S
C835 C834 1.369 . S
C835 C836 1.410 . S
C835 C843 1.503 . S
C836 C835 1.410 . S
C836 C837 1.392 . S
C836 C839 1.511 . S
C837 C833 1.376 . S
C837 C836 1.392 . S
C837 H849 0.929 . S
C838 C834 1.531 . S
C838 H850 0.960 . S
C838 H851 0.962 . S
C838 H852 0.960 . S
C839 C836 1.511 . S
C839 H853 0.961 . S
C839 H854 0.961 . S
C839 H855 0.961 . S
C840 C841 1.370 . S
C840 C842 1.363 . S
C840 H856 0.931 . S
C841 C840 1.370 . S
C841 C845 1.408 . S
C842 C840 1.363 . S
C842 C843 1.370 . S
C842 C846 1.524 1_556 S
C843 C835 1.503 . S
C843 C842 1.370 . S
C843 C844 1.403 . S
C844 C843 1.403 . S
C844 C845 1.404 . S
C844 C847 1.539 . S
C845 C841 1.408 . S
C845 C844 1.404 . S
C845 H857 0.930 . S
C846 C842 1.524 1_554 S
C846 H858 0.956 . S
C846 H859 0.961 . S
C846 H860 0.961 . S
C847 C844 1.539 . S
C847 H861 0.958 . S
C847 H862 0.961 . S
C847 H863 0.960 . S
H848 C832 0.931 . S
H849 C837 0.929 . S
H850 C838 0.960 . S
H851 C838 0.962 . S
H852 C838 0.960 . S
H853 C839 0.961 . S
H854 C839 0.961 . S
H855 C839 0.961 . S
H856 C840 0.931 . S
H857 C845 0.930 . S
H858 C846 0.956 . S
H859 C846 0.961 . S
H860 C846 0.961 . S
H861 C847 0.958 . S
H862 C847 0.961 . S
H863 C847 0.960 . S
C864 C865 1.391 . S
C864 C866 1.394 . S
C864 H880 0.931 . S
C865 C864 1.391 . S
C865 C869 1.376 . S
C866 C864 1.394 . S
C866 C867 1.369 . S
C866 C870 1.531 . S
C867 C866 1.369 . S
C867 C868 1.410 . S
C867 C875 1.503 . S
C868 C867 1.410 . S
C868 C869 1.392 . S
C868 C871 1.511 1_556 S
C869 C865 1.376 . S
C869 C868 1.392 . S
C869 H881 0.929 . S
C870 C866 1.531 . S
C870 H882 0.960 . S
C870 H883 0.962 . S
C870 H884 0.960 . S
C871 C868 1.511 1_554 S
C871 H885 0.961 . S
C871 H886 0.961 1_554 S
C871 H887 0.961 . S
C872 C873 1.370 . S
C872 C874 1.363 . S
C872 H888 0.931 . S
C873 C872 1.370 . S
C873 C877 1.408 . S
C874 C872 1.363 . S
C874 C875 1.370 . S
C874 C878 1.524 . S
C875 C867 1.503 . S
C875 C874 1.370 . S
C875 C876 1.403 . S
C876 C875 1.403 . S
C876 C877 1.404 . S
C876 C879 1.532 1_556 S
C877 C873 1.408 . S
C877 C876 1.404 . S
C877 H889 0.930 . S
C878 C874 1.524 . S
C878 H890 0.956 . S
C878 H891 0.961 . S
C878 H892 0.961 . S
C879 C876 1.532 1_554 S
C879 H893 0.954 1_554 S
C879 H894 0.969 . S
C879 H895 0.963 . S
H880 C864 0.931 . S
H881 C869 0.929 . S
H882 C870 0.960 . S
H883 C870 0.962 . S
H884 C870 0.960 . S
H885 C871 0.961 . S
H886 C871 0.961 1_556 S
H887 C871 0.961 . S
H888 C872 0.931 . S
H889 C877 0.930 . S
H890 C878 0.956 . S
H891 C878 0.961 . S
H892 C878 0.961 . S
H893 C879 0.954 1_556 S
H894 C879 0.969 . S
H895 C879 0.963 . S
C896 C897 1.391 . S
C896 C898 1.394 . S
C896 H912 0.931 . S
C897 C896 1.391 . S
C897 C901 1.376 1_655 S
C898 C896 1.394 . S
C898 C899 1.369 . S
C898 C902 1.531 . S
C899 C898 1.369 . S
C899 C900 1.410 1_655 S
C899 C907 1.503 . S
C900 C899 1.410 1_455 S
C900 C901 1.392 . S
C900 C903 1.511 . S
C901 C897 1.376 1_455 S
C901 C900 1.392 . S
C901 H913 0.929 . S
C902 C898 1.531 . S
C902 H914 0.960 . S
C902 H915 0.962 . S
C902 H916 0.960 . S
C903 C900 1.511 . S
C903 H917 0.961 . S
C903 H918 0.961 . S
C903 H919 0.961 . S
C904 C905 1.370 1_455 S
C904 C906 1.363 . S
C904 H920 0.931 . S
C905 C904 1.370 1_655 S
C905 C909 1.408 . S
C906 C904 1.363 . S
C906 C907 1.370 1_455 S
C906 C910 1.524 . S
C907 C899 1.503 . S
C907 C906 1.370 1_655 S
C907 C908 1.403 . S
C908 C907 1.403 . S
C908 C909 1.404 . S
C908 C911 1.539 . S
C909 C905 1.408 . S
C909 C908 1.404 . S
C909 H921 0.930 . S
C910 C906 1.524 . S
C910 H922 0.956 . S
C910 H923 0.961 . S
C910 H924 0.961 . S
C911 C908 1.539 . S
C911 H925 0.958 . S
C911 H926 0.961 . S
C911 H927 0.960 . S
H912 C896 0.931 . S
H913 C901 0.929 . S
H914 C902 0.960 . S
H915 C902 0.962 . S
H916 C902 0.960 . S
H917 C903 0.961 . S
H918 C903 0.961 . S
H919 C903 0.961 . S
H920 C904 0.931 . S
H921 C909 0.930 . S
H922 C910 0.956 . S
H923 C910 0.961 . S
H924 C910 0.961 . S
H925 C911 0.958 . S
H926 C911 0.961 . S
H927 C911 0.960 . S
C928 C929 1.389 . S
C928 C930 1.394 . S
C928 H944 0.931 . S
C929 C928 1.389 . S
C929 C933 1.378 1_565 S
C930 C928 1.394 . S
C930 C931 1.392 . S
C930 C934 1.531 . S
C931 C930 1.392 . S
C931 C932 1.386 1_565 S
C931 C939 1.507 . S
C932 C931 1.386 1_545 S
C932 C933 1.392 . S
C932 C935 1.511 . S
C933 C929 1.378 1_545 S
C933 C932 1.392 . S
C933 H945 0.929 . S
C934 C930 1.531 . S
C934 H946 0.960 . S
C934 H947 0.962 . S
C934 H948 0.960 . S
C935 C932 1.511 . S
C935 H949 0.961 . S
C935 H950 0.961 . S
C935 H951 0.961 . S
C936 C937 1.370 . S
C936 C938 1.363 . S
C936 H952 0.931 . S
C937 C936 1.370 . S
C937 C941 1.408 1_565 S
C938 C936 1.363 . S
C938 C939 1.370 . S
C938 C942 1.524 . S
C939 C931 1.507 . S
C939 C938 1.370 . S
C939 C940 1.403 1_565 S
C940 C939 1.403 1_545 S
C940 C941 1.404 . S
C940 C943 1.539 . S
C941 C937 1.408 1_545 S
C941 C940 1.404 . S
C941 H953 0.930 . S
C942 C938 1.524 . S
C942 H954 0.956 . S
C942 H955 0.961 . S
C942 H956 0.961 . S
C943 C940 1.539 . S
C943 H957 0.958 . S
C943 H958 0.961 . S
C943 H959 0.960 . S
H944 C928 0.931 . S
H945 C933 0.929 . S
H946 C934 0.960 . S
H947 C934 0.962 . S
H948 C934 0.960 . S
H949 C935 0.961 . S
H950 C935 0.961 . S
H951 C935 0.961 . S
H952 C936 0.931 . S
H953 C941 0.930 . S
H954 C942 0.956 . S
H955 C942 0.961 . S
H956 C942 0.961 . S
H957 C943 0.958 . S
H958 C943 0.961 . S
H959 C943 0.960 . S
C960 C961 1.391 . S
C960 C962 1.394 . S
C960 H976 0.931 . S
C961 C960 1.391 . S
C961 C965 1.376 . S
C962 C960 1.394 . S
C962 C963 1.369 . S
C962 C966 1.531 . S
C963 C962 1.369 . S
C963 C964 1.410 . S
C963 C971 1.503 . S
C964 C963 1.410 . S
C964 C965 1.392 . S
C964 C967 1.511 . S
C965 C961 1.376 . S
C965 C964 1.392 . S
C965 H977 0.929 . S
C966 C962 1.531 . S
C966 H978 0.960 . S
C966 H979 0.962 . S
C966 H980 0.960 . S
C967 C964 1.511 . S
C967 H981 0.961 . S
C967 H982 0.961 . S
C967 H983 0.961 . S
C968 C969 1.370 . S
C968 C970 1.363 . S
C968 H984 0.931 . S
C969 C968 1.370 . S
C969 C973 1.408 . S
C970 C968 1.363 . S
C970 C971 1.370 . S
C970 C974 1.524 . S
C971 C963 1.503 . S
C971 C970 1.370 . S
C971 C972 1.403 . S
C972 C971 1.403 . S
C972 C973 1.404 . S
C972 C975 1.539 . S
C973 C969 1.408 . S
C973 C972 1.404 . S
C973 H985 0.930 . S
C974 C970 1.524 . S
C974 H986 0.956 . S
C974 H987 0.961 . S
C974 H988 0.961 . S
C975 C972 1.539 . S
C975 H989 0.958 . S
C975 H990 0.961 . S
C975 H991 0.960 . S
H976 C960 0.931 . S
H977 C965 0.929 . S
H978 C966 0.960 . S
H979 C966 0.962 . S
H980 C966 0.960 . S
H981 C967 0.961 . S
H982 C967 0.961 . S
H983 C967 0.961 . S
H984 C968 0.931 . S
H985 C973 0.930 . S
H986 C974 0.956 . S
H987 C974 0.961 . S
H988 C974 0.961 . S
H989 C975 0.958 . S
H990 C975 0.961 . S
H991 C975 0.960 . S
C992 C993 1.391 . S
C992 C994 1.394 . S
C992 H1008 0.931 . S
C993 C992 1.391 . S
C993 C997 1.376 . S
C994 C992 1.394 . S
C994 C995 1.369 . S
C994 C998 1.531 . S
C995 C994 1.369 . S
C995 C996 1.410 . S
C995 C1003 1.503 . S
C996 C995 1.410 . S
C996 C997 1.392 . S
C996 C999 1.511 . S
C997 C993 1.376 . S
C997 C996 1.392 . S
C997 H1009 0.929 . S
C998 C994 1.531 . S
C998 H1010 0.960 . S
C998 H1011 0.962 . S
C998 H1012 0.960 . S
C999 C996 1.511 . S
C999 H1013 0.961 . S
C999 H1014 0.961 . S
C999 H1015 0.961 . S
C1000 C1001 1.370 . S
C1000 C1002 1.363 . S
C1000 H1016 0.931 . S
C1001 C1000 1.370 . S
C1001 C1005 1.408 . S
C1002 C1000 1.363 . S
C1002 C1003 1.370 . S
C1002 C1006 1.524 . S
C1003 C995 1.503 . S
C1003 C1002 1.370 . S
C1003 C1004 1.403 . S
C1004 C1003 1.403 . S
C1004 C1005 1.404 . S
C1004 C1007 1.539 . S
C1005 C1001 1.408 . S
C1005 C1004 1.404 . S
C1005 H1017 0.930 . S
C1006 C1002 1.524 . S
C1006 H1018 0.956 . S
C1006 H1019 0.961 . S
C1006 H1020 0.961 . S
C1007 C1004 1.539 . S
C1007 H1021 0.958 . S
C1007 H1022 0.961 . S
C1007 H1023 0.960 . S
H1008 C992 0.931 . S
H1009 C997 0.929 . S
H1010 C998 0.960 . S
H1011 C998 0.962 . S
H1012 C998 0.960 . S
H1013 C999 0.961 . S
H1014 C999 0.961 . S
H1015 C999 0.961 . S
H1016 C1000 0.931 . S
H1017 C1005 0.930 . S
H1018 C1006 0.956 . S
H1019 C1006 0.961 . S
H1020 C1006 0.961 . S
H1021 C1007 0.958 . S
H1022 C1007 0.961 . S
H1023 C1007 0.960 . S
C257 C76 1.775 1_545 S
C265 C105 1.954 1_545 S
C297 C145 1.975 . S
C289 C88 1.779 . S
C329 C185 1.988 . S
C321 C52 1.859 . S
C361 C225 1.971 1_455 S
C353 C64 1.844 1_455 S
C393 C114 1.961 . S
C385 C28 1.825 1_545 S
C417 C40 1.781 . S
C425 C154 1.974 . S
C449 C4 1.856 . S
C457 C194 1.988 . S
C481 C16 1.838 . S
C489 C234 1.972 1_655 S
C521 C111 0.442 . S
C513 C69 0.480 . S
C553 C151 0.452 . S
C545 C81 0.521 . S
C585 C191 0.512 . S
C577 C93 0.539 . S
C609 C57 0.514 . S
C617 C231 0.442 . S
C641 C21 0.473 . S
C649 C102 0.497 . S
C681 C142 0.503 . S
C673 C33 0.415 1_565 S
C713 C182 0.463 . S
C705 C45 0.556 . S
C737 C9 0.541 . S
C745 C222 0.451 . S
C769 C66 2.036 . S
C777 C115 2.298 . S
C801 C78 2.059 . S
C809 C155 2.271 . S
C841 C195 2.248 . S
C833 C90 2.047 . S
C873 C235 2.291 . S
C865 C54 2.010 . S
C897 C18 2.102 1_655 S
C905 C106 2.317 . S
C937 C146 2.262 . S
C929 C30 2.060 1_565 S
C969 C186 2.242 . S
C961 C42 2.047 . S
C993 C6 2.069 . S
C1001 C226 2.287 . S
