# Generated by pormake.
# Topology zzz, (3,6)-cn, num edge types: 1
# Building blocks:
#     Node 0, Type 0, BuildingBlock: CUQRIR_clean_linker_1, # of connection points: 3
#     Node 1, Type 0, BuildingBlock: CUQRIR_clean_linker_1, # of connection points: 3
#     Node 2, Type 0, BuildingBlock: CUQRIR_clean_linker_1, # of connection points: 3
#     Node 3, Type 0, BuildingBlock: CUQRIR_clean_linker_1, # of connection points: 3
#     Node 4, Type 0, BuildingBlock: CUQRIR_clean_linker_1, # of connection points: 3
#     Node 5, Type 0, BuildingBlock: CUQRIR_clean_linker_1, # of connection points: 3
#     Node 6, Type 0, BuildingBlock: CUQRIR_clean_linker_1, # of connection points: 3
#     Node 7, Type 0, BuildingBlock: CUQRIR_clean_linker_1, # of connection points: 3
#     Node 8, Type 1, BuildingBlock: NUHQIS_clean_sbu_0, # of connection points: 6
#     Node 9, Type 1, BuildingBlock: NUHQIS_clean_sbu_0, # of connection points: 6
#     Node 10, Type 1, BuildingBlock: NUHQIS_clean_sbu_0, # of connection points: 6
#     Node 11, Type 1, BuildingBlock: NUHQIS_clean_sbu_0, # of connection points: 6
#     Edge 12, Type (0, 1), BuildingBlock: AJUNOK_clean_linker_0, # of connection points: 2
#     Edge 13, Type (0, 1), BuildingBlock: AJUNOK_clean_linker_0, # of connection points: 2
#     Edge 14, Type (0, 1), BuildingBlock: AJUNOK_clean_linker_0, # of connection points: 2
#     Edge 15, Type (0, 1), BuildingBlock: AJUNOK_clean_linker_0, # of connection points: 2
#     Edge 16, Type (0, 1), BuildingBlock: AJUNOK_clean_linker_0, # of connection points: 2
#     Edge 17, Type (0, 1), BuildingBlock: AJUNOK_clean_linker_0, # of connection points: 2
#     Edge 18, Type (0, 1), BuildingBlock: AJUNOK_clean_linker_0, # of connection points: 2
#     Edge 19, Type (0, 1), BuildingBlock: AJUNOK_clean_linker_0, # of connection points: 2
#     Edge 20, Type (0, 1), BuildingBlock: AJUNOK_clean_linker_0, # of connection points: 2
#     Edge 21, Type (0, 1), BuildingBlock: AJUNOK_clean_linker_0, # of connection points: 2
#     Edge 22, Type (0, 1), BuildingBlock: AJUNOK_clean_linker_0, # of connection points: 2
#     Edge 23, Type (0, 1), BuildingBlock: AJUNOK_clean_linker_0, # of connection points: 2
#     Edge 24, Type (0, 1), BuildingBlock: AJUNOK_clean_linker_0, # of connection points: 2
#     Edge 25, Type (0, 1), BuildingBlock: AJUNOK_clean_linker_0, # of connection points: 2
#     Edge 26, Type (0, 1), BuildingBlock: AJUNOK_clean_linker_0, # of connection points: 2
#     Edge 27, Type (0, 1), BuildingBlock: AJUNOK_clean_linker_0, # of connection points: 2
#     Edge 28, Type (0, 1), BuildingBlock: AJUNOK_clean_linker_0, # of connection points: 2
#     Edge 29, Type (0, 1), BuildingBlock: AJUNOK_clean_linker_0, # of connection points: 2
#     Edge 30, Type (0, 1), BuildingBlock: AJUNOK_clean_linker_0, # of connection points: 2
#     Edge 31, Type (0, 1), BuildingBlock: AJUNOK_clean_linker_0, # of connection points: 2
#     Edge 32, Type (0, 1), BuildingBlock: AJUNOK_clean_linker_0, # of connection points: 2
#     Edge 33, Type (0, 1), BuildingBlock: AJUNOK_clean_linker_0, # of connection points: 2
#     Edge 34, Type (0, 1), BuildingBlock: AJUNOK_clean_linker_0, # of connection points: 2
#     Edge 35, Type (0, 1), BuildingBlock: AJUNOK_clean_linker_0, # of connection points: 2
# Relax obj value: 0.423
# Max RMSD: 0.188
# Mean RMSD: 0.135
data_MOF--net-zzz--node1-NUHQIS_clean_sbu_0--node2-CUQRIR_clean_linker_1--edge1-AJUNOK_clean_linker_0
_symmetry_space_group_name_H-M    P1
_symmetry_Int_Tables_number       1
_symmetry_cell_setting            triclinic
loop_
_symmetry_equiv_pos_as_xyz
'x, y, z'
_cell_length_a     34.52734
_cell_length_b     34.398278
_cell_length_c     9.4280407
_cell_angle_alpha  89.955523
_cell_angle_beta   89.794633
_cell_angle_gamma 90.017389
loop_
_atom_site_label
_atom_site_type_symbol
_atom_site_fract_x
_atom_site_fract_y
_atom_site_fract_z
_atom_type_partial_charge
C0 C 0.77326 0.53087 0.40914 0.0
N1 N 0.81087 0.51741 0.41264 0.0
N2 N 0.7578 0.52853 0.27423 0.0
C3 C 0.75173 0.54548 0.53639 0.0
C4 C 0.78829 0.51539 0.19791 0.0
N5 N 0.81817 0.50557 0.28121 0.0
C6 C 0.79123 0.51622 0.03788 0.0
H7 H 0.71999 0.54368 0.5202 0.0
H8 H 0.75975 0.57629 0.55475 0.0
H9 H 0.75994 0.52856 0.63186 0.0
H10 H 0.76655 0.53168 0.98834 0.0
H11 H 0.79327 0.48619 0.99558 0.0
H12 H 0.81826 0.53145 1.00643 0.0
C13 C 1.02043 0.77567 0.49065 0.0
N14 N 1.0273 0.81445 0.46583 0.0
N15 N 1.01564 0.75555 0.3655 0.0
C16 C 1.02167 0.757 0.63383 0.0
C17 C 1.01832 0.78401 0.26752 0.0
N18 N 1.02863 0.81805 0.32605 0.0
C19 C 1.0153 0.77797 0.10923 0.0
H20 H 0.05128 0.74554 0.65216 0.0
H21 H 1.00115 0.73218 0.63832 0.0
H22 H 1.01481 0.77845 0.71817 0.0
H23 H 0.99864 0.75129 0.08384 0.0
H24 H 0.04467 0.77573 0.06185 0.0
H25 H 1.00094 0.80347 0.05999 0.0
C26 C 0.80377 1.02534 0.4652 0.0
N27 N 0.76428 1.02821 0.44741 0.0
N28 N 0.82268 1.02076 0.33657 0.0
C29 C 0.82366 1.02983 0.60477 0.0
C30 C 0.79275 1.01943 0.245 0.0
N31 N 0.75901 1.02816 0.30853 0.0
C32 C 0.79634 1.01303 0.08703 0.0
H33 H 0.85486 1.02242 0.59592 0.0
H34 H 0.8094 1.01102 0.68514 0.0
H35 H 0.82061 0.06037 0.64089 0.0
H36 H 0.82429 0.99907 0.05887 0.0
H37 H 0.79369 0.0411 0.02988 0.0
H38 H 0.77213 0.99435 0.05057 0.0
C39 C 0.54754 0.79496 0.38943 0.0
N40 N 0.52218 0.76706 0.43801 0.0
N41 N 0.52873 0.82373 0.3154 0.0
C42 C 0.59058 0.79254 0.40434 0.0
C43 C 0.49146 0.81183 0.32017 0.0
N44 N 0.48743 0.77807 0.39231 0.0
C45 C 0.45925 0.83133 0.24038 0.0
H46 H 0.60367 0.822 0.40055 0.0
H47 H 0.60245 0.77522 0.31499 0.0
H48 H 0.5983 0.77776 0.50503 0.0
H49 H 0.45887 0.82131 0.1288 0.0
H50 H 0.46472 0.86286 0.23647 0.0
H51 H 0.43072 0.82484 0.28945 0.0
C52 C 0.30127 0.52412 0.24125 0.0
N53 N 0.26223 0.52838 0.26696 0.0
N54 N 0.32157 0.519 0.36586 0.0
C55 C 0.31964 0.52815 0.09816 0.0
C56 C 0.29292 0.51886 0.46365 0.0
N57 N 0.25864 0.52856 0.40687 0.0
C58 C 0.29842 0.51256 0.6208 0.0
H59 H 0.34852 0.514 0.09622 0.0
H60 H 0.32338 0.55952 0.07412 0.0
H61 H 0.30062 0.51542 1.01566 0.0
H62 H 0.29815 0.54085 0.67716 0.0
H63 H 0.32596 0.49715 0.64335 0.0
H64 H 0.2738 0.49532 0.66331 0.0
C65 C 0.03551 0.30821 0.30718 0.0
N66 N 1.02187 0.27057 0.30575 0.0
N67 N 0.03304 0.32439 0.44119 0.0
C68 C 0.05019 0.32894 0.17816 0.0
C69 C 1.01934 0.29418 0.51892 0.0
N70 N 1.01001 0.26363 0.43734 0.0
C71 C 1.0152 0.29374 0.67871 0.0
H72 H 0.08075 0.32036 0.15932 0.0
H73 H 0.04891 0.36088 0.19188 0.0
H74 H 0.03311 0.32031 0.0838 0.0
H75 H 0.98456 0.29926 0.70839 0.0
H76 H 0.03417 0.31573 0.72936 0.0
H77 H 1.02328 0.26483 0.72127 0.0
C78 C 0.26299 0.03374 0.21453 0.0
N79 N 0.29736 1.01364 0.20048 0.0
N80 N 0.24573 1.02664 0.344 0.0
C81 C 0.24635 0.05952 0.10252 0.0
C82 C 0.2731 1.00566 0.41023 0.0
N83 N 0.30005 0.99256 0.31846 0.0
C84 C 0.28486 1.01822 0.5567 0.0
H85 H 0.24903 0.09025 0.13679 0.0
H86 H 0.21509 0.05299 0.08897 0.0
H87 H 0.2618 0.05564 1.00009 0.0
H88 H 0.2721 0.99904 0.6386 0.0
H89 H 0.27412 0.04802 0.5794 0.0
H90 H 0.31686 1.01881 0.56408 0.0
C91 C 0.52771 0.27086 0.25054 0.0
N92 N 0.53928 0.30902 0.25765 0.0
N93 N 0.52749 0.2538 0.38256 0.0
C94 C 0.51999 0.24943 0.1155 0.0
C95 C 0.53761 0.2837 0.46788 0.0
N96 N 0.54758 0.31552 0.39296 0.0
C97 C 0.53951 0.28196 0.62777 0.0
H98 H 0.49207 0.23363 0.12439 0.0
H99 H 0.54309 0.22745 0.09892 0.0
H100 H 0.51929 0.26949 0.02331 0.0
H101 H 0.57014 0.2808 0.66276 0.0
H102 H 0.52351 0.25654 0.67066 0.0
H103 H 0.52695 0.30898 0.67286 0.0
Tb104 Tb 0.05856 0.03501 0.96779 0.0
Eu105 Eu 1.00667 0.0628 0.71192 0.0
C106 C 0.09983 0.05131 0.66397 0.0
C107 C 1.02966 0.12637 0.95552 0.0
C108 C 0.13385 0.99105 0.18209 0.0
C109 C 0.15969 0.93604 0.05384 0.0
C110 C 0.15165 0.97583 0.05978 0.0
C111 C 0.13334 0.96906 0.30621 0.0
C112 C 0.146 0.93087 0.304 0.0
C113 C 0.15057 0.91288 0.17171 0.0
C114 C 0.10407 1.02069 0.16826 0.0
O115 O 0.99976 1.02072 0.04641 0.0
O116 O 0.96679 0.06277 0.90516 0.0
O117 O 1.01019 0.99654 0.68895 0.0
O118 O 0.05787 0.97982 0.84341 0.0
C119 C 0.96781 0.04003 1.01747 0.0
O120 O 0.9552 0.04567 0.59525 0.0
O121 O 0.98919 0.0951 0.52382 0.0
O122 O 0.06732 0.06493 0.61048 0.0
O123 O 0.1009 0.03797 0.79466 0.0
O124 O 0.0463 0.09645 1.01792 0.0
O125 O 1.01327 0.12156 0.8299 0.0
C126 C 0.03359 0.96998 0.74129 0.0
O127 O 0.11033 0.04783 0.07464 0.0
O128 O 0.06918 1.0064 0.15899 0.0
C129 C 0.92219 0.0978 0.491 0.0
C130 C 0.88225 0.16677 0.49628 0.0
C131 C 0.87622 0.14022 0.60778 0.0
C132 C 0.89787 0.10579 0.60754 0.0
C133 C 0.91764 0.11902 0.36595 0.0
C134 C 0.89307 0.15103 0.36457 0.0
C135 C 0.9574 0.0749 0.50783 0.0
H136 H 0.16478 0.9227 0.95154 0.0
H137 H 0.15265 0.99259 0.96281 0.0
H138 H 0.11729 0.979 0.39781 0.0
H139 H 0.14016 0.91346 0.39763 0.0
H140 H 0.86411 0.15019 0.70743 0.0
H141 H 0.8999 0.08897 0.70432 0.0
H142 H 0.93626 0.11375 0.2754 0.0
H143 H 0.89391 0.1693 0.27091 0.0
Tb144 Tb 0.54162 0.05749 0.95201 0.0
Eu145 Eu 0.51692 1.00853 0.68494 0.0
C146 C 0.52675 0.10138 0.66139 0.0
C147 C 0.45168 1.02828 0.92525 0.0
C148 C 0.58134 0.13519 0.16675 0.0
C149 C 0.64013 0.14674 0.29607 0.0
C150 C 0.60139 0.13608 0.29474 0.0
C151 C 0.5985 0.15138 0.04477 0.0
C152 C 0.63835 0.15821 0.04374 0.0
C153 C 0.65966 0.14949 0.16589 0.0
C154 C 0.55225 0.10487 0.15064 0.0
O155 O 0.5497 0.99799 0.0377 0.0
O156 O 0.52482 0.96206 0.85451 0.0
O157 O 0.58211 1.01627 0.65117 0.0
O158 O 0.59952 0.05247 0.84378 0.0
C159 C 0.53988 0.96407 0.98249 0.0
O160 O 0.52468 0.95746 0.55159 0.0
O161 O 0.48694 1.00418 0.48329 0.0
O162 O 0.50563 0.07172 0.621 0.0
O163 O 0.54862 0.09786 0.77394 0.0
O164 O 0.47826 0.05051 0.98371 0.0
O165 O 0.46038 1.00761 0.81175 0.0
C166 C 0.6092 0.03386 0.7254 0.0
O167 O 0.52696 0.11022 0.05037 0.0
O168 O 0.5666 0.06973 0.14857 0.0
C169 C 0.46987 0.94143 0.41578 0.0
C170 C 0.40229 0.9003 0.34572 0.0
C171 C 0.42092 0.89373 0.47649 0.0
C172 C 0.45427 0.91445 0.51179 0.0
C173 C 0.45394 0.94541 0.28104 0.0
C174 C 0.42061 0.92519 0.24586 0.0
C175 C 0.49949 0.96914 0.45837 0.0
H176 H 0.65623 0.14106 0.39244 0.0
H177 H 0.58972 0.12145 0.38673 0.0
H178 H 0.58317 0.15164 0.94503 0.0
H179 H 0.65292 0.16186 0.94266 0.0
H180 H 0.40864 0.87428 0.55481 0.0
H181 H 0.46659 0.91089 0.61655 0.0
H182 H 0.466 0.96596 0.20557 0.0
H183 H 0.40843 0.93121 0.14262 0.0
Tb184 Tb 0.51716 0.54589 0.94168 0.0
Eu185 Eu 0.56439 0.51781 0.67124 0.0
C186 C 0.47188 0.52666 0.64993 0.0
C187 C 0.54248 0.45374 0.91412 0.0
C188 C 0.44962 0.5821 0.23252 0.0
C189 C 0.39294 0.62351 0.22704 0.0
C190 C 0.41398 0.59226 0.17143 0.0
C191 C 0.46103 0.5993 0.35966 0.0
C192 C 0.44058 0.63056 0.41335 0.0
C193 C 0.40858 0.64542 0.33915 0.0
C194 C 0.47744 0.55631 0.16363 0.0
O195 O 0.57751 0.55263 1.01793 0.0
O196 O 0.60902 0.51831 0.84596 0.0
O197 O 0.55123 0.58215 0.63124 0.0
O198 O 0.52256 0.60369 0.83566 0.0
C199 C 0.60915 0.53577 0.96958 0.0
O200 O 0.61362 0.53497 0.54055 0.0
O201 O 0.57736 0.48641 0.4768 0.0
O202 O 0.50215 0.50721 0.60366 0.0
O203 O 0.47429 0.54752 0.76742 0.0
O204 O 0.52295 0.48239 0.97355 0.0
O205 O 0.56217 0.46004 0.7957 0.0
C206 C 0.53627 0.61075 0.70643 0.0
O207 O 0.46588 0.53541 0.05678 0.0
O208 O 0.51173 0.57108 0.14203 0.0
C209 C 0.6436 0.48095 0.4359 0.0
C210 C 0.6769 0.40856 0.45252 0.0
C211 C 0.66614 0.42299 0.31912 0.0
C212 C 0.64506 0.45739 0.31561 0.0
C213 C 0.66774 0.47232 0.55185 0.0
C214 C 0.68557 0.43585 0.55844 0.0
C215 C 0.6096 0.50553 0.45487 0.0
H216 H 0.36791 0.63402 0.16967 0.0
H217 H 0.40404 0.57835 0.07518 0.0
H218 H 0.48758 0.59053 0.41161 0.0
H219 H 0.45316 0.64614 0.50179 0.0
H220 H 0.66226 0.40314 0.23103 0.0
H221 H 0.6261 0.46287 0.22658 0.0
H222 H 0.66779 0.49055 0.64546 0.0
H223 H 0.69706 0.42615 0.6591 0.0
Tb224 Tb 1.01511 0.51597 0.0191 0.0
Eu225 Eu 0.04234 0.56827 0.76296 0.0
C226 C 0.03624 0.47484 0.72179 0.0
C227 C 0.10766 0.54038 0.99009 0.0
C228 C 0.98301 0.43539 0.25332 0.0
C229 C 0.93176 0.40385 0.38297 0.0
C230 C 0.96044 0.43217 0.37562 0.0
C231 C 0.98017 0.40664 0.14762 0.0
C232 C 0.94948 0.38 0.15354 0.0
C233 C 0.92036 0.3859 0.2559 0.0
C234 C 1.00323 0.47198 0.22857 0.0
O235 O 1.00427 0.57586 0.0988 0.0
O236 O 0.04642 0.60747 0.95423 0.0
O237 O 0.97758 0.55966 0.72911 0.0
O238 O 0.96095 0.51225 0.88705 0.0
C239 C 1.02463 0.6072 0.06797 0.0
O240 O 1.03081 0.62454 0.6647 0.0
O241 O 0.06823 0.58274 0.55961 0.0
O242 O 0.0522 0.50712 0.67424 0.0
O243 O 1.01784 0.47418 0.84436 0.0
O244 O 0.07897 0.52089 0.05041 0.0
O245 O 0.10034 0.56264 0.87963 0.0
C246 C 0.95221 0.53396 0.77489 0.0
O247 O 0.03387 0.47022 0.14834 0.0
O248 O 0.98113 0.50146 0.19614 0.0
C249 C 0.08786 0.647 0.55632 0.0
C250 C 0.16714 0.65496 0.56586 0.0
C251 C 0.14857 0.65577 0.43401 0.0
C252 C 0.10922 0.64789 0.43053 0.0
C253 C 0.10522 0.65986 0.68269 0.0
C254 C 0.14548 0.66333 0.68813 0.0
C255 C 0.05642 0.61881 0.56493 0.0
H256 H 0.91191 0.40551 0.4719 0.0
H257 H 0.96249 0.45367 0.45923 0.0
H258 H 0.99831 0.40764 0.05373 0.0
H259 H 0.94351 0.36244 0.06111 0.0
H260 H 0.16502 0.65048 0.33768 0.0
H261 H 0.09771 0.63495 0.33561 0.0
H262 H 0.08917 0.65968 0.78145 0.0
H263 H 0.15942 0.66417 0.79086 0.0
C264 C 0.18432 0.06657 0.39039 0.0
C265 C 0.20716 1.0328 0.40935 0.0
C266 C 0.14927 0.07257 0.4693 0.0
C267 C 0.13611 0.04586 0.57377 0.0
H268 H 0.19382 0.0889 0.3174 0.0
H269 H 0.13315 0.09891 0.4517 0.0
S270 S 0.18152 0.95039 0.65084 0.0
N271 N 0.20951 0.96982 0.52811 0.0
N272 N 0.14781 0.98315 0.68209 0.0
C273 C 0.15864 1.01223 0.59239 0.0
C274 C 0.19271 1.00518 0.50869 0.0
C275 C 0.49745 0.1876 0.41724 0.0
C276 C 0.52952 0.21294 0.42649 0.0
C277 C 0.49695 0.15107 0.48886 0.0
C278 C 0.52779 0.13905 0.57759 0.0
H279 H 0.47206 0.19667 0.35895 0.0
H280 H 0.4715 0.13287 0.47927 0.0
S281 S 0.62024 0.19298 0.62483 0.0
N282 N 0.59489 0.22049 0.516 0.0
N283 N 0.5923 0.15534 0.66133 0.0
C284 C 0.56008 0.16411 0.58523 0.0
C285 C 0.56148 0.19976 0.50618 0.0
C286 C 0.39097 0.49739 0.38384 0.0
C287 C 0.36214 0.5259 0.40487 0.0
C288 C 0.42668 0.49832 0.45931 0.0
C289 C 0.43451 0.52672 0.56462 0.0
H290 H 0.38517 0.47321 0.31364 0.0
H291 H 0.44761 0.47553 0.4392 0.0
S292 S 0.3689 0.60866 0.65723 0.0
N293 N 0.346 0.58546 0.52947 0.0
N294 N 0.40956 0.58444 0.68207 0.0
C295 C 0.40595 0.55552 0.58474 0.0
C296 C 0.37107 0.55596 0.50179 0.0
C297 C 0.06214 0.39139 0.4668 0.0
C298 C 0.03168 0.36472 0.49351 0.0
C299 C 0.06393 0.42788 0.53447 0.0
C300 C 0.03581 0.43795 0.63444 0.0
H301 H 0.08559 0.38311 0.39665 0.0
H302 H 0.088 0.44721 0.51303 0.0
S303 S 0.93897 0.382 0.757 0.0
N304 N 0.98215 0.39844 0.68584 0.0
N305 N 0.97441 0.41486 0.74036 0.0
C306 C 1.00321 0.40873 0.65605 0.0
C307 C 0.99988 0.37293 0.58657 0.0
C308 C 0.89315 1.00383 0.3007 0.0
C309 C 0.86208 1.0303 0.28784 0.0
C310 C 0.92767 1.00757 0.2176 0.0
C311 C 0.9321 0.03701 0.11296 0.0
H312 H 0.89005 0.9791 0.37077 0.0
H313 H 0.95036 0.9862 0.23146 0.0
S314 S 0.85966 0.11459 0.0405 0.0
N315 N 0.84 0.08885 0.16967 0.0
N316 N 0.90158 0.09357 1.0063 0.0
C317 C 0.90119 0.06366 0.10069 0.0
C318 C 0.8674 0.06105 0.19 0.0
C319 C 0.55274 0.89129 0.28773 0.0
C320 C 0.54243 0.85553 0.22437 0.0
C321 C 0.55372 0.9263 0.21118 0.0
C322 C 0.54423 0.92663 0.06782 0.0
H323 H 0.55721 0.89231 0.40128 0.0
H324 H 0.56031 0.95316 0.26573 0.0
S325 S 0.52675 0.83745 0.79962 0.0
N326 N 0.53481 0.86881 0.93983 0.0
N327 N 0.53395 0.88186 0.86659 0.0
C328 C 0.5379 0.88665 1.00111 0.0
C329 C 0.53567 0.85097 0.07562 0.0
C330 C 0.69217 0.5603 0.23534 0.0
C331 C 0.71788 0.52858 0.21902 0.0
C332 C 0.65652 0.56236 0.15883 0.0
C333 C 0.64591 0.53376 0.05764 0.0
H334 H 0.7001 0.58417 0.30408 0.0
H335 H 0.63788 0.58727 0.17517 0.0
S336 S 0.70085 0.44293 0.98523 0.0
N337 N 0.7264 0.46529 0.10801 0.0
N338 N 0.66393 0.4719 0.95257 0.0
C339 C 0.67137 0.50203 0.04187 0.0
C340 C 0.70581 0.49866 0.12579 0.0
C341 C 0.99105 0.68776 0.33079 0.0
C342 C 1.02179 0.71474 0.32791 0.0
C343 C 0.99246 0.65261 0.25125 0.0
C344 C 1.024 0.6433 0.16116 0.0
H345 H 0.96479 0.69493 0.38811 0.0
H346 H 0.9675 0.63397 0.25319 0.0
S347 S 0.11207 0.70453 0.11558 0.0
N348 N 0.08572 0.72832 0.23324 0.0
N349 N 0.08674 0.66543 0.07502 0.0
C350 C 0.05473 0.67037 0.15748 0.0
C351 C 0.05425 0.70474 0.24411 0.0
C352 C 0.97515 0.21362 0.57125 0.0
C353 C 0.97536 0.24239 0.46696 0.0
C354 C 0.94097 0.19414 0.60529 0.0
C355 C 0.90636 0.20118 0.529 0.0
H356 H 1.00182 0.20531 0.62303 0.0
H357 H 0.94326 0.17013 0.67906 0.0
S358 S 0.89087 0.28056 0.27018 0.0
N359 N 0.93737 0.2832 0.30982 0.0
N360 N 0.8732 0.24428 0.36555 0.0
C361 C 0.90548 0.23323 0.437 0.0
C362 C 0.94018 0.25373 0.40521 0.0
C363 C 0.32265 0.93285 0.19145 0.0
C364 C 0.31253 0.95207 0.31837 0.0
C365 C 0.34472 0.89866 0.19463 0.0
C366 C 0.36124 0.88778 0.32449 0.0
H367 H 0.31351 0.94345 0.09124 0.0
H368 H 0.35629 0.88747 0.09579 0.0
S369 S 0.29905 0.89203 0.64311 0.0
N370 N 0.28801 0.93153 0.55134 0.0
N371 N 0.33363 0.86982 0.55268 0.0
C372 C 0.33668 0.89434 0.44037 0.0
C373 C 0.31265 0.92794 0.44001 0.0
C374 C 0.58107 0.3672 0.52218 0.0
C375 C 0.58232 0.33535 0.43129 0.0
C376 C 0.61505 0.38722 0.55438 0.0
C377 C 0.65104 0.37638 0.49348 0.0
H378 H 0.55358 0.37767 0.56256 0.0
H379 H 0.61211 0.4142 0.61233 0.0
S380 S 0.66967 0.28835 0.27949 0.0
N381 N 0.62238 0.28822 0.30684 0.0
N382 N 0.68635 0.32731 0.36155 0.0
C383 C 0.65296 0.34145 0.41804 0.0
C384 C 0.61844 0.32086 0.38655 0.0
C385 C 0.25262 0.59812 0.45388 0.0
C386 C 0.23855 0.55998 0.47154 0.0
C387 C 0.23187 0.6299 0.50535 0.0
C388 C 0.19636 0.62417 0.57416 0.0
H389 H 0.27878 0.60327 0.39309 0.0
H390 H 0.24165 0.659 0.47936 0.0
S391 S 0.14855 0.529 0.64343 0.0
N392 N 0.18959 0.51755 0.56479 0.0
N393 N 0.14874 0.5769 0.65793 0.0
C394 C 0.18351 0.58564 0.59902 0.0
C395 C 0.20498 0.55355 0.54743 0.0
C396 C 0.09801 0.82582 0.28383 0.0
C397 C 0.05979 0.8386 0.26225 0.0
C398 C 0.12926 0.84671 0.22882 0.0
C399 C 0.12278 0.8811 0.1528 0.0
H400 H 0.10358 0.8007 0.34996 0.0
H401 H 0.15835 0.83861 0.25989 0.0
S402 S 1.02677 0.92315 0.06128 0.0
N403 N 1.01638 0.88377 0.15276 0.0
N404 N 0.07454 0.92445 0.04886 0.0
C405 C 0.08415 0.89152 0.11947 0.0
C406 C 0.05268 0.87016 0.17633 0.0
C407 C 0.74876 0.09761 0.26959 0.0
C408 C 0.73709 0.05883 0.24806 0.0
C409 C 0.72592 0.12842 0.22257 0.0
C410 C 0.69093 0.12093 0.15346 0.0
H411 H 0.77462 0.1039 0.33002 0.0
H412 H 0.73373 0.15784 0.25188 0.0
S413 S 0.64944 1.02346 0.07479 0.0
N414 N 0.69096 1.01408 0.15235 0.0
N415 N 0.6467 0.07138 0.06393 0.0
C416 C 0.68071 0.08189 0.12389 0.0
C417 C 0.70406 0.05087 0.17234 0.0
C418 C 0.43346 0.73886 0.4871 0.0
C419 C 0.45566 0.75194 0.37191 0.0
C420 C 0.40792 0.7075 0.47036 0.0
C421 C 0.40529 0.68815 0.33878 0.0
H422 H 0.43819 0.75082 0.59179 0.0
H423 H 0.3955 0.69441 0.56464 0.0
S424 S 0.44899 0.71962 0.99814 0.0
N425 N 0.46812 0.7484 0.1188 0.0
N426 N 0.41773 0.69217 0.08484 0.0
C427 C 0.42129 0.70646 0.21872 0.0
C428 C 0.44828 0.73701 0.23652 0.0
C429 C 0.86693 0.4698 0.14468 0.0
C430 C 0.83916 0.47061 0.2524 0.0
C431 C 0.88745 0.43579 0.11602 0.0
C432 C 0.88349 0.40281 0.20508 0.0
H433 H 0.87406 0.49612 0.08766 0.0
H434 H 0.91087 0.43792 0.03974 0.0
S435 S 0.80536 0.38726 0.46866 0.0
N436 N 0.80037 0.43305 0.41881 0.0
N437 N 0.84214 0.36984 0.3757 0.0
C438 C 0.85123 0.40147 0.29594 0.0
C439 C 0.82929 0.43575 0.32124 0.0
C440 C 1.00907 0.235 0.07163 0.0
C441 C 1.02793 0.23819 0.20467 0.0
C442 C 1.01011 0.19972 0.98953 0.0
C443 C 1.02958 0.16557 0.03677 0.0
H444 H 0.99226 0.25932 0.03289 0.0
H445 H 0.99461 0.19895 0.89008 0.0
S446 S 0.082 0.15898 0.38167 0.0
N447 N 0.06598 0.20401 0.3783 0.0
N448 N 0.0677 0.13914 0.23161 0.0
C449 C 0.04845 0.16916 0.16994 0.0
C450 C 0.04761 0.20476 0.25113 0.0
C451 C 0.36429 0.04216 0.18558 0.0
C452 C 0.33253 1.02394 0.11768 0.0
C453 C 0.40186 0.04462 0.12236 0.0
C454 C 0.41068 1.02724 0.98975 0.0
H455 H 0.36028 0.05372 0.29139 0.0
H456 H 0.42458 0.05904 0.18117 0.0
S457 S 0.34055 0.97141 0.77715 0.0
N458 N 0.31345 0.989 0.90634 0.0
N459 N 0.38463 0.98784 0.80156 0.0
C460 C 0.3795 1.00838 0.92262 0.0
C461 C 0.34059 1.00829 0.98214 0.0
C462 C 0.51059 0.37122 0.17161 0.0
C463 C 0.53762 0.34088 0.15278 0.0
C464 C 0.51198 0.40622 0.09162 0.0
C465 C 0.541 0.41377 0.98824 0.0
H466 H 0.48854 0.36826 0.25285 0.0
H467 H 0.49024 0.42807 0.11401 0.0
S468 S 0.62116 0.34508 0.90416 0.0
N469 N 0.59539 0.32144 0.0245 0.0
N470 N 0.59898 0.38709 0.87864 0.0
C471 C 0.56848 0.38356 0.96863 0.0
C472 C 0.56668 0.34748 0.04954 0.0
C473 C 0.21751 0.55963 0.08352 0.0
C474 C 0.22744 0.52846 0.17502 0.0
C475 C 0.17965 0.56303 0.02124 0.0
C476 C 0.14925 0.53602 0.04952 0.0
H477 H 0.23856 0.58236 0.06422 0.0
H478 H 0.17383 0.58789 0.95415 0.0
S479 S 0.16059 0.44863 0.27937 0.0
N480 N 0.2035 0.46971 0.28566 0.0
N481 N 0.13391 0.47613 0.17467 0.0
C482 C 0.15947 0.5046 0.13918 0.0
C483 C 0.19778 0.50095 0.19998 0.0
C484 C 0.05896 0.86169 0.63846 0.0
C485 C 1.02657 0.84918 0.55838 0.0
C486 C 0.06098 0.89985 0.70014 0.0
C487 C 0.0311 0.92798 0.68284 0.0
H488 H 0.08358 0.84245 0.64888 0.0
H489 H 0.08689 0.90777 0.75761 0.0
S490 S 0.94056 0.90991 0.47883 0.0
N491 N 0.96454 0.8686 0.46487 0.0
N492 N 0.96783 0.93866 0.57679 0.0
C493 C 0.99868 0.91526 0.60321 0.0
C494 C 0.99665 0.87667 0.54231 0.0
C495 C 0.71853 0.05818 0.63209 0.0
C496 C 0.73038 1.02666 0.54479 0.0
C497 C 0.68047 0.06003 0.69541 0.0
C498 C 0.65164 1.03112 0.67132 0.0
H499 H 0.73811 0.08243 0.64655 0.0
H500 H 0.67306 0.08528 0.75843 0.0
S501 S 0.66803 0.94236 0.45288 0.0
N502 N 0.70972 0.9657 0.44278 0.0
N503 N 0.63989 0.96924 0.55506 0.0
C504 C 0.66383 0.9994 0.58629 0.0
C505 C 0.70233 0.99727 0.52509 0.0
C506 C 0.51878 0.7223 0.65025 0.0
C507 C 0.52989 0.72935 0.50771 0.0
C508 C 0.52128 0.68467 0.71401 0.0
C509 C 0.53466 0.65163 0.63867 0.0
H510 H 0.50736 0.74611 0.71265 0.0
H511 H 0.51227 0.68142 0.82338 0.0
S512 S 0.56541 0.65403 0.25842 0.0
N513 N 0.55337 0.69955 0.29217 0.0
N514 N 0.55868 0.62995 0.40812 0.0
C515 C 0.54585 0.65866 0.49525 0.0
C516 C 0.54324 0.69693 0.43111 0.0
C517 C 0.84503 0.50889 0.65323 0.0
C518 C 0.84309 0.52438 0.51358 0.0
C519 C 0.87964 0.51156 0.73807 0.0
C520 C 0.91422 0.52974 0.68827 0.0
H521 H 0.82022 0.49357 0.69591 0.0
H522 H 0.87936 0.49885 0.84275 0.0
S523 S 0.9254 0.56992 0.32313 0.0
N524 N 0.87987 0.55606 0.3291 0.0
N525 N 0.94349 0.55989 0.48041 0.0
C526 C 0.91227 0.54416 0.54733 0.0
C527 C 0.87742 0.54177 0.46315 0.0
loop_
_geom_bond_atom_site_label_1
_geom_bond_atom_site_label_2
_geom_bond_distance
_geom_bond_site_symmetry_2
_ccdc_geom_bond_type
C0 N1 1.317 . S
C0 N2 1.348 . S
C0 C3 1.485 . S
N1 C0 1.317 . S
N1 N5 1.370 . S
N2 C0 1.348 . S
N2 C4 1.346 . S
C3 C0 1.485 . S
C3 H7 0.960 . S
C3 H8 0.961 . S
C3 H9 0.960 . S
C4 N2 1.346 . S
C4 N5 1.307 . S
C4 C6 1.486 . S
N5 N1 1.370 . S
N5 C4 1.307 . S
C6 C4 1.486 . S
C6 H10 0.960 . S
C6 H11 0.960 . S
C6 H12 0.959 . S
H7 C3 0.960 . S
H8 C3 0.961 . S
H9 C3 0.960 . S
H10 C6 0.960 . S
H11 C6 0.960 . S
H12 C6 0.959 . S
C13 N14 1.317 . S
C13 N15 1.348 . S
C13 C16 1.485 . S
N14 C13 1.317 . S
N14 N18 1.371 . S
N15 C13 1.348 . S
N15 C17 1.346 1_655 S
C16 C13 1.485 . S
C16 H20 0.960 1_655 S
C16 H21 0.961 . S
C16 H22 0.960 . S
C17 N15 1.346 1_455 S
C17 N18 1.307 1_455 S
C17 C19 1.486 . S
N18 N14 1.371 . S
N18 C17 1.307 1_655 S
C19 C17 1.486 . S
C19 H23 0.960 1_455 S
C19 H24 0.960 . S
C19 H25 0.959 . S
H20 C16 0.960 1_455 S
H21 C16 0.961 . S
H22 C16 0.960 . S
H23 C19 0.960 1_655 S
H24 C19 0.960 . S
H25 C19 0.959 . S
C26 N27 1.317 . S
C26 N28 1.348 . S
C26 C29 1.485 . S
N27 C26 1.317 . S
N27 N31 1.371 . S
N28 C26 1.348 . S
N28 C30 1.346 1_565 S
C29 C26 1.485 . S
C29 H33 0.960 1_565 S
C29 H34 0.961 . S
C29 H35 0.960 . S
C30 N28 1.346 1_545 S
C30 N31 1.307 1_545 S
C30 C32 1.486 . S
N31 N27 1.371 . S
N31 C30 1.307 1_565 S
C32 C30 1.486 . S
C32 H36 0.960 1_545 S
C32 H37 0.960 . S
C32 H38 0.959 . S
H33 C29 0.960 1_545 S
H34 C29 0.961 . S
H35 C29 0.960 . S
H36 C32 0.960 1_565 S
H37 C32 0.960 . S
H38 C32 0.959 . S
C39 N40 1.317 . S
C39 N41 1.348 . S
C39 C42 1.485 . S
N40 C39 1.317 . S
N40 N44 1.370 . S
N41 C39 1.348 . S
N41 C43 1.346 . S
C42 C39 1.485 . S
C42 H46 0.960 . S
C42 H47 0.961 . S
C42 H48 0.960 . S
C43 N41 1.346 . S
C43 N44 1.307 . S
C43 C45 1.486 . S
N44 N40 1.370 . S
N44 C43 1.307 . S
C45 C43 1.486 . S
C45 H49 0.960 . S
C45 H50 0.960 . S
C45 H51 0.959 . S
H46 C42 0.960 . S
H47 C42 0.961 . S
H48 C42 0.960 . S
H49 C45 0.960 . S
H50 C45 0.960 . S
H51 C45 0.959 . S
C52 N53 1.317 . S
C52 N54 1.348 1_556 S
C52 C55 1.485 . S
N53 C52 1.317 . S
N53 N57 1.370 1_556 S
N54 C52 1.348 1_554 S
N54 C56 1.346 . S
C55 C52 1.485 . S
C55 H59 0.960 . S
C55 H60 0.961 . S
C55 H61 0.960 . S
C56 N54 1.346 . S
C56 N57 1.307 . S
C56 C58 1.486 . S
N57 N53 1.370 1_554 S
N57 C56 1.307 . S
C58 C56 1.486 . S
C58 H62 0.960 . S
C58 H63 0.960 . S
C58 H64 0.959 . S
H59 C55 0.960 . S
H60 C55 0.961 . S
H61 C55 0.960 . S
H62 C58 0.960 . S
H63 C58 0.960 . S
H64 C58 0.959 . S
C65 N66 1.317 . S
C65 N67 1.350 1_556 S
C65 C68 1.485 . S
N66 C65 1.317 . S
N66 N70 1.371 1_556 S
N67 C65 1.350 1_554 S
N67 C69 1.345 1_655 S
C68 C65 1.485 . S
C68 H72 0.960 1_655 S
C68 H73 0.961 . S
C68 H74 0.960 . S
C69 N67 1.345 1_455 S
C69 N70 1.307 1_455 S
C69 C71 1.487 . S
N70 N66 1.371 1_554 S
N70 C69 1.307 1_655 S
C71 C69 1.487 . S
C71 H75 0.960 1_455 S
C71 H76 0.960 . S
C71 H77 0.959 . S
H72 C68 0.960 1_455 S
H73 C68 0.961 . S
H74 C68 0.960 . S
H75 C71 0.960 1_655 S
H76 C71 0.960 . S
H77 C71 0.959 . S
C78 N79 1.317 . S
C78 N80 1.350 1_556 S
C78 C81 1.485 . S
N79 C78 1.317 . S
N79 N83 1.371 1_556 S
N80 C78 1.350 1_554 S
N80 C82 1.345 1_565 S
C81 C78 1.485 . S
C81 H85 0.960 1_565 S
C81 H86 0.961 . S
C81 H87 0.960 . S
C82 N80 1.345 1_545 S
C82 N83 1.307 1_545 S
C82 C84 1.487 . S
N83 N79 1.371 1_554 S
N83 C82 1.307 1_565 S
C84 C82 1.487 . S
C84 H88 0.960 1_545 S
C84 H89 0.960 . S
C84 H90 0.959 . S
H85 C81 0.960 1_545 S
H86 C81 0.961 . S
H87 C81 0.960 . S
H88 C84 0.960 1_565 S
H89 C84 0.960 . S
H90 C84 0.959 . S
C91 N92 1.317 . S
C91 N93 1.348 1_556 S
C91 C94 1.485 . S
N92 C91 1.317 . S
N92 N96 1.370 1_556 S
N93 C91 1.348 1_554 S
N93 C95 1.346 . S
C94 C91 1.485 . S
C94 H98 0.960 . S
C94 H99 0.961 . S
C94 H100 0.960 . S
C95 N93 1.346 . S
C95 N96 1.307 . S
C95 C97 1.486 . S
N96 N92 1.370 1_554 S
N96 C95 1.307 . S
C97 C95 1.486 . S
C97 H101 0.960 . S
C97 H102 0.960 . S
C97 H103 0.959 . S
H98 C94 0.960 . S
H99 C94 0.961 . S
H100 C94 0.960 . S
H101 C97 0.960 . S
H102 C97 0.960 . S
H103 C97 0.959 . S
Tb104 C114 2.825 1_556 S
Tb104 O115 2.347 1_455 S
Tb104 O118 2.366 . S
Tb104 O123 2.418 . S
Tb104 O124 2.384 1_565 S
Tb104 O127 2.479 1_556 S
Tb104 O128 2.471 1_556 S
Eu105 O116 2.418 . S
Eu105 O117 2.384 1_545 S
Eu105 O120 2.479 . S
Eu105 O121 2.471 . S
Eu105 O122 2.347 1_655 S
Eu105 O125 2.366 . S
Eu105 C135 2.825 . S
C106 O122 1.259 1_565 S
C106 O123 1.265 . S
C107 O124 1.255 . S
C107 O125 1.265 1_455 S
C108 C110 1.380 . S
C108 C111 1.374 . S
C108 C114 1.507 . S
C109 C110 1.384 . S
C109 C113 1.387 . S
C109 H136 0.930 . S
C110 C108 1.380 . S
C110 C109 1.384 . S
C110 H137 0.931 . S
C111 C108 1.374 . S
C111 C112 1.390 . S
C111 H138 0.930 1_455 S
C112 C111 1.390 . S
C112 C113 1.391 . S
C112 H139 0.930 1_455 S
C113 C109 1.387 . S
C113 C112 1.391 . S
C114 Tb104 2.825 1_554 S
C114 C108 1.507 . S
C114 O127 1.238 . S
C114 O128 1.247 . S
O115 Tb104 2.347 1_655 S
O115 C119 1.259 1_565 S
O116 Eu105 2.418 . S
O116 C119 1.265 . S
O117 Eu105 2.384 1_565 S
O117 C126 1.255 . S
O118 Tb104 2.366 . S
O118 C126 1.265 1_455 S
C119 O115 1.259 1_545 S
C119 O116 1.265 . S
O120 Eu105 2.479 . S
O120 C135 1.238 . S
O121 Eu105 2.471 . S
O121 C135 1.247 . S
O122 Eu105 2.347 1_455 S
O122 C106 1.259 1_545 S
O123 Tb104 2.418 . S
O123 C106 1.265 . S
O124 Tb104 2.384 1_545 S
O124 C107 1.255 . S
O125 Eu105 2.366 . S
O125 C107 1.265 1_655 S
C126 O117 1.255 . S
C126 O118 1.265 1_655 S
O127 Tb104 2.479 1_554 S
O127 C114 1.238 . S
O128 Tb104 2.471 1_554 S
O128 C114 1.247 . S
C129 C132 1.380 . S
C129 C133 1.374 . S
C129 C135 1.507 . S
C130 C131 1.387 . S
C130 C134 1.391 . S
C131 C130 1.387 . S
C131 C132 1.384 . S
C131 H140 0.930 . S
C132 C129 1.380 . S
C132 C131 1.384 . S
C132 H141 0.931 . S
C133 C129 1.374 . S
C133 C134 1.390 . S
C133 H142 0.930 1_655 S
C134 C130 1.391 . S
C134 C133 1.390 . S
C134 H143 0.930 1_655 S
C135 Eu105 2.825 . S
C135 O120 1.238 . S
C135 O121 1.247 . S
C135 C129 1.507 . S
H136 C109 0.930 . S
H137 C110 0.931 . S
H138 C111 0.930 1_655 S
H139 C112 0.930 1_655 S
H140 C131 0.930 . S
H141 C132 0.931 . S
H142 C133 0.930 1_455 S
H143 C134 0.930 1_455 S
Tb144 C154 2.825 1_556 S
Tb144 O155 2.347 1_545 S
Tb144 O158 2.366 . S
Tb144 O163 2.418 . S
Tb144 O164 2.384 . S
Tb144 O167 2.479 1_556 S
Tb144 O168 2.471 1_556 S
Eu145 O156 2.418 . S
Eu145 O157 2.384 . S
Eu145 O160 2.479 . S
Eu145 O161 2.471 . S
Eu145 O162 2.347 1_565 S
Eu145 O165 2.366 . S
Eu145 C175 2.825 . S
C146 O162 1.259 . S
C146 O163 1.265 . S
C147 O164 1.255 . S
C147 O165 1.265 1_545 S
C148 C150 1.380 . S
C148 C151 1.374 . S
C148 C154 1.507 . S
C149 C150 1.384 . S
C149 C153 1.387 . S
C149 H176 0.930 . S
C150 C148 1.380 . S
C150 C149 1.384 . S
C150 H177 0.931 . S
C151 C148 1.374 . S
C151 C152 1.390 . S
C151 H178 0.930 1_545 S
C152 C151 1.390 . S
C152 C153 1.391 . S
C152 H179 0.930 1_545 S
C153 C149 1.387 . S
C153 C152 1.391 . S
C154 Tb144 2.825 1_554 S
C154 C148 1.507 . S
C154 O167 1.238 . S
C154 O168 1.247 . S
O155 Tb144 2.347 1_565 S
O155 C159 1.259 . S
O156 Eu145 2.418 . S
O156 C159 1.265 . S
O157 Eu145 2.384 . S
O157 C166 1.255 . S
O158 Tb144 2.366 . S
O158 C166 1.265 1_545 S
C159 O155 1.259 . S
C159 O156 1.265 . S
O160 Eu145 2.479 . S
O160 C175 1.238 . S
O161 Eu145 2.471 . S
O161 C175 1.247 . S
O162 Eu145 2.347 1_545 S
O162 C146 1.259 . S
O163 Tb144 2.418 . S
O163 C146 1.265 . S
O164 Tb144 2.384 . S
O164 C147 1.255 . S
O165 Eu145 2.366 . S
O165 C147 1.265 1_565 S
C166 O157 1.255 . S
C166 O158 1.265 1_565 S
O167 Tb144 2.479 1_554 S
O167 C154 1.238 . S
O168 Tb144 2.471 1_554 S
O168 C154 1.247 . S
C169 C172 1.380 . S
C169 C173 1.374 . S
C169 C175 1.507 . S
C170 C171 1.387 . S
C170 C174 1.391 . S
C171 C170 1.387 . S
C171 C172 1.384 . S
C171 H180 0.930 . S
C172 C169 1.380 . S
C172 C171 1.384 . S
C172 H181 0.931 . S
C173 C169 1.374 . S
C173 C174 1.390 . S
C173 H182 0.930 1_565 S
C174 C170 1.391 . S
C174 C173 1.390 . S
C174 H183 0.930 1_565 S
C175 Eu145 2.825 . S
C175 O160 1.238 . S
C175 O161 1.247 . S
C175 C169 1.507 . S
H176 C149 0.930 . S
H177 C150 0.931 . S
H178 C151 0.930 1_565 S
H179 C152 0.930 1_565 S
H180 C171 0.930 . S
H181 C172 0.931 . S
H182 C173 0.930 1_545 S
H183 C174 0.930 1_545 S
Tb184 C194 2.825 1_556 S
Tb184 O195 2.347 . S
Tb184 O198 2.366 . S
Tb184 O203 2.418 . S
Tb184 O204 2.384 . S
Tb184 O207 2.479 1_556 S
Tb184 O208 2.471 1_556 S
Eu185 O196 2.418 . S
Eu185 O197 2.384 . S
Eu185 O200 2.479 . S
Eu185 O201 2.471 . S
Eu185 O202 2.347 . S
Eu185 O205 2.366 . S
Eu185 C215 2.825 . S
C186 O202 1.259 . S
C186 O203 1.265 . S
C187 O204 1.255 . S
C187 O205 1.265 . S
C188 C190 1.380 . S
C188 C191 1.374 . S
C188 C194 1.507 . S
C189 C190 1.384 . S
C189 C193 1.387 . S
C189 H216 0.930 . S
C190 C188 1.380 . S
C190 C189 1.384 . S
C190 H217 0.931 . S
C191 C188 1.374 . S
C191 C192 1.390 . S
C191 H218 0.930 . S
C192 C191 1.390 . S
C192 C193 1.391 . S
C192 H219 0.930 . S
C193 C189 1.387 . S
C193 C192 1.391 . S
C194 Tb184 2.825 1_554 S
C194 C188 1.507 . S
C194 O207 1.238 . S
C194 O208 1.247 . S
O195 Tb184 2.347 . S
O195 C199 1.259 . S
O196 Eu185 2.418 . S
O196 C199 1.265 . S
O197 Eu185 2.384 . S
O197 C206 1.255 . S
O198 Tb184 2.366 . S
O198 C206 1.265 . S
C199 O195 1.259 . S
C199 O196 1.265 . S
O200 Eu185 2.479 . S
O200 C215 1.238 . S
O201 Eu185 2.471 . S
O201 C215 1.247 . S
O202 Eu185 2.347 . S
O202 C186 1.259 . S
O203 Tb184 2.418 . S
O203 C186 1.265 . S
O204 Tb184 2.384 . S
O204 C187 1.255 . S
O205 Eu185 2.366 . S
O205 C187 1.265 . S
C206 O197 1.255 . S
C206 O198 1.265 . S
O207 Tb184 2.479 1_554 S
O207 C194 1.238 . S
O208 Tb184 2.471 1_554 S
O208 C194 1.247 . S
C209 C212 1.380 . S
C209 C213 1.374 . S
C209 C215 1.507 . S
C210 C211 1.387 . S
C210 C214 1.391 . S
C211 C210 1.387 . S
C211 C212 1.384 . S
C211 H220 0.930 . S
C212 C209 1.380 . S
C212 C211 1.384 . S
C212 H221 0.931 . S
C213 C209 1.374 . S
C213 C214 1.390 . S
C213 H222 0.930 . S
C214 C210 1.391 . S
C214 C213 1.390 . S
C214 H223 0.930 . S
C215 Eu185 2.825 . S
C215 O200 1.238 . S
C215 O201 1.247 . S
C215 C209 1.507 . S
H216 C189 0.930 . S
H217 C190 0.931 . S
H218 C191 0.930 . S
H219 C192 0.930 . S
H220 C211 0.930 . S
H221 C212 0.931 . S
H222 C213 0.930 . S
H223 C214 0.930 . S
Tb224 C234 2.825 1_556 S
Tb224 O235 2.347 . S
Tb224 O238 2.366 . S
Tb224 O243 2.418 . S
Tb224 O244 2.384 1_655 S
Tb224 O247 2.479 1_556 S
Tb224 O248 2.471 1_556 S
Eu225 O236 2.418 . S
Eu225 O237 2.384 1_455 S
Eu225 O240 2.479 . S
Eu225 O241 2.471 . S
Eu225 O242 2.347 . S
Eu225 O245 2.366 . S
Eu225 C255 2.825 . S
C226 O242 1.259 1_655 S
C226 O243 1.265 . S
C227 O244 1.255 . S
C227 O245 1.265 . S
C228 C230 1.380 . S
C228 C231 1.374 . S
C228 C234 1.507 . S
C229 C230 1.384 . S
C229 C233 1.387 . S
C229 H256 0.930 . S
C230 C228 1.380 . S
C230 C229 1.384 . S
C230 H257 0.931 . S
C231 C228 1.374 . S
C231 C232 1.390 . S
C231 H258 0.930 . S
C232 C231 1.390 . S
C232 C233 1.391 . S
C232 H259 0.930 . S
C233 C229 1.387 . S
C233 C232 1.391 . S
C234 Tb224 2.825 1_554 S
C234 C228 1.507 . S
C234 O247 1.238 . S
C234 O248 1.247 . S
O235 Tb224 2.347 . S
O235 C239 1.259 1_655 S
O236 Eu225 2.418 . S
O236 C239 1.265 . S
O237 Eu225 2.384 1_655 S
O237 C246 1.255 . S
O238 Tb224 2.366 . S
O238 C246 1.265 . S
C239 O235 1.259 1_455 S
C239 O236 1.265 . S
O240 Eu225 2.479 . S
O240 C255 1.238 . S
O241 Eu225 2.471 . S
O241 C255 1.247 . S
O242 Eu225 2.347 . S
O242 C226 1.259 1_455 S
O243 Tb224 2.418 . S
O243 C226 1.265 . S
O244 Tb224 2.384 1_455 S
O244 C227 1.255 . S
O245 Eu225 2.366 . S
O245 C227 1.265 . S
C246 O237 1.255 . S
C246 O238 1.265 . S
O247 Tb224 2.479 1_554 S
O247 C234 1.238 . S
O248 Tb224 2.471 1_554 S
O248 C234 1.247 . S
C249 C252 1.380 . S
C249 C253 1.374 . S
C249 C255 1.507 . S
C250 C251 1.387 . S
C250 C254 1.391 . S
C251 C250 1.387 . S
C251 C252 1.384 . S
C251 H260 0.930 . S
C252 C249 1.380 . S
C252 C251 1.384 . S
C252 H261 0.931 . S
C253 C249 1.374 . S
C253 C254 1.390 . S
C253 H262 0.930 . S
C254 C250 1.391 . S
C254 C253 1.390 . S
C254 H263 0.930 . S
C255 Eu225 2.825 . S
C255 O240 1.238 . S
C255 O241 1.247 . S
C255 C249 1.507 . S
H256 C229 0.930 . S
H257 C230 0.931 . S
H258 C231 0.930 . S
H259 C232 0.930 . S
H260 C251 0.930 . S
H261 C252 0.931 . S
H262 C253 0.930 . S
H263 C254 0.930 . S
C264 C265 1.354 1_545 S
C264 C266 1.419 . S
C264 H268 0.930 . S
C265 C264 1.354 1_565 S
C265 C274 1.444 . S
C266 C264 1.419 . S
C266 C267 1.363 1_545 S
C266 H269 0.929 . S
C267 C266 1.363 1_565 S
C267 C273 1.428 . S
H268 C264 0.930 . S
H269 C266 0.929 . S
S270 N271 1.613 . S
S270 N272 1.610 . S
N271 S270 1.613 . S
N271 C274 1.350 . S
N272 S270 1.610 . S
N272 C273 1.351 . S
C273 C267 1.428 . S
C273 N272 1.351 . S
C273 C274 1.434 . S
C274 C265 1.444 . S
C274 N271 1.350 . S
C274 C273 1.434 . S
C275 C276 1.369 . S
C275 C277 1.419 . S
C275 H279 0.930 . S
C276 C275 1.369 . S
C276 C285 1.429 . S
C277 C275 1.419 . S
C277 C278 1.363 . S
C277 H280 0.929 . S
C278 C277 1.363 . S
C278 C284 1.428 . S
H279 C275 0.930 . S
H280 C277 0.929 . S
S281 N282 1.613 . S
S281 N283 1.610 . S
N282 S281 1.613 . S
N282 C285 1.350 . S
N283 S281 1.610 . S
N283 C284 1.351 . S
C284 C278 1.428 . S
C284 N283 1.351 . S
C284 C285 1.434 . S
C285 C276 1.429 . S
C285 N282 1.350 . S
C285 C284 1.434 . S
C286 C287 1.369 . S
C286 C288 1.419 . S
C286 H290 0.930 . S
C287 C286 1.369 . S
C287 C296 1.429 . S
C288 C286 1.419 . S
C288 C289 1.363 . S
C288 H291 0.929 . S
C289 C288 1.363 . S
C289 C295 1.428 . S
H290 C286 0.930 . S
H291 C288 0.929 . S
S292 N293 1.613 . S
S292 N294 1.610 . S
N293 S292 1.613 . S
N293 C296 1.350 . S
N294 S292 1.610 . S
N294 C295 1.351 . S
C295 C289 1.428 . S
C295 N294 1.351 . S
C295 C296 1.434 . S
C296 C287 1.429 . S
C296 N293 1.350 . S
C296 C295 1.434 . S
C297 C298 1.369 . S
C297 C299 1.419 . S
C297 H301 0.930 . S
C298 C297 1.369 . S
C298 C307 1.429 1_455 S
C299 C297 1.419 . S
C299 C300 1.364 . S
C299 H302 0.929 . S
C300 C299 1.364 . S
C300 C306 1.427 1_455 S
H301 C297 0.930 . S
H302 C299 0.929 . S
S303 N304 1.613 . S
S303 N305 1.610 . S
N304 S303 1.613 . S
N304 C307 1.350 . S
N305 S303 1.610 . S
N305 C306 1.351 . S
C306 C300 1.427 1_655 S
C306 N305 1.351 . S
C306 C307 1.434 . S
C307 C298 1.429 1_655 S
C307 N304 1.350 . S
C307 C306 1.434 . S
C308 C309 1.351 1_565 S
C308 C310 1.419 . S
C308 H312 0.930 . S
C309 C308 1.351 1_545 S
C309 C318 1.447 . S
C310 C308 1.419 . S
C310 C311 1.363 1_565 S
C310 H313 0.929 . S
C311 C310 1.363 1_545 S
C311 C317 1.428 . S
H312 C308 0.930 . S
H313 C310 0.929 . S
S314 N315 1.613 . S
S314 N316 1.610 . S
N315 S314 1.613 . S
N315 C318 1.350 . S
N316 S314 1.610 . S
N316 C317 1.351 . S
C317 C311 1.428 . S
C317 N316 1.351 . S
C317 C318 1.434 . S
C318 C309 1.447 . S
C318 N315 1.350 . S
C318 C317 1.434 . S
C319 C320 1.369 . S
C319 C321 1.419 . S
C319 H323 0.930 . S
C320 C319 1.369 . S
C320 C329 1.429 . S
C321 C319 1.419 . S
C321 C322 1.363 . S
C321 H324 0.929 . S
C322 C321 1.363 . S
C322 C328 1.428 . S
H323 C319 0.930 . S
H324 C321 0.929 . S
S325 N326 1.613 . S
S325 N327 1.610 . S
N326 S325 1.613 . S
N326 C329 1.350 . S
N327 S325 1.610 . S
N327 C328 1.351 . S
C328 C322 1.428 . S
C328 N327 1.351 . S
C328 C329 1.434 . S
C329 C320 1.429 . S
C329 N326 1.350 . S
C329 C328 1.434 . S
C330 C331 1.369 . S
C330 C332 1.419 . S
C330 H334 0.930 . S
C331 C330 1.369 . S
C331 C340 1.429 . S
C332 C330 1.419 . S
C332 C333 1.363 . S
C332 H335 0.929 . S
C333 C332 1.363 . S
C333 C339 1.428 . S
H334 C330 0.930 . S
H335 C332 0.929 . S
S336 N337 1.613 . S
S336 N338 1.610 . S
N337 S336 1.613 . S
N337 C340 1.350 . S
N338 S336 1.610 . S
N338 C339 1.351 . S
C339 C333 1.428 . S
C339 N338 1.351 . S
C339 C340 1.434 . S
C340 C331 1.429 . S
C340 N337 1.350 . S
C340 C339 1.434 . S
C341 C342 1.373 . S
C341 C343 1.419 . S
C341 H345 0.930 . S
C342 C341 1.373 . S
C342 C351 1.425 1_655 S
C343 C341 1.419 . S
C343 C344 1.373 . S
C343 H346 0.929 . S
C344 C343 1.373 . S
C344 C350 1.419 1_655 S
H345 C341 0.930 . S
H346 C343 0.929 . S
S347 N348 1.613 . S
S347 N349 1.610 . S
N348 S347 1.613 . S
N348 C351 1.350 . S
N349 S347 1.610 . S
N349 C350 1.351 . S
C350 C344 1.419 1_455 S
C350 N349 1.351 . S
C350 C351 1.434 . S
C351 C342 1.425 1_455 S
C351 N348 1.350 . S
C351 C350 1.434 . S
C352 C353 1.366 1_455 S
C352 C354 1.419 1_455 S
C352 H356 0.930 . S
C353 C352 1.366 1_655 S
C353 C362 1.442 . S
C354 C352 1.419 1_655 S
C354 C355 1.363 . S
C354 H357 0.929 . S
C355 C354 1.363 . S
C355 C361 1.428 . S
H356 C352 0.930 . S
H357 C354 0.929 . S
S358 N359 1.613 . S
S358 N360 1.610 . S
N359 S358 1.613 . S
N359 C362 1.350 . S
N360 S358 1.610 . S
N360 C361 1.351 . S
C361 C355 1.428 . S
C361 N360 1.351 . S
C361 C362 1.434 . S
C362 C353 1.442 . S
C362 N359 1.350 . S
C362 C361 1.434 . S
C363 C364 1.369 . S
C363 C365 1.419 . S
C363 H367 0.930 1_565 S
C364 C363 1.369 . S
C364 C373 1.427 . S
C365 C363 1.419 . S
C365 C366 1.363 . S
C365 H368 0.929 . S
C366 C365 1.363 . S
C366 C372 1.428 . S
H367 C363 0.930 1_545 S
H368 C365 0.929 . S
S369 N370 1.613 . S
S369 N371 1.610 . S
N370 S369 1.613 . S
N370 C373 1.350 . S
N371 S369 1.610 . S
N371 C372 1.351 . S
C372 C366 1.428 . S
C372 N371 1.351 . S
C372 C373 1.434 . S
C373 C364 1.427 . S
C373 N370 1.350 . S
C373 C372 1.434 . S
C374 C375 1.369 . S
C374 C376 1.419 . S
C374 H378 0.930 . S
C375 C374 1.369 . S
C375 C384 1.429 . S
C376 C374 1.419 . S
C376 C377 1.363 . S
C376 H379 0.929 . S
C377 C376 1.363 . S
C377 C383 1.428 . S
H378 C374 0.930 . S
H379 C376 0.929 . S
S380 N381 1.613 . S
S380 N382 1.610 . S
N381 S380 1.613 . S
N381 C384 1.350 . S
N382 S380 1.610 . S
N382 C383 1.351 . S
C383 C377 1.428 . S
C383 N382 1.351 . S
C383 C384 1.434 . S
C384 C375 1.429 . S
C384 N381 1.350 . S
C384 C383 1.434 . S
C385 C386 1.369 . S
C385 C387 1.419 . S
C385 H389 0.930 . S
C386 C385 1.369 . S
C386 C395 1.429 . S
C387 C385 1.419 . S
C387 C388 1.363 . S
C387 H390 0.929 . S
C388 C387 1.363 . S
C388 C394 1.428 . S
H389 C385 0.930 . S
H390 C387 0.929 . S
S391 N392 1.613 . S
S391 N393 1.610 . S
N392 S391 1.613 . S
N392 C395 1.350 . S
N393 S391 1.610 . S
N393 C394 1.351 . S
C394 C388 1.428 . S
C394 N393 1.351 . S
C394 C395 1.434 . S
C395 C386 1.429 . S
C395 N392 1.350 . S
C395 C394 1.434 . S
C396 C397 1.372 . S
C396 C398 1.419 . S
C396 H400 0.930 . S
C397 C396 1.372 . S
C397 C406 1.430 . S
C398 C396 1.419 . S
C398 C399 1.363 . S
C398 H401 0.929 . S
C399 C398 1.363 . S
C399 C405 1.428 . S
H400 C396 0.930 . S
H401 C398 0.929 . S
S402 N403 1.613 . S
S402 N404 1.610 . S
N403 S402 1.613 . S
N403 C406 1.350 . S
N404 S402 1.610 . S
N404 C405 1.351 . S
C405 C399 1.428 . S
C405 N404 1.351 . S
C405 C406 1.434 . S
C406 C397 1.430 . S
C406 N403 1.350 . S
C406 C405 1.434 . S
C407 C408 1.369 1_545 S
C407 C409 1.419 . S
C407 H411 0.930 . S
C408 C407 1.369 1_565 S
C408 C417 1.429 . S
C409 C407 1.419 . S
C409 C410 1.363 . S
C409 H412 0.929 . S
C410 C409 1.363 . S
C410 C416 1.428 . S
H411 C407 0.930 . S
H412 C409 0.929 . S
S413 N414 1.613 . S
S413 N415 1.610 1_565 S
N414 S413 1.613 . S
N414 C417 1.350 . S
N415 S413 1.610 1_545 S
N415 C416 1.351 . S
C416 C410 1.428 . S
C416 N415 1.351 . S
C416 C417 1.434 1_545 S
C417 C408 1.429 . S
C417 N414 1.350 . S
C417 C416 1.434 1_565 S
C418 C419 1.369 . S
C418 C420 1.419 . S
C418 H422 0.930 . S
C419 C418 1.369 . S
C419 C428 1.429 . S
C420 C418 1.419 . S
C420 C421 1.363 . S
C420 H423 0.929 . S
C421 C420 1.363 . S
C421 C427 1.428 . S
H422 C418 0.930 . S
H423 C420 0.929 . S
S424 N425 1.613 . S
S424 N426 1.610 . S
N425 S424 1.613 . S
N425 C428 1.350 . S
N426 S424 1.610 . S
N426 C427 1.351 . S
C427 C421 1.428 . S
C427 N426 1.351 . S
C427 C428 1.434 . S
C428 C419 1.429 . S
C428 N425 1.350 . S
C428 C427 1.434 . S
C429 C430 1.369 . S
C429 C431 1.419 . S
C429 H433 0.930 . S
C430 C429 1.369 . S
C430 C439 1.429 . S
C431 C429 1.419 . S
C431 C432 1.363 . S
C431 H434 0.929 . S
C432 C431 1.363 . S
C432 C438 1.428 . S
H433 C429 0.930 . S
H434 C431 0.929 . S
S435 N436 1.613 . S
S435 N437 1.610 . S
N436 S435 1.613 . S
N436 C439 1.350 . S
N437 S435 1.610 . S
N437 C438 1.351 . S
C438 C432 1.428 . S
C438 N437 1.351 . S
C438 C439 1.434 . S
C439 C430 1.429 . S
C439 N436 1.350 . S
C439 C438 1.434 . S
C440 C441 1.369 1_655 S
C440 C442 1.419 . S
C440 H444 0.930 . S
C441 C440 1.369 1_455 S
C441 C450 1.429 . S
C442 C440 1.419 . S
C442 C443 1.363 1_655 S
C442 H445 0.929 . S
C443 C442 1.363 1_455 S
C443 C449 1.428 . S
H444 C440 0.930 . S
H445 C442 0.929 . S
S446 N447 1.613 . S
S446 N448 1.610 . S
N447 S446 1.613 . S
N447 C450 1.350 . S
N448 S446 1.610 . S
N448 C449 1.351 . S
C449 C443 1.428 . S
C449 N448 1.351 . S
C449 C450 1.434 . S
C450 C441 1.429 . S
C450 N447 1.350 . S
C450 C449 1.434 . S
C451 C452 1.369 1_554 S
C451 C453 1.419 . S
C451 H455 0.930 . S
C452 C451 1.369 1_556 S
C452 C461 1.429 1_545 S
C453 C451 1.419 . S
C453 C454 1.363 1_554 S
C453 H456 0.929 . S
C454 C453 1.363 1_556 S
C454 C460 1.428 . S
H455 C451 0.930 . S
H456 C453 0.929 . S
S457 N458 1.613 . S
S457 N459 1.610 . S
N458 S457 1.613 . S
N458 C461 1.350 . S
N459 S457 1.610 . S
N459 C460 1.351 1_565 S
C460 C454 1.428 . S
C460 N459 1.351 1_545 S
C460 C461 1.434 1_545 S
C461 C452 1.429 1_565 S
C461 N458 1.350 . S
C461 C460 1.434 1_565 S
C462 C463 1.369 1_554 S
C462 C464 1.419 . S
C462 H466 0.930 . S
C463 C462 1.369 1_556 S
C463 C472 1.429 . S
C464 C462 1.419 . S
C464 C465 1.363 1_554 S
C464 H467 0.929 . S
C465 C464 1.363 1_556 S
C465 C471 1.428 . S
H466 C462 0.930 . S
H467 C464 0.929 . S
S468 N469 1.613 . S
S468 N470 1.610 . S
N469 S468 1.613 . S
N469 C472 1.350 . S
N470 S468 1.610 . S
N470 C471 1.351 . S
C471 C465 1.428 . S
C471 N470 1.351 . S
C471 C472 1.434 . S
C472 C463 1.429 . S
C472 N469 1.350 . S
C472 C471 1.434 . S
C473 C474 1.369 . S
C473 C475 1.419 . S
C473 H477 0.930 . S
C474 C473 1.369 . S
C474 C483 1.429 . S
C475 C473 1.419 . S
C475 C476 1.363 . S
C475 H478 0.929 . S
C476 C475 1.363 . S
C476 C482 1.428 . S
H477 C473 0.930 . S
H478 C475 0.929 . S
S479 N480 1.613 . S
S479 N481 1.610 . S
N480 S479 1.613 . S
N480 C483 1.350 . S
N481 S479 1.610 . S
N481 C482 1.351 . S
C482 C476 1.428 . S
C482 N481 1.351 . S
C482 C483 1.434 . S
C483 C474 1.429 . S
C483 N480 1.350 . S
C483 C482 1.434 . S
C484 C485 1.369 1_455 S
C484 C486 1.419 . S
C484 H488 0.930 . S
C485 C484 1.369 1_655 S
C485 C494 1.429 . S
C486 C484 1.419 . S
C486 C487 1.363 1_455 S
C486 H489 0.929 . S
C487 C486 1.363 1_655 S
C487 C493 1.428 . S
H488 C484 0.930 . S
H489 C486 0.929 . S
S490 N491 1.613 . S
S490 N492 1.610 . S
N491 S490 1.613 . S
N491 C494 1.350 . S
N492 S490 1.610 . S
N492 C493 1.351 . S
C493 C487 1.428 . S
C493 N492 1.351 . S
C493 C494 1.434 . S
C494 C485 1.429 . S
C494 N491 1.350 . S
C494 C493 1.434 . S
C495 C496 1.369 1_545 S
C495 C497 1.419 . S
C495 H499 0.930 . S
C496 C495 1.369 1_565 S
C496 C505 1.429 . S
C497 C495 1.419 . S
C497 C498 1.363 1_545 S
C497 H500 0.929 . S
C498 C497 1.363 1_565 S
C498 C504 1.428 . S
H499 C495 0.930 . S
H500 C497 0.929 . S
S501 N502 1.613 . S
S501 N503 1.610 . S
N502 S501 1.613 . S
N502 C505 1.350 . S
N503 S501 1.610 . S
N503 C504 1.351 . S
C504 C498 1.428 . S
C504 N503 1.351 . S
C504 C505 1.434 . S
C505 C496 1.429 . S
C505 N502 1.350 . S
C505 C504 1.434 . S
C506 C507 1.369 . S
C506 C508 1.419 . S
C506 H510 0.930 . S
C507 C506 1.369 . S
C507 C516 1.429 . S
C508 C506 1.419 . S
C508 C509 1.363 . S
C508 H511 0.929 . S
C509 C508 1.363 . S
C509 C515 1.428 . S
H510 C506 0.930 . S
H511 C508 0.929 . S
S512 N513 1.613 . S
S512 N514 1.610 . S
N513 S512 1.613 . S
N513 C516 1.350 . S
N514 S512 1.610 . S
N514 C515 1.351 . S
C515 C509 1.428 . S
C515 N514 1.351 . S
C515 C516 1.434 . S
C516 C507 1.429 . S
C516 N513 1.350 . S
C516 C515 1.434 . S
C517 C518 1.369 . S
C517 C519 1.419 . S
C517 H521 0.930 . S
C518 C517 1.369 . S
C518 C527 1.429 . S
C519 C517 1.419 . S
C519 C520 1.363 . S
C519 H522 0.929 . S
C520 C519 1.363 . S
C520 C526 1.428 . S
H521 C517 0.930 . S
H522 C519 0.929 . S
S523 N524 1.613 1_554 S
S523 N525 1.610 1_554 S
N524 S523 1.613 1_556 S
N524 C527 1.350 . S
N525 S523 1.610 1_556 S
N525 C526 1.351 . S
C526 C520 1.428 . S
C526 N525 1.351 . S
C526 C527 1.434 . S
C527 C518 1.429 . S
C527 N524 1.350 . S
C527 C526 1.434 . S
C265 N80 2.001 . S
C267 C106 2.167 . S
C278 C146 2.187 . S
C276 N93 2.023 . S
C289 C186 2.200 . S
C287 N54 2.042 . S
C300 C226 2.183 1_455 S
C298 N67 2.012 1_455 S
C311 C119 2.169 1_554 S
C309 N28 2.003 1_545 S
C320 N41 2.013 . S
C322 C159 2.190 1_554 S
C331 N2 2.028 . S
C333 C199 2.200 1_554 S
C342 N15 2.011 . S
C344 C239 2.183 1_654 S
C355 C130 0.768 . S
C353 N70 0.745 . S
C366 C170 0.755 . S
C364 N83 0.754 . S
C377 C210 0.753 . S
C375 N96 0.744 . S
C386 N57 0.756 . S
C388 C250 0.741 . S
C397 N18 0.754 1_455 S
C399 C113 0.765 . S
C410 C153 0.747 . S
C408 N31 0.766 . S
C421 C193 0.744 . S
C419 N44 0.753 . S
C430 N5 0.740 . S
C432 C233 0.760 . S
C441 N66 2.391 1_455 S
C443 C107 2.526 . S
C452 N79 2.346 1_545 S
C454 C147 2.479 . S
C465 C187 2.463 . S
C463 N92 2.332 . S
C476 C227 2.514 . S
C474 N53 2.375 . S
C485 N14 2.377 . S
C487 C126 2.533 . S
C498 C166 2.482 . S
C496 N27 2.330 . S
C509 C206 2.466 . S
C507 N40 2.306 . S
C518 N1 2.359 . S
C520 C246 2.516 . S
