# Generated by pormake.
# Topology zzz, (3,6)-cn, num edge types: 1
# Building blocks:
#     Node 0, Type 0, BuildingBlock: MIDCAF_clean_linker_0, # of connection points: 3
#     Node 1, Type 0, BuildingBlock: MIDCAF_clean_linker_0, # of connection points: 3
#     Node 2, Type 0, BuildingBlock: MIDCAF_clean_linker_0, # of connection points: 3
#     Node 3, Type 0, BuildingBlock: MIDCAF_clean_linker_0, # of connection points: 3
#     Node 4, Type 0, BuildingBlock: MIDCAF_clean_linker_0, # of connection points: 3
#     Node 5, Type 0, BuildingBlock: MIDCAF_clean_linker_0, # of connection points: 3
#     Node 6, Type 0, BuildingBlock: MIDCAF_clean_linker_0, # of connection points: 3
#     Node 7, Type 0, BuildingBlock: MIDCAF_clean_linker_0, # of connection points: 3
#     Node 8, Type 1, BuildingBlock: KUMBOL_clean_sbu_0, # of connection points: 6
#     Node 9, Type 1, BuildingBlock: KUMBOL_clean_sbu_0, # of connection points: 6
#     Node 10, Type 1, BuildingBlock: KUMBOL_clean_sbu_0, # of connection points: 6
#     Node 11, Type 1, BuildingBlock: KUMBOL_clean_sbu_0, # of connection points: 6
#     Edge 12, Type (0, 1), BuildingBlock: TEMPAE_clean_linker_10, # of connection points: 2
#     Edge 13, Type (0, 1), BuildingBlock: TEMPAE_clean_linker_10, # of connection points: 2
#     Edge 14, Type (0, 1), BuildingBlock: TEMPAE_clean_linker_10, # of connection points: 2
#     Edge 15, Type (0, 1), BuildingBlock: TEMPAE_clean_linker_10, # of connection points: 2
#     Edge 16, Type (0, 1), BuildingBlock: TEMPAE_clean_linker_10, # of connection points: 2
#     Edge 17, Type (0, 1), BuildingBlock: TEMPAE_clean_linker_10, # of connection points: 2
#     Edge 18, Type (0, 1), BuildingBlock: TEMPAE_clean_linker_10, # of connection points: 2
#     Edge 19, Type (0, 1), BuildingBlock: TEMPAE_clean_linker_10, # of connection points: 2
#     Edge 20, Type (0, 1), BuildingBlock: TEMPAE_clean_linker_10, # of connection points: 2
#     Edge 21, Type (0, 1), BuildingBlock: TEMPAE_clean_linker_10, # of connection points: 2
#     Edge 22, Type (0, 1), BuildingBlock: TEMPAE_clean_linker_10, # of connection points: 2
#     Edge 23, Type (0, 1), BuildingBlock: TEMPAE_clean_linker_10, # of connection points: 2
#     Edge 24, Type (0, 1), BuildingBlock: TEMPAE_clean_linker_10, # of connection points: 2
#     Edge 25, Type (0, 1), BuildingBlock: TEMPAE_clean_linker_10, # of connection points: 2
#     Edge 26, Type (0, 1), BuildingBlock: TEMPAE_clean_linker_10, # of connection points: 2
#     Edge 27, Type (0, 1), BuildingBlock: TEMPAE_clean_linker_10, # of connection points: 2
#     Edge 28, Type (0, 1), BuildingBlock: TEMPAE_clean_linker_10, # of connection points: 2
#     Edge 29, Type (0, 1), BuildingBlock: TEMPAE_clean_linker_10, # of connection points: 2
#     Edge 30, Type (0, 1), BuildingBlock: TEMPAE_clean_linker_10, # of connection points: 2
#     Edge 31, Type (0, 1), BuildingBlock: TEMPAE_clean_linker_10, # of connection points: 2
#     Edge 32, Type (0, 1), BuildingBlock: TEMPAE_clean_linker_10, # of connection points: 2
#     Edge 33, Type (0, 1), BuildingBlock: TEMPAE_clean_linker_10, # of connection points: 2
#     Edge 34, Type (0, 1), BuildingBlock: TEMPAE_clean_linker_10, # of connection points: 2
#     Edge 35, Type (0, 1), BuildingBlock: TEMPAE_clean_linker_10, # of connection points: 2
# Relax obj value: 0.299
# Max RMSD: 0.227
# Mean RMSD: 0.213
data_MOF--net-zzz--node1-KUMBOL_clean_sbu_0--node2-MIDCAF_clean_linker_0--edge1-TEMPAE_clean_linker_10
_symmetry_space_group_name_H-M    P1
_symmetry_Int_Tables_number       1
_symmetry_cell_setting            triclinic
loop_
_symmetry_equiv_pos_as_xyz
'x, y, z'
_cell_length_a     57.510419
_cell_length_b     57.462497
_cell_length_c     20.157031
_cell_angle_alpha  90.430022
_cell_angle_beta   90.073339
_cell_angle_gamma 89.981268
loop_
_atom_site_label
_atom_site_type_symbol
_atom_site_fract_x
_atom_site_fract_y
_atom_site_fract_z
_atom_type_partial_charge
C0 C 0.79126 0.54322 0.34695 0.0
C1 C 0.81105 0.5309 0.32459 0.0
C2 C 0.81119 0.52294 0.25828 0.0
C3 C 0.79301 0.5285 0.21474 0.0
H4 H 0.70566 0.5172 0.11449 0.0
H5 H 0.66938 0.50688 0.05666 0.0
H6 H 0.6607 0.57856 0.99883 0.0
H7 H 0.69636 0.58877 0.05647 0.0
H8 H 0.75236 0.5994 0.97826 0.0
H9 H 0.78156 0.61496 0.90304 0.0
H10 H 0.82993 0.62101 0.0665 0.0
H11 H 0.8008 0.60615 0.14132 0.0
H12 H 0.75902 0.55983 0.32055 0.0
H13 H 0.79025 0.5494 0.39774 0.0
H14 H 0.82611 0.51375 0.23847 0.0
H15 H 0.79463 0.52371 0.16285 0.0
N16 N 0.73842 0.54819 0.16594 0.0
N17 N 0.73901 0.57792 0.08586 0.0
N18 N 0.77114 0.57243 0.15473 0.0
C19 C 0.72754 0.5602 0.11607 0.0
C20 C 0.76072 0.58418 0.10496 0.0
C21 C 0.7603 0.55467 0.18575 0.0
C22 C 0.70403 0.5538 0.09011 0.0
C23 C 0.69573 0.53078 0.09052 0.0
C24 C 0.67506 0.52484 0.05674 0.0
C25 C 0.66207 0.54186 0.02264 0.0
C26 C 0.66998 0.56499 0.02485 0.0
C27 C 0.69061 0.57082 0.05778 0.0
C28 C 0.77463 0.60066 0.06523 0.0
C29 C 0.7689 0.60499 0.99861 0.0
C30 C 0.78565 0.6139 0.9554 0.0
C31 C 0.80833 0.61853 0.97822 0.0
C32 C 0.81274 0.61756 0.0468 0.0
C33 C 0.79605 0.60869 0.08984 0.0
C34 C 0.77403 0.54198 0.23615 0.0
C35 C 0.77306 0.5488 0.30314 0.0
C36 C 0.96153 0.82189 0.31629 0.0
C37 C 0.98509 0.82651 0.32847 0.0
C38 C 1.0018 0.81088 0.30278 0.0
C39 C 0.99502 0.79202 0.26157 0.0
H40 H 0.9684 0.69714 0.16921 0.0
H41 H 0.97806 0.66079 0.11 0.0
H42 H 0.99837 0.70067 0.93882 0.0
H43 H 0.98893 0.73652 0.99809 0.0
H44 H 0.92189 0.7541 0.97692 0.0
H45 H 0.90521 0.77848 0.89075 0.0
H46 H 0.90044 0.83561 0.03082 0.0
H47 H 0.91588 0.81115 0.11695 0.0
H48 H 0.93644 0.80085 0.26609 0.0
H49 H 0.94824 0.83337 0.336 0.0
H50 H 0.02013 0.81402 0.31143 0.0
H51 H 0.00829 0.78127 0.23871 0.0
N52 N 0.9747 0.75293 0.17068 0.0
N53 N 0.94903 0.7497 0.07944 0.0
N54 N 0.94547 0.78088 0.15314 0.0
C55 C 0.96699 0.74102 0.11545 0.0
C56 C 0.93806 0.76952 0.09812 0.0
C57 C 0.96357 0.77303 0.18994 0.0
C58 C 0.97848 0.71972 0.08892 0.0
C59 C 0.97577 0.69805 0.11988 0.0
C60 C 0.98091 0.67723 0.08537 0.0
C61 C 0.98895 0.67763 0.01919 0.0
C62 C 0.99258 0.69948 0.98977 0.0
C63 C 0.98727 0.72013 0.02391 0.0
C64 C 0.92127 0.78102 0.05305 0.0
C65 C 0.91646 0.7716 0.98994 0.0
C66 C 0.90689 0.7856 0.94044 0.0
C67 C 0.90239 0.80932 0.95298 0.0
C68 C 0.90385 0.81753 0.01874 0.0
C69 C 0.9131 0.80349 0.06833 0.0
C70 C 0.9714 0.78842 0.24596 0.0
C71 C 0.95481 0.80311 0.27624 0.0
C72 C 0.71176 0.97042 0.3419 0.0
C73 C 0.69398 0.9846 0.31599 0.0
C74 C 0.69648 0.99296 0.25091 0.0
C75 C 0.71525 0.98596 0.21121 0.0
H76 H 0.80211 0.99201 0.1157 0.0
H77 H 0.8387 1.0003 0.05743 0.0
H78 H 0.84667 0.92708 0.0132 0.0
H79 H 0.81077 0.91892 0.07157 0.0
H80 H 0.75877 0.90605 0.98865 0.0
H81 H 0.73277 0.89366 0.89979 0.0
H82 H 0.67396 0.90255 0.03056 0.0
H83 H 0.69976 0.91441 0.11947 0.0
H84 H 0.74281 0.95074 0.32109 0.0
H85 H 0.71034 0.96354 0.3916 0.0
H86 H 0.68331 1.00413 0.22955 0.0
H87 H 0.71567 0.9913 0.15977 0.0
N88 N 0.76842 0.96222 0.17048 0.0
N89 N 0.76761 0.93241 0.08959 0.0
N90 N 0.73463 0.93977 0.15353 0.0
C91 C 0.77946 0.94952 0.12194 0.0
C92 C 0.74525 0.92742 0.10478 0.0
C93 C 0.74596 0.95687 0.18709 0.0
C94 C 0.80346 0.95481 0.09838 0.0
C95 C 0.81203 0.97769 0.09497 0.0
C96 C 0.83285 0.98244 0.06079 0.0
C97 C 0.84567 0.96438 0.03004 0.0
C98 C 0.83755 0.94145 0.03656 0.0
C99 C 0.8168 0.93677 0.06997 0.0
C100 C 0.73123 0.91226 0.06032 0.0
C101 C 0.74039 0.9045 0.99935 0.0
C102 C 0.7255 0.89732 0.94831 0.0
C103 C 0.70128 0.89785 0.95746 0.0
C104 C 0.69252 0.90206 0.02153 0.0
C105 C 0.70737 0.90918 0.07254 0.0
C106 C 0.73211 0.97052 0.23551 0.0
C107 C 0.73051 0.96327 0.30179 0.0
C108 C 0.61916 0.6965 0.02807 0.0
C109 C 0.61967 0.70245 0.96048 0.0
C110 C 0.61819 0.72611 0.94344 0.0
C111 C 0.61292 0.74289 0.99177 0.0
H112 H 0.60425 0.81684 0.06006 0.0
H113 H 0.59417 0.85272 1.00357 0.0
H114 H 0.5232 0.84606 0.07033 0.0
H115 H 0.53344 0.80981 0.12769 0.0
H116 H 0.52901 0.73522 0.20275 0.0
H117 H 0.51673 0.70533 0.28162 0.0
H118 H 0.57918 0.71706 0.39599 0.0
H119 H 0.59146 0.74667 0.31652 0.0
H120 H 0.61178 0.7076 0.12703 0.0
H121 H 0.62021 0.67852 0.04346 0.0
H122 H 0.61905 0.73135 0.892 0.0
H123 H 0.60983 0.7606 0.97603 0.0
N124 N 0.5907 0.77378 0.08635 0.0
N125 N 0.56552 0.77739 0.178 0.0
N126 N 0.58677 0.7429 0.16001 0.0
C127 C 0.57559 0.78681 0.12281 0.0
C128 C 0.57161 0.75544 0.19726 0.0
C129 C 0.59631 0.75181 0.1043 0.0
C130 C 0.56964 0.81044 0.09839 0.0
C131 C 0.58655 0.82319 0.06377 0.0
C132 C 0.5808 0.84386 0.03153 0.0
C133 C 0.55786 0.85227 0.03217 0.0
C134 C 0.54101 0.83995 0.06857 0.0
C135 C 0.5469 0.81933 0.10194 0.0
C136 C 0.56089 0.74365 0.25452 0.0
C137 C 0.53958 0.73207 0.24631 0.0
C138 C 0.53275 0.71472 0.29093 0.0
C139 C 0.54706 0.70867 0.34491 0.0
C140 C 0.56765 0.72141 0.35541 0.0
C141 C 0.57462 0.7385 0.31021 0.0
C142 C 0.60912 0.73628 0.05797 0.0
C143 C 0.61398 0.71324 0.07627 0.0
C144 C 0.21035 0.48874 0.95566 0.0
C145 C 0.2089 0.47678 0.89443 0.0
C146 C 0.22553 0.45928 0.88125 0.0
C147 C 0.2421 0.45302 0.9293 0.0
H148 H 0.31646 0.42004 0.18727 0.0
H149 H 0.35252 0.43039 0.24386 0.0
H150 H 0.34671 0.50053 0.17058 0.0
H151 H 0.31043 0.49004 0.11312 0.0
H152 H 0.26058 0.41532 0.26886 0.0
H153 H 0.23176 0.40562 0.35274 0.0
H154 H 0.17851 0.40316 0.20173 0.0
H155 H 0.20716 0.41253 0.11791 0.0
H156 H 0.22645 0.4909 0.05176 0.0
H157 H 0.19775 0.50202 0.9685 0.0
H158 H 0.22525 0.44983 0.83459 0.0
H159 H 0.25361 0.43848 0.91933 0.0
N160 N 0.277 0.45864 0.06634 0.0
N161 N 0.27356 0.43359 0.15784 0.0
N162 N 0.24209 0.43843 0.0859 0.0
C163 C 0.28664 0.44842 0.12117 0.0
C164 C 0.25131 0.42851 0.14076 0.0
C165 C 0.25468 0.45323 0.04817 0.0
C166 C 0.31047 0.45423 0.14562 0.0
C167 C 0.32305 0.4376 0.18212 0.0
C168 C 0.34382 0.44349 0.21448 0.0
C169 C 0.3525 0.46633 0.21226 0.0
C170 C 0.3404 0.48281 0.17377 0.0
C171 C 0.31973 0.47677 0.1403 0.0
C172 C 0.23601 0.4156 0.18695 0.0
C173 C 0.24291 0.41185 0.25302 0.0
C174 C 0.22642 0.40618 0.30122 0.0
C175 C 0.20279 0.40412 0.28412 0.0
C176 C 0.19656 0.40461 0.21669 0.0
C177 C 0.213 0.41033 0.16859 0.0
C178 C 0.24267 0.46426 0.99138 0.0
C179 C 0.22691 0.48246 1.00351 0.0
C180 C 0.02585 0.20062 1.00236 0.0
C181 C 0.03532 0.19778 0.93836 0.0
C182 C 0.04946 0.21577 0.91356 0.0
C183 C 0.05539 0.23508 0.95361 0.0
H184 H 0.02123 0.30622 0.14333 0.0
H185 H 0.01126 0.34225 0.20345 0.0
H186 H 0.0841 0.3546 0.24207 0.0
H187 H 0.0939 0.31913 0.18197 0.0
H188 H 0.10961 0.26805 0.26571 0.0
H189 H 0.12157 0.24326 0.35697 0.0
H190 H 0.11386 0.1827 0.23081 0.0
H191 H 0.1024 0.20729 0.13945 0.0
H192 H 0.02543 0.22066 0.09273 0.0
H193 H 0.01466 0.18736 0.02296 0.0
H194 H 0.05722 0.21417 0.86482 0.0
H195 H 0.06789 0.24756 0.93523 0.0
N196 N 0.05292 0.27408 0.08483 0.0
N197 N 0.08237 0.27492 0.16619 0.0
N198 N 0.07696 0.24145 0.10194 0.0
C199 C 0.06485 0.28588 0.13369 0.0
C200 C 0.08852 0.25276 0.15101 0.0
C201 C 0.05948 0.25183 0.06809 0.0
C202 C 0.05836 0.30972 0.15764 0.0
C203 C 0.03509 0.31698 0.16314 0.0
C204 C 0.0294 0.3375 0.19845 0.0
C205 C 0.04685 0.35138 0.2284 0.0
C206 C 0.07014 0.34463 0.21956 0.0
C207 C 0.07577 0.32415 0.18507 0.0
C208 C 0.10392 0.23954 0.19618 0.0
C209 C 0.11137 0.24954 0.25649 0.0
C210 C 0.11833 0.23535 0.30888 0.0
C211 C 0.11786 0.211 0.30173 0.0
C212 C 0.11423 0.20138 0.23825 0.0
C213 C 0.10734 0.21555 0.18583 0.0
C214 C 0.04694 0.23713 0.01884 0.0
C215 C 0.03164 0.21996 0.04202 0.0
C216 C 0.30736 0.05264 0.8922 0.0
C217 C 0.32536 0.03879 0.91828 0.0
C218 C 0.323 0.03046 0.98343 0.0
C219 C 0.30412 0.03721 0.02304 0.0
H220 H 0.21742 0.02998 0.1199 0.0
H221 H 0.18182 0.02129 0.18268 0.0
H222 H 0.17232 0.09463 0.22192 0.0
H223 H 0.20756 0.10316 0.16051 0.0
H224 H 0.25944 0.11653 0.24507 0.0
H225 H 0.28518 0.12918 0.33424 0.0
H226 H 0.34427 0.12094 0.20415 0.0
H227 H 0.31871 0.10879 0.11493 0.0
H228 H 0.27599 0.07184 0.91279 0.0
H229 H 0.30867 0.05948 0.84243 0.0
H230 H 0.33635 0.01954 1.00491 0.0
H231 H 0.30378 0.03193 0.07453 0.0
N232 N 0.25058 0.06024 0.06337 0.0
N233 N 0.25102 0.09009 0.14413 0.0
N234 N 0.28411 0.08309 0.08042 0.0
C235 C 0.23937 0.07283 0.11178 0.0
C236 C 0.27333 0.09533 0.12907 0.0
C237 C 0.27299 0.06585 0.04685 0.0
C238 C 0.21549 0.06724 0.13564 0.0
C239 C 0.20735 0.04423 0.14049 0.0
C240 C 0.187 0.03927 0.17675 0.0
C241 C 0.17444 0.05724 0.20874 0.0
C242 C 0.18182 0.08029 0.19961 0.0
C243 C 0.20199 0.08519 0.16383 0.0
C244 C 0.28714 0.11062 0.17369 0.0
C245 C 0.27782 0.11828 0.23457 0.0
C246 C 0.29256 0.12561 0.2858 0.0
C247 C 0.3168 0.12534 0.27691 0.0
C248 C 0.32569 0.12123 0.21295 0.0
C249 C 0.31098 0.11395 0.16176 0.0
C250 C 0.28702 0.05234 0.99857 0.0
C251 C 0.28849 0.05953 0.93221 0.0
C252 C 0.40067 0.32877 0.21876 0.0
C253 C 0.39704 0.32102 0.28397 0.0
C254 C 0.39745 0.29695 0.29605 0.0
C255 C 0.40444 0.28136 0.24628 0.0
H256 H 0.41489 0.20906 0.17602 0.0
H257 H 0.42441 0.17284 0.23172 0.0
H258 H 0.49565 0.17901 0.16699 0.0
H259 H 0.48601 0.21554 0.11059 0.0
H260 H 0.44699 0.26597 0.91349 0.0
H261 H 0.46048 0.29311 0.82786 0.0
H262 H 0.49524 0.33397 0.97887 0.0
H263 H 0.48169 0.30703 0.06336 0.0
H264 H 0.41207 0.32016 0.12093 0.0
H265 H 0.4006 0.34717 0.20741 0.0
H266 H 0.39435 0.29039 0.3455 0.0
H267 H 0.40643 0.26317 0.25885 0.0
N268 N 0.4291 0.25212 0.1523 0.0
N269 N 0.45564 0.24921 0.0637 0.0
N270 N 0.43604 0.2844 0.08556 0.0
C271 C 0.44433 0.2392 0.11596 0.0
C272 C 0.45116 0.27188 0.04803 0.0
C273 C 0.4248 0.27469 0.13751 0.0
C274 C 0.44969 0.21522 0.13882 0.0
C275 C 0.43251 0.2025 0.17247 0.0
C276 C 0.43795 0.18166 0.2043 0.0
C277 C 0.46082 0.17305 0.20417 0.0
C278 C 0.47789 0.18528 0.16841 0.0
C279 C 0.47234 0.20606 0.13553 0.0
C280 C 0.46368 0.28421 0.99474 0.0
C281 C 0.45819 0.28033 0.92767 0.0
C282 C 0.46567 0.29604 0.87892 0.0
C283 C 0.47894 0.31579 0.89638 0.0
C284 C 0.48537 0.31883 0.96327 0.0
C285 C 0.47765 0.30337 0.01179 0.0
C286 C 0.4111 0.28959 0.18352 0.0
C287 C 0.40762 0.31323 0.1691 0.0
Gd288 Gd 0.99001 0.01894 0.58037 0.0
Gd289 Gd 0.03743 1.00176 0.69123 0.0
C290 C 0.07468 0.05181 0.83485 0.0
C291 C 0.114 0.05207 0.79112 0.0
C292 C 0.08408 0.02816 0.73922 0.0
C293 C 0.0679 0.0364 0.78356 0.0
C294 C 0.10749 0.03541 0.74331 0.0
C295 C 0.09763 0.06016 0.83719 0.0
C296 C 0.05853 0.05753 0.88393 0.0
C297 C 0.03632 0.04788 0.88127 0.0
N298 N 0.04594 0.02787 0.77973 0.0
C299 C 0.03035 0.03294 0.82895 0.0
H300 H 0.01313 0.02579 0.82847 0.0
C301 C 0.09354 0.99973 0.65894 0.0
N302 N 0.07731 0.01148 0.69573 0.0
C303 C 0.11686 0.00662 0.6598 0.0
C304 C 0.12382 0.02485 0.7014 0.0
H305 H 0.08834 0.98527 0.62781 0.0
H306 H 0.10303 0.0723 0.8756 0.0
H307 H 0.01517 1.00073 0.436 0.0
H308 H 0.06331 0.06866 0.92523 0.0
H309 H 0.02378 0.05181 0.91976 0.0
H310 H 0.13183 0.05806 0.79464 0.0
H311 H 0.94021 0.02445 0.66488 0.0
H312 H 0.96572 0.96029 0.32882 0.0
H313 H 1.00458 0.97821 0.33767 0.0
H314 H 0.89961 0.95808 0.47203 0.0
H315 H 0.12946 0.99772 0.62887 0.0
H316 H 0.14195 0.02996 0.7028 0.0
H317 H 0.92755 0.95093 0.38187 0.0
H318 H 0.90056 0.00788 0.66396 0.0
N319 N 0.98288 0.99524 0.48614 0.0
C320 C 0.97051 0.9696 0.37369 0.0
C321 C 0.99234 0.97993 0.37818 0.0
C322 C 0.9549 0.97182 0.42636 0.0
C323 C 0.96145 0.98534 0.48205 0.0
C324 C 0.99826 0.9928 0.43476 0.0
N325 N 0.95163 1.00458 0.58152 0.0
C326 C 0.9455 0.98983 0.53179 0.0
C327 C 0.91301 1.00261 0.62655 0.0
C328 C 0.90679 0.98645 0.57765 0.0
C329 C 0.93545 0.01196 0.62686 0.0
C330 C 0.92289 0.98031 0.52851 0.0
H331 H 0.88933 0.97938 0.57709 0.0
O332 O 0.96586 0.04757 0.57039 0.0
O333 O 0.01648 0.03184 0.6544 0.0
O334 O 1.00177 1.00146 0.74136 0.0
O335 O 0.97666 0.99299 0.655 0.0
O336 O 0.98264 0.04301 0.66672 0.0
O337 O 0.99392 0.04338 0.49951 0.0
O338 O 0.0563 0.96999 0.7124 0.0
O339 O 0.01216 0.9901 0.6141 0.0
O340 O 0.02485 0.02307 0.52714 0.0
O341 O 0.05474 0.02027 0.60585 0.0
O342 O 0.04486 0.97613 0.60724 0.0
O343 O 0.02761 0.9802 0.77492 0.0
C344 C 1.0036 0.04543 0.68808 0.0
C345 C 0.91682 0.96569 0.47518 0.0
C346 C 0.93272 0.96163 0.42387 0.0
C347 C 0.97819 0.05741 0.52429 0.0
C348 C 0.98542 0.0816 0.53879 0.0
C349 C 0.97166 0.09593 0.57987 0.0
C350 C 0.00695 0.08996 0.51645 0.0
C351 C 0.01502 0.11187 0.53658 0.0
C352 C 0.9795 0.11798 0.59896 0.0
C353 C 1.0011 0.12594 0.57741 0.0
C354 C 0.98152 0.99366 0.719 0.0
C355 C 0.02446 0.97599 0.58092 0.0
C356 C 0.04093 0.96316 0.75529 0.0
C357 C 0.02929 0.94084 0.73969 0.0
C358 C 0.0401 0.92473 0.69682 0.0
C359 C 0.00644 0.93649 0.76142 0.0
C360 C 0.99427 0.91694 0.73795 0.0
C361 C 0.02807 0.9052 0.67415 0.0
C362 C 1.00516 0.90144 0.69376 0.0
C363 C 0.04707 0.02441 0.54498 0.0
H364 H 0.95498 0.08998 0.598 0.0
H365 H 0.01766 0.07939 0.48423 0.0
H366 H 0.96881 0.12891 0.63051 0.0
H367 H 0.00673 0.1433 0.591 0.0
H368 H 0.05771 0.92746 0.67958 0.0
H369 H 0.99795 0.94837 0.79567 0.0
H370 H 0.03665 0.89291 0.64156 0.0
H371 H 0.99619 0.88596 0.67649 0.0
Gd372 Gd 0.50223 0.9874 0.56405 0.0
Gd373 Gd 0.51722 0.03742 0.66982 0.0
C374 C 0.46917 0.07968 0.80533 0.0
C375 C 0.46669 0.11659 0.74776 0.0
C376 C 0.49027 0.08505 0.70294 0.0
C377 C 0.48369 0.07091 0.75461 0.0
C378 C 0.48208 0.10815 0.69919 0.0
C379 C 0.46038 0.10243 0.80103 0.0
C380 C 0.46446 0.06556 0.85978 0.0
C381 C 0.47391 0.04323 0.8624 0.0
N382 N 0.4923 0.04894 0.75689 0.0
C383 C 0.48788 0.03519 0.8104 0.0
H384 H 0.49504 0.01797 0.81371 0.0
C385 C 0.51444 0.09064 0.60976 0.0
N386 N 0.50554 0.07651 0.65786 0.0
C387 C 0.50656 0.11353 0.60329 0.0
C388 C 0.4901 0.12226 0.64778 0.0
H389 H 0.52708 0.08401 0.57486 0.0
H390 H 0.44899 0.10934 0.83916 0.0
H391 H 0.5243 0.00718 0.42036 0.0
H392 H 0.45404 0.07195 0.90069 0.0
H393 H 0.4706 0.03224 0.90471 0.0
H394 H 0.46009 0.13423 0.74554 0.0
H395 H 0.4925 0.94062 0.65825 0.0
H396 H 0.56529 0.95342 0.33225 0.0
H397 H 0.54866 0.99311 0.32896 0.0
H398 H 0.55948 0.89084 0.48648 0.0
H399 H 0.51317 0.1244 0.56393 0.0
H400 H 0.48411 0.14005 0.64293 0.0
H401 H 0.57045 0.91592 0.39316 0.0
H402 H 0.50648 0.90023 0.66848 0.0
N403 N 0.52713 0.9761 0.4767 0.0
C404 C 0.55489 0.95972 0.37333 0.0
C405 C 0.5454 0.98203 0.37113 0.0
C406 C 0.55025 0.94549 0.4276 0.0
C407 C 0.53578 0.95414 0.47857 0.0
C408 C 0.53148 0.98996 0.42337 0.0
N409 N 0.51402 0.94832 0.57537 0.0
C410 C 0.52927 0.9399 0.53008 0.0
C411 C 0.51306 0.91118 0.6293 0.0
C412 C 0.52952 0.90257 0.58461 0.0
C413 C 0.50515 0.93408 0.62323 0.0
C414 C 0.53749 0.9168 0.5334 0.0
H415 H 0.53553 0.88478 0.58913 0.0
O416 O 0.47168 0.96607 0.54798 0.0
O417 O 0.48901 0.01401 0.63579 0.0
O418 O 0.51818 1.00304 0.72621 0.0
O419 O 0.52684 0.97567 0.64452 0.0
O420 O 0.47648 0.98082 0.64698 0.0
O421 O 0.48045 0.99301 0.47748 0.0
O422 O 0.54783 0.05865 0.68587 0.0
O423 O 0.53042 0.01078 0.5982 0.0
O424 O 0.50113 0.02185 0.50794 0.0
O425 O 0.49241 0.04911 0.58986 0.0
O426 O 0.543 0.0439 0.58683 0.0
O427 O 0.53887 0.03187 0.75668 0.0
C428 C 0.47497 1.00183 0.66895 0.0
C429 C 0.55284 0.90847 0.48458 0.0
C430 C 0.55908 0.92274 0.43148 0.0
C431 C 0.46419 0.97939 0.50038 0.0
C432 C 0.44104 0.98994 0.51148 0.0
C433 C 0.42457 0.97825 0.55058 0.0
C434 C 0.43602 0.01259 0.48929 0.0
C435 C 0.41524 0.02358 0.50796 0.0
C436 C 0.40382 0.98914 0.56857 0.0
C437 C 0.3992 0.01174 0.54768 0.0
C438 C 0.52589 0.98222 0.70753 0.0
C439 C 0.5445 0.02288 0.56496 0.0
C440 C 0.55522 0.04537 0.73368 0.0
C441 C 0.57831 0.03467 0.72279 0.0
C442 C 0.59485 0.04617 0.68346 0.0
C443 C 0.58317 0.01201 0.74525 0.0
C444 C 0.60384 1.00083 0.72659 0.0
C445 C 0.6155 0.03508 0.66548 0.0
C446 C 0.61995 0.01247 0.6866 0.0
C447 C 0.49328 0.0426 0.52683 0.0
H448 H 0.42792 0.96082 0.5684 0.0
H449 H 0.44829 0.02187 0.45845 0.0
H450 H 0.39127 0.97999 0.59865 0.0
H451 H 0.38277 0.01977 0.56065 0.0
H452 H 0.59162 0.06358 0.66541 0.0
H453 H 0.57085 1.00288 0.77626 0.0
H454 H 0.62809 0.04408 0.63519 0.0
H455 H 0.63629 1.00427 0.67357 0.0
Gd456 Gd 0.48233 0.51961 0.65495 0.0
Gd457 Gd 0.53454 0.50257 0.562 0.0
C458 C 0.61023 0.51485 0.61901 0.0
C459 C 0.6223 0.54385 0.539 0.0
C460 C 0.58265 0.52909 0.53797 0.0
C461 C 0.58756 0.51531 0.59234 0.0
C462 C 0.60005 0.54332 0.51026 0.0
C463 C 0.62742 0.52954 0.59303 0.0
C464 C 0.61522 0.499 0.66935 0.0
C465 C 0.59783 0.48408 0.69182 0.0
N466 N 0.57055 0.50141 0.61684 0.0
C467 C 0.57548 0.48552 0.66495 0.0
H468 H 0.56221 0.47378 0.68236 0.0
C469 C 0.55615 0.53963 0.45341 0.0
N470 N 0.56106 0.52799 0.51079 0.0
C471 C 0.57277 0.55414 0.42461 0.0
C472 C 0.59475 0.55617 0.45348 0.0
H473 H 0.53921 0.53829 0.43069 0.0
H474 H 0.64485 0.52961 0.61348 0.0
H475 H 0.47094 0.55502 0.51985 0.0
H476 H 0.63259 0.49775 0.68976 0.0
H477 H 0.60166 0.47125 0.72924 0.0
H478 H 0.63584 0.55479 0.51871 0.0
H479 H 0.46001 0.48114 0.76073 0.0
H480 H 0.39828 0.55416 0.48482 0.0
H481 H 0.43736 0.56953 0.46094 0.0
H482 H 0.36999 0.49452 0.6273 0.0
H483 H 0.5686 0.56378 0.38023 0.0
H484 H 0.60762 0.56737 0.43092 0.0
H485 H 0.37352 0.52547 0.54467 0.0
H486 H 0.4231 0.46079 0.78208 0.0
N487 N 0.4519 0.53156 0.58192 0.0
C488 C 0.41316 0.5475 0.51166 0.0
C489 C 0.43513 0.55636 0.49852 0.0
C490 C 0.41067 0.52987 0.55835 0.0
C491 C 0.43053 0.52229 0.59352 0.0
C492 C 0.45432 0.54819 0.53386 0.0
N493 N 0.44746 0.49916 0.67627 0.0
C494 C 0.42838 0.50521 0.64093 0.0
C495 C 0.42436 0.47299 0.74157 0.0
C496 C 0.40483 0.47825 0.7036 0.0
C497 C 0.44541 0.48412 0.72834 0.0
C498 C 0.40651 0.49495 0.65374 0.0
H499 H 0.38839 0.46993 0.71465 0.0
O500 O 0.46591 0.52797 0.74876 0.0
O501 O 0.52098 0.51683 0.65748 0.0
O502 O 0.52323 0.47224 0.62654 0.0
O503 O 0.48486 0.48022 0.65768 0.0
O504 O 0.50366 0.50701 0.74224 0.0
O505 O 0.48285 0.55507 0.69314 0.0
O506 O 0.53835 0.48674 0.46452 0.0
O507 O 0.49563 0.5026 0.56378 0.0
O508 O 0.49799 0.55038 0.59963 0.0
O509 O 0.53676 0.54142 0.57777 0.0
O510 O 0.51107 0.51104 0.47525 0.0
O511 O 0.55214 0.46947 0.55169 0.0
C512 C 0.52396 0.51012 0.71664 0.0
C513 C 0.38689 0.50215 0.61801 0.0
C514 C 0.38891 0.51978 0.57102 0.0
C515 C 0.47425 0.54898 0.75027 0.0
C516 C 0.48778 0.55517 0.81013 0.0
C517 C 0.48297 0.5442 0.87072 0.0
C518 C 0.5064 0.57095 0.80658 0.0
C519 C 0.52028 0.57552 0.86253 0.0
C520 C 0.4968 0.54852 0.92624 0.0
C521 C 0.51538 0.56401 0.9223 0.0
C522 C 0.5029 0.46601 0.65169 0.0
C523 C 0.49145 0.50778 0.50422 0.0
C524 C 0.5483 0.46814 0.48816 0.0
C525 C 0.53978 0.44562 0.46428 0.0
C526 C 0.5561 0.42817 0.4502 0.0
C527 C 0.51587 0.44103 0.45729 0.0
C528 C 0.5085 0.41908 0.43465 0.0
C529 C 0.54877 0.40628 0.4288 0.0
C530 C 0.52514 0.40173 0.42089 0.0
C531 C 0.51935 0.55643 0.58157 0.0
H532 H 0.46871 0.53198 0.87494 0.0
H533 H 0.50999 0.57985 0.7605 0.0
H534 H 0.49315 0.53979 0.97247 0.0
H535 H 0.52591 0.56696 0.96614 0.0
H536 H 0.57455 0.43148 0.4561 0.0
H537 H 0.50318 0.45445 0.46853 0.0
H538 H 0.56143 0.39282 0.41819 0.0
H539 H 0.5198 0.38459 0.40412 0.0
Gd540 Gd 0.99954 0.49054 0.67145 0.0
Gd541 Gd 0.02054 0.53764 0.56791 0.0
C542 C 0.03369 0.60857 0.66544 0.0
C543 C 1.00551 0.63318 0.61014 0.0
C544 C 0.00715 0.59165 0.58512 0.0
C545 C 0.02486 0.58895 0.63105 0.0
C546 C 0.99753 0.61392 0.57359 0.0
C547 C 0.0238 0.63058 0.65511 0.0
C548 C 0.05272 0.60566 0.7077 0.0
C549 C 0.06202 0.58358 0.71682 0.0
N550 N 0.03424 0.56746 0.6398 0.0
C551 C 0.05267 0.56467 0.68215 0.0
H552 H 0.06047 0.54799 0.69016 0.0
C553 C 0.98693 0.57624 0.49305 0.0
N554 N 1.00065 0.57298 0.54785 0.0
C555 C 0.97625 0.59764 0.48134 0.0
C556 C 0.98122 0.61651 0.5227 0.0
H557 H 0.98434 0.56223 0.45796 0.0
H558 H 0.03045 0.64583 0.68073 0.0
H559 H 0.96399 0.46781 0.5464 0.0
H560 H 0.06058 0.62039 0.73292 0.0
H561 H 0.07665 0.58114 0.74988 0.0
H562 H 0.99833 0.65036 0.60187 0.0
H563 H 0.03043 0.47595 0.80581 0.0
H564 H 0.97637 0.3954 0.53333 0.0
H565 H 0.95551 0.43048 0.49713 0.0
H566 H 0.03527 0.38102 0.69406 0.0
H567 H 0.96475 0.59972 0.43925 0.0
H568 H 0.97341 0.63327 0.51256 0.0
H569 H 0.00787 0.37761 0.601 0.0
H570 H 0.05243 0.44233 0.84837 0.0
N571 N 0.9909 0.45549 0.61179 0.0
C572 C 0.981 0.41215 0.55435 0.0
C573 C 0.96894 0.43185 0.53464 0.0
C574 C 0.99829 0.4141 0.60259 0.0
C575 C 1.00254 0.43611 0.63203 0.0
C576 C 0.97397 0.45335 0.56394 0.0
N577 N 0.01934 0.45851 0.71771 0.0
C578 C 0.01758 0.43783 0.6855 0.0
C579 C 0.04291 0.44084 0.80217 0.0
C580 C 0.04257 0.41983 0.76723 0.0
C581 C 0.0306 0.45988 0.77761 0.0
C582 C 0.02922 0.41789 0.70937 0.0
H583 H 0.05182 0.40495 0.78685 0.0
O584 O 0.98352 0.47414 0.75689 0.0
O585 O 1.00366 0.52937 0.66492 0.0
O586 O 0.05235 0.51911 0.61092 0.0
O587 O 0.03843 0.49184 0.68628 0.0
O588 O 0.01396 0.51362 0.75233 0.0
O589 O 0.96546 0.50147 0.70559 0.0
O590 O 0.02676 0.54531 0.46426 0.0
O591 O 0.01783 0.49889 0.57723 0.0
O592 O 0.97096 0.50109 0.60045 0.0
O593 O 0.98118 0.5374 0.55902 0.0
O594 O 0.01004 0.51278 0.48567 0.0
O595 O 0.05418 0.5504 0.53701 0.0
C596 C 0.01106 0.53335 0.72346 0.0
C597 C 0.0263 0.39643 0.67687 0.0
C598 C 0.01068 0.39449 0.62398 0.0
C599 C 0.96679 0.48931 0.75954 0.0
C600 C 0.96407 0.50254 0.82203 0.0
C601 C 0.97843 0.49829 0.87722 0.0
C602 C 0.94803 0.5209 0.82481 0.0
C603 C 0.94634 0.53504 0.88155 0.0
C604 C 0.97676 0.51229 0.93392 0.0
C605 C 0.96078 0.53055 0.93628 0.0
C606 C 0.05556 0.50339 0.65796 0.0
C607 C 0.01211 0.49366 0.51824 0.0
C608 C 0.04828 0.55135 0.47466 0.0
C609 C 0.06539 0.54269 0.42726 0.0
C610 C 0.0757 0.5586 0.38413 0.0
C611 C 0.07214 0.51921 0.42611 0.0
C612 C 0.08973 0.51169 0.38245 0.0
C613 C 0.09303 0.55131 0.34066 0.0
C614 C 0.1002 0.52815 0.3402 0.0
C615 C 0.96609 0.5203 0.56747 0.0
H616 H 0.99117 0.48441 0.8764 0.0
H617 H 0.93675 0.52415 0.7827 0.0
H618 H 0.98794 0.50903 0.97606 0.0
H619 H 0.95977 0.54123 0.98069 0.0
H620 H 0.07057 0.57675 0.3848 0.0
H621 H 0.0638 0.50705 0.45931 0.0
H622 H 0.10123 0.56372 0.308 0.0
H623 H 0.11439 0.52335 0.3076 0.0
C624 C 0.13754 0.03572 0.23932 0.0
C625 C 0.15472 0.05222 0.2551 0.0
C626 C 0.11901 0.03118 0.28327 0.0
C627 C 0.11769 0.04322 0.34489 0.0
C628 C 0.13503 0.0598 0.36108 0.0
C629 C 0.15321 0.06411 0.31619 0.0
C630 C 0.10092 0.01334 0.26404 0.0
C631 C 0.13476 0.07258 0.4268 0.0
C632 C 0.06066 0.04558 0.44281 0.0
C633 C 0.06467 0.02912 0.49253 0.0
C634 C 0.07765 0.05038 0.39432 0.0
C635 C 0.0989 0.03781 0.39405 0.0
C636 C 0.10261 0.02055 0.44273 0.0
C637 C 0.08551 0.01648 0.49104 0.0
C638 C 0.07307 0.06927 0.34436 0.0
C639 C 0.12475 0.00642 0.44418 0.0
H640 H 0.13844 0.02653 0.19225 0.0
H641 H 0.1666 0.07655 0.32969 0.0
H642 H 0.10088 0.99898 0.30051 0.0
H643 H 0.08337 0.02136 0.26503 0.0
H644 H 0.10403 1.00587 0.21383 0.0
H645 H 0.14815 0.08649 0.42941 0.0
H646 H 0.11741 0.08042 0.43584 0.0
H647 H 0.13808 0.06013 0.46752 0.0
H648 H 0.04441 0.05499 0.44238 0.0
H649 H 0.08825 1.00287 0.52667 0.0
H650 H 0.07488 0.06221 0.29325 0.0
H651 H 0.08615 0.08333 0.35034 0.0
H652 H 0.05546 0.077 0.34991 0.0
H653 H 0.12717 0.99725 0.39605 0.0
H654 H 0.12476 0.99334 0.48449 0.0
H655 H 0.13992 0.01809 0.45134 0.0
C656 C 0.45228 0.13265 0.2453 0.0
C657 C 0.46684 0.15227 0.24495 0.0
C658 C 0.45652 0.1139 0.28818 0.0
C659 C 0.47567 0.11477 0.33233 0.0
C660 C 0.49072 0.13428 0.33128 0.0
C661 C 0.48621 0.15272 0.28744 0.0
C662 C 0.4401 0.09343 0.28783 0.0
C663 C 0.51113 0.13603 0.37817 0.0
C664 C 0.47363 0.07951 0.49205 0.0
C665 C 0.48727 0.06008 0.47558 0.0
C666 C 0.46957 0.09734 0.44609 0.0
C667 C 0.47933 0.09573 0.38156 0.0
C668 C 0.49277 0.07592 0.36429 0.0
C669 C 0.49644 0.05831 0.41129 0.0
C670 C 0.45565 0.11817 0.46898 0.0
C671 C 0.50401 0.07371 0.29689 0.0
H672 H 0.43736 0.13208 0.21241 0.0
H673 H 0.49736 0.16792 0.28828 0.0
H674 H 0.44973 0.07713 0.27703 0.0
H675 H 0.43225 0.09156 0.33775 0.0
H676 H 0.42601 0.09533 0.25055 0.0
H677 H 0.52218 0.15145 0.368 0.0
H678 H 0.50469 0.13729 0.42997 0.0
H679 H 0.52202 0.12013 0.37454 0.0
H680 H 0.46636 0.08107 0.54153 0.0
H681 H 0.50719 0.04353 0.39817 0.0
H682 H 0.44951 0.12923 0.42777 0.0
H683 H 0.46666 0.129 0.50227 0.0
H684 H 0.4404 0.11245 0.49841 0.0
H685 H 0.49068 0.07498 0.25726 0.0
H686 H 0.51353 0.05701 0.29065 0.0
H687 H 0.51642 0.08826 0.28969 0.0
C688 C 0.37239 0.49332 0.29312 0.0
C689 C 0.37311 0.47312 0.2537 0.0
C690 C 0.3909 0.49932 0.33571 0.0
C691 C 0.41085 0.48487 0.33944 0.0
C692 C 0.41188 0.46465 0.29875 0.0
C693 C 0.39299 0.45894 0.25688 0.0
C694 C 0.38866 0.5208 0.37831 0.0
C695 C 0.43308 0.44916 0.29905 0.0
C696 C 0.46775 0.51181 0.40119 0.0
C697 C 0.46994 0.50265 0.46526 0.0
C698 C 0.44871 0.50622 0.36017 0.0
C699 C 0.43099 0.49131 0.38382 0.0
C700 C 0.43292 0.48226 0.44902 0.0
C701 C 0.45265 0.48753 0.48824 0.0
C702 C 0.44774 0.51605 0.29097 0.0
C703 C 0.41421 0.4669 0.47728 0.0
H704 H 0.35698 0.50418 0.29202 0.0
H705 H 0.39385 0.44341 0.22611 0.0
H706 H 0.38626 0.51533 0.43036 0.0
H707 H 0.40467 0.53149 0.37577 0.0
H708 H 0.37358 0.53175 0.36386 0.0
H709 H 0.43149 0.43434 0.26366 0.0
H710 H 0.44875 0.4594 0.28595 0.0
H711 H 0.43593 0.44222 0.34958 0.0
H712 H 0.48119 0.52327 0.38267 0.0
H713 H 0.45454 0.47982 0.53684 0.0
H714 H 0.43182 0.52673 0.28493 0.0
H715 H 0.44682 0.50166 0.25401 0.0
H716 H 0.4631 0.52703 0.27953 0.0
H717 H 0.39692 0.47519 0.47117 0.0
H718 H 0.41704 0.4633 0.53074 0.0
H719 H 0.41386 0.45015 0.4498 0.0
C720 C 0.02251 0.37086 0.31715 0.0
C721 C 0.04098 0.37198 0.27186 0.0
C722 C 0.01746 0.3895 0.36075 0.0
C723 C 0.03118 0.41003 0.35983 0.0
C724 C 0.04982 0.41131 0.31396 0.0
C725 C 0.05454 0.39237 0.27097 0.0
C726 C 0.99787 0.38672 0.40935 0.0
C727 C 0.06471 0.43285 0.30986 0.0
C728 C 1.0048 0.4675 0.42107 0.0
C729 C 0.01576 0.47103 0.48261 0.0
C730 C 0.00937 0.44768 0.38165 0.0
C731 C 0.02535 0.43063 0.40388 0.0
C732 C 0.03614 0.43384 0.46681 0.0
C733 C 0.03153 0.45414 0.50489 0.0
C734 C 0.99734 0.4452 0.31538 0.0
C735 C 0.0528 0.41595 0.49359 0.0
H736 H 0.01225 0.35508 0.31978 0.0
H737 H 0.06879 0.39363 0.23607 0.0
H738 H 1.00547 0.38331 0.4589 0.0
H739 H 0.98724 0.40279 0.41253 0.0
H740 H 0.98629 0.37193 0.39609 0.0
H741 H 0.07876 0.43107 0.27241 0.0
H742 H 0.05378 0.44807 0.29686 0.0
H743 H 0.07267 0.43657 0.35891 0.0
H744 H 0.99276 0.48055 0.40314 0.0
H745 H 0.04049 0.45695 0.5516 0.0
H746 H 0.98729 0.42872 0.31369 0.0
H747 H 0.01047 0.44432 0.27513 0.0
H748 H 0.98531 0.45988 0.30522 0.0
H749 H 0.04464 0.39845 0.49217 0.0
H750 H 0.05816 0.41991 0.54542 0.0
H751 H 0.06855 0.41519 0.46192 0.0
C752 C 0.88605 0.9542 0.98978 0.0
C753 C 0.86672 0.96919 0.98833 0.0
C754 C 0.90519 0.95743 0.94728 0.0
C755 C 0.90515 0.97607 0.9017 0.0
C756 C 0.88589 0.99148 0.90057 0.0
C757 C 0.86699 0.9879 0.94383 0.0
C758 C 0.92539 0.94073 0.95061 0.0
C759 C 0.88512 0.01161 0.85291 0.0
C760 C 0.9629 0.99744 0.83123 0.0
C761 C 0.96286 0.98769 0.7672 0.0
C762 C 0.94439 0.99366 0.87549 0.0
C763 C 0.92534 0.97959 0.85568 0.0
C764 C 0.92555 0.96912 0.7917 0.0
C765 C 0.94428 0.97326 0.74838 0.0
C766 C 0.94499 1.00521 0.94299 0.0
C767 C 0.90585 0.95375 0.7686 0.0
H768 H 0.88624 0.93983 0.0243 0.0
H769 H 0.85208 0.9994 0.9414 0.0
H770 H 0.92775 0.9322 0.90161 0.0
H771 H 0.94168 0.95031 0.96193 0.0
H772 H 0.92287 0.92712 0.98874 0.0
H773 H 0.86907 0.0222 0.8586 0.0
H774 H 0.90042 0.02305 0.86086 0.0
H775 H 0.88602 1.00501 0.8011 0.0
H776 H 0.97706 0.00867 0.84632 0.0
H777 H 0.94426 0.96536 0.69937 0.0
H778 H 0.94321 0.99197 0.98241 0.0
H779 H 0.93009 0.01736 0.94802 0.0
H780 H 0.96133 0.01509 0.95161 0.0
H781 H 0.90851 0.94708 0.71729 0.0
H782 H 0.88922 0.96353 0.77033 0.0
H783 H 0.90411 0.93874 0.80242 0.0
C784 C 0.53222 0.87243 0.94912 0.0
C785 C 0.55162 0.873 0.99145 0.0
C786 C 0.52765 0.89076 0.90495 0.0
C787 C 0.54269 0.91028 0.9034 0.0
C788 C 0.56184 0.9113 0.94752 0.0
C789 C 0.56612 0.89266 0.99076 0.0
C790 C 0.50722 0.88887 0.85818 0.0
C791 C 0.57826 0.93177 0.94736 0.0
C792 C 0.54508 0.94512 0.74295 0.0
C793 C 0.53162 0.96472 0.75901 0.0
C794 C 0.54888 0.92733 0.78918 0.0
C795 C 0.53907 0.92915 0.85362 0.0
C796 C 0.52576 0.94909 0.87042 0.0
C797 C 0.52233 0.96666 0.82314 0.0
C798 C 0.56261 0.90632 0.76667 0.0
C799 C 0.51443 0.95152 0.93765 0.0
H800 H 0.52111 0.85719 0.9486 0.0
H801 H 0.58106 0.89334 0.02356 0.0
H802 H 0.49636 0.90481 0.86138 0.0
H803 H 0.51364 0.88742 0.8064 0.0
H804 H 0.49615 0.87351 0.86885 0.0
H805 H 0.59237 0.92998 0.98463 0.0
H806 H 0.58609 0.93352 0.89738 0.0
H807 H 0.56862 0.9481 0.95784 0.0
H808 H 0.55242 0.94343 0.6936 0.0
H809 H 0.51169 0.98155 0.83593 0.0
H810 H 0.55162 0.89569 0.73281 0.0
H811 H 0.56839 0.89511 0.80798 0.0
H812 H 0.57807 0.91187 0.73791 0.0
H813 H 0.50203 0.93699 0.94514 0.0
H814 H 0.5049 0.96823 0.94335 0.0
H815 H 0.52771 0.9504 0.97743 0.0
C816 C 0.64087 0.51591 0.94094 0.0
C817 C 0.64099 0.53568 0.98218 0.0
C818 C 0.62197 0.51097 0.89845 0.0
C819 C 0.60253 0.52624 0.89632 0.0
C820 C 0.60221 0.54571 0.9401 0.0
C821 C 0.62142 0.55031 0.98163 0.0
C822 C 0.62361 0.48981 0.85417 0.0
C823 C 0.5819 0.56225 0.94266 0.0
C824 C 0.56225 0.52999 0.7443 0.0
C825 C 0.54481 0.51383 0.75981 0.0
C826 C 0.58146 0.53363 0.78706 0.0
C827 C 0.58265 0.52193 0.84881 0.0
C828 C 0.56437 0.50659 0.86608 0.0
C829 C 0.54598 0.5025 0.8212 0.0
C830 C 0.6006 0.54986 0.76592 0.0
C831 C 0.56399 0.49482 0.93274 0.0
H832 H 0.65596 0.50461 0.9401 0.0
H833 H 0.62107 0.5655 0.01381 0.0
H834 H 0.60636 0.48202 0.84391 0.0
H835 H 0.63151 0.49507 0.80655 0.0
H836 H 0.63495 0.47626 0.87627 0.0
H837 H 0.58021 0.57051 0.99243 0.0
H838 H 0.58495 0.57629 0.90645 0.0
H839 H 0.56531 0.55346 0.93011 0.0
H840 H 0.56101 0.53964 0.69847 0.0
H841 H 0.53221 0.49056 0.83469 0.0
H842 H 0.61751 0.54053 0.7666 0.0
H843 H 0.60198 0.56458 0.80155 0.0
H844 H 0.59767 0.5569 0.71543 0.0
H845 H 0.57944 0.48341 0.93797 0.0
H846 H 0.5481 0.48415 0.9399 0.0
H847 H 0.56488 0.50814 0.97287 0.0
C848 C 0.01113 0.65371 0.9346 0.0
C849 C 0.99253 0.65563 0.97932 0.0
C850 C 0.01387 0.63402 0.8932 0.0
C851 C 0.99763 0.61544 0.89548 0.0
C852 C 0.97915 0.61702 0.9421 0.0
C853 C 0.97676 0.63701 0.98283 0.0
C854 C 0.03384 0.63359 0.84525 0.0
C855 C 0.96126 0.59808 0.94873 0.0
C856 C 0.99243 0.57297 0.74659 0.0
C857 C 0.00771 0.55503 0.76467 0.0
C858 C 0.9891 0.59275 0.78806 0.0
C859 C 1.00055 0.59434 0.85053 0.0
C860 C 0.01509 0.57568 0.87007 0.0
C861 C 0.01866 0.55657 0.82695 0.0
C862 C 0.97325 0.61197 0.76514 0.0
C863 C 0.02661 0.57569 0.93737 0.0
H864 H 0.02366 0.66775 0.9317 0.0
H865 H 0.96207 0.63825 0.01633 0.0
H866 H 0.04328 0.6168 0.84787 0.0
H867 H 0.02666 0.63538 0.79465 0.0
H868 H 0.04639 0.64797 0.85416 0.0
H869 H 0.95603 0.59598 1.00138 0.0
H870 H 0.94551 0.60323 0.92068 0.0
H871 H 0.96754 0.58111 0.92959 0.0
H872 H 0.98308 0.57156 0.70004 0.0
H873 H 0.02999 0.54254 0.84248 0.0
H874 H 0.983 0.62862 0.76356 0.0
H875 H 0.95881 0.61426 0.80107 0.0
H876 H 0.9658 0.60839 0.71521 0.0
H877 H 0.03845 0.59085 0.94215 0.0
H878 H 0.03675 0.55956 0.94629 0.0
H879 H 0.01319 0.57742 0.97666 0.0
C880 C 0.09677 0.20272 0.40587 0.0
C881 C 0.11403 0.19606 0.36041 0.0
C882 C 0.086 0.1863 0.44637 0.0
C883 C 0.09307 0.16274 0.44234 0.0
C884 C 0.11289 0.15666 0.40445 0.0
C885 C 0.12296 0.17336 0.36281 0.0
C886 C 0.06512 0.1937 0.4868 0.0
C887 C 0.12211 0.13212 0.40344 0.0
C888 C 0.05516 0.12701 0.55559 0.0
C889 C 0.03733 0.12074 0.51163 0.0
C890 C 0.0751 0.13849 0.53266 0.0
C891 C 0.07658 0.14455 0.46482 0.0
C892 C 0.05931 0.13657 0.41969 0.0
C893 C 0.04001 0.12448 0.44373 0.0
C894 C 0.09365 0.14528 0.58205 0.0
C895 C 0.06007 0.14258 0.34684 0.0
H896 H 0.08973 0.22021 0.40453 0.0
H897 H 0.13666 0.16824 0.32878 0.0
H898 H 0.04914 0.18583 0.46528 0.0
H899 H 0.06675 0.18748 0.53848 0.0
H900 H 0.06289 0.21291 0.48806 0.0
H901 H 0.14042 0.13148 0.38607 0.0
H902 H 0.12107 0.12437 0.45362 0.0
H903 H 0.11147 0.12126 0.36931 0.0
H904 H 0.05323 0.12345 0.60802 0.0
H905 H 0.02621 0.11931 0.40999 0.0
H906 H 0.08857 0.16173 0.60725 0.0
H907 H 0.1108 0.14786 0.558 0.0
H908 H 0.09542 0.13178 0.62092 0.0
H909 H 0.05894 0.16174 0.34087 0.0
H910 H 0.04563 0.13441 0.31839 0.0
H911 H 0.07674 0.13679 0.3247 0.0
C912 C 0.32679 0.10614 0.38288 0.0
C913 C 0.33256 0.12265 0.33471 0.0
C914 C 0.34397 0.09605 0.42252 0.0
C915 C 0.36745 0.10289 0.41433 0.0
C916 C 0.37271 0.1222 0.37373 0.0
C917 C 0.35518 0.13175 0.33372 0.0
C918 C 0.33733 0.07583 0.46611 0.0
C919 C 0.39708 0.1314 0.36651 0.0
C920 C 0.40507 0.06547 0.52393 0.0
C921 C 0.40896 0.04652 0.48129 0.0
C922 C 0.39401 0.08565 0.50073 0.0
C923 C 0.38589 0.08623 0.43446 0.0
C924 C 0.39177 0.06788 0.39006 0.0
C925 C 0.40351 0.04832 0.41402 0.0
C926 C 0.38957 0.10554 0.54822 0.0
C927 C 0.38356 0.06769 0.31883 0.0
H928 H 0.30935 0.09903 0.38439 0.0
H929 H 0.35964 0.14497 0.2978 0.0
H930 H 0.34348 0.05935 0.44298 0.0
H931 H 0.34568 0.0774 0.51551 0.0
H932 H 0.31822 0.07458 0.4732 0.0
H933 H 0.39699 0.15066 0.37145 0.0
H934 H 0.40917 0.12414 0.40379 0.0
H935 H 0.40355 0.12725 0.31599 0.0
H936 H 0.40971 0.06408 0.57589 0.0
H937 H 0.40666 0.03358 0.3813 0.0
H938 H 0.37155 0.1044 0.56746 0.0
H939 H 0.39142 0.12249 0.52271 0.0
H940 H 0.4017 0.10507 0.59115 0.0
H941 H 0.36456 0.0643 0.31744 0.0
H942 H 0.39243 0.05406 0.28877 0.0
H943 H 0.38663 0.08481 0.29541 0.0
C944 C 0.39032 0.36068 0.33373 0.0
C945 C 0.39929 0.33806 0.33954 0.0
C946 C 0.40078 0.37938 0.3677 0.0
C947 C 0.42087 0.3752 0.4065 0.0
C948 C 0.42675 0.35199 0.42285 0.0
C949 C 0.41577 0.33363 0.38924 0.0
C950 C 0.3924 0.40367 0.35372 0.0
C951 C 0.44744 0.34651 0.4663 0.0
C952 C 0.47705 0.40421 0.36242 0.0
C953 C 0.48368 0.41379 0.42344 0.0
C954 C 0.45536 0.39365 0.35435 0.0
C955 C 0.4398 0.39282 0.40888 0.0
C956 C 0.4453 0.40509 0.46814 0.0
C957 C 0.46739 0.41539 0.47497 0.0
C958 C 0.45014 0.38157 0.28908 0.0
C959 C 0.42869 0.40604 0.5259 0.0
H960 H 0.37684 0.36415 0.29745 0.0
H961 H 0.42253 0.31617 0.39545 0.0
H962 H 0.39911 0.41648 0.39039 0.0
H963 H 0.39814 0.40878 0.30342 0.0
H964 H 0.37309 0.40421 0.35395 0.0
H965 H 0.44773 0.32794 0.48128 0.0
H966 H 0.46372 0.35026 0.43882 0.0
H967 H 0.44734 0.35748 0.51169 0.0
H968 H 0.48952 0.40367 0.32209 0.0
H969 H 0.47241 0.42326 0.5219 0.0
H970 H 0.43333 0.38773 0.26886 0.0
H971 H 0.44875 0.36251 0.29669 0.0
H972 H 0.4638 0.38472 0.25126 0.0
H973 H 0.43125 0.42223 0.55547 0.0
H974 H 0.43206 0.39117 0.55929 0.0
H975 H 0.41033 0.40512 0.50906 0.0
C976 C 0.1867 0.42792 0.37595 0.0
C977 C 0.18445 0.40832 0.3346 0.0
C978 C 0.16706 0.43887 0.40261 0.0
C979 C 0.14475 0.42953 0.38894 0.0
C980 C 0.14292 0.40723 0.35907 0.0
C981 C 0.16281 0.39707 0.33049 0.0
C982 C 0.17006 0.46223 0.43653 0.0
C983 C 0.11971 0.39537 0.35042 0.0
C984 C 0.10065 0.47472 0.44195 0.0
C985 C 0.09841 0.48728 0.38268 0.0
C986 C 0.11339 0.45385 0.44373 0.0
C987 C 0.12486 0.446 0.38558 0.0
C988 C 0.12061 0.45738 0.32451 0.0
C989 C 0.10684 0.47739 0.32373 0.0
C990 C 0.11557 0.44132 0.50891 0.0
C991 C 0.13213 0.44973 0.26048 0.0
H992 H 0.2034 0.43654 0.38033 0.0
H993 H 0.16106 0.38145 0.3004 0.0
H994 H 0.16201 0.4761 0.40604 0.0
H995 H 0.16126 0.46224 0.48534 0.0
H996 H 0.18865 0.46672 0.44462 0.0
H997 H 0.12161 0.37628 0.35691 0.0
H998 H 0.10662 0.40204 0.38629 0.0
H999 H 0.11313 0.39822 0.29939 0.0
H1000 H 0.09371 0.48174 0.48784 0.0
H1001 H 0.10392 0.48617 0.27706 0.0
H1002 H 0.12188 0.42318 0.50256 0.0
H1003 H 0.09849 0.44099 0.5345 0.0
H1004 H 0.12769 0.45096 0.54199 0.0
H1005 H 0.1513 0.44924 0.26663 0.0
H1006 H 0.12802 0.46147 0.21851 0.0
H1007 H 0.12627 0.43199 0.24669 0.0
C1008 C 0.89109 0.84789 0.90387 0.0
C1009 C 0.90273 0.82646 0.89797 0.0
C1010 C 0.89848 0.86733 0.86762 0.0
C1011 C 0.91801 0.86516 0.82539 0.0
C1012 C 0.92722 0.84279 0.81141 0.0
C1013 C 0.91937 0.8237 0.84768 0.0
C1014 C 0.887 0.8905 0.88038 0.0
C1015 C 0.94767 0.83942 0.76525 0.0
C1016 C 0.9523 0.90718 0.72271 0.0
C1017 C 0.9713 0.91086 0.76503 0.0
C1018 C 0.93264 0.89502 0.74473 0.0
C1019 C 0.93262 0.88569 0.80949 0.0
C1020 C 0.95065 0.89185 0.85445 0.0
C1021 C 0.9697 0.90463 0.83167 0.0
C1022 C 0.91311 0.89027 0.69657 0.0
C1023 C 0.9513 0.88261 0.9244 0.0
H1024 H 0.87759 0.85001 0.9409 0.0
H1025 H 0.92842 0.80728 0.84183 0.0
H1026 H 0.89539 0.89909 0.92363 0.0
H1027 H 0.88857 0.90213 0.83699 0.0
H1028 H 0.8683 0.88822 0.8924 0.0
H1029 H 0.95116 0.82074 0.75468 0.0
H1030 H 0.94459 0.84835 0.71752 0.0
H1031 H 0.9635 0.84713 0.78808 0.0
H1032 H 0.95342 0.91258 0.67149 0.0
H1033 H 0.9844 0.90771 0.86434 0.0
H1034 H 0.89625 0.88826 0.72263 0.0
H1035 H 0.91674 0.87392 0.66888 0.0
H1036 H 0.91158 0.9045 0.65983 0.0
H1037 H 0.93418 0.88479 0.94882 0.0
H1038 H 0.96469 0.8915 0.95523 0.0
H1039 H 0.95533 0.86372 0.92301 0.0
C1040 C 0.69141 0.91712 0.85147 0.0
C1041 C 0.68547 0.90075 0.89984 0.0
C1042 C 0.67432 0.92745 0.81201 0.0
C1043 C 0.65075 0.92101 0.8206 0.0
C1044 C 0.64525 0.90183 0.86146 0.0
C1045 C 0.6627 0.89202 0.90122 0.0
C1046 C 0.68121 0.94753 0.76817 0.0
C1047 C 0.62075 0.89307 0.86924 0.0
C1048 C 0.61548 0.97609 0.82064 0.0
C1049 C 0.60994 0.97787 0.75343 0.0
C1050 C 0.62699 0.95642 0.84469 0.0
C1051 C 0.63254 0.93792 0.80045 0.0
C1052 C 0.62434 0.93851 0.73426 0.0
C1053 C 0.61352 0.9588 0.71096 0.0
C1054 C 0.6353 0.95658 0.91583 0.0
C1055 C 0.62844 0.91849 0.68697 0.0
H1056 H 0.70896 0.92395 0.84964 0.0
H1057 H 0.6581 0.8789 0.93729 0.0
H1058 H 0.67276 0.94604 0.71889 0.0
H1059 H 0.67535 0.96413 0.79125 0.0
H1060 H 0.70033 0.94847 0.76082 0.0
H1061 H 0.62048 0.87381 0.86456 0.0
H1062 H 0.61446 0.89742 0.91983 0.0
H1063 H 0.6087 0.90049 0.83211 0.0
H1064 H 0.61257 0.99092 0.85322 0.0
H1065 H 0.6088 0.96018 0.65905 0.0
H1066 H 0.65435 0.95964 0.91697 0.0
H1067 H 0.63197 0.93956 0.93953 0.0
H1068 H 0.6267 0.97042 0.9458 0.0
H1069 H 0.64645 0.91935 0.66752 0.0
H1070 H 0.61626 0.91907 0.64416 0.0
H1071 H 0.62638 0.9016 0.7127 0.0
C1072 C 0.59767 0.68691 0.86343 0.0
C1073 C 0.61563 0.68388 0.90989 0.0
C1074 C 0.58621 0.66767 0.83559 0.0
C1075 C 0.59294 0.64503 0.85486 0.0
C1076 C 0.61372 0.64193 0.89143 0.0
C1077 C 0.62491 0.66151 0.91867 0.0
C1078 C 0.56449 0.67183 0.79521 0.0
C1079 C 0.62209 0.618 0.91048 0.0
C1080 C 0.54232 0.60856 0.91232 0.0
C1081 C 0.53925 0.59294 0.85946 0.0
C1082 C 0.56001 0.62519 0.91139 0.0
C1083 C 0.575 0.62647 0.85572 0.0
C1084 C 0.57198 0.61087 0.80172 0.0
C1085 C 0.55411 0.5942 0.80429 0.0
C1086 C 0.56238 0.64162 0.97004 0.0
C1087 C 0.58768 0.61162 0.74182 0.0
H1088 H 0.59047 0.70407 0.85522 0.0
H1089 H 0.63935 0.65908 0.95255 0.0
H1090 H 0.56212 0.65821 0.75656 0.0
H1091 H 0.54914 0.67133 0.82853 0.0
H1092 H 0.56489 0.68913 0.77096 0.0
H1093 H 0.64086 0.61812 0.92356 0.0
H1094 H 0.61221 0.61198 0.95442 0.0
H1095 H 0.61915 0.60527 0.86969 0.0
H1096 H 0.53061 0.60799 0.95438 0.0
H1097 H 0.55197 0.58198 0.76355 0.0
H1098 H 0.5604 0.65989 0.95352 0.0
H1099 H 0.57991 0.63988 0.99249 0.0
H1100 H 0.54924 0.63824 0.00915 0.0
H1101 H 0.58892 0.62957 0.72238 0.0
H1102 H 0.58154 0.5999 0.70133 0.0
H1103 H 0.6055 0.60627 0.75631 0.0
C1104 C 0.84888 0.63011 0.94624 0.0
C1105 C 0.82841 0.61772 0.93188 0.0
C1106 C 0.87046 0.62221 0.92254 0.0
C1107 C 0.87135 0.60144 0.88453 0.0
C1108 C 0.85049 0.5914 0.86054 0.0
C1109 C 0.8292 0.59977 0.8843 0.0
C1110 C 0.89238 0.6342 0.94563 0.0
C1111 C 0.85061 0.56952 0.81854 0.0
C1112 C 0.92598 0.56921 0.83129 0.0
C1113 C 0.92871 0.55372 0.88427 0.0
C1114 C 0.90815 0.58592 0.83183 0.0
C1115 C 0.89259 0.58677 0.8861 0.0
C1116 C 0.89582 0.57159 0.94056 0.0
C1117 C 0.91396 0.55539 0.93909 0.0
C1118 C 0.90606 0.60261 0.77468 0.0
C1119 C 0.87947 0.57163 0.99928 0.0
H1120 H 0.84832 0.64451 0.98129 0.0
H1121 H 0.81353 0.59017 0.87205 0.0
H1122 H 0.89937 0.62509 0.98972 0.0
H1123 H 0.90591 0.63365 0.90648 0.0
H1124 H 0.88899 0.65262 0.95977 0.0
H1125 H 0.83349 0.56639 0.7945 0.0
H1126 H 0.86413 0.5704 0.77949 0.0
H1127 H 0.85468 0.55439 0.85047 0.0
H1128 H 0.93782 0.56823 0.78954 0.0
H1129 H 0.91602 0.54334 0.9798 0.0
H1130 H 0.91104 0.6203 0.79187 0.0
H1131 H 0.88786 0.6036 0.75662 0.0
H1132 H 0.91752 0.59764 0.73255 0.0
H1133 H 0.87908 0.58912 0.02287 0.0
H1134 H 0.88457 0.55876 0.0375 0.0
H1135 H 0.86154 0.56753 0.98247 0.0
C1136 C 0.02727 0.17524 0.83183 0.0
C1137 C 0.03187 0.17541 0.90026 0.0
C1138 C 0.02389 0.15416 0.79644 0.0
C1139 C 0.02553 0.13245 0.82951 0.0
C1140 C 0.03032 0.13265 0.89869 0.0
C1141 C 0.03351 0.15393 0.93272 0.0
C1142 C 0.01764 0.15519 0.72399 0.0
C1143 C 0.03252 0.11062 0.93822 0.0
C1144 C 0.99329 0.07887 0.76226 0.0
C1145 C 0.01047 0.06694 0.72596 0.0
C1146 C 0.99791 0.10016 0.79476 0.0
C1147 C 0.02054 0.10988 0.7929 0.0
C1148 C 0.03812 0.09782 0.75681 0.0
C1149 C 0.03274 0.07686 0.72238 0.0
C1150 C 0.97846 0.11223 0.83163 0.0
C1151 C 0.06275 0.10678 0.7558 0.0
H1152 H 0.02576 0.19167 0.80613 0.0
H1153 H 0.03756 0.15367 0.98526 0.0
H1154 H 0.03018 0.14478 0.69448 0.0
H1155 H 1.00015 0.14746 0.71642 0.0
H1156 H 0.0175 0.17326 0.7048 0.0
H1157 H 0.0248 0.11295 0.98834 0.0
H1158 H 0.02411 0.09546 0.91405 0.0
H1159 H 0.05126 0.10685 0.94523 0.0
H1160 H 0.97592 0.07161 0.7647 0.0
H1161 H 0.04597 0.06822 0.69295 0.0
H1162 H 0.97684 0.13051 0.81482 0.0
H1163 H 0.98248 0.11267 0.88548 0.0
H1164 H 0.96146 0.10338 0.82443 0.0
H1165 H 0.06323 0.12461 0.73518 0.0
H1166 H 0.07447 0.09543 0.72605 0.0
H1167 H 0.0695 0.10787 0.80737 0.0
C1168 C 0.369 0.03775 0.91221 0.0
C1169 C 0.34746 0.03472 0.88052 0.0
C1170 C 0.39012 0.03401 0.87861 0.0
C1171 C 0.39 0.02714 0.81084 0.0
C1172 C 0.36824 0.02415 0.77841 0.0
C1173 C 0.34731 0.0282 0.81329 0.0
C1174 C 0.41238 0.03809 0.91644 0.0
C1175 C 0.36704 0.01612 0.70718 0.0
C1176 C 0.44459 0.03188 0.70143 0.0
C1177 C 0.45453 0.00973 0.70864 0.0
C1178 C 0.42402 0.03811 0.7357 0.0
C1179 C 0.41239 0.02141 0.7754 0.0
C1180 C 0.42224 0.99893 0.78161 0.0
C1181 C 0.44316 0.9935 0.74888 0.0
C1182 C 0.41485 0.06259 0.7299 0.0
C1183 C 0.4106 0.98047 0.82284 0.0
H1184 H 0.3694 0.04338 0.96367 0.0
H1185 H 0.33078 0.02575 0.78831 0.0
H1186 H 0.42707 0.02765 0.89693 0.0
H1187 H 0.41683 0.05679 0.91276 0.0
H1188 H 0.41018 0.03407 0.96989 0.0
H1189 H 0.34888 0.01393 0.6894 0.0
H1190 H 0.37591 0.02894 0.67517 0.0
H1191 H 0.3763 0.99928 0.70154 0.0
H1192 H 0.45278 0.04428 0.66867 0.0
H1193 H 0.45049 0.97621 0.75389 0.0
H1194 H 0.41296 0.07042 0.78013 0.0
H1195 H 0.39737 0.06239 0.70664 0.0
H1196 H 0.42646 0.07383 0.69994 0.0
H1197 H 0.41009 0.98616 0.87555 0.0
H1198 H 0.41976 0.96347 0.81986 0.0
H1199 H 0.39237 0.97799 0.80613 0.0
C1200 C 0.46721 0.34262 0.80372 0.0
C1201 C 0.48444 0.33436 0.84705 0.0
C1202 C 0.47098 0.36243 0.76438 0.0
C1203 C 0.49256 0.3743 0.76809 0.0
C1204 C 0.5105 0.36518 0.80858 0.0
C1205 C 0.50621 0.34544 0.84762 0.0
C1206 C 0.45135 0.37152 0.72206 0.0
C1207 C 0.53387 0.37703 0.81348 0.0
C1208 C 0.50694 0.4225 0.64421 0.0
C1209 C 0.50072 0.44246 0.68042 0.0
C1210 C 0.5042 0.40011 0.67144 0.0
C1211 C 0.49535 0.39772 0.73679 0.0
C1212 C 0.48945 0.41798 0.77362 0.0
C1213 C 0.49236 0.44 0.74515 0.0
C1214 C 0.51065 0.37906 0.63026 0.0
C1215 C 0.48014 0.41645 0.8435 0.0
H1216 H 0.45027 0.33436 0.80319 0.0
H1217 H 0.51976 0.33901 0.88012 0.0
H1218 H 0.44468 0.38801 0.74385 0.0
H1219 H 0.4576 0.37546 0.67133 0.0
H1220 H 0.43672 0.35896 0.71835 0.0
H1221 H 0.5468 0.36635 0.84069 0.0
H1222 H 0.54076 0.38075 0.76328 0.0
H1223 H 0.53192 0.39394 0.83984 0.0
H1224 H 0.51363 0.42439 0.59432 0.0
H1225 H 0.48863 0.4554 0.77437 0.0
H1226 H 0.49522 0.3677 0.62341 0.0
H1227 H 0.52405 0.36869 0.65643 0.0
H1228 H 0.51742 0.38387 0.58059 0.0
H1229 H 0.46429 0.40546 0.84425 0.0
H1230 H 0.47575 0.43381 0.86466 0.0
H1231 H 0.49321 0.4081 0.87609 0.0
C1232 C 0.18003 0.50384 0.83924 0.0
C1233 C 0.18902 0.48128 0.84752 0.0
C1234 C 0.15978 0.50788 0.80141 0.0
C1235 C 0.14807 0.48896 0.77059 0.0
C1236 C 0.15765 0.46632 0.77602 0.0
C1237 C 0.17786 0.46275 0.81435 0.0
C1238 C 0.15033 0.53233 0.79694 0.0
C1239 C 0.14585 0.4456 0.7441 0.0
C1240 C 0.08228 0.49409 0.75196 0.0
C1241 C 0.07945 0.49948 0.68465 0.0
C1242 C 0.10436 0.49054 0.77992 0.0
C1243 C 0.12448 0.49242 0.73983 0.0
C1244 C 0.12182 0.49782 0.67153 0.0
C1245 C 0.09936 0.50157 0.64493 0.0
C1246 C 0.10612 0.48499 0.8529 0.0
C1247 C 0.14268 0.49968 0.62659 0.0
H1248 H 0.1886 0.5184 0.8634 0.0
H1249 H 0.1843 0.44519 0.82066 0.0
H1250 H 0.14677 0.53684 0.74449 0.0
H1251 H 0.1336 0.53347 0.82411 0.0
H1252 H 0.16249 0.54542 0.81827 0.0
H1253 H 0.15677 0.42967 0.74621 0.0
H1254 H 0.12921 0.44208 0.76994 0.0
H1255 H 0.14164 0.44927 0.69147 0.0
H1256 H 0.06714 0.49324 0.78364 0.0
H1257 H 0.09736 0.50589 0.593 0.0
H1258 H 0.11632 0.49869 0.87884 0.0
H1259 H 0.11542 0.46827 0.85979 0.0
H1260 H 0.08879 0.4837 0.87694 0.0
H1261 H 0.13765 0.50253 0.57402 0.0
H1262 H 0.15329 0.48358 0.6294 0.0
H1263 H 0.15386 0.51433 0.64325 0.0
C1264 C 0.98383 0.87001 0.33795 0.0
C1265 C 0.99169 0.84871 0.36307 0.0
C1266 C 0.98853 0.89123 0.37075 0.0
C1267 C 1.0009 0.89142 0.43166 0.0
C1268 C 0.00897 0.86985 0.45711 0.0
C1269 C 1.00448 0.84883 0.42231 0.0
C1270 C 0.97981 0.91341 0.34049 0.0
C1271 C 0.02172 0.86884 0.52224 0.0
C1272 C 0.03212 0.94681 0.49113 0.0
C1273 C 0.01659 0.95622 0.5378 0.0
C1274 C 0.02699 0.92622 0.45551 0.0
C1275 C 0.00591 0.91415 0.46746 0.0
C1276 C 0.98987 0.92388 0.51368 0.0
C1277 C 0.99545 0.94465 0.54855 0.0
C1278 C 0.04436 0.91718 0.40553 0.0
C1279 C 0.96713 0.91196 0.52843 0.0
H1280 H 0.97394 0.87006 0.2921 0.0
H1281 H 0.01038 0.83241 0.44243 0.0
H1282 H 0.96554 0.92041 0.37168 0.0
H1283 H 0.99394 0.92653 0.33905 0.0
H1284 H 0.97305 0.91075 0.28933 0.0
H1285 H 0.02858 0.85117 0.53278 0.0
H1286 H 0.0364 0.88136 0.52275 0.0
H1287 H 0.00959 0.8739 0.56253 0.0
H1288 H 0.0486 0.95551 0.48304 0.0
H1289 H 0.9836 0.95136 0.58582 0.0
H1290 H 0.03583 0.91479 0.35653 0.0
H1291 H 0.05093 0.89992 0.42122 0.0
H1292 H 0.05942 0.92909 0.39958 0.0
H1293 H 0.95475 0.92383 0.55404 0.0
H1294 H 0.97049 0.89678 0.56077 0.0
H1295 H 0.9588 0.90538 0.48235 0.0
C1296 C 0.67219 0.99539 0.42114 0.0
C1297 C 0.67194 0.98898 0.35382 0.0
C1298 C 0.65131 0.99971 0.45607 0.0
C1299 C 0.6295 0.99709 0.42362 0.0
C1300 C 0.62929 0.99038 0.35571 0.0
C1301 C 0.65036 0.98636 0.32207 0.0
C1302 C 0.65263 0.00767 0.52736 0.0
C1303 C 0.60702 0.98678 0.31758 0.0
C1304 C 0.57483 0.9927 0.53292 0.0
C1305 C 0.56502 0.01491 0.52566 0.0
C1306 C 0.5954 0.98636 0.49878 0.0
C1307 C 0.60718 1.00299 0.45923 0.0
C1308 C 0.59749 0.02556 0.45314 0.0
C1309 C 0.57656 0.0311 0.48567 0.0
C1310 C 0.60438 0.9618 0.50447 0.0
C1311 C 0.60931 0.04397 0.41215 0.0
H1312 H 0.68875 0.99755 0.44615 0.0
H1313 H 0.64987 0.98085 0.27052 0.0
H1314 H 0.64351 0.02457 0.53321 0.0
H1315 H 0.64371 0.99489 0.55934 0.0
H1316 H 0.67083 0.00969 0.54501 0.0
H1317 H 0.60919 0.99175 0.26479 0.0
H1318 H 0.60272 0.96799 0.31849 0.0
H1319 H 0.59225 0.99676 0.33848 0.0
H1320 H 0.56652 0.98033 0.56553 0.0
H1321 H 0.56934 0.04844 0.48066 0.0
H1322 H 0.62179 0.96184 0.52809 0.0
H1323 H 0.60634 0.95403 0.45419 0.0
H1324 H 0.59261 0.95061 0.53408 0.0
H1325 H 0.6276 0.04618 0.42865 0.0
H1326 H 0.60036 0.06108 0.41559 0.0
H1327 H 0.60966 0.0384 0.35932 0.0
C1328 C 0.54379 0.68836 0.45537 0.0
C1329 C 0.54182 0.68772 0.3859 0.0
C1330 C 0.53999 0.66827 0.49369 0.0
C1331 C 0.53453 0.64687 0.4618 0.0
C1332 C 0.53259 0.64615 0.3917 0.0
C1333 C 0.53605 0.66655 0.35482 0.0
C1334 C 0.54195 0.66989 0.56827 0.0
C1335 C 0.52727 0.62368 0.35542 0.0
C1336 C 0.54615 0.58854 0.54501 0.0
C1337 C 0.52358 0.58089 0.5599 0.0
C1338 C 0.55009 0.61024 0.51513 0.0
C1339 C 0.53104 0.62507 0.50108 0.0
C1340 C 0.50839 0.61821 0.52053 0.0
C1341 C 0.50494 0.59626 0.54955 0.0
C1342 C 0.57455 0.61664 0.49531 0.0
C1343 C 0.48763 0.63366 0.50822 0.0
H1344 H 0.54821 0.70464 0.47978 0.0
H1345 H 0.53491 0.66577 0.30116 0.0
H1346 H 0.52557 0.66385 0.59152 0.0
H1347 H 0.55606 0.65832 0.58596 0.0
H1348 H 0.54561 0.68791 0.58569 0.0
H1349 H 0.52654 0.62596 0.30078 0.0
H1350 H 0.54077 0.6105 0.36697 0.0
H1351 H 0.51036 0.61662 0.37233 0.0
H1352 H 0.56082 0.57727 0.55493 0.0
H1353 H 0.48745 0.59093 0.56224 0.0
H1354 H 0.57854 0.6349 0.50944 0.0
H1355 H 0.57623 0.6152 0.44059 0.0
H1356 H 0.58771 0.60506 0.51836 0.0
H1357 H 0.49104 0.65152 0.52719 0.0
H1358 H 0.4716 0.62693 0.53208 0.0
H1359 H 0.48445 0.63497 0.45408 0.0
C1360 C 0.84622 0.50805 0.36346 0.0
C1361 C 0.83226 0.52812 0.36778 0.0
C1362 C 0.86733 0.50624 0.39879 0.0
C1363 C 0.87484 0.52486 0.44012 0.0
C1364 C 0.86051 0.54483 0.44647 0.0
C1365 C 0.83955 0.54624 0.41028 0.0
C1366 C 0.88195 0.48459 0.39042 0.0
C1367 C 0.86769 0.56509 0.48997 0.0
C1368 C 0.92284 0.51339 0.56818 0.0
C1369 C 0.94264 0.5221 0.53611 0.0
C1370 C 0.90067 0.51438 0.5381 0.0
C1371 C 0.89819 0.52398 0.4738 0.0
C1372 C 0.91821 0.53257 0.4411 0.0
C1373 C 0.94008 0.53146 0.47249 0.0
C1374 C 0.87989 0.50511 0.5751 0.0
C1375 C 0.91661 0.54266 0.37229 0.0
H1376 H 0.84076 0.49374 0.3318 0.0
H1377 H 0.82928 0.56202 0.41358 0.0
H1378 H 0.89883 0.48916 0.36733 0.0
H1379 H 0.88583 0.4769 0.43952 0.0
H1380 H 0.87327 0.47121 0.35896 0.0
H1381 H 0.85397 0.57866 0.49331 0.0
H1382 H 0.87179 0.55897 0.54075 0.0
H1383 H 0.88372 0.57312 0.46986 0.0
H1384 H 0.92466 0.50593 0.61715 0.0
H1385 H 0.95531 0.53716 0.44596 0.0
H1386 H 0.8846 0.49857 0.62508 0.0
H1387 H 0.87176 0.49072 0.54634 0.0
H1388 H 0.86661 0.51899 0.58078 0.0
H1389 H 0.91011 0.52923 0.33705 0.0
H1390 H 0.93366 0.54911 0.3542 0.0
H1391 H 0.90402 0.55728 0.3718 0.0
loop_
_geom_bond_atom_site_label_1
_geom_bond_atom_site_label_2
_geom_bond_distance
_geom_bond_site_symmetry_2
_ccdc_geom_bond_type
C0 C1 1.384 . S
C0 H13 0.947 . S
C0 C35 1.382 . S
C1 C0 1.384 . S
C1 C2 1.378 . S
C2 C1 1.378 . S
C2 C3 1.378 . S
C2 H14 0.952 . S
C3 C2 1.378 . S
C3 H15 0.950 . S
C3 C34 1.383 . S
H4 C23 0.947 . S
H5 C24 0.946 . S
H6 C26 0.953 . S
H7 C27 0.945 . S
H8 C29 0.952 . S
H9 C30 0.949 . S
H10 C32 0.950 . S
H11 C33 0.948 . S
H12 C35 0.951 . S
H13 C0 0.947 . S
H14 C2 0.952 . S
H15 C3 0.950 . S
N16 C19 1.382 . S
N16 C21 1.363 . S
N17 C19 1.371 . S
N17 C20 1.372 . S
N18 C20 1.361 . S
N18 C21 1.377 . S
C19 N16 1.382 . S
C19 N17 1.371 . S
C19 C22 1.480 . S
C20 N17 1.372 . S
C20 N18 1.361 . S
C20 C28 1.457 . S
C21 N16 1.363 . S
C21 N18 1.377 . S
C21 C34 1.479 . S
C22 C19 1.480 . S
C22 C23 1.383 . S
C22 C27 1.385 . S
C23 H4 0.947 . S
C23 C22 1.383 . S
C23 C24 1.388 . S
C24 H5 0.946 . S
C24 C23 1.388 . S
C24 C25 1.384 . S
C25 C24 1.384 . S
C25 C26 1.377 . S
C26 H6 0.953 . S
C26 C25 1.377 . S
C26 C27 1.369 . S
C27 H7 0.945 . S
C27 C22 1.385 . S
C27 C26 1.369 . S
C28 C20 1.457 . S
C28 C29 1.372 . S
C28 C33 1.364 . S
C29 H8 0.952 . S
C29 C28 1.372 . S
C29 C30 1.389 1_554 S
C30 H9 0.949 . S
C30 C29 1.389 1_556 S
C30 C31 1.387 1_556 S
C31 C30 1.387 1_554 S
C31 C32 1.372 . S
C32 H10 0.950 . S
C32 C31 1.372 . S
C32 C33 1.379 . S
C33 H11 0.948 . S
C33 C28 1.364 . S
C33 C32 1.379 . S
C34 C3 1.383 . S
C34 C21 1.479 . S
C34 C35 1.398 . S
C35 C0 1.382 . S
C35 H12 0.951 . S
C35 C34 1.398 . S
C36 C37 1.384 . S
C36 H49 0.947 . S
C36 C71 1.382 . S
C37 C36 1.384 . S
C37 C38 1.378 . S
C38 C37 1.378 . S
C38 C39 1.378 . S
C38 H50 0.952 . S
C39 C38 1.378 . S
C39 H51 0.950 . S
C39 C70 1.383 . S
H40 C59 0.947 . S
H41 C60 0.946 . S
H42 C62 0.953 . S
H43 C63 0.945 . S
H44 C65 0.952 . S
H45 C66 0.958 . S
H46 C68 0.950 . S
H47 C69 0.948 . S
H48 C71 0.951 . S
H49 C36 0.947 . S
H50 C38 0.952 . S
H51 C39 0.950 . S
N52 C55 1.382 . S
N52 C57 1.363 . S
N53 C55 1.371 . S
N53 C56 1.372 . S
N54 C56 1.361 . S
N54 C57 1.377 . S
C55 N52 1.382 . S
C55 N53 1.371 . S
C55 C58 1.480 . S
C56 N53 1.372 . S
C56 N54 1.361 . S
C56 C64 1.457 . S
C57 N52 1.363 . S
C57 N54 1.377 . S
C57 C70 1.479 . S
C58 C55 1.480 . S
C58 C59 1.383 . S
C58 C63 1.385 . S
C59 H40 0.947 . S
C59 C58 1.383 . S
C59 C60 1.388 . S
C60 H41 0.946 . S
C60 C59 1.388 . S
C60 C61 1.384 . S
C61 C60 1.384 . S
C61 C62 1.377 . S
C62 H42 0.953 . S
C62 C61 1.377 . S
C62 C63 1.369 . S
C63 H43 0.945 . S
C63 C58 1.385 . S
C63 C62 1.369 . S
C64 C56 1.457 . S
C64 C65 1.372 . S
C64 C69 1.364 . S
C65 H44 0.952 . S
C65 C64 1.372 . S
C65 C66 1.381 1_554 S
C66 H45 0.958 . S
C66 C65 1.381 1_556 S
C66 C67 1.384 1_556 S
C67 C66 1.384 1_554 S
C67 C68 1.372 . S
C68 H46 0.950 . S
C68 C67 1.372 . S
C68 C69 1.379 . S
C69 H47 0.948 . S
C69 C64 1.364 . S
C69 C68 1.379 . S
C70 C39 1.383 . S
C70 C57 1.479 . S
C70 C71 1.398 . S
C71 C36 1.382 . S
C71 H48 0.951 . S
C71 C70 1.398 . S
C72 C73 1.384 . S
C72 H85 0.947 . S
C72 C107 1.382 . S
C73 C72 1.384 . S
C73 C74 1.378 . S
C74 C73 1.378 . S
C74 C75 1.378 . S
C74 H86 0.952 . S
C75 C74 1.378 . S
C75 H87 0.950 . S
C75 C106 1.383 . S
H76 C95 0.947 . S
H77 C96 0.946 . S
H78 C98 0.953 . S
H79 C99 0.945 . S
H80 C101 0.952 . S
H81 C102 0.949 1_556 S
H82 C104 0.950 . S
H83 C105 0.948 . S
H84 C107 0.951 . S
H85 C72 0.947 . S
H86 C74 0.952 . S
H87 C75 0.950 . S
N88 C91 1.382 . S
N88 C93 1.363 . S
N89 C91 1.371 . S
N89 C92 1.372 . S
N90 C92 1.361 . S
N90 C93 1.377 . S
C91 N88 1.382 . S
C91 N89 1.371 . S
C91 C94 1.480 . S
C92 N89 1.372 . S
C92 N90 1.361 . S
C92 C100 1.457 . S
C93 N88 1.363 . S
C93 N90 1.377 . S
C93 C106 1.479 . S
C94 C91 1.480 . S
C94 C95 1.383 . S
C94 C99 1.385 . S
C95 H76 0.947 . S
C95 C94 1.383 . S
C95 C96 1.388 . S
C96 H77 0.946 . S
C96 C95 1.388 . S
C96 C97 1.384 . S
C97 C96 1.384 . S
C97 C98 1.377 . S
C98 H78 0.953 . S
C98 C97 1.377 . S
C98 C99 1.369 . S
C99 H79 0.945 . S
C99 C94 1.385 . S
C99 C98 1.369 . S
C100 C92 1.457 . S
C100 C101 1.372 . S
C100 C105 1.364 . S
C101 H80 0.952 . S
C101 C100 1.372 . S
C101 C102 1.389 . S
C102 H81 0.949 1_554 S
C102 C101 1.389 . S
C102 C103 1.387 . S
C103 C102 1.387 . S
C103 C104 1.372 . S
C104 H82 0.950 . S
C104 C103 1.372 . S
C104 C105 1.379 . S
C105 H83 0.948 . S
C105 C100 1.364 . S
C105 C104 1.379 . S
C106 C75 1.383 . S
C106 C93 1.479 . S
C106 C107 1.398 . S
C107 C72 1.382 . S
C107 H84 0.951 . S
C107 C106 1.398 . S
C108 C109 1.384 . S
C108 H121 0.947 . S
C108 C143 1.382 . S
C109 C108 1.384 . S
C109 C110 1.378 1_554 S
C110 C109 1.378 1_556 S
C110 C111 1.378 1_556 S
C110 H122 0.952 . S
C111 C110 1.378 1_554 S
C111 H123 0.950 . S
C111 C142 1.383 . S
H112 C131 0.947 . S
H113 C132 0.946 . S
H114 C134 0.953 . S
H115 C135 0.945 . S
H116 C137 0.952 . S
H117 C138 0.949 . S
H118 C140 0.950 . S
H119 C141 0.948 . S
H120 C143 0.951 . S
H121 C108 0.947 . S
H122 C110 0.952 . S
H123 C111 0.950 . S
N124 C127 1.382 . S
N124 C129 1.363 . S
N125 C127 1.371 . S
N125 C128 1.372 . S
N126 C128 1.361 . S
N126 C129 1.377 . S
C127 N124 1.382 . S
C127 N125 1.371 . S
C127 C130 1.480 . S
C128 N125 1.372 . S
C128 N126 1.361 . S
C128 C136 1.457 . S
C129 N124 1.363 . S
C129 N126 1.377 . S
C129 C142 1.479 . S
C130 C127 1.480 . S
C130 C131 1.383 . S
C130 C135 1.385 . S
C131 H112 0.947 . S
C131 C130 1.383 . S
C131 C132 1.388 . S
C132 H113 0.946 . S
C132 C131 1.388 . S
C132 C133 1.384 . S
C133 C132 1.384 . S
C133 C134 1.377 . S
C134 H114 0.953 . S
C134 C133 1.377 . S
C134 C135 1.369 . S
C135 H115 0.945 . S
C135 C130 1.385 . S
C135 C134 1.369 . S
C136 C128 1.457 . S
C136 C137 1.372 . S
C136 C141 1.364 . S
C137 H116 0.952 . S
C137 C136 1.372 . S
C137 C138 1.389 . S
C138 H117 0.949 . S
C138 C137 1.389 . S
C138 C139 1.387 . S
C139 C138 1.387 . S
C139 C140 1.372 . S
C140 H118 0.950 . S
C140 C139 1.372 . S
C140 C141 1.379 . S
C141 H119 0.948 . S
C141 C136 1.364 . S
C141 C140 1.379 . S
C142 C111 1.383 . S
C142 C129 1.479 . S
C142 C143 1.398 . S
C143 C108 1.382 . S
C143 H120 0.951 . S
C143 C142 1.398 . S
C144 C145 1.384 . S
C144 H157 0.947 . S
C144 C179 1.382 . S
C145 C144 1.384 . S
C145 C146 1.378 . S
C146 C145 1.378 . S
C146 C147 1.378 . S
C146 H158 0.952 . S
C147 C146 1.378 . S
C147 H159 0.950 . S
C147 C178 1.383 . S
H148 C167 0.947 1_556 S
H149 C168 0.946 1_556 S
H150 C170 0.953 . S
H151 C171 0.945 . S
H152 C173 0.952 . S
H153 C174 0.949 . S
H154 C176 0.950 . S
H155 C177 0.948 . S
H156 C179 0.951 . S
H157 C144 0.947 . S
H158 C146 0.952 . S
H159 C147 0.950 . S
N160 C163 1.382 1_556 S
N160 C165 1.363 . S
N161 C163 1.371 . S
N161 C164 1.372 . S
N162 C164 1.361 . S
N162 C165 1.377 1_554 S
C163 N160 1.382 1_554 S
C163 N161 1.371 . S
C163 C166 1.480 . S
C164 N161 1.372 . S
C164 N162 1.361 . S
C164 C172 1.457 . S
C165 N160 1.363 . S
C165 N162 1.377 1_556 S
C165 C178 1.479 . S
C166 C163 1.480 . S
C166 C167 1.383 . S
C166 C171 1.385 . S
C167 H148 0.947 1_554 S
C167 C166 1.383 . S
C167 C168 1.388 . S
C168 H149 0.946 1_554 S
C168 C167 1.388 . S
C168 C169 1.384 . S
C169 C168 1.384 . S
C169 C170 1.377 . S
C170 H150 0.953 . S
C170 C169 1.377 . S
C170 C171 1.369 . S
C171 H151 0.945 . S
C171 C166 1.385 . S
C171 C170 1.369 . S
C172 C164 1.457 . S
C172 C173 1.372 . S
C172 C177 1.364 . S
C173 H152 0.952 . S
C173 C172 1.372 . S
C173 C174 1.389 . S
C174 H153 0.949 . S
C174 C173 1.389 . S
C174 C175 1.387 . S
C175 C174 1.387 . S
C175 C176 1.372 . S
C176 H154 0.950 . S
C176 C175 1.372 . S
C176 C177 1.379 . S
C177 H155 0.948 . S
C177 C172 1.364 . S
C177 C176 1.379 . S
C178 C147 1.383 . S
C178 C165 1.479 . S
C178 C179 1.398 . S
C179 C144 1.382 . S
C179 H156 0.951 . S
C179 C178 1.398 . S
C180 C181 1.384 . S
C180 H193 0.947 . S
C180 C215 1.382 . S
C181 C180 1.384 . S
C181 C182 1.378 . S
C182 C181 1.378 . S
C182 C183 1.378 . S
C182 H194 0.952 . S
C183 C182 1.378 . S
C183 H195 0.950 . S
C183 C214 1.383 . S
H184 C203 0.947 1_556 S
H185 C204 0.946 1_556 S
H186 C206 0.953 . S
H187 C207 0.945 . S
H188 C209 0.952 . S
H189 C210 0.949 . S
H190 C212 0.950 . S
H191 C213 0.948 . S
H192 C215 0.951 . S
H193 C180 0.947 . S
H194 C182 0.952 . S
H195 C183 0.950 . S
N196 C199 1.382 1_556 S
N196 C201 1.363 . S
N197 C199 1.371 . S
N197 C200 1.372 . S
N198 C200 1.361 . S
N198 C201 1.377 1_554 S
C199 N196 1.382 1_554 S
C199 N197 1.371 . S
C199 C202 1.480 . S
C200 N197 1.372 . S
C200 N198 1.361 . S
C200 C208 1.457 . S
C201 N196 1.363 . S
C201 N198 1.377 1_556 S
C201 C214 1.479 . S
C202 C199 1.480 . S
C202 C203 1.383 . S
C202 C207 1.385 . S
C203 H184 0.947 1_554 S
C203 C202 1.383 . S
C203 C204 1.388 . S
C204 H185 0.946 1_554 S
C204 C203 1.388 . S
C204 C205 1.384 . S
C205 C204 1.384 . S
C205 C206 1.377 . S
C206 H186 0.953 . S
C206 C205 1.377 . S
C206 C207 1.369 . S
C207 H187 0.945 . S
C207 C202 1.385 . S
C207 C206 1.369 . S
C208 C200 1.457 . S
C208 C209 1.372 . S
C208 C213 1.364 . S
C209 H188 0.952 . S
C209 C208 1.372 . S
C209 C210 1.389 . S
C210 H189 0.949 . S
C210 C209 1.389 . S
C210 C211 1.387 . S
C211 C210 1.387 . S
C211 C212 1.372 . S
C212 H190 0.950 . S
C212 C211 1.372 . S
C212 C213 1.379 . S
C213 H191 0.948 . S
C213 C208 1.364 . S
C213 C212 1.379 . S
C214 C183 1.383 . S
C214 C201 1.479 . S
C214 C215 1.398 . S
C215 C180 1.382 . S
C215 H192 0.951 . S
C215 C214 1.398 . S
C216 C217 1.384 . S
C216 H229 0.947 . S
C216 C251 1.382 . S
C217 C216 1.384 . S
C217 C218 1.378 . S
C218 C217 1.378 . S
C218 C219 1.378 . S
C218 H230 0.952 . S
C219 C218 1.378 . S
C219 H231 0.950 . S
C219 C250 1.383 . S
H220 C239 0.934 1_556 S
H221 C240 0.946 1_556 S
H222 C242 0.953 . S
H223 C243 0.945 . S
H224 C245 0.952 . S
H225 C246 0.949 . S
H226 C248 0.950 . S
H227 C249 0.948 . S
H228 C251 0.951 . S
H229 C216 0.947 . S
H230 C218 0.952 . S
H231 C219 0.950 . S
N232 C235 1.382 1_556 S
N232 C237 1.363 . S
N233 C235 1.371 . S
N233 C236 1.372 . S
N234 C236 1.361 . S
N234 C237 1.377 1_554 S
C235 N232 1.382 1_554 S
C235 N233 1.371 . S
C235 C238 1.480 . S
C236 N233 1.372 . S
C236 N234 1.361 . S
C236 C244 1.457 . S
C237 N232 1.363 . S
C237 N234 1.377 1_556 S
C237 C250 1.479 . S
C238 C235 1.480 . S
C238 C239 1.393 . S
C238 C243 1.385 . S
C239 H220 0.934 1_554 S
C239 C238 1.393 . S
C239 C240 1.392 . S
C240 H221 0.946 1_554 S
C240 C239 1.392 . S
C240 C241 1.384 . S
C241 C240 1.384 . S
C241 C242 1.377 . S
C242 H222 0.953 . S
C242 C241 1.377 . S
C242 C243 1.369 . S
C243 H223 0.945 . S
C243 C238 1.385 . S
C243 C242 1.369 . S
C244 C236 1.457 . S
C244 C245 1.372 . S
C244 C249 1.364 . S
C245 H224 0.952 . S
C245 C244 1.372 . S
C245 C246 1.389 . S
C246 H225 0.949 . S
C246 C245 1.389 . S
C246 C247 1.387 . S
C247 C246 1.387 . S
C247 C248 1.372 . S
C248 H226 0.950 . S
C248 C247 1.372 . S
C248 C249 1.379 . S
C249 H227 0.948 . S
C249 C244 1.364 . S
C249 C248 1.379 . S
C250 C219 1.383 . S
C250 C237 1.479 . S
C250 C251 1.398 . S
C251 C216 1.382 . S
C251 H228 0.951 . S
C251 C250 1.398 . S
C252 C253 1.384 . S
C252 H265 0.947 . S
C252 C287 1.382 . S
C253 C252 1.384 . S
C253 C254 1.378 . S
C254 C253 1.378 . S
C254 C255 1.378 . S
C254 H266 0.952 . S
C255 C254 1.378 . S
C255 H267 0.950 . S
C255 C286 1.383 . S
H256 C275 0.947 . S
H257 C276 0.946 . S
H258 C278 0.953 1_556 S
H259 C279 0.945 1_556 S
H260 C281 0.952 . S
H261 C282 0.949 . S
H262 C284 0.950 . S
H263 C285 0.948 . S
H264 C287 0.951 . S
H265 C252 0.947 . S
H266 C254 0.952 . S
H267 C255 0.950 . S
N268 C271 1.382 . S
N268 C273 1.363 . S
N269 C271 1.371 1_556 S
N269 C272 1.372 . S
N270 C272 1.361 1_554 S
N270 C273 1.377 . S
C271 N268 1.382 . S
C271 N269 1.371 1_554 S
C271 C274 1.480 . S
C272 N269 1.372 . S
C272 N270 1.361 1_556 S
C272 C280 1.457 . S
C273 N268 1.363 . S
C273 N270 1.377 . S
C273 C286 1.479 . S
C274 C271 1.480 . S
C274 C275 1.383 . S
C274 C279 1.385 . S
C275 H256 0.947 . S
C275 C274 1.383 . S
C275 C276 1.388 . S
C276 H257 0.946 . S
C276 C275 1.388 . S
C276 C277 1.384 . S
C277 C276 1.384 . S
C277 C278 1.377 . S
C278 H258 0.953 1_554 S
C278 C277 1.377 . S
C278 C279 1.369 . S
C279 H259 0.945 1_554 S
C279 C274 1.385 . S
C279 C278 1.369 . S
C280 C272 1.457 . S
C280 C281 1.372 . S
C280 C285 1.364 . S
C281 H260 0.952 . S
C281 C280 1.372 . S
C281 C282 1.389 . S
C282 H261 0.949 . S
C282 C281 1.389 . S
C282 C283 1.387 . S
C283 C282 1.387 . S
C283 C284 1.372 . S
C284 H262 0.950 . S
C284 C283 1.372 . S
C284 C285 1.379 . S
C285 H263 0.948 . S
C285 C280 1.364 . S
C285 C284 1.379 . S
C286 C255 1.383 . S
C286 C273 1.479 . S
C286 C287 1.398 . S
C287 C252 1.382 . S
C287 H264 0.951 . S
C287 C286 1.398 . S
Gd288 N319 2.662 1_545 S
Gd288 N325 2.601 . S
Gd288 O332 2.545 . S
Gd288 O333 2.606 1_655 S
Gd288 O335 2.429 . S
Gd288 O336 2.545 1_655 S
Gd288 O337 2.412 . S
Gd288 O339 2.362 1_545 S
Gd288 O340 2.324 1_655 S
Gd288 C347 2.828 . S
Gd289 N298 2.661 1_565 S
Gd289 N302 2.601 . S
Gd289 O333 2.362 1_565 S
Gd289 O334 2.324 1_455 S
Gd289 O338 2.545 . S
Gd289 O339 2.606 1_455 S
Gd289 O341 2.429 . S
Gd289 O342 2.545 . S
Gd289 O343 2.412 . S
Gd289 C356 2.828 . S
C290 C293 1.417 . S
C290 C295 1.431 . S
C290 C296 1.412 . S
C291 C294 1.437 . S
C291 C295 1.317 . S
C291 H310 0.929 . S
C292 C293 1.426 . S
C292 C294 1.413 . S
C292 N302 1.359 1_545 S
C293 C290 1.417 . S
C293 C292 1.426 . S
C293 N298 1.350 . S
C294 C291 1.437 . S
C294 C292 1.413 . S
C294 C304 1.376 1_545 S
C295 C290 1.431 . S
C295 C291 1.317 . S
C295 H306 0.930 . S
C296 C290 1.412 . S
C296 C297 1.355 . S
C296 H308 0.930 . S
C297 C296 1.355 . S
C297 C299 1.402 . S
C297 H309 0.930 1_455 S
N298 Gd289 2.661 1_545 S
N298 C293 1.350 . S
N298 C299 1.307 . S
C299 C297 1.402 . S
C299 N298 1.307 . S
C299 H300 0.930 1_455 S
H300 C299 0.930 1_655 S
C301 N302 1.334 . S
C301 C303 1.394 . S
C301 H305 0.930 . S
N302 Gd289 2.601 . S
N302 C292 1.359 1_565 S
N302 C301 1.334 . S
C303 C301 1.394 . S
C303 C304 1.378 . S
C303 H315 0.930 . S
C304 C294 1.376 1_565 S
C304 C303 1.378 . S
C304 H316 0.926 1_565 S
H305 C301 0.930 . S
H306 C295 0.930 . S
H307 C324 0.930 . S
H308 C296 0.930 . S
H309 C297 0.930 1_655 S
H310 C291 0.929 . S
H311 C329 0.930 . S
H312 C320 0.930 . S
H313 C321 0.948 . S
H314 C345 0.929 . S
H315 C303 0.930 . S
H316 C304 0.926 1_545 S
H317 C346 0.930 . S
H318 C327 0.930 . S
N319 Gd288 2.662 1_565 S
N319 C323 1.350 . S
N319 C324 1.306 1_655 S
C320 H312 0.930 . S
C320 C321 1.336 1_655 S
C320 C322 1.412 . S
C321 H313 0.948 . S
C321 C320 1.336 1_455 S
C321 C324 1.403 . S
C322 C320 1.412 . S
C322 C323 1.417 . S
C322 C346 1.431 . S
C323 N319 1.350 . S
C323 C322 1.417 . S
C323 C326 1.426 1_565 S
C324 H307 0.930 . S
C324 N319 1.306 1_455 S
C324 C321 1.403 . S
N325 Gd288 2.601 . S
N325 C326 1.359 . S
N325 C329 1.334 . S
C326 C323 1.426 1_545 S
C326 N325 1.359 . S
C326 C330 1.413 . S
C327 H318 0.930 . S
C327 C328 1.359 . S
C327 C329 1.394 . S
C328 C327 1.359 . S
C328 C330 1.391 . S
C328 H331 0.929 . S
C329 H311 0.930 . S
C329 N325 1.334 . S
C329 C327 1.394 . S
C330 C326 1.413 . S
C330 C328 1.391 . S
C330 C345 1.437 1_545 S
H331 C328 0.929 . S
O332 Gd288 2.545 . S
O332 C347 1.258 . S
O333 Gd288 2.606 1_455 S
O333 Gd289 2.362 1_545 S
O333 C344 1.284 . S
O334 Gd289 2.324 1_655 S
O334 C354 1.254 1_565 S
O335 Gd288 2.429 . S
O335 C354 1.268 . S
O336 Gd288 2.545 1_455 S
O336 C344 1.250 . S
O337 Gd288 2.412 . S
O337 C347 1.252 . S
O338 Gd289 2.545 . S
O338 C356 1.258 . S
O339 Gd288 2.362 1_565 S
O339 Gd289 2.606 1_655 S
O339 C355 1.284 . S
O340 Gd288 2.324 1_455 S
O340 C363 1.254 . S
O341 Gd289 2.429 . S
O341 C363 1.268 1_565 S
O342 Gd289 2.545 . S
O342 C355 1.250 1_455 S
O343 Gd289 2.412 . S
O343 C356 1.252 . S
C344 O333 1.284 . S
C344 O336 1.250 . S
C345 H314 0.929 . S
C345 C330 1.437 1_565 S
C345 C346 1.317 . S
C346 H317 0.930 . S
C346 C322 1.431 . S
C346 C345 1.317 . S
C347 Gd288 2.828 . S
C347 O332 1.258 . S
C347 O337 1.252 . S
C347 C348 1.497 . S
C348 C347 1.497 . S
C348 C349 1.395 . S
C348 C350 1.380 . S
C349 C348 1.395 . S
C349 C352 1.398 . S
C349 H364 0.930 . S
C350 C348 1.380 . S
C350 C351 1.391 . S
C350 H365 0.930 1_655 S
C351 C350 1.391 . S
C351 C353 1.387 . S
C352 C349 1.398 . S
C352 C353 1.380 . S
C352 H366 0.930 . S
C353 C351 1.387 . S
C353 C352 1.380 . S
C353 H367 0.930 . S
C354 O334 1.254 1_545 S
C354 O335 1.268 . S
C355 O339 1.284 . S
C355 O342 1.250 1_655 S
C356 Gd289 2.828 . S
C356 O338 1.258 . S
C356 O343 1.252 . S
C356 C357 1.497 . S
C357 C356 1.497 . S
C357 C358 1.395 . S
C357 C359 1.380 . S
C358 C357 1.395 . S
C358 C361 1.398 . S
C358 H368 0.930 . S
C359 C357 1.380 . S
C359 C360 1.391 . S
C359 H369 0.912 1_455 S
C360 C359 1.391 . S
C360 C362 1.387 . S
C361 C358 1.398 . S
C361 C362 1.380 . S
C361 H370 0.930 . S
C362 C360 1.387 . S
C362 C361 1.380 . S
C362 H371 0.930 . S
C363 O340 1.254 . S
C363 O341 1.268 1_545 S
H364 C349 0.930 . S
H365 C350 0.930 1_455 S
H366 C352 0.930 . S
H367 C353 0.930 . S
H368 C358 0.930 . S
H369 C359 0.912 1_655 S
H370 C361 0.930 . S
H371 C362 0.930 . S
Gd372 N403 2.661 . S
Gd372 N409 2.601 . S
Gd372 O416 2.545 . S
Gd372 O417 2.606 1_565 S
Gd372 O419 2.429 . S
Gd372 O420 2.545 1_565 S
Gd372 O421 2.412 . S
Gd372 O423 2.362 . S
Gd372 O424 2.324 1_565 S
Gd372 C431 2.828 . S
Gd373 N382 2.661 . S
Gd373 N386 2.601 . S
Gd373 O417 2.362 . S
Gd373 O418 2.324 1_545 S
Gd373 O422 2.545 . S
Gd373 O423 2.606 1_545 S
Gd373 O425 2.429 . S
Gd373 O426 2.545 . S
Gd373 O427 2.412 . S
Gd373 C440 2.828 . S
C374 C377 1.417 . S
C374 C379 1.431 . S
C374 C380 1.412 . S
C375 C378 1.437 . S
C375 C379 1.317 . S
C375 H394 0.929 . S
C376 C377 1.426 . S
C376 C378 1.413 . S
C376 N386 1.359 . S
C377 C374 1.417 . S
C377 C376 1.426 . S
C377 N382 1.350 . S
C378 C375 1.437 . S
C378 C376 1.413 . S
C378 C388 1.391 . S
C379 C374 1.431 . S
C379 C375 1.317 . S
C379 H390 0.930 . S
C380 C374 1.412 . S
C380 C381 1.355 . S
C380 H392 0.930 . S
C381 C380 1.355 . S
C381 C383 1.402 . S
C381 H393 0.930 1_545 S
N382 Gd373 2.661 . S
N382 C377 1.350 . S
N382 C383 1.307 . S
C383 C381 1.402 . S
C383 N382 1.307 . S
C383 H384 0.930 1_545 S
H384 C383 0.930 1_565 S
C385 N386 1.334 . S
C385 C387 1.394 . S
C385 H389 0.930 . S
N386 Gd373 2.601 . S
N386 C376 1.359 . S
N386 C385 1.334 . S
C387 C385 1.394 . S
C387 C388 1.359 . S
C387 H399 0.930 . S
C388 C378 1.391 . S
C388 C387 1.359 . S
C388 H400 0.929 . S
H389 C385 0.930 . S
H390 C379 0.930 . S
H391 C408 0.930 . S
H392 C380 0.930 . S
H393 C381 0.930 1_565 S
H394 C375 0.929 . S
H395 C413 0.930 . S
H396 C404 0.930 . S
H397 C405 0.930 . S
H398 C429 0.929 . S
H399 C387 0.930 . S
H400 C388 0.929 . S
H401 C430 0.930 . S
H402 C411 0.930 . S
N403 Gd372 2.661 . S
N403 C407 1.350 . S
N403 C408 1.307 1_565 S
C404 H396 0.930 . S
C404 C405 1.355 1_565 S
C404 C406 1.412 . S
C405 H397 0.930 . S
C405 C404 1.355 1_545 S
C405 C408 1.402 . S
C406 C404 1.412 . S
C406 C407 1.417 . S
C406 C430 1.431 . S
C407 N403 1.350 . S
C407 C406 1.417 . S
C407 C410 1.426 . S
C408 H391 0.930 . S
C408 N403 1.307 1_545 S
C408 C405 1.402 . S
N409 Gd372 2.601 . S
N409 C410 1.359 . S
N409 C413 1.334 . S
C410 C407 1.426 . S
C410 N409 1.359 . S
C410 C414 1.413 . S
C411 H402 0.930 . S
C411 C412 1.359 . S
C411 C413 1.394 . S
C412 C411 1.359 . S
C412 C414 1.391 . S
C412 H415 0.929 . S
C413 H395 0.930 . S
C413 N409 1.334 . S
C413 C411 1.394 . S
C414 C410 1.413 . S
C414 C412 1.391 . S
C414 C429 1.437 . S
H415 C412 0.929 . S
O416 Gd372 2.545 . S
O416 C431 1.258 . S
O417 Gd372 2.606 1_545 S
O417 Gd373 2.362 . S
O417 C428 1.284 . S
O418 Gd373 2.324 1_565 S
O418 C438 1.254 . S
O419 Gd372 2.429 . S
O419 C438 1.268 . S
O420 Gd372 2.545 1_545 S
O420 C428 1.250 . S
O421 Gd372 2.412 . S
O421 C431 1.252 . S
O422 Gd373 2.545 . S
O422 C440 1.258 . S
O423 Gd372 2.362 . S
O423 Gd373 2.606 1_565 S
O423 C439 1.284 . S
O424 Gd372 2.324 1_545 S
O424 C447 1.254 . S
O425 Gd373 2.429 . S
O425 C447 1.268 . S
O426 Gd373 2.545 . S
O426 C439 1.250 1_545 S
O427 Gd373 2.412 . S
O427 C440 1.252 . S
C428 O417 1.284 . S
C428 O420 1.250 . S
C429 H398 0.929 . S
C429 C414 1.437 . S
C429 C430 1.317 . S
C430 H401 0.930 . S
C430 C406 1.431 . S
C430 C429 1.317 . S
C431 Gd372 2.828 . S
C431 O416 1.258 . S
C431 O421 1.252 . S
C431 C432 1.497 . S
C432 C431 1.497 . S
C432 C433 1.395 . S
C432 C434 1.380 . S
C433 C432 1.395 . S
C433 C436 1.398 . S
C433 H448 0.930 . S
C434 C432 1.380 . S
C434 C435 1.391 . S
C434 H449 0.930 1_565 S
C435 C434 1.391 . S
C435 C437 1.387 . S
C436 C433 1.398 . S
C436 C437 1.380 . S
C436 H450 0.930 . S
C437 C435 1.387 . S
C437 C436 1.380 . S
C437 H451 0.930 . S
C438 O418 1.254 . S
C438 O419 1.268 . S
C439 O423 1.284 . S
C439 O426 1.250 1_565 S
C440 Gd373 2.828 . S
C440 O422 1.258 . S
C440 O427 1.252 . S
C440 C441 1.497 . S
C441 C440 1.497 . S
C441 C442 1.395 . S
C441 C443 1.380 . S
C442 C441 1.395 . S
C442 C445 1.398 . S
C442 H452 0.930 . S
C443 C441 1.380 . S
C443 C444 1.391 . S
C443 H453 0.930 . S
C444 C443 1.391 . S
C444 C446 1.387 . S
C445 C442 1.398 . S
C445 C446 1.380 . S
C445 H454 0.930 . S
C446 C444 1.387 . S
C446 C445 1.380 . S
C446 H455 0.930 . S
C447 O424 1.254 . S
C447 O425 1.268 . S
H448 C433 0.930 . S
H449 C434 0.930 1_545 S
H450 C436 0.930 . S
H451 C437 0.930 . S
H452 C442 0.930 . S
H453 C443 0.930 . S
H454 C445 0.930 . S
H455 C446 0.930 . S
Gd456 N487 2.661 . S
Gd456 N493 2.601 . S
Gd456 O500 2.545 . S
Gd456 O501 2.606 . S
Gd456 O503 2.429 . S
Gd456 O504 2.545 . S
Gd456 O505 2.412 . S
Gd456 O507 2.362 . S
Gd456 O508 2.324 . S
Gd456 C515 2.828 . S
Gd457 N466 2.661 . S
Gd457 N470 2.601 . S
Gd457 O501 2.362 . S
Gd457 O502 2.324 . S
Gd457 O506 2.545 . S
Gd457 O507 2.606 . S
Gd457 O509 2.429 . S
Gd457 O510 2.545 . S
Gd457 O511 2.412 . S
Gd457 C524 2.828 . S
C458 C461 1.417 . S
C458 C463 1.431 . S
C458 C464 1.412 . S
C459 C462 1.437 . S
C459 C463 1.317 . S
C459 H478 0.929 . S
C460 C461 1.426 . S
C460 C462 1.413 . S
C460 N470 1.359 . S
C461 C458 1.417 . S
C461 C460 1.426 . S
C461 N466 1.350 . S
C462 C459 1.437 . S
C462 C460 1.413 . S
C462 C472 1.391 . S
C463 C458 1.431 . S
C463 C459 1.317 . S
C463 H474 0.930 . S
C464 C458 1.412 . S
C464 C465 1.355 . S
C464 H476 0.930 . S
C465 C464 1.355 . S
C465 C467 1.402 . S
C465 H477 0.930 . S
N466 Gd457 2.661 . S
N466 C461 1.350 . S
N466 C467 1.307 . S
C467 C465 1.402 . S
C467 N466 1.307 . S
C467 H468 0.930 . S
H468 C467 0.930 . S
C469 N470 1.334 . S
C469 C471 1.394 . S
C469 H473 0.930 . S
N470 Gd457 2.601 . S
N470 C460 1.359 . S
N470 C469 1.334 . S
C471 C469 1.394 . S
C471 C472 1.359 . S
C471 H483 0.930 . S
C472 C462 1.391 . S
C472 C471 1.359 . S
C472 H484 0.929 . S
H473 C469 0.930 . S
H474 C463 0.930 . S
H475 C492 0.930 . S
H476 C464 0.930 . S
H477 C465 0.930 . S
H478 C459 0.929 . S
H479 C497 0.930 . S
H480 C488 0.930 . S
H481 C489 0.930 . S
H482 C513 0.929 . S
H483 C471 0.930 . S
H484 C472 0.929 . S
H485 C514 0.930 . S
H486 C495 0.930 . S
N487 Gd456 2.661 . S
N487 C491 1.350 . S
N487 C492 1.307 . S
C488 H480 0.930 . S
C488 C489 1.355 . S
C488 C490 1.412 . S
C489 H481 0.930 . S
C489 C488 1.355 . S
C489 C492 1.402 . S
C490 C488 1.412 . S
C490 C491 1.417 . S
C490 C514 1.431 . S
C491 N487 1.350 . S
C491 C490 1.417 . S
C491 C494 1.426 . S
C492 H475 0.930 . S
C492 N487 1.307 . S
C492 C489 1.402 . S
N493 Gd456 2.601 . S
N493 C494 1.359 . S
N493 C497 1.334 . S
C494 C491 1.426 . S
C494 N493 1.359 . S
C494 C498 1.413 . S
C495 H486 0.930 . S
C495 C496 1.359 . S
C495 C497 1.394 . S
C496 C495 1.359 . S
C496 C498 1.391 . S
C496 H499 0.929 . S
C497 H479 0.930 . S
C497 N493 1.334 . S
C497 C495 1.394 . S
C498 C494 1.413 . S
C498 C496 1.391 . S
C498 C513 1.437 . S
H499 C496 0.929 . S
O500 Gd456 2.545 . S
O500 C515 1.258 . S
O501 Gd456 2.606 . S
O501 Gd457 2.362 . S
O501 C512 1.284 . S
O502 Gd457 2.324 . S
O502 C522 1.254 . S
O503 Gd456 2.429 . S
O503 C522 1.268 . S
O504 Gd456 2.545 . S
O504 C512 1.250 . S
O505 Gd456 2.412 . S
O505 C515 1.252 . S
O506 Gd457 2.545 . S
O506 C524 1.258 . S
O507 Gd456 2.362 . S
O507 Gd457 2.606 . S
O507 C523 1.284 . S
O508 Gd456 2.324 . S
O508 C531 1.254 . S
O509 Gd457 2.429 . S
O509 C531 1.268 . S
O510 Gd457 2.545 . S
O510 C523 1.250 . S
O511 Gd457 2.412 . S
O511 C524 1.252 . S
C512 O501 1.284 . S
C512 O504 1.250 . S
C513 H482 0.929 . S
C513 C498 1.437 . S
C513 C514 1.317 . S
C514 H485 0.930 . S
C514 C490 1.431 . S
C514 C513 1.317 . S
C515 Gd456 2.828 . S
C515 O500 1.258 . S
C515 O505 1.252 . S
C515 C516 1.497 . S
C516 C515 1.497 . S
C516 C517 1.395 . S
C516 C518 1.380 . S
C517 C516 1.395 . S
C517 C520 1.398 . S
C517 H532 0.930 . S
C518 C516 1.380 . S
C518 C519 1.391 . S
C518 H533 0.930 . S
C519 C518 1.391 . S
C519 C521 1.387 . S
C520 C517 1.398 . S
C520 C521 1.380 . S
C520 H534 0.930 . S
C521 C519 1.387 . S
C521 C520 1.380 . S
C521 H535 0.930 . S
C522 O502 1.254 . S
C522 O503 1.268 . S
C523 O507 1.284 . S
C523 O510 1.250 . S
C524 Gd457 2.828 . S
C524 O506 1.258 . S
C524 O511 1.252 . S
C524 C525 1.497 . S
C525 C524 1.497 . S
C525 C526 1.395 . S
C525 C527 1.380 . S
C526 C525 1.395 . S
C526 C529 1.398 . S
C526 H536 0.930 . S
C527 C525 1.380 . S
C527 C528 1.391 . S
C527 H537 0.930 . S
C528 C527 1.391 . S
C528 C530 1.387 . S
C529 C526 1.398 . S
C529 C530 1.380 . S
C529 H538 0.930 . S
C530 C528 1.387 . S
C530 C529 1.380 . S
C530 H539 0.930 . S
C531 O508 1.254 . S
C531 O509 1.268 . S
H532 C517 0.930 . S
H533 C518 0.930 . S
H534 C520 0.930 . S
H535 C521 0.930 . S
H536 C526 0.930 . S
H537 C527 0.930 . S
H538 C529 0.930 . S
H539 C530 0.930 . S
Gd540 N571 2.661 . S
Gd540 N577 2.601 . S
Gd540 O584 2.545 . S
Gd540 O585 2.600 1_655 S
Gd540 O587 2.429 1_655 S
Gd540 O588 2.545 . S
Gd540 O589 2.412 . S
Gd540 O591 2.362 1_655 S
Gd540 O592 2.324 . S
Gd540 C599 2.828 . S
Gd541 N550 2.661 . S
Gd541 N554 2.601 . S
Gd541 O585 2.371 . S
Gd541 O586 2.324 . S
Gd541 O590 2.545 . S
Gd541 O591 2.606 . S
Gd541 O593 2.429 1_455 S
Gd541 O594 2.545 . S
Gd541 O595 2.412 . S
Gd541 C608 2.828 . S
C542 C545 1.417 . S
C542 C547 1.431 . S
C542 C548 1.412 . S
C543 C546 1.437 . S
C543 C547 1.317 . S
C543 H562 0.929 . S
C544 C545 1.426 . S
C544 C546 1.413 . S
C544 N554 1.359 . S
C545 C542 1.417 . S
C545 C544 1.426 . S
C545 N550 1.350 . S
C546 C543 1.437 . S
C546 C544 1.413 . S
C546 C556 1.391 . S
C547 C542 1.431 . S
C547 C543 1.317 . S
C547 H558 0.930 . S
C548 C542 1.412 . S
C548 C549 1.355 . S
C548 H560 0.930 . S
C549 C548 1.355 . S
C549 C551 1.402 . S
C549 H561 0.930 . S
N550 Gd541 2.661 . S
N550 C545 1.350 . S
N550 C551 1.307 . S
C551 C549 1.402 . S
C551 N550 1.307 . S
C551 H552 0.930 . S
H552 C551 0.930 . S
C553 N554 1.334 . S
C553 C555 1.398 . S
C553 H557 0.930 1_455 S
N554 Gd541 2.601 . S
N554 C544 1.359 . S
N554 C553 1.334 . S
C555 C553 1.398 . S
C555 C556 1.378 . S
C555 H567 0.909 1_455 S
C556 C546 1.391 . S
C556 C555 1.378 . S
C556 H568 0.929 . S
H557 C553 0.930 1_655 S
H558 C547 0.930 . S
H559 C576 0.930 . S
H560 C548 0.930 . S
H561 C549 0.930 . S
H562 C543 0.929 . S
H563 C581 0.930 . S
H564 C572 0.930 . S
H565 C573 0.930 . S
H566 C597 0.929 . S
H567 C555 0.909 1_655 S
H568 C556 0.929 . S
H569 C598 0.930 . S
H570 C579 0.930 . S
N571 Gd540 2.661 . S
N571 C575 1.350 . S
N571 C576 1.307 . S
C572 H564 0.930 . S
C572 C573 1.355 . S
C572 C574 1.412 . S
C573 H565 0.930 . S
C573 C572 1.355 . S
C573 C576 1.402 . S
C574 C572 1.412 . S
C574 C575 1.417 . S
C574 C598 1.431 . S
C575 N571 1.350 . S
C575 C574 1.417 . S
C575 C578 1.426 . S
C576 H559 0.930 . S
C576 N571 1.307 . S
C576 C573 1.402 . S
N577 Gd540 2.601 . S
N577 C578 1.359 . S
N577 C581 1.334 1_655 S
C578 C575 1.426 . S
C578 N577 1.359 . S
C578 C582 1.413 . S
C579 H570 0.930 . S
C579 C580 1.359 1_455 S
C579 C581 1.394 . S
C580 C579 1.359 1_655 S
C580 C582 1.391 . S
C580 H583 0.929 . S
C581 H563 0.930 . S
C581 N577 1.334 1_455 S
C581 C579 1.394 . S
C582 C578 1.413 . S
C582 C580 1.391 . S
C582 C597 1.437 . S
H583 C580 0.929 . S
O584 Gd540 2.545 . S
O584 C599 1.258 . S
O585 Gd540 2.600 1_455 S
O585 Gd541 2.371 . S
O585 C596 1.278 1_455 S
O586 Gd541 2.324 . S
O586 C606 1.254 . S
O587 Gd540 2.429 1_455 S
O587 C606 1.268 . S
O588 Gd540 2.545 . S
O588 C596 1.250 . S
O589 Gd540 2.412 . S
O589 C599 1.252 . S
O590 Gd541 2.545 . S
O590 C608 1.258 . S
O591 Gd540 2.362 1_455 S
O591 Gd541 2.606 . S
O591 C607 1.284 . S
O592 Gd540 2.324 . S
O592 C615 1.254 . S
O593 Gd541 2.429 1_655 S
O593 C615 1.268 . S
O594 Gd541 2.545 . S
O594 C607 1.250 . S
O595 Gd541 2.412 . S
O595 C608 1.252 . S
C596 O585 1.278 1_655 S
C596 O588 1.250 . S
C597 H566 0.929 . S
C597 C582 1.437 . S
C597 C598 1.317 . S
C598 H569 0.930 . S
C598 C574 1.431 . S
C598 C597 1.317 . S
C599 Gd540 2.828 . S
C599 O584 1.258 . S
C599 O589 1.252 . S
C599 C600 1.497 . S
C600 C599 1.497 . S
C600 C601 1.395 . S
C600 C602 1.380 . S
C601 C600 1.395 . S
C601 C604 1.398 . S
C601 H616 0.930 . S
C602 C600 1.380 . S
C602 C603 1.391 . S
C602 H617 0.930 . S
C603 C602 1.391 . S
C603 C605 1.387 . S
C604 C601 1.398 . S
C604 C605 1.380 . S
C604 H618 0.930 . S
C605 C603 1.387 . S
C605 C604 1.380 . S
C605 H619 0.930 . S
C606 O586 1.254 . S
C606 O587 1.268 . S
C607 O591 1.284 . S
C607 O594 1.250 . S
C608 Gd541 2.828 . S
C608 O590 1.258 . S
C608 O595 1.252 . S
C608 C609 1.497 . S
C609 C608 1.497 . S
C609 C610 1.395 . S
C609 C611 1.380 . S
C610 C609 1.395 . S
C610 C613 1.398 . S
C610 H620 0.930 . S
C611 C609 1.380 . S
C611 C612 1.391 . S
C611 H621 0.930 . S
C612 C611 1.391 . S
C612 C614 1.387 . S
C613 C610 1.398 . S
C613 C614 1.380 . S
C613 H622 0.930 . S
C614 C612 1.387 . S
C614 C613 1.380 . S
C614 H623 0.930 . S
C615 O592 1.254 . S
C615 O593 1.268 . S
H616 C601 0.930 . S
H617 C602 0.930 . S
H618 C604 0.930 . S
H619 C605 0.930 . S
H620 C610 0.930 . S
H621 C611 0.930 . S
H622 C613 0.930 . S
H623 C614 0.930 . S
C624 C625 1.391 . S
C624 C626 1.394 . S
C624 H640 0.931 . S
C625 C624 1.391 . S
C625 C629 1.376 . S
C626 C624 1.394 . S
C626 C627 1.369 . S
C626 C630 1.531 . S
C627 C626 1.369 . S
C627 C628 1.410 . S
C627 C635 1.503 . S
C628 C627 1.410 . S
C628 C629 1.392 . S
C628 C631 1.511 . S
C629 C625 1.376 . S
C629 C628 1.392 . S
C629 H641 0.929 . S
C630 C626 1.531 . S
C630 H642 0.960 . S
C630 H643 0.962 . S
C630 H644 0.960 . S
C631 C628 1.511 . S
C631 H645 0.961 . S
C631 H646 0.961 . S
C631 H647 0.961 . S
C632 C633 1.370 . S
C632 C634 1.363 . S
C632 H648 0.931 . S
C633 C632 1.370 . S
C633 C637 1.408 . S
C634 C632 1.363 . S
C634 C635 1.370 . S
C634 C638 1.524 . S
C635 C627 1.503 . S
C635 C634 1.370 . S
C635 C636 1.403 . S
C636 C635 1.403 . S
C636 C637 1.404 . S
C636 C639 1.539 1_545 S
C637 C633 1.408 . S
C637 C636 1.404 . S
C637 H649 0.930 1_545 S
C638 C634 1.524 . S
C638 H650 0.956 . S
C638 H651 0.961 . S
C638 H652 0.961 . S
C639 C636 1.539 1_565 S
C639 H653 0.958 . S
C639 H654 0.961 . S
C639 H655 0.960 1_565 S
H640 C624 0.931 . S
H641 C629 0.929 . S
H642 C630 0.960 . S
H643 C630 0.962 . S
H644 C630 0.960 . S
H645 C631 0.961 . S
H646 C631 0.961 . S
H647 C631 0.961 . S
H648 C632 0.931 . S
H649 C637 0.930 1_565 S
H650 C638 0.956 . S
H651 C638 0.961 . S
H652 C638 0.961 . S
H653 C639 0.958 . S
H654 C639 0.961 . S
H655 C639 0.960 1_545 S
C656 C657 1.391 . S
C656 C658 1.394 . S
C656 H672 0.931 . S
C657 C656 1.391 . S
C657 C661 1.376 . S
C658 C656 1.394 . S
C658 C659 1.369 . S
C658 C662 1.531 . S
C659 C658 1.369 . S
C659 C660 1.410 . S
C659 C667 1.503 . S
C660 C659 1.410 . S
C660 C661 1.392 . S
C660 C663 1.511 . S
C661 C657 1.376 . S
C661 C660 1.392 . S
C661 H673 0.929 . S
C662 C658 1.531 . S
C662 H674 0.960 . S
C662 H675 0.962 . S
C662 H676 0.960 . S
C663 C660 1.511 . S
C663 H677 0.961 . S
C663 H678 0.961 . S
C663 H679 0.961 . S
C664 C665 1.370 . S
C664 C666 1.363 . S
C664 H680 0.931 . S
C665 C664 1.370 . S
C665 C669 1.408 . S
C666 C664 1.363 . S
C666 C667 1.370 . S
C666 C670 1.524 . S
C667 C659 1.503 . S
C667 C666 1.370 . S
C667 C668 1.403 . S
C668 C667 1.403 . S
C668 C669 1.404 . S
C668 C671 1.539 . S
C669 C665 1.408 . S
C669 C668 1.404 . S
C669 H681 0.930 . S
C670 C666 1.524 . S
C670 H682 0.956 . S
C670 H683 0.961 . S
C670 H684 0.961 . S
C671 C668 1.539 . S
C671 H685 0.958 . S
C671 H686 0.961 . S
C671 H687 0.960 . S
H672 C656 0.931 . S
H673 C661 0.929 . S
H674 C662 0.960 . S
H675 C662 0.962 . S
H676 C662 0.960 . S
H677 C663 0.961 . S
H678 C663 0.961 . S
H679 C663 0.961 . S
H680 C664 0.931 . S
H681 C669 0.930 . S
H682 C670 0.956 . S
H683 C670 0.961 . S
H684 C670 0.961 . S
H685 C671 0.958 . S
H686 C671 0.961 . S
H687 C671 0.960 . S
C688 C689 1.391 . S
C688 C690 1.394 . S
C688 H704 0.931 . S
C689 C688 1.391 . S
C689 C693 1.376 . S
C690 C688 1.394 . S
C690 C691 1.369 . S
C690 C694 1.531 . S
C691 C690 1.369 . S
C691 C692 1.410 . S
C691 C699 1.503 . S
C692 C691 1.410 . S
C692 C693 1.392 . S
C692 C695 1.511 . S
C693 C689 1.376 . S
C693 C692 1.392 . S
C693 H705 0.929 . S
C694 C690 1.531 . S
C694 H706 0.960 . S
C694 H707 0.962 . S
C694 H708 0.960 . S
C695 C692 1.511 . S
C695 H709 0.961 . S
C695 H710 0.961 . S
C695 H711 0.961 . S
C696 C697 1.370 . S
C696 C698 1.363 . S
C696 H712 0.931 . S
C697 C696 1.370 . S
C697 C701 1.408 . S
C698 C696 1.363 . S
C698 C699 1.370 . S
C698 C702 1.524 . S
C699 C691 1.503 . S
C699 C698 1.370 . S
C699 C700 1.403 . S
C700 C699 1.403 . S
C700 C701 1.404 . S
C700 C703 1.539 . S
C701 C697 1.408 . S
C701 C700 1.404 . S
C701 H713 0.930 . S
C702 C698 1.524 . S
C702 H714 0.956 . S
C702 H715 0.961 . S
C702 H716 0.961 . S
C703 C700 1.539 . S
C703 H717 0.958 . S
C703 H718 0.961 . S
C703 H719 0.960 . S
H704 C688 0.931 . S
H705 C693 0.929 . S
H706 C694 0.960 . S
H707 C694 0.962 . S
H708 C694 0.960 . S
H709 C695 0.961 . S
H710 C695 0.961 . S
H711 C695 0.961 . S
H712 C696 0.931 . S
H713 C701 0.930 . S
H714 C702 0.956 . S
H715 C702 0.961 . S
H716 C702 0.961 . S
H717 C703 0.958 . S
H718 C703 0.961 . S
H719 C703 0.960 . S
C720 C721 1.391 . S
C720 C722 1.394 . S
C720 H736 0.931 . S
C721 C720 1.391 . S
C721 C725 1.376 . S
C722 C720 1.394 . S
C722 C723 1.369 . S
C722 C726 1.531 . S
C723 C722 1.369 . S
C723 C724 1.410 . S
C723 C731 1.503 . S
C724 C723 1.410 . S
C724 C725 1.392 . S
C724 C727 1.511 . S
C725 C721 1.376 . S
C725 C724 1.392 . S
C725 H737 0.929 . S
C726 C722 1.531 . S
C726 H738 0.960 . S
C726 H739 0.962 . S
C726 H740 0.960 . S
C727 C724 1.511 . S
C727 H741 0.961 . S
C727 H742 0.961 . S
C727 H743 0.961 . S
C728 C729 1.370 . S
C728 C730 1.363 . S
C728 H744 0.931 . S
C729 C728 1.370 . S
C729 C733 1.408 . S
C730 C728 1.363 . S
C730 C731 1.370 . S
C730 C734 1.524 . S
C731 C723 1.503 . S
C731 C730 1.370 . S
C731 C732 1.403 . S
C732 C731 1.403 . S
C732 C733 1.404 . S
C732 C735 1.539 . S
C733 C729 1.408 . S
C733 C732 1.404 . S
C733 H745 0.930 . S
C734 C730 1.524 . S
C734 H746 0.956 . S
C734 H747 0.961 . S
C734 H748 0.961 . S
C735 C732 1.539 . S
C735 H749 0.958 . S
C735 H750 0.961 . S
C735 H751 0.960 . S
H736 C720 0.931 . S
H737 C725 0.929 . S
H738 C726 0.960 . S
H739 C726 0.962 . S
H740 C726 0.960 . S
H741 C727 0.961 . S
H742 C727 0.961 . S
H743 C727 0.961 . S
H744 C728 0.931 . S
H745 C733 0.930 . S
H746 C734 0.956 . S
H747 C734 0.961 . S
H748 C734 0.961 . S
H749 C735 0.958 . S
H750 C735 0.961 . S
H751 C735 0.960 . S
C752 C753 1.391 . S
C752 C754 1.394 1_554 S
C752 H768 0.931 . S
C753 C752 1.391 . S
C753 C757 1.376 . S
C754 C752 1.394 1_556 S
C754 C755 1.369 . S
C754 C758 1.531 . S
C755 C754 1.369 . S
C755 C756 1.410 . S
C755 C763 1.503 . S
C756 C755 1.410 . S
C756 C757 1.392 1_556 S
C756 C759 1.511 . S
C757 C753 1.376 . S
C757 C756 1.392 1_554 S
C757 H769 0.929 . S
C758 C754 1.531 . S
C758 H770 0.960 . S
C758 H771 0.962 . S
C758 H772 0.962 . S
C759 C756 1.511 . S
C759 H773 0.961 . S
C759 H774 0.961 . S
C759 H775 0.961 . S
C760 C761 1.370 . S
C760 C762 1.363 . S
C760 H776 0.931 1_565 S
C761 C760 1.370 . S
C761 C765 1.408 . S
C762 C760 1.363 . S
C762 C763 1.370 . S
C762 C766 1.524 1_565 S
C763 C755 1.503 . S
C763 C762 1.370 . S
C763 C764 1.403 . S
C764 C763 1.403 . S
C764 C765 1.404 . S
C764 C767 1.539 . S
C765 C761 1.408 . S
C765 C764 1.404 . S
C765 H777 0.930 . S
C766 C762 1.524 1_545 S
C766 H778 0.956 1_545 S
C766 H779 0.961 . S
C766 H780 0.961 . S
C767 C764 1.539 . S
C767 H781 0.958 . S
C767 H782 0.961 . S
C767 H783 0.960 . S
H768 C752 0.931 . S
H769 C757 0.929 . S
H770 C758 0.960 . S
H771 C758 0.962 . S
H772 C758 0.962 . S
H773 C759 0.961 . S
H774 C759 0.961 . S
H775 C759 0.961 . S
H776 C760 0.931 1_545 S
H777 C765 0.930 . S
H778 C766 0.956 1_565 S
H779 C766 0.961 . S
H780 C766 0.961 . S
H781 C767 0.958 . S
H782 C767 0.961 . S
H783 C767 0.960 . S
C784 C785 1.391 . S
C784 C786 1.394 . S
C784 H800 0.931 . S
C785 C784 1.391 . S
C785 C789 1.376 . S
C786 C784 1.394 . S
C786 C787 1.369 1_554 S
C786 C790 1.531 1_554 S
C787 C786 1.369 1_556 S
C787 C788 1.410 . S
C787 C795 1.503 . S
C788 C787 1.410 . S
C788 C789 1.392 1_556 S
C788 C791 1.511 . S
C789 C785 1.376 . S
C789 C788 1.392 1_554 S
C789 H801 0.929 . S
C790 C786 1.531 1_556 S
C790 H802 0.960 . S
C790 H803 0.962 . S
C790 H804 0.960 1_556 S
C791 C788 1.511 . S
C791 H805 0.961 . S
C791 H806 0.961 . S
C791 H807 0.961 . S
C792 C793 1.370 . S
C792 C794 1.363 . S
C792 H808 0.931 . S
C793 C792 1.370 . S
C793 C797 1.408 . S
C794 C792 1.363 . S
C794 C795 1.370 . S
C794 C798 1.524 . S
C795 C787 1.503 . S
C795 C794 1.370 . S
C795 C796 1.403 . S
C796 C795 1.403 . S
C796 C797 1.404 . S
C796 C799 1.539 . S
C797 C793 1.408 . S
C797 C796 1.404 . S
C797 H809 0.930 . S
C798 C794 1.524 . S
C798 H810 0.956 . S
C798 H811 0.961 . S
C798 H812 0.961 . S
C799 C796 1.539 . S
C799 H813 0.958 . S
C799 H814 0.961 . S
C799 H815 0.960 . S
H800 C784 0.931 . S
H801 C789 0.929 . S
H802 C790 0.960 . S
H803 C790 0.962 . S
H804 C790 0.960 1_554 S
H805 C791 0.961 . S
H806 C791 0.961 . S
H807 C791 0.961 . S
H808 C792 0.931 . S
H809 C797 0.930 . S
H810 C798 0.956 . S
H811 C798 0.961 . S
H812 C798 0.961 . S
H813 C799 0.958 . S
H814 C799 0.961 . S
H815 C799 0.960 . S
C816 C817 1.391 . S
C816 C818 1.394 1_554 S
C816 H832 0.931 . S
C817 C816 1.391 . S
C817 C821 1.376 . S
C818 C816 1.394 1_556 S
C818 C819 1.369 . S
C818 C822 1.531 . S
C819 C818 1.369 . S
C819 C820 1.410 . S
C819 C827 1.503 . S
C820 C819 1.410 . S
C820 C821 1.392 1_556 S
C820 C823 1.511 . S
C821 C817 1.376 . S
C821 C820 1.392 1_554 S
C821 H833 0.929 . S
C822 C818 1.531 . S
C822 H834 0.960 . S
C822 H835 0.962 . S
C822 H836 0.960 . S
C823 C820 1.511 . S
C823 H837 0.961 . S
C823 H838 0.961 . S
C823 H839 0.961 . S
C824 C825 1.370 . S
C824 C826 1.363 . S
C824 H840 0.931 . S
C825 C824 1.370 . S
C825 C829 1.408 . S
C826 C824 1.363 . S
C826 C827 1.370 . S
C826 C830 1.524 . S
C827 C819 1.503 . S
C827 C826 1.370 . S
C827 C828 1.403 . S
C828 C827 1.403 . S
C828 C829 1.404 . S
C828 C831 1.539 . S
C829 C825 1.408 . S
C829 C828 1.404 . S
C829 H841 0.930 . S
C830 C826 1.524 . S
C830 H842 0.956 . S
C830 H843 0.961 . S
C830 H844 0.961 . S
C831 C828 1.539 . S
C831 H845 0.958 . S
C831 H846 0.961 . S
C831 H847 0.960 . S
H832 C816 0.931 . S
H833 C821 0.929 . S
H834 C822 0.960 . S
H835 C822 0.962 . S
H836 C822 0.960 . S
H837 C823 0.961 . S
H838 C823 0.961 . S
H839 C823 0.961 . S
H840 C824 0.931 . S
H841 C829 0.930 . S
H842 C830 0.956 . S
H843 C830 0.961 . S
H844 C830 0.961 . S
H845 C831 0.958 . S
H846 C831 0.961 . S
H847 C831 0.960 . S
C848 C849 1.391 . S
C848 C850 1.394 1_554 S
C848 H864 0.931 . S
C849 C848 1.391 . S
C849 C853 1.376 . S
C850 C848 1.394 1_556 S
C850 C851 1.369 . S
C850 C854 1.531 . S
C851 C850 1.369 . S
C851 C852 1.410 . S
C851 C859 1.503 . S
C852 C851 1.410 . S
C852 C853 1.392 1_556 S
C852 C855 1.511 . S
C853 C849 1.376 . S
C853 C852 1.392 1_554 S
C853 H865 0.929 . S
C854 C850 1.531 . S
C854 H866 0.960 1_655 S
C854 H867 0.962 . S
C854 H868 0.960 1_655 S
C855 C852 1.511 . S
C855 H869 0.961 . S
C855 H870 0.961 . S
C855 H871 0.961 . S
C856 C857 1.370 . S
C856 C858 1.363 . S
C856 H872 0.931 . S
C857 C856 1.370 . S
C857 C861 1.408 . S
C858 C856 1.363 . S
C858 C859 1.370 . S
C858 C862 1.524 . S
C859 C851 1.503 . S
C859 C858 1.370 . S
C859 C860 1.403 . S
C860 C859 1.403 . S
C860 C861 1.404 . S
C860 C863 1.539 . S
C861 C857 1.408 . S
C861 C860 1.404 . S
C861 H873 0.930 . S
C862 C858 1.524 . S
C862 H874 0.956 . S
C862 H875 0.961 . S
C862 H876 0.961 . S
C863 C860 1.539 . S
C863 H877 0.958 1_655 S
C863 H878 0.961 . S
C863 H879 0.960 . S
H864 C848 0.931 . S
H865 C853 0.929 . S
H866 C854 0.960 1_455 S
H867 C854 0.962 . S
H868 C854 0.960 1_455 S
H869 C855 0.961 . S
H870 C855 0.961 . S
H871 C855 0.961 . S
H872 C856 0.931 . S
H873 C861 0.930 . S
H874 C862 0.956 . S
H875 C862 0.961 . S
H876 C862 0.961 . S
H877 C863 0.958 1_455 S
H878 C863 0.961 . S
H879 C863 0.960 . S
C880 C881 1.391 . S
C880 C882 1.394 . S
C880 H896 0.931 . S
C881 C880 1.391 . S
C881 C885 1.376 . S
C882 C880 1.394 . S
C882 C883 1.369 . S
C882 C886 1.531 . S
C883 C882 1.369 . S
C883 C884 1.410 . S
C883 C891 1.503 . S
C884 C883 1.410 . S
C884 C885 1.392 . S
C884 C887 1.511 . S
C885 C881 1.376 . S
C885 C884 1.392 . S
C885 H897 0.929 . S
C886 C882 1.531 . S
C886 H898 0.960 . S
C886 H899 0.962 . S
C886 H900 0.960 . S
C887 C884 1.511 . S
C887 H901 0.961 . S
C887 H902 0.961 . S
C887 H903 0.961 . S
C888 C889 1.370 . S
C888 C890 1.363 . S
C888 H904 0.931 . S
C889 C888 1.370 . S
C889 C893 1.408 . S
C890 C888 1.363 . S
C890 C891 1.370 . S
C890 C894 1.524 . S
C891 C883 1.503 . S
C891 C890 1.370 . S
C891 C892 1.403 . S
C892 C891 1.403 . S
C892 C893 1.404 . S
C892 C895 1.539 . S
C893 C889 1.408 . S
C893 C892 1.404 . S
C893 H905 0.930 . S
C894 C890 1.524 . S
C894 H906 0.956 . S
C894 H907 0.961 . S
C894 H908 0.961 . S
C895 C892 1.539 . S
C895 H909 0.958 . S
C895 H910 0.961 . S
C895 H911 0.960 . S
H896 C880 0.931 . S
H897 C885 0.929 . S
H898 C886 0.960 . S
H899 C886 0.962 . S
H900 C886 0.960 . S
H901 C887 0.961 . S
H902 C887 0.961 . S
H903 C887 0.961 . S
H904 C888 0.931 . S
H905 C893 0.930 . S
H906 C894 0.956 . S
H907 C894 0.961 . S
H908 C894 0.961 . S
H909 C895 0.958 . S
H910 C895 0.961 . S
H911 C895 0.960 . S
C912 C913 1.391 . S
C912 C914 1.394 . S
C912 H928 0.931 . S
C913 C912 1.391 . S
C913 C917 1.376 . S
C914 C912 1.394 . S
C914 C915 1.369 . S
C914 C918 1.531 . S
C915 C914 1.369 . S
C915 C916 1.410 . S
C915 C923 1.503 . S
C916 C915 1.410 . S
C916 C917 1.392 . S
C916 C919 1.511 . S
C917 C913 1.376 . S
C917 C916 1.392 . S
C917 H929 0.929 . S
C918 C914 1.531 . S
C918 H930 0.960 . S
C918 H931 0.976 . S
C918 H932 0.960 . S
C919 C916 1.511 . S
C919 H933 0.961 . S
C919 H934 0.961 . S
C919 H935 0.961 . S
C920 C921 1.370 . S
C920 C922 1.363 . S
C920 H936 0.931 1_545 S
C921 C920 1.370 . S
C921 C925 1.408 . S
C922 C920 1.363 . S
C922 C923 1.370 . S
C922 C926 1.524 . S
C923 C915 1.503 . S
C923 C922 1.370 . S
C923 C924 1.403 . S
C924 C923 1.403 . S
C924 C925 1.404 . S
C924 C927 1.539 . S
C925 C921 1.408 . S
C925 C924 1.404 . S
C925 H937 0.930 . S
C926 C922 1.524 . S
C926 H938 0.956 . S
C926 H939 0.961 . S
C926 H940 0.961 . S
C927 C924 1.539 . S
C927 H941 0.958 . S
C927 H942 0.961 . S
C927 H943 0.960 . S
H928 C912 0.931 . S
H929 C917 0.929 . S
H930 C918 0.960 . S
H931 C918 0.976 . S
H932 C918 0.960 . S
H933 C919 0.961 . S
H934 C919 0.961 . S
H935 C919 0.961 . S
H936 C920 0.931 1_565 S
H937 C925 0.930 . S
H938 C926 0.956 . S
H939 C926 0.961 . S
H940 C926 0.961 . S
H941 C927 0.958 . S
H942 C927 0.961 . S
H943 C927 0.960 . S
C944 C945 1.391 . S
C944 C946 1.394 . S
C944 H960 0.931 . S
C945 C944 1.391 . S
C945 C949 1.376 . S
C946 C944 1.394 . S
C946 C947 1.369 . S
C946 C950 1.531 . S
C947 C946 1.369 . S
C947 C948 1.410 . S
C947 C955 1.503 . S
C948 C947 1.410 . S
C948 C949 1.392 . S
C948 C951 1.511 . S
C949 C945 1.376 . S
C949 C948 1.392 . S
C949 H961 0.929 . S
C950 C946 1.531 . S
C950 H962 0.960 . S
C950 H963 0.962 . S
C950 H964 0.960 . S
C951 C948 1.511 . S
C951 H965 0.961 . S
C951 H966 0.961 . S
C951 H967 0.961 . S
C952 C953 1.370 . S
C952 C954 1.363 . S
C952 H968 0.931 . S
C953 C952 1.370 . S
C953 C957 1.408 . S
C954 C952 1.363 . S
C954 C955 1.370 . S
C954 C958 1.524 . S
C955 C947 1.503 . S
C955 C954 1.370 . S
C955 C956 1.403 . S
C956 C955 1.403 . S
C956 C957 1.404 . S
C956 C959 1.539 . S
C957 C953 1.408 . S
C957 C956 1.404 . S
C957 H969 0.930 . S
C958 C954 1.524 . S
C958 H970 0.956 . S
C958 H971 0.961 . S
C958 H972 0.961 . S
C959 C956 1.539 . S
C959 H973 0.958 . S
C959 H974 0.961 . S
C959 H975 0.960 . S
H960 C944 0.931 . S
H961 C949 0.929 . S
H962 C950 0.960 . S
H963 C950 0.962 . S
H964 C950 0.960 . S
H965 C951 0.961 . S
H966 C951 0.961 . S
H967 C951 0.961 . S
H968 C952 0.931 . S
H969 C957 0.930 . S
H970 C958 0.956 . S
H971 C958 0.961 . S
H972 C958 0.961 . S
H973 C959 0.958 . S
H974 C959 0.961 . S
H975 C959 0.960 . S
C976 C977 1.391 . S
C976 C978 1.394 . S
C976 H992 0.931 . S
C977 C976 1.391 . S
C977 C981 1.376 . S
C978 C976 1.394 . S
C978 C979 1.369 . S
C978 C982 1.531 . S
C979 C978 1.369 . S
C979 C980 1.410 . S
C979 C987 1.503 . S
C980 C979 1.410 . S
C980 C981 1.392 . S
C980 C983 1.511 . S
C981 C977 1.376 . S
C981 C980 1.392 . S
C981 H993 0.929 . S
C982 C978 1.531 . S
C982 H994 0.960 . S
C982 H995 0.962 . S
C982 H996 0.960 . S
C983 C980 1.511 . S
C983 H997 0.961 . S
C983 H998 0.961 . S
C983 H999 0.961 . S
C984 C985 1.370 . S
C984 C986 1.363 . S
C984 H1000 0.931 . S
C985 C984 1.370 . S
C985 C989 1.408 . S
C986 C984 1.363 . S
C986 C987 1.370 . S
C986 C990 1.524 . S
C987 C979 1.503 . S
C987 C986 1.370 . S
C987 C988 1.403 . S
C988 C987 1.403 . S
C988 C989 1.404 . S
C988 C991 1.539 . S
C989 C985 1.408 . S
C989 C988 1.404 . S
C989 H1001 0.930 . S
C990 C986 1.524 . S
C990 H1002 0.956 . S
C990 H1003 0.961 . S
C990 H1004 0.961 . S
C991 C988 1.539 . S
C991 H1005 0.958 . S
C991 H1006 0.961 . S
C991 H1007 0.960 . S
H992 C976 0.931 . S
H993 C981 0.929 . S
H994 C982 0.960 . S
H995 C982 0.962 . S
H996 C982 0.960 . S
H997 C983 0.961 . S
H998 C983 0.961 . S
H999 C983 0.961 . S
H1000 C984 0.931 . S
H1001 C989 0.930 . S
H1002 C990 0.956 . S
H1003 C990 0.961 . S
H1004 C990 0.961 . S
H1005 C991 0.958 . S
H1006 C991 0.961 . S
H1007 C991 0.960 . S
C1008 C1009 1.391 . S
C1008 C1010 1.394 . S
C1008 H1024 0.931 . S
C1009 C1008 1.391 . S
C1009 C1013 1.376 1_556 S
C1010 C1008 1.394 . S
C1010 C1011 1.369 . S
C1010 C1014 1.531 . S
C1011 C1010 1.369 . S
C1011 C1012 1.410 1_556 S
C1011 C1019 1.503 . S
C1012 C1011 1.410 1_554 S
C1012 C1013 1.392 . S
C1012 C1015 1.511 . S
C1013 C1009 1.376 1_554 S
C1013 C1012 1.392 . S
C1013 H1025 0.929 . S
C1014 C1010 1.531 . S
C1014 H1026 0.960 . S
C1014 H1027 0.962 . S
C1014 H1028 0.960 . S
C1015 C1012 1.511 . S
C1015 H1029 0.961 . S
C1015 H1030 0.961 . S
C1015 H1031 0.961 . S
C1016 C1017 1.370 . S
C1016 C1018 1.363 1_455 S
C1016 H1032 0.931 . S
C1017 C1016 1.370 . S
C1017 C1021 1.408 1_455 S
C1018 C1016 1.363 1_655 S
C1018 C1019 1.370 . S
C1018 C1022 1.524 . S
C1019 C1011 1.503 . S
C1019 C1018 1.370 . S
C1019 C1020 1.403 . S
C1020 C1019 1.403 . S
C1020 C1021 1.404 . S
C1020 C1023 1.539 . S
C1021 C1017 1.408 1_655 S
C1021 C1020 1.404 . S
C1021 H1033 0.930 . S
C1022 C1018 1.524 . S
C1022 H1034 0.956 . S
C1022 H1035 0.961 . S
C1022 H1036 0.961 1_655 S
C1023 C1020 1.539 . S
C1023 H1037 0.958 . S
C1023 H1038 0.961 . S
C1023 H1039 0.972 . S
H1024 C1008 0.931 . S
H1025 C1013 0.929 . S
H1026 C1014 0.960 . S
H1027 C1014 0.962 . S
H1028 C1014 0.960 . S
H1029 C1015 0.961 . S
H1030 C1015 0.961 . S
H1031 C1015 0.961 . S
H1032 C1016 0.931 . S
H1033 C1021 0.930 . S
H1034 C1022 0.956 . S
H1035 C1022 0.961 . S
H1036 C1022 0.961 1_455 S
H1037 C1023 0.958 . S
H1038 C1023 0.961 . S
H1039 C1023 0.972 . S
C1040 C1041 1.391 1_554 S
C1040 C1042 1.394 1_554 S
C1040 H1056 0.931 . S
C1041 C1040 1.391 1_556 S
C1041 C1045 1.376 . S
C1042 C1040 1.394 1_556 S
C1042 C1043 1.369 . S
C1042 C1046 1.538 1_556 S
C1043 C1042 1.369 . S
C1043 C1044 1.410 . S
C1043 C1051 1.503 . S
C1044 C1043 1.410 . S
C1044 C1045 1.392 . S
C1044 C1047 1.511 . S
C1045 C1041 1.376 . S
C1045 C1044 1.392 . S
C1045 H1057 0.929 . S
C1046 C1042 1.538 1_554 S
C1046 H1058 0.955 1_564 S
C1046 H1059 0.963 . S
C1046 H1060 0.958 1_565 S
C1047 C1044 1.511 . S
C1047 H1061 0.961 . S
C1047 H1062 0.961 . S
C1047 H1063 0.961 . S
C1048 C1049 1.370 1_565 S
C1048 C1050 1.363 . S
C1048 H1064 0.931 . S
C1049 C1048 1.370 1_545 S
C1049 C1053 1.408 . S
C1050 C1048 1.363 . S
C1050 C1051 1.370 . S
C1050 C1054 1.524 . S
C1051 C1043 1.503 . S
C1051 C1050 1.370 . S
C1051 C1052 1.403 1_565 S
C1052 C1051 1.403 1_545 S
C1052 C1053 1.404 . S
C1052 C1055 1.539 . S
C1053 C1049 1.408 . S
C1053 C1052 1.404 . S
C1053 H1065 0.930 . S
C1054 C1050 1.524 . S
C1054 H1066 0.956 1_556 S
C1054 H1067 0.961 . S
C1054 H1068 0.961 . S
C1055 C1052 1.539 . S
C1055 H1069 0.958 . S
C1055 H1070 0.961 . S
C1055 H1071 0.960 1_545 S
H1056 C1040 0.931 . S
H1057 C1045 0.929 . S
H1058 C1046 0.955 1_546 S
H1059 C1046 0.963 . S
H1060 C1046 0.958 1_545 S
H1061 C1047 0.961 . S
H1062 C1047 0.961 . S
H1063 C1047 0.961 . S
H1064 C1048 0.931 . S
H1065 C1053 0.930 . S
H1066 C1054 0.956 1_554 S
H1067 C1054 0.961 . S
H1068 C1054 0.961 . S
H1069 C1055 0.958 . S
H1070 C1055 0.961 . S
H1071 C1055 0.960 1_565 S
C1072 C1073 1.391 . S
C1072 C1074 1.394 . S
C1072 H1088 0.931 . S
C1073 C1072 1.391 . S
C1073 C1077 1.376 . S
C1074 C1072 1.394 . S
C1074 C1075 1.369 . S
C1074 C1078 1.531 . S
C1075 C1074 1.369 . S
C1075 C1076 1.410 . S
C1075 C1083 1.503 . S
C1076 C1075 1.410 . S
C1076 C1077 1.392 . S
C1076 C1079 1.511 . S
C1077 C1073 1.376 . S
C1077 C1076 1.392 . S
C1077 H1089 0.929 1_556 S
C1078 C1074 1.531 . S
C1078 H1090 0.960 . S
C1078 H1091 0.962 . S
C1078 H1092 0.960 . S
C1079 C1076 1.511 . S
C1079 H1093 0.961 1_556 S
C1079 H1094 0.961 . S
C1079 H1095 0.961 . S
C1080 C1081 1.370 . S
C1080 C1082 1.363 . S
C1080 H1096 0.931 . S
C1081 C1080 1.370 . S
C1081 C1085 1.408 . S
C1082 C1080 1.363 . S
C1082 C1083 1.370 . S
C1082 C1086 1.524 1_556 S
C1083 C1075 1.503 . S
C1083 C1082 1.370 . S
C1083 C1084 1.403 . S
C1084 C1083 1.403 . S
C1084 C1085 1.404 . S
C1084 C1087 1.539 . S
C1085 C1081 1.408 . S
C1085 C1084 1.404 . S
C1085 H1097 0.930 . S
C1086 C1082 1.524 1_554 S
C1086 H1098 0.956 1_554 S
C1086 H1099 0.961 . S
C1086 H1100 0.961 . S
C1087 C1084 1.539 . S
C1087 H1101 0.958 . S
C1087 H1102 0.961 . S
C1087 H1103 0.960 . S
H1088 C1072 0.931 . S
H1089 C1077 0.929 1_554 S
H1090 C1078 0.960 . S
H1091 C1078 0.962 . S
H1092 C1078 0.960 . S
H1093 C1079 0.961 1_554 S
H1094 C1079 0.961 . S
H1095 C1079 0.961 . S
H1096 C1080 0.931 . S
H1097 C1085 0.930 . S
H1098 C1086 0.956 1_556 S
H1099 C1086 0.961 . S
H1100 C1086 0.961 . S
H1101 C1087 0.958 . S
H1102 C1087 0.961 . S
H1103 C1087 0.960 . S
C1104 C1105 1.391 1_554 S
C1104 C1106 1.394 1_554 S
C1104 H1120 0.931 . S
C1105 C1104 1.391 1_556 S
C1105 C1109 1.376 . S
C1106 C1104 1.394 1_556 S
C1106 C1107 1.369 . S
C1106 C1110 1.531 1_556 S
C1107 C1106 1.369 . S
C1107 C1108 1.410 . S
C1107 C1115 1.503 . S
C1108 C1107 1.410 . S
C1108 C1109 1.392 . S
C1108 C1111 1.511 . S
C1109 C1105 1.376 . S
C1109 C1108 1.392 . S
C1109 H1121 0.929 . S
C1110 C1106 1.531 1_554 S
C1110 H1122 0.960 . S
C1110 H1123 0.962 1_554 S
C1110 H1124 0.960 . S
C1111 C1108 1.511 . S
C1111 H1125 0.961 . S
C1111 H1126 0.961 . S
C1111 H1127 0.961 . S
C1112 C1113 1.370 . S
C1112 C1114 1.363 . S
C1112 H1128 0.931 . S
C1113 C1112 1.370 . S
C1113 C1117 1.408 . S
C1114 C1112 1.363 . S
C1114 C1115 1.370 . S
C1114 C1118 1.524 . S
C1115 C1107 1.503 . S
C1115 C1114 1.370 . S
C1115 C1116 1.403 . S
C1116 C1115 1.403 . S
C1116 C1117 1.404 . S
C1116 C1119 1.539 1_556 S
C1117 C1113 1.408 . S
C1117 C1116 1.404 . S
C1117 H1129 0.930 . S
C1118 C1114 1.524 . S
C1118 H1130 0.956 . S
C1118 H1131 0.961 . S
C1118 H1132 0.961 . S
C1119 C1116 1.539 1_554 S
C1119 H1133 0.958 . S
C1119 H1134 0.961 . S
C1119 H1135 0.960 . S
H1120 C1104 0.931 . S
H1121 C1109 0.929 . S
H1122 C1110 0.960 . S
H1123 C1110 0.962 1_556 S
H1124 C1110 0.960 . S
H1125 C1111 0.961 . S
H1126 C1111 0.961 . S
H1127 C1111 0.961 . S
H1128 C1112 0.931 . S
H1129 C1117 0.930 . S
H1130 C1118 0.956 . S
H1131 C1118 0.961 . S
H1132 C1118 0.961 . S
H1133 C1119 0.958 . S
H1134 C1119 0.961 . S
H1135 C1119 0.960 . S
C1136 C1137 1.391 . S
C1136 C1138 1.394 . S
C1136 H1152 0.931 . S
C1137 C1136 1.391 . S
C1137 C1141 1.376 . S
C1138 C1136 1.394 . S
C1138 C1139 1.369 . S
C1138 C1142 1.531 . S
C1139 C1138 1.369 . S
C1139 C1140 1.410 . S
C1139 C1147 1.503 . S
C1140 C1139 1.410 . S
C1140 C1141 1.392 . S
C1140 C1143 1.511 . S
C1141 C1137 1.376 . S
C1141 C1140 1.392 . S
C1141 H1153 0.929 . S
C1142 C1138 1.531 . S
C1142 H1154 0.960 . S
C1142 H1155 0.962 . S
C1142 H1156 0.960 . S
C1143 C1140 1.511 . S
C1143 H1157 0.961 . S
C1143 H1158 0.961 . S
C1143 H1159 0.961 . S
C1144 C1145 1.370 . S
C1144 C1146 1.363 . S
C1144 H1160 0.931 . S
C1145 C1144 1.370 . S
C1145 C1149 1.408 . S
C1146 C1144 1.363 . S
C1146 C1147 1.370 . S
C1146 C1150 1.524 . S
C1147 C1139 1.503 . S
C1147 C1146 1.370 . S
C1147 C1148 1.403 . S
C1148 C1147 1.403 . S
C1148 C1149 1.404 . S
C1148 C1151 1.539 . S
C1149 C1145 1.408 . S
C1149 C1148 1.404 . S
C1149 H1161 0.930 . S
C1150 C1146 1.524 . S
C1150 H1162 0.956 . S
C1150 H1163 0.961 . S
C1150 H1164 0.961 . S
C1151 C1148 1.539 . S
C1151 H1165 0.958 . S
C1151 H1166 0.961 . S
C1151 H1167 0.960 . S
H1152 C1136 0.931 . S
H1153 C1141 0.929 . S
H1154 C1142 0.960 . S
H1155 C1142 0.962 . S
H1156 C1142 0.960 . S
H1157 C1143 0.961 . S
H1158 C1143 0.961 . S
H1159 C1143 0.961 . S
H1160 C1144 0.931 . S
H1161 C1149 0.930 . S
H1162 C1150 0.956 . S
H1163 C1150 0.961 . S
H1164 C1150 0.961 . S
H1165 C1151 0.958 . S
H1166 C1151 0.961 . S
H1167 C1151 0.960 . S
C1168 C1169 1.391 . S
C1168 C1170 1.394 . S
C1168 H1184 0.931 . S
C1169 C1168 1.391 . S
C1169 C1173 1.376 . S
C1170 C1168 1.394 . S
C1170 C1171 1.369 . S
C1170 C1174 1.531 . S
C1171 C1170 1.369 . S
C1171 C1172 1.410 . S
C1171 C1179 1.503 . S
C1172 C1171 1.410 . S
C1172 C1173 1.392 . S
C1172 C1175 1.511 . S
C1173 C1169 1.376 . S
C1173 C1172 1.392 . S
C1173 H1185 0.929 . S
C1174 C1170 1.531 . S
C1174 H1186 0.960 . S
C1174 H1187 0.962 . S
C1174 H1188 0.960 . S
C1175 C1172 1.511 . S
C1175 H1189 0.961 . S
C1175 H1190 0.961 . S
C1175 H1191 0.961 . S
C1176 C1177 1.370 . S
C1176 C1178 1.363 . S
C1176 H1192 0.931 . S
C1177 C1176 1.370 . S
C1177 C1181 1.408 . S
C1178 C1176 1.363 . S
C1178 C1179 1.370 . S
C1178 C1182 1.524 . S
C1179 C1171 1.503 . S
C1179 C1178 1.370 . S
C1179 C1180 1.403 . S
C1180 C1179 1.403 . S
C1180 C1181 1.404 . S
C1180 C1183 1.539 1_545 S
C1181 C1177 1.408 . S
C1181 C1180 1.404 . S
C1181 H1193 0.907 1_545 S
C1182 C1178 1.524 . S
C1182 H1194 0.956 . S
C1182 H1195 0.961 . S
C1182 H1196 0.961 . S
C1183 C1180 1.539 1_565 S
C1183 H1197 0.958 . S
C1183 H1198 0.961 . S
C1183 H1199 0.958 1_565 S
H1184 C1168 0.931 . S
H1185 C1173 0.929 . S
H1186 C1174 0.960 . S
H1187 C1174 0.962 . S
H1188 C1174 0.960 . S
H1189 C1175 0.961 . S
H1190 C1175 0.961 . S
H1191 C1175 0.961 . S
H1192 C1176 0.931 . S
H1193 C1181 0.907 1_565 S
H1194 C1182 0.956 . S
H1195 C1182 0.961 . S
H1196 C1182 0.961 . S
H1197 C1183 0.958 . S
H1198 C1183 0.961 . S
H1199 C1183 0.958 1_545 S
C1200 C1201 1.391 . S
C1200 C1202 1.394 . S
C1200 H1216 0.931 . S
C1201 C1200 1.391 . S
C1201 C1205 1.376 . S
C1202 C1200 1.394 . S
C1202 C1203 1.369 . S
C1202 C1206 1.531 . S
C1203 C1202 1.369 . S
C1203 C1204 1.410 . S
C1203 C1211 1.503 . S
C1204 C1203 1.410 . S
C1204 C1205 1.392 . S
C1204 C1207 1.511 . S
C1205 C1201 1.376 . S
C1205 C1204 1.392 . S
C1205 H1217 0.929 . S
C1206 C1202 1.531 . S
C1206 H1218 0.960 . S
C1206 H1219 0.962 . S
C1206 H1220 0.960 . S
C1207 C1204 1.511 . S
C1207 H1221 0.961 . S
C1207 H1222 0.961 . S
C1207 H1223 0.961 . S
C1208 C1209 1.370 . S
C1208 C1210 1.363 . S
C1208 H1224 0.931 . S
C1209 C1208 1.370 . S
C1209 C1213 1.408 . S
C1210 C1208 1.363 . S
C1210 C1211 1.370 . S
C1210 C1214 1.524 . S
C1211 C1203 1.503 . S
C1211 C1210 1.370 . S
C1211 C1212 1.403 . S
C1212 C1211 1.403 . S
C1212 C1213 1.404 . S
C1212 C1215 1.539 . S
C1213 C1209 1.408 . S
C1213 C1212 1.404 . S
C1213 H1225 0.930 . S
C1214 C1210 1.524 . S
C1214 H1226 0.956 . S
C1214 H1227 0.961 . S
C1214 H1228 0.961 . S
C1215 C1212 1.539 . S
C1215 H1229 0.958 . S
C1215 H1230 0.961 . S
C1215 H1231 0.960 . S
H1216 C1200 0.931 . S
H1217 C1205 0.929 . S
H1218 C1206 0.960 . S
H1219 C1206 0.962 . S
H1220 C1206 0.960 . S
H1221 C1207 0.961 . S
H1222 C1207 0.961 . S
H1223 C1207 0.961 . S
H1224 C1208 0.931 . S
H1225 C1213 0.930 . S
H1226 C1214 0.956 . S
H1227 C1214 0.961 . S
H1228 C1214 0.961 . S
H1229 C1215 0.958 . S
H1230 C1215 0.961 . S
H1231 C1215 0.960 . S
C1232 C1233 1.391 . S
C1232 C1234 1.394 . S
C1232 H1248 0.931 . S
C1233 C1232 1.391 . S
C1233 C1237 1.376 . S
C1234 C1232 1.394 . S
C1234 C1235 1.369 . S
C1234 C1238 1.531 . S
C1235 C1234 1.369 . S
C1235 C1236 1.410 . S
C1235 C1243 1.503 . S
C1236 C1235 1.410 . S
C1236 C1237 1.392 . S
C1236 C1239 1.511 . S
C1237 C1233 1.376 . S
C1237 C1236 1.392 . S
C1237 H1249 0.929 . S
C1238 C1234 1.531 . S
C1238 H1250 0.960 . S
C1238 H1251 0.962 . S
C1238 H1252 0.960 . S
C1239 C1236 1.511 . S
C1239 H1253 0.961 . S
C1239 H1254 0.961 . S
C1239 H1255 0.961 . S
C1240 C1241 1.370 . S
C1240 C1242 1.363 . S
C1240 H1256 0.931 . S
C1241 C1240 1.370 . S
C1241 C1245 1.408 . S
C1242 C1240 1.363 . S
C1242 C1243 1.370 . S
C1242 C1246 1.524 . S
C1243 C1235 1.503 . S
C1243 C1242 1.370 . S
C1243 C1244 1.403 . S
C1244 C1243 1.403 . S
C1244 C1245 1.404 . S
C1244 C1247 1.539 . S
C1245 C1241 1.408 . S
C1245 C1244 1.404 . S
C1245 H1257 0.930 . S
C1246 C1242 1.524 . S
C1246 H1258 0.956 . S
C1246 H1259 0.961 . S
C1246 H1260 0.961 . S
C1247 C1244 1.539 . S
C1247 H1261 0.958 . S
C1247 H1262 0.961 . S
C1247 H1263 0.960 . S
H1248 C1232 0.931 . S
H1249 C1237 0.929 . S
H1250 C1238 0.960 . S
H1251 C1238 0.962 . S
H1252 C1238 0.960 . S
H1253 C1239 0.961 . S
H1254 C1239 0.961 . S
H1255 C1239 0.961 . S
H1256 C1240 0.931 . S
H1257 C1245 0.930 . S
H1258 C1246 0.956 . S
H1259 C1246 0.961 . S
H1260 C1246 0.961 . S
H1261 C1247 0.958 . S
H1262 C1247 0.961 . S
H1263 C1247 0.960 . S
C1264 C1265 1.391 . S
C1264 C1266 1.394 . S
C1264 H1280 0.931 . S
C1265 C1264 1.391 . S
C1265 C1269 1.376 . S
C1266 C1264 1.394 . S
C1266 C1267 1.369 . S
C1266 C1270 1.531 . S
C1267 C1266 1.369 . S
C1267 C1268 1.410 . S
C1267 C1275 1.503 . S
C1268 C1267 1.410 . S
C1268 C1269 1.392 . S
C1268 C1271 1.511 . S
C1269 C1265 1.376 . S
C1269 C1268 1.392 . S
C1269 H1281 0.929 . S
C1270 C1266 1.531 . S
C1270 H1282 0.960 . S
C1270 H1283 0.962 . S
C1270 H1284 0.960 . S
C1271 C1268 1.511 . S
C1271 H1285 0.961 1_655 S
C1271 H1286 0.961 . S
C1271 H1287 0.961 1_655 S
C1272 C1273 1.370 . S
C1272 C1274 1.363 . S
C1272 H1288 0.931 . S
C1273 C1272 1.370 . S
C1273 C1277 1.408 . S
C1274 C1272 1.363 . S
C1274 C1275 1.370 . S
C1274 C1278 1.524 . S
C1275 C1267 1.503 . S
C1275 C1274 1.370 . S
C1275 C1276 1.403 . S
C1276 C1275 1.403 . S
C1276 C1277 1.404 . S
C1276 C1279 1.539 . S
C1277 C1273 1.408 . S
C1277 C1276 1.404 . S
C1277 H1289 0.930 . S
C1278 C1274 1.524 . S
C1278 H1290 0.956 . S
C1278 H1291 0.961 . S
C1278 H1292 0.961 . S
C1279 C1276 1.539 . S
C1279 H1293 0.958 . S
C1279 H1294 0.961 . S
C1279 H1295 0.960 . S
H1280 C1264 0.931 . S
H1281 C1269 0.929 . S
H1282 C1270 0.960 . S
H1283 C1270 0.962 . S
H1284 C1270 0.960 . S
H1285 C1271 0.961 1_455 S
H1286 C1271 0.961 . S
H1287 C1271 0.961 1_455 S
H1288 C1272 0.931 . S
H1289 C1277 0.930 . S
H1290 C1278 0.956 . S
H1291 C1278 0.961 . S
H1292 C1278 0.961 . S
H1293 C1279 0.958 . S
H1294 C1279 0.961 . S
H1295 C1279 0.960 . S
C1296 C1297 1.391 . S
C1296 C1298 1.394 . S
C1296 H1312 0.931 . S
C1297 C1296 1.391 . S
C1297 C1301 1.376 . S
C1298 C1296 1.394 . S
C1298 C1299 1.369 . S
C1298 C1302 1.531 . S
C1299 C1298 1.369 . S
C1299 C1300 1.410 . S
C1299 C1307 1.503 . S
C1300 C1299 1.410 . S
C1300 C1301 1.392 . S
C1300 C1303 1.511 . S
C1301 C1297 1.376 . S
C1301 C1300 1.392 . S
C1301 H1313 0.929 . S
C1302 C1298 1.531 . S
C1302 H1314 0.960 . S
C1302 H1315 0.962 . S
C1302 H1316 0.960 . S
C1303 C1300 1.511 . S
C1303 H1317 0.961 . S
C1303 H1318 0.961 . S
C1303 H1319 0.961 . S
C1304 C1305 1.370 . S
C1304 C1306 1.363 . S
C1304 H1320 0.931 . S
C1305 C1304 1.370 . S
C1305 C1309 1.408 . S
C1306 C1304 1.363 . S
C1306 C1307 1.370 . S
C1306 C1310 1.524 . S
C1307 C1299 1.503 . S
C1307 C1306 1.370 . S
C1307 C1308 1.403 . S
C1308 C1307 1.403 . S
C1308 C1309 1.404 . S
C1308 C1311 1.539 1_565 S
C1309 C1305 1.408 . S
C1309 C1308 1.404 . S
C1309 H1321 0.930 1_565 S
C1310 C1306 1.524 . S
C1310 H1322 0.956 . S
C1310 H1323 0.961 . S
C1310 H1324 0.961 . S
C1311 C1308 1.539 1_545 S
C1311 H1325 0.958 . S
C1311 H1326 0.961 . S
C1311 H1327 0.960 . S
H1312 C1296 0.931 . S
H1313 C1301 0.929 . S
H1314 C1302 0.960 . S
H1315 C1302 0.962 . S
H1316 C1302 0.960 . S
H1317 C1303 0.961 . S
H1318 C1303 0.961 . S
H1319 C1303 0.961 . S
H1320 C1304 0.931 . S
H1321 C1309 0.930 1_545 S
H1322 C1310 0.956 . S
H1323 C1310 0.961 . S
H1324 C1310 0.961 . S
H1325 C1311 0.958 . S
H1326 C1311 0.961 . S
H1327 C1311 0.960 . S
C1328 C1329 1.391 . S
C1328 C1330 1.394 . S
C1328 H1344 0.931 . S
C1329 C1328 1.391 . S
C1329 C1333 1.376 . S
C1330 C1328 1.394 . S
C1330 C1331 1.369 . S
C1330 C1334 1.531 . S
C1331 C1330 1.369 . S
C1331 C1332 1.410 . S
C1331 C1339 1.503 . S
C1332 C1331 1.410 . S
C1332 C1333 1.392 . S
C1332 C1335 1.511 . S
C1333 C1329 1.376 . S
C1333 C1332 1.392 . S
C1333 H1345 0.929 . S
C1334 C1330 1.531 . S
C1334 H1346 0.960 . S
C1334 H1347 0.962 . S
C1334 H1348 0.960 . S
C1335 C1332 1.511 . S
C1335 H1349 0.961 . S
C1335 H1350 0.961 . S
C1335 H1351 0.961 . S
C1336 C1337 1.370 . S
C1336 C1338 1.363 . S
C1336 H1352 0.931 . S
C1337 C1336 1.370 . S
C1337 C1341 1.408 . S
C1338 C1336 1.363 . S
C1338 C1339 1.370 . S
C1338 C1342 1.524 . S
C1339 C1331 1.503 . S
C1339 C1338 1.370 . S
C1339 C1340 1.403 . S
C1340 C1339 1.403 . S
C1340 C1341 1.404 . S
C1340 C1343 1.539 . S
C1341 C1337 1.408 . S
C1341 C1340 1.404 . S
C1341 H1353 0.930 . S
C1342 C1338 1.524 . S
C1342 H1354 0.956 . S
C1342 H1355 0.961 . S
C1342 H1356 0.961 . S
C1343 C1340 1.539 . S
C1343 H1357 0.958 . S
C1343 H1358 0.961 . S
C1343 H1359 0.960 . S
H1344 C1328 0.931 . S
H1345 C1333 0.929 . S
H1346 C1334 0.960 . S
H1347 C1334 0.962 . S
H1348 C1334 0.960 . S
H1349 C1335 0.961 . S
H1350 C1335 0.961 . S
H1351 C1335 0.961 . S
H1352 C1336 0.931 . S
H1353 C1341 0.930 . S
H1354 C1342 0.956 . S
H1355 C1342 0.961 . S
H1356 C1342 0.961 . S
H1357 C1343 0.958 . S
H1358 C1343 0.961 . S
H1359 C1343 0.960 . S
C1360 C1361 1.391 . S
C1360 C1362 1.394 . S
C1360 H1376 0.931 . S
C1361 C1360 1.391 . S
C1361 C1365 1.376 . S
C1362 C1360 1.394 . S
C1362 C1363 1.369 . S
C1362 C1366 1.531 . S
C1363 C1362 1.369 . S
C1363 C1364 1.410 . S
C1363 C1371 1.503 . S
C1364 C1363 1.410 . S
C1364 C1365 1.392 . S
C1364 C1367 1.511 . S
C1365 C1361 1.376 . S
C1365 C1364 1.392 . S
C1365 H1377 0.929 . S
C1366 C1362 1.531 . S
C1366 H1378 0.960 . S
C1366 H1379 0.962 . S
C1366 H1380 0.960 . S
C1367 C1364 1.511 . S
C1367 H1381 0.961 . S
C1367 H1382 0.961 . S
C1367 H1383 0.961 . S
C1368 C1369 1.370 . S
C1368 C1370 1.363 . S
C1368 H1384 0.931 . S
C1369 C1368 1.370 . S
C1369 C1373 1.408 . S
C1370 C1368 1.363 . S
C1370 C1371 1.370 . S
C1370 C1374 1.524 . S
C1371 C1363 1.503 . S
C1371 C1370 1.370 . S
C1371 C1372 1.403 . S
C1372 C1371 1.403 . S
C1372 C1373 1.404 . S
C1372 C1375 1.539 . S
C1373 C1369 1.408 . S
C1373 C1372 1.404 . S
C1373 H1385 0.930 . S
C1374 C1370 1.524 . S
C1374 H1386 0.956 . S
C1374 H1387 0.961 . S
C1374 H1388 0.961 . S
C1375 C1372 1.539 . S
C1375 H1389 0.958 . S
C1375 H1390 0.961 . S
C1375 H1391 0.960 . S
H1376 C1360 0.931 . S
H1377 C1365 0.929 . S
H1378 C1366 0.960 . S
H1379 C1366 0.962 . S
H1380 C1366 0.960 . S
H1381 C1367 0.961 . S
H1382 C1367 0.961 . S
H1383 C1367 0.961 . S
H1384 C1368 0.931 . S
H1385 C1373 0.930 . S
H1386 C1374 0.956 . S
H1387 C1374 0.961 . S
H1388 C1374 0.961 . S
H1389 C1375 0.958 . S
H1390 C1375 0.961 . S
H1391 C1375 0.960 . S
C625 C241 2.214 . S
C633 C363 2.330 . S
C665 C447 2.351 . S
C657 C277 2.288 . S
C697 C523 2.239 . S
C689 C169 2.367 . S
C729 C607 2.251 . S
C721 C205 2.324 . S
C761 C354 2.339 1_565 S
C753 C97 2.174 . S
C785 C133 2.341 . S
C793 C438 2.353 . S
C817 C25 2.305 . S
C825 C512 2.241 . S
C849 C61 2.315 . S
C857 C596 2.232 . S
C889 C351 0.643 1_455 S
C881 C211 0.619 . S
C921 C435 0.593 1_545 S
C913 C247 0.580 . S
C953 C528 0.594 . S
C945 C253 0.675 . S
C977 C175 0.562 . S
C985 C612 0.590 . S
C1009 C67 0.707 1_556 S
C1017 C360 0.648 . S
C1049 C444 0.580 . S
C1041 C103 0.631 1_556 S
C1081 C519 0.585 . S
C1073 C109 0.659 1_556 S
C1105 C31 0.558 1_556 S
C1113 C603 0.600 . S
C1137 C181 2.800 . S
C1145 C344 2.893 . S
C1169 C217 2.730 . S
C1177 C428 2.840 . S
C1209 C522 2.928 . S
C1201 C283 2.499 . S
C1241 C606 2.952 . S
C1233 C145 2.683 . S
C1265 C37 2.772 . S
C1273 C355 2.881 . S
C1305 C439 2.840 . S
C1297 C73 2.704 . S
C1337 C531 2.926 . S
C1329 C139 2.604 . S
C1361 C1 2.593 . S
C1369 C615 2.948 . S
