# Generated by pormake.
# Topology anh, (6,3)-cn, num edge types: 1
# Building blocks:
#     Node 0, Type 0, BuildingBlock: BETFAJ_clean_sbu_0, # of connection points: 6
#     Node 1, Type 0, BuildingBlock: BETFAJ_clean_sbu_0, # of connection points: 6
#     Node 2, Type 0, BuildingBlock: BETFAJ_clean_sbu_0, # of connection points: 6
#     Node 3, Type 1, BuildingBlock: BETDIP_clean_linker_0, # of connection points: 3
#     Node 4, Type 1, BuildingBlock: BETDIP_clean_linker_0, # of connection points: 3
#     Node 5, Type 1, BuildingBlock: BETDIP_clean_linker_0, # of connection points: 3
#     Node 6, Type 1, BuildingBlock: BETDIP_clean_linker_0, # of connection points: 3
#     Node 7, Type 1, BuildingBlock: BETDIP_clean_linker_0, # of connection points: 3
#     Node 8, Type 1, BuildingBlock: BETDIP_clean_linker_0, # of connection points: 3
#     Edge 9, Type (0, 1), BuildingBlock: ZUJKAS_clean_linker_0, # of connection points: 2
#     Edge 10, Type (0, 1), BuildingBlock: ZUJKAS_clean_linker_0, # of connection points: 2
#     Edge 11, Type (0, 1), BuildingBlock: ZUJKAS_clean_linker_0, # of connection points: 2
#     Edge 12, Type (0, 1), BuildingBlock: ZUJKAS_clean_linker_0, # of connection points: 2
#     Edge 13, Type (0, 1), BuildingBlock: ZUJKAS_clean_linker_0, # of connection points: 2
#     Edge 14, Type (0, 1), BuildingBlock: ZUJKAS_clean_linker_0, # of connection points: 2
#     Edge 15, Type (0, 1), BuildingBlock: ZUJKAS_clean_linker_0, # of connection points: 2
#     Edge 16, Type (0, 1), BuildingBlock: ZUJKAS_clean_linker_0, # of connection points: 2
#     Edge 17, Type (0, 1), BuildingBlock: ZUJKAS_clean_linker_0, # of connection points: 2
#     Edge 18, Type (0, 1), BuildingBlock: ZUJKAS_clean_linker_0, # of connection points: 2
#     Edge 19, Type (0, 1), BuildingBlock: ZUJKAS_clean_linker_0, # of connection points: 2
#     Edge 20, Type (0, 1), BuildingBlock: ZUJKAS_clean_linker_0, # of connection points: 2
#     Edge 21, Type (0, 1), BuildingBlock: ZUJKAS_clean_linker_0, # of connection points: 2
#     Edge 22, Type (0, 1), BuildingBlock: ZUJKAS_clean_linker_0, # of connection points: 2
#     Edge 23, Type (0, 1), BuildingBlock: ZUJKAS_clean_linker_0, # of connection points: 2
#     Edge 24, Type (0, 1), BuildingBlock: ZUJKAS_clean_linker_0, # of connection points: 2
#     Edge 25, Type (0, 1), BuildingBlock: ZUJKAS_clean_linker_0, # of connection points: 2
#     Edge 26, Type (0, 1), BuildingBlock: ZUJKAS_clean_linker_0, # of connection points: 2
# Relax obj value: 0.128
# Max RMSD: 0.169
# Mean RMSD: 0.122
data_MOF--net-anh--node1-BETFAJ_clean_sbu_0--node2-BETDIP_clean_linker_0--edge1-ZUJKAS_clean_linker_0
_symmetry_space_group_name_H-M    P1
_symmetry_Int_Tables_number       1
_symmetry_cell_setting            triclinic
loop_
_symmetry_equiv_pos_as_xyz
'x, y, z'
_cell_length_a     39.839494
_cell_length_b     47.624653
_cell_length_c     64.348791
_cell_angle_alpha  94.959207
_cell_angle_beta   88.876032
_cell_angle_gamma 128.42463
loop_
_atom_site_label
_atom_site_type_symbol
_atom_site_fract_x
_atom_site_fract_y
_atom_site_fract_z
_atom_type_partial_charge
Sm0 Sm 0.14912 0.54284 0.16 0.0
Sm1 Sm 0.10508 0.57434 0.16663 0.0
C2 C 0.20014 0.52767 0.15035 0.0
C3 C 0.24588 0.55197 0.15581 0.0
C4 C 0.27196 0.58736 0.14995 0.0
C5 C 0.31425 0.61196 0.15752 0.0
C6 C 0.33111 0.60142 0.17091 0.0
C7 C 0.30415 0.56655 0.17762 0.0
C8 C 0.26197 0.54203 0.17004 0.0
C9 C 0.12824 0.54563 0.20043 0.0
C10 C 0.20703 0.63162 0.16402 0.0
C11 C 0.0695 0.5983 0.18773 0.0
C12 C 1.02357 0.57857 0.18954 0.0
C13 C 0.9993 0.54571 0.19867 0.0
C14 C 0.95606 0.51981 0.19324 0.0
C15 C 0.93682 0.52674 0.17887 0.0
C16 C 0.95984 0.56095 0.17159 0.0
C17 C 1.00303 0.5869 0.17706 0.0
C18 C 0.10213 0.56051 0.12372 0.0
C19 C 1.04725 0.48662 0.15896 0.0
O20 O 0.18703 0.53798 0.13656 0.0
O21 O 0.17611 0.51555 0.16649 0.0
O22 O 0.14539 0.571 0.18874 0.0
O23 O 0.12094 0.51727 0.19065 0.0
O24 O 0.2076 0.6041 0.16366 0.0
O25 O 0.17103 0.62691 0.16423 0.0
O26 O 0.08516 0.58477 0.19662 0.0
O27 O 0.08312 0.60714 0.16891 0.0
O28 O 0.11918 0.55409 0.13687 0.0
O29 O 0.08453 0.57337 0.13311 0.0
O30 O 1.0487 0.51352 0.16781 0.0
O31 O 0.08138 0.49227 0.15095 0.0
H32 H 0.25988 0.59616 0.13949 0.0
H33 H 0.33448 0.63851 0.15201 0.0
H34 H 0.31631 0.55722 0.18759 0.0
H35 H 0.24189 0.51526 0.1753 0.0
H36 H 1.01422 0.53864 0.20858 0.0
H37 H 0.93821 0.49384 0.19942 0.0
H38 H 0.94474 0.56721 0.16116 0.0
H39 H 1.02111 0.61214 0.16999 0.0
Sm40 Sm 0.58572 0.01285 0.48806 0.0
Sm41 Sm 0.52909 0.04316 0.48325 0.0
C42 C 0.61522 0.98181 0.50244 0.0
C43 C 0.59976 0.9443 0.49959 0.0
C44 C 0.57188 0.91982 0.51389 0.0
C45 C 0.55727 0.88446 0.51144 0.0
C46 C 0.57053 0.87287 0.49478 0.0
C47 C 0.59704 0.89684 0.48001 0.0
C48 C 0.61161 0.93229 0.48241 0.0
C49 C 0.56397 0.01145 0.44704 0.0
C50 C 0.47899 0.95629 0.48377 0.0
C51 C 0.49856 0.0737 0.46919 0.0
C52 C 0.50938 0.10925 0.47471 0.0
C53 C 0.52275 0.13276 0.45918 0.0
C54 C 0.53573 0.16741 0.46431 0.0
C55 C 0.53535 0.1791 0.48506 0.0
C56 C 0.52237 0.15566 0.50064 0.0
C57 C 0.50972 0.12112 0.49555 0.0
C58 C 0.55138 0.04494 0.52425 0.0
C59 C 0.63594 0.09899 0.48692 0.0
O60 O 0.59087 0.98692 0.51322 0.0
O61 O 0.63112 1.00057 0.48617 0.0
O62 O 0.5537 0.01958 0.46363 0.0
O63 O 0.58678 1.00179 0.45189 0.0
O64 O 0.51531 0.96302 0.48956 0.0
O65 O 0.47659 0.98138 0.47836 0.0
O66 O 0.52867 0.07445 0.45991 0.0
O67 O 0.47916 0.05029 0.48322 0.0
O68 O 0.56029 0.03576 0.50762 0.0
O69 O 0.52964 0.05567 0.51952 0.0
O70 O 0.59983 0.09231 0.48076 0.0
O71 O 0.63839 0.07432 0.49297 0.0
H72 H 0.56164 0.92803 0.52714 0.0
H73 H 0.53628 0.86633 0.52288 0.0
H74 H 0.60795 0.88865 0.46708 0.0
H75 H 0.63267 0.95037 0.47099 0.0
H76 H 0.52342 0.12438 0.44308 0.0
H77 H 0.54532 0.18482 0.45196 0.0
H78 H 0.52236 0.16415 0.51681 0.0
H79 H 0.5006 0.10391 0.50796 0.0
Sm80 Sm 0.62729 0.54903 0.82915 0.0
Sm81 Sm 0.56878 0.46931 0.82964 0.0
C82 C 0.66359 0.61653 0.82322 0.0
C83 C 0.64958 0.63887 0.82386 0.0
C84 C 0.61367 0.62838 0.8119 0.0
C85 C 0.60132 0.65024 0.81277 0.0
C86 C 0.62451 0.68291 0.82565 0.0
C87 C 0.65961 0.69272 0.83803 0.0
C88 C 0.67201 0.67093 0.83711 0.0
C89 C 0.61472 0.52559 0.86775 0.0
C90 C 0.52173 0.50532 0.83215 0.0
C91 C 0.53228 0.40207 0.83641 0.0
C92 C 0.54298 0.37737 0.83304 0.0
C93 C 0.55072 0.36578 0.85034 0.0
C94 C 0.55996 0.34185 0.84756 0.0
C95 C 0.56139 0.32876 0.82739 0.0
C96 C 0.55446 0.3409 0.81006 0.0
C97 C 0.54537 0.36498 0.81284 0.0
C98 C 0.57947 0.49189 0.79072 0.0
C99 C 0.67574 0.5142 0.83001 0.0
O100 O 0.64814 0.59104 0.80786 0.0
O101 O 0.66546 0.60656 0.84115 0.0
O102 O 0.58563 0.51301 0.85396 0.0
O103 O 0.65205 0.55195 0.86176 0.0
O104 O 0.5587 0.53343 0.82559 0.0
O105 O 0.51854 0.47779 0.83802 0.0
O106 O 0.55574 0.42923 0.85067 0.0
O107 O 0.52318 0.41075 0.81987 0.0
O108 O 0.60954 0.50531 0.80426 0.0
O109 O 0.54293 0.46507 0.79718 0.0
O110 O 0.63686 0.48396 0.8327 0.0
O111 O 0.68102 0.54355 0.82611 0.0
H112 H 0.59522 0.60341 0.80183 0.0
H113 H 0.57369 0.64161 0.80329 0.0
H114 H 0.67842 0.71781 0.84797 0.0
H115 H 0.69948 0.67934 0.84665 0.0
H116 H 0.54937 0.37511 0.86606 0.0
H117 H 0.56589 0.33353 0.86124 0.0
H118 H 0.55494 0.33109 0.79432 0.0
H119 H 0.53978 0.3735 0.79915 0.0
H120 H 0.60361 0.02796 0.16994 0.0
H121 H 0.65245 0.09886 0.2268 0.0
H122 H 0.54764 0.98593 0.22819 0.0
H123 H 0.64448 0.13053 0.19482 0.0
C124 C 0.66963 0.12992 0.18864 0.0
C125 C 0.60242 0.03215 0.18667 0.0
C126 C 0.57236 1.00287 0.19801 0.0
C127 C 0.63087 0.06698 0.19702 0.0
C128 C 0.62953 0.07221 0.21881 0.0
C129 C 0.60029 0.04294 0.23032 0.0
C130 C 0.57145 0.00859 0.21965 0.0
N131 N 0.66203 0.09643 0.18566 0.0
H132 H 0.57896 0.51923 0.51287 0.0
H133 H 0.59832 0.57685 0.57285 0.0
H134 H 0.58716 0.48159 0.56962 0.0
H135 H 0.57023 0.59612 0.55793 0.0
C136 C 0.57603 0.59677 0.5414 0.0
C137 C 0.58331 0.5224 0.52972 0.0
C138 C 0.58337 0.49751 0.53987 0.0
C139 C 0.58703 0.55053 0.54142 0.0
C140 C 0.5932 0.55459 0.5633 0.0
C141 C 0.59268 0.52957 0.57336 0.0
C142 C 0.5877 0.50107 0.56169 0.0
N143 N 0.5833 0.5736 0.53093 0.0
H144 H 0.06812 0.51509 0.83672 0.0
H145 H 0.13109 0.51993 0.89228 0.0
H146 H 1.02489 0.52125 0.89775 0.0
H147 H 0.18858 0.55059 0.87257 0.0
C148 C 0.17591 0.531 0.85899 0.0
C149 C 0.07089 0.51664 0.85355 0.0
C150 C 1.04277 0.51937 0.86615 0.0
C151 C 0.10382 0.51741 0.86296 0.0
C152 C 0.10678 0.51969 0.88491 0.0
C153 C 0.07909 0.52162 0.89761 0.0
C154 C 1.04722 0.52102 0.88802 0.0
N155 N 0.13352 0.51549 0.85079 0.0
H156 H 0.08504 0.55701 0.4839 0.0
H157 H 1.03897 0.49373 0.42423 0.0
H158 H 0.1384 0.60797 0.42728 0.0
H159 H 0.97588 0.46683 0.44043 0.0
C160 C 0.98442 0.46242 0.45506 0.0
C161 C 0.08624 0.55509 0.46703 0.0
C162 C 0.11568 0.58621 0.45684 0.0
C163 C 1.05695 0.52173 0.45527 0.0
C164 C 1.05947 0.51958 0.43335 0.0
C165 C 0.08867 0.55048 0.42304 0.0
C166 C 0.11629 0.58367 0.43499 0.0
N167 N 1.0246 0.49073 0.46544 0.0
H168 H 0.59917 0.02977 0.80223 0.0
H169 H 0.59308 0.97815 0.74239 0.0
H170 H 0.59464 0.06913 0.74556 0.0
H171 H 0.56161 0.93039 0.75955 0.0
C172 C 0.57791 0.94007 0.77485 0.0
C173 C 0.5974 0.02787 0.78532 0.0
C174 C 0.59875 0.05349 0.77517 0.0
C175 C 0.59406 0.99983 0.77368 0.0
C176 C 0.59301 0.99814 0.75166 0.0
C177 C 0.59326 0.02305 0.74135 0.0
C178 C 0.59574 0.05036 0.7533 0.0
N179 N 0.59283 0.97428 0.78441 0.0
H180 H 0.57907 0.53476 0.1431 0.0
H181 H 0.65572 0.56534 0.08955 0.0
H182 H 0.52469 0.4684 0.0848 0.0
H183 H 0.67808 0.59707 0.16256 0.0
C184 C 0.67065 0.57944 0.14854 0.0
C185 C 0.58246 0.52792 0.1271 0.0
C186 C 0.54682 0.4982 0.1151 0.0
C187 C 0.62145 0.55214 0.11791 0.0
C188 C 0.62585 0.54594 0.09682 0.0
C189 C 0.59124 0.51507 0.08509 0.0
C190 C 0.55216 0.49089 0.09434 0.0
N191 N 0.65581 0.58328 0.13002 0.0
H192 H 0.38012 0.61643 0.20574 0.0
H193 H 0.43069 0.60374 0.20237 0.0
H194 H 0.43605 0.61602 0.13646 0.0
H195 H 0.38612 0.62844 0.13971 0.0
H196 H 0.38298 0.53861 0.17472 0.0
H197 H 0.54922 0.63675 0.14912 0.0
H198 H 0.5224 0.65034 0.16472 0.0
H199 H 0.51057 0.63875 0.13708 0.0
C200 C 0.39486 0.6193 0.19092 0.0
C201 C 0.3776 0.62122 0.17278 0.0
C202 C 0.42342 0.61171 0.18898 0.0
C203 C 0.43594 0.60802 0.1691 0.0
C204 C 0.4268 0.61886 0.15197 0.0
H205 H 0.48442 0.49046 0.09251 0.0
H206 H 0.44346 0.50776 0.10831 0.0
C207 C 0.39819 0.62623 0.15392 0.0
C208 C 0.44529 0.58288 0.16482 0.0
H209 H 0.51357 0.57391 0.13882 0.0
C210 C 0.41213 0.54638 0.16747 0.0
C211 C 0.48249 0.59314 0.15469 0.0
C212 C 0.51836 0.63194 0.15135 0.0
C213 C 0.41487 0.51962 0.15956 0.0
C214 C 0.45163 0.52991 0.14907 0.0
C215 C 0.4853 0.5664 0.14694 0.0
C216 C 0.45636 0.50349 0.13985 0.0
C217 C 0.37804 0.48048 0.16142 0.0
C218 C 0.47261 0.49148 0.15238 0.0
C219 C 0.49576 0.48099 0.14335 0.0
C220 C 0.50383 0.48405 0.12198 0.0
C221 C 0.47953 0.48847 0.10911 0.0
C222 C 0.45631 0.49877 0.11811 0.0
H223 H 0.35033 0.47667 0.16898 0.0
H224 H 0.36734 0.46542 0.14567 0.0
H225 H 0.38893 0.46866 0.17068 0.0
H226 H 0.47241 0.49479 0.16925 0.0
H227 H 0.51335 0.47674 0.15347 0.0
H228 H 0.69899 0.14088 0.51761 0.0
H229 H 0.76031 0.20528 0.51776 0.0
H230 H 0.72323 0.20419 0.45491 0.0
H231 H 0.66088 0.1409 0.45533 0.0
H232 H 0.82844 0.24258 0.49591 0.0
H233 H 0.73302 0.28719 0.48088 0.0
H234 H 0.70827 0.24206 0.48711 0.0
H235 H 0.72195 0.25389 0.46067 0.0
C236 C 0.70425 0.15459 0.50387 0.0
C237 C 0.67535 0.13629 0.48651 0.0
C238 C 0.73907 0.19131 0.50397 0.0
C239 C 0.74572 0.20998 0.48658 0.0
C240 C 0.71789 0.19094 0.46886 0.0
H241 H 0.91998 0.40305 0.43234 0.0
H242 H 0.86544 0.3433 0.44337 0.0
C243 C 0.68259 0.15467 0.46898 0.0
C244 C 0.78216 0.24908 0.48658 0.0
H245 H 0.80772 0.32785 0.47308 0.0
C246 C 0.82391 0.2614 0.49124 0.0
C247 C 0.77627 0.27388 0.48089 0.0
C248 C 0.73237 0.2636 0.47735 0.0
C249 C 0.86003 0.29712 0.48887 0.0
C250 C 0.85411 0.32109 0.4817 0.0
C251 C 0.81228 0.30931 0.47828 0.0
C252 C 0.89018 0.35713 0.47537 0.0
C253 C 0.90415 0.30839 0.49312 0.0
C254 C 0.92288 0.38487 0.48963 0.0
C255 C 0.95476 0.41928 0.4832 0.0
C256 C 0.95373 0.42632 0.46254 0.0
C257 C 0.92137 0.39838 0.44838 0.0
C258 C 0.89017 0.36422 0.45467 0.0
H259 H 0.90332 0.28499 0.49499 0.0
H260 H 0.92554 0.32329 0.4803 0.0
H261 H 0.91827 0.32661 0.50777 0.0
H262 H 0.92313 0.38021 0.50578 0.0
H263 H 0.97926 0.44046 0.49445 0.0
H264 H 0.6248 0.72398 0.85856 0.0
H265 H 0.61373 0.769 0.85695 0.0
H266 H 0.58975 0.74329 0.79034 0.0
H267 H 0.60151 0.69898 0.79167 0.0
H268 H 0.66117 0.83016 0.83177 0.0
H269 H 0.4867 0.73724 0.81166 0.0
H270 H 0.51404 0.72317 0.82371 0.0
H271 H 0.51667 0.72729 0.79611 0.0
C272 C 0.61712 0.7279 0.84357 0.0
C273 C 0.614 0.70783 0.82523 0.0
C274 C 0.6107 0.75352 0.84272 0.0
C275 C 0.60054 0.75913 0.82357 0.0
C276 C 0.59681 0.73884 0.80533 0.0
H277 H 0.56561 0.88138 0.75664 0.0
H278 H 0.57171 0.83994 0.77247 0.0
C279 C 0.60336 0.7134 0.80614 0.0
C280 C 0.5953 0.78703 0.82218 0.0
H281 H 0.52518 0.79825 0.8037 0.0
C282 C 0.63129 0.82339 0.82603 0.0
C283 C 0.55615 0.77791 0.81492 0.0
C284 C 0.51603 0.73928 0.81154 0.0
C285 C 0.63004 0.85094 0.82114 0.0
C286 C 0.59153 0.84164 0.81252 0.0
C287 C 0.55479 0.80533 0.81012 0.0
C288 C 0.58966 0.86823 0.80342 0.0
C289 C 0.67054 0.88947 0.82398 0.0
C290 C 0.59818 0.89821 0.81553 0.0
C291 C 0.5953 0.92236 0.80636 0.0
C292 C 0.58315 0.91636 0.78508 0.0
C293 C 0.57481 0.88646 0.7731 0.0
C294 C 0.5782 0.86276 0.78214 0.0
H295 H 0.69922 0.89139 0.82726 0.0
H296 H 0.67589 0.90339 0.80985 0.0
H297 H 0.66741 0.90395 0.83734 0.0
H298 H 0.60638 0.90263 0.83206 0.0
H299 H 0.60173 0.94518 0.81596 0.0
H300 H 0.90334 0.50475 0.13921 0.0
H301 H 0.83098 0.48235 0.1299 0.0
H302 H 0.7976 0.46518 0.19427 0.0
H303 H 0.87015 0.48856 0.20376 0.0
H304 H 0.73666 0.4314 0.1385 0.0
H305 H 0.83839 0.56886 0.18039 0.0
H306 H 0.85937 0.54598 0.1712 0.0
H307 H 0.83117 0.53519 0.19505 0.0
C308 C 0.87971 0.49427 0.15111 0.0
C309 C 0.89197 0.49937 0.17223 0.0
C310 C 0.83839 0.48108 0.14574 0.0
C311 C 0.80991 0.4731 0.16157 0.0
C312 C 0.81963 0.47134 0.18198 0.0
H313 H 0.65868 0.54035 0.18038 0.0
H314 H 0.67706 0.49985 0.18106 0.0
C315 C 0.86107 0.48488 0.1874 0.0
C316 C 0.77977 0.48015 0.1586 0.0
H317 H 0.76809 0.54433 0.17097 0.0
C318 C 0.7428 0.45569 0.14579 0.0
C319 C 0.78999 0.5131 0.16724 0.0
C320 C 0.83208 0.5425 0.17903 0.0
C321 C 0.71424 0.46273 0.14214 0.0
C322 C 0.72294 0.49433 0.15211 0.0
C323 C 0.76077 0.51927 0.16427 0.0
C324 C 0.69622 0.50499 0.14902 0.0
C325 C 0.67557 0.43689 0.1276 0.0
C326 C 0.70027 0.52035 0.13067 0.0
C327 C 0.69065 0.54378 0.13042 0.0
C328 C 0.67657 0.55186 0.14846 0.0
C329 C 0.66973 0.53456 0.16639 0.0
C330 C 0.67923 0.51093 0.16661 0.0
H331 H 0.67153 0.41196 0.12268 0.0
H332 H 0.64623 0.4296 0.13525 0.0
H333 H 0.67908 0.4501 0.11342 0.0
H334 H 0.71489 0.51714 0.11727 0.0
H335 H 0.69714 0.55747 0.11655 0.0
H336 H 0.4705 0.89981 0.49796 0.0
H337 H 0.40665 0.8371 0.49662 0.0
H338 H 0.33362 0.86328 0.46775 0.0
H339 H 0.39785 0.92646 0.4687 0.0
H340 H 0.32817 0.806 0.51425 0.0
H341 H 0.3101 0.78073 0.4278 0.0
H342 H 0.35861 0.81972 0.44123 0.0
H343 H 0.31302 0.81854 0.438 0.0
C344 C 0.44099 0.89243 0.49123 0.0
C345 C 0.43947 0.91832 0.4833 0.0
C346 C 0.40442 0.85646 0.49057 0.0
C347 C 0.36552 0.84541 0.48188 0.0
C348 C 0.36355 0.87114 0.47422 0.0
H349 H 0.11495 0.64244 0.45631 0.0
H350 H 0.17518 0.70589 0.4658 0.0
C351 C 0.40022 0.90729 0.47489 0.0
C352 C 0.32718 0.80691 0.48086 0.0
H353 H 0.25403 0.73441 0.44685 0.0
C354 C 0.31192 0.79027 0.49953 0.0
C355 C 0.30647 0.78637 0.46161 0.0
C356 C 0.32303 0.80206 0.44099 0.0
C357 C 0.27572 0.75385 0.49947 0.0
C358 C 0.25447 0.73362 0.48025 0.0
C359 C 0.27012 0.75014 0.4616 0.0
C360 C 0.21556 0.69532 0.47884 0.0
C361 C 0.25991 0.73745 0.51992 0.0
C362 C 0.21766 0.66826 0.48382 0.0
C363 C 0.18296 0.63187 0.47858 0.0
C364 C 0.14598 0.62227 0.46822 0.0
C365 C 0.14294 0.64926 0.46456 0.0
C366 C 0.1774 0.68545 0.46983 0.0
H367 H 0.2752 0.75821 0.5335 0.0
H368 H 0.22457 0.72155 0.52034 0.0
H369 H 0.26746 0.71889 0.52154 0.0
H370 H 0.24705 0.67529 0.49045 0.0
H371 H 0.18628 0.6115 0.48113 0.0
H372 H 0.61072 0.32495 0.79873 0.0
H373 H 0.61973 0.27837 0.79344 0.0
H374 H 0.53748 0.22477 0.84426 0.0
H375 H 0.5276 0.27063 0.84945 0.0
H376 H 0.64886 0.25498 0.82766 0.0
H377 H 0.487 0.14858 0.78993 0.0
H378 H 0.51309 0.19601 0.7899 0.0
H379 H 0.49004 0.17404 0.81324 0.0
C380 C 0.59438 0.30315 0.80871 0.0
C381 C 0.5684 0.30148 0.8245 0.0
C382 C 0.59977 0.27675 0.80575 0.0
C383 C 0.57904 0.24819 0.81841 0.0
C384 C 0.55351 0.24659 0.83429 0.0
H385 H 0.55072 0.05046 0.8073 0.0
H386 H 0.54911 0.0991 0.82173 0.0
C387 C 0.54822 0.27298 0.83732 0.0
C388 C 0.58384 0.21982 0.81504 0.0
H389 H 0.53015 0.13197 0.79645 0.0
C390 C 0.62297 0.22803 0.82088 0.0
C391 C 0.54983 0.18478 0.80633 0.0
C392 C 0.5076 0.17512 0.79933 0.0
C393 C 0.629 0.20189 0.81823 0.0
C394 C 0.59518 0.16691 0.80918 0.0
C395 C 0.55586 0.15868 0.8036 0.0
C396 C 0.60088 0.13935 0.80348 0.0
C397 C 0.67142 0.21193 0.82522 0.0
C398 C 0.63107 0.14613 0.78884 0.0
C399 C 0.63206 0.11858 0.78068 0.0
C400 C 0.60265 0.08363 0.78689 0.0
C401 C 0.57393 0.07724 0.8024 0.0
C402 C 0.57287 0.1049 0.81054 0.0
H403 H 0.68782 0.23464 0.83772 0.0
H404 H 0.66728 0.18872 0.83106 0.0
H405 H 0.69263 0.22068 0.81179 0.0
H406 H 0.65238 0.17223 0.78284 0.0
H407 H 0.65461 0.12421 0.76879 0.0
H408 H 0.57545 0.84285 0.52723 0.0
H409 H 0.56472 0.78666 0.52645 0.0
H410 H 0.53297 0.76609 0.46032 0.0
H411 H 0.5441 0.82307 0.46094 0.0
H412 H 0.49328 0.7162 0.51436 0.0
H413 H 0.63192 0.7614 0.46452 0.0
H414 H 0.62341 0.79233 0.47603 0.0
H415 H 0.58991 0.76092 0.45421 0.0
C416 C 0.56546 0.82615 0.51256 0.0
C417 C 0.56049 0.83726 0.49415 0.0
C418 C 0.55951 0.79411 0.51212 0.0
C419 C 0.54845 0.77247 0.4933 0.0
C420 C 0.54218 0.7828 0.47492 0.0
H421 H 0.5593 0.59326 0.49952 0.0
H422 H 0.54823 0.63199 0.48314 0.0
C423 C 0.54844 0.81519 0.47532 0.0
C424 C 0.54534 0.73998 0.49338 0.0
H425 H 0.60221 0.70949 0.48156 0.0
C426 C 0.51635 0.71417 0.50675 0.0
C427 C 0.57534 0.73738 0.48332 0.0
C428 C 0.60714 0.76449 0.46877 0.0
C429 C 0.51874 0.68744 0.51164 0.0
C430 C 0.55121 0.68681 0.50304 0.0
C431 C 0.57766 0.71045 0.4882 0.0
C432 C 0.56182 0.6655 0.51174 0.0
C433 C 0.48811 0.66141 0.52695 0.0
C434 C 0.57475 0.67269 0.53289 0.0
C435 C 0.58031 0.65056 0.54221 0.0
C436 C 0.57424 0.62152 0.53041 0.0
C437 C 0.56408 0.61559 0.50889 0.0
C438 C 0.55774 0.63755 0.49956 0.0
H439 H 0.45756 0.65748 0.52664 0.0
H440 H 0.48087 0.63482 0.52361 0.0
H441 H 0.50285 0.6725 0.54298 0.0
H442 H 0.57919 0.69482 0.54237 0.0
H443 H 0.58867 0.65578 0.55879 0.0
H444 H 0.68072 0.4594 0.82035 0.0
H445 H 0.74273 0.46043 0.82451 0.0
H446 H 0.81953 0.57141 0.84971 0.0
H447 H 0.75794 0.57083 0.84497 0.0
H448 H 0.83167 0.51184 0.80741 0.0
H449 H 0.83261 0.51704 0.89398 0.0
H450 H 0.78531 0.50043 0.87841 0.0
H451 H 0.82857 0.54786 0.88226 0.0
C452 C 0.71086 0.48414 0.82668 0.0
C453 C 0.71413 0.51512 0.83212 0.0
C454 C 0.74646 0.48469 0.82906 0.0
C455 C 0.78624 0.51593 0.83754 0.0
C456 C 0.78948 0.54685 0.84317 0.0
H457 H 1.02608 0.56522 0.88062 0.0
H458 H 0.96567 0.5636 0.87231 0.0
C459 C 0.75415 0.54656 0.84032 0.0
C460 C 0.82416 0.51619 0.84038 0.0
H461 H 0.88833 0.52084 0.87759 0.0
C462 C 0.84409 0.5138 0.82277 0.0
C463 C 0.84085 0.51887 0.86034 0.0
C464 C 0.82077 0.52099 0.87991 0.0
C465 C 0.88057 0.51509 0.82452 0.0
C466 C 0.89725 0.5174 0.84455 0.0
C467 C 0.87655 0.51922 0.86214 0.0
C468 C 0.93671 0.51948 0.84798 0.0
C469 C 0.90169 0.51551 0.80473 0.0
C470 C 0.94271 0.49588 0.83695 0.0
C471 C 0.97838 0.4971 0.84162 0.0
C472 C 1.00886 0.52147 0.85779 0.0
C473 C 1.00343 0.5457 0.86821 0.0
C474 C 0.96832 0.54468 0.86348 0.0
H475 H 0.89439 0.52551 0.79197 0.0
H476 H 0.93704 0.53273 0.80718 0.0
H477 H 0.88917 0.48765 0.79945 0.0
H478 H 0.91898 0.47542 0.82522 0.0
H479 H 0.98083 0.47774 0.83329 0.0
H480 H 0.28809 0.65909 0.17787 0.0
H481 H 0.35205 0.72283 0.18192 0.0
H482 H 0.27978 0.75232 0.15622 0.0
H483 H 0.21613 0.68949 0.15273 0.0
H484 H 0.39652 0.77064 0.1537 0.0
H485 H 0.33059 0.82007 0.20819 0.0
H486 H 0.30354 0.77272 0.20177 0.0
H487 H 0.29818 0.79769 0.18451 0.0
C488 C 0.28605 0.67922 0.17301 0.0
C489 C 0.24708 0.66925 0.16504 0.0
C490 C 0.32246 0.71561 0.17543 0.0
C491 C 0.32049 0.74252 0.16984 0.0
C492 C 0.28188 0.73233 0.16129 0.0
H493 H 0.50506 0.97674 0.17083 0.0
H494 H 0.44455 0.91289 0.16119 0.0
C495 C 0.24556 0.69623 0.15911 0.0
C496 C 0.35904 0.78111 0.17211 0.0
H497 H 0.39568 0.86486 0.19248 0.0
C498 C 0.3964 0.7912 0.16229 0.0
C499 C 0.35887 0.80804 0.18326 0.0
C500 C 0.32077 0.79905 0.1952 0.0
C501 C 0.43334 0.82739 0.16309 0.0
C502 C 0.43302 0.85426 0.17406 0.0
C503 C 0.39566 0.84426 0.18381 0.0
C504 C 0.47194 0.89258 0.177 0.0
C505 C 0.47231 0.83657 0.15205 0.0
C506 C 0.5076 0.90226 0.18872 0.0
C507 C 0.54188 0.93848 0.19421 0.0
C508 C 0.54129 0.96573 0.18798 0.0
C509 C 0.50659 0.95619 0.17541 0.0
C510 C 0.47198 0.91981 0.17007 0.0
H511 H 0.46376 0.81505 0.13969 0.0
H512 H 0.48906 0.86236 0.1449 0.0
H513 H 0.49494 0.83952 0.16356 0.0
H514 H 0.50791 0.88177 0.19459 0.0
H515 H 0.56796 0.94524 0.20424 0.0
H516 H 0.4932 0.19595 0.51017 0.0
H517 H 0.50893 0.2544 0.51697 0.0
H518 H 0.61912 0.30208 0.4788 0.0
H519 H 0.60331 0.24343 0.47176 0.0
H520 H 0.58059 0.31978 0.53471 0.0
H521 H 0.5516 0.3288 0.45216 0.0
H522 H 0.5367 0.28777 0.46126 0.0
H523 H 0.59175 0.32351 0.45642 0.0
C524 C 0.52103 0.21894 0.50339 0.0
C525 C 0.5468 0.21509 0.49027 0.0
C526 C 0.52988 0.25227 0.50722 0.0
C527 C 0.56466 0.28234 0.49804 0.0
C528 C 0.59147 0.27896 0.48558 0.0
H529 H 0.63728 0.49934 0.51228 0.0
H530 H 0.63564 0.44812 0.49974 0.0
C531 C 0.58246 0.24552 0.48161 0.0
C532 C 0.57214 0.31697 0.50143 0.0
H533 H 0.57064 0.37685 0.47666 0.0
C534 C 0.57872 0.33238 0.522 0.0
C535 C 0.56991 0.33343 0.48478 0.0
C536 C 0.56178 0.31747 0.46241 0.0
C537 C 0.58212 0.36337 0.52644 0.0
C538 C 0.57817 0.37896 0.50988 0.0
C539 C 0.5734 0.36455 0.48924 0.0
C540 C 0.57606 0.40873 0.51409 0.0
C541 C 0.58928 0.37892 0.54886 0.0
C542 C 0.54203 0.40293 0.52528 0.0
C543 C 0.54303 0.43186 0.53243 0.0
C544 C 0.57777 0.46687 0.52821 0.0
C545 C 0.61012 0.47239 0.51555 0.0
C546 C 0.60929 0.44333 0.5085 0.0
H547 H 0.60305 0.37008 0.5588 0.0
H548 H 0.61104 0.40881 0.55006 0.0
H549 H 0.55808 0.36957 0.55519 0.0
H550 H 0.51577 0.37624 0.52938 0.0
H551 H 0.51778 0.42719 0.54216 0.0
H552 H 0.45717 0.47431 0.86017 0.0
H553 H 0.39683 0.47616 0.86285 0.0
H554 H 0.4396 0.53781 0.80964 0.0
H555 H 0.50077 0.53707 0.80732 0.0
H556 H 0.40621 0.54768 0.86477 0.0
H557 H 0.304 0.44546 0.79853 0.0
H558 H 0.34321 0.44576 0.81248 0.0
H559 H 0.36051 0.47931 0.79498 0.0
C560 C 0.45365 0.48811 0.84895 0.0
C561 C 0.48399 0.50543 0.83347 0.0
C562 C 0.41905 0.48921 0.85053 0.0
C563 C 0.41302 0.50681 0.83633 0.0
C564 C 0.44307 0.52382 0.82074 0.0
H565 H 0.20182 0.52104 0.81995 0.0
H566 H 0.25888 0.51534 0.81378 0.0
C567 C 0.47823 0.52347 0.81946 0.0
C568 C 0.37625 0.50834 0.83821 0.0
H569 H 0.27781 0.47324 0.8164 0.0
C570 C 0.37809 0.53131 0.85422 0.0
C571 C 0.33977 0.48773 0.82423 0.0
C572 C 0.33626 0.46298 0.80657 0.0
C573 C 0.34505 0.53441 0.85659 0.0
C574 C 0.30721 0.51246 0.84323 0.0
C575 C 0.30589 0.48987 0.82694 0.0
C576 C 0.26896 0.5123 0.84626 0.0
C577 C 0.35239 0.56255 0.87301 0.0
C578 C 0.25294 0.51039 0.86624 0.0
C579 C 0.22098 0.51426 0.86975 0.0
C580 C 0.20201 0.5185 0.85334 0.0
C581 C 0.21518 0.51743 0.83299 0.0
C582 C 0.24827 0.51444 0.8295 0.0
H583 H 0.38716 0.58523 0.87586 0.0
H584 H 0.33634 0.57369 0.86846 0.0
H585 H 0.33983 0.55037 0.88798 0.0
H586 H 0.26596 0.50684 0.87944 0.0
H587 H 0.21183 0.51496 0.88564 0.0
H588 H 0.96317 0.45968 0.15832 0.0
H589 H 0.89958 0.39697 0.16168 0.0
H590 H 0.98079 0.36671 0.16681 0.0
H591 H 1.0441 0.42878 0.163 0.0
H592 H 0.88757 0.32429 0.13414 0.0
H593 H 0.8891 0.34175 0.22102 0.0
H594 H 0.90852 0.37851 0.2054 0.0
H595 H 0.93912 0.36303 0.20808 0.0
C596 C 0.9673 0.43954 0.16001 0.0
C597 C 1.00843 0.44897 0.16016 0.0
C598 C 0.9311 0.40386 0.16193 0.0
C599 C 0.93568 0.37738 0.16445 0.0
C600 C 0.97668 0.38676 0.1647 0.0
H601 H 0.75134 0.151 0.18989 0.0
H602 H 0.81798 0.21038 0.18304 0.0
C603 C 1.01272 0.42218 0.16244 0.0
C604 C 0.89777 0.33993 0.1672 0.0
H605 H 0.83612 0.28363 0.20446 0.0
C606 C 0.87624 0.31531 0.14948 0.0
C607 C 0.8835 0.32844 0.18725 0.0
C608 C 0.906 0.35415 0.20664 0.0
C609 C 0.84027 0.27938 0.15135 0.0
C610 C 0.82564 0.26797 0.17139 0.0
C611 C 0.8476 0.29249 0.18912 0.0
C612 C 0.78582 0.23136 0.1742 0.0
C613 C 0.8178 0.25375 0.13195 0.0
C614 C 0.74595 0.22365 0.17143 0.0
C615 C 0.70821 0.19024 0.17569 0.0
C616 C 0.70959 0.16366 0.18234 0.0
C617 C 0.74943 0.1709 0.18447 0.0
C618 C 0.7874 0.20476 0.18066 0.0
H619 H 0.83658 0.26522 0.11783 0.0
H620 H 0.81187 0.22805 0.13382 0.0
H621 H 0.78618 0.24749 0.12952 0.0
H622 H 0.74415 0.24389 0.16649 0.0
H623 H 0.67787 0.18525 0.17397 0.0
H624 H 0.13721 0.5336 0.10052 0.0
H625 H 0.13952 0.52734 0.06221 0.0
H626 H 0.07157 0.56995 0.0565 0.0
H627 H 0.06943 0.57643 0.09445 0.0
H628 H 0.07105 0.48775 0.03144 0.0
H629 H 0.17517 0.63321 0.02094 0.0
H630 H 0.17043 0.61656 0.04588 0.0
H631 H 0.13001 0.61883 0.03647 0.0
C632 C 0.12283 0.54165 0.09106 0.0
C633 C 0.1032 0.55561 0.10057 0.0
C634 C 0.12419 0.53808 0.06917 0.0
C635 C 0.10639 0.54878 0.05639 0.0
C636 C 0.08639 0.56225 0.06593 0.0
H637 H 0.06575 0.55924 0.92701 0.0
H638 H 0.07297 0.56378 0.96489 0.0
C639 C 0.08491 0.5657 0.0877 0.0
C640 C 0.10737 0.54517 0.0331 0.0
H641 H 0.13695 0.59296 0.99051 0.0
C642 C 0.08581 0.51076 0.02245 0.0
C643 C 0.12674 0.57518 0.02132 0.0
C644 C 0.15227 0.61308 0.03171 0.0
C645 C 0.08099 0.50528 0.00047 0.0
C646 C 0.09936 0.53527 0.98865 0.0
C647 C 0.12233 0.56983 -0.00062 0.0
C648 C 0.09421 0.53155 0.9653 0.0
C649 C 1.05443 0.46712 0.99032 0.0
C650 C 0.10391 0.51216 0.95257 0.0
C651 C 0.09806 0.50822 0.93081 0.0
C652 C 0.08396 0.52481 0.921 0.0
C653 C 0.07554 0.54518 0.93379 0.0
C654 C 0.08028 0.54826 0.95559 0.0
H655 H 1.03229 0.44734 0.00142 0.0
H656 H 1.03514 0.46331 0.97657 0.0
H657 H 0.07604 0.46088 0.98511 0.0
H658 H 0.11622 0.50004 0.95939 0.0
H659 H 0.10447 0.49191 0.92174 0.0
H660 H 0.57876 0.07112 0.43399 0.0
H661 H 0.58132 0.08448 0.39762 0.0
H662 H 0.54195 0.97932 0.37598 0.0
H663 H 0.54006 0.96625 0.41219 0.0
H664 H 0.63678 0.07965 0.36744 0.0
H665 H 0.46518 0.9939 0.34115 0.0
H666 H 0.48306 0.00942 0.36827 0.0
H667 H 0.47975 0.97236 0.35602 0.0
C668 C 0.56923 0.05051 0.42144 0.0
C669 C 0.55847 0.01745 0.42575 0.0
C670 C 0.57112 0.05826 0.40073 0.0
C671 C 0.56142 0.03274 0.38416 0.0
C672 C 0.54901 0.99918 0.38855 0.0
H673 H 0.58989 0.99802 0.25798 0.0
H674 H 0.58208 1.00153 0.29556 0.0
C675 C 0.54796 0.99175 0.40918 0.0
C676 C 0.56818 0.04191 0.36227 0.0
H677 H 0.51617 0.01427 0.31446 0.0
C678 C 0.61042 0.06609 0.35589 0.0
C679 C 0.53371 0.02398 0.34729 0.0
C680 C 0.48778 0.99865 0.35347 0.0
C681 C 0.61913 0.07118 0.33469 0.0
C682 C 0.58473 0.0519 0.31966 0.0
C683 C 0.54244 0.02908 0.32611 0.0
C684 C 0.59203 0.05174 0.29707 0.0
C685 C 0.66499 0.09536 0.32824 0.0
C686 C 0.60075 0.07917 0.28556 0.0
C687 C 0.60466 0.07703 0.26388 0.0
C688 C 0.59985 0.04738 0.25349 0.0
C689 C 0.59269 0.02075 0.26535 0.0
C690 C 0.58852 0.0228 0.28686 0.0
H691 H 0.68822 0.10888 0.34187 0.0
H692 H 0.67158 0.0793 0.31815 0.0
H693 H 0.67015 0.11622 0.31892 0.0
H694 H 0.60358 0.10173 0.29327 0.0
H695 H 0.61005 0.09793 0.25522 0.0
H696 H 0.65449 0.53813 0.77121 0.0
H697 H 0.66201 0.55249 0.73476 0.0
H698 H 0.52439 0.48444 0.72609 0.0
H699 H 0.51662 0.46979 0.76221 0.0
H700 H 0.61873 0.49421 0.69872 0.0
H701 H 0.57331 0.58382 0.70327 0.0
H702 H 0.59331 0.57716 0.72576 0.0
H703 H 0.53905 0.54304 0.71597 0.0
C704 C 0.62595 0.52654 0.76153 0.0
C705 C 0.58499 0.50271 0.7694 0.0
C706 C 0.63027 0.53476 0.74081 0.0
C707 C 0.59372 0.51973 0.72792 0.0
C708 C 0.55292 0.49661 0.73592 0.0
H709 H 0.5266 0.50217 0.59896 0.0
H710 H 0.52934 0.50306 0.63715 0.0
C711 C 0.54857 0.48813 0.75649 0.0
C712 C 0.59769 0.52594 0.70565 0.0
H713 H 0.57759 0.56246 0.66931 0.0
C714 C 0.61041 0.50958 0.69227 0.0
C715 C 0.58599 0.54546 0.69741 0.0
C716 C 0.57239 0.56364 0.71131 0.0
C717 C 0.61078 0.5115 0.67066 0.0
C718 C 0.59917 0.53108 0.66239 0.0
C719 C 0.58681 0.54775 0.6758 0.0
C720 C 0.59816 0.53324 0.63971 0.0
C721 C 0.62189 0.49138 0.65673 0.0
C722 C 0.63605 0.55053 0.62872 0.0
C723 C 0.63443 0.54983 0.60702 0.0
C724 C 0.59496 0.53207 0.5962 0.0
C725 C 0.55726 0.51585 0.6072 0.0
C726 C 0.55885 0.51648 0.62889 0.0
H727 H 0.62103 0.47148 0.66508 0.0
H728 H 0.59938 0.47703 0.64285 0.0
H729 H 0.65472 0.51083 0.65115 0.0
H730 H 0.66669 0.564 0.63691 0.0
H731 H 0.66377 0.56268 0.59865 0.0
H732 H 0.57796 0.09177 0.55874 0.0
H733 H 0.58572 0.0826 0.59468 0.0
H734 H 0.54469 0.97656 0.57377 0.0
H735 H 0.53857 0.98646 0.53776 0.0
H736 H 0.52681 0.03591 0.61844 0.0
H737 H 0.64526 0.01067 0.61 0.0
H738 H 0.63359 0.02736 0.5895 0.0
H739 H 0.59793 0.98021 0.59339 0.0
C740 C 0.57152 0.06685 0.56185 0.0
C741 C 0.55892 0.04022 0.54553 0.0
C742 C 0.57577 0.06153 0.58236 0.0
C743 C 0.56661 0.02913 0.58699 0.0
C744 C 0.55352 1.00229 0.57061 0.0
H745 H 0.54432 0.96245 0.71357 0.0
H746 H 0.53655 0.95983 0.67554 0.0
C747 C 0.55014 0.00797 0.55001 0.0
C748 C 0.56846 0.02303 0.60912 0.0
H749 H 0.61448 1.00296 0.643 0.0
C750 C 0.546 0.02867 0.62372 0.0
C751 C 0.59313 0.01319 0.61611 0.0
C752 C 0.61915 0.00781 0.60147 0.0
C753 C 0.5484 0.0257 0.64503 0.0
C754 C 0.57373 0.0167 0.65198 0.0
C755 C 0.59501 0.00977 0.63747 0.0
C756 C 0.58115 0.01755 0.67451 0.0
C757 C 0.52459 0.03292 0.66016 0.0
C758 C 0.60949 0.0508 0.68628 0.0
C759 C 0.61439 0.05242 0.70785 0.0
C760 C 0.5907 0.02078 0.71814 0.0
C761 C 0.56328 0.98732 0.70615 0.0
C762 C 0.55863 0.98573 0.68445 0.0
H763 H 0.50115 0.03406 0.65206 0.0
H764 H 0.50736 0.01175 0.67117 0.0
H765 H 0.54794 0.05911 0.66951 0.0
H766 H 0.62727 0.07559 0.67879 0.0
H767 H 0.63646 0.07858 0.7165 0.0
H768 H 0.6672 0.52213 0.89108 0.0
H769 H 0.65857 0.50781 0.92735 0.0
H770 H 0.53799 0.48967 0.92746 0.0
H771 H 0.54538 0.50174 0.89075 0.0
H772 H 0.65873 0.54931 0.95688 0.0
H773 H 0.50845 0.41015 0.96027 0.0
H774 H 0.53375 0.42735 0.93599 0.0
H775 H 0.50028 0.43746 0.94736 0.0
C776 C 0.63846 0.51425 0.89881 0.0
C777 C 0.60711 0.51327 0.8885 0.0
C778 C 0.63344 0.50594 0.91939 0.0
C779 C 0.59752 0.49743 0.93 0.0
C780 C 0.56534 0.49517 0.91939 0.0
H781 H 0.54198 0.51358 0.05636 0.0
H782 H 0.54447 0.5069 0.01835 0.0
C783 C 0.56979 0.50245 0.89856 0.0
C784 C 0.59715 0.49648 0.9528 0.0
H785 H 0.53605 0.44824 0.99267 0.0
C786 C 0.63229 0.52687 0.96468 0.0
C787 C 0.56227 0.4674 0.96287 0.0
C788 C 0.52427 0.43363 0.95092 0.0
C789 C 0.63308 0.5294 0.98645 0.0
C790 C 0.59797 0.50063 -0.00353 0.0
C791 C 0.563 0.47004 0.98472 0.0
C792 C 0.59578 0.50308 0.0192 0.0
C793 C 0.67054 0.56336 -0.0014 0.0
C794 C 0.624 0.50319 0.03196 0.0
C795 C 0.62292 0.50736 0.05361 0.0
C796 C 0.5932 0.51089 0.06247 0.0
C797 C 0.5648 0.51048 0.04965 0.0
C798 C 0.56611 0.50661 0.0281 0.0
H799 H 0.69199 0.58517 0.98838 0.0
H800 H 0.65898 0.57323 0.01073 0.0
H801 H 0.68967 0.5575 0.00663 0.0
H802 H 0.64688 0.50027 0.02516 0.0
H803 H 0.64485 0.50751 0.06342 0.0
H804 H 0.07486 0.48937 0.22317 0.0
H805 H 0.06265 0.49057 0.26041 0.0
H806 H 0.14884 0.60671 0.26564 0.0
H807 H 0.15996 0.60554 0.22795 0.0
H808 H 0.11994 0.51549 0.29086 0.0
H809 H 1.0532 0.58882 0.30005 0.0
H810 H 1.0578 0.57202 0.2748 0.0
H811 H 0.10378 0.61359 0.2878 0.0
C812 C 0.09081 0.51521 0.23218 0.0
C813 C 0.11864 0.54738 0.22267 0.0
C814 C 0.08377 0.51586 0.25351 0.0
C815 C 0.10461 0.54869 0.26595 0.0
C816 C 0.13165 0.58099 0.25638 0.0
H817 H 0.15933 0.58726 0.39919 0.0
H818 H 0.16128 0.58633 0.36117 0.0
C819 C 0.13828 0.58034 0.23486 0.0
C820 C 0.10052 0.54861 0.28905 0.0
H821 H 0.07473 0.57947 0.33141 0.0
C822 C 0.10981 0.52937 0.29964 0.0
C823 C 0.08699 0.56645 0.30062 0.0
C824 C 0.07445 0.58609 0.29022 0.0
C825 C 0.10663 0.52795 0.32134 0.0
C826 C 0.09429 0.54654 0.33287 0.0
C827 C 0.08441 0.5654 0.32244 0.0
C828 C 0.09255 0.54722 0.35589 0.0
C829 C 0.11623 0.50645 0.33193 0.0
C830 C 1.05317 0.52545 0.36545 0.0
C831 C 1.05184 0.52602 0.38724 0.0
C832 C 0.08993 0.54851 0.39983 0.0
C833 C 0.12933 0.57004 0.39005 0.0
C834 C 0.13058 0.56944 0.36832 0.0
H835 H 0.12134 0.49064 0.32055 0.0
H836 H 0.14553 0.52495 0.34227 0.0
H837 H 0.08942 0.48773 0.34188 0.0
H838 H 1.0235 0.50801 0.35606 0.0
H839 H 1.02092 0.50938 0.39421 0.0
loop_
_geom_bond_atom_site_label_1
_geom_bond_atom_site_label_2
_geom_bond_distance
_geom_bond_site_symmetry_2
_ccdc_geom_bond_type
Sm0 C2 2.846 . S
Sm0 O20 2.543 . S
Sm0 O21 2.450 . S
Sm0 O22 2.681 . S
Sm0 O23 2.464 . S
Sm0 O24 2.396 . S
Sm0 O28 2.386 . S
Sm0 O31 2.408 . S
Sm1 C11 2.846 1_455 S
Sm1 O22 2.386 . S
Sm1 O25 2.408 . S
Sm1 O26 2.543 1_455 S
Sm1 O27 2.450 1_455 S
Sm1 O28 2.681 . S
Sm1 O29 2.464 . S
Sm1 O30 2.396 1_455 S
C2 Sm0 2.846 . S
C2 C3 1.506 . S
C2 O20 1.261 . S
C2 O21 1.242 . S
C3 C2 1.506 . S
C3 C4 1.358 . S
C3 C8 1.382 . S
C4 C3 1.358 . S
C4 C5 1.385 . S
C4 H32 0.930 . S
C5 C4 1.385 . S
C5 C6 1.395 . S
C5 H33 0.929 . S
C6 C5 1.395 . S
C6 C7 1.335 . S
C7 C6 1.335 . S
C7 C8 1.398 . S
C7 H34 0.930 . S
C8 C3 1.382 . S
C8 C7 1.398 . S
C8 H35 0.929 . S
C9 O22 1.271 . S
C9 O23 1.251 . S
C10 O24 1.252 . S
C10 O25 1.272 . S
C11 Sm1 2.846 1_655 S
C11 C12 1.506 . S
C11 O26 1.261 . S
C11 O27 1.242 . S
C12 C11 1.506 . S
C12 C13 1.358 . S
C12 C17 1.382 . S
C13 C12 1.358 . S
C13 C14 1.385 . S
C13 H36 0.930 . S
C14 C13 1.385 . S
C14 C15 1.395 . S
C14 H37 0.929 . S
C15 C14 1.395 . S
C15 C16 1.335 . S
C16 C15 1.335 . S
C16 C17 1.398 . S
C16 H38 0.930 . S
C17 C12 1.382 . S
C17 C16 1.398 . S
C17 H39 0.929 . S
C18 O28 1.271 . S
C18 O29 1.251 . S
C19 O30 1.252 . S
C19 O31 1.272 1_655 S
O20 Sm0 2.543 . S
O20 C2 1.261 . S
O21 Sm0 2.450 . S
O21 C2 1.242 . S
O22 Sm0 2.681 . S
O22 Sm1 2.386 . S
O22 C9 1.271 . S
O23 Sm0 2.464 . S
O23 C9 1.251 . S
O24 Sm0 2.396 . S
O24 C10 1.252 . S
O25 Sm1 2.408 . S
O25 C10 1.272 . S
O26 Sm1 2.543 1_655 S
O26 C11 1.261 . S
O27 Sm1 2.450 1_655 S
O27 C11 1.242 . S
O28 Sm0 2.386 . S
O28 Sm1 2.681 . S
O28 C18 1.271 . S
O29 Sm1 2.464 . S
O29 C18 1.251 . S
O30 Sm1 2.396 1_655 S
O30 C19 1.252 . S
O31 Sm0 2.408 . S
O31 C19 1.272 1_455 S
H32 C4 0.930 . S
H33 C5 0.929 . S
H34 C7 0.930 . S
H35 C8 0.929 . S
H36 C13 0.930 . S
H37 C14 0.929 . S
H38 C16 0.930 . S
H39 C17 0.929 . S
Sm40 C42 2.846 1_545 S
Sm40 O60 2.543 1_545 S
Sm40 O61 2.450 1_545 S
Sm40 O62 2.681 . S
Sm40 O63 2.464 . S
Sm40 O64 2.396 1_545 S
Sm40 O68 2.386 . S
Sm40 O71 2.408 . S
Sm41 C51 2.846 . S
Sm41 O62 2.386 . S
Sm41 O65 2.408 1_545 S
Sm41 O66 2.543 . S
Sm41 O67 2.450 . S
Sm41 O68 2.681 . S
Sm41 O69 2.464 . S
Sm41 O70 2.396 . S
C42 Sm40 2.846 1_565 S
C42 C43 1.506 . S
C42 O60 1.261 . S
C42 O61 1.242 . S
C43 C42 1.506 . S
C43 C44 1.358 . S
C43 C48 1.382 . S
C44 C43 1.358 . S
C44 C45 1.385 . S
C44 H72 0.930 . S
C45 C44 1.385 . S
C45 C46 1.395 . S
C45 H73 0.929 . S
C46 C45 1.395 . S
C46 C47 1.335 . S
C47 C46 1.335 . S
C47 C48 1.398 . S
C47 H74 0.930 . S
C48 C43 1.382 . S
C48 C47 1.398 . S
C48 H75 0.929 . S
C49 O62 1.271 . S
C49 O63 1.251 . S
C50 O64 1.252 . S
C50 O65 1.272 . S
C51 Sm41 2.846 . S
C51 C52 1.506 . S
C51 O66 1.261 . S
C51 O67 1.242 . S
C52 C51 1.506 . S
C52 C53 1.358 . S
C52 C57 1.382 . S
C53 C52 1.358 . S
C53 C54 1.385 . S
C53 H76 0.930 . S
C54 C53 1.385 . S
C54 C55 1.395 . S
C54 H77 0.929 . S
C55 C54 1.395 . S
C55 C56 1.335 . S
C56 C55 1.335 . S
C56 C57 1.398 . S
C56 H78 0.930 . S
C57 C52 1.382 . S
C57 C56 1.398 . S
C57 H79 0.929 . S
C58 O68 1.271 . S
C58 O69 1.251 . S
C59 O70 1.252 . S
C59 O71 1.272 . S
O60 Sm40 2.543 1_565 S
O60 C42 1.261 . S
O61 Sm40 2.450 1_565 S
O61 C42 1.242 . S
O62 Sm40 2.681 . S
O62 Sm41 2.386 . S
O62 C49 1.271 . S
O63 Sm40 2.464 . S
O63 C49 1.251 . S
O64 Sm40 2.396 1_565 S
O64 C50 1.252 . S
O65 Sm41 2.408 1_565 S
O65 C50 1.272 . S
O66 Sm41 2.543 . S
O66 C51 1.261 . S
O67 Sm41 2.450 . S
O67 C51 1.242 . S
O68 Sm40 2.386 . S
O68 Sm41 2.681 . S
O68 C58 1.271 . S
O69 Sm41 2.464 . S
O69 C58 1.251 . S
O70 Sm41 2.396 . S
O70 C59 1.252 . S
O71 Sm40 2.408 . S
O71 C59 1.272 . S
H72 C44 0.930 . S
H73 C45 0.929 . S
H74 C47 0.930 . S
H75 C48 0.929 . S
H76 C53 0.930 . S
H77 C54 0.929 . S
H78 C56 0.930 . S
H79 C57 0.929 . S
Sm80 C82 2.846 . S
Sm80 O100 2.543 . S
Sm80 O101 2.450 . S
Sm80 O102 2.681 . S
Sm80 O103 2.464 . S
Sm80 O104 2.396 . S
Sm80 O108 2.386 . S
Sm80 O111 2.408 . S
Sm81 C91 2.846 . S
Sm81 O102 2.386 . S
Sm81 O105 2.408 . S
Sm81 O106 2.543 . S
Sm81 O107 2.450 . S
Sm81 O108 2.681 . S
Sm81 O109 2.464 . S
Sm81 O110 2.396 . S
C82 Sm80 2.846 . S
C82 C83 1.506 . S
C82 O100 1.261 . S
C82 O101 1.242 . S
C83 C82 1.506 . S
C83 C84 1.358 . S
C83 C88 1.382 . S
C84 C83 1.358 . S
C84 C85 1.385 . S
C84 H112 0.930 . S
C85 C84 1.385 . S
C85 C86 1.395 . S
C85 H113 0.929 . S
C86 C85 1.395 . S
C86 C87 1.335 . S
C87 C86 1.335 . S
C87 C88 1.398 . S
C87 H114 0.930 . S
C88 C83 1.382 . S
C88 C87 1.398 . S
C88 H115 0.929 . S
C89 O102 1.271 . S
C89 O103 1.251 . S
C90 O104 1.252 . S
C90 O105 1.272 . S
C91 Sm81 2.846 . S
C91 C92 1.506 . S
C91 O106 1.261 . S
C91 O107 1.242 . S
C92 C91 1.506 . S
C92 C93 1.358 . S
C92 C97 1.382 . S
C93 C92 1.358 . S
C93 C94 1.385 . S
C93 H116 0.930 . S
C94 C93 1.385 . S
C94 C95 1.395 . S
C94 H117 0.929 . S
C95 C94 1.395 . S
C95 C96 1.335 . S
C96 C95 1.335 . S
C96 C97 1.398 . S
C96 H118 0.930 . S
C97 C92 1.382 . S
C97 C96 1.398 . S
C97 H119 0.929 . S
C98 O108 1.271 . S
C98 O109 1.251 . S
C99 O110 1.252 . S
C99 O111 1.272 . S
O100 Sm80 2.543 . S
O100 C82 1.261 . S
O101 Sm80 2.450 . S
O101 C82 1.242 . S
O102 Sm80 2.681 . S
O102 Sm81 2.386 . S
O102 C89 1.271 . S
O103 Sm80 2.464 . S
O103 C89 1.251 . S
O104 Sm80 2.396 . S
O104 C90 1.252 . S
O105 Sm81 2.408 . S
O105 C90 1.272 . S
O106 Sm81 2.543 . S
O106 C91 1.261 . S
O107 Sm81 2.450 . S
O107 C91 1.242 . S
O108 Sm80 2.386 . S
O108 Sm81 2.681 . S
O108 C98 1.271 . S
O109 Sm81 2.464 . S
O109 C98 1.251 . S
O110 Sm81 2.396 . S
O110 C99 1.252 . S
O111 Sm80 2.408 . S
O111 C99 1.272 . S
H112 C84 0.930 . S
H113 C85 0.929 . S
H114 C87 0.930 . S
H115 C88 0.929 . S
H116 C93 0.930 . S
H117 C94 0.929 . S
H118 C96 0.930 . S
H119 C97 0.929 . S
H120 C125 0.930 . S
H121 C128 0.930 . S
H122 C130 0.930 1_565 S
H123 C124 1.016 . S
C124 H123 1.016 . S
C124 N131 1.286 . S
C125 H120 0.930 . S
C125 C126 1.397 . S
C125 C127 1.361 . S
C126 C125 1.397 . S
C126 C130 1.390 . S
C127 C125 1.361 . S
C127 C128 1.393 . S
C127 N131 1.413 . S
C128 H121 0.930 . S
C128 C127 1.393 . S
C128 C129 1.399 . S
C129 C128 1.399 . S
C129 C130 1.381 . S
C130 H122 0.930 1_545 S
C130 C126 1.390 . S
C130 C129 1.381 . S
N131 C124 1.286 . S
N131 C127 1.413 . S
H132 C137 0.930 . S
H133 C140 0.930 . S
H134 C142 0.930 . S
H135 C136 1.016 . S
C136 H135 1.016 . S
C136 N143 1.286 . S
C137 H132 0.930 . S
C137 C138 1.397 . S
C137 C139 1.361 . S
C138 C137 1.397 . S
C138 C142 1.390 . S
C139 C137 1.361 . S
C139 C140 1.393 . S
C139 N143 1.413 . S
C140 H133 0.930 . S
C140 C139 1.393 . S
C140 C141 1.399 . S
C141 C140 1.399 . S
C141 C142 1.381 . S
C142 H134 0.930 . S
C142 C138 1.390 . S
C142 C141 1.381 . S
N143 C136 1.286 . S
N143 C139 1.413 . S
H144 C149 0.930 . S
H145 C152 0.930 . S
H146 C154 0.930 . S
H147 C148 1.016 . S
C148 H147 1.016 . S
C148 N155 1.286 . S
C149 H144 0.930 . S
C149 C150 1.397 . S
C149 C151 1.361 . S
C150 C149 1.397 . S
C150 C154 1.390 . S
C151 C149 1.361 . S
C151 C152 1.393 . S
C151 N155 1.413 . S
C152 H145 0.930 . S
C152 C151 1.393 . S
C152 C153 1.399 . S
C153 C152 1.399 . S
C153 C154 1.381 . S
C154 H146 0.930 . S
C154 C150 1.390 . S
C154 C153 1.381 . S
N155 C148 1.286 . S
N155 C151 1.413 . S
H156 C161 0.930 . S
H157 C164 0.930 . S
H158 C166 0.930 . S
H159 C160 1.016 . S
C160 H159 1.016 . S
C160 N167 1.286 . S
C161 H156 0.930 . S
C161 C162 1.397 . S
C161 C163 1.361 1_455 S
C162 C161 1.397 . S
C162 C166 1.390 . S
C163 C161 1.361 1_655 S
C163 C164 1.393 . S
C163 N167 1.413 . S
C164 H157 0.930 . S
C164 C163 1.393 . S
C164 C165 1.399 1_655 S
C165 C164 1.399 1_455 S
C165 C166 1.381 . S
C166 H158 0.930 . S
C166 C162 1.390 . S
C166 C165 1.381 . S
N167 C160 1.286 . S
N167 C163 1.413 . S
H168 C173 0.930 . S
H169 C176 0.930 . S
H170 C178 0.930 . S
H171 C172 1.016 . S
C172 H171 1.016 . S
C172 N179 1.286 . S
C173 H168 0.930 . S
C173 C174 1.397 . S
C173 C175 1.361 . S
C174 C173 1.397 . S
C174 C178 1.390 . S
C175 C173 1.361 . S
C175 C176 1.393 1_545 S
C175 N179 1.413 1_545 S
C176 H169 0.930 . S
C176 C175 1.393 1_565 S
C176 C177 1.399 1_565 S
C177 C176 1.399 1_545 S
C177 C178 1.381 . S
C178 H170 0.930 . S
C178 C174 1.390 . S
C178 C177 1.381 . S
N179 C172 1.286 . S
N179 C175 1.413 1_565 S
H180 C185 0.930 . S
H181 C188 0.930 . S
H182 C190 0.930 . S
H183 C184 1.016 . S
C184 H183 1.016 . S
C184 N191 1.286 . S
C185 H180 0.930 . S
C185 C186 1.397 . S
C185 C187 1.361 . S
C186 C185 1.397 . S
C186 C190 1.390 . S
C187 C185 1.361 . S
C187 C188 1.393 . S
C187 N191 1.413 . S
C188 H181 0.930 . S
C188 C187 1.393 . S
C188 C189 1.399 . S
C189 C188 1.399 . S
C189 C190 1.381 . S
C190 H182 0.930 . S
C190 C186 1.390 . S
C190 C189 1.381 . S
N191 C184 1.286 . S
N191 C187 1.413 . S
H192 C200 0.929 . S
H193 C202 0.930 . S
H194 C204 0.930 . S
H195 C207 0.929 . S
H196 C210 0.930 . S
H197 C212 0.960 . S
H198 C212 0.960 . S
H199 C212 0.960 . S
C200 H192 0.929 . S
C200 C201 1.377 . S
C200 C202 1.384 . S
C201 C200 1.377 . S
C201 C207 1.390 . S
C202 H193 0.930 . S
C202 C200 1.384 . S
C202 C203 1.372 . S
C203 C202 1.372 . S
C203 C204 1.400 . S
C203 C208 1.490 . S
C204 H194 0.930 . S
C204 C203 1.400 . S
C204 C207 1.386 . S
H205 C221 0.930 . S
H206 C222 0.931 . S
C207 H195 0.929 . S
C207 C201 1.390 . S
C207 C204 1.386 . S
C208 C203 1.490 . S
C208 C210 1.395 . S
C208 C211 1.403 . S
H209 C215 0.930 . S
C210 H196 0.930 . S
C210 C208 1.395 . S
C210 C213 1.403 . S
C211 C208 1.403 . S
C211 C212 1.524 . S
C211 C215 1.400 . S
C212 H197 0.960 . S
C212 H198 0.960 . S
C212 H199 0.960 . S
C212 C211 1.524 . S
C213 C210 1.403 . S
C213 C214 1.392 . S
C213 C217 1.495 . S
C214 C213 1.392 . S
C214 C215 1.385 . S
C214 C216 1.478 . S
C215 H209 0.930 . S
C215 C211 1.400 . S
C215 C214 1.385 . S
C216 C214 1.478 . S
C216 C218 1.381 . S
C216 C222 1.383 . S
C217 C213 1.495 . S
C217 H223 0.959 . S
C217 H224 0.961 . S
C217 H225 0.960 . S
C218 C216 1.381 . S
C218 C219 1.394 . S
C218 H226 0.930 . S
C219 C218 1.394 . S
C219 C220 1.383 . S
C219 H227 0.929 . S
C220 C219 1.383 . S
C220 C221 1.377 . S
C221 H205 0.930 . S
C221 C220 1.377 . S
C221 C222 1.379 . S
C222 H206 0.931 . S
C222 C216 1.383 . S
C222 C221 1.379 . S
H223 C217 0.959 . S
H224 C217 0.961 . S
H225 C217 0.960 . S
H226 C218 0.930 . S
H227 C219 0.929 . S
H228 C236 0.929 . S
H229 C238 0.930 . S
H230 C240 0.930 . S
H231 C243 0.929 . S
H232 C246 0.930 . S
H233 C248 0.960 . S
H234 C248 0.960 . S
H235 C248 0.960 . S
C236 H228 0.929 . S
C236 C237 1.377 . S
C236 C238 1.384 . S
C237 C236 1.377 . S
C237 C243 1.390 . S
C238 H229 0.930 . S
C238 C236 1.384 . S
C238 C239 1.372 . S
C239 C238 1.372 . S
C239 C240 1.400 . S
C239 C244 1.490 . S
C240 H230 0.930 . S
C240 C239 1.400 . S
C240 C243 1.386 . S
H241 C257 0.930 . S
H242 C258 0.931 . S
C243 H231 0.929 . S
C243 C237 1.390 . S
C243 C240 1.386 . S
C244 C239 1.490 . S
C244 C246 1.395 . S
C244 C247 1.403 . S
H245 C251 0.930 . S
C246 H232 0.930 . S
C246 C244 1.395 . S
C246 C249 1.403 . S
C247 C244 1.403 . S
C247 C248 1.524 . S
C247 C251 1.400 . S
C248 H233 0.960 . S
C248 H234 0.960 . S
C248 H235 0.960 . S
C248 C247 1.524 . S
C249 C246 1.403 . S
C249 C250 1.392 . S
C249 C253 1.495 . S
C250 C249 1.392 . S
C250 C251 1.385 . S
C250 C252 1.478 . S
C251 H245 0.930 . S
C251 C247 1.400 . S
C251 C250 1.385 . S
C252 C250 1.478 . S
C252 C254 1.381 . S
C252 C258 1.383 . S
C253 C249 1.495 . S
C253 H259 0.959 . S
C253 H260 0.961 . S
C253 H261 0.960 . S
C254 C252 1.381 . S
C254 C255 1.394 . S
C254 H262 0.930 . S
C255 C254 1.394 . S
C255 C256 1.383 . S
C255 H263 0.929 . S
C256 C255 1.383 . S
C256 C257 1.377 . S
C257 H241 0.930 . S
C257 C256 1.377 . S
C257 C258 1.379 . S
C258 H242 0.931 . S
C258 C252 1.383 . S
C258 C257 1.379 . S
H259 C253 0.959 . S
H260 C253 0.961 . S
H261 C253 0.960 . S
H262 C254 0.930 . S
H263 C255 0.929 . S
H264 C272 0.929 . S
H265 C274 0.930 . S
H266 C276 0.930 . S
H267 C279 0.929 . S
H268 C282 0.930 . S
H269 C284 0.960 . S
H270 C284 0.960 . S
H271 C284 0.960 . S
C272 H264 0.929 . S
C272 C273 1.377 . S
C272 C274 1.384 . S
C273 C272 1.377 . S
C273 C279 1.390 . S
C274 H265 0.930 . S
C274 C272 1.384 . S
C274 C275 1.372 . S
C275 C274 1.372 . S
C275 C276 1.400 . S
C275 C280 1.490 . S
C276 H266 0.930 . S
C276 C275 1.400 . S
C276 C279 1.386 . S
H277 C293 0.930 . S
H278 C294 0.931 . S
C279 H267 0.929 . S
C279 C273 1.390 . S
C279 C276 1.386 . S
C280 C275 1.490 . S
C280 C282 1.395 . S
C280 C283 1.403 . S
H281 C287 0.930 . S
C282 H268 0.930 . S
C282 C280 1.395 . S
C282 C285 1.403 . S
C283 C280 1.403 . S
C283 C284 1.524 . S
C283 C287 1.400 . S
C284 H269 0.960 . S
C284 H270 0.960 . S
C284 H271 0.960 . S
C284 C283 1.524 . S
C285 C282 1.403 . S
C285 C286 1.392 . S
C285 C289 1.495 . S
C286 C285 1.392 . S
C286 C287 1.385 . S
C286 C288 1.478 . S
C287 H281 0.930 . S
C287 C283 1.400 . S
C287 C286 1.385 . S
C288 C286 1.478 . S
C288 C290 1.381 . S
C288 C294 1.383 . S
C289 C285 1.495 . S
C289 H295 0.959 . S
C289 H296 0.961 . S
C289 H297 0.960 . S
C290 C288 1.381 . S
C290 C291 1.394 . S
C290 H298 0.930 . S
C291 C290 1.394 . S
C291 C292 1.383 . S
C291 H299 0.929 . S
C292 C291 1.383 . S
C292 C293 1.377 . S
C293 H277 0.930 . S
C293 C292 1.377 . S
C293 C294 1.379 . S
C294 H278 0.931 . S
C294 C288 1.383 . S
C294 C293 1.379 . S
H295 C289 0.959 . S
H296 C289 0.961 . S
H297 C289 0.960 . S
H298 C290 0.930 . S
H299 C291 0.929 . S
H300 C308 0.929 . S
H301 C310 0.930 . S
H302 C312 0.930 . S
H303 C315 0.929 . S
H304 C318 0.930 . S
H305 C320 0.960 . S
H306 C320 0.960 . S
H307 C320 0.960 . S
C308 H300 0.929 . S
C308 C309 1.377 . S
C308 C310 1.384 . S
C309 C308 1.377 . S
C309 C315 1.390 . S
C310 H301 0.930 . S
C310 C308 1.384 . S
C310 C311 1.372 . S
C311 C310 1.372 . S
C311 C312 1.400 . S
C311 C316 1.490 . S
C312 H302 0.930 . S
C312 C311 1.400 . S
C312 C315 1.386 . S
H313 C329 0.930 . S
H314 C330 0.931 . S
C315 H303 0.929 . S
C315 C309 1.390 . S
C315 C312 1.386 . S
C316 C311 1.490 . S
C316 C318 1.395 . S
C316 C319 1.403 . S
H317 C323 0.930 . S
C318 H304 0.930 . S
C318 C316 1.395 . S
C318 C321 1.403 . S
C319 C316 1.403 . S
C319 C320 1.524 . S
C319 C323 1.400 . S
C320 H305 0.960 . S
C320 H306 0.960 . S
C320 H307 0.960 . S
C320 C319 1.524 . S
C321 C318 1.403 . S
C321 C322 1.392 . S
C321 C325 1.495 . S
C322 C321 1.392 . S
C322 C323 1.385 . S
C322 C324 1.478 . S
C323 H317 0.930 . S
C323 C319 1.400 . S
C323 C322 1.385 . S
C324 C322 1.478 . S
C324 C326 1.381 . S
C324 C330 1.383 . S
C325 C321 1.495 . S
C325 H331 0.959 . S
C325 H332 0.961 . S
C325 H333 0.960 . S
C326 C324 1.381 . S
C326 C327 1.394 . S
C326 H334 0.930 . S
C327 C326 1.394 . S
C327 C328 1.383 . S
C327 H335 0.929 . S
C328 C327 1.383 . S
C328 C329 1.377 . S
C329 H313 0.930 . S
C329 C328 1.377 . S
C329 C330 1.379 . S
C330 H314 0.931 . S
C330 C324 1.383 . S
C330 C329 1.379 . S
H331 C325 0.959 . S
H332 C325 0.961 . S
H333 C325 0.960 . S
H334 C326 0.930 . S
H335 C327 0.929 . S
H336 C344 0.929 . S
H337 C346 0.930 . S
H338 C348 0.930 . S
H339 C351 0.929 . S
H340 C354 0.930 . S
H341 C356 0.960 . S
H342 C356 0.960 . S
H343 C356 0.960 . S
C344 H336 0.929 . S
C344 C345 1.377 . S
C344 C346 1.384 . S
C345 C344 1.377 . S
C345 C351 1.390 . S
C346 H337 0.930 . S
C346 C344 1.384 . S
C346 C347 1.372 . S
C347 C346 1.372 . S
C347 C348 1.400 . S
C347 C352 1.490 . S
C348 H338 0.930 . S
C348 C347 1.400 . S
C348 C351 1.386 . S
H349 C365 0.930 . S
H350 C366 0.931 . S
C351 H339 0.929 . S
C351 C345 1.390 . S
C351 C348 1.386 . S
C352 C347 1.490 . S
C352 C354 1.395 . S
C352 C355 1.403 . S
H353 C359 0.930 . S
C354 H340 0.930 . S
C354 C352 1.395 . S
C354 C357 1.403 . S
C355 C352 1.403 . S
C355 C356 1.524 . S
C355 C359 1.400 . S
C356 H341 0.960 . S
C356 H342 0.960 . S
C356 H343 0.960 . S
C356 C355 1.524 . S
C357 C354 1.403 . S
C357 C358 1.392 . S
C357 C361 1.495 . S
C358 C357 1.392 . S
C358 C359 1.385 . S
C358 C360 1.478 . S
C359 H353 0.930 . S
C359 C355 1.400 . S
C359 C358 1.385 . S
C360 C358 1.478 . S
C360 C362 1.381 . S
C360 C366 1.383 . S
C361 C357 1.495 . S
C361 H367 0.959 . S
C361 H368 0.961 . S
C361 H369 0.960 . S
C362 C360 1.381 . S
C362 C363 1.394 . S
C362 H370 0.930 . S
C363 C362 1.394 . S
C363 C364 1.383 . S
C363 H371 0.929 . S
C364 C363 1.383 . S
C364 C365 1.377 . S
C365 H349 0.930 . S
C365 C364 1.377 . S
C365 C366 1.379 . S
C366 H350 0.931 . S
C366 C360 1.383 . S
C366 C365 1.379 . S
H367 C361 0.959 . S
H368 C361 0.961 . S
H369 C361 0.960 . S
H370 C362 0.930 . S
H371 C363 0.929 . S
H372 C380 0.929 . S
H373 C382 0.930 . S
H374 C384 0.930 . S
H375 C387 0.929 . S
H376 C390 0.930 . S
H377 C392 0.960 . S
H378 C392 0.960 . S
H379 C392 0.960 . S
C380 H372 0.929 . S
C380 C381 1.377 . S
C380 C382 1.384 . S
C381 C380 1.377 . S
C381 C387 1.390 . S
C382 H373 0.930 . S
C382 C380 1.384 . S
C382 C383 1.372 . S
C383 C382 1.372 . S
C383 C384 1.400 . S
C383 C388 1.490 . S
C384 H374 0.930 . S
C384 C383 1.400 . S
C384 C387 1.386 . S
H385 C401 0.930 . S
H386 C402 0.931 . S
C387 H375 0.929 . S
C387 C381 1.390 . S
C387 C384 1.386 . S
C388 C383 1.490 . S
C388 C390 1.395 . S
C388 C391 1.403 . S
H389 C395 0.930 . S
C390 H376 0.930 . S
C390 C388 1.395 . S
C390 C393 1.403 . S
C391 C388 1.403 . S
C391 C392 1.524 . S
C391 C395 1.400 . S
C392 H377 0.960 . S
C392 H378 0.960 . S
C392 H379 0.960 . S
C392 C391 1.524 . S
C393 C390 1.403 . S
C393 C394 1.392 . S
C393 C397 1.495 . S
C394 C393 1.392 . S
C394 C395 1.385 . S
C394 C396 1.478 . S
C395 H389 0.930 . S
C395 C391 1.400 . S
C395 C394 1.385 . S
C396 C394 1.478 . S
C396 C398 1.381 . S
C396 C402 1.383 . S
C397 C393 1.495 . S
C397 H403 0.959 . S
C397 H404 0.961 . S
C397 H405 0.960 . S
C398 C396 1.381 . S
C398 C399 1.394 . S
C398 H406 0.930 . S
C399 C398 1.394 . S
C399 C400 1.383 . S
C399 H407 0.929 . S
C400 C399 1.383 . S
C400 C401 1.377 . S
C401 H385 0.930 . S
C401 C400 1.377 . S
C401 C402 1.379 . S
C402 H386 0.931 . S
C402 C396 1.383 . S
C402 C401 1.379 . S
H403 C397 0.959 . S
H404 C397 0.961 . S
H405 C397 0.960 . S
H406 C398 0.930 . S
H407 C399 0.929 . S
H408 C416 0.929 . S
H409 C418 0.930 . S
H410 C420 0.930 . S
H411 C423 0.929 . S
H412 C426 0.930 . S
H413 C428 0.960 . S
H414 C428 0.960 . S
H415 C428 0.960 . S
C416 H408 0.929 . S
C416 C417 1.377 . S
C416 C418 1.384 . S
C417 C416 1.377 . S
C417 C423 1.390 . S
C418 H409 0.930 . S
C418 C416 1.384 . S
C418 C419 1.372 . S
C419 C418 1.372 . S
C419 C420 1.400 . S
C419 C424 1.490 . S
C420 H410 0.930 . S
C420 C419 1.400 . S
C420 C423 1.386 . S
H421 C437 0.930 . S
H422 C438 0.931 . S
C423 H411 0.929 . S
C423 C417 1.390 . S
C423 C420 1.386 . S
C424 C419 1.490 . S
C424 C426 1.395 . S
C424 C427 1.403 . S
H425 C431 0.930 . S
C426 H412 0.930 . S
C426 C424 1.395 . S
C426 C429 1.403 . S
C427 C424 1.403 . S
C427 C428 1.524 . S
C427 C431 1.400 . S
C428 H413 0.960 . S
C428 H414 0.960 . S
C428 H415 0.960 . S
C428 C427 1.524 . S
C429 C426 1.403 . S
C429 C430 1.392 . S
C429 C433 1.495 . S
C430 C429 1.392 . S
C430 C431 1.385 . S
C430 C432 1.478 . S
C431 H425 0.930 . S
C431 C427 1.400 . S
C431 C430 1.385 . S
C432 C430 1.478 . S
C432 C434 1.381 . S
C432 C438 1.383 . S
C433 C429 1.495 . S
C433 H439 0.959 . S
C433 H440 0.961 . S
C433 H441 0.960 . S
C434 C432 1.381 . S
C434 C435 1.394 . S
C434 H442 0.930 . S
C435 C434 1.394 . S
C435 C436 1.383 . S
C435 H443 0.929 . S
C436 C435 1.383 . S
C436 C437 1.377 . S
C437 H421 0.930 . S
C437 C436 1.377 . S
C437 C438 1.379 . S
C438 H422 0.931 . S
C438 C432 1.383 . S
C438 C437 1.379 . S
H439 C433 0.959 . S
H440 C433 0.961 . S
H441 C433 0.960 . S
H442 C434 0.930 . S
H443 C435 0.929 . S
H444 C452 0.929 . S
H445 C454 0.930 . S
H446 C456 0.930 . S
H447 C459 0.929 . S
H448 C462 0.930 . S
H449 C464 0.960 . S
H450 C464 0.960 . S
H451 C464 0.960 . S
C452 H444 0.929 . S
C452 C453 1.377 . S
C452 C454 1.384 . S
C453 C452 1.377 . S
C453 C459 1.390 . S
C454 H445 0.930 . S
C454 C452 1.384 . S
C454 C455 1.372 . S
C455 C454 1.372 . S
C455 C456 1.400 . S
C455 C460 1.490 . S
C456 H446 0.930 . S
C456 C455 1.400 . S
C456 C459 1.386 . S
H457 C473 0.930 . S
H458 C474 0.931 . S
C459 H447 0.929 . S
C459 C453 1.390 . S
C459 C456 1.386 . S
C460 C455 1.490 . S
C460 C462 1.395 . S
C460 C463 1.403 . S
H461 C467 0.930 . S
C462 H448 0.930 . S
C462 C460 1.395 . S
C462 C465 1.403 . S
C463 C460 1.403 . S
C463 C464 1.524 . S
C463 C467 1.400 . S
C464 H449 0.960 . S
C464 H450 0.960 . S
C464 H451 0.960 . S
C464 C463 1.524 . S
C465 C462 1.403 . S
C465 C466 1.392 . S
C465 C469 1.495 . S
C466 C465 1.392 . S
C466 C467 1.385 . S
C466 C468 1.478 . S
C467 H461 0.930 . S
C467 C463 1.400 . S
C467 C466 1.385 . S
C468 C466 1.478 . S
C468 C470 1.381 . S
C468 C474 1.383 . S
C469 C465 1.495 . S
C469 H475 0.959 . S
C469 H476 0.961 . S
C469 H477 0.960 . S
C470 C468 1.381 . S
C470 C471 1.394 . S
C470 H478 0.930 . S
C471 C470 1.394 . S
C471 C472 1.383 . S
C471 H479 0.929 . S
C472 C471 1.383 . S
C472 C473 1.377 . S
C473 H457 0.930 . S
C473 C472 1.377 . S
C473 C474 1.379 . S
C474 H458 0.931 . S
C474 C468 1.383 . S
C474 C473 1.379 . S
H475 C469 0.959 . S
H476 C469 0.961 . S
H477 C469 0.960 . S
H478 C470 0.930 . S
H479 C471 0.929 . S
H480 C488 0.929 . S
H481 C490 0.930 . S
H482 C492 0.930 . S
H483 C495 0.929 . S
H484 C498 0.930 . S
H485 C500 0.960 . S
H486 C500 0.960 . S
H487 C500 0.960 . S
C488 H480 0.929 . S
C488 C489 1.377 . S
C488 C490 1.384 . S
C489 C488 1.377 . S
C489 C495 1.390 . S
C490 H481 0.930 . S
C490 C488 1.384 . S
C490 C491 1.372 . S
C491 C490 1.372 . S
C491 C492 1.400 . S
C491 C496 1.490 . S
C492 H482 0.930 . S
C492 C491 1.400 . S
C492 C495 1.386 . S
H493 C509 0.930 . S
H494 C510 0.931 . S
C495 H483 0.929 . S
C495 C489 1.390 . S
C495 C492 1.386 . S
C496 C491 1.490 . S
C496 C498 1.395 . S
C496 C499 1.403 . S
H497 C503 0.930 . S
C498 H484 0.930 . S
C498 C496 1.395 . S
C498 C501 1.403 . S
C499 C496 1.403 . S
C499 C500 1.524 . S
C499 C503 1.400 . S
C500 H485 0.960 . S
C500 H486 0.960 . S
C500 H487 0.960 . S
C500 C499 1.524 . S
C501 C498 1.403 . S
C501 C502 1.392 . S
C501 C505 1.495 . S
C502 C501 1.392 . S
C502 C503 1.385 . S
C502 C504 1.478 . S
C503 H497 0.930 . S
C503 C499 1.400 . S
C503 C502 1.385 . S
C504 C502 1.478 . S
C504 C506 1.381 . S
C504 C510 1.383 . S
C505 C501 1.495 . S
C505 H511 0.959 . S
C505 H512 0.961 . S
C505 H513 0.960 . S
C506 C504 1.381 . S
C506 C507 1.394 . S
C506 H514 0.930 . S
C507 C506 1.394 . S
C507 C508 1.383 . S
C507 H515 0.929 . S
C508 C507 1.383 . S
C508 C509 1.377 . S
C509 H493 0.930 . S
C509 C508 1.377 . S
C509 C510 1.379 . S
C510 H494 0.931 . S
C510 C504 1.383 . S
C510 C509 1.379 . S
H511 C505 0.959 . S
H512 C505 0.961 . S
H513 C505 0.960 . S
H514 C506 0.930 . S
H515 C507 0.929 . S
H516 C524 0.929 . S
H517 C526 0.930 . S
H518 C528 0.930 . S
H519 C531 0.929 . S
H520 C534 0.930 . S
H521 C536 0.960 . S
H522 C536 0.960 . S
H523 C536 0.960 . S
C524 H516 0.929 . S
C524 C525 1.377 . S
C524 C526 1.384 . S
C525 C524 1.377 . S
C525 C531 1.390 . S
C526 H517 0.930 . S
C526 C524 1.384 . S
C526 C527 1.372 . S
C527 C526 1.372 . S
C527 C528 1.400 . S
C527 C532 1.490 . S
C528 H518 0.930 . S
C528 C527 1.400 . S
C528 C531 1.386 . S
H529 C545 0.930 . S
H530 C546 0.931 . S
C531 H519 0.929 . S
C531 C525 1.390 . S
C531 C528 1.386 . S
C532 C527 1.490 . S
C532 C534 1.395 . S
C532 C535 1.403 . S
H533 C539 0.930 . S
C534 H520 0.930 . S
C534 C532 1.395 . S
C534 C537 1.403 . S
C535 C532 1.403 . S
C535 C536 1.524 . S
C535 C539 1.400 . S
C536 H521 0.960 . S
C536 H522 0.960 . S
C536 H523 0.960 . S
C536 C535 1.524 . S
C537 C534 1.403 . S
C537 C538 1.392 . S
C537 C541 1.495 . S
C538 C537 1.392 . S
C538 C539 1.385 . S
C538 C540 1.478 . S
C539 H533 0.930 . S
C539 C535 1.400 . S
C539 C538 1.385 . S
C540 C538 1.478 . S
C540 C542 1.381 . S
C540 C546 1.383 . S
C541 C537 1.495 . S
C541 H547 0.959 . S
C541 H548 0.961 . S
C541 H549 0.960 . S
C542 C540 1.381 . S
C542 C543 1.394 . S
C542 H550 0.930 . S
C543 C542 1.394 . S
C543 C544 1.383 . S
C543 H551 0.929 . S
C544 C543 1.383 . S
C544 C545 1.377 . S
C545 H529 0.930 . S
C545 C544 1.377 . S
C545 C546 1.379 . S
C546 H530 0.931 . S
C546 C540 1.383 . S
C546 C545 1.379 . S
H547 C541 0.959 . S
H548 C541 0.961 . S
H549 C541 0.960 . S
H550 C542 0.930 . S
H551 C543 0.929 . S
H552 C560 0.929 . S
H553 C562 0.930 . S
H554 C564 0.930 . S
H555 C567 0.929 . S
H556 C570 0.930 . S
H557 C572 0.960 . S
H558 C572 0.960 . S
H559 C572 0.960 . S
C560 H552 0.929 . S
C560 C561 1.377 . S
C560 C562 1.384 . S
C561 C560 1.377 . S
C561 C567 1.390 . S
C562 H553 0.930 . S
C562 C560 1.384 . S
C562 C563 1.372 . S
C563 C562 1.372 . S
C563 C564 1.400 . S
C563 C568 1.490 . S
C564 H554 0.930 . S
C564 C563 1.400 . S
C564 C567 1.386 . S
H565 C581 0.930 . S
H566 C582 0.931 . S
C567 H555 0.929 . S
C567 C561 1.390 . S
C567 C564 1.386 . S
C568 C563 1.490 . S
C568 C570 1.395 . S
C568 C571 1.403 . S
H569 C575 0.930 . S
C570 H556 0.930 . S
C570 C568 1.395 . S
C570 C573 1.403 . S
C571 C568 1.403 . S
C571 C572 1.524 . S
C571 C575 1.400 . S
C572 H557 0.960 . S
C572 H558 0.960 . S
C572 H559 0.960 . S
C572 C571 1.524 . S
C573 C570 1.403 . S
C573 C574 1.392 . S
C573 C577 1.495 . S
C574 C573 1.392 . S
C574 C575 1.385 . S
C574 C576 1.478 . S
C575 H569 0.930 . S
C575 C571 1.400 . S
C575 C574 1.385 . S
C576 C574 1.478 . S
C576 C578 1.381 . S
C576 C582 1.383 . S
C577 C573 1.495 . S
C577 H583 0.959 . S
C577 H584 0.961 . S
C577 H585 0.960 . S
C578 C576 1.381 . S
C578 C579 1.394 . S
C578 H586 0.930 . S
C579 C578 1.394 . S
C579 C580 1.383 . S
C579 H587 0.929 . S
C580 C579 1.383 . S
C580 C581 1.377 . S
C581 H565 0.930 . S
C581 C580 1.377 . S
C581 C582 1.379 . S
C582 H566 0.931 . S
C582 C576 1.383 . S
C582 C581 1.379 . S
H583 C577 0.959 . S
H584 C577 0.961 . S
H585 C577 0.960 . S
H586 C578 0.930 . S
H587 C579 0.929 . S
H588 C596 0.929 . S
H589 C598 0.930 . S
H590 C600 0.930 . S
H591 C603 0.929 . S
H592 C606 0.930 . S
H593 C608 0.960 . S
H594 C608 0.960 . S
H595 C608 0.960 . S
C596 H588 0.929 . S
C596 C597 1.377 . S
C596 C598 1.384 . S
C597 C596 1.377 . S
C597 C603 1.390 . S
C598 H589 0.930 . S
C598 C596 1.384 . S
C598 C599 1.372 . S
C599 C598 1.372 . S
C599 C600 1.400 . S
C599 C604 1.490 . S
C600 H590 0.930 . S
C600 C599 1.400 . S
C600 C603 1.386 . S
H601 C617 0.930 . S
H602 C618 0.931 . S
C603 H591 0.929 . S
C603 C597 1.390 . S
C603 C600 1.386 . S
C604 C599 1.490 . S
C604 C606 1.395 . S
C604 C607 1.403 . S
H605 C611 0.930 . S
C606 H592 0.930 . S
C606 C604 1.395 . S
C606 C609 1.403 . S
C607 C604 1.403 . S
C607 C608 1.524 . S
C607 C611 1.400 . S
C608 H593 0.960 . S
C608 H594 0.960 . S
C608 H595 0.960 . S
C608 C607 1.524 . S
C609 C606 1.403 . S
C609 C610 1.392 . S
C609 C613 1.495 . S
C610 C609 1.392 . S
C610 C611 1.385 . S
C610 C612 1.478 . S
C611 H605 0.930 . S
C611 C607 1.400 . S
C611 C610 1.385 . S
C612 C610 1.478 . S
C612 C614 1.381 . S
C612 C618 1.383 . S
C613 C609 1.495 . S
C613 H619 0.959 . S
C613 H620 0.961 . S
C613 H621 0.960 . S
C614 C612 1.381 . S
C614 C615 1.394 . S
C614 H622 0.930 . S
C615 C614 1.394 . S
C615 C616 1.383 . S
C615 H623 0.929 . S
C616 C615 1.383 . S
C616 C617 1.377 . S
C617 H601 0.930 . S
C617 C616 1.377 . S
C617 C618 1.379 . S
C618 H602 0.931 . S
C618 C612 1.383 . S
C618 C617 1.379 . S
H619 C613 0.959 . S
H620 C613 0.961 . S
H621 C613 0.960 . S
H622 C614 0.930 . S
H623 C615 0.929 . S
H624 C632 0.929 . S
H625 C634 0.930 . S
H626 C636 0.930 . S
H627 C639 0.929 . S
H628 C642 0.930 . S
H629 C644 0.960 . S
H630 C644 0.960 . S
H631 C644 0.960 . S
C632 H624 0.929 . S
C632 C633 1.377 . S
C632 C634 1.384 . S
C633 C632 1.377 . S
C633 C639 1.390 . S
C634 H625 0.930 . S
C634 C632 1.384 . S
C634 C635 1.372 . S
C635 C634 1.372 . S
C635 C636 1.400 . S
C635 C640 1.490 . S
C636 H626 0.930 . S
C636 C635 1.400 . S
C636 C639 1.386 . S
H637 C653 0.930 . S
H638 C654 0.931 . S
C639 H627 0.929 . S
C639 C633 1.390 . S
C639 C636 1.386 . S
C640 C635 1.490 . S
C640 C642 1.395 . S
C640 C643 1.403 . S
H641 C647 0.930 1_556 S
C642 H628 0.930 . S
C642 C640 1.395 . S
C642 C645 1.403 . S
C643 C640 1.403 . S
C643 C644 1.524 . S
C643 C647 1.400 . S
C644 H629 0.960 . S
C644 H630 0.960 . S
C644 H631 0.960 . S
C644 C643 1.524 . S
C645 C642 1.403 . S
C645 C646 1.392 1_554 S
C645 C649 1.495 1_554 S
C646 C645 1.392 1_556 S
C646 C647 1.385 1_556 S
C646 C648 1.478 . S
C647 H641 0.930 1_554 S
C647 C643 1.400 . S
C647 C646 1.385 1_554 S
C648 C646 1.478 . S
C648 C650 1.381 . S
C648 C654 1.383 . S
C649 C645 1.495 1_556 S
C649 H655 0.959 1_556 S
C649 H656 0.961 1_455 S
C649 H657 0.960 . S
C650 C648 1.381 . S
C650 C651 1.394 . S
C650 H658 0.930 . S
C651 C650 1.394 . S
C651 C652 1.383 . S
C651 H659 0.929 . S
C652 C651 1.383 . S
C652 C653 1.377 . S
C653 H637 0.930 . S
C653 C652 1.377 . S
C653 C654 1.379 . S
C654 H638 0.931 . S
C654 C648 1.383 . S
C654 C653 1.379 . S
H655 C649 0.959 1_554 S
H656 C649 0.961 1_655 S
H657 C649 0.960 . S
H658 C650 0.930 . S
H659 C651 0.929 . S
H660 C668 0.929 . S
H661 C670 0.930 . S
H662 C672 0.930 . S
H663 C675 0.929 . S
H664 C678 0.930 . S
H665 C680 0.960 . S
H666 C680 0.960 1_545 S
H667 C680 0.960 . S
C668 H660 0.929 . S
C668 C669 1.377 . S
C668 C670 1.384 . S
C669 C668 1.377 . S
C669 C675 1.390 1_545 S
C670 H661 0.930 . S
C670 C668 1.384 . S
C670 C671 1.372 . S
C671 C670 1.372 . S
C671 C672 1.400 1_545 S
C671 C676 1.490 . S
C672 H662 0.930 . S
C672 C671 1.400 1_565 S
C672 C675 1.386 . S
H673 C689 0.930 1_565 S
H674 C690 0.931 1_565 S
C675 H663 0.929 . S
C675 C669 1.390 1_565 S
C675 C672 1.386 . S
C676 C671 1.490 . S
C676 C678 1.395 . S
C676 C679 1.403 . S
H677 C683 0.930 . S
C678 H664 0.930 . S
C678 C676 1.395 . S
C678 C681 1.403 . S
C679 C676 1.403 . S
C679 C680 1.524 1_545 S
C679 C683 1.400 . S
C680 H665 0.960 . S
C680 H666 0.960 1_565 S
C680 H667 0.960 . S
C680 C679 1.524 1_565 S
C681 C678 1.403 . S
C681 C682 1.392 . S
C681 C685 1.495 . S
C682 C681 1.392 . S
C682 C683 1.385 . S
C682 C684 1.478 . S
C683 H677 0.930 . S
C683 C679 1.400 . S
C683 C682 1.385 . S
C684 C682 1.478 . S
C684 C686 1.381 . S
C684 C690 1.383 . S
C685 C681 1.495 . S
C685 H691 0.959 . S
C685 H692 0.961 . S
C685 H693 0.960 . S
C686 C684 1.381 . S
C686 C687 1.394 . S
C686 H694 0.930 . S
C687 C686 1.394 . S
C687 C688 1.383 . S
C687 H695 0.929 . S
C688 C687 1.383 . S
C688 C689 1.377 . S
C689 H673 0.930 1_545 S
C689 C688 1.377 . S
C689 C690 1.379 . S
C690 H674 0.931 1_545 S
C690 C684 1.383 . S
C690 C689 1.379 . S
H691 C685 0.959 . S
H692 C685 0.961 . S
H693 C685 0.960 . S
H694 C686 0.930 . S
H695 C687 0.929 . S
H696 C704 0.929 . S
H697 C706 0.930 . S
H698 C708 0.930 . S
H699 C711 0.929 . S
H700 C714 0.930 . S
H701 C716 0.960 . S
H702 C716 0.960 . S
H703 C716 0.960 . S
C704 H696 0.929 . S
C704 C705 1.377 . S
C704 C706 1.384 . S
C705 C704 1.377 . S
C705 C711 1.390 . S
C706 H697 0.930 . S
C706 C704 1.384 . S
C706 C707 1.372 . S
C707 C706 1.372 . S
C707 C708 1.400 . S
C707 C712 1.490 . S
C708 H698 0.930 . S
C708 C707 1.400 . S
C708 C711 1.386 . S
H709 C725 0.930 . S
H710 C726 0.931 . S
C711 H699 0.929 . S
C711 C705 1.390 . S
C711 C708 1.386 . S
C712 C707 1.490 . S
C712 C714 1.395 . S
C712 C715 1.403 . S
H713 C719 0.930 . S
C714 H700 0.930 . S
C714 C712 1.395 . S
C714 C717 1.403 . S
C715 C712 1.403 . S
C715 C716 1.524 . S
C715 C719 1.400 . S
C716 H701 0.960 . S
C716 H702 0.960 . S
C716 H703 0.960 . S
C716 C715 1.524 . S
C717 C714 1.403 . S
C717 C718 1.392 . S
C717 C721 1.495 . S
C718 C717 1.392 . S
C718 C719 1.385 . S
C718 C720 1.478 . S
C719 H713 0.930 . S
C719 C715 1.400 . S
C719 C718 1.385 . S
C720 C718 1.478 . S
C720 C722 1.381 . S
C720 C726 1.383 . S
C721 C717 1.495 . S
C721 H727 0.959 . S
C721 H728 0.961 . S
C721 H729 0.960 . S
C722 C720 1.381 . S
C722 C723 1.394 . S
C722 H730 0.930 . S
C723 C722 1.394 . S
C723 C724 1.383 . S
C723 H731 0.929 . S
C724 C723 1.383 . S
C724 C725 1.377 . S
C725 H709 0.930 . S
C725 C724 1.377 . S
C725 C726 1.379 . S
C726 H710 0.931 . S
C726 C720 1.383 . S
C726 C725 1.379 . S
H727 C721 0.959 . S
H728 C721 0.961 . S
H729 C721 0.960 . S
H730 C722 0.930 . S
H731 C723 0.929 . S
H732 C740 0.929 . S
H733 C742 0.930 . S
H734 C744 0.930 . S
H735 C747 0.929 . S
H736 C750 0.930 . S
H737 C752 0.960 1_565 S
H738 C752 0.960 . S
H739 C752 0.960 1_565 S
C740 H732 0.929 . S
C740 C741 1.377 . S
C740 C742 1.384 . S
C741 C740 1.377 . S
C741 C747 1.390 1_545 S
C742 H733 0.930 . S
C742 C740 1.384 . S
C742 C743 1.372 . S
C743 C742 1.372 . S
C743 C744 1.400 1_545 S
C743 C748 1.490 . S
C744 H734 0.930 . S
C744 C743 1.400 1_565 S
C744 C747 1.386 . S
H745 C761 0.930 . S
H746 C762 0.931 . S
C747 H735 0.929 . S
C747 C741 1.390 1_565 S
C747 C744 1.386 . S
C748 C743 1.490 . S
C748 C750 1.395 . S
C748 C751 1.403 . S
H749 C755 0.930 . S
C750 H736 0.930 . S
C750 C748 1.395 . S
C750 C753 1.403 . S
C751 C748 1.403 . S
C751 C752 1.524 . S
C751 C755 1.400 . S
C752 H737 0.960 1_545 S
C752 H738 0.960 . S
C752 H739 0.960 1_545 S
C752 C751 1.524 . S
C753 C750 1.403 . S
C753 C754 1.392 . S
C753 C757 1.495 . S
C754 C753 1.392 . S
C754 C755 1.385 . S
C754 C756 1.478 . S
C755 H749 0.930 . S
C755 C751 1.400 . S
C755 C754 1.385 . S
C756 C754 1.478 . S
C756 C758 1.381 . S
C756 C762 1.383 1_545 S
C757 C753 1.495 . S
C757 H763 0.959 . S
C757 H764 0.961 . S
C757 H765 0.960 . S
C758 C756 1.381 . S
C758 C759 1.394 . S
C758 H766 0.930 . S
C759 C758 1.394 . S
C759 C760 1.383 . S
C759 H767 0.929 . S
C760 C759 1.383 . S
C760 C761 1.377 1_545 S
C761 H745 0.930 . S
C761 C760 1.377 1_565 S
C761 C762 1.379 . S
C762 H746 0.931 . S
C762 C756 1.383 1_565 S
C762 C761 1.379 . S
H763 C757 0.959 . S
H764 C757 0.961 . S
H765 C757 0.960 . S
H766 C758 0.930 . S
H767 C759 0.929 . S
H768 C776 0.929 . S
H769 C778 0.930 . S
H770 C780 0.930 . S
H771 C783 0.929 . S
H772 C786 0.930 . S
H773 C788 0.960 . S
H774 C788 0.960 . S
H775 C788 0.960 . S
C776 H768 0.929 . S
C776 C777 1.377 . S
C776 C778 1.384 . S
C777 C776 1.377 . S
C777 C783 1.390 . S
C778 H769 0.930 . S
C778 C776 1.384 . S
C778 C779 1.372 . S
C779 C778 1.372 . S
C779 C780 1.400 . S
C779 C784 1.490 . S
C780 H770 0.930 . S
C780 C779 1.400 . S
C780 C783 1.386 . S
H781 C797 0.930 . S
H782 C798 0.931 . S
C783 H771 0.929 . S
C783 C777 1.390 . S
C783 C780 1.386 . S
C784 C779 1.490 . S
C784 C786 1.395 . S
C784 C787 1.403 . S
H785 C791 0.932 . S
C786 H772 0.930 . S
C786 C784 1.395 . S
C786 C789 1.403 . S
C787 C784 1.403 . S
C787 C788 1.524 . S
C787 C791 1.400 . S
C788 H773 0.960 . S
C788 H774 0.960 . S
C788 H775 0.960 . S
C788 C787 1.524 . S
C789 C786 1.403 . S
C789 C790 1.392 1_556 S
C789 C793 1.495 1_556 S
C790 C789 1.392 1_554 S
C790 C791 1.385 1_554 S
C790 C792 1.478 . S
C791 H785 0.932 . S
C791 C787 1.400 . S
C791 C790 1.385 1_556 S
C792 C790 1.478 . S
C792 C794 1.381 . S
C792 C798 1.383 . S
C793 C789 1.495 1_554 S
C793 H799 0.959 1_554 S
C793 H800 0.961 . S
C793 H801 0.960 . S
C794 C792 1.381 . S
C794 C795 1.394 . S
C794 H802 0.930 . S
C795 C794 1.394 . S
C795 C796 1.383 . S
C795 H803 0.929 . S
C796 C795 1.383 . S
C796 C797 1.377 . S
C797 H781 0.930 . S
C797 C796 1.377 . S
C797 C798 1.379 . S
C798 H782 0.931 . S
C798 C792 1.383 . S
C798 C797 1.379 . S
H799 C793 0.959 1_556 S
H800 C793 0.961 . S
H801 C793 0.960 . S
H802 C794 0.930 . S
H803 C795 0.929 . S
H804 C812 0.929 . S
H805 C814 0.930 . S
H806 C816 0.930 . S
H807 C819 0.929 . S
H808 C822 0.930 . S
H809 C824 0.960 . S
H810 C824 0.960 1_655 S
H811 C824 0.960 . S
C812 H804 0.929 . S
C812 C813 1.377 . S
C812 C814 1.384 . S
C813 C812 1.377 . S
C813 C819 1.390 . S
C814 H805 0.930 . S
C814 C812 1.384 . S
C814 C815 1.372 . S
C815 C814 1.372 . S
C815 C816 1.400 . S
C815 C820 1.490 . S
C816 H806 0.930 . S
C816 C815 1.400 . S
C816 C819 1.386 . S
H817 C833 0.930 . S
H818 C834 0.931 . S
C819 H807 0.929 . S
C819 C813 1.390 . S
C819 C816 1.386 . S
C820 C815 1.490 . S
C820 C822 1.395 . S
C820 C823 1.403 . S
H821 C827 0.930 . S
C822 H808 0.930 . S
C822 C820 1.395 . S
C822 C825 1.403 . S
C823 C820 1.403 . S
C823 C824 1.524 . S
C823 C827 1.400 . S
C824 H809 0.960 . S
C824 H810 0.960 1_455 S
C824 H811 0.960 . S
C824 C823 1.524 . S
C825 C822 1.403 . S
C825 C826 1.392 . S
C825 C829 1.495 . S
C826 C825 1.392 . S
C826 C827 1.385 . S
C826 C828 1.478 . S
C827 H821 0.930 . S
C827 C823 1.400 . S
C827 C826 1.385 . S
C828 C826 1.478 . S
C828 C830 1.386 . S
C828 C834 1.383 . S
C829 C825 1.495 . S
C829 H835 0.959 . S
C829 H836 0.961 . S
C829 H837 0.960 . S
C830 C828 1.386 . S
C830 C831 1.391 1_455 S
C830 H838 0.929 1_455 S
C831 C830 1.391 1_655 S
C831 C832 1.383 1_655 S
C831 H839 0.929 . S
C832 C831 1.383 1_455 S
C832 C833 1.377 . S
C833 H817 0.930 . S
C833 C832 1.377 . S
C833 C834 1.379 . S
C834 H818 0.931 . S
C834 C828 1.383 . S
C834 C833 1.379 . S
H835 C829 0.959 . S
H836 C829 0.961 . S
H837 C829 0.960 . S
H838 C830 0.929 1_655 S
H839 C831 0.929 . S
C201 C6 0.740 . S
C220 C186 0.763 . S
C237 C59 1.934 . S
C256 C160 1.878 . S
C273 C86 1.241 . S
C292 C172 1.226 . S
C309 C15 0.288 . S
C328 C184 0.344 . S
C364 C162 1.824 . S
C345 C50 1.832 . S
C400 C174 1.101 . S
C381 C95 1.099 . S
C417 C46 1.263 . S
C436 C136 1.222 . S
C453 C99 3.390 . S
C472 C150 3.367 1_655 S
C489 C10 1.842 . S
C508 C126 1.835 1_565 S
C544 C138 1.076 . S
C525 C55 1.102 . S
C580 C148 2.574 . S
C561 C90 2.673 . S
C597 C19 1.936 . S
C616 C124 1.898 . S
C652 C153 1.739 . S
C633 C18 1.679 . S
C669 C49 1.431 . S
C688 C129 1.491 . S
C705 C98 1.510 . S
C724 C141 1.516 . S
C760 C177 1.526 . S
C741 C58 1.522 . S
C796 C189 1.276 . S
C777 C89 1.249 . S
C813 C9 1.414 . S
C832 C165 1.450 . S
