# Generated by pormake.
# Topology bpr, (3,3)-cn, num edge types: 1
# Building blocks:
#     Node 0, Type 0, BuildingBlock: WUSLED_clean_sbu_0, # of connection points: 3
#     Node 1, Type 0, BuildingBlock: WUSLED_clean_sbu_0, # of connection points: 3
#     Node 2, Type 0, BuildingBlock: WUSLED_clean_sbu_0, # of connection points: 3
#     Node 3, Type 0, BuildingBlock: WUSLED_clean_sbu_0, # of connection points: 3
#     Node 4, Type 0, BuildingBlock: WUSLED_clean_sbu_0, # of connection points: 3
#     Node 5, Type 0, BuildingBlock: WUSLED_clean_sbu_0, # of connection points: 3
#     Node 6, Type 0, BuildingBlock: WUSLED_clean_sbu_0, # of connection points: 3
#     Node 7, Type 0, BuildingBlock: WUSLED_clean_sbu_0, # of connection points: 3
#     Node 8, Type 0, BuildingBlock: WUSLED_clean_sbu_0, # of connection points: 3
#     Node 9, Type 0, BuildingBlock: WUSLED_clean_sbu_0, # of connection points: 3
#     Node 10, Type 0, BuildingBlock: WUSLED_clean_sbu_0, # of connection points: 3
#     Node 11, Type 0, BuildingBlock: WUSLED_clean_sbu_0, # of connection points: 3
#     Node 12, Type 0, BuildingBlock: WUSLED_clean_sbu_0, # of connection points: 3
#     Node 13, Type 0, BuildingBlock: WUSLED_clean_sbu_0, # of connection points: 3
#     Node 14, Type 0, BuildingBlock: WUSLED_clean_sbu_0, # of connection points: 3
#     Node 15, Type 0, BuildingBlock: WUSLED_clean_sbu_0, # of connection points: 3
#     Node 16, Type 0, BuildingBlock: WUSLED_clean_sbu_0, # of connection points: 3
#     Node 17, Type 0, BuildingBlock: WUSLED_clean_sbu_0, # of connection points: 3
#     Node 18, Type 0, BuildingBlock: WUSLED_clean_sbu_0, # of connection points: 3
#     Node 19, Type 0, BuildingBlock: WUSLED_clean_sbu_0, # of connection points: 3
#     Node 20, Type 0, BuildingBlock: WUSLED_clean_sbu_0, # of connection points: 3
#     Node 21, Type 0, BuildingBlock: WUSLED_clean_sbu_0, # of connection points: 3
#     Node 22, Type 0, BuildingBlock: WUSLED_clean_sbu_0, # of connection points: 3
#     Node 23, Type 0, BuildingBlock: WUSLED_clean_sbu_0, # of connection points: 3
#     Node 24, Type 0, BuildingBlock: WUSLED_clean_sbu_0, # of connection points: 3
#     Node 25, Type 0, BuildingBlock: WUSLED_clean_sbu_0, # of connection points: 3
#     Node 26, Type 0, BuildingBlock: WUSLED_clean_sbu_0, # of connection points: 3
#     Node 27, Type 0, BuildingBlock: WUSLED_clean_sbu_0, # of connection points: 3
#     Node 28, Type 0, BuildingBlock: WUSLED_clean_sbu_0, # of connection points: 3
#     Node 29, Type 0, BuildingBlock: WUSLED_clean_sbu_0, # of connection points: 3
#     Node 30, Type 0, BuildingBlock: WUSLED_clean_sbu_0, # of connection points: 3
#     Node 31, Type 0, BuildingBlock: WUSLED_clean_sbu_0, # of connection points: 3
#     Node 32, Type 0, BuildingBlock: WUSLED_clean_sbu_0, # of connection points: 3
#     Node 33, Type 0, BuildingBlock: WUSLED_clean_sbu_0, # of connection points: 3
#     Node 34, Type 0, BuildingBlock: WUSLED_clean_sbu_0, # of connection points: 3
#     Node 35, Type 0, BuildingBlock: WUSLED_clean_sbu_0, # of connection points: 3
#     Node 36, Type 0, BuildingBlock: WUSLED_clean_sbu_0, # of connection points: 3
#     Node 37, Type 0, BuildingBlock: WUSLED_clean_sbu_0, # of connection points: 3
#     Node 38, Type 0, BuildingBlock: WUSLED_clean_sbu_0, # of connection points: 3
#     Node 39, Type 0, BuildingBlock: WUSLED_clean_sbu_0, # of connection points: 3
#     Node 40, Type 0, BuildingBlock: WUSLED_clean_sbu_0, # of connection points: 3
#     Node 41, Type 0, BuildingBlock: WUSLED_clean_sbu_0, # of connection points: 3
#     Node 42, Type 0, BuildingBlock: WUSLED_clean_sbu_0, # of connection points: 3
#     Node 43, Type 0, BuildingBlock: WUSLED_clean_sbu_0, # of connection points: 3
#     Node 44, Type 0, BuildingBlock: WUSLED_clean_sbu_0, # of connection points: 3
#     Node 45, Type 0, BuildingBlock: WUSLED_clean_sbu_0, # of connection points: 3
#     Node 46, Type 0, BuildingBlock: WUSLED_clean_sbu_0, # of connection points: 3
#     Node 47, Type 0, BuildingBlock: WUSLED_clean_sbu_0, # of connection points: 3
#     Node 48, Type 1, BuildingBlock: PAMTOO_clean_linker_0, # of connection points: 3
#     Node 49, Type 1, BuildingBlock: PAMTOO_clean_linker_0, # of connection points: 3
#     Node 50, Type 1, BuildingBlock: PAMTOO_clean_linker_0, # of connection points: 3
#     Node 51, Type 1, BuildingBlock: PAMTOO_clean_linker_0, # of connection points: 3
#     Node 52, Type 1, BuildingBlock: PAMTOO_clean_linker_0, # of connection points: 3
#     Node 53, Type 1, BuildingBlock: PAMTOO_clean_linker_0, # of connection points: 3
#     Node 54, Type 1, BuildingBlock: PAMTOO_clean_linker_0, # of connection points: 3
#     Node 55, Type 1, BuildingBlock: PAMTOO_clean_linker_0, # of connection points: 3
#     Node 56, Type 1, BuildingBlock: PAMTOO_clean_linker_0, # of connection points: 3
#     Node 57, Type 1, BuildingBlock: PAMTOO_clean_linker_0, # of connection points: 3
#     Node 58, Type 1, BuildingBlock: PAMTOO_clean_linker_0, # of connection points: 3
#     Node 59, Type 1, BuildingBlock: PAMTOO_clean_linker_0, # of connection points: 3
#     Node 60, Type 1, BuildingBlock: PAMTOO_clean_linker_0, # of connection points: 3
#     Node 61, Type 1, BuildingBlock: PAMTOO_clean_linker_0, # of connection points: 3
#     Node 62, Type 1, BuildingBlock: PAMTOO_clean_linker_0, # of connection points: 3
#     Node 63, Type 1, BuildingBlock: PAMTOO_clean_linker_0, # of connection points: 3
#     Node 64, Type 1, BuildingBlock: PAMTOO_clean_linker_0, # of connection points: 3
#     Node 65, Type 1, BuildingBlock: PAMTOO_clean_linker_0, # of connection points: 3
#     Node 66, Type 1, BuildingBlock: PAMTOO_clean_linker_0, # of connection points: 3
#     Node 67, Type 1, BuildingBlock: PAMTOO_clean_linker_0, # of connection points: 3
#     Node 68, Type 1, BuildingBlock: PAMTOO_clean_linker_0, # of connection points: 3
#     Node 69, Type 1, BuildingBlock: PAMTOO_clean_linker_0, # of connection points: 3
#     Node 70, Type 1, BuildingBlock: PAMTOO_clean_linker_0, # of connection points: 3
#     Node 71, Type 1, BuildingBlock: PAMTOO_clean_linker_0, # of connection points: 3
#     Node 72, Type 1, BuildingBlock: PAMTOO_clean_linker_0, # of connection points: 3
#     Node 73, Type 1, BuildingBlock: PAMTOO_clean_linker_0, # of connection points: 3
#     Node 74, Type 1, BuildingBlock: PAMTOO_clean_linker_0, # of connection points: 3
#     Node 75, Type 1, BuildingBlock: PAMTOO_clean_linker_0, # of connection points: 3
#     Node 76, Type 1, BuildingBlock: PAMTOO_clean_linker_0, # of connection points: 3
#     Node 77, Type 1, BuildingBlock: PAMTOO_clean_linker_0, # of connection points: 3
#     Node 78, Type 1, BuildingBlock: PAMTOO_clean_linker_0, # of connection points: 3
#     Node 79, Type 1, BuildingBlock: PAMTOO_clean_linker_0, # of connection points: 3
#     Node 80, Type 1, BuildingBlock: PAMTOO_clean_linker_0, # of connection points: 3
#     Node 81, Type 1, BuildingBlock: PAMTOO_clean_linker_0, # of connection points: 3
#     Node 82, Type 1, BuildingBlock: PAMTOO_clean_linker_0, # of connection points: 3
#     Node 83, Type 1, BuildingBlock: PAMTOO_clean_linker_0, # of connection points: 3
#     Node 84, Type 1, BuildingBlock: PAMTOO_clean_linker_0, # of connection points: 3
#     Node 85, Type 1, BuildingBlock: PAMTOO_clean_linker_0, # of connection points: 3
#     Node 86, Type 1, BuildingBlock: PAMTOO_clean_linker_0, # of connection points: 3
#     Node 87, Type 1, BuildingBlock: PAMTOO_clean_linker_0, # of connection points: 3
#     Node 88, Type 1, BuildingBlock: PAMTOO_clean_linker_0, # of connection points: 3
#     Node 89, Type 1, BuildingBlock: PAMTOO_clean_linker_0, # of connection points: 3
#     Node 90, Type 1, BuildingBlock: PAMTOO_clean_linker_0, # of connection points: 3
#     Node 91, Type 1, BuildingBlock: PAMTOO_clean_linker_0, # of connection points: 3
#     Node 92, Type 1, BuildingBlock: PAMTOO_clean_linker_0, # of connection points: 3
#     Node 93, Type 1, BuildingBlock: PAMTOO_clean_linker_0, # of connection points: 3
#     Node 94, Type 1, BuildingBlock: PAMTOO_clean_linker_0, # of connection points: 3
#     Node 95, Type 1, BuildingBlock: PAMTOO_clean_linker_0, # of connection points: 3
#     Edge 96, Type (0, 1), None
#     Edge 97, Type (0, 1), None
#     Edge 98, Type (0, 1), None
#     Edge 99, Type (0, 1), None
#     Edge 100, Type (0, 1), None
#     Edge 101, Type (0, 1), None
#     Edge 102, Type (0, 1), None
#     Edge 103, Type (0, 1), None
#     Edge 104, Type (0, 1), None
#     Edge 105, Type (0, 1), None
#     Edge 106, Type (0, 1), None
#     Edge 107, Type (0, 1), None
#     Edge 108, Type (0, 1), None
#     Edge 109, Type (0, 1), None
#     Edge 110, Type (0, 1), None
#     Edge 111, Type (0, 1), None
#     Edge 112, Type (0, 1), None
#     Edge 113, Type (0, 1), None
#     Edge 114, Type (0, 1), None
#     Edge 115, Type (0, 1), None
#     Edge 116, Type (0, 1), None
#     Edge 117, Type (0, 1), None
#     Edge 118, Type (0, 1), None
#     Edge 119, Type (0, 1), None
#     Edge 120, Type (0, 1), None
#     Edge 121, Type (0, 1), None
#     Edge 122, Type (0, 1), None
#     Edge 123, Type (0, 1), None
#     Edge 124, Type (0, 1), None
#     Edge 125, Type (0, 1), None
#     Edge 126, Type (0, 1), None
#     Edge 127, Type (0, 1), None
#     Edge 128, Type (0, 1), None
#     Edge 129, Type (0, 1), None
#     Edge 130, Type (0, 1), None
#     Edge 131, Type (0, 1), None
#     Edge 132, Type (0, 1), None
#     Edge 133, Type (0, 1), None
#     Edge 134, Type (0, 1), None
#     Edge 135, Type (0, 1), None
#     Edge 136, Type (0, 1), None
#     Edge 137, Type (0, 1), None
#     Edge 138, Type (0, 1), None
#     Edge 139, Type (0, 1), None
#     Edge 140, Type (0, 1), None
#     Edge 141, Type (0, 1), None
#     Edge 142, Type (0, 1), None
#     Edge 143, Type (0, 1), None
#     Edge 144, Type (0, 1), None
#     Edge 145, Type (0, 1), None
#     Edge 146, Type (0, 1), None
#     Edge 147, Type (0, 1), None
#     Edge 148, Type (0, 1), None
#     Edge 149, Type (0, 1), None
#     Edge 150, Type (0, 1), None
#     Edge 151, Type (0, 1), None
#     Edge 152, Type (0, 1), None
#     Edge 153, Type (0, 1), None
#     Edge 154, Type (0, 1), None
#     Edge 155, Type (0, 1), None
#     Edge 156, Type (0, 1), None
#     Edge 157, Type (0, 1), None
#     Edge 158, Type (0, 1), None
#     Edge 159, Type (0, 1), None
#     Edge 160, Type (0, 1), None
#     Edge 161, Type (0, 1), None
#     Edge 162, Type (0, 1), None
#     Edge 163, Type (0, 1), None
#     Edge 164, Type (0, 1), None
#     Edge 165, Type (0, 1), None
#     Edge 166, Type (0, 1), None
#     Edge 167, Type (0, 1), None
#     Edge 168, Type (0, 1), None
#     Edge 169, Type (0, 1), None
#     Edge 170, Type (0, 1), None
#     Edge 171, Type (0, 1), None
#     Edge 172, Type (0, 1), None
#     Edge 173, Type (0, 1), None
#     Edge 174, Type (0, 1), None
#     Edge 175, Type (0, 1), None
#     Edge 176, Type (0, 1), None
#     Edge 177, Type (0, 1), None
#     Edge 178, Type (0, 1), None
#     Edge 179, Type (0, 1), None
#     Edge 180, Type (0, 1), None
#     Edge 181, Type (0, 1), None
#     Edge 182, Type (0, 1), None
#     Edge 183, Type (0, 1), None
#     Edge 184, Type (0, 1), None
#     Edge 185, Type (0, 1), None
#     Edge 186, Type (0, 1), None
#     Edge 187, Type (0, 1), None
#     Edge 188, Type (0, 1), None
#     Edge 189, Type (0, 1), None
#     Edge 190, Type (0, 1), None
#     Edge 191, Type (0, 1), None
#     Edge 192, Type (0, 1), None
#     Edge 193, Type (0, 1), None
#     Edge 194, Type (0, 1), None
#     Edge 195, Type (0, 1), None
#     Edge 196, Type (0, 1), None
#     Edge 197, Type (0, 1), None
#     Edge 198, Type (0, 1), None
#     Edge 199, Type (0, 1), None
#     Edge 200, Type (0, 1), None
#     Edge 201, Type (0, 1), None
#     Edge 202, Type (0, 1), None
#     Edge 203, Type (0, 1), None
#     Edge 204, Type (0, 1), None
#     Edge 205, Type (0, 1), None
#     Edge 206, Type (0, 1), None
#     Edge 207, Type (0, 1), None
#     Edge 208, Type (0, 1), None
#     Edge 209, Type (0, 1), None
#     Edge 210, Type (0, 1), None
#     Edge 211, Type (0, 1), None
#     Edge 212, Type (0, 1), None
#     Edge 213, Type (0, 1), None
#     Edge 214, Type (0, 1), None
#     Edge 215, Type (0, 1), None
#     Edge 216, Type (0, 1), None
#     Edge 217, Type (0, 1), None
#     Edge 218, Type (0, 1), None
#     Edge 219, Type (0, 1), None
#     Edge 220, Type (0, 1), None
#     Edge 221, Type (0, 1), None
#     Edge 222, Type (0, 1), None
#     Edge 223, Type (0, 1), None
#     Edge 224, Type (0, 1), None
#     Edge 225, Type (0, 1), None
#     Edge 226, Type (0, 1), None
#     Edge 227, Type (0, 1), None
#     Edge 228, Type (0, 1), None
#     Edge 229, Type (0, 1), None
#     Edge 230, Type (0, 1), None
#     Edge 231, Type (0, 1), None
#     Edge 232, Type (0, 1), None
#     Edge 233, Type (0, 1), None
#     Edge 234, Type (0, 1), None
#     Edge 235, Type (0, 1), None
#     Edge 236, Type (0, 1), None
#     Edge 237, Type (0, 1), None
#     Edge 238, Type (0, 1), None
#     Edge 239, Type (0, 1), None
# Relax obj value: 0.037
# Max RMSD: 0.103
# Mean RMSD: 0.052
data_MOF--net-bpr--node1-WUSLED_clean_sbu_0--node2-PAMTOO_clean_linker_0--edge1-none
_symmetry_space_group_name_H-M    P1
_symmetry_Int_Tables_number       1
_symmetry_cell_setting            triclinic
loop_
_symmetry_equiv_pos_as_xyz
'x, y, z'
_cell_length_a     55.777213
_cell_length_b     59.474082
_cell_length_c     61.177555
_cell_angle_alpha  92.158354
_cell_angle_beta   100.11473
_cell_angle_gamma 104.74638
loop_
_atom_site_label
_atom_site_type_symbol
_atom_site_fract_x
_atom_site_fract_y
_atom_site_fract_z
_atom_type_partial_charge
C0 C 0.95093 0.40382 0.25047 0.0
C1 C 0.94617 0.39627 0.27126 0.0
C2 C 0.91275 0.4166 0.26936 0.0
C3 C 0.92701 0.4025 0.28058 0.0
C4 C 0.91789 0.42392 0.24874 0.0
C5 C 0.93669 0.41773 0.23955 0.0
U6 U 1.00891 0.38024 0.24132 0.0
O7 O 1.01134 0.36061 0.2106 0.0
O8 O 0.0376 0.39568 0.22141 0.0
C9 C 0.03013 0.37745 0.20668 0.0
C10 C 0.96945 0.39728 0.23858 0.0
C11 C 0.04222 0.37587 0.18708 0.0
C12 C 0.03982 0.37581 0.14694 0.0
C13 C 0.02827 0.37523 0.16556 0.0
C14 C 0.07955 0.37686 0.17082 0.0
C15 C 0.06561 0.37671 0.14919 0.0
C16 C 0.06794 0.37643 0.18959 0.0
C17 C 0.04255 0.35874 0.29678 0.0
C18 C 0.08391 0.35496 0.31342 0.0
C19 C 0.04985 0.34638 0.33413 0.0
C20 C 0.03369 0.35145 0.31608 0.0
C21 C 0.07524 0.34856 0.33317 0.0
C22 C 0.06763 0.36007 0.29527 0.0
C23 C 0.02567 0.36748 0.2802 0.0
O24 O 0.99285 0.41032 0.24333 0.0
O25 O 0.96764 0.375 0.23454 0.0
O26 O 1.00935 0.3528 0.26462 0.0
O27 O 0.034 0.38856 0.27409 0.0
H28 H 0.95679 0.38528 0.27995 0.0
H29 H 0.92296 0.3959 0.29616 0.0
H30 H 0.9068 0.43408 0.2393 0.0
H31 H 0.93976 0.42352 0.22343 0.0
H32 H 0.02867 0.37639 0.13069 0.0
H33 H 1.00853 0.37511 0.16317 0.0
H34 H 0.09958 0.37821 0.17328 0.0
H35 H 0.07917 0.37709 0.20607 0.0
H36 H 0.10351 0.35687 0.31238 0.0
H37 H 0.04281 0.34201 0.34927 0.0
H38 H 0.01443 0.3507 0.31759 0.0
H39 H 0.07481 0.3659 0.28053 0.0
C40 C 0.94159 0.78642 0.57885 0.0
C41 C 0.94898 0.79022 0.60222 0.0
C42 C 0.94038 0.74795 0.60546 0.0
C43 C 0.94835 0.77112 0.61541 0.0
C44 C 0.93221 0.74444 0.58223 0.0
C45 C 0.93292 0.76337 0.56917 0.0
U46 U 0.95042 0.8513 0.56493 0.0
O47 O 0.96663 0.87004 0.5381 0.0
O48 O 0.92684 0.86631 0.54 0.0
C49 C 0.9455 0.87526 0.52981 0.0
C50 C 0.9425 0.80559 0.56374 0.0
C51 C 0.93919 0.87745 0.5056 0.0
C52 C 0.92726 0.86161 0.46682 0.0
C53 C 0.93509 0.85883 0.48946 0.0
C54 C 0.92804 0.9017 0.47615 0.0
C55 C 0.92341 0.88298 0.45988 0.0
C56 C 0.93602 0.89896 0.4987 0.0
C57 C 0.96579 0.89519 0.61848 0.0
C58 C 0.95605 0.93159 0.62745 0.0
C59 C 0.97309 0.91038 0.65666 0.0
C60 C 0.97486 0.89398 0.64091 0.0
C61 C 0.96312 0.92928 0.6504 0.0
C62 C 0.95702 0.91438 0.61152 0.0
C63 C 0.96135 0.8737 0.60437 0.0
O64 O 0.92438 0.81618 0.5626 0.0
O65 O 0.96469 0.81999 0.56356 0.0
O66 O 0.97891 0.87098 0.59353 0.0
O67 O 0.93813 0.86445 0.59367 0.0
H68 H 0.95563 0.80784 0.61019 0.0
H69 H 0.95496 0.77444 0.63326 0.0
H70 H 0.92611 0.72695 0.57399 0.0
H71 H 0.92701 0.75994 0.55125 0.0
H72 H 0.92348 0.84678 0.45471 0.0
H73 H 0.93733 0.84207 0.49436 0.0
H74 H 0.92491 0.91828 0.47158 0.0
H75 H 0.93905 0.91358 0.51092 0.0
H76 H 0.94871 0.94596 0.62177 0.0
H77 H 0.97791 0.90677 0.6738 0.0
H78 H 0.98132 0.87907 0.64653 0.0
H79 H 0.94979 0.9154 0.59407 0.0
C80 C 0.41313 0.63054 0.67179 0.0
C81 C 0.38824 0.63176 0.67091 0.0
C82 C 0.382 0.63055 0.63039 0.0
C83 C 0.37278 0.63184 0.65029 0.0
C84 C 0.40748 0.63123 0.63156 0.0
C85 C 0.42292 0.63121 0.65217 0.0
U86 U 0.43133 0.61933 0.73454 0.0
O87 O 0.44491 0.5887 0.74431 0.0
O88 O 0.47019 0.6243 0.7525 0.0
C89 C 0.46783 0.6017 0.75256 0.0
C90 C 0.42798 0.62452 0.69183 0.0
C91 C 0.48378 0.59327 0.77036 0.0
C92 C 0.50839 0.5656 0.78152 0.0
C93 C 0.49143 0.57313 0.76562 0.0
C94 C 0.51127 0.59919 0.8064 0.0
C95 C 0.51812 0.57827 0.80239 0.0
C96 C 0.49398 0.60634 0.79081 0.0
C97 C 0.38364 0.63317 0.772 0.0
C98 C 0.36924 0.62276 0.80625 0.0
C99 C 0.34868 0.64613 0.78163 0.0
C100 C 0.36533 0.64553 0.76726 0.0
C101 C 0.35008 0.63426 0.80096 0.0
C102 C 0.38597 0.62216 0.79179 0.0
C103 C 0.39774 0.63031 0.75455 0.0
O104 O 0.44049 0.64135 0.7073 0.0
O105 O 0.41739 0.60508 0.69985 0.0
O106 O 0.3949 0.60919 0.74542 0.0
O107 O 0.41973 0.64507 0.75445 0.0
H108 H 0.38033 0.63109 0.68591 0.0
H109 H 0.35309 0.63118 0.64973 0.0
H110 H 0.4149 0.62982 0.6165 0.0
H111 H 0.44207 0.63004 0.6526 0.0
H112 H 0.51344 0.54971 0.77761 0.0
H113 H 0.48432 0.56323 0.74952 0.0
H114 H 0.5194 0.61039 0.82166 0.0
H115 H 0.48909 0.62236 0.79458 0.0
H116 H 0.3707 0.61357 0.82118 0.0
H117 H 0.33392 0.65487 0.77707 0.0
H118 H 0.36321 0.65395 0.75189 0.0
H119 H 0.39998 0.61248 0.79562 0.0
C120 C 0.58878 0.22814 0.1095 0.0
C121 C 0.58493 0.22481 0.13141 0.0
C122 C 0.59292 0.26702 0.13954 0.0
C123 C 0.58704 0.24416 0.14634 0.0
C124 C 0.59777 0.27014 0.11798 0.0
C125 C 0.5956 0.25093 0.10314 0.0
U126 U 0.57554 0.16277 0.08919 0.0
O127 O 0.55683 0.14373 0.05649 0.0
O128 O 0.59656 0.14554 0.06998 0.0
C129 C 0.57711 0.13747 0.05362 0.0
C130 C 0.58608 0.20857 0.09275 0.0
C131 C 0.58271 0.13711 0.03111 0.0
C132 C 0.59732 0.15657 0.99996 0.0
C133 C 0.58901 0.15744 0.02021 0.0
C134 C 0.59215 0.11495 1.00106 0.0
C135 C 0.59955 0.13544 0.99049 0.0
C136 C 0.58369 0.11581 0.02117 0.0
C137 C 0.56181 0.11715 0.13114 0.0
C138 C 0.57576 0.08181 0.13489 0.0
C139 C 0.55568 0.09542 0.16281 0.0
C140 C 0.55201 0.1136 0.15039 0.0
C141 C 0.5693 0.08005 0.15619 0.0
C142 C 0.57234 0.10049 0.12255 0.0
C143 C 0.56555 0.14053 0.12372 0.0
O144 O 0.60336 0.19701 0.09623 0.0
O145 O 0.56315 0.19499 0.08545 0.0
O146 O 0.54772 0.14431 0.10835 0.0
O147 O 0.5886 0.15042 0.12103 0.0
H148 H 0.57987 0.20736 0.13678 0.0
H149 H 0.58316 0.24121 0.16288 0.0
H150 H 0.60225 0.28746 0.11228 0.0
H151 H 0.59885 0.25389 0.08642 0.0
H152 H 0.60311 0.17264 0.99222 0.0
H153 H 0.58842 0.17403 0.02771 0.0
H154 H 0.59394 0.0985 0.99429 0.0
H155 H 0.57891 0.09994 0.02947 0.0
H156 H 0.58516 0.07003 0.12833 0.0
H157 H 0.54967 0.09556 0.17858 0.0
H158 H 0.54366 0.12628 0.1571 0.0
H159 H 0.5797 0.10293 0.10731 0.0
C160 C 0.99994 0.62741 0.24587 0.0
C161 C 1.00118 0.63511 0.22454 0.0
C162 C 0.95505 0.62268 0.21414 0.0
C163 C 0.97884 0.63268 0.20874 0.0
C164 C 0.95418 0.61384 0.23499 0.0
C165 C 0.97636 0.61627 0.25067 0.0
U166 U 0.07188 0.64227 0.27089 0.0
O167 O 0.09285 0.66231 0.30265 0.0
O168 O 0.09144 0.62517 0.29672 0.0
C169 C 0.1001 0.64427 0.31034 0.0
C170 C 0.02232 0.63146 0.26399 0.0
C171 C 0.10253 0.64142 0.33426 0.0
C172 C 0.08664 0.62429 0.36608 0.0
C173 C 0.08214 0.63045 0.34408 0.0
C174 C 0.13153 0.64115 0.36862 0.0
C175 C 0.11152 0.6288 0.37814 0.0
C176 C 0.12704 0.6474 0.34691 0.0
C177 C 0.11821 0.65389 0.2293 0.0
C178 C 0.16344 0.67096 0.23387 0.0
C179 C 0.13899 0.65197 0.19815 0.0
C180 C 0.11727 0.64686 0.20707 0.0
C181 C 0.16207 0.66429 0.21135 0.0
C182 C 0.14145 0.66559 0.24297 0.0
C183 C 0.09401 0.64947 0.2366 0.0
O184 O 0.03526 0.61579 0.26472 0.0
O185 O 0.03665 0.653 0.26856 0.0
O186 O 0.08969 0.6664 0.24845 0.0
O187 O 0.08556 0.62863 0.24309 0.0
H188 H 0.01923 0.64361 0.22039 0.0
H189 H 0.98008 0.63962 0.19274 0.0
H190 H 0.93618 0.60609 0.23958 0.0
H191 H 0.975 0.61009 0.26696 0.0
H192 H 0.07095 0.6146 0.37305 0.0
H193 H 0.06307 0.62562 0.33445 0.0
H194 H 0.15086 0.64491 0.3776 0.0
H195 H 0.14299 0.65581 0.33956 0.0
H196 H 0.18115 0.68092 0.24406 0.0
H197 H 0.1376 0.6472 0.18061 0.0
H198 H 0.09946 0.63793 0.19634 0.0
H199 H 0.1424 0.67115 0.26023 0.0
C200 C 0.65794 0.73754 0.44748 0.0
C201 C 0.65484 0.73818 0.42431 0.0
C202 C 0.66882 0.70251 0.42134 0.0
C203 C 0.6604 0.72089 0.41137 0.0
C204 C 0.67276 0.70262 0.44466 0.0
C205 C 0.66737 0.71995 0.45753 0.0
U206 U 0.63086 0.78964 0.46378 0.0
O207 O 0.60811 0.78908 0.49016 0.0
O208 O 0.64606 0.81338 0.49442 0.0
C209 C 0.62625 0.80482 0.50337 0.0
C210 C 0.65067 0.75406 0.46188 0.0
C211 C 0.6205 0.81916 0.52111 0.0
C212 C 0.61702 0.82384 0.56021 0.0
C213 C 0.61939 0.81016 0.54194 0.0
C214 C 0.61617 0.85577 0.53702 0.0
C215 C 0.61583 0.84698 0.55812 0.0
C216 C 0.61844 0.84199 0.51866 0.0
C217 C 0.60923 0.81892 0.40719 0.0
C218 C 0.5965 0.85114 0.3899 0.0
C219 C 0.60387 0.82033 0.36705 0.0
C220 C 0.60974 0.80906 0.38614 0.0
C221 C 0.59736 0.84149 0.36887 0.0
C222 C 0.60236 0.83987 0.40898 0.0
C223 C 0.61713 0.80793 0.42726 0.0
O224 O 0.66413 0.77592 0.46437 0.0
O225 O 0.62639 0.75176 0.46045 0.0
O226 O 0.60154 0.79075 0.43468 0.0
O227 O 0.63978 0.81577 0.4397 0.0
H228 H 0.64769 0.7517 0.41623 0.0
H229 H 0.65753 0.72161 0.39346 0.0
H230 H 0.67884 0.6887 0.45296 0.0
H231 H 0.66989 0.71921 0.47544 0.0
H232 H 0.61739 0.8167 0.57626 0.0
H233 H 0.62127 0.79268 0.54431 0.0
H234 H 0.61552 0.87362 0.53493 0.0
H235 H 0.61942 0.8494 0.50284 0.0
H236 H 0.59196 0.8677 0.3916 0.0
H237 H 0.60517 0.81294 0.35098 0.0
H238 H 0.61527 0.79297 0.38454 0.0
H239 H 0.60206 0.84775 0.42515 0.0
C240 C 0.53676 0.44107 0.75024 0.0
C241 C 0.53757 0.43148 0.72907 0.0
C242 C 0.58318 0.44935 0.73511 0.0
C243 C 0.5607 0.4355 0.72161 0.0
C244 C 0.58188 0.45925 0.75591 0.0
C245 C 0.559 0.45525 0.76331 0.0
U246 U 0.46454 0.41926 0.75138 0.0
O247 O 0.44719 0.39696 0.7755 0.0
O248 O 0.44334 0.43296 0.77357 0.0
C249 C 0.43741 0.41309 0.78263 0.0
C250 C 0.51402 0.43522 0.76045 0.0
C251 C 0.43103 0.41272 0.80503 0.0
C252 C 0.44077 0.41683 0.84572 0.0
C253 C 0.44888 0.41755 0.8251 0.0
C254 C 0.39732 0.40573 0.82611 0.0
C255 C 0.41478 0.4112 0.84643 0.0
C256 C 0.40535 0.40674 0.80582 0.0
C257 C 0.41797 0.39933 0.69344 0.0
C258 C 0.37225 0.38968 0.68211 0.0
C259 C 0.39791 0.38337 0.65559 0.0
C260 C 0.41959 0.39192 0.67188 0.0
C261 C 0.374 0.38207 0.66048 0.0
C262 C 0.39414 0.39819 0.69858 0.0
C263 C 0.44188 0.4086 0.70946 0.0
O264 O 0.49876 0.44888 0.75737 0.0
O265 O 0.50211 0.41301 0.75973 0.0
O266 O 0.45033 0.39375 0.72198 0.0
O267 O 0.4459 0.42933 0.71989 0.0
H268 H 0.52062 0.4203 0.71875 0.0
H269 H 0.56117 0.42715 0.7057 0.0
H270 H 0.59886 0.4695 0.76692 0.0
H271 H 0.55889 0.46262 0.77975 0.0
H272 H 0.45476 0.42126 0.861 0.0
H273 H 0.46889 0.42209 0.82482 0.0
H274 H 0.37718 0.40063 0.82577 0.0
H275 H 0.39127 0.40269 0.79056 0.0
H276 H 0.35399 0.38881 0.68633 0.0
H277 H 0.39989 0.37802 0.63903 0.0
H278 H 0.43782 0.39287 0.66756 0.0
H279 H 0.3925 0.40389 0.71514 0.0
C280 C 0.85157 0.19764 0.98565 0.0
C281 C 0.85039 0.17385 0.9868 0.0
C282 C 0.85742 0.17925 0.02746 0.0
C283 C 0.85336 0.16469 0.0077 0.0
C284 C 0.86006 0.2032 0.02599 0.0
C285 C 0.8572 0.21225 1.00535 0.0
U286 U 0.83582 0.21368 0.92244 0.0
O287 O 0.83999 0.25022 0.91556 0.0
O288 O 0.80205 0.22604 0.91123 0.0
C289 C 0.81549 0.24733 0.90972 0.0
C290 C 0.84375 0.20779 0.96494 0.0
C291 C 0.80683 0.2594 0.89067 0.0
C292 C 0.78007 0.28381 0.87581 0.0
C293 C 0.78676 0.26924 0.89177 0.0
C294 C 0.81336 0.27853 0.85716 0.0
C295 C 0.7936 0.28915 0.85851 0.0
C296 C 0.81973 0.26362 0.87296 0.0
C297 C 0.85246 0.17275 0.87643 0.0
C298 C 0.83862 0.14896 0.84134 0.0
C299 C 0.87558 0.14568 0.86734 0.0
C300 C 0.87284 0.16304 0.88181 0.0
C301 C 0.85798 0.13804 0.84741 0.0
C302 C 0.83585 0.1663 0.85587 0.0
C303 C 0.84692 0.18743 0.89328 0.0
O304 O 0.86083 0.22139 0.95556 0.0
O305 O 0.82296 0.19655 0.95107 0.0
O306 O 0.8245 0.18254 0.89875 0.0
O307 O 0.86365 0.20622 0.90363 0.0
H308 H 0.8459 0.16226 0.97171 0.0
H309 H 0.85094 0.14609 0.00839 0.0
H310 H 0.86285 0.2148 0.04083 0.0
H311 H 0.85796 0.23061 1.00478 0.0
H312 H 0.76446 0.29108 0.8773 0.0
H313 H 0.77665 0.26618 0.90543 0.0
H314 H 0.82489 0.28249 0.84461 0.0
H315 H 0.83544 0.25631 0.8719 0.0
H316 H 0.82446 0.14268 0.82635 0.0
H317 H 0.89003 0.13676 0.87262 0.0
H318 H 0.88556 0.16771 0.89782 0.0
H319 H 0.81995 0.1737 0.85164 0.0
C320 C 0.16188 1.00477 0.34428 0.0
C321 C 0.16367 0.02792 0.35181 0.0
C322 C 0.11886 0.02244 0.33583 0.0
C323 C 0.14215 0.03667 0.34775 0.0
C324 C 0.1176 0.99953 0.32834 0.0
C325 C 0.13877 0.99089 0.33244 0.0
U326 U 0.23202 1.00044 0.35981 0.0
O327 O 0.24547 0.97303 0.37759 0.0
O328 O 0.24904 0.97718 0.3426 0.0
C329 C 0.25353 0.96594 0.36029 0.0
C330 C 0.18286 0.99358 0.3486 0.0
C331 C 0.25228 0.94103 0.35666 0.0
C332 C 0.23001 0.90013 0.34698 0.0
C333 C 0.22956 0.92339 0.35121 0.0
C334 C 0.27572 0.9121 0.35369 0.0
C335 C 0.25309 0.89423 0.34814 0.0
C336 C 0.27524 0.93516 0.35802 0.0
C337 C 0.28768 0.05699 0.37517 0.0
C338 C 0.33211 0.06256 0.39134 0.0
C339 C 0.31675 0.09553 0.37918 0.0
C340 C 0.29256 0.08083 0.37227 0.0
C341 C 0.3366 0.0866 0.38899 0.0
C342 C 0.30765 0.04772 0.38442 0.0
C343 C 0.26124 0.04308 0.36929 0.0
O344 O 0.19784 0.99579 0.33402 0.0
O345 O 0.19469 0.99426 0.3693 0.0
O346 O 0.25208 0.03013 0.3844 0.0
O347 O 0.25357 0.03299 0.3489 0.0
H348 H 0.18137 0.03894 0.36112 0.0
H349 H 0.14352 0.05421 0.35433 0.0
H350 H 0.09988 0.98793 0.31973 0.0
H351 H 0.13691 0.97298 0.32662 0.0
H352 H 0.21232 0.88672 0.34248 0.0
H353 H 0.21161 0.9276 0.34995 0.0
H354 H 0.29387 0.90844 0.35447 0.0
H355 H 0.29297 0.9486 0.36211 0.0
H356 H 0.34722 0.05549 0.39923 0.0
H357 H 0.31983 0.11407 0.37752 0.0
H358 H 0.2774 0.08828 0.36522 0.0
H359 H 0.30419 0.0293 0.38681 0.0
C360 C 0.1847 0.93186 0.67374 0.0
C361 C 0.15942 0.9305 0.67468 0.0
C362 C 0.15095 0.88839 0.67794 0.0
C363 C 0.14272 0.90897 0.67679 0.0
C364 C 0.176 0.88977 0.67617 0.0
C365 C 0.19267 0.91129 0.67413 0.0
U366 U 0.20641 0.99824 0.66619 0.0
O367 O 0.23821 0.02541 0.68645 0.0
O368 O 0.23771 0.01692 0.65079 0.0
C369 C 0.24917 0.03024 0.66921 0.0
C370 C 0.20361 0.95437 0.67348 0.0
C371 C 0.27631 0.04212 0.67223 0.0
C372 C 0.32016 0.04293 0.67187 0.0
C373 C 0.29517 0.03031 0.67226 0.0
C374 C 0.30753 0.07895 0.67233 0.0
C375 C 0.3263 0.06734 0.6712 0.0
C376 C 0.28289 0.06649 0.67289 0.0
C377 C 0.15163 0.02845 0.64905 0.0
C378 C 0.1512 0.0678 0.63996 0.0
C379 C 0.11211 0.0391 0.64173 0.0
C380 C 0.12539 0.0226 0.64701 0.0
C381 C 0.12483 0.06178 0.63822 0.0
C382 C 0.16466 0.05112 0.64541 0.0
C383 C 0.16399 0.00997 0.65501 0.0
O384 O 0.20501 0.9625 0.65394 0.0
O385 O 0.20554 0.97069 0.68928 0.0
O386 O 0.17559 0.01081 0.67579 0.0
O387 O 0.1756 1.00273 0.64036 0.0
H388 H 0.15278 0.94611 0.67436 0.0
H389 H 0.12349 0.90849 0.6781 0.0
H390 H 0.18305 0.87441 0.67739 0.0
H391 H 0.21212 0.91196 0.67348 0.0
H392 H 0.33425 0.03355 0.6707 0.0
H393 H 0.2904 0.01144 0.67165 0.0
H394 H 0.31168 0.09771 0.6717 0.0
H395 H 0.26862 0.07593 0.67278 0.0
H396 H 0.16132 0.08543 0.63773 0.0
H397 H 0.09184 0.03427 0.64077 0.0
H398 H 0.1151 1.00519 0.64977 0.0
H399 H 0.185 0.0559 0.647 0.0
C400 C 0.25483 0.07534 0.90244 0.0
C401 C 0.2306 0.07257 0.90728 0.0
C402 C 0.23546 0.11452 0.90567 0.0
C403 C 0.22091 0.09213 0.9089 0.0
C404 C 0.25978 0.11693 0.90134 0.0
C405 C 0.26935 0.09762 0.89982 0.0
U406 U 0.26981 0.01316 0.89565 0.0
O407 O 0.27909 1.00369 0.86368 0.0
O408 O 0.30822 0.01053 0.8942 0.0
C409 C 0.30277 1.00538 0.87249 0.0
C410 C 0.26496 0.05573 0.89719 0.0
C411 C 0.31481 0.98919 0.86272 0.0
C412 C 0.33136 0.97767 0.83096 0.0
C413 C 0.32059 0.99285 0.84145 0.0
C414 C 0.33213 0.9558 0.86357 0.0
C415 C 0.33664 0.95866 0.8417 0.0
C416 C 0.32116 0.97085 0.87397 0.0
C417 C 0.22598 0.96146 0.92387 0.0
C418 C 0.20695 0.92008 0.92433 0.0
C419 C 0.19182 0.94829 0.94386 0.0
C420 C 0.20984 0.96643 0.9374 0.0
C421 C 0.18993 0.92506 0.93692 0.0
C422 C 0.22493 0.93823 0.91782 0.0
C423 C 0.24157 0.98045 0.91397 0.0
O424 O 0.28041 0.04878 0.91261 0.0
O425 O 0.2513 0.03929 0.88179 0.0
O426 O 0.23501 0.98473 0.89316 0.0
O427 O 0.2635 0.99338 0.92493 0.0
H428 H 0.21899 0.05538 0.90909 0.0
H429 H 0.20195 0.08962 0.91205 0.0
H430 H 0.27123 0.13384 0.89854 0.0
H431 H 0.28794 0.10005 0.89576 0.0
H432 H 0.33406 0.97992 0.81399 0.0
H433 H 0.31604 0.00714 0.83264 0.0
H434 H 0.33567 0.94096 0.87206 0.0
H435 H 0.31708 0.96781 0.89045 0.0
H436 H 0.20531 0.90224 0.91843 0.0
H437 H 0.17837 0.95242 0.95308 0.0
H438 H 0.21027 0.98433 0.94195 0.0
H439 H 0.23716 0.93418 0.9072 0.0
C440 C 0.23996 1.00611 0.16885 0.0
C441 C 0.22766 0.98468 0.15651 0.0
C442 C 0.19965 0.97451 0.18331 0.0
C443 C 0.20759 0.96923 0.16349 0.0
C444 C 0.21219 0.996 0.19567 0.0
C445 C 0.23211 0.01161 0.18847 0.0
U446 U 0.29278 0.02024 0.13535 0.0
O447 O 0.30434 0.04919 0.1145 0.0
O448 O 0.33113 0.04398 0.14356 0.0
C449 C 0.32733 0.05622 0.12645 0.0
C450 C 0.26058 0.02308 0.16128 0.0
C451 C 0.34072 0.08145 0.1288 0.0
C452 C 0.35404 0.1204 0.14831 0.0
C453 C 0.33824 0.09743 0.1452 0.0
C454 C 0.37404 0.11197 0.11813 0.0
C455 C 0.37235 0.12779 0.13498 0.0
C456 C 0.35839 0.08911 0.1151 0.0
C457 C 0.29369 0.95861 0.10661 0.0
C458 C 0.31782 0.9418 0.0843 0.0
C459 C 0.28392 0.9167 0.09903 0.0
C460 C 0.27907 0.93618 0.10869 0.0
C461 C 0.30343 0.9193 0.08697 0.0
C462 C 0.31295 0.96151 0.09413 0.0
C463 C 0.28857 0.97792 0.1189 0.0
O464 O 0.28353 0.02137 0.1689 0.0
O465 O 0.25668 0.02635 0.13994 0.0
O466 O 0.277 0.99205 0.10815 0.0
O467 O 0.30376 0.98727 0.13775 0.0
H468 H 0.23331 0.98004 0.14126 0.0
H469 H 0.19804 0.9533 0.15298 0.0
H470 H 0.20686 1.0007 0.21104 0.0
H471 H 0.2414 0.02806 0.19825 0.0
H472 H 0.35281 0.13209 0.16183 0.0
H473 H 0.32492 0.09194 0.15612 0.0
H474 H 0.38846 0.11687 0.10813 0.0
H475 H 0.36086 0.07703 0.10251 0.0
H476 H 0.33333 0.94403 0.07543 0.0
H477 H 0.27299 0.89948 0.10163 0.0
H478 H 0.26424 0.93367 0.11839 0.0
H479 H 0.32451 0.97878 0.09252 0.0
C480 C 0.43645 0.27826 0.07664 0.0
C481 C 0.44398 0.28155 0.10003 0.0
C482 C 0.43451 0.23909 0.10247 0.0
C483 C 0.44305 0.26211 0.11281 0.0
C484 C 0.42636 0.23612 0.07923 0.0
C485 C 0.42737 0.25537 0.06657 0.0
U486 U 0.44597 0.34355 0.06321 0.0
O487 O 0.46308 0.36236 0.03682 0.0
O488 O 0.42308 0.35868 0.03777 0.0
C489 C 0.44214 0.36766 0.02804 0.0
C490 C 0.43784 0.29777 0.06187 0.0
C491 C 0.43658 0.37004 1.00378 0.0
C492 C 0.42497 0.35433 0.96494 0.0
C493 C 0.43201 0.35132 0.98765 0.0
C494 C 0.42752 0.39487 0.97412 0.0
C495 C 0.42232 0.37603 0.95788 0.0
C496 C 0.43468 0.39188 0.99677 0.0
C497 C 0.4607 0.38724 0.11696 0.0
C498 C 0.45455 0.42544 0.12528 0.0
C499 C 0.46728 0.40265 0.15504 0.0
C500 C 0.46788 0.38539 0.1396 0.0
C501 C 0.46039 0.42291 0.14829 0.0
C502 C 0.45445 0.4075 0.10961 0.0
C503 C 0.4562 0.36583 0.1027 0.0
O504 O 0.41976 0.30843 0.06051 0.0
O505 O 0.46016 0.31216 0.06214 0.0
O506 O 0.47398 0.36296 0.09221 0.0
O507 O 0.4331 0.35687 0.09158 0.0
H508 H 0.45102 0.29902 0.10831 0.0
H509 H 0.44983 0.26504 0.13066 0.0
H510 H 0.42002 0.21877 0.07066 0.0
H511 H 0.42143 0.25232 0.04863 0.0
H512 H 0.42085 0.33943 0.95285 0.0
H513 H 0.4333 0.33431 0.99261 0.0
H514 H 0.42542 0.41174 0.96944 0.0
H515 H 0.43811 0.4066 0.00896 0.0
H516 H 0.4493 0.44078 0.11941 0.0
H517 H 0.47083 0.39909 0.17234 0.0
H518 H 0.47231 0.36968 0.14552 0.0
H519 H 0.4486 0.40899 0.09201 0.0
C520 C 0.04448 0.94539 0.2492 0.0
C521 C 0.0472 0.93619 0.22861 0.0
C522 C 0.09287 0.95283 0.23874 0.0
C523 C 0.07137 0.93984 0.22342 0.0
C524 C 0.08973 0.96212 0.2591 0.0
C525 C 0.06579 0.95854 0.2642 0.0
U526 U 0.97234 0.92603 0.25732 0.0
O527 O 0.9646 0.90741 0.28686 0.0
O528 O 0.96167 0.94372 0.28488 0.0
C529 C 0.9613 0.92592 0.29704 0.0
C530 C 0.02059 0.93978 0.25714 0.0
C531 C 0.94685 0.92317 0.31494 0.0
C532 C 0.94798 0.92436 0.3548 0.0
C533 C 0.96039 0.92571 0.33683 0.0
C534 C 0.908 0.91696 0.32899 0.0
C535 C 0.92159 0.92004 0.35123 0.0
C536 C 0.92059 0.91879 0.31099 0.0
C537 C 0.91872 0.9053 0.20107 0.0
C538 C 0.87439 0.89662 0.18409 0.0
C539 C 0.90489 0.89175 0.16181 0.0
C540 C 0.9242 0.89918 0.18051 0.0
C541 C 0.8798 0.89037 0.16343 0.0
C542 C 0.89374 0.90402 0.20281 0.0
C543 C 0.93934 0.91281 0.22043 0.0
O544 O 1.00621 0.95427 0.25528 0.0
O545 O 1.0085 0.91778 0.25747 0.0
O546 O 0.94952 0.89797 0.23156 0.0
O547 O 0.94603 0.9344 0.22958 0.0
H548 H 0.0309 0.92566 0.217 0.0
H549 H 0.07333 0.93196 0.20781 0.0
H550 H 0.10596 0.97163 0.27141 0.0
H551 H 0.06402 0.9654 0.28034 0.0
H552 H 0.9593 0.92736 0.37143 0.0
H553 H 0.98079 0.92924 0.3401 0.0
H554 H 0.8876 0.91295 0.32534 0.0
H555 H 0.90989 0.91671 0.29412 0.0
H556 H 0.85514 0.89559 0.1858 0.0
H557 H 0.90959 0.88735 0.14604 0.0
H558 H 0.94348 0.9002 0.17892 0.0
H559 H 0.88921 0.90864 0.2186 0.0
C560 C 0.08802 0.73004 0.61489 0.0
C561 C 0.08379 0.72592 0.63653 0.0
C562 C 0.0924 0.76797 0.64589 0.0
C563 C 0.08596 0.74483 0.65196 0.0
C564 C 0.09737 0.7718 0.62449 0.0
C565 C 0.09513 0.75305 0.60919 0.0
U566 U 0.07585 0.66618 0.5876 0.0
O567 O 0.09939 0.65558 0.56594 0.0
O568 O 0.05903 0.65386 0.5524 0.0
C569 C 0.08056 0.65072 0.54877 0.0
C570 C 0.08555 0.71133 0.59752 0.0
C571 C 0.08326 0.64182 0.52702 0.0
C572 C 0.09115 0.65034 0.49014 0.0
C573 C 0.08249 0.65586 0.50918 0.0
C574 C 0.09909 0.61549 0.50578 0.0
C575 C 0.10076 0.63078 0.48883 0.0
C576 C 0.09065 0.62116 0.52494 0.0
C577 C 0.06052 0.61515 0.62649 0.0
C578 C 0.07079 0.57816 0.63132 0.0
C579 C 0.05494 0.59627 0.65983 0.0
C580 C 0.05225 0.61402 0.64659 0.0
C581 C 0.06518 0.57832 0.65296 0.0
C582 C 0.06895 0.59679 0.61829 0.0
C583 C 0.06514 0.63807 0.61811 0.0
O584 O 0.10295 0.69988 0.60011 0.0
O585 O 0.06277 0.69806 0.58918 0.0
O586 O 0.04743 0.64305 0.60342 0.0
O587 O 0.08837 0.64799 0.6159 0.0
H588 H 0.07842 0.70824 0.64131 0.0
H589 H 0.0818 0.74137 0.66834 0.0
H590 H 0.10209 0.78936 0.61934 0.0
H591 H 0.09861 0.75656 0.59261 0.0
H592 H 0.09204 0.66224 0.47716 0.0
H593 H 0.07693 0.67195 0.51063 0.0
H594 H 0.10617 0.60019 0.50497 0.0
H595 H 0.09131 0.61016 0.53864 0.0
H596 H 0.07804 0.5646 0.62489 0.0
H597 H 0.05088 0.59845 0.67624 0.0
H598 H 0.04598 0.62825 0.65323 0.0
H599 H 0.07548 0.59758 0.60261 0.0
C600 C 0.97158 0.62747 0.83117 0.0
C601 C 0.96012 0.64571 0.82714 0.0
C602 C 0.93679 0.63516 0.85729 0.0
C603 C 0.94289 0.6495 0.84014 0.0
C604 C 0.94867 0.61712 0.86137 0.0
C605 C 0.9659 0.61342 0.84847 0.0
U606 U 1.00463 0.62325 0.77941 0.0
O607 O 0.0134 0.59053 0.77048 0.0
O608 O 0.04422 0.62235 0.78104 0.0
C609 C 0.03789 0.59994 0.7745 0.0
C610 C 0.98911 0.6219 0.81768 0.0
C611 C 0.05229 0.59125 0.75957 0.0
C612 C 0.06574 0.55832 0.74564 0.0
C613 C 0.05348 0.56793 0.76021 0.0
C614 C 0.07753 0.59586 0.73079 0.0
C615 C 0.07729 0.57202 0.73036 0.0
C616 C 0.065 0.60537 0.74514 0.0
C617 C 0.97489 0.65559 0.72813 0.0
C618 C 0.97214 0.66442 0.68947 0.0
C619 C 0.94228 0.67301 0.71072 0.0
C620 C 0.95429 0.66462 0.72943 0.0
C621 C 0.95083 0.67258 0.69051 0.0
C622 C 0.98417 0.656 0.70823 0.0
C623 C 0.98512 0.6441 0.74698 0.0
O624 O 0.97911 0.60597 0.80088 0.0
O625 O 1.0075 0.63893 0.81342 0.0
O626 O 1.00567 0.65486 0.76138 0.0
O627 O 0.9752 0.62209 0.74971 0.0
H628 H 0.9642 0.65675 0.81385 0.0
H629 H 0.93392 0.66344 0.83657 0.0
H630 H 0.94442 0.6056 0.87427 0.0
H631 H 0.97459 0.59924 0.85183 0.0
H632 H 0.06465 0.53987 0.74527 0.0
H633 H 0.04402 0.55681 0.77146 0.0
H634 H 0.08583 0.60669 0.71875 0.0
H635 H 0.06457 0.62344 0.74442 0.0
H636 H 0.97856 0.66335 0.67384 0.0
H637 H 0.92548 0.67867 0.71168 0.0
H638 H 0.94683 0.66428 0.74465 0.0
H639 H 0.99997 0.64889 0.70694 0.0
C640 C 0.07802 0.23998 0.44433 0.0
C641 C 0.07544 0.23366 0.4215 0.0
C642 C 0.09248 0.27447 0.41491 0.0
C643 C 0.08253 0.25077 0.40694 0.0
C644 C 0.09435 0.28072 0.43764 0.0
C645 C 0.08715 0.26365 0.45215 0.0
U646 U 0.06722 0.17689 0.46049 0.0
O647 O 0.08702 0.16476 0.49023 0.0
O648 O 0.04502 0.15662 0.48336 0.0
C649 C 0.06573 0.15469 0.49641 0.0
C650 C 0.0735 0.22227 0.46059 0.0
C651 C 0.06547 0.14274 0.51709 0.0
C652 C 0.08249 0.14139 0.55639 0.0
C653 C 0.08193 0.15323 0.53698 0.0
C654 C 0.05038 0.10831 0.53611 0.0
C655 C 0.06687 0.11863 0.55608 0.0
C656 C 0.04957 0.12028 0.51684 0.0
C657 C 0.06573 0.13482 0.4085 0.0
C658 C 0.05261 0.09337 0.39684 0.0
C659 C 0.07595 0.12092 0.37479 0.0
C660 C 0.07684 0.13913 0.38983 0.0
C661 C 0.06372 0.09801 0.37805 0.0
C662 C 0.05378 0.11186 0.41228 0.0
C663 C 0.06625 0.15542 0.42232 0.0
O664 O 0.05114 0.20714 0.45713 0.0
O665 O 0.09205 0.21257 0.46647 0.0
O666 O 0.08728 0.16514 0.43649 0.0
O667 O 0.04556 0.15672 0.42919 0.0
H668 H 0.0687 0.21548 0.41509 0.0
H669 H 0.08116 0.24535 0.38956 0.0
H670 H 0.10227 0.29873 0.44434 0.0
H671 H 0.08952 0.26888 0.46972 0.0
H672 H 0.09521 0.15004 0.57151 0.0
H673 H 0.09434 0.17061 0.53751 0.0
H674 H 0.03804 0.09089 0.53544 0.0
H675 H 0.03685 0.11179 0.50163 0.0
H676 H 0.0424 0.07577 0.39908 0.0
H677 H 0.08382 0.12482 0.35993 0.0
H678 H 0.08574 0.1568 0.38656 0.0
H679 H 0.04487 0.1084 0.42661 0.0
C680 C 0.49907 0.42764 0.26679 0.0
C681 C 0.49035 0.41173 0.24789 0.0
C682 C 0.47225 0.44002 0.22763 0.0
C683 C 0.47679 0.41773 0.22865 0.0
C684 C 0.48028 0.45563 0.24683 0.0
C685 C 0.49362 0.44945 0.26628 0.0
U686 U 0.5461 0.39818 0.30127 0.0
O687 O 0.5725 0.41425 0.33213 0.0
O688 O 0.54288 0.38191 0.33284 0.0
C689 C 0.56166 0.39849 0.34435 0.0
C690 C 0.5132 0.42176 0.28744 0.0
C691 C 0.57798 0.3925 0.36356 0.0
C692 C 0.59355 0.3988 0.4036 0.0
C693 C 0.57662 0.40133 0.38475 0.0
C694 C 0.61314 0.37786 0.38038 0.0
C695 C 0.61223 0.38742 0.40154 0.0
C696 C 0.59599 0.38027 0.36144 0.0
C697 C 0.57336 0.36516 0.25613 0.0
C698 C 0.60942 0.35572 0.24506 0.0
C699 C 0.57014 0.3494 0.21836 0.0
C700 C 0.55905 0.3574 0.23474 0.0
C701 C 0.59551 0.34898 0.22337 0.0
C702 C 0.59837 0.36379 0.26141 0.0
C703 C 0.56319 0.37698 0.27213 0.0
O704 O 0.50681 0.39986 0.29204 0.0
O705 O 0.53773 0.43104 0.2915 0.0
O706 O 0.57469 0.39845 0.28063 0.0
O707 O 0.54269 0.36661 0.27945 0.0
H708 H 0.49409 0.39472 0.24793 0.0
H709 H 0.47035 0.40505 0.21427 0.0
H710 H 0.47713 0.47285 0.24655 0.0
H711 H 0.50003 0.46185 0.28087 0.0
H712 H 0.59299 0.40691 0.41959 0.0
H713 H 0.56301 0.41106 0.38665 0.0
H714 H 0.62787 0.36952 0.37842 0.0
H715 H 0.59746 0.37353 0.34517 0.0
H716 H 0.62918 0.35591 0.249 0.0
H717 H 0.55941 0.34482 0.20151 0.0
H718 H 0.53979 0.3587 0.23042 0.0
H719 H 0.60962 0.36987 0.27787 0.0
C720 C 0.27225 0.73224 0.87737 0.0
C721 C 0.27145 0.73526 0.85459 0.0
C722 C 0.27782 0.69663 0.84839 0.0
C723 C 0.27408 0.71751 0.84019 0.0
C724 C 0.27797 0.69355 0.87108 0.0
C725 C 0.27539 0.71126 0.88542 0.0
U726 U 0.275 0.79568 0.8904 0.0
O727 O 0.25816 0.81389 0.91341 0.0
O728 O 0.29938 0.82123 0.91715 0.0
C729 C 0.28037 0.82595 0.92463 0.0
C730 C 0.27175 0.75125 0.89329 0.0
C731 C 0.28375 0.83079 0.94904 0.0
C732 C 0.29826 0.82255 0.98708 0.0
C733 C 0.29024 0.8152 0.96422 0.0
C734 C 0.29189 0.86053 0.97992 0.0
C735 C 0.30016 0.84563 0.99502 0.0
C736 C 0.28383 0.85318 0.9572 0.0
C737 C 0.28354 0.83294 0.84136 0.0
C738 C 0.30106 0.87455 0.84765 0.0
C739 C 0.30194 0.85429 0.81274 0.0
C740 C 0.28946 0.83336 0.82003 0.0
C741 C 0.30862 0.87494 0.82681 0.0
C742 C 0.28852 0.8537 0.85483 0.0
C743 C 0.27747 0.81066 0.85091 0.0
O744 O 0.29311 0.76762 0.8986 0.0
O745 O 0.25178 0.75952 0.88954 0.0
O746 O 0.25623 0.8049 0.85843 0.0
O747 O 0.29673 0.80697 0.86456 0.0
H748 H 0.26914 0.75142 0.84805 0.0
H749 H 0.27339 0.72014 0.82269 0.0
H750 H 0.28026 0.67746 0.87776 0.0
H751 H 0.27613 0.70867 0.90294 0.0
H752 H 0.30452 0.81069 0.99834 0.0
H753 H 0.29043 0.79787 0.95831 0.0
H754 H 0.29318 0.87838 0.98549 0.0
H755 H 0.279 0.86554 0.94577 0.0
H756 H 0.30629 0.89006 0.85916 0.0
H757 H 0.30723 0.85415 0.79653 0.0
H758 H 0.28586 0.81728 0.80959 0.0
H759 H 0.28443 0.85352 0.87151 0.0
C760 C 0.95763 0.35066 0.7471 0.0
C761 C 0.95378 0.34659 0.76881 0.0
C762 C 0.99957 0.35687 0.7826 0.0
C763 C 0.97461 0.34968 0.7864 0.0
C764 C 1.00316 0.36012 0.76068 0.0
C765 C 0.98241 0.35694 0.74315 0.0
U766 U 0.88828 0.34558 0.71421 0.0
O767 O 0.88052 0.36871 0.6882 0.0
O768 O 0.87319 0.33095 0.67916 0.0
C769 C 0.8739 0.35171 0.6722 0.0
C770 C 0.93684 0.35023 0.72829 0.0
C771 C 0.85787 0.35437 0.6511 0.0
C772 C 0.85622 0.36359 0.61248 0.0
C773 C 0.86917 0.3579 0.6323 0.0
C774 C 0.81995 0.3616 0.62974 0.0
C775 C 0.83167 0.36594 0.61111 0.0
C776 C 0.83294 0.35579 0.64962 0.0
C777 C 0.84002 0.33233 0.75738 0.0
C778 C 0.803 0.33721 0.77068 0.0
C779 C 0.83196 0.31875 0.7927 0.0
C780 C 0.84662 0.32132 0.77636 0.0
C781 C 0.80994 0.32663 0.79012 0.0
C782 C 0.81809 0.34019 0.75443 0.0
C783 C 0.8574 0.33709 0.74186 0.0
O784 O 0.92057 0.33011 0.72077 0.0
O785 O 0.92639 0.36767 0.72828 0.0
O786 O 0.8684 0.35848 0.73805 0.0
O787 O 0.86256 0.32017 0.73063 0.0
H788 H 0.93483 0.34183 0.77228 0.0
H789 H 0.97121 0.34738 0.80317 0.0
H790 H 0.02204 0.36606 0.75723 0.0
H791 H 0.98578 0.36024 0.72651 0.0
H792 H 0.86588 0.36738 0.59862 0.0
H793 H 0.88853 0.35717 0.63322 0.0
H794 H 0.80111 0.36366 0.62915 0.0
H795 H 0.82395 0.35333 0.66399 0.0
H796 H 0.78615 0.3434 0.76817 0.0
H797 H 0.83847 0.31124 0.80773 0.0
H798 H 0.86374 0.31552 0.779 0.0
H799 H 0.81288 0.34885 0.73977 0.0
C800 C 0.33388 0.25034 0.56206 0.0
C801 C 0.32729 0.24489 0.58268 0.0
C802 C 0.32327 0.28452 0.58953 0.0
C803 C 0.32195 0.26188 0.59626 0.0
C804 C 0.32953 0.28961 0.56866 0.0
C805 C 0.33493 0.27274 0.55521 0.0
U806 U 0.35249 0.19468 0.53975 0.0
O807 O 0.37906 0.19787 0.51667 0.0
O808 O 0.33921 0.1784 0.50526 0.0
C809 C 0.36147 0.18652 0.49994 0.0
C810 C 0.33982 0.23357 0.54692 0.0
C811 C 0.36884 0.17328 0.48268 0.0
C812 C 0.37519 0.17066 0.44445 0.0
C813 C 0.36898 0.18242 0.46189 0.0
C814 C 0.38143 0.14029 0.46839 0.0
C815 C 0.38126 0.14942 0.44747 0.0
C816 C 0.37544 0.15227 0.48603 0.0
C817 C 0.36072 0.15123 0.5884 0.0
C818 C 0.36667 0.11413 0.59997 0.0
C819 C 0.36513 0.14404 0.62736 0.0
C820 C 0.36168 0.15874 0.61056 0.0
C821 C 0.36785 0.12178 0.62218 0.0
C822 C 0.3631 0.12885 0.58309 0.0
C823 C 0.35775 0.16697 0.57098 0.0
O824 O 0.36329 0.23227 0.55002 0.0
O825 O 0.32314 0.21338 0.5405 0.0
O826 O 0.33624 0.16415 0.55695 0.0
O827 O 0.37643 0.18464 0.56839 0.0
H828 H 0.32622 0.22765 0.58822 0.0
H829 H 0.31666 0.25732 0.61205 0.0
H830 H 0.33018 0.30659 0.56262 0.0
H831 H 0.33983 0.2772 0.53925 0.0
H832 H 0.37422 0.17765 0.42832 0.0
H833 H 0.36384 0.1986 0.45901 0.0
H834 H 0.38547 0.12359 0.47083 0.0
H835 H 0.3754 0.14494 0.50197 0.0
H836 H 0.36844 0.09685 0.59573 0.0
H837 H 0.36563 0.14999 0.64444 0.0
H838 H 0.35974 0.17595 0.61484 0.0
H839 H 0.36237 0.12288 0.56597 0.0
C840 C 0.46686 0.59374 0.27779 0.0
C841 C 0.47415 0.59432 0.30099 0.0
C842 C 0.43028 0.58773 0.3053 0.0
C843 C 0.45601 0.59133 0.31456 0.0
C844 C 0.42304 0.58734 0.28201 0.0
C845 C 0.44123 0.59027 0.26842 0.0
U846 U 0.53527 0.60897 0.26934 0.0
O847 O 0.55336 0.59323 0.24599 0.0
O848 O 0.55348 0.63034 0.24503 0.0
C849 C 0.56081 0.61293 0.23701 0.0
C850 C 0.48569 0.59689 0.26319 0.0
C851 C 0.56355 0.61187 0.21358 0.0
C852 C 0.55076 0.59495 0.17515 0.0
C853 C 0.5451 0.59785 0.1964 0.0
C854 C 0.59278 0.62046 0.18811 0.0
C855 C 0.57484 0.60593 0.17108 0.0
C856 C 0.58711 0.62351 0.20909 0.0
C857 C 0.58409 0.62559 0.32627 0.0
C858 C 0.62998 0.63691 0.33622 0.0
C859 C 0.60475 0.63866 0.36441 0.0
C860 C 0.58286 0.63039 0.3485 0.0
C861 C 0.62848 0.64237 0.35844 0.0
C862 C 0.60775 0.62864 0.32006 0.0
C863 C 0.55989 0.618 0.31063 0.0
O864 O 0.49918 0.61845 0.26285 0.0
O865 O 0.49929 0.58171 0.26433 0.0
O866 O 0.55384 0.59718 0.2999 0.0
O867 O 0.55264 0.63386 0.29875 0.0
H868 H 0.49385 0.59709 0.3086 0.0
H869 H 0.4621 0.59187 0.33244 0.0
H870 H 0.40344 0.58478 0.27425 0.0
H871 H 0.43528 0.58987 0.25054 0.0
H872 H 0.5369 0.58322 0.16229 0.0
H873 H 0.52689 0.5885 0.19965 0.0
H874 H 0.61162 0.62864 0.18543 0.0
H875 H 0.60167 0.63415 0.22221 0.0
H876 H 0.64819 0.63966 0.33133 0.0
H877 H 0.60313 0.64244 0.38147 0.0
H878 H 0.56477 0.62802 0.35357 0.0
H879 H 0.60897 0.62495 0.30288 0.0
C880 C 0.14082 0.82659 0.0472 0.0
C881 C 0.13286 0.84663 0.05123 0.0
C882 C 0.13466 0.85616 0.01296 0.0
C883 C 0.12973 0.86129 0.03412 0.0
C884 C 0.14198 0.83564 0.00904 0.0
C885 C 0.14506 0.82111 0.02603 0.0
U886 U 0.15196 0.80524 0.10716 0.0
O887 O 0.18241 0.78876 0.11847 0.0
O888 O 0.14255 0.76836 0.11483 0.0
C889 C 0.1665 0.76836 0.11894 0.0
C890 C 0.1462 0.81132 0.06455 0.0
C891 C 0.17483 0.75146 0.13308 0.0
C892 C 0.18388 0.71368 0.13475 0.0
C893 C 0.17562 0.73045 0.12247 0.0
C894 C 0.19119 0.73903 0.16856 0.0
C895 C 0.19142 0.7176 0.15796 0.0
C896 C 0.18299 0.75593 0.15618 0.0
C897 C 0.14343 0.85362 0.15128 0.0
C898 C 0.16059 0.8785 0.18563 0.0
C899 C 0.12931 0.88811 0.15733 0.0
C900 C 0.12787 0.86805 0.14411 0.0
C901 C 0.14626 0.89376 0.17779 0.0
C902 C 0.15917 0.85843 0.17237 0.0
C903 C 0.14641 0.83624 0.13533 0.0
O904 O 0.16784 0.81888 0.07852 0.0
O905 O 0.12753 0.8005 0.07396 0.0
O906 O 0.12737 0.81863 0.12586 0.0
O907 O 0.16841 0.83706 0.13001 0.0
H908 H 0.12949 0.85108 0.06755 0.0
H909 H 0.1238 0.87685 0.03747 0.0
H910 H 0.14565 0.83081 0.99297 0.0
H911 H 0.15118 0.80564 0.0227 0.0
H912 H 0.18333 0.69724 0.12616 0.0
H913 H 0.16958 0.7269 0.10456 0.0
H914 H 0.19688 0.7425 0.18649 0.0
H915 H 0.1828 0.77222 0.16457 0.0
H916 H 0.17396 0.88286 0.20129 0.0
H917 H 0.11851 0.90003 0.1509 0.0
H918 H 0.11597 0.86471 0.12767 0.0
H919 H 0.17143 0.84745 0.17797 0.0
C920 C 0.83181 1.00294 0.65676 0.0
C921 C 0.82325 0.97855 0.65366 0.0
C922 C 0.86634 0.97551 0.66521 0.0
C923 C 0.84041 0.96498 0.65783 0.0
C924 C 0.87489 1.00003 0.66786 0.0
C925 C 0.85769 0.01359 0.66369 0.0
U926 U 0.76535 0.01255 0.64125 0.0
O927 O 0.74999 0.03612 0.65962 0.0
O928 O 0.75374 0.04175 0.62445 0.0
C929 C 0.74713 0.04871 0.64263 0.0
C930 C 0.81409 0.01762 0.65394 0.0
C931 C 0.73956 0.07046 0.64541 0.0
C932 C 0.74088 0.10591 0.66755 0.0
C933 C 0.75078 0.08687 0.6639 0.0
C934 C 0.70955 0.09282 0.63371 0.0
C935 C 0.7197 0.1087 0.65268 0.0
C936 C 0.71941 0.07399 0.63008 0.0
C937 C 0.71176 0.95351 0.62017 0.0
C938 C 0.66641 0.93919 0.61812 0.0
C939 C 0.68941 0.91433 0.6038 0.0
C940 C 0.71168 0.93214 0.60973 0.0
C941 C 0.66649 0.91749 0.60805 0.0
C942 C 0.68894 0.95712 0.62417 0.0
C943 C 0.73654 0.97021 0.62835 0.0
O944 O 0.80346 0.01939 0.63336 0.0
O945 O 0.7982 0.01475 0.66773 0.0
O946 O 0.74166 0.97938 0.64907 0.0
O947 O 0.74657 0.98443 0.61449 0.0
H948 H 0.80331 0.97002 0.64833 0.0
H949 H 0.83342 0.94614 0.65552 0.0
H950 H 0.89473 0.0088 0.67335 0.0
H951 H 0.86458 0.03243 0.66617 0.0
H952 H 0.74888 0.11765 0.68249 0.0
H953 H 0.76648 0.08445 0.67591 0.0
H954 H 0.69301 0.09427 0.62218 0.0
H955 H 0.71045 0.06152 0.61578 0.0
H956 H 0.64901 0.9422 0.62148 0.0
H957 H 0.69035 0.89778 0.59651 0.0
H958 H 0.72915 0.92891 0.60676 0.0
H959 H 0.68863 0.97349 0.63234 0.0
C960 C 0.68137 0.94198 0.3277 0.0
C961 C 0.68356 0.91973 0.3329 0.0
C962 C 0.63745 0.90487 0.3261 0.0
C963 C 0.66179 0.90133 0.33199 0.0
C964 C 0.63552 0.92697 0.32004 0.0
C965 C 0.65725 0.94528 0.32087 0.0
U966 U 0.75288 0.97504 0.34379 0.0
O967 O 0.77461 1.00308 0.32687 0.0
O968 O 0.76968 0.01013 0.36123 0.0
C969 C 0.7799 0.01824 0.34438 0.0
C970 C 0.70353 0.96242 0.33019 0.0
C971 C 0.78382 0.0432 0.34106 0.0
C972 C 0.7706 0.07722 0.32804 0.0
C973 C 0.76466 0.05326 0.33143 0.0
C974 C 0.81439 0.08086 0.34432 0.0
C975 C 0.79569 0.09106 0.33416 0.0
C976 C 0.80852 0.05727 0.34769 0.0
C977 C 0.80146 0.94088 0.36701 0.0
C978 C 0.84725 0.95393 0.37412 0.0
C979 C 0.82632 0.91501 0.38217 0.0
C980 C 0.80294 0.91937 0.37488 0.0
C981 C 0.84863 0.93212 0.38159 0.0
C982 C 0.82374 0.95838 0.36697 0.0
C983 C 0.7763 0.94374 0.35806 0.0
O984 O 0.71468 0.97061 0.35072 0.0
O985 O 0.71956 0.96228 0.31683 0.0
O986 O 0.77203 0.94821 0.33707 0.0
O987 O 0.76679 0.95575 0.37108 0.0
H988 H 0.70199 0.91673 0.33808 0.0
H989 H 0.66405 0.88441 0.33636 0.0
H990 H 0.61722 0.93043 0.31559 0.0
H991 H 0.65519 0.96233 0.31675 0.0
H992 H 0.75593 0.08469 0.31992 0.0
H993 H 0.74543 0.04261 0.32621 0.0
H994 H 0.83386 0.0911 0.34918 0.0
H995 H 0.82354 0.04986 0.35519 0.0
H996 H 0.86433 0.96726 0.3733 0.0
H997 H 0.82697 0.89793 0.38739 0.0
H998 H 0.7859 0.90566 0.37488 0.0
H999 H 0.82295 0.9751 0.36091 0.0
C1000 C 0.77294 0.93423 0.12098 0.0
C1001 C 0.79663 0.94267 0.11514 0.0
C1002 C 0.80361 0.90382 0.11706 0.0
C1003 C 0.81193 0.92753 0.11328 0.0
C1004 C 0.77943 0.89531 0.12177 0.0
C1005 C 0.76427 0.91042 0.12375 0.0
U1006 U 0.7529 0.99258 0.12698 0.0
O1007 O 0.71369 0.99521 0.12404 0.0
O1008 O 0.73985 1.00367 0.15647 0.0
C1009 C 0.7167 1.00104 0.1455 0.0
C1010 C 0.75778 0.94973 0.12674 0.0
C1011 C 0.70191 0.01603 0.15305 0.0
C1012 C 0.66676 0.01869 0.17078 0.0
C1013 C 0.68063 1.00533 0.16185 0.0
C1014 C 0.69505 0.05377 0.16179 0.0
C1015 C 0.67391 0.04317 0.17098 0.0
C1016 C 0.70901 0.04035 0.15294 0.0
C1017 C 0.79761 0.04624 0.10337 0.0
C1018 C 0.8046 0.0881 0.10252 0.0
C1019 C 0.83332 0.06884 0.08912 0.0
C1020 C 0.81899 0.04749 0.09396 0.0
C1021 C 0.82643 0.0893 0.09361 0.0
C1022 C 0.79008 0.06655 0.10731 0.0
C1023 C 0.78512 0.02346 0.10991 0.0
O1024 O 0.76859 0.96582 0.14329 0.0
O1025 O 0.74391 0.95703 0.11034 0.0
O1026 O 0.76302 0.0117 0.0983 0.0
O1027 O 0.78887 0.0197 0.13113 0.0
H1028 H 0.80373 0.96103 0.11307 0.0
H1029 H 0.83074 0.93453 0.10999 0.0
H1030 H 0.77288 0.87729 0.12528 0.0
H1031 H 0.74613 0.90365 0.12848 0.0
H1032 H 0.65072 0.00983 0.17776 0.0
H1033 H 0.67497 0.98652 0.16221 0.0
H1034 H 0.701 0.07258 0.16181 0.0
H1035 H 0.72547 0.04894 0.14635 0.0
H1036 H 0.79948 0.10391 0.10664 0.0
H1037 H 0.85051 0.06954 0.0829 0.0
H1038 H 0.82514 0.03194 0.09102 0.0
H1039 H 0.77369 0.06585 0.11474 0.0
C1040 C 0.68475 0.93252 0.89933 0.0
C1041 C 0.66279 0.93089 0.90801 0.0
C1042 C 0.64851 0.8894 0.89565 0.0
C1043 C 0.64469 0.9093 0.90617 0.0
C1044 C 0.67101 0.89102 0.88797 0.0
C1045 C 0.68902 0.91241 0.8899 0.0
U1046 U 0.72007 0.99978 0.8964 0.0
O1047 O 0.73767 0.00729 0.86712 0.0
O1048 O 0.76151 0.01138 0.90062 0.0
C1049 C 0.76062 0.01168 0.87898 0.0
C1050 C 0.70223 0.95478 0.8968 0.0
C1051 C 0.78102 0.02759 0.87063 0.0
C1052 C 0.80752 0.03432 0.84257 0.0
C1053 C 0.78808 0.01999 0.85129 0.0
C1054 C 0.81407 0.06336 0.87342 0.0
C1055 C 0.82025 0.05648 0.85319 0.0
C1056 C 0.79439 0.0492 0.8819 0.0
C1057 C 0.6849 0.04681 0.91559 0.0
C1058 C 0.67921 0.08562 0.91292 0.0
C1059 C 0.65063 0.05673 0.92981 0.0
C1060 C 0.66427 0.04066 0.92636 0.0
C1061 C 0.65755 0.07915 0.92253 0.0
C1062 C 0.69269 0.06948 0.90932 0.0
C1063 C 0.69654 0.02881 0.90928 0.0
O1064 O 0.69572 0.96641 0.87997 0.0
O1065 O 0.71692 0.96785 0.91432 0.0
O1066 O 0.7144 0.02296 0.92308 0.0
O1067 O 0.69215 0.01999 0.88849 0.0
H1068 H 0.65909 0.94635 0.91508 0.0
H1069 H 0.62707 0.90842 0.91166 0.0
H1070 H 0.67397 0.87605 0.87927 0.0
H1071 H 0.70576 0.91349 0.88286 0.0
H1072 H 0.8118 0.02845 0.82709 0.0
H1073 H 0.77822 1.00302 0.84269 0.0
H1074 H 0.82413 0.08001 0.88255 0.0
H1075 H 0.78965 0.05515 0.89714 0.0
H1076 H 0.68509 0.1029 0.90735 0.0
H1077 H 0.63389 0.0512 0.93701 0.0
H1078 H 0.65803 0.02309 0.93119 0.0
H1079 H 0.70864 0.07445 0.90101 0.0
C1080 C 0.57767 0.73862 0.94559 0.0
C1081 C 0.5753 0.73265 0.92274 0.0
C1082 C 0.59141 0.77369 0.91673 0.0
C1083 C 0.58212 0.75007 0.90843 0.0
C1084 C 0.59332 0.77954 0.93955 0.0
C1085 C 0.58642 0.76217 0.95379 0.0
U1086 U 0.56583 0.67518 0.96032 0.0
O1087 O 0.58523 0.66209 0.98953 0.0
O1088 O 0.54329 0.65507 0.98306 0.0
C1089 C 0.56386 0.65251 0.99582 0.0
C1090 C 0.57323 0.72067 0.96151 0.0
C1091 C 0.56357 0.64058 0.01643 0.0
C1092 C 0.57995 0.63955 0.05585 0.0
C1093 C 0.57966 0.65127 0.0364 0.0
C1094 C 0.54832 0.60622 0.0354 0.0
C1095 C 0.56453 0.61669 0.05545 0.0
C1096 C 0.54776 0.61808 0.01609 0.0
C1097 C 0.56148 0.63331 0.90748 0.0
C1098 C 0.55327 0.59155 0.89893 0.0
C1099 C 0.56497 0.61855 0.87139 0.0
C1100 C 0.56642 0.63715 0.88619 0.0
C1101 C 0.55825 0.59569 0.87755 0.0
C1102 C 0.555 0.6105 0.91407 0.0
C1103 C 0.56343 0.65411 0.9216 0.0
O1104 O 0.55063 0.70597 0.95816 0.0
O1105 O 0.59149 0.71046 0.96659 0.0
O1106 O 0.58478 0.6628 0.93571 0.0
O1107 O 0.54321 0.65619 0.92885 0.0
H1108 H 0.5689 0.71453 0.9161 0.0
H1109 H 0.58088 0.745 0.89099 0.0
H1110 H 0.60089 0.79751 0.94648 0.0
H1111 H 0.58865 0.76708 0.97141 0.0
H1112 H 0.59229 0.64838 0.07108 0.0
H1113 H 0.59192 0.66873 0.03698 0.0
H1114 H 0.53599 0.58879 0.03472 0.0
H1115 H 0.53524 0.60953 1.00081 0.0
H1116 H 0.54753 0.57388 0.90363 0.0
H1117 H 0.5684 0.62197 0.85477 0.0
H1118 H 0.57128 0.65467 0.8809 0.0
H1119 H 0.55103 0.60743 0.93056 0.0
C1120 C 0.96935 0.09249 0.77846 0.0
C1121 C 0.97721 0.09312 0.80161 0.0
C1122 C 0.93376 0.0871 0.80681 0.0
C1123 C 0.95955 0.09043 0.8156 0.0
C1124 C 0.92593 0.08651 0.78356 0.0
C1125 C 0.94365 0.08915 0.76954 0.0
U1126 U 0.03733 0.10791 0.77003 0.0
O1127 O 0.05585 0.09294 0.74652 0.0
O1128 O 0.05593 0.13009 0.74646 0.0
C1129 C 0.06329 0.11292 0.73797 0.0
C1130 C 0.9878 0.09577 0.76355 0.0
C1131 C 0.0655 0.11238 0.71439 0.0
C1132 C 0.05281 0.09516 0.67607 0.0
C1133 C 0.04737 0.09767 0.69745 0.0
C1134 C 0.09388 0.12256 0.68836 0.0
C1135 C 0.07633 0.10729 0.6716 0.0
C1136 C 0.08843 0.12517 0.7095 0.0
C1137 C 0.08488 0.12337 0.82778 0.0
C1138 C 0.13064 0.13517 0.83888 0.0
C1139 C 0.10424 0.13551 0.86636 0.0
C1140 C 0.08281 0.12737 0.84992 0.0
C1141 C 0.12829 0.13983 0.86101 0.0
C1142 C 0.10888 0.12707 0.82217 0.0
C1143 C 0.06113 0.11601 0.81157 0.0
O1144 O 1.00128 0.11738 0.76343 0.0
O1145 O 1.00136 0.08058 0.76431 0.0
O1146 O 0.05549 0.09546 0.80039 0.0
O1147 O 0.0541 0.13214 0.79996 0.0
H1148 H 0.997 0.09581 0.80885 0.0
H1149 H 0.96605 0.09106 0.83343 0.0
H1150 H 0.90625 0.08409 0.77616 0.0
H1151 H 0.93729 0.08872 0.75171 0.0
H1152 H 0.03933 0.08282 0.66344 0.0
H1153 H 0.02967 0.08742 0.701 0.0
H1154 H 0.11237 0.13156 0.6854 0.0
H1155 H 0.10276 0.13635 0.72244 0.0
H1156 H 0.14913 0.1384 0.83448 0.0
H1157 H 0.10199 0.13869 0.88335 0.0
H1158 H 0.06443 0.1245 0.85451 0.0
H1159 H 0.11074 0.12401 0.80506 0.0
C1160 C 0.77649 0.24193 0.37603 0.0
C1161 C 0.77557 0.24452 0.35316 0.0
C1162 C 0.7813 0.20552 0.34743 0.0
C1163 C 0.77782 0.22639 0.33896 0.0
C1164 C 0.78179 0.20296 0.37023 0.0
C1165 C 0.77958 0.22105 0.38437 0.0
U1166 U 0.77895 0.3056 0.38893 0.0
O1167 O 0.76116 0.32368 0.41127 0.0
O1168 O 0.80249 0.33102 0.41625 0.0
C1169 C 0.78308 0.33584 0.42294 0.0
C1170 C 0.77572 0.2611 0.39173 0.0
C1171 C 0.78557 0.3417 0.44717 0.0
C1172 C 0.79858 0.3352 0.48611 0.0
C1173 C 0.79166 0.32691 0.46338 0.0
C1174 C 0.79195 0.37257 0.47674 0.0
C1175 C 0.79994 0.3585 0.49291 0.0
C1176 C 0.78496 0.36427 0.45416 0.0
C1177 C 0.78852 0.34266 0.33962 0.0
C1178 C 0.80647 0.38424 0.34526 0.0
C1179 C 0.80702 0.36324 0.31064 0.0
C1180 C 0.79433 0.34259 0.31826 0.0
C1181 C 0.81403 0.38412 0.32442 0.0
C1182 C 0.79372 0.36367 0.35276 0.0
C1183 C 0.78239 0.3206 0.34956 0.0
O1184 O 0.79702 0.27751 0.39734 0.0
O1185 O 0.75575 0.26936 0.38764 0.0
O1186 O 0.76089 0.31478 0.35664 0.0
O1187 O 0.80146 0.31721 0.3637 0.0
H1188 H 0.77329 0.26058 0.34637 0.0
H1189 H 0.77689 0.22866 0.32138 0.0
H1190 H 0.7839 0.18692 0.37715 0.0
H1191 H 0.78041 0.21875 0.40195 0.0
H1192 H 0.8045 0.32391 0.49821 0.0
H1193 H 0.7923 0.30943 0.45843 0.0
H1194 H 0.79266 0.39051 0.4814 0.0
H1195 H 0.78037 0.37604 0.44197 0.0
H1196 H 0.81194 0.39991 0.35658 0.0
H1197 H 0.81227 0.3627 0.29445 0.0
H1198 H 0.79053 0.32632 0.30807 0.0
H1199 H 0.78969 0.36387 0.36946 0.0
C1200 C 0.44557 0.89811 0.753 0.0
C1201 C 0.4413 0.89081 0.77398 0.0
C1202 C 0.40676 0.90978 0.77176 0.0
C1203 C 0.42182 0.89648 0.78324 0.0
C1204 C 0.41144 0.91686 0.75095 0.0
C1205 C 0.43054 0.91121 0.74181 0.0
U1206 U 0.50532 0.87725 0.74416 0.0
O1207 O 0.50818 0.85684 0.71408 0.0
O1208 O 0.53269 0.89294 0.72318 0.0
C1209 C 0.52594 0.8741 0.70922 0.0
C1210 C 0.46435 0.89203 0.74114 0.0
C1211 C 0.53774 0.87233 0.68951 0.0
C1212 C 0.53475 0.87176 0.6493 0.0
C1213 C 0.52346 0.87123 0.66806 0.0
C1214 C 0.5749 0.87365 0.6729 0.0
C1215 C 0.56061 0.87306 0.65134 0.0
C1216 C 0.56354 0.87326 0.69181 0.0
C1217 C 0.54112 0.85989 0.80116 0.0
C1218 C 0.58256 0.85723 0.81897 0.0
C1219 C 0.54799 0.84919 0.83914 0.0
C1220 C 0.53201 0.85349 0.82056 0.0
C1221 C 0.57346 0.85133 0.83863 0.0
C1222 C 0.56641 0.86147 0.80023 0.0
C1223 C 0.524 0.867 0.78351 0.0
O1224 O 0.48727 0.90609 0.74513 0.0
O1225 O 0.46381 0.86991 0.73803 0.0
O1226 O 0.50799 0.85121 0.76866 0.0
O1227 O 0.53118 0.88779 0.77642 0.0
H1228 H 0.45254 0.88042 0.78288 0.0
H1229 H 0.41816 0.89008 0.799 0.0
H1230 H 0.39974 0.9264 0.74131 0.0
H1231 H 0.43324 0.91679 0.72555 0.0
H1232 H 0.52333 0.87198 0.63309 0.0
H1233 H 0.50365 0.87082 0.66583 0.0
H1234 H 0.59499 0.87531 0.67518 0.0
H1235 H 0.57502 0.87429 0.70825 0.0
H1236 H 0.60225 0.85909 0.81833 0.0
H1237 H 0.54068 0.84515 0.85421 0.0
H1238 H 0.51259 0.85257 0.82161 0.0
H1239 H 0.57377 0.86662 0.7854 0.0
C1240 C 0.93017 0.14756 0.17635 0.0
C1241 C 0.90596 0.15066 0.1755 0.0
C1242 C 0.89957 0.14884 0.13499 0.0
C1243 C 0.89077 0.15136 0.15491 0.0
C1244 C 0.92456 0.14777 0.1361 0.0
C1245 C 0.93974 0.14709 0.15669 0.0
U1246 U 0.94068 0.13552 0.23838 0.0
O1247 O 0.95219 0.10508 0.25121 0.0
O1248 O 0.97684 0.14094 0.26221 0.0
C1249 C 0.9737 0.11826 0.26263 0.0
C1250 C 0.94416 0.14105 0.19663 0.0
C1251 C 0.99217 0.10795 0.27595 0.0
C1252 C 1.01122 0.07556 0.28314 0.0
C1253 C 0.9939 0.08539 0.26993 0.0
C1254 C 0.02617 0.11142 0.30738 0.0
C1255 C 0.0269 0.08825 0.30247 0.0
C1256 C 1.00886 0.12103 0.29445 0.0
C1257 C 0.88886 0.14855 0.26988 0.0
C1258 C 0.87432 0.13639 0.30361 0.0
C1259 C 0.85338 0.16027 0.27996 0.0
C1260 C 0.87034 0.16075 0.26566 0.0
C1261 C 0.85474 0.14748 0.29867 0.0
C1262 C 0.89129 0.13683 0.28922 0.0
C1263 C 0.90328 0.1468 0.25244 0.0
O1264 O 0.95494 0.15758 0.21282 0.0
O1265 O 0.93278 0.12127 0.20362 0.0
O1266 O 0.90161 0.12578 0.24373 0.0
O1267 O 0.92575 0.16143 0.25437 0.0
H1268 H 0.89824 0.15093 0.19054 0.0
H1269 H 0.87145 0.152 0.1544 0.0
H1270 H 0.9316 0.14539 0.121 0.0
H1271 H 0.95836 0.14454 0.1571 0.0
H1272 H 1.01147 0.0578 0.27888 0.0
H1273 H 0.98156 0.07521 0.25529 0.0
H1274 H 0.03847 0.12191 0.32189 0.0
H1275 H 1.00827 0.13858 0.29921 0.0
H1276 H 0.87584 0.12659 0.31813 0.0
H1277 H 0.83838 0.16878 0.2757 0.0
H1278 H 0.86826 0.16982 0.25069 0.0
H1279 H 0.90555 0.12736 0.2927 0.0
C1280 C 0.50074 0.12541 0.74575 0.0
C1281 C 0.5026 0.13262 0.72434 0.0
C1282 C 0.45657 0.11979 0.71289 0.0
C1283 C 0.48063 0.1298 0.70801 0.0
C1284 C 0.45509 0.1117 0.73396 0.0
C1285 C 0.47691 0.11451 0.75018 0.0
U1286 U 0.57241 0.14185 0.77144 0.0
O1287 O 0.59267 0.16168 0.80347 0.0
O1288 O 0.59262 0.12495 0.79705 0.0
C1289 C 0.60058 0.14388 0.81093 0.0
C1290 C 0.5228 0.12958 0.7642 0.0
C1291 C 0.60307 0.14068 0.83481 0.0
C1292 C 0.58694 0.125 0.86709 0.0
C1293 C 0.58256 0.13075 0.84492 0.0
C1294 C 0.63201 0.14005 0.86912 0.0
C1295 C 0.61181 0.12891 0.87905 0.0
C1296 C 0.62764 0.14585 0.84725 0.0
C1297 C 0.6175 0.15628 0.7284 0.0
C1298 C 0.66294 0.17071 0.7316 0.0
C1299 C 0.63569 0.15836 0.69535 0.0
C1300 C 0.61477 0.15281 0.70532 0.0
C1301 C 0.65981 0.1675 0.70832 0.0
C1302 C 0.64168 0.16506 0.74173 0.0
C1303 C 0.59413 0.15065 0.73707 0.0
O1304 O 0.53643 0.11449 0.76473 0.0
O1305 O 0.53647 0.15129 0.7693 0.0
O1306 O 0.58943 0.16701 0.74939 0.0
O1307 O 0.58695 0.12959 0.74351 0.0
H1308 H 0.52085 0.14099 0.72049 0.0
H1309 H 0.48235 0.13636 0.69192 0.0
H1310 H 0.43686 0.10414 0.73823 0.0
H1311 H 0.47508 0.10876 0.76655 0.0
H1312 H 0.57109 0.11626 0.87438 0.0
H1313 H 0.56343 0.12658 0.83547 0.0
H1314 H 0.65134 0.14338 0.878 0.0
H1315 H 0.64369 0.1535 0.8397 0.0
H1316 H 0.68154 0.17799 0.74173 0.0
H1317 H 0.63301 0.15595 0.67734 0.0
H1318 H 0.59624 0.14604 0.69487 0.0
H1319 H 0.644 0.16779 0.75967 0.0
C1320 C 0.1571 0.23498 0.95091 0.0
C1321 C 0.15368 0.23517 0.92765 0.0
C1322 C 0.16738 0.19931 0.92491 0.0
C1323 C 0.15896 0.21762 0.91482 0.0
C1324 C 0.17153 0.19976 0.94828 0.0
C1325 C 0.16644 0.21739 0.96108 0.0
U1326 U 0.12855 0.28668 0.96061 0.0
O1327 O 0.10672 0.29173 0.98637 0.0
O1328 O 0.14328 0.31736 0.98572 0.0
C1329 C 0.12364 0.31101 0.99541 0.0
C1330 C 0.15059 0.2524 0.96504 0.0
C1331 C 0.12115 0.32368 0.01595 0.0
C1332 C 0.12185 0.32679 0.05607 0.0
C1333 C 0.12271 0.31386 0.03655 0.0
C1334 C 0.1173 0.35921 0.03455 0.0
C1335 C 0.11943 0.34975 0.05533 0.0
C1336 C 0.11814 0.34634 0.01513 0.0
C1337 C 0.10162 0.30817 0.90264 0.0
C1338 C 0.09175 0.34358 0.89019 0.0
C1339 C 0.08917 0.31182 0.86312 0.0
C1340 C 0.09631 0.29882 0.88039 0.0
C1341 C 0.08728 0.33444 0.86786 0.0
C1342 C 0.09881 0.33046 0.90756 0.0
C1343 C 0.11289 0.29507 0.91952 0.0
O1344 O 0.16297 0.27432 0.96469 0.0
O1345 O 0.1264 0.24964 0.96475 0.0
O1346 O 0.09822 0.28111 0.93077 0.0
O1347 O 0.1355 0.30532 0.9311 0.0
H1348 H 0.14664 0.24867 0.91943 0.0
H1349 H 0.15598 0.2182 0.8969 0.0
H1350 H 0.17767 0.18594 0.95671 0.0
H1351 H 0.16925 0.21697 0.97902 0.0
H1352 H 0.12409 0.31919 0.07187 0.0
H1353 H 0.12524 0.29645 0.03765 0.0
H1354 H 0.11567 0.37691 0.03344 0.0
H1355 H 0.11689 0.35431 0.99948 0.0
H1356 H 0.09089 0.36123 0.89409 0.0
H1357 H 0.08651 0.30473 0.84602 0.0
H1358 H 0.09879 0.28177 0.8763 0.0
H1359 H 0.10315 0.33805 0.92463 0.0
C1360 C 0.3388 0.68741 0.4853 0.0
C1361 C 0.33757 0.6635 0.48422 0.0
C1362 C 0.34138 0.66433 0.5247 0.0
C1363 C 0.33891 0.65199 0.50392 0.0
C1364 C 0.34408 0.68845 0.52552 0.0
C1365 C 0.34285 0.69982 0.50607 0.0
U1366 U 0.32836 0.70853 0.42382 0.0
O1367 O 0.33519 0.7458 0.41903 0.0
O1368 O 0.29635 0.72315 0.412 0.0
C1369 C 0.31108 0.74429 0.41226 0.0
C1370 C 0.33275 0.69989 0.46569 0.0
C1371 C 0.30451 0.75823 0.394 0.0
C1372 C 0.2801 0.78481 0.37966 0.0
C1373 C 0.28497 0.76888 0.39489 0.0
C1374 C 0.31439 0.77951 0.3624 0.0
C1375 C 0.29494 0.79065 0.36333 0.0
C1376 C 0.3189 0.76327 0.37739 0.0
C1377 C 0.34584 0.66827 0.37764 0.0
C1378 C 0.33313 0.6456 0.34189 0.0
C1379 C 0.36833 0.64045 0.36895 0.0
C1380 C 0.36544 0.65765 0.38355 0.0
C1381 C 0.35172 0.63391 0.34835 0.0
C1382 C 0.33021 0.66279 0.35653 0.0
C1383 C 0.33982 0.68272 0.39445 0.0
O1384 O 0.3512 0.71346 0.45779 0.0
O1385 O 0.31239 0.69026 0.45064 0.0
O1386 O 0.31683 0.6786 0.3986 0.0
O1387 O 0.35684 0.70056 0.40614 0.0
H1388 H 0.33429 0.6536 0.46826 0.0
H1389 H 0.33643 0.6333 0.50282 0.0
H1390 H 0.34567 0.69838 0.54116 0.0
H1391 H 0.34365 0.71824 0.5072 0.0
H1392 H 0.26479 0.7926 0.38086 0.0
H1393 H 0.27379 0.76528 0.40777 0.0
H1394 H 0.32699 0.78391 0.35073 0.0
H1395 H 0.3343 0.75544 0.37658 0.0
H1396 H 0.31978 0.64024 0.32629 0.0
H1397 H 0.38221 0.63098 0.37444 0.0
H1398 H 0.37737 0.66152 0.39996 0.0
H1399 H 0.31491 0.67087 0.35188 0.0
C1400 C 0.65568 0.49885 0.84775 0.0
C1401 C 0.65785 0.52241 0.85404 0.0
C1402 C 0.61261 0.51642 0.83965 0.0
C1403 C 0.63632 0.53114 0.85011 0.0
C1404 C 0.61098 0.49311 0.8333 0.0
C1405 C 0.63217 0.48449 0.83729 0.0
U1406 U 0.726 0.49501 0.86308 0.0
O1407 O 0.73946 0.46707 0.87988 0.0
O1408 O 0.74334 0.47265 0.84515 0.0
C1409 C 0.7477 0.46075 0.86238 0.0
C1410 C 0.67683 0.48787 0.85165 0.0
C1411 C 0.74653 0.436 0.85785 0.0
C1412 C 0.72464 0.39558 0.84512 0.0
C1413 C 0.72392 0.41855 0.85053 0.0
C1414 C 0.77033 0.40747 0.85462 0.0
C1415 C 0.74785 0.38985 0.84687 0.0
C1416 C 0.76957 0.4302 0.86007 0.0
C1417 C 0.781 0.55222 0.88006 0.0
C1418 C 0.82614 0.55862 0.89385 0.0
C1419 C 0.80871 0.59146 0.88588 0.0
C1420 C 0.78475 0.5763 0.87919 0.0
C1421 C 0.82954 0.58284 0.89346 0.0
C1422 C 0.80185 0.54328 0.8872 0.0
C1423 C 0.75483 0.53766 0.87385 0.0
O1424 O 0.69201 0.49097 0.83723 0.0
O1425 O 0.68847 0.48791 0.87231 0.0
O1426 O 0.74583 0.52399 0.88856 0.0
O1427 O 0.74744 0.52819 0.85324 0.0
H1428 H 0.67589 0.53382 0.86222 0.0
H1429 H 0.63803 0.54909 0.85565 0.0
H1430 H 0.59299 0.48122 0.82568 0.0
H1431 H 0.63006 0.46629 0.83237 0.0
H1432 H 0.70707 0.38232 0.83922 0.0
H1433 H 0.70592 0.42272 0.84867 0.0
H1434 H 0.78862 0.40392 0.85627 0.0
H1435 H 0.78721 0.44349 0.86567 0.0
H1436 H 0.84201 0.5517 0.89991 0.0
H1437 H 0.81092 0.61008 0.88557 0.0
H1438 H 0.76892 0.5835 0.87371 0.0
H1439 H 0.79928 0.52467 0.88798 0.0
C1440 C 0.68451 0.43101 0.17031 0.0
C1441 C 0.65903 0.4292 0.17077 0.0
C1442 C 0.65121 0.3871 0.17389 0.0
C1443 C 0.64255 0.40745 0.1726 0.0
C1444 C 0.67648 0.38894 0.17264 0.0
C1445 C 0.69293 0.41067 0.17091 0.0
U1446 U 0.70588 0.49774 0.16367 0.0
O1447 O 0.73755 0.52471 0.18441 0.0
O1448 O 0.73743 0.51672 0.14868 0.0
C1449 C 0.74871 0.52973 0.16731 0.0
C1450 C 0.70319 0.45374 0.17034 0.0
C1451 C 0.77549 0.54287 0.17029 0.0
C1452 C 0.81996 0.54579 0.17056 0.0
C1453 C 0.79527 0.53215 0.1706 0.0
C1454 C 0.80518 0.58068 0.17065 0.0
C1455 C 0.82491 0.57016 0.1699 0.0
C1456 C 0.78083 0.56721 0.1709 0.0
C1457 C 0.65069 0.52767 0.147 0.0
C1458 C 0.64965 0.56706 0.1386 0.0
C1459 C 0.61088 0.53785 0.14026 0.0
C1460 C 0.62446 0.52148 0.14509 0.0
C1461 C 0.62332 0.56071 0.13705 0.0
C1462 C 0.66341 0.55053 0.14363 0.0
C1463 C 0.66338 0.50935 0.15262 0.0
O1464 O 0.70462 0.4622 0.15094 0.0
O1465 O 0.70488 0.46979 0.18633 0.0
O1466 O 0.67487 0.5099 0.17339 0.0
O1467 O 0.6752 0.5026 0.13789 0.0
H1468 H 0.65205 0.44462 0.17031 0.0
H1469 H 0.62315 0.4066 0.17363 0.0
H1470 H 0.68383 0.37376 0.17404 0.0
H1471 H 0.71254 0.4117 0.17066 0.0
H1472 H 0.83479 0.53723 0.16974 0.0
H1473 H 0.79148 0.51333 0.17007 0.0
H1474 H 0.80842 0.59939 0.17013 0.0
H1475 H 0.76585 0.57582 0.17062 0.0
H1476 H 0.65953 0.58482 0.13655 0.0
H1477 H 0.59063 0.53276 0.13938 0.0
H1478 H 0.61441 0.50392 0.14765 0.0
H1479 H 0.68374 0.55556 0.14511 0.0
C1480 C 0.75951 0.58135 0.40003 0.0
C1481 C 0.73559 0.57803 0.40569 0.0
C1482 C 0.7383 0.61944 0.40239 0.0
C1483 C 0.72502 0.59706 0.40695 0.0
C1484 C 0.76239 0.62245 0.39735 0.0
C1485 C 0.77287 0.60368 0.39624 0.0
U1486 U 0.77677 0.52013 0.39394 0.0
O1487 O 0.78659 0.51127 0.36206 0.0
O1488 O 0.8156 0.51861 0.39268 0.0
C1489 C 0.81036 0.51352 0.37095 0.0
C1490 C 0.77039 0.56215 0.39517 0.0
C1491 C 0.82289 0.49775 0.36121 0.0
C1492 C 0.83949 0.48663 0.32933 0.0
C1493 C 0.82877 0.50171 0.34002 0.0
C1494 C 0.84022 0.46438 0.36168 0.0
C1495 C 0.84465 0.46745 0.33981 0.0
C1496 C 0.82925 0.47931 0.37227 0.0
C1497 C 0.73407 0.46738 0.42197 0.0
C1498 C 0.71625 0.42577 0.42253 0.0
C1499 C 0.70024 0.45325 0.44212 0.0
C1500 C 0.71773 0.47178 0.43556 0.0
C1501 C 0.69907 0.43016 0.43526 0.0
C1502 C 0.73371 0.44432 0.41592 0.0
C1503 C 0.74926 0.48673 0.41213 0.0
O1504 O 0.78605 0.5557 0.41079 0.0
O1505 O 0.75728 0.54547 0.37979 0.0
O1506 O 0.74264 0.4909 0.39129 0.0
O1507 O 0.77084 0.50019 0.42319 0.0
H1508 H 0.72491 0.56079 0.40846 0.0
H1509 H 0.70634 0.59412 0.41087 0.0
H1510 H 0.77296 0.6394 0.39371 0.0
H1511 H 0.79123 0.60652 0.3916 0.0
H1512 H 0.8421 0.48903 0.31236 0.0
H1513 H 0.82419 0.51608 0.33135 0.0
H1514 H 0.84363 0.44938 0.36995 0.0
H1515 H 0.82506 0.47602 0.38867 0.0
H1516 H 0.71517 0.40806 0.41666 0.0
H1517 H 0.68664 0.45694 0.45142 0.0
H1518 H 0.71761 0.48953 0.44012 0.0
H1519 H 0.7461 0.4407 0.40526 0.0
C1520 C 0.72853 0.51142 0.66394 0.0
C1521 C 0.71574 0.4912 0.64996 0.0
C1522 C 0.68714 0.47911 0.676 0.0
C1523 C 0.69511 0.47542 0.65577 0.0
C1524 C 0.69985 0.49959 0.6898 0.0
C1525 C 0.72035 0.51558 0.68378 0.0
U1526 U 0.78613 0.53219 0.63509 0.0
O1527 O 0.82194 0.55864 0.64925 0.0
O1528 O 0.79705 0.56491 0.61881 0.0
C1529 C 0.81789 0.57273 0.63381 0.0
C1530 C 0.74975 0.52891 0.65791 0.0
C1531 C 0.83597 0.59553 0.63296 0.0
C1532 C 0.85288 0.63672 0.646 0.0
C1533 C 0.83423 0.61557 0.64476 0.0
C1534 C 0.87488 0.61831 0.62305 0.0
C1535 C 0.87356 0.63825 0.63539 0.0
C1536 C 0.85615 0.59717 0.62174 0.0
C1537 C 0.7927 0.47308 0.6038 0.0
C1538 C 0.81397 0.4535 0.58081 0.0
C1539 C 0.78091 0.43089 0.5982 0.0
C1540 C 0.77763 0.4514 0.60749 0.0
C1541 C 0.79927 0.43175 0.58501 0.0
C1542 C 0.81067 0.47413 0.59018 0.0
C1543 C 0.79028 0.49433 0.61509 0.0
O1544 O 0.77252 0.52761 0.66676 0.0
O1545 O 0.74747 0.53336 0.63687 0.0
O1546 O 0.7769 0.50752 0.605 0.0
O1547 O 0.80177 0.50157 0.63575 0.0
H1548 H 0.72154 0.4877 0.63446 0.0
H1549 H 0.6854 0.46022 0.64429 0.0
H1550 H 0.69441 0.503 0.70548 0.0
H1551 H 0.72993 0.53122 0.69472 0.0
H1552 H 0.8519 0.65157 0.65628 0.0
H1553 H 0.81895 0.61464 0.65374 0.0
H1554 H 0.89107 0.6188 0.61539 0.0
H1555 H 0.85799 0.58185 0.61273 0.0
H1556 H 0.82861 0.45449 0.57109 0.0
H1557 H 0.76969 0.41425 0.60192 0.0
H1558 H 0.76373 0.45033 0.61802 0.0
H1559 H 0.82256 0.49081 0.58731 0.0
C1560 C 0.48074 0.13412 0.3316 0.0
C1561 C 0.46808 0.15136 0.32648 0.0
C1562 C 0.44497 0.14115 0.35675 0.0
C1563 C 0.45034 0.15483 0.33901 0.0
C1564 C 0.45797 0.12405 0.36184 0.0
C1565 C 0.4757 0.12068 0.34942 0.0
U1566 U 0.51292 0.12888 0.27993 0.0
O1567 O 0.5247 0.09726 0.27302 0.0
O1568 O 0.55319 0.13104 0.28087 0.0
C1569 C 0.54874 0.10842 0.27604 0.0
C1570 C 0.49892 0.12896 0.31875 0.0
C1571 C 0.56361 0.0999 0.26154 0.0
C1572 C 0.57968 0.0678 0.24986 0.0
C1573 C 0.56697 0.07742 0.26395 0.0
C1574 C 0.58763 0.10383 0.23191 0.0
C1575 C 0.58956 0.08069 0.23333 0.0
C1576 C 0.57461 0.11334 0.24579 0.0
C1577 C 0.47686 0.15469 0.22711 0.0
C1578 C 0.47071 0.1607 0.18772 0.0
C1579 C 0.4416 0.16895 0.21003 0.0
C1580 C 0.45559 0.16254 0.22886 0.0
C1581 C 0.44885 0.16774 0.18929 0.0
C1582 C 0.48469 0.15422 0.20659 0.0
C1583 C 0.48964 0.14546 0.2463 0.0
O1584 O 0.48988 0.11161 0.30317 0.0
O1585 O 0.51574 0.14649 0.31306 0.0
O1586 O 0.50992 0.15838 0.25974 0.0
O1587 O 0.48193 0.12361 0.25071 0.0
H1588 H 0.47166 0.16187 0.31273 0.0
H1589 H 0.44049 0.16803 0.33468 0.0
H1590 H 0.45435 0.11306 0.37524 0.0
H1591 H 0.48532 0.10727 0.35358 0.0
H1592 H 0.58016 0.04977 0.25082 0.0
H1593 H 0.5588 0.06687 0.27621 0.0
H1594 H 0.59444 0.11387 0.21877 0.0
H1595 H 0.57242 0.13076 0.24368 0.0
H1596 H 0.47619 0.15908 0.17172 0.0
H1597 H 0.42445 0.17382 0.21142 0.0
H1598 H 0.44926 0.16286 0.24461 0.0
H1599 H 0.501 0.14802 0.20499 0.0
C1600 C 0.99197 0.92525 0.76835 0.0
C1601 C 0.98532 0.91072 0.74853 0.0
C1602 C 0.96729 0.9396 0.72937 0.0
C1603 C 0.97281 0.91771 0.72931 0.0
C1604 C 0.97323 0.95374 0.74942 0.0
C1605 C 0.98553 0.94658 0.7688 0.0
U1606 U 0.03846 0.89537 0.80268 0.0
O1607 O 0.06326 0.91093 0.83435 0.0
O1608 O 0.03426 0.87773 0.83339 0.0
C1609 C 0.05228 0.89435 0.84571 0.0
C1610 C 1.0053 0.91857 0.78887 0.0
C1611 C 0.06849 0.88804 0.86464 0.0
C1612 C 0.08365 0.8935 0.90464 0.0
C1613 C 0.06655 0.89594 0.88595 0.0
C1614 C 0.1045 0.87443 0.88096 0.0
C1615 C 0.10304 0.8832 0.90224 0.0
C1616 C 0.08718 0.87675 0.86216 0.0
C1617 C 0.06918 0.86541 0.75827 0.0
C1618 C 0.10628 0.85673 0.74872 0.0
C1619 C 0.06838 0.85149 0.72047 0.0
C1620 C 0.05614 0.85866 0.73634 0.0
C1621 C 0.0936 0.85093 0.72656 0.0
C1622 C 0.09407 0.86397 0.76457 0.0
C1623 C 0.05774 0.87612 0.77395 0.0
O1624 O 0.99907 0.89633 0.79235 0.0
O1625 O 0.02973 0.92828 0.7939 0.0
O1626 O 0.06839 0.89746 0.78321 0.0
O1627 O 0.03687 0.86486 0.78021 0.0
H1628 H 0.98996 0.89411 0.74785 0.0
H1629 H 0.96805 0.90621 0.71412 0.0
H1630 H 0.9693 0.97065 0.74992 0.0
H1631 H 0.99043 0.95789 0.7841 0.0
H1632 H 0.08263 0.90089 0.9208 0.0
H1633 H 0.05238 0.90495 0.88806 0.0
H1634 H 0.11972 0.86683 0.87882 0.0
H1635 H 0.08905 0.87077 0.84576 0.0
H1636 H 0.12591 0.85667 0.75349 0.0
H1637 H 0.05862 0.84751 0.70326 0.0
H1638 H 0.03697 0.86 0.73127 0.0
H1639 H 0.1043 0.86926 0.7815 0.0
C1640 C 0.46253 0.84954 0.24926 0.0
C1641 C 0.45948 0.84713 0.27142 0.0
C1642 C 0.50543 0.85862 0.28422 0.0
C1643 C 0.48077 0.85159 0.28873 0.0
C1644 C 0.50826 0.86024 0.26193 0.0
C1645 C 0.48705 0.85567 0.24469 0.0
U1646 U 0.39194 0.84152 0.21942 0.0
O1647 O 0.3802 0.86209 0.19238 0.0
O1648 O 0.37262 0.82356 0.18617 0.0
C1649 C 0.37035 0.84337 0.17839 0.0
C1650 C 0.44109 0.84744 0.23054 0.0
C1651 C 0.35972 0.84517 0.155 0.0
C1652 C 0.36444 0.86178 0.11985 0.0
C1653 C 0.37517 0.8569 0.14098 0.0
C1654 C 0.32278 0.84258 0.1263 0.0
C1655 C 0.33815 0.85505 0.11254 0.0
C1656 C 0.33353 0.83752 0.14735 0.0
C1657 C 0.34703 0.83275 0.26523 0.0
C1658 C 0.309 0.83769 0.27649 0.0
C1659 C 0.33857 0.822 0.30119 0.0
C1660 C 0.35381 0.82372 0.28538 0.0
C1661 C 0.31598 0.82889 0.29693 0.0
C1662 C 0.32455 0.83964 0.26065 0.0
C1663 C 0.36426 0.83553 0.24966 0.0
O1664 O 0.42488 0.82685 0.22497 0.0
O1665 O 0.43029 0.86469 0.22955 0.0
O1666 O 0.37463 0.85632 0.24396 0.0
O1667 O 0.36872 0.81771 0.23927 0.0
H1668 H 0.44075 0.84251 0.27537 0.0
H1669 H 0.47795 0.85044 0.30576 0.0
H1670 H 0.5269 0.86589 0.25791 0.0
H1671 H 0.48982 0.85771 0.22771 0.0
H1672 H 0.37653 0.87201 0.10974 0.0
H1673 H 0.3954 0.86316 0.14675 0.0
H1674 H 0.3024 0.83793 0.12125 0.0
H1675 H 0.32128 0.82877 0.15812 0.0
H1676 H 0.29167 0.84306 0.27283 0.0
H1677 H 0.34482 0.81569 0.31701 0.0
H1678 H 0.37125 0.81852 0.28913 0.0
H1679 H 0.31917 0.84663 0.24499 0.0
C1680 C 0.83807 0.75925 0.0614 0.0
C1681 C 0.83175 0.75467 0.08229 0.0
C1682 C 0.82984 0.79509 0.08871 0.0
C1683 C 0.82759 0.77245 0.09577 0.0
C1684 C 0.83586 0.79937 0.06763 0.0
C1685 C 0.8401 0.78168 0.05426 0.0
U1686 U 0.85269 0.70085 0.04125 0.0
O1687 O 0.87838 0.70033 0.0178 0.0
O1688 O 0.83791 0.68216 0.00775 0.0
C1689 C 0.86003 0.68865 1.00179 0.0
C1690 C 0.84255 0.74143 0.04626 0.0
C1691 C 0.86597 0.67418 0.9845 0.0
C1692 C 0.87131 0.66979 0.94604 0.0
C1693 C 0.86626 0.68268 0.96343 0.0
C1694 C 0.87593 0.63951 0.97055 0.0
C1695 C 0.87603 0.64803 0.94937 0.0
C1696 C 0.87113 0.6526 0.98811 0.0
C1697 C 0.86037 0.65939 0.09149 0.0
C1698 C 0.86389 0.62099 0.10114 0.0
C1699 C 0.86679 0.65099 0.13019 0.0
C1700 C 0.86341 0.66642 0.11413 0.0
C1701 C 0.86716 0.62825 0.12383 0.0
C1702 C 0.86058 0.63659 0.08494 0.0
C1703 C 0.85688 0.67656 0.07557 0.0
O1704 O 0.86556 0.73893 0.04907 0.0
O1705 O 0.82499 0.7216 0.04081 0.0
O1706 O 0.83562 0.6731 0.06104 0.0
O1707 O 0.87632 0.69204 0.07087 0.0
H1708 H 0.82992 0.73745 0.0881 0.0
H1709 H 0.8224 0.76849 0.11172 0.0
H1710 H 0.83714 0.81632 0.06134 0.0
H1711 H 0.84478 0.78552 0.0381 0.0
H1712 H 0.87056 0.67641 0.92975 0.0
H1713 H 0.86221 0.69927 0.9603 0.0
H1714 H 0.87895 0.62247 0.97329 0.0
H1715 H 0.87096 0.64573 1.00425 0.0
H1716 H 0.86384 0.60334 0.09603 0.0
H1717 H 0.86889 0.65672 0.14761 0.0
H1718 H 0.86309 0.68393 0.1194 0.0
H1719 H 0.85815 0.63092 0.06747 0.0
C1720 C 0.65143 0.34139 0.55324 0.0
C1721 C 0.63761 0.35806 0.55181 0.0
C1722 C 0.64611 0.3657 0.51459 0.0
C1723 C 0.63508 0.37014 0.53271 0.0
C1724 C 0.65959 0.34857 0.51592 0.0
C1725 C 0.6622 0.33654 0.53512 0.0
U1726 U 0.66081 0.31086 0.61159 0.0
O1727 O 0.68996 0.29176 0.61551 0.0
O1728 O 0.64989 0.27239 0.6087 0.0
C1729 C 0.67346 0.27122 0.61265 0.0
C1730 C 0.65543 0.32961 0.57377 0.0
C1731 C 0.6795 0.25349 0.62719 0.0
C1732 C 0.68569 0.21459 0.62992 0.0
C1733 C 0.67967 0.23201 0.61708 0.0
C1734 C 0.69189 0.2401 0.66339 0.0
C1735 C 0.69162 0.21829 0.65324 0.0
C1736 C 0.68587 0.25759 0.65047 0.0
C1737 C 0.64968 0.35288 0.65588 0.0
C1738 C 0.64638 0.37814 0.68666 0.0
C1739 C 0.64368 0.39108 0.64938 0.0
C1740 C 0.6464 0.36985 0.64122 0.0
C1741 C 0.64411 0.39548 0.6722 0.0
C1742 C 0.64924 0.35693 0.67851 0.0
C1743 C 0.65522 0.33148 0.64832 0.0
O1744 O 0.67731 0.33427 0.58757 0.0
O1745 O 0.63638 0.31571 0.58068 0.0
O1746 O 0.67707 0.33442 0.64202 0.0
O1747 O 0.63663 0.31626 0.63501 0.0
H1748 H 0.62925 0.36211 0.56566 0.0
H1749 H 0.62483 0.38339 0.53224 0.0
H1750 H 0.66854 0.34481 0.5024 0.0
H1751 H 0.67295 0.32367 0.53596 0.0
H1752 H 0.68482 0.19792 0.6216 0.0
H1753 H 0.67491 0.22863 0.5991 0.0
H1754 H 0.69643 0.24351 0.68136 0.0
H1755 H 0.68606 0.27415 0.6586 0.0
H1756 H 0.64714 0.38141 0.70434 0.0
H1757 H 0.6421 0.40441 0.63802 0.0
H1758 H 0.64677 0.36695 0.6237 0.0
H1759 H 0.65188 0.34395 0.68999 0.0
C1760 C 0.33665 0.50453 0.15465 0.0
C1761 C 0.32815 0.4803 0.14965 0.0
C1762 C 0.3704 0.47643 0.16422 0.0
C1763 C 0.34492 0.46641 0.15439 0.0
C1764 C 0.37891 0.50082 0.16887 0.0
C1765 C 0.36214 0.51471 0.164 0.0
U1766 U 0.27052 0.51538 0.13912 0.0
O1767 O 0.25615 0.53898 0.15865 0.0
O1768 O 0.25961 0.54538 0.12354 0.0
C1769 C 0.25371 0.55222 0.14213 0.0
C1770 C 0.31909 0.51939 0.15184 0.0
C1771 C 0.24522 0.57347 0.14491 0.0
C1772 C 0.2451 0.60801 0.16764 0.0
C1773 C 0.25567 0.58952 0.16376 0.0
C1774 C 0.2145 0.59513 0.13333 0.0
C1775 C 0.22401 0.6107 0.1526 0.0
C1776 C 0.2251 0.57685 0.12944 0.0
C1777 C 0.21609 0.45677 0.11713 0.0
C1778 C 0.17094 0.44169 0.11582 0.0
C1779 C 0.19399 0.41766 0.10032 0.0
C1780 C 0.21609 0.43572 0.1061 0.0
C1781 C 0.17113 0.42022 0.10529 0.0
C1782 C 0.1933 0.45985 0.12176 0.0
C1783 C 0.24083 0.47355 0.12543 0.0
O1784 O 0.30867 0.52159 0.13131 0.0
O1785 O 0.30309 0.51647 0.16552 0.0
O1786 O 0.24615 0.48226 0.14631 0.0
O1787 O 0.25099 0.48801 0.11179 0.0
H1788 H 0.30847 0.4721 0.14259 0.0
H1789 H 0.33785 0.44766 0.15088 0.0
H1790 H 0.3983 0.50916 0.17668 0.0
H1791 H 0.36895 0.53341 0.16812 0.0
H1792 H 0.25254 0.61942 0.18286 0.0
H1793 H 0.27133 0.5872 0.1759 0.0
H1794 H 0.19794 0.59642 0.12173 0.0
H1795 H 0.21668 0.56461 0.11488 0.0
H1796 H 0.1536 0.44434 0.11969 0.0
H1797 H 0.19509 0.40134 0.09264 0.0
H1798 H 0.23354 0.43287 0.10263 0.0
H1799 H 0.19292 0.47595 0.13038 0.0
C1800 C 0.25807 0.53535 0.83811 0.0
C1801 C 0.28458 0.54208 0.84228 0.0
C1802 C 0.2842 0.58204 0.8346 0.0
C1803 C 0.29754 0.56528 0.84054 0.0
C1804 C 0.25772 0.57523 0.83104 0.0
C1805 C 0.24484 0.55212 0.83275 0.0
U1806 U 0.24969 0.47008 0.84863 0.0
O1807 O 0.21873 0.44634 0.86099 0.0
O1808 O 0.22521 0.43909 0.82729 0.0
C1809 C 0.21144 0.43248 0.84244 0.0
C1810 C 0.24342 0.51095 0.83822 0.0
C1811 C 0.18409 0.42136 0.83485 0.0
C1812 C 0.13955 0.41999 0.83252 0.0
C1813 C 0.16515 0.43282 0.83626 0.0
C1814 C 0.15168 0.38468 0.82483 0.0
C1815 C 0.13274 0.39565 0.82741 0.0
C1816 C 0.17697 0.39738 0.82845 0.0
C1817 C 0.31386 0.45493 0.87351 0.0
C1818 C 0.32729 0.41923 0.87713 0.0
C1819 C 0.35769 0.45676 0.88824 0.0
C1820 C 0.33863 0.46788 0.88242 0.0
C1821 C 0.35227 0.43242 0.8854 0.0
C1822 C 0.30805 0.43045 0.87124 0.0
C1823 C 0.29578 0.46816 0.86503 0.0
O1824 O 0.2471 0.49569 0.82395 0.0
O1825 O 0.24158 0.50315 0.85784 0.0
O1826 O 0.28005 0.47169 0.87762 0.0
O1827 O 0.28609 0.46506 0.84361 0.0
H1828 H 0.29516 0.52939 0.84652 0.0
H1829 H 0.31799 0.57005 0.84362 0.0
H1830 H 0.24689 0.58758 0.82618 0.0
H1831 H 0.22438 0.5472 0.82942 0.0
H1832 H 0.12534 0.42876 0.83508 0.0
H1833 H 0.1702 0.45133 0.84132 0.0
H1834 H 0.14704 0.36591 0.82132 0.0
H1835 H 0.1912 0.38812 0.82742 0.0
H1836 H 0.32296 0.40042 0.87425 0.0
H1837 H 0.37694 0.46723 0.89394 0.0
H1838 H 0.34348 0.48678 0.88403 0.0
H1839 H 0.28905 0.42019 0.86417 0.0
C1840 C 0.25927 0.41921 0.62013 0.0
C1841 C 0.28272 0.42836 0.61403 0.0
C1842 C 0.29248 0.39083 0.61838 0.0
C1843 C 0.29928 0.41422 0.61324 0.0
C1844 C 0.26857 0.38153 0.62337 0.0
C1845 C 0.25217 0.39564 0.62431 0.0
U1846 U 0.23535 0.47579 0.62417 0.0
O1847 O 0.22214 0.48615 0.65383 0.0
O1848 O 0.19574 0.47712 0.62163 0.0
C1849 C 0.19885 0.48312 0.64307 0.0
C1850 C 0.24296 0.43393 0.62507 0.0
C1851 C 0.18438 0.4985 0.65053 0.0
C1852 C 0.15419 0.50372 0.67335 0.0
C1853 C 0.16691 0.48947 0.66403 0.0
C1854 C 0.17553 0.53615 0.65502 0.0
C1855 C 0.15859 0.52736 0.6692 0.0
C1856 C 0.1884 0.52188 0.64579 0.0
C1857 C 0.27932 0.52934 0.59897 0.0
C1858 C 0.28586 0.57043 0.59336 0.0
C1859 C 0.31737 0.5506 0.58718 0.0
C1860 C 0.30237 0.52989 0.59265 0.0
C1861 C 0.30943 0.57107 0.58785 0.0
C1862 C 0.27074 0.54954 0.59887 0.0
C1863 C 0.26603 0.50758 0.60678 0.0
O1864 O 0.25291 0.45058 0.64125 0.0
O1865 O 0.2285 0.44012 0.6083 0.0
O1866 O 0.24424 0.49504 0.59523 0.0
O1867 O 0.27031 0.50424 0.62808 0.0
H1868 H 0.28862 0.44656 0.61089 0.0
H1869 H 0.31778 0.42176 0.6095 0.0
H1870 H 0.26311 0.36371 0.62774 0.0
H1871 H 0.23427 0.38836 0.62928 0.0
H1872 H 0.14155 0.49645 0.68437 0.0
H1873 H 0.16363 0.47145 0.66794 0.0
H1874 H 0.17948 0.55435 0.6517 0.0
H1875 H 0.20189 0.5292 0.63549 0.0
H1876 H 0.27984 0.5863 0.59454 0.0
H1877 H 0.33579 0.55094 0.58358 0.0
H1878 H 0.30927 0.51441 0.59277 0.0
H1879 H 0.253 0.54936 0.60384 0.0
C1880 C 0.2749 0.51789 0.36243 0.0
C1881 C 0.28649 0.53955 0.37452 0.0
C1882 C 0.31373 0.55059 0.34722 0.0
C1883 C 0.30594 0.55545 0.36726 0.0
C1884 C 0.30248 0.52862 0.33544 0.0
C1885 C 0.28327 0.51242 0.34303 0.0
U1886 U 0.21644 0.50154 0.38972 0.0
O1887 O 0.1812 0.47381 0.37991 0.0
O1888 O 0.20556 0.47432 0.41247 0.0
C1889 C 0.18461 0.46366 0.3985 0.0
C1890 C 0.25447 0.50064 0.36999 0.0
C1891 C 0.17636 0.43792 0.39679 0.0
C1892 C 0.16564 0.4006 0.37487 0.0
C1893 C 0.17895 0.42424 0.37861 0.0
C1894 C 0.14857 0.40361 0.40826 0.0
C1895 C 0.14952 0.39028 0.38917 0.0
C1896 C 0.16187 0.42721 0.412 0.0
C1897 C 0.1932 0.55434 0.40865 0.0
C1898 C 0.15306 0.55498 0.41851 0.0
C1899 C 0.18364 0.59117 0.41497 0.0
C1900 C 0.20025 0.57871 0.41009 0.0
C1901 C 0.15971 0.57941 0.41862 0.0
C1902 C 0.16976 0.54239 0.4134 0.0
C1903 C 0.20979 0.54246 0.39972 0.0
O1904 O 0.25583 0.50048 0.39168 0.0
O1905 O 0.23146 0.49868 0.35901 0.0
O1906 O 0.20043 0.53059 0.38023 0.0
O1907 O 0.22333 0.53216 0.41371 0.0
H1908 H 0.28062 0.54419 0.38965 0.0
H1909 H 0.31472 0.57177 0.37739 0.0
H1910 H 0.30789 0.5242 0.32002 0.0
H1911 H 0.27467 0.49569 0.33355 0.0
H1912 H 0.16662 0.39073 0.35995 0.0
H1913 H 0.18993 0.43212 0.3666 0.0
H1914 H 0.136 0.39632 0.41934 0.0
H1915 H 0.15944 0.43752 0.42602 0.0
H1916 H 0.13447 0.54566 0.42096 0.0
H1917 H 0.18898 0.61 0.4148 0.0
H1918 H 0.21821 0.58813 0.40635 0.0
H1919 H 0.16402 0.5235 0.41217 0.0
H1920 H 0.15529 0.38941 0.06843 0.0
H1921 H 0.13582 0.40549 0.13117 0.0
H1922 H 0.09101 0.34445 0.08898 0.0
H1923 H 0.06365 0.37763 0.11343 0.0
C1924 C 0.07819 0.38198 0.12903 0.0
O1925 O 0.09629 0.37009 0.12727 0.0
H1926 H 0.08705 0.40112 0.13046 0.0
C1927 C 0.14306 0.38534 0.0805 0.0
C1928 C 0.12279 0.36511 0.07622 0.0
C1929 C 0.1481 0.40009 0.10023 0.0
C1930 C 0.13204 0.39462 0.11569 0.0
C1931 C 0.1113 0.37482 0.11172 0.0
C1932 C 0.10678 0.35992 0.09198 0.0
H1933 H 0.87896 0.93335 0.3529 0.0
H1934 H 0.8722 0.91783 0.4198 0.0
H1935 H 0.93517 0.90677 0.3938 0.0
H1936 H 0.91961 0.87405 0.42466 0.0
C1937 C 0.91155 0.88421 0.43571 0.0
O1938 O 0.91556 0.90685 0.42958 0.0
H1939 H 0.89091 0.87599 0.4335 0.0
C1940 C 0.88624 0.92691 0.36832 0.0
C1941 C 0.90844 0.91956 0.37054 0.0
C1942 C 0.87294 0.92599 0.38572 0.0
C1943 C 0.88231 0.91837 0.40616 0.0
C1944 C 0.90522 0.91212 0.40923 0.0
C1945 C 0.91797 0.91238 0.39133 0.0
H1946 H 0.34292 0.59314 0.62266 0.0
H1947 H 0.31796 0.59777 0.55294 0.0
H1948 H 0.38167 0.65048 0.59009 0.0
H1949 H 0.33846 0.66464 0.55956 0.0
C1950 C 0.33609 0.65181 0.54508 0.0
O1951 O 0.35148 0.63725 0.55077 0.0
H1952 H 0.31599 0.64141 0.54145 0.0
C1953 C 0.3447 0.60256 0.60791 0.0
C1954 C 0.36403 0.62306 0.60899 0.0
C1955 C 0.32813 0.59344 0.58792 0.0
C1956 C 0.33077 0.60484 0.56853 0.0
C1957 C 0.34992 0.6256 0.56931 0.0
C1958 C 0.36676 0.6346 0.58954 0.0
H1959 H 0.64234 0.10138 0.88797 0.0
H1960 H 0.63379 0.0905 0.9556 0.0
H1961 H 0.59288 0.13281 0.91735 0.0
H1962 H 0.613 0.15169 0.96226 0.0
C1963 C 0.6129 0.13564 0.97106 0.0
O1964 O 0.60193 0.11616 0.95622 0.0
H1965 H 0.63283 0.13589 0.97791 0.0
C1966 C 0.63438 0.10482 0.9023 0.0
C1967 C 0.61735 0.11863 0.90039 0.0
C1968 C 0.64049 0.09458 0.92201 0.0
C1969 C 0.62925 0.09824 0.94018 0.0
C1970 C 0.6122 0.11213 0.93851 0.0
C1971 C 0.60604 0.12209 0.91853 0.0
H1972 H 0.14333 0.60212 0.38539 0.0
H1973 H 0.13407 0.58585 0.45168 0.0
H1974 H 0.09282 0.63015 0.41694 0.0
H1975 H 0.12221 0.64531 0.46423 0.0
C1976 C 0.11606 0.62831 0.47139 0.0
O1977 O 0.10252 0.61136 0.45465 0.0
H1978 H 0.13346 0.62366 0.47941 0.0
C1979 C 0.13466 0.60401 0.39967 0.0
C1980 C 0.11733 0.61745 0.39876 0.0
C1981 C 0.1407 0.59254 0.41854 0.0
C1982 C 0.1292 0.59438 0.43684 0.0
C1983 C 0.11211 0.60815 0.43633 0.0
C1984 C 0.10597 0.6195 0.41721 0.0
H1985 H 0.65087 0.88726 0.57099 0.0
H1986 H 0.63076 0.90289 0.63353 0.0
H1987 H 0.5867 0.84171 0.59121 0.0
H1988 H 0.5581 0.87305 0.61548 0.0
C1989 C 0.57277 0.87825 0.63095 0.0
O1990 O 0.59153 0.86711 0.62946 0.0
H1991 H 0.58084 0.89748 0.63184 0.0
C1992 C 0.63836 0.88315 0.58284 0.0
C1993 C 0.61821 0.86285 0.57843 0.0
C1994 C 0.64324 0.89769 0.60266 0.0
C1995 C 0.62707 0.89211 0.618 0.0
C1996 C 0.6065 0.87218 0.61392 0.0
C1997 C 0.60221 0.8574 0.59416 0.0
H1998 H 0.37574 0.42774 0.8528 0.0
H1999 H 0.37685 0.41558 0.92145 0.0
H2000 H 0.43299 0.39862 0.88852 0.0
H2001 H 0.41837 0.36618 0.92267 0.0
C2002 C 0.41155 0.37769 0.93347 0.0
O2003 O 0.41757 0.40023 0.927 0.0
H2004 H 0.39067 0.37083 0.93103 0.0
C2005 C 0.384 0.42096 0.86766 0.0
C2006 C 0.40522 0.41235 0.86773 0.0
C2007 C 0.37345 0.42169 0.88663 0.0
C2008 C 0.38457 0.4144 0.90652 0.0
C2009 C 0.40618 0.40617 0.90732 0.0
C2010 C 0.41646 0.40514 0.88788 0.0
H2011 H 0.85962 0.11233 0.12825 0.0
H2012 H 0.83494 0.11506 0.05817 0.0
H2013 H 0.89929 0.16785 0.09422 0.0
H2014 H 0.85882 0.18366 0.06312 0.0
C2015 C 0.85417 0.1694 0.04949 0.0
O2016 O 0.86866 0.15407 0.05513 0.0
H2017 H 0.83388 0.15998 0.04785 0.0
C2018 C 0.86145 0.12131 0.11326 0.0
C2019 C 0.88121 0.14139 0.11382 0.0
C2020 C 0.84485 0.11179 0.0934 0.0
C2021 C 0.84772 0.12248 0.07368 0.0
C2022 C 0.86706 0.14299 0.07399 0.0
C2023 C 0.88409 0.15227 0.09405 0.0
H2024 H 0.02538 0.09032 0.3452 0.0
H2025 H 0.09312 0.07027 0.36853 0.0
H2026 H 0.06193 0.06224 0.29837 0.0
H2027 H 0.07975 0.01821 0.32027 0.0
C2028 C 0.0942 0.02923 0.33402 0.0
O2029 O 0.09648 0.05236 0.33015 0.0
H2030 H 0.08742 0.02551 0.34992 0.0
C2031 C 0.03964 0.08194 0.34169 0.0
C2032 C 0.04163 0.07735 0.31959 0.0
C2033 C 0.05878 0.08072 0.35914 0.0
C2034 C 0.0778 0.07072 0.35507 0.0
C2035 C 0.07808 0.06257 0.33338 0.0
C2036 C 0.06028 0.06643 0.31533 0.0
H2037 H 0.12442 0.88491 0.71058 0.0
H2038 H 0.09396 0.81074 0.70471 0.0
H2039 H 0.14071 0.84255 0.65921 0.0
H2040 H 0.07975 0.79876 0.65013 0.0
C2041 C 0.09037 0.78819 0.66056 0.0
O2042 O 0.11393 0.80231 0.67061 0.0
H2043 H 0.07966 0.78142 0.67371 0.0
C2044 C 0.12241 0.86804 0.70199 0.0
C2045 C 0.13455 0.86648 0.68405 0.0
C2046 C 0.10769 0.8481 0.70915 0.0
C2047 C 0.10531 0.82612 0.69887 0.0
C2048 C 0.11684 0.82393 0.68061 0.0
C2049 C 0.13153 0.84419 0.67316 0.0
H2050 H 0.30444 0.91793 0.83424 0.0
H2051 H 0.34998 0.88017 0.8068 0.0
H2052 H 0.37579 0.9549 0.81935 0.0
H2053 H 0.37847 0.929 0.77119 0.0
C2054 C 0.38309 0.91352 0.77875 0.0
O2055 O 0.38502 0.91678 0.80159 0.0
H2056 H 0.36731 0.89792 0.77183 0.0
C2057 C 0.32138 0.91777 0.82785 0.0
C2058 C 0.34002 0.93857 0.82876 0.0
C2059 C 0.32513 0.8966 0.82103 0.0
C2060 C 0.34658 0.89651 0.812 0.0
C2061 C 0.36446 0.91751 0.81046 0.0
C2062 C 0.36136 0.93876 0.81919 0.0
H2063 H 0.40833 0.13442 0.17078 0.0
H2064 H 0.44931 0.20446 0.16335 0.0
H2065 H 0.38327 0.16948 0.11436 0.0
H2066 H 0.43887 0.20376 0.10332 0.0
C2067 C 0.43798 0.21808 0.11514 0.0
O2068 O 0.41881 0.20967 0.12686 0.0
H2069 H 0.45624 0.22352 0.1272 0.0
C2070 C 0.41051 0.14974 0.16144 0.0
C2071 C 0.39313 0.14955 0.14192 0.0
C2072 C 0.43097 0.16915 0.16892 0.0
C2073 C 0.43384 0.18918 0.15717 0.0
C2074 C 0.41667 0.18957 0.13741 0.0
C2075 C 0.39656 0.16939 0.12953 0.0
H2076 H 0.18784 0.92718 0.17786 0.0
H2077 H 0.11706 0.91272 0.19974 0.0
H2078 H 0.16274 0.98332 0.2051 0.0
H2079 H 0.13281 0.97027 0.24484 0.0
C2080 C 0.11932 0.95447 0.23525 0.0
O2081 O 0.12081 0.95564 0.21307 0.0
H2082 H 0.12465 0.93879 0.24171 0.0
C2083 C 0.17438 0.93352 0.18544 0.0
C2084 C 0.17831 0.95757 0.19063 0.0
C2085 C 0.15231 0.91748 0.18842 0.0
C2086 C 0.1345 0.92503 0.19795 0.0
C2087 C 0.13873 0.94863 0.20458 0.0
C2088 C 0.16054 0.96496 0.20097 0.0
H2089 H 0.3037 0.79312 0.32126 0.0
H2090 H 0.29417 0.86159 0.31152 0.0
H2091 H 0.27729 0.8296 0.37039 0.0
H2092 H 0.23976 0.85727 0.35076 0.0
C2093 C 0.25294 0.86928 0.34202 0.0
O2094 O 0.27675 0.86585 0.34789 0.0
H2095 H 0.24611 0.86542 0.32371 0.0
C2096 C 0.29837 0.80819 0.32718 0.0
C2097 C 0.2911 0.80886 0.34791 0.0
C2098 C 0.30074 0.82743 0.31451 0.0
C2099 C 0.29217 0.84639 0.32097 0.0
C2100 C 0.28277 0.8466 0.34071 0.0
C2101 C 0.28266 0.82812 0.35435 0.0
H2102 H 0.3306 0.09147 0.63573 0.0
H2103 H 0.41102 0.11904 0.64869 0.0
H2104 H 0.37566 0.07431 0.69429 0.0
H2105 H 0.42034 0.12724 0.70747 0.0
C2106 C 0.43266 0.12117 0.69742 0.0
O2107 O 0.41946 0.09976 0.68604 0.0
H2108 H 0.43756 0.13413 0.68517 0.0
C2109 C 0.34888 0.09246 0.64598 0.0
C2110 C 0.35038 0.08055 0.66532 0.0
C2111 C 0.37055 0.1064 0.64012 0.0
C2112 C 0.39424 0.10802 0.6532 0.0
C2113 C 0.3963 0.0967 0.6729 0.0
C2114 C 0.37424 0.08288 0.67899 0.0
H2115 H 0.13599 0.17888 0.8868 0.0
H2116 H 0.16786 0.12194 0.87598 0.0
H2117 H 0.20136 0.1719 0.93264 0.0
H2118 H 0.23981 0.15065 0.91566 0.0
C2119 C 0.22572 0.13607 0.90482 0.0
O2120 O 0.20293 0.1328 0.91173 0.0
H2121 H 0.22385 0.14097 0.88731 0.0
C2122 C 0.15087 0.17032 0.89158 0.0
C2123 C 0.16915 0.17874 0.91099 0.0
C2124 C 0.15034 0.15004 0.87887 0.0
C2125 C 0.16856 0.13801 0.88534 0.0
C2126 C 0.18675 0.14577 0.90481 0.0
C2127 C 0.18721 0.16617 0.91757 0.0
H2128 H 0.79997 0.29094 0.81558 0.0
H2129 H 0.78767 0.3586 0.80582 0.0
H2130 H 0.77539 0.32744 0.86594 0.0
H2131 H 0.7368 0.35285 0.84969 0.0
C2132 C 0.74812 0.36525 0.83982 0.0
O2133 O 0.77245 0.36286 0.84325 0.0
H2134 H 0.73935 0.36123 0.82184 0.0
C2135 C 0.79459 0.30593 0.82161 0.0
C2136 C 0.78838 0.30673 0.8428 0.0
C2137 C 0.79568 0.32492 0.80858 0.0
C2138 C 0.7867 0.34354 0.81538 0.0
C2139 C 0.77845 0.34378 0.83568 0.0
C2140 C 0.77978 0.32573 0.84953 0.0
H2141 H 0.82966 0.59662 0.13584 0.0
H2142 H 0.90997 0.62516 0.15068 0.0
H2143 H 0.87404 0.57692 0.19341 0.0
H2144 H 0.91843 0.62942 0.21002 0.0
C2145 C 0.9308 0.62436 0.19939 0.0
O2146 O 0.91797 0.60361 0.18667 0.0
H2147 H 0.93532 0.63853 0.1882 0.0
C2148 C 0.84781 0.59745 0.14624 0.0
C2149 C 0.84905 0.58448 0.16492 0.0
C2150 C 0.86958 0.61211 0.14118 0.0
C2151 C 0.89311 0.61356 0.15451 0.0
C2152 C 0.89493 0.60107 0.17347 0.0
C2153 C 0.87278 0.58644 0.17869 0.0
H2154 H 0.63696 0.68192 0.38366 0.0
H2155 H 0.66867 0.62485 0.37273 0.0
H2156 H 0.7031 0.6755 0.4287 0.0
H2157 H 0.7413 0.65525 0.41246 0.0
C2158 C 0.72766 0.64045 0.40154 0.0
O2159 O 0.70456 0.63636 0.40797 0.0
H2160 H 0.72617 0.64576 0.38417 0.0
C2161 C 0.65191 0.67339 0.38825 0.0
C2162 C 0.67053 0.68202 0.40737 0.0
C2163 C 0.65106 0.65289 0.37572 0.0
C2164 C 0.66952 0.64104 0.38196 0.0
C2165 C 0.68811 0.6491 0.40114 0.0
C2166 C 0.68872 0.66958 0.41381 0.0
H2167 H 0.8111 0.42758 0.33154 0.0
H2168 H 0.85518 0.38811 0.30423 0.0
H2169 H 0.88348 0.46264 0.31745 0.0
H2170 H 0.88543 0.43686 0.26906 0.0
C2171 C 0.88937 0.42101 0.27639 0.0
O2172 O 0.89124 0.424 0.29924 0.0
H2173 H 0.87318 0.40583 0.26924 0.0
C2174 C 0.82795 0.42689 0.32525 0.0
C2175 C 0.84727 0.44725 0.3265 0.0
C2176 C 0.83101 0.40541 0.31845 0.0
C2177 C 0.85233 0.40468 0.30947 0.0
C2178 C 0.87084 0.42533 0.3081 0.0
C2179 C 0.86853 0.44682 0.31704 0.0
H2180 H 0.51837 0.58345 0.84598 0.0
H2181 H 0.58851 0.56791 0.86979 0.0
H2182 H 0.55501 0.55361 0.80025 0.0
H2183 H 0.57312 0.51184 0.8248 0.0
C2184 C 0.58817 0.5236 0.83764 0.0
O2185 O 0.59053 0.54642 0.83254 0.0
H2186 H 0.58209 0.52124 0.85398 0.0
C2187 C 0.53336 0.57608 0.84253 0.0
C2188 C 0.53477 0.57012 0.82055 0.0
C2189 C 0.55344 0.57702 0.85987 0.0
C2190 C 0.57268 0.56705 0.85639 0.0
C2191 C 0.5723 0.55706 0.8352 0.0
C2192 C 0.55378 0.55928 0.81694 0.0
H2193 H 0.83947 0.611 0.93061 0.0
H2194 H 0.87319 0.59294 0.87674 0.0
H2195 H 0.913 0.65194 0.92381 0.0
H2196 H 0.9206 0.65772 0.87516 0.0
C2197 C 0.91673 0.63885 0.86991 0.0
O2198 O 0.91546 0.62613 0.88839 0.0
H2199 H 0.89826 0.63371 0.8581 0.0
C2200 C 0.85539 0.614 0.92212 0.0
C2201 C 0.87656 0.63271 0.92991 0.0
C2202 C 0.85388 0.59977 0.9029 0.0
C2203 C 0.87425 0.60383 0.89167 0.0
C2204 C 0.89567 0.62262 0.89917 0.0
C2205 C 0.89663 0.6373 0.91815 0.0
H2206 H 0.10386 0.07749 0.66914 0.0
H2207 H 0.11384 0.08503 0.60143 0.0
H2208 H 0.0686 0.12286 0.62972 0.0
H2209 H 0.04846 0.104 0.5822 0.0
C2210 C 0.06659 0.10504 0.57658 0.0
O2211 O 0.08657 0.11508 0.59382 0.0
H2212 H 0.06692 0.08687 0.57185 0.0
C2213 C 0.10006 0.08512 0.65347 0.0
C2214 C 0.08495 0.10065 0.65151 0.0
C2215 C 0.11051 0.07943 0.63558 0.0
C2216 C 0.10588 0.08946 0.61541 0.0
C2217 C 0.09054 0.10499 0.61316 0.0
C2218 C 0.08004 0.11056 0.63128 0.0
H2219 H 0.65788 0.41561 0.40418 0.0
H2220 H 0.69056 0.40359 0.47026 0.0
H2221 H 0.6138 0.36654 0.44126 0.0
H2222 H 0.62523 0.38322 0.49102 0.0
C2223 C 0.64456 0.38074 0.49516 0.0
O2224 O 0.65062 0.37155 0.47639 0.0
H2225 H 0.65784 0.39821 0.50075 0.0
C2226 C 0.65635 0.4063 0.41902 0.0
C2227 C 0.63367 0.39019 0.42032 0.0
C2228 C 0.67669 0.41145 0.43699 0.0
C2229 C 0.67475 0.39977 0.45635 0.0
C2230 C 0.65217 0.38327 0.45786 0.0
C2231 C 0.63141 0.37885 0.43995 0.0
H2232 H 0.32755 0.89572 0.11462 0.0
H2233 H 0.29395 0.89543 0.04571 0.0
H2234 H 0.32204 0.83754 0.06838 0.0
H2235 H 0.32891 0.84555 0.02379 0.0
C2236 C 0.31488 0.8555 0.01817 0.0
O2237 O 0.2992 0.85428 0.03351 0.0
H2238 H 0.32526 0.87406 0.01755 0.0
C2239 C 0.32243 0.88745 0.09771 0.0
C2240 C 0.3267 0.86573 0.09346 0.0
C2241 C 0.31082 0.8983 0.08066 0.0
C2242 C 0.30356 0.88739 0.05888 0.0
C2243 C 0.30757 0.86541 0.05433 0.0
C2244 C 0.31918 0.85458 0.07174 0.0
H2245 H 0.81947 0.40612 0.61328 0.0
H2246 H 0.79172 0.40859 0.54349 0.0
H2247 H 0.81837 0.35 0.56632 0.0
H2248 H 0.82833 0.36063 0.52252 0.0
C2249 C 0.81332 0.36932 0.51626 0.0
O2250 O 0.79697 0.36739 0.53111 0.0
H2251 H 0.82287 0.38806 0.51546 0.0
C2252 C 0.81534 0.39827 0.59627 0.0
C2253 C 0.82022 0.37681 0.59199 0.0
C2254 C 0.80543 0.40994 0.57897 0.0
C2255 C 0.80005 0.39992 0.55688 0.0
C2256 C 0.80432 0.37805 0.55222 0.0
C2257 C 0.81489 0.36674 0.56983 0.0
H2258 H 0.34532 0.1128 0.4271 0.0
H2259 H 0.3808 0.09811 0.37328 0.0
H2260 H 0.41928 0.155 0.42304 0.0
H2261 H 0.4289 0.16323 0.37515 0.0
C2262 C 0.4246 0.14454 0.36903 0.0
O2263 O 0.42285 0.13106 0.38694 0.0
H2264 H 0.4063 0.13977 0.35697 0.0
C2265 C 0.36158 0.11641 0.41903 0.0
C2266 C 0.38257 0.13497 0.42778 0.0
C2267 C 0.3607 0.10324 0.39936 0.0
C2268 C 0.38141 0.10819 0.38859 0.0
C2269 C 0.40266 0.12678 0.39715 0.0
C2270 C 0.40306 0.14044 0.4166 0.0
H2271 H 0.60261 0.57624 0.16837 0.0
H2272 H 0.61146 0.58362 0.10037 0.0
H2273 H 0.56631 0.62111 0.12918 0.0
H2274 H 0.54581 0.60334 0.08184 0.0
C2275 C 0.56368 0.60347 0.0761 0.0
O2276 O 0.58394 0.6134 0.0931 0.0
H2277 H 0.5637 0.58514 0.07167 0.0
C2278 C 0.59849 0.58377 0.15271 0.0
C2279 C 0.58319 0.59915 0.15089 0.0
C2280 C 0.60871 0.57811 0.13464 0.0
C2281 C 0.60366 0.58799 0.11447 0.0
C2282 C 0.58816 0.60336 0.11239 0.0
C2283 C 0.57786 0.6089 0.13064 0.0
H2284 H 0.14902 0.91129 0.90537 0.0
H2285 H 0.18013 0.89864 0.97174 0.0
H2286 H 0.10379 0.86191 0.94135 0.0
H2287 H 0.11173 0.87261 0.99044 0.0
C2288 C 0.13192 0.87264 0.99501 0.0
O2289 O 0.14005 0.86598 0.97633 0.0
H2290 H 0.14336 0.89055 1.00173 0.0
C2291 C 0.14707 0.90195 0.92014 0.0
C2292 C 0.12422 0.8859 0.92107 0.0
C2293 C 0.16706 0.90689 0.93841 0.0
C2294 C 0.16453 0.89518 0.95766 0.0
C2295 C 0.14179 0.87871 0.9586 0.0
C2296 C 0.12145 0.8744 0.94046 0.0
H2297 H 0.9871 0.93923 0.6936 0.0
H2298 H 0.92739 0.95512 0.64735 0.0
H2299 H 0.9286 0.96163 0.71759 0.0
H2300 H 0.87718 0.9477 0.68232 0.0
C2301 C 0.8839 0.95993 0.67003 0.0
O2302 O 0.90865 0.97237 0.67798 0.0
H2303 H 0.88256 0.94921 0.65432 0.0
C2304 C 0.96956 0.94425 0.69008 0.0
C2305 C 0.95809 0.94807 0.70784 0.0
C2306 C 0.95731 0.94396 0.66804 0.0
C2307 C 0.93694 0.9541 0.66412 0.0
C2308 C 0.92756 0.96177 0.68206 0.0
C2309 C 0.93729 0.95766 0.70396 0.0
H2310 H 0.82959 0.10617 0.30907 0.0
H2311 H 0.83412 0.17935 0.31675 0.0
H2312 H 0.78081 0.13007 0.34619 0.0
H2313 H 0.76368 0.17276 0.3281 0.0
C2314 C 0.78259 0.18552 0.33201 0.0
O2315 O 0.80031 0.17472 0.34207 0.0
H2316 H 0.78775 0.19208 0.3162 0.0
C2317 C 0.82299 0.12031 0.31544 0.0
C2318 C 0.80376 0.11525 0.32784 0.0
C2319 C 0.83407 0.14322 0.31136 0.0
C2320 C 0.82536 0.16145 0.3194 0.0
C2321 C 0.80612 0.15675 0.3319 0.0
C2322 C 0.79503 0.13357 0.33587 0.0
H2323 H 0.55685 0.06883 0.19681 0.0
H2324 H 0.60725 0.05636 0.15483 0.0
H2325 H 0.62976 0.06213 0.22587 0.0
H2326 H 0.67312 0.06847 0.19669 0.0
C2327 C 0.66031 0.05856 0.18149 0.0
O2328 O 0.63811 0.04591 0.18716 0.0
H2329 H 0.65652 0.07157 0.16965 0.0
C2330 C 0.57489 0.06666 0.19442 0.0
C2331 C 0.59346 0.0685 0.21329 0.0
C2332 C 0.58107 0.06656 0.17325 0.0
C2333 C 0.60246 0.05884 0.17094 0.0
C2334 C 0.61901 0.05536 0.18986 0.0
C2335 C 0.61561 0.06206 0.21127 0.0
H2336 H 0.61582 0.88357 0.85764 0.0
H2337 H 0.56865 0.81638 0.86655 0.0
H2338 H 0.63395 0.84935 0.91665 0.0
H2339 H 0.62316 0.79587 0.90603 0.0
C2340 C 0.60221 0.79195 0.90197 0.0
O2341 O 0.59496 0.81219 0.90524 0.0
H2342 H 0.59576 0.78509 0.88414 0.0
C2343 C 0.61182 0.86858 0.86728 0.0
C2344 C 0.62718 0.86872 0.888 0.0
C2345 C 0.59077 0.8498 0.85936 0.0
C2346 C 0.58518 0.83084 0.87232 0.0
C2347 C 0.60087 0.83046 0.89281 0.0
C2348 C 0.622 0.84945 0.90067 0.0
H2349 H 0.82272 0.10158 0.85225 0.0
H2350 H 0.88728 0.12303 0.82183 0.0
H2351 H 0.85718 0.05019 0.82942 0.0
H2352 H 0.91738 0.06989 0.83309 0.0
C2353 C 0.91567 0.08466 0.82288 0.0
O2354 O 0.89082 0.08112 0.81227 0.0
H2355 H 0.92184 0.10079 0.83455 0.0
C2356 C 0.83679 0.09684 0.84417 0.0
C2357 C 0.83785 0.07367 0.8424 0.0
C2358 C 0.85502 0.11455 0.83769 0.0
C2359 C 0.87293 0.10918 0.82669 0.0
C2360 C 0.87323 0.0859 0.82301 0.0
C2361 C 0.85603 0.06804 0.83129 0.0
H2362 H 0.66913 0.20585 0.68758 0.0
H2363 H 0.69398 0.14446 0.70094 0.0
H2364 H 0.7172 0.18454 0.64765 0.0
H2365 H 0.6918 0.12791 0.64314 0.0
C2366 C 0.70461 0.12521 0.65836 0.0
O2367 O 0.71931 0.14662 0.66867 0.0
H2368 H 0.69254 0.11633 0.66983 0.0
C2369 C 0.68113 0.19477 0.68449 0.0
C2370 C 0.69441 0.19866 0.667 0.0
C2371 C 0.68068 0.17521 0.69647 0.0
C2372 C 0.69497 0.16 0.69206 0.0
C2373 C 0.70813 0.16321 0.6744 0.0
C2374 C 0.70757 0.18241 0.66164 0.0
H2375 H 0.6329 0.87621 0.35905 0.0
H2376 H 0.55618 0.83647 0.33563 0.0
H2377 H 0.58986 0.89208 0.29857 0.0
H2378 H 0.53386 0.8867 0.30383 0.0
C2379 C 0.52806 0.86733 0.30317 0.0
O2380 O 0.54838 0.85897 0.30009 0.0
H2381 H 0.5227 0.86231 0.31935 0.0
C2382 C 0.61568 0.87277 0.34659 0.0
C2383 C 0.61448 0.88622 0.32827 0.0
C2384 C 0.59484 0.85503 0.34936 0.0
C2385 C 0.57227 0.85039 0.33364 0.0
C2386 C 0.57028 0.8639 0.31542 0.0
C2387 C 0.59136 0.88193 0.31284 0.0
H2388 H 0.84421 0.91219 0.149 0.0
H2389 H 0.87018 0.85247 0.13318 0.0
H2390 H 0.80268 0.86275 0.09357 0.0
H2391 H 0.80264 0.8105 0.09981 0.0
C2392 C 0.82348 0.8135 0.10295 0.0
O2393 O 0.83453 0.83601 0.09827 0.0
H2394 H 0.83006 0.81143 0.12084 0.0
C2395 C 0.84202 0.89634 0.1386 0.0
C2396 C 0.82173 0.88937 0.12059 0.0
C2397 C 0.85931 0.88302 0.14356 0.0
C2398 C 0.85669 0.86276 0.12975 0.0
C2399 C 0.83627 0.85528 0.11177 0.0
C2400 C 0.81849 0.86846 0.1074 0.0
H2401 H 0.17073 0.70379 0.19276 0.0
H2402 H 0.19674 0.64245 0.20239 0.0
H2403 H 0.21868 0.68577 0.1508 0.0
H2404 H 0.19644 0.63007 0.14308 0.0
C2405 C 0.20815 0.62636 0.15851 0.0
O2406 O 0.22225 0.6473 0.17016 0.0
H2407 H 0.19516 0.61649 0.16881 0.0
C2408 C 0.18301 0.69326 0.18897 0.0
C2409 C 0.1958 0.6982 0.17128 0.0
C2410 C 0.183 0.67312 0.19989 0.0
C2411 C 0.19744 0.65848 0.19437 0.0
C2412 C 0.21055 0.66306 0.17678 0.0
C2413 C 0.20937 0.68275 0.16495 0.0
H2414 H 0.12439 0.369 0.86021 0.0
H2415 H 0.04708 0.33244 0.8341 0.0
H2416 H 0.08563 0.38808 0.79939 0.0
H2417 H 0.02759 0.38414 0.80391 0.0
C2418 C 0.0217 0.36474 0.80212 0.0
O2419 O 0.04211 0.35643 0.79922 0.0
H2420 H 0.01559 0.35867 0.81775 0.0
C2421 C 0.10726 0.367 0.84786 0.0
C2422 C 0.10774 0.3807 0.82977 0.0
C2423 C 0.08556 0.34982 0.84966 0.0
C2424 C 0.06375 0.34621 0.83312 0.0
C2425 C 0.06336 0.3604 0.81525 0.0
C2426 C 0.08549 0.37776 0.8136 0.0
H2427 H 0.33515 0.40144 0.64886 0.0
H2428 H 0.36255 0.34291 0.63183 0.0
H2429 H 0.29184 0.34975 0.59568 0.0
H2430 H 0.29518 0.29789 0.60156 0.0
C2431 C 0.3161 0.30214 0.60401 0.0
O2432 O 0.3253 0.32481 0.59878 0.0
H2433 H 0.32378 0.3006 0.6218 0.0
C2434 C 0.3328 0.38534 0.63879 0.0
C2435 C 0.31147 0.37724 0.62176 0.0
C2436 C 0.35119 0.37298 0.64281 0.0
C2437 C 0.34827 0.35245 0.62926 0.0
C2438 C 0.32692 0.34393 0.61238 0.0
C2439 C 0.30828 0.35619 0.60884 0.0
H2440 H 0.04848 0.56765 0.69174 0.0
H2441 H 0.09932 0.55064 0.65249 0.0
H2442 H 0.11379 0.54808 0.72341 0.0
H2443 H 0.16023 0.54943 0.69821 0.0
C2444 C 0.14781 0.54389 0.6816 0.0
O2445 O 0.12363 0.53332 0.68468 0.0
H2446 H 0.1481 0.55981 0.67252 0.0
C2447 C 0.06571 0.56302 0.69029 0.0
C2448 C 0.08165 0.56092 0.70984 0.0
C2449 C 0.0737 0.56305 0.66989 0.0
C2450 C 0.09333 0.55258 0.66816 0.0
C2451 C 0.10652 0.54541 0.68717 0.0
C2452 C 0.10193 0.55117 0.70844 0.0
H2453 H 0.48735 0.43395 0.19003 0.0
H2454 H 0.42717 0.45099 0.14553 0.0
H2455 H 0.43497 0.46399 0.21629 0.0
H2456 H 0.38123 0.45179 0.18595 0.0
C2457 C 0.38703 0.46042 0.17121 0.0
O2458 O 0.41237 0.47221 0.17648 0.0
H2459 H 0.38391 0.44676 0.15727 0.0
C2460 C 0.47073 0.44051 0.18728 0.0
C2461 C 0.4617 0.44708 0.20571 0.0
C2462 C 0.45708 0.43947 0.16565 0.0
C2463 C 0.43773 0.45083 0.16213 0.0
C2464 C 0.43065 0.46081 0.18033 0.0
C2465 C 0.44188 0.45804 0.20227 0.0
H2466 H 0.62566 0.38303 0.20706 0.0
H2467 H 0.59439 0.30883 0.19985 0.0
H2468 H 0.64075 0.34154 0.15439 0.0
H2469 H 0.58132 0.29868 0.14289 0.0
C2470 C 0.5908 0.28765 0.15377 0.0
O2471 O 0.6141 0.30101 0.16527 0.0
H2472 H 0.5785 0.28117 0.16592 0.0
C2473 C 0.62331 0.36626 0.19811 0.0
C2474 C 0.635 0.36502 0.17984 0.0
C2475 C 0.60864 0.34621 0.20515 0.0
C2476 C 0.60573 0.32434 0.19421 0.0
C2477 C 0.61705 0.32248 0.1757 0.0
C2478 C 0.63176 0.34291 0.16851 0.0
H2479 H 0.91023 0.64084 0.66968 0.0
H2480 H 0.95394 0.71098 0.66624 0.0
H2481 H 0.88705 0.68056 0.61643 0.0
H2482 H 0.94525 0.71293 0.60722 0.0
C2483 C 0.94381 0.72732 0.61867 0.0
O2484 O 0.92447 0.71899 0.63022 0.0
H2485 H 0.96205 0.7329 0.63074 0.0
C2486 C 0.91343 0.65671 0.66114 0.0
C2487 C 0.8963 0.65826 0.64203 0.0
C2488 C 0.93424 0.67542 0.6698 0.0
C2489 C 0.93811 0.69628 0.65925 0.0
C2490 C 0.92133 0.69825 0.63972 0.0
C2491 C 0.90041 0.67903 0.63107 0.0
H2492 H 0.68013 0.43296 0.66967 0.0
H2493 H 0.61161 0.41009 0.6945 0.0
H2494 H 0.64843 0.4835 0.69823 0.0
H2495 H 0.62305 0.46675 0.73875 0.0
C2496 C 0.60907 0.45088 0.72973 0.0
O2497 O 0.60922 0.45171 0.70721 0.0
H2498 H 0.61492 0.43533 0.73584 0.0
C2499 C 0.66559 0.43732 0.67733 0.0
C2500 C 0.66681 0.46068 0.68288 0.0
C2501 C 0.64569 0.41922 0.68102 0.0
C2502 C 0.62722 0.42411 0.69175 0.0
C2503 C 0.62826 0.44726 0.69817 0.0
C2504 C 0.64817 0.46561 0.69386 0.0
H2505 H 0.32268 0.59434 0.81257 0.0
H2506 H 0.33241 0.66857 0.81828 0.0
H2507 H 0.27586 0.62371 0.84783 0.0
H2508 H 0.26155 0.66399 0.82873 0.0
C2509 C 0.28013 0.67725 0.83288 0.0
O2510 O 0.2984 0.66715 0.84308 0.0
H2511 H 0.28532 0.68417 0.81721 0.0
C2512 C 0.3175 0.60937 0.81888 0.0
C2513 C 0.2977 0.60609 0.83071 0.0
C2514 C 0.33 0.63172 0.81421 0.0
C2515 C 0.32266 0.65115 0.82152 0.0
C2516 C 0.30335 0.64823 0.83385 0.0
C2517 C 0.29067 0.62574 0.83817 0.0
H2518 H 0.11788 0.38073 0.35027 0.0
H2519 H 0.07095 0.31499 0.36281 0.0
H2520 H 0.13583 0.35086 0.41208 0.0
H2521 H 0.12488 0.29596 0.40465 0.0
C2522 C 0.10399 0.29222 0.39987 0.0
O2523 O 0.09725 0.31294 0.40211 0.0
H2524 H 0.0983 0.28483 0.38216 0.0
C2525 C 0.11442 0.36631 0.36067 0.0
C2526 C 0.1299 0.36794 0.38166 0.0
C2527 C 0.09313 0.34747 0.35376 0.0
C2528 C 0.08759 0.32951 0.36784 0.0
C2529 C 0.10327 0.33032 0.38862 0.0
C2530 C 0.12429 0.34975 0.39567 0.0
H2531 H 0.31627 0.59616 0.35005 0.0
H2532 H 0.38232 0.62177 0.32259 0.0
H2533 H 0.35234 0.5477 0.32391 0.0
H2534 H 0.41327 0.56992 0.331 0.0
C2535 C 0.41167 0.58485 0.321 0.0
O2536 O 0.38688 0.58103 0.31002 0.0
H2537 H 0.41725 0.60102 0.33257 0.0
C2538 C 0.33082 0.5924 0.34201 0.0
C2539 C 0.33195 0.56936 0.33827 0.0
C2540 C 0.34937 0.61109 0.33727 0.0
C2541 C 0.36785 0.60715 0.32618 0.0
C2542 C 0.36857 0.58431 0.32074 0.0
C2543 C 0.35093 0.56528 0.32719 0.0
loop_
_geom_bond_atom_site_label_1
_geom_bond_atom_site_label_2
_geom_bond_distance
_geom_bond_site_symmetry_2
_ccdc_geom_bond_type
C0 C1 1.264 . S
C0 C5 1.479 . S
C0 C10 1.465 . S
C1 C0 1.264 . S
C1 C3 1.339 . S
C1 H28 0.931 . S
C2 C3 1.395 . S
C2 C4 1.320 . S
C3 C1 1.339 . S
C3 C2 1.395 . S
C3 H29 0.929 . S
C4 C2 1.320 . S
C4 C5 1.405 . S
C4 H30 0.930 . S
C5 C0 1.479 . S
C5 C4 1.405 . S
C5 H31 0.931 . S
U6 O7 2.454 . S
U6 O8 2.458 1_655 S
U6 C9 2.984 1_655 S
U6 C10 2.847 . S
U6 C23 2.882 1_655 S
U6 O24 2.441 . S
U6 O25 2.420 . S
U6 O26 2.455 1_655 S
U6 O27 2.450 . S
O7 U6 2.454 . S
O7 C9 1.353 1_655 S
O8 U6 2.458 1_455 S
O8 C9 1.286 . S
C9 U6 2.984 1_455 S
C9 O7 1.353 1_455 S
C9 O8 1.286 . S
C9 C11 1.363 . S
C10 C0 1.465 . S
C10 U6 2.847 . S
C10 O24 1.249 . S
C10 O25 1.202 . S
C11 C9 1.363 . S
C11 C13 1.408 . S
C11 C16 1.342 . S
C12 C13 1.310 . S
C12 C15 1.461 . S
C12 H32 0.932 . S
C13 C11 1.408 . S
C13 C12 1.310 . S
C13 H33 0.930 . S
C14 C15 1.474 . S
C14 C16 1.285 . S
C14 H34 0.929 . S
C15 C12 1.461 . S
C15 C14 1.474 . S
C16 C11 1.342 . S
C16 C14 1.285 . S
C16 H35 0.930 . S
C17 C20 1.424 . S
C17 C22 1.245 . S
C17 C23 1.428 . S
C18 C21 1.260 . S
C18 C22 1.477 . S
C18 H36 0.932 . S
C19 C20 1.384 . S
C19 C21 1.479 . S
C19 H37 0.929 . S
C20 C17 1.424 . S
C20 C19 1.384 . S
C20 H38 0.928 . S
C21 C18 1.260 . S
C21 C19 1.479 . S
C22 C17 1.245 . S
C22 C18 1.477 . S
C22 H39 0.932 . S
C23 U6 2.882 1_455 S
C23 C17 1.428 . S
C23 O26 1.301 . S
C23 O27 1.233 1_455 S
O24 U6 2.441 . S
O24 C10 1.249 . S
O25 U6 2.420 . S
O25 C10 1.202 . S
O26 U6 2.455 1_455 S
O26 C23 1.301 . S
O27 U6 2.450 . S
O27 C23 1.233 1_655 S
H28 C1 0.931 . S
H29 C3 0.929 . S
H30 C4 0.930 . S
H31 C5 0.931 . S
H32 C12 0.932 . S
H33 C13 0.930 . S
H34 C14 0.929 . S
H35 C16 0.930 . S
H36 C18 0.932 . S
H37 C19 0.929 . S
H38 C20 0.928 . S
H39 C22 0.932 . S
C40 C41 1.264 . S
C40 C45 1.479 . S
C40 C50 1.465 . S
C41 C40 1.264 . S
C41 C43 1.339 . S
C41 H68 0.931 . S
C42 C43 1.395 . S
C42 C44 1.320 . S
C43 C41 1.339 . S
C43 C42 1.395 . S
C43 H69 0.929 . S
C44 C42 1.320 . S
C44 C45 1.405 . S
C44 H70 0.930 . S
C45 C40 1.479 . S
C45 C44 1.405 . S
C45 H71 0.931 . S
U46 O47 2.454 . S
U46 O48 2.458 . S
U46 C49 2.984 . S
U46 C50 2.847 . S
U46 C63 2.882 . S
U46 O64 2.441 . S
U46 O65 2.420 . S
U46 O66 2.455 . S
U46 O67 2.449 . S
O47 U46 2.454 . S
O47 C49 1.353 . S
O48 U46 2.458 . S
O48 C49 1.286 . S
C49 U46 2.984 . S
C49 O47 1.353 . S
C49 O48 1.286 . S
C49 C51 1.363 . S
C50 C40 1.465 . S
C50 U46 2.847 . S
C50 O64 1.249 . S
C50 O65 1.202 . S
C51 C49 1.363 . S
C51 C53 1.408 . S
C51 C56 1.342 . S
C52 C53 1.310 . S
C52 C55 1.461 . S
C52 H72 0.932 . S
C53 C51 1.408 . S
C53 C52 1.310 . S
C53 H73 0.930 . S
C54 C55 1.474 . S
C54 C56 1.285 . S
C54 H74 0.929 . S
C55 C52 1.461 . S
C55 C54 1.474 . S
C56 C51 1.342 . S
C56 C54 1.285 . S
C56 H75 0.930 . S
C57 C60 1.424 . S
C57 C62 1.245 . S
C57 C63 1.428 . S
C58 C61 1.260 . S
C58 C62 1.477 . S
C58 H76 0.932 . S
C59 C60 1.384 . S
C59 C61 1.479 . S
C59 H77 0.929 . S
C60 C57 1.424 . S
C60 C59 1.384 . S
C60 H78 0.928 . S
C61 C58 1.260 . S
C61 C59 1.479 . S
C62 C57 1.245 . S
C62 C58 1.477 . S
C62 H79 0.932 . S
C63 U46 2.882 . S
C63 C57 1.428 . S
C63 O66 1.301 . S
C63 O67 1.282 . S
O64 U46 2.441 . S
O64 C50 1.249 . S
O65 U46 2.420 . S
O65 C50 1.202 . S
O66 U46 2.455 . S
O66 C63 1.301 . S
O67 U46 2.449 . S
O67 C63 1.282 . S
H68 C41 0.931 . S
H69 C43 0.929 . S
H70 C44 0.930 . S
H71 C45 0.931 . S
H72 C52 0.932 . S
H73 C53 0.930 . S
H74 C54 0.929 . S
H75 C56 0.930 . S
H76 C58 0.932 . S
H77 C59 0.929 . S
H78 C60 0.928 . S
H79 C62 0.932 . S
C80 C81 1.264 . S
C80 C85 1.479 . S
C80 C90 1.465 . S
C81 C80 1.264 . S
C81 C83 1.339 . S
C81 H108 0.931 . S
C82 C83 1.395 . S
C82 C84 1.320 . S
C83 C81 1.339 . S
C83 C82 1.395 . S
C83 H109 0.929 . S
C84 C82 1.320 . S
C84 C85 1.405 . S
C84 H110 0.930 . S
C85 C80 1.479 . S
C85 C84 1.405 . S
C85 H111 0.931 . S
U86 O87 2.454 . S
U86 O88 2.458 . S
U86 C89 2.984 . S
U86 C90 2.847 . S
U86 C103 2.882 . S
U86 O104 2.441 . S
U86 O105 2.420 . S
U86 O106 2.455 . S
U86 O107 2.449 . S
O87 U86 2.454 . S
O87 C89 1.353 . S
O88 U86 2.458 . S
O88 C89 1.286 . S
C89 U86 2.984 . S
C89 O87 1.353 . S
C89 O88 1.286 . S
C89 C91 1.363 . S
C90 C80 1.465 . S
C90 U86 2.847 . S
C90 O104 1.249 . S
C90 O105 1.202 . S
C91 C89 1.363 . S
C91 C93 1.408 . S
C91 C96 1.342 . S
C92 C93 1.310 . S
C92 C95 1.461 . S
C92 H112 0.932 . S
C93 C91 1.408 . S
C93 C92 1.310 . S
C93 H113 0.930 . S
C94 C95 1.474 . S
C94 C96 1.285 . S
C94 H114 0.929 . S
C95 C92 1.461 . S
C95 C94 1.474 . S
C96 C91 1.342 . S
C96 C94 1.285 . S
C96 H115 0.930 . S
C97 C100 1.424 . S
C97 C102 1.245 . S
C97 C103 1.428 . S
C98 C101 1.260 . S
C98 C102 1.477 . S
C98 H116 0.932 . S
C99 C100 1.384 . S
C99 C101 1.479 . S
C99 H117 0.929 . S
C100 C97 1.424 . S
C100 C99 1.384 . S
C100 H118 0.928 . S
C101 C98 1.260 . S
C101 C99 1.479 . S
C102 C97 1.245 . S
C102 C98 1.477 . S
C102 H119 0.932 . S
C103 U86 2.882 . S
C103 C97 1.428 . S
C103 O106 1.301 . S
C103 O107 1.282 . S
O104 U86 2.441 . S
O104 C90 1.249 . S
O105 U86 2.420 . S
O105 C90 1.202 . S
O106 U86 2.455 . S
O106 C103 1.301 . S
O107 U86 2.449 . S
O107 C103 1.282 . S
H108 C81 0.931 . S
H109 C83 0.929 . S
H110 C84 0.930 . S
H111 C85 0.931 . S
H112 C92 0.932 . S
H113 C93 0.930 . S
H114 C94 0.929 . S
H115 C96 0.930 . S
H116 C98 0.932 . S
H117 C99 0.929 . S
H118 C100 0.928 . S
H119 C102 0.932 . S
C120 C121 1.264 . S
C120 C125 1.479 . S
C120 C130 1.465 . S
C121 C120 1.264 . S
C121 C123 1.339 . S
C121 H148 0.931 . S
C122 C123 1.395 . S
C122 C124 1.320 . S
C123 C121 1.339 . S
C123 C122 1.395 . S
C123 H149 0.929 . S
C124 C122 1.320 . S
C124 C125 1.405 . S
C124 H150 0.930 . S
C125 C120 1.479 . S
C125 C124 1.405 . S
C125 H151 0.931 . S
U126 O127 2.454 . S
U126 O128 2.458 . S
U126 C129 2.984 . S
U126 C130 2.847 . S
U126 C143 2.882 . S
U126 O144 2.441 . S
U126 O145 2.420 . S
U126 O146 2.455 . S
U126 O147 2.449 . S
O127 U126 2.454 . S
O127 C129 1.353 . S
O128 U126 2.458 . S
O128 C129 1.286 . S
C129 U126 2.984 . S
C129 O127 1.353 . S
C129 O128 1.286 . S
C129 C131 1.363 . S
C130 C120 1.465 . S
C130 U126 2.847 . S
C130 O144 1.249 . S
C130 O145 1.202 . S
C131 C129 1.363 . S
C131 C133 1.408 . S
C131 C136 1.342 . S
C132 C133 1.310 1_556 S
C132 C135 1.461 . S
C132 H152 0.932 . S
C133 C131 1.408 . S
C133 C132 1.310 1_554 S
C133 H153 0.930 . S
C134 C135 1.474 . S
C134 C136 1.285 1_556 S
C134 H154 0.929 . S
C135 C132 1.461 . S
C135 C134 1.474 . S
C136 C131 1.342 . S
C136 C134 1.285 1_554 S
C136 H155 0.930 . S
C137 C140 1.424 . S
C137 C142 1.245 . S
C137 C143 1.428 . S
C138 C141 1.260 . S
C138 C142 1.477 . S
C138 H156 0.932 . S
C139 C140 1.384 . S
C139 C141 1.479 . S
C139 H157 0.929 . S
C140 C137 1.424 . S
C140 C139 1.384 . S
C140 H158 0.928 . S
C141 C138 1.260 . S
C141 C139 1.479 . S
C142 C137 1.245 . S
C142 C138 1.477 . S
C142 H159 0.932 . S
C143 U126 2.882 . S
C143 C137 1.428 . S
C143 O146 1.301 . S
C143 O147 1.282 . S
O144 U126 2.441 . S
O144 C130 1.249 . S
O145 U126 2.420 . S
O145 C130 1.202 . S
O146 U126 2.455 . S
O146 C143 1.301 . S
O147 U126 2.449 . S
O147 C143 1.282 . S
H148 C121 0.931 . S
H149 C123 0.929 . S
H150 C124 0.930 . S
H151 C125 0.931 . S
H152 C132 0.932 . S
H153 C133 0.930 . S
H154 C134 0.929 . S
H155 C136 0.930 . S
H156 C138 0.932 . S
H157 C139 0.929 . S
H158 C140 0.928 . S
H159 C142 0.932 . S
C160 C161 1.264 . S
C160 C165 1.479 . S
C160 C170 1.465 1_655 S
C161 C160 1.264 . S
C161 C163 1.339 . S
C161 H188 0.931 1_655 S
C162 C163 1.395 . S
C162 C164 1.320 . S
C163 C161 1.339 . S
C163 C162 1.395 . S
C163 H189 0.929 . S
C164 C162 1.320 . S
C164 C165 1.405 . S
C164 H190 0.930 . S
C165 C160 1.479 . S
C165 C164 1.405 . S
C165 H191 0.931 . S
U166 O167 2.454 . S
U166 O168 2.458 . S
U166 C169 2.984 . S
U166 C170 2.847 . S
U166 C183 2.882 . S
U166 O184 2.441 . S
U166 O185 2.420 . S
U166 O186 2.455 . S
U166 O187 2.449 . S
O167 U166 2.454 . S
O167 C169 1.353 . S
O168 U166 2.458 . S
O168 C169 1.286 . S
C169 U166 2.984 . S
C169 O167 1.353 . S
C169 O168 1.286 . S
C169 C171 1.363 . S
C170 C160 1.465 1_455 S
C170 U166 2.847 . S
C170 O184 1.249 . S
C170 O185 1.202 . S
C171 C169 1.363 . S
C171 C173 1.408 . S
C171 C176 1.342 . S
C172 C173 1.310 . S
C172 C175 1.461 . S
C172 H192 0.932 . S
C173 C171 1.408 . S
C173 C172 1.310 . S
C173 H193 0.930 . S
C174 C175 1.474 . S
C174 C176 1.285 . S
C174 H194 0.929 . S
C175 C172 1.461 . S
C175 C174 1.474 . S
C176 C171 1.342 . S
C176 C174 1.285 . S
C176 H195 0.930 . S
C177 C180 1.424 . S
C177 C182 1.245 . S
C177 C183 1.428 . S
C178 C181 1.260 . S
C178 C182 1.477 . S
C178 H196 0.932 . S
C179 C180 1.384 . S
C179 C181 1.479 . S
C179 H197 0.929 . S
C180 C177 1.424 . S
C180 C179 1.384 . S
C180 H198 0.928 . S
C181 C178 1.260 . S
C181 C179 1.479 . S
C182 C177 1.245 . S
C182 C178 1.477 . S
C182 H199 0.932 . S
C183 U166 2.882 . S
C183 C177 1.428 . S
C183 O186 1.301 . S
C183 O187 1.282 . S
O184 U166 2.441 . S
O184 C170 1.249 . S
O185 U166 2.420 . S
O185 C170 1.202 . S
O186 U166 2.455 . S
O186 C183 1.301 . S
O187 U166 2.449 . S
O187 C183 1.282 . S
H188 C161 0.931 1_455 S
H189 C163 0.929 . S
H190 C164 0.930 . S
H191 C165 0.931 . S
H192 C172 0.932 . S
H193 C173 0.930 . S
H194 C174 0.929 . S
H195 C176 0.930 . S
H196 C178 0.932 . S
H197 C179 0.929 . S
H198 C180 0.928 . S
H199 C182 0.932 . S
C200 C201 1.264 . S
C200 C205 1.479 . S
C200 C210 1.465 . S
C201 C200 1.264 . S
C201 C203 1.339 . S
C201 H228 0.931 . S
C202 C203 1.395 . S
C202 C204 1.320 . S
C203 C201 1.339 . S
C203 C202 1.395 . S
C203 H229 0.929 . S
C204 C202 1.320 . S
C204 C205 1.405 . S
C204 H230 0.930 . S
C205 C200 1.479 . S
C205 C204 1.405 . S
C205 H231 0.931 . S
U206 O207 2.454 . S
U206 O208 2.458 . S
U206 C209 2.984 . S
U206 C210 2.847 . S
U206 C223 2.882 . S
U206 O224 2.441 . S
U206 O225 2.420 . S
U206 O226 2.455 . S
U206 O227 2.449 . S
O207 U206 2.454 . S
O207 C209 1.353 . S
O208 U206 2.458 . S
O208 C209 1.286 . S
C209 U206 2.984 . S
C209 O207 1.353 . S
C209 O208 1.286 . S
C209 C211 1.363 . S
C210 C200 1.465 . S
C210 U206 2.847 . S
C210 O224 1.249 . S
C210 O225 1.202 . S
C211 C209 1.363 . S
C211 C213 1.408 . S
C211 C216 1.342 . S
C212 C213 1.310 . S
C212 C215 1.461 . S
C212 H232 0.932 . S
C213 C211 1.408 . S
C213 C212 1.310 . S
C213 H233 0.930 . S
C214 C215 1.474 . S
C214 C216 1.285 . S
C214 H234 0.929 . S
C215 C212 1.461 . S
C215 C214 1.474 . S
C216 C211 1.342 . S
C216 C214 1.285 . S
C216 H235 0.930 . S
C217 C220 1.424 . S
C217 C222 1.245 . S
C217 C223 1.428 . S
C218 C221 1.260 . S
C218 C222 1.477 . S
C218 H236 0.932 . S
C219 C220 1.384 . S
C219 C221 1.479 . S
C219 H237 0.929 . S
C220 C217 1.424 . S
C220 C219 1.384 . S
C220 H238 0.928 . S
C221 C218 1.260 . S
C221 C219 1.479 . S
C222 C217 1.245 . S
C222 C218 1.477 . S
C222 H239 0.932 . S
C223 U206 2.882 . S
C223 C217 1.428 . S
C223 O226 1.301 . S
C223 O227 1.282 . S
O224 U206 2.441 . S
O224 C210 1.249 . S
O225 U206 2.420 . S
O225 C210 1.202 . S
O226 U206 2.455 . S
O226 C223 1.301 . S
O227 U206 2.449 . S
O227 C223 1.282 . S
H228 C201 0.931 . S
H229 C203 0.929 . S
H230 C204 0.930 . S
H231 C205 0.931 . S
H232 C212 0.932 . S
H233 C213 0.930 . S
H234 C214 0.929 . S
H235 C216 0.930 . S
H236 C218 0.932 . S
H237 C219 0.929 . S
H238 C220 0.928 . S
H239 C222 0.932 . S
C240 C241 1.264 . S
C240 C245 1.479 . S
C240 C250 1.465 . S
C241 C240 1.264 . S
C241 C243 1.339 . S
C241 H268 0.931 . S
C242 C243 1.395 . S
C242 C244 1.320 . S
C243 C241 1.339 . S
C243 C242 1.395 . S
C243 H269 0.929 . S
C244 C242 1.320 . S
C244 C245 1.405 . S
C244 H270 0.930 . S
C245 C240 1.479 . S
C245 C244 1.405 . S
C245 H271 0.931 . S
U246 O247 2.454 . S
U246 O248 2.458 . S
U246 C249 2.984 . S
U246 C250 2.847 . S
U246 C263 2.882 . S
U246 O264 2.441 . S
U246 O265 2.420 . S
U246 O266 2.455 . S
U246 O267 2.449 . S
O247 U246 2.454 . S
O247 C249 1.353 . S
O248 U246 2.458 . S
O248 C249 1.286 . S
C249 U246 2.984 . S
C249 O247 1.353 . S
C249 O248 1.286 . S
C249 C251 1.363 . S
C250 C240 1.465 . S
C250 U246 2.847 . S
C250 O264 1.249 . S
C250 O265 1.202 . S
C251 C249 1.363 . S
C251 C253 1.408 . S
C251 C256 1.342 . S
C252 C253 1.310 . S
C252 C255 1.461 . S
C252 H272 0.932 . S
C253 C251 1.408 . S
C253 C252 1.310 . S
C253 H273 0.930 . S
C254 C255 1.474 . S
C254 C256 1.285 . S
C254 H274 0.929 . S
C255 C252 1.461 . S
C255 C254 1.474 . S
C256 C251 1.342 . S
C256 C254 1.285 . S
C256 H275 0.930 . S
C257 C260 1.424 . S
C257 C262 1.245 . S
C257 C263 1.428 . S
C258 C261 1.260 . S
C258 C262 1.477 . S
C258 H276 0.932 . S
C259 C260 1.384 . S
C259 C261 1.479 . S
C259 H277 0.929 . S
C260 C257 1.424 . S
C260 C259 1.384 . S
C260 H278 0.928 . S
C261 C258 1.260 . S
C261 C259 1.479 . S
C262 C257 1.245 . S
C262 C258 1.477 . S
C262 H279 0.932 . S
C263 U246 2.882 . S
C263 C257 1.428 . S
C263 O266 1.301 . S
C263 O267 1.282 . S
O264 U246 2.441 . S
O264 C250 1.249 . S
O265 U246 2.420 . S
O265 C250 1.202 . S
O266 U246 2.455 . S
O266 C263 1.301 . S
O267 U246 2.449 . S
O267 C263 1.282 . S
H268 C241 0.931 . S
H269 C243 0.929 . S
H270 C244 0.930 . S
H271 C245 0.931 . S
H272 C252 0.932 . S
H273 C253 0.930 . S
H274 C254 0.929 . S
H275 C256 0.930 . S
H276 C258 0.932 . S
H277 C259 0.929 . S
H278 C260 0.928 . S
H279 C262 0.932 . S
C280 C281 1.264 . S
C280 C285 1.479 . S
C280 C290 1.465 . S
C281 C280 1.264 . S
C281 C283 1.339 1_556 S
C281 H308 0.931 . S
C282 C283 1.395 . S
C282 C284 1.320 . S
C283 C281 1.339 1_554 S
C283 C282 1.395 . S
C283 H309 0.929 . S
C284 C282 1.320 . S
C284 C285 1.405 1_554 S
C284 H310 0.930 . S
C285 C280 1.479 . S
C285 C284 1.405 1_556 S
C285 H311 0.931 . S
U286 O287 2.454 . S
U286 O288 2.458 . S
U286 C289 2.984 . S
U286 C290 2.847 . S
U286 C303 2.882 . S
U286 O304 2.441 . S
U286 O305 2.420 . S
U286 O306 2.455 . S
U286 O307 2.449 . S
O287 U286 2.454 . S
O287 C289 1.353 . S
O288 U286 2.458 . S
O288 C289 1.286 . S
C289 U286 2.984 . S
C289 O287 1.353 . S
C289 O288 1.286 . S
C289 C291 1.363 . S
C290 C280 1.465 . S
C290 U286 2.847 . S
C290 O304 1.249 . S
C290 O305 1.202 . S
C291 C289 1.363 . S
C291 C293 1.408 . S
C291 C296 1.342 . S
C292 C293 1.310 . S
C292 C295 1.461 . S
C292 H312 0.932 . S
C293 C291 1.408 . S
C293 C292 1.310 . S
C293 H313 0.930 . S
C294 C295 1.474 . S
C294 C296 1.285 . S
C294 H314 0.929 . S
C295 C292 1.461 . S
C295 C294 1.474 . S
C296 C291 1.342 . S
C296 C294 1.285 . S
C296 H315 0.930 . S
C297 C300 1.424 . S
C297 C302 1.245 . S
C297 C303 1.428 . S
C298 C301 1.260 . S
C298 C302 1.477 . S
C298 H316 0.932 . S
C299 C300 1.384 . S
C299 C301 1.479 . S
C299 H317 0.929 . S
C300 C297 1.424 . S
C300 C299 1.384 . S
C300 H318 0.928 . S
C301 C298 1.260 . S
C301 C299 1.479 . S
C302 C297 1.245 . S
C302 C298 1.477 . S
C302 H319 0.932 . S
C303 U286 2.882 . S
C303 C297 1.428 . S
C303 O306 1.301 . S
C303 O307 1.282 . S
O304 U286 2.441 . S
O304 C290 1.249 . S
O305 U286 2.420 . S
O305 C290 1.202 . S
O306 U286 2.455 . S
O306 C303 1.301 . S
O307 U286 2.449 . S
O307 C303 1.282 . S
H308 C281 0.931 . S
H309 C283 0.929 . S
H310 C284 0.930 . S
H311 C285 0.931 . S
H312 C292 0.932 . S
H313 C293 0.930 . S
H314 C294 0.929 . S
H315 C296 0.930 . S
H316 C298 0.932 . S
H317 C299 0.929 . S
H318 C300 0.928 . S
H319 C302 0.932 . S
C320 C321 1.264 . S
C320 C325 1.479 1_545 S
C320 C330 1.465 . S
C321 C320 1.264 . S
C321 C323 1.339 . S
C321 H348 0.931 . S
C322 C323 1.395 . S
C322 C324 1.320 . S
C323 C321 1.339 . S
C323 C322 1.395 . S
C323 H349 0.929 . S
C324 C322 1.320 . S
C324 C325 1.405 1_545 S
C324 H350 0.930 1_545 S
C325 C320 1.479 1_565 S
C325 C324 1.405 1_565 S
C325 H351 0.931 . S
U326 O327 2.454 . S
U326 O328 2.458 . S
U326 C329 2.984 . S
U326 C330 2.847 1_565 S
U326 C343 2.882 1_565 S
U326 O344 2.441 . S
U326 O345 2.420 1_565 S
U326 O346 2.455 1_565 S
U326 O347 2.449 1_565 S
O327 U326 2.454 . S
O327 C329 1.353 . S
O328 U326 2.458 . S
O328 C329 1.286 . S
C329 U326 2.984 . S
C329 O327 1.353 . S
C329 O328 1.286 . S
C329 C331 1.363 . S
C330 C320 1.465 . S
C330 U326 2.847 1_545 S
C330 O344 1.249 1_545 S
C330 O345 1.202 . S
C331 C329 1.363 . S
C331 C333 1.408 . S
C331 C336 1.342 . S
C332 C333 1.310 . S
C332 C335 1.461 . S
C332 H352 0.932 . S
C333 C331 1.408 . S
C333 C332 1.310 . S
C333 H353 0.930 . S
C334 C335 1.474 . S
C334 C336 1.285 . S
C334 H354 0.929 . S
C335 C332 1.461 . S
C335 C334 1.474 . S
C336 C331 1.342 . S
C336 C334 1.285 . S
C336 H355 0.930 . S
C337 C340 1.424 . S
C337 C342 1.245 . S
C337 C343 1.428 . S
C338 C341 1.260 . S
C338 C342 1.477 . S
C338 H356 0.932 . S
C339 C340 1.384 . S
C339 C341 1.479 . S
C339 H357 0.929 . S
C340 C337 1.424 . S
C340 C339 1.384 . S
C340 H358 0.928 . S
C341 C338 1.260 . S
C341 C339 1.479 . S
C342 C337 1.245 . S
C342 C338 1.477 . S
C342 H359 0.932 . S
C343 U326 2.882 1_545 S
C343 C337 1.428 . S
C343 O346 1.301 . S
C343 O347 1.282 . S
O344 U326 2.441 . S
O344 C330 1.249 1_565 S
O345 U326 2.420 1_545 S
O345 C330 1.202 . S
O346 U326 2.455 1_545 S
O346 C343 1.301 . S
O347 U326 2.449 1_545 S
O347 C343 1.282 . S
H348 C321 0.931 . S
H349 C323 0.929 . S
H350 C324 0.930 1_565 S
H351 C325 0.931 . S
H352 C332 0.932 . S
H353 C333 0.930 . S
H354 C334 0.929 . S
H355 C336 0.930 . S
H356 C338 0.932 . S
H357 C339 0.929 . S
H358 C340 0.928 . S
H359 C342 0.932 . S
C360 C361 1.264 . S
C360 C365 1.479 . S
C360 C370 1.465 . S
C361 C360 1.264 . S
C361 C363 1.339 . S
C361 H388 0.931 . S
C362 C363 1.395 . S
C362 C364 1.320 . S
C363 C361 1.339 . S
C363 C362 1.395 . S
C363 H389 0.929 . S
C364 C362 1.320 . S
C364 C365 1.405 . S
C364 H390 0.930 . S
C365 C360 1.479 . S
C365 C364 1.405 . S
C365 H391 0.931 . S
U366 O367 2.466 . S
U366 O368 2.458 . S
U366 C369 2.984 . S
U366 C370 2.847 1_545 S
U366 C383 2.882 . S
U366 O384 2.441 1_545 S
U366 O385 2.420 1_545 S
U366 O386 2.455 . S
U366 O387 2.449 . S
O367 U366 2.466 . S
O367 C369 1.388 . S
O368 U366 2.458 . S
O368 C369 1.286 . S
C369 U366 2.984 . S
C369 O367 1.388 . S
C369 O368 1.286 . S
C369 C371 1.363 . S
C370 C360 1.465 . S
C370 U366 2.847 1_565 S
C370 O384 1.249 . S
C370 O385 1.202 . S
C371 C369 1.363 . S
C371 C373 1.408 . S
C371 C376 1.342 . S
C372 C373 1.310 . S
C372 C375 1.461 . S
C372 H392 0.932 . S
C373 C371 1.408 . S
C373 C372 1.310 . S
C373 H393 0.930 . S
C374 C375 1.474 . S
C374 C376 1.285 . S
C374 H394 0.929 . S
C375 C372 1.461 . S
C375 C374 1.474 . S
C376 C371 1.342 . S
C376 C374 1.285 . S
C376 H395 0.930 . S
C377 C380 1.424 . S
C377 C382 1.245 . S
C377 C383 1.428 . S
C378 C381 1.260 . S
C378 C382 1.477 . S
C378 H396 0.932 . S
C379 C380 1.384 . S
C379 C381 1.479 . S
C379 H397 0.929 . S
C380 C377 1.424 . S
C380 C379 1.384 . S
C380 H398 0.928 . S
C381 C378 1.260 . S
C381 C379 1.479 . S
C382 C377 1.245 . S
C382 C378 1.477 . S
C382 H399 0.932 . S
C383 U366 2.882 . S
C383 C377 1.428 . S
C383 O386 1.301 . S
C383 O387 1.282 . S
O384 U366 2.441 1_565 S
O384 C370 1.249 . S
O385 U366 2.420 1_565 S
O385 C370 1.202 . S
O386 U366 2.455 . S
O386 C383 1.301 . S
O387 U366 2.449 . S
O387 C383 1.282 . S
H388 C361 0.931 . S
H389 C363 0.929 . S
H390 C364 0.930 . S
H391 C365 0.931 . S
H392 C372 0.932 . S
H393 C373 0.930 . S
H394 C374 0.929 . S
H395 C376 0.930 . S
H396 C378 0.932 . S
H397 C379 0.929 . S
H398 C380 0.928 . S
H399 C382 0.932 . S
C400 C401 1.264 . S
C400 C405 1.479 . S
C400 C410 1.465 . S
C401 C400 1.264 . S
C401 C403 1.339 . S
C401 H428 0.931 . S
C402 C403 1.395 . S
C402 C404 1.320 . S
C403 C401 1.339 . S
C403 C402 1.395 . S
C403 H429 0.929 . S
C404 C402 1.320 . S
C404 C405 1.405 . S
C404 H430 0.930 . S
C405 C400 1.479 . S
C405 C404 1.405 . S
C405 H431 0.931 . S
U406 O407 2.454 1_565 S
U406 O408 2.458 . S
U406 C409 2.984 . S
U406 C410 2.847 1_565 S
U406 C423 2.882 . S
U406 O424 2.441 1_565 S
U406 O425 2.420 1_565 S
U406 O426 2.455 . S
U406 O427 2.449 . S
O407 U406 2.454 1_545 S
O407 C409 1.353 1_545 S
O408 U406 2.458 . S
O408 C409 1.286 . S
C409 U406 2.984 . S
C409 O407 1.353 1_565 S
C409 O408 1.286 . S
C409 C411 1.363 . S
C410 C400 1.465 . S
C410 U406 2.847 1_545 S
C410 O424 1.249 . S
C410 O425 1.202 . S
C411 C409 1.363 . S
C411 C413 1.408 . S
C411 C416 1.342 . S
C412 C413 1.310 . S
C412 C415 1.461 . S
C412 H432 0.932 1_565 S
C413 C411 1.408 . S
C413 C412 1.310 . S
C413 H433 0.930 1_565 S
C414 C415 1.474 . S
C414 C416 1.285 . S
C414 H434 0.929 . S
C415 C412 1.461 . S
C415 C414 1.474 . S
C416 C411 1.342 . S
C416 C414 1.285 . S
C416 H435 0.930 . S
C417 C420 1.424 . S
C417 C422 1.245 . S
C417 C423 1.428 . S
C418 C421 1.260 . S
C418 C422 1.477 . S
C418 H436 0.932 . S
C419 C420 1.384 . S
C419 C421 1.479 . S
C419 H437 0.929 . S
C420 C417 1.424 . S
C420 C419 1.384 . S
C420 H438 0.928 . S
C421 C418 1.260 . S
C421 C419 1.479 . S
C422 C417 1.245 . S
C422 C418 1.477 . S
C422 H439 0.932 . S
C423 U406 2.882 . S
C423 C417 1.428 . S
C423 O426 1.301 . S
C423 O427 1.282 . S
O424 U406 2.441 1_545 S
O424 C410 1.249 . S
O425 U406 2.420 1_545 S
O425 C410 1.202 . S
O426 U406 2.455 . S
O426 C423 1.301 . S
O427 U406 2.449 . S
O427 C423 1.282 . S
H428 C401 0.931 . S
H429 C403 0.929 . S
H430 C404 0.930 . S
H431 C405 0.931 . S
H432 C412 0.932 1_545 S
H433 C413 0.930 1_545 S
H434 C414 0.929 . S
H435 C416 0.930 . S
H436 C418 0.932 . S
H437 C419 0.929 . S
H438 C420 0.928 . S
H439 C422 0.932 . S
C440 C441 1.264 . S
C440 C445 1.479 1_565 S
C440 C450 1.465 . S
C441 C440 1.264 . S
C441 C443 1.339 . S
C441 H468 0.931 . S
C442 C443 1.395 . S
C442 C444 1.320 . S
C443 C441 1.339 . S
C443 C442 1.395 . S
C443 H469 0.929 . S
C444 C442 1.320 . S
C444 C445 1.405 1_565 S
C444 H470 0.930 1_565 S
C445 C440 1.479 1_545 S
C445 C444 1.405 1_545 S
C445 H471 0.931 . S
U446 O447 2.454 . S
U446 O448 2.458 . S
U446 C449 2.984 . S
U446 C450 2.847 1_545 S
U446 C463 2.882 1_545 S
U446 O464 2.441 . S
U446 O465 2.420 1_545 S
U446 O466 2.455 1_545 S
U446 O467 2.449 1_545 S
O447 U446 2.454 . S
O447 C449 1.353 . S
O448 U446 2.458 . S
O448 C449 1.286 . S
C449 U446 2.984 . S
C449 O447 1.353 . S
C449 O448 1.286 . S
C449 C451 1.363 . S
C450 C440 1.465 . S
C450 U446 2.847 1_565 S
C450 O464 1.249 1_565 S
C450 O465 1.202 . S
C451 C449 1.363 . S
C451 C453 1.408 . S
C451 C456 1.342 . S
C452 C453 1.310 . S
C452 C455 1.461 . S
C452 H472 0.932 . S
C453 C451 1.408 . S
C453 C452 1.310 . S
C453 H473 0.930 . S
C454 C455 1.474 . S
C454 C456 1.285 . S
C454 H474 0.929 . S
C455 C452 1.461 . S
C455 C454 1.474 . S
C456 C451 1.342 . S
C456 C454 1.285 . S
C456 H475 0.930 . S
C457 C460 1.424 . S
C457 C462 1.245 . S
C457 C463 1.428 . S
C458 C461 1.260 . S
C458 C462 1.477 . S
C458 H476 0.932 . S
C459 C460 1.384 . S
C459 C461 1.479 . S
C459 H477 0.929 . S
C460 C457 1.424 . S
C460 C459 1.384 . S
C460 H478 0.928 . S
C461 C458 1.260 . S
C461 C459 1.479 . S
C462 C457 1.245 . S
C462 C458 1.477 . S
C462 H479 0.932 . S
C463 U446 2.882 1_565 S
C463 C457 1.428 . S
C463 O466 1.301 . S
C463 O467 1.282 . S
O464 U446 2.441 . S
O464 C450 1.249 1_545 S
O465 U446 2.420 1_565 S
O465 C450 1.202 . S
O466 U446 2.455 1_565 S
O466 C463 1.301 . S
O467 U446 2.449 1_565 S
O467 C463 1.282 . S
H468 C441 0.931 . S
H469 C443 0.929 . S
H470 C444 0.930 1_545 S
H471 C445 0.931 . S
H472 C452 0.932 . S
H473 C453 0.930 . S
H474 C454 0.929 . S
H475 C456 0.930 . S
H476 C458 0.932 . S
H477 C459 0.929 . S
H478 C460 0.928 . S
H479 C462 0.932 . S
C480 C481 1.264 . S
C480 C485 1.479 . S
C480 C490 1.465 . S
C481 C480 1.264 . S
C481 C483 1.339 . S
C481 H508 0.931 . S
C482 C483 1.395 . S
C482 C484 1.320 . S
C483 C481 1.339 . S
C483 C482 1.395 . S
C483 H509 0.929 . S
C484 C482 1.320 . S
C484 C485 1.405 . S
C484 H510 0.930 . S
C485 C480 1.479 . S
C485 C484 1.405 . S
C485 H511 0.931 . S
U486 O487 2.454 . S
U486 O488 2.458 . S
U486 C489 2.984 . S
U486 C490 2.847 . S
U486 C503 2.882 . S
U486 O504 2.441 . S
U486 O505 2.420 . S
U486 O506 2.455 . S
U486 O507 2.449 . S
O487 U486 2.454 . S
O487 C489 1.353 . S
O488 U486 2.458 . S
O488 C489 1.286 . S
C489 U486 2.984 . S
C489 O487 1.353 . S
C489 O488 1.286 . S
C489 C491 1.350 1_554 S
C490 C480 1.465 . S
C490 U486 2.847 . S
C490 O504 1.249 . S
C490 O505 1.202 . S
C491 C489 1.350 1_556 S
C491 C493 1.417 . S
C491 C496 1.345 . S
C492 C493 1.310 . S
C492 C495 1.461 . S
C492 H512 0.932 . S
C493 C491 1.417 . S
C493 C492 1.310 . S
C493 H513 0.930 . S
C494 C495 1.474 . S
C494 C496 1.285 . S
C494 H514 0.929 . S
C495 C492 1.461 . S
C495 C494 1.474 . S
C496 C491 1.345 . S
C496 C494 1.285 . S
C496 H515 0.930 1_556 S
C497 C500 1.424 . S
C497 C502 1.245 . S
C497 C503 1.428 . S
C498 C501 1.260 . S
C498 C502 1.477 . S
C498 H516 0.932 . S
C499 C500 1.384 . S
C499 C501 1.479 . S
C499 H517 0.929 . S
C500 C497 1.424 . S
C500 C499 1.384 . S
C500 H518 0.928 . S
C501 C498 1.260 . S
C501 C499 1.479 . S
C502 C497 1.245 . S
C502 C498 1.477 . S
C502 H519 0.932 . S
C503 U486 2.882 . S
C503 C497 1.428 . S
C503 O506 1.301 . S
C503 O507 1.282 . S
O504 U486 2.441 . S
O504 C490 1.249 . S
O505 U486 2.420 . S
O505 C490 1.202 . S
O506 U486 2.455 . S
O506 C503 1.301 . S
O507 U486 2.449 . S
O507 C503 1.282 . S
H508 C481 0.931 . S
H509 C483 0.929 . S
H510 C484 0.930 . S
H511 C485 0.931 . S
H512 C492 0.932 . S
H513 C493 0.930 . S
H514 C494 0.929 . S
H515 C496 0.930 1_554 S
H516 C498 0.932 . S
H517 C499 0.929 . S
H518 C500 0.928 . S
H519 C502 0.932 . S
C520 C521 1.264 . S
C520 C525 1.479 . S
C520 C530 1.465 . S
C521 C520 1.264 . S
C521 C523 1.339 . S
C521 H548 0.931 . S
C522 C523 1.395 . S
C522 C524 1.320 . S
C523 C521 1.339 . S
C523 C522 1.395 . S
C523 H549 0.929 . S
C524 C522 1.320 . S
C524 C525 1.405 . S
C524 H550 0.930 . S
C525 C520 1.479 . S
C525 C524 1.405 . S
C525 H551 0.931 . S
U526 O527 2.454 . S
U526 O528 2.458 . S
U526 C529 2.984 . S
U526 C530 2.847 1_655 S
U526 C543 2.882 . S
U526 O544 2.441 . S
U526 O545 2.420 . S
U526 O546 2.455 . S
U526 O547 2.449 . S
O527 U526 2.454 . S
O527 C529 1.353 . S
O528 U526 2.458 . S
O528 C529 1.286 . S
C529 U526 2.984 . S
C529 O527 1.353 . S
C529 O528 1.286 . S
C529 C531 1.363 . S
C530 C520 1.465 . S
C530 U526 2.847 1_455 S
C530 O544 1.249 1_455 S
C530 O545 1.202 1_455 S
C531 C529 1.363 . S
C531 C533 1.408 . S
C531 C536 1.342 . S
C532 C533 1.310 . S
C532 C535 1.461 . S
C532 H552 0.932 . S
C533 C531 1.408 . S
C533 C532 1.310 . S
C533 H553 0.930 . S
C534 C535 1.474 . S
C534 C536 1.285 . S
C534 H554 0.929 . S
C535 C532 1.461 . S
C535 C534 1.474 . S
C536 C531 1.342 . S
C536 C534 1.285 . S
C536 H555 0.930 . S
C537 C540 1.424 . S
C537 C542 1.245 . S
C537 C543 1.428 . S
C538 C541 1.260 . S
C538 C542 1.477 . S
C538 H556 0.932 . S
C539 C540 1.384 . S
C539 C541 1.479 . S
C539 H557 0.929 . S
C540 C537 1.424 . S
C540 C539 1.384 . S
C540 H558 0.928 . S
C541 C538 1.260 . S
C541 C539 1.479 . S
C542 C537 1.245 . S
C542 C538 1.477 . S
C542 H559 0.932 . S
C543 U526 2.882 . S
C543 C537 1.428 . S
C543 O546 1.301 . S
C543 O547 1.282 . S
O544 U526 2.441 . S
O544 C530 1.249 1_655 S
O545 U526 2.420 . S
O545 C530 1.202 1_655 S
O546 U526 2.455 . S
O546 C543 1.301 . S
O547 U526 2.449 . S
O547 C543 1.282 . S
H548 C521 0.931 . S
H549 C523 0.929 . S
H550 C524 0.930 . S
H551 C525 0.931 . S
H552 C532 0.932 . S
H553 C533 0.930 . S
H554 C534 0.929 . S
H555 C536 0.930 . S
H556 C538 0.932 . S
H557 C539 0.929 . S
H558 C540 0.928 . S
H559 C542 0.932 . S
C560 C561 1.264 . S
C560 C565 1.479 . S
C560 C570 1.465 . S
C561 C560 1.264 . S
C561 C563 1.339 . S
C561 H588 0.931 . S
C562 C563 1.395 . S
C562 C564 1.320 . S
C563 C561 1.339 . S
C563 C562 1.395 . S
C563 H589 0.929 . S
C564 C562 1.320 . S
C564 C565 1.405 . S
C564 H590 0.930 . S
C565 C560 1.479 . S
C565 C564 1.405 . S
C565 H591 0.931 . S
U566 O567 2.454 . S
U566 O568 2.458 . S
U566 C569 2.984 . S
U566 C570 2.847 . S
U566 C583 2.882 . S
U566 O584 2.441 . S
U566 O585 2.420 . S
U566 O586 2.455 . S
U566 O587 2.449 . S
O567 U566 2.454 . S
O567 C569 1.353 . S
O568 U566 2.458 . S
O568 C569 1.286 . S
C569 U566 2.984 . S
C569 O567 1.353 . S
C569 O568 1.286 . S
C569 C571 1.363 . S
C570 C560 1.465 . S
C570 U566 2.847 . S
C570 O584 1.249 . S
C570 O585 1.202 . S
C571 C569 1.363 . S
C571 C573 1.408 . S
C571 C576 1.342 . S
C572 C573 1.310 . S
C572 C575 1.461 . S
C572 H592 0.932 . S
C573 C571 1.408 . S
C573 C572 1.310 . S
C573 H593 0.930 . S
C574 C575 1.474 . S
C574 C576 1.285 . S
C574 H594 0.929 . S
C575 C572 1.461 . S
C575 C574 1.474 . S
C576 C571 1.342 . S
C576 C574 1.285 . S
C576 H595 0.930 . S
C577 C580 1.424 . S
C577 C582 1.245 . S
C577 C583 1.428 . S
C578 C581 1.260 . S
C578 C582 1.477 . S
C578 H596 0.932 . S
C579 C580 1.384 . S
C579 C581 1.479 . S
C579 H597 0.929 . S
C580 C577 1.424 . S
C580 C579 1.384 . S
C580 H598 0.928 . S
C581 C578 1.260 . S
C581 C579 1.479 . S
C582 C577 1.245 . S
C582 C578 1.477 . S
C582 H599 0.932 . S
C583 U566 2.882 . S
C583 C577 1.428 . S
C583 O586 1.301 . S
C583 O587 1.282 . S
O584 U566 2.441 . S
O584 C570 1.249 . S
O585 U566 2.420 . S
O585 C570 1.202 . S
O586 U566 2.455 . S
O586 C583 1.301 . S
O587 U566 2.449 . S
O587 C583 1.282 . S
H588 C561 0.931 . S
H589 C563 0.929 . S
H590 C564 0.930 . S
H591 C565 0.931 . S
H592 C572 0.932 . S
H593 C573 0.930 . S
H594 C574 0.929 . S
H595 C576 0.930 . S
H596 C578 0.932 . S
H597 C579 0.929 . S
H598 C580 0.928 . S
H599 C582 0.932 . S
C600 C601 1.264 . S
C600 C605 1.479 . S
C600 C610 1.465 . S
C601 C600 1.264 . S
C601 C603 1.339 . S
C601 H628 0.931 . S
C602 C603 1.395 . S
C602 C604 1.320 . S
C603 C601 1.339 . S
C603 C602 1.395 . S
C603 H629 0.929 . S
C604 C602 1.320 . S
C604 C605 1.405 . S
C604 H630 0.930 . S
C605 C600 1.479 . S
C605 C604 1.405 . S
C605 H631 0.931 1_655 S
U606 O607 2.454 . S
U606 O608 2.458 . S
U606 C609 2.984 . S
U606 C610 2.847 1_455 S
U606 C623 2.882 1_455 S
U606 O624 2.441 . S
U606 O625 2.420 1_455 S
U606 O626 2.455 . S
U606 O627 2.449 1_455 S
O607 U606 2.454 . S
O607 C609 1.353 . S
O608 U606 2.458 . S
O608 C609 1.286 . S
C609 U606 2.984 . S
C609 O607 1.353 . S
C609 O608 1.286 . S
C609 C611 1.363 . S
C610 C600 1.465 . S
C610 U606 2.847 1_655 S
C610 O624 1.249 1_655 S
C610 O625 1.202 . S
C611 C609 1.363 . S
C611 C613 1.408 . S
C611 C616 1.342 . S
C612 C613 1.310 . S
C612 C615 1.461 . S
C612 H632 0.932 . S
C613 C611 1.408 . S
C613 C612 1.310 . S
C613 H633 0.930 . S
C614 C615 1.474 . S
C614 C616 1.285 . S
C614 H634 0.929 . S
C615 C612 1.461 . S
C615 C614 1.474 . S
C616 C611 1.342 . S
C616 C614 1.285 . S
C616 H635 0.930 . S
C617 C620 1.424 . S
C617 C622 1.245 . S
C617 C623 1.428 . S
C618 C621 1.260 . S
C618 C622 1.477 . S
C618 H636 0.932 . S
C619 C620 1.384 . S
C619 C621 1.479 . S
C619 H637 0.929 . S
C620 C617 1.424 . S
C620 C619 1.384 . S
C620 H638 0.928 . S
C621 C618 1.260 . S
C621 C619 1.479 . S
C622 C617 1.245 . S
C622 C618 1.477 . S
C622 H639 0.968 . S
C623 U606 2.882 1_655 S
C623 C617 1.428 . S
C623 O626 1.301 1_655 S
C623 O627 1.282 . S
O624 U606 2.441 . S
O624 C610 1.249 1_455 S
O625 U606 2.420 1_655 S
O625 C610 1.202 . S
O626 U606 2.455 . S
O626 C623 1.301 1_455 S
O627 U606 2.449 1_655 S
O627 C623 1.282 . S
H628 C601 0.931 . S
H629 C603 0.929 . S
H630 C604 0.930 . S
H631 C605 0.931 1_455 S
H632 C612 0.932 . S
H633 C613 0.930 . S
H634 C614 0.929 . S
H635 C616 0.930 . S
H636 C618 0.932 . S
H637 C619 0.929 . S
H638 C620 0.928 . S
H639 C622 0.968 . S
C640 C641 1.264 . S
C640 C645 1.479 . S
C640 C650 1.465 . S
C641 C640 1.264 . S
C641 C643 1.339 . S
C641 H668 0.931 . S
C642 C643 1.395 . S
C642 C644 1.320 . S
C643 C641 1.339 . S
C643 C642 1.395 . S
C643 H669 0.929 . S
C644 C642 1.320 . S
C644 C645 1.405 . S
C644 H670 0.930 . S
C645 C640 1.479 . S
C645 C644 1.405 . S
C645 H671 0.931 . S
U646 O647 2.454 . S
U646 O648 2.458 . S
U646 C649 2.984 . S
U646 C650 2.847 . S
U646 C663 2.882 . S
U646 O664 2.441 . S
U646 O665 2.420 . S
U646 O666 2.455 . S
U646 O667 2.449 . S
O647 U646 2.454 . S
O647 C649 1.353 . S
O648 U646 2.458 . S
O648 C649 1.286 . S
C649 U646 2.984 . S
C649 O647 1.353 . S
C649 O648 1.286 . S
C649 C651 1.363 . S
C650 C640 1.465 . S
C650 U646 2.847 . S
C650 O664 1.249 . S
C650 O665 1.202 . S
C651 C649 1.363 . S
C651 C653 1.408 . S
C651 C656 1.342 . S
C652 C653 1.310 . S
C652 C655 1.461 . S
C652 H672 0.932 . S
C653 C651 1.408 . S
C653 C652 1.310 . S
C653 H673 0.930 . S
C654 C655 1.474 . S
C654 C656 1.285 . S
C654 H674 0.929 . S
C655 C652 1.461 . S
C655 C654 1.474 . S
C656 C651 1.342 . S
C656 C654 1.285 . S
C656 H675 0.930 . S
C657 C660 1.424 . S
C657 C662 1.245 . S
C657 C663 1.428 . S
C658 C661 1.260 . S
C658 C662 1.477 . S
C658 H676 0.932 . S
C659 C660 1.384 . S
C659 C661 1.479 . S
C659 H677 0.929 . S
C660 C657 1.424 . S
C660 C659 1.384 . S
C660 H678 0.928 . S
C661 C658 1.260 . S
C661 C659 1.479 . S
C662 C657 1.245 . S
C662 C658 1.477 . S
C662 H679 0.932 . S
C663 U646 2.882 . S
C663 C657 1.428 . S
C663 O666 1.301 . S
C663 O667 1.282 . S
O664 U646 2.441 . S
O664 C650 1.249 . S
O665 U646 2.420 . S
O665 C650 1.202 . S
O666 U646 2.455 . S
O666 C663 1.301 . S
O667 U646 2.449 . S
O667 C663 1.282 . S
H668 C641 0.931 . S
H669 C643 0.929 . S
H670 C644 0.930 . S
H671 C645 0.931 . S
H672 C652 0.932 . S
H673 C653 0.930 . S
H674 C654 0.929 . S
H675 C656 0.930 . S
H676 C658 0.932 . S
H677 C659 0.929 . S
H678 C660 0.928 . S
H679 C662 0.932 . S
C680 C681 1.264 . S
C680 C685 1.479 . S
C680 C690 1.465 . S
C681 C680 1.264 . S
C681 C683 1.339 . S
C681 H708 0.931 . S
C682 C683 1.395 . S
C682 C684 1.320 . S
C683 C681 1.339 . S
C683 C682 1.395 . S
C683 H709 0.929 . S
C684 C682 1.320 . S
C684 C685 1.405 . S
C684 H710 0.930 . S
C685 C680 1.479 . S
C685 C684 1.405 . S
C685 H711 0.931 . S
U686 O687 2.454 . S
U686 O688 2.458 . S
U686 C689 2.984 . S
U686 C690 2.847 . S
U686 C703 2.882 . S
U686 O704 2.441 . S
U686 O705 2.420 . S
U686 O706 2.455 . S
U686 O707 2.449 . S
O687 U686 2.454 . S
O687 C689 1.353 . S
O688 U686 2.458 . S
O688 C689 1.286 . S
C689 U686 2.984 . S
C689 O687 1.353 . S
C689 O688 1.286 . S
C689 C691 1.363 . S
C690 C680 1.465 . S
C690 U686 2.847 . S
C690 O704 1.249 . S
C690 O705 1.202 . S
C691 C689 1.363 . S
C691 C693 1.408 . S
C691 C696 1.342 . S
C692 C693 1.310 . S
C692 C695 1.461 . S
C692 H712 0.932 . S
C693 C691 1.408 . S
C693 C692 1.310 . S
C693 H713 0.930 . S
C694 C695 1.474 . S
C694 C696 1.285 . S
C694 H714 0.929 . S
C695 C692 1.461 . S
C695 C694 1.474 . S
C696 C691 1.342 . S
C696 C694 1.285 . S
C696 H715 0.930 . S
C697 C700 1.424 . S
C697 C702 1.245 . S
C697 C703 1.428 . S
C698 C701 1.260 . S
C698 C702 1.477 . S
C698 H716 0.932 . S
C699 C700 1.384 . S
C699 C701 1.479 . S
C699 H717 0.929 . S
C700 C697 1.424 . S
C700 C699 1.384 . S
C700 H718 0.928 . S
C701 C698 1.260 . S
C701 C699 1.479 . S
C702 C697 1.245 . S
C702 C698 1.477 . S
C702 H719 0.932 . S
C703 U686 2.882 . S
C703 C697 1.428 . S
C703 O706 1.301 . S
C703 O707 1.282 . S
O704 U686 2.441 . S
O704 C690 1.249 . S
O705 U686 2.420 . S
O705 C690 1.202 . S
O706 U686 2.455 . S
O706 C703 1.301 . S
O707 U686 2.449 . S
O707 C703 1.282 . S
H708 C681 0.931 . S
H709 C683 0.929 . S
H710 C684 0.930 . S
H711 C685 0.931 . S
H712 C692 0.932 . S
H713 C693 0.930 . S
H714 C694 0.929 . S
H715 C696 0.930 . S
H716 C698 0.932 . S
H717 C699 0.929 . S
H718 C700 0.928 . S
H719 C702 0.932 . S
C720 C721 1.264 . S
C720 C725 1.479 . S
C720 C730 1.465 . S
C721 C720 1.264 . S
C721 C723 1.339 . S
C721 H748 0.931 . S
C722 C723 1.395 . S
C722 C724 1.320 . S
C723 C721 1.339 . S
C723 C722 1.395 . S
C723 H749 0.929 . S
C724 C722 1.320 . S
C724 C725 1.405 . S
C724 H750 0.930 . S
C725 C720 1.479 . S
C725 C724 1.405 . S
C725 H751 0.931 . S
U726 O727 2.454 . S
U726 O728 2.458 . S
U726 C729 2.984 . S
U726 C730 2.847 . S
U726 C743 2.882 . S
U726 O744 2.441 . S
U726 O745 2.420 . S
U726 O746 2.455 . S
U726 O747 2.449 . S
O727 U726 2.454 . S
O727 C729 1.353 . S
O728 U726 2.458 . S
O728 C729 1.286 . S
C729 U726 2.984 . S
C729 O727 1.353 . S
C729 O728 1.286 . S
C729 C731 1.363 . S
C730 C720 1.465 . S
C730 U726 2.847 . S
C730 O744 1.249 . S
C730 O745 1.202 . S
C731 C729 1.363 . S
C731 C733 1.408 . S
C731 C736 1.342 . S
C732 C733 1.310 . S
C732 C735 1.461 . S
C732 H752 0.932 . S
C733 C731 1.408 . S
C733 C732 1.310 . S
C733 H753 0.930 . S
C734 C735 1.474 . S
C734 C736 1.285 . S
C734 H754 0.929 . S
C735 C732 1.461 . S
C735 C734 1.474 . S
C736 C731 1.342 . S
C736 C734 1.285 . S
C736 H755 0.930 . S
C737 C740 1.424 . S
C737 C742 1.245 . S
C737 C743 1.428 . S
C738 C741 1.260 . S
C738 C742 1.477 . S
C738 H756 0.932 . S
C739 C740 1.384 . S
C739 C741 1.479 . S
C739 H757 0.929 . S
C740 C737 1.424 . S
C740 C739 1.384 . S
C740 H758 0.928 . S
C741 C738 1.260 . S
C741 C739 1.479 . S
C742 C737 1.245 . S
C742 C738 1.477 . S
C742 H759 0.932 . S
C743 U726 2.882 . S
C743 C737 1.428 . S
C743 O746 1.301 . S
C743 O747 1.282 . S
O744 U726 2.441 . S
O744 C730 1.249 . S
O745 U726 2.420 . S
O745 C730 1.202 . S
O746 U726 2.455 . S
O746 C743 1.301 . S
O747 U726 2.449 . S
O747 C743 1.282 . S
H748 C721 0.931 . S
H749 C723 0.929 . S
H750 C724 0.930 . S
H751 C725 0.931 . S
H752 C732 0.932 . S
H753 C733 0.930 . S
H754 C734 0.929 . S
H755 C736 0.930 . S
H756 C738 0.932 . S
H757 C739 0.929 . S
H758 C740 0.928 . S
H759 C742 0.932 . S
C760 C761 1.264 . S
C760 C765 1.479 . S
C760 C770 1.465 . S
C761 C760 1.264 . S
C761 C763 1.339 . S
C761 H788 0.931 . S
C762 C763 1.395 . S
C762 C764 1.320 . S
C763 C761 1.339 . S
C763 C762 1.395 . S
C763 H789 0.929 . S
C764 C762 1.320 . S
C764 C765 1.405 . S
C764 H790 0.930 . S
C765 C760 1.479 . S
C765 C764 1.405 . S
C765 H791 0.931 . S
U766 O767 2.454 . S
U766 O768 2.458 . S
U766 C769 2.984 . S
U766 C770 2.847 . S
U766 C783 2.882 . S
U766 O784 2.441 . S
U766 O785 2.420 . S
U766 O786 2.455 . S
U766 O787 2.449 . S
O767 U766 2.454 . S
O767 C769 1.353 . S
O768 U766 2.458 . S
O768 C769 1.286 . S
C769 U766 2.984 . S
C769 O767 1.353 . S
C769 O768 1.286 . S
C769 C771 1.363 . S
C770 C760 1.465 . S
C770 U766 2.847 . S
C770 O784 1.249 . S
C770 O785 1.202 . S
C771 C769 1.363 . S
C771 C773 1.408 . S
C771 C776 1.342 . S
C772 C773 1.310 . S
C772 C775 1.461 . S
C772 H792 0.932 . S
C773 C771 1.408 . S
C773 C772 1.310 . S
C773 H793 0.930 . S
C774 C775 1.474 . S
C774 C776 1.285 . S
C774 H794 0.929 . S
C775 C772 1.461 . S
C775 C774 1.474 . S
C776 C771 1.342 . S
C776 C774 1.285 . S
C776 H795 0.930 . S
C777 C780 1.424 . S
C777 C782 1.245 . S
C777 C783 1.428 . S
C778 C781 1.260 . S
C778 C782 1.477 . S
C778 H796 0.932 . S
C779 C780 1.384 . S
C779 C781 1.479 . S
C779 H797 0.929 . S
C780 C777 1.424 . S
C780 C779 1.384 . S
C780 H798 0.928 . S
C781 C778 1.260 . S
C781 C779 1.479 . S
C782 C777 1.245 . S
C782 C778 1.477 . S
C782 H799 0.932 . S
C783 U766 2.882 . S
C783 C777 1.428 . S
C783 O786 1.301 . S
C783 O787 1.282 . S
O784 U766 2.441 . S
O784 C770 1.249 . S
O785 U766 2.420 . S
O785 C770 1.202 . S
O786 U766 2.455 . S
O786 C783 1.301 . S
O787 U766 2.449 . S
O787 C783 1.282 . S
H788 C761 0.931 . S
H789 C763 0.929 . S
H790 C764 0.930 . S
H791 C765 0.931 . S
H792 C772 0.932 . S
H793 C773 0.930 . S
H794 C774 0.929 . S
H795 C776 0.930 . S
H796 C778 0.932 . S
H797 C779 0.929 . S
H798 C780 0.928 . S
H799 C782 0.932 . S
C800 C801 1.264 . S
C800 C805 1.479 . S
C800 C810 1.465 . S
C801 C800 1.264 . S
C801 C803 1.339 . S
C801 H828 0.931 . S
C802 C803 1.395 . S
C802 C804 1.320 . S
C803 C801 1.339 . S
C803 C802 1.395 . S
C803 H829 0.929 . S
C804 C802 1.320 . S
C804 C805 1.405 . S
C804 H830 0.930 . S
C805 C800 1.479 . S
C805 C804 1.405 . S
C805 H831 0.931 . S
U806 O807 2.454 . S
U806 O808 2.458 . S
U806 C809 2.984 . S
U806 C810 2.847 . S
U806 C823 2.882 . S
U806 O824 2.441 . S
U806 O825 2.420 . S
U806 O826 2.455 . S
U806 O827 2.449 . S
O807 U806 2.454 . S
O807 C809 1.353 . S
O808 U806 2.458 . S
O808 C809 1.286 . S
C809 U806 2.984 . S
C809 O807 1.353 . S
C809 O808 1.286 . S
C809 C811 1.363 . S
C810 C800 1.465 . S
C810 U806 2.847 . S
C810 O824 1.249 . S
C810 O825 1.202 . S
C811 C809 1.363 . S
C811 C813 1.408 . S
C811 C816 1.342 . S
C812 C813 1.310 . S
C812 C815 1.461 . S
C812 H832 0.932 . S
C813 C811 1.408 . S
C813 C812 1.310 . S
C813 H833 0.930 . S
C814 C815 1.474 . S
C814 C816 1.285 . S
C814 H834 0.929 . S
C815 C812 1.461 . S
C815 C814 1.474 . S
C816 C811 1.342 . S
C816 C814 1.285 . S
C816 H835 0.930 . S
C817 C820 1.424 . S
C817 C822 1.245 . S
C817 C823 1.428 . S
C818 C821 1.260 . S
C818 C822 1.477 . S
C818 H836 0.932 . S
C819 C820 1.384 . S
C819 C821 1.479 . S
C819 H837 0.929 . S
C820 C817 1.424 . S
C820 C819 1.384 . S
C820 H838 0.928 . S
C821 C818 1.260 . S
C821 C819 1.479 . S
C822 C817 1.245 . S
C822 C818 1.477 . S
C822 H839 0.932 . S
C823 U806 2.882 . S
C823 C817 1.428 . S
C823 O826 1.301 . S
C823 O827 1.282 . S
O824 U806 2.441 . S
O824 C810 1.249 . S
O825 U806 2.420 . S
O825 C810 1.202 . S
O826 U806 2.455 . S
O826 C823 1.301 . S
O827 U806 2.449 . S
O827 C823 1.282 . S
H828 C801 0.931 . S
H829 C803 0.929 . S
H830 C804 0.930 . S
H831 C805 0.931 . S
H832 C812 0.932 . S
H833 C813 0.930 . S
H834 C814 0.929 . S
H835 C816 0.930 . S
H836 C818 0.932 . S
H837 C819 0.929 . S
H838 C820 0.928 . S
H839 C822 0.932 . S
C840 C841 1.264 . S
C840 C845 1.479 . S
C840 C850 1.465 . S
C841 C840 1.264 . S
C841 C843 1.339 . S
C841 H868 0.931 . S
C842 C843 1.395 . S
C842 C844 1.320 . S
C843 C841 1.339 . S
C843 C842 1.395 . S
C843 H869 0.929 . S
C844 C842 1.320 . S
C844 C845 1.405 . S
C844 H870 0.930 . S
C845 C840 1.479 . S
C845 C844 1.405 . S
C845 H871 0.931 . S
U846 O847 2.454 . S
U846 O848 2.458 . S
U846 C849 2.984 . S
U846 C850 2.847 . S
U846 C863 2.882 . S
U846 O864 2.441 . S
U846 O865 2.420 . S
U846 O866 2.455 . S
U846 O867 2.449 . S
O847 U846 2.454 . S
O847 C849 1.353 . S
O848 U846 2.458 . S
O848 C849 1.286 . S
C849 U846 2.984 . S
C849 O847 1.353 . S
C849 O848 1.286 . S
C849 C851 1.363 . S
C850 C840 1.465 . S
C850 U846 2.847 . S
C850 O864 1.249 . S
C850 O865 1.202 . S
C851 C849 1.363 . S
C851 C853 1.408 . S
C851 C856 1.342 . S
C852 C853 1.310 . S
C852 C855 1.461 . S
C852 H872 0.932 . S
C853 C851 1.408 . S
C853 C852 1.310 . S
C853 H873 0.930 . S
C854 C855 1.474 . S
C854 C856 1.285 . S
C854 H874 0.929 . S
C855 C852 1.461 . S
C855 C854 1.474 . S
C856 C851 1.342 . S
C856 C854 1.285 . S
C856 H875 0.930 . S
C857 C860 1.424 . S
C857 C862 1.245 . S
C857 C863 1.428 . S
C858 C861 1.260 . S
C858 C862 1.477 . S
C858 H876 0.932 . S
C859 C860 1.384 . S
C859 C861 1.479 . S
C859 H877 0.929 . S
C860 C857 1.424 . S
C860 C859 1.384 . S
C860 H878 0.928 . S
C861 C858 1.260 . S
C861 C859 1.479 . S
C862 C857 1.245 . S
C862 C858 1.477 . S
C862 H879 0.932 . S
C863 U846 2.882 . S
C863 C857 1.428 . S
C863 O866 1.301 . S
C863 O867 1.282 . S
O864 U846 2.441 . S
O864 C850 1.249 . S
O865 U846 2.420 . S
O865 C850 1.202 . S
O866 U846 2.455 . S
O866 C863 1.301 . S
O867 U846 2.449 . S
O867 C863 1.282 . S
H868 C841 0.931 . S
H869 C843 0.929 . S
H870 C844 0.930 . S
H871 C845 0.931 . S
H872 C852 0.932 . S
H873 C853 0.930 . S
H874 C854 0.929 . S
H875 C856 0.930 . S
H876 C858 0.932 . S
H877 C859 0.929 . S
H878 C860 0.928 . S
H879 C862 0.932 . S
C880 C881 1.264 . S
C880 C885 1.479 . S
C880 C890 1.465 . S
C881 C880 1.264 . S
C881 C883 1.339 . S
C881 H908 0.931 . S
C882 C883 1.395 . S
C882 C884 1.320 . S
C883 C881 1.339 . S
C883 C882 1.395 . S
C883 H909 0.929 . S
C884 C882 1.320 . S
C884 C885 1.405 . S
C884 H910 0.930 1_554 S
C885 C880 1.479 . S
C885 C884 1.405 . S
C885 H911 0.931 . S
U886 O887 2.454 . S
U886 O888 2.458 . S
U886 C889 2.984 . S
U886 C890 2.847 . S
U886 C903 2.882 . S
U886 O904 2.441 . S
U886 O905 2.420 . S
U886 O906 2.455 . S
U886 O907 2.449 . S
O887 U886 2.454 . S
O887 C889 1.353 . S
O888 U886 2.458 . S
O888 C889 1.286 . S
C889 U886 2.984 . S
C889 O887 1.353 . S
C889 O888 1.286 . S
C889 C891 1.363 . S
C890 C880 1.465 . S
C890 U886 2.847 . S
C890 O904 1.249 . S
C890 O905 1.202 . S
C891 C889 1.363 . S
C891 C893 1.408 . S
C891 C896 1.342 . S
C892 C893 1.310 . S
C892 C895 1.461 . S
C892 H912 0.932 . S
C893 C891 1.408 . S
C893 C892 1.310 . S
C893 H913 0.930 . S
C894 C895 1.474 . S
C894 C896 1.285 . S
C894 H914 0.929 . S
C895 C892 1.461 . S
C895 C894 1.474 . S
C896 C891 1.342 . S
C896 C894 1.285 . S
C896 H915 0.930 . S
C897 C900 1.424 . S
C897 C902 1.245 . S
C897 C903 1.428 . S
C898 C901 1.260 . S
C898 C902 1.477 . S
C898 H916 0.932 . S
C899 C900 1.384 . S
C899 C901 1.479 . S
C899 H917 0.929 . S
C900 C897 1.424 . S
C900 C899 1.384 . S
C900 H918 0.928 . S
C901 C898 1.260 . S
C901 C899 1.479 . S
C902 C897 1.245 . S
C902 C898 1.477 . S
C902 H919 0.932 . S
C903 U886 2.882 . S
C903 C897 1.428 . S
C903 O906 1.301 . S
C903 O907 1.282 . S
O904 U886 2.441 . S
O904 C890 1.249 . S
O905 U886 2.420 . S
O905 C890 1.202 . S
O906 U886 2.455 . S
O906 C903 1.301 . S
O907 U886 2.449 . S
O907 C903 1.282 . S
H908 C881 0.931 . S
H909 C883 0.929 . S
H910 C884 0.930 1_556 S
H911 C885 0.931 . S
H912 C892 0.932 . S
H913 C893 0.930 . S
H914 C894 0.929 . S
H915 C896 0.930 . S
H916 C898 0.932 . S
H917 C899 0.929 . S
H918 C900 0.928 . S
H919 C902 0.932 . S
C920 C921 1.264 . S
C920 C925 1.479 1_565 S
C920 C930 1.465 . S
C921 C920 1.264 . S
C921 C923 1.339 . S
C921 H948 0.931 . S
C922 C923 1.395 . S
C922 C924 1.320 1_565 S
C923 C921 1.339 . S
C923 C922 1.395 . S
C923 H949 0.929 . S
C924 C922 1.320 1_545 S
C924 C925 1.405 . S
C924 H950 0.930 . S
C925 C920 1.479 1_545 S
C925 C924 1.405 . S
C925 H951 0.931 . S
U926 O927 2.488 . S
U926 O928 2.488 . S
U926 C929 3.020 . S
U926 C930 2.833 1_545 S
U926 C943 2.862 1_545 S
U926 O944 2.443 . S
U926 O945 2.394 1_545 S
U926 O946 2.449 1_545 S
U926 O947 2.418 1_545 S
O927 U926 2.488 . S
O927 C929 1.353 . S
O928 U926 2.488 . S
O928 C929 1.286 . S
C929 U926 3.020 . S
C929 O927 1.353 . S
C929 O928 1.286 . S
C929 C931 1.363 . S
C930 C920 1.465 . S
C930 U926 2.833 1_565 S
C930 O944 1.249 1_565 S
C930 O945 1.202 . S
C931 C929 1.363 . S
C931 C933 1.408 . S
C931 C936 1.342 . S
C932 C933 1.310 . S
C932 C935 1.461 . S
C932 H952 0.932 . S
C933 C931 1.408 . S
C933 C932 1.310 . S
C933 H953 0.930 . S
C934 C935 1.474 . S
C934 C936 1.285 . S
C934 H954 0.929 . S
C935 C932 1.461 . S
C935 C934 1.474 . S
C936 C931 1.342 . S
C936 C934 1.285 . S
C936 H955 0.930 . S
C937 C940 1.424 . S
C937 C942 1.245 . S
C937 C943 1.428 . S
C938 C941 1.260 . S
C938 C942 1.477 . S
C938 H956 0.932 . S
C939 C940 1.384 . S
C939 C941 1.479 . S
C939 H957 0.929 . S
C940 C937 1.424 . S
C940 C939 1.384 . S
C940 H958 0.928 . S
C941 C938 1.260 . S
C941 C939 1.479 . S
C942 C937 1.245 . S
C942 C938 1.477 . S
C942 H959 0.932 . S
C943 U926 2.862 1_565 S
C943 C937 1.428 . S
C943 O946 1.301 . S
C943 O947 1.282 . S
O944 U926 2.443 . S
O944 C930 1.249 1_545 S
O945 U926 2.394 1_565 S
O945 C930 1.202 . S
O946 U926 2.449 1_565 S
O946 C943 1.301 . S
O947 U926 2.418 1_565 S
O947 C943 1.282 . S
H948 C921 0.931 . S
H949 C923 0.929 . S
H950 C924 0.930 . S
H951 C925 0.931 . S
H952 C932 0.932 . S
H953 C933 0.930 . S
H954 C934 0.929 . S
H955 C936 0.930 . S
H956 C938 0.932 . S
H957 C939 0.929 . S
H958 C940 0.928 . S
H959 C942 0.932 . S
C960 C961 1.264 . S
C960 C965 1.479 . S
C960 C970 1.465 . S
C961 C960 1.264 . S
C961 C963 1.339 . S
C961 H988 0.931 . S
C962 C963 1.395 . S
C962 C964 1.320 . S
C963 C961 1.339 . S
C963 C962 1.395 . S
C963 H989 0.929 . S
C964 C962 1.320 . S
C964 C965 1.405 . S
C964 H990 0.930 . S
C965 C960 1.479 . S
C965 C964 1.405 . S
C965 H991 0.931 . S
U966 O967 2.454 1_565 S
U966 O968 2.458 1_565 S
U966 C969 2.984 1_565 S
U966 C970 2.847 . S
U966 C983 2.882 . S
U966 O984 2.441 . S
U966 O985 2.420 . S
U966 O986 2.455 . S
U966 O987 2.449 . S
O967 U966 2.454 1_545 S
O967 C969 1.353 . S
O968 U966 2.458 1_545 S
O968 C969 1.286 . S
C969 U966 2.984 1_545 S
C969 O967 1.353 . S
C969 O968 1.286 . S
C969 C971 1.363 . S
C970 C960 1.465 . S
C970 U966 2.847 . S
C970 O984 1.249 . S
C970 O985 1.202 . S
C971 C969 1.363 . S
C971 C973 1.408 . S
C971 C976 1.342 . S
C972 C973 1.310 . S
C972 C975 1.461 . S
C972 H992 0.932 . S
C973 C971 1.408 . S
C973 C972 1.310 . S
C973 H993 0.930 . S
C974 C975 1.474 . S
C974 C976 1.285 . S
C974 H994 0.929 . S
C975 C972 1.461 . S
C975 C974 1.474 . S
C976 C971 1.342 . S
C976 C974 1.285 . S
C976 H995 0.930 . S
C977 C980 1.424 . S
C977 C982 1.245 . S
C977 C983 1.428 . S
C978 C981 1.260 . S
C978 C982 1.477 . S
C978 H996 0.932 . S
C979 C980 1.384 . S
C979 C981 1.479 . S
C979 H997 0.929 . S
C980 C977 1.424 . S
C980 C979 1.384 . S
C980 H998 0.928 . S
C981 C978 1.260 . S
C981 C979 1.479 . S
C982 C977 1.245 . S
C982 C978 1.477 . S
C982 H999 0.932 . S
C983 U966 2.882 . S
C983 C977 1.428 . S
C983 O986 1.301 . S
C983 O987 1.282 . S
O984 U966 2.441 . S
O984 C970 1.249 . S
O985 U966 2.420 . S
O985 C970 1.202 . S
O986 U966 2.455 . S
O986 C983 1.301 . S
O987 U966 2.449 . S
O987 C983 1.282 . S
H988 C961 0.931 . S
H989 C963 0.929 . S
H990 C964 0.930 . S
H991 C965 0.931 . S
H992 C972 0.932 . S
H993 C973 0.930 . S
H994 C974 0.929 . S
H995 C976 0.930 . S
H996 C978 0.932 . S
H997 C979 0.929 . S
H998 C980 0.928 . S
H999 C982 0.932 . S
C1000 C1001 1.264 . S
C1000 C1005 1.479 . S
C1000 C1010 1.465 . S
C1001 C1000 1.264 . S
C1001 C1003 1.339 . S
C1001 H1028 0.931 . S
C1002 C1003 1.395 . S
C1002 C1004 1.320 . S
C1003 C1001 1.339 . S
C1003 C1002 1.395 . S
C1003 H1029 0.929 . S
C1004 C1002 1.320 . S
C1004 C1005 1.405 . S
C1004 H1030 0.930 . S
C1005 C1000 1.479 . S
C1005 C1004 1.405 . S
C1005 H1031 0.931 . S
U1006 O1007 2.454 . S
U1006 O1008 2.458 1_565 S
U1006 C1009 2.990 . S
U1006 C1010 2.847 . S
U1006 C1023 2.882 1_565 S
U1006 O1024 2.441 . S
U1006 O1025 2.420 . S
U1006 O1026 2.455 1_565 S
U1006 O1027 2.449 1_565 S
O1007 U1006 2.454 . S
O1007 C1009 1.371 . S
O1008 U1006 2.458 1_545 S
O1008 C1009 1.275 1_545 S
C1009 U1006 2.990 . S
C1009 O1007 1.371 . S
C1009 O1008 1.275 1_565 S
C1009 C1011 1.358 1_565 S
C1010 C1000 1.465 . S
C1010 U1006 2.847 . S
C1010 O1024 1.249 . S
C1010 O1025 1.202 . S
C1011 C1009 1.358 1_545 S
C1011 C1013 1.408 1_545 S
C1011 C1016 1.342 . S
C1012 C1013 1.310 . S
C1012 C1015 1.461 1_565 S
C1012 H1032 0.932 . S
C1013 C1011 1.408 1_565 S
C1013 C1012 1.310 . S
C1013 H1033 0.930 . S
C1014 C1015 1.474 . S
C1014 C1016 1.285 . S
C1014 H1034 0.929 . S
C1015 C1012 1.461 1_545 S
C1015 C1014 1.474 . S
C1016 C1011 1.342 . S
C1016 C1014 1.285 . S
C1016 H1035 0.930 . S
C1017 C1020 1.424 . S
C1017 C1022 1.245 . S
C1017 C1023 1.428 . S
C1018 C1021 1.260 . S
C1018 C1022 1.477 . S
C1018 H1036 0.932 . S
C1019 C1020 1.384 . S
C1019 C1021 1.479 . S
C1019 H1037 0.929 . S
C1020 C1017 1.424 . S
C1020 C1019 1.384 . S
C1020 H1038 0.928 . S
C1021 C1018 1.260 . S
C1021 C1019 1.479 . S
C1022 C1017 1.245 . S
C1022 C1018 1.477 . S
C1022 H1039 0.932 . S
C1023 U1006 2.882 1_545 S
C1023 C1017 1.428 . S
C1023 O1026 1.301 . S
C1023 O1027 1.282 . S
O1024 U1006 2.441 . S
O1024 C1010 1.249 . S
O1025 U1006 2.420 . S
O1025 C1010 1.202 . S
O1026 U1006 2.455 1_545 S
O1026 C1023 1.301 . S
O1027 U1006 2.449 1_545 S
O1027 C1023 1.282 . S
H1028 C1001 0.931 . S
H1029 C1003 0.929 . S
H1030 C1004 0.930 . S
H1031 C1005 0.931 . S
H1032 C1012 0.932 . S
H1033 C1013 0.930 . S
H1034 C1014 0.929 . S
H1035 C1016 0.930 . S
H1036 C1018 0.932 . S
H1037 C1019 0.929 . S
H1038 C1020 0.928 . S
H1039 C1022 0.932 . S
C1040 C1041 1.264 . S
C1040 C1045 1.479 . S
C1040 C1050 1.465 . S
C1041 C1040 1.264 . S
C1041 C1043 1.339 . S
C1041 H1068 0.931 . S
C1042 C1043 1.395 . S
C1042 C1044 1.320 . S
C1043 C1041 1.339 . S
C1043 C1042 1.395 . S
C1043 H1069 0.929 . S
C1044 C1042 1.320 . S
C1044 C1045 1.405 . S
C1044 H1070 0.930 . S
C1045 C1040 1.479 . S
C1045 C1044 1.405 . S
C1045 H1071 0.931 . S
U1046 O1047 2.454 . S
U1046 O1048 2.458 1_565 S
U1046 C1049 2.984 1_565 S
U1046 C1050 2.847 . S
U1046 C1063 2.882 1_565 S
U1046 O1064 2.441 . S
U1046 O1065 2.420 . S
U1046 O1066 2.455 1_565 S
U1046 O1067 2.449 1_565 S
O1047 U1046 2.454 . S
O1047 C1049 1.353 1_565 S
O1048 U1046 2.458 1_545 S
O1048 C1049 1.286 . S
C1049 U1046 2.984 1_545 S
C1049 O1047 1.353 1_545 S
C1049 O1048 1.286 . S
C1049 C1051 1.363 . S
C1050 C1040 1.465 . S
C1050 U1046 2.847 . S
C1050 O1064 1.249 . S
C1050 O1065 1.202 . S
C1051 C1049 1.363 . S
C1051 C1053 1.408 . S
C1051 C1056 1.342 . S
C1052 C1053 1.310 . S
C1052 C1055 1.461 . S
C1052 H1072 0.932 . S
C1053 C1051 1.408 . S
C1053 C1052 1.310 . S
C1053 H1073 0.930 1_545 S
C1054 C1055 1.474 . S
C1054 C1056 1.285 . S
C1054 H1074 0.929 . S
C1055 C1052 1.461 . S
C1055 C1054 1.474 . S
C1056 C1051 1.342 . S
C1056 C1054 1.285 . S
C1056 H1075 0.930 . S
C1057 C1060 1.424 . S
C1057 C1062 1.245 . S
C1057 C1063 1.428 . S
C1058 C1061 1.260 . S
C1058 C1062 1.477 . S
C1058 H1076 0.932 . S
C1059 C1060 1.384 . S
C1059 C1061 1.479 . S
C1059 H1077 0.929 . S
C1060 C1057 1.424 . S
C1060 C1059 1.384 . S
C1060 H1078 0.928 . S
C1061 C1058 1.260 . S
C1061 C1059 1.479 . S
C1062 C1057 1.245 . S
C1062 C1058 1.477 . S
C1062 H1079 0.932 . S
C1063 U1046 2.882 1_545 S
C1063 C1057 1.428 . S
C1063 O1066 1.301 . S
C1063 O1067 1.282 . S
O1064 U1046 2.441 . S
O1064 C1050 1.249 . S
O1065 U1046 2.420 . S
O1065 C1050 1.202 . S
O1066 U1046 2.455 1_545 S
O1066 C1063 1.301 . S
O1067 U1046 2.449 1_545 S
O1067 C1063 1.282 . S
H1068 C1041 0.931 . S
H1069 C1043 0.929 . S
H1070 C1044 0.930 . S
H1071 C1045 0.931 . S
H1072 C1052 0.932 . S
H1073 C1053 0.930 1_565 S
H1074 C1054 0.929 . S
H1075 C1056 0.930 . S
H1076 C1058 0.932 . S
H1077 C1059 0.929 . S
H1078 C1060 0.928 . S
H1079 C1062 0.932 . S
C1080 C1081 1.264 . S
C1080 C1085 1.479 . S
C1080 C1090 1.465 . S
C1081 C1080 1.264 . S
C1081 C1083 1.339 . S
C1081 H1108 0.931 . S
C1082 C1083 1.395 . S
C1082 C1084 1.320 . S
C1083 C1081 1.339 . S
C1083 C1082 1.395 . S
C1083 H1109 0.929 . S
C1084 C1082 1.320 . S
C1084 C1085 1.405 . S
C1084 H1110 0.930 . S
C1085 C1080 1.479 . S
C1085 C1084 1.405 . S
C1085 H1111 0.931 . S
U1086 O1087 2.454 . S
U1086 O1088 2.458 . S
U1086 C1089 2.984 . S
U1086 C1090 2.847 . S
U1086 C1103 2.882 . S
U1086 O1104 2.441 . S
U1086 O1105 2.420 . S
U1086 O1106 2.455 . S
U1086 O1107 2.449 . S
O1087 U1086 2.454 . S
O1087 C1089 1.353 . S
O1088 U1086 2.458 . S
O1088 C1089 1.286 . S
C1089 U1086 2.984 . S
C1089 O1087 1.353 . S
C1089 O1088 1.286 . S
C1089 C1091 1.363 1_556 S
C1090 C1080 1.465 . S
C1090 U1086 2.847 . S
C1090 O1104 1.249 . S
C1090 O1105 1.202 . S
C1091 C1089 1.363 1_554 S
C1091 C1093 1.408 . S
C1091 C1096 1.342 . S
C1092 C1093 1.310 . S
C1092 C1095 1.461 . S
C1092 H1112 0.932 . S
C1093 C1091 1.408 . S
C1093 C1092 1.310 . S
C1093 H1113 0.930 . S
C1094 C1095 1.474 . S
C1094 C1096 1.285 . S
C1094 H1114 0.929 . S
C1095 C1092 1.461 . S
C1095 C1094 1.474 . S
C1096 C1091 1.342 . S
C1096 C1094 1.285 . S
C1096 H1115 0.930 1_554 S
C1097 C1100 1.424 . S
C1097 C1102 1.245 . S
C1097 C1103 1.428 . S
C1098 C1101 1.260 . S
C1098 C1102 1.477 . S
C1098 H1116 0.932 . S
C1099 C1100 1.384 . S
C1099 C1101 1.479 . S
C1099 H1117 0.929 . S
C1100 C1097 1.424 . S
C1100 C1099 1.384 . S
C1100 H1118 0.928 . S
C1101 C1098 1.260 . S
C1101 C1099 1.479 . S
C1102 C1097 1.245 . S
C1102 C1098 1.477 . S
C1102 H1119 0.932 . S
C1103 U1086 2.882 . S
C1103 C1097 1.428 . S
C1103 O1106 1.301 . S
C1103 O1107 1.282 . S
O1104 U1086 2.441 . S
O1104 C1090 1.249 . S
O1105 U1086 2.420 . S
O1105 C1090 1.202 . S
O1106 U1086 2.455 . S
O1106 C1103 1.301 . S
O1107 U1086 2.449 . S
O1107 C1103 1.282 . S
H1108 C1081 0.931 . S
H1109 C1083 0.929 . S
H1110 C1084 0.930 . S
H1111 C1085 0.931 . S
H1112 C1092 0.932 . S
H1113 C1093 0.930 . S
H1114 C1094 0.929 . S
H1115 C1096 0.930 1_556 S
H1116 C1098 0.932 . S
H1117 C1099 0.929 . S
H1118 C1100 0.928 . S
H1119 C1102 0.932 . S
C1120 C1121 1.264 . S
C1120 C1125 1.479 . S
C1120 C1130 1.465 . S
C1121 C1120 1.264 . S
C1121 C1123 1.339 . S
C1121 H1148 0.931 . S
C1122 C1123 1.395 . S
C1122 C1124 1.320 . S
C1123 C1121 1.339 . S
C1123 C1122 1.395 . S
C1123 H1149 0.929 . S
C1124 C1122 1.320 . S
C1124 C1125 1.405 . S
C1124 H1150 0.930 . S
C1125 C1120 1.479 . S
C1125 C1124 1.405 . S
C1125 H1151 0.931 . S
U1126 O1127 2.454 . S
U1126 O1128 2.458 . S
U1126 C1129 2.984 . S
U1126 C1130 2.847 1_455 S
U1126 C1143 2.882 . S
U1126 O1144 2.441 1_455 S
U1126 O1145 2.420 . S
U1126 O1146 2.455 . S
U1126 O1147 2.449 . S
O1127 U1126 2.454 . S
O1127 C1129 1.353 . S
O1128 U1126 2.458 . S
O1128 C1129 1.286 . S
C1129 U1126 2.984 . S
C1129 O1127 1.353 . S
C1129 O1128 1.286 . S
C1129 C1131 1.363 . S
C1130 C1120 1.465 . S
C1130 U1126 2.847 1_655 S
C1130 O1144 1.249 . S
C1130 O1145 1.202 1_655 S
C1131 C1129 1.363 . S
C1131 C1133 1.408 . S
C1131 C1136 1.342 . S
C1132 C1133 1.310 . S
C1132 C1135 1.461 . S
C1132 H1152 0.932 . S
C1133 C1131 1.408 . S
C1133 C1132 1.310 . S
C1133 H1153 0.930 . S
C1134 C1135 1.474 . S
C1134 C1136 1.285 . S
C1134 H1154 0.929 . S
C1135 C1132 1.461 . S
C1135 C1134 1.474 . S
C1136 C1131 1.342 . S
C1136 C1134 1.285 . S
C1136 H1155 0.930 . S
C1137 C1140 1.424 . S
C1137 C1142 1.245 . S
C1137 C1143 1.428 . S
C1138 C1141 1.260 . S
C1138 C1142 1.477 . S
C1138 H1156 0.932 . S
C1139 C1140 1.384 . S
C1139 C1141 1.479 . S
C1139 H1157 0.929 . S
C1140 C1137 1.424 . S
C1140 C1139 1.384 . S
C1140 H1158 0.928 . S
C1141 C1138 1.260 . S
C1141 C1139 1.479 . S
C1142 C1137 1.245 . S
C1142 C1138 1.477 . S
C1142 H1159 0.932 . S
C1143 U1126 2.882 . S
C1143 C1137 1.428 . S
C1143 O1146 1.301 . S
C1143 O1147 1.282 . S
O1144 U1126 2.441 1_655 S
O1144 C1130 1.249 . S
O1145 U1126 2.420 . S
O1145 C1130 1.202 1_455 S
O1146 U1126 2.455 . S
O1146 C1143 1.301 . S
O1147 U1126 2.449 . S
O1147 C1143 1.282 . S
H1148 C1121 0.931 . S
H1149 C1123 0.929 . S
H1150 C1124 0.930 . S
H1151 C1125 0.931 . S
H1152 C1132 0.932 . S
H1153 C1133 0.930 . S
H1154 C1134 0.929 . S
H1155 C1136 0.930 . S
H1156 C1138 0.932 . S
H1157 C1139 0.929 . S
H1158 C1140 0.928 . S
H1159 C1142 0.932 . S
C1160 C1161 1.264 . S
C1160 C1165 1.479 . S
C1160 C1170 1.465 . S
C1161 C1160 1.264 . S
C1161 C1163 1.339 . S
C1161 H1188 0.931 . S
C1162 C1163 1.395 . S
C1162 C1164 1.320 . S
C1163 C1161 1.339 . S
C1163 C1162 1.395 . S
C1163 H1189 0.929 . S
C1164 C1162 1.320 . S
C1164 C1165 1.405 . S
C1164 H1190 0.930 . S
C1165 C1160 1.479 . S
C1165 C1164 1.405 . S
C1165 H1191 0.931 . S
U1166 O1167 2.454 . S
U1166 O1168 2.458 . S
U1166 C1169 2.984 . S
U1166 C1170 2.847 . S
U1166 C1183 2.882 . S
U1166 O1184 2.441 . S
U1166 O1185 2.420 . S
U1166 O1186 2.455 . S
U1166 O1187 2.449 . S
O1167 U1166 2.454 . S
O1167 C1169 1.353 . S
O1168 U1166 2.458 . S
O1168 C1169 1.286 . S
C1169 U1166 2.984 . S
C1169 O1167 1.353 . S
C1169 O1168 1.286 . S
C1169 C1171 1.363 . S
C1170 C1160 1.465 . S
C1170 U1166 2.847 . S
C1170 O1184 1.249 . S
C1170 O1185 1.202 . S
C1171 C1169 1.363 . S
C1171 C1173 1.408 . S
C1171 C1176 1.342 . S
C1172 C1173 1.310 . S
C1172 C1175 1.461 . S
C1172 H1192 0.932 . S
C1173 C1171 1.408 . S
C1173 C1172 1.310 . S
C1173 H1193 0.930 . S
C1174 C1175 1.474 . S
C1174 C1176 1.285 . S
C1174 H1194 0.929 . S
C1175 C1172 1.461 . S
C1175 C1174 1.474 . S
C1176 C1171 1.342 . S
C1176 C1174 1.285 . S
C1176 H1195 0.930 . S
C1177 C1180 1.424 . S
C1177 C1182 1.245 . S
C1177 C1183 1.428 . S
C1178 C1181 1.260 . S
C1178 C1182 1.477 . S
C1178 H1196 0.932 . S
C1179 C1180 1.384 . S
C1179 C1181 1.479 . S
C1179 H1197 0.929 . S
C1180 C1177 1.424 . S
C1180 C1179 1.384 . S
C1180 H1198 0.928 . S
C1181 C1178 1.260 . S
C1181 C1179 1.479 . S
C1182 C1177 1.245 . S
C1182 C1178 1.477 . S
C1182 H1199 0.932 . S
C1183 U1166 2.882 . S
C1183 C1177 1.428 . S
C1183 O1186 1.301 . S
C1183 O1187 1.282 . S
O1184 U1166 2.441 . S
O1184 C1170 1.249 . S
O1185 U1166 2.420 . S
O1185 C1170 1.202 . S
O1186 U1166 2.455 . S
O1186 C1183 1.301 . S
O1187 U1166 2.449 . S
O1187 C1183 1.282 . S
H1188 C1161 0.931 . S
H1189 C1163 0.929 . S
H1190 C1164 0.930 . S
H1191 C1165 0.931 . S
H1192 C1172 0.932 . S
H1193 C1173 0.930 . S
H1194 C1174 0.929 . S
H1195 C1176 0.930 . S
H1196 C1178 0.932 . S
H1197 C1179 0.929 . S
H1198 C1180 0.928 . S
H1199 C1182 0.932 . S
C1200 C1201 1.264 . S
C1200 C1205 1.479 . S
C1200 C1210 1.465 . S
C1201 C1200 1.264 . S
C1201 C1203 1.339 . S
C1201 H1228 0.931 . S
C1202 C1203 1.395 . S
C1202 C1204 1.320 . S
C1203 C1201 1.339 . S
C1203 C1202 1.395 . S
C1203 H1229 0.929 . S
C1204 C1202 1.320 . S
C1204 C1205 1.405 . S
C1204 H1230 0.930 . S
C1205 C1200 1.479 . S
C1205 C1204 1.405 . S
C1205 H1231 0.931 . S
U1206 O1207 2.454 . S
U1206 O1208 2.458 . S
U1206 C1209 2.984 . S
U1206 C1210 2.847 . S
U1206 C1223 2.882 . S
U1206 O1224 2.441 . S
U1206 O1225 2.420 . S
U1206 O1226 2.455 . S
U1206 O1227 2.449 . S
O1207 U1206 2.454 . S
O1207 C1209 1.353 . S
O1208 U1206 2.458 . S
O1208 C1209 1.286 . S
C1209 U1206 2.984 . S
C1209 O1207 1.353 . S
C1209 O1208 1.286 . S
C1209 C1211 1.363 . S
C1210 C1200 1.465 . S
C1210 U1206 2.847 . S
C1210 O1224 1.249 . S
C1210 O1225 1.202 . S
C1211 C1209 1.363 . S
C1211 C1213 1.408 . S
C1211 C1216 1.342 . S
C1212 C1213 1.310 . S
C1212 C1215 1.461 . S
C1212 H1232 0.932 . S
C1213 C1211 1.408 . S
C1213 C1212 1.310 . S
C1213 H1233 0.930 . S
C1214 C1215 1.474 . S
C1214 C1216 1.285 . S
C1214 H1234 0.929 . S
C1215 C1212 1.461 . S
C1215 C1214 1.474 . S
C1216 C1211 1.342 . S
C1216 C1214 1.285 . S
C1216 H1235 0.930 . S
C1217 C1220 1.424 . S
C1217 C1222 1.245 . S
C1217 C1223 1.428 . S
C1218 C1221 1.260 . S
C1218 C1222 1.477 . S
C1218 H1236 0.932 . S
C1219 C1220 1.384 . S
C1219 C1221 1.479 . S
C1219 H1237 0.929 . S
C1220 C1217 1.424 . S
C1220 C1219 1.384 . S
C1220 H1238 0.928 . S
C1221 C1218 1.260 . S
C1221 C1219 1.479 . S
C1222 C1217 1.245 . S
C1222 C1218 1.477 . S
C1222 H1239 0.932 . S
C1223 U1206 2.882 . S
C1223 C1217 1.428 . S
C1223 O1226 1.301 . S
C1223 O1227 1.282 . S
O1224 U1206 2.441 . S
O1224 C1210 1.249 . S
O1225 U1206 2.420 . S
O1225 C1210 1.202 . S
O1226 U1206 2.455 . S
O1226 C1223 1.301 . S
O1227 U1206 2.449 . S
O1227 C1223 1.282 . S
H1228 C1201 0.931 . S
H1229 C1203 0.929 . S
H1230 C1204 0.930 . S
H1231 C1205 0.931 . S
H1232 C1212 0.932 . S
H1233 C1213 0.930 . S
H1234 C1214 0.929 . S
H1235 C1216 0.930 . S
H1236 C1218 0.932 . S
H1237 C1219 0.929 . S
H1238 C1220 0.928 . S
H1239 C1222 0.932 . S
C1240 C1241 1.264 . S
C1240 C1245 1.479 . S
C1240 C1250 1.465 . S
C1241 C1240 1.264 . S
C1241 C1243 1.339 . S
C1241 H1268 0.931 . S
C1242 C1243 1.395 . S
C1242 C1244 1.320 . S
C1243 C1241 1.339 . S
C1243 C1242 1.395 . S
C1243 H1269 0.929 . S
C1244 C1242 1.320 . S
C1244 C1245 1.405 . S
C1244 H1270 0.930 . S
C1245 C1240 1.479 . S
C1245 C1244 1.405 . S
C1245 H1271 0.931 . S
U1246 O1247 2.454 . S
U1246 O1248 2.458 . S
U1246 C1249 2.984 . S
U1246 C1250 2.847 . S
U1246 C1263 2.882 . S
U1246 O1264 2.441 . S
U1246 O1265 2.420 . S
U1246 O1266 2.455 . S
U1246 O1267 2.449 . S
O1247 U1246 2.454 . S
O1247 C1249 1.353 . S
O1248 U1246 2.458 . S
O1248 C1249 1.286 . S
C1249 U1246 2.984 . S
C1249 O1247 1.353 . S
C1249 O1248 1.286 . S
C1249 C1251 1.363 . S
C1250 C1240 1.465 . S
C1250 U1246 2.847 . S
C1250 O1264 1.249 . S
C1250 O1265 1.202 . S
C1251 C1249 1.363 . S
C1251 C1253 1.408 1_655 S
C1251 C1256 1.342 . S
C1252 C1253 1.310 . S
C1252 C1255 1.461 . S
C1252 H1272 0.932 . S
C1253 C1251 1.408 1_455 S
C1253 C1252 1.310 . S
C1253 H1273 0.930 . S
C1254 C1255 1.474 . S
C1254 C1256 1.285 1_455 S
C1254 H1274 0.929 . S
C1255 C1252 1.461 . S
C1255 C1254 1.474 . S
C1256 C1251 1.342 . S
C1256 C1254 1.285 1_655 S
C1256 H1275 0.930 . S
C1257 C1260 1.424 . S
C1257 C1262 1.245 . S
C1257 C1263 1.428 . S
C1258 C1261 1.260 . S
C1258 C1262 1.477 . S
C1258 H1276 0.932 . S
C1259 C1260 1.384 . S
C1259 C1261 1.479 . S
C1259 H1277 0.929 . S
C1260 C1257 1.424 . S
C1260 C1259 1.384 . S
C1260 H1278 0.928 . S
C1261 C1258 1.260 . S
C1261 C1259 1.479 . S
C1262 C1257 1.245 . S
C1262 C1258 1.477 . S
C1262 H1279 0.932 . S
C1263 U1246 2.882 . S
C1263 C1257 1.428 . S
C1263 O1266 1.301 . S
C1263 O1267 1.282 . S
O1264 U1246 2.441 . S
O1264 C1250 1.249 . S
O1265 U1246 2.420 . S
O1265 C1250 1.202 . S
O1266 U1246 2.455 . S
O1266 C1263 1.301 . S
O1267 U1246 2.449 . S
O1267 C1263 1.282 . S
H1268 C1241 0.931 . S
H1269 C1243 0.929 . S
H1270 C1244 0.930 . S
H1271 C1245 0.931 . S
H1272 C1252 0.932 . S
H1273 C1253 0.930 . S
H1274 C1254 0.929 . S
H1275 C1256 0.930 . S
H1276 C1258 0.932 . S
H1277 C1259 0.929 . S
H1278 C1260 0.928 . S
H1279 C1262 0.932 . S
C1280 C1281 1.264 . S
C1280 C1285 1.479 . S
C1280 C1290 1.465 . S
C1281 C1280 1.264 . S
C1281 C1283 1.339 . S
C1281 H1308 0.931 . S
C1282 C1283 1.395 . S
C1282 C1284 1.320 . S
C1283 C1281 1.339 . S
C1283 C1282 1.395 . S
C1283 H1309 0.929 . S
C1284 C1282 1.320 . S
C1284 C1285 1.405 . S
C1284 H1310 0.930 . S
C1285 C1280 1.479 . S
C1285 C1284 1.405 . S
C1285 H1311 0.931 . S
U1286 O1287 2.454 . S
U1286 O1288 2.458 . S
U1286 C1289 2.984 . S
U1286 C1290 2.847 . S
U1286 C1303 2.882 . S
U1286 O1304 2.441 . S
U1286 O1305 2.420 . S
U1286 O1306 2.455 . S
U1286 O1307 2.449 . S
O1287 U1286 2.454 . S
O1287 C1289 1.353 . S
O1288 U1286 2.458 . S
O1288 C1289 1.286 . S
C1289 U1286 2.984 . S
C1289 O1287 1.353 . S
C1289 O1288 1.286 . S
C1289 C1291 1.363 . S
C1290 C1280 1.465 . S
C1290 U1286 2.847 . S
C1290 O1304 1.249 . S
C1290 O1305 1.202 . S
C1291 C1289 1.363 . S
C1291 C1293 1.408 . S
C1291 C1296 1.342 . S
C1292 C1293 1.310 . S
C1292 C1295 1.461 . S
C1292 H1312 0.932 . S
C1293 C1291 1.408 . S
C1293 C1292 1.310 . S
C1293 H1313 0.930 . S
C1294 C1295 1.474 . S
C1294 C1296 1.285 . S
C1294 H1314 0.929 . S
C1295 C1292 1.461 . S
C1295 C1294 1.474 . S
C1296 C1291 1.342 . S
C1296 C1294 1.285 . S
C1296 H1315 0.930 . S
C1297 C1300 1.424 . S
C1297 C1302 1.245 . S
C1297 C1303 1.428 . S
C1298 C1301 1.260 . S
C1298 C1302 1.477 . S
C1298 H1316 0.932 . S
C1299 C1300 1.384 . S
C1299 C1301 1.479 . S
C1299 H1317 0.929 . S
C1300 C1297 1.424 . S
C1300 C1299 1.384 . S
C1300 H1318 0.928 . S
C1301 C1298 1.260 . S
C1301 C1299 1.479 . S
C1302 C1297 1.245 . S
C1302 C1298 1.477 . S
C1302 H1319 0.932 . S
C1303 U1286 2.882 . S
C1303 C1297 1.428 . S
C1303 O1306 1.301 . S
C1303 O1307 1.282 . S
O1304 U1286 2.441 . S
O1304 C1290 1.249 . S
O1305 U1286 2.420 . S
O1305 C1290 1.202 . S
O1306 U1286 2.455 . S
O1306 C1303 1.301 . S
O1307 U1286 2.449 . S
O1307 C1303 1.282 . S
H1308 C1281 0.931 . S
H1309 C1283 0.929 . S
H1310 C1284 0.930 . S
H1311 C1285 0.931 . S
H1312 C1292 0.932 . S
H1313 C1293 0.930 . S
H1314 C1294 0.929 . S
H1315 C1296 0.930 . S
H1316 C1298 0.932 . S
H1317 C1299 0.929 . S
H1318 C1300 0.928 . S
H1319 C1302 0.932 . S
C1320 C1321 1.264 . S
C1320 C1325 1.479 . S
C1320 C1330 1.465 . S
C1321 C1320 1.264 . S
C1321 C1323 1.339 . S
C1321 H1348 0.931 . S
C1322 C1323 1.395 . S
C1322 C1324 1.320 . S
C1323 C1321 1.339 . S
C1323 C1322 1.395 . S
C1323 H1349 0.929 . S
C1324 C1322 1.320 . S
C1324 C1325 1.405 . S
C1324 H1350 0.930 . S
C1325 C1320 1.479 . S
C1325 C1324 1.405 . S
C1325 H1351 0.931 . S
U1326 O1327 2.454 . S
U1326 O1328 2.458 . S
U1326 C1329 2.984 . S
U1326 C1330 2.847 . S
U1326 C1343 2.882 . S
U1326 O1344 2.441 . S
U1326 O1345 2.420 . S
U1326 O1346 2.455 . S
U1326 O1347 2.449 . S
O1327 U1326 2.454 . S
O1327 C1329 1.353 . S
O1328 U1326 2.458 . S
O1328 C1329 1.286 . S
C1329 U1326 2.984 . S
C1329 O1327 1.353 . S
C1329 O1328 1.286 . S
C1329 C1331 1.363 1_556 S
C1330 C1320 1.465 . S
C1330 U1326 2.847 . S
C1330 O1344 1.249 . S
C1330 O1345 1.202 . S
C1331 C1329 1.363 1_554 S
C1331 C1333 1.408 . S
C1331 C1336 1.342 . S
C1332 C1333 1.310 . S
C1332 C1335 1.461 . S
C1332 H1352 0.932 . S
C1333 C1331 1.408 . S
C1333 C1332 1.310 . S
C1333 H1353 0.930 . S
C1334 C1335 1.474 . S
C1334 C1336 1.285 . S
C1334 H1354 0.929 . S
C1335 C1332 1.461 . S
C1335 C1334 1.474 . S
C1336 C1331 1.342 . S
C1336 C1334 1.285 . S
C1336 H1355 0.915 1_554 S
C1337 C1340 1.424 . S
C1337 C1342 1.245 . S
C1337 C1343 1.428 . S
C1338 C1341 1.260 . S
C1338 C1342 1.477 . S
C1338 H1356 0.932 . S
C1339 C1340 1.384 . S
C1339 C1341 1.479 . S
C1339 H1357 0.929 . S
C1340 C1337 1.424 . S
C1340 C1339 1.384 . S
C1340 H1358 0.928 . S
C1341 C1338 1.260 . S
C1341 C1339 1.479 . S
C1342 C1337 1.245 . S
C1342 C1338 1.477 . S
C1342 H1359 0.932 . S
C1343 U1326 2.882 . S
C1343 C1337 1.428 . S
C1343 O1346 1.301 . S
C1343 O1347 1.282 . S
O1344 U1326 2.441 . S
O1344 C1330 1.249 . S
O1345 U1326 2.420 . S
O1345 C1330 1.202 . S
O1346 U1326 2.455 . S
O1346 C1343 1.301 . S
O1347 U1326 2.449 . S
O1347 C1343 1.282 . S
H1348 C1321 0.931 . S
H1349 C1323 0.929 . S
H1350 C1324 0.930 . S
H1351 C1325 0.931 . S
H1352 C1332 0.932 . S
H1353 C1333 0.930 . S
H1354 C1334 0.929 . S
H1355 C1336 0.915 1_556 S
H1356 C1338 0.932 . S
H1357 C1339 0.929 . S
H1358 C1340 0.928 . S
H1359 C1342 0.932 . S
C1360 C1361 1.264 . S
C1360 C1365 1.479 . S
C1360 C1370 1.465 . S
C1361 C1360 1.264 . S
C1361 C1363 1.339 . S
C1361 H1388 0.931 . S
C1362 C1363 1.395 . S
C1362 C1364 1.320 . S
C1363 C1361 1.339 . S
C1363 C1362 1.395 . S
C1363 H1389 0.929 . S
C1364 C1362 1.320 . S
C1364 C1365 1.405 . S
C1364 H1390 0.930 . S
C1365 C1360 1.479 . S
C1365 C1364 1.405 . S
C1365 H1391 0.931 . S
U1366 O1367 2.454 . S
U1366 O1368 2.458 . S
U1366 C1369 2.984 . S
U1366 C1370 2.847 . S
U1366 C1383 2.882 . S
U1366 O1384 2.441 . S
U1366 O1385 2.420 . S
U1366 O1386 2.455 . S
U1366 O1387 2.449 . S
O1367 U1366 2.454 . S
O1367 C1369 1.353 . S
O1368 U1366 2.458 . S
O1368 C1369 1.286 . S
C1369 U1366 2.984 . S
C1369 O1367 1.353 . S
C1369 O1368 1.286 . S
C1369 C1371 1.363 . S
C1370 C1360 1.465 . S
C1370 U1366 2.847 . S
C1370 O1384 1.249 . S
C1370 O1385 1.202 . S
C1371 C1369 1.363 . S
C1371 C1373 1.408 . S
C1371 C1376 1.342 . S
C1372 C1373 1.310 . S
C1372 C1375 1.461 . S
C1372 H1392 0.932 . S
C1373 C1371 1.408 . S
C1373 C1372 1.310 . S
C1373 H1393 0.930 . S
C1374 C1375 1.474 . S
C1374 C1376 1.285 . S
C1374 H1394 0.929 . S
C1375 C1372 1.461 . S
C1375 C1374 1.474 . S
C1376 C1371 1.342 . S
C1376 C1374 1.285 . S
C1376 H1395 0.930 . S
C1377 C1380 1.424 . S
C1377 C1382 1.245 . S
C1377 C1383 1.428 . S
C1378 C1381 1.260 . S
C1378 C1382 1.477 . S
C1378 H1396 0.932 . S
C1379 C1380 1.384 . S
C1379 C1381 1.479 . S
C1379 H1397 0.929 . S
C1380 C1377 1.424 . S
C1380 C1379 1.384 . S
C1380 H1398 0.928 . S
C1381 C1378 1.260 . S
C1381 C1379 1.479 . S
C1382 C1377 1.245 . S
C1382 C1378 1.477 . S
C1382 H1399 0.932 . S
C1383 U1366 2.882 . S
C1383 C1377 1.428 . S
C1383 O1386 1.301 . S
C1383 O1387 1.282 . S
O1384 U1366 2.441 . S
O1384 C1370 1.249 . S
O1385 U1366 2.420 . S
O1385 C1370 1.202 . S
O1386 U1366 2.455 . S
O1386 C1383 1.301 . S
O1387 U1366 2.449 . S
O1387 C1383 1.282 . S
H1388 C1361 0.931 . S
H1389 C1363 0.929 . S
H1390 C1364 0.930 . S
H1391 C1365 0.931 . S
H1392 C1372 0.932 . S
H1393 C1373 0.930 . S
H1394 C1374 0.929 . S
H1395 C1376 0.930 . S
H1396 C1378 0.932 . S
H1397 C1379 0.929 . S
H1398 C1380 0.928 . S
H1399 C1382 0.932 . S
C1400 C1401 1.264 . S
C1400 C1405 1.479 . S
C1400 C1410 1.465 . S
C1401 C1400 1.264 . S
C1401 C1403 1.339 . S
C1401 H1428 0.931 . S
C1402 C1403 1.395 . S
C1402 C1404 1.320 . S
C1403 C1401 1.339 . S
C1403 C1402 1.395 . S
C1403 H1429 0.929 . S
C1404 C1402 1.320 . S
C1404 C1405 1.405 . S
C1404 H1430 0.930 . S
C1405 C1400 1.479 . S
C1405 C1404 1.405 . S
C1405 H1431 0.931 . S
U1406 O1407 2.454 . S
U1406 O1408 2.458 . S
U1406 C1409 2.984 . S
U1406 C1410 2.847 . S
U1406 C1423 2.882 . S
U1406 O1424 2.441 . S
U1406 O1425 2.420 . S
U1406 O1426 2.455 . S
U1406 O1427 2.449 . S
O1407 U1406 2.454 . S
O1407 C1409 1.353 . S
O1408 U1406 2.458 . S
O1408 C1409 1.286 . S
C1409 U1406 2.984 . S
C1409 O1407 1.353 . S
C1409 O1408 1.286 . S
C1409 C1411 1.363 . S
C1410 C1400 1.465 . S
C1410 U1406 2.847 . S
C1410 O1424 1.249 . S
C1410 O1425 1.202 . S
C1411 C1409 1.363 . S
C1411 C1413 1.408 . S
C1411 C1416 1.342 . S
C1412 C1413 1.310 . S
C1412 C1415 1.461 . S
C1412 H1432 0.932 . S
C1413 C1411 1.408 . S
C1413 C1412 1.310 . S
C1413 H1433 0.930 . S
C1414 C1415 1.474 . S
C1414 C1416 1.285 . S
C1414 H1434 0.929 . S
C1415 C1412 1.461 . S
C1415 C1414 1.474 . S
C1416 C1411 1.342 . S
C1416 C1414 1.285 . S
C1416 H1435 0.930 . S
C1417 C1420 1.424 . S
C1417 C1422 1.245 . S
C1417 C1423 1.428 . S
C1418 C1421 1.260 . S
C1418 C1422 1.477 . S
C1418 H1436 0.932 . S
C1419 C1420 1.384 . S
C1419 C1421 1.479 . S
C1419 H1437 0.929 . S
C1420 C1417 1.424 . S
C1420 C1419 1.384 . S
C1420 H1438 0.928 . S
C1421 C1418 1.260 . S
C1421 C1419 1.479 . S
C1422 C1417 1.245 . S
C1422 C1418 1.477 . S
C1422 H1439 0.932 . S
C1423 U1406 2.882 . S
C1423 C1417 1.428 . S
C1423 O1426 1.301 . S
C1423 O1427 1.282 . S
O1424 U1406 2.441 . S
O1424 C1410 1.249 . S
O1425 U1406 2.420 . S
O1425 C1410 1.202 . S
O1426 U1406 2.455 . S
O1426 C1423 1.301 . S
O1427 U1406 2.449 . S
O1427 C1423 1.282 . S
H1428 C1401 0.931 . S
H1429 C1403 0.929 . S
H1430 C1404 0.930 . S
H1431 C1405 0.931 . S
H1432 C1412 0.932 . S
H1433 C1413 0.930 . S
H1434 C1414 0.929 . S
H1435 C1416 0.930 . S
H1436 C1418 0.932 . S
H1437 C1419 0.929 . S
H1438 C1420 0.928 . S
H1439 C1422 0.932 . S
C1440 C1441 1.264 . S
C1440 C1445 1.479 . S
C1440 C1450 1.465 . S
C1441 C1440 1.264 . S
C1441 C1443 1.339 . S
C1441 H1468 0.931 . S
C1442 C1443 1.395 . S
C1442 C1444 1.320 . S
C1443 C1441 1.339 . S
C1443 C1442 1.395 . S
C1443 H1469 0.929 . S
C1444 C1442 1.320 . S
C1444 C1445 1.405 . S
C1444 H1470 0.930 . S
C1445 C1440 1.479 . S
C1445 C1444 1.405 . S
C1445 H1471 0.931 . S
U1446 O1447 2.454 . S
U1446 O1448 2.458 . S
U1446 C1449 2.984 . S
U1446 C1450 2.847 . S
U1446 C1463 2.882 . S
U1446 O1464 2.441 . S
U1446 O1465 2.420 . S
U1446 O1466 2.455 . S
U1446 O1467 2.449 . S
O1447 U1446 2.454 . S
O1447 C1449 1.353 . S
O1448 U1446 2.458 . S
O1448 C1449 1.286 . S
C1449 U1446 2.984 . S
C1449 O1447 1.353 . S
C1449 O1448 1.286 . S
C1449 C1451 1.363 . S
C1450 C1440 1.465 . S
C1450 U1446 2.847 . S
C1450 O1464 1.249 . S
C1450 O1465 1.202 . S
C1451 C1449 1.363 . S
C1451 C1453 1.408 . S
C1451 C1456 1.342 . S
C1452 C1453 1.310 . S
C1452 C1455 1.461 . S
C1452 H1472 0.932 . S
C1453 C1451 1.408 . S
C1453 C1452 1.310 . S
C1453 H1473 0.930 . S
C1454 C1455 1.474 . S
C1454 C1456 1.285 . S
C1454 H1474 0.929 . S
C1455 C1452 1.461 . S
C1455 C1454 1.474 . S
C1456 C1451 1.342 . S
C1456 C1454 1.285 . S
C1456 H1475 0.930 . S
C1457 C1460 1.424 . S
C1457 C1462 1.245 . S
C1457 C1463 1.428 . S
C1458 C1461 1.260 . S
C1458 C1462 1.477 . S
C1458 H1476 0.932 . S
C1459 C1460 1.384 . S
C1459 C1461 1.479 . S
C1459 H1477 0.929 . S
C1460 C1457 1.424 . S
C1460 C1459 1.384 . S
C1460 H1478 0.928 . S
C1461 C1458 1.260 . S
C1461 C1459 1.479 . S
C1462 C1457 1.245 . S
C1462 C1458 1.477 . S
C1462 H1479 0.932 . S
C1463 U1446 2.882 . S
C1463 C1457 1.428 . S
C1463 O1466 1.301 . S
C1463 O1467 1.282 . S
O1464 U1446 2.441 . S
O1464 C1450 1.249 . S
O1465 U1446 2.420 . S
O1465 C1450 1.202 . S
O1466 U1446 2.455 . S
O1466 C1463 1.301 . S
O1467 U1446 2.449 . S
O1467 C1463 1.282 . S
H1468 C1441 0.931 . S
H1469 C1443 0.929 . S
H1470 C1444 0.930 . S
H1471 C1445 0.931 . S
H1472 C1452 0.932 . S
H1473 C1453 0.930 . S
H1474 C1454 0.929 . S
H1475 C1456 0.930 . S
H1476 C1458 0.932 . S
H1477 C1459 0.929 . S
H1478 C1460 0.928 . S
H1479 C1462 0.932 . S
C1480 C1481 1.264 . S
C1480 C1485 1.479 . S
C1480 C1490 1.465 . S
C1481 C1480 1.264 . S
C1481 C1483 1.339 . S
C1481 H1508 0.931 . S
C1482 C1483 1.395 . S
C1482 C1484 1.320 . S
C1483 C1481 1.339 . S
C1483 C1482 1.395 . S
C1483 H1509 0.929 . S
C1484 C1482 1.320 . S
C1484 C1485 1.405 . S
C1484 H1510 0.930 . S
C1485 C1480 1.479 . S
C1485 C1484 1.405 . S
C1485 H1511 0.931 . S
U1486 O1487 2.454 . S
U1486 O1488 2.458 . S
U1486 C1489 2.984 . S
U1486 C1490 2.847 . S
U1486 C1503 2.882 . S
U1486 O1504 2.441 . S
U1486 O1505 2.420 . S
U1486 O1506 2.455 . S
U1486 O1507 2.449 . S
O1487 U1486 2.454 . S
O1487 C1489 1.353 . S
O1488 U1486 2.458 . S
O1488 C1489 1.286 . S
C1489 U1486 2.984 . S
C1489 O1487 1.353 . S
C1489 O1488 1.286 . S
C1489 C1491 1.363 . S
C1490 C1480 1.465 . S
C1490 U1486 2.847 . S
C1490 O1504 1.249 . S
C1490 O1505 1.202 . S
C1491 C1489 1.363 . S
C1491 C1493 1.408 . S
C1491 C1496 1.342 . S
C1492 C1493 1.310 . S
C1492 C1495 1.461 . S
C1492 H1512 0.932 . S
C1493 C1491 1.408 . S
C1493 C1492 1.310 . S
C1493 H1513 0.930 . S
C1494 C1495 1.474 . S
C1494 C1496 1.285 . S
C1494 H1514 0.929 . S
C1495 C1492 1.461 . S
C1495 C1494 1.474 . S
C1496 C1491 1.342 . S
C1496 C1494 1.285 . S
C1496 H1515 0.930 . S
C1497 C1500 1.424 . S
C1497 C1502 1.245 . S
C1497 C1503 1.428 . S
C1498 C1501 1.260 . S
C1498 C1502 1.477 . S
C1498 H1516 0.932 . S
C1499 C1500 1.384 . S
C1499 C1501 1.479 . S
C1499 H1517 0.929 . S
C1500 C1497 1.424 . S
C1500 C1499 1.384 . S
C1500 H1518 0.928 . S
C1501 C1498 1.260 . S
C1501 C1499 1.479 . S
C1502 C1497 1.245 . S
C1502 C1498 1.477 . S
C1502 H1519 0.932 . S
C1503 U1486 2.882 . S
C1503 C1497 1.428 . S
C1503 O1506 1.301 . S
C1503 O1507 1.282 . S
O1504 U1486 2.441 . S
O1504 C1490 1.249 . S
O1505 U1486 2.420 . S
O1505 C1490 1.202 . S
O1506 U1486 2.455 . S
O1506 C1503 1.301 . S
O1507 U1486 2.449 . S
O1507 C1503 1.282 . S
H1508 C1481 0.931 . S
H1509 C1483 0.929 . S
H1510 C1484 0.930 . S
H1511 C1485 0.931 . S
H1512 C1492 0.932 . S
H1513 C1493 0.930 . S
H1514 C1494 0.929 . S
H1515 C1496 0.930 . S
H1516 C1498 0.932 . S
H1517 C1499 0.929 . S
H1518 C1500 0.928 . S
H1519 C1502 0.932 . S
C1520 C1521 1.264 . S
C1520 C1525 1.479 . S
C1520 C1530 1.465 . S
C1521 C1520 1.264 . S
C1521 C1523 1.339 . S
C1521 H1548 0.931 . S
C1522 C1523 1.395 . S
C1522 C1524 1.320 . S
C1523 C1521 1.339 . S
C1523 C1522 1.395 . S
C1523 H1549 0.929 . S
C1524 C1522 1.320 . S
C1524 C1525 1.405 . S
C1524 H1550 0.930 . S
C1525 C1520 1.479 . S
C1525 C1524 1.405 . S
C1525 H1551 0.931 . S
U1526 O1527 2.454 . S
U1526 O1528 2.458 . S
U1526 C1529 2.984 . S
U1526 C1530 2.847 . S
U1526 C1543 2.882 . S
U1526 O1544 2.441 . S
U1526 O1545 2.420 . S
U1526 O1546 2.455 . S
U1526 O1547 2.449 . S
O1527 U1526 2.454 . S
O1527 C1529 1.353 . S
O1528 U1526 2.458 . S
O1528 C1529 1.286 . S
C1529 U1526 2.984 . S
C1529 O1527 1.353 . S
C1529 O1528 1.286 . S
C1529 C1531 1.363 . S
C1530 C1520 1.465 . S
C1530 U1526 2.847 . S
C1530 O1544 1.249 . S
C1530 O1545 1.202 . S
C1531 C1529 1.363 . S
C1531 C1533 1.408 . S
C1531 C1536 1.342 . S
C1532 C1533 1.310 . S
C1532 C1535 1.461 . S
C1532 H1552 0.932 . S
C1533 C1531 1.408 . S
C1533 C1532 1.310 . S
C1533 H1553 0.930 . S
C1534 C1535 1.474 . S
C1534 C1536 1.285 . S
C1534 H1554 0.929 . S
C1535 C1532 1.461 . S
C1535 C1534 1.474 . S
C1536 C1531 1.342 . S
C1536 C1534 1.285 . S
C1536 H1555 0.930 . S
C1537 C1540 1.424 . S
C1537 C1542 1.245 . S
C1537 C1543 1.428 . S
C1538 C1541 1.260 . S
C1538 C1542 1.477 . S
C1538 H1556 0.932 . S
C1539 C1540 1.384 . S
C1539 C1541 1.479 . S
C1539 H1557 0.929 . S
C1540 C1537 1.424 . S
C1540 C1539 1.384 . S
C1540 H1558 0.928 . S
C1541 C1538 1.260 . S
C1541 C1539 1.479 . S
C1542 C1537 1.245 . S
C1542 C1538 1.477 . S
C1542 H1559 0.932 . S
C1543 U1526 2.882 . S
C1543 C1537 1.428 . S
C1543 O1546 1.301 . S
C1543 O1547 1.282 . S
O1544 U1526 2.441 . S
O1544 C1530 1.249 . S
O1545 U1526 2.420 . S
O1545 C1530 1.202 . S
O1546 U1526 2.455 . S
O1546 C1543 1.301 . S
O1547 U1526 2.449 . S
O1547 C1543 1.282 . S
H1548 C1521 0.931 . S
H1549 C1523 0.929 . S
H1550 C1524 0.930 . S
H1551 C1525 0.931 . S
H1552 C1532 0.932 . S
H1553 C1533 0.930 . S
H1554 C1534 0.929 . S
H1555 C1536 0.930 . S
H1556 C1538 0.932 . S
H1557 C1539 0.929 . S
H1558 C1540 0.928 . S
H1559 C1542 0.932 . S
C1560 C1561 1.264 . S
C1560 C1565 1.479 . S
C1560 C1570 1.465 . S
C1561 C1560 1.264 . S
C1561 C1563 1.339 . S
C1561 H1588 0.931 . S
C1562 C1563 1.395 . S
C1562 C1564 1.320 . S
C1563 C1561 1.339 . S
C1563 C1562 1.395 . S
C1563 H1589 0.929 . S
C1564 C1562 1.320 . S
C1564 C1565 1.405 . S
C1564 H1590 0.930 . S
C1565 C1560 1.479 . S
C1565 C1564 1.405 . S
C1565 H1591 0.931 . S
U1566 O1567 2.454 . S
U1566 O1568 2.458 . S
U1566 C1569 2.984 . S
U1566 C1570 2.847 . S
U1566 C1583 2.882 . S
U1566 O1584 2.441 . S
U1566 O1585 2.420 . S
U1566 O1586 2.455 . S
U1566 O1587 2.449 . S
O1567 U1566 2.454 . S
O1567 C1569 1.353 . S
O1568 U1566 2.458 . S
O1568 C1569 1.286 . S
C1569 U1566 2.984 . S
C1569 O1567 1.353 . S
C1569 O1568 1.286 . S
C1569 C1571 1.363 . S
C1570 C1560 1.465 . S
C1570 U1566 2.847 . S
C1570 O1584 1.249 . S
C1570 O1585 1.202 . S
C1571 C1569 1.363 . S
C1571 C1573 1.408 . S
C1571 C1576 1.342 . S
C1572 C1573 1.310 . S
C1572 C1575 1.461 . S
C1572 H1592 0.932 . S
C1573 C1571 1.408 . S
C1573 C1572 1.310 . S
C1573 H1593 0.930 . S
C1574 C1575 1.474 . S
C1574 C1576 1.285 . S
C1574 H1594 0.929 . S
C1575 C1572 1.461 . S
C1575 C1574 1.474 . S
C1576 C1571 1.342 . S
C1576 C1574 1.285 . S
C1576 H1595 0.930 . S
C1577 C1580 1.424 . S
C1577 C1582 1.245 . S
C1577 C1583 1.428 . S
C1578 C1581 1.260 . S
C1578 C1582 1.477 . S
C1578 H1596 0.932 . S
C1579 C1580 1.384 . S
C1579 C1581 1.479 . S
C1579 H1597 0.929 . S
C1580 C1577 1.424 . S
C1580 C1579 1.384 . S
C1580 H1598 0.928 . S
C1581 C1578 1.260 . S
C1581 C1579 1.479 . S
C1582 C1577 1.245 . S
C1582 C1578 1.477 . S
C1582 H1599 0.932 . S
C1583 U1566 2.882 . S
C1583 C1577 1.428 . S
C1583 O1586 1.301 . S
C1583 O1587 1.282 . S
O1584 U1566 2.441 . S
O1584 C1570 1.249 . S
O1585 U1566 2.420 . S
O1585 C1570 1.202 . S
O1586 U1566 2.455 . S
O1586 C1583 1.301 . S
O1587 U1566 2.449 . S
O1587 C1583 1.282 . S
H1588 C1561 0.931 . S
H1589 C1563 0.929 . S
H1590 C1564 0.930 . S
H1591 C1565 0.931 . S
H1592 C1572 0.932 . S
H1593 C1573 0.930 . S
H1594 C1574 0.929 . S
H1595 C1576 0.930 . S
H1596 C1578 0.932 . S
H1597 C1579 0.929 . S
H1598 C1580 0.928 . S
H1599 C1582 0.932 . S
C1600 C1601 1.264 . S
C1600 C1605 1.479 . S
C1600 C1610 1.485 . S
C1601 C1600 1.264 . S
C1601 C1603 1.339 . S
C1601 H1628 0.931 . S
C1602 C1603 1.395 . S
C1602 C1604 1.320 . S
C1603 C1601 1.339 . S
C1603 C1602 1.395 . S
C1603 H1629 0.929 . S
C1604 C1602 1.320 . S
C1604 C1605 1.405 . S
C1604 H1630 0.930 . S
C1605 C1600 1.479 . S
C1605 C1604 1.405 . S
C1605 H1631 0.931 . S
U1606 O1607 2.454 . S
U1606 O1608 2.458 . S
U1606 C1609 2.984 . S
U1606 C1610 2.828 1_455 S
U1606 C1623 2.882 . S
U1606 O1624 2.441 . S
U1606 O1625 2.420 . S
U1606 O1626 2.455 . S
U1606 O1627 2.449 . S
O1607 U1606 2.454 . S
O1607 C1609 1.353 . S
O1608 U1606 2.458 . S
O1608 C1609 1.286 . S
C1609 U1606 2.984 . S
C1609 O1607 1.353 . S
C1609 O1608 1.286 . S
C1609 C1611 1.363 . S
C1610 C1600 1.485 . S
C1610 U1606 2.828 1_655 S
C1610 O1624 1.247 1_655 S
C1610 O1625 1.182 1_655 S
C1611 C1609 1.363 . S
C1611 C1613 1.408 . S
C1611 C1616 1.342 . S
C1612 C1613 1.310 . S
C1612 C1615 1.461 . S
C1612 H1632 0.932 . S
C1613 C1611 1.408 . S
C1613 C1612 1.310 . S
C1613 H1633 0.930 . S
C1614 C1615 1.474 . S
C1614 C1616 1.285 . S
C1614 H1634 0.929 . S
C1615 C1612 1.461 . S
C1615 C1614 1.474 . S
C1616 C1611 1.342 . S
C1616 C1614 1.285 . S
C1616 H1635 0.930 . S
C1617 C1620 1.424 . S
C1617 C1622 1.245 . S
C1617 C1623 1.428 . S
C1618 C1621 1.260 . S
C1618 C1622 1.477 . S
C1618 H1636 0.932 . S
C1619 C1620 1.384 . S
C1619 C1621 1.479 . S
C1619 H1637 0.929 . S
C1620 C1617 1.424 . S
C1620 C1619 1.384 . S
C1620 H1638 0.928 . S
C1621 C1618 1.260 . S
C1621 C1619 1.479 . S
C1622 C1617 1.245 . S
C1622 C1618 1.477 . S
C1622 H1639 0.932 . S
C1623 U1606 2.882 . S
C1623 C1617 1.428 . S
C1623 O1626 1.301 . S
C1623 O1627 1.282 . S
O1624 U1606 2.441 . S
O1624 C1610 1.247 1_455 S
O1625 U1606 2.420 . S
O1625 C1610 1.182 1_455 S
O1626 U1606 2.455 . S
O1626 C1623 1.301 . S
O1627 U1606 2.449 . S
O1627 C1623 1.282 . S
H1628 C1601 0.931 . S
H1629 C1603 0.929 . S
H1630 C1604 0.930 . S
H1631 C1605 0.931 . S
H1632 C1612 0.932 . S
H1633 C1613 0.930 . S
H1634 C1614 0.929 . S
H1635 C1616 0.930 . S
H1636 C1618 0.932 . S
H1637 C1619 0.929 . S
H1638 C1620 0.928 . S
H1639 C1622 0.932 . S
C1640 C1641 1.264 . S
C1640 C1645 1.479 . S
C1640 C1650 1.465 . S
C1641 C1640 1.264 . S
C1641 C1643 1.339 . S
C1641 H1668 0.931 . S
C1642 C1643 1.395 . S
C1642 C1644 1.320 . S
C1643 C1641 1.339 . S
C1643 C1642 1.395 . S
C1643 H1669 0.929 . S
C1644 C1642 1.320 . S
C1644 C1645 1.405 . S
C1644 H1670 0.930 . S
C1645 C1640 1.479 . S
C1645 C1644 1.405 . S
C1645 H1671 0.931 . S
U1646 O1647 2.454 . S
U1646 O1648 2.458 . S
U1646 C1649 2.984 . S
U1646 C1650 2.847 . S
U1646 C1663 2.882 . S
U1646 O1664 2.441 . S
U1646 O1665 2.420 . S
U1646 O1666 2.455 . S
U1646 O1667 2.449 . S
O1647 U1646 2.454 . S
O1647 C1649 1.353 . S
O1648 U1646 2.458 . S
O1648 C1649 1.286 . S
C1649 U1646 2.984 . S
C1649 O1647 1.353 . S
C1649 O1648 1.286 . S
C1649 C1651 1.363 . S
C1650 C1640 1.465 . S
C1650 U1646 2.847 . S
C1650 O1664 1.249 . S
C1650 O1665 1.202 . S
C1651 C1649 1.363 . S
C1651 C1653 1.408 . S
C1651 C1656 1.342 . S
C1652 C1653 1.310 . S
C1652 C1655 1.461 . S
C1652 H1672 0.932 . S
C1653 C1651 1.408 . S
C1653 C1652 1.310 . S
C1653 H1673 0.930 . S
C1654 C1655 1.474 . S
C1654 C1656 1.285 . S
C1654 H1674 0.929 . S
C1655 C1652 1.461 . S
C1655 C1654 1.474 . S
C1656 C1651 1.342 . S
C1656 C1654 1.285 . S
C1656 H1675 0.930 . S
C1657 C1660 1.424 . S
C1657 C1662 1.245 . S
C1657 C1663 1.428 . S
C1658 C1661 1.260 . S
C1658 C1662 1.477 . S
C1658 H1676 0.932 . S
C1659 C1660 1.384 . S
C1659 C1661 1.479 . S
C1659 H1677 0.929 . S
C1660 C1657 1.424 . S
C1660 C1659 1.384 . S
C1660 H1678 0.928 . S
C1661 C1658 1.260 . S
C1661 C1659 1.479 . S
C1662 C1657 1.245 . S
C1662 C1658 1.477 . S
C1662 H1679 0.932 . S
C1663 U1646 2.882 . S
C1663 C1657 1.428 . S
C1663 O1666 1.301 . S
C1663 O1667 1.282 . S
O1664 U1646 2.441 . S
O1664 C1650 1.249 . S
O1665 U1646 2.420 . S
O1665 C1650 1.202 . S
O1666 U1646 2.455 . S
O1666 C1663 1.301 . S
O1667 U1646 2.449 . S
O1667 C1663 1.282 . S
H1668 C1641 0.931 . S
H1669 C1643 0.929 . S
H1670 C1644 0.930 . S
H1671 C1645 0.931 . S
H1672 C1652 0.932 . S
H1673 C1653 0.930 . S
H1674 C1654 0.929 . S
H1675 C1656 0.930 . S
H1676 C1658 0.932 . S
H1677 C1659 0.929 . S
H1678 C1660 0.928 . S
H1679 C1662 0.932 . S
C1680 C1681 1.264 . S
C1680 C1685 1.479 . S
C1680 C1690 1.465 . S
C1681 C1680 1.264 . S
C1681 C1683 1.339 . S
C1681 H1708 0.931 . S
C1682 C1683 1.395 . S
C1682 C1684 1.320 . S
C1683 C1681 1.339 . S
C1683 C1682 1.395 . S
C1683 H1709 0.929 . S
C1684 C1682 1.320 . S
C1684 C1685 1.405 . S
C1684 H1710 0.930 . S
C1685 C1680 1.479 . S
C1685 C1684 1.405 . S
C1685 H1711 0.931 . S
U1686 O1687 2.454 1_554 S
U1686 O1688 2.458 . S
U1686 C1689 2.984 1_554 S
U1686 C1690 2.847 . S
U1686 C1703 2.882 . S
U1686 O1704 2.441 . S
U1686 O1705 2.420 . S
U1686 O1706 2.455 . S
U1686 O1707 2.449 . S
O1687 U1686 2.454 1_556 S
O1687 C1689 1.353 . S
O1688 U1686 2.458 . S
O1688 C1689 1.286 1_554 S
C1689 U1686 2.984 1_556 S
C1689 O1687 1.353 . S
C1689 O1688 1.286 1_556 S
C1689 C1691 1.363 . S
C1690 C1680 1.465 . S
C1690 U1686 2.847 . S
C1690 O1704 1.249 . S
C1690 O1705 1.202 . S
C1691 C1689 1.363 . S
C1691 C1693 1.408 . S
C1691 C1696 1.342 . S
C1692 C1693 1.310 . S
C1692 C1695 1.461 . S
C1692 H1712 0.932 . S
C1693 C1691 1.408 . S
C1693 C1692 1.310 . S
C1693 H1713 0.930 . S
C1694 C1695 1.474 . S
C1694 C1696 1.285 . S
C1694 H1714 0.929 . S
C1695 C1692 1.461 . S
C1695 C1694 1.474 . S
C1696 C1691 1.342 . S
C1696 C1694 1.285 . S
C1696 H1715 0.930 . S
C1697 C1700 1.424 . S
C1697 C1702 1.245 . S
C1697 C1703 1.428 . S
C1698 C1701 1.260 . S
C1698 C1702 1.477 . S
C1698 H1716 0.932 . S
C1699 C1700 1.384 . S
C1699 C1701 1.479 . S
C1699 H1717 0.929 . S
C1700 C1697 1.424 . S
C1700 C1699 1.384 . S
C1700 H1718 0.928 . S
C1701 C1698 1.260 . S
C1701 C1699 1.479 . S
C1702 C1697 1.245 . S
C1702 C1698 1.477 . S
C1702 H1719 0.932 . S
C1703 U1686 2.882 . S
C1703 C1697 1.428 . S
C1703 O1706 1.301 . S
C1703 O1707 1.282 . S
O1704 U1686 2.441 . S
O1704 C1690 1.249 . S
O1705 U1686 2.420 . S
O1705 C1690 1.202 . S
O1706 U1686 2.455 . S
O1706 C1703 1.301 . S
O1707 U1686 2.449 . S
O1707 C1703 1.282 . S
H1708 C1681 0.931 . S
H1709 C1683 0.929 . S
H1710 C1684 0.930 . S
H1711 C1685 0.931 . S
H1712 C1692 0.932 . S
H1713 C1693 0.930 . S
H1714 C1694 0.929 . S
H1715 C1696 0.930 . S
H1716 C1698 0.932 . S
H1717 C1699 0.929 . S
H1718 C1700 0.928 . S
H1719 C1702 0.932 . S
C1720 C1721 1.264 . S
C1720 C1725 1.479 . S
C1720 C1730 1.465 . S
C1721 C1720 1.264 . S
C1721 C1723 1.339 . S
C1721 H1748 0.931 . S
C1722 C1723 1.395 . S
C1722 C1724 1.320 . S
C1723 C1721 1.339 . S
C1723 C1722 1.395 . S
C1723 H1749 0.929 . S
C1724 C1722 1.320 . S
C1724 C1725 1.405 . S
C1724 H1750 0.930 . S
C1725 C1720 1.479 . S
C1725 C1724 1.405 . S
C1725 H1751 0.931 . S
U1726 O1727 2.454 . S
U1726 O1728 2.458 . S
U1726 C1729 2.984 . S
U1726 C1730 2.847 . S
U1726 C1743 2.882 . S
U1726 O1744 2.441 . S
U1726 O1745 2.420 . S
U1726 O1746 2.455 . S
U1726 O1747 2.449 . S
O1727 U1726 2.454 . S
O1727 C1729 1.353 . S
O1728 U1726 2.458 . S
O1728 C1729 1.286 . S
C1729 U1726 2.984 . S
C1729 O1727 1.353 . S
C1729 O1728 1.286 . S
C1729 C1731 1.363 . S
C1730 C1720 1.465 . S
C1730 U1726 2.847 . S
C1730 O1744 1.249 . S
C1730 O1745 1.202 . S
C1731 C1729 1.363 . S
C1731 C1733 1.408 . S
C1731 C1736 1.342 . S
C1732 C1733 1.310 . S
C1732 C1735 1.461 . S
C1732 H1752 0.932 . S
C1733 C1731 1.408 . S
C1733 C1732 1.310 . S
C1733 H1753 0.930 . S
C1734 C1735 1.474 . S
C1734 C1736 1.285 . S
C1734 H1754 0.929 . S
C1735 C1732 1.461 . S
C1735 C1734 1.474 . S
C1736 C1731 1.342 . S
C1736 C1734 1.285 . S
C1736 H1755 0.930 . S
C1737 C1740 1.424 . S
C1737 C1742 1.245 . S
C1737 C1743 1.428 . S
C1738 C1741 1.260 . S
C1738 C1742 1.477 . S
C1738 H1756 0.932 . S
C1739 C1740 1.384 . S
C1739 C1741 1.479 . S
C1739 H1757 0.929 . S
C1740 C1737 1.424 . S
C1740 C1739 1.384 . S
C1740 H1758 0.928 . S
C1741 C1738 1.260 . S
C1741 C1739 1.479 . S
C1742 C1737 1.245 . S
C1742 C1738 1.477 . S
C1742 H1759 0.932 . S
C1743 U1726 2.882 . S
C1743 C1737 1.428 . S
C1743 O1746 1.301 . S
C1743 O1747 1.282 . S
O1744 U1726 2.441 . S
O1744 C1730 1.249 . S
O1745 U1726 2.420 . S
O1745 C1730 1.202 . S
O1746 U1726 2.455 . S
O1746 C1743 1.301 . S
O1747 U1726 2.449 . S
O1747 C1743 1.282 . S
H1748 C1721 0.931 . S
H1749 C1723 0.929 . S
H1750 C1724 0.930 . S
H1751 C1725 0.931 . S
H1752 C1732 0.932 . S
H1753 C1733 0.930 . S
H1754 C1734 0.929 . S
H1755 C1736 0.930 . S
H1756 C1738 0.932 . S
H1757 C1739 0.929 . S
H1758 C1740 0.928 . S
H1759 C1742 0.932 . S
C1760 C1761 1.264 . S
C1760 C1765 1.479 . S
C1760 C1770 1.465 . S
C1761 C1760 1.264 . S
C1761 C1763 1.339 . S
C1761 H1788 0.931 . S
C1762 C1763 1.395 . S
C1762 C1764 1.320 . S
C1763 C1761 1.339 . S
C1763 C1762 1.395 . S
C1763 H1789 0.929 . S
C1764 C1762 1.320 . S
C1764 C1765 1.405 . S
C1764 H1790 0.930 . S
C1765 C1760 1.479 . S
C1765 C1764 1.405 . S
C1765 H1791 0.931 . S
U1766 O1767 2.454 . S
U1766 O1768 2.458 . S
U1766 C1769 2.984 . S
U1766 C1770 2.847 . S
U1766 C1783 2.882 . S
U1766 O1784 2.441 . S
U1766 O1785 2.420 . S
U1766 O1786 2.455 . S
U1766 O1787 2.449 . S
O1767 U1766 2.454 . S
O1767 C1769 1.353 . S
O1768 U1766 2.458 . S
O1768 C1769 1.286 . S
C1769 U1766 2.984 . S
C1769 O1767 1.353 . S
C1769 O1768 1.286 . S
C1769 C1771 1.363 . S
C1770 C1760 1.465 . S
C1770 U1766 2.847 . S
C1770 O1784 1.249 . S
C1770 O1785 1.202 . S
C1771 C1769 1.363 . S
C1771 C1773 1.408 . S
C1771 C1776 1.342 . S
C1772 C1773 1.310 . S
C1772 C1775 1.461 . S
C1772 H1792 0.932 . S
C1773 C1771 1.408 . S
C1773 C1772 1.310 . S
C1773 H1793 0.930 . S
C1774 C1775 1.474 . S
C1774 C1776 1.285 . S
C1774 H1794 0.929 . S
C1775 C1772 1.461 . S
C1775 C1774 1.474 . S
C1776 C1771 1.342 . S
C1776 C1774 1.285 . S
C1776 H1795 0.930 . S
C1777 C1780 1.424 . S
C1777 C1782 1.245 . S
C1777 C1783 1.428 . S
C1778 C1781 1.260 . S
C1778 C1782 1.477 . S
C1778 H1796 0.932 . S
C1779 C1780 1.384 . S
C1779 C1781 1.479 . S
C1779 H1797 0.929 . S
C1780 C1777 1.424 . S
C1780 C1779 1.384 . S
C1780 H1798 0.928 . S
C1781 C1778 1.260 . S
C1781 C1779 1.479 . S
C1782 C1777 1.245 . S
C1782 C1778 1.477 . S
C1782 H1799 0.932 . S
C1783 U1766 2.882 . S
C1783 C1777 1.428 . S
C1783 O1786 1.301 . S
C1783 O1787 1.282 . S
O1784 U1766 2.441 . S
O1784 C1770 1.249 . S
O1785 U1766 2.420 . S
O1785 C1770 1.202 . S
O1786 U1766 2.455 . S
O1786 C1783 1.301 . S
O1787 U1766 2.449 . S
O1787 C1783 1.282 . S
H1788 C1761 0.931 . S
H1789 C1763 0.929 . S
H1790 C1764 0.930 . S
H1791 C1765 0.931 . S
H1792 C1772 0.932 . S
H1793 C1773 0.930 . S
H1794 C1774 0.929 . S
H1795 C1776 0.930 . S
H1796 C1778 0.932 . S
H1797 C1779 0.929 . S
H1798 C1780 0.928 . S
H1799 C1782 0.932 . S
C1800 C1801 1.264 . S
C1800 C1805 1.479 . S
C1800 C1810 1.465 . S
C1801 C1800 1.264 . S
C1801 C1803 1.339 . S
C1801 H1828 0.931 . S
C1802 C1803 1.395 . S
C1802 C1804 1.320 . S
C1803 C1801 1.339 . S
C1803 C1802 1.395 . S
C1803 H1829 0.929 . S
C1804 C1802 1.320 . S
C1804 C1805 1.405 . S
C1804 H1830 0.930 . S
C1805 C1800 1.479 . S
C1805 C1804 1.405 . S
C1805 H1831 0.931 . S
U1806 O1807 2.454 . S
U1806 O1808 2.458 . S
U1806 C1809 2.984 . S
U1806 C1810 2.847 . S
U1806 C1823 2.882 . S
U1806 O1824 2.441 . S
U1806 O1825 2.420 . S
U1806 O1826 2.455 . S
U1806 O1827 2.449 . S
O1807 U1806 2.454 . S
O1807 C1809 1.353 . S
O1808 U1806 2.458 . S
O1808 C1809 1.286 . S
C1809 U1806 2.984 . S
C1809 O1807 1.353 . S
C1809 O1808 1.286 . S
C1809 C1811 1.363 . S
C1810 C1800 1.465 . S
C1810 U1806 2.847 . S
C1810 O1824 1.249 . S
C1810 O1825 1.202 . S
C1811 C1809 1.363 . S
C1811 C1813 1.408 . S
C1811 C1816 1.342 . S
C1812 C1813 1.310 . S
C1812 C1815 1.461 . S
C1812 H1832 0.932 . S
C1813 C1811 1.408 . S
C1813 C1812 1.310 . S
C1813 H1833 0.930 . S
C1814 C1815 1.474 . S
C1814 C1816 1.285 . S
C1814 H1834 0.929 . S
C1815 C1812 1.461 . S
C1815 C1814 1.474 . S
C1816 C1811 1.342 . S
C1816 C1814 1.285 . S
C1816 H1835 0.930 . S
C1817 C1820 1.424 . S
C1817 C1822 1.245 . S
C1817 C1823 1.428 . S
C1818 C1821 1.260 . S
C1818 C1822 1.477 . S
C1818 H1836 0.932 . S
C1819 C1820 1.384 . S
C1819 C1821 1.479 . S
C1819 H1837 0.929 . S
C1820 C1817 1.424 . S
C1820 C1819 1.384 . S
C1820 H1838 0.928 . S
C1821 C1818 1.260 . S
C1821 C1819 1.479 . S
C1822 C1817 1.245 . S
C1822 C1818 1.477 . S
C1822 H1839 0.932 . S
C1823 U1806 2.882 . S
C1823 C1817 1.428 . S
C1823 O1826 1.301 . S
C1823 O1827 1.282 . S
O1824 U1806 2.441 . S
O1824 C1810 1.249 . S
O1825 U1806 2.420 . S
O1825 C1810 1.202 . S
O1826 U1806 2.455 . S
O1826 C1823 1.301 . S
O1827 U1806 2.449 . S
O1827 C1823 1.282 . S
H1828 C1801 0.931 . S
H1829 C1803 0.929 . S
H1830 C1804 0.930 . S
H1831 C1805 0.931 . S
H1832 C1812 0.932 . S
H1833 C1813 0.930 . S
H1834 C1814 0.929 . S
H1835 C1816 0.930 . S
H1836 C1818 0.932 . S
H1837 C1819 0.929 . S
H1838 C1820 0.928 . S
H1839 C1822 0.932 . S
C1840 C1841 1.264 . S
C1840 C1845 1.479 . S
C1840 C1850 1.465 . S
C1841 C1840 1.264 . S
C1841 C1843 1.339 . S
C1841 H1868 0.931 . S
C1842 C1843 1.395 . S
C1842 C1844 1.320 . S
C1843 C1841 1.339 . S
C1843 C1842 1.395 . S
C1843 H1869 0.929 . S
C1844 C1842 1.320 . S
C1844 C1845 1.405 . S
C1844 H1870 0.930 . S
C1845 C1840 1.479 . S
C1845 C1844 1.405 . S
C1845 H1871 0.931 . S
U1846 O1847 2.454 . S
U1846 O1848 2.458 . S
U1846 C1849 2.984 . S
U1846 C1850 2.847 . S
U1846 C1863 2.882 . S
U1846 O1864 2.441 . S
U1846 O1865 2.420 . S
U1846 O1866 2.455 . S
U1846 O1867 2.449 . S
O1847 U1846 2.454 . S
O1847 C1849 1.353 . S
O1848 U1846 2.458 . S
O1848 C1849 1.286 . S
C1849 U1846 2.984 . S
C1849 O1847 1.353 . S
C1849 O1848 1.286 . S
C1849 C1851 1.363 . S
C1850 C1840 1.465 . S
C1850 U1846 2.847 . S
C1850 O1864 1.249 . S
C1850 O1865 1.202 . S
C1851 C1849 1.363 . S
C1851 C1853 1.408 . S
C1851 C1856 1.342 . S
C1852 C1853 1.310 . S
C1852 C1855 1.461 . S
C1852 H1872 0.932 . S
C1853 C1851 1.408 . S
C1853 C1852 1.310 . S
C1853 H1873 0.930 . S
C1854 C1855 1.474 . S
C1854 C1856 1.285 . S
C1854 H1874 0.929 . S
C1855 C1852 1.461 . S
C1855 C1854 1.474 . S
C1856 C1851 1.342 . S
C1856 C1854 1.285 . S
C1856 H1875 0.930 . S
C1857 C1860 1.424 . S
C1857 C1862 1.245 . S
C1857 C1863 1.428 . S
C1858 C1861 1.260 . S
C1858 C1862 1.477 . S
C1858 H1876 0.932 . S
C1859 C1860 1.384 . S
C1859 C1861 1.479 . S
C1859 H1877 0.929 . S
C1860 C1857 1.424 . S
C1860 C1859 1.384 . S
C1860 H1878 0.928 . S
C1861 C1858 1.260 . S
C1861 C1859 1.479 . S
C1862 C1857 1.245 . S
C1862 C1858 1.477 . S
C1862 H1879 0.932 . S
C1863 U1846 2.882 . S
C1863 C1857 1.428 . S
C1863 O1866 1.301 . S
C1863 O1867 1.282 . S
O1864 U1846 2.441 . S
O1864 C1850 1.249 . S
O1865 U1846 2.420 . S
O1865 C1850 1.202 . S
O1866 U1846 2.455 . S
O1866 C1863 1.301 . S
O1867 U1846 2.449 . S
O1867 C1863 1.282 . S
H1868 C1841 0.931 . S
H1869 C1843 0.929 . S
H1870 C1844 0.930 . S
H1871 C1845 0.931 . S
H1872 C1852 0.932 . S
H1873 C1853 0.930 . S
H1874 C1854 0.929 . S
H1875 C1856 0.930 . S
H1876 C1858 0.932 . S
H1877 C1859 0.929 . S
H1878 C1860 0.928 . S
H1879 C1862 0.932 . S
C1880 C1881 1.264 . S
C1880 C1885 1.479 . S
C1880 C1890 1.465 . S
C1881 C1880 1.264 . S
C1881 C1883 1.339 . S
C1881 H1908 0.931 . S
C1882 C1883 1.395 . S
C1882 C1884 1.320 . S
C1883 C1881 1.339 . S
C1883 C1882 1.395 . S
C1883 H1909 0.929 . S
C1884 C1882 1.320 . S
C1884 C1885 1.405 . S
C1884 H1910 0.930 . S
C1885 C1880 1.479 . S
C1885 C1884 1.405 . S
C1885 H1911 0.931 . S
U1886 O1887 2.454 . S
U1886 O1888 2.458 . S
U1886 C1889 2.984 . S
U1886 C1890 2.847 . S
U1886 C1903 2.882 . S
U1886 O1904 2.441 . S
U1886 O1905 2.420 . S
U1886 O1906 2.455 . S
U1886 O1907 2.449 . S
O1887 U1886 2.454 . S
O1887 C1889 1.353 . S
O1888 U1886 2.458 . S
O1888 C1889 1.286 . S
C1889 U1886 2.984 . S
C1889 O1887 1.353 . S
C1889 O1888 1.286 . S
C1889 C1891 1.363 . S
C1890 C1880 1.465 . S
C1890 U1886 2.847 . S
C1890 O1904 1.249 . S
C1890 O1905 1.202 . S
C1891 C1889 1.363 . S
C1891 C1893 1.408 . S
C1891 C1896 1.342 . S
C1892 C1893 1.310 . S
C1892 C1895 1.461 . S
C1892 H1912 0.932 . S
C1893 C1891 1.408 . S
C1893 C1892 1.310 . S
C1893 H1913 0.930 . S
C1894 C1895 1.474 . S
C1894 C1896 1.285 . S
C1894 H1914 0.929 . S
C1895 C1892 1.461 . S
C1895 C1894 1.474 . S
C1896 C1891 1.342 . S
C1896 C1894 1.285 . S
C1896 H1915 0.930 . S
C1897 C1900 1.424 . S
C1897 C1902 1.245 . S
C1897 C1903 1.428 . S
C1898 C1901 1.260 . S
C1898 C1902 1.477 . S
C1898 H1916 0.932 . S
C1899 C1900 1.384 . S
C1899 C1901 1.479 . S
C1899 H1917 0.929 . S
C1900 C1897 1.424 . S
C1900 C1899 1.384 . S
C1900 H1918 0.928 . S
C1901 C1898 1.260 . S
C1901 C1899 1.479 . S
C1902 C1897 1.245 . S
C1902 C1898 1.477 . S
C1902 H1919 0.932 . S
C1903 U1886 2.882 . S
C1903 C1897 1.428 . S
C1903 O1906 1.301 . S
C1903 O1907 1.282 . S
O1904 U1886 2.441 . S
O1904 C1890 1.249 . S
O1905 U1886 2.420 . S
O1905 C1890 1.202 . S
O1906 U1886 2.455 . S
O1906 C1903 1.301 . S
O1907 U1886 2.449 . S
O1907 C1903 1.282 . S
H1908 C1881 0.931 . S
H1909 C1883 0.929 . S
H1910 C1884 0.930 . S
H1911 C1885 0.931 . S
H1912 C1892 0.932 . S
H1913 C1893 0.930 . S
H1914 C1894 0.929 . S
H1915 C1896 0.930 . S
H1916 C1898 0.932 . S
H1917 C1899 0.929 . S
H1918 C1900 0.928 . S
H1919 C1902 0.932 . S
H1920 C1927 0.929 . S
H1921 C1930 0.930 . S
H1922 C1932 0.929 . S
H1923 C1924 0.969 . S
C1924 H1923 0.969 . S
C1924 O1925 1.550 . S
C1924 H1926 0.973 . S
O1925 C1924 1.550 . S
O1925 C1931 1.412 . S
H1926 C1924 0.973 . S
C1927 H1920 0.929 . S
C1927 C1928 1.400 . S
C1927 C1929 1.364 . S
C1928 C1927 1.400 . S
C1928 C1932 1.377 . S
C1929 C1927 1.364 . S
C1929 C1930 1.374 . S
C1930 H1921 0.930 . S
C1930 C1929 1.374 . S
C1930 C1931 1.383 . S
C1931 O1925 1.412 . S
C1931 C1930 1.383 . S
C1931 C1932 1.394 . S
C1932 H1922 0.929 . S
C1932 C1928 1.377 . S
C1932 C1931 1.394 . S
H1933 C1940 0.929 . S
H1934 C1943 0.930 . S
H1935 C1945 0.929 . S
H1936 C1937 0.969 . S
C1937 H1936 0.969 . S
C1937 O1938 1.550 . S
C1937 H1939 0.973 . S
O1938 C1937 1.550 . S
O1938 C1944 1.412 . S
H1939 C1937 0.973 . S
C1940 H1933 0.929 . S
C1940 C1941 1.400 . S
C1940 C1942 1.364 . S
C1941 C1940 1.400 . S
C1941 C1945 1.377 . S
C1942 C1940 1.364 . S
C1942 C1943 1.374 . S
C1943 H1934 0.930 . S
C1943 C1942 1.374 . S
C1943 C1944 1.383 . S
C1944 O1938 1.412 . S
C1944 C1943 1.383 . S
C1944 C1945 1.394 . S
C1945 H1935 0.929 . S
C1945 C1941 1.377 . S
C1945 C1944 1.394 . S
H1946 C1953 0.929 . S
H1947 C1956 0.930 . S
H1948 C1958 0.929 . S
H1949 C1950 0.969 . S
C1950 H1949 0.969 . S
C1950 O1951 1.550 . S
C1950 H1952 0.973 . S
O1951 C1950 1.550 . S
O1951 C1957 1.412 . S
H1952 C1950 0.973 . S
C1953 H1946 0.929 . S
C1953 C1954 1.400 . S
C1953 C1955 1.364 . S
C1954 C1953 1.400 . S
C1954 C1958 1.377 . S
C1955 C1953 1.364 . S
C1955 C1956 1.374 . S
C1956 H1947 0.930 . S
C1956 C1955 1.374 . S
C1956 C1957 1.383 . S
C1957 O1951 1.412 . S
C1957 C1956 1.383 . S
C1957 C1958 1.394 . S
C1958 H1948 0.929 . S
C1958 C1954 1.377 . S
C1958 C1957 1.394 . S
H1959 C1966 0.929 . S
H1960 C1969 0.930 . S
H1961 C1971 0.929 . S
H1962 C1963 0.969 . S
C1963 H1962 0.969 . S
C1963 O1964 1.550 . S
C1963 H1965 0.973 . S
O1964 C1963 1.550 . S
O1964 C1970 1.412 . S
H1965 C1963 0.973 . S
C1966 H1959 0.929 . S
C1966 C1967 1.400 . S
C1966 C1968 1.364 . S
C1967 C1966 1.400 . S
C1967 C1971 1.377 . S
C1968 C1966 1.364 . S
C1968 C1969 1.374 . S
C1969 H1960 0.930 . S
C1969 C1968 1.374 . S
C1969 C1970 1.383 . S
C1970 O1964 1.412 . S
C1970 C1969 1.383 . S
C1970 C1971 1.394 . S
C1971 H1961 0.929 . S
C1971 C1967 1.377 . S
C1971 C1970 1.394 . S
H1972 C1979 0.929 . S
H1973 C1982 0.930 . S
H1974 C1984 0.929 . S
H1975 C1976 0.969 . S
C1976 H1975 0.969 . S
C1976 O1977 1.550 . S
C1976 H1978 0.973 . S
O1977 C1976 1.550 . S
O1977 C1983 1.412 . S
H1978 C1976 0.973 . S
C1979 H1972 0.929 . S
C1979 C1980 1.400 . S
C1979 C1981 1.364 . S
C1980 C1979 1.400 . S
C1980 C1984 1.377 . S
C1981 C1979 1.364 . S
C1981 C1982 1.374 . S
C1982 H1973 0.930 . S
C1982 C1981 1.374 . S
C1982 C1983 1.383 . S
C1983 O1977 1.412 . S
C1983 C1982 1.383 . S
C1983 C1984 1.394 . S
C1984 H1974 0.929 . S
C1984 C1980 1.377 . S
C1984 C1983 1.394 . S
H1985 C1992 0.929 . S
H1986 C1995 0.930 . S
H1987 C1997 0.929 . S
H1988 C1989 0.969 . S
C1989 H1988 0.969 . S
C1989 O1990 1.550 . S
C1989 H1991 0.973 . S
O1990 C1989 1.550 . S
O1990 C1996 1.412 . S
H1991 C1989 0.973 . S
C1992 H1985 0.929 . S
C1992 C1993 1.400 . S
C1992 C1994 1.364 . S
C1993 C1992 1.400 . S
C1993 C1997 1.377 . S
C1994 C1992 1.364 . S
C1994 C1995 1.374 . S
C1995 H1986 0.930 . S
C1995 C1994 1.374 . S
C1995 C1996 1.383 . S
C1996 O1990 1.412 . S
C1996 C1995 1.383 . S
C1996 C1997 1.394 . S
C1997 H1987 0.929 . S
C1997 C1993 1.377 . S
C1997 C1996 1.394 . S
H1998 C2005 0.929 . S
H1999 C2008 0.930 . S
H2000 C2010 0.929 . S
H2001 C2002 0.969 . S
C2002 H2001 0.969 . S
C2002 O2003 1.550 . S
C2002 H2004 0.973 . S
O2003 C2002 1.550 . S
O2003 C2009 1.412 . S
H2004 C2002 0.973 . S
C2005 H1998 0.929 . S
C2005 C2006 1.400 . S
C2005 C2007 1.364 . S
C2006 C2005 1.400 . S
C2006 C2010 1.377 . S
C2007 C2005 1.364 . S
C2007 C2008 1.374 . S
C2008 H1999 0.930 . S
C2008 C2007 1.374 . S
C2008 C2009 1.383 . S
C2009 O2003 1.412 . S
C2009 C2008 1.383 . S
C2009 C2010 1.394 . S
C2010 H2000 0.929 . S
C2010 C2006 1.377 . S
C2010 C2009 1.394 . S
H2011 C2018 0.929 . S
H2012 C2021 0.930 . S
H2013 C2023 0.929 . S
H2014 C2015 0.969 . S
C2015 H2014 0.969 . S
C2015 O2016 1.550 . S
C2015 H2017 0.973 . S
O2016 C2015 1.550 . S
O2016 C2022 1.412 . S
H2017 C2015 0.973 . S
C2018 H2011 0.929 . S
C2018 C2019 1.400 . S
C2018 C2020 1.364 . S
C2019 C2018 1.400 . S
C2019 C2023 1.377 . S
C2020 C2018 1.364 . S
C2020 C2021 1.374 . S
C2021 H2012 0.930 . S
C2021 C2020 1.374 . S
C2021 C2022 1.383 . S
C2022 O2016 1.412 . S
C2022 C2021 1.383 . S
C2022 C2023 1.394 . S
C2023 H2013 0.929 . S
C2023 C2019 1.377 . S
C2023 C2022 1.394 . S
H2024 C2031 0.929 . S
H2025 C2034 0.930 . S
H2026 C2036 0.929 . S
H2027 C2028 0.969 . S
C2028 H2027 0.969 . S
C2028 O2029 1.550 . S
C2028 H2030 0.973 . S
O2029 C2028 1.550 . S
O2029 C2035 1.412 . S
H2030 C2028 0.973 . S
C2031 H2024 0.929 . S
C2031 C2032 1.400 . S
C2031 C2033 1.364 . S
C2032 C2031 1.400 . S
C2032 C2036 1.377 . S
C2033 C2031 1.364 . S
C2033 C2034 1.374 . S
C2034 H2025 0.930 . S
C2034 C2033 1.374 . S
C2034 C2035 1.383 . S
C2035 O2029 1.412 . S
C2035 C2034 1.383 . S
C2035 C2036 1.394 . S
C2036 H2026 0.929 . S
C2036 C2032 1.377 . S
C2036 C2035 1.394 . S
H2037 C2044 0.929 . S
H2038 C2047 0.930 . S
H2039 C2049 0.929 . S
H2040 C2041 0.969 . S
C2041 H2040 0.969 . S
C2041 O2042 1.550 . S
C2041 H2043 0.973 . S
O2042 C2041 1.550 . S
O2042 C2048 1.412 . S
H2043 C2041 0.973 . S
C2044 H2037 0.929 . S
C2044 C2045 1.400 . S
C2044 C2046 1.364 . S
C2045 C2044 1.400 . S
C2045 C2049 1.377 . S
C2046 C2044 1.364 . S
C2046 C2047 1.374 . S
C2047 H2038 0.930 . S
C2047 C2046 1.374 . S
C2047 C2048 1.383 . S
C2048 O2042 1.412 . S
C2048 C2047 1.383 . S
C2048 C2049 1.394 . S
C2049 H2039 0.929 . S
C2049 C2045 1.377 . S
C2049 C2048 1.394 . S
H2050 C2057 0.929 . S
H2051 C2060 0.930 . S
H2052 C2062 0.929 . S
H2053 C2054 0.969 . S
C2054 H2053 0.969 . S
C2054 O2055 1.550 . S
C2054 H2056 0.973 . S
O2055 C2054 1.550 . S
O2055 C2061 1.412 . S
H2056 C2054 0.973 . S
C2057 H2050 0.929 . S
C2057 C2058 1.400 . S
C2057 C2059 1.364 . S
C2058 C2057 1.400 . S
C2058 C2062 1.377 . S
C2059 C2057 1.364 . S
C2059 C2060 1.374 . S
C2060 H2051 0.930 . S
C2060 C2059 1.374 . S
C2060 C2061 1.383 . S
C2061 O2055 1.412 . S
C2061 C2060 1.383 . S
C2061 C2062 1.394 . S
C2062 H2052 0.929 . S
C2062 C2058 1.377 . S
C2062 C2061 1.394 . S
H2063 C2070 0.929 . S
H2064 C2073 0.930 . S
H2065 C2075 0.929 . S
H2066 C2067 0.969 . S
C2067 H2066 0.969 . S
C2067 O2068 1.550 . S
C2067 H2069 0.973 . S
O2068 C2067 1.550 . S
O2068 C2074 1.412 . S
H2069 C2067 0.973 . S
C2070 H2063 0.929 . S
C2070 C2071 1.400 . S
C2070 C2072 1.364 . S
C2071 C2070 1.400 . S
C2071 C2075 1.377 . S
C2072 C2070 1.364 . S
C2072 C2073 1.374 . S
C2073 H2064 0.930 . S
C2073 C2072 1.374 . S
C2073 C2074 1.383 . S
C2074 O2068 1.412 . S
C2074 C2073 1.383 . S
C2074 C2075 1.394 . S
C2075 H2065 0.929 . S
C2075 C2071 1.377 . S
C2075 C2074 1.394 . S
H2076 C2083 0.929 . S
H2077 C2086 0.930 . S
H2078 C2088 0.929 . S
H2079 C2080 0.969 . S
C2080 H2079 0.969 . S
C2080 O2081 1.550 . S
C2080 H2082 0.973 . S
O2081 C2080 1.550 . S
O2081 C2087 1.412 . S
H2082 C2080 0.973 . S
C2083 H2076 0.929 . S
C2083 C2084 1.400 . S
C2083 C2085 1.364 . S
C2084 C2083 1.400 . S
C2084 C2088 1.377 . S
C2085 C2083 1.364 . S
C2085 C2086 1.374 . S
C2086 H2077 0.930 . S
C2086 C2085 1.374 . S
C2086 C2087 1.383 . S
C2087 O2081 1.412 . S
C2087 C2086 1.383 . S
C2087 C2088 1.394 . S
C2088 H2078 0.929 . S
C2088 C2084 1.377 . S
C2088 C2087 1.394 . S
H2089 C2096 0.929 . S
H2090 C2099 0.930 . S
H2091 C2101 0.929 . S
H2092 C2093 0.969 . S
C2093 H2092 0.969 . S
C2093 O2094 1.550 . S
C2093 H2095 0.973 . S
O2094 C2093 1.550 . S
O2094 C2100 1.412 . S
H2095 C2093 0.973 . S
C2096 H2089 0.929 . S
C2096 C2097 1.400 . S
C2096 C2098 1.364 . S
C2097 C2096 1.400 . S
C2097 C2101 1.377 . S
C2098 C2096 1.364 . S
C2098 C2099 1.374 . S
C2099 H2090 0.930 . S
C2099 C2098 1.374 . S
C2099 C2100 1.383 . S
C2100 O2094 1.412 . S
C2100 C2099 1.383 . S
C2100 C2101 1.394 . S
C2101 H2091 0.929 . S
C2101 C2097 1.377 . S
C2101 C2100 1.394 . S
H2102 C2109 0.929 . S
H2103 C2112 0.930 . S
H2104 C2114 0.929 . S
H2105 C2106 0.969 . S
C2106 H2105 0.969 . S
C2106 O2107 1.550 . S
C2106 H2108 0.973 . S
O2107 C2106 1.550 . S
O2107 C2113 1.412 . S
H2108 C2106 0.973 . S
C2109 H2102 0.929 . S
C2109 C2110 1.400 . S
C2109 C2111 1.364 . S
C2110 C2109 1.400 . S
C2110 C2114 1.377 . S
C2111 C2109 1.364 . S
C2111 C2112 1.374 . S
C2112 H2103 0.930 . S
C2112 C2111 1.374 . S
C2112 C2113 1.383 . S
C2113 O2107 1.412 . S
C2113 C2112 1.383 . S
C2113 C2114 1.394 . S
C2114 H2104 0.929 . S
C2114 C2110 1.377 . S
C2114 C2113 1.394 . S
H2115 C2122 0.929 . S
H2116 C2125 0.930 . S
H2117 C2127 0.929 . S
H2118 C2119 0.969 . S
C2119 H2118 0.969 . S
C2119 O2120 1.550 . S
C2119 H2121 0.973 . S
O2120 C2119 1.550 . S
O2120 C2126 1.412 . S
H2121 C2119 0.973 . S
C2122 H2115 0.929 . S
C2122 C2123 1.400 . S
C2122 C2124 1.364 . S
C2123 C2122 1.400 . S
C2123 C2127 1.377 . S
C2124 C2122 1.364 . S
C2124 C2125 1.374 . S
C2125 H2116 0.930 . S
C2125 C2124 1.374 . S
C2125 C2126 1.383 . S
C2126 O2120 1.412 . S
C2126 C2125 1.383 . S
C2126 C2127 1.394 . S
C2127 H2117 0.929 . S
C2127 C2123 1.377 . S
C2127 C2126 1.394 . S
H2128 C2135 0.929 . S
H2129 C2138 0.930 . S
H2130 C2140 0.929 . S
H2131 C2132 0.969 . S
C2132 H2131 0.969 . S
C2132 O2133 1.550 . S
C2132 H2134 0.973 . S
O2133 C2132 1.550 . S
O2133 C2139 1.412 . S
H2134 C2132 0.973 . S
C2135 H2128 0.929 . S
C2135 C2136 1.400 . S
C2135 C2137 1.364 . S
C2136 C2135 1.400 . S
C2136 C2140 1.377 . S
C2137 C2135 1.364 . S
C2137 C2138 1.374 . S
C2138 H2129 0.930 . S
C2138 C2137 1.374 . S
C2138 C2139 1.383 . S
C2139 O2133 1.412 . S
C2139 C2138 1.383 . S
C2139 C2140 1.394 . S
C2140 H2130 0.929 . S
C2140 C2136 1.377 . S
C2140 C2139 1.394 . S
H2141 C2148 0.929 . S
H2142 C2151 0.930 . S
H2143 C2153 0.929 . S
H2144 C2145 0.969 . S
C2145 H2144 0.969 . S
C2145 O2146 1.550 . S
C2145 H2147 0.973 . S
O2146 C2145 1.550 . S
O2146 C2152 1.412 . S
H2147 C2145 0.973 . S
C2148 H2141 0.929 . S
C2148 C2149 1.400 . S
C2148 C2150 1.364 . S
C2149 C2148 1.400 . S
C2149 C2153 1.377 . S
C2150 C2148 1.364 . S
C2150 C2151 1.374 . S
C2151 H2142 0.930 . S
C2151 C2150 1.374 . S
C2151 C2152 1.383 . S
C2152 O2146 1.412 . S
C2152 C2151 1.383 . S
C2152 C2153 1.394 . S
C2153 H2143 0.929 . S
C2153 C2149 1.377 . S
C2153 C2152 1.394 . S
H2154 C2161 0.929 . S
H2155 C2164 0.930 . S
H2156 C2166 0.929 . S
H2157 C2158 0.969 . S
C2158 H2157 0.969 . S
C2158 O2159 1.550 . S
C2158 H2160 0.973 . S
O2159 C2158 1.550 . S
O2159 C2165 1.412 . S
H2160 C2158 0.973 . S
C2161 H2154 0.929 . S
C2161 C2162 1.400 . S
C2161 C2163 1.364 . S
C2162 C2161 1.400 . S
C2162 C2166 1.377 . S
C2163 C2161 1.364 . S
C2163 C2164 1.374 . S
C2164 H2155 0.930 . S
C2164 C2163 1.374 . S
C2164 C2165 1.383 . S
C2165 O2159 1.412 . S
C2165 C2164 1.383 . S
C2165 C2166 1.394 . S
C2166 H2156 0.929 . S
C2166 C2162 1.377 . S
C2166 C2165 1.394 . S
H2167 C2174 0.929 . S
H2168 C2177 0.930 . S
H2169 C2179 0.929 . S
H2170 C2171 0.969 . S
C2171 H2170 0.969 . S
C2171 O2172 1.550 . S
C2171 H2173 0.973 . S
O2172 C2171 1.550 . S
O2172 C2178 1.412 . S
H2173 C2171 0.973 . S
C2174 H2167 0.929 . S
C2174 C2175 1.400 . S
C2174 C2176 1.364 . S
C2175 C2174 1.400 . S
C2175 C2179 1.377 . S
C2176 C2174 1.364 . S
C2176 C2177 1.374 . S
C2177 H2168 0.930 . S
C2177 C2176 1.374 . S
C2177 C2178 1.383 . S
C2178 O2172 1.412 . S
C2178 C2177 1.383 . S
C2178 C2179 1.394 . S
C2179 H2169 0.929 . S
C2179 C2175 1.377 . S
C2179 C2178 1.394 . S
H2180 C2187 0.929 . S
H2181 C2190 0.930 . S
H2182 C2192 0.929 . S
H2183 C2184 0.969 . S
C2184 H2183 0.969 . S
C2184 O2185 1.550 . S
C2184 H2186 0.973 . S
O2185 C2184 1.550 . S
O2185 C2191 1.412 . S
H2186 C2184 0.973 . S
C2187 H2180 0.929 . S
C2187 C2188 1.400 . S
C2187 C2189 1.364 . S
C2188 C2187 1.400 . S
C2188 C2192 1.377 . S
C2189 C2187 1.364 . S
C2189 C2190 1.374 . S
C2190 H2181 0.930 . S
C2190 C2189 1.374 . S
C2190 C2191 1.383 . S
C2191 O2185 1.412 . S
C2191 C2190 1.383 . S
C2191 C2192 1.394 . S
C2192 H2182 0.929 . S
C2192 C2188 1.377 . S
C2192 C2191 1.394 . S
H2193 C2200 0.929 . S
H2194 C2203 0.930 . S
H2195 C2205 0.929 . S
H2196 C2197 0.969 . S
C2197 H2196 0.969 . S
C2197 O2198 1.550 . S
C2197 H2199 0.973 . S
O2198 C2197 1.550 . S
O2198 C2204 1.412 . S
H2199 C2197 0.973 . S
C2200 H2193 0.929 . S
C2200 C2201 1.400 . S
C2200 C2202 1.364 . S
C2201 C2200 1.400 . S
C2201 C2205 1.377 . S
C2202 C2200 1.364 . S
C2202 C2203 1.374 . S
C2203 H2194 0.930 . S
C2203 C2202 1.374 . S
C2203 C2204 1.383 . S
C2204 O2198 1.412 . S
C2204 C2203 1.383 . S
C2204 C2205 1.394 . S
C2205 H2195 0.929 . S
C2205 C2201 1.377 . S
C2205 C2204 1.394 . S
H2206 C2213 0.929 . S
H2207 C2216 0.930 . S
H2208 C2218 0.929 . S
H2209 C2210 0.969 . S
C2210 H2209 0.969 . S
C2210 O2211 1.550 . S
C2210 H2212 0.973 . S
O2211 C2210 1.550 . S
O2211 C2217 1.412 . S
H2212 C2210 0.973 . S
C2213 H2206 0.929 . S
C2213 C2214 1.400 . S
C2213 C2215 1.364 . S
C2214 C2213 1.400 . S
C2214 C2218 1.377 . S
C2215 C2213 1.364 . S
C2215 C2216 1.374 . S
C2216 H2207 0.930 . S
C2216 C2215 1.374 . S
C2216 C2217 1.383 . S
C2217 O2211 1.412 . S
C2217 C2216 1.383 . S
C2217 C2218 1.394 . S
C2218 H2208 0.929 . S
C2218 C2214 1.377 . S
C2218 C2217 1.394 . S
H2219 C2226 0.929 . S
H2220 C2229 0.930 . S
H2221 C2231 0.929 . S
H2222 C2223 0.969 . S
C2223 H2222 0.969 . S
C2223 O2224 1.550 . S
C2223 H2225 0.973 . S
O2224 C2223 1.550 . S
O2224 C2230 1.412 . S
H2225 C2223 0.973 . S
C2226 H2219 0.929 . S
C2226 C2227 1.400 . S
C2226 C2228 1.364 . S
C2227 C2226 1.400 . S
C2227 C2231 1.377 . S
C2228 C2226 1.364 . S
C2228 C2229 1.374 . S
C2229 H2220 0.930 . S
C2229 C2228 1.374 . S
C2229 C2230 1.383 . S
C2230 O2224 1.412 . S
C2230 C2229 1.383 . S
C2230 C2231 1.394 . S
C2231 H2221 0.929 . S
C2231 C2227 1.377 . S
C2231 C2230 1.394 . S
H2232 C2239 0.929 . S
H2233 C2242 0.930 . S
H2234 C2244 0.929 . S
H2235 C2236 0.969 . S
C2236 H2235 0.969 . S
C2236 O2237 1.550 . S
C2236 H2238 0.973 . S
O2237 C2236 1.550 . S
O2237 C2243 1.412 . S
H2238 C2236 0.973 . S
C2239 H2232 0.929 . S
C2239 C2240 1.400 . S
C2239 C2241 1.364 . S
C2240 C2239 1.400 . S
C2240 C2244 1.377 . S
C2241 C2239 1.364 . S
C2241 C2242 1.374 . S
C2242 H2233 0.930 . S
C2242 C2241 1.374 . S
C2242 C2243 1.383 . S
C2243 O2237 1.412 . S
C2243 C2242 1.383 . S
C2243 C2244 1.394 . S
C2244 H2234 0.929 . S
C2244 C2240 1.377 . S
C2244 C2243 1.394 . S
H2245 C2252 0.929 . S
H2246 C2255 0.930 . S
H2247 C2257 0.929 . S
H2248 C2249 0.969 . S
C2249 H2248 0.969 . S
C2249 O2250 1.550 . S
C2249 H2251 0.973 . S
O2250 C2249 1.550 . S
O2250 C2256 1.412 . S
H2251 C2249 0.973 . S
C2252 H2245 0.929 . S
C2252 C2253 1.400 . S
C2252 C2254 1.364 . S
C2253 C2252 1.400 . S
C2253 C2257 1.377 . S
C2254 C2252 1.364 . S
C2254 C2255 1.374 . S
C2255 H2246 0.930 . S
C2255 C2254 1.374 . S
C2255 C2256 1.383 . S
C2256 O2250 1.412 . S
C2256 C2255 1.383 . S
C2256 C2257 1.394 . S
C2257 H2247 0.929 . S
C2257 C2253 1.377 . S
C2257 C2256 1.394 . S
H2258 C2265 0.929 . S
H2259 C2268 0.930 . S
H2260 C2270 0.929 . S
H2261 C2262 0.969 . S
C2262 H2261 0.969 . S
C2262 O2263 1.550 . S
C2262 H2264 0.973 . S
O2263 C2262 1.550 . S
O2263 C2269 1.412 . S
H2264 C2262 0.973 . S
C2265 H2258 0.929 . S
C2265 C2266 1.400 . S
C2265 C2267 1.364 . S
C2266 C2265 1.400 . S
C2266 C2270 1.377 . S
C2267 C2265 1.364 . S
C2267 C2268 1.374 . S
C2268 H2259 0.930 . S
C2268 C2267 1.374 . S
C2268 C2269 1.383 . S
C2269 O2263 1.412 . S
C2269 C2268 1.383 . S
C2269 C2270 1.394 . S
C2270 H2260 0.929 . S
C2270 C2266 1.377 . S
C2270 C2269 1.394 . S
H2271 C2278 0.929 . S
H2272 C2281 0.930 . S
H2273 C2283 0.929 . S
H2274 C2275 0.969 . S
C2275 H2274 0.969 . S
C2275 O2276 1.550 . S
C2275 H2277 0.973 . S
O2276 C2275 1.550 . S
O2276 C2282 1.412 . S
H2277 C2275 0.973 . S
C2278 H2271 0.929 . S
C2278 C2279 1.400 . S
C2278 C2280 1.364 . S
C2279 C2278 1.400 . S
C2279 C2283 1.377 . S
C2280 C2278 1.364 . S
C2280 C2281 1.374 . S
C2281 H2272 0.930 . S
C2281 C2280 1.374 . S
C2281 C2282 1.383 . S
C2282 O2276 1.412 . S
C2282 C2281 1.383 . S
C2282 C2283 1.394 . S
C2283 H2273 0.929 . S
C2283 C2279 1.377 . S
C2283 C2282 1.394 . S
H2284 C2291 0.929 . S
H2285 C2294 0.930 . S
H2286 C2296 0.929 . S
H2287 C2288 0.969 . S
C2288 H2287 0.969 . S
C2288 O2289 1.550 . S
C2288 H2290 0.973 . S
O2289 C2288 1.550 . S
O2289 C2295 1.412 . S
H2290 C2288 0.973 . S
C2291 H2284 0.929 . S
C2291 C2292 1.400 . S
C2291 C2293 1.364 . S
C2292 C2291 1.400 . S
C2292 C2296 1.377 . S
C2293 C2291 1.364 . S
C2293 C2294 1.374 . S
C2294 H2285 0.930 . S
C2294 C2293 1.374 . S
C2294 C2295 1.383 . S
C2295 O2289 1.412 . S
C2295 C2294 1.383 . S
C2295 C2296 1.394 . S
C2296 H2286 0.929 . S
C2296 C2292 1.377 . S
C2296 C2295 1.394 . S
H2297 C2304 0.929 . S
H2298 C2307 0.930 . S
H2299 C2309 0.929 . S
H2300 C2301 0.969 . S
C2301 H2300 0.969 . S
C2301 O2302 1.550 . S
C2301 H2303 0.973 . S
O2302 C2301 1.550 . S
O2302 C2308 1.412 . S
H2303 C2301 0.973 . S
C2304 H2297 0.929 . S
C2304 C2305 1.400 . S
C2304 C2306 1.364 . S
C2305 C2304 1.400 . S
C2305 C2309 1.377 . S
C2306 C2304 1.364 . S
C2306 C2307 1.374 . S
C2307 H2298 0.930 . S
C2307 C2306 1.374 . S
C2307 C2308 1.383 . S
C2308 O2302 1.412 . S
C2308 C2307 1.383 . S
C2308 C2309 1.394 . S
C2309 H2299 0.929 . S
C2309 C2305 1.377 . S
C2309 C2308 1.394 . S
H2310 C2317 0.929 . S
H2311 C2320 0.930 . S
H2312 C2322 0.929 . S
H2313 C2314 0.969 . S
C2314 H2313 0.969 . S
C2314 O2315 1.550 . S
C2314 H2316 0.973 . S
O2315 C2314 1.550 . S
O2315 C2321 1.412 . S
H2316 C2314 0.973 . S
C2317 H2310 0.929 . S
C2317 C2318 1.400 . S
C2317 C2319 1.364 . S
C2318 C2317 1.400 . S
C2318 C2322 1.377 . S
C2319 C2317 1.364 . S
C2319 C2320 1.374 . S
C2320 H2311 0.930 . S
C2320 C2319 1.374 . S
C2320 C2321 1.383 . S
C2321 O2315 1.412 . S
C2321 C2320 1.383 . S
C2321 C2322 1.394 . S
C2322 H2312 0.929 . S
C2322 C2318 1.377 . S
C2322 C2321 1.394 . S
H2323 C2330 0.929 . S
H2324 C2333 0.930 . S
H2325 C2335 0.929 . S
H2326 C2327 0.969 . S
C2327 H2326 0.969 . S
C2327 O2328 1.550 . S
C2327 H2329 0.973 . S
O2328 C2327 1.550 . S
O2328 C2334 1.412 . S
H2329 C2327 0.973 . S
C2330 H2323 0.929 . S
C2330 C2331 1.400 . S
C2330 C2332 1.364 . S
C2331 C2330 1.400 . S
C2331 C2335 1.377 . S
C2332 C2330 1.364 . S
C2332 C2333 1.374 . S
C2333 H2324 0.930 . S
C2333 C2332 1.374 . S
C2333 C2334 1.383 . S
C2334 O2328 1.412 . S
C2334 C2333 1.383 . S
C2334 C2335 1.394 . S
C2335 H2325 0.929 . S
C2335 C2331 1.377 . S
C2335 C2334 1.394 . S
H2336 C2343 0.929 . S
H2337 C2346 0.930 . S
H2338 C2348 0.929 . S
H2339 C2340 0.969 . S
C2340 H2339 0.969 . S
C2340 O2341 1.550 . S
C2340 H2342 0.973 . S
O2341 C2340 1.550 . S
O2341 C2347 1.412 . S
H2342 C2340 0.973 . S
C2343 H2336 0.929 . S
C2343 C2344 1.400 . S
C2343 C2345 1.364 . S
C2344 C2343 1.400 . S
C2344 C2348 1.377 . S
C2345 C2343 1.364 . S
C2345 C2346 1.374 . S
C2346 H2337 0.930 . S
C2346 C2345 1.374 . S
C2346 C2347 1.383 . S
C2347 O2341 1.412 . S
C2347 C2346 1.383 . S
C2347 C2348 1.394 . S
C2348 H2338 0.929 . S
C2348 C2344 1.377 . S
C2348 C2347 1.394 . S
H2349 C2356 0.929 . S
H2350 C2359 0.930 . S
H2351 C2361 0.929 . S
H2352 C2353 0.969 . S
C2353 H2352 0.969 . S
C2353 O2354 1.550 . S
C2353 H2355 0.973 . S
O2354 C2353 1.550 . S
O2354 C2360 1.412 . S
H2355 C2353 0.973 . S
C2356 H2349 0.929 . S
C2356 C2357 1.400 . S
C2356 C2358 1.364 . S
C2357 C2356 1.400 . S
C2357 C2361 1.377 . S
C2358 C2356 1.364 . S
C2358 C2359 1.374 . S
C2359 H2350 0.930 . S
C2359 C2358 1.374 . S
C2359 C2360 1.383 . S
C2360 O2354 1.412 . S
C2360 C2359 1.383 . S
C2360 C2361 1.394 . S
C2361 H2351 0.929 . S
C2361 C2357 1.377 . S
C2361 C2360 1.394 . S
H2362 C2369 0.929 . S
H2363 C2372 0.930 . S
H2364 C2374 0.929 . S
H2365 C2366 0.969 . S
C2366 H2365 0.969 . S
C2366 O2367 1.550 . S
C2366 H2368 0.973 . S
O2367 C2366 1.550 . S
O2367 C2373 1.412 . S
H2368 C2366 0.973 . S
C2369 H2362 0.929 . S
C2369 C2370 1.400 . S
C2369 C2371 1.364 . S
C2370 C2369 1.400 . S
C2370 C2374 1.377 . S
C2371 C2369 1.364 . S
C2371 C2372 1.374 . S
C2372 H2363 0.930 . S
C2372 C2371 1.374 . S
C2372 C2373 1.383 . S
C2373 O2367 1.412 . S
C2373 C2372 1.383 . S
C2373 C2374 1.394 . S
C2374 H2364 0.929 . S
C2374 C2370 1.377 . S
C2374 C2373 1.394 . S
H2375 C2382 0.929 . S
H2376 C2385 0.930 . S
H2377 C2387 0.929 . S
H2378 C2379 0.969 . S
C2379 H2378 0.969 . S
C2379 O2380 1.550 . S
C2379 H2381 0.973 . S
O2380 C2379 1.550 . S
O2380 C2386 1.412 . S
H2381 C2379 0.973 . S
C2382 H2375 0.929 . S
C2382 C2383 1.400 . S
C2382 C2384 1.364 . S
C2383 C2382 1.400 . S
C2383 C2387 1.377 . S
C2384 C2382 1.364 . S
C2384 C2385 1.374 . S
C2385 H2376 0.930 . S
C2385 C2384 1.374 . S
C2385 C2386 1.383 . S
C2386 O2380 1.412 . S
C2386 C2385 1.383 . S
C2386 C2387 1.394 . S
C2387 H2377 0.929 . S
C2387 C2383 1.377 . S
C2387 C2386 1.394 . S
H2388 C2395 0.929 . S
H2389 C2398 0.930 . S
H2390 C2400 0.929 . S
H2391 C2392 0.969 . S
C2392 H2391 0.969 . S
C2392 O2393 1.550 . S
C2392 H2394 0.973 . S
O2393 C2392 1.550 . S
O2393 C2399 1.412 . S
H2394 C2392 0.973 . S
C2395 H2388 0.929 . S
C2395 C2396 1.400 . S
C2395 C2397 1.364 . S
C2396 C2395 1.400 . S
C2396 C2400 1.377 . S
C2397 C2395 1.364 . S
C2397 C2398 1.374 . S
C2398 H2389 0.930 . S
C2398 C2397 1.374 . S
C2398 C2399 1.383 . S
C2399 O2393 1.412 . S
C2399 C2398 1.383 . S
C2399 C2400 1.394 . S
C2400 H2390 0.929 . S
C2400 C2396 1.377 . S
C2400 C2399 1.394 . S
H2401 C2408 0.929 . S
H2402 C2411 0.930 . S
H2403 C2413 0.929 . S
H2404 C2405 0.969 . S
C2405 H2404 0.969 . S
C2405 O2406 1.550 . S
C2405 H2407 0.973 . S
O2406 C2405 1.550 . S
O2406 C2412 1.412 . S
H2407 C2405 0.973 . S
C2408 H2401 0.929 . S
C2408 C2409 1.400 . S
C2408 C2410 1.364 . S
C2409 C2408 1.400 . S
C2409 C2413 1.377 . S
C2410 C2408 1.364 . S
C2410 C2411 1.374 . S
C2411 H2402 0.930 . S
C2411 C2410 1.374 . S
C2411 C2412 1.383 . S
C2412 O2406 1.412 . S
C2412 C2411 1.383 . S
C2412 C2413 1.394 . S
C2413 H2403 0.929 . S
C2413 C2409 1.377 . S
C2413 C2412 1.394 . S
H2414 C2421 0.929 . S
H2415 C2424 0.930 . S
H2416 C2426 0.929 . S
H2417 C2418 0.969 . S
C2418 H2417 0.969 . S
C2418 O2419 1.550 . S
C2418 H2420 0.973 . S
O2419 C2418 1.550 . S
O2419 C2425 1.412 . S
H2420 C2418 0.973 . S
C2421 H2414 0.929 . S
C2421 C2422 1.400 . S
C2421 C2423 1.364 . S
C2422 C2421 1.400 . S
C2422 C2426 1.377 . S
C2423 C2421 1.364 . S
C2423 C2424 1.374 . S
C2424 H2415 0.930 . S
C2424 C2423 1.374 . S
C2424 C2425 1.383 . S
C2425 O2419 1.412 . S
C2425 C2424 1.383 . S
C2425 C2426 1.394 . S
C2426 H2416 0.929 . S
C2426 C2422 1.377 . S
C2426 C2425 1.394 . S
H2427 C2434 0.929 . S
H2428 C2437 0.930 . S
H2429 C2439 0.929 . S
H2430 C2431 0.969 . S
C2431 H2430 0.969 . S
C2431 O2432 1.550 . S
C2431 H2433 0.973 . S
O2432 C2431 1.550 . S
O2432 C2438 1.412 . S
H2433 C2431 0.973 . S
C2434 H2427 0.929 . S
C2434 C2435 1.400 . S
C2434 C2436 1.364 . S
C2435 C2434 1.400 . S
C2435 C2439 1.377 . S
C2436 C2434 1.364 . S
C2436 C2437 1.374 . S
C2437 H2428 0.930 . S
C2437 C2436 1.374 . S
C2437 C2438 1.383 . S
C2438 O2432 1.412 . S
C2438 C2437 1.383 . S
C2438 C2439 1.394 . S
C2439 H2429 0.929 . S
C2439 C2435 1.377 . S
C2439 C2438 1.394 . S
H2440 C2447 0.929 . S
H2441 C2450 0.930 . S
H2442 C2452 0.929 . S
H2443 C2444 0.969 . S
C2444 H2443 0.969 . S
C2444 O2445 1.550 . S
C2444 H2446 0.973 . S
O2445 C2444 1.550 . S
O2445 C2451 1.412 . S
H2446 C2444 0.973 . S
C2447 H2440 0.929 . S
C2447 C2448 1.400 . S
C2447 C2449 1.364 . S
C2448 C2447 1.400 . S
C2448 C2452 1.377 . S
C2449 C2447 1.364 . S
C2449 C2450 1.374 . S
C2450 H2441 0.930 . S
C2450 C2449 1.374 . S
C2450 C2451 1.383 . S
C2451 O2445 1.412 . S
C2451 C2450 1.383 . S
C2451 C2452 1.394 . S
C2452 H2442 0.929 . S
C2452 C2448 1.377 . S
C2452 C2451 1.394 . S
H2453 C2460 0.929 . S
H2454 C2463 0.930 . S
H2455 C2465 0.929 . S
H2456 C2457 0.969 . S
C2457 H2456 0.969 . S
C2457 O2458 1.550 . S
C2457 H2459 0.973 . S
O2458 C2457 1.550 . S
O2458 C2464 1.412 . S
H2459 C2457 0.973 . S
C2460 H2453 0.929 . S
C2460 C2461 1.400 . S
C2460 C2462 1.364 . S
C2461 C2460 1.400 . S
C2461 C2465 1.377 . S
C2462 C2460 1.364 . S
C2462 C2463 1.374 . S
C2463 H2454 0.930 . S
C2463 C2462 1.374 . S
C2463 C2464 1.383 . S
C2464 O2458 1.412 . S
C2464 C2463 1.383 . S
C2464 C2465 1.394 . S
C2465 H2455 0.929 . S
C2465 C2461 1.377 . S
C2465 C2464 1.394 . S
H2466 C2473 0.929 . S
H2467 C2476 0.930 . S
H2468 C2478 0.929 . S
H2469 C2470 0.969 . S
C2470 H2469 0.969 . S
C2470 O2471 1.550 . S
C2470 H2472 0.973 . S
O2471 C2470 1.550 . S
O2471 C2477 1.412 . S
H2472 C2470 0.973 . S
C2473 H2466 0.929 . S
C2473 C2474 1.400 . S
C2473 C2475 1.364 . S
C2474 C2473 1.400 . S
C2474 C2478 1.377 . S
C2475 C2473 1.364 . S
C2475 C2476 1.374 . S
C2476 H2467 0.930 . S
C2476 C2475 1.374 . S
C2476 C2477 1.383 . S
C2477 O2471 1.412 . S
C2477 C2476 1.383 . S
C2477 C2478 1.394 . S
C2478 H2468 0.929 . S
C2478 C2474 1.377 . S
C2478 C2477 1.394 . S
H2479 C2486 0.929 . S
H2480 C2489 0.930 . S
H2481 C2491 0.929 . S
H2482 C2483 0.969 . S
C2483 H2482 0.969 . S
C2483 O2484 1.550 . S
C2483 H2485 0.973 . S
O2484 C2483 1.550 . S
O2484 C2490 1.412 . S
H2485 C2483 0.973 . S
C2486 H2479 0.929 . S
C2486 C2487 1.400 . S
C2486 C2488 1.364 . S
C2487 C2486 1.400 . S
C2487 C2491 1.377 . S
C2488 C2486 1.364 . S
C2488 C2489 1.374 . S
C2489 H2480 0.930 . S
C2489 C2488 1.374 . S
C2489 C2490 1.383 . S
C2490 O2484 1.412 . S
C2490 C2489 1.383 . S
C2490 C2491 1.394 . S
C2491 H2481 0.929 . S
C2491 C2487 1.377 . S
C2491 C2490 1.394 . S
H2492 C2499 0.929 . S
H2493 C2502 0.930 . S
H2494 C2504 0.929 . S
H2495 C2496 0.969 . S
C2496 H2495 0.969 . S
C2496 O2497 1.550 . S
C2496 H2498 0.973 . S
O2497 C2496 1.550 . S
O2497 C2503 1.412 . S
H2498 C2496 0.973 . S
C2499 H2492 0.929 . S
C2499 C2500 1.400 . S
C2499 C2501 1.364 . S
C2500 C2499 1.400 . S
C2500 C2504 1.377 . S
C2501 C2499 1.364 . S
C2501 C2502 1.374 . S
C2502 H2493 0.930 . S
C2502 C2501 1.374 . S
C2502 C2503 1.383 . S
C2503 O2497 1.412 . S
C2503 C2502 1.383 . S
C2503 C2504 1.394 . S
C2504 H2494 0.929 . S
C2504 C2500 1.377 . S
C2504 C2503 1.394 . S
H2505 C2512 0.929 . S
H2506 C2515 0.930 . S
H2507 C2517 0.929 . S
H2508 C2509 0.969 . S
C2509 H2508 0.969 . S
C2509 O2510 1.550 . S
C2509 H2511 0.973 . S
O2510 C2509 1.550 . S
O2510 C2516 1.412 . S
H2511 C2509 0.973 . S
C2512 H2505 0.929 . S
C2512 C2513 1.400 . S
C2512 C2514 1.364 . S
C2513 C2512 1.400 . S
C2513 C2517 1.377 . S
C2514 C2512 1.364 . S
C2514 C2515 1.374 . S
C2515 H2506 0.930 . S
C2515 C2514 1.374 . S
C2515 C2516 1.383 . S
C2516 O2510 1.412 . S
C2516 C2515 1.383 . S
C2516 C2517 1.394 . S
C2517 H2507 0.929 . S
C2517 C2513 1.377 . S
C2517 C2516 1.394 . S
H2518 C2525 0.929 . S
H2519 C2528 0.930 . S
H2520 C2530 0.929 . S
H2521 C2522 0.969 . S
C2522 H2521 0.969 . S
C2522 O2523 1.550 . S
C2522 H2524 0.973 . S
O2523 C2522 1.550 . S
O2523 C2529 1.412 . S
H2524 C2522 0.973 . S
C2525 H2518 0.929 . S
C2525 C2526 1.400 . S
C2525 C2527 1.364 . S
C2526 C2525 1.400 . S
C2526 C2530 1.377 . S
C2527 C2525 1.364 . S
C2527 C2528 1.374 . S
C2528 H2519 0.930 . S
C2528 C2527 1.374 . S
C2528 C2529 1.383 . S
C2529 O2523 1.412 . S
C2529 C2528 1.383 . S
C2529 C2530 1.394 . S
C2530 H2520 0.929 . S
C2530 C2526 1.377 . S
C2530 C2529 1.394 . S
H2531 C2538 0.929 . S
H2532 C2541 0.930 . S
H2533 C2543 0.929 . S
H2534 C2535 0.969 . S
C2535 H2534 0.969 . S
C2535 O2536 1.550 . S
C2535 H2537 0.973 . S
O2536 C2535 1.550 . S
O2536 C2542 1.412 . S
H2537 C2535 0.973 . S
C2538 H2531 0.929 . S
C2538 C2539 1.400 . S
C2538 C2540 1.364 . S
C2539 C2538 1.400 . S
C2539 C2543 1.377 . S
C2540 C2538 1.364 . S
C2540 C2541 1.374 . S
C2541 H2532 0.930 . S
C2541 C2540 1.374 . S
C2541 C2542 1.383 . S
C2542 O2536 1.412 . S
C2542 C2541 1.383 . S
C2542 C2543 1.394 . S
C2543 H2533 0.929 . S
C2543 C2539 1.377 . S
C2543 C2542 1.394 . S
C1781 C1929 2.241 . S
C981 C1942 1.597 . S
C1955 C1861 1.861 . S
C1061 C1968 2.362 . S
C1901 C1981 2.153 . S
C941 C1994 2.040 . S
C1821 C2007 1.548 . S
C1021 C2020 1.429 . S
C661 C2033 1.642 . S
C1621 C2046 2.008 . S
C741 C2059 2.590 . S
C1581 C2072 2.784 . S
C901 C2085 2.093 . S
C2098 C1661 2.039 . S
C2111 C821 1.954 . S
C1141 C2124 1.576 . S
C2137 C781 1.939 . S
C2150 C1701 2.011 . S
C861 C2163 1.581 . S
C1181 C2176 2.610 . S
C2189 C1101 1.667 . S
C1421 C2202 1.787 . S
C2215 C381 1.622 . S
C2228 C1501 2.935 . S
C2241 C461 1.930 . S
C2254 C1541 2.264 . S
C341 C2267 1.506 . S
C2280 C1461 1.626 . S
C421 C2293 2.839 . S
C2306 C61 2.345 . S
C2319 C1261 2.284 . S
C141 C2332 2.469 . S
C2345 C1221 1.597 . S
C2358 C301 1.565 . S
C1301 C2371 1.896 . S
C2384 C221 1.455 . S
C2397 C541 2.131 . S
C181 C2410 1.755 . S
C2423 C1341 1.515 . S
C261 C2436 2.136 . S
C2449 C581 2.407 . S
C501 C2462 2.224 . S
C701 C2475 1.950 . S
C2488 C621 2.796 . S
C1741 C2501 1.967 . S
C101 C2514 2.179 . S
C2527 C21 1.681 . S
C2540 C1381 1.502 . S
C1335 C1928 2.048 . S
C535 C1941 2.493 . S
C1362 C1950 1.974 . S
C1967 C1295 1.854 . S
C575 C1976 2.830 . S
C1215 C1989 1.486 . S
C2002 C495 2.531 . S
C1242 C2019 1.846 . S
C1255 C2032 2.619 . S
C2041 C562 2.663 . S
C1202 C2054 1.734 . S
C2067 C482 2.201 . S
C522 C2080 2.262 . S
C1375 C2097 2.384 . S
C2106 C1282 1.994 . S
C2123 C1322 2.202 . S
C455 C2071 1.891 . S
C1415 C2132 1.848 . S
C1455 C2149 1.507 . S
C2158 C1482 2.328 . S
C2084 C442 2.245 . S
C362 C2045 1.729 . S
C1495 C2175 3.300 . S
C2184 C1402 1.716 . S
C2201 C1695 2.337 . S
C1135 C2214 1.372 . S
C2223 C1722 1.951 . S
C2240 C1655 2.353 . S
C1175 C2249 3.042 . S
C1562 C2262 2.792 . S
C1095 C2275 2.185 . S
C2292 C1615 2.482 . S
C2305 C1602 2.710 . S
C1162 C2314 2.731 . S
C2331 C1575 2.969 . S
C1082 C2340 2.222 . S
C2353 C1122 1.269 . S
C1735 C2370 1.960 . S
C2379 C1642 2.116 . S
C1682 C2392 2.235 . S
C1042 C2344 2.055 . S
C1775 C2405 2.465 . S
C1815 C2422 1.310 . S
C2435 C1842 1.893 . S
C1055 C2357 2.333 . S
C975 C2318 1.451 . S
C2444 C1855 1.926 . S
C1762 C2457 2.315 . S
C1993 C215 1.954 . S
C2006 C255 2.440 . S
C2015 C282 1.761 . S
C1980 C175 1.672 . S
C1963 C135 2.888 . S
C15 C1924 1.529 . S
C55 C1937 2.768 . S
C82 C1954 1.951 . S
C95 C2188 2.525 . S
C122 C2470 2.781 . S
C2 C2171 1.799 . S
C42 C2483 2.341 . S
C242 C2496 2.322 . S
C2136 C295 2.427 . S
C162 C2145 1.719 . S
C202 C2162 2.142 . S
C2487 C1535 2.001 . S
C335 C2093 1.773 . S
C375 C2110 1.579 . S
C402 C2119 2.236 . S
C2500 C1522 2.550 . S
C2474 C1442 1.581 . S
C2058 C415 3.260 . S
C322 C2028 1.672 . S
C815 C2266 2.248 . S
C855 C2279 1.428 . S
C882 C2288 2.044 1_554 S
C775 C2253 2.383 . S
C2236 C735 3.008 1_554 S
C2197 C602 2.883 . S
C2210 C655 2.197 . S
C695 C2227 2.551 . S
C2461 C682 2.703 . S
C722 C2509 2.687 . S
C615 C2448 2.974 . S
C2522 C642 2.287 . S
C842 C2535 1.316 . S
C2409 C895 2.139 . S
C762 C2418 1.984 1_655 S
C802 C2431 2.243 . S
C1895 C2526 1.961 . S
C2366 C935 2.366 . S
C962 C2383 1.407 . S
C1002 C2396 1.621 . S
C1882 C2539 2.285 . S
C1802 C2513 1.341 . S
C2327 C1015 1.647 . S
C2301 C922 2.214 . S
