# Generated by pormake.
# Topology pyr, (3,6)-cn, num edge types: 1
# Building blocks:
#     Node 0, Type 0, BuildingBlock: BELTOD_clean_linker_0, # of connection points: 3
#     Node 1, Type 0, BuildingBlock: BELTOD_clean_linker_0, # of connection points: 3
#     Node 2, Type 0, BuildingBlock: BELTOD_clean_linker_0, # of connection points: 3
#     Node 3, Type 0, BuildingBlock: BELTOD_clean_linker_0, # of connection points: 3
#     Node 4, Type 0, BuildingBlock: BELTOD_clean_linker_0, # of connection points: 3
#     Node 5, Type 0, BuildingBlock: BELTOD_clean_linker_0, # of connection points: 3
#     Node 6, Type 0, BuildingBlock: BELTOD_clean_linker_0, # of connection points: 3
#     Node 7, Type 0, BuildingBlock: BELTOD_clean_linker_0, # of connection points: 3
#     Node 8, Type 1, BuildingBlock: PAMTUU_clean_sbu_0, # of connection points: 6
#     Node 9, Type 1, BuildingBlock: PAMTUU_clean_sbu_0, # of connection points: 6
#     Node 10, Type 1, BuildingBlock: PAMTUU_clean_sbu_0, # of connection points: 6
#     Node 11, Type 1, BuildingBlock: PAMTUU_clean_sbu_0, # of connection points: 6
#     Edge 12, Type (0, 1), BuildingBlock: XIVTED_clean_linker_0, # of connection points: 2
#     Edge 13, Type (0, 1), BuildingBlock: XIVTED_clean_linker_0, # of connection points: 2
#     Edge 14, Type (0, 1), BuildingBlock: XIVTED_clean_linker_0, # of connection points: 2
#     Edge 15, Type (0, 1), BuildingBlock: XIVTED_clean_linker_0, # of connection points: 2
#     Edge 16, Type (0, 1), BuildingBlock: XIVTED_clean_linker_0, # of connection points: 2
#     Edge 17, Type (0, 1), BuildingBlock: XIVTED_clean_linker_0, # of connection points: 2
#     Edge 18, Type (0, 1), BuildingBlock: XIVTED_clean_linker_0, # of connection points: 2
#     Edge 19, Type (0, 1), BuildingBlock: XIVTED_clean_linker_0, # of connection points: 2
#     Edge 20, Type (0, 1), BuildingBlock: XIVTED_clean_linker_0, # of connection points: 2
#     Edge 21, Type (0, 1), BuildingBlock: XIVTED_clean_linker_0, # of connection points: 2
#     Edge 22, Type (0, 1), BuildingBlock: XIVTED_clean_linker_0, # of connection points: 2
#     Edge 23, Type (0, 1), BuildingBlock: XIVTED_clean_linker_0, # of connection points: 2
#     Edge 24, Type (0, 1), BuildingBlock: XIVTED_clean_linker_0, # of connection points: 2
#     Edge 25, Type (0, 1), BuildingBlock: XIVTED_clean_linker_0, # of connection points: 2
#     Edge 26, Type (0, 1), BuildingBlock: XIVTED_clean_linker_0, # of connection points: 2
#     Edge 27, Type (0, 1), BuildingBlock: XIVTED_clean_linker_0, # of connection points: 2
#     Edge 28, Type (0, 1), BuildingBlock: XIVTED_clean_linker_0, # of connection points: 2
#     Edge 29, Type (0, 1), BuildingBlock: XIVTED_clean_linker_0, # of connection points: 2
#     Edge 30, Type (0, 1), BuildingBlock: XIVTED_clean_linker_0, # of connection points: 2
#     Edge 31, Type (0, 1), BuildingBlock: XIVTED_clean_linker_0, # of connection points: 2
#     Edge 32, Type (0, 1), BuildingBlock: XIVTED_clean_linker_0, # of connection points: 2
#     Edge 33, Type (0, 1), BuildingBlock: XIVTED_clean_linker_0, # of connection points: 2
#     Edge 34, Type (0, 1), BuildingBlock: XIVTED_clean_linker_0, # of connection points: 2
#     Edge 35, Type (0, 1), BuildingBlock: XIVTED_clean_linker_0, # of connection points: 2
# Relax obj value: 0.097
# Max RMSD: 0.129
# Mean RMSD: 0.054
data_MOF--net-pyr--node1-PAMTUU_clean_sbu_0--node2-BELTOD_clean_linker_0--edge1-XIVTED_clean_linker_0
_symmetry_space_group_name_H-M    P1
_symmetry_Int_Tables_number       1
_symmetry_cell_setting            triclinic
loop_
_symmetry_equiv_pos_as_xyz
'x, y, z'
_cell_length_a     43.421275
_cell_length_b     45.539507
_cell_length_c     43.890201
_cell_angle_alpha  90.208215
_cell_angle_beta   89.265624
_cell_angle_gamma 99.652044
loop_
_atom_site_label
_atom_site_type_symbol
_atom_site_fract_x
_atom_site_fract_y
_atom_site_fract_z
_atom_type_partial_charge
P0 P 0.36352 0.29377 0.22785 0.0
H1 H 0.40334 0.29659 0.17361 0.0
H2 H 0.42585 0.25872 0.14508 0.0
H3 H 0.38225 0.1915 0.20842 0.0
H4 H 0.36014 0.22911 0.23672 0.0
H5 H 0.34233 0.35087 0.23241 0.0
H6 H 0.30141 0.3714 0.20617 0.0
H7 H 0.28752 0.29504 0.1461 0.0
H8 H 0.32875 0.27493 0.17216 0.0
H9 H 0.37866 0.2789 0.29014 0.0
H10 H 0.29679 0.26988 0.23394 0.0
O11 O 0.39246 0.31923 0.24103 0.0
H12 H 0.34737 0.25133 0.33105 0.0
H13 H 0.26575 0.24263 0.27429 0.0
C14 C 0.38009 0.26577 0.20726 0.0
C15 C 0.39874 0.27369 0.18133 0.0
C16 C 0.41146 0.25204 0.16502 0.0
C17 C 0.40589 0.22215 0.17459 0.0
C18 C 0.38735 0.2144 0.20074 0.0
C19 C 0.37452 0.23598 0.21688 0.0
C20 C 0.33897 0.3117 0.20389 0.0
C21 C 0.3311 0.33901 0.21301 0.0
C22 C 0.30747 0.35053 0.19822 0.0
C23 C 0.29105 0.33474 0.17419 0.0
C24 C 0.29996 0.30795 0.16425 0.0
C25 C 0.32361 0.29644 0.17911 0.0
C26 C 0.33995 0.27708 0.25928 0.0
C27 C 0.35389 0.27155 0.28684 0.0
C28 C 0.33607 0.25563 0.31006 0.0
C29 C 0.30405 0.24507 0.30597 0.0
C30 C 0.29019 0.25104 0.27842 0.0
C31 C 0.30801 0.26666 0.25524 0.0
P32 P 0.21214 0.80085 0.68613 0.0
H33 H 0.27155 0.80983 0.71658 0.0
H34 H 0.2864 0.81819 0.76965 0.0
H35 H 0.1889 0.80699 0.79618 0.0
H36 H 0.17421 0.79859 0.74269 0.0
H37 H 0.22809 0.77935 0.6265 0.0
H38 H 0.25018 0.73558 0.61149 0.0
H39 H 0.23111 0.699 0.70183 0.0
H40 H 0.20928 0.7431 0.71675 0.0
H41 H 0.1839 0.85129 0.70421 0.0
H42 H 0.15819 0.77155 0.65075 0.0
O43 O 0.23771 0.82605 0.66735 0.0
H44 H 0.13824 0.87022 0.6864 0.0
H45 H 0.11169 0.79004 0.63321 0.0
C46 C 0.2219 0.80459 0.72572 0.0
C47 C 0.25338 0.80902 0.73385 0.0
C48 C 0.26179 0.81341 0.76425 0.0
C49 C 0.23878 0.81333 0.7871 0.0
C50 C 0.20711 0.8075 0.77899 0.0
C51 C 0.19871 0.80286 0.74847 0.0
C52 C 0.21793 0.76479 0.67291 0.0
C53 C 0.22782 0.76151 0.64279 0.0
C54 C 0.24031 0.73635 0.63421 0.0
C55 C 0.24299 0.7141 0.65569 0.0
C56 C 0.22994 0.71608 0.68498 0.0
C57 C 0.21738 0.74125 0.6935 0.0
C58 C 0.1743 0.81001 0.67892 0.0
C59 C 0.16773 0.83738 0.68943 0.0
C60 C 0.14144 0.84812 0.67932 0.0
C61 C 0.12129 0.83173 0.65822 0.0
C62 C 0.12694 0.80337 0.64918 0.0
C63 C 0.15341 0.79267 0.65932 0.0
P64 P 0.67545 0.33797 0.81992 0.0
H65 H 0.72788 0.31872 0.85059 0.0
H66 H 0.77183 0.34363 0.88011 0.0
H67 H 0.73835 0.42713 0.87024 0.0
H68 H 0.69413 0.4017 0.84018 0.0
H69 H 0.62144 0.29166 0.80476 0.0
H70 H 0.59366 0.24848 0.83229 0.0
H71 H 0.64732 0.27687 0.91258 0.0
H72 H 0.67312 0.32066 0.88552 0.0
H73 H 0.70179 0.3785 0.771 0.0
H74 H 0.60968 0.3476 0.80751 0.0
O75 O 0.69344 0.31691 0.79679 0.0
H76 H 0.6795 0.40345 0.72946 0.0
H77 H 0.587 0.37264 0.76583 0.0
C78 C 0.70738 0.35812 0.84296 0.0
C79 C 0.7298 0.34241 0.85478 0.0
C80 C 0.75504 0.35678 0.872 0.0
C81 C 0.75903 0.38762 0.87802 0.0
C82 C 0.73649 0.40346 0.86606 0.0
C83 C 0.71093 0.38888 0.84891 0.0
C84 C 0.6493 0.31016 0.84282 0.0
C85 C 0.6265 0.28914 0.82861 0.0
C86 C 0.61097 0.26383 0.84444 0.0
C87 C 0.61811 0.25818 0.87504 0.0
C88 C 0.64038 0.27992 0.88939 0.0
C89 C 0.65553 0.30537 0.87365 0.0
C90 C 0.65769 0.36116 0.79294 0.0
C91 C 0.67669 0.37744 0.77046 0.0
C92 C 0.66377 0.39151 0.74627 0.0
C93 C 0.63118 0.39007 0.7436 0.0
C94 C 0.61216 0.37458 0.76683 0.0
C95 C 0.62518 0.36017 0.79094 0.0
P96 P 0.84377 0.68502 0.31335 0.0
H97 H 0.87928 0.74214 0.2923 0.0
H98 H 0.90401 0.78715 0.31851 0.0
H99 H 0.88532 0.74232 0.405 0.0
H100 H 0.86013 0.69741 0.37843 0.0
H101 H 0.82619 0.62539 0.28552 0.0
H102 H 0.8497 0.59882 0.24527 0.0
H103 H 0.92964 0.6692 0.24238 0.0
H104 H 0.90631 0.69531 0.28329 0.0
H105 H 0.78946 0.70266 0.34301 0.0
H106 H 0.83278 0.62424 0.34228 0.0
O107 O 0.82322 0.70135 0.28858 0.0
H108 H 0.7473 0.67745 0.37548 0.0
H109 H 0.79027 0.59854 0.37495 0.0
C110 C 0.86777 0.71607 0.33317 0.0
C111 C 0.88099 0.74172 0.31688 0.0
C112 C 0.89524 0.76766 0.33206 0.0
C113 C 0.8967 0.7689 0.36416 0.0
C114 C 0.88431 0.74272 0.38038 0.0
C115 C 0.87012 0.71671 0.36511 0.0
C116 C 0.86482 0.662 0.28879 0.0
C117 C 0.84936 0.63464 0.27725 0.0
C118 C 0.86278 0.6195 0.25378 0.0
C119 C 0.89175 0.63166 0.24024 0.0
C120 C 0.90728 0.65903 0.25192 0.0
C121 C 0.89404 0.67391 0.27578 0.0
C122 C 0.81414 0.6653 0.33946 0.0
C123 C 0.78997 0.67993 0.34988 0.0
C124 C 0.76581 0.66545 0.36875 0.0
C125 C 0.76495 0.63571 0.37794 0.0
C126 C 0.78969 0.62123 0.36804 0.0
C127 C 0.81415 0.63595 0.3493 0.0
P128 P 0.73037 0.79815 0.88964 0.0
H129 H 0.70276 0.81339 0.9468 0.0
H130 H 0.65315 0.82835 0.95947 0.0
H131 H 0.62189 0.80894 0.86727 0.0
H132 H 0.6724 0.79403 0.85467 0.0
H133 H 0.74422 0.75795 0.9368 0.0
H134 H 0.75971 0.70907 0.93399 0.0
H135 H 0.73651 0.70333 0.83843 0.0
H136 H 0.72062 0.75246 0.84159 0.0
H137 H 0.71264 0.84782 0.85499 0.0
H138 H 0.78043 0.7888 0.84771 0.0
O139 O 0.75475 0.81443 0.91615 0.0
H140 H 0.73319 0.87267 0.80808 0.0
H141 H 0.80157 0.81398 0.8012 0.0
C142 C 0.69151 0.80358 0.89959 0.0
C143 C 0.68514 0.81192 0.92938 0.0
C144 C 0.65649 0.82017 0.93667 0.0
C145 C 0.63355 0.82005 0.91429 0.0
C146 C 0.63925 0.80963 0.88488 0.0
C147 C 0.668 0.8011 0.87767 0.0
C148 C 0.73256 0.75917 0.88912 0.0
C149 C 0.74165 0.74584 0.91544 0.0
C150 C 0.75023 0.71772 0.91384 0.0
C151 C 0.74984 0.70259 0.88582 0.0
C152 C 0.73748 0.71472 0.86019 0.0
C153 C 0.72851 0.74277 0.86196 0.0
C154 C 0.74398 0.81547 0.85407 0.0
C155 C 0.73148 0.83974 0.84299 0.0
C156 C 0.74356 0.85423 0.81636 0.0
C157 C 0.76879 0.84506 0.8007 0.0
C158 C 0.78161 0.82108 0.81224 0.0
C159 C 0.7695 0.80664 0.83885 0.0
P160 P 0.86969 0.28929 0.30121 0.0
H161 H 0.8512 0.34812 0.30387 0.0
H162 H 0.80826 0.3664 0.33025 0.0
H163 H 0.78443 0.28192 0.37669 0.0
H164 H 0.82672 0.26361 0.34953 0.0
H165 H 0.90403 0.24322 0.2805 0.0
H166 H 0.92872 0.20664 0.30757 0.0
H167 H 0.9091 0.24699 0.39332 0.0
H168 H 0.88487 0.28381 0.36609 0.0
H169 H 0.85219 0.30047 0.23837 0.0
H170 H 0.83233 0.23019 0.30496 0.0
O171 O 0.89435 0.31623 0.28377 0.0
H172 H 0.81413 0.27208 0.20385 0.0
H173 H 0.79443 0.20196 0.27085 0.0
C174 C 0.84263 0.30477 0.32528 0.0
C175 C 0.83719 0.33381 0.32028 0.0
C176 C 0.8126 0.34423 0.3354 0.0
C177 C 0.79284 0.32561 0.35558 0.0
C178 C 0.79894 0.29674 0.36106 0.0
C179 C 0.82341 0.28636 0.34583 0.0
C180 C 0.89169 0.26554 0.32136 0.0
C181 C 0.90535 0.24438 0.30511 0.0
C182 C 0.91958 0.2236 0.32057 0.0
C183 C 0.92038 0.22372 0.35256 0.0
C184 C 0.90824 0.24606 0.36867 0.0
C185 C 0.89433 0.26705 0.35314 0.0
C186 C 0.84541 0.26717 0.27396 0.0
C187 C 0.84008 0.27874 0.24532 0.0
C188 C 0.81833 0.26257 0.22568 0.0
C189 C 0.80124 0.23493 0.2348 0.0
C190 C 0.807 0.22335 0.26338 0.0
C191 C 0.82886 0.23936 0.28278 0.0
P192 P 0.36749 0.66499 0.18716 0.0
H193 H 0.34862 0.61976 0.13962 0.0
H194 H 0.29913 0.59807 0.11721 0.0
H195 H 0.25094 0.65045 0.17774 0.0
H196 H 0.30121 0.67219 0.2006 0.0
H197 H 0.42771 0.70553 0.18401 0.0
H198 H 0.44447 0.75549 0.16402 0.0
H199 H 0.34818 0.76354 0.14868 0.0
H200 H 0.33177 0.71299 0.16785 0.0
H201 H 0.34332 0.61073 0.22257 0.0
H202 H 0.40954 0.69081 0.23732 0.0
O203 O 0.39355 0.64978 0.16687 0.0
H204 H 0.35972 0.58961 0.26959 0.0
H205 H 0.42682 0.66965 0.28392 0.0
C206 C 0.3292 0.64809 0.17187 0.0
C207 C 0.3276 0.62671 0.14842 0.0
C208 C 0.29893 0.61402 0.13553 0.0
C209 C 0.2706 0.62231 0.14541 0.0
C210 C 0.27212 0.6436 0.16915 0.0
C211 C 0.30096 0.65606 0.18239 0.0
C212 C 0.37828 0.70502 0.17815 0.0
C213 C 0.41001 0.71818 0.17701 0.0
C214 C 0.41966 0.74714 0.16537 0.0
C215 C 0.39794 0.76434 0.15435 0.0
C216 C 0.36598 0.75133 0.15629 0.0
C217 C 0.35637 0.7222 0.16785 0.0
C218 C 0.37431 0.65296 0.22631 0.0
C219 C 0.36091 0.62421 0.23624 0.0
C220 C 0.37087 0.61181 0.26316 0.0
C221 C 0.39504 0.6275 0.28116 0.0
C222 C 0.40793 0.65664 0.27142 0.0
C223 C 0.39791 0.669 0.24447 0.0
P224 P 0.17514 0.33401 0.70477 0.0
H225 H 0.19496 0.30257 0.65172 0.0
H226 H 0.17038 0.26041 0.62153 0.0
H227 H 0.08372 0.26048 0.67094 0.0
H228 H 0.10819 0.30382 0.69996 0.0
H229 H 0.24308 0.33543 0.70552 0.0
H230 H 0.28679 0.36232 0.6765 0.0
H231 H 0.22401 0.40981 0.62891 0.0
H232 H 0.1797 0.38241 0.65846 0.0
H233 H 0.12451 0.31554 0.7493 0.0
H234 H 0.17987 0.39846 0.72075 0.0
O235 O 0.19126 0.31258 0.72854 0.0
H236 H 0.10117 0.34107 0.78999 0.0
H237 H 0.15802 0.42414 0.76272 0.0
C238 C 0.15363 0.30706 0.67819 0.0
C239 C 0.1704 0.29414 0.65563 0.0
C240 C 0.15632 0.26939 0.63858 0.0
C241 C 0.12492 0.25618 0.64379 0.0
C242 C 0.10782 0.26978 0.66583 0.0
C243 C 0.12196 0.29477 0.68277 0.0
C244 C 0.20778 0.3569 0.68457 0.0
C245 C 0.23842 0.35175 0.68912 0.0
C246 C 0.26363 0.36709 0.67217 0.0
C247 C 0.25918 0.38822 0.65002 0.0
C248 C 0.2285 0.39388 0.64585 0.0
C249 C 0.20307 0.3782 0.66274 0.0
C250 C 0.15316 0.35496 0.73067 0.0
C251 C 0.13101 0.33948 0.75105 0.0
C252 C 0.11819 0.35419 0.77515 0.0
C253 C 0.12767 0.38498 0.78045 0.0
C254 C 0.1495 0.40062 0.75957 0.0
C255 C 0.16211 0.38583 0.73521 0.0
Tb256 Tb 0.03868 0.01632 0.48195 0.0
Tb257 Tb 0.97438 0.01397 0.52192 0.0
C258 C 0.9803 0.96468 0.47186 0.0
C259 C 0.11334 0.04484 0.44274 0.0
C260 C 0.15881 0.09273 0.42313 0.0
C261 C 0.16022 0.06346 0.4135 0.0
C262 C 0.13763 0.03972 0.42324 0.0
C263 C 0.11202 0.07386 0.45285 0.0
C264 C 0.13459 0.09763 0.44313 0.0
C265 C 0.08904 0.02 0.45184 0.0
O266 O 0.01806 0.05376 0.4666 0.0
O267 O 0.96718 0.03545 0.47915 0.0
O268 O 1.00185 0.05819 0.53003 0.0
O269 O 0.05053 0.04737 0.52017 0.0
O270 O 0.9254 1.00387 0.52537 0.0
O271 O 0.953 0.02502 0.56242 0.0
O272 O 1.00449 0.9908 0.54902 0.0
O273 O 0.03486 0.97706 0.51016 0.0
O274 O 1.00389 0.98289 0.45927 0.0
O275 O 0.96872 0.97069 0.49867 0.0
C276 C 0.9881 0.05422 0.46412 0.0
O277 O 0.08665 0.01456 0.481 0.0
O278 O 0.06182 0.01971 0.43953 0.0
C279 C 0.03239 0.06479 0.53248 0.0
C280 C 0.90655 0.99331 0.57533 0.0
C281 C 0.87257 0.95849 0.62118 0.0
C282 C 0.86159 0.98337 0.60923 0.0
C283 C 0.8785 1.00064 0.58651 0.0
C284 C 0.91724 0.96803 0.58643 0.0
C285 C 0.90033 0.9507 0.6092 0.0
C286 C 0.92518 0.01322 0.55345 0.0
C287 C 0.02356 0.97377 0.53798 0.0
H288 H 0.17828 0.05899 0.39774 0.0
H289 H 0.13886 0.01742 0.41519 0.0
H290 H 0.09336 0.07813 0.468 0.0
H291 H 0.13305 0.11984 0.45122 0.0
H292 H 0.84004 0.98965 0.61763 0.0
H293 H 0.86996 0.02009 0.57807 0.0
H294 H 0.93899 0.96217 0.57801 0.0
H295 H 0.90952 0.93183 0.61813 0.0
Tb296 Tb 0.53233 0.02029 0.04251 0.0
Tb297 Tb 0.4697 0.0144 1.00072 0.0
C298 C 0.52054 0.9749 0.98739 0.0
C299 C 0.60253 0.05137 0.08776 0.0
C300 C 0.64318 0.09815 0.11552 0.0
C301 C 0.65447 0.07295 0.10435 0.0
C302 C 0.63427 0.04975 0.09064 0.0
C303 C 0.59112 0.07661 0.09852 0.0
C304 C 0.6113 0.09978 0.11248 0.0
C305 C 0.58202 0.02681 0.07284 0.0
O306 O 0.53665 0.0624 0.01717 0.0
O307 O 0.50549 0.04644 0.97661 0.0
O308 O 0.47087 0.05376 0.02883 0.0
O309 O 0.49914 0.04113 0.0688 0.0
O310 O 0.44735 1.01046 0.95846 0.0
O311 O 0.42174 0.01591 1.00012 0.0
O312 O 0.45786 0.98033 0.03674 0.0
O313 O 0.5066 0.97617 0.05449 0.0
O314 O 0.54064 0.99329 1.00338 0.0
O315 O 0.49093 0.97704 0.98596 0.0
C316 C 0.52727 0.06633 0.98925 0.0
O317 O 0.5542 0.0189 0.08472 0.0
O318 O 0.58133 0.0282 0.04323 0.0
C319 C 0.47985 0.05718 0.05716 0.0
C320 C 0.39571 0.98543 0.96222 0.0
C321 C 0.35052 0.93767 0.94283 0.0
C322 C 0.34881 0.96706 0.9341 0.0
C323 C 0.37125 0.99074 0.94374 0.0
C324 C 0.3972 0.95632 0.97169 0.0
C325 C 0.37474 0.93258 0.96206 0.0
C326 C 0.41991 1.01026 0.97099 0.0
C327 C 0.47642 0.96602 0.0526 0.0
H328 H 0.67882 0.07091 0.10672 0.0
H329 H 0.64343 0.03045 0.08232 0.0
H330 H 0.56669 0.07837 0.09613 0.0
H331 H 0.60205 0.11906 0.12066 0.0
H332 H 0.3308 0.9717 0.91886 0.0
H333 H 0.36987 0.01313 0.93627 0.0
H334 H 0.41598 0.95194 0.98612 0.0
H335 H 0.37655 0.91024 0.96934 0.0
Tb336 Tb 0.51386 0.47886 0.49343 0.0
Tb337 Tb 0.51109 0.53853 0.53281 0.0
C338 C 0.4828 0.53129 0.46569 0.0
C339 C 0.54698 0.41998 0.45458 0.0
C340 C 0.60119 0.39819 0.43577 0.0
C341 C 0.57199 0.38672 0.42309 0.0
C342 C 0.54508 0.39758 0.43244 0.0
C343 C 0.57593 0.43131 0.4675 0.0
C344 C 0.60277 0.42044 0.45828 0.0
C345 C 0.51921 0.43263 0.46325 0.0
O346 O 0.55396 0.51059 0.47725 0.0
O347 O 0.55966 0.54509 0.51595 0.0
O348 O 0.52428 0.50579 0.56486 0.0
O349 O 0.54621 0.47671 0.53142 0.0
O350 O 0.51157 0.58472 0.53594 0.0
O351 O 0.50775 0.55754 0.57613 0.0
O352 O 0.46311 0.51407 0.53474 0.0
O353 O 0.47337 0.46744 0.52386 0.0
O354 O 0.48191 0.50222 0.46763 0.0
O355 O 0.4967 0.54922 0.48684 0.0
C356 C 0.57016 0.53379 0.49093 0.0
O357 O 0.51274 0.43257 0.4923 0.0
O358 O 0.51754 0.45826 0.45095 0.0
C359 C 0.54175 0.4853 0.5596 0.0
C360 C 0.47748 0.59576 0.57561 0.0
C361 C 0.42233 0.61523 0.59618 0.0
C362 C 0.44124 0.60281 0.61663 0.0
C363 C 0.46858 0.59335 0.60648 0.0
C364 C 0.45886 0.60852 0.55516 0.0
C365 C 0.43164 0.61822 0.56536 0.0
C366 C 0.50512 0.58339 0.565 0.0
C367 C 0.45483 0.48492 0.53518 0.0
H368 H 0.57002 0.36987 0.40542 0.0
H369 H 0.52292 0.38881 0.42206 0.0
H370 H 0.57782 0.44877 0.48455 0.0
H371 H 0.62475 0.42947 0.46884 0.0
H372 H 0.43466 0.59984 0.64044 0.0
H373 H 0.48248 0.58357 0.62272 0.0
H374 H 0.46507 0.61078 0.53121 0.0
H375 H 0.41801 0.62824 0.54909 0.0
Tb376 Tb 0.01432 0.53785 0.99261 0.0
Tb377 Tb 0.01269 0.47761 0.03226 0.0
C378 C 0.04411 0.48447 0.9663 0.0
C379 C 0.98344 0.59287 0.94765 0.0
C380 C 0.92691 0.60497 0.92373 0.0
C381 C 0.95262 0.60319 0.90437 0.0
C382 C 0.98064 0.59723 0.91626 0.0
C383 C 0.95801 0.5952 0.96709 0.0
C384 C 0.93015 0.60139 0.95527 0.0
C385 C 0.01118 0.58211 0.95929 0.0
O386 O 0.9732 0.50722 0.97668 0.0
O387 O 0.96486 0.47217 0.01472 0.0
O388 O 0.99405 0.50821 0.06356 0.0
O389 O 0.98239 0.54365 0.03052 0.0
O390 O 0.00906 0.43102 0.03458 0.0
O391 O 0.01728 0.45802 0.07483 0.0
O392 O 0.06072 0.50215 0.03617 0.0
O393 O 0.05309 0.54934 0.02428 0.0
O394 O 0.04757 0.51357 0.96953 0.0
O395 O 0.02735 0.46681 0.98615 0.0
C396 C 0.95569 0.48422 0.98982 0.0
O397 O 0.01562 0.58404 0.98861 0.0
O398 O 0.01512 0.55625 0.94876 0.0
C399 C 0.98136 0.53193 0.058 0.0
C400 C 0.04359 0.41752 0.07082 0.0
C401 C 0.09689 0.39514 0.08979 0.0
C402 C 0.06782 0.38618 0.10445 0.0
C403 C 0.04138 0.39732 0.09503 0.0
C404 C 0.07232 0.42597 0.05562 0.0
C405 C 0.09874 0.41481 0.06496 0.0
C406 C 0.01672 0.43167 0.06317 0.0
C407 C 0.06993 0.53126 0.03685 0.0
H408 H 0.95086 0.60561 0.87995 0.0
H409 H 0.99981 0.59504 0.90083 0.0
H410 H 0.95932 0.59158 0.99139 0.0
H411 H 0.91112 0.6033 0.97094 0.0
H412 H 0.06558 0.37079 0.12342 0.0
H413 H 0.0194 0.3907 0.10709 0.0
H414 H 0.0745 0.44183 0.03704 0.0
H415 H 0.12083 0.42245 0.05345 0.0
H416 H 0.32053 0.19903 0.33857 0.0
H417 H 0.14762 0.14727 0.40456 0.0
H418 H 0.24467 0.24791 0.32603 0.0
H419 H 0.22201 0.096 0.41414 0.0
H420 H 0.18467 0.18737 0.38137 0.0
H421 H 0.28679 0.16435 0.372 0.0
C422 C 0.29694 0.20277 0.34328 0.0
C423 C 0.28528 0.22623 0.32929 0.0
C424 C 0.19298 0.16745 0.38874 0.0
C425 C 0.24642 0.1864 0.36712 0.0
C426 C 0.17185 0.14459 0.40218 0.0
C427 C 0.18166 0.11812 0.41115 0.0
C428 C 0.22419 0.16385 0.38413 0.0
C429 C 0.2133 0.1158 0.40708 0.0
C430 C 0.27762 0.18283 0.36218 0.0
C431 C 0.25443 0.22982 0.33594 0.0
N432 N 0.2334 0.13829 0.3937 0.0
N433 N 0.23601 0.20999 0.35418 0.0
H434 H 0.28558 0.79628 0.82068 0.0
H435 H 0.28745 0.93327 0.93381 0.0
H436 H 0.21402 0.85153 0.82474 0.0
H437 H 0.36395 0.8847 0.92135 0.0
H438 H 0.25441 0.89562 0.90351 0.0
H439 H 0.30815 0.82014 0.8671 0.0
C440 C 0.27432 0.81309 0.83165 0.0
C441 C 0.24829 0.82239 0.81851 0.0
C442 C 0.27828 0.89294 0.90785 0.0
C443 C 0.27402 0.84986 0.87147 0.0
C444 C 0.29718 0.91449 0.92503 0.0
C445 C 0.32869 0.91245 0.9296 0.0
C446 C 0.29103 0.86929 0.89503 0.0
C447 C 0.33984 0.88725 0.91836 0.0
C448 C 0.28717 0.82666 0.85816 0.0
C449 C 0.23419 0.84376 0.83401 0.0
N450 N 0.32117 0.86691 0.90119 0.0
N451 N 0.24757 0.85717 0.85939 0.0
H452 H 0.57997 0.41964 0.74166 0.0
H453 H 0.58573 0.44722 0.55954 0.0
H454 H 0.65054 0.39279 0.68284 0.0
H455 H 0.52967 0.49058 0.6213 0.0
H456 H 0.60719 0.42435 0.60351 0.0
H457 H 0.55875 0.44238 0.69761 0.0
C458 C 0.59102 0.4183 0.71957 0.0
C459 C 0.6174 0.40412 0.7165 0.0
C460 C 0.59023 0.4389 0.60749 0.0
C461 C 0.59276 0.43048 0.66515 0.0
C462 C 0.57787 0.45203 0.58225 0.0
C463 C 0.55575 0.47117 0.5863 0.0
C464 C 0.58028 0.44442 0.63739 0.0
C465 C 0.54668 0.47623 0.61666 0.0
C466 C 0.5789 0.43154 0.69429 0.0
C467 C 0.63054 0.40368 0.68687 0.0
N468 N 0.55875 0.46296 0.64072 0.0
N469 N 0.61812 0.4164 0.66263 0.0
H470 H 0.89287 0.57158 0.23118 0.0
H471 H 0.96516 0.5882 0.06089 0.0
H472 H 0.92073 0.65671 0.18757 0.0
H473 H 0.9638 0.5093 0.11523 0.0
H474 H 0.94372 0.6123 0.10467 0.0
H475 H 0.91354 0.54737 0.18712 0.0
C476 C 0.90323 0.58526 0.21237 0.0
C477 C 0.90499 0.61644 0.21348 0.0
C478 C 0.94802 0.58968 0.10701 0.0
C479 C 0.92871 0.58848 0.16227 0.0
C480 C 0.96015 0.57577 0.08187 0.0
C481 C 0.96643 0.54648 0.08405 0.0
C482 C 0.94153 0.57423 0.13472 0.0
C483 C 0.95951 0.53184 0.1122 0.0
C484 C 0.91519 0.57135 0.18717 0.0
C485 C 0.91904 0.63274 0.18819 0.0
N486 N 0.9474 0.54572 0.13617 0.0
N487 N 0.93007 0.61865 0.16375 0.0
H488 H 0.40738 0.21471 0.11274 0.0
H489 H 0.48995 0.07021 0.11787 0.0
H490 H 0.43321 0.17653 0.19657 0.0
H491 H 0.44665 0.09934 0.03788 0.0
H492 H 0.47334 0.11113 0.14675 0.0
H493 H 0.42644 0.17499 0.08436 0.0
C494 C 0.41732 0.19811 0.12516 0.0
C495 C 0.41865 0.19889 0.15706 0.0
C496 C 0.46746 0.10846 0.12288 0.0
C497 C 0.44023 0.15316 0.12477 0.0
C498 C 0.47692 0.08512 0.10639 0.0
C499 C 0.46958 0.08123 0.07543 0.0
C500 C 0.45081 0.12815 0.10821 0.0
C501 C 0.45273 0.10132 0.06172 0.0
C502 C 0.42798 0.1753 0.10897 0.0
C503 C 0.43141 0.17656 0.172 0.0
N504 N 0.44401 0.1239 0.07817 0.0
N505 N 0.44173 0.1546 0.15572 0.0
H506 H 0.083 0.86876 0.68243 0.0
H507 H 0.04704 0.92559 0.51751 0.0
H508 H 0.10653 0.82861 0.59785 0.0
H509 H 0.018 0.96543 0.60015 0.0
H510 H 0.06325 0.88631 0.54743 0.0
H511 H 0.05316 0.90029 0.65379 0.0
C512 C 0.08151 0.86622 0.65792 0.0
C513 C 0.0977 0.84623 0.64252 0.0
C514 C 0.0532 0.90349 0.55915 0.0
C515 C 0.06364 0.88221 0.6097 0.0
C516 C 0.04408 0.9261 0.54204 0.0
C517 C 0.03166 0.94915 0.55641 0.0
C518 C 0.0503 0.90396 0.59102 0.0
C519 C 0.02776 0.94822 0.58821 0.0
C520 C 0.06442 0.88419 0.64162 0.0
C521 C 0.0944 0.84351 0.61082 0.0
N522 N 0.03745 0.92616 0.60455 0.0
N523 N 0.07813 0.86156 0.5955 0.0
H524 H 0.78727 0.36602 0.92761 0.0
H525 H 0.92616 0.50673 0.94205 0.0
H526 H 0.7947 0.44404 0.87082 0.0
H527 H 0.91518 0.43157 1.00305 0.0
H528 H 0.87821 0.48442 0.91627 0.0
H529 H 0.83349 0.38954 0.95532 0.0
C530 C 0.79856 0.38806 0.92076 0.0
C531 C 0.7867 0.40275 0.89637 0.0
C532 C 0.88615 0.47278 0.93534 0.0
C533 C 0.84036 0.43026 0.92875 0.0
C534 C 0.91371 0.48555 0.9502 0.0
C535 C 0.92518 0.47115 0.97499 0.0
C536 C 0.86952 0.44509 0.94495 0.0
C537 C 0.90752 0.4437 0.98422 0.0
C538 C 0.82503 0.4016 0.93686 0.0
C539 C 0.80246 0.43168 0.88942 0.0
N540 N 0.88087 0.43162 0.9692 0.0
N541 N 0.82835 0.44427 0.90528 0.0
H542 H 0.73337 0.65823 0.42548 0.0
H543 H 0.60337 0.5113 0.44524 0.0
H544 H 0.73442 0.57729 0.37443 0.0
H545 H 0.60707 0.5884 0.5033 0.0
H546 H 0.65133 0.53508 0.41962 0.0
H547 H 0.68767 0.63337 0.45419 0.0
C548 C 0.72407 0.63524 0.42019 0.0
C549 C 0.73802 0.62005 0.39715 0.0
C550 C 0.64181 0.54683 0.43803 0.0
C551 C 0.68517 0.59116 0.43043 0.0
C552 C 0.61425 0.53323 0.45277 0.0
C553 C 0.60078 0.54777 0.47662 0.0
C554 C 0.65632 0.5755 0.44681 0.0
C555 C 0.61641 0.57618 0.48518 0.0
C556 C 0.69794 0.62097 0.43681 0.0
C557 C 0.7249 0.59002 0.392 0.0
N558 N 0.6431 0.58911 0.47023 0.0
N559 N 0.69927 0.57675 0.40826 0.0
H560 H 0.24492 0.3569 0.20501 0.0
H561 H 0.14489 0.37738 0.05691 0.0
H562 H 0.27317 0.33501 0.11423 0.0
H563 H 0.1143 0.39099 0.14906 0.0
H564 H 0.1928 0.36333 0.07683 0.0
H565 H 0.19802 0.37155 0.18424 0.0
C566 C 0.24145 0.3555 0.18062 0.0
C567 C 0.26315 0.34488 0.16132 0.0
C568 C 0.17554 0.36929 0.09267 0.0
C569 C 0.20901 0.36117 0.13735 0.0
C570 C 0.14825 0.37741 0.08132 0.0
C571 C 0.12549 0.3853 0.10136 0.0
C572 C 0.18021 0.36925 0.12428 0.0
C573 C 0.13095 0.38466 0.13278 0.0
C574 C 0.21447 0.36362 0.16879 0.0
C575 C 0.25697 0.34291 0.12997 0.0
N576 N 0.15775 0.37689 0.14323 0.0
N577 N 0.23048 0.35101 0.11894 0.0
H578 H 0.59458 0.20207 0.85089 0.0
H579 H 0.56241 0.11784 1.01172 0.0
H580 H 0.60769 0.24762 0.93744 0.0
H581 H 0.52295 0.07989 0.92789 0.0
H582 H 0.58339 0.16385 0.98436 0.0
H583 H 0.57212 0.15645 0.87782 0.0
C584 C 0.59263 0.20291 0.87546 0.0
C585 C 0.60341 0.22958 0.89147 0.0
C586 C 0.57016 0.1455 0.97188 0.0
C587 C 0.57804 0.17601 0.92293 0.0
C588 C 0.55819 0.11901 0.98752 0.0
C589 C 0.54071 0.09455 0.97229 0.0
C590 C 0.56521 0.14786 0.9404 0.0
C591 C 0.53613 0.09793 0.94081 0.0
C592 C 0.57989 0.17647 0.89091 0.0
C593 C 0.60056 0.22805 0.92361 0.0
N594 N 0.54837 0.12382 0.92601 0.0
N595 N 0.58844 0.20197 0.93805 0.0
H596 H 0.94621 0.81264 0.34669 0.0
H597 H 0.93232 0.92039 0.49059 0.0
H598 H 0.878 0.79133 0.41905 0.0
H599 H 0.99885 0.94256 0.41701 0.0
H600 H 0.91258 0.87309 0.46515 0.0
H601 H 0.96598 0.85972 0.37227 0.0
C602 C 0.9352 0.81774 0.36787 0.0
C603 C 0.91012 0.79753 0.38043 0.0
C604 C 0.93147 0.88829 0.4545 0.0
C605 C 0.93321 0.85208 0.41035 0.0
C606 C 0.94279 0.91547 0.46905 0.0
C607 C 0.96738 0.93588 0.45606 0.0
C608 C 0.94471 0.88108 0.42658 0.0
C609 C 0.97987 0.92782 0.42804 0.0
C610 C 0.94671 0.84475 0.38262 0.0
C611 C 0.89754 0.80568 0.40842 0.0
N612 N 0.96848 0.90123 0.41437 0.0
N613 N 0.90909 0.83213 0.42225 0.0
H614 H 0.24764 0.68193 0.60304 0.0
H615 H 0.41205 0.64264 0.65027 0.0
H616 H 0.28649 0.69692 0.6929 0.0
H617 H 0.36609 0.61089 0.56685 0.0
H618 H 0.3648 0.66049 0.66693 0.0
H619 H 0.28898 0.65333 0.58993 0.0
C620 C 0.26455 0.6788 0.62014 0.0
C621 C 0.26368 0.69198 0.64904 0.0
C622 C 0.36493 0.64941 0.64507 0.0
C623 C 0.31117 0.65966 0.63414 0.0
C624 C 0.39193 0.63908 0.63556 0.0
C625 C 0.39323 0.62533 0.60699 0.0
C626 C 0.339 0.64631 0.6258 0.0
C627 C 0.36646 0.62189 0.58877 0.0
C628 C 0.28811 0.66247 0.61267 0.0
C629 C 0.28602 0.68698 0.67043 0.0
N630 N 0.34054 0.63252 0.59838 0.0
N631 N 0.30905 0.67159 0.66241 0.0
H632 H 0.78929 0.82152 0.74806 0.0
H633 H 0.84679 0.9808 0.6715 0.0
H634 H 0.7798 0.90523 0.79058 0.0
H635 H 0.86055 0.8979 0.62983 0.0
H636 H 0.82003 0.95308 0.71426 0.0
H637 H 0.81373 0.84873 0.70369 0.0
C638 C 0.79238 0.84562 0.74808 0.0
C639 C 0.7825 0.86113 0.7731 0.0
C640 C 0.82881 0.94089 0.69575 0.0
C641 C 0.81022 0.89236 0.72232 0.0
C642 C 0.84392 0.95671 0.67121 0.0
C643 C 0.85582 0.94163 0.64698 0.0
C644 C 0.82554 0.90971 0.69617 0.0
C645 C 0.85198 0.91043 0.64816 0.0
C646 C 0.8062 0.86112 0.72269 0.0
C647 C 0.78666 0.89232 0.77167 0.0
N648 N 0.83715 0.89548 0.67236 0.0
N649 N 0.80027 0.9069 0.74677 0.0
H650 H 0.80483 0.22314 0.17367 0.0
H651 H 0.63283 0.12664 0.16867 0.0
H652 H 0.74213 0.20922 0.25126 0.0
H653 H 0.70227 0.12397 0.09795 0.0
H654 H 0.66995 0.16338 0.1961 0.0
H655 H 0.7648 0.19301 0.14253 0.0
C656 C 0.78254 0.21395 0.18403 0.0
C657 C 0.77684 0.21836 0.2151 0.0
C658 C 0.67701 0.15488 0.17449 0.0
C659 C 0.73111 0.18404 0.1798 0.0
C660 C 0.65577 0.13408 0.15874 0.0
C661 C 0.66458 0.12212 0.13112 0.0
C662 C 0.70724 0.16391 0.16245 0.0
C663 C 0.69471 0.13232 0.11942 0.0
C664 C 0.7598 0.19668 0.16634 0.0
C665 C 0.74763 0.20591 0.22749 0.0
N666 N 0.71501 0.15258 0.1352 0.0
N667 N 0.72589 0.18927 0.20983 0.0
H668 H 0.41991 0.65433 0.33481 0.0
H669 H 0.4543 0.50319 0.41435 0.0
H670 H 0.39867 0.56781 0.2924 0.0
H671 H 0.47837 0.59034 0.45468 0.0
H672 H 0.43277 0.52595 0.37041 0.0
H673 H 0.44039 0.63122 0.3788 0.0
C674 C 0.41956 0.63052 0.33443 0.0
C675 C 0.40724 0.61334 0.30917 0.0
C676 C 0.4427 0.54014 0.38888 0.0
C677 C 0.43083 0.58622 0.36071 0.0
C678 C 0.45503 0.52707 0.41418 0.0
C679 C 0.46838 0.54463 0.43872 0.0
C680 C 0.44349 0.57121 0.3877 0.0
C681 C 0.46847 0.57561 0.43662 0.0
C682 C 0.43121 0.61722 0.35991 0.0
C683 C 0.40727 0.58232 0.31108 0.0
N684 N 0.45637 0.58773 0.41183 0.0
N685 N 0.41879 0.56996 0.33608 0.0
H686 H 0.1104 0.36123 0.83759 0.0
H687 H 0.07176 0.51219 0.9142 0.0
H688 H 0.11811 0.44384 0.78792 0.0
H689 H 0.04873 0.42557 0.95587 0.0
H690 H 0.09229 0.48888 0.86935 0.0
H691 H 0.09098 0.38536 0.88178 0.0
C692 C 0.1078 0.38435 0.83559 0.0
C693 C 0.11584 0.40011 0.80821 0.0
C694 C 0.08282 0.47497 0.88834 0.0
C695 C 0.09395 0.42854 0.86015 0.0
C696 C 0.07117 0.48832 0.91413 0.0
C697 C 0.05837 0.47098 0.93919 0.0
C698 C 0.08204 0.44393 0.88742 0.0
C699 C 0.05822 0.44004 0.93732 0.0
C700 C 0.09685 0.39827 0.86122 0.0
C701 C 0.11263 0.4305 0.80821 0.0
N702 N 0.06982 0.42766 0.91213 0.0
N703 N 0.10203 0.44358 0.83357 0.0
H704 H 0.59774 0.8155 0.96646 0.0
H705 H 0.507 0.94933 0.93123 0.0
H706 H 0.60679 0.85765 0.87809 0.0
H707 H 0.55738 0.94067 1.01387 0.0
H708 H 0.52642 0.9052 0.91039 0.0
H709 H 0.56307 0.84985 0.98267 0.0
C710 C 0.59191 0.83152 0.95025 0.0
C711 C 0.60591 0.83429 0.92117 0.0
C712 C 0.53286 0.91299 0.93314 0.0
C713 C 0.56598 0.87314 0.93946 0.0
C714 C 0.52197 0.93803 0.94493 0.0
C715 C 0.5312 0.94874 0.97398 0.0
C716 C 0.55195 0.89824 0.95116 0.0
C717 C 0.55031 0.93337 0.99111 0.0
C718 C 0.57213 0.85102 0.95951 0.0
C719 C 0.59673 0.85488 0.9008 0.0
N720 N 0.55994 0.90879 0.97951 0.0
N721 N 0.57768 0.87396 0.9105 0.0
H722 H 0.97389 0.20057 0.34158 0.0
H723 H 0.9297 0.06909 0.4624 0.0
H724 H 0.89257 0.19131 0.40052 0.0
H725 H 0.02283 0.09369 0.42478 0.0
H726 H 0.91371 0.11044 0.43504 0.0
H727 H 0.99058 0.15844 0.36767 0.0
C728 C 0.95963 0.1897 0.36006 0.0
C729 C 0.9319 0.19948 0.36904 0.0
C730 C 0.93763 0.10676 0.43274 0.0
C731 C 0.95059 0.15127 0.39864 0.0
C732 C 0.94676 0.08303 0.44821 0.0
C733 C 0.9777 0.07793 0.44594 0.0
C734 C 0.95949 0.12543 0.41462 0.0
C735 C 0.99876 0.09685 0.42726 0.0
C736 C 0.96918 0.16576 0.37495 0.0
C737 C 0.91431 0.18473 0.39316 0.0
N738 N 0.98926 0.11978 0.41227 0.0
N739 N 0.92386 0.16126 0.407 0.0
H740 H 0.22028 0.64958 0.1303 0.0
H741 H 0.1153 0.50203 0.06071 0.0
H742 H 0.25069 0.56424 0.12625 0.0
H743 H 0.09334 0.59025 0.04961 0.0
H744 H 0.16316 0.52373 0.0874 0.0
H745 H 0.17207 0.62771 0.10424 0.0
C746 C 0.21684 0.6262 0.12422 0.0
C747 C 0.24004 0.60894 0.13061 0.0
C748 C 0.14793 0.53838 0.07908 0.0
C749 C 0.1843 0.58351 0.10033 0.0
C750 C 0.12046 0.52596 0.06375 0.0
C751 C 0.09995 0.54419 0.05256 0.0
C752 C 0.15515 0.5694 0.08376 0.0
C753 C 0.10825 0.57513 0.05753 0.0
C754 C 0.18927 0.61373 0.10907 0.0
C755 C 0.23395 0.57873 0.12162 0.0
N756 N 0.13491 0.58662 0.07273 0.0
N757 N 0.20689 0.5671 0.10715 0.0
H758 H 0.27364 0.44739 0.63195 0.0
H759 H 0.43175 0.42546 0.5432 0.0
H760 H 0.30745 0.36382 0.62475 0.0
H761 H 0.40836 0.51229 0.56146 0.0
H762 H 0.38386 0.40272 0.56944 0.0
H763 H 0.31988 0.47146 0.60288 0.0
C764 C 0.29059 0.43402 0.62413 0.0
C765 C 0.28651 0.40344 0.63117 0.0
C766 C 0.38905 0.42676 0.5677 0.0
C767 C 0.33975 0.431 0.5977 0.0
C768 C 0.41652 0.43986 0.55254 0.0
C769 C 0.42445 0.47101 0.54994 0.0
C770 C 0.36884 0.44471 0.58049 0.0
C771 C 0.40342 0.48823 0.56277 0.0
C772 C 0.31713 0.44785 0.60766 0.0
C773 C 0.3096 0.38747 0.62047 0.0
N774 N 0.37671 0.4749 0.57744 0.0
N775 N 0.33497 0.40134 0.60439 0.0
H776 H 0.79186 0.69482 0.84113 0.0
H777 H 0.86726 0.58116 0.94213 0.0
H778 H 0.74957 0.65464 0.92376 0.0
H779 H 0.91798 0.64241 0.87693 0.0
H780 H 0.81865 0.59641 0.926 0.0
H781 H 0.83149 0.66281 0.8437 0.0
C782 C 0.79025 0.67855 0.85927 0.0
C783 C 0.76767 0.6777 0.88257 0.0
C784 C 0.84041 0.60616 0.91497 0.0
C785 C 0.81341 0.64158 0.88598 0.0
C786 C 0.86821 0.5977 0.92432 0.0
C787 C 0.89691 0.61106 0.91139 0.0
C788 C 0.84125 0.62798 0.89238 0.0
C789 C 0.89651 0.63155 0.88764 0.0
C790 C 0.81313 0.66052 0.86089 0.0
C791 C 0.76695 0.65636 0.90566 0.0
N792 N 0.86916 0.63963 0.87916 0.0
N793 N 0.78986 0.63945 0.90708 0.0
H794 H 0.4505 0.80641 0.16756 0.0
H795 H 0.41785 0.9308 0.04704 0.0
H796 H 0.37047 0.79364 0.10868 0.0
H797 H 0.505 0.934 0.09393 0.0
H798 H 0.39821 0.88273 0.07173 0.0
H799 H 0.46867 0.85447 0.14335 0.0
C800 C 0.43665 0.81337 0.14947 0.0
C801 C 0.40873 0.79508 0.14035 0.0
C802 C 0.42161 0.89398 0.07669 0.0
C803 C 0.42963 0.85159 0.11248 0.0
C804 C 0.43287 0.92162 0.06262 0.0
C805 C 0.46328 0.93692 0.06826 0.0
C806 C 0.44063 0.88131 0.09695 0.0
C807 C 0.48147 0.92336 0.08866 0.0
C808 C 0.4471 0.8412 0.13569 0.0
C809 C 0.39186 0.80656 0.1171 0.0
N810 N 0.46992 0.89667 0.10217 0.0
N811 N 0.4025 0.83379 0.10412 0.0
H812 H 0.0634 0.23768 0.62578 0.0
H813 H 0.09459 0.08602 0.5446 0.0
H814 H 0.15346 0.20941 0.62333 0.0
H815 H 1.00265 0.10834 0.5577 0.0
H816 H 0.1168 0.13205 0.57123 0.0
H817 H 0.04116 0.19168 0.59936 0.0
C818 C 0.07862 0.22192 0.61991 0.0
C819 C 0.11064 0.22803 0.62703 0.0
C820 C 0.09175 0.12689 0.56833 0.0
C821 C 0.08497 0.17479 0.59596 0.0
C822 C 0.07899 0.10049 0.55305 0.0
C823 C 0.04653 0.09292 0.54881 0.0
C824 C 0.0721 0.14628 0.57948 0.0
C825 C 0.02774 0.11294 0.56036 0.0
C826 C 0.06581 0.19557 0.60456 0.0
C827 C 0.12887 0.20645 0.61805 0.0
N828 N 0.04072 0.13851 0.575 0.0
N829 N 0.11587 0.18108 0.60311 0.0
H830 H 0.73423 0.29315 0.36391 0.0
H831 H 0.65936 0.43105 0.42572 0.0
H832 H 0.78753 0.3809 0.37833 0.0
H833 H 0.60881 0.34103 0.42148 0.0
H834 H 0.70643 0.41318 0.40813 0.0
H835 H 0.68808 0.31028 0.38485 0.0
C836 C 0.73636 0.31595 0.37181 0.0
C837 C 0.76492 0.33559 0.36941 0.0
C838 C 0.68508 0.39731 0.41113 0.0
C839 C 0.71183 0.35553 0.39291 0.0
C840 C 0.65818 0.40747 0.42134 0.0
C841 C 0.63002 0.38751 0.42517 0.0
C842 C 0.68387 0.36696 0.40453 0.0
C843 C 0.62985 0.3573 0.4185 0.0
C844 C 0.70989 0.32577 0.38358 0.0
C845 C 0.76597 0.36506 0.3794 0.0
N846 N 0.65634 0.34797 0.40848 0.0
N847 N 0.7398 0.37415 0.39064 0.0
loop_
_geom_bond_atom_site_label_1
_geom_bond_atom_site_label_2
_geom_bond_distance
_geom_bond_site_symmetry_2
_ccdc_geom_bond_type
P0 O11 1.490 . S
P0 C14 1.812 . S
P0 C20 1.803 . S
P0 C26 1.819 . S
H1 C15 0.941 . S
H2 C16 0.939 . S
H3 C18 0.940 . S
H4 C19 0.940 . S
H5 C21 0.939 . S
H6 C22 0.942 . S
H7 C24 0.940 . S
H8 C25 0.939 . S
H9 C27 0.941 . S
H10 C31 0.939 . S
O11 P0 1.490 . S
H12 C28 0.939 . S
H13 C30 0.940 . S
C14 P0 1.812 . S
C14 C15 1.389 . S
C14 C19 1.391 . S
C15 H1 0.941 . S
C15 C14 1.389 . S
C15 C16 1.397 . S
C16 H2 0.939 . S
C16 C15 1.397 . S
C16 C17 1.378 . S
C17 C16 1.378 . S
C17 C18 1.378 . S
C18 H3 0.940 . S
C18 C17 1.378 . S
C18 C19 1.396 . S
C19 H4 0.940 . S
C19 C14 1.391 . S
C19 C18 1.396 . S
C20 P0 1.803 . S
C20 C21 1.378 . S
C20 C25 1.400 . S
C21 H5 0.939 . S
C21 C20 1.378 . S
C21 C22 1.361 . S
C22 H6 0.942 . S
C22 C21 1.361 . S
C22 C23 1.369 . S
C23 C22 1.369 . S
C23 C24 1.404 . S
C24 H7 0.940 . S
C24 C23 1.404 . S
C24 C25 1.389 . S
C25 H8 0.939 . S
C25 C20 1.400 . S
C25 C24 1.389 . S
C26 P0 1.819 . S
C26 C27 1.391 . S
C26 C31 1.391 . S
C27 H9 0.941 . S
C27 C26 1.391 . S
C27 C28 1.396 . S
C28 H12 0.939 . S
C28 C27 1.396 . S
C28 C29 1.397 . S
C29 C28 1.397 . S
C29 C30 1.385 . S
C30 H13 0.940 . S
C30 C29 1.385 . S
C30 C31 1.388 . S
C31 H10 0.939 . S
C31 C26 1.391 . S
C31 C30 1.388 . S
P32 O43 1.490 . S
P32 C46 1.812 . S
P32 C52 1.803 . S
P32 C58 1.819 . S
H33 C47 0.941 . S
H34 C48 0.939 . S
H35 C50 0.940 . S
H36 C51 0.940 . S
H37 C53 0.939 . S
H38 C54 0.942 . S
H39 C56 0.940 . S
H40 C57 0.939 . S
H41 C59 0.941 . S
H42 C63 0.939 . S
O43 P32 1.490 . S
H44 C60 0.939 . S
H45 C62 0.940 . S
C46 P32 1.812 . S
C46 C47 1.389 . S
C46 C51 1.391 . S
C47 H33 0.941 . S
C47 C46 1.389 . S
C47 C48 1.397 . S
C48 H34 0.939 . S
C48 C47 1.397 . S
C48 C49 1.378 . S
C49 C48 1.378 . S
C49 C50 1.378 . S
C50 H35 0.940 . S
C50 C49 1.378 . S
C50 C51 1.396 . S
C51 H36 0.940 . S
C51 C46 1.391 . S
C51 C50 1.396 . S
C52 P32 1.803 . S
C52 C53 1.378 . S
C52 C57 1.400 . S
C53 H37 0.939 . S
C53 C52 1.378 . S
C53 C54 1.361 . S
C54 H38 0.942 . S
C54 C53 1.361 . S
C54 C55 1.369 . S
C55 C54 1.369 . S
C55 C56 1.404 . S
C56 H39 0.940 . S
C56 C55 1.404 . S
C56 C57 1.389 . S
C57 H40 0.939 . S
C57 C52 1.400 . S
C57 C56 1.389 . S
C58 P32 1.819 . S
C58 C59 1.391 . S
C58 C63 1.391 . S
C59 H41 0.941 . S
C59 C58 1.391 . S
C59 C60 1.396 . S
C60 H44 0.939 . S
C60 C59 1.396 . S
C60 C61 1.397 . S
C61 C60 1.397 . S
C61 C62 1.385 . S
C62 H45 0.940 . S
C62 C61 1.385 . S
C62 C63 1.388 . S
C63 H42 0.939 . S
C63 C58 1.391 . S
C63 C62 1.388 . S
P64 O75 1.490 . S
P64 C78 1.812 . S
P64 C84 1.803 . S
P64 C90 1.819 . S
H65 C79 0.941 . S
H66 C80 0.939 . S
H67 C82 0.940 . S
H68 C83 0.940 . S
H69 C85 0.939 . S
H70 C86 0.942 . S
H71 C88 0.940 . S
H72 C89 0.939 . S
H73 C91 0.941 . S
H74 C95 0.939 . S
O75 P64 1.490 . S
H76 C92 0.939 . S
H77 C94 0.940 . S
C78 P64 1.812 . S
C78 C79 1.389 . S
C78 C83 1.391 . S
C79 H65 0.941 . S
C79 C78 1.389 . S
C79 C80 1.397 . S
C80 H66 0.939 . S
C80 C79 1.397 . S
C80 C81 1.378 . S
C81 C80 1.378 . S
C81 C82 1.378 . S
C82 H67 0.940 . S
C82 C81 1.378 . S
C82 C83 1.396 . S
C83 H68 0.940 . S
C83 C78 1.391 . S
C83 C82 1.396 . S
C84 P64 1.803 . S
C84 C85 1.378 . S
C84 C89 1.400 . S
C85 H69 0.939 . S
C85 C84 1.378 . S
C85 C86 1.361 . S
C86 H70 0.942 . S
C86 C85 1.361 . S
C86 C87 1.369 . S
C87 C86 1.369 . S
C87 C88 1.404 . S
C88 H71 0.940 . S
C88 C87 1.404 . S
C88 C89 1.389 . S
C89 H72 0.939 . S
C89 C84 1.400 . S
C89 C88 1.389 . S
C90 P64 1.819 . S
C90 C91 1.391 . S
C90 C95 1.391 . S
C91 H73 0.941 . S
C91 C90 1.391 . S
C91 C92 1.396 . S
C92 H76 0.939 . S
C92 C91 1.396 . S
C92 C93 1.397 . S
C93 C92 1.397 . S
C93 C94 1.385 . S
C94 H77 0.940 . S
C94 C93 1.385 . S
C94 C95 1.388 . S
C95 H74 0.939 . S
C95 C90 1.391 . S
C95 C94 1.388 . S
P96 O107 1.490 . S
P96 C110 1.812 . S
P96 C116 1.803 . S
P96 C122 1.819 . S
H97 C111 0.941 . S
H98 C112 0.939 . S
H99 C114 0.940 . S
H100 C115 0.940 . S
H101 C117 0.939 . S
H102 C118 0.942 . S
H103 C120 0.940 . S
H104 C121 0.939 . S
H105 C123 0.941 . S
H106 C127 0.939 . S
O107 P96 1.490 . S
H108 C124 0.939 . S
H109 C126 0.940 . S
C110 P96 1.812 . S
C110 C111 1.389 . S
C110 C115 1.391 . S
C111 H97 0.941 . S
C111 C110 1.389 . S
C111 C112 1.397 . S
C112 H98 0.939 . S
C112 C111 1.397 . S
C112 C113 1.378 . S
C113 C112 1.378 . S
C113 C114 1.378 . S
C114 H99 0.940 . S
C114 C113 1.378 . S
C114 C115 1.396 . S
C115 H100 0.940 . S
C115 C110 1.391 . S
C115 C114 1.396 . S
C116 P96 1.803 . S
C116 C117 1.378 . S
C116 C121 1.400 . S
C117 H101 0.939 . S
C117 C116 1.378 . S
C117 C118 1.361 . S
C118 H102 0.942 . S
C118 C117 1.361 . S
C118 C119 1.369 . S
C119 C118 1.369 . S
C119 C120 1.404 . S
C120 H103 0.940 . S
C120 C119 1.404 . S
C120 C121 1.389 . S
C121 H104 0.939 . S
C121 C116 1.400 . S
C121 C120 1.389 . S
C122 P96 1.819 . S
C122 C123 1.391 . S
C122 C127 1.391 . S
C123 H105 0.941 . S
C123 C122 1.391 . S
C123 C124 1.396 . S
C124 H108 0.939 . S
C124 C123 1.396 . S
C124 C125 1.397 . S
C125 C124 1.397 . S
C125 C126 1.385 . S
C126 H109 0.940 . S
C126 C125 1.385 . S
C126 C127 1.388 . S
C127 H106 0.939 . S
C127 C122 1.391 . S
C127 C126 1.388 . S
P128 O139 1.490 . S
P128 C142 1.812 . S
P128 C148 1.803 . S
P128 C154 1.819 . S
H129 C143 0.941 . S
H130 C144 0.939 . S
H131 C146 0.940 . S
H132 C147 0.940 . S
H133 C149 0.939 . S
H134 C150 0.942 . S
H135 C152 0.940 . S
H136 C153 0.939 . S
H137 C155 0.941 . S
H138 C159 0.939 . S
O139 P128 1.490 . S
H140 C156 0.939 . S
H141 C158 0.940 . S
C142 P128 1.812 . S
C142 C143 1.389 . S
C142 C147 1.391 . S
C143 H129 0.941 . S
C143 C142 1.389 . S
C143 C144 1.397 . S
C144 H130 0.939 . S
C144 C143 1.397 . S
C144 C145 1.378 . S
C145 C144 1.378 . S
C145 C146 1.378 . S
C146 H131 0.940 . S
C146 C145 1.378 . S
C146 C147 1.396 . S
C147 H132 0.940 . S
C147 C142 1.391 . S
C147 C146 1.396 . S
C148 P128 1.803 . S
C148 C149 1.378 . S
C148 C153 1.400 . S
C149 H133 0.939 . S
C149 C148 1.378 . S
C149 C150 1.361 . S
C150 H134 0.942 . S
C150 C149 1.361 . S
C150 C151 1.369 . S
C151 C150 1.369 . S
C151 C152 1.404 . S
C152 H135 0.940 . S
C152 C151 1.404 . S
C152 C153 1.389 . S
C153 H136 0.939 . S
C153 C148 1.400 . S
C153 C152 1.389 . S
C154 P128 1.819 . S
C154 C155 1.391 . S
C154 C159 1.391 . S
C155 H137 0.941 . S
C155 C154 1.391 . S
C155 C156 1.396 . S
C156 H140 0.939 . S
C156 C155 1.396 . S
C156 C157 1.397 . S
C157 C156 1.397 . S
C157 C158 1.385 . S
C158 H141 0.940 . S
C158 C157 1.385 . S
C158 C159 1.388 . S
C159 H138 0.939 . S
C159 C154 1.391 . S
C159 C158 1.388 . S
P160 O171 1.490 . S
P160 C174 1.812 . S
P160 C180 1.803 . S
P160 C186 1.819 . S
H161 C175 0.941 . S
H162 C176 0.939 . S
H163 C178 0.940 . S
H164 C179 0.940 . S
H165 C181 0.939 . S
H166 C182 0.942 . S
H167 C184 0.940 . S
H168 C185 0.939 . S
H169 C187 0.941 . S
H170 C191 0.939 . S
O171 P160 1.490 . S
H172 C188 0.939 . S
H173 C190 0.940 . S
C174 P160 1.812 . S
C174 C175 1.389 . S
C174 C179 1.391 . S
C175 H161 0.941 . S
C175 C174 1.389 . S
C175 C176 1.397 . S
C176 H162 0.939 . S
C176 C175 1.397 . S
C176 C177 1.378 . S
C177 C176 1.378 . S
C177 C178 1.378 . S
C178 H163 0.940 . S
C178 C177 1.378 . S
C178 C179 1.396 . S
C179 H164 0.940 . S
C179 C174 1.391 . S
C179 C178 1.396 . S
C180 P160 1.803 . S
C180 C181 1.378 . S
C180 C185 1.400 . S
C181 H165 0.939 . S
C181 C180 1.378 . S
C181 C182 1.361 . S
C182 H166 0.942 . S
C182 C181 1.361 . S
C182 C183 1.369 . S
C183 C182 1.369 . S
C183 C184 1.404 . S
C184 H167 0.940 . S
C184 C183 1.404 . S
C184 C185 1.389 . S
C185 H168 0.939 . S
C185 C180 1.400 . S
C185 C184 1.389 . S
C186 P160 1.819 . S
C186 C187 1.391 . S
C186 C191 1.391 . S
C187 H169 0.941 . S
C187 C186 1.391 . S
C187 C188 1.396 . S
C188 H172 0.939 . S
C188 C187 1.396 . S
C188 C189 1.397 . S
C189 C188 1.397 . S
C189 C190 1.385 . S
C190 H173 0.940 . S
C190 C189 1.385 . S
C190 C191 1.388 . S
C191 H170 0.939 . S
C191 C186 1.391 . S
C191 C190 1.388 . S
P192 O203 1.490 . S
P192 C206 1.812 . S
P192 C212 1.803 . S
P192 C218 1.819 . S
H193 C207 0.941 . S
H194 C208 0.939 . S
H195 C210 0.940 . S
H196 C211 0.940 . S
H197 C213 0.939 . S
H198 C214 0.942 . S
H199 C216 0.940 . S
H200 C217 0.939 . S
H201 C219 0.941 . S
H202 C223 0.939 . S
O203 P192 1.490 . S
H204 C220 0.939 . S
H205 C222 0.940 . S
C206 P192 1.812 . S
C206 C207 1.389 . S
C206 C211 1.391 . S
C207 H193 0.941 . S
C207 C206 1.389 . S
C207 C208 1.397 . S
C208 H194 0.939 . S
C208 C207 1.397 . S
C208 C209 1.378 . S
C209 C208 1.378 . S
C209 C210 1.378 . S
C210 H195 0.940 . S
C210 C209 1.378 . S
C210 C211 1.396 . S
C211 H196 0.940 . S
C211 C206 1.391 . S
C211 C210 1.396 . S
C212 P192 1.803 . S
C212 C213 1.378 . S
C212 C217 1.400 . S
C213 H197 0.939 . S
C213 C212 1.378 . S
C213 C214 1.361 . S
C214 H198 0.942 . S
C214 C213 1.361 . S
C214 C215 1.369 . S
C215 C214 1.369 . S
C215 C216 1.404 . S
C216 H199 0.940 . S
C216 C215 1.404 . S
C216 C217 1.389 . S
C217 H200 0.939 . S
C217 C212 1.400 . S
C217 C216 1.389 . S
C218 P192 1.819 . S
C218 C219 1.391 . S
C218 C223 1.391 . S
C219 H201 0.941 . S
C219 C218 1.391 . S
C219 C220 1.396 . S
C220 H204 0.939 . S
C220 C219 1.396 . S
C220 C221 1.397 . S
C221 C220 1.397 . S
C221 C222 1.385 . S
C222 H205 0.940 . S
C222 C221 1.385 . S
C222 C223 1.388 . S
C223 H202 0.939 . S
C223 C218 1.391 . S
C223 C222 1.388 . S
P224 O235 1.490 . S
P224 C238 1.812 . S
P224 C244 1.803 . S
P224 C250 1.819 . S
H225 C239 0.941 . S
H226 C240 0.939 . S
H227 C242 0.940 . S
H228 C243 0.940 . S
H229 C245 0.939 . S
H230 C246 0.942 . S
H231 C248 0.940 . S
H232 C249 0.939 . S
H233 C251 0.941 . S
H234 C255 0.939 . S
O235 P224 1.490 . S
H236 C252 0.939 . S
H237 C254 0.940 . S
C238 P224 1.812 . S
C238 C239 1.389 . S
C238 C243 1.391 . S
C239 H225 0.941 . S
C239 C238 1.389 . S
C239 C240 1.397 . S
C240 H226 0.939 . S
C240 C239 1.397 . S
C240 C241 1.378 . S
C241 C240 1.378 . S
C241 C242 1.378 . S
C242 H227 0.940 . S
C242 C241 1.378 . S
C242 C243 1.396 . S
C243 H228 0.940 . S
C243 C238 1.391 . S
C243 C242 1.396 . S
C244 P224 1.803 . S
C244 C245 1.378 . S
C244 C249 1.400 . S
C245 H229 0.939 . S
C245 C244 1.378 . S
C245 C246 1.361 . S
C246 H230 0.942 . S
C246 C245 1.361 . S
C246 C247 1.369 . S
C247 C246 1.369 . S
C247 C248 1.404 . S
C248 H231 0.940 . S
C248 C247 1.404 . S
C248 C249 1.389 . S
C249 H232 0.939 . S
C249 C244 1.400 . S
C249 C248 1.389 . S
C250 P224 1.819 . S
C250 C251 1.391 . S
C250 C255 1.391 . S
C251 H233 0.941 . S
C251 C250 1.391 . S
C251 C252 1.396 . S
C252 H236 0.939 . S
C252 C251 1.396 . S
C252 C253 1.397 . S
C253 C252 1.397 . S
C253 C254 1.385 . S
C254 H237 0.940 . S
C254 C253 1.385 . S
C254 C255 1.388 . S
C255 H234 0.939 . S
C255 C250 1.391 . S
C255 C254 1.388 . S
Tb256 C265 2.764 . S
Tb256 O266 2.325 1_455 S
Tb256 O269 2.303 . S
Tb256 O273 2.322 1_545 S
Tb256 O274 2.349 1_545 S
Tb256 O277 2.415 . S
Tb256 O278 2.399 . S
Tb257 O267 2.322 1_565 S
Tb257 O268 2.349 1_565 S
Tb257 O270 2.416 . S
Tb257 O271 2.399 . S
Tb257 O272 2.325 1_655 S
Tb257 O275 2.304 . S
Tb257 C286 2.764 . S
C258 O274 1.261 1_655 S
C258 O275 1.257 . S
C259 C262 1.358 . S
C259 C263 1.332 . S
C259 C265 1.504 . S
C260 C261 1.373 . S
C260 C264 1.308 . S
C261 C260 1.373 . S
C261 C262 1.429 . S
C261 H288 0.932 . S
C262 C259 1.358 . S
C262 C261 1.429 . S
C262 H289 0.930 . S
C263 C259 1.332 . S
C263 C264 1.394 . S
C263 H290 0.932 . S
C264 C260 1.308 . S
C264 C263 1.394 . S
C264 H291 0.929 . S
C265 Tb256 2.764 . S
C265 C259 1.504 . S
C265 O277 1.239 . S
C265 O278 1.263 . S
O266 Tb256 2.325 1_655 S
O266 C276 1.236 . S
O267 Tb257 2.322 1_545 S
O267 C276 1.257 . S
O268 Tb257 2.349 1_545 S
O268 C279 1.261 1_655 S
O269 Tb256 2.303 . S
O269 C279 1.257 . S
O270 Tb257 2.416 . S
O270 C286 1.239 . S
O271 Tb257 2.399 . S
O271 C286 1.263 . S
O272 Tb257 2.325 1_455 S
O272 C287 1.236 . S
O273 Tb256 2.322 1_565 S
O273 C287 1.257 . S
O274 Tb256 2.349 1_565 S
O274 C258 1.261 1_455 S
O275 Tb257 2.304 . S
O275 C258 1.257 . S
C276 O266 1.236 . S
C276 O267 1.257 . S
O277 Tb256 2.415 . S
O277 C265 1.239 . S
O278 Tb256 2.399 . S
O278 C265 1.263 . S
C279 O268 1.261 1_455 S
C279 O269 1.257 . S
C280 C283 1.358 . S
C280 C284 1.332 . S
C280 C286 1.504 . S
C281 C282 1.373 . S
C281 C285 1.308 . S
C282 C281 1.373 . S
C282 C283 1.429 . S
C282 H292 0.932 . S
C283 C280 1.358 . S
C283 C282 1.429 . S
C283 H293 0.930 . S
C284 C280 1.332 . S
C284 C285 1.394 . S
C284 H294 0.932 . S
C285 C281 1.308 . S
C285 C284 1.394 . S
C285 H295 0.929 . S
C286 Tb257 2.764 . S
C286 O270 1.239 . S
C286 O271 1.263 . S
C286 C280 1.504 . S
C287 O272 1.236 . S
C287 O273 1.257 . S
H288 C261 0.932 . S
H289 C262 0.930 . S
H290 C263 0.932 . S
H291 C264 0.929 . S
H292 C282 0.932 . S
H293 C283 0.930 . S
H294 C284 0.932 . S
H295 C285 0.929 . S
Tb296 C305 2.764 . S
Tb296 O306 2.325 . S
Tb296 O309 2.303 . S
Tb296 O313 2.322 1_545 S
Tb296 O314 2.349 1_545 S
Tb296 O317 2.415 . S
Tb296 O318 2.399 . S
Tb297 O307 2.322 . S
Tb297 O308 2.349 1_556 S
Tb297 O310 2.415 1_545 S
Tb297 O311 2.399 1_545 S
Tb297 O312 2.325 1_546 S
Tb297 O315 2.303 1_545 S
Tb297 C326 2.764 1_545 S
C298 O314 1.261 1_556 S
C298 O315 1.257 . S
C299 C302 1.358 . S
C299 C303 1.332 . S
C299 C305 1.504 . S
C300 C301 1.373 . S
C300 C304 1.308 . S
C301 C300 1.373 . S
C301 C302 1.429 . S
C301 H328 0.932 . S
C302 C299 1.358 . S
C302 C301 1.429 . S
C302 H329 0.930 . S
C303 C299 1.332 . S
C303 C304 1.394 . S
C303 H330 0.932 . S
C304 C300 1.308 . S
C304 C303 1.394 . S
C304 H331 0.929 . S
C305 Tb296 2.764 . S
C305 C299 1.504 . S
C305 O317 1.239 . S
C305 O318 1.263 . S
O306 Tb296 2.325 . S
O306 C316 1.236 1_554 S
O307 Tb297 2.322 . S
O307 C316 1.257 . S
O308 Tb297 2.349 1_554 S
O308 C319 1.261 . S
O309 Tb296 2.303 . S
O309 C319 1.257 . S
O310 Tb297 2.415 1_565 S
O310 C326 1.239 . S
O311 Tb297 2.399 1_565 S
O311 C326 1.263 . S
O312 Tb297 2.325 1_564 S
O312 C327 1.236 . S
O313 Tb296 2.322 1_565 S
O313 C327 1.257 . S
O314 Tb296 2.349 1_565 S
O314 C298 1.261 1_554 S
O315 Tb297 2.303 1_565 S
O315 C298 1.257 . S
C316 O306 1.236 1_556 S
C316 O307 1.257 . S
O317 Tb296 2.415 . S
O317 C305 1.239 . S
O318 Tb296 2.399 . S
O318 C305 1.263 . S
C319 O308 1.261 . S
C319 O309 1.257 . S
C320 C323 1.358 . S
C320 C324 1.332 . S
C320 C326 1.504 . S
C321 C322 1.373 . S
C321 C325 1.308 . S
C322 C321 1.373 . S
C322 C323 1.429 . S
C322 H332 0.932 . S
C323 C320 1.358 . S
C323 C322 1.429 . S
C323 H333 0.930 . S
C324 C320 1.332 . S
C324 C325 1.394 . S
C324 H334 0.932 . S
C325 C321 1.308 . S
C325 C324 1.394 . S
C325 H335 0.929 . S
C326 Tb297 2.764 1_565 S
C326 O310 1.239 . S
C326 O311 1.263 . S
C326 C320 1.504 . S
C327 O312 1.236 . S
C327 O313 1.257 . S
H328 C301 0.932 . S
H329 C302 0.930 . S
H330 C303 0.932 . S
H331 C304 0.929 . S
H332 C322 0.932 . S
H333 C323 0.930 . S
H334 C324 0.932 . S
H335 C325 0.929 . S
Tb336 C345 2.764 . S
Tb336 O346 2.325 . S
Tb336 O349 2.303 . S
Tb336 O353 2.322 . S
Tb336 O354 2.349 . S
Tb336 O357 2.415 . S
Tb336 O358 2.399 . S
Tb337 O347 2.322 . S
Tb337 O348 2.349 . S
Tb337 O350 2.415 . S
Tb337 O351 2.399 . S
Tb337 O352 2.325 . S
Tb337 O355 2.303 . S
Tb337 C366 2.764 . S
C338 O354 1.261 . S
C338 O355 1.257 . S
C339 C342 1.358 . S
C339 C343 1.332 . S
C339 C345 1.504 . S
C340 C341 1.373 . S
C340 C344 1.308 . S
C341 C340 1.373 . S
C341 C342 1.429 . S
C341 H368 0.932 . S
C342 C339 1.358 . S
C342 C341 1.429 . S
C342 H369 0.930 . S
C343 C339 1.332 . S
C343 C344 1.394 . S
C343 H370 0.932 . S
C344 C340 1.308 . S
C344 C343 1.394 . S
C344 H371 0.929 . S
C345 Tb336 2.764 . S
C345 C339 1.504 . S
C345 O357 1.239 . S
C345 O358 1.263 . S
O346 Tb336 2.325 . S
O346 C356 1.236 . S
O347 Tb337 2.322 . S
O347 C356 1.257 . S
O348 Tb337 2.349 . S
O348 C359 1.261 . S
O349 Tb336 2.303 . S
O349 C359 1.257 . S
O350 Tb337 2.415 . S
O350 C366 1.239 . S
O351 Tb337 2.399 . S
O351 C366 1.263 . S
O352 Tb337 2.325 . S
O352 C367 1.236 . S
O353 Tb336 2.322 . S
O353 C367 1.257 . S
O354 Tb336 2.349 . S
O354 C338 1.261 . S
O355 Tb337 2.303 . S
O355 C338 1.257 . S
C356 O346 1.236 . S
C356 O347 1.257 . S
O357 Tb336 2.415 . S
O357 C345 1.239 . S
O358 Tb336 2.399 . S
O358 C345 1.263 . S
C359 O348 1.261 . S
C359 O349 1.257 . S
C360 C363 1.358 . S
C360 C364 1.332 . S
C360 C366 1.504 . S
C361 C362 1.373 . S
C361 C365 1.308 . S
C362 C361 1.373 . S
C362 C363 1.429 . S
C362 H372 0.932 . S
C363 C360 1.358 . S
C363 C362 1.429 . S
C363 H373 0.930 . S
C364 C360 1.332 . S
C364 C365 1.394 . S
C364 H374 0.932 . S
C365 C361 1.308 . S
C365 C364 1.394 . S
C365 H375 0.929 . S
C366 Tb337 2.764 . S
C366 O350 1.239 . S
C366 O351 1.263 . S
C366 C360 1.504 . S
C367 O352 1.236 . S
C367 O353 1.257 . S
H368 C341 0.932 . S
H369 C342 0.930 . S
H370 C343 0.932 . S
H371 C344 0.929 . S
H372 C362 0.932 . S
H373 C363 0.930 . S
H374 C364 0.932 . S
H375 C365 0.929 . S
Tb376 C385 2.764 . S
Tb376 O386 2.325 . S
Tb376 O389 2.303 1_556 S
Tb376 O393 2.314 1_656 S
Tb376 O394 2.349 1_655 S
Tb376 O397 2.415 . S
Tb376 O398 2.399 . S
Tb377 O387 2.322 1_455 S
Tb377 O388 2.349 1_455 S
Tb377 O390 2.415 . S
Tb377 O391 2.399 . S
Tb377 O392 2.325 . S
Tb377 O395 2.303 1_554 S
Tb377 C406 2.764 . S
C378 O394 1.261 . S
C378 O395 1.257 . S
C379 C382 1.358 . S
C379 C383 1.332 . S
C379 C385 1.504 . S
C380 C381 1.373 . S
C380 C384 1.308 . S
C381 C380 1.373 . S
C381 C382 1.429 . S
C381 H408 0.932 . S
C382 C379 1.358 . S
C382 C381 1.429 . S
C382 H409 0.930 . S
C383 C379 1.332 . S
C383 C384 1.394 . S
C383 H410 0.932 . S
C384 C380 1.308 . S
C384 C383 1.394 . S
C384 H411 0.929 . S
C385 Tb376 2.764 . S
C385 C379 1.504 . S
C385 O397 1.239 . S
C385 O398 1.263 . S
O386 Tb376 2.325 . S
O386 C396 1.236 . S
O387 Tb377 2.322 1_655 S
O387 C396 1.257 1_554 S
O388 Tb377 2.349 1_655 S
O388 C399 1.261 . S
O389 Tb376 2.303 1_554 S
O389 C399 1.257 . S
O390 Tb377 2.415 . S
O390 C406 1.239 . S
O391 Tb377 2.399 . S
O391 C406 1.263 . S
O392 Tb377 2.325 . S
O392 C407 1.236 . S
O393 Tb376 2.314 1_454 S
O393 C407 1.271 . S
O394 Tb376 2.349 1_455 S
O394 C378 1.261 . S
O395 Tb377 2.303 1_556 S
O395 C378 1.257 . S
C396 O386 1.236 . S
C396 O387 1.257 1_556 S
O397 Tb376 2.415 . S
O397 C385 1.239 . S
O398 Tb376 2.399 . S
O398 C385 1.263 . S
C399 O388 1.261 . S
C399 O389 1.257 . S
C400 C403 1.358 . S
C400 C404 1.332 . S
C400 C406 1.504 . S
C401 C402 1.373 . S
C401 C405 1.308 . S
C402 C401 1.373 . S
C402 C403 1.429 . S
C402 H412 0.932 . S
C403 C400 1.358 . S
C403 C402 1.429 . S
C403 H413 0.930 . S
C404 C400 1.332 . S
C404 C405 1.394 . S
C404 H414 0.932 . S
C405 C401 1.308 . S
C405 C404 1.394 . S
C405 H415 0.929 . S
C406 Tb377 2.764 . S
C406 O390 1.239 . S
C406 O391 1.263 . S
C406 C400 1.504 . S
C407 O392 1.236 . S
C407 O393 1.271 . S
H408 C381 0.932 . S
H409 C382 0.930 . S
H410 C383 0.932 . S
H411 C384 0.929 . S
H412 C402 0.932 . S
H413 C403 0.930 . S
H414 C404 0.932 . S
H415 C405 0.929 . S
H416 C422 0.930 . S
H417 C426 0.930 . S
H418 C431 0.929 . S
H419 C429 0.929 . S
H420 C424 0.929 . S
H421 C430 0.929 . S
C422 H416 0.930 . S
C422 C423 1.367 . S
C422 C430 1.378 . S
C423 C422 1.367 . S
C423 C431 1.433 . S
C424 H420 0.929 . S
C424 C426 1.378 . S
C424 C428 1.350 . S
C425 C428 1.463 . S
C425 C430 1.350 . S
C425 N433 1.427 . S
C426 H417 0.930 . S
C426 C424 1.378 . S
C426 C427 1.367 . S
C427 C426 1.367 . S
C427 C429 1.433 . S
C428 C424 1.350 . S
C428 C425 1.463 . S
C428 N432 1.427 . S
C429 H419 0.929 . S
C429 C427 1.433 . S
C429 N432 1.384 . S
C430 H421 0.929 . S
C430 C422 1.378 . S
C430 C425 1.350 . S
C431 H418 0.929 . S
C431 C423 1.433 . S
C431 N433 1.384 . S
N432 C428 1.427 . S
N432 C429 1.384 . S
N433 C425 1.427 . S
N433 C431 1.384 . S
H434 C440 0.930 . S
H435 C444 0.930 . S
H436 C449 0.929 . S
H437 C447 0.929 . S
H438 C442 0.929 . S
H439 C448 0.929 . S
C440 H434 0.930 . S
C440 C441 1.367 . S
C440 C448 1.378 . S
C441 C440 1.367 . S
C441 C449 1.433 . S
C442 H438 0.929 . S
C442 C444 1.378 . S
C442 C446 1.350 . S
C443 C446 1.463 . S
C443 C448 1.350 . S
C443 N451 1.427 . S
C444 H435 0.930 . S
C444 C442 1.378 . S
C444 C445 1.367 . S
C445 C444 1.367 . S
C445 C447 1.433 . S
C446 C442 1.350 . S
C446 C443 1.463 . S
C446 N450 1.427 . S
C447 H437 0.929 . S
C447 C445 1.433 . S
C447 N450 1.384 . S
C448 H439 0.929 . S
C448 C440 1.378 . S
C448 C443 1.350 . S
C449 H436 0.929 . S
C449 C441 1.433 . S
C449 N451 1.384 . S
N450 C446 1.427 . S
N450 C447 1.384 . S
N451 C443 1.427 . S
N451 C449 1.384 . S
H452 C458 0.930 . S
H453 C462 0.930 . S
H454 C467 0.929 . S
H455 C465 0.929 . S
H456 C460 0.929 . S
H457 C466 0.929 . S
C458 H452 0.930 . S
C458 C459 1.367 . S
C458 C466 1.378 . S
C459 C458 1.367 . S
C459 C467 1.433 . S
C460 H456 0.929 . S
C460 C462 1.378 . S
C460 C464 1.350 . S
C461 C464 1.463 . S
C461 C466 1.350 . S
C461 N469 1.427 . S
C462 H453 0.930 . S
C462 C460 1.378 . S
C462 C463 1.367 . S
C463 C462 1.367 . S
C463 C465 1.433 . S
C464 C460 1.350 . S
C464 C461 1.463 . S
C464 N468 1.427 . S
C465 H455 0.929 . S
C465 C463 1.433 . S
C465 N468 1.384 . S
C466 H457 0.929 . S
C466 C458 1.378 . S
C466 C461 1.350 . S
C467 H454 0.929 . S
C467 C459 1.433 . S
C467 N469 1.384 . S
N468 C464 1.427 . S
N468 C465 1.384 . S
N469 C461 1.427 . S
N469 C467 1.384 . S
H470 C476 0.930 . S
H471 C480 0.930 . S
H472 C485 0.929 . S
H473 C483 0.929 . S
H474 C478 0.929 . S
H475 C484 0.929 . S
C476 H470 0.930 . S
C476 C477 1.367 . S
C476 C484 1.378 . S
C477 C476 1.367 . S
C477 C485 1.433 . S
C478 H474 0.929 . S
C478 C480 1.378 . S
C478 C482 1.350 . S
C479 C482 1.463 . S
C479 C484 1.350 . S
C479 N487 1.427 . S
C480 H471 0.930 . S
C480 C478 1.378 . S
C480 C481 1.367 . S
C481 C480 1.367 . S
C481 C483 1.433 . S
C482 C478 1.350 . S
C482 C479 1.463 . S
C482 N486 1.427 . S
C483 H473 0.929 . S
C483 C481 1.433 . S
C483 N486 1.384 . S
C484 H475 0.929 . S
C484 C476 1.378 . S
C484 C479 1.350 . S
C485 H472 0.929 . S
C485 C477 1.433 . S
C485 N487 1.384 . S
N486 C482 1.427 . S
N486 C483 1.384 . S
N487 C479 1.427 . S
N487 C485 1.384 . S
H488 C494 0.930 . S
H489 C498 0.930 . S
H490 C503 0.929 . S
H491 C501 0.929 . S
H492 C496 0.929 . S
H493 C502 0.929 . S
C494 H488 0.930 . S
C494 C495 1.367 . S
C494 C502 1.378 . S
C495 C494 1.367 . S
C495 C503 1.433 . S
C496 H492 0.929 . S
C496 C498 1.378 . S
C496 C500 1.350 . S
C497 C500 1.463 . S
C497 C502 1.350 . S
C497 N505 1.427 . S
C498 H489 0.930 . S
C498 C496 1.378 . S
C498 C499 1.367 . S
C499 C498 1.367 . S
C499 C501 1.433 . S
C500 C496 1.350 . S
C500 C497 1.463 . S
C500 N504 1.427 . S
C501 H491 0.929 . S
C501 C499 1.433 . S
C501 N504 1.384 . S
C502 H493 0.929 . S
C502 C494 1.378 . S
C502 C497 1.350 . S
C503 H490 0.929 . S
C503 C495 1.433 . S
C503 N505 1.384 . S
N504 C500 1.427 . S
N504 C501 1.384 . S
N505 C497 1.427 . S
N505 C503 1.384 . S
H506 C512 0.930 . S
H507 C516 0.930 . S
H508 C521 0.929 . S
H509 C519 0.929 . S
H510 C514 0.929 . S
H511 C520 0.929 . S
C512 H506 0.930 . S
C512 C513 1.367 . S
C512 C520 1.378 . S
C513 C512 1.367 . S
C513 C521 1.433 . S
C514 H510 0.929 . S
C514 C516 1.378 . S
C514 C518 1.350 . S
C515 C518 1.463 . S
C515 C520 1.350 . S
C515 N523 1.427 . S
C516 H507 0.930 . S
C516 C514 1.378 . S
C516 C517 1.367 . S
C517 C516 1.367 . S
C517 C519 1.433 . S
C518 C514 1.350 . S
C518 C515 1.463 . S
C518 N522 1.427 . S
C519 H509 0.929 . S
C519 C517 1.433 . S
C519 N522 1.384 . S
C520 H511 0.929 . S
C520 C512 1.378 . S
C520 C515 1.350 . S
C521 H508 0.929 . S
C521 C513 1.433 . S
C521 N523 1.384 . S
N522 C518 1.427 . S
N522 C519 1.384 . S
N523 C515 1.427 . S
N523 C521 1.384 . S
H524 C530 0.930 . S
H525 C534 0.930 . S
H526 C539 0.929 . S
H527 C537 0.929 . S
H528 C532 0.929 . S
H529 C538 0.929 . S
C530 H524 0.930 . S
C530 C531 1.367 . S
C530 C538 1.378 . S
C531 C530 1.367 . S
C531 C539 1.433 . S
C532 H528 0.929 . S
C532 C534 1.378 . S
C532 C536 1.350 . S
C533 C536 1.463 . S
C533 C538 1.350 . S
C533 N541 1.427 . S
C534 H525 0.930 . S
C534 C532 1.378 . S
C534 C535 1.367 . S
C535 C534 1.367 . S
C535 C537 1.433 . S
C536 C532 1.350 . S
C536 C533 1.463 . S
C536 N540 1.427 . S
C537 H527 0.929 . S
C537 C535 1.433 . S
C537 N540 1.384 . S
C538 H529 0.929 . S
C538 C530 1.378 . S
C538 C533 1.350 . S
C539 H526 0.929 . S
C539 C531 1.433 . S
C539 N541 1.384 . S
N540 C536 1.427 . S
N540 C537 1.384 . S
N541 C533 1.427 . S
N541 C539 1.384 . S
H542 C548 0.930 . S
H543 C552 0.930 . S
H544 C557 0.929 . S
H545 C555 0.929 . S
H546 C550 0.929 . S
H547 C556 0.929 . S
C548 H542 0.930 . S
C548 C549 1.367 . S
C548 C556 1.378 . S
C549 C548 1.367 . S
C549 C557 1.433 . S
C550 H546 0.929 . S
C550 C552 1.378 . S
C550 C554 1.350 . S
C551 C554 1.463 . S
C551 C556 1.350 . S
C551 N559 1.427 . S
C552 H543 0.930 . S
C552 C550 1.378 . S
C552 C553 1.367 . S
C553 C552 1.367 . S
C553 C555 1.433 . S
C554 C550 1.350 . S
C554 C551 1.463 . S
C554 N558 1.427 . S
C555 H545 0.929 . S
C555 C553 1.433 . S
C555 N558 1.384 . S
C556 H547 0.929 . S
C556 C548 1.378 . S
C556 C551 1.350 . S
C557 H544 0.929 . S
C557 C549 1.433 . S
C557 N559 1.384 . S
N558 C554 1.427 . S
N558 C555 1.384 . S
N559 C551 1.427 . S
N559 C557 1.384 . S
H560 C566 0.930 . S
H561 C570 0.930 . S
H562 C575 0.929 . S
H563 C573 0.929 . S
H564 C568 0.929 . S
H565 C574 0.929 . S
C566 H560 0.930 . S
C566 C567 1.367 . S
C566 C574 1.378 . S
C567 C566 1.367 . S
C567 C575 1.433 . S
C568 H564 0.929 . S
C568 C570 1.378 . S
C568 C572 1.350 . S
C569 C572 1.463 . S
C569 C574 1.350 . S
C569 N577 1.427 . S
C570 H561 0.930 . S
C570 C568 1.378 . S
C570 C571 1.367 . S
C571 C570 1.367 . S
C571 C573 1.433 . S
C572 C568 1.350 . S
C572 C569 1.463 . S
C572 N576 1.427 . S
C573 H563 0.929 . S
C573 C571 1.433 . S
C573 N576 1.384 . S
C574 H565 0.929 . S
C574 C566 1.378 . S
C574 C569 1.350 . S
C575 H562 0.929 . S
C575 C567 1.433 . S
C575 N577 1.384 . S
N576 C572 1.427 . S
N576 C573 1.384 . S
N577 C569 1.427 . S
N577 C575 1.384 . S
H578 C584 0.930 . S
H579 C588 0.930 . S
H580 C593 0.929 . S
H581 C591 0.929 . S
H582 C586 0.929 . S
H583 C592 0.929 . S
C584 H578 0.930 . S
C584 C585 1.367 . S
C584 C592 1.378 . S
C585 C584 1.367 . S
C585 C593 1.433 . S
C586 H582 0.929 . S
C586 C588 1.378 . S
C586 C590 1.350 . S
C587 C590 1.463 . S
C587 C592 1.350 . S
C587 N595 1.427 . S
C588 H579 0.930 . S
C588 C586 1.378 . S
C588 C589 1.367 . S
C589 C588 1.367 . S
C589 C591 1.433 . S
C590 C586 1.350 . S
C590 C587 1.463 . S
C590 N594 1.427 . S
C591 H581 0.929 . S
C591 C589 1.433 . S
C591 N594 1.384 . S
C592 H583 0.929 . S
C592 C584 1.378 . S
C592 C587 1.350 . S
C593 H580 0.929 . S
C593 C585 1.433 . S
C593 N595 1.384 . S
N594 C590 1.427 . S
N594 C591 1.384 . S
N595 C587 1.427 . S
N595 C593 1.384 . S
H596 C602 0.930 . S
H597 C606 0.930 . S
H598 C611 0.929 . S
H599 C609 0.929 . S
H600 C604 0.929 . S
H601 C610 0.929 . S
C602 H596 0.930 . S
C602 C603 1.367 . S
C602 C610 1.378 . S
C603 C602 1.367 . S
C603 C611 1.433 . S
C604 H600 0.929 . S
C604 C606 1.378 . S
C604 C608 1.350 . S
C605 C608 1.463 . S
C605 C610 1.350 . S
C605 N613 1.427 . S
C606 H597 0.930 . S
C606 C604 1.378 . S
C606 C607 1.367 . S
C607 C606 1.367 . S
C607 C609 1.433 . S
C608 C604 1.350 . S
C608 C605 1.463 . S
C608 N612 1.427 . S
C609 H599 0.929 . S
C609 C607 1.433 . S
C609 N612 1.384 . S
C610 H601 0.929 . S
C610 C602 1.378 . S
C610 C605 1.350 . S
C611 H598 0.929 . S
C611 C603 1.433 . S
C611 N613 1.384 . S
N612 C608 1.427 . S
N612 C609 1.384 . S
N613 C605 1.427 . S
N613 C611 1.384 . S
H614 C620 0.930 . S
H615 C624 0.930 . S
H616 C629 0.929 . S
H617 C627 0.929 . S
H618 C622 0.929 . S
H619 C628 0.929 . S
C620 H614 0.930 . S
C620 C621 1.367 . S
C620 C628 1.378 . S
C621 C620 1.367 . S
C621 C629 1.433 . S
C622 H618 0.929 . S
C622 C624 1.378 . S
C622 C626 1.350 . S
C623 C626 1.463 . S
C623 C628 1.350 . S
C623 N631 1.427 . S
C624 H615 0.930 . S
C624 C622 1.378 . S
C624 C625 1.367 . S
C625 C624 1.367 . S
C625 C627 1.433 . S
C626 C622 1.350 . S
C626 C623 1.463 . S
C626 N630 1.427 . S
C627 H617 0.929 . S
C627 C625 1.433 . S
C627 N630 1.384 . S
C628 H619 0.929 . S
C628 C620 1.378 . S
C628 C623 1.350 . S
C629 H616 0.929 . S
C629 C621 1.433 . S
C629 N631 1.384 . S
N630 C626 1.427 . S
N630 C627 1.384 . S
N631 C623 1.427 . S
N631 C629 1.384 . S
H632 C638 0.930 . S
H633 C642 0.930 . S
H634 C647 0.929 . S
H635 C645 0.929 . S
H636 C640 0.929 . S
H637 C646 0.929 . S
C638 H632 0.930 . S
C638 C639 1.367 . S
C638 C646 1.378 . S
C639 C638 1.367 . S
C639 C647 1.433 . S
C640 H636 0.929 . S
C640 C642 1.378 . S
C640 C644 1.350 . S
C641 C644 1.463 . S
C641 C646 1.350 . S
C641 N649 1.427 . S
C642 H633 0.930 . S
C642 C640 1.378 . S
C642 C643 1.367 . S
C643 C642 1.367 . S
C643 C645 1.433 . S
C644 C640 1.350 . S
C644 C641 1.463 . S
C644 N648 1.427 . S
C645 H635 0.929 . S
C645 C643 1.433 . S
C645 N648 1.384 . S
C646 H637 0.929 . S
C646 C638 1.378 . S
C646 C641 1.350 . S
C647 H634 0.929 . S
C647 C639 1.433 . S
C647 N649 1.384 . S
N648 C644 1.427 . S
N648 C645 1.384 . S
N649 C641 1.427 . S
N649 C647 1.384 . S
H650 C656 0.930 . S
H651 C660 0.930 . S
H652 C665 0.929 . S
H653 C663 0.929 . S
H654 C658 0.929 . S
H655 C664 0.929 . S
C656 H650 0.930 . S
C656 C657 1.367 . S
C656 C664 1.378 . S
C657 C656 1.367 . S
C657 C665 1.433 . S
C658 H654 0.929 . S
C658 C660 1.378 . S
C658 C662 1.350 . S
C659 C662 1.463 . S
C659 C664 1.350 . S
C659 N667 1.427 . S
C660 H651 0.930 . S
C660 C658 1.378 . S
C660 C661 1.367 . S
C661 C660 1.367 . S
C661 C663 1.433 . S
C662 C658 1.350 . S
C662 C659 1.463 . S
C662 N666 1.427 . S
C663 H653 0.929 . S
C663 C661 1.433 . S
C663 N666 1.384 . S
C664 H655 0.929 . S
C664 C656 1.378 . S
C664 C659 1.350 . S
C665 H652 0.929 . S
C665 C657 1.433 . S
C665 N667 1.384 . S
N666 C662 1.427 . S
N666 C663 1.384 . S
N667 C659 1.427 . S
N667 C665 1.384 . S
H668 C674 0.930 . S
H669 C678 0.930 . S
H670 C683 0.929 . S
H671 C681 0.929 . S
H672 C676 0.929 . S
H673 C682 0.929 . S
C674 H668 0.930 . S
C674 C675 1.367 . S
C674 C682 1.378 . S
C675 C674 1.367 . S
C675 C683 1.433 . S
C676 H672 0.929 . S
C676 C678 1.378 . S
C676 C680 1.350 . S
C677 C680 1.463 . S
C677 C682 1.350 . S
C677 N685 1.427 . S
C678 H669 0.930 . S
C678 C676 1.378 . S
C678 C679 1.367 . S
C679 C678 1.367 . S
C679 C681 1.433 . S
C680 C676 1.350 . S
C680 C677 1.463 . S
C680 N684 1.427 . S
C681 H671 0.929 . S
C681 C679 1.433 . S
C681 N684 1.384 . S
C682 H673 0.929 . S
C682 C674 1.378 . S
C682 C677 1.350 . S
C683 H670 0.929 . S
C683 C675 1.433 . S
C683 N685 1.384 . S
N684 C680 1.427 . S
N684 C681 1.384 . S
N685 C677 1.427 . S
N685 C683 1.384 . S
H686 C692 0.930 . S
H687 C696 0.930 . S
H688 C701 0.929 . S
H689 C699 0.929 . S
H690 C694 0.929 . S
H691 C700 0.929 . S
C692 H686 0.930 . S
C692 C693 1.367 . S
C692 C700 1.378 . S
C693 C692 1.367 . S
C693 C701 1.433 . S
C694 H690 0.929 . S
C694 C696 1.378 . S
C694 C698 1.350 . S
C695 C698 1.463 . S
C695 C700 1.350 . S
C695 N703 1.427 . S
C696 H687 0.930 . S
C696 C694 1.378 . S
C696 C697 1.367 . S
C697 C696 1.367 . S
C697 C699 1.433 . S
C698 C694 1.350 . S
C698 C695 1.463 . S
C698 N702 1.427 . S
C699 H689 0.929 . S
C699 C697 1.433 . S
C699 N702 1.384 . S
C700 H691 0.929 . S
C700 C692 1.378 . S
C700 C695 1.350 . S
C701 H688 0.929 . S
C701 C693 1.433 . S
C701 N703 1.384 . S
N702 C698 1.427 . S
N702 C699 1.384 . S
N703 C695 1.427 . S
N703 C701 1.384 . S
H704 C710 0.930 . S
H705 C714 0.930 . S
H706 C719 0.929 . S
H707 C717 0.929 1_554 S
H708 C712 0.929 . S
H709 C718 0.929 . S
C710 H704 0.930 . S
C710 C711 1.367 . S
C710 C718 1.378 . S
C711 C710 1.367 . S
C711 C719 1.433 . S
C712 H708 0.929 . S
C712 C714 1.378 . S
C712 C716 1.350 . S
C713 C716 1.463 . S
C713 C718 1.350 . S
C713 N721 1.427 . S
C714 H705 0.930 . S
C714 C712 1.378 . S
C714 C715 1.367 . S
C715 C714 1.367 . S
C715 C717 1.433 . S
C716 C712 1.350 . S
C716 C713 1.463 . S
C716 N720 1.427 . S
C717 H707 0.929 1_556 S
C717 C715 1.433 . S
C717 N720 1.384 . S
C718 H709 0.929 . S
C718 C710 1.378 . S
C718 C713 1.350 . S
C719 H706 0.929 . S
C719 C711 1.433 . S
C719 N721 1.384 . S
N720 C716 1.427 . S
N720 C717 1.384 . S
N721 C713 1.427 . S
N721 C719 1.384 . S
H722 C728 0.930 . S
H723 C732 0.930 . S
H724 C737 0.929 . S
H725 C735 0.929 1_455 S
H726 C730 0.929 . S
H727 C736 0.929 . S
C728 H722 0.930 . S
C728 C729 1.367 . S
C728 C736 1.378 . S
C729 C728 1.367 . S
C729 C737 1.433 . S
C730 H726 0.929 . S
C730 C732 1.378 . S
C730 C734 1.350 . S
C731 C734 1.463 . S
C731 C736 1.350 . S
C731 N739 1.427 . S
C732 H723 0.930 . S
C732 C730 1.378 . S
C732 C733 1.367 . S
C733 C732 1.367 . S
C733 C735 1.433 . S
C734 C730 1.350 . S
C734 C731 1.463 . S
C734 N738 1.427 . S
C735 H725 0.929 1_655 S
C735 C733 1.433 . S
C735 N738 1.384 . S
C736 H727 0.929 . S
C736 C728 1.378 . S
C736 C731 1.350 . S
C737 H724 0.929 . S
C737 C729 1.433 . S
C737 N739 1.384 . S
N738 C734 1.427 . S
N738 C735 1.384 . S
N739 C731 1.427 . S
N739 C737 1.384 . S
H740 C746 0.930 . S
H741 C750 0.930 . S
H742 C755 0.929 . S
H743 C753 0.929 . S
H744 C748 0.929 . S
H745 C754 0.929 . S
C746 H740 0.930 . S
C746 C747 1.367 . S
C746 C754 1.378 . S
C747 C746 1.367 . S
C747 C755 1.433 . S
C748 H744 0.929 . S
C748 C750 1.378 . S
C748 C752 1.350 . S
C749 C752 1.463 . S
C749 C754 1.350 . S
C749 N757 1.427 . S
C750 H741 0.930 . S
C750 C748 1.378 . S
C750 C751 1.367 . S
C751 C750 1.367 . S
C751 C753 1.433 . S
C752 C748 1.350 . S
C752 C749 1.463 . S
C752 N756 1.427 . S
C753 H743 0.929 . S
C753 C751 1.433 . S
C753 N756 1.384 . S
C754 H745 0.929 . S
C754 C746 1.378 . S
C754 C749 1.350 . S
C755 H742 0.929 . S
C755 C747 1.433 . S
C755 N757 1.384 . S
N756 C752 1.427 . S
N756 C753 1.384 . S
N757 C749 1.427 . S
N757 C755 1.384 . S
H758 C764 0.930 . S
H759 C768 0.930 . S
H760 C773 0.929 . S
H761 C771 0.929 . S
H762 C766 0.929 . S
H763 C772 0.929 . S
C764 H758 0.930 . S
C764 C765 1.367 . S
C764 C772 1.378 . S
C765 C764 1.367 . S
C765 C773 1.433 . S
C766 H762 0.929 . S
C766 C768 1.378 . S
C766 C770 1.350 . S
C767 C770 1.463 . S
C767 C772 1.350 . S
C767 N775 1.427 . S
C768 H759 0.930 . S
C768 C766 1.378 . S
C768 C769 1.367 . S
C769 C768 1.367 . S
C769 C771 1.433 . S
C770 C766 1.350 . S
C770 C767 1.463 . S
C770 N774 1.427 . S
C771 H761 0.929 . S
C771 C769 1.433 . S
C771 N774 1.384 . S
C772 H763 0.929 . S
C772 C764 1.378 . S
C772 C767 1.350 . S
C773 H760 0.929 . S
C773 C765 1.433 . S
C773 N775 1.384 . S
N774 C770 1.427 . S
N774 C771 1.384 . S
N775 C767 1.427 . S
N775 C773 1.384 . S
H776 C782 0.930 . S
H777 C786 0.930 . S
H778 C791 0.929 . S
H779 C789 0.929 . S
H780 C784 0.929 . S
H781 C790 0.929 . S
C782 H776 0.930 . S
C782 C783 1.367 . S
C782 C790 1.378 . S
C783 C782 1.367 . S
C783 C791 1.433 . S
C784 H780 0.929 . S
C784 C786 1.378 . S
C784 C788 1.350 . S
C785 C788 1.463 . S
C785 C790 1.350 . S
C785 N793 1.427 . S
C786 H777 0.930 . S
C786 C784 1.378 . S
C786 C787 1.367 . S
C787 C786 1.367 . S
C787 C789 1.433 . S
C788 C784 1.350 . S
C788 C785 1.463 . S
C788 N792 1.427 . S
C789 H779 0.929 . S
C789 C787 1.433 . S
C789 N792 1.384 . S
C790 H781 0.929 . S
C790 C782 1.378 . S
C790 C785 1.350 . S
C791 H778 0.929 . S
C791 C783 1.433 . S
C791 N793 1.384 . S
N792 C788 1.427 . S
N792 C789 1.384 . S
N793 C785 1.427 . S
N793 C791 1.384 . S
H794 C800 0.930 . S
H795 C804 0.930 . S
H796 C809 0.929 . S
H797 C807 0.929 . S
H798 C802 0.929 . S
H799 C808 0.929 . S
C800 H794 0.930 . S
C800 C801 1.367 . S
C800 C808 1.378 . S
C801 C800 1.367 . S
C801 C809 1.433 . S
C802 H798 0.929 . S
C802 C804 1.378 . S
C802 C806 1.350 . S
C803 C806 1.463 . S
C803 C808 1.350 . S
C803 N811 1.427 . S
C804 H795 0.930 . S
C804 C802 1.378 . S
C804 C805 1.367 . S
C805 C804 1.367 . S
C805 C807 1.433 . S
C806 C802 1.350 . S
C806 C803 1.463 . S
C806 N810 1.427 . S
C807 H797 0.929 . S
C807 C805 1.433 . S
C807 N810 1.384 . S
C808 H799 0.929 . S
C808 C800 1.378 . S
C808 C803 1.350 . S
C809 H796 0.929 . S
C809 C801 1.433 . S
C809 N811 1.384 . S
N810 C806 1.427 . S
N810 C807 1.384 . S
N811 C803 1.427 . S
N811 C809 1.384 . S
H812 C818 0.930 . S
H813 C822 0.930 . S
H814 C827 0.929 . S
H815 C825 0.929 . S
H816 C820 0.929 . S
H817 C826 0.929 . S
C818 H812 0.930 . S
C818 C819 1.367 . S
C818 C826 1.378 . S
C819 C818 1.367 . S
C819 C827 1.433 . S
C820 H816 0.929 . S
C820 C822 1.378 . S
C820 C824 1.350 . S
C821 C824 1.463 . S
C821 C826 1.350 . S
C821 N829 1.427 . S
C822 H813 0.930 . S
C822 C820 1.378 . S
C822 C823 1.367 . S
C823 C822 1.367 . S
C823 C825 1.433 . S
C824 C820 1.350 . S
C824 C821 1.463 . S
C824 N828 1.427 . S
C825 H815 0.929 . S
C825 C823 1.433 . S
C825 N828 1.384 . S
C826 H817 0.929 . S
C826 C818 1.378 . S
C826 C821 1.350 . S
C827 H814 0.929 . S
C827 C819 1.433 . S
C827 N829 1.384 . S
N828 C824 1.427 . S
N828 C825 1.384 . S
N829 C821 1.427 . S
N829 C827 1.384 . S
H830 C836 0.930 . S
H831 C840 0.930 . S
H832 C845 0.929 . S
H833 C843 0.929 . S
H834 C838 0.929 . S
H835 C844 0.929 . S
C836 H830 0.930 . S
C836 C837 1.367 . S
C836 C844 1.378 . S
C837 C836 1.367 . S
C837 C845 1.433 . S
C838 H834 0.929 . S
C838 C840 1.378 . S
C838 C842 1.350 . S
C839 C842 1.463 . S
C839 C844 1.350 . S
C839 N847 1.427 . S
C840 H831 0.930 . S
C840 C838 1.378 . S
C840 C841 1.367 . S
C841 C840 1.367 . S
C841 C843 1.433 . S
C842 C838 1.350 . S
C842 C839 1.463 . S
C842 N846 1.427 . S
C843 H833 0.929 . S
C843 C841 1.433 . S
C843 N846 1.384 . S
C844 H835 0.929 . S
C844 C836 1.378 . S
C844 C839 1.350 . S
C845 H832 0.929 . S
C845 C837 1.433 . S
C845 N847 1.384 . S
N846 C842 1.427 . S
N846 C843 1.384 . S
N847 C839 1.427 . S
N847 C845 1.384 . S
C423 C29 0.931 . S
C427 C260 0.928 . S
C441 C49 1.018 . S
C445 C321 1.124 . S
C463 C359 2.550 . S
C459 C93 2.540 . S
C477 C119 2.259 . S
C481 C399 2.260 . S
C499 C319 1.189 . S
C495 C17 1.199 . S
C517 C287 2.051 . S
C513 C61 1.813 . S
C535 C396 1.742 . S
C531 C81 1.700 . S
C553 C356 1.901 . S
C549 C125 1.881 . S
C567 C23 1.050 . S
C571 C401 1.049 . S
C589 C316 2.358 . S
C585 C87 2.289 . S
C603 C113 2.184 . S
C607 C258 2.197 . S
C621 C55 1.337 . S
C625 C361 1.495 . S
C643 C281 0.917 . S
C639 C157 0.880 . S
C657 C189 1.169 . S
C661 C300 1.170 . S
C675 C221 2.561 . S
C679 C338 2.513 . S
C693 C253 2.311 . S
C697 C378 2.330 . S
C711 C145 1.195 . S
C715 C298 1.291 . S
C733 C276 2.016 . S
C729 C183 2.004 . S
C751 C407 1.783 . S
C747 C209 1.771 . S
C769 C367 1.852 . S
C765 C247 1.835 . S
C783 C151 1.021 . S
C787 C380 1.074 . S
C805 C327 2.355 . S
C801 C215 2.336 . S
C823 C279 2.160 . S
C819 C241 2.146 . S
C837 C177 1.491 . S
C841 C340 1.480 . S
