# Generated by pormake.
# Topology zzz, (3,6)-cn, num edge types: 1
# Building blocks:
#     Node 0, Type 0, BuildingBlock: VETTIZ_charged_linker_0, # of connection points: 3
#     Node 1, Type 0, BuildingBlock: VETTIZ_charged_linker_0, # of connection points: 3
#     Node 2, Type 0, BuildingBlock: VETTIZ_charged_linker_0, # of connection points: 3
#     Node 3, Type 0, BuildingBlock: VETTIZ_charged_linker_0, # of connection points: 3
#     Node 4, Type 0, BuildingBlock: VETTIZ_charged_linker_0, # of connection points: 3
#     Node 5, Type 0, BuildingBlock: VETTIZ_charged_linker_0, # of connection points: 3
#     Node 6, Type 0, BuildingBlock: VETTIZ_charged_linker_0, # of connection points: 3
#     Node 7, Type 0, BuildingBlock: VETTIZ_charged_linker_0, # of connection points: 3
#     Node 8, Type 1, BuildingBlock: GEDQOX_clean_sbu_0, # of connection points: 6
#     Node 9, Type 1, BuildingBlock: GEDQOX_clean_sbu_0, # of connection points: 6
#     Node 10, Type 1, BuildingBlock: GEDQOX_clean_sbu_0, # of connection points: 6
#     Node 11, Type 1, BuildingBlock: GEDQOX_clean_sbu_0, # of connection points: 6
#     Edge 12, Type (0, 1), BuildingBlock: AJUNOK_clean_linker_0, # of connection points: 2
#     Edge 13, Type (0, 1), BuildingBlock: AJUNOK_clean_linker_0, # of connection points: 2
#     Edge 14, Type (0, 1), BuildingBlock: AJUNOK_clean_linker_0, # of connection points: 2
#     Edge 15, Type (0, 1), BuildingBlock: AJUNOK_clean_linker_0, # of connection points: 2
#     Edge 16, Type (0, 1), BuildingBlock: AJUNOK_clean_linker_0, # of connection points: 2
#     Edge 17, Type (0, 1), BuildingBlock: AJUNOK_clean_linker_0, # of connection points: 2
#     Edge 18, Type (0, 1), BuildingBlock: AJUNOK_clean_linker_0, # of connection points: 2
#     Edge 19, Type (0, 1), BuildingBlock: AJUNOK_clean_linker_0, # of connection points: 2
#     Edge 20, Type (0, 1), BuildingBlock: AJUNOK_clean_linker_0, # of connection points: 2
#     Edge 21, Type (0, 1), BuildingBlock: AJUNOK_clean_linker_0, # of connection points: 2
#     Edge 22, Type (0, 1), BuildingBlock: AJUNOK_clean_linker_0, # of connection points: 2
#     Edge 23, Type (0, 1), BuildingBlock: AJUNOK_clean_linker_0, # of connection points: 2
#     Edge 24, Type (0, 1), BuildingBlock: AJUNOK_clean_linker_0, # of connection points: 2
#     Edge 25, Type (0, 1), BuildingBlock: AJUNOK_clean_linker_0, # of connection points: 2
#     Edge 26, Type (0, 1), BuildingBlock: AJUNOK_clean_linker_0, # of connection points: 2
#     Edge 27, Type (0, 1), BuildingBlock: AJUNOK_clean_linker_0, # of connection points: 2
#     Edge 28, Type (0, 1), BuildingBlock: AJUNOK_clean_linker_0, # of connection points: 2
#     Edge 29, Type (0, 1), BuildingBlock: AJUNOK_clean_linker_0, # of connection points: 2
#     Edge 30, Type (0, 1), BuildingBlock: AJUNOK_clean_linker_0, # of connection points: 2
#     Edge 31, Type (0, 1), BuildingBlock: AJUNOK_clean_linker_0, # of connection points: 2
#     Edge 32, Type (0, 1), BuildingBlock: AJUNOK_clean_linker_0, # of connection points: 2
#     Edge 33, Type (0, 1), BuildingBlock: AJUNOK_clean_linker_0, # of connection points: 2
#     Edge 34, Type (0, 1), BuildingBlock: AJUNOK_clean_linker_0, # of connection points: 2
#     Edge 35, Type (0, 1), BuildingBlock: AJUNOK_clean_linker_0, # of connection points: 2
# Relax obj value: 0.321
# Max RMSD: 0.322
# Mean RMSD: 0.199
data_MOF--net-zzz--node1-GEDQOX_clean_sbu_0--node2-VETTIZ_charged_linker_0--edge1-AJUNOK_clean_linker_0
_symmetry_space_group_name_H-M    P1
_symmetry_Int_Tables_number       1
_symmetry_cell_setting            triclinic
loop_
_symmetry_equiv_pos_as_xyz
'x, y, z'
_cell_length_a     48.70155
_cell_length_b     45.341835
_cell_length_c     17.912676
_cell_angle_alpha  80.252618
_cell_angle_beta   90.535251
_cell_angle_gamma 103.98642
loop_
_atom_site_label
_atom_site_type_symbol
_atom_site_fract_x
_atom_site_fract_y
_atom_site_fract_z
_atom_type_partial_charge
C0 C 0.79967 0.48851 0.33225 0.0
C1 C 0.82514 0.48147 0.3593 0.0
C2 C 0.83516 0.45903 0.33018 0.0
C3 C 0.79868 0.4559 0.23735 0.0
C4 C 0.78643 0.47489 0.27144 0.0
C5 C 0.7595 0.47907 0.23207 0.0
H6 H 0.6904 0.48551 0.89672 0.0
C7 C 0.78478 0.45185 0.16496 0.0
C8 C 0.76174 0.46553 0.16027 0.0
H9 H 0.65962 0.49619 0.11345 0.0
H10 H 0.70154 0.48471 0.17305 0.0
H11 H 0.75421 0.51948 0.91376 0.0
H12 H 0.71434 0.4221 0.961 0.0
H13 H 0.74501 0.43035 0.9006 0.0
H14 H 0.71579 0.4464 0.86991 0.0
H15 H 0.75017 0.49626 0.84089 0.0
H16 H 0.7804 0.49994 0.90102 0.0
C17 C 0.75993 0.51369 0.21462 0.0
C18 C 0.73413 0.45936 0.28388 0.0
C19 C 0.8435 0.42442 0.97114 0.0
C20 C 0.8489 0.43847 0.8955 0.0
C21 C 0.82719 0.44911 0.85473 0.0
C22 C 0.80218 0.4498 0.89259 0.0
C23 C 0.79973 0.44116 0.97202 0.0
C24 C 0.82049 0.42888 0.00961 0.0
C25 C 0.82029 0.43024 0.09248 0.0
C26 C 0.79479 0.44323 0.09993 0.0
C27 C 0.78229 0.44897 0.02977 0.0
C28 C 0.84853 0.45276 0.10994 0.0
C29 C 0.81542 0.39686 0.13659 0.0
C30 C 0.69288 0.48557 0.95684 0.0
C31 C 0.67185 0.49216 1.00028 0.0
C32 C 0.67559 0.49141 0.07875 0.0
C33 C 0.69985 0.48466 0.11341 0.0
C34 C 0.72073 0.47828 0.06961 0.0
C35 C 0.71682 0.47811 0.99288 0.0
C36 C 0.74072 0.46912 0.9565 0.0
C37 C 0.7581 0.46155 0.0251 0.0
C38 C 0.7471 0.46846 0.09075 0.0
C39 C 0.75724 0.49746 0.89969 0.0
C40 C 0.72843 0.44048 0.91968 0.0
H41 H 0.83099 0.42956 0.24929 0.0
H42 H 0.7911 0.50499 0.35577 0.0
H43 H 0.73889 0.4377 0.31411 0.0
H44 H 0.71504 0.45154 0.25191 0.0
H45 H 0.72897 0.47214 0.32739 0.0
H46 H 0.77997 0.52705 0.18376 0.0
H47 H 0.75834 0.52281 0.26777 0.0
H48 H 0.7424 0.5184 0.17897 0.0
H49 H 0.86025 0.41709 1.00398 0.0
H50 H 0.83102 0.46021 0.79602 0.0
H51 H 0.78702 0.45973 0.86002 0.0
H52 H 0.86081 0.46617 0.05797 0.0
H53 H 0.86278 0.44019 0.14337 0.0
H54 H 0.84499 0.47105 0.13976 0.0
H55 H 0.79978 0.38053 0.10804 0.0
H56 H 0.8064 0.39423 0.19445 0.0
H57 H 0.83545 0.38914 0.13995 0.0
H58 H 0.85426 0.45279 0.35148 0.0
C59 C 0.82185 0.44591 0.27021 0.0
C60 C 0.94155 0.84409 0.90719 0.0
C61 C 0.93663 0.87175 0.9242 0.0
C62 C 0.91066 0.8701 0.96152 0.0
C63 C 0.90682 0.81616 1.00301 0.0
C64 C 0.9251 0.81592 0.94553 0.0
C65 C 0.93005 0.78414 0.94944 0.0
H66 H 0.97386 0.67155 0.15146 0.0
C67 C 0.90927 0.79117 0.0644 0.0
C68 C 0.91955 0.77002 0.03145 0.0
H69 H 0.93707 0.67286 0.93018 0.0
H70 H 0.91541 0.71382 0.95319 0.0
H71 H 0.99341 0.75222 0.14956 0.0
H72 H 0.91342 0.68901 0.23537 0.0
H73 H 0.93257 0.71177 0.30003 0.0
H74 H 0.94634 0.68192 0.27109 0.0
H75 H 0.9932 0.71889 0.22063 0.0
H76 H 0.98366 0.75185 0.24549 0.0
C77 C 0.96172 0.78564 0.93579 0.0
C78 C 0.91139 0.76873 0.88935 0.0
C79 C 0.93154 0.83141 0.3091 0.0
C80 C 0.94525 0.82318 0.37546 0.0
C81 C 0.95399 0.7951 0.38405 0.0
C82 C 0.94882 0.77597 0.32721 0.0
C83 C 0.93528 0.78524 0.26029 0.0
C84 C 0.92657 0.81244 0.25395 0.0
C85 C 0.91634 0.82211 0.17736 0.0
C86 C 0.91601 0.79415 0.14083 0.0
C87 C 0.92888 0.77304 0.18705 0.0
C88 C 0.93935 0.85097 0.14027 0.0
C89 C 0.88644 0.82809 0.18459 0.0
C90 C 0.96219 0.68162 0.10653 0.0
C91 C 0.95848 0.6701 0.03683 0.0
C92 C 0.94166 0.68244 0.98168 0.0
C93 C 0.93002 0.70663 0.99308 0.0
C94 C 0.93674 0.72004 0.05754 0.0
C95 C 0.95079 0.70687 0.11582 0.0
C96 C 0.95108 0.72328 0.18411 0.0
C97 C 0.93515 0.74824 0.15474 0.0
C98 C 0.9285 0.74628 0.07891 0.0
C99 C 0.98203 0.73736 0.20128 0.0
C100 C 0.93501 0.70024 0.25173 0.0
H101 H 0.87809 0.84113 0.03961 0.0
H102 H 0.96017 0.84409 0.87532 0.0
H103 H 0.90803 0.78612 0.84055 0.0
H104 H 0.89018 0.7556 0.91377 0.0
H105 H 0.92161 0.75325 0.86392 0.0
H106 H 0.97502 0.79857 0.97611 0.0
H107 H 0.96882 0.79701 0.87693 0.0
H108 H 0.96571 0.76234 0.94267 0.0
H109 H 0.92591 0.85341 0.2978 0.0
H110 H 0.96476 0.78798 0.43454 0.0
H111 H 0.95564 0.75484 0.33662 0.0
H112 H 0.96099 0.8494 0.15816 0.0
H113 H 0.93568 0.8724 0.15604 0.0
H114 H 0.94093 0.85364 0.07859 0.0
H115 H 0.87023 0.81185 0.15749 0.0
H116 H 0.88618 0.85209 0.15894 0.0
H117 H 0.87888 0.82484 0.2445 0.0
H118 H 0.90463 0.89087 0.96932 0.0
C119 C 0.89585 0.84189 1.00351 0.0
C120 C 0.84377 0.9929 0.07539 0.0
C121 C 0.85441 0.99252 1.00197 0.0
C122 C 0.8351 0.98561 0.94484 0.0
C123 C 0.79646 0.98541 0.02823 0.0
C124 C 0.81441 0.98877 0.08762 0.0
C125 C 0.79815 0.98803 0.16056 0.0
H126 H 0.66711 0.98815 0.3079 0.0
C127 C 0.76826 0.98607 0.05347 0.0
C128 C 0.76813 0.98621 0.13244 0.0
H129 H 0.73929 0.98081 0.44377 0.0
H130 H 0.76798 0.98416 0.32772 0.0
H131 H 0.69295 0.03769 0.19745 0.0
H132 H 0.67502 0.94157 0.20635 0.0
H133 H 0.66642 0.95525 0.11431 0.0
H134 H 0.64926 0.9645 0.1934 0.0
H135 H 0.66203 0.01925 0.15405 0.0
H136 H 0.69504 0.0368 0.10065 0.0
C137 C 0.81007 0.01791 0.19225 0.0
C138 C 0.79988 0.95892 0.21682 0.0
C139 C 0.70344 0.02506 0.85831 0.0
C140 C 0.67776 0.03267 0.87029 0.0
C141 C 0.66298 0.02209 0.94048 0.0
C142 C 0.67386 1.00511 0.99894 0.0
C143 C 0.70108 1.00111 0.99041 0.0
C144 C 0.71504 1.00946 0.92057 0.0
C145 C 0.74311 1.00093 0.92378 0.0
C146 C 0.74494 0.99092 0.00966 0.0
C147 C 0.72026 0.99148 0.04693 0.0
C148 C 0.76624 0.03018 0.89124 0.0
C149 C 0.74103 0.97382 0.87955 0.0
C150 C 0.68906 0.98706 0.31366 0.0
C151 C 0.70061 0.98368 0.3848 0.0
C152 C 0.72963 0.98312 0.38911 0.0
C153 C 0.74612 0.98476 0.32213 0.0
C154 C 0.73335 0.98699 0.25081 0.0
C155 C 0.70531 0.98851 0.24922 0.0
C156 C 0.69386 0.99106 0.17243 0.0
C157 C 0.71904 0.99 0.12607 0.0
C158 C 0.74265 0.98755 0.17036 0.0
C159 C 0.68538 0.02259 0.1548 0.0
C160 C 0.66958 0.96187 0.17106 0.0
H161 H 0.79243 0.97639 0.91284 0.0
H162 H 0.85806 0.99718 0.12115 0.0
H163 H 0.79324 0.93807 0.18978 0.0
H164 H 0.7859 0.95526 0.26734 0.0
H165 H 0.82192 0.96057 0.23571 0.0
H166 H 0.81015 0.03843 0.14826 0.0
H167 H 0.83214 0.01926 0.21052 0.0
H168 H 0.7972 0.01927 0.24148 0.0
H169 H 0.71398 0.03119 0.80294 0.0
H170 H 0.64219 0.02598 0.94902 0.0
H171 H 0.66071 0.99667 0.04892 0.0
H172 H 0.7656 0.04935 0.92203 0.0
H173 H 0.763 0.03787 0.83026 0.0
H174 H 0.78783 0.02669 0.89511 0.0
H175 H 0.71927 0.96498 0.86024 0.0
H176 H 0.74649 0.95367 0.91542 0.0
H177 H 0.75519 0.9809 0.82803 0.0
H178 H 0.84237 0.98523 0.88816 0.0
C179 C 0.80618 0.98134 0.95835 0.0
C180 C 0.55571 0.75653 0.60005 0.0
C181 C 0.5717 0.73518 0.63352 0.0
C182 C 0.60133 0.74336 0.62091 0.0
C183 C 0.59719 0.78587 0.5257 0.0
C184 C 0.56978 0.78326 0.54773 0.0
C185 C 0.5595 0.81024 0.50118 0.0
H186 H 0.58467 0.91158 0.15615 0.0
C187 C 0.60367 0.80622 0.45343 0.0
C188 C 0.58331 0.82359 0.43938 0.0
H189 H 0.52312 0.91424 0.32477 0.0
H190 H 0.53835 0.87286 0.4115 0.0
H191 H 0.63542 0.90571 0.2588 0.0
H192 H 0.57078 0.8535 0.15207 0.0
H193 H 0.58501 0.82242 0.19073 0.0
H194 H 0.60531 0.85433 0.12231 0.0
H195 H 0.63261 0.9013 0.16045 0.0
H196 H 0.65053 0.87838 0.22705 0.0
C197 C 0.55836 0.83376 0.55301 0.0
C198 C 0.53067 0.79856 0.46709 0.0
C199 C 0.62254 0.75454 0.2448 0.0
C200 C 0.62083 0.76533 0.16716 0.0
C201 C 0.63155 0.79669 0.13805 0.0
C202 C 0.63844 0.8177 0.18816 0.0
C203 C 0.63203 0.8069 0.26577 0.0
C204 C 0.62758 0.77591 0.29418 0.0
C205 C 0.62131 0.76901 0.37826 0.0
C206 C 0.61867 0.80075 0.39225 0.0
C207 C 0.62194 0.82145 0.32395 0.0
C208 C 0.64644 0.75844 0.41778 0.0
C209 C 0.59316 0.74391 0.39638 0.0
C210 C 0.57473 0.90443 0.21231 0.0
C211 C 0.55302 0.91688 0.23273 0.0
C212 C 0.53999 0.90513 0.30627 0.0
C213 C 0.54881 0.88131 0.3567 0.0
C214 C 0.57051 0.86888 0.33293 0.0
C215 C 0.58266 0.88089 0.26132 0.0
C216 C 0.60356 0.8648 0.23919 0.0
C217 C 0.60518 0.84329 0.31218 0.0
C218 C 0.58524 0.84446 0.36802 0.0
C219 C 0.6321 0.88872 0.21948 0.0
C220 C 0.5908 0.84787 0.17295 0.0
H221 H 0.63672 0.77424 0.55512 0.0
H222 H 0.5331 0.75157 0.61086 0.0
H223 H 0.53187 0.78094 0.43181 0.0
H224 H 0.52398 0.81777 0.43083 0.0
H225 H 0.51418 0.78801 0.51265 0.0
H226 H 0.57931 0.84145 0.57812 0.0
H227 H 0.54247 0.82328 0.60011 0.0
H228 H 0.55268 0.85448 0.52166 0.0
H229 H 0.61562 0.73008 0.26658 0.0
H230 H 0.63151 0.8052 0.07777 0.0
H231 H 0.64536 0.84173 0.16455 0.0
H232 H 0.65509 0.74409 0.38401 0.0
H233 H 0.63994 0.74346 0.47334 0.0
H234 H 0.66388 0.77853 0.42534 0.0
H235 H 0.57547 0.75136 0.36518 0.0
H236 H 0.58735 0.73874 0.45735 0.0
H237 H 0.59482 0.72164 0.38135 0.0
H238 H 0.61418 0.72836 0.64778 0.0
C239 C 0.61419 0.76886 0.56702 0.0
C240 C 0.36151 0.5917 0.64372 0.0
C241 C 0.37137 0.58877 0.71846 0.0
C242 C 0.35544 0.59634 0.77494 0.0
C243 C 0.3213 0.60933 0.68275 0.0
C244 C 0.33644 0.60143 0.62749 0.0
C245 C 0.32136 0.60175 0.55339 0.0
H246 H 0.20169 0.6151 0.36633 0.0
C247 C 0.29611 0.61827 0.64741 0.0
C248 C 0.296 0.61365 0.57145 0.0
H249 H 0.26594 0.57273 0.30205 0.0
H250 H 0.29539 0.5907 0.40479 0.0
H251 H 0.20271 0.58923 0.55139 0.0
H252 H 0.23468 0.67288 0.39783 0.0
H253 H 0.24213 0.68475 0.48644 0.0
H254 H 0.20592 0.6699 0.46148 0.0
H255 H 0.1839 0.61223 0.48855 0.0
H256 H 0.19296 0.62123 0.57905 0.0
C257 C 0.31266 0.56825 0.53685 0.0
C258 C 0.34061 0.62472 0.4905 0.0
C259 C 0.21658 0.64073 0.79606 0.0
C260 C 0.19141 0.64891 0.76902 0.0
C261 C 0.19183 0.66422 0.69325 0.0
C262 C 0.2139 0.66573 0.64294 0.0
C263 C 0.23485 0.65045 0.66724 0.0
C264 C 0.23818 0.64157 0.74327 0.0
C265 C 0.26529 0.63083 0.75645 0.0
C266 C 0.27449 0.63037 0.67516 0.0
C267 C 0.25534 0.6406 0.62425 0.0
C268 C 0.2583 0.59832 0.80561 0.0
C269 C 0.28638 0.65536 0.79249 0.0
C270 C 0.22219 0.60987 0.37439 0.0
C271 C 0.23152 0.59246 0.32718 0.0
C272 C 0.25833 0.58605 0.33843 0.0
C273 C 0.27506 0.59596 0.39855 0.0
C274 C 0.26431 0.61136 0.44921 0.0
C275 C 0.23851 0.61859 0.43534 0.0
C276 C 0.22944 0.63386 0.49543 0.0
C277 C 0.25365 0.63353 0.55001 0.0
C278 C 0.27389 0.62008 0.52333 0.0
C279 C 0.20078 0.61318 0.53078 0.0
C280 C 0.22787 0.66699 0.45877 0.0
H281 H 0.31948 0.61164 0.80319 0.0
H282 H 0.37272 0.58589 0.59857 0.0
H283 H 0.34836 0.64754 0.50843 0.0
H284 H 0.32923 0.62862 0.4374 0.0
H285 H 0.35932 0.61621 0.47788 0.0
H286 H 0.31447 0.55086 0.58732 0.0
H287 H 0.32622 0.56506 0.49079 0.0
H288 H 0.29019 0.56163 0.52152 0.0
H289 H 0.21863 0.63192 0.85529 0.0
H290 H 0.17391 0.67227 0.66965 0.0
H291 H 0.21265 0.67638 0.58553 0.0
H292 H 0.23942 0.58326 0.78424 0.0
H293 H 0.25363 0.59947 0.86549 0.0
H294 H 0.27557 0.58651 0.80459 0.0
H295 H 0.28512 0.67903 0.76614 0.0
H296 H 0.30862 0.65485 0.78368 0.0
H297 H 0.28162 0.65253 0.8542 0.0
H298 H 0.36137 0.59317 0.83356 0.0
C299 C 0.3308 0.60687 0.75738 0.0
C300 C 0.11292 0.24027 0.81216 0.0
C301 C 0.11691 0.21298 0.79149 0.0
C302 C 0.14011 0.21502 0.74251 0.0
C303 C 0.13997 0.26784 0.70007 0.0
C304 C 0.12493 0.26816 0.76419 0.0
C305 C 0.11856 0.29914 0.76195 0.0
H306 H 0.0715 0.41323 0.56097 0.0
C307 C 0.13452 0.29198 0.64084 0.0
C308 C 0.12448 0.31242 0.67712 0.0
H309 H 0.10011 0.40309 0.79226 0.0
H310 H 0.12122 0.3633 0.76864 0.0
H311 H 0.12985 0.39447 0.47875 0.0
H312 H 0.04906 0.33227 0.5619 0.0
H313 H 0.05867 0.33285 0.46588 0.0
H314 H 0.05003 0.36608 0.49179 0.0
H315 H 0.09721 0.40221 0.44255 0.0
H316 H 0.1108 0.37242 0.41276 0.0
C317 C 0.13982 0.31669 0.81422 0.0
C318 C 0.08729 0.29521 0.78646 0.0
C319 C 0.10797 0.25276 0.3964 0.0
C320 C 0.09308 0.26144 0.3329 0.0
C321 C 0.0859 0.29029 0.32499 0.0
C322 C 0.09233 0.30906 0.38227 0.0
C323 C 0.1058 0.29873 0.44835 0.0
C324 C 0.1139 0.27123 0.45257 0.0
C325 C 0.12601 0.26157 0.52672 0.0
C326 C 0.12667 0.28918 0.56518 0.0
C327 C 0.11326 0.31045 0.52166 0.0
C328 C 0.15592 0.25668 0.51288 0.0
C329 C 0.10438 0.23195 0.56609 0.0
C330 C 0.08174 0.40193 0.60728 0.0
C331 C 0.08466 0.41262 0.67832 0.0
C332 C 0.09843 0.39711 0.73618 0.0
C333 C 0.10973 0.3729 0.72412 0.0
C334 C 0.10522 0.36159 0.65629 0.0
C335 C 0.09235 0.37617 0.59753 0.0
C336 C 0.09181 0.36035 0.52825 0.0
C337 C 0.1071 0.33472 0.55643 0.0
C338 C 0.11367 0.33566 0.63287 0.0
C339 C 0.10827 0.38363 0.46155 0.0
C340 C 0.06071 0.34715 0.51056 0.0
H341 H 0.16781 0.2442 0.65351 0.0
H342 H 0.09714 0.23913 0.85535 0.0
H343 H 0.07281 0.28088 0.75091 0.0
H344 H 0.08146 0.3175 0.78134 0.0
H345 H 0.08327 0.28412 0.84683 0.0
H346 H 0.15176 0.30163 0.8493 0.0
H347 H 0.12888 0.32598 0.85564 0.0
H348 H 0.1559 0.33593 0.78075 0.0
H349 H 0.11398 0.23095 0.40397 0.0
H350 H 0.07466 0.29785 0.27584 0.0
H351 H 0.0864 0.33069 0.37389 0.0
H352 H 0.16199 0.26032 0.4517 0.0
H353 H 0.15714 0.23279 0.53674 0.0
H354 H 0.17261 0.2733 0.53755 0.0
H355 H 0.08247 0.23531 0.56376 0.0
H356 H 0.10795 0.22509 0.62618 0.0
H357 H 0.10476 0.21199 0.53804 0.0
H358 H 0.14543 0.1945 0.72988 0.0
C359 C 0.15204 0.24316 0.69591 0.0
C360 C 0.32651 0.09339 0.36647 0.0
C361 C 0.35607 0.09896 0.3505 0.0
C362 C 0.37504 0.10564 0.4082 0.0
C363 C 0.33628 0.09928 0.4972 0.0
C364 C 0.31704 0.09401 0.44104 0.0
C365 C 0.28697 0.09016 0.47204 0.0
H366 H 0.20354 0.07342 0.7946 0.0
C367 C 0.32078 0.09601 0.56938 0.0
C368 C 0.29172 0.09085 0.55679 0.0
H369 H 0.17458 0.07563 0.5658 0.0
H370 H 0.2231 0.08391 0.51835 0.0
H371 H 0.23691 0.03012 0.78657 0.0
H372 H 0.26636 0.12879 0.76072 0.0
H373 H 0.28519 0.10933 0.83027 0.0
H374 H 0.2477 0.10317 0.84203 0.0
H375 H 0.24973 0.0483 0.86542 0.0
H376 H 0.27321 0.03683 0.80442 0.0
C377 C 0.26838 0.05895 0.45869 0.0
C378 C 0.27604 0.11798 0.43338 0.0
C379 C 0.37809 0.09109 0.80069 0.0
C380 C 0.37112 0.07306 0.87256 0.0
C381 C 0.34286 0.06567 0.90005 0.0
C382 C 0.3216 0.07326 0.85204 0.0
C383 C 0.32881 0.08645 0.77544 0.0
C384 C 0.35678 0.09473 0.75174 0.0
C385 C 0.36097 0.09957 0.668 0.0
C386 C 0.33087 0.09482 0.64364 0.0
C387 C 0.31218 0.08811 0.7061 0.0
C388 C 0.37494 0.07406 0.64845 0.0
C389 C 0.378 0.13322 0.64163 0.0
C390 C 0.20762 0.0762 0.73411 0.0
C391 C 0.18534 0.07408 0.68405 0.0
C392 C 0.19154 0.07759 0.60557 0.0
C393 C 0.2196 0.08221 0.57812 0.0
C394 C 0.24159 0.08322 0.62972 0.0
C395 C 0.2352 0.08051 0.70632 0.0
C396 C 0.26013 0.07954 0.75481 0.0
C397 C 0.28303 0.08432 0.69478 0.0
C398 C 0.2725 0.08617 0.62073 0.0
C399 C 0.25483 0.04719 0.80578 0.0
C400 C 0.2652 0.1066 0.79968 0.0
H401 H 0.38138 0.112 0.52038 0.0
H402 H 0.31146 0.08903 0.3224 0.0
H403 H 0.2922 0.13989 0.43488 0.0
H404 H 0.25678 0.11998 0.46188 0.0
H405 H 0.27147 0.11639 0.3731 0.0
H406 H 0.27883 0.04005 0.48011 0.0
H407 H 0.26485 0.0591 0.39728 0.0
H408 H 0.24756 0.05314 0.48854 0.0
H409 H 0.39938 0.09683 0.77622 0.0
H410 H 0.33703 0.05237 0.95618 0.0
H411 H 0.30031 0.06666 0.87473 0.0
H412 H 0.36975 0.05292 0.69266 0.0
H413 H 0.39838 0.0822 0.64377 0.0
H414 H 0.36715 0.06548 0.59611 0.0
H415 H 0.37657 0.14842 0.68343 0.0
H416 H 0.36916 0.1437 0.58945 0.0
H417 H 0.4008 0.13453 0.63214 0.0
H418 H 0.39769 0.11041 0.3973 0.0
C419 C 0.36543 0.10632 0.48031 0.0
C420 C 0.483 0.32442 0.09979 0.0
C421 C 0.46685 0.3458 0.06796 0.0
C422 C 0.43736 0.3379 0.08277 0.0
C423 C 0.44216 0.29538 0.17672 0.0
C424 C 0.46931 0.29778 0.15271 0.0
C425 C 0.48014 0.27127 0.1995 0.0
H426 H 0.44878 0.16109 0.53047 0.0
C427 C 0.43631 0.27532 0.24923 0.0
C428 C 0.45661 0.25789 0.26189 0.0
H429 H 0.52093 0.17229 0.38117 0.0
H430 H 0.50458 0.21227 0.29312 0.0
H431 H 0.4678 0.22024 0.54609 0.0
H432 H 0.39946 0.1762 0.4318 0.0
H433 H 0.38804 0.20391 0.47482 0.0
H434 H 0.40512 0.17713 0.53067 0.0
H435 H 0.43393 0.22078 0.57791 0.0
H436 H 0.45554 0.25322 0.51338 0.0
C437 C 0.50893 0.28385 0.23281 0.0
C438 C 0.48163 0.24748 0.14879 0.0
C439 C 0.42131 0.3278 0.45987 0.0
C440 C 0.42316 0.31722 0.5375 0.0
C441 C 0.4127 0.28579 0.56695 0.0
C442 C 0.40518 0.26466 0.51709 0.0
C443 C 0.41081 0.2753 0.43914 0.0
C444 C 0.41571 0.30636 0.41083 0.0
C445 C 0.42117 0.31323 0.32653 0.0
C446 C 0.42224 0.28117 0.31147 0.0
C447 C 0.419 0.26019 0.37932 0.0
C448 C 0.44988 0.3373 0.30712 0.0
C449 C 0.39638 0.32519 0.28909 0.0
C450 C 0.46132 0.17159 0.47892 0.0
C451 C 0.48622 0.16322 0.46441 0.0
C452 C 0.50141 0.17785 0.3949 0.0
C453 C 0.49216 0.20121 0.34408 0.0
C454 C 0.46824 0.21085 0.36439 0.0
C455 C 0.45404 0.19623 0.43222 0.0
C456 C 0.43459 0.21343 0.45779 0.0
C457 C 0.43455 0.23718 0.38824 0.0
C458 C 0.45454 0.23647 0.33215 0.0
C459 C 0.44835 0.2277 0.52706 0.0
C460 C 0.40503 0.19154 0.47485 0.0
H461 H 0.40252 0.30744 0.15137 0.0
H462 H 0.50552 0.32932 0.08746 0.0
H463 H 0.46079 0.23954 0.12339 0.0
H464 H 0.48735 0.22695 0.1813 0.0
H465 H 0.49763 0.25783 0.10189 0.0
H466 H 0.50748 0.30188 0.2666 0.0
H467 H 0.52532 0.29418 0.18689 0.0
H468 H 0.51599 0.26527 0.27046 0.0
H469 H 0.42823 0.35223 0.43763 0.0
H470 H 0.413 0.27738 0.6272 0.0
H471 H 0.39784 0.24064 0.54052 0.0
H472 H 0.4674 0.32889 0.33685 0.0
H473 H 0.44941 0.35977 0.32312 0.0
H474 H 0.4551 0.34242 0.24577 0.0
H475 H 0.38922 0.34043 0.32329 0.0
H476 H 0.37798 0.30579 0.2834 0.0
H477 H 0.4027 0.3397 0.23289 0.0
H478 H 0.42442 0.35303 0.05717 0.0
C479 C 0.42489 0.31253 0.13728 0.0
Nd480 Nd 0.0136 0.03314 0.76888 0.0
Nd481 Nd 0.0327 0.05421 0.92849 0.0
C482 C 0.99186 1.01018 0.64748 0.0
C483 C 0.98578 0.97984 0.61882 0.0
C484 C 0.96161 0.95592 0.64354 0.0
C485 C 0.95525 0.92865 0.61195 0.0
C486 C 0.97267 0.9244 0.554 0.0
C487 C 0.99732 0.9479 0.53125 0.0
C488 C 1.00369 0.97512 0.56285 0.0
C489 C 0.06938 0.03635 0.8045 0.0
C490 C 0.01557 0.98243 0.91534 0.0
C491 C 0.06352 0.08582 0.02638 0.0
C492 C 0.06518 0.11335 0.0641 0.0
C493 C 0.09139 0.13468 0.06642 0.0
C494 C 0.09412 0.15973 0.10529 0.0
C495 C 0.07069 0.1643 0.14339 0.0
C496 C 0.04421 0.14346 0.13879 0.0
C497 C 0.04151 0.11833 0.10003 0.0
C498 C 0.97469 0.03836 0.92864 0.0
C499 C 0.02631 0.10501 0.78794 0.0
O500 O 0.97626 0.01311 0.70387 0.0
O501 O 0.01844 0.02458 0.65147 0.0
O502 O 0.05342 0.01426 0.77491 0.0
O503 O 0.05499 0.05478 0.81709 0.0
O504 O 1.00143 0.99071 0.85603 0.0
O505 O 0.03284 1.00243 0.95138 0.0
O506 O 0.06946 0.09098 0.95359 0.0
O507 O 0.04296 0.0611 0.04701 0.0
O508 O 0.9894 0.04777 0.98461 0.0
O509 O 0.99091 0.03764 0.87419 0.0
O510 O 0.01869 0.09444 0.85924 0.0
O511 O 0.025 0.08619 0.7383 0.0
H512 H 0.94733 0.95835 0.6868 0.0
H513 H 0.93651 0.91088 0.63295 0.0
H514 H 0.01132 0.94573 0.48698 0.0
H515 H 0.02249 0.99287 0.54208 0.0
H516 H 0.11004 0.13163 0.03917 0.0
H517 H 0.11485 0.17505 0.1073 0.0
H518 H 0.02544 0.14652 0.16533 0.0
H519 H 0.0209 0.10266 0.09878 0.0
Nd520 Nd 0.51902 0.01772 0.79061 0.0
Nd521 Nd 0.51821 0.05525 0.8964 0.0
C522 C 0.52784 0.97634 0.71106 0.0
C523 C 0.55352 0.9771 0.66442 0.0
C524 C 0.56207 0.94986 0.66162 0.0
C525 C 0.58756 0.95065 0.62398 0.0
C526 C 0.6054 0.97874 0.58746 0.0
C527 C 0.59645 1.006 0.58913 0.0
C528 C 0.57101 1.0052 0.62722 0.0
C529 C 0.51816 0.07519 0.71315 0.0
C530 C 0.57846 0.06074 0.81418 0.0
C531 C 0.50831 0.09646 0.97481 0.0
C532 C 0.48314 0.09608 0.02301 0.0
C533 C 0.4671 0.11798 1.0023 0.0
C534 C 0.44316 0.11774 0.0459 0.0
C535 C 0.43473 0.0959 0.11256 0.0
C536 C 0.45034 0.07343 0.1322 0.0
C537 C 0.47412 0.07345 0.08804 0.0
C538 C 0.5205 0.99798 0.97257 0.0
C539 C 0.45906 0.01264 0.87284 0.0
O540 O 0.53083 0.97354 0.78439 0.0
O541 O 0.51316 0.99641 0.68641 0.0
O542 O 0.53569 0.05931 0.69933 0.0
O543 O 0.503 0.06182 0.77306 0.0
O544 O 0.56265 0.0474 0.76501 0.0
O545 O 0.567 0.06644 0.87501 0.0
O546 O 0.50459 0.09845 0.90199 0.0
O547 O 0.524 0.07739 0.99939 0.0
O548 O 0.50245 0.01312 0.98754 0.0
O549 O 0.53552 0.01219 0.91304 0.0
O550 O 0.47585 0.02154 0.92544 0.0
O551 O 0.47034 1.0098 0.80868 0.0
H552 H 0.54933 0.92792 0.69024 0.0
H553 H 0.59352 0.9291 0.62474 0.0
H554 H 0.60877 0.02803 0.55996 0.0
H555 H 0.56519 0.02671 0.62812 0.0
H556 H 0.473 0.1353 0.9518 0.0
H557 H 0.43125 0.13479 0.02721 0.0
H558 H 0.44462 0.05621 0.18296 0.0
H559 H 0.48554 0.0558 0.10531 0.0
Nd560 Nd 0.51873 0.54703 0.92554 0.0
Nd561 Nd 0.52717 0.53131 0.7776 0.0
C562 C 0.51242 0.57177 0.04452 0.0
C563 C 0.52366 0.60372 0.05585 0.0
C564 C 0.51094 0.62742 0.02331 0.0
C565 C 0.52457 0.65821 0.02411 0.0
C566 C 0.55114 0.66542 0.05636 0.0
C567 C 0.56347 0.64185 0.09035 0.0
C568 C 0.54973 0.61127 0.09091 0.0
C569 C 0.56581 0.52439 0.91594 0.0
C570 C 0.54212 0.60456 0.78087 0.0
C571 C 0.54547 0.50636 0.67305 0.0
C572 C 0.53029 0.47747 0.64961 0.0
C573 C 0.54277 0.4523 0.65919 0.0
C574 C 0.52642 0.42277 0.65507 0.0
C575 C 0.49736 0.41808 0.64165 0.0
C576 C 0.48515 0.44343 0.62945 0.0
C577 C 0.5014 0.47282 0.63368 0.0
C578 C 0.47245 0.53973 0.77732 0.0
C579 C 0.49705 0.4753 0.91678 0.0
O580 O 0.49262 0.56688 0.99505 0.0
O581 O 0.53175 0.55676 0.03833 0.0
O582 O 0.54671 0.51493 0.96988 0.0
O583 O 0.55932 0.54492 0.86596 0.0
O584 O 0.53262 0.59639 0.8523 0.0
O585 O 0.54511 0.58338 0.74146 0.0
O586 O 0.55382 0.50263 0.74284 0.0
O587 O 0.53415 0.53002 0.65615 0.0
O588 O 0.48377 0.53049 0.7234 0.0
O589 O 0.48923 0.5424 0.83118 0.0
O590 O 0.51185 0.4829 0.85211 0.0
O591 O 0.49172 0.49709 0.95078 0.0
H592 H 0.49085 0.62226 0.99599 0.0
H593 H 0.51456 0.67632 0.99939 0.0
H594 H 0.58363 0.64714 0.11754 0.0
H595 H 0.56 0.59354 0.11678 0.0
H596 H 0.56485 0.45528 0.67318 0.0
H597 H 0.53634 0.40355 0.66354 0.0
H598 H 0.463 0.44057 0.61624 0.0
H599 H 0.49101 0.49165 0.62702 0.0
Nd600 Nd 0.01361 0.55901 0.78043 0.0
Nd601 Nd 0.02812 0.52443 0.93758 0.0
C602 C 0.98153 0.58315 0.68048 0.0
C603 C 0.95757 0.56863 0.63512 0.0
C604 C 0.92927 0.56387 0.66062 0.0
C605 C 0.90662 0.54979 0.61942 0.0
C606 C 0.91155 0.54004 0.55135 0.0
C607 C 0.93982 0.54458 0.52607 0.0
C608 C 0.96249 0.55862 0.56732 0.0
C609 C 0.03345 0.50873 0.75586 0.0
C610 C 0.96814 0.49752 0.87475 0.0
C611 C 0.05792 0.50337 0.04967 0.0
C612 C 0.08546 0.51676 0.08168 0.0
C613 C 0.10346 0.49777 0.10927 0.0
C614 C 0.12924 0.50999 0.14119 0.0
C615 C 0.13769 0.54156 0.14625 0.0
C616 C 0.11978 0.56066 0.11729 0.0
C617 C 0.09407 0.54845 0.085 0.0
C618 C 0.99825 0.56828 0.94756 0.0
C619 C 0.07508 0.58561 0.84287 0.0
O620 O 0.97666 0.57895 0.75384 0.0
O621 O 0.00721 0.58146 0.66316 0.0
O622 O 0.0262 0.52805 0.70234 0.0
O623 O 0.03027 0.51688 0.81853 0.0
O624 O 0.97345 0.52404 0.82807 0.0
O625 O 0.98758 0.48857 0.9189 0.0
O626 O 0.05882 0.49685 0.98145 0.0
O627 O 0.03707 0.51599 0.05989 0.0
O628 O 0.99402 0.5416 0.99161 0.0
O629 O 0.01829 0.57134 0.89938 0.0
O630 O 0.06838 0.56174 0.89834 0.0
O631 O 0.05689 0.59207 0.79074 0.0
H632 H 0.92456 0.57117 0.71258 0.0
H633 H 0.8852 0.54716 0.64014 0.0
H634 H 0.94446 0.53711 0.47428 0.0
H635 H 0.98388 0.56156 0.54597 0.0
H636 H 0.09744 0.47335 0.1068 0.0
H637 H 0.14252 0.49462 0.16249 0.0
H638 H 0.12515 0.58491 0.12161 0.0
H639 H 0.08073 0.56375 0.06358 0.0
C640 C 0.14729 0.04082 0.77611 0.0
C641 C 0.1558 0.06579 0.7156 0.0
C642 C 0.11943 0.03187 0.80624 0.0
C643 C 0.09921 0.04777 0.77754 0.0
H644 H 0.16215 0.02764 0.79933 0.0
H645 H 0.11359 0.01216 0.85155 0.0
S646 S 0.11063 0.11508 0.62108 0.0
N647 N 0.14189 0.10694 0.63042 0.0
N648 N 0.08924 0.0893 0.68456 0.0
C649 C 0.10742 0.0729 0.71759 0.0
C650 C 0.1358 0.08212 0.68725 0.0
C651 C 0.49162 0.14275 0.60392 0.0
C652 C 0.49622 0.14135 0.52639 0.0
C653 C 0.49801 0.12114 0.66383 0.0
C654 C 0.51022 0.09755 0.64962 0.0
H655 H 0.48291 0.16084 0.61905 0.0
H656 H 0.49381 0.12329 0.7217 0.0
S657 S 0.52669 0.08284 0.45842 0.0
N658 N 0.51328 0.11334 0.44029 0.0
N659 N 0.52668 0.07391 0.55166 0.0
C660 C 0.5155 0.0961 0.57269 0.0
C661 C 0.50835 0.11771 0.51165 0.0
C662 C 0.40217 0.55258 0.70099 0.0
C663 C 0.39705 0.5761 0.73752 0.0
C664 C 0.42615 0.54063 0.71569 0.0
C665 C 0.44598 0.55101 0.76891 0.0
H666 H 0.38746 0.54309 0.66048 0.0
H667 H 0.42921 0.52306 0.6847 0.0
S668 S 0.44379 0.61288 0.87879 0.0
N669 N 0.41514 0.61016 0.82784 0.0
N670 N 0.45933 0.58664 0.85753 0.0
C671 C 0.44114 0.57414 0.80689 0.0
C672 C 0.41695 0.58686 0.79085 0.0
C673 C 0.04621 0.44202 0.66839 0.0
C674 C 0.07272 0.43864 0.69552 0.0
C675 C 0.03346 0.46427 0.68981 0.0
C676 C 0.04614 0.48345 0.74118 0.0
H677 H 0.03491 0.42705 0.63124 0.0
H678 H 0.01328 0.46631 0.66634 0.0
S679 S 0.11684 0.48725 0.82215 0.0
N680 N 0.11273 0.45983 0.77004 0.0
N681 N 0.08741 0.49933 0.81457 0.0
C682 C 0.07266 0.48077 0.76822 0.0
C683 C 0.08625 0.45902 0.74429 0.0
C684 C 0.90099 0.03013 1.00388 0.0
C685 C 0.88524 1.00297 0.98151 0.0
C686 C 0.92951 0.04211 0.982 0.0
C687 C 0.94357 0.02772 0.93612 0.0
H688 H 0.89114 0.0425 0.03817 0.0
H689 H 0.94087 0.06271 1.00244 0.0
S690 S 0.91235 0.9559 0.86192 0.0
N691 N 0.88606 0.96167 0.91073 0.0
N692 N 0.9398 0.98489 0.86854 0.0
C693 C 0.92814 1.00093 0.91157 0.0
C694 C 0.89896 0.98838 0.93462 0.0
C695 C 0.56455 0.96161 0.12222 0.0
C696 C 0.54393 0.93992 0.1723 0.0
C697 C 0.55718 0.97904 0.05546 0.0
C698 C 0.52876 0.97627 0.03633 0.0
H699 H 0.58684 0.96476 0.13397 0.0
H700 H 0.57383 0.99536 0.01972 0.0
S701 S 0.46631 0.92504 0.14867 0.0
N702 N 0.49363 0.91779 0.19725 0.0
N703 N 0.47975 0.9516 0.07472 0.0
C704 C 0.50789 0.95577 0.08703 0.0
C705 C 0.51541 0.93755 0.15425 0.0
C706 C 0.61904 0.48004 0.99705 0.0
C707 C 0.64525 0.49851 0.96647 0.0
C708 C 0.59359 0.48785 0.97575 0.0
C709 C 0.59306 0.5147 0.92338 0.0
H710 H 0.61826 0.45984 0.03988 0.0
H711 H 0.57412 0.47321 1.00319 0.0
S712 S 0.65581 0.56947 0.82144 0.0
N713 N 0.66914 0.54361 0.87651 0.0
N714 N 0.62112 0.55855 0.83696 0.0
C715 C 0.61896 0.53245 0.88874 0.0
C716 C 0.64508 0.52431 0.91026 0.0
C717 C 0.98952 0.64949 0.95734 0.0
C718 C 0.9705 0.64446 0.01985 0.0
C719 C 0.99827 0.62495 0.93346 0.0
C720 C 0.98793 0.59424 0.97028 0.0
H721 H 0.99748 0.67264 0.92608 0.0
H722 H 0.01316 0.6301 0.88573 0.0
S723 S 0.93549 0.56852 0.13236 0.0
N724 N 0.94048 0.60641 0.11513 0.0
N725 N 0.95615 0.56031 0.07035 0.0
C726 C 0.96837 0.58896 0.03191 0.0
C727 C 0.95987 0.614 0.05667 0.0
C728 C 0.09769 0.15623 0.8077 0.0
C729 C 0.09267 0.18575 0.79568 0.0
C730 C 0.07631 0.13061 0.79858 0.0
C731 C 0.04898 0.13325 0.77774 0.0
H732 H 0.11839 0.15292 0.82374 0.0
H733 H 0.08115 0.10838 0.81108 0.0
S734 S 0.02443 0.20504 0.73854 0.0
N735 N 0.0581 0.21632 0.75869 0.0
N736 N 0.01757 0.16712 0.7467 0.0
C737 C 0.04336 0.16234 0.76628 0.0
C738 C 0.06527 0.18881 0.77411 0.0
C739 C 0.42056 0.07191 0.89155 0.0
C740 C 0.39208 0.05582 0.90295 0.0
C741 C 0.44046 0.05749 0.86996 0.0
C742 C 0.4343 0.02543 0.87272 0.0
H743 H 0.42655 0.09681 0.88671 0.0
H744 H 0.46131 0.07158 0.85252 0.0
S745 S 0.36535 0.97067 0.92893 0.0
N746 N 0.35924 1.00504 0.9281 0.0
N747 N 0.39935 0.97678 0.90628 0.0
C748 C 0.40709 1.00804 0.89687 0.0
C749 C 0.38559 0.02336 0.91011 0.0
C750 C 0.47138 0.3475 0.55399 0.0
C751 C 0.44293 0.33748 0.58005 0.0
C752 C 0.48974 0.37217 0.57947 0.0
C753 C 0.48019 0.38751 0.63184 0.0
H754 H 0.47892 0.33749 0.50978 0.0
H755 H 0.51081 0.38072 0.55357 0.0
S756 S 0.40948 0.36541 0.72933 0.0
N757 N 0.40725 0.34114 0.66903 0.0
N758 N 0.44203 0.38763 0.71865 0.0
C759 C 0.45265 0.37557 0.66418 0.0
C760 C 0.43391 0.3504 0.6379 0.0
C761 C 0.14092 0.65107 0.79235 0.0
C762 C 0.16318 0.63619 0.81019 0.0
C763 C 0.11238 0.63497 0.80409 0.0
C764 C 0.10493 0.60383 0.83823 0.0
H765 H 0.14544 0.67489 0.76419 0.0
H766 H 0.0961 0.64679 0.78469 0.0
S767 S 0.15442 0.55618 0.91582 0.0
N768 N 0.17512 0.58947 0.87607 0.0
N769 N 0.12189 0.56022 0.90323 0.0
C770 C 0.1268 0.58985 0.86597 0.0
C771 C 0.15582 0.60586 0.85154 0.0
C772 C 0.9631 0.91433 0.98986 0.0
C773 C 0.96106 0.89871 0.92714 0.0
C774 C 0.98606 0.93894 0.99703 0.0
C775 C 0.00771 0.94926 0.94125 0.0
H776 H 0.94639 0.90842 0.03301 0.0
H777 H 0.98489 0.95242 0.04094 0.0
S778 S 0.01471 0.91579 0.76975 0.0
N779 N 0.98419 0.89523 0.81009 0.0
N780 N 0.02817 0.94006 0.82721 0.0
C781 C 0.00789 0.93167 0.88369 0.0
C782 C 0.98401 0.90737 0.8744 0.0
C783 C 0.65848 0.07549 0.81375 0.0
C784 C 0.66181 0.04573 0.80971 0.0
C785 C 0.63137 0.08118 0.81474 0.0
C786 C 0.60745 0.05714 0.81116 0.0
H787 H 0.67635 0.09294 0.82751 0.0
H788 H 0.62908 0.10367 0.82226 0.0
S789 S 0.60635 0.97615 0.79532 0.0
N790 N 0.64012 0.99423 0.7885 0.0
N791 N 0.58932 1.00284 0.8029 0.0
C792 C 0.61114 0.0283 0.79952 0.0
C793 C 0.63855 0.02359 0.79178 0.0
C794 C 0.61071 0.73412 0.06386 0.0
C795 C 0.601 0.74563 0.12358 0.0
C796 C 0.59294 0.70985 0.0347 0.0
C797 C 0.56515 0.697 0.06434 0.0
H798 H 0.63261 0.74219 0.04392 0.0
H799 H 0.60163 0.69936 0.99341 0.0
S800 S 0.5288 0.72265 0.21264 0.0
N801 N 0.56102 0.74556 0.20436 0.0
N802 N 0.52782 0.69964 0.1499 0.0
C803 C 0.55443 0.71052 0.11844 0.0
C804 C 0.57241 0.73501 0.14819 0.0
C805 C 0.89932 0.43586 0.8762 0.0
C806 C 0.87902 0.45347 0.87561 0.0
C807 C 0.92851 0.4496 0.87871 0.0
C808 C 0.93798 0.48112 0.88253 0.0
H809 H 0.89248 0.41124 0.87695 0.0
H810 H 0.94361 0.43566 0.87708 0.0
S811 S 0.89333 0.53633 0.89137 0.0
N812 N 0.87065 0.50359 0.88344 0.0
N813 N 0.92485 0.52895 0.89074 0.0
C814 C 0.91781 0.49864 0.88353 0.0
C815 C 0.88852 0.48499 0.87916 0.0
C816 C 0.09578 0.24372 0.20638 0.0
C817 C 0.08394 0.23855 0.28028 0.0
C818 C 0.09108 0.21995 0.16211 0.0
C819 C 0.07419 0.18998 0.18959 0.0
H820 H 0.10969 0.26591 0.18374 0.0
H821 H 0.10104 0.22504 0.10608 0.0
S822 S 0.03897 0.16453 0.38083 0.0
N823 N 0.05476 0.20122 0.37901 0.0
N824 N 0.04616 0.15689 0.29729 0.0
C825 C 0.06199 0.18483 0.26324 0.0
C826 C 0.06682 0.20893 0.30803 0.0
C827 C 0.37074 0.07123 0.25331 0.0
C828 C 0.36916 0.09916 0.27533 0.0
C829 C 0.39108 0.07042 0.19835 0.0
C830 C 0.41083 0.09749 0.16358 0.0
H831 H 0.35753 0.04965 0.28249 0.0
H832 H 0.39201 0.04824 0.18509 0.0
S833 S 0.41537 0.17647 0.20283 0.0
N834 N 0.38848 0.15445 0.2572 0.0
N835 N 0.4269 0.15311 0.15629 0.0
C836 C 0.40857 0.12567 0.18338 0.0
C837 C 0.38774 0.12644 0.23847 0.0
C838 C 0.48516 0.38677 0.95253 0.0
C839 C 0.47941 0.37852 0.0312 0.0
C840 C 0.49071 0.41796 0.91591 0.0
C841 C 0.48994 0.44214 0.95605 0.0
H842 H 0.48447 0.36895 0.91872 0.0
H843 H 0.49507 0.42307 0.85527 0.0
S844 S 0.47592 0.43234 0.16356 0.0
N845 N 0.47368 0.39701 0.14798 0.0
N846 N 0.48346 0.45495 0.08019 0.0
C847 C 0.48439 0.43397 0.03492 0.0
C848 C 0.47928 0.40244 0.07203 0.0
C849 C 0.19279 0.54917 0.29927 0.0
C850 C 0.2112 0.57813 0.27379 0.0
C851 C 0.16969 0.53725 0.25657 0.0
C852 C 0.16398 0.55387 0.18662 0.0
H853 H 0.19555 0.53623 0.35431 0.0
H854 H 0.15552 0.51536 0.28024 0.0
S855 S 0.20737 0.63014 0.0929 0.0
N856 N 0.22309 0.6228 0.17371 0.0
N857 N 0.18025 0.60019 0.09181 0.0
C858 C 0.18296 0.58252 0.15942 0.0
C859 C 0.2064 0.59469 0.20338 0.0
C860 C 0.97863 0.85608 0.45675 0.0
C861 C 0.95111 0.84542 0.43123 0.0
C862 C 0.9853 0.88099 0.49749 0.0
C863 C 0.96476 0.89638 0.51513 0.0
H864 H 0.99546 0.846 0.4423 0.0
H865 H 0.00691 0.88854 0.51444 0.0
S866 S 0.88922 0.87689 0.46318 0.0
N867 N 0.90285 0.85152 0.43008 0.0
N868 N 0.91548 0.89848 0.50321 0.0
C869 C 0.93701 0.88533 0.49151 0.0
C870 C 0.9302 0.85994 0.45065 0.0
C871 C 0.65557 0.95566 0.45676 0.0
C872 C 0.68051 0.97958 0.45075 0.0
C873 C 0.63206 0.95539 0.50203 0.0
C874 C 0.63214 0.97896 0.54442 0.0
H875 H 0.65357 0.93784 0.42223 0.0
H876 H 0.61314 0.93714 0.50069 0.0
S877 S 0.69328 0.04584 0.55318 0.0
N878 N 0.70438 0.02692 0.49319 0.0
N879 N 0.66087 0.02594 0.5814 0.0
C880 C 0.65757 1.00237 0.54174 0.0
C881 C 0.68153 1.00272 0.4946 0.0
C882 C 0.55224 0.6933 0.74739 0.0
C883 C 0.55902 0.70219 0.66915 0.0
C884 C 0.54661 0.66189 0.78311 0.0
C885 C 0.54819 0.63805 0.74253 0.0
H886 H 0.55224 0.7108 0.78171 0.0
H887 H 0.54159 0.65638 0.84341 0.0
S888 S 0.56564 0.6497 0.53597 0.0
N889 N 0.56688 0.68467 0.55257 0.0
N890 N 0.55703 0.62653 0.6182 0.0
C891 C 0.55476 0.64693 0.66398 0.0
C892 C 0.56001 0.67864 0.62792 0.0
C893 C 0.86683 0.52308 0.3801 0.0
C894 C 0.84365 0.49916 0.41116 0.0
C895 C 0.88825 0.53639 0.42596 0.0
C896 C 0.88749 0.52627 0.50499 0.0
H897 H 0.86895 0.5308 0.3193 0.0
H898 H 0.90578 0.55455 0.39901 0.0
S899 S 0.83135 0.4635 0.61353 0.0
N900 N 0.82112 0.46552 0.52498 0.0
N901 N 0.86122 0.49036 0.61185 0.0
C902 C 0.86402 0.5026 0.53686 0.0
C903 C 0.84222 0.48903 0.4898 0.0
loop_
_geom_bond_atom_site_label_1
_geom_bond_atom_site_label_2
_geom_bond_distance
_geom_bond_site_symmetry_2
_ccdc_geom_bond_type
C0 C1 1.391 . S
C0 C4 1.391 . S
C0 H42 0.948 . S
C1 C0 1.391 . S
C1 C2 1.391 . S
C2 C1 1.391 . S
C2 H58 0.947 . S
C2 C59 1.392 . S
C3 C4 1.391 . S
C3 C7 1.397 . S
C3 C59 1.419 . S
C4 C0 1.391 . S
C4 C3 1.391 . S
C4 C5 1.399 . S
C5 C4 1.399 . S
C5 C8 1.396 . S
C5 C17 1.453 . S
C5 C18 1.684 . S
H6 C30 0.948 . S
C7 C3 1.397 . S
C7 C8 1.394 . S
C7 C26 1.723 . S
C8 C5 1.396 . S
C8 C7 1.394 . S
C8 C38 1.723 . S
H9 C32 0.947 . S
H10 C33 0.948 . S
H11 C39 0.982 . S
H12 C40 0.979 . S
H13 C40 0.980 . S
H14 C40 0.983 . S
H15 C39 0.979 . S
H16 C39 0.977 . S
C17 C5 1.453 . S
C17 H46 0.982 . S
C17 H47 0.979 . S
C17 H48 0.977 . S
C18 C5 1.684 . S
C18 H43 0.979 . S
C18 H44 0.980 . S
C18 H45 0.983 . S
C19 C20 1.391 . S
C19 C24 1.391 . S
C19 H49 0.948 . S
C20 C19 1.391 . S
C20 C21 1.391 . S
C21 C20 1.391 . S
C21 C22 1.392 . S
C21 H50 0.947 . S
C22 C21 1.392 . S
C22 C23 1.419 . S
C22 H51 0.948 . S
C23 C22 1.419 . S
C23 C24 1.391 . S
C23 C27 1.397 . S
C24 C19 1.391 . S
C24 C23 1.391 . S
C24 C25 1.399 1_556 S
C25 C24 1.399 1_554 S
C25 C26 1.396 . S
C25 C28 1.453 . S
C25 C29 1.684 . S
C26 C7 1.723 . S
C26 C25 1.396 . S
C26 C27 1.394 1_554 S
C27 C23 1.397 . S
C27 C26 1.394 1_556 S
C27 C37 1.723 . S
C28 C25 1.453 . S
C28 H52 0.982 . S
C28 H53 0.979 . S
C28 H54 0.977 . S
C29 C25 1.684 . S
C29 H55 0.979 . S
C29 H56 0.980 . S
C29 H57 0.983 . S
C30 H6 0.948 . S
C30 C31 1.391 . S
C30 C35 1.391 . S
C31 C30 1.391 . S
C31 C32 1.391 1_556 S
C32 H9 0.947 . S
C32 C31 1.391 1_554 S
C32 C33 1.392 . S
C33 H10 0.948 . S
C33 C32 1.392 . S
C33 C34 1.419 . S
C34 C33 1.419 . S
C34 C35 1.391 1_554 S
C34 C38 1.397 . S
C35 C30 1.391 . S
C35 C34 1.391 1_556 S
C35 C36 1.399 . S
C36 C35 1.399 . S
C36 C37 1.396 . S
C36 C39 1.453 . S
C36 C40 1.684 . S
C37 C27 1.723 . S
C37 C36 1.396 . S
C37 C38 1.394 1_556 S
C38 C8 1.723 . S
C38 C34 1.397 . S
C38 C37 1.394 1_554 S
C39 H11 0.982 . S
C39 H15 0.979 . S
C39 H16 0.977 . S
C39 C36 1.453 . S
C40 H12 0.979 . S
C40 H13 0.980 . S
C40 H14 0.983 . S
C40 C36 1.684 . S
H41 C59 0.948 . S
H42 C0 0.948 . S
H43 C18 0.979 . S
H44 C18 0.980 . S
H45 C18 0.983 . S
H46 C17 0.982 . S
H47 C17 0.979 . S
H48 C17 0.977 . S
H49 C19 0.948 . S
H50 C21 0.947 . S
H51 C22 0.948 . S
H52 C28 0.982 . S
H53 C28 0.979 . S
H54 C28 0.977 . S
H55 C29 0.979 . S
H56 C29 0.980 . S
H57 C29 0.983 . S
H58 C2 0.947 . S
C59 C2 1.392 . S
C59 C3 1.419 . S
C59 H41 0.948 . S
C60 C61 1.391 . S
C60 C64 1.391 . S
C60 H102 0.948 . S
C61 C60 1.391 . S
C61 C62 1.391 . S
C62 C61 1.391 . S
C62 H118 0.947 . S
C62 C119 1.392 . S
C63 C64 1.391 . S
C63 C67 1.397 1_556 S
C63 C119 1.419 . S
C64 C60 1.391 . S
C64 C63 1.391 . S
C64 C65 1.399 . S
C65 C64 1.399 . S
C65 C68 1.396 . S
C65 C77 1.453 . S
C65 C78 1.684 . S
H66 C90 0.948 . S
C67 C63 1.397 1_554 S
C67 C68 1.394 1_554 S
C67 C86 1.723 . S
C68 C65 1.396 . S
C68 C67 1.394 1_556 S
C68 C98 1.723 1_556 S
H69 C92 0.947 . S
H70 C93 0.948 . S
H71 C99 0.982 . S
H72 C100 0.979 . S
H73 C100 0.980 . S
H74 C100 0.983 . S
H75 C99 0.979 . S
H76 C99 0.977 . S
C77 C65 1.453 . S
C77 H106 0.982 . S
C77 H107 0.979 . S
C77 H108 0.977 . S
C78 C65 1.684 . S
C78 H103 0.979 . S
C78 H104 0.980 . S
C78 H105 0.983 . S
C79 C80 1.391 . S
C79 C84 1.391 . S
C79 H109 0.948 . S
C80 C79 1.391 . S
C80 C81 1.391 . S
C81 C80 1.391 . S
C81 C82 1.392 . S
C81 H110 0.947 . S
C82 C81 1.392 . S
C82 C83 1.419 . S
C82 H111 0.948 . S
C83 C82 1.419 . S
C83 C84 1.391 . S
C83 C87 1.397 . S
C84 C79 1.391 . S
C84 C83 1.391 . S
C84 C85 1.399 . S
C85 C84 1.399 . S
C85 C86 1.396 . S
C85 C88 1.453 . S
C85 C89 1.684 . S
C86 C67 1.723 . S
C86 C85 1.396 . S
C86 C87 1.394 . S
C87 C83 1.397 . S
C87 C86 1.394 . S
C87 C97 1.723 . S
C88 C85 1.453 . S
C88 H112 0.982 . S
C88 H113 0.979 . S
C88 H114 0.977 . S
C89 C85 1.684 . S
C89 H115 0.979 . S
C89 H116 0.980 . S
C89 H117 0.983 . S
C90 H66 0.948 . S
C90 C91 1.391 1_554 S
C90 C95 1.391 . S
C91 C90 1.391 1_556 S
C91 C92 1.391 . S
C92 H69 0.947 . S
C92 C91 1.391 . S
C92 C93 1.392 . S
C93 H70 0.948 . S
C93 C92 1.392 . S
C93 C94 1.419 1_556 S
C94 C93 1.419 1_554 S
C94 C95 1.391 . S
C94 C98 1.397 . S
C95 C90 1.391 . S
C95 C94 1.391 . S
C95 C96 1.399 . S
C96 C95 1.399 . S
C96 C97 1.396 . S
C96 C99 1.453 . S
C96 C100 1.684 . S
C97 C87 1.723 . S
C97 C96 1.396 . S
C97 C98 1.394 . S
C98 C68 1.723 1_554 S
C98 C94 1.397 . S
C98 C97 1.394 . S
C99 H71 0.982 . S
C99 H75 0.979 . S
C99 H76 0.977 . S
C99 C96 1.453 . S
C100 H72 0.979 . S
C100 H73 0.980 . S
C100 H74 0.983 . S
C100 C96 1.684 . S
H101 C119 0.948 1_554 S
H102 C60 0.948 . S
H103 C78 0.979 . S
H104 C78 0.980 . S
H105 C78 0.983 . S
H106 C77 0.982 . S
H107 C77 0.979 . S
H108 C77 0.977 . S
H109 C79 0.948 . S
H110 C81 0.947 . S
H111 C82 0.948 . S
H112 C88 0.982 . S
H113 C88 0.979 . S
H114 C88 0.977 . S
H115 C89 0.979 . S
H116 C89 0.980 . S
H117 C89 0.983 . S
H118 C62 0.947 . S
C119 C62 1.392 . S
C119 C63 1.419 . S
C119 H101 0.948 1_556 S
C120 C121 1.391 . S
C120 C124 1.391 1_556 S
C120 H162 0.948 1_556 S
C121 C120 1.391 . S
C121 C122 1.391 . S
C122 C121 1.391 . S
C122 H178 0.947 . S
C122 C179 1.392 . S
C123 C124 1.391 1_556 S
C123 C127 1.397 . S
C123 C179 1.419 . S
C124 C120 1.391 1_554 S
C124 C123 1.391 1_554 S
C124 C125 1.399 . S
C125 C124 1.399 . S
C125 C128 1.396 . S
C125 C137 1.453 . S
C125 C138 1.684 . S
H126 C150 0.948 . S
C127 C123 1.397 . S
C127 C128 1.394 1_556 S
C127 C146 1.723 . S
C128 C125 1.396 . S
C128 C127 1.394 1_554 S
C128 C158 1.723 . S
H129 C152 0.947 . S
H130 C153 0.948 . S
H131 C159 0.982 1_545 S
H132 C160 0.979 . S
H133 C160 0.980 . S
H134 C160 0.983 . S
H135 C159 0.979 . S
H136 C159 0.977 . S
C137 C125 1.453 . S
C137 H166 0.982 1_565 S
C137 H167 0.979 . S
C137 H168 0.977 . S
C138 C125 1.684 . S
C138 H163 0.979 . S
C138 H164 0.980 . S
C138 H165 0.983 . S
C139 C140 1.391 . S
C139 C144 1.391 . S
C139 H169 0.948 . S
C140 C139 1.391 . S
C140 C141 1.391 . S
C141 C140 1.391 . S
C141 C142 1.392 . S
C141 H170 0.947 . S
C142 C141 1.392 . S
C142 C143 1.419 . S
C142 H171 0.948 . S
C143 C142 1.419 . S
C143 C144 1.391 . S
C143 C147 1.397 . S
C144 C139 1.391 . S
C144 C143 1.391 . S
C144 C145 1.399 . S
C145 C144 1.399 . S
C145 C146 1.396 . S
C145 C148 1.453 . S
C145 C149 1.684 . S
C146 C127 1.723 . S
C146 C145 1.396 . S
C146 C147 1.394 . S
C147 C143 1.397 . S
C147 C146 1.394 . S
C147 C157 1.723 1_556 S
C148 C145 1.453 . S
C148 H172 0.982 1_565 S
C148 H173 0.979 . S
C148 H174 0.977 . S
C149 C145 1.684 . S
C149 H175 0.979 . S
C149 H176 0.980 . S
C149 H177 0.983 . S
C150 H126 0.948 . S
C150 C151 1.391 . S
C150 C155 1.391 . S
C151 C150 1.391 . S
C151 C152 1.391 . S
C152 H129 0.947 . S
C152 C151 1.391 . S
C152 C153 1.392 . S
C153 H130 0.948 . S
C153 C152 1.392 . S
C153 C154 1.419 . S
C154 C153 1.419 . S
C154 C155 1.391 . S
C154 C158 1.397 . S
C155 C150 1.391 . S
C155 C154 1.391 . S
C155 C156 1.399 . S
C156 C155 1.399 . S
C156 C157 1.396 . S
C156 C159 1.453 . S
C156 C160 1.684 . S
C157 C147 1.723 1_554 S
C157 C156 1.396 . S
C157 C158 1.394 . S
C158 C128 1.723 . S
C158 C154 1.397 . S
C158 C157 1.394 . S
C159 H131 0.982 1_565 S
C159 H135 0.979 . S
C159 H136 0.977 . S
C159 C156 1.453 . S
C160 H132 0.979 . S
C160 H133 0.980 . S
C160 H134 0.983 . S
C160 C156 1.684 . S
H161 C179 0.948 . S
H162 C120 0.948 1_554 S
H163 C138 0.979 . S
H164 C138 0.980 . S
H165 C138 0.983 . S
H166 C137 0.982 1_545 S
H167 C137 0.979 . S
H168 C137 0.977 . S
H169 C139 0.948 . S
H170 C141 0.947 . S
H171 C142 0.948 . S
H172 C148 0.982 1_545 S
H173 C148 0.979 . S
H174 C148 0.977 . S
H175 C149 0.979 . S
H176 C149 0.980 . S
H177 C149 0.983 . S
H178 C122 0.947 . S
C179 C122 1.392 . S
C179 C123 1.419 . S
C179 H161 0.948 . S
C180 C181 1.391 . S
C180 C184 1.391 . S
C180 H222 0.948 . S
C181 C180 1.391 . S
C181 C182 1.391 . S
C182 C181 1.391 . S
C182 H238 0.947 . S
C182 C239 1.392 . S
C183 C184 1.391 . S
C183 C187 1.397 . S
C183 C239 1.419 . S
C184 C180 1.391 . S
C184 C183 1.391 . S
C184 C185 1.399 . S
C185 C184 1.399 . S
C185 C188 1.396 . S
C185 C197 1.453 . S
C185 C198 1.684 . S
H186 C210 0.948 . S
C187 C183 1.397 . S
C187 C188 1.394 . S
C187 C206 1.723 . S
C188 C185 1.396 . S
C188 C187 1.394 . S
C188 C218 1.723 . S
H189 C212 0.947 . S
H190 C213 0.948 . S
H191 C219 0.982 . S
H192 C220 0.979 . S
H193 C220 0.980 . S
H194 C220 0.983 . S
H195 C219 0.979 . S
H196 C219 0.977 . S
C197 C185 1.453 . S
C197 H226 0.982 . S
C197 H227 0.979 . S
C197 H228 0.977 . S
C198 C185 1.684 . S
C198 H223 0.979 . S
C198 H224 0.980 . S
C198 H225 0.983 . S
C199 C200 1.391 . S
C199 C204 1.391 . S
C199 H229 0.948 . S
C200 C199 1.391 . S
C200 C201 1.391 . S
C201 C200 1.391 . S
C201 C202 1.392 . S
C201 H230 0.947 . S
C202 C201 1.392 . S
C202 C203 1.419 . S
C202 H231 0.948 . S
C203 C202 1.419 . S
C203 C204 1.391 . S
C203 C207 1.397 . S
C204 C199 1.391 . S
C204 C203 1.391 . S
C204 C205 1.399 . S
C205 C204 1.399 . S
C205 C206 1.396 . S
C205 C208 1.453 . S
C205 C209 1.684 . S
C206 C187 1.723 . S
C206 C205 1.396 . S
C206 C207 1.394 . S
C207 C203 1.397 . S
C207 C206 1.394 . S
C207 C217 1.723 . S
C208 C205 1.453 . S
C208 H232 0.982 . S
C208 H233 0.979 . S
C208 H234 0.977 . S
C209 C205 1.684 . S
C209 H235 0.979 . S
C209 H236 0.980 . S
C209 H237 0.983 . S
C210 H186 0.948 . S
C210 C211 1.391 . S
C210 C215 1.391 . S
C211 C210 1.391 . S
C211 C212 1.391 . S
C212 H189 0.947 . S
C212 C211 1.391 . S
C212 C213 1.392 . S
C213 H190 0.948 . S
C213 C212 1.392 . S
C213 C214 1.419 . S
C214 C213 1.419 . S
C214 C215 1.391 . S
C214 C218 1.397 . S
C215 C210 1.391 . S
C215 C214 1.391 . S
C215 C216 1.399 . S
C216 C215 1.399 . S
C216 C217 1.396 . S
C216 C219 1.453 . S
C216 C220 1.684 . S
C217 C207 1.723 . S
C217 C216 1.396 . S
C217 C218 1.394 . S
C218 C188 1.723 . S
C218 C214 1.397 . S
C218 C217 1.394 . S
C219 H191 0.982 . S
C219 H195 0.979 . S
C219 H196 0.977 . S
C219 C216 1.453 . S
C220 H192 0.979 . S
C220 H193 0.980 . S
C220 H194 0.983 . S
C220 C216 1.684 . S
H221 C239 0.948 . S
H222 C180 0.948 . S
H223 C198 0.979 . S
H224 C198 0.980 . S
H225 C198 0.983 . S
H226 C197 0.982 . S
H227 C197 0.979 . S
H228 C197 0.977 . S
H229 C199 0.948 . S
H230 C201 0.947 . S
H231 C202 0.948 . S
H232 C208 0.982 . S
H233 C208 0.979 . S
H234 C208 0.977 . S
H235 C209 0.979 . S
H236 C209 0.980 . S
H237 C209 0.983 . S
H238 C182 0.947 . S
C239 C182 1.392 . S
C239 C183 1.419 . S
C239 H221 0.948 . S
C240 C241 1.391 . S
C240 C244 1.391 . S
C240 H282 0.948 . S
C241 C240 1.391 . S
C241 C242 1.391 . S
C242 C241 1.391 . S
C242 H298 0.947 . S
C242 C299 1.392 . S
C243 C244 1.391 . S
C243 C247 1.397 . S
C243 C299 1.419 . S
C244 C240 1.391 . S
C244 C243 1.391 . S
C244 C245 1.399 . S
C245 C244 1.399 . S
C245 C248 1.396 . S
C245 C257 1.453 . S
C245 C258 1.684 . S
H246 C270 0.948 . S
C247 C243 1.397 . S
C247 C248 1.394 . S
C247 C266 1.723 . S
C248 C245 1.396 . S
C248 C247 1.394 . S
C248 C278 1.723 . S
H249 C272 0.947 . S
H250 C273 0.948 . S
H251 C279 0.982 . S
H252 C280 0.979 . S
H253 C280 0.980 . S
H254 C280 0.983 . S
H255 C279 0.979 . S
H256 C279 0.977 . S
C257 C245 1.453 . S
C257 H286 0.982 . S
C257 H287 0.979 . S
C257 H288 0.977 . S
C258 C245 1.684 . S
C258 H283 0.979 . S
C258 H284 0.980 . S
C258 H285 0.983 . S
C259 C260 1.391 . S
C259 C264 1.391 . S
C259 H289 0.948 . S
C260 C259 1.391 . S
C260 C261 1.391 . S
C261 C260 1.391 . S
C261 C262 1.392 . S
C261 H290 0.947 . S
C262 C261 1.392 . S
C262 C263 1.419 . S
C262 H291 0.948 . S
C263 C262 1.419 . S
C263 C264 1.391 . S
C263 C267 1.397 . S
C264 C259 1.391 . S
C264 C263 1.391 . S
C264 C265 1.399 . S
C265 C264 1.399 . S
C265 C266 1.396 . S
C265 C268 1.453 . S
C265 C269 1.684 . S
C266 C247 1.723 . S
C266 C265 1.396 . S
C266 C267 1.394 . S
C267 C263 1.397 . S
C267 C266 1.394 . S
C267 C277 1.723 . S
C268 C265 1.453 . S
C268 H292 0.982 . S
C268 H293 0.979 . S
C268 H294 0.977 . S
C269 C265 1.684 . S
C269 H295 0.979 . S
C269 H296 0.980 . S
C269 H297 0.983 . S
C270 H246 0.948 . S
C270 C271 1.391 . S
C270 C275 1.391 . S
C271 C270 1.391 . S
C271 C272 1.391 . S
C272 H249 0.947 . S
C272 C271 1.391 . S
C272 C273 1.392 . S
C273 H250 0.948 . S
C273 C272 1.392 . S
C273 C274 1.419 . S
C274 C273 1.419 . S
C274 C275 1.391 . S
C274 C278 1.397 . S
C275 C270 1.391 . S
C275 C274 1.391 . S
C275 C276 1.399 . S
C276 C275 1.399 . S
C276 C277 1.396 . S
C276 C279 1.453 . S
C276 C280 1.684 . S
C277 C267 1.723 . S
C277 C276 1.396 . S
C277 C278 1.394 . S
C278 C248 1.723 . S
C278 C274 1.397 . S
C278 C277 1.394 . S
C279 H251 0.982 . S
C279 H255 0.979 . S
C279 H256 0.977 . S
C279 C276 1.453 . S
C280 H252 0.979 . S
C280 H253 0.980 . S
C280 H254 0.983 . S
C280 C276 1.684 . S
H281 C299 0.948 . S
H282 C240 0.948 . S
H283 C258 0.979 . S
H284 C258 0.980 . S
H285 C258 0.983 . S
H286 C257 0.982 . S
H287 C257 0.979 . S
H288 C257 0.977 . S
H289 C259 0.948 . S
H290 C261 0.947 . S
H291 C262 0.948 . S
H292 C268 0.982 . S
H293 C268 0.979 . S
H294 C268 0.977 . S
H295 C269 0.979 . S
H296 C269 0.980 . S
H297 C269 0.983 . S
H298 C242 0.947 . S
C299 C242 1.392 . S
C299 C243 1.419 . S
C299 H281 0.948 . S
C300 C301 1.391 . S
C300 C304 1.391 . S
C300 H342 0.948 . S
C301 C300 1.391 . S
C301 C302 1.391 . S
C302 C301 1.391 . S
C302 H358 0.947 . S
C302 C359 1.392 . S
C303 C304 1.391 . S
C303 C307 1.397 . S
C303 C359 1.419 . S
C304 C300 1.391 . S
C304 C303 1.391 . S
C304 C305 1.399 . S
C305 C304 1.399 . S
C305 C308 1.396 . S
C305 C317 1.453 . S
C305 C318 1.684 . S
H306 C330 0.948 . S
C307 C303 1.397 . S
C307 C308 1.394 . S
C307 C326 1.723 . S
C308 C305 1.396 . S
C308 C307 1.394 . S
C308 C338 1.723 . S
H309 C332 0.947 . S
H310 C333 0.948 . S
H311 C339 0.982 . S
H312 C340 0.979 . S
H313 C340 0.980 . S
H314 C340 0.983 . S
H315 C339 0.979 . S
H316 C339 0.977 . S
C317 C305 1.453 . S
C317 H346 0.982 . S
C317 H347 0.979 . S
C317 H348 0.977 . S
C318 C305 1.684 . S
C318 H343 0.979 . S
C318 H344 0.980 . S
C318 H345 0.983 . S
C319 C320 1.391 . S
C319 C324 1.391 . S
C319 H349 0.948 . S
C320 C319 1.391 . S
C320 C321 1.391 . S
C321 C320 1.391 . S
C321 C322 1.392 . S
C321 H350 0.947 . S
C322 C321 1.392 . S
C322 C323 1.419 . S
C322 H351 0.948 . S
C323 C322 1.419 . S
C323 C324 1.391 . S
C323 C327 1.397 . S
C324 C319 1.391 . S
C324 C323 1.391 . S
C324 C325 1.399 . S
C325 C324 1.399 . S
C325 C326 1.396 . S
C325 C328 1.453 . S
C325 C329 1.684 . S
C326 C307 1.723 . S
C326 C325 1.396 . S
C326 C327 1.394 . S
C327 C323 1.397 . S
C327 C326 1.394 . S
C327 C337 1.723 . S
C328 C325 1.453 . S
C328 H352 0.982 . S
C328 H353 0.979 . S
C328 H354 0.977 . S
C329 C325 1.684 . S
C329 H355 0.979 . S
C329 H356 0.980 . S
C329 H357 0.983 . S
C330 H306 0.948 . S
C330 C331 1.391 . S
C330 C335 1.391 . S
C331 C330 1.391 . S
C331 C332 1.391 . S
C332 H309 0.947 . S
C332 C331 1.391 . S
C332 C333 1.392 . S
C333 H310 0.948 . S
C333 C332 1.392 . S
C333 C334 1.419 . S
C334 C333 1.419 . S
C334 C335 1.391 . S
C334 C338 1.397 . S
C335 C330 1.391 . S
C335 C334 1.391 . S
C335 C336 1.399 . S
C336 C335 1.399 . S
C336 C337 1.396 . S
C336 C339 1.453 . S
C336 C340 1.684 . S
C337 C327 1.723 . S
C337 C336 1.396 . S
C337 C338 1.394 . S
C338 C308 1.723 . S
C338 C334 1.397 . S
C338 C337 1.394 . S
C339 H311 0.982 . S
C339 H315 0.979 . S
C339 H316 0.977 . S
C339 C336 1.453 . S
C340 H312 0.979 . S
C340 H313 0.980 . S
C340 H314 0.983 . S
C340 C336 1.684 . S
H341 C359 0.948 . S
H342 C300 0.948 . S
H343 C318 0.979 . S
H344 C318 0.980 . S
H345 C318 0.983 . S
H346 C317 0.982 . S
H347 C317 0.979 . S
H348 C317 0.977 . S
H349 C319 0.948 . S
H350 C321 0.947 . S
H351 C322 0.948 . S
H352 C328 0.982 . S
H353 C328 0.979 . S
H354 C328 0.977 . S
H355 C329 0.979 . S
H356 C329 0.980 . S
H357 C329 0.983 . S
H358 C302 0.947 . S
C359 C302 1.392 . S
C359 C303 1.419 . S
C359 H341 0.948 . S
C360 C361 1.391 . S
C360 C364 1.391 . S
C360 H402 0.948 . S
C361 C360 1.391 . S
C361 C362 1.391 . S
C362 C361 1.391 . S
C362 H418 0.947 . S
C362 C419 1.392 . S
C363 C364 1.391 . S
C363 C367 1.397 . S
C363 C419 1.419 . S
C364 C360 1.391 . S
C364 C363 1.391 . S
C364 C365 1.399 . S
C365 C364 1.399 . S
C365 C368 1.396 . S
C365 C377 1.453 . S
C365 C378 1.684 . S
H366 C390 0.948 . S
C367 C363 1.397 . S
C367 C368 1.394 . S
C367 C386 1.723 . S
C368 C365 1.396 . S
C368 C367 1.394 . S
C368 C398 1.723 . S
H369 C392 0.947 . S
H370 C393 0.948 . S
H371 C399 0.982 . S
H372 C400 0.979 . S
H373 C400 0.980 . S
H374 C400 0.983 . S
H375 C399 0.979 . S
H376 C399 0.977 . S
C377 C365 1.453 . S
C377 H406 0.982 . S
C377 H407 0.979 . S
C377 H408 0.977 . S
C378 C365 1.684 . S
C378 H403 0.979 . S
C378 H404 0.980 . S
C378 H405 0.983 . S
C379 C380 1.391 . S
C379 C384 1.391 . S
C379 H409 0.948 . S
C380 C379 1.391 . S
C380 C381 1.391 . S
C381 C380 1.391 . S
C381 C382 1.392 . S
C381 H410 0.947 . S
C382 C381 1.392 . S
C382 C383 1.419 . S
C382 H411 0.948 . S
C383 C382 1.419 . S
C383 C384 1.391 . S
C383 C387 1.397 . S
C384 C379 1.391 . S
C384 C383 1.391 . S
C384 C385 1.399 . S
C385 C384 1.399 . S
C385 C386 1.396 . S
C385 C388 1.453 . S
C385 C389 1.684 . S
C386 C367 1.723 . S
C386 C385 1.396 . S
C386 C387 1.394 . S
C387 C383 1.397 . S
C387 C386 1.394 . S
C387 C397 1.723 . S
C388 C385 1.453 . S
C388 H412 0.982 . S
C388 H413 0.979 . S
C388 H414 0.977 . S
C389 C385 1.684 . S
C389 H415 0.979 . S
C389 H416 0.980 . S
C389 H417 0.983 . S
C390 H366 0.948 . S
C390 C391 1.391 . S
C390 C395 1.391 . S
C391 C390 1.391 . S
C391 C392 1.391 . S
C392 H369 0.947 . S
C392 C391 1.391 . S
C392 C393 1.392 . S
C393 H370 0.948 . S
C393 C392 1.392 . S
C393 C394 1.419 . S
C394 C393 1.419 . S
C394 C395 1.391 . S
C394 C398 1.397 . S
C395 C390 1.391 . S
C395 C394 1.391 . S
C395 C396 1.399 . S
C396 C395 1.399 . S
C396 C397 1.396 . S
C396 C399 1.453 . S
C396 C400 1.684 . S
C397 C387 1.723 . S
C397 C396 1.396 . S
C397 C398 1.394 . S
C398 C368 1.723 . S
C398 C394 1.397 . S
C398 C397 1.394 . S
C399 H371 0.982 . S
C399 H375 0.979 . S
C399 H376 0.977 . S
C399 C396 1.453 . S
C400 H372 0.979 . S
C400 H373 0.980 . S
C400 H374 0.983 . S
C400 C396 1.684 . S
H401 C419 0.948 . S
H402 C360 0.948 . S
H403 C378 0.979 . S
H404 C378 0.980 . S
H405 C378 0.983 . S
H406 C377 0.982 . S
H407 C377 0.979 . S
H408 C377 0.977 . S
H409 C379 0.948 . S
H410 C381 0.947 . S
H411 C382 0.948 . S
H412 C388 0.982 . S
H413 C388 0.979 . S
H414 C388 0.977 . S
H415 C389 0.979 . S
H416 C389 0.980 . S
H417 C389 0.983 . S
H418 C362 0.947 . S
C419 C362 1.392 . S
C419 C363 1.419 . S
C419 H401 0.948 . S
C420 C421 1.391 . S
C420 C424 1.391 . S
C420 H462 0.948 . S
C421 C420 1.391 . S
C421 C422 1.391 . S
C422 C421 1.391 . S
C422 H478 0.947 . S
C422 C479 1.392 . S
C423 C424 1.391 . S
C423 C427 1.397 . S
C423 C479 1.419 . S
C424 C420 1.391 . S
C424 C423 1.391 . S
C424 C425 1.399 . S
C425 C424 1.399 . S
C425 C428 1.396 . S
C425 C437 1.453 . S
C425 C438 1.684 . S
H426 C450 0.948 . S
C427 C423 1.397 . S
C427 C428 1.394 . S
C427 C446 1.723 . S
C428 C425 1.396 . S
C428 C427 1.394 . S
C428 C458 1.723 . S
H429 C452 0.947 . S
H430 C453 0.948 . S
H431 C459 0.982 . S
H432 C460 0.979 . S
H433 C460 0.980 . S
H434 C460 0.983 . S
H435 C459 0.979 . S
H436 C459 0.977 . S
C437 C425 1.453 . S
C437 H466 0.982 . S
C437 H467 0.979 . S
C437 H468 0.977 . S
C438 C425 1.684 . S
C438 H463 0.979 . S
C438 H464 0.980 . S
C438 H465 0.983 . S
C439 C440 1.391 . S
C439 C444 1.391 . S
C439 H469 0.948 . S
C440 C439 1.391 . S
C440 C441 1.391 . S
C441 C440 1.391 . S
C441 C442 1.392 . S
C441 H470 0.947 . S
C442 C441 1.392 . S
C442 C443 1.419 . S
C442 H471 0.948 . S
C443 C442 1.419 . S
C443 C444 1.391 . S
C443 C447 1.397 . S
C444 C439 1.391 . S
C444 C443 1.391 . S
C444 C445 1.399 . S
C445 C444 1.399 . S
C445 C446 1.396 . S
C445 C448 1.453 . S
C445 C449 1.684 . S
C446 C427 1.723 . S
C446 C445 1.396 . S
C446 C447 1.394 . S
C447 C443 1.397 . S
C447 C446 1.394 . S
C447 C457 1.723 . S
C448 C445 1.453 . S
C448 H472 0.982 . S
C448 H473 0.979 . S
C448 H474 0.977 . S
C449 C445 1.684 . S
C449 H475 0.979 . S
C449 H476 0.980 . S
C449 H477 0.983 . S
C450 H426 0.948 . S
C450 C451 1.391 . S
C450 C455 1.391 . S
C451 C450 1.391 . S
C451 C452 1.391 . S
C452 H429 0.947 . S
C452 C451 1.391 . S
C452 C453 1.392 . S
C453 H430 0.948 . S
C453 C452 1.392 . S
C453 C454 1.419 . S
C454 C453 1.419 . S
C454 C455 1.391 . S
C454 C458 1.397 . S
C455 C450 1.391 . S
C455 C454 1.391 . S
C455 C456 1.399 . S
C456 C455 1.399 . S
C456 C457 1.396 . S
C456 C459 1.453 . S
C456 C460 1.684 . S
C457 C447 1.723 . S
C457 C456 1.396 . S
C457 C458 1.394 . S
C458 C428 1.723 . S
C458 C454 1.397 . S
C458 C457 1.394 . S
C459 H431 0.982 . S
C459 H435 0.979 . S
C459 H436 0.977 . S
C459 C456 1.453 . S
C460 H432 0.979 . S
C460 H433 0.980 . S
C460 H434 0.983 . S
C460 C456 1.684 . S
H461 C479 0.948 . S
H462 C420 0.948 . S
H463 C438 0.979 . S
H464 C438 0.980 . S
H465 C438 0.983 . S
H466 C437 0.982 . S
H467 C437 0.979 . S
H468 C437 0.977 . S
H469 C439 0.948 . S
H470 C441 0.947 . S
H471 C442 0.948 . S
H472 C448 0.982 . S
H473 C448 0.979 . S
H474 C448 0.977 . S
H475 C449 0.979 . S
H476 C449 0.980 . S
H477 C449 0.983 . S
H478 C422 0.947 . S
C479 C422 1.392 . S
C479 C423 1.419 . S
C479 H461 0.948 . S
Nd480 C482 2.836 1_445 S
Nd480 O500 2.500 1_445 S
Nd480 O501 2.492 1_545 S
Nd480 O502 2.487 . S
Nd480 O503 2.682 . S
Nd480 O504 2.410 1_545 S
Nd480 O509 2.414 1_455 S
Nd480 O511 2.424 . S
Nd481 C491 2.836 1_556 S
Nd481 O503 2.414 . S
Nd481 O505 2.424 1_545 S
Nd481 O506 2.500 . S
Nd481 O507 2.492 1_556 S
Nd481 O508 2.487 1_455 S
Nd481 O509 2.682 1_455 S
Nd481 O510 2.410 . S
C482 Nd480 2.836 1_665 S
C482 C483 1.498 . S
C482 O500 1.258 . S
C482 O501 1.239 1_655 S
C483 C482 1.498 . S
C483 C484 1.366 . S
C483 C488 1.407 . S
C484 C483 1.366 . S
C484 C485 1.392 . S
C484 H512 0.930 . S
C485 C484 1.392 . S
C485 C486 1.398 . S
C485 H513 0.929 . S
C486 C485 1.398 . S
C486 C487 1.352 . S
C487 C486 1.352 . S
C487 C488 1.384 . S
C487 H514 0.930 . S
C488 C483 1.407 . S
C488 C487 1.384 . S
C488 H515 0.929 1_655 S
C489 O502 1.241 . S
C489 O503 1.273 . S
C490 O504 1.251 . S
C490 O505 1.268 . S
C491 Nd481 2.836 1_554 S
C491 C492 1.498 . S
C491 O506 1.258 1_554 S
C491 O507 1.239 . S
C492 C491 1.498 . S
C492 C493 1.366 . S
C492 C497 1.407 . S
C493 C492 1.366 . S
C493 C494 1.392 . S
C493 H516 0.930 . S
C494 C493 1.392 . S
C494 C495 1.398 . S
C494 H517 0.929 . S
C495 C494 1.398 . S
C495 C496 1.352 . S
C496 C495 1.352 . S
C496 C497 1.384 . S
C496 H518 0.930 . S
C497 C492 1.407 . S
C497 C496 1.384 . S
C497 H519 0.929 . S
C498 O508 1.241 . S
C498 O509 1.273 . S
C499 O510 1.251 . S
C499 O511 1.268 . S
O500 Nd480 2.500 1_665 S
O500 C482 1.258 . S
O501 Nd480 2.492 1_565 S
O501 C482 1.239 1_455 S
O502 Nd480 2.487 . S
O502 C489 1.241 . S
O503 Nd480 2.682 . S
O503 Nd481 2.414 . S
O503 C489 1.273 . S
O504 Nd480 2.410 1_565 S
O504 C490 1.251 . S
O505 Nd481 2.424 1_565 S
O505 C490 1.268 . S
O506 Nd481 2.500 . S
O506 C491 1.258 1_556 S
O507 Nd481 2.492 1_554 S
O507 C491 1.239 . S
O508 Nd481 2.487 1_655 S
O508 C498 1.241 . S
O509 Nd480 2.414 1_655 S
O509 Nd481 2.682 1_655 S
O509 C498 1.273 . S
O510 Nd481 2.410 . S
O510 C499 1.251 . S
O511 Nd480 2.424 . S
O511 C499 1.268 . S
H512 C484 0.930 . S
H513 C485 0.929 . S
H514 C487 0.930 . S
H515 C488 0.929 1_455 S
H516 C493 0.930 . S
H517 C494 0.929 . S
H518 C496 0.930 . S
H519 C497 0.929 . S
Nd520 C522 2.836 1_545 S
Nd520 O540 2.500 1_545 S
Nd520 O541 2.492 . S
Nd520 O542 2.487 . S
Nd520 O543 2.682 . S
Nd520 O544 2.410 . S
Nd520 O549 2.414 1_545 S
Nd520 O551 2.424 . S
Nd521 C531 2.836 1_556 S
Nd521 O543 2.414 . S
Nd521 O545 2.424 . S
Nd521 O546 2.500 . S
Nd521 O547 2.492 1_556 S
Nd521 O548 2.484 1_546 S
Nd521 O549 2.682 1_545 S
Nd521 O550 2.410 . S
C522 Nd520 2.836 1_565 S
C522 C523 1.498 . S
C522 O540 1.258 . S
C522 O541 1.239 1_565 S
C523 C522 1.498 . S
C523 C524 1.366 . S
C523 C528 1.407 . S
C524 C523 1.366 . S
C524 C525 1.392 . S
C524 H552 0.930 . S
C525 C524 1.392 . S
C525 C526 1.398 . S
C525 H553 0.929 . S
C526 C525 1.398 . S
C526 C527 1.352 . S
C527 C526 1.352 . S
C527 C528 1.384 . S
C527 H554 0.930 . S
C528 C523 1.407 . S
C528 C527 1.384 . S
C528 H555 0.929 1_565 S
C529 O542 1.241 . S
C529 O543 1.273 . S
C530 O544 1.251 . S
C530 O545 1.268 . S
C531 Nd521 2.836 1_554 S
C531 C532 1.498 . S
C531 O546 1.258 1_554 S
C531 O547 1.239 . S
C532 C531 1.498 . S
C532 C533 1.366 . S
C532 C537 1.407 . S
C533 C532 1.366 . S
C533 C534 1.392 . S
C533 H556 0.930 1_554 S
C534 C533 1.392 . S
C534 C535 1.398 . S
C534 H557 0.929 . S
C535 C534 1.398 . S
C535 C536 1.352 . S
C536 C535 1.352 . S
C536 C537 1.384 . S
C536 H558 0.930 . S
C537 C532 1.407 . S
C537 C536 1.384 . S
C537 H559 0.929 . S
C538 O548 1.234 1_556 S
C538 O549 1.273 . S
C539 O550 1.251 . S
C539 O551 1.268 . S
O540 Nd520 2.500 1_565 S
O540 C522 1.258 . S
O541 Nd520 2.492 . S
O541 C522 1.239 1_545 S
O542 Nd520 2.487 . S
O542 C529 1.241 . S
O543 Nd520 2.682 . S
O543 Nd521 2.414 . S
O543 C529 1.273 . S
O544 Nd520 2.410 . S
O544 C530 1.251 . S
O545 Nd521 2.424 . S
O545 C530 1.268 . S
O546 Nd521 2.500 . S
O546 C531 1.258 1_556 S
O547 Nd521 2.492 1_554 S
O547 C531 1.239 . S
O548 Nd521 2.484 1_564 S
O548 C538 1.234 1_554 S
O549 Nd520 2.414 1_565 S
O549 Nd521 2.682 1_565 S
O549 C538 1.273 . S
O550 Nd521 2.410 . S
O550 C539 1.251 . S
O551 Nd520 2.424 . S
O551 C539 1.268 . S
H552 C524 0.930 . S
H553 C525 0.929 . S
H554 C527 0.930 . S
H555 C528 0.929 1_545 S
H556 C533 0.930 1_556 S
H557 C534 0.929 . S
H558 C536 0.930 . S
H559 C537 0.929 . S
Nd560 C562 2.836 . S
Nd560 O580 2.500 . S
Nd560 O581 2.492 . S
Nd560 O582 2.487 . S
Nd560 O583 2.682 . S
Nd560 O584 2.410 . S
Nd560 O589 2.414 . S
Nd560 O591 2.424 . S
Nd561 C571 2.836 . S
Nd561 O583 2.414 . S
Nd561 O585 2.424 . S
Nd561 O586 2.500 . S
Nd561 O587 2.492 . S
Nd561 O588 2.487 . S
Nd561 O589 2.682 . S
Nd561 O590 2.410 . S
C562 Nd560 2.836 . S
C562 C563 1.498 1_556 S
C562 O580 1.258 . S
C562 O581 1.239 . S
C563 C562 1.498 1_554 S
C563 C564 1.366 1_554 S
C563 C568 1.407 . S
C564 C563 1.366 1_556 S
C564 C565 1.392 . S
C564 H592 0.930 . S
C565 C564 1.392 . S
C565 C566 1.398 1_556 S
C565 H593 0.929 . S
C566 C565 1.398 1_554 S
C566 C567 1.352 . S
C567 C566 1.352 . S
C567 C568 1.384 . S
C567 H594 0.930 . S
C568 C563 1.407 . S
C568 C567 1.384 . S
C568 H595 0.929 . S
C569 O582 1.241 . S
C569 O583 1.273 . S
C570 O584 1.251 . S
C570 O585 1.268 . S
C571 Nd561 2.836 . S
C571 C572 1.498 . S
C571 O586 1.258 . S
C571 O587 1.239 . S
C572 C571 1.498 . S
C572 C573 1.366 . S
C572 C577 1.407 . S
C573 C572 1.366 . S
C573 C574 1.392 . S
C573 H596 0.930 . S
C574 C573 1.392 . S
C574 C575 1.398 . S
C574 H597 0.929 . S
C575 C574 1.398 . S
C575 C576 1.352 . S
C576 C575 1.352 . S
C576 C577 1.384 . S
C576 H598 0.930 . S
C577 C572 1.407 . S
C577 C576 1.384 . S
C577 H599 0.929 . S
C578 O588 1.241 . S
C578 O589 1.273 . S
C579 O590 1.251 . S
C579 O591 1.268 . S
O580 Nd560 2.500 . S
O580 C562 1.258 . S
O581 Nd560 2.492 . S
O581 C562 1.239 . S
O582 Nd560 2.487 . S
O582 C569 1.241 . S
O583 Nd560 2.682 . S
O583 Nd561 2.414 . S
O583 C569 1.273 . S
O584 Nd560 2.410 . S
O584 C570 1.251 . S
O585 Nd561 2.424 . S
O585 C570 1.268 . S
O586 Nd561 2.500 . S
O586 C571 1.258 . S
O587 Nd561 2.492 . S
O587 C571 1.239 . S
O588 Nd561 2.487 . S
O588 C578 1.241 . S
O589 Nd560 2.414 . S
O589 Nd561 2.682 . S
O589 C578 1.273 . S
O590 Nd561 2.410 . S
O590 C579 1.251 . S
O591 Nd560 2.424 . S
O591 C579 1.268 . S
H592 C564 0.930 . S
H593 C565 0.929 . S
H594 C567 0.930 . S
H595 C568 0.929 . S
H596 C573 0.930 . S
H597 C574 0.929 . S
H598 C576 0.930 . S
H599 C577 0.929 . S
Nd600 C602 2.836 1_455 S
Nd600 O620 2.500 1_455 S
Nd600 O621 2.492 1_455 S
Nd600 O622 2.487 . S
Nd600 O623 2.682 . S
Nd600 O624 2.410 1_455 S
Nd600 O629 2.414 . S
Nd600 O631 2.424 . S
Nd601 C611 2.836 1_556 S
Nd601 O623 2.414 . S
Nd601 O625 2.424 1_455 S
Nd601 O626 2.500 . S
Nd601 O627 2.492 1_556 S
Nd601 O628 2.487 . S
Nd601 O629 2.682 . S
Nd601 O630 2.410 . S
C602 Nd600 2.836 1_655 S
C602 C603 1.498 . S
C602 O620 1.258 . S
C602 O621 1.239 . S
C603 C602 1.498 . S
C603 C604 1.366 . S
C603 C608 1.407 . S
C604 C603 1.366 . S
C604 C605 1.392 . S
C604 H632 0.930 . S
C605 C604 1.392 . S
C605 C606 1.398 . S
C605 H633 0.929 . S
C606 C605 1.398 . S
C606 C607 1.352 . S
C607 C606 1.352 . S
C607 C608 1.384 . S
C607 H634 0.930 . S
C608 C603 1.407 . S
C608 C607 1.384 . S
C608 H635 0.929 . S
C609 O622 1.241 . S
C609 O623 1.273 . S
C610 O624 1.251 . S
C610 O625 1.268 . S
C611 Nd601 2.836 1_554 S
C611 C612 1.498 . S
C611 O626 1.258 1_554 S
C611 O627 1.239 . S
C612 C611 1.498 . S
C612 C613 1.366 . S
C612 C617 1.407 . S
C613 C612 1.366 . S
C613 C614 1.392 . S
C613 H636 0.930 . S
C614 C613 1.392 . S
C614 C615 1.398 . S
C614 H637 0.929 . S
C615 C614 1.398 . S
C615 C616 1.352 . S
C616 C615 1.352 . S
C616 C617 1.384 . S
C616 H638 0.930 . S
C617 C612 1.407 . S
C617 C616 1.384 . S
C617 H639 0.929 . S
C618 O628 1.241 . S
C618 O629 1.273 . S
C619 O630 1.251 . S
C619 O631 1.268 . S
O620 Nd600 2.500 1_655 S
O620 C602 1.258 . S
O621 Nd600 2.492 1_655 S
O621 C602 1.239 . S
O622 Nd600 2.487 . S
O622 C609 1.241 . S
O623 Nd600 2.682 . S
O623 Nd601 2.414 . S
O623 C609 1.273 . S
O624 Nd600 2.410 1_655 S
O624 C610 1.251 . S
O625 Nd601 2.424 1_655 S
O625 C610 1.268 . S
O626 Nd601 2.500 . S
O626 C611 1.258 1_556 S
O627 Nd601 2.492 1_554 S
O627 C611 1.239 . S
O628 Nd601 2.487 . S
O628 C618 1.241 . S
O629 Nd600 2.414 . S
O629 Nd601 2.682 . S
O629 C618 1.273 . S
O630 Nd601 2.410 . S
O630 C619 1.251 . S
O631 Nd600 2.424 . S
O631 C619 1.268 . S
H632 C604 0.930 . S
H633 C605 0.929 . S
H634 C607 0.930 . S
H635 C608 0.929 . S
H636 C613 0.930 . S
H637 C614 0.929 . S
H638 C616 0.930 . S
H639 C617 0.929 . S
C640 C641 1.369 . S
C640 C642 1.419 . S
C640 H644 0.930 . S
C641 C640 1.369 . S
C641 C650 1.429 . S
C642 C640 1.419 . S
C642 C643 1.363 . S
C642 H645 0.929 . S
C643 C642 1.363 . S
C643 C649 1.428 . S
H644 C640 0.930 . S
H645 C642 0.929 . S
S646 N647 1.613 . S
S646 N648 1.610 . S
N647 S646 1.613 . S
N647 C650 1.350 . S
N648 S646 1.610 . S
N648 C649 1.351 . S
C649 C643 1.428 . S
C649 N648 1.351 . S
C649 C650 1.434 . S
C650 C641 1.429 . S
C650 N647 1.350 . S
C650 C649 1.434 . S
C651 C652 1.369 . S
C651 C653 1.419 . S
C651 H655 0.930 . S
C652 C651 1.369 . S
C652 C661 1.429 . S
C653 C651 1.419 . S
C653 C654 1.363 . S
C653 H656 0.929 . S
C654 C653 1.363 . S
C654 C660 1.428 . S
H655 C651 0.930 . S
H656 C653 0.929 . S
S657 N658 1.613 . S
S657 N659 1.610 . S
N658 S657 1.613 . S
N658 C661 1.350 . S
N659 S657 1.610 . S
N659 C660 1.351 . S
C660 C654 1.428 . S
C660 N659 1.351 . S
C660 C661 1.434 . S
C661 C652 1.429 . S
C661 N658 1.350 . S
C661 C660 1.434 . S
C662 C663 1.369 . S
C662 C664 1.419 . S
C662 H666 0.930 . S
C663 C662 1.369 . S
C663 C672 1.429 . S
C664 C662 1.419 . S
C664 C665 1.363 . S
C664 H667 0.929 . S
C665 C664 1.363 . S
C665 C671 1.428 . S
H666 C662 0.930 . S
H667 C664 0.929 . S
S668 N669 1.613 . S
S668 N670 1.610 . S
N669 S668 1.613 . S
N669 C672 1.350 . S
N670 S668 1.610 . S
N670 C671 1.351 . S
C671 C665 1.428 . S
C671 N670 1.351 . S
C671 C672 1.434 . S
C672 C663 1.429 . S
C672 N669 1.350 . S
C672 C671 1.434 . S
C673 C674 1.369 . S
C673 C675 1.419 . S
C673 H677 0.930 . S
C674 C673 1.369 . S
C674 C683 1.429 . S
C675 C673 1.419 . S
C675 C676 1.363 . S
C675 H678 0.929 . S
C676 C675 1.363 . S
C676 C682 1.428 . S
H677 C673 0.930 . S
H678 C675 0.929 . S
S679 N680 1.613 . S
S679 N681 1.610 . S
N680 S679 1.613 . S
N680 C683 1.350 . S
N681 S679 1.610 . S
N681 C682 1.351 . S
C682 C676 1.428 . S
C682 N681 1.351 . S
C682 C683 1.434 . S
C683 C674 1.429 . S
C683 N680 1.350 . S
C683 C682 1.434 . S
C684 C685 1.369 1_545 S
C684 C686 1.419 . S
C684 H688 0.930 . S
C685 C684 1.369 1_565 S
C685 C694 1.429 . S
C686 C684 1.419 . S
C686 C687 1.363 . S
C686 H689 0.929 . S
C687 C686 1.363 . S
C687 C693 1.428 1_545 S
H688 C684 0.930 . S
H689 C686 0.929 . S
S690 N691 1.613 . S
S690 N692 1.610 . S
N691 S690 1.613 . S
N691 C694 1.350 . S
N692 S690 1.610 . S
N692 C693 1.351 . S
C693 C687 1.428 1_565 S
C693 N692 1.351 . S
C693 C694 1.434 . S
C694 C685 1.429 . S
C694 N691 1.350 . S
C694 C693 1.434 . S
C695 C696 1.369 . S
C695 C697 1.419 . S
C695 H699 0.930 1_565 S
C696 C695 1.369 . S
C696 C705 1.429 . S
C697 C695 1.419 . S
C697 C698 1.363 . S
C697 H700 0.929 1_565 S
C698 C697 1.363 . S
C698 C704 1.428 . S
H699 C695 0.930 1_545 S
H700 C697 0.929 1_545 S
S701 N702 1.613 . S
S701 N703 1.610 . S
N702 S701 1.613 . S
N702 C705 1.350 . S
N703 S701 1.610 . S
N703 C704 1.351 . S
C704 C698 1.428 . S
C704 N703 1.351 . S
C704 C705 1.434 . S
C705 C696 1.429 . S
C705 N702 1.350 . S
C705 C704 1.434 . S
C706 C707 1.369 . S
C706 C708 1.419 . S
C706 H710 0.930 . S
C707 C706 1.369 . S
C707 C716 1.429 . S
C708 C706 1.419 . S
C708 C709 1.363 . S
C708 H711 0.929 . S
C709 C708 1.363 . S
C709 C715 1.428 . S
H710 C706 0.930 . S
H711 C708 0.929 . S
S712 N713 1.613 . S
S712 N714 1.610 . S
N713 S712 1.613 . S
N713 C716 1.350 . S
N714 S712 1.610 . S
N714 C715 1.351 . S
C715 C709 1.428 . S
C715 N714 1.351 . S
C715 C716 1.434 . S
C716 C707 1.429 . S
C716 N713 1.350 . S
C716 C715 1.434 . S
C717 C718 1.369 . S
C717 C719 1.419 . S
C717 H721 0.930 . S
C718 C717 1.369 . S
C718 C727 1.429 . S
C719 C717 1.419 . S
C719 C720 1.363 . S
C719 H722 0.929 . S
C720 C719 1.363 . S
C720 C726 1.428 . S
H721 C717 0.930 . S
H722 C719 0.929 . S
S723 N724 1.613 . S
S723 N725 1.610 . S
N724 S723 1.613 . S
N724 C727 1.350 . S
N725 S723 1.610 . S
N725 C726 1.351 . S
C726 C720 1.428 . S
C726 N725 1.351 . S
C726 C727 1.434 . S
C727 C718 1.429 . S
C727 N724 1.350 . S
C727 C726 1.434 . S
C728 C729 1.369 . S
C728 C730 1.419 . S
C728 H732 0.930 . S
C729 C728 1.369 . S
C729 C738 1.429 . S
C730 C728 1.419 . S
C730 C731 1.363 . S
C730 H733 0.929 . S
C731 C730 1.363 . S
C731 C737 1.428 . S
H732 C728 0.930 . S
H733 C730 0.929 . S
S734 N735 1.613 . S
S734 N736 1.610 . S
N735 S734 1.613 . S
N735 C738 1.350 . S
N736 S734 1.610 . S
N736 C737 1.351 . S
C737 C731 1.428 . S
C737 N736 1.351 . S
C737 C738 1.434 . S
C738 C729 1.429 . S
C738 N735 1.350 . S
C738 C737 1.434 . S
C739 C740 1.369 . S
C739 C741 1.419 . S
C739 H743 0.930 . S
C740 C739 1.369 . S
C740 C749 1.429 . S
C741 C739 1.419 . S
C741 C742 1.363 . S
C741 H744 0.929 . S
C742 C741 1.363 . S
C742 C748 1.428 . S
H743 C739 0.930 . S
H744 C741 0.929 . S
S745 N746 1.613 1_565 S
S745 N747 1.610 1_554 S
N746 S745 1.613 1_545 S
N746 C749 1.350 1_554 S
N747 S745 1.610 1_556 S
N747 C748 1.351 1_565 S
C748 C742 1.428 . S
C748 N747 1.351 1_545 S
C748 C749 1.434 . S
C749 C740 1.429 . S
C749 N746 1.350 1_556 S
C749 C748 1.434 . S
C750 C751 1.369 . S
C750 C752 1.419 . S
C750 H754 0.930 . S
C751 C750 1.369 . S
C751 C760 1.429 . S
C752 C750 1.419 . S
C752 C753 1.363 . S
C752 H755 0.929 . S
C753 C752 1.363 . S
C753 C759 1.428 . S
H754 C750 0.930 . S
H755 C752 0.929 . S
S756 N757 1.613 . S
S756 N758 1.610 . S
N757 S756 1.613 . S
N757 C760 1.350 . S
N758 S756 1.610 . S
N758 C759 1.351 . S
C759 C753 1.428 . S
C759 N758 1.351 . S
C759 C760 1.434 . S
C760 C751 1.429 . S
C760 N757 1.350 . S
C760 C759 1.434 . S
C761 C762 1.369 . S
C761 C763 1.419 . S
C761 H765 0.930 . S
C762 C761 1.369 . S
C762 C771 1.429 . S
C763 C761 1.419 . S
C763 C764 1.363 . S
C763 H766 0.929 . S
C764 C763 1.363 . S
C764 C770 1.428 . S
H765 C761 0.930 . S
H766 C763 0.929 . S
S767 N768 1.613 1_554 S
S767 N769 1.610 1_554 S
N768 S767 1.613 1_556 S
N768 C771 1.350 . S
N769 S767 1.610 1_556 S
N769 C770 1.351 . S
C770 C764 1.428 . S
C770 N769 1.351 . S
C770 C771 1.434 . S
C771 C762 1.429 . S
C771 N768 1.350 . S
C771 C770 1.434 . S
C772 C773 1.369 . S
C772 C774 1.419 . S
C772 H776 0.930 . S
C773 C772 1.369 . S
C773 C782 1.429 . S
C774 C772 1.419 . S
C774 C775 1.363 . S
C774 H777 0.929 . S
C775 C774 1.363 . S
C775 C781 1.428 . S
H776 C772 0.930 . S
H777 C774 0.929 . S
S778 N779 1.613 . S
S778 N780 1.610 . S
N779 S778 1.613 . S
N779 C782 1.350 . S
N780 S778 1.610 . S
N780 C781 1.352 . S
C781 C775 1.428 . S
C781 N780 1.352 . S
C781 C782 1.434 . S
C782 C773 1.429 . S
C782 N779 1.350 . S
C782 C781 1.434 . S
C783 C784 1.369 1_545 S
C783 C785 1.419 . S
C783 H787 0.930 . S
C784 C783 1.369 1_565 S
C784 C793 1.429 . S
C785 C783 1.419 . S
C785 C786 1.363 . S
C785 H788 0.929 . S
C786 C785 1.363 . S
C786 C792 1.428 1_545 S
H787 C783 0.930 . S
H788 C785 0.929 . S
S789 N790 1.613 . S
S789 N791 1.610 . S
N790 S789 1.613 . S
N790 C793 1.350 . S
N791 S789 1.610 . S
N791 C792 1.351 . S
C792 C786 1.428 1_565 S
C792 N791 1.351 . S
C792 C793 1.434 . S
C793 C784 1.429 . S
C793 N790 1.350 . S
C793 C792 1.434 . S
C794 C795 1.369 . S
C794 C796 1.419 . S
C794 H798 0.930 . S
C795 C794 1.369 . S
C795 C804 1.429 . S
C796 C794 1.419 . S
C796 C797 1.363 . S
C796 H799 0.929 1_554 S
C797 C796 1.363 . S
C797 C803 1.428 . S
H798 C794 0.930 . S
H799 C796 0.929 1_556 S
S800 N801 1.613 . S
S800 N802 1.610 . S
N801 S800 1.613 . S
N801 C804 1.350 . S
N802 S800 1.610 . S
N802 C803 1.351 . S
C803 C797 1.428 . S
C803 N802 1.351 . S
C803 C804 1.434 . S
C804 C795 1.429 . S
C804 N801 1.350 . S
C804 C803 1.434 . S
C805 C806 1.369 . S
C805 C807 1.419 . S
C805 H809 0.930 . S
C806 C805 1.369 . S
C806 C815 1.429 . S
C807 C805 1.419 . S
C807 C808 1.363 . S
C807 H810 0.929 . S
C808 C807 1.363 . S
C808 C814 1.428 . S
H809 C805 0.930 . S
H810 C807 0.929 . S
S811 N812 1.613 . S
S811 N813 1.610 . S
N812 S811 1.613 . S
N812 C815 1.350 . S
N813 S811 1.610 . S
N813 C814 1.351 . S
C814 C808 1.428 . S
C814 N813 1.351 . S
C814 C815 1.434 . S
C815 C806 1.429 . S
C815 N812 1.350 . S
C815 C814 1.434 . S
C816 C817 1.369 . S
C816 C818 1.419 . S
C816 H820 0.930 . S
C817 C816 1.369 . S
C817 C826 1.429 . S
C818 C816 1.419 . S
C818 C819 1.363 . S
C818 H821 0.929 . S
C819 C818 1.363 . S
C819 C825 1.428 . S
H820 C816 0.930 . S
H821 C818 0.929 . S
S822 N823 1.613 . S
S822 N824 1.610 . S
N823 S822 1.613 . S
N823 C826 1.350 . S
N824 S822 1.610 . S
N824 C825 1.351 . S
C825 C819 1.428 . S
C825 N824 1.351 . S
C825 C826 1.434 . S
C826 C817 1.429 . S
C826 N823 1.350 . S
C826 C825 1.434 . S
C827 C828 1.369 . S
C827 C829 1.419 . S
C827 H831 0.930 . S
C828 C827 1.369 . S
C828 C837 1.429 . S
C829 C827 1.419 . S
C829 C830 1.363 . S
C829 H832 0.929 . S
C830 C829 1.363 . S
C830 C836 1.428 . S
H831 C827 0.930 . S
H832 C829 0.929 . S
S833 N834 1.613 . S
S833 N835 1.610 . S
N834 S833 1.613 . S
N834 C837 1.350 . S
N835 S833 1.610 . S
N835 C836 1.351 . S
C836 C830 1.428 . S
C836 N835 1.351 . S
C836 C837 1.434 . S
C837 C828 1.429 . S
C837 N834 1.350 . S
C837 C836 1.434 . S
C838 C839 1.369 . S
C838 C840 1.419 . S
C838 H842 0.930 . S
C839 C838 1.369 . S
C839 C848 1.429 1_556 S
C840 C838 1.419 . S
C840 C841 1.363 . S
C840 H843 0.929 . S
C841 C840 1.363 . S
C841 C847 1.428 1_556 S
H842 C838 0.930 . S
H843 C840 0.929 . S
S844 N845 1.613 . S
S844 N846 1.610 . S
N845 S844 1.613 . S
N845 C848 1.350 . S
N846 S844 1.610 . S
N846 C847 1.351 . S
C847 C841 1.428 1_554 S
C847 N846 1.351 . S
C847 C848 1.434 . S
C848 C839 1.429 1_554 S
C848 N845 1.350 . S
C848 C847 1.434 . S
C849 C850 1.369 . S
C849 C851 1.419 . S
C849 H853 0.930 . S
C850 C849 1.369 . S
C850 C859 1.429 . S
C851 C849 1.419 . S
C851 C852 1.363 . S
C851 H854 0.929 . S
C852 C851 1.363 . S
C852 C858 1.428 . S
H853 C849 0.930 . S
H854 C851 0.929 . S
S855 N856 1.613 . S
S855 N857 1.610 . S
N856 S855 1.613 . S
N856 C859 1.350 . S
N857 S855 1.610 . S
N857 C858 1.351 . S
C858 C852 1.428 . S
C858 N857 1.351 . S
C858 C859 1.434 . S
C859 C850 1.429 . S
C859 N856 1.350 . S
C859 C858 1.434 . S
C860 C861 1.369 . S
C860 C862 1.419 . S
C860 H864 0.930 . S
C861 C860 1.369 . S
C861 C870 1.429 . S
C862 C860 1.419 . S
C862 C863 1.363 . S
C862 H865 0.929 . S
C863 C862 1.363 . S
C863 C869 1.428 . S
H864 C860 0.930 . S
H865 C862 0.929 . S
S866 N867 1.613 . S
S866 N868 1.610 . S
N867 S866 1.613 . S
N867 C870 1.350 . S
N868 S866 1.610 . S
N868 C869 1.351 . S
C869 C863 1.428 . S
C869 N868 1.351 . S
C869 C870 1.434 . S
C870 C861 1.429 . S
C870 N867 1.350 . S
C870 C869 1.434 . S
C871 C872 1.369 . S
C871 C873 1.419 . S
C871 H875 0.930 . S
C872 C871 1.369 . S
C872 C881 1.429 . S
C873 C871 1.419 . S
C873 C874 1.363 . S
C873 H876 0.929 . S
C874 C873 1.363 . S
C874 C880 1.428 . S
H875 C871 0.930 . S
H876 C873 0.929 . S
S877 N878 1.613 . S
S877 N879 1.610 . S
N878 S877 1.613 . S
N878 C881 1.350 1_545 S
N879 S877 1.610 . S
N879 C880 1.351 1_545 S
C880 C874 1.428 . S
C880 N879 1.351 1_565 S
C880 C881 1.434 . S
C881 C872 1.429 . S
C881 N878 1.350 1_565 S
C881 C880 1.434 . S
C882 C883 1.369 . S
C882 C884 1.419 . S
C882 H886 0.930 . S
C883 C882 1.369 . S
C883 C892 1.429 . S
C884 C882 1.419 . S
C884 C885 1.363 . S
C884 H887 0.929 . S
C885 C884 1.363 . S
C885 C891 1.428 . S
H886 C882 0.930 . S
H887 C884 0.929 . S
S888 N889 1.613 . S
S888 N890 1.610 . S
N889 S888 1.613 . S
N889 C892 1.350 . S
N890 S888 1.610 . S
N890 C891 1.351 . S
C891 C885 1.428 . S
C891 N890 1.351 . S
C891 C892 1.434 . S
C892 C883 1.429 . S
C892 N889 1.350 . S
C892 C891 1.434 . S
C893 C894 1.369 . S
C893 C895 1.419 . S
C893 H897 0.930 . S
C894 C893 1.369 . S
C894 C903 1.429 . S
C895 C893 1.419 . S
C895 C896 1.363 . S
C895 H898 0.929 . S
C896 C895 1.363 . S
C896 C902 1.428 . S
H897 C893 0.930 . S
H898 C895 0.929 . S
S899 N900 1.613 . S
S899 N901 1.610 . S
N900 S899 1.613 . S
N900 C903 1.350 . S
N901 S899 1.610 . S
N901 C902 1.351 . S
C902 C896 1.428 . S
C902 N901 1.351 . S
C902 C903 1.434 . S
C903 C894 1.429 . S
C903 N900 1.350 . S
C903 C902 1.434 . S
C641 C391 1.362 . S
C643 C489 1.325 . S
C654 C529 2.222 . S
C652 C451 2.487 . S
C665 C578 1.557 . S
C663 C241 1.551 . S
C676 C609 2.071 . S
C674 C331 1.940 . S
C687 C498 1.328 . S
C685 C121 1.372 . S
C696 C211 2.357 . S
C698 C538 2.229 1_554 S
C707 C31 1.547 . S
C709 C569 1.556 . S
C718 C91 2.083 . S
C720 C618 2.066 1_655 S
C731 C499 1.904 . S
C729 C301 1.285 . S
C742 C539 1.788 . S
C740 C380 1.681 . S
C753 C575 0.832 . S
C751 C440 0.844 . S
C762 C260 1.465 . S
C764 C619 1.888 . S
C773 C61 1.474 . S
C775 C490 1.902 1_655 S
C786 C530 1.785 . S
C784 C140 1.404 . S
C797 C566 0.835 . S
C795 C200 0.818 . S
C806 C20 1.748 . S
C808 C610 1.891 . S
C817 C320 2.065 . S
C819 C495 2.181 . S
C828 C361 1.643 . S
C830 C535 1.789 . S
C841 C579 3.147 . S
C839 C421 2.560 1_556 S
C852 C615 1.800 . S
C850 C271 1.812 . S
C861 C80 2.132 . S
C863 C486 2.180 . S
C874 C526 1.787 . S
C872 C151 1.796 . S
C885 C570 3.148 . S
C883 C181 2.473 . S
C894 C1 1.695 . S
C896 C606 1.801 . S
